# Generated by pormake.
# Topology uop, (4)-cn, num edge types: 1
# Building blocks:
#     Node 0, Type 0, BuildingBlock: KOZSID_clean_sbu_0, # of connection points: 4
#     Node 1, Type 0, BuildingBlock: KOZSID_clean_sbu_0, # of connection points: 4
#     Node 2, Type 0, BuildingBlock: KOZSID_clean_sbu_0, # of connection points: 4
#     Node 3, Type 0, BuildingBlock: KOZSID_clean_sbu_0, # of connection points: 4
#     Node 4, Type 0, BuildingBlock: KOZSID_clean_sbu_0, # of connection points: 4
#     Node 5, Type 0, BuildingBlock: KOZSID_clean_sbu_0, # of connection points: 4
#     Node 6, Type 0, BuildingBlock: KOZSID_clean_sbu_0, # of connection points: 4
#     Node 7, Type 0, BuildingBlock: KOZSID_clean_sbu_0, # of connection points: 4
#     Node 8, Type 0, BuildingBlock: KOZSID_clean_sbu_0, # of connection points: 4
#     Node 9, Type 0, BuildingBlock: KOZSID_clean_sbu_0, # of connection points: 4
#     Node 10, Type 0, BuildingBlock: KOZSID_clean_sbu_0, # of connection points: 4
#     Node 11, Type 0, BuildingBlock: KOZSID_clean_sbu_0, # of connection points: 4
#     Edge 12, Type (0, 0), BuildingBlock: EZIPEK_clean_linker_0, # of connection points: 2
#     Edge 13, Type (0, 0), BuildingBlock: EZIPEK_clean_linker_0, # of connection points: 2
#     Edge 14, Type (0, 0), BuildingBlock: EZIPEK_clean_linker_0, # of connection points: 2
#     Edge 15, Type (0, 0), BuildingBlock: EZIPEK_clean_linker_0, # of connection points: 2
#     Edge 16, Type (0, 0), BuildingBlock: EZIPEK_clean_linker_0, # of connection points: 2
#     Edge 17, Type (0, 0), BuildingBlock: EZIPEK_clean_linker_0, # of connection points: 2
#     Edge 18, Type (0, 0), BuildingBlock: EZIPEK_clean_linker_0, # of connection points: 2
#     Edge 19, Type (0, 0), BuildingBlock: EZIPEK_clean_linker_0, # of connection points: 2
#     Edge 20, Type (0, 0), BuildingBlock: EZIPEK_clean_linker_0, # of connection points: 2
#     Edge 21, Type (0, 0), BuildingBlock: EZIPEK_clean_linker_0, # of connection points: 2
#     Edge 22, Type (0, 0), BuildingBlock: EZIPEK_clean_linker_0, # of connection points: 2
#     Edge 23, Type (0, 0), BuildingBlock: EZIPEK_clean_linker_0, # of connection points: 2
#     Edge 24, Type (0, 0), BuildingBlock: EZIPEK_clean_linker_0, # of connection points: 2
#     Edge 25, Type (0, 0), BuildingBlock: EZIPEK_clean_linker_0, # of connection points: 2
#     Edge 26, Type (0, 0), BuildingBlock: EZIPEK_clean_linker_0, # of connection points: 2
#     Edge 27, Type (0, 0), BuildingBlock: EZIPEK_clean_linker_0, # of connection points: 2
#     Edge 28, Type (0, 0), BuildingBlock: EZIPEK_clean_linker_0, # of connection points: 2
#     Edge 29, Type (0, 0), BuildingBlock: EZIPEK_clean_linker_0, # of connection points: 2
#     Edge 30, Type (0, 0), BuildingBlock: EZIPEK_clean_linker_0, # of connection points: 2
#     Edge 31, Type (0, 0), BuildingBlock: EZIPEK_clean_linker_0, # of connection points: 2
#     Edge 32, Type (0, 0), BuildingBlock: EZIPEK_clean_linker_0, # of connection points: 2
#     Edge 33, Type (0, 0), BuildingBlock: EZIPEK_clean_linker_0, # of connection points: 2
#     Edge 34, Type (0, 0), BuildingBlock: EZIPEK_clean_linker_0, # of connection points: 2
#     Edge 35, Type (0, 0), BuildingBlock: EZIPEK_clean_linker_0, # of connection points: 2
# Relax obj value: 0.081
# Max RMSD: 0.275
# Mean RMSD: 0.247
data_MOF--net-uop--node1-KOZSID_clean_sbu_0--edge1-EZIPEK_clean_linker_0
_symmetry_space_group_name_H-M    P1
_symmetry_Int_Tables_number       1
_symmetry_cell_setting            triclinic
loop_
_symmetry_equiv_pos_as_xyz
'x, y, z'
_cell_length_a     30.94007
_cell_length_b     29.548262
_cell_length_c     52.316244
_cell_angle_alpha  90.102446
_cell_angle_beta   89.856708
_cell_angle_gamma 121.84834
loop_
_atom_site_label
_atom_site_type_symbol
_atom_site_fract_x
_atom_site_fract_y
_atom_site_fract_z
_atom_type_partial_charge
C0 C 0.38497 0.44039 0.20562 0.0
C1 C 0.41021 0.42184 0.19095 0.0
C2 C 0.37466 0.38082 0.17657 0.0
C3 C 0.32966 0.37552 0.18344 0.0
N4 N 0.33389 0.41121 0.20095 0.0
Co5 Co 0.27474 0.40864 0.21852 0.0
N6 N 0.22466 0.35539 0.19343 0.0
C7 C 0.23425 0.32727 0.17653 0.0
C8 C 0.19667 0.30032 0.15883 0.0
C9 C 0.16076 0.31194 0.16467 0.0
C10 C 0.17757 0.34406 0.18636 0.0
N11 N 0.21469 0.4058 0.2347 0.0
C12 C 0.16627 0.38626 0.22566 0.0
C13 C 0.13722 0.39258 0.24385 0.0
C14 C 0.1683 0.41716 0.26461 0.0
C15 C 0.21467 0.42438 0.25817 0.0
N16 N 0.32496 0.46077 0.24369 0.0
C17 C 0.31196 0.47317 0.26606 0.0
C18 C 0.35345 0.50862 0.28034 0.0
C19 C 0.39518 0.51801 0.26648 0.0
C20 C 0.37703 0.48701 0.24457 0.0
N21 N 0.28279 0.46871 0.19708 0.0
C22 C 0.28118 0.55132 0.16993 0.0
C23 C 0.28332 0.55132 0.19651 0.0
C24 C 0.28421 0.51048 0.20949 0.0
C25 C 0.2815 0.50956 0.15692 0.0
C26 C 0.28242 0.46872 0.17084 0.0
N27 N 0.26724 0.35121 0.2425 0.0
C28 C 0.22483 0.29914 0.28082 0.0
C29 C 0.27054 0.30601 0.29025 0.0
C30 C 0.31256 0.33055 0.27391 0.0
C31 C 0.31006 0.35203 0.25041 0.0
C32 C 0.22375 0.32089 0.25677 0.0
H33 H 0.34483 0.37261 0.23997 0.0
H34 H 0.18818 0.31586 0.25069 0.0
H35 H 0.28413 0.51239 0.2299 0.0
H36 H 0.28157 0.43667 0.16043 0.0
C37 C 0.28294 0.33746 0.17357 0.0
C38 C 0.41003 0.479 0.22669 0.0
C39 C 0.14597 0.35958 0.20046 0.0
C40 C 0.26055 0.45405 0.27183 0.0
H41 H 0.44966 0.43357 0.19158 0.0
H42 H 0.38067 0.35638 0.16337 0.0
H43 H 0.19723 0.2785 0.14232 0.0
H44 H 0.12671 0.29892 0.15363 0.0
H45 H 0.0978 0.38092 0.24217 0.0
H46 H 0.1586 0.42978 0.28198 0.0
H47 H 0.35345 0.52571 0.29866 0.0
H48 H 0.43444 0.54309 0.27237 0.0
H49 H 0.28307 0.58241 0.20741 0.0
H50 H 0.27983 0.50782 0.13625 0.0
H51 H 0.19064 0.27904 0.29237 0.0
H52 H 0.34841 0.33571 0.27987 0.0
C53 C 0.9538 0.36818 0.55526 0.0
C54 C 0.99795 0.39759 0.54071 0.0
C55 C 1.00059 0.3631 0.52456 0.0
C56 C 0.95896 0.31443 0.53032 0.0
N57 N 0.92904 0.31542 0.54889 0.0
Co58 Co 0.87086 0.25021 0.56548 0.0
N59 N 0.87115 0.20147 0.53872 0.0
C60 C 0.91003 0.21426 0.52268 0.0
C61 C 0.90258 0.17328 0.50725 0.0
C62 C 0.8556 0.13148 0.51363 0.0
C63 C 0.83668 0.1496 0.53251 0.0
N64 N 0.81102 0.18381 0.58025 0.0
C65 C 0.77856 0.13464 0.56934 0.0
C66 C 0.73907 0.10302 0.58604 0.0
C67 C 0.7476 0.13235 0.60801 0.0
C68 C 0.79148 0.18077 0.60366 0.0
N69 N 0.87231 0.29885 0.59255 0.0
C70 C 0.84647 0.28175 0.61478 0.0
C71 C 0.85417 0.32295 0.63027 0.0
C72 C 0.88796 0.36878 0.61736 0.0
C73 C 0.90016 0.35339 0.59475 0.0
N74 N 0.82051 0.25927 0.54579 0.0
C75 C 0.74429 0.27197 0.52263 0.0
C76 C 0.74304 0.26104 0.54851 0.0
C77 C 0.78086 0.25551 0.55949 0.0
C78 C 0.78506 0.27632 0.50812 0.0
C79 C 0.82272 0.26951 0.52008 0.0
N80 N 0.9199 0.24266 0.58824 0.0
C81 C 0.92638 0.20624 0.629 0.0
C82 C 0.97159 0.25402 0.63549 0.0
C83 C 0.99352 0.29264 0.61625 0.0
C84 C 0.96769 0.28625 0.59312 0.0
C85 C 0.90241 0.20074 0.60509 0.0
H86 H 0.98658 0.31899 0.58022 0.0
H87 H 0.86803 0.16316 0.60123 0.0
H88 H 0.77712 0.24833 0.5795 0.0
H89 H 0.8535 0.27288 0.50871 0.0
C90 C 0.94917 0.26677 0.51989 0.0
C91 C 0.94145 0.3914 0.57705 0.0
C92 C 0.78606 0.11546 0.54404 0.0
C93 C 0.81086 0.22697 0.61891 0.0
H94 H 0.02753 0.4391 0.54254 0.0
H95 H 0.03086 0.37202 0.51119 0.0
H96 H 0.92752 0.17426 0.49241 0.0
H97 H 0.83734 0.09221 0.50515 0.0
H98 H 0.70754 0.06279 0.58276 0.0
H99 H 0.72338 0.12046 0.62474 0.0
H100 H 0.83667 0.3201 0.64862 0.0
H101 H 0.90296 0.40895 0.62418 0.0
H102 H 0.71283 0.25742 0.56058 0.0
H103 H 0.78788 0.28507 0.48789 0.0
H104 H 0.90863 0.17385 0.64264 0.0
H105 H 0.02947 0.3294 0.61964 0.0
C106 C 0.66299 0.87056 0.98522 0.0
C107 C 0.66343 0.85758 0.01067 0.0
C108 C 0.63147 0.80361 0.01264 0.0
C109 C 0.61274 0.78646 0.98848 0.0
N110 N 0.63136 0.82616 0.97119 0.0
Co111 Co 0.61005 0.81818 0.93458 0.0
N112 N 0.54583 0.74851 0.94117 0.0
C113 C 0.53539 0.71891 0.96249 0.0
C114 C 0.48828 0.673 0.96224 0.0
C115 C 0.46761 0.67318 0.93921 0.0
C116 C 0.50363 0.71923 0.92655 0.0
N117 N 0.58917 0.80941 0.89812 0.0
C118 C 0.54418 0.77346 0.88662 0.0
C119 C 0.54817 0.78047 0.86035 0.0
C120 C 0.59713 0.82171 0.85534 0.0
C121 C 0.62069 0.83777 0.87874 0.0
N122 N 0.67303 0.8899 0.92943 0.0
C123 C 0.69383 0.91125 0.90655 0.0
C124 C 0.73432 0.96296 0.90872 0.0
C125 C 0.73876 0.97483 0.93448 0.0
C126 C 0.70077 0.92977 0.94682 0.0
N127 N 0.64752 0.78089 0.92515 0.0
C128 C 0.69211 0.73806 0.89168 0.0
C129 C 0.71743 0.79228 0.8987 0.0
C130 C 0.69732 0.81076 0.91731 0.0
C131 C 0.64501 0.70517 0.90422 0.0
C132 C 0.62238 0.72733 0.91934 0.0
N133 N 0.57455 0.85647 0.94103 0.0
C134 C 0.57099 0.93266 0.92846 0.0
C135 C 0.53895 0.92614 0.94876 0.0
C136 C 0.52341 0.88183 0.96503 0.0
C137 C 0.54322 0.84844 0.96134 0.0
C138 C 0.58505 0.89621 0.92412 0.0
H139 H 0.53344 0.8166 0.97472 0.0
H140 H 0.60673 0.90254 0.90722 0.0
H141 H 0.72223 0.85077 0.92396 0.0
H142 H 0.58394 0.70029 0.92547 0.0
C143 C 0.5688 0.7376 0.98313 0.0
C144 C 0.693 0.92535 0.97514 0.0
C145 C 0.49813 0.73044 0.89982 0.0
C146 C 0.66892 0.88401 0.88377 0.0
H147 H 0.68329 0.88417 0.02645 0.0
H148 H 0.61998 0.78034 0.03005 0.0
H149 H 0.47075 0.64328 0.97715 0.0
H150 H 0.43065 0.64222 0.93234 0.0
H151 H 0.51882 0.75791 0.84631 0.0
H152 H 0.61308 0.83892 0.83686 0.0
H153 H 0.75651 0.98976 0.89335 0.0
H154 H 0.76639 0.01243 0.94321 0.0
H155 H 0.75335 0.8214 0.89011 0.0
H156 H 0.62406 0.66245 0.90148 0.0
H157 H 0.58519 0.96599 0.9154 0.0
H158 H 0.49734 0.87376 0.98067 0.0
C159 C 0.66229 0.60854 0.21646 0.0
C160 C 0.64393 0.64053 0.20915 0.0
C161 C 0.6773 0.67576 0.19174 0.0
C162 C 0.71506 0.66488 0.19014 0.0
N163 N 0.70815 0.62486 0.20541 0.0
Co164 Co 0.7622 0.61059 0.21598 0.0
N165 N 0.817 0.6739 0.19617 0.0
C166 C 0.80865 0.70447 0.1803 0.0
C167 C 0.85031 0.74137 0.16688 0.0
C168 C 0.88799 0.73361 0.17402 0.0
C169 C 0.86747 0.69268 0.19202 0.0
N170 N 0.81738 0.59802 0.22664 0.0
C171 C 0.86824 0.6239 0.22038 0.0
C172 C 0.89075 0.59877 0.23148 0.0
C173 C 0.85281 0.55446 0.24373 0.0
C174 C 0.80928 0.5552 0.23993 0.0
N175 N 0.70671 0.54743 0.23518 0.0
C176 C 0.71161 0.50853 0.24531 0.0
C177 C 0.66684 0.46723 0.25512 0.0
C178 C 0.63124 0.48069 0.25081 0.0
C179 C 0.65636 0.53014 0.23897 0.0
N180 N 0.74899 0.56162 0.18598 0.0
C181 C 0.74637 0.47215 0.16367 0.0
C182 C 0.70281 0.46731 0.17487 0.0
C183 C 0.70428 0.51279 0.18469 0.0
C184 C 0.78798 0.52402 0.16007 0.0
C185 C 0.78848 0.56783 0.17115 0.0
N186 N 0.7739 0.6553 0.24744 0.0
C187 C 0.75764 0.65331 0.29314 0.0
C188 C 0.76574 0.70474 0.29318 0.0
C189 C 0.78153 0.73215 0.26952 0.0
C190 C 0.7836 0.70634 0.24691 0.0
C191 C 0.76482 0.63125 0.27093 0.0
H192 H 0.79213 0.72759 0.22908 0.0
H193 H 0.76069 0.59313 0.27302 0.0
H194 H 0.66994 0.507 0.19306 0.0
H195 H 0.82247 0.60582 0.16874 0.0
C196 C 0.76132 0.69823 0.17851 0.0
C197 C 0.63083 0.55832 0.23048 0.0
C198 C 0.89544 0.66816 0.20156 0.0
C199 C 0.75978 0.51487 0.24698 0.0
H200 H 0.60933 0.63799 0.21537 0.0
H201 H 0.67574 0.70762 0.1825 0.0
H202 H 0.85259 0.7695 0.15288 0.0
H203 H 0.92535 0.75434 0.16549 0.0
H204 H 0.92988 0.60954 0.22948 0.0
H205 H 0.85621 0.52405 0.25332 0.0
H206 H 0.66081 0.43172 0.2645 0.0
H207 H 0.59133 0.45669 0.25575 0.0
H208 H 0.66837 0.42847 0.17687 0.0
H209 H 0.82129 0.53036 0.14994 0.0
H210 H 0.74572 0.62954 0.3104 0.0
H211 H 0.79044 0.77276 0.26818 0.0
C212 C 0.06206 0.65559 0.56365 0.0
C213 C 1.01195 0.63076 0.5554 0.0
C214 C 1.01139 0.65993 0.53548 0.0
C215 C 0.06053 0.70198 0.53327 0.0
N216 N 0.09257 0.70189 0.55073 0.0
Co217 Co 0.16199 0.76436 0.55951 0.0
N218 N 0.15632 0.8132 0.53435 0.0
C219 C 0.11604 0.7988 0.51906 0.0
C220 C 0.1195 0.83953 0.50494 0.0
C221 C 0.16548 0.88299 0.51103 0.0
C222 C 0.1881 0.86608 0.52828 0.0
N223 N 0.23195 0.82805 0.56709 0.0
C224 C 0.25966 0.87816 0.55611 0.0
C225 C 0.30968 0.90474 0.56442 0.0
C226 C 0.31406 0.87086 0.58055 0.0
C227 C 0.26669 0.82514 0.58128 0.0
N228 N 0.16627 0.71542 0.58478 0.0
C229 C 0.20931 0.72729 0.5969 0.0
C230 C 0.20472 0.685 0.61024 0.0
C231 C 0.15573 0.6435 0.6062 0.0
C232 C 0.13236 0.66273 0.59088 0.0
N233 N 0.19586 0.74277 0.53352 0.0
C234 C 0.28118 0.73537 0.51935 0.0
C235 C 0.23912 0.6942 0.53262 0.0
C236 C 0.19561 0.69673 0.53732 0.0
C237 C 0.2747 0.77603 0.50976 0.0
C238 C 0.23286 0.77969 0.51765 0.0
N239 N 0.1304 0.78376 0.58786 0.0
C240 C 0.12771 0.79198 0.63418 0.0
C241 C 0.07566 0.77335 0.63386 0.0
C242 C 0.05286 0.76518 0.60967 0.0
C243 C 0.08092 0.77144 0.58706 0.0
C244 C 0.15414 0.79731 0.61126 0.0
H245 H 0.06126 0.76342 0.56916 0.0
H246 H 0.19315 0.80879 0.613 0.0
H247 H 0.16409 0.66319 0.54657 0.0
H248 H 0.23269 0.81438 0.51261 0.0
C249 C 0.07426 0.7473 0.51926 0.0
C250 C 0.07989 0.62852 0.58024 0.0
C251 C 0.24174 0.90077 0.53605 0.0
C252 C 0.25374 0.77772 0.59397 0.0
H253 H 0.97935 0.59426 0.56253 0.0
H254 H 0.97845 0.653 0.52485 0.0
H255 H 0.09171 0.83782 0.49179 0.0
H256 H 0.18102 0.92242 0.50312 0.0
H257 H 0.34038 0.94382 0.55859 0.0
H258 H 0.34832 0.87802 0.58987 0.0
H259 H 0.23406 0.68383 0.62089 0.0
H260 H 0.13989 0.60319 0.61294 0.0
H261 H 0.23991 0.66054 0.54011 0.0
H262 H 0.30377 0.80737 0.49789 0.0
H263 H 0.14751 0.79993 0.65224 0.0
H264 H 1.013 0.75204 0.60826 0.0
C265 C 0.37983 0.15863 0.98583 0.0
C266 C 0.37959 0.1712 0.01139 0.0
C267 C 0.41232 0.22499 0.01363 0.0
C268 C 0.43126 0.24239 0.98951 0.0
N269 N 0.41212 0.20306 0.97199 0.0
Co270 Co 0.43325 0.21149 0.93528 0.0
N271 N 0.49785 0.28075 0.94199 0.0
C272 C 0.50866 0.30997 0.9635 0.0
C273 C 0.55587 0.35574 0.96324 0.0
C274 C 0.57622 0.35593 0.94001 0.0
C275 C 0.53992 0.31022 0.92724 0.0
N276 N 0.45394 0.22078 0.89873 0.0
C277 C 0.49883 0.25694 0.88714 0.0
C278 C 0.4946 0.25051 0.86084 0.0
C279 C 0.44557 0.2095 0.85588 0.0
C280 C 0.42224 0.19298 0.87934 0.0
N281 N 0.36983 0.14022 0.92993 0.0
C282 C 0.34877 0.11954 0.90702 0.0
C283 C 0.30766 0.06816 0.90903 0.0
C284 C 0.303 0.05579 0.93472 0.0
C285 C 0.34149 0.10028 0.94717 0.0
N286 N 0.39634 0.24941 0.92657 0.0
C287 C 0.35183 0.29213 0.89342 0.0
C288 C 0.32604 0.23813 0.90082 0.0
C289 C 0.34622 0.21987 0.91934 0.0
C290 C 0.39931 0.32501 0.90553 0.0
C291 C 0.42188 0.30282 0.9205 0.0
N292 N 0.46815 0.17246 0.94112 0.0
C293 C 0.47001 0.09536 0.92827 0.0
C294 C 0.50206 0.10128 0.94839 0.0
C295 C 0.51866 0.14592 0.96462 0.0
C296 C 0.49961 0.18001 0.96122 0.0
C297 C 0.45691 0.13261 0.9241 0.0
H298 H 0.51001 0.21195 0.97466 0.0
H299 H 0.43523 0.12676 0.9073 0.0
H300 H 0.3212 0.18014 0.92634 0.0
H301 H 0.46059 0.32961 0.92627 0.0
C302 C 0.47543 0.29111 0.98426 0.0
C303 C 0.34894 0.1042 0.97547 0.0
C304 C 0.54498 0.29973 0.9003 0.0
C305 C 0.37378 0.14703 0.88431 0.0
H306 H 0.35926 0.14443 0.02705 0.0
H307 H 0.42402 0.24791 0.03116 0.0
H308 H 0.57364 0.38517 0.97827 0.0
H309 H 0.61312 0.38696 0.93306 0.0
H310 H 0.52382 0.2734 0.84675 0.0
H311 H 0.42938 0.19284 0.83737 0.0
H312 H 0.2851 0.04189 0.89359 0.0
H313 H 0.27479 0.01831 0.94334 0.0
H314 H 0.28976 0.20906 0.89256 0.0
H315 H 0.4206 0.36764 0.90251 0.0
H316 H 0.45494 0.06183 0.91526 0.0
H317 H 0.54486 0.15363 0.98009 0.0
C318 C 0.61063 0.65746 0.46275 0.0
C319 C 0.63552 0.63261 0.47127 0.0
C320 C 0.6691 0.6647 0.48944 0.0
C321 C 0.66402 0.70794 0.49058 0.0
N322 N 0.6293 0.70581 0.47423 0.0
Co323 Co 0.62032 0.76686 0.46585 0.0
N324 N 0.67808 0.81808 0.48914 0.0
C325 C 0.70725 0.80587 0.50299 0.0
C326 C 0.74784 0.84853 0.51471 0.0
C327 C 0.74401 0.89097 0.50862 0.0
C328 C 0.70021 0.87149 0.49406 0.0
N329 N 0.61251 0.8294 0.45855 0.0
C330 C 0.63475 0.87953 0.46968 0.0
C331 C 0.60845 0.9038 0.46287 0.0
C332 C 0.56913 0.86886 0.44737 0.0
C333 C 0.57262 0.82453 0.44562 0.0
N334 N 0.56366 0.71534 0.44247 0.0
C335 C 0.53023 0.72535 0.43158 0.0
C336 C 0.49233 0.68239 0.41846 0.0
C337 C 0.50204 0.64237 0.42148 0.0
C338 C 0.54577 0.66307 0.43613 0.0
N339 N 0.56772 0.74627 0.49351 0.0
C340 C 0.475 0.73767 0.50904 0.0
C341 C 0.47561 0.69599 0.49633 0.0
C342 C 0.52183 0.69933 0.49099 0.0
C343 C 0.52281 0.77977 0.51754 0.0
C344 C 0.56823 0.78398 0.50895 0.0
N345 N 0.66797 0.78494 0.43597 0.0
C346 C 0.66938 0.77741 0.38966 0.0
C347 C 0.71245 0.77304 0.39006 0.0
C348 C 0.73552 0.78026 0.41431 0.0
C349 C 0.71201 0.78429 0.4369 0.0
C350 C 0.65019 0.78653 0.4122 0.0
H351 H 0.7288 0.78499 0.45497 0.0
H352 H 0.61814 0.79093 0.4102 0.0
H353 H 0.51951 0.66586 0.48173 0.0
H354 H 0.60318 0.81984 0.51286 0.0
C355 C 0.69779 0.75463 0.50323 0.0
C356 C 0.56577 0.63023 0.44599 0.0
C357 C 0.67791 0.904 0.48862 0.0
C358 C 0.53639 0.77577 0.43426 0.0
H359 H 0.62976 0.59482 0.46511 0.0
H360 H 0.69601 0.65858 0.49964 0.0
H361 H 0.77702 0.84877 0.5262 0.0
H362 H 0.76969 0.93145 0.515 0.0
H363 H 0.61545 0.94185 0.46939 0.0
H364 H 0.53969 0.87403 0.43951 0.0
H365 H 0.46079 0.68005 0.40829 0.0
H366 H 0.4787 0.60206 0.41437 0.0
H367 H 0.44074 0.66135 0.4896 0.0
H368 H 0.5255 0.81177 0.52894 0.0
H369 H 0.64958 0.77298 0.37192 0.0
H370 H 0.77022 0.77995 0.41607 0.0
C371 C 0.96084 0.58801 0.81772 0.0
C372 C 1.00836 0.61276 0.82965 0.0
C373 C 1.0124 0.65237 0.84448 0.0
C374 C 0.96861 0.65156 0.84015 0.0
N375 N 0.93596 0.6133 0.82382 0.0
Co376 Co 0.87713 0.61246 0.80716 0.0
N377 N 0.87823 0.6629 0.83312 0.0
C378 C 0.91517 0.69075 0.85047 0.0
C379 C 0.89982 0.70783 0.8709 0.0
C380 C 0.85015 0.68993 0.8663 0.0
C381 C 0.83861 0.6657 0.8424 0.0
N382 N 0.81814 0.61272 0.79186 0.0
C383 C 0.78847 0.63068 0.80154 0.0
C384 C 0.75332 0.62501 0.78341 0.0
C385 C 0.76035 0.60174 0.76223 0.0
C386 C 0.79982 0.59495 0.76829 0.0
N387 N 0.87675 0.5623 0.78143 0.0
C388 C 0.85014 0.54866 0.75945 0.0
C389 C 0.85472 0.51179 0.74566 0.0
C390 C 0.88742 0.50299 0.75942 0.0
C391 C 0.9025 0.5362 0.78063 0.0
N392 N 0.82609 0.55041 0.82846 0.0
C393 C 0.74016 0.46741 0.85521 0.0
C394 C 0.74339 0.46747 0.82867 0.0
C395 C 0.7859 0.50843 0.81591 0.0
C396 C 0.78234 0.50893 0.86842 0.0
C397 C 0.82502 0.54983 0.85471 0.0
N398 N 0.9258 0.67172 0.78304 0.0
C399 C 0.99305 0.69618 0.75146 0.0
C400 C 0.97364 0.7182 0.735 0.0
C401 C 0.93292 0.72199 0.74441 0.0
C402 C 0.91048 0.69975 0.7686 0.0
C403 C 0.96943 0.67412 0.77501 0.0
H404 H 0.87868 0.70264 0.77465 0.0
H405 H 0.98582 0.656 0.78532 0.0
H406 H 0.78428 0.5066 0.79552 0.0
H407 H 0.85616 0.5817 0.86532 0.0
C408 C 0.95719 0.68619 0.85145 0.0
C409 C 0.94547 0.54678 0.79777 0.0
C410 C 0.79311 0.65373 0.82764 0.0
C411 C 0.81672 0.56644 0.75416 0.0
H412 H 0.03917 0.60617 0.82676 0.0
H413 H 0.04451 0.68014 0.85612 0.0
H414 H 0.9207 0.72636 0.88829 0.0
H415 H 0.82536 0.69426 0.87929 0.0
H416 H 0.725 0.6357 0.78547 0.0
H417 H 0.73812 0.58963 0.74484 0.0
H418 H 0.83589 0.49282 0.72792 0.0
H419 H 0.90012 0.47657 0.7539 0.0
H420 H 0.71217 0.43648 0.81759 0.0
H421 H 0.7818 0.51053 0.88908 0.0
H422 H 0.02522 0.69347 0.74558 0.0
H423 H 0.91719 0.74013 0.73279 0.0
C424 C 0.23196 0.873 0.0468 0.0
C425 C 0.20601 0.85882 0.02375 0.0
C426 C 0.18277 0.80484 0.02169 0.0
C427 C 0.19522 0.78906 0.04366 0.0
N428 N 0.22389 0.82929 0.05999 0.0
Co429 Co 0.24769 0.82169 0.09473 0.0
N430 N 0.22535 0.74542 0.08841 0.0
C431 C 0.20182 0.71717 0.06715 0.0
C432 C 0.19441 0.66721 0.06681 0.0
C433 C 0.21485 0.66331 0.08914 0.0
C434 C 0.23316 0.71117 0.10206 0.0
N435 N 0.26835 0.81291 0.12983 0.0
C436 C 0.26916 0.77124 0.14063 0.0
C437 C 0.28808 0.78353 0.16532 0.0
C438 C 0.3008 0.83488 0.16996 0.0
C439 C 0.28866 0.85113 0.14798 0.0
N440 N 0.27366 0.8997 0.09918 0.0
C441 C 0.29783 0.92841 0.12022 0.0
C442 C 0.32115 0.9824 0.11657 0.0
C443 C 0.31267 0.98871 0.09148 0.0
C444 C 0.28437 0.93814 0.08102 0.0
N445 N 0.17861 0.79882 0.1103 0.0
C446 C 0.08698 0.7547 0.14088 0.0
C447 C 0.13332 0.79954 0.14855 0.0
C448 C 0.17667 0.82213 0.13268 0.0
C449 C 0.0875 0.7341 0.11654 0.0
C450 C 0.13331 0.75548 0.10209 0.0
N451 N 0.31758 0.84562 0.08152 0.0
C452 C 0.37997 0.89234 0.04804 0.0
C453 C 0.41849 0.91906 0.06634 0.0
C454 C 0.40738 0.90138 0.0914 0.0
C455 C 0.35754 0.86389 0.09839 0.0
C456 C 0.32969 0.85465 0.05609 0.0
H457 H 0.35301 0.85273 0.11799 0.0
H458 H 0.30052 0.83465 0.04186 0.0
H459 H 0.20889 0.85806 0.13945 0.0
H460 H 0.1313 0.7358 0.08454 0.0
C461 C 0.18801 0.73899 0.04761 0.0
C462 C 0.26955 0.92861 0.05347 0.0
C463 C 0.25672 0.72155 0.12742 0.0
C464 C 0.30315 0.90371 0.14195 0.0
H465 H 0.2068 0.88519 1.00916 0.0
H466 H 0.16217 0.78049 1.00534 0.0
H467 H 0.17687 0.63741 0.05192 0.0
H468 H 0.21612 0.62902 0.09512 0.0
H469 H 0.29433 0.75883 0.17814 0.0
H470 H 0.31944 0.85852 0.1868 0.0
H471 H 0.34413 0.01371 0.13013 0.0
H472 H 0.32727 0.0263 0.08171 0.0
H473 H 0.13628 0.81802 0.16689 0.0
H474 H 0.05291 0.70032 0.10896 0.0
H475 H 0.38832 0.90207 0.028 0.0
H476 H 0.43678 0.91837 0.1059 0.0
C477 C 0.4298 0.36858 0.4651 0.0
C478 C 0.40935 0.39578 0.47647 0.0
C479 C 0.37881 0.36463 0.4958 0.0
C480 C 0.38082 0.31952 0.49475 0.0
N481 N 0.41068 0.31955 0.47586 0.0
Co482 Co 0.41345 0.25591 0.46443 0.0
N483 N 0.35785 0.20616 0.48908 0.0
C484 C 0.33324 0.22048 0.50533 0.0
C485 C 0.29394 0.17905 0.51839 0.0
C486 C 0.2937 0.13507 0.51053 0.0
C487 C 0.33383 0.1524 0.49344 0.0
N488 N 0.41571 0.19105 0.45432 0.0
C489 C 0.39098 0.13968 0.46399 0.0
C490 C 0.41255 0.11231 0.45433 0.0
C491 C 0.45182 0.14685 0.43862 0.0
C492 C 0.45275 0.1938 0.43953 0.0
N493 N 0.46758 0.3059 0.43969 0.0
C494 C 0.49706 0.29353 0.42627 0.0
C495 C 0.53418 0.33576 0.41241 0.0
C496 C 0.52803 0.37769 0.41753 0.0
C497 C 0.4871 0.35888 0.43415 0.0
N498 N 0.46877 0.27226 0.48965 0.0
C499 C 0.56198 0.28075 0.50288 0.0
C500 C 0.56097 0.32466 0.49354 0.0
C501 C 0.5142 0.32004 0.48799 0.0
C502 C 0.51483 0.2349 0.50871 0.0
C503 C 0.46914 0.23189 0.50224 0.0
N504 N 0.36262 0.24148 0.43671 0.0
C505 C 0.34862 0.23229 0.39063 0.0
C506 C 0.31758 0.25357 0.39157 0.0
C507 C 0.30592 0.26427 0.41604 0.0
C508 C 0.32828 0.25752 0.43824 0.0
C509 C 0.37013 0.2263 0.41307 0.0
H510 H 0.31934 0.26785 0.45636 0.0
H511 H 0.39576 0.21263 0.41064 0.0
H512 H 0.51566 0.35389 0.4798 0.0
H513 H 0.43461 0.19498 0.50519 0.0
C514 C 0.3467 0.27295 0.50734 0.0
C515 C 0.47111 0.39382 0.44609 0.0
C516 C 0.35085 0.11696 0.48451 0.0
C517 C 0.48872 0.24198 0.42761 0.0
H518 H 0.41581 0.43434 0.47136 0.0
H519 H 0.35527 0.37247 0.50808 0.0
H520 H 0.2685 0.18069 0.53208 0.0
H521 H 0.26783 0.09495 0.5173 0.0
H522 H 0.40243 0.07224 0.45906 0.0
H523 H 0.47792 0.13922 0.42853 0.0
H524 H 0.56295 0.33635 0.40036 0.0
H525 H 0.5518 0.41791 0.41039 0.0
H526 H 0.59617 0.36176 0.48947 0.0
H527 H 0.51322 0.20034 0.51681 0.0
H528 H 0.35825 0.22251 0.37236 0.0
H529 H 0.2812 0.27974 0.41795 0.0
C530 C 0.07576 0.43149 0.81778 0.0
C531 C 0.02869 0.40588 0.83019 0.0
C532 C 0.02908 0.37203 0.84744 0.0
C533 C 0.07494 0.37668 0.84394 0.0
N534 N 0.1047 0.41194 0.82573 0.0
Co535 Co 0.16521 0.41496 0.80949 0.0
N536 N 0.1669 0.36771 0.83647 0.0
C537 C 0.13174 0.34191 0.85495 0.0
C538 C 0.14892 0.32712 0.87541 0.0
C539 C 0.19808 0.34449 0.86975 0.0
C540 C 0.20737 0.36611 0.8453 0.0
N541 N 0.22651 0.41804 0.79462 0.0
C542 C 0.25664 0.40061 0.80412 0.0
C543 C 0.29298 0.40814 0.78621 0.0
C544 C 0.28652 0.43232 0.76537 0.0
C545 C 0.2462 0.43773 0.77139 0.0
N546 N 0.16239 0.46161 0.78268 0.0
C547 C 0.19023 0.47668 0.761 0.0
C548 C 0.18329 0.51111 0.74657 0.0
C549 C 0.14778 0.51682 0.75951 0.0
C550 C 0.13356 0.48425 0.7809 0.0
N551 N 0.21447 0.47955 0.83015 0.0
C552 C 0.30116 0.56393 0.85592 0.0
C553 C 0.29566 0.56438 0.82952 0.0
C554 C 0.25274 0.5228 0.81726 0.0
C555 C 0.26044 0.52168 0.86956 0.0
C556 C 0.21736 0.48027 0.85638 0.0
N557 N 0.11823 0.35257 0.78614 0.0
C558 C 0.04317 0.31672 0.75872 0.0
C559 C 0.06716 0.30698 0.73862 0.0
C560 C 0.11441 0.31323 0.74432 0.0
C561 C 0.13801 0.33382 0.76834 0.0
C562 C 0.06861 0.33844 0.78203 0.0
H563 H 0.17352 0.3364 0.77161 0.0
H564 H 0.04721 0.34464 0.79601 0.0
H565 H 0.25285 0.52523 0.79693 0.0
H566 H 0.18758 0.44801 0.86741 0.0
C567 C 0.08935 0.34569 0.85636 0.0
C568 C 0.08918 0.47133 0.79749 0.0
C569 C 0.25189 0.37702 0.82997 0.0
C570 C 0.22714 0.46328 0.75671 0.0
H571 H 0.99599 0.40892 0.82645 0.0
H572 H 0.99838 0.34493 0.86002 0.0
H573 H 0.12958 0.31034 0.89337 0.0
H574 H 0.22409 0.34153 0.88236 0.0
H575 H 0.32163 0.39792 0.78818 0.0
H576 H 0.30913 0.44518 0.74806 0.0
H577 H 0.20259 0.53074 0.729 0.0
H578 H 0.1331 0.54113 0.75344 0.0
H579 H 0.32555 0.59612 0.81813 0.0
H580 H 0.26255 0.51978 0.89015 0.0
H581 H 1.00543 0.30979 0.75605 0.0
H582 H 0.13381 0.30368 0.73006 0.0
C583 C 0.80588 0.15398 0.04822 0.0
C584 C 0.83123 0.16907 0.02496 0.0
C585 C 0.85479 0.2232 0.02357 0.0
C586 C 0.84302 0.2382 0.04608 0.0
N587 N 0.81432 0.19722 0.06204 0.0
Co588 Co 0.79116 0.20349 0.09719 0.0
N589 N 0.81125 0.27922 0.09139 0.0
C590 C 0.8349 0.30858 0.07042 0.0
C591 C 0.84221 0.35853 0.07091 0.0
C592 C 0.82124 0.36103 0.09345 0.0
C593 C 0.80235 0.31227 0.10549 0.0
N594 N 0.77129 0.21119 0.13268 0.0
C595 C 0.76752 0.25107 0.1436 0.0
C596 C 0.7502 0.23838 0.16857 0.0
C597 C 0.74213 0.18877 0.17334 0.0
C598 C 0.7551 0.17377 0.15113 0.0
N599 N 0.76689 0.12585 0.10107 0.0
C600 C 0.74476 0.0969 0.12234 0.0
C601 C 0.72195 0.04301 0.11845 0.0
C602 C 0.72867 0.03711 0.09298 0.0
C603 C 0.75564 0.0878 0.08257 0.0
N604 N 0.86124 0.22792 0.11201 0.0
C605 C 0.95243 0.27134 0.14276 0.0
C606 C 0.90848 0.22173 0.14796 0.0
C607 C 0.86529 0.20024 0.13203 0.0
C608 C 0.95012 0.2975 0.12073 0.0
C609 C 0.90464 0.27593 0.10611 0.0
N610 N 0.72065 0.17797 0.0848 0.0
C611 C 0.63096 0.11877 0.09418 0.0
C612 C 0.61981 0.10774 0.06847 0.0
C613 C 0.65842 0.13867 0.05071 0.0
C614 C 0.70872 0.17448 0.05936 0.0
C615 C 0.68073 0.15422 0.10185 0.0
H616 H 0.73809 0.19668 0.04538 0.0
H617 H 0.68535 0.1586 0.12199 0.0
H618 H 0.835 0.16127 0.13689 0.0
H619 H 0.90543 0.29935 0.09035 0.0
C620 C 0.84983 0.28801 0.05066 0.0
C621 C 0.76938 0.09797 0.05486 0.0
C622 C 0.77705 0.29982 0.13046 0.0
C623 C 0.74164 0.12152 0.14481 0.0
H624 H 0.83018 0.14329 1.00993 0.0
H625 H 0.87506 0.24817 1.00732 0.0
H626 H 0.86034 0.38935 0.05652 0.0
H627 H 0.82009 0.39498 0.10027 0.0
H628 H 0.74223 0.26162 0.18157 0.0
H629 H 0.72537 0.16499 0.19036 0.0
H630 H 0.70065 1.01149 0.13219 0.0
H631 H 0.71417 0.99969 0.08301 0.0
H632 H 0.90738 0.19883 0.16436 0.0
H633 H 0.98301 0.33541 0.11514 0.0
H634 H 0.6017 0.09754 0.10854 0.0
H635 H 0.65037 0.13322 0.03043 0.0
C636 C 0.22157 0.63048 0.148 0.0
C637 C 0.2645 0.67957 0.13975 0.0
C638 C 0.31949 0.64469 0.15087 0.0
C639 C 0.27589 0.59397 0.15681 0.0
N640 N 0.18488 0.53615 0.15577 0.0
N641 N 0.35409 0.7309 0.13013 0.0
C642 C 0.22681 0.5863 0.15384 0.0
C643 C 0.31347 0.68598 0.14036 0.0
N644 N 0.17565 0.6263 0.15067 0.0
N645 N 0.36679 0.65373 0.15568 0.0
H646 H 0.35133 0.76208 0.1228 0.0
H647 H 0.38962 0.73575 0.1273 0.0
H648 H 0.37256 0.62397 0.1622 0.0
H649 H 0.39994 0.69125 0.15467 0.0
H650 H 0.14403 0.59357 0.15903 0.0
H651 H 0.17051 0.65776 0.1467 0.0
H652 H 0.14847 0.52683 0.15088 0.0
H653 H 0.18739 0.50298 0.15956 0.0
C654 C 0.69857 0.3221 0.52292 0.0
C655 C 0.70289 0.2801 0.51252 0.0
C656 C 0.61951 0.24536 0.49159 0.0
C657 C 0.61154 0.28189 0.5056 0.0
N658 N 0.64234 0.35071 0.53774 0.0
N659 N 0.66388 0.19783 0.48881 0.0
C660 C 0.65104 0.31947 0.52193 0.0
C661 C 0.6625 0.24086 0.49717 0.0
N662 N 0.74031 0.36487 0.53377 0.0
N663 N 0.58688 0.21604 0.47231 0.0
H664 H 0.69474 0.1935 0.49206 0.0
H665 H 0.63295 0.16476 0.48024 0.0
H666 H 0.55619 0.21937 0.46706 0.0
H667 H 0.59328 0.19263 0.45984 0.0
H668 H 0.74125 0.39911 0.53958 0.0
H669 H 0.77562 0.36825 0.53445 0.0
H670 H 0.66765 0.37476 0.55195 0.0
H671 H 0.6077 0.34871 0.53844 0.0
C672 C 0.44177 0.64103 0.87748 0.0
C673 C 0.44922 0.69057 0.88578 0.0
C674 C 0.3595 0.65764 0.87435 0.0
C675 C 0.3509 0.60651 0.86817 0.0
N676 N 0.3826 0.54766 0.86711 0.0
N677 N 0.41371 0.74435 0.89449 0.0
C678 C 0.39184 0.59785 0.87064 0.0
C679 C 0.40762 0.69838 0.88475 0.0
N680 N 0.48285 0.63547 0.87591 0.0
N681 N 0.32177 0.66756 0.86987 0.0
H682 H 0.44864 0.77562 0.90114 0.0
H683 H 0.38386 0.75048 0.89729 0.0
H684 H 0.28566 0.63828 0.8635 0.0
H685 H 0.32696 0.70529 0.87102 0.0
H686 H 0.48164 0.6028 0.8676 0.0
H687 H 0.51951 0.6658 0.88101 0.0
H688 H 0.4088 0.53686 0.87135 0.0
H689 H 0.34694 0.51543 0.86201 0.0
C690 C 0.78623 0.41607 0.16978 0.0
C691 C 0.75018 0.42414 0.15693 0.0
C692 C 0.72355 0.34234 0.13175 0.0
C693 C 0.76417 0.33876 0.14211 0.0
N694 N 0.83855 0.37713 0.16884 0.0
N695 N 0.68847 0.3976 0.1232 0.0
C696 C 0.79652 0.37686 0.16065 0.0
C697 C 0.71954 0.38761 0.13739 0.0
N698 N 0.80967 0.44485 0.19131 0.0
N699 N 0.68849 0.30203 0.11653 0.0
H700 H 0.68509 0.43044 0.12639 0.0
H701 H 0.66938 0.37604 0.10692 0.0
H702 H 0.69045 0.26873 0.11204 0.0
H703 H 0.65517 0.29916 0.11034 0.0
H704 H 0.83238 0.43733 0.203 0.0
H705 H 0.80238 0.47278 0.19898 0.0
H706 H 0.86702 0.40764 0.17988 0.0
H707 H 0.84695 0.34883 0.16301 0.0
C708 C 0.3778 0.68954 0.5167 0.0
C709 C 0.42558 0.73768 0.51247 0.0
C710 C 0.37972 0.78485 0.51775 0.0
C711 C 0.33116 0.73639 0.5163 0.0
N712 N 0.2892 0.64289 0.5049 0.0
N713 N 0.46431 0.83042 0.49991 0.0
C714 C 0.33161 0.68868 0.51296 0.0
C715 C 0.42447 0.78529 0.51033 0.0
N716 N 0.37566 0.64505 0.52556 0.0
N717 N 0.38444 0.83012 0.52746 0.0
H718 H 0.49489 0.83124 0.49104 0.0
H719 H 0.46303 0.8646 0.49693 0.0
H720 H 0.35443 0.83059 0.53624 0.0
H721 H 0.41984 0.86505 0.52995 0.0
H722 H 0.34125 0.61032 0.53009 0.0
H723 H 0.40797 0.64543 0.53157 0.0
H724 H 0.28942 0.60836 0.50102 0.0
H725 H 0.25656 0.64177 0.49883 0.0
C726 C 0.60039 0.38953 0.87815 0.0
C727 C 0.59355 0.34011 0.88612 0.0
C728 C 0.6832 0.37391 0.87402 0.0
C729 C 0.69118 0.42485 0.86809 0.0
N730 N 0.65883 0.4831 0.86783 0.0
N731 N 0.62998 0.28701 0.89412 0.0
C732 C 0.65003 0.43304 0.87108 0.0
C733 C 0.63545 0.33283 0.88464 0.0
N734 N 0.55903 0.39466 0.87711 0.0
N735 N 0.72109 0.36443 0.869 0.0
H736 H 0.59531 0.25548 0.90091 0.0
H737 H 0.66014 0.28128 0.89658 0.0
H738 H 0.75695 0.39395 0.8624 0.0
H739 H 0.71624 0.32684 0.86994 0.0
H740 H 0.55977 0.42724 0.86906 0.0
H741 H 0.52258 0.36409 0.88239 0.0
H742 H 0.63246 0.49358 0.87233 0.0
H743 H 0.69436 0.51558 0.8627 0.0
C744 C 0.54776 0.53239 0.20783 0.0
C745 C 0.57285 0.53366 0.23084 0.0
C746 C 0.48923 0.49495 0.25236 0.0
C747 C 0.46756 0.50392 0.23029 0.0
N748 N 0.48508 0.54778 0.18936 0.0
N749 N 0.56668 0.52674 0.27688 0.0
C750 C 0.50018 0.529 0.209 0.0
C751 C 0.5434 0.51815 0.25375 0.0
N752 N 0.56871 0.53336 0.1847 0.0
N753 N 0.4586 0.46215 0.2714 0.0
H754 H 0.60603 0.54529 0.27869 0.0
H755 H 0.54713 0.51986 0.29411 0.0
H756 H 0.41904 0.44164 0.27043 0.0
H757 H 0.47265 0.4513 0.28676 0.0
H758 H 0.55 0.5291 0.16748 0.0
H759 H 0.60185 0.5324 0.18305 0.0
H760 H 0.50906 0.56899 0.1741 0.0
H761 H 0.45077 0.54662 0.18978 0.0
C762 C 0.02557 0.53784 0.55798 0.0
C763 C 0.04757 0.56674 0.58104 0.0
C764 C 1.00301 0.47878 0.60282 0.0
C765 C 0.97355 0.45259 0.58051 0.0
N766 N 0.94819 0.46635 0.53908 0.0
N767 N 0.04317 0.56122 0.6272 0.0
C768 C 0.98155 0.48545 0.55902 0.0
C769 C 0.03217 0.53624 0.6041 0.0
N770 N 0.04697 0.55963 0.5349 0.0
N771 N 1.00597 0.4498 0.6222 0.0
H772 H 0.06154 0.60252 0.62886 0.0
H773 H 0.02947 0.54028 0.64432 0.0
H774 H 0.98912 0.40861 0.6211 0.0
H775 H 0.02975 0.46767 0.63793 0.0
H776 H 0.03362 0.53839 0.51782 0.0
H777 H 0.08105 0.59628 0.53329 0.0
H778 H 0.95151 0.49023 0.52361 0.0
H779 H 0.91484 0.42873 0.53947 0.0
C780 C 0.52381 0.03844 0.92798 0.0
C781 C 0.51657 0.05988 0.95076 0.0
C782 C 0.52673 0.9938 0.9742 0.0
C783 C 0.52316 0.96652 0.95112 0.0
N784 N 0.49675 0.9554 0.90684 0.0
N785 N 0.49742 0.04456 0.99601 0.0
C786 C 0.51427 0.98622 0.92829 0.0
C787 C 0.51424 0.03403 0.9741 0.0
N788 N 0.54058 0.06791 0.90611 0.0
N789 N 0.5447 0.98459 0.996 0.0
H790 H 0.48543 0.0714 0.99726 0.0
H791 H 0.48927 0.02058 0.01201 0.0
H792 H 0.55578 0.95704 0.99747 0.0
H793 H 0.55462 1.01019 0.01152 0.0
H794 H 0.54833 0.05373 0.88952 0.0
H795 H 0.55196 0.10805 0.90568 0.0
H796 H 0.48793 0.96833 0.89021 0.0
H797 H 0.486 0.91544 0.90687 0.0
C798 C 0.52589 0.53865 0.46726 0.0
C799 C 0.53738 0.56869 0.44428 0.0
C800 C 0.50467 0.48303 0.42082 0.0
C801 C 0.50076 0.45545 0.44398 0.0
N802 N 0.52582 0.46622 0.48835 0.0
N803 N 0.54645 0.56833 0.39849 0.0
C804 C 0.51763 0.48646 0.46678 0.0
C805 C 0.52923 0.5405 0.42079 0.0
N806 N 0.52246 0.55963 0.48987 0.0
N807 N 0.48363 0.45467 0.39897 0.0
H808 H 0.56515 0.60977 0.39782 0.0
H809 H 0.54591 0.55055 0.38118 0.0
H810 H 0.46541 0.41329 0.3983 0.0
H811 H 0.48092 0.47196 0.38219 0.0
H812 H 0.50988 0.53748 0.50672 0.0
H813 H 0.52693 0.59699 0.49117 0.0
H814 H 0.54215 0.48894 0.50479 0.0
H815 H 0.52138 0.42885 0.48882 0.0
C816 C 0.993 0.50713 0.81761 0.0
C817 C 0.97794 0.52169 0.79501 0.0
C818 C 0.03175 0.49634 0.77182 0.0
C819 C 0.05562 0.49523 0.79496 0.0
N820 N 0.06807 0.52214 0.8394 0.0
N821 N 1.00086 0.54641 0.75051 0.0
C822 C 0.03973 0.50892 0.81765 0.0
C823 C 1.00228 0.52099 0.77187 0.0
N824 N 0.96451 0.49434 0.83934 0.0
N825 N 0.03391 0.47158 0.75034 0.0
H826 H 0.98543 0.57038 0.75057 0.0
H827 H 0.02052 0.54836 0.73389 0.0
H828 H 0.04978 0.44802 0.75034 0.0
H829 H 1.01462 0.46985 0.73367 0.0
H830 H 0.97408 0.48201 0.85593 0.0
H831 H 0.92928 0.49121 0.83971 0.0
H832 H 0.05802 0.53411 0.856 0.0
H833 H 0.10367 0.52614 0.83976 0.0
C834 C 0.51274 0.96255 0.0588 0.0
C835 C 0.46961 0.96739 0.06062 0.0
C836 C 0.52599 0.06533 0.06009 0.0
C837 C 0.56903 0.06031 0.06148 0.0
N838 N 0.60425 1.00448 0.06339 0.0
N839 N 0.43431 0.02296 0.06425 0.0
C840 C 0.56261 1.00892 0.06109 0.0
C841 C 0.47601 0.01876 0.06149 0.0
N842 N 0.50581 0.91354 0.05441 0.0
N843 N 0.53311 0.11475 0.05709 0.0
H844 H 0.39718 0.99004 0.06397 0.0
H845 H 0.43633 0.05862 0.068 0.0
H846 H 0.56924 0.14925 0.05604 0.0
H847 H 0.50377 0.12128 0.05342 0.0
H848 H 0.53533 0.90748 0.05032 0.0
H849 H 0.46976 0.87918 0.05257 0.0
H850 H 0.60209 0.96851 0.06628 0.0
H851 H 0.64142 0.03739 0.06359 0.0
C852 C 0.3068 0.33276 0.33532 0.0
C853 C 0.2767 0.2915 0.31742 0.0
C854 C 0.26512 0.22533 0.35024 0.0
C855 C 0.30028 0.26675 0.36687 0.0
N856 N 0.35967 0.36067 0.37339 0.0
N857 N 0.23107 0.19805 0.30719 0.0
C858 C 0.32216 0.3207 0.35894 0.0
C859 C 0.25659 0.2376 0.32482 0.0
N860 N 0.31992 0.38376 0.32995 0.0
N861 N 0.23887 0.17408 0.35901 0.0
H862 H 0.22359 0.20533 0.28872 0.0
H863 H 0.22052 0.15869 0.31019 0.0
H864 H 0.24393 0.16387 0.37736 0.0
H865 H 0.20901 0.14253 0.34909 0.0
H866 H 0.33714 0.41482 0.34311 0.0
H867 H 0.30921 0.3941 0.3131 0.0
H868 H 0.38158 0.40005 0.36727 0.0
H869 H 0.37186 0.35395 0.39073 0.0
C870 C 1.00227 0.31081 0.67614 0.0
C871 C 0.99494 0.26567 0.66228 0.0
C872 C 0.03046 0.24399 0.69957 0.0
C873 C 0.04342 0.29265 0.71192 0.0
N874 N 0.05206 0.37845 0.70789 0.0
N875 N 1.01169 0.19483 0.65961 0.0
C876 C 0.03224 0.32773 0.699 0.0
C877 C 1.01168 0.23374 0.67371 0.0
N878 N 0.97888 0.33663 0.66812 0.0
N879 N 0.03413 0.20636 0.71278 0.0
H880 H 0.99957 0.18694 0.64066 0.0
H881 H 0.02826 0.17397 0.6659 0.0
H882 H 0.04637 0.21164 0.73171 0.0
H883 H 0.02039 0.16807 0.70582 0.0
H884 H 0.9789 0.3665 0.67875 0.0
H885 H 0.95467 0.32426 0.65235 0.0
H886 H 0.07617 0.39348 0.72367 0.0
H887 H 0.04929 0.40733 0.69793 0.0
C888 C 0.69781 1.00778 0.99523 0.0
C889 C 0.71694 0.97346 0.99374 0.0
C890 C 0.76994 0.01944 0.03232 0.0
C891 C 0.75067 0.05396 0.03386 0.0
N892 N 0.70766 0.0898 0.01098 0.0
N893 N 0.78147 0.9568 1.00708 0.0
C894 C 0.71794 0.05056 0.01358 0.0
C895 C 0.75609 0.98245 0.01124 0.0
N896 N 0.65941 0.99909 0.97922 0.0
N897 N 0.80219 0.02231 0.05092 0.0
H898 H 0.7729 0.9307 0.99177 0.0
H899 H 0.8136 0.96466 0.01724 0.0
H900 H 0.81628 0.05114 0.06526 0.0
H901 H 0.81287 0.9945 0.05297 0.0
H902 H 0.64027 0.01922 0.98043 0.0
H903 H 0.64462 0.96932 0.9654 0.0
H904 H 0.68936 0.09377 0.99526 0.0
H905 H 0.72266 0.12217 0.02314 0.0
C906 C 0.74867 0.72372 0.36511 0.0
C907 C 0.73145 0.76006 0.36542 0.0
C908 C 0.73283 0.75759 0.31797 0.0
C909 C 0.75724 0.72788 0.31787 0.0
N910 N 0.80569 0.70278 0.34412 0.0
N911 N 0.72739 0.82634 0.34015 0.0
C912 C 0.77065 0.71728 0.3423 0.0
C913 C 0.72985 0.78165 0.34124 0.0
N914 N 0.74134 0.69224 0.38573 0.0
N915 N 0.7093 0.76051 0.29659 0.0
H916 H 0.73014 0.84815 0.35642 0.0
H917 H 0.72936 0.84506 0.32291 0.0
H918 H 0.70479 0.73872 0.28008 0.0
H919 H 0.68836 0.77894 0.29664 0.0
H920 H 0.75064 0.66305 0.38536 0.0
H921 H 0.71989 0.69001 0.40159 0.0
H922 H 0.81859 0.6979 0.3617 0.0
H923 H 0.82629 0.70255 0.32835 0.0
C924 C 1.01411 0.70542 0.66668 0.0
C925 C 0.04529 0.75953 0.65874 0.0
C926 C 0.02769 0.78747 0.70041 0.0
C927 C 0.9947 0.73328 0.70782 0.0
N928 N 0.94877 0.64083 0.69552 0.0
N929 N 0.07462 0.85162 0.66644 0.0
C930 C 0.98565 0.69241 0.69012 0.0
C931 C 0.04984 0.80036 0.67518 0.0
N932 N 1.01333 0.66627 0.65233 0.0
N933 N 0.03968 0.82677 0.71789 0.0
H934 H 0.09133 0.86231 0.64836 0.0
H935 H 0.07505 0.88266 0.67612 0.0
H936 H 0.02374 0.819 0.73616 0.0
H937 H 0.06784 0.86656 0.71501 0.0
H938 H 0.99667 0.627 0.65844 0.0
H939 H 0.03289 0.67373 0.63507 0.0
H940 H 0.93635 0.60969 0.6825 0.0
H941 H 0.92703 0.62982 0.71222 0.0
C942 C 0.32058 0.97636 0.01204 0.0
C943 C 0.28857 0.97312 0.03275 0.0
C944 C 0.28534 0.0469 0.0114 0.0
C945 C 0.32434 0.05575 0.99374 0.0
N946 N 0.38172 0.02981 0.97903 0.0
N947 N 0.23915 1.00642 0.05103 0.0
C948 C 0.34251 0.02061 0.99464 0.0
C949 C 0.27076 1.00896 0.03207 0.0
N950 N 0.32804 0.93552 1.00782 0.0
N951 N 0.26088 0.07365 1.00784 0.0
H952 H 0.22456 0.97704 0.06511 0.0
H953 H 0.22956 0.03499 0.05363 0.0
H954 H 0.27005 0.10051 0.99285 0.0
H955 H 0.22892 0.06599 0.01818 0.0
H956 H 0.34583 0.93228 0.99161 0.0
H957 H 0.31063 0.90137 0.01876 0.0
H958 H 0.40025 1.00902 0.98027 0.0
H959 H 0.39808 0.06088 0.96591 0.0
C960 C 0.0253 0.34801 0.16947 0.0
C961 C 0.99987 0.29443 0.16005 0.0
C962 C 0.05809 0.28155 0.18727 0.0
C963 C 0.09084 0.33728 0.19122 0.0
N964 N 0.10375 0.4244 0.18594 0.0
N965 N 1.00252 0.21415 0.15692 0.0
C966 C 0.07368 0.37074 0.18239 0.0
C967 C 0.01875 0.26203 0.1684 0.0
N968 N 1.00232 0.37655 0.16723 0.0
N969 N 0.06591 0.24713 0.20084 0.0
H970 H 0.97825 0.20056 0.14119 0.0
H971 H 1.01836 0.19135 0.1609 0.0
H972 H 0.09422 0.26038 0.21476 0.0
H973 H 0.04111 0.20592 0.20004 0.0
H974 H 1.01644 0.4137 0.17568 0.0
H975 H 0.96609 0.36052 0.15948 0.0
H976 H 0.09547 0.45137 0.17819 0.0
H977 H 0.13843 0.44204 0.19554 0.0
C978 C 0.73717 1.01141 0.54351 0.0
C979 C 0.74949 0.05997 0.53151 0.0
C980 C 0.71611 1.00768 0.49088 0.0
C981 C 0.69792 0.95793 0.5036 0.0
N982 N 0.68066 0.9159 0.54533 0.0
N983 N 0.73866 0.10004 0.49399 0.0
C984 C 0.70471 0.96104 0.53092 0.0
C985 C 0.73448 0.05637 0.50535 0.0
N986 N 0.75947 0.01273 0.5662 0.0
N987 N 0.71987 1.00987 0.46487 0.0
H988 H 0.75155 0.13568 0.50385 0.0
H989 H 0.72458 0.09892 0.47577 0.0
H990 H 0.71051 0.97668 0.4537 0.0
H991 H 0.73737 0.04558 0.45472 0.0
H992 H 0.75599 0.97886 0.57446 0.0
H993 H 0.78594 0.04814 0.57526 0.0
H994 H 0.6804 0.91662 0.56526 0.0
H995 H 0.6574 0.8784 0.53753 0.0
C996 C 0.7884 0.73085 0.84641 0.0
C997 C 0.76197 0.67743 0.83751 0.0
C998 C 0.68515 0.67053 0.85649 0.0
C999 C 0.71537 0.7169 0.87216 0.0
N1000 N 0.80263 0.77687 0.88617 0.0
N1001 N 0.68119 0.59395 0.83656 0.0
C1002 C 0.76909 0.74401 0.86803 0.0
C1003 C 0.70897 0.64637 0.84321 0.0
N1004 N 0.83434 0.76751 0.83616 0.0
N1005 N 0.63485 0.65146 0.85257 0.0
H1006 H 0.69719 0.57501 0.82723 0.0
H1007 H 0.64332 0.56898 0.8421 0.0
H1008 H 0.6178 0.67217 0.85843 0.0
H1009 H 0.61258 0.61976 0.84023 0.0
H1010 H 0.85427 0.80724 0.84208 0.0
H1011 H 0.84942 0.7586 0.82042 0.0
H1012 H 0.8419 0.79493 0.88394 0.0
H1013 H 0.79124 0.77883 0.9047 0.0
C1014 C 0.98754 0.74145 0.19119 0.0
C1015 C 0.94854 0.68662 0.19008 0.0
C1016 C 1.00683 0.67446 0.162 0.0
C1017 C 0.03928 0.73066 0.15818 0.0
N1018 N 0.04859 0.81633 0.1657 0.0
N1019 N 0.92155 0.60077 0.17135 0.0
C1020 C 0.02671 0.76392 0.17209 0.0
C1021 C 0.95841 0.653 0.17467 0.0
N1022 N 0.98579 0.77297 0.20972 0.0
N1023 N 0.02297 0.64131 0.15486 0.0
H1024 H 0.88658 0.58295 0.18055 0.0
H1025 H 0.92472 0.5763 0.15808 0.0
H1026 H 0.05933 0.65531 0.14766 0.0
H1027 H 1.00273 0.60076 0.15915 0.0
H1028 H 1.01502 0.81252 0.21238 0.0
H1029 H 0.95758 0.75773 0.2238 0.0
H1030 H 0.03761 0.84085 0.174 0.0
H1031 H 0.07228 0.83321 0.14985 0.0
C1032 C 0.28226 0.96195 0.49564 0.0
C1033 C 0.27608 0.95649 0.52292 0.0
C1034 C 0.32991 0.05573 0.52486 0.0
C1035 C 0.32898 0.06119 0.49756 0.0
N1036 N 0.2922 0.01493 0.45805 0.0
N1037 N 0.28711 1.0027 0.56261 0.0
C1038 C 0.30205 0.01292 0.48331 0.0
C1039 C 0.29838 1.00474 0.53722 0.0
N1040 N 0.26956 0.91839 0.4811 0.0
N1041 N 0.36105 0.09933 0.5394 0.0
H1042 H 0.26332 0.96711 0.57227 0.0
H1043 H 0.29719 0.03651 0.57343 0.0
H1044 H 0.3834 0.1372 0.53178 0.0
H1045 H 0.36783 0.09693 0.5587 0.0
H1046 H 0.27813 0.92066 0.46169 0.0
H1047 H 0.25509 0.88092 0.48893 0.0
H1048 H 0.2679 0.98108 0.44734 0.0
H1049 H 0.30402 0.05052 0.44846 0.0
C1050 C 0.33574 0.38351 0.84492 0.0
C1051 C 0.28267 0.35288 0.83946 0.0
C1052 C 0.27499 0.2866 0.87016 0.0
C1053 C 0.32873 0.31314 0.87394 0.0
N1054 N 0.40919 0.37711 0.85369 0.0
N1055 N 0.2093 0.26334 0.83874 0.0
C1056 C 0.35916 0.35893 0.858 0.0
C1057 C 0.25572 0.29965 0.84859 0.0
N1058 N 0.36394 0.43595 0.83839 0.0
N1059 N 0.24156 0.25465 0.88859 0.0
H1060 H 0.1942 0.27226 0.82308 0.0
H1061 H 0.18894 0.22377 0.84488 0.0
H1062 H 0.25318 0.25308 0.90709 0.0
H1063 H 0.20231 0.23711 0.88663 0.0
H1064 H 0.40194 0.46046 0.84377 0.0
H1065 H 0.34821 0.45541 0.82941 0.0
H1066 H 0.43149 0.40845 0.84118 0.0
H1067 H 0.42585 0.356 0.85945 0.0
loop_
_geom_bond_atom_site_label_1
_geom_bond_atom_site_label_2
_geom_bond_distance
_geom_bond_site_symmetry_2
_ccdc_geom_bond_type
C0 C1 1.443 . S
C0 N4 1.376 . S
C0 C38 1.389 . S
C1 C0 1.443 . S
C1 C2 1.340 . S
C1 H41 0.951 . S
C2 C1 1.340 . S
C2 C3 1.439 . S
C2 H42 0.950 . S
C3 C2 1.439 . S
C3 N4 1.374 . S
C3 C37 1.395 . S
N4 C0 1.376 . S
N4 C3 1.374 . S
N4 Co5 2.008 . S
Co5 N4 2.008 . S
Co5 N6 1.995 . S
Co5 N11 2.008 . S
Co5 N16 1.995 . S
Co5 N21 2.282 . S
Co5 N27 2.282 . S
N6 Co5 1.995 . S
N6 C7 1.376 . S
N6 C10 1.383 . S
C7 N6 1.376 . S
C7 C8 1.446 . S
C7 C37 1.391 . S
C8 C7 1.446 . S
C8 C9 1.339 . S
C8 H43 0.949 . S
C9 C8 1.339 . S
C9 C10 1.439 . S
C9 H44 0.950 . S
C10 N6 1.383 . S
C10 C9 1.439 . S
C10 C39 1.392 . S
N11 Co5 2.008 . S
N11 C12 1.376 . S
N11 C15 1.374 . S
C12 N11 1.376 . S
C12 C13 1.443 . S
C12 C39 1.389 . S
C13 C12 1.443 . S
C13 C14 1.340 . S
C13 H45 0.951 . S
C14 C13 1.340 . S
C14 C15 1.439 . S
C14 H46 0.950 . S
C15 N11 1.374 . S
C15 C14 1.439 . S
C15 C40 1.395 . S
N16 Co5 1.995 . S
N16 C17 1.376 . S
N16 C20 1.383 . S
C17 N16 1.376 . S
C17 C18 1.446 . S
C17 C40 1.391 . S
C18 C17 1.446 . S
C18 C19 1.339 . S
C18 H47 0.949 . S
C19 C18 1.339 . S
C19 C20 1.439 . S
C19 H48 0.950 . S
C20 N16 1.383 . S
C20 C19 1.439 . S
C20 C38 1.392 . S
N21 Co5 2.282 . S
N21 C24 1.332 . S
N21 C26 1.332 . S
C22 C23 1.386 . S
C22 C25 1.388 . S
C23 C22 1.386 . S
C23 C24 1.382 . S
C23 H49 0.950 . S
C24 N21 1.332 . S
C24 C23 1.382 . S
C24 H35 0.952 . S
C25 C22 1.388 . S
C25 C26 1.382 . S
C25 H50 0.950 . S
C26 N21 1.332 . S
C26 C25 1.382 . S
C26 H36 0.948 . S
N27 Co5 2.282 . S
N27 C31 1.332 . S
N27 C32 1.332 . S
C28 C29 1.388 . S
C28 C32 1.382 . S
C28 H51 0.950 . S
C29 C28 1.388 . S
C29 C30 1.386 . S
C30 C29 1.386 . S
C30 C31 1.382 . S
C30 H52 0.950 . S
C31 N27 1.332 . S
C31 C30 1.382 . S
C31 H33 0.952 . S
C32 N27 1.332 . S
C32 C28 1.382 . S
C32 H34 0.948 . S
H33 C31 0.952 . S
H34 C32 0.948 . S
H35 C24 0.952 . S
H36 C26 0.948 . S
C37 C3 1.395 . S
C37 C7 1.391 . S
C38 C0 1.389 . S
C38 C20 1.392 . S
C39 C10 1.392 . S
C39 C12 1.389 . S
C40 C15 1.395 . S
C40 C17 1.391 . S
H41 C1 0.951 . S
H42 C2 0.950 . S
H43 C8 0.949 . S
H44 C9 0.950 . S
H45 C13 0.951 . S
H46 C14 0.950 . S
H47 C18 0.949 . S
H48 C19 0.950 . S
H49 C23 0.950 . S
H50 C25 0.950 . S
H51 C28 0.950 . S
H52 C30 0.950 . S
C53 C54 1.443 . S
C53 N57 1.376 . S
C53 C91 1.389 . S
C54 C53 1.443 . S
C54 C55 1.340 . S
C54 H94 0.951 1_655 S
C55 C54 1.340 . S
C55 C56 1.439 . S
C55 H95 0.950 1_655 S
C56 C55 1.439 . S
C56 N57 1.374 . S
C56 C90 1.395 . S
N57 C53 1.376 . S
N57 C56 1.374 . S
N57 Co58 2.008 . S
Co58 N57 2.008 . S
Co58 N59 1.995 . S
Co58 N64 2.008 . S
Co58 N69 1.995 . S
Co58 N74 2.282 . S
Co58 N80 2.282 . S
N59 Co58 1.995 . S
N59 C60 1.376 . S
N59 C63 1.383 . S
C60 N59 1.376 . S
C60 C61 1.446 . S
C60 C90 1.391 . S
C61 C60 1.446 . S
C61 C62 1.339 . S
C61 H96 0.949 . S
C62 C61 1.339 . S
C62 C63 1.439 . S
C62 H97 0.950 . S
C63 N59 1.383 . S
C63 C62 1.439 . S
C63 C92 1.392 . S
N64 Co58 2.008 . S
N64 C65 1.376 . S
N64 C68 1.374 . S
C65 N64 1.376 . S
C65 C66 1.443 . S
C65 C92 1.389 . S
C66 C65 1.443 . S
C66 C67 1.340 . S
C66 H98 0.951 . S
C67 C66 1.340 . S
C67 C68 1.439 . S
C67 H99 0.950 . S
C68 N64 1.374 . S
C68 C67 1.439 . S
C68 C93 1.395 . S
N69 Co58 1.995 . S
N69 C70 1.376 . S
N69 C73 1.383 . S
C70 N69 1.376 . S
C70 C71 1.446 . S
C70 C93 1.391 . S
C71 C70 1.446 . S
C71 C72 1.339 . S
C71 H100 0.949 . S
C72 C71 1.339 . S
C72 C73 1.439 . S
C72 H101 0.950 . S
C73 N69 1.383 . S
C73 C72 1.439 . S
C73 C91 1.392 . S
N74 Co58 2.282 . S
N74 C77 1.332 . S
N74 C79 1.332 . S
C75 C76 1.386 . S
C75 C78 1.388 . S
C76 C75 1.386 . S
C76 C77 1.382 . S
C76 H102 0.950 . S
C77 N74 1.332 . S
C77 C76 1.382 . S
C77 H88 0.952 . S
C78 C75 1.388 . S
C78 C79 1.382 . S
C78 H103 0.950 . S
C79 N74 1.332 . S
C79 C78 1.382 . S
C79 H89 0.948 . S
N80 Co58 2.282 . S
N80 C84 1.332 . S
N80 C85 1.332 . S
C81 C82 1.388 . S
C81 C85 1.382 . S
C81 H104 0.950 . S
C82 C81 1.388 . S
C82 C83 1.386 . S
C83 C82 1.386 . S
C83 C84 1.382 . S
C83 H105 0.950 1_655 S
C84 N80 1.332 . S
C84 C83 1.382 . S
C84 H86 0.952 . S
C85 N80 1.332 . S
C85 C81 1.382 . S
C85 H87 0.948 . S
H86 C84 0.952 . S
H87 C85 0.948 . S
H88 C77 0.952 . S
H89 C79 0.948 . S
C90 C56 1.395 . S
C90 C60 1.391 . S
C91 C53 1.389 . S
C91 C73 1.392 . S
C92 C63 1.392 . S
C92 C65 1.389 . S
C93 C68 1.395 . S
C93 C70 1.391 . S
H94 C54 0.951 1_455 S
H95 C55 0.950 1_455 S
H96 C61 0.949 . S
H97 C62 0.950 . S
H98 C66 0.951 . S
H99 C67 0.950 . S
H100 C71 0.949 . S
H101 C72 0.950 . S
H102 C76 0.950 . S
H103 C78 0.950 . S
H104 C81 0.950 . S
H105 C83 0.950 1_455 S
C106 C107 1.443 1_556 S
C106 N110 1.376 . S
C106 C144 1.389 . S
C107 C106 1.443 1_554 S
C107 C108 1.340 . S
C107 H147 0.951 . S
C108 C107 1.340 . S
C108 C109 1.439 1_554 S
C108 H148 0.950 . S
C109 C108 1.439 1_556 S
C109 N110 1.374 . S
C109 C143 1.395 . S
N110 C106 1.376 . S
N110 C109 1.374 . S
N110 Co111 2.008 . S
Co111 N110 2.008 . S
Co111 N112 1.995 . S
Co111 N117 2.008 . S
Co111 N122 1.995 . S
Co111 N127 2.282 . S
Co111 N133 2.282 . S
N112 Co111 1.995 . S
N112 C113 1.376 . S
N112 C116 1.383 . S
C113 N112 1.376 . S
C113 C114 1.446 . S
C113 C143 1.391 . S
C114 C113 1.446 . S
C114 C115 1.339 . S
C114 H149 0.949 . S
C115 C114 1.339 . S
C115 C116 1.439 . S
C115 H150 0.950 . S
C116 N112 1.383 . S
C116 C115 1.439 . S
C116 C145 1.392 . S
N117 Co111 2.008 . S
N117 C118 1.376 . S
N117 C121 1.374 . S
C118 N117 1.376 . S
C118 C119 1.443 . S
C118 C145 1.389 . S
C119 C118 1.443 . S
C119 C120 1.340 . S
C119 H151 0.951 . S
C120 C119 1.340 . S
C120 C121 1.439 . S
C120 H152 0.950 . S
C121 N117 1.374 . S
C121 C120 1.439 . S
C121 C146 1.395 . S
N122 Co111 1.995 . S
N122 C123 1.376 . S
N122 C126 1.383 . S
C123 N122 1.376 . S
C123 C124 1.446 . S
C123 C146 1.391 . S
C124 C123 1.446 . S
C124 C125 1.339 . S
C124 H153 0.949 . S
C125 C124 1.339 . S
C125 C126 1.439 . S
C125 H154 0.950 1_565 S
C126 N122 1.383 . S
C126 C125 1.439 . S
C126 C144 1.392 . S
N127 Co111 2.282 . S
N127 C130 1.332 . S
N127 C132 1.332 . S
C128 C129 1.386 . S
C128 C131 1.388 . S
C129 C128 1.386 . S
C129 C130 1.382 . S
C129 H155 0.950 . S
C130 N127 1.332 . S
C130 C129 1.382 . S
C130 H141 0.952 . S
C131 C128 1.388 . S
C131 C132 1.382 . S
C131 H156 0.950 . S
C132 N127 1.332 . S
C132 C131 1.382 . S
C132 H142 0.948 . S
N133 Co111 2.282 . S
N133 C137 1.332 . S
N133 C138 1.332 . S
C134 C135 1.388 . S
C134 C138 1.382 . S
C134 H157 0.950 . S
C135 C134 1.388 . S
C135 C136 1.386 . S
C136 C135 1.386 . S
C136 C137 1.382 . S
C136 H158 0.950 . S
C137 N133 1.332 . S
C137 C136 1.382 . S
C137 H139 0.952 . S
C138 N133 1.332 . S
C138 C134 1.382 . S
C138 H140 0.948 . S
H139 C137 0.952 . S
H140 C138 0.948 . S
H141 C130 0.952 . S
H142 C132 0.948 . S
C143 C109 1.395 . S
C143 C113 1.391 . S
C144 C106 1.389 . S
C144 C126 1.392 . S
C145 C116 1.392 . S
C145 C118 1.389 . S
C146 C121 1.395 . S
C146 C123 1.391 . S
H147 C107 0.951 . S
H148 C108 0.950 . S
H149 C114 0.949 . S
H150 C115 0.950 . S
H151 C119 0.951 . S
H152 C120 0.950 . S
H153 C124 0.949 . S
H154 C125 0.950 1_545 S
H155 C129 0.950 . S
H156 C131 0.950 . S
H157 C134 0.950 . S
H158 C136 0.950 . S
C159 C160 1.443 . S
C159 N163 1.376 . S
C159 C197 1.389 . S
C160 C159 1.443 . S
C160 C161 1.340 . S
C160 H200 0.951 . S
C161 C160 1.340 . S
C161 C162 1.439 . S
C161 H201 0.950 . S
C162 C161 1.439 . S
C162 N163 1.374 . S
C162 C196 1.395 . S
N163 C159 1.376 . S
N163 C162 1.374 . S
N163 Co164 2.008 . S
Co164 N163 2.008 . S
Co164 N165 1.995 . S
Co164 N170 2.008 . S
Co164 N175 1.995 . S
Co164 N180 2.282 . S
Co164 N186 2.282 . S
N165 Co164 1.995 . S
N165 C166 1.376 . S
N165 C169 1.383 . S
C166 N165 1.376 . S
C166 C167 1.446 . S
C166 C196 1.391 . S
C167 C166 1.446 . S
C167 C168 1.339 . S
C167 H202 0.949 . S
C168 C167 1.339 . S
C168 C169 1.439 . S
C168 H203 0.950 . S
C169 N165 1.383 . S
C169 C168 1.439 . S
C169 C198 1.392 . S
N170 Co164 2.008 . S
N170 C171 1.376 . S
N170 C174 1.374 . S
C171 N170 1.376 . S
C171 C172 1.443 . S
C171 C198 1.389 . S
C172 C171 1.443 . S
C172 C173 1.340 . S
C172 H204 0.951 . S
C173 C172 1.340 . S
C173 C174 1.439 . S
C173 H205 0.950 . S
C174 N170 1.374 . S
C174 C173 1.439 . S
C174 C199 1.395 . S
N175 Co164 1.995 . S
N175 C176 1.376 . S
N175 C179 1.383 . S
C176 N175 1.376 . S
C176 C177 1.446 . S
C176 C199 1.391 . S
C177 C176 1.446 . S
C177 C178 1.339 . S
C177 H206 0.949 . S
C178 C177 1.339 . S
C178 C179 1.439 . S
C178 H207 0.950 . S
C179 N175 1.383 . S
C179 C178 1.439 . S
C179 C197 1.392 . S
N180 Co164 2.282 . S
N180 C183 1.332 . S
N180 C185 1.332 . S
C181 C182 1.386 . S
C181 C184 1.388 . S
C182 C181 1.386 . S
C182 C183 1.382 . S
C182 H208 0.950 . S
C183 N180 1.332 . S
C183 C182 1.382 . S
C183 H194 0.952 . S
C184 C181 1.388 . S
C184 C185 1.382 . S
C184 H209 0.950 . S
C185 N180 1.332 . S
C185 C184 1.382 . S
C185 H195 0.948 . S
N186 Co164 2.282 . S
N186 C190 1.332 . S
N186 C191 1.332 . S
C187 C188 1.388 . S
C187 C191 1.382 . S
C187 H210 0.950 . S
C188 C187 1.388 . S
C188 C189 1.386 . S
C189 C188 1.386 . S
C189 C190 1.382 . S
C189 H211 0.950 . S
C190 N186 1.332 . S
C190 C189 1.382 . S
C190 H192 0.952 . S
C191 N186 1.332 . S
C191 C187 1.382 . S
C191 H193 0.948 . S
H192 C190 0.952 . S
H193 C191 0.948 . S
H194 C183 0.952 . S
H195 C185 0.948 . S
C196 C162 1.395 . S
C196 C166 1.391 . S
C197 C159 1.389 . S
C197 C179 1.392 . S
C198 C169 1.392 . S
C198 C171 1.389 . S
C199 C174 1.395 . S
C199 C176 1.391 . S
H200 C160 0.951 . S
H201 C161 0.950 . S
H202 C167 0.949 . S
H203 C168 0.950 . S
H204 C172 0.951 . S
H205 C173 0.950 . S
H206 C177 0.949 . S
H207 C178 0.950 . S
H208 C182 0.950 . S
H209 C184 0.950 . S
H210 C187 0.950 . S
H211 C189 0.950 . S
C212 C213 1.443 . S
C212 N216 1.376 . S
C212 C250 1.389 . S
C213 C212 1.443 . S
C213 C214 1.340 . S
C213 H253 0.951 1_455 S
C214 C213 1.340 . S
C214 C215 1.439 . S
C214 H254 0.950 1_455 S
C215 C214 1.439 . S
C215 N216 1.374 . S
C215 C249 1.395 . S
N216 C212 1.376 . S
N216 C215 1.374 . S
N216 Co217 2.008 . S
Co217 N216 2.008 . S
Co217 N218 1.995 . S
Co217 N223 2.008 . S
Co217 N228 1.995 . S
Co217 N233 2.282 . S
Co217 N239 2.282 . S
N218 Co217 1.995 . S
N218 C219 1.376 . S
N218 C222 1.383 . S
C219 N218 1.376 . S
C219 C220 1.446 . S
C219 C249 1.391 . S
C220 C219 1.446 . S
C220 C221 1.339 . S
C220 H255 0.949 . S
C221 C220 1.339 . S
C221 C222 1.439 . S
C221 H256 0.950 . S
C222 N218 1.383 . S
C222 C221 1.439 . S
C222 C251 1.392 . S
N223 Co217 2.008 . S
N223 C224 1.376 . S
N223 C227 1.374 . S
C224 N223 1.376 . S
C224 C225 1.443 . S
C224 C251 1.389 . S
C225 C224 1.443 . S
C225 C226 1.340 . S
C225 H257 0.951 . S
C226 C225 1.340 . S
C226 C227 1.439 . S
C226 H258 0.950 . S
C227 N223 1.374 . S
C227 C226 1.439 . S
C227 C252 1.395 . S
N228 Co217 1.995 . S
N228 C229 1.376 . S
N228 C232 1.383 . S
C229 N228 1.376 . S
C229 C230 1.446 . S
C229 C252 1.391 . S
C230 C229 1.446 . S
C230 C231 1.339 . S
C230 H259 0.949 . S
C231 C230 1.339 . S
C231 C232 1.439 . S
C231 H260 0.950 . S
C232 N228 1.383 . S
C232 C231 1.439 . S
C232 C250 1.392 . S
N233 Co217 2.282 . S
N233 C236 1.332 . S
N233 C238 1.332 . S
C234 C235 1.386 . S
C234 C237 1.388 . S
C235 C234 1.386 . S
C235 C236 1.382 . S
C235 H261 0.950 . S
C236 N233 1.332 . S
C236 C235 1.382 . S
C236 H247 0.952 . S
C237 C234 1.388 . S
C237 C238 1.382 . S
C237 H262 0.950 . S
C238 N233 1.332 . S
C238 C237 1.382 . S
C238 H248 0.948 . S
N239 Co217 2.282 . S
N239 C243 1.332 . S
N239 C244 1.332 . S
C240 C241 1.388 . S
C240 C244 1.382 . S
C240 H263 0.950 . S
C241 C240 1.388 . S
C241 C242 1.386 . S
C242 C241 1.386 . S
C242 C243 1.382 . S
C242 H264 0.950 1_455 S
C243 N239 1.332 . S
C243 C242 1.382 . S
C243 H245 0.952 . S
C244 N239 1.332 . S
C244 C240 1.382 . S
C244 H246 0.948 . S
H245 C243 0.952 . S
H246 C244 0.948 . S
H247 C236 0.952 . S
H248 C238 0.948 . S
C249 C215 1.395 . S
C249 C219 1.391 . S
C250 C212 1.389 . S
C250 C232 1.392 . S
C251 C222 1.392 . S
C251 C224 1.389 . S
C252 C227 1.395 . S
C252 C229 1.391 . S
H253 C213 0.951 1_655 S
H254 C214 0.950 1_655 S
H255 C220 0.949 . S
H256 C221 0.950 . S
H257 C225 0.951 . S
H258 C226 0.950 . S
H259 C230 0.949 . S
H260 C231 0.950 . S
H261 C235 0.950 . S
H262 C237 0.950 . S
H263 C240 0.950 . S
H264 C242 0.950 1_655 S
C265 C266 1.443 1_556 S
C265 N269 1.376 . S
C265 C303 1.389 . S
C266 C265 1.443 1_554 S
C266 C267 1.340 . S
C266 H306 0.951 . S
C267 C266 1.340 . S
C267 C268 1.439 1_554 S
C267 H307 0.950 . S
C268 C267 1.439 1_556 S
C268 N269 1.374 . S
C268 C302 1.395 . S
N269 C265 1.376 . S
N269 C268 1.374 . S
N269 Co270 2.008 . S
Co270 N269 2.008 . S
Co270 N271 1.995 . S
Co270 N276 2.008 . S
Co270 N281 1.995 . S
Co270 N286 2.282 . S
Co270 N292 2.282 . S
N271 Co270 1.995 . S
N271 C272 1.376 . S
N271 C275 1.383 . S
C272 N271 1.376 . S
C272 C273 1.446 . S
C272 C302 1.391 . S
C273 C272 1.446 . S
C273 C274 1.339 . S
C273 H308 0.949 . S
C274 C273 1.339 . S
C274 C275 1.439 . S
C274 H309 0.950 . S
C275 N271 1.383 . S
C275 C274 1.439 . S
C275 C304 1.392 . S
N276 Co270 2.008 . S
N276 C277 1.376 . S
N276 C280 1.374 . S
C277 N276 1.376 . S
C277 C278 1.443 . S
C277 C304 1.389 . S
C278 C277 1.443 . S
C278 C279 1.340 . S
C278 H310 0.951 . S
C279 C278 1.340 . S
C279 C280 1.439 . S
C279 H311 0.950 . S
C280 N276 1.374 . S
C280 C279 1.439 . S
C280 C305 1.395 . S
N281 Co270 1.995 . S
N281 C282 1.376 . S
N281 C285 1.383 . S
C282 N281 1.376 . S
C282 C283 1.446 . S
C282 C305 1.391 . S
C283 C282 1.446 . S
C283 C284 1.339 . S
C283 H312 0.949 . S
C284 C283 1.339 . S
C284 C285 1.439 . S
C284 H313 0.950 1_545 S
C285 N281 1.383 . S
C285 C284 1.439 . S
C285 C303 1.392 . S
N286 Co270 2.282 . S
N286 C289 1.332 . S
N286 C291 1.332 . S
C287 C288 1.386 . S
C287 C290 1.388 . S
C288 C287 1.386 . S
C288 C289 1.382 . S
C288 H314 0.950 . S
C289 N286 1.332 . S
C289 C288 1.382 . S
C289 H300 0.952 . S
C290 C287 1.388 . S
C290 C291 1.382 . S
C290 H315 0.950 . S
C291 N286 1.332 . S
C291 C290 1.382 . S
C291 H301 0.948 . S
N292 Co270 2.282 . S
N292 C296 1.332 . S
N292 C297 1.332 . S
C293 C294 1.388 . S
C293 C297 1.382 . S
C293 H316 0.950 . S
C294 C293 1.388 . S
C294 C295 1.386 . S
C295 C294 1.386 . S
C295 C296 1.382 . S
C295 H317 0.950 . S
C296 N292 1.332 . S
C296 C295 1.382 . S
C296 H298 0.952 . S
C297 N292 1.332 . S
C297 C293 1.382 . S
C297 H299 0.948 . S
H298 C296 0.952 . S
H299 C297 0.948 . S
H300 C289 0.952 . S
H301 C291 0.948 . S
C302 C268 1.395 . S
C302 C272 1.391 . S
C303 C265 1.389 . S
C303 C285 1.392 . S
C304 C275 1.392 . S
C304 C277 1.389 . S
C305 C280 1.395 . S
C305 C282 1.391 . S
H306 C266 0.951 . S
H307 C267 0.950 . S
H308 C273 0.949 . S
H309 C274 0.950 . S
H310 C278 0.951 . S
H311 C279 0.950 . S
H312 C283 0.949 . S
H313 C284 0.950 1_565 S
H314 C288 0.950 . S
H315 C290 0.950 . S
H316 C293 0.950 . S
H317 C295 0.950 . S
C318 C319 1.443 . S
C318 N322 1.376 . S
C318 C356 1.389 . S
C319 C318 1.443 . S
C319 C320 1.340 . S
C319 H359 0.951 . S
C320 C319 1.340 . S
C320 C321 1.439 . S
C320 H360 0.950 . S
C321 C320 1.439 . S
C321 N322 1.374 . S
C321 C355 1.395 . S
N322 C318 1.376 . S
N322 C321 1.374 . S
N322 Co323 2.008 . S
Co323 N322 2.008 . S
Co323 N324 1.995 . S
Co323 N329 2.008 . S
Co323 N334 1.995 . S
Co323 N339 2.282 . S
Co323 N345 2.282 . S
N324 Co323 1.995 . S
N324 C325 1.376 . S
N324 C328 1.383 . S
C325 N324 1.376 . S
C325 C326 1.446 . S
C325 C355 1.391 . S
C326 C325 1.446 . S
C326 C327 1.339 . S
C326 H361 0.949 . S
C327 C326 1.339 . S
C327 C328 1.439 . S
C327 H362 0.950 . S
C328 N324 1.383 . S
C328 C327 1.439 . S
C328 C357 1.392 . S
N329 Co323 2.008 . S
N329 C330 1.376 . S
N329 C333 1.374 . S
C330 N329 1.376 . S
C330 C331 1.443 . S
C330 C357 1.389 . S
C331 C330 1.443 . S
C331 C332 1.340 . S
C331 H363 0.951 . S
C332 C331 1.340 . S
C332 C333 1.439 . S
C332 H364 0.950 . S
C333 N329 1.374 . S
C333 C332 1.439 . S
C333 C358 1.395 . S
N334 Co323 1.995 . S
N334 C335 1.376 . S
N334 C338 1.383 . S
C335 N334 1.376 . S
C335 C336 1.446 . S
C335 C358 1.391 . S
C336 C335 1.446 . S
C336 C337 1.339 . S
C336 H365 0.949 . S
C337 C336 1.339 . S
C337 C338 1.439 . S
C337 H366 0.950 . S
C338 N334 1.383 . S
C338 C337 1.439 . S
C338 C356 1.392 . S
N339 Co323 2.282 . S
N339 C342 1.332 . S
N339 C344 1.332 . S
C340 C341 1.386 . S
C340 C343 1.388 . S
C341 C340 1.386 . S
C341 C342 1.382 . S
C341 H367 0.950 . S
C342 N339 1.332 . S
C342 C341 1.382 . S
C342 H353 0.952 . S
C343 C340 1.388 . S
C343 C344 1.382 . S
C343 H368 0.950 . S
C344 N339 1.332 . S
C344 C343 1.382 . S
C344 H354 0.948 . S
N345 Co323 2.282 . S
N345 C349 1.332 . S
N345 C350 1.332 . S
C346 C347 1.388 . S
C346 C350 1.382 . S
C346 H369 0.950 . S
C347 C346 1.388 . S
C347 C348 1.386 . S
C348 C347 1.386 . S
C348 C349 1.382 . S
C348 H370 0.950 . S
C349 N345 1.332 . S
C349 C348 1.382 . S
C349 H351 0.952 . S
C350 N345 1.332 . S
C350 C346 1.382 . S
C350 H352 0.948 . S
H351 C349 0.952 . S
H352 C350 0.948 . S
H353 C342 0.952 . S
H354 C344 0.948 . S
C355 C321 1.395 . S
C355 C325 1.391 . S
C356 C318 1.389 . S
C356 C338 1.392 . S
C357 C328 1.392 . S
C357 C330 1.389 . S
C358 C333 1.395 . S
C358 C335 1.391 . S
H359 C319 0.951 . S
H360 C320 0.950 . S
H361 C326 0.949 . S
H362 C327 0.950 . S
H363 C331 0.951 . S
H364 C332 0.950 . S
H365 C336 0.949 . S
H366 C337 0.950 . S
H367 C341 0.950 . S
H368 C343 0.950 . S
H369 C346 0.950 . S
H370 C348 0.950 . S
C371 C372 1.443 . S
C371 N375 1.376 . S
C371 C409 1.389 . S
C372 C371 1.443 . S
C372 C373 1.340 . S
C372 H412 0.951 . S
C373 C372 1.340 . S
C373 C374 1.439 . S
C373 H413 0.950 1_655 S
C374 C373 1.439 . S
C374 N375 1.374 . S
C374 C408 1.395 . S
N375 C371 1.376 . S
N375 C374 1.374 . S
N375 Co376 2.008 . S
Co376 N375 2.008 . S
Co376 N377 1.995 . S
Co376 N382 2.008 . S
Co376 N387 1.995 . S
Co376 N392 2.282 . S
Co376 N398 2.282 . S
N377 Co376 1.995 . S
N377 C378 1.376 . S
N377 C381 1.383 . S
C378 N377 1.376 . S
C378 C379 1.446 . S
C378 C408 1.391 . S
C379 C378 1.446 . S
C379 C380 1.339 . S
C379 H414 0.949 . S
C380 C379 1.339 . S
C380 C381 1.439 . S
C380 H415 0.950 . S
C381 N377 1.383 . S
C381 C380 1.439 . S
C381 C410 1.392 . S
N382 Co376 2.008 . S
N382 C383 1.376 . S
N382 C386 1.374 . S
C383 N382 1.376 . S
C383 C384 1.443 . S
C383 C410 1.389 . S
C384 C383 1.443 . S
C384 C385 1.340 . S
C384 H416 0.951 . S
C385 C384 1.340 . S
C385 C386 1.439 . S
C385 H417 0.950 . S
C386 N382 1.374 . S
C386 C385 1.439 . S
C386 C411 1.395 . S
N387 Co376 1.995 . S
N387 C388 1.376 . S
N387 C391 1.383 . S
C388 N387 1.376 . S
C388 C389 1.446 . S
C388 C411 1.391 . S
C389 C388 1.446 . S
C389 C390 1.339 . S
C389 H418 0.949 . S
C390 C389 1.339 . S
C390 C391 1.439 . S
C390 H419 0.950 . S
C391 N387 1.383 . S
C391 C390 1.439 . S
C391 C409 1.392 . S
N392 Co376 2.282 . S
N392 C395 1.332 . S
N392 C397 1.332 . S
C393 C394 1.386 . S
C393 C396 1.388 . S
C394 C393 1.386 . S
C394 C395 1.382 . S
C394 H420 0.950 . S
C395 N392 1.332 . S
C395 C394 1.382 . S
C395 H406 0.952 . S
C396 C393 1.388 . S
C396 C397 1.382 . S
C396 H421 0.950 . S
C397 N392 1.332 . S
C397 C396 1.382 . S
C397 H407 0.948 . S
N398 Co376 2.282 . S
N398 C402 1.332 . S
N398 C403 1.332 . S
C399 C400 1.388 . S
C399 C403 1.382 . S
C399 H422 0.950 . S
C400 C399 1.388 . S
C400 C401 1.386 . S
C401 C400 1.386 . S
C401 C402 1.382 . S
C401 H423 0.950 1_655 S
C402 N398 1.332 . S
C402 C401 1.382 . S
C402 H404 0.952 . S
C403 N398 1.332 . S
C403 C399 1.382 . S
C403 H405 0.948 . S
H404 C402 0.952 . S
H405 C403 0.948 . S
H406 C395 0.952 . S
H407 C397 0.948 . S
C408 C374 1.395 . S
C408 C378 1.391 . S
C409 C371 1.389 . S
C409 C391 1.392 . S
C410 C381 1.392 . S
C410 C383 1.389 . S
C411 C386 1.395 . S
C411 C388 1.391 . S
H412 C372 0.951 . S
H413 C373 0.950 1_455 S
H414 C379 0.949 . S
H415 C380 0.950 . S
H416 C384 0.951 . S
H417 C385 0.950 . S
H418 C389 0.949 . S
H419 C390 0.950 . S
H420 C394 0.950 . S
H421 C396 0.950 . S
H422 C399 0.950 . S
H423 C401 0.950 1_455 S
C424 C425 1.443 . S
C424 N428 1.376 . S
C424 C462 1.389 . S
C425 C424 1.443 . S
C425 C426 1.337 1_554 S
C425 H465 0.951 1_554 S
C426 C425 1.337 1_556 S
C426 C427 1.423 1_556 S
C426 H466 0.966 . S
C427 C426 1.423 1_554 S
C427 N428 1.374 . S
C427 C461 1.395 . S
N428 C424 1.376 . S
N428 C427 1.374 . S
N428 Co429 2.008 . S
Co429 N428 2.008 . S
Co429 N430 1.995 . S
Co429 N435 2.008 . S
Co429 N440 1.995 . S
Co429 N445 2.282 . S
Co429 N451 2.282 . S
N430 Co429 1.995 . S
N430 C431 1.376 . S
N430 C434 1.383 . S
C431 N430 1.376 . S
C431 C432 1.446 . S
C431 C461 1.391 . S
C432 C431 1.446 . S
C432 C433 1.339 . S
C432 H467 0.949 . S
C433 C432 1.339 . S
C433 C434 1.439 . S
C433 H468 0.950 . S
C434 N430 1.383 . S
C434 C433 1.439 . S
C434 C463 1.392 . S
N435 Co429 2.008 . S
N435 C436 1.376 . S
N435 C439 1.374 . S
C436 N435 1.376 . S
C436 C437 1.443 . S
C436 C463 1.389 . S
C437 C436 1.443 . S
C437 C438 1.340 . S
C437 H469 0.951 . S
C438 C437 1.340 . S
C438 C439 1.439 . S
C438 H470 0.950 . S
C439 N435 1.374 . S
C439 C438 1.439 . S
C439 C464 1.395 . S
N440 Co429 1.995 . S
N440 C441 1.376 . S
N440 C444 1.383 . S
C441 N440 1.376 . S
C441 C442 1.446 . S
C441 C464 1.391 . S
C442 C441 1.446 . S
C442 C443 1.339 . S
C442 H471 0.949 . S
C443 C442 1.339 . S
C443 C444 1.439 . S
C443 H472 0.950 1_565 S
C444 N440 1.383 . S
C444 C443 1.439 . S
C444 C462 1.392 . S
N445 Co429 2.282 . S
N445 C448 1.332 . S
N445 C450 1.332 . S
C446 C447 1.386 . S
C446 C449 1.388 . S
C447 C446 1.386 . S
C447 C448 1.382 . S
C447 H473 0.950 . S
C448 N445 1.332 . S
C448 C447 1.382 . S
C448 H459 0.952 . S
C449 C446 1.388 . S
C449 C450 1.382 . S
C449 H474 0.950 . S
C450 N445 1.332 . S
C450 C449 1.382 . S
C450 H460 0.948 . S
N451 Co429 2.282 . S
N451 C455 1.332 . S
N451 C456 1.332 . S
C452 C453 1.388 . S
C452 C456 1.382 . S
C452 H475 0.950 . S
C453 C452 1.388 . S
C453 C454 1.386 . S
C454 C453 1.386 . S
C454 C455 1.382 . S
C454 H476 0.950 . S
C455 N451 1.332 . S
C455 C454 1.382 . S
C455 H457 0.952 . S
C456 N451 1.332 . S
C456 C452 1.382 . S
C456 H458 0.948 . S
H457 C455 0.952 . S
H458 C456 0.948 . S
H459 C448 0.952 . S
H460 C450 0.948 . S
C461 C427 1.395 . S
C461 C431 1.391 . S
C462 C424 1.389 . S
C462 C444 1.392 . S
C463 C434 1.392 . S
C463 C436 1.389 . S
C464 C439 1.395 . S
C464 C441 1.391 . S
H465 C425 0.951 1_556 S
H466 C426 0.966 . S
H467 C432 0.949 . S
H468 C433 0.950 . S
H469 C437 0.951 . S
H470 C438 0.950 . S
H471 C442 0.949 . S
H472 C443 0.950 1_545 S
H473 C447 0.950 . S
H474 C449 0.950 . S
H475 C452 0.950 . S
H476 C454 0.950 . S
C477 C478 1.443 . S
C477 N481 1.376 . S
C477 C515 1.389 . S
C478 C477 1.443 . S
C478 C479 1.340 . S
C478 H518 0.951 . S
C479 C478 1.340 . S
C479 C480 1.439 . S
C479 H519 0.950 . S
C480 C479 1.439 . S
C480 N481 1.374 . S
C480 C514 1.395 . S
N481 C477 1.376 . S
N481 C480 1.374 . S
N481 Co482 2.008 . S
Co482 N481 2.008 . S
Co482 N483 1.995 . S
Co482 N488 2.008 . S
Co482 N493 1.995 . S
Co482 N498 2.282 . S
Co482 N504 2.282 . S
N483 Co482 1.995 . S
N483 C484 1.376 . S
N483 C487 1.383 . S
C484 N483 1.376 . S
C484 C485 1.446 . S
C484 C514 1.391 . S
C485 C484 1.446 . S
C485 C486 1.339 . S
C485 H520 0.949 . S
C486 C485 1.339 . S
C486 C487 1.439 . S
C486 H521 0.950 . S
C487 N483 1.383 . S
C487 C486 1.439 . S
C487 C516 1.392 . S
N488 Co482 2.008 . S
N488 C489 1.376 . S
N488 C492 1.374 . S
C489 N488 1.376 . S
C489 C490 1.443 . S
C489 C516 1.389 . S
C490 C489 1.443 . S
C490 C491 1.340 . S
C490 H522 0.951 . S
C491 C490 1.340 . S
C491 C492 1.439 . S
C491 H523 0.950 . S
C492 N488 1.374 . S
C492 C491 1.439 . S
C492 C517 1.395 . S
N493 Co482 1.995 . S
N493 C494 1.376 . S
N493 C497 1.383 . S
C494 N493 1.376 . S
C494 C495 1.446 . S
C494 C517 1.391 . S
C495 C494 1.446 . S
C495 C496 1.339 . S
C495 H524 0.949 . S
C496 C495 1.339 . S
C496 C497 1.439 . S
C496 H525 0.950 . S
C497 N493 1.383 . S
C497 C496 1.439 . S
C497 C515 1.392 . S
N498 Co482 2.282 . S
N498 C501 1.332 . S
N498 C503 1.332 . S
C499 C500 1.386 . S
C499 C502 1.388 . S
C500 C499 1.386 . S
C500 C501 1.382 . S
C500 H526 0.950 . S
C501 N498 1.332 . S
C501 C500 1.382 . S
C501 H512 0.952 . S
C502 C499 1.388 . S
C502 C503 1.382 . S
C502 H527 0.950 . S
C503 N498 1.332 . S
C503 C502 1.382 . S
C503 H513 0.948 . S
N504 Co482 2.282 . S
N504 C508 1.332 . S
N504 C509 1.332 . S
C505 C506 1.388 . S
C505 C509 1.382 . S
C505 H528 0.950 . S
C506 C505 1.388 . S
C506 C507 1.386 . S
C507 C506 1.386 . S
C507 C508 1.382 . S
C507 H529 0.950 . S
C508 N504 1.332 . S
C508 C507 1.382 . S
C508 H510 0.952 . S
C509 N504 1.332 . S
C509 C505 1.382 . S
C509 H511 0.948 . S
H510 C508 0.952 . S
H511 C509 0.948 . S
H512 C501 0.952 . S
H513 C503 0.948 . S
C514 C480 1.395 . S
C514 C484 1.391 . S
C515 C477 1.389 . S
C515 C497 1.392 . S
C516 C487 1.392 . S
C516 C489 1.389 . S
C517 C492 1.395 . S
C517 C494 1.391 . S
H518 C478 0.951 . S
H519 C479 0.950 . S
H520 C485 0.949 . S
H521 C486 0.950 . S
H522 C490 0.951 . S
H523 C491 0.950 . S
H524 C495 0.949 . S
H525 C496 0.950 . S
H526 C500 0.950 . S
H527 C502 0.950 . S
H528 C505 0.950 . S
H529 C507 0.950 . S
C530 C531 1.443 . S
C530 N534 1.376 . S
C530 C568 1.389 . S
C531 C530 1.443 . S
C531 C532 1.340 . S
C531 H571 0.951 . S
C532 C531 1.340 . S
C532 C533 1.439 . S
C532 H572 0.950 1_455 S
C533 C532 1.439 . S
C533 N534 1.374 . S
C533 C567 1.395 . S
N534 C530 1.376 . S
N534 C533 1.374 . S
N534 Co535 2.008 . S
Co535 N534 2.008 . S
Co535 N536 1.995 . S
Co535 N541 2.008 . S
Co535 N546 1.995 . S
Co535 N551 2.282 . S
Co535 N557 2.282 . S
N536 Co535 1.995 . S
N536 C537 1.376 . S
N536 C540 1.383 . S
C537 N536 1.376 . S
C537 C538 1.446 . S
C537 C567 1.391 . S
C538 C537 1.446 . S
C538 C539 1.339 . S
C538 H573 0.949 . S
C539 C538 1.339 . S
C539 C540 1.439 . S
C539 H574 0.950 . S
C540 N536 1.383 . S
C540 C539 1.439 . S
C540 C569 1.392 . S
N541 Co535 2.008 . S
N541 C542 1.376 . S
N541 C545 1.374 . S
C542 N541 1.376 . S
C542 C543 1.443 . S
C542 C569 1.389 . S
C543 C542 1.443 . S
C543 C544 1.340 . S
C543 H575 0.951 . S
C544 C543 1.340 . S
C544 C545 1.439 . S
C544 H576 0.950 . S
C545 N541 1.374 . S
C545 C544 1.439 . S
C545 C570 1.395 . S
N546 Co535 1.995 . S
N546 C547 1.376 . S
N546 C550 1.383 . S
C547 N546 1.376 . S
C547 C548 1.446 . S
C547 C570 1.391 . S
C548 C547 1.446 . S
C548 C549 1.339 . S
C548 H577 0.949 . S
C549 C548 1.339 . S
C549 C550 1.439 . S
C549 H578 0.950 . S
C550 N546 1.383 . S
C550 C549 1.439 . S
C550 C568 1.392 . S
N551 Co535 2.282 . S
N551 C554 1.332 . S
N551 C556 1.332 . S
C552 C553 1.386 . S
C552 C555 1.388 . S
C553 C552 1.386 . S
C553 C554 1.382 . S
C553 H579 0.950 . S
C554 N551 1.332 . S
C554 C553 1.382 . S
C554 H565 0.952 . S
C555 C552 1.388 . S
C555 C556 1.382 . S
C555 H580 0.950 . S
C556 N551 1.332 . S
C556 C555 1.382 . S
C556 H566 0.948 . S
N557 Co535 2.282 . S
N557 C561 1.332 . S
N557 C562 1.332 . S
C558 C559 1.388 . S
C558 C562 1.382 . S
C558 H581 0.950 . S
C559 C558 1.388 . S
C559 C560 1.386 . S
C560 C559 1.386 . S
C560 C561 1.382 . S
C560 H582 0.950 1_455 S
C561 N557 1.332 . S
C561 C560 1.382 . S
C561 H563 0.952 . S
C562 N557 1.332 . S
C562 C558 1.382 . S
C562 H564 0.948 . S
H563 C561 0.952 . S
H564 C562 0.948 . S
H565 C554 0.952 . S
H566 C556 0.948 . S
C567 C533 1.395 . S
C567 C537 1.391 . S
C568 C530 1.389 . S
C568 C550 1.392 . S
C569 C540 1.392 . S
C569 C542 1.389 . S
C570 C545 1.395 . S
C570 C547 1.391 . S
H571 C531 0.951 . S
H572 C532 0.950 1_655 S
H573 C538 0.949 . S
H574 C539 0.950 . S
H575 C543 0.951 . S
H576 C544 0.950 . S
H577 C548 0.949 . S
H578 C549 0.950 . S
H579 C553 0.950 . S
H580 C555 0.950 . S
H581 C558 0.950 . S
H582 C560 0.950 1_655 S
C583 C584 1.443 . S
C583 N587 1.376 . S
C583 C621 1.389 . S
C584 C583 1.443 . S
C584 C585 1.337 1_554 S
C584 H624 0.951 1_554 S
C585 C584 1.337 1_556 S
C585 C586 1.423 1_556 S
C585 H625 0.966 . S
C586 C585 1.423 1_554 S
C586 N587 1.374 . S
C586 C620 1.395 . S
N587 C583 1.376 . S
N587 C586 1.374 . S
N587 Co588 2.008 . S
Co588 N587 2.008 . S
Co588 N589 1.995 . S
Co588 N594 2.008 . S
Co588 N599 1.995 . S
Co588 N604 2.282 . S
Co588 N610 2.282 . S
N589 Co588 1.995 . S
N589 C590 1.376 . S
N589 C593 1.383 . S
C590 N589 1.376 . S
C590 C591 1.446 . S
C590 C620 1.391 . S
C591 C590 1.446 . S
C591 C592 1.339 . S
C591 H626 0.949 . S
C592 C591 1.339 . S
C592 C593 1.439 . S
C592 H627 0.950 . S
C593 N589 1.383 . S
C593 C592 1.439 . S
C593 C622 1.392 . S
N594 Co588 2.008 . S
N594 C595 1.376 . S
N594 C598 1.374 . S
C595 N594 1.376 . S
C595 C596 1.443 . S
C595 C622 1.389 . S
C596 C595 1.443 . S
C596 C597 1.340 . S
C596 H628 0.951 . S
C597 C596 1.340 . S
C597 C598 1.439 . S
C597 H629 0.950 . S
C598 N594 1.374 . S
C598 C597 1.439 . S
C598 C623 1.395 . S
N599 Co588 1.995 . S
N599 C600 1.376 . S
N599 C603 1.383 . S
C600 N599 1.376 . S
C600 C601 1.446 . S
C600 C623 1.391 . S
C601 C600 1.446 . S
C601 C602 1.339 . S
C601 H630 0.949 . S
C602 C601 1.339 . S
C602 C603 1.439 . S
C602 H631 0.950 1_545 S
C603 N599 1.383 . S
C603 C602 1.439 . S
C603 C621 1.392 . S
N604 Co588 2.282 . S
N604 C607 1.332 . S
N604 C609 1.332 . S
C605 C606 1.386 . S
C605 C608 1.388 . S
C606 C605 1.386 . S
C606 C607 1.382 . S
C606 H632 0.950 . S
C607 N604 1.332 . S
C607 C606 1.382 . S
C607 H618 0.952 . S
C608 C605 1.388 . S
C608 C609 1.382 . S
C608 H633 0.950 . S
C609 N604 1.332 . S
C609 C608 1.382 . S
C609 H619 0.948 . S
N610 Co588 2.282 . S
N610 C614 1.332 . S
N610 C615 1.332 . S
C611 C612 1.388 . S
C611 C615 1.382 . S
C611 H634 0.950 . S
C612 C611 1.388 . S
C612 C613 1.386 . S
C613 C612 1.386 . S
C613 C614 1.382 . S
C613 H635 0.950 . S
C614 N610 1.332 . S
C614 C613 1.382 . S
C614 H616 0.952 . S
C615 N610 1.332 . S
C615 C611 1.382 . S
C615 H617 0.948 . S
H616 C614 0.952 . S
H617 C615 0.948 . S
H618 C607 0.952 . S
H619 C609 0.948 . S
C620 C586 1.395 . S
C620 C590 1.391 . S
C621 C583 1.389 . S
C621 C603 1.392 . S
C622 C593 1.392 . S
C622 C595 1.389 . S
C623 C598 1.395 . S
C623 C600 1.391 . S
H624 C584 0.951 1_556 S
H625 C585 0.966 . S
H626 C591 0.949 . S
H627 C592 0.950 . S
H628 C596 0.951 . S
H629 C597 0.950 . S
H630 C601 0.949 . S
H631 C602 0.950 1_565 S
H632 C606 0.950 . S
H633 C608 0.950 . S
H634 C611 0.950 . S
H635 C613 0.950 . S
C636 C637 1.363 . S
C636 C642 1.379 . S
C636 N644 1.356 . S
C637 C636 1.363 . S
C637 C643 1.363 . S
C638 C639 1.363 . S
C638 C643 1.379 . S
C638 N645 1.356 . S
C639 C638 1.363 . S
C639 C642 1.363 . S
N640 C642 1.356 . S
N640 H652 0.984 . S
N640 H653 0.985 . S
N641 C643 1.356 . S
N641 H646 0.984 . S
N641 H647 0.985 . S
C642 C636 1.379 . S
C642 C639 1.363 . S
C642 N640 1.356 . S
C643 C637 1.363 . S
C643 C638 1.379 . S
C643 N641 1.356 . S
N644 C636 1.356 . S
N644 H650 0.984 . S
N644 H651 0.984 . S
N645 C638 1.356 . S
N645 H648 0.984 . S
N645 H649 0.985 . S
H646 N641 0.984 . S
H647 N641 0.985 . S
H648 N645 0.984 . S
H649 N645 0.985 . S
H650 N644 0.984 . S
H651 N644 0.984 . S
H652 N640 0.984 . S
H653 N640 0.985 . S
C654 C655 1.363 . S
C654 C660 1.379 . S
C654 N662 1.356 . S
C655 C654 1.363 . S
C655 C661 1.363 . S
C656 C657 1.363 . S
C656 C661 1.379 . S
C656 N663 1.356 . S
C657 C656 1.363 . S
C657 C660 1.363 . S
N658 C660 1.356 . S
N658 H670 0.984 . S
N658 H671 0.985 . S
N659 C661 1.356 . S
N659 H664 0.984 . S
N659 H665 0.985 . S
C660 C654 1.379 . S
C660 C657 1.363 . S
C660 N658 1.356 . S
C661 C655 1.363 . S
C661 C656 1.379 . S
C661 N659 1.356 . S
N662 C654 1.356 . S
N662 H668 0.984 . S
N662 H669 0.984 . S
N663 C656 1.356 . S
N663 H666 0.984 . S
N663 H667 0.985 . S
H664 N659 0.984 . S
H665 N659 0.985 . S
H666 N663 0.984 . S
H667 N663 0.985 . S
H668 N662 0.984 . S
H669 N662 0.984 . S
H670 N658 0.984 . S
H671 N658 0.985 . S
C672 C673 1.363 . S
C672 C678 1.379 . S
C672 N680 1.356 . S
C673 C672 1.363 . S
C673 C679 1.363 . S
C674 C675 1.363 . S
C674 C679 1.379 . S
C674 N681 1.356 . S
C675 C674 1.363 . S
C675 C678 1.363 . S
N676 C678 1.356 . S
N676 H688 0.984 . S
N676 H689 0.985 . S
N677 C679 1.356 . S
N677 H682 0.984 . S
N677 H683 0.985 . S
C678 C672 1.379 . S
C678 C675 1.363 . S
C678 N676 1.356 . S
C679 C673 1.363 . S
C679 C674 1.379 . S
C679 N677 1.356 . S
N680 C672 1.356 . S
N680 H686 0.984 . S
N680 H687 0.984 . S
N681 C674 1.356 . S
N681 H684 0.984 . S
N681 H685 0.985 . S
H682 N677 0.984 . S
H683 N677 0.985 . S
H684 N681 0.984 . S
H685 N681 0.985 . S
H686 N680 0.984 . S
H687 N680 0.984 . S
H688 N676 0.984 . S
H689 N676 0.985 . S
C690 C691 1.363 . S
C690 C696 1.379 . S
C690 N698 1.356 . S
C691 C690 1.363 . S
C691 C697 1.363 . S
C692 C693 1.363 . S
C692 C697 1.379 . S
C692 N699 1.356 . S
C693 C692 1.363 . S
C693 C696 1.363 . S
N694 C696 1.356 . S
N694 H706 0.984 . S
N694 H707 0.985 . S
N695 C697 1.356 . S
N695 H700 0.984 . S
N695 H701 0.985 . S
C696 C690 1.379 . S
C696 C693 1.363 . S
C696 N694 1.356 . S
C697 C691 1.363 . S
C697 C692 1.379 . S
C697 N695 1.356 . S
N698 C690 1.356 . S
N698 H704 0.984 . S
N698 H705 0.984 . S
N699 C692 1.356 . S
N699 H702 0.984 . S
N699 H703 0.985 . S
H700 N695 0.984 . S
H701 N695 0.985 . S
H702 N699 0.984 . S
H703 N699 0.985 . S
H704 N698 0.984 . S
H705 N698 0.984 . S
H706 N694 0.984 . S
H707 N694 0.985 . S
C708 C709 1.363 . S
C708 C714 1.379 . S
C708 N716 1.356 . S
C709 C708 1.363 . S
C709 C715 1.363 . S
C710 C711 1.363 . S
C710 C715 1.379 . S
C710 N717 1.356 . S
C711 C710 1.363 . S
C711 C714 1.363 . S
N712 C714 1.356 . S
N712 H724 0.984 . S
N712 H725 0.985 . S
N713 C715 1.356 . S
N713 H718 0.984 . S
N713 H719 0.985 . S
C714 C708 1.379 . S
C714 C711 1.363 . S
C714 N712 1.356 . S
C715 C709 1.363 . S
C715 C710 1.379 . S
C715 N713 1.356 . S
N716 C708 1.356 . S
N716 H722 0.984 . S
N716 H723 0.984 . S
N717 C710 1.356 . S
N717 H720 0.984 . S
N717 H721 0.985 . S
H718 N713 0.984 . S
H719 N713 0.985 . S
H720 N717 0.984 . S
H721 N717 0.985 . S
H722 N716 0.984 . S
H723 N716 0.984 . S
H724 N712 0.984 . S
H725 N712 0.985 . S
C726 C727 1.363 . S
C726 C732 1.379 . S
C726 N734 1.356 . S
C727 C726 1.363 . S
C727 C733 1.363 . S
C728 C729 1.363 . S
C728 C733 1.379 . S
C728 N735 1.356 . S
C729 C728 1.363 . S
C729 C732 1.363 . S
N730 C732 1.356 . S
N730 H742 0.984 . S
N730 H743 0.985 . S
N731 C733 1.356 . S
N731 H736 0.984 . S
N731 H737 0.985 . S
C732 C726 1.379 . S
C732 C729 1.363 . S
C732 N730 1.356 . S
C733 C727 1.363 . S
C733 C728 1.379 . S
C733 N731 1.356 . S
N734 C726 1.356 . S
N734 H740 0.984 . S
N734 H741 0.984 . S
N735 C728 1.356 . S
N735 H738 0.984 . S
N735 H739 0.985 . S
H736 N731 0.984 . S
H737 N731 0.985 . S
H738 N735 0.984 . S
H739 N735 0.985 . S
H740 N734 0.984 . S
H741 N734 0.984 . S
H742 N730 0.984 . S
H743 N730 0.985 . S
C744 C745 1.363 . S
C744 C750 1.379 . S
C744 N752 1.356 . S
C745 C744 1.363 . S
C745 C751 1.363 . S
C746 C747 1.363 . S
C746 C751 1.379 . S
C746 N753 1.356 . S
C747 C746 1.363 . S
C747 C750 1.363 . S
N748 C750 1.356 . S
N748 H760 0.984 . S
N748 H761 0.985 . S
N749 C751 1.356 . S
N749 H754 0.984 . S
N749 H755 0.985 . S
C750 C744 1.379 . S
C750 C747 1.363 . S
C750 N748 1.356 . S
C751 C745 1.363 . S
C751 C746 1.379 . S
C751 N749 1.356 . S
N752 C744 1.356 . S
N752 H758 0.984 . S
N752 H759 0.984 . S
N753 C746 1.356 . S
N753 H756 0.984 . S
N753 H757 0.985 . S
H754 N749 0.984 . S
H755 N749 0.985 . S
H756 N753 0.984 . S
H757 N753 0.985 . S
H758 N752 0.984 . S
H759 N752 0.984 . S
H760 N748 0.984 . S
H761 N748 0.985 . S
C762 C763 1.363 1_655 S
C762 C768 1.379 . S
C762 N770 1.356 1_655 S
C763 C762 1.363 1_455 S
C763 C769 1.363 . S
C764 C765 1.363 1_455 S
C764 C769 1.379 . S
C764 N771 1.356 1_455 S
C765 C764 1.363 1_655 S
C765 C768 1.363 . S
N766 C768 1.356 . S
N766 H778 0.984 . S
N766 H779 0.985 . S
N767 C769 1.356 . S
N767 H772 0.984 . S
N767 H773 0.985 . S
C768 C762 1.379 . S
C768 C765 1.363 . S
C768 N766 1.356 . S
C769 C763 1.363 . S
C769 C764 1.379 . S
C769 N767 1.356 . S
N770 C762 1.356 1_455 S
N770 H776 0.984 1_455 S
N770 H777 0.984 . S
N771 C764 1.356 1_655 S
N771 H774 0.984 . S
N771 H775 0.985 1_655 S
H772 N767 0.984 . S
H773 N767 0.985 . S
H774 N771 0.984 . S
H775 N771 0.985 1_455 S
H776 N770 0.984 1_655 S
H777 N770 0.984 . S
H778 N766 0.984 . S
H779 N766 0.985 . S
C780 C781 1.363 . S
C780 C786 1.379 1_545 S
C780 N788 1.356 . S
C781 C780 1.363 . S
C781 C787 1.363 . S
C782 C783 1.363 . S
C782 C787 1.379 1_565 S
C782 N789 1.356 . S
C783 C782 1.363 . S
C783 C786 1.363 . S
N784 C786 1.356 . S
N784 H796 0.984 . S
N784 H797 0.985 . S
N785 C787 1.356 . S
N785 H790 0.984 . S
N785 H791 0.985 . S
C786 C780 1.379 1_565 S
C786 C783 1.363 . S
C786 N784 1.356 . S
C787 C781 1.363 . S
C787 C782 1.379 1_545 S
C787 N785 1.356 . S
N788 C780 1.356 . S
N788 H794 0.984 1_545 S
N788 H795 0.984 . S
N789 C782 1.356 . S
N789 H792 0.984 . S
N789 H793 0.985 1_565 S
H790 N785 0.984 . S
H791 N785 0.985 . S
H792 N789 0.984 . S
H793 N789 0.985 1_545 S
H794 N788 0.984 1_565 S
H795 N788 0.984 . S
H796 N784 0.984 . S
H797 N784 0.985 . S
C798 C799 1.363 . S
C798 C804 1.379 . S
C798 N806 1.356 . S
C799 C798 1.363 . S
C799 C805 1.363 . S
C800 C801 1.363 . S
C800 C805 1.379 . S
C800 N807 1.356 . S
C801 C800 1.363 . S
C801 C804 1.363 . S
N802 C804 1.356 . S
N802 H814 0.984 . S
N802 H815 0.985 . S
N803 C805 1.356 . S
N803 H808 0.984 . S
N803 H809 0.985 . S
C804 C798 1.379 . S
C804 C801 1.363 . S
C804 N802 1.356 . S
C805 C799 1.363 . S
C805 C800 1.379 . S
C805 N803 1.356 . S
N806 C798 1.356 . S
N806 H812 0.984 . S
N806 H813 0.984 . S
N807 C800 1.356 . S
N807 H810 0.984 . S
N807 H811 0.985 . S
H808 N803 0.984 . S
H809 N803 0.985 . S
H810 N807 0.984 . S
H811 N807 0.985 . S
H812 N806 0.984 . S
H813 N806 0.984 . S
H814 N802 0.984 . S
H815 N802 0.985 . S
C816 C817 1.363 . S
C816 C822 1.379 1_655 S
C816 N824 1.356 . S
C817 C816 1.363 . S
C817 C823 1.363 . S
C818 C819 1.363 . S
C818 C823 1.379 1_455 S
C818 N825 1.356 . S
C819 C818 1.363 . S
C819 C822 1.363 . S
N820 C822 1.356 . S
N820 H832 0.984 . S
N820 H833 0.985 . S
N821 C823 1.356 . S
N821 H826 0.984 . S
N821 H827 0.985 . S
C822 C816 1.379 1_455 S
C822 C819 1.363 . S
C822 N820 1.356 . S
C823 C817 1.363 . S
C823 C818 1.379 1_655 S
C823 N821 1.356 . S
N824 C816 1.356 . S
N824 H830 0.984 1_655 S
N824 H831 0.984 . S
N825 C818 1.356 . S
N825 H828 0.984 . S
N825 H829 0.985 1_455 S
H826 N821 0.984 . S
H827 N821 0.985 . S
H828 N825 0.984 . S
H829 N825 0.985 1_655 S
H830 N824 0.984 1_455 S
H831 N824 0.984 . S
H832 N820 0.984 . S
H833 N820 0.985 . S
C834 C835 1.363 . S
C834 C840 1.379 1_565 S
C834 N842 1.356 . S
C835 C834 1.363 . S
C835 C841 1.363 . S
C836 C837 1.363 . S
C836 C841 1.379 1_545 S
C836 N843 1.356 . S
C837 C836 1.363 . S
C837 C840 1.363 . S
N838 C840 1.356 . S
N838 H850 0.984 1_545 S
N838 H851 0.985 . S
N839 C841 1.356 . S
N839 H844 0.984 . S
N839 H845 0.985 1_565 S
C840 C834 1.379 1_545 S
C840 C837 1.363 . S
C840 N838 1.356 . S
C841 C835 1.363 . S
C841 C836 1.379 1_565 S
C841 N839 1.356 . S
N842 C834 1.356 . S
N842 H848 0.984 . S
N842 H849 0.984 . S
N843 C836 1.356 . S
N843 H846 0.984 . S
N843 H847 0.985 . S
H844 N839 0.984 . S
H845 N839 0.985 1_545 S
H846 N843 0.984 . S
H847 N843 0.985 . S
H848 N842 0.984 . S
H849 N842 0.984 . S
H850 N838 0.984 1_565 S
H851 N838 0.985 . S
C852 C853 1.363 . S
C852 C858 1.379 . S
C852 N860 1.356 . S
C853 C852 1.363 . S
C853 C859 1.363 . S
C854 C855 1.363 . S
C854 C859 1.379 . S
C854 N861 1.356 . S
C855 C854 1.363 . S
C855 C858 1.363 . S
N856 C858 1.356 . S
N856 H868 0.984 . S
N856 H869 0.985 . S
N857 C859 1.356 . S
N857 H862 0.984 . S
N857 H863 0.985 . S
C858 C852 1.379 . S
C858 C855 1.363 . S
C858 N856 1.356 . S
C859 C853 1.363 . S
C859 C854 1.379 . S
C859 N857 1.356 . S
N860 C852 1.356 . S
N860 H866 0.984 . S
N860 H867 0.984 . S
N861 C854 1.356 . S
N861 H864 0.984 . S
N861 H865 0.985 . S
H862 N857 0.984 . S
H863 N857 0.985 . S
H864 N861 0.984 . S
H865 N861 0.985 . S
H866 N860 0.984 . S
H867 N860 0.984 . S
H868 N856 0.984 . S
H869 N856 0.985 . S
C870 C871 1.363 . S
C870 C876 1.379 . S
C870 N878 1.356 . S
C871 C870 1.363 . S
C871 C877 1.363 1_455 S
C872 C873 1.363 1_655 S
C872 C877 1.379 . S
C872 N879 1.356 . S
C873 C872 1.363 1_455 S
C873 C876 1.363 . S
N874 C876 1.356 . S
N874 H886 0.984 . S
N874 H887 0.985 . S
N875 C877 1.356 . S
N875 H880 0.984 . S
N875 H881 0.985 . S
C876 C870 1.379 . S
C876 C873 1.363 . S
C876 N874 1.356 . S
C877 C871 1.363 1_655 S
C877 C872 1.379 . S
C877 N875 1.356 . S
N878 C870 1.356 . S
N878 H884 0.984 . S
N878 H885 0.984 . S
N879 C872 1.356 . S
N879 H882 0.984 . S
N879 H883 0.985 . S
H880 N875 0.984 . S
H881 N875 0.985 . S
H882 N879 0.984 . S
H883 N879 0.985 . S
H884 N878 0.984 . S
H885 N878 0.984 . S
H886 N874 0.984 . S
H887 N874 0.985 . S
C888 C889 1.363 1_545 S
C888 C894 1.355 1_556 S
C888 N896 1.356 . S
C889 C888 1.363 1_565 S
C889 C895 1.363 1_556 S
C890 C891 1.363 1_565 S
C890 C895 1.379 . S
C890 N897 1.356 . S
C891 C890 1.363 1_545 S
C891 C894 1.391 . S
N892 C894 1.362 . S
N892 H904 0.984 1_554 S
N892 H905 0.985 . S
N893 C895 1.356 . S
N893 H898 0.984 1_554 S
N893 H899 0.985 . S
C894 C888 1.355 1_554 S
C894 C891 1.391 . S
C894 N892 1.362 . S
C895 C889 1.363 1_554 S
C895 C890 1.379 . S
C895 N893 1.356 . S
N896 C888 1.356 . S
N896 H902 0.984 . S
N896 H903 0.984 1_545 S
N897 C890 1.356 . S
N897 H900 0.984 1_565 S
N897 H901 0.985 . S
H898 N893 0.984 1_556 S
H899 N893 0.985 . S
H900 N897 0.984 1_545 S
H901 N897 0.985 . S
H902 N896 0.984 . S
H903 N896 0.984 1_565 S
H904 N892 0.984 1_556 S
H905 N892 0.985 . S
C906 C907 1.363 . S
C906 C912 1.379 . S
C906 N914 1.356 . S
C907 C906 1.363 . S
C907 C913 1.363 . S
C908 C909 1.363 . S
C908 C913 1.379 . S
C908 N915 1.356 . S
C909 C908 1.363 . S
C909 C912 1.363 . S
N910 C912 1.356 . S
N910 H922 0.984 . S
N910 H923 0.985 . S
N911 C913 1.356 . S
N911 H916 0.984 . S
N911 H917 0.985 . S
C912 C906 1.379 . S
C912 C909 1.363 . S
C912 N910 1.356 . S
C913 C907 1.363 . S
C913 C908 1.379 . S
C913 N911 1.356 . S
N914 C906 1.356 . S
N914 H920 0.984 . S
N914 H921 0.984 . S
N915 C908 1.356 . S
N915 H918 0.984 . S
N915 H919 0.985 . S
H916 N911 0.984 . S
H917 N911 0.985 . S
H918 N915 0.984 . S
H919 N915 0.985 . S
H920 N914 0.984 . S
H921 N914 0.984 . S
H922 N910 0.984 . S
H923 N910 0.985 . S
C924 C925 1.363 . S
C924 C930 1.379 . S
C924 N932 1.356 . S
C925 C924 1.363 . S
C925 C931 1.363 1_655 S
C926 C927 1.363 1_455 S
C926 C931 1.379 . S
C926 N933 1.356 . S
C927 C926 1.363 1_655 S
C927 C930 1.363 . S
N928 C930 1.356 . S
N928 H940 0.984 . S
N928 H941 0.985 . S
N929 C931 1.356 . S
N929 H934 0.984 . S
N929 H935 0.985 . S
C930 C924 1.379 . S
C930 C927 1.363 . S
C930 N928 1.356 . S
C931 C925 1.363 1_455 S
C931 C926 1.379 . S
C931 N929 1.356 . S
N932 C924 1.356 . S
N932 H938 0.984 . S
N932 H939 0.984 . S
N933 C926 1.356 . S
N933 H936 0.984 . S
N933 H937 0.985 . S
H934 N929 0.984 . S
H935 N929 0.985 . S
H936 N933 0.984 . S
H937 N933 0.985 . S
H938 N932 0.984 . S
H939 N932 0.984 . S
H940 N928 0.984 . S
H941 N928 0.985 . S
C942 C943 1.363 . S
C942 C948 1.379 1_554 S
C942 N950 1.356 . S
C943 C942 1.363 . S
C943 C949 1.363 1_565 S
C944 C945 1.363 1_554 S
C944 C949 1.379 . S
C944 N951 1.356 1_554 S
C945 C944 1.363 1_556 S
C945 C948 1.363 1_545 S
N946 C948 1.356 . S
N946 H958 0.984 . S
N946 H959 0.985 1_565 S
N947 C949 1.356 . S
N947 H952 0.984 1_545 S
N947 H953 0.985 . S
C948 C942 1.379 1_556 S
C948 C945 1.363 1_565 S
C948 N946 1.356 . S
C949 C943 1.363 1_545 S
C949 C944 1.379 . S
C949 N947 1.356 . S
N950 C942 1.356 . S
N950 H956 0.984 1_554 S
N950 H957 0.984 . S
N951 C944 1.356 1_556 S
N951 H954 0.984 . S
N951 H955 0.985 1_556 S
H952 N947 0.984 1_565 S
H953 N947 0.985 . S
H954 N951 0.984 . S
H955 N951 0.985 1_554 S
H956 N950 0.984 1_556 S
H957 N950 0.984 . S
H958 N946 0.984 . S
H959 N946 0.985 1_545 S
C960 C961 1.363 . S
C960 C966 1.379 . S
C960 N968 1.356 . S
C961 C960 1.363 . S
C961 C967 1.363 . S
C962 C963 1.363 . S
C962 C967 1.379 . S
C962 N969 1.356 . S
C963 C962 1.363 . S
C963 C966 1.363 . S
N964 C966 1.356 . S
N964 H976 0.984 . S
N964 H977 0.985 . S
N965 C967 1.356 1_655 S
N965 H970 0.984 . S
N965 H971 0.985 . S
C966 C960 1.379 . S
C966 C963 1.363 . S
C966 N964 1.356 . S
C967 C961 1.363 . S
C967 C962 1.379 . S
C967 N965 1.356 1_455 S
N968 C960 1.356 . S
N968 H974 0.984 . S
N968 H975 0.984 . S
N969 C962 1.356 . S
N969 H972 0.984 . S
N969 H973 0.985 . S
H970 N965 0.984 . S
H971 N965 0.985 . S
H972 N969 0.984 . S
H973 N969 0.985 . S
H974 N968 0.984 . S
H975 N968 0.984 . S
H976 N964 0.984 . S
H977 N964 0.985 . S
C978 C979 1.363 1_565 S
C978 C984 1.379 . S
C978 N986 1.356 . S
C979 C978 1.363 1_545 S
C979 C985 1.363 . S
C980 C981 1.363 1_545 S
C980 C985 1.379 . S
C980 N987 1.356 . S
C981 C980 1.363 1_565 S
C981 C984 1.363 . S
N982 C984 1.356 . S
N982 H994 0.984 . S
N982 H995 0.985 . S
N983 C985 1.356 . S
N983 H988 0.984 . S
N983 H989 0.985 . S
C984 C978 1.379 . S
C984 C981 1.363 . S
C984 N982 1.356 . S
C985 C979 1.363 . S
C985 C980 1.379 . S
C985 N983 1.356 . S
N986 C978 1.356 . S
N986 H992 0.984 . S
N986 H993 0.984 1_565 S
N987 C980 1.356 . S
N987 H990 0.984 1_545 S
N987 H991 0.985 . S
H988 N983 0.984 . S
H989 N983 0.985 . S
H990 N987 0.984 1_565 S
H991 N987 0.985 . S
H992 N986 0.984 . S
H993 N986 0.984 1_545 S
H994 N982 0.984 . S
H995 N982 0.985 . S
C996 C997 1.363 . S
C996 C1002 1.379 . S
C996 N1004 1.356 . S
C997 C996 1.363 . S
C997 C1003 1.363 . S
C998 C999 1.363 . S
C998 C1003 1.379 . S
C998 N1005 1.356 . S
C999 C998 1.363 . S
C999 C1002 1.363 . S
N1000 C1002 1.356 . S
N1000 H1012 0.984 . S
N1000 H1013 0.985 . S
N1001 C1003 1.356 . S
N1001 H1006 0.984 . S
N1001 H1007 0.985 . S
C1002 C996 1.379 . S
C1002 C999 1.363 . S
C1002 N1000 1.356 . S
C1003 C997 1.363 . S
C1003 C998 1.379 . S
C1003 N1001 1.356 . S
N1004 C996 1.356 . S
N1004 H1010 0.984 . S
N1004 H1011 0.984 . S
N1005 C998 1.356 . S
N1005 H1008 0.984 . S
N1005 H1009 0.985 . S
H1006 N1001 0.984 . S
H1007 N1001 0.985 . S
H1008 N1005 0.984 . S
H1009 N1005 0.985 . S
H1010 N1004 0.984 . S
H1011 N1004 0.984 . S
H1012 N1000 0.984 . S
H1013 N1000 0.985 . S
C1014 C1015 1.363 . S
C1014 C1020 1.379 . S
C1014 N1022 1.356 . S
C1015 C1014 1.363 . S
C1015 C1021 1.363 . S
C1016 C1017 1.363 . S
C1016 C1021 1.379 . S
C1016 N1023 1.356 . S
C1017 C1016 1.363 . S
C1017 C1020 1.363 . S
N1018 C1020 1.356 . S
N1018 H1030 0.984 . S
N1018 H1031 0.985 1_655 S
N1019 C1021 1.356 . S
N1019 H1024 0.984 . S
N1019 H1025 0.985 . S
C1020 C1014 1.379 . S
C1020 C1017 1.363 . S
C1020 N1018 1.356 . S
C1021 C1015 1.363 . S
C1021 C1016 1.379 . S
C1021 N1019 1.356 . S
N1022 C1014 1.356 . S
N1022 H1028 0.984 . S
N1022 H1029 0.984 . S
N1023 C1016 1.356 . S
N1023 H1026 0.984 1_655 S
N1023 H1027 0.985 . S
H1024 N1019 0.984 . S
H1025 N1019 0.985 . S
H1026 N1023 0.984 1_455 S
H1027 N1023 0.985 . S
H1028 N1022 0.984 . S
H1029 N1022 0.984 . S
H1030 N1018 0.984 . S
H1031 N1018 0.985 1_455 S
C1032 C1033 1.363 . S
C1032 C1038 1.379 . S
C1032 N1040 1.356 . S
C1033 C1032 1.363 . S
C1033 C1039 1.363 1_565 S
C1034 C1035 1.363 . S
C1034 C1039 1.379 . S
C1034 N1041 1.356 . S
C1035 C1034 1.363 . S
C1035 C1038 1.363 1_545 S
N1036 C1038 1.356 . S
N1036 H1048 0.984 . S
N1036 H1049 0.985 1_565 S
N1037 C1039 1.356 . S
N1037 H1042 0.984 1_545 S
N1037 H1043 0.985 . S
C1038 C1032 1.379 . S
C1038 C1035 1.363 1_565 S
C1038 N1036 1.356 . S
C1039 C1033 1.363 1_545 S
C1039 C1034 1.379 . S
C1039 N1037 1.356 . S
N1040 C1032 1.356 . S
N1040 H1046 0.984 . S
N1040 H1047 0.984 . S
N1041 C1034 1.356 . S
N1041 H1044 0.984 . S
N1041 H1045 0.985 . S
H1042 N1037 0.984 1_565 S
H1043 N1037 0.985 . S
H1044 N1041 0.984 . S
H1045 N1041 0.985 . S
H1046 N1040 0.984 . S
H1047 N1040 0.984 . S
H1048 N1036 0.984 . S
H1049 N1036 0.985 1_545 S
C1050 C1051 1.363 . S
C1050 C1056 1.379 . S
C1050 N1058 1.356 . S
C1051 C1050 1.363 . S
C1051 C1057 1.363 . S
C1052 C1053 1.363 . S
C1052 C1057 1.379 . S
C1052 N1059 1.356 . S
C1053 C1052 1.363 . S
C1053 C1056 1.363 . S
N1054 C1056 1.356 . S
N1054 H1066 0.984 . S
N1054 H1067 0.985 . S
N1055 C1057 1.356 . S
N1055 H1060 0.984 . S
N1055 H1061 0.985 . S
C1056 C1050 1.379 . S
C1056 C1053 1.363 . S
C1056 N1054 1.356 . S
C1057 C1051 1.363 . S
C1057 C1052 1.379 . S
C1057 N1055 1.356 . S
N1058 C1050 1.356 . S
N1058 H1064 0.984 . S
N1058 H1065 0.984 . S
N1059 C1052 1.356 . S
N1059 H1062 0.984 . S
N1059 H1063 0.985 . S
H1060 N1055 0.984 . S
H1061 N1055 0.985 . S
H1062 N1059 0.984 . S
H1063 N1059 0.985 . S
H1064 N1058 0.984 . S
H1065 N1058 0.984 . S
H1066 N1054 0.984 . S
H1067 N1054 0.985 . S
C637 C463 1.923 . S
C639 C22 1.920 . S
C655 C75 2.157 . S
C657 C499 2.157 . S
C673 C145 1.922 . S
C675 C552 1.920 . S
C691 C181 1.920 . S
C693 C622 1.923 . S
C709 C340 2.157 . S
C711 C234 2.157 . S
C727 C304 1.922 . S
C729 C393 1.920 . S
C745 C197 2.192 . S
C747 C38 2.192 . S
C763 C250 2.122 . S
C765 C91 2.122 . S
C781 C294 1.328 . S
C783 C135 1.328 . S
C799 C356 2.122 . S
C801 C515 2.122 . S
C817 C409 2.192 . S
C819 C568 2.192 . S
C835 C453 1.327 . S
C837 C612 1.327 . S
C853 C29 2.045 . S
C855 C506 2.019 . S
C871 C82 2.019 1_455 S
C873 C559 2.045 . S
C889 C144 1.540 . S
C891 C621 1.540 . S
C907 C347 2.019 . S
C909 C188 2.045 . S
C925 C241 2.019 1_655 S
C927 C400 2.045 . S
C943 C462 1.540 . S
C945 C303 1.540 . S
C961 C605 1.832 1_455 S
C963 C39 1.835 . S
C979 C92 2.194 . S
C981 C357 2.194 . S
C997 C410 1.835 . S
C999 C128 1.832 . S
C1015 C198 1.835 . S
C1017 C446 1.832 1_655 S
C1033 C251 2.194 . S
C1035 C516 2.194 . S
C1051 C569 1.835 . S
C1053 C287 1.832 . S
