# Generated by pormake.
# Topology wip, (6)-cn, num edge types: 1
# Building blocks:
#     Node 0, Type 0, BuildingBlock: BETFAJ_clean_sbu_0, # of connection points: 6
#     Node 1, Type 0, BuildingBlock: BETFAJ_clean_sbu_0, # of connection points: 6
#     Node 2, Type 0, BuildingBlock: BETFAJ_clean_sbu_0, # of connection points: 6
#     Node 3, Type 0, BuildingBlock: BETFAJ_clean_sbu_0, # of connection points: 6
#     Node 4, Type 0, BuildingBlock: BETFAJ_clean_sbu_0, # of connection points: 6
#     Node 5, Type 0, BuildingBlock: BETFAJ_clean_sbu_0, # of connection points: 6
#     Node 6, Type 0, BuildingBlock: BETFAJ_clean_sbu_0, # of connection points: 6
#     Node 7, Type 0, BuildingBlock: BETFAJ_clean_sbu_0, # of connection points: 6
#     Node 8, Type 0, BuildingBlock: BETFAJ_clean_sbu_0, # of connection points: 6
#     Node 9, Type 0, BuildingBlock: BETFAJ_clean_sbu_0, # of connection points: 6
#     Node 10, Type 0, BuildingBlock: BETFAJ_clean_sbu_0, # of connection points: 6
#     Node 11, Type 0, BuildingBlock: BETFAJ_clean_sbu_0, # of connection points: 6
#     Node 12, Type 0, BuildingBlock: BETFAJ_clean_sbu_0, # of connection points: 6
#     Node 13, Type 0, BuildingBlock: BETFAJ_clean_sbu_0, # of connection points: 6
#     Node 14, Type 0, BuildingBlock: BETFAJ_clean_sbu_0, # of connection points: 6
#     Node 15, Type 0, BuildingBlock: BETFAJ_clean_sbu_0, # of connection points: 6
#     Node 16, Type 0, BuildingBlock: BETFAJ_clean_sbu_0, # of connection points: 6
#     Node 17, Type 0, BuildingBlock: BETFAJ_clean_sbu_0, # of connection points: 6
#     Node 18, Type 0, BuildingBlock: BETFAJ_clean_sbu_0, # of connection points: 6
#     Node 19, Type 0, BuildingBlock: BETFAJ_clean_sbu_0, # of connection points: 6
#     Node 20, Type 0, BuildingBlock: BETFAJ_clean_sbu_0, # of connection points: 6
#     Node 21, Type 0, BuildingBlock: BETFAJ_clean_sbu_0, # of connection points: 6
#     Node 22, Type 0, BuildingBlock: BETFAJ_clean_sbu_0, # of connection points: 6
#     Node 23, Type 0, BuildingBlock: BETFAJ_clean_sbu_0, # of connection points: 6
#     Node 24, Type 0, BuildingBlock: BETFAJ_clean_sbu_0, # of connection points: 6
#     Node 25, Type 0, BuildingBlock: BETFAJ_clean_sbu_0, # of connection points: 6
#     Node 26, Type 0, BuildingBlock: BETFAJ_clean_sbu_0, # of connection points: 6
#     Node 27, Type 0, BuildingBlock: BETFAJ_clean_sbu_0, # of connection points: 6
#     Node 28, Type 0, BuildingBlock: BETFAJ_clean_sbu_0, # of connection points: 6
#     Node 29, Type 0, BuildingBlock: BETFAJ_clean_sbu_0, # of connection points: 6
#     Node 30, Type 0, BuildingBlock: BETFAJ_clean_sbu_0, # of connection points: 6
#     Node 31, Type 0, BuildingBlock: BETFAJ_clean_sbu_0, # of connection points: 6
#     Edge 32, Type (0, 0), BuildingBlock: XUDNAN_clean_linker_2, # of connection points: 2
#     Edge 33, Type (0, 0), BuildingBlock: XUDNAN_clean_linker_2, # of connection points: 2
#     Edge 34, Type (0, 0), BuildingBlock: XUDNAN_clean_linker_2, # of connection points: 2
#     Edge 35, Type (0, 0), BuildingBlock: XUDNAN_clean_linker_2, # of connection points: 2
#     Edge 36, Type (0, 0), BuildingBlock: XUDNAN_clean_linker_2, # of connection points: 2
#     Edge 37, Type (0, 0), BuildingBlock: XUDNAN_clean_linker_2, # of connection points: 2
#     Edge 38, Type (0, 0), BuildingBlock: XUDNAN_clean_linker_2, # of connection points: 2
#     Edge 39, Type (0, 0), BuildingBlock: XUDNAN_clean_linker_2, # of connection points: 2
#     Edge 40, Type (0, 0), BuildingBlock: XUDNAN_clean_linker_2, # of connection points: 2
#     Edge 41, Type (0, 0), BuildingBlock: XUDNAN_clean_linker_2, # of connection points: 2
#     Edge 42, Type (0, 0), BuildingBlock: XUDNAN_clean_linker_2, # of connection points: 2
#     Edge 43, Type (0, 0), BuildingBlock: XUDNAN_clean_linker_2, # of connection points: 2
#     Edge 44, Type (0, 0), BuildingBlock: XUDNAN_clean_linker_2, # of connection points: 2
#     Edge 45, Type (0, 0), BuildingBlock: XUDNAN_clean_linker_2, # of connection points: 2
#     Edge 46, Type (0, 0), BuildingBlock: XUDNAN_clean_linker_2, # of connection points: 2
#     Edge 47, Type (0, 0), BuildingBlock: XUDNAN_clean_linker_2, # of connection points: 2
#     Edge 48, Type (0, 0), BuildingBlock: XUDNAN_clean_linker_2, # of connection points: 2
#     Edge 49, Type (0, 0), BuildingBlock: XUDNAN_clean_linker_2, # of connection points: 2
#     Edge 50, Type (0, 0), BuildingBlock: XUDNAN_clean_linker_2, # of connection points: 2
#     Edge 51, Type (0, 0), BuildingBlock: XUDNAN_clean_linker_2, # of connection points: 2
#     Edge 52, Type (0, 0), BuildingBlock: XUDNAN_clean_linker_2, # of connection points: 2
#     Edge 53, Type (0, 0), BuildingBlock: XUDNAN_clean_linker_2, # of connection points: 2
#     Edge 54, Type (0, 0), BuildingBlock: XUDNAN_clean_linker_2, # of connection points: 2
#     Edge 55, Type (0, 0), BuildingBlock: XUDNAN_clean_linker_2, # of connection points: 2
#     Edge 56, Type (0, 0), BuildingBlock: XUDNAN_clean_linker_2, # of connection points: 2
#     Edge 57, Type (0, 0), BuildingBlock: XUDNAN_clean_linker_2, # of connection points: 2
#     Edge 58, Type (0, 0), BuildingBlock: XUDNAN_clean_linker_2, # of connection points: 2
#     Edge 59, Type (0, 0), BuildingBlock: XUDNAN_clean_linker_2, # of connection points: 2
#     Edge 60, Type (0, 0), BuildingBlock: XUDNAN_clean_linker_2, # of connection points: 2
#     Edge 61, Type (0, 0), BuildingBlock: XUDNAN_clean_linker_2, # of connection points: 2
#     Edge 62, Type (0, 0), BuildingBlock: XUDNAN_clean_linker_2, # of connection points: 2
#     Edge 63, Type (0, 0), BuildingBlock: XUDNAN_clean_linker_2, # of connection points: 2
#     Edge 64, Type (0, 0), BuildingBlock: XUDNAN_clean_linker_2, # of connection points: 2
#     Edge 65, Type (0, 0), BuildingBlock: XUDNAN_clean_linker_2, # of connection points: 2
#     Edge 66, Type (0, 0), BuildingBlock: XUDNAN_clean_linker_2, # of connection points: 2
#     Edge 67, Type (0, 0), BuildingBlock: XUDNAN_clean_linker_2, # of connection points: 2
#     Edge 68, Type (0, 0), BuildingBlock: XUDNAN_clean_linker_2, # of connection points: 2
#     Edge 69, Type (0, 0), BuildingBlock: XUDNAN_clean_linker_2, # of connection points: 2
#     Edge 70, Type (0, 0), BuildingBlock: XUDNAN_clean_linker_2, # of connection points: 2
#     Edge 71, Type (0, 0), BuildingBlock: XUDNAN_clean_linker_2, # of connection points: 2
#     Edge 72, Type (0, 0), BuildingBlock: XUDNAN_clean_linker_2, # of connection points: 2
#     Edge 73, Type (0, 0), BuildingBlock: XUDNAN_clean_linker_2, # of connection points: 2
#     Edge 74, Type (0, 0), BuildingBlock: XUDNAN_clean_linker_2, # of connection points: 2
#     Edge 75, Type (0, 0), BuildingBlock: XUDNAN_clean_linker_2, # of connection points: 2
#     Edge 76, Type (0, 0), BuildingBlock: XUDNAN_clean_linker_2, # of connection points: 2
#     Edge 77, Type (0, 0), BuildingBlock: XUDNAN_clean_linker_2, # of connection points: 2
#     Edge 78, Type (0, 0), BuildingBlock: XUDNAN_clean_linker_2, # of connection points: 2
#     Edge 79, Type (0, 0), BuildingBlock: XUDNAN_clean_linker_2, # of connection points: 2
#     Edge 80, Type (0, 0), BuildingBlock: XUDNAN_clean_linker_2, # of connection points: 2
#     Edge 81, Type (0, 0), BuildingBlock: XUDNAN_clean_linker_2, # of connection points: 2
#     Edge 82, Type (0, 0), BuildingBlock: XUDNAN_clean_linker_2, # of connection points: 2
#     Edge 83, Type (0, 0), BuildingBlock: XUDNAN_clean_linker_2, # of connection points: 2
#     Edge 84, Type (0, 0), BuildingBlock: XUDNAN_clean_linker_2, # of connection points: 2
#     Edge 85, Type (0, 0), BuildingBlock: XUDNAN_clean_linker_2, # of connection points: 2
#     Edge 86, Type (0, 0), BuildingBlock: XUDNAN_clean_linker_2, # of connection points: 2
#     Edge 87, Type (0, 0), BuildingBlock: XUDNAN_clean_linker_2, # of connection points: 2
#     Edge 88, Type (0, 0), BuildingBlock: XUDNAN_clean_linker_2, # of connection points: 2
#     Edge 89, Type (0, 0), BuildingBlock: XUDNAN_clean_linker_2, # of connection points: 2
#     Edge 90, Type (0, 0), BuildingBlock: XUDNAN_clean_linker_2, # of connection points: 2
#     Edge 91, Type (0, 0), BuildingBlock: XUDNAN_clean_linker_2, # of connection points: 2
#     Edge 92, Type (0, 0), BuildingBlock: XUDNAN_clean_linker_2, # of connection points: 2
#     Edge 93, Type (0, 0), BuildingBlock: XUDNAN_clean_linker_2, # of connection points: 2
#     Edge 94, Type (0, 0), BuildingBlock: XUDNAN_clean_linker_2, # of connection points: 2
#     Edge 95, Type (0, 0), BuildingBlock: XUDNAN_clean_linker_2, # of connection points: 2
#     Edge 96, Type (0, 0), BuildingBlock: XUDNAN_clean_linker_2, # of connection points: 2
#     Edge 97, Type (0, 0), BuildingBlock: XUDNAN_clean_linker_2, # of connection points: 2
#     Edge 98, Type (0, 0), BuildingBlock: XUDNAN_clean_linker_2, # of connection points: 2
#     Edge 99, Type (0, 0), BuildingBlock: XUDNAN_clean_linker_2, # of connection points: 2
#     Edge 100, Type (0, 0), BuildingBlock: XUDNAN_clean_linker_2, # of connection points: 2
#     Edge 101, Type (0, 0), BuildingBlock: XUDNAN_clean_linker_2, # of connection points: 2
#     Edge 102, Type (0, 0), BuildingBlock: XUDNAN_clean_linker_2, # of connection points: 2
#     Edge 103, Type (0, 0), BuildingBlock: XUDNAN_clean_linker_2, # of connection points: 2
#     Edge 104, Type (0, 0), BuildingBlock: XUDNAN_clean_linker_2, # of connection points: 2
#     Edge 105, Type (0, 0), BuildingBlock: XUDNAN_clean_linker_2, # of connection points: 2
#     Edge 106, Type (0, 0), BuildingBlock: XUDNAN_clean_linker_2, # of connection points: 2
#     Edge 107, Type (0, 0), BuildingBlock: XUDNAN_clean_linker_2, # of connection points: 2
#     Edge 108, Type (0, 0), BuildingBlock: XUDNAN_clean_linker_2, # of connection points: 2
#     Edge 109, Type (0, 0), BuildingBlock: XUDNAN_clean_linker_2, # of connection points: 2
#     Edge 110, Type (0, 0), BuildingBlock: XUDNAN_clean_linker_2, # of connection points: 2
#     Edge 111, Type (0, 0), BuildingBlock: XUDNAN_clean_linker_2, # of connection points: 2
#     Edge 112, Type (0, 0), BuildingBlock: XUDNAN_clean_linker_2, # of connection points: 2
#     Edge 113, Type (0, 0), BuildingBlock: XUDNAN_clean_linker_2, # of connection points: 2
#     Edge 114, Type (0, 0), BuildingBlock: XUDNAN_clean_linker_2, # of connection points: 2
#     Edge 115, Type (0, 0), BuildingBlock: XUDNAN_clean_linker_2, # of connection points: 2
#     Edge 116, Type (0, 0), BuildingBlock: XUDNAN_clean_linker_2, # of connection points: 2
#     Edge 117, Type (0, 0), BuildingBlock: XUDNAN_clean_linker_2, # of connection points: 2
#     Edge 118, Type (0, 0), BuildingBlock: XUDNAN_clean_linker_2, # of connection points: 2
#     Edge 119, Type (0, 0), BuildingBlock: XUDNAN_clean_linker_2, # of connection points: 2
#     Edge 120, Type (0, 0), BuildingBlock: XUDNAN_clean_linker_2, # of connection points: 2
#     Edge 121, Type (0, 0), BuildingBlock: XUDNAN_clean_linker_2, # of connection points: 2
#     Edge 122, Type (0, 0), BuildingBlock: XUDNAN_clean_linker_2, # of connection points: 2
#     Edge 123, Type (0, 0), BuildingBlock: XUDNAN_clean_linker_2, # of connection points: 2
#     Edge 124, Type (0, 0), BuildingBlock: XUDNAN_clean_linker_2, # of connection points: 2
#     Edge 125, Type (0, 0), BuildingBlock: XUDNAN_clean_linker_2, # of connection points: 2
#     Edge 126, Type (0, 0), BuildingBlock: XUDNAN_clean_linker_2, # of connection points: 2
#     Edge 127, Type (0, 0), BuildingBlock: XUDNAN_clean_linker_2, # of connection points: 2
# Relax obj value: 0.347
# Max RMSD: 0.295
# Mean RMSD: 0.231
data_MOF--net-wip--node1-BETFAJ_clean_sbu_0--edge1-XUDNAN_clean_linker_2
_symmetry_space_group_name_H-M    P1
_symmetry_Int_Tables_number       1
_symmetry_cell_setting            triclinic
loop_
_symmetry_equiv_pos_as_xyz
'x, y, z'
_cell_length_a     66.047735
_cell_length_b     62.390662
_cell_length_c     35.435074
_cell_angle_alpha  94.328063
_cell_angle_beta   85.936875
_cell_angle_gamma 89.206686
loop_
_atom_site_label
_atom_site_type_symbol
_atom_site_fract_x
_atom_site_fract_y
_atom_site_fract_z
_atom_type_partial_charge
Sm0 Sm 0.05346 0.39977 0.11274 0.0
Sm1 Sm 0.08022 0.43094 0.07158 0.0
C2 C 0.03709 0.37372 0.1619 0.0
C3 C 0.03534 0.3726 0.20371 0.0
C4 C 0.05006 0.36162 0.22211 0.0
C5 C 0.04785 0.36001 0.26139 0.0
C6 C 0.03085 0.36929 0.28315 0.0
C7 C 0.01631 0.38051 0.2648 0.0
C8 C 0.01848 0.38207 0.22558 0.0
C9 C 0.0327 0.43623 0.09657 0.0
C10 C 0.07761 0.4379 0.1622 0.0
C11 C 0.09612 0.45698 1.02103 0.0
C12 C 0.09301 0.46488 0.98273 0.0
C13 C 0.08969 0.45068 0.95102 0.0
C14 C 0.08879 0.45822 0.91463 0.0
C15 C 0.09113 0.48023 0.90862 0.0
C16 C 0.0937 0.49448 0.94068 0.0
C17 C 0.0947 0.48691 0.97705 0.0
C18 C 0.10116 0.39875 0.10458 0.0
C19 C 0.04935 0.39794 0.02437 0.0
O20 O 0.05494 0.37013 0.14396 0.0
O21 O 0.0271 0.38934 0.14861 0.0
O22 O 0.05049 0.43569 0.10743 0.0
O23 O 0.02612 0.41681 0.09129 0.0
O24 O 0.06871 0.41902 0.16049 0.0
O25 O 0.0818 0.44828 0.13135 0.0
O26 O 0.08341 0.46367 0.04974 0.0
O27 O 0.10183 0.43687 0.02245 0.0
O28 O 0.08531 0.39628 0.08629 0.0
O29 O 0.10766 0.41814 0.10155 0.0
O30 O 0.05852 0.41665 0.02713 0.0
O31 O 0.04888 0.3854 0.05276 0.0
H32 H 0.06318 0.35407 0.20616 0.0
H33 H 0.05944 0.35142 0.27469 0.0
H34 H 0.00289 0.38756 0.28056 0.0
H35 H 0.00675 0.39047 0.21234 0.0
H36 H 0.08815 0.43364 0.95415 0.0
H37 H 0.08638 0.44669 0.89104 0.0
H38 H 0.09568 0.51147 0.9375 0.0
H39 H 0.09732 0.4983 1.00074 0.0
Sm40 Sm 0.82609 0.80792 0.38437 0.0
Sm41 Sm 0.80588 0.83841 0.33225 0.0
C42 C 0.84406 0.79036 0.4399 0.0
C43 C 0.84099 0.78809 0.48152 0.0
C44 C 0.84607 0.80468 0.50813 0.0
C45 C 0.84423 0.8019 0.54712 0.0
C46 C 0.83728 0.78244 0.56074 0.0
C47 C 0.83206 0.76593 0.53405 0.0
C48 C 0.83395 0.7687 0.49503 0.0
C49 C 0.78909 0.79408 0.36143 0.0
C50 C 0.79379 0.84668 0.42191 0.0
C51 C 0.7862 0.85691 0.27953 0.0
C52 C 0.77987 0.85597 0.23981 0.0
C53 C 0.7727 0.83711 0.22123 0.0
C54 C 0.7651 0.83749 0.18505 0.0
C55 C 0.76445 0.85674 0.16652 0.0
C56 C 0.77187 0.87545 0.18528 0.0
C57 C 0.77946 0.87504 0.22122 0.0
C58 C 0.84039 0.85304 0.3653 0.0
C59 C 0.83374 0.79637 0.29565 0.0
O60 O 0.84838 0.80936 0.42869 0.0
O61 O 0.83191 0.77989 0.41782 0.0
O62 O 0.79366 0.81327 0.37032 0.0
O63 O 0.80506 0.78177 0.36202 0.0
O64 O 0.80904 0.83335 0.42669 0.0
O65 O 0.78793 0.84994 0.38786 0.0
O66 O 0.77777 0.8438 0.3029 0.0
O67 O 0.80519 0.86072 0.28562 0.0
O68 O 0.83778 0.83437 0.35042 0.0
O69 O 0.82483 0.86531 0.36055 0.0
O70 O 0.81824 0.80958 0.29242 0.0
O71 O 0.8424 0.79527 0.32794 0.0
H72 H 0.85177 0.81977 0.49888 0.0
H73 H 0.84874 0.81491 0.56654 0.0
H74 H 0.82638 0.75084 0.54325 0.0
H75 H 0.83004 0.75552 0.47536 0.0
H76 H 0.77274 0.82214 0.23483 0.0
H77 H 0.75979 0.82267 0.17156 0.0
H78 H 0.77137 0.8907 0.17267 0.0
H79 H 0.7846 0.88987 0.23498 0.0
Sm80 Sm 0.43418 0.58313 0.66635 0.0
Sm81 Sm 0.40799 0.5552 0.618 0.0
C82 C 0.45172 0.60576 0.72148 0.0
C83 C 0.455 0.60438 0.762 0.0
C84 C 0.44191 0.59298 0.78594 0.0
C85 C 0.44688 0.58975 0.82303 0.0
C86 C 0.46525 0.59739 0.83617 0.0
C87 C 0.47807 0.60908 0.81234 0.0
C88 C 0.47292 0.61265 0.77572 0.0
C89 C 0.45562 0.54864 0.62914 0.0
C90 C 0.41022 0.54164 0.70199 0.0
C91 C 0.39153 0.53272 0.56051 0.0
C92 C 0.39322 0.52473 0.51909 0.0
C93 C 0.37537 0.51955 0.50135 0.0
C94 C 0.3759 0.51171 0.46297 0.0
C95 C 0.39436 0.50875 0.44031 0.0
C96 C 0.4124 0.51375 0.45826 0.0
C97 C 0.41184 0.52165 0.49703 0.0
C98 C 0.38545 0.5825 0.67316 0.0
C99 C 0.44051 0.58814 0.57736 0.0
O100 O 0.43343 0.61002 0.71193 0.0
O101 O 0.46101 0.5909 0.69863 0.0
O102 O 0.43769 0.54798 0.64409 0.0
O103 O 0.4616 0.56833 0.63056 0.0
O104 O 0.41873 0.56056 0.70811 0.0
O105 O 0.407 0.5335 0.66744 0.0
O106 O 0.4033 0.52417 0.58386 0.0
O107 O 0.3878 0.55322 0.5696 0.0
O108 O 0.40151 0.58797 0.65381 0.0
O109 O 0.37982 0.56403 0.65851 0.0
O110 O 0.43092 0.56982 0.57541 0.0
O111 O 0.44037 0.59987 0.61017 0.0
H112 H 0.42813 0.58617 0.77572 0.0
H113 H 0.43684 0.58054 0.84082 0.0
H114 H 0.49231 0.61508 0.82183 0.0
H115 H 0.48335 0.62123 0.75757 0.0
H116 H 0.36079 0.52148 0.51741 0.0
H117 H 0.36163 0.50771 0.45119 0.0
H118 H 0.42697 0.51193 0.4422 0.0
H119 H 0.42594 0.52542 0.50966 0.0
Sm120 Sm 0.69528 0.19383 0.85693 0.0
Sm121 Sm 0.71096 0.15003 0.88097 0.0
C122 C 0.68867 0.2297 0.82362 0.0
C123 C 0.6887 0.23549 0.78423 0.0
C124 C 0.68532 0.2569 0.77661 0.0
C125 C 0.68394 0.26227 0.73924 0.0
C126 C 0.68588 0.24626 0.70894 0.0
C127 C 0.68986 0.2249 0.71674 0.0
C128 C 0.69122 0.21956 0.75406 0.0
C129 C 0.66595 0.16459 0.87383 0.0
C130 C 0.71667 0.15711 0.79219 0.0
C131 C 0.71676 0.11465 0.91551 0.0
C132 C 0.72626 0.1125 0.95127 0.0
C133 C 0.73064 0.09227 0.96376 0.0
C134 C 0.74043 0.09075 0.99733 0.0
C135 C 0.74574 0.10946 1.01884 0.0
C136 C 0.74135 0.12964 1.00599 0.0
C137 C 0.73187 0.13112 0.9724 0.0
C138 C 0.73999 0.18095 0.87453 0.0
C139 C 0.69554 0.18993 0.94783 0.0
O140 O 0.70627 0.22445 0.83528 0.0
O141 O 0.67425 0.21685 0.83426 0.0
O142 O 0.68275 0.16005 0.85522 0.0
O143 O 0.66357 0.18525 0.87992 0.0
O144 O 0.71294 0.17765 0.80284 0.0
O145 O 0.71311 0.14206 0.81611 0.0
O146 O 0.6994 0.12527 0.91855 0.0
O147 O 0.72908 0.12056 0.88786 0.0
O148 O 0.72184 0.18361 0.88707 0.0
O149 O 0.7441 0.16056 0.86835 0.0
O150 O 0.69926 0.16909 0.93834 0.0
O151 O 0.69541 0.20394 0.92141 0.0
H152 H 0.68331 0.26938 0.79961 0.0
H153 H 0.68071 0.27884 0.73421 0.0
H154 H 0.69175 0.21226 0.694 0.0
H155 H 0.69385 0.20294 0.75941 0.0
H156 H 0.7266 0.07774 0.94754 0.0
H157 H 0.74359 0.07501 1.00675 0.0
H158 H 0.74554 0.1443 1.02166 0.0
H159 H 0.72909 0.14686 0.96269 0.0
Sm160 Sm 0.04974 0.58327 0.62768 0.0
Sm161 Sm 0.0742 0.55102 0.57185 0.0
C162 C 0.02166 0.60485 0.67303 0.0
C163 C 0.0117 0.60278 0.71108 0.0
C164 C 0.01798 0.58686 0.73397 0.0
C165 C 0.0087 0.58547 0.7705 0.0
C166 C 0.9929 0.59992 0.78467 0.0
C167 C 0.98658 0.61566 0.76133 0.0
C168 C 0.99591 0.61706 0.72493 0.0
C169 C 0.0845 0.59901 0.59198 0.0
C170 C 0.07905 0.54961 0.66589 0.0
C171 C 0.1027 0.53056 0.52599 0.0
C172 C 0.10632 0.52631 0.48472 0.0
C173 C 0.12208 0.51216 0.47027 0.0
C174 C 0.12297 0.50401 0.43238 0.0
C175 C 0.10802 0.50981 0.40845 0.0
C176 C 0.09333 0.52554 0.42208 0.0
C177 C 0.09245 0.53371 0.4601 0.0
C178 C 0.03836 0.5356 0.59963 0.0
C179 C 0.03814 0.57817 0.53711 0.0
O180 O 0.01735 0.59023 0.64646 0.0
O181 O 0.04095 0.60954 0.67175 0.0
O182 O 0.07197 0.58665 0.57755 0.0
O183 O 0.07832 0.6049 0.62691 0.0
O184 O 0.06332 0.56301 0.67181 0.0
O185 O 0.08726 0.54464 0.63072 0.0
O186 O 0.10452 0.55041 0.53996 0.0
O187 O 0.08685 0.52113 0.54101 0.0
O188 O 0.05022 0.54719 0.61832 0.0
O189 O 0.04572 0.53143 0.56473 0.0
O190 O 0.05419 0.56528 0.52863 0.0
O191 O 0.03309 0.58615 0.57237 0.0
H192 H 0.03011 0.5756 0.72366 0.0
H193 H 0.01378 0.57303 0.78755 0.0
H194 H 0.97467 0.62721 0.77148 0.0
H195 H 0.99089 0.62947 0.7077 0.0
H196 H 0.13291 0.50632 0.48885 0.0
H197 H 0.13452 0.492 0.42246 0.0
H198 H 0.08155 0.53016 0.40434 0.0
H199 H 0.08016 0.54467 0.47086 0.0
Sm200 Sm 0.65785 0.81212 0.89142 0.0
Sm201 Sm 0.68919 0.83446 0.84115 0.0
C202 C 0.63782 0.79355 0.94731 0.0
C203 C 0.64201 0.7879 0.98612 0.0
C204 C 0.64078 0.76646 0.99566 0.0
C205 C 0.64455 0.76098 0.03227 0.0
C206 C 0.64965 0.77683 0.06024 0.0
C207 C 0.65073 0.79828 0.05063 0.0
C208 C 0.64707 0.80375 1.01409 0.0
C209 C 0.6402 0.83893 0.84332 0.0
C210 C 0.69026 0.84551 0.93147 0.0
C211 C 0.71068 0.85543 0.79045 0.0
C212 C 0.71301 0.8604 0.75069 0.0
C213 C 0.70194 0.84964 0.72293 0.0
C214 C 0.70675 0.85237 0.68447 0.0
C215 C 0.72288 0.86558 0.67357 0.0
C216 C 0.73335 0.87689 0.7016 0.0
C217 C 0.72838 0.87438 0.73988 0.0
C218 C 0.7055 0.80276 0.88052 0.0
C219 C 0.66302 0.79449 0.80396 0.0
O220 O 0.64779 0.78258 0.91872 0.0
O221 O 0.63595 0.81404 0.94202 0.0
O222 O 0.65641 0.84329 0.85986 0.0
O223 O 0.63204 0.82209 0.8568 0.0
O224 O 0.67823 0.82897 0.93461 0.0
O225 O 0.6941 0.85356 0.89827 0.0
O226 O 0.69546 0.86438 0.812 0.0
O227 O 0.71433 0.83544 0.79696 0.0
O228 O 0.68876 0.8019 0.86551 0.0
O229 O 0.71513 0.8199 0.87222 0.0
O230 O 0.67246 0.81266 0.7983 0.0
O231 O 0.65845 0.78833 0.83843 0.0
H232 H 0.63691 0.75391 0.97472 0.0
H233 H 0.64373 0.74428 0.03853 0.0
H234 H 0.65407 0.81097 0.07164 0.0
H235 H 0.64811 0.82045 1.00791 0.0
H236 H 0.69008 0.83867 0.73092 0.0
H237 H 0.69854 0.84342 0.66327 0.0
H238 H 0.74577 0.88723 0.69381 0.0
H239 H 0.73715 0.88267 0.76101 0.0
Sm240 Sm 0.44721 0.41421 0.11794 0.0
Sm241 Sm 0.41745 0.44407 0.07828 0.0
C242 C 0.47771 0.39715 0.15106 0.0
C243 C 0.48246 0.39683 0.19109 0.0
C244 C 0.46712 0.40111 0.22028 0.0
C245 C 0.47131 0.39987 0.25817 0.0
C246 C 0.49095 0.39443 0.26774 0.0
C247 C 0.5065 0.3911 0.23852 0.0
C248 C 0.50226 0.39224 0.20046 0.0
C249 C 0.41325 0.39505 0.08784 0.0
C250 C 0.41278 0.44197 0.1728 0.0
C251 C 0.38929 0.45791 0.03672 0.0
C252 C 0.38387 0.45616 0.99727 0.0
C253 C 0.36401 0.46136 0.98938 0.0
C254 C 0.35967 0.46508 0.95245 0.0
C255 C 0.37528 0.46413 0.92317 0.0
C256 C 0.39463 0.45646 0.93047 0.0
C257 C 0.39889 0.45245 0.96736 0.0
C258 C 0.44342 0.46604 0.12127 0.0
C259 C 0.45771 0.42135 0.02685 0.0
O260 O 0.47858 0.41592 0.13701 0.0
O261 O 0.4618 0.38631 0.14138 0.0
O262 O 0.42422 0.40922 0.07467 0.0
O263 O 0.42125 0.38881 0.11785 0.0
O264 O 0.43065 0.4321 0.17036 0.0
O265 O 0.40289 0.44456 0.14164 0.0
O266 O 0.3869 0.44085 0.05604 0.0
O267 O 0.406 0.46837 0.04292 0.0
O268 O 0.44756 0.44852 0.10174 0.0
O269 O 0.42581 0.47382 0.11453 0.0
O270 O 0.44226 0.43546 0.02836 0.0
O271 O 0.46212 0.41085 0.05656 0.0
H272 H 0.4518 0.40502 0.21373 0.0
H273 H 0.45907 0.40285 0.28002 0.0
H274 H 0.52176 0.38684 0.24497 0.0
H275 H 0.51434 0.38914 0.17834 0.0
H276 H 0.35219 0.46398 1.01214 0.0
H277 H 0.34452 0.47053 0.94745 0.0
H278 H 0.407 0.45558 0.90862 0.0
H279 H 0.41428 0.44817 0.97296 0.0
Sm280 Sm 0.8329 0.17831 0.50042 0.0
Sm281 Sm 0.80216 0.15306 0.45329 0.0
C282 C 0.84915 0.20067 0.55762 0.0
C283 C 0.84324 0.20881 0.59826 0.0
C284 C 0.83099 0.22748 0.60757 0.0
C285 C 0.8262 0.23525 0.64576 0.0
C286 C 0.83344 0.22461 0.67604 0.0
C287 C 0.84581 0.20605 0.66651 0.0
C288 C 0.85062 0.19835 0.62849 0.0
C289 C 0.85011 0.14692 0.44628 0.0
C290 C 0.79607 0.15011 0.54284 0.0
C291 C 0.78484 0.12885 0.40058 0.0
C292 C 0.78605 0.12497 0.35914 0.0
C293 C 0.80403 0.12816 0.33671 0.0
C294 C 0.80428 0.12526 0.29707 0.0
C295 C 0.78644 0.11964 0.2796 0.0
C296 C 0.76859 0.1164 0.30226 0.0
C297 C 0.76843 0.11898 0.34167 0.0
C298 C 0.7869 0.19194 0.48806 0.0
C299 C 0.83084 0.19056 0.41472 0.0
O300 O 0.84035 0.20962 0.53053 0.0
O301 O 0.85213 0.17987 0.55003 0.0
O302 O 0.83392 0.1451 0.46776 0.0
O303 O 0.8592 0.16433 0.45789 0.0
O304 O 0.80842 0.16654 0.54411 0.0
O305 O 0.79351 0.13896 0.51042 0.0
O306 O 0.80016 0.12217 0.41837 0.0
O307 O 0.77773 0.14773 0.41404 0.0
O308 O 0.80461 0.18767 0.47403 0.0
O309 O 0.7761 0.17475 0.48369 0.0
O310 O 0.82001 0.17291 0.40954 0.0
O311 O 0.83583 0.19808 0.44874 0.0
H312 H 0.82508 0.23619 0.58531 0.0
H313 H 0.81655 0.24945 0.65151 0.0
H314 H 0.85214 0.1975 0.68854 0.0
H315 H 0.86033 0.18418 0.62276 0.0
H316 H 0.8177 0.13317 0.34976 0.0
H317 H 0.81819 0.12795 0.28012 0.0
H318 H 0.75471 0.11186 0.28943 0.0
H319 H 0.75443 0.11657 0.35855 0.0
Sm320 Sm 0.91279 0.56178 0.29127 0.0
Sm321 Sm 0.94148 0.58691 0.23722 0.0
C322 C 0.89586 0.53959 0.3462 0.0
C323 C 0.89863 0.53068 0.38337 0.0
C324 C 0.91777 0.52498 0.39518 0.0
C325 C 0.91945 0.51649 0.43071 0.0
C326 C 0.90204 0.51366 0.4552 0.0
C327 C 0.88298 0.51916 0.44272 0.0
C328 C 0.88134 0.52755 0.40748 0.0
C329 C 0.89352 0.5935 0.25461 0.0
C330 C 0.95065 0.59033 0.32478 0.0
C331 C 0.95637 0.60983 0.18187 0.0
C332 C 0.95596 0.60904 0.14026 0.0
C333 C 0.94009 0.59918 0.12155 0.0
C334 C 0.94056 0.59768 0.08185 0.0
C335 C 0.95706 0.60567 0.06007 0.0
C336 C 0.97277 0.61575 0.07915 0.0
C337 C 0.9722 0.6174 0.1188 0.0
C338 C 0.95778 0.54826 0.25572 0.0
C339 C 0.91139 0.54873 0.20173 0.0
O340 O 0.90605 0.53061 0.31584 0.0
O341 O 0.8939 0.56052 0.34576 0.0
O342 O 0.91108 0.59486 0.26739 0.0
O343 O 0.88469 0.57711 0.26863 0.0
O344 O 0.93898 0.57343 0.327 0.0
O345 O 0.95139 0.60172 0.29469 0.0
O346 O 0.93934 0.61478 0.20198 0.0
O347 O 0.96643 0.59421 0.195 0.0
O348 O 0.93955 0.55232 0.25025 0.0
O349 O 0.96819 0.56567 0.25242 0.0
O350 O 0.92316 0.56544 0.19618 0.0
O351 O 0.90639 0.54236 0.23594 0.0
H352 H 0.93139 0.52722 0.37712 0.0
H353 H 0.93439 0.5126 0.43934 0.0
H354 H 0.86918 0.5169 0.46023 0.0
H355 H 0.8664 0.53161 0.399 0.0
H356 H 0.92739 0.59256 0.13756 0.0
H357 H 0.92815 0.58989 0.06827 0.0
H358 H 0.9855 0.62252 0.06348 0.0
H359 H 0.9846 0.62506 0.13273 0.0
Sm360 Sm 0.19211 0.15612 0.02699 0.0
Sm361 Sm 0.16876 0.1859 0.97741 0.0
C362 C 0.21393 0.13822 0.07727 0.0
C363 C 0.22175 0.13886 0.11572 0.0
C364 C 0.22393 0.15806 0.13849 0.0
C365 C 0.23233 0.15771 0.17402 0.0
C366 C 0.23869 0.13814 0.18752 0.0
C367 C 0.2365 0.11909 0.16424 0.0
C368 C 0.22813 0.11947 0.12907 0.0
C369 C 0.15947 0.13818 0.99155 0.0
C370 C 0.16186 0.19532 0.06689 0.0
C371 C 0.14922 0.20173 0.92223 0.0
C372 C 0.15432 0.20807 0.88293 0.0
C373 C 0.14783 0.19564 0.85138 0.0
C374 C 0.15202 0.20187 0.81439 0.0
C375 C 0.16281 0.22074 0.80793 0.0
C376 C 0.16937 0.23306 0.83959 0.0
C377 C 0.16521 0.22684 0.87648 0.0
C378 C 0.20521 0.2024 0.99906 0.0
C379 C 0.20441 0.15098 0.93698 0.0
O380 O 0.22134 0.1516 0.05333 0.0
O381 O 0.19472 0.13422 0.07366 0.0
O382 O 0.15999 0.15697 1.00755 0.0
O383 O 0.17572 0.12757 0.99842 0.0
O384 O 0.17842 0.18343 0.06849 0.0
O385 O 0.15241 0.196 0.03532 0.0
O386 O 0.14997 0.18122 0.92757 0.0
O387 O 0.15615 0.21364 0.95028 0.0
O388 O 0.20152 0.18298 0.99031 0.0
O389 O 0.18858 0.21367 0.99839 0.0
O390 O 0.18888 0.16419 0.93349 0.0
O391 O 0.21015 0.14638 0.9705 0.0
H392 H 0.2192 0.17328 0.12882 0.0
H393 H 0.23359 0.1727 0.1911 0.0
H394 H 0.24154 0.10375 0.17291 0.0
H395 H 0.22687 0.10447 0.11193 0.0
H396 H 0.13944 0.18108 0.85531 0.0
H397 H 0.14693 0.19179 0.79083 0.0
H398 H 0.17744 0.24785 0.83602 0.0
H399 H 0.17041 0.23691 0.89996 0.0
Sm400 Sm 0.58863 0.4335 0.75578 0.0
Sm401 Sm 0.55996 0.41012 0.70253 0.0
C402 C 0.60591 0.45318 0.81481 0.0
C403 C 0.60305 0.46204 0.85553 0.0
C404 C 0.58386 0.46531 0.87549 0.0
C405 C 0.58214 0.47379 0.91393 0.0
C406 C 0.59956 0.4791 0.9335 0.0
C407 C 0.61861 0.47604 0.91288 0.0
C408 C 0.62029 0.46765 0.8748 0.0
C409 C 0.60817 0.404 0.69992 0.0
C410 C 0.54974 0.40624 0.79163 0.0
C411 C 0.5439 0.38827 0.64512 0.0
C412 C 0.54398 0.38618 0.60332 0.0
C413 C 0.54548 0.40424 0.58185 0.0
C414 C 0.54108 0.40259 0.54359 0.0
C415 C 0.53507 0.38287 0.5263 0.0
C416 C 0.53529 0.36454 0.54713 0.0
C417 C 0.53964 0.36621 0.58525 0.0
C418 C 0.54282 0.44757 0.73871 0.0
C419 C 0.58969 0.44935 0.67219 0.0
O420 O 0.59734 0.46343 0.78896 0.0
O421 O 0.60619 0.43224 0.80738 0.0
O422 O 0.59107 0.40139 0.71829 0.0
O423 O 0.61651 0.42038 0.71711 0.0
O424 O 0.5622 0.42242 0.79542 0.0
O425 O 0.54889 0.39515 0.75839 0.0
O426 O 0.55971 0.3812 0.66106 0.0
O427 O 0.53607 0.40605 0.66221 0.0
O428 O 0.56119 0.44449 0.72685 0.0
O429 O 0.53318 0.42968 0.73356 0.0
O430 O 0.57872 0.43216 0.66388 0.0
O431 O 0.5936 0.4555 0.70746 0.0
H432 H 0.57023 0.4612 0.86149 0.0
H433 H 0.56719 0.47574 0.92852 0.0
H434 H 0.63244 0.48026 0.92612 0.0
H435 H 0.63526 0.46556 0.86027 0.0
H436 H 0.54893 0.41985 0.59516 0.0
H437 H 0.54108 0.417 0.52837 0.0
H438 H 0.53117 0.34902 0.5344 0.0
H439 H 0.53854 0.35206 0.60118 0.0
Sm440 Sm 0.28958 0.83903 0.48512 0.0
Sm441 Sm 0.31334 0.80245 0.51895 0.0
C442 C 0.28011 0.87091 0.44464 0.0
C443 C 0.27249 0.8706 0.407 0.0
C444 C 0.2776 0.88691 0.38325 0.0
C445 C 0.27226 0.88525 0.34575 0.0
C446 C 0.26181 0.86719 0.3317 0.0
C447 C 0.25634 0.85113 0.356 0.0
C448 C 0.26176 0.85275 0.39328 0.0
C449 C 0.266 0.80584 0.50851 0.0
C450 C 0.30389 0.7943 0.42915 0.0
C451 C 0.32889 0.77289 0.5582 0.0
C452 C 0.32525 0.76581 0.59634 0.0
C453 C 0.30658 0.77006 0.61719 0.0
C454 C 0.30398 0.76477 0.65479 0.0
C455 C 0.32005 0.7553 0.67194 0.0
C456 C 0.33868 0.75105 0.65074 0.0
C457 C 0.34123 0.75624 0.6132 0.0
C458 C 0.33689 0.83125 0.48098 0.0
C459 C 0.28587 0.83832 0.57626 0.0
O460 O 0.29867 0.86341 0.44511 0.0
O461 O 0.26766 0.86386 0.47111 0.0
O462 O 0.28381 0.80495 0.49402 0.0
O463 O 0.25861 0.8251 0.5062 0.0
O464 O 0.2973 0.81474 0.43112 0.0
O465 O 0.30915 0.78521 0.45989 0.0
O466 O 0.31469 0.76881 0.53475 0.0
O467 O 0.33618 0.79225 0.55687 0.0
O468 O 0.32124 0.83602 0.50311 0.0
O469 O 0.34157 0.81115 0.48274 0.0
O470 O 0.2932 0.81838 0.57043 0.0
O471 O 0.28685 0.85152 0.54859 0.0
H472 H 0.2862 0.90058 0.39337 0.0
H473 H 0.27689 0.89771 0.32745 0.0
H474 H 0.24806 0.83719 0.3461 0.0
H475 H 0.25797 0.83981 0.41114 0.0
H476 H 0.29414 0.77768 0.60457 0.0
H477 H 0.28942 0.76794 0.67035 0.0
H478 H 0.35144 0.74408 0.6634 0.0
H479 H 0.35581 0.75319 0.59755 0.0
Sm480 Sm 0.92428 0.43791 0.78389 0.0
Sm481 Sm 0.94695 0.40279 0.72788 0.0
C482 C 0.89782 0.46136 0.82957 0.0
C483 C 0.89695 0.46974 0.86929 0.0
C484 C 0.91359 0.46679 0.89092 0.0
C485 C 0.91229 0.47346 0.92949 0.0
C486 C 0.89431 0.48312 0.94701 0.0
C487 C 0.87769 0.48606 0.92511 0.0
C488 C 0.87902 0.47939 0.88647 0.0
C489 C 0.96353 0.44679 0.7624 0.0
C490 C 0.95865 0.4071 0.81581 0.0
C491 C 0.96595 0.37762 0.67272 0.0
C492 C 0.97519 0.37768 0.63357 0.0
C493 C 0.96571 0.38795 0.60534 0.0
C494 C 0.97392 0.38584 0.56762 0.0
C495 C 0.99172 0.37342 0.55752 0.0
C496 C 0.00158 0.36403 0.5863 0.0
C497 C 0.99336 0.3661 0.62384 0.0
C498 C 0.91368 0.38959 0.77139 0.0
C499 C 0.9212 0.44165 0.69184 0.0
O500 O 0.89726 0.44042 0.82447 0.0
O501 O 0.91137 0.46978 0.80653 0.0
O502 O 0.95095 0.43784 0.74174 0.0
O503 O 0.95493 0.45382 0.79525 0.0
O504 O 0.94064 0.41669 0.82399 0.0
O505 O 0.96617 0.40284 0.78026 0.0
O506 O 0.97546 0.38784 0.69968 0.0
O507 O 0.94612 0.37957 0.67763 0.0
O508 O 0.91501 0.40679 0.75517 0.0
O509 O 0.93018 0.37818 0.76376 0.0
O510 O 0.93485 0.42576 0.68542 0.0
O511 O 0.91364 0.44789 0.7267 0.0
H512 H 0.92745 0.45905 0.87806 0.0
H513 H 0.92525 0.47073 0.94573 0.0
H514 H 0.86373 0.49367 0.93777 0.0
H515 H 0.866 0.48157 0.87009 0.0
H516 H 0.9517 0.3971 0.6122 0.0
H517 H 0.96589 0.39324 0.54621 0.0
H518 H 0.01554 0.35478 0.57975 0.0
H519 H 0.00098 0.35818 0.64521 0.0
Sm520 Sm 0.30833 0.15847 0.51659 0.0
Sm521 Sm 0.33976 0.18426 0.47353 0.0
C522 C 0.2882 0.13494 0.56527 0.0
C523 C 0.28542 0.13394 0.60662 0.0
C524 C 0.28383 0.11393 0.62201 0.0
C525 C 0.27901 0.1128 0.66088 0.0
C526 C 0.27551 0.13172 0.68469 0.0
C527 C 0.27805 0.15173 0.66948 0.0
C528 C 0.2831 0.15285 0.6308 0.0
C529 C 0.29221 0.19286 0.48365 0.0
C530 C 0.33206 0.19841 0.56171 0.0
C531 C 0.35989 0.20575 0.42136 0.0
C532 C 0.35562 0.21273 0.38358 0.0
C533 C 0.33573 0.21308 0.37196 0.0
C534 C 0.33178 0.22002 0.3364 0.0
C535 C 0.34763 0.22686 0.31157 0.0
C536 C 0.36758 0.22619 0.32325 0.0
C537 C 0.37151 0.2192 0.35882 0.0
C538 C 0.35613 0.15391 0.5172 0.0
C539 C 0.30948 0.15121 0.4265 0.0
O540 O 0.30601 0.12919 0.54896 0.0
O541 O 0.28045 0.15187 0.55165 0.0
O542 O 0.3085 0.19275 0.5001 0.0
O543 O 0.28312 0.17463 0.4857 0.0
O544 O 0.3227 0.17983 0.56388 0.0
O545 O 0.33776 0.20592 0.5288 0.0
O546 O 0.34901 0.21509 0.45052 0.0
O547 O 0.36226 0.18502 0.42373 0.0
O548 O 0.34106 0.15113 0.49693 0.0
O549 O 0.3643 0.17224 0.51106 0.0
O550 O 0.31985 0.16916 0.42731 0.0
O551 O 0.30621 0.14094 0.45756 0.0
H552 H 0.28569 0.09918 0.60379 0.0
H553 H 0.2771 0.09719 0.67199 0.0
H554 H 0.27569 0.16653 0.68742 0.0
H555 H 0.28456 0.1685 0.61966 0.0
H556 H 0.3232 0.2081 0.39051 0.0
H557 H 0.31627 0.21994 0.32834 0.0
H558 H 0.38016 0.23155 0.30528 0.0
H559 H 0.38697 0.21907 0.36715 0.0
Sm560 Sm 0.57274 0.55176 0.29329 0.0
Sm561 Sm 0.54477 0.58081 0.25157 0.0
C562 C 0.60406 0.53598 0.32503 0.0
C563 C 0.60722 0.52993 0.36327 0.0
C564 C 0.62673 0.52998 0.3765 0.0
C565 C 0.62968 0.52351 0.4127 0.0
C566 C 0.61313 0.51667 0.43554 0.0
C567 C 0.59358 0.51719 0.4225 0.0
C568 C 0.59062 0.52392 0.38675 0.0
C569 C 0.53729 0.53392 0.27879 0.0
C570 C 0.53436 0.5766 0.34446 0.0
C571 C 0.5159 0.59893 0.21588 0.0
C572 C 0.50855 0.59467 0.17767 0.0
C573 C 0.51197 0.5745 0.15765 0.0
C574 C 0.50716 0.57123 0.11983 0.0
C575 C 0.49894 0.5881 0.10107 0.0
C576 C 0.49494 0.60809 0.12168 0.0
C577 C 0.49975 0.61133 0.15957 0.0
C578 C 0.57913 0.59988 0.28033 0.0
C579 C 0.5759 0.5487 0.19767 0.0
O580 O 0.60143 0.55657 0.32167 0.0
O581 O 0.59139 0.524 0.30639 0.0
O582 O 0.54753 0.54491 0.25587 0.0
O583 O 0.54674 0.52997 0.30859 0.0
O584 O 0.55133 0.56492 0.34545 0.0
O585 O 0.52855 0.58376 0.31243 0.0
O586 O 0.51226 0.58426 0.23999 0.0
O587 O 0.53436 0.60623 0.21642 0.0
O588 O 0.56752 0.58679 0.29496 0.0
O589 O 0.57153 0.60532 0.24951 0.0
O590 O 0.55891 0.56015 0.19951 0.0
O591 O 0.58533 0.5459 0.22905 0.0
H592 H 0.63966 0.53477 0.35874 0.0
H593 H 0.64486 0.52327 0.42242 0.0
H594 H 0.58057 0.5123 0.43997 0.0
H595 H 0.57539 0.52414 0.37721 0.0
H596 H 0.51885 0.56141 0.17095 0.0
H597 H 0.51017 0.55555 0.10511 0.0
H598 H 0.48887 0.62151 0.1081 0.0
H599 H 0.49719 0.62708 0.17439 0.0
Sm600 Sm 0.19501 0.84959 0.90992 0.0
Sm601 Sm 0.16862 0.81932 0.86849 0.0
C602 C 0.21074 0.87858 0.95746 0.0
C603 C 0.21239 0.88051 0.99834 0.0
C604 C 0.20154 0.86654 1.02098 0.0
C605 C 0.20649 0.86451 0.05803 0.0
C606 C 0.22218 0.87661 0.07291 0.0
C607 C 0.23203 0.8918 0.05124 0.0
C608 C 0.22724 0.89362 1.01384 0.0
C609 C 0.21673 0.8131 0.87965 0.0
C610 C 0.1748 0.80829 0.95304 0.0
C611 C 0.15187 0.7937 0.81645 0.0
C612 C 0.15631 0.78435 0.77666 0.0
C613 C 0.17521 0.77466 0.76369 0.0
C614 C 0.17879 0.76614 0.72574 0.0
C615 C 0.16363 0.76734 0.69991 0.0
C616 C 0.14471 0.77678 0.71328 0.0
C617 C 0.14111 0.7851 0.75104 0.0
C618 C 0.14644 0.84646 0.92392 0.0
C619 C 0.20003 0.84957 0.81971 0.0
O620 O 0.19254 0.88051 0.94575 0.0
O621 O 0.22101 0.86237 0.93995 0.0
O622 O 0.19863 0.81385 0.89345 0.0
O623 O 0.22338 0.83257 0.87893 0.0
O624 O 0.18292 0.82766 0.95681 0.0
O625 O 0.17042 0.79956 0.91954 0.0
O626 O 0.16261 0.78659 0.84279 0.0
O627 O 0.14811 0.81448 0.82132 0.0
O628 O 0.1615 0.85239 0.90231 0.0
O629 O 0.14113 0.82763 0.91047 0.0
O630 O 0.19089 0.83108 0.82143 0.0
O631 O 0.19996 0.86286 0.85052 0.0
H632 H 0.18985 0.85657 1.00952 0.0
H633 H 0.19854 0.85301 0.0747 0.0
H634 H 0.24424 0.9012 0.06238 0.0
H635 H 0.23586 0.90433 0.99644 0.0
H636 H 0.18728 0.77387 0.78271 0.0
H637 H 0.19358 0.75922 0.71633 0.0
H638 H 0.13262 0.77784 0.69434 0.0
H639 H 0.12639 0.7923 0.76021 0.0
Sm640 Sm 0.55532 0.9176 0.62701 0.0
Sm641 Sm 0.58562 0.93586 0.5692 0.0
C642 C 0.53625 0.90048 0.68604 0.0
C643 C 0.53605 0.90074 0.72794 0.0
C644 C 0.55391 0.89855 0.7468 0.0
C645 C 0.55296 0.89822 0.78647 0.0
C646 C 0.53417 0.90019 0.80816 0.0
C647 C 0.51643 0.90273 0.78906 0.0
C648 C 0.51738 0.90298 0.7495 0.0
C649 C 0.54241 0.95635 0.60369 0.0
C650 C 0.59121 0.95123 0.65531 0.0
C651 C 0.605 0.95254 0.50987 0.0
C652 C 0.60287 0.96189 0.47282 0.0
C653 C 0.58436 0.9626 0.45541 0.0
C654 C 0.58335 0.9714 0.41993 0.0
C655 C 0.60084 0.97952 0.40106 0.0
C656 C 0.61912 0.9791 0.4193 0.0
C657 C 0.62009 0.97043 0.45448 0.0
C658 C 0.60023 0.90185 0.60728 0.0
C659 C 0.54437 0.91184 0.54078 0.0
O660 O 0.55159 0.89111 0.6656 0.0
O661 O 0.5301 0.91804 0.67225 0.0
O662 O 0.56047 0.95138 0.60956 0.0
O663 O 0.53107 0.93962 0.60652 0.0
O664 O 0.57806 0.93619 0.66415 0.0
O665 O 0.59525 0.95642 0.62025 0.0
O666 O 0.59823 0.96397 0.54079 0.0
O667 O 0.60217 0.93188 0.51184 0.0
O668 O 0.58297 0.90321 0.59394 0.0
O669 O 0.61119 0.91769 0.59658 0.0
O670 O 0.55751 0.92732 0.53624 0.0
O671 O 0.54305 0.90173 0.57234 0.0
H672 H 0.56856 0.89698 0.73094 0.0
H673 H 0.56698 0.8965 0.80016 0.0
H674 H 0.50168 0.90397 0.80457 0.0
H675 H 0.50341 0.90466 0.73562 0.0
H676 H 0.57079 0.95621 0.46902 0.0
H677 H 0.56901 0.97134 0.40686 0.0
H678 H 0.63284 0.98555 0.40633 0.0
H679 H 0.63449 0.9703 0.46737 0.0
Sm680 Sm 0.3323 0.30104 0.87662 0.0
Sm681 Sm 0.30806 0.32971 0.82868 0.0
C682 C 0.35231 0.28457 0.9308 0.0
C683 C 0.34922 0.28073 0.97171 0.0
C684 C 0.34136 0.2968 0.99903 0.0
C685 C 0.33878 0.2927 0.0375 0.0
C686 C 0.34399 0.27243 0.04965 0.0
C687 C 0.35186 0.25645 1.0221 0.0
C688 C 0.35444 0.26056 0.98371 0.0
C689 C 0.30011 0.28047 0.84599 0.0
C690 C 0.29299 0.3309 0.91666 0.0
C691 C 0.28666 0.34809 0.77803 0.0
C692 C 0.28 0.34879 0.7387 0.0
C693 C 0.27715 0.33018 0.71472 0.0
C694 C 0.26917 0.3317 0.67901 0.0
C695 C 0.26378 0.35184 0.66643 0.0
C696 C 0.26679 0.37032 0.69076 0.0
C697 C 0.2748 0.36879 0.7261 0.0
C698 C 0.33939 0.34866 0.86711 0.0
C699 C 0.34213 0.29452 0.78747 0.0
O700 O 0.35398 0.30445 0.92189 0.0
O701 O 0.34172 0.27301 0.90735 0.0
O702 O 0.29985 0.29985 0.85956 0.0
O703 O 0.3183 0.27231 0.84577 0.0
O704 O 0.31007 0.32026 0.92091 0.0
O705 O 0.2874 0.33498 0.8829 0.0
O706 O 0.27979 0.33288 0.79868 0.0
O707 O 0.30512 0.35372 0.78516 0.0
O708 O 0.33992 0.33074 0.84825 0.0
O709 O 0.32182 0.35797 0.86497 0.0
O710 O 0.32482 0.30507 0.7853 0.0
O711 O 0.35077 0.29379 0.8199 0.0
H712 H 0.33726 0.31255 0.99074 0.0
H713 H 0.33293 0.30554 0.05777 0.0
H714 H 0.35576 0.24058 0.03008 0.0
H715 H 0.3605 0.2479 0.96326 0.0
H716 H 0.28091 0.31449 0.72369 0.0
H717 H 0.26734 0.31707 0.66122 0.0
H718 H 0.2625 0.38611 0.68298 0.0
H719 H 0.27652 0.38338 0.74413 0.0
Sm720 Sm 0.93978 0.09254 0.16685 0.0
Sm721 Sm 0.91333 0.06691 0.11479 0.0
C722 C 0.95447 0.11495 0.22511 0.0
C723 C 0.95211 0.11493 0.26666 0.0
C724 C 0.93727 0.10242 0.28419 0.0
C725 C 0.93727 0.09956 0.32297 0.0
C726 C 0.95208 0.10922 0.34502 0.0
C727 C 0.96628 0.12265 0.32747 0.0
C728 C 0.96636 0.12535 0.28863 0.0
C729 C 0.96153 0.05988 0.12538 0.0
C730 C 0.91696 0.04847 0.19536 0.0
C731 C 0.89597 0.04568 0.05735 0.0
C732 C 0.89785 0.03767 1.01618 0.0
C733 C 0.91661 0.03449 0.99471 0.0
C734 C 0.91745 0.02624 0.95621 0.0
C735 C 0.89955 0.02103 0.9381 0.0
C736 C 0.88093 0.02409 0.96015 0.0
C737 C 0.88012 0.03228 0.99829 0.0
C738 C 0.8917 0.0924 0.17441 0.0
C739 C 0.94775 0.09919 0.07715 0.0
O740 O 0.93893 0.12157 0.20781 0.0
O741 O 0.96322 0.09765 0.208 0.0
O742 O 0.94335 0.05864 0.13901 0.0
O743 O 0.96782 0.07938 0.13125 0.0
O744 O 0.92528 0.06717 0.20478 0.0
O745 O 0.91333 0.04265 0.15989 0.0
O746 O 0.90715 0.03642 0.08078 0.0
O747 O 0.89326 0.06636 0.06629 0.0
O748 O 0.90745 0.09803 0.15471 0.0
O749 O 0.8856 0.07465 0.15774 0.0
O750 O 0.9358 0.08264 0.07254 0.0
O751 O 0.9493 0.1089 0.11147 0.0
H752 H 0.92603 0.09444 0.26768 0.0
H753 H 0.92596 0.08933 0.33533 0.0
H754 H 0.97758 0.13086 0.34358 0.0
H755 H 0.97796 0.13505 0.27553 0.0
H756 H 0.93061 0.03841 1.00764 0.0
H757 H 0.9321 0.02429 0.94048 0.0
H758 H 0.86677 0.01992 0.94808 0.0
H759 H 0.86546 0.03425 1.01404 0.0
Sm760 Sm 0.181 0.69315 0.34654 0.0
Sm761 Sm 0.19889 0.65391 0.38029 0.0
C762 C 0.17037 0.72594 0.30902 0.0
C763 C 0.17421 0.73288 0.27087 0.0
C764 C 0.18344 0.71876 0.24182 0.0
C765 C 0.18461 0.72442 0.20445 0.0
C766 C 0.17663 0.74429 0.19585 0.0
C767 C 0.16822 0.75876 0.22533 0.0
C768 C 0.16699 0.75304 0.26266 0.0
C769 C 0.15277 0.66688 0.38016 0.0
C770 C 0.20517 0.65577 0.28917 0.0
C771 C 0.20557 0.62091 0.4204 0.0
C772 C 0.2181 0.61904 0.45265 0.0
C773 C 0.21035 0.60926 0.48479 0.0
C774 C 0.22118 0.60987 0.51734 0.0
C775 C 0.23995 0.62027 0.51812 0.0
C776 C 0.24795 0.62938 0.48534 0.0
C777 C 0.23708 0.62892 0.45304 0.0
C778 C 0.22747 0.68424 0.3632 0.0
C779 C 0.18615 0.69863 0.43744 0.0
O780 O 0.18572 0.72655 0.33048 0.0
O781 O 0.15978 0.70843 0.31099 0.0
O782 O 0.16853 0.66041 0.35957 0.0
O783 O 0.1504 0.68733 0.37776 0.0
O784 O 0.20026 0.6763 0.29593 0.0
O785 O 0.20185 0.6422 0.31594 0.0
O786 O 0.18956 0.63354 0.42715 0.0
O787 O 0.2154 0.62356 0.3878 0.0
O788 O 0.20934 0.68747 0.37563 0.0
O789 O 0.23153 0.66377 0.36208 0.0
O790 O 0.1914 0.67779 0.43505 0.0
O791 O 0.18336 0.70868 0.40659 0.0
H792 H 0.18908 0.7031 0.24779 0.0
H793 H 0.19138 0.71312 0.18223 0.0
H794 H 0.16182 0.77411 0.21933 0.0
H795 H 0.15975 0.76402 0.28489 0.0
H796 H 0.19561 0.60183 0.48516 0.0
H797 H 0.21448 0.60296 0.54231 0.0
H798 H 0.26247 0.63724 0.48483 0.0
H799 H 0.2433 0.63684 0.42875 0.0
Sm800 Sm 0.55498 0.08661 0.12557 0.0
Sm801 Sm 0.57876 0.05085 0.07204 0.0
C802 C 0.53482 0.11163 0.17992 0.0
C803 C 0.52709 0.11213 0.22005 0.0
C804 C 0.53073 0.09511 0.24268 0.0
C805 C 0.52462 0.09696 0.28159 0.0
C806 C 0.51519 0.11603 0.29842 0.0
C807 C 0.51116 0.13274 0.27538 0.0
C808 C 0.51697 0.13076 0.23658 0.0
C809 C 0.58669 0.10078 0.07941 0.0
C810 C 0.58393 0.05062 0.16257 0.0
C811 C 0.60082 0.02727 1.0189 0.0
C812 C 0.60466 0.02677 0.97732 0.0
C813 C 0.62402 0.03095 0.96078 0.0
C814 C 0.62792 0.0286 0.92129 0.0
C815 C 0.61251 0.0219 0.89782 0.0
C816 C 0.59304 0.01834 0.91461 0.0
C817 C 0.58914 0.02087 0.9537 0.0
C818 C 0.54624 0.03642 0.1131 0.0
C819 C 0.54289 0.08105 0.03829 0.0
O820 O 0.5258 0.09904 0.1553 0.0
O821 O 0.55457 0.1117 0.17334 0.0
O822 O 0.58666 0.08357 0.09605 0.0
O823 O 0.57036 0.11208 0.08965 0.0
O824 O 0.56819 0.06414 0.16762 0.0
O825 O 0.59312 0.04578 0.12843 0.0
O826 O 0.60866 0.04286 0.03971 0.0
O827 O 0.58241 0.02256 0.03126 0.0
O828 O 0.54697 0.05437 0.09911 0.0
O829 O 0.5623 0.02467 0.10298 0.0
O830 O 0.55995 0.06945 0.0309 0.0
O831 O 0.53593 0.08732 0.07346 0.0
H832 H 0.53879 0.08071 0.23059 0.0
H833 H 0.52806 0.08393 0.29878 0.0
H834 H 0.50384 0.14756 0.2876 0.0
H835 H 0.51408 0.14408 0.21965 0.0
H836 H 0.63623 0.03557 0.9784 0.0
H837 H 0.64304 0.03161 0.90922 0.0
H838 H 0.58089 0.01261 0.89775 0.0
H839 H 0.57402 0.01748 0.96533 0.0
Sm840 Sm 0.16808 0.30516 0.37933 0.0
Sm841 Sm 0.19478 0.33538 0.33692 0.0
C842 C 0.15129 0.28109 0.43125 0.0
C843 C 0.15561 0.27547 0.46996 0.0
C844 C 0.17541 0.27045 0.47916 0.0
C845 C 0.17912 0.26517 0.51588 0.0
C846 C 0.16318 0.26498 0.54458 0.0
C847 C 0.14342 0.27026 0.53521 0.0
C848 C 0.13971 0.27536 0.4984 0.0
C849 C 0.14679 0.32977 0.33206 0.0
C850 C 0.19213 0.3432 0.42804 0.0
C851 C 0.21223 0.36105 0.28863 0.0
C852 C 0.21409 0.3628 0.24759 0.0
C853 C 0.20127 0.35138 0.22365 0.0
C854 C 0.20557 0.35012 0.1843 0.0
C855 C 0.2229 0.35996 0.1687 0.0
C856 C 0.23522 0.37201 0.19272 0.0
C857 C 0.23079 0.37347 0.23189 0.0
C858 C 0.21642 0.30714 0.375 0.0
C859 C 0.17776 0.29142 0.29166 0.0
O860 O 0.16383 0.27341 0.40296 0.0
O861 O 0.14551 0.30099 0.42792 0.0
O862 O 0.16104 0.3368 0.35198 0.0
O863 O 0.14195 0.31077 0.34175 0.0
O864 O 0.1836 0.32427 0.427 0.0
O865 O 0.19482 0.35348 0.39672 0.0
O866 O 0.19449 0.36544 0.3067 0.0
O867 O 0.22107 0.34396 0.29952 0.0
O868 O 0.20101 0.30216 0.35714 0.0
O869 O 0.22146 0.32685 0.37082 0.0
O870 O 0.18436 0.31125 0.28966 0.0
O871 O 0.17341 0.28327 0.32455 0.0
H872 H 0.18805 0.27056 0.45795 0.0
H873 H 0.19451 0.26098 0.52155 0.0
H874 H 0.13077 0.27077 0.55644 0.0
H875 H 0.12434 0.27935 0.49218 0.0
H876 H 0.18842 0.34285 0.23542 0.0
H877 H 0.19593 0.34066 0.16624 0.0
H878 H 0.24861 0.37978 0.18121 0.0
H879 H 0.24096 0.38211 0.25005 0.0
Sm880 Sm 0.94866 0.92236 0.6136 0.0
Sm881 Sm 0.91999 0.95329 0.57733 0.0
C882 C 0.97854 0.90215 0.64352 0.0
C883 C 0.98846 0.90359 0.67963 0.0
C884 C 0.98339 0.92014 0.708 0.0
C885 C 0.99222 0.92055 0.74293 0.0
C886 C 0.00633 0.90445 0.75008 0.0
C887 C 0.01137 0.88802 0.7213 0.0
C888 C 0.00253 0.88762 0.68653 0.0
C889 C 0.91444 0.9037 0.58338 0.0
C890 C 0.91795 0.95294 0.67234 0.0
C891 C 0.88938 0.97186 0.54772 0.0
C892 C 0.88464 0.97366 0.50834 0.0
C893 C 0.89353 0.95918 0.47946 0.0
C894 C 0.89214 0.96304 0.44146 0.0
C895 C 0.88216 0.98167 0.43187 0.0
C896 C 0.87245 0.99562 0.46083 0.0
C897 C 0.87366 0.9916 0.49886 0.0
C898 C 0.95579 0.97005 0.59489 0.0
C899 C 0.95649 0.92902 0.52146 0.0
O900 O 0.98155 0.91793 0.62149 0.0
O901 O 0.95972 0.8958 0.64546 0.0
O902 O 0.92531 0.91797 0.57026 0.0
O903 O 0.92267 0.89718 0.61281 0.0
O904 O 0.9349 0.94123 0.66846 0.0
O905 O 0.90817 0.95712 0.64198 0.0
O906 O 0.88834 0.95258 0.56009 0.0
O907 O 0.90559 0.98217 0.5573 0.0
O908 O 0.94515 0.95823 0.6153 0.0
O909 O 0.9468 0.97531 0.56538 0.0
O910 O 0.93804 0.93796 0.52311 0.0
O911 O 0.96477 0.92368 0.55267 0.0
H912 H 0.97249 0.93261 0.70325 0.0
H913 H 0.98809 0.93355 0.76422 0.0
H914 H 0.02185 0.87513 0.72591 0.0
H915 H 0.0065 0.87461 0.66514 0.0
H916 H 0.90232 0.94539 0.48631 0.0
H917 H 0.89995 0.95219 0.41972 0.0
H918 H 0.86464 0.01007 0.45407 0.0
H919 H 0.86691 0.00305 0.52085 0.0
Sm920 Sm 0.32213 0.67478 0.99588 0.0
Sm921 Sm 0.29031 0.65166 0.95042 0.0
C922 C 0.34058 0.69525 0.05221 0.0
C923 C 0.33491 0.7041 0.09238 0.0
C924 C 0.32397 0.7237 0.10074 0.0
C925 C 0.31903 0.73185 0.13859 0.0
C926 C 0.32478 0.72063 0.16936 0.0
C927 C 0.3359 0.70117 0.16082 0.0
C928 C 0.34089 0.6931 0.12312 0.0
C929 C 0.33831 0.64389 0.93903 0.0
C930 C 0.28522 0.64761 0.04004 0.0
C931 C 0.27142 0.62906 0.89782 0.0
C932 C 0.27527 0.6242 0.8569 0.0
C933 C 0.29266 0.63197 0.83781 0.0
C934 C 0.29491 0.63003 0.79828 0.0
C935 C 0.2796 0.62066 0.77725 0.0
C936 C 0.26269 0.61193 0.79664 0.0
C937 C 0.26057 0.61369 0.83624 0.0
C938 C 0.27556 0.68993 0.98867 0.0
C939 C 0.31756 0.69034 0.91361 0.0
O940 O 0.33313 0.70501 0.02463 0.0
O941 O 0.34129 0.67426 0.04533 0.0
O942 O 0.32236 0.64203 0.96118 0.0
O943 O 0.34755 0.66118 0.95062 0.0
O944 O 0.2981 0.66358 0.04115 0.0
O945 O 0.28186 0.6371 1.0074 0.0
O946 O 0.28402 0.62043 0.91941 0.0
O947 O 0.26717 0.64924 0.9082 0.0
O948 O 0.29311 0.68587 0.97364 0.0
O949 O 0.26474 0.67282 0.98359 0.0
O950 O 0.30843 0.67175 0.90691 0.0
O951 O 0.32187 0.69739 0.94818 0.0
H952 H 0.31914 0.73279 0.07801 0.0
H953 H 0.31036 0.74677 0.14372 0.0
H954 H 0.34103 0.69215 0.18339 0.0
H955 H 0.34955 0.67816 0.11804 0.0
H956 H 0.3041 0.64027 0.85337 0.0
H957 H 0.30825 0.63662 0.78416 0.0
H958 H 0.25051 0.60487 0.78129 0.0
H959 H 0.24699 0.60776 0.85065 0.0
Sm960 Sm 0.41836 0.06776 0.7996 0.0
Sm961 Sm 0.44492 0.09395 0.74737 0.0
C962 C 0.40093 0.04529 0.85381 0.0
C963 C 0.40159 0.03781 0.89269 0.0
C964 C 0.41983 0.03419 0.90975 0.0
C965 C 0.41953 0.02635 0.94615 0.0
C966 C 0.40099 0.02203 0.96632 0.0
C967 C 0.38289 0.02567 0.94878 0.0
C968 C 0.38321 0.03345 0.91268 0.0
C969 C 0.3966 0.0944 0.75629 0.0
C970 C 0.45108 0.10189 0.83666 0.0
C971 C 0.46169 0.11584 0.69218 0.0
C972 C 0.46287 0.11731 0.65061 0.0
C973 C 0.46378 0.13762 0.63635 0.0
C974 C 0.46807 0.13963 0.5976 0.0
C975 C 0.47232 0.12135 0.5722 0.0
C976 C 0.47035 0.10091 0.58636 0.0
C977 C 0.46556 0.09891 0.62512 0.0
C978 C 0.46588 0.06032 0.77372 0.0
C979 C 0.42029 0.0519 0.7116 0.0
O980 O 0.414 0.03698 0.82694 0.0
O981 O 0.39673 0.06563 0.85054 0.0
O982 O 0.41293 0.09945 0.77175 0.0
O983 O 0.39012 0.07674 0.76953 0.0
O984 O 0.44004 0.08463 0.84006 0.0
O985 O 0.45253 0.11143 0.80443 0.0
O986 O 0.44504 0.1224 0.71227 0.0
O987 O 0.46986 0.0987 0.70422 0.0
O988 O 0.44786 0.05973 0.76382 0.0
O989 O 0.47226 0.07988 0.77358 0.0
O990 O 0.42908 0.07044 0.70589 0.0
O991 O 0.41697 0.04521 0.74596 0.0
H992 H 0.43427 0.03741 0.89499 0.0
H993 H 0.4338 0.02395 0.95869 0.0
H994 H 0.36831 0.0222 0.96275 0.0
H995 H 0.36894 0.03588 0.90011 0.0
H996 H 0.4617 0.15203 0.65539 0.0
H997 H 0.46863 0.15564 0.58783 0.0
H998 H 0.47351 0.08642 0.56798 0.0
H999 H 0.4649 0.08299 0.63536 0.0
Sm1000 Sm 0.68738 0.66645 0.53205 0.0
Sm1001 Sm 0.66161 0.69458 0.48704 0.0
C1002 C 0.70966 0.64875 0.58205 0.0
C1003 C 0.71705 0.65067 0.62114 0.0
C1004 C 0.73726 0.65644 0.62649 0.0
C1005 C 0.74533 0.65551 0.66202 0.0
C1006 C 0.7335 0.64854 0.69326 0.0
C1007 C 0.71308 0.64345 0.68818 0.0
C1008 C 0.70499 0.64446 0.65268 0.0
C1009 C 0.65559 0.64669 0.49645 0.0
C1010 C 0.65359 0.7005 0.57642 0.0
C1011 C 0.64007 0.71044 0.43444 0.0
C1012 C 0.64414 0.71679 0.39531 0.0
C1013 C 0.62792 0.72132 0.37352 0.0
C1014 C 0.63154 0.72791 0.33672 0.0
C1015 C 0.6515 0.73015 0.32088 0.0
C1016 C 0.66774 0.72521 0.34275 0.0
C1017 C 0.6641 0.71855 0.37951 0.0
C1018 C 0.69427 0.71595 0.51435 0.0
C1019 C 0.70093 0.66578 0.44347 0.0
O1020 O 0.71695 0.66176 0.55738 0.0
O1021 O 0.6906 0.6442 0.57784 0.0
O1022 O 0.65502 0.66462 0.51526 0.0
O1023 O 0.67346 0.63782 0.49719 0.0
O1024 O 0.67164 0.69116 0.57653 0.0
O1025 O 0.64394 0.70061 0.54499 0.0
O1026 O 0.64167 0.68994 0.43908 0.0
O1027 O 0.64807 0.72235 0.46125 0.0
O1028 O 0.6945 0.69655 0.50098 0.0
O1029 O 0.6759 0.72376 0.51608 0.0
O1030 O 0.68379 0.67666 0.44065 0.0
O1031 O 0.70698 0.66117 0.47661 0.0
H1032 H 0.74711 0.66101 0.6028 0.0
H1033 H 0.76113 0.65937 0.66452 0.0
H1034 H 0.70334 0.63836 0.71159 0.0
H1035 H 0.68942 0.63977 0.64979 0.0
H1036 H 0.61241 0.72001 0.38516 0.0
H1037 H 0.61864 0.7318 0.32108 0.0
H1038 H 0.68331 0.72646 0.33147 0.0
H1039 H 0.67687 0.71495 0.39572 0.0
Sm1040 Sm 0.0875 0.93654 0.24983 0.0
Sm1041 Sm 0.05671 0.91685 0.19662 0.0
C1042 C 0.10594 0.95514 0.3088 0.0
C1043 C 0.10354 0.96473 0.34938 0.0
C1044 C 0.1201 0.97522 0.36482 0.0
C1045 C 0.11888 0.98447 0.40246 0.0
C1046 C 0.10099 0.98361 0.42668 0.0
C1047 C 0.08414 0.97346 0.41091 0.0
C1048 C 0.0854 0.9641 0.3729 0.0
C1049 C 0.10323 0.90507 0.19351 0.0
C1050 C 0.04705 0.91064 0.28512 0.0
C1051 C 0.03798 0.89867 0.1387 0.0
C1052 C 0.03911 0.89764 0.09687 0.0
C1053 C 0.05668 0.90335 0.07557 0.0
C1054 C 0.05667 0.90383 0.03603 0.0
C1055 C 0.03905 0.8988 1.01708 0.0
C1056 C 0.02168 0.89267 0.03873 0.0
C1057 C 0.02172 0.89216 0.07811 0.0
C1058 C 0.04276 0.95475 0.23584 0.0
C1059 C 0.08966 0.95312 0.16641 0.0
O1060 O 0.0983 0.96578 0.2825 0.0
O1061 O 0.1048 0.93425 0.30178 0.0
O1062 O 0.08648 0.90445 0.21358 0.0
O1063 O 0.11344 0.9212 0.20717 0.0
O1064 O 0.0611 0.92524 0.29022 0.0
O1065 O 0.04451 0.90156 0.25083 0.0
O1066 O 0.05234 0.88895 0.15497 0.0
O1067 O 0.0327 0.91732 0.15596 0.0
O1068 O 0.06075 0.95048 0.2227 0.0
O1069 O 0.03192 0.93768 0.2309 0.0
O1070 O 0.0776 0.93689 0.15779 0.0
O1071 O 0.09399 0.95846 0.20175 0.0
H1072 H 0.13422 0.9763 0.34758 0.0
H1073 H 0.13213 0.99249 0.41245 0.0
H1074 H 0.07009 0.97235 0.42821 0.0
H1075 H 0.07224 0.95631 0.36199 0.0
H1076 H 0.07027 0.90775 0.08953 0.0
H1077 H 0.07035 0.90856 1.02047 0.0
H1078 H 0.00798 0.88817 0.02529 0.0
H1079 H 0.008 0.88773 0.09406 0.0
Sm1080 Sm 0.78844 0.33868 0.99346 0.0
Sm1081 Sm 0.81691 0.30809 0.02741 0.0
C1082 C 0.77041 0.36563 0.95193 0.0
C1083 C 0.76009 0.36155 0.91705 0.0
C1084 C 0.75559 0.37848 0.89512 0.0
C1085 C 0.74796 0.37414 0.85964 0.0
C1086 C 0.74487 0.35279 0.84569 0.0
C1087 C 0.74865 0.33596 0.86857 0.0
C1088 C 0.75622 0.34032 0.904 0.0
C1089 C 0.77015 0.30299 1.02075 0.0
C1090 C 0.80978 0.29733 0.93748 0.0
C1091 C 0.8379 0.282 0.06582 0.0
C1092 C 0.83818 0.27432 0.1037 0.0
C1093 C 0.82021 0.27204 0.12651 0.0
C1094 C 0.82112 0.26529 0.16306 0.0
C1095 C 0.84001 0.26105 0.17721 0.0
C1096 C 0.8579 0.26346 0.15424 0.0
C1097 C 0.85698 0.27 0.1177 0.0
C1098 C 0.83633 0.33988 0.99095 0.0
C1099 C 0.78669 0.341 0.08422 0.0
O1100 O 0.78993 0.36153 0.94843 0.0
O1101 O 0.76148 0.35814 0.98211 0.0
O1102 O 0.78721 0.30384 1.0033 0.0
O1103 O 0.76075 0.32133 1.02025 0.0
O1104 O 0.8005 0.31649 0.9393 0.0
O1105 O 0.81574 0.28935 0.96864 0.0
O1106 O 0.82314 0.27549 0.0452 0.0
O1107 O 0.84214 0.30228 0.06343 0.0
O1108 O 0.8201 0.34308 1.01227 0.0
O1109 O 0.84278 0.32021 0.99039 0.0
O1110 O 0.79582 0.32188 0.0792 0.0
O1111 O 0.78602 0.35341 0.0556 0.0
H1112 H 0.75866 0.39492 0.9048 0.0
H1113 H 0.74546 0.38739 0.84235 0.0
H1114 H 0.74629 0.3194 0.8586 0.0
H1115 H 0.75968 0.32705 0.92071 0.0
H1116 H 0.80557 0.2756 0.11621 0.0
H1117 H 0.80714 0.26368 0.18043 0.0
H1118 H 0.87261 0.26004 0.1644 0.0
H1119 H 0.87096 0.2718 0.1004 0.0
Sm1120 Sm 0.41565 0.95003 0.29954 0.0
Sm1121 Sm 0.44267 0.91836 0.24479 0.0
C1122 C 0.38693 0.97065 0.34411 0.0
C1123 C 0.3864 0.97834 0.38442 0.0
C1124 C 0.36923 0.97517 0.40886 0.0
C1125 C 0.36933 0.98134 0.44767 0.0
C1126 C 0.38655 0.99092 0.46232 0.0
C1127 C 0.40367 0.99406 0.43769 0.0
C1128 C 0.40365 0.98772 0.39921 0.0
C1129 C 0.45244 0.96532 0.27919 0.0
C1130 C 0.45172 0.92334 0.3363 0.0
C1131 C 0.47099 0.89792 0.19834 0.0
C1132 C 0.48028 0.90033 0.15954 0.0
C1133 C 0.46835 0.90476 0.12957 0.0
C1134 C 0.47718 0.90516 0.09244 0.0
C1135 C 0.49817 0.90127 0.08439 0.0
C1136 C 0.51015 0.89797 0.11492 0.0
C1137 C 0.50129 0.89741 0.15195 0.0
C1138 C 0.40692 0.90212 0.27637 0.0
C1139 C 0.41325 0.95111 0.20603 0.0
O1140 O 0.38714 0.94976 0.33695 0.0
O1141 O 0.39964 0.98033 0.32129 0.0
O1142 O 0.44163 0.95432 0.25721 0.0
O1143 O 0.44305 0.97027 0.31224 0.0
O1144 O 0.43533 0.93593 0.34368 0.0
O1145 O 0.4578 0.91538 0.30146 0.0
O1146 O 0.47527 0.91247 0.22508 0.0
O1147 O 0.45198 0.89216 0.20106 0.0
O1148 O 0.41892 0.91451 0.29217 0.0
O1149 O 0.41416 0.89646 0.24194 0.0
O1150 O 0.43035 0.9398 0.20168 0.0
O1151 O 0.4031 0.95411 0.23989 0.0
H1152 H 0.35589 0.96771 0.39801 0.0
H1153 H 0.35596 0.97872 0.46616 0.0
H1154 H 0.4173 0.00099 0.44836 0.0
H1155 H 0.41728 0.98991 0.38116 0.0
H1156 H 0.45211 0.90739 0.13463 0.0
H1157 H 0.46737 0.90771 0.0699 0.0
H1158 H 0.52642 0.89552 0.1102 0.0
H1159 H 0.51085 0.89429 0.17461 0.0
Sm1160 Sm 0.80327 0.65872 1.02119 0.0
Sm1161 Sm 0.83177 0.68782 0.98082 0.0
C1162 C 0.78464 0.63339 0.06898 0.0
C1163 C 0.7806 0.63331 0.11029 0.0
C1164 C 0.79423 0.64226 0.13551 0.0
C1165 C 0.78883 0.64441 0.17456 0.0
C1166 C 0.76966 0.63786 0.18886 0.0
C1167 C 0.75633 0.62843 0.16351 0.0
C1168 C 0.76177 0.62616 0.12461 0.0
C1169 C 0.78297 0.69073 0.98935 0.0
C1170 C 0.82321 0.70016 0.06892 0.0
C1171 C 0.851 0.71139 0.9306 0.0
C1172 C 0.84726 0.72008 0.89357 0.0
C1173 C 0.83186 0.73553 0.89071 0.0
C1174 C 0.82904 0.74423 0.85609 0.0
C1175 C 0.84156 0.73783 0.82318 0.0
C1176 C 0.85682 0.72212 0.82599 0.0
C1177 C 0.85964 0.71342 0.86072 0.0
C1178 C 0.85078 0.65793 1.02201 0.0
C1179 C 0.80481 0.65317 0.93083 0.0
O1180 O 0.80334 0.62997 0.05488 0.0
O1181 O 0.77551 0.64884 0.05364 0.0
O1182 O 0.79933 0.69343 1.00565 0.0
O1183 O 0.7766 0.67129 0.9914 0.0
O1184 O 0.81554 0.68071 0.06977 0.0
O1185 O 0.82804 0.70872 0.03666 0.0
O1186 O 0.84025 0.71962 0.96086 0.0
O1187 O 0.85378 0.69057 0.9307 0.0
O1188 O 0.83617 0.65423 1.0011 0.0
O1189 O 0.85695 0.67735 1.01852 0.0
O1190 O 0.81335 0.67214 0.93339 0.0
O1191 O 0.80257 0.64188 0.96094 0.0
H1192 H 0.80876 0.64812 0.12497 0.0
H1193 H 0.79936 0.65185 0.1934 0.0
H1194 H 0.74158 0.62296 0.17374 0.0
H1195 H 0.75102 0.61936 0.10554 0.0
H1196 H 0.82203 0.74111 0.91532 0.0
H1197 H 0.81697 0.75605 0.85522 0.0
H1198 H 0.867 0.71694 0.80162 0.0
H1199 H 0.87174 0.70165 0.86201 0.0
Sm1200 Sm 0.08036 0.05891 0.785 0.0
Sm1201 Sm 0.04448 0.08085 0.75075 0.0
C1202 C 0.11138 0.05143 0.82594 0.0
C1203 C 0.11236 0.04453 0.8643 0.0
C1204 C 0.13104 0.04232 0.88015 0.0
C1205 C 0.13171 0.03515 0.91653 0.0
C1206 C 0.11368 0.03012 0.9373 0.0
C1207 C 0.09499 0.03303 0.92154 0.0
C1208 C 0.09435 0.0401 0.88533 0.0
C1209 C 0.05192 0.03071 0.76254 0.0
C1210 C 0.03932 0.0778 0.84174 0.0
C1211 C 0.01472 0.0955 0.71268 0.0
C1212 C 0.00559 0.09264 0.67601 0.0
C1213 C 0.01591 0.08172 0.64409 0.0
C1214 C 0.00706 0.08008 0.60918 0.0
C1215 C 0.98779 0.08943 0.60564 0.0
C1216 C 0.97751 0.10007 0.63804 0.0
C1217 C 0.9863 0.10159 0.6728 0.0
C1218 C 0.07496 0.10697 0.77778 0.0
C1219 C 0.07882 0.05343 0.69242 0.0
O1220 O 0.10322 0.07046 0.82422 0.0
O1221 O 0.10465 0.03715 0.80119 0.0
O1222 O 0.04822 0.04955 0.77739 0.0
O1223 O 0.07076 0.02524 0.76527 0.0
O1224 O 0.05873 0.07126 0.83853 0.0
O1225 O 0.02935 0.08059 0.81136 0.0
O1226 O 0.01243 0.07996 0.73534 0.0
O1227 O 0.03277 0.10389 0.71248 0.0
O1228 O 0.07722 0.08954 0.75749 0.0
O1229 O 0.05573 0.11151 0.78419 0.0
O1230 O 0.05969 0.06024 0.69843 0.0
O1231 O 0.09129 0.05494 0.72049 0.0
H1232 H 0.14506 0.04585 0.86423 0.0
H1233 H 0.14632 0.03296 0.92793 0.0
H1234 H 0.08082 0.02968 0.93713 0.0
H1235 H 0.07979 0.04189 0.87355 0.0
H1236 H 0.03079 0.0746 0.64613 0.0
H1237 H 0.01531 0.07152 0.58501 0.0
H1238 H 0.96286 0.10781 0.63639 0.0
H1239 H 0.97815 0.11013 0.69714 0.0
Sm1240 Sm 0.69729 0.3487 0.41731 0.0
Sm1241 Sm 0.67083 0.31734 0.37758 0.0
C1242 C 0.71275 0.37688 0.46641 0.0
C1243 C 0.71511 0.37688 0.50734 0.0
C1244 C 0.6984 0.37383 0.53313 0.0
C1245 C 0.70143 0.36984 0.57055 0.0
C1246 C 0.7212 0.36822 0.58232 0.0
C1247 C 0.73777 0.3725 0.55717 0.0
C1248 C 0.73473 0.37697 0.52005 0.0
C1249 C 0.71906 0.3124 0.38708 0.0
C1250 C 0.67756 0.3079 0.46316 0.0
C1251 C 0.65542 0.29192 0.32321 0.0
C1252 C 0.66218 0.28177 0.28435 0.0
C1253 C 0.67958 0.26829 0.27822 0.0
C1254 C 0.68489 0.25762 0.24236 0.0
C1255 C 0.67308 0.26007 0.2112 0.0
C1256 C 0.65614 0.27424 0.21696 0.0
C1257 C 0.65073 0.28482 0.25301 0.0
C1258 C 0.64951 0.34733 0.42948 0.0
C1259 C 0.70157 0.34834 0.32798 0.0
O1260 O 0.69434 0.37864 0.45564 0.0
O1261 O 0.72366 0.36232 0.44547 0.0
O1262 O 0.70115 0.31289 0.40198 0.0
O1263 O 0.72551 0.33191 0.3857 0.0
O1264 O 0.68565 0.32732 0.46541 0.0
O1265 O 0.67252 0.29862 0.43036 0.0
O1266 O 0.66376 0.28473 0.35245 0.0
O1267 O 0.65242 0.31283 0.32691 0.0
O1268 O 0.66433 0.35134 0.40594 0.0
O1269 O 0.64387 0.32775 0.42147 0.0
O1270 O 0.69352 0.32928 0.33079 0.0
O1271 O 0.7011 0.36206 0.35822 0.0
H1272 H 0.68311 0.37346 0.52406 0.0
H1273 H 0.68839 0.36682 0.58957 0.0
H1274 H 0.75314 0.37172 0.5659 0.0
H1275 H 0.74781 0.37932 0.50065 0.0
H1276 H 0.68897 0.26564 0.30134 0.0
H1277 H 0.69824 0.24718 0.23916 0.0
H1278 H 0.64657 0.27652 0.19396 0.0
H1279 H 0.63726 0.29509 0.25658 0.0
H1280 H 0.0859 0.48005 0.18932 0.0
H1281 H 0.08185 0.41428 0.22183 0.0
H1282 H 0.08937 0.42626 0.28633 0.0
H1283 H 0.12758 0.49604 0.2476 0.0
H1284 H 0.11722 0.52253 0.26193 0.0
H1285 H 0.11172 0.50938 0.21685 0.0
H1286 H 0.07333 0.5143 0.23535 0.0
H1287 H 0.07854 0.52724 0.2807 0.0
H1288 H 0.06268 0.50397 0.27848 0.0
H1289 H 0.09955 0.44319 0.34509 0.0
H1290 H 0.10641 0.46665 0.40129 0.0
H1291 H 0.1029 0.52259 0.33596 0.0
C1292 C 0.08701 0.46819 0.2099 0.0
C1293 C 0.0834 0.44618 0.20017 0.0
C1294 C 0.0845 0.43122 0.22822 0.0
C1295 C 0.08899 0.43777 0.26503 0.0
C1296 C 0.09276 0.45929 0.27363 0.0
C1297 C 0.09157 0.47447 0.2474 0.0
C1298 C 0.09515 0.49681 0.2659 0.0
C1299 C 0.11405 0.50678 0.24693 0.0
C1300 C 0.07629 0.51144 0.26505 0.0
C1301 C 0.09866 0.49151 0.30625 0.0
C1302 C 0.09747 0.46966 0.30949 0.0
C1303 C 0.10047 0.46038 0.34314 0.0
C1304 C 0.10453 0.47383 0.37482 0.0
C1305 C 0.1054 0.49637 0.37289 0.0
C1306 C 0.10238 0.50538 0.3381 0.0
H1307 H 0.76112 0.85704 0.64243 0.0
H1308 H 0.70068 0.87477 0.6141 0.0
H1309 H 0.71319 0.87532 0.54643 0.0
H1310 H 0.79004 0.88811 0.57443 0.0
H1311 H 0.80924 0.86721 0.56498 0.0
H1312 H 0.79539 0.87046 0.61066 0.0
H1313 H 0.78533 0.83025 0.60224 0.0
H1314 H 0.79883 0.82755 0.55618 0.0
H1315 H 0.77235 0.82096 0.56119 0.0
H1316 H 0.73233 0.87289 0.48191 0.0
H1317 H 0.75545 0.86435 0.42477 0.0
H1318 H 0.80317 0.84739 0.496 0.0
C1319 C 0.75062 0.86135 0.62199 0.0
C1320 C 0.73004 0.86619 0.63324 0.0
C1321 C 0.71653 0.87115 0.60579 0.0
C1322 C 0.72353 0.8716 0.56749 0.0
C1323 C 0.744 0.86684 0.55732 0.0
C1324 C 0.75728 0.86158 0.58376 0.0
C1325 C 0.77816 0.8556 0.56532 0.0
C1326 C 0.79414 0.8713 0.57969 0.0
C1327 C 0.78399 0.83221 0.5716 0.0
C1328 C 0.77457 0.85821 0.52423 0.0
C1329 C 0.75486 0.86495 0.52021 0.0
C1330 C 0.74782 0.86774 0.48473 0.0
C1331 C 0.76112 0.86296 0.45244 0.0
C1332 C 0.78113 0.85525 0.4559 0.0
C1333 C 0.788 0.85334 0.49238 0.0
H1334 H 0.41091 0.49882 0.71738 0.0
H1335 H 0.39029 0.56251 0.76259 0.0
H1336 H 0.37304 0.54736 0.81774 0.0
H1337 H 0.36817 0.46718 0.75695 0.0
H1338 H 0.38465 0.44622 0.77039 0.0
H1339 H 0.39197 0.461 0.72994 0.0
H1340 H 0.42561 0.47105 0.75911 0.0
H1341 H 0.41855 0.45652 0.79981 0.0
H1342 H 0.42499 0.48448 0.80607 0.0
H1343 H 0.35949 0.52661 0.86851 0.0
H1344 H 0.35686 0.50297 0.92057 0.0
H1345 H 0.38961 0.45244 0.84892 0.0
C1346 C 0.40236 0.50935 0.73864 0.0
C1347 C 0.40108 0.5317 0.73514 0.0
C1348 C 0.39074 0.54528 0.76418 0.0
C1349 C 0.38085 0.53681 0.79557 0.0
C1350 C 0.3821 0.51474 0.79823 0.0
C1351 C 0.39312 0.5012 0.77134 0.0
C1352 C 0.39495 0.47878 0.78486 0.0
C1353 C 0.38429 0.46232 0.75898 0.0
C1354 C 0.41735 0.47235 0.78765 0.0
C1355 C 0.38364 0.48213 0.82376 0.0
C1356 C 0.37573 0.5028 0.82998 0.0
C1357 C 0.3654 0.51029 0.86403 0.0
C1358 C 0.36382 0.4966 0.89337 0.0
C1359 C 0.37285 0.47574 0.88877 0.0
C1360 C 0.3824 0.46822 0.85309 0.0
H1361 H 0.75976 0.13894 0.23744 0.0
H1362 H 0.81167 0.09512 0.22814 0.0
H1363 H 0.80772 0.08818 0.15916 0.0
H1364 H 0.72985 0.10937 0.17592 0.0
H1365 H 0.7195 0.13232 0.15537 0.0
H1366 H 0.72753 0.13506 0.20293 0.0
H1367 H 0.75157 0.16574 0.18477 0.0
H1368 H 0.74341 0.16326 0.13722 0.0
H1369 H 0.77003 0.16116 0.1449 0.0
H1370 H 0.79553 0.08349 0.09238 0.0
H1371 H 0.77848 0.08427 0.03233 0.0
H1372 H 0.73522 0.1319 0.08648 0.0
C1373 C 0.77045 0.1281 0.22072 0.0
C1374 C 0.78594 0.11744 0.23786 0.0
C1375 C 0.79976 0.10348 0.21528 0.0
C1376 C 0.79756 0.0994 0.17623 0.0
C1377 C 0.78167 0.1097 0.16038 0.0
C1378 C 0.76859 0.12406 0.18188 0.0
C1379 C 0.75251 0.13277 0.15851 0.0
C1380 C 0.73109 0.12702 0.17412 0.0
C1381 C 0.75451 0.15718 0.15621 0.0
C1382 C 0.75823 0.12069 0.12063 0.0
C1383 C 0.77505 0.10743 0.12213 0.0
C1384 C 0.78251 0.09402 0.09079 0.0
C1385 C 0.77266 0.09443 0.05696 0.0
C1386 C 0.75566 0.10824 0.05483 0.0
C1387 C 0.74839 0.12143 0.08717 0.0
H1388 H 0.93283 0.54257 0.1338 0.0
H1389 H 0.87627 0.52641 0.19388 0.0
H1390 H 0.86569 0.50681 0.13513 0.0
H1391 H 0.91447 0.5518 0.04681 0.0
H1392 H 0.93557 0.53923 1.01796 0.0
H1393 H 0.93933 0.55086 0.06483 0.0
H1394 H 0.95377 0.51512 0.08423 0.0
H1395 H 0.95079 0.50309 0.03716 0.0
H1396 H 0.9394 0.49093 0.07787 0.0
H1397 H 0.86079 0.49098 0.0683 0.0
H1398 H 0.86272 0.47831 1.00021 0.0
H1399 H 0.92311 0.5044 0.98593 0.0
C1400 C 0.91823 0.53485 0.13462 0.0
C1401 C 0.90522 0.53606 0.16802 0.0
C1402 C 0.88639 0.52555 0.16837 0.0
C1403 C 0.88029 0.51446 0.13522 0.0
C1404 C 0.89344 0.51376 0.10251 0.0
C1405 C 0.91214 0.52342 0.10223 0.0
C1406 C 0.92364 0.52019 0.06379 0.0
C1407 C 0.92851 0.54182 0.04738 0.0
C1408 C 0.94304 0.50651 0.0659 0.0
C1409 C 0.90813 0.50797 0.04189 0.0
C1410 C 0.89086 0.50425 0.06467 0.0
C1411 C 0.87429 0.49367 0.05027 0.0
C1412 C 0.87546 0.48669 1.01158 0.0
C1413 C 0.89308 0.49034 0.98788 0.0
C1414 C 0.90957 0.50108 1.00344 0.0
H1415 H 0.20024 0.16267 0.86537 0.0
H1416 H 0.2368 0.12232 0.9298 0.0
H1417 H 0.25869 0.11185 0.87149 0.0
H1418 H 0.20313 0.12852 0.77782 0.0
H1419 H 0.2046 0.15103 0.74877 0.0
H1420 H 0.19119 0.1539 0.79499 0.0
H1421 H 0.21346 0.18622 0.81382 0.0
H1422 H 0.22716 0.18343 0.76794 0.0
H1423 H 0.24072 0.18294 0.81028 0.0
H1424 H 0.27704 0.10666 0.80571 0.0
H1425 H 0.29066 0.10797 0.73883 0.0
H1426 H 0.24246 0.15297 0.71999 0.0
C1427 C 0.21267 0.15139 0.86734 0.0
C1428 C 0.21675 0.14321 0.90214 0.0
C1429 C 0.23334 0.12871 0.90338 0.0
C1430 C 0.24584 0.12269 0.87043 0.0
C1431 C 0.24154 0.13138 0.8367 0.0
C1432 C 0.22532 0.14543 0.83505 0.0
C1433 C 0.22435 0.15337 0.79598 0.0
C1434 C 0.20465 0.14627 0.77835 0.0
C1435 C 0.22657 0.17794 0.7971 0.0
C1436 C 0.24272 0.14176 0.77583 0.0
C1437 C 0.25235 0.12896 0.79956 0.0
C1438 C 0.26963 0.11663 0.78691 0.0
C1439 C 0.27723 0.11744 0.74901 0.0
C1440 C 0.26769 0.13072 0.72461 0.0
C1441 C 0.25021 0.14294 0.73829 0.0
H1442 H 0.60093 0.47829 0.4586 0.0
H1443 H 0.631 0.53664 0.49571 0.0
H1444 H 0.63099 0.52437 0.56073 0.0
H1445 H 0.56772 0.47575 0.53647 0.0
H1446 H 0.56878 0.44696 0.53816 0.0
H1447 H 0.57391 0.45866 0.49374 0.0
H1448 H 0.60892 0.43896 0.48434 0.0
H1449 H 0.60388 0.42697 0.52867 0.0
H1450 H 0.62653 0.44229 0.52085 0.0
H1451 H 0.62349 0.50764 0.62298 0.0
H1452 H 0.61096 0.48696 0.67651 0.0
H1453 H 0.58622 0.43971 0.59682 0.0
C1454 C 0.6079 0.48823 0.48031 0.0
C1455 C 0.61596 0.50834 0.47258 0.0
C1456 C 0.62493 0.52107 0.50136 0.0
C1457 C 0.62494 0.51425 0.53821 0.0
C1458 C 0.61624 0.49456 0.54526 0.0
C1459 C 0.60819 0.48158 0.51689 0.0
C1460 C 0.5986 0.46183 0.53201 0.0
C1461 C 0.57591 0.46076 0.52466 0.0
C1462 C 0.61017 0.4413 0.51548 0.0
C1463 C 0.60162 0.46622 0.57364 0.0
C1464 C 0.61204 0.48497 0.58082 0.0
C1465 C 0.6156 0.49275 0.61763 0.0
C1466 C 0.60835 0.48098 0.64782 0.0
C1467 C 0.59756 0.46179 0.64083 0.0
C1468 C 0.59436 0.45434 0.6032 0.0
H1469 H 0.24776 0.89799 0.28837 0.0
H1470 H 0.26556 0.83055 0.28439 0.0
H1471 H 0.25782 0.82597 0.21731 0.0
H1472 H 0.20625 0.89123 0.22963 0.0
H1473 H 0.21084 0.91553 0.20616 0.0
H1474 H 0.21809 0.91366 0.25386 0.0
H1475 H 0.25505 0.92318 0.23264 0.0
H1476 H 0.24791 0.92509 0.18485 0.0
H1477 H 0.26844 0.90728 0.19388 0.0
H1478 H 0.24806 0.82852 0.15162 0.0
H1479 H 0.23654 0.83815 0.09019 0.0
H1480 H 0.22497 0.90383 0.13645 0.0
C1481 C 0.25022 0.88233 0.27325 0.0
C1482 C 0.25726 0.86462 0.29147 0.0
C1483 C 0.26 0.84428 0.27099 0.0
C1484 C 0.25575 0.84154 0.23289 0.0
C1485 C 0.24879 0.85932 0.21582 0.0
C1486 C 0.24603 0.87931 0.23522 0.0
C1487 C 0.2381 0.89568 0.21022 0.0
C1488 C 0.21707 0.90454 0.22591 0.0
C1489 C 0.25329 0.91388 0.2051 0.0
C1490 C 0.23679 0.8817 0.17378 0.0
C1491 C 0.24305 0.86079 0.17771 0.0
C1492 C 0.24304 0.8448 0.14818 0.0
C1493 C 0.23633 0.85032 0.11366 0.0
C1494 C 0.22961 0.87154 0.10925 0.0
C1495 C 0.23005 0.8875 0.13944 0.0
H1496 H 0.58748 0.0285 0.84132 0.0
H1497 H 0.64655 0.00198 0.86114 0.0
H1498 H 0.64982 0.98557 0.79546 0.0
H1499 H 0.57055 0.9827 0.79899 0.0
H1500 H 0.55582 0.99499 0.76518 0.0
H1501 H 0.56047 0.00969 0.80915 0.0
H1502 H 0.57626 0.04056 0.77257 0.0
H1503 H 0.57138 0.026 0.72844 0.0
H1504 H 0.59671 0.03464 0.73663 0.0
H1505 H 0.64411 0.96685 0.732 0.0
H1506 H 0.62968 0.94744 0.67663 0.0
H1507 H 0.57294 0.98279 0.70229 0.0
C1508 C 0.60134 0.01968 0.83163 0.0
C1509 C 0.61673 0.01652 0.85647 0.0
C1510 C 0.63469 0.00499 0.84253 0.0
C1511 C 0.63663 0.99548 0.80525 0.0
C1512 C 0.62051 0.99769 0.7824 0.0
C1513 C 0.60324 0.00964 0.79505 0.0
C1514 C 0.58682 0.00699 0.76751 0.0
C1515 C 0.56729 0.99805 0.78635 0.0
C1516 C 0.58256 0.02832 0.75025 0.0
C1517 C 0.59712 0.99074 0.73836 0.0
C1518 C 0.61677 0.98607 0.74675 0.0
C1519 C 0.62887 0.97062 0.72488 0.0
C1520 C 0.62057 0.95958 0.69381 0.0
C1521 C 0.60032 0.96373 0.6859 0.0
C1522 C 0.58853 0.97957 0.70804 0.0
H1523 H 0.30021 0.32731 0.99106 0.0
H1524 H 0.25432 0.34779 0.91876 0.0
H1525 H 0.2308 0.35648 0.97532 0.0
H1526 H 0.26537 0.30292 0.05812 0.0
H1527 H 0.27962 0.31121 0.09808 0.0
H1528 H 0.29242 0.30616 0.05157 0.0
H1529 H 0.30726 0.34416 0.05736 0.0
H1530 H 0.29417 0.34989 0.10333 0.0
H1531 H 0.29047 0.36733 0.06598 0.0
H1532 H 0.21211 0.3626 0.04016 0.0
H1533 H 0.20066 0.36759 0.10858 0.0
H1534 H 0.25917 0.34393 0.1374 0.0
C1535 C 0.28524 0.33364 0.98701 0.0
C1536 C 0.27914 0.33693 0.95047 0.0
C1537 C 0.25939 0.34525 0.94651 0.0
C1538 C 0.24587 0.35013 0.97843 0.0
C1539 C 0.25235 0.34661 1.01404 0.0
C1540 C 0.2716 0.33862 1.01846 0.0
C1541 C 0.27498 0.33651 0.05976 0.0
C1542 C 0.27828 0.31279 0.06733 0.0
C1543 C 0.29276 0.35032 0.07234 0.0
C1544 C 0.25484 0.34519 0.07801 0.0
C1545 C 0.24182 0.35057 0.0512 0.0
C1546 C 0.22219 0.35853 0.06143 0.0
C1547 C 0.2158 0.36127 0.10017 0.0
C1548 C 0.22916 0.35637 0.12791 0.0
C1549 C 0.24882 0.34809 0.1166 0.0
H1550 H 0.91656 0.05809 0.27174 0.0
H1551 H 0.90371 0.00689 0.18748 0.0
H1552 H 0.89228 0.98414 0.23888 0.0
H1553 H 0.93513 0.02368 0.34088 0.0
H1554 H 0.9244 0.0416 0.37968 0.0
H1555 H 0.93237 0.0519 0.33502 0.0
H1556 H 0.89521 0.06841 0.33376 0.0
H1557 H 0.88823 0.05699 0.37788 0.0
H1558 H 0.87403 0.05062 0.33707 0.0
H1559 H 0.88264 0.96697 0.30035 0.0
H1560 H 0.87588 0.95692 0.36643 0.0
H1561 H 0.89425 0.02021 0.40865 0.0
C1562 C 0.9115 0.04207 0.26392 0.0
C1563 C 0.91106 0.03427 0.22559 0.0
C1564 C 0.90415 0.01321 0.21671 0.0
C1565 C 0.89762 0.0002 0.24568 0.0
C1566 C 0.89802 0.00857 0.28323 0.0
C1567 C 0.90484 0.02901 0.29231 0.0
C1568 C 0.90381 0.03437 0.33469 0.0
C1569 C 0.92518 0.03812 0.34839 0.0
C1570 C 0.88948 0.05374 0.34653 0.0
C1571 C 0.8951 0.01381 0.34817 0.0
C1572 C 0.89199 -0.00099 0.31819 0.0
C1573 C 0.88487 0.97849 0.32401 0.0
C1574 C 0.88107 0.97293 0.3615 0.0
C1575 C 0.88423 0.98793 0.39243 0.0
C1576 C 0.89117 0.00864 0.3855 0.0
H1577 H 0.24428 0.59065 0.57084 0.0
H1578 H 0.25891 0.65605 0.54635 0.0
H1579 H 0.27504 0.66125 0.60678 0.0
H1580 H 0.22956 0.6027 0.66645 0.0
H1581 H 0.23973 0.57833 0.68261 0.0
H1582 H 0.23201 0.57857 0.63498 0.0
H1583 H 0.26786 0.56483 0.60859 0.0
H1584 H 0.27572 0.56461 0.65626 0.0
H1585 H 0.28987 0.57953 0.622 0.0
H1586 H 0.28621 0.66087 0.67189 0.0
H1587 H 0.29021 0.65547 0.73897 0.0
H1588 H 0.26839 0.59043 0.72233 0.0
C1589 C 0.25107 0.60598 0.578 0.0
C1590 C 0.25058 0.62283 0.55359 0.0
C1591 C 0.25956 0.64271 0.56409 0.0
C1592 C 0.26872 0.64585 0.59843 0.0
C1593 C 0.26882 0.62897 0.62192 0.0
C1594 C 0.26023 0.60942 0.61226 0.0
C1595 C 0.2608 0.59461 0.64412 0.0
C1596 C 0.23925 0.58819 0.65785 0.0
C1597 C 0.27438 0.57472 0.63201 0.0
C1598 C 0.27032 0.60921 0.67371 0.0
C1599 C 0.27518 0.62879 0.66 0.0
C1600 C 0.28288 0.64545 0.68274 0.0
C1601 C 0.28527 0.64217 0.72078 0.0
C1602 C 0.27992 0.62245 0.73578 0.0
C1603 C 0.27273 0.60563 0.71161 0.0
H1604 H 0.42108 0.06319 0.63876 0.0
H1605 H 0.40351 0.01176 0.7097 0.0
H1606 H 0.39073 0.99128 0.65402 0.0
H1607 H 0.37843 0.05983 0.5811 0.0
H1608 H 0.39328 0.06562 0.53857 0.0
H1609 H 0.40057 0.07625 0.58421 0.0
H1610 H 0.43634 0.05867 0.57014 0.0
H1611 H 0.42933 0.04806 0.52437 0.0
H1612 H 0.4387 0.0302 0.55713 0.0
H1613 H 0.38039 0.97633 0.58992 0.0
H1614 H 0.3754 0.96714 0.522 0.0
H1615 H 0.39971 0.02876 0.49458 0.0
C1616 C 0.41462 0.04759 0.64275 0.0
C1617 C 0.41332 0.03903 0.67856 0.0
C1618 C 0.40465 0.01862 0.68247 0.0
C1619 C 0.39729 0.00692 0.65108 0.0
C1620 C 0.39866 0.01597 0.61622 0.0
C1621 C 0.40719 0.03581 0.61195 0.0
C1622 C 0.40737 0.04185 0.57147 0.0
C1623 C 0.39412 0.06208 0.56869 0.0
C1624 C 0.42923 0.04486 0.55481 0.0
C1625 C 0.39797 0.02206 0.5533 0.0
C1626 C 0.3928 0.00741 0.57958 0.0
C1627 C 0.38428 0.98771 0.56912 0.0
C1628 C 0.38139 0.98269 0.53062 0.0
C1629 C 0.3872 0.99725 0.50324 0.0
C1630 C 0.39523 0.0173 0.51496 0.0
H1631 H 0.7331 0.65383 0.22127 0.0
H1632 H 0.79175 0.62974 0.24902 0.0
H1633 H 0.78063 0.63463 0.31733 0.0
H1634 H 0.7262 0.69427 0.30088 0.0
H1635 H 0.69925 0.69019 0.30722 0.0
H1636 H 0.7122 0.68544 0.26083 0.0
H1637 H 0.69832 0.64655 0.25613 0.0
H1638 H 0.68545 0.65162 0.3025 0.0
H1639 H 0.7029 0.62907 0.29303 0.0
H1640 H 0.76268 0.64089 0.38225 0.0
H1641 H 0.73972 0.64935 0.43951 0.0
H1642 H 0.69277 0.66962 0.36922 0.0
C1643 C 0.74358 0.6495 0.24173 0.0
C1644 C 0.76326 0.64129 0.22989 0.0
C1645 C 0.77666 0.63618 0.25752 0.0
C1646 C 0.77045 0.63882 0.29631 0.0
C1647 C 0.75087 0.64676 0.30696 0.0
C1648 C 0.73768 0.65217 0.2805 0.0
C1649 C 0.71747 0.66041 0.29941 0.0
C1650 C 0.71357 0.68398 0.29161 0.0
C1651 C 0.70002 0.64604 0.28703 0.0
C1652 C 0.72123 0.65841 0.34064 0.0
C1653 C 0.7406 0.65056 0.34438 0.0
C1654 C 0.7475 0.64711 0.37968 0.0
C1655 C 0.73429 0.65188 0.41204 0.0
C1656 C 0.71439 0.66007 0.40891 0.0
C1657 C 0.70786 0.66336 0.37263 0.0
H1658 H 0.07854 0.9512 0.09354 0.0
H1659 H 0.11819 0.9847 0.16995 0.0
H1660 H 0.12987 0.00748 0.11882 0.0
H1661 H 0.11144 0.95264 1.00552 0.0
H1662 H 0.08969 0.9564 0.97871 0.0
H1663 H 0.08723 0.94198 1.02085 0.0
H1664 H 0.05764 0.96871 0.04574 0.0
H1665 H 0.06153 0.98372 1.00451 0.0
H1666 H 0.06267 0.99707 0.0512 0.0
H1667 H 0.13651 0.0272 0.05908 0.0
H1668 H 0.1366 0.04276 0.99671 0.0
H1669 H 0.09193 0.99642 0.96154 0.0
C1670 C 0.08988 0.96312 0.09952 0.0
C1671 C 0.09751 0.96614 0.13571 0.0
C1672 C 0.11213 0.98212 0.14239 0.0
C1673 C 0.11889 0.99509 0.11353 0.0
C1674 C 0.11081 0.99187 0.07831 0.0
C1675 C 0.09662 0.97626 0.07128 0.0
C1676 C 0.08938 0.97678 0.03186 0.0
C1677 C 0.09477 0.95568 1.00783 0.0
C1678 C 0.06645 0.98189 0.03345 0.0
C1679 C 0.10171 0.99511 1.01774 0.0
C1680 C 0.11411 0.00356 0.04469 0.0
C1681 C 0.12689 0.02065 0.03773 0.0
C1682 C 0.12692 0.0293 1.00225 0.0
C1683 C 0.11417 0.02087 0.97447 0.0
C1684 C 0.10158 0.00346 0.98244 0.0
H1685 H 0.70323 0.38276 0.65174 0.0
H1686 H 0.74739 0.33638 0.59656 0.0
H1687 H 0.75413 0.32349 0.65863 0.0
H1688 H 0.7318 0.3981 0.72705 0.0
H1689 H 0.71077 0.40165 0.76238 0.0
H1690 H 0.70682 0.40472 0.71339 0.0
H1691 H 0.67888 0.37598 0.71532 0.0
H1692 H 0.68279 0.37272 0.76443 0.0
H1693 H 0.68471 0.34975 0.73023 0.0
H1694 H 0.75842 0.31786 0.72585 0.0
H1695 H 0.76257 0.32228 0.79448 0.0
H1696 H 0.71665 0.37322 0.807 0.0
C1697 C 0.71399 0.3696 0.65284 0.0
C1698 C 0.72472 0.36043 0.61959 0.0
C1699 C 0.73908 0.34363 0.6219 0.0
C1700 C 0.74285 0.33606 0.65691 0.0
C1701 C 0.73219 0.34556 0.68929 0.0
C1702 C 0.71818 0.36209 0.68769 0.0
C1703 C 0.71068 0.37125 0.72703 0.0
C1704 C 0.71531 0.39535 0.73278 0.0
C1705 C 0.68791 0.36718 0.7347 0.0
C1706 C 0.72334 0.35793 0.75087 0.0
C1707 C 0.73518 0.34278 0.72854 0.0
C1708 C 0.74902 0.32942 0.74375 0.0
C1709 C 0.75123 0.33201 0.78277 0.0
C1710 C 0.7399 0.34804 0.80596 0.0
C1711 C 0.72546 0.36081 0.78987 0.0
H1712 H 0.15413 0.36904 0.29619 0.0
H1713 H 0.12137 0.30923 0.28601 0.0
H1714 H 0.10821 0.31941 0.22705 0.0
H1715 H 0.11504 0.40077 0.26346 0.0
H1716 H 0.13064 0.41825 0.23572 0.0
H1717 H 0.14043 0.40659 0.27592 0.0
H1718 H 0.17075 0.38854 0.2354 0.0
H1719 H 0.16229 0.40149 0.19537 0.0
H1720 H 0.16623 0.37279 0.19205 0.0
H1721 H 0.09873 0.33493 0.16733 0.0
H1722 H 0.09085 0.35699 0.1149 0.0
H1723 H 0.12666 0.40855 0.16294 0.0
C1724 C 0.14433 0.35805 0.28143 0.0
C1725 C 0.13906 0.3381 0.29642 0.0
C1726 C 0.12584 0.32454 0.2759 0.0
C1727 C 0.11826 0.33011 0.24187 0.0
C1728 C 0.1237 0.34959 0.2278 0.0
C1729 C 0.13633 0.3635 0.24688 0.0
C1730 C 0.13863 0.38402 0.22592 0.0
C1731 C 0.13072 0.40362 0.25176 0.0
C1732 C 0.16081 0.38688 0.21136 0.0
C1733 C 0.1252 0.37943 0.19274 0.0
C1734 C 0.1171 0.35923 0.19416 0.0
C1735 C 0.10479 0.35091 0.16623 0.0
C1736 C 0.10028 0.36362 0.13651 0.0
C1737 C 0.10764 0.38473 0.1348 0.0
C1738 C 0.12058 0.39254 0.16328 0.0
H1739 H 0.87783 0.91209 0.55568 0.0
H1740 H 0.92684 0.86489 0.54915 0.0
H1741 H 0.91314 0.84642 0.49233 0.0
H1742 H 0.83858 0.87318 0.52191 0.0
H1743 H 0.82638 0.89335 0.49709 0.0
H1744 H 0.83881 0.90105 0.5396 0.0
H1745 H 0.86095 0.92773 0.50214 0.0
H1746 H 0.84854 0.91979 0.45985 0.0
H1747 H 0.87576 0.91765 0.45953 0.0
H1748 H 0.89669 0.83624 0.43107 0.0
H1749 H 0.87557 0.83154 0.37607 0.0
H1750 H 0.83649 0.88461 0.42387 0.0
C1751 C 0.88524 0.89747 0.54297 0.0
C1752 C 0.90316 0.88964 0.55713 0.0
C1753 C 0.91276 0.87073 0.53935 0.0
C1754 C 0.90522 0.86031 0.50681 0.0
C1755 C 0.8879 0.86888 0.49268 0.0
C1756 C 0.87769 0.88669 0.51082 0.0
C1757 C 0.85961 0.89287 0.48948 0.0
C1758 C 0.83965 0.88996 0.51346 0.0
C1759 C 0.86133 0.91589 0.47705 0.0
C1760 C 0.8618 0.87644 0.45563 0.0
C1761 C 0.87818 0.8627 0.45801 0.0
C1762 C 0.88364 0.84669 0.4293 0.0
C1763 C 0.87167 0.84425 0.39803 0.0
C1764 C 0.85435 0.85759 0.3958 0.0
C1765 C 0.84963 0.87413 0.42474 0.0
H1766 H 0.3689 0.65134 0.88215 0.0
H1767 H 0.32036 0.60759 0.90763 0.0
H1768 H 0.32626 0.58944 0.84319 0.0
H1769 H 0.36196 0.65548 0.78279 0.0
H1770 H 0.38864 0.65509 0.76801 0.0
H1771 H 0.38012 0.66505 0.81569 0.0
H1772 H 0.40394 0.63755 0.84244 0.0
H1773 H 0.41235 0.6279 0.79463 0.0
H1774 H 0.40205 0.60943 0.82751 0.0
H1775 H 0.33592 0.57741 0.77351 0.0
H1776 H 0.35138 0.56836 0.70931 0.0
H1777 H 0.39648 0.61733 0.72691 0.0
C1778 C 0.35953 0.63786 0.87431 0.0
C1779 C 0.34352 0.63149 0.90043 0.0
C1780 C 0.3321 0.61346 0.8885 0.0
C1781 C 0.33553 0.60288 0.8517 0.0
C1782 C 0.35093 0.60992 0.82653 0.0
C1783 C 0.36313 0.62665 0.83766 0.0
C1784 C 0.37937 0.63014 0.80544 0.0
C1785 C 0.37743 0.65282 0.7922 0.0
C1786 C 0.4007 0.626 0.81828 0.0
C1787 C 0.3741 0.61321 0.77408 0.0
C1788 C 0.35748 0.6019 0.78713 0.0
C1789 C 0.34911 0.58602 0.76353 0.0
C1790 C 0.35811 0.58107 0.7265 0.0
C1791 C 0.37573 0.59157 0.71202 0.0
C1792 C 0.38351 0.60836 0.73649 0.0
H1793 H 0.64895 0.17612 0.94434 0.0
H1794 H 0.66013 0.12099 0.86304 0.0
H1795 H 0.64206 0.09791 0.90829 0.0
H1796 H 0.65682 0.14805 0.02755 0.0
H1797 H 0.63739 0.16321 0.05688 0.0
H1798 H 0.65093 0.17539 1.01839 0.0
H1799 H 0.61741 0.18432 0.9894 0.0
H1800 H 0.60342 0.17269 0.02798 0.0
H1801 H 0.5997 0.16322 0.97969 0.0
H1802 H 0.61953 0.08227 0.96013 0.0
H1803 H 0.59735 0.07451 1.01595 0.0
H1804 H 0.60437 0.13894 0.06593 0.0
C1805 C 0.64757 0.15919 0.93589 0.0
C1806 C 0.65563 0.15029 0.9 0.0
C1807 C 0.65389 0.12804 0.89033 0.0
C1808 C 0.64371 0.11489 0.91584 0.0
C1809 C 0.63581 0.12429 0.95099 0.0
C1810 C 0.6379 0.1459 0.96113 0.0
C1811 C 0.62826 0.15218 1.00053 0.0
C1812 C 0.64431 0.16016 0.02743 0.0
C1813 C 0.61118 0.1691 0.9993 0.0
C1814 C 0.6199 0.1308 1.01088 0.0
C1815 C 0.62437 0.11493 0.9819 0.0
C1816 C 0.61678 0.09431 0.98364 0.0
C1817 C 0.60459 0.08978 1.01596 0.0
C1818 C 0.60049 0.10546 0.04654 0.0
C1819 C 0.60799 0.12636 0.0436 0.0
H1820 H 0.0987 0.5871 0.51916 0.0
H1821 H 0.10319 0.63701 0.61004 0.0
H1822 H 0.12394 0.65831 0.56612 0.0
H1823 H 0.15249 0.59358 0.47605 0.0
H1824 H 0.14468 0.5873 0.42882 0.0
H1825 H 0.13213 0.57512 0.46848 0.0
H1826 H 0.09761 0.58937 0.44981 0.0
H1827 H 0.10992 0.60203 0.41064 0.0
H1828 H 0.09394 0.6178 0.44599 0.0
H1829 H 0.13649 0.6768 0.51003 0.0
H1830 H 0.14675 0.68948 0.44822 0.0
H1831 H 0.14116 0.62524 0.39451 0.0
C1832 C 0.10485 0.60201 0.5304 0.0
C1833 C 0.0996 0.61027 0.56824 0.0
C1834 C 0.1072 0.63031 0.58135 0.0
C1835 C 0.11897 0.64249 0.55659 0.0
C1836 C 0.1235 0.63401 0.51926 0.0
C1837 C 0.11726 0.61393 0.50649 0.0
C1838 C 0.12369 0.6089 0.46463 0.0
C1839 C 0.13917 0.59011 0.45919 0.0
C1840 C 0.10519 0.60426 0.44143 0.0
C1841 C 0.1335 0.62989 0.45523 0.0
C1842 C 0.133 0.64411 0.4873 0.0
C1843 C 0.13802 0.66551 0.4852 0.0
C1844 C 0.14399 0.67252 0.44974 0.0
C1845 C 0.14608 0.65808 0.4167 0.0
C1846 C 0.14069 0.63639 0.41951 0.0
H1847 H 0.63048 0.90827 0.65797 0.0
H1848 H 0.58079 0.86642 0.63119 0.0
H1849 H 0.58536 0.84774 0.68914 0.0
H1850 H 0.66194 0.86655 0.6949 0.0
H1851 H 0.67147 0.88464 0.73141 0.0
H1852 H 0.66429 0.89475 0.68788 0.0
H1853 H 0.64034 0.92219 0.7272 0.0
H1854 H 0.6466 0.91164 0.77091 0.0
H1855 H 0.62049 0.91297 0.75927 0.0
H1856 H 0.5934 0.83522 0.75115 0.0
H1857 H 0.60708 0.82533 0.80963 0.0
H1858 H 0.65445 0.87254 0.79745 0.0
C1859 C 0.62064 0.89508 0.66422 0.0
C1860 C 0.60481 0.88919 0.64026 0.0
C1861 C 0.59258 0.87163 0.64935 0.0
C1862 C 0.59514 0.86088 0.68225 0.0
C1863 C 0.61035 0.86749 0.70577 0.0
C1864 C 0.6232 0.8839 0.69698 0.0
C1865 C 0.63869 0.88719 0.72707 0.0
C1866 C 0.66039 0.88302 0.70924 0.0
C1867 C 0.63638 0.90985 0.74732 0.0
C1868 C 0.63249 0.87004 0.75413 0.0
C1869 C 0.61586 0.85924 0.74116 0.0
C1870 C 0.60658 0.84336 0.76122 0.0
C1871 C 0.61458 0.83791 0.79483 0.0
C1872 C 0.63213 0.84786 0.80868 0.0
C1873 C 0.64115 0.86442 0.78792 0.0
H1874 H 0.37439 0.40005 0.06662 0.0
H1875 H 0.42873 0.36012 0.04552 0.0
H1876 H 0.41561 0.34395 0.98645 0.0
H1877 H 0.33902 0.35827 0.02598 0.0
H1878 H 0.3237 0.37842 1.00699 0.0
H1879 H 0.33621 0.3848 0.04991 0.0
H1880 H 0.35359 0.41688 1.01906 0.0
H1881 H 0.34145 0.41038 0.97587 0.0
H1882 H 0.3687 0.41201 0.97468 0.0
H1883 H 0.39928 0.33661 0.92499 0.0
H1884 H 0.37762 0.33281 0.87094 0.0
H1885 H 0.33251 0.37578 0.93258 0.0
C1886 C 0.38305 0.38721 0.05037 0.0
C1887 C 0.40234 0.38087 0.06112 0.0
C1888 C 0.41363 0.36461 0.03846 0.0
C1889 C 0.40641 0.35558 1.00458 0.0
C1890 C 0.3877 0.36278 0.99392 0.0
C1891 C 0.37583 0.37771 1.0167 0.0
C1892 C 0.35648 0.38295 0.99805 0.0
C1893 C 0.33774 0.37569 1.02164 0.0
C1894 C 0.35497 0.40699 0.99155 0.0
C1895 C 0.35975 0.36934 0.96066 0.0
C1896 C 0.37792 0.35793 0.95886 0.0
C1897 C 0.38482 0.34511 0.92647 0.0
C1898 C 0.37249 0.3432 0.89574 0.0
C1899 C 0.35329 0.35379 0.89764 0.0
C1900 C 0.34706 0.36741 0.93031 0.0
H1901 H 0.87138 0.16168 0.38219 0.0
H1902 H 0.8401 0.10579 0.4204 0.0
H1903 H 0.848 0.08675 0.35698 0.0
H1904 H 0.85363 0.15579 0.28578 0.0
H1905 H 0.87675 0.16548 0.26336 0.0
H1906 H 0.86885 0.1747 0.31169 0.0
H1907 H 0.90328 0.16291 0.33151 0.0
H1908 H 0.91179 0.15149 0.28469 0.0
H1909 H 0.91121 0.13518 0.32467 0.0
H1910 H 0.85881 0.0737 0.28869 0.0
H1911 H 0.8713 0.06706 0.22218 0.0
H1912 H 0.89642 0.13105 0.22383 0.0
C1913 C 0.86627 0.14535 0.37735 0.0
C1914 C 0.85508 0.13527 0.40713 0.0
C1915 C 0.84856 0.11401 0.39873 0.0
C1916 C 0.85307 0.10303 0.36254 0.0
C1917 C 0.86403 0.1134 0.33406 0.0
C1918 C 0.87042 0.13419 0.34089 0.0
C1919 C 0.88138 0.14179 0.30463 0.0
C1920 C 0.86946 0.16057 0.29052 0.0
C1921 C 0.90322 0.14822 0.31172 0.0
C1922 C 0.88089 0.12174 0.27663 0.0
C1923 C 0.87047 0.10577 0.29447 0.0
C1924 C 0.86708 0.08611 0.27481 0.0
C1925 C 0.8743 0.08253 0.23643 0.0
C1926 C 0.88518 0.09828 0.21655 0.0
C1927 C 0.88853 0.11834 0.23754 0.0
H1928 H 0.90074 0.6321 0.21769 0.0
H1929 H 0.87101 0.57055 0.20579 0.0
H1930 H 0.85913 0.57939 0.14505 0.0
H1931 H 0.86059 0.66182 0.17971 0.0
H1932 H 0.87709 0.67969 0.15486 0.0
H1933 H 0.88508 0.66819 0.19662 0.0
H1934 H 0.91775 0.65208 0.1582 0.0
H1935 H 0.90959 0.66471 0.11757 0.0
H1936 H 0.91505 0.63629 0.11415 0.0
H1937 H 0.84932 0.59445 0.08544 0.0
H1938 H 0.84111 0.61605 0.03261 0.0
H1939 H 0.8747 0.66917 0.08165 0.0
C1940 C 0.89204 0.62038 0.20197 0.0
C1941 C 0.88733 0.60031 0.21686 0.0
C1942 C 0.87523 0.58588 0.19549 0.0
C1943 C 0.86832 0.59073 0.16056 0.0
C1944 C 0.8731 0.61044 0.14675 0.0
C1945 C 0.88456 0.62518 0.16671 0.0
C1946 C 0.88625 0.64575 0.14586 0.0
C1947 C 0.87668 0.665 0.17076 0.0
C1948 C 0.90849 0.64995 0.13324 0.0
C1949 C 0.87392 0.64015 0.11157 0.0
C1950 C 0.86667 0.61957 0.11263 0.0
C1951 C 0.85488 0.61065 0.08439 0.0
C1952 C 0.85019 0.62307 0.05445 0.0
C1953 C 0.857 0.6444 0.05282 0.0
C1954 C 0.86923 0.6529 0.08181 0.0
H1955 H 0.0702 0.12983 0.84812 0.0
H1956 H 0.11567 0.10252 0.763 0.0
H1957 H 0.14218 0.10896 0.80801 0.0
H1958 H 0.10518 0.17198 0.88962 0.0
H1959 H 0.09387 0.17007 0.937 0.0
H1960 H 0.07872 0.16561 0.89685 0.0
H1961 H 0.06871 0.12861 0.91965 0.0
H1962 H 0.08416 0.13255 0.95932 0.0
H1963 H 0.08833 0.10913 0.92653 0.0
H1964 H 0.16203 0.11114 0.86514 0.0
H1965 H 0.17643 0.11701 0.92705 0.0
H1966 H 0.11995 0.14752 0.97486 0.0
C1967 C 0.08584 0.12589 0.83861 0.0
C1968 C 0.09089 0.11544 0.80213 0.0
C1969 C 0.11149 0.11044 0.79078 0.0
C1970 C 0.12664 0.11395 0.81623 0.0
C1971 C 0.12105 0.12307 0.85267 0.0
C1972 C 0.10132 0.12974 0.86354 0.0
C1973 C 0.0996 0.13901 0.9047 0.0
C1974 C 0.09401 0.1631 0.90718 0.0
C1975 C 0.08429 0.12657 0.92896 0.0
C1976 C 0.12116 0.13543 0.9157 0.0
C1977 C 0.13316 0.12603 0.88517 0.0
C1978 C 0.153 0.11916 0.88888 0.0
C1979 C 0.16101 0.12247 0.92436 0.0
C1980 C 0.14951 0.13321 0.95566 0.0
C1981 C 0.12923 0.13965 0.95126 0.0
H1982 H 0.62759 0.33348 0.49365 0.0
H1983 H 0.65673 0.38982 0.45224 0.0
H1984 H 0.64929 0.40925 0.51534 0.0
H1985 H 0.58639 0.36353 0.55243 0.0
H1986 H 0.58579 0.34537 0.58967 0.0
H1987 H 0.59342 0.33561 0.54149 0.0
H1988 H 0.6273 0.32113 0.56318 0.0
H1989 H 0.61984 0.33083 0.61144 0.0
H1990 H 0.64344 0.33916 0.58885 0.0
H1991 H 0.64072 0.42201 0.58473 0.0
H1992 H 0.62962 0.42856 0.65197 0.0
H1993 H 0.60193 0.36584 0.65068 0.0
C1994 C 0.63226 0.35001 0.49766 0.0
C1995 C 0.64332 0.35985 0.46743 0.0
C1996 C 0.64885 0.38156 0.47453 0.0
C1997 C 0.64446 0.39284 0.51048 0.0
C1998 C 0.634 0.38256 0.53965 0.0
C1999 C 0.62764 0.36172 0.53351 0.0
C2000 C 0.61635 0.35463 0.56987 0.0
C2001 C 0.59417 0.34947 0.56294 0.0
C2002 C 0.62738 0.33528 0.58419 0.0
C2003 C 0.61752 0.37465 0.59762 0.0
C2004 C 0.62801 0.3904 0.57931 0.0
C2005 C 0.63223 0.40984 0.59887 0.0
C2006 C 0.62569 0.41342 0.6376 0.0
C2007 C 0.61422 0.39814 0.65762 0.0
C2008 C 0.61012 0.37828 0.63676 0.0
H2009 H 0.34921 0.87278 0.47005 0.0
H2010 H 0.33931 0.81099 0.41078 0.0
H2011 H 0.34969 0.82514 0.35015 0.0
H2012 H 0.33906 0.90841 0.39195 0.0
H2013 H 0.36056 0.92496 0.40133 0.0
H2014 H 0.34709 0.91235 0.43952 0.0
H2015 H 0.38063 0.8944 0.45607 0.0
H2016 H 0.39412 0.90717 0.41831 0.0
H2017 H 0.39565 0.87836 0.41958 0.0
H2018 H 0.36391 0.84447 0.29584 0.0
H2019 H 0.38634 0.86573 0.25439 0.0
H2020 H 0.39324 0.9121 0.3498 0.0
C2021 C 0.34848 0.86262 0.44405 0.0
C2022 C 0.34204 0.84119 0.44495 0.0
C2023 C 0.34274 0.82785 0.41066 0.0
C2024 C 0.3488 0.83571 0.37587 0.0
C2025 C 0.35509 0.85682 0.37566 0.0
C2026 C 0.35551 0.86999 0.40892 0.0
C2027 C 0.36678 0.89044 0.40155 0.0
C2028 C 0.35251 0.91021 0.40903 0.0
C2029 C 0.3854 0.89271 0.42527 0.0
C2030 C 0.37299 0.88628 0.3595 0.0
C2031 C 0.36545 0.8672 0.34479 0.0
C2032 C 0.36979 0.85961 0.30689 0.0
C2033 C 0.38252 0.87173 0.28354 0.0
C2034 C 0.39117 0.89081 0.29859 0.0
C2035 C 0.3862 0.89811 0.33698 0.0
H2036 H 0.91667 0.36031 0.82365 0.0
H2037 H 0.87667 0.40987 0.78973 0.0
H2038 H 0.85368 0.40591 0.84726 0.0
H2039 H 0.87637 0.32662 0.85636 0.0
H2040 H 0.8906 0.31728 0.89367 0.0
H2041 H 0.90372 0.32527 0.85092 0.0
H2042 H 0.92442 0.35179 0.89168 0.0
H2043 H 0.91076 0.34495 0.93472 0.0
H2044 H 0.91145 0.37255 0.92289 0.0
H2045 H 0.83569 0.39671 0.91152 0.0
H2046 H 0.82182 0.37873 0.96798 0.0
H2047 H 0.87302 0.33398 0.95405 0.0
C2048 C 0.90304 0.37031 0.8282 0.0
C2049 C 0.89869 0.38585 0.80299 0.0
C2050 C 0.88051 0.39829 0.80947 0.0
C2051 C 0.86741 0.39616 0.84203 0.0
C2052 C 0.87256 0.38117 0.86721 0.0
C2053 C 0.88975 0.36814 0.85998 0.0
C2054 C 0.89134 0.35217 0.88953 0.0
C2055 C 0.89044 0.32897 0.87155 0.0
C2056 C 0.91064 0.3556 0.91097 0.0
C2057 C 0.87247 0.35826 0.91477 0.0
C2058 C 0.86185 0.37518 0.90204 0.0
C2059 C 0.84376 0.38321 0.92128 0.0
C2060 C 0.83592 0.3729 0.95315 0.0
C2061 C 0.84591 0.35449 0.96436 0.0
C2062 C 0.8648 0.34782 0.9458 0.0
H2063 H 0.38084 0.16508 0.57545 0.0
H2064 H 0.34337 0.11344 0.53293 0.0
H2065 H 0.35023 0.09322 0.58832 0.0
H2066 H 0.41921 0.1302 0.61331 0.0
H2067 H 0.42242 0.14895 0.65368 0.0
H2068 H 0.41527 0.15862 0.60977 0.0
H2069 H 0.38423 0.1779 0.64689 0.0
H2070 H 0.39125 0.16758 0.69033 0.0
H2071 H 0.36639 0.16244 0.67418 0.0
H2072 H 0.36017 0.07908 0.64939 0.0
H2073 H 0.37243 0.07134 0.71056 0.0
H2074 H 0.40477 0.13151 0.71558 0.0
C2075 C 0.37422 0.1494 0.57756 0.0
C2076 C 0.36129 0.14099 0.54965 0.0
C2077 C 0.35297 0.12045 0.5539 0.0
C2078 C 0.35692 0.10879 0.5853 0.0
C2079 C 0.36944 0.11766 0.61243 0.0
C2080 C 0.3781 0.13745 0.60882 0.0
C2081 C 0.39084 0.14333 0.64242 0.0
C2082 C 0.41328 0.14539 0.62892 0.0
C2083 C 0.38268 0.16406 0.66478 0.0
C2084 C 0.38776 0.12395 0.6659 0.0
C2085 C 0.37539 0.10936 0.64773 0.0
C2086 C 0.36987 0.09042 0.66366 0.0
C2087 C 0.37696 0.08623 0.69887 0.0
C2088 C 0.38975 0.1007 0.71863 0.0
C2089 C 0.39526 0.11991 0.7015 0.0
H2090 H 0.61809 0.59415 0.29996 0.0
H2091 H 0.56497 0.63594 0.32084 0.0
H2092 H 0.57892 0.65232 0.37894 0.0
H2093 H 0.62347 0.58272 0.39151 0.0
H2094 H 0.65076 0.58347 0.39083 0.0
H2095 H 0.6387 0.57707 0.34753 0.0
H2096 H 0.65686 0.60814 0.31545 0.0
H2097 H 0.66974 0.61426 0.35803 0.0
H2098 H 0.65516 0.63489 0.33869 0.0
H2099 H 0.59557 0.65951 0.43981 0.0
H2100 H 0.61759 0.66322 0.49328 0.0
H2101 H 0.66133 0.6184 0.43226 0.0
C2102 C 0.60992 0.60746 0.31587 0.0
C2103 C 0.5907 0.61424 0.30546 0.0
C2104 C 0.58002 0.63109 0.32767 0.0
C2105 C 0.5877 0.64024 0.36101 0.0
C2106 C 0.60623 0.63251 0.37153 0.0
C2107 C 0.61759 0.61703 0.34902 0.0
C2108 C 0.63679 0.6112 0.36759 0.0
C2109 C 0.63745 0.5872 0.3748 0.0
C2110 C 0.65576 0.61749 0.34351 0.0
C2111 C 0.63406 0.62524 0.4046 0.0
C2112 C 0.61623 0.63726 0.40631 0.0
C2113 C 0.60979 0.65056 0.43838 0.0
C2114 C 0.62232 0.65241 0.46878 0.0
C2115 C 0.64128 0.64135 0.46678 0.0
C2116 C 0.64698 0.62717 0.43455 0.0
H2117 H 0.15544 0.88408 0.97474 0.0
H2118 H 0.11761 0.8277 0.96681 0.0
H2119 H 0.1036 0.83621 0.03167 0.0
H2120 H 0.16603 0.88167 0.07447 0.0
H2121 H 0.16369 0.91018 0.08668 0.0
H2122 H 0.17139 0.90037 0.03863 0.0
H2123 H 0.14172 0.92176 1.01457 0.0
H2124 H 0.1339 0.93155 0.06269 0.0
H2125 H 0.11621 0.91748 0.03382 0.0
H2126 H 0.09328 0.84941 0.09919 0.0
H2127 H 0.0872 0.86767 0.16348 0.0
H2128 H 0.12995 0.91663 0.13282 0.0
C2129 C 0.14429 0.87348 0.98654 0.0
C2130 C 0.13809 0.85483 0.96424 0.0
C2131 C 0.12306 0.84194 0.98195 0.0
C2132 C 0.11483 0.84662 1.01942 0.0
C2133 C 0.1213 0.86461 0.0405 0.0
C2134 C 0.13556 0.87806 0.02485 0.0
C2135 C 0.13912 0.8967 0.05461 0.0
C2136 C 0.16141 0.89725 0.06412 0.0
C2137 C 0.13237 0.91818 0.04058 0.0
C2138 C 0.12526 0.89107 0.08914 0.0
C2139 C 0.115 0.87253 0.07995 0.0
C2140 C 0.10124 0.86401 0.10654 0.0
C2141 C 0.09779 0.87458 0.14325 0.0
C2142 C 0.1079 0.89372 0.154 0.0
C2143 C 0.12196 0.90195 0.12612 0.0
H2144 H 0.99809 0.53767 0.23694 0.0
H2145 H 0.93734 0.51188 0.23733 0.0
H2146 H 0.94981 0.48205 0.19199 0.0
H2147 H 0.01254 0.52676 0.14208 0.0
H2148 H 0.03826 0.51806 0.14739 0.0
H2149 H 0.02545 0.53662 0.1829 0.0
H2150 H 0.03174 0.5111 0.23543 0.0
H2151 H 0.04531 0.49285 0.20032 0.0
H2152 H 0.02432 0.48343 0.22946 0.0
H2153 H 0.96744 0.45848 0.13978 0.0
H2154 H 0.99139 0.43561 0.09738 0.0
H2155 H 0.04131 0.47489 0.13357 0.0
C2156 C 0.98757 0.52533 0.22856 0.0
C2157 C 0.96666 0.52733 0.24012 0.0
C2158 C 0.95338 0.51082 0.22855 0.0
C2159 C 0.96027 0.4939 0.2025 0.0
C2160 C 0.98062 0.49333 0.18932 0.0
C2161 C 0.99429 0.508 0.20311 0.0
C2162 C 0.01546 0.50332 0.18461 0.0
C2163 C 0.02338 0.52233 0.16297 0.0
C2164 C 0.03007 0.49731 0.21421 0.0
C2165 C 0.01134 0.48415 0.15758 0.0
C2166 C 0.99107 0.4789 0.16041 0.0
C2167 C 0.98343 0.46211 0.13782 0.0
C2168 C 0.99713 0.44938 0.1135 0.0
C2169 C 0.01822 0.45332 0.11252 0.0
C2170 C 0.02526 0.47149 0.13369 0.0
H2171 H 0.77755 0.75221 0.36266 0.0
H2172 H 0.75725 0.81774 0.39709 0.0
H2173 H 0.73238 0.80433 0.44417 0.0
H2174 H 0.7254 0.72767 0.37801 0.0
H2175 H 0.73668 0.70372 0.3936 0.0
H2176 H 0.7503 0.71859 0.35869 0.0
H2177 H 0.78048 0.72087 0.40184 0.0
H2178 H 0.76642 0.70711 0.43775 0.0
H2179 H 0.77656 0.73326 0.4495 0.0
H2180 H 0.71448 0.78469 0.49475 0.0
H2181 H 0.69619 0.7588 0.5333 0.0
H2182 H 0.72755 0.70601 0.46527 0.0
C2183 C 0.76724 0.76366 0.3789 0.0
C2184 C 0.76959 0.78601 0.37676 0.0
C2185 C 0.75585 0.80054 0.39846 0.0
C2186 C 0.7418 0.7931 0.4256 0.0
C2187 C 0.7413 0.77111 0.42967 0.0
C2188 C 0.75292 0.75648 0.40579 0.0
C2189 C 0.74962 0.7337 0.41668 0.0
C2190 C 0.73991 0.72013 0.38487 0.0
C2191 C 0.76946 0.72313 0.42706 0.0
C2192 C 0.73494 0.73799 0.45125 0.0
C2193 C 0.7305 0.75968 0.4584 0.0
C2194 C 0.71751 0.76762 0.48905 0.0
C2195 C 0.70747 0.75284 0.51117 0.0
C2196 C 0.71035 0.73046 0.50208 0.0
C2197 C 0.72511 0.72302 0.47308 0.0
H2198 H 0.50176 0.45648 0.74259 0.0
H2199 H 0.56056 0.48368 0.71401 0.0
H2200 H 0.54423 0.51034 0.67795 0.0
H2201 H 0.48044 0.46071 0.65812 0.0
H2202 H 0.45536 0.46952 0.67689 0.0
H2203 H 0.47089 0.45365 0.70441 0.0
H2204 H 0.46756 0.48289 0.76034 0.0
H2205 H 0.45152 0.49868 0.73359 0.0
H2206 H 0.47396 0.51023 0.75215 0.0
H2207 H 0.52279 0.52947 0.63603 0.0
H2208 H 0.49578 0.54899 0.60746 0.0
H2209 H 0.45027 0.51188 0.66688 0.0
C2210 C 0.51109 0.46857 0.72997 0.0
C2211 C 0.53249 0.46766 0.7304 0.0
C2212 C 0.54418 0.48382 0.71369 0.0
C2213 C 0.53507 0.49894 0.69279 0.0
C2214 C 0.51418 0.49818 0.69007 0.0
C2215 C 0.50216 0.48418 0.70969 0.0
C2216 C 0.47996 0.48724 0.70247 0.0
C2217 C 0.47116 0.46654 0.68439 0.0
C2218 C 0.46752 0.49524 0.73932 0.0
C2219 C 0.48159 0.50455 0.67465 0.0
C2220 C 0.50154 0.51033 0.66752 0.0
C2221 C 0.50706 0.52549 0.64203 0.0
C2222 C 0.49163 0.53627 0.62556 0.0
C2223 C 0.47096 0.53213 0.63529 0.0
C2224 C 0.46594 0.51535 0.65877 0.0
H2225 H 0.73966 0.22276 0.86483 0.0
H2226 H 0.77063 0.17351 0.91968 0.0
H2227 H 0.77895 0.20046 0.97067 0.0
H2228 H 0.76956 0.27073 0.89713 0.0
H2229 H 0.74658 0.28683 0.90326 0.0
H2230 H 0.74916 0.26497 0.86702 0.0
H2231 H 0.71544 0.25036 0.89618 0.0
H2232 H 0.71385 0.27091 0.93473 0.0
H2233 H 0.71402 0.243 0.94449 0.0
H2234 H 0.77902 0.23165 1.02008 0.0
H2235 H 0.77864 0.26731 0.05563 0.0
H2236 H 0.74171 0.29324 0.97316 0.0
C2237 C 0.74923 0.21801 0.88636 0.0
C2238 C 0.75452 0.19631 0.88862 0.0
C2239 C 0.7668 0.19027 0.9173 0.0
C2240 C 0.77113 0.20536 0.94681 0.0
C2241 C 0.76304 0.2261 0.94659 0.0
C2242 C 0.75285 0.23259 0.91652 0.0
C2243 C 0.74366 0.25487 0.92472 0.0
C2244 C 0.7528 0.27026 0.89639 0.0
C2245 C 0.72036 0.25474 0.92501 0.0
C2246 C 0.75028 0.25995 0.96413 0.0
C2247 C 0.76139 0.24318 0.97637 0.0
C2248 C 0.77027 0.24485 1.01091 0.0
C2249 C 0.76951 0.26493 0.03147 0.0
C2250 C 0.75991 0.28268 1.01712 0.0
C2251 C 0.74857 0.27966 0.98518 0.0
H2252 H 0.97864 0.48698 0.77317 0.0
H2253 H 0.98899 0.42495 0.71094 0.0
H2254 H 0.01088 0.44139 0.6627 0.0
H2255 H 0.9718 0.51541 0.70139 0.0
H2256 H 0.98536 0.53939 0.71469 0.0
H2257 H 0.97527 0.52287 0.75067 0.0
H2258 H 0.01078 0.51821 0.77589 0.0
H2259 H 0.02086 0.53568 0.74119 0.0
H2260 H 0.03199 0.50932 0.74324 0.0
H2261 H 0.02245 0.46486 0.61409 0.0
H2262 H 0.03374 0.49382 0.57456 0.0
H2263 H 0.01781 0.54109 0.6687 0.0
C2264 C 0.98666 0.47677 0.75072 0.0
C2265 C 0.98232 0.45478 0.74534 0.0
C2266 C 0.99235 0.44181 0.71518 0.0
C2267 C 0.00468 0.45104 0.68762 0.0
C2268 C 0.00707 0.47315 0.69144 0.0
C2269 C -0.00081 0.48582 0.72299 0.0
C2270 C 0.00263 0.50943 0.71808 0.0
C2271 C 0.98256 0.52252 0.72139 0.0
C2272 C 0.01745 0.51871 0.74628 0.0
C2273 C 0.01222 0.50795 0.67799 0.0
C2274 C 0.01458 0.48687 0.66322 0.0
C2275 C 0.02142 0.48143 0.62565 0.0
C2276 C 0.02738 0.49799 0.60324 0.0
C2277 C 0.02666 0.51954 0.61889 0.0
C2278 C 0.01848 0.52465 0.6563 0.0
H2279 H 0.7914 0.72563 0.94842 0.0
H2280 H 0.74298 0.69419 1.01071 0.0
H2281 H 0.71817 0.72073 0.99244 0.0
H2282 H 0.77236 0.78118 0.96576 0.0
H2283 H 0.77939 0.78789 0.91805 0.0
H2284 H 0.79369 0.76767 0.93901 0.0
H2285 H 0.78669 0.73916 0.88279 0.0
H2286 H 0.77391 0.76053 0.8618 0.0
H2287 H 0.76103 0.73584 0.87004 0.0
H2288 H 0.6982 0.74849 0.96354 0.0
H2289 H 0.68451 0.7768 0.92683 0.0
H2290 H 0.74535 0.79077 0.88291 0.0
C2291 C 0.77566 0.7248 0.95891 0.0
C2292 C 0.76906 0.70818 0.9814 0.0
C2293 C 0.74827 0.70696 0.99365 0.0
C2294 C 0.73409 0.72195 0.98346 0.0
C2295 C 0.7409 0.73792 0.9606 0.0
C2296 C 0.76116 0.73949 0.94837 0.0
C2297 C 0.76407 0.75714 0.92144 0.0
C2298 C 0.77822 0.7745 0.93701 0.0
C2299 C 0.7719 0.74764 0.88165 0.0
C2300 C 0.74243 0.76557 0.92133 0.0
C2301 C 0.72929 0.75404 0.94375 0.0
C2302 C 0.70836 0.75777 0.94614 0.0
C2303 C 0.70067 0.77373 0.925 0.0
C2304 C 0.71382 0.78586 0.90219 0.0
C2305 C 0.73499 0.78185 0.90059 0.0
H2306 H 0.48283 0.45871 0.13471 0.0
H2307 H 0.42731 0.49164 0.18105 0.0
H2308 H 0.44476 0.50652 0.23572 0.0
H2309 H 0.50441 0.44976 0.22982 0.0
H2310 H 0.52972 0.45521 0.2109 0.0
H2311 H 0.51187 0.44243 0.1806 0.0
H2312 H 0.51725 0.4722 0.13372 0.0
H2313 H 0.53505 0.48503 0.16358 0.0
H2314 H 0.5133 0.49999 0.15102 0.0
H2315 H 0.46849 0.52233 0.27886 0.0
H2316 H 0.49813 0.54099 0.304 0.0
H2317 H 0.5386 0.4996 0.22843 0.0
C2318 C 0.4743 0.4684 0.15719 0.0
C2319 C 0.45384 0.47385 0.15427 0.0
C2320 C 0.4431 0.48727 0.18309 0.0
C2321 C 0.45276 0.49551 0.21454 0.0
C2322 C 0.47313 0.49017 0.21654 0.0
C2323 C 0.48386 0.47702 0.18855 0.0
C2324 C 0.50632 0.47695 0.19387 0.0
C2325 C 0.5135 0.45478 0.20444 0.0
C2326 C 0.51868 0.48398 0.15847 0.0
C2327 C 0.50664 0.49354 0.22711 0.0
C2328 C 0.48727 0.50021 0.24088 0.0
C2329 C 0.48373 0.51695 0.26904 0.0
C2330 C 0.50049 0.52753 0.28289 0.0
C2331 C 0.52018 0.52146 0.2677 0.0
C2332 C 0.52343 0.5041 0.24032 0.0
H2333 H 0.74734 0.20342 0.47673 0.0
H2334 H 0.80759 0.22906 0.48746 0.0
H2335 H 0.79705 0.26211 0.45978 0.0
H2336 H 0.73879 0.22135 0.39044 0.0
H2337 H 0.71247 0.22919 0.40037 0.0
H2338 H 0.72334 0.2085 0.42585 0.0
H2339 H 0.71284 0.22964 0.49044 0.0
H2340 H 0.70108 0.24977 0.4649 0.0
H2341 H 0.71977 0.25742 0.49779 0.0
H2342 H 0.78191 0.28954 0.42178 0.0
H2343 H 0.76032 0.31432 0.39034 0.0
H2344 H 0.70933 0.27197 0.40654 0.0
C2345 C 0.75804 0.21635 0.47475 0.0
C2346 C 0.77835 0.2136 0.48399 0.0
C2347 C 0.79197 0.23081 0.48048 0.0
C2348 C 0.78618 0.24959 0.46449 0.0
C2349 C 0.76654 0.25117 0.45306 0.0
C2350 C 0.75239 0.23545 0.45934 0.0
C2351 C 0.73233 0.24118 0.44386 0.0
C2352 C 0.7264 0.22403 0.41332 0.0
C2353 C 0.71553 0.24472 0.47619 0.0
C2354 C 0.73772 0.26209 0.42674 0.0
C2355 C 0.75756 0.26747 0.43216 0.0
C2356 C 0.76621 0.28574 0.41797 0.0
C2357 C 0.7539 0.29957 0.39968 0.0
C2358 C 0.73311 0.29516 0.39613 0.0
C2359 C 0.72517 0.27577 0.40875 0.0
H2360 H 0.2651 0.29075 0.89037 0.0
H2361 H 0.29844 0.23767 0.82687 0.0
H2362 H 0.27928 0.21203 0.86444 0.0
H2363 H 0.26465 0.27166 0.97768 0.0
H2364 H 0.23911 0.27986 0.99446 0.0
H2365 H 0.25277 0.29444 0.9592 0.0
H2366 H 0.22448 0.28824 0.91276 0.0
H2367 H 0.21012 0.2747 0.94864 0.0
H2368 H 0.21571 0.26137 0.90207 0.0
H2369 H 0.26207 0.19313 0.91645 0.0
H2370 H 0.23825 0.17993 0.96546 0.0
H2371 H 0.21435 0.24488 0.99314 0.0
C2372 C 0.26771 0.27371 0.88315 0.0
C2373 C 0.28344 0.26614 0.8561 0.0
C2374 C 0.28649 0.24374 0.84762 0.0
C2375 C 0.27592 0.22909 0.86916 0.0
C2376 C 0.26204 0.23718 0.89828 0.0
C2377 C 0.25716 0.25884 0.90419 0.0
C2378 C 0.24164 0.26321 0.93757 0.0
C2379 C 0.25006 0.27817 0.96907 0.0
C2380 C 0.22181 0.27241 0.92447 0.0
C2381 C 0.23895 0.24063 0.94991 0.0
C2382 C 0.25121 0.226 0.9273 0.0
C2383 C 0.25198 0.20431 0.93375 0.0
C2384 C 0.23854 0.19702 0.96203 0.0
C2385 C 0.22409 0.2113 0.98246 0.0
C2386 C 0.22514 0.23357 0.97783 0.0
H2387 H 0.22642 0.72661 0.35414 0.0
H2388 H 0.25928 0.67716 0.40562 0.0
H2389 H 0.26947 0.70407 0.45475 0.0
H2390 H 0.26204 0.77245 0.37926 0.0
H2391 H 0.24081 0.79102 0.38707 0.0
H2392 H 0.24029 0.76869 0.35186 0.0
H2393 H 0.20624 0.7574 0.38465 0.0
H2394 H 0.20723 0.77882 0.42143 0.0
H2395 H 0.20535 0.7514 0.43368 0.0
H2396 H 0.26945 0.73399 0.50526 0.0
H2397 H 0.27096 0.7691 0.54186 0.0
H2398 H 0.23771 0.79889 0.45798 0.0
C2399 C 0.23689 0.7218 0.37427 0.0
C2400 C 0.24206 0.69996 0.37632 0.0
C2401 C 0.25538 0.69392 0.40339 0.0
C2402 C 0.26088 0.70901 0.43189 0.0
C2403 C 0.25334 0.72996 0.43189 0.0
C2404 C 0.24256 0.73667 0.40275 0.0
C2405 C 0.23546 0.75985 0.41043 0.0
C2406 C 0.24524 0.77383 0.38042 0.0
C2407 C 0.21218 0.76198 0.41263 0.0
C2408 C 0.24344 0.76488 0.44897 0.0
C2409 C 0.2534 0.74729 0.46106 0.0
C2410 C 0.26197 0.74797 0.49588 0.0
C2411 C 0.26224 0.7678 0.51703 0.0
C2412 C 0.25434 0.78647 0.5027 0.0
C2413 C 0.2434 0.7847 0.46994 0.0
H2414 H 0.25762 0.19621 0.44528 0.0
H2415 H 0.30621 0.23354 0.49206 0.0
H2416 H 0.29072 0.26665 0.47217 0.0
H2417 H 0.25381 0.22565 0.36313 0.0
H2418 H 0.22656 0.22424 0.36313 0.0
H2419 H 0.24071 0.2034 0.38276 0.0
H2420 H 0.21887 0.20967 0.44622 0.0
H2421 H 0.20464 0.23068 0.42713 0.0
H2422 H 0.21709 0.23618 0.47035 0.0
H2423 H 0.27037 0.29548 0.44835 0.0
H2424 H 0.24787 0.31859 0.41609 0.0
H2425 H 0.21244 0.26325 0.38182 0.0
C2426 C 0.2649 0.2114 0.45141 0.0
C2427 C 0.28302 0.21239 0.47047 0.0
C2428 C 0.29229 0.23245 0.47763 0.0
C2429 C 0.28356 0.25135 0.4666 0.0
C2430 C 0.26562 0.2499 0.44823 0.0
C2431 C 0.25643 0.23049 0.44031 0.0
C2432 C 0.23764 0.23353 0.41875 0.0
C2433 C 0.23982 0.22096 0.3796 0.0
C2434 C 0.21842 0.22713 0.442 0.0
C2435 C 0.23795 0.25762 0.41525 0.0
C2436 C 0.25409 0.26668 0.4331 0.0
C2437 C 0.25775 0.28857 0.43404 0.0
C2438 C 0.24489 0.30157 0.41553 0.0
C2439 C 0.22861 0.29267 0.39597 0.0
C2440 C 0.22489 0.27044 0.39635 0.0
H2441 H 0.23862 0.70057 0.96293 0.0
H2442 H 0.29406 0.7279 1.00231 0.0
H2443 H 0.28573 0.76212 0.97562 0.0
H2444 H 0.24069 0.72237 0.87651 0.0
H2445 H 0.21394 0.72825 0.87554 0.0
H2446 H 0.22236 0.70676 0.90217 0.0
H2447 H 0.20323 0.72392 0.96393 0.0
H2448 H 0.19394 0.74472 0.93671 0.0
H2449 H 0.20731 0.75175 0.97843 0.0
H2450 H 0.27441 0.79091 0.93517 0.0
H2451 H 0.25609 0.81641 0.89926 0.0
H2452 H 0.2072 0.7711 0.88814 0.0
C2453 C 0.24855 0.71404 0.96743 0.0
C2454 C 0.26696 0.71163 0.98494 0.0
C2455 C 0.27978 0.72951 0.98941 0.0
C2456 C 0.27529 0.74892 0.97391 0.0
C2457 C 0.25785 0.75022 0.95422 0.0
C2458 C 0.24429 0.73357 0.95213 0.0
C2459 C 0.22677 0.73906 0.92887 0.0
C2460 C 0.2259 0.72316 0.8937 0.0
C2461 C 0.20661 0.73992 0.95347 0.0
C2462 C 0.23279 0.76121 0.91769 0.0
C2463 C 0.25095 0.76718 0.93207 0.0
C2464 C 0.25998 0.78659 0.92438 0.0
C2465 C 0.24957 0.80086 0.90342 0.0
C2466 C 0.23017 0.79579 0.89085 0.0
C2467 C 0.22205 0.77538 0.89716 0.0
H2468 H 0.4581 0.02284 0.73246 0.0
H2469 H 0.50692 0.06023 0.77825 0.0
H2470 H 0.5317 0.03977 0.73347 0.0
H2471 H 0.48746 0.97149 0.71398 0.0
H2472 H 0.47475 0.96465 0.67146 0.0
H2473 H 0.46173 0.9807 0.71035 0.0
H2474 H 0.45458 0.00966 0.66401 0.0
H2475 H 0.46852 0.99427 0.62539 0.0
H2476 H 0.47554 0.02152 0.63827 0.0
H2477 H 0.5502 0.01929 0.67752 0.0
H2478 H 0.56332 0.99156 0.6284 0.0
H2479 H 0.5023 0.96765 0.61911 0.0
C2480 C 0.47406 0.02621 0.73412 0.0
C2481 C 0.48058 0.0433 0.75852 0.0
C2482 C 0.50162 0.04723 0.75967 0.0
C2483 C 0.51576 0.03594 0.73396 0.0
C2484 C 0.50857 0.02064 0.70779 0.0
C2485 C 0.48835 0.01516 0.70863 0.0
C2486 C 0.48457 0.99807 0.67743 0.0
C2487 C 0.47667 0.9775 0.69431 0.0
C2488 C 0.46994 0.00639 0.64965 0.0
C2489 C 0.50585 0.99484 0.65886 0.0
C2490 C 0.51937 0.00833 0.67633 0.0
C2491 C 0.53988 0.00828 0.66423 0.0
C2492 C 0.54713 0.99269 0.63583 0.0
C2493 C 0.53389 0.97719 0.62045 0.0
C2494 C 0.51281 0.97922 0.63042 0.0
H2495 H 0.00226 0.96544 0.2377 0.0
H2496 H 0.06249 0.99043 0.21394 0.0
H2497 H 0.04797 0.01811 0.17735 0.0
H2498 H 0.98435 0.9703 0.15055 0.0
H2499 H 0.95891 0.97931 0.16651 0.0
H2500 H 0.97312 0.96303 0.19557 0.0
H2501 H 0.96858 0.99199 0.25217 0.0
H2502 H 0.95345 0.00779 0.22385 0.0
H2503 H 0.97521 0.01939 0.24496 0.0
H2504 H 0.02795 0.03904 0.13516 0.0
H2505 H 0.00204 0.05987 0.10587 0.0
H2506 H 0.95472 0.02192 0.15815 0.0
C2507 C 0.01229 0.97727 0.22615 0.0
C2508 C 0.03355 0.97552 0.22809 0.0
C2509 C 0.04618 0.99133 0.21258 0.0
C2510 C 0.0381 0.00698 0.19133 0.0
C2511 C 0.01734 0.00694 0.18689 0.0
C2512 C 0.00445 0.99317 0.20519 0.0
C2513 C 0.9827 0.99655 0.19556 0.0
C2514 C 0.97429 0.97607 0.17588 0.0
C2515 C 0.96919 0.00441 0.23124 0.0
C2516 C 0.98552 0.014 0.16831 0.0
C2517 C 0.00566 0.01953 0.16334 0.0
C2518 C 0.01207 0.03514 0.13933 0.0
C2519 C 0.99729 0.04664 0.12235 0.0
C2520 C 0.9764 0.04265 0.13002 0.0
C2521 C 0.97056 0.02531 0.15157 0.0
H2522 H 0.47686 0.95442 0.21642 0.0
H2523 H 0.46563 0.00369 0.30895 0.0
H2524 H 0.48945 0.02758 0.27632 0.0
H2525 H 0.53196 0.9665 0.19695 0.0
H2526 H 0.53029 0.96035 0.14674 0.0
H2527 H 0.51454 0.9465 0.18028 0.0
H2528 H 0.48286 0.95827 0.14751 0.0
H2529 H 0.49825 0.97294 0.11482 0.0
H2530 H 0.47777 0.98649 0.14397 0.0
H2531 H 0.50851 0.04805 0.22811 0.0
H2532 H 0.52893 0.06113 0.17361 0.0
H2533 H 0.53014 0.99736 0.11622 0.0
C2534 C 0.48 0.96993 0.23037 0.0
C2535 C 0.46955 0.9774 0.2648 0.0
C2536 C 0.47369 0.9978 0.28242 0.0
C2537 C 0.48706 0.01147 0.26411 0.0
C2538 C 0.49633 0.00405 0.22898 0.0
C2539 C 0.49355 0.9835 0.21293 0.0
C2540 C 0.50471 0.97967 0.17437 0.0
C2541 C 0.52138 0.96223 0.17463 0.0
C2542 C 0.49001 0.97402 0.14338 0.0
C2543 C 0.51355 0.0016 0.17066 0.0
C2544 C 0.50834 0.01552 0.20219 0.0
C2545 C 0.51321 0.03719 0.20369 0.0
C2546 C 0.52451 0.04456 0.17261 0.0
C2547 C 0.53107 0.03014 0.14148 0.0
C2548 C 0.52534 0.00855 0.14018 0.0
H2549 H 0.95503 0.00069 0.65201 0.0
H2550 H 0.99503 0.9624 0.57043 0.0
H2551 H 0.0248 0.97587 0.60315 0.0
H2552 H 0.98934 0.04727 0.66479 0.0
H2553 H 0.98188 0.05142 0.71481 0.0
H2554 H 0.96404 0.04096 0.68225 0.0
H2555 H 0.95836 0.00795 0.72138 0.0
H2556 H 0.97625 0.01791 0.75413 0.0
H2557 H 0.97981 0.9914 0.73039 0.0
H2558 H 0.04883 0.9889 0.64948 0.0
H2559 H 0.06694 0.00357 0.70361 0.0
H2560 H 0.01143 0.03534 0.75357 0.0
C2561 C 0.97018 0.99594 0.64035 0.0
C2562 C 0.97318 0.98102 0.60871 0.0
C2563 C 0.99285 0.9743 0.59433 0.0
C2564 C 0.0097 0.98184 0.61268 0.0
C2565 C 0.00631 0.99628 0.64457 0.0
C2566 C 0.98708 0.00357 0.65792 0.0
C2567 C 0.9874 0.01771 0.69437 0.0
C2568 C 0.98026 0.04072 0.68873 0.0
C2569 C 0.97471 0.00816 0.72696 0.0
C2570 C 0.00978 0.01664 0.70022 0.0
C2571 C 0.02036 0.00416 0.67118 0.0
C2572 C 0.04085 -0.00093 0.67198 0.0
C2573 C 0.05089 0.00725 0.70307 0.0
C2574 C 0.04046 0.02062 0.73249 0.0
C2575 C 0.01969 0.02536 0.7311 0.0
H2576 H 0.04945 0.4164 0.95549 0.0
H2577 H 0.0179 0.36979 1.02187 0.0
H2578 H 0.99208 0.36628 0.97492 0.0
H2579 H 0.00643 0.44295 0.92705 0.0
H2580 H 0.0166 0.44658 0.87945 0.0
H2581 H 0.03348 0.4446 0.91683 0.0
H2582 H 0.05296 0.41302 0.87839 0.0
H2583 H 0.03631 0.41497 0.84059 0.0
H2584 H 0.0393 0.38979 0.86159 0.0
H2585 H 0.9671 0.37132 0.92502 0.0
H2586 H 0.94766 0.38071 0.87101 0.0
H2587 H 0.99648 0.42128 0.83303 0.0
C2588 C 0.03735 0.4051 0.95975 0.0
C2589 C 0.03588 0.3933 0.99256 0.0
C2590 C 0.01963 0.37885 0.99699 0.0
C2591 C 0.00475 0.37684 0.9705 0.0
C2592 C 0.00637 0.38907 0.93908 0.0
C2593 C 0.02252 0.40256 0.93308 0.0
C2594 C 0.0206 0.41393 0.89692 0.0
C2595 C 0.01919 0.43847 0.9056 0.0
C2596 C 0.03835 0.40754 0.86764 0.0
C2597 C 0.00064 0.40508 0.88399 0.0
C2598 C 0.99258 0.39094 0.90901 0.0
C2599 C 0.97352 0.38196 0.9048 0.0
C2600 C 0.96254 0.38739 0.87414 0.0
C2601 C 0.97074 0.40128 0.8475 0.0
C2602 C 0.99009 0.41017 0.85248 0.0
H2603 H 0.82141 0.74361 0.08788 0.0
H2604 H 0.83552 0.6824 0.13133 0.0
H2605 H 0.8442 0.70124 0.19177 0.0
H2606 H 0.85956 0.77589 0.13489 0.0
H2607 H 0.84269 0.79884 0.1456 0.0
H2608 H 0.83966 0.78088 0.10419 0.0
H2609 H 0.80219 0.77485 0.12735 0.0
H2610 H 0.80506 0.79298 0.16848 0.0
H2611 H 0.79649 0.76603 0.17416 0.0
H2612 H 0.85096 0.72655 0.24765 0.0
H2613 H 0.84947 0.75584 0.29886 0.0
H2614 H 0.82869 0.80024 0.22067 0.0
C2615 C 0.8266 0.73426 0.10999 0.0
C2616 C 0.82802 0.71163 0.10497 0.0
C2617 C 0.83436 0.69979 0.13474 0.0
C2618 C 0.83952 0.71034 0.16896 0.0
C2619 C 0.83806 0.7327 0.17307 0.0
C2620 C 0.83138 0.74451 0.1447 0.0
C2621 C 0.82905 0.76813 0.15787 0.0
C2622 C 0.84361 0.78173 0.13422 0.0
C2623 C 0.80688 0.77595 0.15692 0.0
C2624 C 0.83523 0.76769 0.19817 0.0
C2625 C 0.84086 0.74719 0.20608 0.0
C2626 C 0.84666 0.7427 0.24179 0.0
C2627 C 0.84592 0.75946 0.27062 0.0
C2628 C 0.83904 0.78028 0.26366 0.0
C2629 C 0.83414 0.78449 0.22671 0.0
H2630 H 0.51724 0.55033 0.39727 0.0
H2631 H 0.52195 0.61698 0.37209 0.0
H2632 H 0.4998 0.62795 0.42998 0.0
H2633 H 0.46418 0.55414 0.42836 0.0
H2634 H 0.46598 0.53556 0.4646 0.0
H2635 H 0.48352 0.53324 0.42315 0.0
H2636 H 0.51375 0.53576 0.46596 0.0
H2637 H 0.49628 0.53809 0.50755 0.0
H2638 H 0.51506 0.55836 0.50049 0.0
H2639 H 0.47693 0.63159 0.49317 0.0
H2640 H 0.45342 0.62687 0.54999 0.0
H2641 H 0.46128 0.55778 0.52975 0.0
C2642 C 0.51382 0.56725 0.40431 0.0
C2643 C 0.52166 0.58286 0.38043 0.0
C2644 C 0.5163 0.60477 0.39009 0.0
C2645 C 0.50372 0.61115 0.42302 0.0
C2646 C 0.49611 0.59541 0.44593 0.0
C2647 C 0.50078 0.57385 0.43661 0.0
C2648 C 0.48953 0.55998 0.46438 0.0
C2649 C 0.47494 0.54484 0.4439 0.0
C2650 C 0.50455 0.5473 0.48586 0.0
C2651 C 0.47793 0.577 0.49077 0.0
C2652 C 0.4821 0.59741 0.4802 0.0
C2653 C 0.47346 0.61561 0.50136 0.0
C2654 C 0.46013 0.61284 0.5337 0.0
C2655 C 0.45513 0.59201 0.54421 0.0
C2656 C 0.46438 0.57399 0.52227 0.0
H2657 H 0.70022 0.28113 0.67289 0.0
H2658 H 0.66453 0.22373 0.65617 0.0
H2659 H 0.65843 0.23321 0.59149 0.0
H2660 H 0.66959 0.31576 0.62558 0.0
H2661 H 0.69031 0.32981 0.60352 0.0
H2662 H 0.69323 0.31839 0.64796 0.0
H2663 H 0.72479 0.29643 0.61927 0.0
H2664 H 0.72255 0.30799 0.57454 0.0
H2665 H 0.72316 0.27924 0.57644 0.0
H2666 H 0.65588 0.24921 0.52883 0.0
H2667 H 0.65746 0.27035 0.47254 0.0
H2668 H 0.69397 0.31779 0.53114 0.0
C2669 C 0.69108 0.27058 0.65567 0.0
C2670 C 0.68288 0.25166 0.66958 0.0
C2671 C 0.6712 0.23815 0.64594 0.0
C2672 C 0.66755 0.24346 0.60925 0.0
C2673 C 0.6757 0.26231 0.59656 0.0
C2674 C 0.68731 0.27559 0.61896 0.0
C2675 C 0.69433 0.2949 0.59855 0.0
C2676 C 0.68638 0.31595 0.62024 0.0
C2677 C 0.71759 0.29463 0.59183 0.0
C2678 C 0.68442 0.29071 0.56156 0.0
C2679 C 0.67393 0.2717 0.56078 0.0
C2680 C 0.664 0.26416 0.52914 0.0
C2681 C 0.66499 0.27628 0.49732 0.0
C2682 C 0.67576 0.29576 0.49745 0.0
C2683 C 0.68545 0.30307 0.5302 0.0
H2684 H 0.99063 0.59698 1.01013 0.0
H2685 H 0.92568 0.60969 1.01379 0.0
H2686 H 0.92745 0.60718 0.94378 0.0
H2687 H 0.00394 0.62881 0.93351 0.0
H2688 H 0.02405 0.61088 0.91281 0.0
H2689 H 0.0174 0.61207 0.96309 0.0
H2690 H 0.01165 0.57098 0.95844 0.0
H2691 H 0.0182 0.56969 0.90807 0.0
H2692 H 0.9942 0.55963 0.92584 0.0
H2693 H 0.93662 0.60527 0.87326 0.0
H2694 H 0.95244 0.60424 0.80786 0.0
H2695 H 0.01156 0.59379 0.85025 0.0
C2696 C 0.97675 0.59929 0.99632 0.0
C2697 C 0.95799 0.60353 1.01771 0.0
C2698 C 0.94019 0.60612 0.99824 0.0
C2699 C 0.94106 0.60482 0.9584 0.0
C2700 C 0.95982 0.60086 0.93831 0.0
C2701 C 0.97735 0.59809 0.95661 0.0
C2702 C 0.99572 0.59481 0.92845 0.0
C2703 C 0.01118 0.61271 0.93485 0.0
C2704 C 0.00552 0.57245 0.93032 0.0
C2705 C 0.98585 0.5965 0.89144 0.0
C2706 C 0.96512 0.59986 0.89774 0.0
C2707 C 0.95283 0.60258 0.86801 0.0
C2708 C 0.96198 0.60209 0.83097 0.0
C2709 C 0.98325 0.59898 0.82383 0.0
C2710 C 0.99523 0.5959 0.85461 0.0
H2711 H 0.63067 0.72111 0.25653 0.0
H2712 H 0.68084 0.75814 0.29793 0.0
H2713 H 0.68662 0.77276 0.23542 0.0
H2714 H 0.65295 0.7087 0.16038 0.0
H2715 H 0.62916 0.71137 0.13903 0.0
H2716 H 0.62948 0.70299 0.18655 0.0
H2717 H 0.6047 0.73432 0.21111 0.0
H2718 H 0.60428 0.74278 0.16369 0.0
H2719 H 0.61123 0.76147 0.2017 0.0
H2720 H 0.68604 0.78477 0.16916 0.0
H2721 H 0.67951 0.79271 0.10394 0.0
H2722 H 0.62944 0.74838 0.10526 0.0
C2723 C 0.64287 0.73231 0.25254 0.0
C2724 C 0.65535 0.73834 0.2824 0.0
C2725 C 0.67126 0.75291 0.27556 0.0
C2726 C 0.6746 0.76144 0.24013 0.0
C2727 C 0.66196 0.75527 0.21152 0.0
C2728 C 0.64645 0.74098 0.21726 0.0
C2729 C 0.63481 0.7373 0.18194 0.0
C2730 C 0.63672 0.71369 0.16604 0.0
C2731 C 0.61243 0.7444 0.19011 0.0
C2732 C 0.64603 0.75197 0.15562 0.0
C2733 C 0.66166 0.76214 0.17326 0.0
C2734 C 0.67387 0.77684 0.15507 0.0
C2735 C 0.66996 0.78134 0.11801 0.0
C2736 C 0.65395 0.77122 0.09925 0.0
C2737 C 0.64196 0.7562 0.11846 0.0
H2738 H 0.54888 0.40152 0.4607 0.0
H2739 H 0.50078 0.36234 0.50713 0.0
H2740 H 0.48474 0.36118 0.44649 0.0
H2741 H 0.51732 0.43295 0.40588 0.0
H2742 H 0.53587 0.43376 0.36621 0.0
H2743 H 0.54402 0.43142 0.41321 0.0
H2744 H 0.56468 0.39686 0.38937 0.0
H2745 H 0.55663 0.39911 0.34228 0.0
H2746 H 0.55214 0.37476 0.36564 0.0
H2747 H 0.47313 0.36492 0.38232 0.0
H2748 H 0.46743 0.37191 0.31638 0.0
H2749 H 0.52293 0.40833 0.30938 0.0
C2750 C 0.53501 0.39267 0.45799 0.0
C2751 C 0.52624 0.3818 0.48865 0.0
C2752 C 0.50805 0.3704 0.48393 0.0
C2753 C 0.4987 0.36979 0.44964 0.0
C2754 C 0.50769 0.3806 0.42007 0.0
C2755 C 0.52549 0.39173 0.42365 0.0
C2756 C 0.53191 0.40181 0.38703 0.0
C2757 C 0.5323 0.42645 0.39348 0.0
C2758 C 0.55257 0.39257 0.37008 0.0
C2759 C 0.51488 0.39464 0.36254 0.0
C2760 C 0.50105 0.38254 0.38241 0.0
C2761 C 0.48385 0.37435 0.3664 0.0
C2762 C 0.48068 0.37853 0.32898 0.0
C2763 C 0.49466 0.39074 0.30772 0.0
C2764 C 0.51204 0.39884 0.32482 0.0
H2765 H 0.81416 0.30929 0.86256 0.0
H2766 H 0.81037 0.25358 0.9288 0.0
H2767 H 0.81414 0.22971 0.86998 0.0
H2768 H 0.78768 0.28663 0.7819 0.0
H2769 H 0.80411 0.2984 0.74661 0.0
H2770 H 0.80008 0.31157 0.79364 0.0
H2771 H 0.8387 0.3115 0.80075 0.0
H2772 H 0.84302 0.29852 0.75364 0.0
H2773 H 0.85297 0.28652 0.79335 0.0
H2774 H 0.81872 0.21142 0.80403 0.0
H2775 H 0.82549 0.19996 0.73632 0.0
H2776 H 0.8286 0.26681 0.71032 0.0
C2777 C 0.81403 0.29207 0.86461 0.0
C2778 C 0.81199 0.28342 0.90072 0.0
C2779 C 0.81212 0.26073 0.90186 0.0
C2780 C 0.81414 0.24697 0.86842 0.0
C2781 C 0.81637 0.25591 0.83347 0.0
C2782 C 0.81649 0.27793 0.83121 0.0
C2783 C 0.82015 0.28315 0.78983 0.0
C2784 C 0.80191 0.29568 0.77725 0.0
C2785 C 0.83988 0.29567 0.78406 0.0
C2786 C 0.82209 0.26067 0.76933 0.0
C2787 C 0.81966 0.24526 0.79523 0.0
C2788 C 0.82082 0.22339 0.7836 0.0
C2789 C 0.82488 0.21701 0.74481 0.0
C2790 C 0.82801 0.23229 0.71731 0.0
C2791 C 0.82628 0.25454 0.73012 0.0
H2792 H 0.02555 0.55285 0.47639 0.0
H2793 H 0.02234 0.61803 0.52839 0.0
H2794 H 0.00159 0.62916 0.47738 0.0
H2795 H 0.02676 0.56519 0.37766 0.0
H2796 H 0.01034 0.54351 0.36415 0.0
H2797 H 0.02631 0.54114 0.40287 0.0
H2798 H 0.99477 0.53354 0.4473 0.0
H2799 H 0.97874 0.53582 0.4087 0.0
H2800 H 0.97362 0.55237 0.45234 0.0
H2801 H 0.98132 0.63323 0.41874 0.0
H2802 H 0.95991 0.62862 0.36375 0.0
H2803 H 0.97358 0.56024 0.35449 0.0
C2804 C 0.02064 0.56951 0.47674 0.0
C2805 C 0.02578 0.58466 0.50611 0.0
C2806 C 0.01865 0.60618 0.50611 0.0
C2807 C 0.00692 0.61267 0.47713 0.0
C2808 C 0.00203 0.59735 0.44859 0.0
C2809 C 0.00839 0.57611 0.44862 0.0
C2810 C -0.00027 0.56244 0.41656 0.0
C2811 C 0.0168 0.55249 0.38866 0.0
C2812 C 0.9859 0.54502 0.43216 0.0
C2813 C 0.98757 0.57926 0.39846 0.0
C2814 C 0.98937 0.5994 0.41678 0.0
C2815 C 0.97974 0.61747 0.4044 0.0
C2816 C 0.96769 0.61478 0.37305 0.0
C2817 C 0.96499 0.59411 0.35504 0.0
C2818 C 0.97525 0.57625 0.3679 0.0
H2819 H 0.17983 0.2477 0.27259 0.0
H2820 H 0.16354 0.30868 0.23055 0.0
H2821 H 0.15251 0.28973 0.1722 0.0
H2822 H 0.20191 0.22539 0.18328 0.0
H2823 H 0.19391 0.19837 0.19019 0.0
H2824 H 0.19814 0.21659 0.23054 0.0
H2825 H 0.16156 0.21013 0.25847 0.0
H2826 H 0.15716 0.19216 0.21774 0.0
H2827 H 0.14036 0.21495 0.23068 0.0
H2828 H 0.14396 0.26438 0.11763 0.0
H2829 H 0.1444 0.23528 0.06619 0.0
H2830 H 0.16872 0.19103 0.14102 0.0
C2831 C 0.17376 0.25697 0.25117 0.0
C2832 C 0.17227 0.27961 0.25624 0.0
C2833 C 0.16473 0.2913 0.22729 0.0
C2834 C 0.15826 0.28067 0.19417 0.0
C2835 C 0.1598 0.25833 0.19 0.0
C2836 C 0.16779 0.24662 0.21729 0.0
C2837 C 0.16993 0.223 0.20382 0.0
C2838 C 0.19229 0.2154 0.20182 0.0
C2839 C 0.15644 0.20925 0.22919 0.0
C2840 C 0.16216 0.22337 0.1646 0.0
C2841 C 0.15588 0.2438 0.15758 0.0
C2842 C 0.14874 0.24827 0.12282 0.0
C2843 C 0.14886 0.2316 0.09386 0.0
C2844 C 0.15647 0.2109 0.09969 0.0
C2845 C 0.16262 0.20666 0.13589 0.0
H2846 H 0.4786 0.44762 0.97784 0.0
H2847 H 0.46426 0.38114 0.99295 0.0
H2848 H 0.48475 0.36975 0.9334 0.0
H2849 H 0.4798 0.44464 0.87425 0.0
H2850 H 0.50131 0.46193 0.86931 0.0
H2851 H 0.48425 0.46502 0.91143 0.0
H2852 H 0.5145 0.46036 0.953 0.0
H2853 H 0.5316 0.45727 0.91098 0.0
H2854 H 0.53074 0.43678 0.94424 0.0
H2855 H 0.50696 0.3656 0.87024 0.0
H2856 H 0.53114 0.36906 0.81398 0.0
H2857 H 0.53349 0.43765 0.8434 0.0
C2858 C 0.47959 0.43071 0.96827 0.0
C2859 C 0.46956 0.41528 0.98988 0.0
C2860 C 0.47168 0.39326 0.97682 0.0
C2861 C 0.48329 0.38663 0.94292 0.0
C2862 C 0.49315 0.40215 0.92236 0.0
C2863 C 0.49163 0.42374 0.93484 0.0
C2864 C 0.50482 0.437 0.90882 0.0
C2865 C 0.49176 0.4531 0.88983 0.0
C2866 C 0.52139 0.44853 0.93056 0.0
C2867 C 0.51395 0.41958 0.87993 0.0
C2868 C 0.5068 0.39959 0.88774 0.0
C2869 C 0.51276 0.3812 0.86415 0.0
C2870 C 0.52648 0.38327 0.83214 0.0
C2871 C 0.53452 0.40351 0.82435 0.0
C2872 C 0.52796 0.42182 0.84874 0.0
H2873 H 0.33304 0.71866 0.7003 0.0
H2874 H 0.30162 0.77945 0.73336 0.0
H2875 H 0.29942 0.77044 0.80044 0.0
H2876 H 0.30647 0.68641 0.76348 0.0
H2877 H 0.3286 0.67109 0.77303 0.0
H2878 H 0.32753 0.68266 0.72821 0.0
H2879 H 0.36112 0.70088 0.74011 0.0
H2880 H 0.36239 0.69337 0.78805 0.0
H2881 H 0.36242 0.72113 0.77892 0.0
H2882 H 0.30169 0.75471 0.86419 0.0
H2883 H 0.30464 0.73186 0.91776 0.0
H2884 H 0.33356 0.68133 0.8413 0.0
C2885 C 0.32574 0.73014 0.72161 0.0
C2886 C 0.31761 0.74977 0.71178 0.0
C2887 C 0.30787 0.76424 0.74038 0.0
C2888 C 0.3067 0.75934 0.7785 0.0
C2889 C 0.31533 0.73998 0.78725 0.0
C2890 C 0.32444 0.72556 0.75948 0.0
C2891 C 0.33272 0.70596 0.77594 0.0
C2892 C 0.32329 0.68529 0.75913 0.0
C2893 C 0.35602 0.70525 0.77031 0.0
C2894 C 0.32574 0.71081 0.81716 0.0
C2895 C 0.31635 0.73086 0.82341 0.0
C2896 C 0.30897 0.73899 0.85953 0.0
C2897 C 0.31074 0.72598 0.88973 0.0
C2898 C 0.31922 0.70497 0.88326 0.0
C2899 C 0.32703 0.69739 0.84671 0.0
H2900 H 0.01688 0.39917 0.34087 0.0
H2901 H 0.03723 0.33264 0.31882 0.0
H2902 H 0.03032 0.32695 0.38661 0.0
H2903 H 0.03715 0.40788 0.43379 0.0
H2904 H 0.01592 0.42459 0.45343 0.0
H2905 H 0.02333 0.42377 0.40341 0.0
H2906 H 0.98687 0.41306 0.38819 0.0
H2907 H 0.97937 0.41375 0.43813 0.0
H2908 H 0.9758 0.38974 0.40793 0.0
H2909 H 0.01966 0.32784 0.45574 0.0
H2910 H 0.00689 0.33543 0.52243 0.0
H2911 H 0.99366 0.40157 0.50062 0.0
C2912 C 0.01992 0.38341 0.35032 0.0
C2913 C 0.02769 0.36636 0.32446 0.0
C2914 C 0.0316 0.34604 0.33809 0.0
C2915 C 0.0276 0.34261 0.37653 0.0
C2916 C 0.01976 0.35967 0.40112 0.0
C2917 C 0.01606 0.37972 0.38868 0.0
C2918 C 0.00737 0.39522 0.42104 0.0
C2919 C 0.02181 0.41397 0.42835 0.0
C2920 C 0.98609 0.40342 0.41335 0.0
C2921 C 0.00643 0.38063 0.45345 0.0
C2922 C 0.01374 0.36024 0.44128 0.0
C2923 C 0.01412 0.34382 0.46571 0.0
C2924 C 0.00693 0.34835 0.50367 0.0
C2925 C -0.00053 0.36918 0.51705 0.0
C2926 C -0.0008 0.38548 0.49137 0.0
H2927 H 0.36859 0.24826 0.09123 0.0
H2928 H 0.31252 0.28606 0.10139 0.0
H2929 H 0.30733 0.27847 0.16867 0.0
H2930 H 0.35068 0.20694 0.15116 0.0
H2931 H 0.37464 0.20384 0.17173 0.0
H2932 H 0.37403 0.21237 0.12437 0.0
H2933 H 0.39425 0.24624 0.14374 0.0
H2934 H 0.39489 0.23783 0.19117 0.0
H2935 H 0.3847 0.26401 0.18373 0.0
H2936 H 0.3081 0.26651 0.23532 0.0
H2937 H 0.31516 0.25201 0.29598 0.0
H2938 H 0.37031 0.22112 0.24243 0.0
C2939 C 0.35511 0.25483 0.10742 0.0
C2940 C 0.34099 0.26787 0.09065 0.0
C2941 C 0.32375 0.27633 0.11339 0.0
C2942 C 0.32058 0.27196 0.15169 0.0
C2943 C 0.33476 0.25905 0.16718 0.0
C2944 C 0.3517 0.25062 0.14576 0.0
C2945 C 0.36468 0.23731 0.16934 0.0
C2946 C 0.36608 0.21372 0.15318 0.0
C2947 C 0.38588 0.24693 0.17216 0.0
C2948 C 0.35244 0.23963 0.20741 0.0
C2949 C 0.33519 0.25217 0.2055 0.0
C2950 C 0.32153 0.25661 0.23705 0.0
C2951 C 0.32563 0.24813 0.27142 0.0
C2952 C 0.34328 0.23528 0.27432 0.0
C2953 C 0.35679 0.23102 0.24157 0.0
H2954 H 0.46735 0.60359 0.06264 0.0
H2955 H 0.52383 0.56656 0.04527 0.0
H2956 H 0.52019 0.56331 0.97644 0.0
H2957 H 0.44115 0.57411 0.98769 0.0
H2958 H 0.42862 0.59785 0.97393 0.0
H2959 H 0.435 0.59635 0.02229 0.0
H2960 H 0.45502 0.63162 1.0186 0.0
H2961 H 0.44872 0.63323 0.97027 0.0
H2962 H 0.47491 0.63349 0.9815 0.0
H2963 H 0.51204 0.56642 0.90923 0.0
H2964 H 0.49898 0.57438 0.84799 0.0
H2965 H 0.4472 0.60843 0.90772 0.0
C2966 C 0.47891 0.59473 0.04438 0.0
C2967 C 0.49587 0.58526 0.05962 0.0
C2968 C 0.51056 0.57368 0.03459 0.0
C2969 C 0.50868 0.57183 0.99531 0.0
C2970 C 0.49193 0.58151 0.98128 0.0
C2971 C 0.4772 0.59258 1.00499 0.0
C2972 C 0.46091 0.60184 0.98234 0.0
C2973 C 0.44019 0.59194 0.99215 0.0
C2974 C 0.45984 0.62651 0.98855 0.0
C2975 C 0.469 0.59456 0.94217 0.0
C2976 C 0.48694 0.58286 0.94231 0.0
C2977 C 0.49789 0.57533 0.90877 0.0
C2978 C 0.49041 0.57995 0.87418 0.0
C2979 C 0.47206 0.59183 0.87328 0.0
C2980 C 0.46111 0.59903 0.90773 0.0
H2981 H 0.18093 0.7288 0.66548 0.0
H2982 H 0.15519 0.79011 0.64053 0.0
H2983 H 0.15912 0.77905 0.57229 0.0
H2984 H 0.21802 0.72301 0.58188 0.0
H2985 H 0.21483 0.69443 0.57379 0.0
H2986 H 0.21106 0.70721 0.62117 0.0
H2987 H 0.17496 0.69152 0.62756 0.0
H2988 H 0.17866 0.67882 0.58014 0.0
H2989 H 0.15723 0.69675 0.59278 0.0
H2990 H 0.16376 0.76159 0.50799 0.0
H2991 H 0.16994 0.73895 0.44898 0.0
H2992 H 0.19364 0.68781 0.51122 0.0
C2993 C 0.17637 0.73994 0.64552 0.0
C2994 C 0.16757 0.76036 0.65857 0.0
C2995 C 0.16167 0.77435 0.63148 0.0
C2996 C 0.16393 0.76824 0.59255 0.0
C2997 C 0.17218 0.74799 0.58067 0.0
C2998 C 0.17843 0.73398 0.60608 0.0
C2999 C 0.18633 0.71291 0.5849 0.0
C3000 C 0.2089 0.70917 0.59079 0.0
C3001 C 0.17353 0.69387 0.59709 0.0
C3002 C 0.18331 0.71732 0.54385 0.0
C3003 C 0.17517 0.73775 0.54251 0.0
C3004 C 0.17038 0.74567 0.5086 0.0
C3005 C 0.17405 0.73255 0.47501 0.0
C3006 C 0.18272 0.71158 0.47483 0.0
C3007 C 0.18728 0.70381 0.51006 0.0
H3008 H 0.47338 0.94983 0.3831 0.0
H3009 H 0.45737 0.88332 0.36001 0.0
H3010 H 0.47808 0.87283 0.41169 0.0
H3011 H 0.52531 0.93846 0.39904 0.0
H3012 H 0.52692 0.95993 0.43562 0.0
H3013 H 0.50955 0.9623 0.39915 0.0
H3014 H 0.47972 0.96899 0.45045 0.0
H3015 H 0.49701 0.96669 0.48709 0.0
H3016 H 0.47513 0.94979 0.48549 0.0
H3017 H 0.50054 0.86994 0.46772 0.0
H3018 H 0.52511 0.87449 0.51765 0.0
H3019 H 0.52872 0.94228 0.49929 0.0
C3020 C 0.47407 0.93312 0.38936 0.0
C3021 C 0.46355 0.91737 0.36812 0.0
C3022 C 0.4652 0.89559 0.3763 0.0
C3023 C 0.4769 0.88952 0.40561 0.0
C3024 C 0.48723 0.90539 0.42605 0.0
C3025 C 0.48613 0.92672 0.41789 0.0
C3026 C 0.49971 0.94045 0.44223 0.0
C3027 C 0.51636 0.9509 0.41753 0.0
C3028 C 0.48714 0.95748 0.46783 0.0
C3029 C 0.50861 0.92359 0.46533 0.0
C3030 C 0.50101 0.9035 0.45617 0.0
C3031 C 0.5067 0.88559 0.47482 0.0
C3032 C 0.52062 0.88829 0.5032 0.0
C3033 C 0.52906 0.90862 0.51204 0.0
C3034 C 0.52282 0.92642 0.49279 0.0
H3035 H 0.33072 0.24206 0.57941 0.0
H3036 H 0.34455 0.18123 0.62434 0.0
H3037 H 0.35392 0.20057 0.68397 0.0
H3038 H 0.36897 0.27515 0.62522 0.0
H3039 H 0.3519 0.29791 0.63621 0.0
H3040 H 0.34875 0.2798 0.59502 0.0
H3041 H 0.31152 0.2733 0.61915 0.0
H3042 H 0.31449 0.29163 0.65997 0.0
H3043 H 0.3063 0.26461 0.66618 0.0
H3044 H 0.36206 0.226 0.73818 0.0
H3045 H 0.36009 0.2551 0.78958 0.0
H3046 H 0.33772 0.29914 0.71235 0.0
C3047 C 0.33613 0.2329 0.60158 0.0
C3048 C 0.33738 0.21023 0.59714 0.0
C3049 C 0.34375 0.19864 0.62715 0.0
C3050 C 0.34932 0.20945 0.66085 0.0
C3051 C 0.34822 0.23182 0.66427 0.0
C3052 C 0.34124 0.24342 0.63592 0.0
C3053 C 0.33873 0.26707 0.64902 0.0
C3054 C 0.35294 0.28079 0.62492 0.0
C3055 C 0.31644 0.27458 0.64856 0.0
C3056 C 0.34524 0.26685 0.6892 0.0
C3057 C 0.35127 0.24646 0.69696 0.0
C3058 C 0.35743 0.24208 0.73247 0.0
C3059 C 0.35647 0.25876 0.7614 0.0
C3060 C 0.3489 0.27938 0.75484 0.0
C3061 C 0.34381 0.28358 0.71797 0.0
H3062 H 0.94465 0.08981 1.00014 0.0
H3063 H 0.98666 0.11411 0.08099 0.0
H3064 H 0.01446 0.11133 0.03012 0.0
H3065 H 0.97735 0.05192 0.94834 0.0
H3066 H 0.96879 0.05642 0.90235 0.0
H3067 H 0.95187 0.06174 0.94422 0.0
H3068 H 0.94607 0.1008 0.92721 0.0
H3069 H 0.96271 0.09557 0.88487 0.0
H3070 H 0.96761 0.11765 0.91859 0.0
H3071 H 0.03888 0.10108 0.97119 0.0
H3072 H 0.05622 0.09046 0.90813 0.0
H3073 H 0.99809 0.07612 0.86363 0.0
C3074 C 0.95957 0.09518 1.00698 0.0
C3075 C 0.96324 0.1025 0.04488 0.0
C3076 C 0.98318 0.10892 0.05236 0.0
C3077 C -0.00081 0.10713 0.02357 0.0
C3078 C 0.99515 0.09924 0.9869 0.0
C3079 C 0.97566 0.09393 0.97833 0.0
C3080 C 0.97531 0.08588 0.93665 0.0
C3081 C 0.96789 0.06261 0.93267 0.0
C3082 C 0.96215 0.10087 0.91558 0.0
C3083 C 0.99767 0.08713 0.92316 0.0
C3084 C 0.00892 0.09457 0.95275 0.0
C3085 C 0.03007 0.09571 0.94778 0.0
C3086 C 0.03986 0.08957 0.91177 0.0
C3087 C 0.02864 0.08281 0.88048 0.0
C3088 C 0.00719 0.08156 0.88661 0.0
H3089 H 0.18418 0.81985 0.02552 0.0
H3090 H 0.15997 0.76763 0.9552 0.0
H3091 H 0.15836 0.74514 1.00962 0.0
H3092 H 0.21543 0.78744 0.07812 0.0
H3093 H 0.21049 0.80481 0.12092 0.0
H3094 H 0.2094 0.81542 0.07518 0.0
H3095 H 0.17218 0.82963 0.09664 0.0
H3096 H 0.17403 0.81805 0.14132 0.0
H3097 H 0.15367 0.81063 0.11195 0.0
H3098 H 0.16086 0.72793 0.07092 0.0
H3099 H 0.16449 0.71829 0.13655 0.0
H3100 H 0.18676 0.78206 0.16603 0.0
C3101 C 0.17839 0.80377 1.02153 0.0
C3102 C 0.17239 0.79543 0.98608 0.0
C3103 C 0.16478 0.77432 0.98214 0.0
C3104 C 0.16381 0.7614 1.01282 0.0
C3105 C 0.17034 0.76998 0.04717 0.0
C3106 C 0.17723 0.79074 0.05179 0.0
C3107 C 0.1833 0.79617 0.0916 0.0
C3108 C 0.20601 0.80126 0.09149 0.0
C3109 C 0.17001 0.81471 0.11155 0.0
C3110 C 0.17881 0.77518 0.10867 0.0
C3111 C 0.17148 0.76021 0.08255 0.0
C3112 C 0.16652 0.73952 0.09169 0.0
C3113 C 0.16879 0.73415 0.12883 0.0
C3114 C 0.17588 0.74947 0.15613 0.0
C3115 C 0.18113 0.77014 0.14573 0.0
H3116 H 0.49348 0.09065 0.3472 0.0
H3117 H 0.52766 0.14943 0.34377 0.0
H3118 H 0.52062 0.15669 0.41287 0.0
H3119 H 0.45421 0.11203 0.41624 0.0
H3120 H 0.45149 0.08765 0.44024 0.0
H3121 H 0.45986 0.08633 0.3906 0.0
H3122 H 0.49207 0.06487 0.40406 0.0
H3123 H 0.48376 0.0661 0.45374 0.0
H3124 H 0.50842 0.07585 0.439 0.0
H3125 H 0.51054 0.15758 0.48155 0.0
H3126 H 0.49696 0.153 0.5465 0.0
H3127 H 0.46678 0.0949 0.5067 0.0
C3128 C 0.49957 0.10493 0.3612 0.0
C3129 C 0.51112 0.11953 0.34022 0.0
C3130 C 0.51868 0.13816 0.35932 0.0
C3131 C 0.51482 0.14237 0.39854 0.0
C3132 C 0.50322 0.12788 0.41838 0.0
C3133 C 0.49559 0.10958 0.40052 0.0
C3134 C 0.483 0.09712 0.42876 0.0
C3135 C 0.46082 0.09571 0.41833 0.0
C3136 C 0.49238 0.07465 0.43155 0.0
C3137 C 0.48479 0.11133 0.46512 0.0
C3138 C 0.49667 0.12886 0.45832 0.0
C3139 C 0.50098 0.14408 0.4872 0.0
C3140 C 0.49292 0.14142 0.52412 0.0
C3141 C 0.48032 0.12382 0.53214 0.0
C3142 C 0.47632 0.10855 0.50193 0.0
H3143 H 0.13842 0.24339 0.59524 0.0
H3144 H 0.1969 0.27422 0.58423 0.0
H3145 H 0.20358 0.26512 0.64868 0.0
H3146 H 0.12656 0.26214 0.69319 0.0
H3147 H 0.11412 0.23777 0.70516 0.0
H3148 H 0.11426 0.24599 0.6575 0.0
H3149 H 0.13026 0.20917 0.63168 0.0
H3150 H 0.13028 0.20089 0.6793 0.0
H3151 H 0.15359 0.20022 0.64948 0.0
H3152 H 0.20395 0.25269 0.71505 0.0
H3153 H 0.19743 0.23925 0.77838 0.0
H3154 H 0.13795 0.21822 0.74789 0.0
C3155 C 0.15259 0.24844 0.60632 0.0
C3156 C 0.16715 0.25949 0.58403 0.0
C3157 C 0.18559 0.26541 0.59999 0.0
C3158 C 0.1895 0.26041 0.63685 0.0
C3159 C 0.17484 0.24952 0.65782 0.0
C3160 C 0.1567 0.2437 0.64321 0.0
C3161 C 0.14328 0.23254 0.67202 0.0
C3162 C 0.12338 0.24538 0.68259 0.0
C3163 C 0.13911 0.20933 0.65723 0.0
C3164 C 0.15668 0.23301 0.70516 0.0
C3165 C 0.17487 0.24279 0.69629 0.0
C3166 C 0.1897 0.24513 0.72232 0.0
C3167 C 0.18578 0.23754 0.75843 0.0
C3168 C 0.16708 0.22777 0.7686 0.0
C3169 C 0.15247 0.22538 0.74119 0.0
H3170 H 0.00728 0.91177 0.97673 0.0
H3171 H 0.06978 0.88826 0.9617 0.0
H3172 H 0.06879 0.88935 0.89242 0.0
H3173 H 0.9899 0.88054 0.89744 0.0
H3174 H 0.97269 0.9011 0.88496 0.0
H3175 H 0.97878 0.89997 0.9335 0.0
H3176 H 0.99046 0.93948 0.93475 0.0
H3177 H 0.98447 0.94068 0.88611 0.0
H3178 H 0.00961 0.94704 0.89967 0.0
H3179 H 0.06059 0.8916 0.82433 0.0
H3180 H 0.0457 0.89414 0.7629 0.0
H3181 H 0.98802 0.91456 0.82199 0.0
C3182 C 0.02079 0.90674 0.95901 0.0
C3183 C 0.03865 0.89995 0.97506 0.0
C3184 C 0.056 0.89387 0.95048 0.0
C3185 C 0.05556 0.89432 0.91095 0.0
C3186 C 0.03766 0.90089 0.89621 0.0
C3187 C 0.02057 0.90698 0.91949 0.0
C3188 C 0.00301 0.91262 0.89639 0.0
C3189 C 0.98504 0.89766 0.90349 0.0
C3190 C 0.99651 0.93637 0.90473 0.0
C3191 C 0.0128 0.90847 0.85643 0.0
C3192 C 0.03283 0.90188 0.85699 0.0
C3193 C 0.04491 0.89673 0.8236 0.0
C3194 C 0.03625 0.89809 0.78878 0.0
C3195 C 0.01561 0.90443 0.78737 0.0
C3196 C 0.00388 0.90991 0.82188 0.0
H3197 H 0.31031 0.8061 0.35461 0.0
H3198 H 0.29894 0.75106 0.42044 0.0
H3199 H 0.30093 0.72719 0.36162 0.0
H3200 H 0.28299 0.7872 0.27224 0.0
H3201 H 0.30136 0.79692 0.23781 0.0
H3202 H 0.29784 0.81038 0.28468 0.0
H3203 H 0.33576 0.80584 0.2938 0.0
H3204 H 0.33993 0.7922 0.24725 0.0
H3205 H 0.34746 0.77941 0.28814 0.0
H3206 H 0.30524 0.70874 0.29606 0.0
H3207 H 0.31276 0.69677 0.2287 0.0
H3208 H 0.32338 0.76285 0.20317 0.0
C3209 C 0.30806 0.78905 0.35654 0.0
C3210 C 0.30443 0.78054 0.39246 0.0
C3211 C 0.30188 0.75805 0.39356 0.0
C3212 C 0.30289 0.74431 0.36015 0.0
C3213 C 0.30682 0.75307 0.32538 0.0
C3214 C 0.30949 0.7749 0.32321 0.0
C3215 C 0.31465 0.7798 0.28209 0.0
C3216 C 0.29822 0.79443 0.26838 0.0
C3217 C 0.33571 0.7899 0.27757 0.0
C3218 C 0.31462 0.75735 0.26168 0.0
C3219 C 0.30986 0.74226 0.28734 0.0
C3220 C 0.3091 0.72043 0.27578 0.0
C3221 C 0.31358 0.71375 0.23727 0.0
C3222 C 0.31901 0.72867 0.21013 0.0
C3223 C 0.31922 0.7509 0.22279 0.0
H3224 H 0.44782 0.09221 0.9114 0.0
H3225 H 0.48851 0.1203 0.82803 0.0
H3226 H 0.51609 0.1193 0.87158 0.0
H3227 H 0.46889 0.12041 0.99666 0.0
H3228 H 0.46526 0.09737 0.02402 0.0
H3229 H 0.44834 0.10241 0.98781 0.0
H3230 H 0.45625 0.0642 0.95618 0.0
H3231 H 0.47345 0.05913 0.9918 0.0
H3232 H 0.4822 0.0562 0.9423 0.0
H3233 H 0.54072 0.10969 0.92026 0.0
H3234 H 0.55884 0.09796 0.97428 0.0
H3235 H 0.50179 0.07892 0.02873 0.0
C3236 C 0.46234 0.09886 0.90278 0.0
C3237 C 0.46584 0.10659 0.86624 0.0
C3238 C 0.48522 0.11472 0.85597 0.0
C3239 C 0.5011 0.11398 0.88046 0.0
C3240 C 0.49734 0.10546 0.91559 0.0
C3241 C 0.47826 0.09859 0.92718 0.0
C3242 C 0.4783 0.08965 0.96597 0.0
C3243 C 0.46437 0.10328 0.99536 0.0
C3244 C 0.47219 0.06589 0.96391 0.0
C3245 C 0.50049 0.09207 0.97407 0.0
C3246 C 0.51127 0.10101 0.94443 0.0
C3247 C 0.53231 0.10317 0.94397 0.0
C3248 C 0.54251 0.09635 0.97467 0.0
C3249 C 0.53171 0.08784 1.00594 0.0
C3250 C 0.51039 0.08579 1.00558 0.0
H3251 H 0.66185 0.69559 0.64968 0.0
H3252 H 0.63058 0.73747 0.57965 0.0
H3253 H 0.62635 0.76501 0.63365 0.0
H3254 H 0.63128 0.71307 0.74184 0.0
H3255 H 0.65334 0.7108 0.76858 0.0
H3256 H 0.65079 0.69316 0.72656 0.0
H3257 H 0.68574 0.7052 0.69888 0.0
H3258 H 0.68829 0.72317 0.74031 0.0
H3259 H 0.68998 0.73338 0.69397 0.0
H3260 H 0.6324 0.79045 0.68955 0.0
H3261 H 0.64332 0.8102 0.74741 0.0
H3262 H 0.66781 0.75115 0.78432 0.0
C3263 C 0.65342 0.71024 0.64619 0.0
C3264 C 0.64641 0.71437 0.61057 0.0
C3265 C 0.63576 0.73383 0.60683 0.0
C3266 C 0.63341 0.74962 0.6373 0.0
C3267 C 0.64136 0.74545 0.67153 0.0
C3268 C 0.65064 0.72598 0.67651 0.0
C3269 C 0.65903 0.72606 0.71532 0.0
C3270 C 0.64794 0.70981 0.73951 0.0
C3271 C 0.68212 0.7217 0.71188 0.0
C3272 C 0.65391 0.74896 0.73071 0.0
C3273 C 0.64375 0.75987 0.70491 0.0
C3274 C 0.63966 0.78189 0.71054 0.0
C3275 C 0.64597 0.79299 0.74339 0.0
C3276 C 0.65586 0.78204 0.77063 0.0
C3277 C 0.65967 0.7597 0.76443 0.0
H3278 H 0.05039 0.92042 0.36205 0.0
H3279 H 0.00817 0.89574 0.28178 0.0
H3280 H 0.98089 0.89695 0.33345 0.0
H3281 H 0.02949 0.89097 0.4426 0.0
H3282 H 0.03377 0.91285 0.47714 0.0
H3283 H 0.0502 0.90895 0.43426 0.0
H3284 H 0.04244 0.94795 0.41861 0.0
H3285 H 0.0262 0.95196 0.46165 0.0
H3286 H 0.01648 0.95677 0.41669 0.0
H3287 H 0.95707 0.90505 0.39282 0.0
H3288 H 0.93983 0.91457 0.45626 0.0
H3289 H 0.99767 0.93128 0.50001 0.0
C3290 C 0.03551 0.91483 0.35542 0.0
C3291 C 0.03159 0.90784 0.31753 0.0
C3292 C 0.01178 0.90087 0.31037 0.0
C3293 C 0.99609 0.90167 0.33961 0.0
C3294 C 0.00036 0.90914 0.37633 0.0
C3295 C 0.01972 0.91516 0.3845 0.0
C3296 C 0.02024 0.92268 0.42636 0.0
C3297 C 0.03426 0.90798 0.44627 0.0
C3298 C 0.02672 0.94625 0.43112 0.0
C3299 C 0.99811 0.92031 0.44039 0.0
C3300 C 0.98686 0.91271 0.4109 0.0
C3301 C 0.96585 0.91061 0.41617 0.0
C3302 C 0.95614 0.91617 0.45235 0.0
C3303 C 0.96735 0.92342 0.48336 0.0
C3304 C 0.98869 0.92539 0.47713 0.0
H3305 H 0.81842 0.22917 0.2089 0.0
H3306 H 0.86447 0.27641 0.23155 0.0
H3307 H 0.86777 0.26295 0.29474 0.0
H3308 H 0.7944 0.23148 0.30465 0.0
H3309 H 0.78968 0.20304 0.30228 0.0
H3310 H 0.79058 0.21713 0.2597 0.0
H3311 H 0.81774 0.18992 0.22953 0.0
H3312 H 0.81832 0.17615 0.27234 0.0
H3313 H 0.84131 0.18695 0.25132 0.0
H3314 H 0.86569 0.24471 0.35535 0.0
H3315 H 0.85847 0.22267 0.40963 0.0
H3316 H 0.81478 0.18651 0.34577 0.0
C3317 C 0.82899 0.23683 0.22741 0.0
C3318 C 0.84118 0.25381 0.21563 0.0
C3319 C 0.85511 0.26327 0.24019 0.0
C3320 C 0.85705 0.25579 0.27603 0.0
C3321 C 0.845 0.2388 0.28662 0.0
C3322 C 0.83122 0.22947 0.2631 0.0
C3323 C 0.82035 0.21119 0.281 0.0
C3324 C 0.7974 0.21601 0.28729 0.0
C3325 C 0.8247 0.18977 0.25717 0.0
C3326 C 0.83025 0.2117 0.31822 0.0
C3327 C 0.84431 0.22782 0.32104 0.0
C3328 C 0.85479 0.23195 0.35347 0.0
C3329 C 0.85058 0.21939 0.38411 0.0
C3330 C 0.83613 0.20289 0.38181 0.0
C3331 C 0.82607 0.19888 0.34824 0.0
H3332 H 0.50923 0.92348 0.86321 0.0
H3333 H 0.55588 0.87321 0.84865 0.0
H3334 H 0.55272 0.86926 0.91754 0.0
H3335 H 0.5237 0.94715 0.95462 0.0
H3336 H 0.49783 0.95266 0.97291 0.0
H3337 H 0.50447 0.9524 0.92266 0.0
H3338 H 0.47706 0.92397 0.90995 0.0
H3339 H 0.47039 0.92413 0.96014 0.0
H3340 H 0.4776 0.89923 0.93309 0.0
H3341 H 0.54315 0.86918 0.98742 0.0
H3342 H 0.52851 0.87343 0.05339 0.0
H3343 H 0.48834 0.92429 0.02371 0.0
C3344 C 0.51882 0.91164 0.87446 0.0
C3345 C 0.5329 0.89871 0.85024 0.0
C3346 C 0.54524 0.88358 0.86643 0.0
C3347 C 0.54345 0.88111 0.90559 0.0
C3348 C 0.52931 0.89394 0.92847 0.0
C3349 C 0.51727 0.909 0.91358 0.0
C3350 C 0.50301 0.92047 0.94443 0.0
C3351 C 0.50753 0.9446 0.94892 0.0
C3352 C 0.4807 0.91672 0.93641 0.0
C3353 C 0.50868 0.90923 0.97885 0.0
C3354 C 0.52394 0.89405 0.96897 0.0
C3355 C 0.53138 0.88121 0.99556 0.0
C3356 C 0.52302 0.8839 0.03319 0.0
C3357 C 0.50735 0.89939 0.0443 0.0
C3358 C 0.5002 0.91223 1.01645 0.0
H3359 H 0.84518 0.74556 0.59692 0.0
H3360 H 0.82561 0.81233 0.61968 0.0
H3361 H 0.82446 0.80804 0.68836 0.0
H3362 H 0.81298 0.72523 0.67423 0.0
H3363 H 0.83164 0.70556 0.68455 0.0
H3364 H 0.83078 0.71375 0.63699 0.0
H3365 H 0.86861 0.72415 0.63682 0.0
H3366 H 0.86956 0.71611 0.68443 0.0
H3367 H 0.87666 0.7429 0.67377 0.0
H3368 H 0.82672 0.79702 0.75482 0.0
H3369 H 0.83099 0.77986 0.81406 0.0
H3370 H 0.84694 0.71941 0.74899 0.0
C3371 C 0.84037 0.75924 0.61622 0.0
C3372 C 0.83568 0.7794 0.60247 0.0
C3373 C 0.82973 0.79686 0.62913 0.0
C3374 C 0.82886 0.79454 0.66834 0.0
C3375 C 0.83381 0.77458 0.6808 0.0
C3376 C 0.83927 0.75717 0.65556 0.0
C3377 C 0.84387 0.73748 0.67655 0.0
C3378 C 0.82892 0.71944 0.66754 0.0
C3379 C 0.86599 0.72971 0.66734 0.0
C3380 C 0.84042 0.74665 0.7175 0.0
C3381 C 0.8346 0.76807 0.71923 0.0
C3382 C 0.83101 0.78017 0.75378 0.0
C3383 C 0.83334 0.77016 0.78744 0.0
C3384 C 0.8391 0.7481 0.7867 0.0
C3385 C 0.84266 0.73629 0.75093 0.0
H3386 H 0.00717 0.09364 0.53514 0.0
H3387 H 0.94766 0.0845 0.59129 0.0
H3388 H 0.93208 0.08775 0.53069 0.0
H3389 H 0.99288 0.13223 0.47506 0.0
H3390 H 0.00929 0.12214 0.43464 0.0
H3391 H 0.01603 0.11782 0.48185 0.0
H3392 H 0.01848 0.0767 0.46465 0.0
H3393 H 0.01203 0.08092 0.41717 0.0
H3394 H 0.99719 0.06309 0.44529 0.0
H3395 H 0.92269 0.09484 0.46484 0.0
H3396 H 0.9205 0.10302 0.39822 0.0
H3397 H 0.98634 0.10504 0.38426 0.0
C3398 C 0.99092 0.09182 0.53464 0.0
C3399 C 0.97867 0.08899 0.56825 0.0
C3400 C 0.95738 0.08707 0.56619 0.0
C3401 C 0.94838 0.08876 0.53181 0.0
C3402 C 0.96084 0.09209 0.4995 0.0
C3403 C 0.98168 0.0933 0.5005 0.0
C3404 C 0.99162 0.09737 0.4619 0.0
C3405 C 0.00313 0.11865 0.46348 0.0
C3406 C 0.00566 0.07839 0.44633 0.0
C3407 C 0.97307 0.09877 0.43929 0.0
C3408 C 0.95547 0.09564 0.46142 0.0
C3409 C 0.93641 0.097 0.44707 0.0
C3410 C 0.93534 0.10158 0.40905 0.0
C3411 C 0.95323 0.10469 0.38562 0.0
C3412 C 0.9723 0.10311 0.40125 0.0
H3413 H 0.68502 0.23092 0.98273 0.0
H3414 H 0.69968 0.16572 1.00814 0.0
H3415 H 0.69611 0.1768 0.07631 0.0
H3416 H 0.71184 0.25748 0.05958 0.0
H3417 H 0.69321 0.27889 0.06984 0.0
H3418 H 0.69705 0.26609 0.02248 0.0
H3419 H 0.65886 0.25723 0.02334 0.0
H3420 H 0.65486 0.26994 0.07071 0.0
H3421 H 0.64751 0.24247 0.06098 0.0
H3422 H 0.69122 0.19456 0.1423 0.0
H3423 H 0.68414 0.21749 0.20153 0.0
H3424 H 0.6722 0.27185 0.13625 0.0
C3425 C 0.68761 0.219 1.00258 0.0
C3426 C 0.69282 0.19736 0.98941 0.0
C3427 C 0.69578 0.18236 1.01684 0.0
C3428 C 0.69379 0.18851 0.05594 0.0
C3429 C 0.68878 0.20985 0.06788 0.0
C3430 C 0.68568 0.22491 0.04212 0.0
C3431 C 0.6803 0.24679 0.063 0.0
C3432 C 0.69656 0.26329 0.05314 0.0
C3433 C 0.65912 0.25456 0.05396 0.0
C3434 C 0.68053 0.24155 0.10442 0.0
C3435 C 0.6857 0.22014 0.10633 0.0
C3436 C 0.68718 0.21135 0.14109 0.0
C3437 C 0.68323 0.22462 0.17476 0.0
C3438 C 0.67767 0.24665 0.1741 0.0
C3439 C 0.67628 0.25511 0.13809 0.0
H3440 H 0.06815 0.55816 0.74286 0.0
H3441 H 0.10322 0.51308 0.66382 0.0
H3442 H 0.11013 0.49096 0.7167 0.0
H3443 H 0.10145 0.55437 0.82083 0.0
H3444 H 0.0809 0.55682 0.85725 0.0
H3445 H 0.0787 0.56935 0.81349 0.0
H3446 H 0.04535 0.54844 0.80109 0.0
H3447 H 0.04752 0.53774 0.84647 0.0
H3448 H 0.04554 0.51973 0.80493 0.0
H3449 H 0.11141 0.47225 0.77812 0.0
H3450 H 0.10952 0.46021 0.84296 0.0
H3451 H 0.07481 0.51794 0.88372 0.0
C3452 C 0.07751 0.54376 0.73662 0.0
C3453 C 0.08522 0.53754 0.69872 0.0
C3454 C 0.09728 0.51846 0.69228 0.0
C3455 C 0.10119 0.50567 0.72226 0.0
C3456 C 0.09315 0.51212 0.75901 0.0
C3457 C 0.08177 0.5309 0.76641 0.0
C3458 C 0.07528 0.53441 0.80869 0.0
C3459 C 0.08465 0.55496 0.82609 0.0
C3460 C 0.05204 0.53515 0.81563 0.0
C3461 C 0.08431 0.5144 0.82376 0.0
C3462 C 0.0945 0.50174 0.79455 0.0
C3463 C 0.10353 0.48214 0.80112 0.0
C3464 C 0.10221 0.47532 0.83823 0.0
C3465 C 0.09196 0.48795 0.86899 0.0
C3466 C 0.08296 0.50788 0.86127 0.0
H3467 H 0.68769 0.83023 1.00275 0.0
H3468 H 0.72059 0.87549 0.93542 0.0
H3469 H 0.74307 0.88304 0.98763 0.0
H3470 H 0.69125 0.86049 0.09603 0.0
H3471 H 0.69351 0.83588 0.11916 0.0
H3472 H 0.6797 0.83644 0.07717 0.0
H3473 H 0.70298 0.80454 0.04698 0.0
H3474 H 0.71738 0.80533 0.08837 0.0
H3475 H 0.73006 0.80808 0.0423 0.0
H3476 H 0.76323 0.8842 0.04657 0.0
H3477 H 0.778 0.88064 0.10776 0.0
H3478 H 0.73168 0.83489 0.13746 0.0
C3479 C 0.69937 0.84205 0.99906 0.0
C3480 C 0.70215 0.85239 0.96471 0.0
C3481 C 0.7179 0.86749 0.96133 0.0
C3482 C 0.73086 0.87179 0.99086 0.0
C3483 C 0.72794 0.86094 0.02388 0.0
C3484 C 0.71242 0.84655 0.02827 0.0
C3485 C 0.7127 0.83675 0.06628 0.0
C3486 C 0.69313 0.84274 0.09116 0.0
C3487 C 0.71598 0.81222 0.06064 0.0
C3488 C 0.73094 0.84768 0.08257 0.0
C3489 C 0.73948 0.8616 0.05765 0.0
C3490 C 0.75648 0.8735 0.06636 0.0
C3491 C 0.76472 0.87144 0.1015 0.0
C3492 C 0.75602 0.85764 0.12813 0.0
C3493 C 0.73894 0.84546 0.11798 0.0
H3494 H 0.42232 0.48171 0.39431 0.0
H3495 H 0.3663 0.51833 0.38966 0.0
H3496 H 0.3643 0.50478 0.32305 0.0
H3497 H 0.44229 0.4907 0.29876 0.0
H3498 H 0.45348 0.4642 0.2883 0.0
H3499 H 0.45099 0.47599 0.33647 0.0
H3500 H 0.43086 0.44369 0.35862 0.0
H3501 H 0.43352 0.43114 0.31101 0.0
H3502 H 0.40865 0.43535 0.33503 0.0
H3503 H 0.36794 0.48665 0.25523 0.0
H3504 H 0.3779 0.46684 0.19322 0.0
H3505 H 0.43161 0.4422 0.24049 0.0
C3506 C 0.40969 0.48706 0.37932 0.0
C3507 C 0.39429 0.50101 0.39836 0.0
C3508 C 0.3781 0.50733 0.37688 0.0
C3509 C 0.37686 0.49979 0.33857 0.0
C3510 C 0.39198 0.48584 0.32105 0.0
C3511 C 0.4082 0.47963 0.34068 0.0
C3512 C 0.42247 0.46453 0.3149 0.0
C3513 C 0.44356 0.47443 0.30925 0.0
C3514 C 0.42396 0.44237 0.33085 0.0
C3515 C 0.41168 0.46314 0.27804 0.0
C3516 C 0.39411 0.47556 0.28214 0.0
C3517 C 0.38168 0.47684 0.25188 0.0
C3518 C 0.3874 0.46538 0.2166 0.0
C3519 C 0.40541 0.45256 0.21138 0.0
C3520 C 0.41756 0.45151 0.24305 0.0
H3521 H 0.78645 0.17856 0.60464 0.0
H3522 H 0.7763 0.11302 0.56128 0.0
H3523 H 0.75496 0.1073 0.62011 0.0
H3524 H 0.78878 0.16917 0.70301 0.0
H3525 H 0.77533 0.19375 0.71992 0.0
H3526 H 0.79019 0.19219 0.67516 0.0
H3527 H 0.75861 0.20379 0.64178 0.0
H3528 H 0.74361 0.2053 0.68641 0.0
H3529 H 0.73563 0.18866 0.64657 0.0
H3530 H 0.73528 0.10879 0.68627 0.0
H3531 H 0.71774 0.11796 0.74984 0.0
H3532 H 0.73898 0.1833 0.74677 0.0
C3533 C 0.77991 0.16289 0.60751 0.0
C3534 C 0.78335 0.14611 0.57829 0.0
C3535 C 0.77405 0.12607 0.58317 0.0
C3536 C 0.76189 0.1227 0.61659 0.0
C3537 C 0.75883 0.13962 0.64478 0.0
C3538 C 0.76745 0.15941 0.64025 0.0
C3539 C 0.76129 0.17531 0.67387 0.0
C3540 C 0.78001 0.18305 0.69418 0.0
C3541 C 0.74906 0.19439 0.6614 0.0
C3542 C 0.74799 0.16137 0.69837 0.0
C3543 C 0.74686 0.14077 0.68137 0.0
C3544 C 0.73596 0.12494 0.69951 0.0
C3545 C 0.72602 0.13029 0.7357 0.0
C3546 C 0.72668 0.1514 0.75334 0.0
C3547 C 0.73782 0.16707 0.73402 0.0
H3548 H 0.93664 0.43792 0.61623 0.0
H3549 H 0.89272 0.47412 0.69412 0.0
H3550 H 0.88409 0.49636 0.64288 0.0
H3551 H 0.95419 0.48291 0.56524 0.0
H3552 H 0.95684 0.46802 0.5195 0.0
H3553 H 0.95965 0.45441 0.56196 0.0
H3554 H 0.93176 0.42781 0.54325 0.0
H3555 H 0.92892 0.4412 0.50058 0.0
H3556 H 0.90719 0.43804 0.53329 0.0
H3557 H 0.88035 0.51533 0.58417 0.0
H3558 H 0.88062 0.5289 0.52078 0.0
H3559 H 0.92646 0.48076 0.47853 0.0
C3560 C 0.92508 0.45041 0.62247 0.0
C3561 C 0.91534 0.4541 0.65957 0.0
C3562 C 0.90044 0.4708 0.66625 0.0
C3563 C 0.89542 0.48362 0.63723 0.0
C3564 C 0.9054 0.47972 0.60131 0.0
C3565 C 0.91985 0.46348 0.59364 0.0
C3566 C 0.92821 0.46283 0.5523 0.0
C3567 C 0.95108 0.46731 0.54961 0.0
C3568 C 0.92375 0.44118 0.53111 0.0
C3569 C 0.9161 0.48118 0.53801 0.0
C3570 C 0.90312 0.49068 0.56698 0.0
C3571 C 0.89035 0.5079 0.56121 0.0
C3572 C 0.89054 0.51544 0.52487 0.0
C3573 C 0.90334 0.50583 0.49416 0.0
C3574 C 0.91652 0.48858 0.5012 0.0
H3575 H 0.26484 0.16649 0.22389 0.0
H3576 H 0.23197 0.10752 0.23842 0.0
H3577 H 0.24738 0.10383 0.29884 0.0
H3578 H 0.31097 0.15064 0.26344 0.0
H3579 H 0.31493 0.17654 0.28769 0.0
H3580 H 0.30147 0.17473 0.24514 0.0
H3581 H 0.27121 0.19569 0.28112 0.0
H3582 H 0.28412 0.19727 0.32436 0.0
H3583 H 0.25932 0.18564 0.32342 0.0
H3584 H 0.26662 0.10599 0.35794 0.0
H3585 H 0.28687 0.1151 0.41275 0.0
H3586 H 0.30707 0.1729 0.36157 0.0
C3587 C 0.26074 0.15289 0.23988 0.0
C3588 C 0.24731 0.13712 0.22564 0.0
C3589 C 0.24251 0.11959 0.24783 0.0
C3590 C 0.25114 0.11738 0.28247 0.0
C3591 C 0.26457 0.13287 0.29521 0.0
C3592 C 0.26925 0.15041 0.27481 0.0
C3593 C 0.28388 0.16495 0.29554 0.0
C3594 C 0.304 0.16681 0.27151 0.0
C3595 C 0.27406 0.18722 0.30678 0.0
C3596 C 0.28684 0.15267 0.33037 0.0
C3597 C 0.27552 0.13423 0.32959 0.0
C3598 C 0.27555 0.1204 0.35881 0.0
C3599 C 0.2872 0.12567 0.38986 0.0
C3600 C 0.29878 0.14462 0.39169 0.0
C3601 C 0.29863 0.15815 0.36113 0.0
H3602 H 0.57118 0.50741 0.97547 0.0
H3603 H 0.62527 0.46888 0.98741 0.0
H3604 H 0.62547 0.48278 0.05419 0.0
H3605 H 0.58495 0.55332 0.03469 0.0
H3606 H 0.55996 0.55925 0.05704 0.0
H3607 H 0.56283 0.54618 1.00978 0.0
H3608 H 0.54104 0.51457 0.03019 0.0
H3609 H 0.5373 0.5276 0.07734 0.0
H3610 H 0.54745 0.50053 0.07052 0.0
H3611 H 0.62041 0.50133 0.12065 0.0
H3612 H 0.60959 0.522 0.1812 0.0
H3613 H 0.55851 0.54851 0.12827 0.0
C3614 C 0.58297 0.50171 0.99216 0.0
C3615 C 0.59841 0.4871 0.97525 0.0
C3616 C 0.61352 0.48035 0.99871 0.0
C3617 C 0.6137 0.48809 0.03706 0.0
C3618 C 0.59861 0.50267 0.0525 0.0
C3619 C 0.5834 0.50935 0.0309 0.0
C3620 C 0.56905 0.52527 0.05477 0.0
C3621 C 0.56921 0.54731 0.03805 0.0
C3622 C 0.54743 0.51646 0.05841 0.0
C3623 C 0.57858 0.52645 0.09292 0.0
C3624 C 0.59565 0.51329 0.09092 0.0
C3625 C 0.60704 0.51167 0.12244 0.0
C3626 C 0.60079 0.52359 0.15688 0.0
C3627 C 0.58324 0.53713 0.16004 0.0
C3628 C 0.5721 0.53851 0.1272 0.0
H3629 H 0.21502 0.8193 0.76418 0.0
H3630 H 0.2149 0.88793 0.7946 0.0
H3631 H 0.23677 0.89291 0.73595 0.0
H3632 H 0.26742 0.81498 0.72856 0.0
H3633 H 0.26279 0.79454 0.69165 0.0
H3634 H 0.24664 0.79685 0.73492 0.0
H3635 H 0.21517 0.8004 0.69595 0.0
H3636 H 0.23133 0.79811 0.65266 0.0
H3637 H 0.21439 0.82103 0.66306 0.0
H3638 H 0.25824 0.88995 0.67087 0.0
H3639 H 0.27841 0.87932 0.61039 0.0
H3640 H 0.26642 0.81235 0.62636 0.0
C3641 C 0.21938 0.83548 0.7585 0.0
C3642 C 0.21286 0.8533 0.78406 0.0
C3643 C 0.21946 0.87404 0.77556 0.0
C3644 C 0.23192 0.87699 0.7422 0.0
C3645 C 0.23805 0.85901 0.71772 0.0
C3646 C 0.2321 0.83862 0.72587 0.0
C3647 C 0.24128 0.82175 0.69609 0.0
C3648 C 0.25537 0.80612 0.71389 0.0
C3649 C 0.22455 0.80961 0.67574 0.0
C3650 C 0.25327 0.83573 0.66953 0.0
C3651 C 0.25108 0.85723 0.68215 0.0
C3652 C 0.26016 0.87313 0.66118 0.0
C3653 C 0.27163 0.86694 0.62674 0.0
C3654 C 0.27439 0.84498 0.61361 0.0
C3655 C 0.26505 0.82927 0.63572 0.0
H3656 H 0.57181 0.00534 0.37096 0.0
H3657 H 0.6296 0.972 0.34198 0.0
H3658 H 0.63151 0.98666 0.27936 0.0
H3659 H 0.55311 0.99778 0.27506 0.0
H3660 H 0.54089 0.0239 0.27799 0.0
H3661 H 0.54347 0.01023 0.32047 0.0
H3662 H 0.56164 0.04329 0.34998 0.0
H3663 H 0.55929 0.0569 0.30739 0.0
H3664 H 0.58393 0.05321 0.32508 0.0
H3665 H 0.62793 0.00537 0.21987 0.0
H3666 H 0.61848 0.02625 0.16709 0.0
H3667 H 0.56303 0.04796 0.23281 0.0
C3668 C 0.58475 0.00093 0.35128 0.0
C3669 C 0.60071 0.98762 0.36201 0.0
C3670 C 0.61737 0.98244 0.33516 0.0
C3671 C 0.61856 0.99062 0.29923 0.0
C3672 C 0.60291 0.00399 0.28991 0.0
C3673 C 0.58621 0.00904 0.31495 0.0
C3674 C 0.57165 0.02405 0.29751 0.0
C3675 C 0.55107 0.01335 0.29247 0.0
C3676 C 0.56898 0.04564 0.32143 0.0
C3677 C 0.58297 0.02681 0.25921 0.0
C3678 C 0.6009 0.01496 0.25542 0.0
C3679 C 0.61391 0.01471 0.22255 0.0
C3680 C 0.60842 0.0267 0.19265 0.0
C3681 C 0.59012 0.03902 0.1956 0.0
C3682 C 0.57729 0.03903 0.22962 0.0
H3683 H 0.19473 0.32112 0.49199 0.0
H3684 H 0.21417 0.37997 0.44351 0.0
H3685 H 0.23464 0.3883 0.49861 0.0
H3686 H 0.19124 0.34098 0.59081 0.0
H3687 H 0.20109 0.31639 0.60674 0.0
H3688 H 0.18738 0.31565 0.56452 0.0
H3689 H 0.21776 0.296 0.52605 0.0
H3690 H 0.23165 0.2966 0.56805 0.0
H3691 H 0.24251 0.30776 0.52589 0.0
H3692 H 0.25434 0.38923 0.55825 0.0
H3693 H 0.27011 0.38399 0.61782 0.0
H3694 H 0.23759 0.32443 0.62793 0.0
C3695 C 0.20295 0.33603 0.49305 0.0
C3696 C 0.20249 0.35007 0.46324 0.0
C3697 C 0.21395 0.36908 0.46592 0.0
C3698 C 0.22574 0.37387 0.49711 0.0
C3699 C 0.2261 0.35944 0.52547 0.0
C3700 C 0.2149 0.34093 0.52374 0.0
C3701 C 0.21831 0.3277 0.55721 0.0
C3702 C 0.19832 0.32503 0.58124 0.0
C3703 C 0.22814 0.30572 0.54348 0.0
C3704 C 0.23297 0.34182 0.57861 0.0
C3705 C 0.23737 0.35996 0.55962 0.0
C3706 C 0.25076 0.37521 0.57346 0.0
C3707 C 0.25959 0.37211 0.6077 0.0
C3708 C 0.25502 0.35394 0.62851 0.0
C3709 C 0.24162 0.33849 0.61311 0.0
H3710 H 0.9274 0.99314 0.89389 0.0
H3711 H 0.87232 0.03096 0.88661 0.0
H3712 H 0.87067 0.01704 0.82018 0.0
H3713 H 0.94842 0.00106 0.79814 0.0
H3714 H 0.95922 0.97428 0.78921 0.0
H3715 H 0.95639 0.98669 0.83693 0.0
H3716 H 0.93553 0.9547 0.85891 0.0
H3717 H 0.93841 0.94191 0.81147 0.0
H3718 H 0.91341 0.94671 0.83471 0.0
H3719 H 0.87431 -0.00133 0.7539 0.0
H3720 H 0.88404 0.97858 0.69241 0.0
H3721 H 0.93721 0.95281 0.73998 0.0
C3722 C 0.91506 -0.00136 0.87832 0.0
C3723 C 0.89978 0.01305 0.89645 0.0
C3724 C 0.88397 0.01962 0.8744 0.0
C3725 C 0.88294 0.01186 0.83625 0.0
C3726 C 0.8979 0.99747 0.81963 0.0
C3727 C 0.91378 0.991 0.83979 0.0
C3728 C 0.92797 0.97551 0.8146 0.0
C3729 C 0.94927 0.98494 0.8094 0.0
C3730 C 0.92888 0.95339 0.8309 0.0
C3731 C 0.91749 0.97424 0.77741 0.0
C3732 C 0.90015 0.98705 0.78107 0.0
C3733 C 0.88789 0.9886 0.75077 0.0
C3734 C 0.89352 0.97701 0.71579 0.0
C3735 C 0.91133 0.96385 0.71085 0.0
C3736 C 0.92337 0.96249 0.7425 0.0
H3737 H 0.22847 0.6809 0.24408 0.0
H3738 H 0.2076 0.61555 0.24906 0.0
H3739 H 0.22568 0.60585 0.1859 0.0
H3740 H 0.22512 0.68553 0.14504 0.0
H3741 H 0.24791 0.70091 0.13968 0.0
H3742 H 0.23317 0.70237 0.18457 0.0
H3743 H 0.26495 0.69127 0.21785 0.0
H3744 H 0.2798 0.68979 0.17309 0.0
H3745 H 0.27868 0.66683 0.20107 0.0
H3746 H 0.24516 0.60437 0.11864 0.0
H3747 H 0.26591 0.61031 0.05917 0.0
H3748 H 0.27583 0.67593 0.10214 0.0
C3749 C 0.22759 0.66451 0.23197 0.0
C3750 C 0.2163 0.64904 0.25158 0.0
C3751 C 0.21601 0.62772 0.23473 0.0
C3752 C 0.22623 0.62211 0.19875 0.0
C3753 C 0.2371 0.63787 0.18014 0.0
C3754 C 0.23804 0.65858 0.19668 0.0
C3755 C 0.25113 0.67254 0.17183 0.0
C3756 C 0.23858 0.69145 0.15955 0.0
C3757 C 0.26974 0.68057 0.19217 0.0
C3758 C 0.25733 0.6566 0.13835 0.0
C3759 C 0.24896 0.63671 0.14328 0.0
C3760 C 0.25194 0.61983 0.11495 0.0
C3761 C 0.26375 0.62334 0.08113 0.0
C3762 C 0.27284 0.64347 0.07592 0.0
C3763 C 0.2695 0.66019 0.10526 0.0
H3764 H 0.43236 0.95023 0.13402 0.0
H3765 H 0.3805 0.97877 0.20293 0.0
H3766 H 0.3722 7e-05 0.14972 0.0
H3767 H 0.44718 0.99735 0.08938 0.0
H3768 H 0.45448 0.98362 0.04374 0.0
H3769 H 0.45602 0.96975 0.08623 0.0
H3770 H 0.43322 0.93976 0.06012 0.0
H3771 H 0.4318 0.95314 1.01706 0.0
H3772 H 0.40883 0.94667 0.04406 0.0
H3773 H 0.37024 0.01928 0.08948 0.0
H3774 H 0.37354 0.03361 0.02652 0.0
H3775 H 0.42652 0.99234 0.99569 0.0
C3776 C 0.41909 0.96076 0.13795 0.0
C3777 C 0.407 0.96265 0.17297 0.0
C3778 C 0.38993 0.97685 0.17659 0.0
C3779 C 0.38515 0.9891 0.14646 0.0
C3780 C 0.39755 0.98705 0.11268 0.0
C3781 C 0.4141 0.97311 0.10818 0.0
C3782 C 0.42509 0.97403 0.06907 0.0
C3783 C 0.44699 0.98165 0.07232 0.0
C3784 C 0.4247 0.9521 0.04623 0.0
C3785 C 0.41214 0.99073 0.05219 0.0
C3786 C 0.39637 0.99803 0.07792 0.0
C3787 C 0.38242 0.0135 0.06907 0.0
C3788 C 0.38439 0.02149 0.03296 0.0
C3789 C 0.40014 0.01404 1.00552 0.0
C3790 C 0.41434 -0.00144 1.01577 0.0
H3791 H 0.80384 0.6753 0.86664 0.0
H3792 H 0.78168 0.61742 0.91505 0.0
H3793 H 0.76152 0.60978 0.85941 0.0
H3794 H 0.7576 0.69086 0.83117 0.0
H3795 H 0.76915 0.70106 0.78868 0.0
H3796 H 0.78296 0.70119 0.83072 0.0
H3797 H 0.81243 0.6795 0.79326 0.0
H3798 H 0.7989 0.67942 0.75086 0.0
H3799 H 0.80731 0.65439 0.76737 0.0
H3800 H 0.74228 0.60956 0.79954 0.0
H3801 H 0.72692 0.61561 0.7397 0.0
H3802 H 0.76124 0.67405 0.73066 0.0
C3803 C 0.79504 0.66077 0.86542 0.0
C3804 C 0.79456 0.64685 0.89541 0.0
C3805 C 0.78254 0.62824 0.89252 0.0
C3806 C 0.77094 0.62383 0.86101 0.0
C3807 C 0.77147 0.63815 0.83245 0.0
C3808 C 0.78336 0.65618 0.83428 0.0
C3809 C 0.78083 0.66939 0.80049 0.0
C3810 C 0.77211 0.69195 0.81355 0.0
C3811 C 0.80107 0.67074 0.77658 0.0
C3812 C 0.76561 0.656 0.77924 0.0
C3813 C 0.76038 0.63808 0.79823 0.0
C3814 C 0.74633 0.62352 0.78449 0.0
C3815 C 0.73752 0.62722 0.7505 0.0
C3816 C 0.74269 0.64538 0.73018 0.0
C3817 C 0.75701 0.65991 0.74506 0.0
H3818 H 0.06915 0.00443 0.47438 0.0
H3819 H 0.132 0.98309 0.47465 0.0
H3820 H 0.13314 -0.00122 0.54011 0.0
H3821 H 0.07391 0.05477 0.53048 0.0
H3822 H 0.04977 0.05342 0.55721 0.0
H3823 H 0.05332 0.04045 0.50997 0.0
H3824 H 0.04226 0.00433 0.53533 0.0
H3825 H 0.0386 0.01719 0.58267 0.0
H3826 H 0.05522 0.99394 0.57336 0.0
H3827 H 0.12811 0.01743 0.60653 0.0
H3828 H 0.11671 0.03631 0.66835 0.0
H3829 H 0.05685 0.04531 0.62819 0.0
C3830 C 0.08314 0.0029 0.48819 0.0
C3831 C 0.10063 0.99263 0.46812 0.0
C3832 C 0.11849 0.99122 0.4881 0.0
C3833 C 0.11928 2e-05 0.52579 0.0
C3834 C 0.10206 0.01029 0.54428 0.0
C3835 C 0.08422 0.01168 0.5263 0.0
C3836 C 0.06789 0.02358 0.55317 0.0
C3837 C 0.06081 0.04428 0.53671 0.0
C3838 C 0.04992 0.00889 0.56162 0.0
C3839 C 0.07939 0.0287 0.58871 0.0
C3840 C 0.09909 0.02086 0.58285 0.0
C3841 C 0.11268 0.0236 0.61131 0.0
C3842 C 0.10605 0.03446 0.64655 0.0
C3843 C 0.08589 0.04266 0.65376 0.0
C3844 C 0.07244 0.03959 0.624 0.0
H3845 H 0.71829 0.31849 0.27319 0.0
H3846 H 0.71348 0.38728 0.30149 0.0
H3847 H 0.73455 0.39326 0.24245 0.0
H3848 H 0.77053 0.31794 0.23716 0.0
H3849 H 0.76739 0.2968 0.20059 0.0
H3850 H 0.7512 0.29818 0.24384 0.0
H3851 H 0.71942 0.29885 0.20514 0.0
H3852 H 0.73549 0.29738 0.16174 0.0
H3853 H 0.71705 0.31899 0.17173 0.0
H3854 H 0.75572 0.39131 0.17744 0.0
H3855 H 0.77636 0.38166 0.11707 0.0
H3856 H 0.76941 0.31412 0.13495 0.0
C3857 C 0.72146 0.33488 0.26693 0.0
C3858 C 0.71388 0.35246 0.29202 0.0
C3859 C 0.7189 0.37355 0.28282 0.0
C3860 C 0.73089 0.37708 0.24923 0.0
C3861 C 0.73814 0.35935 0.22523 0.0
C3862 C 0.73372 0.33864 0.23402 0.0
C3863 C 0.74393 0.32221 0.20457 0.0
C3864 C 0.75917 0.30795 0.22263 0.0
C3865 C 0.72802 0.30856 0.18462 0.0
C3866 C 0.75474 0.33683 0.17757 0.0
C3867 C 0.75106 0.35822 0.18961 0.0
C3868 C 0.75883 0.37459 0.16817 0.0
C3869 C 0.77058 0.36897 0.13383 0.0
C3870 C 0.7749 0.34715 0.12136 0.0
C3871 C 0.76684 0.33098 0.1439 0.0
loop_
_geom_bond_atom_site_label_1
_geom_bond_atom_site_label_2
_geom_bond_distance
_geom_bond_site_symmetry_2
_ccdc_geom_bond_type
Sm0 C2 2.846 . S
Sm0 O20 2.543 . S
Sm0 O21 2.450 . S
Sm0 O22 2.681 . S
Sm0 O23 2.464 . S
Sm0 O24 2.396 . S
Sm0 O28 2.386 . S
Sm0 O31 2.408 . S
Sm1 C11 2.846 . S
Sm1 O22 2.386 . S
Sm1 O25 2.408 . S
Sm1 O26 2.543 . S
Sm1 O27 2.450 . S
Sm1 O28 2.681 . S
Sm1 O29 2.464 . S
Sm1 O30 2.396 . S
C2 Sm0 2.846 . S
C2 C3 1.506 . S
C2 O20 1.261 . S
C2 O21 1.242 . S
C3 C2 1.506 . S
C3 C4 1.358 . S
C3 C8 1.382 . S
C4 C3 1.358 . S
C4 C5 1.385 . S
C4 H32 0.930 . S
C5 C4 1.385 . S
C5 C6 1.395 . S
C5 H33 0.929 . S
C6 C5 1.395 . S
C6 C7 1.335 . S
C7 C6 1.335 . S
C7 C8 1.398 . S
C7 H34 0.930 1_455 S
C8 C3 1.382 . S
C8 C7 1.398 . S
C8 H35 0.895 1_455 S
C9 O22 1.271 . S
C9 O23 1.251 . S
C10 O24 1.252 . S
C10 O25 1.272 . S
C11 Sm1 2.846 . S
C11 C12 1.506 1_554 S
C11 O26 1.261 . S
C11 O27 1.242 . S
C12 C11 1.506 1_556 S
C12 C13 1.358 . S
C12 C17 1.382 . S
C13 C12 1.358 . S
C13 C14 1.385 . S
C13 H36 0.930 . S
C14 C13 1.385 . S
C14 C15 1.395 . S
C14 H37 0.929 . S
C15 C14 1.395 . S
C15 C16 1.335 . S
C16 C15 1.335 . S
C16 C17 1.398 . S
C16 H38 0.930 . S
C17 C12 1.382 . S
C17 C16 1.398 . S
C17 H39 0.929 . S
C18 O28 1.271 . S
C18 O29 1.251 . S
C19 O30 1.252 . S
C19 O31 1.272 . S
O20 Sm0 2.543 . S
O20 C2 1.261 . S
O21 Sm0 2.450 . S
O21 C2 1.242 . S
O22 Sm0 2.681 . S
O22 Sm1 2.386 . S
O22 C9 1.271 . S
O23 Sm0 2.464 . S
O23 C9 1.251 . S
O24 Sm0 2.396 . S
O24 C10 1.252 . S
O25 Sm1 2.408 . S
O25 C10 1.272 . S
O26 Sm1 2.543 . S
O26 C11 1.261 . S
O27 Sm1 2.450 . S
O27 C11 1.242 . S
O28 Sm0 2.386 . S
O28 Sm1 2.681 . S
O28 C18 1.271 . S
O29 Sm1 2.464 . S
O29 C18 1.251 . S
O30 Sm1 2.396 . S
O30 C19 1.252 . S
O31 Sm0 2.408 . S
O31 C19 1.272 . S
H32 C4 0.930 . S
H33 C5 0.929 . S
H34 C7 0.930 1_655 S
H35 C8 0.895 1_655 S
H36 C13 0.930 . S
H37 C14 0.929 . S
H38 C16 0.930 . S
H39 C17 0.929 . S
Sm40 C42 2.846 . S
Sm40 O60 2.543 . S
Sm40 O61 2.450 . S
Sm40 O62 2.681 . S
Sm40 O63 2.464 . S
Sm40 O64 2.396 . S
Sm40 O68 2.386 . S
Sm40 O71 2.408 . S
Sm41 C51 2.846 . S
Sm41 O62 2.386 . S
Sm41 O65 2.408 . S
Sm41 O66 2.543 . S
Sm41 O67 2.450 . S
Sm41 O68 2.681 . S
Sm41 O69 2.464 . S
Sm41 O70 2.396 . S
C42 Sm40 2.846 . S
C42 C43 1.506 . S
C42 O60 1.261 . S
C42 O61 1.242 . S
C43 C42 1.506 . S
C43 C44 1.358 . S
C43 C48 1.382 . S
C44 C43 1.358 . S
C44 C45 1.385 . S
C44 H72 0.930 . S
C45 C44 1.385 . S
C45 C46 1.395 . S
C45 H73 0.929 . S
C46 C45 1.395 . S
C46 C47 1.335 . S
C47 C46 1.335 . S
C47 C48 1.398 . S
C47 H74 0.930 . S
C48 C43 1.382 . S
C48 C47 1.398 . S
C48 H75 0.929 . S
C49 O62 1.271 . S
C49 O63 1.251 . S
C50 O64 1.252 . S
C50 O65 1.272 . S
C51 Sm41 2.846 . S
C51 C52 1.506 . S
C51 O66 1.261 . S
C51 O67 1.242 . S
C52 C51 1.506 . S
C52 C53 1.358 . S
C52 C57 1.382 . S
C53 C52 1.358 . S
C53 C54 1.385 . S
C53 H76 0.930 . S
C54 C53 1.385 . S
C54 C55 1.395 . S
C54 H77 0.929 . S
C55 C54 1.395 . S
C55 C56 1.335 . S
C56 C55 1.335 . S
C56 C57 1.398 . S
C56 H78 0.930 . S
C57 C52 1.382 . S
C57 C56 1.398 . S
C57 H79 0.929 . S
C58 O68 1.271 . S
C58 O69 1.251 . S
C59 O70 1.252 . S
C59 O71 1.272 . S
O60 Sm40 2.543 . S
O60 C42 1.261 . S
O61 Sm40 2.450 . S
O61 C42 1.242 . S
O62 Sm40 2.681 . S
O62 Sm41 2.386 . S
O62 C49 1.271 . S
O63 Sm40 2.464 . S
O63 C49 1.251 . S
O64 Sm40 2.396 . S
O64 C50 1.252 . S
O65 Sm41 2.408 . S
O65 C50 1.272 . S
O66 Sm41 2.543 . S
O66 C51 1.261 . S
O67 Sm41 2.450 . S
O67 C51 1.242 . S
O68 Sm40 2.386 . S
O68 Sm41 2.681 . S
O68 C58 1.271 . S
O69 Sm41 2.464 . S
O69 C58 1.251 . S
O70 Sm41 2.396 . S
O70 C59 1.252 . S
O71 Sm40 2.408 . S
O71 C59 1.272 . S
H72 C44 0.930 . S
H73 C45 0.929 . S
H74 C47 0.930 . S
H75 C48 0.929 . S
H76 C53 0.930 . S
H77 C54 0.929 . S
H78 C56 0.930 . S
H79 C57 0.929 . S
Sm80 C82 2.846 . S
Sm80 O100 2.543 . S
Sm80 O101 2.450 . S
Sm80 O102 2.681 . S
Sm80 O103 2.464 . S
Sm80 O104 2.396 . S
Sm80 O108 2.386 . S
Sm80 O111 2.408 . S
Sm81 C91 2.846 . S
Sm81 O102 2.386 . S
Sm81 O105 2.408 . S
Sm81 O106 2.543 . S
Sm81 O107 2.450 . S
Sm81 O108 2.681 . S
Sm81 O109 2.464 . S
Sm81 O110 2.396 . S
C82 Sm80 2.846 . S
C82 C83 1.506 . S
C82 O100 1.261 . S
C82 O101 1.242 . S
C83 C82 1.506 . S
C83 C84 1.358 . S
C83 C88 1.382 . S
C84 C83 1.358 . S
C84 C85 1.385 . S
C84 H112 0.930 . S
C85 C84 1.385 . S
C85 C86 1.395 . S
C85 H113 0.929 . S
C86 C85 1.395 . S
C86 C87 1.335 . S
C87 C86 1.335 . S
C87 C88 1.398 . S
C87 H114 0.930 . S
C88 C83 1.382 . S
C88 C87 1.398 . S
C88 H115 0.929 . S
C89 O102 1.271 . S
C89 O103 1.251 . S
C90 O104 1.252 . S
C90 O105 1.272 . S
C91 Sm81 2.846 . S
C91 C92 1.506 . S
C91 O106 1.261 . S
C91 O107 1.242 . S
C92 C91 1.506 . S
C92 C93 1.358 . S
C92 C97 1.382 . S
C93 C92 1.358 . S
C93 C94 1.385 . S
C93 H116 0.930 . S
C94 C93 1.385 . S
C94 C95 1.395 . S
C94 H117 0.929 . S
C95 C94 1.395 . S
C95 C96 1.335 . S
C96 C95 1.335 . S
C96 C97 1.398 . S
C96 H118 0.930 . S
C97 C92 1.382 . S
C97 C96 1.398 . S
C97 H119 0.929 . S
C98 O108 1.271 . S
C98 O109 1.251 . S
C99 O110 1.252 . S
C99 O111 1.272 . S
O100 Sm80 2.543 . S
O100 C82 1.261 . S
O101 Sm80 2.450 . S
O101 C82 1.242 . S
O102 Sm80 2.681 . S
O102 Sm81 2.386 . S
O102 C89 1.271 . S
O103 Sm80 2.464 . S
O103 C89 1.251 . S
O104 Sm80 2.396 . S
O104 C90 1.252 . S
O105 Sm81 2.408 . S
O105 C90 1.272 . S
O106 Sm81 2.543 . S
O106 C91 1.261 . S
O107 Sm81 2.450 . S
O107 C91 1.242 . S
O108 Sm80 2.386 . S
O108 Sm81 2.681 . S
O108 C98 1.271 . S
O109 Sm81 2.464 . S
O109 C98 1.251 . S
O110 Sm81 2.396 . S
O110 C99 1.252 . S
O111 Sm80 2.408 . S
O111 C99 1.272 . S
H112 C84 0.930 . S
H113 C85 0.929 . S
H114 C87 0.930 . S
H115 C88 0.929 . S
H116 C93 0.930 . S
H117 C94 0.929 . S
H118 C96 0.930 . S
H119 C97 0.929 . S
Sm120 C122 2.846 . S
Sm120 O140 2.543 . S
Sm120 O141 2.450 . S
Sm120 O142 2.681 . S
Sm120 O143 2.464 . S
Sm120 O144 2.396 . S
Sm120 O148 2.386 . S
Sm120 O151 2.408 . S
Sm121 C131 2.846 . S
Sm121 O142 2.386 . S
Sm121 O145 2.408 . S
Sm121 O146 2.543 . S
Sm121 O147 2.450 . S
Sm121 O148 2.681 . S
Sm121 O149 2.464 . S
Sm121 O150 2.396 . S
C122 Sm120 2.846 . S
C122 C123 1.506 . S
C122 O140 1.261 . S
C122 O141 1.242 . S
C123 C122 1.506 . S
C123 C124 1.358 . S
C123 C128 1.382 . S
C124 C123 1.358 . S
C124 C125 1.385 . S
C124 H152 0.930 . S
C125 C124 1.385 . S
C125 C126 1.395 . S
C125 H153 0.929 . S
C126 C125 1.395 . S
C126 C127 1.335 . S
C127 C126 1.335 . S
C127 C128 1.398 . S
C127 H154 0.930 . S
C128 C123 1.382 . S
C128 C127 1.398 . S
C128 H155 0.929 . S
C129 O142 1.271 . S
C129 O143 1.251 . S
C130 O144 1.252 . S
C130 O145 1.272 . S
C131 Sm121 2.846 . S
C131 C132 1.506 1_556 S
C131 O146 1.261 . S
C131 O147 1.242 . S
C132 C131 1.506 1_554 S
C132 C133 1.358 . S
C132 C137 1.382 . S
C133 C132 1.358 . S
C133 C134 1.385 . S
C133 H156 0.930 . S
C134 C133 1.385 . S
C134 C135 1.395 . S
C134 H157 0.929 . S
C135 C134 1.395 . S
C135 C136 1.335 . S
C136 C135 1.335 . S
C136 C137 1.398 . S
C136 H158 0.930 . S
C137 C132 1.382 . S
C137 C136 1.398 . S
C137 H159 0.929 . S
C138 O148 1.271 . S
C138 O149 1.251 . S
C139 O150 1.252 . S
C139 O151 1.272 . S
O140 Sm120 2.543 . S
O140 C122 1.261 . S
O141 Sm120 2.450 . S
O141 C122 1.242 . S
O142 Sm120 2.681 . S
O142 Sm121 2.386 . S
O142 C129 1.271 . S
O143 Sm120 2.464 . S
O143 C129 1.251 . S
O144 Sm120 2.396 . S
O144 C130 1.252 . S
O145 Sm121 2.408 . S
O145 C130 1.272 . S
O146 Sm121 2.543 . S
O146 C131 1.261 . S
O147 Sm121 2.450 . S
O147 C131 1.242 . S
O148 Sm120 2.386 . S
O148 Sm121 2.681 . S
O148 C138 1.271 . S
O149 Sm121 2.464 . S
O149 C138 1.251 . S
O150 Sm121 2.396 . S
O150 C139 1.252 . S
O151 Sm120 2.408 . S
O151 C139 1.272 . S
H152 C124 0.930 . S
H153 C125 0.929 . S
H154 C127 0.930 . S
H155 C128 0.929 . S
H156 C133 0.930 . S
H157 C134 0.929 . S
H158 C136 0.930 . S
H159 C137 0.929 . S
Sm160 C162 2.846 . S
Sm160 O180 2.543 . S
Sm160 O181 2.450 . S
Sm160 O182 2.681 . S
Sm160 O183 2.464 . S
Sm160 O184 2.396 . S
Sm160 O188 2.386 . S
Sm160 O191 2.408 . S
Sm161 C171 2.846 . S
Sm161 O182 2.386 . S
Sm161 O185 2.408 . S
Sm161 O186 2.543 . S
Sm161 O187 2.450 . S
Sm161 O188 2.681 . S
Sm161 O189 2.464 . S
Sm161 O190 2.396 . S
C162 Sm160 2.846 . S
C162 C163 1.506 . S
C162 O180 1.261 . S
C162 O181 1.242 . S
C163 C162 1.506 . S
C163 C164 1.358 . S
C163 C168 1.382 . S
C164 C163 1.358 . S
C164 C165 1.385 . S
C164 H192 0.930 . S
C165 C164 1.385 . S
C165 C166 1.395 . S
C165 H193 0.929 . S
C166 C165 1.395 . S
C166 C167 1.335 . S
C167 C166 1.335 . S
C167 C168 1.398 . S
C167 H194 0.930 . S
C168 C163 1.382 . S
C168 C167 1.398 . S
C168 H195 0.929 . S
C169 O182 1.271 . S
C169 O183 1.251 . S
C170 O184 1.252 . S
C170 O185 1.272 . S
C171 Sm161 2.846 . S
C171 C172 1.506 . S
C171 O186 1.261 . S
C171 O187 1.242 . S
C172 C171 1.506 . S
C172 C173 1.358 . S
C172 C177 1.382 . S
C173 C172 1.358 . S
C173 C174 1.385 . S
C173 H196 0.930 . S
C174 C173 1.385 . S
C174 C175 1.395 . S
C174 H197 0.929 . S
C175 C174 1.395 . S
C175 C176 1.335 . S
C176 C175 1.335 . S
C176 C177 1.398 . S
C176 H198 0.930 . S
C177 C172 1.382 . S
C177 C176 1.398 . S
C177 H199 0.929 . S
C178 O188 1.271 . S
C178 O189 1.251 . S
C179 O190 1.252 . S
C179 O191 1.272 . S
O180 Sm160 2.543 . S
O180 C162 1.261 . S
O181 Sm160 2.450 . S
O181 C162 1.242 . S
O182 Sm160 2.681 . S
O182 Sm161 2.386 . S
O182 C169 1.271 . S
O183 Sm160 2.464 . S
O183 C169 1.251 . S
O184 Sm160 2.396 . S
O184 C170 1.252 . S
O185 Sm161 2.408 . S
O185 C170 1.272 . S
O186 Sm161 2.543 . S
O186 C171 1.261 . S
O187 Sm161 2.450 . S
O187 C171 1.242 . S
O188 Sm160 2.386 . S
O188 Sm161 2.681 . S
O188 C178 1.271 . S
O189 Sm161 2.464 . S
O189 C178 1.251 . S
O190 Sm161 2.396 . S
O190 C179 1.252 . S
O191 Sm160 2.408 . S
O191 C179 1.272 . S
H192 C164 0.930 . S
H193 C165 0.929 . S
H194 C167 0.930 . S
H195 C168 0.929 . S
H196 C173 0.930 . S
H197 C174 0.929 . S
H198 C176 0.930 . S
H199 C177 0.929 . S
Sm200 C202 2.846 . S
Sm200 O220 2.543 . S
Sm200 O221 2.450 . S
Sm200 O222 2.681 . S
Sm200 O223 2.464 . S
Sm200 O224 2.396 . S
Sm200 O228 2.386 . S
Sm200 O231 2.408 . S
Sm201 C211 2.846 . S
Sm201 O222 2.386 . S
Sm201 O225 2.408 . S
Sm201 O226 2.543 . S
Sm201 O227 2.450 . S
Sm201 O228 2.681 . S
Sm201 O229 2.464 . S
Sm201 O230 2.396 . S
C202 Sm200 2.846 . S
C202 C203 1.506 . S
C202 O220 1.261 . S
C202 O221 1.242 . S
C203 C202 1.506 . S
C203 C204 1.358 . S
C203 C208 1.382 . S
C204 C203 1.358 . S
C204 C205 1.385 1_556 S
C204 H232 0.930 . S
C205 C204 1.385 1_554 S
C205 C206 1.395 . S
C205 H233 0.929 . S
C206 C205 1.395 . S
C206 C207 1.335 . S
C207 C206 1.335 . S
C207 C208 1.398 1_554 S
C207 H234 0.930 . S
C208 C203 1.382 . S
C208 C207 1.398 1_556 S
C208 H235 0.929 . S
C209 O222 1.271 . S
C209 O223 1.251 . S
C210 O224 1.252 . S
C210 O225 1.272 . S
C211 Sm201 2.846 . S
C211 C212 1.506 . S
C211 O226 1.261 . S
C211 O227 1.242 . S
C212 C211 1.506 . S
C212 C213 1.358 . S
C212 C217 1.382 . S
C213 C212 1.358 . S
C213 C214 1.385 . S
C213 H236 0.930 . S
C214 C213 1.385 . S
C214 C215 1.395 . S
C214 H237 0.929 . S
C215 C214 1.395 . S
C215 C216 1.335 . S
C216 C215 1.335 . S
C216 C217 1.398 . S
C216 H238 0.930 . S
C217 C212 1.382 . S
C217 C216 1.398 . S
C217 H239 0.929 . S
C218 O228 1.271 . S
C218 O229 1.251 . S
C219 O230 1.252 . S
C219 O231 1.272 . S
O220 Sm200 2.543 . S
O220 C202 1.261 . S
O221 Sm200 2.450 . S
O221 C202 1.242 . S
O222 Sm200 2.681 . S
O222 Sm201 2.386 . S
O222 C209 1.271 . S
O223 Sm200 2.464 . S
O223 C209 1.251 . S
O224 Sm200 2.396 . S
O224 C210 1.252 . S
O225 Sm201 2.408 . S
O225 C210 1.272 . S
O226 Sm201 2.543 . S
O226 C211 1.261 . S
O227 Sm201 2.450 . S
O227 C211 1.242 . S
O228 Sm200 2.386 . S
O228 Sm201 2.681 . S
O228 C218 1.271 . S
O229 Sm201 2.464 . S
O229 C218 1.251 . S
O230 Sm201 2.396 . S
O230 C219 1.252 . S
O231 Sm200 2.408 . S
O231 C219 1.272 . S
H232 C204 0.930 . S
H233 C205 0.929 . S
H234 C207 0.930 . S
H235 C208 0.929 . S
H236 C213 0.930 . S
H237 C214 0.929 . S
H238 C216 0.930 . S
H239 C217 0.929 . S
Sm240 C242 2.846 . S
Sm240 O260 2.543 . S
Sm240 O261 2.450 . S
Sm240 O262 2.681 . S
Sm240 O263 2.464 . S
Sm240 O264 2.396 . S
Sm240 O268 2.386 . S
Sm240 O271 2.408 . S
Sm241 C251 2.846 1_554 S
Sm241 O262 2.386 . S
Sm241 O265 2.408 . S
Sm241 O266 2.543 1_554 S
Sm241 O267 2.450 . S
Sm241 O268 2.681 . S
Sm241 O269 2.464 . S
Sm241 O270 2.396 . S
C242 Sm240 2.846 . S
C242 C243 1.506 . S
C242 O260 1.261 . S
C242 O261 1.242 . S
C243 C242 1.506 . S
C243 C244 1.358 . S
C243 C248 1.382 . S
C244 C243 1.358 . S
C244 C245 1.385 . S
C244 H272 0.930 . S
C245 C244 1.385 . S
C245 C246 1.395 . S
C245 H273 0.929 . S
C246 C245 1.395 . S
C246 C247 1.335 . S
C247 C246 1.335 . S
C247 C248 1.398 . S
C247 H274 0.930 . S
C248 C243 1.382 . S
C248 C247 1.398 . S
C248 H275 0.929 . S
C249 O262 1.271 . S
C249 O263 1.251 . S
C250 O264 1.252 . S
C250 O265 1.272 . S
C251 Sm241 2.846 1_556 S
C251 C252 1.506 . S
C251 O266 1.261 . S
C251 O267 1.242 1_556 S
C252 C251 1.506 . S
C252 C253 1.358 . S
C252 C257 1.382 . S
C253 C252 1.358 . S
C253 C254 1.385 . S
C253 H276 0.930 . S
C254 C253 1.385 . S
C254 C255 1.395 . S
C254 H277 0.929 . S
C255 C254 1.395 . S
C255 C256 1.335 . S
C256 C255 1.335 . S
C256 C257 1.398 . S
C256 H278 0.930 . S
C257 C252 1.382 . S
C257 C256 1.398 . S
C257 H279 0.929 . S
C258 O268 1.271 . S
C258 O269 1.251 . S
C259 O270 1.252 . S
C259 O271 1.272 . S
O260 Sm240 2.543 . S
O260 C242 1.261 . S
O261 Sm240 2.450 . S
O261 C242 1.242 . S
O262 Sm240 2.681 . S
O262 Sm241 2.386 . S
O262 C249 1.271 . S
O263 Sm240 2.464 . S
O263 C249 1.251 . S
O264 Sm240 2.396 . S
O264 C250 1.252 . S
O265 Sm241 2.408 . S
O265 C250 1.272 . S
O266 Sm241 2.543 1_556 S
O266 C251 1.261 . S
O267 Sm241 2.450 . S
O267 C251 1.242 1_554 S
O268 Sm240 2.386 . S
O268 Sm241 2.681 . S
O268 C258 1.271 . S
O269 Sm241 2.464 . S
O269 C258 1.251 . S
O270 Sm241 2.396 . S
O270 C259 1.252 . S
O271 Sm240 2.408 . S
O271 C259 1.272 . S
H272 C244 0.930 . S
H273 C245 0.929 . S
H274 C247 0.930 . S
H275 C248 0.929 . S
H276 C253 0.930 . S
H277 C254 0.929 . S
H278 C256 0.930 . S
H279 C257 0.929 . S
Sm280 C282 2.846 . S
Sm280 O300 2.543 . S
Sm280 O301 2.450 . S
Sm280 O302 2.681 . S
Sm280 O303 2.464 . S
Sm280 O304 2.396 . S
Sm280 O308 2.386 . S
Sm280 O311 2.408 . S
Sm281 C291 2.846 . S
Sm281 O302 2.386 . S
Sm281 O305 2.408 . S
Sm281 O306 2.543 . S
Sm281 O307 2.450 . S
Sm281 O308 2.681 . S
Sm281 O309 2.464 . S
Sm281 O310 2.396 . S
C282 Sm280 2.846 . S
C282 C283 1.506 . S
C282 O300 1.261 . S
C282 O301 1.242 . S
C283 C282 1.506 . S
C283 C284 1.358 . S
C283 C288 1.382 . S
C284 C283 1.358 . S
C284 C285 1.385 . S
C284 H312 0.930 . S
C285 C284 1.385 . S
C285 C286 1.395 . S
C285 H313 0.929 . S
C286 C285 1.395 . S
C286 C287 1.335 . S
C287 C286 1.335 . S
C287 C288 1.398 . S
C287 H314 0.930 . S
C288 C283 1.382 . S
C288 C287 1.398 . S
C288 H315 0.929 . S
C289 O302 1.271 . S
C289 O303 1.251 . S
C290 O304 1.252 . S
C290 O305 1.272 . S
C291 Sm281 2.846 . S
C291 C292 1.506 . S
C291 O306 1.261 . S
C291 O307 1.242 . S
C292 C291 1.506 . S
C292 C293 1.358 . S
C292 C297 1.382 . S
C293 C292 1.358 . S
C293 C294 1.385 . S
C293 H316 0.930 . S
C294 C293 1.385 . S
C294 C295 1.395 . S
C294 H317 0.929 . S
C295 C294 1.395 . S
C295 C296 1.335 . S
C296 C295 1.335 . S
C296 C297 1.398 . S
C296 H318 0.930 . S
C297 C292 1.382 . S
C297 C296 1.398 . S
C297 H319 0.929 . S
C298 O308 1.271 . S
C298 O309 1.251 . S
C299 O310 1.252 . S
C299 O311 1.272 . S
O300 Sm280 2.543 . S
O300 C282 1.261 . S
O301 Sm280 2.450 . S
O301 C282 1.242 . S
O302 Sm280 2.681 . S
O302 Sm281 2.386 . S
O302 C289 1.271 . S
O303 Sm280 2.464 . S
O303 C289 1.251 . S
O304 Sm280 2.396 . S
O304 C290 1.252 . S
O305 Sm281 2.408 . S
O305 C290 1.272 . S
O306 Sm281 2.543 . S
O306 C291 1.261 . S
O307 Sm281 2.450 . S
O307 C291 1.242 . S
O308 Sm280 2.386 . S
O308 Sm281 2.681 . S
O308 C298 1.271 . S
O309 Sm281 2.464 . S
O309 C298 1.251 . S
O310 Sm281 2.396 . S
O310 C299 1.252 . S
O311 Sm280 2.408 . S
O311 C299 1.272 . S
H312 C284 0.930 . S
H313 C285 0.929 . S
H314 C287 0.930 . S
H315 C288 0.929 . S
H316 C293 0.930 . S
H317 C294 0.929 . S
H318 C296 0.930 . S
H319 C297 0.929 . S
Sm320 C322 2.846 . S
Sm320 O340 2.543 . S
Sm320 O341 2.450 . S
Sm320 O342 2.681 . S
Sm320 O343 2.464 . S
Sm320 O344 2.396 . S
Sm320 O348 2.386 . S
Sm320 O351 2.408 . S
Sm321 C331 2.846 . S
Sm321 O342 2.386 . S
Sm321 O345 2.408 . S
Sm321 O346 2.543 . S
Sm321 O347 2.450 . S
Sm321 O348 2.681 . S
Sm321 O349 2.464 . S
Sm321 O350 2.396 . S
C322 Sm320 2.846 . S
C322 C323 1.506 . S
C322 O340 1.261 . S
C322 O341 1.242 . S
C323 C322 1.506 . S
C323 C324 1.358 . S
C323 C328 1.382 . S
C324 C323 1.358 . S
C324 C325 1.385 . S
C324 H352 0.930 . S
C325 C324 1.385 . S
C325 C326 1.395 . S
C325 H353 0.929 . S
C326 C325 1.395 . S
C326 C327 1.335 . S
C327 C326 1.335 . S
C327 C328 1.398 . S
C327 H354 0.930 . S
C328 C323 1.382 . S
C328 C327 1.398 . S
C328 H355 0.929 . S
C329 O342 1.271 . S
C329 O343 1.251 . S
C330 O344 1.252 . S
C330 O345 1.272 . S
C331 Sm321 2.846 . S
C331 C332 1.506 . S
C331 O346 1.261 . S
C331 O347 1.242 . S
C332 C331 1.506 . S
C332 C333 1.358 . S
C332 C337 1.382 . S
C333 C332 1.358 . S
C333 C334 1.385 . S
C333 H356 0.930 . S
C334 C333 1.385 . S
C334 C335 1.395 1_554 S
C334 H357 0.936 . S
C335 C334 1.395 1_556 S
C335 C336 1.335 1_556 S
C336 C335 1.335 1_554 S
C336 C337 1.398 . S
C336 H358 0.930 1_655 S
C337 C332 1.382 . S
C337 C336 1.398 . S
C337 H359 0.895 1_655 S
C338 O348 1.271 . S
C338 O349 1.251 . S
C339 O350 1.252 . S
C339 O351 1.272 . S
O340 Sm320 2.543 . S
O340 C322 1.261 . S
O341 Sm320 2.450 . S
O341 C322 1.242 . S
O342 Sm320 2.681 . S
O342 Sm321 2.386 . S
O342 C329 1.271 . S
O343 Sm320 2.464 . S
O343 C329 1.251 . S
O344 Sm320 2.396 . S
O344 C330 1.252 . S
O345 Sm321 2.408 . S
O345 C330 1.272 . S
O346 Sm321 2.543 . S
O346 C331 1.261 . S
O347 Sm321 2.450 . S
O347 C331 1.242 . S
O348 Sm320 2.386 . S
O348 Sm321 2.681 . S
O348 C338 1.271 . S
O349 Sm321 2.464 . S
O349 C338 1.251 . S
O350 Sm321 2.396 . S
O350 C339 1.252 . S
O351 Sm320 2.408 . S
O351 C339 1.272 . S
H352 C324 0.930 . S
H353 C325 0.929 . S
H354 C327 0.930 . S
H355 C328 0.929 . S
H356 C333 0.930 . S
H357 C334 0.936 . S
H358 C336 0.930 1_455 S
H359 C337 0.895 1_455 S
Sm360 C362 2.846 1_556 S
Sm360 O380 2.543 1_556 S
Sm360 O381 2.450 1_556 S
Sm360 O382 2.681 . S
Sm360 O383 2.464 . S
Sm360 O384 2.396 1_556 S
Sm360 O388 2.386 . S
Sm360 O391 2.408 . S
Sm361 C371 2.846 . S
Sm361 O382 2.386 . S
Sm361 O385 2.408 . S
Sm361 O386 2.543 . S
Sm361 O387 2.450 . S
Sm361 O388 2.681 . S
Sm361 O389 2.464 . S
Sm361 O390 2.396 . S
C362 Sm360 2.846 1_554 S
C362 C363 1.506 . S
C362 O380 1.261 . S
C362 O381 1.242 . S
C363 C362 1.506 . S
C363 C364 1.358 . S
C363 C368 1.382 . S
C364 C363 1.358 . S
C364 C365 1.385 . S
C364 H392 0.930 . S
C365 C364 1.385 . S
C365 C366 1.395 . S
C365 H393 0.929 . S
C366 C365 1.395 . S
C366 C367 1.335 . S
C367 C366 1.335 . S
C367 C368 1.398 . S
C367 H394 0.930 . S
C368 C363 1.382 . S
C368 C367 1.398 . S
C368 H395 0.929 . S
C369 O382 1.271 . S
C369 O383 1.251 . S
C370 O384 1.252 . S
C370 O385 1.272 1_554 S
C371 Sm361 2.846 . S
C371 C372 1.506 . S
C371 O386 1.261 . S
C371 O387 1.242 . S
C372 C371 1.506 . S
C372 C373 1.358 . S
C372 C377 1.382 . S
C373 C372 1.358 . S
C373 C374 1.385 . S
C373 H396 0.930 . S
C374 C373 1.385 . S
C374 C375 1.395 . S
C374 H397 0.929 . S
C375 C374 1.395 . S
C375 C376 1.335 . S
C376 C375 1.335 . S
C376 C377 1.398 . S
C376 H398 0.930 . S
C377 C372 1.382 . S
C377 C376 1.398 . S
C377 H399 0.929 . S
C378 O388 1.271 . S
C378 O389 1.251 . S
C379 O390 1.252 . S
C379 O391 1.272 . S
O380 Sm360 2.543 1_554 S
O380 C362 1.261 . S
O381 Sm360 2.450 1_554 S
O381 C362 1.242 . S
O382 Sm360 2.681 . S
O382 Sm361 2.386 . S
O382 C369 1.271 . S
O383 Sm360 2.464 . S
O383 C369 1.251 . S
O384 Sm360 2.396 1_554 S
O384 C370 1.252 . S
O385 Sm361 2.408 . S
O385 C370 1.272 1_556 S
O386 Sm361 2.543 . S
O386 C371 1.261 . S
O387 Sm361 2.450 . S
O387 C371 1.242 . S
O388 Sm360 2.386 . S
O388 Sm361 2.681 . S
O388 C378 1.271 . S
O389 Sm361 2.464 . S
O389 C378 1.251 . S
O390 Sm361 2.396 . S
O390 C379 1.252 . S
O391 Sm360 2.408 . S
O391 C379 1.272 . S
H392 C364 0.930 . S
H393 C365 0.929 . S
H394 C367 0.930 . S
H395 C368 0.929 . S
H396 C373 0.930 . S
H397 C374 0.929 . S
H398 C376 0.930 . S
H399 C377 0.929 . S
Sm400 C402 2.846 . S
Sm400 O420 2.543 . S
Sm400 O421 2.450 . S
Sm400 O422 2.681 . S
Sm400 O423 2.464 . S
Sm400 O424 2.396 . S
Sm400 O428 2.386 . S
Sm400 O431 2.408 . S
Sm401 C411 2.846 . S
Sm401 O422 2.386 . S
Sm401 O425 2.408 . S
Sm401 O426 2.543 . S
Sm401 O427 2.450 . S
Sm401 O428 2.681 . S
Sm401 O429 2.464 . S
Sm401 O430 2.396 . S
C402 Sm400 2.846 . S
C402 C403 1.506 . S
C402 O420 1.261 . S
C402 O421 1.242 . S
C403 C402 1.506 . S
C403 C404 1.358 . S
C403 C408 1.382 . S
C404 C403 1.358 . S
C404 C405 1.385 . S
C404 H432 0.930 . S
C405 C404 1.385 . S
C405 C406 1.395 . S
C405 H433 0.929 . S
C406 C405 1.395 . S
C406 C407 1.335 . S
C407 C406 1.335 . S
C407 C408 1.398 . S
C407 H434 0.930 . S
C408 C403 1.382 . S
C408 C407 1.398 . S
C408 H435 0.929 . S
C409 O422 1.271 . S
C409 O423 1.251 . S
C410 O424 1.252 . S
C410 O425 1.272 . S
C411 Sm401 2.846 . S
C411 C412 1.506 . S
C411 O426 1.261 . S
C411 O427 1.242 . S
C412 C411 1.506 . S
C412 C413 1.358 . S
C412 C417 1.382 . S
C413 C412 1.358 . S
C413 C414 1.385 . S
C413 H436 0.930 . S
C414 C413 1.385 . S
C414 C415 1.395 . S
C414 H437 0.929 . S
C415 C414 1.395 . S
C415 C416 1.335 . S
C416 C415 1.335 . S
C416 C417 1.398 . S
C416 H438 0.930 . S
C417 C412 1.382 . S
C417 C416 1.398 . S
C417 H439 0.929 . S
C418 O428 1.271 . S
C418 O429 1.251 . S
C419 O430 1.252 . S
C419 O431 1.272 . S
O420 Sm400 2.543 . S
O420 C402 1.261 . S
O421 Sm400 2.450 . S
O421 C402 1.242 . S
O422 Sm400 2.681 . S
O422 Sm401 2.386 . S
O422 C409 1.271 . S
O423 Sm400 2.464 . S
O423 C409 1.251 . S
O424 Sm400 2.396 . S
O424 C410 1.252 . S
O425 Sm401 2.408 . S
O425 C410 1.272 . S
O426 Sm401 2.543 . S
O426 C411 1.261 . S
O427 Sm401 2.450 . S
O427 C411 1.242 . S
O428 Sm400 2.386 . S
O428 Sm401 2.681 . S
O428 C418 1.271 . S
O429 Sm401 2.464 . S
O429 C418 1.251 . S
O430 Sm401 2.396 . S
O430 C419 1.252 . S
O431 Sm400 2.408 . S
O431 C419 1.272 . S
H432 C404 0.930 . S
H433 C405 0.929 . S
H434 C407 0.930 . S
H435 C408 0.929 . S
H436 C413 0.930 . S
H437 C414 0.929 . S
H438 C416 0.930 . S
H439 C417 0.929 . S
Sm440 C442 2.846 . S
Sm440 O460 2.543 . S
Sm440 O461 2.450 . S
Sm440 O462 2.681 . S
Sm440 O463 2.464 . S
Sm440 O464 2.396 . S
Sm440 O468 2.386 . S
Sm440 O471 2.408 . S
Sm441 C451 2.846 . S
Sm441 O462 2.386 . S
Sm441 O465 2.408 . S
Sm441 O466 2.543 . S
Sm441 O467 2.450 . S
Sm441 O468 2.681 . S
Sm441 O469 2.464 . S
Sm441 O470 2.396 . S
C442 Sm440 2.846 . S
C442 C443 1.506 . S
C442 O460 1.261 . S
C442 O461 1.242 . S
C443 C442 1.506 . S
C443 C444 1.358 . S
C443 C448 1.382 . S
C444 C443 1.358 . S
C444 C445 1.385 . S
C444 H472 0.930 . S
C445 C444 1.385 . S
C445 C446 1.395 . S
C445 H473 0.929 . S
C446 C445 1.395 . S
C446 C447 1.335 . S
C447 C446 1.335 . S
C447 C448 1.398 . S
C447 H474 0.930 . S
C448 C443 1.382 . S
C448 C447 1.398 . S
C448 H475 0.929 . S
C449 O462 1.271 . S
C449 O463 1.251 . S
C450 O464 1.252 . S
C450 O465 1.272 . S
C451 Sm441 2.846 . S
C451 C452 1.506 . S
C451 O466 1.261 . S
C451 O467 1.242 . S
C452 C451 1.506 . S
C452 C453 1.358 . S
C452 C457 1.382 . S
C453 C452 1.358 . S
C453 C454 1.385 . S
C453 H476 0.930 . S
C454 C453 1.385 . S
C454 C455 1.395 . S
C454 H477 0.929 . S
C455 C454 1.395 . S
C455 C456 1.335 . S
C456 C455 1.335 . S
C456 C457 1.398 . S
C456 H478 0.930 . S
C457 C452 1.382 . S
C457 C456 1.398 . S
C457 H479 0.929 . S
C458 O468 1.271 . S
C458 O469 1.251 . S
C459 O470 1.252 . S
C459 O471 1.272 . S
O460 Sm440 2.543 . S
O460 C442 1.261 . S
O461 Sm440 2.450 . S
O461 C442 1.242 . S
O462 Sm440 2.681 . S
O462 Sm441 2.386 . S
O462 C449 1.271 . S
O463 Sm440 2.464 . S
O463 C449 1.251 . S
O464 Sm440 2.396 . S
O464 C450 1.252 . S
O465 Sm441 2.408 . S
O465 C450 1.272 . S
O466 Sm441 2.543 . S
O466 C451 1.261 . S
O467 Sm441 2.450 . S
O467 C451 1.242 . S
O468 Sm440 2.386 . S
O468 Sm441 2.681 . S
O468 C458 1.271 . S
O469 Sm441 2.464 . S
O469 C458 1.251 . S
O470 Sm441 2.396 . S
O470 C459 1.252 . S
O471 Sm440 2.408 . S
O471 C459 1.272 . S
H472 C444 0.930 . S
H473 C445 0.929 . S
H474 C447 0.930 . S
H475 C448 0.929 . S
H476 C453 0.930 . S
H477 C454 0.929 . S
H478 C456 0.930 . S
H479 C457 0.929 . S
Sm480 C482 2.846 . S
Sm480 O500 2.543 . S
Sm480 O501 2.450 . S
Sm480 O502 2.681 . S
Sm480 O503 2.464 . S
Sm480 O504 2.396 . S
Sm480 O508 2.386 . S
Sm480 O511 2.408 . S
Sm481 C491 2.846 . S
Sm481 O502 2.386 . S
Sm481 O505 2.408 . S
Sm481 O506 2.543 . S
Sm481 O507 2.450 . S
Sm481 O508 2.681 . S
Sm481 O509 2.464 . S
Sm481 O510 2.396 . S
C482 Sm480 2.846 . S
C482 C483 1.506 . S
C482 O500 1.261 . S
C482 O501 1.242 . S
C483 C482 1.506 . S
C483 C484 1.358 . S
C483 C488 1.382 . S
C484 C483 1.358 . S
C484 C485 1.385 . S
C484 H512 0.930 . S
C485 C484 1.385 . S
C485 C486 1.395 . S
C485 H513 0.929 . S
C486 C485 1.395 . S
C486 C487 1.335 . S
C487 C486 1.335 . S
C487 C488 1.398 . S
C487 H514 0.930 . S
C488 C483 1.382 . S
C488 C487 1.398 . S
C488 H515 0.929 . S
C489 O502 1.271 . S
C489 O503 1.251 . S
C490 O504 1.252 . S
C490 O505 1.272 . S
C491 Sm481 2.846 . S
C491 C492 1.506 . S
C491 O506 1.261 . S
C491 O507 1.242 . S
C492 C491 1.506 . S
C492 C493 1.358 . S
C492 C497 1.382 . S
C493 C492 1.358 . S
C493 C494 1.385 . S
C493 H516 0.930 . S
C494 C493 1.385 . S
C494 C495 1.395 . S
C494 H517 0.929 . S
C495 C494 1.395 . S
C495 C496 1.335 . S
C496 C495 1.335 . S
C496 C497 1.398 . S
C496 H518 0.930 . S
C497 C492 1.382 . S
C497 C496 1.398 . S
C497 H519 0.929 . S
C498 O508 1.271 . S
C498 O509 1.251 . S
C499 O510 1.252 . S
C499 O511 1.272 . S
O500 Sm480 2.543 . S
O500 C482 1.261 . S
O501 Sm480 2.450 . S
O501 C482 1.242 . S
O502 Sm480 2.681 . S
O502 Sm481 2.386 . S
O502 C489 1.271 . S
O503 Sm480 2.464 . S
O503 C489 1.251 . S
O504 Sm480 2.396 . S
O504 C490 1.252 . S
O505 Sm481 2.408 . S
O505 C490 1.272 . S
O506 Sm481 2.543 . S
O506 C491 1.261 . S
O507 Sm481 2.450 . S
O507 C491 1.242 . S
O508 Sm480 2.386 . S
O508 Sm481 2.681 . S
O508 C498 1.271 . S
O509 Sm481 2.464 . S
O509 C498 1.251 . S
O510 Sm481 2.396 . S
O510 C499 1.252 . S
O511 Sm480 2.408 . S
O511 C499 1.272 . S
H512 C484 0.930 . S
H513 C485 0.929 . S
H514 C487 0.930 . S
H515 C488 0.929 . S
H516 C493 0.930 . S
H517 C494 0.929 . S
H518 C496 0.930 . S
H519 C497 0.929 . S
Sm520 C522 2.846 . S
Sm520 O540 2.543 . S
Sm520 O541 2.450 . S
Sm520 O542 2.681 . S
Sm520 O543 2.464 . S
Sm520 O544 2.396 . S
Sm520 O548 2.386 . S
Sm520 O551 2.408 . S
Sm521 C531 2.846 . S
Sm521 O542 2.386 . S
Sm521 O545 2.408 . S
Sm521 O546 2.543 . S
Sm521 O547 2.450 . S
Sm521 O548 2.681 . S
Sm521 O549 2.464 . S
Sm521 O550 2.396 . S
C522 Sm520 2.846 . S
C522 C523 1.506 . S
C522 O540 1.261 . S
C522 O541 1.242 . S
C523 C522 1.506 . S
C523 C524 1.358 . S
C523 C528 1.382 . S
C524 C523 1.358 . S
C524 C525 1.385 . S
C524 H552 0.930 . S
C525 C524 1.385 . S
C525 C526 1.395 . S
C525 H553 0.929 . S
C526 C525 1.395 . S
C526 C527 1.335 . S
C527 C526 1.335 . S
C527 C528 1.398 . S
C527 H554 0.930 . S
C528 C523 1.382 . S
C528 C527 1.398 . S
C528 H555 0.929 . S
C529 O542 1.271 . S
C529 O543 1.251 . S
C530 O544 1.252 . S
C530 O545 1.272 . S
C531 Sm521 2.846 . S
C531 C532 1.506 . S
C531 O546 1.261 . S
C531 O547 1.242 . S
C532 C531 1.506 . S
C532 C533 1.358 . S
C532 C537 1.382 . S
C533 C532 1.358 . S
C533 C534 1.385 . S
C533 H556 0.930 . S
C534 C533 1.385 . S
C534 C535 1.395 . S
C534 H557 0.929 . S
C535 C534 1.395 . S
C535 C536 1.335 . S
C536 C535 1.335 . S
C536 C537 1.398 . S
C536 H558 0.930 . S
C537 C532 1.382 . S
C537 C536 1.398 . S
C537 H559 0.929 . S
C538 O548 1.271 . S
C538 O549 1.251 . S
C539 O550 1.252 . S
C539 O551 1.272 . S
O540 Sm520 2.543 . S
O540 C522 1.261 . S
O541 Sm520 2.450 . S
O541 C522 1.242 . S
O542 Sm520 2.681 . S
O542 Sm521 2.386 . S
O542 C529 1.271 . S
O543 Sm520 2.464 . S
O543 C529 1.251 . S
O544 Sm520 2.396 . S
O544 C530 1.252 . S
O545 Sm521 2.408 . S
O545 C530 1.272 . S
O546 Sm521 2.543 . S
O546 C531 1.261 . S
O547 Sm521 2.450 . S
O547 C531 1.242 . S
O548 Sm520 2.386 . S
O548 Sm521 2.681 . S
O548 C538 1.271 . S
O549 Sm521 2.464 . S
O549 C538 1.251 . S
O550 Sm521 2.396 . S
O550 C539 1.252 . S
O551 Sm520 2.408 . S
O551 C539 1.272 . S
H552 C524 0.930 . S
H553 C525 0.929 . S
H554 C527 0.930 . S
H555 C528 0.929 . S
H556 C533 0.930 . S
H557 C534 0.929 . S
H558 C536 0.930 . S
H559 C537 0.929 . S
Sm560 C562 2.846 . S
Sm560 O580 2.543 . S
Sm560 O581 2.450 . S
Sm560 O582 2.681 . S
Sm560 O583 2.464 . S
Sm560 O584 2.396 . S
Sm560 O588 2.386 . S
Sm560 O591 2.408 . S
Sm561 C571 2.846 . S
Sm561 O582 2.386 . S
Sm561 O585 2.408 . S
Sm561 O586 2.543 . S
Sm561 O587 2.450 . S
Sm561 O588 2.681 . S
Sm561 O589 2.464 . S
Sm561 O590 2.396 . S
C562 Sm560 2.846 . S
C562 C563 1.506 . S
C562 O580 1.261 . S
C562 O581 1.242 . S
C563 C562 1.506 . S
C563 C564 1.358 . S
C563 C568 1.382 . S
C564 C563 1.358 . S
C564 C565 1.385 . S
C564 H592 0.930 . S
C565 C564 1.385 . S
C565 C566 1.395 . S
C565 H593 0.929 . S
C566 C565 1.395 . S
C566 C567 1.335 . S
C567 C566 1.335 . S
C567 C568 1.398 . S
C567 H594 0.930 . S
C568 C563 1.382 . S
C568 C567 1.398 . S
C568 H595 0.929 . S
C569 O582 1.271 . S
C569 O583 1.251 . S
C570 O584 1.252 . S
C570 O585 1.272 . S
C571 Sm561 2.846 . S
C571 C572 1.506 . S
C571 O586 1.261 . S
C571 O587 1.242 . S
C572 C571 1.506 . S
C572 C573 1.358 . S
C572 C577 1.382 . S
C573 C572 1.358 . S
C573 C574 1.385 . S
C573 H596 0.930 . S
C574 C573 1.385 . S
C574 C575 1.395 . S
C574 H597 0.929 . S
C575 C574 1.395 . S
C575 C576 1.335 . S
C576 C575 1.335 . S
C576 C577 1.398 . S
C576 H598 0.930 . S
C577 C572 1.382 . S
C577 C576 1.398 . S
C577 H599 0.929 . S
C578 O588 1.271 . S
C578 O589 1.251 . S
C579 O590 1.252 . S
C579 O591 1.272 . S
O580 Sm560 2.543 . S
O580 C562 1.261 . S
O581 Sm560 2.450 . S
O581 C562 1.242 . S
O582 Sm560 2.681 . S
O582 Sm561 2.386 . S
O582 C569 1.271 . S
O583 Sm560 2.464 . S
O583 C569 1.251 . S
O584 Sm560 2.396 . S
O584 C570 1.252 . S
O585 Sm561 2.408 . S
O585 C570 1.272 . S
O586 Sm561 2.543 . S
O586 C571 1.261 . S
O587 Sm561 2.450 . S
O587 C571 1.242 . S
O588 Sm560 2.386 . S
O588 Sm561 2.681 . S
O588 C578 1.271 . S
O589 Sm561 2.464 . S
O589 C578 1.251 . S
O590 Sm561 2.396 . S
O590 C579 1.252 . S
O591 Sm560 2.408 . S
O591 C579 1.272 . S
H592 C564 0.930 . S
H593 C565 0.929 . S
H594 C567 0.930 . S
H595 C568 0.929 . S
H596 C573 0.930 . S
H597 C574 0.929 . S
H598 C576 0.930 . S
H599 C577 0.929 . S
Sm600 C602 2.846 . S
Sm600 O620 2.543 . S
Sm600 O621 2.450 . S
Sm600 O622 2.681 . S
Sm600 O623 2.464 . S
Sm600 O624 2.396 . S
Sm600 O628 2.386 . S
Sm600 O631 2.408 . S
Sm601 C611 2.846 . S
Sm601 O622 2.386 . S
Sm601 O625 2.408 . S
Sm601 O626 2.543 . S
Sm601 O627 2.450 . S
Sm601 O628 2.681 . S
Sm601 O629 2.464 . S
Sm601 O630 2.396 . S
C602 Sm600 2.846 . S
C602 C603 1.506 1_556 S
C602 O620 1.261 . S
C602 O621 1.242 . S
C603 C602 1.506 1_554 S
C603 C604 1.358 . S
C603 C608 1.382 . S
C604 C603 1.358 . S
C604 C605 1.385 . S
C604 H632 0.930 . S
C605 C604 1.385 . S
C605 C606 1.395 . S
C605 H633 0.929 . S
C606 C605 1.395 . S
C606 C607 1.335 . S
C607 C606 1.335 . S
C607 C608 1.398 . S
C607 H634 0.930 . S
C608 C603 1.382 . S
C608 C607 1.398 . S
C608 H635 0.929 . S
C609 O622 1.271 . S
C609 O623 1.251 . S
C610 O624 1.252 . S
C610 O625 1.272 . S
C611 Sm601 2.846 . S
C611 C612 1.506 . S
C611 O626 1.261 . S
C611 O627 1.242 . S
C612 C611 1.506 . S
C612 C613 1.358 . S
C612 C617 1.382 . S
C613 C612 1.358 . S
C613 C614 1.385 . S
C613 H636 0.930 . S
C614 C613 1.385 . S
C614 C615 1.395 . S
C614 H637 0.929 . S
C615 C614 1.395 . S
C615 C616 1.335 . S
C616 C615 1.335 . S
C616 C617 1.398 . S
C616 H638 0.930 . S
C617 C612 1.382 . S
C617 C616 1.398 . S
C617 H639 0.929 . S
C618 O628 1.271 . S
C618 O629 1.251 . S
C619 O630 1.252 . S
C619 O631 1.272 . S
O620 Sm600 2.543 . S
O620 C602 1.261 . S
O621 Sm600 2.450 . S
O621 C602 1.242 . S
O622 Sm600 2.681 . S
O622 Sm601 2.386 . S
O622 C609 1.271 . S
O623 Sm600 2.464 . S
O623 C609 1.251 . S
O624 Sm600 2.396 . S
O624 C610 1.252 . S
O625 Sm601 2.408 . S
O625 C610 1.272 . S
O626 Sm601 2.543 . S
O626 C611 1.261 . S
O627 Sm601 2.450 . S
O627 C611 1.242 . S
O628 Sm600 2.386 . S
O628 Sm601 2.681 . S
O628 C618 1.271 . S
O629 Sm601 2.464 . S
O629 C618 1.251 . S
O630 Sm601 2.396 . S
O630 C619 1.252 . S
O631 Sm600 2.408 . S
O631 C619 1.272 . S
H632 C604 0.930 . S
H633 C605 0.929 . S
H634 C607 0.930 . S
H635 C608 0.929 . S
H636 C613 0.930 . S
H637 C614 0.929 . S
H638 C616 0.930 . S
H639 C617 0.929 . S
Sm640 C642 2.846 . S
Sm640 O660 2.543 . S
Sm640 O661 2.450 . S
Sm640 O662 2.681 . S
Sm640 O663 2.464 . S
Sm640 O664 2.396 . S
Sm640 O668 2.386 . S
Sm640 O671 2.408 . S
Sm641 C651 2.846 . S
Sm641 O662 2.386 . S
Sm641 O665 2.408 . S
Sm641 O666 2.543 . S
Sm641 O667 2.450 . S
Sm641 O668 2.681 . S
Sm641 O669 2.464 . S
Sm641 O670 2.396 . S
C642 Sm640 2.846 . S
C642 C643 1.506 . S
C642 O660 1.261 . S
C642 O661 1.242 . S
C643 C642 1.506 . S
C643 C644 1.358 . S
C643 C648 1.382 . S
C644 C643 1.358 . S
C644 C645 1.385 . S
C644 H672 0.930 . S
C645 C644 1.385 . S
C645 C646 1.395 . S
C645 H673 0.929 . S
C646 C645 1.395 . S
C646 C647 1.335 . S
C647 C646 1.335 . S
C647 C648 1.398 . S
C647 H674 0.930 . S
C648 C643 1.382 . S
C648 C647 1.398 . S
C648 H675 0.929 . S
C649 O662 1.271 . S
C649 O663 1.251 . S
C650 O664 1.252 . S
C650 O665 1.272 . S
C651 Sm641 2.846 . S
C651 C652 1.506 . S
C651 O666 1.261 . S
C651 O667 1.242 . S
C652 C651 1.506 . S
C652 C653 1.358 . S
C652 C657 1.382 . S
C653 C652 1.358 . S
C653 C654 1.385 . S
C653 H676 0.930 . S
C654 C653 1.385 . S
C654 C655 1.395 . S
C654 H677 0.929 . S
C655 C654 1.395 . S
C655 C656 1.335 . S
C656 C655 1.335 . S
C656 C657 1.398 . S
C656 H678 0.930 . S
C657 C652 1.382 . S
C657 C656 1.398 . S
C657 H679 0.929 . S
C658 O668 1.271 . S
C658 O669 1.251 . S
C659 O670 1.252 . S
C659 O671 1.272 . S
O660 Sm640 2.543 . S
O660 C642 1.261 . S
O661 Sm640 2.450 . S
O661 C642 1.242 . S
O662 Sm640 2.681 . S
O662 Sm641 2.386 . S
O662 C649 1.271 . S
O663 Sm640 2.464 . S
O663 C649 1.251 . S
O664 Sm640 2.396 . S
O664 C650 1.252 . S
O665 Sm641 2.408 . S
O665 C650 1.272 . S
O666 Sm641 2.543 . S
O666 C651 1.261 . S
O667 Sm641 2.450 . S
O667 C651 1.242 . S
O668 Sm640 2.386 . S
O668 Sm641 2.681 . S
O668 C658 1.271 . S
O669 Sm641 2.464 . S
O669 C658 1.251 . S
O670 Sm641 2.396 . S
O670 C659 1.252 . S
O671 Sm640 2.408 . S
O671 C659 1.272 . S
H672 C644 0.930 . S
H673 C645 0.929 . S
H674 C647 0.930 . S
H675 C648 0.929 . S
H676 C653 0.930 . S
H677 C654 0.929 . S
H678 C656 0.930 . S
H679 C657 0.929 . S
Sm680 C682 2.846 . S
Sm680 O700 2.543 . S
Sm680 O701 2.450 . S
Sm680 O702 2.681 . S
Sm680 O703 2.464 . S
Sm680 O704 2.396 . S
Sm680 O708 2.386 . S
Sm680 O711 2.408 . S
Sm681 C691 2.846 . S
Sm681 O702 2.386 . S
Sm681 O705 2.408 . S
Sm681 O706 2.543 . S
Sm681 O707 2.450 . S
Sm681 O708 2.681 . S
Sm681 O709 2.464 . S
Sm681 O710 2.396 . S
C682 Sm680 2.846 . S
C682 C683 1.506 1_556 S
C682 O700 1.261 . S
C682 O701 1.242 . S
C683 C682 1.506 1_554 S
C683 C684 1.358 . S
C683 C688 1.382 . S
C684 C683 1.358 . S
C684 C685 1.385 . S
C684 H712 0.930 . S
C685 C684 1.385 . S
C685 C686 1.395 . S
C685 H713 0.929 . S
C686 C685 1.395 . S
C686 C687 1.335 . S
C687 C686 1.335 . S
C687 C688 1.398 . S
C687 H714 0.930 . S
C688 C683 1.382 . S
C688 C687 1.398 . S
C688 H715 0.929 . S
C689 O702 1.271 . S
C689 O703 1.251 . S
C690 O704 1.252 . S
C690 O705 1.272 . S
C691 Sm681 2.846 . S
C691 C692 1.506 . S
C691 O706 1.261 . S
C691 O707 1.242 . S
C692 C691 1.506 . S
C692 C693 1.358 . S
C692 C697 1.382 . S
C693 C692 1.358 . S
C693 C694 1.385 . S
C693 H716 0.930 . S
C694 C693 1.385 . S
C694 C695 1.395 . S
C694 H717 0.929 . S
C695 C694 1.395 . S
C695 C696 1.335 . S
C696 C695 1.335 . S
C696 C697 1.398 . S
C696 H718 0.930 . S
C697 C692 1.382 . S
C697 C696 1.398 . S
C697 H719 0.929 . S
C698 O708 1.271 . S
C698 O709 1.251 . S
C699 O710 1.252 . S
C699 O711 1.272 . S
O700 Sm680 2.543 . S
O700 C682 1.261 . S
O701 Sm680 2.450 . S
O701 C682 1.242 . S
O702 Sm680 2.681 . S
O702 Sm681 2.386 . S
O702 C689 1.271 . S
O703 Sm680 2.464 . S
O703 C689 1.251 . S
O704 Sm680 2.396 . S
O704 C690 1.252 . S
O705 Sm681 2.408 . S
O705 C690 1.272 . S
O706 Sm681 2.543 . S
O706 C691 1.261 . S
O707 Sm681 2.450 . S
O707 C691 1.242 . S
O708 Sm680 2.386 . S
O708 Sm681 2.681 . S
O708 C698 1.271 . S
O709 Sm681 2.464 . S
O709 C698 1.251 . S
O710 Sm681 2.396 . S
O710 C699 1.252 . S
O711 Sm680 2.408 . S
O711 C699 1.272 . S
H712 C684 0.930 . S
H713 C685 0.929 . S
H714 C687 0.930 . S
H715 C688 0.929 . S
H716 C693 0.930 . S
H717 C694 0.929 . S
H718 C696 0.930 . S
H719 C697 0.929 . S
Sm720 C722 2.846 . S
Sm720 O740 2.543 . S
Sm720 O741 2.450 . S
Sm720 O742 2.681 . S
Sm720 O743 2.464 . S
Sm720 O744 2.396 . S
Sm720 O748 2.386 . S
Sm720 O751 2.408 . S
Sm721 C731 2.846 . S
Sm721 O742 2.386 . S
Sm721 O745 2.408 . S
Sm721 O746 2.543 . S
Sm721 O747 2.450 . S
Sm721 O748 2.681 . S
Sm721 O749 2.464 . S
Sm721 O750 2.396 . S
C722 Sm720 2.846 . S
C722 C723 1.506 . S
C722 O740 1.261 . S
C722 O741 1.242 . S
C723 C722 1.506 . S
C723 C724 1.358 . S
C723 C728 1.384 . S
C724 C723 1.358 . S
C724 C725 1.385 . S
C724 H752 0.930 . S
C725 C724 1.385 . S
C725 C726 1.395 . S
C725 H753 0.929 . S
C726 C725 1.395 . S
C726 C727 1.335 1_655 S
C727 C726 1.335 1_455 S
C727 C728 1.398 1_455 S
C727 H754 0.930 . S
C728 C723 1.384 . S
C728 C727 1.398 1_655 S
C728 H755 0.928 1_655 S
C729 O742 1.271 . S
C729 O743 1.251 . S
C730 O744 1.252 . S
C730 O745 1.272 . S
C731 Sm721 2.846 . S
C731 C732 1.506 . S
C731 O746 1.261 . S
C731 O747 1.242 . S
C732 C731 1.506 . S
C732 C733 1.358 1_554 S
C732 C737 1.382 1_554 S
C733 C732 1.358 1_556 S
C733 C734 1.385 . S
C733 H756 0.930 . S
C734 C733 1.385 . S
C734 C735 1.395 . S
C734 H757 0.929 . S
C735 C734 1.395 . S
C735 C736 1.335 . S
C736 C735 1.335 . S
C736 C737 1.398 . S
C736 H758 0.930 . S
C737 C732 1.382 1_556 S
C737 C736 1.398 . S
C737 H759 0.929 1_556 S
C738 O748 1.271 . S
C738 O749 1.251 . S
C739 O750 1.252 . S
C739 O751 1.272 . S
O740 Sm720 2.543 . S
O740 C722 1.261 . S
O741 Sm720 2.450 . S
O741 C722 1.242 . S
O742 Sm720 2.681 . S
O742 Sm721 2.386 . S
O742 C729 1.271 . S
O743 Sm720 2.464 . S
O743 C729 1.251 . S
O744 Sm720 2.396 . S
O744 C730 1.252 . S
O745 Sm721 2.408 . S
O745 C730 1.272 . S
O746 Sm721 2.543 . S
O746 C731 1.261 . S
O747 Sm721 2.450 . S
O747 C731 1.242 . S
O748 Sm720 2.386 . S
O748 Sm721 2.681 . S
O748 C738 1.271 . S
O749 Sm721 2.464 . S
O749 C738 1.251 . S
O750 Sm721 2.396 . S
O750 C739 1.252 . S
O751 Sm720 2.408 . S
O751 C739 1.272 . S
H752 C724 0.930 . S
H753 C725 0.929 . S
H754 C727 0.930 . S
H755 C728 0.928 1_455 S
H756 C733 0.930 . S
H757 C734 0.929 . S
H758 C736 0.930 . S
H759 C737 0.929 1_554 S
Sm760 C762 2.846 . S
Sm760 O780 2.543 . S
Sm760 O781 2.450 . S
Sm760 O782 2.681 . S
Sm760 O783 2.464 . S
Sm760 O784 2.396 . S
Sm760 O788 2.386 . S
Sm760 O791 2.408 . S
Sm761 C771 2.846 . S
Sm761 O782 2.386 . S
Sm761 O785 2.408 . S
Sm761 O786 2.543 . S
Sm761 O787 2.450 . S
Sm761 O788 2.681 . S
Sm761 O789 2.464 . S
Sm761 O790 2.396 . S
C762 Sm760 2.846 . S
C762 C763 1.506 . S
C762 O780 1.261 . S
C762 O781 1.242 . S
C763 C762 1.506 . S
C763 C764 1.358 . S
C763 C768 1.382 . S
C764 C763 1.358 . S
C764 C765 1.385 . S
C764 H792 0.930 . S
C765 C764 1.385 . S
C765 C766 1.395 . S
C765 H793 0.929 . S
C766 C765 1.395 . S
C766 C767 1.335 . S
C767 C766 1.335 . S
C767 C768 1.398 . S
C767 H794 0.930 . S
C768 C763 1.382 . S
C768 C767 1.398 . S
C768 H795 0.929 . S
C769 O782 1.271 . S
C769 O783 1.251 . S
C770 O784 1.252 . S
C770 O785 1.272 . S
C771 Sm761 2.846 . S
C771 C772 1.506 . S
C771 O786 1.261 . S
C771 O787 1.242 . S
C772 C771 1.506 . S
C772 C773 1.358 . S
C772 C777 1.382 . S
C773 C772 1.358 . S
C773 C774 1.385 . S
C773 H796 0.930 . S
C774 C773 1.385 . S
C774 C775 1.395 . S
C774 H797 0.929 . S
C775 C774 1.395 . S
C775 C776 1.335 . S
C776 C775 1.335 . S
C776 C777 1.398 . S
C776 H798 0.930 . S
C777 C772 1.382 . S
C777 C776 1.398 . S
C777 H799 0.929 . S
C778 O788 1.271 . S
C778 O789 1.251 . S
C779 O790 1.252 . S
C779 O791 1.272 . S
O780 Sm760 2.543 . S
O780 C762 1.261 . S
O781 Sm760 2.450 . S
O781 C762 1.242 . S
O782 Sm760 2.681 . S
O782 Sm761 2.386 . S
O782 C769 1.271 . S
O783 Sm760 2.464 . S
O783 C769 1.251 . S
O784 Sm760 2.396 . S
O784 C770 1.252 . S
O785 Sm761 2.408 . S
O785 C770 1.272 . S
O786 Sm761 2.543 . S
O786 C771 1.261 . S
O787 Sm761 2.450 . S
O787 C771 1.242 . S
O788 Sm760 2.386 . S
O788 Sm761 2.681 . S
O788 C778 1.271 . S
O789 Sm761 2.464 . S
O789 C778 1.251 . S
O790 Sm761 2.396 . S
O790 C779 1.252 . S
O791 Sm760 2.408 . S
O791 C779 1.272 . S
H792 C764 0.930 . S
H793 C765 0.929 . S
H794 C767 0.930 . S
H795 C768 0.929 . S
H796 C773 0.930 . S
H797 C774 0.929 . S
H798 C776 0.930 . S
H799 C777 0.929 . S
Sm800 C802 2.846 . S
Sm800 O820 2.543 . S
Sm800 O821 2.450 . S
Sm800 O822 2.681 . S
Sm800 O823 2.464 . S
Sm800 O824 2.396 . S
Sm800 O828 2.386 . S
Sm800 O831 2.408 . S
Sm801 C811 2.846 1_554 S
Sm801 O822 2.386 . S
Sm801 O825 2.408 . S
Sm801 O826 2.543 1_554 S
Sm801 O827 2.450 1_544 S
Sm801 O828 2.681 . S
Sm801 O829 2.464 . S
Sm801 O830 2.396 . S
C802 Sm800 2.846 . S
C802 C803 1.506 . S
C802 O820 1.261 . S
C802 O821 1.242 . S
C803 C802 1.506 . S
C803 C804 1.358 . S
C803 C808 1.382 . S
C804 C803 1.358 . S
C804 C805 1.385 . S
C804 H832 0.930 . S
C805 C804 1.385 . S
C805 C806 1.395 . S
C805 H833 0.929 . S
C806 C805 1.395 . S
C806 C807 1.335 . S
C807 C806 1.335 . S
C807 C808 1.398 . S
C807 H834 0.930 . S
C808 C803 1.382 . S
C808 C807 1.398 . S
C808 H835 0.929 . S
C809 O822 1.271 . S
C809 O823 1.251 . S
C810 O824 1.252 . S
C810 O825 1.272 . S
C811 Sm801 2.846 1_556 S
C811 C812 1.506 . S
C811 O826 1.261 . S
C811 O827 1.242 1_545 S
C812 C811 1.506 . S
C812 C813 1.358 . S
C812 C817 1.382 1_545 S
C813 C812 1.358 . S
C813 C814 1.385 . S
C813 H836 0.930 . S
C814 C813 1.385 . S
C814 C815 1.395 1_545 S
C814 H837 0.929 . S
C815 C814 1.395 1_565 S
C815 C816 1.335 . S
C816 C815 1.335 . S
C816 C817 1.398 . S
C816 H838 0.930 . S
C817 C812 1.382 1_565 S
C817 C816 1.398 . S
C817 H839 0.929 . S
C818 O828 1.271 . S
C818 O829 1.251 . S
C819 O830 1.252 . S
C819 O831 1.272 . S
O820 Sm800 2.543 . S
O820 C802 1.261 . S
O821 Sm800 2.450 . S
O821 C802 1.242 . S
O822 Sm800 2.681 . S
O822 Sm801 2.386 . S
O822 C809 1.271 . S
O823 Sm800 2.464 . S
O823 C809 1.251 . S
O824 Sm800 2.396 . S
O824 C810 1.252 . S
O825 Sm801 2.408 . S
O825 C810 1.272 . S
O826 Sm801 2.543 1_556 S
O826 C811 1.261 . S
O827 Sm801 2.450 1_566 S
O827 C811 1.242 1_565 S
O828 Sm800 2.386 . S
O828 Sm801 2.681 . S
O828 C818 1.271 . S
O829 Sm801 2.464 . S
O829 C818 1.251 . S
O830 Sm801 2.396 . S
O830 C819 1.252 . S
O831 Sm800 2.408 . S
O831 C819 1.272 . S
H832 C804 0.930 . S
H833 C805 0.929 . S
H834 C807 0.930 . S
H835 C808 0.929 . S
H836 C813 0.930 . S
H837 C814 0.929 . S
H838 C816 0.930 . S
H839 C817 0.929 . S
Sm840 C842 2.846 . S
Sm840 O860 2.543 . S
Sm840 O861 2.450 . S
Sm840 O862 2.681 . S
Sm840 O863 2.464 . S
Sm840 O864 2.396 . S
Sm840 O868 2.386 . S
Sm840 O871 2.408 . S
Sm841 C851 2.846 . S
Sm841 O862 2.386 . S
Sm841 O865 2.408 . S
Sm841 O866 2.543 . S
Sm841 O867 2.450 . S
Sm841 O868 2.681 . S
Sm841 O869 2.464 . S
Sm841 O870 2.396 . S
C842 Sm840 2.846 . S
C842 C843 1.506 . S
C842 O860 1.261 . S
C842 O861 1.242 . S
C843 C842 1.506 . S
C843 C844 1.358 . S
C843 C848 1.382 . S
C844 C843 1.358 . S
C844 C845 1.385 . S
C844 H872 0.930 . S
C845 C844 1.385 . S
C845 C846 1.395 . S
C845 H873 0.929 . S
C846 C845 1.395 . S
C846 C847 1.335 . S
C847 C846 1.335 . S
C847 C848 1.398 . S
C847 H874 0.930 . S
C848 C843 1.382 . S
C848 C847 1.398 . S
C848 H875 0.929 . S
C849 O862 1.271 . S
C849 O863 1.251 . S
C850 O864 1.252 . S
C850 O865 1.272 . S
C851 Sm841 2.846 . S
C851 C852 1.506 . S
C851 O866 1.261 . S
C851 O867 1.242 . S
C852 C851 1.506 . S
C852 C853 1.358 . S
C852 C857 1.382 . S
C853 C852 1.358 . S
C853 C854 1.385 . S
C853 H876 0.930 . S
C854 C853 1.385 . S
C854 C855 1.395 . S
C854 H877 0.929 . S
C855 C854 1.395 . S
C855 C856 1.335 . S
C856 C855 1.335 . S
C856 C857 1.398 . S
C856 H878 0.930 . S
C857 C852 1.382 . S
C857 C856 1.398 . S
C857 H879 0.929 . S
C858 O868 1.271 . S
C858 O869 1.251 . S
C859 O870 1.252 . S
C859 O871 1.272 . S
O860 Sm840 2.543 . S
O860 C842 1.261 . S
O861 Sm840 2.450 . S
O861 C842 1.242 . S
O862 Sm840 2.681 . S
O862 Sm841 2.386 . S
O862 C849 1.271 . S
O863 Sm840 2.464 . S
O863 C849 1.251 . S
O864 Sm840 2.396 . S
O864 C850 1.252 . S
O865 Sm841 2.408 . S
O865 C850 1.272 . S
O866 Sm841 2.543 . S
O866 C851 1.261 . S
O867 Sm841 2.450 . S
O867 C851 1.242 . S
O868 Sm840 2.386 . S
O868 Sm841 2.681 . S
O868 C858 1.271 . S
O869 Sm841 2.464 . S
O869 C858 1.251 . S
O870 Sm841 2.396 . S
O870 C859 1.252 . S
O871 Sm840 2.408 . S
O871 C859 1.272 . S
H872 C844 0.930 . S
H873 C845 0.929 . S
H874 C847 0.930 . S
H875 C848 0.929 . S
H876 C853 0.930 . S
H877 C854 0.929 . S
H878 C856 0.930 . S
H879 C857 0.929 . S
Sm880 C882 2.846 . S
Sm880 O900 2.543 . S
Sm880 O901 2.450 . S
Sm880 O902 2.681 . S
Sm880 O903 2.464 . S
Sm880 O904 2.396 . S
Sm880 O908 2.386 . S
Sm880 O911 2.408 . S
Sm881 C891 2.846 . S
Sm881 O902 2.386 . S
Sm881 O905 2.408 . S
Sm881 O906 2.543 . S
Sm881 O907 2.450 1_565 S
Sm881 O908 2.681 . S
Sm881 O909 2.464 1_565 S
Sm881 O910 2.396 . S
C882 Sm880 2.846 . S
C882 C883 1.506 . S
C882 O900 1.261 . S
C882 O901 1.242 . S
C883 C882 1.506 . S
C883 C884 1.358 . S
C883 C888 1.382 . S
C884 C883 1.358 . S
C884 C885 1.385 . S
C884 H912 0.930 . S
C885 C884 1.385 . S
C885 C886 1.395 . S
C885 H913 0.929 . S
C886 C885 1.395 . S
C886 C887 1.335 . S
C887 C886 1.335 . S
C887 C888 1.398 . S
C887 H914 0.930 . S
C888 C883 1.382 . S
C888 C887 1.398 . S
C888 H915 0.929 . S
C889 O902 1.271 . S
C889 O903 1.251 . S
C890 O904 1.252 . S
C890 O905 1.272 . S
C891 Sm881 2.846 . S
C891 C892 1.506 1_565 S
C891 O906 1.261 . S
C891 O907 1.242 1_565 S
C892 C891 1.506 1_545 S
C892 C893 1.358 1_545 S
C892 C897 1.382 . S
C893 C892 1.358 1_565 S
C893 C894 1.385 . S
C893 H916 0.930 . S
C894 C893 1.385 . S
C894 C895 1.395 1_565 S
C894 H917 0.929 . S
C895 C894 1.395 1_545 S
C895 C896 1.335 . S
C896 C895 1.335 . S
C896 C897 1.398 . S
C896 H918 0.930 . S
C897 C892 1.382 . S
C897 C896 1.398 . S
C897 H919 0.929 . S
C898 O908 1.271 . S
C898 O909 1.251 1_565 S
C899 O910 1.252 . S
C899 O911 1.272 . S
O900 Sm880 2.543 . S
O900 C882 1.261 . S
O901 Sm880 2.450 . S
O901 C882 1.242 . S
O902 Sm880 2.681 . S
O902 Sm881 2.386 . S
O902 C889 1.271 . S
O903 Sm880 2.464 . S
O903 C889 1.251 . S
O904 Sm880 2.396 . S
O904 C890 1.252 . S
O905 Sm881 2.408 . S
O905 C890 1.272 . S
O906 Sm881 2.543 . S
O906 C891 1.261 . S
O907 Sm881 2.450 1_545 S
O907 C891 1.242 1_545 S
O908 Sm880 2.386 . S
O908 Sm881 2.681 . S
O908 C898 1.271 . S
O909 Sm881 2.464 1_545 S
O909 C898 1.251 1_545 S
O910 Sm881 2.396 . S
O910 C899 1.252 . S
O911 Sm880 2.408 . S
O911 C899 1.272 . S
H912 C884 0.930 . S
H913 C885 0.929 . S
H914 C887 0.930 . S
H915 C888 0.929 . S
H916 C893 0.930 . S
H917 C894 0.929 . S
H918 C896 0.930 . S
H919 C897 0.929 . S
Sm920 C922 2.846 1_556 S
Sm920 O940 2.543 1_556 S
Sm920 O941 2.450 1_556 S
Sm920 O942 2.681 . S
Sm920 O943 2.464 . S
Sm920 O944 2.396 . S
Sm920 O948 2.386 . S
Sm920 O951 2.408 . S
Sm921 C931 2.846 . S
Sm921 O942 2.386 . S
Sm921 O945 2.408 . S
Sm921 O946 2.543 . S
Sm921 O947 2.450 . S
Sm921 O948 2.681 . S
Sm921 O949 2.464 . S
Sm921 O950 2.396 . S
C922 Sm920 2.846 1_554 S
C922 C923 1.506 . S
C922 O940 1.261 . S
C922 O941 1.242 . S
C923 C922 1.506 . S
C923 C924 1.358 . S
C923 C928 1.382 . S
C924 C923 1.358 . S
C924 C925 1.385 . S
C924 H952 0.930 . S
C925 C924 1.385 . S
C925 C926 1.395 . S
C925 H953 0.929 . S
C926 C925 1.395 . S
C926 C927 1.335 . S
C927 C926 1.335 . S
C927 C928 1.398 . S
C927 H954 0.930 . S
C928 C923 1.382 . S
C928 C927 1.398 . S
C928 H955 0.929 . S
C929 O942 1.271 . S
C929 O943 1.251 . S
C930 O944 1.252 . S
C930 O945 1.272 . S
C931 Sm921 2.846 . S
C931 C932 1.506 . S
C931 O946 1.261 . S
C931 O947 1.242 . S
C932 C931 1.506 . S
C932 C933 1.358 . S
C932 C937 1.382 . S
C933 C932 1.358 . S
C933 C934 1.385 . S
C933 H956 0.930 . S
C934 C933 1.385 . S
C934 C935 1.395 . S
C934 H957 0.929 . S
C935 C934 1.395 . S
C935 C936 1.335 . S
C936 C935 1.335 . S
C936 C937 1.398 . S
C936 H958 0.930 . S
C937 C932 1.382 . S
C937 C936 1.398 . S
C937 H959 0.929 . S
C938 O948 1.271 . S
C938 O949 1.251 . S
C939 O950 1.252 . S
C939 O951 1.272 . S
O940 Sm920 2.543 1_554 S
O940 C922 1.261 . S
O941 Sm920 2.450 1_554 S
O941 C922 1.242 . S
O942 Sm920 2.681 . S
O942 Sm921 2.386 . S
O942 C929 1.271 . S
O943 Sm920 2.464 . S
O943 C929 1.251 . S
O944 Sm920 2.396 . S
O944 C930 1.252 . S
O945 Sm921 2.408 . S
O945 C930 1.272 . S
O946 Sm921 2.543 . S
O946 C931 1.261 . S
O947 Sm921 2.450 . S
O947 C931 1.242 . S
O948 Sm920 2.386 . S
O948 Sm921 2.681 . S
O948 C938 1.271 . S
O949 Sm921 2.464 . S
O949 C938 1.251 . S
O950 Sm921 2.396 . S
O950 C939 1.252 . S
O951 Sm920 2.408 . S
O951 C939 1.272 . S
H952 C924 0.930 . S
H953 C925 0.929 . S
H954 C927 0.930 . S
H955 C928 0.929 . S
H956 C933 0.930 . S
H957 C934 0.929 . S
H958 C936 0.930 . S
H959 C937 0.929 . S
Sm960 C962 2.846 . S
Sm960 O980 2.543 . S
Sm960 O981 2.450 . S
Sm960 O982 2.681 . S
Sm960 O983 2.464 . S
Sm960 O984 2.396 . S
Sm960 O988 2.386 . S
Sm960 O991 2.408 . S
Sm961 C971 2.846 . S
Sm961 O982 2.386 . S
Sm961 O985 2.408 . S
Sm961 O986 2.543 . S
Sm961 O987 2.450 . S
Sm961 O988 2.681 . S
Sm961 O989 2.464 . S
Sm961 O990 2.396 . S
C962 Sm960 2.846 . S
C962 C963 1.506 . S
C962 O980 1.261 . S
C962 O981 1.242 . S
C963 C962 1.506 . S
C963 C964 1.358 . S
C963 C968 1.382 . S
C964 C963 1.358 . S
C964 C965 1.385 . S
C964 H992 0.930 . S
C965 C964 1.385 . S
C965 C966 1.395 . S
C965 H993 0.929 . S
C966 C965 1.395 . S
C966 C967 1.335 . S
C967 C966 1.335 . S
C967 C968 1.398 . S
C967 H994 0.930 . S
C968 C963 1.382 . S
C968 C967 1.398 . S
C968 H995 0.929 . S
C969 O982 1.271 . S
C969 O983 1.251 . S
C970 O984 1.252 . S
C970 O985 1.272 . S
C971 Sm961 2.846 . S
C971 C972 1.506 . S
C971 O986 1.261 . S
C971 O987 1.242 . S
C972 C971 1.506 . S
C972 C973 1.358 . S
C972 C977 1.382 . S
C973 C972 1.358 . S
C973 C974 1.385 . S
C973 H996 0.930 . S
C974 C973 1.385 . S
C974 C975 1.395 . S
C974 H997 0.929 . S
C975 C974 1.395 . S
C975 C976 1.335 . S
C976 C975 1.335 . S
C976 C977 1.398 . S
C976 H998 0.930 . S
C977 C972 1.382 . S
C977 C976 1.398 . S
C977 H999 0.929 . S
C978 O988 1.271 . S
C978 O989 1.251 . S
C979 O990 1.252 . S
C979 O991 1.272 . S
O980 Sm960 2.543 . S
O980 C962 1.261 . S
O981 Sm960 2.450 . S
O981 C962 1.242 . S
O982 Sm960 2.681 . S
O982 Sm961 2.386 . S
O982 C969 1.271 . S
O983 Sm960 2.464 . S
O983 C969 1.251 . S
O984 Sm960 2.396 . S
O984 C970 1.252 . S
O985 Sm961 2.408 . S
O985 C970 1.272 . S
O986 Sm961 2.543 . S
O986 C971 1.261 . S
O987 Sm961 2.450 . S
O987 C971 1.242 . S
O988 Sm960 2.386 . S
O988 Sm961 2.681 . S
O988 C978 1.271 . S
O989 Sm961 2.464 . S
O989 C978 1.251 . S
O990 Sm961 2.396 . S
O990 C979 1.252 . S
O991 Sm960 2.408 . S
O991 C979 1.272 . S
H992 C964 0.930 . S
H993 C965 0.929 . S
H994 C967 0.930 . S
H995 C968 0.929 . S
H996 C973 0.930 . S
H997 C974 0.929 . S
H998 C976 0.930 . S
H999 C977 0.929 . S
Sm1000 C1002 2.846 . S
Sm1000 O1020 2.543 . S
Sm1000 O1021 2.450 . S
Sm1000 O1022 2.681 . S
Sm1000 O1023 2.464 . S
Sm1000 O1024 2.396 . S
Sm1000 O1028 2.386 . S
Sm1000 O1031 2.408 . S
Sm1001 C1011 2.846 . S
Sm1001 O1022 2.386 . S
Sm1001 O1025 2.408 . S
Sm1001 O1026 2.543 . S
Sm1001 O1027 2.450 . S
Sm1001 O1028 2.681 . S
Sm1001 O1029 2.464 . S
Sm1001 O1030 2.396 . S
C1002 Sm1000 2.846 . S
C1002 C1003 1.506 . S
C1002 O1020 1.261 . S
C1002 O1021 1.242 . S
C1003 C1002 1.506 . S
C1003 C1004 1.358 . S
C1003 C1008 1.382 . S
C1004 C1003 1.358 . S
C1004 C1005 1.385 . S
C1004 H1032 0.930 . S
C1005 C1004 1.385 . S
C1005 C1006 1.395 . S
C1005 H1033 0.929 . S
C1006 C1005 1.395 . S
C1006 C1007 1.335 . S
C1007 C1006 1.335 . S
C1007 C1008 1.398 . S
C1007 H1034 0.930 . S
C1008 C1003 1.382 . S
C1008 C1007 1.398 . S
C1008 H1035 0.929 . S
C1009 O1022 1.271 . S
C1009 O1023 1.251 . S
C1010 O1024 1.252 . S
C1010 O1025 1.272 . S
C1011 Sm1001 2.846 . S
C1011 C1012 1.506 . S
C1011 O1026 1.261 . S
C1011 O1027 1.242 . S
C1012 C1011 1.506 . S
C1012 C1013 1.358 . S
C1012 C1017 1.382 . S
C1013 C1012 1.358 . S
C1013 C1014 1.385 . S
C1013 H1036 0.930 . S
C1014 C1013 1.385 . S
C1014 C1015 1.395 . S
C1014 H1037 0.929 . S
C1015 C1014 1.395 . S
C1015 C1016 1.335 . S
C1016 C1015 1.335 . S
C1016 C1017 1.398 . S
C1016 H1038 0.930 . S
C1017 C1012 1.382 . S
C1017 C1016 1.398 . S
C1017 H1039 0.929 . S
C1018 O1028 1.271 . S
C1018 O1029 1.251 . S
C1019 O1030 1.252 . S
C1019 O1031 1.272 . S
O1020 Sm1000 2.543 . S
O1020 C1002 1.261 . S
O1021 Sm1000 2.450 . S
O1021 C1002 1.242 . S
O1022 Sm1000 2.681 . S
O1022 Sm1001 2.386 . S
O1022 C1009 1.271 . S
O1023 Sm1000 2.464 . S
O1023 C1009 1.251 . S
O1024 Sm1000 2.396 . S
O1024 C1010 1.252 . S
O1025 Sm1001 2.408 . S
O1025 C1010 1.272 . S
O1026 Sm1001 2.543 . S
O1026 C1011 1.261 . S
O1027 Sm1001 2.450 . S
O1027 C1011 1.242 . S
O1028 Sm1000 2.386 . S
O1028 Sm1001 2.681 . S
O1028 C1018 1.271 . S
O1029 Sm1001 2.464 . S
O1029 C1018 1.251 . S
O1030 Sm1001 2.396 . S
O1030 C1019 1.252 . S
O1031 Sm1000 2.408 . S
O1031 C1019 1.272 . S
H1032 C1004 0.930 . S
H1033 C1005 0.929 . S
H1034 C1007 0.930 . S
H1035 C1008 0.929 . S
H1036 C1013 0.930 . S
H1037 C1014 0.929 . S
H1038 C1016 0.930 . S
H1039 C1017 0.929 . S
Sm1040 C1042 2.846 . S
Sm1040 O1060 2.543 . S
Sm1040 O1061 2.450 . S
Sm1040 O1062 2.681 . S
Sm1040 O1063 2.464 . S
Sm1040 O1064 2.396 . S
Sm1040 O1068 2.386 . S
Sm1040 O1071 2.408 . S
Sm1041 C1051 2.846 . S
Sm1041 O1062 2.386 . S
Sm1041 O1065 2.408 . S
Sm1041 O1066 2.543 . S
Sm1041 O1067 2.450 . S
Sm1041 O1068 2.681 . S
Sm1041 O1069 2.464 . S
Sm1041 O1070 2.396 . S
C1042 Sm1040 2.846 . S
C1042 C1043 1.506 . S
C1042 O1060 1.261 . S
C1042 O1061 1.242 . S
C1043 C1042 1.506 . S
C1043 C1044 1.358 . S
C1043 C1048 1.382 . S
C1044 C1043 1.358 . S
C1044 C1045 1.385 . S
C1044 H1072 0.930 . S
C1045 C1044 1.385 . S
C1045 C1046 1.395 . S
C1045 H1073 0.929 . S
C1046 C1045 1.395 . S
C1046 C1047 1.335 . S
C1047 C1046 1.335 . S
C1047 C1048 1.398 . S
C1047 H1074 0.930 . S
C1048 C1043 1.382 . S
C1048 C1047 1.398 . S
C1048 H1075 0.929 . S
C1049 O1062 1.271 . S
C1049 O1063 1.251 . S
C1050 O1064 1.252 . S
C1050 O1065 1.272 . S
C1051 Sm1041 2.846 . S
C1051 C1052 1.506 . S
C1051 O1066 1.261 . S
C1051 O1067 1.242 . S
C1052 C1051 1.506 . S
C1052 C1053 1.358 . S
C1052 C1057 1.385 . S
C1053 C1052 1.358 . S
C1053 C1054 1.385 1_554 S
C1053 H1076 0.930 . S
C1054 C1053 1.385 1_556 S
C1054 C1055 1.395 . S
C1054 H1077 0.929 . S
C1055 C1054 1.395 . S
C1055 C1056 1.335 1_455 S
C1056 C1055 1.335 1_655 S
C1056 C1057 1.398 1_656 S
C1056 H1078 0.930 . S
C1057 C1052 1.385 . S
C1057 C1056 1.398 1_454 S
C1057 H1079 0.927 1_455 S
C1058 O1068 1.271 . S
C1058 O1069 1.251 . S
C1059 O1070 1.252 . S
C1059 O1071 1.272 . S
O1060 Sm1040 2.543 . S
O1060 C1042 1.261 . S
O1061 Sm1040 2.450 . S
O1061 C1042 1.242 . S
O1062 Sm1040 2.681 . S
O1062 Sm1041 2.386 . S
O1062 C1049 1.271 . S
O1063 Sm1040 2.464 . S
O1063 C1049 1.251 . S
O1064 Sm1040 2.396 . S
O1064 C1050 1.252 . S
O1065 Sm1041 2.408 . S
O1065 C1050 1.272 . S
O1066 Sm1041 2.543 . S
O1066 C1051 1.261 . S
O1067 Sm1041 2.450 . S
O1067 C1051 1.242 . S
O1068 Sm1040 2.386 . S
O1068 Sm1041 2.681 . S
O1068 C1058 1.271 . S
O1069 Sm1041 2.464 . S
O1069 C1058 1.251 . S
O1070 Sm1041 2.396 . S
O1070 C1059 1.252 . S
O1071 Sm1040 2.408 . S
O1071 C1059 1.272 . S
H1072 C1044 0.930 . S
H1073 C1045 0.929 . S
H1074 C1047 0.930 . S
H1075 C1048 0.929 . S
H1076 C1053 0.930 . S
H1077 C1054 0.929 . S
H1078 C1056 0.930 . S
H1079 C1057 0.927 1_655 S
Sm1080 C1082 2.846 . S
Sm1080 O1100 2.543 . S
Sm1080 O1101 2.450 . S
Sm1080 O1102 2.681 . S
Sm1080 O1103 2.464 . S
Sm1080 O1104 2.396 . S
Sm1080 O1108 2.386 . S
Sm1080 O1111 2.408 . S
Sm1081 C1091 2.846 1_556 S
Sm1081 O1102 2.386 . S
Sm1081 O1105 2.408 . S
Sm1081 O1106 2.543 1_556 S
Sm1081 O1107 2.450 1_556 S
Sm1081 O1108 2.681 . S
Sm1081 O1109 2.464 . S
Sm1081 O1110 2.396 1_556 S
C1082 Sm1080 2.846 . S
C1082 C1083 1.506 . S
C1082 O1100 1.261 . S
C1082 O1101 1.242 . S
C1083 C1082 1.506 . S
C1083 C1084 1.358 . S
C1083 C1088 1.382 . S
C1084 C1083 1.358 . S
C1084 C1085 1.385 . S
C1084 H1112 0.930 . S
C1085 C1084 1.385 . S
C1085 C1086 1.395 . S
C1085 H1113 0.929 . S
C1086 C1085 1.395 . S
C1086 C1087 1.335 . S
C1087 C1086 1.335 . S
C1087 C1088 1.398 . S
C1087 H1114 0.930 . S
C1088 C1083 1.382 . S
C1088 C1087 1.398 . S
C1088 H1115 0.929 . S
C1089 O1102 1.271 . S
C1089 O1103 1.251 . S
C1090 O1104 1.252 . S
C1090 O1105 1.272 . S
C1091 Sm1081 2.846 1_554 S
C1091 C1092 1.506 . S
C1091 O1106 1.261 . S
C1091 O1107 1.242 . S
C1092 C1091 1.506 . S
C1092 C1093 1.358 . S
C1092 C1097 1.382 . S
C1093 C1092 1.358 . S
C1093 C1094 1.385 . S
C1093 H1116 0.930 . S
C1094 C1093 1.385 . S
C1094 C1095 1.395 . S
C1094 H1117 0.929 . S
C1095 C1094 1.395 . S
C1095 C1096 1.335 . S
C1096 C1095 1.335 . S
C1096 C1097 1.398 . S
C1096 H1118 0.930 . S
C1097 C1092 1.382 . S
C1097 C1096 1.398 . S
C1097 H1119 0.929 . S
C1098 O1108 1.271 . S
C1098 O1109 1.251 . S
C1099 O1110 1.252 . S
C1099 O1111 1.272 1_554 S
O1100 Sm1080 2.543 . S
O1100 C1082 1.261 . S
O1101 Sm1080 2.450 . S
O1101 C1082 1.242 . S
O1102 Sm1080 2.681 . S
O1102 Sm1081 2.386 . S
O1102 C1089 1.271 . S
O1103 Sm1080 2.464 . S
O1103 C1089 1.251 . S
O1104 Sm1080 2.396 . S
O1104 C1090 1.252 . S
O1105 Sm1081 2.408 . S
O1105 C1090 1.272 . S
O1106 Sm1081 2.543 1_554 S
O1106 C1091 1.261 . S
O1107 Sm1081 2.450 1_554 S
O1107 C1091 1.242 . S
O1108 Sm1080 2.386 . S
O1108 Sm1081 2.681 . S
O1108 C1098 1.271 . S
O1109 Sm1081 2.464 . S
O1109 C1098 1.251 . S
O1110 Sm1081 2.396 1_554 S
O1110 C1099 1.252 . S
O1111 Sm1080 2.408 . S
O1111 C1099 1.272 1_556 S
H1112 C1084 0.930 . S
H1113 C1085 0.929 . S
H1114 C1087 0.930 . S
H1115 C1088 0.929 . S
H1116 C1093 0.930 . S
H1117 C1094 0.929 . S
H1118 C1096 0.930 . S
H1119 C1097 0.929 . S
Sm1120 C1122 2.846 . S
Sm1120 O1140 2.543 . S
Sm1120 O1141 2.450 1_565 S
Sm1120 O1142 2.681 . S
Sm1120 O1143 2.464 . S
Sm1120 O1144 2.396 . S
Sm1120 O1148 2.386 . S
Sm1120 O1151 2.408 . S
Sm1121 C1131 2.846 . S
Sm1121 O1142 2.386 . S
Sm1121 O1145 2.408 . S
Sm1121 O1146 2.543 . S
Sm1121 O1147 2.450 . S
Sm1121 O1148 2.681 . S
Sm1121 O1149 2.464 . S
Sm1121 O1150 2.396 . S
C1122 Sm1120 2.846 . S
C1122 C1123 1.506 . S
C1122 O1140 1.261 . S
C1122 O1141 1.242 1_565 S
C1123 C1122 1.506 . S
C1123 C1124 1.358 . S
C1123 C1128 1.382 1_565 S
C1124 C1123 1.358 . S
C1124 C1125 1.385 . S
C1124 H1152 0.930 . S
C1125 C1124 1.385 . S
C1125 C1126 1.395 1_565 S
C1125 H1153 0.929 . S
C1126 C1125 1.395 1_545 S
C1126 C1127 1.335 . S
C1127 C1126 1.335 . S
C1127 C1128 1.398 . S
C1127 H1154 0.930 . S
C1128 C1123 1.382 1_545 S
C1128 C1127 1.398 . S
C1128 H1155 0.929 . S
C1129 O1142 1.271 . S
C1129 O1143 1.251 . S
C1130 O1144 1.252 . S
C1130 O1145 1.272 . S
C1131 Sm1121 2.846 . S
C1131 C1132 1.506 . S
C1131 O1146 1.261 . S
C1131 O1147 1.242 . S
C1132 C1131 1.506 . S
C1132 C1133 1.358 . S
C1132 C1137 1.382 . S
C1133 C1132 1.358 . S
C1133 C1134 1.385 . S
C1133 H1156 0.930 . S
C1134 C1133 1.385 . S
C1134 C1135 1.395 . S
C1134 H1157 0.929 . S
C1135 C1134 1.395 . S
C1135 C1136 1.335 . S
C1136 C1135 1.335 . S
C1136 C1137 1.398 . S
C1136 H1158 0.930 . S
C1137 C1132 1.382 . S
C1137 C1136 1.398 . S
C1137 H1159 0.929 . S
C1138 O1148 1.271 . S
C1138 O1149 1.251 . S
C1139 O1150 1.252 . S
C1139 O1151 1.272 . S
O1140 Sm1120 2.543 . S
O1140 C1122 1.261 . S
O1141 Sm1120 2.450 1_545 S
O1141 C1122 1.242 1_545 S
O1142 Sm1120 2.681 . S
O1142 Sm1121 2.386 . S
O1142 C1129 1.271 . S
O1143 Sm1120 2.464 . S
O1143 C1129 1.251 . S
O1144 Sm1120 2.396 . S
O1144 C1130 1.252 . S
O1145 Sm1121 2.408 . S
O1145 C1130 1.272 . S
O1146 Sm1121 2.543 . S
O1146 C1131 1.261 . S
O1147 Sm1121 2.450 . S
O1147 C1131 1.242 . S
O1148 Sm1120 2.386 . S
O1148 Sm1121 2.681 . S
O1148 C1138 1.271 . S
O1149 Sm1121 2.464 . S
O1149 C1138 1.251 . S
O1150 Sm1121 2.396 . S
O1150 C1139 1.252 . S
O1151 Sm1120 2.408 . S
O1151 C1139 1.272 . S
H1152 C1124 0.930 . S
H1153 C1125 0.929 . S
H1154 C1127 0.930 . S
H1155 C1128 0.929 . S
H1156 C1133 0.930 . S
H1157 C1134 0.929 . S
H1158 C1136 0.930 . S
H1159 C1137 0.929 . S
Sm1160 C1162 2.846 . S
Sm1160 O1180 2.543 . S
Sm1160 O1181 2.450 . S
Sm1160 O1182 2.681 1_554 S
Sm1160 O1183 2.464 . S
Sm1160 O1184 2.396 . S
Sm1160 O1188 2.386 . S
Sm1160 O1191 2.408 1_554 S
Sm1161 C1171 2.846 . S
Sm1161 O1182 2.386 . S
Sm1161 O1185 2.408 1_556 S
Sm1161 O1186 2.543 . S
Sm1161 O1187 2.450 . S
Sm1161 O1188 2.681 1_556 S
Sm1161 O1189 2.464 . S
Sm1161 O1190 2.396 . S
C1162 Sm1160 2.846 . S
C1162 C1163 1.506 . S
C1162 O1180 1.261 . S
C1162 O1181 1.242 . S
C1163 C1162 1.506 . S
C1163 C1164 1.358 . S
C1163 C1168 1.382 . S
C1164 C1163 1.358 . S
C1164 C1165 1.385 . S
C1164 H1192 0.930 . S
C1165 C1164 1.385 . S
C1165 C1166 1.395 . S
C1165 H1193 0.929 . S
C1166 C1165 1.395 . S
C1166 C1167 1.335 . S
C1167 C1166 1.335 . S
C1167 C1168 1.398 . S
C1167 H1194 0.930 . S
C1168 C1163 1.382 . S
C1168 C1167 1.398 . S
C1168 H1195 0.929 . S
C1169 O1182 1.271 . S
C1169 O1183 1.251 1_556 S
C1170 O1184 1.252 . S
C1170 O1185 1.272 . S
C1171 Sm1161 2.846 . S
C1171 C1172 1.506 . S
C1171 O1186 1.261 . S
C1171 O1187 1.242 . S
C1172 C1171 1.506 . S
C1172 C1173 1.358 . S
C1172 C1177 1.382 . S
C1173 C1172 1.358 . S
C1173 C1174 1.385 . S
C1173 H1196 0.930 . S
C1174 C1173 1.385 . S
C1174 C1175 1.395 . S
C1174 H1197 0.929 . S
C1175 C1174 1.395 . S
C1175 C1176 1.335 . S
C1176 C1175 1.335 . S
C1176 C1177 1.398 . S
C1176 H1198 0.930 . S
C1177 C1172 1.382 . S
C1177 C1176 1.398 . S
C1177 H1199 0.929 . S
C1178 O1188 1.271 . S
C1178 O1189 1.251 1_554 S
C1179 O1190 1.252 . S
C1179 O1191 1.272 . S
O1180 Sm1160 2.543 . S
O1180 C1162 1.261 . S
O1181 Sm1160 2.450 . S
O1181 C1162 1.242 . S
O1182 Sm1160 2.681 1_556 S
O1182 Sm1161 2.386 . S
O1182 C1169 1.271 . S
O1183 Sm1160 2.464 . S
O1183 C1169 1.251 1_554 S
O1184 Sm1160 2.396 . S
O1184 C1170 1.252 . S
O1185 Sm1161 2.408 1_554 S
O1185 C1170 1.272 . S
O1186 Sm1161 2.543 . S
O1186 C1171 1.261 . S
O1187 Sm1161 2.450 . S
O1187 C1171 1.242 . S
O1188 Sm1160 2.386 . S
O1188 Sm1161 2.681 1_554 S
O1188 C1178 1.271 . S
O1189 Sm1161 2.464 . S
O1189 C1178 1.251 1_556 S
O1190 Sm1161 2.396 . S
O1190 C1179 1.252 . S
O1191 Sm1160 2.408 1_556 S
O1191 C1179 1.272 . S
H1192 C1164 0.930 . S
H1193 C1165 0.929 . S
H1194 C1167 0.930 . S
H1195 C1168 0.929 . S
H1196 C1173 0.930 . S
H1197 C1174 0.929 . S
H1198 C1176 0.930 . S
H1199 C1177 0.929 . S
Sm1200 C1202 2.846 . S
Sm1200 O1220 2.543 . S
Sm1200 O1221 2.450 1_545 S
Sm1200 O1222 2.681 . S
Sm1200 O1223 2.464 1_545 S
Sm1200 O1224 2.396 . S
Sm1200 O1228 2.386 . S
Sm1200 O1231 2.408 . S
Sm1201 C1211 2.846 . S
Sm1201 O1222 2.386 . S
Sm1201 O1225 2.408 . S
Sm1201 O1226 2.543 . S
Sm1201 O1227 2.450 . S
Sm1201 O1228 2.681 . S
Sm1201 O1229 2.464 . S
Sm1201 O1230 2.396 . S
C1202 Sm1200 2.846 . S
C1202 C1203 1.506 1_545 S
C1202 O1220 1.261 . S
C1202 O1221 1.242 1_545 S
C1203 C1202 1.506 1_565 S
C1203 C1204 1.358 1_565 S
C1203 C1208 1.382 . S
C1204 C1203 1.358 1_545 S
C1204 C1205 1.385 . S
C1204 H1232 0.930 . S
C1205 C1204 1.385 . S
C1205 C1206 1.395 1_545 S
C1205 H1233 0.929 . S
C1206 C1205 1.395 1_565 S
C1206 C1207 1.335 . S
C1207 C1206 1.335 . S
C1207 C1208 1.398 . S
C1207 H1234 0.930 . S
C1208 C1203 1.382 . S
C1208 C1207 1.398 . S
C1208 H1235 0.929 . S
C1209 O1222 1.271 . S
C1209 O1223 1.251 1_545 S
C1210 O1224 1.252 . S
C1210 O1225 1.272 . S
C1211 Sm1201 2.846 . S
C1211 C1212 1.506 . S
C1211 O1226 1.261 . S
C1211 O1227 1.242 . S
C1212 C1211 1.506 . S
C1212 C1213 1.358 . S
C1212 C1217 1.382 . S
C1213 C1212 1.358 . S
C1213 C1214 1.385 . S
C1213 H1236 0.930 . S
C1214 C1213 1.385 . S
C1214 C1215 1.395 . S
C1214 H1237 0.929 . S
C1215 C1214 1.395 . S
C1215 C1216 1.335 . S
C1216 C1215 1.335 . S
C1216 C1217 1.398 . S
C1216 H1238 0.930 . S
C1217 C1212 1.382 . S
C1217 C1216 1.398 . S
C1217 H1239 0.929 . S
C1218 O1228 1.271 . S
C1218 O1229 1.251 . S
C1219 O1230 1.252 . S
C1219 O1231 1.272 . S
O1220 Sm1200 2.543 . S
O1220 C1202 1.261 . S
O1221 Sm1200 2.450 1_565 S
O1221 C1202 1.242 1_565 S
O1222 Sm1200 2.681 . S
O1222 Sm1201 2.386 . S
O1222 C1209 1.271 . S
O1223 Sm1200 2.464 1_565 S
O1223 C1209 1.251 1_565 S
O1224 Sm1200 2.396 . S
O1224 C1210 1.252 . S
O1225 Sm1201 2.408 . S
O1225 C1210 1.272 . S
O1226 Sm1201 2.543 . S
O1226 C1211 1.261 . S
O1227 Sm1201 2.450 . S
O1227 C1211 1.242 . S
O1228 Sm1200 2.386 . S
O1228 Sm1201 2.681 . S
O1228 C1218 1.271 . S
O1229 Sm1201 2.464 . S
O1229 C1218 1.251 . S
O1230 Sm1201 2.396 . S
O1230 C1219 1.252 . S
O1231 Sm1200 2.408 . S
O1231 C1219 1.272 . S
H1232 C1204 0.930 . S
H1233 C1205 0.929 . S
H1234 C1207 0.930 . S
H1235 C1208 0.929 . S
H1236 C1213 0.930 . S
H1237 C1214 0.929 . S
H1238 C1216 0.930 . S
H1239 C1217 0.929 . S
Sm1240 C1242 2.846 . S
Sm1240 O1260 2.543 . S
Sm1240 O1261 2.450 . S
Sm1240 O1262 2.681 . S
Sm1240 O1263 2.464 . S
Sm1240 O1264 2.396 . S
Sm1240 O1268 2.386 . S
Sm1240 O1271 2.408 . S
Sm1241 C1251 2.846 . S
Sm1241 O1262 2.386 . S
Sm1241 O1265 2.408 . S
Sm1241 O1266 2.543 . S
Sm1241 O1267 2.450 . S
Sm1241 O1268 2.681 . S
Sm1241 O1269 2.464 . S
Sm1241 O1270 2.396 . S
C1242 Sm1240 2.846 . S
C1242 C1243 1.506 . S
C1242 O1260 1.261 . S
C1242 O1261 1.242 . S
C1243 C1242 1.506 . S
C1243 C1244 1.358 . S
C1243 C1248 1.382 . S
C1244 C1243 1.358 . S
C1244 C1245 1.385 . S
C1244 H1272 0.930 . S
C1245 C1244 1.385 . S
C1245 C1246 1.395 . S
C1245 H1273 0.929 . S
C1246 C1245 1.395 . S
C1246 C1247 1.335 . S
C1247 C1246 1.335 . S
C1247 C1248 1.398 . S
C1247 H1274 0.930 . S
C1248 C1243 1.382 . S
C1248 C1247 1.398 . S
C1248 H1275 0.929 . S
C1249 O1262 1.271 . S
C1249 O1263 1.251 . S
C1250 O1264 1.252 . S
C1250 O1265 1.272 . S
C1251 Sm1241 2.846 . S
C1251 C1252 1.506 . S
C1251 O1266 1.261 . S
C1251 O1267 1.242 . S
C1252 C1251 1.506 . S
C1252 C1253 1.358 . S
C1252 C1257 1.382 . S
C1253 C1252 1.358 . S
C1253 C1254 1.385 . S
C1253 H1276 0.930 . S
C1254 C1253 1.385 . S
C1254 C1255 1.395 . S
C1254 H1277 0.929 . S
C1255 C1254 1.395 . S
C1255 C1256 1.335 . S
C1256 C1255 1.335 . S
C1256 C1257 1.398 . S
C1256 H1278 0.930 . S
C1257 C1252 1.382 . S
C1257 C1256 1.398 . S
C1257 H1279 0.929 . S
C1258 O1268 1.271 . S
C1258 O1269 1.251 . S
C1259 O1270 1.252 . S
C1259 O1271 1.272 . S
O1260 Sm1240 2.543 . S
O1260 C1242 1.261 . S
O1261 Sm1240 2.450 . S
O1261 C1242 1.242 . S
O1262 Sm1240 2.681 . S
O1262 Sm1241 2.386 . S
O1262 C1249 1.271 . S
O1263 Sm1240 2.464 . S
O1263 C1249 1.251 . S
O1264 Sm1240 2.396 . S
O1264 C1250 1.252 . S
O1265 Sm1241 2.408 . S
O1265 C1250 1.272 . S
O1266 Sm1241 2.543 . S
O1266 C1251 1.261 . S
O1267 Sm1241 2.450 . S
O1267 C1251 1.242 . S
O1268 Sm1240 2.386 . S
O1268 Sm1241 2.681 . S
O1268 C1258 1.271 . S
O1269 Sm1241 2.464 . S
O1269 C1258 1.251 . S
O1270 Sm1241 2.396 . S
O1270 C1259 1.252 . S
O1271 Sm1240 2.408 . S
O1271 C1259 1.272 . S
H1272 C1244 0.930 . S
H1273 C1245 0.929 . S
H1274 C1247 0.930 . S
H1275 C1248 0.929 . S
H1276 C1253 0.930 . S
H1277 C1254 0.929 . S
H1278 C1256 0.930 . S
H1279 C1257 0.929 . S
H1280 C1292 0.930 . S
H1281 C1294 0.930 . S
H1282 C1295 0.930 . S
H1283 C1299 0.959 . S
H1284 C1299 0.959 . S
H1285 C1299 0.961 . S
H1286 C1300 0.960 . S
H1287 C1300 0.961 . S
H1288 C1300 0.959 . S
H1289 C1303 0.929 . S
H1290 C1304 0.931 . S
H1291 C1306 0.930 . S
C1292 H1280 0.930 . S
C1292 C1293 1.399 . S
C1292 C1297 1.399 . S
C1293 C1292 1.399 . S
C1293 C1294 1.376 . S
C1294 H1281 0.930 . S
C1294 C1293 1.376 . S
C1294 C1295 1.388 . S
C1295 H1282 0.930 . S
C1295 C1294 1.388 . S
C1295 C1296 1.390 . S
C1296 C1295 1.390 . S
C1296 C1297 1.394 . S
C1296 C1302 1.465 . S
C1297 C1292 1.399 . S
C1297 C1296 1.394 . S
C1297 C1298 1.516 . S
C1298 C1297 1.516 . S
C1298 C1299 1.502 . S
C1298 C1300 1.561 . S
C1298 C1301 1.526 . S
C1299 H1283 0.959 . S
C1299 H1284 0.959 . S
C1299 H1285 0.961 . S
C1299 C1298 1.502 . S
C1300 H1286 0.960 . S
C1300 H1287 0.961 . S
C1300 H1288 0.959 . S
C1300 C1298 1.561 . S
C1301 C1298 1.526 . S
C1301 C1302 1.396 . S
C1301 C1306 1.390 . S
C1302 C1296 1.465 . S
C1302 C1301 1.396 . S
C1302 C1303 1.399 . S
C1303 H1289 0.929 . S
C1303 C1302 1.399 . S
C1303 C1304 1.385 . S
C1304 H1290 0.931 . S
C1304 C1303 1.385 . S
C1304 C1305 1.389 . S
C1305 C1304 1.389 . S
C1305 C1306 1.387 . S
C1306 H1291 0.930 . S
C1306 C1301 1.390 . S
C1306 C1305 1.387 . S
H1307 C1319 0.930 . S
H1308 C1321 0.930 . S
H1309 C1322 0.930 . S
H1310 C1326 0.959 . S
H1311 C1326 0.959 . S
H1312 C1326 0.961 . S
H1313 C1327 0.960 . S
H1314 C1327 0.961 . S
H1315 C1327 0.959 . S
H1316 C1330 0.929 . S
H1317 C1331 0.931 . S
H1318 C1333 0.930 . S
C1319 H1307 0.930 . S
C1319 C1320 1.399 . S
C1319 C1324 1.399 . S
C1320 C1319 1.399 . S
C1320 C1321 1.376 . S
C1321 H1308 0.930 . S
C1321 C1320 1.376 . S
C1321 C1322 1.388 . S
C1322 H1309 0.930 . S
C1322 C1321 1.388 . S
C1322 C1323 1.390 . S
C1323 C1322 1.390 . S
C1323 C1324 1.394 . S
C1323 C1329 1.465 . S
C1324 C1319 1.399 . S
C1324 C1323 1.394 . S
C1324 C1325 1.516 . S
C1325 C1324 1.516 . S
C1325 C1326 1.502 . S
C1325 C1327 1.561 . S
C1325 C1328 1.526 . S
C1326 H1310 0.959 . S
C1326 H1311 0.959 . S
C1326 H1312 0.961 . S
C1326 C1325 1.502 . S
C1327 H1313 0.960 . S
C1327 H1314 0.961 . S
C1327 H1315 0.959 . S
C1327 C1325 1.561 . S
C1328 C1325 1.526 . S
C1328 C1329 1.396 . S
C1328 C1333 1.390 . S
C1329 C1323 1.465 . S
C1329 C1328 1.396 . S
C1329 C1330 1.399 . S
C1330 H1316 0.929 . S
C1330 C1329 1.399 . S
C1330 C1331 1.385 . S
C1331 H1317 0.931 . S
C1331 C1330 1.385 . S
C1331 C1332 1.389 . S
C1332 C1331 1.389 . S
C1332 C1333 1.387 . S
C1333 H1318 0.930 . S
C1333 C1328 1.390 . S
C1333 C1332 1.387 . S
H1334 C1346 0.930 . S
H1335 C1348 0.930 . S
H1336 C1349 0.930 . S
H1337 C1353 0.959 . S
H1338 C1353 0.959 . S
H1339 C1353 0.961 . S
H1340 C1354 0.960 . S
H1341 C1354 0.961 . S
H1342 C1354 0.959 . S
H1343 C1357 0.929 . S
H1344 C1358 0.931 . S
H1345 C1360 0.930 . S
C1346 H1334 0.930 . S
C1346 C1347 1.399 . S
C1346 C1351 1.399 . S
C1347 C1346 1.399 . S
C1347 C1348 1.376 . S
C1348 H1335 0.930 . S
C1348 C1347 1.376 . S
C1348 C1349 1.388 . S
C1349 H1336 0.930 . S
C1349 C1348 1.388 . S
C1349 C1350 1.390 . S
C1350 C1349 1.390 . S
C1350 C1351 1.394 . S
C1350 C1356 1.465 . S
C1351 C1346 1.399 . S
C1351 C1350 1.394 . S
C1351 C1352 1.516 . S
C1352 C1351 1.516 . S
C1352 C1353 1.502 . S
C1352 C1354 1.561 . S
C1352 C1355 1.526 . S
C1353 H1337 0.959 . S
C1353 H1338 0.959 . S
C1353 H1339 0.961 . S
C1353 C1352 1.502 . S
C1354 H1340 0.960 . S
C1354 H1341 0.961 . S
C1354 H1342 0.959 . S
C1354 C1352 1.561 . S
C1355 C1352 1.526 . S
C1355 C1356 1.396 . S
C1355 C1360 1.390 . S
C1356 C1350 1.465 . S
C1356 C1355 1.396 . S
C1356 C1357 1.399 . S
C1357 H1343 0.929 . S
C1357 C1356 1.399 . S
C1357 C1358 1.385 . S
C1358 H1344 0.931 . S
C1358 C1357 1.385 . S
C1358 C1359 1.389 . S
C1359 C1358 1.389 . S
C1359 C1360 1.387 . S
C1360 H1345 0.930 . S
C1360 C1355 1.390 . S
C1360 C1359 1.387 . S
H1361 C1373 0.930 . S
H1362 C1375 0.930 . S
H1363 C1376 0.930 . S
H1364 C1380 0.959 . S
H1365 C1380 0.959 . S
H1366 C1380 0.961 . S
H1367 C1381 0.960 . S
H1368 C1381 0.961 . S
H1369 C1381 0.959 . S
H1370 C1384 0.929 . S
H1371 C1385 0.931 . S
H1372 C1387 0.930 . S
C1373 H1361 0.930 . S
C1373 C1374 1.399 . S
C1373 C1378 1.399 . S
C1374 C1373 1.399 . S
C1374 C1375 1.376 . S
C1375 H1362 0.930 . S
C1375 C1374 1.376 . S
C1375 C1376 1.388 . S
C1376 H1363 0.930 . S
C1376 C1375 1.388 . S
C1376 C1377 1.390 . S
C1377 C1376 1.390 . S
C1377 C1378 1.394 . S
C1377 C1383 1.465 . S
C1378 C1373 1.399 . S
C1378 C1377 1.394 . S
C1378 C1379 1.516 . S
C1379 C1378 1.516 . S
C1379 C1380 1.502 . S
C1379 C1381 1.561 . S
C1379 C1382 1.526 . S
C1380 H1364 0.959 . S
C1380 H1365 0.959 . S
C1380 H1366 0.961 . S
C1380 C1379 1.502 . S
C1381 H1367 0.960 . S
C1381 H1368 0.961 . S
C1381 H1369 0.959 . S
C1381 C1379 1.561 . S
C1382 C1379 1.526 . S
C1382 C1383 1.396 . S
C1382 C1387 1.390 . S
C1383 C1377 1.465 . S
C1383 C1382 1.396 . S
C1383 C1384 1.399 . S
C1384 H1370 0.929 . S
C1384 C1383 1.399 . S
C1384 C1385 1.385 . S
C1385 H1371 0.931 . S
C1385 C1384 1.385 . S
C1385 C1386 1.389 . S
C1386 C1385 1.389 . S
C1386 C1387 1.387 . S
C1387 H1372 0.930 . S
C1387 C1382 1.390 . S
C1387 C1386 1.387 . S
H1388 C1400 0.930 . S
H1389 C1402 0.930 . S
H1390 C1403 0.930 . S
H1391 C1407 0.959 . S
H1392 C1407 0.959 . S
H1393 C1407 0.961 . S
H1394 C1408 0.960 . S
H1395 C1408 0.961 . S
H1396 C1408 0.959 . S
H1397 C1411 0.929 . S
H1398 C1412 0.931 . S
H1399 C1414 0.929 . S
C1400 H1388 0.930 . S
C1400 C1401 1.399 . S
C1400 C1405 1.399 . S
C1401 C1400 1.399 . S
C1401 C1402 1.376 . S
C1402 H1389 0.930 . S
C1402 C1401 1.376 . S
C1402 C1403 1.388 . S
C1403 H1390 0.930 . S
C1403 C1402 1.388 . S
C1403 C1404 1.390 . S
C1404 C1403 1.390 . S
C1404 C1405 1.394 . S
C1404 C1410 1.465 . S
C1405 C1400 1.399 . S
C1405 C1404 1.394 . S
C1405 C1406 1.516 . S
C1406 C1405 1.516 . S
C1406 C1407 1.502 . S
C1406 C1408 1.561 . S
C1406 C1409 1.526 . S
C1407 H1391 0.959 . S
C1407 H1392 0.959 . S
C1407 H1393 0.961 . S
C1407 C1406 1.502 . S
C1408 H1394 0.960 . S
C1408 H1395 0.961 . S
C1408 H1396 0.959 . S
C1408 C1406 1.561 . S
C1409 C1406 1.526 . S
C1409 C1410 1.396 . S
C1409 C1414 1.390 . S
C1410 C1404 1.465 . S
C1410 C1409 1.396 . S
C1410 C1411 1.399 . S
C1411 H1397 0.929 . S
C1411 C1410 1.399 . S
C1411 C1412 1.385 1_554 S
C1412 H1398 0.931 . S
C1412 C1411 1.385 1_556 S
C1412 C1413 1.389 . S
C1413 C1412 1.389 . S
C1413 C1414 1.387 1_556 S
C1414 H1399 0.929 . S
C1414 C1409 1.390 . S
C1414 C1413 1.387 1_554 S
H1415 C1427 0.930 . S
H1416 C1429 0.930 . S
H1417 C1430 0.930 . S
H1418 C1434 0.959 . S
H1419 C1434 0.959 . S
H1420 C1434 0.961 . S
H1421 C1435 0.960 . S
H1422 C1435 0.961 . S
H1423 C1435 0.959 . S
H1424 C1438 0.929 . S
H1425 C1439 0.931 . S
H1426 C1441 0.930 . S
C1427 H1415 0.930 . S
C1427 C1428 1.399 . S
C1427 C1432 1.399 . S
C1428 C1427 1.399 . S
C1428 C1429 1.376 . S
C1429 H1416 0.930 . S
C1429 C1428 1.376 . S
C1429 C1430 1.388 . S
C1430 H1417 0.930 . S
C1430 C1429 1.388 . S
C1430 C1431 1.390 . S
C1431 C1430 1.390 . S
C1431 C1432 1.394 . S
C1431 C1437 1.465 . S
C1432 C1427 1.399 . S
C1432 C1431 1.394 . S
C1432 C1433 1.516 . S
C1433 C1432 1.516 . S
C1433 C1434 1.502 . S
C1433 C1435 1.561 . S
C1433 C1436 1.526 . S
C1434 H1418 0.959 . S
C1434 H1419 0.959 . S
C1434 H1420 0.961 . S
C1434 C1433 1.502 . S
C1435 H1421 0.960 . S
C1435 H1422 0.961 . S
C1435 H1423 0.959 . S
C1435 C1433 1.561 . S
C1436 C1433 1.526 . S
C1436 C1437 1.396 . S
C1436 C1441 1.390 . S
C1437 C1431 1.465 . S
C1437 C1436 1.396 . S
C1437 C1438 1.399 . S
C1438 H1424 0.929 . S
C1438 C1437 1.399 . S
C1438 C1439 1.385 . S
C1439 H1425 0.931 . S
C1439 C1438 1.385 . S
C1439 C1440 1.389 . S
C1440 C1439 1.389 . S
C1440 C1441 1.387 . S
C1441 H1426 0.930 . S
C1441 C1436 1.390 . S
C1441 C1440 1.387 . S
H1442 C1454 0.930 . S
H1443 C1456 0.930 . S
H1444 C1457 0.930 . S
H1445 C1461 0.959 . S
H1446 C1461 0.959 . S
H1447 C1461 0.961 . S
H1448 C1462 0.960 . S
H1449 C1462 0.961 . S
H1450 C1462 0.959 . S
H1451 C1465 0.929 . S
H1452 C1466 0.931 . S
H1453 C1468 0.930 . S
C1454 H1442 0.930 . S
C1454 C1455 1.399 . S
C1454 C1459 1.399 . S
C1455 C1454 1.399 . S
C1455 C1456 1.376 . S
C1456 H1443 0.930 . S
C1456 C1455 1.376 . S
C1456 C1457 1.388 . S
C1457 H1444 0.930 . S
C1457 C1456 1.388 . S
C1457 C1458 1.390 . S
C1458 C1457 1.390 . S
C1458 C1459 1.394 . S
C1458 C1464 1.465 . S
C1459 C1454 1.399 . S
C1459 C1458 1.394 . S
C1459 C1460 1.516 . S
C1460 C1459 1.516 . S
C1460 C1461 1.502 . S
C1460 C1462 1.561 . S
C1460 C1463 1.526 . S
C1461 H1445 0.959 . S
C1461 H1446 0.959 . S
C1461 H1447 0.961 . S
C1461 C1460 1.502 . S
C1462 H1448 0.960 . S
C1462 H1449 0.961 . S
C1462 H1450 0.959 . S
C1462 C1460 1.561 . S
C1463 C1460 1.526 . S
C1463 C1464 1.396 . S
C1463 C1468 1.390 . S
C1464 C1458 1.465 . S
C1464 C1463 1.396 . S
C1464 C1465 1.399 . S
C1465 H1451 0.929 . S
C1465 C1464 1.399 . S
C1465 C1466 1.385 . S
C1466 H1452 0.931 . S
C1466 C1465 1.385 . S
C1466 C1467 1.389 . S
C1467 C1466 1.389 . S
C1467 C1468 1.387 . S
C1468 H1453 0.930 . S
C1468 C1463 1.390 . S
C1468 C1467 1.387 . S
H1469 C1481 0.930 . S
H1470 C1483 0.930 . S
H1471 C1484 0.930 . S
H1472 C1488 0.959 . S
H1473 C1488 0.959 . S
H1474 C1488 0.961 . S
H1475 C1489 0.960 . S
H1476 C1489 0.961 . S
H1477 C1489 0.959 . S
H1478 C1492 0.929 . S
H1479 C1493 0.931 . S
H1480 C1495 0.930 . S
C1481 H1469 0.930 . S
C1481 C1482 1.399 . S
C1481 C1486 1.399 . S
C1482 C1481 1.399 . S
C1482 C1483 1.376 . S
C1483 H1470 0.930 . S
C1483 C1482 1.376 . S
C1483 C1484 1.388 . S
C1484 H1471 0.930 . S
C1484 C1483 1.388 . S
C1484 C1485 1.390 . S
C1485 C1484 1.390 . S
C1485 C1486 1.394 . S
C1485 C1491 1.465 . S
C1486 C1481 1.399 . S
C1486 C1485 1.394 . S
C1486 C1487 1.516 . S
C1487 C1486 1.516 . S
C1487 C1488 1.502 . S
C1487 C1489 1.561 . S
C1487 C1490 1.526 . S
C1488 H1472 0.959 . S
C1488 H1473 0.959 . S
C1488 H1474 0.961 . S
C1488 C1487 1.502 . S
C1489 H1475 0.960 . S
C1489 H1476 0.961 . S
C1489 H1477 0.959 . S
C1489 C1487 1.561 . S
C1490 C1487 1.526 . S
C1490 C1491 1.396 . S
C1490 C1495 1.390 . S
C1491 C1485 1.465 . S
C1491 C1490 1.396 . S
C1491 C1492 1.399 . S
C1492 H1478 0.929 . S
C1492 C1491 1.399 . S
C1492 C1493 1.385 . S
C1493 H1479 0.931 . S
C1493 C1492 1.385 . S
C1493 C1494 1.389 . S
C1494 C1493 1.389 . S
C1494 C1495 1.387 . S
C1495 H1480 0.930 . S
C1495 C1490 1.390 . S
C1495 C1494 1.387 . S
H1496 C1508 0.930 1_545 S
H1497 C1510 0.930 . S
H1498 C1511 0.930 . S
H1499 C1515 0.959 . S
H1500 C1515 0.959 . S
H1501 C1515 0.961 1_545 S
H1502 C1516 0.960 . S
H1503 C1516 0.961 . S
H1504 C1516 0.959 1_565 S
H1505 C1519 0.929 . S
H1506 C1520 0.931 . S
H1507 C1522 0.930 . S
C1508 H1496 0.930 1_565 S
C1508 C1509 1.399 . S
C1508 C1513 1.399 . S
C1509 C1508 1.399 . S
C1509 C1510 1.376 . S
C1510 H1497 0.930 . S
C1510 C1509 1.376 . S
C1510 C1511 1.388 . S
C1511 H1498 0.930 . S
C1511 C1510 1.388 . S
C1511 C1512 1.390 . S
C1512 C1511 1.390 . S
C1512 C1513 1.394 . S
C1512 C1518 1.465 . S
C1513 C1508 1.399 . S
C1513 C1512 1.394 . S
C1513 C1514 1.516 . S
C1514 C1513 1.516 . S
C1514 C1515 1.502 . S
C1514 C1516 1.561 1_565 S
C1514 C1517 1.526 . S
C1515 H1499 0.959 . S
C1515 H1500 0.959 . S
C1515 H1501 0.961 1_565 S
C1515 C1514 1.502 . S
C1516 H1502 0.960 . S
C1516 H1503 0.961 . S
C1516 H1504 0.959 1_545 S
C1516 C1514 1.561 1_545 S
C1517 C1514 1.526 . S
C1517 C1518 1.396 . S
C1517 C1522 1.390 . S
C1518 C1512 1.465 . S
C1518 C1517 1.396 . S
C1518 C1519 1.399 . S
C1519 H1505 0.929 . S
C1519 C1518 1.399 . S
C1519 C1520 1.385 . S
C1520 H1506 0.931 . S
C1520 C1519 1.385 . S
C1520 C1521 1.389 . S
C1521 C1520 1.389 . S
C1521 C1522 1.387 . S
C1522 H1507 0.930 . S
C1522 C1517 1.390 . S
C1522 C1521 1.387 . S
H1523 C1535 0.930 . S
H1524 C1537 0.930 . S
H1525 C1538 0.930 1_554 S
H1526 C1542 0.959 . S
H1527 C1542 0.959 . S
H1528 C1542 0.961 1_556 S
H1529 C1543 0.960 . S
H1530 C1543 0.961 . S
H1531 C1543 0.959 . S
H1532 C1546 0.929 . S
H1533 C1547 0.931 . S
H1534 C1549 0.930 . S
C1535 H1523 0.930 . S
C1535 C1536 1.399 . S
C1535 C1540 1.399 . S
C1536 C1535 1.399 . S
C1536 C1537 1.376 . S
C1537 H1524 0.930 . S
C1537 C1536 1.376 . S
C1537 C1538 1.388 . S
C1538 H1525 0.930 1_556 S
C1538 C1537 1.388 . S
C1538 C1539 1.390 1_556 S
C1539 C1538 1.390 1_554 S
C1539 C1540 1.394 1_554 S
C1539 C1545 1.465 . S
C1540 C1535 1.399 . S
C1540 C1539 1.394 1_556 S
C1540 C1541 1.516 1_556 S
C1541 C1540 1.516 1_554 S
C1541 C1542 1.502 . S
C1541 C1543 1.561 . S
C1541 C1544 1.526 . S
C1542 H1526 0.959 . S
C1542 H1527 0.959 . S
C1542 H1528 0.961 1_554 S
C1542 C1541 1.502 . S
C1543 H1529 0.960 . S
C1543 H1530 0.961 . S
C1543 H1531 0.959 . S
C1543 C1541 1.561 . S
C1544 C1541 1.526 . S
C1544 C1545 1.396 . S
C1544 C1549 1.390 . S
C1545 C1539 1.465 . S
C1545 C1544 1.396 . S
C1545 C1546 1.399 . S
C1546 H1532 0.929 . S
C1546 C1545 1.399 . S
C1546 C1547 1.385 . S
C1547 H1533 0.931 . S
C1547 C1546 1.385 . S
C1547 C1548 1.389 . S
C1548 C1547 1.389 . S
C1548 C1549 1.387 . S
C1549 H1534 0.930 . S
C1549 C1544 1.390 . S
C1549 C1548 1.387 . S
H1550 C1562 0.930 . S
H1551 C1564 0.930 . S
H1552 C1565 0.930 . S
H1553 C1569 0.959 . S
H1554 C1569 0.959 . S
H1555 C1569 0.961 . S
H1556 C1570 0.960 . S
H1557 C1570 0.961 . S
H1558 C1570 0.959 . S
H1559 C1573 0.929 . S
H1560 C1574 0.931 1_565 S
H1561 C1576 0.930 . S
C1562 H1550 0.930 . S
C1562 C1563 1.399 . S
C1562 C1567 1.399 . S
C1563 C1562 1.399 . S
C1563 C1564 1.376 . S
C1564 H1551 0.930 . S
C1564 C1563 1.376 . S
C1564 C1565 1.388 . S
C1565 H1552 0.930 . S
C1565 C1564 1.388 . S
C1565 C1566 1.390 . S
C1566 C1565 1.390 . S
C1566 C1567 1.394 . S
C1566 C1572 1.465 . S
C1567 C1562 1.399 . S
C1567 C1566 1.394 . S
C1567 C1568 1.516 . S
C1568 C1567 1.516 . S
C1568 C1569 1.502 . S
C1568 C1570 1.561 . S
C1568 C1571 1.526 . S
C1569 H1553 0.959 . S
C1569 H1554 0.959 . S
C1569 H1555 0.961 . S
C1569 C1568 1.502 . S
C1570 H1556 0.960 . S
C1570 H1557 0.961 . S
C1570 H1558 0.959 . S
C1570 C1568 1.561 . S
C1571 C1568 1.526 . S
C1571 C1572 1.396 . S
C1571 C1576 1.390 . S
C1572 C1566 1.465 . S
C1572 C1571 1.396 . S
C1572 C1573 1.399 . S
C1573 H1559 0.929 . S
C1573 C1572 1.399 . S
C1573 C1574 1.385 . S
C1574 H1560 0.931 1_545 S
C1574 C1573 1.385 . S
C1574 C1575 1.389 . S
C1575 C1574 1.389 . S
C1575 C1576 1.387 . S
C1576 H1561 0.930 . S
C1576 C1571 1.390 . S
C1576 C1575 1.387 . S
H1577 C1589 0.930 . S
H1578 C1591 0.930 . S
H1579 C1592 0.930 . S
H1580 C1596 0.959 . S
H1581 C1596 0.959 . S
H1582 C1596 0.961 . S
H1583 C1597 0.960 . S
H1584 C1597 0.961 . S
H1585 C1597 0.959 . S
H1586 C1600 0.929 . S
H1587 C1601 0.931 . S
H1588 C1603 0.930 . S
C1589 H1577 0.930 . S
C1589 C1590 1.399 . S
C1589 C1594 1.399 . S
C1590 C1589 1.399 . S
C1590 C1591 1.376 . S
C1591 H1578 0.930 . S
C1591 C1590 1.376 . S
C1591 C1592 1.388 . S
C1592 H1579 0.930 . S
C1592 C1591 1.388 . S
C1592 C1593 1.390 . S
C1593 C1592 1.390 . S
C1593 C1594 1.394 . S
C1593 C1599 1.465 . S
C1594 C1589 1.399 . S
C1594 C1593 1.394 . S
C1594 C1595 1.516 . S
C1595 C1594 1.516 . S
C1595 C1596 1.502 . S
C1595 C1597 1.561 . S
C1595 C1598 1.526 . S
C1596 H1580 0.959 . S
C1596 H1581 0.959 . S
C1596 H1582 0.961 . S
C1596 C1595 1.502 . S
C1597 H1583 0.960 . S
C1597 H1584 0.961 . S
C1597 H1585 0.959 . S
C1597 C1595 1.561 . S
C1598 C1595 1.526 . S
C1598 C1599 1.396 . S
C1598 C1603 1.390 . S
C1599 C1593 1.465 . S
C1599 C1598 1.396 . S
C1599 C1600 1.399 . S
C1600 H1586 0.929 . S
C1600 C1599 1.399 . S
C1600 C1601 1.385 . S
C1601 H1587 0.931 . S
C1601 C1600 1.385 . S
C1601 C1602 1.389 . S
C1602 C1601 1.389 . S
C1602 C1603 1.387 . S
C1603 H1588 0.930 . S
C1603 C1598 1.390 . S
C1603 C1602 1.387 . S
H1604 C1616 0.930 . S
H1605 C1618 0.930 . S
H1606 C1619 0.930 . S
H1607 C1623 0.959 . S
H1608 C1623 0.959 . S
H1609 C1623 0.961 . S
H1610 C1624 0.960 . S
H1611 C1624 0.961 . S
H1612 C1624 0.959 . S
H1613 C1627 0.929 1_565 S
H1614 C1628 0.931 . S
H1615 C1630 0.930 . S
C1616 H1604 0.930 . S
C1616 C1617 1.399 . S
C1616 C1621 1.399 . S
C1617 C1616 1.399 . S
C1617 C1618 1.376 . S
C1618 H1605 0.930 . S
C1618 C1617 1.376 . S
C1618 C1619 1.388 . S
C1619 H1606 0.930 . S
C1619 C1618 1.388 . S
C1619 C1620 1.390 . S
C1620 C1619 1.390 . S
C1620 C1621 1.394 . S
C1620 C1626 1.465 . S
C1621 C1616 1.399 . S
C1621 C1620 1.394 . S
C1621 C1622 1.516 . S
C1622 C1621 1.516 . S
C1622 C1623 1.502 . S
C1622 C1624 1.561 . S
C1622 C1625 1.526 . S
C1623 H1607 0.959 . S
C1623 H1608 0.959 . S
C1623 H1609 0.961 . S
C1623 C1622 1.502 . S
C1624 H1610 0.960 . S
C1624 H1611 0.961 . S
C1624 H1612 0.959 . S
C1624 C1622 1.561 . S
C1625 C1622 1.526 . S
C1625 C1626 1.396 . S
C1625 C1630 1.390 . S
C1626 C1620 1.465 . S
C1626 C1625 1.396 . S
C1626 C1627 1.399 . S
C1627 H1613 0.929 1_545 S
C1627 C1626 1.399 . S
C1627 C1628 1.385 1_545 S
C1628 H1614 0.931 . S
C1628 C1627 1.385 1_565 S
C1628 C1629 1.389 1_565 S
C1629 C1628 1.389 1_545 S
C1629 C1630 1.387 . S
C1630 H1615 0.930 . S
C1630 C1625 1.390 . S
C1630 C1629 1.387 . S
H1631 C1643 0.930 . S
H1632 C1645 0.930 . S
H1633 C1646 0.930 . S
H1634 C1650 0.959 . S
H1635 C1650 0.959 . S
H1636 C1650 0.961 . S
H1637 C1651 0.960 . S
H1638 C1651 0.961 . S
H1639 C1651 0.959 . S
H1640 C1654 0.929 . S
H1641 C1655 0.931 . S
H1642 C1657 0.930 . S
C1643 H1631 0.930 . S
C1643 C1644 1.399 . S
C1643 C1648 1.399 . S
C1644 C1643 1.399 . S
C1644 C1645 1.376 . S
C1645 H1632 0.930 . S
C1645 C1644 1.376 . S
C1645 C1646 1.388 . S
C1646 H1633 0.930 . S
C1646 C1645 1.388 . S
C1646 C1647 1.390 . S
C1647 C1646 1.390 . S
C1647 C1648 1.394 . S
C1647 C1653 1.465 . S
C1648 C1643 1.399 . S
C1648 C1647 1.394 . S
C1648 C1649 1.516 . S
C1649 C1648 1.516 . S
C1649 C1650 1.502 . S
C1649 C1651 1.561 . S
C1649 C1652 1.526 . S
C1650 H1634 0.959 . S
C1650 H1635 0.959 . S
C1650 H1636 0.961 . S
C1650 C1649 1.502 . S
C1651 H1637 0.960 . S
C1651 H1638 0.961 . S
C1651 H1639 0.959 . S
C1651 C1649 1.561 . S
C1652 C1649 1.526 . S
C1652 C1653 1.396 . S
C1652 C1657 1.390 . S
C1653 C1647 1.465 . S
C1653 C1652 1.396 . S
C1653 C1654 1.399 . S
C1654 H1640 0.929 . S
C1654 C1653 1.399 . S
C1654 C1655 1.385 . S
C1655 H1641 0.931 . S
C1655 C1654 1.385 . S
C1655 C1656 1.389 . S
C1656 C1655 1.389 . S
C1656 C1657 1.387 . S
C1657 H1642 0.930 . S
C1657 C1652 1.390 . S
C1657 C1656 1.387 . S
H1658 C1670 0.930 . S
H1659 C1672 0.930 . S
H1660 C1673 0.930 . S
H1661 C1677 0.959 1_554 S
H1662 C1677 0.959 . S
H1663 C1677 0.961 1_554 S
H1664 C1678 0.960 1_554 S
H1665 C1678 0.961 . S
H1666 C1678 0.959 1_554 S
H1667 C1681 0.929 1_545 S
H1668 C1682 0.931 1_545 S
H1669 C1684 0.930 . S
C1670 H1658 0.930 . S
C1670 C1671 1.399 . S
C1670 C1675 1.399 . S
C1671 C1670 1.399 . S
C1671 C1672 1.376 . S
C1672 H1659 0.930 . S
C1672 C1671 1.376 . S
C1672 C1673 1.388 . S
C1673 H1660 0.930 . S
C1673 C1672 1.388 . S
C1673 C1674 1.390 . S
C1674 C1673 1.390 . S
C1674 C1675 1.394 . S
C1674 C1680 1.465 . S
C1675 C1670 1.399 . S
C1675 C1674 1.394 . S
C1675 C1676 1.516 . S
C1676 C1675 1.516 . S
C1676 C1677 1.502 1_554 S
C1676 C1678 1.561 1_554 S
C1676 C1679 1.526 1_554 S
C1677 H1661 0.959 1_556 S
C1677 H1662 0.959 . S
C1677 H1663 0.961 1_556 S
C1677 C1676 1.502 1_556 S
C1678 H1664 0.960 1_556 S
C1678 H1665 0.961 . S
C1678 H1666 0.959 1_556 S
C1678 C1676 1.561 1_556 S
C1679 C1676 1.526 1_556 S
C1679 C1680 1.396 1_556 S
C1679 C1684 1.390 . S
C1680 C1674 1.465 . S
C1680 C1679 1.396 1_554 S
C1680 C1681 1.399 . S
C1681 H1667 0.929 1_565 S
C1681 C1680 1.399 . S
C1681 C1682 1.385 1_554 S
C1682 H1668 0.931 1_565 S
C1682 C1681 1.385 1_556 S
C1682 C1683 1.389 . S
C1683 C1682 1.389 . S
C1683 C1684 1.387 . S
C1684 H1669 0.930 . S
C1684 C1679 1.390 . S
C1684 C1683 1.387 . S
H1685 C1697 0.930 . S
H1686 C1699 0.930 . S
H1687 C1700 0.930 . S
H1688 C1704 0.959 . S
H1689 C1704 0.959 . S
H1690 C1704 0.961 . S
H1691 C1705 0.960 . S
H1692 C1705 0.961 . S
H1693 C1705 0.959 . S
H1694 C1708 0.929 . S
H1695 C1709 0.931 . S
H1696 C1711 0.930 . S
C1697 H1685 0.930 . S
C1697 C1698 1.399 . S
C1697 C1702 1.399 . S
C1698 C1697 1.399 . S
C1698 C1699 1.376 . S
C1699 H1686 0.930 . S
C1699 C1698 1.376 . S
C1699 C1700 1.388 . S
C1700 H1687 0.930 . S
C1700 C1699 1.388 . S
C1700 C1701 1.390 . S
C1701 C1700 1.390 . S
C1701 C1702 1.394 . S
C1701 C1707 1.465 . S
C1702 C1697 1.399 . S
C1702 C1701 1.394 . S
C1702 C1703 1.516 . S
C1703 C1702 1.516 . S
C1703 C1704 1.502 . S
C1703 C1705 1.561 . S
C1703 C1706 1.526 . S
C1704 H1688 0.959 . S
C1704 H1689 0.959 . S
C1704 H1690 0.961 . S
C1704 C1703 1.502 . S
C1705 H1691 0.960 . S
C1705 H1692 0.961 . S
C1705 H1693 0.959 . S
C1705 C1703 1.561 . S
C1706 C1703 1.526 . S
C1706 C1707 1.396 . S
C1706 C1711 1.390 . S
C1707 C1701 1.465 . S
C1707 C1706 1.396 . S
C1707 C1708 1.399 . S
C1708 H1694 0.929 . S
C1708 C1707 1.399 . S
C1708 C1709 1.385 . S
C1709 H1695 0.931 . S
C1709 C1708 1.385 . S
C1709 C1710 1.389 . S
C1710 C1709 1.389 . S
C1710 C1711 1.387 . S
C1711 H1696 0.930 . S
C1711 C1706 1.390 . S
C1711 C1710 1.387 . S
H1712 C1724 0.930 . S
H1713 C1726 0.930 . S
H1714 C1727 0.930 . S
H1715 C1731 0.959 . S
H1716 C1731 0.959 . S
H1717 C1731 0.961 . S
H1718 C1732 0.960 . S
H1719 C1732 0.961 . S
H1720 C1732 0.959 . S
H1721 C1735 0.929 . S
H1722 C1736 0.931 . S
H1723 C1738 0.930 . S
C1724 H1712 0.930 . S
C1724 C1725 1.399 . S
C1724 C1729 1.399 . S
C1725 C1724 1.399 . S
C1725 C1726 1.376 . S
C1726 H1713 0.930 . S
C1726 C1725 1.376 . S
C1726 C1727 1.388 . S
C1727 H1714 0.930 . S
C1727 C1726 1.388 . S
C1727 C1728 1.390 . S
C1728 C1727 1.390 . S
C1728 C1729 1.394 . S
C1728 C1734 1.465 . S
C1729 C1724 1.399 . S
C1729 C1728 1.394 . S
C1729 C1730 1.516 . S
C1730 C1729 1.516 . S
C1730 C1731 1.502 . S
C1730 C1732 1.561 . S
C1730 C1733 1.526 . S
C1731 H1715 0.959 . S
C1731 H1716 0.959 . S
C1731 H1717 0.961 . S
C1731 C1730 1.502 . S
C1732 H1718 0.960 . S
C1732 H1719 0.961 . S
C1732 H1720 0.959 . S
C1732 C1730 1.561 . S
C1733 C1730 1.526 . S
C1733 C1734 1.396 . S
C1733 C1738 1.390 . S
C1734 C1728 1.465 . S
C1734 C1733 1.396 . S
C1734 C1735 1.399 . S
C1735 H1721 0.929 . S
C1735 C1734 1.399 . S
C1735 C1736 1.385 . S
C1736 H1722 0.931 . S
C1736 C1735 1.385 . S
C1736 C1737 1.389 . S
C1737 C1736 1.389 . S
C1737 C1738 1.387 . S
C1738 H1723 0.930 . S
C1738 C1733 1.390 . S
C1738 C1737 1.387 . S
H1739 C1751 0.930 . S
H1740 C1753 0.930 . S
H1741 C1754 0.930 . S
H1742 C1758 0.959 . S
H1743 C1758 0.959 . S
H1744 C1758 0.961 . S
H1745 C1759 0.960 . S
H1746 C1759 0.961 . S
H1747 C1759 0.959 . S
H1748 C1762 0.929 . S
H1749 C1763 0.931 . S
H1750 C1765 0.930 . S
C1751 H1739 0.930 . S
C1751 C1752 1.399 . S
C1751 C1756 1.399 . S
C1752 C1751 1.399 . S
C1752 C1753 1.376 . S
C1753 H1740 0.930 . S
C1753 C1752 1.376 . S
C1753 C1754 1.388 . S
C1754 H1741 0.930 . S
C1754 C1753 1.388 . S
C1754 C1755 1.390 . S
C1755 C1754 1.390 . S
C1755 C1756 1.394 . S
C1755 C1761 1.465 . S
C1756 C1751 1.399 . S
C1756 C1755 1.394 . S
C1756 C1757 1.516 . S
C1757 C1756 1.516 . S
C1757 C1758 1.502 . S
C1757 C1759 1.561 . S
C1757 C1760 1.526 . S
C1758 H1742 0.959 . S
C1758 H1743 0.959 . S
C1758 H1744 0.961 . S
C1758 C1757 1.502 . S
C1759 H1745 0.960 . S
C1759 H1746 0.961 . S
C1759 H1747 0.959 . S
C1759 C1757 1.561 . S
C1760 C1757 1.526 . S
C1760 C1761 1.396 . S
C1760 C1765 1.390 . S
C1761 C1755 1.465 . S
C1761 C1760 1.396 . S
C1761 C1762 1.399 . S
C1762 H1748 0.929 . S
C1762 C1761 1.399 . S
C1762 C1763 1.385 . S
C1763 H1749 0.931 . S
C1763 C1762 1.385 . S
C1763 C1764 1.389 . S
C1764 C1763 1.389 . S
C1764 C1765 1.387 . S
C1765 H1750 0.930 . S
C1765 C1760 1.390 . S
C1765 C1764 1.387 . S
H1766 C1778 0.930 . S
H1767 C1780 0.930 . S
H1768 C1781 0.930 . S
H1769 C1785 0.959 . S
H1770 C1785 0.959 . S
H1771 C1785 0.961 . S
H1772 C1786 0.960 . S
H1773 C1786 0.961 . S
H1774 C1786 0.959 . S
H1775 C1789 0.929 . S
H1776 C1790 0.931 . S
H1777 C1792 0.930 . S
C1778 H1766 0.930 . S
C1778 C1779 1.399 . S
C1778 C1783 1.399 . S
C1779 C1778 1.399 . S
C1779 C1780 1.376 . S
C1780 H1767 0.930 . S
C1780 C1779 1.376 . S
C1780 C1781 1.388 . S
C1781 H1768 0.930 . S
C1781 C1780 1.388 . S
C1781 C1782 1.390 . S
C1782 C1781 1.390 . S
C1782 C1783 1.394 . S
C1782 C1788 1.465 . S
C1783 C1778 1.399 . S
C1783 C1782 1.394 . S
C1783 C1784 1.516 . S
C1784 C1783 1.516 . S
C1784 C1785 1.502 . S
C1784 C1786 1.561 . S
C1784 C1787 1.526 . S
C1785 H1769 0.959 . S
C1785 H1770 0.959 . S
C1785 H1771 0.961 . S
C1785 C1784 1.502 . S
C1786 H1772 0.960 . S
C1786 H1773 0.961 . S
C1786 H1774 0.959 . S
C1786 C1784 1.561 . S
C1787 C1784 1.526 . S
C1787 C1788 1.396 . S
C1787 C1792 1.390 . S
C1788 C1782 1.465 . S
C1788 C1787 1.396 . S
C1788 C1789 1.399 . S
C1789 H1775 0.929 . S
C1789 C1788 1.399 . S
C1789 C1790 1.385 . S
C1790 H1776 0.931 . S
C1790 C1789 1.385 . S
C1790 C1791 1.389 . S
C1791 C1790 1.389 . S
C1791 C1792 1.387 . S
C1792 H1777 0.930 . S
C1792 C1787 1.390 . S
C1792 C1791 1.387 . S
H1793 C1805 0.930 . S
H1794 C1807 0.930 . S
H1795 C1808 0.930 . S
H1796 C1812 0.959 . S
H1797 C1812 0.959 . S
H1798 C1812 0.961 . S
H1799 C1813 0.960 1_556 S
H1800 C1813 0.961 . S
H1801 C1813 0.959 1_556 S
H1802 C1816 0.929 . S
H1803 C1817 0.931 . S
H1804 C1819 0.930 . S
C1805 H1793 0.930 . S
C1805 C1806 1.399 . S
C1805 C1810 1.399 . S
C1806 C1805 1.399 . S
C1806 C1807 1.376 . S
C1807 H1794 0.930 . S
C1807 C1806 1.376 . S
C1807 C1808 1.388 . S
C1808 H1795 0.930 . S
C1808 C1807 1.388 . S
C1808 C1809 1.390 . S
C1809 C1808 1.390 . S
C1809 C1810 1.394 . S
C1809 C1815 1.465 . S
C1810 C1805 1.399 . S
C1810 C1809 1.394 . S
C1810 C1811 1.516 . S
C1811 C1810 1.516 . S
C1811 C1812 1.502 1_556 S
C1811 C1813 1.561 1_556 S
C1811 C1814 1.526 . S
C1812 H1796 0.959 . S
C1812 H1797 0.959 . S
C1812 H1798 0.961 . S
C1812 C1811 1.502 1_554 S
C1813 H1799 0.960 1_554 S
C1813 H1800 0.961 . S
C1813 H1801 0.959 1_554 S
C1813 C1811 1.561 1_554 S
C1814 C1811 1.526 . S
C1814 C1815 1.396 . S
C1814 C1819 1.390 1_556 S
C1815 C1809 1.465 . S
C1815 C1814 1.396 . S
C1815 C1816 1.399 . S
C1816 H1802 0.929 . S
C1816 C1815 1.399 . S
C1816 C1817 1.385 . S
C1817 H1803 0.931 . S
C1817 C1816 1.385 . S
C1817 C1818 1.389 1_556 S
C1818 C1817 1.389 1_554 S
C1818 C1819 1.387 . S
C1819 H1804 0.930 . S
C1819 C1814 1.390 1_554 S
C1819 C1818 1.387 . S
H1820 C1832 0.930 . S
H1821 C1834 0.930 . S
H1822 C1835 0.930 . S
H1823 C1839 0.959 . S
H1824 C1839 0.959 . S
H1825 C1839 0.961 . S
H1826 C1840 0.960 . S
H1827 C1840 0.961 . S
H1828 C1840 0.959 . S
H1829 C1843 0.929 . S
H1830 C1844 0.931 . S
H1831 C1846 0.930 . S
C1832 H1820 0.930 . S
C1832 C1833 1.399 . S
C1832 C1837 1.399 . S
C1833 C1832 1.399 . S
C1833 C1834 1.376 . S
C1834 H1821 0.930 . S
C1834 C1833 1.376 . S
C1834 C1835 1.388 . S
C1835 H1822 0.930 . S
C1835 C1834 1.388 . S
C1835 C1836 1.390 . S
C1836 C1835 1.390 . S
C1836 C1837 1.394 . S
C1836 C1842 1.465 . S
C1837 C1832 1.399 . S
C1837 C1836 1.394 . S
C1837 C1838 1.516 . S
C1838 C1837 1.516 . S
C1838 C1839 1.502 . S
C1838 C1840 1.561 . S
C1838 C1841 1.526 . S
C1839 H1823 0.959 . S
C1839 H1824 0.959 . S
C1839 H1825 0.961 . S
C1839 C1838 1.502 . S
C1840 H1826 0.960 . S
C1840 H1827 0.961 . S
C1840 H1828 0.959 . S
C1840 C1838 1.561 . S
C1841 C1838 1.526 . S
C1841 C1842 1.396 . S
C1841 C1846 1.390 . S
C1842 C1836 1.465 . S
C1842 C1841 1.396 . S
C1842 C1843 1.399 . S
C1843 H1829 0.929 . S
C1843 C1842 1.399 . S
C1843 C1844 1.385 . S
C1844 H1830 0.931 . S
C1844 C1843 1.385 . S
C1844 C1845 1.389 . S
C1845 C1844 1.389 . S
C1845 C1846 1.387 . S
C1846 H1831 0.930 . S
C1846 C1841 1.390 . S
C1846 C1845 1.387 . S
H1847 C1859 0.930 . S
H1848 C1861 0.930 . S
H1849 C1862 0.930 . S
H1850 C1866 0.959 . S
H1851 C1866 0.959 . S
H1852 C1866 0.961 . S
H1853 C1867 0.960 . S
H1854 C1867 0.961 . S
H1855 C1867 0.959 . S
H1856 C1870 0.929 . S
H1857 C1871 0.931 . S
H1858 C1873 0.930 . S
C1859 H1847 0.930 . S
C1859 C1860 1.399 . S
C1859 C1864 1.399 . S
C1860 C1859 1.399 . S
C1860 C1861 1.376 . S
C1861 H1848 0.930 . S
C1861 C1860 1.376 . S
C1861 C1862 1.388 . S
C1862 H1849 0.930 . S
C1862 C1861 1.388 . S
C1862 C1863 1.390 . S
C1863 C1862 1.390 . S
C1863 C1864 1.394 . S
C1863 C1869 1.465 . S
C1864 C1859 1.399 . S
C1864 C1863 1.394 . S
C1864 C1865 1.516 . S
C1865 C1864 1.516 . S
C1865 C1866 1.502 . S
C1865 C1867 1.561 . S
C1865 C1868 1.526 . S
C1866 H1850 0.959 . S
C1866 H1851 0.959 . S
C1866 H1852 0.961 . S
C1866 C1865 1.502 . S
C1867 H1853 0.960 . S
C1867 H1854 0.961 . S
C1867 H1855 0.959 . S
C1867 C1865 1.561 . S
C1868 C1865 1.526 . S
C1868 C1869 1.396 . S
C1868 C1873 1.390 . S
C1869 C1863 1.465 . S
C1869 C1868 1.396 . S
C1869 C1870 1.399 . S
C1870 H1856 0.929 . S
C1870 C1869 1.399 . S
C1870 C1871 1.385 . S
C1871 H1857 0.931 . S
C1871 C1870 1.385 . S
C1871 C1872 1.389 . S
C1872 C1871 1.389 . S
C1872 C1873 1.387 . S
C1873 H1858 0.930 . S
C1873 C1868 1.390 . S
C1873 C1872 1.387 . S
H1874 C1886 0.930 1_556 S
H1875 C1888 0.930 . S
H1876 C1889 0.930 . S
H1877 C1893 0.959 . S
H1878 C1893 0.959 . S
H1879 C1893 0.961 . S
H1880 C1894 0.960 . S
H1881 C1894 0.961 . S
H1882 C1894 0.959 . S
H1883 C1897 0.929 . S
H1884 C1898 0.931 . S
H1885 C1900 0.930 . S
C1886 H1874 0.930 1_554 S
C1886 C1887 1.399 . S
C1886 C1891 1.399 1_554 S
C1887 C1886 1.399 . S
C1887 C1888 1.376 . S
C1888 H1875 0.930 . S
C1888 C1887 1.376 . S
C1888 C1889 1.388 . S
C1889 H1876 0.930 . S
C1889 C1888 1.388 . S
C1889 C1890 1.390 1_554 S
C1890 C1889 1.390 1_556 S
C1890 C1891 1.394 . S
C1890 C1896 1.465 . S
C1891 C1886 1.399 1_556 S
C1891 C1890 1.394 . S
C1891 C1892 1.516 . S
C1892 C1891 1.516 . S
C1892 C1893 1.502 . S
C1892 C1894 1.561 . S
C1892 C1895 1.526 . S
C1893 H1877 0.959 . S
C1893 H1878 0.959 . S
C1893 H1879 0.961 . S
C1893 C1892 1.502 . S
C1894 H1880 0.960 . S
C1894 H1881 0.961 . S
C1894 H1882 0.959 . S
C1894 C1892 1.561 . S
C1895 C1892 1.526 . S
C1895 C1896 1.396 . S
C1895 C1900 1.390 . S
C1896 C1890 1.465 . S
C1896 C1895 1.396 . S
C1896 C1897 1.399 . S
C1897 H1883 0.929 . S
C1897 C1896 1.399 . S
C1897 C1898 1.385 . S
C1898 H1884 0.931 . S
C1898 C1897 1.385 . S
C1898 C1899 1.389 . S
C1899 C1898 1.389 . S
C1899 C1900 1.387 . S
C1900 H1885 0.930 . S
C1900 C1895 1.390 . S
C1900 C1899 1.387 . S
H1901 C1913 0.930 . S
H1902 C1915 0.930 . S
H1903 C1916 0.930 . S
H1904 C1920 0.959 . S
H1905 C1920 0.959 . S
H1906 C1920 0.961 . S
H1907 C1921 0.960 . S
H1908 C1921 0.961 . S
H1909 C1921 0.959 . S
H1910 C1924 0.929 . S
H1911 C1925 0.931 . S
H1912 C1927 0.930 . S
C1913 H1901 0.930 . S
C1913 C1914 1.399 . S
C1913 C1918 1.399 . S
C1914 C1913 1.399 . S
C1914 C1915 1.376 . S
C1915 H1902 0.930 . S
C1915 C1914 1.376 . S
C1915 C1916 1.388 . S
C1916 H1903 0.930 . S
C1916 C1915 1.388 . S
C1916 C1917 1.390 . S
C1917 C1916 1.390 . S
C1917 C1918 1.394 . S
C1917 C1923 1.465 . S
C1918 C1913 1.399 . S
C1918 C1917 1.394 . S
C1918 C1919 1.516 . S
C1919 C1918 1.516 . S
C1919 C1920 1.502 . S
C1919 C1921 1.561 . S
C1919 C1922 1.526 . S
C1920 H1904 0.959 . S
C1920 H1905 0.959 . S
C1920 H1906 0.961 . S
C1920 C1919 1.502 . S
C1921 H1907 0.960 . S
C1921 H1908 0.961 . S
C1921 H1909 0.959 . S
C1921 C1919 1.561 . S
C1922 C1919 1.526 . S
C1922 C1923 1.396 . S
C1922 C1927 1.390 . S
C1923 C1917 1.465 . S
C1923 C1922 1.396 . S
C1923 C1924 1.399 . S
C1924 H1910 0.929 . S
C1924 C1923 1.399 . S
C1924 C1925 1.385 . S
C1925 H1911 0.931 . S
C1925 C1924 1.385 . S
C1925 C1926 1.389 . S
C1926 C1925 1.389 . S
C1926 C1927 1.387 . S
C1927 H1912 0.930 . S
C1927 C1922 1.390 . S
C1927 C1926 1.387 . S
H1928 C1940 0.930 . S
H1929 C1942 0.930 . S
H1930 C1943 0.930 . S
H1931 C1947 0.959 . S
H1932 C1947 0.959 . S
H1933 C1947 0.961 . S
H1934 C1948 0.960 . S
H1935 C1948 0.961 . S
H1936 C1948 0.959 . S
H1937 C1951 0.929 . S
H1938 C1952 0.931 . S
H1939 C1954 0.930 . S
C1940 H1928 0.930 . S
C1940 C1941 1.399 . S
C1940 C1945 1.399 . S
C1941 C1940 1.399 . S
C1941 C1942 1.376 . S
C1942 H1929 0.930 . S
C1942 C1941 1.376 . S
C1942 C1943 1.388 . S
C1943 H1930 0.930 . S
C1943 C1942 1.388 . S
C1943 C1944 1.390 . S
C1944 C1943 1.390 . S
C1944 C1945 1.394 . S
C1944 C1950 1.465 . S
C1945 C1940 1.399 . S
C1945 C1944 1.394 . S
C1945 C1946 1.516 . S
C1946 C1945 1.516 . S
C1946 C1947 1.502 . S
C1946 C1948 1.561 . S
C1946 C1949 1.526 . S
C1947 H1931 0.959 . S
C1947 H1932 0.959 . S
C1947 H1933 0.961 . S
C1947 C1946 1.502 . S
C1948 H1934 0.960 . S
C1948 H1935 0.961 . S
C1948 H1936 0.959 . S
C1948 C1946 1.561 . S
C1949 C1946 1.526 . S
C1949 C1950 1.396 . S
C1949 C1954 1.390 . S
C1950 C1944 1.465 . S
C1950 C1949 1.396 . S
C1950 C1951 1.399 . S
C1951 H1937 0.929 . S
C1951 C1950 1.399 . S
C1951 C1952 1.385 . S
C1952 H1938 0.931 . S
C1952 C1951 1.385 . S
C1952 C1953 1.389 . S
C1953 C1952 1.389 . S
C1953 C1954 1.387 . S
C1954 H1939 0.930 . S
C1954 C1949 1.390 . S
C1954 C1953 1.387 . S
H1955 C1967 0.930 . S
H1956 C1969 0.930 . S
H1957 C1970 0.930 . S
H1958 C1974 0.959 . S
H1959 C1974 0.959 . S
H1960 C1974 0.961 . S
H1961 C1975 0.960 . S
H1962 C1975 0.961 . S
H1963 C1975 0.959 . S
H1964 C1978 0.929 . S
H1965 C1979 0.931 . S
H1966 C1981 0.930 . S
C1967 H1955 0.930 . S
C1967 C1968 1.399 . S
C1967 C1972 1.399 . S
C1968 C1967 1.399 . S
C1968 C1969 1.376 . S
C1969 H1956 0.930 . S
C1969 C1968 1.376 . S
C1969 C1970 1.388 . S
C1970 H1957 0.930 . S
C1970 C1969 1.388 . S
C1970 C1971 1.390 . S
C1971 C1970 1.390 . S
C1971 C1972 1.394 . S
C1971 C1977 1.465 . S
C1972 C1967 1.399 . S
C1972 C1971 1.394 . S
C1972 C1973 1.516 . S
C1973 C1972 1.516 . S
C1973 C1974 1.502 . S
C1973 C1975 1.561 . S
C1973 C1976 1.526 . S
C1974 H1958 0.959 . S
C1974 H1959 0.959 . S
C1974 H1960 0.961 . S
C1974 C1973 1.502 . S
C1975 H1961 0.960 . S
C1975 H1962 0.961 . S
C1975 H1963 0.959 . S
C1975 C1973 1.561 . S
C1976 C1973 1.526 . S
C1976 C1977 1.396 . S
C1976 C1981 1.390 . S
C1977 C1971 1.465 . S
C1977 C1976 1.396 . S
C1977 C1978 1.399 . S
C1978 H1964 0.929 . S
C1978 C1977 1.399 . S
C1978 C1979 1.385 . S
C1979 H1965 0.931 . S
C1979 C1978 1.385 . S
C1979 C1980 1.389 . S
C1980 C1979 1.389 . S
C1980 C1981 1.387 . S
C1981 H1966 0.930 . S
C1981 C1976 1.390 . S
C1981 C1980 1.387 . S
H1982 C1994 0.930 . S
H1983 C1996 0.930 . S
H1984 C1997 0.930 . S
H1985 C2001 0.959 . S
H1986 C2001 0.959 . S
H1987 C2001 0.961 . S
H1988 C2002 0.960 . S
H1989 C2002 0.961 . S
H1990 C2002 0.959 . S
H1991 C2005 0.929 . S
H1992 C2006 0.931 . S
H1993 C2008 0.930 . S
C1994 H1982 0.930 . S
C1994 C1995 1.399 . S
C1994 C1999 1.399 . S
C1995 C1994 1.399 . S
C1995 C1996 1.376 . S
C1996 H1983 0.930 . S
C1996 C1995 1.376 . S
C1996 C1997 1.388 . S
C1997 H1984 0.930 . S
C1997 C1996 1.388 . S
C1997 C1998 1.390 . S
C1998 C1997 1.390 . S
C1998 C1999 1.394 . S
C1998 C2004 1.465 . S
C1999 C1994 1.399 . S
C1999 C1998 1.394 . S
C1999 C2000 1.516 . S
C2000 C1999 1.516 . S
C2000 C2001 1.502 . S
C2000 C2002 1.561 . S
C2000 C2003 1.526 . S
C2001 H1985 0.959 . S
C2001 H1986 0.959 . S
C2001 H1987 0.961 . S
C2001 C2000 1.502 . S
C2002 H1988 0.960 . S
C2002 H1989 0.961 . S
C2002 H1990 0.959 . S
C2002 C2000 1.561 . S
C2003 C2000 1.526 . S
C2003 C2004 1.396 . S
C2003 C2008 1.390 . S
C2004 C1998 1.465 . S
C2004 C2003 1.396 . S
C2004 C2005 1.399 . S
C2005 H1991 0.929 . S
C2005 C2004 1.399 . S
C2005 C2006 1.385 . S
C2006 H1992 0.931 . S
C2006 C2005 1.385 . S
C2006 C2007 1.389 . S
C2007 C2006 1.389 . S
C2007 C2008 1.387 . S
C2008 H1993 0.930 . S
C2008 C2003 1.390 . S
C2008 C2007 1.387 . S
H2009 C2021 0.930 . S
H2010 C2023 0.930 . S
H2011 C2024 0.930 . S
H2012 C2028 0.959 . S
H2013 C2028 0.959 . S
H2014 C2028 0.961 . S
H2015 C2029 0.960 . S
H2016 C2029 0.961 . S
H2017 C2029 0.959 . S
H2018 C2032 0.929 . S
H2019 C2033 0.931 . S
H2020 C2035 0.930 . S
C2021 H2009 0.930 . S
C2021 C2022 1.399 . S
C2021 C2026 1.399 . S
C2022 C2021 1.399 . S
C2022 C2023 1.376 . S
C2023 H2010 0.930 . S
C2023 C2022 1.376 . S
C2023 C2024 1.388 . S
C2024 H2011 0.930 . S
C2024 C2023 1.388 . S
C2024 C2025 1.390 . S
C2025 C2024 1.390 . S
C2025 C2026 1.394 . S
C2025 C2031 1.465 . S
C2026 C2021 1.399 . S
C2026 C2025 1.394 . S
C2026 C2027 1.516 . S
C2027 C2026 1.516 . S
C2027 C2028 1.502 . S
C2027 C2029 1.561 . S
C2027 C2030 1.526 . S
C2028 H2012 0.959 . S
C2028 H2013 0.959 . S
C2028 H2014 0.961 . S
C2028 C2027 1.502 . S
C2029 H2015 0.960 . S
C2029 H2016 0.961 . S
C2029 H2017 0.959 . S
C2029 C2027 1.561 . S
C2030 C2027 1.526 . S
C2030 C2031 1.396 . S
C2030 C2035 1.390 . S
C2031 C2025 1.465 . S
C2031 C2030 1.396 . S
C2031 C2032 1.399 . S
C2032 H2018 0.929 . S
C2032 C2031 1.399 . S
C2032 C2033 1.385 . S
C2033 H2019 0.931 . S
C2033 C2032 1.385 . S
C2033 C2034 1.389 . S
C2034 C2033 1.389 . S
C2034 C2035 1.387 . S
C2035 H2020 0.930 . S
C2035 C2030 1.390 . S
C2035 C2034 1.387 . S
H2036 C2048 0.930 . S
H2037 C2050 0.930 . S
H2038 C2051 0.930 . S
H2039 C2055 0.959 . S
H2040 C2055 0.959 . S
H2041 C2055 0.961 . S
H2042 C2056 0.960 . S
H2043 C2056 0.961 . S
H2044 C2056 0.959 . S
H2045 C2059 0.929 . S
H2046 C2060 0.931 . S
H2047 C2062 0.930 . S
C2048 H2036 0.930 . S
C2048 C2049 1.399 . S
C2048 C2053 1.399 . S
C2049 C2048 1.399 . S
C2049 C2050 1.376 . S
C2050 H2037 0.930 . S
C2050 C2049 1.376 . S
C2050 C2051 1.388 . S
C2051 H2038 0.930 . S
C2051 C2050 1.388 . S
C2051 C2052 1.390 . S
C2052 C2051 1.390 . S
C2052 C2053 1.394 . S
C2052 C2058 1.465 . S
C2053 C2048 1.399 . S
C2053 C2052 1.394 . S
C2053 C2054 1.516 . S
C2054 C2053 1.516 . S
C2054 C2055 1.502 . S
C2054 C2056 1.561 . S
C2054 C2057 1.526 . S
C2055 H2039 0.959 . S
C2055 H2040 0.959 . S
C2055 H2041 0.961 . S
C2055 C2054 1.502 . S
C2056 H2042 0.960 . S
C2056 H2043 0.961 . S
C2056 H2044 0.959 . S
C2056 C2054 1.561 . S
C2057 C2054 1.526 . S
C2057 C2058 1.396 . S
C2057 C2062 1.390 . S
C2058 C2052 1.465 . S
C2058 C2057 1.396 . S
C2058 C2059 1.399 . S
C2059 H2045 0.929 . S
C2059 C2058 1.399 . S
C2059 C2060 1.385 . S
C2060 H2046 0.931 . S
C2060 C2059 1.385 . S
C2060 C2061 1.389 . S
C2061 C2060 1.389 . S
C2061 C2062 1.387 . S
C2062 H2047 0.930 . S
C2062 C2057 1.390 . S
C2062 C2061 1.387 . S
H2063 C2075 0.930 . S
H2064 C2077 0.930 . S
H2065 C2078 0.930 . S
H2066 C2082 0.959 . S
H2067 C2082 0.959 . S
H2068 C2082 0.961 . S
H2069 C2083 0.960 . S
H2070 C2083 0.961 . S
H2071 C2083 0.959 . S
H2072 C2086 0.929 . S
H2073 C2087 0.931 . S
H2074 C2089 0.930 . S
C2075 H2063 0.930 . S
C2075 C2076 1.399 . S
C2075 C2080 1.399 . S
C2076 C2075 1.399 . S
C2076 C2077 1.376 . S
C2077 H2064 0.930 . S
C2077 C2076 1.376 . S
C2077 C2078 1.388 . S
C2078 H2065 0.930 . S
C2078 C2077 1.388 . S
C2078 C2079 1.390 . S
C2079 C2078 1.390 . S
C2079 C2080 1.394 . S
C2079 C2085 1.465 . S
C2080 C2075 1.399 . S
C2080 C2079 1.394 . S
C2080 C2081 1.516 . S
C2081 C2080 1.516 . S
C2081 C2082 1.502 . S
C2081 C2083 1.561 . S
C2081 C2084 1.526 . S
C2082 H2066 0.959 . S
C2082 H2067 0.959 . S
C2082 H2068 0.961 . S
C2082 C2081 1.502 . S
C2083 H2069 0.960 . S
C2083 H2070 0.961 . S
C2083 H2071 0.959 . S
C2083 C2081 1.561 . S
C2084 C2081 1.526 . S
C2084 C2085 1.396 . S
C2084 C2089 1.390 . S
C2085 C2079 1.465 . S
C2085 C2084 1.396 . S
C2085 C2086 1.399 . S
C2086 H2072 0.929 . S
C2086 C2085 1.399 . S
C2086 C2087 1.385 . S
C2087 H2073 0.931 . S
C2087 C2086 1.385 . S
C2087 C2088 1.389 . S
C2088 C2087 1.389 . S
C2088 C2089 1.387 . S
C2089 H2074 0.930 . S
C2089 C2084 1.390 . S
C2089 C2088 1.387 . S
H2090 C2102 0.930 . S
H2091 C2104 0.930 . S
H2092 C2105 0.930 . S
H2093 C2109 0.959 . S
H2094 C2109 0.959 . S
H2095 C2109 0.961 . S
H2096 C2110 0.960 . S
H2097 C2110 0.961 . S
H2098 C2110 0.959 . S
H2099 C2113 0.929 . S
H2100 C2114 0.931 . S
H2101 C2116 0.930 . S
C2102 H2090 0.930 . S
C2102 C2103 1.399 . S
C2102 C2107 1.399 . S
C2103 C2102 1.399 . S
C2103 C2104 1.376 . S
C2104 H2091 0.930 . S
C2104 C2103 1.376 . S
C2104 C2105 1.388 . S
C2105 H2092 0.930 . S
C2105 C2104 1.388 . S
C2105 C2106 1.390 . S
C2106 C2105 1.390 . S
C2106 C2107 1.394 . S
C2106 C2112 1.465 . S
C2107 C2102 1.399 . S
C2107 C2106 1.394 . S
C2107 C2108 1.516 . S
C2108 C2107 1.516 . S
C2108 C2109 1.502 . S
C2108 C2110 1.561 . S
C2108 C2111 1.526 . S
C2109 H2093 0.959 . S
C2109 H2094 0.959 . S
C2109 H2095 0.961 . S
C2109 C2108 1.502 . S
C2110 H2096 0.960 . S
C2110 H2097 0.961 . S
C2110 H2098 0.959 . S
C2110 C2108 1.561 . S
C2111 C2108 1.526 . S
C2111 C2112 1.396 . S
C2111 C2116 1.390 . S
C2112 C2106 1.465 . S
C2112 C2111 1.396 . S
C2112 C2113 1.399 . S
C2113 H2099 0.929 . S
C2113 C2112 1.399 . S
C2113 C2114 1.385 . S
C2114 H2100 0.931 . S
C2114 C2113 1.385 . S
C2114 C2115 1.389 . S
C2115 C2114 1.389 . S
C2115 C2116 1.387 . S
C2116 H2101 0.930 . S
C2116 C2111 1.390 . S
C2116 C2115 1.387 . S
H2117 C2129 0.930 . S
H2118 C2131 0.930 . S
H2119 C2132 0.930 . S
H2120 C2136 0.959 . S
H2121 C2136 0.959 . S
H2122 C2136 0.961 . S
H2123 C2137 0.977 . S
H2124 C2137 0.961 . S
H2125 C2137 0.959 . S
H2126 C2140 0.929 . S
H2127 C2141 0.931 . S
H2128 C2143 0.930 . S
C2129 H2117 0.930 . S
C2129 C2130 1.399 . S
C2129 C2134 1.399 1_556 S
C2130 C2129 1.399 . S
C2130 C2131 1.376 . S
C2131 H2118 0.930 . S
C2131 C2130 1.376 . S
C2131 C2132 1.388 . S
C2132 H2119 0.930 . S
C2132 C2131 1.388 . S
C2132 C2133 1.390 1_556 S
C2133 C2132 1.390 1_554 S
C2133 C2134 1.394 . S
C2133 C2139 1.465 . S
C2134 C2129 1.399 1_554 S
C2134 C2133 1.394 . S
C2134 C2135 1.516 . S
C2135 C2134 1.516 . S
C2135 C2136 1.502 . S
C2135 C2137 1.561 . S
C2135 C2138 1.526 . S
C2136 H2120 0.959 . S
C2136 H2121 0.959 . S
C2136 H2122 0.961 . S
C2136 C2135 1.502 . S
C2137 H2123 0.977 . S
C2137 H2124 0.961 . S
C2137 H2125 0.959 . S
C2137 C2135 1.561 . S
C2138 C2135 1.526 . S
C2138 C2139 1.396 . S
C2138 C2143 1.390 . S
C2139 C2133 1.465 . S
C2139 C2138 1.396 . S
C2139 C2140 1.399 . S
C2140 H2126 0.929 . S
C2140 C2139 1.399 . S
C2140 C2141 1.385 . S
C2141 H2127 0.931 . S
C2141 C2140 1.385 . S
C2141 C2142 1.389 . S
C2142 C2141 1.389 . S
C2142 C2143 1.387 . S
C2143 H2128 0.930 . S
C2143 C2138 1.390 . S
C2143 C2142 1.387 . S
H2144 C2156 0.930 . S
H2145 C2158 0.930 . S
H2146 C2159 0.930 . S
H2147 C2163 0.959 . S
H2148 C2163 0.959 . S
H2149 C2163 0.961 . S
H2150 C2164 0.960 . S
H2151 C2164 0.934 1_455 S
H2152 C2164 0.959 . S
H2153 C2167 0.929 1_655 S
H2154 C2168 0.931 . S
H2155 C2170 0.930 . S
C2156 H2144 0.930 . S
C2156 C2157 1.399 . S
C2156 C2161 1.399 . S
C2157 C2156 1.399 . S
C2157 C2158 1.376 . S
C2158 H2145 0.930 . S
C2158 C2157 1.376 . S
C2158 C2159 1.388 . S
C2159 H2146 0.930 . S
C2159 C2158 1.388 . S
C2159 C2160 1.390 . S
C2160 C2159 1.390 . S
C2160 C2161 1.394 . S
C2160 C2166 1.452 1_655 S
C2161 C2156 1.399 . S
C2161 C2160 1.394 . S
C2161 C2162 1.516 1_655 S
C2162 C2161 1.516 1_455 S
C2162 C2163 1.502 . S
C2162 C2164 1.561 1_455 S
C2162 C2165 1.526 . S
C2163 H2147 0.959 . S
C2163 H2148 0.959 . S
C2163 H2149 0.961 . S
C2163 C2162 1.502 . S
C2164 H2150 0.960 . S
C2164 H2151 0.934 1_655 S
C2164 H2152 0.959 . S
C2164 C2162 1.561 1_655 S
C2165 C2162 1.526 . S
C2165 C2166 1.411 . S
C2165 C2170 1.390 . S
C2166 C2160 1.452 1_455 S
C2166 C2165 1.411 . S
C2166 C2167 1.399 . S
C2167 H2153 0.929 1_455 S
C2167 C2166 1.399 . S
C2167 C2168 1.385 . S
C2168 H2154 0.931 . S
C2168 C2167 1.385 . S
C2168 C2169 1.389 . S
C2169 C2168 1.389 . S
C2169 C2170 1.387 . S
C2170 H2155 0.930 . S
C2170 C2165 1.390 . S
C2170 C2169 1.387 . S
H2171 C2183 0.930 . S
H2172 C2185 0.930 . S
H2173 C2186 0.930 . S
H2174 C2190 0.959 . S
H2175 C2190 0.959 . S
H2176 C2190 0.961 . S
H2177 C2191 0.960 . S
H2178 C2191 0.961 . S
H2179 C2191 0.959 . S
H2180 C2194 0.929 . S
H2181 C2195 0.931 . S
H2182 C2197 0.930 . S
C2183 H2171 0.930 . S
C2183 C2184 1.399 . S
C2183 C2188 1.399 . S
C2184 C2183 1.399 . S
C2184 C2185 1.376 . S
C2185 H2172 0.930 . S
C2185 C2184 1.376 . S
C2185 C2186 1.388 . S
C2186 H2173 0.930 . S
C2186 C2185 1.388 . S
C2186 C2187 1.390 . S
C2187 C2186 1.390 . S
C2187 C2188 1.394 . S
C2187 C2193 1.465 . S
C2188 C2183 1.399 . S
C2188 C2187 1.394 . S
C2188 C2189 1.516 . S
C2189 C2188 1.516 . S
C2189 C2190 1.502 . S
C2189 C2191 1.561 . S
C2189 C2192 1.526 . S
C2190 H2174 0.959 . S
C2190 H2175 0.959 . S
C2190 H2176 0.961 . S
C2190 C2189 1.502 . S
C2191 H2177 0.960 . S
C2191 H2178 0.961 . S
C2191 H2179 0.959 . S
C2191 C2189 1.561 . S
C2192 C2189 1.526 . S
C2192 C2193 1.396 . S
C2192 C2197 1.390 . S
C2193 C2187 1.465 . S
C2193 C2192 1.396 . S
C2193 C2194 1.399 . S
C2194 H2180 0.929 . S
C2194 C2193 1.399 . S
C2194 C2195 1.385 . S
C2195 H2181 0.931 . S
C2195 C2194 1.385 . S
C2195 C2196 1.389 . S
C2196 C2195 1.389 . S
C2196 C2197 1.387 . S
C2197 H2182 0.930 . S
C2197 C2192 1.390 . S
C2197 C2196 1.387 . S
H2198 C2210 0.930 . S
H2199 C2212 0.930 . S
H2200 C2213 0.930 . S
H2201 C2217 0.959 . S
H2202 C2217 0.959 . S
H2203 C2217 0.961 . S
H2204 C2218 0.960 . S
H2205 C2218 0.961 . S
H2206 C2218 0.959 . S
H2207 C2221 0.929 . S
H2208 C2222 0.931 . S
H2209 C2224 0.930 . S
C2210 H2198 0.930 . S
C2210 C2211 1.399 . S
C2210 C2215 1.399 . S
C2211 C2210 1.399 . S
C2211 C2212 1.376 . S
C2212 H2199 0.930 . S
C2212 C2211 1.376 . S
C2212 C2213 1.388 . S
C2213 H2200 0.930 . S
C2213 C2212 1.388 . S
C2213 C2214 1.390 . S
C2214 C2213 1.390 . S
C2214 C2215 1.394 . S
C2214 C2220 1.465 . S
C2215 C2210 1.399 . S
C2215 C2214 1.394 . S
C2215 C2216 1.516 . S
C2216 C2215 1.516 . S
C2216 C2217 1.502 . S
C2216 C2218 1.561 . S
C2216 C2219 1.526 . S
C2217 H2201 0.959 . S
C2217 H2202 0.959 . S
C2217 H2203 0.961 . S
C2217 C2216 1.502 . S
C2218 H2204 0.960 . S
C2218 H2205 0.961 . S
C2218 H2206 0.959 . S
C2218 C2216 1.561 . S
C2219 C2216 1.526 . S
C2219 C2220 1.396 . S
C2219 C2224 1.390 . S
C2220 C2214 1.465 . S
C2220 C2219 1.396 . S
C2220 C2221 1.399 . S
C2221 H2207 0.929 . S
C2221 C2220 1.399 . S
C2221 C2222 1.385 . S
C2222 H2208 0.931 . S
C2222 C2221 1.385 . S
C2222 C2223 1.389 . S
C2223 C2222 1.389 . S
C2223 C2224 1.387 . S
C2224 H2209 0.930 . S
C2224 C2219 1.390 . S
C2224 C2223 1.387 . S
H2225 C2237 0.930 . S
H2226 C2239 0.930 . S
H2227 C2240 0.930 . S
H2228 C2244 0.959 . S
H2229 C2244 0.959 . S
H2230 C2244 0.961 . S
H2231 C2245 0.960 . S
H2232 C2245 0.961 . S
H2233 C2245 0.959 . S
H2234 C2248 0.929 . S
H2235 C2249 0.931 . S
H2236 C2251 0.930 . S
C2237 H2225 0.930 . S
C2237 C2238 1.399 . S
C2237 C2242 1.399 . S
C2238 C2237 1.399 . S
C2238 C2239 1.376 . S
C2239 H2226 0.930 . S
C2239 C2238 1.376 . S
C2239 C2240 1.388 . S
C2240 H2227 0.930 . S
C2240 C2239 1.388 . S
C2240 C2241 1.390 . S
C2241 C2240 1.390 . S
C2241 C2242 1.394 . S
C2241 C2247 1.465 . S
C2242 C2237 1.399 . S
C2242 C2241 1.394 . S
C2242 C2243 1.516 . S
C2243 C2242 1.516 . S
C2243 C2244 1.502 . S
C2243 C2245 1.561 . S
C2243 C2246 1.526 . S
C2244 H2228 0.959 . S
C2244 H2229 0.959 . S
C2244 H2230 0.961 . S
C2244 C2243 1.502 . S
C2245 H2231 0.960 . S
C2245 H2232 0.961 . S
C2245 H2233 0.959 . S
C2245 C2243 1.561 . S
C2246 C2243 1.526 . S
C2246 C2247 1.396 . S
C2246 C2251 1.390 . S
C2247 C2241 1.465 . S
C2247 C2246 1.396 . S
C2247 C2248 1.399 . S
C2248 H2234 0.929 . S
C2248 C2247 1.399 . S
C2248 C2249 1.385 . S
C2249 H2235 0.931 . S
C2249 C2248 1.385 . S
C2249 C2250 1.389 . S
C2250 C2249 1.389 . S
C2250 C2251 1.387 . S
C2251 H2236 0.930 . S
C2251 C2246 1.390 . S
C2251 C2250 1.387 . S
H2252 C2264 0.930 . S
H2253 C2266 0.930 . S
H2254 C2267 0.930 . S
H2255 C2271 0.959 . S
H2256 C2271 0.959 . S
H2257 C2271 0.961 . S
H2258 C2272 0.960 . S
H2259 C2272 0.961 . S
H2260 C2272 0.959 1_455 S
H2261 C2275 0.929 . S
H2262 C2276 0.931 . S
H2263 C2278 0.930 . S
C2264 H2252 0.930 . S
C2264 C2265 1.399 . S
C2264 C2269 1.399 . S
C2265 C2264 1.399 . S
C2265 C2266 1.376 . S
C2266 H2253 0.930 . S
C2266 C2265 1.376 . S
C2266 C2267 1.388 1_655 S
C2267 H2254 0.930 . S
C2267 C2266 1.388 1_455 S
C2267 C2268 1.390 . S
C2268 C2267 1.390 . S
C2268 C2269 1.394 1_455 S
C2268 C2274 1.465 . S
C2269 C2264 1.399 . S
C2269 C2268 1.394 1_655 S
C2269 C2270 1.516 . S
C2270 C2269 1.516 . S
C2270 C2271 1.502 . S
C2270 C2272 1.561 . S
C2270 C2273 1.526 1_655 S
C2271 H2255 0.959 . S
C2271 H2256 0.959 . S
C2271 H2257 0.961 . S
C2271 C2270 1.502 . S
C2272 H2258 0.960 . S
C2272 H2259 0.961 . S
C2272 H2260 0.959 1_655 S
C2272 C2270 1.561 . S
C2273 C2270 1.526 1_455 S
C2273 C2274 1.396 . S
C2273 C2278 1.390 . S
C2274 C2268 1.465 . S
C2274 C2273 1.396 . S
C2274 C2275 1.399 . S
C2275 H2261 0.929 . S
C2275 C2274 1.399 . S
C2275 C2276 1.385 . S
C2276 H2262 0.931 . S
C2276 C2275 1.385 . S
C2276 C2277 1.389 . S
C2277 C2276 1.389 . S
C2277 C2278 1.387 . S
C2278 H2263 0.930 . S
C2278 C2273 1.390 . S
C2278 C2277 1.387 . S
H2279 C2291 0.930 . S
H2280 C2293 0.930 1_554 S
H2281 C2294 0.930 . S
H2282 C2298 0.959 . S
H2283 C2298 0.959 . S
H2284 C2298 0.961 . S
H2285 C2299 0.960 . S
H2286 C2299 0.961 . S
H2287 C2299 0.959 . S
H2288 C2302 0.929 . S
H2289 C2303 0.931 . S
H2290 C2305 0.930 . S
C2291 H2279 0.930 . S
C2291 C2292 1.399 . S
C2291 C2296 1.399 . S
C2292 C2291 1.399 . S
C2292 C2293 1.376 . S
C2293 H2280 0.930 1_556 S
C2293 C2292 1.376 . S
C2293 C2294 1.388 . S
C2294 H2281 0.930 . S
C2294 C2293 1.388 . S
C2294 C2295 1.390 . S
C2295 C2294 1.390 . S
C2295 C2296 1.394 . S
C2295 C2301 1.465 . S
C2296 C2291 1.399 . S
C2296 C2295 1.394 . S
C2296 C2297 1.516 . S
C2297 C2296 1.516 . S
C2297 C2298 1.502 . S
C2297 C2299 1.561 . S
C2297 C2300 1.526 . S
C2298 H2282 0.959 . S
C2298 H2283 0.959 . S
C2298 H2284 0.961 . S
C2298 C2297 1.502 . S
C2299 H2285 0.960 . S
C2299 H2286 0.961 . S
C2299 H2287 0.959 . S
C2299 C2297 1.561 . S
C2300 C2297 1.526 . S
C2300 C2301 1.396 . S
C2300 C2305 1.390 . S
C2301 C2295 1.465 . S
C2301 C2300 1.396 . S
C2301 C2302 1.399 . S
C2302 H2288 0.929 . S
C2302 C2301 1.399 . S
C2302 C2303 1.385 . S
C2303 H2289 0.931 . S
C2303 C2302 1.385 . S
C2303 C2304 1.389 . S
C2304 C2303 1.389 . S
C2304 C2305 1.387 . S
C2305 H2290 0.930 . S
C2305 C2300 1.390 . S
C2305 C2304 1.387 . S
H2306 C2318 0.930 . S
H2307 C2320 0.930 . S
H2308 C2321 0.930 . S
H2309 C2325 0.959 . S
H2310 C2325 0.959 . S
H2311 C2325 0.961 . S
H2312 C2326 0.960 . S
H2313 C2326 0.961 . S
H2314 C2326 0.959 . S
H2315 C2329 0.929 . S
H2316 C2330 0.931 . S
H2317 C2332 0.930 . S
C2318 H2306 0.930 . S
C2318 C2319 1.399 . S
C2318 C2323 1.399 . S
C2319 C2318 1.399 . S
C2319 C2320 1.376 . S
C2320 H2307 0.930 . S
C2320 C2319 1.376 . S
C2320 C2321 1.388 . S
C2321 H2308 0.930 . S
C2321 C2320 1.388 . S
C2321 C2322 1.390 . S
C2322 C2321 1.390 . S
C2322 C2323 1.394 . S
C2322 C2328 1.465 . S
C2323 C2318 1.399 . S
C2323 C2322 1.394 . S
C2323 C2324 1.516 . S
C2324 C2323 1.516 . S
C2324 C2325 1.502 . S
C2324 C2326 1.561 . S
C2324 C2327 1.526 . S
C2325 H2309 0.959 . S
C2325 H2310 0.959 . S
C2325 H2311 0.961 . S
C2325 C2324 1.502 . S
C2326 H2312 0.960 . S
C2326 H2313 0.961 . S
C2326 H2314 0.959 . S
C2326 C2324 1.561 . S
C2327 C2324 1.526 . S
C2327 C2328 1.396 . S
C2327 C2332 1.390 . S
C2328 C2322 1.465 . S
C2328 C2327 1.396 . S
C2328 C2329 1.399 . S
C2329 H2315 0.929 . S
C2329 C2328 1.399 . S
C2329 C2330 1.385 . S
C2330 H2316 0.931 . S
C2330 C2329 1.385 . S
C2330 C2331 1.389 . S
C2331 C2330 1.389 . S
C2331 C2332 1.387 . S
C2332 H2317 0.930 . S
C2332 C2327 1.390 . S
C2332 C2331 1.387 . S
H2333 C2345 0.930 . S
H2334 C2347 0.930 . S
H2335 C2348 0.930 . S
H2336 C2352 0.959 . S
H2337 C2352 0.959 . S
H2338 C2352 0.961 . S
H2339 C2353 0.960 . S
H2340 C2353 0.961 . S
H2341 C2353 0.959 . S
H2342 C2356 0.929 . S
H2343 C2357 0.931 . S
H2344 C2359 0.930 . S
C2345 H2333 0.930 . S
C2345 C2346 1.399 . S
C2345 C2350 1.399 . S
C2346 C2345 1.399 . S
C2346 C2347 1.376 . S
C2347 H2334 0.930 . S
C2347 C2346 1.376 . S
C2347 C2348 1.388 . S
C2348 H2335 0.930 . S
C2348 C2347 1.388 . S
C2348 C2349 1.390 . S
C2349 C2348 1.390 . S
C2349 C2350 1.394 . S
C2349 C2355 1.465 . S
C2350 C2345 1.399 . S
C2350 C2349 1.394 . S
C2350 C2351 1.516 . S
C2351 C2350 1.516 . S
C2351 C2352 1.502 . S
C2351 C2353 1.561 . S
C2351 C2354 1.526 . S
C2352 H2336 0.959 . S
C2352 H2337 0.959 . S
C2352 H2338 0.961 . S
C2352 C2351 1.502 . S
C2353 H2339 0.960 . S
C2353 H2340 0.961 . S
C2353 H2341 0.959 . S
C2353 C2351 1.561 . S
C2354 C2351 1.526 . S
C2354 C2355 1.396 . S
C2354 C2359 1.390 . S
C2355 C2349 1.465 . S
C2355 C2354 1.396 . S
C2355 C2356 1.399 . S
C2356 H2342 0.929 . S
C2356 C2355 1.399 . S
C2356 C2357 1.385 . S
C2357 H2343 0.931 . S
C2357 C2356 1.385 . S
C2357 C2358 1.389 . S
C2358 C2357 1.389 . S
C2358 C2359 1.387 . S
C2359 H2344 0.930 . S
C2359 C2354 1.390 . S
C2359 C2358 1.387 . S
H2360 C2372 0.930 . S
H2361 C2374 0.930 . S
H2362 C2375 0.930 . S
H2363 C2379 0.959 . S
H2364 C2379 0.959 . S
H2365 C2379 0.961 . S
H2366 C2380 0.960 . S
H2367 C2380 0.961 . S
H2368 C2380 0.959 . S
H2369 C2383 0.929 . S
H2370 C2384 0.931 . S
H2371 C2386 0.930 . S
C2372 H2360 0.930 . S
C2372 C2373 1.399 . S
C2372 C2377 1.399 . S
C2373 C2372 1.399 . S
C2373 C2374 1.376 . S
C2374 H2361 0.930 . S
C2374 C2373 1.376 . S
C2374 C2375 1.388 . S
C2375 H2362 0.930 . S
C2375 C2374 1.388 . S
C2375 C2376 1.390 . S
C2376 C2375 1.390 . S
C2376 C2377 1.394 . S
C2376 C2382 1.465 . S
C2377 C2372 1.399 . S
C2377 C2376 1.394 . S
C2377 C2378 1.516 . S
C2378 C2377 1.516 . S
C2378 C2379 1.502 . S
C2378 C2380 1.561 . S
C2378 C2381 1.526 . S
C2379 H2363 0.959 . S
C2379 H2364 0.959 . S
C2379 H2365 0.961 . S
C2379 C2378 1.502 . S
C2380 H2366 0.960 . S
C2380 H2367 0.961 . S
C2380 H2368 0.959 . S
C2380 C2378 1.561 . S
C2381 C2378 1.526 . S
C2381 C2382 1.396 . S
C2381 C2386 1.390 . S
C2382 C2376 1.465 . S
C2382 C2381 1.396 . S
C2382 C2383 1.399 . S
C2383 H2369 0.929 . S
C2383 C2382 1.399 . S
C2383 C2384 1.385 . S
C2384 H2370 0.931 . S
C2384 C2383 1.385 . S
C2384 C2385 1.389 . S
C2385 C2384 1.389 . S
C2385 C2386 1.387 . S
C2386 H2371 0.930 . S
C2386 C2381 1.390 . S
C2386 C2385 1.387 . S
H2387 C2399 0.930 . S
H2388 C2401 0.930 . S
H2389 C2402 0.930 . S
H2390 C2406 0.959 . S
H2391 C2406 0.959 . S
H2392 C2406 0.961 . S
H2393 C2407 0.960 . S
H2394 C2407 0.961 . S
H2395 C2407 0.959 . S
H2396 C2410 0.929 . S
H2397 C2411 0.931 . S
H2398 C2413 0.930 . S
C2399 H2387 0.930 . S
C2399 C2400 1.399 . S
C2399 C2404 1.399 . S
C2400 C2399 1.399 . S
C2400 C2401 1.376 . S
C2401 H2388 0.930 . S
C2401 C2400 1.376 . S
C2401 C2402 1.388 . S
C2402 H2389 0.930 . S
C2402 C2401 1.388 . S
C2402 C2403 1.390 . S
C2403 C2402 1.390 . S
C2403 C2404 1.394 . S
C2403 C2409 1.465 . S
C2404 C2399 1.399 . S
C2404 C2403 1.394 . S
C2404 C2405 1.516 . S
C2405 C2404 1.516 . S
C2405 C2406 1.502 . S
C2405 C2407 1.561 . S
C2405 C2408 1.526 . S
C2406 H2390 0.959 . S
C2406 H2391 0.959 . S
C2406 H2392 0.961 . S
C2406 C2405 1.502 . S
C2407 H2393 0.960 . S
C2407 H2394 0.961 . S
C2407 H2395 0.959 . S
C2407 C2405 1.561 . S
C2408 C2405 1.526 . S
C2408 C2409 1.396 . S
C2408 C2413 1.390 . S
C2409 C2403 1.465 . S
C2409 C2408 1.396 . S
C2409 C2410 1.399 . S
C2410 H2396 0.929 . S
C2410 C2409 1.399 . S
C2410 C2411 1.385 . S
C2411 H2397 0.931 . S
C2411 C2410 1.385 . S
C2411 C2412 1.389 . S
C2412 C2411 1.389 . S
C2412 C2413 1.387 . S
C2413 H2398 0.930 . S
C2413 C2408 1.390 . S
C2413 C2412 1.387 . S
H2414 C2426 0.930 . S
H2415 C2428 0.930 . S
H2416 C2429 0.930 . S
H2417 C2433 0.959 . S
H2418 C2433 0.959 . S
H2419 C2433 0.961 . S
H2420 C2434 0.960 . S
H2421 C2434 0.961 . S
H2422 C2434 0.959 . S
H2423 C2437 0.929 . S
H2424 C2438 0.931 . S
H2425 C2440 0.930 . S
C2426 H2414 0.930 . S
C2426 C2427 1.399 . S
C2426 C2431 1.399 . S
C2427 C2426 1.399 . S
C2427 C2428 1.376 . S
C2428 H2415 0.930 . S
C2428 C2427 1.376 . S
C2428 C2429 1.388 . S
C2429 H2416 0.930 . S
C2429 C2428 1.388 . S
C2429 C2430 1.390 . S
C2430 C2429 1.390 . S
C2430 C2431 1.394 . S
C2430 C2436 1.465 . S
C2431 C2426 1.399 . S
C2431 C2430 1.394 . S
C2431 C2432 1.516 . S
C2432 C2431 1.516 . S
C2432 C2433 1.502 . S
C2432 C2434 1.561 . S
C2432 C2435 1.526 . S
C2433 H2417 0.959 . S
C2433 H2418 0.959 . S
C2433 H2419 0.961 . S
C2433 C2432 1.502 . S
C2434 H2420 0.960 . S
C2434 H2421 0.961 . S
C2434 H2422 0.959 . S
C2434 C2432 1.561 . S
C2435 C2432 1.526 . S
C2435 C2436 1.396 . S
C2435 C2440 1.390 . S
C2436 C2430 1.465 . S
C2436 C2435 1.396 . S
C2436 C2437 1.399 . S
C2437 H2423 0.929 . S
C2437 C2436 1.399 . S
C2437 C2438 1.385 . S
C2438 H2424 0.931 . S
C2438 C2437 1.385 . S
C2438 C2439 1.389 . S
C2439 C2438 1.389 . S
C2439 C2440 1.387 . S
C2440 H2425 0.930 . S
C2440 C2435 1.390 . S
C2440 C2439 1.387 . S
H2441 C2453 0.930 . S
H2442 C2455 0.930 . S
H2443 C2456 0.930 . S
H2444 C2460 0.959 . S
H2445 C2460 0.959 . S
H2446 C2460 0.961 . S
H2447 C2461 0.960 . S
H2448 C2461 0.961 . S
H2449 C2461 0.959 . S
H2450 C2464 0.929 . S
H2451 C2465 0.931 . S
H2452 C2467 0.930 . S
C2453 H2441 0.930 . S
C2453 C2454 1.399 . S
C2453 C2458 1.399 . S
C2454 C2453 1.399 . S
C2454 C2455 1.376 . S
C2455 H2442 0.930 . S
C2455 C2454 1.376 . S
C2455 C2456 1.388 . S
C2456 H2443 0.930 . S
C2456 C2455 1.388 . S
C2456 C2457 1.390 . S
C2457 C2456 1.390 . S
C2457 C2458 1.394 . S
C2457 C2463 1.465 . S
C2458 C2453 1.399 . S
C2458 C2457 1.394 . S
C2458 C2459 1.516 . S
C2459 C2458 1.516 . S
C2459 C2460 1.502 . S
C2459 C2461 1.561 . S
C2459 C2462 1.526 . S
C2460 H2444 0.959 . S
C2460 H2445 0.959 . S
C2460 H2446 0.961 . S
C2460 C2459 1.502 . S
C2461 H2447 0.960 . S
C2461 H2448 0.961 . S
C2461 H2449 0.959 . S
C2461 C2459 1.561 . S
C2462 C2459 1.526 . S
C2462 C2463 1.396 . S
C2462 C2467 1.390 . S
C2463 C2457 1.465 . S
C2463 C2462 1.396 . S
C2463 C2464 1.399 . S
C2464 H2450 0.929 . S
C2464 C2463 1.399 . S
C2464 C2465 1.385 . S
C2465 H2451 0.931 . S
C2465 C2464 1.385 . S
C2465 C2466 1.389 . S
C2466 C2465 1.389 . S
C2466 C2467 1.387 . S
C2467 H2452 0.930 . S
C2467 C2462 1.390 . S
C2467 C2466 1.387 . S
H2468 C2480 0.930 . S
H2469 C2482 0.930 . S
H2470 C2483 0.930 1_565 S
H2471 C2487 0.959 . S
H2472 C2487 0.959 . S
H2473 C2487 0.961 . S
H2474 C2488 0.960 . S
H2475 C2488 0.961 . S
H2476 C2488 0.959 . S
H2477 C2491 0.929 . S
H2478 C2492 0.931 . S
H2479 C2494 0.930 . S
C2480 H2468 0.930 . S
C2480 C2481 1.399 . S
C2480 C2485 1.399 . S
C2481 C2480 1.399 . S
C2481 C2482 1.376 . S
C2482 H2469 0.930 . S
C2482 C2481 1.376 . S
C2482 C2483 1.388 . S
C2483 H2470 0.930 1_545 S
C2483 C2482 1.388 . S
C2483 C2484 1.390 . S
C2484 C2483 1.390 . S
C2484 C2485 1.394 . S
C2484 C2490 1.465 1_545 S
C2485 C2480 1.399 . S
C2485 C2484 1.394 . S
C2485 C2486 1.516 . S
C2486 C2485 1.516 . S
C2486 C2487 1.502 . S
C2486 C2488 1.561 . S
C2486 C2489 1.526 1_545 S
C2487 H2471 0.959 . S
C2487 H2472 0.959 . S
C2487 H2473 0.961 . S
C2487 C2486 1.502 . S
C2488 H2474 0.960 . S
C2488 H2475 0.961 . S
C2488 H2476 0.959 . S
C2488 C2486 1.561 . S
C2489 C2486 1.526 1_565 S
C2489 C2490 1.396 . S
C2489 C2494 1.390 . S
C2490 C2484 1.465 1_565 S
C2490 C2489 1.396 . S
C2490 C2491 1.399 . S
C2491 H2477 0.929 . S
C2491 C2490 1.399 . S
C2491 C2492 1.385 . S
C2492 H2478 0.931 . S
C2492 C2491 1.385 . S
C2492 C2493 1.389 . S
C2493 C2492 1.389 . S
C2493 C2494 1.387 . S
C2494 H2479 0.930 . S
C2494 C2489 1.390 . S
C2494 C2493 1.387 . S
H2495 C2507 0.930 1_655 S
H2496 C2509 0.930 . S
H2497 C2510 0.930 . S
H2498 C2514 0.959 . S
H2499 C2514 0.959 . S
H2500 C2514 0.961 . S
H2501 C2515 0.960 . S
H2502 C2515 0.961 . S
H2503 C2515 0.959 . S
H2504 C2518 0.929 . S
H2505 C2519 0.931 1_455 S
H2506 C2521 0.930 . S
C2507 H2495 0.930 1_455 S
C2507 C2508 1.399 . S
C2507 C2512 1.414 . S
C2508 C2507 1.399 . S
C2508 C2509 1.376 . S
C2509 H2496 0.930 . S
C2509 C2508 1.376 . S
C2509 C2510 1.388 . S
C2510 H2497 0.930 . S
C2510 C2509 1.388 . S
C2510 C2511 1.390 . S
C2511 C2510 1.390 . S
C2511 C2512 1.424 . S
C2511 C2517 1.465 1_565 S
C2512 C2507 1.414 . S
C2512 C2511 1.424 . S
C2512 C2513 1.443 1_465 S
C2513 C2512 1.443 1_645 S
C2513 C2514 1.475 1_545 S
C2513 C2515 1.590 . S
C2513 C2516 1.561 . S
C2514 H2498 0.959 . S
C2514 H2499 0.959 . S
C2514 H2500 0.961 . S
C2514 C2513 1.475 1_565 S
C2515 H2501 0.960 . S
C2515 H2502 0.961 . S
C2515 H2503 0.959 . S
C2515 C2513 1.590 . S
C2516 C2513 1.561 . S
C2516 C2517 1.396 1_655 S
C2516 C2521 1.390 . S
C2517 C2511 1.465 1_545 S
C2517 C2516 1.396 1_455 S
C2517 C2518 1.399 . S
C2518 H2504 0.929 . S
C2518 C2517 1.399 . S
C2518 C2519 1.385 1_455 S
C2519 H2505 0.931 1_655 S
C2519 C2518 1.385 1_655 S
C2519 C2520 1.389 . S
C2520 C2519 1.389 . S
C2520 C2521 1.387 . S
C2521 H2506 0.930 . S
C2521 C2516 1.390 . S
C2521 C2520 1.387 . S
H2522 C2534 0.930 . S
H2523 C2536 0.930 . S
H2524 C2537 0.930 . S
H2525 C2541 0.959 . S
H2526 C2541 0.959 . S
H2527 C2541 0.961 . S
H2528 C2542 0.960 . S
H2529 C2542 0.961 . S
H2530 C2542 0.959 . S
H2531 C2545 0.929 . S
H2532 C2546 0.931 . S
H2533 C2548 0.959 . S
C2534 H2522 0.930 . S
C2534 C2535 1.399 . S
C2534 C2539 1.399 . S
C2535 C2534 1.399 . S
C2535 C2536 1.376 1_565 S
C2536 H2523 0.930 . S
C2536 C2535 1.376 1_545 S
C2536 C2537 1.388 . S
C2537 H2524 0.930 . S
C2537 C2536 1.388 . S
C2537 C2538 1.390 . S
C2538 C2537 1.390 . S
C2538 C2539 1.394 1_545 S
C2538 C2544 1.465 . S
C2539 C2534 1.399 . S
C2539 C2538 1.394 1_565 S
C2539 C2540 1.516 . S
C2540 C2539 1.516 . S
C2540 C2541 1.502 . S
C2540 C2542 1.561 . S
C2540 C2543 1.526 . S
C2541 H2525 0.959 . S
C2541 H2526 0.959 . S
C2541 H2527 0.961 . S
C2541 C2540 1.502 . S
C2542 H2528 0.960 . S
C2542 H2529 0.961 . S
C2542 H2530 0.959 . S
C2542 C2540 1.561 . S
C2543 C2540 1.526 . S
C2543 C2544 1.396 1_565 S
C2543 C2548 1.397 . S
C2544 C2538 1.465 . S
C2544 C2543 1.396 1_545 S
C2544 C2545 1.399 . S
C2545 H2531 0.929 . S
C2545 C2544 1.399 . S
C2545 C2546 1.385 . S
C2546 H2532 0.931 . S
C2546 C2545 1.385 . S
C2546 C2547 1.389 . S
C2547 C2546 1.389 . S
C2547 C2548 1.351 1_545 S
C2548 H2533 0.959 . S
C2548 C2543 1.397 . S
C2548 C2547 1.351 1_565 S
H2549 C2561 0.930 . S
H2550 C2563 0.930 . S
H2551 C2564 0.930 . S
H2552 C2568 0.959 . S
H2553 C2568 0.959 . S
H2554 C2568 0.961 1_655 S
H2555 C2569 0.960 . S
H2556 C2569 0.961 . S
H2557 C2569 0.959 . S
H2558 C2572 0.929 . S
H2559 C2573 0.931 . S
H2560 C2575 0.930 . S
C2561 H2549 0.930 . S
C2561 C2562 1.399 1_545 S
C2561 C2566 1.399 . S
C2562 C2561 1.399 1_565 S
C2562 C2563 1.376 . S
C2563 H2550 0.930 . S
C2563 C2562 1.376 . S
C2563 C2564 1.388 . S
C2564 H2551 0.930 . S
C2564 C2563 1.388 . S
C2564 C2565 1.390 . S
C2565 C2564 1.390 . S
C2565 C2566 1.394 1_565 S
C2565 C2571 1.465 1_655 S
C2566 C2561 1.399 . S
C2566 C2565 1.394 1_545 S
C2566 C2567 1.516 . S
C2567 C2566 1.516 . S
C2567 C2568 1.502 1_655 S
C2567 C2569 1.561 . S
C2567 C2570 1.526 1_655 S
C2568 H2552 0.959 . S
C2568 H2553 0.959 . S
C2568 H2554 0.961 1_455 S
C2568 C2567 1.502 1_455 S
C2569 H2555 0.960 . S
C2569 H2556 0.961 . S
C2569 H2557 0.959 . S
C2569 C2567 1.561 . S
C2570 C2567 1.526 1_455 S
C2570 C2571 1.396 1_545 S
C2570 C2575 1.390 . S
C2571 C2565 1.465 1_455 S
C2571 C2570 1.396 1_565 S
C2571 C2572 1.399 . S
C2572 H2558 0.929 . S
C2572 C2571 1.399 . S
C2572 C2573 1.385 . S
C2573 H2559 0.931 . S
C2573 C2572 1.385 . S
C2573 C2574 1.389 1_565 S
C2574 C2573 1.389 1_545 S
C2574 C2575 1.387 . S
C2575 H2560 0.930 . S
C2575 C2570 1.390 . S
C2575 C2574 1.387 . S
H2576 C2588 0.930 . S
H2577 C2590 0.930 . S
H2578 C2591 0.930 . S
H2579 C2595 0.959 . S
H2580 C2595 0.959 . S
H2581 C2595 0.961 . S
H2582 C2596 0.960 . S
H2583 C2596 0.961 . S
H2584 C2596 0.959 . S
H2585 C2599 0.929 . S
H2586 C2600 0.931 . S
H2587 C2602 0.930 1_455 S
C2588 H2576 0.930 . S
C2588 C2589 1.413 . S
C2588 C2593 1.399 . S
C2589 C2588 1.413 . S
C2589 C2590 1.376 1_556 S
C2590 H2577 0.930 . S
C2590 C2589 1.376 1_554 S
C2590 C2591 1.388 1_454 S
C2591 H2578 0.930 . S
C2591 C2590 1.388 1_656 S
C2591 C2592 1.390 1_655 S
C2592 C2591 1.390 1_455 S
C2592 C2593 1.394 . S
C2592 C2598 1.465 1_455 S
C2593 C2588 1.399 . S
C2593 C2592 1.394 . S
C2593 C2594 1.516 . S
C2594 C2593 1.516 . S
C2594 C2595 1.502 . S
C2594 C2596 1.561 . S
C2594 C2597 1.570 . S
C2595 H2579 0.959 . S
C2595 H2580 0.959 . S
C2595 H2581 0.961 . S
C2595 C2594 1.502 . S
C2596 H2582 0.960 . S
C2596 H2583 0.961 . S
C2596 H2584 0.959 . S
C2596 C2594 1.561 . S
C2597 C2594 1.570 . S
C2597 C2598 1.373 1_455 S
C2597 C2602 1.369 1_455 S
C2598 C2592 1.465 1_655 S
C2598 C2597 1.373 1_655 S
C2598 C2599 1.399 . S
C2599 H2585 0.929 . S
C2599 C2598 1.399 . S
C2599 C2600 1.385 . S
C2600 H2586 0.931 . S
C2600 C2599 1.385 . S
C2600 C2601 1.389 . S
C2601 C2600 1.389 . S
C2601 C2602 1.387 . S
C2602 H2587 0.930 1_655 S
C2602 C2597 1.369 1_655 S
C2602 C2601 1.387 . S
H2603 C2615 0.930 . S
H2604 C2617 0.930 . S
H2605 C2618 0.930 . S
H2606 C2622 0.959 . S
H2607 C2622 0.959 . S
H2608 C2622 0.961 . S
H2609 C2623 0.960 . S
H2610 C2623 0.961 . S
H2611 C2623 0.959 . S
H2612 C2626 0.929 . S
H2613 C2627 0.931 . S
H2614 C2629 0.930 . S
C2615 H2603 0.930 . S
C2615 C2616 1.399 . S
C2615 C2620 1.399 . S
C2616 C2615 1.399 . S
C2616 C2617 1.376 . S
C2617 H2604 0.930 . S
C2617 C2616 1.376 . S
C2617 C2618 1.388 . S
C2618 H2605 0.930 . S
C2618 C2617 1.388 . S
C2618 C2619 1.390 . S
C2619 C2618 1.390 . S
C2619 C2620 1.394 . S
C2619 C2625 1.465 . S
C2620 C2615 1.399 . S
C2620 C2619 1.394 . S
C2620 C2621 1.516 . S
C2621 C2620 1.516 . S
C2621 C2622 1.502 . S
C2621 C2623 1.561 . S
C2621 C2624 1.526 . S
C2622 H2606 0.959 . S
C2622 H2607 0.959 . S
C2622 H2608 0.961 . S
C2622 C2621 1.502 . S
C2623 H2609 0.960 . S
C2623 H2610 0.961 . S
C2623 H2611 0.959 . S
C2623 C2621 1.561 . S
C2624 C2621 1.526 . S
C2624 C2625 1.396 . S
C2624 C2629 1.390 . S
C2625 C2619 1.465 . S
C2625 C2624 1.396 . S
C2625 C2626 1.399 . S
C2626 H2612 0.929 . S
C2626 C2625 1.399 . S
C2626 C2627 1.385 . S
C2627 H2613 0.931 . S
C2627 C2626 1.385 . S
C2627 C2628 1.389 . S
C2628 C2627 1.389 . S
C2628 C2629 1.387 . S
C2629 H2614 0.930 . S
C2629 C2624 1.390 . S
C2629 C2628 1.387 . S
H2630 C2642 0.930 . S
H2631 C2644 0.930 . S
H2632 C2645 0.930 . S
H2633 C2649 0.959 . S
H2634 C2649 0.959 . S
H2635 C2649 0.961 . S
H2636 C2650 0.960 . S
H2637 C2650 0.961 . S
H2638 C2650 0.959 . S
H2639 C2653 0.929 . S
H2640 C2654 0.931 . S
H2641 C2656 0.930 . S
C2642 H2630 0.930 . S
C2642 C2643 1.399 . S
C2642 C2647 1.399 . S
C2643 C2642 1.399 . S
C2643 C2644 1.376 . S
C2644 H2631 0.930 . S
C2644 C2643 1.376 . S
C2644 C2645 1.388 . S
C2645 H2632 0.930 . S
C2645 C2644 1.388 . S
C2645 C2646 1.390 . S
C2646 C2645 1.390 . S
C2646 C2647 1.394 . S
C2646 C2652 1.465 . S
C2647 C2642 1.399 . S
C2647 C2646 1.394 . S
C2647 C2648 1.516 . S
C2648 C2647 1.516 . S
C2648 C2649 1.502 . S
C2648 C2650 1.561 . S
C2648 C2651 1.526 . S
C2649 H2633 0.959 . S
C2649 H2634 0.959 . S
C2649 H2635 0.961 . S
C2649 C2648 1.502 . S
C2650 H2636 0.960 . S
C2650 H2637 0.961 . S
C2650 H2638 0.959 . S
C2650 C2648 1.561 . S
C2651 C2648 1.526 . S
C2651 C2652 1.396 . S
C2651 C2656 1.390 . S
C2652 C2646 1.465 . S
C2652 C2651 1.396 . S
C2652 C2653 1.399 . S
C2653 H2639 0.929 . S
C2653 C2652 1.399 . S
C2653 C2654 1.385 . S
C2654 H2640 0.931 . S
C2654 C2653 1.385 . S
C2654 C2655 1.389 . S
C2655 C2654 1.389 . S
C2655 C2656 1.387 . S
C2656 H2641 0.930 . S
C2656 C2651 1.390 . S
C2656 C2655 1.387 . S
H2657 C2669 0.930 . S
H2658 C2671 0.930 . S
H2659 C2672 0.930 . S
H2660 C2676 0.959 . S
H2661 C2676 0.959 . S
H2662 C2676 0.961 . S
H2663 C2677 0.960 . S
H2664 C2677 0.961 . S
H2665 C2677 0.959 . S
H2666 C2680 0.929 . S
H2667 C2681 0.931 . S
H2668 C2683 0.930 . S
C2669 H2657 0.930 . S
C2669 C2670 1.399 . S
C2669 C2674 1.399 . S
C2670 C2669 1.399 . S
C2670 C2671 1.376 . S
C2671 H2658 0.930 . S
C2671 C2670 1.376 . S
C2671 C2672 1.388 . S
C2672 H2659 0.930 . S
C2672 C2671 1.388 . S
C2672 C2673 1.390 . S
C2673 C2672 1.390 . S
C2673 C2674 1.394 . S
C2673 C2679 1.465 . S
C2674 C2669 1.399 . S
C2674 C2673 1.394 . S
C2674 C2675 1.516 . S
C2675 C2674 1.516 . S
C2675 C2676 1.502 . S
C2675 C2677 1.561 . S
C2675 C2678 1.526 . S
C2676 H2660 0.959 . S
C2676 H2661 0.959 . S
C2676 H2662 0.961 . S
C2676 C2675 1.502 . S
C2677 H2663 0.960 . S
C2677 H2664 0.961 . S
C2677 H2665 0.959 . S
C2677 C2675 1.561 . S
C2678 C2675 1.526 . S
C2678 C2679 1.396 . S
C2678 C2683 1.390 . S
C2679 C2673 1.465 . S
C2679 C2678 1.396 . S
C2679 C2680 1.399 . S
C2680 H2666 0.929 . S
C2680 C2679 1.399 . S
C2680 C2681 1.385 . S
C2681 H2667 0.931 . S
C2681 C2680 1.385 . S
C2681 C2682 1.389 . S
C2682 C2681 1.389 . S
C2682 C2683 1.387 . S
C2683 H2668 0.930 . S
C2683 C2678 1.390 . S
C2683 C2682 1.387 . S
H2684 C2696 0.941 . S
H2685 C2698 0.930 . S
H2686 C2699 0.930 . S
H2687 C2703 0.959 . S
H2688 C2703 0.959 . S
H2689 C2703 0.961 . S
H2690 C2704 0.956 1_655 S
H2691 C2704 0.961 . S
H2692 C2704 0.959 1_655 S
H2693 C2707 0.929 . S
H2694 C2708 0.931 . S
H2695 C2710 0.930 . S
C2696 H2684 0.941 . S
C2696 C2697 1.399 . S
C2696 C2701 1.399 1_655 S
C2697 C2696 1.399 . S
C2697 C2698 1.376 . S
C2698 H2685 0.930 . S
C2698 C2697 1.376 . S
C2698 C2699 1.388 . S
C2699 H2686 0.930 . S
C2699 C2698 1.388 . S
C2699 C2700 1.370 1_655 S
C2700 C2699 1.370 1_455 S
C2700 C2701 1.402 . S
C2700 C2706 1.482 . S
C2701 C2696 1.399 1_455 S
C2701 C2700 1.402 . S
C2701 C2702 1.516 . S
C2702 C2701 1.516 . S
C2702 C2703 1.502 . S
C2702 C2704 1.561 . S
C2702 C2705 1.526 . S
C2703 H2687 0.959 . S
C2703 H2688 0.959 . S
C2703 H2689 0.961 . S
C2703 C2702 1.502 . S
C2704 H2690 0.956 1_455 S
C2704 H2691 0.961 . S
C2704 H2692 0.959 1_455 S
C2704 C2702 1.561 . S
C2705 C2702 1.526 . S
C2705 C2706 1.396 . S
C2705 C2710 1.390 . S
C2706 C2700 1.482 . S
C2706 C2705 1.396 . S
C2706 C2707 1.399 . S
C2707 H2693 0.929 . S
C2707 C2706 1.399 . S
C2707 C2708 1.385 . S
C2708 H2694 0.931 . S
C2708 C2707 1.385 . S
C2708 C2709 1.389 . S
C2709 C2708 1.389 . S
C2709 C2710 1.387 . S
C2710 H2695 0.930 . S
C2710 C2705 1.390 . S
C2710 C2709 1.387 . S
H2711 C2723 0.930 . S
H2712 C2725 0.930 . S
H2713 C2726 0.930 . S
H2714 C2730 0.959 . S
H2715 C2730 0.959 . S
H2716 C2730 0.961 . S
H2717 C2731 0.960 . S
H2718 C2731 0.961 . S
H2719 C2731 0.959 . S
H2720 C2734 0.929 . S
H2721 C2735 0.931 . S
H2722 C2737 0.930 . S
C2723 H2711 0.930 . S
C2723 C2724 1.399 . S
C2723 C2728 1.399 . S
C2724 C2723 1.399 . S
C2724 C2725 1.376 . S
C2725 H2712 0.930 . S
C2725 C2724 1.376 . S
C2725 C2726 1.388 . S
C2726 H2713 0.930 . S
C2726 C2725 1.388 . S
C2726 C2727 1.390 . S
C2727 C2726 1.390 . S
C2727 C2728 1.394 . S
C2727 C2733 1.465 . S
C2728 C2723 1.399 . S
C2728 C2727 1.394 . S
C2728 C2729 1.516 . S
C2729 C2728 1.516 . S
C2729 C2730 1.502 . S
C2729 C2731 1.561 . S
C2729 C2732 1.526 . S
C2730 H2714 0.959 . S
C2730 H2715 0.959 . S
C2730 H2716 0.961 . S
C2730 C2729 1.502 . S
C2731 H2717 0.960 . S
C2731 H2718 0.961 . S
C2731 H2719 0.959 . S
C2731 C2729 1.561 . S
C2732 C2729 1.526 . S
C2732 C2733 1.396 . S
C2732 C2737 1.390 . S
C2733 C2727 1.465 . S
C2733 C2732 1.396 . S
C2733 C2734 1.399 . S
C2734 H2720 0.929 . S
C2734 C2733 1.399 . S
C2734 C2735 1.385 . S
C2735 H2721 0.931 . S
C2735 C2734 1.385 . S
C2735 C2736 1.389 . S
C2736 C2735 1.389 . S
C2736 C2737 1.387 . S
C2737 H2722 0.930 . S
C2737 C2732 1.390 . S
C2737 C2736 1.387 . S
H2738 C2750 0.930 . S
H2739 C2752 0.930 . S
H2740 C2753 0.930 . S
H2741 C2757 0.959 . S
H2742 C2757 0.959 . S
H2743 C2757 0.961 . S
H2744 C2758 0.960 . S
H2745 C2758 0.961 . S
H2746 C2758 0.959 . S
H2747 C2761 0.929 . S
H2748 C2762 0.931 . S
H2749 C2764 0.930 . S
C2750 H2738 0.930 . S
C2750 C2751 1.399 . S
C2750 C2755 1.399 . S
C2751 C2750 1.399 . S
C2751 C2752 1.376 . S
C2752 H2739 0.930 . S
C2752 C2751 1.376 . S
C2752 C2753 1.388 . S
C2753 H2740 0.930 . S
C2753 C2752 1.388 . S
C2753 C2754 1.390 . S
C2754 C2753 1.390 . S
C2754 C2755 1.394 . S
C2754 C2760 1.465 . S
C2755 C2750 1.399 . S
C2755 C2754 1.394 . S
C2755 C2756 1.516 . S
C2756 C2755 1.516 . S
C2756 C2757 1.502 . S
C2756 C2758 1.561 . S
C2756 C2759 1.526 . S
C2757 H2741 0.959 . S
C2757 H2742 0.959 . S
C2757 H2743 0.961 . S
C2757 C2756 1.502 . S
C2758 H2744 0.960 . S
C2758 H2745 0.961 . S
C2758 H2746 0.959 . S
C2758 C2756 1.561 . S
C2759 C2756 1.526 . S
C2759 C2760 1.396 . S
C2759 C2764 1.390 . S
C2760 C2754 1.465 . S
C2760 C2759 1.396 . S
C2760 C2761 1.399 . S
C2761 H2747 0.929 . S
C2761 C2760 1.399 . S
C2761 C2762 1.385 . S
C2762 H2748 0.931 . S
C2762 C2761 1.385 . S
C2762 C2763 1.389 . S
C2763 C2762 1.389 . S
C2763 C2764 1.387 . S
C2764 H2749 0.930 . S
C2764 C2759 1.390 . S
C2764 C2763 1.387 . S
H2765 C2777 0.930 . S
H2766 C2779 0.930 . S
H2767 C2780 0.930 . S
H2768 C2784 0.959 . S
H2769 C2784 0.959 . S
H2770 C2784 0.961 . S
H2771 C2785 0.960 . S
H2772 C2785 0.961 . S
H2773 C2785 0.959 . S
H2774 C2788 0.929 . S
H2775 C2789 0.931 . S
H2776 C2791 0.930 . S
C2777 H2765 0.930 . S
C2777 C2778 1.399 . S
C2777 C2782 1.399 . S
C2778 C2777 1.399 . S
C2778 C2779 1.376 . S
C2779 H2766 0.930 . S
C2779 C2778 1.376 . S
C2779 C2780 1.388 . S
C2780 H2767 0.930 . S
C2780 C2779 1.388 . S
C2780 C2781 1.390 . S
C2781 C2780 1.390 . S
C2781 C2782 1.394 . S
C2781 C2787 1.465 . S
C2782 C2777 1.399 . S
C2782 C2781 1.394 . S
C2782 C2783 1.516 . S
C2783 C2782 1.516 . S
C2783 C2784 1.502 . S
C2783 C2785 1.561 . S
C2783 C2786 1.526 . S
C2784 H2768 0.959 . S
C2784 H2769 0.959 . S
C2784 H2770 0.961 . S
C2784 C2783 1.502 . S
C2785 H2771 0.960 . S
C2785 H2772 0.961 . S
C2785 H2773 0.959 . S
C2785 C2783 1.561 . S
C2786 C2783 1.526 . S
C2786 C2787 1.396 . S
C2786 C2791 1.390 . S
C2787 C2781 1.465 . S
C2787 C2786 1.396 . S
C2787 C2788 1.399 . S
C2788 H2774 0.929 . S
C2788 C2787 1.399 . S
C2788 C2789 1.385 . S
C2789 H2775 0.931 . S
C2789 C2788 1.385 . S
C2789 C2790 1.389 . S
C2790 C2789 1.389 . S
C2790 C2791 1.387 . S
C2791 H2776 0.930 . S
C2791 C2786 1.390 . S
C2791 C2790 1.387 . S
H2792 C2804 0.930 . S
H2793 C2806 0.930 . S
H2794 C2807 0.930 . S
H2795 C2811 0.959 . S
H2796 C2811 0.959 1_655 S
H2797 C2811 0.961 . S
H2798 C2812 0.960 . S
H2799 C2812 0.961 . S
H2800 C2812 0.959 . S
H2801 C2815 0.929 . S
H2802 C2816 0.931 . S
H2803 C2818 0.930 . S
C2804 H2792 0.930 . S
C2804 C2805 1.399 . S
C2804 C2809 1.399 . S
C2805 C2804 1.399 . S
C2805 C2806 1.376 . S
C2806 H2793 0.930 . S
C2806 C2805 1.376 . S
C2806 C2807 1.388 . S
C2807 H2794 0.930 . S
C2807 C2806 1.388 . S
C2807 C2808 1.390 . S
C2808 C2807 1.390 . S
C2808 C2809 1.394 . S
C2808 C2814 1.465 1_455 S
C2809 C2804 1.399 . S
C2809 C2808 1.394 . S
C2809 C2810 1.516 1_455 S
C2810 C2809 1.516 1_655 S
C2810 C2811 1.502 1_655 S
C2810 C2812 1.561 . S
C2810 C2813 1.526 . S
C2811 H2795 0.959 . S
C2811 H2796 0.959 1_455 S
C2811 H2797 0.961 . S
C2811 C2810 1.502 1_455 S
C2812 H2798 0.960 . S
C2812 H2799 0.961 . S
C2812 H2800 0.959 . S
C2812 C2810 1.561 . S
C2813 C2810 1.526 . S
C2813 C2814 1.396 . S
C2813 C2818 1.390 . S
C2814 C2808 1.465 1_655 S
C2814 C2813 1.396 . S
C2814 C2815 1.399 . S
C2815 H2801 0.929 . S
C2815 C2814 1.399 . S
C2815 C2816 1.385 . S
C2816 H2802 0.931 . S
C2816 C2815 1.385 . S
C2816 C2817 1.389 . S
C2817 C2816 1.389 . S
C2817 C2818 1.387 . S
C2818 H2803 0.930 . S
C2818 C2813 1.390 . S
C2818 C2817 1.387 . S
H2819 C2831 0.930 . S
H2820 C2833 0.930 . S
H2821 C2834 0.930 . S
H2822 C2838 0.959 . S
H2823 C2838 0.959 . S
H2824 C2838 0.961 . S
H2825 C2839 0.960 . S
H2826 C2839 0.961 . S
H2827 C2839 0.959 . S
H2828 C2842 0.929 . S
H2829 C2843 0.931 . S
H2830 C2845 0.930 . S
C2831 H2819 0.930 . S
C2831 C2832 1.399 . S
C2831 C2836 1.399 . S
C2832 C2831 1.399 . S
C2832 C2833 1.376 . S
C2833 H2820 0.930 . S
C2833 C2832 1.376 . S
C2833 C2834 1.388 . S
C2834 H2821 0.930 . S
C2834 C2833 1.388 . S
C2834 C2835 1.390 . S
C2835 C2834 1.390 . S
C2835 C2836 1.394 . S
C2835 C2841 1.465 . S
C2836 C2831 1.399 . S
C2836 C2835 1.394 . S
C2836 C2837 1.516 . S
C2837 C2836 1.516 . S
C2837 C2838 1.502 . S
C2837 C2839 1.561 . S
C2837 C2840 1.526 . S
C2838 H2822 0.959 . S
C2838 H2823 0.959 . S
C2838 H2824 0.961 . S
C2838 C2837 1.502 . S
C2839 H2825 0.960 . S
C2839 H2826 0.961 . S
C2839 H2827 0.959 . S
C2839 C2837 1.561 . S
C2840 C2837 1.526 . S
C2840 C2841 1.396 . S
C2840 C2845 1.390 . S
C2841 C2835 1.465 . S
C2841 C2840 1.396 . S
C2841 C2842 1.399 . S
C2842 H2828 0.929 . S
C2842 C2841 1.399 . S
C2842 C2843 1.385 . S
C2843 H2829 0.931 . S
C2843 C2842 1.385 . S
C2843 C2844 1.389 . S
C2844 C2843 1.389 . S
C2844 C2845 1.387 . S
C2845 H2830 0.930 . S
C2845 C2840 1.390 . S
C2845 C2844 1.387 . S
H2846 C2858 0.930 . S
H2847 C2860 0.930 . S
H2848 C2861 0.930 . S
H2849 C2865 0.959 . S
H2850 C2865 0.959 . S
H2851 C2865 0.961 . S
H2852 C2866 0.960 . S
H2853 C2866 0.961 . S
H2854 C2866 0.959 . S
H2855 C2869 0.929 . S
H2856 C2870 0.931 . S
H2857 C2872 0.930 . S
C2858 H2846 0.930 . S
C2858 C2859 1.399 . S
C2858 C2863 1.399 . S
C2859 C2858 1.399 . S
C2859 C2860 1.376 . S
C2860 H2847 0.930 . S
C2860 C2859 1.376 . S
C2860 C2861 1.388 . S
C2861 H2848 0.930 . S
C2861 C2860 1.388 . S
C2861 C2862 1.390 . S
C2862 C2861 1.390 . S
C2862 C2863 1.394 . S
C2862 C2868 1.465 . S
C2863 C2858 1.399 . S
C2863 C2862 1.394 . S
C2863 C2864 1.516 . S
C2864 C2863 1.516 . S
C2864 C2865 1.502 . S
C2864 C2866 1.561 . S
C2864 C2867 1.526 . S
C2865 H2849 0.959 . S
C2865 H2850 0.959 . S
C2865 H2851 0.961 . S
C2865 C2864 1.502 . S
C2866 H2852 0.960 . S
C2866 H2853 0.961 . S
C2866 H2854 0.959 . S
C2866 C2864 1.561 . S
C2867 C2864 1.526 . S
C2867 C2868 1.396 . S
C2867 C2872 1.390 . S
C2868 C2862 1.465 . S
C2868 C2867 1.396 . S
C2868 C2869 1.399 . S
C2869 H2855 0.929 . S
C2869 C2868 1.399 . S
C2869 C2870 1.385 . S
C2870 H2856 0.931 . S
C2870 C2869 1.385 . S
C2870 C2871 1.389 . S
C2871 C2870 1.389 . S
C2871 C2872 1.387 . S
C2872 H2857 0.930 . S
C2872 C2867 1.390 . S
C2872 C2871 1.387 . S
H2873 C2885 0.930 . S
H2874 C2887 0.930 . S
H2875 C2888 0.930 . S
H2876 C2892 0.959 . S
H2877 C2892 0.959 . S
H2878 C2892 0.961 . S
H2879 C2893 0.960 . S
H2880 C2893 0.961 . S
H2881 C2893 0.959 . S
H2882 C2896 0.929 . S
H2883 C2897 0.931 . S
H2884 C2899 0.930 . S
C2885 H2873 0.930 . S
C2885 C2886 1.399 . S
C2885 C2890 1.399 . S
C2886 C2885 1.399 . S
C2886 C2887 1.376 . S
C2887 H2874 0.930 . S
C2887 C2886 1.376 . S
C2887 C2888 1.388 . S
C2888 H2875 0.930 . S
C2888 C2887 1.388 . S
C2888 C2889 1.390 . S
C2889 C2888 1.390 . S
C2889 C2890 1.394 . S
C2889 C2895 1.465 . S
C2890 C2885 1.399 . S
C2890 C2889 1.394 . S
C2890 C2891 1.516 . S
C2891 C2890 1.516 . S
C2891 C2892 1.502 . S
C2891 C2893 1.561 . S
C2891 C2894 1.526 . S
C2892 H2876 0.959 . S
C2892 H2877 0.959 . S
C2892 H2878 0.961 . S
C2892 C2891 1.502 . S
C2893 H2879 0.960 . S
C2893 H2880 0.961 . S
C2893 H2881 0.959 . S
C2893 C2891 1.561 . S
C2894 C2891 1.526 . S
C2894 C2895 1.396 . S
C2894 C2899 1.390 . S
C2895 C2889 1.465 . S
C2895 C2894 1.396 . S
C2895 C2896 1.399 . S
C2896 H2882 0.929 . S
C2896 C2895 1.399 . S
C2896 C2897 1.385 . S
C2897 H2883 0.931 . S
C2897 C2896 1.385 . S
C2897 C2898 1.389 . S
C2898 C2897 1.389 . S
C2898 C2899 1.387 . S
C2899 H2884 0.930 . S
C2899 C2894 1.390 . S
C2899 C2898 1.387 . S
H2900 C2912 0.930 . S
H2901 C2914 0.930 . S
H2902 C2915 0.930 . S
H2903 C2919 0.959 . S
H2904 C2919 0.959 . S
H2905 C2919 0.961 . S
H2906 C2920 0.960 . S
H2907 C2920 0.961 . S
H2908 C2920 0.959 . S
H2909 C2923 0.929 . S
H2910 C2924 0.931 . S
H2911 C2926 0.930 . S
C2912 H2900 0.930 . S
C2912 C2913 1.399 . S
C2912 C2917 1.390 1_455 S
C2913 C2912 1.399 . S
C2913 C2914 1.376 . S
C2914 H2901 0.930 . S
C2914 C2913 1.376 . S
C2914 C2915 1.388 1_455 S
C2915 H2902 0.930 . S
C2915 C2914 1.388 1_655 S
C2915 C2916 1.390 . S
C2916 C2915 1.390 . S
C2916 C2917 1.402 . S
C2916 C2922 1.465 . S
C2917 C2912 1.390 1_655 S
C2917 C2916 1.402 . S
C2917 C2918 1.518 . S
C2918 C2917 1.518 . S
C2918 C2919 1.502 1_655 S
C2918 C2920 1.561 . S
C2918 C2921 1.526 . S
C2919 H2903 0.959 . S
C2919 H2904 0.959 . S
C2919 H2905 0.961 . S
C2919 C2918 1.502 1_455 S
C2920 H2906 0.960 . S
C2920 H2907 0.961 . S
C2920 H2908 0.959 . S
C2920 C2918 1.561 . S
C2921 C2918 1.526 . S
C2921 C2922 1.396 . S
C2921 C2926 1.390 . S
C2922 C2916 1.465 . S
C2922 C2921 1.396 . S
C2922 C2923 1.399 . S
C2923 H2909 0.929 . S
C2923 C2922 1.399 . S
C2923 C2924 1.385 . S
C2924 H2910 0.931 . S
C2924 C2923 1.385 . S
C2924 C2925 1.389 . S
C2925 C2924 1.389 . S
C2925 C2926 1.387 . S
C2926 H2911 0.930 . S
C2926 C2921 1.390 . S
C2926 C2925 1.387 . S
H2927 C2939 0.930 . S
H2928 C2941 0.930 . S
H2929 C2942 0.930 . S
H2930 C2946 0.959 . S
H2931 C2946 0.959 . S
H2932 C2946 0.961 . S
H2933 C2947 0.960 . S
H2934 C2947 0.961 . S
H2935 C2947 0.959 . S
H2936 C2950 0.929 . S
H2937 C2951 0.931 . S
H2938 C2953 0.930 . S
C2939 H2927 0.930 . S
C2939 C2940 1.399 . S
C2939 C2944 1.399 . S
C2940 C2939 1.399 . S
C2940 C2941 1.376 . S
C2941 H2928 0.930 . S
C2941 C2940 1.376 . S
C2941 C2942 1.388 . S
C2942 H2929 0.930 . S
C2942 C2941 1.388 . S
C2942 C2943 1.390 . S
C2943 C2942 1.390 . S
C2943 C2944 1.394 . S
C2943 C2949 1.465 . S
C2944 C2939 1.399 . S
C2944 C2943 1.394 . S
C2944 C2945 1.516 . S
C2945 C2944 1.516 . S
C2945 C2946 1.502 . S
C2945 C2947 1.561 . S
C2945 C2948 1.526 . S
C2946 H2930 0.959 . S
C2946 H2931 0.959 . S
C2946 H2932 0.961 . S
C2946 C2945 1.502 . S
C2947 H2933 0.960 . S
C2947 H2934 0.961 . S
C2947 H2935 0.959 . S
C2947 C2945 1.561 . S
C2948 C2945 1.526 . S
C2948 C2949 1.396 . S
C2948 C2953 1.390 . S
C2949 C2943 1.465 . S
C2949 C2948 1.396 . S
C2949 C2950 1.399 . S
C2950 H2936 0.929 . S
C2950 C2949 1.399 . S
C2950 C2951 1.385 . S
C2951 H2937 0.931 . S
C2951 C2950 1.385 . S
C2951 C2952 1.389 . S
C2952 C2951 1.389 . S
C2952 C2953 1.387 . S
C2953 H2938 0.930 . S
C2953 C2948 1.390 . S
C2953 C2952 1.387 . S
H2954 C2966 0.930 . S
H2955 C2968 0.930 . S
H2956 C2969 0.930 . S
H2957 C2973 0.959 . S
H2958 C2973 0.959 . S
H2959 C2973 0.961 1_554 S
H2960 C2974 0.960 . S
H2961 C2974 0.961 . S
H2962 C2974 0.959 . S
H2963 C2977 0.929 . S
H2964 C2978 0.931 . S
H2965 C2980 0.930 . S
C2966 H2954 0.930 . S
C2966 C2967 1.399 . S
C2966 C2971 1.399 1_554 S
C2967 C2966 1.399 . S
C2967 C2968 1.376 . S
C2968 H2955 0.930 . S
C2968 C2967 1.376 . S
C2968 C2969 1.388 1_554 S
C2969 H2956 0.930 . S
C2969 C2968 1.388 1_556 S
C2969 C2970 1.390 . S
C2970 C2969 1.390 . S
C2970 C2971 1.394 . S
C2970 C2976 1.465 . S
C2971 C2966 1.399 1_556 S
C2971 C2970 1.394 . S
C2971 C2972 1.516 . S
C2972 C2971 1.516 . S
C2972 C2973 1.502 . S
C2972 C2974 1.561 . S
C2972 C2975 1.526 . S
C2973 H2957 0.959 . S
C2973 H2958 0.959 . S
C2973 H2959 0.961 1_556 S
C2973 C2972 1.502 . S
C2974 H2960 0.960 . S
C2974 H2961 0.961 . S
C2974 H2962 0.959 . S
C2974 C2972 1.561 . S
C2975 C2972 1.526 . S
C2975 C2976 1.396 . S
C2975 C2980 1.390 . S
C2976 C2970 1.465 . S
C2976 C2975 1.396 . S
C2976 C2977 1.399 . S
C2977 H2963 0.929 . S
C2977 C2976 1.399 . S
C2977 C2978 1.385 . S
C2978 H2964 0.931 . S
C2978 C2977 1.385 . S
C2978 C2979 1.389 . S
C2979 C2978 1.389 . S
C2979 C2980 1.387 . S
C2980 H2965 0.930 . S
C2980 C2975 1.390 . S
C2980 C2979 1.387 . S
H2981 C2993 0.930 . S
H2982 C2995 0.930 . S
H2983 C2996 0.930 . S
H2984 C3000 0.959 . S
H2985 C3000 0.959 . S
H2986 C3000 0.961 . S
H2987 C3001 0.960 . S
H2988 C3001 0.961 . S
H2989 C3001 0.959 . S
H2990 C3004 0.929 . S
H2991 C3005 0.931 . S
H2992 C3007 0.930 . S
C2993 H2981 0.930 . S
C2993 C2994 1.399 . S
C2993 C2998 1.399 . S
C2994 C2993 1.399 . S
C2994 C2995 1.376 . S
C2995 H2982 0.930 . S
C2995 C2994 1.376 . S
C2995 C2996 1.388 . S
C2996 H2983 0.930 . S
C2996 C2995 1.388 . S
C2996 C2997 1.390 . S
C2997 C2996 1.390 . S
C2997 C2998 1.394 . S
C2997 C3003 1.465 . S
C2998 C2993 1.399 . S
C2998 C2997 1.394 . S
C2998 C2999 1.516 . S
C2999 C2998 1.516 . S
C2999 C3000 1.502 . S
C2999 C3001 1.561 . S
C2999 C3002 1.526 . S
C3000 H2984 0.959 . S
C3000 H2985 0.959 . S
C3000 H2986 0.961 . S
C3000 C2999 1.502 . S
C3001 H2987 0.960 . S
C3001 H2988 0.961 . S
C3001 H2989 0.959 . S
C3001 C2999 1.561 . S
C3002 C2999 1.526 . S
C3002 C3003 1.396 . S
C3002 C3007 1.390 . S
C3003 C2997 1.465 . S
C3003 C3002 1.396 . S
C3003 C3004 1.399 . S
C3004 H2990 0.929 . S
C3004 C3003 1.399 . S
C3004 C3005 1.385 . S
C3005 H2991 0.931 . S
C3005 C3004 1.385 . S
C3005 C3006 1.389 . S
C3006 C3005 1.389 . S
C3006 C3007 1.387 . S
C3007 H2992 0.930 . S
C3007 C3002 1.390 . S
C3007 C3006 1.387 . S
H3008 C3020 0.930 . S
H3009 C3022 0.930 . S
H3010 C3023 0.930 . S
H3011 C3027 0.959 . S
H3012 C3027 0.959 . S
H3013 C3027 0.961 . S
H3014 C3028 0.960 . S
H3015 C3028 0.961 . S
H3016 C3028 0.959 . S
H3017 C3031 0.929 . S
H3018 C3032 0.931 . S
H3019 C3034 0.930 . S
C3020 H3008 0.930 . S
C3020 C3021 1.399 . S
C3020 C3025 1.399 . S
C3021 C3020 1.399 . S
C3021 C3022 1.376 . S
C3022 H3009 0.930 . S
C3022 C3021 1.376 . S
C3022 C3023 1.388 . S
C3023 H3010 0.930 . S
C3023 C3022 1.388 . S
C3023 C3024 1.390 . S
C3024 C3023 1.390 . S
C3024 C3025 1.394 . S
C3024 C3030 1.465 . S
C3025 C3020 1.399 . S
C3025 C3024 1.394 . S
C3025 C3026 1.516 . S
C3026 C3025 1.516 . S
C3026 C3027 1.502 . S
C3026 C3028 1.561 . S
C3026 C3029 1.526 . S
C3027 H3011 0.959 . S
C3027 H3012 0.959 . S
C3027 H3013 0.961 . S
C3027 C3026 1.502 . S
C3028 H3014 0.960 . S
C3028 H3015 0.961 . S
C3028 H3016 0.959 . S
C3028 C3026 1.561 . S
C3029 C3026 1.526 . S
C3029 C3030 1.396 . S
C3029 C3034 1.390 . S
C3030 C3024 1.465 . S
C3030 C3029 1.396 . S
C3030 C3031 1.399 . S
C3031 H3017 0.929 . S
C3031 C3030 1.399 . S
C3031 C3032 1.385 . S
C3032 H3018 0.931 . S
C3032 C3031 1.385 . S
C3032 C3033 1.389 . S
C3033 C3032 1.389 . S
C3033 C3034 1.387 . S
C3034 H3019 0.930 . S
C3034 C3029 1.390 . S
C3034 C3033 1.387 . S
H3035 C3047 0.930 . S
H3036 C3049 0.930 . S
H3037 C3050 0.930 . S
H3038 C3054 0.959 . S
H3039 C3054 0.959 . S
H3040 C3054 0.961 . S
H3041 C3055 0.960 . S
H3042 C3055 0.961 . S
H3043 C3055 0.959 . S
H3044 C3058 0.929 . S
H3045 C3059 0.931 . S
H3046 C3061 0.930 . S
C3047 H3035 0.930 . S
C3047 C3048 1.399 . S
C3047 C3052 1.399 . S
C3048 C3047 1.399 . S
C3048 C3049 1.376 . S
C3049 H3036 0.930 . S
C3049 C3048 1.376 . S
C3049 C3050 1.388 . S
C3050 H3037 0.930 . S
C3050 C3049 1.388 . S
C3050 C3051 1.390 . S
C3051 C3050 1.390 . S
C3051 C3052 1.394 . S
C3051 C3057 1.465 . S
C3052 C3047 1.399 . S
C3052 C3051 1.394 . S
C3052 C3053 1.516 . S
C3053 C3052 1.516 . S
C3053 C3054 1.502 . S
C3053 C3055 1.561 . S
C3053 C3056 1.526 . S
C3054 H3038 0.959 . S
C3054 H3039 0.959 . S
C3054 H3040 0.961 . S
C3054 C3053 1.502 . S
C3055 H3041 0.960 . S
C3055 H3042 0.961 . S
C3055 H3043 0.959 . S
C3055 C3053 1.561 . S
C3056 C3053 1.526 . S
C3056 C3057 1.396 . S
C3056 C3061 1.390 . S
C3057 C3051 1.465 . S
C3057 C3056 1.396 . S
C3057 C3058 1.399 . S
C3058 H3044 0.929 . S
C3058 C3057 1.399 . S
C3058 C3059 1.385 . S
C3059 H3045 0.931 . S
C3059 C3058 1.385 . S
C3059 C3060 1.389 . S
C3060 C3059 1.389 . S
C3060 C3061 1.387 . S
C3061 H3046 0.930 . S
C3061 C3056 1.390 . S
C3061 C3060 1.387 . S
H3062 C3074 0.930 . S
H3063 C3076 0.928 1_554 S
H3064 C3077 0.930 . S
H3065 C3081 0.959 . S
H3066 C3081 0.959 . S
H3067 C3081 0.961 1_554 S
H3068 C3082 0.957 1_655 S
H3069 C3082 0.967 . S
H3070 C3082 0.950 1_655 S
H3071 C3085 0.929 1_655 S
H3072 C3086 0.931 . S
H3073 C3088 0.930 . S
C3074 H3062 0.930 . S
C3074 C3075 1.399 . S
C3074 C3079 1.399 1_554 S
C3075 C3074 1.399 . S
C3075 C3076 1.362 1_554 S
C3076 H3063 0.928 1_556 S
C3076 C3075 1.362 1_556 S
C3076 C3077 1.406 . S
C3077 H3064 0.930 . S
C3077 C3076 1.406 . S
C3077 C3078 1.390 . S
C3078 C3077 1.390 . S
C3078 C3079 1.394 . S
C3078 C3084 1.465 1_655 S
C3079 C3074 1.399 1_556 S
C3079 C3078 1.394 . S
C3079 C3080 1.516 1_655 S
C3080 C3079 1.516 1_455 S
C3080 C3081 1.502 . S
C3080 C3082 1.566 . S
C3080 C3083 1.526 . S
C3081 H3065 0.959 . S
C3081 H3066 0.959 . S
C3081 H3067 0.961 1_556 S
C3081 C3080 1.502 . S
C3082 H3068 0.957 1_455 S
C3082 H3069 0.967 . S
C3082 H3070 0.950 1_455 S
C3082 C3080 1.566 . S
C3083 C3080 1.526 . S
C3083 C3084 1.396 . S
C3083 C3088 1.390 . S
C3084 C3078 1.465 1_455 S
C3084 C3083 1.396 . S
C3084 C3085 1.399 . S
C3085 H3071 0.929 1_455 S
C3085 C3084 1.399 . S
C3085 C3086 1.385 . S
C3086 H3072 0.931 . S
C3086 C3085 1.385 . S
C3086 C3087 1.389 . S
C3087 C3086 1.389 . S
C3087 C3088 1.387 . S
C3088 H3073 0.930 . S
C3088 C3083 1.390 . S
C3088 C3087 1.387 . S
H3089 C3101 0.930 . S
H3090 C3103 0.930 . S
H3091 C3104 0.930 . S
H3092 C3108 0.959 . S
H3093 C3108 0.959 . S
H3094 C3108 0.961 . S
H3095 C3109 0.960 . S
H3096 C3109 0.961 . S
H3097 C3109 0.959 . S
H3098 C3112 0.929 . S
H3099 C3113 0.931 . S
H3100 C3115 0.930 . S
C3101 H3089 0.930 . S
C3101 C3102 1.399 1_554 S
C3101 C3106 1.399 . S
C3102 C3101 1.399 1_556 S
C3102 C3103 1.376 . S
C3103 H3090 0.930 . S
C3103 C3102 1.376 . S
C3103 C3104 1.388 1_556 S
C3104 H3091 0.930 . S
C3104 C3103 1.388 1_554 S
C3104 C3105 1.390 . S
C3105 C3104 1.390 . S
C3105 C3106 1.394 . S
C3105 C3111 1.465 . S
C3106 C3101 1.399 . S
C3106 C3105 1.394 . S
C3106 C3107 1.516 . S
C3107 C3106 1.516 . S
C3107 C3108 1.502 . S
C3107 C3109 1.561 . S
C3107 C3110 1.526 . S
C3108 H3092 0.959 . S
C3108 H3093 0.959 . S
C3108 H3094 0.961 . S
C3108 C3107 1.502 . S
C3109 H3095 0.960 . S
C3109 H3096 0.961 . S
C3109 H3097 0.959 . S
C3109 C3107 1.561 . S
C3110 C3107 1.526 . S
C3110 C3111 1.396 . S
C3110 C3115 1.390 . S
C3111 C3105 1.465 . S
C3111 C3110 1.396 . S
C3111 C3112 1.399 . S
C3112 H3098 0.929 . S
C3112 C3111 1.399 . S
C3112 C3113 1.385 . S
C3113 H3099 0.931 . S
C3113 C3112 1.385 . S
C3113 C3114 1.389 . S
C3114 C3113 1.389 . S
C3114 C3115 1.387 . S
C3115 H3100 0.930 . S
C3115 C3110 1.390 . S
C3115 C3114 1.387 . S
H3116 C3128 0.930 . S
H3117 C3130 0.930 . S
H3118 C3131 0.930 . S
H3119 C3135 0.959 . S
H3120 C3135 0.959 . S
H3121 C3135 0.961 . S
H3122 C3136 0.960 . S
H3123 C3136 0.961 . S
H3124 C3136 0.959 . S
H3125 C3139 0.929 . S
H3126 C3140 0.931 . S
H3127 C3142 0.930 . S
C3128 H3116 0.930 . S
C3128 C3129 1.399 . S
C3128 C3133 1.399 . S
C3129 C3128 1.399 . S
C3129 C3130 1.376 . S
C3130 H3117 0.930 . S
C3130 C3129 1.376 . S
C3130 C3131 1.388 . S
C3131 H3118 0.930 . S
C3131 C3130 1.388 . S
C3131 C3132 1.390 . S
C3132 C3131 1.390 . S
C3132 C3133 1.394 . S
C3132 C3138 1.465 . S
C3133 C3128 1.399 . S
C3133 C3132 1.394 . S
C3133 C3134 1.516 . S
C3134 C3133 1.516 . S
C3134 C3135 1.502 . S
C3134 C3136 1.561 . S
C3134 C3137 1.526 . S
C3135 H3119 0.959 . S
C3135 H3120 0.959 . S
C3135 H3121 0.961 . S
C3135 C3134 1.502 . S
C3136 H3122 0.960 . S
C3136 H3123 0.961 . S
C3136 H3124 0.959 . S
C3136 C3134 1.561 . S
C3137 C3134 1.526 . S
C3137 C3138 1.396 . S
C3137 C3142 1.390 . S
C3138 C3132 1.465 . S
C3138 C3137 1.396 . S
C3138 C3139 1.399 . S
C3139 H3125 0.929 . S
C3139 C3138 1.399 . S
C3139 C3140 1.385 . S
C3140 H3126 0.931 . S
C3140 C3139 1.385 . S
C3140 C3141 1.389 . S
C3141 C3140 1.389 . S
C3141 C3142 1.387 . S
C3142 H3127 0.930 . S
C3142 C3137 1.390 . S
C3142 C3141 1.387 . S
H3143 C3155 0.930 . S
H3144 C3157 0.930 . S
H3145 C3158 0.930 . S
H3146 C3162 0.959 . S
H3147 C3162 0.959 . S
H3148 C3162 0.961 . S
H3149 C3163 0.960 . S
H3150 C3163 0.961 . S
H3151 C3163 0.959 . S
H3152 C3166 0.929 . S
H3153 C3167 0.931 . S
H3154 C3169 0.930 . S
C3155 H3143 0.930 . S
C3155 C3156 1.399 . S
C3155 C3160 1.399 . S
C3156 C3155 1.399 . S
C3156 C3157 1.376 . S
C3157 H3144 0.930 . S
C3157 C3156 1.376 . S
C3157 C3158 1.388 . S
C3158 H3145 0.930 . S
C3158 C3157 1.388 . S
C3158 C3159 1.390 . S
C3159 C3158 1.390 . S
C3159 C3160 1.394 . S
C3159 C3165 1.465 . S
C3160 C3155 1.399 . S
C3160 C3159 1.394 . S
C3160 C3161 1.516 . S
C3161 C3160 1.516 . S
C3161 C3162 1.502 . S
C3161 C3163 1.561 . S
C3161 C3164 1.526 . S
C3162 H3146 0.959 . S
C3162 H3147 0.959 . S
C3162 H3148 0.961 . S
C3162 C3161 1.502 . S
C3163 H3149 0.960 . S
C3163 H3150 0.961 . S
C3163 H3151 0.959 . S
C3163 C3161 1.561 . S
C3164 C3161 1.526 . S
C3164 C3165 1.396 . S
C3164 C3169 1.390 . S
C3165 C3159 1.465 . S
C3165 C3164 1.396 . S
C3165 C3166 1.399 . S
C3166 H3152 0.929 . S
C3166 C3165 1.399 . S
C3166 C3167 1.385 . S
C3167 H3153 0.931 . S
C3167 C3166 1.385 . S
C3167 C3168 1.389 . S
C3168 C3167 1.389 . S
C3168 C3169 1.387 . S
C3169 H3154 0.930 . S
C3169 C3164 1.390 . S
C3169 C3168 1.387 . S
H3170 C3182 0.930 . S
H3171 C3184 0.930 . S
H3172 C3185 0.930 . S
H3173 C3189 0.959 . S
H3174 C3189 0.959 . S
H3175 C3189 0.961 . S
H3176 C3190 0.960 . S
H3177 C3190 0.961 . S
H3178 C3190 0.959 . S
H3179 C3193 0.929 . S
H3180 C3194 0.931 . S
H3181 C3196 0.930 . S
C3182 H3170 0.930 . S
C3182 C3183 1.399 1_655 S
C3182 C3187 1.399 . S
C3183 C3182 1.399 1_455 S
C3183 C3184 1.376 . S
C3184 H3171 0.930 . S
C3184 C3183 1.376 . S
C3184 C3185 1.388 . S
C3185 H3172 0.930 . S
C3185 C3184 1.388 . S
C3185 C3186 1.390 1_455 S
C3186 C3185 1.390 1_655 S
C3186 C3187 1.394 . S
C3186 C3192 1.465 . S
C3187 C3182 1.399 . S
C3187 C3186 1.394 . S
C3187 C3188 1.516 . S
C3188 C3187 1.516 . S
C3188 C3189 1.502 . S
C3188 C3190 1.561 . S
C3188 C3191 1.526 . S
C3189 H3173 0.959 . S
C3189 H3174 0.959 . S
C3189 H3175 0.961 . S
C3189 C3188 1.502 . S
C3190 H3176 0.960 . S
C3190 H3177 0.961 . S
C3190 H3178 0.959 . S
C3190 C3188 1.561 . S
C3191 C3188 1.526 . S
C3191 C3192 1.396 . S
C3191 C3196 1.390 . S
C3192 C3186 1.465 . S
C3192 C3191 1.396 . S
C3192 C3193 1.399 . S
C3193 H3179 0.929 . S
C3193 C3192 1.399 . S
C3193 C3194 1.385 . S
C3194 H3180 0.931 . S
C3194 C3193 1.385 . S
C3194 C3195 1.389 . S
C3195 C3194 1.389 . S
C3195 C3196 1.387 . S
C3196 H3181 0.930 . S
C3196 C3191 1.390 . S
C3196 C3195 1.387 . S
H3197 C3209 0.930 . S
H3198 C3211 0.930 . S
H3199 C3212 0.930 . S
H3200 C3216 0.959 . S
H3201 C3216 0.959 . S
H3202 C3216 0.961 . S
H3203 C3217 0.960 . S
H3204 C3217 0.961 . S
H3205 C3217 0.959 . S
H3206 C3220 0.929 . S
H3207 C3221 0.931 . S
H3208 C3223 0.930 . S
C3209 H3197 0.930 . S
C3209 C3210 1.399 . S
C3209 C3214 1.399 . S
C3210 C3209 1.399 . S
C3210 C3211 1.376 . S
C3211 H3198 0.930 . S
C3211 C3210 1.376 . S
C3211 C3212 1.388 . S
C3212 H3199 0.930 . S
C3212 C3211 1.388 . S
C3212 C3213 1.390 . S
C3213 C3212 1.390 . S
C3213 C3214 1.394 . S
C3213 C3219 1.465 . S
C3214 C3209 1.399 . S
C3214 C3213 1.394 . S
C3214 C3215 1.516 . S
C3215 C3214 1.516 . S
C3215 C3216 1.502 . S
C3215 C3217 1.561 . S
C3215 C3218 1.526 . S
C3216 H3200 0.959 . S
C3216 H3201 0.959 . S
C3216 H3202 0.961 . S
C3216 C3215 1.502 . S
C3217 H3203 0.960 . S
C3217 H3204 0.961 . S
C3217 H3205 0.959 . S
C3217 C3215 1.561 . S
C3218 C3215 1.526 . S
C3218 C3219 1.396 . S
C3218 C3223 1.390 . S
C3219 C3213 1.465 . S
C3219 C3218 1.396 . S
C3219 C3220 1.399 . S
C3220 H3206 0.929 . S
C3220 C3219 1.399 . S
C3220 C3221 1.385 . S
C3221 H3207 0.931 . S
C3221 C3220 1.385 . S
C3221 C3222 1.389 . S
C3222 C3221 1.389 . S
C3222 C3223 1.387 . S
C3223 H3208 0.930 . S
C3223 C3218 1.390 . S
C3223 C3222 1.387 . S
H3224 C3236 0.930 . S
H3225 C3238 0.930 . S
H3226 C3239 0.930 . S
H3227 C3243 0.959 . S
H3228 C3243 0.959 . S
H3229 C3243 0.961 . S
H3230 C3244 0.960 . S
H3231 C3244 0.961 . S
H3232 C3244 0.959 . S
H3233 C3247 0.929 . S
H3234 C3248 0.931 . S
H3235 C3250 0.930 . S
C3236 H3224 0.930 . S
C3236 C3237 1.399 . S
C3236 C3241 1.399 . S
C3237 C3236 1.399 . S
C3237 C3238 1.376 . S
C3238 H3225 0.930 . S
C3238 C3237 1.376 . S
C3238 C3239 1.388 . S
C3239 H3226 0.930 . S
C3239 C3238 1.388 . S
C3239 C3240 1.390 . S
C3240 C3239 1.390 . S
C3240 C3241 1.394 . S
C3240 C3246 1.465 . S
C3241 C3236 1.399 . S
C3241 C3240 1.394 . S
C3241 C3242 1.516 . S
C3242 C3241 1.516 . S
C3242 C3243 1.502 . S
C3242 C3244 1.561 . S
C3242 C3245 1.526 . S
C3243 H3227 0.959 . S
C3243 H3228 0.959 . S
C3243 H3229 0.961 . S
C3243 C3242 1.502 . S
C3244 H3230 0.960 . S
C3244 H3231 0.961 . S
C3244 H3232 0.959 . S
C3244 C3242 1.561 . S
C3245 C3242 1.526 . S
C3245 C3246 1.396 . S
C3245 C3250 1.390 . S
C3246 C3240 1.465 . S
C3246 C3245 1.396 . S
C3246 C3247 1.399 . S
C3247 H3233 0.929 . S
C3247 C3246 1.399 . S
C3247 C3248 1.385 . S
C3248 H3234 0.931 . S
C3248 C3247 1.385 . S
C3248 C3249 1.389 . S
C3249 C3248 1.389 . S
C3249 C3250 1.387 . S
C3250 H3235 0.930 . S
C3250 C3245 1.390 . S
C3250 C3249 1.387 . S
H3251 C3263 0.930 . S
H3252 C3265 0.930 . S
H3253 C3266 0.930 . S
H3254 C3270 0.959 . S
H3255 C3270 0.959 . S
H3256 C3270 0.961 . S
H3257 C3271 0.960 . S
H3258 C3271 0.961 . S
H3259 C3271 0.959 . S
H3260 C3274 0.929 . S
H3261 C3275 0.931 . S
H3262 C3277 0.930 . S
C3263 H3251 0.930 . S
C3263 C3264 1.399 . S
C3263 C3268 1.399 . S
C3264 C3263 1.399 . S
C3264 C3265 1.376 . S
C3265 H3252 0.930 . S
C3265 C3264 1.376 . S
C3265 C3266 1.388 . S
C3266 H3253 0.930 . S
C3266 C3265 1.388 . S
C3266 C3267 1.390 . S
C3267 C3266 1.390 . S
C3267 C3268 1.394 . S
C3267 C3273 1.465 . S
C3268 C3263 1.399 . S
C3268 C3267 1.394 . S
C3268 C3269 1.516 . S
C3269 C3268 1.516 . S
C3269 C3270 1.502 . S
C3269 C3271 1.561 . S
C3269 C3272 1.526 . S
C3270 H3254 0.959 . S
C3270 H3255 0.959 . S
C3270 H3256 0.961 . S
C3270 C3269 1.502 . S
C3271 H3257 0.960 . S
C3271 H3258 0.961 . S
C3271 H3259 0.959 . S
C3271 C3269 1.561 . S
C3272 C3269 1.526 . S
C3272 C3273 1.396 . S
C3272 C3277 1.390 . S
C3273 C3267 1.465 . S
C3273 C3272 1.396 . S
C3273 C3274 1.399 . S
C3274 H3260 0.929 . S
C3274 C3273 1.399 . S
C3274 C3275 1.385 . S
C3275 H3261 0.931 . S
C3275 C3274 1.385 . S
C3275 C3276 1.389 . S
C3276 C3275 1.389 . S
C3276 C3277 1.387 . S
C3277 H3262 0.930 . S
C3277 C3272 1.390 . S
C3277 C3276 1.387 . S
H3278 C3290 0.930 . S
H3279 C3292 0.930 . S
H3280 C3293 0.930 . S
H3281 C3297 0.959 . S
H3282 C3297 0.959 . S
H3283 C3297 0.961 . S
H3284 C3298 0.957 1_455 S
H3285 C3298 0.961 . S
H3286 C3298 0.959 1_455 S
H3287 C3301 0.929 1_455 S
H3288 C3302 0.931 . S
H3289 C3304 0.930 . S
C3290 H3278 0.930 . S
C3290 C3291 1.399 . S
C3290 C3295 1.399 . S
C3291 C3290 1.399 . S
C3291 C3292 1.376 . S
C3292 H3279 0.930 . S
C3292 C3291 1.376 . S
C3292 C3293 1.388 . S
C3293 H3280 0.930 . S
C3293 C3292 1.388 . S
C3293 C3294 1.390 . S
C3294 C3293 1.390 . S
C3294 C3295 1.394 . S
C3294 C3300 1.465 1_455 S
C3295 C3290 1.399 . S
C3295 C3294 1.394 . S
C3295 C3296 1.516 1_455 S
C3296 C3295 1.516 1_655 S
C3296 C3297 1.502 . S
C3296 C3298 1.561 . S
C3296 C3299 1.526 . S
C3297 H3281 0.959 . S
C3297 H3282 0.959 . S
C3297 H3283 0.961 . S
C3297 C3296 1.502 . S
C3298 H3284 0.957 1_655 S
C3298 H3285 0.961 . S
C3298 H3286 0.959 1_655 S
C3298 C3296 1.561 . S
C3299 C3296 1.526 . S
C3299 C3300 1.396 . S
C3299 C3304 1.390 . S
C3300 C3294 1.465 1_655 S
C3300 C3299 1.396 . S
C3300 C3301 1.399 . S
C3301 H3287 0.929 1_655 S
C3301 C3300 1.399 . S
C3301 C3302 1.385 . S
C3302 H3288 0.931 . S
C3302 C3301 1.385 . S
C3302 C3303 1.389 . S
C3303 C3302 1.389 . S
C3303 C3304 1.387 . S
C3304 H3289 0.930 . S
C3304 C3299 1.390 . S
C3304 C3303 1.387 . S
H3305 C3317 0.930 . S
H3306 C3319 0.930 . S
H3307 C3320 0.930 . S
H3308 C3324 0.959 . S
H3309 C3324 0.959 . S
H3310 C3324 0.961 . S
H3311 C3325 0.960 . S
H3312 C3325 0.961 . S
H3313 C3325 0.959 . S
H3314 C3328 0.929 . S
H3315 C3329 0.931 . S
H3316 C3331 0.930 . S
C3317 H3305 0.930 . S
C3317 C3318 1.399 . S
C3317 C3322 1.399 . S
C3318 C3317 1.399 . S
C3318 C3319 1.376 . S
C3319 H3306 0.930 . S
C3319 C3318 1.376 . S
C3319 C3320 1.388 . S
C3320 H3307 0.930 . S
C3320 C3319 1.388 . S
C3320 C3321 1.390 . S
C3321 C3320 1.390 . S
C3321 C3322 1.394 . S
C3321 C3327 1.465 . S
C3322 C3317 1.399 . S
C3322 C3321 1.394 . S
C3322 C3323 1.516 . S
C3323 C3322 1.516 . S
C3323 C3324 1.502 . S
C3323 C3325 1.561 . S
C3323 C3326 1.526 . S
C3324 H3308 0.959 . S
C3324 H3309 0.959 . S
C3324 H3310 0.961 . S
C3324 C3323 1.502 . S
C3325 H3311 0.960 . S
C3325 H3312 0.961 . S
C3325 H3313 0.959 . S
C3325 C3323 1.561 . S
C3326 C3323 1.526 . S
C3326 C3327 1.396 . S
C3326 C3331 1.390 . S
C3327 C3321 1.465 . S
C3327 C3326 1.396 . S
C3327 C3328 1.399 . S
C3328 H3314 0.929 . S
C3328 C3327 1.399 . S
C3328 C3329 1.385 . S
C3329 H3315 0.931 . S
C3329 C3328 1.385 . S
C3329 C3330 1.389 . S
C3330 C3329 1.389 . S
C3330 C3331 1.387 . S
C3331 H3316 0.930 . S
C3331 C3326 1.390 . S
C3331 C3330 1.387 . S
H3332 C3344 0.930 . S
H3333 C3346 0.930 . S
H3334 C3347 0.930 . S
H3335 C3351 0.959 . S
H3336 C3351 0.959 . S
H3337 C3351 0.961 . S
H3338 C3352 0.960 . S
H3339 C3352 0.961 . S
H3340 C3352 0.959 . S
H3341 C3355 0.929 . S
H3342 C3356 0.931 1_554 S
H3343 C3358 0.930 1_554 S
C3344 H3332 0.930 . S
C3344 C3345 1.399 . S
C3344 C3349 1.399 . S
C3345 C3344 1.399 . S
C3345 C3346 1.376 . S
C3346 H3333 0.930 . S
C3346 C3345 1.376 . S
C3346 C3347 1.388 . S
C3347 H3334 0.930 . S
C3347 C3346 1.388 . S
C3347 C3348 1.390 . S
C3348 C3347 1.390 . S
C3348 C3349 1.394 . S
C3348 C3354 1.465 . S
C3349 C3344 1.399 . S
C3349 C3348 1.394 . S
C3349 C3350 1.516 . S
C3350 C3349 1.516 . S
C3350 C3351 1.502 . S
C3350 C3352 1.561 . S
C3350 C3353 1.526 . S
C3351 H3335 0.959 . S
C3351 H3336 0.959 . S
C3351 H3337 0.961 . S
C3351 C3350 1.502 . S
C3352 H3338 0.960 . S
C3352 H3339 0.961 . S
C3352 H3340 0.959 . S
C3352 C3350 1.561 . S
C3353 C3350 1.526 . S
C3353 C3354 1.396 . S
C3353 C3358 1.390 . S
C3354 C3348 1.465 . S
C3354 C3353 1.396 . S
C3354 C3355 1.399 . S
C3355 H3341 0.929 . S
C3355 C3354 1.399 . S
C3355 C3356 1.385 . S
C3356 H3342 0.931 1_556 S
C3356 C3355 1.385 . S
C3356 C3357 1.389 1_556 S
C3357 C3356 1.389 1_554 S
C3357 C3358 1.387 1_554 S
C3358 H3343 0.930 1_556 S
C3358 C3353 1.390 . S
C3358 C3357 1.387 1_556 S
H3359 C3371 0.930 . S
H3360 C3373 0.930 . S
H3361 C3374 0.930 . S
H3362 C3378 0.959 . S
H3363 C3378 0.959 . S
H3364 C3378 0.961 . S
H3365 C3379 0.960 . S
H3366 C3379 0.961 . S
H3367 C3379 0.959 . S
H3368 C3382 0.929 . S
H3369 C3383 0.931 . S
H3370 C3385 0.930 . S
C3371 H3359 0.930 . S
C3371 C3372 1.399 . S
C3371 C3376 1.399 . S
C3372 C3371 1.399 . S
C3372 C3373 1.376 . S
C3373 H3360 0.930 . S
C3373 C3372 1.376 . S
C3373 C3374 1.388 . S
C3374 H3361 0.930 . S
C3374 C3373 1.388 . S
C3374 C3375 1.390 . S
C3375 C3374 1.390 . S
C3375 C3376 1.394 . S
C3375 C3381 1.465 . S
C3376 C3371 1.399 . S
C3376 C3375 1.394 . S
C3376 C3377 1.516 . S
C3377 C3376 1.516 . S
C3377 C3378 1.502 . S
C3377 C3379 1.561 . S
C3377 C3380 1.526 . S
C3378 H3362 0.959 . S
C3378 H3363 0.959 . S
C3378 H3364 0.961 . S
C3378 C3377 1.502 . S
C3379 H3365 0.960 . S
C3379 H3366 0.961 . S
C3379 H3367 0.959 . S
C3379 C3377 1.561 . S
C3380 C3377 1.526 . S
C3380 C3381 1.396 . S
C3380 C3385 1.390 . S
C3381 C3375 1.465 . S
C3381 C3380 1.396 . S
C3381 C3382 1.399 . S
C3382 H3368 0.929 . S
C3382 C3381 1.399 . S
C3382 C3383 1.385 . S
C3383 H3369 0.931 . S
C3383 C3382 1.385 . S
C3383 C3384 1.389 . S
C3384 C3383 1.389 . S
C3384 C3385 1.387 . S
C3385 H3370 0.930 . S
C3385 C3380 1.390 . S
C3385 C3384 1.387 . S
H3386 C3398 0.930 . S
H3387 C3400 0.930 . S
H3388 C3401 0.930 . S
H3389 C3405 0.959 . S
H3390 C3405 0.959 . S
H3391 C3405 0.961 . S
H3392 C3406 0.960 . S
H3393 C3406 0.961 . S
H3394 C3406 0.959 . S
H3395 C3409 0.929 . S
H3396 C3410 0.931 . S
H3397 C3412 0.930 . S
C3398 H3386 0.930 . S
C3398 C3399 1.399 . S
C3398 C3403 1.399 . S
C3399 C3398 1.399 . S
C3399 C3400 1.376 . S
C3400 H3387 0.930 . S
C3400 C3399 1.376 . S
C3400 C3401 1.388 . S
C3401 H3388 0.930 . S
C3401 C3400 1.388 . S
C3401 C3402 1.390 . S
C3402 C3401 1.390 . S
C3402 C3403 1.394 . S
C3402 C3408 1.465 . S
C3403 C3398 1.399 . S
C3403 C3402 1.394 . S
C3403 C3404 1.516 . S
C3404 C3403 1.516 . S
C3404 C3405 1.502 . S
C3404 C3406 1.561 . S
C3404 C3407 1.526 . S
C3405 H3389 0.959 . S
C3405 H3390 0.959 . S
C3405 H3391 0.961 . S
C3405 C3404 1.502 . S
C3406 H3392 0.960 . S
C3406 H3393 0.961 . S
C3406 H3394 0.959 . S
C3406 C3404 1.561 . S
C3407 C3404 1.526 . S
C3407 C3408 1.396 . S
C3407 C3412 1.390 . S
C3408 C3402 1.465 . S
C3408 C3407 1.396 . S
C3408 C3409 1.399 1_455 S
C3409 H3395 0.929 . S
C3409 C3408 1.399 1_655 S
C3409 C3410 1.385 . S
C3410 H3396 0.931 . S
C3410 C3409 1.385 . S
C3410 C3411 1.389 . S
C3411 C3410 1.389 . S
C3411 C3412 1.387 1_655 S
C3412 H3397 0.930 . S
C3412 C3407 1.390 . S
C3412 C3411 1.387 1_455 S
H3413 C3425 0.930 . S
H3414 C3427 0.930 1_556 S
H3415 C3428 0.930 . S
H3416 C3432 0.959 . S
H3417 C3432 0.959 . S
H3418 C3432 0.961 . S
H3419 C3433 0.960 1_556 S
H3420 C3433 0.961 . S
H3421 C3433 0.959 . S
H3422 C3436 0.929 . S
H3423 C3437 0.931 . S
H3424 C3439 0.930 . S
C3425 H3413 0.930 . S
C3425 C3426 1.399 . S
C3425 C3430 1.399 1_556 S
C3426 C3425 1.399 . S
C3426 C3427 1.376 1_556 S
C3427 H3414 0.930 1_554 S
C3427 C3426 1.376 1_554 S
C3427 C3428 1.388 . S
C3428 H3415 0.930 . S
C3428 C3427 1.388 . S
C3428 C3429 1.390 . S
C3429 C3428 1.390 . S
C3429 C3430 1.394 . S
C3429 C3435 1.465 . S
C3430 C3425 1.399 1_554 S
C3430 C3429 1.394 . S
C3430 C3431 1.516 . S
C3431 C3430 1.516 . S
C3431 C3432 1.502 . S
C3431 C3433 1.561 . S
C3431 C3434 1.526 . S
C3432 H3416 0.959 . S
C3432 H3417 0.959 . S
C3432 H3418 0.961 . S
C3432 C3431 1.502 . S
C3433 H3419 0.960 1_554 S
C3433 H3420 0.961 . S
C3433 H3421 0.959 . S
C3433 C3431 1.561 . S
C3434 C3431 1.526 . S
C3434 C3435 1.396 . S
C3434 C3439 1.390 . S
C3435 C3429 1.465 . S
C3435 C3434 1.396 . S
C3435 C3436 1.399 . S
C3436 H3422 0.929 . S
C3436 C3435 1.399 . S
C3436 C3437 1.385 . S
C3437 H3423 0.931 . S
C3437 C3436 1.385 . S
C3437 C3438 1.389 . S
C3438 C3437 1.389 . S
C3438 C3439 1.387 . S
C3439 H3424 0.930 . S
C3439 C3434 1.390 . S
C3439 C3438 1.387 . S
H3440 C3452 0.930 . S
H3441 C3454 0.930 . S
H3442 C3455 0.930 . S
H3443 C3459 0.959 . S
H3444 C3459 0.959 . S
H3445 C3459 0.961 . S
H3446 C3460 0.960 . S
H3447 C3460 0.961 . S
H3448 C3460 0.959 . S
H3449 C3463 0.929 . S
H3450 C3464 0.931 . S
H3451 C3466 0.930 . S
C3452 H3440 0.930 . S
C3452 C3453 1.399 . S
C3452 C3457 1.399 . S
C3453 C3452 1.399 . S
C3453 C3454 1.376 . S
C3454 H3441 0.930 . S
C3454 C3453 1.376 . S
C3454 C3455 1.388 . S
C3455 H3442 0.930 . S
C3455 C3454 1.388 . S
C3455 C3456 1.390 . S
C3456 C3455 1.390 . S
C3456 C3457 1.394 . S
C3456 C3462 1.465 . S
C3457 C3452 1.399 . S
C3457 C3456 1.394 . S
C3457 C3458 1.516 . S
C3458 C3457 1.516 . S
C3458 C3459 1.502 . S
C3458 C3460 1.561 . S
C3458 C3461 1.526 . S
C3459 H3443 0.959 . S
C3459 H3444 0.959 . S
C3459 H3445 0.961 . S
C3459 C3458 1.502 . S
C3460 H3446 0.960 . S
C3460 H3447 0.961 . S
C3460 H3448 0.959 . S
C3460 C3458 1.561 . S
C3461 C3458 1.526 . S
C3461 C3462 1.396 . S
C3461 C3466 1.390 . S
C3462 C3456 1.465 . S
C3462 C3461 1.396 . S
C3462 C3463 1.399 . S
C3463 H3449 0.929 . S
C3463 C3462 1.399 . S
C3463 C3464 1.385 . S
C3464 H3450 0.931 . S
C3464 C3463 1.385 . S
C3464 C3465 1.389 . S
C3465 C3464 1.389 . S
C3465 C3466 1.387 . S
C3466 H3451 0.930 . S
C3466 C3461 1.390 . S
C3466 C3465 1.387 . S
H3467 C3479 0.930 . S
H3468 C3481 0.930 . S
H3469 C3482 0.930 . S
H3470 C3486 0.959 . S
H3471 C3486 0.959 . S
H3472 C3486 0.961 . S
H3473 C3487 0.960 . S
H3474 C3487 0.961 . S
H3475 C3487 0.959 . S
H3476 C3490 0.929 . S
H3477 C3491 0.931 . S
H3478 C3493 0.930 . S
C3479 H3467 0.930 . S
C3479 C3480 1.399 . S
C3479 C3484 1.399 1_556 S
C3480 C3479 1.399 . S
C3480 C3481 1.376 . S
C3481 H3468 0.930 . S
C3481 C3480 1.376 . S
C3481 C3482 1.388 . S
C3482 H3469 0.930 . S
C3482 C3481 1.388 . S
C3482 C3483 1.390 1_556 S
C3483 C3482 1.390 1_554 S
C3483 C3484 1.394 . S
C3483 C3489 1.465 . S
C3484 C3479 1.399 1_554 S
C3484 C3483 1.394 . S
C3484 C3485 1.516 . S
C3485 C3484 1.516 . S
C3485 C3486 1.502 . S
C3485 C3487 1.561 . S
C3485 C3488 1.526 . S
C3486 H3470 0.959 . S
C3486 H3471 0.959 . S
C3486 H3472 0.961 . S
C3486 C3485 1.502 . S
C3487 H3473 0.960 . S
C3487 H3474 0.961 . S
C3487 H3475 0.959 . S
C3487 C3485 1.561 . S
C3488 C3485 1.526 . S
C3488 C3489 1.396 . S
C3488 C3493 1.390 . S
C3489 C3483 1.465 . S
C3489 C3488 1.396 . S
C3489 C3490 1.399 . S
C3490 H3476 0.929 . S
C3490 C3489 1.399 . S
C3490 C3491 1.385 . S
C3491 H3477 0.931 . S
C3491 C3490 1.385 . S
C3491 C3492 1.389 . S
C3492 C3491 1.389 . S
C3492 C3493 1.387 . S
C3493 H3478 0.930 . S
C3493 C3488 1.390 . S
C3493 C3492 1.387 . S
H3494 C3506 0.930 . S
H3495 C3508 0.930 . S
H3496 C3509 0.930 . S
H3497 C3513 0.959 . S
H3498 C3513 0.959 . S
H3499 C3513 0.961 . S
H3500 C3514 0.960 . S
H3501 C3514 0.961 . S
H3502 C3514 0.959 . S
H3503 C3517 0.929 . S
H3504 C3518 0.931 . S
H3505 C3520 0.930 . S
C3506 H3494 0.930 . S
C3506 C3507 1.399 . S
C3506 C3511 1.399 . S
C3507 C3506 1.399 . S
C3507 C3508 1.376 . S
C3508 H3495 0.930 . S
C3508 C3507 1.376 . S
C3508 C3509 1.388 . S
C3509 H3496 0.930 . S
C3509 C3508 1.388 . S
C3509 C3510 1.390 . S
C3510 C3509 1.390 . S
C3510 C3511 1.394 . S
C3510 C3516 1.465 . S
C3511 C3506 1.399 . S
C3511 C3510 1.394 . S
C3511 C3512 1.516 . S
C3512 C3511 1.516 . S
C3512 C3513 1.502 . S
C3512 C3514 1.561 . S
C3512 C3515 1.526 . S
C3513 H3497 0.959 . S
C3513 H3498 0.959 . S
C3513 H3499 0.961 . S
C3513 C3512 1.502 . S
C3514 H3500 0.960 . S
C3514 H3501 0.961 . S
C3514 H3502 0.959 . S
C3514 C3512 1.561 . S
C3515 C3512 1.526 . S
C3515 C3516 1.396 . S
C3515 C3520 1.390 . S
C3516 C3510 1.465 . S
C3516 C3515 1.396 . S
C3516 C3517 1.399 . S
C3517 H3503 0.929 . S
C3517 C3516 1.399 . S
C3517 C3518 1.385 . S
C3518 H3504 0.931 . S
C3518 C3517 1.385 . S
C3518 C3519 1.389 . S
C3519 C3518 1.389 . S
C3519 C3520 1.387 . S
C3520 H3505 0.930 . S
C3520 C3515 1.390 . S
C3520 C3519 1.387 . S
H3521 C3533 0.930 . S
H3522 C3535 0.930 . S
H3523 C3536 0.930 . S
H3524 C3540 0.959 . S
H3525 C3540 0.959 . S
H3526 C3540 0.961 . S
H3527 C3541 0.960 . S
H3528 C3541 0.961 . S
H3529 C3541 0.959 . S
H3530 C3544 0.929 . S
H3531 C3545 0.931 . S
H3532 C3547 0.930 . S
C3533 H3521 0.930 . S
C3533 C3534 1.399 . S
C3533 C3538 1.399 . S
C3534 C3533 1.399 . S
C3534 C3535 1.376 . S
C3535 H3522 0.930 . S
C3535 C3534 1.376 . S
C3535 C3536 1.388 . S
C3536 H3523 0.930 . S
C3536 C3535 1.388 . S
C3536 C3537 1.390 . S
C3537 C3536 1.390 . S
C3537 C3538 1.394 . S
C3537 C3543 1.465 . S
C3538 C3533 1.399 . S
C3538 C3537 1.394 . S
C3538 C3539 1.516 . S
C3539 C3538 1.516 . S
C3539 C3540 1.502 . S
C3539 C3541 1.561 . S
C3539 C3542 1.526 . S
C3540 H3524 0.959 . S
C3540 H3525 0.959 . S
C3540 H3526 0.961 . S
C3540 C3539 1.502 . S
C3541 H3527 0.960 . S
C3541 H3528 0.961 . S
C3541 H3529 0.959 . S
C3541 C3539 1.561 . S
C3542 C3539 1.526 . S
C3542 C3543 1.396 . S
C3542 C3547 1.390 . S
C3543 C3537 1.465 . S
C3543 C3542 1.396 . S
C3543 C3544 1.399 . S
C3544 H3530 0.929 . S
C3544 C3543 1.399 . S
C3544 C3545 1.385 . S
C3545 H3531 0.931 . S
C3545 C3544 1.385 . S
C3545 C3546 1.389 . S
C3546 C3545 1.389 . S
C3546 C3547 1.387 . S
C3547 H3532 0.930 . S
C3547 C3542 1.390 . S
C3547 C3546 1.387 . S
H3548 C3560 0.930 . S
H3549 C3562 0.930 . S
H3550 C3563 0.930 . S
H3551 C3567 0.959 . S
H3552 C3567 0.959 . S
H3553 C3567 0.961 . S
H3554 C3568 0.960 . S
H3555 C3568 0.961 . S
H3556 C3568 0.959 . S
H3557 C3571 0.929 . S
H3558 C3572 0.931 . S
H3559 C3574 0.930 . S
C3560 H3548 0.930 . S
C3560 C3561 1.399 . S
C3560 C3565 1.399 . S
C3561 C3560 1.399 . S
C3561 C3562 1.376 . S
C3562 H3549 0.930 . S
C3562 C3561 1.376 . S
C3562 C3563 1.388 . S
C3563 H3550 0.930 . S
C3563 C3562 1.388 . S
C3563 C3564 1.390 . S
C3564 C3563 1.390 . S
C3564 C3565 1.394 . S
C3564 C3570 1.465 . S
C3565 C3560 1.399 . S
C3565 C3564 1.394 . S
C3565 C3566 1.516 . S
C3566 C3565 1.516 . S
C3566 C3567 1.502 . S
C3566 C3568 1.561 . S
C3566 C3569 1.526 . S
C3567 H3551 0.959 . S
C3567 H3552 0.959 . S
C3567 H3553 0.961 . S
C3567 C3566 1.502 . S
C3568 H3554 0.960 . S
C3568 H3555 0.961 . S
C3568 H3556 0.959 . S
C3568 C3566 1.561 . S
C3569 C3566 1.526 . S
C3569 C3570 1.396 . S
C3569 C3574 1.390 . S
C3570 C3564 1.465 . S
C3570 C3569 1.396 . S
C3570 C3571 1.399 . S
C3571 H3557 0.929 . S
C3571 C3570 1.399 . S
C3571 C3572 1.385 . S
C3572 H3558 0.931 . S
C3572 C3571 1.385 . S
C3572 C3573 1.389 . S
C3573 C3572 1.389 . S
C3573 C3574 1.387 . S
C3574 H3559 0.930 . S
C3574 C3569 1.390 . S
C3574 C3573 1.387 . S
H3575 C3587 0.930 . S
H3576 C3589 0.930 . S
H3577 C3590 0.930 . S
H3578 C3594 0.959 . S
H3579 C3594 0.959 . S
H3580 C3594 0.961 . S
H3581 C3595 0.960 . S
H3582 C3595 0.961 . S
H3583 C3595 0.959 . S
H3584 C3598 0.929 . S
H3585 C3599 0.931 . S
H3586 C3601 0.930 . S
C3587 H3575 0.930 . S
C3587 C3588 1.399 . S
C3587 C3592 1.399 . S
C3588 C3587 1.399 . S
C3588 C3589 1.376 . S
C3589 H3576 0.930 . S
C3589 C3588 1.376 . S
C3589 C3590 1.388 . S
C3590 H3577 0.930 . S
C3590 C3589 1.388 . S
C3590 C3591 1.390 . S
C3591 C3590 1.390 . S
C3591 C3592 1.394 . S
C3591 C3597 1.465 . S
C3592 C3587 1.399 . S
C3592 C3591 1.394 . S
C3592 C3593 1.516 . S
C3593 C3592 1.516 . S
C3593 C3594 1.502 . S
C3593 C3595 1.561 . S
C3593 C3596 1.526 . S
C3594 H3578 0.959 . S
C3594 H3579 0.959 . S
C3594 H3580 0.961 . S
C3594 C3593 1.502 . S
C3595 H3581 0.960 . S
C3595 H3582 0.961 . S
C3595 H3583 0.959 . S
C3595 C3593 1.561 . S
C3596 C3593 1.526 . S
C3596 C3597 1.396 . S
C3596 C3601 1.390 . S
C3597 C3591 1.465 . S
C3597 C3596 1.396 . S
C3597 C3598 1.399 . S
C3598 H3584 0.929 . S
C3598 C3597 1.399 . S
C3598 C3599 1.385 . S
C3599 H3585 0.931 . S
C3599 C3598 1.385 . S
C3599 C3600 1.389 . S
C3600 C3599 1.389 . S
C3600 C3601 1.387 . S
C3601 H3586 0.930 . S
C3601 C3596 1.390 . S
C3601 C3600 1.387 . S
H3602 C3614 0.930 . S
H3603 C3616 0.930 . S
H3604 C3617 0.930 . S
H3605 C3621 0.959 . S
H3606 C3621 0.959 . S
H3607 C3621 0.961 1_556 S
H3608 C3622 0.960 1_556 S
H3609 C3622 0.961 . S
H3610 C3622 0.959 . S
H3611 C3625 0.929 . S
H3612 C3626 0.931 . S
H3613 C3628 0.930 . S
C3614 H3602 0.930 . S
C3614 C3615 1.399 . S
C3614 C3619 1.428 . S
C3615 C3614 1.399 . S
C3615 C3616 1.376 . S
C3616 H3603 0.930 . S
C3616 C3615 1.376 . S
C3616 C3617 1.388 1_556 S
C3617 H3604 0.930 . S
C3617 C3616 1.388 1_554 S
C3617 C3618 1.390 . S
C3618 C3617 1.390 . S
C3618 C3619 1.374 1_554 S
C3618 C3624 1.465 . S
C3619 C3614 1.428 . S
C3619 C3618 1.374 1_556 S
C3619 C3620 1.503 1_556 S
C3620 C3619 1.503 1_554 S
C3620 C3621 1.502 . S
C3620 C3622 1.561 . S
C3620 C3623 1.526 . S
C3621 H3605 0.959 . S
C3621 H3606 0.959 . S
C3621 H3607 0.961 1_554 S
C3621 C3620 1.502 . S
C3622 H3608 0.960 1_554 S
C3622 H3609 0.961 . S
C3622 H3610 0.959 . S
C3622 C3620 1.561 . S
C3623 C3620 1.526 . S
C3623 C3624 1.396 . S
C3623 C3628 1.390 . S
C3624 C3618 1.465 . S
C3624 C3623 1.396 . S
C3624 C3625 1.399 . S
C3625 H3611 0.929 . S
C3625 C3624 1.399 . S
C3625 C3626 1.385 . S
C3626 H3612 0.931 . S
C3626 C3625 1.385 . S
C3626 C3627 1.389 . S
C3627 C3626 1.389 . S
C3627 C3628 1.387 . S
C3628 H3613 0.930 . S
C3628 C3623 1.390 . S
C3628 C3627 1.387 . S
H3629 C3641 0.930 . S
H3630 C3643 0.930 . S
H3631 C3644 0.930 . S
H3632 C3648 0.959 . S
H3633 C3648 0.959 . S
H3634 C3648 0.961 . S
H3635 C3649 0.960 . S
H3636 C3649 0.961 . S
H3637 C3649 0.959 . S
H3638 C3652 0.929 . S
H3639 C3653 0.931 . S
H3640 C3655 0.930 . S
C3641 H3629 0.930 . S
C3641 C3642 1.399 . S
C3641 C3646 1.399 . S
C3642 C3641 1.399 . S
C3642 C3643 1.376 . S
C3643 H3630 0.930 . S
C3643 C3642 1.376 . S
C3643 C3644 1.388 . S
C3644 H3631 0.930 . S
C3644 C3643 1.388 . S
C3644 C3645 1.390 . S
C3645 C3644 1.390 . S
C3645 C3646 1.394 . S
C3645 C3651 1.465 . S
C3646 C3641 1.399 . S
C3646 C3645 1.394 . S
C3646 C3647 1.516 . S
C3647 C3646 1.516 . S
C3647 C3648 1.502 . S
C3647 C3649 1.561 . S
C3647 C3650 1.526 . S
C3648 H3632 0.959 . S
C3648 H3633 0.959 . S
C3648 H3634 0.961 . S
C3648 C3647 1.502 . S
C3649 H3635 0.960 . S
C3649 H3636 0.961 . S
C3649 H3637 0.959 . S
C3649 C3647 1.561 . S
C3650 C3647 1.526 . S
C3650 C3651 1.396 . S
C3650 C3655 1.390 . S
C3651 C3645 1.465 . S
C3651 C3650 1.396 . S
C3651 C3652 1.399 . S
C3652 H3638 0.929 . S
C3652 C3651 1.399 . S
C3652 C3653 1.385 . S
C3653 H3639 0.931 . S
C3653 C3652 1.385 . S
C3653 C3654 1.389 . S
C3654 C3653 1.389 . S
C3654 C3655 1.387 . S
C3655 H3640 0.930 . S
C3655 C3650 1.390 . S
C3655 C3654 1.387 . S
H3656 C3668 0.899 1_545 S
H3657 C3670 0.930 . S
H3658 C3671 0.930 . S
H3659 C3675 0.959 . S
H3660 C3675 0.959 . S
H3661 C3675 0.961 . S
H3662 C3676 0.960 . S
H3663 C3676 0.961 . S
H3664 C3676 0.959 . S
H3665 C3679 0.929 . S
H3666 C3680 0.931 . S
H3667 C3682 0.930 . S
C3668 H3656 0.899 1_565 S
C3668 C3669 1.399 . S
C3668 C3673 1.399 . S
C3669 C3668 1.399 . S
C3669 C3670 1.376 . S
C3670 H3657 0.930 . S
C3670 C3669 1.376 . S
C3670 C3671 1.388 . S
C3671 H3658 0.930 . S
C3671 C3670 1.388 . S
C3671 C3672 1.390 . S
C3672 C3671 1.390 . S
C3672 C3673 1.394 . S
C3672 C3678 1.465 . S
C3673 C3668 1.399 . S
C3673 C3672 1.394 . S
C3673 C3674 1.516 1_565 S
C3674 C3673 1.516 1_545 S
C3674 C3675 1.502 . S
C3674 C3676 1.561 . S
C3674 C3677 1.526 . S
C3675 H3659 0.959 . S
C3675 H3660 0.959 . S
C3675 H3661 0.961 . S
C3675 C3674 1.502 . S
C3676 H3662 0.960 . S
C3676 H3663 0.961 . S
C3676 H3664 0.959 . S
C3676 C3674 1.561 . S
C3677 C3674 1.526 . S
C3677 C3678 1.396 1_545 S
C3677 C3682 1.390 . S
C3678 C3672 1.465 . S
C3678 C3677 1.396 1_565 S
C3678 C3679 1.399 . S
C3679 H3665 0.929 . S
C3679 C3678 1.399 . S
C3679 C3680 1.385 . S
C3680 H3666 0.931 . S
C3680 C3679 1.385 . S
C3680 C3681 1.389 1_565 S
C3681 C3680 1.389 1_545 S
C3681 C3682 1.387 . S
C3682 H3667 0.930 . S
C3682 C3677 1.390 . S
C3682 C3681 1.387 . S
H3683 C3695 0.930 . S
H3684 C3697 0.930 . S
H3685 C3698 0.930 . S
H3686 C3702 0.959 . S
H3687 C3702 0.959 . S
H3688 C3702 0.961 . S
H3689 C3703 0.960 . S
H3690 C3703 0.961 . S
H3691 C3703 0.959 . S
H3692 C3706 0.929 . S
H3693 C3707 0.931 . S
H3694 C3709 0.930 . S
C3695 H3683 0.930 . S
C3695 C3696 1.399 . S
C3695 C3700 1.399 . S
C3696 C3695 1.399 . S
C3696 C3697 1.376 . S
C3697 H3684 0.930 . S
C3697 C3696 1.376 . S
C3697 C3698 1.388 . S
C3698 H3685 0.930 . S
C3698 C3697 1.388 . S
C3698 C3699 1.390 . S
C3699 C3698 1.390 . S
C3699 C3700 1.394 . S
C3699 C3705 1.465 . S
C3700 C3695 1.399 . S
C3700 C3699 1.394 . S
C3700 C3701 1.516 . S
C3701 C3700 1.516 . S
C3701 C3702 1.502 . S
C3701 C3703 1.561 . S
C3701 C3704 1.526 . S
C3702 H3686 0.959 . S
C3702 H3687 0.959 . S
C3702 H3688 0.961 . S
C3702 C3701 1.502 . S
C3703 H3689 0.960 . S
C3703 H3690 0.961 . S
C3703 H3691 0.959 . S
C3703 C3701 1.561 . S
C3704 C3701 1.526 . S
C3704 C3705 1.396 . S
C3704 C3709 1.390 . S
C3705 C3699 1.465 . S
C3705 C3704 1.396 . S
C3705 C3706 1.399 . S
C3706 H3692 0.929 . S
C3706 C3705 1.399 . S
C3706 C3707 1.385 . S
C3707 H3693 0.931 . S
C3707 C3706 1.385 . S
C3707 C3708 1.389 . S
C3708 C3707 1.389 . S
C3708 C3709 1.387 . S
C3709 H3694 0.930 . S
C3709 C3704 1.390 . S
C3709 C3708 1.387 . S
H3710 C3722 0.930 . S
H3711 C3724 0.930 . S
H3712 C3725 0.930 . S
H3713 C3729 0.959 . S
H3714 C3729 0.959 . S
H3715 C3729 0.961 . S
H3716 C3730 0.960 . S
H3717 C3730 0.961 . S
H3718 C3730 0.959 . S
H3719 C3733 0.929 . S
H3720 C3734 0.931 . S
H3721 C3736 0.930 . S
C3722 H3710 0.930 . S
C3722 C3723 1.399 . S
C3722 C3727 1.399 . S
C3723 C3722 1.399 . S
C3723 C3724 1.376 . S
C3724 H3711 0.930 . S
C3724 C3723 1.376 . S
C3724 C3725 1.388 . S
C3725 H3712 0.930 . S
C3725 C3724 1.388 . S
C3725 C3726 1.390 . S
C3726 C3725 1.390 . S
C3726 C3727 1.394 . S
C3726 C3732 1.465 . S
C3727 C3722 1.399 . S
C3727 C3726 1.394 . S
C3727 C3728 1.516 1_545 S
C3728 C3727 1.516 1_565 S
C3728 C3729 1.502 . S
C3728 C3730 1.561 . S
C3728 C3731 1.526 . S
C3729 H3713 0.959 . S
C3729 H3714 0.959 . S
C3729 H3715 0.961 . S
C3729 C3728 1.502 . S
C3730 H3716 0.960 . S
C3730 H3717 0.961 . S
C3730 H3718 0.959 . S
C3730 C3728 1.561 . S
C3731 C3728 1.526 . S
C3731 C3732 1.396 1_565 S
C3731 C3736 1.390 . S
C3732 C3726 1.465 . S
C3732 C3731 1.396 1_545 S
C3732 C3733 1.399 . S
C3733 H3719 0.929 . S
C3733 C3732 1.399 . S
C3733 C3734 1.385 . S
C3734 H3720 0.931 . S
C3734 C3733 1.385 . S
C3734 C3735 1.389 1_545 S
C3735 C3734 1.389 1_565 S
C3735 C3736 1.387 . S
C3736 H3721 0.930 . S
C3736 C3731 1.390 . S
C3736 C3735 1.387 . S
H3737 C3749 0.930 . S
H3738 C3751 0.930 . S
H3739 C3752 0.930 . S
H3740 C3756 0.959 . S
H3741 C3756 0.959 . S
H3742 C3756 0.961 . S
H3743 C3757 0.960 . S
H3744 C3757 0.961 . S
H3745 C3757 0.959 . S
H3746 C3760 0.929 . S
H3747 C3761 0.931 . S
H3748 C3763 0.930 . S
C3749 H3737 0.930 . S
C3749 C3750 1.399 . S
C3749 C3754 1.399 . S
C3750 C3749 1.399 . S
C3750 C3751 1.376 . S
C3751 H3738 0.930 . S
C3751 C3750 1.376 . S
C3751 C3752 1.388 . S
C3752 H3739 0.930 . S
C3752 C3751 1.388 . S
C3752 C3753 1.390 . S
C3753 C3752 1.390 . S
C3753 C3754 1.394 . S
C3753 C3759 1.465 . S
C3754 C3749 1.399 . S
C3754 C3753 1.394 . S
C3754 C3755 1.516 . S
C3755 C3754 1.516 . S
C3755 C3756 1.502 . S
C3755 C3757 1.561 . S
C3755 C3758 1.526 . S
C3756 H3740 0.959 . S
C3756 H3741 0.959 . S
C3756 H3742 0.961 . S
C3756 C3755 1.502 . S
C3757 H3743 0.960 . S
C3757 H3744 0.961 . S
C3757 H3745 0.959 . S
C3757 C3755 1.561 . S
C3758 C3755 1.526 . S
C3758 C3759 1.396 . S
C3758 C3763 1.390 . S
C3759 C3753 1.465 . S
C3759 C3758 1.396 . S
C3759 C3760 1.399 . S
C3760 H3746 0.929 . S
C3760 C3759 1.399 . S
C3760 C3761 1.385 . S
C3761 H3747 0.931 . S
C3761 C3760 1.385 . S
C3761 C3762 1.389 . S
C3762 C3761 1.389 . S
C3762 C3763 1.387 . S
C3763 H3748 0.930 . S
C3763 C3758 1.390 . S
C3763 C3762 1.387 . S
H3764 C3776 0.930 . S
H3765 C3778 0.930 . S
H3766 C3779 0.930 1_545 S
H3767 C3783 0.959 . S
H3768 C3783 0.959 . S
H3769 C3783 0.961 1_565 S
H3770 C3784 0.960 . S
H3771 C3784 0.961 1_556 S
H3772 C3784 0.959 . S
H3773 C3787 0.929 . S
H3774 C3788 0.931 1_556 S
H3775 C3790 0.930 . S
C3776 H3764 0.930 . S
C3776 C3777 1.399 . S
C3776 C3781 1.399 . S
C3777 C3776 1.399 . S
C3777 C3778 1.376 . S
C3778 H3765 0.930 . S
C3778 C3777 1.376 . S
C3778 C3779 1.388 . S
C3779 H3766 0.930 1_565 S
C3779 C3778 1.388 . S
C3779 C3780 1.390 . S
C3780 C3779 1.390 . S
C3780 C3781 1.394 . S
C3780 C3786 1.465 1_565 S
C3781 C3776 1.399 . S
C3781 C3780 1.394 . S
C3781 C3782 1.516 . S
C3782 C3781 1.516 . S
C3782 C3783 1.502 1_565 S
C3782 C3784 1.561 . S
C3782 C3785 1.526 1_565 S
C3783 H3767 0.959 . S
C3783 H3768 0.959 . S
C3783 H3769 0.961 1_545 S
C3783 C3782 1.502 1_545 S
C3784 H3770 0.960 . S
C3784 H3771 0.961 1_554 S
C3784 H3772 0.959 . S
C3784 C3782 1.561 . S
C3785 C3782 1.526 1_545 S
C3785 C3786 1.396 . S
C3785 C3790 1.390 1_554 S
C3786 C3780 1.465 1_545 S
C3786 C3785 1.396 . S
C3786 C3787 1.399 . S
C3787 H3773 0.929 . S
C3787 C3786 1.399 . S
C3787 C3788 1.385 . S
C3788 H3774 0.931 1_554 S
C3788 C3787 1.385 . S
C3788 C3789 1.389 1_554 S
C3789 C3788 1.389 1_556 S
C3789 C3790 1.387 . S
C3790 H3775 0.930 . S
C3790 C3785 1.390 1_556 S
C3790 C3789 1.387 . S
H3791 C3803 0.930 . S
H3792 C3805 0.930 . S
H3793 C3806 0.930 . S
H3794 C3810 0.959 . S
H3795 C3810 0.959 . S
H3796 C3810 0.961 . S
H3797 C3811 0.960 . S
H3798 C3811 0.961 . S
H3799 C3811 0.959 . S
H3800 C3814 0.929 . S
H3801 C3815 0.931 . S
H3802 C3817 0.930 . S
C3803 H3791 0.930 . S
C3803 C3804 1.399 . S
C3803 C3808 1.399 . S
C3804 C3803 1.399 . S
C3804 C3805 1.376 . S
C3805 H3792 0.930 . S
C3805 C3804 1.376 . S
C3805 C3806 1.388 . S
C3806 H3793 0.930 . S
C3806 C3805 1.388 . S
C3806 C3807 1.390 . S
C3807 C3806 1.390 . S
C3807 C3808 1.394 . S
C3807 C3813 1.465 . S
C3808 C3803 1.399 . S
C3808 C3807 1.394 . S
C3808 C3809 1.516 . S
C3809 C3808 1.516 . S
C3809 C3810 1.502 . S
C3809 C3811 1.561 . S
C3809 C3812 1.526 . S
C3810 H3794 0.959 . S
C3810 H3795 0.959 . S
C3810 H3796 0.961 . S
C3810 C3809 1.502 . S
C3811 H3797 0.960 . S
C3811 H3798 0.961 . S
C3811 H3799 0.959 . S
C3811 C3809 1.561 . S
C3812 C3809 1.526 . S
C3812 C3813 1.396 . S
C3812 C3817 1.390 . S
C3813 C3807 1.465 . S
C3813 C3812 1.396 . S
C3813 C3814 1.399 . S
C3814 H3800 0.929 . S
C3814 C3813 1.399 . S
C3814 C3815 1.385 . S
C3815 H3801 0.931 . S
C3815 C3814 1.385 . S
C3815 C3816 1.389 . S
C3816 C3815 1.389 . S
C3816 C3817 1.387 . S
C3817 H3802 0.930 . S
C3817 C3812 1.390 . S
C3817 C3816 1.387 . S
H3818 C3830 0.930 . S
H3819 C3832 0.930 . S
H3820 C3833 0.930 . S
H3821 C3837 0.959 . S
H3822 C3837 0.959 . S
H3823 C3837 0.961 . S
H3824 C3838 0.960 . S
H3825 C3838 0.961 . S
H3826 C3838 0.959 . S
H3827 C3841 0.929 . S
H3828 C3842 0.931 . S
H3829 C3844 0.930 . S
C3830 H3818 0.930 . S
C3830 C3831 1.399 . S
C3830 C3835 1.399 . S
C3831 C3830 1.399 . S
C3831 C3832 1.376 . S
C3832 H3819 0.930 . S
C3832 C3831 1.376 . S
C3832 C3833 1.388 1_565 S
C3833 H3820 0.930 . S
C3833 C3832 1.388 1_545 S
C3833 C3834 1.390 1_545 S
C3834 C3833 1.390 1_565 S
C3834 C3835 1.394 . S
C3834 C3840 1.465 1_565 S
C3835 C3830 1.399 . S
C3835 C3834 1.394 . S
C3835 C3836 1.516 . S
C3836 C3835 1.516 . S
C3836 C3837 1.502 . S
C3836 C3838 1.561 . S
C3836 C3839 1.526 . S
C3837 H3821 0.959 . S
C3837 H3822 0.959 . S
C3837 H3823 0.961 . S
C3837 C3836 1.502 . S
C3838 H3824 0.960 . S
C3838 H3825 0.961 . S
C3838 H3826 0.959 . S
C3838 C3836 1.561 . S
C3839 C3836 1.526 . S
C3839 C3840 1.396 1_565 S
C3839 C3844 1.390 . S
C3840 C3834 1.465 1_545 S
C3840 C3839 1.396 1_545 S
C3840 C3841 1.399 . S
C3841 H3827 0.929 . S
C3841 C3840 1.399 . S
C3841 C3842 1.385 . S
C3842 H3828 0.931 . S
C3842 C3841 1.385 . S
C3842 C3843 1.389 . S
C3843 C3842 1.389 . S
C3843 C3844 1.387 1_545 S
C3844 H3829 0.930 . S
C3844 C3839 1.390 . S
C3844 C3843 1.387 1_565 S
H3845 C3857 0.930 . S
H3846 C3859 0.930 . S
H3847 C3860 0.930 . S
H3848 C3864 0.959 . S
H3849 C3864 0.959 . S
H3850 C3864 0.961 . S
H3851 C3865 0.960 . S
H3852 C3865 0.961 . S
H3853 C3865 0.959 . S
H3854 C3868 0.929 . S
H3855 C3869 0.931 . S
H3856 C3871 0.930 . S
C3857 H3845 0.930 . S
C3857 C3858 1.399 . S
C3857 C3862 1.399 . S
C3858 C3857 1.399 . S
C3858 C3859 1.376 . S
C3859 H3846 0.930 . S
C3859 C3858 1.376 . S
C3859 C3860 1.388 . S
C3860 H3847 0.930 . S
C3860 C3859 1.388 . S
C3860 C3861 1.390 . S
C3861 C3860 1.390 . S
C3861 C3862 1.394 . S
C3861 C3867 1.465 . S
C3862 C3857 1.399 . S
C3862 C3861 1.394 . S
C3862 C3863 1.516 . S
C3863 C3862 1.516 . S
C3863 C3864 1.502 . S
C3863 C3865 1.561 . S
C3863 C3866 1.526 . S
C3864 H3848 0.959 . S
C3864 H3849 0.959 . S
C3864 H3850 0.961 . S
C3864 C3863 1.502 . S
C3865 H3851 0.960 . S
C3865 H3852 0.961 . S
C3865 H3853 0.959 . S
C3865 C3863 1.561 . S
C3866 C3863 1.526 . S
C3866 C3867 1.396 . S
C3866 C3871 1.390 . S
C3867 C3861 1.465 . S
C3867 C3866 1.396 . S
C3867 C3868 1.399 . S
C3868 H3854 0.929 . S
C3868 C3867 1.399 . S
C3868 C3869 1.385 . S
C3869 H3855 0.931 . S
C3869 C3868 1.385 . S
C3869 C3870 1.389 . S
C3870 C3869 1.389 . S
C3870 C3871 1.387 . S
C3871 H3856 0.930 . S
C3871 C3866 1.390 . S
C3871 C3870 1.387 . S
C1293 C10 0.363 . S
C1305 C175 0.193 . S
C1320 C215 0.379 . S
C1332 C50 0.439 . S
C1347 C90 0.328 . S
C1359 C255 0.261 . S
C1374 C295 0.478 . S
C1386 C135 0.482 . S
C1401 C339 0.456 . S
C1413 C486 0.275 . S
C1428 C379 0.386 . S
C1440 C526 0.183 . S
C1455 C566 0.376 . S
C1467 C419 0.236 . S
C1482 C446 0.399 . S
C1494 C606 0.295 . S
C1509 C815 0.299 . S
C1521 C650 0.447 . S
C1536 C690 0.468 . S
C1548 C855 0.360 . S
C1563 C730 0.320 . S
C1575 C895 0.378 . S
C1590 C775 0.307 . S
C1602 C935 0.367 . S
C1617 C979 0.170 . S
C1629 C1126 0.229 . S
C1644 C1166 0.359 . S
C1656 C1019 0.452 . S
C1671 C1059 0.138 . S
C1683 C1206 0.297 . S
C1698 C1246 0.383 . S
C1710 C1086 0.319 . S
C1725 C849 1.859 . S
C1737 C18 1.879 . S
C1752 C889 1.360 . S
C1764 C58 1.456 . S
C1779 C929 1.962 . S
C1791 C98 1.867 . S
C1806 C129 1.370 . S
C1818 C809 1.331 . S
C1833 C169 1.298 . S
C1845 C769 1.307 . S
C1860 C658 1.885 . S
C1872 C209 1.832 . S
C1887 C249 1.377 . S
C1899 C698 1.422 . S
C1914 C289 1.963 . S
C1926 C738 1.868 . S
C1941 C329 1.800 . S
C1953 C1178 1.917 . S
C1968 C1218 1.470 . S
C1980 C369 1.350 . S
C1995 C1258 1.961 . S
C2007 C409 1.863 . S
C2022 C458 1.311 . S
C2034 C1138 1.310 . S
C2049 C498 1.382 . S
C2061 C1098 1.313 . S
C2076 C538 1.908 . S
C2088 C969 1.805 . S
C2103 C578 1.415 . S
C2115 C1009 1.414 . S
C2130 C618 1.903 . S
C2142 C1049 1.947 . S
C2157 C338 0.727 . S
C2169 C9 0.887 . S
C2184 C49 0.603 . S
C2196 C1018 0.836 . S
C2211 C418 0.736 . S
C2223 C89 0.709 . S
C2238 C138 0.728 . S
C2250 C1089 0.683 . S
C2265 C489 0.579 . S
C2277 C178 0.376 . S
C2292 C1169 0.626 . S
C2304 C218 0.535 . S
C2319 C258 0.566 . S
C2331 C569 0.496 . S
C2346 C298 0.809 . S
C2358 C1249 0.562 . S
C2373 C689 0.829 . S
C2385 C378 0.628 . S
C2400 C778 0.609 . S
C2412 C449 0.838 . S
C2427 C529 0.654 . S
C2439 C858 0.513 . S
C2454 C938 0.823 . S
C2466 C609 0.563 . S
C2481 C978 0.889 . S
C2493 C649 0.690 . S
C2508 C1058 0.701 . S
C2520 C729 0.743 . S
C2535 C1129 0.411 . S
C2547 C818 0.516 . S
C2562 C898 0.491 . S
C2574 C1209 0.524 . S
C2589 C19 2.192 1_556 S
C2601 C490 2.228 . S
C2616 C1170 1.911 . S
C2628 C59 1.894 . S
C2643 C570 2.200 . S
C2655 C99 2.182 . S
C2670 C126 1.357 . S
C2682 C1250 1.379 . S
C2697 C335 0.872 . S
C2709 C166 0.835 . S
C2724 C1015 1.000 . S
C2736 C206 1.026 . S
C2751 C415 0.706 . S
C2763 C246 0.742 . S
C2778 C1090 1.616 . S
C2790 C286 1.627 . S
C2805 C179 2.209 . S
C2817 C330 2.216 . S
C2832 C859 1.942 . S
C2844 C370 1.896 . S
C2859 C259 2.217 1_556 S
C2871 C410 2.212 . S
C2886 C455 1.291 . S
C2898 C939 1.347 . S
C2913 C6 0.822 . S
C2925 C495 0.879 . S
C2940 C686 1.021 . S
C2952 C535 0.952 . S
C2967 C575 0.772 . S
C2979 C86 0.706 . S
C2994 C615 1.638 . S
C3006 C779 1.627 . S
C3021 C1130 2.225 . S
C3033 C659 2.211 . S
C3048 C530 1.934 . S
C3060 C699 1.893 . S
C3075 C739 2.210 . S
C3087 C1210 2.206 . S
C3102 C610 1.324 . S
C3114 C766 1.322 . S
C3129 C806 0.882 . S
C3141 C975 0.842 . S
C3156 C846 0.934 . S
C3168 C375 0.948 . S
C3183 C1055 0.796 . S
C3195 C886 0.749 . S
C3210 C450 1.624 . S
C3222 C926 1.634 . S
C3237 C970 2.192 . S
C3249 C819 2.198 1_556 S
C3264 C1010 1.889 . S
C3276 C219 1.939 . S
C3291 C1050 2.186 . S
C3303 C899 2.204 . S
C3318 C1095 1.369 . S
C3330 C299 1.341 . S
C3345 C646 0.822 . S
C3357 C1135 0.879 . S
C3372 C46 1.023 . S
C3384 C1175 0.959 . S
C3399 C1215 0.731 . S
C3411 C726 0.802 . S
C3426 C139 1.658 . S
C3438 C1255 1.596 . S
C3453 C170 2.362 . S
C3465 C15 2.312 . S
C3480 C210 2.288 . S
C3492 C55 2.283 . S
C3507 C95 2.273 . S
C3519 C250 2.333 . S
C3534 C290 3.133 . S
C3546 C130 3.144 . S
C3561 C499 2.364 . S
C3573 C326 2.337 . S
C3588 C366 2.282 . S
C3600 C539 2.290 . S
C3615 C406 2.283 . S
C3627 C579 2.318 . S
C3642 C619 3.121 . S
C3654 C459 3.142 . S
C3669 C655 2.342 . S
C3681 C810 2.363 . S
C3696 C850 2.288 . S
C3708 C695 2.283 . S
C3723 C735 2.309 . S
C3735 C890 2.326 . S
C3750 C770 3.137 . S
C3762 C930 3.140 1_554 S
C3777 C1139 2.371 . S
C3789 C966 2.343 . S
C3804 C1179 2.299 . S
C3816 C1006 2.274 . S
C3831 C1046 2.295 . S
C3843 C1219 2.335 . S
C3858 C1259 3.139 . S
C3870 C1099 3.142 . S
