# Generated by pormake.
# Topology lcy-a, (4)-cn, num edge types: 1
# Building blocks:
#     Node 0, Type 0, BuildingBlock: AZAVOO_clean_sbu_0, # of connection points: 4
#     Node 1, Type 0, BuildingBlock: AZAVOO_clean_sbu_0, # of connection points: 4
#     Node 2, Type 0, BuildingBlock: AZAVOO_clean_sbu_0, # of connection points: 4
#     Node 3, Type 0, BuildingBlock: AZAVOO_clean_sbu_0, # of connection points: 4
#     Node 4, Type 0, BuildingBlock: AZAVOO_clean_sbu_0, # of connection points: 4
#     Node 5, Type 0, BuildingBlock: AZAVOO_clean_sbu_0, # of connection points: 4
#     Node 6, Type 0, BuildingBlock: AZAVOO_clean_sbu_0, # of connection points: 4
#     Node 7, Type 0, BuildingBlock: AZAVOO_clean_sbu_0, # of connection points: 4
#     Node 8, Type 0, BuildingBlock: AZAVOO_clean_sbu_0, # of connection points: 4
#     Node 9, Type 0, BuildingBlock: AZAVOO_clean_sbu_0, # of connection points: 4
#     Node 10, Type 0, BuildingBlock: AZAVOO_clean_sbu_0, # of connection points: 4
#     Node 11, Type 0, BuildingBlock: AZAVOO_clean_sbu_0, # of connection points: 4
#     Node 12, Type 0, BuildingBlock: AZAVOO_clean_sbu_0, # of connection points: 4
#     Node 13, Type 0, BuildingBlock: AZAVOO_clean_sbu_0, # of connection points: 4
#     Node 14, Type 0, BuildingBlock: AZAVOO_clean_sbu_0, # of connection points: 4
#     Node 15, Type 0, BuildingBlock: AZAVOO_clean_sbu_0, # of connection points: 4
#     Node 16, Type 0, BuildingBlock: AZAVOO_clean_sbu_0, # of connection points: 4
#     Node 17, Type 0, BuildingBlock: AZAVOO_clean_sbu_0, # of connection points: 4
#     Node 18, Type 0, BuildingBlock: AZAVOO_clean_sbu_0, # of connection points: 4
#     Node 19, Type 0, BuildingBlock: AZAVOO_clean_sbu_0, # of connection points: 4
#     Node 20, Type 0, BuildingBlock: AZAVOO_clean_sbu_0, # of connection points: 4
#     Node 21, Type 0, BuildingBlock: AZAVOO_clean_sbu_0, # of connection points: 4
#     Node 22, Type 0, BuildingBlock: AZAVOO_clean_sbu_0, # of connection points: 4
#     Node 23, Type 0, BuildingBlock: AZAVOO_clean_sbu_0, # of connection points: 4
#     Edge 24, Type (0, 0), BuildingBlock: ZUJKAS_clean_linker_0, # of connection points: 2
#     Edge 25, Type (0, 0), BuildingBlock: ZUJKAS_clean_linker_0, # of connection points: 2
#     Edge 26, Type (0, 0), BuildingBlock: ZUJKAS_clean_linker_0, # of connection points: 2
#     Edge 27, Type (0, 0), BuildingBlock: ZUJKAS_clean_linker_0, # of connection points: 2
#     Edge 28, Type (0, 0), BuildingBlock: ZUJKAS_clean_linker_0, # of connection points: 2
#     Edge 29, Type (0, 0), BuildingBlock: ZUJKAS_clean_linker_0, # of connection points: 2
#     Edge 30, Type (0, 0), BuildingBlock: ZUJKAS_clean_linker_0, # of connection points: 2
#     Edge 31, Type (0, 0), BuildingBlock: ZUJKAS_clean_linker_0, # of connection points: 2
#     Edge 32, Type (0, 0), BuildingBlock: ZUJKAS_clean_linker_0, # of connection points: 2
#     Edge 33, Type (0, 0), BuildingBlock: ZUJKAS_clean_linker_0, # of connection points: 2
#     Edge 34, Type (0, 0), BuildingBlock: ZUJKAS_clean_linker_0, # of connection points: 2
#     Edge 35, Type (0, 0), BuildingBlock: ZUJKAS_clean_linker_0, # of connection points: 2
#     Edge 36, Type (0, 0), BuildingBlock: ZUJKAS_clean_linker_0, # of connection points: 2
#     Edge 37, Type (0, 0), BuildingBlock: ZUJKAS_clean_linker_0, # of connection points: 2
#     Edge 38, Type (0, 0), BuildingBlock: ZUJKAS_clean_linker_0, # of connection points: 2
#     Edge 39, Type (0, 0), BuildingBlock: ZUJKAS_clean_linker_0, # of connection points: 2
#     Edge 40, Type (0, 0), BuildingBlock: ZUJKAS_clean_linker_0, # of connection points: 2
#     Edge 41, Type (0, 0), BuildingBlock: ZUJKAS_clean_linker_0, # of connection points: 2
#     Edge 42, Type (0, 0), BuildingBlock: ZUJKAS_clean_linker_0, # of connection points: 2
#     Edge 43, Type (0, 0), BuildingBlock: ZUJKAS_clean_linker_0, # of connection points: 2
#     Edge 44, Type (0, 0), BuildingBlock: ZUJKAS_clean_linker_0, # of connection points: 2
#     Edge 45, Type (0, 0), BuildingBlock: ZUJKAS_clean_linker_0, # of connection points: 2
#     Edge 46, Type (0, 0), BuildingBlock: ZUJKAS_clean_linker_0, # of connection points: 2
#     Edge 47, Type (0, 0), BuildingBlock: ZUJKAS_clean_linker_0, # of connection points: 2
#     Edge 48, Type (0, 0), BuildingBlock: ZUJKAS_clean_linker_0, # of connection points: 2
#     Edge 49, Type (0, 0), BuildingBlock: ZUJKAS_clean_linker_0, # of connection points: 2
#     Edge 50, Type (0, 0), BuildingBlock: ZUJKAS_clean_linker_0, # of connection points: 2
#     Edge 51, Type (0, 0), BuildingBlock: ZUJKAS_clean_linker_0, # of connection points: 2
#     Edge 52, Type (0, 0), BuildingBlock: ZUJKAS_clean_linker_0, # of connection points: 2
#     Edge 53, Type (0, 0), BuildingBlock: ZUJKAS_clean_linker_0, # of connection points: 2
#     Edge 54, Type (0, 0), BuildingBlock: ZUJKAS_clean_linker_0, # of connection points: 2
#     Edge 55, Type (0, 0), BuildingBlock: ZUJKAS_clean_linker_0, # of connection points: 2
#     Edge 56, Type (0, 0), BuildingBlock: ZUJKAS_clean_linker_0, # of connection points: 2
#     Edge 57, Type (0, 0), BuildingBlock: ZUJKAS_clean_linker_0, # of connection points: 2
#     Edge 58, Type (0, 0), BuildingBlock: ZUJKAS_clean_linker_0, # of connection points: 2
#     Edge 59, Type (0, 0), BuildingBlock: ZUJKAS_clean_linker_0, # of connection points: 2
#     Edge 60, Type (0, 0), BuildingBlock: ZUJKAS_clean_linker_0, # of connection points: 2
#     Edge 61, Type (0, 0), BuildingBlock: ZUJKAS_clean_linker_0, # of connection points: 2
#     Edge 62, Type (0, 0), BuildingBlock: ZUJKAS_clean_linker_0, # of connection points: 2
#     Edge 63, Type (0, 0), BuildingBlock: ZUJKAS_clean_linker_0, # of connection points: 2
#     Edge 64, Type (0, 0), BuildingBlock: ZUJKAS_clean_linker_0, # of connection points: 2
#     Edge 65, Type (0, 0), BuildingBlock: ZUJKAS_clean_linker_0, # of connection points: 2
#     Edge 66, Type (0, 0), BuildingBlock: ZUJKAS_clean_linker_0, # of connection points: 2
#     Edge 67, Type (0, 0), BuildingBlock: ZUJKAS_clean_linker_0, # of connection points: 2
#     Edge 68, Type (0, 0), BuildingBlock: ZUJKAS_clean_linker_0, # of connection points: 2
#     Edge 69, Type (0, 0), BuildingBlock: ZUJKAS_clean_linker_0, # of connection points: 2
#     Edge 70, Type (0, 0), BuildingBlock: ZUJKAS_clean_linker_0, # of connection points: 2
#     Edge 71, Type (0, 0), BuildingBlock: ZUJKAS_clean_linker_0, # of connection points: 2
# Relax obj value: 0.413
# Max RMSD: 0.238
# Mean RMSD: 0.238
data_MOF--net-lcy-a--node1-AZAVOO_clean_sbu_0--edge1-ZUJKAS_clean_linker_0
_symmetry_space_group_name_H-M    P1
_symmetry_Int_Tables_number       1
_symmetry_cell_setting            triclinic
loop_
_symmetry_equiv_pos_as_xyz
'x, y, z'
_cell_length_a     71.641342
_cell_length_b     71.629473
_cell_length_c     71.633977
_cell_angle_alpha  89.995376
_cell_angle_beta   89.995104
_cell_angle_gamma 90.00091
loop_
_atom_site_label
_atom_site_type_symbol
_atom_site_fract_x
_atom_site_fract_y
_atom_site_fract_z
_atom_type_partial_charge
Mg0 Mg 0.17821 0.32185 0.38553 0.0
O1 O 0.20368 0.30427 0.37773 0.0
O2 O 0.22533 0.32251 0.36463 0.0
Mg3 Mg 0.21407 0.35245 0.36567 0.0
C4 C 0.21949 0.30648 0.36983 0.0
C5 C 0.15022 0.2944 0.4057 0.0
O6 O 0.13791 0.30611 0.39879 0.0
O7 O 0.19327 0.33357 0.41128 0.0
O8 O 0.21441 0.35194 0.39761 0.0
O9 O 0.16867 0.31718 0.35606 0.0
O10 O 0.18543 0.34141 0.36524 0.0
C11 C 0.20683 0.34512 0.41224 0.0
C12 C 0.17853 0.33174 0.35181 0.0
O13 O 0.16746 0.29713 0.40253 0.0
Mg14 Mg 0.92301 0.92875 0.63772 0.0
O15 O 0.93979 0.9547 0.62927 0.0
O16 O 0.92087 0.97446 0.6143 0.0
Mg17 Mg 0.89134 0.96229 0.61573 0.0
C18 C 0.93702 0.96984 0.62026 0.0
C19 C 0.95927 0.90722 0.65126 0.0
O20 O 0.95794 0.89942 0.63472 0.0
O21 O 0.91022 0.94443 0.66246 0.0
O22 O 0.89158 0.96458 0.64768 0.0
O23 O 0.92857 0.9181 0.60874 0.0
O24 O 0.90354 0.93421 0.61687 0.0
C25 C 0.89843 0.95782 0.66269 0.0
C26 C 0.91358 0.92698 0.6039 0.0
O27 O 0.94735 0.91945 0.65606 0.0
Mg28 Mg 0.32413 0.67868 0.88763 0.0
O29 O 0.29765 0.69433 0.87867 0.0
O30 O 0.2791 0.6747 0.86308 0.0
Mg31 Mg 0.29244 0.64571 0.86484 0.0
C32 C 0.28289 0.69099 0.86925 0.0
C33 C 0.34765 0.70358 0.91438 0.0
O34 O 0.35882 0.68915 0.91257 0.0
O35 O 0.30847 0.66529 0.91211 0.0
O36 O 0.2895 0.64594 0.8967 0.0
O37 O 0.33508 0.68491 0.85898 0.0
O38 O 0.31992 0.65911 0.86658 0.0
C39 C 0.29556 0.65297 0.91192 0.0
C40 C 0.32677 0.6697 0.85382 0.0
O41 O 0.33219 0.70362 0.90569 0.0
Mg42 Mg 0.57454 0.07565 0.13783 0.0
O43 O 0.55726 0.05006 0.12906 0.0
O44 O 0.5761 0.03033 0.11391 0.0
Mg45 Mg 0.60585 0.04171 0.11596 0.0
C46 C 0.55994 0.03507 0.11979 0.0
C47 C 0.53368 0.0879 0.14992 0.0
O48 O 0.52973 0.08359 0.13253 0.0
O49 O 0.58653 0.05946 0.16267 0.0
O50 O 0.60495 0.03914 0.14786 0.0
O51 O 0.56956 0.08666 0.10889 0.0
O52 O 0.59411 0.0699 0.11719 0.0
C53 C 0.59802 0.04582 0.16287 0.0
C54 C 0.58437 0.07744 0.10416 0.0
O55 O 0.55033 0.086 0.15577 0.0
Mg56 Mg 0.677 0.17577 0.60918 0.0
O57 O 0.70234 0.19314 0.61809 0.0
O58 O 0.72383 0.17426 0.63054 0.0
Mg59 Mg 0.71238 0.14447 0.62875 0.0
C60 C 0.71812 0.1905 0.62592 0.0
C61 C 0.65036 0.20128 0.58545 0.0
O62 O 0.63909 0.18702 0.58797 0.0
O63 O 0.69265 0.16487 0.58343 0.0
O64 O 0.71331 0.1458 0.59687 0.0
O65 O 0.66641 0.17937 0.63843 0.0
O66 O 0.68379 0.15568 0.62904 0.0
C67 C 0.70609 0.15319 0.58234 0.0
C68 C 0.67625 0.16477 0.64256 0.0
O69 O 0.66656 0.20085 0.59265 0.0
Mg70 Mg 0.07316 0.42508 0.86354 0.0
O71 O 0.05761 0.45172 0.87223 0.0
O72 O 0.07714 0.47007 0.88819 0.0
Mg73 Mg 0.10596 0.45636 0.88713 0.0
C74 C 0.06094 0.46647 0.88168 0.0
C75 C 0.03807 0.40374 0.84767 0.0
O76 O 0.04085 0.39347 0.86261 0.0
O77 O 0.08722 0.44079 0.83955 0.0
O78 O 0.10642 0.45964 0.85528 0.0
O79 O 0.06607 0.41407 0.89195 0.0
O80 O 0.0922 0.42904 0.88512 0.0
C81 C 0.09956 0.45366 0.83995 0.0
C82 C 0.08117 0.42229 0.89757 0.0
O83 O 0.0488 0.41752 0.84453 0.0
Mg84 Mg 0.82494 0.82404 0.11772 0.0
O85 O 0.79865 0.80799 0.12641 0.0
O86 O 0.7792 0.82745 0.14108 0.0
Mg87 Mg 0.79203 0.85668 0.13923 0.0
C88 C 0.78353 0.81114 0.1353 0.0
C89 C 0.85035 0.7978 0.09395 0.0
O90 O 0.86241 0.81097 0.09814 0.0
O91 O 0.80938 0.83652 0.09273 0.0
O92 O 0.78969 0.85578 0.10733 0.0
O93 O 0.83553 0.81875 0.14673 0.0
O94 O 0.81987 0.84396 0.13823 0.0
C95 C 0.79619 0.84853 0.09239 0.0
C96 C 0.82689 0.83395 0.15135 0.0
O97 O 0.83379 0.799 0.10019 0.0
Mg98 Mg 0.42387 0.57148 0.36078 0.0
O99 O 0.44195 0.54689 0.37008 0.0
O100 O 0.42365 0.52501 0.38271 0.0
Mg101 Mg 0.39347 0.53567 0.38108 0.0
C102 C 0.43974 0.53111 0.37805 0.0
C103 C 0.45429 0.59922 0.34517 0.0
O104 O 0.44598 0.61072 0.35679 0.0
O105 O 0.41356 0.55485 0.33538 0.0
O106 O 0.39426 0.53456 0.3492 0.0
O107 O 0.42705 0.58271 0.38993 0.0
O108 O 0.40396 0.56448 0.38074 0.0
C109 C 0.40169 0.54155 0.33459 0.0
C110 C 0.41268 0.57256 0.39416 0.0
O111 O 0.4485 0.5825 0.34392 0.0
Mg112 Mg 0.38916 0.17391 0.3223 0.0
O113 O 0.38016 0.19915 0.30459 0.0
O114 O 0.36539 0.2193 0.32328 0.0
Mg115 Mg 0.36726 0.2083 0.35318 0.0
C116 C 0.37106 0.21428 0.30714 0.0
C117 C 0.40098 0.16052 0.28179 0.0
O118 O 0.38333 0.1639 0.2781 0.0
O119 O 0.41394 0.19044 0.33398 0.0
O120 O 0.39912 0.21068 0.35248 0.0
O121 O 0.3603 0.16239 0.31782 0.0
O122 O 0.36854 0.17994 0.34179 0.0
C123 C 0.41413 0.20402 0.34554 0.0
C124 C 0.35551 0.17198 0.33239 0.0
O125 O 0.4071 0.16331 0.29822 0.0
Mg126 Mg 0.0755 0.13753 0.57303 0.0
O127 O 0.0488 0.13026 0.55691 0.0
O128 O 0.0295 0.11499 0.57608 0.0
Mg129 Mg 0.04275 0.11503 0.60517 0.0
C130 C 0.03361 0.12144 0.55997 0.0
C131 C 0.09144 0.15136 0.53386 0.0
O132 O 0.09387 0.13342 0.53092 0.0
O133 O 0.06077 0.16203 0.58728 0.0
O134 O 0.04113 0.14698 0.60624 0.0
O135 O 0.08527 0.10856 0.56592 0.0
O136 O 0.0703 0.11604 0.59184 0.0
C137 C 0.04791 0.1621 0.59963 0.0
C138 C 0.07676 0.10332 0.58099 0.0
O139 O 0.08441 0.15677 0.54923 0.0
Mg140 Mg 0.11208 0.82584 0.82018 0.0
O141 O 0.12004 0.79901 0.80467 0.0
O142 O 0.13505 0.77999 0.82429 0.0
Mg143 Mg 0.13415 0.79364 0.85319 0.0
C144 C 0.12889 0.78391 0.80802 0.0
C145 C 0.09394 0.85074 0.78901 0.0
O146 O 0.10489 0.86325 0.79676 0.0
O147 O 0.08728 0.81099 0.83391 0.0
O148 O 0.10222 0.79182 0.85343 0.0
O149 O 0.14107 0.83584 0.81371 0.0
O150 O 0.13313 0.82108 0.83962 0.0
C151 C 0.08715 0.79828 0.84643 0.0
C152 C 0.14605 0.82752 0.82897 0.0
O153 O 0.09393 0.83417 0.79538 0.0
Mg154 Mg 0.4245 0.86541 0.07583 0.0
O155 O 0.45076 0.87394 0.05955 0.0
O156 O 0.46967 0.88988 0.07856 0.0
Mg157 Mg 0.45671 0.88896 0.10774 0.0
C158 C 0.46563 0.88333 0.06247 0.0
C159 C 0.40043 0.84775 0.0436 0.0
O160 O 0.38871 0.86079 0.04898 0.0
O161 O 0.4405 0.84137 0.0895 0.0
O162 O 0.45985 0.85711 0.10818 0.0
O163 O 0.4134 0.89389 0.06905 0.0
O164 O 0.42904 0.88697 0.09474 0.0
C165 C 0.45367 0.84177 0.10151 0.0
C166 C 0.42199 0.89945 0.08396 0.0
O167 O 0.41615 0.84639 0.05171 0.0
Mg168 Mg 0.8901 0.32251 0.67538 0.0
O169 O 0.88108 0.29684 0.69229 0.0
O170 O 0.86672 0.27675 0.67323 0.0
Mg171 Mg 0.86898 0.2885 0.64361 0.0
C172 C 0.87219 0.28163 0.68948 0.0
C173 C 0.90554 0.34811 0.70765 0.0
O174 O 0.89278 0.35953 0.70108 0.0
O175 O 0.91518 0.3065 0.66368 0.0
O176 O 0.90087 0.28632 0.64473 0.0
O177 O 0.86109 0.33355 0.67984 0.0
O178 O 0.86979 0.31675 0.65548 0.0
C179 C 0.9157 0.29306 0.65197 0.0
C180 C 0.85656 0.32424 0.66501 0.0
O181 O 0.90752 0.33214 0.70019 0.0
Mg182 Mg 0.92951 0.64115 0.92854 0.0
O183 O 0.95587 0.63295 0.94474 0.0
O184 O 0.97533 0.61803 0.92548 0.0
Mg185 Mg 0.96242 0.61914 0.89625 0.0
C186 C 0.97102 0.62407 0.9417 0.0
C187 C 0.90407 0.65902 0.95943 0.0
O188 O 0.8918 0.64775 0.95177 0.0
O189 O 0.94477 0.66593 0.9153 0.0
O190 O 0.9644 0.65109 0.89616 0.0
O191 O 0.9191 0.61221 0.93456 0.0
O192 O 0.93463 0.62019 0.9091 0.0
C193 C 0.95778 0.66613 0.9031 0.0
C194 C 0.92772 0.60727 0.91945 0.0
O195 O 0.92065 0.65928 0.95314 0.0
Mg196 Mg 0.61093 0.67928 0.17995 0.0
O197 O 0.62039 0.70542 0.19591 0.0
O198 O 0.63672 0.72358 0.17648 0.0
Mg199 Mg 0.6346 0.71067 0.14735 0.0
C200 C 0.63032 0.71989 0.19271 0.0
C201 C 0.5961 0.65933 0.21653 0.0
O202 O 0.6122 0.65063 0.21542 0.0
O203 O 0.58705 0.69564 0.16655 0.0
O204 O 0.6028 0.71466 0.14753 0.0
O205 O 0.63927 0.66763 0.18633 0.0
O206 O 0.63222 0.68314 0.16058 0.0
C207 C 0.58748 0.70878 0.1545 0.0
C208 C 0.64474 0.67593 0.17121 0.0
O209 O 0.59201 0.67159 0.20438 0.0
Mg210 Mg 0.57296 0.36206 0.42354 0.0
O211 O 0.54665 0.37087 0.43962 0.0
O212 O 0.52767 0.38607 0.42007 0.0
Mg213 Mg 0.54057 0.38432 0.39091 0.0
C214 C 0.53174 0.3801 0.43637 0.0
C215 C 0.59742 0.34458 0.45559 0.0
O216 O 0.60962 0.35668 0.44917 0.0
O217 O 0.55735 0.33752 0.41043 0.0
O218 O 0.53801 0.35239 0.39105 0.0
O219 O 0.58406 0.39074 0.42941 0.0
O220 O 0.56825 0.38308 0.40405 0.0
C221 C 0.54441 0.33735 0.39817 0.0
C222 C 0.57539 0.39589 0.4144 0.0
O223 O 0.58134 0.34376 0.44816 0.0
Mg224 Mg 0.3277 0.38336 0.17107 0.0
O225 O 0.31206 0.37516 0.19782 0.0
O226 O 0.33161 0.359 0.21601 0.0
Mg227 Mg 0.36042 0.35931 0.20211 0.0
C228 C 0.31544 0.36571 0.21257 0.0
C229 C 0.2882 0.39777 0.15691 0.0
O230 O 0.28486 0.37984 0.15504 0.0
O231 O 0.34228 0.4071 0.18665 0.0
O232 O 0.36195 0.3912 0.20489 0.0
O233 O 0.32005 0.35497 0.16022 0.0
O234 O 0.34634 0.36143 0.17503 0.0
C235 C 0.35514 0.40658 0.19899 0.0
C236 C 0.3351 0.34914 0.16839 0.0
O237 O 0.30395 0.40307 0.16314 0.0
Mg238 Mg 0.82157 0.11325 0.8263 0.0
O239 O 0.80489 0.12186 0.80045 0.0
O240 O 0.82404 0.13541 0.77989 0.0
Mg241 Mg 0.85351 0.13417 0.79226 0.0
C242 C 0.80779 0.13009 0.78492 0.0
C243 C 0.79502 0.09109 0.85298 0.0
O244 O 0.80811 0.09585 0.8649 0.0
O245 O 0.83352 0.0879 0.81065 0.0
O246 O 0.85264 0.10232 0.79069 0.0
O247 O 0.81681 0.14243 0.83671 0.0
O248 O 0.84148 0.13357 0.82042 0.0
C249 C 0.84546 0.08744 0.79739 0.0
C250 C 0.83177 0.14685 0.82757 0.0
O251 O 0.7965 0.09623 0.83606 0.0
Mg252 Mg 0.14021 0.57093 0.07456 0.0
O253 O 0.13014 0.55513 0.04858 0.0
O254 O 0.11459 0.57492 0.03015 0.0
Mg255 Mg 0.11777 0.6041 0.04277 0.0
C256 C 0.12039 0.55852 0.03404 0.0
C257 C 0.16159 0.54271 0.09986 0.0
O258 O 0.15564 0.55463 0.11246 0.0
O259 O 0.1648 0.58313 0.05805 0.0
O260 O 0.1495 0.60259 0.0391 0.0
O261 O 0.11155 0.56602 0.08621 0.0
O262 O 0.11982 0.59124 0.07045 0.0
C263 C 0.16465 0.59518 0.04488 0.0
C264 C 0.10682 0.58133 0.07781 0.0
O265 O 0.15747 0.54546 0.08282 0.0
Mg266 Mg 0.67486 0.89088 0.32775 0.0
O267 O 0.69212 0.88261 0.30201 0.0
O268 O 0.67364 0.86703 0.28228 0.0
Mg269 Mg 0.644 0.86789 0.2941 0.0
C270 C 0.68963 0.87339 0.28694 0.0
C271 C 0.7153 0.90369 0.33991 0.0
O272 O 0.71918 0.88614 0.33621 0.0
O273 O 0.66192 0.91528 0.31156 0.0
O274 O 0.64377 0.89977 0.29152 0.0
O275 O 0.68101 0.86221 0.33876 0.0
O276 O 0.65602 0.8695 0.32218 0.0
C277 C 0.65027 0.91504 0.29805 0.0
C278 C 0.66642 0.85686 0.32952 0.0
O279 O 0.69869 0.90954 0.33772 0.0
Mg280 Mg 0.36062 0.42374 0.57354 0.0
O281 O 0.36826 0.44132 0.54795 0.0
O282 O 0.38244 0.42318 0.52691 0.0
Mg283 Mg 0.38227 0.39339 0.53856 0.0
C284 C 0.37657 0.43912 0.53234 0.0
C285 C 0.34576 0.45725 0.59824 0.0
O286 O 0.36069 0.45336 0.60816 0.0
O287 O 0.33568 0.41088 0.55812 0.0
O288 O 0.35033 0.39272 0.53746 0.0
O289 O 0.38969 0.42967 0.58361 0.0
O290 O 0.38174 0.40489 0.56701 0.0
C291 C 0.33535 0.39915 0.54469 0.0
C292 C 0.39466 0.41514 0.57406 0.0
O293 O 0.34229 0.4477 0.58369 0.0
Mg294 Mg 0.17703 0.61122 0.67706 0.0
O295 O 0.19298 0.62092 0.70306 0.0
O296 O 0.17352 0.63675 0.7216 0.0
Mg297 Mg 0.14434 0.63433 0.7088 0.0
C298 C 0.1898 0.63063 0.71767 0.0
C299 C 0.2107 0.59497 0.65393 0.0
O300 O 0.20563 0.60827 0.64237 0.0
O301 O 0.16421 0.58705 0.69354 0.0
O302 O 0.14507 0.60255 0.71266 0.0
O303 O 0.18274 0.63972 0.66538 0.0
O304 O 0.15729 0.63212 0.68112 0.0
C305 C 0.15224 0.58732 0.70676 0.0
C306 C 0.16757 0.64485 0.67377 0.0
O307 O 0.20188 0.59295 0.66919 0.0
Mg308 Mg 0.63957 0.92367 0.92882 0.0
O309 O 0.63151 0.94138 0.95432 0.0
O310 O 0.61598 0.92322 0.97438 0.0
Mg311 Mg 0.61656 0.8934 0.96295 0.0
C312 C 0.62239 0.93913 0.96948 0.0
C313 C 0.65305 0.96337 0.91441 0.0
O314 O 0.63521 0.96739 0.9157 0.0
O315 O 0.66386 0.91072 0.94505 0.0
O316 O 0.64846 0.89292 0.96548 0.0
O317 O 0.61086 0.92982 0.91782 0.0
O318 O 0.61814 0.90501 0.93468 0.0
C319 C 0.66369 0.89927 0.95872 0.0
C320 C 0.60552 0.91527 0.92714 0.0
O321 O 0.65862 0.94709 0.91872 0.0
Mg322 Mg 0.86184 0.07617 0.4232 0.0
O323 O 0.86847 0.05939 0.4497 0.0
O324 O 0.88283 0.07827 0.46995 0.0
Mg325 Mg 0.88301 0.10768 0.45743 0.0
C326 C 0.87671 0.06219 0.46526 0.0
C327 C 0.849 0.03558 0.41089 0.0
O328 O 0.86638 0.03137 0.41498 0.0
O329 O 0.83667 0.0897 0.43759 0.0
O330 O 0.85103 0.10842 0.45797 0.0
O331 O 0.89116 0.06976 0.41398 0.0
O332 O 0.8829 0.09509 0.42956 0.0
C333 C 0.83616 0.10183 0.45067 0.0
C334 C 0.89595 0.08468 0.42301 0.0
O335 O 0.84344 0.05232 0.41282 0.0
H336 H 0.10909 0.1451 0.50046 0.0
H337 H 0.11957 0.16842 0.47773 0.0
H338 H 0.09709 0.21231 0.51225 0.0
H339 H 0.08682 0.18922 0.53513 0.0
H340 H 0.09939 0.19506 0.45762 0.0
H341 H 0.15113 0.22877 0.50431 0.0
H342 H 0.14075 0.2064 0.50949 0.0
H343 H 0.12808 0.22759 0.51409 0.0
C344 C 0.10638 0.15971 0.50323 0.0
C345 C 0.09726 0.16529 0.5197 0.0
C346 C 0.11236 0.17301 0.49021 0.0
C347 C 0.10939 0.19211 0.49347 0.0
C348 C 0.0999 0.19768 0.50966 0.0
H349 H 0.11465 0.28507 0.41617 0.0
H350 H 0.10496 0.25949 0.43661 0.0
C351 C 0.09396 0.18443 0.52269 0.0
C352 C 0.11614 0.20626 0.47993 0.0
H353 H 0.14407 0.24468 0.47601 0.0
C354 C 0.10924 0.20586 0.46159 0.0
C355 C 0.12918 0.22017 0.48507 0.0
C356 C 0.13788 0.22071 0.50426 0.0
C357 C 0.11468 0.2193 0.44838 0.0
C358 C 0.12714 0.23366 0.45376 0.0
C359 C 0.13438 0.23377 0.47196 0.0
C360 C 0.13289 0.24874 0.44077 0.0
C361 C 0.10723 0.21789 0.42874 0.0
C362 C 0.15183 0.2514 0.43658 0.0
C363 C 0.15743 0.26609 0.42501 0.0
C364 C 0.14419 0.27849 0.41748 0.0
C365 C 0.1252 0.27574 0.42166 0.0
C366 C 0.11962 0.26104 0.43325 0.0
H367 H 0.10212 0.20359 0.42557 0.0
H368 H 0.09533 0.22767 0.4271 0.0
H369 H 0.11809 0.22171 0.41836 0.0
H370 H 0.16231 0.24213 0.44232 0.0
H371 H 0.17217 0.2678 0.42211 0.0
H372 H 0.98644 0.88077 0.64609 0.0
H373 H 0.01005 0.87048 0.66858 0.0
H374 H 0.98942 0.91035 0.70867 0.0
H375 H 0.96568 0.92059 0.68644 0.0
H376 H 0.03839 0.89091 0.68682 0.0
H377 H 0.98798 0.86061 0.73724 0.0
H378 H 0.9816 0.86659 0.7136 0.0
H379 H 0.98325 0.88446 0.73114 0.0
C380 C 0.98692 0.88736 0.65969 0.0
C381 C 0.97407 0.90141 0.66451 0.0
C382 C 0.00044 0.88147 0.67251 0.0
C383 C 0.00128 0.88944 0.69038 0.0
C384 C 0.98877 0.90375 0.69508 0.0
H385 H 0.08971 0.88508 0.77279 0.0
H386 H 0.06789 0.89392 0.74807 0.0
C387 C 0.97526 0.90965 0.6823 0.0
C388 C 0.01522 0.88282 0.70416 0.0
H389 H 0.01941 0.86336 0.74747 0.0
C390 C 0.03427 0.88481 0.70005 0.0
C391 C 0.00979 0.87462 0.72129 0.0
C392 C 0.98955 0.87125 0.72607 0.0
C393 C 0.04806 0.87922 0.71284 0.0
C394 C 0.0426 0.87168 0.73026 0.0
C395 C 0.02356 0.8693 0.73417 0.0
C396 C 0.05639 0.86619 0.74471 0.0
C397 C 0.06833 0.88125 0.7075 0.0
C398 C 0.05696 0.84773 0.75124 0.0
C399 C 0.06933 0.84265 0.76545 0.0
C400 C 0.0813 0.85598 0.77349 0.0
C401 C 0.08075 0.87445 0.76685 0.0
C402 C 0.06836 0.87951 0.75263 0.0
H403 H 0.07012 0.88246 0.69214 0.0
H404 H 0.07404 0.89411 0.71399 0.0
H405 H 0.07665 0.86918 0.71256 0.0
H406 H 0.04776 0.83725 0.74537 0.0
H407 H 0.06937 0.8283 0.77024 0.0
H408 H 0.37977 0.70792 0.93453 0.0
H409 H 0.38805 0.73368 0.95534 0.0
H410 H 0.33587 0.76088 0.94272 0.0
H411 H 0.32735 0.7351 0.92199 0.0
H412 H 0.39125 0.77239 0.94696 0.0
H413 H 0.33656 0.75848 0.00025 0.0
H414 H 0.34307 0.74152 0.98278 0.0
H415 H 0.32827 0.76082 0.97669 0.0
C416 C 0.37002 0.71936 0.93618 0.0
C417 C 0.35285 0.71939 0.92667 0.0
C418 C 0.3748 0.73408 0.94806 0.0
C419 C 0.36247 0.74905 0.95075 0.0
C420 C 0.34544 0.74929 0.94108 0.0
H421 H 0.36798 0.84658 0.02342 0.0
H422 H 0.35891 0.82357 0.99984 0.0
C423 C 0.34065 0.73458 0.92917 0.0
C424 C 0.36754 0.76443 0.96362 0.0
H425 H 0.355 0.78548 0.0045 0.0
C426 C 0.38334 0.77527 0.95955 0.0
C427 C 0.35714 0.76818 0.97998 0.0
C428 C 0.34039 0.75657 0.98534 0.0
C429 C 0.38898 0.78986 0.97137 0.0
C430 C 0.37874 0.79343 0.98788 0.0
C431 C 0.36281 0.78273 0.99182 0.0
C432 C 0.38462 0.80782 0.00156 0.0
C433 C 0.4057 0.80146 0.96593 0.0
C434 C 0.40204 0.80653 0.01042 0.0
C435 C 0.40728 0.81967 0.02385 0.0
C436 C 0.39513 0.83427 0.02883 0.0
C437 C 0.37769 0.83554 0.0199 0.0
C438 C 0.37247 0.8224 0.00643 0.0
H439 H 0.40854 0.8006 0.9507 0.0
H440 H 0.40367 0.81634 0.96978 0.0
H441 H 0.4182 0.79618 0.97339 0.0
H442 H 0.41146 0.79516 0.00719 0.0
H443 H 0.42077 0.8182 0.03053 0.0
H444 H 0.49676 0.09434 0.14207 0.0
H445 H 0.47299 0.10742 0.16292 0.0
H446 H 0.51365 0.11103 0.20714 0.0
H447 H 0.53748 0.09819 0.18645 0.0
H448 H 0.46013 0.09403 0.19769 0.0
H449 H 0.49231 0.16408 0.20467 0.0
H450 H 0.49901 0.14781 0.18663 0.0
H451 H 0.50801 0.14526 0.20993 0.0
C452 C 0.50065 0.09795 0.15622 0.0
C453 C 0.51907 0.09535 0.16254 0.0
C454 C 0.48705 0.10541 0.16811 0.0
C455 C 0.49165 0.1105 0.18646 0.0
C456 C 0.50991 0.10758 0.1929 0.0
H457 H 0.43814 0.15254 0.28495 0.0
H458 H 0.45905 0.14044 0.2609 0.0
C459 C 0.52349 0.10014 0.18107 0.0
C460 C 0.47737 0.1186 0.19906 0.0
H461 H 0.46802 0.15668 0.22617 0.0
C462 C 0.46171 0.1078 0.20378 0.0
C463 C 0.47948 0.1366 0.20693 0.0
C464 C 0.49551 0.14921 0.20166 0.0
C465 C 0.44847 0.11424 0.21675 0.0
C466 C 0.45085 0.13204 0.22496 0.0
C467 C 0.46628 0.143 0.2199 0.0
C468 C 0.4379 0.13931 0.23937 0.0
C469 C 0.43243 0.10167 0.22208 0.0
C470 C 0.4191 0.14289 0.23518 0.0
C471 C 0.40706 0.14982 0.24893 0.0
C472 C 0.41366 0.15336 0.26709 0.0
C473 C 0.43257 0.14993 0.27114 0.0
C474 C 0.44456 0.14303 0.25741 0.0
H475 H 0.43481 0.08701 0.2176 0.0
H476 H 0.43014 0.10188 0.23741 0.0
H477 H 0.41949 0.10674 0.21524 0.0
H478 H 0.41376 0.14044 0.22125 0.0
H479 H 0.39261 0.1524 0.24532 0.0
H480 H 0.61682 0.20672 0.56795 0.0
H481 H 0.60805 0.23249 0.54727 0.0
H482 H 0.662 0.2578 0.55565 0.0
H483 H 0.67097 0.23208 0.57622 0.0
H484 H 0.60734 0.27199 0.55449 0.0
H485 H 0.65733 0.25286 0.49829 0.0
H486 H 0.65098 0.23694 0.51678 0.0
H487 H 0.66735 0.25543 0.52114 0.0
C488 C 0.62682 0.21778 0.56544 0.0
C489 C 0.64465 0.21727 0.57364 0.0
C490 C 0.62176 0.2325 0.55364 0.0
C491 C 0.63447 0.24688 0.54974 0.0
C492 C 0.65211 0.24665 0.55824 0.0
H493 H 0.63073 0.34202 0.47417 0.0
H494 H 0.63952 0.31931 0.49815 0.0
C495 C 0.65717 0.23198 0.57006 0.0
C496 C 0.62934 0.26201 0.53663 0.0
H497 H 0.64048 0.28092 0.49432 0.0
C498 C 0.61455 0.27396 0.54132 0.0
C499 C 0.63884 0.26454 0.5195 0.0
C500 C 0.65442 0.2517 0.51348 0.0
C501 C 0.60909 0.28853 0.52939 0.0
C502 C 0.61847 0.29094 0.51216 0.0
C503 C 0.63336 0.27907 0.50756 0.0
C504 C 0.61275 0.30534 0.49843 0.0
C505 C 0.59355 0.30138 0.53546 0.0
C506 C 0.5948 0.30496 0.49059 0.0
C507 C 0.58973 0.31792 0.47693 0.0
C508 C 0.60256 0.33142 0.4707 0.0
C509 C 0.6205 0.33183 0.47866 0.0
C510 C 0.62556 0.31886 0.49236 0.0
H511 H 0.59157 0.30109 0.55084 0.0
H512 H 0.59633 0.31599 0.53106 0.0
H513 H 0.5803 0.29679 0.52888 0.0
H514 H 0.58483 0.29439 0.49476 0.0
H515 H 0.57582 0.31714 0.47103 0.0
H516 H 0.90583 0.38156 0.72619 0.0
H517 H 0.9275 0.39164 0.75064 0.0
H518 H 0.95496 0.33813 0.74853 0.0
H519 H 0.93354 0.32797 0.72401 0.0
H520 H 0.93513 0.37585 0.78621 0.0
H521 H 0.99759 0.37587 0.74032 0.0
H522 H 0.97409 0.37501 0.73125 0.0
H523 H 0.98483 0.35428 0.74044 0.0
C524 C 0.91646 0.37192 0.73094 0.0
C525 C 0.91805 0.35401 0.72303 0.0
C526 C 0.9288 0.3777 0.74493 0.0
C527 C 0.94299 0.36573 0.75117 0.0
C528 C 0.94432 0.3477 0.74365 0.0
H529 H 0.01327 0.37469 0.8495 0.0
H530 H 0.98949 0.36614 0.82652 0.0
C531 C 0.932 0.3419 0.72969 0.0
C532 C 0.95652 0.37212 0.76544 0.0
H533 H 0.00293 0.38011 0.77273 0.0
C534 C 0.94995 0.37685 0.78328 0.0
C535 C 0.9758 0.37364 0.76147 0.0
C536 C 0.98354 0.36961 0.74229 0.0
C537 C 0.96223 0.38271 0.79741 0.0
C538 C 0.98158 0.38364 0.7936 0.0
C539 C 0.98809 0.37924 0.77565 0.0
C540 C 0.99539 0.38924 0.80796 0.0
C541 C 0.95437 0.3881 0.81619 0.0
C542 C 0.00677 0.4049 0.80502 0.0
C543 C 0.02043 0.40977 0.81805 0.0
C544 C 0.02307 0.39897 0.83425 0.0
C545 C 0.01156 0.38334 0.83722 0.0
C546 C 0.99788 0.37849 0.82415 0.0
H547 H 0.9392 0.39121 0.81539 0.0
H548 H 0.95633 0.37635 0.82609 0.0
H549 H 0.96171 0.4005 0.82192 0.0
H550 H 0.00512 0.41333 0.79256 0.0
H551 H 0.02905 0.42188 0.81531 0.0
H552 H 0.88455 0.7911 0.07833 0.0
H553 H 0.89304 0.76613 0.05662 0.0
H554 H 0.83708 0.74419 0.05972 0.0
H555 H 0.82838 0.76919 0.08131 0.0
H556 H 0.89094 0.72661 0.06132 0.0
H557 H 0.84597 0.75175 0.00328 0.0
H558 H 0.85183 0.76617 0.0231 0.0
H559 H 0.83427 0.74839 0.02522 0.0
C560 C 0.87403 0.78096 0.07442 0.0
C561 C 0.85574 0.78222 0.08146 0.0
C562 C 0.87893 0.76669 0.06204 0.0
C563 C 0.86562 0.7535 0.05637 0.0
C564 C 0.84747 0.75444 0.06367 0.0
H565 H 0.86971 0.6625 0.9758 0.0
H566 H 0.8604 0.68442 0.0003 0.0
C567 C 0.84256 0.76869 0.07608 0.0
C568 C 0.87073 0.73882 0.04273 0.0
H569 H 0.86158 0.72307 0.99869 0.0
C570 C 0.88455 0.72581 0.04762 0.0
C571 C 0.86232 0.73782 0.0249 0.0
C572 C 0.84788 0.75185 0.01868 0.0
C573 C 0.89007 0.71171 0.03517 0.0
C574 C 0.8818 0.71084 0.01725 0.0
C575 C 0.86787 0.72375 0.01245 0.0
C576 C 0.88772 0.69698 0.00306 0.0
C577 C 0.90451 0.6977 0.04141 0.0
C578 C 0.90615 0.69684 0.99642 0.0
C579 C 0.91153 0.68433 0.98246 0.0
C580 C 0.89853 0.67179 0.97474 0.0
C581 C 0.88008 0.67193 0.98146 0.0
C582 C 0.87472 0.68446 0.99545 0.0
H583 H 0.90549 0.697 0.05688 0.0
H584 H 0.90128 0.68354 0.03599 0.0
H585 H 0.91838 0.70192 0.03596 0.0
H586 H 0.91631 0.70666 0.00181 0.0
H587 H 0.92582 0.68467 0.97754 0.0
H588 H 0.56154 0.67445 0.22232 0.0
H589 H 0.53841 0.66534 0.24566 0.0
H590 H 0.57622 0.62371 0.26713 0.0
H591 H 0.59958 0.63287 0.24394 0.0
H592 H 0.52223 0.63041 0.24946 0.0
H593 H 0.55904 0.65108 0.31444 0.0
H594 H 0.56603 0.6593 0.29165 0.0
H595 H 0.57239 0.63624 0.29925 0.0
C596 C 0.56504 0.66347 0.2321 0.0
C597 C 0.58243 0.65439 0.23126 0.0
C598 C 0.55178 0.65828 0.24543 0.0
C599 C 0.55567 0.644 0.25826 0.0
C600 C 0.57307 0.63501 0.25759 0.0
H601 H 0.47441 0.57889 0.31988 0.0
H602 H 0.49918 0.58993 0.2992 0.0
C603 C 0.58636 0.64019 0.24425 0.0
C604 C 0.5411 0.63788 0.27162 0.0
H605 H 0.53142 0.63297 0.31806 0.0
C606 C 0.52421 0.63102 0.26446 0.0
C607 C 0.54366 0.63889 0.29118 0.0
C608 C 0.56118 0.64693 0.29965 0.0
C609 C 0.50989 0.62486 0.27632 0.0
C610 C 0.51267 0.62531 0.29586 0.0
C611 C 0.52942 0.63248 0.30306 0.0
C612 C 0.49824 0.61848 0.30902 0.0
C613 C 0.49181 0.61817 0.26782 0.0
C614 C 0.48989 0.63075 0.3218 0.0
C615 C 0.47575 0.62447 0.33372 0.0
C616 C 0.46979 0.60577 0.33313 0.0
C617 C 0.47854 0.59342 0.32061 0.0
C618 C 0.49266 0.59971 0.30872 0.0
H619 H 0.49015 0.62311 0.25321 0.0
H620 H 0.49169 0.60268 0.26766 0.0
H621 H 0.47965 0.62301 0.27612 0.0
H622 H 0.49408 0.64528 0.3223 0.0
H623 H 0.46936 0.63433 0.34324 0.0
H624 H 0.25386 0.39161 0.14117 0.0
H625 H 0.23128 0.41502 0.1306 0.0
H626 H 0.26788 0.45896 0.14938 0.0
H627 H 0.2906 0.43576 0.15974 0.0
H628 H 0.21282 0.44307 0.15039 0.0
H629 H 0.25776 0.47312 0.095 0.0
H630 H 0.26286 0.4511 0.10614 0.0
H631 H 0.26866 0.4727 0.11756 0.0
C632 C 0.25711 0.40625 0.14305 0.0
C633 C 0.27411 0.4118 0.15116 0.0
C634 C 0.24418 0.4196 0.13701 0.0
C635 C 0.24806 0.43872 0.1389 0.0
C636 C 0.26479 0.44428 0.1474 0.0
H637 H 0.17384 0.53364 0.13485 0.0
H638 H 0.19387 0.50753 0.14385 0.0
C639 C 0.27772 0.43098 0.15341 0.0
C640 C 0.23457 0.4529 0.13213 0.0
H641 H 0.23039 0.4903 0.10287 0.0
C642 C 0.2166 0.45333 0.13992 0.0
C643 C 0.23944 0.46608 0.11825 0.0
C644 C 0.25816 0.46567 0.1086 0.0
C645 C 0.20354 0.46695 0.13459 0.0
C646 C 0.20872 0.48067 0.12135 0.0
C647 C 0.2265 0.47989 0.11316 0.0
C648 C 0.19604 0.49614 0.11596 0.0
C649 C 0.18427 0.46645 0.14309 0.0
C650 C 0.19092 0.49866 0.09721 0.0
C651 C 0.17958 0.51367 0.09198 0.0
C652 C 0.17324 0.52653 0.1054 0.0
C653 C 0.17839 0.52395 0.12417 0.0
C654 C 0.18974 0.50895 0.12938 0.0
H655 H 0.18084 0.45236 0.14861 0.0
H656 H 0.18365 0.47646 0.15488 0.0
H657 H 0.17348 0.47049 0.13272 0.0
H658 H 0.19573 0.489 0.08661 0.0
H659 H 0.1759 0.51525 0.0774 0.0
H660 H 0.64593 0.99878 0.90168 0.0
H661 H 0.66854 0.02171 0.89014 0.0
H662 H 0.7134 0.98309 0.90106 0.0
H663 H 0.69098 0.96003 0.91229 0.0
H664 H 0.69856 0.03824 0.90793 0.0
H665 H 0.72246 0.99735 0.84678 0.0
H666 H 0.70165 0.99147 0.85972 0.0
H667 H 0.72425 0.98469 0.86833 0.0
C668 C 0.6606 0.99514 0.90158 0.0
C669 C 0.66663 0.97751 0.90777 0.0
C670 C 0.6735 0.00827 0.89499 0.0
C671 C 0.69261 0.00397 0.89442 0.0
C672 C 0.69868 0.98653 0.90094 0.0
H673 H 0.78838 0.07667 0.88771 0.0
H674 H 0.76252 0.05663 0.89739 0.0
C675 C 0.68583 0.9734 0.90747 0.0
C676 C 0.7063 0.01778 0.88732 0.0
H677 H 0.74114 0.02359 0.85531 0.0
C678 C 0.70778 0.03512 0.89633 0.0
C679 C 0.71811 0.0138 0.87199 0.0
C680 C 0.71645 0.99589 0.86101 0.0
C681 C 0.72118 0.04834 0.89082 0.0
C682 C 0.73362 0.04394 0.87612 0.0
C683 C 0.73173 0.02686 0.86672 0.0
C684 C 0.74891 0.0567 0.87042 0.0
C685 C 0.7218 0.06692 0.90072 0.0
C686 C 0.75006 0.0631 0.85194 0.0
C687 C 0.76492 0.07443 0.84631 0.0
C688 C 0.77899 0.07951 0.85905 0.0
C689 C 0.77775 0.07311 0.87757 0.0
C690 C 0.7629 0.06176 0.88317 0.0
H691 H 0.70828 0.07018 0.90758 0.0
H692 H 0.73271 0.06647 0.9117 0.0
H693 H 0.72528 0.07839 0.89088 0.0
H694 H 0.73947 0.05927 0.84184 0.0
H695 H 0.76545 0.07909 0.83193 0.0
H696 H 0.71181 0.94066 0.34871 0.0
H697 H 0.73584 0.96163 0.36079 0.0
H698 H 0.77591 0.91674 0.35949 0.0
H699 H 0.75201 0.89566 0.34715 0.0
H700 H 0.75624 0.95786 0.39385 0.0
H701 H 0.80303 0.95898 0.33195 0.0
H702 H 0.77934 0.95045 0.33086 0.0
H703 H 0.79744 0.93614 0.34069 0.0
C704 C 0.72575 0.93524 0.35088 0.0
C705 C 0.72999 0.91647 0.34691 0.0
C706 C 0.73946 0.94725 0.35781 0.0
C707 C 0.75771 0.9408 0.36083 0.0
C708 C 0.76201 0.92209 0.35693 0.0
H709 H 0.85632 0.99864 0.40395 0.0
H710 H 0.83452 0.97484 0.39257 0.0
C711 C 0.74829 0.91004 0.34997 0.0
C712 C 0.77199 0.95361 0.3686 0.0
H713 H 0.81355 0.9749 0.35889 0.0
C714 C 0.76877 0.96158 0.38621 0.0
C715 C 0.78838 0.95836 0.35865 0.0
C716 C 0.79226 0.95069 0.33942 0.0
C717 C 0.78148 0.97421 0.39414 0.0
C718 C 0.79769 0.97923 0.38404 0.0
C719 C 0.8011 0.97101 0.36659 0.0
C720 C 0.81087 0.99356 0.39106 0.0
C721 C 0.77753 0.98196 0.41332 0.0
C722 C 0.80484 0.01199 0.39375 0.0
C723 C 0.81722 0.02559 0.40022 0.0
C724 C 0.83594 0.02106 0.40405 0.0
C725 C 0.84199 0.00259 0.40119 0.0
C726 C 0.82958 0.98898 0.39467 0.0
H727 H 0.76756 0.97303 0.42117 0.0
H728 H 0.79057 0.98331 0.42159 0.0
H729 H 0.77122 0.99604 0.41192 0.0
H730 H 0.79056 0.0159 0.3907 0.0
H731 H 0.81209 0.03968 0.40217 0.0
H732 H 0.23166 0.59451 0.62196 0.0
H733 H 0.25555 0.57177 0.61304 0.0
H734 H 0.24824 0.54327 0.66555 0.0
H735 H 0.22422 0.56578 0.67454 0.0
H736 H 0.28945 0.56159 0.63074 0.0
H737 H 0.2399 0.50211 0.62631 0.0
H738 H 0.23224 0.52609 0.6273 0.0
H739 H 0.23963 0.51434 0.6482 0.0
C740 C 0.23515 0.58344 0.63164 0.0
C741 C 0.2259 0.58187 0.64889 0.0
C742 C 0.24884 0.57048 0.62653 0.0
C743 C 0.25344 0.55569 0.63851 0.0
C744 C 0.24464 0.55439 0.65596 0.0
H745 H 0.34812 0.47966 0.62917 0.0
H746 H 0.32624 0.50402 0.63897 0.0
C747 C 0.23096 0.56732 0.66109 0.0
C748 C 0.26724 0.54144 0.63263 0.0
H749 H 0.272 0.495 0.62303 0.0
C750 C 0.28567 0.54703 0.62903 0.0
C751 C 0.26218 0.52251 0.63021 0.0
C752 C 0.24238 0.51586 0.63303 0.0
C753 C 0.29926 0.5341 0.62327 0.0
C754 C 0.29429 0.51509 0.62128 0.0
C755 C 0.27581 0.50956 0.62471 0.0
C756 C 0.30788 0.50071 0.61521 0.0
C757 C 0.31871 0.54096 0.61899 0.0
C758 C 0.30465 0.49056 0.59879 0.0
C759 C 0.31703 0.47656 0.59322 0.0
C760 C 0.33288 0.47237 0.60402 0.0
C761 C 0.3361 0.48259 0.62048 0.0
C762 C 0.32368 0.49659 0.62605 0.0
H763 H 0.31905 0.55631 0.61678 0.0
H764 H 0.32801 0.53764 0.63092 0.0
H765 H 0.32439 0.53399 0.60637 0.0
H766 H 0.2925 0.49347 0.59026 0.0
H767 H 0.3141 0.46897 0.58047 0.0
H768 H 0.29968 0.41005 0.55444 0.0
H769 H 0.27024 0.39987 0.54008 0.0
H770 H 0.30096 0.36408 0.50265 0.0
H771 H 0.33004 0.37374 0.51693 0.0
H772 H 0.25926 0.40454 0.50459 0.0
H773 H 0.26032 0.32916 0.51895 0.0
H774 H 0.2751 0.34537 0.53139 0.0
H775 H 0.28231 0.33592 0.50918 0.0
C776 C 0.30011 0.39982 0.54333 0.0
C777 C 0.31727 0.39272 0.53688 0.0
C778 C 0.28328 0.39399 0.53517 0.0
C779 C 0.28335 0.38085 0.5206 0.0
C780 C 0.30045 0.37374 0.51428 0.0
H781 H 0.23467 0.37014 0.41874 0.0
H782 H 0.24817 0.37925 0.44836 0.0
C783 C 0.31716 0.37949 0.52236 0.0
C784 C 0.26601 0.3758 0.51045 0.0
H785 H 0.24531 0.33841 0.48942 0.0
C786 C 0.25584 0.39008 0.5017 0.0
C787 C 0.26109 0.35696 0.50703 0.0
C788 C 0.27018 0.34102 0.51735 0.0
C789 C 0.24233 0.38597 0.48813 0.0
C790 C 0.23928 0.36716 0.48288 0.0
C791 C 0.24793 0.35287 0.4931 0.0
C792 C 0.22971 0.36225 0.46518 0.0
C793 C 0.23208 0.4019 0.47893 0.0
C794 C 0.21512 0.34914 0.46464 0.0
C795 C 0.2074 0.34363 0.4475 0.0
C796 C 0.2143 0.35103 0.43064 0.0
C797 C 0.22888 0.36417 0.43137 0.0
C798 C 0.23653 0.3696 0.44838 0.0
H799 H 0.23011 0.41366 0.48886 0.0
H800 H 0.24048 0.4072 0.46704 0.0
H801 H 0.21821 0.39746 0.47363 0.0
H802 H 0.20984 0.34307 0.47745 0.0
H803 H 0.19622 0.33345 0.44745 0.0
H804 H 0.877 0.9888 0.66781 0.0
H805 H 0.86776 0.00332 0.69699 0.0
H806 H 0.89644 0.96031 0.72787 0.0
H807 H 0.90626 0.94575 0.69843 0.0
H808 H 0.84696 0.99024 0.72632 0.0
H809 H 0.91925 0.00782 0.74904 0.0
H810 H 0.91419 0.99985 0.72571 0.0
H811 H 0.91416 0.98362 0.74482 0.0
C812 C 0.88139 0.98232 0.68074 0.0
C813 C 0.89251 0.96613 0.68072 0.0
C814 C 0.876 0.99064 0.69747 0.0
C815 C 0.88151 0.98301 0.71462 0.0
C816 C 0.89227 0.96661 0.71478 0.0
H817 H 0.83361 0.05177 0.80629 0.0
H818 H 0.84237 0.02253 0.79058 0.0
C819 C 0.89783 0.95828 0.69794 0.0
C820 C 0.87632 0.99296 0.73204 0.0
H821 H 0.89465 0.02099 0.76591 0.0
C822 C 0.85734 0.99668 0.73527 0.0
C823 C 0.88992 0.00127 0.74368 0.0
C824 C 0.91054 0.9981 0.74068 0.0
C825 C 0.85166 0.00966 0.74882 0.0
C826 C 0.86534 0.01881 0.75971 0.0
C827 C 0.88421 0.01392 0.75753 0.0
C828 C 0.86088 0.0358 0.77069 0.0
C829 C 0.83122 0.01456 0.7503 0.0
C830 C 0.86876 0.0528 0.76511 0.0
C831 C 0.86396 0.06935 0.77406 0.0
C832 C 0.85106 0.06939 0.78888 0.0
C833 C 0.84348 0.05225 0.79486 0.0
C834 C 0.84842 0.03556 0.78585 0.0
H835 H 0.82277 0.00796 0.73909 0.0
H836 H 0.82574 0.0097 0.76395 0.0
H837 H 0.82926 0.02992 0.74955 0.0
H838 H 0.87836 0.05336 0.75342 0.0
H839 H 0.87019 0.08218 0.76906 0.0
H840 H 0.26605 0.62936 0.91594 0.0
H841 H 0.25078 0.61954 0.94453 0.0
H842 H 0.29006 0.65164 0.97695 0.0
H843 H 0.30538 0.66203 0.94808 0.0
H844 H 0.26368 0.60021 0.97501 0.0
H845 H 0.23989 0.67157 0.99491 0.0
H846 H 0.24943 0.66656 0.97216 0.0
H847 H 0.26458 0.66813 0.99206 0.0
C848 C 0.27157 0.63438 0.92909 0.0
C849 C 0.28691 0.64664 0.92965 0.0
C850 C 0.26282 0.62865 0.94548 0.0
C851 C 0.26916 0.63496 0.96288 0.0
C852 C 0.28475 0.64683 0.96364 0.0
H853 H 0.20083 0.58543 0.05404 0.0
H854 H 0.22959 0.59517 0.03806 0.0
C855 C 0.29352 0.65271 0.94714 0.0
C856 C 0.25865 0.62943 0.97985 0.0
H857 H 0.2277 0.64647 0.0118 0.0
C858 C 0.25608 0.61031 0.98336 0.0
C859 C 0.24877 0.64267 0.99068 0.0
C860 C 0.25064 0.66339 0.98729 0.0
C861 C 0.24288 0.60402 0.99643 0.0
C862 C 0.23228 0.61726 0.00652 0.0
C863 C 0.23588 0.63638 0.00403 0.0
C864 C 0.2154 0.61181 0.01721 0.0
C865 C 0.23939 0.58332 0.99826 0.0
C866 C 0.19798 0.61823 0.01104 0.0
C867 C 0.18168 0.61286 0.02014 0.0
C868 C 0.18232 0.60087 0.03568 0.0
C869 C 0.19983 0.59457 0.04204 0.0
C870 C 0.21626 0.60008 0.0329 0.0
H871 H 0.24695 0.57511 0.98748 0.0
H872 H 0.24416 0.57852 0.01219 0.0
H873 H 0.22425 0.58024 0.99709 0.0
H874 H 0.19696 0.62722 0.99891 0.0
H875 H 0.16852 0.61802 0.01478 0.0
H876 H 0.62002 0.0152 0.16779 0.0
H877 H 0.62848 0.9999 0.19679 0.0
H878 H 0.5976 0.04111 0.22798 0.0
H879 H 0.58859 0.05651 0.19869 0.0
H880 H 0.64784 0.0128 0.22743 0.0
H881 H 0.57534 0.99194 0.24643 0.0
H882 H 0.58113 0.00074 0.22357 0.0
H883 H 0.57973 0.01642 0.24307 0.0
C884 C 0.61498 0.02113 0.18075 0.0
C885 C 0.60349 0.03707 0.18084 0.0
C886 C 0.61992 0.01236 0.19737 0.0
C887 C 0.61358 0.01926 0.21455 0.0
C888 C 0.60242 0.03539 0.21485 0.0
H889 H 0.66003 0.95118 0.30728 0.0
H890 H 0.65072 0.97995 0.29109 0.0
C891 C 0.59735 0.0442 0.1981 0.0
C892 C 0.61838 0.00886 0.2318 0.0
H893 H 0.59968 0.97916 0.26401 0.0
C894 C 0.63733 0.00571 0.23573 0.0
C895 C 0.60461 0.99966 0.24255 0.0
C896 C 0.58405 0.0022 0.23872 0.0
C897 C 0.64291 0.99258 0.24917 0.0
C898 C 0.62913 0.98265 0.25924 0.0
C899 C 0.6102 0.98683 0.25628 0.0
C900 C 0.63383 0.96584 0.27038 0.0
C901 C 0.66345 0.98844 0.25144 0.0
C902 C 0.62699 0.94849 0.26447 0.0
C903 C 0.63212 0.93217 0.2737 0.0
C904 C 0.64427 0.93275 0.28912 0.0
C905 C 0.65077 0.95022 0.29538 0.0
C906 C 0.64551 0.96666 0.28611 0.0
H907 H 0.67207 0.99539 0.24059 0.0
H908 H 0.66819 0.99345 0.26531 0.0
H909 H 0.66602 0.97316 0.25074 0.0
H910 H 0.618 0.9475 0.25234 0.0
H911 H 0.62675 0.91904 0.26846 0.0
H912 H 0.69578 0.16564 0.54731 0.0
H913 H 0.70974 0.15678 0.51723 0.0
H914 H 0.74812 0.1203 0.54588 0.0
H915 H 0.73429 0.12866 0.57556 0.0
H916 H 0.74524 0.16185 0.50551 0.0
H917 H 0.73047 0.08653 0.50469 0.0
H918 H 0.71838 0.1024 0.52013 0.0
H919 H 0.74066 0.09265 0.52668 0.0
C920 C 0.70705 0.15556 0.54714 0.0
C921 C 0.71385 0.14784 0.56389 0.0
C922 C 0.71497 0.15049 0.52995 0.0
C923 C 0.72966 0.1375 0.52926 0.0
C924 C 0.7364 0.12986 0.54596 0.0
H925 H 0.83041 0.12754 0.47807 0.0
H926 H 0.80113 0.13707 0.49201 0.0
C927 C 0.72856 0.13485 0.56301 0.0
C928 C 0.73936 0.13296 0.51154 0.0
H929 H 0.75971 0.09606 0.48937 0.0
C930 C 0.74798 0.14747 0.50161 0.0
C931 C 0.74254 0.11426 0.50599 0.0
C932 C 0.73231 0.09812 0.51484 0.0
C933 C 0.76126 0.14368 0.4877 0.0
C934 C 0.76634 0.12494 0.48403 0.0
C935 C 0.75618 0.11046 0.49246 0.0
C936 C 0.78379 0.12013 0.47395 0.0
C937 C 0.77028 0.15985 0.47768 0.0
C938 C 0.78396 0.10697 0.4594 0.0
C939 C 0.80091 0.10119 0.45147 0.0
C940 C 0.81796 0.10838 0.45809 0.0
C941 C 0.81762 0.12172 0.47251 0.0
C942 C 0.80079 0.1274 0.48039 0.0
H943 H 0.76027 0.1716 0.47607 0.0
H944 H 0.78222 0.16505 0.48607 0.0
H945 H 0.77545 0.15574 0.46366 0.0
H946 H 0.77102 0.10097 0.45439 0.0
H947 H 0.80066 0.09087 0.44042 0.0
H948 H 0.12974 0.58342 0.73717 0.0
H949 H 0.12128 0.55494 0.75346 0.0
H950 H 0.15281 0.52246 0.71376 0.0
H951 H 0.16184 0.5512 0.69742 0.0
H952 H 0.10231 0.52386 0.74187 0.0
H953 H 0.17481 0.50587 0.76351 0.0
H954 H 0.16895 0.52831 0.75371 0.0
H955 H 0.1706 0.50817 0.73888 0.0
C956 C 0.13492 0.57028 0.73178 0.0
C957 C 0.14661 0.56966 0.71602 0.0
C958 C 0.12998 0.55396 0.74112 0.0
C959 C 0.13654 0.53658 0.73495 0.0
C960 C 0.14785 0.53576 0.71895 0.0
H961 H 0.08992 0.44466 0.80377 0.0
H962 H 0.09941 0.46092 0.77513 0.0
C963 C 0.15293 0.55219 0.70959 0.0
C964 C 0.13178 0.51968 0.74593 0.0
H965 H 0.15056 0.48808 0.77624 0.0
C966 C 0.11284 0.51576 0.74915 0.0
C967 C 0.14558 0.50921 0.7554 0.0
C968 C 0.16613 0.51309 0.75287 0.0
C969 C 0.10729 0.50255 0.76252 0.0
C970 C 0.1211 0.49266 0.7726 0.0
C971 C 0.14003 0.49568 0.76845 0.0
C972 C 0.11639 0.48146 0.78937 0.0
C973 C 0.08675 0.50031 0.76668 0.0
C974 C 0.12328 0.48721 0.80676 0.0
C975 C 0.11809 0.4779 0.82302 0.0
C976 C 0.1058 0.46259 0.82233 0.0
C977 C 0.09928 0.45648 0.80482 0.0
C978 C 0.10462 0.4658 0.78845 0.0
H979 H 0.07816 0.51127 0.75985 0.0
H980 H 0.08195 0.48653 0.76151 0.0
H981 H 0.08418 0.50086 0.78196 0.0
H982 H 0.13235 0.49927 0.80783 0.0
H983 H 0.12346 0.48301 0.8362 0.0
H984 H 0.66796 0.87717 0.98936 0.0
H985 H 0.69668 0.86846 0.00507 0.0
H986 H 0.72873 0.89852 0.9639 0.0
H987 H 0.69974 0.9078 0.94812 0.0
H988 H 0.72736 0.84877 0.99329 0.0
H989 H 0.74651 0.92162 0.01275 0.0
H990 H 0.72381 0.9158 0.00357 0.0
H991 H 0.74368 0.9167 0.98831 0.0
C992 C 0.68106 0.88195 0.98352 0.0
C993 C 0.68148 0.89334 0.96752 0.0
C994 C 0.69752 0.87687 0.99252 0.0
C995 C 0.71484 0.88297 0.98578 0.0
C996 C 0.71547 0.89391 0.96951 0.0
H997 H 0.80591 0.83756 0.05673 0.0
H998 H 0.79031 0.84616 0.02743 0.0
C999 C 0.6989 0.89913 0.96049 0.0
C1000 C 0.73188 0.87828 0.99657 0.0
H1001 H 0.76373 0.89748 0.02634 0.0
C1002 C 0.73561 0.85938 0.00025 0.0
C1003 C 0.74259 0.8922 0.0056 0.0
C1004 C 0.73897 0.91273 0.00252 0.0
C1005 C 0.74876 0.85403 0.01376 0.0
C1006 C 0.75875 0.86799 0.02352 0.0
C1007 C 0.75604 0.88683 0.0188 0.0
C1008 C 0.76952 0.86365 0.04067 0.0
C1009 C 0.75078 0.83359 0.01848 0.0
C1010 C 0.76338 0.87105 0.0577 0.0
C1011 C 0.77228 0.86635 0.07432 0.0
C1012 C 0.78759 0.85405 0.07437 0.0
C1013 C 0.79408 0.84696 0.05721 0.0
C1014 C 0.78515 0.85179 0.04047 0.0
H1015 H 0.73998 0.82487 0.01156 0.0
H1016 H 0.76468 0.8286 0.01383 0.0
H1017 H 0.74979 0.83142 0.03379 0.0
H1018 H 0.75133 0.88019 0.05821 0.0
H1019 H 0.76688 0.87216 0.08719 0.0
H1020 H 0.38781 0.41207 0.21758 0.0
H1021 H 0.39685 0.4392 0.23608 0.0
H1022 H 0.34663 0.46773 0.2192 0.0
H1023 H 0.33755 0.44064 0.20027 0.0
H1024 H 0.38022 0.4914 0.22258 0.0
H1025 H 0.36631 0.44704 0.28468 0.0
H1026 H 0.38268 0.43726 0.26841 0.0
H1027 H 0.35879 0.44062 0.26152 0.0
C1028 C 0.37879 0.42421 0.21754 0.0
C1029 C 0.36179 0.42409 0.20772 0.0
C1030 C 0.38402 0.43971 0.22809 0.0
C1031 C 0.37225 0.4553 0.22924 0.0
C1032 C 0.35587 0.45578 0.2185 0.0
H1033 H 0.36842 0.52624 0.32544 0.0
H1034 H 0.36082 0.50807 0.29772 0.0
C1035 C 0.35069 0.44029 0.20774 0.0
C1036 C 0.37607 0.46998 0.24325 0.0
H1037 H 0.37974 0.47658 0.29023 0.0
C1038 C 0.38008 0.48826 0.23738 0.0
C1039 C 0.37562 0.46583 0.26254 0.0
C1040 C 0.37046 0.44668 0.26973 0.0
C1041 C 0.38394 0.50247 0.25041 0.0
C1042 C 0.38394 0.49814 0.26968 0.0
C1043 C 0.37979 0.47988 0.27544 0.0
C1044 C 0.38764 0.51218 0.28443 0.0
C1045 C 0.38764 0.522 0.24351 0.0
C1046 C 0.40506 0.5211 0.2859 0.0
C1047 C 0.40938 0.53176 0.30175 0.0
C1048 C 0.39646 0.53328 0.31644 0.0
C1049 C 0.37874 0.52513 0.31443 0.0
C1050 C 0.37435 0.51478 0.29858 0.0
H1051 H 0.38263 0.524 0.22896 0.0
H1052 H 0.38079 0.53249 0.25264 0.0
H1053 H 0.40289 0.52467 0.24374 0.0
H1054 H 0.41565 0.51902 0.27532 0.0
H1055 H 0.42318 0.53783 0.30301 0.0
H1056 H 0.55407 0.3017 0.40901 0.0
H1057 H 0.53956 0.27231 0.39901 0.0
H1058 H 0.50159 0.30309 0.36385 0.0
H1059 H 0.51606 0.33219 0.37333 0.0
H1060 H 0.50429 0.26118 0.40411 0.0
H1061 H 0.51777 0.26273 0.32851 0.0
H1062 H 0.53019 0.27761 0.34465 0.0
H1063 H 0.50772 0.2845 0.3356 0.0
C1064 C 0.54278 0.30217 0.39897 0.0
C1065 C 0.53628 0.31934 0.39195 0.0
C1066 C 0.53454 0.28536 0.39324 0.0
C1067 C 0.51979 0.28546 0.38032 0.0
C1068 C 0.51336 0.30257 0.37333 0.0
H1069 H 0.41916 0.23256 0.37014 0.0
H1070 H 0.44805 0.24775 0.37898 0.0
C1071 C 0.52155 0.31928 0.37897 0.0
C1072 C 0.50972 0.26807 0.37532 0.0
H1073 H 0.48904 0.24669 0.33812 0.0
C1074 C 0.50136 0.25768 0.38967 0.0
C1075 C 0.50626 0.26308 0.35651 0.0
C1076 C 0.51617 0.27247 0.34048 0.0
C1077 C 0.4882 0.24374 0.38569 0.0
C1078 C 0.48297 0.24046 0.36692 0.0
C1079 C 0.49274 0.24948 0.35254 0.0
C1080 C 0.46577 0.23 0.36213 0.0
C1081 C 0.47946 0.23321 0.4017 0.0
C1082 C 0.46598 0.21524 0.3492 0.0
C1083 C 0.44927 0.20654 0.34387 0.0
C1084 C 0.43209 0.21261 0.35126 0.0
C1085 C 0.43206 0.22739 0.36419 0.0
C1086 C 0.44865 0.23601 0.36946 0.0
H1087 H 0.48944 0.23178 0.41349 0.0
H1088 H 0.46719 0.24111 0.40691 0.0
H1089 H 0.47479 0.21908 0.39736 0.0
H1090 H 0.47903 0.21056 0.34317 0.0
H1091 H 0.44979 0.19524 0.33384 0.0
H1092 H 0.05727 0.19786 0.58885 0.0
H1093 H 0.04263 0.2271 0.59909 0.0
H1094 H 0.00585 0.19597 0.63521 0.0
H1095 H 0.02048 0.16704 0.62553 0.0
H1096 H 0.00732 0.23744 0.59425 0.0
H1097 H 0.02105 0.23716 0.66976 0.0
H1098 H 0.03368 0.22225 0.65381 0.0
H1099 H 0.0114 0.21507 0.66313 0.0
C1100 C 0.04626 0.1973 0.5992 0.0
C1101 C 0.04008 0.18006 0.60636 0.0
C1102 C 0.03794 0.21402 0.60506 0.0
C1103 C 0.02342 0.21378 0.61825 0.0
C1104 C 0.01743 0.19662 0.6255 0.0
H1105 H 0.92144 0.2643 0.62777 0.0
H1106 H 0.9507 0.24964 0.61922 0.0
C1107 C 0.02571 0.18 0.61974 0.0
C1108 C 0.01297 0.231 0.6231 0.0
H1109 H 0.99171 0.25216 0.6601 0.0
C1110 C 0.00431 0.241 0.60865 0.0
C1111 C 0.00938 0.23609 0.64186 0.0
C1112 C 0.01958 0.22718 0.65798 0.0
C1113 C 0.99076 0.2546 0.6125 0.0
C1114 C 0.98543 0.25791 0.63124 0.0
C1115 C 0.99547 0.24933 0.6457 0.0
C1116 C 0.96796 0.26797 0.63593 0.0
C1117 C 0.98174 0.26473 0.59639 0.0
C1118 C 0.96778 0.28286 0.6487 0.0
C1119 C 0.95086 0.29125 0.65387 0.0
C1120 C 0.93386 0.28475 0.64646 0.0
C1121 C 0.9342 0.26981 0.63371 0.0
C1122 C 0.95101 0.26149 0.62861 0.0
H1123 H 0.99168 0.26632 0.58459 0.0
H1124 H 0.9697 0.25644 0.59126 0.0
H1125 H 0.97667 0.27876 0.60059 0.0
H1126 H 0.9807 0.2879 0.65472 0.0
H1127 H 0.9511 0.30268 0.66376 0.0
H1128 H 0.94784 0.70187 0.91352 0.0
H1129 H 0.96214 0.73125 0.90313 0.0
H1130 H 0.00039 0.7003 0.86843 0.0
H1131 H 0.98615 0.67123 0.87829 0.0
H1132 H 0.9974 0.74295 0.90787 0.0
H1133 H 0.98356 0.73977 0.8324 0.0
H1134 H 0.97136 0.72511 0.8489 0.0
H1135 H 0.99382 0.71822 0.83984 0.0
C1136 C 0.95915 0.70137 0.9035 0.0
C1137 C 0.96577 0.68415 0.89671 0.0
C1138 C 0.96727 0.71816 0.89756 0.0
C1139 C 0.98203 0.71801 0.88463 0.0
C1140 C 0.98862 0.70085 0.87791 0.0
H1141 H 0.08224 0.77143 0.8729 0.0
H1142 H 0.05343 0.75667 0.88267 0.0
C1143 C 0.98054 0.68416 0.88376 0.0
C1144 C 0.9919 0.73541 0.87926 0.0
H1145 H 0.01227 0.75612 0.84151 0.0
C1146 C 0.00025 0.74616 0.89334 0.0
C1147 C 0.99524 0.74004 0.86033 0.0
C1148 C 0.98531 0.73027 0.84454 0.0
C1149 C 0.0133 0.76011 0.88901 0.0
C1150 C 0.01845 0.76302 0.87014 0.0
C1151 C 0.00866 0.75364 0.85601 0.0
C1152 C 0.03558 0.77348 0.865 0.0
C1153 C 0.02196 0.77108 0.90475 0.0
C1154 C 0.03529 0.78758 0.85136 0.0
C1155 C 0.05197 0.79599 0.84546 0.0
C1156 C 0.06919 0.7903 0.85302 0.0
C1157 C 0.0693 0.77629 0.86679 0.0
C1158 C 0.05274 0.76793 0.8726 0.0
H1159 H 0.0119 0.77287 0.91642 0.0
H1160 H 0.03416 0.7633 0.91028 0.0
H1161 H 0.02669 0.78508 0.90005 0.0
H1162 H 0.02222 0.7919 0.84512 0.0
H1163 H 0.05138 0.8067 0.8348 0.0
H1164 H 0.58377 0.73909 0.1318 0.0
H1165 H 0.55534 0.75534 0.12304 0.0
H1166 H 0.52263 0.71565 0.15435 0.0
H1167 H 0.5513 0.69937 0.16368 0.0
H1168 H 0.5243 0.74388 0.10391 0.0
H1169 H 0.50603 0.76531 0.1764 0.0
H1170 H 0.52847 0.75548 0.17061 0.0
H1171 H 0.50829 0.74069 0.17216 0.0
C1172 C 0.57058 0.73369 0.13685 0.0
C1173 C 0.56988 0.71797 0.1486 0.0
C1174 C 0.55429 0.743 0.13175 0.0
C1175 C 0.53687 0.73684 0.13818 0.0
C1176 C 0.53596 0.72084 0.14949 0.0
H1177 H 0.44475 0.80558 0.09175 0.0
H1178 H 0.46114 0.77696 0.10105 0.0
C1179 C 0.55235 0.71152 0.15474 0.0
C1180 C 0.52 0.74784 0.13337 0.0
H1181 H 0.48825 0.77799 0.15214 0.0
C1182 C 0.51615 0.75111 0.11443 0.0
C1183 C 0.50945 0.75724 0.14717 0.0
C1184 C 0.51326 0.75467 0.16773 0.0
C1185 C 0.5029 0.76444 0.10887 0.0
C1186 C 0.49294 0.77445 0.12268 0.0
C1187 C 0.4959 0.77026 0.14161 0.0
C1188 C 0.48171 0.79121 0.11799 0.0
C1189 C 0.50068 0.76865 0.08834 0.0
C1190 C 0.48745 0.80859 0.1249 0.0
C1191 C 0.47808 0.82484 0.11981 0.0
C1192 C 0.4627 0.82415 0.1076 0.0
C1193 C 0.45661 0.80664 0.10105 0.0
C1194 C 0.46601 0.79028 0.10629 0.0
H1195 H 0.51163 0.76181 0.07974 0.0
H1196 H 0.48689 0.76351 0.08352 0.0
H1197 H 0.50126 0.78393 0.08581 0.0
H1198 H 0.49954 0.80966 0.13393 0.0
H1199 H 0.48318 0.83801 0.1252 0.0
H1200 H 0.18674 0.30537 0.3254 0.0
H1201 H 0.20753 0.30984 0.29848 0.0
H1202 H 0.20877 0.36905 0.30923 0.0
H1203 H 0.18828 0.36466 0.33615 0.0
H1204 H 0.20854 0.33486 0.26499 0.0
H1205 H 0.26323 0.34915 0.31805 0.0
H1206 H 0.24123 0.33827 0.32378 0.0
H1207 H 0.24251 0.36309 0.32041 0.0
C1208 C 0.19087 0.3194 0.32155 0.0
C1209 C 0.186 0.33469 0.33286 0.0
C1210 C 0.20283 0.32192 0.30627 0.0
C1211 C 0.20992 0.33972 0.30214 0.0
C1212 C 0.20363 0.35517 0.31237 0.0
H1213 H 0.28035 0.38096 0.21291 0.0
H1214 H 0.25457 0.37349 0.23397 0.0
C1215 C 0.19185 0.35266 0.32766 0.0
C1216 C 0.22547 0.34204 0.28873 0.0
H1217 H 0.27123 0.35505 0.2865 0.0
C1218 C 0.22229 0.33919 0.26963 0.0
C1219 C 0.24347 0.34729 0.29493 0.0
C1220 C 0.24795 0.34947 0.31541 0.0
C1221 C 0.23657 0.34205 0.25645 0.0
C1222 C 0.25433 0.34823 0.26259 0.0
C1223 C 0.25758 0.35052 0.28177 0.0
C1224 C 0.26981 0.35249 0.24947 0.0
C1225 C 0.23256 0.3382 0.23615 0.0
C1226 C 0.28717 0.34364 0.25154 0.0
C1227 C 0.30205 0.34811 0.23974 0.0
C1228 C 0.29988 0.36155 0.22558 0.0
C1229 C 0.28249 0.37048 0.2236 0.0
C1230 C 0.26766 0.36609 0.23552 0.0
H1231 H 0.22062 0.32843 0.23446 0.0
H1232 H 0.22885 0.35147 0.22908 0.0
H1233 H 0.24494 0.33218 0.22902 0.0
H1234 H 0.2892 0.33319 0.26229 0.0
H1235 H 0.31519 0.34086 0.24162 0.0
H1236 H 0.8655 0.02582 0.46066 0.0
H1237 H 0.87155 0.99934 0.4814 0.0
H1238 H 0.902 0.0354 0.51875 0.0
H1239 H 0.89587 0.06198 0.49833 0.0
H1240 H 0.90586 0.98402 0.49406 0.0
H1241 H 0.8628 0.01094 0.55253 0.0
H1242 H 0.86137 0.02037 0.52921 0.0
H1243 H 0.88011 0.02717 0.54447 0.0
C1244 C 0.8734 0.02817 0.47334 0.0
C1245 C 0.88002 0.04612 0.47792 0.0
C1246 C 0.87692 0.01299 0.48512 0.0
C1247 C 0.88703 0.01546 0.5017 0.0
C1248 C 0.89388 0.03326 0.50617 0.0
H1249 H 0.93925 0.93845 0.5782 0.0
H1250 H 0.93258 0.95753 0.55059 0.0
C1251 C 0.89036 0.04844 0.49445 0.0
C1252 C 0.89023 0.99955 0.51453 0.0
H1253 H 0.88249 0.98515 0.55921 0.0
C1254 C 0.90064 0.98414 0.50827 0.0
C1255 C 0.88321 0.99966 0.53296 0.0
C1256 C 0.8711 0.01533 0.54018 0.0
C1257 C 0.90462 0.96903 0.52019 0.0
C1258 C 0.89819 0.96952 0.53885 0.0
C1259 C 0.88746 0.98477 0.54491 0.0
C1260 C 0.90255 0.9547 0.55267 0.0
C1261 C 0.91552 0.95268 0.51266 0.0
C1262 C 0.88795 0.94634 0.56273 0.0
C1263 C 0.89174 0.93569 0.57858 0.0
C1264 C 0.91021 0.933 0.58455 0.0
C1265 C 0.92491 0.93999 0.57363 0.0
C1266 C 0.9211 0.95093 0.55787 0.0
H1267 H 0.9146 0.95185 0.4972 0.0
H1268 H 0.93044 0.95435 0.51645 0.0
H1269 H 0.91045 0.93932 0.51869 0.0
H1270 H 0.87355 0.94905 0.559 0.0
H1271 H 0.88018 0.93057 0.58688 0.0
H1272 H 0.22587 0.61803 0.71572 0.0
H1273 H 0.25197 0.62623 0.73612 0.0
H1274 H 0.2161 0.66296 0.76753 0.0
H1275 H 0.18982 0.6547 0.7474 0.0
H1276 H 0.26834 0.66145 0.74453 0.0
H1277 H 0.23752 0.62754 0.80715 0.0
H1278 H 0.22874 0.62346 0.78389 0.0
H1279 H 0.22276 0.64454 0.79612 0.0
C1280 C 0.22348 0.62783 0.72699 0.0
C1281 C 0.20566 0.63552 0.73005 0.0
C1282 C 0.23846 0.63256 0.73857 0.0
C1283 C 0.23591 0.64504 0.75343 0.0
C1284 C 0.21827 0.65306 0.75631 0.0
H1285 H 0.31618 0.69618 0.8285 0.0
H1286 H 0.29618 0.69067 0.80126 0.0
C1287 C 0.20327 0.6483 0.74479 0.0
C1288 C 0.25157 0.64919 0.76628 0.0
H1289 H 0.26524 0.64478 0.81166 0.0
C1290 C 0.26772 0.6578 0.75922 0.0
C1291 C 0.25074 0.64425 0.78537 0.0
C1292 C 0.23409 0.63429 0.79361 0.0
C1293 C 0.28305 0.66174 0.77084 0.0
C1294 C 0.28208 0.657 0.78996 0.0
C1295 C 0.26594 0.64838 0.79697 0.0
C1296 C 0.29757 0.66054 0.80318 0.0
C1297 C 0.30026 0.67063 0.76261 0.0
C1298 C 0.3055 0.64546 0.81282 0.0
C1299 C 0.31681 0.64858 0.82834 0.0
C1300 C 0.32042 0.66684 0.83447 0.0
C1301 C 0.31388 0.68198 0.82385 0.0
C1302 C 0.30239 0.67884 0.80833 0.0
H1303 H 0.30027 0.66996 0.74712 0.0
H1304 H 0.30082 0.68552 0.76683 0.0
H1305 H 0.31306 0.66369 0.76795 0.0
H1306 H 0.30193 0.63124 0.80907 0.0
H1307 H 0.3216 0.63669 0.83637 0.0
H1308 H 0.61776 0.07363 0.08718 0.0
H1309 H 0.62433 0.05461 0.05966 0.0
H1310 H 0.56527 0.04628 0.05133 0.0
H1311 H 0.55867 0.06588 0.07858 0.0
H1312 H 0.6148 0.01844 0.06098 0.0
H1313 H 0.58374 0.05055 0.99776 0.0
H1314 H 0.58806 0.06362 0.01889 0.0
H1315 H 0.56784 0.04887 0.01707 0.0
C1316 C 0.60618 0.06845 0.07894 0.0
C1317 C 0.58773 0.07132 0.08485 0.0
C1318 C 0.60994 0.05749 0.0633 0.0
C1319 C 0.59531 0.049 0.0534 0.0
C1320 C 0.57677 0.05298 0.05848 0.0
H1321 H 0.60169 0.94041 0.00158 0.0
H1322 H 0.59504 0.96756 0.02106 0.0
C1323 C 0.573 0.06423 0.07404 0.0
C1324 C 0.59961 0.03378 0.04002 0.0
H1325 H 0.59243 0.01833 0.99547 0.0
C1326 C 0.61004 0.01854 0.04661 0.0
C1327 C 0.59342 0.03389 0.02127 0.0
C1328 C 0.58279 0.05019 0.01324 0.0
C1329 C 0.61427 0.00332 0.03508 0.0
C1330 C 0.60755 0.00311 0.01654 0.0
C1331 C 0.59741 0.01847 0.00977 0.0
C1332 C 0.61087 0.98691 0.00412 0.0
C1333 C 0.62604 0.98765 0.04285 0.0
C1334 C 0.62164 0.98888 0.98788 0.0
C1335 C 0.62547 0.97337 0.97665 0.0
C1336 C 0.61854 0.9556 0.98144 0.0
C1337 C 0.60746 0.9538 0.99756 0.0
C1338 C 0.60363 0.96931 0.00874 0.0
H1339 H 0.63404 0.99213 0.05535 0.0
H1340 H 0.6168 0.97595 0.04705 0.0
H1341 H 0.636 0.98237 0.03221 0.0
H1342 H 0.62731 0.00237 0.98407 0.0
H1343 H 0.63393 0.97531 0.96427 0.0
H1344 H 0.67613 0.18842 0.67278 0.0
H1345 H 0.69337 0.1839 0.70205 0.0
H1346 H 0.70872 0.1284 0.68437 0.0
H1347 H 0.69091 0.13249 0.65575 0.0
H1348 H 0.70335 0.12927 0.72101 0.0
H1349 H 0.7494 0.18813 0.69988 0.0
H1350 H 0.72536 0.19424 0.70341 0.0
H1351 H 0.73169 0.1788 0.68466 0.0
C1352 C 0.68271 0.17507 0.67543 0.0
C1353 C 0.68252 0.16094 0.66183 0.0
C1354 C 0.69276 0.17259 0.69204 0.0
C1355 C 0.70286 0.15604 0.6951 0.0
C1356 C 0.70124 0.14138 0.68224 0.0
H1357 H 0.80808 0.13696 0.7474 0.0
H1358 H 0.78138 0.14375 0.72727 0.0
C1359 C 0.69111 0.14377 0.66582 0.0
C1360 C 0.71644 0.15426 0.71066 0.0
H1361 H 0.7577 0.17173 0.72693 0.0
C1362 C 0.71515 0.13865 0.72246 0.0
C1363 C 0.732 0.16635 0.71229 0.0
C1364 C 0.73487 0.18273 0.69931 0.0
C1365 C 0.72927 0.13441 0.73537 0.0
C1366 C 0.74483 0.14651 0.73701 0.0
C1367 C 0.74576 0.16249 0.72569 0.0
C1368 C 0.76088 0.1423 0.74946 0.0
C1369 C 0.72783 0.11647 0.74634 0.0
C1370 C 0.7583 0.13933 0.76866 0.0
C1371 C 0.77351 0.13505 0.78011 0.0
C1372 C 0.79166 0.13413 0.77267 0.0
C1373 C 0.79427 0.13754 0.75354 0.0
C1374 C 0.77902 0.14147 0.74204 0.0
H1375 H 0.71795 0.10648 0.73977 0.0
H1376 H 0.74164 0.10956 0.74764 0.0
H1377 H 0.72258 0.1196 0.76057 0.0
H1378 H 0.74456 0.14045 0.77483 0.0
H1379 H 0.77109 0.13281 0.79487 0.0
H1380 H 0.09409 0.55845 0.00633 0.0
H1381 H 0.08452 0.53224 0.98672 0.0
H1382 H 0.12468 0.4968 0.01422 0.0
H1383 H 0.13407 0.5228 0.03418 0.0
H1384 H 0.10495 0.51316 0.96214 0.0
H1385 H 0.07865 0.46426 0.01595 0.0
H1386 H 0.08333 0.48854 0.02083 0.0
H1387 H 0.10209 0.47184 0.02045 0.0
C1388 C 0.10089 0.54508 0.00825 0.0
C1389 C 0.11489 0.54275 0.02182 0.0
C1390 C 0.09532 0.53008 0.99708 0.0
C1391 C 0.10361 0.51245 0.99924 0.0
C1392 C 0.1177 0.51012 0.01266 0.0
H1393 H 0.1136 0.42828 0.9159 0.0
H1394 H 0.1178 0.44828 0.94322 0.0
C1395 C 0.12319 0.52507 0.02394 0.0
C1396 C 0.09842 0.49689 0.98658 0.0
H1397 H 0.08411 0.45132 0.98549 0.0
C1398 C 0.10022 0.49973 0.96728 0.0
C1399 C 0.09205 0.47939 0.99326 0.0
C1400 C 0.08872 0.47585 0.01375 0.0
C1401 C 0.09641 0.4854 0.95453 0.0
C1402 C 0.09096 0.46766 0.96126 0.0
C1403 C 0.08855 0.4649 0.98047 0.0
C1404 C 0.08826 0.45192 0.94821 0.0
C1405 C 0.09837 0.48926 0.9339 0.0
C1406 C 0.07025 0.4465 0.94275 0.0
C1407 C 0.06781 0.43487 0.92721 0.0
C1408 C 0.08339 0.42873 0.91697 0.0
C1409 C 0.10138 0.4328 0.92359 0.0
C1410 C 0.1038 0.44427 0.93913 0.0
H1411 H 0.09902 0.50446 0.93087 0.0
H1412 H 0.1114 0.48271 0.92869 0.0
H1413 H 0.0865 0.48312 0.92605 0.0
H1414 H 0.05811 0.45236 0.94959 0.0
H1415 H 0.05379 0.43215 0.92225 0.0
H1416 H 0.72582 0.88516 0.29139 0.0
H1417 H 0.75261 0.87826 0.27133 0.0
H1418 H 0.7174 0.84515 0.23548 0.0
H1419 H 0.69051 0.85207 0.25523 0.0
H1420 H 0.76856 0.8433 0.26041 0.0
H1421 H 0.74129 0.88353 0.20005 0.0
H1422 H 0.73182 0.88589 0.22328 0.0
H1423 H 0.72535 0.86634 0.20893 0.0
C1424 C 0.72373 0.87645 0.27921 0.0
C1425 C 0.70593 0.86936 0.27481 0.0
C1426 C 0.73909 0.87246 0.26782 0.0
C1427 C 0.73692 0.86138 0.25183 0.0
C1428 C 0.71929 0.85398 0.24761 0.0
H1429 H 0.81553 0.80852 0.17736 0.0
H1430 H 0.79606 0.81538 0.20464 0.0
C1431 C 0.70393 0.85797 0.25893 0.0
C1432 C 0.75296 0.8579 0.23925 0.0
H1433 H 0.76772 0.86445 0.1945 0.0
C1434 C 0.76849 0.84801 0.24602 0.0
C1435 C 0.7529 0.86426 0.22058 0.0
C1436 C 0.73704 0.87575 0.21278 0.0
C1437 C 0.78381 0.84395 0.23442 0.0
C1438 C 0.78343 0.84979 0.21556 0.0
C1439 C 0.76802 0.85996 0.20896 0.0
C1440 C 0.79855 0.84541 0.2021 0.0
C1441 C 0.80029 0.83361 0.24245 0.0
C1442 C 0.80686 0.85996 0.19195 0.0
C1443 C 0.81776 0.85606 0.1763 0.0
C1444 C 0.82071 0.83754 0.17062 0.0
C1445 C 0.81378 0.82291 0.18169 0.0
C1446 C 0.80262 0.82683 0.19726 0.0
H1447 H 0.80078 0.83478 0.25791 0.0
H1448 H 0.79911 0.81859 0.23884 0.0
H1449 H 0.81361 0.83895 0.23659 0.0
H1450 H 0.80391 0.87438 0.19541 0.0
H1451 H 0.82285 0.86756 0.16789 0.0
H1452 H 0.38632 0.44026 0.49542 0.0
H1453 H 0.39397 0.46776 0.47676 0.0
H1454 H 0.38451 0.50308 0.52462 0.0
H1455 H 0.37606 0.47572 0.54315 0.0
H1456 H 0.36978 0.51848 0.49544 0.0
H1457 H 0.44116 0.49699 0.47625 0.0
H1458 H 0.42475 0.47951 0.46918 0.0
H1459 H 0.42771 0.4847 0.49364 0.0
C1460 C 0.38585 0.45388 0.50197 0.0
C1461 C 0.38059 0.45578 0.52077 0.0
C1462 C 0.39043 0.46959 0.49134 0.0
C1463 C 0.39034 0.48748 0.4994 0.0
C1464 C 0.38484 0.48943 0.51811 0.0
H1465 H 0.43618 0.57293 0.42448 0.0
H1466 H 0.43126 0.55637 0.45408 0.0
C1467 C 0.37996 0.47376 0.52867 0.0
C1468 C 0.39523 0.50417 0.48807 0.0
H1469 H 0.42692 0.52034 0.45641 0.0
C1470 C 0.38244 0.51902 0.48715 0.0
C1471 C 0.41201 0.50529 0.47769 0.0
C1472 C 0.42727 0.49085 0.47942 0.0
C1473 C 0.38538 0.53427 0.47519 0.0
C1474 C 0.40122 0.53438 0.46337 0.0
C1475 C 0.41462 0.52019 0.46524 0.0
C1476 C 0.40307 0.54761 0.44749 0.0
C1477 C 0.37133 0.54995 0.47523 0.0
C1478 C 0.38871 0.54873 0.43422 0.0
C1479 C 0.39141 0.55835 0.41754 0.0
C1480 C 0.40866 0.56676 0.41353 0.0
C1481 C 0.42269 0.56668 0.42724 0.0
C1482 C 0.41993 0.55711 0.44409 0.0
H1483 H 0.3652 0.55183 0.48935 0.0
H1484 H 0.37766 0.56336 0.47073 0.0
H1485 H 0.35973 0.54642 0.46559 0.0
H1486 H 0.37577 0.54118 0.4362 0.0
H1487 H 0.3803 0.55824 0.40727 0.0
H1488 H 0.25673 0.3048 0.36146 0.0
H1489 H 0.27493 0.27717 0.35314 0.0
H1490 H 0.22575 0.24285 0.35888 0.0
H1491 H 0.20768 0.27028 0.36802 0.0
H1492 H 0.2537 0.22582 0.37386 0.0
H1493 H 0.27665 0.25038 0.30462 0.0
H1494 H 0.28358 0.26673 0.32221 0.0
H1495 H 0.25912 0.26255 0.31797 0.0
C1496 C 0.24981 0.29136 0.36097 0.0
C1497 C 0.23077 0.28974 0.36539 0.0
C1498 C 0.26017 0.27559 0.356 0.0
C1499 C 0.25161 0.25797 0.35485 0.0
C1500 C 0.23265 0.2563 0.35951 0.0
H1501 H 0.32625 0.17319 0.30765 0.0
H1502 H 0.29673 0.18998 0.31221 0.0
C1503 C 0.22235 0.272 0.36479 0.0
C1504 C 0.26264 0.2412 0.34956 0.0
H1505 H 0.29514 0.22569 0.31841 0.0
C1506 C 0.26251 0.22567 0.36154 0.0
C1507 C 0.2737 0.24063 0.33319 0.0
C1508 C 0.27309 0.2559 0.31867 0.0
C1509 C 0.27409 0.2102 0.35828 0.0
C1510 C 0.28659 0.21053 0.34298 0.0
C1511 C 0.28577 0.22547 0.3303 0.0
C1512 C 0.30216 0.19695 0.34113 0.0
C1513 C 0.27292 0.1938 0.37144 0.0
C1514 C 0.3147 0.1947 0.356 0.0
C1515 C 0.33133 0.18495 0.3535 0.0
C1516 C 0.33599 0.17753 0.33596 0.0
C1517 C 0.32294 0.17864 0.32136 0.0
C1518 C 0.30615 0.18836 0.32392 0.0
H1519 H 0.25846 0.19203 0.37677 0.0
H1520 H 0.27735 0.18061 0.36461 0.0
H1521 H 0.28207 0.19641 0.38367 0.0
H1522 H 0.31228 0.20155 0.36926 0.0
H1523 H 0.3411 0.18426 0.36501 0.0
H1524 H 0.97351 0.96521 0.63093 0.0
H1525 H 0.00019 0.98509 0.62323 0.0
H1526 H 0.96419 0.02141 0.59151 0.0
H1527 H 0.93738 0.00181 0.59925 0.0
H1528 H 0.01494 0.99588 0.58767 0.0
H1529 H 0.98989 0.05647 0.62907 0.0
H1530 H 0.98023 0.03336 0.63172 0.0
H1531 H 0.97336 0.04777 0.61236 0.0
C1532 C 0.97121 0.97747 0.62237 0.0
C1533 C 0.95322 0.98201 0.61589 0.0
C1534 C 0.98652 0.98874 0.61791 0.0
C1535 C 0.98412 0.00479 0.60696 0.0
C1536 C 0.96628 0.00922 0.60022 0.0
H1537 H 0.06375 0.07924 0.55446 0.0
H1538 H 0.04329 0.05243 0.56037 0.0
C1539 C 0.95096 0.99799 0.60468 0.0
C1540 C 0.0002 0.01718 0.60294 0.0
H1541 H 0.01623 0.06146 0.6098 0.0
C1542 C 0.01531 0.0102 0.59255 0.0
C1543 C 0.00069 0.03578 0.6095 0.0
C1544 C 0.98527 0.04379 0.62143 0.0
C1545 C 0.03081 0.0215 0.5883 0.0
C1546 C 0.03106 0.04023 0.59451 0.0
C1547 C 0.01601 0.04709 0.60504 0.0
C1548 C 0.04664 0.05323 0.59041 0.0
C1549 C 0.04685 0.01329 0.57743 0.0
C1550 C 0.05579 0.06217 0.60524 0.0
C1551 C 0.06731 0.0775 0.60189 0.0
C1552 C 0.07001 0.08409 0.58364 0.0
C1553 C 0.06221 0.07417 0.56862 0.0
C1554 C 0.05046 0.05889 0.57201 0.0
H1555 H 0.04663 0.99779 0.57769 0.0
H1556 H 0.04586 0.01788 0.56266 0.0
H1557 H 0.06043 0.01821 0.58307 0.0
H1558 H 0.05303 0.05805 0.61953 0.0
H1559 H 0.07305 0.08502 0.61369 0.0
H1560 H 0.28489 0.7272 0.88149 0.0
H1561 H 0.26421 0.75314 0.87342 0.0
H1562 H 0.23204 0.71666 0.83799 0.0
H1563 H 0.25245 0.69056 0.8461 0.0
H1564 H 0.25514 0.76882 0.838 0.0
H1565 H 0.19315 0.73893 0.87376 0.0
H1566 H 0.21647 0.73022 0.87761 0.0
H1567 H 0.20382 0.72372 0.85694 0.0
C1568 C 0.27338 0.72464 0.87203 0.0
C1569 C 0.27021 0.70671 0.86462 0.0
C1570 C 0.26164 0.73952 0.86736 0.0
C1571 C 0.2465 0.73677 0.85526 0.0
C1572 C 0.24347 0.719 0.84759 0.0
H1573 H 0.17138 0.81617 0.80279 0.0
H1574 H 0.1985 0.79613 0.80876 0.0
C1575 C 0.25516 0.70409 0.85227 0.0
C1576 C 0.2336 0.75238 0.85103 0.0
H1577 H 0.18829 0.76614 0.85575 0.0
C1578 C 0.24053 0.7683 0.8419 0.0
C1579 C 0.2146 0.75169 0.8563 0.0
C1580 C 0.20655 0.73531 0.86684 0.0
C1581 C 0.22883 0.78352 0.83771 0.0
C1582 C 0.20977 0.78266 0.84272 0.0
C1583 C 0.20293 0.76676 0.85192 0.0
C1584 C 0.19646 0.79801 0.83886 0.0
C1585 C 0.23694 0.80048 0.82826 0.0
C1586 C 0.18674 0.8062 0.85375 0.0
C1587 C 0.17128 0.81751 0.85037 0.0
C1588 C 0.16528 0.8209 0.83202 0.0
C1589 C 0.17593 0.81405 0.81705 0.0
C1590 C 0.19139 0.80255 0.82046 0.0
H1591 H 0.25243 0.80067 0.82904 0.0
H1592 H 0.23286 0.80043 0.81332 0.0
H1593 H 0.23144 0.81349 0.83467 0.0
H1594 H 0.19042 0.80287 0.86804 0.0
H1595 H 0.16322 0.82255 0.86214 0.0
H1596 H 0.55859 0.00658 0.09444 0.0
H1597 H 0.53178 0.98735 0.08603 0.0
H1598 H 0.49776 0.01707 0.12585 0.0
H1599 H 0.52443 0.03676 0.13402 0.0
H1600 H 0.51285 0.96392 0.10753 0.0
H1601 H 0.46416 0.01768 0.08064 0.0
H1602 H 0.48859 0.02236 0.08474 0.0
H1603 H 0.47226 0.0226 0.10383 0.0
C1604 C 0.54541 0.00909 0.1014 0.0
C1605 C 0.54369 0.02319 0.11496 0.0
C1606 C 0.53005 0.99812 0.0965 0.0
C1607 C 0.51265 0.00096 0.10506 0.0
C1608 C 0.5109 0.01495 0.11868 0.0
H1609 H 0.42806 0.91768 0.11643 0.0
H1610 H 0.44799 0.94505 0.12064 0.0
C1611 C 0.52622 0.02607 0.12348 0.0
C1612 C 0.49678 0.98839 0.10061 0.0
H1613 H 0.45112 0.98742 0.08658 0.0
C1614 C 0.49943 0.9691 0.10281 0.0
C1615 C 0.47929 0.9951 0.09425 0.0
C1616 C 0.47592 0.01555 0.09053 0.0
C1617 C 0.48499 0.9564 0.09928 0.0
C1618 C 0.46729 0.96316 0.09376 0.0
C1619 C 0.46467 0.98237 0.09107 0.0
C1620 C 0.4515 0.95016 0.09111 0.0
C1621 C 0.48873 0.93577 0.10149 0.0
C1622 C 0.44599 0.94475 0.0731 0.0
C1623 C 0.43438 0.9292 0.07065 0.0
C1624 C 0.42836 0.91888 0.08621 0.0
C1625 C 0.4325 0.92544 0.10422 0.0
C1626 C 0.44392 0.941 0.10664 0.0
H1627 H 0.50391 0.93266 0.10222 0.0
H1628 H 0.48213 0.93073 0.11458 0.0
H1629 H 0.48259 0.9278 0.0897 0.0
H1630 H 0.45179 0.95165 0.06095 0.0
H1631 H 0.43161 0.92427 0.05662 0.0
H1632 H 0.70674 0.22652 0.63106 0.0
H1633 H 0.72582 0.25336 0.63998 0.0
H1634 H 0.77496 0.21851 0.63975 0.0
H1635 H 0.75579 0.19144 0.63175 0.0
H1636 H 0.7753 0.24021 0.66902 0.0
H1637 H 0.7586 0.28385 0.60724 0.0
H1638 H 0.73843 0.27749 0.62062 0.0
H1639 H 0.75175 0.2597 0.60888 0.0
C1640 C 0.72164 0.22462 0.63279 0.0
C1641 C 0.7298 0.2069 0.63054 0.0
C1642 C 0.73255 0.24001 0.6378 0.0
C1643 C 0.75191 0.2381 0.64016 0.0
C1644 C 0.76006 0.22038 0.63797 0.0
H1645 H 0.8424 0.31207 0.63219 0.0
H1646 H 0.81409 0.29385 0.62784 0.0
C1647 C 0.74911 0.20491 0.63333 0.0
C1648 C 0.76379 0.25438 0.64514 0.0
H1649 H 0.7774 0.29767 0.63047 0.0
C1650 C 0.7757 0.25282 0.66063 0.0
C1651 C 0.76434 0.27082 0.63416 0.0
C1652 C 0.75274 0.27304 0.6167 0.0
C1653 C 0.78866 0.26685 0.66503 0.0
C1654 C 0.78919 0.2833 0.65406 0.0
C1655 C 0.77678 0.28518 0.63901 0.0
C1656 C 0.8043 0.29733 0.65623 0.0
C1657 C 0.80238 0.26336 0.68067 0.0
C1658 C 0.80774 0.30631 0.67335 0.0
C1659 C 0.82416 0.31663 0.67594 0.0
C1660 C 0.8372 0.31822 0.66137 0.0
C1661 C 0.83273 0.31084 0.64376 0.0
C1662 C 0.8165 0.30044 0.64124 0.0
H1663 H 0.8026 0.24847 0.68502 0.0
H1664 H 0.81674 0.26741 0.67644 0.0
H1665 H 0.79839 0.27185 0.69299 0.0
H1666 H 0.79822 0.30454 0.68496 0.0
H1667 H 0.82721 0.32222 0.68965 0.0
H1668 H 0.02463 0.46418 0.86975 0.0
H1669 H 0.99895 0.48553 0.87684 0.0
H1670 H 0.0359 0.51905 0.9105 0.0
H1671 H 0.06174 0.49799 0.90334 0.0
H1672 H 0.98347 0.49663 0.91178 0.0
H1673 H 0.01396 0.55626 0.87272 0.0
H1674 H 0.02232 0.53265 0.87006 0.0
H1675 H 0.02923 0.54632 0.88993 0.0
C1676 C 0.02735 0.47613 0.87862 0.0
C1677 C 0.04534 0.47946 0.88581 0.0
C1678 C 0.01262 0.48825 0.88272 0.0
C1679 C 0.01559 0.50395 0.89402 0.0
C1680 C 0.0334 0.50715 0.9015 0.0
H1681 H 0.93829 0.58146 0.94545 0.0
H1682 H 0.95744 0.55374 0.93937 0.0
C1683 C 0.04815 0.49508 0.89739 0.0
C1684 C 0.00017 0.51726 0.89764 0.0
H1685 H 0.98732 0.56262 0.89119 0.0
C1686 C 0.98422 0.51105 0.90723 0.0
C1687 C 0.00113 0.53598 0.89148 0.0
C1688 C 0.01749 0.54321 0.88032 0.0
C1689 C 0.96931 0.52323 0.9111 0.0
C1690 C 0.97053 0.54207 0.90537 0.0
C1691 C 0.9864 0.54816 0.8956 0.0
C1692 C 0.95571 0.556 0.90926 0.0
C1693 C 0.95232 0.5158 0.92107 0.0
C1694 C 0.94794 0.56613 0.89441 0.0
C1695 C 0.93721 0.58199 0.89787 0.0
C1696 C 0.93391 0.58793 0.91624 0.0
C1697 C 0.94033 0.57694 0.93116 0.0
C1698 C 0.95131 0.56113 0.92769 0.0
H1699 H 0.95141 0.50035 0.9201 0.0
H1700 H 0.95315 0.51962 0.93606 0.0
H1701 H 0.93934 0.52196 0.91524 0.0
H1702 H 0.95115 0.56242 0.8801 0.0
H1703 H 0.93249 0.59031 0.88614 0.0
H1704 H 0.66298 0.67967 0.13844 0.0
H1705 H 0.69079 0.69861 0.13294 0.0
H1706 H 0.69712 0.70659 0.19229 0.0
H1707 H 0.66952 0.68716 0.19785 0.0
H1708 H 0.68924 0.73508 0.14322 0.0
H1709 H 0.75134 0.70147 0.17508 0.0
H1710 H 0.73027 0.68871 0.16968 0.0
H1711 H 0.73145 0.70298 0.19028 0.0
C1712 C 0.67082 0.68476 0.15033 0.0
C1713 C 0.66422 0.68188 0.16855 0.0
C1714 C 0.68663 0.69567 0.14718 0.0
C1715 C 0.69604 0.70403 0.16219 0.0
C1716 C 0.69031 0.7 0.18052 0.0
H1717 H 0.75141 0.81151 0.15609 0.0
H1718 H 0.73081 0.78525 0.16312 0.0
C1719 C 0.67456 0.68884 0.18369 0.0
C1720 C 0.7097 0.71913 0.15844 0.0
H1721 H 0.7545 0.73347 0.16624 0.0
C1722 C 0.70355 0.73465 0.14815 0.0
C1723 C 0.72834 0.71855 0.16488 0.0
C1724 C 0.73585 0.70197 0.17546 0.0
C1725 C 0.71546 0.74964 0.1442 0.0
C1726 C 0.73396 0.74932 0.15104 0.0
C1727 C 0.74024 0.73373 0.16116 0.0
C1728 C 0.74697 0.76502 0.14757 0.0
C1729 C 0.70819 0.76559 0.13249 0.0
C1730 C 0.76311 0.76224 0.13685 0.0
C1731 C 0.77495 0.77722 0.13281 0.0
C1732 C 0.7709 0.79527 0.13949 0.0
C1733 C 0.75486 0.79789 0.15053 0.0
C1734 C 0.74306 0.78289 0.15457 0.0
H1735 H 0.6955 0.76157 0.12453 0.0
H1736 H 0.70446 0.77743 0.14176 0.0
H1737 H 0.71897 0.7705 0.12249 0.0
H1738 H 0.76637 0.74854 0.13135 0.0
H1739 H 0.78722 0.77465 0.12437 0.0
H1740 H 0.44177 0.49373 0.38556 0.0
H1741 H 0.46942 0.4757 0.39412 0.0
H1742 H 0.50308 0.52556 0.39096 0.0
H1743 H 0.47563 0.5435 0.38158 0.0
H1744 H 0.52091 0.49847 0.37544 0.0
H1745 H 0.49508 0.47245 0.44311 0.0
H1746 H 0.47925 0.46593 0.4249 0.0
H1747 H 0.48293 0.4903 0.43014 0.0
C1748 C 0.45505 0.50085 0.38671 0.0
C1749 C 0.45649 0.52004 0.38291 0.0
C1750 C 0.47084 0.49057 0.39181 0.0
C1751 C 0.48828 0.49935 0.39371 0.0
C1752 C 0.48977 0.51848 0.38974 0.0
H1753 H 0.5729 0.42418 0.44013 0.0
H1754 H 0.55574 0.45354 0.43621 0.0
C1755 C 0.47406 0.52871 0.38432 0.0
C1756 C 0.50508 0.48836 0.39899 0.0
H1757 H 0.52028 0.45478 0.42913 0.0
C1758 C 0.52088 0.48916 0.38739 0.0
C1759 C 0.50542 0.47663 0.4149 0.0
C1760 C 0.48982 0.47646 0.42907 0.0
C1761 C 0.53642 0.47766 0.39054 0.0
C1762 C 0.5359 0.46453 0.4053 0.0
C1763 C 0.52066 0.46464 0.41764 0.0
C1764 C 0.54971 0.44913 0.40691 0.0
C1765 C 0.55311 0.47958 0.37785 0.0
C1766 C 0.55264 0.43722 0.39164 0.0
C1767 C 0.56265 0.42068 0.39379 0.0
C1768 C 0.5696 0.41545 0.41135 0.0
C1769 C 0.56781 0.42791 0.4264 0.0
C1770 C 0.55787 0.44461 0.4242 0.0
H1771 H 0.55479 0.49427 0.37314 0.0
H1772 H 0.5662 0.47508 0.38483 0.0
H1773 H 0.55094 0.47089 0.36521 0.0
H1774 H 0.54615 0.44004 0.37828 0.0
H1775 H 0.56388 0.41139 0.38191 0.0
H1776 H 0.34711 0.24397 0.30599 0.0
H1777 H 0.33879 0.2631 0.27908 0.0
H1778 H 0.37581 0.23071 0.24437 0.0
H1779 H 0.38393 0.21115 0.27116 0.0
H1780 H 0.36128 0.28494 0.25884 0.0
H1781 H 0.32903 0.23193 0.21258 0.0
H1782 H 0.33366 0.22763 0.23698 0.0
H1783 H 0.35214 0.22582 0.22008 0.0
C1784 C 0.35347 0.24084 0.29264 0.0
C1785 C 0.36625 0.22603 0.29078 0.0
C1786 C 0.34863 0.25176 0.27724 0.0
C1787 C 0.35644 0.24817 0.25963 0.0
C1788 C 0.36924 0.23345 0.2577 0.0
H1789 H 0.3673 0.33009 0.17322 0.0
H1790 H 0.37166 0.30284 0.1933 0.0
C1791 C 0.37401 0.2224 0.27309 0.0
C1792 C 0.35208 0.26066 0.24368 0.0
H1793 H 0.33569 0.26164 0.19881 0.0
C1794 C 0.35559 0.27982 0.24578 0.0
C1795 C 0.34445 0.25402 0.22667 0.0
C1796 C 0.33941 0.23375 0.22396 0.0
C1797 C 0.35205 0.29245 0.23128 0.0
C1798 C 0.34516 0.28572 0.21405 0.0
C1799 C 0.34122 0.26666 0.21198 0.0
C1800 C 0.34218 0.29861 0.1982 0.0
C1801 C 0.35566 0.31297 0.23451 0.0
C1802 C 0.3241 0.30444 0.1934 0.0
C1803 C 0.32156 0.3199 0.18169 0.0
C1804 C 0.33711 0.32971 0.17484 0.0
C1805 C 0.3551 0.32272 0.17829 0.0
C1806 C 0.35761 0.30723 0.18981 0.0
H1807 H 0.3571 0.31631 0.24958 0.0
H1808 H 0.3688 0.31703 0.22738 0.0
H1809 H 0.34419 0.32156 0.2286 0.0
H1810 H 0.31204 0.29796 0.19983 0.0
H1811 H 0.30757 0.32518 0.17948 0.0
H1812 H 0.86538 0.16306 0.82242 0.0
H1813 H 0.8719 0.19033 0.80302 0.0
H1814 H 0.8128 0.2 0.79672 0.0
H1815 H 0.80625 0.17295 0.81664 0.0
H1816 H 0.86078 0.18914 0.76704 0.0
H1817 H 0.83296 0.25316 0.8006 0.0
H1818 H 0.83736 0.23191 0.81346 0.0
H1819 H 0.81661 0.23418 0.79955 0.0
C1820 C 0.85381 0.17151 0.81757 0.0
C1821 C 0.83534 0.16602 0.82108 0.0
C1822 C 0.85754 0.18701 0.80641 0.0
C1823 C 0.84286 0.19721 0.7984 0.0
C1824 C 0.82436 0.19257 0.80303 0.0
H1825 H 0.84966 0.25074 0.69007 0.0
H1826 H 0.84196 0.23103 0.71681 0.0
C1827 C 0.82062 0.17714 0.81445 0.0
C1828 C 0.84695 0.21052 0.78306 0.0
H1829 H 0.84112 0.25551 0.76834 0.0
C1830 C 0.85659 0.20369 0.76741 0.0
C1831 C 0.84148 0.22948 0.78355 0.0
C1832 C 0.83167 0.23771 0.80025 0.0
C1833 C 0.86083 0.21522 0.7522 0.0
C1834 C 0.85492 0.23405 0.75243 0.0
C1835 C 0.84547 0.241 0.76815 0.0
C1836 C 0.8587 0.24667 0.73649 0.0
C1837 C 0.87184 0.20719 0.73612 0.0
C1838 C 0.87028 0.26228 0.7388 0.0
C1839 C 0.8747 0.27364 0.72354 0.0
C1840 C 0.86756 0.26959 0.70568 0.0
C1841 C 0.85563 0.25413 0.70354 0.0
C1842 C 0.85119 0.24284 0.71881 0.0
H1843 H 0.87927 0.19419 0.74015 0.0
H1844 H 0.86217 0.20376 0.72453 0.0
H1845 H 0.88225 0.21741 0.73086 0.0
H1846 H 0.87618 0.26549 0.75235 0.0
H1847 H 0.88382 0.28549 0.72575 0.0
H1848 H 0.96705 0.63496 0.97819 0.0
H1849 H 0.98738 0.62741 0.00457 0.0
H1850 H 0.02319 0.59568 0.96806 0.0
H1851 H 0.00313 0.60328 0.94155 0.0
H1852 H 0.99814 0.59207 0.01921 0.0
H1853 H 0.05879 0.63284 0.99339 0.0
H1854 H 0.03561 0.63561 0.98392 0.0
H1855 H 0.04987 0.61618 0.97692 0.0
C1856 C 0.9793 0.62645 0.97571 0.0
C1857 C 0.98354 0.61989 0.95767 0.0
C1858 C 0.99084 0.62208 0.99084 0.0
C1859 C 0.00687 0.61116 0.98822 0.0
C1860 C 0.01103 0.60439 0.97032 0.0
H1861 H 0.08099 0.5561 0.0658 0.0
H1862 H 0.05385 0.56337 0.0463 0.0
C1863 C 0.99953 0.60875 0.95518 0.0
C1864 C 0.01942 0.60706 0.00414 0.0
H1865 H 0.06409 0.61309 0.01938 0.0
C1866 C 0.01254 0.59674 0.01935 0.0
C1867 C 0.03811 0.61336 0.00436 0.0
C1868 C 0.04603 0.62526 0.98887 0.0
C1869 C 0.02403 0.59223 0.03462 0.0
C1870 C 0.04288 0.59806 0.03454 0.0
C1871 C 0.04962 0.60861 0.01944 0.0
C1872 C 0.0562 0.59332 0.04968 0.0
C1873 C 0.01588 0.58145 0.05076 0.0
C1874 C 0.06617 0.60767 0.05854 0.0
C1875 C 0.08172 0.60354 0.06949 0.0
C1876 C 0.08748 0.58498 0.07194 0.0
C1877 C 0.07656 0.5705 0.06448 0.0
C1878 C 0.06108 0.57466 0.05328 0.0
H1879 H 0.00041 0.58251 0.05111 0.0
H1880 H 0.0196 0.56649 0.04927 0.0
H1881 H 0.02155 0.58651 0.06427 0.0
H1882 H 0.06266 0.62216 0.05595 0.0
H1883 H 0.09004 0.61494 0.07494 0.0
H1884 H 0.69386 0.83179 0.32085 0.0
H1885 H 0.69003 0.80443 0.30052 0.0
H1886 H 0.63032 0.81175 0.30188 0.0
H1887 H 0.63404 0.83906 0.32199 0.0
H1888 H 0.66325 0.76893 0.30072 0.0
H1889 H 0.65182 0.82331 0.24646 0.0
H1890 H 0.66371 0.82805 0.26818 0.0
H1891 H 0.63874 0.82605 0.26774 0.0
C1892 C 0.6799 0.82703 0.3175 0.0
C1893 C 0.66422 0.83751 0.32292 0.0
C1894 C 0.67774 0.81149 0.30581 0.0
C1895 C 0.65991 0.80628 0.2996 0.0
C1896 C 0.64419 0.81564 0.30651 0.0
H1897 H 0.61524 0.72043 0.22786 0.0
H1898 H 0.62398 0.74054 0.25399 0.0
C1899 C 0.64633 0.83117 0.31803 0.0
C1900 C 0.65769 0.79314 0.28386 0.0
H1901 H 0.64554 0.79208 0.23784 0.0
C1902 C 0.65951 0.77391 0.28692 0.0
C1903 C 0.65315 0.79979 0.26585 0.0
C1904 C 0.65186 0.82043 0.26171 0.0
C1905 C 0.6563 0.76104 0.27243 0.0
C1906 C 0.65079 0.76767 0.25461 0.0
C1907 C 0.6496 0.78698 0.25151 0.0
C1908 C 0.64591 0.75496 0.23899 0.0
C1909 C 0.65901 0.74052 0.2763 0.0
C1910 C 0.6549 0.75677 0.22167 0.0
C1911 C 0.64969 0.74553 0.20659 0.0
C1912 C 0.63538 0.73223 0.20853 0.0
C1913 C 0.62637 0.73047 0.2259 0.0
C1914 C 0.63149 0.74182 0.24093 0.0
H1915 H 0.6686 0.73823 0.28828 0.0
H1916 H 0.64535 0.73418 0.27991 0.0
H1917 H 0.66469 0.73316 0.2639 0.0
H1918 H 0.66597 0.76689 0.21981 0.0
H1919 H 0.65703 0.74718 0.19347 0.0
H1920 H 0.41993 0.44239 0.56523 0.0
H1921 H 0.447 0.43845 0.54453 0.0
H1922 H 0.43892 0.37882 0.54526 0.0
H1923 H 0.41187 0.38265 0.56569 0.0
H1924 H 0.48193 0.41301 0.54405 0.0
H1925 H 0.42784 0.39889 0.49025 0.0
H1926 H 0.42266 0.41046 0.51204 0.0
H1927 H 0.42565 0.38558 0.51142 0.0
C1928 C 0.42444 0.42841 0.56161 0.0
C1929 C 0.41383 0.4128 0.56698 0.0
C1930 C 0.43981 0.4262 0.54971 0.0
C1931 C 0.44472 0.40837 0.54322 0.0
C1932 C 0.43523 0.39269 0.55004 0.0
H1933 H 0.53199 0.36554 0.47176 0.0
H1934 H 0.51166 0.37387 0.49787 0.0
C1935 C 0.41985 0.39489 0.56176 0.0
C1936 C 0.45787 0.40615 0.52746 0.0
H1937 H 0.4592 0.39307 0.4817 0.0
C1938 C 0.47704 0.40877 0.53037 0.0
C1939 C 0.45132 0.40099 0.50957 0.0
C1940 C 0.43074 0.39895 0.50549 0.0
C1941 C 0.48995 0.40572 0.51589 0.0
C1942 C 0.48346 0.39958 0.49823 0.0
C1943 C 0.4642 0.39758 0.49526 0.0
C1944 C 0.49628 0.39495 0.48261 0.0
C1945 C 0.51037 0.40929 0.51959 0.0
C1946 C 0.49402 0.40358 0.46516 0.0
C1947 C 0.50537 0.3986 0.4501 0.0
C1948 C 0.51927 0.38488 0.45219 0.0
C1949 C 0.52149 0.37622 0.46968 0.0
C1950 C 0.51 0.38111 0.4847 0.0
H1951 H 0.51236 0.41916 0.53139 0.0
H1952 H 0.51726 0.39594 0.52338 0.0
H1953 H 0.51743 0.41505 0.50705 0.0
H1954 H 0.48344 0.41421 0.46319 0.0
H1955 H 0.50336 0.40566 0.43688 0.0
H1956 H 0.13435 0.66227 0.6773 0.0
H1957 H 0.12809 0.69003 0.69609 0.0
H1958 H 0.18723 0.69792 0.70419 0.0
H1959 H 0.19355 0.67036 0.68491 0.0
H1960 H 0.13829 0.68889 0.73259 0.0
H1961 H 0.16866 0.75166 0.69881 0.0
H1962 H 0.16385 0.73039 0.68612 0.0
H1963 H 0.18436 0.73217 0.70046 0.0
C1964 C 0.14602 0.67044 0.68239 0.0
C1965 C 0.16441 0.6643 0.67958 0.0
C1966 C 0.14244 0.68622 0.69321 0.0
C1967 C 0.15718 0.69605 0.70157 0.0
C1968 C 0.17565 0.69077 0.6976 0.0
H1969 H 0.14981 0.75188 0.80871 0.0
H1970 H 0.157 0.73111 0.78262 0.0
C1971 C 0.17926 0.67506 0.68653 0.0
C1972 C 0.15304 0.70967 0.7166 0.0
H1973 H 0.15966 0.75472 0.73076 0.0
C1974 C 0.14286 0.70333 0.73211 0.0
C1975 C 0.15901 0.72847 0.71595 0.0
C1976 C 0.16944 0.73618 0.69937 0.0
C1977 C 0.13856 0.7152 0.74704 0.0
C1978 C 0.14494 0.73386 0.74666 0.0
C1979 C 0.15494 0.74034 0.73107 0.0
C1980 C 0.14114 0.74685 0.7623 0.0
C1981 C 0.12701 0.7077 0.763 0.0
C1982 C 0.13014 0.76278 0.75943 0.0
C1983 C 0.126 0.77471 0.7743 0.0
C1984 C 0.13287 0.77098 0.79234 0.0
C1985 C 0.1441 0.75509 0.79508 0.0
C1986 C 0.14824 0.74319 0.78019 0.0
H1987 H 0.11935 0.69481 0.759 0.0
H1988 H 0.13635 0.70422 0.77485 0.0
H1989 H 0.11675 0.71825 0.76787 0.0
H1990 H 0.12456 0.76585 0.74571 0.0
H1991 H 0.11741 0.78687 0.77164 0.0
H1992 H 0.46271 0.87076 0.02643 0.0
H1993 H 0.48375 0.87717 0.00032 0.0
H1994 H 0.51788 0.91152 0.03605 0.0
H1995 H 0.4971 0.90508 0.06232 0.0
H1996 H 0.49515 0.91178 0.98385 0.0
H1997 H 0.5544 0.87251 0.01482 0.0
H1998 H 0.5308 0.87034 0.02336 0.0
H1999 H 0.54475 0.89021 0.02972 0.0
C2000 C 0.47471 0.87966 0.02879 0.0
C2001 C 0.47832 0.88722 0.04657 0.0
C2002 C 0.48666 0.88337 0.0138 0.0
C2003 C 0.50245 0.89465 0.01632 0.0
C2004 C 0.5059 0.90254 0.03391 0.0
H2005 H 0.58047 0.94226 0.93702 0.0
H2006 H 0.55273 0.93744 0.95649 0.0
C2007 C 0.49399 0.89883 0.04891 0.0
C2008 C 0.51567 0.89768 0.0007 0.0
H2009 H 0.56075 0.88999 0.98756 0.0
C2010 C 0.50949 0.90698 0.98457 0.0
C2011 C 0.53428 0.8912 0.00164 0.0
C2012 C 0.54147 0.88036 0.01823 0.0
C2013 C 0.52158 0.91021 0.96943 0.0
C2014 C 0.54031 0.90412 0.9706 0.0
C2015 C 0.54637 0.89467 0.98668 0.0
C2016 C 0.55413 0.90725 0.9555 0.0
C2017 C 0.51418 0.91988 0.95226 0.0
C2018 C 0.56376 0.89193 0.94802 0.0
C2019 C 0.57964 0.89467 0.9371 0.0
C2020 C 0.58608 0.91278 0.93332 0.0
C2021 C 0.57555 0.92816 0.93942 0.0
C2022 C 0.55973 0.92541 0.95059 0.0
H2023 H 0.4987 0.91934 0.95159 0.0
H2024 H 0.51845 0.93477 0.95258 0.0
H2025 H 0.51998 0.91349 0.93938 0.0
H2026 H 0.55969 0.87781 0.95164 0.0
H2027 H 0.58761 0.8826 0.93266 0.0
H2028 H 0.91311 0.11781 0.42806 0.0
H2029 H 0.94044 0.12374 0.44755 0.0
H2030 H 0.94822 0.06444 0.4547 0.0
H2031 H 0.92107 0.05847 0.43472 0.0
H2032 H 0.93908 0.11311 0.48379 0.0
H2033 H 0.00199 0.08301 0.45006 0.0
H2034 H 0.9808 0.08795 0.43731 0.0
H2035 H 0.98249 0.0673 0.45146 0.0
C2036 C 0.92113 0.10605 0.43316 0.0
C2037 C 0.9151 0.08771 0.42983 0.0
C2038 C 0.93667 0.10944 0.44437 0.0
C2039 C 0.94638 0.09455 0.4526 0.0
C2040 C 0.94117 0.07614 0.44823 0.0
H2041 H 0.00145 0.10075 0.56013 0.0
H2042 H 0.98089 0.09395 0.53381 0.0
C2043 C 0.92568 0.07273 0.43677 0.0
C2044 C 0.95992 0.09847 0.46778 0.0
H2045 H 0.0049 0.09174 0.48209 0.0
C2046 C 0.95351 0.10853 0.48334 0.0
C2047 C 0.97872 0.09251 0.46717 0.0
C2048 C 0.98651 0.08223 0.45054 0.0
C2049 C 0.96532 0.11273 0.49835 0.0
C2050 C 0.98398 0.10635 0.49801 0.0
C2051 C 0.99052 0.09647 0.48237 0.0
C2052 C 0.99687 0.10995 0.51378 0.0
C2053 C 0.95775 0.12418 0.51435 0.0
C2054 C 0.01289 0.1209 0.51116 0.0
C2055 C 0.02472 0.12481 0.52619 0.0
C2056 C 0.02079 0.11777 0.54412 0.0
C2057 C 0.00481 0.10661 0.5466 0.0
C2058 C 0.99303 0.10269 0.53156 0.0
H2059 H 0.94494 0.13193 0.51032 0.0
H2060 H 0.95412 0.11475 0.52609 0.0
H2061 H 0.96831 0.13434 0.5194 0.0
H2062 H 0.01611 0.1266 0.49753 0.0
H2063 H 0.03696 0.13335 0.52372 0.0
loop_
_geom_bond_atom_site_label_1
_geom_bond_atom_site_label_2
_geom_bond_distance
_geom_bond_site_symmetry_2
_ccdc_geom_bond_type
Mg0 O1 2.028 . S
Mg0 O7 1.986 . S
Mg0 O9 2.114 . S
Mg0 O10 2.251 . S
Mg0 O13 2.010 . S
O1 Mg0 2.028 . S
O1 C4 1.250 . S
O2 Mg3 2.028 . S
O2 C4 1.248 . S
Mg3 O2 2.028 . S
Mg3 O8 2.032 . S
Mg3 O10 2.079 . S
C4 O1 1.250 . S
C4 O2 1.248 . S
C5 O6 1.264 . S
C5 O13 1.249 . S
O6 C5 1.264 . S
O7 Mg0 1.986 . S
O7 C11 1.246 . S
O8 Mg3 2.032 . S
O8 C11 1.259 . S
O9 Mg0 2.114 . S
O9 C12 1.252 . S
O10 Mg0 2.251 . S
O10 Mg3 2.079 . S
O10 C12 1.273 . S
C11 O7 1.246 . S
C11 O8 1.259 . S
C12 O9 1.252 . S
C12 O10 1.273 . S
O13 Mg0 2.010 . S
O13 C5 1.249 . S
Mg14 O15 2.028 . S
Mg14 O21 1.986 . S
Mg14 O23 2.114 . S
Mg14 O24 2.251 . S
Mg14 O27 2.010 . S
O15 Mg14 2.028 . S
O15 C18 1.250 . S
O16 Mg17 2.028 . S
O16 C18 1.248 . S
Mg17 O16 2.028 . S
Mg17 O22 2.032 . S
Mg17 O24 2.079 . S
C18 O15 1.250 . S
C18 O16 1.248 . S
C19 O20 1.264 . S
C19 O27 1.249 . S
O20 C19 1.264 . S
O21 Mg14 1.986 . S
O21 C25 1.246 . S
O22 Mg17 2.032 . S
O22 C25 1.259 . S
O23 Mg14 2.114 . S
O23 C26 1.252 . S
O24 Mg14 2.251 . S
O24 Mg17 2.079 . S
O24 C26 1.273 . S
C25 O21 1.246 . S
C25 O22 1.259 . S
C26 O23 1.252 . S
C26 O24 1.273 . S
O27 Mg14 2.010 . S
O27 C19 1.249 . S
Mg28 O29 2.028 . S
Mg28 O35 1.986 . S
Mg28 O37 2.114 . S
Mg28 O38 2.251 . S
Mg28 O41 2.010 . S
O29 Mg28 2.028 . S
O29 C32 1.250 . S
O30 Mg31 2.028 . S
O30 C32 1.248 . S
Mg31 O30 2.028 . S
Mg31 O36 2.032 . S
Mg31 O38 2.079 . S
C32 O29 1.250 . S
C32 O30 1.248 . S
C33 O34 1.264 . S
C33 O41 1.249 . S
O34 C33 1.264 . S
O35 Mg28 1.986 . S
O35 C39 1.246 . S
O36 Mg31 2.032 . S
O36 C39 1.259 . S
O37 Mg28 2.114 . S
O37 C40 1.252 . S
O38 Mg28 2.251 . S
O38 Mg31 2.079 . S
O38 C40 1.273 . S
C39 O35 1.246 . S
C39 O36 1.259 . S
C40 O37 1.252 . S
C40 O38 1.273 . S
O41 Mg28 2.010 . S
O41 C33 1.249 . S
Mg42 O43 2.028 . S
Mg42 O49 1.986 . S
Mg42 O51 2.114 . S
Mg42 O52 2.251 . S
Mg42 O55 2.010 . S
O43 Mg42 2.028 . S
O43 C46 1.250 . S
O44 Mg45 2.028 . S
O44 C46 1.248 . S
Mg45 O44 2.028 . S
Mg45 O50 2.032 . S
Mg45 O52 2.079 . S
C46 O43 1.250 . S
C46 O44 1.248 . S
C47 O48 1.264 . S
C47 O55 1.249 . S
O48 C47 1.264 . S
O49 Mg42 1.986 . S
O49 C53 1.246 . S
O50 Mg45 2.032 . S
O50 C53 1.259 . S
O51 Mg42 2.114 . S
O51 C54 1.252 . S
O52 Mg42 2.251 . S
O52 Mg45 2.079 . S
O52 C54 1.273 . S
C53 O49 1.246 . S
C53 O50 1.259 . S
C54 O51 1.252 . S
C54 O52 1.273 . S
O55 Mg42 2.010 . S
O55 C47 1.249 . S
Mg56 O57 2.028 . S
Mg56 O63 1.986 . S
Mg56 O65 2.114 . S
Mg56 O66 2.251 . S
Mg56 O69 2.010 . S
O57 Mg56 2.028 . S
O57 C60 1.250 . S
O58 Mg59 2.028 . S
O58 C60 1.248 . S
Mg59 O58 2.028 . S
Mg59 O64 2.032 . S
Mg59 O66 2.079 . S
C60 O57 1.250 . S
C60 O58 1.248 . S
C61 O62 1.264 . S
C61 O69 1.249 . S
O62 C61 1.264 . S
O63 Mg56 1.986 . S
O63 C67 1.246 . S
O64 Mg59 2.032 . S
O64 C67 1.259 . S
O65 Mg56 2.114 . S
O65 C68 1.252 . S
O66 Mg56 2.251 . S
O66 Mg59 2.079 . S
O66 C68 1.273 . S
C67 O63 1.246 . S
C67 O64 1.259 . S
C68 O65 1.252 . S
C68 O66 1.273 . S
O69 Mg56 2.010 . S
O69 C61 1.249 . S
Mg70 O71 2.028 . S
Mg70 O77 1.986 . S
Mg70 O79 2.114 . S
Mg70 O80 2.251 . S
Mg70 O83 2.010 . S
O71 Mg70 2.028 . S
O71 C74 1.250 . S
O72 Mg73 2.028 . S
O72 C74 1.248 . S
Mg73 O72 2.028 . S
Mg73 O78 2.032 . S
Mg73 O80 2.079 . S
C74 O71 1.250 . S
C74 O72 1.248 . S
C75 O76 1.264 . S
C75 O83 1.249 . S
O76 C75 1.264 . S
O77 Mg70 1.986 . S
O77 C81 1.246 . S
O78 Mg73 2.032 . S
O78 C81 1.259 . S
O79 Mg70 2.114 . S
O79 C82 1.252 . S
O80 Mg70 2.251 . S
O80 Mg73 2.079 . S
O80 C82 1.273 . S
C81 O77 1.246 . S
C81 O78 1.259 . S
C82 O79 1.252 . S
C82 O80 1.273 . S
O83 Mg70 2.010 . S
O83 C75 1.249 . S
Mg84 O85 2.028 . S
Mg84 O91 1.986 . S
Mg84 O93 2.114 . S
Mg84 O94 2.251 . S
Mg84 O97 2.010 . S
O85 Mg84 2.028 . S
O85 C88 1.250 . S
O86 Mg87 2.028 . S
O86 C88 1.248 . S
Mg87 O86 2.028 . S
Mg87 O92 2.032 . S
Mg87 O94 2.079 . S
C88 O85 1.250 . S
C88 O86 1.248 . S
C89 O90 1.264 . S
C89 O97 1.249 . S
O90 C89 1.264 . S
O91 Mg84 1.986 . S
O91 C95 1.246 . S
O92 Mg87 2.032 . S
O92 C95 1.259 . S
O93 Mg84 2.114 . S
O93 C96 1.252 . S
O94 Mg84 2.251 . S
O94 Mg87 2.079 . S
O94 C96 1.273 . S
C95 O91 1.246 . S
C95 O92 1.259 . S
C96 O93 1.252 . S
C96 O94 1.273 . S
O97 Mg84 2.010 . S
O97 C89 1.249 . S
Mg98 O99 2.028 . S
Mg98 O105 1.986 . S
Mg98 O107 2.114 . S
Mg98 O108 2.251 . S
Mg98 O111 2.010 . S
O99 Mg98 2.028 . S
O99 C102 1.250 . S
O100 Mg101 2.028 . S
O100 C102 1.248 . S
Mg101 O100 2.028 . S
Mg101 O106 2.032 . S
Mg101 O108 2.079 . S
C102 O99 1.250 . S
C102 O100 1.248 . S
C103 O104 1.264 . S
C103 O111 1.249 . S
O104 C103 1.264 . S
O105 Mg98 1.986 . S
O105 C109 1.246 . S
O106 Mg101 2.032 . S
O106 C109 1.259 . S
O107 Mg98 2.114 . S
O107 C110 1.252 . S
O108 Mg98 2.251 . S
O108 Mg101 2.079 . S
O108 C110 1.273 . S
C109 O105 1.246 . S
C109 O106 1.259 . S
C110 O107 1.252 . S
C110 O108 1.273 . S
O111 Mg98 2.010 . S
O111 C103 1.249 . S
Mg112 O113 2.028 . S
Mg112 O119 1.986 . S
Mg112 O121 2.114 . S
Mg112 O122 2.251 . S
Mg112 O125 2.010 . S
O113 Mg112 2.028 . S
O113 C116 1.250 . S
O114 Mg115 2.028 . S
O114 C116 1.248 . S
Mg115 O114 2.028 . S
Mg115 O120 2.032 . S
Mg115 O122 2.079 . S
C116 O113 1.250 . S
C116 O114 1.248 . S
C117 O118 1.264 . S
C117 O125 1.249 . S
O118 C117 1.264 . S
O119 Mg112 1.986 . S
O119 C123 1.246 . S
O120 Mg115 2.032 . S
O120 C123 1.259 . S
O121 Mg112 2.114 . S
O121 C124 1.252 . S
O122 Mg112 2.251 . S
O122 Mg115 2.079 . S
O122 C124 1.273 . S
C123 O119 1.246 . S
C123 O120 1.259 . S
C124 O121 1.252 . S
C124 O122 1.273 . S
O125 Mg112 2.010 . S
O125 C117 1.249 . S
Mg126 O127 2.028 . S
Mg126 O133 1.986 . S
Mg126 O135 2.114 . S
Mg126 O136 2.251 . S
Mg126 O139 2.010 . S
O127 Mg126 2.028 . S
O127 C130 1.250 . S
O128 Mg129 2.028 . S
O128 C130 1.248 . S
Mg129 O128 2.028 . S
Mg129 O134 2.032 . S
Mg129 O136 2.079 . S
C130 O127 1.250 . S
C130 O128 1.248 . S
C131 O132 1.264 . S
C131 O139 1.249 . S
O132 C131 1.264 . S
O133 Mg126 1.986 . S
O133 C137 1.246 . S
O134 Mg129 2.032 . S
O134 C137 1.259 . S
O135 Mg126 2.114 . S
O135 C138 1.252 . S
O136 Mg126 2.251 . S
O136 Mg129 2.079 . S
O136 C138 1.273 . S
C137 O133 1.246 . S
C137 O134 1.259 . S
C138 O135 1.252 . S
C138 O136 1.273 . S
O139 Mg126 2.010 . S
O139 C131 1.249 . S
Mg140 O141 2.028 . S
Mg140 O147 1.986 . S
Mg140 O149 2.114 . S
Mg140 O150 2.251 . S
Mg140 O153 2.010 . S
O141 Mg140 2.028 . S
O141 C144 1.250 . S
O142 Mg143 2.028 . S
O142 C144 1.248 . S
Mg143 O142 2.028 . S
Mg143 O148 2.032 . S
Mg143 O150 2.079 . S
C144 O141 1.250 . S
C144 O142 1.248 . S
C145 O146 1.264 . S
C145 O153 1.249 . S
O146 C145 1.264 . S
O147 Mg140 1.986 . S
O147 C151 1.246 . S
O148 Mg143 2.032 . S
O148 C151 1.259 . S
O149 Mg140 2.114 . S
O149 C152 1.252 . S
O150 Mg140 2.251 . S
O150 Mg143 2.079 . S
O150 C152 1.273 . S
C151 O147 1.246 . S
C151 O148 1.259 . S
C152 O149 1.252 . S
C152 O150 1.273 . S
O153 Mg140 2.010 . S
O153 C145 1.249 . S
Mg154 O155 2.028 . S
Mg154 O161 1.986 . S
Mg154 O163 2.114 . S
Mg154 O164 2.251 . S
Mg154 O167 2.010 . S
O155 Mg154 2.028 . S
O155 C158 1.250 . S
O156 Mg157 2.028 . S
O156 C158 1.248 . S
Mg157 O156 2.028 . S
Mg157 O162 2.032 . S
Mg157 O164 2.079 . S
C158 O155 1.250 . S
C158 O156 1.248 . S
C159 O160 1.264 . S
C159 O167 1.249 . S
O160 C159 1.264 . S
O161 Mg154 1.986 . S
O161 C165 1.246 . S
O162 Mg157 2.032 . S
O162 C165 1.259 . S
O163 Mg154 2.114 . S
O163 C166 1.252 . S
O164 Mg154 2.251 . S
O164 Mg157 2.079 . S
O164 C166 1.273 . S
C165 O161 1.246 . S
C165 O162 1.259 . S
C166 O163 1.252 . S
C166 O164 1.273 . S
O167 Mg154 2.010 . S
O167 C159 1.249 . S
Mg168 O169 2.028 . S
Mg168 O175 1.986 . S
Mg168 O177 2.114 . S
Mg168 O178 2.251 . S
Mg168 O181 2.010 . S
O169 Mg168 2.028 . S
O169 C172 1.250 . S
O170 Mg171 2.028 . S
O170 C172 1.248 . S
Mg171 O170 2.028 . S
Mg171 O176 2.032 . S
Mg171 O178 2.079 . S
C172 O169 1.250 . S
C172 O170 1.248 . S
C173 O174 1.264 . S
C173 O181 1.249 . S
O174 C173 1.264 . S
O175 Mg168 1.986 . S
O175 C179 1.246 . S
O176 Mg171 2.032 . S
O176 C179 1.259 . S
O177 Mg168 2.114 . S
O177 C180 1.252 . S
O178 Mg168 2.251 . S
O178 Mg171 2.079 . S
O178 C180 1.273 . S
C179 O175 1.246 . S
C179 O176 1.259 . S
C180 O177 1.252 . S
C180 O178 1.273 . S
O181 Mg168 2.010 . S
O181 C173 1.249 . S
Mg182 O183 2.028 . S
Mg182 O189 1.986 . S
Mg182 O191 2.114 . S
Mg182 O192 2.251 . S
Mg182 O195 2.010 . S
O183 Mg182 2.028 . S
O183 C186 1.250 . S
O184 Mg185 2.028 . S
O184 C186 1.248 . S
Mg185 O184 2.028 . S
Mg185 O190 2.032 . S
Mg185 O192 2.079 . S
C186 O183 1.250 . S
C186 O184 1.248 . S
C187 O188 1.264 . S
C187 O195 1.249 . S
O188 C187 1.264 . S
O189 Mg182 1.986 . S
O189 C193 1.246 . S
O190 Mg185 2.032 . S
O190 C193 1.259 . S
O191 Mg182 2.114 . S
O191 C194 1.252 . S
O192 Mg182 2.251 . S
O192 Mg185 2.079 . S
O192 C194 1.273 . S
C193 O189 1.246 . S
C193 O190 1.259 . S
C194 O191 1.252 . S
C194 O192 1.273 . S
O195 Mg182 2.010 . S
O195 C187 1.249 . S
Mg196 O197 2.028 . S
Mg196 O203 1.986 . S
Mg196 O205 2.114 . S
Mg196 O206 2.251 . S
Mg196 O209 2.010 . S
O197 Mg196 2.028 . S
O197 C200 1.250 . S
O198 Mg199 2.028 . S
O198 C200 1.248 . S
Mg199 O198 2.028 . S
Mg199 O204 2.032 . S
Mg199 O206 2.079 . S
C200 O197 1.250 . S
C200 O198 1.248 . S
C201 O202 1.264 . S
C201 O209 1.249 . S
O202 C201 1.264 . S
O203 Mg196 1.986 . S
O203 C207 1.246 . S
O204 Mg199 2.032 . S
O204 C207 1.259 . S
O205 Mg196 2.114 . S
O205 C208 1.252 . S
O206 Mg196 2.251 . S
O206 Mg199 2.079 . S
O206 C208 1.273 . S
C207 O203 1.246 . S
C207 O204 1.259 . S
C208 O205 1.252 . S
C208 O206 1.273 . S
O209 Mg196 2.010 . S
O209 C201 1.249 . S
Mg210 O211 2.028 . S
Mg210 O217 1.986 . S
Mg210 O219 2.114 . S
Mg210 O220 2.251 . S
Mg210 O223 2.010 . S
O211 Mg210 2.028 . S
O211 C214 1.250 . S
O212 Mg213 2.028 . S
O212 C214 1.248 . S
Mg213 O212 2.028 . S
Mg213 O218 2.032 . S
Mg213 O220 2.079 . S
C214 O211 1.250 . S
C214 O212 1.248 . S
C215 O216 1.264 . S
C215 O223 1.249 . S
O216 C215 1.264 . S
O217 Mg210 1.986 . S
O217 C221 1.246 . S
O218 Mg213 2.032 . S
O218 C221 1.259 . S
O219 Mg210 2.114 . S
O219 C222 1.252 . S
O220 Mg210 2.251 . S
O220 Mg213 2.079 . S
O220 C222 1.273 . S
C221 O217 1.246 . S
C221 O218 1.259 . S
C222 O219 1.252 . S
C222 O220 1.273 . S
O223 Mg210 2.010 . S
O223 C215 1.249 . S
Mg224 O225 2.028 . S
Mg224 O231 1.986 . S
Mg224 O233 2.114 . S
Mg224 O234 2.251 . S
Mg224 O237 2.010 . S
O225 Mg224 2.028 . S
O225 C228 1.250 . S
O226 Mg227 2.028 . S
O226 C228 1.248 . S
Mg227 O226 2.028 . S
Mg227 O232 2.032 . S
Mg227 O234 2.079 . S
C228 O225 1.250 . S
C228 O226 1.248 . S
C229 O230 1.264 . S
C229 O237 1.249 . S
O230 C229 1.264 . S
O231 Mg224 1.986 . S
O231 C235 1.246 . S
O232 Mg227 2.032 . S
O232 C235 1.259 . S
O233 Mg224 2.114 . S
O233 C236 1.252 . S
O234 Mg224 2.251 . S
O234 Mg227 2.079 . S
O234 C236 1.273 . S
C235 O231 1.246 . S
C235 O232 1.259 . S
C236 O233 1.252 . S
C236 O234 1.273 . S
O237 Mg224 2.010 . S
O237 C229 1.249 . S
Mg238 O239 2.028 . S
Mg238 O245 1.986 . S
Mg238 O247 2.114 . S
Mg238 O248 2.251 . S
Mg238 O251 2.010 . S
O239 Mg238 2.028 . S
O239 C242 1.250 . S
O240 Mg241 2.028 . S
O240 C242 1.248 . S
Mg241 O240 2.028 . S
Mg241 O246 2.032 . S
Mg241 O248 2.079 . S
C242 O239 1.250 . S
C242 O240 1.248 . S
C243 O244 1.264 . S
C243 O251 1.249 . S
O244 C243 1.264 . S
O245 Mg238 1.986 . S
O245 C249 1.246 . S
O246 Mg241 2.032 . S
O246 C249 1.259 . S
O247 Mg238 2.114 . S
O247 C250 1.252 . S
O248 Mg238 2.251 . S
O248 Mg241 2.079 . S
O248 C250 1.273 . S
C249 O245 1.246 . S
C249 O246 1.259 . S
C250 O247 1.252 . S
C250 O248 1.273 . S
O251 Mg238 2.010 . S
O251 C243 1.249 . S
Mg252 O253 2.028 . S
Mg252 O259 1.986 . S
Mg252 O261 2.114 . S
Mg252 O262 2.251 . S
Mg252 O265 2.010 . S
O253 Mg252 2.028 . S
O253 C256 1.250 . S
O254 Mg255 2.028 . S
O254 C256 1.248 . S
Mg255 O254 2.028 . S
Mg255 O260 2.032 . S
Mg255 O262 2.079 . S
C256 O253 1.250 . S
C256 O254 1.248 . S
C257 O258 1.264 . S
C257 O265 1.249 . S
O258 C257 1.264 . S
O259 Mg252 1.986 . S
O259 C263 1.246 . S
O260 Mg255 2.032 . S
O260 C263 1.259 . S
O261 Mg252 2.114 . S
O261 C264 1.252 . S
O262 Mg252 2.251 . S
O262 Mg255 2.079 . S
O262 C264 1.273 . S
C263 O259 1.246 . S
C263 O260 1.259 . S
C264 O261 1.252 . S
C264 O262 1.273 . S
O265 Mg252 2.010 . S
O265 C257 1.249 . S
Mg266 O267 2.028 . S
Mg266 O273 1.986 . S
Mg266 O275 2.114 . S
Mg266 O276 2.251 . S
Mg266 O279 2.010 . S
O267 Mg266 2.028 . S
O267 C270 1.250 . S
O268 Mg269 2.028 . S
O268 C270 1.248 . S
Mg269 O268 2.028 . S
Mg269 O274 2.032 . S
Mg269 O276 2.079 . S
C270 O267 1.250 . S
C270 O268 1.248 . S
C271 O272 1.264 . S
C271 O279 1.249 . S
O272 C271 1.264 . S
O273 Mg266 1.986 . S
O273 C277 1.246 . S
O274 Mg269 2.032 . S
O274 C277 1.259 . S
O275 Mg266 2.114 . S
O275 C278 1.252 . S
O276 Mg266 2.251 . S
O276 Mg269 2.079 . S
O276 C278 1.273 . S
C277 O273 1.246 . S
C277 O274 1.259 . S
C278 O275 1.252 . S
C278 O276 1.273 . S
O279 Mg266 2.010 . S
O279 C271 1.249 . S
Mg280 O281 2.028 . S
Mg280 O287 1.986 . S
Mg280 O289 2.114 . S
Mg280 O290 2.251 . S
Mg280 O293 2.010 . S
O281 Mg280 2.028 . S
O281 C284 1.250 . S
O282 Mg283 2.028 . S
O282 C284 1.248 . S
Mg283 O282 2.028 . S
Mg283 O288 2.032 . S
Mg283 O290 2.079 . S
C284 O281 1.250 . S
C284 O282 1.248 . S
C285 O286 1.264 . S
C285 O293 1.249 . S
O286 C285 1.264 . S
O287 Mg280 1.986 . S
O287 C291 1.246 . S
O288 Mg283 2.032 . S
O288 C291 1.259 . S
O289 Mg280 2.114 . S
O289 C292 1.252 . S
O290 Mg280 2.251 . S
O290 Mg283 2.079 . S
O290 C292 1.273 . S
C291 O287 1.246 . S
C291 O288 1.259 . S
C292 O289 1.252 . S
C292 O290 1.273 . S
O293 Mg280 2.010 . S
O293 C285 1.249 . S
Mg294 O295 2.028 . S
Mg294 O301 1.986 . S
Mg294 O303 2.114 . S
Mg294 O304 2.251 . S
Mg294 O307 2.010 . S
O295 Mg294 2.028 . S
O295 C298 1.250 . S
O296 Mg297 2.028 . S
O296 C298 1.248 . S
Mg297 O296 2.028 . S
Mg297 O302 2.032 . S
Mg297 O304 2.079 . S
C298 O295 1.250 . S
C298 O296 1.248 . S
C299 O300 1.264 . S
C299 O307 1.249 . S
O300 C299 1.264 . S
O301 Mg294 1.986 . S
O301 C305 1.246 . S
O302 Mg297 2.032 . S
O302 C305 1.259 . S
O303 Mg294 2.114 . S
O303 C306 1.252 . S
O304 Mg294 2.251 . S
O304 Mg297 2.079 . S
O304 C306 1.273 . S
C305 O301 1.246 . S
C305 O302 1.259 . S
C306 O303 1.252 . S
C306 O304 1.273 . S
O307 Mg294 2.010 . S
O307 C299 1.249 . S
Mg308 O309 2.028 . S
Mg308 O315 1.986 . S
Mg308 O317 2.114 . S
Mg308 O318 2.251 . S
Mg308 O321 2.010 . S
O309 Mg308 2.028 . S
O309 C312 1.250 . S
O310 Mg311 2.028 . S
O310 C312 1.248 . S
Mg311 O310 2.028 . S
Mg311 O316 2.032 . S
Mg311 O318 2.079 . S
C312 O309 1.250 . S
C312 O310 1.248 . S
C313 O314 1.264 . S
C313 O321 1.249 . S
O314 C313 1.264 . S
O315 Mg308 1.986 . S
O315 C319 1.246 . S
O316 Mg311 2.032 . S
O316 C319 1.259 . S
O317 Mg308 2.114 . S
O317 C320 1.252 . S
O318 Mg308 2.251 . S
O318 Mg311 2.079 . S
O318 C320 1.273 . S
C319 O315 1.246 . S
C319 O316 1.259 . S
C320 O317 1.252 . S
C320 O318 1.273 . S
O321 Mg308 2.010 . S
O321 C313 1.249 . S
Mg322 O323 2.028 . S
Mg322 O329 1.986 . S
Mg322 O331 2.114 . S
Mg322 O332 2.251 . S
Mg322 O335 2.010 . S
O323 Mg322 2.028 . S
O323 C326 1.250 . S
O324 Mg325 2.028 . S
O324 C326 1.248 . S
Mg325 O324 2.028 . S
Mg325 O330 2.032 . S
Mg325 O332 2.079 . S
C326 O323 1.250 . S
C326 O324 1.248 . S
C327 O328 1.264 . S
C327 O335 1.249 . S
O328 C327 1.264 . S
O329 Mg322 1.986 . S
O329 C333 1.246 . S
O330 Mg325 2.032 . S
O330 C333 1.259 . S
O331 Mg322 2.114 . S
O331 C334 1.252 . S
O332 Mg322 2.251 . S
O332 Mg325 2.079 . S
O332 C334 1.273 . S
C333 O329 1.246 . S
C333 O330 1.259 . S
C334 O331 1.252 . S
C334 O332 1.273 . S
O335 Mg322 2.010 . S
O335 C327 1.249 . S
H336 C344 0.929 . S
H337 C346 0.930 . S
H338 C348 0.930 . S
H339 C351 0.929 . S
H340 C354 0.930 . S
H341 C356 0.960 . S
H342 C356 0.960 . S
H343 C356 0.960 . S
C344 H336 0.929 . S
C344 C345 1.377 . S
C344 C346 1.384 . S
C345 C344 1.377 . S
C345 C351 1.390 . S
C346 H337 0.930 . S
C346 C344 1.384 . S
C346 C347 1.372 . S
C347 C346 1.372 . S
C347 C348 1.400 . S
C347 C352 1.490 . S
C348 H338 0.930 . S
C348 C347 1.400 . S
C348 C351 1.386 . S
H349 C365 0.930 . S
H350 C366 0.931 . S
C351 H339 0.929 . S
C351 C345 1.390 . S
C351 C348 1.386 . S
C352 C347 1.490 . S
C352 C354 1.395 . S
C352 C355 1.403 . S
H353 C359 0.930 . S
C354 H340 0.930 . S
C354 C352 1.395 . S
C354 C357 1.403 . S
C355 C352 1.403 . S
C355 C356 1.524 . S
C355 C359 1.400 . S
C356 H341 0.960 . S
C356 H342 0.960 . S
C356 H343 0.960 . S
C356 C355 1.524 . S
C357 C354 1.403 . S
C357 C358 1.392 . S
C357 C361 1.495 . S
C358 C357 1.392 . S
C358 C359 1.385 . S
C358 C360 1.478 . S
C359 H353 0.930 . S
C359 C355 1.400 . S
C359 C358 1.385 . S
C360 C358 1.478 . S
C360 C362 1.381 . S
C360 C366 1.383 . S
C361 C357 1.495 . S
C361 H367 0.959 . S
C361 H368 0.961 . S
C361 H369 0.960 . S
C362 C360 1.381 . S
C362 C363 1.394 . S
C362 H370 0.930 . S
C363 C362 1.394 . S
C363 C364 1.383 . S
C363 H371 0.929 . S
C364 C363 1.383 . S
C364 C365 1.377 . S
C365 H349 0.930 . S
C365 C364 1.377 . S
C365 C366 1.379 . S
C366 H350 0.931 . S
C366 C360 1.383 . S
C366 C365 1.379 . S
H367 C361 0.959 . S
H368 C361 0.961 . S
H369 C361 0.960 . S
H370 C362 0.930 . S
H371 C363 0.929 . S
H372 C380 0.929 1_655 S
H373 C382 0.930 . S
H374 C384 0.930 . S
H375 C387 0.929 . S
H376 C390 0.930 . S
H377 C392 0.962 . S
H378 C392 0.960 1_655 S
H379 C392 0.960 1_655 S
C380 H372 0.929 1_455 S
C380 C381 1.371 1_455 S
C380 C382 1.391 . S
C381 C380 1.371 1_655 S
C381 C387 1.390 . S
C382 H373 0.930 . S
C382 C380 1.391 . S
C382 C383 1.372 . S
C383 C382 1.372 . S
C383 C384 1.400 . S
C383 C388 1.490 . S
C384 H374 0.930 . S
C384 C383 1.400 . S
C384 C387 1.386 1_455 S
H385 C401 0.930 . S
H386 C402 0.931 . S
C387 H375 0.929 . S
C387 C381 1.390 . S
C387 C384 1.386 1_655 S
C388 C383 1.490 . S
C388 C390 1.395 . S
C388 C391 1.403 . S
H389 C395 0.930 . S
C390 H376 0.930 . S
C390 C388 1.395 . S
C390 C393 1.403 . S
C391 C388 1.403 . S
C391 C392 1.524 . S
C391 C395 1.400 . S
C392 H377 0.962 . S
C392 H378 0.960 1_455 S
C392 H379 0.960 1_455 S
C392 C391 1.524 . S
C393 C390 1.403 . S
C393 C394 1.392 . S
C393 C397 1.495 . S
C394 C393 1.392 . S
C394 C395 1.385 . S
C394 C396 1.478 . S
C395 H389 0.930 . S
C395 C391 1.400 . S
C395 C394 1.385 . S
C396 C394 1.478 . S
C396 C398 1.381 . S
C396 C402 1.383 . S
C397 C393 1.495 . S
C397 H403 0.959 . S
C397 H404 0.961 . S
C397 H405 0.960 . S
C398 C396 1.381 . S
C398 C399 1.394 . S
C398 H406 0.930 . S
C399 C398 1.394 . S
C399 C400 1.383 . S
C399 H407 0.929 . S
C400 C399 1.383 . S
C400 C401 1.377 . S
C401 H385 0.930 . S
C401 C400 1.377 . S
C401 C402 1.379 . S
C402 H386 0.931 . S
C402 C396 1.383 . S
C402 C401 1.379 . S
H403 C397 0.959 . S
H404 C397 0.961 . S
H405 C397 0.960 . S
H406 C398 0.930 . S
H407 C399 0.929 . S
H408 C416 0.929 . S
H409 C418 0.930 . S
H410 C420 0.930 . S
H411 C423 0.929 . S
H412 C426 0.930 . S
H413 C428 0.960 . S
H414 C428 0.960 . S
H415 C428 0.960 . S
C416 H408 0.929 . S
C416 C417 1.377 . S
C416 C418 1.384 . S
C417 C416 1.377 . S
C417 C423 1.390 . S
C418 H409 0.930 . S
C418 C416 1.384 . S
C418 C419 1.372 . S
C419 C418 1.372 . S
C419 C420 1.400 . S
C419 C424 1.490 . S
C420 H410 0.930 . S
C420 C419 1.400 . S
C420 C423 1.386 . S
H421 C437 0.932 . S
H422 C438 0.931 . S
C423 H411 0.929 . S
C423 C417 1.390 . S
C423 C420 1.386 . S
C424 C419 1.490 . S
C424 C426 1.395 . S
C424 C427 1.403 . S
H425 C431 0.930 . S
C426 H412 0.930 . S
C426 C424 1.395 . S
C426 C429 1.403 . S
C427 C424 1.403 . S
C427 C428 1.524 . S
C427 C431 1.400 . S
C428 H413 0.960 . S
C428 H414 0.960 . S
C428 H415 0.960 . S
C428 C427 1.524 . S
C429 C426 1.403 . S
C429 C430 1.392 . S
C429 C433 1.495 . S
C430 C429 1.392 . S
C430 C431 1.385 . S
C430 C432 1.478 . S
C431 H425 0.930 . S
C431 C427 1.400 . S
C431 C430 1.385 . S
C432 C430 1.478 . S
C432 C434 1.381 . S
C432 C438 1.383 . S
C433 C429 1.495 . S
C433 H439 0.959 . S
C433 H440 0.961 . S
C433 H441 0.960 . S
C434 C432 1.381 . S
C434 C435 1.394 1_556 S
C434 H442 0.930 . S
C435 C434 1.394 1_554 S
C435 C436 1.383 . S
C435 H443 0.929 . S
C436 C435 1.383 . S
C436 C437 1.377 1_554 S
C437 H421 0.932 . S
C437 C436 1.377 1_556 S
C437 C438 1.379 . S
C438 H422 0.931 . S
C438 C432 1.383 . S
C438 C437 1.379 . S
H439 C433 0.959 . S
H440 C433 0.961 . S
H441 C433 0.960 . S
H442 C434 0.930 . S
H443 C435 0.929 . S
H444 C452 0.929 . S
H445 C454 0.930 . S
H446 C456 0.930 . S
H447 C459 0.929 . S
H448 C462 0.930 . S
H449 C464 0.960 . S
H450 C464 0.960 . S
H451 C464 0.960 . S
C452 H444 0.929 . S
C452 C453 1.377 . S
C452 C454 1.384 . S
C453 C452 1.377 . S
C453 C459 1.390 . S
C454 H445 0.930 . S
C454 C452 1.384 . S
C454 C455 1.372 . S
C455 C454 1.372 . S
C455 C456 1.400 . S
C455 C460 1.490 . S
C456 H446 0.930 . S
C456 C455 1.400 . S
C456 C459 1.386 . S
H457 C473 0.930 . S
H458 C474 0.931 . S
C459 H447 0.929 . S
C459 C453 1.390 . S
C459 C456 1.386 . S
C460 C455 1.490 . S
C460 C462 1.395 . S
C460 C463 1.403 . S
H461 C467 0.930 . S
C462 H448 0.930 . S
C462 C460 1.395 . S
C462 C465 1.403 . S
C463 C460 1.403 . S
C463 C464 1.524 . S
C463 C467 1.400 . S
C464 H449 0.960 . S
C464 H450 0.960 . S
C464 H451 0.960 . S
C464 C463 1.524 . S
C465 C462 1.403 . S
C465 C466 1.392 . S
C465 C469 1.495 . S
C466 C465 1.392 . S
C466 C467 1.385 . S
C466 C468 1.478 . S
C467 H461 0.930 . S
C467 C463 1.400 . S
C467 C466 1.385 . S
C468 C466 1.478 . S
C468 C470 1.381 . S
C468 C474 1.383 . S
C469 C465 1.495 . S
C469 H475 0.959 . S
C469 H476 0.961 . S
C469 H477 0.960 . S
C470 C468 1.381 . S
C470 C471 1.394 . S
C470 H478 0.930 . S
C471 C470 1.394 . S
C471 C472 1.383 . S
C471 H479 0.929 . S
C472 C471 1.383 . S
C472 C473 1.377 . S
C473 H457 0.930 . S
C473 C472 1.377 . S
C473 C474 1.379 . S
C474 H458 0.931 . S
C474 C468 1.383 . S
C474 C473 1.379 . S
H475 C469 0.959 . S
H476 C469 0.961 . S
H477 C469 0.960 . S
H478 C470 0.930 . S
H479 C471 0.929 . S
H480 C488 0.929 . S
H481 C490 0.930 . S
H482 C492 0.930 . S
H483 C495 0.929 . S
H484 C498 0.930 . S
H485 C500 0.960 . S
H486 C500 0.960 . S
H487 C500 0.960 . S
C488 H480 0.929 . S
C488 C489 1.377 . S
C488 C490 1.384 . S
C489 C488 1.377 . S
C489 C495 1.390 . S
C490 H481 0.930 . S
C490 C488 1.384 . S
C490 C491 1.372 . S
C491 C490 1.372 . S
C491 C492 1.400 . S
C491 C496 1.490 . S
C492 H482 0.930 . S
C492 C491 1.400 . S
C492 C495 1.386 . S
H493 C509 0.930 . S
H494 C510 0.931 . S
C495 H483 0.929 . S
C495 C489 1.390 . S
C495 C492 1.386 . S
C496 C491 1.490 . S
C496 C498 1.395 . S
C496 C499 1.403 . S
H497 C503 0.930 . S
C498 H484 0.930 . S
C498 C496 1.395 . S
C498 C501 1.403 . S
C499 C496 1.403 . S
C499 C500 1.524 . S
C499 C503 1.400 . S
C500 H485 0.960 . S
C500 H486 0.960 . S
C500 H487 0.960 . S
C500 C499 1.524 . S
C501 C498 1.403 . S
C501 C502 1.392 . S
C501 C505 1.495 . S
C502 C501 1.392 . S
C502 C503 1.385 . S
C502 C504 1.478 . S
C503 H497 0.930 . S
C503 C499 1.400 . S
C503 C502 1.385 . S
C504 C502 1.478 . S
C504 C506 1.381 . S
C504 C510 1.383 . S
C505 C501 1.495 . S
C505 H511 0.959 . S
C505 H512 0.961 . S
C505 H513 0.960 . S
C506 C504 1.381 . S
C506 C507 1.394 . S
C506 H514 0.930 . S
C507 C506 1.394 . S
C507 C508 1.383 . S
C507 H515 0.929 . S
C508 C507 1.383 . S
C508 C509 1.377 . S
C509 H493 0.930 . S
C509 C508 1.377 . S
C509 C510 1.379 . S
C510 H494 0.931 . S
C510 C504 1.383 . S
C510 C509 1.379 . S
H511 C505 0.959 . S
H512 C505 0.961 . S
H513 C505 0.960 . S
H514 C506 0.930 . S
H515 C507 0.929 . S
H516 C524 0.929 . S
H517 C526 0.930 . S
H518 C528 0.930 . S
H519 C531 0.929 . S
H520 C534 0.930 . S
H521 C536 0.960 . S
H522 C536 0.960 . S
H523 C536 0.960 . S
C524 H516 0.929 . S
C524 C525 1.377 . S
C524 C526 1.384 . S
C525 C524 1.377 . S
C525 C531 1.390 . S
C526 H517 0.930 . S
C526 C524 1.384 . S
C526 C527 1.372 . S
C527 C526 1.372 . S
C527 C528 1.400 . S
C527 C532 1.490 . S
C528 H518 0.930 . S
C528 C527 1.400 . S
C528 C531 1.386 . S
H529 C545 0.930 . S
H530 C546 0.931 . S
C531 H519 0.929 . S
C531 C525 1.390 . S
C531 C528 1.386 . S
C532 C527 1.490 . S
C532 C534 1.395 . S
C532 C535 1.403 . S
H533 C539 0.930 . S
C534 H520 0.930 . S
C534 C532 1.395 . S
C534 C537 1.403 . S
C535 C532 1.403 . S
C535 C536 1.524 . S
C535 C539 1.400 . S
C536 H521 0.960 . S
C536 H522 0.960 . S
C536 H523 0.960 . S
C536 C535 1.524 . S
C537 C534 1.403 . S
C537 C538 1.392 . S
C537 C541 1.495 . S
C538 C537 1.392 . S
C538 C539 1.385 . S
C538 C540 1.478 . S
C539 H533 0.930 . S
C539 C535 1.400 . S
C539 C538 1.385 . S
C540 C538 1.478 . S
C540 C542 1.381 . S
C540 C546 1.383 . S
C541 C537 1.495 . S
C541 H547 0.959 . S
C541 H548 0.961 . S
C541 H549 0.960 . S
C542 C540 1.381 . S
C542 C543 1.394 . S
C542 H550 0.930 . S
C543 C542 1.394 . S
C543 C544 1.383 1_655 S
C543 H551 0.931 . S
C544 C543 1.383 1_455 S
C544 C545 1.377 . S
C545 H529 0.930 . S
C545 C544 1.377 . S
C545 C546 1.379 1_455 S
C546 H530 0.931 . S
C546 C540 1.383 . S
C546 C545 1.379 1_655 S
H547 C541 0.959 . S
H548 C541 0.961 . S
H549 C541 0.960 . S
H550 C542 0.930 . S
H551 C543 0.931 . S
H552 C560 0.929 . S
H553 C562 0.930 . S
H554 C564 0.930 . S
H555 C567 0.929 . S
H556 C570 0.930 . S
H557 C572 0.960 . S
H558 C572 0.960 . S
H559 C572 0.960 . S
C560 H552 0.929 . S
C560 C561 1.377 . S
C560 C562 1.384 . S
C561 C560 1.377 . S
C561 C567 1.390 . S
C562 H553 0.930 . S
C562 C560 1.384 . S
C562 C563 1.372 . S
C563 C562 1.372 . S
C563 C564 1.400 . S
C563 C568 1.490 . S
C564 H554 0.930 . S
C564 C563 1.400 . S
C564 C567 1.386 . S
H565 C581 0.930 . S
H566 C582 0.931 . S
C567 H555 0.929 . S
C567 C561 1.390 . S
C567 C564 1.386 . S
C568 C563 1.490 . S
C568 C570 1.395 . S
C568 C571 1.403 . S
H569 C575 0.930 . S
C570 H556 0.930 . S
C570 C568 1.395 . S
C570 C573 1.403 . S
C571 C568 1.403 . S
C571 C572 1.524 . S
C571 C575 1.400 . S
C572 H557 0.960 . S
C572 H558 0.960 . S
C572 H559 0.960 . S
C572 C571 1.524 . S
C573 C570 1.403 . S
C573 C574 1.392 . S
C573 C577 1.495 . S
C574 C573 1.392 . S
C574 C575 1.385 . S
C574 C576 1.478 . S
C575 H569 0.930 . S
C575 C571 1.400 . S
C575 C574 1.385 . S
C576 C574 1.478 . S
C576 C578 1.381 . S
C576 C582 1.383 . S
C577 C573 1.495 . S
C577 H583 0.959 . S
C577 H584 0.961 . S
C577 H585 0.960 . S
C578 C576 1.381 . S
C578 C579 1.394 1_554 S
C578 H586 0.930 . S
C579 C578 1.394 1_556 S
C579 C580 1.383 . S
C579 H587 0.929 . S
C580 C579 1.383 . S
C580 C581 1.377 . S
C581 H565 0.930 . S
C581 C580 1.377 . S
C581 C582 1.379 1_556 S
C582 H566 0.931 . S
C582 C576 1.383 . S
C582 C581 1.379 1_554 S
H583 C577 0.959 . S
H584 C577 0.961 . S
H585 C577 0.960 . S
H586 C578 0.930 . S
H587 C579 0.929 . S
H588 C596 0.929 . S
H589 C598 0.930 . S
H590 C600 0.930 . S
H591 C603 0.929 . S
H592 C606 0.930 . S
H593 C608 0.960 . S
H594 C608 0.960 . S
H595 C608 0.960 . S
C596 H588 0.929 . S
C596 C597 1.377 . S
C596 C598 1.384 . S
C597 C596 1.377 . S
C597 C603 1.390 . S
C598 H589 0.930 . S
C598 C596 1.384 . S
C598 C599 1.372 . S
C599 C598 1.372 . S
C599 C600 1.400 . S
C599 C604 1.490 . S
C600 H590 0.930 . S
C600 C599 1.400 . S
C600 C603 1.386 . S
H601 C617 0.930 . S
H602 C618 0.931 . S
C603 H591 0.929 . S
C603 C597 1.390 . S
C603 C600 1.386 . S
C604 C599 1.490 . S
C604 C606 1.395 . S
C604 C607 1.403 . S
H605 C611 0.930 . S
C606 H592 0.930 . S
C606 C604 1.395 . S
C606 C609 1.403 . S
C607 C604 1.403 . S
C607 C608 1.524 . S
C607 C611 1.400 . S
C608 H593 0.960 . S
C608 H594 0.960 . S
C608 H595 0.960 . S
C608 C607 1.524 . S
C609 C606 1.403 . S
C609 C610 1.392 . S
C609 C613 1.495 . S
C610 C609 1.392 . S
C610 C611 1.385 . S
C610 C612 1.478 . S
C611 H605 0.930 . S
C611 C607 1.400 . S
C611 C610 1.385 . S
C612 C610 1.478 . S
C612 C614 1.381 . S
C612 C618 1.383 . S
C613 C609 1.495 . S
C613 H619 0.959 . S
C613 H620 0.961 . S
C613 H621 0.960 . S
C614 C612 1.381 . S
C614 C615 1.394 . S
C614 H622 0.930 . S
C615 C614 1.394 . S
C615 C616 1.383 . S
C615 H623 0.929 . S
C616 C615 1.383 . S
C616 C617 1.377 . S
C617 H601 0.930 . S
C617 C616 1.377 . S
C617 C618 1.379 . S
C618 H602 0.931 . S
C618 C612 1.383 . S
C618 C617 1.379 . S
H619 C613 0.959 . S
H620 C613 0.961 . S
H621 C613 0.960 . S
H622 C614 0.930 . S
H623 C615 0.929 . S
H624 C632 0.929 . S
H625 C634 0.930 . S
H626 C636 0.930 . S
H627 C639 0.929 . S
H628 C642 0.930 . S
H629 C644 0.960 . S
H630 C644 0.960 . S
H631 C644 0.960 . S
C632 H624 0.929 . S
C632 C633 1.377 . S
C632 C634 1.384 . S
C633 C632 1.377 . S
C633 C639 1.390 . S
C634 H625 0.930 . S
C634 C632 1.384 . S
C634 C635 1.372 . S
C635 C634 1.372 . S
C635 C636 1.400 . S
C635 C640 1.490 . S
C636 H626 0.930 . S
C636 C635 1.400 . S
C636 C639 1.386 . S
H637 C653 0.930 . S
H638 C654 0.931 . S
C639 H627 0.929 . S
C639 C633 1.390 . S
C639 C636 1.386 . S
C640 C635 1.490 . S
C640 C642 1.395 . S
C640 C643 1.403 . S
H641 C647 0.930 . S
C642 H628 0.930 . S
C642 C640 1.395 . S
C642 C645 1.403 . S
C643 C640 1.403 . S
C643 C644 1.524 . S
C643 C647 1.400 . S
C644 H629 0.960 . S
C644 H630 0.960 . S
C644 H631 0.960 . S
C644 C643 1.524 . S
C645 C642 1.403 . S
C645 C646 1.392 . S
C645 C649 1.495 . S
C646 C645 1.392 . S
C646 C647 1.385 . S
C646 C648 1.478 . S
C647 H641 0.930 . S
C647 C643 1.400 . S
C647 C646 1.385 . S
C648 C646 1.478 . S
C648 C650 1.381 . S
C648 C654 1.383 . S
C649 C645 1.495 . S
C649 H655 0.959 . S
C649 H656 0.961 . S
C649 H657 0.960 . S
C650 C648 1.381 . S
C650 C651 1.394 . S
C650 H658 0.930 . S
C651 C650 1.394 . S
C651 C652 1.383 . S
C651 H659 0.929 . S
C652 C651 1.383 . S
C652 C653 1.377 . S
C653 H637 0.930 . S
C653 C652 1.377 . S
C653 C654 1.379 . S
C654 H638 0.931 . S
C654 C648 1.383 . S
C654 C653 1.379 . S
H655 C649 0.959 . S
H656 C649 0.961 . S
H657 C649 0.960 . S
H658 C650 0.930 . S
H659 C651 0.929 . S
H660 C668 0.929 . S
H661 C670 0.930 . S
H662 C672 0.930 . S
H663 C675 0.929 . S
H664 C678 0.930 . S
H665 C680 0.962 . S
H666 C680 0.960 1_565 S
H667 C680 0.960 1_565 S
C668 H660 0.929 . S
C668 C669 1.355 1_545 S
C668 C670 1.407 . S
C669 C668 1.355 1_565 S
C669 C675 1.390 . S
C670 H661 0.930 . S
C670 C668 1.407 . S
C670 C671 1.372 . S
C671 C670 1.372 . S
C671 C672 1.432 . S
C671 C676 1.490 . S
C672 H662 0.930 . S
C672 C671 1.432 . S
C672 C675 1.355 1_545 S
H673 C689 0.930 . S
H674 C690 0.931 . S
C675 H663 0.929 . S
C675 C669 1.390 . S
C675 C672 1.355 1_565 S
C676 C671 1.490 . S
C676 C678 1.395 . S
C676 C679 1.403 . S
H677 C683 0.930 . S
C678 H664 0.930 . S
C678 C676 1.395 . S
C678 C681 1.403 . S
C679 C676 1.403 . S
C679 C680 1.524 . S
C679 C683 1.400 . S
C680 H665 0.962 . S
C680 H666 0.960 1_545 S
C680 H667 0.960 1_545 S
C680 C679 1.524 . S
C681 C678 1.403 . S
C681 C682 1.392 . S
C681 C685 1.495 . S
C682 C681 1.392 . S
C682 C683 1.385 . S
C682 C684 1.478 . S
C683 H677 0.930 . S
C683 C679 1.400 . S
C683 C682 1.385 . S
C684 C682 1.478 . S
C684 C686 1.381 . S
C684 C690 1.383 . S
C685 C681 1.495 . S
C685 H691 0.959 . S
C685 H692 0.961 . S
C685 H693 0.960 . S
C686 C684 1.381 . S
C686 C687 1.394 . S
C686 H694 0.930 . S
C687 C686 1.394 . S
C687 C688 1.383 . S
C687 H695 0.929 . S
C688 C687 1.383 . S
C688 C689 1.377 . S
C689 H673 0.930 . S
C689 C688 1.377 . S
C689 C690 1.379 . S
C690 H674 0.931 . S
C690 C684 1.383 . S
C690 C689 1.379 . S
H691 C685 0.959 . S
H692 C685 0.961 . S
H693 C685 0.960 . S
H694 C686 0.930 . S
H695 C687 0.929 . S
H696 C704 0.929 . S
H697 C706 0.930 . S
H698 C708 0.930 . S
H699 C711 0.929 . S
H700 C714 0.930 . S
H701 C716 0.960 . S
H702 C716 0.960 . S
H703 C716 0.960 . S
C704 H696 0.929 . S
C704 C705 1.377 . S
C704 C706 1.384 . S
C705 C704 1.377 . S
C705 C711 1.390 . S
C706 H697 0.930 . S
C706 C704 1.384 . S
C706 C707 1.372 . S
C707 C706 1.372 . S
C707 C708 1.400 . S
C707 C712 1.490 . S
C708 H698 0.930 . S
C708 C707 1.400 . S
C708 C711 1.386 . S
H709 C725 0.930 . S
H710 C726 0.931 . S
C711 H699 0.929 . S
C711 C705 1.390 . S
C711 C708 1.386 . S
C712 C707 1.490 . S
C712 C714 1.395 . S
C712 C715 1.403 . S
H713 C719 0.930 . S
C714 H700 0.930 . S
C714 C712 1.395 . S
C714 C717 1.403 . S
C715 C712 1.403 . S
C715 C716 1.524 . S
C715 C719 1.400 . S
C716 H701 0.960 . S
C716 H702 0.960 . S
C716 H703 0.960 . S
C716 C715 1.524 . S
C717 C714 1.403 . S
C717 C718 1.392 . S
C717 C721 1.495 . S
C718 C717 1.392 . S
C718 C719 1.385 . S
C718 C720 1.478 . S
C719 H713 0.930 . S
C719 C715 1.400 . S
C719 C718 1.385 . S
C720 C718 1.478 . S
C720 C722 1.381 1_565 S
C720 C726 1.383 . S
C721 C717 1.495 . S
C721 H727 0.959 . S
C721 H728 0.961 . S
C721 H729 0.960 . S
C722 C720 1.381 1_545 S
C722 C723 1.394 . S
C722 H730 0.930 . S
C723 C722 1.394 . S
C723 C724 1.383 . S
C723 H731 0.929 . S
C724 C723 1.383 . S
C724 C725 1.377 1_545 S
C725 H709 0.930 . S
C725 C724 1.377 1_565 S
C725 C726 1.379 . S
C726 H710 0.931 . S
C726 C720 1.383 . S
C726 C725 1.379 . S
H727 C721 0.959 . S
H728 C721 0.961 . S
H729 C721 0.960 . S
H730 C722 0.930 . S
H731 C723 0.929 . S
H732 C740 0.929 . S
H733 C742 0.930 . S
H734 C744 0.930 . S
H735 C747 0.929 . S
H736 C750 0.930 . S
H737 C752 0.960 . S
H738 C752 0.960 . S
H739 C752 0.960 . S
C740 H732 0.929 . S
C740 C741 1.377 . S
C740 C742 1.384 . S
C741 C740 1.377 . S
C741 C747 1.390 . S
C742 H733 0.930 . S
C742 C740 1.384 . S
C742 C743 1.372 . S
C743 C742 1.372 . S
C743 C744 1.400 . S
C743 C748 1.490 . S
C744 H734 0.930 . S
C744 C743 1.400 . S
C744 C747 1.386 . S
H745 C761 0.930 . S
H746 C762 0.931 . S
C747 H735 0.929 . S
C747 C741 1.390 . S
C747 C744 1.386 . S
C748 C743 1.490 . S
C748 C750 1.395 . S
C748 C751 1.403 . S
H749 C755 0.930 . S
C750 H736 0.930 . S
C750 C748 1.395 . S
C750 C753 1.403 . S
C751 C748 1.403 . S
C751 C752 1.524 . S
C751 C755 1.400 . S
C752 H737 0.960 . S
C752 H738 0.960 . S
C752 H739 0.960 . S
C752 C751 1.524 . S
C753 C750 1.403 . S
C753 C754 1.392 . S
C753 C757 1.495 . S
C754 C753 1.392 . S
C754 C755 1.385 . S
C754 C756 1.478 . S
C755 H749 0.930 . S
C755 C751 1.400 . S
C755 C754 1.385 . S
C756 C754 1.478 . S
C756 C758 1.381 . S
C756 C762 1.383 . S
C757 C753 1.495 . S
C757 H763 0.959 . S
C757 H764 0.961 . S
C757 H765 0.960 . S
C758 C756 1.381 . S
C758 C759 1.394 . S
C758 H766 0.930 . S
C759 C758 1.394 . S
C759 C760 1.383 . S
C759 H767 0.929 . S
C760 C759 1.383 . S
C760 C761 1.377 . S
C761 H745 0.930 . S
C761 C760 1.377 . S
C761 C762 1.379 . S
C762 H746 0.931 . S
C762 C756 1.383 . S
C762 C761 1.379 . S
H763 C757 0.959 . S
H764 C757 0.961 . S
H765 C757 0.960 . S
H766 C758 0.930 . S
H767 C759 0.929 . S
H768 C776 0.929 . S
H769 C778 0.930 . S
H770 C780 0.930 . S
H771 C783 0.929 . S
H772 C786 0.930 . S
H773 C788 0.960 . S
H774 C788 0.960 . S
H775 C788 0.960 . S
C776 H768 0.929 . S
C776 C777 1.377 . S
C776 C778 1.384 . S
C777 C776 1.377 . S
C777 C783 1.390 . S
C778 H769 0.930 . S
C778 C776 1.384 . S
C778 C779 1.372 . S
C779 C778 1.372 . S
C779 C780 1.400 . S
C779 C784 1.490 . S
C780 H770 0.930 . S
C780 C779 1.400 . S
C780 C783 1.386 . S
H781 C797 0.930 . S
H782 C798 0.931 . S
C783 H771 0.929 . S
C783 C777 1.390 . S
C783 C780 1.386 . S
C784 C779 1.490 . S
C784 C786 1.395 . S
C784 C787 1.403 . S
H785 C791 0.930 . S
C786 H772 0.930 . S
C786 C784 1.395 . S
C786 C789 1.403 . S
C787 C784 1.403 . S
C787 C788 1.524 . S
C787 C791 1.400 . S
C788 H773 0.960 . S
C788 H774 0.960 . S
C788 H775 0.960 . S
C788 C787 1.524 . S
C789 C786 1.403 . S
C789 C790 1.392 . S
C789 C793 1.495 . S
C790 C789 1.392 . S
C790 C791 1.385 . S
C790 C792 1.478 . S
C791 H785 0.930 . S
C791 C787 1.400 . S
C791 C790 1.385 . S
C792 C790 1.478 . S
C792 C794 1.381 . S
C792 C798 1.383 . S
C793 C789 1.495 . S
C793 H799 0.959 . S
C793 H800 0.961 . S
C793 H801 0.960 . S
C794 C792 1.381 . S
C794 C795 1.394 . S
C794 H802 0.930 . S
C795 C794 1.394 . S
C795 C796 1.383 . S
C795 H803 0.929 . S
C796 C795 1.383 . S
C796 C797 1.377 . S
C797 H781 0.930 . S
C797 C796 1.377 . S
C797 C798 1.379 . S
C798 H782 0.931 . S
C798 C792 1.383 . S
C798 C797 1.379 . S
H799 C793 0.959 . S
H800 C793 0.961 . S
H801 C793 0.960 . S
H802 C794 0.930 . S
H803 C795 0.929 . S
H804 C812 0.930 1_545 S
H805 C814 0.930 . S
H806 C816 0.930 . S
H807 C819 0.929 . S
H808 C822 0.930 . S
H809 C824 0.960 . S
H810 C824 0.960 . S
H811 C824 0.960 . S
C812 H804 0.930 1_565 S
C812 C813 1.377 . S
C812 C814 1.384 1_565 S
C813 C812 1.377 . S
C813 C819 1.390 . S
C814 H805 0.930 . S
C814 C812 1.384 1_545 S
C814 C815 1.372 . S
C815 C814 1.372 . S
C815 C816 1.400 1_545 S
C815 C820 1.490 . S
C816 H806 0.930 . S
C816 C815 1.400 1_565 S
C816 C819 1.386 . S
H817 C833 0.930 . S
H818 C834 0.931 . S
C819 H807 0.929 . S
C819 C813 1.390 . S
C819 C816 1.386 . S
C820 C815 1.490 . S
C820 C822 1.395 . S
C820 C823 1.403 . S
H821 C827 0.930 . S
C822 H808 0.930 . S
C822 C820 1.395 . S
C822 C825 1.403 . S
C823 C820 1.403 . S
C823 C824 1.524 . S
C823 C827 1.400 . S
C824 H809 0.960 . S
C824 H810 0.960 . S
C824 H811 0.960 . S
C824 C823 1.524 . S
C825 C822 1.403 . S
C825 C826 1.392 . S
C825 C829 1.495 . S
C826 C825 1.392 . S
C826 C827 1.385 . S
C826 C828 1.478 . S
C827 H821 0.930 . S
C827 C823 1.400 . S
C827 C826 1.385 . S
C828 C826 1.478 . S
C828 C830 1.381 . S
C828 C834 1.383 . S
C829 C825 1.495 . S
C829 H835 0.959 . S
C829 H836 0.961 . S
C829 H837 0.960 . S
C830 C828 1.381 . S
C830 C831 1.394 . S
C830 H838 0.930 . S
C831 C830 1.394 . S
C831 C832 1.383 . S
C831 H839 0.929 . S
C832 C831 1.383 . S
C832 C833 1.377 . S
C833 H817 0.930 . S
C833 C832 1.377 . S
C833 C834 1.379 . S
C834 H818 0.931 . S
C834 C828 1.383 . S
C834 C833 1.379 . S
H835 C829 0.959 . S
H836 C829 0.961 . S
H837 C829 0.960 . S
H838 C830 0.930 . S
H839 C831 0.929 . S
H840 C848 0.929 . S
H841 C850 0.930 . S
H842 C852 0.930 . S
H843 C855 0.929 . S
H844 C858 0.930 . S
H845 C860 0.960 1_554 S
H846 C860 0.960 . S
H847 C860 0.960 . S
C848 H840 0.929 . S
C848 C849 1.377 . S
C848 C850 1.384 . S
C849 C848 1.377 . S
C849 C855 1.390 . S
C850 H841 0.930 . S
C850 C848 1.384 . S
C850 C851 1.372 . S
C851 C850 1.372 . S
C851 C852 1.400 . S
C851 C856 1.490 . S
C852 H842 0.930 . S
C852 C851 1.400 . S
C852 C855 1.386 . S
H853 C869 0.930 . S
H854 C870 0.931 . S
C855 H843 0.929 . S
C855 C849 1.390 . S
C855 C852 1.386 . S
C856 C851 1.490 . S
C856 C858 1.395 . S
C856 C859 1.403 . S
H857 C863 0.930 1_554 S
C858 H844 0.930 . S
C858 C856 1.395 . S
C858 C861 1.403 . S
C859 C856 1.403 . S
C859 C860 1.524 . S
C859 C863 1.400 . S
C860 H845 0.960 1_556 S
C860 H846 0.960 . S
C860 H847 0.960 . S
C860 C859 1.524 . S
C861 C858 1.403 . S
C861 C862 1.392 . S
C861 C865 1.495 . S
C862 C861 1.392 . S
C862 C863 1.385 . S
C862 C864 1.478 . S
C863 H857 0.930 1_556 S
C863 C859 1.400 . S
C863 C862 1.385 . S
C864 C862 1.478 . S
C864 C866 1.381 . S
C864 C870 1.383 1_556 S
C865 C861 1.495 . S
C865 H871 0.959 . S
C865 H872 0.961 . S
C865 H873 0.960 . S
C866 C864 1.381 . S
C866 C867 1.394 1_556 S
C866 H874 0.930 . S
C867 C866 1.394 1_554 S
C867 C868 1.383 . S
C867 H875 0.929 . S
C868 C867 1.383 . S
C868 C869 1.377 . S
C869 H853 0.930 . S
C869 C868 1.377 . S
C869 C870 1.379 . S
C870 H854 0.931 . S
C870 C864 1.383 1_554 S
C870 C869 1.379 . S
H871 C865 0.959 . S
H872 C865 0.961 . S
H873 C865 0.960 . S
H874 C866 0.930 . S
H875 C867 0.929 . S
H876 C884 0.929 . S
H877 C886 0.930 . S
H878 C888 0.930 1_565 S
H879 C891 0.929 . S
H880 C894 0.930 1_545 S
H881 C896 0.960 . S
H882 C896 0.960 . S
H883 C896 0.960 . S
C884 H876 0.929 . S
C884 C885 1.377 . S
C884 C886 1.384 . S
C885 C884 1.377 . S
C885 C891 1.390 . S
C886 H877 0.930 . S
C886 C884 1.384 . S
C886 C887 1.372 1_545 S
C887 C886 1.372 1_565 S
C887 C888 1.400 1_565 S
C887 C892 1.490 . S
C888 H878 0.930 1_545 S
C888 C887 1.400 1_545 S
C888 C891 1.386 . S
H889 C905 0.930 . S
H890 C906 0.931 . S
C891 H879 0.929 . S
C891 C885 1.390 . S
C891 C888 1.386 . S
C892 C887 1.490 . S
C892 C894 1.395 . S
C892 C895 1.403 . S
H893 C899 0.930 . S
C894 H880 0.930 1_565 S
C894 C892 1.395 . S
C894 C897 1.403 . S
C895 C892 1.403 . S
C895 C896 1.524 . S
C895 C899 1.400 . S
C896 H881 0.960 . S
C896 H882 0.960 . S
C896 H883 0.960 . S
C896 C895 1.524 . S
C897 C894 1.403 . S
C897 C898 1.392 . S
C897 C901 1.495 . S
C898 C897 1.392 . S
C898 C899 1.385 . S
C898 C900 1.478 . S
C899 H893 0.930 . S
C899 C895 1.400 . S
C899 C898 1.385 . S
C900 C898 1.478 . S
C900 C902 1.381 . S
C900 C906 1.383 . S
C901 C897 1.495 . S
C901 H907 0.959 1_565 S
C901 H908 0.961 . S
C901 H909 0.960 . S
C902 C900 1.381 . S
C902 C903 1.394 . S
C902 H910 0.930 . S
C903 C902 1.394 . S
C903 C904 1.383 . S
C903 H911 0.929 . S
C904 C903 1.383 . S
C904 C905 1.377 . S
C905 H889 0.930 . S
C905 C904 1.377 . S
C905 C906 1.379 . S
C906 H890 0.931 . S
C906 C900 1.383 . S
C906 C905 1.379 . S
H907 C901 0.959 1_545 S
H908 C901 0.961 . S
H909 C901 0.960 . S
H910 C902 0.930 . S
H911 C903 0.929 . S
H912 C920 0.929 . S
H913 C922 0.930 . S
H914 C924 0.930 . S
H915 C927 0.929 . S
H916 C930 0.930 . S
H917 C932 0.960 . S
H918 C932 0.960 . S
H919 C932 0.960 . S
C920 H912 0.929 . S
C920 C921 1.377 . S
C920 C922 1.384 . S
C921 C920 1.377 . S
C921 C927 1.390 . S
C922 H913 0.930 . S
C922 C920 1.384 . S
C922 C923 1.372 . S
C923 C922 1.372 . S
C923 C924 1.400 . S
C923 C928 1.490 . S
C924 H914 0.930 . S
C924 C923 1.400 . S
C924 C927 1.386 . S
H925 C941 0.930 . S
H926 C942 0.931 . S
C927 H915 0.929 . S
C927 C921 1.390 . S
C927 C924 1.386 . S
C928 C923 1.490 . S
C928 C930 1.395 . S
C928 C931 1.403 . S
H929 C935 0.930 . S
C930 H916 0.930 . S
C930 C928 1.395 . S
C930 C933 1.403 . S
C931 C928 1.403 . S
C931 C932 1.524 . S
C931 C935 1.400 . S
C932 H917 0.960 . S
C932 H918 0.960 . S
C932 H919 0.960 . S
C932 C931 1.524 . S
C933 C930 1.403 . S
C933 C934 1.392 . S
C933 C937 1.495 . S
C934 C933 1.392 . S
C934 C935 1.385 . S
C934 C936 1.478 . S
C935 H929 0.930 . S
C935 C931 1.400 . S
C935 C934 1.385 . S
C936 C934 1.478 . S
C936 C938 1.381 . S
C936 C942 1.383 . S
C937 C933 1.495 . S
C937 H943 0.959 . S
C937 H944 0.961 . S
C937 H945 0.960 . S
C938 C936 1.381 . S
C938 C939 1.394 . S
C938 H946 0.930 . S
C939 C938 1.394 . S
C939 C940 1.383 . S
C939 H947 0.929 . S
C940 C939 1.383 . S
C940 C941 1.377 . S
C941 H925 0.930 . S
C941 C940 1.377 . S
C941 C942 1.379 . S
C942 H926 0.931 . S
C942 C936 1.383 . S
C942 C941 1.379 . S
H943 C937 0.959 . S
H944 C937 0.961 . S
H945 C937 0.960 . S
H946 C938 0.930 . S
H947 C939 0.929 . S
H948 C956 0.929 . S
H949 C958 0.930 . S
H950 C960 0.930 . S
H951 C963 0.929 . S
H952 C966 0.930 . S
H953 C968 0.960 . S
H954 C968 0.960 . S
H955 C968 0.960 . S
C956 H948 0.929 . S
C956 C957 1.377 . S
C956 C958 1.384 . S
C957 C956 1.377 . S
C957 C963 1.390 . S
C958 H949 0.930 . S
C958 C956 1.384 . S
C958 C959 1.372 . S
C959 C958 1.372 . S
C959 C960 1.400 . S
C959 C964 1.490 . S
C960 H950 0.930 . S
C960 C959 1.400 . S
C960 C963 1.386 . S
H961 C977 0.930 . S
H962 C978 0.931 . S
C963 H951 0.929 . S
C963 C957 1.390 . S
C963 C960 1.386 . S
C964 C959 1.490 . S
C964 C966 1.395 . S
C964 C967 1.403 . S
H965 C971 0.930 . S
C966 H952 0.930 . S
C966 C964 1.395 . S
C966 C969 1.403 . S
C967 C964 1.403 . S
C967 C968 1.524 . S
C967 C971 1.400 . S
C968 H953 0.960 . S
C968 H954 0.960 . S
C968 H955 0.960 . S
C968 C967 1.524 . S
C969 C966 1.403 . S
C969 C970 1.392 . S
C969 C973 1.495 . S
C970 C969 1.392 . S
C970 C971 1.385 . S
C970 C972 1.478 . S
C971 H965 0.930 . S
C971 C967 1.400 . S
C971 C970 1.385 . S
C972 C970 1.478 . S
C972 C974 1.381 . S
C972 C978 1.383 . S
C973 C969 1.495 . S
C973 H979 0.959 . S
C973 H980 0.961 . S
C973 H981 0.960 . S
C974 C972 1.381 . S
C974 C975 1.394 . S
C974 H982 0.930 . S
C975 C974 1.394 . S
C975 C976 1.383 . S
C975 H983 0.929 . S
C976 C975 1.383 . S
C976 C977 1.377 . S
C977 H961 0.930 . S
C977 C976 1.377 . S
C977 C978 1.379 . S
C978 H962 0.931 . S
C978 C972 1.383 . S
C978 C977 1.379 . S
H979 C973 0.959 . S
H980 C973 0.961 . S
H981 C973 0.960 . S
H982 C974 0.930 . S
H983 C975 0.929 . S
H984 C992 0.929 1_554 S
H985 C994 0.930 . S
H986 C996 0.930 . S
H987 C999 0.929 . S
H988 C1002 0.930 . S
H989 C1004 0.960 . S
H990 C1004 0.960 . S
H991 C1004 0.960 . S
C992 H984 0.929 1_556 S
C992 C993 1.377 . S
C992 C994 1.384 1_556 S
C993 C992 1.377 . S
C993 C999 1.390 . S
C994 H985 0.930 . S
C994 C992 1.384 1_554 S
C994 C995 1.372 . S
C995 C994 1.372 . S
C995 C996 1.400 1_554 S
C995 C1000 1.490 . S
C996 H986 0.930 . S
C996 C995 1.400 1_556 S
C996 C999 1.386 . S
H997 C1013 0.930 . S
H998 C1014 0.931 . S
C999 H987 0.929 . S
C999 C993 1.390 . S
C999 C996 1.386 . S
C1000 C995 1.490 . S
C1000 C1002 1.395 . S
C1000 C1003 1.403 . S
H1001 C1007 0.930 . S
C1002 H988 0.930 . S
C1002 C1000 1.395 . S
C1002 C1005 1.403 . S
C1003 C1000 1.403 . S
C1003 C1004 1.524 1_554 S
C1003 C1007 1.400 . S
C1004 H989 0.960 . S
C1004 H990 0.960 . S
C1004 H991 0.960 . S
C1004 C1003 1.524 1_556 S
C1005 C1002 1.403 . S
C1005 C1006 1.392 . S
C1005 C1009 1.495 . S
C1006 C1005 1.392 . S
C1006 C1007 1.385 . S
C1006 C1008 1.478 . S
C1007 H1001 0.930 . S
C1007 C1003 1.400 . S
C1007 C1006 1.385 . S
C1008 C1006 1.478 . S
C1008 C1010 1.381 . S
C1008 C1014 1.383 . S
C1009 C1005 1.495 . S
C1009 H1015 0.959 . S
C1009 H1016 0.961 . S
C1009 H1017 0.960 . S
C1010 C1008 1.381 . S
C1010 C1011 1.394 . S
C1010 H1018 0.930 . S
C1011 C1010 1.394 . S
C1011 C1012 1.383 . S
C1011 H1019 0.929 . S
C1012 C1011 1.383 . S
C1012 C1013 1.377 . S
C1013 H997 0.930 . S
C1013 C1012 1.377 . S
C1013 C1014 1.379 . S
C1014 H998 0.931 . S
C1014 C1008 1.383 . S
C1014 C1013 1.379 . S
H1015 C1009 0.959 . S
H1016 C1009 0.961 . S
H1017 C1009 0.960 . S
H1018 C1010 0.930 . S
H1019 C1011 0.929 . S
H1020 C1028 0.929 . S
H1021 C1030 0.930 . S
H1022 C1032 0.930 . S
H1023 C1035 0.929 . S
H1024 C1038 0.930 . S
H1025 C1040 0.960 . S
H1026 C1040 0.960 . S
H1027 C1040 0.960 . S
C1028 H1020 0.929 . S
C1028 C1029 1.377 . S
C1028 C1030 1.384 . S
C1029 C1028 1.377 . S
C1029 C1035 1.390 . S
C1030 H1021 0.930 . S
C1030 C1028 1.384 . S
C1030 C1031 1.372 . S
C1031 C1030 1.372 . S
C1031 C1032 1.400 . S
C1031 C1036 1.490 . S
C1032 H1022 0.930 . S
C1032 C1031 1.400 . S
C1032 C1035 1.386 . S
H1033 C1049 0.930 . S
H1034 C1050 0.931 . S
C1035 H1023 0.929 . S
C1035 C1029 1.390 . S
C1035 C1032 1.386 . S
C1036 C1031 1.490 . S
C1036 C1038 1.395 . S
C1036 C1039 1.403 . S
H1037 C1043 0.930 . S
C1038 H1024 0.930 . S
C1038 C1036 1.395 . S
C1038 C1041 1.403 . S
C1039 C1036 1.403 . S
C1039 C1040 1.524 . S
C1039 C1043 1.400 . S
C1040 H1025 0.960 . S
C1040 H1026 0.960 . S
C1040 H1027 0.960 . S
C1040 C1039 1.524 . S
C1041 C1038 1.403 . S
C1041 C1042 1.392 . S
C1041 C1045 1.495 . S
C1042 C1041 1.392 . S
C1042 C1043 1.385 . S
C1042 C1044 1.478 . S
C1043 H1037 0.930 . S
C1043 C1039 1.400 . S
C1043 C1042 1.385 . S
C1044 C1042 1.478 . S
C1044 C1046 1.381 . S
C1044 C1050 1.383 . S
C1045 C1041 1.495 . S
C1045 H1051 0.959 . S
C1045 H1052 0.961 . S
C1045 H1053 0.960 . S
C1046 C1044 1.381 . S
C1046 C1047 1.394 . S
C1046 H1054 0.930 . S
C1047 C1046 1.394 . S
C1047 C1048 1.383 . S
C1047 H1055 0.929 . S
C1048 C1047 1.383 . S
C1048 C1049 1.377 . S
C1049 H1033 0.930 . S
C1049 C1048 1.377 . S
C1049 C1050 1.379 . S
C1050 H1034 0.931 . S
C1050 C1044 1.383 . S
C1050 C1049 1.379 . S
H1051 C1045 0.959 . S
H1052 C1045 0.961 . S
H1053 C1045 0.960 . S
H1054 C1046 0.930 . S
H1055 C1047 0.929 . S
H1056 C1064 0.929 . S
H1057 C1066 0.930 . S
H1058 C1068 0.930 . S
H1059 C1071 0.929 . S
H1060 C1074 0.930 . S
H1061 C1076 0.960 . S
H1062 C1076 0.960 . S
H1063 C1076 0.960 . S
C1064 H1056 0.929 . S
C1064 C1065 1.377 . S
C1064 C1066 1.384 . S
C1065 C1064 1.377 . S
C1065 C1071 1.390 . S
C1066 H1057 0.930 . S
C1066 C1064 1.384 . S
C1066 C1067 1.372 . S
C1067 C1066 1.372 . S
C1067 C1068 1.400 . S
C1067 C1072 1.490 . S
C1068 H1058 0.930 . S
C1068 C1067 1.400 . S
C1068 C1071 1.386 . S
H1069 C1085 0.930 . S
H1070 C1086 0.931 . S
C1071 H1059 0.929 . S
C1071 C1065 1.390 . S
C1071 C1068 1.386 . S
C1072 C1067 1.490 . S
C1072 C1074 1.395 . S
C1072 C1075 1.403 . S
H1073 C1079 0.930 . S
C1074 H1060 0.930 . S
C1074 C1072 1.395 . S
C1074 C1077 1.403 . S
C1075 C1072 1.403 . S
C1075 C1076 1.524 . S
C1075 C1079 1.400 . S
C1076 H1061 0.960 . S
C1076 H1062 0.960 . S
C1076 H1063 0.960 . S
C1076 C1075 1.524 . S
C1077 C1074 1.403 . S
C1077 C1078 1.392 . S
C1077 C1081 1.495 . S
C1078 C1077 1.392 . S
C1078 C1079 1.385 . S
C1078 C1080 1.478 . S
C1079 H1073 0.930 . S
C1079 C1075 1.400 . S
C1079 C1078 1.385 . S
C1080 C1078 1.478 . S
C1080 C1082 1.381 . S
C1080 C1086 1.383 . S
C1081 C1077 1.495 . S
C1081 H1087 0.959 . S
C1081 H1088 0.961 . S
C1081 H1089 0.960 . S
C1082 C1080 1.381 . S
C1082 C1083 1.394 . S
C1082 H1090 0.930 . S
C1083 C1082 1.394 . S
C1083 C1084 1.383 . S
C1083 H1091 0.929 . S
C1084 C1083 1.383 . S
C1084 C1085 1.377 . S
C1085 H1069 0.930 . S
C1085 C1084 1.377 . S
C1085 C1086 1.379 . S
C1086 H1070 0.931 . S
C1086 C1080 1.383 . S
C1086 C1085 1.379 . S
H1087 C1081 0.959 . S
H1088 C1081 0.961 . S
H1089 C1081 0.960 . S
H1090 C1082 0.930 . S
H1091 C1083 0.929 . S
H1092 C1100 0.929 . S
H1093 C1102 0.930 . S
H1094 C1104 0.930 . S
H1095 C1107 0.929 . S
H1096 C1110 0.930 . S
H1097 C1112 0.960 . S
H1098 C1112 0.960 . S
H1099 C1112 0.960 . S
C1100 H1092 0.929 . S
C1100 C1101 1.377 . S
C1100 C1102 1.384 1_455 S
C1101 C1100 1.377 . S
C1101 C1107 1.390 . S
C1102 H1093 0.930 . S
C1102 C1100 1.384 1_655 S
C1102 C1103 1.372 . S
C1103 C1102 1.372 . S
C1103 C1104 1.400 1_655 S
C1103 C1108 1.490 . S
C1104 H1094 0.930 . S
C1104 C1103 1.400 1_455 S
C1104 C1107 1.386 . S
H1105 C1121 0.930 . S
H1106 C1122 0.931 . S
C1107 H1095 0.929 . S
C1107 C1101 1.390 . S
C1107 C1104 1.386 . S
C1108 C1103 1.490 . S
C1108 C1110 1.395 . S
C1108 C1111 1.403 . S
H1109 C1115 0.930 . S
C1110 H1096 0.930 . S
C1110 C1108 1.395 . S
C1110 C1113 1.403 . S
C1111 C1108 1.403 . S
C1111 C1112 1.524 1_655 S
C1111 C1115 1.400 . S
C1112 H1097 0.960 . S
C1112 H1098 0.960 . S
C1112 H1099 0.960 . S
C1112 C1111 1.524 1_455 S
C1113 C1110 1.403 . S
C1113 C1114 1.392 . S
C1113 C1117 1.495 . S
C1114 C1113 1.392 . S
C1114 C1115 1.385 . S
C1114 C1116 1.478 . S
C1115 H1109 0.930 . S
C1115 C1111 1.400 . S
C1115 C1114 1.385 . S
C1116 C1114 1.478 . S
C1116 C1118 1.381 . S
C1116 C1122 1.383 . S
C1117 C1113 1.495 . S
C1117 H1123 0.959 . S
C1117 H1124 0.961 . S
C1117 H1125 0.960 . S
C1118 C1116 1.381 . S
C1118 C1119 1.394 . S
C1118 H1126 0.930 . S
C1119 C1118 1.394 . S
C1119 C1120 1.383 . S
C1119 H1127 0.929 . S
C1120 C1119 1.383 . S
C1120 C1121 1.377 . S
C1121 H1105 0.930 . S
C1121 C1120 1.377 . S
C1121 C1122 1.379 . S
C1122 H1106 0.931 . S
C1122 C1116 1.383 . S
C1122 C1121 1.379 . S
H1123 C1117 0.959 . S
H1124 C1117 0.961 . S
H1125 C1117 0.960 . S
H1126 C1118 0.930 . S
H1127 C1119 0.929 . S
H1128 C1136 0.929 . S
H1129 C1138 0.930 . S
H1130 C1140 0.930 . S
H1131 C1143 0.929 1_455 S
H1132 C1146 0.930 . S
H1133 C1148 0.960 . S
H1134 C1148 0.960 . S
H1135 C1148 0.960 . S
C1136 H1128 0.929 . S
C1136 C1137 1.377 . S
C1136 C1138 1.384 . S
C1137 C1136 1.377 . S
C1137 C1143 1.390 . S
C1138 H1129 0.930 . S
C1138 C1136 1.384 . S
C1138 C1139 1.372 1_655 S
C1139 C1138 1.372 1_455 S
C1139 C1140 1.400 . S
C1139 C1144 1.490 . S
C1140 H1130 0.930 . S
C1140 C1139 1.400 . S
C1140 C1143 1.386 1_455 S
H1141 C1157 0.930 . S
H1142 C1158 0.931 . S
C1143 H1131 0.929 1_655 S
C1143 C1137 1.390 . S
C1143 C1140 1.386 1_655 S
C1144 C1139 1.490 . S
C1144 C1146 1.395 . S
C1144 C1147 1.403 . S
H1145 C1151 0.930 . S
C1146 H1132 0.930 . S
C1146 C1144 1.395 . S
C1146 C1149 1.403 . S
C1147 C1144 1.403 . S
C1147 C1148 1.524 . S
C1147 C1151 1.400 . S
C1148 H1133 0.960 . S
C1148 H1134 0.960 . S
C1148 H1135 0.960 . S
C1148 C1147 1.524 . S
C1149 C1146 1.403 . S
C1149 C1150 1.392 . S
C1149 C1153 1.495 . S
C1150 C1149 1.392 . S
C1150 C1151 1.385 . S
C1150 C1152 1.478 . S
C1151 H1145 0.930 . S
C1151 C1147 1.400 . S
C1151 C1150 1.385 . S
C1152 C1150 1.478 . S
C1152 C1154 1.381 . S
C1152 C1158 1.383 . S
C1153 C1149 1.495 . S
C1153 H1159 0.959 . S
C1153 H1160 0.961 . S
C1153 H1161 0.960 . S
C1154 C1152 1.381 . S
C1154 C1155 1.394 . S
C1154 H1162 0.930 . S
C1155 C1154 1.394 . S
C1155 C1156 1.383 . S
C1155 H1163 0.929 . S
C1156 C1155 1.383 . S
C1156 C1157 1.377 . S
C1157 H1141 0.930 . S
C1157 C1156 1.377 . S
C1157 C1158 1.379 . S
C1158 H1142 0.931 . S
C1158 C1152 1.383 . S
C1158 C1157 1.379 . S
H1159 C1153 0.959 . S
H1160 C1153 0.961 . S
H1161 C1153 0.960 . S
H1162 C1154 0.930 . S
H1163 C1155 0.929 . S
H1164 C1172 0.929 . S
H1165 C1174 0.930 . S
H1166 C1176 0.930 . S
H1167 C1179 0.929 . S
H1168 C1182 0.930 . S
H1169 C1184 0.960 . S
H1170 C1184 0.960 . S
H1171 C1184 0.960 . S
C1172 H1164 0.929 . S
C1172 C1173 1.377 . S
C1172 C1174 1.384 . S
C1173 C1172 1.377 . S
C1173 C1179 1.390 . S
C1174 H1165 0.930 . S
C1174 C1172 1.384 . S
C1174 C1175 1.372 . S
C1175 C1174 1.372 . S
C1175 C1176 1.400 . S
C1175 C1180 1.490 . S
C1176 H1166 0.930 . S
C1176 C1175 1.400 . S
C1176 C1179 1.386 . S
H1177 C1193 0.930 . S
H1178 C1194 0.931 . S
C1179 H1167 0.929 . S
C1179 C1173 1.390 . S
C1179 C1176 1.386 . S
C1180 C1175 1.490 . S
C1180 C1182 1.395 . S
C1180 C1183 1.403 . S
H1181 C1187 0.930 . S
C1182 H1168 0.930 . S
C1182 C1180 1.395 . S
C1182 C1185 1.403 . S
C1183 C1180 1.403 . S
C1183 C1184 1.524 . S
C1183 C1187 1.400 . S
C1184 H1169 0.960 . S
C1184 H1170 0.960 . S
C1184 H1171 0.960 . S
C1184 C1183 1.524 . S
C1185 C1182 1.403 . S
C1185 C1186 1.392 . S
C1185 C1189 1.495 . S
C1186 C1185 1.392 . S
C1186 C1187 1.385 . S
C1186 C1188 1.478 . S
C1187 H1181 0.930 . S
C1187 C1183 1.400 . S
C1187 C1186 1.385 . S
C1188 C1186 1.478 . S
C1188 C1190 1.381 . S
C1188 C1194 1.383 . S
C1189 C1185 1.495 . S
C1189 H1195 0.959 . S
C1189 H1196 0.961 . S
C1189 H1197 0.960 . S
C1190 C1188 1.381 . S
C1190 C1191 1.394 . S
C1190 H1198 0.930 . S
C1191 C1190 1.394 . S
C1191 C1192 1.383 . S
C1191 H1199 0.929 . S
C1192 C1191 1.383 . S
C1192 C1193 1.377 . S
C1193 H1177 0.930 . S
C1193 C1192 1.377 . S
C1193 C1194 1.379 . S
C1194 H1178 0.931 . S
C1194 C1188 1.383 . S
C1194 C1193 1.379 . S
H1195 C1189 0.959 . S
H1196 C1189 0.961 . S
H1197 C1189 0.960 . S
H1198 C1190 0.930 . S
H1199 C1191 0.929 . S
H1200 C1208 0.929 . S
H1201 C1210 0.930 . S
H1202 C1212 0.930 . S
H1203 C1215 0.929 . S
H1204 C1218 0.930 . S
H1205 C1220 0.960 . S
H1206 C1220 0.960 . S
H1207 C1220 0.960 . S
C1208 H1200 0.929 . S
C1208 C1209 1.377 . S
C1208 C1210 1.384 . S
C1209 C1208 1.377 . S
C1209 C1215 1.390 . S
C1210 H1201 0.930 . S
C1210 C1208 1.384 . S
C1210 C1211 1.372 . S
C1211 C1210 1.372 . S
C1211 C1212 1.400 . S
C1211 C1216 1.490 . S
C1212 H1202 0.930 . S
C1212 C1211 1.400 . S
C1212 C1215 1.386 . S
H1213 C1229 0.930 . S
H1214 C1230 0.931 . S
C1215 H1203 0.929 . S
C1215 C1209 1.390 . S
C1215 C1212 1.386 . S
C1216 C1211 1.490 . S
C1216 C1218 1.395 . S
C1216 C1219 1.403 . S
H1217 C1223 0.930 . S
C1218 H1204 0.930 . S
C1218 C1216 1.395 . S
C1218 C1221 1.403 . S
C1219 C1216 1.403 . S
C1219 C1220 1.524 . S
C1219 C1223 1.400 . S
C1220 H1205 0.960 . S
C1220 H1206 0.960 . S
C1220 H1207 0.960 . S
C1220 C1219 1.524 . S
C1221 C1218 1.403 . S
C1221 C1222 1.392 . S
C1221 C1225 1.495 . S
C1222 C1221 1.392 . S
C1222 C1223 1.385 . S
C1222 C1224 1.478 . S
C1223 H1217 0.930 . S
C1223 C1219 1.400 . S
C1223 C1222 1.385 . S
C1224 C1222 1.478 . S
C1224 C1226 1.381 . S
C1224 C1230 1.383 . S
C1225 C1221 1.495 . S
C1225 H1231 0.959 . S
C1225 H1232 0.961 . S
C1225 H1233 0.960 . S
C1226 C1224 1.381 . S
C1226 C1227 1.394 . S
C1226 H1234 0.930 . S
C1227 C1226 1.394 . S
C1227 C1228 1.383 . S
C1227 H1235 0.929 . S
C1228 C1227 1.383 . S
C1228 C1229 1.377 . S
C1229 H1213 0.930 . S
C1229 C1228 1.377 . S
C1229 C1230 1.379 . S
C1230 H1214 0.931 . S
C1230 C1224 1.383 . S
C1230 C1229 1.379 . S
H1231 C1225 0.959 . S
H1232 C1225 0.961 . S
H1233 C1225 0.960 . S
H1234 C1226 0.930 . S
H1235 C1227 0.929 . S
H1236 C1244 0.947 . S
H1237 C1246 0.930 . S
H1238 C1248 0.930 . S
H1239 C1251 0.929 . S
H1240 C1254 0.930 . S
H1241 C1256 0.960 . S
H1242 C1256 0.960 . S
H1243 C1256 0.960 . S
C1244 H1236 0.947 . S
C1244 C1245 1.340 1_565 S
C1244 C1246 1.406 . S
C1245 C1244 1.340 1_545 S
C1245 C1251 1.390 . S
C1246 H1237 0.930 . S
C1246 C1244 1.406 . S
C1246 C1247 1.372 . S
C1247 C1246 1.372 . S
C1247 C1248 1.400 1_565 S
C1247 C1252 1.490 . S
C1248 H1238 0.930 . S
C1248 C1247 1.400 1_545 S
C1248 C1251 1.386 . S
H1249 C1265 0.930 . S
H1250 C1266 0.931 . S
C1251 H1239 0.929 . S
C1251 C1245 1.390 . S
C1251 C1248 1.386 . S
C1252 C1247 1.490 . S
C1252 C1254 1.395 . S
C1252 C1255 1.403 . S
H1253 C1259 0.930 . S
C1254 H1240 0.930 . S
C1254 C1252 1.395 . S
C1254 C1257 1.403 . S
C1255 C1252 1.403 . S
C1255 C1256 1.524 1_565 S
C1255 C1259 1.400 . S
C1256 H1241 0.960 . S
C1256 H1242 0.960 . S
C1256 H1243 0.960 . S
C1256 C1255 1.524 1_545 S
C1257 C1254 1.403 . S
C1257 C1258 1.392 . S
C1257 C1261 1.495 . S
C1258 C1257 1.392 . S
C1258 C1259 1.385 . S
C1258 C1260 1.478 . S
C1259 H1253 0.930 . S
C1259 C1255 1.400 . S
C1259 C1258 1.385 . S
C1260 C1258 1.478 . S
C1260 C1262 1.381 . S
C1260 C1266 1.383 . S
C1261 C1257 1.495 . S
C1261 H1267 0.959 . S
C1261 H1268 0.961 . S
C1261 H1269 0.960 . S
C1262 C1260 1.381 . S
C1262 C1263 1.394 . S
C1262 H1270 0.930 . S
C1263 C1262 1.394 . S
C1263 C1264 1.383 . S
C1263 H1271 0.929 . S
C1264 C1263 1.383 . S
C1264 C1265 1.377 . S
C1265 H1249 0.930 . S
C1265 C1264 1.377 . S
C1265 C1266 1.379 . S
C1266 H1250 0.931 . S
C1266 C1260 1.383 . S
C1266 C1265 1.379 . S
H1267 C1261 0.959 . S
H1268 C1261 0.961 . S
H1269 C1261 0.960 . S
H1270 C1262 0.930 . S
H1271 C1263 0.929 . S
H1272 C1280 0.929 . S
H1273 C1282 0.930 . S
H1274 C1284 0.930 . S
H1275 C1287 0.929 . S
H1276 C1290 0.930 . S
H1277 C1292 0.960 . S
H1278 C1292 0.960 . S
H1279 C1292 0.960 . S
C1280 H1272 0.929 . S
C1280 C1281 1.377 . S
C1280 C1282 1.384 . S
C1281 C1280 1.377 . S
C1281 C1287 1.390 . S
C1282 H1273 0.930 . S
C1282 C1280 1.384 . S
C1282 C1283 1.372 . S
C1283 C1282 1.372 . S
C1283 C1284 1.400 . S
C1283 C1288 1.490 . S
C1284 H1274 0.930 . S
C1284 C1283 1.400 . S
C1284 C1287 1.386 . S
H1285 C1301 0.930 . S
H1286 C1302 0.931 . S
C1287 H1275 0.929 . S
C1287 C1281 1.390 . S
C1287 C1284 1.386 . S
C1288 C1283 1.490 . S
C1288 C1290 1.395 . S
C1288 C1291 1.403 . S
H1289 C1295 0.930 . S
C1290 H1276 0.930 . S
C1290 C1288 1.395 . S
C1290 C1293 1.403 . S
C1291 C1288 1.403 . S
C1291 C1292 1.524 . S
C1291 C1295 1.400 . S
C1292 H1277 0.960 . S
C1292 H1278 0.960 . S
C1292 H1279 0.960 . S
C1292 C1291 1.524 . S
C1293 C1290 1.403 . S
C1293 C1294 1.392 . S
C1293 C1297 1.495 . S
C1294 C1293 1.392 . S
C1294 C1295 1.385 . S
C1294 C1296 1.478 . S
C1295 H1289 0.930 . S
C1295 C1291 1.400 . S
C1295 C1294 1.385 . S
C1296 C1294 1.478 . S
C1296 C1298 1.381 . S
C1296 C1302 1.383 . S
C1297 C1293 1.495 . S
C1297 H1303 0.959 . S
C1297 H1304 0.961 . S
C1297 H1305 0.960 . S
C1298 C1296 1.381 . S
C1298 C1299 1.394 . S
C1298 H1306 0.930 . S
C1299 C1298 1.394 . S
C1299 C1300 1.383 . S
C1299 H1307 0.929 . S
C1300 C1299 1.383 . S
C1300 C1301 1.377 . S
C1301 H1285 0.930 . S
C1301 C1300 1.377 . S
C1301 C1302 1.379 . S
C1302 H1286 0.931 . S
C1302 C1296 1.383 . S
C1302 C1301 1.379 . S
H1303 C1297 0.959 . S
H1304 C1297 0.961 . S
H1305 C1297 0.960 . S
H1306 C1298 0.930 . S
H1307 C1299 0.929 . S
H1308 C1316 0.929 . S
H1309 C1318 0.930 . S
H1310 C1320 0.930 . S
H1311 C1323 0.929 . S
H1312 C1326 0.930 . S
H1313 C1328 0.960 . S
H1314 C1328 0.960 . S
H1315 C1328 0.960 . S
C1316 H1308 0.929 . S
C1316 C1317 1.377 . S
C1316 C1318 1.384 . S
C1317 C1316 1.377 . S
C1317 C1323 1.390 . S
C1318 H1309 0.930 . S
C1318 C1316 1.384 . S
C1318 C1319 1.372 . S
C1319 C1318 1.372 . S
C1319 C1320 1.400 . S
C1319 C1324 1.490 . S
C1320 H1310 0.930 . S
C1320 C1319 1.400 . S
C1320 C1323 1.386 . S
H1321 C1337 0.930 . S
H1322 C1338 0.931 . S
C1323 H1311 0.929 . S
C1323 C1317 1.390 . S
C1323 C1320 1.386 . S
C1324 C1319 1.490 . S
C1324 C1326 1.395 . S
C1324 C1327 1.403 . S
H1325 C1331 0.930 . S
C1326 H1312 0.930 . S
C1326 C1324 1.395 . S
C1326 C1329 1.403 . S
C1327 C1324 1.403 . S
C1327 C1328 1.524 . S
C1327 C1331 1.400 . S
C1328 H1313 0.960 . S
C1328 H1314 0.960 . S
C1328 H1315 0.960 . S
C1328 C1327 1.524 . S
C1329 C1326 1.403 . S
C1329 C1330 1.392 . S
C1329 C1333 1.495 . S
C1330 C1329 1.392 . S
C1330 C1331 1.385 . S
C1330 C1332 1.478 . S
C1331 H1325 0.930 . S
C1331 C1327 1.400 . S
C1331 C1330 1.385 . S
C1332 C1330 1.478 . S
C1332 C1334 1.397 . S
C1332 C1338 1.383 1_545 S
C1333 C1329 1.495 . S
C1333 H1339 0.959 . S
C1333 H1340 0.961 1_545 S
C1333 H1341 0.960 . S
C1334 C1332 1.397 . S
C1334 C1335 1.366 1_544 S
C1334 H1342 0.944 . S
C1335 C1334 1.366 1_566 S
C1335 C1336 1.383 . S
C1335 H1343 0.929 1_565 S
C1336 C1335 1.383 . S
C1336 C1337 1.377 . S
C1337 H1321 0.930 . S
C1337 C1336 1.377 . S
C1337 C1338 1.379 1_556 S
C1338 H1322 0.931 . S
C1338 C1332 1.383 1_565 S
C1338 C1337 1.379 1_554 S
H1339 C1333 0.959 . S
H1340 C1333 0.961 1_565 S
H1341 C1333 0.960 . S
H1342 C1334 0.944 . S
H1343 C1335 0.929 1_545 S
H1344 C1352 0.929 . S
H1345 C1354 0.930 . S
H1346 C1356 0.930 . S
H1347 C1359 0.929 . S
H1348 C1362 0.930 . S
H1349 C1364 0.960 . S
H1350 C1364 0.960 . S
H1351 C1364 0.960 . S
C1352 H1344 0.929 . S
C1352 C1353 1.377 . S
C1352 C1354 1.384 . S
C1353 C1352 1.377 . S
C1353 C1359 1.390 . S
C1354 H1345 0.930 . S
C1354 C1352 1.384 . S
C1354 C1355 1.372 . S
C1355 C1354 1.372 . S
C1355 C1356 1.400 . S
C1355 C1360 1.490 . S
C1356 H1346 0.930 . S
C1356 C1355 1.400 . S
C1356 C1359 1.386 . S
H1357 C1373 0.930 . S
H1358 C1374 0.931 . S
C1359 H1347 0.929 . S
C1359 C1353 1.390 . S
C1359 C1356 1.386 . S
C1360 C1355 1.490 . S
C1360 C1362 1.395 . S
C1360 C1363 1.403 . S
H1361 C1367 0.930 . S
C1362 H1348 0.930 . S
C1362 C1360 1.395 . S
C1362 C1365 1.403 . S
C1363 C1360 1.403 . S
C1363 C1364 1.524 . S
C1363 C1367 1.400 . S
C1364 H1349 0.960 . S
C1364 H1350 0.960 . S
C1364 H1351 0.960 . S
C1364 C1363 1.524 . S
C1365 C1362 1.403 . S
C1365 C1366 1.392 . S
C1365 C1369 1.495 . S
C1366 C1365 1.392 . S
C1366 C1367 1.385 . S
C1366 C1368 1.478 . S
C1367 H1361 0.930 . S
C1367 C1363 1.400 . S
C1367 C1366 1.385 . S
C1368 C1366 1.478 . S
C1368 C1370 1.381 . S
C1368 C1374 1.383 . S
C1369 C1365 1.495 . S
C1369 H1375 0.959 . S
C1369 H1376 0.961 . S
C1369 H1377 0.960 . S
C1370 C1368 1.381 . S
C1370 C1371 1.394 . S
C1370 H1378 0.930 . S
C1371 C1370 1.394 . S
C1371 C1372 1.383 . S
C1371 H1379 0.929 . S
C1372 C1371 1.383 . S
C1372 C1373 1.377 . S
C1373 H1357 0.930 . S
C1373 C1372 1.377 . S
C1373 C1374 1.379 . S
C1374 H1358 0.931 . S
C1374 C1368 1.383 . S
C1374 C1373 1.379 . S
H1375 C1369 0.959 . S
H1376 C1369 0.961 . S
H1377 C1369 0.960 . S
H1378 C1370 0.930 . S
H1379 C1371 0.929 . S
H1380 C1388 0.929 . S
H1381 C1390 0.930 . S
H1382 C1392 0.930 . S
H1383 C1395 0.929 . S
H1384 C1398 0.930 . S
H1385 C1400 0.960 . S
H1386 C1400 0.960 1_554 S
H1387 C1400 0.960 1_554 S
C1388 H1380 0.929 . S
C1388 C1389 1.377 . S
C1388 C1390 1.384 1_554 S
C1389 C1388 1.377 . S
C1389 C1395 1.390 . S
C1390 H1381 0.930 . S
C1390 C1388 1.384 1_556 S
C1390 C1391 1.372 . S
C1391 C1390 1.372 . S
C1391 C1392 1.400 1_556 S
C1391 C1396 1.490 . S
C1392 H1382 0.930 . S
C1392 C1391 1.400 1_554 S
C1392 C1395 1.386 . S
H1393 C1409 0.930 . S
H1394 C1410 0.931 . S
C1395 H1383 0.929 . S
C1395 C1389 1.390 . S
C1395 C1392 1.386 . S
C1396 C1391 1.490 . S
C1396 C1398 1.395 . S
C1396 C1399 1.403 . S
H1397 C1403 0.930 . S
C1398 H1384 0.930 . S
C1398 C1396 1.395 . S
C1398 C1401 1.403 . S
C1399 C1396 1.403 . S
C1399 C1400 1.524 . S
C1399 C1403 1.400 . S
C1400 H1385 0.960 . S
C1400 H1386 0.960 1_556 S
C1400 H1387 0.960 1_556 S
C1400 C1399 1.524 . S
C1401 C1398 1.403 . S
C1401 C1402 1.392 . S
C1401 C1405 1.495 . S
C1402 C1401 1.392 . S
C1402 C1403 1.385 . S
C1402 C1404 1.478 . S
C1403 H1397 0.930 . S
C1403 C1399 1.400 . S
C1403 C1402 1.385 . S
C1404 C1402 1.478 . S
C1404 C1406 1.381 . S
C1404 C1410 1.383 . S
C1405 C1401 1.495 . S
C1405 H1411 0.959 . S
C1405 H1412 0.961 . S
C1405 H1413 0.960 . S
C1406 C1404 1.381 . S
C1406 C1407 1.394 . S
C1406 H1414 0.930 . S
C1407 C1406 1.394 . S
C1407 C1408 1.383 . S
C1407 H1415 0.929 . S
C1408 C1407 1.383 . S
C1408 C1409 1.377 . S
C1409 H1393 0.930 . S
C1409 C1408 1.377 . S
C1409 C1410 1.379 . S
C1410 H1394 0.931 . S
C1410 C1404 1.383 . S
C1410 C1409 1.379 . S
H1411 C1405 0.959 . S
H1412 C1405 0.961 . S
H1413 C1405 0.960 . S
H1414 C1406 0.930 . S
H1415 C1407 0.929 . S
H1416 C1424 0.929 . S
H1417 C1426 0.930 . S
H1418 C1428 0.930 . S
H1419 C1431 0.929 . S
H1420 C1434 0.930 . S
H1421 C1436 0.960 . S
H1422 C1436 0.960 . S
H1423 C1436 0.960 . S
C1424 H1416 0.929 . S
C1424 C1425 1.377 . S
C1424 C1426 1.384 . S
C1425 C1424 1.377 . S
C1425 C1431 1.390 . S
C1426 H1417 0.930 . S
C1426 C1424 1.384 . S
C1426 C1427 1.372 . S
C1427 C1426 1.372 . S
C1427 C1428 1.400 . S
C1427 C1432 1.490 . S
C1428 H1418 0.930 . S
C1428 C1427 1.400 . S
C1428 C1431 1.386 . S
H1429 C1445 0.930 . S
H1430 C1446 0.931 . S
C1431 H1419 0.929 . S
C1431 C1425 1.390 . S
C1431 C1428 1.386 . S
C1432 C1427 1.490 . S
C1432 C1434 1.395 . S
C1432 C1435 1.403 . S
H1433 C1439 0.930 . S
C1434 H1420 0.930 . S
C1434 C1432 1.395 . S
C1434 C1437 1.403 . S
C1435 C1432 1.403 . S
C1435 C1436 1.524 . S
C1435 C1439 1.400 . S
C1436 H1421 0.960 . S
C1436 H1422 0.960 . S
C1436 H1423 0.960 . S
C1436 C1435 1.524 . S
C1437 C1434 1.403 . S
C1437 C1438 1.392 . S
C1437 C1441 1.495 . S
C1438 C1437 1.392 . S
C1438 C1439 1.385 . S
C1438 C1440 1.478 . S
C1439 H1433 0.930 . S
C1439 C1435 1.400 . S
C1439 C1438 1.385 . S
C1440 C1438 1.478 . S
C1440 C1442 1.381 . S
C1440 C1446 1.383 . S
C1441 C1437 1.495 . S
C1441 H1447 0.959 . S
C1441 H1448 0.961 . S
C1441 H1449 0.960 . S
C1442 C1440 1.381 . S
C1442 C1443 1.394 . S
C1442 H1450 0.930 . S
C1443 C1442 1.394 . S
C1443 C1444 1.383 . S
C1443 H1451 0.929 . S
C1444 C1443 1.383 . S
C1444 C1445 1.377 . S
C1445 H1429 0.930 . S
C1445 C1444 1.377 . S
C1445 C1446 1.379 . S
C1446 H1430 0.931 . S
C1446 C1440 1.383 . S
C1446 C1445 1.379 . S
H1447 C1441 0.959 . S
H1448 C1441 0.961 . S
H1449 C1441 0.960 . S
H1450 C1442 0.930 . S
H1451 C1443 0.929 . S
H1452 C1460 0.929 . S
H1453 C1462 0.930 . S
H1454 C1464 0.930 . S
H1455 C1467 0.929 . S
H1456 C1470 0.930 . S
H1457 C1472 0.960 . S
H1458 C1472 0.960 . S
H1459 C1472 0.960 . S
C1460 H1452 0.929 . S
C1460 C1461 1.377 . S
C1460 C1462 1.384 . S
C1461 C1460 1.377 . S
C1461 C1467 1.390 . S
C1462 H1453 0.930 . S
C1462 C1460 1.384 . S
C1462 C1463 1.372 . S
C1463 C1462 1.372 . S
C1463 C1464 1.400 . S
C1463 C1468 1.490 . S
C1464 H1454 0.930 . S
C1464 C1463 1.400 . S
C1464 C1467 1.386 . S
H1465 C1481 0.930 . S
H1466 C1482 0.931 . S
C1467 H1455 0.929 . S
C1467 C1461 1.390 . S
C1467 C1464 1.386 . S
C1468 C1463 1.490 . S
C1468 C1470 1.395 . S
C1468 C1471 1.403 . S
H1469 C1475 0.930 . S
C1470 H1456 0.930 . S
C1470 C1468 1.395 . S
C1470 C1473 1.403 . S
C1471 C1468 1.403 . S
C1471 C1472 1.524 . S
C1471 C1475 1.400 . S
C1472 H1457 0.960 . S
C1472 H1458 0.960 . S
C1472 H1459 0.960 . S
C1472 C1471 1.524 . S
C1473 C1470 1.403 . S
C1473 C1474 1.392 . S
C1473 C1477 1.495 . S
C1474 C1473 1.392 . S
C1474 C1475 1.385 . S
C1474 C1476 1.478 . S
C1475 H1469 0.930 . S
C1475 C1471 1.400 . S
C1475 C1474 1.385 . S
C1476 C1474 1.478 . S
C1476 C1478 1.381 . S
C1476 C1482 1.383 . S
C1477 C1473 1.495 . S
C1477 H1483 0.959 . S
C1477 H1484 0.961 . S
C1477 H1485 0.960 . S
C1478 C1476 1.381 . S
C1478 C1479 1.394 . S
C1478 H1486 0.930 . S
C1479 C1478 1.394 . S
C1479 C1480 1.383 . S
C1479 H1487 0.929 . S
C1480 C1479 1.383 . S
C1480 C1481 1.377 . S
C1481 H1465 0.930 . S
C1481 C1480 1.377 . S
C1481 C1482 1.379 . S
C1482 H1466 0.931 . S
C1482 C1476 1.383 . S
C1482 C1481 1.379 . S
H1483 C1477 0.959 . S
H1484 C1477 0.961 . S
H1485 C1477 0.960 . S
H1486 C1478 0.930 . S
H1487 C1479 0.929 . S
H1488 C1496 0.929 . S
H1489 C1498 0.930 . S
H1490 C1500 0.930 . S
H1491 C1503 0.929 . S
H1492 C1506 0.930 . S
H1493 C1508 0.960 . S
H1494 C1508 0.960 . S
H1495 C1508 0.960 . S
C1496 H1488 0.929 . S
C1496 C1497 1.377 . S
C1496 C1498 1.384 . S
C1497 C1496 1.377 . S
C1497 C1503 1.390 . S
C1498 H1489 0.930 . S
C1498 C1496 1.384 . S
C1498 C1499 1.372 . S
C1499 C1498 1.372 . S
C1499 C1500 1.400 . S
C1499 C1504 1.490 . S
C1500 H1490 0.930 . S
C1500 C1499 1.400 . S
C1500 C1503 1.386 . S
H1501 C1517 0.930 . S
H1502 C1518 0.931 . S
C1503 H1491 0.929 . S
C1503 C1497 1.390 . S
C1503 C1500 1.386 . S
C1504 C1499 1.490 . S
C1504 C1506 1.395 . S
C1504 C1507 1.403 . S
H1505 C1511 0.930 . S
C1506 H1492 0.930 . S
C1506 C1504 1.395 . S
C1506 C1509 1.403 . S
C1507 C1504 1.403 . S
C1507 C1508 1.524 . S
C1507 C1511 1.400 . S
C1508 H1493 0.960 . S
C1508 H1494 0.960 . S
C1508 H1495 0.960 . S
C1508 C1507 1.524 . S
C1509 C1506 1.403 . S
C1509 C1510 1.392 . S
C1509 C1513 1.495 . S
C1510 C1509 1.392 . S
C1510 C1511 1.385 . S
C1510 C1512 1.478 . S
C1511 H1505 0.930 . S
C1511 C1507 1.400 . S
C1511 C1510 1.385 . S
C1512 C1510 1.478 . S
C1512 C1514 1.381 . S
C1512 C1518 1.383 . S
C1513 C1509 1.495 . S
C1513 H1519 0.959 . S
C1513 H1520 0.961 . S
C1513 H1521 0.960 . S
C1514 C1512 1.381 . S
C1514 C1515 1.394 . S
C1514 H1522 0.930 . S
C1515 C1514 1.394 . S
C1515 C1516 1.383 . S
C1515 H1523 0.929 . S
C1516 C1515 1.383 . S
C1516 C1517 1.377 . S
C1517 H1501 0.930 . S
C1517 C1516 1.377 . S
C1517 C1518 1.379 . S
C1518 H1502 0.931 . S
C1518 C1512 1.383 . S
C1518 C1517 1.379 . S
H1519 C1513 0.959 . S
H1520 C1513 0.961 . S
H1521 C1513 0.960 . S
H1522 C1514 0.930 . S
H1523 C1515 0.929 . S
H1524 C1532 0.929 . S
H1525 C1534 0.930 . S
H1526 C1536 0.920 1_455 S
H1527 C1539 0.929 . S
H1528 C1542 0.930 . S
H1529 C1544 0.960 . S
H1530 C1544 0.960 . S
H1531 C1544 0.960 . S
C1532 H1524 0.929 . S
C1532 C1533 1.377 . S
C1532 C1534 1.384 1_565 S
C1533 C1532 1.377 . S
C1533 C1539 1.390 . S
C1534 H1525 0.930 . S
C1534 C1532 1.384 1_545 S
C1534 C1535 1.372 1_655 S
C1535 C1534 1.372 1_455 S
C1535 C1536 1.396 1_445 S
C1535 C1540 1.490 . S
C1536 H1526 0.920 1_655 S
C1536 C1535 1.396 1_665 S
C1536 C1539 1.401 . S
H1537 C1553 0.930 . S
H1538 C1554 0.931 . S
C1539 H1527 0.929 . S
C1539 C1533 1.390 . S
C1539 C1536 1.401 . S
C1540 C1535 1.490 . S
C1540 C1542 1.395 . S
C1540 C1543 1.403 . S
H1541 C1547 0.930 . S
C1542 H1528 0.930 . S
C1542 C1540 1.395 . S
C1542 C1545 1.403 . S
C1543 C1540 1.403 . S
C1543 C1544 1.524 1_455 S
C1543 C1547 1.400 . S
C1544 H1529 0.960 . S
C1544 H1530 0.960 . S
C1544 H1531 0.960 . S
C1544 C1543 1.524 1_655 S
C1545 C1542 1.403 . S
C1545 C1546 1.392 . S
C1545 C1549 1.495 . S
C1546 C1545 1.392 . S
C1546 C1547 1.385 . S
C1546 C1548 1.478 . S
C1547 H1541 0.930 . S
C1547 C1543 1.400 . S
C1547 C1546 1.385 . S
C1548 C1546 1.478 . S
C1548 C1550 1.381 . S
C1548 C1554 1.383 . S
C1549 C1545 1.495 . S
C1549 H1555 0.959 . S
C1549 H1556 0.961 . S
C1549 H1557 0.960 . S
C1550 C1548 1.381 . S
C1550 C1551 1.394 . S
C1550 H1558 0.930 . S
C1551 C1550 1.394 . S
C1551 C1552 1.383 . S
C1551 H1559 0.929 . S
C1552 C1551 1.383 . S
C1552 C1553 1.377 . S
C1553 H1537 0.930 . S
C1553 C1552 1.377 . S
C1553 C1554 1.379 . S
C1554 H1538 0.931 . S
C1554 C1548 1.383 . S
C1554 C1553 1.379 . S
H1555 C1549 0.959 . S
H1556 C1549 0.961 . S
H1557 C1549 0.960 . S
H1558 C1550 0.930 . S
H1559 C1551 0.929 . S
H1560 C1568 0.929 . S
H1561 C1570 0.930 . S
H1562 C1572 0.930 . S
H1563 C1575 0.929 . S
H1564 C1578 0.930 . S
H1565 C1580 0.960 . S
H1566 C1580 0.960 . S
H1567 C1580 0.960 . S
C1568 H1560 0.929 . S
C1568 C1569 1.377 . S
C1568 C1570 1.384 . S
C1569 C1568 1.377 . S
C1569 C1575 1.390 . S
C1570 H1561 0.930 . S
C1570 C1568 1.384 . S
C1570 C1571 1.372 . S
C1571 C1570 1.372 . S
C1571 C1572 1.400 . S
C1571 C1576 1.490 . S
C1572 H1562 0.930 . S
C1572 C1571 1.400 . S
C1572 C1575 1.386 . S
H1573 C1589 0.930 . S
H1574 C1590 0.931 . S
C1575 H1563 0.929 . S
C1575 C1569 1.390 . S
C1575 C1572 1.386 . S
C1576 C1571 1.490 . S
C1576 C1578 1.395 . S
C1576 C1579 1.403 . S
H1577 C1583 0.930 . S
C1578 H1564 0.930 . S
C1578 C1576 1.395 . S
C1578 C1581 1.403 . S
C1579 C1576 1.403 . S
C1579 C1580 1.524 . S
C1579 C1583 1.400 . S
C1580 H1565 0.960 . S
C1580 H1566 0.960 . S
C1580 H1567 0.960 . S
C1580 C1579 1.524 . S
C1581 C1578 1.403 . S
C1581 C1582 1.392 . S
C1581 C1585 1.495 . S
C1582 C1581 1.392 . S
C1582 C1583 1.385 . S
C1582 C1584 1.478 . S
C1583 H1577 0.930 . S
C1583 C1579 1.400 . S
C1583 C1582 1.385 . S
C1584 C1582 1.478 . S
C1584 C1586 1.381 . S
C1584 C1590 1.383 . S
C1585 C1581 1.495 . S
C1585 H1591 0.959 . S
C1585 H1592 0.961 . S
C1585 H1593 0.960 . S
C1586 C1584 1.381 . S
C1586 C1587 1.394 . S
C1586 H1594 0.930 . S
C1587 C1586 1.394 . S
C1587 C1588 1.383 . S
C1587 H1595 0.929 . S
C1588 C1587 1.383 . S
C1588 C1589 1.377 . S
C1589 H1573 0.930 . S
C1589 C1588 1.377 . S
C1589 C1590 1.379 . S
C1590 H1574 0.931 . S
C1590 C1584 1.383 . S
C1590 C1589 1.379 . S
H1591 C1585 0.959 . S
H1592 C1585 0.961 . S
H1593 C1585 0.960 . S
H1594 C1586 0.930 . S
H1595 C1587 0.929 . S
H1596 C1604 0.929 . S
H1597 C1606 0.930 . S
H1598 C1608 0.930 . S
H1599 C1611 0.929 . S
H1600 C1614 0.930 . S
H1601 C1616 0.960 . S
H1602 C1616 0.960 . S
H1603 C1616 0.960 . S
C1604 H1596 0.929 . S
C1604 C1605 1.377 . S
C1604 C1606 1.384 . S
C1605 C1604 1.377 . S
C1605 C1611 1.390 . S
C1606 H1597 0.930 . S
C1606 C1604 1.384 . S
C1606 C1607 1.372 1_545 S
C1607 C1606 1.372 1_565 S
C1607 C1608 1.400 . S
C1607 C1612 1.490 . S
C1608 H1598 0.930 . S
C1608 C1607 1.400 . S
C1608 C1611 1.386 1_565 S
H1609 C1625 0.930 . S
H1610 C1626 0.931 . S
C1611 H1599 0.929 . S
C1611 C1605 1.390 . S
C1611 C1608 1.386 1_545 S
C1612 C1607 1.490 . S
C1612 C1614 1.395 . S
C1612 C1615 1.403 . S
H1613 C1619 0.930 . S
C1614 H1600 0.930 . S
C1614 C1612 1.395 . S
C1614 C1617 1.403 . S
C1615 C1612 1.403 . S
C1615 C1616 1.524 . S
C1615 C1619 1.400 . S
C1616 H1601 0.960 . S
C1616 H1602 0.960 . S
C1616 H1603 0.960 . S
C1616 C1615 1.524 . S
C1617 C1614 1.403 . S
C1617 C1618 1.392 . S
C1617 C1621 1.495 . S
C1618 C1617 1.392 . S
C1618 C1619 1.385 . S
C1618 C1620 1.478 . S
C1619 H1613 0.930 . S
C1619 C1615 1.400 . S
C1619 C1618 1.385 . S
C1620 C1618 1.478 . S
C1620 C1622 1.381 . S
C1620 C1626 1.383 . S
C1621 C1617 1.495 . S
C1621 H1627 0.959 . S
C1621 H1628 0.961 . S
C1621 H1629 0.960 . S
C1622 C1620 1.381 . S
C1622 C1623 1.394 . S
C1622 H1630 0.930 . S
C1623 C1622 1.394 . S
C1623 C1624 1.383 . S
C1623 H1631 0.929 . S
C1624 C1623 1.383 . S
C1624 C1625 1.377 . S
C1625 H1609 0.930 . S
C1625 C1624 1.377 . S
C1625 C1626 1.379 . S
C1626 H1610 0.931 . S
C1626 C1620 1.383 . S
C1626 C1625 1.379 . S
H1627 C1621 0.959 . S
H1628 C1621 0.961 . S
H1629 C1621 0.960 . S
H1630 C1622 0.930 . S
H1631 C1623 0.929 . S
H1632 C1640 0.929 . S
H1633 C1642 0.930 . S
H1634 C1644 0.930 . S
H1635 C1647 0.929 . S
H1636 C1650 0.930 . S
H1637 C1652 0.960 . S
H1638 C1652 0.960 . S
H1639 C1652 0.960 . S
C1640 H1632 0.929 . S
C1640 C1641 1.377 . S
C1640 C1642 1.384 . S
C1641 C1640 1.377 . S
C1641 C1647 1.390 . S
C1642 H1633 0.930 . S
C1642 C1640 1.384 . S
C1642 C1643 1.372 . S
C1643 C1642 1.372 . S
C1643 C1644 1.400 . S
C1643 C1648 1.490 . S
C1644 H1634 0.930 . S
C1644 C1643 1.400 . S
C1644 C1647 1.386 . S
H1645 C1661 0.930 . S
H1646 C1662 0.931 . S
C1647 H1635 0.929 . S
C1647 C1641 1.390 . S
C1647 C1644 1.386 . S
C1648 C1643 1.490 . S
C1648 C1650 1.395 . S
C1648 C1651 1.403 . S
H1649 C1655 0.930 . S
C1650 H1636 0.930 . S
C1650 C1648 1.395 . S
C1650 C1653 1.403 . S
C1651 C1648 1.403 . S
C1651 C1652 1.524 . S
C1651 C1655 1.400 . S
C1652 H1637 0.960 . S
C1652 H1638 0.960 . S
C1652 H1639 0.960 . S
C1652 C1651 1.524 . S
C1653 C1650 1.403 . S
C1653 C1654 1.392 . S
C1653 C1657 1.495 . S
C1654 C1653 1.392 . S
C1654 C1655 1.385 . S
C1654 C1656 1.478 . S
C1655 H1649 0.930 . S
C1655 C1651 1.400 . S
C1655 C1654 1.385 . S
C1656 C1654 1.478 . S
C1656 C1658 1.381 . S
C1656 C1662 1.383 . S
C1657 C1653 1.495 . S
C1657 H1663 0.959 . S
C1657 H1664 0.961 . S
C1657 H1665 0.960 . S
C1658 C1656 1.381 . S
C1658 C1659 1.394 . S
C1658 H1666 0.930 . S
C1659 C1658 1.394 . S
C1659 C1660 1.383 . S
C1659 H1667 0.929 . S
C1660 C1659 1.383 . S
C1660 C1661 1.377 . S
C1661 H1645 0.930 . S
C1661 C1660 1.377 . S
C1661 C1662 1.379 . S
C1662 H1646 0.931 . S
C1662 C1656 1.383 . S
C1662 C1661 1.379 . S
H1663 C1657 0.959 . S
H1664 C1657 0.961 . S
H1665 C1657 0.960 . S
H1666 C1658 0.930 . S
H1667 C1659 0.929 . S
H1668 C1676 0.929 . S
H1669 C1678 0.930 . S
H1670 C1680 0.930 . S
H1671 C1683 0.929 . S
H1672 C1686 0.930 . S
H1673 C1688 0.960 . S
H1674 C1688 0.960 . S
H1675 C1688 0.960 1_455 S
C1676 H1668 0.929 . S
C1676 C1677 1.377 1_655 S
C1676 C1678 1.384 . S
C1677 C1676 1.377 1_455 S
C1677 C1683 1.390 . S
C1678 H1669 0.930 . S
C1678 C1676 1.384 . S
C1678 C1679 1.372 . S
C1679 C1678 1.372 . S
C1679 C1680 1.400 1_655 S
C1679 C1684 1.490 . S
C1680 H1670 0.930 . S
C1680 C1679 1.400 1_455 S
C1680 C1683 1.386 . S
H1681 C1697 0.930 . S
H1682 C1698 0.931 . S
C1683 H1671 0.929 . S
C1683 C1677 1.390 . S
C1683 C1680 1.386 . S
C1684 C1679 1.490 . S
C1684 C1686 1.395 . S
C1684 C1687 1.403 . S
H1685 C1691 0.930 . S
C1686 H1672 0.930 . S
C1686 C1684 1.395 . S
C1686 C1689 1.403 . S
C1687 C1684 1.403 . S
C1687 C1688 1.524 . S
C1687 C1691 1.400 . S
C1688 H1673 0.960 . S
C1688 H1674 0.960 . S
C1688 H1675 0.960 1_655 S
C1688 C1687 1.524 . S
C1689 C1686 1.403 . S
C1689 C1690 1.392 . S
C1689 C1693 1.495 . S
C1690 C1689 1.392 . S
C1690 C1691 1.385 . S
C1690 C1692 1.478 . S
C1691 H1685 0.930 . S
C1691 C1687 1.400 . S
C1691 C1690 1.385 . S
C1692 C1690 1.478 . S
C1692 C1694 1.381 . S
C1692 C1698 1.383 . S
C1693 C1689 1.495 . S
C1693 H1699 0.959 . S
C1693 H1700 0.961 . S
C1693 H1701 0.960 . S
C1694 C1692 1.381 . S
C1694 C1695 1.394 . S
C1694 H1702 0.930 . S
C1695 C1694 1.394 . S
C1695 C1696 1.383 . S
C1695 H1703 0.929 . S
C1696 C1695 1.383 . S
C1696 C1697 1.377 . S
C1697 H1681 0.930 . S
C1697 C1696 1.377 . S
C1697 C1698 1.379 . S
C1698 H1682 0.931 . S
C1698 C1692 1.383 . S
C1698 C1697 1.379 . S
H1699 C1693 0.959 . S
H1700 C1693 0.961 . S
H1701 C1693 0.960 . S
H1702 C1694 0.930 . S
H1703 C1695 0.929 . S
H1704 C1712 0.929 . S
H1705 C1714 0.930 . S
H1706 C1716 0.930 . S
H1707 C1719 0.929 . S
H1708 C1722 0.930 . S
H1709 C1724 0.960 . S
H1710 C1724 0.960 . S
H1711 C1724 0.960 . S
C1712 H1704 0.929 . S
C1712 C1713 1.377 . S
C1712 C1714 1.384 . S
C1713 C1712 1.377 . S
C1713 C1719 1.390 . S
C1714 H1705 0.930 . S
C1714 C1712 1.384 . S
C1714 C1715 1.372 . S
C1715 C1714 1.372 . S
C1715 C1716 1.400 . S
C1715 C1720 1.490 . S
C1716 H1706 0.930 . S
C1716 C1715 1.400 . S
C1716 C1719 1.386 . S
H1717 C1733 0.930 . S
H1718 C1734 0.931 . S
C1719 H1707 0.929 . S
C1719 C1713 1.390 . S
C1719 C1716 1.386 . S
C1720 C1715 1.490 . S
C1720 C1722 1.395 . S
C1720 C1723 1.403 . S
H1721 C1727 0.930 . S
C1722 H1708 0.930 . S
C1722 C1720 1.395 . S
C1722 C1725 1.403 . S
C1723 C1720 1.403 . S
C1723 C1724 1.524 . S
C1723 C1727 1.400 . S
C1724 H1709 0.960 . S
C1724 H1710 0.960 . S
C1724 H1711 0.960 . S
C1724 C1723 1.524 . S
C1725 C1722 1.403 . S
C1725 C1726 1.392 . S
C1725 C1729 1.495 . S
C1726 C1725 1.392 . S
C1726 C1727 1.385 . S
C1726 C1728 1.478 . S
C1727 H1721 0.930 . S
C1727 C1723 1.400 . S
C1727 C1726 1.385 . S
C1728 C1726 1.478 . S
C1728 C1730 1.381 . S
C1728 C1734 1.383 . S
C1729 C1725 1.495 . S
C1729 H1735 0.959 . S
C1729 H1736 0.961 . S
C1729 H1737 0.960 . S
C1730 C1728 1.381 . S
C1730 C1731 1.394 . S
C1730 H1738 0.930 . S
C1731 C1730 1.394 . S
C1731 C1732 1.383 . S
C1731 H1739 0.929 . S
C1732 C1731 1.383 . S
C1732 C1733 1.377 . S
C1733 H1717 0.930 . S
C1733 C1732 1.377 . S
C1733 C1734 1.379 . S
C1734 H1718 0.931 . S
C1734 C1728 1.383 . S
C1734 C1733 1.379 . S
H1735 C1729 0.959 . S
H1736 C1729 0.961 . S
H1737 C1729 0.960 . S
H1738 C1730 0.930 . S
H1739 C1731 0.929 . S
H1740 C1748 0.929 . S
H1741 C1750 0.930 . S
H1742 C1752 0.930 . S
H1743 C1755 0.929 . S
H1744 C1758 0.930 . S
H1745 C1760 0.960 . S
H1746 C1760 0.960 . S
H1747 C1760 0.960 . S
C1748 H1740 0.929 . S
C1748 C1749 1.377 . S
C1748 C1750 1.384 . S
C1749 C1748 1.377 . S
C1749 C1755 1.390 . S
C1750 H1741 0.930 . S
C1750 C1748 1.384 . S
C1750 C1751 1.372 . S
C1751 C1750 1.372 . S
C1751 C1752 1.400 . S
C1751 C1756 1.490 . S
C1752 H1742 0.930 . S
C1752 C1751 1.400 . S
C1752 C1755 1.386 . S
H1753 C1769 0.930 . S
H1754 C1770 0.931 . S
C1755 H1743 0.929 . S
C1755 C1749 1.390 . S
C1755 C1752 1.386 . S
C1756 C1751 1.490 . S
C1756 C1758 1.395 . S
C1756 C1759 1.403 . S
H1757 C1763 0.930 . S
C1758 H1744 0.930 . S
C1758 C1756 1.395 . S
C1758 C1761 1.403 . S
C1759 C1756 1.403 . S
C1759 C1760 1.524 . S
C1759 C1763 1.400 . S
C1760 H1745 0.960 . S
C1760 H1746 0.960 . S
C1760 H1747 0.960 . S
C1760 C1759 1.524 . S
C1761 C1758 1.403 . S
C1761 C1762 1.392 . S
C1761 C1765 1.495 . S
C1762 C1761 1.392 . S
C1762 C1763 1.385 . S
C1762 C1764 1.478 . S
C1763 H1757 0.930 . S
C1763 C1759 1.400 . S
C1763 C1762 1.385 . S
C1764 C1762 1.478 . S
C1764 C1766 1.381 . S
C1764 C1770 1.383 . S
C1765 C1761 1.495 . S
C1765 H1771 0.959 . S
C1765 H1772 0.961 . S
C1765 H1773 0.960 . S
C1766 C1764 1.381 . S
C1766 C1767 1.394 . S
C1766 H1774 0.930 . S
C1767 C1766 1.394 . S
C1767 C1768 1.383 . S
C1767 H1775 0.929 . S
C1768 C1767 1.383 . S
C1768 C1769 1.377 . S
C1769 H1753 0.930 . S
C1769 C1768 1.377 . S
C1769 C1770 1.379 . S
C1770 H1754 0.931 . S
C1770 C1764 1.383 . S
C1770 C1769 1.379 . S
H1771 C1765 0.959 . S
H1772 C1765 0.961 . S
H1773 C1765 0.960 . S
H1774 C1766 0.930 . S
H1775 C1767 0.929 . S
H1776 C1784 0.929 . S
H1777 C1786 0.930 . S
H1778 C1788 0.930 . S
H1779 C1791 0.929 . S
H1780 C1794 0.930 . S
H1781 C1796 0.960 . S
H1782 C1796 0.960 . S
H1783 C1796 0.960 . S
C1784 H1776 0.929 . S
C1784 C1785 1.377 . S
C1784 C1786 1.384 . S
C1785 C1784 1.377 . S
C1785 C1791 1.390 . S
C1786 H1777 0.930 . S
C1786 C1784 1.384 . S
C1786 C1787 1.372 . S
C1787 C1786 1.372 . S
C1787 C1788 1.400 . S
C1787 C1792 1.490 . S
C1788 H1778 0.930 . S
C1788 C1787 1.400 . S
C1788 C1791 1.386 . S
H1789 C1805 0.930 . S
H1790 C1806 0.931 . S
C1791 H1779 0.929 . S
C1791 C1785 1.390 . S
C1791 C1788 1.386 . S
C1792 C1787 1.490 . S
C1792 C1794 1.395 . S
C1792 C1795 1.403 . S
H1793 C1799 0.930 . S
C1794 H1780 0.930 . S
C1794 C1792 1.395 . S
C1794 C1797 1.403 . S
C1795 C1792 1.403 . S
C1795 C1796 1.524 . S
C1795 C1799 1.400 . S
C1796 H1781 0.960 . S
C1796 H1782 0.960 . S
C1796 H1783 0.960 . S
C1796 C1795 1.524 . S
C1797 C1794 1.403 . S
C1797 C1798 1.392 . S
C1797 C1801 1.495 . S
C1798 C1797 1.392 . S
C1798 C1799 1.385 . S
C1798 C1800 1.478 . S
C1799 H1793 0.930 . S
C1799 C1795 1.400 . S
C1799 C1798 1.385 . S
C1800 C1798 1.478 . S
C1800 C1802 1.381 . S
C1800 C1806 1.383 . S
C1801 C1797 1.495 . S
C1801 H1807 0.959 . S
C1801 H1808 0.961 . S
C1801 H1809 0.960 . S
C1802 C1800 1.381 . S
C1802 C1803 1.394 . S
C1802 H1810 0.930 . S
C1803 C1802 1.394 . S
C1803 C1804 1.383 . S
C1803 H1811 0.929 . S
C1804 C1803 1.383 . S
C1804 C1805 1.377 . S
C1805 H1789 0.930 . S
C1805 C1804 1.377 . S
C1805 C1806 1.379 . S
C1806 H1790 0.931 . S
C1806 C1800 1.383 . S
C1806 C1805 1.379 . S
H1807 C1801 0.959 . S
H1808 C1801 0.961 . S
H1809 C1801 0.960 . S
H1810 C1802 0.930 . S
H1811 C1803 0.929 . S
H1812 C1820 0.929 . S
H1813 C1822 0.930 . S
H1814 C1824 0.930 . S
H1815 C1827 0.929 . S
H1816 C1830 0.930 . S
H1817 C1832 0.960 . S
H1818 C1832 0.960 . S
H1819 C1832 0.960 . S
C1820 H1812 0.929 . S
C1820 C1821 1.377 . S
C1820 C1822 1.384 . S
C1821 C1820 1.377 . S
C1821 C1827 1.390 . S
C1822 H1813 0.930 . S
C1822 C1820 1.384 . S
C1822 C1823 1.372 . S
C1823 C1822 1.372 . S
C1823 C1824 1.400 . S
C1823 C1828 1.490 . S
C1824 H1814 0.930 . S
C1824 C1823 1.400 . S
C1824 C1827 1.386 . S
H1825 C1841 0.930 . S
H1826 C1842 0.931 . S
C1827 H1815 0.929 . S
C1827 C1821 1.390 . S
C1827 C1824 1.386 . S
C1828 C1823 1.490 . S
C1828 C1830 1.395 . S
C1828 C1831 1.403 . S
H1829 C1835 0.930 . S
C1830 H1816 0.930 . S
C1830 C1828 1.395 . S
C1830 C1833 1.403 . S
C1831 C1828 1.403 . S
C1831 C1832 1.524 . S
C1831 C1835 1.400 . S
C1832 H1817 0.960 . S
C1832 H1818 0.960 . S
C1832 H1819 0.960 . S
C1832 C1831 1.524 . S
C1833 C1830 1.403 . S
C1833 C1834 1.392 . S
C1833 C1837 1.495 . S
C1834 C1833 1.392 . S
C1834 C1835 1.385 . S
C1834 C1836 1.478 . S
C1835 H1829 0.930 . S
C1835 C1831 1.400 . S
C1835 C1834 1.385 . S
C1836 C1834 1.478 . S
C1836 C1838 1.381 . S
C1836 C1842 1.383 . S
C1837 C1833 1.495 . S
C1837 H1843 0.959 . S
C1837 H1844 0.961 . S
C1837 H1845 0.960 . S
C1838 C1836 1.381 . S
C1838 C1839 1.394 . S
C1838 H1846 0.930 . S
C1839 C1838 1.394 . S
C1839 C1840 1.383 . S
C1839 H1847 0.929 . S
C1840 C1839 1.383 . S
C1840 C1841 1.377 . S
C1841 H1825 0.930 . S
C1841 C1840 1.377 . S
C1841 C1842 1.379 . S
C1842 H1826 0.931 . S
C1842 C1836 1.383 . S
C1842 C1841 1.379 . S
H1843 C1837 0.959 . S
H1844 C1837 0.961 . S
H1845 C1837 0.960 . S
H1846 C1838 0.930 . S
H1847 C1839 0.929 . S
H1848 C1856 0.931 1_554 S
H1849 C1858 0.915 1_455 S
H1850 C1860 0.930 . S
H1851 C1863 0.929 . S
H1852 C1866 0.930 . S
H1853 C1868 0.960 . S
H1854 C1868 0.960 . S
H1855 C1868 0.960 . S
C1856 H1848 0.931 1_556 S
C1856 C1857 1.375 . S
C1856 C1858 1.385 1_556 S
C1857 C1856 1.375 . S
C1857 C1863 1.390 . S
C1858 H1849 0.915 1_655 S
C1858 C1856 1.385 1_554 S
C1858 C1859 1.372 1_655 S
C1859 C1858 1.372 1_455 S
C1859 C1860 1.400 1_554 S
C1859 C1864 1.490 . S
C1860 H1850 0.930 . S
C1860 C1859 1.400 1_556 S
C1860 C1863 1.386 1_455 S
H1861 C1877 0.930 . S
H1862 C1878 0.931 . S
C1863 H1851 0.929 . S
C1863 C1857 1.390 . S
C1863 C1860 1.386 1_655 S
C1864 C1859 1.490 . S
C1864 C1866 1.395 . S
C1864 C1867 1.403 . S
H1865 C1871 0.930 . S
C1866 H1852 0.930 . S
C1866 C1864 1.395 . S
C1866 C1869 1.403 . S
C1867 C1864 1.403 . S
C1867 C1868 1.524 1_554 S
C1867 C1871 1.400 . S
C1868 H1853 0.960 . S
C1868 H1854 0.960 . S
C1868 H1855 0.960 . S
C1868 C1867 1.524 1_556 S
C1869 C1866 1.403 . S
C1869 C1870 1.392 . S
C1869 C1873 1.495 . S
C1870 C1869 1.392 . S
C1870 C1871 1.385 . S
C1870 C1872 1.478 . S
C1871 H1865 0.930 . S
C1871 C1867 1.400 . S
C1871 C1870 1.385 . S
C1872 C1870 1.478 . S
C1872 C1874 1.381 . S
C1872 C1878 1.383 . S
C1873 C1869 1.495 . S
C1873 H1879 0.959 . S
C1873 H1880 0.961 . S
C1873 H1881 0.960 . S
C1874 C1872 1.381 . S
C1874 C1875 1.394 . S
C1874 H1882 0.930 . S
C1875 C1874 1.394 . S
C1875 C1876 1.383 . S
C1875 H1883 0.929 . S
C1876 C1875 1.383 . S
C1876 C1877 1.377 . S
C1877 H1861 0.930 . S
C1877 C1876 1.377 . S
C1877 C1878 1.379 . S
C1878 H1862 0.931 . S
C1878 C1872 1.383 . S
C1878 C1877 1.379 . S
H1879 C1873 0.959 . S
H1880 C1873 0.961 . S
H1881 C1873 0.960 . S
H1882 C1874 0.930 . S
H1883 C1875 0.929 . S
H1884 C1892 0.929 . S
H1885 C1894 0.930 . S
H1886 C1896 0.930 . S
H1887 C1899 0.929 . S
H1888 C1902 0.930 . S
H1889 C1904 0.960 . S
H1890 C1904 0.960 . S
H1891 C1904 0.960 . S
C1892 H1884 0.929 . S
C1892 C1893 1.377 . S
C1892 C1894 1.384 . S
C1893 C1892 1.377 . S
C1893 C1899 1.390 . S
C1894 H1885 0.930 . S
C1894 C1892 1.384 . S
C1894 C1895 1.372 . S
C1895 C1894 1.372 . S
C1895 C1896 1.400 . S
C1895 C1900 1.490 . S
C1896 H1886 0.930 . S
C1896 C1895 1.400 . S
C1896 C1899 1.386 . S
H1897 C1913 0.930 . S
H1898 C1914 0.931 . S
C1899 H1887 0.929 . S
C1899 C1893 1.390 . S
C1899 C1896 1.386 . S
C1900 C1895 1.490 . S
C1900 C1902 1.395 . S
C1900 C1903 1.403 . S
H1901 C1907 0.930 . S
C1902 H1888 0.930 . S
C1902 C1900 1.395 . S
C1902 C1905 1.403 . S
C1903 C1900 1.403 . S
C1903 C1904 1.524 . S
C1903 C1907 1.400 . S
C1904 H1889 0.960 . S
C1904 H1890 0.960 . S
C1904 H1891 0.960 . S
C1904 C1903 1.524 . S
C1905 C1902 1.403 . S
C1905 C1906 1.392 . S
C1905 C1909 1.495 . S
C1906 C1905 1.392 . S
C1906 C1907 1.385 . S
C1906 C1908 1.478 . S
C1907 H1901 0.930 . S
C1907 C1903 1.400 . S
C1907 C1906 1.385 . S
C1908 C1906 1.478 . S
C1908 C1910 1.381 . S
C1908 C1914 1.383 . S
C1909 C1905 1.495 . S
C1909 H1915 0.959 . S
C1909 H1916 0.961 . S
C1909 H1917 0.960 . S
C1910 C1908 1.381 . S
C1910 C1911 1.394 . S
C1910 H1918 0.930 . S
C1911 C1910 1.394 . S
C1911 C1912 1.383 . S
C1911 H1919 0.929 . S
C1912 C1911 1.383 . S
C1912 C1913 1.377 . S
C1913 H1897 0.930 . S
C1913 C1912 1.377 . S
C1913 C1914 1.379 . S
C1914 H1898 0.931 . S
C1914 C1908 1.383 . S
C1914 C1913 1.379 . S
H1915 C1909 0.959 . S
H1916 C1909 0.961 . S
H1917 C1909 0.960 . S
H1918 C1910 0.930 . S
H1919 C1911 0.929 . S
H1920 C1928 0.929 . S
H1921 C1930 0.930 . S
H1922 C1932 0.930 . S
H1923 C1935 0.929 . S
H1924 C1938 0.930 . S
H1925 C1940 0.960 . S
H1926 C1940 0.960 . S
H1927 C1940 0.960 . S
C1928 H1920 0.929 . S
C1928 C1929 1.377 . S
C1928 C1930 1.384 . S
C1929 C1928 1.377 . S
C1929 C1935 1.390 . S
C1930 H1921 0.930 . S
C1930 C1928 1.384 . S
C1930 C1931 1.372 . S
C1931 C1930 1.372 . S
C1931 C1932 1.400 . S
C1931 C1936 1.490 . S
C1932 H1922 0.930 . S
C1932 C1931 1.400 . S
C1932 C1935 1.386 . S
H1933 C1949 0.930 . S
H1934 C1950 0.931 . S
C1935 H1923 0.929 . S
C1935 C1929 1.390 . S
C1935 C1932 1.386 . S
C1936 C1931 1.490 . S
C1936 C1938 1.395 . S
C1936 C1939 1.403 . S
H1937 C1943 0.930 . S
C1938 H1924 0.930 . S
C1938 C1936 1.395 . S
C1938 C1941 1.403 . S
C1939 C1936 1.403 . S
C1939 C1940 1.524 . S
C1939 C1943 1.400 . S
C1940 H1925 0.960 . S
C1940 H1926 0.960 . S
C1940 H1927 0.960 . S
C1940 C1939 1.524 . S
C1941 C1938 1.403 . S
C1941 C1942 1.392 . S
C1941 C1945 1.495 . S
C1942 C1941 1.392 . S
C1942 C1943 1.385 . S
C1942 C1944 1.478 . S
C1943 H1937 0.930 . S
C1943 C1939 1.400 . S
C1943 C1942 1.385 . S
C1944 C1942 1.478 . S
C1944 C1946 1.381 . S
C1944 C1950 1.383 . S
C1945 C1941 1.495 . S
C1945 H1951 0.959 . S
C1945 H1952 0.961 . S
C1945 H1953 0.960 . S
C1946 C1944 1.381 . S
C1946 C1947 1.394 . S
C1946 H1954 0.930 . S
C1947 C1946 1.394 . S
C1947 C1948 1.383 . S
C1947 H1955 0.929 . S
C1948 C1947 1.383 . S
C1948 C1949 1.377 . S
C1949 H1933 0.930 . S
C1949 C1948 1.377 . S
C1949 C1950 1.379 . S
C1950 H1934 0.931 . S
C1950 C1944 1.383 . S
C1950 C1949 1.379 . S
H1951 C1945 0.959 . S
H1952 C1945 0.961 . S
H1953 C1945 0.960 . S
H1954 C1946 0.930 . S
H1955 C1947 0.929 . S
H1956 C1964 0.929 . S
H1957 C1966 0.930 . S
H1958 C1968 0.930 . S
H1959 C1971 0.929 . S
H1960 C1974 0.930 . S
H1961 C1976 0.960 . S
H1962 C1976 0.960 . S
H1963 C1976 0.960 . S
C1964 H1956 0.929 . S
C1964 C1965 1.377 . S
C1964 C1966 1.384 . S
C1965 C1964 1.377 . S
C1965 C1971 1.390 . S
C1966 H1957 0.930 . S
C1966 C1964 1.384 . S
C1966 C1967 1.372 . S
C1967 C1966 1.372 . S
C1967 C1968 1.400 . S
C1967 C1972 1.490 . S
C1968 H1958 0.930 . S
C1968 C1967 1.400 . S
C1968 C1971 1.386 . S
H1969 C1985 0.930 . S
H1970 C1986 0.931 . S
C1971 H1959 0.929 . S
C1971 C1965 1.390 . S
C1971 C1968 1.386 . S
C1972 C1967 1.490 . S
C1972 C1974 1.395 . S
C1972 C1975 1.403 . S
H1973 C1979 0.930 . S
C1974 H1960 0.930 . S
C1974 C1972 1.395 . S
C1974 C1977 1.403 . S
C1975 C1972 1.403 . S
C1975 C1976 1.524 . S
C1975 C1979 1.400 . S
C1976 H1961 0.960 . S
C1976 H1962 0.960 . S
C1976 H1963 0.960 . S
C1976 C1975 1.524 . S
C1977 C1974 1.403 . S
C1977 C1978 1.392 . S
C1977 C1981 1.495 . S
C1978 C1977 1.392 . S
C1978 C1979 1.385 . S
C1978 C1980 1.478 . S
C1979 H1973 0.930 . S
C1979 C1975 1.400 . S
C1979 C1978 1.385 . S
C1980 C1978 1.478 . S
C1980 C1982 1.381 . S
C1980 C1986 1.383 . S
C1981 C1977 1.495 . S
C1981 H1987 0.959 . S
C1981 H1988 0.961 . S
C1981 H1989 0.960 . S
C1982 C1980 1.381 . S
C1982 C1983 1.394 . S
C1982 H1990 0.930 . S
C1983 C1982 1.394 . S
C1983 C1984 1.383 . S
C1983 H1991 0.929 . S
C1984 C1983 1.383 . S
C1984 C1985 1.377 . S
C1985 H1969 0.930 . S
C1985 C1984 1.377 . S
C1985 C1986 1.379 . S
C1986 H1970 0.931 . S
C1986 C1980 1.383 . S
C1986 C1985 1.379 . S
H1987 C1981 0.959 . S
H1988 C1981 0.961 . S
H1989 C1981 0.960 . S
H1990 C1982 0.930 . S
H1991 C1983 0.929 . S
H1992 C2000 0.929 1_556 S
H1993 C2002 0.930 . S
H1994 C2004 0.930 . S
H1995 C2007 0.929 . S
H1996 C2010 0.930 . S
H1997 C2012 0.960 . S
H1998 C2012 0.960 . S
H1999 C2012 0.960 . S
C2000 H1992 0.929 1_554 S
C2000 C2001 1.377 . S
C2000 C2002 1.384 1_554 S
C2001 C2000 1.377 . S
C2001 C2007 1.390 . S
C2002 H1993 0.930 . S
C2002 C2000 1.384 1_556 S
C2002 C2003 1.372 . S
C2003 C2002 1.372 . S
C2003 C2004 1.400 1_556 S
C2003 C2008 1.490 . S
C2004 H1994 0.930 . S
C2004 C2003 1.400 1_554 S
C2004 C2007 1.386 . S
H2005 C2021 0.930 . S
H2006 C2022 0.931 . S
C2007 H1995 0.929 . S
C2007 C2001 1.390 . S
C2007 C2004 1.386 . S
C2008 C2003 1.490 . S
C2008 C2010 1.395 . S
C2008 C2011 1.403 . S
H2009 C2015 0.930 . S
C2010 H1996 0.930 . S
C2010 C2008 1.395 . S
C2010 C2013 1.403 . S
C2011 C2008 1.403 . S
C2011 C2012 1.524 1_556 S
C2011 C2015 1.400 . S
C2012 H1997 0.960 . S
C2012 H1998 0.960 . S
C2012 H1999 0.960 . S
C2012 C2011 1.524 1_554 S
C2013 C2010 1.403 . S
C2013 C2014 1.392 . S
C2013 C2017 1.495 . S
C2014 C2013 1.392 . S
C2014 C2015 1.385 . S
C2014 C2016 1.478 . S
C2015 H2009 0.930 . S
C2015 C2011 1.400 . S
C2015 C2014 1.385 . S
C2016 C2014 1.478 . S
C2016 C2018 1.381 . S
C2016 C2022 1.383 . S
C2017 C2013 1.495 . S
C2017 H2023 0.959 . S
C2017 H2024 0.961 . S
C2017 H2025 0.960 . S
C2018 C2016 1.381 . S
C2018 C2019 1.394 . S
C2018 H2026 0.930 . S
C2019 C2018 1.394 . S
C2019 C2020 1.383 . S
C2019 H2027 0.929 . S
C2020 C2019 1.383 . S
C2020 C2021 1.377 . S
C2021 H2005 0.930 . S
C2021 C2020 1.377 . S
C2021 C2022 1.379 . S
C2022 H2006 0.931 . S
C2022 C2016 1.383 . S
C2022 C2021 1.379 . S
H2023 C2017 0.959 . S
H2024 C2017 0.961 . S
H2025 C2017 0.960 . S
H2026 C2018 0.930 . S
H2027 C2019 0.929 . S
H2028 C2036 0.929 . S
H2029 C2038 0.930 . S
H2030 C2040 0.930 . S
H2031 C2043 0.929 . S
H2032 C2046 0.930 . S
H2033 C2048 0.960 . S
H2034 C2048 0.960 . S
H2035 C2048 0.960 . S
C2036 H2028 0.929 . S
C2036 C2037 1.377 . S
C2036 C2038 1.384 . S
C2037 C2036 1.377 . S
C2037 C2043 1.390 . S
C2038 H2029 0.930 . S
C2038 C2036 1.384 . S
C2038 C2039 1.372 . S
C2039 C2038 1.372 . S
C2039 C2040 1.400 . S
C2039 C2044 1.490 . S
C2040 H2030 0.930 . S
C2040 C2039 1.400 . S
C2040 C2043 1.386 . S
H2041 C2057 0.930 . S
H2042 C2058 0.931 . S
C2043 H2031 0.929 . S
C2043 C2037 1.390 . S
C2043 C2040 1.386 . S
C2044 C2039 1.490 . S
C2044 C2046 1.395 . S
C2044 C2047 1.403 . S
H2045 C2051 0.930 . S
C2046 H2032 0.930 . S
C2046 C2044 1.395 . S
C2046 C2049 1.403 . S
C2047 C2044 1.403 . S
C2047 C2048 1.524 . S
C2047 C2051 1.400 . S
C2048 H2033 0.960 . S
C2048 H2034 0.960 . S
C2048 H2035 0.960 . S
C2048 C2047 1.524 . S
C2049 C2046 1.403 . S
C2049 C2050 1.392 . S
C2049 C2053 1.495 . S
C2050 C2049 1.392 . S
C2050 C2051 1.385 . S
C2050 C2052 1.478 . S
C2051 H2045 0.930 . S
C2051 C2047 1.400 . S
C2051 C2050 1.385 . S
C2052 C2050 1.478 . S
C2052 C2054 1.381 1_655 S
C2052 C2058 1.383 . S
C2053 C2049 1.495 . S
C2053 H2059 0.959 . S
C2053 H2060 0.961 . S
C2053 H2061 0.960 . S
C2054 C2052 1.381 1_455 S
C2054 C2055 1.394 . S
C2054 H2062 0.930 . S
C2055 C2054 1.394 . S
C2055 C2056 1.383 . S
C2055 H2063 0.929 . S
C2056 C2055 1.383 . S
C2056 C2057 1.377 . S
C2057 H2041 0.930 . S
C2057 C2056 1.377 . S
C2057 C2058 1.379 1_455 S
C2058 H2042 0.931 . S
C2058 C2052 1.383 . S
C2058 C2057 1.379 1_655 S
H2059 C2053 0.959 . S
H2060 C2053 0.961 . S
H2061 C2053 0.960 . S
H2062 C2054 0.930 . S
H2063 C2055 0.929 . S
C345 C131 0.977 . S
C364 C5 1.018 . S
C381 C19 0.978 . S
C400 C145 1.016 . S
C417 C33 0.975 . S
C436 C159 1.037 . S
C453 C47 0.988 . S
C472 C117 0.969 . S
C489 C61 0.972 . S
C508 C215 1.046 . S
C525 C173 0.973 . S
C544 C75 1.043 . S
C561 C89 0.972 . S
C580 C187 1.046 . S
C597 C201 0.993 . S
C616 C103 0.952 . S
C633 C229 0.980 . S
C652 C257 1.004 . S
C669 C313 0.978 . S
C688 C243 1.015 . S
C705 C271 0.978 . S
C724 C327 1.024 . S
C741 C299 0.974 . S
C760 C285 1.033 . S
C777 C291 1.555 . S
C796 C11 1.545 . S
C813 C25 1.547 . S
C832 C249 1.540 . S
C849 C39 1.549 . S
C868 C263 1.533 . S
C885 C53 1.546 . S
C904 C277 1.564 . S
C921 C67 1.556 . S
C940 C333 1.538 . S
C957 C305 1.548 . S
C976 C81 1.538 . S
C993 C319 1.552 . S
C1012 C95 1.524 . S
C1029 C235 1.548 . S
C1048 C109 1.571 . S
C1065 C221 1.555 . S
C1084 C123 1.526 . S
C1101 C137 1.554 . S
C1120 C179 1.525 . S
C1137 C193 1.553 . S
C1156 C151 1.560 . S
C1173 C207 1.547 . S
C1192 C165 1.542 . S
C1209 C12 0.600 . S
C1228 C228 0.681 . S
C1245 C326 0.615 . S
C1264 C26 0.673 . S
C1281 C298 0.600 . S
C1300 C40 0.692 . S
C1317 C54 0.631 . S
C1336 C312 0.586 . S
C1353 C68 0.609 . S
C1372 C242 0.688 . S
C1389 C256 0.602 . S
C1408 C82 0.589 . S
C1425 C270 0.599 . S
C1444 C96 0.691 . S
C1461 C284 0.596 . S
C1480 C110 0.680 . S
C1497 C4 0.596 . S
C1516 C124 0.629 . S
C1533 C18 0.598 . S
C1552 C138 0.687 . S
C1569 C32 0.598 . S
C1588 C152 0.686 . S
C1605 C46 0.625 . S
C1624 C166 0.542 . S
C1641 C60 0.627 . S
C1660 C180 0.597 . S
C1677 C74 0.625 . S
C1696 C194 0.619 . S
C1713 C208 0.630 . S
C1732 C88 0.606 . S
C1749 C102 0.596 . S
C1768 C222 0.635 . S
C1785 C116 0.615 . S
C1804 C236 0.538 . S
C1821 C250 0.631 . S
C1840 C172 0.580 . S
C1857 C186 0.614 . S
C1876 C264 0.678 . S
C1893 C278 0.600 . S
C1912 C200 0.621 . S
C1929 C292 0.605 . S
C1948 C214 0.582 . S
C1965 C306 0.627 . S
C1984 C144 0.535 . S
C2001 C158 0.611 . S
C2020 C320 0.684 . S
C2037 C334 0.627 . S
C2056 C130 0.632 . S
