# Generated by pormake.
# Topology wge, (5)-cn, num edge types: 1
# Building blocks:
#     Node 0, Type 0, BuildingBlock: XOMCOT_clean_sbu_1, # of connection points: 5
#     Node 1, Type 0, BuildingBlock: XOMCOT_clean_sbu_1, # of connection points: 5
#     Node 2, Type 0, BuildingBlock: XOMCOT_clean_sbu_1, # of connection points: 5
#     Node 3, Type 0, BuildingBlock: XOMCOT_clean_sbu_1, # of connection points: 5
#     Node 4, Type 0, BuildingBlock: XOMCOT_clean_sbu_1, # of connection points: 5
#     Node 5, Type 0, BuildingBlock: XOMCOT_clean_sbu_1, # of connection points: 5
#     Node 6, Type 0, BuildingBlock: XOMCOT_clean_sbu_1, # of connection points: 5
#     Node 7, Type 0, BuildingBlock: XOMCOT_clean_sbu_1, # of connection points: 5
#     Node 8, Type 0, BuildingBlock: XOMCOT_clean_sbu_1, # of connection points: 5
#     Node 9, Type 0, BuildingBlock: XOMCOT_clean_sbu_1, # of connection points: 5
#     Node 10, Type 0, BuildingBlock: XOMCOT_clean_sbu_1, # of connection points: 5
#     Node 11, Type 0, BuildingBlock: XOMCOT_clean_sbu_1, # of connection points: 5
#     Node 12, Type 0, BuildingBlock: XOMCOT_clean_sbu_1, # of connection points: 5
#     Node 13, Type 0, BuildingBlock: XOMCOT_clean_sbu_1, # of connection points: 5
#     Node 14, Type 0, BuildingBlock: XOMCOT_clean_sbu_1, # of connection points: 5
#     Node 15, Type 0, BuildingBlock: XOMCOT_clean_sbu_1, # of connection points: 5
#     Node 16, Type 0, BuildingBlock: XOMCOT_clean_sbu_1, # of connection points: 5
#     Node 17, Type 0, BuildingBlock: XOMCOT_clean_sbu_1, # of connection points: 5
#     Node 18, Type 0, BuildingBlock: XOMCOT_clean_sbu_1, # of connection points: 5
#     Node 19, Type 0, BuildingBlock: XOMCOT_clean_sbu_1, # of connection points: 5
#     Node 20, Type 0, BuildingBlock: XOMCOT_clean_sbu_1, # of connection points: 5
#     Node 21, Type 0, BuildingBlock: XOMCOT_clean_sbu_1, # of connection points: 5
#     Node 22, Type 0, BuildingBlock: XOMCOT_clean_sbu_1, # of connection points: 5
#     Node 23, Type 0, BuildingBlock: XOMCOT_clean_sbu_1, # of connection points: 5
#     Node 24, Type 0, BuildingBlock: XOMCOT_clean_sbu_1, # of connection points: 5
#     Node 25, Type 0, BuildingBlock: XOMCOT_clean_sbu_1, # of connection points: 5
#     Node 26, Type 0, BuildingBlock: XOMCOT_clean_sbu_1, # of connection points: 5
#     Node 27, Type 0, BuildingBlock: XOMCOT_clean_sbu_1, # of connection points: 5
#     Node 28, Type 0, BuildingBlock: XOMCOT_clean_sbu_1, # of connection points: 5
#     Node 29, Type 0, BuildingBlock: XOMCOT_clean_sbu_1, # of connection points: 5
#     Node 30, Type 0, BuildingBlock: XOMCOT_clean_sbu_1, # of connection points: 5
#     Node 31, Type 0, BuildingBlock: XOMCOT_clean_sbu_1, # of connection points: 5
#     Edge 32, Type (0, 0), BuildingBlock: AJUNOK_clean_linker_0, # of connection points: 2
#     Edge 33, Type (0, 0), BuildingBlock: AJUNOK_clean_linker_0, # of connection points: 2
#     Edge 34, Type (0, 0), BuildingBlock: AJUNOK_clean_linker_0, # of connection points: 2
#     Edge 35, Type (0, 0), BuildingBlock: AJUNOK_clean_linker_0, # of connection points: 2
#     Edge 36, Type (0, 0), BuildingBlock: AJUNOK_clean_linker_0, # of connection points: 2
#     Edge 37, Type (0, 0), BuildingBlock: AJUNOK_clean_linker_0, # of connection points: 2
#     Edge 38, Type (0, 0), BuildingBlock: AJUNOK_clean_linker_0, # of connection points: 2
#     Edge 39, Type (0, 0), BuildingBlock: AJUNOK_clean_linker_0, # of connection points: 2
#     Edge 40, Type (0, 0), BuildingBlock: AJUNOK_clean_linker_0, # of connection points: 2
#     Edge 41, Type (0, 0), BuildingBlock: AJUNOK_clean_linker_0, # of connection points: 2
#     Edge 42, Type (0, 0), BuildingBlock: AJUNOK_clean_linker_0, # of connection points: 2
#     Edge 43, Type (0, 0), BuildingBlock: AJUNOK_clean_linker_0, # of connection points: 2
#     Edge 44, Type (0, 0), BuildingBlock: AJUNOK_clean_linker_0, # of connection points: 2
#     Edge 45, Type (0, 0), BuildingBlock: AJUNOK_clean_linker_0, # of connection points: 2
#     Edge 46, Type (0, 0), BuildingBlock: AJUNOK_clean_linker_0, # of connection points: 2
#     Edge 47, Type (0, 0), BuildingBlock: AJUNOK_clean_linker_0, # of connection points: 2
#     Edge 48, Type (0, 0), BuildingBlock: AJUNOK_clean_linker_0, # of connection points: 2
#     Edge 49, Type (0, 0), BuildingBlock: AJUNOK_clean_linker_0, # of connection points: 2
#     Edge 50, Type (0, 0), BuildingBlock: AJUNOK_clean_linker_0, # of connection points: 2
#     Edge 51, Type (0, 0), BuildingBlock: AJUNOK_clean_linker_0, # of connection points: 2
#     Edge 52, Type (0, 0), BuildingBlock: AJUNOK_clean_linker_0, # of connection points: 2
#     Edge 53, Type (0, 0), BuildingBlock: AJUNOK_clean_linker_0, # of connection points: 2
#     Edge 54, Type (0, 0), BuildingBlock: AJUNOK_clean_linker_0, # of connection points: 2
#     Edge 55, Type (0, 0), BuildingBlock: AJUNOK_clean_linker_0, # of connection points: 2
#     Edge 56, Type (0, 0), BuildingBlock: AJUNOK_clean_linker_0, # of connection points: 2
#     Edge 57, Type (0, 0), BuildingBlock: AJUNOK_clean_linker_0, # of connection points: 2
#     Edge 58, Type (0, 0), BuildingBlock: AJUNOK_clean_linker_0, # of connection points: 2
#     Edge 59, Type (0, 0), BuildingBlock: AJUNOK_clean_linker_0, # of connection points: 2
#     Edge 60, Type (0, 0), BuildingBlock: AJUNOK_clean_linker_0, # of connection points: 2
#     Edge 61, Type (0, 0), BuildingBlock: AJUNOK_clean_linker_0, # of connection points: 2
#     Edge 62, Type (0, 0), BuildingBlock: AJUNOK_clean_linker_0, # of connection points: 2
#     Edge 63, Type (0, 0), BuildingBlock: AJUNOK_clean_linker_0, # of connection points: 2
#     Edge 64, Type (0, 0), BuildingBlock: AJUNOK_clean_linker_0, # of connection points: 2
#     Edge 65, Type (0, 0), BuildingBlock: AJUNOK_clean_linker_0, # of connection points: 2
#     Edge 66, Type (0, 0), BuildingBlock: AJUNOK_clean_linker_0, # of connection points: 2
#     Edge 67, Type (0, 0), BuildingBlock: AJUNOK_clean_linker_0, # of connection points: 2
#     Edge 68, Type (0, 0), BuildingBlock: AJUNOK_clean_linker_0, # of connection points: 2
#     Edge 69, Type (0, 0), BuildingBlock: AJUNOK_clean_linker_0, # of connection points: 2
#     Edge 70, Type (0, 0), BuildingBlock: AJUNOK_clean_linker_0, # of connection points: 2
#     Edge 71, Type (0, 0), BuildingBlock: AJUNOK_clean_linker_0, # of connection points: 2
#     Edge 72, Type (0, 0), BuildingBlock: AJUNOK_clean_linker_0, # of connection points: 2
#     Edge 73, Type (0, 0), BuildingBlock: AJUNOK_clean_linker_0, # of connection points: 2
#     Edge 74, Type (0, 0), BuildingBlock: AJUNOK_clean_linker_0, # of connection points: 2
#     Edge 75, Type (0, 0), BuildingBlock: AJUNOK_clean_linker_0, # of connection points: 2
#     Edge 76, Type (0, 0), BuildingBlock: AJUNOK_clean_linker_0, # of connection points: 2
#     Edge 77, Type (0, 0), BuildingBlock: AJUNOK_clean_linker_0, # of connection points: 2
#     Edge 78, Type (0, 0), BuildingBlock: AJUNOK_clean_linker_0, # of connection points: 2
#     Edge 79, Type (0, 0), BuildingBlock: AJUNOK_clean_linker_0, # of connection points: 2
#     Edge 80, Type (0, 0), BuildingBlock: AJUNOK_clean_linker_0, # of connection points: 2
#     Edge 81, Type (0, 0), BuildingBlock: AJUNOK_clean_linker_0, # of connection points: 2
#     Edge 82, Type (0, 0), BuildingBlock: AJUNOK_clean_linker_0, # of connection points: 2
#     Edge 83, Type (0, 0), BuildingBlock: AJUNOK_clean_linker_0, # of connection points: 2
#     Edge 84, Type (0, 0), BuildingBlock: AJUNOK_clean_linker_0, # of connection points: 2
#     Edge 85, Type (0, 0), BuildingBlock: AJUNOK_clean_linker_0, # of connection points: 2
#     Edge 86, Type (0, 0), BuildingBlock: AJUNOK_clean_linker_0, # of connection points: 2
#     Edge 87, Type (0, 0), BuildingBlock: AJUNOK_clean_linker_0, # of connection points: 2
#     Edge 88, Type (0, 0), BuildingBlock: AJUNOK_clean_linker_0, # of connection points: 2
#     Edge 89, Type (0, 0), BuildingBlock: AJUNOK_clean_linker_0, # of connection points: 2
#     Edge 90, Type (0, 0), BuildingBlock: AJUNOK_clean_linker_0, # of connection points: 2
#     Edge 91, Type (0, 0), BuildingBlock: AJUNOK_clean_linker_0, # of connection points: 2
#     Edge 92, Type (0, 0), BuildingBlock: AJUNOK_clean_linker_0, # of connection points: 2
#     Edge 93, Type (0, 0), BuildingBlock: AJUNOK_clean_linker_0, # of connection points: 2
#     Edge 94, Type (0, 0), BuildingBlock: AJUNOK_clean_linker_0, # of connection points: 2
#     Edge 95, Type (0, 0), BuildingBlock: AJUNOK_clean_linker_0, # of connection points: 2
#     Edge 96, Type (0, 0), BuildingBlock: AJUNOK_clean_linker_0, # of connection points: 2
#     Edge 97, Type (0, 0), BuildingBlock: AJUNOK_clean_linker_0, # of connection points: 2
#     Edge 98, Type (0, 0), BuildingBlock: AJUNOK_clean_linker_0, # of connection points: 2
#     Edge 99, Type (0, 0), BuildingBlock: AJUNOK_clean_linker_0, # of connection points: 2
#     Edge 100, Type (0, 0), BuildingBlock: AJUNOK_clean_linker_0, # of connection points: 2
#     Edge 101, Type (0, 0), BuildingBlock: AJUNOK_clean_linker_0, # of connection points: 2
#     Edge 102, Type (0, 0), BuildingBlock: AJUNOK_clean_linker_0, # of connection points: 2
#     Edge 103, Type (0, 0), BuildingBlock: AJUNOK_clean_linker_0, # of connection points: 2
#     Edge 104, Type (0, 0), BuildingBlock: AJUNOK_clean_linker_0, # of connection points: 2
#     Edge 105, Type (0, 0), BuildingBlock: AJUNOK_clean_linker_0, # of connection points: 2
#     Edge 106, Type (0, 0), BuildingBlock: AJUNOK_clean_linker_0, # of connection points: 2
#     Edge 107, Type (0, 0), BuildingBlock: AJUNOK_clean_linker_0, # of connection points: 2
#     Edge 108, Type (0, 0), BuildingBlock: AJUNOK_clean_linker_0, # of connection points: 2
#     Edge 109, Type (0, 0), BuildingBlock: AJUNOK_clean_linker_0, # of connection points: 2
#     Edge 110, Type (0, 0), BuildingBlock: AJUNOK_clean_linker_0, # of connection points: 2
#     Edge 111, Type (0, 0), BuildingBlock: AJUNOK_clean_linker_0, # of connection points: 2
# Relax obj value: 0.158
# Max RMSD: 0.151
# Mean RMSD: 0.151
data_MOF--net-wge--node1-XOMCOT_clean_sbu_1--edge1-AJUNOK_clean_linker_0
_symmetry_space_group_name_H-M    P1
_symmetry_Int_Tables_number       1
_symmetry_cell_setting            triclinic
loop_
_symmetry_equiv_pos_as_xyz
'x, y, z'
_cell_length_a     51.872831
_cell_length_b     51.925408
_cell_length_c     31.515825
_cell_angle_alpha  90.055086
_cell_angle_beta   90.022613
_cell_angle_gamma 90.297983
loop_
_atom_site_label
_atom_site_type_symbol
_atom_site_fract_x
_atom_site_fract_y
_atom_site_fract_z
_atom_type_partial_charge
C0 C 0.19339 0.13949 0.0306 0.0
C1 C 0.17755 0.13671 0.99595 0.0
N2 N 0.18945 0.1211 0.96823 0.0
N3 N 0.21514 0.12584 0.02428 0.0
C4 C 0.212 0.11455 0.98615 0.0
H5 H 0.18989 0.15176 0.05771 0.0
Co6 Co 0.24378 0.12784 0.05866 0.0
C7 C 0.28833 0.11771 0.99977 0.0
O8 O 0.30117 0.13611 0.01907 0.0
N9 N 0.27275 0.13069 0.09566 0.0
C10 C 0.29775 0.15091 0.14263 0.0
C11 C 0.28805 0.15152 0.10224 0.0
C12 C 0.27555 0.11687 0.13159 0.0
N13 N 0.28926 0.12928 0.1617 0.0
O14 O 0.2348 0.09382 0.08286 0.0
H15 H 0.28988 0.16786 0.08127 0.0
H16 H 0.2657 0.09907 0.1376 0.0
O17 O 0.26555 0.11203 0.01267 0.0
C18 C 0.21783 0.09765 0.11185 0.0
O19 O 0.21057 0.12149 0.11873 0.0
N20 N 0.24872 0.16205 0.0393 0.0
C21 C 0.24807 0.21529 0.02446 0.0
C22 C 0.25621 0.19809 0.99266 0.0
C23 C 0.25588 0.17135 1.00043 0.0
C24 C 0.2399 0.17852 0.06967 0.0
C25 C 0.23971 0.20503 0.06319 0.0
H26 H 0.26072 0.15832 0.97498 0.0
H27 H 0.2331 0.17086 0.09958 0.0
H28 H 0.22647 0.10303 0.97047 0.0
H29 H 0.15922 0.14607 0.9908 0.0
H30 H 0.30724 0.16699 0.15797 0.0
H31 H 0.26201 0.20518 0.96179 0.0
H32 H 0.23309 0.21746 0.08853 0.0
C33 C 0.15328 0.94454 0.28306 0.0
C34 C 0.15754 0.92927 0.24807 0.0
N35 N 0.17201 0.94276 0.22033 0.0
N36 N 0.16514 0.96746 0.27739 0.0
C37 C 0.17603 0.96585 0.23878 0.0
H38 H 0.14182 0.93946 0.31049 0.0
Co39 Co 0.16499 0.99532 0.31423 0.0
C40 C 0.17243 0.03871 0.25055 0.0
O41 O 0.15137 0.04959 0.26464 0.0
N42 N 0.16463 0.02334 0.35305 0.0
C43 C 0.15027 0.05395 0.39671 0.0
C44 C 0.14861 0.04379 0.35648 0.0
C45 C 0.17616 0.02227 0.39139 0.0
N46 N 0.16758 0.04015 0.41856 0.0
O47 O 0.19951 0.98519 0.33516 0.0
H48 H 0.1337 0.04878 0.33417 0.0
H49 H 0.18776 1.00649 0.40205 0.0
O50 O 0.18037 1.01799 0.26842 0.0
C51 C 0.19677 0.96615 0.36085 0.0
O52 O 0.17325 0.9577 0.36785 0.0
N53 N 0.13029 1.00163 0.29825 0.0
C54 C 0.07673 1.00037 0.28567 0.0
C55 C 0.09364 1.00367 0.25121 0.0
C56 C 0.12048 1.00369 0.25807 0.0
C57 C 0.11401 0.99801 0.33172 0.0
C58 C 0.08735 0.99795 0.32633 0.0
H59 H 0.13327 1.00439 0.23104 0.0
H60 H 0.12185 0.99458 0.36301 0.0
H61 H 0.18559 0.9818 0.2235 0.0
H62 H 0.15028 0.90991 0.24324 0.0
H63 H 0.13741 0.06807 0.41038 0.0
H64 H 0.08622 1.00507 0.21917 0.0
H65 H 0.07512 0.99542 0.35388 0.0
C66 C 0.352 0.91673 0.52849 0.0
C67 C 0.36487 0.91842 0.49047 0.0
N68 N 0.34763 0.9153 0.45891 0.0
N69 N 0.32665 0.9128 0.52097 0.0
C70 C 0.32481 0.91153 0.47837 0.0
H71 H 0.36084 0.91857 0.55933 0.0
Co72 Co 0.29905 0.90998 0.55859 0.0
C73 C 0.25297 0.92755 0.50581 0.0
O74 O 0.23698 0.91407 0.52922 0.0
N75 N 0.27108 0.90653 0.59799 0.0
C76 C 0.24408 0.8864 0.64236 0.0
C77 C 0.25416 0.88667 0.60203 0.0
C78 C 0.26942 0.91871 0.63587 0.0
N79 N 0.2542 0.90638 0.66384 0.0
O80 O 0.30956 0.94269 0.58553 0.0
H81 H 0.25093 0.87168 0.57883 0.0
H82 H 0.28127 0.93474 0.64527 0.0
O83 O 0.27701 0.92796 0.51528 0.0
C84 C 0.32555 0.93677 0.61505 0.0
O85 O 0.33065 0.91218 0.62023 0.0
N86 N 0.29209 0.8767 0.53674 0.0
C87 C 0.28526 0.82401 0.52204 0.0
C88 C 0.27527 0.84217 0.49354 0.0
C89 C 0.27893 0.86863 0.50148 0.0
C90 C 0.30306 0.85913 0.56318 0.0
C91 C 0.29963 0.83279 0.55677 0.0
H92 H 0.2711 0.88233 0.47949 0.0
H93 H 0.31381 0.86574 0.59052 0.0
H94 H 0.307 0.90758 0.46203 0.0
H95 H 0.38523 0.92234 0.48645 0.0
H96 H 0.23239 0.87121 0.65605 0.0
H97 H 0.26428 0.836 0.4661 0.0
H98 H 0.30783 0.81932 0.57922 0.0
C99 C 0.39988 0.08385 0.77721 0.0
C100 C 0.39876 0.09792 0.74032 0.0
N101 N 0.37891 0.0888 0.71717 0.0
N102 N 0.38079 0.06612 0.77686 0.0
C103 C 0.36801 0.06999 0.7404 0.0
H104 H 0.41427 0.08564 0.8019 0.0
Co105 Co 0.37604 0.04047 0.8159 0.0
C106 C 0.36395 0.9952 0.7614 0.0
O107 O 0.38053 0.98239 0.78473 0.0
N108 N 0.37088 1.0158 0.85725 0.0
C109 C 0.34939 0.99273 0.90536 0.0
C110 C 0.3524 0.99757 0.86253 0.0
C111 C 0.37807 0.02205 0.89684 0.0
N112 N 0.36581 1.00822 0.92651 0.0
O113 O 0.34336 0.05557 0.83429 0.0
H114 H 0.33956 0.99072 0.83795 0.0
H115 H 0.3889 0.0393 0.90428 0.0
O116 O 0.3589 1.01857 0.77142 0.0
C117 C 0.34787 0.07397 0.86042 0.0
O118 O 0.3719 0.08162 0.86507 0.0
N119 N 0.40979 0.02761 0.80169 0.0
C120 C 0.46244 1.01855 0.78532 0.0
C121 C 0.44417 1.01778 0.75237 0.0
C122 C 0.41801 0.02269 0.76111 0.0
C123 C 0.4276 0.02893 0.83354 0.0
C124 C 0.45364 0.02407 0.82628 0.0
H125 H 0.40463 0.02364 0.73488 0.0
H126 H 0.42231 0.03544 0.86457 0.0
H127 H 0.35128 0.05896 0.73066 0.0
H128 H 0.41209 0.11285 0.73042 0.0
H129 H 0.33482 0.98059 0.91983 0.0
H130 H 0.45005 1.01391 0.72004 0.0
H131 H 0.46704 0.02594 0.8525 0.0
C132 C 0.19212 0.91222 0.97892 0.0
C133 C 0.1787 0.91534 0.0162 0.0
N134 N 0.19591 0.91871 0.04765 0.0
N135 N 0.21766 0.91376 0.98695 0.0
C136 C 0.21926 0.91708 0.02924 0.0
H137 H 0.18356 0.90929 0.94807 0.0
Co138 Co 0.2447 0.91238 0.94845 0.0
C139 C 0.29166 0.92566 1.00139 0.0
O140 O 0.30428 0.90748 0.98126 0.0
N141 N 0.27117 0.91142 0.90808 0.0
C142 C 0.29534 0.93056 0.85882 0.0
C143 C 0.28868 0.93035 0.901 0.0
C144 C 0.26782 0.90035 0.86968 0.0
N145 N 0.28155 0.91213 0.83904 0.0
O146 O 0.2338 0.94527 0.92249 0.0
H147 H 0.29323 0.94571 0.92294 0.0
H148 H 0.25227 0.88714 0.86258 0.0
O149 O 0.26807 0.93005 0.9913 0.0
C150 C 0.21962 0.93862 0.89084 0.0
O151 O 0.21332 0.91417 0.88795 0.0
N152 N 0.2525 0.87854 0.96832 0.0
C153 C 0.25404 0.82545 0.98614 0.0
C154 C 0.26485 0.84348 0.01442 0.0
C155 C 0.26333 0.87007 1.00543 0.0
C156 C 0.24144 0.86113 0.94141 0.0
C157 C 0.24234 0.83473 0.94923 0.0
H158 H 0.27 0.88353 0.02911 0.0
H159 H 0.23081 0.86781 0.91421 0.0
H160 H 0.23723 0.91793 0.04647 0.0
H161 H 0.15795 0.91579 0.01974 0.0
H162 H 0.30688 0.94516 0.84318 0.0
H163 H 0.27347 0.83715 0.04389 0.0
H164 H 0.23347 0.82164 0.92669 0.0
C165 C 0.39661 0.94386 0.22979 0.0
C166 C 0.39252 0.92637 0.26197 0.0
N167 N 0.37295 0.93501 0.28614 0.0
N168 N 0.37988 0.96346 0.2342 0.0
C169 C 0.36571 0.95745 0.26851 0.0
H170 H 0.41137 0.94285 0.20561 0.0
Co171 Co 0.37785 0.9929 0.20171 0.0
C172 C 0.36642 0.03324 0.26649 0.0
O173 O 0.38468 0.04711 0.24861 0.0
N174 N 0.37499 0.02177 0.16722 0.0
C175 C 0.3527 0.04838 0.12576 0.0
C176 C 0.35603 0.03961 0.16665 0.0
C177 C 0.38259 0.0201 0.12655 0.0
N178 N 0.36953 0.03593 0.10081 0.0
O179 O 0.34546 0.98048 0.17554 0.0
H180 H 0.34263 0.04308 0.19221 0.0
H181 H 0.39374 1.00418 0.11446 0.0
O182 O 0.36016 1.01144 0.24998 0.0
C183 C 0.35222 0.9663 0.14402 0.0
O184 O 0.37659 0.95969 0.14185 0.0
N185 N 0.41148 1.00296 0.22199 0.0
C186 C 0.46368 1.01105 0.24337 0.0
C187 C 0.44495 1.00759 0.27513 0.0
C188 C 0.41897 1.00326 0.26374 0.0
C189 C 0.42987 1.00513 0.19122 0.0
C190 C 0.45567 1.00971 0.20106 0.0
H191 H 0.40505 0.99943 0.28847 0.0
H192 H 0.42514 1.00195 0.15856 0.0
H193 H 0.35134 0.97004 0.28185 0.0
H194 H 0.40359 0.90914 0.26795 0.0
H195 H 0.33719 0.06048 0.11455 0.0
H196 H 0.45032 1.00793 0.30833 0.0
H197 H 0.46953 1.01106 0.17542 0.0
C198 C 0.34387 0.14212 0.49291 0.0
C199 C 0.3589 0.1391 0.52832 0.0
N200 N 0.34874 0.11979 0.55141 0.0
N201 N 0.32428 0.12496 0.49416 0.0
C202 C 0.32778 0.1115 0.53008 0.0
H203 H 0.34665 0.15625 0.4681 0.0
Co204 Co 0.2989 0.1235 0.45387 0.0
C205 C 0.25232 0.11467 0.50923 0.0
O206 O 0.24191 0.1356 0.4935 0.0
N207 N 0.27488 0.12229 0.41072 0.0
C208 C 0.24586 0.11921 0.35915 0.0
C209 C 0.24962 0.11836 0.40254 0.0
C210 C 0.28585 0.1245 0.37236 0.0
N211 N 0.26888 0.12332 0.34032 0.0
O212 O 0.31058 0.08935 0.43467 0.0
H213 H 0.23491 0.11417 0.42569 0.0
H214 H 0.3064 0.12622 0.36861 0.0
O215 O 0.27455 0.1075 0.49603 0.0
C216 C 0.33193 0.08932 0.41419 0.0
O217 O 0.34578 0.11056 0.41382 0.0
N218 N 0.28947 0.15805 0.46863 0.0
C219 C 0.2862 0.21124 0.48425 0.0
C220 C 0.2836 0.19348 0.51754 0.0
C221 C 0.28582 0.16692 0.50918 0.0
C222 C 0.29204 0.17533 0.43623 0.0
C223 C 0.29024 0.20178 0.44325 0.0
H224 H 0.28563 0.1536 0.53552 0.0
H225 H 0.29706 0.1689 0.40483 0.0
H226 H 0.31477 0.0966 0.54114 0.0
H227 H 0.37578 0.15033 0.53676 0.0
H228 H 0.22765 0.11667 0.34287 0.0
H229 H 0.28117 0.20009 0.54988 0.0
H230 H 0.2929 0.21485 0.41681 0.0
C231 C 0.14279 0.09231 0.73672 0.0
C232 C 0.14481 0.10691 0.77295 0.0
N233 N 0.16376 0.09693 0.797 0.0
N234 N 0.16019 0.07316 0.73833 0.0
C235 C 0.17292 0.07666 0.77507 0.0
H236 H 0.12851 0.09452 0.71198 0.0
Co237 Co 0.16151 0.04614 0.70074 0.0
C238 C 0.17357 1.00128 0.7564 0.0
O239 O 0.15426 0.98922 0.73793 0.0
N240 N 0.16307 0.01982 0.66074 0.0
C241 C 0.18326 0.99504 0.61364 0.0
C242 C 0.18089 1.00106 0.65604 0.0
C243 C 0.15519 0.0248 0.62091 0.0
N244 N 0.1672 1.01034 0.59184 0.0
O245 O 0.19436 0.05866 0.67715 0.0
H246 H 0.19426 0.99492 0.68023 0.0
H247 H 0.14467 0.0419 0.61229 0.0
O248 O 0.17921 0.02427 0.7446 0.0
C249 C 0.18881 0.07497 0.64805 0.0
O250 O 0.1651 0.0837 0.64719 0.0
N251 N 0.12759 0.03612 0.7191 0.0
C252 C 0.07464 0.03371 0.73856 0.0
C253 C 0.09329 0.02938 0.77011 0.0
C254 C 0.11976 0.0312 0.75989 0.0
C255 C 0.10943 0.04053 0.68868 0.0
C256 C 0.08317 0.03898 0.69742 0.0
H257 H 0.13377 0.03003 0.78518 0.0
H258 H 0.11498 0.04738 0.65794 0.0
H259 H 0.18791 0.06403 0.78645 0.0
H260 H 0.13217 0.12247 0.78207 0.0
H261 H 0.19764 0.98258 0.59972 0.0
H262 H 0.08752 0.02605 0.80267 0.0
H263 H 0.06953 0.04308 0.67229 0.0
C264 C 0.8463 0.91835 0.97543 0.0
C265 C 0.86114 0.91817 0.01151 0.0
N266 N 0.84535 0.91564 0.04521 0.0
N267 N 0.82124 0.91645 0.98636 0.0
C268 C 0.82132 0.91469 0.02897 0.0
H269 H 0.85347 0.92034 0.94346 0.0
Co270 Co 0.79307 0.91659 0.95054 0.0
C271 C 0.74789 0.92808 1.00606 0.0
O272 O 0.73544 0.91028 0.98441 0.0
N273 N 0.76525 0.91724 0.91287 0.0
C274 C 0.74091 0.93802 0.86611 0.0
C275 C 0.74928 0.93749 0.90742 0.0
C276 C 0.7658 0.90562 0.87465 0.0
N277 N 0.75184 0.91825 0.84537 0.0
O278 O 0.80392 0.95015 0.92671 0.0
H279 H 0.74721 0.95325 0.9296 0.0
H280 H 0.77994 0.89137 0.86613 0.0
O281 O 0.77151 0.93298 0.99662 0.0
C282 C 0.81592 0.94463 0.89223 0.0
O283 O 0.82029 0.92016 0.88455 0.0
N284 N 0.78518 0.88212 0.96804 0.0
C285 C 0.7805 0.82853 0.97894 0.0
C286 C 0.77191 0.8456 0.01049 0.0
C287 C 0.77468 0.87241 1.00466 0.0
C288 C 0.79537 0.86555 0.93904 0.0
C289 C 0.79285 0.83894 0.94336 0.0
H290 H 0.76881 0.885 0.03004 0.0
H291 H 0.80617 0.87305 0.9125 0.0
H292 H 0.80403 0.91299 0.04788 0.0
H293 H 0.88181 0.92094 0.01266 0.0
H294 H 0.7307 0.95372 0.85119 0.0
H295 H 0.76309 0.83832 0.03924 0.0
H296 H 0.80098 0.82652 0.91923 0.0
C297 C 0.89436 0.09907 0.73903 0.0
C298 C 0.89006 0.1146 0.77372 0.0
N299 N 0.87042 0.10436 0.79613 0.0
N300 N 0.87767 0.0791 0.74009 0.0
C301 C 0.86331 0.08293 0.77495 0.0
H302 H 0.90914 0.10171 0.7152 0.0
Co303 Co 0.87623 0.052 0.70253 0.0
C304 C 0.86371 1.00778 0.76082 0.0
O305 O 0.88293 0.99487 0.74411 0.0
N306 N 0.87446 0.02579 0.66263 0.0
C307 C 0.85876 0.99699 0.61699 0.0
C308 C 0.85986 1.00424 0.65902 0.0
C309 C 0.88122 0.03149 0.62254 0.0
N310 N 0.87225 1.01433 0.59423 0.0
O311 O 0.84341 0.06436 0.67963 0.0
H312 H 0.84805 0.996 0.68375 0.0
H313 H 0.88951 0.04984 0.61365 0.0
O314 O 0.8584 0.03025 0.74651 0.0
C315 C 0.8474 0.08251 0.65286 0.0
O316 O 0.87092 0.09183 0.64974 0.0
N317 N 0.90999 0.0419 0.72064 0.0
C318 C 0.9628 0.03707 0.73937 0.0
C319 C 0.94417 0.03457 0.77149 0.0
C320 C 0.91781 0.03761 0.76159 0.0
C321 C 0.92813 0.04464 0.68959 0.0
C322 C 0.95434 0.04196 0.69806 0.0
H323 H 0.9039 0.03763 0.78712 0.0
H324 H 0.92265 0.05056 0.65824 0.0
H325 H 0.84873 0.06957 0.78572 0.0
H326 H 0.90094 0.13165 0.78237 0.0
H327 H 0.84711 0.98154 0.6039 0.0
H328 H 0.94998 0.0316 0.80412 0.0
H329 H 0.96805 0.04464 0.67248 0.0
C330 C 0.69034 0.13728 0.48351 0.0
C331 C 0.67485 0.13155 0.5177 0.0
N332 N 0.68879 0.11761 0.54537 0.0
N333 N 0.71386 0.12704 0.48985 0.0
C334 C 0.71238 0.11545 0.52792 0.0
H335 H 0.68488 0.1484 0.45598 0.0
Co336 Co 0.74139 0.12905 0.45297 0.0
C337 C 0.78734 0.1201 0.50908 0.0
O338 O 0.79913 0.13887 0.48878 0.0
N339 N 0.76833 0.1307 0.41385 0.0
C340 C 0.79364 0.11182 0.36624 0.0
C341 C 0.78675 0.11267 0.40831 0.0
C342 C 0.76473 0.14064 0.37478 0.0
N343 N 0.77939 0.1292 0.34518 0.0
O344 O 0.73219 0.09543 0.42834 0.0
H345 H 0.79167 0.09803 0.43122 0.0
H346 H 0.74827 0.15215 0.36637 0.0
O347 O 0.7646 0.11338 0.4972 0.0
C348 C 0.71714 0.10063 0.39723 0.0
O349 O 0.70924 0.12452 0.39365 0.0
N350 N 0.7477 0.16336 0.4722 0.0
C351 C 0.74927 0.21648 0.48922 0.0
C352 C 0.75743 0.1986 0.51981 0.0
C353 C 0.75578 0.17201 0.51112 0.0
C354 C 0.73842 0.18059 0.44347 0.0
C355 C 0.73943 0.20702 0.45089 0.0
H356 H 0.76019 0.15862 0.53621 0.0
H357 H 0.72896 0.17382 0.41516 0.0
H358 H 0.72849 0.10629 0.54333 0.0
H359 H 0.65497 0.13721 0.52191 0.0
H360 H 0.80535 0.09711 0.35151 0.0
H361 H 0.76408 0.20507 0.55062 0.0
H362 H 0.73214 0.22 0.42686 0.0
C363 C 0.64013 0.94851 0.23985 0.0
C364 C 0.64301 0.9328 0.27457 0.0
N365 N 0.66349 0.94129 0.29692 0.0
N366 N 0.65853 0.96692 0.24078 0.0
C367 C 0.67263 0.96187 0.2756 0.0
H368 H 0.62502 0.94726 0.21625 0.0
Co369 Co 0.66082 0.99413 0.20353 0.0
C370 C 0.67422 0.03807 0.26024 0.0
O371 O 0.65554 0.05078 0.24155 0.0
N372 N 0.6635 0.02051 0.16374 0.0
C373 C 0.68402 0.04566 0.11731 0.0
C374 C 0.68141 0.03941 0.15959 0.0
C375 C 0.65594 1.01555 0.12366 0.0
N376 N 0.66804 0.03033 0.095 0.0
O377 O 0.69312 0.98074 0.17964 0.0
H378 H 0.69458 0.04563 0.18412 0.0
H379 H 0.64521 0.99846 0.11482 0.0
O380 O 0.67935 1.01514 0.24775 0.0
C381 C 0.68725 0.96412 0.15109 0.0
O382 O 0.66349 0.95525 0.15096 0.0
N383 N 0.62747 1.00546 0.22255 0.0
C384 C 0.57531 1.01311 0.24368 0.0
C385 C 0.5943 1.01202 0.27547 0.0
C386 C 0.62032 1.0081 0.26423 0.0
C387 C 0.60889 1.00574 0.19186 0.0
C388 C 0.58308 1.01009 0.20153 0.0
H389 H 0.63451 1.00616 0.28914 0.0
H390 H 0.61347 1.0011 0.15963 0.0
H391 H 0.68852 0.97376 0.28624 0.0
H392 H 0.63065 0.9168 0.28333 0.0
H393 H 0.69847 0.05833 0.10377 0.0
H394 H 0.58905 1.01378 0.30859 0.0
H395 H 0.56901 1.00981 0.1761 0.0
C396 C 0.84431 0.11621 0.03877 0.0
C397 C 0.85813 0.11527 1.00158 0.0
N398 N 0.84176 0.11926 0.96907 0.0
N399 N 0.81932 0.12064 0.02964 0.0
C400 C 0.81853 0.12288 0.98713 0.0
H401 H 0.85202 0.11314 0.07017 0.0
Co402 Co 0.79141 0.12125 0.06608 0.0
C403 C 0.74646 0.10875 0.00952 0.0
O404 O 0.73303 0.12556 0.03142 0.0
N405 N 0.76382 0.1214 0.10421 0.0
C406 C 0.73752 0.1033 0.15139 0.0
C407 C 0.74656 0.10219 0.11045 0.0
C408 C 0.76481 0.13384 0.14174 0.0
N409 N 0.74949 0.12297 0.17129 0.0
O410 O 0.8016 0.0879 0.0903 0.0
H411 H 0.74351 0.08619 0.08901 0.0
H412 H 0.7798 0.14749 0.1497 0.0
O413 O 0.76985 0.10442 0.02052 0.0
C414 C 0.81407 0.09317 0.12443 0.0
O415 O 0.81952 0.1175 0.1318 0.0
N416 N 0.78384 0.15563 0.04767 0.0
C417 C 0.77814 0.20904 0.03662 0.0
C418 C 0.76895 0.19168 1.00591 0.0
C419 C 0.77214 0.16499 0.01185 0.0
C420 C 0.79464 0.17255 0.07573 0.0
C421 C 0.79161 0.1991 0.07137 0.0
H422 H 0.76553 0.15228 0.9871 0.0
H423 H 0.80601 0.16535 0.1018 0.0
H424 H 0.80113 0.12704 0.96985 0.0
H425 H 0.87846 0.11102 0.99868 0.0
H426 H 0.72573 0.08879 0.16676 0.0
H427 H 0.75916 0.19864 0.97785 0.0
H428 H 0.79999 0.21185 0.09493 0.0
C429 C 0.65642 0.09034 0.78389 0.0
C430 C 0.65877 0.10432 0.74703 0.0
N431 N 0.66346 0.08779 0.71505 0.0
N432 N 0.65983 0.06513 0.7752 0.0
C433 C 0.66339 0.06425 0.73288 0.0
H434 H 0.65293 0.09832 0.81498 0.0
Co435 Co 0.66157 0.03777 0.81319 0.0
C436 C 0.67392 0.99349 0.75545 0.0
O437 O 0.65668 0.97969 0.776 0.0
N438 N 0.66394 1.01099 0.85279 0.0
C439 C 0.68546 0.98615 0.89817 0.0
C440 C 0.68292 0.99333 0.85634 0.0
C441 C 0.65533 1.01397 0.89284 0.0
N442 N 0.66847 0.9998 0.92113 0.0
O443 O 0.69451 0.05085 0.83568 0.0
H444 H 0.69666 0.98871 0.83179 0.0
H445 H 0.6429 0.02946 0.90251 0.0
O446 O 0.67899 1.01641 0.76832 0.0
C447 C 0.68863 0.06553 0.86695 0.0
O448 O 0.66404 0.06955 0.87416 0.0
N449 N 0.62757 0.02745 0.79611 0.0
C450 C 0.57454 0.01955 0.78221 0.0
C451 C 0.59245 1.01524 0.74959 0.0
C452 C 0.61891 0.01961 0.75703 0.0
C453 C 0.61001 0.03328 0.8268 0.0
C454 C 0.58371 0.02887 0.82104 0.0
H455 H 0.63208 1.01736 0.7309 0.0
H456 H 0.61618 0.04267 0.8555 0.0
H457 H 0.6656 0.04662 0.71525 0.0
H458 H 0.65791 0.12507 0.74426 0.0
H459 H 0.70036 0.97393 0.91099 0.0
H460 H 0.58608 1.00876 0.71863 0.0
H461 H 0.57048 0.03366 0.84642 0.0
C462 C 0.69725 0.88875 0.52327 0.0
C463 C 0.68316 0.89114 0.48651 0.0
N464 N 0.69342 0.91058 0.46373 0.0
N465 N 0.71621 0.90661 0.52335 0.0
C466 C 0.713 0.91999 0.48722 0.0
H467 H 0.69462 0.87424 0.5475 0.0
Co468 Co 0.74271 0.90907 0.56199 0.0
C469 C 0.78793 0.91861 0.50525 0.0
O470 O 0.80047 0.90118 0.52724 0.0
N471 N 0.76858 0.91194 0.60253 0.0
C472 C 0.79539 0.93093 0.64824 0.0
C473 C 0.78823 0.92905 0.6062 0.0
C474 C 0.76392 0.90432 0.64258 0.0
N475 N 0.77999 0.91518 0.67082 0.0
O476 O 0.73035 0.94245 0.58164 0.0
H477 H 0.7947 0.9419 0.58142 0.0
H478 H 0.74644 0.89452 0.65203 0.0
O479 O 0.76512 0.92483 0.5169 0.0
C480 C 0.71248 0.93834 0.6089 0.0
O481 O 0.70422 0.91457 0.61387 0.0
N482 N 0.75264 0.87473 0.54722 0.0
C483 C 0.76041 0.82174 0.53453 0.0
C484 C 0.76318 0.83922 0.50078 0.0
C485 C 0.75877 0.86566 0.50763 0.0
C486 C 0.74801 0.85755 0.57904 0.0
C487 C 0.75218 0.8313 0.57372 0.0
H488 H 0.75956 0.8786 0.48084 0.0
H489 H 0.73952 0.86381 0.60829 0.0
H490 H 0.72505 0.93607 0.47794 0.0
H491 H 0.66742 0.87883 0.4764 0.0
H492 H 0.80893 0.94466 0.66159 0.0
H493 H 0.76838 0.83251 0.4694 0.0
H494 H 0.74799 0.81841 0.59987 0.0
C495 C 0.89416 0.93774 0.27873 0.0
C496 C 0.89114 0.922 0.24395 0.0
N497 N 0.87373 0.93291 0.21791 0.0
N498 N 0.87853 0.95826 0.27472 0.0
C499 C 0.86621 0.95466 0.23762 0.0
H500 H 0.90728 0.93471 0.30492 0.0
Co501 Co 0.87655 0.98575 0.31188 0.0
C502 C 0.86592 0.02617 0.24374 0.0
O503 O 0.889 0.03629 0.24769 0.0
N504 N 0.8743 1.01273 0.35055 0.0
C505 C 0.87493 0.04869 0.3892 0.0
C506 C 0.87711 0.03864 0.34877 0.0
C507 C 0.87042 1.00767 0.39188 0.0
N508 N 0.87038 0.02897 0.41572 0.0
O509 O 0.8431 0.97298 0.33312 0.0
H510 H 0.88154 0.0496 0.32075 0.0
H511 H 0.8693 0.98853 0.40506 0.0
O512 O 0.85897 1.00731 0.26754 0.0
C513 C 0.84641 0.95382 0.35816 0.0
O514 O 0.86987 0.94468 0.36177 0.0
N515 N 0.91081 0.99581 0.29597 0.0
C516 C 0.96438 0.99898 0.28364 0.0
C517 C 0.94763 0.99649 0.2489 0.0
C518 C 0.92089 0.99439 0.2558 0.0
C519 C 0.92711 0.99838 0.3298 0.0
C520 C 0.95373 1.00035 0.32432 0.0
H521 H 0.9084 0.9907 0.22898 0.0
H522 H 0.91977 0.99735 0.36179 0.0
H523 H 0.85273 0.96825 0.22432 0.0
H524 H 0.90108 0.90405 0.23844 0.0
H525 H 0.87724 0.06864 0.39854 0.0
H526 H 0.95521 0.99477 0.21702 0.0
H527 H 0.96605 1.00179 0.35201 0.0
C528 C 0.6891 0.62331 0.5361 0.0
C529 C 0.67498 0.62277 0.49913 0.0
N530 N 0.69156 0.62281 0.46623 0.0
N531 N 0.71443 0.62325 0.52649 0.0
C532 C 0.71523 0.62314 0.48378 0.0
H533 H 0.68125 0.62323 0.56782 0.0
Co534 Co 0.74215 0.62285 0.56352 0.0
C535 C 0.78691 0.61075 0.50716 0.0
O536 O 0.80047 0.62785 0.52854 0.0
N537 N 0.76941 0.6221 0.60222 0.0
C538 C 0.79594 0.60359 0.6484 0.0
C539 C 0.78678 0.60303 0.60747 0.0
C540 C 0.76838 0.63376 0.64039 0.0
N541 N 0.78397 0.62276 0.6692 0.0
O542 O 0.73098 0.58958 0.5862 0.0
H543 H 0.78994 0.58749 0.58526 0.0
H544 H 0.7533 0.64693 0.64925 0.0
O545 O 0.76362 0.60608 0.51848 0.0
C546 C 0.71724 0.59383 0.61925 0.0
O547 O 0.71239 0.61784 0.62953 0.0
N548 N 0.75081 0.65701 0.54582 0.0
C549 C 0.75803 0.71004 0.53343 0.0
C550 C 0.76508 0.6924 0.50184 0.0
C551 C 0.76104 0.66589 0.50844 0.0
C552 C 0.74184 0.67429 0.57481 0.0
C553 C 0.7458 0.70069 0.56986 0.0
H554 H 0.76574 0.65289 0.48299 0.0
H555 H 0.7309 0.66758 0.60173 0.0
H556 H 0.73288 0.62313 0.46563 0.0
H557 H 0.65421 0.62132 0.49693 0.0
H558 H 0.8079 0.58905 0.66303 0.0
H559 H 0.77371 0.69902 0.47249 0.0
H560 H 0.73891 0.71378 0.59409 0.0
C561 C 0.66097 0.4361 0.7907 0.0
C562 C 0.66342 0.42084 0.75518 0.0
N563 N 0.66762 0.43642 0.72187 0.0
N564 N 0.66403 0.46106 0.77962 0.0
C565 C 0.66779 0.46055 0.73731 0.0
H566 H 0.65708 0.4293 0.82243 0.0
Co567 Co 0.66306 0.48949 0.81521 0.0
C568 C 0.67307 0.53345 0.7559 0.0
O569 O 0.65418 0.54579 0.77471 0.0
N570 N 0.66256 0.51761 0.8526 0.0
C571 C 0.68109 0.54598 0.89621 0.0
C572 C 0.68032 0.53674 0.85538 0.0
C573 C 0.65285 0.51583 0.8922 0.0
N574 N 0.66433 0.53215 0.91956 0.0
O575 O 0.69653 0.48007 0.83994 0.0
H576 H 0.69464 0.54114 0.83158 0.0
H577 H 0.64104 0.49993 0.9028 0.0
O578 O 0.6795 0.51113 0.76964 0.0
C579 C 0.69125 0.46706 0.87346 0.0
O580 O 0.66699 0.46098 0.88021 0.0
N581 N 0.62871 0.49614 0.79616 0.0
C582 C 0.57544 0.49807 0.78031 0.0
C583 C 0.59321 0.50526 0.74884 0.0
C584 C 0.61986 0.50341 0.75697 0.0
C585 C 0.61148 0.48809 0.82606 0.0
C586 C 0.58496 0.48925 0.81915 0.0
H587 H 0.63308 0.50708 0.73125 0.0
H588 H 0.6183 0.47953 0.85503 0.0
H589 H 0.67084 0.47742 0.71783 0.0
H590 H 0.66192 0.40006 0.75378 0.0
H591 H 0.69514 0.55948 0.90871 0.0
H592 H 0.58658 0.51125 0.71781 0.0
H593 H 0.57193 0.48277 0.84385 0.0
C594 C 0.84307 0.38687 0.02654 0.0
C595 C 0.85772 0.38827 0.99025 0.0
N596 N 0.84852 0.40762 0.96638 0.0
N597 N 0.82466 0.40511 0.02517 0.0
C598 C 0.82882 0.41778 0.98848 0.0
H599 H 0.84511 0.37285 0.05165 0.0
Co600 Co 0.79782 0.40812 0.06344 0.0
C601 C 0.7529 0.42221 0.00813 0.0
O602 O 0.73869 0.4054 0.02885 0.0
N603 N 0.77156 0.41136 0.1037 0.0
C604 C 0.74608 0.43186 0.14933 0.0
C605 C 0.75398 0.43037 0.10776 0.0
C606 C 0.77422 0.40206 0.14339 0.0
N607 N 0.75907 0.4141 0.17168 0.0
O608 O 0.81126 0.44094 0.08464 0.0
H609 H 0.74982 0.44471 0.08394 0.0
H610 H 0.79003 0.38998 0.15297 0.0
O611 O 0.77655 0.42546 0.01876 0.0
C612 C 0.82667 0.43524 0.11493 0.0
O613 O 0.83439 0.41123 0.11738 0.0
N614 N 0.78665 0.37431 0.04788 0.0
C615 C 0.77797 0.32119 0.03702 0.0
C616 C 0.77249 0.33867 1.00414 0.0
C617 C 0.77732 0.36524 0.01001 0.0
C618 C 0.79373 0.35721 0.07847 0.0
C619 C 0.78925 0.3309 0.07408 0.0
H620 H 0.77427 0.37819 0.98372 0.0
H621 H 0.80436 0.36379 0.10576 0.0
H622 H 0.81705 0.43348 0.97721 0.0
H623 H 0.87358 0.37583 0.98173 0.0
H624 H 0.73406 0.44676 0.16285 0.0
H625 H 0.76477 0.33188 0.97421 0.0
H626 H 0.79544 0.31809 0.09919 0.0
C627 C 0.88208 0.59601 0.28354 0.0
C628 C 0.88019 0.6116 0.24847 0.0
N629 N 0.87123 0.59717 0.21625 0.0
N630 N 0.874 0.57202 0.27342 0.0
C631 C 0.86777 0.57329 0.23192 0.0
H632 H 0.88925 0.6018 0.31431 0.0
Co633 Co 0.87288 0.54463 0.31096 0.0
C634 C 0.86194 0.49846 0.25737 0.0
O635 O 0.87975 0.48652 0.27944 0.0
N636 N 0.87131 0.51789 0.35093 0.0
C637 C 0.8507 0.4928 0.39733 0.0
C638 C 0.85164 0.50092 0.35585 0.0
C639 C 0.88184 0.51969 0.39 0.0
N640 N 0.8696 0.50493 0.41881 0.0
O641 O 0.83945 0.55594 0.33233 0.0
H642 H 0.83659 0.49748 0.33277 0.0
H643 H 0.89512 0.53474 0.39913 0.0
O644 O 0.85679 0.52203 0.26615 0.0
C645 C 0.84435 0.57059 0.36411 0.0
O646 O 0.86861 0.57571 0.37277 0.0
N647 N 0.90712 0.53616 0.29462 0.0
C648 C 0.96043 0.53129 0.28147 0.0
C649 C 0.94278 0.52427 0.24954 0.0
C650 C 0.91613 0.52735 0.25644 0.0
C651 C 0.92422 0.54477 0.3243 0.0
C652 C 0.9507 0.54201 0.3189 0.0
H653 H 0.90302 0.52329 0.23067 0.0
H654 H 0.91737 0.55501 0.35176 0.0
H655 H 0.86078 0.55721 0.21332 0.0
H656 H 0.88548 0.63176 0.24645 0.0
H657 H 0.83549 0.48136 0.41155 0.0
H658 H 0.94946 0.51661 0.21956 0.0
H659 H 0.96356 0.549 0.3435 0.0
C660 C 0.6897 0.41603 0.47854 0.0
C661 C 0.67467 0.41677 0.51445 0.0
N662 N 0.69048 0.41776 0.54821 0.0
N663 N 0.7148 0.41707 0.48979 0.0
C664 C 0.71459 0.41802 0.53251 0.0
H665 H 0.68262 0.4147 0.4464 0.0
Co666 Co 0.7429 0.41602 0.4537 0.0
C667 C 0.78857 0.42649 0.5088 0.0
O668 O 0.80014 0.40812 0.48742 0.0
N669 N 0.7706 0.41536 0.41546 0.0
C670 C 0.79649 0.43456 0.36875 0.0
C671 C 0.7879 0.43467 0.40993 0.0
C672 C 0.76933 0.40376 0.37718 0.0
N673 N 0.78427 0.41544 0.34797 0.0
O674 O 0.73332 0.44939 0.42893 0.0
H675 H 0.79103 0.45033 0.432 0.0
H676 H 0.7543 0.3903 0.36856 0.0
O677 O 0.7653 0.43237 0.4989 0.0
C678 C 0.72086 0.44373 0.39494 0.0
O679 O 0.71528 0.41935 0.3883 0.0
N680 N 0.74956 0.38179 0.47271 0.0
C681 C 0.75041 0.32857 0.48896 0.0
C682 C 0.7598 0.34624 0.5191 0.0
C683 C 0.75865 0.37287 0.51079 0.0
C684 C 0.73936 0.36478 0.44428 0.0
C685 C 0.73996 0.3383 0.45132 0.0
H686 H 0.76424 0.386 0.53569 0.0
H687 H 0.72963 0.37183 0.41643 0.0
H688 H 0.73173 0.41916 0.55191 0.0
H689 H 0.65381 0.41649 0.51575 0.0
H690 H 0.80799 0.44952 0.35393 0.0
H691 H 0.76705 0.33961 0.54939 0.0
H692 H 0.7319 0.3255 0.42754 0.0
C693 C 0.89715 0.44412 0.73821 0.0
C694 C 0.8948 0.42845 0.77316 0.0
N695 N 0.87666 0.43853 0.79868 0.0
N696 N 0.88066 0.46399 0.7419 0.0
C697 C 0.86833 0.45998 0.77894 0.0
H698 H 0.91069 0.44172 0.71243 0.0
Co699 Co 0.87881 0.4912 0.70418 0.0
C700 C 0.86645 0.53632 0.75953 0.0
O701 O 0.88448 0.54925 0.73929 0.0
N702 N 0.87664 0.51768 0.66399 0.0
C703 C 0.85589 0.54287 0.61815 0.0
C704 C 0.85795 0.53563 0.66 0.0
C705 C 0.88525 0.51426 0.62397 0.0
N706 N 0.87302 0.52918 0.59559 0.0
O707 O 0.84579 0.47864 0.68191 0.0
H708 H 0.84397 0.54037 0.68411 0.0
H709 H 0.89673 0.498 0.6144 0.0
O710 O 0.86166 0.51295 0.74874 0.0
C711 C 0.85161 0.46316 0.65175 0.0
O712 O 0.87586 0.45616 0.64884 0.0
N713 N 0.91281 0.50128 0.72133 0.0
C714 C 0.96586 0.50404 0.73926 0.0
C715 C 0.94758 0.50982 0.77068 0.0
C716 C 0.92103 0.50777 0.76131 0.0
C717 C 0.93061 0.49535 0.69105 0.0
C718 C 0.95698 0.49699 0.69903 0.0
H719 H 0.90731 0.51 0.78681 0.0
H720 H 0.92454 0.48723 0.66131 0.0
H721 H 0.85381 0.47268 0.79168 0.0
H722 H 0.90638 0.41171 0.78019 0.0
H723 H 0.84098 0.55493 0.60478 0.0
H724 H 0.95371 0.51448 0.80264 0.0
H725 H 0.97042 0.49156 0.6743 0.0
C726 C 0.85285 0.62768 0.97521 0.0
C727 C 0.86755 0.62521 0.01132 0.0
N728 N 0.85159 0.62577 0.04491 0.0
N729 N 0.82774 0.62919 0.98615 0.0
C730 C 0.82771 0.62835 0.02888 0.0
H731 H 0.86009 0.62741 0.9431 0.0
Co732 Co 0.79947 0.62917 0.95016 0.0
C733 C 0.75482 0.61577 1.0067 0.0
O734 O 0.7414 0.63344 0.98679 0.0
N735 N 0.77157 0.6286 0.91231 0.0
C736 C 0.74573 0.60832 0.86674 0.0
C737 C 0.75448 0.60902 0.90779 0.0
C738 C 0.77261 0.63951 0.8735 0.0
N739 N 0.75777 0.62709 0.8449 0.0
O740 O 0.81024 0.59617 0.92551 0.0
H741 H 0.75169 0.59359 0.93033 0.0
H742 H 0.7875 0.65295 0.86423 0.0
O743 O 0.77824 0.61172 0.99549 0.0
C744 C 0.82235 0.60155 0.8911 0.0
O745 O 0.82734 0.62592 0.88331 0.0
N746 N 0.79128 0.66313 0.96883 0.0
C747 C 0.78404 0.71633 0.97979 0.0
C748 C 0.77683 0.69884 0.01177 0.0
C749 C 0.78091 0.67222 1.0059 0.0
C750 C 0.80038 0.6802 0.93956 0.0
C751 C 0.79662 0.70662 0.94396 0.0
H752 H 0.77595 0.65925 0.03135 0.0
H753 H 0.81109 0.67326 0.91259 0.0
H754 H 0.81046 0.62842 0.04796 0.0
H755 H 0.8882 0.62246 0.01281 0.0
H756 H 0.73443 0.59291 0.85275 0.0
H757 H 0.76795 0.70563 0.04076 0.0
H758 H 0.80381 0.71944 0.91953 0.0
C759 C 0.65119 0.59965 0.22807 0.0
C760 C 0.6538 0.61562 0.26273 0.0
N761 N 0.66848 0.60347 0.29166 0.0
N762 N 0.66427 0.5777 0.23521 0.0
C763 C 0.67477 0.58077 0.27388 0.0
H764 H 0.63993 0.6035 0.19992 0.0
Co765 Co 0.66461 0.54917 0.20029 0.0
C766 C 0.67694 0.50541 0.25919 0.0
O767 O 0.65864 0.49186 0.24068 0.0
N768 N 0.66512 0.52117 0.16294 0.0
C769 C 0.68389 0.49372 0.11838 0.0
C770 C 0.68329 0.50267 0.15945 0.0
C771 C 0.65518 0.52305 0.12354 0.0
N772 N 0.66655 0.50711 0.09574 0.0
O773 O 0.69773 0.55985 0.17601 0.0
H774 H 0.69788 0.49857 0.18291 0.0
H775 H 0.64329 0.53886 0.11336 0.0
O776 O 0.68172 0.52832 0.24609 0.0
C777 C 0.69222 0.57371 0.14366 0.0
O778 O 0.66799 0.58027 0.1385 0.0
N779 N 0.63066 0.54104 0.21925 0.0
C780 C 0.57763 0.53888 0.23679 0.0
C781 C 0.59574 0.53191 0.26781 0.0
C782 C 0.62232 0.53381 0.25877 0.0
C783 C 0.61309 0.54859 0.18965 0.0
C784 C 0.58669 0.54726 0.19738 0.0
H785 H 0.63591 0.53056 0.2841 0.0
H786 H 0.61952 0.55729 0.16053 0.0
H787 H 0.68615 0.56632 0.28955 0.0
H788 H 0.64544 0.63454 0.26624 0.0
H789 H 0.69809 0.48075 0.10525 0.0
H790 H 0.58946 0.52623 0.29922 0.0
H791 H 0.57341 0.55354 0.17299 0.0
C792 C 0.34951 0.39835 0.48091 0.0
C793 C 0.36499 0.40132 0.51603 0.0
N794 N 0.35177 0.41488 0.54517 0.0
N795 N 0.32682 0.41017 0.48787 0.0
C796 C 0.32881 0.42008 0.52721 0.0
H797 H 0.35439 0.38801 0.45225 0.0
Co798 Co 0.29953 0.41076 0.45042 0.0
C799 C 0.25371 0.42264 0.50507 0.0
O800 O 0.24116 0.40425 0.485 0.0
N801 N 0.2729 0.41162 0.4106 0.0
C802 C 0.24794 0.43153 0.36357 0.0
C803 C 0.25544 0.43063 0.40539 0.0
C804 C 0.27558 0.40141 0.37148 0.0
N805 N 0.26087 0.41322 0.34237 0.0
O806 O 0.31106 0.44401 0.42794 0.0
H807 H 0.25143 0.44552 0.42839 0.0
H808 H 0.29128 0.38902 0.36258 0.0
O809 O 0.27712 0.42756 0.49464 0.0
C810 C 0.32684 0.43932 0.39764 0.0
O811 O 0.33318 0.41522 0.39081 0.0
N812 N 0.29082 0.37667 0.46794 0.0
C813 C 0.28814 0.32341 0.48398 0.0
C814 C 0.28045 0.34134 0.51496 0.0
C815 C 0.28247 0.36798 0.50663 0.0
C816 C 0.29935 0.35938 0.43867 0.0
C817 C 0.29763 0.33295 0.44547 0.0
H818 H 0.27841 0.38137 0.53195 0.0
H819 H 0.30912 0.36605 0.41062 0.0
H820 H 0.31357 0.43045 0.54303 0.0
H821 H 0.38446 0.39428 0.51953 0.0
H822 H 0.23654 0.44654 0.34899 0.0
H823 H 0.27405 0.3349 0.54589 0.0
H824 H 0.3044 0.32004 0.42091 0.0
C825 C 0.37636 0.59804 0.22502 0.0
C826 C 0.37401 0.61286 0.26099 0.0
N827 N 0.37317 0.59698 0.29474 0.0
N828 N 0.37658 0.57296 0.23607 0.0
C829 C 0.37483 0.57299 0.2787 0.0
H830 H 0.37732 0.60522 0.19292 0.0
Co831 Co 0.37823 0.54488 0.20011 0.0
C832 C 0.36788 0.49988 0.25715 0.0
O833 O 0.38621 0.48768 0.23665 0.0
N834 N 0.37946 0.51708 0.16223 0.0
C835 C 0.36112 0.49025 0.11603 0.0
C836 C 0.36086 0.49899 0.15715 0.0
C837 C 0.39081 0.51868 0.12381 0.0
N838 N 0.37958 0.50319 0.09481 0.0
O839 O 0.3448 0.55407 0.175 0.0
H840 H 0.34544 0.49531 0.17941 0.0
H841 H 0.40357 0.53422 0.11495 0.0
O842 O 0.36182 0.5227 0.24526 0.0
C843 C 0.34987 0.56677 0.14104 0.0
O844 O 0.37411 0.5725 0.13331 0.0
N845 N 0.41253 0.53866 0.21962 0.0
C846 C 0.46576 0.53848 0.23634 0.0
C847 C 0.44816 0.52877 0.26622 0.0
C848 C 0.42151 0.52969 0.25775 0.0
C849 C 0.42953 0.54893 0.19124 0.0
C850 C 0.45603 0.54865 0.19852 0.0
H851 H 0.40842 0.52403 0.28261 0.0
H852 H 0.42242 0.55846 0.16324 0.0
H853 H 0.37465 0.55575 0.29787 0.0
H854 H 0.37199 0.63358 0.26187 0.0
H855 H 0.34649 0.47816 0.10154 0.0
H856 H 0.45487 0.5215 0.29644 0.0
H857 H 0.46885 0.55676 0.17486 0.0
C858 C 0.19269 0.63834 0.98021 0.0
C859 C 0.1772 0.63482 0.01524 0.0
N860 N 0.19023 0.62046 0.04353 0.0
N861 N 0.21533 0.62629 0.98658 0.0
C862 C 0.21324 0.61578 0.02542 0.0
H863 H 0.18804 0.64959 0.95242 0.0
Co864 Co 0.24355 0.62649 0.9507 0.0
C865 C 0.28765 0.61385 0.00961 0.0
O866 O 0.30145 0.63241 0.99246 0.0
N867 N 0.2712 0.62642 0.91291 0.0
C868 C 0.2989 0.60816 0.86822 0.0
C869 C 0.29042 0.609 0.9095 0.0
C870 C 0.26838 0.63565 0.87326 0.0
N871 N 0.28449 0.62455 0.84544 0.0
O872 O 0.23288 0.59337 0.92548 0.0
H873 H 0.29537 0.59486 0.93317 0.0
H874 H 0.2519 0.64668 0.86321 0.0
O875 O 0.26492 0.60915 0.99546 0.0
C876 C 0.21814 0.5988 0.89409 0.0
O877 O 0.21011 0.62268 0.89107 0.0
N878 N 0.25167 0.66043 0.97014 0.0
C879 C 0.25428 0.7135 0.98762 0.0
C880 C 0.26129 0.69535 0.01857 0.0
C881 C 0.2592 0.66877 0.00955 0.0
C882 C 0.2441 0.67803 0.94063 0.0
C883 C 0.24559 0.70442 0.94836 0.0
H884 H 0.26261 0.65517 0.03478 0.0
H885 H 0.23539 0.67162 0.91145 0.0
H886 H 0.22874 0.60593 0.0411 0.0
H887 H 0.15806 0.64256 0.01982 0.0
H888 H 0.3123 0.59433 0.85517 0.0
H889 H 0.26721 0.70162 0.04989 0.0
H890 H 0.23924 0.71771 0.92405 0.0
C891 C 0.16181 0.43683 0.72648 0.0
C892 C 0.16301 0.4218 0.76232 0.0
N893 N 0.16722 0.43745 0.79562 0.0
N894 N 0.16558 0.46174 0.73727 0.0
C895 C 0.16857 0.46146 0.77976 0.0
H896 H 0.1579 0.42992 0.6948 0.0
Co897 Co 0.16451 0.48983 0.70115 0.0
C898 C 0.17757 0.53505 0.75652 0.0
O899 O 0.15862 0.54732 0.73776 0.0
N900 N 0.16368 0.51751 0.66308 0.0
C901 C 0.18145 0.54452 0.61662 0.0
C902 C 0.18253 0.53528 0.65736 0.0
C903 C 0.15153 0.51641 0.62526 0.0
N904 N 0.16225 0.53216 0.59622 0.0
O905 O 0.19729 0.47941 0.67421 0.0
H906 H 0.19849 0.53853 0.67878 0.0
H907 H 0.13831 0.50117 0.61663 0.0
O908 O 0.18251 0.51179 0.74535 0.0
C909 C 0.19075 0.46665 0.64091 0.0
O910 O 0.1662 0.46102 0.63649 0.0
N911 N 0.13075 0.49732 0.72193 0.0
C912 C 0.07769 0.49984 0.73975 0.0
C913 C 0.09597 0.50882 0.76927 0.0
C914 C 0.12253 0.50672 0.76024 0.0
C915 C 0.11308 0.48767 0.69403 0.0
C916 C 0.08668 0.48913 0.70184 0.0
H917 H 0.13616 0.51193 0.78466 0.0
H918 H 0.11952 0.47777 0.66592 0.0
H919 H 0.17159 0.47846 0.799 0.0
H920 H 0.16043 0.40112 0.76395 0.0
H921 H 0.19584 0.55665 0.60163 0.0
H922 H 0.08982 0.51647 0.79957 0.0
H923 H 0.07335 0.4815 0.67846 0.0
C924 C 0.3478 0.63948 0.53118 0.0
C925 C 0.36306 0.63695 0.4958 0.0
N926 N 0.35 0.62281 0.46702 0.0
N927 N 0.32544 0.62668 0.52493 0.0
C928 C 0.32739 0.61669 0.48562 0.0
H929 H 0.35249 0.6505 0.55928 0.0
Co930 Co 0.29802 0.62629 0.56231 0.0
C931 C 0.25261 0.61498 0.50702 0.0
O932 O 0.24099 0.6343 0.52585 0.0
N933 N 0.27114 0.62562 0.60188 0.0
C934 C 0.24402 0.60701 0.64749 0.0
C935 C 0.25197 0.60797 0.60593 0.0
C936 C 0.27451 0.63476 0.64155 0.0
N937 N 0.25868 0.62357 0.66981 0.0
O938 O 0.30937 0.59342 0.58682 0.0
H939 H 0.24663 0.59387 0.58227 0.0
H940 H 0.29115 0.64584 0.65124 0.0
O941 O 0.27556 0.60897 0.5185 0.0
C942 C 0.32446 0.59961 0.6175 0.0
O943 O 0.33231 0.62365 0.61933 0.0
N944 N 0.2893 0.66003 0.54349 0.0
C945 C 0.28241 0.71267 0.52703 0.0
C946 C 0.27887 0.6943 0.4947 0.0
C947 C 0.28284 0.66799 0.50343 0.0
C948 C 0.29497 0.678 0.57366 0.0
C949 C 0.29119 0.70414 0.56651 0.0
H950 H 0.28115 0.65421 0.47786 0.0
H951 H 0.30368 0.67226 0.60307 0.0
H952 H 0.31221 0.60589 0.47011 0.0
H953 H 0.38222 0.6449 0.4918 0.0
H954 H 0.23072 0.5931 0.66095 0.0
H955 H 0.27322 0.70021 0.46311 0.0
H956 H 0.2959 0.71771 0.59152 0.0
C957 C 0.16254 0.6028 0.28645 0.0
C958 C 0.16577 0.61623 0.24908 0.0
N959 N 0.16596 0.59911 0.21704 0.0
N960 N 0.16076 0.57738 0.27772 0.0
C961 C 0.16225 0.57596 0.23514 0.0
H962 H 0.16238 0.61113 0.31784 0.0
Co963 Co 0.15956 0.54946 0.31457 0.0
C964 C 0.17367 0.50527 0.25603 0.0
O965 O 0.1559 0.49037 0.27293 0.0
N966 N 0.15884 0.52186 0.35257 0.0
C967 C 0.17685 0.49464 0.39807 0.0
C968 C 0.17703 0.50351 0.35706 0.0
C969 C 0.1479 0.5236 0.39129 0.0
N970 N 0.15885 0.50776 0.41976 0.0
O971 O 0.19252 0.55989 0.34045 0.0
H972 H 0.19224 0.49967 0.33459 0.0
H973 H 0.13556 0.53931 0.40059 0.0
O974 O 0.17729 0.52811 0.2704 0.0
C975 C 0.18665 0.573 0.37354 0.0
O976 O 0.16236 0.57941 0.37821 0.0
N977 N 0.12573 0.54145 0.29472 0.0
C978 C 0.07261 0.53471 0.28129 0.0
C979 C 0.09051 0.527 0.2504 0.0
C980 C 0.11706 0.53083 0.25753 0.0
C981 C 0.10833 0.55065 0.32328 0.0
C982 C 0.08191 0.54706 0.31772 0.0
H983 H 0.13026 0.52554 0.23279 0.0
H984 H 0.11501 0.56129 0.3506 0.0
H985 H 0.16099 0.55821 0.21748 0.0
H986 H 0.16888 0.63677 0.24589 0.0
H987 H 0.19124 0.48225 0.41218 0.0
H988 H 0.08409 0.51794 0.22127 0.0
H989 H 0.06877 0.55426 0.34162 0.0
C990 C 0.18571 0.41619 0.03987 0.0
C991 C 0.17039 0.41737 1.00419 0.0
N992 N 0.18598 0.41769 0.97014 0.0
N993 N 0.21072 0.41632 0.02801 0.0
C994 C 0.21018 0.41726 0.98533 0.0
H995 H 0.17899 0.41543 0.07228 0.0
Co996 Co 0.23927 0.4153 0.063 0.0
C997 C 0.28339 0.42538 1.00408 0.0
O998 O 0.29583 0.40681 0.02353 0.0
N999 N 0.26761 0.41474 0.09996 0.0
C1000 C 0.29677 0.43209 0.14341 0.0
C1001 C 0.2863 0.43288 0.10339 0.0
C1002 C 0.26714 0.40337 0.13842 0.0
N1003 N 0.2843 0.41377 0.16568 0.0
O1004 O 0.23023 0.44881 0.08683 0.0
H1005 H 0.28971 0.44814 0.08075 0.0
H1006 H 0.25164 0.39094 0.14872 0.0
O1007 O 0.26077 0.43147 0.017 0.0
C1008 C 0.21803 0.4452 0.12171 0.0
O1009 O 0.21275 0.42146 0.13323 0.0
N1010 N 0.24561 0.38087 0.04412 0.0
C1011 C 0.24679 0.32758 0.02802 0.0
C1012 C 0.25487 0.34531 0.99706 0.0
C1013 C 0.25356 0.37192 1.00535 0.0
C1014 C 0.23653 0.3638 0.07341 0.0
C1015 C 0.23734 0.33728 0.06643 0.0
H1016 H 0.25815 0.385 0.9799 0.0
H1017 H 0.22754 0.37081 0.10198 0.0
H1018 H 0.22715 0.41816 0.96548 0.0
H1019 H 0.14954 0.41792 1.00324 0.0
H1020 H 0.31014 0.44604 0.15659 0.0
H1021 H 0.26123 0.33873 0.96619 0.0
H1022 H 0.23025 0.32443 0.09091 0.0
C1023 C 0.37469 0.44028 0.78707 0.0
C1024 C 0.37368 0.42573 0.75066 0.0
N1025 N 0.37359 0.44188 0.71725 0.0
N1026 N 0.37473 0.46546 0.77662 0.0
C1027 C 0.3743 0.46578 0.73391 0.0
H1028 H 0.37497 0.43283 0.81903 0.0
Co1029 Co 0.37546 0.49305 0.81357 0.0
C1030 C 0.36377 0.53899 0.75941 0.0
O1031 O 0.38169 0.55168 0.78039 0.0
N1032 N 0.37592 0.52013 0.8526 0.0
C1033 C 0.35745 0.54535 0.90074 0.0
C1034 C 0.35683 0.53731 0.85921 0.0
C1035 C 0.38786 0.51829 0.89047 0.0
N1036 N 0.37671 0.53291 0.92054 0.0
O1037 O 0.34173 0.48309 0.8363 0.0
H1038 H 0.34104 0.54076 0.83759 0.0
H1039 H 0.4012 0.50311 0.89809 0.0
O1040 O 0.35926 0.51538 0.7689 0.0
C1041 C 0.34544 0.46926 0.86939 0.0
O1042 O 0.36928 0.46388 0.8801 0.0
N1043 N 0.40989 0.50013 0.79587 0.0
C1044 C 0.46331 0.50006 0.78073 0.0
C1045 C 0.4463 0.51168 0.75187 0.0
C1046 C 0.41952 0.51098 0.75951 0.0
C1047 C 0.42628 0.48825 0.82332 0.0
C1048 C 0.45285 0.4884 0.81691 0.0
H1049 H 0.40682 0.51821 0.73528 0.0
H1050 H 0.41856 0.47756 0.84981 0.0
H1051 H 0.37447 0.48322 0.7152 0.0
H1052 H 0.37206 0.40498 0.74916 0.0
H1053 H 0.34274 0.55662 0.91641 0.0
H1054 H 0.45354 0.5203 0.72293 0.0
H1055 H 0.46513 0.47902 0.83994 0.0
C1056 C 0.17001 0.06704 0.18661 0.0
C1057 C 0.18466 0.04986 0.21135 0.0
C1058 C 0.18067 0.08041 0.15223 0.0
C1059 C 0.20657 0.07736 0.14016 0.0
H1060 H 0.1501 0.07095 0.19454 0.0
H1061 H 0.16866 0.09431 0.13601 0.0
S1062 S 0.25301 0.03284 0.19112 0.0
N1063 N 0.22628 0.02901 0.21903 0.0
N1064 N 0.24626 0.05403 0.15365 0.0
C1065 C 0.22117 0.05893 0.1625 0.0
C1066 C 0.21025 0.04526 0.1982 0.0
C1067 C 0.23329 0.97223 0.41412 0.0
C1068 C 0.21742 0.95592 0.38932 0.0
C1069 C 0.24635 0.96282 0.45055 0.0
C1070 C 0.2436 0.93695 0.46364 0.0
H1071 H 0.23417 0.99264 0.40724 0.0
H1072 H 0.25724 0.97619 0.47001 0.0
S1073 S 0.2078 0.88578 0.4057 0.0
N1074 N 0.20284 0.91204 0.37748 0.0
N1075 N 0.22626 0.89481 0.44575 0.0
C1076 C 0.22935 0.9203 0.43723 0.0
C1077 C 0.21663 0.92966 0.40015 0.0
C1078 C 0.3577 0.94709 0.67098 0.0
C1079 C 0.336 0.95507 0.64766 0.0
C1080 C 0.36635 0.96047 0.70682 0.0
C1081 C 0.35398 0.98282 0.72153 0.0
H1082 H 0.36791 0.92974 0.66216 0.0
H1083 H 0.38294 0.95284 0.72338 0.0
S1084 S 0.29754 1.01362 0.67 0.0
N1085 N 0.30307 0.98792 0.6404 0.0
N1086 N 0.31964 1.0135 0.70785 0.0
C1087 C 0.33293 0.99195 0.69745 0.0
C1088 C 0.32392 0.97804 0.66057 0.0
C1089 C 0.33245 0.1106 0.9042 0.0
C1090 C 0.32822 0.08531 0.88962 0.0
C1091 C 0.31871 0.12082 0.9385 0.0
C1092 C 0.29987 0.10636 0.96032 0.0
H1093 H 0.34738 0.12243 0.88997 0.0
H1094 H 0.32348 0.14021 0.94865 0.0
S1095 S 0.27972 0.03963 0.93309 0.0
N1096 N 0.30264 0.04631 0.89828 0.0
N1097 N 0.27641 0.06571 0.96275 0.0
C1098 C 0.29425 0.08146 0.94471 0.0
C1099 C 0.30849 0.07091 0.90944 0.0
C1100 C 0.20858 0.98298 0.85989 0.0
C1101 C 0.21147 0.9561 0.85523 0.0
C1102 C 0.1976 0.99816 0.82705 0.0
C1103 C 0.18912 0.98693 0.78858 0.0
H1104 H 0.21377 0.99215 0.88958 0.0
H1105 H 0.1946 1.01851 0.83262 0.0
S1106 S 0.19618 0.91842 0.75756 0.0
N1107 N 0.20775 0.91985 0.80623 0.0
N1108 N 0.18722 0.94802 0.74618 0.0
C1109 C 0.19345 0.96052 0.78277 0.0
C1110 C 0.2046 0.94523 0.81557 0.0
C1111 C 0.29399 0.94481 0.07597 0.0
C1112 C 0.3054 0.94005 0.03605 0.0
C1113 C 0.30856 0.95458 0.11071 0.0
C1114 C 0.33519 0.95967 0.10681 0.0
H1115 H 0.2741 0.93952 0.08106 0.0
H1116 H 0.29923 0.95686 0.1412 0.0
S1117 S 0.37363 0.95285 0.00763 0.0
N1118 N 0.34444 0.94311 0.99416 0.0
N1119 N 0.37161 0.96124 0.058 0.0
C1120 C 0.34635 0.95616 0.06626 0.0
C1121 C 0.33159 0.94636 0.03137 0.0
C1122 C 0.32157 0.05877 0.35353 0.0
C1123 C 0.33932 0.06866 0.38352 0.0
C1124 C 0.33004 0.04547 0.31676 0.0
C1125 C 0.35653 0.04185 0.30871 0.0
H1126 H 0.30124 0.06301 0.3568 0.0
H1127 H 0.31596 0.03962 0.29324 0.0
S1128 S 0.41031 0.06073 0.38013 0.0
N1129 N 0.38424 0.07119 0.40458 0.0
N1130 N 0.4 0.04678 0.33617 0.0
C1131 C 0.37412 0.05007 0.33996 0.0
C1132 C 0.36557 0.06329 0.37714 0.0
C1133 C 0.23329 0.08247 0.61459 0.0
C1134 C 0.20616 0.08133 0.61126 0.0
C1135 C 0.24871 0.09174 0.58056 0.0
C1136 C 0.23748 0.10009 0.54212 0.0
H1137 H 0.24254 0.07732 0.64418 0.0
H1138 H 0.26932 0.09365 0.58519 0.0
S1139 S 0.16812 0.09657 0.51431 0.0
N1140 N 0.16946 0.08606 0.56361 0.0
N1141 N 0.19813 0.10347 0.50117 0.0
C1142 C 0.21072 0.09727 0.53759 0.0
C1143 C 0.19517 0.08789 0.57169 0.0
C1144 C 0.8404 0.96883 0.78599 0.0
C1145 C 0.84736 0.99459 0.79323 0.0
C1146 C 0.82891 0.95382 0.8177 0.0
C1147 C 0.82413 0.96354 0.85883 0.0
H1148 H 0.84453 0.95987 0.75568 0.0
H1149 H 0.8245 0.93394 0.80999 0.0
S1150 S 0.83685 0.03076 0.89338 0.0
N1151 N 0.84701 0.03005 0.84366 0.0
N1152 N 0.82563 1.00157 0.90387 0.0
C1153 C 0.82964 0.9898 0.86599 0.0
C1154 C 0.84124 1.00534 0.83312 0.0
C1155 C 0.81669 0.12605 0.57118 0.0
C1156 C 0.79945 0.10996 0.54887 0.0
C1157 C 0.83045 0.11729 0.60658 0.0
C1158 C 0.82783 0.09192 0.62171 0.0
H1159 H 0.82007 0.14566 0.56076 0.0
H1160 H 0.84407 0.1304 0.62137 0.0
S1161 S 0.78459 0.04192 0.57597 0.0
N1162 N 0.77963 0.06746 0.54579 0.0
N1163 N 0.80597 0.05079 0.61215 0.0
C1164 C 0.80987 0.07575 0.60097 0.0
C1165 C 0.79559 0.08482 0.56468 0.0
C1166 C 0.70322 0.09329 0.32267 0.0
C1167 C 0.71028 0.08243 0.362 0.0
C1168 C 0.69303 0.07838 0.28965 0.0
C1169 C 0.68948 0.05168 0.29378 0.0
H1170 H 0.70493 0.11384 0.31741 0.0
H1171 H 0.68719 0.08812 0.26082 0.0
S1172 S 0.70753 1.01279 0.38797 0.0
N1173 N 0.71511 0.04264 0.40174 0.0
N1174 N 0.69589 1.0144 0.33919 0.0
C1175 C 0.69802 0.04006 0.33173 0.0
C1176 C 0.70845 0.05545 0.36588 0.0
C1177 C 0.74578 0.94829 0.08004 0.0
C1178 C 0.73382 0.94129 0.04137 0.0
C1179 C 0.73107 0.95676 0.11541 0.0
C1180 C 0.70393 0.95834 0.11329 0.0
H1181 H 0.76642 0.94609 0.08362 0.0
H1182 H 0.74087 0.96098 0.14498 0.0
S1183 S 0.66401 0.94632 0.01703 0.0
N1184 N 0.69366 0.93971 1.00193 0.0
N1185 N 0.66639 0.95522 0.0671 0.0
C1186 C 0.6922 0.95298 0.0738 0.0
C1187 C 0.70701 0.94456 0.03827 0.0
C1188 C 0.82889 0.04817 0.14563 0.0
C1189 C 0.82251 0.0737 0.15659 0.0
C1190 C 0.84123 0.03169 0.17511 0.0
C1191 C 0.84723 0.04013 0.21656 0.0
H1192 H 0.82577 0.04141 0.1135 0.0
H1193 H 0.84742 1.01282 0.16468 0.0
S1194 S 0.83239 0.10393 0.26257 0.0
N1195 N 0.82127 0.10547 0.21359 0.0
N1196 N 0.84438 0.07475 0.26768 0.0
C1197 C 0.83954 0.06489 0.22848 0.0
C1198 C 0.82715 0.08157 0.1989 0.0
C1199 C 0.69933 0.10005 0.91835 0.0
C1200 C 0.70733 0.07757 0.89726 0.0
C1201 C 0.71255 0.10986 0.9535 0.0
C1202 C 0.73477 0.09791 0.9697 0.0
H1203 H 0.68192 0.10985 0.90853 0.0
H1204 H 0.7048 0.12692 0.96853 0.0
S1205 S 0.76599 0.04015 0.92311 0.0
N1206 N 0.74027 0.04457 0.893 0.0
N1207 N 0.76574 0.0634 0.95904 0.0
C1208 C 0.74413 0.07624 0.94742 0.0
C1209 C 0.73033 0.06602 0.91126 0.0
C1210 C 0.70977 0.98557 0.70172 0.0
C1211 C 0.68362 0.98367 0.71378 0.0
C1212 C 0.7191 0.9728 0.66501 0.0
C1213 C 0.70246 0.95812 0.63892 0.0
H1214 H 0.72334 0.99563 0.72203 0.0
H1215 H 0.73963 0.97297 0.65872 0.0
S1216 S 0.63181 0.95079 0.65268 0.0
N1217 N 0.64098 0.96843 0.69363 0.0
N1218 N 0.65828 0.94506 0.62531 0.0
C1219 C 0.67609 0.95786 0.64909 0.0
C1220 C 0.66673 0.97046 0.68629 0.0
C1221 C 0.81769 0.91198 0.44417 0.0
C1222 C 0.7994 0.92774 0.46429 0.0
C1223 C 0.83091 0.92003 0.4078 0.0
C1224 C 0.82687 0.94443 0.38957 0.0
H1225 H 0.82234 0.89324 0.45711 0.0
H1226 H 0.84539 0.90726 0.39488 0.0
S1227 S 0.77896 0.99226 0.42682 0.0
N1228 N 0.77601 0.96816 0.46076 0.0
N1229 N 0.8015 0.98365 0.3926 0.0
C1230 C 0.8075 0.95994 0.40764 0.0
C1231 C 0.79367 0.95153 0.4449 0.0
C1232 C 0.66965 0.56245 0.69314 0.0
C1233 C 0.68459 0.54501 0.71676 0.0
C1234 C 0.68004 0.57632 0.65905 0.0
C1235 C 0.70587 0.57342 0.64659 0.0
H1236 H 0.6498 0.56611 0.70183 0.0
H1237 H 0.668 0.59047 0.64351 0.0
S1238 S 0.75322 0.52946 0.69613 0.0
N1239 N 0.7265 0.52462 0.72367 0.0
N1240 N 0.74612 0.55108 0.65952 0.0
C1241 C 0.72084 0.55513 0.6683 0.0
C1242 C 0.71018 0.54081 0.70333 0.0
C1243 C 0.70051 0.45771 0.9492 0.0
C1244 C 0.71011 0.4603 0.90752 0.0
C1245 C 0.71516 0.4467 0.9817 0.0
C1246 C 0.74035 0.43798 0.9745 0.0
H1247 H 0.68095 0.46337 0.95664 0.0
H1248 H 0.7063 0.44425 0.01259 0.0
S1249 S 0.77606 0.44291 0.87274 0.0
N1250 N 0.74746 0.45522 0.86182 0.0
N1251 N 0.77528 0.43467 0.9234 0.0
C1252 C 0.75107 0.44211 0.93391 0.0
C1253 C 0.73592 0.45328 0.90034 0.0
C1254 C 0.84353 0.49496 0.1825 0.0
C1255 C 0.84875 0.48392 0.22254 0.0
C1256 C 0.83529 0.47958 0.1477 0.0
C1257 C 0.83215 0.45269 0.15186 0.0
H1258 H 0.84704 0.51529 0.17743 0.0
H1259 H 0.83252 0.4886 0.11708 0.0
S1260 S 0.83919 0.41539 0.25197 0.0
N1261 N 0.84706 0.44513 0.26525 0.0
N1262 N 0.83181 0.41656 0.20112 0.0
C1263 C 0.83567 0.44197 0.19261 0.0
C1264 C 0.84391 0.45747 0.22755 0.0
C1265 C 0.81652 0.61551 0.44546 0.0
C1266 C 0.79783 0.60057 0.46663 0.0
C1267 C 0.82956 0.60624 0.40979 0.0
C1268 C 0.8247 0.58151 0.39333 0.0
H1269 H 0.82172 0.63446 0.4572 0.0
H1270 H 0.8446 0.61819 0.39614 0.0
S1271 S 0.77625 0.5351 0.43451 0.0
N1272 N 0.77367 0.56027 0.46642 0.0
N1273 N 0.79878 0.54258 0.39944 0.0
C1274 C 0.80505 0.56675 0.41245 0.0
C1275 C 0.79148 0.57634 0.44905 0.0
C1276 C 0.69979 0.46699 0.28653 0.0
C1277 C 0.69252 0.49269 0.29294 0.0
C1278 C 0.71039 0.45227 0.31928 0.0
C1279 C 0.71402 0.46232 0.36052 0.0
H1280 H 0.6965 0.45782 0.25608 0.0
H1281 H 0.71497 0.43237 0.31234 0.0
S1282 S 0.70038 0.52947 0.3933 0.0
N1283 N 0.69145 0.52837 0.34296 0.0
N1284 N 0.7114 0.50049 0.40491 0.0
C1285 C 0.70837 0.48852 0.36691 0.0
C1286 C 0.69757 0.50372 0.33308 0.0
C1287 C 0.84487 0.4443 0.57986 0.0
C1288 C 0.83381 0.45572 0.61613 0.0
C1289 C 0.83 0.43612 0.54539 0.0
C1290 C 0.80305 0.43876 0.54479 0.0
H1291 H 0.86549 0.44137 0.57776 0.0
H1292 H 0.83995 0.42723 0.51898 0.0
S1293 S 0.76405 0.46896 0.63008 0.0
N1294 N 0.79394 0.4706 0.64824 0.0
N1295 N 0.76575 0.45499 0.583 0.0
C1296 C 0.79152 0.45104 0.57997 0.0
C1297 C 0.8069 0.45952 0.61563 0.0
C1298 C 0.84427 0.57586 0.7844 0.0
C1299 C 0.85112 0.5502 0.79239 0.0
C1300 C 0.83373 0.59148 0.81614 0.0
C1301 C 0.82973 0.58239 0.85783 0.0
H1302 H 0.84775 0.58427 0.75344 0.0
H1303 H 0.82935 0.61125 0.80797 0.0
S1304 S 0.8424 0.51596 0.89476 0.0
N1305 N 0.85147 0.5157 0.84445 0.0
N1306 N 0.83176 0.54531 0.9045 0.0
C1307 C 0.83508 0.55632 0.86584 0.0
C1308 C 0.84577 0.5402 0.83308 0.0
C1309 C 0.70029 0.58495 0.06814 0.0
C1310 C 0.71066 0.58031 0.10878 0.0
C1311 C 0.71528 0.59492 0.03508 0.0
C1312 C 0.74158 0.60055 0.04055 0.0
H1313 H 0.68001 0.58158 0.06189 0.0
H1314 H 0.70589 0.599 1.00512 0.0
S1315 S 0.77932 0.58898 0.13881 0.0
N1316 N 0.74969 0.57991 0.15147 0.0
N1317 N 0.77814 0.59842 0.08876 0.0
C1318 C 0.75286 0.59425 0.07995 0.0
C1319 C 0.73736 0.58416 0.11415 0.0
C1320 C 0.37184 0.46845 0.31659 0.0
C1321 C 0.35722 0.48774 0.29662 0.0
C1322 C 0.36233 0.45454 0.35126 0.0
C1323 C 0.33765 0.45906 0.36809 0.0
H1324 H 0.39079 0.46351 0.30478 0.0
H1325 H 0.37419 0.43928 0.36407 0.0
S1326 S 0.29189 0.50858 0.32989 0.0
N1327 N 0.31712 0.51182 0.29821 0.0
N1328 N 0.29906 0.48524 0.36348 0.0
C1329 C 0.32314 0.47916 0.35009 0.0
C1330 C 0.33296 0.49357 0.3144 0.0
C1331 C 0.33913 0.57545 0.06555 0.0
C1332 C 0.33058 0.57404 0.108 0.0
C1333 C 0.32428 0.58694 0.03368 0.0
C1334 C 0.29999 0.59743 0.0425 0.0
H1335 H 0.35814 0.56858 0.05704 0.0
H1336 H 0.33236 0.58849 1.00206 0.0
S1337 S 0.26781 0.59784 0.14767 0.0
N1338 N 0.2955 0.58316 0.15663 0.0
N1339 N 0.26743 0.60486 0.09651 0.0
C1340 C 0.29041 0.59498 0.0842 0.0
C1341 C 0.3057 0.58321 0.11698 0.0
C1342 C 0.20857 0.55406 0.86306 0.0
C1343 C 0.21222 0.58084 0.8579 0.0
C1344 C 0.19896 0.53851 0.82936 0.0
C1345 C 0.1928 0.54928 0.78946 0.0
H1346 H 0.21183 0.54533 0.89378 0.0
H1347 H 0.19496 0.51835 0.83532 0.0
S1348 S 0.20286 0.61728 0.75743 0.0
N1349 N 0.21192 0.61642 0.80756 0.0
N1350 N 0.19403 0.58758 0.74563 0.0
C1351 C 0.19821 0.57552 0.7833 0.0
C1352 C 0.20788 0.59117 0.81707 0.0
C1353 C 0.23511 0.45434 0.61125 0.0
C1354 C 0.20861 0.45931 0.60532 0.0
C1355 C 0.25037 0.4438 0.57809 0.0
C1356 C 0.23961 0.43783 0.53803 0.0
H1357 H 0.2438 0.45747 0.64208 0.0
H1358 H 0.2703 0.4391 0.58456 0.0
S1359 S 0.17247 0.45069 0.50403 0.0
N1360 N 0.17344 0.46017 0.55396 0.0
N1361 N 0.20172 0.4403 0.49328 0.0
C1362 C 0.2137 0.44423 0.53117 0.0
C1363 C 0.19835 0.45499 0.56431 0.0
C1364 C 0.34332 0.54102 0.68578 0.0
C1365 C 0.34952 0.55274 0.72502 0.0
C1366 C 0.33391 0.55572 0.65112 0.0
C1367 C 0.33045 0.58258 0.65466 0.0
H1368 H 0.34699 0.52071 0.68114 0.0
H1369 H 0.33057 0.54625 0.62097 0.0
S1370 S 0.33978 0.62138 0.75297 0.0
N1371 N 0.34842 0.59202 0.76657 0.0
N1372 N 0.33091 0.61932 0.70284 0.0
C1373 C 0.33487 0.59389 0.69484 0.0
C1374 C 0.34435 0.57909 0.72958 0.0
C1375 C 0.24781 0.59345 0.43474 0.0
C1376 C 0.23771 0.59982 0.475 0.0
C1377 C 0.23173 0.58354 0.40204 0.0
C1378 C 0.20506 0.57972 0.40865 0.0
H1379 H 0.26788 0.59745 0.42776 0.0
H1380 H 0.23995 0.58004 0.371 0.0
S1381 S 0.17033 0.5897 0.51074 0.0
N1382 N 0.2002 0.59885 0.52078 0.0
N1383 N 0.17033 0.58024 0.46077 0.0
C1384 C 0.19539 0.58438 0.44986 0.0
C1385 C 0.21159 0.59443 0.4826 0.0
C1386 C 0.2089 0.4778 0.22754 0.0
C1387 C 0.18883 0.49518 0.21976 0.0
C1388 C 0.21986 0.46341 0.19442 0.0
C1389 C 0.21148 0.466 0.15212 0.0
H1390 H 0.21512 0.47413 0.25981 0.0
H1391 H 0.23385 0.44884 0.20233 0.0
S1392 S 0.15912 0.5086 0.11498 0.0
N1393 N 0.16082 0.51413 0.16657 0.0
N1394 N 0.18186 0.48737 0.10435 0.0
C1395 C 0.19215 0.48408 0.1436 0.0
C1396 C 0.1807 0.49858 0.17746 0.0
C1397 C 0.31298 0.42183 0.94212 0.0
C1398 C 0.29521 0.43677 0.96508 0.0
C1399 C 0.32731 0.43217 0.90853 0.0
C1400 C 0.32459 0.45797 0.89595 0.0
H1401 H 0.31656 0.40202 0.95103 0.0
H1402 H 0.34168 0.42012 0.89355 0.0
S1403 S 0.27958 0.50519 0.9433 0.0
N1404 N 0.2745 0.47856 0.97091 0.0
N1405 N 0.30183 0.4981 0.90763 0.0
C1406 C 0.30589 0.47291 0.91681 0.0
C1407 C 0.2911 0.46228 0.95134 0.0
C1408 C 0.25878 0.11203 0.26622 0.0
C1409 C 0.27487 0.12446 0.29565 0.0
C1410 C 0.26416 0.11276 0.22285 0.0
C1411 C 0.28627 0.12547 0.20685 0.0
H1412 H 0.24171 0.10177 0.27662 0.0
H1413 H 0.25014 0.10401 0.20195 0.0
S1414 S 0.3355 0.16012 0.27064 0.0
N1415 N 0.31377 0.15054 0.30544 0.0
N1416 N 0.32536 0.14908 0.22448 0.0
C1417 C 0.30316 0.137 0.23611 0.0
C1418 C 0.29713 0.13721 0.28025 0.0
C1419 C 0.14469 0.03105 0.48483 0.0
C1420 C 0.16791 0.03604 0.46342 0.0
C1421 C 0.14476 0.02176 0.52639 0.0
C1422 C 0.168 1.01699 0.54778 0.0
H1423 H 0.12641 0.0334 0.46874 0.0
H1424 H 0.12653 1.01817 0.54209 0.0
S1425 S 0.23385 0.02946 0.50674 0.0
N1426 N 0.2146 0.037 0.46692 0.0
N1427 N 0.21481 0.02 0.5458 0.0
C1428 C 0.19137 0.02257 0.52713 0.0
C1429 C 0.19127 0.03202 0.48475 0.0
C1430 C 0.26332 0.88569 0.73252 0.0
C1431 C 0.25789 0.90804 0.70898 0.0
C1432 C 0.27153 0.88727 0.77477 0.0
C1433 C 0.27485 0.91121 0.79482 0.0
H1434 H 0.26219 0.8669 0.71773 0.0
H1435 H 0.27563 0.86968 0.79188 0.0
S1436 S 0.25985 0.97517 0.74877 0.0
N1437 N 0.25421 0.9546 0.70981 0.0
N1438 N 0.26952 0.95764 0.7894 0.0
C1439 C 0.26863 0.93367 0.77213 0.0
C1440 C 0.26017 0.93204 0.72919 0.0
C1441 C 0.34371 1.01737 0.99417 0.0
C1442 C 0.36656 1.01437 0.97078 0.0
C1443 C 0.34451 0.02613 0.03627 0.0
C1444 C 0.36818 0.03204 0.05592 0.0
H1445 H 0.32524 1.01315 0.97975 0.0
H1446 H 0.32669 0.02735 0.05402 0.0
S1447 S 0.43317 0.02663 0.00852 0.0
N1448 N 0.4133 1.0173 0.97049 0.0
N1449 N 0.41469 0.03417 0.04927 0.0
C1450 C 0.39098 0.02921 0.03269 0.0
C1451 C 0.39021 0.02021 0.99025 0.0
C1452 C 0.77307 0.93924 0.73708 0.0
C1453 C 0.77507 0.91566 0.71554 0.0
C1454 C 0.76441 0.94012 0.7791 0.0
C1455 C 0.7575 0.91741 0.80085 0.0
H1456 H 0.77757 0.95713 0.72101 0.0
H1457 H 0.76367 0.95861 0.79495 0.0
S1458 S 0.75994 0.85095 0.75856 0.0
N1459 N 0.77001 0.8692 0.71892 0.0
N1460 N 0.75358 0.87088 0.79804 0.0
C1461 C 0.75966 0.89378 0.7797 0.0
C1462 C 0.76848 0.89289 0.73704 0.0
C1463 C 0.84884 1.01728 0.48183 0.0
C1464 C 0.86984 0.02874 0.46093 0.0
C1465 C 0.84975 1.01228 0.52539 0.0
C1466 C 0.87196 1.0182 0.54914 0.0
H1467 H 0.83185 1.01171 0.46402 0.0
H1468 H 0.83298 1.00387 0.54051 0.0
S1469 S 0.93278 0.04652 0.50775 0.0
N1470 N 0.91355 0.04499 0.46603 0.0
N1471 N 0.91586 0.035 0.54793 0.0
C1472 C 0.89317 0.0295 0.52827 0.0
C1473 C 0.89197 0.03495 0.48412 0.0
C1474 C 0.76647 0.10405 0.28242 0.0
C1475 C 0.77229 0.12794 0.30123 0.0
C1476 C 0.75762 0.10259 0.24057 0.0
C1477 C 0.7542 0.12499 0.21612 0.0
H1478 H 0.76864 0.08639 0.30028 0.0
H1479 H 0.75439 0.08373 0.22685 0.0
S1480 S 0.76496 0.19217 0.25203 0.0
N1481 N 0.77284 0.17439 0.29347 0.0
N1482 N 0.75601 0.17173 0.21453 0.0
C1483 C 0.75921 0.14899 0.23509 0.0
C1484 C 0.76825 0.15044 0.2777 0.0
C1485 C 0.64593 1.01154 0.98664 0.0
C1486 C 0.6691 1.00559 0.96576 0.0
C1487 C 0.64588 0.02051 0.02843 0.0
C1488 C 0.669 0.02417 0.05074 0.0
H1489 H 0.62769 1.00934 0.97028 0.0
H1490 H 0.62763 0.0245 0.0437 0.0
S1491 S 0.73482 1.00995 0.01216 0.0
N1492 N 0.71591 1.00334 0.97137 0.0
N1493 N 0.71554 0.0197 0.05052 0.0
C1494 C 0.69232 1.01796 0.03076 0.0
C1495 C 0.69244 1.00872 0.98813 0.0
C1496 C 0.77629 0.60168 0.73794 0.0
C1497 C 0.77975 0.62432 0.71416 0.0
C1498 C 0.76827 0.60269 0.78021 0.0
C1499 C 0.76344 0.6264 0.80031 0.0
H1500 H 0.77908 0.58299 0.72348 0.0
H1501 H 0.76632 0.58477 0.79747 0.0
S1502 S 0.77063 0.69114 0.75248 0.0
N1503 N 0.77854 0.67107 0.71397 0.0
N1504 N 0.76332 0.67296 0.7938 0.0
C1505 C 0.76724 0.64916 0.77716 0.0
C1506 C 0.7754 0.64813 0.73404 0.0
C1507 C 0.64313 0.51514 0.0295 0.0
C1508 C 0.66663 0.51164 0.05083 0.0
C1509 C 0.64255 0.52273 0.98692 0.0
C1510 C 0.66545 0.52754 0.96444 0.0
H1511 H 0.6251 0.5121 0.04612 0.0
H1512 H 0.6241 0.52477 0.97124 0.0
S1513 S 0.73209 0.52145 1.00614 0.0
N1514 N 0.71339 0.51409 0.04676 0.0
N1515 N 0.71237 0.52771 0.9664 0.0
C1516 C 0.68913 0.52416 0.98546 0.0
C1517 C 0.68971 0.51632 0.02874 0.0
C1518 C 0.77437 0.43784 0.28109 0.0
C1519 C 0.77899 0.4148 0.30326 0.0
C1520 C 0.76679 0.43749 0.23851 0.0
C1521 C 0.76359 0.41409 0.21662 0.0
H1522 H 0.77619 0.45627 0.29694 0.0
H1523 H 0.76409 0.45566 0.22234 0.0
S1524 S 0.77292 0.34863 0.26046 0.0
N1525 N 0.77959 0.36812 0.3005 0.0
N1526 N 0.76524 0.36743 0.22018 0.0
C1527 C 0.76795 0.39098 0.23849 0.0
C1528 C 0.77562 0.39134 0.28187 0.0
C1529 C 0.84869 0.52085 0.52968 0.0
C1530 C 0.87239 0.52415 0.55077 0.0
C1531 C 0.84784 0.5135 0.48692 0.0
C1532 C 0.87064 0.50929 0.46381 0.0
H1533 H 0.83072 0.52348 0.54654 0.0
H1534 H 0.82923 0.51172 0.47161 0.0
S1535 S 0.93739 0.51507 0.50466 0.0
N1536 N 0.91903 0.52248 0.54568 0.0
N1537 N 0.91741 0.50859 0.46519 0.0
C1538 C 0.89438 0.51239 0.48463 0.0
C1539 C 0.89525 0.5198 0.52812 0.0
C1540 C 0.28094 0.43596 0.23463 0.0
C1541 C 0.28148 0.41292 0.21105 0.0
C1542 C 0.27333 0.43604 0.27719 0.0
C1543 C 0.26648 0.41305 0.29785 0.0
H1544 H 0.28514 0.45425 0.21963 0.0
H1545 H 0.27301 0.45415 0.29418 0.0
S1546 S 0.26724 0.34747 0.25184 0.0
N1547 N 0.27614 0.36642 0.21233 0.0
N1548 N 0.26234 0.36661 0.29293 0.0
C1549 C 0.26802 0.38983 0.27534 0.0
C1550 C 0.27544 0.38974 0.23184 0.0
C1551 C 0.35496 0.52161 0.98739 0.0
C1552 C 0.37781 0.52697 0.96499 0.0
C1553 C 0.3557 0.51267 0.02917 0.0
C1554 C 0.37931 0.50884 0.05019 0.0
H1555 H 0.33638 0.52385 0.97226 0.0
H1556 H 0.33761 0.50947 0.0455 0.0
S1557 S 0.44443 0.51995 1.00544 0.0
N1558 N 0.42458 0.52772 0.96655 0.0
N1559 N 0.42598 0.51098 0.04558 0.0
C1560 C 0.40225 0.5141 0.02816 0.0
C1561 C 0.40149 0.52312 0.98548 0.0
C1562 C 0.2678 0.6465 0.73607 0.0
C1563 C 0.26379 0.62318 0.71446 0.0
C1564 C 0.27531 0.64676 0.77867 0.0
C1565 C 0.27957 0.6237 0.80073 0.0
H1566 H 0.26511 0.66463 0.71973 0.0
H1567 H 0.27777 0.66507 0.79467 0.0
S1568 S 0.27202 0.55746 0.75815 0.0
N1569 N 0.26513 0.57642 0.71774 0.0
N1570 N 0.27872 0.57686 0.79823 0.0
C1571 C 0.27571 0.60019 0.77943 0.0
C1572 C 0.26794 0.59994 0.73613 0.0
C1573 C 0.18294 0.51654 0.48545 0.0
C1574 C 0.15927 0.51278 0.46452 0.0
C1575 C 0.18378 0.52373 0.52813 0.0
C1576 C 0.16098 0.52758 0.55136 0.0
H1577 H 0.20096 0.5143 0.46854 0.0
H1578 H 0.20242 0.52576 0.54326 0.0
S1579 S 0.09426 0.52066 0.51099 0.0
N1580 N 0.11263 0.51368 0.46976 0.0
N1581 N 0.1142 0.52736 0.55044 0.0
C1582 C 0.13723 0.52403 0.53078 0.0
C1583 C 0.13638 0.51669 0.48724 0.0
C1584 C 0.18259 0.08991 0.91113 0.0
C1585 C 0.1818 0.11538 0.92573 0.0
C1586 C 0.17657 0.08403 0.86904 0.0
C1587 C 0.16999 0.10353 0.84003 0.0
H1588 H 0.18778 0.0745 0.93259 0.0
H1589 H 0.17682 0.06404 0.85931 0.0
S1590 S 0.16758 0.17359 0.86235 0.0
N1591 N 0.17521 0.16038 0.90829 0.0
N1592 N 0.16445 0.14947 0.82849 0.0
C1593 C 0.1695 0.12916 0.85427 0.0
C1594 C 0.17532 0.13507 0.89732 0.0
C1595 C 0.1637 0.91849 0.15423 0.0
C1596 C 0.17937 0.93541 0.17797 0.0
C1597 C 0.16927 0.91297 0.11172 0.0
C1598 C 0.19057 0.92432 0.09139 0.0
H1599 H 0.14662 0.90996 0.16818 0.0
H1600 H 0.15681 0.89981 0.09458 0.0
S1601 S 0.23761 0.96996 0.13915 0.0
N1602 N 0.21804 0.96224 0.17836 0.0
N1603 N 0.22668 0.9541 0.09747 0.0
C1604 C 0.20632 0.94131 0.11465 0.0
C1605 C 0.20118 0.94627 0.15819 0.0
C1606 C 0.38319 0.9155 0.35524 0.0
C1607 C 0.36495 0.92578 0.32707 0.0
C1608 C 0.37703 0.91121 0.39786 0.0
C1609 C 0.3525 0.91724 0.414 0.0
H1610 H 0.40276 0.91201 0.34489 0.0
H1611 H 0.39186 0.90375 0.41858 0.0
S1612 S 0.29697 0.94192 0.35155 0.0
N1613 N 0.32047 0.93882 0.31668 0.0
N1614 N 0.30935 0.93282 0.39731 0.0
C1615 C 0.33366 0.92635 0.38551 0.0
C1616 C 0.3398 0.93009 0.34193 0.0
C1617 C 0.37242 0.12221 0.66336 0.0
C1618 C 0.37199 0.09614 0.67497 0.0
C1619 C 0.36507 0.1298 0.62263 0.0
C1620 C 0.35711 0.11152 0.59239 0.0
H1621 H 0.37796 0.13681 0.68622 0.0
H1622 H 0.36505 0.15013 0.61499 0.0
S1623 S 0.35566 0.04066 0.60554 0.0
N1624 N 0.36519 0.05184 0.65207 0.0
N1625 N 0.35109 0.06626 0.57545 0.0
C1626 C 0.35726 0.08536 0.60322 0.0
C1627 C 0.3648 0.07761 0.64459 0.0
C1628 C 0.83472 0.92802 0.1185 0.0
C1629 C 0.85208 0.91705 0.08947 0.0
C1630 C 0.84154 0.93181 0.16085 0.0
C1631 C 0.86612 0.92515 0.17589 0.0
H1632 H 0.816 0.9347 0.10827 0.0
H1633 H 0.82763 0.94071 0.18175 0.0
S1634 S 0.91783 0.8934 0.11378 0.0
N1635 N 0.89395 0.89702 0.07971 0.0
N1636 N 0.90747 0.9057 0.15893 0.0
C1637 C 0.88335 0.91315 0.14772 0.0
C1638 C 0.87619 0.90885 0.10458 0.0
C1639 C 0.8726 0.12434 0.91019 0.0
C1640 C 0.84769 0.11793 0.92447 0.0
C1641 C 0.87958 0.12116 0.86766 0.0
C1642 C 0.86184 0.11162 0.83777 0.0
H1643 H 0.887 0.13141 0.93223 0.0
H1644 H 0.89933 0.12511 0.85858 0.0
S1645 S 0.79344 0.09431 0.85742 0.0
N1646 N 0.8049 0.10237 0.90444 0.0
N1647 N 0.81761 0.09839 0.82411 0.0
C1648 C 0.83645 0.10659 0.85098 0.0
C1649 C 0.82946 0.10925 0.89442 0.0
C1650 C 0.66403 0.12334 0.61138 0.0
C1651 C 0.68101 0.10865 0.58659 0.0
C1652 C 0.65809 0.11618 0.65305 0.0
C1653 C 0.669 0.09412 0.67151 0.0
H1654 H 0.65584 0.14092 0.59894 0.0
H1655 H 0.64498 0.12811 0.67104 0.0
S1656 S 0.71374 0.04835 0.61887 0.0
N1657 N 0.70714 0.06997 0.5822 0.0
N1658 N 0.69769 0.05755 0.66137 0.0
C1659 C 0.68573 0.079 0.6467 0.0
C1660 C 0.69132 0.08603 0.60404 0.0
C1661 C 0.65304 0.92512 0.36825 0.0
C1662 C 0.67154 0.93272 0.33809 0.0
C1663 C 0.66035 0.91791 0.40925 0.0
C1664 C 0.68638 0.9181 0.42148 0.0
H1665 H 0.63273 0.92534 0.3604 0.0
H1666 H 0.64552 0.91258 0.4318 0.0
S1667 S 0.74244 0.93405 0.35299 0.0
N1668 N 0.71705 0.93848 0.32228 0.0
N1669 N 0.73088 0.92473 0.39932 0.0
C1670 C 0.70514 0.92512 0.39134 0.0
C1671 C 0.69768 0.93249 0.34963 0.0
C1672 C 0.69791 0.60262 0.3526 0.0
C1673 C 0.67478 0.61116 0.3343 0.0
C1674 C 0.70328 0.60677 0.39539 0.0
C1675 C 0.68591 0.62 0.42173 0.0
H1676 H 0.71183 0.59211 0.33385 0.0
H1677 H 0.72089 0.59878 0.40809 0.0
S1678 S 0.62342 0.64813 0.38878 0.0
N1679 N 0.63459 0.63417 0.34549 0.0
N1680 N 0.64543 0.64331 0.42575 0.0
C1681 C 0.66314 0.62963 0.40356 0.0
C1682 C 0.65746 0.62503 0.35986 0.0
C1683 C 0.66399 0.4378 0.60352 0.0
C1684 C 0.68327 0.42027 0.59187 0.0
C1685 C 0.65849 0.44249 0.64625 0.0
C1686 C 0.67171 0.4294 0.67851 0.0
H1687 H 0.65387 0.44867 0.57946 0.0
H1688 H 0.6441 0.45672 0.65429 0.0
S1689 S 0.72283 0.38065 0.66446 0.0
N1690 N 0.71485 0.38904 0.61566 0.0
N1691 N 0.70425 0.39776 0.69626 0.0
C1692 C 0.69034 0.41117 0.6673 0.0
C1693 C 0.69622 0.40666 0.62383 0.0
C1694 C 0.85911 0.44095 0.91397 0.0
C1695 C 0.85639 0.41483 0.92442 0.0
C1696 C 0.86599 0.44845 0.87289 0.0
C1697 C 0.86987 0.43017 0.84067 0.0
H1698 H 0.85619 0.45562 0.93792 0.0
H1699 H 0.86876 0.46866 0.86631 0.0
S1700 S 0.86336 0.35937 0.85128 0.0
N1701 N 0.85724 0.3706 0.89927 0.0
N1702 N 0.86965 0.38483 0.82157 0.0
C1703 C 0.86704 0.40396 0.85065 0.0
C1704 C 0.86035 0.39627 0.89266 0.0
C1705 C 0.87806 0.59158 0.13977 0.0
C1706 C 0.86696 0.60528 0.17348 0.0
C1707 C 0.87378 0.59902 0.09769 0.0
C1708 C 0.85782 0.62003 0.08817 0.0
H1709 H 0.89012 0.57506 0.14615 0.0
H1710 H 0.8823 0.58781 0.07238 0.0
S1711 S 0.82405 0.66178 0.16534 0.0
N1712 N 0.83956 0.64068 0.19499 0.0
N1713 N 0.83102 0.65443 0.11564 0.0
C1714 C 0.84665 0.63386 0.12167 0.0
C1715 C 0.85138 0.62655 0.16446 0.0
C1716 C 0.35068 0.44532 0.60476 0.0
C1717 C 0.35955 0.42208 0.58732 0.0
C1718 C 0.35583 0.45185 0.64687 0.0
C1719 C 0.37017 0.43544 0.67322 0.0
H1720 H 0.33933 0.45845 0.58583 0.0
H1721 H 0.34779 0.46953 0.65916 0.0
S1722 S 0.39933 0.37313 0.64216 0.0
N1723 N 0.38403 0.3829 0.5992 0.0
N1724 N 0.39473 0.39578 0.67813 0.0
C1725 C 0.38 0.41257 0.65582 0.0
C1726 C 0.37454 0.40578 0.61287 0.0
C1727 C 0.3489 0.59299 0.4065 0.0
C1728 C 0.35749 0.61628 0.42443 0.0
C1729 C 0.35432 0.58678 0.36436 0.0
C1730 C 0.36871 0.60356 0.33845 0.0
H1731 H 0.33772 0.57945 0.42513 0.0
H1732 H 0.34664 0.56892 0.35179 0.0
S1733 S 0.39655 0.6666 0.37044 0.0
N1734 N 0.38122 0.65625 0.41308 0.0
N1735 N 0.39251 0.64394 0.33424 0.0
C1736 C 0.37797 0.62668 0.35617 0.0
C1737 C 0.37219 0.63315 0.39911 0.0
C1738 C 0.16742 0.63084 0.11011 0.0
C1739 C 0.18273 0.61389 0.08616 0.0
C1740 C 0.16198 0.62593 0.15291 0.0
C1741 C 0.17165 0.60391 0.17314 0.0
H1742 H 0.16018 0.64839 0.09606 0.0
H1743 H 0.15015 0.63941 0.17034 0.0
S1744 S 0.21286 0.55355 0.1247 0.0
N1745 N 0.20656 0.57362 0.08557 0.0
N1746 N 0.19808 0.56553 0.16658 0.0
C1747 C 0.18698 0.58681 0.14958 0.0
C1748 C 0.19206 0.59151 0.10594 0.0
C1749 C 0.15753 0.4448 0.87096 0.0
C1750 C 0.16997 0.43038 0.83929 0.0
C1751 C 0.16174 0.43963 0.91399 0.0
C1752 C 0.17889 0.42025 0.92647 0.0
H1753 H 0.14481 0.46041 0.86227 0.0
H1754 H 0.1525 0.45159 0.93763 0.0
S1755 S 0.21538 0.37652 0.85596 0.0
N1756 N 0.19929 0.39539 0.82324 0.0
N1757 N 0.2074 0.38584 0.9043 0.0
C1758 C 0.19084 0.40525 0.89516 0.0
C1759 C 0.1863 0.41026 0.85145 0.0
C1760 C 0.22501 0.25748 0.02964 0.0
C1761 C 0.24733 0.24381 0.01818 0.0
C1762 C 0.22475 0.28448 0.03077 0.0
C1763 C 0.2468 0.29912 0.02049 0.0
H1764 H 0.20774 0.24716 0.03907 0.0
H1765 H 0.20725 0.29399 0.04086 0.0
S1766 S 0.30986 0.27285 0.98631 0.0
N1767 N 0.29178 0.24703 0.99446 0.0
N1768 N 0.29131 0.29787 0.99655 0.0
C1769 C 0.2689 0.28579 1.00695 0.0
C1770 C 0.26917 0.25815 1.0058 0.0
C1771 C 1.00693 1.01705 0.25788 0.0
C1772 C 0.99291 0.99757 0.27887 0.0
C1773 C 0.03416 1.01736 0.25843 0.0
C1774 C 0.04818 0.9982 0.27998 0.0
H1775 H 0.99681 0.03267 0.2425 0.0
H1776 H 0.04424 0.03326 0.24349 0.0
S1777 S 0.02036 0.94101 0.33415 0.0
N1778 N 0.99502 0.95738 0.31788 0.0
N1779 N 0.0458 0.95769 0.31844 0.0
C1780 C 0.03425 0.97787 0.29879 0.0
C1781 C 1.00673 0.97764 0.29837 0.0
C1782 C 0.29186 0.75402 0.48771 0.0
C1783 C 0.27865 0.74085 0.52027 0.0
C1784 C 0.29261 0.78118 0.48651 0.0
C1785 C 0.28013 0.79595 0.51777 0.0
H1786 H 0.30296 0.74333 0.46459 0.0
H1787 H 0.30418 0.79064 0.46247 0.0
S1788 S 0.24 0.77093 0.60592 0.0
N1789 N 0.25045 0.74484 0.5815 0.0
N1790 N 0.25222 0.79557 0.57946 0.0
C1791 C 0.26555 0.78302 0.54868 0.0
C1792 C 0.26469 0.75556 0.54984 0.0
C1793 C 0.50536 1.00051 0.80673 0.0
C1794 C 0.4908 1.01536 0.77807 0.0
C1795 C 0.53242 1.00081 0.80609 0.0
C1796 C 0.5462 1.01577 0.77651 0.0
H1797 H 0.49574 0.9893 0.83106 0.0
H1798 H 0.54269 0.98998 0.83005 0.0
S1799 S 0.51765 0.05705 0.69306 0.0
N1800 N 0.49246 0.04468 0.71798 0.0
N1801 N 0.54334 0.04485 0.71646 0.0
C1802 C 0.53202 0.02957 0.74611 0.0
C1803 C 0.50434 0.02943 0.74692 0.0
C1804 C 0.27679 0.78328 1.00036 0.0
C1805 C 0.25371 0.79711 0.9948 0.0
C1806 C 0.27687 0.75605 1.00088 0.0
C1807 C 0.25386 0.7418 0.99598 0.0
H1808 H 0.29502 0.7935 1.00196 0.0
H1809 H 0.29513 0.74611 1.00281 0.0
S1810 S 0.18806 0.76878 0.98686 0.0
N1811 N 0.20706 0.79435 0.9892 0.0
N1812 N 0.20728 0.7436 0.98987 0.0
C1813 C 0.23061 0.75547 0.9932 0.0
C1814 C 0.23051 0.78298 0.99272 0.0
C1815 C 0.53279 0.03432 0.23073 0.0
C1816 C 0.54719 1.01578 0.25291 0.0
C1817 C 0.50573 0.03379 0.23064 0.0
C1818 C 0.4918 1.01461 0.25257 0.0
H1819 H 0.54257 0.04861 0.21146 0.0
H1820 H 0.49562 0.04777 0.21141 0.0
S1821 S 0.52024 0.96269 0.31813 0.0
N1822 N 0.54548 0.9787 0.29973 0.0
N1823 N 0.49457 0.97757 0.29939 0.0
C1824 C 0.5059 0.99695 0.27716 0.0
C1825 C 0.53358 0.99756 0.27734 0.0
C1826 C 0.30928 0.25341 0.47888 0.0
C1827 C 0.28722 0.2396 0.49156 0.0
C1828 C 0.30979 0.28041 0.47904 0.0
C1829 C 0.28813 0.2949 0.49139 0.0
H1830 H 0.32609 0.24322 0.46748 0.0
H1831 H 0.32712 0.29003 0.46805 0.0
S1832 S 0.22606 0.26788 0.52996 0.0
N1833 N 0.24369 0.24224 0.51935 0.0
N1834 N 0.24438 0.29314 0.51896 0.0
C1835 C 0.26635 0.28131 0.50623 0.0
C1836 C 0.26594 0.25365 0.50638 0.0
C1837 C 0.033 0.05759 0.73487 0.0
C1838 C 0.04643 0.03541 0.74768 0.0
C1839 C 1.00599 0.05839 0.73498 0.0
C1840 C 0.99111 0.03709 0.74801 0.0
H1841 H 0.04349 0.07415 0.72287 0.0
H1842 H 0.99661 0.07552 0.72303 0.0
S1843 S 1.0167 0.9751 0.78779 0.0
N1844 N 0.04279 0.99217 0.77644 0.0
N1845 N 0.99183 0.99373 0.77678 0.0
C1846 C 1.00421 1.01534 0.76341 0.0
C1847 C 0.0319 1.0145 0.76324 0.0
C1848 C 0.78745 0.78637 0.01757 0.0
C1849 C 0.77751 0.79995 0.98252 0.0
C1850 C 0.78831 0.75917 0.01779 0.0
C1851 C 0.77924 0.74465 0.98298 0.0
H1852 H 0.79579 0.79683 0.04401 0.0
H1853 H 0.79729 0.74954 0.0444 0.0
S1854 S 0.74764 0.77086 0.88668 0.0
N1855 N 0.75575 0.79663 0.91447 0.0
N1856 N 0.75728 0.74593 0.91492 0.0
C1857 C 0.76777 0.75804 0.94912 0.0
C1858 C 0.76693 0.78554 0.94888 0.0
C1859 C 0.72693 0.25911 0.48863 0.0
C1860 C 0.7494 0.24487 0.49688 0.0
C1861 C 0.72723 0.28611 0.48847 0.0
C1862 C 0.75001 0.30015 0.49648 0.0
H1863 H 0.70908 0.24926 0.48084 0.0
H1864 H 0.70957 0.2961 0.48066 0.0
S1865 S 0.81375 0.27218 0.52245 0.0
N1866 N 0.7948 0.24684 0.51558 0.0
N1867 N 0.79539 0.29772 0.51519 0.0
C1868 C 0.77233 0.28622 0.50705 0.0
C1869 C 0.77202 0.25858 0.50725 0.0
C1870 C 0.78402 0.25156 0.99857 0.0
C1871 C 0.7742 0.23743 0.0332 0.0
C1872 C 0.78382 0.27876 0.99854 0.0
C1873 C 0.77371 0.29274 0.03307 0.0
H1874 H 0.79307 0.24157 0.97238 0.0
H1875 H 0.79288 0.28888 0.97241 0.0
S1876 S 0.74201 0.26463 0.12809 0.0
N1877 N 0.75161 0.23939 0.10052 0.0
N1878 N 0.75082 0.29012 0.10025 0.0
C1879 C 0.76227 0.27867 0.06638 0.0
C1880 C 0.76265 0.25116 0.06652 0.0
C1881 C 0.7512 0.77967 0.497 0.0
C1882 C 0.76406 0.79339 0.52939 0.0
C1883 C 0.75053 0.7525 0.49681 0.0
C1884 C 0.76264 0.73823 0.52906 0.0
H1885 H 0.74037 0.78995 0.47307 0.0
H1886 H 0.73933 0.74268 0.47266 0.0
S1887 S 0.80215 0.76471 0.61701 0.0
N1888 N 0.79182 0.79038 0.59137 0.0
N1889 N 0.7901 0.73965 0.59135 0.0
C1890 C 0.77689 0.75168 0.55989 0.0
C1891 C 0.77774 0.77915 0.55994 0.0
C1892 C 0.53353 0.52118 0.76661 0.0
C1893 C 0.54705 0.49803 0.77288 0.0
C1894 C 0.50631 0.52166 0.76683 0.0
C1895 C 0.49176 0.499 0.77335 0.0
H1896 H 0.54404 0.53917 0.76366 0.0
H1897 H 0.49665 0.54002 0.76404 0.0
S1898 S 0.51808 0.43301 0.78451 0.0
N1899 N 0.54386 0.45167 0.78112 0.0
N1900 N 0.49307 0.45245 0.78101 0.0
C1901 C 0.50517 0.47559 0.77681 0.0
C1902 C 0.53269 0.47514 0.77673 0.0
C1903 C 0.03044 0.51915 0.31029 0.0
C1904 C 0.04428 0.53039 0.2766 0.0
C1905 C 1.00343 0.51823 0.31023 0.0
C1906 C 0.98896 0.52861 0.27657 0.0
H1907 H 0.04061 0.51169 0.33765 0.0
H1908 H 0.99372 0.51006 0.33756 0.0
S1909 S 1.01587 0.55925 0.1798 0.0
N1910 N 0.04154 0.55113 0.20771 0.0
N1911 N 0.99065 0.54961 0.20771 0.0
C1912 C 1.00254 0.53883 0.24169 0.0
C1913 C 0.0302 0.53969 0.24169 0.0
C1914 C 0.03629 0.5238 0.75459 0.0
C1915 C 0.04932 0.50036 0.74807 0.0
C1916 C 1.00906 0.52486 0.75457 0.0
C1917 C 0.99405 0.5025 0.74819 0.0
H1918 H 0.04717 0.54158 0.75733 0.0
H1919 H 0.99975 0.54341 0.75725 0.0
S1920 S 1.01873 0.43604 0.73574 0.0
N1921 N 0.04497 0.45403 0.73967 0.0
N1922 N 0.9942 0.45607 0.73946 0.0
C1923 C 1.0069 0.47885 0.7444 0.0
C1924 C 0.0344 0.47776 0.74441 0.0
C1925 C 0.50807 0.51647 0.25178 0.0
C1926 C 0.49411 0.53925 0.24438 0.0
C1927 C 0.5353 0.51656 0.25212 0.0
C1928 C 0.54937 0.53944 0.24518 0.0
H1929 H 0.49794 0.49829 0.25504 0.0
H1930 H 0.54536 0.49845 0.25552 0.0
S1931 S 0.52197 0.60468 0.231 0.0
N1932 N 0.4965 0.58563 0.23494 0.0
N1933 N 0.5473 0.58575 0.23544 0.0
C1934 C 0.53557 0.5625 0.24063 0.0
C1935 C 0.50805 0.56242 0.24027 0.0
loop_
_geom_bond_atom_site_label_1
_geom_bond_atom_site_label_2
_geom_bond_distance
_geom_bond_site_symmetry_2
_ccdc_geom_bond_type
C0 C1 1.351 1_554 S
C0 N3 1.368 . S
C0 H5 0.931 . S
C1 C0 1.351 1_556 S
C1 N2 1.373 . S
C1 H29 0.930 . S
N2 C1 1.373 . S
N2 C4 1.340 . S
N3 C0 1.368 . S
N3 C4 1.321 1_554 S
N3 Co6 2.135 . S
C4 N2 1.340 . S
C4 N3 1.321 1_556 S
C4 H28 0.930 . S
H5 C0 0.931 . S
Co6 N3 2.135 . S
Co6 N9 2.121 . S
Co6 O14 2.055 . S
Co6 O17 2.039 . S
Co6 N20 2.140 . S
C7 O8 1.227 1_554 S
C7 O17 1.265 . S
O8 C7 1.227 1_556 S
N9 Co6 2.121 . S
N9 C11 1.375 . S
N9 C12 1.313 . S
C10 C11 1.338 . S
C10 N13 1.377 . S
C10 H30 0.930 . S
C11 N9 1.375 . S
C11 C10 1.338 . S
C11 H15 0.931 . S
C12 N9 1.313 . S
C12 N13 1.344 . S
C12 H16 0.930 . S
N13 C10 1.377 . S
N13 C12 1.344 . S
O14 Co6 2.055 . S
O14 C18 1.253 . S
H15 C11 0.931 . S
H16 C12 0.930 . S
O17 Co6 2.039 . S
O17 C7 1.265 . S
C18 O14 1.253 . S
C18 O19 1.227 . S
O19 C18 1.227 . S
N20 Co6 2.140 . S
N20 C23 1.346 . S
N20 C24 1.345 . S
C21 C22 1.387 . S
C21 C25 1.391 . S
C22 C21 1.387 . S
C22 C23 1.369 . S
C22 H31 0.929 1_554 S
C23 N20 1.346 . S
C23 C22 1.369 . S
C23 H26 0.928 1_554 S
C24 N20 1.345 . S
C24 C25 1.371 . S
C24 H27 0.931 . S
C25 C21 1.391 . S
C25 C24 1.371 . S
C25 H32 0.930 . S
H26 C23 0.928 1_556 S
H27 C24 0.931 . S
H28 C4 0.930 . S
H29 C1 0.930 . S
H30 C10 0.930 . S
H31 C22 0.929 1_556 S
H32 C25 0.930 . S
C33 C34 1.351 . S
C33 N36 1.368 . S
C33 H38 0.931 . S
C34 C33 1.351 . S
C34 N35 1.373 . S
C34 H62 0.930 . S
N35 C34 1.373 . S
N35 C37 1.340 . S
N36 C33 1.368 . S
N36 C37 1.321 . S
N36 Co39 2.135 . S
C37 N35 1.340 . S
C37 N36 1.321 . S
C37 H61 0.930 . S
H38 C33 0.931 . S
Co39 N36 2.135 . S
Co39 N42 2.121 . S
Co39 O47 2.055 . S
Co39 O50 2.039 . S
Co39 N53 2.140 . S
C40 O41 1.227 . S
C40 O50 1.265 . S
O41 C40 1.227 . S
N42 Co39 2.121 . S
N42 C44 1.397 . S
N42 C45 1.313 . S
C43 C44 1.327 1_545 S
C43 N46 1.377 1_545 S
C43 H63 0.930 . S
C44 N42 1.397 . S
C44 C43 1.327 1_565 S
C44 H48 0.921 1_565 S
C45 N42 1.313 . S
C45 N46 1.344 . S
C45 H49 0.930 . S
N46 C43 1.377 1_565 S
N46 C45 1.344 . S
O47 Co39 2.055 . S
O47 C51 1.253 . S
H48 C44 0.921 1_545 S
H49 C45 0.930 . S
O50 Co39 2.039 . S
O50 C40 1.265 . S
C51 O47 1.253 . S
C51 O52 1.227 . S
O52 C51 1.227 . S
N53 Co39 2.140 . S
N53 C56 1.346 . S
N53 C57 1.345 . S
C54 C55 1.387 . S
C54 C58 1.391 . S
C55 C54 1.387 . S
C55 C56 1.369 . S
C55 H64 0.929 . S
C56 N53 1.346 . S
C56 C55 1.369 . S
C56 H59 0.928 . S
C57 N53 1.345 . S
C57 C58 1.371 . S
C57 H60 0.931 . S
C58 C54 1.391 . S
C58 C57 1.371 . S
C58 H65 0.930 . S
H59 C56 0.928 . S
H60 C57 0.931 . S
H61 C37 0.930 . S
H62 C34 0.930 . S
H63 C43 0.930 . S
H64 C55 0.929 . S
H65 C58 0.930 . S
C66 C67 1.351 . S
C66 N69 1.368 . S
C66 H71 0.931 . S
C67 C66 1.351 . S
C67 N68 1.373 . S
C67 H95 0.930 . S
N68 C67 1.373 . S
N68 C70 1.340 . S
N69 C66 1.368 . S
N69 C70 1.321 . S
N69 Co72 2.135 . S
C70 N68 1.340 . S
C70 N69 1.321 . S
C70 H94 0.930 . S
H71 C66 0.931 . S
Co72 N69 2.135 . S
Co72 N75 2.121 . S
Co72 O80 2.055 . S
Co72 O83 2.039 . S
Co72 N86 2.140 . S
C73 O74 1.227 . S
C73 O83 1.265 . S
O74 C73 1.227 . S
N75 Co72 2.121 . S
N75 C77 1.375 . S
N75 C78 1.313 . S
C76 C77 1.338 . S
C76 N79 1.377 . S
C76 H96 0.930 . S
C77 N75 1.375 . S
C77 C76 1.338 . S
C77 H81 0.931 . S
C78 N75 1.313 . S
C78 N79 1.344 . S
C78 H82 0.930 . S
N79 C76 1.377 . S
N79 C78 1.344 . S
O80 Co72 2.055 . S
O80 C84 1.253 . S
H81 C77 0.931 . S
H82 C78 0.930 . S
O83 Co72 2.039 . S
O83 C73 1.265 . S
C84 O80 1.253 . S
C84 O85 1.227 . S
O85 C84 1.227 . S
N86 Co72 2.140 . S
N86 C89 1.346 . S
N86 C90 1.345 . S
C87 C88 1.387 . S
C87 C91 1.391 . S
C88 C87 1.387 . S
C88 C89 1.369 . S
C88 H97 0.929 . S
C89 N86 1.346 . S
C89 C88 1.369 . S
C89 H92 0.928 . S
C90 N86 1.345 . S
C90 C91 1.371 . S
C90 H93 0.931 . S
C91 C87 1.391 . S
C91 C90 1.371 . S
C91 H98 0.930 . S
H92 C89 0.928 . S
H93 C90 0.931 . S
H94 C70 0.930 . S
H95 C67 0.930 . S
H96 C76 0.930 . S
H97 C88 0.929 . S
H98 C91 0.930 . S
C99 C100 1.351 . S
C99 N102 1.368 . S
C99 H104 0.931 . S
C100 C99 1.351 . S
C100 N101 1.373 . S
C100 H128 0.930 . S
N101 C100 1.373 . S
N101 C103 1.340 . S
N102 C99 1.368 . S
N102 C103 1.321 . S
N102 Co105 2.135 . S
C103 N101 1.340 . S
C103 N102 1.321 . S
C103 H127 0.930 . S
H104 C99 0.931 . S
Co105 N102 2.135 . S
Co105 N108 2.121 . S
Co105 O113 2.055 . S
Co105 O116 2.039 . S
Co105 N119 2.140 . S
C106 O107 1.227 . S
C106 O116 1.265 . S
O107 C106 1.227 . S
N108 Co105 2.121 . S
N108 C110 1.397 . S
N108 C111 1.313 . S
C109 C110 1.327 1_565 S
C109 N112 1.377 1_565 S
C109 H129 0.930 . S
C110 N108 1.397 . S
C110 C109 1.327 1_545 S
C110 H114 0.921 1_545 S
C111 N108 1.313 . S
C111 N112 1.344 . S
C111 H115 0.930 . S
N112 C109 1.377 1_545 S
N112 C111 1.344 . S
O113 Co105 2.055 . S
O113 C117 1.253 . S
H114 C110 0.921 1_565 S
H115 C111 0.930 . S
O116 Co105 2.039 . S
O116 C106 1.265 . S
C117 O113 1.253 . S
C117 O118 1.227 . S
O118 C117 1.227 . S
N119 Co105 2.140 . S
N119 C122 1.346 . S
N119 C123 1.345 . S
C120 C121 1.387 . S
C120 C124 1.391 . S
C121 C120 1.387 . S
C121 C122 1.369 . S
C121 H130 0.929 . S
C122 N119 1.346 . S
C122 C121 1.369 . S
C122 H125 0.928 . S
C123 N119 1.345 . S
C123 C124 1.371 . S
C123 H126 0.931 . S
C124 C120 1.391 . S
C124 C123 1.371 . S
C124 H131 0.930 . S
H125 C122 0.928 . S
H126 C123 0.931 . S
H127 C103 0.930 . S
H128 C100 0.930 . S
H129 C109 0.930 . S
H130 C121 0.929 . S
H131 C124 0.930 . S
C132 C133 1.351 1_556 S
C132 N135 1.368 . S
C132 H137 0.931 . S
C133 C132 1.351 1_554 S
C133 N134 1.373 . S
C133 H161 0.930 . S
N134 C133 1.373 . S
N134 C136 1.340 . S
N135 C132 1.368 . S
N135 C136 1.321 1_556 S
N135 Co138 2.135 . S
C136 N134 1.340 . S
C136 N135 1.321 1_554 S
C136 H160 0.930 . S
H137 C132 0.931 . S
Co138 N135 2.135 . S
Co138 N141 2.121 . S
Co138 O146 2.055 . S
Co138 O149 2.039 . S
Co138 N152 2.140 . S
C139 O140 1.227 1_556 S
C139 O149 1.265 . S
O140 C139 1.227 1_554 S
N141 Co138 2.121 . S
N141 C143 1.375 . S
N141 C144 1.313 . S
C142 C143 1.338 . S
C142 N145 1.377 . S
C142 H162 0.930 . S
C143 N141 1.375 . S
C143 C142 1.338 . S
C143 H147 0.931 . S
C144 N141 1.313 . S
C144 N145 1.344 . S
C144 H148 0.930 . S
N145 C142 1.377 . S
N145 C144 1.344 . S
O146 Co138 2.055 . S
O146 C150 1.253 . S
H147 C143 0.931 . S
H148 C144 0.930 . S
O149 Co138 2.039 . S
O149 C139 1.265 . S
C150 O146 1.253 . S
C150 O151 1.227 . S
O151 C150 1.227 . S
N152 Co138 2.140 . S
N152 C155 1.346 . S
N152 C156 1.345 . S
C153 C154 1.387 . S
C153 C157 1.391 . S
C154 C153 1.387 . S
C154 C155 1.369 . S
C154 H163 0.929 1_556 S
C155 N152 1.346 . S
C155 C154 1.369 . S
C155 H158 0.928 1_556 S
C156 N152 1.345 . S
C156 C157 1.371 . S
C156 H159 0.931 . S
C157 C153 1.391 . S
C157 C156 1.371 . S
C157 H164 0.930 . S
H158 C155 0.928 1_554 S
H159 C156 0.931 . S
H160 C136 0.930 . S
H161 C133 0.930 . S
H162 C142 0.930 . S
H163 C154 0.929 1_554 S
H164 C157 0.930 . S
C165 C166 1.351 . S
C165 N168 1.368 . S
C165 H170 0.931 . S
C166 C165 1.351 . S
C166 N167 1.373 . S
C166 H194 0.930 . S
N167 C166 1.373 . S
N167 C169 1.340 . S
N168 C165 1.368 . S
N168 C169 1.321 . S
N168 Co171 2.135 . S
C169 N167 1.340 . S
C169 N168 1.321 . S
C169 H193 0.930 . S
H170 C165 0.931 . S
Co171 N168 2.135 . S
Co171 N174 2.121 . S
Co171 O179 2.055 . S
Co171 O182 2.039 . S
Co171 N185 2.140 . S
C172 O173 1.227 . S
C172 O182 1.265 . S
O173 C172 1.227 . S
N174 Co171 2.121 . S
N174 C176 1.397 . S
N174 C177 1.313 . S
C175 C176 1.327 1_545 S
C175 N178 1.377 1_545 S
C175 H195 0.930 . S
C176 N174 1.397 . S
C176 C175 1.327 1_565 S
C176 H180 0.921 1_565 S
C177 N174 1.313 . S
C177 N178 1.344 . S
C177 H181 0.930 . S
N178 C175 1.377 1_565 S
N178 C177 1.344 . S
O179 Co171 2.055 . S
O179 C183 1.253 . S
H180 C176 0.921 1_545 S
H181 C177 0.930 . S
O182 Co171 2.039 . S
O182 C172 1.265 . S
C183 O179 1.253 . S
C183 O184 1.227 . S
O184 C183 1.227 . S
N185 Co171 2.140 . S
N185 C188 1.346 . S
N185 C189 1.345 . S
C186 C187 1.387 . S
C186 C190 1.391 . S
C187 C186 1.387 . S
C187 C188 1.369 . S
C187 H196 0.929 . S
C188 N185 1.346 . S
C188 C187 1.369 . S
C188 H191 0.928 . S
C189 N185 1.345 . S
C189 C190 1.371 . S
C189 H192 0.931 . S
C190 C186 1.391 . S
C190 C189 1.371 . S
C190 H197 0.930 . S
H191 C188 0.928 . S
H192 C189 0.931 . S
H193 C169 0.930 . S
H194 C166 0.930 . S
H195 C175 0.930 . S
H196 C187 0.929 . S
H197 C190 0.930 . S
C198 C199 1.351 . S
C198 N201 1.368 . S
C198 H203 0.931 . S
C199 C198 1.351 . S
C199 N200 1.373 . S
C199 H227 0.930 . S
N200 C199 1.373 . S
N200 C202 1.340 . S
N201 C198 1.368 . S
N201 C202 1.321 . S
N201 Co204 2.135 . S
C202 N200 1.340 . S
C202 N201 1.321 . S
C202 H226 0.930 . S
H203 C198 0.931 . S
Co204 N201 2.135 . S
Co204 N207 2.121 . S
Co204 O212 2.055 . S
Co204 O215 2.039 . S
Co204 N218 2.140 . S
C205 O206 1.227 . S
C205 O215 1.265 . S
O206 C205 1.227 . S
N207 Co204 2.121 . S
N207 C209 1.375 . S
N207 C210 1.313 . S
C208 C209 1.338 . S
C208 N211 1.377 . S
C208 H228 0.930 . S
C209 N207 1.375 . S
C209 C208 1.338 . S
C209 H213 0.931 . S
C210 N207 1.313 . S
C210 N211 1.344 . S
C210 H214 0.930 . S
N211 C208 1.377 . S
N211 C210 1.344 . S
O212 Co204 2.055 . S
O212 C216 1.253 . S
H213 C209 0.931 . S
H214 C210 0.930 . S
O215 Co204 2.039 . S
O215 C205 1.265 . S
C216 O212 1.253 . S
C216 O217 1.227 . S
O217 C216 1.227 . S
N218 Co204 2.140 . S
N218 C221 1.346 . S
N218 C222 1.345 . S
C219 C220 1.387 . S
C219 C223 1.391 . S
C220 C219 1.387 . S
C220 C221 1.369 . S
C220 H229 0.929 . S
C221 N218 1.346 . S
C221 C220 1.369 . S
C221 H224 0.928 . S
C222 N218 1.345 . S
C222 C223 1.371 . S
C222 H225 0.931 . S
C223 C219 1.391 . S
C223 C222 1.371 . S
C223 H230 0.930 . S
H224 C221 0.928 . S
H225 C222 0.931 . S
H226 C202 0.930 . S
H227 C199 0.930 . S
H228 C208 0.930 . S
H229 C220 0.929 . S
H230 C223 0.930 . S
C231 C232 1.351 . S
C231 N234 1.368 . S
C231 H236 0.931 . S
C232 C231 1.351 . S
C232 N233 1.373 . S
C232 H260 0.930 . S
N233 C232 1.373 . S
N233 C235 1.340 . S
N234 C231 1.368 . S
N234 C235 1.321 . S
N234 Co237 2.135 . S
C235 N233 1.340 . S
C235 N234 1.321 . S
C235 H259 0.930 . S
H236 C231 0.931 . S
Co237 N234 2.135 . S
Co237 N240 2.121 . S
Co237 O245 2.055 . S
Co237 O248 2.039 . S
Co237 N251 2.140 . S
C238 O239 1.227 . S
C238 O248 1.265 . S
O239 C238 1.227 . S
N240 Co237 2.121 . S
N240 C242 1.397 . S
N240 C243 1.313 . S
C241 C242 1.327 1_565 S
C241 N244 1.377 1_565 S
C241 H261 0.930 . S
C242 N240 1.397 . S
C242 C241 1.327 1_545 S
C242 H246 0.921 1_545 S
C243 N240 1.313 . S
C243 N244 1.344 . S
C243 H247 0.930 . S
N244 C241 1.377 1_545 S
N244 C243 1.344 . S
O245 Co237 2.055 . S
O245 C249 1.253 . S
H246 C242 0.921 1_565 S
H247 C243 0.930 . S
O248 Co237 2.039 . S
O248 C238 1.265 . S
C249 O245 1.253 . S
C249 O250 1.227 . S
O250 C249 1.227 . S
N251 Co237 2.140 . S
N251 C254 1.346 . S
N251 C255 1.345 . S
C252 C253 1.387 . S
C252 C256 1.391 . S
C253 C252 1.387 . S
C253 C254 1.369 . S
C253 H262 0.929 . S
C254 N251 1.346 . S
C254 C253 1.369 . S
C254 H257 0.928 . S
C255 N251 1.345 . S
C255 C256 1.371 . S
C255 H258 0.931 . S
C256 C252 1.391 . S
C256 C255 1.371 . S
C256 H263 0.930 . S
H257 C254 0.928 . S
H258 C255 0.931 . S
H259 C235 0.930 . S
H260 C232 0.930 . S
H261 C241 0.930 . S
H262 C253 0.929 . S
H263 C256 0.930 . S
C264 C265 1.351 1_556 S
C264 N267 1.368 . S
C264 H269 0.931 . S
C265 C264 1.351 1_554 S
C265 N266 1.373 . S
C265 H293 0.930 . S
N266 C265 1.373 . S
N266 C268 1.340 . S
N267 C264 1.368 . S
N267 C268 1.321 1_556 S
N267 Co270 2.135 . S
C268 N266 1.340 . S
C268 N267 1.321 1_554 S
C268 H292 0.930 . S
H269 C264 0.931 . S
Co270 N267 2.135 . S
Co270 N273 2.121 . S
Co270 O278 2.055 . S
Co270 O281 2.039 . S
Co270 N284 2.140 . S
C271 O272 1.227 1_556 S
C271 O281 1.265 . S
O272 C271 1.227 1_554 S
N273 Co270 2.121 . S
N273 C275 1.375 . S
N273 C276 1.313 . S
C274 C275 1.338 . S
C274 N277 1.377 . S
C274 H294 0.930 . S
C275 N273 1.375 . S
C275 C274 1.338 . S
C275 H279 0.931 . S
C276 N273 1.313 . S
C276 N277 1.344 . S
C276 H280 0.930 . S
N277 C274 1.377 . S
N277 C276 1.344 . S
O278 Co270 2.055 . S
O278 C282 1.253 . S
H279 C275 0.931 . S
H280 C276 0.930 . S
O281 Co270 2.039 . S
O281 C271 1.265 . S
C282 O278 1.253 . S
C282 O283 1.227 . S
O283 C282 1.227 . S
N284 Co270 2.140 . S
N284 C287 1.346 . S
N284 C288 1.345 . S
C285 C286 1.387 . S
C285 C289 1.391 . S
C286 C285 1.387 . S
C286 C287 1.369 . S
C286 H295 0.929 1_556 S
C287 N284 1.346 . S
C287 C286 1.369 . S
C287 H290 0.928 1_556 S
C288 N284 1.345 . S
C288 C289 1.371 . S
C288 H291 0.931 . S
C289 C285 1.391 . S
C289 C288 1.371 . S
C289 H296 0.930 . S
H290 C287 0.928 1_554 S
H291 C288 0.931 . S
H292 C268 0.930 . S
H293 C265 0.930 . S
H294 C274 0.930 . S
H295 C286 0.929 1_554 S
H296 C289 0.930 . S
C297 C298 1.351 . S
C297 N300 1.368 . S
C297 H302 0.931 . S
C298 C297 1.351 . S
C298 N299 1.373 . S
C298 H326 0.930 . S
N299 C298 1.373 . S
N299 C301 1.340 . S
N300 C297 1.368 . S
N300 C301 1.321 . S
N300 Co303 2.135 . S
C301 N299 1.340 . S
C301 N300 1.321 . S
C301 H325 0.930 . S
H302 C297 0.931 . S
Co303 N300 2.135 . S
Co303 N306 2.121 . S
Co303 O311 2.055 . S
Co303 O314 2.039 . S
Co303 N317 2.140 . S
C304 O305 1.227 . S
C304 O314 1.265 . S
O305 C304 1.227 . S
N306 Co303 2.121 . S
N306 C308 1.397 . S
N306 C309 1.313 . S
C307 C308 1.327 1_565 S
C307 N310 1.377 1_565 S
C307 H327 0.930 . S
C308 N306 1.397 . S
C308 C307 1.327 1_545 S
C308 H312 0.921 1_545 S
C309 N306 1.313 . S
C309 N310 1.344 . S
C309 H313 0.930 . S
N310 C307 1.377 1_545 S
N310 C309 1.344 . S
O311 Co303 2.055 . S
O311 C315 1.253 . S
H312 C308 0.921 1_565 S
H313 C309 0.930 . S
O314 Co303 2.039 . S
O314 C304 1.265 . S
C315 O311 1.253 . S
C315 O316 1.227 . S
O316 C315 1.227 . S
N317 Co303 2.140 . S
N317 C320 1.346 . S
N317 C321 1.345 . S
C318 C319 1.387 . S
C318 C322 1.391 . S
C319 C318 1.387 . S
C319 C320 1.369 . S
C319 H328 0.929 . S
C320 N317 1.346 . S
C320 C319 1.369 . S
C320 H323 0.928 . S
C321 N317 1.345 . S
C321 C322 1.371 . S
C321 H324 0.931 . S
C322 C318 1.391 . S
C322 C321 1.371 . S
C322 H329 0.930 . S
H323 C320 0.928 . S
H324 C321 0.931 . S
H325 C301 0.930 . S
H326 C298 0.930 . S
H327 C307 0.930 . S
H328 C319 0.929 . S
H329 C322 0.930 . S
C330 C331 1.351 . S
C330 N333 1.368 . S
C330 H335 0.931 . S
C331 C330 1.351 . S
C331 N332 1.373 . S
C331 H359 0.930 . S
N332 C331 1.373 . S
N332 C334 1.340 . S
N333 C330 1.368 . S
N333 C334 1.321 . S
N333 Co336 2.135 . S
C334 N332 1.340 . S
C334 N333 1.321 . S
C334 H358 0.930 . S
H335 C330 0.931 . S
Co336 N333 2.135 . S
Co336 N339 2.121 . S
Co336 O344 2.055 . S
Co336 O347 2.039 . S
Co336 N350 2.140 . S
C337 O338 1.227 . S
C337 O347 1.265 . S
O338 C337 1.227 . S
N339 Co336 2.121 . S
N339 C341 1.375 . S
N339 C342 1.313 . S
C340 C341 1.338 . S
C340 N343 1.377 . S
C340 H360 0.930 . S
C341 N339 1.375 . S
C341 C340 1.338 . S
C341 H345 0.931 . S
C342 N339 1.313 . S
C342 N343 1.344 . S
C342 H346 0.930 . S
N343 C340 1.377 . S
N343 C342 1.344 . S
O344 Co336 2.055 . S
O344 C348 1.253 . S
H345 C341 0.931 . S
H346 C342 0.930 . S
O347 Co336 2.039 . S
O347 C337 1.265 . S
C348 O344 1.253 . S
C348 O349 1.227 . S
O349 C348 1.227 . S
N350 Co336 2.140 . S
N350 C353 1.346 . S
N350 C354 1.345 . S
C351 C352 1.387 . S
C351 C355 1.391 . S
C352 C351 1.387 . S
C352 C353 1.369 . S
C352 H361 0.929 . S
C353 N350 1.346 . S
C353 C352 1.369 . S
C353 H356 0.928 . S
C354 N350 1.345 . S
C354 C355 1.371 . S
C354 H357 0.931 . S
C355 C351 1.391 . S
C355 C354 1.371 . S
C355 H362 0.930 . S
H356 C353 0.928 . S
H357 C354 0.931 . S
H358 C334 0.930 . S
H359 C331 0.930 . S
H360 C340 0.930 . S
H361 C352 0.929 . S
H362 C355 0.930 . S
C363 C364 1.351 . S
C363 N366 1.368 . S
C363 H368 0.931 . S
C364 C363 1.351 . S
C364 N365 1.373 . S
C364 H392 0.930 . S
N365 C364 1.373 . S
N365 C367 1.340 . S
N366 C363 1.368 . S
N366 C367 1.321 . S
N366 Co369 2.135 . S
C367 N365 1.340 . S
C367 N366 1.321 . S
C367 H391 0.930 . S
H368 C363 0.931 . S
Co369 N366 2.135 . S
Co369 N372 2.121 . S
Co369 O377 2.055 . S
Co369 O380 2.039 . S
Co369 N383 2.140 . S
C370 O371 1.227 . S
C370 O380 1.265 . S
O371 C370 1.227 . S
N372 Co369 2.121 . S
N372 C374 1.397 . S
N372 C375 1.313 . S
C373 C374 1.327 1_545 S
C373 N376 1.377 1_545 S
C373 H393 0.930 . S
C374 N372 1.397 . S
C374 C373 1.327 1_565 S
C374 H378 0.921 1_565 S
C375 N372 1.313 . S
C375 N376 1.344 . S
C375 H379 0.930 . S
N376 C373 1.377 1_565 S
N376 C375 1.344 . S
O377 Co369 2.055 . S
O377 C381 1.253 . S
H378 C374 0.921 1_545 S
H379 C375 0.930 . S
O380 Co369 2.039 . S
O380 C370 1.265 . S
C381 O377 1.253 . S
C381 O382 1.227 . S
O382 C381 1.227 . S
N383 Co369 2.140 . S
N383 C386 1.346 . S
N383 C387 1.345 . S
C384 C385 1.387 . S
C384 C388 1.391 . S
C385 C384 1.387 . S
C385 C386 1.369 . S
C385 H394 0.929 . S
C386 N383 1.346 . S
C386 C385 1.369 . S
C386 H389 0.928 . S
C387 N383 1.345 . S
C387 C388 1.371 . S
C387 H390 0.931 . S
C388 C384 1.391 . S
C388 C387 1.371 . S
C388 H395 0.930 . S
H389 C386 0.928 . S
H390 C387 0.931 . S
H391 C367 0.930 . S
H392 C364 0.930 . S
H393 C373 0.930 . S
H394 C385 0.929 . S
H395 C388 0.930 . S
C396 C397 1.351 1_554 S
C396 N399 1.368 . S
C396 H401 0.931 . S
C397 C396 1.351 1_556 S
C397 N398 1.373 . S
C397 H425 0.930 . S
N398 C397 1.373 . S
N398 C400 1.340 . S
N399 C396 1.368 . S
N399 C400 1.321 1_554 S
N399 Co402 2.135 . S
C400 N398 1.340 . S
C400 N399 1.321 1_556 S
C400 H424 0.930 . S
H401 C396 0.931 . S
Co402 N399 2.135 . S
Co402 N405 2.121 . S
Co402 O410 2.055 . S
Co402 O413 2.039 . S
Co402 N416 2.140 . S
C403 O404 1.227 1_554 S
C403 O413 1.265 . S
O404 C403 1.227 1_556 S
N405 Co402 2.121 . S
N405 C407 1.375 . S
N405 C408 1.313 . S
C406 C407 1.338 . S
C406 N409 1.377 . S
C406 H426 0.930 . S
C407 N405 1.375 . S
C407 C406 1.338 . S
C407 H411 0.931 . S
C408 N405 1.313 . S
C408 N409 1.344 . S
C408 H412 0.930 . S
N409 C406 1.377 . S
N409 C408 1.344 . S
O410 Co402 2.055 . S
O410 C414 1.253 . S
H411 C407 0.931 . S
H412 C408 0.930 . S
O413 Co402 2.039 . S
O413 C403 1.265 . S
C414 O410 1.253 . S
C414 O415 1.227 . S
O415 C414 1.227 . S
N416 Co402 2.140 . S
N416 C419 1.346 . S
N416 C420 1.345 . S
C417 C418 1.387 . S
C417 C421 1.391 . S
C418 C417 1.387 . S
C418 C419 1.369 . S
C418 H427 0.929 1_554 S
C419 N416 1.346 . S
C419 C418 1.369 . S
C419 H422 0.928 1_554 S
C420 N416 1.345 . S
C420 C421 1.371 . S
C420 H423 0.931 . S
C421 C417 1.391 . S
C421 C420 1.371 . S
C421 H428 0.930 . S
H422 C419 0.928 1_556 S
H423 C420 0.931 . S
H424 C400 0.930 . S
H425 C397 0.930 . S
H426 C406 0.930 . S
H427 C418 0.929 1_556 S
H428 C421 0.930 . S
C429 C430 1.351 . S
C429 N432 1.368 . S
C429 H434 0.931 . S
C430 C429 1.351 . S
C430 N431 1.373 . S
C430 H458 0.930 . S
N431 C430 1.373 . S
N431 C433 1.340 . S
N432 C429 1.368 . S
N432 C433 1.321 . S
N432 Co435 2.135 . S
C433 N431 1.340 . S
C433 N432 1.321 . S
C433 H457 0.930 . S
H434 C429 0.931 . S
Co435 N432 2.135 . S
Co435 N438 2.121 . S
Co435 O443 2.055 . S
Co435 O446 2.039 . S
Co435 N449 2.140 . S
C436 O437 1.227 . S
C436 O446 1.265 . S
O437 C436 1.227 . S
N438 Co435 2.121 . S
N438 C440 1.397 . S
N438 C441 1.313 . S
C439 C440 1.327 1_565 S
C439 N442 1.377 1_565 S
C439 H459 0.930 . S
C440 N438 1.397 . S
C440 C439 1.327 1_545 S
C440 H444 0.921 1_545 S
C441 N438 1.313 . S
C441 N442 1.344 . S
C441 H445 0.930 . S
N442 C439 1.377 1_545 S
N442 C441 1.344 . S
O443 Co435 2.055 . S
O443 C447 1.253 . S
H444 C440 0.921 1_565 S
H445 C441 0.930 . S
O446 Co435 2.039 . S
O446 C436 1.265 . S
C447 O443 1.253 . S
C447 O448 1.227 . S
O448 C447 1.227 . S
N449 Co435 2.140 . S
N449 C452 1.346 . S
N449 C453 1.345 . S
C450 C451 1.387 . S
C450 C454 1.391 . S
C451 C450 1.387 . S
C451 C452 1.369 . S
C451 H460 0.929 . S
C452 N449 1.346 . S
C452 C451 1.369 . S
C452 H455 0.928 . S
C453 N449 1.345 . S
C453 C454 1.371 . S
C453 H456 0.931 . S
C454 C450 1.391 . S
C454 C453 1.371 . S
C454 H461 0.930 . S
H455 C452 0.928 . S
H456 C453 0.931 . S
H457 C433 0.930 . S
H458 C430 0.930 . S
H459 C439 0.930 . S
H460 C451 0.929 . S
H461 C454 0.930 . S
C462 C463 1.351 . S
C462 N465 1.368 . S
C462 H467 0.931 . S
C463 C462 1.351 . S
C463 N464 1.373 . S
C463 H491 0.930 . S
N464 C463 1.373 . S
N464 C466 1.340 . S
N465 C462 1.368 . S
N465 C466 1.321 . S
N465 Co468 2.135 . S
C466 N464 1.340 . S
C466 N465 1.321 . S
C466 H490 0.930 . S
H467 C462 0.931 . S
Co468 N465 2.135 . S
Co468 N471 2.121 . S
Co468 O476 2.055 . S
Co468 O479 2.039 . S
Co468 N482 2.140 . S
C469 O470 1.227 . S
C469 O479 1.265 . S
O470 C469 1.227 . S
N471 Co468 2.121 . S
N471 C473 1.375 . S
N471 C474 1.313 . S
C472 C473 1.338 . S
C472 N475 1.377 . S
C472 H492 0.930 . S
C473 N471 1.375 . S
C473 C472 1.338 . S
C473 H477 0.931 . S
C474 N471 1.313 . S
C474 N475 1.344 . S
C474 H478 0.930 . S
N475 C472 1.377 . S
N475 C474 1.344 . S
O476 Co468 2.055 . S
O476 C480 1.253 . S
H477 C473 0.931 . S
H478 C474 0.930 . S
O479 Co468 2.039 . S
O479 C469 1.265 . S
C480 O476 1.253 . S
C480 O481 1.227 . S
O481 C480 1.227 . S
N482 Co468 2.140 . S
N482 C485 1.346 . S
N482 C486 1.345 . S
C483 C484 1.387 . S
C483 C487 1.391 . S
C484 C483 1.387 . S
C484 C485 1.369 . S
C484 H493 0.929 . S
C485 N482 1.346 . S
C485 C484 1.369 . S
C485 H488 0.928 . S
C486 N482 1.345 . S
C486 C487 1.371 . S
C486 H489 0.931 . S
C487 C483 1.391 . S
C487 C486 1.371 . S
C487 H494 0.930 . S
H488 C485 0.928 . S
H489 C486 0.931 . S
H490 C466 0.930 . S
H491 C463 0.930 . S
H492 C472 0.930 . S
H493 C484 0.929 . S
H494 C487 0.930 . S
C495 C496 1.351 . S
C495 N498 1.368 . S
C495 H500 0.931 . S
C496 C495 1.351 . S
C496 N497 1.373 . S
C496 H524 0.930 . S
N497 C496 1.373 . S
N497 C499 1.340 . S
N498 C495 1.368 . S
N498 C499 1.321 . S
N498 Co501 2.135 . S
C499 N497 1.340 . S
C499 N498 1.321 . S
C499 H523 0.930 . S
H500 C495 0.931 . S
Co501 N498 2.135 . S
Co501 N504 2.121 . S
Co501 O509 2.055 . S
Co501 O512 2.039 . S
Co501 N515 2.140 . S
C502 O503 1.227 . S
C502 O512 1.265 . S
O503 C502 1.227 . S
N504 Co501 2.121 . S
N504 C506 1.397 . S
N504 C507 1.313 . S
C505 C506 1.327 1_545 S
C505 N508 1.377 1_545 S
C505 H525 0.930 . S
C506 N504 1.397 . S
C506 C505 1.327 1_565 S
C506 H510 0.921 1_565 S
C507 N504 1.313 . S
C507 N508 1.344 . S
C507 H511 0.930 . S
N508 C505 1.377 1_565 S
N508 C507 1.344 . S
O509 Co501 2.055 . S
O509 C513 1.253 . S
H510 C506 0.921 1_545 S
H511 C507 0.930 . S
O512 Co501 2.039 . S
O512 C502 1.265 . S
C513 O509 1.253 . S
C513 O514 1.227 . S
O514 C513 1.227 . S
N515 Co501 2.140 . S
N515 C518 1.346 . S
N515 C519 1.345 . S
C516 C517 1.387 . S
C516 C520 1.391 . S
C517 C516 1.387 . S
C517 C518 1.369 . S
C517 H526 0.929 . S
C518 N515 1.346 . S
C518 C517 1.369 . S
C518 H521 0.928 . S
C519 N515 1.345 . S
C519 C520 1.371 . S
C519 H522 0.931 . S
C520 C516 1.391 . S
C520 C519 1.371 . S
C520 H527 0.930 . S
H521 C518 0.928 . S
H522 C519 0.931 . S
H523 C499 0.930 . S
H524 C496 0.930 . S
H525 C505 0.930 . S
H526 C517 0.929 . S
H527 C520 0.930 . S
C528 C529 1.351 . S
C528 N531 1.368 . S
C528 H533 0.931 . S
C529 C528 1.351 . S
C529 N530 1.373 . S
C529 H557 0.930 . S
N530 C529 1.373 . S
N530 C532 1.340 . S
N531 C528 1.368 . S
N531 C532 1.321 . S
N531 Co534 2.135 . S
C532 N530 1.340 . S
C532 N531 1.321 . S
C532 H556 0.930 . S
H533 C528 0.931 . S
Co534 N531 2.135 . S
Co534 N537 2.121 . S
Co534 O542 2.055 . S
Co534 O545 2.039 . S
Co534 N548 2.140 . S
C535 O536 1.227 . S
C535 O545 1.265 . S
O536 C535 1.227 . S
N537 Co534 2.121 . S
N537 C539 1.375 . S
N537 C540 1.313 . S
C538 C539 1.338 . S
C538 N541 1.377 . S
C538 H558 0.930 . S
C539 N537 1.375 . S
C539 C538 1.338 . S
C539 H543 0.931 . S
C540 N537 1.313 . S
C540 N541 1.344 . S
C540 H544 0.930 . S
N541 C538 1.377 . S
N541 C540 1.344 . S
O542 Co534 2.055 . S
O542 C546 1.253 . S
H543 C539 0.931 . S
H544 C540 0.930 . S
O545 Co534 2.039 . S
O545 C535 1.265 . S
C546 O542 1.253 . S
C546 O547 1.227 . S
O547 C546 1.227 . S
N548 Co534 2.140 . S
N548 C551 1.346 . S
N548 C552 1.345 . S
C549 C550 1.387 . S
C549 C553 1.391 . S
C550 C549 1.387 . S
C550 C551 1.369 . S
C550 H559 0.929 . S
C551 N548 1.346 . S
C551 C550 1.369 . S
C551 H554 0.928 . S
C552 N548 1.345 . S
C552 C553 1.371 . S
C552 H555 0.931 . S
C553 C549 1.391 . S
C553 C552 1.371 . S
C553 H560 0.930 . S
H554 C551 0.928 . S
H555 C552 0.931 . S
H556 C532 0.930 . S
H557 C529 0.930 . S
H558 C538 0.930 . S
H559 C550 0.929 . S
H560 C553 0.930 . S
C561 C562 1.351 . S
C561 N564 1.368 . S
C561 H566 0.931 . S
C562 C561 1.351 . S
C562 N563 1.373 . S
C562 H590 0.930 . S
N563 C562 1.373 . S
N563 C565 1.340 . S
N564 C561 1.368 . S
N564 C565 1.321 . S
N564 Co567 2.135 . S
C565 N563 1.340 . S
C565 N564 1.321 . S
C565 H589 0.930 . S
H566 C561 0.931 . S
Co567 N564 2.135 . S
Co567 N570 2.121 . S
Co567 O575 2.055 . S
Co567 O578 2.039 . S
Co567 N581 2.140 . S
C568 O569 1.227 . S
C568 O578 1.265 . S
O569 C568 1.227 . S
N570 Co567 2.121 . S
N570 C572 1.375 . S
N570 C573 1.313 . S
C571 C572 1.338 . S
C571 N574 1.377 . S
C571 H591 0.930 . S
C572 N570 1.375 . S
C572 C571 1.338 . S
C572 H576 0.931 . S
C573 N570 1.313 . S
C573 N574 1.344 . S
C573 H577 0.930 . S
N574 C571 1.377 . S
N574 C573 1.344 . S
O575 Co567 2.055 . S
O575 C579 1.253 . S
H576 C572 0.931 . S
H577 C573 0.930 . S
O578 Co567 2.039 . S
O578 C568 1.265 . S
C579 O575 1.253 . S
C579 O580 1.227 . S
O580 C579 1.227 . S
N581 Co567 2.140 . S
N581 C584 1.346 . S
N581 C585 1.345 . S
C582 C583 1.387 . S
C582 C586 1.391 . S
C583 C582 1.387 . S
C583 C584 1.369 . S
C583 H592 0.929 . S
C584 N581 1.346 . S
C584 C583 1.369 . S
C584 H587 0.928 . S
C585 N581 1.345 . S
C585 C586 1.371 . S
C585 H588 0.931 . S
C586 C582 1.391 . S
C586 C585 1.371 . S
C586 H593 0.930 . S
H587 C584 0.928 . S
H588 C585 0.931 . S
H589 C565 0.930 . S
H590 C562 0.930 . S
H591 C571 0.930 . S
H592 C583 0.929 . S
H593 C586 0.930 . S
C594 C595 1.351 1_554 S
C594 N597 1.368 . S
C594 H599 0.931 . S
C595 C594 1.351 1_556 S
C595 N596 1.373 . S
C595 H623 0.930 . S
N596 C595 1.373 . S
N596 C598 1.340 . S
N597 C594 1.368 . S
N597 C598 1.321 1_554 S
N597 Co600 2.135 . S
C598 N596 1.340 . S
C598 N597 1.321 1_556 S
C598 H622 0.930 . S
H599 C594 0.931 . S
Co600 N597 2.135 . S
Co600 N603 2.121 . S
Co600 O608 2.055 . S
Co600 O611 2.039 . S
Co600 N614 2.140 . S
C601 O602 1.227 1_554 S
C601 O611 1.265 . S
O602 C601 1.227 1_556 S
N603 Co600 2.121 . S
N603 C605 1.375 . S
N603 C606 1.313 . S
C604 C605 1.338 . S
C604 N607 1.377 . S
C604 H624 0.930 . S
C605 N603 1.375 . S
C605 C604 1.338 . S
C605 H609 0.931 . S
C606 N603 1.313 . S
C606 N607 1.344 . S
C606 H610 0.930 . S
N607 C604 1.377 . S
N607 C606 1.344 . S
O608 Co600 2.055 . S
O608 C612 1.253 . S
H609 C605 0.931 . S
H610 C606 0.930 . S
O611 Co600 2.039 . S
O611 C601 1.265 . S
C612 O608 1.253 . S
C612 O613 1.227 . S
O613 C612 1.227 . S
N614 Co600 2.140 . S
N614 C617 1.346 . S
N614 C618 1.345 . S
C615 C616 1.387 . S
C615 C619 1.391 . S
C616 C615 1.387 . S
C616 C617 1.369 . S
C616 H625 0.929 1_554 S
C617 N614 1.346 . S
C617 C616 1.369 . S
C617 H620 0.928 1_554 S
C618 N614 1.345 . S
C618 C619 1.371 . S
C618 H621 0.931 . S
C619 C615 1.391 . S
C619 C618 1.371 . S
C619 H626 0.930 . S
H620 C617 0.928 1_556 S
H621 C618 0.931 . S
H622 C598 0.930 . S
H623 C595 0.930 . S
H624 C604 0.930 . S
H625 C616 0.929 1_556 S
H626 C619 0.930 . S
C627 C628 1.351 . S
C627 N630 1.368 . S
C627 H632 0.931 . S
C628 C627 1.351 . S
C628 N629 1.373 . S
C628 H656 0.930 . S
N629 C628 1.373 . S
N629 C631 1.340 . S
N630 C627 1.368 . S
N630 C631 1.321 . S
N630 Co633 2.135 . S
C631 N629 1.340 . S
C631 N630 1.321 . S
C631 H655 0.930 . S
H632 C627 0.931 . S
Co633 N630 2.135 . S
Co633 N636 2.121 . S
Co633 O641 2.055 . S
Co633 O644 2.039 . S
Co633 N647 2.140 . S
C634 O635 1.227 . S
C634 O644 1.265 . S
O635 C634 1.227 . S
N636 Co633 2.121 . S
N636 C638 1.375 . S
N636 C639 1.313 . S
C637 C638 1.338 . S
C637 N640 1.377 . S
C637 H657 0.930 . S
C638 N636 1.375 . S
C638 C637 1.338 . S
C638 H642 0.931 . S
C639 N636 1.313 . S
C639 N640 1.344 . S
C639 H643 0.930 . S
N640 C637 1.377 . S
N640 C639 1.344 . S
O641 Co633 2.055 . S
O641 C645 1.253 . S
H642 C638 0.931 . S
H643 C639 0.930 . S
O644 Co633 2.039 . S
O644 C634 1.265 . S
C645 O641 1.253 . S
C645 O646 1.227 . S
O646 C645 1.227 . S
N647 Co633 2.140 . S
N647 C650 1.346 . S
N647 C651 1.345 . S
C648 C649 1.387 . S
C648 C652 1.391 . S
C649 C648 1.387 . S
C649 C650 1.369 . S
C649 H658 0.929 . S
C650 N647 1.346 . S
C650 C649 1.369 . S
C650 H653 0.928 . S
C651 N647 1.345 . S
C651 C652 1.371 . S
C651 H654 0.931 . S
C652 C648 1.391 . S
C652 C651 1.371 . S
C652 H659 0.930 . S
H653 C650 0.928 . S
H654 C651 0.931 . S
H655 C631 0.930 . S
H656 C628 0.930 . S
H657 C637 0.930 . S
H658 C649 0.929 . S
H659 C652 0.930 . S
C660 C661 1.351 . S
C660 N663 1.368 . S
C660 H665 0.931 . S
C661 C660 1.351 . S
C661 N662 1.373 . S
C661 H689 0.930 . S
N662 C661 1.373 . S
N662 C664 1.340 . S
N663 C660 1.368 . S
N663 C664 1.321 . S
N663 Co666 2.135 . S
C664 N662 1.340 . S
C664 N663 1.321 . S
C664 H688 0.930 . S
H665 C660 0.931 . S
Co666 N663 2.135 . S
Co666 N669 2.121 . S
Co666 O674 2.055 . S
Co666 O677 2.039 . S
Co666 N680 2.140 . S
C667 O668 1.227 . S
C667 O677 1.265 . S
O668 C667 1.227 . S
N669 Co666 2.121 . S
N669 C671 1.375 . S
N669 C672 1.313 . S
C670 C671 1.338 . S
C670 N673 1.377 . S
C670 H690 0.930 . S
C671 N669 1.375 . S
C671 C670 1.338 . S
C671 H675 0.931 . S
C672 N669 1.313 . S
C672 N673 1.344 . S
C672 H676 0.930 . S
N673 C670 1.377 . S
N673 C672 1.344 . S
O674 Co666 2.055 . S
O674 C678 1.253 . S
H675 C671 0.931 . S
H676 C672 0.930 . S
O677 Co666 2.039 . S
O677 C667 1.265 . S
C678 O674 1.253 . S
C678 O679 1.227 . S
O679 C678 1.227 . S
N680 Co666 2.140 . S
N680 C683 1.346 . S
N680 C684 1.345 . S
C681 C682 1.387 . S
C681 C685 1.391 . S
C682 C681 1.387 . S
C682 C683 1.369 . S
C682 H691 0.929 . S
C683 N680 1.346 . S
C683 C682 1.369 . S
C683 H686 0.928 . S
C684 N680 1.345 . S
C684 C685 1.371 . S
C684 H687 0.931 . S
C685 C681 1.391 . S
C685 C684 1.371 . S
C685 H692 0.930 . S
H686 C683 0.928 . S
H687 C684 0.931 . S
H688 C664 0.930 . S
H689 C661 0.930 . S
H690 C670 0.930 . S
H691 C682 0.929 . S
H692 C685 0.930 . S
C693 C694 1.351 . S
C693 N696 1.368 . S
C693 H698 0.931 . S
C694 C693 1.351 . S
C694 N695 1.373 . S
C694 H722 0.930 . S
N695 C694 1.373 . S
N695 C697 1.340 . S
N696 C693 1.368 . S
N696 C697 1.321 . S
N696 Co699 2.135 . S
C697 N695 1.340 . S
C697 N696 1.321 . S
C697 H721 0.930 . S
H698 C693 0.931 . S
Co699 N696 2.135 . S
Co699 N702 2.121 . S
Co699 O707 2.055 . S
Co699 O710 2.039 . S
Co699 N713 2.140 . S
C700 O701 1.227 . S
C700 O710 1.265 . S
O701 C700 1.227 . S
N702 Co699 2.121 . S
N702 C704 1.375 . S
N702 C705 1.313 . S
C703 C704 1.338 . S
C703 N706 1.377 . S
C703 H723 0.930 . S
C704 N702 1.375 . S
C704 C703 1.338 . S
C704 H708 0.931 . S
C705 N702 1.313 . S
C705 N706 1.344 . S
C705 H709 0.930 . S
N706 C703 1.377 . S
N706 C705 1.344 . S
O707 Co699 2.055 . S
O707 C711 1.253 . S
H708 C704 0.931 . S
H709 C705 0.930 . S
O710 Co699 2.039 . S
O710 C700 1.265 . S
C711 O707 1.253 . S
C711 O712 1.227 . S
O712 C711 1.227 . S
N713 Co699 2.140 . S
N713 C716 1.346 . S
N713 C717 1.345 . S
C714 C715 1.387 . S
C714 C718 1.391 . S
C715 C714 1.387 . S
C715 C716 1.369 . S
C715 H724 0.929 . S
C716 N713 1.346 . S
C716 C715 1.369 . S
C716 H719 0.928 . S
C717 N713 1.345 . S
C717 C718 1.371 . S
C717 H720 0.931 . S
C718 C714 1.391 . S
C718 C717 1.371 . S
C718 H725 0.930 . S
H719 C716 0.928 . S
H720 C717 0.931 . S
H721 C697 0.930 . S
H722 C694 0.930 . S
H723 C703 0.930 . S
H724 C715 0.929 . S
H725 C718 0.930 . S
C726 C727 1.351 1_556 S
C726 N729 1.368 . S
C726 H731 0.931 . S
C727 C726 1.351 1_554 S
C727 N728 1.373 . S
C727 H755 0.930 . S
N728 C727 1.373 . S
N728 C730 1.340 . S
N729 C726 1.368 . S
N729 C730 1.321 1_556 S
N729 Co732 2.135 . S
C730 N728 1.340 . S
C730 N729 1.321 1_554 S
C730 H754 0.930 . S
H731 C726 0.931 . S
Co732 N729 2.135 . S
Co732 N735 2.121 . S
Co732 O740 2.055 . S
Co732 O743 2.039 . S
Co732 N746 2.140 . S
C733 O734 1.227 1_556 S
C733 O743 1.265 . S
O734 C733 1.227 1_554 S
N735 Co732 2.121 . S
N735 C737 1.375 . S
N735 C738 1.313 . S
C736 C737 1.338 . S
C736 N739 1.377 . S
C736 H756 0.930 . S
C737 N735 1.375 . S
C737 C736 1.338 . S
C737 H741 0.931 . S
C738 N735 1.313 . S
C738 N739 1.344 . S
C738 H742 0.930 . S
N739 C736 1.377 . S
N739 C738 1.344 . S
O740 Co732 2.055 . S
O740 C744 1.253 . S
H741 C737 0.931 . S
H742 C738 0.930 . S
O743 Co732 2.039 . S
O743 C733 1.265 . S
C744 O740 1.253 . S
C744 O745 1.227 . S
O745 C744 1.227 . S
N746 Co732 2.140 . S
N746 C749 1.346 . S
N746 C750 1.345 . S
C747 C748 1.387 . S
C747 C751 1.391 . S
C748 C747 1.387 . S
C748 C749 1.369 . S
C748 H757 0.929 1_556 S
C749 N746 1.346 . S
C749 C748 1.369 . S
C749 H752 0.928 1_556 S
C750 N746 1.345 . S
C750 C751 1.371 . S
C750 H753 0.931 . S
C751 C747 1.391 . S
C751 C750 1.371 . S
C751 H758 0.930 . S
H752 C749 0.928 1_554 S
H753 C750 0.931 . S
H754 C730 0.930 . S
H755 C727 0.930 . S
H756 C736 0.930 . S
H757 C748 0.929 1_554 S
H758 C751 0.930 . S
C759 C760 1.351 . S
C759 N762 1.368 . S
C759 H764 0.931 . S
C760 C759 1.351 . S
C760 N761 1.373 . S
C760 H788 0.930 . S
N761 C760 1.373 . S
N761 C763 1.340 . S
N762 C759 1.368 . S
N762 C763 1.321 . S
N762 Co765 2.135 . S
C763 N761 1.340 . S
C763 N762 1.321 . S
C763 H787 0.930 . S
H764 C759 0.931 . S
Co765 N762 2.135 . S
Co765 N768 2.121 . S
Co765 O773 2.055 . S
Co765 O776 2.039 . S
Co765 N779 2.140 . S
C766 O767 1.227 . S
C766 O776 1.265 . S
O767 C766 1.227 . S
N768 Co765 2.121 . S
N768 C770 1.375 . S
N768 C771 1.313 . S
C769 C770 1.338 . S
C769 N772 1.377 . S
C769 H789 0.930 . S
C770 N768 1.375 . S
C770 C769 1.338 . S
C770 H774 0.931 . S
C771 N768 1.313 . S
C771 N772 1.344 . S
C771 H775 0.930 . S
N772 C769 1.377 . S
N772 C771 1.344 . S
O773 Co765 2.055 . S
O773 C777 1.253 . S
H774 C770 0.931 . S
H775 C771 0.930 . S
O776 Co765 2.039 . S
O776 C766 1.265 . S
C777 O773 1.253 . S
C777 O778 1.227 . S
O778 C777 1.227 . S
N779 Co765 2.140 . S
N779 C782 1.346 . S
N779 C783 1.345 . S
C780 C781 1.387 . S
C780 C784 1.391 . S
C781 C780 1.387 . S
C781 C782 1.369 . S
C781 H790 0.929 . S
C782 N779 1.346 . S
C782 C781 1.369 . S
C782 H785 0.928 . S
C783 N779 1.345 . S
C783 C784 1.371 . S
C783 H786 0.931 . S
C784 C780 1.391 . S
C784 C783 1.371 . S
C784 H791 0.930 . S
H785 C782 0.928 . S
H786 C783 0.931 . S
H787 C763 0.930 . S
H788 C760 0.930 . S
H789 C769 0.930 . S
H790 C781 0.929 . S
H791 C784 0.930 . S
C792 C793 1.351 . S
C792 N795 1.368 . S
C792 H797 0.931 . S
C793 C792 1.351 . S
C793 N794 1.373 . S
C793 H821 0.930 . S
N794 C793 1.373 . S
N794 C796 1.340 . S
N795 C792 1.368 . S
N795 C796 1.321 . S
N795 Co798 2.135 . S
C796 N794 1.340 . S
C796 N795 1.321 . S
C796 H820 0.930 . S
H797 C792 0.931 . S
Co798 N795 2.135 . S
Co798 N801 2.121 . S
Co798 O806 2.055 . S
Co798 O809 2.039 . S
Co798 N812 2.140 . S
C799 O800 1.227 . S
C799 O809 1.265 . S
O800 C799 1.227 . S
N801 Co798 2.121 . S
N801 C803 1.375 . S
N801 C804 1.313 . S
C802 C803 1.338 . S
C802 N805 1.377 . S
C802 H822 0.930 . S
C803 N801 1.375 . S
C803 C802 1.338 . S
C803 H807 0.931 . S
C804 N801 1.313 . S
C804 N805 1.344 . S
C804 H808 0.930 . S
N805 C802 1.377 . S
N805 C804 1.344 . S
O806 Co798 2.055 . S
O806 C810 1.253 . S
H807 C803 0.931 . S
H808 C804 0.930 . S
O809 Co798 2.039 . S
O809 C799 1.265 . S
C810 O806 1.253 . S
C810 O811 1.227 . S
O811 C810 1.227 . S
N812 Co798 2.140 . S
N812 C815 1.346 . S
N812 C816 1.345 . S
C813 C814 1.387 . S
C813 C817 1.391 . S
C814 C813 1.387 . S
C814 C815 1.369 . S
C814 H823 0.929 . S
C815 N812 1.346 . S
C815 C814 1.369 . S
C815 H818 0.928 . S
C816 N812 1.345 . S
C816 C817 1.371 . S
C816 H819 0.931 . S
C817 C813 1.391 . S
C817 C816 1.371 . S
C817 H824 0.930 . S
H818 C815 0.928 . S
H819 C816 0.931 . S
H820 C796 0.930 . S
H821 C793 0.930 . S
H822 C802 0.930 . S
H823 C814 0.929 . S
H824 C817 0.930 . S
C825 C826 1.351 . S
C825 N828 1.368 . S
C825 H830 0.931 . S
C826 C825 1.351 . S
C826 N827 1.373 . S
C826 H854 0.930 . S
N827 C826 1.373 . S
N827 C829 1.340 . S
N828 C825 1.368 . S
N828 C829 1.321 . S
N828 Co831 2.135 . S
C829 N827 1.340 . S
C829 N828 1.321 . S
C829 H853 0.930 . S
H830 C825 0.931 . S
Co831 N828 2.135 . S
Co831 N834 2.121 . S
Co831 O839 2.055 . S
Co831 O842 2.039 . S
Co831 N845 2.140 . S
C832 O833 1.227 . S
C832 O842 1.265 . S
O833 C832 1.227 . S
N834 Co831 2.121 . S
N834 C836 1.375 . S
N834 C837 1.313 . S
C835 C836 1.338 . S
C835 N838 1.377 . S
C835 H855 0.930 . S
C836 N834 1.375 . S
C836 C835 1.338 . S
C836 H840 0.931 . S
C837 N834 1.313 . S
C837 N838 1.344 . S
C837 H841 0.930 . S
N838 C835 1.377 . S
N838 C837 1.344 . S
O839 Co831 2.055 . S
O839 C843 1.253 . S
H840 C836 0.931 . S
H841 C837 0.930 . S
O842 Co831 2.039 . S
O842 C832 1.265 . S
C843 O839 1.253 . S
C843 O844 1.227 . S
O844 C843 1.227 . S
N845 Co831 2.140 . S
N845 C848 1.346 . S
N845 C849 1.345 . S
C846 C847 1.387 . S
C846 C850 1.391 . S
C847 C846 1.387 . S
C847 C848 1.369 . S
C847 H856 0.929 . S
C848 N845 1.346 . S
C848 C847 1.369 . S
C848 H851 0.928 . S
C849 N845 1.345 . S
C849 C850 1.371 . S
C849 H852 0.931 . S
C850 C846 1.391 . S
C850 C849 1.371 . S
C850 H857 0.930 . S
H851 C848 0.928 . S
H852 C849 0.931 . S
H853 C829 0.930 . S
H854 C826 0.930 . S
H855 C835 0.930 . S
H856 C847 0.929 . S
H857 C850 0.930 . S
C858 C859 1.351 1_556 S
C858 N861 1.368 . S
C858 H863 0.931 . S
C859 C858 1.351 1_554 S
C859 N860 1.373 . S
C859 H887 0.930 . S
N860 C859 1.373 . S
N860 C862 1.340 . S
N861 C858 1.368 . S
N861 C862 1.321 1_556 S
N861 Co864 2.135 . S
C862 N860 1.340 . S
C862 N861 1.321 1_554 S
C862 H886 0.930 . S
H863 C858 0.931 . S
Co864 N861 2.135 . S
Co864 N867 2.121 . S
Co864 O872 2.055 . S
Co864 O875 2.039 . S
Co864 N878 2.140 . S
C865 O866 1.227 1_556 S
C865 O875 1.265 . S
O866 C865 1.227 1_554 S
N867 Co864 2.121 . S
N867 C869 1.375 . S
N867 C870 1.313 . S
C868 C869 1.338 . S
C868 N871 1.377 . S
C868 H888 0.930 . S
C869 N867 1.375 . S
C869 C868 1.338 . S
C869 H873 0.931 . S
C870 N867 1.313 . S
C870 N871 1.344 . S
C870 H874 0.930 . S
N871 C868 1.377 . S
N871 C870 1.344 . S
O872 Co864 2.055 . S
O872 C876 1.253 . S
H873 C869 0.931 . S
H874 C870 0.930 . S
O875 Co864 2.039 . S
O875 C865 1.265 . S
C876 O872 1.253 . S
C876 O877 1.227 . S
O877 C876 1.227 . S
N878 Co864 2.140 . S
N878 C881 1.346 . S
N878 C882 1.345 . S
C879 C880 1.387 . S
C879 C883 1.391 . S
C880 C879 1.387 . S
C880 C881 1.369 . S
C880 H889 0.929 1_556 S
C881 N878 1.346 . S
C881 C880 1.369 . S
C881 H884 0.928 1_556 S
C882 N878 1.345 . S
C882 C883 1.371 . S
C882 H885 0.931 . S
C883 C879 1.391 . S
C883 C882 1.371 . S
C883 H890 0.930 . S
H884 C881 0.928 1_554 S
H885 C882 0.931 . S
H886 C862 0.930 . S
H887 C859 0.930 . S
H888 C868 0.930 . S
H889 C880 0.929 1_554 S
H890 C883 0.930 . S
C891 C892 1.351 . S
C891 N894 1.368 . S
C891 H896 0.931 . S
C892 C891 1.351 . S
C892 N893 1.373 . S
C892 H920 0.930 . S
N893 C892 1.373 . S
N893 C895 1.340 . S
N894 C891 1.368 . S
N894 C895 1.321 . S
N894 Co897 2.135 . S
C895 N893 1.340 . S
C895 N894 1.321 . S
C895 H919 0.930 . S
H896 C891 0.931 . S
Co897 N894 2.135 . S
Co897 N900 2.121 . S
Co897 O905 2.055 . S
Co897 O908 2.039 . S
Co897 N911 2.140 . S
C898 O899 1.227 . S
C898 O908 1.265 . S
O899 C898 1.227 . S
N900 Co897 2.121 . S
N900 C902 1.375 . S
N900 C903 1.313 . S
C901 C902 1.338 . S
C901 N904 1.377 . S
C901 H921 0.930 . S
C902 N900 1.375 . S
C902 C901 1.338 . S
C902 H906 0.931 . S
C903 N900 1.313 . S
C903 N904 1.344 . S
C903 H907 0.930 . S
N904 C901 1.377 . S
N904 C903 1.344 . S
O905 Co897 2.055 . S
O905 C909 1.253 . S
H906 C902 0.931 . S
H907 C903 0.930 . S
O908 Co897 2.039 . S
O908 C898 1.265 . S
C909 O905 1.253 . S
C909 O910 1.227 . S
O910 C909 1.227 . S
N911 Co897 2.140 . S
N911 C914 1.346 . S
N911 C915 1.345 . S
C912 C913 1.387 . S
C912 C916 1.391 . S
C913 C912 1.387 . S
C913 C914 1.369 . S
C913 H922 0.929 . S
C914 N911 1.346 . S
C914 C913 1.369 . S
C914 H917 0.928 . S
C915 N911 1.345 . S
C915 C916 1.371 . S
C915 H918 0.931 . S
C916 C912 1.391 . S
C916 C915 1.371 . S
C916 H923 0.930 . S
H917 C914 0.928 . S
H918 C915 0.931 . S
H919 C895 0.930 . S
H920 C892 0.930 . S
H921 C901 0.930 . S
H922 C913 0.929 . S
H923 C916 0.930 . S
C924 C925 1.351 . S
C924 N927 1.368 . S
C924 H929 0.931 . S
C925 C924 1.351 . S
C925 N926 1.373 . S
C925 H953 0.930 . S
N926 C925 1.373 . S
N926 C928 1.340 . S
N927 C924 1.368 . S
N927 C928 1.321 . S
N927 Co930 2.135 . S
C928 N926 1.340 . S
C928 N927 1.321 . S
C928 H952 0.930 . S
H929 C924 0.931 . S
Co930 N927 2.135 . S
Co930 N933 2.121 . S
Co930 O938 2.055 . S
Co930 O941 2.039 . S
Co930 N944 2.140 . S
C931 O932 1.227 . S
C931 O941 1.265 . S
O932 C931 1.227 . S
N933 Co930 2.121 . S
N933 C935 1.375 . S
N933 C936 1.313 . S
C934 C935 1.338 . S
C934 N937 1.377 . S
C934 H954 0.930 . S
C935 N933 1.375 . S
C935 C934 1.338 . S
C935 H939 0.931 . S
C936 N933 1.313 . S
C936 N937 1.344 . S
C936 H940 0.930 . S
N937 C934 1.377 . S
N937 C936 1.344 . S
O938 Co930 2.055 . S
O938 C942 1.253 . S
H939 C935 0.931 . S
H940 C936 0.930 . S
O941 Co930 2.039 . S
O941 C931 1.265 . S
C942 O938 1.253 . S
C942 O943 1.227 . S
O943 C942 1.227 . S
N944 Co930 2.140 . S
N944 C947 1.346 . S
N944 C948 1.345 . S
C945 C946 1.387 . S
C945 C949 1.391 . S
C946 C945 1.387 . S
C946 C947 1.369 . S
C946 H955 0.929 . S
C947 N944 1.346 . S
C947 C946 1.369 . S
C947 H950 0.928 . S
C948 N944 1.345 . S
C948 C949 1.371 . S
C948 H951 0.931 . S
C949 C945 1.391 . S
C949 C948 1.371 . S
C949 H956 0.930 . S
H950 C947 0.928 . S
H951 C948 0.931 . S
H952 C928 0.930 . S
H953 C925 0.930 . S
H954 C934 0.930 . S
H955 C946 0.929 . S
H956 C949 0.930 . S
C957 C958 1.351 . S
C957 N960 1.368 . S
C957 H962 0.931 . S
C958 C957 1.351 . S
C958 N959 1.373 . S
C958 H986 0.930 . S
N959 C958 1.373 . S
N959 C961 1.340 . S
N960 C957 1.368 . S
N960 C961 1.321 . S
N960 Co963 2.135 . S
C961 N959 1.340 . S
C961 N960 1.321 . S
C961 H985 0.930 . S
H962 C957 0.931 . S
Co963 N960 2.135 . S
Co963 N966 2.121 . S
Co963 O971 2.055 . S
Co963 O974 2.039 . S
Co963 N977 2.140 . S
C964 O965 1.227 . S
C964 O974 1.265 . S
O965 C964 1.227 . S
N966 Co963 2.121 . S
N966 C968 1.375 . S
N966 C969 1.313 . S
C967 C968 1.338 . S
C967 N970 1.377 . S
C967 H987 0.930 . S
C968 N966 1.375 . S
C968 C967 1.338 . S
C968 H972 0.931 . S
C969 N966 1.313 . S
C969 N970 1.344 . S
C969 H973 0.930 . S
N970 C967 1.377 . S
N970 C969 1.344 . S
O971 Co963 2.055 . S
O971 C975 1.253 . S
H972 C968 0.931 . S
H973 C969 0.930 . S
O974 Co963 2.039 . S
O974 C964 1.265 . S
C975 O971 1.253 . S
C975 O976 1.227 . S
O976 C975 1.227 . S
N977 Co963 2.140 . S
N977 C980 1.346 . S
N977 C981 1.345 . S
C978 C979 1.387 . S
C978 C982 1.391 . S
C979 C978 1.387 . S
C979 C980 1.369 . S
C979 H988 0.929 . S
C980 N977 1.346 . S
C980 C979 1.369 . S
C980 H983 0.928 . S
C981 N977 1.345 . S
C981 C982 1.371 . S
C981 H984 0.931 . S
C982 C978 1.391 . S
C982 C981 1.371 . S
C982 H989 0.930 . S
H983 C980 0.928 . S
H984 C981 0.931 . S
H985 C961 0.930 . S
H986 C958 0.930 . S
H987 C967 0.930 . S
H988 C979 0.929 . S
H989 C982 0.930 . S
C990 C991 1.351 1_554 S
C990 N993 1.368 . S
C990 H995 0.931 . S
C991 C990 1.351 1_556 S
C991 N992 1.373 . S
C991 H1019 0.930 . S
N992 C991 1.373 . S
N992 C994 1.340 . S
N993 C990 1.368 . S
N993 C994 1.321 1_554 S
N993 Co996 2.135 . S
C994 N992 1.340 . S
C994 N993 1.321 1_556 S
C994 H1018 0.930 . S
H995 C990 0.931 . S
Co996 N993 2.135 . S
Co996 N999 2.121 . S
Co996 O1004 2.055 . S
Co996 O1007 2.039 . S
Co996 N1010 2.140 . S
C997 O998 1.227 1_554 S
C997 O1007 1.265 . S
O998 C997 1.227 1_556 S
N999 Co996 2.121 . S
N999 C1001 1.375 . S
N999 C1002 1.313 . S
C1000 C1001 1.338 . S
C1000 N1003 1.377 . S
C1000 H1020 0.930 . S
C1001 N999 1.375 . S
C1001 C1000 1.338 . S
C1001 H1005 0.931 . S
C1002 N999 1.313 . S
C1002 N1003 1.344 . S
C1002 H1006 0.930 . S
N1003 C1000 1.377 . S
N1003 C1002 1.344 . S
O1004 Co996 2.055 . S
O1004 C1008 1.253 . S
H1005 C1001 0.931 . S
H1006 C1002 0.930 . S
O1007 Co996 2.039 . S
O1007 C997 1.265 . S
C1008 O1004 1.253 . S
C1008 O1009 1.227 . S
O1009 C1008 1.227 . S
N1010 Co996 2.140 . S
N1010 C1013 1.346 . S
N1010 C1014 1.345 . S
C1011 C1012 1.387 . S
C1011 C1015 1.391 . S
C1012 C1011 1.387 . S
C1012 C1013 1.369 . S
C1012 H1021 0.929 1_554 S
C1013 N1010 1.346 . S
C1013 C1012 1.369 . S
C1013 H1016 0.928 1_554 S
C1014 N1010 1.345 . S
C1014 C1015 1.371 . S
C1014 H1017 0.931 . S
C1015 C1011 1.391 . S
C1015 C1014 1.371 . S
C1015 H1022 0.930 . S
H1016 C1013 0.928 1_556 S
H1017 C1014 0.931 . S
H1018 C994 0.930 . S
H1019 C991 0.930 . S
H1020 C1000 0.930 . S
H1021 C1012 0.929 1_556 S
H1022 C1015 0.930 . S
C1023 C1024 1.351 . S
C1023 N1026 1.368 . S
C1023 H1028 0.931 . S
C1024 C1023 1.351 . S
C1024 N1025 1.373 . S
C1024 H1052 0.930 . S
N1025 C1024 1.373 . S
N1025 C1027 1.340 . S
N1026 C1023 1.368 . S
N1026 C1027 1.321 . S
N1026 Co1029 2.135 . S
C1027 N1025 1.340 . S
C1027 N1026 1.321 . S
C1027 H1051 0.930 . S
H1028 C1023 0.931 . S
Co1029 N1026 2.135 . S
Co1029 N1032 2.121 . S
Co1029 O1037 2.055 . S
Co1029 O1040 2.039 . S
Co1029 N1043 2.140 . S
C1030 O1031 1.227 . S
C1030 O1040 1.265 . S
O1031 C1030 1.227 . S
N1032 Co1029 2.121 . S
N1032 C1034 1.375 . S
N1032 C1035 1.313 . S
C1033 C1034 1.338 . S
C1033 N1036 1.377 . S
C1033 H1053 0.930 . S
C1034 N1032 1.375 . S
C1034 C1033 1.338 . S
C1034 H1038 0.931 . S
C1035 N1032 1.313 . S
C1035 N1036 1.344 . S
C1035 H1039 0.930 . S
N1036 C1033 1.377 . S
N1036 C1035 1.344 . S
O1037 Co1029 2.055 . S
O1037 C1041 1.253 . S
H1038 C1034 0.931 . S
H1039 C1035 0.930 . S
O1040 Co1029 2.039 . S
O1040 C1030 1.265 . S
C1041 O1037 1.253 . S
C1041 O1042 1.227 . S
O1042 C1041 1.227 . S
N1043 Co1029 2.140 . S
N1043 C1046 1.346 . S
N1043 C1047 1.345 . S
C1044 C1045 1.387 . S
C1044 C1048 1.391 . S
C1045 C1044 1.387 . S
C1045 C1046 1.369 . S
C1045 H1054 0.929 . S
C1046 N1043 1.346 . S
C1046 C1045 1.369 . S
C1046 H1049 0.928 . S
C1047 N1043 1.345 . S
C1047 C1048 1.371 . S
C1047 H1050 0.931 . S
C1048 C1044 1.391 . S
C1048 C1047 1.371 . S
C1048 H1055 0.930 . S
H1049 C1046 0.928 . S
H1050 C1047 0.931 . S
H1051 C1027 0.930 . S
H1052 C1024 0.930 . S
H1053 C1033 0.930 . S
H1054 C1045 0.929 . S
H1055 C1048 0.930 . S
C1056 C1057 1.369 . S
C1056 C1058 1.419 . S
C1056 H1060 0.930 . S
C1057 C1056 1.369 . S
C1057 C1066 1.429 . S
C1058 C1056 1.419 . S
C1058 C1059 1.363 . S
C1058 H1061 0.929 . S
C1059 C1058 1.363 . S
C1059 C1065 1.428 . S
H1060 C1056 0.930 . S
H1061 C1058 0.929 . S
S1062 N1063 1.613 . S
S1062 N1064 1.610 . S
N1063 S1062 1.613 . S
N1063 C1066 1.350 . S
N1064 S1062 1.610 . S
N1064 C1065 1.351 . S
C1065 C1059 1.428 . S
C1065 N1064 1.351 . S
C1065 C1066 1.434 . S
C1066 C1057 1.429 . S
C1066 N1063 1.350 . S
C1066 C1065 1.434 . S
C1067 C1068 1.369 . S
C1067 C1069 1.419 . S
C1067 H1071 0.930 . S
C1068 C1067 1.369 . S
C1068 C1077 1.429 . S
C1069 C1067 1.419 . S
C1069 C1070 1.363 . S
C1069 H1072 0.929 . S
C1070 C1069 1.363 . S
C1070 C1076 1.428 . S
H1071 C1067 0.930 . S
H1072 C1069 0.929 . S
S1073 N1074 1.613 . S
S1073 N1075 1.610 . S
N1074 S1073 1.613 . S
N1074 C1077 1.350 . S
N1075 S1073 1.610 . S
N1075 C1076 1.351 . S
C1076 C1070 1.428 . S
C1076 N1075 1.351 . S
C1076 C1077 1.434 . S
C1077 C1068 1.429 . S
C1077 N1074 1.350 . S
C1077 C1076 1.434 . S
C1078 C1079 1.369 . S
C1078 C1080 1.419 . S
C1078 H1082 0.930 . S
C1079 C1078 1.369 . S
C1079 C1088 1.429 . S
C1080 C1078 1.419 . S
C1080 C1081 1.363 . S
C1080 H1083 0.929 . S
C1081 C1080 1.363 . S
C1081 C1087 1.428 . S
H1082 C1078 0.930 . S
H1083 C1080 0.929 . S
S1084 N1085 1.613 1_545 S
S1084 N1086 1.610 . S
N1085 S1084 1.613 1_565 S
N1085 C1088 1.350 . S
N1086 S1084 1.610 . S
N1086 C1087 1.351 1_545 S
C1087 C1081 1.428 . S
C1087 N1086 1.351 1_565 S
C1087 C1088 1.434 . S
C1088 C1079 1.429 . S
C1088 N1085 1.350 . S
C1088 C1087 1.434 . S
C1089 C1090 1.369 . S
C1089 C1091 1.419 . S
C1089 H1093 0.930 . S
C1090 C1089 1.369 . S
C1090 C1099 1.429 . S
C1091 C1089 1.419 . S
C1091 C1092 1.363 . S
C1091 H1094 0.929 . S
C1092 C1091 1.363 . S
C1092 C1098 1.428 . S
H1093 C1089 0.930 . S
H1094 C1091 0.929 . S
S1095 N1096 1.613 . S
S1095 N1097 1.610 . S
N1096 S1095 1.613 . S
N1096 C1099 1.350 . S
N1097 S1095 1.610 . S
N1097 C1098 1.351 . S
C1098 C1092 1.428 . S
C1098 N1097 1.351 . S
C1098 C1099 1.434 . S
C1099 C1090 1.429 . S
C1099 N1096 1.350 . S
C1099 C1098 1.434 . S
C1100 C1101 1.369 . S
C1100 C1102 1.419 . S
C1100 H1104 0.930 . S
C1101 C1100 1.369 . S
C1101 C1110 1.429 . S
C1102 C1100 1.419 . S
C1102 C1103 1.363 . S
C1102 H1105 0.950 . S
C1103 C1102 1.363 . S
C1103 C1109 1.428 . S
H1104 C1100 0.930 . S
H1105 C1102 0.950 . S
S1106 N1107 1.613 . S
S1106 N1108 1.610 . S
N1107 S1106 1.613 . S
N1107 C1110 1.350 . S
N1108 S1106 1.610 . S
N1108 C1109 1.351 . S
C1109 C1103 1.428 . S
C1109 N1108 1.351 . S
C1109 C1110 1.434 . S
C1110 C1101 1.429 . S
C1110 N1107 1.350 . S
C1110 C1109 1.434 . S
C1111 C1112 1.369 . S
C1111 C1113 1.419 . S
C1111 H1115 0.930 . S
C1112 C1111 1.369 . S
C1112 C1121 1.429 . S
C1113 C1111 1.419 . S
C1113 C1114 1.363 . S
C1113 H1116 0.929 . S
C1114 C1113 1.363 . S
C1114 C1120 1.428 . S
H1115 C1111 0.930 . S
H1116 C1113 0.929 . S
S1117 N1118 1.613 . S
S1117 N1119 1.610 1_556 S
N1118 S1117 1.613 . S
N1118 C1121 1.350 1_556 S
N1119 S1117 1.610 1_554 S
N1119 C1120 1.351 . S
C1120 C1114 1.428 . S
C1120 N1119 1.351 . S
C1120 C1121 1.434 . S
C1121 C1112 1.429 . S
C1121 N1118 1.350 1_554 S
C1121 C1120 1.434 . S
C1122 C1123 1.369 . S
C1122 C1124 1.419 . S
C1122 H1126 0.930 . S
C1123 C1122 1.369 . S
C1123 C1132 1.429 . S
C1124 C1122 1.419 . S
C1124 C1125 1.363 . S
C1124 H1127 0.929 . S
C1125 C1124 1.363 . S
C1125 C1131 1.428 . S
H1126 C1122 0.930 . S
H1127 C1124 0.929 . S
S1128 N1129 1.613 . S
S1128 N1130 1.610 . S
N1129 S1128 1.613 . S
N1129 C1132 1.350 . S
N1130 S1128 1.610 . S
N1130 C1131 1.351 . S
C1131 C1125 1.428 . S
C1131 N1130 1.351 . S
C1131 C1132 1.434 . S
C1132 C1123 1.429 . S
C1132 N1129 1.350 . S
C1132 C1131 1.434 . S
C1133 C1134 1.369 . S
C1133 C1135 1.419 . S
C1133 H1137 0.930 . S
C1134 C1133 1.369 . S
C1134 C1143 1.429 . S
C1135 C1133 1.419 . S
C1135 C1136 1.363 . S
C1135 H1138 0.929 . S
C1136 C1135 1.363 . S
C1136 C1142 1.428 . S
H1137 C1133 0.930 . S
H1138 C1135 0.929 . S
S1139 N1140 1.613 . S
S1139 N1141 1.610 . S
N1140 S1139 1.613 . S
N1140 C1143 1.350 . S
N1141 S1139 1.610 . S
N1141 C1142 1.351 . S
C1142 C1136 1.428 . S
C1142 N1141 1.351 . S
C1142 C1143 1.434 . S
C1143 C1134 1.429 . S
C1143 N1140 1.350 . S
C1143 C1142 1.434 . S
C1144 C1145 1.369 . S
C1144 C1146 1.419 . S
C1144 H1148 0.930 . S
C1145 C1144 1.369 . S
C1145 C1154 1.429 . S
C1146 C1144 1.419 . S
C1146 C1147 1.363 . S
C1146 H1149 0.929 . S
C1147 C1146 1.363 . S
C1147 C1153 1.428 . S
H1148 C1144 0.930 . S
H1149 C1146 0.929 . S
S1150 N1151 1.613 . S
S1150 N1152 1.610 1_545 S
N1151 S1150 1.613 . S
N1151 C1154 1.350 1_545 S
N1152 S1150 1.610 1_565 S
N1152 C1153 1.351 . S
C1153 C1147 1.428 . S
C1153 N1152 1.351 . S
C1153 C1154 1.434 . S
C1154 C1145 1.429 . S
C1154 N1151 1.350 1_565 S
C1154 C1153 1.434 . S
C1155 C1156 1.369 . S
C1155 C1157 1.419 . S
C1155 H1159 0.930 . S
C1156 C1155 1.369 . S
C1156 C1165 1.429 . S
C1157 C1155 1.419 . S
C1157 C1158 1.363 . S
C1157 H1160 0.929 . S
C1158 C1157 1.363 . S
C1158 C1164 1.428 . S
H1159 C1155 0.930 . S
H1160 C1157 0.929 . S
S1161 N1162 1.613 . S
S1161 N1163 1.610 . S
N1162 S1161 1.613 . S
N1162 C1165 1.350 . S
N1163 S1161 1.610 . S
N1163 C1164 1.351 . S
C1164 C1158 1.428 . S
C1164 N1163 1.351 . S
C1164 C1165 1.434 . S
C1165 C1156 1.429 . S
C1165 N1162 1.350 . S
C1165 C1164 1.434 . S
C1166 C1167 1.369 . S
C1166 C1168 1.419 . S
C1166 H1170 0.930 . S
C1167 C1166 1.369 . S
C1167 C1176 1.429 . S
C1168 C1166 1.419 . S
C1168 C1169 1.363 . S
C1168 H1171 0.929 . S
C1169 C1168 1.363 . S
C1169 C1175 1.428 . S
H1170 C1166 0.930 . S
H1171 C1168 0.929 . S
S1172 N1173 1.624 . S
S1172 N1174 1.609 1_545 S
N1173 S1172 1.624 . S
N1173 C1176 1.350 . S
N1174 S1172 1.609 1_565 S
N1174 C1175 1.351 1_565 S
C1175 C1169 1.428 . S
C1175 N1174 1.351 1_545 S
C1175 C1176 1.434 . S
C1176 C1167 1.429 . S
C1176 N1173 1.350 . S
C1176 C1175 1.434 . S
C1177 C1178 1.369 . S
C1177 C1179 1.419 . S
C1177 H1181 0.930 . S
C1178 C1177 1.369 . S
C1178 C1187 1.429 . S
C1179 C1177 1.419 . S
C1179 C1180 1.363 . S
C1179 H1182 0.929 . S
C1180 C1179 1.363 . S
C1180 C1186 1.428 . S
H1181 C1177 0.930 . S
H1182 C1179 0.929 . S
S1183 N1184 1.613 . S
S1183 N1185 1.610 1_556 S
N1184 S1183 1.613 . S
N1184 C1187 1.350 1_556 S
N1185 S1183 1.610 1_554 S
N1185 C1186 1.351 . S
C1186 C1180 1.428 . S
C1186 N1185 1.351 . S
C1186 C1187 1.434 . S
C1187 C1178 1.429 . S
C1187 N1184 1.350 1_554 S
C1187 C1186 1.434 . S
C1188 C1189 1.369 . S
C1188 C1190 1.419 . S
C1188 H1192 0.930 . S
C1189 C1188 1.369 . S
C1189 C1198 1.429 . S
C1190 C1188 1.419 . S
C1190 C1191 1.363 . S
C1190 H1193 0.929 . S
C1191 C1190 1.363 . S
C1191 C1197 1.428 . S
H1192 C1188 0.930 . S
H1193 C1190 0.929 . S
S1194 N1195 1.613 . S
S1194 N1196 1.610 . S
N1195 S1194 1.613 . S
N1195 C1198 1.350 . S
N1196 S1194 1.610 . S
N1196 C1197 1.351 . S
C1197 C1191 1.428 . S
C1197 N1196 1.351 . S
C1197 C1198 1.434 . S
C1198 C1189 1.429 . S
C1198 N1195 1.350 . S
C1198 C1197 1.434 . S
C1199 C1200 1.369 . S
C1199 C1201 1.419 . S
C1199 H1203 0.930 . S
C1200 C1199 1.369 . S
C1200 C1209 1.429 . S
C1201 C1199 1.419 . S
C1201 C1202 1.363 . S
C1201 H1204 0.929 . S
C1202 C1201 1.363 . S
C1202 C1208 1.428 . S
H1203 C1199 0.930 . S
H1204 C1201 0.929 . S
S1205 N1206 1.613 . S
S1205 N1207 1.610 . S
N1206 S1205 1.613 . S
N1206 C1209 1.350 . S
N1207 S1205 1.610 . S
N1207 C1208 1.351 . S
C1208 C1202 1.428 . S
C1208 N1207 1.351 . S
C1208 C1209 1.434 . S
C1209 C1200 1.429 . S
C1209 N1206 1.350 . S
C1209 C1208 1.434 . S
C1210 C1211 1.369 . S
C1210 C1212 1.419 . S
C1210 H1214 0.930 . S
C1211 C1210 1.369 . S
C1211 C1220 1.429 . S
C1212 C1210 1.419 . S
C1212 C1213 1.363 . S
C1212 H1215 0.929 . S
C1213 C1212 1.363 . S
C1213 C1219 1.428 . S
H1214 C1210 0.930 . S
H1215 C1212 0.929 . S
S1216 N1217 1.613 . S
S1216 N1218 1.610 . S
N1217 S1216 1.613 . S
N1217 C1220 1.350 . S
N1218 S1216 1.610 . S
N1218 C1219 1.351 . S
C1219 C1213 1.428 . S
C1219 N1218 1.351 . S
C1219 C1220 1.434 . S
C1220 C1211 1.429 . S
C1220 N1217 1.350 . S
C1220 C1219 1.434 . S
C1221 C1222 1.369 . S
C1221 C1223 1.419 . S
C1221 H1225 0.930 . S
C1222 C1221 1.369 . S
C1222 C1231 1.429 . S
C1223 C1221 1.419 . S
C1223 C1224 1.363 . S
C1223 H1226 0.929 . S
C1224 C1223 1.363 . S
C1224 C1230 1.428 . S
H1225 C1221 0.930 . S
H1226 C1223 0.929 . S
S1227 N1228 1.613 . S
S1227 N1229 1.610 . S
N1228 S1227 1.613 . S
N1228 C1231 1.350 . S
N1229 S1227 1.610 . S
N1229 C1230 1.351 . S
C1230 C1224 1.428 . S
C1230 N1229 1.351 . S
C1230 C1231 1.434 . S
C1231 C1222 1.429 . S
C1231 N1228 1.350 . S
C1231 C1230 1.434 . S
C1232 C1233 1.369 . S
C1232 C1234 1.419 . S
C1232 H1236 0.930 . S
C1233 C1232 1.369 . S
C1233 C1242 1.429 . S
C1234 C1232 1.419 . S
C1234 C1235 1.363 . S
C1234 H1237 0.929 . S
C1235 C1234 1.363 . S
C1235 C1241 1.428 . S
H1236 C1232 0.930 . S
H1237 C1234 0.929 . S
S1238 N1239 1.613 . S
S1238 N1240 1.610 . S
N1239 S1238 1.613 . S
N1239 C1242 1.350 . S
N1240 S1238 1.610 . S
N1240 C1241 1.351 . S
C1241 C1235 1.428 . S
C1241 N1240 1.351 . S
C1241 C1242 1.434 . S
C1242 C1233 1.429 . S
C1242 N1239 1.350 . S
C1242 C1241 1.434 . S
C1243 C1244 1.369 . S
C1243 C1245 1.419 . S
C1243 H1247 0.930 . S
C1244 C1243 1.369 . S
C1244 C1253 1.429 . S
C1245 C1243 1.419 . S
C1245 C1246 1.363 . S
C1245 H1248 0.950 . S
C1246 C1245 1.363 . S
C1246 C1252 1.428 . S
H1247 C1243 0.930 . S
H1248 C1245 0.950 . S
S1249 N1250 1.613 . S
S1249 N1251 1.610 . S
N1250 S1249 1.613 . S
N1250 C1253 1.350 . S
N1251 S1249 1.610 . S
N1251 C1252 1.351 . S
C1252 C1246 1.428 . S
C1252 N1251 1.351 . S
C1252 C1253 1.434 . S
C1253 C1244 1.429 . S
C1253 N1250 1.350 . S
C1253 C1252 1.434 . S
C1254 C1255 1.369 . S
C1254 C1256 1.419 . S
C1254 H1258 0.930 . S
C1255 C1254 1.369 . S
C1255 C1264 1.429 . S
C1256 C1254 1.419 . S
C1256 C1257 1.363 . S
C1256 H1259 0.929 . S
C1257 C1256 1.363 . S
C1257 C1263 1.428 . S
H1258 C1254 0.930 . S
H1259 C1256 0.929 . S
S1260 N1261 1.613 . S
S1260 N1262 1.610 . S
N1261 S1260 1.613 . S
N1261 C1264 1.350 . S
N1262 S1260 1.610 . S
N1262 C1263 1.351 . S
C1263 C1257 1.428 . S
C1263 N1262 1.351 . S
C1263 C1264 1.434 . S
C1264 C1255 1.429 . S
C1264 N1261 1.350 . S
C1264 C1263 1.434 . S
C1265 C1266 1.369 . S
C1265 C1267 1.419 . S
C1265 H1269 0.930 . S
C1266 C1265 1.369 . S
C1266 C1275 1.429 . S
C1267 C1265 1.419 . S
C1267 C1268 1.363 . S
C1267 H1270 0.929 . S
C1268 C1267 1.363 . S
C1268 C1274 1.428 . S
H1269 C1265 0.930 . S
H1270 C1267 0.929 . S
S1271 N1272 1.613 . S
S1271 N1273 1.610 . S
N1272 S1271 1.613 . S
N1272 C1275 1.350 . S
N1273 S1271 1.610 . S
N1273 C1274 1.351 . S
C1274 C1268 1.428 . S
C1274 N1273 1.351 . S
C1274 C1275 1.434 . S
C1275 C1266 1.429 . S
C1275 N1272 1.350 . S
C1275 C1274 1.434 . S
C1276 C1277 1.369 . S
C1276 C1278 1.419 . S
C1276 H1280 0.930 . S
C1277 C1276 1.369 . S
C1277 C1286 1.429 . S
C1278 C1276 1.419 . S
C1278 C1279 1.363 . S
C1278 H1281 0.929 . S
C1279 C1278 1.363 . S
C1279 C1285 1.428 . S
H1280 C1276 0.930 . S
H1281 C1278 0.929 . S
S1282 N1283 1.613 . S
S1282 N1284 1.610 . S
N1283 S1282 1.613 . S
N1283 C1286 1.350 . S
N1284 S1282 1.610 . S
N1284 C1285 1.351 . S
C1285 C1279 1.428 . S
C1285 N1284 1.351 . S
C1285 C1286 1.434 . S
C1286 C1277 1.429 . S
C1286 N1283 1.350 . S
C1286 C1285 1.434 . S
C1287 C1288 1.369 . S
C1287 C1289 1.419 . S
C1287 H1291 0.930 . S
C1288 C1287 1.369 . S
C1288 C1297 1.429 . S
C1289 C1287 1.419 . S
C1289 C1290 1.363 . S
C1289 H1292 0.929 . S
C1290 C1289 1.363 . S
C1290 C1296 1.428 . S
H1291 C1287 0.930 . S
H1292 C1289 0.929 . S
S1293 N1294 1.613 . S
S1293 N1295 1.610 . S
N1294 S1293 1.613 . S
N1294 C1297 1.350 . S
N1295 S1293 1.610 . S
N1295 C1296 1.351 . S
C1296 C1290 1.428 . S
C1296 N1295 1.351 . S
C1296 C1297 1.434 . S
C1297 C1288 1.429 . S
C1297 N1294 1.350 . S
C1297 C1296 1.434 . S
C1298 C1299 1.369 . S
C1298 C1300 1.419 . S
C1298 H1302 0.930 . S
C1299 C1298 1.369 . S
C1299 C1308 1.429 . S
C1300 C1298 1.419 . S
C1300 C1301 1.363 . S
C1300 H1303 0.929 . S
C1301 C1300 1.363 . S
C1301 C1307 1.428 . S
H1302 C1298 0.930 . S
H1303 C1300 0.929 . S
S1304 N1305 1.613 . S
S1304 N1306 1.610 . S
N1305 S1304 1.613 . S
N1305 C1308 1.350 . S
N1306 S1304 1.610 . S
N1306 C1307 1.351 . S
C1307 C1301 1.428 . S
C1307 N1306 1.351 . S
C1307 C1308 1.434 . S
C1308 C1299 1.429 . S
C1308 N1305 1.350 . S
C1308 C1307 1.434 . S
C1309 C1310 1.369 . S
C1309 C1311 1.419 . S
C1309 H1313 0.930 . S
C1310 C1309 1.369 . S
C1310 C1319 1.429 . S
C1311 C1309 1.419 . S
C1311 C1312 1.363 . S
C1311 H1314 0.929 1_554 S
C1312 C1311 1.363 . S
C1312 C1318 1.428 . S
H1313 C1309 0.930 . S
H1314 C1311 0.929 1_556 S
S1315 N1316 1.613 . S
S1315 N1317 1.610 . S
N1316 S1315 1.613 . S
N1316 C1319 1.350 . S
N1317 S1315 1.610 . S
N1317 C1318 1.351 . S
C1318 C1312 1.428 . S
C1318 N1317 1.351 . S
C1318 C1319 1.434 . S
C1319 C1310 1.429 . S
C1319 N1316 1.350 . S
C1319 C1318 1.434 . S
C1320 C1321 1.369 . S
C1320 C1322 1.419 . S
C1320 H1324 0.930 . S
C1321 C1320 1.369 . S
C1321 C1330 1.429 . S
C1322 C1320 1.419 . S
C1322 C1323 1.363 . S
C1322 H1325 0.929 . S
C1323 C1322 1.363 . S
C1323 C1329 1.428 . S
H1324 C1320 0.930 . S
H1325 C1322 0.929 . S
S1326 N1327 1.613 . S
S1326 N1328 1.610 . S
N1327 S1326 1.613 . S
N1327 C1330 1.350 . S
N1328 S1326 1.610 . S
N1328 C1329 1.351 . S
C1329 C1323 1.428 . S
C1329 N1328 1.351 . S
C1329 C1330 1.434 . S
C1330 C1321 1.429 . S
C1330 N1327 1.350 . S
C1330 C1329 1.434 . S
C1331 C1332 1.369 . S
C1331 C1333 1.419 . S
C1331 H1335 0.930 . S
C1332 C1331 1.369 . S
C1332 C1341 1.429 . S
C1333 C1331 1.419 . S
C1333 C1334 1.363 . S
C1333 H1336 0.929 1_554 S
C1334 C1333 1.363 . S
C1334 C1340 1.428 . S
H1335 C1331 0.930 . S
H1336 C1333 0.929 1_556 S
S1337 N1338 1.613 . S
S1337 N1339 1.610 . S
N1338 S1337 1.613 . S
N1338 C1341 1.350 . S
N1339 S1337 1.610 . S
N1339 C1340 1.351 . S
C1340 C1334 1.428 . S
C1340 N1339 1.351 . S
C1340 C1341 1.434 . S
C1341 C1332 1.429 . S
C1341 N1338 1.350 . S
C1341 C1340 1.434 . S
C1342 C1343 1.369 . S
C1342 C1344 1.419 . S
C1342 H1346 0.930 . S
C1343 C1342 1.369 . S
C1343 C1352 1.429 . S
C1344 C1342 1.419 . S
C1344 C1345 1.363 . S
C1344 H1347 0.929 . S
C1345 C1344 1.363 . S
C1345 C1351 1.428 . S
H1346 C1342 0.930 . S
H1347 C1344 0.929 . S
S1348 N1349 1.613 . S
S1348 N1350 1.610 . S
N1349 S1348 1.613 . S
N1349 C1352 1.350 . S
N1350 S1348 1.610 . S
N1350 C1351 1.351 . S
C1351 C1345 1.428 . S
C1351 N1350 1.351 . S
C1351 C1352 1.434 . S
C1352 C1343 1.429 . S
C1352 N1349 1.350 . S
C1352 C1351 1.434 . S
C1353 C1354 1.369 . S
C1353 C1355 1.419 . S
C1353 H1357 0.930 . S
C1354 C1353 1.369 . S
C1354 C1363 1.429 . S
C1355 C1353 1.419 . S
C1355 C1356 1.363 . S
C1355 H1358 0.929 . S
C1356 C1355 1.363 . S
C1356 C1362 1.428 . S
H1357 C1353 0.930 . S
H1358 C1355 0.929 . S
S1359 N1360 1.613 . S
S1359 N1361 1.610 . S
N1360 S1359 1.613 . S
N1360 C1363 1.350 . S
N1361 S1359 1.610 . S
N1361 C1362 1.351 . S
C1362 C1356 1.428 . S
C1362 N1361 1.351 . S
C1362 C1363 1.434 . S
C1363 C1354 1.429 . S
C1363 N1360 1.350 . S
C1363 C1362 1.434 . S
C1364 C1365 1.369 . S
C1364 C1366 1.419 . S
C1364 H1368 0.930 . S
C1365 C1364 1.369 . S
C1365 C1374 1.429 . S
C1366 C1364 1.419 . S
C1366 C1367 1.363 . S
C1366 H1369 0.929 . S
C1367 C1366 1.363 . S
C1367 C1373 1.428 . S
H1368 C1364 0.930 . S
H1369 C1366 0.929 . S
S1370 N1371 1.613 . S
S1370 N1372 1.610 . S
N1371 S1370 1.613 . S
N1371 C1374 1.350 . S
N1372 S1370 1.610 . S
N1372 C1373 1.351 . S
C1373 C1367 1.428 . S
C1373 N1372 1.351 . S
C1373 C1374 1.434 . S
C1374 C1365 1.429 . S
C1374 N1371 1.350 . S
C1374 C1373 1.434 . S
C1375 C1376 1.369 . S
C1375 C1377 1.419 . S
C1375 H1379 0.930 . S
C1376 C1375 1.369 . S
C1376 C1385 1.429 . S
C1377 C1375 1.419 . S
C1377 C1378 1.363 . S
C1377 H1380 0.929 . S
C1378 C1377 1.363 . S
C1378 C1384 1.428 . S
H1379 C1375 0.930 . S
H1380 C1377 0.929 . S
S1381 N1382 1.613 . S
S1381 N1383 1.610 . S
N1382 S1381 1.613 . S
N1382 C1385 1.350 . S
N1383 S1381 1.610 . S
N1383 C1384 1.351 . S
C1384 C1378 1.428 . S
C1384 N1383 1.351 . S
C1384 C1385 1.434 . S
C1385 C1376 1.429 . S
C1385 N1382 1.350 . S
C1385 C1384 1.434 . S
C1386 C1387 1.369 . S
C1386 C1388 1.419 . S
C1386 H1390 0.930 . S
C1387 C1386 1.369 . S
C1387 C1396 1.429 . S
C1388 C1386 1.419 . S
C1388 C1389 1.363 . S
C1388 H1391 0.929 . S
C1389 C1388 1.363 . S
C1389 C1395 1.428 . S
H1390 C1386 0.930 . S
H1391 C1388 0.929 . S
S1392 N1393 1.613 . S
S1392 N1394 1.610 . S
N1393 S1392 1.613 . S
N1393 C1396 1.350 . S
N1394 S1392 1.610 . S
N1394 C1395 1.351 . S
C1395 C1389 1.428 . S
C1395 N1394 1.351 . S
C1395 C1396 1.434 . S
C1396 C1387 1.429 . S
C1396 N1393 1.350 . S
C1396 C1395 1.434 . S
C1397 C1398 1.369 . S
C1397 C1399 1.419 . S
C1397 H1401 0.930 . S
C1398 C1397 1.369 . S
C1398 C1407 1.429 . S
C1399 C1397 1.419 . S
C1399 C1400 1.363 . S
C1399 H1402 0.929 . S
C1400 C1399 1.363 . S
C1400 C1406 1.428 . S
H1401 C1397 0.930 . S
H1402 C1399 0.929 . S
S1403 N1404 1.613 . S
S1403 N1405 1.610 1_554 S
N1404 S1403 1.613 . S
N1404 C1407 1.350 1_554 S
N1405 S1403 1.610 1_556 S
N1405 C1406 1.351 . S
C1406 C1400 1.428 . S
C1406 N1405 1.351 . S
C1406 C1407 1.434 . S
C1407 C1398 1.429 . S
C1407 N1404 1.350 1_556 S
C1407 C1406 1.434 . S
C1408 C1409 1.369 . S
C1408 C1410 1.419 . S
C1408 H1412 0.930 . S
C1409 C1408 1.369 . S
C1409 C1418 1.429 . S
C1410 C1408 1.419 . S
C1410 C1411 1.363 . S
C1410 H1413 0.929 . S
C1411 C1410 1.363 . S
C1411 C1417 1.428 . S
H1412 C1408 0.930 . S
H1413 C1410 0.929 . S
S1414 N1415 1.613 . S
S1414 N1416 1.610 . S
N1415 S1414 1.613 . S
N1415 C1418 1.350 . S
N1416 S1414 1.610 . S
N1416 C1417 1.351 . S
C1417 C1411 1.428 . S
C1417 N1416 1.351 . S
C1417 C1418 1.434 . S
C1418 C1409 1.429 . S
C1418 N1415 1.350 . S
C1418 C1417 1.434 . S
C1419 C1420 1.369 . S
C1419 C1421 1.419 . S
C1419 H1423 0.930 . S
C1420 C1419 1.369 . S
C1420 C1429 1.429 1_565 S
C1421 C1419 1.419 . S
C1421 C1422 1.363 1_565 S
C1421 H1424 0.929 . S
C1422 C1421 1.363 1_545 S
C1422 C1428 1.428 . S
H1423 C1419 0.930 . S
H1424 C1421 0.929 . S
S1425 N1426 1.613 . S
S1425 N1427 1.610 . S
N1426 S1425 1.613 . S
N1426 C1429 1.350 . S
N1427 S1425 1.610 . S
N1427 C1428 1.351 . S
C1428 C1422 1.428 . S
C1428 N1427 1.351 . S
C1428 C1429 1.434 . S
C1429 C1420 1.429 1_545 S
C1429 N1426 1.350 . S
C1429 C1428 1.434 . S
C1430 C1431 1.369 . S
C1430 C1432 1.419 . S
C1430 H1434 0.930 . S
C1431 C1430 1.369 . S
C1431 C1440 1.429 . S
C1432 C1430 1.419 . S
C1432 C1433 1.363 . S
C1432 H1435 0.929 . S
C1433 C1432 1.363 . S
C1433 C1439 1.428 . S
H1434 C1430 0.930 . S
H1435 C1432 0.929 . S
S1436 N1437 1.613 . S
S1436 N1438 1.610 . S
N1437 S1436 1.613 . S
N1437 C1440 1.350 . S
N1438 S1436 1.610 . S
N1438 C1439 1.351 . S
C1439 C1433 1.428 . S
C1439 N1438 1.351 . S
C1439 C1440 1.434 . S
C1440 C1431 1.429 . S
C1440 N1437 1.350 . S
C1440 C1439 1.434 . S
C1441 C1442 1.369 . S
C1441 C1443 1.419 1_556 S
C1441 H1445 0.930 . S
C1442 C1441 1.369 . S
C1442 C1451 1.429 1_545 S
C1443 C1441 1.419 1_554 S
C1443 C1444 1.363 1_545 S
C1443 H1446 0.929 . S
C1444 C1443 1.363 1_565 S
C1444 C1450 1.428 . S
H1445 C1441 0.930 . S
H1446 C1443 0.929 . S
S1447 N1448 1.613 . S
S1447 N1449 1.610 1_556 S
N1448 S1447 1.613 . S
N1448 C1451 1.350 . S
N1449 S1447 1.610 1_554 S
N1449 C1450 1.351 . S
C1450 C1444 1.428 . S
C1450 N1449 1.351 . S
C1450 C1451 1.434 1_554 S
C1451 C1442 1.429 1_565 S
C1451 N1448 1.350 . S
C1451 C1450 1.434 1_556 S
C1452 C1453 1.369 . S
C1452 C1454 1.419 . S
C1452 H1456 0.930 . S
C1453 C1452 1.369 . S
C1453 C1462 1.429 . S
C1454 C1452 1.419 . S
C1454 C1455 1.363 . S
C1454 H1457 0.929 . S
C1455 C1454 1.363 . S
C1455 C1461 1.428 . S
H1456 C1452 0.930 . S
H1457 C1454 0.929 . S
S1458 N1459 1.613 . S
S1458 N1460 1.610 . S
N1459 S1458 1.613 . S
N1459 C1462 1.350 . S
N1460 S1458 1.610 . S
N1460 C1461 1.351 . S
C1461 C1455 1.428 . S
C1461 N1460 1.351 . S
C1461 C1462 1.434 . S
C1462 C1453 1.429 . S
C1462 N1459 1.350 . S
C1462 C1461 1.434 . S
C1463 C1464 1.369 1_545 S
C1463 C1465 1.419 . S
C1463 H1467 0.930 . S
C1464 C1463 1.369 1_565 S
C1464 C1473 1.429 . S
C1465 C1463 1.419 . S
C1465 C1466 1.363 . S
C1465 H1468 0.929 . S
C1466 C1465 1.363 . S
C1466 C1472 1.428 1_545 S
H1467 C1463 0.930 . S
H1468 C1465 0.929 . S
S1469 N1470 1.613 . S
S1469 N1471 1.610 . S
N1470 S1469 1.613 . S
N1470 C1473 1.350 . S
N1471 S1469 1.610 . S
N1471 C1472 1.351 . S
C1472 C1466 1.428 1_565 S
C1472 N1471 1.351 . S
C1472 C1473 1.434 . S
C1473 C1464 1.429 . S
C1473 N1470 1.350 . S
C1473 C1472 1.434 . S
C1474 C1475 1.369 . S
C1474 C1476 1.419 . S
C1474 H1478 0.930 . S
C1475 C1474 1.369 . S
C1475 C1484 1.429 . S
C1476 C1474 1.419 . S
C1476 C1477 1.363 . S
C1476 H1479 0.929 . S
C1477 C1476 1.363 . S
C1477 C1483 1.428 . S
H1478 C1474 0.930 . S
H1479 C1476 0.929 . S
S1480 N1481 1.613 . S
S1480 N1482 1.610 . S
N1481 S1480 1.613 . S
N1481 C1484 1.350 . S
N1482 S1480 1.610 . S
N1482 C1483 1.351 . S
C1483 C1477 1.428 . S
C1483 N1482 1.351 . S
C1483 C1484 1.434 . S
C1484 C1475 1.429 . S
C1484 N1481 1.350 . S
C1484 C1483 1.434 . S
C1485 C1486 1.369 . S
C1485 C1487 1.419 1_556 S
C1485 H1489 0.930 . S
C1486 C1485 1.369 . S
C1486 C1495 1.429 1_545 S
C1487 C1485 1.419 1_554 S
C1487 C1488 1.363 1_545 S
C1487 H1490 0.929 . S
C1488 C1487 1.363 1_565 S
C1488 C1494 1.428 . S
H1489 C1485 0.930 . S
H1490 C1487 0.929 . S
S1491 N1492 1.613 . S
S1491 N1493 1.610 1_556 S
N1492 S1491 1.613 . S
N1492 C1495 1.350 . S
N1493 S1491 1.610 1_554 S
N1493 C1494 1.351 . S
C1494 C1488 1.428 . S
C1494 N1493 1.351 . S
C1494 C1495 1.434 1_554 S
C1495 C1486 1.429 1_565 S
C1495 N1492 1.350 . S
C1495 C1494 1.434 1_556 S
C1496 C1497 1.369 . S
C1496 C1498 1.419 . S
C1496 H1500 0.930 . S
C1497 C1496 1.369 . S
C1497 C1506 1.429 . S
C1498 C1496 1.419 . S
C1498 C1499 1.363 . S
C1498 H1501 0.929 . S
C1499 C1498 1.363 . S
C1499 C1505 1.428 . S
H1500 C1496 0.930 . S
H1501 C1498 0.929 . S
S1502 N1503 1.613 . S
S1502 N1504 1.610 . S
N1503 S1502 1.613 . S
N1503 C1506 1.350 . S
N1504 S1502 1.610 . S
N1504 C1505 1.351 . S
C1505 C1499 1.428 . S
C1505 N1504 1.351 . S
C1505 C1506 1.434 . S
C1506 C1497 1.429 . S
C1506 N1503 1.350 . S
C1506 C1505 1.434 . S
C1507 C1508 1.369 . S
C1507 C1509 1.419 1_554 S
C1507 H1511 0.930 . S
C1508 C1507 1.369 . S
C1508 C1517 1.429 . S
C1509 C1507 1.419 1_556 S
C1509 C1510 1.363 . S
C1509 H1512 0.929 . S
C1510 C1509 1.363 . S
C1510 C1516 1.428 . S
H1511 C1507 0.930 . S
H1512 C1509 0.929 . S
S1513 N1514 1.613 . S
S1513 N1515 1.610 1_554 S
N1514 S1513 1.613 . S
N1514 C1517 1.350 . S
N1515 S1513 1.610 1_556 S
N1515 C1516 1.351 . S
C1516 C1510 1.428 . S
C1516 N1515 1.351 . S
C1516 C1517 1.434 1_556 S
C1517 C1508 1.429 . S
C1517 N1514 1.350 . S
C1517 C1516 1.434 1_554 S
C1518 C1519 1.369 . S
C1518 C1520 1.419 . S
C1518 H1522 0.930 . S
C1519 C1518 1.369 . S
C1519 C1528 1.429 . S
C1520 C1518 1.419 . S
C1520 C1521 1.363 . S
C1520 H1523 0.929 . S
C1521 C1520 1.363 . S
C1521 C1527 1.428 . S
H1522 C1518 0.930 . S
H1523 C1520 0.929 . S
S1524 N1525 1.613 . S
S1524 N1526 1.610 . S
N1525 S1524 1.613 . S
N1525 C1528 1.350 . S
N1526 S1524 1.610 . S
N1526 C1527 1.351 . S
C1527 C1521 1.428 . S
C1527 N1526 1.351 . S
C1527 C1528 1.434 . S
C1528 C1519 1.429 . S
C1528 N1525 1.350 . S
C1528 C1527 1.434 . S
C1529 C1530 1.369 . S
C1529 C1531 1.419 . S
C1529 H1533 0.930 . S
C1530 C1529 1.369 . S
C1530 C1539 1.429 . S
C1531 C1529 1.419 . S
C1531 C1532 1.363 . S
C1531 H1534 0.929 . S
C1532 C1531 1.363 . S
C1532 C1538 1.428 . S
H1533 C1529 0.930 . S
H1534 C1531 0.929 . S
S1535 N1536 1.613 . S
S1535 N1537 1.610 . S
N1536 S1535 1.613 . S
N1536 C1539 1.350 . S
N1537 S1535 1.610 . S
N1537 C1538 1.351 . S
C1538 C1532 1.428 . S
C1538 N1537 1.351 . S
C1538 C1539 1.434 . S
C1539 C1530 1.429 . S
C1539 N1536 1.350 . S
C1539 C1538 1.434 . S
C1540 C1541 1.369 . S
C1540 C1542 1.419 . S
C1540 H1544 0.930 . S
C1541 C1540 1.369 . S
C1541 C1550 1.429 . S
C1542 C1540 1.419 . S
C1542 C1543 1.363 . S
C1542 H1545 0.929 . S
C1543 C1542 1.363 . S
C1543 C1549 1.428 . S
H1544 C1540 0.930 . S
H1545 C1542 0.929 . S
S1546 N1547 1.613 . S
S1546 N1548 1.610 . S
N1547 S1546 1.613 . S
N1547 C1550 1.350 . S
N1548 S1546 1.610 . S
N1548 C1549 1.351 . S
C1549 C1543 1.428 . S
C1549 N1548 1.351 . S
C1549 C1550 1.434 . S
C1550 C1541 1.429 . S
C1550 N1547 1.350 . S
C1550 C1549 1.434 . S
C1551 C1552 1.369 . S
C1551 C1553 1.419 1_556 S
C1551 H1555 0.930 . S
C1552 C1551 1.369 . S
C1552 C1561 1.429 . S
C1553 C1551 1.419 1_554 S
C1553 C1554 1.363 . S
C1553 H1556 0.929 . S
C1554 C1553 1.363 . S
C1554 C1560 1.428 . S
H1555 C1551 0.930 . S
H1556 C1553 0.929 . S
S1557 N1558 1.613 1_554 S
S1557 N1559 1.610 . S
N1558 S1557 1.613 1_556 S
N1558 C1561 1.350 . S
N1559 S1557 1.610 . S
N1559 C1560 1.351 . S
C1560 C1554 1.428 . S
C1560 N1559 1.351 . S
C1560 C1561 1.434 1_554 S
C1561 C1552 1.429 . S
C1561 N1558 1.350 . S
C1561 C1560 1.434 1_556 S
C1562 C1563 1.369 . S
C1562 C1564 1.419 . S
C1562 H1566 0.930 . S
C1563 C1562 1.369 . S
C1563 C1572 1.429 . S
C1564 C1562 1.419 . S
C1564 C1565 1.363 . S
C1564 H1567 0.929 . S
C1565 C1564 1.363 . S
C1565 C1571 1.428 . S
H1566 C1562 0.930 . S
H1567 C1564 0.929 . S
S1568 N1569 1.613 . S
S1568 N1570 1.610 . S
N1569 S1568 1.613 . S
N1569 C1572 1.350 . S
N1570 S1568 1.610 . S
N1570 C1571 1.351 . S
C1571 C1565 1.428 . S
C1571 N1570 1.351 . S
C1571 C1572 1.434 . S
C1572 C1563 1.429 . S
C1572 N1569 1.350 . S
C1572 C1571 1.434 . S
C1573 C1574 1.369 . S
C1573 C1575 1.419 . S
C1573 H1577 0.930 . S
C1574 C1573 1.369 . S
C1574 C1583 1.429 . S
C1575 C1573 1.419 . S
C1575 C1576 1.363 . S
C1575 H1578 0.929 . S
C1576 C1575 1.363 . S
C1576 C1582 1.428 . S
H1577 C1573 0.930 . S
H1578 C1575 0.929 . S
S1579 N1580 1.613 . S
S1579 N1581 1.610 . S
N1580 S1579 1.613 . S
N1580 C1583 1.350 . S
N1581 S1579 1.610 . S
N1581 C1582 1.351 . S
C1582 C1576 1.428 . S
C1582 N1581 1.351 . S
C1582 C1583 1.434 . S
C1583 C1574 1.429 . S
C1583 N1580 1.350 . S
C1583 C1582 1.434 . S
C1584 C1585 1.369 . S
C1584 C1586 1.419 . S
C1584 H1588 0.930 . S
C1585 C1584 1.369 . S
C1585 C1594 1.429 . S
C1586 C1584 1.419 . S
C1586 C1587 1.363 . S
C1586 H1589 0.929 . S
C1587 C1586 1.363 . S
C1587 C1593 1.428 . S
H1588 C1584 0.930 . S
H1589 C1586 0.929 . S
S1590 N1591 1.613 . S
S1590 N1592 1.610 . S
N1591 S1590 1.613 . S
N1591 C1594 1.350 . S
N1592 S1590 1.610 . S
N1592 C1593 1.351 . S
C1593 C1587 1.428 . S
C1593 N1592 1.351 . S
C1593 C1594 1.434 . S
C1594 C1585 1.429 . S
C1594 N1591 1.350 . S
C1594 C1593 1.434 . S
C1595 C1596 1.369 . S
C1595 C1597 1.419 . S
C1595 H1599 0.930 . S
C1596 C1595 1.369 . S
C1596 C1605 1.429 . S
C1597 C1595 1.419 . S
C1597 C1598 1.363 . S
C1597 H1600 0.929 . S
C1598 C1597 1.363 . S
C1598 C1604 1.428 . S
H1599 C1595 0.930 . S
H1600 C1597 0.929 . S
S1601 N1602 1.613 . S
S1601 N1603 1.610 . S
N1602 S1601 1.613 . S
N1602 C1605 1.350 . S
N1603 S1601 1.610 . S
N1603 C1604 1.351 . S
C1604 C1598 1.428 . S
C1604 N1603 1.351 . S
C1604 C1605 1.434 . S
C1605 C1596 1.429 . S
C1605 N1602 1.350 . S
C1605 C1604 1.434 . S
C1606 C1607 1.369 . S
C1606 C1608 1.419 . S
C1606 H1610 0.930 . S
C1607 C1606 1.369 . S
C1607 C1616 1.429 . S
C1608 C1606 1.419 . S
C1608 C1609 1.363 . S
C1608 H1611 0.929 . S
C1609 C1608 1.363 . S
C1609 C1615 1.428 . S
H1610 C1606 0.930 . S
H1611 C1608 0.929 . S
S1612 N1613 1.613 . S
S1612 N1614 1.610 . S
N1613 S1612 1.613 . S
N1613 C1616 1.350 . S
N1614 S1612 1.610 . S
N1614 C1615 1.351 . S
C1615 C1609 1.428 . S
C1615 N1614 1.351 . S
C1615 C1616 1.434 . S
C1616 C1607 1.429 . S
C1616 N1613 1.350 . S
C1616 C1615 1.434 . S
C1617 C1618 1.369 . S
C1617 C1619 1.419 . S
C1617 H1621 0.930 . S
C1618 C1617 1.369 . S
C1618 C1627 1.429 . S
C1619 C1617 1.419 . S
C1619 C1620 1.363 . S
C1619 H1622 0.929 . S
C1620 C1619 1.363 . S
C1620 C1626 1.428 . S
H1621 C1617 0.930 . S
H1622 C1619 0.929 . S
S1623 N1624 1.613 . S
S1623 N1625 1.610 . S
N1624 S1623 1.613 . S
N1624 C1627 1.350 . S
N1625 S1623 1.610 . S
N1625 C1626 1.351 . S
C1626 C1620 1.428 . S
C1626 N1625 1.351 . S
C1626 C1627 1.434 . S
C1627 C1618 1.429 . S
C1627 N1624 1.350 . S
C1627 C1626 1.434 . S
C1628 C1629 1.369 . S
C1628 C1630 1.419 . S
C1628 H1632 0.930 . S
C1629 C1628 1.369 . S
C1629 C1638 1.429 . S
C1630 C1628 1.419 . S
C1630 C1631 1.363 . S
C1630 H1633 0.929 . S
C1631 C1630 1.363 . S
C1631 C1637 1.428 . S
H1632 C1628 0.930 . S
H1633 C1630 0.929 . S
S1634 N1635 1.613 . S
S1634 N1636 1.610 . S
N1635 S1634 1.613 . S
N1635 C1638 1.350 . S
N1636 S1634 1.610 . S
N1636 C1637 1.351 . S
C1637 C1631 1.428 . S
C1637 N1636 1.351 . S
C1637 C1638 1.434 . S
C1638 C1629 1.429 . S
C1638 N1635 1.350 . S
C1638 C1637 1.434 . S
C1639 C1640 1.369 . S
C1639 C1641 1.419 . S
C1639 H1643 0.930 . S
C1640 C1639 1.369 . S
C1640 C1649 1.429 . S
C1641 C1639 1.419 . S
C1641 C1642 1.363 . S
C1641 H1644 0.929 . S
C1642 C1641 1.363 . S
C1642 C1648 1.428 . S
H1643 C1639 0.930 . S
H1644 C1641 0.929 . S
S1645 N1646 1.613 . S
S1645 N1647 1.610 . S
N1646 S1645 1.613 . S
N1646 C1649 1.350 . S
N1647 S1645 1.610 . S
N1647 C1648 1.351 . S
C1648 C1642 1.428 . S
C1648 N1647 1.351 . S
C1648 C1649 1.434 . S
C1649 C1640 1.429 . S
C1649 N1646 1.350 . S
C1649 C1648 1.434 . S
C1650 C1651 1.369 . S
C1650 C1652 1.419 . S
C1650 H1654 0.930 . S
C1651 C1650 1.369 . S
C1651 C1660 1.429 . S
C1652 C1650 1.419 . S
C1652 C1653 1.363 . S
C1652 H1655 0.929 . S
C1653 C1652 1.363 . S
C1653 C1659 1.428 . S
H1654 C1650 0.930 . S
H1655 C1652 0.929 . S
S1656 N1657 1.613 . S
S1656 N1658 1.610 . S
N1657 S1656 1.613 . S
N1657 C1660 1.350 . S
N1658 S1656 1.610 . S
N1658 C1659 1.351 . S
C1659 C1653 1.428 . S
C1659 N1658 1.351 . S
C1659 C1660 1.434 . S
C1660 C1651 1.429 . S
C1660 N1657 1.350 . S
C1660 C1659 1.434 . S
C1661 C1662 1.369 . S
C1661 C1663 1.419 . S
C1661 H1665 0.930 . S
C1662 C1661 1.369 . S
C1662 C1671 1.429 . S
C1663 C1661 1.419 . S
C1663 C1664 1.363 . S
C1663 H1666 0.929 . S
C1664 C1663 1.363 . S
C1664 C1670 1.428 . S
H1665 C1661 0.930 . S
H1666 C1663 0.929 . S
S1667 N1668 1.613 . S
S1667 N1669 1.610 . S
N1668 S1667 1.613 . S
N1668 C1671 1.350 . S
N1669 S1667 1.610 . S
N1669 C1670 1.351 . S
C1670 C1664 1.428 . S
C1670 N1669 1.351 . S
C1670 C1671 1.434 . S
C1671 C1662 1.429 . S
C1671 N1668 1.350 . S
C1671 C1670 1.434 . S
C1672 C1673 1.369 . S
C1672 C1674 1.419 . S
C1672 H1676 0.930 . S
C1673 C1672 1.369 . S
C1673 C1682 1.429 . S
C1674 C1672 1.419 . S
C1674 C1675 1.363 . S
C1674 H1677 0.929 . S
C1675 C1674 1.363 . S
C1675 C1681 1.428 . S
H1676 C1672 0.930 . S
H1677 C1674 0.929 . S
S1678 N1679 1.613 . S
S1678 N1680 1.610 . S
N1679 S1678 1.613 . S
N1679 C1682 1.350 . S
N1680 S1678 1.610 . S
N1680 C1681 1.351 . S
C1681 C1675 1.428 . S
C1681 N1680 1.351 . S
C1681 C1682 1.434 . S
C1682 C1673 1.429 . S
C1682 N1679 1.350 . S
C1682 C1681 1.434 . S
C1683 C1684 1.369 . S
C1683 C1685 1.419 . S
C1683 H1687 0.930 . S
C1684 C1683 1.369 . S
C1684 C1693 1.429 . S
C1685 C1683 1.419 . S
C1685 C1686 1.363 . S
C1685 H1688 0.929 . S
C1686 C1685 1.363 . S
C1686 C1692 1.428 . S
H1687 C1683 0.930 . S
H1688 C1685 0.929 . S
S1689 N1690 1.613 . S
S1689 N1691 1.610 . S
N1690 S1689 1.613 . S
N1690 C1693 1.350 . S
N1691 S1689 1.610 . S
N1691 C1692 1.351 . S
C1692 C1686 1.428 . S
C1692 N1691 1.351 . S
C1692 C1693 1.434 . S
C1693 C1684 1.429 . S
C1693 N1690 1.350 . S
C1693 C1692 1.434 . S
C1694 C1695 1.369 . S
C1694 C1696 1.419 . S
C1694 H1698 0.930 . S
C1695 C1694 1.369 . S
C1695 C1704 1.429 . S
C1696 C1694 1.419 . S
C1696 C1697 1.363 . S
C1696 H1699 0.929 . S
C1697 C1696 1.363 . S
C1697 C1703 1.428 . S
H1698 C1694 0.930 . S
H1699 C1696 0.929 . S
S1700 N1701 1.613 . S
S1700 N1702 1.610 . S
N1701 S1700 1.613 . S
N1701 C1704 1.350 . S
N1702 S1700 1.610 . S
N1702 C1703 1.351 . S
C1703 C1697 1.428 . S
C1703 N1702 1.351 . S
C1703 C1704 1.434 . S
C1704 C1695 1.429 . S
C1704 N1701 1.350 . S
C1704 C1703 1.434 . S
C1705 C1706 1.369 . S
C1705 C1707 1.419 . S
C1705 H1709 0.930 . S
C1706 C1705 1.369 . S
C1706 C1715 1.429 . S
C1707 C1705 1.419 . S
C1707 C1708 1.363 . S
C1707 H1710 0.929 . S
C1708 C1707 1.363 . S
C1708 C1714 1.428 . S
H1709 C1705 0.930 . S
H1710 C1707 0.929 . S
S1711 N1712 1.613 . S
S1711 N1713 1.610 . S
N1712 S1711 1.613 . S
N1712 C1715 1.350 . S
N1713 S1711 1.610 . S
N1713 C1714 1.351 . S
C1714 C1708 1.428 . S
C1714 N1713 1.351 . S
C1714 C1715 1.434 . S
C1715 C1706 1.429 . S
C1715 N1712 1.350 . S
C1715 C1714 1.434 . S
C1716 C1717 1.369 . S
C1716 C1718 1.419 . S
C1716 H1720 0.930 . S
C1717 C1716 1.369 . S
C1717 C1726 1.429 . S
C1718 C1716 1.419 . S
C1718 C1719 1.363 . S
C1718 H1721 0.929 . S
C1719 C1718 1.363 . S
C1719 C1725 1.428 . S
H1720 C1716 0.930 . S
H1721 C1718 0.929 . S
S1722 N1723 1.613 . S
S1722 N1724 1.610 . S
N1723 S1722 1.613 . S
N1723 C1726 1.350 . S
N1724 S1722 1.610 . S
N1724 C1725 1.351 . S
C1725 C1719 1.428 . S
C1725 N1724 1.351 . S
C1725 C1726 1.434 . S
C1726 C1717 1.429 . S
C1726 N1723 1.350 . S
C1726 C1725 1.434 . S
C1727 C1728 1.369 . S
C1727 C1729 1.419 . S
C1727 H1731 0.930 . S
C1728 C1727 1.369 . S
C1728 C1737 1.429 . S
C1729 C1727 1.419 . S
C1729 C1730 1.363 . S
C1729 H1732 0.929 . S
C1730 C1729 1.363 . S
C1730 C1736 1.428 . S
H1731 C1727 0.930 . S
H1732 C1729 0.929 . S
S1733 N1734 1.613 . S
S1733 N1735 1.610 . S
N1734 S1733 1.613 . S
N1734 C1737 1.350 . S
N1735 S1733 1.610 . S
N1735 C1736 1.351 . S
C1736 C1730 1.428 . S
C1736 N1735 1.351 . S
C1736 C1737 1.434 . S
C1737 C1728 1.429 . S
C1737 N1734 1.350 . S
C1737 C1736 1.434 . S
C1738 C1739 1.369 . S
C1738 C1740 1.419 . S
C1738 H1742 0.930 . S
C1739 C1738 1.369 . S
C1739 C1748 1.429 . S
C1740 C1738 1.419 . S
C1740 C1741 1.363 . S
C1740 H1743 0.929 . S
C1741 C1740 1.363 . S
C1741 C1747 1.428 . S
H1742 C1738 0.930 . S
H1743 C1740 0.929 . S
S1744 N1745 1.613 . S
S1744 N1746 1.610 . S
N1745 S1744 1.613 . S
N1745 C1748 1.350 . S
N1746 S1744 1.610 . S
N1746 C1747 1.351 . S
C1747 C1741 1.428 . S
C1747 N1746 1.351 . S
C1747 C1748 1.434 . S
C1748 C1739 1.429 . S
C1748 N1745 1.350 . S
C1748 C1747 1.434 . S
C1749 C1750 1.369 . S
C1749 C1751 1.419 . S
C1749 H1753 0.930 . S
C1750 C1749 1.369 . S
C1750 C1759 1.429 . S
C1751 C1749 1.419 . S
C1751 C1752 1.363 . S
C1751 H1754 0.929 . S
C1752 C1751 1.363 . S
C1752 C1758 1.428 . S
H1753 C1749 0.930 . S
H1754 C1751 0.929 . S
S1755 N1756 1.613 . S
S1755 N1757 1.610 . S
N1756 S1755 1.613 . S
N1756 C1759 1.350 . S
N1757 S1755 1.610 . S
N1757 C1758 1.351 . S
C1758 C1752 1.428 . S
C1758 N1757 1.351 . S
C1758 C1759 1.434 . S
C1759 C1750 1.429 . S
C1759 N1756 1.350 . S
C1759 C1758 1.434 . S
C1760 C1761 1.369 . S
C1760 C1762 1.419 . S
C1760 H1764 0.930 . S
C1761 C1760 1.369 . S
C1761 C1770 1.429 . S
C1762 C1760 1.419 . S
C1762 C1763 1.363 . S
C1762 H1765 0.929 . S
C1763 C1762 1.363 . S
C1763 C1769 1.428 . S
H1764 C1760 0.930 . S
H1765 C1762 0.929 . S
S1766 N1767 1.613 . S
S1766 N1768 1.610 . S
N1767 S1766 1.613 . S
N1767 C1770 1.350 1_556 S
N1768 S1766 1.610 . S
N1768 C1769 1.351 1_556 S
C1769 C1763 1.428 . S
C1769 N1768 1.351 1_554 S
C1769 C1770 1.434 . S
C1770 C1761 1.429 . S
C1770 N1767 1.350 1_554 S
C1770 C1769 1.434 . S
C1771 C1772 1.369 . S
C1771 C1773 1.419 1_655 S
C1771 H1775 0.930 . S
C1772 C1771 1.369 . S
C1772 C1781 1.429 . S
C1773 C1771 1.419 1_455 S
C1773 C1774 1.363 . S
C1773 H1776 0.929 . S
C1774 C1773 1.363 . S
C1774 C1780 1.428 . S
H1775 C1771 0.930 . S
H1776 C1773 0.929 . S
S1777 N1778 1.617 1_455 S
S1777 N1779 1.607 . S
N1778 S1777 1.617 1_655 S
N1778 C1781 1.350 . S
N1779 S1777 1.607 . S
N1779 C1780 1.351 . S
C1780 C1774 1.428 . S
C1780 N1779 1.351 . S
C1780 C1781 1.434 1_455 S
C1781 C1772 1.429 . S
C1781 N1778 1.350 . S
C1781 C1780 1.434 1_655 S
C1782 C1783 1.369 . S
C1782 C1784 1.419 . S
C1782 H1786 0.930 . S
C1783 C1782 1.369 . S
C1783 C1792 1.429 . S
C1784 C1782 1.419 . S
C1784 C1785 1.363 . S
C1784 H1787 0.929 . S
C1785 C1784 1.363 . S
C1785 C1791 1.428 . S
H1786 C1782 0.930 . S
H1787 C1784 0.929 . S
S1788 N1789 1.613 . S
S1788 N1790 1.610 . S
N1789 S1788 1.613 . S
N1789 C1792 1.350 . S
N1790 S1788 1.610 . S
N1790 C1791 1.351 . S
C1791 C1785 1.428 . S
C1791 N1790 1.351 . S
C1791 C1792 1.434 . S
C1792 C1783 1.429 . S
C1792 N1789 1.350 . S
C1792 C1791 1.434 . S
C1793 C1794 1.369 . S
C1793 C1795 1.419 . S
C1793 H1797 0.930 . S
C1794 C1793 1.369 . S
C1794 C1803 1.429 . S
C1795 C1793 1.419 . S
C1795 C1796 1.363 . S
C1795 H1798 0.929 . S
C1796 C1795 1.363 . S
C1796 C1802 1.428 . S
H1797 C1793 0.930 . S
H1798 C1795 0.929 . S
S1799 N1800 1.613 . S
S1799 N1801 1.610 . S
N1800 S1799 1.613 . S
N1800 C1803 1.350 . S
N1801 S1799 1.610 . S
N1801 C1802 1.351 . S
C1802 C1796 1.428 . S
C1802 N1801 1.351 . S
C1802 C1803 1.434 . S
C1803 C1794 1.429 . S
C1803 N1800 1.350 . S
C1803 C1802 1.434 . S
C1804 C1805 1.369 . S
C1804 C1806 1.419 . S
C1804 H1808 0.930 . S
C1805 C1804 1.369 . S
C1805 C1814 1.429 . S
C1806 C1804 1.419 . S
C1806 C1807 1.363 . S
C1806 H1809 0.929 . S
C1807 C1806 1.363 . S
C1807 C1813 1.428 . S
H1808 C1804 0.930 . S
H1809 C1806 0.929 . S
S1810 N1811 1.613 . S
S1810 N1812 1.610 . S
N1811 S1810 1.613 . S
N1811 C1814 1.350 . S
N1812 S1810 1.610 . S
N1812 C1813 1.351 . S
C1813 C1807 1.428 . S
C1813 N1812 1.351 . S
C1813 C1814 1.434 . S
C1814 C1805 1.429 . S
C1814 N1811 1.350 . S
C1814 C1813 1.434 . S
C1815 C1816 1.369 . S
C1815 C1817 1.419 . S
C1815 H1819 0.930 . S
C1816 C1815 1.369 . S
C1816 C1825 1.429 . S
C1817 C1815 1.419 . S
C1817 C1818 1.363 . S
C1817 H1820 0.929 . S
C1818 C1817 1.363 . S
C1818 C1824 1.428 . S
H1819 C1815 0.930 . S
H1820 C1817 0.929 . S
S1821 N1822 1.613 . S
S1821 N1823 1.610 . S
N1822 S1821 1.613 . S
N1822 C1825 1.350 . S
N1823 S1821 1.610 . S
N1823 C1824 1.351 . S
C1824 C1818 1.428 . S
C1824 N1823 1.351 . S
C1824 C1825 1.434 . S
C1825 C1816 1.429 . S
C1825 N1822 1.350 . S
C1825 C1824 1.434 . S
C1826 C1827 1.369 . S
C1826 C1828 1.419 . S
C1826 H1830 0.930 . S
C1827 C1826 1.369 . S
C1827 C1836 1.429 . S
C1828 C1826 1.419 . S
C1828 C1829 1.363 . S
C1828 H1831 0.929 . S
C1829 C1828 1.363 . S
C1829 C1835 1.428 . S
H1830 C1826 0.930 . S
H1831 C1828 0.929 . S
S1832 N1833 1.613 . S
S1832 N1834 1.610 . S
N1833 S1832 1.613 . S
N1833 C1836 1.350 . S
N1834 S1832 1.610 . S
N1834 C1835 1.351 . S
C1835 C1829 1.428 . S
C1835 N1834 1.351 . S
C1835 C1836 1.434 . S
C1836 C1827 1.429 . S
C1836 N1833 1.350 . S
C1836 C1835 1.434 . S
C1837 C1838 1.369 . S
C1837 C1839 1.419 1_455 S
C1837 H1841 0.930 . S
C1838 C1837 1.369 . S
C1838 C1847 1.429 . S
C1839 C1837 1.419 1_655 S
C1839 C1840 1.363 . S
C1839 H1842 0.929 . S
C1840 C1839 1.363 . S
C1840 C1846 1.428 . S
H1841 C1837 0.930 . S
H1842 C1839 0.929 . S
S1843 N1844 1.617 1_655 S
S1843 N1845 1.607 . S
N1844 S1843 1.617 1_455 S
N1844 C1847 1.350 . S
N1845 S1843 1.607 . S
N1845 C1846 1.351 . S
C1846 C1840 1.428 . S
C1846 N1845 1.351 . S
C1846 C1847 1.434 1_655 S
C1847 C1838 1.429 . S
C1847 N1844 1.350 . S
C1847 C1846 1.434 1_455 S
C1848 C1849 1.369 . S
C1848 C1850 1.419 . S
C1848 H1852 0.930 . S
C1849 C1848 1.369 . S
C1849 C1858 1.429 . S
C1850 C1848 1.419 . S
C1850 C1851 1.363 . S
C1850 H1853 0.929 . S
C1851 C1850 1.363 . S
C1851 C1857 1.428 . S
H1852 C1848 0.930 . S
H1853 C1850 0.929 . S
S1854 N1855 1.613 . S
S1854 N1856 1.610 . S
N1855 S1854 1.613 . S
N1855 C1858 1.350 . S
N1856 S1854 1.610 . S
N1856 C1857 1.351 . S
C1857 C1851 1.428 . S
C1857 N1856 1.351 . S
C1857 C1858 1.434 . S
C1858 C1849 1.429 . S
C1858 N1855 1.350 . S
C1858 C1857 1.434 . S
C1859 C1860 1.369 . S
C1859 C1861 1.419 . S
C1859 H1863 0.930 . S
C1860 C1859 1.369 . S
C1860 C1869 1.429 . S
C1861 C1859 1.419 . S
C1861 C1862 1.363 . S
C1861 H1864 0.929 . S
C1862 C1861 1.363 . S
C1862 C1868 1.428 . S
H1863 C1859 0.930 . S
H1864 C1861 0.929 . S
S1865 N1866 1.613 . S
S1865 N1867 1.610 . S
N1866 S1865 1.613 . S
N1866 C1869 1.350 . S
N1867 S1865 1.610 . S
N1867 C1868 1.351 . S
C1868 C1862 1.428 . S
C1868 N1867 1.351 . S
C1868 C1869 1.434 . S
C1869 C1860 1.429 . S
C1869 N1866 1.350 . S
C1869 C1868 1.434 . S
C1870 C1871 1.369 . S
C1870 C1872 1.419 . S
C1870 H1874 0.930 . S
C1871 C1870 1.369 . S
C1871 C1880 1.429 . S
C1872 C1870 1.419 . S
C1872 C1873 1.363 . S
C1872 H1875 0.929 . S
C1873 C1872 1.363 . S
C1873 C1879 1.428 . S
H1874 C1870 0.930 . S
H1875 C1872 0.929 . S
S1876 N1877 1.613 . S
S1876 N1878 1.610 . S
N1877 S1876 1.613 . S
N1877 C1880 1.350 . S
N1878 S1876 1.610 . S
N1878 C1879 1.351 . S
C1879 C1873 1.428 . S
C1879 N1878 1.351 . S
C1879 C1880 1.434 . S
C1880 C1871 1.429 . S
C1880 N1877 1.350 . S
C1880 C1879 1.434 . S
C1881 C1882 1.369 . S
C1881 C1883 1.419 . S
C1881 H1885 0.930 . S
C1882 C1881 1.369 . S
C1882 C1891 1.429 . S
C1883 C1881 1.419 . S
C1883 C1884 1.363 . S
C1883 H1886 0.929 . S
C1884 C1883 1.363 . S
C1884 C1890 1.428 . S
H1885 C1881 0.930 . S
H1886 C1883 0.929 . S
S1887 N1888 1.613 . S
S1887 N1889 1.610 . S
N1888 S1887 1.613 . S
N1888 C1891 1.350 . S
N1889 S1887 1.610 . S
N1889 C1890 1.351 . S
C1890 C1884 1.428 . S
C1890 N1889 1.351 . S
C1890 C1891 1.434 . S
C1891 C1882 1.429 . S
C1891 N1888 1.350 . S
C1891 C1890 1.434 . S
C1892 C1893 1.369 . S
C1892 C1894 1.419 . S
C1892 H1896 0.930 . S
C1893 C1892 1.369 . S
C1893 C1902 1.429 . S
C1894 C1892 1.419 . S
C1894 C1895 1.363 . S
C1894 H1897 0.929 . S
C1895 C1894 1.363 . S
C1895 C1901 1.428 . S
H1896 C1892 0.930 . S
H1897 C1894 0.929 . S
S1898 N1899 1.613 . S
S1898 N1900 1.610 . S
N1899 S1898 1.613 . S
N1899 C1902 1.350 . S
N1900 S1898 1.610 . S
N1900 C1901 1.351 . S
C1901 C1895 1.428 . S
C1901 N1900 1.351 . S
C1901 C1902 1.434 . S
C1902 C1893 1.429 . S
C1902 N1899 1.350 . S
C1902 C1901 1.434 . S
C1903 C1904 1.369 . S
C1903 C1905 1.419 1_455 S
C1903 H1907 0.930 . S
C1904 C1903 1.369 . S
C1904 C1913 1.429 . S
C1905 C1903 1.419 1_655 S
C1905 C1906 1.363 . S
C1905 H1908 0.929 . S
C1906 C1905 1.363 . S
C1906 C1912 1.428 . S
H1907 C1903 0.930 . S
H1908 C1905 0.929 . S
S1909 N1910 1.617 1_655 S
S1909 N1911 1.607 . S
N1910 S1909 1.617 1_455 S
N1910 C1913 1.350 . S
N1911 S1909 1.607 . S
N1911 C1912 1.351 . S
C1912 C1906 1.428 . S
C1912 N1911 1.351 . S
C1912 C1913 1.434 1_655 S
C1913 C1904 1.429 . S
C1913 N1910 1.350 . S
C1913 C1912 1.434 1_455 S
C1914 C1915 1.369 . S
C1914 C1916 1.419 1_455 S
C1914 H1918 0.930 . S
C1915 C1914 1.369 . S
C1915 C1924 1.429 . S
C1916 C1914 1.419 1_655 S
C1916 C1917 1.363 . S
C1916 H1919 0.929 . S
C1917 C1916 1.363 . S
C1917 C1923 1.428 . S
H1918 C1914 0.930 . S
H1919 C1916 0.929 . S
S1920 N1921 1.617 1_655 S
S1920 N1922 1.607 . S
N1921 S1920 1.617 1_455 S
N1921 C1924 1.350 . S
N1922 S1920 1.607 . S
N1922 C1923 1.351 . S
C1923 C1917 1.428 . S
C1923 N1922 1.351 . S
C1923 C1924 1.434 1_655 S
C1924 C1915 1.429 . S
C1924 N1921 1.350 . S
C1924 C1923 1.434 1_455 S
C1925 C1926 1.369 . S
C1925 C1927 1.419 . S
C1925 H1929 0.930 . S
C1926 C1925 1.369 . S
C1926 C1935 1.429 . S
C1927 C1925 1.419 . S
C1927 C1928 1.363 . S
C1927 H1930 0.929 . S
C1928 C1927 1.363 . S
C1928 C1934 1.428 . S
H1929 C1925 0.930 . S
H1930 C1927 0.929 . S
S1931 N1932 1.613 . S
S1931 N1933 1.610 . S
N1932 S1931 1.613 . S
N1932 C1935 1.350 . S
N1933 S1931 1.610 . S
N1933 C1934 1.351 . S
C1934 C1928 1.428 . S
C1934 N1933 1.351 . S
C1934 C1935 1.434 . S
C1935 C1926 1.429 . S
C1935 N1932 1.350 . S
C1935 C1934 1.434 . S
C1057 C40 2.037 1_545 S
C1059 C18 2.020 . S
C1068 C51 2.024 . S
C1070 C73 2.034 . S
C1079 C84 2.022 . S
C1081 C106 2.033 1_565 S
C1090 C117 2.019 . S
C1092 C7 2.035 1_556 S
C1101 C150 2.021 . S
C1103 C238 2.036 1_565 S
C1112 C139 2.036 1_554 S
C1114 C183 2.022 . S
C1123 C216 2.023 . S
C1125 C172 2.035 1_545 S
C1134 C249 2.019 . S
C1136 C205 2.037 . S
C1145 C304 2.033 1_565 S
C1147 C282 2.022 . S
C1156 C337 2.037 . S
C1158 C315 2.019 . S
C1167 C348 2.022 . S
C1169 C370 2.033 1_545 S
C1178 C271 2.037 1_554 S
C1180 C381 2.020 . S
C1189 C414 2.021 . S
C1191 C502 2.036 1_545 S
C1200 C447 2.019 . S
C1202 C403 2.035 1_556 S
C1211 C436 2.034 1_565 S
C1213 C480 2.023 . S
C1222 C469 2.033 . S
C1224 C513 2.022 . S
C1233 C568 2.037 . S
C1235 C546 2.020 . S
C1244 C579 2.024 . S
C1246 C601 2.033 1_556 S
C1255 C634 2.034 . S
C1257 C612 2.023 . S
C1266 C535 2.036 . S
C1268 C645 2.020 . S
C1277 C766 2.034 . S
C1279 C678 2.021 . S
C1288 C711 2.023 . S
C1290 C667 2.033 . S
C1299 C700 2.033 . S
C1301 C744 2.022 . S
C1310 C777 2.024 . S
C1312 C733 2.033 1_554 S
C1321 C832 2.036 . S
C1323 C810 2.019 . S
C1332 C843 2.020 . S
C1334 C865 2.034 1_554 S
C1343 C876 2.021 . S
C1345 C898 2.036 . S
C1354 C909 2.023 . S
C1356 C799 2.035 . S
C1365 C1030 2.037 . S
C1367 C942 2.021 . S
C1376 C931 2.036 . S
C1378 C975 2.022 . S
C1387 C964 2.032 . S
C1389 C1008 2.023 . S
C1398 C997 2.037 1_556 S
C1400 C1041 2.020 . S
C1409 N211 0.990 . S
C1411 N13 0.990 . S
C1420 N46 0.991 . S
C1422 N244 0.991 . S
C1431 N79 0.991 . S
C1433 N145 0.991 . S
C1442 N112 0.990 . S
C1444 N178 0.990 . S
C1453 N475 0.990 . S
C1455 N277 0.990 . S
C1464 N508 0.990 . S
C1466 N310 0.990 . S
C1475 N343 0.990 . S
C1477 N409 0.990 . S
C1486 N442 0.990 . S
C1488 N376 0.991 . S
C1497 N541 0.990 . S
C1499 N739 0.990 . S
C1508 N772 0.991 . S
C1510 N574 0.991 . S
C1519 N673 0.990 . S
C1521 N607 0.990 . S
C1530 N706 0.990 . S
C1532 N640 0.990 . S
C1541 N1003 0.990 . S
C1543 N805 0.990 . S
C1552 N1036 0.990 . S
C1554 N838 0.990 . S
C1563 N937 0.991 . S
C1565 N871 0.991 . S
C1574 N970 0.990 . S
C1576 N904 0.990 . S
C1585 N2 0.984 . S
C1587 N233 0.981 . S
C1596 N35 0.982 . S
C1598 N134 0.980 . S
C1607 N167 0.980 . S
C1609 N68 0.980 . S
C1618 N101 0.983 . S
C1620 N200 0.980 . S
C1629 N266 0.984 . S
C1631 N497 0.981 . S
C1640 N398 0.979 . S
C1642 N299 0.981 . S
C1651 N332 0.979 . S
C1653 N431 0.981 . S
C1662 N365 0.982 . S
C1664 N464 0.983 . S
C1673 N761 0.982 . S
C1675 N530 0.983 . S
C1684 N662 0.984 . S
C1686 N563 0.980 . S
C1695 N596 0.984 . S
C1697 N695 0.981 . S
C1706 N629 0.980 . S
C1708 N728 0.983 . S
C1717 N794 0.983 . S
C1719 N1025 0.982 . S
C1728 N926 0.984 . S
C1730 N827 0.981 . S
C1739 N860 0.980 . S
C1741 N959 0.980 . S
C1750 N893 0.981 . S
C1752 N992 0.983 . S
C1761 C21 1.350 . S
C1763 C1011 1.351 . S
C1772 C516 1.354 . S
C1774 C54 1.354 . S
C1783 C945 1.350 . S
C1785 C87 1.351 . S
C1794 C120 1.353 . S
C1796 C450 1.353 . S
C1805 C153 1.354 . S
C1807 C879 1.354 . S
C1816 C384 1.353 . S
C1818 C186 1.353 . S
C1827 C219 1.351 . S
C1829 C813 1.352 . S
C1838 C252 1.351 . S
C1840 C318 1.352 . S
C1849 C285 1.350 . S
C1851 C747 1.351 . S
C1860 C351 1.352 . S
C1862 C681 1.352 . S
C1871 C417 1.350 . S
C1873 C615 1.351 . S
C1882 C483 1.351 . S
C1884 C549 1.351 . S
C1893 C582 1.353 . S
C1895 C1044 1.353 . S
C1904 C978 1.353 . S
C1906 C648 1.353 . S
C1915 C912 1.352 . S
C1917 C714 1.352 . S
C1926 C846 1.352 . S
C1928 C780 1.352 . S
