# Generated by pormake.
# Topology snl, (6)-cn, num edge types: 1
# Building blocks:
#     Node 0, Type 0, BuildingBlock: HISSIN_clean_sbu_0, # of connection points: 6
#     Node 1, Type 0, BuildingBlock: HISSIN_clean_sbu_0, # of connection points: 6
#     Node 2, Type 0, BuildingBlock: HISSIN_clean_sbu_0, # of connection points: 6
#     Node 3, Type 0, BuildingBlock: HISSIN_clean_sbu_0, # of connection points: 6
#     Node 4, Type 0, BuildingBlock: HISSIN_clean_sbu_0, # of connection points: 6
#     Node 5, Type 0, BuildingBlock: HISSIN_clean_sbu_0, # of connection points: 6
#     Node 6, Type 0, BuildingBlock: HISSIN_clean_sbu_0, # of connection points: 6
#     Node 7, Type 0, BuildingBlock: HISSIN_clean_sbu_0, # of connection points: 6
#     Node 8, Type 0, BuildingBlock: HISSIN_clean_sbu_0, # of connection points: 6
#     Node 9, Type 0, BuildingBlock: HISSIN_clean_sbu_0, # of connection points: 6
#     Node 10, Type 0, BuildingBlock: HISSIN_clean_sbu_0, # of connection points: 6
#     Node 11, Type 0, BuildingBlock: HISSIN_clean_sbu_0, # of connection points: 6
#     Node 12, Type 0, BuildingBlock: HISSIN_clean_sbu_0, # of connection points: 6
#     Node 13, Type 0, BuildingBlock: HISSIN_clean_sbu_0, # of connection points: 6
#     Node 14, Type 0, BuildingBlock: HISSIN_clean_sbu_0, # of connection points: 6
#     Node 15, Type 0, BuildingBlock: HISSIN_clean_sbu_0, # of connection points: 6
#     Edge 16, Type (0, 0), BuildingBlock: AJUNOK_clean_linker_0, # of connection points: 2
#     Edge 17, Type (0, 0), BuildingBlock: AJUNOK_clean_linker_0, # of connection points: 2
#     Edge 18, Type (0, 0), BuildingBlock: AJUNOK_clean_linker_0, # of connection points: 2
#     Edge 19, Type (0, 0), BuildingBlock: AJUNOK_clean_linker_0, # of connection points: 2
#     Edge 20, Type (0, 0), BuildingBlock: AJUNOK_clean_linker_0, # of connection points: 2
#     Edge 21, Type (0, 0), BuildingBlock: AJUNOK_clean_linker_0, # of connection points: 2
#     Edge 22, Type (0, 0), BuildingBlock: AJUNOK_clean_linker_0, # of connection points: 2
#     Edge 23, Type (0, 0), BuildingBlock: AJUNOK_clean_linker_0, # of connection points: 2
#     Edge 24, Type (0, 0), BuildingBlock: AJUNOK_clean_linker_0, # of connection points: 2
#     Edge 25, Type (0, 0), BuildingBlock: AJUNOK_clean_linker_0, # of connection points: 2
#     Edge 26, Type (0, 0), BuildingBlock: AJUNOK_clean_linker_0, # of connection points: 2
#     Edge 27, Type (0, 0), BuildingBlock: AJUNOK_clean_linker_0, # of connection points: 2
#     Edge 28, Type (0, 0), BuildingBlock: AJUNOK_clean_linker_0, # of connection points: 2
#     Edge 29, Type (0, 0), BuildingBlock: AJUNOK_clean_linker_0, # of connection points: 2
#     Edge 30, Type (0, 0), BuildingBlock: AJUNOK_clean_linker_0, # of connection points: 2
#     Edge 31, Type (0, 0), BuildingBlock: AJUNOK_clean_linker_0, # of connection points: 2
#     Edge 32, Type (0, 0), BuildingBlock: AJUNOK_clean_linker_0, # of connection points: 2
#     Edge 33, Type (0, 0), BuildingBlock: AJUNOK_clean_linker_0, # of connection points: 2
#     Edge 34, Type (0, 0), BuildingBlock: AJUNOK_clean_linker_0, # of connection points: 2
#     Edge 35, Type (0, 0), BuildingBlock: AJUNOK_clean_linker_0, # of connection points: 2
#     Edge 36, Type (0, 0), BuildingBlock: AJUNOK_clean_linker_0, # of connection points: 2
#     Edge 37, Type (0, 0), BuildingBlock: AJUNOK_clean_linker_0, # of connection points: 2
#     Edge 38, Type (0, 0), BuildingBlock: AJUNOK_clean_linker_0, # of connection points: 2
#     Edge 39, Type (0, 0), BuildingBlock: AJUNOK_clean_linker_0, # of connection points: 2
#     Edge 40, Type (0, 0), BuildingBlock: AJUNOK_clean_linker_0, # of connection points: 2
#     Edge 41, Type (0, 0), BuildingBlock: AJUNOK_clean_linker_0, # of connection points: 2
#     Edge 42, Type (0, 0), BuildingBlock: AJUNOK_clean_linker_0, # of connection points: 2
#     Edge 43, Type (0, 0), BuildingBlock: AJUNOK_clean_linker_0, # of connection points: 2
#     Edge 44, Type (0, 0), BuildingBlock: AJUNOK_clean_linker_0, # of connection points: 2
#     Edge 45, Type (0, 0), BuildingBlock: AJUNOK_clean_linker_0, # of connection points: 2
#     Edge 46, Type (0, 0), BuildingBlock: AJUNOK_clean_linker_0, # of connection points: 2
#     Edge 47, Type (0, 0), BuildingBlock: AJUNOK_clean_linker_0, # of connection points: 2
#     Edge 48, Type (0, 0), BuildingBlock: AJUNOK_clean_linker_0, # of connection points: 2
#     Edge 49, Type (0, 0), BuildingBlock: AJUNOK_clean_linker_0, # of connection points: 2
#     Edge 50, Type (0, 0), BuildingBlock: AJUNOK_clean_linker_0, # of connection points: 2
#     Edge 51, Type (0, 0), BuildingBlock: AJUNOK_clean_linker_0, # of connection points: 2
#     Edge 52, Type (0, 0), BuildingBlock: AJUNOK_clean_linker_0, # of connection points: 2
#     Edge 53, Type (0, 0), BuildingBlock: AJUNOK_clean_linker_0, # of connection points: 2
#     Edge 54, Type (0, 0), BuildingBlock: AJUNOK_clean_linker_0, # of connection points: 2
#     Edge 55, Type (0, 0), BuildingBlock: AJUNOK_clean_linker_0, # of connection points: 2
#     Edge 56, Type (0, 0), BuildingBlock: AJUNOK_clean_linker_0, # of connection points: 2
#     Edge 57, Type (0, 0), BuildingBlock: AJUNOK_clean_linker_0, # of connection points: 2
#     Edge 58, Type (0, 0), BuildingBlock: AJUNOK_clean_linker_0, # of connection points: 2
#     Edge 59, Type (0, 0), BuildingBlock: AJUNOK_clean_linker_0, # of connection points: 2
#     Edge 60, Type (0, 0), BuildingBlock: AJUNOK_clean_linker_0, # of connection points: 2
#     Edge 61, Type (0, 0), BuildingBlock: AJUNOK_clean_linker_0, # of connection points: 2
#     Edge 62, Type (0, 0), BuildingBlock: AJUNOK_clean_linker_0, # of connection points: 2
#     Edge 63, Type (0, 0), BuildingBlock: AJUNOK_clean_linker_0, # of connection points: 2
# Relax obj value: 0.187
# Max RMSD: 0.238
# Mean RMSD: 0.238
data_MOF--net-snl--node1-HISSIN_clean_sbu_0--edge1-AJUNOK_clean_linker_0
_symmetry_space_group_name_H-M    P1
_symmetry_Int_Tables_number       1
_symmetry_cell_setting            triclinic
loop_
_symmetry_equiv_pos_as_xyz
'x, y, z'
_cell_length_a     43.163869
_cell_length_b     39.084828
_cell_length_c     21.087348
_cell_angle_alpha  90.158695
_cell_angle_beta   89.913772
_cell_angle_gamma 89.84276
loop_
_atom_site_label
_atom_site_type_symbol
_atom_site_fract_x
_atom_site_fract_y
_atom_site_fract_z
_atom_type_partial_charge
Eu0 Eu 0.12067 0.62175 0.25762 0.0
Eu1 Eu 0.14108 0.66023 0.12552 0.0
C2 C 0.19073 0.64558 0.23581 0.0
C3 C 0.11402 0.59756 0.43018 0.0
C4 C 0.13214 0.62605 0.44599 0.0
C5 C 0.10761 0.58505 0.54221 0.0
C6 C 0.13759 0.6343 0.50944 0.0
C7 C 0.10216 0.57678 0.47851 0.0
C8 C 0.12481 0.61434 0.55822 0.0
C9 C 0.10633 0.5907 0.36351 0.0
O10 O 0.15139 0.60443 0.11617 0.0
O11 O 0.11123 0.58514 0.17551 0.0
C12 C 0.13068 0.58109 0.12807 0.0
O13 O 0.07891 0.64913 0.22154 0.0
O14 O 0.1746 0.6662 0.04885 0.0
O15 O 0.13132 0.69422 0.04604 0.0
O16 O 0.08996 0.6464 0.11577 0.0
C17 C 0.06991 0.65021 0.16239 0.0
O18 O 0.13091 0.67635 0.2886 0.0
O19 O 0.12742 0.70289 0.19098 0.0
O20 O 0.18176 0.6675 0.19221 0.0
O21 O 0.08887 0.61366 0.33657 0.0
O22 O 0.12932 0.58143 0.32713 0.0
O23 O 0.17262 0.62071 0.2545 0.0
C24 C 0.15178 0.67465 0.94903 0.0
C25 C 0.13541 0.6446 0.93485 0.0
C26 C 0.1596 0.68439 0.83659 0.0
C27 C 0.13099 0.63462 0.87174 0.0
C28 C 0.16398 0.69436 0.89965 0.0
C29 C 0.14277 0.65462 0.82194 0.0
C30 C 0.15631 0.68548 1.01509 0.0
C31 C 0.12834 0.70395 0.25319 0.0
H32 H 0.1416 0.64228 0.4092 0.0
H33 H 0.09761 0.56917 0.57891 0.0
H34 H 0.15154 0.65654 0.52041 0.0
H35 H 0.08818 0.55463 0.46705 0.0
H36 H 0.12595 0.629 0.97259 0.0
H37 H 0.16952 0.69988 0.79925 0.0
H38 H 0.11795 0.61158 0.86183 0.0
H39 H 0.17688 0.71746 0.90987 0.0
Eu40 Eu 0.61329 0.94097 0.32057 0.0
Eu41 Eu 0.63083 0.89999 0.45196 0.0
C42 C 0.6823 0.91599 0.34663 0.0
C43 C 0.60966 0.96417 0.14563 0.0
C44 C 0.63054 0.93788 0.12998 0.0
C45 C 0.601 0.97449 1.03348 0.0
C46 C 0.6364 0.92973 0.06644 0.0
C47 C 0.59517 0.98263 0.09708 0.0
C48 C 0.6215 0.94775 1.01746 0.0
C49 C 0.60118 0.97069 0.21216 0.0
O50 O 0.64347 0.9549 0.46608 0.0
O51 O 0.60779 0.97978 0.40065 0.0
C52 C 0.62629 0.98107 0.45018 0.0
O53 O 0.56801 0.92573 0.36352 0.0
O54 O 0.66462 0.88948 0.52648 0.0
O55 O 0.61977 0.86514 0.52947 0.0
O56 O 0.58202 0.92063 0.46816 0.0
C57 C 0.56081 0.92446 0.42384 0.0
O58 O 0.62255 0.88553 0.2935 0.0
O59 O 0.60824 0.86177 0.38813 0.0
O60 O 0.67119 0.89159 0.38317 0.0
O61 O 0.58359 0.94756 0.23802 0.0
O62 O 0.62343 0.98032 0.24997 0.0
O63 O 0.66494 0.94224 0.33141 0.0
C64 C 0.64168 0.88242 0.62666 0.0
C65 C 0.62268 0.91045 0.64209 0.0
C66 C 0.6551 0.87648 0.73796 0.0
C67 C 0.61986 0.92137 0.70504 0.0
C68 C 0.65784 0.86548 0.67492 0.0
C69 C 0.63624 0.9047 0.75366 0.0
C70 C 0.64531 0.87152 0.5602 0.0
C71 C 0.61308 0.85923 0.32705 0.0
H72 H 0.64181 0.92323 0.16695 0.0
H73 H 0.58872 0.98841 0.99694 0.0
H74 H 0.65238 0.90912 0.05555 0.0
H75 H 0.57876 1.00279 0.10836 0.0
H76 H 0.61006 0.9239 0.60537 0.0
H77 H 0.66805 0.86318 0.77436 0.0
H78 H 0.60462 0.94269 0.71573 0.0
H79 H 0.67272 0.84391 0.66381 0.0
Eu80 Eu 0.38363 0.43553 0.75382 0.0
Eu81 Eu 0.36726 0.39359 0.62243 0.0
C82 C 0.31482 0.41087 0.72516 0.0
C83 C 0.38812 0.46016 0.92856 0.0
C84 C 0.36473 0.43705 0.94571 0.0
C85 C 0.40114 0.46737 1.03993 0.0
C86 C 0.35962 0.42912 1.00958 0.0
C87 C 0.40614 0.47541 0.97607 0.0
C88 C 0.3779 0.44404 0.05736 0.0
C89 C 0.39516 0.46686 0.86134 0.0
O90 O 0.35564 0.44859 0.60713 0.0
O91 O 0.39144 0.4727 0.67237 0.0
C92 C 0.3741 0.47389 0.62102 0.0
O93 O 0.42789 0.41244 0.71827 0.0
O94 O 0.33436 0.38329 0.54607 0.0
O95 O 0.37952 0.35921 0.54451 0.0
O96 O 0.41726 0.41151 0.61215 0.0
C97 C 0.43724 0.41073 0.65921 0.0
O98 O 0.37343 0.38099 0.78395 0.0
O99 O 0.3856 0.35429 0.6897 0.0
O100 O 0.32599 0.38622 0.68893 0.0
O101 O 0.4141 0.44527 0.83443 0.0
O102 O 0.3718 0.47437 0.82476 0.0
O103 O 0.3321 0.43706 0.74078 0.0
C104 C 0.35831 0.37676 0.44647 0.0
C105 C 0.38101 0.40092 0.43031 0.0
C106 C 0.34128 0.37572 0.33664 0.0
C107 C 0.38384 0.41235 0.36773 0.0
C108 C 0.33853 0.36421 0.39922 0.0
C109 C 0.36382 0.40012 0.32029 0.0
C110 C 0.35427 0.36568 0.51274 0.0
C111 C 0.38158 0.35365 0.75132 0.0
H112 H 0.35083 0.42467 0.90963 0.0
H113 H 0.41554 0.47927 0.07573 0.0
H114 H 0.34194 0.41059 1.02147 0.0
H115 H 0.42443 0.49313 0.9637 0.0
H116 H 0.3963 0.41126 0.46623 0.0
H117 H 0.32594 0.3653 0.30092 0.0
H118 H 0.40132 0.43126 0.35664 0.0
H119 H 0.32084 0.34562 0.41078 0.0
Eu120 Eu 0.88017 0.12702 0.82657 0.0
Eu121 Eu 0.86502 0.16884 0.96088 0.0
C122 C 0.81141 0.15419 0.85572 0.0
C123 C 0.8863 0.10516 0.65244 0.0
C124 C 0.86777 0.13363 0.63805 0.0
C125 C 0.89583 0.09641 0.54004 0.0
C126 C 0.86349 0.14362 0.57512 0.0
C127 C 0.90002 0.08637 0.60314 0.0
C128 C 0.87797 0.12552 0.52551 0.0
C129 C 0.89287 0.09655 0.71884 0.0
O130 O 0.85748 0.11385 0.98422 0.0
O131 O 0.88626 0.08808 0.90548 0.0
C132 C 0.87247 0.08745 0.96127 0.0
O133 O 0.92416 0.15106 0.86103 0.0
O134 O 0.83337 0.18102 1.03851 0.0
O135 O 0.87866 0.2046 1.03538 0.0
O136 O 0.91494 0.15068 0.9677 0.0
C137 C 0.93425 0.152 0.91956 0.0
O138 O 0.86975 0.18145 0.79678 0.0
O139 O 0.88195 0.20783 0.89128 0.0
O140 O 0.82195 0.17505 0.8998 0.0
O141 O 0.91173 0.11734 0.74768 0.0
O142 O 0.86903 0.08889 0.75406 0.0
O143 O 0.82838 0.1297 0.83108 0.0
C144 C 0.85856 0.1899 0.13557 0.0
C145 C 0.8769 0.16144 0.15106 0.0
C146 C 0.84724 0.19852 0.24725 0.0
C147 C 0.88034 0.15151 0.21431 0.0
C148 C 0.84376 0.20838 0.18393 0.0
C149 C 0.86561 0.17001 0.26308 0.0
C150 C 0.85371 0.19938 0.06896 0.0
C151 C 0.87717 0.20874 0.82987 0.0
H152 H 0.8571 0.14848 0.67564 0.0
H153 H 0.90724 0.082 0.50275 0.0
H154 H 0.84905 0.16568 0.56529 0.0
H155 H 0.9145 0.0644 0.6135 0.0
H156 H 0.88841 0.14683 0.11415 0.0
H157 H 0.83515 0.21285 0.28375 0.0
H158 H 0.89467 0.1295 0.22516 0.0
H159 H 0.82926 0.2302 0.17268 0.0
Eu160 Eu 0.12065 0.42801 0.81721 0.0
Eu161 Eu 0.14197 0.39 0.94845 0.0
C162 C 0.19152 0.40813 0.84082 0.0
C163 C 0.11421 0.4515 0.64389 0.0
C164 C 0.13594 0.426 0.62869 0.0
C165 C 0.10525 0.46094 0.53158 0.0
C166 C 0.14196 0.41767 0.56537 0.0
C167 C 0.09922 0.46927 0.59506 0.0
C168 C 0.12619 0.43453 0.51617 0.0
C169 C 0.10591 0.45802 0.71045 0.0
O170 O 0.15101 0.44601 0.95841 0.0
O171 O 0.11084 0.46511 0.89856 0.0
C172 C 0.13026 0.46935 0.94592 0.0
O173 O 0.07875 0.40173 0.85552 0.0
O174 O 0.17605 0.3845 1.02416 0.0
O175 O 0.13353 0.35542 1.02763 0.0
O176 O 0.0908 0.40401 0.96083 0.0
C177 C 0.07024 0.40078 0.91508 0.0
O178 O 0.13304 0.37372 0.78696 0.0
O179 O 0.12715 0.34762 0.88415 0.0
O180 O 0.18265 0.3839 0.88008 0.0
O181 O 0.08923 0.43436 0.73714 0.0
O182 O 0.12825 0.46835 0.74729 0.0
O183 O 0.17234 0.43256 0.82443 0.0
C184 C 0.15395 0.3751 0.12451 0.0
C185 C 0.13406 0.40236 0.14005 0.0
C186 C 0.16571 0.36769 0.23615 0.0
C187 C 0.12981 0.41201 0.20342 0.0
C188 C 0.16988 0.35799 0.17281 0.0
C189 C 0.14536 0.39455 0.25221 0.0
C190 C 0.15841 0.36466 0.05812 0.0
C191 C 0.12932 0.34625 0.82219 0.0
H192 H 0.14782 0.41211 0.66587 0.0
H193 H 0.09284 0.4744 0.49461 0.0
H194 H 0.15874 0.39779 0.55488 0.0
H195 H 0.08239 0.48904 0.60602 0.0
H196 H 0.12174 0.41602 0.10318 0.0
H197 H 0.17856 0.3543 0.27256 0.0
H198 H 0.11401 0.43279 0.21437 0.0
H199 H 0.18557 0.33715 0.16153 0.0
Eu200 Eu 0.87615 0.92921 0.25982 0.0
Eu201 Eu 0.85693 0.88898 0.12781 0.0
C202 C 0.80582 0.9102 0.23145 0.0
C203 C 0.88328 0.9525 0.43488 0.0
C204 C 0.8552 0.93753 0.45384 0.0
C205 C 0.90101 0.95093 0.54423 0.0
C206 C 0.85007 0.9294 0.5176 0.0
C207 C 0.90603 0.95932 0.48059 0.0
C208 C 0.87302 0.9358 0.56334 0.0
C209 C 0.88996 0.95916 0.36744 0.0
O210 O 0.85034 0.94481 0.11023 0.0
O211 O 0.88592 0.96658 0.17958 0.0
C212 C 0.86967 0.96887 0.12687 0.0
O213 O 0.91894 0.90311 0.22335 0.0
O214 O 0.82388 0.88168 0.05052 0.0
O215 O 0.86641 0.85221 0.05214 0.0
O216 O 0.908 0.90294 0.11731 0.0
C217 C 0.92805 0.90093 0.16417 0.0
O218 O 0.86331 0.87539 0.29038 0.0
O219 O 0.8724 0.84832 0.19493 0.0
O220 O 0.81526 0.88506 0.19438 0.0
O221 O 0.90777 0.93683 0.33943 0.0
O222 O 0.86674 0.96828 0.33173 0.0
O223 O 0.82478 0.93483 0.24756 0.0
C224 C 0.84759 0.87018 0.95189 0.0
C225 C 0.87616 0.88339 0.93148 0.0
C226 C 0.82737 0.87729 0.84514 0.0
C227 C 0.88023 0.89357 0.86845 0.0
C228 C 0.82335 0.86694 0.90809 0.0
C229 C 0.85571 0.89122 0.82485 0.0
C230 C 0.84223 0.86122 1.01899 0.0
C231 C 0.86876 0.84765 0.25661 0.0
H232 H 0.83747 0.93157 0.41925 0.0
H233 H 0.91905 0.95614 0.57857 0.0
H234 H 0.82849 0.91726 0.5309 0.0
H235 H 0.92791 0.97064 0.46684 0.0
H236 H 0.89517 0.8865 0.96446 0.0
H237 H 0.80829 0.87434 0.81231 0.0
H238 H 0.9023 0.90428 0.8543 0.0
H239 H 0.80117 0.85674 0.92278 0.0
Eu240 Eu 0.38517 0.63303 0.32098 0.0
Eu241 Eu 0.36433 0.67236 0.45265 0.0
C242 C 0.3149 0.65235 0.34424 0.0
C243 C 0.39422 0.61398 0.14602 0.0
C244 C 0.3725 0.63945 0.13088 0.0
C245 C 0.40711 0.60845 1.03422 0.0
C246 C 0.36817 0.64943 0.06787 0.0
C247 C 0.41137 0.5984 0.09733 0.0
C248 C 0.38572 0.63438 1.01888 0.0
C249 C 0.3998 0.60459 0.21261 0.0
O250 O 0.38219 0.62152 0.48284 0.0
O251 O 0.37128 0.59181 0.39216 0.0
C252 C 0.37711 0.59261 0.45361 0.0
O253 O 0.4265 0.63065 0.3845 0.0
O254 O 0.33284 0.67426 0.5333 0.0
O255 O 0.36904 0.71222 0.52508 0.0
O256 O 0.41664 0.67906 0.44274 0.0
C257 C 0.43604 0.65566 0.42109 0.0
O258 O 0.39406 0.68982 0.3075 0.0
O259 O 0.35716 0.71078 0.37579 0.0
O260 O 0.32079 0.65141 0.40549 0.0
O261 O 0.41824 0.62489 0.24395 0.0
O262 O 0.37536 0.59623 0.24567 0.0
O263 O 0.33748 0.6532 0.30298 0.0
C264 C 0.35583 0.69269 0.6278 0.0
C265 C 0.37866 0.66843 0.64305 0.0
C266 C 0.34509 0.70053 0.74002 0.0
C267 C 0.38455 0.66014 0.70642 0.0
C268 C 0.33921 0.7088 0.67662 0.0
C269 C 0.36775 0.67601 0.75563 0.0
C270 C 0.34754 0.69916 0.56125 0.0
C271 C 0.37584 0.71469 0.32738 0.0
H272 H 0.35902 0.65178 0.16788 0.0
H273 H 0.42097 0.5964 0.99752 0.0
H274 H 0.351 0.66886 0.05747 0.0
H275 H 0.4283 0.57876 0.10818 0.0
H276 H 0.39153 0.65549 0.60587 0.0
H277 H 0.33131 0.71265 0.77675 0.0
H278 H 0.40216 0.6412 0.71699 0.0
H279 H 0.3212 0.72721 0.66565 0.0
Eu280 Eu 0.61816 0.13296 0.76226 0.0
Eu281 Eu 0.64029 0.17031 0.62933 0.0
C282 C 0.68885 0.15779 0.74286 0.0
C283 C 0.61118 0.1066 0.93472 0.0
C284 C 0.62798 0.13546 0.95406 0.0
C285 C 0.60756 0.08836 0.04452 0.0
C286 C 0.63403 0.14108 1.01831 0.0
C287 C 0.60142 0.0828 0.98011 0.0
C288 C 0.62341 0.11793 0.06437 0.0
C289 C 0.60272 0.10217 0.86772 0.0
O290 O 0.6522 0.11481 0.62392 0.0
O291 O 0.61134 0.09527 0.68066 0.0
C292 C 0.63178 0.09109 0.63504 0.0
O293 O 0.57521 0.15568 0.72028 0.0
O294 O 0.67442 0.1758 0.55364 0.0
O295 O 0.63091 0.20314 0.54793 0.0
O296 O 0.59007 0.15421 0.61592 0.0
C297 C 0.56846 0.15645 0.65984 0.0
O298 O 0.62785 0.18787 0.79082 0.0
O299 O 0.62405 0.21296 0.69204 0.0
O300 O 0.68042 0.17855 0.69686 0.0
O301 O 0.58701 0.12731 0.84291 0.0
O302 O 0.62462 0.09131 0.82998 0.0
O303 O 0.67026 0.13408 0.76488 0.0
C304 C 0.65173 0.18126 0.45299 0.0
C305 C 0.63767 0.14942 0.44216 0.0
C306 C 0.65718 0.189 0.33937 0.0
C307 C 0.63325 0.13752 0.38021 0.0
C308 C 0.66155 0.20091 0.40134 0.0
C309 C 0.64277 0.15731 0.32815 0.0
C310 C 0.65607 0.19398 0.51802 0.0
C311 C 0.62471 0.21485 0.75416 0.0
H312 H 0.63583 0.15402 0.91954 0.0
H313 H 0.59972 0.06968 0.07879 0.0
H314 H 0.64627 0.16408 1.03212 0.0
H315 H 0.58867 0.06022 0.96587 0.0
H316 H 0.6301 0.13382 0.48164 0.0
H317 H 0.66464 0.20481 0.30013 0.0
H318 H 0.62259 0.11275 0.37304 0.0
H319 H 0.67247 0.22551 0.40892 0.0
Eu320 Eu 0.86604 0.39135 0.95253 0.0
Eu321 Eu 0.88479 0.43107 0.81929 0.0
C322 C 0.93665 0.40457 0.91525 0.0
C323 C 0.85744 0.37694 0.12956 0.0
C324 C 0.87933 0.40226 0.14417 0.0
C325 C 0.84201 0.37541 0.24032 0.0
C326 C 0.88241 0.41422 0.20644 0.0
C327 C 0.83891 0.36351 0.17802 0.0
C328 C 0.86353 0.4012 0.25512 0.0
C329 C 0.8529 0.36549 0.0637 0.0
O330 O 0.87504 0.37649 0.78859 0.0
O331 O 0.88102 0.34997 0.88572 0.0
C332 C 0.87911 0.34902 0.82361 0.0
O333 O 0.82448 0.38327 0.88827 0.0
O334 O 0.9158 0.43863 0.73885 0.0
O335 O 0.87661 0.4725 0.75183 0.0
O336 O 0.83286 0.42753 0.81822 0.0
C337 C 0.81521 0.40345 0.84201 0.0
O338 O 0.85321 0.4463 0.96156 0.0
O339 O 0.89177 0.4683 0.90154 0.0
O340 O 0.92766 0.40562 0.85599 0.0
O341 O 0.83343 0.38353 1.03042 0.0
O342 O 0.87787 0.35789 1.03166 0.0
O343 O 0.91651 0.40778 0.96181 0.0
C344 C 0.89086 0.458 0.64699 0.0
C345 C 0.86924 0.43298 0.62946 0.0
C346 C 0.90016 0.47016 0.53566 0.0
C347 C 0.86321 0.42645 0.56545 0.0
C348 C 0.90605 0.47681 0.59981 0.0
C349 C 0.87884 0.44474 0.51788 0.0
C350 C 0.89901 0.4629 0.71409 0.0
C351 C 0.87297 0.47064 0.95053 0.0
H352 H 0.8937 0.41316 0.10724 0.0
H353 H 0.82772 0.3642 0.277 0.0
H354 H 0.89913 0.43415 0.21628 0.0
H355 H 0.82194 0.34392 0.16761 0.0
H356 H 0.85763 0.41795 0.66534 0.0
H357 H 0.91248 0.48464 0.4999 0.0
H358 H 0.8471 0.40632 0.55311 0.0
H359 H 0.9229 0.49613 0.61253 0.0
Eu360 Eu 0.36374 0.1699 0.63217 0.0
Eu361 Eu 0.38427 0.13006 0.76272 0.0
C362 C 0.43541 0.15181 0.66221 0.0
C363 C 0.35633 0.18758 0.45661 0.0
C364 C 0.37361 0.15802 0.44256 0.0
C365 C 0.35201 0.19921 0.34383 0.0
C366 C 0.37973 0.14888 0.3796 0.0
C367 C 0.34577 0.20825 0.40691 0.0
C368 C 0.3689 0.1693 0.32943 0.0
C369 C 0.34768 0.19557 0.52261 0.0
O370 O 0.39364 0.18689 0.77761 0.0
O371 O 0.35791 0.20916 0.70823 0.0
C372 C 0.37627 0.21239 0.75726 0.0
O373 O 0.31982 0.151 0.68141 0.0
O374 O 0.4174 0.12005 0.83852 0.0
O375 O 0.3735 0.09335 0.83736 0.0
O376 O 0.33763 0.15236 0.78313 0.0
C377 C 0.31465 0.15264 0.74297 0.0
O378 O 0.38118 0.11876 0.60308 0.0
O379 O 0.36716 0.08985 0.6921 0.0
O380 O 0.42565 0.12692 0.6987 0.0
O381 O 0.33231 0.17157 0.55169 0.0
O382 O 0.36922 0.20881 0.55845 0.0
O383 O 0.41617 0.17553 0.64144 0.0
C384 C 0.39363 0.10925 0.93684 0.0
C385 C 0.37868 0.13996 0.95329 0.0
C386 C 0.40045 0.09653 0.04869 0.0
C387 C 0.3748 0.14899 1.01702 0.0
C388 C 0.40428 0.08747 0.98484 0.0
C389 C 0.38593 0.12757 0.06543 0.0
C390 C 0.39847 0.10027 0.86976 0.0
C391 C 0.37358 0.09031 0.63097 0.0
H392 H 0.38177 0.14158 0.48029 0.0
H393 H 0.34346 0.21551 0.30623 0.0
H394 H 0.39219 0.12531 0.37021 0.0
H395 H 0.3323 0.23108 0.41683 0.0
H396 H 0.37023 0.15705 0.91677 0.0
H397 H 0.40866 0.07918 0.08498 0.0
H398 H 0.36353 0.17304 1.02848 0.0
H399 H 0.41564 0.06354 0.97295 0.0
Eu400 Eu 0.64126 0.67526 0.44966 0.0
Eu401 Eu 0.62058 0.63523 0.31882 0.0
C402 C 0.56968 0.65635 0.42046 0.0
C403 C 0.65048 0.69514 0.62482 0.0
C404 C 0.6281 0.67056 0.64052 0.0
C405 C 0.66166 0.70284 0.73688 0.0
C406 C 0.62263 0.66208 0.70401 0.0
C407 C 0.66713 0.71129 0.67336 0.0
C408 C 0.63938 0.67808 0.75294 0.0
C409 C 0.65816 0.70209 0.55803 0.0
O410 O 0.60865 0.69151 0.30696 0.0
O411 O 0.64536 0.71451 0.373 0.0
C412 C 0.62579 0.71738 0.32585 0.0
O413 O 0.68494 0.65586 0.40009 0.0
O414 O 0.58794 0.62613 0.24156 0.0
O415 O 0.63161 0.5987 0.24361 0.0
O416 O 0.66687 0.6583 0.29888 0.0
C417 C 0.68999 0.65797 0.33864 0.0
O418 O 0.62482 0.624 0.4804 0.0
O419 O 0.6361 0.59443 0.38966 0.0
O420 O 0.57952 0.63171 0.38311 0.0
O421 O 0.67333 0.67772 0.52916 0.0
O422 O 0.63609 0.71474 0.52278 0.0
O423 O 0.58867 0.68005 0.4421 0.0
C424 C 0.61272 0.61603 0.14374 0.0
C425 C 0.63418 0.64173 0.12882 0.0
C426 C 0.60043 0.61037 1.03172 0.0
C427 C 0.63869 0.65172 0.06583 0.0
C428 C 0.59602 0.60029 0.0948 0.0
C429 C 0.62156 0.63649 1.01658 0.0
C430 C 0.60709 0.60643 0.21029 0.0
C431 C 0.63055 0.59517 0.45127 0.0
H432 H 0.61522 0.65757 0.60359 0.0
H433 H 0.67541 0.71507 0.77333 0.0
H434 H 0.60532 0.64295 0.71488 0.0
H435 H 0.6848 0.72996 0.66207 0.0
H436 H 0.64735 0.65419 0.16595 0.0
H437 H 0.5869 0.59816 0.99488 0.0
H438 H 0.65567 0.67131 0.05566 0.0
H439 H 0.57932 0.58045 0.10543 0.0
Eu440 Eu 0.1335 0.88876 0.12783 0.0
Eu441 Eu 0.11356 0.92681 0.26156 0.0
C442 C 0.06198 0.89992 0.16438 0.0
C443 C 0.14593 0.87309 0.9525 0.0
C444 C 0.12629 0.90056 0.93764 0.0
C445 C 0.15987 0.86795 0.84127 0.0
C446 C 0.1234 0.91163 0.87498 0.0
C447 C 0.16272 0.85686 0.90406 0.0
C448 C 0.14026 0.89556 0.82616 0.0
C449 C 0.14963 0.86214 1.01866 0.0
O450 O 0.12726 0.8727 0.2894 0.0
O451 O 0.11828 0.84686 0.19293 0.0
C452 C 0.12228 0.8453 0.25448 0.0
O453 O 0.17506 0.88359 0.19411 0.0
O454 O 0.0834 0.9313 0.34418 0.0
O455 O 0.12064 0.96746 0.33143 0.0
O456 O 0.16519 0.93108 0.25404 0.0
C457 C 0.18391 0.90641 0.23646 0.0
O458 O 0.13932 0.94484 0.11135 0.0
O459 O 0.10396 0.96533 0.18327 0.0
O460 O 0.07085 0.90161 0.22369 0.0
O461 O 0.16787 0.88111 0.05309 0.0
O462 O 0.12422 0.85417 0.0487 0.0
O463 O 0.08219 0.90223 0.1177 0.0
C464 C 0.10848 0.95078 0.4358 0.0
C465 C 0.12988 0.92507 0.45135 0.0
C466 C 0.10155 0.9633 0.54772 0.0
C467 C 0.13692 0.91834 0.51478 0.0
C468 C 0.09462 0.97012 0.4842 0.0
C469 C 0.12256 0.93715 0.56363 0.0
C470 C 0.09925 0.9561 0.36957 0.0
C471 C 0.12054 0.96884 0.13131 0.0
H472 H 0.11329 0.91345 0.97463 0.0
H473 H 0.17268 0.85467 0.80445 0.0
H474 H 0.1082 0.93297 0.86466 0.0
H475 H 0.17803 0.83564 0.91479 0.0
H476 H 0.14055 0.90967 0.41448 0.0
H477 H 0.09023 0.97821 0.58448 0.0
H478 H 0.15279 0.89766 0.52568 0.0
H479 H 0.078 0.99001 0.47294 0.0
Eu480 Eu 0.8666 0.66634 0.12405 0.0
Eu481 Eu 0.88321 0.62578 0.25789 0.0
C482 C 0.93638 0.6512 0.16264 0.0
C483 C 0.85688 0.68345 0.9494 0.0
C484 C 0.8731 0.65317 0.93549 0.0
C485 C 0.84552 0.69037 0.83746 0.0
C486 C 0.87549 0.64152 0.87293 0.0
C487 C 0.84317 0.70202 0.9001 0.0
C488 C 0.86151 0.65986 0.82331 0.0
C489 C 0.85323 0.69481 1.01546 0.0
O490 O 0.87021 0.67981 0.28699 0.0
O491 O 0.88269 0.7063 0.19299 0.0
C492 C 0.87706 0.70733 0.25416 0.0
O493 O 0.82442 0.67202 0.1878 0.0
O494 O 0.91337 0.61917 0.33974 0.0
O495 O 0.87408 0.58567 0.32755 0.0
O496 O 0.83146 0.6246 0.24973 0.0
C497 C 0.81393 0.6496 0.22902 0.0
O498 O 0.85937 0.61091 0.10376 0.0
O499 O 0.89147 0.58734 0.17877 0.0
O500 O 0.92678 0.65003 0.22161 0.0
O501 O 0.83341 0.67735 0.04893 0.0
O502 O 0.8788 0.70072 0.04653 0.0
O503 O 0.91678 0.6496 0.11518 0.0
C504 C 0.88769 0.60145 0.43185 0.0
C505 C 0.86885 0.62938 0.44844 0.0
C506 C 0.89367 0.5877 0.5434 0.0
C507 C 0.86277 0.6367 0.51217 0.0
C508 C 0.89977 0.58042 0.47956 0.0
C509 C 0.87532 0.6161 0.56037 0.0
C510 C 0.89626 0.5955 0.36529 0.0
C511 C 0.87638 0.58567 0.1247 0.0
H512 H 0.88368 0.63843 0.97315 0.0
H513 H 0.83504 0.70536 0.80003 0.0
H514 H 0.88789 0.61792 0.86342 0.0
H515 H 0.83054 0.72543 0.91009 0.0
H516 H 0.85948 0.646 0.41212 0.0
H517 H 0.90354 0.57134 0.57956 0.0
H518 H 0.84907 0.65913 0.52377 0.0
H519 H 0.9144 0.55877 0.46751 0.0
Eu520 Eu 0.13851 0.16334 0.95802 0.0
Eu521 Eu 0.12086 0.12336 0.82525 0.0
C522 C 0.06817 0.15118 0.91841 0.0
C523 C 0.14861 0.18026 0.13394 0.0
C524 C 0.13009 0.15203 0.14953 0.0
C525 C 0.16088 0.18796 0.24533 0.0
C526 C 0.12675 0.14202 0.2128 0.0
C527 C 0.1641 0.19803 0.18208 0.0
C528 C 0.14192 0.16006 0.26146 0.0
C529 C 0.15255 0.19068 0.06755 0.0
O530 O 0.1326 0.17749 0.79478 0.0
O531 O 0.12402 0.20462 0.89056 0.0
C532 C 0.12758 0.20529 0.82873 0.0
O533 O 0.18017 0.16954 0.89336 0.0
O534 O 0.09005 0.11544 0.74473 0.0
O535 O 0.13039 0.08317 0.75546 0.0
O536 O 0.17274 0.12185 0.83217 0.0
C537 C 0.19043 0.14686 0.85207 0.0
O538 O 0.14716 0.10762 0.97332 0.0
O539 O 0.11062 0.08661 0.90628 0.0
O540 O 0.07795 0.14989 0.85963 0.0
O541 O 0.17172 0.17209 1.0342 0.0
O542 O 0.12721 0.19772 1.03649 0.0
O543 O 0.08768 0.14858 0.96601 0.0
C544 C 0.11599 0.09928 0.65187 0.0
C545 C 0.13709 0.12533 0.63712 0.0
C546 C 0.10664 0.09046 0.53946 0.0
C547 C 0.14256 0.13426 0.57398 0.0
C548 C 0.10115 0.08155 0.60275 0.0
C549 C 0.12687 0.11745 0.52457 0.0
C550 C 0.10778 0.09247 0.71828 0.0
C551 C 0.1274 0.08373 0.95809 0.0
H552 H 0.11819 0.1378 0.11275 0.0
H553 H 0.17346 0.20182 0.28157 0.0
H554 H 0.11203 0.12043 0.22377 0.0
H555 H 0.17881 0.21959 0.17072 0.0
H556 H 0.1488 0.13925 0.67454 0.0
H557 H 0.09429 0.07705 0.5023 0.0
H558 H 0.15877 0.15464 0.56381 0.0
H559 H 0.08475 0.06142 0.61337 0.0
Eu560 Eu 0.64143 0.39706 0.6188 0.0
Eu561 Eu 0.62451 0.43792 0.75208 0.0
C562 C 0.57129 0.41256 0.65831 0.0
C563 C 0.64969 0.38225 0.44195 0.0
C564 C 0.62697 0.40668 0.42685 0.0
C565 C 0.66679 0.38232 0.33213 0.0
C566 C 0.62413 0.41877 0.36473 0.0
C567 C 0.66955 0.37016 0.39421 0.0
C568 C 0.64417 0.40692 0.3168 0.0
C569 C 0.65374 0.37039 0.50765 0.0
O570 O 0.63284 0.38306 0.78267 0.0
O571 O 0.62551 0.3564 0.68585 0.0
C572 C 0.6276 0.35563 0.74796 0.0
O573 O 0.68285 0.38762 0.68301 0.0
O574 O 0.59369 0.4472 0.83243 0.0
O575 O 0.63446 0.47854 0.82053 0.0
O576 O 0.67633 0.43322 0.75103 0.0
C577 C 0.69313 0.40801 0.72818 0.0
O578 O 0.65468 0.45168 0.60665 0.0
O579 O 0.61787 0.4752 0.67013 0.0
O580 O 0.58083 0.41376 0.71717 0.0
O581 O 0.67391 0.38726 0.54125 0.0
O582 O 0.62849 0.36403 0.53957 0.0
O583 O 0.59109 0.41463 0.61095 0.0
C584 C 0.61901 0.46495 0.92513 0.0
C585 C 0.64262 0.44216 0.94288 0.0
C586 C 0.60637 0.47381 1.03631 0.0
C587 C 0.64802 0.43517 1.00696 0.0
C588 C 0.6011 0.48093 0.9722 0.0
C589 C 0.62977 0.45071 0.05433 0.0
C590 C 0.61152 0.47029 0.85781 0.0
C591 C 0.63595 0.47687 0.61988 0.0
H592 H 0.61165 0.41669 0.46323 0.0
H593 H 0.68215 0.37221 0.29595 0.0
H594 H 0.60659 0.43782 0.35437 0.0
H595 H 0.68728 0.35139 0.40503 0.0
H596 H 0.6564 0.42921 0.90711 0.0
H597 H 0.59198 0.48613 0.07184 0.0
H598 H 0.66581 0.41678 1.01938 0.0
H599 H 0.58264 0.49841 0.95932 0.0
Eu600 Eu 0.35957 0.8958 0.45396 0.0
Eu601 Eu 0.37435 0.93812 0.32125 0.0
C602 C 0.42836 0.92305 0.42311 0.0
C603 C 0.34943 0.8796 0.62901 0.0
C604 C 0.36658 0.90911 0.64323 0.0
C605 C 0.336 0.87426 0.7404 0.0
C606 C 0.36857 0.92102 0.70571 0.0
C607 C 0.33412 0.8623 0.6779 0.0
C608 C 0.35318 0.90381 0.75502 0.0
C609 C 0.34674 0.8675 0.56312 0.0
O610 O 0.36865 0.88243 0.29365 0.0
O611 O 0.3827 0.8584 0.38866 0.0
C612 C 0.37884 0.85644 0.32716 0.0
O613 O 0.31955 0.88464 0.38688 0.0
O614 O 0.40332 0.9465 0.23815 0.0
O615 O 0.36264 0.97804 0.2527 0.0
O616 O 0.32255 0.93423 0.32934 0.0
C617 C 0.30731 0.90703 0.3476 0.0
O618 O 0.34467 0.95002 0.46828 0.0
O619 O 0.37894 0.97609 0.40232 0.0
O620 O 0.42062 0.92497 0.36305 0.0
O621 O 0.32633 0.88346 0.52858 0.0
O622 O 0.37272 0.86265 0.5327 0.0
O623 O 0.40776 0.91778 0.46811 0.0
C624 C 0.37642 0.96364 0.14729 0.0
C625 C 0.35655 0.93669 0.13092 0.0
C626 C 0.38469 0.97535 1.03543 0.0
C627 C 0.35106 0.92887 0.06717 0.0
C628 C 0.39014 0.98318 0.09927 0.0
C629 C 0.36535 0.94784 1.0187 0.0
C630 C 0.38497 0.96952 0.21388 0.0
C631 C 0.36179 0.97635 0.45397 0.0
H632 H 0.37845 0.92293 0.60595 0.0
H633 H 0.32379 0.86054 0.7773 0.0
H634 H 0.38249 0.94343 0.71547 0.0
H635 H 0.3206 0.83963 0.66771 0.0
H636 H 0.3459 0.9212 0.16746 0.0
H637 H 0.39648 0.99004 0.99928 0.0
H638 H 0.33596 0.90764 0.05573 0.0
H639 H 0.40579 1.00387 0.11111 0.0
C640 C 0.14347 0.61084 0.73447 0.0
C641 C 0.13743 0.64456 0.75482 0.0
C642 C 0.13914 0.60111 0.67094 0.0
C643 C 0.12868 0.62476 0.62553 0.0
H644 H 0.1521 0.59199 0.76767 0.0
H645 H 0.14451 0.57505 0.65704 0.0
S646 S 0.1063 0.71506 0.65596 0.0
N647 N 0.11821 0.70084 0.72545 0.0
N648 N 0.11018 0.68261 0.60628 0.0
C649 C 0.12183 0.65829 0.64563 0.0
C650 C 0.12619 0.66816 0.71017 0.0
C651 C 0.62418 0.90278 0.93249 0.0
C652 C 0.62621 0.93749 0.95006 0.0
C653 C 0.62767 0.89241 0.86912 0.0
C654 C 0.63331 0.91634 0.82073 0.0
H655 H 0.61927 0.88348 0.96786 0.0
H656 H 0.62536 0.86549 0.85778 0.0
S657 S 0.64356 1.00987 0.84244 0.0
N658 N 0.6361 0.99553 0.91441 0.0
N659 N 0.64274 0.97606 0.79537 0.0
C660 C 0.636 0.95105 0.8378 0.0
C661 C 0.63242 0.96161 0.90236 0.0
C662 C 0.39609 0.41302 0.22418 0.0
C663 C 0.36683 0.4124 0.25376 0.0
C664 C 0.39947 0.42368 0.16105 0.0
C665 C 0.37374 0.43412 0.12495 0.0
H666 H 0.41648 0.40456 0.24967 0.0
H667 H 0.42236 0.42307 0.13991 0.0
S668 S 0.29261 0.44063 0.18206 0.0
N669 N 0.31198 0.42554 0.24345 0.0
N670 N 0.31834 0.44537 0.12473 0.0
C671 C 0.34447 0.43438 0.15434 0.0
C672 C 0.34102 0.42359 0.21869 0.0
C673 C 0.86726 0.11411 0.41045 0.0
C674 C 0.87501 0.13739 0.45888 0.0
C675 C 0.86434 0.12483 0.34728 0.0
C676 C 0.86907 0.15923 0.33021 0.0
H677 H 0.86304 0.08748 0.42157 0.0
H678 H 0.85794 0.10614 0.31164 0.0
S679 S 0.89254 0.2296 0.43812 0.0
N680 N 0.88923 0.19594 0.48478 0.0
N681 N 0.88365 0.21605 0.3662 0.0
C682 C 0.87731 0.18263 0.37799 0.0
C683 C 0.88031 0.17172 0.44224 0.0
C684 C 0.14157 0.43882 0.33852 0.0
C685 C 0.14025 0.40426 0.3197 0.0
C686 C 0.13696 0.44847 0.40204 0.0
C687 C 0.13092 0.4239 0.44909 0.0
H688 H 0.14659 0.45854 0.30402 0.0
H689 H 0.13852 0.47532 0.41455 0.0
S690 S 0.12211 0.33044 0.42352 0.0
N691 N 0.13045 0.3457 0.35261 0.0
N692 N 0.12189 0.36379 0.47176 0.0
C693 C 0.12899 0.38934 0.43069 0.0
C694 C 0.13364 0.37954 0.36611 0.0
C695 C 0.88627 0.89391 0.72359 0.0
C696 C 0.85975 0.90337 0.75847 0.0
C697 C 0.8905 0.90479 0.66082 0.0
C698 C 0.86833 0.92545 0.63041 0.0
H699 H 0.90371 0.87753 0.74465 0.0
H700 H 0.91105 0.89648 0.63549 0.0
S701 S 0.79635 0.96007 0.7025 0.0
N702 N 0.81205 0.93669 0.75917 0.0
N703 N 0.81986 0.95666 0.64092 0.0
C704 C 0.84199 0.93561 0.66497 0.0
C705 C 0.83774 0.9247 0.72901 0.0
C706 C 0.37397 0.63129 0.83995 0.0
C707 C 0.37309 0.66609 0.82287 0.0
C708 C 0.37821 0.62126 0.90322 0.0
C709 C 0.38173 0.64563 0.95194 0.0
H710 H 0.3708 0.61162 0.80425 0.0
H711 H 0.3782 0.5942 0.91422 0.0
S712 S 0.38408 0.7399 0.93145 0.0
N713 N 0.378 0.72486 0.85929 0.0
N714 N 0.38605 0.70608 0.97805 0.0
C715 C 0.38151 0.68049 0.93531 0.0
C716 C 0.37717 0.69069 0.8709 0.0
C717 C 0.65745 0.13624 0.15453 0.0
C718 C 0.62822 0.12548 0.13284 0.0
C719 C 0.66206 0.14594 0.21789 0.0
C720 C 0.63762 0.14522 0.2621 0.0
H721 H 0.67692 0.13736 0.12212 0.0
H722 H 0.68493 0.15417 0.23238 0.0
S723 S 0.55631 0.12037 0.22906 0.0
N724 N 0.57428 0.11546 0.16044 0.0
N725 N 0.58299 0.13353 0.27954 0.0
C726 C 0.60835 0.13418 0.24128 0.0
C727 C 0.60364 0.12435 0.17671 0.0
C728 C 0.89639 0.41734 0.34856 0.0
C729 C 0.86678 0.41402 0.32135 0.0
C730 C 0.90008 0.42807 0.41162 0.0
C731 C 0.8743 0.43578 0.45002 0.0
H732 H 0.9169 0.4108 0.32137 0.0
H733 H 0.92327 0.42945 0.43101 0.0
S734 S 0.792 0.43492 0.39983 0.0
N735 N 0.81133 0.42211 0.33638 0.0
N736 N 0.81832 0.44174 0.4552 0.0
C737 C 0.84462 0.4335 0.42304 0.0
C738 C 0.84085 0.42276 0.3587 0.0
C739 C 0.34923 0.15921 0.21903 0.0
C740 C 0.37406 0.15876 0.26226 0.0
C741 C 0.35325 0.14897 0.15572 0.0
C742 C 0.38224 0.13775 0.13309 0.0
H743 H 0.32635 0.16713 0.23445 0.0
H744 H 0.33339 0.1495 0.12437 0.0
S745 S 0.45524 0.134 0.22556 0.0
N746 N 0.42906 0.14771 0.27694 0.0
N747 N 0.43654 0.12828 0.15811 0.0
C748 C 0.40734 0.13742 0.17558 0.0
C749 C 0.40327 0.14795 0.24004 0.0
C750 C 0.62951 0.62337 0.90089 0.0
C751 C 0.62571 0.64774 0.9496 0.0
C752 C 0.63371 0.63338 0.83755 0.0
C753 C 0.63428 0.66816 0.82034 0.0
H754 H 0.62972 0.59631 0.91192 0.0
H755 H 0.63704 0.6137 0.80189 0.0
S756 S 0.62259 0.74199 0.92885 0.0
N757 N 0.62088 0.70819 0.97554 0.0
N758 N 0.62886 0.72693 0.85671 0.0
C759 C 0.62999 0.69277 0.86838 0.0
C760 C 0.62568 0.6826 0.93286 0.0
C761 C 0.10247 0.92204 0.67121 0.0
C762 C 0.12791 0.928 0.63101 0.0
C763 C 0.10672 0.91177 0.73422 0.0
C764 C 0.13658 0.90708 0.75949 0.0
H765 H 0.07905 0.92461 0.65342 0.0
H766 H 0.08643 0.90685 0.76306 0.0
S767 S 0.21086 0.92251 0.6756 0.0
N768 N 0.18399 0.93052 0.6219 0.0
N769 N 0.19203 0.91135 0.74056 0.0
C770 C 0.16225 0.91368 0.7202 0.0
C771 C 0.1579 0.9241 0.65595 0.0
C772 C 0.89327 0.6382 0.73203 0.0
C773 C 0.86414 0.64745 0.75683 0.0
C774 C 0.89655 0.62744 0.66887 0.0
C775 C 0.87081 0.62547 0.62813 0.0
H776 H 0.91382 0.64003 0.76126 0.0
H777 H 0.91955 0.62145 0.65138 0.0
S778 S 0.78904 0.64324 0.67185 0.0
N779 N 0.80878 0.65151 0.73714 0.0
N780 N 0.81493 0.63124 0.61844 0.0
C781 C 0.84144 0.63371 0.65284 0.0
C782 C 0.8381 0.64471 0.71714 0.0
C783 C 0.13721 0.10482 0.40965 0.0
C784 C 0.13078 0.12879 0.45784 0.0
C785 C 0.14079 0.11511 0.34634 0.0
C786 C 0.13799 0.14973 0.32884 0.0
H787 H 0.13982 0.07796 0.42109 0.0
H788 H 0.14615 0.09584 0.31092 0.0
S789 S 0.11842 0.22204 0.43623 0.0
N790 N 0.11993 0.18835 0.48322 0.0
N791 N 0.12648 0.20763 0.36439 0.0
C792 C 0.13103 0.17384 0.37646 0.0
C793 C 0.12747 0.16339 0.44086 0.0
C794 C 0.61174 0.42019 0.22137 0.0
C795 C 0.64101 0.41964 0.25069 0.0
C796 C 0.60828 0.43085 0.1583 0.0
C797 C 0.63395 0.44134 0.12207 0.0
H798 H 0.59143 0.41158 0.24693 0.0
H799 H 0.58541 0.43008 0.13724 0.0
S800 S 0.71502 0.4482 0.17867 0.0
N801 N 0.69575 0.43304 0.24018 0.0
N802 N 0.68924 0.45284 0.12149 0.0
C803 C 0.6632 0.44179 0.15129 0.0
C804 C 0.66673 0.43101 0.21557 0.0
C805 C 0.3652 0.90294 0.9337 0.0
C806 C 0.36153 0.9375 0.95117 0.0
C807 C 0.36236 0.89237 0.87041 0.0
C808 C 0.35571 0.91591 0.82188 0.0
H809 H 0.37085 0.88391 0.96914 0.0
H810 H 0.36589 0.86556 0.85927 0.0
S811 S 0.34186 1.00905 0.84304 0.0
N812 N 0.34956 0.99507 0.91517 0.0
N813 N 0.34411 0.9752 0.79619 0.0
C814 C 0.35163 0.95052 0.83875 0.0
C815 C 0.35456 0.9613 0.90331 0.0
C816 C 0.15249 0.75791 0.29008 0.0
C817 C 0.12561 0.73814 0.28187 0.0
C818 C 0.15092 0.79387 0.29045 0.0
C819 C 0.12246 0.81085 0.28219 0.0
H820 H 0.17505 0.74568 0.28953 0.0
H821 H 0.17233 0.80829 0.29022 0.0
S822 S 0.04532 0.77059 0.26676 0.0
N823 N 0.06966 0.73804 0.27234 0.0
N824 N 0.06673 0.80544 0.27235 0.0
C825 C 0.09529 0.79132 0.28012 0.0
C826 C 0.09687 0.75491 0.28012 0.0
C827 C 0.51113 0.90374 0.47315 0.0
C828 C 0.52764 0.92893 0.43961 0.0
C829 C 0.47839 0.90331 0.4726 0.0
C830 C 0.46151 0.92799 0.43831 0.0
H831 H 0.52347 0.88292 0.49574 0.0
H832 H 0.46641 0.88222 0.49498 0.0
S833 S 0.49397 1.00236 0.35241 0.0
N834 N 0.52464 0.98142 0.37864 0.0
N835 N 0.46364 0.98054 0.37741 0.0
C836 C 0.47786 0.95473 0.40935 0.0
C837 C 0.51082 0.95522 0.41006 0.0
C838 C 0.35459 0.30296 0.79292 0.0
C839 C 0.38266 0.31974 0.78078 0.0
C840 C 0.35322 0.26713 0.79324 0.0
C841 C 0.37996 0.24722 0.7825 0.0
H842 H 0.33312 0.31738 0.79481 0.0
H843 H 0.33072 0.25497 0.79594 0.0
S844 S 0.45968 0.27943 0.75936 0.0
N845 N 0.43818 0.31431 0.76573 0.0
N846 N 0.43576 0.24685 0.7682 0.0
C847 C 0.40864 0.26378 0.77811 0.0
C848 C 0.40993 0.30022 0.77666 0.0
C849 C 0.98506 0.17305 0.88165 0.0
C850 C 0.96812 0.15588 0.92877 0.0
C851 C 0.01739 0.17292 0.88146 0.0
C852 C 0.03438 0.15564 0.92839 0.0
H853 H 0.97324 0.18585 0.84307 0.0
H854 H 0.02916 0.18556 0.84266 0.0
S855 S 0.00131 0.10919 0.06574 0.0
N856 N 0.97066 0.12314 1.02651 0.0
N857 N 0.03192 0.12288 1.02612 0.0
C858 C 0.01791 0.14015 0.97826 0.0
C859 C 0.98464 0.14028 0.97846 0.0
C860 C 0.15487 0.29285 0.78618 0.0
C861 C 0.12744 0.3119 0.7941 0.0
C862 C 0.15443 0.25688 0.7885 0.0
C863 C 0.12657 0.23922 0.79901 0.0
H864 H 0.17705 0.30577 0.7853 0.0
H865 H 0.17628 0.24315 0.78905 0.0
S866 S 0.04829 0.27729 0.81402 0.0
N867 N 0.07156 0.31045 0.80539 0.0
N868 N 0.07076 0.24305 0.81014 0.0
C869 C 0.09881 0.25788 0.80046 0.0
C870 C 0.09924 0.29429 0.79783 0.0
C871 C 0.01106 0.87725 0.1989 0.0
C872 C 0.02822 0.89521 0.15306 0.0
C873 C 0.97869 0.87754 0.19894 0.0
C874 C 0.96178 0.89577 0.15311 0.0
H875 H 0.02277 0.86394 0.23702 0.0
H876 H 0.9668 0.86442 0.23705 0.0
S877 S 0.99525 0.94402 1.01835 0.0
N878 N 0.02581 0.92932 0.05698 0.0
N879 N 0.96453 0.9299 0.05709 0.0
C880 C 0.97842 0.91182 0.10407 0.0
C881 C 0.01175 0.91152 0.10403 0.0
C882 C 0.35163 0.76871 0.29157 0.0
C883 C 0.37875 0.74951 0.30205 0.0
C884 C 0.35249 0.80452 0.28983 0.0
C885 C 0.3804 0.822 0.29988 0.0
H886 H 0.3293 0.75611 0.29027 0.0
H887 H 0.33078 0.81851 0.28797 0.0
S888 S 0.45824 0.78352 0.3192 0.0
N889 N 0.43473 0.75037 0.31335 0.0
N890 N 0.43613 0.81789 0.31249 0.0
C891 C 0.408 0.80309 0.3039 0.0
C892 C 0.40724 0.76664 0.30428 0.0
C893 C 0.51952 0.12414 0.65342 0.0
C894 C 0.53535 0.15493 0.64344 0.0
C895 C 0.4871 0.12322 0.65533 0.0
C896 C 0.46917 0.15316 0.64789 0.0
H897 H 0.53236 0.10089 0.66334 0.0
H898 H 0.47609 0.09898 0.66556 0.0
S899 S 0.49996 0.23997 0.61563 0.0
N900 N 0.53121 0.21571 0.62219 0.0
N901 N 0.47004 0.21421 0.62537 0.0
C902 C 0.4848 0.18384 0.63398 0.0
C903 C 0.51798 0.1847 0.63214 0.0
C904 C 0.9076 0.26031 0.80715 0.0
C905 C 0.87968 0.2424 0.79976 0.0
C906 C 0.9082 0.29606 0.80467 0.0
C907 C 0.88087 0.31488 0.79498 0.0
H908 H 0.92843 0.24686 0.82151 0.0
H909 H 0.92942 0.3091 0.81756 0.0
S910 S 0.80283 0.27971 0.76371 0.0
N911 N 0.82493 0.24561 0.7744 0.0
N912 N 0.82602 0.31312 0.77012 0.0
C913 C 0.85356 0.29716 0.78029 0.0
C914 C 0.85297 0.26066 0.78264 0.0
C915 C 0.58771 0.803 0.31514 0.0
C916 C 0.613 0.82432 0.30096 0.0
C917 C 0.59093 0.7673 0.31506 0.0
C918 C 0.61976 0.75207 0.30231 0.0
H919 H 0.56614 0.81403 0.33196 0.0
H920 H 0.57174 0.75186 0.33164 0.0
S921 S 0.69158 0.7962 0.25278 0.0
N922 N 0.66636 0.82746 0.26487 0.0
N923 N 0.67279 0.7603 0.26737 0.0
C924 C 0.6443 0.77287 0.2822 0.0
C925 C 0.64079 0.80915 0.28068 0.0
C926 C 0.9026 0.76175 0.28053 0.0
C927 C 0.87588 0.74143 0.28329 0.0
C928 C 0.90046 0.79748 0.28226 0.0
C929 C 0.87152 0.81389 0.28623 0.0
H930 H 0.92491 0.75011 0.27052 0.0
H931 H 0.92119 0.81231 0.27317 0.0
S932 S 0.79514 0.77194 0.30232 0.0
N933 N 0.82009 0.73988 0.29738 0.0
N934 N 0.81603 0.80731 0.29972 0.0
C935 C 0.84501 0.79384 0.29571 0.0
C936 C 0.84721 0.75738 0.29441 0.0
C937 C 0.64992 0.26713 0.79546 0.0
C938 C 0.62251 0.24937 0.78111 0.0
C939 C 0.6507 0.30308 0.79363 0.0
C940 C 0.6241 0.3219 0.77735 0.0
H941 H 0.6715 0.25323 0.80107 0.0
H942 H 0.67285 0.31587 0.79799 0.0
S943 S 0.54595 0.28735 0.74526 0.0
N944 N 0.56761 0.25315 0.75799 0.0
N945 N 0.56909 0.32055 0.75456 0.0
C946 C 0.59601 0.30447 0.76976 0.0
C947 C 0.59521 0.26811 0.77165 0.0
C948 C 0.98684 0.37958 0.88169 0.0
C949 C 0.97021 0.39881 0.92679 0.0
C950 C 0.01915 0.37845 0.88198 0.0
C951 C 0.03655 0.3965 0.92735 0.0
H952 H 0.9748 0.36633 0.84385 0.0
H953 H 0.03064 0.36452 0.84414 0.0
S954 S 0.00427 0.4469 0.0614 0.0
N955 N 0.97337 0.43343 1.02252 0.0
N956 N 0.03465 0.43129 1.02306 0.0
C957 C 0.02033 0.41361 0.97606 0.0
C958 C 0.98702 0.41477 0.97577 0.0
C959 C 0.48689 0.62646 0.4315 0.0
C960 C 0.46973 0.65706 0.43487 0.0
C961 C 0.51924 0.6266 0.43135 0.0
C962 C 0.536 0.65735 0.43461 0.0
H963 H 0.47525 0.60209 0.42621 0.0
H964 H 0.5312 0.60235 0.42591 0.0
S965 S 0.50237 0.74428 0.45239 0.0
N966 N 0.4719 0.71885 0.44804 0.0
N967 N 0.53311 0.71911 0.4477 0.0
C968 C 0.5193 0.68803 0.443 0.0
C969 C 0.48606 0.68789 0.44316 0.0
C970 C 0.4884 0.38991 0.69552 0.0
C971 C 0.47111 0.40682 0.64862 0.0
C972 C 0.5207 0.39048 0.69544 0.0
C973 C 0.53747 0.40786 0.6483 0.0
H974 H 0.47685 0.37709 0.73442 0.0
H975 H 0.53261 0.37818 0.73441 0.0
S976 S 0.50352 0.45342 0.51077 0.0
N977 N 0.47309 0.4393 0.55053 0.0
N978 N 0.5344 0.44021 0.55016 0.0
C979 C 0.52069 0.42297 0.5984 0.0
C980 C 0.48737 0.42247 0.59859 0.0
C981 C 0.01935 0.67293 0.19837 0.0
C982 C 0.03629 0.65537 0.15142 0.0
C983 C 0.98707 0.67304 0.19872 0.0
C984 C 0.97008 0.65553 0.15215 0.0
H985 H 0.0311 0.68553 0.23725 0.0
H986 H 0.97534 0.68591 0.23755 0.0
S987 S 0.00296 0.60892 1.0141 0.0
N988 N 0.03367 0.62264 0.05333 0.0
N989 N 0.97239 0.62276 0.05405 0.0
C990 C 0.98648 0.63994 0.102 0.0
C991 C 0.01975 0.63987 0.10161 0.0
C992 C 0.15688 0.53795 0.05992 0.0
C993 C 0.1291 0.55148 0.08431 0.0
C994 C 0.15678 0.51214 1.01382 0.0
C995 C 0.12891 0.4994 0.98876 0.0
H996 H 0.17899 0.54731 0.07684 0.0
H997 H 0.17882 0.50203 0.99763 0.0
S998 S 0.04979 0.52709 1.03483 0.0
N999 N 0.07287 0.55069 0.07946 0.0
N1000 N 0.07268 0.50249 0.99124 0.0
C1001 C 0.10088 0.51306 1.0118 0.0
C1002 C 0.10098 0.53895 0.0601 0.0
C1003 C 0.72924 0.8828 0.30777 0.0
C1004 C 0.71427 0.91431 0.31944 0.0
C1005 C 0.75828 0.88128 0.27677 0.0
C1006 C 0.77377 0.9113 0.25788 0.0
H1007 H 0.71831 0.85915 0.32192 0.0
H1008 H 0.76897 0.85654 0.26897 0.0
S1009 S 0.74519 1.00029 0.27932 0.0
N1010 N 0.71773 0.97625 0.31029 0.0
N1011 N 0.77196 0.97339 0.2537 0.0
C1012 C 0.75919 0.94288 0.27008 0.0
C1013 C 0.72962 0.9444 0.3005 0.0
C1014 C 0.38965 0.53407 0.59515 0.0
C1015 C 0.37547 0.50338 0.57658 0.0
C1016 C 0.39057 0.56231 0.55436 0.0
C1017 C 0.37762 0.56106 0.49288 0.0
H1018 H 0.39972 0.53656 0.64195 0.0
H1019 H 0.40141 0.58549 0.57167 0.0
S1020 S 0.33929 0.48605 0.41942 0.0
N1021 N 0.34919 0.47293 0.49093 0.0
N1022 N 0.35117 0.52606 0.41472 0.0
C1023 C 0.36414 0.53026 0.47292 0.0
C1024 C 0.36295 0.50148 0.51464 0.0
C1025 C 0.75358 0.15358 0.86504 0.0
C1026 C 0.78023 0.15947 0.82854 0.0
C1027 C 0.72403 0.15379 0.83698 0.0
C1028 C 0.72008 0.16068 0.77181 0.0
H1029 H 0.75567 0.14738 0.9149 0.0
H1030 H 0.70412 0.14809 0.86645 0.0
S1031 S 0.78277 0.17967 0.6569 0.0
N1032 N 0.80098 0.17328 0.7247 0.0
N1033 N 0.74549 0.175 0.67251 0.0
C1034 C 0.74655 0.16807 0.73558 0.0
C1035 C 0.77662 0.16704 0.76382 0.0
C1036 C 0.89213 0.55717 1.02406 0.0
C1037 C 0.87847 0.555 0.08452 0.0
C1038 C 0.8908 0.52964 0.98118 0.0
C1039 C 0.87501 0.49936 0.99679 0.0
H1040 H 0.9036 0.58051 1.00958 0.0
H1041 H 0.90155 0.53245 0.93504 0.0
S1042 S 0.83506 0.48179 0.15008 0.0
N1043 N 0.84912 0.52075 0.15855 0.0
N1044 N 0.84561 0.46915 0.07843 0.0
C1045 C 0.86144 0.49703 0.05782 0.0
C1046 C 0.86342 0.52483 0.1016 0.0
C1047 C 0.22862 0.13513 0.76472 0.0
C1048 C 0.22202 0.15006 0.8243 0.0
C1049 C 0.25827 0.13717 0.73735 0.0
C1050 C 0.28265 0.1537 0.76898 0.0
H1051 H 0.21071 0.12171 0.73878 0.0
H1052 H 0.26233 0.12481 0.69204 0.0
S1053 S 0.27742 0.19839 0.92446 0.0
N1054 N 0.24223 0.18322 0.91261 0.0
N1055 N 0.29793 0.18663 0.86191 0.0
C1056 C 0.27625 0.16932 0.82797 0.0
C1057 C 0.24597 0.16765 0.85539 0.0
C1058 C 0.61771 0.56475 0.55222 0.0
C1059 C 0.6309 0.56369 0.49086 0.0
C1060 C 0.61927 0.53667 0.59333 0.0
C1061 C 0.63437 0.50633 0.57528 0.0
H1062 H 0.60612 0.58764 0.56917 0.0
H1063 H 0.60888 0.53901 0.63994 0.0
S1064 S 0.67174 0.4896 0.41879 0.0
N1065 N 0.65871 0.52923 0.41344 0.0
N1066 N 0.66194 0.47642 0.49035 0.0
C1067 C 0.64725 0.50462 0.51354 0.0
C1068 C 0.64539 0.53323 0.47144 0.0
C1069 C 0.2697 0.88679 0.26531 0.0
C1070 C 0.27532 0.90275 0.32408 0.0
C1071 C 0.23993 0.88715 0.23776 0.0
C1072 C 0.21496 0.90414 0.26747 0.0
H1073 H 0.28861 0.87476 0.23972 0.0
H1074 H 0.23674 0.87503 0.19199 0.0
S1075 S 0.21783 0.94799 0.42432 0.0
N1076 N 0.25364 0.93444 0.41245 0.0
N1077 N 0.19799 0.93556 0.3615 0.0
C1078 C 0.2204 0.91938 0.3273 0.0
C1079 C 0.25052 0.91864 0.35531 0.0
C1080 C 0.6002 1.02478 0.51948 0.0
C1081 C 0.62742 1.01125 0.49237 0.0
C1082 C 0.60161 0.04965 0.56795 0.0
C1083 C 0.63028 0.06202 0.58998 0.0
H1084 H 0.57778 1.01532 0.50459 0.0
H1085 H 0.58018 0.05972 0.58735 0.0
S1086 S 0.70805 0.03494 0.5334 0.0
N1087 N 0.68364 1.01192 0.49092 0.0
N1088 N 0.68635 0.05898 0.58031 0.0
C1089 C 0.65753 0.04887 0.56246 0.0
C1090 C 0.65608 1.02339 0.51411 0.0
C1091 C 0.23973 0.37807 0.80019 0.0
C1092 C 0.2233 0.40857 0.81295 0.0
C1093 C 0.26885 0.3786 0.76943 0.0
C1094 C 0.28274 0.40969 0.7513 0.0
H1095 H 0.22983 0.35362 0.8131 0.0
H1096 H 0.28085 0.35463 0.76115 0.0
S1097 S 0.24938 0.49659 0.774 0.0
N1098 N 0.22335 0.47064 0.80479 0.0
N1099 N 0.27753 0.47161 0.74788 0.0
C1100 C 0.26647 0.44023 0.76389 0.0
C1101 C 0.23695 0.43968 0.79445 0.0
C1102 C 0.87834 0.03153 0.10787 0.0
C1103 C 0.87295 0.99857 0.08373 0.0
C1104 C 0.87856 0.0601 0.06756 0.0
C1105 C 0.87429 0.0566 1.00156 0.0
H1106 H 0.88128 0.03545 0.15838 0.0
H1107 H 0.88194 0.08518 0.0883 0.0
S1108 S 0.86116 0.97577 0.91414 0.0
N1109 N 0.86431 0.96399 0.98902 0.0
N1110 N 0.86564 1.01769 0.91376 0.0
C1111 C 0.87013 1.02374 0.97656 0.0
C1112 C 0.8692 0.99473 1.01755 0.0
C1113 C 0.24671 0.66258 0.23145 0.0
C1114 C 0.22179 0.64869 0.26553 0.0
C1115 C 0.27654 0.66398 0.25779 0.0
C1116 C 0.28257 0.65218 0.3198 0.0
H1117 H 0.24336 0.67164 0.18343 0.0
H1118 H 0.29508 0.67433 0.22902 0.0
S1119 S 0.22459 0.61599 0.43081 0.0
N1120 N 0.20471 0.62443 0.36586 0.0
N1121 N 0.26058 0.62762 0.41553 0.0
C1122 C 0.2576 0.63934 0.35522 0.0
C1123 C 0.2273 0.63741 0.32803 0.0
C1124 C 0.38369 0.03267 0.4877 0.0
C1125 C 0.36391 1.00505 0.50024 0.0
C1126 C 0.38733 0.05929 0.53151 0.0
C1127 C 0.37147 0.0595 0.59007 0.0
H1128 H 0.39658 0.03388 0.44365 0.0
H1129 H 0.40267 0.08009 0.51892 0.0
S1130 S 0.31705 0.99315 0.647 0.0
N1131 N 0.32829 0.97938 0.57654 0.0
N1132 N 0.33543 1.02962 0.65866 0.0
C1133 C 0.35199 0.03186 0.60399 0.0
C1134 C 0.34807 1.00469 0.55909 0.0
C1135 C 0.77572 0.63886 0.31639 0.0
C1136 C 0.78241 0.65347 0.25677 0.0
C1137 C 0.74615 0.64155 0.34388 0.0
C1138 C 0.72192 0.65844 0.31237 0.0
H1139 H 0.7935 0.62518 0.34228 0.0
H1140 H 0.74203 0.6294 0.38922 0.0
S1141 S 0.72748 0.70275 0.15707 0.0
N1142 N 0.76253 0.68695 0.16874 0.0
N1143 N 0.70689 0.69142 0.21956 0.0
C1144 C 0.72842 0.6738 0.25339 0.0
C1145 C 0.75865 0.67151 0.22587 0.0
C1146 C 0.13853 0.05547 0.06233 0.0
C1147 C 0.12329 0.05467 1.003 0.0
C1148 C 0.13595 1.02848 0.10575 0.0
C1149 C 0.11792 0.99971 0.09177 0.0
H1150 H 0.15306 0.07692 0.07534 0.0
H1151 H 0.14903 1.02958 0.14952 0.0
S1152 S 0.07168 0.98526 0.9463 0.0
N1153 N 0.08811 1.02286 0.93485 0.0
N1154 N 0.08363 0.97212 1.01654 0.0
C1155 C 0.10184 0.99881 1.03394 0.0
C1156 C 0.10435 1.02632 0.98961 0.0
C1157 C 0.72811 0.40774 0.8226 0.0
C1158 C 0.72409 0.40238 0.75692 0.0
C1159 C 0.75752 0.40586 0.85089 0.0
C1160 C 0.78403 0.39933 0.81421 0.0
H1161 H 0.70839 0.41403 0.85229 0.0
H1162 H 0.7597 0.41118 0.90115 0.0
S1163 S 0.78618 0.38185 0.64131 0.0
N1164 N 0.74909 0.38832 0.65691 0.0
N1165 N 0.80448 0.38605 0.70965 0.0
C1166 C 0.7803 0.39297 0.74898 0.0
C1167 C 0.75028 0.39408 0.72042 0.0
loop_
_geom_bond_atom_site_label_1
_geom_bond_atom_site_label_2
_geom_bond_distance
_geom_bond_site_symmetry_2
_ccdc_geom_bond_type
Eu0 C9 2.828 . S
Eu0 O11 2.392 . S
Eu0 O13 2.418 . S
Eu0 O18 2.373 . S
Eu0 O21 2.488 . S
Eu0 O22 2.471 . S
Eu0 O23 2.349 . S
Eu1 O10 2.373 . S
Eu1 O14 2.488 . S
Eu1 O15 2.471 . S
Eu1 O16 2.349 . S
Eu1 O19 2.392 . S
Eu1 O20 2.418 . S
Eu1 C30 2.828 1_554 S
C2 O20 1.244 . S
C2 O23 1.265 . S
C3 C4 1.379 . S
C3 C7 1.373 . S
C3 C9 1.505 . S
C4 C3 1.379 . S
C4 C6 1.369 . S
C4 H32 0.930 . S
C5 C7 1.383 . S
C5 C8 1.382 . S
C5 H33 0.930 . S
C6 C4 1.369 . S
C6 C8 1.392 . S
C6 H34 0.930 . S
C7 C3 1.373 . S
C7 C5 1.383 . S
C7 H35 0.931 . S
C8 C5 1.382 . S
C8 C6 1.392 . S
C9 Eu0 2.828 . S
C9 C3 1.505 . S
C9 O21 1.249 . S
C9 O22 1.244 . S
O10 Eu1 2.373 . S
O10 C12 1.258 . S
O11 Eu0 2.392 . S
O11 C12 1.242 . S
C12 O10 1.258 . S
C12 O11 1.242 . S
O13 Eu0 2.418 . S
O13 C17 1.244 . S
O14 Eu1 2.488 . S
O14 C30 1.249 1_554 S
O15 Eu1 2.471 . S
O15 C30 1.244 1_554 S
O16 Eu1 2.349 . S
O16 C17 1.265 . S
C17 O13 1.244 . S
C17 O16 1.265 . S
O18 Eu0 2.373 . S
O18 C31 1.258 . S
O19 Eu1 2.392 . S
O19 C31 1.242 . S
O20 Eu1 2.418 . S
O20 C2 1.244 . S
O21 Eu0 2.488 . S
O21 C9 1.249 . S
O22 Eu0 2.471 . S
O22 C9 1.244 . S
O23 Eu0 2.349 . S
O23 C2 1.265 . S
C24 C25 1.379 . S
C24 C28 1.373 . S
C24 C30 1.505 . S
C25 C24 1.379 . S
C25 C27 1.369 . S
C25 H36 0.930 . S
C26 C28 1.383 . S
C26 C29 1.382 . S
C26 H37 0.930 . S
C27 C25 1.369 . S
C27 C29 1.392 . S
C27 H38 0.930 . S
C28 C24 1.373 . S
C28 C26 1.383 . S
C28 H39 0.931 . S
C29 C26 1.382 . S
C29 C27 1.392 . S
C30 Eu1 2.828 1_556 S
C30 O14 1.249 1_556 S
C30 O15 1.244 1_556 S
C30 C24 1.505 . S
C31 O18 1.258 . S
C31 O19 1.242 . S
H32 C4 0.930 . S
H33 C5 0.930 . S
H34 C6 0.930 . S
H35 C7 0.931 . S
H36 C25 0.930 . S
H37 C26 0.930 . S
H38 C27 0.930 . S
H39 C28 0.931 . S
Eu40 C49 2.828 . S
Eu40 O51 2.392 . S
Eu40 O53 2.418 . S
Eu40 O58 2.373 . S
Eu40 O61 2.488 . S
Eu40 O62 2.471 . S
Eu40 O63 2.349 . S
Eu41 O50 2.373 . S
Eu41 O54 2.488 . S
Eu41 O55 2.471 . S
Eu41 O56 2.349 . S
Eu41 O59 2.392 . S
Eu41 O60 2.418 . S
Eu41 C70 2.828 . S
C42 O60 1.244 . S
C42 O63 1.265 . S
C43 C44 1.379 . S
C43 C47 1.373 . S
C43 C49 1.505 . S
C44 C43 1.379 . S
C44 C46 1.369 1_554 S
C44 H72 0.930 . S
C45 C47 1.383 1_556 S
C45 C48 1.382 . S
C45 H73 0.930 . S
C46 C44 1.369 1_556 S
C46 C48 1.392 . S
C46 H74 0.930 . S
C47 C43 1.373 . S
C47 C45 1.383 1_554 S
C47 H75 0.931 . S
C48 C45 1.382 . S
C48 C46 1.392 . S
C49 Eu40 2.828 . S
C49 C43 1.505 . S
C49 O61 1.249 . S
C49 O62 1.244 . S
O50 Eu41 2.373 . S
O50 C52 1.258 . S
O51 Eu40 2.392 . S
O51 C52 1.242 . S
C52 O50 1.258 . S
C52 O51 1.242 . S
O53 Eu40 2.418 . S
O53 C57 1.244 . S
O54 Eu41 2.488 . S
O54 C70 1.249 . S
O55 Eu41 2.471 . S
O55 C70 1.244 . S
O56 Eu41 2.349 . S
O56 C57 1.265 . S
C57 O53 1.244 . S
C57 O56 1.265 . S
O58 Eu40 2.373 . S
O58 C71 1.258 . S
O59 Eu41 2.392 . S
O59 C71 1.242 . S
O60 Eu41 2.418 . S
O60 C42 1.244 . S
O61 Eu40 2.488 . S
O61 C49 1.249 . S
O62 Eu40 2.471 . S
O62 C49 1.244 . S
O63 Eu40 2.349 . S
O63 C42 1.265 . S
C64 C65 1.379 . S
C64 C68 1.373 . S
C64 C70 1.505 . S
C65 C64 1.379 . S
C65 C67 1.369 . S
C65 H76 0.930 . S
C66 C68 1.383 . S
C66 C69 1.382 . S
C66 H77 0.930 . S
C67 C65 1.369 . S
C67 C69 1.392 . S
C67 H78 0.930 . S
C68 C64 1.373 . S
C68 C66 1.383 . S
C68 H79 0.931 . S
C69 C66 1.382 . S
C69 C67 1.392 . S
C70 Eu41 2.828 . S
C70 O54 1.249 . S
C70 O55 1.244 . S
C70 C64 1.505 . S
C71 O58 1.258 . S
C71 O59 1.242 . S
H72 C44 0.930 . S
H73 C45 0.930 . S
H74 C46 0.930 . S
H75 C47 0.931 . S
H76 C65 0.930 . S
H77 C66 0.930 . S
H78 C67 0.930 . S
H79 C68 0.931 . S
Eu80 C89 2.828 . S
Eu80 O91 2.392 . S
Eu80 O93 2.418 . S
Eu80 O98 2.373 . S
Eu80 O101 2.488 . S
Eu80 O102 2.471 . S
Eu80 O103 2.349 . S
Eu81 O90 2.373 . S
Eu81 O94 2.488 . S
Eu81 O95 2.471 . S
Eu81 O96 2.349 . S
Eu81 O99 2.392 . S
Eu81 O100 2.418 . S
Eu81 C110 2.828 . S
C82 O100 1.244 . S
C82 O103 1.265 . S
C83 C84 1.379 . S
C83 C87 1.373 . S
C83 C89 1.505 . S
C84 C83 1.379 . S
C84 C86 1.369 1_556 S
C84 H112 0.930 . S
C85 C87 1.383 1_554 S
C85 C88 1.382 . S
C85 H113 0.930 . S
C86 C84 1.369 1_554 S
C86 C88 1.392 . S
C86 H114 0.930 . S
C87 C83 1.373 . S
C87 C85 1.383 1_556 S
C87 H115 0.931 . S
C88 C85 1.382 . S
C88 C86 1.392 . S
C89 Eu80 2.828 . S
C89 C83 1.505 . S
C89 O101 1.249 . S
C89 O102 1.244 . S
O90 Eu81 2.373 . S
O90 C92 1.258 . S
O91 Eu80 2.392 . S
O91 C92 1.242 . S
C92 O90 1.258 . S
C92 O91 1.242 . S
O93 Eu80 2.418 . S
O93 C97 1.244 . S
O94 Eu81 2.488 . S
O94 C110 1.249 . S
O95 Eu81 2.471 . S
O95 C110 1.244 . S
O96 Eu81 2.349 . S
O96 C97 1.265 . S
C97 O93 1.244 . S
C97 O96 1.265 . S
O98 Eu80 2.373 . S
O98 C111 1.258 . S
O99 Eu81 2.392 . S
O99 C111 1.242 . S
O100 Eu81 2.418 . S
O100 C82 1.244 . S
O101 Eu80 2.488 . S
O101 C89 1.249 . S
O102 Eu80 2.471 . S
O102 C89 1.244 . S
O103 Eu80 2.349 . S
O103 C82 1.265 . S
C104 C105 1.379 . S
C104 C108 1.373 . S
C104 C110 1.505 . S
C105 C104 1.379 . S
C105 C107 1.369 . S
C105 H116 0.930 . S
C106 C108 1.383 . S
C106 C109 1.382 . S
C106 H117 0.930 . S
C107 C105 1.369 . S
C107 C109 1.392 . S
C107 H118 0.930 . S
C108 C104 1.373 . S
C108 C106 1.383 . S
C108 H119 0.931 . S
C109 C106 1.382 . S
C109 C107 1.392 . S
C110 Eu81 2.828 . S
C110 O94 1.249 . S
C110 O95 1.244 . S
C110 C104 1.505 . S
C111 O98 1.258 . S
C111 O99 1.242 . S
H112 C84 0.930 . S
H113 C85 0.930 . S
H114 C86 0.930 . S
H115 C87 0.931 . S
H116 C105 0.930 . S
H117 C106 0.930 . S
H118 C107 0.930 . S
H119 C108 0.931 . S
Eu120 C129 2.828 . S
Eu120 O131 2.392 . S
Eu120 O133 2.418 . S
Eu120 O138 2.373 . S
Eu120 O141 2.488 . S
Eu120 O142 2.471 . S
Eu120 O143 2.349 . S
Eu121 O130 2.373 . S
Eu121 O134 2.488 . S
Eu121 O135 2.471 . S
Eu121 O136 2.349 . S
Eu121 O139 2.392 . S
Eu121 O140 2.418 . S
Eu121 C150 2.828 1_556 S
C122 O140 1.244 . S
C122 O143 1.265 . S
C123 C124 1.379 . S
C123 C127 1.373 . S
C123 C129 1.505 . S
C124 C123 1.379 . S
C124 C126 1.369 . S
C124 H152 0.930 . S
C125 C127 1.383 . S
C125 C128 1.382 . S
C125 H153 0.930 . S
C126 C124 1.369 . S
C126 C128 1.392 . S
C126 H154 0.930 . S
C127 C123 1.373 . S
C127 C125 1.383 . S
C127 H155 0.931 . S
C128 C125 1.382 . S
C128 C126 1.392 . S
C129 Eu120 2.828 . S
C129 C123 1.505 . S
C129 O141 1.249 . S
C129 O142 1.244 . S
O130 Eu121 2.373 . S
O130 C132 1.258 . S
O131 Eu120 2.392 . S
O131 C132 1.242 . S
C132 O130 1.258 . S
C132 O131 1.242 . S
O133 Eu120 2.418 . S
O133 C137 1.244 . S
O134 Eu121 2.488 . S
O134 C150 1.249 1_556 S
O135 Eu121 2.471 . S
O135 C150 1.244 1_556 S
O136 Eu121 2.349 . S
O136 C137 1.265 . S
C137 O133 1.244 . S
C137 O136 1.265 . S
O138 Eu120 2.373 . S
O138 C151 1.258 . S
O139 Eu121 2.392 . S
O139 C151 1.242 . S
O140 Eu121 2.418 . S
O140 C122 1.244 . S
O141 Eu120 2.488 . S
O141 C129 1.249 . S
O142 Eu120 2.471 . S
O142 C129 1.244 . S
O143 Eu120 2.349 . S
O143 C122 1.265 . S
C144 C145 1.379 . S
C144 C148 1.373 . S
C144 C150 1.505 . S
C145 C144 1.379 . S
C145 C147 1.369 . S
C145 H156 0.930 . S
C146 C148 1.383 . S
C146 C149 1.382 . S
C146 H157 0.930 . S
C147 C145 1.369 . S
C147 C149 1.392 . S
C147 H158 0.930 . S
C148 C144 1.373 . S
C148 C146 1.383 . S
C148 H159 0.931 . S
C149 C146 1.382 . S
C149 C147 1.392 . S
C150 Eu121 2.828 1_554 S
C150 O134 1.249 1_554 S
C150 O135 1.244 1_554 S
C150 C144 1.505 . S
C151 O138 1.258 . S
C151 O139 1.242 . S
H152 C124 0.930 . S
H153 C125 0.930 . S
H154 C126 0.930 . S
H155 C127 0.931 . S
H156 C145 0.930 . S
H157 C146 0.930 . S
H158 C147 0.930 . S
H159 C148 0.931 . S
Eu160 C169 2.828 . S
Eu160 O171 2.392 . S
Eu160 O173 2.418 . S
Eu160 O178 2.373 . S
Eu160 O181 2.488 . S
Eu160 O182 2.471 . S
Eu160 O183 2.349 . S
Eu161 O170 2.373 . S
Eu161 O174 2.488 . S
Eu161 O175 2.471 . S
Eu161 O176 2.349 . S
Eu161 O179 2.392 . S
Eu161 O180 2.418 . S
Eu161 C190 2.828 1_556 S
C162 O180 1.244 . S
C162 O183 1.265 . S
C163 C164 1.379 . S
C163 C167 1.373 . S
C163 C169 1.505 . S
C164 C163 1.379 . S
C164 C166 1.369 . S
C164 H192 0.930 . S
C165 C167 1.383 . S
C165 C168 1.382 . S
C165 H193 0.930 . S
C166 C164 1.369 . S
C166 C168 1.392 . S
C166 H194 0.930 . S
C167 C163 1.373 . S
C167 C165 1.383 . S
C167 H195 0.931 . S
C168 C165 1.382 . S
C168 C166 1.392 . S
C169 Eu160 2.828 . S
C169 C163 1.505 . S
C169 O181 1.249 . S
C169 O182 1.244 . S
O170 Eu161 2.373 . S
O170 C172 1.258 . S
O171 Eu160 2.392 . S
O171 C172 1.242 . S
C172 O170 1.258 . S
C172 O171 1.242 . S
O173 Eu160 2.418 . S
O173 C177 1.244 . S
O174 Eu161 2.488 . S
O174 C190 1.249 1_556 S
O175 Eu161 2.471 . S
O175 C190 1.244 1_556 S
O176 Eu161 2.349 . S
O176 C177 1.265 . S
C177 O173 1.244 . S
C177 O176 1.265 . S
O178 Eu160 2.373 . S
O178 C191 1.258 . S
O179 Eu161 2.392 . S
O179 C191 1.242 . S
O180 Eu161 2.418 . S
O180 C162 1.244 . S
O181 Eu160 2.488 . S
O181 C169 1.249 . S
O182 Eu160 2.471 . S
O182 C169 1.244 . S
O183 Eu160 2.349 . S
O183 C162 1.265 . S
C184 C185 1.379 . S
C184 C188 1.373 . S
C184 C190 1.505 . S
C185 C184 1.379 . S
C185 C187 1.369 . S
C185 H196 0.930 . S
C186 C188 1.383 . S
C186 C189 1.382 . S
C186 H197 0.930 . S
C187 C185 1.369 . S
C187 C189 1.392 . S
C187 H198 0.930 . S
C188 C184 1.373 . S
C188 C186 1.383 . S
C188 H199 0.931 . S
C189 C186 1.382 . S
C189 C187 1.392 . S
C190 Eu161 2.828 1_554 S
C190 O174 1.249 1_554 S
C190 O175 1.244 1_554 S
C190 C184 1.505 . S
C191 O178 1.258 . S
C191 O179 1.242 . S
H192 C164 0.930 . S
H193 C165 0.930 . S
H194 C166 0.930 . S
H195 C167 0.931 . S
H196 C185 0.930 . S
H197 C186 0.930 . S
H198 C187 0.930 . S
H199 C188 0.931 . S
Eu200 C209 2.828 . S
Eu200 O211 2.392 . S
Eu200 O213 2.418 . S
Eu200 O218 2.373 . S
Eu200 O221 2.488 . S
Eu200 O222 2.471 . S
Eu200 O223 2.349 . S
Eu201 O210 2.373 . S
Eu201 O214 2.488 . S
Eu201 O215 2.471 . S
Eu201 O216 2.349 . S
Eu201 O219 2.392 . S
Eu201 O220 2.418 . S
Eu201 C230 2.828 1_554 S
C202 O220 1.244 . S
C202 O223 1.265 . S
C203 C204 1.379 . S
C203 C207 1.373 . S
C203 C209 1.505 . S
C204 C203 1.379 . S
C204 C206 1.369 . S
C204 H232 0.930 . S
C205 C207 1.383 . S
C205 C208 1.382 . S
C205 H233 0.930 . S
C206 C204 1.369 . S
C206 C208 1.392 . S
C206 H234 0.930 . S
C207 C203 1.373 . S
C207 C205 1.383 . S
C207 H235 0.931 . S
C208 C205 1.382 . S
C208 C206 1.392 . S
C209 Eu200 2.828 . S
C209 C203 1.505 . S
C209 O221 1.249 . S
C209 O222 1.244 . S
O210 Eu201 2.373 . S
O210 C212 1.258 . S
O211 Eu200 2.392 . S
O211 C212 1.242 . S
C212 O210 1.258 . S
C212 O211 1.242 . S
O213 Eu200 2.418 . S
O213 C217 1.244 . S
O214 Eu201 2.488 . S
O214 C230 1.249 1_554 S
O215 Eu201 2.471 . S
O215 C230 1.244 1_554 S
O216 Eu201 2.349 . S
O216 C217 1.265 . S
C217 O213 1.244 . S
C217 O216 1.265 . S
O218 Eu200 2.373 . S
O218 C231 1.258 . S
O219 Eu201 2.392 . S
O219 C231 1.242 . S
O220 Eu201 2.418 . S
O220 C202 1.244 . S
O221 Eu200 2.488 . S
O221 C209 1.249 . S
O222 Eu200 2.471 . S
O222 C209 1.244 . S
O223 Eu200 2.349 . S
O223 C202 1.265 . S
C224 C225 1.379 . S
C224 C228 1.373 . S
C224 C230 1.505 . S
C225 C224 1.379 . S
C225 C227 1.369 . S
C225 H236 0.930 . S
C226 C228 1.383 . S
C226 C229 1.382 . S
C226 H237 0.930 . S
C227 C225 1.369 . S
C227 C229 1.392 . S
C227 H238 0.930 . S
C228 C224 1.373 . S
C228 C226 1.383 . S
C228 H239 0.931 . S
C229 C226 1.382 . S
C229 C227 1.392 . S
C230 Eu201 2.828 1_556 S
C230 O214 1.249 1_556 S
C230 O215 1.244 1_556 S
C230 C224 1.505 . S
C231 O218 1.258 . S
C231 O219 1.242 . S
H232 C204 0.930 . S
H233 C205 0.930 . S
H234 C206 0.930 . S
H235 C207 0.931 . S
H236 C225 0.930 . S
H237 C226 0.930 . S
H238 C227 0.930 . S
H239 C228 0.931 . S
Eu240 C249 2.828 . S
Eu240 O251 2.392 . S
Eu240 O253 2.418 . S
Eu240 O258 2.373 . S
Eu240 O261 2.488 . S
Eu240 O262 2.471 . S
Eu240 O263 2.349 . S
Eu241 O250 2.373 . S
Eu241 O254 2.488 . S
Eu241 O255 2.471 . S
Eu241 O256 2.349 . S
Eu241 O259 2.392 . S
Eu241 O260 2.418 . S
Eu241 C270 2.828 . S
C242 O260 1.244 . S
C242 O263 1.265 . S
C243 C244 1.379 . S
C243 C247 1.373 . S
C243 C249 1.505 . S
C244 C243 1.379 . S
C244 C246 1.369 1_554 S
C244 H272 0.930 . S
C245 C247 1.383 1_556 S
C245 C248 1.382 . S
C245 H273 0.930 . S
C246 C244 1.369 1_556 S
C246 C248 1.392 . S
C246 H274 0.930 . S
C247 C243 1.373 . S
C247 C245 1.383 1_554 S
C247 H275 0.931 . S
C248 C245 1.382 . S
C248 C246 1.392 . S
C249 Eu240 2.828 . S
C249 C243 1.505 . S
C249 O261 1.249 . S
C249 O262 1.244 . S
O250 Eu241 2.373 . S
O250 C252 1.258 . S
O251 Eu240 2.392 . S
O251 C252 1.242 . S
C252 O250 1.258 . S
C252 O251 1.242 . S
O253 Eu240 2.418 . S
O253 C257 1.244 . S
O254 Eu241 2.488 . S
O254 C270 1.249 . S
O255 Eu241 2.471 . S
O255 C270 1.244 . S
O256 Eu241 2.349 . S
O256 C257 1.265 . S
C257 O253 1.244 . S
C257 O256 1.265 . S
O258 Eu240 2.373 . S
O258 C271 1.258 . S
O259 Eu241 2.392 . S
O259 C271 1.242 . S
O260 Eu241 2.418 . S
O260 C242 1.244 . S
O261 Eu240 2.488 . S
O261 C249 1.249 . S
O262 Eu240 2.471 . S
O262 C249 1.244 . S
O263 Eu240 2.349 . S
O263 C242 1.265 . S
C264 C265 1.379 . S
C264 C268 1.373 . S
C264 C270 1.505 . S
C265 C264 1.379 . S
C265 C267 1.369 . S
C265 H276 0.930 . S
C266 C268 1.383 . S
C266 C269 1.382 . S
C266 H277 0.930 . S
C267 C265 1.369 . S
C267 C269 1.392 . S
C267 H278 0.930 . S
C268 C264 1.373 . S
C268 C266 1.383 . S
C268 H279 0.931 . S
C269 C266 1.382 . S
C269 C267 1.392 . S
C270 Eu241 2.828 . S
C270 O254 1.249 . S
C270 O255 1.244 . S
C270 C264 1.505 . S
C271 O258 1.258 . S
C271 O259 1.242 . S
H272 C244 0.930 . S
H273 C245 0.930 . S
H274 C246 0.930 . S
H275 C247 0.931 . S
H276 C265 0.930 . S
H277 C266 0.930 . S
H278 C267 0.930 . S
H279 C268 0.931 . S
Eu280 C289 2.828 . S
Eu280 O291 2.392 . S
Eu280 O293 2.418 . S
Eu280 O298 2.373 . S
Eu280 O301 2.488 . S
Eu280 O302 2.471 . S
Eu280 O303 2.349 . S
Eu281 O290 2.373 . S
Eu281 O294 2.488 . S
Eu281 O295 2.471 . S
Eu281 O296 2.349 . S
Eu281 O299 2.392 . S
Eu281 O300 2.418 . S
Eu281 C310 2.828 . S
C282 O300 1.244 . S
C282 O303 1.265 . S
C283 C284 1.379 . S
C283 C287 1.373 . S
C283 C289 1.505 . S
C284 C283 1.379 . S
C284 C286 1.369 1_556 S
C284 H312 0.930 . S
C285 C287 1.383 1_554 S
C285 C288 1.382 . S
C285 H313 0.930 . S
C286 C284 1.369 1_554 S
C286 C288 1.392 . S
C286 H314 0.930 . S
C287 C283 1.373 . S
C287 C285 1.383 1_556 S
C287 H315 0.931 . S
C288 C285 1.382 . S
C288 C286 1.392 . S
C289 Eu280 2.828 . S
C289 C283 1.505 . S
C289 O301 1.249 . S
C289 O302 1.244 . S
O290 Eu281 2.373 . S
O290 C292 1.258 . S
O291 Eu280 2.392 . S
O291 C292 1.242 . S
C292 O290 1.258 . S
C292 O291 1.242 . S
O293 Eu280 2.418 . S
O293 C297 1.244 . S
O294 Eu281 2.488 . S
O294 C310 1.249 . S
O295 Eu281 2.471 . S
O295 C310 1.244 . S
O296 Eu281 2.349 . S
O296 C297 1.265 . S
C297 O293 1.244 . S
C297 O296 1.265 . S
O298 Eu280 2.373 . S
O298 C311 1.258 . S
O299 Eu281 2.392 . S
O299 C311 1.242 . S
O300 Eu281 2.418 . S
O300 C282 1.244 . S
O301 Eu280 2.488 . S
O301 C289 1.249 . S
O302 Eu280 2.471 . S
O302 C289 1.244 . S
O303 Eu280 2.349 . S
O303 C282 1.265 . S
C304 C305 1.379 . S
C304 C308 1.373 . S
C304 C310 1.505 . S
C305 C304 1.379 . S
C305 C307 1.369 . S
C305 H316 0.930 . S
C306 C308 1.383 . S
C306 C309 1.382 . S
C306 H317 0.930 . S
C307 C305 1.369 . S
C307 C309 1.392 . S
C307 H318 0.930 . S
C308 C304 1.373 . S
C308 C306 1.383 . S
C308 H319 0.931 . S
C309 C306 1.382 . S
C309 C307 1.392 . S
C310 Eu281 2.828 . S
C310 O294 1.249 . S
C310 O295 1.244 . S
C310 C304 1.505 . S
C311 O298 1.258 . S
C311 O299 1.242 . S
H312 C284 0.930 . S
H313 C285 0.930 . S
H314 C286 0.930 . S
H315 C287 0.931 . S
H316 C305 0.930 . S
H317 C306 0.930 . S
H318 C307 0.930 . S
H319 C308 0.931 . S
Eu320 C329 2.828 1_556 S
Eu320 O331 2.392 . S
Eu320 O333 2.418 . S
Eu320 O338 2.373 . S
Eu320 O341 2.488 . S
Eu320 O342 2.471 . S
Eu320 O343 2.349 . S
Eu321 O330 2.373 . S
Eu321 O334 2.488 . S
Eu321 O335 2.471 . S
Eu321 O336 2.349 . S
Eu321 O339 2.392 . S
Eu321 O340 2.418 . S
Eu321 C350 2.828 . S
C322 O340 1.244 . S
C322 O343 1.265 . S
C323 C324 1.379 . S
C323 C327 1.373 . S
C323 C329 1.505 . S
C324 C323 1.379 . S
C324 C326 1.369 . S
C324 H352 0.930 . S
C325 C327 1.383 . S
C325 C328 1.382 . S
C325 H353 0.930 . S
C326 C324 1.369 . S
C326 C328 1.392 . S
C326 H354 0.930 . S
C327 C323 1.373 . S
C327 C325 1.383 . S
C327 H355 0.931 . S
C328 C325 1.382 . S
C328 C326 1.392 . S
C329 Eu320 2.828 1_554 S
C329 C323 1.505 . S
C329 O341 1.249 1_554 S
C329 O342 1.244 1_554 S
O330 Eu321 2.373 . S
O330 C332 1.258 . S
O331 Eu320 2.392 . S
O331 C332 1.242 . S
C332 O330 1.258 . S
C332 O331 1.242 . S
O333 Eu320 2.418 . S
O333 C337 1.244 . S
O334 Eu321 2.488 . S
O334 C350 1.249 . S
O335 Eu321 2.471 . S
O335 C350 1.244 . S
O336 Eu321 2.349 . S
O336 C337 1.265 . S
C337 O333 1.244 . S
C337 O336 1.265 . S
O338 Eu320 2.373 . S
O338 C351 1.258 . S
O339 Eu321 2.392 . S
O339 C351 1.242 . S
O340 Eu321 2.418 . S
O340 C322 1.244 . S
O341 Eu320 2.488 . S
O341 C329 1.249 1_556 S
O342 Eu320 2.471 . S
O342 C329 1.244 1_556 S
O343 Eu320 2.349 . S
O343 C322 1.265 . S
C344 C345 1.379 . S
C344 C348 1.373 . S
C344 C350 1.505 . S
C345 C344 1.379 . S
C345 C347 1.369 . S
C345 H356 0.930 . S
C346 C348 1.383 . S
C346 C349 1.382 . S
C346 H357 0.930 . S
C347 C345 1.369 . S
C347 C349 1.392 . S
C347 H358 0.930 . S
C348 C344 1.373 . S
C348 C346 1.383 . S
C348 H359 0.931 . S
C349 C346 1.382 . S
C349 C347 1.392 . S
C350 Eu321 2.828 . S
C350 O334 1.249 . S
C350 O335 1.244 . S
C350 C344 1.505 . S
C351 O338 1.258 . S
C351 O339 1.242 . S
H352 C324 0.930 . S
H353 C325 0.930 . S
H354 C326 0.930 . S
H355 C327 0.931 . S
H356 C345 0.930 . S
H357 C346 0.930 . S
H358 C347 0.930 . S
H359 C348 0.931 . S
Eu360 C369 2.828 . S
Eu360 O371 2.392 . S
Eu360 O373 2.418 . S
Eu360 O378 2.373 . S
Eu360 O381 2.488 . S
Eu360 O382 2.471 . S
Eu360 O383 2.349 . S
Eu361 O370 2.373 . S
Eu361 O374 2.488 . S
Eu361 O375 2.471 . S
Eu361 O376 2.349 . S
Eu361 O379 2.392 . S
Eu361 O380 2.418 . S
Eu361 C390 2.828 . S
C362 O380 1.244 . S
C362 O383 1.265 . S
C363 C364 1.379 . S
C363 C367 1.373 . S
C363 C369 1.505 . S
C364 C363 1.379 . S
C364 C366 1.369 . S
C364 H392 0.930 . S
C365 C367 1.383 . S
C365 C368 1.382 . S
C365 H393 0.930 . S
C366 C364 1.369 . S
C366 C368 1.392 . S
C366 H394 0.930 . S
C367 C363 1.373 . S
C367 C365 1.383 . S
C367 H395 0.931 . S
C368 C365 1.382 . S
C368 C366 1.392 . S
C369 Eu360 2.828 . S
C369 C363 1.505 . S
C369 O381 1.249 . S
C369 O382 1.244 . S
O370 Eu361 2.373 . S
O370 C372 1.258 . S
O371 Eu360 2.392 . S
O371 C372 1.242 . S
C372 O370 1.258 . S
C372 O371 1.242 . S
O373 Eu360 2.418 . S
O373 C377 1.244 . S
O374 Eu361 2.488 . S
O374 C390 1.249 . S
O375 Eu361 2.471 . S
O375 C390 1.244 . S
O376 Eu361 2.349 . S
O376 C377 1.265 . S
C377 O373 1.244 . S
C377 O376 1.265 . S
O378 Eu360 2.373 . S
O378 C391 1.258 . S
O379 Eu361 2.392 . S
O379 C391 1.242 . S
O380 Eu361 2.418 . S
O380 C362 1.244 . S
O381 Eu360 2.488 . S
O381 C369 1.249 . S
O382 Eu360 2.471 . S
O382 C369 1.244 . S
O383 Eu360 2.349 . S
O383 C362 1.265 . S
C384 C385 1.379 . S
C384 C388 1.373 . S
C384 C390 1.505 . S
C385 C384 1.379 . S
C385 C387 1.369 1_556 S
C385 H396 0.930 . S
C386 C388 1.383 1_554 S
C386 C389 1.382 . S
C386 H397 0.930 . S
C387 C385 1.369 1_554 S
C387 C389 1.392 . S
C387 H398 0.930 . S
C388 C384 1.373 . S
C388 C386 1.383 1_556 S
C388 H399 0.931 . S
C389 C386 1.382 . S
C389 C387 1.392 . S
C390 Eu361 2.828 . S
C390 O374 1.249 . S
C390 O375 1.244 . S
C390 C384 1.505 . S
C391 O378 1.258 . S
C391 O379 1.242 . S
H392 C364 0.930 . S
H393 C365 0.930 . S
H394 C366 0.930 . S
H395 C367 0.931 . S
H396 C385 0.930 . S
H397 C386 0.930 . S
H398 C387 0.930 . S
H399 C388 0.931 . S
Eu400 C409 2.828 . S
Eu400 O411 2.392 . S
Eu400 O413 2.418 . S
Eu400 O418 2.373 . S
Eu400 O421 2.488 . S
Eu400 O422 2.471 . S
Eu400 O423 2.349 . S
Eu401 O410 2.373 . S
Eu401 O414 2.488 . S
Eu401 O415 2.471 . S
Eu401 O416 2.349 . S
Eu401 O419 2.392 . S
Eu401 O420 2.418 . S
Eu401 C430 2.828 . S
C402 O420 1.244 . S
C402 O423 1.265 . S
C403 C404 1.379 . S
C403 C407 1.373 . S
C403 C409 1.505 . S
C404 C403 1.379 . S
C404 C406 1.369 . S
C404 H432 0.930 . S
C405 C407 1.383 . S
C405 C408 1.382 . S
C405 H433 0.930 . S
C406 C404 1.369 . S
C406 C408 1.392 . S
C406 H434 0.930 . S
C407 C403 1.373 . S
C407 C405 1.383 . S
C407 H435 0.931 . S
C408 C405 1.382 . S
C408 C406 1.392 . S
C409 Eu400 2.828 . S
C409 C403 1.505 . S
C409 O421 1.249 . S
C409 O422 1.244 . S
O410 Eu401 2.373 . S
O410 C412 1.258 . S
O411 Eu400 2.392 . S
O411 C412 1.242 . S
C412 O410 1.258 . S
C412 O411 1.242 . S
O413 Eu400 2.418 . S
O413 C417 1.244 . S
O414 Eu401 2.488 . S
O414 C430 1.249 . S
O415 Eu401 2.471 . S
O415 C430 1.244 . S
O416 Eu401 2.349 . S
O416 C417 1.265 . S
C417 O413 1.244 . S
C417 O416 1.265 . S
O418 Eu400 2.373 . S
O418 C431 1.258 . S
O419 Eu401 2.392 . S
O419 C431 1.242 . S
O420 Eu401 2.418 . S
O420 C402 1.244 . S
O421 Eu400 2.488 . S
O421 C409 1.249 . S
O422 Eu400 2.471 . S
O422 C409 1.244 . S
O423 Eu400 2.349 . S
O423 C402 1.265 . S
C424 C425 1.379 . S
C424 C428 1.373 . S
C424 C430 1.505 . S
C425 C424 1.379 . S
C425 C427 1.369 1_554 S
C425 H436 0.930 . S
C426 C428 1.383 1_556 S
C426 C429 1.382 . S
C426 H437 0.930 . S
C427 C425 1.369 1_556 S
C427 C429 1.392 . S
C427 H438 0.930 . S
C428 C424 1.373 . S
C428 C426 1.383 1_554 S
C428 H439 0.931 . S
C429 C426 1.382 . S
C429 C427 1.392 . S
C430 Eu401 2.828 . S
C430 O414 1.249 . S
C430 O415 1.244 . S
C430 C424 1.505 . S
C431 O418 1.258 . S
C431 O419 1.242 . S
H432 C404 0.930 . S
H433 C405 0.930 . S
H434 C406 0.930 . S
H435 C407 0.931 . S
H436 C425 0.930 . S
H437 C426 0.930 . S
H438 C427 0.930 . S
H439 C428 0.931 . S
Eu440 C449 2.828 1_554 S
Eu440 O451 2.392 . S
Eu440 O453 2.418 . S
Eu440 O458 2.373 . S
Eu440 O461 2.488 . S
Eu440 O462 2.471 . S
Eu440 O463 2.349 . S
Eu441 O450 2.373 . S
Eu441 O454 2.488 . S
Eu441 O455 2.471 . S
Eu441 O456 2.349 . S
Eu441 O459 2.392 . S
Eu441 O460 2.418 . S
Eu441 C470 2.828 . S
C442 O460 1.244 . S
C442 O463 1.265 . S
C443 C444 1.379 . S
C443 C447 1.373 . S
C443 C449 1.505 . S
C444 C443 1.379 . S
C444 C446 1.369 . S
C444 H472 0.930 . S
C445 C447 1.383 . S
C445 C448 1.382 . S
C445 H473 0.930 . S
C446 C444 1.369 . S
C446 C448 1.392 . S
C446 H474 0.930 . S
C447 C443 1.373 . S
C447 C445 1.383 . S
C447 H475 0.931 . S
C448 C445 1.382 . S
C448 C446 1.392 . S
C449 Eu440 2.828 1_556 S
C449 C443 1.505 . S
C449 O461 1.249 1_556 S
C449 O462 1.244 1_556 S
O450 Eu441 2.373 . S
O450 C452 1.258 . S
O451 Eu440 2.392 . S
O451 C452 1.242 . S
C452 O450 1.258 . S
C452 O451 1.242 . S
O453 Eu440 2.418 . S
O453 C457 1.244 . S
O454 Eu441 2.488 . S
O454 C470 1.249 . S
O455 Eu441 2.471 . S
O455 C470 1.244 . S
O456 Eu441 2.349 . S
O456 C457 1.265 . S
C457 O453 1.244 . S
C457 O456 1.265 . S
O458 Eu440 2.373 . S
O458 C471 1.258 . S
O459 Eu441 2.392 . S
O459 C471 1.242 . S
O460 Eu441 2.418 . S
O460 C442 1.244 . S
O461 Eu440 2.488 . S
O461 C449 1.249 1_554 S
O462 Eu440 2.471 . S
O462 C449 1.244 1_554 S
O463 Eu440 2.349 . S
O463 C442 1.265 . S
C464 C465 1.379 . S
C464 C468 1.373 . S
C464 C470 1.505 . S
C465 C464 1.379 . S
C465 C467 1.369 . S
C465 H476 0.930 . S
C466 C468 1.383 . S
C466 C469 1.382 . S
C466 H477 0.930 . S
C467 C465 1.369 . S
C467 C469 1.392 . S
C467 H478 0.930 . S
C468 C464 1.373 . S
C468 C466 1.383 . S
C468 H479 0.931 . S
C469 C466 1.382 . S
C469 C467 1.392 . S
C470 Eu441 2.828 . S
C470 O454 1.249 . S
C470 O455 1.244 . S
C470 C464 1.505 . S
C471 O458 1.258 . S
C471 O459 1.242 . S
H472 C444 0.930 . S
H473 C445 0.930 . S
H474 C446 0.930 . S
H475 C447 0.931 . S
H476 C465 0.930 . S
H477 C466 0.930 . S
H478 C467 0.930 . S
H479 C468 0.931 . S
Eu480 C489 2.828 1_554 S
Eu480 O491 2.392 . S
Eu480 O493 2.418 . S
Eu480 O498 2.373 . S
Eu480 O501 2.488 . S
Eu480 O502 2.471 . S
Eu480 O503 2.349 . S
Eu481 O490 2.373 . S
Eu481 O494 2.488 . S
Eu481 O495 2.471 . S
Eu481 O496 2.349 . S
Eu481 O499 2.392 . S
Eu481 O500 2.418 . S
Eu481 C510 2.828 . S
C482 O500 1.244 . S
C482 O503 1.265 . S
C483 C484 1.379 . S
C483 C487 1.373 . S
C483 C489 1.505 . S
C484 C483 1.379 . S
C484 C486 1.369 . S
C484 H512 0.930 . S
C485 C487 1.383 . S
C485 C488 1.382 . S
C485 H513 0.930 . S
C486 C484 1.369 . S
C486 C488 1.392 . S
C486 H514 0.930 . S
C487 C483 1.373 . S
C487 C485 1.383 . S
C487 H515 0.931 . S
C488 C485 1.382 . S
C488 C486 1.392 . S
C489 Eu480 2.828 1_556 S
C489 C483 1.505 . S
C489 O501 1.249 1_556 S
C489 O502 1.244 1_556 S
O490 Eu481 2.373 . S
O490 C492 1.258 . S
O491 Eu480 2.392 . S
O491 C492 1.242 . S
C492 O490 1.258 . S
C492 O491 1.242 . S
O493 Eu480 2.418 . S
O493 C497 1.244 . S
O494 Eu481 2.488 . S
O494 C510 1.249 . S
O495 Eu481 2.471 . S
O495 C510 1.244 . S
O496 Eu481 2.349 . S
O496 C497 1.265 . S
C497 O493 1.244 . S
C497 O496 1.265 . S
O498 Eu480 2.373 . S
O498 C511 1.258 . S
O499 Eu481 2.392 . S
O499 C511 1.242 . S
O500 Eu481 2.418 . S
O500 C482 1.244 . S
O501 Eu480 2.488 . S
O501 C489 1.249 1_554 S
O502 Eu480 2.471 . S
O502 C489 1.244 1_554 S
O503 Eu480 2.349 . S
O503 C482 1.265 . S
C504 C505 1.379 . S
C504 C508 1.373 . S
C504 C510 1.505 . S
C505 C504 1.379 . S
C505 C507 1.369 . S
C505 H516 0.930 . S
C506 C508 1.383 . S
C506 C509 1.382 . S
C506 H517 0.930 . S
C507 C505 1.369 . S
C507 C509 1.392 . S
C507 H518 0.930 . S
C508 C504 1.373 . S
C508 C506 1.383 . S
C508 H519 0.931 . S
C509 C506 1.382 . S
C509 C507 1.392 . S
C510 Eu481 2.828 . S
C510 O494 1.249 . S
C510 O495 1.244 . S
C510 C504 1.505 . S
C511 O498 1.258 . S
C511 O499 1.242 . S
H512 C484 0.930 . S
H513 C485 0.930 . S
H514 C486 0.930 . S
H515 C487 0.931 . S
H516 C505 0.930 . S
H517 C506 0.930 . S
H518 C507 0.930 . S
H519 C508 0.931 . S
Eu520 C529 2.828 1_556 S
Eu520 O531 2.392 . S
Eu520 O533 2.418 . S
Eu520 O538 2.373 . S
Eu520 O541 2.488 . S
Eu520 O542 2.471 . S
Eu520 O543 2.349 . S
Eu521 O530 2.373 . S
Eu521 O534 2.488 . S
Eu521 O535 2.471 . S
Eu521 O536 2.349 . S
Eu521 O539 2.392 . S
Eu521 O540 2.418 . S
Eu521 C550 2.828 . S
C522 O540 1.244 . S
C522 O543 1.265 . S
C523 C524 1.379 . S
C523 C527 1.373 . S
C523 C529 1.505 . S
C524 C523 1.379 . S
C524 C526 1.369 . S
C524 H552 0.930 . S
C525 C527 1.383 . S
C525 C528 1.382 . S
C525 H553 0.930 . S
C526 C524 1.369 . S
C526 C528 1.392 . S
C526 H554 0.930 . S
C527 C523 1.373 . S
C527 C525 1.383 . S
C527 H555 0.931 . S
C528 C525 1.382 . S
C528 C526 1.392 . S
C529 Eu520 2.828 1_554 S
C529 C523 1.505 . S
C529 O541 1.249 1_554 S
C529 O542 1.244 1_554 S
O530 Eu521 2.373 . S
O530 C532 1.258 . S
O531 Eu520 2.392 . S
O531 C532 1.242 . S
C532 O530 1.258 . S
C532 O531 1.242 . S
O533 Eu520 2.418 . S
O533 C537 1.244 . S
O534 Eu521 2.488 . S
O534 C550 1.249 . S
O535 Eu521 2.471 . S
O535 C550 1.244 . S
O536 Eu521 2.349 . S
O536 C537 1.265 . S
C537 O533 1.244 . S
C537 O536 1.265 . S
O538 Eu520 2.373 . S
O538 C551 1.258 . S
O539 Eu521 2.392 . S
O539 C551 1.242 . S
O540 Eu521 2.418 . S
O540 C522 1.244 . S
O541 Eu520 2.488 . S
O541 C529 1.249 1_556 S
O542 Eu520 2.471 . S
O542 C529 1.244 1_556 S
O543 Eu520 2.349 . S
O543 C522 1.265 . S
C544 C545 1.379 . S
C544 C548 1.373 . S
C544 C550 1.505 . S
C545 C544 1.379 . S
C545 C547 1.369 . S
C545 H556 0.930 . S
C546 C548 1.383 . S
C546 C549 1.382 . S
C546 H557 0.930 . S
C547 C545 1.369 . S
C547 C549 1.392 . S
C547 H558 0.930 . S
C548 C544 1.373 . S
C548 C546 1.383 . S
C548 H559 0.931 . S
C549 C546 1.382 . S
C549 C547 1.392 . S
C550 Eu521 2.828 . S
C550 O534 1.249 . S
C550 O535 1.244 . S
C550 C544 1.505 . S
C551 O538 1.258 . S
C551 O539 1.242 . S
H552 C524 0.930 . S
H553 C525 0.930 . S
H554 C526 0.930 . S
H555 C527 0.931 . S
H556 C545 0.930 . S
H557 C546 0.930 . S
H558 C547 0.930 . S
H559 C548 0.931 . S
Eu560 C569 2.828 . S
Eu560 O571 2.392 . S
Eu560 O573 2.418 . S
Eu560 O578 2.373 . S
Eu560 O581 2.488 . S
Eu560 O582 2.471 . S
Eu560 O583 2.349 . S
Eu561 O570 2.373 . S
Eu561 O574 2.488 . S
Eu561 O575 2.471 . S
Eu561 O576 2.349 . S
Eu561 O579 2.392 . S
Eu561 O580 2.418 . S
Eu561 C590 2.828 . S
C562 O580 1.244 . S
C562 O583 1.265 . S
C563 C564 1.379 . S
C563 C567 1.373 . S
C563 C569 1.505 . S
C564 C563 1.379 . S
C564 C566 1.369 . S
C564 H592 0.930 . S
C565 C567 1.383 . S
C565 C568 1.382 . S
C565 H593 0.930 . S
C566 C564 1.369 . S
C566 C568 1.392 . S
C566 H594 0.930 . S
C567 C563 1.373 . S
C567 C565 1.383 . S
C567 H595 0.931 . S
C568 C565 1.382 . S
C568 C566 1.392 . S
C569 Eu560 2.828 . S
C569 C563 1.505 . S
C569 O581 1.249 . S
C569 O582 1.244 . S
O570 Eu561 2.373 . S
O570 C572 1.258 . S
O571 Eu560 2.392 . S
O571 C572 1.242 . S
C572 O570 1.258 . S
C572 O571 1.242 . S
O573 Eu560 2.418 . S
O573 C577 1.244 . S
O574 Eu561 2.488 . S
O574 C590 1.249 . S
O575 Eu561 2.471 . S
O575 C590 1.244 . S
O576 Eu561 2.349 . S
O576 C577 1.265 . S
C577 O573 1.244 . S
C577 O576 1.265 . S
O578 Eu560 2.373 . S
O578 C591 1.258 . S
O579 Eu561 2.392 . S
O579 C591 1.242 . S
O580 Eu561 2.418 . S
O580 C562 1.244 . S
O581 Eu560 2.488 . S
O581 C569 1.249 . S
O582 Eu560 2.471 . S
O582 C569 1.244 . S
O583 Eu560 2.349 . S
O583 C562 1.265 . S
C584 C585 1.379 . S
C584 C588 1.373 . S
C584 C590 1.505 . S
C585 C584 1.379 . S
C585 C587 1.369 1_556 S
C585 H596 0.930 . S
C586 C588 1.383 1_554 S
C586 C589 1.382 . S
C586 H597 0.930 . S
C587 C585 1.369 1_554 S
C587 C589 1.392 . S
C587 H598 0.930 . S
C588 C584 1.373 . S
C588 C586 1.383 1_556 S
C588 H599 0.931 . S
C589 C586 1.382 . S
C589 C587 1.392 . S
C590 Eu561 2.828 . S
C590 O574 1.249 . S
C590 O575 1.244 . S
C590 C584 1.505 . S
C591 O578 1.258 . S
C591 O579 1.242 . S
H592 C564 0.930 . S
H593 C565 0.930 . S
H594 C566 0.930 . S
H595 C567 0.931 . S
H596 C585 0.930 . S
H597 C586 0.930 . S
H598 C587 0.930 . S
H599 C588 0.931 . S
Eu600 C609 2.828 . S
Eu600 O611 2.392 . S
Eu600 O613 2.418 . S
Eu600 O618 2.373 . S
Eu600 O621 2.488 . S
Eu600 O622 2.471 . S
Eu600 O623 2.349 . S
Eu601 O610 2.373 . S
Eu601 O614 2.488 . S
Eu601 O615 2.471 . S
Eu601 O616 2.349 . S
Eu601 O619 2.392 . S
Eu601 O620 2.418 . S
Eu601 C630 2.828 . S
C602 O620 1.244 . S
C602 O623 1.265 . S
C603 C604 1.379 . S
C603 C607 1.373 . S
C603 C609 1.505 . S
C604 C603 1.379 . S
C604 C606 1.369 . S
C604 H632 0.930 . S
C605 C607 1.383 . S
C605 C608 1.382 . S
C605 H633 0.930 . S
C606 C604 1.369 . S
C606 C608 1.392 . S
C606 H634 0.930 . S
C607 C603 1.373 . S
C607 C605 1.383 . S
C607 H635 0.931 . S
C608 C605 1.382 . S
C608 C606 1.392 . S
C609 Eu600 2.828 . S
C609 C603 1.505 . S
C609 O621 1.249 . S
C609 O622 1.244 . S
O610 Eu601 2.373 . S
O610 C612 1.258 . S
O611 Eu600 2.392 . S
O611 C612 1.242 . S
C612 O610 1.258 . S
C612 O611 1.242 . S
O613 Eu600 2.418 . S
O613 C617 1.244 . S
O614 Eu601 2.488 . S
O614 C630 1.249 . S
O615 Eu601 2.471 . S
O615 C630 1.244 . S
O616 Eu601 2.349 . S
O616 C617 1.265 . S
C617 O613 1.244 . S
C617 O616 1.265 . S
O618 Eu600 2.373 . S
O618 C631 1.258 . S
O619 Eu601 2.392 . S
O619 C631 1.242 . S
O620 Eu601 2.418 . S
O620 C602 1.244 . S
O621 Eu600 2.488 . S
O621 C609 1.249 . S
O622 Eu600 2.471 . S
O622 C609 1.244 . S
O623 Eu600 2.349 . S
O623 C602 1.265 . S
C624 C625 1.379 . S
C624 C628 1.373 . S
C624 C630 1.505 . S
C625 C624 1.379 . S
C625 C627 1.369 1_554 S
C625 H636 0.930 . S
C626 C628 1.383 1_556 S
C626 C629 1.382 . S
C626 H637 0.930 . S
C627 C625 1.369 1_556 S
C627 C629 1.392 . S
C627 H638 0.930 . S
C628 C624 1.373 . S
C628 C626 1.383 1_554 S
C628 H639 0.931 . S
C629 C626 1.382 . S
C629 C627 1.392 . S
C630 Eu601 2.828 . S
C630 O614 1.249 . S
C630 O615 1.244 . S
C630 C624 1.505 . S
C631 O618 1.258 . S
C631 O619 1.242 . S
H632 C604 0.930 . S
H633 C605 0.930 . S
H634 C606 0.930 . S
H635 C607 0.931 . S
H636 C625 0.930 . S
H637 C626 0.930 . S
H638 C627 0.930 . S
H639 C628 0.931 . S
C640 C641 1.369 . S
C640 C642 1.419 . S
C640 H644 0.930 . S
C641 C640 1.369 . S
C641 C650 1.429 . S
C642 C640 1.419 . S
C642 C643 1.363 . S
C642 H645 0.929 . S
C643 C642 1.363 . S
C643 C649 1.428 . S
H644 C640 0.930 . S
H645 C642 0.929 . S
S646 N647 1.613 . S
S646 N648 1.610 . S
N647 S646 1.613 . S
N647 C650 1.350 . S
N648 S646 1.610 . S
N648 C649 1.351 . S
C649 C643 1.428 . S
C649 N648 1.351 . S
C649 C650 1.434 . S
C650 C641 1.429 . S
C650 N647 1.350 . S
C650 C649 1.434 . S
C651 C652 1.369 . S
C651 C653 1.419 . S
C651 H655 0.930 . S
C652 C651 1.369 . S
C652 C661 1.429 . S
C653 C651 1.419 . S
C653 C654 1.363 . S
C653 H656 0.929 . S
C654 C653 1.363 . S
C654 C660 1.428 . S
H655 C651 0.930 . S
H656 C653 0.929 . S
S657 N658 1.613 . S
S657 N659 1.610 . S
N658 S657 1.613 . S
N658 C661 1.350 . S
N659 S657 1.610 . S
N659 C660 1.351 . S
C660 C654 1.428 . S
C660 N659 1.351 . S
C660 C661 1.434 . S
C661 C652 1.429 . S
C661 N658 1.350 . S
C661 C660 1.434 . S
C662 C663 1.369 . S
C662 C664 1.419 . S
C662 H666 0.930 . S
C663 C662 1.369 . S
C663 C672 1.429 . S
C664 C662 1.419 . S
C664 C665 1.363 . S
C664 H667 0.929 . S
C665 C664 1.363 . S
C665 C671 1.428 . S
H666 C662 0.930 . S
H667 C664 0.929 . S
S668 N669 1.613 . S
S668 N670 1.610 . S
N669 S668 1.613 . S
N669 C672 1.350 . S
N670 S668 1.610 . S
N670 C671 1.351 . S
C671 C665 1.428 . S
C671 N670 1.351 . S
C671 C672 1.434 . S
C672 C663 1.429 . S
C672 N669 1.350 . S
C672 C671 1.434 . S
C673 C674 1.369 . S
C673 C675 1.419 . S
C673 H677 0.930 . S
C674 C673 1.369 . S
C674 C683 1.429 . S
C675 C673 1.419 . S
C675 C676 1.363 . S
C675 H678 0.929 . S
C676 C675 1.363 . S
C676 C682 1.428 . S
H677 C673 0.930 . S
H678 C675 0.929 . S
S679 N680 1.613 . S
S679 N681 1.610 . S
N680 S679 1.613 . S
N680 C683 1.350 . S
N681 S679 1.610 . S
N681 C682 1.351 . S
C682 C676 1.428 . S
C682 N681 1.351 . S
C682 C683 1.434 . S
C683 C674 1.429 . S
C683 N680 1.350 . S
C683 C682 1.434 . S
C684 C685 1.369 . S
C684 C686 1.419 . S
C684 H688 0.930 . S
C685 C684 1.369 . S
C685 C694 1.429 . S
C686 C684 1.419 . S
C686 C687 1.363 . S
C686 H689 0.929 . S
C687 C686 1.363 . S
C687 C693 1.428 . S
H688 C684 0.930 . S
H689 C686 0.929 . S
S690 N691 1.613 . S
S690 N692 1.610 . S
N691 S690 1.613 . S
N691 C694 1.350 . S
N692 S690 1.610 . S
N692 C693 1.351 . S
C693 C687 1.428 . S
C693 N692 1.351 . S
C693 C694 1.434 . S
C694 C685 1.429 . S
C694 N691 1.350 . S
C694 C693 1.434 . S
C695 C696 1.369 . S
C695 C697 1.419 . S
C695 H699 0.930 . S
C696 C695 1.369 . S
C696 C705 1.429 . S
C697 C695 1.419 . S
C697 C698 1.363 . S
C697 H700 0.929 . S
C698 C697 1.363 . S
C698 C704 1.428 . S
H699 C695 0.930 . S
H700 C697 0.929 . S
S701 N702 1.613 . S
S701 N703 1.610 . S
N702 S701 1.613 . S
N702 C705 1.350 . S
N703 S701 1.610 . S
N703 C704 1.351 . S
C704 C698 1.428 . S
C704 N703 1.351 . S
C704 C705 1.434 . S
C705 C696 1.429 . S
C705 N702 1.350 . S
C705 C704 1.434 . S
C706 C707 1.369 . S
C706 C708 1.419 . S
C706 H710 0.930 . S
C707 C706 1.369 . S
C707 C716 1.429 . S
C708 C706 1.419 . S
C708 C709 1.363 . S
C708 H711 0.929 . S
C709 C708 1.363 . S
C709 C715 1.428 . S
H710 C706 0.930 . S
H711 C708 0.929 . S
S712 N713 1.613 . S
S712 N714 1.610 . S
N713 S712 1.613 . S
N713 C716 1.350 . S
N714 S712 1.610 . S
N714 C715 1.351 . S
C715 C709 1.428 . S
C715 N714 1.351 . S
C715 C716 1.434 . S
C716 C707 1.429 . S
C716 N713 1.350 . S
C716 C715 1.434 . S
C717 C718 1.369 . S
C717 C719 1.419 . S
C717 H721 0.930 . S
C718 C717 1.369 . S
C718 C727 1.429 . S
C719 C717 1.419 . S
C719 C720 1.363 . S
C719 H722 0.929 . S
C720 C719 1.363 . S
C720 C726 1.428 . S
H721 C717 0.930 . S
H722 C719 0.929 . S
S723 N724 1.613 . S
S723 N725 1.610 . S
N724 S723 1.613 . S
N724 C727 1.350 . S
N725 S723 1.610 . S
N725 C726 1.351 . S
C726 C720 1.428 . S
C726 N725 1.351 . S
C726 C727 1.434 . S
C727 C718 1.429 . S
C727 N724 1.350 . S
C727 C726 1.434 . S
C728 C729 1.369 . S
C728 C730 1.419 . S
C728 H732 0.930 . S
C729 C728 1.369 . S
C729 C738 1.429 . S
C730 C728 1.419 . S
C730 C731 1.363 . S
C730 H733 0.929 . S
C731 C730 1.363 . S
C731 C737 1.428 . S
H732 C728 0.930 . S
H733 C730 0.929 . S
S734 N735 1.613 . S
S734 N736 1.610 . S
N735 S734 1.613 . S
N735 C738 1.350 . S
N736 S734 1.610 . S
N736 C737 1.351 . S
C737 C731 1.428 . S
C737 N736 1.351 . S
C737 C738 1.434 . S
C738 C729 1.429 . S
C738 N735 1.350 . S
C738 C737 1.434 . S
C739 C740 1.369 . S
C739 C741 1.419 . S
C739 H743 0.930 . S
C740 C739 1.369 . S
C740 C749 1.429 . S
C741 C739 1.419 . S
C741 C742 1.363 . S
C741 H744 0.929 . S
C742 C741 1.363 . S
C742 C748 1.428 . S
H743 C739 0.930 . S
H744 C741 0.929 . S
S745 N746 1.613 . S
S745 N747 1.610 . S
N746 S745 1.613 . S
N746 C749 1.350 . S
N747 S745 1.610 . S
N747 C748 1.351 . S
C748 C742 1.428 . S
C748 N747 1.351 . S
C748 C749 1.434 . S
C749 C740 1.429 . S
C749 N746 1.350 . S
C749 C748 1.434 . S
C750 C751 1.369 . S
C750 C752 1.419 . S
C750 H754 0.930 . S
C751 C750 1.369 . S
C751 C760 1.429 . S
C752 C750 1.419 . S
C752 C753 1.363 . S
C752 H755 0.929 . S
C753 C752 1.363 . S
C753 C759 1.428 . S
H754 C750 0.930 . S
H755 C752 0.929 . S
S756 N757 1.613 . S
S756 N758 1.610 . S
N757 S756 1.613 . S
N757 C760 1.350 . S
N758 S756 1.610 . S
N758 C759 1.351 . S
C759 C753 1.428 . S
C759 N758 1.351 . S
C759 C760 1.434 . S
C760 C751 1.429 . S
C760 N757 1.350 . S
C760 C759 1.434 . S
C761 C762 1.369 . S
C761 C763 1.419 . S
C761 H765 0.930 . S
C762 C761 1.369 . S
C762 C771 1.429 . S
C763 C761 1.419 . S
C763 C764 1.363 . S
C763 H766 0.929 . S
C764 C763 1.363 . S
C764 C770 1.428 . S
H765 C761 0.930 . S
H766 C763 0.929 . S
S767 N768 1.613 . S
S767 N769 1.610 . S
N768 S767 1.613 . S
N768 C771 1.350 . S
N769 S767 1.610 . S
N769 C770 1.351 . S
C770 C764 1.428 . S
C770 N769 1.351 . S
C770 C771 1.434 . S
C771 C762 1.429 . S
C771 N768 1.350 . S
C771 C770 1.434 . S
C772 C773 1.369 . S
C772 C774 1.419 . S
C772 H776 0.930 . S
C773 C772 1.369 . S
C773 C782 1.429 . S
C774 C772 1.419 . S
C774 C775 1.363 . S
C774 H777 0.929 . S
C775 C774 1.363 . S
C775 C781 1.428 . S
H776 C772 0.930 . S
H777 C774 0.929 . S
S778 N779 1.613 . S
S778 N780 1.610 . S
N779 S778 1.613 . S
N779 C782 1.350 . S
N780 S778 1.610 . S
N780 C781 1.351 . S
C781 C775 1.428 . S
C781 N780 1.351 . S
C781 C782 1.434 . S
C782 C773 1.429 . S
C782 N779 1.350 . S
C782 C781 1.434 . S
C783 C784 1.369 . S
C783 C785 1.419 . S
C783 H787 0.930 . S
C784 C783 1.369 . S
C784 C793 1.429 . S
C785 C783 1.419 . S
C785 C786 1.363 . S
C785 H788 0.929 . S
C786 C785 1.363 . S
C786 C792 1.428 . S
H787 C783 0.930 . S
H788 C785 0.929 . S
S789 N790 1.613 . S
S789 N791 1.610 . S
N790 S789 1.613 . S
N790 C793 1.350 . S
N791 S789 1.610 . S
N791 C792 1.351 . S
C792 C786 1.428 . S
C792 N791 1.351 . S
C792 C793 1.434 . S
C793 C784 1.429 . S
C793 N790 1.350 . S
C793 C792 1.434 . S
C794 C795 1.369 . S
C794 C796 1.419 . S
C794 H798 0.930 . S
C795 C794 1.369 . S
C795 C804 1.429 . S
C796 C794 1.419 . S
C796 C797 1.363 . S
C796 H799 0.929 . S
C797 C796 1.363 . S
C797 C803 1.428 . S
H798 C794 0.930 . S
H799 C796 0.929 . S
S800 N801 1.613 . S
S800 N802 1.610 . S
N801 S800 1.613 . S
N801 C804 1.350 . S
N802 S800 1.610 . S
N802 C803 1.351 . S
C803 C797 1.428 . S
C803 N802 1.351 . S
C803 C804 1.434 . S
C804 C795 1.429 . S
C804 N801 1.350 . S
C804 C803 1.434 . S
C805 C806 1.369 . S
C805 C807 1.419 . S
C805 H809 0.930 . S
C806 C805 1.369 . S
C806 C815 1.429 . S
C807 C805 1.419 . S
C807 C808 1.363 . S
C807 H810 0.929 . S
C808 C807 1.363 . S
C808 C814 1.428 . S
H809 C805 0.930 . S
H810 C807 0.929 . S
S811 N812 1.613 . S
S811 N813 1.610 . S
N812 S811 1.613 . S
N812 C815 1.350 . S
N813 S811 1.610 . S
N813 C814 1.351 . S
C814 C808 1.428 . S
C814 N813 1.351 . S
C814 C815 1.434 . S
C815 C806 1.429 . S
C815 N812 1.350 . S
C815 C814 1.434 . S
C816 C817 1.369 . S
C816 C818 1.419 . S
C816 H820 0.930 . S
C817 C816 1.369 . S
C817 C826 1.429 . S
C818 C816 1.419 . S
C818 C819 1.363 . S
C818 H821 0.929 . S
C819 C818 1.363 . S
C819 C825 1.428 . S
H820 C816 0.930 . S
H821 C818 0.929 . S
S822 N823 1.613 . S
S822 N824 1.610 . S
N823 S822 1.613 . S
N823 C826 1.350 . S
N824 S822 1.610 . S
N824 C825 1.351 . S
C825 C819 1.428 . S
C825 N824 1.351 . S
C825 C826 1.434 . S
C826 C817 1.429 . S
C826 N823 1.350 . S
C826 C825 1.434 . S
C827 C828 1.369 . S
C827 C829 1.419 . S
C827 H831 0.930 . S
C828 C827 1.369 . S
C828 C837 1.429 . S
C829 C827 1.419 . S
C829 C830 1.363 . S
C829 H832 0.929 . S
C830 C829 1.363 . S
C830 C836 1.428 . S
H831 C827 0.930 . S
H832 C829 0.929 . S
S833 N834 1.613 . S
S833 N835 1.610 . S
N834 S833 1.613 . S
N834 C837 1.350 . S
N835 S833 1.610 . S
N835 C836 1.351 . S
C836 C830 1.428 . S
C836 N835 1.351 . S
C836 C837 1.434 . S
C837 C828 1.429 . S
C837 N834 1.350 . S
C837 C836 1.434 . S
C838 C839 1.369 . S
C838 C840 1.419 . S
C838 H842 0.930 . S
C839 C838 1.369 . S
C839 C848 1.429 . S
C840 C838 1.419 . S
C840 C841 1.363 . S
C840 H843 0.929 . S
C841 C840 1.363 . S
C841 C847 1.428 . S
H842 C838 0.930 . S
H843 C840 0.929 . S
S844 N845 1.613 . S
S844 N846 1.610 . S
N845 S844 1.613 . S
N845 C848 1.350 . S
N846 S844 1.610 . S
N846 C847 1.351 . S
C847 C841 1.428 . S
C847 N846 1.351 . S
C847 C848 1.434 . S
C848 C839 1.429 . S
C848 N845 1.350 . S
C848 C847 1.434 . S
C849 C850 1.369 . S
C849 C851 1.419 1_655 S
C849 H853 0.930 . S
C850 C849 1.369 . S
C850 C859 1.429 . S
C851 C849 1.419 1_455 S
C851 C852 1.363 . S
C851 H854 0.929 . S
C852 C851 1.363 . S
C852 C858 1.428 . S
H853 C849 0.930 . S
H854 C851 0.929 . S
S855 N856 1.616 1_455 S
S855 N857 1.608 . S
N856 S855 1.616 1_655 S
N856 C859 1.350 . S
N857 S855 1.608 . S
N857 C858 1.351 . S
C858 C852 1.428 . S
C858 N857 1.351 . S
C858 C859 1.434 1_455 S
C859 C850 1.429 . S
C859 N856 1.350 . S
C859 C858 1.434 1_655 S
C860 C861 1.369 . S
C860 C862 1.419 . S
C860 H864 0.930 . S
C861 C860 1.369 . S
C861 C870 1.429 . S
C862 C860 1.419 . S
C862 C863 1.363 . S
C862 H865 0.929 . S
C863 C862 1.363 . S
C863 C869 1.428 . S
H864 C860 0.930 . S
H865 C862 0.929 . S
S866 N867 1.613 . S
S866 N868 1.610 . S
N867 S866 1.613 . S
N867 C870 1.350 . S
N868 S866 1.610 . S
N868 C869 1.351 . S
C869 C863 1.428 . S
C869 N868 1.351 . S
C869 C870 1.434 . S
C870 C861 1.429 . S
C870 N867 1.350 . S
C870 C869 1.434 . S
C871 C872 1.369 . S
C871 C873 1.419 1_455 S
C871 H875 0.930 . S
C872 C871 1.369 . S
C872 C881 1.429 . S
C873 C871 1.419 1_655 S
C873 C874 1.363 . S
C873 H876 0.929 . S
C874 C873 1.363 . S
C874 C880 1.428 . S
H875 C871 0.930 . S
H876 C873 0.929 . S
S877 N878 1.616 1_655 S
S877 N879 1.608 . S
N878 S877 1.616 1_455 S
N878 C881 1.350 . S
N879 S877 1.608 . S
N879 C880 1.351 . S
C880 C874 1.428 . S
C880 N879 1.351 . S
C880 C881 1.434 1_655 S
C881 C872 1.429 . S
C881 N878 1.350 . S
C881 C880 1.434 1_455 S
C882 C883 1.369 . S
C882 C884 1.419 . S
C882 H886 0.930 . S
C883 C882 1.369 . S
C883 C892 1.429 . S
C884 C882 1.419 . S
C884 C885 1.363 . S
C884 H887 0.929 . S
C885 C884 1.363 . S
C885 C891 1.428 . S
H886 C882 0.930 . S
H887 C884 0.929 . S
S888 N889 1.613 . S
S888 N890 1.610 . S
N889 S888 1.613 . S
N889 C892 1.350 . S
N890 S888 1.610 . S
N890 C891 1.351 . S
C891 C885 1.428 . S
C891 N890 1.351 . S
C891 C892 1.434 . S
C892 C883 1.429 . S
C892 N889 1.350 . S
C892 C891 1.434 . S
C893 C894 1.369 . S
C893 C895 1.419 . S
C893 H897 0.930 . S
C894 C893 1.369 . S
C894 C903 1.429 . S
C895 C893 1.419 . S
C895 C896 1.363 . S
C895 H898 0.929 . S
C896 C895 1.363 . S
C896 C902 1.428 . S
H897 C893 0.930 . S
H898 C895 0.929 . S
S899 N900 1.613 . S
S899 N901 1.610 . S
N900 S899 1.613 . S
N900 C903 1.350 . S
N901 S899 1.610 . S
N901 C902 1.351 . S
C902 C896 1.428 . S
C902 N901 1.351 . S
C902 C903 1.434 . S
C903 C894 1.429 . S
C903 N900 1.350 . S
C903 C902 1.434 . S
C904 C905 1.369 . S
C904 C906 1.419 . S
C904 H908 0.930 . S
C905 C904 1.369 . S
C905 C914 1.429 . S
C906 C904 1.419 . S
C906 C907 1.363 . S
C906 H909 0.929 . S
C907 C906 1.363 . S
C907 C913 1.428 . S
H908 C904 0.930 . S
H909 C906 0.929 . S
S910 N911 1.613 . S
S910 N912 1.610 . S
N911 S910 1.613 . S
N911 C914 1.350 . S
N912 S910 1.610 . S
N912 C913 1.351 . S
C913 C907 1.428 . S
C913 N912 1.351 . S
C913 C914 1.434 . S
C914 C905 1.429 . S
C914 N911 1.350 . S
C914 C913 1.434 . S
C915 C916 1.369 . S
C915 C917 1.419 . S
C915 H919 0.930 . S
C916 C915 1.369 . S
C916 C925 1.429 . S
C917 C915 1.419 . S
C917 C918 1.363 . S
C917 H920 0.929 . S
C918 C917 1.363 . S
C918 C924 1.428 . S
H919 C915 0.930 . S
H920 C917 0.929 . S
S921 N922 1.613 . S
S921 N923 1.610 . S
N922 S921 1.613 . S
N922 C925 1.350 . S
N923 S921 1.610 . S
N923 C924 1.351 . S
C924 C918 1.428 . S
C924 N923 1.351 . S
C924 C925 1.434 . S
C925 C916 1.429 . S
C925 N922 1.350 . S
C925 C924 1.434 . S
C926 C927 1.369 . S
C926 C928 1.419 . S
C926 H930 0.930 . S
C927 C926 1.369 . S
C927 C936 1.429 . S
C928 C926 1.419 . S
C928 C929 1.363 . S
C928 H931 0.929 . S
C929 C928 1.363 . S
C929 C935 1.428 . S
H930 C926 0.930 . S
H931 C928 0.929 . S
S932 N933 1.613 . S
S932 N934 1.610 . S
N933 S932 1.613 . S
N933 C936 1.350 . S
N934 S932 1.610 . S
N934 C935 1.351 . S
C935 C929 1.428 . S
C935 N934 1.351 . S
C935 C936 1.434 . S
C936 C927 1.429 . S
C936 N933 1.350 . S
C936 C935 1.434 . S
C937 C938 1.369 . S
C937 C939 1.419 . S
C937 H941 0.930 . S
C938 C937 1.369 . S
C938 C947 1.429 . S
C939 C937 1.419 . S
C939 C940 1.363 . S
C939 H942 0.929 . S
C940 C939 1.363 . S
C940 C946 1.428 . S
H941 C937 0.930 . S
H942 C939 0.929 . S
S943 N944 1.613 . S
S943 N945 1.610 . S
N944 S943 1.613 . S
N944 C947 1.350 . S
N945 S943 1.610 . S
N945 C946 1.351 . S
C946 C940 1.428 . S
C946 N945 1.351 . S
C946 C947 1.434 . S
C947 C938 1.429 . S
C947 N944 1.350 . S
C947 C946 1.434 . S
C948 C949 1.369 . S
C948 C950 1.419 1_655 S
C948 H952 0.930 . S
C949 C948 1.369 . S
C949 C958 1.429 . S
C950 C948 1.419 1_455 S
C950 C951 1.363 . S
C950 H953 0.929 . S
C951 C950 1.363 . S
C951 C957 1.428 . S
H952 C948 0.930 . S
H953 C950 0.929 . S
S954 N955 1.616 1_455 S
S954 N956 1.608 . S
N955 S954 1.616 1_655 S
N955 C958 1.350 . S
N956 S954 1.608 . S
N956 C957 1.351 . S
C957 C951 1.428 . S
C957 N956 1.351 . S
C957 C958 1.434 1_455 S
C958 C949 1.429 . S
C958 N955 1.350 . S
C958 C957 1.434 1_655 S
C959 C960 1.369 . S
C959 C961 1.419 . S
C959 H963 0.930 . S
C960 C959 1.369 . S
C960 C969 1.429 . S
C961 C959 1.419 . S
C961 C962 1.363 . S
C961 H964 0.929 . S
C962 C961 1.363 . S
C962 C968 1.428 . S
H963 C959 0.930 . S
H964 C961 0.929 . S
S965 N966 1.613 . S
S965 N967 1.610 . S
N966 S965 1.613 . S
N966 C969 1.350 . S
N967 S965 1.610 . S
N967 C968 1.351 . S
C968 C962 1.428 . S
C968 N967 1.351 . S
C968 C969 1.434 . S
C969 C960 1.429 . S
C969 N966 1.350 . S
C969 C968 1.434 . S
C970 C971 1.369 . S
C970 C972 1.419 . S
C970 H974 0.930 . S
C971 C970 1.369 . S
C971 C980 1.429 . S
C972 C970 1.419 . S
C972 C973 1.363 . S
C972 H975 0.929 . S
C973 C972 1.363 . S
C973 C979 1.428 . S
H974 C970 0.930 . S
H975 C972 0.929 . S
S976 N977 1.613 . S
S976 N978 1.610 . S
N977 S976 1.613 . S
N977 C980 1.350 . S
N978 S976 1.610 . S
N978 C979 1.351 . S
C979 C973 1.428 . S
C979 N978 1.351 . S
C979 C980 1.434 . S
C980 C971 1.429 . S
C980 N977 1.350 . S
C980 C979 1.434 . S
C981 C982 1.369 . S
C981 C983 1.419 1_455 S
C981 H985 0.930 . S
C982 C981 1.369 . S
C982 C991 1.429 . S
C983 C981 1.419 1_655 S
C983 C984 1.363 . S
C983 H986 0.929 . S
C984 C983 1.363 . S
C984 C990 1.428 . S
H985 C981 0.930 . S
H986 C983 0.929 . S
S987 N988 1.616 1_655 S
S987 N989 1.608 . S
N988 S987 1.616 1_455 S
N988 C991 1.350 . S
N989 S987 1.608 . S
N989 C990 1.351 . S
C990 C984 1.428 . S
C990 N989 1.351 . S
C990 C991 1.434 1_655 S
C991 C982 1.429 . S
C991 N988 1.350 . S
C991 C990 1.434 1_455 S
C992 C993 1.369 . S
C992 C994 1.419 1_554 S
C992 H996 0.930 . S
C993 C992 1.369 . S
C993 C1002 1.429 . S
C994 C992 1.419 1_556 S
C994 C995 1.363 . S
C994 H997 0.929 . S
C995 C994 1.363 . S
C995 C1001 1.428 . S
H996 C992 0.930 . S
H997 C994 0.929 . S
S998 N999 1.613 . S
S998 N1000 1.610 1_554 S
N999 S998 1.613 . S
N999 C1002 1.350 . S
N1000 S998 1.610 1_556 S
N1000 C1001 1.351 . S
C1001 C995 1.428 . S
C1001 N1000 1.351 . S
C1001 C1002 1.434 1_556 S
C1002 C993 1.429 . S
C1002 N999 1.350 . S
C1002 C1001 1.434 1_554 S
C1003 C1004 1.369 . S
C1003 C1005 1.419 . S
C1003 H1007 0.930 . S
C1004 C1003 1.369 . S
C1004 C1013 1.429 . S
C1005 C1003 1.419 . S
C1005 C1006 1.363 . S
C1005 H1008 0.929 . S
C1006 C1005 1.363 . S
C1006 C1012 1.428 . S
H1007 C1003 0.930 . S
H1008 C1005 0.929 . S
S1009 N1010 1.613 . S
S1009 N1011 1.610 . S
N1010 S1009 1.613 . S
N1010 C1013 1.350 . S
N1011 S1009 1.610 . S
N1011 C1012 1.351 . S
C1012 C1006 1.428 . S
C1012 N1011 1.351 . S
C1012 C1013 1.434 . S
C1013 C1004 1.429 . S
C1013 N1010 1.350 . S
C1013 C1012 1.434 . S
C1014 C1015 1.369 . S
C1014 C1016 1.419 . S
C1014 H1018 0.930 . S
C1015 C1014 1.369 . S
C1015 C1024 1.429 . S
C1016 C1014 1.419 . S
C1016 C1017 1.363 . S
C1016 H1019 0.929 . S
C1017 C1016 1.363 . S
C1017 C1023 1.428 . S
H1018 C1014 0.930 . S
H1019 C1016 0.929 . S
S1020 N1021 1.613 . S
S1020 N1022 1.610 . S
N1021 S1020 1.613 . S
N1021 C1024 1.350 . S
N1022 S1020 1.610 . S
N1022 C1023 1.351 . S
C1023 C1017 1.428 . S
C1023 N1022 1.351 . S
C1023 C1024 1.434 . S
C1024 C1015 1.429 . S
C1024 N1021 1.350 . S
C1024 C1023 1.434 . S
C1025 C1026 1.369 . S
C1025 C1027 1.419 . S
C1025 H1029 0.930 . S
C1026 C1025 1.369 . S
C1026 C1035 1.429 . S
C1027 C1025 1.419 . S
C1027 C1028 1.363 . S
C1027 H1030 0.929 . S
C1028 C1027 1.363 . S
C1028 C1034 1.428 . S
H1029 C1025 0.930 . S
H1030 C1027 0.929 . S
S1031 N1032 1.613 . S
S1031 N1033 1.610 . S
N1032 S1031 1.613 . S
N1032 C1035 1.350 . S
N1033 S1031 1.610 . S
N1033 C1034 1.351 . S
C1034 C1028 1.428 . S
C1034 N1033 1.351 . S
C1034 C1035 1.434 . S
C1035 C1026 1.429 . S
C1035 N1032 1.350 . S
C1035 C1034 1.434 . S
C1036 C1037 1.369 . S
C1036 C1038 1.419 1_554 S
C1036 H1040 0.930 . S
C1037 C1036 1.369 . S
C1037 C1046 1.429 . S
C1038 C1036 1.419 1_556 S
C1038 C1039 1.363 . S
C1038 H1041 0.929 . S
C1039 C1038 1.363 . S
C1039 C1045 1.428 . S
H1040 C1036 0.930 . S
H1041 C1038 0.929 . S
S1042 N1043 1.613 . S
S1042 N1044 1.610 1_554 S
N1043 S1042 1.613 . S
N1043 C1046 1.350 . S
N1044 S1042 1.610 1_556 S
N1044 C1045 1.351 . S
C1045 C1039 1.428 . S
C1045 N1044 1.351 . S
C1045 C1046 1.434 1_556 S
C1046 C1037 1.429 . S
C1046 N1043 1.350 . S
C1046 C1045 1.434 1_554 S
C1047 C1048 1.369 . S
C1047 C1049 1.419 . S
C1047 H1051 0.930 . S
C1048 C1047 1.369 . S
C1048 C1057 1.429 . S
C1049 C1047 1.419 . S
C1049 C1050 1.363 . S
C1049 H1052 0.929 . S
C1050 C1049 1.363 . S
C1050 C1056 1.428 . S
H1051 C1047 0.930 . S
H1052 C1049 0.929 . S
S1053 N1054 1.613 . S
S1053 N1055 1.610 . S
N1054 S1053 1.613 . S
N1054 C1057 1.350 . S
N1055 S1053 1.610 . S
N1055 C1056 1.351 . S
C1056 C1050 1.428 . S
C1056 N1055 1.351 . S
C1056 C1057 1.434 . S
C1057 C1048 1.429 . S
C1057 N1054 1.350 . S
C1057 C1056 1.434 . S
C1058 C1059 1.369 . S
C1058 C1060 1.419 . S
C1058 H1062 0.930 . S
C1059 C1058 1.369 . S
C1059 C1068 1.429 . S
C1060 C1058 1.419 . S
C1060 C1061 1.363 . S
C1060 H1063 0.929 . S
C1061 C1060 1.363 . S
C1061 C1067 1.428 . S
H1062 C1058 0.930 . S
H1063 C1060 0.929 . S
S1064 N1065 1.613 . S
S1064 N1066 1.610 . S
N1065 S1064 1.613 . S
N1065 C1068 1.350 . S
N1066 S1064 1.610 . S
N1066 C1067 1.351 . S
C1067 C1061 1.428 . S
C1067 N1066 1.351 . S
C1067 C1068 1.434 . S
C1068 C1059 1.429 . S
C1068 N1065 1.350 . S
C1068 C1067 1.434 . S
C1069 C1070 1.369 . S
C1069 C1071 1.419 . S
C1069 H1073 0.930 . S
C1070 C1069 1.369 . S
C1070 C1079 1.429 . S
C1071 C1069 1.419 . S
C1071 C1072 1.363 . S
C1071 H1074 0.929 . S
C1072 C1071 1.363 . S
C1072 C1078 1.428 . S
H1073 C1069 0.930 . S
H1074 C1071 0.929 . S
S1075 N1076 1.613 . S
S1075 N1077 1.610 . S
N1076 S1075 1.613 . S
N1076 C1079 1.350 . S
N1077 S1075 1.610 . S
N1077 C1078 1.351 . S
C1078 C1072 1.428 . S
C1078 N1077 1.351 . S
C1078 C1079 1.434 . S
C1079 C1070 1.429 . S
C1079 N1076 1.350 . S
C1079 C1078 1.434 . S
C1080 C1081 1.369 . S
C1080 C1082 1.419 . S
C1080 H1084 0.930 . S
C1081 C1080 1.369 . S
C1081 C1090 1.429 1_565 S
C1082 C1080 1.419 . S
C1082 C1083 1.363 1_565 S
C1082 H1085 0.929 . S
C1083 C1082 1.363 1_545 S
C1083 C1089 1.428 . S
H1084 C1080 0.930 . S
H1085 C1082 0.929 . S
S1086 N1087 1.613 . S
S1086 N1088 1.610 . S
N1087 S1086 1.613 . S
N1087 C1090 1.350 . S
N1088 S1086 1.610 . S
N1088 C1089 1.351 . S
C1089 C1083 1.428 . S
C1089 N1088 1.351 . S
C1089 C1090 1.434 . S
C1090 C1081 1.429 1_545 S
C1090 N1087 1.350 . S
C1090 C1089 1.434 . S
C1091 C1092 1.369 . S
C1091 C1093 1.419 . S
C1091 H1095 0.930 . S
C1092 C1091 1.369 . S
C1092 C1101 1.429 . S
C1093 C1091 1.419 . S
C1093 C1094 1.363 . S
C1093 H1096 0.929 . S
C1094 C1093 1.363 . S
C1094 C1100 1.428 . S
H1095 C1091 0.930 . S
H1096 C1093 0.929 . S
S1097 N1098 1.613 . S
S1097 N1099 1.610 . S
N1098 S1097 1.613 . S
N1098 C1101 1.350 . S
N1099 S1097 1.610 . S
N1099 C1100 1.351 . S
C1100 C1094 1.428 . S
C1100 N1099 1.351 . S
C1100 C1101 1.434 . S
C1101 C1092 1.429 . S
C1101 N1098 1.350 . S
C1101 C1100 1.434 . S
C1102 C1103 1.369 1_545 S
C1102 C1104 1.419 1_554 S
C1102 H1106 0.930 . S
C1103 C1102 1.369 1_565 S
C1103 C1112 1.429 . S
C1104 C1102 1.419 1_556 S
C1104 C1105 1.363 . S
C1104 H1107 0.929 . S
C1105 C1104 1.363 . S
C1105 C1111 1.428 1_545 S
H1106 C1102 0.930 . S
H1107 C1104 0.929 . S
S1108 N1109 1.613 1_556 S
S1108 N1110 1.610 . S
N1109 S1108 1.613 1_554 S
N1109 C1112 1.350 . S
N1110 S1108 1.610 . S
N1110 C1111 1.351 . S
C1111 C1105 1.428 1_565 S
C1111 N1110 1.351 . S
C1111 C1112 1.434 1_556 S
C1112 C1103 1.429 . S
C1112 N1109 1.350 . S
C1112 C1111 1.434 1_554 S
C1113 C1114 1.369 . S
C1113 C1115 1.419 . S
C1113 H1117 0.930 . S
C1114 C1113 1.369 . S
C1114 C1123 1.429 . S
C1115 C1113 1.419 . S
C1115 C1116 1.363 . S
C1115 H1118 0.929 . S
C1116 C1115 1.363 . S
C1116 C1122 1.428 . S
H1117 C1113 0.930 . S
H1118 C1115 0.929 . S
S1119 N1120 1.613 . S
S1119 N1121 1.610 . S
N1120 S1119 1.613 . S
N1120 C1123 1.350 . S
N1121 S1119 1.610 . S
N1121 C1122 1.351 . S
C1122 C1116 1.428 . S
C1122 N1121 1.351 . S
C1122 C1123 1.434 . S
C1123 C1114 1.429 . S
C1123 N1120 1.350 . S
C1123 C1122 1.434 . S
C1124 C1125 1.369 1_545 S
C1124 C1126 1.419 . S
C1124 H1128 0.930 . S
C1125 C1124 1.369 1_565 S
C1125 C1134 1.429 . S
C1126 C1124 1.419 . S
C1126 C1127 1.363 . S
C1126 H1129 0.929 . S
C1127 C1126 1.363 . S
C1127 C1133 1.428 1_545 S
H1128 C1124 0.930 . S
H1129 C1126 0.929 . S
S1130 N1131 1.613 . S
S1130 N1132 1.610 . S
N1131 S1130 1.613 . S
N1131 C1134 1.350 . S
N1132 S1130 1.610 . S
N1132 C1133 1.351 . S
C1133 C1127 1.428 1_565 S
C1133 N1132 1.351 . S
C1133 C1134 1.434 . S
C1134 C1125 1.429 . S
C1134 N1131 1.350 . S
C1134 C1133 1.434 . S
C1135 C1136 1.369 . S
C1135 C1137 1.419 . S
C1135 H1139 0.930 . S
C1136 C1135 1.369 . S
C1136 C1145 1.429 . S
C1137 C1135 1.419 . S
C1137 C1138 1.363 . S
C1137 H1140 0.929 . S
C1138 C1137 1.363 . S
C1138 C1144 1.428 . S
H1139 C1135 0.930 . S
H1140 C1137 0.929 . S
S1141 N1142 1.613 . S
S1141 N1143 1.610 . S
N1142 S1141 1.613 . S
N1142 C1145 1.350 . S
N1143 S1141 1.610 . S
N1143 C1144 1.351 . S
C1144 C1138 1.428 . S
C1144 N1143 1.351 . S
C1144 C1145 1.434 . S
C1145 C1136 1.429 . S
C1145 N1142 1.350 . S
C1145 C1144 1.434 . S
C1146 C1147 1.369 . S
C1146 C1148 1.419 1_556 S
C1146 H1150 0.930 . S
C1147 C1146 1.369 . S
C1147 C1156 1.429 1_545 S
C1148 C1146 1.419 1_554 S
C1148 C1149 1.363 1_545 S
C1148 H1151 0.929 . S
C1149 C1148 1.363 1_565 S
C1149 C1155 1.428 . S
H1150 C1146 0.930 . S
H1151 C1148 0.929 . S
S1152 N1153 1.613 . S
S1152 N1154 1.610 1_556 S
N1153 S1152 1.613 . S
N1153 C1156 1.350 . S
N1154 S1152 1.610 1_554 S
N1154 C1155 1.351 . S
C1155 C1149 1.428 . S
C1155 N1154 1.351 . S
C1155 C1156 1.434 1_554 S
C1156 C1147 1.429 1_565 S
C1156 N1153 1.350 . S
C1156 C1155 1.434 1_556 S
C1157 C1158 1.369 . S
C1157 C1159 1.419 . S
C1157 H1161 0.930 . S
C1158 C1157 1.369 . S
C1158 C1167 1.429 . S
C1159 C1157 1.419 . S
C1159 C1160 1.363 . S
C1159 H1162 0.929 . S
C1160 C1159 1.363 . S
C1160 C1166 1.428 . S
H1161 C1157 0.930 . S
H1162 C1159 0.929 . S
S1163 N1164 1.613 . S
S1163 N1165 1.610 . S
N1164 S1163 1.613 . S
N1164 C1167 1.350 . S
N1165 S1163 1.610 . S
N1165 C1166 1.351 . S
C1166 C1160 1.428 . S
C1166 N1165 1.351 . S
C1166 C1167 1.434 . S
C1167 C1158 1.429 . S
C1167 N1164 1.350 . S
C1167 C1166 1.434 . S
C641 C29 1.570 . S
C643 C8 1.581 . S
C652 C48 1.576 . S
C654 C69 1.577 . S
C663 C109 1.578 . S
C665 C88 1.574 . S
C674 C128 1.582 . S
C676 C149 1.572 . S
C685 C189 1.571 . S
C687 C168 1.580 . S
C696 C229 1.578 . S
C698 C208 1.574 . S
C707 C269 1.571 . S
C709 C248 1.580 . S
C718 C288 1.582 . S
C720 C309 1.572 . S
C729 C328 1.581 . S
C731 C349 1.573 . S
C740 C368 1.571 . S
C742 C389 1.580 . S
C751 C429 1.581 . S
C753 C408 1.572 . S
C762 C469 1.575 . S
C764 C448 1.577 . S
C773 C488 1.581 . S
C775 C509 1.573 . S
C784 C549 1.582 . S
C786 C528 1.572 . S
C795 C568 1.582 . S
C797 C589 1.572 . S
C806 C629 1.571 . S
C808 C608 1.580 . S
C817 C31 2.046 . S
C819 C452 2.047 . S
C828 C57 1.508 . S
C830 C602 1.508 . S
C839 C111 2.046 . S
C841 C372 2.047 . S
C850 C137 1.513 . S
C852 C522 1.512 . S
C861 C191 2.051 . S
C863 C532 2.051 . S
C872 C442 1.508 . S
C874 C217 1.508 . S
C883 C271 2.048 . S
C885 C612 2.049 . S
C894 C297 1.510 . S
C896 C362 1.510 . S
C905 C151 2.048 . S
C907 C332 2.048 . S
C916 C71 2.052 . S
C918 C412 2.051 . S
C927 C492 2.046 . S
C929 C231 2.047 . S
C938 C311 2.046 . S
C940 C572 2.047 . S
C949 C322 1.513 . S
C951 C177 1.512 . S
C960 C257 1.510 . S
C962 C402 1.510 . S
C971 C97 1.513 . S
C973 C562 1.512 . S
C982 C17 1.513 . S
C984 C482 1.512 . S
C993 C12 2.041 . S
C995 C172 2.038 . S
C1004 C42 1.637 . S
C1006 C202 1.637 . S
C1015 C92 2.036 . S
C1017 C252 2.042 . S
C1026 C122 1.635 . S
C1028 C282 1.635 . S
C1037 C511 2.042 . S
C1039 C351 2.037 . S
C1048 C537 1.635 . S
C1050 C377 1.635 . S
C1059 C431 2.043 . S
C1061 C591 2.037 . S
C1070 C617 1.636 . S
C1072 C457 1.637 . S
C1081 C52 2.040 . S
C1083 C292 2.039 . S
C1092 C162 1.637 . S
C1094 C82 1.637 . S
C1103 C212 2.036 . S
C1105 C132 2.042 . S
C1114 C2 1.636 . S
C1116 C242 1.636 . S
C1125 C631 2.036 . S
C1127 C391 2.042 . S
C1136 C497 1.636 . S
C1138 C417 1.636 . S
C1147 C551 2.039 . S
C1149 C471 2.039 . S
C1158 C577 1.636 . S
C1160 C337 1.637 . S
