# Generated by pormake.
# Topology yfg, (5)-cn, num edge types: 1
# Building blocks:
#     Node 0, Type 0, BuildingBlock: XOMCOT_clean_sbu_0, # of connection points: 5
#     Node 1, Type 0, BuildingBlock: XOMCOT_clean_sbu_0, # of connection points: 5
#     Node 2, Type 0, BuildingBlock: XOMCOT_clean_sbu_0, # of connection points: 5
#     Node 3, Type 0, BuildingBlock: XOMCOT_clean_sbu_0, # of connection points: 5
#     Node 4, Type 0, BuildingBlock: XOMCOT_clean_sbu_0, # of connection points: 5
#     Node 5, Type 0, BuildingBlock: XOMCOT_clean_sbu_0, # of connection points: 5
#     Node 6, Type 0, BuildingBlock: XOMCOT_clean_sbu_0, # of connection points: 5
#     Node 7, Type 0, BuildingBlock: XOMCOT_clean_sbu_0, # of connection points: 5
#     Edge 8, Type (0, 0), BuildingBlock: KIFKEQ_clean_linker_1, # of connection points: 2
#     Edge 9, Type (0, 0), BuildingBlock: KIFKEQ_clean_linker_1, # of connection points: 2
#     Edge 10, Type (0, 0), BuildingBlock: KIFKEQ_clean_linker_1, # of connection points: 2
#     Edge 11, Type (0, 0), BuildingBlock: KIFKEQ_clean_linker_1, # of connection points: 2
#     Edge 12, Type (0, 0), BuildingBlock: KIFKEQ_clean_linker_1, # of connection points: 2
#     Edge 13, Type (0, 0), BuildingBlock: KIFKEQ_clean_linker_1, # of connection points: 2
#     Edge 14, Type (0, 0), BuildingBlock: KIFKEQ_clean_linker_1, # of connection points: 2
#     Edge 15, Type (0, 0), BuildingBlock: KIFKEQ_clean_linker_1, # of connection points: 2
#     Edge 16, Type (0, 0), BuildingBlock: KIFKEQ_clean_linker_1, # of connection points: 2
#     Edge 17, Type (0, 0), BuildingBlock: KIFKEQ_clean_linker_1, # of connection points: 2
#     Edge 18, Type (0, 0), BuildingBlock: KIFKEQ_clean_linker_1, # of connection points: 2
#     Edge 19, Type (0, 0), BuildingBlock: KIFKEQ_clean_linker_1, # of connection points: 2
#     Edge 20, Type (0, 0), BuildingBlock: KIFKEQ_clean_linker_1, # of connection points: 2
#     Edge 21, Type (0, 0), BuildingBlock: KIFKEQ_clean_linker_1, # of connection points: 2
#     Edge 22, Type (0, 0), BuildingBlock: KIFKEQ_clean_linker_1, # of connection points: 2
#     Edge 23, Type (0, 0), BuildingBlock: KIFKEQ_clean_linker_1, # of connection points: 2
#     Edge 24, Type (0, 0), BuildingBlock: KIFKEQ_clean_linker_1, # of connection points: 2
#     Edge 25, Type (0, 0), BuildingBlock: KIFKEQ_clean_linker_1, # of connection points: 2
#     Edge 26, Type (0, 0), BuildingBlock: KIFKEQ_clean_linker_1, # of connection points: 2
#     Edge 27, Type (0, 0), BuildingBlock: KIFKEQ_clean_linker_1, # of connection points: 2
# Relax obj value: 0.351
# Max RMSD: 0.194
# Mean RMSD: 0.194
data_MOF--net-yfg--node1-XOMCOT_clean_sbu_0--edge1-KIFKEQ_clean_linker_1
_symmetry_space_group_name_H-M    P1
_symmetry_Int_Tables_number       1
_symmetry_cell_setting            triclinic
loop_
_symmetry_equiv_pos_as_xyz
'x, y, z'
_cell_length_a     35.278733
_cell_length_b     35.286599
_cell_length_c     43.713578
_cell_angle_alpha  89.895712
_cell_angle_beta   90.208854
_cell_angle_gamma 89.999223
loop_
_atom_site_label
_atom_site_type_symbol
_atom_site_fract_x
_atom_site_fract_y
_atom_site_fract_z
_atom_type_partial_charge
Co0 Co 0.26385 0.52593 0.05622 0.0
C1 C 0.30772 0.55069 1.00148 0.0
C2 C 0.28531 0.49483 0.9955 0.0
C3 C 0.3021 0.50608 0.96852 0.0
N4 N 0.28857 0.5229 0.01628 0.0
N5 N 0.31609 0.54131 0.97231 0.0
H6 H 0.31389 0.57815 0.0111 0.0
H7 H 0.26978 0.46882 0.99886 0.0
C8 C 0.29618 0.44447 0.06685 0.0
O9 O 0.27777 0.42732 0.04472 0.0
N10 N 0.2392 0.5296 0.09547 0.0
C11 C 0.20496 0.5452 0.10075 0.0
C12 C 0.19878 0.54573 0.1318 0.0
C13 C 0.25341 0.52078 0.12323 0.0
N14 N 0.22922 0.5303 0.14575 0.0
C15 C 0.20093 0.51491 0.01703 0.0
C16 C 0.16602 0.45901 0.05133 0.0
C17 C 0.14511 0.47779 0.02852 0.0
C18 C 0.16358 0.50487 0.01043 0.0
C19 C 0.20352 0.47005 0.0573 0.0
N20 N 0.21998 0.49858 0.04084 0.0
H21 H 0.21372 0.53798 1.00446 0.0
H22 H 0.21802 0.4581 0.07688 0.0
H23 H 0.18611 0.55601 0.08322 0.0
H24 H 0.28124 0.50891 0.12701 0.0
O25 O 0.24683 0.57736 0.04782 0.0
O26 O 0.30124 0.56117 0.07016 0.0
O27 O 0.29184 0.47985 0.07162 0.0
C28 C 0.27788 0.58768 0.06175 0.0
H29 H 0.30309 0.48989 0.94754 0.0
H30 H 0.17387 0.55649 0.14326 0.0
H31 H 0.15262 0.43823 0.06601 0.0
H32 H 0.14851 0.51983 0.99246 0.0
Co33 Co 0.49298 0.26118 0.30175 0.0
C34 C 0.45967 0.30178 0.24801 0.0
C35 C 0.51926 0.29185 0.24282 0.0
C36 C 0.50552 0.30805 0.21623 0.0
N37 N 0.49052 0.28787 0.26279 0.0
N38 N 0.46804 0.31429 0.21957 0.0
H39 H 0.43128 0.30152 0.2572 0.0
H40 H 0.54804 0.28253 0.24693 0.0
C41 C 0.56955 0.27559 0.33074 0.0
O42 O 0.56932 0.24172 0.34327 0.0
N43 N 0.49398 0.23375 0.34029 0.0
C44 C 0.48678 0.19654 0.34401 0.0
C45 C 0.4866 0.18831 0.37469 0.0
C46 C 0.49674 0.24792 0.36895 0.0
N47 N 0.49324 0.22051 0.39045 0.0
C48 C 0.48524 0.19546 0.26497 0.0
C49 C 0.55629 0.16518 0.27542 0.0
C50 C 0.52754 0.1415 0.26411 0.0
C51 C 0.4924 0.1579 0.25697 0.0
C52 C 0.54793 0.2029 0.28282 0.0
N53 N 0.51175 0.2164 0.28025 0.0
H54 H 0.45729 0.20678 0.26075 0.0
H55 H 0.57042 0.2203 0.29143 0.0
H56 H 0.48104 0.17666 0.32584 0.0
H57 H 0.50208 0.27751 0.37378 0.0
O58 O 0.43908 0.25018 0.30034 0.0
O59 O 0.46531 0.30124 0.32123 0.0
O60 O 0.54503 0.28428 0.31009 0.0
C61 C 0.43506 0.28144 0.31571 0.0
H62 H 0.52183 0.31459 0.19597 0.0
H63 H 0.48122 0.16069 0.38452 0.0
H64 H 0.58436 0.15423 0.28024 0.0
H65 H 0.46988 0.1413 0.24673 0.0
Co66 Co 0.74321 0.49434 0.5495 0.0
C67 C 0.70969 0.46284 0.49249 0.0
C68 C 0.6935 0.52084 0.49886 0.0
C69 C 0.67618 0.50737 0.47269 0.0
N70 N 0.71431 0.49279 0.51147 0.0
N71 N 0.68635 0.47084 0.46872 0.0
H72 H 0.72228 0.43531 0.49633 0.0
H73 H 0.69068 0.54913 0.508 0.0
C74 C 0.7308 0.56974 0.58032 0.0
O75 O 0.76583 0.56957 0.59063 0.0
N76 N 0.77229 0.49431 0.58725 0.0
C77 C 0.80968 0.48722 0.59034 0.0
C78 C 0.81845 0.48527 0.62098 0.0
C79 C 0.7587 0.49575 0.6161 0.0
N80 N 0.78642 0.49078 0.63708 0.0
C81 C 0.80858 0.48892 0.51189 0.0
C82 C 0.83394 0.5625 0.51841 0.0
C83 C 0.85858 0.53524 0.50633 0.0
C84 C 0.84471 0.49853 0.50163 0.0
C85 C 0.79755 0.55177 0.52783 0.0
N86 N 0.78657 0.51463 0.52698 0.0
H87 H 0.79937 0.45998 0.50928 0.0
H88 H 0.77901 0.57345 0.53618 0.0
H89 H 0.82927 0.48283 0.57178 0.0
H90 H 0.72909 0.4999 0.62158 0.0
O91 O 0.75462 0.4406 0.54671 0.0
O92 O 0.7043 0.46546 0.56944 0.0
O93 O 0.72029 0.54566 0.56002 0.0
C94 C 0.72385 0.43559 0.56246 0.0
H95 H 0.65754 0.52332 0.45775 0.0
H96 H 0.84629 0.48031 0.63068 0.0
H97 H 0.84299 0.59163 0.52115 0.0
H98 H 0.86248 0.47663 0.49192 0.0
Co99 Co 0.52317 0.7455 0.80509 0.0
C100 C 0.55203 0.70156 0.75184 0.0
C101 C 0.49333 0.71512 0.74626 0.0
C102 C 0.50573 0.69702 0.72019 0.0
N103 N 0.52238 0.718 0.76627 0.0
N104 N 0.54278 0.68855 0.7237 0.0
H105 H 0.58043 0.70061 0.76095 0.0
H106 H 0.46552 0.72708 0.74946 0.0
C107 C 0.44312 0.71058 0.81667 0.0
O108 O 0.42466 0.72867 0.795 0.0
N109 N 0.52466 0.77293 0.84324 0.0
C110 C 0.53693 0.80882 0.84673 0.0
C111 C 0.5368 0.81752 0.87733 0.0
C112 C 0.51734 0.76012 0.87167 0.0
N113 N 0.52455 0.7869 0.89294 0.0
C114 C 0.5083 0.80465 0.76272 0.0
C115 C 0.45068 0.83853 0.79557 0.0
C116 C 0.46753 0.85888 0.77154 0.0
C117 C 0.49572 0.84073 0.75431 0.0
C118 C 0.46421 0.80246 0.8033 0.0
N119 N 0.49345 0.78649 0.78749 0.0
H120 H 0.53214 0.79244 0.75079 0.0
H121 H 0.45338 0.78887 0.82364 0.0
H122 H 0.54583 0.82719 0.82827 0.0
H123 H 0.50819 0.73156 0.87678 0.0
O124 O 0.57385 0.76482 0.79684 0.0
O125 O 0.56005 0.71115 0.82118 0.0
O126 O 0.47853 0.71583 0.82085 0.0
C127 C 0.58546 0.73531 0.81226 0.0
H128 H 0.48884 0.69132 0.70002 0.0
H129 H 0.54503 0.84434 0.88734 0.0
H130 H 0.42858 0.8511 0.80936 0.0
H131 H 0.51012 0.85527 0.73588 0.0
Co132 Co 0.26383 0.49369 0.46012 0.0
C133 C 0.30043 0.45961 0.51495 0.0
C134 C 0.30023 0.52025 0.51739 0.0
C135 C 0.31723 0.50603 0.54355 0.0
N136 N 0.28989 0.49107 0.49937 0.0
N137 N 0.31745 0.46782 0.54189 0.0
H138 H 0.29515 0.43107 0.50714 0.0
H139 H 0.29558 0.54983 0.51206 0.0
C140 C 0.27665 0.57064 0.43188 0.0
O141 O 0.24208 0.57056 0.42058 0.0
N142 N 0.23756 0.49474 0.42117 0.0
C143 C 0.20111 0.48514 0.41586 0.0
C144 C 0.19502 0.48412 0.38476 0.0
C145 C 0.25333 0.4986 0.39324 0.0
N146 N 0.22782 0.4928 0.37073 0.0
C147 C 0.19631 0.48478 0.49444 0.0
C148 C 0.16784 0.55703 0.48672 0.0
C149 C 0.14313 0.52799 0.49587 0.0
C150 C 0.15863 0.49213 0.5018 0.0
C151 C 0.20575 0.54845 0.48006 0.0
N152 N 0.21836 0.51184 0.481 0.0
H153 H 0.20687 0.45639 0.49775 0.0
H154 H 0.22413 0.57123 0.47347 0.0
H155 H 0.18053 0.47819 0.43321 0.0
H156 H 0.28297 0.50498 0.38949 0.0
O157 O 0.25331 0.4397 0.46093 0.0
O158 O 0.30471 0.46642 0.44123 0.0
O159 O 0.28645 0.54594 0.45204 0.0
C160 C 0.28506 0.43596 0.44625 0.0
H161 H 0.32889 0.52262 0.56212 0.0
H162 H 0.16855 0.4776 0.37331 0.0
H163 H 0.15766 0.58564 0.48311 0.0
H164 H 0.14128 0.46928 0.51061 0.0
Co165 Co 0.51599 0.26055 0.70736 0.0
C166 C 0.55178 0.29829 0.76109 0.0
C167 C 0.49122 0.2971 0.76469 0.0
C168 C 0.50592 0.31459 0.79036 0.0
N169 N 0.51999 0.28705 0.74623 0.0
N170 N 0.54407 0.31541 0.78803 0.0
H171 H 0.58015 0.29347 0.75276 0.0
H172 H 0.46156 0.29192 0.75997 0.0
C173 C 0.43854 0.27457 0.68045 0.0
O174 O 0.43799 0.24015 0.66903 0.0
N175 N 0.51332 0.23375 0.66867 0.0
C176 C 0.52046 0.19662 0.66413 0.0
C177 C 0.52182 0.18978 0.63324 0.0
C178 C 0.51095 0.24908 0.64034 0.0
N179 N 0.51583 0.22272 0.61837 0.0
C180 C 0.52472 0.19262 0.74167 0.0
C181 C 0.45073 0.16741 0.73833 0.0
C182 C 0.47931 0.14176 0.74673 0.0
C183 C 0.51632 0.15544 0.75005 0.0
C184 C 0.4605 0.20459 0.72999 0.0
N185 N 0.49764 0.21565 0.72916 0.0
H186 H 0.55377 0.20184 0.74334 0.0
H187 H 0.43812 0.22364 0.72357 0.0
H188 H 0.52584 0.17596 0.68183 0.0
H189 H 0.50697 0.27901 0.63592 0.0
O190 O 0.56988 0.2493 0.70743 0.0
O191 O 0.54329 0.30076 0.68748 0.0
O192 O 0.46399 0.28393 0.70006 0.0
C193 C 0.57362 0.2808 0.69228 0.0
H194 H 0.48965 0.32616 0.80908 0.0
H195 H 0.52727 0.16272 0.62249 0.0
H196 H 0.42148 0.15833 0.7366 0.0
H197 H 0.539 0.13701 0.75776 0.0
Co198 Co 0.74909 0.52075 0.95257 0.0
C199 C 0.7094 0.55502 0.00608 0.0
C200 C 0.70873 0.4943 0.00754 0.0
C201 C 0.69077 0.50789 0.03325 0.0
N202 N 0.72028 0.52382 0.99037 0.0
N203 N 0.69115 0.54614 0.03234 0.0
H204 H 0.71545 0.5837 0.99891 0.0
H205 H 0.71345 0.46481 1.00204 0.0
C206 C 0.73541 0.4437 0.92443 0.0
O207 O 0.77036 0.44283 0.91417 0.0
N208 N 0.7782 0.51871 0.91506 0.0
C209 C 0.81569 0.52476 0.91208 0.0
C210 C 0.82473 0.52393 0.88155 0.0
C211 C 0.76477 0.5154 0.8862 0.0
N212 N 0.79277 0.51773 0.86519 0.0
C213 C 0.81424 0.52715 0.99065 0.0
C214 C 0.83788 0.45264 0.98903 0.0
C215 C 0.86252 0.48008 1.00113 0.0
C216 C 0.84947 0.51752 1.0029 0.0
C217 C 0.80247 0.46356 0.97718 0.0
N218 N 0.79223 0.50092 0.97605 0.0
H219 H 0.80566 0.55641 0.99172 0.0
H220 H 0.78393 0.44175 0.96892 0.0
H221 H 0.8352 0.53025 0.93063 0.0
H222 H 0.73519 0.51059 0.88092 0.0
O223 O 0.76126 0.57441 0.95408 0.0
O224 O 0.71066 0.54961 0.93149 0.0
O225 O 0.72525 0.46935 0.9435 0.0
C226 C 0.73084 0.57938 0.93773 0.0
H227 H 0.6782 0.49079 0.0511 0.0
H228 H 0.85276 0.52832 0.87226 0.0
H229 H 0.84604 0.42307 0.9884 0.0
H230 H 0.86709 0.53984 0.01224 0.0
Co231 Co 0.48965 0.74416 0.20635 0.0
C232 C 0.45565 0.70433 0.25974 0.0
C233 C 0.51632 0.70098 0.2602 0.0
C234 C 0.50261 0.68332 0.28611 0.0
N235 N 0.48685 0.71403 0.24357 0.0
N236 N 0.46439 0.68541 0.28578 0.0
H237 H 0.42708 0.7119 0.25319 0.0
H238 H 0.54583 0.70466 0.25428 0.0
C239 C 0.56527 0.72987 0.176 0.0
O240 O 0.56617 0.7651 0.16623 0.0
N241 N 0.49112 0.77472 0.16953 0.0
C242 C 0.48601 0.81247 0.16744 0.0
C243 C 0.48574 0.82258 0.13707 0.0
C244 C 0.49266 0.76225 0.14039 0.0
N245 N 0.49019 0.79102 0.12003 0.0
C246 C 0.48625 0.80744 0.24624 0.0
C247 C 0.55982 0.83246 0.23913 0.0
C248 C 0.533 0.85703 0.25196 0.0
C249 C 0.49634 0.84322 0.25702 0.0
C250 C 0.54858 0.79644 0.22914 0.0
N251 N 0.51135 0.7858 0.23021 0.0
H252 H 0.45732 0.79831 0.24915 0.0
H253 H 0.56989 0.77795 0.22017 0.0
H254 H 0.48194 0.83144 0.18649 0.0
H255 H 0.49646 0.73276 0.13441 0.0
O256 O 0.43643 0.75781 0.20913 0.0
O257 O 0.45912 0.70746 0.18501 0.0
O258 O 0.54024 0.71942 0.19557 0.0
C259 C 0.43015 0.72829 0.19212 0.0
H260 H 0.51955 0.66996 0.30376 0.0
H261 H 0.48192 0.85103 0.12833 0.0
H262 H 0.58896 0.84136 0.23616 0.0
H263 H 0.47475 0.86083 0.26734 0.0
H264 H 0.20071 0.44669 0.32682 0.0
H265 H 0.268 0.54702 0.34195 0.0
H266 H 0.20676 0.45532 0.27136 0.0
H267 H 0.27339 0.55621 0.28641 0.0
H268 H 0.21068 0.57966 0.19011 0.0
H269 H 0.21612 0.56961 0.24545 0.0
H270 H 0.26438 0.45902 0.22957 0.0
H271 H 0.2597 0.46952 0.17409 0.0
C272 C 0.21696 0.47041 0.31816 0.0
C273 C 0.23382 0.49626 0.33841 0.0
C274 C 0.22063 0.4752 0.2866 0.0
C275 C 0.24052 0.50639 0.27483 0.0
C276 C 0.25794 0.53194 0.29507 0.0
C277 C 0.255 0.52663 0.32666 0.0
C278 C 0.22272 0.55339 0.19854 0.0
C279 C 0.23461 0.52526 0.17806 0.0
C280 C 0.22608 0.54777 0.23005 0.0
C281 C 0.24066 0.51358 0.24156 0.0
C282 C 0.25306 0.4856 0.22111 0.0
C283 C 0.25051 0.49161 0.18954 0.0
H284 H 0.4857 0.28425 0.42527 0.0
H285 H 0.51057 0.16445 0.43054 0.0
H286 H 0.49413 0.28922 0.48068 0.0
H287 H 0.51678 0.16901 0.48536 0.0
H288 H 0.56254 0.18943 0.57813 0.0
H289 H 0.55925 0.19299 0.52259 0.0
H290 H 0.46519 0.27107 0.52912 0.0
H291 H 0.46962 0.26824 0.58511 0.0
C292 C 0.49291 0.259 0.4381 0.0
C293 C 0.49737 0.22392 0.42324 0.0
C294 C 0.49737 0.2618 0.46992 0.0
C295 C 0.50646 0.22959 0.48751 0.0
C296 C 0.51057 0.19461 0.47258 0.0
C297 C 0.50633 0.19186 0.44098 0.0
C298 C 0.54135 0.2075 0.56763 0.0
C299 C 0.51598 0.22812 0.58577 0.0
C300 C 0.53931 0.20949 0.53583 0.0
C301 C 0.51141 0.23169 0.52131 0.0
C302 C 0.4871 0.25379 0.53951 0.0
C303 C 0.48952 0.25215 0.57151 0.0
H304 H 0.82487 0.4478 0.6776 0.0
H305 H 0.74075 0.53607 0.6706 0.0
H306 H 0.82359 0.45259 0.73313 0.0
H307 H 0.74012 0.54199 0.72637 0.0
H308 H 0.72898 0.52279 0.82976 0.0
H309 H 0.72435 0.51349 0.77466 0.0
H310 H 0.84535 0.49542 0.77059 0.0
H311 H 0.84971 0.50233 0.8254 0.0
C312 C 0.80618 0.46833 0.68805 0.0
C313 C 0.78319 0.49178 0.66986 0.0
C314 C 0.80551 0.47125 0.71986 0.0
C315 C 0.78221 0.49814 0.73432 0.0
C316 C 0.7582 0.52077 0.71609 0.0
C317 C 0.75856 0.51748 0.68416 0.0
C318 C 0.75456 0.51639 0.81723 0.0
C319 C 0.78975 0.51333 0.83237 0.0
C320 C 0.75193 0.51146 0.78549 0.0
C321 C 0.78442 0.50346 0.7681 0.0
C322 C 0.81955 0.50079 0.78321 0.0
C323 C 0.82215 0.50542 0.81482 0.0
H324 H 0.56877 0.82007 0.9355 0.0
H325 H 0.47202 0.74656 0.92418 0.0
H326 H 0.56028 0.81883 0.99066 0.0
H327 H 0.46277 0.74586 0.97966 0.0
H328 H 0.47926 0.72927 0.08366 0.0
H329 H 0.48879 0.7255 0.02854 0.0
H330 H 0.51661 0.84471 0.02646 0.0
H331 H 0.50926 0.84805 0.08136 0.0
C332 C 0.54551 0.80381 0.94488 0.0
C333 C 0.52076 0.78382 0.92558 0.0
C334 C 0.54055 0.80315 0.97648 0.0
C335 C 0.51045 0.78277 0.98958 0.0
C336 C 0.48636 0.76168 0.97033 0.0
C337 C 0.49158 0.7621 0.9386 0.0
C338 C 0.48777 0.75459 0.07152 0.0
C339 C 0.49368 0.78893 0.08718 0.0
C340 C 0.49282 0.7525 0.03982 0.0
C341 C 0.50381 0.78471 0.0231 0.0
C342 C 0.50888 0.81914 0.03868 0.0
C343 C 0.50407 0.82119 0.07026 0.0
H344 H 0.10311 0.41204 0.02448 0.0
H345 H 0.09273 0.53383 0.02798 0.0
H346 H 0.03358 0.40655 0.02096 0.0
H347 H 0.02406 0.52841 0.02472 0.0
H348 H 0.90315 0.50732 0.04998 0.0
H349 H 0.97127 0.50239 0.05858 0.0
H350 H 0.98083 0.42704 0.98139 0.0
H351 H 0.91258 0.43261 0.97217 0.0
C352 C 0.08599 0.43752 0.02454 0.0
C353 C 0.1033 0.47336 0.02619 0.0
C354 C 0.04634 0.4344 0.02246 0.0
C355 C 0.02343 0.46705 0.02279 0.0
C356 C 0.0409 0.50273 0.02478 0.0
C357 C 0.08026 0.50584 0.02631 0.0
C358 C 0.91962 0.48945 0.03493 0.0
C359 C 0.90238 0.47094 0.01002 0.0
C360 C 0.95865 0.48656 0.03993 0.0
C361 C 0.98143 0.46478 0.02039 0.0
C362 C 0.96395 0.44395 0.99687 0.0
C363 C 0.92481 0.44709 0.99167 0.0
H364 H 0.59005 0.1006 0.24524 0.0
H365 H 0.47653 0.0874 0.28043 0.0
H366 H 0.59774 0.03153 0.24527 0.0
H367 H 0.48367 0.01913 0.27945 0.0
H368 H 0.51378 0.90028 0.30148 0.0
H369 H 0.51719 0.96908 0.30582 0.0
H370 H 0.57363 0.97502 0.21842 0.0
H371 H 0.57058 0.90607 0.21429 0.0
C372 C 0.56675 0.08304 0.25288 0.0
C373 C 0.53255 0.09961 0.26255 0.0
C374 C 0.57107 0.04349 0.25275 0.0
C375 C 0.54143 0.01975 0.26261 0.0
C376 C 0.50735 0.03645 0.27222 0.0
C377 C 0.50301 0.07573 0.27225 0.0
C378 C 0.52742 0.91624 0.28342 0.0
C379 C 0.54157 0.89775 0.25742 0.0
C380 C 0.52923 0.95568 0.28581 0.0
C381 C 0.54502 0.97766 0.26217 0.0
C382 C 0.56141 0.95899 0.23709 0.0
C383 C 0.55974 0.91944 0.23476 0.0
H384 H 0.08876 0.4787 0.47668 0.0
H385 H 0.10244 0.59017 0.51596 0.0
H386 H 0.02063 0.48626 0.47734 0.0
H387 H 0.03346 0.5985 0.51533 0.0
H388 H 0.90769 0.57197 0.54452 0.0
H389 H 0.97667 0.57478 0.54061 0.0
H390 H 0.97054 0.51984 0.45247 0.0
H391 H 0.90174 0.51632 0.4568 0.0
C392 C 0.07724 0.50486 0.48564 0.0
C393 C 0.10125 0.5336 0.49669 0.0
C394 C 0.038 0.50949 0.48546 0.0
C395 C 0.02141 0.54316 0.49608 0.0
C396 C 0.04529 0.57213 0.50709 0.0
C397 C 0.08482 0.56746 0.50727 0.0
C398 C 0.92107 0.56135 0.52399 0.0
C399 C 0.89935 0.54357 0.5011 0.0
C400 C 0.96065 0.56292 0.52175 0.0
C401 C 0.97929 0.54691 0.49648 0.0
C402 C 0.95723 0.53154 0.47264 0.0
C403 C 0.91778 0.5297 0.475 0.0
H404 H 0.42288 0.10547 0.77896 0.0
H405 H 0.51874 0.08484 0.72022 0.0
H406 H 0.41289 0.03671 0.78379 0.0
H407 H 0.50888 0.01681 0.72496 0.0
H408 H 0.46393 0.89826 0.71721 0.0
H409 H 0.46145 0.96684 0.71025 0.0
H410 H 0.44998 0.98165 0.80773 0.0
H411 H 0.45347 0.91326 0.81494 0.0
C412 C 0.4416 0.08627 0.76698 0.0
C413 C 0.47182 0.10045 0.74949 0.0
C414 C 0.43599 0.04702 0.7698 0.0
C415 C 0.46001 0.02136 0.75463 0.0
C416 C 0.48961 0.03576 0.73663 0.0
C417 C 0.49552 0.07474 0.7342 0.0
C418 C 0.46065 0.91604 0.73719 0.0
C419 C 0.45934 0.90001 0.76667 0.0
C420 C 0.45912 0.95536 0.73317 0.0
C421 C 0.45587 0.97966 0.75848 0.0
C422 C 0.45217 0.96367 0.78776 0.0
C423 C 0.45405 0.92434 0.79184 0.0
H424 H 0.39944 0.77074 0.14732 0.0
H425 H 0.38148 0.67016 0.20149 0.0
H426 H 0.34934 0.7506 0.11177 0.0
H427 H 0.33041 0.65073 0.1668 0.0
H428 H 0.23698 0.62482 0.10393 0.0
H429 H 0.2632 0.67289 0.13836 0.0
H430 H 0.36115 0.68341 0.08013 0.0
H431 H 0.33574 0.63418 0.04663 0.0
C432 C 0.38337 0.74532 0.15237 0.0
C433 C 0.3937 0.72198 0.17705 0.0
C434 C 0.35489 0.73386 0.1321 0.0
C435 C 0.33593 0.6994 0.1368 0.0
C436 C 0.34418 0.67779 0.16306 0.0
C437 C 0.37334 0.68873 0.18282 0.0
C438 C 0.26304 0.63902 0.09763 0.0
C439 C 0.28436 0.62625 0.07265 0.0
C440 C 0.2781 0.66627 0.11741 0.0
C441 C 0.31411 0.68162 0.11183 0.0
C442 C 0.33309 0.67227 0.08467 0.0
C443 C 0.31856 0.64425 0.06544 0.0
H444 H 0.40283 0.24586 0.36333 0.0
H445 H 0.39023 0.34154 0.30263 0.0
H446 H 0.3558 0.27344 0.39804 0.0
H447 H 0.34206 0.36835 0.3366 0.0
H448 H 0.24654 0.3981 0.4027 0.0
H449 H 0.27279 0.34947 0.36864 0.0
H450 H 0.37503 0.34658 0.42311 0.0
H451 H 0.34945 0.39631 0.45622 0.0
C452 C 0.38844 0.27177 0.35673 0.0
C453 C 0.39945 0.2916 0.33038 0.0
C454 C 0.36178 0.2875 0.37654 0.0
C455 C 0.34534 0.3227 0.36971 0.0
C456 C 0.35401 0.34083 0.34197 0.0
C457 C 0.38142 0.32562 0.32261 0.0
C458 C 0.27398 0.38586 0.40796 0.0
C459 C 0.29608 0.4003 0.432 0.0
C460 C 0.28893 0.3583 0.38852 0.0
C461 C 0.32563 0.34431 0.39358 0.0
C462 C 0.34639 0.35664 0.41916 0.0
C463 C 0.33192 0.38497 0.438 0.0
H464 H 0.6065 0.24497 0.64507 0.0
H465 H 0.61756 0.34164 0.70463 0.0
H466 H 0.65425 0.2721 0.61065 0.0
H467 H 0.66629 0.36809 0.67099 0.0
H468 H 0.76112 0.40118 0.60845 0.0
H469 H 0.7349 0.35225 0.64229 0.0
H470 H 0.63803 0.34123 0.58236 0.0
H471 H 0.6636 0.39113 0.54929 0.0
C472 C 0.6206 0.27109 0.65146 0.0
C473 C 0.60903 0.29128 0.6774 0.0
C474 C 0.64766 0.28657 0.63181 0.0
C475 C 0.66393 0.32192 0.63841 0.0
C476 C 0.65451 0.34048 0.66576 0.0
C477 C 0.62674 0.32551 0.68493 0.0
C478 C 0.73506 0.387 0.60195 0.0
C479 C 0.71435 0.39922 0.57632 0.0
C480 C 0.72008 0.35928 0.62128 0.0
C481 C 0.68469 0.34303 0.61471 0.0
C482 C 0.66568 0.35299 0.58756 0.0
C483 C 0.68018 0.38142 0.5687 0.0
H484 H 0.6673 0.62089 0.94567 0.0
H485 H 0.77299 0.61763 0.89655 0.0
H486 H 0.64586 0.67362 0.91353 0.0
H487 H 0.75093 0.66952 0.86334 0.0
H488 H 0.63806 0.68486 0.79324 0.0
H489 H 0.68717 0.65838 0.82651 0.0
H490 H 0.66488 0.74546 0.89323 0.0
H491 H 0.61673 0.77276 0.85931 0.0
C492 C 0.68631 0.63242 0.9286 0.0
C493 C 0.72175 0.61584 0.92358 0.0
C494 C 0.67423 0.66257 0.91033 0.0
C495 C 0.69697 0.67569 0.88618 0.0
C496 C 0.73323 0.66018 0.8821 0.0
C497 C 0.74578 0.6307 0.90103 0.0
C498 C 0.64556 0.6998 0.81402 0.0
C499 C 0.62419 0.73102 0.82365 0.0
C500 C 0.67349 0.6846 0.83315 0.0
C501 C 0.67947 0.69984 0.86244 0.0
C502 C 0.66088 0.73346 0.87065 0.0
C503 C 0.63361 0.7492 0.85116 0.0
H504 H 0.31591 0.36844 0.06586 0.0
H505 H 0.33468 0.47199 0.11635 0.0
H506 H 0.35677 0.33444 0.10245 0.0
H507 H 0.3739 0.43807 0.15281 0.0
H508 H 0.40615 0.35739 0.23071 0.0
H509 H 0.36354 0.38625 0.19305 0.0
H510 H 0.42826 0.3361 0.11999 0.0
H511 H 0.47107 0.30727 0.15776 0.0
C512 C 0.32847 0.38395 0.0847 0.0
C513 C 0.32141 0.42297 0.08822 0.0
C514 C 0.3519 0.36449 0.10561 0.0
C515 C 0.36817 0.38352 0.13073 0.0
C516 C 0.36127 0.42243 0.13405 0.0
C517 C 0.33862 0.44189 0.11301 0.0
C518 C 0.4111 0.35223 0.20665 0.0
C519 C 0.44215 0.33022 0.19726 0.0
C520 C 0.38682 0.3689 0.18506 0.0
C521 C 0.39257 0.36349 0.15353 0.0
C522 C 0.42297 0.3406 0.14411 0.0
C523 C 0.44768 0.32443 0.16572 0.0
H524 H 0.56896 0.35261 0.32004 0.0
H525 H 0.62393 0.26642 0.3747 0.0
H526 H 0.6008 0.40165 0.35007 0.0
H527 H 0.65457 0.31502 0.4051 0.0
H528 H 0.72333 0.40944 0.44624 0.0
H529 H 0.70002 0.36415 0.40857 0.0
H530 H 0.59594 0.42796 0.40032 0.0
H531 H 0.6196 0.47344 0.43759 0.0
C532 C 0.5883 0.34405 0.33808 0.0
C533 C 0.59372 0.30545 0.34492 0.0
C534 C 0.60623 0.37222 0.35559 0.0
C535 C 0.63005 0.36249 0.38036 0.0
C536 C 0.63685 0.32384 0.38611 0.0
C537 C 0.61904 0.29579 0.36863 0.0
C538 C 0.69549 0.41381 0.43639 0.0
C539 C 0.67332 0.44505 0.44518 0.0
C540 C 0.68205 0.38779 0.41472 0.0
C541 C 0.64592 0.39211 0.40134 0.0
C542 C 0.62413 0.42388 0.40964 0.0
C543 C 0.63768 0.45002 0.43117 0.0
H544 H 0.534 0.68603 0.66165 0.0
H545 H 0.60972 0.65288 0.73489 0.0
H546 H 0.57844 0.66035 0.62435 0.0
H547 H 0.65406 0.62788 0.69768 0.0
H548 H 0.74339 0.6221 0.62508 0.0
H549 H 0.69689 0.65198 0.65809 0.0
H550 H 0.60648 0.59938 0.60666 0.0
H551 H 0.65318 0.5695 0.57322 0.0
C552 C 0.55987 0.67307 0.66992 0.0
C553 C 0.56822 0.67196 0.70147 0.0
C554 C 0.58542 0.65842 0.64845 0.0
C555 C 0.62006 0.64249 0.65796 0.0
C556 C 0.62807 0.64076 0.68947 0.0
C557 C 0.60252 0.65517 0.71089 0.0
C558 C 0.71361 0.61732 0.62037 0.0
C559 C 0.70214 0.59315 0.59651 0.0
C560 C 0.68692 0.63422 0.63955 0.0
C561 C 0.64796 0.62756 0.6354 0.0
C562 C 0.63627 0.60515 0.61048 0.0
C563 C 0.66307 0.58805 0.59127 0.0
H564 H 0.30419 0.54026 0.91079 0.0
H565 H 0.36718 0.59742 0.98188 0.0
H566 H 0.33349 0.58125 0.87238 0.0
H567 H 0.39583 0.63877 0.94366 0.0
H568 H 0.47354 0.67206 0.86504 0.0
H569 H 0.44185 0.63178 0.90185 0.0
H570 H 0.33541 0.64942 0.85496 0.0
H571 H 0.36734 0.69041 0.81764 0.0
C572 C 0.32438 0.56143 0.91824 0.0
C573 C 0.33347 0.56535 0.94947 0.0
C574 C 0.34081 0.58524 0.89624 0.0
C575 C 0.36705 0.61327 0.90491 0.0
C576 C 0.376 0.61724 0.93614 0.0
C577 C 0.35936 0.59371 0.95811 0.0
C578 C 0.44334 0.66765 0.86242 0.0
C579 C 0.42301 0.68489 0.83832 0.0
C580 C 0.42512 0.64454 0.88373 0.0
C581 C 0.38603 0.63759 0.88157 0.0
C582 C 0.36563 0.65411 0.85719 0.0
C583 C 0.38389 0.67769 0.83587 0.0
H584 H 0.35425 0.56322 0.43426 0.0
H585 H 0.26515 0.62979 0.39266 0.0
H586 H 0.40044 0.59279 0.40024 0.0
H587 H 0.31123 0.65986 0.35925 0.0
H588 H 0.3909 0.66502 0.27732 0.0
H589 H 0.34695 0.64108 0.31544 0.0
H590 H 0.43427 0.64917 0.38464 0.0
H591 H 0.47844 0.67299 0.34629 0.0
C592 C 0.34463 0.5849 0.41846 0.0
C593 C 0.30588 0.59395 0.41616 0.0
C594 C 0.37115 0.60184 0.39885 0.0
C595 C 0.35957 0.62832 0.37653 0.0
C596 C 0.32114 0.63892 0.37556 0.0
C597 C 0.2947 0.62194 0.39502 0.0
C598 C 0.40071 0.66213 0.30069 0.0
C599 C 0.43832 0.67115 0.30861 0.0
C600 C 0.3754 0.64842 0.32267 0.0
C601 C 0.38683 0.64341 0.35332 0.0
C602 C 0.42449 0.65228 0.36126 0.0
C603 C 0.44989 0.66595 0.33921 0.0
H604 H 0.32834 0.47833 0.60308 0.0
H605 H 0.34215 0.39631 0.53076 0.0
H606 H 0.3537 0.43259 0.63993 0.0
H607 H 0.3672 0.35091 0.56734 0.0
H608 H 0.3794 0.26411 0.64091 0.0
H609 H 0.3477 0.31164 0.60962 0.0
H610 H 0.41233 0.39973 0.6542 0.0
H611 H 0.44369 0.35206 0.68605 0.0
C612 C 0.33689 0.45069 0.59496 0.0
C613 C 0.3328 0.44106 0.56387 0.0
C614 C 0.35141 0.42441 0.61613 0.0
C615 C 0.36213 0.38782 0.60675 0.0
C616 C 0.35836 0.37842 0.57562 0.0
C617 C 0.34395 0.4046 0.55453 0.0
C618 C 0.38641 0.29366 0.64452 0.0
C619 C 0.41432 0.30414 0.66594 0.0
C620 C 0.36845 0.32095 0.62631 0.0
C621 C 0.37793 0.35954 0.6289 0.0
C622 C 0.40421 0.37032 0.6516 0.0
C623 C 0.42219 0.34293 0.66992 0.0
H624 H 0.74747 0.38477 0.8852 0.0
H625 H 0.65774 0.44726 0.92931 0.0
H626 H 0.70084 0.35137 0.85424 0.0
H627 H 0.61098 0.41421 0.8978 0.0
H628 H 0.53442 0.32721 0.84912 0.0
H629 H 0.57994 0.35455 0.88504 0.0
H630 H 0.66052 0.36783 0.81167 0.0
H631 H 0.61523 0.34071 0.77592 0.0
C632 C 0.71774 0.39108 0.88862 0.0
C633 C 0.70648 0.41892 0.90971 0.0
C634 C 0.69096 0.37213 0.87059 0.0
C635 C 0.65209 0.38049 0.87306 0.0
C636 C 0.64061 0.40688 0.89532 0.0
C637 C 0.66748 0.42587 0.91343 0.0
C638 C 0.56175 0.33612 0.84059 0.0
C639 C 0.57103 0.33147 0.8095 0.0
C640 C 0.58792 0.3518 0.86125 0.0
C641 C 0.62411 0.36319 0.8514 0.0
C642 C 0.63329 0.35862 0.82031 0.0
C643 C 0.60719 0.34302 0.7997 0.0
H644 H 0.55938 0.65205 0.17704 0.0
H645 H 0.62514 0.74332 0.13816 0.0
H646 H 0.59164 0.60703 0.14359 0.0
H647 H 0.6577 0.69846 0.10528 0.0
H648 H 0.6686 0.61899 0.02321 0.0
H649 H 0.64161 0.66213 0.06059 0.0
H650 H 0.65057 0.57551 0.13014 0.0
H651 H 0.67765 0.53224 0.09268 0.0
C652 C 0.58133 0.66242 0.16193 0.0
C653 C 0.58945 0.7014 0.16024 0.0
C654 C 0.59984 0.63658 0.14266 0.0
C655 C 0.62692 0.64912 0.12128 0.0
C656 C 0.63639 0.68783 0.12086 0.0
C657 C 0.61791 0.71357 0.14001 0.0
C658 C 0.6653 0.60917 0.04651 0.0
C659 C 0.67549 0.57197 0.05476 0.0
C660 C 0.64979 0.63401 0.06806 0.0
C661 C 0.64401 0.62248 0.09855 0.0
C662 C 0.65418 0.5853 0.10684 0.0
C663 C 0.66973 0.56042 0.08527 0.0
loop_
_geom_bond_atom_site_label_1
_geom_bond_atom_site_label_2
_geom_bond_distance
_geom_bond_site_symmetry_2
_ccdc_geom_bond_type
Co0 N4 2.148 . S
Co0 N10 2.128 . S
Co0 N20 2.194 . S
Co0 O25 2.351 . S
Co0 O26 2.155 . S
Co0 O27 2.096 . S
C1 N4 1.301 . S
C1 N5 1.328 1_554 S
C1 H6 0.930 . S
C2 C3 1.333 1_554 S
C2 N4 1.317 . S
C2 H7 0.930 . S
C3 C2 1.333 1_556 S
C3 N5 1.350 . S
C3 H29 0.931 . S
N4 Co0 2.148 . S
N4 C1 1.301 . S
N4 C2 1.317 . S
N5 C1 1.328 1_556 S
N5 C3 1.350 . S
H6 C1 0.930 . S
H7 C2 0.930 . S
C8 O9 1.224 . S
C8 O27 1.247 . S
O9 C8 1.224 . S
N10 Co0 2.128 . S
N10 C11 1.355 . S
N10 C13 1.311 . S
C11 N10 1.355 . S
C11 C12 1.363 . S
C11 H23 0.929 . S
C12 C11 1.363 . S
C12 N14 1.375 . S
C12 H30 0.931 . S
C13 N10 1.311 . S
C13 N14 1.347 . S
C13 H24 0.929 . S
N14 C12 1.375 . S
N14 C13 1.347 . S
C15 C18 1.365 . S
C15 N20 1.328 . S
C15 H21 0.929 . S
C16 C17 1.362 . S
C16 C19 1.378 . S
C16 H31 0.929 . S
C17 C16 1.362 . S
C17 C18 1.366 . S
C18 C15 1.365 . S
C18 C17 1.366 . S
C18 H32 0.930 . S
C19 C16 1.378 . S
C19 N20 1.315 . S
C19 H22 0.930 . S
N20 Co0 2.194 . S
N20 C15 1.328 . S
N20 C19 1.315 . S
H21 C15 0.929 . S
H22 C19 0.930 . S
H23 C11 0.929 . S
H24 C13 0.929 . S
O25 Co0 2.351 . S
O25 C28 1.244 . S
O26 Co0 2.155 . S
O26 C28 1.240 . S
O27 Co0 2.096 . S
O27 C8 1.247 . S
C28 O25 1.244 . S
C28 O26 1.240 . S
H29 C3 0.931 . S
H30 C12 0.931 . S
H31 C16 0.929 . S
H32 C18 0.930 . S
Co33 N37 2.148 . S
Co33 N43 2.128 . S
Co33 N53 2.194 . S
Co33 O58 2.351 . S
Co33 O59 2.155 . S
Co33 O60 2.096 . S
C34 N37 1.301 . S
C34 N38 1.328 . S
C34 H39 0.930 . S
C35 C36 1.333 . S
C35 N37 1.317 . S
C35 H40 0.930 . S
C36 C35 1.333 . S
C36 N38 1.350 . S
C36 H62 0.931 . S
N37 Co33 2.148 . S
N37 C34 1.301 . S
N37 C35 1.317 . S
N38 C34 1.328 . S
N38 C36 1.350 . S
H39 C34 0.930 . S
H40 C35 0.930 . S
C41 O42 1.224 . S
C41 O60 1.247 . S
O42 C41 1.224 . S
N43 Co33 2.128 . S
N43 C44 1.355 . S
N43 C46 1.311 . S
C44 N43 1.355 . S
C44 C45 1.363 . S
C44 H56 0.929 . S
C45 C44 1.363 . S
C45 N47 1.375 . S
C45 H63 0.931 . S
C46 N43 1.311 . S
C46 N47 1.347 . S
C46 H57 0.929 . S
N47 C45 1.375 . S
N47 C46 1.347 . S
C48 C51 1.365 . S
C48 N53 1.328 . S
C48 H54 0.929 . S
C49 C50 1.362 . S
C49 C52 1.378 . S
C49 H64 0.929 . S
C50 C49 1.362 . S
C50 C51 1.366 . S
C51 C48 1.365 . S
C51 C50 1.366 . S
C51 H65 0.930 . S
C52 C49 1.378 . S
C52 N53 1.315 . S
C52 H55 0.930 . S
N53 Co33 2.194 . S
N53 C48 1.328 . S
N53 C52 1.315 . S
H54 C48 0.929 . S
H55 C52 0.930 . S
H56 C44 0.929 . S
H57 C46 0.929 . S
O58 Co33 2.351 . S
O58 C61 1.244 . S
O59 Co33 2.155 . S
O59 C61 1.240 . S
O60 Co33 2.096 . S
O60 C41 1.247 . S
C61 O58 1.244 . S
C61 O59 1.240 . S
H62 C36 0.931 . S
H63 C45 0.931 . S
H64 C49 0.929 . S
H65 C51 0.930 . S
Co66 N70 2.148 . S
Co66 N76 2.128 . S
Co66 N86 2.194 . S
Co66 O91 2.351 . S
Co66 O92 2.155 . S
Co66 O93 2.096 . S
C67 N70 1.301 . S
C67 N71 1.328 . S
C67 H72 0.930 . S
C68 C69 1.333 . S
C68 N70 1.317 . S
C68 H73 0.930 . S
C69 C68 1.333 . S
C69 N71 1.350 . S
C69 H95 0.931 . S
N70 Co66 2.148 . S
N70 C67 1.301 . S
N70 C68 1.317 . S
N71 C67 1.328 . S
N71 C69 1.350 . S
H72 C67 0.930 . S
H73 C68 0.930 . S
C74 O75 1.224 . S
C74 O93 1.247 . S
O75 C74 1.224 . S
N76 Co66 2.128 . S
N76 C77 1.355 . S
N76 C79 1.311 . S
C77 N76 1.355 . S
C77 C78 1.363 . S
C77 H89 0.929 . S
C78 C77 1.363 . S
C78 N80 1.375 . S
C78 H96 0.931 . S
C79 N76 1.311 . S
C79 N80 1.347 . S
C79 H90 0.929 . S
N80 C78 1.375 . S
N80 C79 1.347 . S
C81 C84 1.365 . S
C81 N86 1.328 . S
C81 H87 0.929 . S
C82 C83 1.362 . S
C82 C85 1.378 . S
C82 H97 0.929 . S
C83 C82 1.362 . S
C83 C84 1.366 . S
C84 C81 1.365 . S
C84 C83 1.366 . S
C84 H98 0.930 . S
C85 C82 1.378 . S
C85 N86 1.315 . S
C85 H88 0.930 . S
N86 Co66 2.194 . S
N86 C81 1.328 . S
N86 C85 1.315 . S
H87 C81 0.929 . S
H88 C85 0.930 . S
H89 C77 0.929 . S
H90 C79 0.929 . S
O91 Co66 2.351 . S
O91 C94 1.244 . S
O92 Co66 2.155 . S
O92 C94 1.240 . S
O93 Co66 2.096 . S
O93 C74 1.247 . S
C94 O91 1.244 . S
C94 O92 1.240 . S
H95 C69 0.931 . S
H96 C78 0.931 . S
H97 C82 0.929 . S
H98 C84 0.930 . S
Co99 N103 2.148 . S
Co99 N109 2.128 . S
Co99 N119 2.194 . S
Co99 O124 2.351 . S
Co99 O125 2.155 . S
Co99 O126 2.096 . S
C100 N103 1.301 . S
C100 N104 1.328 . S
C100 H105 0.930 . S
C101 C102 1.333 . S
C101 N103 1.317 . S
C101 H106 0.930 . S
C102 C101 1.333 . S
C102 N104 1.350 . S
C102 H128 0.931 . S
N103 Co99 2.148 . S
N103 C100 1.301 . S
N103 C101 1.317 . S
N104 C100 1.328 . S
N104 C102 1.350 . S
H105 C100 0.930 . S
H106 C101 0.930 . S
C107 O108 1.224 . S
C107 O126 1.247 . S
O108 C107 1.224 . S
N109 Co99 2.128 . S
N109 C110 1.355 . S
N109 C112 1.311 . S
C110 N109 1.355 . S
C110 C111 1.363 . S
C110 H122 0.929 . S
C111 C110 1.363 . S
C111 N113 1.375 . S
C111 H129 0.931 . S
C112 N109 1.311 . S
C112 N113 1.347 . S
C112 H123 0.929 . S
N113 C111 1.375 . S
N113 C112 1.347 . S
C114 C117 1.365 . S
C114 N119 1.328 . S
C114 H120 0.929 . S
C115 C116 1.362 . S
C115 C118 1.378 . S
C115 H130 0.929 . S
C116 C115 1.362 . S
C116 C117 1.366 . S
C117 C114 1.365 . S
C117 C116 1.366 . S
C117 H131 0.930 . S
C118 C115 1.378 . S
C118 N119 1.315 . S
C118 H121 0.930 . S
N119 Co99 2.194 . S
N119 C114 1.328 . S
N119 C118 1.315 . S
H120 C114 0.929 . S
H121 C118 0.930 . S
H122 C110 0.929 . S
H123 C112 0.929 . S
O124 Co99 2.351 . S
O124 C127 1.244 . S
O125 Co99 2.155 . S
O125 C127 1.240 . S
O126 Co99 2.096 . S
O126 C107 1.247 . S
C127 O124 1.244 . S
C127 O125 1.240 . S
H128 C102 0.931 . S
H129 C111 0.931 . S
H130 C115 0.929 . S
H131 C117 0.930 . S
Co132 N136 2.148 . S
Co132 N142 2.128 . S
Co132 N152 2.194 . S
Co132 O157 2.351 . S
Co132 O158 2.155 . S
Co132 O159 2.096 . S
C133 N136 1.301 . S
C133 N137 1.328 . S
C133 H138 0.930 . S
C134 C135 1.333 . S
C134 N136 1.317 . S
C134 H139 0.930 . S
C135 C134 1.333 . S
C135 N137 1.350 . S
C135 H161 0.931 . S
N136 Co132 2.148 . S
N136 C133 1.301 . S
N136 C134 1.317 . S
N137 C133 1.328 . S
N137 C135 1.350 . S
H138 C133 0.930 . S
H139 C134 0.930 . S
C140 O141 1.224 . S
C140 O159 1.247 . S
O141 C140 1.224 . S
N142 Co132 2.128 . S
N142 C143 1.355 . S
N142 C145 1.311 . S
C143 N142 1.355 . S
C143 C144 1.363 . S
C143 H155 0.929 . S
C144 C143 1.363 . S
C144 N146 1.375 . S
C144 H162 0.931 . S
C145 N142 1.311 . S
C145 N146 1.347 . S
C145 H156 0.929 . S
N146 C144 1.375 . S
N146 C145 1.347 . S
C147 C150 1.365 . S
C147 N152 1.328 . S
C147 H153 0.929 . S
C148 C149 1.362 . S
C148 C151 1.378 . S
C148 H163 0.929 . S
C149 C148 1.362 . S
C149 C150 1.366 . S
C150 C147 1.365 . S
C150 C149 1.366 . S
C150 H164 0.930 . S
C151 C148 1.378 . S
C151 N152 1.315 . S
C151 H154 0.930 . S
N152 Co132 2.194 . S
N152 C147 1.328 . S
N152 C151 1.315 . S
H153 C147 0.929 . S
H154 C151 0.930 . S
H155 C143 0.929 . S
H156 C145 0.929 . S
O157 Co132 2.351 . S
O157 C160 1.244 . S
O158 Co132 2.155 . S
O158 C160 1.240 . S
O159 Co132 2.096 . S
O159 C140 1.247 . S
C160 O157 1.244 . S
C160 O158 1.240 . S
H161 C135 0.931 . S
H162 C144 0.931 . S
H163 C148 0.929 . S
H164 C150 0.930 . S
Co165 N169 2.148 . S
Co165 N175 2.128 . S
Co165 N185 2.194 . S
Co165 O190 2.351 . S
Co165 O191 2.155 . S
Co165 O192 2.096 . S
C166 N169 1.301 . S
C166 N170 1.328 . S
C166 H171 0.930 . S
C167 C168 1.333 . S
C167 N169 1.317 . S
C167 H172 0.930 . S
C168 C167 1.333 . S
C168 N170 1.350 . S
C168 H194 0.931 . S
N169 Co165 2.148 . S
N169 C166 1.301 . S
N169 C167 1.317 . S
N170 C166 1.328 . S
N170 C168 1.350 . S
H171 C166 0.930 . S
H172 C167 0.930 . S
C173 O174 1.224 . S
C173 O192 1.247 . S
O174 C173 1.224 . S
N175 Co165 2.128 . S
N175 C176 1.355 . S
N175 C178 1.311 . S
C176 N175 1.355 . S
C176 C177 1.363 . S
C176 H188 0.929 . S
C177 C176 1.363 . S
C177 N179 1.375 . S
C177 H195 0.931 . S
C178 N175 1.311 . S
C178 N179 1.347 . S
C178 H189 0.929 . S
N179 C177 1.375 . S
N179 C178 1.347 . S
C180 C183 1.365 . S
C180 N185 1.328 . S
C180 H186 0.929 . S
C181 C182 1.362 . S
C181 C184 1.378 . S
C181 H196 0.929 . S
C182 C181 1.362 . S
C182 C183 1.366 . S
C183 C180 1.365 . S
C183 C182 1.366 . S
C183 H197 0.930 . S
C184 C181 1.378 . S
C184 N185 1.315 . S
C184 H187 0.930 . S
N185 Co165 2.194 . S
N185 C180 1.328 . S
N185 C184 1.315 . S
H186 C180 0.929 . S
H187 C184 0.930 . S
H188 C176 0.929 . S
H189 C178 0.929 . S
O190 Co165 2.351 . S
O190 C193 1.244 . S
O191 Co165 2.155 . S
O191 C193 1.240 . S
O192 Co165 2.096 . S
O192 C173 1.247 . S
C193 O190 1.244 . S
C193 O191 1.240 . S
H194 C168 0.931 . S
H195 C177 0.931 . S
H196 C181 0.929 . S
H197 C183 0.930 . S
Co198 N202 2.148 . S
Co198 N208 2.128 . S
Co198 N218 2.194 . S
Co198 O223 2.351 . S
Co198 O224 2.155 . S
Co198 O225 2.096 . S
C199 N202 1.301 . S
C199 N203 1.328 1_556 S
C199 H204 0.930 . S
C200 C201 1.333 1_556 S
C200 N202 1.317 . S
C200 H205 0.930 . S
C201 C200 1.333 1_554 S
C201 N203 1.350 . S
C201 H227 0.931 . S
N202 Co198 2.148 . S
N202 C199 1.301 . S
N202 C200 1.317 . S
N203 C199 1.328 1_554 S
N203 C201 1.350 . S
H204 C199 0.930 . S
H205 C200 0.930 . S
C206 O207 1.224 . S
C206 O225 1.247 . S
O207 C206 1.224 . S
N208 Co198 2.128 . S
N208 C209 1.355 . S
N208 C211 1.311 . S
C209 N208 1.355 . S
C209 C210 1.363 . S
C209 H221 0.929 . S
C210 C209 1.363 . S
C210 N212 1.375 . S
C210 H228 0.931 . S
C211 N208 1.311 . S
C211 N212 1.347 . S
C211 H222 0.929 . S
N212 C210 1.375 . S
N212 C211 1.347 . S
C213 C216 1.365 . S
C213 N218 1.328 . S
C213 H219 0.929 . S
C214 C215 1.362 . S
C214 C217 1.378 . S
C214 H229 0.929 . S
C215 C214 1.362 . S
C215 C216 1.366 . S
C216 C213 1.365 . S
C216 C215 1.366 . S
C216 H230 0.930 . S
C217 C214 1.378 . S
C217 N218 1.315 . S
C217 H220 0.930 . S
N218 Co198 2.194 . S
N218 C213 1.328 . S
N218 C217 1.315 . S
H219 C213 0.929 . S
H220 C217 0.930 . S
H221 C209 0.929 . S
H222 C211 0.929 . S
O223 Co198 2.351 . S
O223 C226 1.244 . S
O224 Co198 2.155 . S
O224 C226 1.240 . S
O225 Co198 2.096 . S
O225 C206 1.247 . S
C226 O223 1.244 . S
C226 O224 1.240 . S
H227 C201 0.931 . S
H228 C210 0.931 . S
H229 C214 0.929 . S
H230 C216 0.930 . S
Co231 N235 2.148 . S
Co231 N241 2.128 . S
Co231 N251 2.194 . S
Co231 O256 2.351 . S
Co231 O257 2.155 . S
Co231 O258 2.096 . S
C232 N235 1.301 . S
C232 N236 1.328 . S
C232 H237 0.930 . S
C233 C234 1.333 . S
C233 N235 1.317 . S
C233 H238 0.930 . S
C234 C233 1.333 . S
C234 N236 1.350 . S
C234 H260 0.931 . S
N235 Co231 2.148 . S
N235 C232 1.301 . S
N235 C233 1.317 . S
N236 C232 1.328 . S
N236 C234 1.350 . S
H237 C232 0.930 . S
H238 C233 0.930 . S
C239 O240 1.224 . S
C239 O258 1.247 . S
O240 C239 1.224 . S
N241 Co231 2.128 . S
N241 C242 1.355 . S
N241 C244 1.311 . S
C242 N241 1.355 . S
C242 C243 1.363 . S
C242 H254 0.929 . S
C243 C242 1.363 . S
C243 N245 1.375 . S
C243 H261 0.931 . S
C244 N241 1.311 . S
C244 N245 1.347 . S
C244 H255 0.929 . S
N245 C243 1.375 . S
N245 C244 1.347 . S
C246 C249 1.365 . S
C246 N251 1.328 . S
C246 H252 0.929 . S
C247 C248 1.362 . S
C247 C250 1.378 . S
C247 H262 0.929 . S
C248 C247 1.362 . S
C248 C249 1.366 . S
C249 C246 1.365 . S
C249 C248 1.366 . S
C249 H263 0.930 . S
C250 C247 1.378 . S
C250 N251 1.315 . S
C250 H253 0.930 . S
N251 Co231 2.194 . S
N251 C246 1.328 . S
N251 C250 1.315 . S
H252 C246 0.929 . S
H253 C250 0.930 . S
H254 C242 0.929 . S
H255 C244 0.929 . S
O256 Co231 2.351 . S
O256 C259 1.244 . S
O257 Co231 2.155 . S
O257 C259 1.240 . S
O258 Co231 2.096 . S
O258 C239 1.247 . S
C259 O256 1.244 . S
C259 O257 1.240 . S
H260 C234 0.931 . S
H261 C243 0.931 . S
H262 C247 0.929 . S
H263 C249 0.930 . S
H264 C272 0.950 . S
H265 C277 0.950 . S
H266 C274 0.950 . S
H267 C276 0.950 . S
H268 C278 0.950 . S
H269 C280 0.950 . S
H270 C282 0.950 . S
H271 C283 0.950 . S
C272 H264 0.950 . S
C272 C273 1.386 . S
C272 C274 1.391 . S
C273 C272 1.386 . S
C273 C277 1.393 . S
C274 H266 0.950 . S
C274 C272 1.391 . S
C274 C275 1.400 . S
C275 C274 1.400 . S
C275 C276 1.398 . S
C275 C281 1.491 . S
C276 H267 0.950 . S
C276 C275 1.398 . S
C276 C277 1.391 . S
C277 H265 0.950 . S
C277 C273 1.393 . S
C277 C276 1.391 . S
C278 H268 0.950 . S
C278 C279 1.386 . S
C278 C280 1.391 . S
C279 C278 1.386 . S
C279 C283 1.393 . S
C280 H269 0.950 . S
C280 C278 1.391 . S
C280 C281 1.400 . S
C281 C275 1.491 . S
C281 C280 1.400 . S
C281 C282 1.398 . S
C282 H270 0.950 . S
C282 C281 1.398 . S
C282 C283 1.391 . S
C283 H271 0.950 . S
C283 C279 1.393 . S
C283 C282 1.391 . S
H284 C292 0.950 . S
H285 C297 0.950 . S
H286 C294 0.950 . S
H287 C296 0.950 . S
H288 C298 0.950 . S
H289 C300 0.950 . S
H290 C302 0.950 . S
H291 C303 0.950 . S
C292 H284 0.950 . S
C292 C293 1.386 . S
C292 C294 1.391 . S
C293 C292 1.386 . S
C293 C297 1.393 . S
C294 H286 0.950 . S
C294 C292 1.391 . S
C294 C295 1.400 . S
C295 C294 1.400 . S
C295 C296 1.398 . S
C295 C301 1.491 . S
C296 H287 0.950 . S
C296 C295 1.398 . S
C296 C297 1.391 . S
C297 H285 0.950 . S
C297 C293 1.393 . S
C297 C296 1.391 . S
C298 H288 0.950 . S
C298 C299 1.386 . S
C298 C300 1.391 . S
C299 C298 1.386 . S
C299 C303 1.393 . S
C300 H289 0.950 . S
C300 C298 1.391 . S
C300 C301 1.400 . S
C301 C295 1.491 . S
C301 C300 1.400 . S
C301 C302 1.398 . S
C302 H290 0.950 . S
C302 C301 1.398 . S
C302 C303 1.391 . S
C303 H291 0.950 . S
C303 C299 1.393 . S
C303 C302 1.391 . S
H304 C312 0.950 . S
H305 C317 0.950 . S
H306 C314 0.950 . S
H307 C316 0.950 . S
H308 C318 0.950 . S
H309 C320 0.950 . S
H310 C322 0.950 . S
H311 C323 0.950 . S
C312 H304 0.950 . S
C312 C313 1.386 . S
C312 C314 1.391 . S
C313 C312 1.386 . S
C313 C317 1.393 . S
C314 H306 0.950 . S
C314 C312 1.391 . S
C314 C315 1.400 . S
C315 C314 1.400 . S
C315 C316 1.398 . S
C315 C321 1.491 . S
C316 H307 0.950 . S
C316 C315 1.398 . S
C316 C317 1.391 . S
C317 H305 0.950 . S
C317 C313 1.393 . S
C317 C316 1.391 . S
C318 H308 0.950 . S
C318 C319 1.386 . S
C318 C320 1.391 . S
C319 C318 1.386 . S
C319 C323 1.393 . S
C320 H309 0.950 . S
C320 C318 1.391 . S
C320 C321 1.400 . S
C321 C315 1.491 . S
C321 C320 1.400 . S
C321 C322 1.398 . S
C322 H310 0.950 . S
C322 C321 1.398 . S
C322 C323 1.391 . S
C323 H311 0.950 . S
C323 C319 1.393 . S
C323 C322 1.391 . S
H324 C332 0.950 . S
H325 C337 0.950 . S
H326 C334 0.950 . S
H327 C336 0.950 . S
H328 C338 0.950 . S
H329 C340 0.950 . S
H330 C342 0.950 . S
H331 C343 0.950 . S
C332 H324 0.950 . S
C332 C333 1.386 . S
C332 C334 1.391 . S
C333 C332 1.386 . S
C333 C337 1.393 . S
C334 H326 0.950 . S
C334 C332 1.391 . S
C334 C335 1.400 . S
C335 C334 1.400 . S
C335 C336 1.398 . S
C335 C341 1.491 1_556 S
C336 H327 0.950 . S
C336 C335 1.398 . S
C336 C337 1.391 . S
C337 H325 0.950 . S
C337 C333 1.393 . S
C337 C336 1.391 . S
C338 H328 0.950 . S
C338 C339 1.386 . S
C338 C340 1.391 . S
C339 C338 1.386 . S
C339 C343 1.393 . S
C340 H329 0.950 . S
C340 C338 1.391 . S
C340 C341 1.400 . S
C341 C335 1.491 1_554 S
C341 C340 1.400 . S
C341 C342 1.398 . S
C342 H330 0.950 . S
C342 C341 1.398 . S
C342 C343 1.391 . S
C343 H331 0.950 . S
C343 C339 1.393 . S
C343 C342 1.391 . S
H344 C352 0.950 . S
H345 C357 0.950 . S
H346 C354 0.950 . S
H347 C356 0.950 . S
H348 C358 0.950 . S
H349 C360 0.950 . S
H350 C362 0.950 . S
H351 C363 0.950 . S
C352 H344 0.950 . S
C352 C353 1.386 1_556 S
C352 C354 1.391 . S
C353 C352 1.386 1_554 S
C353 C357 1.393 . S
C354 H346 0.950 . S
C354 C352 1.391 . S
C354 C355 1.400 1_556 S
C355 C354 1.400 1_554 S
C355 C356 1.398 . S
C355 C361 1.491 1_454 S
C356 H347 0.950 . S
C356 C355 1.398 . S
C356 C357 1.391 . S
C357 H345 0.950 . S
C357 C353 1.393 . S
C357 C356 1.391 . S
C358 H348 0.950 . S
C358 C359 1.386 1_554 S
C358 C360 1.391 . S
C359 C358 1.386 1_556 S
C359 C363 1.393 . S
C360 H349 0.950 . S
C360 C358 1.391 . S
C360 C361 1.400 1_554 S
C361 C355 1.491 1_656 S
C361 C360 1.400 1_556 S
C361 C362 1.398 . S
C362 H350 0.950 . S
C362 C361 1.398 . S
C362 C363 1.391 . S
C363 H351 0.950 . S
C363 C359 1.393 . S
C363 C362 1.391 . S
H364 C372 0.950 . S
H365 C377 0.950 . S
H366 C374 0.950 . S
H367 C376 0.950 . S
H368 C378 0.950 . S
H369 C380 0.950 . S
H370 C382 0.950 . S
H371 C383 0.950 . S
C372 H364 0.950 . S
C372 C373 1.386 . S
C372 C374 1.391 . S
C373 C372 1.386 . S
C373 C377 1.393 . S
C374 H366 0.950 . S
C374 C372 1.391 . S
C374 C375 1.400 . S
C375 C374 1.400 . S
C375 C376 1.398 . S
C375 C381 1.491 1_545 S
C376 H367 0.950 . S
C376 C375 1.398 . S
C376 C377 1.391 . S
C377 H365 0.950 . S
C377 C373 1.393 . S
C377 C376 1.391 . S
C378 H368 0.950 . S
C378 C379 1.386 . S
C378 C380 1.391 . S
C379 C378 1.386 . S
C379 C383 1.393 . S
C380 H369 0.950 . S
C380 C378 1.391 . S
C380 C381 1.400 . S
C381 C375 1.491 1_565 S
C381 C380 1.400 . S
C381 C382 1.398 . S
C382 H370 0.950 . S
C382 C381 1.398 . S
C382 C383 1.391 . S
C383 H371 0.950 . S
C383 C379 1.393 . S
C383 C382 1.391 . S
H384 C392 0.950 . S
H385 C397 0.950 . S
H386 C394 0.950 . S
H387 C396 0.950 . S
H388 C398 0.950 . S
H389 C400 0.950 . S
H390 C402 0.950 . S
H391 C403 0.950 . S
C392 H384 0.950 . S
C392 C393 1.386 . S
C392 C394 1.391 . S
C393 C392 1.386 . S
C393 C397 1.393 . S
C394 H386 0.950 . S
C394 C392 1.391 . S
C394 C395 1.400 . S
C395 C394 1.400 . S
C395 C396 1.398 . S
C395 C401 1.491 1_455 S
C396 H387 0.950 . S
C396 C395 1.398 . S
C396 C397 1.391 . S
C397 H385 0.950 . S
C397 C393 1.393 . S
C397 C396 1.391 . S
C398 H388 0.950 . S
C398 C399 1.386 . S
C398 C400 1.391 . S
C399 C398 1.386 . S
C399 C403 1.393 . S
C400 H389 0.950 . S
C400 C398 1.391 . S
C400 C401 1.400 . S
C401 C395 1.491 1_655 S
C401 C400 1.400 . S
C401 C402 1.398 . S
C402 H390 0.950 . S
C402 C401 1.398 . S
C402 C403 1.391 . S
C403 H391 0.950 . S
C403 C399 1.393 . S
C403 C402 1.391 . S
H404 C412 0.950 . S
H405 C417 0.950 . S
H406 C414 0.950 . S
H407 C416 0.950 . S
H408 C418 0.950 . S
H409 C420 0.950 . S
H410 C422 0.950 . S
H411 C423 0.950 . S
C412 H404 0.950 . S
C412 C413 1.386 . S
C412 C414 1.391 . S
C413 C412 1.386 . S
C413 C417 1.393 . S
C414 H406 0.950 . S
C414 C412 1.391 . S
C414 C415 1.400 . S
C415 C414 1.400 . S
C415 C416 1.398 . S
C415 C421 1.491 1_545 S
C416 H407 0.950 . S
C416 C415 1.398 . S
C416 C417 1.391 . S
C417 H405 0.950 . S
C417 C413 1.393 . S
C417 C416 1.391 . S
C418 H408 0.950 . S
C418 C419 1.386 . S
C418 C420 1.391 . S
C419 C418 1.386 . S
C419 C423 1.393 . S
C420 H409 0.950 . S
C420 C418 1.391 . S
C420 C421 1.400 . S
C421 C415 1.491 1_565 S
C421 C420 1.400 . S
C421 C422 1.398 . S
C422 H410 0.950 . S
C422 C421 1.398 . S
C422 C423 1.391 . S
C423 H411 0.950 . S
C423 C419 1.393 . S
C423 C422 1.391 . S
H424 C432 0.950 . S
H425 C437 0.950 . S
H426 C434 0.950 . S
H427 C436 0.950 . S
H428 C438 0.950 . S
H429 C440 0.950 . S
H430 C442 0.950 . S
H431 C443 0.950 . S
C432 H424 0.950 . S
C432 C433 1.386 . S
C432 C434 1.391 . S
C433 C432 1.386 . S
C433 C437 1.393 . S
C434 H426 0.950 . S
C434 C432 1.391 . S
C434 C435 1.400 . S
C435 C434 1.400 . S
C435 C436 1.398 . S
C435 C441 1.491 . S
C436 H427 0.950 . S
C436 C435 1.398 . S
C436 C437 1.391 . S
C437 H425 0.950 . S
C437 C433 1.393 . S
C437 C436 1.391 . S
C438 H428 0.950 . S
C438 C439 1.386 . S
C438 C440 1.391 . S
C439 C438 1.386 . S
C439 C443 1.393 . S
C440 H429 0.950 . S
C440 C438 1.391 . S
C440 C441 1.400 . S
C441 C435 1.491 . S
C441 C440 1.400 . S
C441 C442 1.398 . S
C442 H430 0.950 . S
C442 C441 1.398 . S
C442 C443 1.391 . S
C443 H431 0.950 . S
C443 C439 1.393 . S
C443 C442 1.391 . S
H444 C452 0.950 . S
H445 C457 0.950 . S
H446 C454 0.950 . S
H447 C456 0.950 . S
H448 C458 0.950 . S
H449 C460 0.950 . S
H450 C462 0.950 . S
H451 C463 0.950 . S
C452 H444 0.950 . S
C452 C453 1.386 . S
C452 C454 1.391 . S
C453 C452 1.386 . S
C453 C457 1.393 . S
C454 H446 0.950 . S
C454 C452 1.391 . S
C454 C455 1.400 . S
C455 C454 1.400 . S
C455 C456 1.398 . S
C455 C461 1.491 . S
C456 H447 0.950 . S
C456 C455 1.398 . S
C456 C457 1.391 . S
C457 H445 0.950 . S
C457 C453 1.393 . S
C457 C456 1.391 . S
C458 H448 0.950 . S
C458 C459 1.386 . S
C458 C460 1.391 . S
C459 C458 1.386 . S
C459 C463 1.393 . S
C460 H449 0.950 . S
C460 C458 1.391 . S
C460 C461 1.400 . S
C461 C455 1.491 . S
C461 C460 1.400 . S
C461 C462 1.398 . S
C462 H450 0.950 . S
C462 C461 1.398 . S
C462 C463 1.391 . S
C463 H451 0.950 . S
C463 C459 1.393 . S
C463 C462 1.391 . S
H464 C472 0.950 . S
H465 C477 0.950 . S
H466 C474 0.950 . S
H467 C476 0.950 . S
H468 C478 0.950 . S
H469 C480 0.950 . S
H470 C482 0.950 . S
H471 C483 0.950 . S
C472 H464 0.950 . S
C472 C473 1.386 . S
C472 C474 1.391 . S
C473 C472 1.386 . S
C473 C477 1.393 . S
C474 H466 0.950 . S
C474 C472 1.391 . S
C474 C475 1.400 . S
C475 C474 1.400 . S
C475 C476 1.398 . S
C475 C481 1.491 . S
C476 H467 0.950 . S
C476 C475 1.398 . S
C476 C477 1.391 . S
C477 H465 0.950 . S
C477 C473 1.393 . S
C477 C476 1.391 . S
C478 H468 0.950 . S
C478 C479 1.386 . S
C478 C480 1.391 . S
C479 C478 1.386 . S
C479 C483 1.393 . S
C480 H469 0.950 . S
C480 C478 1.391 . S
C480 C481 1.400 . S
C481 C475 1.491 . S
C481 C480 1.400 . S
C481 C482 1.398 . S
C482 H470 0.950 . S
C482 C481 1.398 . S
C482 C483 1.391 . S
C483 H471 0.950 . S
C483 C479 1.393 . S
C483 C482 1.391 . S
H484 C492 0.950 . S
H485 C497 0.950 . S
H486 C494 0.950 . S
H487 C496 0.950 . S
H488 C498 0.950 . S
H489 C500 0.950 . S
H490 C502 0.950 . S
H491 C503 0.950 . S
C492 H484 0.950 . S
C492 C493 1.386 . S
C492 C494 1.391 . S
C493 C492 1.386 . S
C493 C497 1.393 . S
C494 H486 0.950 . S
C494 C492 1.391 . S
C494 C495 1.400 . S
C495 C494 1.400 . S
C495 C496 1.398 . S
C495 C501 1.491 . S
C496 H487 0.950 . S
C496 C495 1.398 . S
C496 C497 1.391 . S
C497 H485 0.950 . S
C497 C493 1.393 . S
C497 C496 1.391 . S
C498 H488 0.950 . S
C498 C499 1.386 . S
C498 C500 1.391 . S
C499 C498 1.386 . S
C499 C503 1.393 . S
C500 H489 0.950 . S
C500 C498 1.391 . S
C500 C501 1.400 . S
C501 C495 1.491 . S
C501 C500 1.400 . S
C501 C502 1.398 . S
C502 H490 0.950 . S
C502 C501 1.398 . S
C502 C503 1.391 . S
C503 H491 0.950 . S
C503 C499 1.393 . S
C503 C502 1.391 . S
H504 C512 0.950 . S
H505 C517 0.950 . S
H506 C514 0.950 . S
H507 C516 0.950 . S
H508 C518 0.950 . S
H509 C520 0.950 . S
H510 C522 0.950 . S
H511 C523 0.950 . S
C512 H504 0.950 . S
C512 C513 1.386 . S
C512 C514 1.391 . S
C513 C512 1.386 . S
C513 C517 1.393 . S
C514 H506 0.950 . S
C514 C512 1.391 . S
C514 C515 1.400 . S
C515 C514 1.400 . S
C515 C516 1.398 . S
C515 C521 1.491 . S
C516 H507 0.950 . S
C516 C515 1.398 . S
C516 C517 1.391 . S
C517 H505 0.950 . S
C517 C513 1.393 . S
C517 C516 1.391 . S
C518 H508 0.950 . S
C518 C519 1.386 . S
C518 C520 1.391 . S
C519 C518 1.386 . S
C519 C523 1.393 . S
C520 H509 0.950 . S
C520 C518 1.391 . S
C520 C521 1.400 . S
C521 C515 1.491 . S
C521 C520 1.400 . S
C521 C522 1.398 . S
C522 H510 0.950 . S
C522 C521 1.398 . S
C522 C523 1.391 . S
C523 H511 0.950 . S
C523 C519 1.393 . S
C523 C522 1.391 . S
H524 C532 0.950 . S
H525 C537 0.950 . S
H526 C534 0.950 . S
H527 C536 0.950 . S
H528 C538 0.950 . S
H529 C540 0.950 . S
H530 C542 0.950 . S
H531 C543 0.950 . S
C532 H524 0.950 . S
C532 C533 1.386 . S
C532 C534 1.391 . S
C533 C532 1.386 . S
C533 C537 1.393 . S
C534 H526 0.950 . S
C534 C532 1.391 . S
C534 C535 1.400 . S
C535 C534 1.400 . S
C535 C536 1.398 . S
C535 C541 1.491 . S
C536 H527 0.950 . S
C536 C535 1.398 . S
C536 C537 1.391 . S
C537 H525 0.950 . S
C537 C533 1.393 . S
C537 C536 1.391 . S
C538 H528 0.950 . S
C538 C539 1.386 . S
C538 C540 1.391 . S
C539 C538 1.386 . S
C539 C543 1.393 . S
C540 H529 0.950 . S
C540 C538 1.391 . S
C540 C541 1.400 . S
C541 C535 1.491 . S
C541 C540 1.400 . S
C541 C542 1.398 . S
C542 H530 0.950 . S
C542 C541 1.398 . S
C542 C543 1.391 . S
C543 H531 0.950 . S
C543 C539 1.393 . S
C543 C542 1.391 . S
H544 C552 0.950 . S
H545 C557 0.950 . S
H546 C554 0.950 . S
H547 C556 0.950 . S
H548 C558 0.950 . S
H549 C560 0.950 . S
H550 C562 0.950 . S
H551 C563 0.950 . S
C552 H544 0.950 . S
C552 C553 1.386 . S
C552 C554 1.391 . S
C553 C552 1.386 . S
C553 C557 1.393 . S
C554 H546 0.950 . S
C554 C552 1.391 . S
C554 C555 1.400 . S
C555 C554 1.400 . S
C555 C556 1.398 . S
C555 C561 1.491 . S
C556 H547 0.950 . S
C556 C555 1.398 . S
C556 C557 1.391 . S
C557 H545 0.950 . S
C557 C553 1.393 . S
C557 C556 1.391 . S
C558 H548 0.950 . S
C558 C559 1.386 . S
C558 C560 1.391 . S
C559 C558 1.386 . S
C559 C563 1.393 . S
C560 H549 0.950 . S
C560 C558 1.391 . S
C560 C561 1.400 . S
C561 C555 1.491 . S
C561 C560 1.400 . S
C561 C562 1.398 . S
C562 H550 0.950 . S
C562 C561 1.398 . S
C562 C563 1.391 . S
C563 H551 0.950 . S
C563 C559 1.393 . S
C563 C562 1.391 . S
H564 C572 0.950 . S
H565 C577 0.950 . S
H566 C574 0.950 . S
H567 C576 0.950 . S
H568 C578 0.950 . S
H569 C580 0.950 . S
H570 C582 0.950 . S
H571 C583 0.950 . S
C572 H564 0.950 . S
C572 C573 1.386 . S
C572 C574 1.391 . S
C573 C572 1.386 . S
C573 C577 1.393 . S
C574 H566 0.950 . S
C574 C572 1.391 . S
C574 C575 1.400 . S
C575 C574 1.400 . S
C575 C576 1.398 . S
C575 C581 1.491 . S
C576 H567 0.950 . S
C576 C575 1.398 . S
C576 C577 1.391 . S
C577 H565 0.950 . S
C577 C573 1.393 . S
C577 C576 1.391 . S
C578 H568 0.950 . S
C578 C579 1.386 . S
C578 C580 1.391 . S
C579 C578 1.386 . S
C579 C583 1.393 . S
C580 H569 0.950 . S
C580 C578 1.391 . S
C580 C581 1.400 . S
C581 C575 1.491 . S
C581 C580 1.400 . S
C581 C582 1.398 . S
C582 H570 0.950 . S
C582 C581 1.398 . S
C582 C583 1.391 . S
C583 H571 0.950 . S
C583 C579 1.393 . S
C583 C582 1.391 . S
H584 C592 0.950 . S
H585 C597 0.950 . S
H586 C594 0.950 . S
H587 C596 0.950 . S
H588 C598 0.950 . S
H589 C600 0.950 . S
H590 C602 0.950 . S
H591 C603 0.950 . S
C592 H584 0.950 . S
C592 C593 1.386 . S
C592 C594 1.391 . S
C593 C592 1.386 . S
C593 C597 1.393 . S
C594 H586 0.950 . S
C594 C592 1.391 . S
C594 C595 1.400 . S
C595 C594 1.400 . S
C595 C596 1.398 . S
C595 C601 1.491 . S
C596 H587 0.950 . S
C596 C595 1.398 . S
C596 C597 1.391 . S
C597 H585 0.950 . S
C597 C593 1.393 . S
C597 C596 1.391 . S
C598 H588 0.950 . S
C598 C599 1.386 . S
C598 C600 1.391 . S
C599 C598 1.386 . S
C599 C603 1.393 . S
C600 H589 0.950 . S
C600 C598 1.391 . S
C600 C601 1.400 . S
C601 C595 1.491 . S
C601 C600 1.400 . S
C601 C602 1.398 . S
C602 H590 0.950 . S
C602 C601 1.398 . S
C602 C603 1.391 . S
C603 H591 0.950 . S
C603 C599 1.393 . S
C603 C602 1.391 . S
H604 C612 0.950 . S
H605 C617 0.950 . S
H606 C614 0.950 . S
H607 C616 0.950 . S
H608 C618 0.950 . S
H609 C620 0.950 . S
H610 C622 0.950 . S
H611 C623 0.950 . S
C612 H604 0.950 . S
C612 C613 1.386 . S
C612 C614 1.391 . S
C613 C612 1.386 . S
C613 C617 1.393 . S
C614 H606 0.950 . S
C614 C612 1.391 . S
C614 C615 1.400 . S
C615 C614 1.400 . S
C615 C616 1.398 . S
C615 C621 1.491 . S
C616 H607 0.950 . S
C616 C615 1.398 . S
C616 C617 1.391 . S
C617 H605 0.950 . S
C617 C613 1.393 . S
C617 C616 1.391 . S
C618 H608 0.950 . S
C618 C619 1.386 . S
C618 C620 1.391 . S
C619 C618 1.386 . S
C619 C623 1.393 . S
C620 H609 0.950 . S
C620 C618 1.391 . S
C620 C621 1.400 . S
C621 C615 1.491 . S
C621 C620 1.400 . S
C621 C622 1.398 . S
C622 H610 0.950 . S
C622 C621 1.398 . S
C622 C623 1.391 . S
C623 H611 0.950 . S
C623 C619 1.393 . S
C623 C622 1.391 . S
H624 C632 0.950 . S
H625 C637 0.950 . S
H626 C634 0.950 . S
H627 C636 0.950 . S
H628 C638 0.950 . S
H629 C640 0.950 . S
H630 C642 0.950 . S
H631 C643 0.950 . S
C632 H624 0.950 . S
C632 C633 1.386 . S
C632 C634 1.391 . S
C633 C632 1.386 . S
C633 C637 1.393 . S
C634 H626 0.950 . S
C634 C632 1.391 . S
C634 C635 1.400 . S
C635 C634 1.400 . S
C635 C636 1.398 . S
C635 C641 1.491 . S
C636 H627 0.950 . S
C636 C635 1.398 . S
C636 C637 1.391 . S
C637 H625 0.950 . S
C637 C633 1.393 . S
C637 C636 1.391 . S
C638 H628 0.950 . S
C638 C639 1.386 . S
C638 C640 1.391 . S
C639 C638 1.386 . S
C639 C643 1.393 . S
C640 H629 0.950 . S
C640 C638 1.391 . S
C640 C641 1.400 . S
C641 C635 1.491 . S
C641 C640 1.400 . S
C641 C642 1.398 . S
C642 H630 0.950 . S
C642 C641 1.398 . S
C642 C643 1.391 . S
C643 H631 0.950 . S
C643 C639 1.393 . S
C643 C642 1.391 . S
H644 C652 0.950 . S
H645 C657 0.950 . S
H646 C654 0.950 . S
H647 C656 0.950 . S
H648 C658 0.950 . S
H649 C660 0.950 . S
H650 C662 0.950 . S
H651 C663 0.950 . S
C652 H644 0.950 . S
C652 C653 1.386 . S
C652 C654 1.391 . S
C653 C652 1.386 . S
C653 C657 1.393 . S
C654 H646 0.950 . S
C654 C652 1.391 . S
C654 C655 1.400 . S
C655 C654 1.400 . S
C655 C656 1.398 . S
C655 C661 1.491 . S
C656 H647 0.950 . S
C656 C655 1.398 . S
C656 C657 1.391 . S
C657 H645 0.950 . S
C657 C653 1.393 . S
C657 C656 1.391 . S
C658 H648 0.950 . S
C658 C659 1.386 . S
C658 C660 1.391 . S
C659 C658 1.386 . S
C659 C663 1.393 . S
C660 H649 0.950 . S
C660 C658 1.391 . S
C660 C661 1.400 . S
C661 C655 1.491 . S
C661 C660 1.400 . S
C661 C662 1.398 . S
C662 H650 0.950 . S
C662 C661 1.398 . S
C662 C663 1.391 . S
C663 H651 0.950 . S
C663 C659 1.393 . S
C663 C662 1.391 . S
C273 N146 0.585 . S
C279 N14 0.574 . S
C293 N47 0.548 . S
C299 N179 0.534 . S
C313 N80 0.588 . S
C319 N212 0.582 . S
C333 N113 0.585 . S
C339 N245 0.574 . S
C353 C17 1.032 . S
C359 C215 1.029 . S
C373 C50 1.030 . S
C379 C248 1.029 . S
C393 C149 1.034 . S
C399 C83 1.037 . S
C413 C182 1.030 . S
C419 C116 1.029 . S
C433 C259 0.413 . S
C439 C28 0.469 . S
C453 C61 0.436 . S
C459 C160 0.479 . S
C473 C193 0.406 . S
C479 C94 0.463 . S
C493 C226 0.468 . S
C499 C127 0.413 . S
C513 C8 1.910 . S
C519 N38 1.928 . S
C533 C41 1.909 . S
C539 N71 1.931 . S
C553 N104 1.933 . S
C559 C74 1.905 . S
C573 N5 1.925 . S
C579 C107 1.914 . S
C593 C140 1.905 . S
C599 N236 1.934 . S
C613 N137 1.932 . S
C619 C173 1.908 . S
C633 C206 1.921 . S
C639 N170 1.919 . S
C653 C239 1.906 . S
C659 N203 1.933 . S
