# Generated by pormake.
# Topology tsi, (8)-cn, num edge types: 1
# Building blocks:
#     Node 0, Type 0, BuildingBlock: AJUNOK_clean_sbu_0, # of connection points: 8
#     Node 1, Type 0, BuildingBlock: AJUNOK_clean_sbu_0, # of connection points: 8
#     Node 2, Type 0, BuildingBlock: AJUNOK_clean_sbu_0, # of connection points: 8
#     Node 3, Type 0, BuildingBlock: AJUNOK_clean_sbu_0, # of connection points: 8
#     Edge 4, Type (0, 0), BuildingBlock: AJUNOK_clean_linker_0, # of connection points: 2
#     Edge 5, Type (0, 0), BuildingBlock: AJUNOK_clean_linker_0, # of connection points: 2
#     Edge 6, Type (0, 0), BuildingBlock: AJUNOK_clean_linker_0, # of connection points: 2
#     Edge 7, Type (0, 0), BuildingBlock: AJUNOK_clean_linker_0, # of connection points: 2
#     Edge 8, Type (0, 0), BuildingBlock: AJUNOK_clean_linker_0, # of connection points: 2
#     Edge 9, Type (0, 0), BuildingBlock: AJUNOK_clean_linker_0, # of connection points: 2
#     Edge 10, Type (0, 0), BuildingBlock: AJUNOK_clean_linker_0, # of connection points: 2
#     Edge 11, Type (0, 0), BuildingBlock: AJUNOK_clean_linker_0, # of connection points: 2
#     Edge 12, Type (0, 0), BuildingBlock: AJUNOK_clean_linker_0, # of connection points: 2
#     Edge 13, Type (0, 0), BuildingBlock: AJUNOK_clean_linker_0, # of connection points: 2
#     Edge 14, Type (0, 0), BuildingBlock: AJUNOK_clean_linker_0, # of connection points: 2
#     Edge 15, Type (0, 0), BuildingBlock: AJUNOK_clean_linker_0, # of connection points: 2
#     Edge 16, Type (0, 0), BuildingBlock: AJUNOK_clean_linker_0, # of connection points: 2
#     Edge 17, Type (0, 0), BuildingBlock: AJUNOK_clean_linker_0, # of connection points: 2
#     Edge 18, Type (0, 0), BuildingBlock: AJUNOK_clean_linker_0, # of connection points: 2
#     Edge 19, Type (0, 0), BuildingBlock: AJUNOK_clean_linker_0, # of connection points: 2
# Relax obj value: 0.186
# Max RMSD: 0.217
# Mean RMSD: 0.217
data_MOF--net-tsi--node1-AJUNOK_clean_sbu_0--edge1-AJUNOK_clean_linker_0
_symmetry_space_group_name_H-M    P1
_symmetry_Int_Tables_number       1
_symmetry_cell_setting            triclinic
loop_
_symmetry_equiv_pos_as_xyz
'x, y, z'
_cell_length_a     11.982883
_cell_length_b     11.962135
_cell_length_c     59.718069
_cell_angle_alpha  90.159578
_cell_angle_beta   90.159888
_cell_angle_gamma 90.234968
loop_
_atom_site_label
_atom_site_type_symbol
_atom_site_fract_x
_atom_site_fract_y
_atom_site_fract_z
_atom_type_partial_charge
Cd0 Cd 0.10467 0.23855 0.43014 0.0
Cd1 Cd 0.09873 0.4294 0.38277 0.0
C2 C 0.269 0.13052 0.39209 0.0
N3 N 0.16222 0.16702 0.39439 0.0
C4 C 0.12101 0.10219 0.35722 0.0
C5 C 0.23536 0.08167 0.35302 0.0
C6 C 0.30889 0.09483 0.37133 0.0
C7 C 0.08689 0.14779 0.37776 0.0
H8 H 0.3254 0.13322 0.40623 0.0
H9 H 0.99984 0.16663 0.38047 0.0
C10 C 0.85161 0.3368 0.40971 0.0
C11 C 0.98107 0.56273 0.425 0.0
C12 C 0.96957 0.61964 0.44538 0.0
C13 C 0.06407 0.64188 0.45866 0.0
C14 C 0.16867 0.60908 0.45049 0.0
C15 C 0.17605 0.55218 0.43003 0.0
N16 N 0.08247 0.52417 0.41825 0.0
H17 H 0.90858 0.55075 0.4145 0.0
H18 H 0.25717 0.53365 0.42336 0.0
C19 C 0.96328 0.32795 0.34017 0.0
N20 N 0.06851 0.36031 0.34591 0.0
C21 C 0.12408 0.35069 0.30734 0.0
C22 C 0.01654 0.31354 0.3011 0.0
C23 C 0.93539 0.30511 0.31795 0.0
C24 C 0.14848 0.37302 0.32995 0.0
H25 H 0.89915 0.32247 0.35266 0.0
H26 H 0.23055 0.40293 0.33469 0.0
C27 C 0.35394 0.3524 0.40876 0.0
C28 C 0.06564 1.01218 0.43024 0.0
N29 N 0.13362 0.2386 0.46898 0.0
C30 C 0.2391 0.22388 0.47692 0.0
C31 C 0.25685 0.19467 0.49929 0.0
C32 C 0.16517 0.17941 0.51356 0.0
C33 C 0.05757 0.20035 0.50519 0.0
C34 C 0.04353 0.22929 0.48266 0.0
C35 C 0.10194 0.6487 0.36908 0.0
O36 O 0.90577 0.31473 0.42762 0.0
O37 O 0.90576 0.36093 0.39206 0.0
O38 O 0.30017 0.37457 0.39076 0.0
O39 O 0.29979 0.32324 0.42625 0.0
O40 O 0.98746 0.07985 0.42581 0.0
O41 O 0.15212 0.05234 0.43959 0.0
O42 O 0.19117 0.59227 0.36933 0.0
O43 O 1.0116 0.59347 0.36913 0.0
H44 H 0.30915 0.228 0.46559 0.0
H45 H 0.96042 0.23772 0.47577 0.0
H46 H 0.05754 0.08665 0.34471 0.0
H47 H 0.39764 0.08282 0.36996 0.0
H48 H 0.88707 0.64404 0.45083 0.0
H49 H 0.24428 0.6281 0.45974 0.0
H50 H 0.1895 0.35977 0.29501 0.0
H51 H 0.84965 0.28382 0.31405 0.0
H52 H 0.34115 0.18035 0.50518 0.0
H53 H 0.98472 0.18846 0.51563 0.0
Cd54 Cd 0.04084 0.84444 0.67921 0.0
Cd55 Cd 0.84965 0.83964 0.63197 0.0
C56 C 0.15976 0.01655 0.64364 0.0
N57 N 0.11476 0.91185 0.6447 0.0
C58 C 0.15942 0.88113 0.60615 0.0
C59 C 0.18788 0.99452 0.60371 0.0
C60 C 0.1933 0.06107 0.6231 0.0
C61 C 0.12162 0.84181 0.62681 0.0
H62 H 0.16437 0.06785 0.65855 0.0
H63 H 0.09557 0.75588 0.62837 0.0
C64 C 0.94265 0.5945 0.65806 0.0
C65 C 0.71909 0.72645 0.67468 0.0
C66 C 0.66348 0.71503 0.69516 0.0
C67 C 0.64414 0.80956 0.70858 0.0
C68 C 0.67863 0.91412 0.70047 0.0
C69 C 0.7337 0.9215 0.67986 0.0
N70 N 0.75889 0.82777 0.66791 0.0
H71 H 0.72952 0.65388 0.66412 0.0
H72 H 0.75279 1.00277 0.67323 0.0
C73 C 0.92991 0.72076 0.58691 0.0
N74 N 0.91719 0.82667 0.59473 0.0
C75 C 0.96635 0.9002 0.55866 0.0
C76 C 0.98142 0.79104 0.55027 0.0
C77 C 0.96222 0.70104 0.56485 0.0
C78 C 0.93252 0.91615 0.58098 0.0
H79 H 0.91266 0.65096 0.59771 0.0
H80 H 0.91963 0.99981 0.58737 0.0
C81 C 0.93208 0.09586 0.65727 0.0
C82 C 0.25994 0.77813 0.67749 0.0
N83 N 0.04899 0.87981 0.71773 0.0
C84 C 0.07035 0.98607 0.72476 0.0
C85 C 0.09997 1.00716 0.74703 0.0
C86 C 0.10896 0.91788 0.76213 0.0
C87 C 0.08229 0.80954 0.7546 0.0
C88 C 0.05291 0.79218 0.73216 0.0
C89 C 0.63013 0.81913 0.61875 0.0
O90 O 0.95405 0.64919 0.67637 0.0
O91 O 0.92832 0.64845 0.63992 0.0
O92 O 0.90525 0.04147 0.63956 0.0
O93 O 0.96286 0.04215 0.67472 0.0
O94 O 0.18228 0.71237 0.67145 0.0
O95 O 0.23244 0.8646 0.68856 0.0
O96 O 0.6779 0.91402 0.61857 0.0
O97 O 0.69295 0.73456 0.61959 0.0
H98 H 0.07008 0.05391 0.71285 0.0
H99 H 0.03888 0.70819 0.72597 0.0
H100 H 0.15679 0.82511 0.59191 0.0
H101 H 0.21963 0.14768 0.62226 0.0
H102 H 0.63768 0.63257 0.70055 0.0
H103 H 0.66186 0.98982 0.70985 0.0
H104 H 0.98129 0.97251 0.54823 0.0
H105 H 0.96944 0.61536 0.55915 0.0
H106 H 0.11854 0.09201 0.75225 0.0
H107 H 0.08922 0.73839 0.76569 0.0
Cd108 Cd 0.41277 0.61495 0.8818 0.0
Cd109 Cd 0.41011 0.80723 0.93051 0.0
C110 C 0.54769 0.68508 0.83736 0.0
N111 N 0.4401 0.67755 0.84443 0.0
C112 C 0.37507 0.72506 0.80758 0.0
C113 C 0.48584 0.73476 0.79994 0.0
C114 C 0.57233 0.71402 0.8153 0.0
C115 C 0.354 0.69491 0.82992 0.0
H116 H 0.61515 0.6661 0.84871 0.0
H117 H 0.26898 0.686 0.83571 0.0
C118 C 0.1584 0.70223 0.90743 0.0
C119 C 0.28403 0.82582 0.97761 0.0
C120 C 0.27178 0.83712 1.00078 0.0
C121 C 0.35605 0.79858 1.01522 0.0
C122 C 0.4479 0.74281 1.00569 0.0
C123 C 0.45745 0.73461 0.98235 0.0
N124 N 0.37736 0.77851 0.96887 0.0
H125 H 0.22273 0.86234 0.96652 0.0
H126 H 0.53174 0.69918 0.97498 0.0
C127 C 0.25225 0.92699 0.89303 0.0
N128 N 0.35531 0.88036 0.89515 0.0
C129 C 0.39425 0.92107 0.85675 0.0
C130 C 0.28222 0.95102 0.85325 0.0
C131 C 0.21267 0.95988 0.87205 0.0
C132 C 0.42897 0.88543 0.87792 0.0
H133 H 0.1983 0.93354 0.90745 0.0
H134 H 0.51409 0.85984 0.88041 0.0
C135 C 0.66131 0.71125 0.90795 0.0
C136 C 0.40734 0.39053 0.87132 0.0
N137 N 0.4426 0.53379 0.91802 0.0
C138 C 0.54494 0.49004 0.92272 0.0
C139 C 0.56695 0.44189 0.94357 0.0
C140 C 0.48097 0.43215 0.95927 0.0
C141 C 0.3738 0.46814 0.95336 0.0
C142 C 0.3562 0.51771 0.93246 0.0
C143 C 0.45857 0.0319 0.93328 0.0
O144 O 0.21048 0.67441 0.88955 0.0
O145 O 0.21388 0.73462 0.92459 0.0
O146 O 0.60573 0.73166 0.92571 0.0
O147 O 0.60915 0.68642 0.88995 0.0
O148 O 0.31718 0.44523 0.8726 0.0
O149 O 0.49583 0.44706 0.8688 0.0
O150 O 0.53496 0.96134 0.92975 0.0
O151 O 0.36752 0.99436 0.9411 0.0
H152 H 0.61009 0.49214 0.91027 0.0
H153 H 0.27276 0.5396 0.92759 0.0
H154 H 0.30532 0.74128 0.79654 0.0
H155 H 0.65893 0.71727 0.81019 0.0
H156 H 0.2011 0.88339 1.00712 0.0
H157 H 0.51462 0.71098 1.01611 0.0
H158 H 0.45266 0.91606 0.84302 0.0
H159 H 0.12718 0.98782 0.8704 0.0
H160 H 0.64995 0.4115 0.94731 0.0
H161 H 0.30464 0.4588 0.96486 0.0
Cd162 Cd 0.68214 0.18382 0.13079 0.0
Cd163 Cd 0.4931 0.16977 0.17966 0.0
C164 C 0.55683 0.31562 0.08938 0.0
N165 N 0.61336 0.2197 0.09402 0.0
C166 C 0.61965 0.17459 0.05485 0.0
C167 C 0.56378 0.27423 0.04977 0.0
C168 C 0.53155 0.34465 0.06734 0.0
C169 C 0.64535 0.14978 0.0772 0.0
H170 H 0.53164 0.37081 0.10266 0.0
H171 H 0.69314 0.07584 0.08112 0.0
C172 C 0.611 0.92577 0.15739 0.0
C173 C 0.50079 0.0366 0.22767 0.0
C174 C 0.46987 0.01503 0.24988 0.0
C175 C 0.42056 0.10001 0.26272 0.0
C176 C 0.4093 0.20667 0.25318 0.0
C177 C 0.4419 0.22474 0.23103 0.0
N178 N 0.48433 0.13964 0.2186 0.0
H179 H 0.53198 0.96931 0.21737 0.0
H180 H 0.42736 0.30508 0.22329 0.0
C181 C 0.37696 0.97883 0.14622 0.0
N182 N 0.42269 0.0837 0.14605 0.0
C183 C 0.39498 0.09437 0.10645 0.0
C184 C 0.36377 0.98148 0.10579 0.0
C185 C 0.34958 0.92456 0.12606 0.0
C186 C 0.42461 0.14408 0.12685 0.0
H187 H 0.36915 0.93424 0.16187 0.0
H188 H 0.45169 0.23004 0.12743 0.0
C189 C 0.58487 0.42717 0.15795 0.0
C190 C 0.90076 0.18048 0.11675 0.0
N191 N 0.77515 0.20617 0.16623 0.0
C192 C 0.80759 0.30931 0.17355 0.0
C193 C 0.85543 0.32337 0.19477 0.0
C194 C 0.87782 0.22958 0.20816 0.0
C195 C 0.85814 0.12326 0.19879 0.0
C196 C 0.8066 0.11361 0.17781 0.0
C197 C 0.27174 0.22223 0.17545 0.0
O198 O 0.62926 0.98014 0.13927 0.0
O199 O 0.58538 0.97934 0.17522 0.0
O200 O 0.56752 0.37225 0.17602 0.0
O201 O 0.60804 0.37368 0.14013 0.0
O202 O 0.84326 0.09139 0.11669 0.0
O203 O 0.84733 0.27137 0.11788 0.0
O204 O 0.3469 0.28993 0.16908 0.0
O205 O 0.30158 0.14202 0.18799 0.0
H206 H 0.7961 0.38148 0.16302 0.0
H207 H 0.79438 0.03186 0.1706 0.0
H208 H 0.64685 0.11888 0.04163 0.0
H209 H 0.48828 0.42225 0.06401 0.0
H210 H 0.47847 0.93125 0.25647 0.0
H211 H 0.3718 0.27452 0.26253 0.0
H212 H 0.40023 0.14198 0.09111 0.0
H213 H 0.32322 0.83787 0.12626 0.0
H214 H 0.87272 0.40726 0.20071 0.0
H215 H 0.88254 0.04789 0.20746 0.0
C216 C 0.10745 0.64324 0.49977 0.0
C217 C 0.05309 0.69282 0.48143 0.0
C218 C 0.08842 0.68 0.52176 0.0
C219 C 0.01357 0.76763 0.52648 0.0
H220 H 0.16174 0.57213 0.49725 0.0
H221 H 0.13052 0.63691 0.53527 0.0
S222 S 0.8629 0.93659 0.484 0.0
N223 N 0.93209 0.84332 0.46913 0.0
N224 N 0.89301 0.91017 0.51046 0.0
C225 C 0.964 0.82267 0.50814 0.0
C226 C 0.98407 0.78546 0.48567 0.0
C227 C 0.60509 0.83474 0.77166 0.0
C228 C 0.514 0.76323 0.77615 0.0
C229 C 0.64383 0.85198 0.74977 0.0
C230 C 0.59309 0.79887 0.7313 0.0
H231 H 0.64877 0.87616 0.78527 0.0
H232 H 0.71687 0.90428 0.74742 0.0
S233 S 0.3428 0.61538 0.73324 0.0
N234 N 0.36852 0.64585 0.75975 0.0
N235 N 0.43942 0.68135 0.71863 0.0
C236 C 0.49803 0.73233 0.73531 0.0
C237 C 0.45867 0.71424 0.75767 0.0
C238 C 0.57487 0.44617 0.99653 0.0
C239 C 0.50372 0.38715 0.98191 0.0
C240 C 0.59395 0.40862 1.01843 0.0
C241 C 0.5448 0.30921 1.02628 0.0
H242 H 0.61443 0.52303 0.99112 0.0
H243 H 0.64771 0.45761 1.02933 0.0
S244 S 0.35562 0.12199 0.99427 0.0
N245 N 0.38522 0.22399 0.97661 0.0
N246 N 0.42422 0.15118 1.01762 0.0
C247 C 0.4757 0.24797 1.01166 0.0
C248 C 0.45427 0.28758 0.98951 0.0
C249 C 0.02905 0.34957 0.25949 0.0
C250 C 0.98813 0.28429 0.2773 0.0
C251 C 0.996 0.32921 0.23723 0.0
C252 C 0.91948 0.2434 0.23173 0.0
H253 H 0.08471 0.41926 0.26278 0.0
H254 H 0.02998 0.38232 0.22425 0.0
S255 S 0.79372 0.04242 0.27189 0.0
N256 N 0.87545 0.12234 0.28747 0.0
N257 N 0.8058 0.09078 0.24618 0.0
C258 C 0.88019 0.17555 0.24932 0.0
C259 C 0.91612 0.19442 0.2719 0.0
C260 C 0.26147 0.10902 0.28956 0.0
C261 C 0.3718 0.07715 0.28521 0.0
C262 C 0.21536 0.0993 0.31097 0.0
C263 C 0.27802 0.0611 0.32947 0.0
H264 H 0.2105 0.14394 0.27631 0.0
H265 H 0.13081 0.12717 0.31292 0.0
S266 S 0.56091 0.934 0.32498 0.0
N267 N 0.536 0.98393 0.29973 0.0
N268 N 0.44871 0.96225 0.33991 0.0
C269 C 0.38473 0.01621 0.32459 0.0
C270 C 0.43174 0.02571 0.30257 0.0
C271 C 0.0921 0.89079 0.80357 0.0
C272 C 0.15045 0.93636 0.78535 0.0
C273 C 0.13298 0.90106 0.8255 0.0
C274 C 0.23436 0.95695 0.83017 0.0
H275 H 0.01492 0.84524 0.80081 0.0
H276 H 0.08689 0.86038 0.83878 0.0
S277 S 0.4182 0.0929 0.78828 0.0
N278 N 0.31458 0.03987 0.77332 0.0
N279 N 0.38979 0.06234 0.8146 0.0
C280 C 0.29215 1.00545 0.81211 0.0
C281 C 0.25057 0.99454 0.78973 0.0
C282 C 0.45541 0.87267 0.0492 0.0
C283 C 0.35634 0.83094 0.03947 0.0
C284 C 0.45682 0.91667 0.07095 0.0
C285 C 0.3594 0.92246 0.08389 0.0
H286 H 0.53212 0.8755 0.03966 0.0
H287 H 0.53479 0.94793 0.07764 0.0
S288 S 0.08058 0.81471 0.06769 0.0
N289 N 0.15954 0.78919 0.04562 0.0
N290 N 0.1628 0.8757 0.08637 0.0
C291 C 0.26077 0.8769 0.07499 0.0
C292 C 0.25904 0.83089 0.05279 0.0
C293 C 0.13053 0.18987 0.55492 0.0
C294 C 0.18062 0.13558 0.53666 0.0
C295 C 0.13852 0.14633 0.57665 0.0
C296 C 0.19614 0.0461 0.58103 0.0
H297 H 0.0834 0.26589 0.55234 0.0
H298 H 0.09501 0.18933 0.58998 0.0
S299 S 0.34335 0.8725 0.53889 0.0
N300 N 0.29019 0.97653 0.52427 0.0
N301 N 0.30774 0.89619 0.56516 0.0
C302 C 0.24883 0.99235 0.56293 0.0
C303 C 0.24053 0.03672 0.54078 0.0
C304 C 0.98402 0.88023 0.4029 0.0
C305 C 0.07545 0.91168 0.41631 0.0
C306 C 0.99672 0.80563 0.38518 0.0
C307 C 0.1009 0.7574 0.38049 0.0
H308 H 0.90208 0.91538 0.40578 0.0
H309 H 0.92278 0.78052 0.37593 0.0
S310 S 0.36899 0.81837 0.40954 0.0
N311 N 0.27518 0.8923 0.42316 0.0
N312 N 0.29952 0.75413 0.38938 0.0
C313 C 0.19426 0.79208 0.3931 0.0
C314 C 0.181 0.86663 0.41142 0.0
C315 C 0.40906 0.88656 0.65968 0.0
C316 C 0.36123 0.78144 0.66397 0.0
C317 C 0.48516 0.90095 0.64246 0.0
C318 C 0.52109 0.80965 0.62954 0.0
H319 H 0.38471 0.96 0.6691 0.0
H320 H 0.52121 0.98345 0.64035 0.0
S321 S 0.41896 0.51727 0.63362 0.0
N322 N 0.35068 0.58519 0.65337 0.0
N323 N 0.49967 0.61119 0.62143 0.0
C324 C 0.4725 0.70422 0.63332 0.0
C325 C 0.3927 0.69 0.65066 0.0
C326 C 0.3332 0.26288 0.89995 0.0
C327 C 0.41633 0.28638 0.88404 0.0
C328 C 0.35289 0.1894 0.91749 0.0
C329 C 0.45503 0.13298 0.91943 0.0
H330 H 0.25378 0.30581 0.89965 0.0
H331 H 0.28547 0.17375 0.92914 0.0
S332 S 0.69904 0.16225 0.88158 0.0
N333 N 0.60397 0.24653 0.87099 0.0
N334 N 0.64104 0.10574 0.9039 0.0
C335 C 0.53899 0.15507 0.90355 0.0
C336 C 0.51891 0.2307 0.88569 0.0
C337 C 0.14528 0.29821 0.14669 0.0
C338 C 0.17138 0.21146 0.1616 0.0
C339 C 0.06735 0.28239 0.12964 0.0
C340 C 1.01176 0.17953 0.12701 0.0
H341 H 0.18621 0.37892 0.14805 0.0
H342 H 0.04528 0.35344 0.11933 0.0
S343 S 0.05889 0.92152 0.16017 0.0
N344 N 0.14023 0.01668 0.17187 0.0
N345 N 0.99706 0.98558 0.13915 0.0
C346 C 0.04227 0.0898 0.1409 0.0
C347 C 0.11945 0.10674 0.15865 0.0
C348 C 0.95449 0.28489 0.67706 0.0
C349 C 0.93285 0.22292 0.65727 0.0
C350 C 0.95724 0.4036 0.67727 0.0
C351 C 0.93913 0.4672 0.65768 0.0
H352 H 0.9695 0.24138 0.69265 0.0
H353 H 0.97419 0.44577 0.69299 0.0
S354 S 0.88067 0.34693 0.60118 0.0
N355 N 0.894 0.23646 0.61741 0.0
N356 N 0.89918 0.45606 0.61774 0.0
C357 C 0.91775 0.40592 0.63777 0.0
C358 C 0.91462 0.28541 0.63758 0.0
C359 C 0.8495 0.6861 0.88866 0.0
C360 C 0.78808 0.70895 0.90835 0.0
C361 C 0.96773 0.68333 0.88851 0.0
C362 C 0.03164 0.70327 0.90805 0.0
H363 H 0.80595 0.67033 0.87305 0.0
H364 H 1.00931 0.66605 0.87281 0.0
S365 S 0.91353 0.7658 0.96431 0.0
N366 N 0.8026 0.75114 0.9481 0.0
N367 N 0.0222 0.74584 0.94788 0.0
C368 C 0.9713 0.72592 0.92789 0.0
C369 C 0.85091 0.72873 0.92803 0.0
C370 C 0.58353 0.61872 0.17749 0.0
C371 C 0.5908 0.55455 0.15765 0.0
C372 C 0.59136 0.73729 0.17733 0.0
C373 C 0.60712 0.79863 0.15731 0.0
H374 H 0.57205 0.57711 0.19341 0.0
H375 H 0.58479 0.78121 0.19314 0.0
S376 S 0.62747 0.6733 0.10042 0.0
N377 N 0.61276 0.56475 0.11715 0.0
N378 N 0.62648 0.78402 0.11694 0.0
C379 C 0.6138 0.73564 0.13735 0.0
C380 C 0.60593 0.61528 0.1375 0.0
C381 C 0.66016 0.31182 0.42819 0.0
C382 C 0.72465 0.34293 0.40941 0.0
C383 C 0.54173 0.3162 0.42796 0.0
C384 C 0.48086 0.35197 0.40894 0.0
H385 H 0.70138 0.28301 0.44326 0.0
H386 H 0.49755 0.29027 0.44287 0.0
S387 S 0.60777 0.44597 0.35539 0.0
N388 N 0.71582 0.41388 0.37126 0.0
N389 N 0.49659 0.42083 0.37083 0.0
C390 C 0.54432 0.38413 0.39012 0.0
C391 C 0.66461 0.37997 0.39036 0.0
loop_
_geom_bond_atom_site_label_1
_geom_bond_atom_site_label_2
_geom_bond_distance
_geom_bond_site_symmetry_2
_ccdc_geom_bond_type
Cd0 N3 2.334 . S
Cd0 N29 2.304 . S
Cd0 O36 2.268 1_455 S
Cd0 O39 2.273 . S
Cd0 O40 2.417 1_445 S
Cd0 O41 2.330 1_545 S
Cd1 N16 2.304 . S
Cd1 N20 2.334 . S
Cd1 O37 2.273 . S
Cd1 O38 2.268 1_655 S
Cd1 O42 2.417 1_655 S
Cd1 O43 2.330 . S
C2 N3 1.332 . S
C2 C6 1.381 . S
C2 H8 0.931 . S
N3 Cd0 2.334 . S
N3 C2 1.332 . S
N3 C7 1.328 1_455 S
C4 C5 1.396 1_655 S
C4 C7 1.378 . S
C4 H46 0.931 . S
C5 C4 1.396 1_455 S
C5 C6 1.382 . S
C6 C2 1.381 . S
C6 C5 1.382 . S
C6 H47 0.930 . S
C7 N3 1.328 1_655 S
C7 C4 1.378 . S
C7 H9 0.930 . S
H8 C2 0.931 . S
H9 C7 0.930 . S
C10 O36 1.238 . S
C10 O37 1.253 . S
C11 C12 1.379 . S
C11 N16 1.337 . S
C11 H17 0.929 . S
C12 C11 1.379 . S
C12 C13 1.380 . S
C12 H48 0.929 . S
C13 C12 1.380 . S
C13 C14 1.399 1_655 S
C14 C13 1.399 1_455 S
C14 C15 1.376 . S
C14 H49 0.931 . S
C15 C14 1.376 . S
C15 N16 1.338 1_455 S
C15 H18 0.930 . S
N16 Cd1 2.304 . S
N16 C11 1.337 . S
N16 C15 1.338 1_655 S
H17 C11 0.929 . S
H18 C15 0.930 . S
C19 N20 1.332 . S
C19 C23 1.381 . S
C19 H25 0.931 . S
N20 Cd1 2.334 . S
N20 C19 1.332 . S
N20 C24 1.328 1_655 S
C21 C22 1.396 1_455 S
C21 C24 1.378 . S
C21 H50 0.931 . S
C22 C21 1.396 1_655 S
C22 C23 1.382 . S
C23 C19 1.381 . S
C23 C22 1.382 . S
C23 H51 0.930 . S
C24 N20 1.328 1_455 S
C24 C21 1.378 . S
C24 H26 0.930 . S
H25 C19 0.931 . S
H26 C24 0.930 . S
C27 O38 1.238 . S
C27 O39 1.253 . S
C28 O40 1.239 1_455 S
C28 O41 1.230 . S
N29 Cd0 2.304 . S
N29 C30 1.337 . S
N29 C34 1.338 1_455 S
C30 N29 1.337 . S
C30 C31 1.379 . S
C30 H44 0.929 . S
C31 C30 1.379 . S
C31 C32 1.380 . S
C31 H52 0.929 . S
C32 C31 1.380 . S
C32 C33 1.399 1_455 S
C33 C32 1.399 1_655 S
C33 C34 1.376 . S
C33 H53 0.931 . S
C34 N29 1.338 1_655 S
C34 C33 1.376 . S
C34 H45 0.930 . S
C35 O42 1.239 1_655 S
C35 O43 1.230 . S
O36 Cd0 2.268 1_655 S
O36 C10 1.238 . S
O37 Cd1 2.273 . S
O37 C10 1.253 . S
O38 Cd1 2.268 1_455 S
O38 C27 1.238 . S
O39 Cd0 2.273 . S
O39 C27 1.253 . S
O40 Cd0 2.417 1_665 S
O40 C28 1.239 1_655 S
O41 Cd0 2.330 1_565 S
O41 C28 1.230 . S
O42 Cd1 2.417 1_455 S
O42 C35 1.239 1_455 S
O43 Cd1 2.330 . S
O43 C35 1.230 . S
H44 C30 0.929 . S
H45 C34 0.930 . S
H46 C4 0.931 . S
H47 C6 0.930 . S
H48 C12 0.929 . S
H49 C14 0.931 . S
H50 C21 0.931 . S
H51 C23 0.930 . S
H52 C31 0.929 . S
H53 C33 0.931 . S
Cd54 N57 2.334 . S
Cd54 N83 2.304 . S
Cd54 O90 2.268 . S
Cd54 O93 2.273 . S
Cd54 O94 2.417 . S
Cd54 O95 2.330 . S
Cd55 N70 2.304 . S
Cd55 N74 2.334 . S
Cd55 O91 2.273 . S
Cd55 O92 2.268 . S
Cd55 O96 2.417 . S
Cd55 O97 2.330 . S
C56 N57 1.332 . S
C56 C60 1.381 . S
C56 H62 0.931 . S
N57 Cd54 2.334 . S
N57 C56 1.332 . S
N57 C61 1.328 . S
C58 C59 1.396 . S
C58 C61 1.378 . S
C58 H100 0.931 . S
C59 C58 1.396 . S
C59 C60 1.382 . S
C60 C56 1.381 . S
C60 C59 1.382 . S
C60 H101 0.930 . S
C61 N57 1.328 . S
C61 C58 1.378 . S
C61 H63 0.930 . S
H62 C56 0.931 . S
H63 C61 0.930 . S
C64 O90 1.238 1_655 S
C64 O91 1.253 . S
C65 C66 1.379 . S
C65 N70 1.337 . S
C65 H71 0.929 . S
C66 C65 1.379 . S
C66 C67 1.380 . S
C66 H102 0.929 . S
C67 C66 1.380 . S
C67 C68 1.399 . S
C68 C67 1.399 . S
C68 C69 1.376 . S
C68 H103 0.931 . S
C69 C68 1.376 . S
C69 N70 1.338 . S
C69 H72 0.930 . S
N70 Cd55 2.304 . S
N70 C65 1.337 . S
N70 C69 1.338 . S
H71 C65 0.929 . S
H72 C69 0.930 . S
C73 N74 1.332 . S
C73 C77 1.381 . S
C73 H79 0.931 . S
N74 Cd55 2.334 . S
N74 C73 1.332 . S
N74 C78 1.328 . S
C75 C76 1.396 . S
C75 C78 1.378 . S
C75 H104 0.931 . S
C76 C75 1.396 . S
C76 C77 1.382 . S
C77 C73 1.381 . S
C77 C76 1.382 . S
C77 H105 0.930 . S
C78 N74 1.328 . S
C78 C75 1.378 . S
C78 H80 0.930 . S
H79 C73 0.931 . S
H80 C78 0.930 . S
C81 O92 1.238 1_455 S
C81 O93 1.253 . S
C82 O94 1.239 . S
C82 O95 1.230 . S
N83 Cd54 2.304 . S
N83 C84 1.337 . S
N83 C88 1.338 . S
C84 N83 1.337 . S
C84 C85 1.379 . S
C84 H98 0.929 . S
C85 C84 1.379 . S
C85 C86 1.380 . S
C85 H106 0.929 . S
C86 C85 1.380 . S
C86 C87 1.399 . S
C87 C86 1.399 . S
C87 C88 1.376 . S
C87 H107 0.931 . S
C88 N83 1.338 . S
C88 C87 1.376 . S
C88 H99 0.930 . S
C89 O96 1.239 . S
C89 O97 1.230 . S
O90 Cd54 2.268 . S
O90 C64 1.238 1_455 S
O91 Cd55 2.273 . S
O91 C64 1.253 . S
O92 Cd55 2.268 . S
O92 C81 1.238 1_655 S
O93 Cd54 2.273 . S
O93 C81 1.253 . S
O94 Cd54 2.417 . S
O94 C82 1.239 . S
O95 Cd54 2.330 . S
O95 C82 1.230 . S
O96 Cd55 2.417 . S
O96 C89 1.239 . S
O97 Cd55 2.330 . S
O97 C89 1.230 . S
H98 C84 0.929 . S
H99 C88 0.930 . S
H100 C58 0.931 . S
H101 C60 0.930 . S
H102 C66 0.929 . S
H103 C68 0.931 . S
H104 C75 0.931 . S
H105 C77 0.930 . S
H106 C85 0.929 . S
H107 C87 0.931 . S
Cd108 N111 2.334 . S
Cd108 N137 2.304 . S
Cd108 O144 2.268 . S
Cd108 O147 2.273 . S
Cd108 O148 2.417 . S
Cd108 O149 2.330 . S
Cd109 N124 2.304 . S
Cd109 N128 2.334 . S
Cd109 O145 2.273 . S
Cd109 O146 2.268 . S
Cd109 O150 2.417 1_565 S
Cd109 O151 2.330 1_565 S
C110 N111 1.332 . S
C110 C114 1.381 . S
C110 H116 0.931 . S
N111 Cd108 2.334 . S
N111 C110 1.332 . S
N111 C115 1.328 . S
C112 C113 1.396 . S
C112 C115 1.378 . S
C112 H154 0.931 . S
C113 C112 1.396 . S
C113 C114 1.382 . S
C114 C110 1.381 . S
C114 C113 1.382 . S
C114 H155 0.930 . S
C115 N111 1.328 . S
C115 C112 1.378 . S
C115 H117 0.930 . S
H116 C110 0.931 . S
H117 C115 0.930 . S
C118 O144 1.238 . S
C118 O145 1.253 . S
C119 C120 1.379 . S
C119 N124 1.337 . S
C119 H125 0.929 . S
C120 C119 1.379 . S
C120 C121 1.380 . S
C120 H156 0.929 . S
C121 C120 1.380 . S
C121 C122 1.399 . S
C122 C121 1.399 . S
C122 C123 1.376 . S
C122 H157 0.931 . S
C123 C122 1.376 . S
C123 N124 1.338 . S
C123 H126 0.930 . S
N124 Cd109 2.304 . S
N124 C119 1.337 . S
N124 C123 1.338 . S
H125 C119 0.929 . S
H126 C123 0.930 . S
C127 N128 1.332 . S
C127 C131 1.381 . S
C127 H133 0.931 . S
N128 Cd109 2.334 . S
N128 C127 1.332 . S
N128 C132 1.328 . S
C129 C130 1.396 . S
C129 C132 1.378 . S
C129 H158 0.931 . S
C130 C129 1.396 . S
C130 C131 1.382 . S
C131 C127 1.381 . S
C131 C130 1.382 . S
C131 H159 0.930 . S
C132 N128 1.328 . S
C132 C129 1.378 . S
C132 H134 0.930 . S
H133 C127 0.931 . S
H134 C132 0.930 . S
C135 O146 1.238 . S
C135 O147 1.253 . S
C136 O148 1.239 . S
C136 O149 1.230 . S
N137 Cd108 2.304 . S
N137 C138 1.337 . S
N137 C142 1.338 . S
C138 N137 1.337 . S
C138 C139 1.379 . S
C138 H152 0.929 . S
C139 C138 1.379 . S
C139 C140 1.380 . S
C139 H160 0.929 . S
C140 C139 1.380 . S
C140 C141 1.399 . S
C141 C140 1.399 . S
C141 C142 1.376 . S
C141 H161 0.931 . S
C142 N137 1.338 . S
C142 C141 1.376 . S
C142 H153 0.930 . S
C143 O150 1.239 . S
C143 O151 1.230 . S
O144 Cd108 2.268 . S
O144 C118 1.238 . S
O145 Cd109 2.273 . S
O145 C118 1.253 . S
O146 Cd109 2.268 . S
O146 C135 1.238 . S
O147 Cd108 2.273 . S
O147 C135 1.253 . S
O148 Cd108 2.417 . S
O148 C136 1.239 . S
O149 Cd108 2.330 . S
O149 C136 1.230 . S
O150 Cd109 2.417 1_545 S
O150 C143 1.239 . S
O151 Cd109 2.330 1_545 S
O151 C143 1.230 . S
H152 C138 0.929 . S
H153 C142 0.930 . S
H154 C112 0.931 . S
H155 C114 0.930 . S
H156 C120 0.929 . S
H157 C122 0.931 . S
H158 C129 0.931 . S
H159 C131 0.930 . S
H160 C139 0.929 . S
H161 C141 0.931 . S
Cd162 N165 2.334 . S
Cd162 N191 2.304 . S
Cd162 O198 2.268 . S
Cd162 O201 2.273 . S
Cd162 O202 2.417 . S
Cd162 O203 2.330 . S
Cd163 N178 2.304 . S
Cd163 N182 2.334 . S
Cd163 O199 2.273 . S
Cd163 O200 2.268 . S
Cd163 O204 2.417 . S
Cd163 O205 2.330 . S
C164 N165 1.332 . S
C164 C168 1.381 . S
C164 H170 0.931 . S
N165 Cd162 2.334 . S
N165 C164 1.332 . S
N165 C169 1.328 . S
C166 C167 1.396 . S
C166 C169 1.378 . S
C166 H208 0.931 . S
C167 C166 1.396 . S
C167 C168 1.382 . S
C168 C164 1.381 . S
C168 C167 1.382 . S
C168 H209 0.930 . S
C169 N165 1.328 . S
C169 C166 1.378 . S
C169 H171 0.930 . S
H170 C164 0.931 . S
H171 C169 0.930 . S
C172 O198 1.238 . S
C172 O199 1.253 . S
C173 C174 1.379 . S
C173 N178 1.337 . S
C173 H179 0.929 . S
C174 C173 1.379 . S
C174 C175 1.380 . S
C174 H210 0.929 . S
C175 C174 1.380 . S
C175 C176 1.399 . S
C176 C175 1.399 . S
C176 C177 1.376 . S
C176 H211 0.931 . S
C177 C176 1.376 . S
C177 N178 1.338 . S
C177 H180 0.930 . S
N178 Cd163 2.304 . S
N178 C173 1.337 . S
N178 C177 1.338 . S
H179 C173 0.929 . S
H180 C177 0.930 . S
C181 N182 1.332 . S
C181 C185 1.381 . S
C181 H187 0.931 . S
N182 Cd163 2.334 . S
N182 C181 1.332 . S
N182 C186 1.328 . S
C183 C184 1.396 . S
C183 C186 1.378 . S
C183 H212 0.931 . S
C184 C183 1.396 . S
C184 C185 1.382 . S
C185 C181 1.381 . S
C185 C184 1.382 . S
C185 H213 0.930 . S
C186 N182 1.328 . S
C186 C183 1.378 . S
C186 H188 0.930 . S
H187 C181 0.931 . S
H188 C186 0.930 . S
C189 O200 1.238 . S
C189 O201 1.253 . S
C190 O202 1.239 . S
C190 O203 1.230 . S
N191 Cd162 2.304 . S
N191 C192 1.337 . S
N191 C196 1.338 . S
C192 N191 1.337 . S
C192 C193 1.379 . S
C192 H206 0.929 . S
C193 C192 1.379 . S
C193 C194 1.380 . S
C193 H214 0.929 . S
C194 C193 1.380 . S
C194 C195 1.399 . S
C195 C194 1.399 . S
C195 C196 1.376 . S
C195 H215 0.931 . S
C196 N191 1.338 . S
C196 C195 1.376 . S
C196 H207 0.930 . S
C197 O204 1.239 . S
C197 O205 1.230 . S
O198 Cd162 2.268 . S
O198 C172 1.238 . S
O199 Cd163 2.273 . S
O199 C172 1.253 . S
O200 Cd163 2.268 . S
O200 C189 1.238 . S
O201 Cd162 2.273 . S
O201 C189 1.253 . S
O202 Cd162 2.417 . S
O202 C190 1.239 . S
O203 Cd162 2.330 . S
O203 C190 1.230 . S
O204 Cd163 2.417 . S
O204 C197 1.239 . S
O205 Cd163 2.330 . S
O205 C197 1.230 . S
H206 C192 0.929 . S
H207 C196 0.930 . S
H208 C166 0.931 . S
H209 C168 0.930 . S
H210 C174 0.929 . S
H211 C176 0.931 . S
H212 C183 0.931 . S
H213 C185 0.930 . S
H214 C193 0.929 . S
H215 C195 0.931 . S
C216 C217 1.369 . S
C216 C218 1.419 . S
C216 H220 0.930 . S
C217 C216 1.369 . S
C217 C226 1.429 . S
C218 C216 1.419 . S
C218 C219 1.363 . S
C218 H221 0.929 . S
C219 C218 1.363 . S
C219 C225 1.428 . S
H220 C216 0.930 . S
H221 C218 0.929 . S
S222 N223 1.613 . S
S222 N224 1.610 . S
N223 S222 1.613 . S
N223 C226 1.350 1_455 S
N224 S222 1.610 . S
N224 C225 1.351 1_455 S
C225 C219 1.428 . S
C225 N224 1.351 1_655 S
C225 C226 1.434 . S
C226 C217 1.429 . S
C226 N223 1.350 1_655 S
C226 C225 1.434 . S
C227 C228 1.369 . S
C227 C229 1.419 . S
C227 H231 0.930 . S
C228 C227 1.369 . S
C228 C237 1.429 . S
C229 C227 1.419 . S
C229 C230 1.363 . S
C229 H232 0.929 . S
C230 C229 1.363 . S
C230 C236 1.428 . S
H231 C227 0.930 . S
H232 C229 0.929 . S
S233 N234 1.613 . S
S233 N235 1.610 . S
N234 S233 1.613 . S
N234 C237 1.350 . S
N235 S233 1.610 . S
N235 C236 1.351 . S
C236 C230 1.428 . S
C236 N235 1.351 . S
C236 C237 1.434 . S
C237 C228 1.429 . S
C237 N234 1.350 . S
C237 C236 1.434 . S
C238 C239 1.369 . S
C238 C240 1.419 1_556 S
C238 H242 0.930 . S
C239 C238 1.369 . S
C239 C248 1.429 . S
C240 C238 1.419 1_554 S
C240 C241 1.363 . S
C240 H243 0.929 . S
C241 C240 1.363 . S
C241 C247 1.428 . S
H242 C238 0.930 . S
H243 C240 0.929 . S
S244 N245 1.613 . S
S244 N246 1.610 1_556 S
N245 S244 1.613 . S
N245 C248 1.350 . S
N246 S244 1.610 1_554 S
N246 C247 1.351 . S
C247 C241 1.428 . S
C247 N246 1.351 . S
C247 C248 1.434 1_554 S
C248 C239 1.429 . S
C248 N245 1.350 . S
C248 C247 1.434 1_556 S
C249 C250 1.369 . S
C249 C251 1.419 . S
C249 H253 0.930 . S
C250 C249 1.369 . S
C250 C259 1.429 . S
C251 C249 1.419 . S
C251 C252 1.363 . S
C251 H254 0.929 . S
C252 C251 1.363 . S
C252 C258 1.428 . S
H253 C249 0.930 . S
H254 C251 0.929 . S
S255 N256 1.613 . S
S255 N257 1.610 . S
N256 S255 1.613 . S
N256 C259 1.350 . S
N257 S255 1.610 . S
N257 C258 1.351 . S
C258 C252 1.428 . S
C258 N257 1.351 . S
C258 C259 1.434 . S
C259 C250 1.429 . S
C259 N256 1.350 . S
C259 C258 1.434 . S
C260 C261 1.369 . S
C260 C262 1.419 . S
C260 H264 0.930 . S
C261 C260 1.369 . S
C261 C270 1.429 . S
C262 C260 1.419 . S
C262 C263 1.363 . S
C262 H265 0.929 . S
C263 C262 1.363 . S
C263 C269 1.428 . S
H264 C260 0.930 . S
H265 C262 0.929 . S
S266 N267 1.613 . S
S266 N268 1.610 . S
N267 S266 1.613 . S
N267 C270 1.350 . S
N268 S266 1.610 . S
N268 C269 1.351 . S
C269 C263 1.428 . S
C269 N268 1.351 . S
C269 C270 1.434 . S
C270 C261 1.429 . S
C270 N267 1.350 . S
C270 C269 1.434 . S
C271 C272 1.369 . S
C271 C273 1.419 . S
C271 H275 0.930 . S
C272 C271 1.369 . S
C272 C281 1.429 . S
C273 C271 1.419 . S
C273 C274 1.363 . S
C273 H276 0.929 . S
C274 C273 1.363 . S
C274 C280 1.428 . S
H275 C271 0.930 . S
H276 C273 0.929 . S
S277 N278 1.613 . S
S277 N279 1.610 . S
N278 S277 1.613 . S
N278 C281 1.350 . S
N279 S277 1.610 . S
N279 C280 1.351 . S
C280 C274 1.428 . S
C280 N279 1.351 . S
C280 C281 1.434 . S
C281 C272 1.429 . S
C281 N278 1.350 . S
C281 C280 1.434 . S
C282 C283 1.369 1_545 S
C282 C284 1.419 . S
C282 H286 0.930 . S
C283 C282 1.369 1_565 S
C283 C292 1.429 1_556 S
C284 C282 1.419 . S
C284 C285 1.363 1_556 S
C284 H287 0.929 . S
C285 C284 1.363 1_554 S
C285 C291 1.428 . S
H286 C282 0.930 . S
H287 C284 0.929 . S
S288 N289 1.613 . S
S288 N290 1.610 . S
N289 S288 1.613 . S
N289 C292 1.350 . S
N290 S288 1.610 . S
N290 C291 1.351 1_565 S
C291 C285 1.428 . S
C291 N290 1.351 1_545 S
C291 C292 1.434 1_545 S
C292 C283 1.429 1_554 S
C292 N289 1.350 . S
C292 C291 1.434 1_565 S
C293 C294 1.369 . S
C293 C295 1.419 1_545 S
C293 H297 0.930 . S
C294 C293 1.369 . S
C294 C303 1.429 1_545 S
C295 C293 1.419 1_565 S
C295 C296 1.363 . S
C295 H298 0.929 . S
C296 C295 1.363 . S
C296 C302 1.428 . S
H297 C293 0.930 . S
H298 C295 0.929 . S
S299 N300 1.613 . S
S299 N301 1.610 . S
N300 S299 1.613 . S
N300 C303 1.350 . S
N301 S299 1.610 . S
N301 C302 1.351 . S
C302 C296 1.428 . S
C302 N301 1.351 . S
C302 C303 1.434 . S
C303 C294 1.429 1_565 S
C303 N300 1.350 . S
C303 C302 1.434 . S
C304 C305 1.369 1_655 S
C304 C306 1.419 . S
C304 H308 0.930 . S
C305 C304 1.369 1_455 S
C305 C314 1.429 . S
C306 C304 1.419 . S
C306 C307 1.363 . S
C306 H309 0.929 . S
C307 C306 1.363 . S
C307 C313 1.428 1_655 S
H308 C304 0.930 . S
H309 C306 0.929 . S
S310 N311 1.613 . S
S310 N312 1.610 . S
N311 S310 1.613 . S
N311 C314 1.350 . S
N312 S310 1.610 . S
N312 C313 1.351 . S
C313 C307 1.428 1_455 S
C313 N312 1.351 . S
C313 C314 1.434 . S
C314 C305 1.429 . S
C314 N311 1.350 . S
C314 C313 1.434 . S
C315 C316 1.369 . S
C315 C317 1.419 . S
C315 H319 0.930 . S
C316 C315 1.369 . S
C316 C325 1.429 . S
C317 C315 1.419 . S
C317 C318 1.363 . S
C317 H320 0.929 . S
C318 C317 1.363 . S
C318 C324 1.428 . S
H319 C315 0.930 . S
H320 C317 0.929 . S
S321 N322 1.613 . S
S321 N323 1.610 . S
N322 S321 1.613 . S
N322 C325 1.350 . S
N323 S321 1.610 . S
N323 C324 1.351 . S
C324 C318 1.428 . S
C324 N323 1.351 . S
C324 C325 1.434 . S
C325 C316 1.429 . S
C325 N322 1.350 . S
C325 C324 1.434 . S
C326 C327 1.369 . S
C326 C328 1.419 . S
C326 H330 0.930 . S
C327 C326 1.369 . S
C327 C336 1.429 . S
C328 C326 1.419 . S
C328 C329 1.363 . S
C328 H331 0.929 . S
C329 C328 1.363 . S
C329 C335 1.428 . S
H330 C326 0.930 . S
H331 C328 0.929 . S
S332 N333 1.613 . S
S332 N334 1.610 . S
N333 S332 1.613 . S
N333 C336 1.350 . S
N334 S332 1.610 . S
N334 C335 1.351 . S
C335 C329 1.428 . S
C335 N334 1.351 . S
C335 C336 1.434 . S
C336 C327 1.429 . S
C336 N333 1.350 . S
C336 C335 1.434 . S
C337 C338 1.369 . S
C337 C339 1.419 1_455 S
C337 H341 0.930 . S
C338 C337 1.369 . S
C338 C347 1.429 . S
C339 C337 1.419 1_655 S
C339 C340 1.363 . S
C339 H342 0.929 . S
C340 C339 1.363 . S
C340 C346 1.428 . S
H341 C337 0.930 . S
H342 C339 0.929 . S
S343 N344 1.613 1_655 S
S343 N345 1.610 . S
N344 S343 1.613 1_455 S
N344 C347 1.350 . S
N345 S343 1.610 . S
N345 C346 1.351 . S
C346 C340 1.428 . S
C346 N345 1.351 . S
C346 C347 1.434 1_655 S
C347 C338 1.429 . S
C347 N344 1.350 . S
C347 C346 1.434 1_455 S
C348 C349 1.369 . S
C348 C350 1.419 . S
C348 H352 0.930 . S
C349 C348 1.369 . S
C349 C358 1.429 1_655 S
C350 C348 1.419 . S
C350 C351 1.363 1_655 S
C350 H353 0.929 . S
C351 C350 1.363 1_455 S
C351 C357 1.428 . S
H352 C348 0.930 . S
H353 C350 0.929 . S
S354 N355 1.613 . S
S354 N356 1.610 . S
N355 S354 1.613 . S
N355 C358 1.350 . S
N356 S354 1.610 . S
N356 C357 1.351 . S
C357 C351 1.428 . S
C357 N356 1.351 . S
C357 C358 1.434 . S
C358 C349 1.429 1_455 S
C358 N355 1.350 . S
C358 C357 1.434 . S
C359 C360 1.369 . S
C359 C361 1.419 1_655 S
C359 H363 0.930 . S
C360 C359 1.369 . S
C360 C369 1.429 . S
C361 C359 1.419 1_455 S
C361 C362 1.363 . S
C361 H364 0.929 . S
C362 C361 1.363 . S
C362 C368 1.428 . S
H363 C359 0.930 . S
H364 C361 0.929 . S
S365 N366 1.613 1_455 S
S365 N367 1.610 . S
N366 S365 1.613 1_655 S
N366 C369 1.350 . S
N367 S365 1.610 . S
N367 C368 1.351 . S
C368 C362 1.428 . S
C368 N367 1.351 . S
C368 C369 1.434 1_455 S
C369 C360 1.429 . S
C369 N366 1.350 . S
C369 C368 1.434 1_655 S
C370 C371 1.369 . S
C370 C372 1.419 . S
C370 H374 0.930 . S
C371 C370 1.369 . S
C371 C380 1.429 . S
C372 C370 1.419 . S
C372 C373 1.363 . S
C372 H375 0.929 . S
C373 C372 1.363 . S
C373 C379 1.428 . S
H374 C370 0.930 . S
H375 C372 0.929 . S
S376 N377 1.613 . S
S376 N378 1.610 . S
N377 S376 1.613 . S
N377 C380 1.350 . S
N378 S376 1.610 . S
N378 C379 1.351 . S
C379 C373 1.428 . S
C379 N378 1.351 . S
C379 C380 1.434 . S
C380 C371 1.429 . S
C380 N377 1.350 . S
C380 C379 1.434 . S
C381 C382 1.369 . S
C381 C383 1.419 . S
C381 H385 0.930 . S
C382 C381 1.369 . S
C382 C391 1.429 . S
C383 C381 1.419 . S
C383 C384 1.363 . S
C383 H386 0.929 . S
C384 C383 1.363 . S
C384 C390 1.428 . S
H385 C381 0.930 . S
H386 C383 0.929 . S
S387 N388 1.613 . S
S387 N389 1.610 . S
N388 S387 1.613 . S
N388 C391 1.350 . S
N389 S387 1.610 . S
N389 C390 1.351 . S
C390 C384 1.428 . S
C390 N389 1.351 . S
C390 C391 1.434 . S
C391 C382 1.429 . S
C391 N388 1.350 . S
C391 C390 1.434 . S
C217 C13 2.093 . S
C219 C76 2.101 . S
C228 C113 2.105 . S
C230 C67 2.092 . S
C239 C140 2.096 . S
C241 C167 2.100 . S
C250 C22 2.096 . S
C252 C194 2.099 . S
C261 C175 2.097 . S
C263 C5 2.098 . S
C272 C86 2.091 . S
C274 C130 2.103 . S
C283 C121 2.098 . S
C285 C184 2.098 . S
C294 C32 2.091 . S
C296 C59 2.103 . S
C305 C28 0.023 . S
C307 C35 0.014 . S
C316 C82 0.012 . S
C318 C89 0.031 . S
C327 C136 0.031 . S
C329 C143 0.010 . S
C338 C197 0.023 . S
C340 C190 0.014 . S
C349 C81 2.123 1_645 S
C351 C64 2.127 1_455 S
C360 C135 2.127 . S
C362 C118 2.125 . S
C371 C189 2.125 . S
C373 C172 2.126 1_565 S
C382 C10 2.123 . S
C384 C27 2.128 . S
