# Generated by pormake.
# Topology svb, (7)-cn, num edge types: 1
# Building blocks:
#     Node 0, Type 0, BuildingBlock: HICVOG_clean_sbu_0, # of connection points: 7
#     Node 1, Type 0, BuildingBlock: HICVOG_clean_sbu_0, # of connection points: 7
#     Node 2, Type 0, BuildingBlock: HICVOG_clean_sbu_0, # of connection points: 7
#     Node 3, Type 0, BuildingBlock: HICVOG_clean_sbu_0, # of connection points: 7
#     Node 4, Type 0, BuildingBlock: HICVOG_clean_sbu_0, # of connection points: 7
#     Node 5, Type 0, BuildingBlock: HICVOG_clean_sbu_0, # of connection points: 7
#     Node 6, Type 0, BuildingBlock: HICVOG_clean_sbu_0, # of connection points: 7
#     Node 7, Type 0, BuildingBlock: HICVOG_clean_sbu_0, # of connection points: 7
#     Node 8, Type 0, BuildingBlock: HICVOG_clean_sbu_0, # of connection points: 7
#     Node 9, Type 0, BuildingBlock: HICVOG_clean_sbu_0, # of connection points: 7
#     Node 10, Type 0, BuildingBlock: HICVOG_clean_sbu_0, # of connection points: 7
#     Node 11, Type 0, BuildingBlock: HICVOG_clean_sbu_0, # of connection points: 7
#     Node 12, Type 0, BuildingBlock: HICVOG_clean_sbu_0, # of connection points: 7
#     Node 13, Type 0, BuildingBlock: HICVOG_clean_sbu_0, # of connection points: 7
#     Node 14, Type 0, BuildingBlock: HICVOG_clean_sbu_0, # of connection points: 7
#     Node 15, Type 0, BuildingBlock: HICVOG_clean_sbu_0, # of connection points: 7
#     Edge 16, Type (0, 0), BuildingBlock: ZUJKAS_clean_linker_0, # of connection points: 2
#     Edge 17, Type (0, 0), BuildingBlock: ZUJKAS_clean_linker_0, # of connection points: 2
#     Edge 18, Type (0, 0), BuildingBlock: ZUJKAS_clean_linker_0, # of connection points: 2
#     Edge 19, Type (0, 0), BuildingBlock: ZUJKAS_clean_linker_0, # of connection points: 2
#     Edge 20, Type (0, 0), BuildingBlock: ZUJKAS_clean_linker_0, # of connection points: 2
#     Edge 21, Type (0, 0), BuildingBlock: ZUJKAS_clean_linker_0, # of connection points: 2
#     Edge 22, Type (0, 0), BuildingBlock: ZUJKAS_clean_linker_0, # of connection points: 2
#     Edge 23, Type (0, 0), BuildingBlock: ZUJKAS_clean_linker_0, # of connection points: 2
#     Edge 24, Type (0, 0), BuildingBlock: ZUJKAS_clean_linker_0, # of connection points: 2
#     Edge 25, Type (0, 0), BuildingBlock: ZUJKAS_clean_linker_0, # of connection points: 2
#     Edge 26, Type (0, 0), BuildingBlock: ZUJKAS_clean_linker_0, # of connection points: 2
#     Edge 27, Type (0, 0), BuildingBlock: ZUJKAS_clean_linker_0, # of connection points: 2
#     Edge 28, Type (0, 0), BuildingBlock: ZUJKAS_clean_linker_0, # of connection points: 2
#     Edge 29, Type (0, 0), BuildingBlock: ZUJKAS_clean_linker_0, # of connection points: 2
#     Edge 30, Type (0, 0), BuildingBlock: ZUJKAS_clean_linker_0, # of connection points: 2
#     Edge 31, Type (0, 0), BuildingBlock: ZUJKAS_clean_linker_0, # of connection points: 2
#     Edge 32, Type (0, 0), BuildingBlock: ZUJKAS_clean_linker_0, # of connection points: 2
#     Edge 33, Type (0, 0), BuildingBlock: ZUJKAS_clean_linker_0, # of connection points: 2
#     Edge 34, Type (0, 0), BuildingBlock: ZUJKAS_clean_linker_0, # of connection points: 2
#     Edge 35, Type (0, 0), BuildingBlock: ZUJKAS_clean_linker_0, # of connection points: 2
#     Edge 36, Type (0, 0), BuildingBlock: ZUJKAS_clean_linker_0, # of connection points: 2
#     Edge 37, Type (0, 0), BuildingBlock: ZUJKAS_clean_linker_0, # of connection points: 2
#     Edge 38, Type (0, 0), BuildingBlock: ZUJKAS_clean_linker_0, # of connection points: 2
#     Edge 39, Type (0, 0), BuildingBlock: ZUJKAS_clean_linker_0, # of connection points: 2
#     Edge 40, Type (0, 0), BuildingBlock: ZUJKAS_clean_linker_0, # of connection points: 2
#     Edge 41, Type (0, 0), BuildingBlock: ZUJKAS_clean_linker_0, # of connection points: 2
#     Edge 42, Type (0, 0), BuildingBlock: ZUJKAS_clean_linker_0, # of connection points: 2
#     Edge 43, Type (0, 0), BuildingBlock: ZUJKAS_clean_linker_0, # of connection points: 2
#     Edge 44, Type (0, 0), BuildingBlock: ZUJKAS_clean_linker_0, # of connection points: 2
#     Edge 45, Type (0, 0), BuildingBlock: ZUJKAS_clean_linker_0, # of connection points: 2
#     Edge 46, Type (0, 0), BuildingBlock: ZUJKAS_clean_linker_0, # of connection points: 2
#     Edge 47, Type (0, 0), BuildingBlock: ZUJKAS_clean_linker_0, # of connection points: 2
#     Edge 48, Type (0, 0), BuildingBlock: ZUJKAS_clean_linker_0, # of connection points: 2
#     Edge 49, Type (0, 0), BuildingBlock: ZUJKAS_clean_linker_0, # of connection points: 2
#     Edge 50, Type (0, 0), BuildingBlock: ZUJKAS_clean_linker_0, # of connection points: 2
#     Edge 51, Type (0, 0), BuildingBlock: ZUJKAS_clean_linker_0, # of connection points: 2
#     Edge 52, Type (0, 0), BuildingBlock: ZUJKAS_clean_linker_0, # of connection points: 2
#     Edge 53, Type (0, 0), BuildingBlock: ZUJKAS_clean_linker_0, # of connection points: 2
#     Edge 54, Type (0, 0), BuildingBlock: ZUJKAS_clean_linker_0, # of connection points: 2
#     Edge 55, Type (0, 0), BuildingBlock: ZUJKAS_clean_linker_0, # of connection points: 2
#     Edge 56, Type (0, 0), BuildingBlock: ZUJKAS_clean_linker_0, # of connection points: 2
#     Edge 57, Type (0, 0), BuildingBlock: ZUJKAS_clean_linker_0, # of connection points: 2
#     Edge 58, Type (0, 0), BuildingBlock: ZUJKAS_clean_linker_0, # of connection points: 2
#     Edge 59, Type (0, 0), BuildingBlock: ZUJKAS_clean_linker_0, # of connection points: 2
#     Edge 60, Type (0, 0), BuildingBlock: ZUJKAS_clean_linker_0, # of connection points: 2
#     Edge 61, Type (0, 0), BuildingBlock: ZUJKAS_clean_linker_0, # of connection points: 2
#     Edge 62, Type (0, 0), BuildingBlock: ZUJKAS_clean_linker_0, # of connection points: 2
#     Edge 63, Type (0, 0), BuildingBlock: ZUJKAS_clean_linker_0, # of connection points: 2
#     Edge 64, Type (0, 0), BuildingBlock: ZUJKAS_clean_linker_0, # of connection points: 2
#     Edge 65, Type (0, 0), BuildingBlock: ZUJKAS_clean_linker_0, # of connection points: 2
#     Edge 66, Type (0, 0), BuildingBlock: ZUJKAS_clean_linker_0, # of connection points: 2
#     Edge 67, Type (0, 0), BuildingBlock: ZUJKAS_clean_linker_0, # of connection points: 2
#     Edge 68, Type (0, 0), BuildingBlock: ZUJKAS_clean_linker_0, # of connection points: 2
#     Edge 69, Type (0, 0), BuildingBlock: ZUJKAS_clean_linker_0, # of connection points: 2
#     Edge 70, Type (0, 0), BuildingBlock: ZUJKAS_clean_linker_0, # of connection points: 2
#     Edge 71, Type (0, 0), BuildingBlock: ZUJKAS_clean_linker_0, # of connection points: 2
# Relax obj value: 0.373
# Max RMSD: 0.274
# Mean RMSD: 0.257
data_MOF--net-svb--node1-HICVOG_clean_sbu_0--edge1-ZUJKAS_clean_linker_0
_symmetry_space_group_name_H-M    P1
_symmetry_Int_Tables_number       1
_symmetry_cell_setting            triclinic
loop_
_symmetry_equiv_pos_as_xyz
'x, y, z'
_cell_length_a     61.285177
_cell_length_b     66.47809
_cell_length_c     32.922129
_cell_angle_alpha  95.487444
_cell_angle_beta   97.524129
_cell_angle_gamma 89.840947
loop_
_atom_site_label
_atom_site_type_symbol
_atom_site_fract_x
_atom_site_fract_y
_atom_site_fract_z
_atom_type_partial_charge
Zn0 Zn 0.10149 0.3488 0.24383 0.0
C1 C 0.10467 0.41015 0.25219 0.0
N2 N 0.09322 0.40826 0.28368 0.0
C3 C 0.09075 0.3882 0.28293 0.0
N4 N 0.10036 0.37818 0.25229 0.0
N5 N 0.10855 0.39209 0.23186 0.0
C6 C 0.16162 0.38914 0.1659 0.0
O7 O 0.16089 0.37111 0.17895 0.0
O8 O 0.07202 0.33854 0.25134 0.0
Zn9 Zn 0.11501 0.38873 0.17464 0.0
N10 N 0.12419 0.33898 0.28408 0.0
C11 C 0.16134 0.34283 0.31537 0.0
C12 C 0.14376 0.34898 0.28835 0.0
C13 C 0.12139 0.32295 0.30605 0.0
N14 N 0.15867 0.32688 0.33709 0.0
C15 C 0.13919 0.31663 0.33357 0.0
O16 O 0.11417 0.36015 0.14818 0.0
C17 C 0.11134 0.3417 0.15332 0.0
O18 O 0.10692 0.33637 0.18744 0.0
H19 H 0.14568 0.36157 0.27054 0.0
H20 H 0.10569 0.31512 0.30155 0.0
C21 C 0.07619 0.39327 0.1149 0.0
C22 C 0.06189 0.40433 0.08822 0.0
C23 C 0.08198 0.43433 0.11511 0.0
C24 C 0.09635 0.42325 0.14038 0.0
N25 N 0.09304 0.40306 0.14039 0.0
N26 N 0.06531 0.42465 0.08964 0.0
H27 H 0.0746 0.37706 0.11442 0.0
C28 C 0.05606 0.34399 0.22629 0.0
O29 O 0.05996 0.35554 0.19775 0.0
O30 O 0.14461 0.40019 0.16572 0.0
H31 H 0.11034 0.43062 0.15924 0.0
H32 H 0.17705 0.35062 0.31896 0.0
H33 H 0.08433 0.45045 0.11503 0.0
Zn34 Zn 0.86238 0.8862 0.37325 0.0
C35 C 0.86873 0.88241 0.25252 0.0
N36 N 0.86359 0.90206 0.25569 0.0
C37 C 0.85765 0.90508 0.29377 0.0
N38 N 0.85963 0.88811 0.31373 0.0
N39 N 0.86604 0.87384 0.28705 0.0
C40 C 0.9131 0.83987 0.31927 0.0
O41 O 0.90706 0.85062 0.35144 0.0
O42 O 0.83825 0.90109 0.40016 0.0
Zn43 Zn 0.86876 0.84512 0.2897 0.0
N44 N 0.89108 0.89681 0.39762 0.0
C45 C 0.92597 0.91012 0.3889 0.0
C46 C 0.90509 0.90291 0.37236 0.0
C47 C 0.89753 0.89673 0.43881 0.0
N48 N 0.93238 0.91017 0.42991 0.0
C49 C 0.91889 0.90344 0.45559 0.0
O50 O 0.86161 0.83345 0.34089 0.0
C51 C 0.86022 0.83926 0.37838 0.0
O52 O 0.86094 0.85792 0.3914 0.0
H53 H 0.90027 0.90191 0.33952 0.0
H54 H 0.88617 0.89135 0.45798 0.0
C55 C 0.85817 0.81921 0.21343 0.0
C56 C 0.84358 0.81015 0.18003 0.0
C57 C 0.81392 0.8276 0.20712 0.0
C58 C 0.8284 0.83643 0.24004 0.0
N59 N 0.85014 0.83202 0.24268 0.0
N60 N 0.8218 0.81468 0.17816 0.0
H61 H 0.87556 0.81589 0.21676 0.0
C62 C 0.81969 0.89202 0.39523 0.0
O63 O 0.81689 0.87566 0.36926 0.0
O64 O 0.89942 0.83661 0.28688 0.0
H65 H 0.82242 0.84673 0.26348 0.0
H66 H 0.93719 0.91526 0.3692 0.0
H67 H 0.79653 0.8309 0.20462 0.0
Zn68 Zn 0.42944 0.64593 0.608 0.0
C69 C 0.36569 0.6278 0.5867 0.0
N70 N 0.36835 0.63236 0.54861 0.0
C71 C 0.38933 0.63877 0.55334 0.0
N72 N 0.39897 0.63826 0.59236 0.0
N73 N 0.38406 0.63183 0.61392 0.0
C74 C 0.37624 0.59518 0.68524 0.0
O75 O 0.3916 0.59289 0.66086 0.0
O76 O 0.43164 0.676 0.61244 0.0
Zn77 Zn 0.3867 0.63511 0.6739 0.0
N78 N 0.44512 0.63354 0.56452 0.0
C79 C 0.4478 0.60335 0.52057 0.0
C80 C 0.43902 0.61398 0.55295 0.0
C81 C 0.46019 0.64291 0.5454 0.0
N82 N 0.46257 0.61262 0.50124 0.0
C83 C 0.46925 0.6321 0.51264 0.0
O84 O 0.41783 0.63183 0.70147 0.0
C85 C 0.43795 0.63207 0.69561 0.0
O86 O 0.44368 0.63648 0.6617 0.0
H87 H 0.42712 0.60681 0.56854 0.0
H88 H 0.46464 0.65854 0.55498 0.0
C89 C 0.37944 0.66987 0.73192 0.0
C90 C 0.37217 0.68964 0.74245 0.0
C91 C 0.35947 0.69244 0.67189 0.0
C92 C 0.36682 0.67304 0.66166 0.0
N93 N 0.37638 0.66197 0.69171 0.0
N94 N 0.36225 0.70022 0.71181 0.0
H95 H 0.38731 0.66084 0.7552 0.0
C96 C 0.42616 0.68555 0.64478 0.0
O97 O 0.42049 0.67538 0.67408 0.0
O98 O 0.36962 0.61296 0.69476 0.0
H99 H 0.36517 0.66701 0.62984 0.0
H100 H 0.44289 0.58784 0.51077 0.0
H101 H 0.35175 0.70134 0.64824 0.0
Zn102 Zn 0.61314 0.13651 0.8792 0.0
C103 C 0.6063 0.14169 0.75761 0.0
N104 N 0.61606 0.12365 0.75454 0.0
C105 C 0.62198 0.12019 0.79414 0.0
N106 N 0.61575 0.13547 0.82053 0.0
N107 N 0.60658 0.14916 0.79715 0.0
C108 C 0.55893 0.17836 0.83932 0.0
O109 O 0.56991 0.16889 0.8686 0.0
O110 O 0.63743 0.12035 0.90884 0.0
Zn111 Zn 0.60061 0.17739 0.81151 0.0
N112 N 0.58372 0.12657 0.8846 0.0
C113 C 0.5516 0.10861 0.85187 0.0
C114 C 0.5727 0.11595 0.85074 0.0
C115 C 0.57391 0.1309 0.91932 0.0
N116 N 0.542 0.11259 0.8865 0.0
C117 C 0.55238 0.12371 0.92035 0.0
O118 O 0.61362 0.18922 0.86845 0.0
C119 C 0.61798 0.18321 0.90416 0.0
O120 O 0.61725 0.16453 0.90971 0.0
H121 H 0.58018 0.11315 0.82286 0.0
H122 H 0.58274 0.13978 0.94561 0.0
C123 C 0.60208 0.20627 0.74927 0.0
C124 C 0.61244 0.21477 0.71899 0.0
C125 C 0.64403 0.19491 0.73595 0.0
C126 C 0.6338 0.18662 0.76585 0.0
N127 N 0.61302 0.19222 0.7717 0.0
N128 N 0.63313 0.20865 0.71324 0.0
H129 H 0.58546 0.21034 0.75422 0.0
C130 C 0.65686 0.12457 0.90245 0.0
O131 O 0.65941 0.13739 0.87539 0.0
O132 O 0.56857 0.18281 0.80945 0.0
H133 H 0.64219 0.17545 0.7839 0.0
H134 H 0.54281 0.09993 0.82528 0.0
H135 H 0.66047 0.1904 0.73066 0.0
Zn136 Zn 0.11387 0.63689 0.37489 0.0
C137 C 0.10981 0.64044 0.25247 0.0
N138 N 0.11885 0.62206 0.25117 0.0
C139 C 0.12374 0.61913 0.29131 0.0
N140 N 0.11755 0.63497 0.31631 0.0
N141 N 0.10952 0.6485 0.29148 0.0
C142 C 0.06037 0.67885 0.32044 0.0
O143 O 0.06899 0.66999 0.3527 0.0
O144 O 0.13715 0.62022 0.40572 0.0
Zn145 Zn 0.10417 0.67677 0.30367 0.0
N146 N 0.0838 0.62813 0.37941 0.0
C147 C 0.05019 0.61397 0.34382 0.0
C148 C 0.07188 0.62001 0.34388 0.0
C149 C 0.07453 0.63087 0.4151 0.0
N150 N 0.04106 0.61646 0.37923 0.0
C151 C 0.05242 0.62482 0.41517 0.0
O152 O 0.11465 0.68887 0.36165 0.0
C153 C 0.11923 0.68361 0.39793 0.0
O154 O 0.11886 0.6651 0.40493 0.0
H155 H 0.07909 0.61824 0.31557 0.0
H156 H 0.0843 0.6375 0.44288 0.0
C157 C 0.11075 0.7059 0.24492 0.0
C158 C 0.12341 0.71483 0.21846 0.0
C159 C 0.1531 0.69324 0.23844 0.0
C160 C 0.14061 0.68458 0.26464 0.0
N161 N 0.11971 0.69092 0.26722 0.0
N162 N 0.14424 0.70805 0.21607 0.0
H163 H 0.09398 0.71045 0.24733 0.0
C164 C 0.15665 0.62549 0.40177 0.0
O165 O 0.15927 0.63923 0.37659 0.0
O166 O 0.07242 0.68245 0.2934 0.0
H167 H 0.14742 0.67273 0.28267 0.0
H168 H 0.04062 0.60739 0.31577 0.0
H169 H 0.16972 0.68824 0.23584 0.0
Zn170 Zn 0.61423 0.88955 0.6818 0.0
C171 C 0.59135 0.88844 0.79146 0.0
N172 N 0.59413 0.9085 0.79303 0.0
C173 C 0.60487 0.91058 0.76066 0.0
N174 N 0.60791 0.89265 0.73903 0.0
N175 N 0.59994 0.87863 0.75942 0.0
C176 C 0.5534 0.84899 0.73308 0.0
O177 O 0.55846 0.86311 0.71046 0.0
O178 O 0.64409 0.90086 0.67428 0.0
Zn179 Zn 0.59924 0.84932 0.74917 0.0
N180 N 0.59246 0.90424 0.64791 0.0
C181 C 0.5815 0.93574 0.62361 0.0
C182 C 0.59581 0.92445 0.64855 0.0
C183 C 0.57561 0.89463 0.62208 0.0
N184 N 0.56485 0.92623 0.59776 0.0
C185 C 0.5614 0.90589 0.5957 0.0
O186 O 0.60522 0.8372 0.69283 0.0
C187 C 0.61031 0.84257 0.65919 0.0
O188 O 0.61347 0.86104 0.65451 0.0
H189 H 0.60979 0.93169 0.66767 0.0
H190 H 0.57398 0.8784 0.62108 0.0
C191 C 0.61722 0.82303 0.81263 0.0
C192 C 0.6347 0.81611 0.84009 0.0
C193 C 0.65856 0.84013 0.81898 0.0
C194 C 0.64129 0.8469 0.79213 0.0
N195 N 0.62103 0.8383 0.78935 0.0
N196 N 0.65488 0.82498 0.84211 0.0
H197 H 0.60096 0.8163 0.80934 0.0
C198 C 0.66039 0.88903 0.67281 0.0
O199 O 0.65842 0.87053 0.68288 0.0
O200 O 0.56878 0.84035 0.7545 0.0
H201 H 0.64398 0.8589 0.77328 0.0
H202 H 0.58389 0.95188 0.62405 0.0
H203 H 0.67481 0.84682 0.82141 0.0
Zn204 Zn 0.36283 0.38752 0.86409 0.0
C205 C 0.36722 0.37652 0.74337 0.0
N206 N 0.35966 0.39528 0.73999 0.0
C207 C 0.3543 0.40097 0.77791 0.0
N208 N 0.35884 0.3863 0.80379 0.0
N209 N 0.36623 0.37083 0.7812 0.0
C210 C 0.40966 0.33423 0.82893 0.0
O211 O 0.40404 0.34753 0.85775 0.0
O212 O 0.33922 0.40325 0.8913 0.0
Zn213 Zn 0.36699 0.34259 0.78976 0.0
N214 N 0.39212 0.39841 0.88428 0.0
C215 C 0.42442 0.41537 0.87195 0.0
C216 C 0.40324 0.40797 0.85842 0.0
C217 C 0.40174 0.39531 0.92287 0.0
N218 N 0.43395 0.41241 0.91042 0.0
C219 C 0.42337 0.40239 0.93645 0.0
O220 O 0.35533 0.33439 0.84013 0.0
C221 C 0.35713 0.34186 0.87742 0.0
O222 O 0.36136 0.36053 0.88752 0.0
H223 H 0.39577 0.40984 0.82747 0.0
H224 H 0.39257 0.38745 0.94254 0.0
C225 C 0.35834 0.31642 0.71314 0.0
C226 C 0.34432 0.30676 0.67961 0.0
C227 C 0.31358 0.32235 0.70654 0.0
C228 C 0.32749 0.33178 0.73961 0.0
N229 N 0.3495 0.32857 0.74243 0.0
N230 N 0.32226 0.31007 0.6776 0.0
H231 H 0.37594 0.31411 0.71647 0.0
C232 C 0.31955 0.39653 0.88306 0.0
O233 O 0.31504 0.3821 0.85296 0.0
O234 O 0.39704 0.33109 0.79511 0.0
H235 H 0.32088 0.34161 0.76305 0.0
H236 H 0.43334 0.42321 0.85186 0.0
H237 H 0.296 0.3247 0.70392 0.0
Zn238 Zn 0.93272 0.14179 0.10301 0.0
C239 C 0.86775 0.12757 0.08017 0.0
N240 N 0.87112 0.13267 0.04281 0.0
C241 C 0.89257 0.13763 0.04837 0.0
N242 N 0.90177 0.13585 0.08721 0.0
N243 N 0.88614 0.1301 0.10796 0.0
C244 C 0.87664 0.09269 0.17896 0.0
O245 O 0.89261 0.08975 0.15606 0.0
O246 O 0.93675 0.17168 0.10683 0.0
Zn247 Zn 0.88794 0.13295 0.16813 0.0
N248 N 0.94823 0.12793 0.06043 0.0
C249 C 0.94873 0.09724 0.01727 0.0
C250 C 0.94002 0.10907 0.04813 0.0
C251 C 0.96527 0.13549 0.0433 0.0
N252 N 0.96562 0.10462 1.00027 0.0
C253 C 0.9745 0.12338 0.01212 0.0
O254 O 0.91892 0.12973 0.19712 0.0
C255 C 0.93919 0.12933 0.1921 0.0
O256 O 0.94553 0.13281 0.15807 0.0
H257 H 0.92664 0.10331 0.0622 0.0
H258 H 0.97155 0.15046 0.0543 0.0
C259 C 0.87915 0.16717 0.22701 0.0
C260 C 0.87103 0.18662 0.23779 0.0
C261 C 0.85899 0.18971 0.16711 0.0
C262 C 0.86714 0.17065 0.15666 0.0
N263 N 0.87678 0.15955 0.18658 0.0
N264 N 0.86107 0.19718 0.20718 0.0
H265 H 0.88707 0.15815 0.25027 0.0
C266 C 0.92736 0.1807 0.13548 0.0
O267 O 0.91717 0.16985 0.15855 0.0
O268 O 0.87035 0.11068 0.18742 0.0
H269 H 0.86613 0.16496 0.12474 0.0
H270 H 0.94223 0.08224 0.00697 0.0
H271 H 0.85123 0.19862 0.1435 0.0
Zn272 Zn 0.89007 0.61626 0.83239 0.0
C273 C 0.90963 0.61768 0.71966 0.0
N274 N 0.90683 0.59762 0.71731 0.0
C275 C 0.8974 0.59515 0.7512 0.0
N276 N 0.89512 0.61286 0.77426 0.0
N277 N 0.90242 0.62703 0.75349 0.0
C278 C 0.94571 0.65972 0.79241 0.0
O279 O 0.93772 0.64863 0.81807 0.0
O280 O 0.86132 0.60379 0.84307 0.0
Zn281 Zn 0.90218 0.65616 0.76213 0.0
N282 N 0.91342 0.60298 0.86575 0.0
C283 C 0.92692 0.57177 0.88802 0.0
C284 C 0.91169 0.58255 0.86383 0.0
C285 C 0.92965 0.61326 0.89204 0.0
N286 N 0.94294 0.58191 0.9143 0.0
C287 C 0.94485 0.60244 0.91757 0.0
O288 O 0.89375 0.66866 0.81633 0.0
C289 C 0.88977 0.66355 0.85091 0.0
O290 O 0.88885 0.64509 0.85773 0.0
H291 H 0.89822 0.57472 0.84432 0.0
H292 H 0.93009 0.62959 0.89406 0.0
C293 C 0.88536 0.68173 0.69593 0.0
C294 C 0.86834 0.68759 0.66623 0.0
C295 C 0.84582 0.66095 0.68142 0.0
C296 C 0.8625 0.65539 0.71091 0.0
N297 N 0.88185 0.66583 0.71782 0.0
N298 N 0.84907 0.6769 0.66011 0.0
H299 H 0.90082 0.68996 0.70239 0.0
C300 C 0.84349 0.61369 0.83885 0.0
O301 O 0.84321 0.63061 0.8212 0.0
O302 O 0.93294 0.66542 0.76214 0.0
H303 H 0.86 0.64291 0.72867 0.0
H304 H 0.92577 0.55548 0.88661 0.0
H305 H 0.8303 0.6528 0.67574 0.0
Zn306 Zn 0.14542 0.11904 0.63452 0.0
C307 C 0.14181 0.12711 0.75658 0.0
N308 N 0.15082 0.10878 0.75808 0.0
C309 C 0.15571 0.10425 0.71942 0.0
N310 N 0.14943 0.11914 0.69482 0.0
N311 N 0.14129 0.13353 0.71903 0.0
C312 C 0.0884 0.16142 0.68515 0.0
O313 O 0.0946 0.15144 0.65224 0.0
O314 O 0.16986 0.10384 0.60858 0.0
Zn315 Zn 0.13408 0.16107 0.71192 0.0
N316 N 0.11645 0.10756 0.61359 0.0
C317 C 0.08367 0.09157 0.62641 0.0
C318 C 0.10478 0.09908 0.64011 0.0
C319 C 0.10745 0.10946 0.57404 0.0
N320 N 0.07474 0.09337 0.58703 0.0
C321 C 0.08586 0.10228 0.56021 0.0
O322 O 0.13968 0.17164 0.65893 0.0
C323 C 0.14346 0.16545 0.62282 0.0
O324 O 0.1457 0.14671 0.61216 0.0
H325 H 0.11176 0.09817 0.67174 0.0
H326 H 0.11704 0.11655 0.55391 0.0
C327 C 0.14284 0.18803 0.78737 0.0
C328 C 0.15695 0.19821 0.82013 0.0
C329 C 0.18779 0.18576 0.78882 0.0
C330 C 0.17378 0.17579 0.75656 0.0
N331 N 0.15166 0.17706 0.75647 0.0
N332 N 0.17909 0.19664 0.81971 0.0
H333 H 0.12516 0.18831 0.78685 0.0
C334 C 0.18812 0.11341 0.61281 0.0
O335 O 0.19008 0.13059 0.63638 0.0
O336 O 0.10263 0.16603 0.71622 0.0
H337 H 0.1804 0.16681 0.73194 0.0
H338 H 0.0743 0.0846 0.64705 0.0
H339 H 0.20545 0.18481 0.78948 0.0
Zn340 Zn 0.57159 0.35483 0.3917 0.0
C341 C 0.63067 0.38154 0.43179 0.0
N342 N 0.6247 0.37716 0.46806 0.0
C343 C 0.6053 0.36761 0.45685 0.0
N344 N 0.59961 0.3663 0.41588 0.0
N345 N 0.61561 0.37459 0.39948 0.0
C346 C 0.62936 0.41232 0.33272 0.0
O347 O 0.61353 0.41491 0.356 0.0
O348 O 0.57241 0.32468 0.38946 0.0
Zn349 Zn 0.61764 0.3715 0.34013 0.0
N350 N 0.54988 0.3662 0.42513 0.0
C351 C 0.53254 0.39718 0.4436 0.0
C352 C 0.54836 0.38653 0.42398 0.0
C353 C 0.53635 0.35595 0.44603 0.0
N354 N 0.51872 0.38704 0.46353 0.0
C355 C 0.52011 0.36671 0.46554 0.0
O356 O 0.58833 0.37322 0.30421 0.0
C357 C 0.56798 0.36953 0.30439 0.0
O358 O 0.56097 0.36273 0.3351 0.0
H359 H 0.55922 0.39434 0.40721 0.0
H360 H 0.53776 0.33973 0.44639 0.0
C361 C 0.6283 0.33662 0.28605 0.0
C362 C 0.63638 0.31697 0.27742 0.0
C363 C 0.64702 0.31522 0.34906 0.0
C364 C 0.6388 0.33448 0.3574 0.0
N365 N 0.62985 0.34496 0.32588 0.0
N366 N 0.64564 0.30697 0.30951 0.0
H367 H 0.62091 0.34523 0.26164 0.0
C368 C 0.57916 0.3149 0.35852 0.0
O369 O 0.58498 0.3248 0.32893 0.0
O370 O 0.63548 0.39439 0.32292 0.0
H371 H 0.63951 0.34099 0.38889 0.0
H372 H 0.53105 0.41335 0.44261 0.0
H373 H 0.6543 0.30679 0.37385 0.0
Zn374 Zn 0.40248 0.8305 0.20943 0.0
C375 C 0.3794 0.8871 0.22112 0.0
N376 N 0.3845 0.8842 0.26124 0.0
C377 C 0.39476 0.86639 0.26 0.0
N378 N 0.39566 0.85859 0.22101 0.0
N379 N 0.38673 0.87179 0.19615 0.0
C380 C 0.3467 0.87791 0.10679 0.0
O381 O 0.34456 0.86366 0.13109 0.0
O382 O 0.43238 0.82473 0.23555 0.0
Zn383 Zn 0.39068 0.87049 0.13775 0.0
N384 N 0.38283 0.81514 0.23635 0.0
C385 C 0.34639 0.80893 0.24945 0.0
C386 C 0.36109 0.81959 0.23055 0.0
C387 C 0.39059 0.80038 0.26031 0.0
N388 N 0.35405 0.79417 0.2732 0.0
C389 C 0.3758 0.78937 0.27933 0.0
O390 O 0.39023 0.84242 0.10771 0.0
C391 C 0.39395 0.82406 0.11388 0.0
O392 O 0.39893 0.81878 0.15002 0.0
H393 H 0.3553 0.83139 0.21144 0.0
H394 H 0.40807 0.79756 0.26471 0.0
C395 C 0.42929 0.87743 0.0986 0.0
C396 C 0.45056 0.88506 0.09688 0.0
C397 C 0.45117 0.90074 0.16498 0.0
C398 C 0.43032 0.8929 0.16675 0.0
N399 N 0.41954 0.88177 0.13335 0.0
N400 N 0.46073 0.89669 0.13026 0.0
H401 H 0.42053 0.86822 0.07273 0.0
C402 C 0.45 0.82621 0.21978 0.0
O403 O 0.44928 0.83292 0.18336 0.0
O404 O 0.36588 0.88482 0.10521 0.0
H405 H 0.42282 0.89568 0.19466 0.0
H406 H 0.32901 0.8123 0.24527 0.0
H407 H 0.4598 0.90983 0.19115 0.0
Zn408 Zn 0.90371 0.32899 0.70279 0.0
C409 C 0.88107 0.38567 0.71547 0.0
N410 N 0.88635 0.38276 0.75555 0.0
C411 C 0.89647 0.36487 0.75401 0.0
N412 N 0.89708 0.35704 0.71495 0.0
N413 N 0.88805 0.37026 0.69031 0.0
C414 C 0.84709 0.37764 0.60658 0.0
O415 O 0.84581 0.36431 0.63319 0.0
O416 O 0.93564 0.32395 0.71393 0.0
Zn417 Zn 0.89109 0.36863 0.63159 0.0
N418 N 0.88881 0.31435 0.73936 0.0
C419 C 0.85626 0.31119 0.77044 0.0
C420 C 0.86779 0.32001 0.74293 0.0
C421 C 0.89878 0.29986 0.76177 0.0
N422 N 0.86617 0.29691 0.79306 0.0
C423 C 0.88713 0.2908 0.78953 0.0
O424 O 0.88858 0.34034 0.60203 0.0
C425 C 0.88961 0.32177 0.60851 0.0
O426 O 0.89424 0.31642 0.6447 0.0
H427 H 0.86019 0.33155 0.7249 0.0
H428 H 0.91564 0.29584 0.75864 0.0
C429 C 0.9298 0.37489 0.59096 0.0
C430 C 0.95149 0.38172 0.58972 0.0
C431 C 0.95289 0.39611 0.65893 0.0
C432 C 0.93167 0.3891 0.66018 0.0
N433 N 0.92031 0.37896 0.62611 0.0
N434 N 0.96224 0.39229 0.62395 0.0
H435 H 0.92055 0.36648 0.56454 0.0
C436 C 0.94784 0.32654 0.68655 0.0
O437 O 0.93958 0.33504 0.65357 0.0
O438 O 0.86607 0.38358 0.60079 0.0
H439 H 0.92439 0.39169 0.68834 0.0
H440 H 0.83958 0.31569 0.77393 0.0
H441 H 0.962 0.40436 0.68572 0.0
Zn442 Zn 0.40086 0.15769 0.25534 0.0
C443 C 0.38876 0.09746 0.23859 0.0
N444 N 0.39561 0.10029 0.20232 0.0
C445 C 0.40044 0.12007 0.20611 0.0
N446 N 0.39689 0.12891 0.24311 0.0
N447 N 0.39026 0.11471 0.26454 0.0
C448 C 0.35109 0.11009 0.34403 0.0
O449 O 0.34835 0.12603 0.32324 0.0
O450 O 0.43192 0.16467 0.24965 0.0
Zn451 Zn 0.39368 0.11718 0.32505 0.0
N452 N 0.37993 0.16985 0.21575 0.0
C453 C 0.34294 0.16796 0.18301 0.0
C454 C 0.35941 0.16164 0.21206 0.0
C455 C 0.38465 0.18456 0.19193 0.0
N456 N 0.34763 0.18229 0.15875 0.0
C457 C 0.368 0.19092 0.16224 0.0
O458 O 0.39113 0.1456 0.35218 0.0
C459 C 0.39192 0.16418 0.34616 0.0
O460 O 0.39529 0.16967 0.31156 0.0
H461 H 0.356 0.15003 0.2313 0.0
H462 H 0.40121 0.19064 0.19514 0.0
C463 C 0.43369 0.11571 0.38292 0.0
C464 C 0.45559 0.11 0.39527 0.0
C465 C 0.45518 0.08974 0.33168 0.0
C466 C 0.43373 0.09563 0.31954 0.0
N467 N 0.42321 0.10826 0.34534 0.0
N468 N 0.46554 0.09702 0.36903 0.0
H469 H 0.42502 0.12589 0.40271 0.0
C470 C 0.44671 0.15533 0.27105 0.0
O471 O 0.44072 0.14151 0.29345 0.0
O472 O 0.36987 0.10168 0.34719 0.0
H473 H 0.4258 0.09047 0.28939 0.0
H474 H 0.32657 0.16143 0.17951 0.0
H475 H 0.46366 0.07965 0.31137 0.0
Zn476 Zn 0.64054 0.62109 0.14124 0.0
C477 C 0.63603 0.62485 0.26261 0.0
N478 N 0.64019 0.605 0.25857 0.0
C479 C 0.64603 0.60195 0.22045 0.0
N480 N 0.64462 0.6191 0.20096 0.0
N481 N 0.63903 0.63348 0.22836 0.0
C482 C 0.58653 0.66693 0.22319 0.0
O483 O 0.58414 0.65828 0.18527 0.0
O484 O 0.66414 0.60666 0.11179 0.0
Zn485 Zn 0.63444 0.662 0.22591 0.0
N486 N 0.61159 0.61026 0.11889 0.0
C487 C 0.57695 0.59739 0.13024 0.0
C488 C 0.59811 0.60437 0.1453 0.0
C489 C 0.60429 0.61044 0.078 0.0
N490 N 0.56968 0.59748 0.08956 0.0
C491 C 0.58258 0.60408 0.06276 0.0
O492 O 0.63592 0.6737 0.17191 0.0
C493 C 0.63827 0.66797 0.13478 0.0
O494 O 0.6404 0.64938 0.12283 0.0
H495 H 0.60353 0.60545 0.17794 0.0
H496 H 0.61522 0.61575 0.05796 0.0
C497 C 0.64768 0.68967 0.29682 0.0
C498 C 0.66247 0.69935 0.32906 0.0
C499 C 0.69199 0.68242 0.30036 0.0
C500 C 0.67716 0.67259 0.26905 0.0
N501 N 0.65534 0.6764 0.26791 0.0
N502 N 0.68434 0.69544 0.32952 0.0
H503 H 0.63025 0.69259 0.29455 0.0
C504 C 0.68376 0.61352 0.11973 0.0
O505 O 0.68835 0.62774 0.15025 0.0
O506 O 0.60555 0.66894 0.24338 0.0
H507 H 0.68291 0.66194 0.24595 0.0
H508 H 0.56615 0.5924 0.15088 0.0
H509 H 0.70945 0.67961 0.30171 0.0
Zn510 Zn 0.07624 0.865 0.90639 0.0
C511 C 0.14131 0.87883 0.91554 0.0
N512 N 0.14124 0.8736 0.95393 0.0
C513 C 0.12013 0.86856 0.95474 0.0
N514 N 0.1078 0.87063 0.91808 0.0
N515 N 0.12129 0.87653 0.89284 0.0
C516 C 0.13101 0.91414 0.82124 0.0
O517 O 0.11771 0.91793 0.84921 0.0
O518 O 0.06999 0.83576 0.91174 0.0
Zn519 Zn 0.11516 0.87596 0.83235 0.0
N520 N 0.06115 0.88175 0.94525 0.0
C521 C 0.05714 0.91491 0.97719 0.0
C522 C 0.06776 0.9014 0.95162 0.0
C523 C 0.04414 0.87495 0.96342 0.0
N524 N 0.04018 0.90825 0.99513 0.0
C525 C 0.03322 0.88861 0.98921 0.0
O526 O 0.08448 0.88425 0.81234 0.0
C527 C 0.06501 0.88066 0.81927 0.0
O528 O 0.06125 0.8725 0.85115 0.0
H529 H 0.08111 0.90652 0.93656 0.0
H530 H 0.03895 0.8593 0.95709 0.0
C531 C 0.12588 0.84062 0.77354 0.0
C532 C 0.12225 0.82005 0.7583 0.0
C533 C 0.099 0.81636 0.80946 0.0
C534 C 0.10228 0.83658 0.82377 0.0
N535 N 0.11608 0.8482 0.80677 0.0
N536 N 0.10904 0.80862 0.77732 0.0
H537 H 0.13592 0.85039 0.75895 0.0
C538 C 0.08401 0.82159 0.91276 0.0
O539 O 0.10476 0.8256 0.91078 0.0
O540 O 0.13448 0.89576 0.80922 0.0
H541 H 0.0934 0.84334 0.84765 0.0
H542 H 0.06221 0.93061 0.98253 0.0
H543 H 0.08805 0.80699 0.82292 0.0
H544 H 0.94617 0.20784 0.09302 0.0
H545 H 0.95614 0.24294 0.1173 0.0
H546 H 0.92385 0.23833 0.22482 0.0
H547 H 0.91365 0.20326 0.20083 0.0
H548 H 0.9286 0.28138 0.16283 0.0
H549 H 0.99731 0.24167 0.25017 0.0
H550 H 0.98352 0.2299 0.20204 0.0
H551 H 0.96932 0.23272 0.24646 0.0
C552 C 0.94073 0.21444 0.12131 0.0
C553 C 0.92968 0.2027 0.14561 0.0
C554 C 0.94621 0.23452 0.13487 0.0
C555 C 0.94072 0.24304 0.17278 0.0
C556 C 0.92805 0.23194 0.19535 0.0
H557 H 0.03933 0.32924 0.29018 0.0
H558 H 0.00519 0.30992 0.28676 0.0
C559 C 0.92245 0.21188 0.18173 0.0
C560 C 0.95221 0.26156 0.19219 0.0
H561 H 1.00152 0.27618 0.24631 0.0
C562 C 0.94434 0.28045 0.18186 0.0
C563 C 0.97246 0.26016 0.21756 0.0
C564 C 0.9813 0.24008 0.22993 0.0
C565 C 0.957 0.29806 0.19459 0.0
C566 C 0.97826 0.29641 0.21676 0.0
C567 C 0.98527 0.27758 0.22935 0.0
C568 C 0.99492 0.31288 0.22208 0.0
C569 C 0.9476 0.31809 0.18348 0.0
C570 C 1.00002 0.32182 0.18745 0.0
C571 C 0.01923 0.3333 0.18969 0.0
C572 C 0.03398 0.33544 0.22622 0.0
C573 C 0.02831 0.32757 0.2615 0.0
C574 C 0.00877 0.31661 0.25959 0.0
H575 H 0.92953 0.31831 0.18428 0.0
H576 H 0.95528 0.33088 0.20464 0.0
H577 H 0.95039 0.32032 0.15157 0.0
H578 H 0.9901 0.31871 0.15781 0.0
H579 H 0.02329 0.33916 0.16198 0.0
H580 H 0.03476 0.69245 0.25525 0.0
H581 H 0.00789 0.71954 0.25927 0.0
H582 H 0.01283 0.71763 0.39073 0.0
H583 H 0.03946 0.69027 0.38698 0.0
H584 H 0.9695 0.72761 0.34919 0.0
H585 H 0.03848 0.77373 0.31217 0.0
H586 H 0.03072 0.75235 0.27553 0.0
H587 H 0.04214 0.74841 0.32726 0.0
C588 C 0.02953 0.69733 0.2848 0.0
C589 C 0.03953 0.68969 0.32095 0.0
C590 C 0.01429 0.71281 0.28705 0.0
C591 C 0.00907 0.72087 0.32544 0.0
C592 C 0.01697 0.71166 0.36094 0.0
H593 H 0.93722 0.83025 0.39027 0.0
H594 H 0.9637 0.80271 0.39626 0.0
C595 C 0.0321 0.69601 0.35869 0.0
C596 C 0.99795 0.74044 0.32905 0.0
H597 H 0.00399 0.79002 0.31356 0.0
C598 C 0.97704 0.74132 0.3418 0.0
C599 C 0.00816 0.75825 0.31992 0.0
C600 C 0.0312 0.75826 0.30832 0.0
C601 C 0.96552 0.75954 0.34379 0.0
C602 C 0.97544 0.77717 0.33327 0.0
C603 C 0.99659 0.7764 0.32166 0.0
C604 C 0.96318 0.79609 0.33054 0.0
C605 C 0.94253 0.75971 0.35561 0.0
C606 C 0.95537 0.80207 0.29167 0.0
C607 C 0.94033 0.81772 0.2881 0.0
C608 C 0.93304 0.82759 0.32344 0.0
C609 C 0.94254 0.82285 0.36253 0.0
C610 C 0.9575 0.80707 0.36604 0.0
H611 H 0.93619 0.74424 0.35751 0.0
H612 H 0.94256 0.76842 0.38611 0.0
H613 H 0.93107 0.76726 0.33296 0.0
H614 H 0.95982 0.79378 0.26402 0.0
H615 H 0.9334 0.82125 0.25763 0.0
H616 H 0.53663 0.82229 0.77915 0.0
H617 H 0.50204 0.80337 0.76107 0.0
H618 H 0.48428 0.83886 0.65902 0.0
H619 H 0.51883 0.85791 0.67676 0.0
H620 H 0.45183 0.81317 0.73438 0.0
H621 H 0.50094 0.77845 0.61483 0.0
H622 H 0.51399 0.79319 0.66031 0.0
H623 H 0.49784 0.80546 0.62059 0.0
C624 C 0.52509 0.82646 0.75356 0.0
C625 C 0.53067 0.84115 0.72865 0.0
C626 C 0.50526 0.81578 0.74355 0.0
C627 C 0.49083 0.81967 0.70855 0.0
C628 C 0.49528 0.83573 0.68616 0.0
H629 H 0.42473 0.71167 0.58557 0.0
H630 H 0.43218 0.74801 0.59586 0.0
C631 C 0.51508 0.84648 0.69624 0.0
C632 C 0.47422 0.80422 0.69091 0.0
H633 H 0.46951 0.76134 0.62519 0.0
C634 C 0.45529 0.80202 0.70985 0.0
C635 C 0.47878 0.78992 0.65863 0.0
C636 C 0.49899 0.79169 0.6373 0.0
C637 C 0.44128 0.78517 0.69855 0.0
C638 C 0.44693 0.76991 0.66876 0.0
C639 C 0.46509 0.77295 0.64802 0.0
C640 C 0.43661 0.74951 0.66249 0.0
C641 C 0.42086 0.78377 0.71923 0.0
C642 C 0.43574 0.73834 0.69642 0.0
C643 C 0.43097 0.71769 0.69053 0.0
C644 C 0.42774 0.70772 0.65066 0.0
C645 C 0.42745 0.71899 0.61666 0.0
C646 C 0.4316 0.73976 0.62254 0.0
H647 H 0.41385 0.79901 0.72555 0.0
H648 H 0.40804 0.77394 0.7002 0.0
H649 H 0.42524 0.77755 0.74931 0.0
H650 H 0.44021 0.74523 0.72753 0.0
H651 H 0.43125 0.70933 0.71728 0.0
H652 H 0.42866 0.3085 0.77512 0.0
H653 H 0.45109 0.27924 0.79144 0.0
H654 H 0.4516 0.29667 0.92117 0.0
H655 H 0.4292 0.32621 0.90516 0.0
H656 H 0.49274 0.28248 0.89715 0.0
H657 H 0.42368 0.23011 0.83582 0.0
H658 H 0.4287 0.24787 0.80024 0.0
H659 H 0.41986 0.25681 0.84875 0.0
C660 C 0.43385 0.30631 0.80714 0.0
C661 C 0.42699 0.31947 0.83886 0.0
C662 C 0.44647 0.28952 0.81639 0.0
C663 C 0.45229 0.28555 0.85743 0.0
C664 C 0.44689 0.2994 0.88931 0.0
H665 H 0.54055 0.18404 0.91077 0.0
H666 H 0.51066 0.2073 0.92411 0.0
C667 C 0.43428 0.31632 0.88008 0.0
C668 C 0.46376 0.26666 0.86634 0.0
H669 H 0.46018 0.21583 0.83957 0.0
C670 C 0.48553 0.26782 0.88567 0.0
C671 C 0.45404 0.24761 0.8518 0.0
C672 C 0.4302 0.24547 0.83339 0.0
C673 C 0.49856 0.25048 0.88734 0.0
C674 C 0.48937 0.23168 0.86948 0.0
C675 C 0.4671 0.23032 0.8531 0.0
C676 C 0.50359 0.21434 0.86098 0.0
C677 C 0.5225 0.2526 0.90523 0.0
C678 C 0.50847 0.20988 0.82071 0.0
C679 C 0.52549 0.19675 0.813 0.0
C680 C 0.53777 0.18785 0.8455 0.0
C681 C 0.53141 0.1908 0.88517 0.0
C682 C 0.51444 0.2041 0.89292 0.0
H683 H 0.52738 0.26856 0.91538 0.0
H684 H 0.5257 0.24367 0.93216 0.0
H685 H 0.53311 0.24654 0.8821 0.0
H686 H 0.50013 0.21764 0.7957 0.0
H687 H 0.52988 0.19454 0.78206 0.0
H688 H 0.96916 0.66683 0.868 0.0
H689 H 0.00215 0.68781 0.88592 0.0
H690 H 0.00684 0.6909 0.75695 0.0
H691 H 0.97275 0.67102 0.73889 0.0
H692 H 0.04423 0.69181 0.87424 0.0
H693 H 0.99241 0.74803 0.79174 0.0
H694 H 0.98181 0.72374 0.79973 0.0
H695 H 0.99889 0.72604 0.75982 0.0
C696 C 0.97748 0.67162 0.84344 0.0
C697 C 0.96816 0.66791 0.80215 0.0
C698 C 0.99643 0.6835 0.85371 0.0
C699 C 0.00649 0.69147 0.82275 0.0
C700 C 0.99884 0.68546 0.78128 0.0
H701 H 0.10649 0.78756 0.89078 0.0
H702 H 0.09086 0.75367 0.87106 0.0
C703 C 0.97945 0.67411 0.771 0.0
C704 C 0.022 0.70865 0.83426 0.0
H705 H 0.026 0.75929 0.82746 0.0
C706 C 0.04045 0.70655 0.86374 0.0
C707 C 0.01674 0.72793 0.82092 0.0
C708 C 0.99631 0.73169 0.79163 0.0
C709 C 0.05327 0.72341 0.88146 0.0
C710 C 0.04769 0.74261 0.86845 0.0
C711 C 0.03003 0.74448 0.83747 0.0
C712 C 0.05871 0.76144 0.88791 0.0
C713 C 0.07189 0.72076 0.91524 0.0
C714 C 0.04591 0.77685 0.90466 0.0
C715 C 0.05454 0.79627 0.91473 0.0
C716 C 0.07626 0.80051 0.90894 0.0
C717 C 0.08966 0.78469 0.89547 0.0
C718 C 0.08083 0.76529 0.88449 0.0
H719 H 0.07114 0.70581 0.92748 0.0
H720 H 0.08779 0.72194 0.9029 0.0
H721 H 0.07165 0.73281 0.941 0.0
H722 H 0.02881 0.7741 0.90771 0.0
H723 H 0.04394 0.8081 0.92565 0.0
H724 H 0.06811 0.17814 0.74861 0.0
H725 H 0.04109 0.20511 0.74461 0.0
H726 H 0.03503 0.19715 0.61201 0.0
H727 H 0.06217 0.17014 0.6157 0.0
H728 H 0.05087 0.23576 0.64936 0.0
H729 H 0.97486 0.2129 0.70861 0.0
H730 H 0.9999 0.20695 0.73979 0.0
H731 H 0.99371 0.19479 0.68842 0.0
C732 C 0.0604 0.18161 0.71858 0.0
C733 C 0.06746 0.17233 0.68248 0.0
C734 C 0.04491 0.19697 0.71634 0.0
C735 C 0.03623 0.20312 0.67802 0.0
C736 C 0.04162 0.19253 0.64183 0.0
H737 H 0.96763 0.3126 0.62005 0.0
H738 H 0.99231 0.28379 0.61723 0.0
C739 C 0.05703 0.17705 0.64401 0.0
C740 C 0.02475 0.22255 0.6763 0.0
H741 H 0.98075 0.24826 0.70701 0.0
C742 C 0.03537 0.2385 0.66143 0.0
C743 C 0.00477 0.226 0.69259 0.0
C744 C 0.99251 0.20922 0.70795 0.0
C745 C 0.02681 0.25807 0.66359 0.0
C746 C 0.00697 0.26158 0.68045 0.0
C747 C 0.99613 0.24552 0.69455 0.0
C748 C 0.99661 0.28163 0.683 0.0
C749 C 0.03938 0.2749 0.64908 0.0
C750 C 0.99165 0.29042 0.72108 0.0
C751 C 0.97741 0.30675 0.72276 0.0
C752 C 0.96793 0.31444 0.6863 0.0
C753 C 0.97476 0.307 0.64864 0.0
C754 C 0.98887 0.29052 0.64697 0.0
H755 H 0.05693 0.27094 0.64785 0.0
H756 H 0.03194 0.27773 0.61759 0.0
H757 H 0.03863 0.28911 0.6695 0.0
H758 H 0.99762 0.28379 0.74922 0.0
H759 H 0.97252 0.31234 0.75222 0.0
H760 H 0.48013 0.14587 0.32926 0.0
H761 H 0.51526 0.16394 0.3481 0.0
H762 H 0.50053 0.19875 0.24411 0.0
H763 H 0.46538 0.18083 0.22497 0.0
H764 H 0.54975 0.18753 0.27239 0.0
H765 H 0.50147 0.22512 0.39035 0.0
H766 H 0.50351 0.19801 0.38555 0.0
H767 H 0.48805 0.21039 0.34518 0.0
C768 C 0.48466 0.15693 0.30963 0.0
C769 C 0.46978 0.16237 0.27628 0.0
C770 C 0.50478 0.16714 0.32037 0.0
C771 C 0.51026 0.18275 0.29769 0.0
C772 C 0.49651 0.1867 0.26191 0.0
H773 H 0.57459 0.29048 0.28685 0.0
H774 H 0.5645 0.25484 0.27763 0.0
C775 C 0.47636 0.17659 0.25125 0.0
C776 C 0.52748 0.19768 0.31532 0.0
H777 H 0.53377 0.24087 0.38012 0.0
C778 C 0.54663 0.199 0.29661 0.0
C779 C 0.5234 0.21241 0.34722 0.0
C780 C 0.503 0.2116 0.36834 0.0
C781 C 0.56135 0.21537 0.30771 0.0
C782 C 0.55622 0.23109 0.33704 0.0
C783 C 0.5378 0.22891 0.35762 0.0
C784 C 0.56742 0.25113 0.34287 0.0
C785 C 0.58197 0.21576 0.28732 0.0
C786 C 0.57254 0.26112 0.3826 0.0
C787 C 0.57741 0.28179 0.38786 0.0
C788 C 0.5777 0.2927 0.35348 0.0
C789 C 0.57449 0.2824 0.31389 0.0
C790 C 0.56902 0.26188 0.3086 0.0
H791 H 0.58835 0.20022 0.28163 0.0
H792 H 0.57805 0.22179 0.25694 0.0
H793 H 0.5951 0.22528 0.30624 0.0
H794 H 0.57144 0.2532 0.40954 0.0
H795 H 0.58008 0.28937 0.41874 0.0
H796 H 0.54711 0.67734 0.18164 0.0
H797 H 0.5236 0.70485 0.2042 0.0
H798 H 0.56223 0.7108 0.3241 0.0
H799 H 0.5861 0.68373 0.30166 0.0
H800 H 0.4993 0.71655 0.27226 0.0
H801 H 0.57486 0.76316 0.27217 0.0
H802 H 0.57275 0.73716 0.25061 0.0
H803 H 0.57674 0.74314 0.30544 0.0
C804 C 0.55017 0.68405 0.21318 0.0
C805 C 0.56871 0.67873 0.23954 0.0
C806 C 0.53673 0.69974 0.22606 0.0
C807 C 0.54163 0.7101 0.26542 0.0
C808 C 0.55854 0.70322 0.29333 0.0
H809 H 0.45862 0.81629 0.29856 0.0
H810 H 0.4843 0.79043 0.32249 0.0
C811 C 0.5721 0.68773 0.28039 0.0
C812 C 0.53141 0.72982 0.27432 0.0
H813 H 0.54191 0.78037 0.27741 0.0
C814 C 0.50859 0.73056 0.27437 0.0
C815 C 0.54377 0.74797 0.27685 0.0
C816 C 0.56837 0.74797 0.27605 0.0
C817 C 0.49752 0.74903 0.27445 0.0
C818 C 0.50978 0.7671 0.27488 0.0
C819 C 0.53273 0.76644 0.27735 0.0
C820 C 0.49872 0.78615 0.26579 0.0
C821 C 0.47269 0.74894 0.27111 0.0
C822 C 0.49971 0.79332 0.22733 0.0
C823 C 0.48522 0.80818 0.21364 0.0
C824 C 0.46952 0.81586 0.23826 0.0
C825 C 0.47033 0.81032 0.27866 0.0
C826 C 0.48491 0.79553 0.29237 0.0
H827 H 0.46563 0.73339 0.26589 0.0
H828 H 0.46757 0.75629 0.30001 0.0
H829 H 0.46553 0.75762 0.24547 0.0
H830 H 0.51047 0.7863 0.20659 0.0
H831 H 0.48504 0.81226 0.18252 0.0
H832 H 0.27519 0.3898 0.86862 0.0
H833 H 0.24884 0.39325 0.91841 0.0
H834 H 0.30033 0.41701 0.01266 0.0
H835 H 0.32661 0.41424 0.96255 0.0
H836 H 0.24967 0.37331 0.98321 0.0
H837 H 0.25177 0.45484 0.03683 0.0
H838 H 0.26366 0.44494 0.99179 0.0
H839 H 0.27858 0.44376 0.04237 0.0
C840 C 0.28081 0.39623 0.8997 0.0
C841 C 0.30302 0.40178 0.91152 0.0
C842 C 0.26572 0.39813 0.92825 0.0
C843 C 0.27245 0.40552 0.96942 0.0
C844 C 0.2945 0.41172 0.98099 0.0
H845 H 0.20181 0.37109 0.16624 0.0
H846 H 0.22972 0.37639 0.12152 0.0
C847 C 0.30957 0.41006 0.95225 0.0
C848 C 0.25689 0.40488 1.00066 0.0
H849 H 0.23459 0.43305 0.07725 0.0
C850 C 0.24632 0.38644 1.00357 0.0
C851 C 0.25228 0.422 0.02715 0.0
C852 C 0.262 0.44255 0.02416 0.0
C853 C 0.23148 0.38458 0.03213 0.0
C854 C 0.22752 0.40147 0.05976 0.0
C855 C 0.23786 0.42001 0.0566 0.0
C856 C 0.21214 0.40021 0.09106 0.0
C857 C 0.21975 0.36458 0.03157 0.0
C858 C 0.19363 0.41274 0.09092 0.0
C859 C 0.1778 0.41 0.11711 0.0
C860 C 0.18013 0.39461 0.14388 0.0
C861 C 0.19936 0.38293 0.14572 0.0
C862 C 0.21526 0.38583 0.11988 0.0
H863 H 0.21972 0.35532 1.00162 0.0
H864 H 0.22835 0.35588 0.0559 0.0
H865 H 0.20244 0.36679 0.0375 0.0
H866 H 0.19091 0.42406 0.06926 0.0
H867 H 0.16322 0.41929 0.11485 0.0
H868 H 0.88897 0.93348 0.31859 0.0
H869 H 0.88356 0.96951 0.31704 0.0
H870 H 0.81322 0.96019 0.30035 0.0
H871 H 0.8188 0.92368 0.3023 0.0
H872 H 0.82641 0.97693 0.23726 0.0
H873 H 0.86536 0.02041 0.37874 0.0
H874 H 0.88376 1.00131 0.362 0.0
H875 H 0.85797 0.99403 0.37743 0.0
C876 C 0.87238 0.93917 0.31775 0.0
C877 C 0.85432 0.92578 0.3119 0.0
C878 C 0.86925 0.95992 0.31644 0.0
C879 C 0.84797 0.96774 0.30886 0.0
C880 C 0.82981 0.95457 0.30663 0.0
H881 H 0.85026 0.0935 0.24066 0.0
H882 H 0.8385 0.06459 0.27411 0.0
C883 C 0.83298 0.93373 0.30826 0.0
C884 C 0.84523 0.98836 0.29477 0.0
H885 H 0.86638 0.03634 0.31466 0.0
C886 C 0.83462 0.99005 0.25474 0.0
C887 C 0.85575 0.00564 0.31741 0.0
C888 C 0.86613 0.00529 0.36145 0.0
C889 C 0.8358 0.00796 0.23566 0.0
C890 C 0.84816 0.02457 0.25688 0.0
C891 C 0.8572 0.0235 0.29808 0.0
C892 C 0.85388 0.04215 0.23543 0.0
C893 C 0.82447 0.00867 0.19229 0.0
C894 C 0.86642 0.03914 0.20265 0.0
C895 C 0.87319 0.05553 0.18368 0.0
C896 C 0.86763 0.07538 0.19706 0.0
C897 C 0.85471 0.07839 0.22944 0.0
C898 C 0.84804 0.06191 0.24869 0.0
H899 H 0.8103 0.99794 0.18554 0.0
H900 H 0.81852 0.02411 0.18694 0.0
H901 H 0.83631 0.00425 0.17031 0.0
H902 H 0.87147 0.02408 0.19236 0.0
H903 H 0.88316 0.05263 0.15893 0.0
H904 H 0.15785 0.60328 0.46872 0.0
H905 H 0.19057 0.5953 0.51592 0.0
H906 H 0.23187 0.6242 0.44178 0.0
H907 H 0.19966 0.63187 0.3946 0.0
H908 H 0.24878 0.58796 0.46704 0.0
H909 H 0.22456 0.63826 0.59864 0.0
H910 H 0.20561 0.61851 0.5755 0.0
H911 H 0.21103 0.63914 0.54676 0.0
C912 C 0.17396 0.60768 0.46226 0.0
C913 C 0.17612 0.61836 0.42806 0.0
C914 C 0.19261 0.60325 0.48944 0.0
C915 C 0.21366 0.60944 0.48276 0.0
C916 C 0.21582 0.61932 0.44769 0.0
H917 H 0.33244 0.65408 0.5882 0.0
H918 H 0.29355 0.64521 0.57491 0.0
C919 C 0.19732 0.62374 0.42072 0.0
C920 C 0.23367 0.60655 0.51238 0.0
H921 H 0.26056 0.62601 0.6053 0.0
C922 C 0.25127 0.59585 0.49772 0.0
C923 C 0.23682 0.61693 0.55233 0.0
C924 C 0.21862 0.62898 0.56942 0.0
C925 C 0.27236 0.5965 0.52044 0.0
C926 C 0.27586 0.60779 0.55957 0.0
C927 C 0.25784 0.61725 0.57553 0.0
C928 C 0.29849 0.61324 0.57996 0.0
C929 C 0.29105 0.58655 0.50068 0.0
C930 C 0.31422 0.59848 0.59035 0.0
C931 C 0.33668 0.60365 0.59827 0.0
C932 C 0.34354 0.62366 0.59669 0.0
C933 C 0.32759 0.63865 0.59082 0.0
C934 C 0.30529 0.63353 0.58279 0.0
H935 H 0.28601 0.581 0.46788 0.0
H936 H 0.30505 0.59729 0.50228 0.0
H937 H 0.29692 0.57343 0.51737 0.0
H938 H 0.30933 0.58278 0.58912 0.0
H939 H 0.3487 0.59174 0.60167 0.0
H940 H 0.57767 0.9418 0.74867 0.0
H941 H 0.58808 0.97748 0.75285 0.0
H942 H 0.65652 0.96109 0.7603 0.0
H943 H 0.64598 0.92507 0.75551 0.0
H944 H 0.64366 0.99008 0.82768 0.0
H945 H 0.61441 0.0125 0.67188 0.0
H946 H 0.59501 0.99766 0.69308 0.0
H947 H 0.62053 0.98662 0.68145 0.0
C948 C 0.59487 0.94579 0.74957 0.0
C949 C 0.61101 0.93076 0.75091 0.0
C950 C 0.60082 0.96616 0.75219 0.0
C951 C 0.62306 0.97194 0.75688 0.0
C952 C 0.63925 0.95691 0.75651 0.0
H953 H 0.65202 0.09922 0.7558 0.0
H954 H 0.65721 0.06277 0.75188 0.0
C955 C 0.63324 0.93639 0.75323 0.0
C956 C 0.62906 0.99369 0.76567 0.0
H957 H 0.62082 0.0391 0.72617 0.0
C958 C 0.63903 1.00082 0.80533 0.0
C959 C 0.62298 0.00764 0.73654 0.0
C960 C 0.6128 1.00077 0.69321 0.0
C961 C 0.64234 0.02165 0.81702 0.0
C962 C 0.63533 0.03565 0.78839 0.0
C963 C 0.62611 0.0284 0.74828 0.0
C964 C 0.6368 0.05794 0.79894 0.0
C965 C 0.65314 0.02849 0.85991 0.0
C966 C 0.62472 0.06762 0.82862 0.0
C967 C 0.62199 0.08868 0.83135 0.0
C968 C 0.63095 0.10023 0.8039 0.0
C969 C 0.64479 0.0907 0.77724 0.0
C970 C 0.64768 0.06982 0.77476 0.0
H971 H 0.66286 0.0162 0.87397 0.0
H972 H 0.66413 0.04173 0.85981 0.0
H973 H 0.64023 0.03302 0.87957 0.0
H974 H 0.61602 0.05879 0.84749 0.0
H975 H 0.61142 0.09551 0.85243 0.0
H976 H 0.84272 0.58679 0.89693 0.0
H977 H 0.8141 0.58287 0.94084 0.0
H978 H 0.77324 0.625 0.87435 0.0
H979 H 0.80208 0.62947 0.83118 0.0
H980 H 0.77641 0.63545 0.95382 0.0
H981 H 0.75604 0.55383 0.92782 0.0
H982 H 0.78492 0.55841 0.94295 0.0
H983 H 0.7719 0.56625 0.89483 0.0
C984 C 0.82745 0.59488 0.891 0.0
C985 C 0.82474 0.60849 0.86052 0.0
C986 C 0.811 0.59254 0.9161 0.0
C987 C 0.79132 0.60348 0.91081 0.0
C988 C 0.78823 0.61637 0.87914 0.0
H989 H 0.67706 0.59323 0.04229 0.0
H990 H 0.70315 0.58971 0.99164 0.0
C991 C 0.80474 0.61887 0.85434 0.0
C992 C 0.77495 0.60308 0.9406 0.0
H993 H 0.74367 0.57187 0.98707 0.0
C994 C 0.76916 0.62152 0.96077 0.0
C995 C 0.76524 0.58497 0.94958 0.0
C996 C 0.76966 0.56477 0.92734 0.0
C997 C 0.75432 0.62237 0.98998 0.0
C998 C 0.7454 0.60421 1.0004 0.0
C999 C 0.75076 0.58577 0.97963 0.0
C1000 C 0.73029 0.60425 0.03244 0.0
C1001 C 0.74807 0.64283 0.00887 0.0
C1002 C 0.73707 0.61284 0.07276 0.0
C1003 C 0.72219 0.61499 0.10166 0.0
C1004 C 0.70023 0.60833 0.09109 0.0
C1005 C 0.69384 0.59854 0.05149 0.0
C1006 C 0.70873 0.59654 0.02244 0.0
H1007 H 0.75115 0.65502 0.98941 0.0
H1008 H 0.73045 0.64313 0.01351 0.0
H1009 H 0.75817 0.64623 0.03927 0.0
H1010 H 0.75378 0.61841 0.08161 0.0
H1011 H 0.72775 0.62241 0.13198 0.0
H1012 H 0.12831 0.9543 0.8448 0.0
H1013 H 0.13759 0.98263 0.80831 0.0
H1014 H 0.16161 0.94146 0.71538 0.0
H1015 H 0.15233 0.9127 0.75206 0.0
H1016 H 0.18877 0.9777 0.74194 0.0
H1017 H 0.10113 0.99566 0.6986 0.0
H1018 H 0.10767 0.99294 0.75256 0.0
H1019 H 0.10996 0.97153 0.7156 0.0
C1020 C 0.13571 0.95116 0.81677 0.0
C1021 C 0.13936 0.93116 0.80118 0.0
C1022 C 0.14092 0.96742 0.79582 0.0
C1023 C 0.14983 0.96416 0.75864 0.0
C1024 C 0.15453 0.9443 0.74383 0.0
H1025 H 0.14339 0.07889 0.6478 0.0
H1026 H 0.14525 0.04189 0.64369 0.0
C1027 C 0.14928 0.9279 0.76489 0.0
C1028 C 0.15365 0.98172 0.73552 0.0
H1029 H 0.12712 0.02273 0.69857 0.0
C1030 C 0.17528 0.98735 0.73159 0.0
C1031 C 0.13606 0.99407 0.72092 0.0
C1032 C 0.11237 0.98815 0.72169 0.0
C1033 C 0.17984 0.00588 0.71679 0.0
C1034 C 0.16237 0.01923 0.70631 0.0
C1035 C 0.14063 0.01269 0.70682 0.0
C1036 C 0.16612 0.04104 0.70193 0.0
C1037 C 0.20343 0.01123 0.71381 0.0
C1038 C 0.17809 0.05297 0.73477 0.0
C1039 C 0.17681 0.07398 0.73722 0.0
C1040 C 0.16341 0.08367 0.70712 0.0
C1041 C 0.1535 0.07195 0.67181 0.0
C1042 C 0.1546 0.05074 0.66948 0.0
H1043 H 0.21286 0.99747 0.7056 0.0
H1044 H 0.20463 0.02211 0.69059 0.0
H1045 H 0.2113 0.0181 0.74423 0.0
H1046 H 0.18679 0.04607 0.76061 0.0
H1047 H 0.18474 0.08261 0.76479 0.0
H1048 H 0.65899 0.37204 0.37358 0.0
H1049 H 0.69902 0.37692 0.38511 0.0
H1050 H 0.69347 0.4124 0.49994 0.0
H1051 H 0.65369 0.408 0.48799 0.0
H1052 H 0.72816 0.42533 0.46448 0.0
H1053 H 0.72961 0.34172 0.46884 0.0
H1054 H 0.71849 0.3508 0.42085 0.0
H1055 H 0.70427 0.35562 0.46514 0.0
C1056 C 0.66619 0.38147 0.40042 0.0
C1057 C 0.65317 0.3893 0.43021 0.0
C1058 C 0.68916 0.38411 0.40726 0.0
C1059 C 0.69936 0.39449 0.4441 0.0
C1060 C 0.6861 0.40416 0.47148 0.0
H1061 H 0.80493 0.37141 0.6198 0.0
H1062 H 0.77119 0.37718 0.57472 0.0
C1063 C 0.66329 0.40159 0.4646 0.0
C1064 C 0.72343 0.39305 0.45776 0.0
H1065 H 0.76208 0.35953 0.49321 0.0
C1066 C 0.73577 0.41092 0.46998 0.0
C1067 C 0.73328 0.37423 0.46545 0.0
C1068 C 0.72078 0.35448 0.45473 0.0
C1069 C 0.7572 0.41055 0.49145 0.0
C1070 C 0.76662 0.39178 0.5005 0.0
C1071 C 0.75479 0.37389 0.48623 0.0
C1072 C 0.78744 0.39026 0.52884 0.0
C1073 C 0.76908 0.43022 0.50653 0.0
C1074 C 0.80789 0.39609 0.51853 0.0
C1075 C 0.8274 0.39288 0.5446 0.0
C1076 C 0.82671 0.38363 0.58116 0.0
C1077 C 0.80612 0.37845 0.59183 0.0
C1078 C 0.78677 0.38172 0.56601 0.0
H1079 H 0.75833 0.44351 0.50183 0.0
H1080 H 0.77539 0.43049 0.53978 0.0
H1081 H 0.78342 0.43167 0.48961 0.0
H1082 H 0.80885 0.4025 0.48978 0.0
H1083 H 0.84301 0.39693 0.53538 0.0
H1084 H 0.39011 0.91086 0.16147 0.0
H1085 H 0.38494 0.94755 0.16403 0.0
H1086 H 0.34296 0.94457 0.25857 0.0
H1087 H 0.34842 0.90816 0.25675 0.0
H1088 H 0.34179 0.97738 0.17123 0.0
H1089 H 0.40653 0.97481 0.30642 0.0
H1090 H 0.40329 0.95489 0.2647 0.0
H1091 H 0.38371 0.9573 0.30078 0.0
C1092 C 0.37922 0.91786 0.18173 0.0
C1093 C 0.37014 0.90668 0.20962 0.0
C1094 C 0.37623 0.93887 0.18315 0.0
C1095 C 0.36385 0.94876 0.21202 0.0
C1096 C 0.35266 0.93724 0.23626 0.0
H1097 H 0.35277 0.08166 0.26708 0.0
H1098 H 0.34406 0.04531 0.26581 0.0
C1099 C 0.35579 0.91641 0.23507 0.0
C1100 C 0.36566 0.97095 0.22212 0.0
H1101 H 0.39353 0.00675 0.29079 0.0
C1102 C 0.35294 0.98386 0.1975 0.0
C1103 C 0.3802 0.97927 0.25653 0.0
C1104 C 0.39435 0.96596 0.28371 0.0
C1105 C 0.35477 0.00501 0.20603 0.0
C1106 C 0.36958 0.01333 0.24013 0.0
C1107 C 0.38195 1.00034 0.2651 0.0
C1108 C 0.37506 0.03523 0.24649 0.0
C1109 C 0.3416 0.01839 0.17762 0.0
C1110 C 0.39559 0.04149 0.2378 0.0
C1111 C 0.4005 0.06196 0.23861 0.0
C1112 C 0.38523 0.07673 0.24915 0.0
C1113 C 0.36508 0.07059 0.26019 0.0
C1114 C 0.35998 0.04988 0.25878 0.0
H1115 H 0.33232 0.00958 0.15046 0.0
H1116 H 0.32969 0.02719 0.19467 0.0
H1117 H 0.35265 0.02933 0.16672 0.0
H1118 H 0.40744 0.03049 0.22825 0.0
H1119 H 0.41595 0.06625 0.22901 0.0
H1120 H 0.82139 0.92237 0.45877 0.0
H1121 H 0.7953 0.92817 0.50912 0.0
H1122 H 0.75432 0.87934 0.44552 0.0
H1123 H 0.77985 0.87381 0.3948 0.0
H1124 H 0.7299 0.91103 0.47041 0.0
H1125 H 0.79145 0.89173 0.60006 0.0
H1126 H 0.79902 0.91249 0.57351 0.0
H1127 H 0.79631 0.88751 0.54708 0.0
C1128 C 0.80667 0.91306 0.45521 0.0
C1129 C 0.80283 0.89751 0.42288 0.0
C1130 C 0.79186 0.91627 0.48425 0.0
C1131 C 0.77307 0.90389 0.4817 0.0
C1132 C 0.76875 0.88902 0.44836 0.0
H1133 H 0.69521 0.86534 0.65617 0.0
H1134 H 0.72314 0.87199 0.61267 0.0
C1135 C 0.78342 0.88587 0.41931 0.0
C1136 C 0.75813 0.90572 0.51409 0.0
H1137 H 0.75585 0.89974 0.61549 0.0
C1138 C 0.7356 0.90878 0.50225 0.0
C1139 C 0.76554 0.90253 0.55556 0.0
C1140 C 0.78935 0.8982 0.56992 0.0
C1141 C 0.72021 0.90819 0.53029 0.0
C1142 C 0.72761 0.90495 0.57175 0.0
C1143 C 0.75022 0.90242 0.58386 0.0
C1144 C 0.71197 0.90216 0.60187 0.0
C1145 C 0.69607 0.91 0.51468 0.0
C1146 C 0.69681 0.91718 0.61169 0.0
C1147 C 0.68064 0.91337 0.6365 0.0
C1148 C 0.67946 0.89451 0.6523 0.0
C1149 C 0.69553 0.88 0.64446 0.0
C1150 C 0.71156 0.88378 0.61952 0.0
H1151 H 0.69285 0.90784 0.48053 0.0
H1152 H 0.68614 0.89872 0.52728 0.0
H1153 H 0.69036 0.9253 0.52475 0.0
H1154 H 0.69713 0.93168 0.59932 0.0
H1155 H 0.66863 0.92494 0.64214 0.0
H1156 H 0.32974 0.42352 0.72668 0.0
H1157 H 0.32777 0.46008 0.73168 0.0
H1158 H 0.36057 0.46329 0.85634 0.0
H1159 H 0.36274 0.42625 0.85119 0.0
H1160 H 0.31355 0.49222 0.77831 0.0
H1161 H 0.40527 0.48996 0.79711 0.0
H1162 H 0.38874 0.46725 0.78578 0.0
H1163 H 0.39179 0.48031 0.83659 0.0
C1164 C 0.33607 0.43192 0.75566 0.0
C1165 C 0.34714 0.42198 0.78804 0.0
C1166 C 0.33485 0.45291 0.75851 0.0
C1167 C 0.34468 0.46455 0.79386 0.0
C1168 C 0.35344 0.45464 0.82825 0.0
H1169 H 0.352 0.59453 0.75003 0.0
H1170 H 0.34311 0.56491 0.78436 0.0
C1171 C 0.35459 0.43341 0.82539 0.0
C1172 C 0.34823 0.48652 0.79124 0.0
H1173 H 0.38862 0.51975 0.77818 0.0
C1174 C 0.32996 0.49847 0.77927 0.0
C1175 C 0.36968 0.4946 0.79205 0.0
C1176 C 0.39005 0.48242 0.80331 0.0
C1177 C 0.33253 0.51762 0.76548 0.0
C1178 C 0.35397 0.52517 0.76427 0.0
C1179 C 0.3722 0.51387 0.77901 0.0
C1180 C 0.35805 0.54334 0.7431 0.0
C1181 C 0.31235 0.52899 0.74958 0.0
C1182 C 0.36934 0.54111 0.70853 0.0
C1183 C 0.37452 0.5579 0.68914 0.0
C1184 C 0.36855 0.57743 0.7038 0.0
C1185 C 0.35671 0.57968 0.73781 0.0
C1186 C 0.35159 0.56276 0.75744 0.0
H1187 H 0.2971 0.5197 0.74688 0.0
H1188 H 0.31051 0.54264 0.77099 0.0
H1189 H 0.31406 0.53404 0.71894 0.0
H1190 H 0.3744 0.52628 0.69676 0.0
H1191 H 0.38357 0.55557 0.66296 0.0
H1192 H 0.69949 0.12654 0.88841 0.0
H1193 H 0.73237 0.11892 0.93412 0.0
H1194 H 0.69208 0.09893 0.02079 0.0
H1195 H 0.6588 0.1067 0.97492 0.0
H1196 H 0.72434 0.12668 0.05691 0.0
H1197 H 0.76172 0.06625 0.96278 0.0
H1198 H 0.75416 0.0872 0.93358 0.0
H1199 H 0.73311 0.07305 0.95217 0.0
C1200 C 0.69754 0.12019 0.91684 0.0
C1201 C 0.67649 0.11725 0.928 0.0
C1202 C 0.7164 0.1157 0.94288 0.0
C1203 C 0.71475 0.10809 0.98068 0.0
C1204 C 0.69376 0.10464 0.9916 0.0
H1205 H 0.84986 0.09217 0.09648 0.0
H1206 H 0.81031 0.08386 0.08573 0.0
C1207 C 0.67476 0.10902 0.9653 0.0
C1208 C 0.73508 0.10562 0.00979 0.0
H1209 H 0.7872 0.08724 0.01199 0.0
C1210 C 0.73793 0.11764 0.04762 0.0
C1211 C 0.75269 0.0935 0.99833 0.0
C1212 C 0.75018 0.0791 0.95968 0.0
C1213 C 0.75852 0.1193 0.07227 0.0
C1214 C 0.77678 0.10893 0.0584 0.0
C1215 C 0.77335 0.09542 0.02259 0.0
C1216 C 0.79987 0.11438 0.07601 0.0
C1217 C 0.76069 0.13279 0.11212 0.0
C1218 C 0.80715 0.13435 0.07565 0.0
C1219 C 0.82958 0.13904 0.08191 0.0
C1220 C 0.84526 0.12394 0.08917 0.0
C1221 C 0.83806 0.10422 0.09251 0.0
C1222 C 0.81549 0.09944 0.08587 0.0
H1223 H 0.74519 0.13277 0.12624 0.0
H1224 H 0.77441 0.12802 0.13454 0.0
H1225 H 0.76389 0.14855 0.10581 0.0
H1226 H 0.79564 0.14605 0.06685 0.0
H1227 H 0.83468 0.15417 0.07745 0.0
H1228 H 0.10788 0.59454 0.34404 0.0
H1229 H 0.11204 0.55772 0.33965 0.0
H1230 H 0.16119 0.56177 0.2582 0.0
H1231 H 0.15669 0.59834 0.26186 0.0
H1232 H 0.12444 0.53891 0.22313 0.0
H1233 H 0.15704 0.51426 0.37564 0.0
H1234 H 0.13481 0.53195 0.3764 0.0
H1235 H 0.16066 0.53972 0.36251 0.0
C1236 C 0.12021 0.58768 0.3267 0.0
C1237 C 0.13182 0.59927 0.30304 0.0
C1238 C 0.12259 0.56658 0.32411 0.0
C1239 C 0.13682 0.55694 0.29827 0.0
C1240 C 0.15005 0.56883 0.27817 0.0
H1241 H 0.14615 0.42445 0.2502 0.0
H1242 H 0.15692 0.46046 0.25711 0.0
C1243 C 0.14757 0.58975 0.28054 0.0
C1244 C 0.13539 0.53476 0.2867 0.0
H1245 H 0.14046 0.48873 0.32491 0.0
C1246 C 0.12823 0.52794 0.24534 0.0
C1247 C 0.14042 0.52044 0.31555 0.0
C1248 C 0.14885 0.52689 0.35997 0.0
C1249 C 0.12522 0.50728 0.23239 0.0
C1250 C 0.12942 0.49303 0.26151 0.0
C1251 C 0.13733 0.49972 0.30259 0.0
C1252 C 0.12346 0.47138 0.25086 0.0
C1253 C 0.11714 0.50081 0.1878 0.0
C1254 C 0.10118 0.46568 0.24371 0.0
C1255 C 0.0951 0.44531 0.24 0.0
C1256 C 0.11118 0.43024 0.24259 0.0
C1257 C 0.1335 0.43581 0.24697 0.0
C1258 C 0.13963 0.45632 0.25145 0.0
H1259 H 0.11948 0.51293 0.16771 0.0
H1260 H 0.12582 0.48704 0.17691 0.0
H1261 H 0.0993 0.49713 0.18454 0.0
H1262 H 0.08847 0.47704 0.24348 0.0
H1263 H 0.0778 0.44136 0.23748 0.0
H1264 H 0.35094 0.07885 0.39351 0.0
H1265 H 0.32289 0.07152 0.43707 0.0
H1266 H 0.28401 0.12103 0.39281 0.0
H1267 H 0.31136 0.12798 0.34869 0.0
H1268 H 0.31013 0.09433 0.49949 0.0
H1269 H 0.23692 0.07917 0.38449 0.0
H1270 H 0.2643 0.08001 0.37012 0.0
H1271 H 0.24901 0.10296 0.37804 0.0
C1272 C 0.33619 0.08789 0.39247 0.0
C1273 C 0.33341 0.10396 0.36742 0.0
C1274 C 0.32018 0.08372 0.41748 0.0
C1275 C 0.30105 0.09548 0.41781 0.0
C1276 C 0.2982 0.11131 0.39233 0.0
H1277 H 0.22665 0.13325 0.61014 0.0
H1278 H 0.25424 0.12524 0.56454 0.0
C1279 C 0.31403 0.11538 0.36724 0.0
C1280 C 0.28492 0.09252 0.44706 0.0
H1281 H 0.22974 0.09109 0.45356 0.0
C1282 C 0.29257 0.09323 0.48932 0.0
C1283 C 0.26197 0.09061 0.43407 0.0
C1284 C 0.25262 0.08791 0.38914 0.0
C1285 C 0.27793 0.09342 0.51888 0.0
C1286 C 0.25493 0.0935 0.50603 0.0
C1287 C 0.24731 0.09142 0.46368 0.0
C1288 C 0.23863 0.09734 0.53578 0.0
C1289 C 0.28734 0.09373 0.56364 0.0
C1290 C 0.22019 0.08461 0.53448 0.0
C1291 C 0.20403 0.08936 0.56036 0.0
C1292 C 0.20597 0.10698 0.58795 0.0
C1293 C 0.22464 0.11945 0.58962 0.0
C1294 C 0.24062 0.11479 0.56367 0.0
H1295 H 0.30349 0.08601 0.56713 0.0
H1296 H 0.29012 0.10963 0.57694 0.0
H1297 H 0.27607 0.08631 0.58157 0.0
H1298 H 0.21814 0.07113 0.51303 0.0
H1299 H 0.18982 0.07946 0.55812 0.0
H1300 H 0.65432 0.41245 0.26894 0.0
H1301 H 0.66501 0.44189 0.23587 0.0
H1302 H 0.63402 0.48131 0.32258 0.0
H1303 H 0.62338 0.45221 0.3556 0.0
H1304 H 0.6361 0.47043 0.19885 0.0
H1305 H 0.69455 0.50804 0.32524 0.0
H1306 H 0.68661 0.48179 0.32351 0.0
H1307 H 0.66912 0.50139 0.34227 0.0
C1308 C 0.65011 0.42743 0.28135 0.0
C1309 C 0.63802 0.42996 0.31501 0.0
C1310 C 0.65615 0.44422 0.26231 0.0
C1311 C 0.65054 0.46385 0.27701 0.0
C1312 C 0.6389 0.46638 0.3111 0.0
H1313 H 0.61402 0.57385 0.19883 0.0
H1314 H 0.61908 0.53777 0.20012 0.0
C1315 C 0.63272 0.44967 0.32987 0.0
C1316 C 0.65551 0.48176 0.25573 0.0
H1317 H 0.67745 0.52938 0.27511 0.0
C1318 C 0.64555 0.48318 0.21517 0.0
C1319 C 0.66819 0.49828 0.27658 0.0
C1320 C 0.68042 0.49726 0.31916 0.0
C1321 C 0.64651 0.50121 0.19622 0.0
C1322 C 0.65749 0.51835 0.21856 0.0
C1323 C 0.6689 0.51637 0.25787 0.0
C1324 C 0.65462 0.53908 0.20497 0.0
C1325 C 0.63516 0.50191 0.15289 0.0
C1326 C 0.67282 0.55202 0.2054 0.0
C1327 C 0.66983 0.57291 0.20371 0.0
C1328 C 0.64864 0.58115 0.20197 0.0
C1329 C 0.63045 0.56796 0.19808 0.0
C1330 C 0.63339 0.54718 0.19932 0.0
H1331 H 0.63528 0.48684 0.13514 0.0
H1332 H 0.61772 0.50619 0.15393 0.0
H1333 H 0.64308 0.51311 0.1364 0.0
H1334 H 0.68938 0.5462 0.21017 0.0
H1335 H 0.68416 0.58277 0.2082 0.0
H1336 H 0.15805 0.91593 0.90987 0.0
H1337 H 0.19751 0.9237 0.92282 0.0
H1338 H 0.2115 0.85994 0.90995 0.0
H1339 H 0.17228 0.85238 0.89562 0.0
H1340 H 0.21743 0.91308 0.99138 0.0
H1341 H 0.26522 0.88045 0.87147 0.0
H1342 H 0.23594 0.88449 0.86105 0.0
H1343 H 0.24636 0.86173 0.8821 0.0
C1344 C 0.16964 0.90372 0.90675 0.0
C1345 C 0.16219 0.88358 0.90106 0.0
C1346 C 0.19223 0.90813 0.91481 0.0
C1347 C 0.20766 0.89244 0.91762 0.0
C1348 C 0.20018 0.8724 0.90715 0.0
H1349 H 0.30376 0.86846 0.10917 0.0
H1350 H 0.27181 0.87603 0.06104 0.0
C1351 C 0.17764 0.86804 0.89874 0.0
C1352 C 0.2302 0.89633 0.9403 0.0
H1353 H 0.28349 0.8806 0.94291 0.0
C1354 C 0.23196 0.90646 0.98013 0.0
C1355 C 0.24937 0.88792 0.92597 0.0
C1356 C 0.24912 0.87824 0.8826 0.0
C1357 C 0.25178 0.90698 0.00692 0.0
C1358 C 0.27032 0.8968 0.99399 0.0
C1359 C 0.26916 0.88811 0.95313 0.0
C1360 C 0.29002 0.89313 0.02373 0.0
C1361 C 0.25245 0.91782 0.04949 0.0
C1362 C 0.31103 0.90006 0.0186 0.0
C1363 C 0.32949 0.89576 0.04634 0.0
C1364 C 0.32724 0.8842 0.07927 0.0
C1365 C 0.30613 0.87745 0.08431 0.0
C1366 C 0.28778 0.88184 0.05685 0.0
H1367 H 0.24005 0.93004 0.05006 0.0
H1368 H 0.24857 0.90691 0.07106 0.0
H1369 H 0.26899 0.92448 0.06074 0.0
H1370 H 0.31315 0.9087 0.9931 0.0
H1371 H 0.34555 0.90106 0.04142 0.0
H1372 H 0.92522 0.56412 0.75865 0.0
H1373 H 0.91527 0.52831 0.7529 0.0
H1374 H 0.84708 0.544 0.75532 0.0
H1375 H 0.85716 0.58015 0.76129 0.0
H1376 H 0.89207 0.50375 0.79972 0.0
H1377 H 0.84903 0.51017 0.64174 0.0
H1378 H 0.86743 0.52961 0.66879 0.0
H1379 H 0.84038 0.52683 0.68287 0.0
C1380 C 0.90821 0.55992 0.75944 0.0
C1381 C 0.89197 0.57479 0.76094 0.0
C1382 C 0.90252 0.53947 0.75584 0.0
C1383 C 0.8804 0.53349 0.75284 0.0
C1384 C 0.86423 0.54833 0.75703 0.0
H1385 H 0.84917 0.40628 0.74916 0.0
H1386 H 0.8445 0.44284 0.7532 0.0
C1387 C 0.87 0.56892 0.76112 0.0
C1388 C 0.87461 0.51175 0.74263 0.0
H1389 H 0.85207 0.47751 0.66409 0.0
C1390 C 0.88305 0.49803 0.77034 0.0
C1391 C 0.86324 0.50431 0.70384 0.0
C1392 C 0.85458 0.5184 0.67231 0.0
C1393 C 0.88066 0.47709 0.76023 0.0
C1394 C 0.86928 0.46962 0.72148 0.0
C1395 C 0.86064 0.4833 0.69381 0.0
C1396 C 0.86695 0.44756 0.70951 0.0
C1397 C 0.89097 0.46306 0.79063 0.0
C1398 C 0.87963 0.43792 0.68085 0.0
C1399 C 0.88203 0.41683 0.67791 0.0
C1400 C 0.87204 0.40531 0.7041 0.0
C1401 C 0.85724 0.41483 0.72885 0.0
C1402 C 0.85465 0.43574 0.73143 0.0
H1403 H 0.90277 0.47109 0.81532 0.0
H1404 H 0.87786 0.45622 0.80531 0.0
H1405 H 0.89974 0.45061 0.77481 0.0
H1406 H 0.88908 0.4468 0.66326 0.0
H1407 H 0.89322 0.40997 0.6581 0.0
H1408 H 0.11856 0.22032 0.82049 0.0
H1409 H 0.10811 0.24353 0.87697 0.0
H1410 H 0.1664 0.22755 0.95496 0.0
H1411 H 0.17704 0.20448 0.89891 0.0
H1412 H 0.10085 0.2391 0.95897 0.0
H1413 H 0.17284 0.28877 0.9543 0.0
H1414 H 0.16405 0.26902 0.91405 0.0
H1415 H 0.18008 0.26301 0.96105 0.0
C1416 C 0.12897 0.22143 0.84984 0.0
C1417 C 0.14876 0.21059 0.85501 0.0
C1418 C 0.123 0.2348 0.88207 0.0
C1419 C 0.13671 0.23758 0.9199 0.0
C1420 C 0.15583 0.22601 0.92574 0.0
H1421 H 0.11127 0.30034 0.15365 0.0
H1422 H 0.11595 0.27502 0.09646 0.0
C1423 C 0.16186 0.21279 0.89363 0.0
C1424 C 0.13168 0.25316 0.95278 0.0
H1425 H 0.15279 0.29567 0.01096 0.0
C1426 C 0.11213 0.25153 0.97026 0.0
C1427 C 0.14624 0.26957 0.96704 0.0
C1428 C 0.16687 0.27287 0.9479 0.0
C1429 C 0.10702 0.26561 1.00231 0.0
C1430 C 0.12206 0.28154 0.01768 0.0
C1431 C 0.14136 0.28337 0.99953 0.0
C1432 C 0.11811 0.29674 0.05213 0.0
C1433 C 0.08543 0.26347 0.01892 0.0
C1434 C 0.11821 0.31742 0.04661 0.0
C1435 C 0.11584 0.33193 0.07933 0.0
C1436 C 0.11333 0.32612 0.11849 0.0
C1437 C 0.11305 0.30537 0.12391 0.0
C1438 C 0.11555 0.29084 0.09111 0.0
H1439 H 0.07333 0.2543 0.99663 0.0
H1440 H 0.08828 0.25572 0.04751 0.0
H1441 H 0.07818 0.27848 0.02644 0.0
H1442 H 0.12024 0.32236 0.0169 0.0
H1443 H 0.11606 0.34774 0.07389 0.0
H1444 H 0.99821 0.91164 1.00509 0.0
H1445 H 0.9692 0.90437 0.0458 0.0
H1446 H 0.99625 0.84533 0.06207 0.0
H1447 H 0.02549 0.85244 0.02076 0.0
H1448 H 0.94796 0.84667 0.0488 0.0
H1449 H 0.98502 0.90404 0.17153 0.0
H1450 H 0.97936 0.91356 0.12206 0.0
H1451 H 0.99947 0.89406 0.12976 0.0
C1452 C 0.99793 0.897 0.01693 0.0
C1453 C 0.0143 0.88269 0.0098 0.0
C1454 C 0.9813 0.89287 0.04022 0.0
C1455 C 0.98073 0.87445 0.05756 0.0
C1456 C 0.99638 0.85967 0.049 0.0
H1457 H 0.91103 0.8719 0.26949 0.0
H1458 H 0.93776 0.8647 0.22144 0.0
C1459 C 0.01305 0.86374 0.02528 0.0
C1460 C 0.96475 0.87152 0.08693 0.0
H1461 H 0.949 0.89252 0.1771 0.0
C1462 C 0.94826 0.85653 0.07709 0.0
C1463 C 0.96535 0.88416 0.12417 0.0
C1464 C 0.98337 0.89973 0.1378 0.0
C1465 C 0.9319 0.85439 0.10288 0.0
C1466 C 0.93189 0.86778 0.13904 0.0
C1467 C 0.94882 0.8823 0.14932 0.0
C1468 C 0.91452 0.86749 0.16682 0.0
C1469 C 0.91494 0.83773 0.09139 0.0
C1470 C 0.89228 0.87083 0.15235 0.0
C1471 C 0.87676 0.87423 0.18005 0.0
C1472 C 0.88323 0.87425 0.22257 0.0
C1473 C 0.9053 0.87052 0.23681 0.0
C1474 C 0.9207 0.86686 0.2093 0.0
H1475 H 0.92088 0.82537 0.07054 0.0
H1476 H 0.91054 0.83128 0.11917 0.0
H1477 H 0.8998 0.84396 0.07504 0.0
H1478 H 0.88715 0.87203 0.11994 0.0
H1479 H 0.85998 0.87782 0.16846 0.0
H1480 H 0.39884 0.62768 0.47545 0.0
H1481 H 0.40552 0.6506 0.42371 0.0
H1482 H 0.40161 0.70176 0.51345 0.0
H1483 H 0.39492 0.679 0.56445 0.0
H1484 H 0.37619 0.6779 0.39623 0.0
H1485 H 0.45325 0.71876 0.45991 0.0
H1486 H 0.44551 0.69529 0.4779 0.0
H1487 H 0.43459 0.71891 0.49758 0.0
C1488 C 0.40018 0.6438 0.48422 0.0
C1489 C 0.39726 0.65163 0.52422 0.0
C1490 C 0.40395 0.65687 0.45477 0.0
C1491 C 0.40464 0.67794 0.46491 0.0
C1492 C 0.40208 0.68561 0.50522 0.0
H1493 H 0.35387 0.77504 0.33742 0.0
H1494 H 0.36344 0.74695 0.3784 0.0
C1495 C 0.39837 0.67259 0.53449 0.0
C1496 C 0.40481 0.6921 0.43257 0.0
H1497 H 0.42767 0.73647 0.41301 0.0
C1498 C 0.38777 0.69044 0.39945 0.0
C1499 C 0.42 0.70841 0.43637 0.0
C1500 C 0.4395 0.71033 0.46965 0.0
C1501 C 0.38464 0.70531 0.37175 0.0
C1502 C 0.39872 0.72245 0.37759 0.0
C1503 C 0.41667 0.72347 0.40895 0.0
C1504 C 0.39383 0.74009 0.35352 0.0
C1505 C 0.36585 0.70283 0.33708 0.0
C1506 C 0.40808 0.74598 0.32663 0.0
C1507 C 0.40263 0.76213 0.30279 0.0
C1508 C 0.3829 0.77286 0.3058 0.0
C1509 C 0.36906 0.76712 0.33375 0.0
C1510 C 0.37449 0.75101 0.3573 0.0
H1511 H 0.36071 0.68674 0.32971 0.0
H1512 H 0.35149 0.71146 0.34639 0.0
H1513 H 0.3704 0.70872 0.30886 0.0
H1514 H 0.42314 0.73776 0.32334 0.0
H1515 H 0.41365 0.7657 0.28132 0.0
H1516 H 0.45224 0.14644 0.44313 0.0
H1517 H 0.47551 0.15833 0.50734 0.0
H1518 H 0.5119 0.10277 0.50123 0.0
H1519 H 0.48861 0.09059 0.43818 0.0
H1520 H 0.49949 0.11386 0.5783 0.0
H1521 H 0.5405 0.17753 0.5189 0.0
H1522 H 0.51088 0.17723 0.51203 0.0
H1523 H 0.52541 0.15784 0.48517 0.0
C1524 C 0.46496 0.13662 0.45576 0.0
C1525 C 0.46841 0.11745 0.43547 0.0
C1526 C 0.47846 0.14358 0.49218 0.0
C1527 C 0.49563 0.13154 0.5088 0.0
C1528 C 0.49883 0.11237 0.48891 0.0
H1529 H 0.61374 0.14227 0.67789 0.0
H1530 H 0.58554 0.14408 0.61807 0.0
C1531 C 0.48547 0.10544 0.45273 0.0
C1532 C 0.51024 0.13834 0.54731 0.0
H1533 H 0.55207 0.17126 0.5877 0.0
C1534 C 0.51079 0.12657 0.58058 0.0
C1535 C 0.52515 0.1548 0.54996 0.0
C1536 C 0.52569 0.16756 0.51461 0.0
C1537 C 0.5262 0.13037 0.61592 0.0
C1538 C 0.54123 0.14676 0.61861 0.0
C1539 C 0.54041 0.15885 0.58572 0.0
C1540 C 0.55882 0.1504 0.65419 0.0
C1541 C 0.52691 0.11616 0.64923 0.0
C1542 C 0.55336 0.15431 0.69426 0.0
C1543 C 0.56937 0.15302 0.72825 0.0
C1544 C 0.59126 0.1485 0.7229 0.0
C1545 C 0.59705 0.14616 0.68285 0.0
C1546 C 0.58096 0.14719 0.64872 0.0
H1547 H 0.51769 0.10188 0.6383 0.0
H1548 H 0.54415 0.11235 0.66061 0.0
H1549 H 0.51932 0.12357 0.67553 0.0
H1550 H 0.53641 0.15684 0.69924 0.0
H1551 H 0.56412 0.15351 0.75836 0.0
H1552 H 0.12503 0.8357 0.68422 0.0
H1553 H 0.13015 0.8162 0.61885 0.0
H1554 H 0.14165 0.7625 0.68204 0.0
H1555 H 0.13704 0.78184 0.74702 0.0
H1556 H 0.16818 0.76419 0.62098 0.0
H1557 H 0.08076 0.77833 0.56185 0.0
H1558 H 0.09785 0.80044 0.57622 0.0
H1559 H 0.09195 0.78471 0.61496 0.0
C1560 C 0.12939 0.81991 0.68433 0.0
C1561 C 0.1306 0.81031 0.72083 0.0
C1562 C 0.13198 0.80868 0.64684 0.0
C1563 C 0.13576 0.78773 0.6453 0.0
C1564 C 0.1386 0.77857 0.68224 0.0
H1565 H 0.13058 0.67876 0.48001 0.0
H1566 H 0.13634 0.70505 0.53773 0.0
C1567 C 0.13597 0.78969 0.71946 0.0
C1568 C 0.13519 0.7748 0.60549 0.0
H1569 H 0.10055 0.75668 0.51982 0.0
C1570 C 0.15346 0.76271 0.59866 0.0
C1571 C 0.11594 0.77272 0.57637 0.0
C1572 C 0.09541 0.78458 0.58266 0.0
C1573 C 0.15291 0.74849 0.56396 0.0
C1574 C 0.13346 0.74602 0.53552 0.0
C1575 C 0.11544 0.75854 0.54163 0.0
C1576 C 0.13108 0.73005 0.50011 0.0
C1577 C 0.1732 0.73623 0.55808 0.0
C1578 C 0.12585 0.73523 0.45965 0.0
C1579 C 0.12247 0.72021 0.4265 0.0
C1580 C 0.12402 0.69958 0.43305 0.0
C1581 C 0.12936 0.69444 0.47365 0.0
C1582 C 0.1328 0.70949 0.50676 0.0
H1583 H 0.18828 0.7438 0.5751 0.0
H1584 H 0.17157 0.72134 0.57007 0.0
H1585 H 0.17528 0.73357 0.525 0.0
H1586 H 0.12427 0.75096 0.4537 0.0
H1587 H 0.1183 0.7248 0.39578 0.0
H1588 H 0.47785 0.91051 0.06763 0.0
H1589 H 0.50032 0.90345 0.0122 0.0
H1590 H 0.47409 0.84267 0.98974 0.0
H1591 H 0.45096 0.84989 0.04477 0.0
H1592 H 0.53249 0.87683 0.00816 0.0
H1593 H 0.46824 0.85879 0.87405 0.0
H1594 H 0.46174 0.87006 0.92301 0.0
H1595 H 0.46747 0.84352 0.91598 0.0
C1596 C 0.47661 0.8957 0.05056 0.0
C1597 C 0.46245 0.88085 0.06043 0.0
C1598 C 0.48954 0.89165 0.01889 0.0
C1599 C 0.48888 0.87256 0.99643 0.0
C1600 C 0.47459 0.85766 0.00589 0.0
H1601 H 0.59855 0.85882 0.84479 0.0
H1602 H 0.57342 0.8487 0.89187 0.0
C1603 C 0.46135 0.86181 0.0374 0.0
C1604 C 0.50394 0.86844 0.96454 0.0
H1605 H 0.50512 0.85744 0.86124 0.0
C1606 C 0.52653 0.87241 0.97606 0.0
C1607 C 0.49619 0.86257 0.92266 0.0
C1608 C 0.47208 0.85863 0.90795 0.0
C1609 C 0.54135 0.87185 0.94682 0.0
C1610 C 0.53354 0.86648 0.90475 0.0
C1611 C 0.51114 0.86142 0.89348 0.0
C1612 C 0.54746 0.86912 0.87166 0.0
C1613 C 0.56492 0.87834 0.9611 0.0
C1614 C 0.54078 0.88292 0.84287 0.0
C1615 C 0.55482 0.88818 0.81546 0.0
C1616 C 0.57584 0.87971 0.8159 0.0
C1617 C 0.58223 0.86512 0.8431 0.0
C1618 C 0.56801 0.85966 0.8705 0.0
H1619 H 0.56712 0.8858 0.99305 0.0
H1620 H 0.57564 0.86487 0.96043 0.0
H1621 H 0.57061 0.88897 0.94056 0.0
H1622 H 0.52507 0.89044 0.84296 0.0
H1623 H 0.54954 0.89951 0.79477 0.0
H1624 H 0.34341 0.30235 0.86896 0.0
H1625 H 0.34769 0.27836 0.92115 0.0
H1626 H 0.37675 0.32529 0.01135 0.0
H1627 H 0.37201 0.34953 0.95964 0.0
H1628 H 0.38572 0.26624 0.96244 0.0
H1629 H 0.3329 0.30104 0.07427 0.0
H1630 H 0.3321 0.30877 0.02304 0.0
H1631 H 0.35379 0.31768 0.06282 0.0
C1632 C 0.35033 0.30769 0.90009 0.0
C1633 C 0.35718 0.32794 0.91012 0.0
C1634 C 0.35287 0.29391 0.92987 0.0
C1635 C 0.36235 0.30002 0.97034 0.0
C1636 C 0.36892 0.32029 0.98065 0.0
H1637 H 0.39289 0.22602 0.17897 0.0
H1638 H 0.39465 0.25308 0.13342 0.0
C1639 C 0.36621 0.33415 0.95095 0.0
C1640 C 0.36629 0.28487 1.00094 0.0
H1641 H 0.35403 0.27288 0.09416 0.0
C1642 C 0.3788 0.26774 0.99126 0.0
C1643 C 0.35742 0.28687 0.03874 0.0
C1644 C 0.34314 0.30448 0.05028 0.0
C1645 C 0.38237 0.25244 0.01795 0.0
C1646 C 0.37315 0.25427 0.05527 0.0
C1647 C 0.36121 0.27163 0.06562 0.0
C1648 C 0.37386 0.23745 0.08193 0.0
C1649 C 0.39579 0.23431 0.00592 0.0
C1650 C 0.36174 0.21974 0.06793 0.0
C1651 C 0.3606 0.20442 0.09378 0.0
C1652 C 0.3717 0.2064 0.13416 0.0
C1653 C 0.38443 0.22392 0.14784 0.0
C1654 C 0.38533 0.23942 0.12198 0.0
H1655 H 0.406 0.23732 0.98163 0.0
H1656 H 0.40671 0.22969 0.03303 0.0
H1657 H 0.38452 0.22145 0.99381 0.0
H1658 H 0.35258 0.21801 0.03731 0.0
H1659 H 0.35066 0.19112 0.08234 0.0
H1660 H 0.98408 0.12728 0.19399 0.0
H1661 H 0.0116 0.12274 0.25319 0.0
H1662 H 0.96005 0.11863 0.3295 0.0
H1663 H 0.93239 0.12333 0.27072 0.0
H1664 H 0.99468 0.14531 0.36428 0.0
H1665 H 0.02602 0.07047 0.30883 0.0
H1666 H 0.02593 0.08969 0.27394 0.0
H1667 H 1.00031 0.08051 0.28633 0.0
C1668 C 0.97853 0.12527 0.22327 0.0
C1669 C 0.95595 0.12561 0.22745 0.0
C1670 C 0.99433 0.1226 0.25706 0.0
C1671 C 0.98787 0.12015 0.29566 0.0
C1672 C 0.96539 0.12044 0.29995 0.0
H1673 H 0.05411 0.07771 0.51618 0.0
H1674 H 0.03226 0.08273 0.45054 0.0
C1675 C 0.94959 0.12307 0.26622 0.0
C1676 C 0.0045 0.1178 0.33195 0.0
H1677 H 0.04418 0.08623 0.37152 0.0
C1678 C 0.00559 0.13245 0.36583 0.0
C1679 C 0.01861 0.10094 0.33394 0.0
C1680 C 0.01763 0.08438 0.29902 0.0
C1681 C 0.02026 0.13063 0.40181 0.0
C1682 C 0.03443 0.1138 0.40377 0.0
C1683 C 0.03346 0.09922 0.36976 0.0
C1684 C 0.04907 0.11027 0.44203 0.0
C1685 C 0.01994 0.14636 0.43796 0.0
C1686 C 0.06617 0.12386 0.45867 0.0
C1687 C 0.07876 0.12105 0.49641 0.0
C1688 C 0.07449 0.10452 0.51809 0.0
C1689 C 0.0578 0.09065 0.5005 0.0
C1690 C 0.04532 0.09344 0.46286 0.0
H1691 H 0.00514 0.15604 0.43442 0.0
H1692 H 0.02037 0.13911 0.46707 0.0
H1693 H 0.03472 0.15624 0.44063 0.0
H1694 H 0.06951 0.13684 0.44284 0.0
H1695 H 0.0912 0.13224 0.50914 0.0
H1696 H 0.81948 0.77959 0.13499 0.0
H1697 H 0.82998 0.7561 0.07962 0.0
H1698 H 0.89422 0.78419 0.094 0.0
H1699 H 0.88387 0.80784 0.14983 0.0
H1700 H 0.84239 0.76457 0.00597 0.0
H1701 H 0.90892 0.72411 0.09574 0.0
H1702 H 0.8896 0.74018 0.12 0.0
H1703 H 0.91207 0.75112 0.09942 0.0
C1704 C 0.83591 0.78079 0.12662 0.0
C1705 C 0.85087 0.79553 0.14738 0.0
C1706 C 0.84189 0.7673 0.09489 0.0
C1707 C 0.86297 0.76817 0.08291 0.0
C1708 C 0.87801 0.7829 0.10331 0.0
H1709 H 0.89279 0.70475 0.85026 0.0
H1710 H 0.88753 0.73079 0.90576 0.0
C1711 C 0.87206 0.79642 0.13535 0.0
C1712 C 0.86868 0.75391 0.04829 0.0
H1713 H 0.90246 0.71479 0.02409 0.0
C1714 C 0.85561 0.75376 0.00987 0.0
C1715 C 0.88578 0.73966 0.05351 0.0
C1716 C 0.89982 0.73857 0.09443 0.0
C1717 C 0.85898 0.73965 0.97672 0.0
C1718 C 0.87617 0.72549 0.98182 0.0
C1719 C 0.88938 0.72574 0.02013 0.0
C1720 C 0.88004 0.70973 0.94834 0.0
C1721 C 0.84361 0.73961 0.93694 0.0
C1722 C 0.87811 0.68919 0.95407 0.0
C1723 C 0.88121 0.67423 0.92247 0.0
C1724 C 0.88641 0.67949 0.8844 0.0
C1725 C 0.88861 0.70011 0.87896 0.0
C1726 C 0.88554 0.71505 0.91065 0.0
H1727 H 0.82829 0.74808 0.94119 0.0
H1728 H 0.85197 0.74693 0.91421 0.0
H1729 H 0.83907 0.72393 0.92389 0.0
H1730 H 0.87393 0.68471 0.9829 0.0
H1731 H 0.87945 0.65854 0.92791 0.0
H1732 H 0.15328 0.14245 0.83699 0.0
H1733 H 0.12807 0.15078 0.8885 0.0
H1734 H 0.07258 0.13608 0.79538 0.0
H1735 H 0.09765 0.12851 0.74419 0.0
H1736 H 0.06252 0.16695 0.8468 0.0
H1737 H 0.10015 0.10643 0.93783 0.0
H1738 H 0.11851 0.1267 0.93257 0.0
H1739 H 0.10746 0.11034 0.88794 0.0
C1740 C 0.13567 0.14145 0.82763 0.0
C1741 C 0.12731 0.13513 0.78667 0.0
C1742 C 0.12127 0.14603 0.85704 0.0
C1743 C 0.09833 0.14363 0.84618 0.0
C1744 C 0.09012 0.1381 0.80475 0.0
H1745 H 0.99903 0.09899 0.96514 0.0
H1746 H 0.02935 0.10757 0.9299 0.0
C1747 C 0.10445 0.13384 0.77541 0.0
C1748 C 0.08278 0.14508 0.87775 0.0
H1749 H 0.06922 0.12234 0.96002 0.0
C1750 C 0.06411 0.15739 0.87192 0.0
C1751 C 0.08473 0.13251 0.91045 0.0
C1752 C 0.10366 0.11812 0.91752 0.0
C1753 C 0.04694 0.15672 0.89641 0.0
C1754 C 0.04867 0.14374 0.92837 0.0
C1755 C 0.06789 0.13232 0.93562 0.0
C1756 C 0.02975 0.13942 0.95072 0.0
C1757 C 0.02654 0.16897 0.88622 0.0
C1758 C 0.01956 0.15449 0.97456 0.0
C1759 C 1.00167 0.14965 0.99485 0.0
C1760 C 0.99373 0.12957 0.99198 0.0
C1761 C 0.00429 0.11466 0.96829 0.0
C1762 C 0.02189 0.11951 0.94806 0.0
H1763 H 0.02615 0.17528 0.85608 0.0
H1764 H 0.01149 0.1596 0.88547 0.0
H1765 H 0.02608 0.18176 0.91033 0.0
H1766 H 0.02549 0.16995 0.97769 0.0
H1767 H 0.99407 0.16172 0.01223 0.0
H1768 H 0.58772 0.24769 0.74174 0.0
H1769 H 0.57604 0.27563 0.70012 0.0
H1770 H 0.60267 0.24466 0.59672 0.0
H1771 H 0.61441 0.21699 0.63791 0.0
H1772 H 0.60723 0.29844 0.66379 0.0
H1773 H 0.54195 0.26437 0.54532 0.0
H1774 H 0.54966 0.25403 0.59394 0.0
H1775 H 0.56595 0.24889 0.55255 0.0
C1776 C 0.5905 0.24662 0.7098 0.0
C1777 C 0.60191 0.23011 0.69302 0.0
C1778 C 0.58393 0.26262 0.68613 0.0
C1779 C 0.58825 0.26213 0.64514 0.0
C1780 C 0.59879 0.24524 0.62798 0.0
H1781 H 0.60623 0.32711 0.44742 0.0
H1782 H 0.59717 0.30351 0.49526 0.0
C1783 C 0.60562 0.22947 0.65166 0.0
C1784 C 0.58418 0.27999 0.62128 0.0
H1785 H 0.56064 0.29359 0.52811 0.0
C1786 C 0.59664 0.29764 0.63457 0.0
C1787 C 0.57043 0.27885 0.58312 0.0
C1788 C 0.55606 0.26058 0.568 0.0
C1789 C 0.59701 0.31355 0.60937 0.0
C1790 C 0.58407 0.31199 0.57018 0.0
C1791 C 0.57057 0.29483 0.55806 0.0
C1792 C 0.58658 0.32656 0.53931 0.0
C1793 C 0.61248 0.33118 0.62376 0.0
C1794 C 0.58307 0.34742 0.54738 0.0
C1795 C 0.58832 0.36099 0.51983 0.0
C1796 C 0.59654 0.35379 0.48339 0.0
C1797 C 0.59916 0.33294 0.47462 0.0
C1798 C 0.59414 0.31946 0.50214 0.0
H1799 H 0.62436 0.32814 0.65095 0.0
H1800 H 0.62191 0.33485 0.59879 0.0
H1801 H 0.60281 0.34465 0.63258 0.0
H1802 H 0.57686 0.35326 0.57544 0.0
H1803 H 0.58638 0.37706 0.52731 0.0
H1804 H 0.38481 0.85894 0.33578 0.0
H1805 H 0.41108 0.85793 0.39885 0.0
H1806 H 0.465 0.86278 0.32816 0.0
H1807 H 0.43887 0.86379 0.26566 0.0
H1808 H 0.47503 0.83792 0.39183 0.0
H1809 H 0.4403 0.91142 0.44714 0.0
H1810 H 0.42117 0.89057 0.43694 0.0
H1811 H 0.43312 0.89991 0.39529 0.0
C1812 C 0.4023 0.85907 0.33371 0.0
C1813 C 0.40988 0.86078 0.29575 0.0
C1814 C 0.41729 0.85868 0.36972 0.0
C1815 C 0.44006 0.86053 0.36838 0.0
C1816 C 0.44758 0.86118 0.33005 0.0
H1817 H 0.54402 0.92091 0.52479 0.0
H1818 H 0.51425 0.90732 0.47361 0.0
C1819 C 0.43264 0.8615 0.2942 0.0
C1820 C 0.45596 0.8642 0.40671 0.0
H1821 H 0.471 0.89967 0.48771 0.0
C1822 C 0.474 0.85125 0.41322 0.0
C1823 C 0.45477 0.88177 0.43431 0.0
C1824 C 0.43644 0.89684 0.42809 0.0
C1825 C 0.49113 0.85568 0.44585 0.0
C1826 C 0.49009 0.87345 0.47284 0.0
C1827 C 0.4717 0.88599 0.46714 0.0
C1828 C 0.50892 0.8807 0.5041 0.0
C1829 C 0.51073 0.84192 0.44998 0.0
C1830 C 0.51599 0.87024 0.53853 0.0
C1831 C 0.5332 0.87806 0.56834 0.0
C1832 C 0.5436 0.89653 0.56422 0.0
C1833 C 0.53643 0.90676 0.52942 0.0
C1834 C 0.51937 0.89897 0.49989 0.0
H1835 H 0.51046 0.83036 0.4232 0.0
H1836 H 0.52626 0.85083 0.45315 0.0
H1837 H 0.5108 0.834 0.47818 0.0
H1838 H 0.50791 0.85628 0.54282 0.0
H1839 H 0.53787 0.86987 0.59496 0.0
H1840 H 0.90475 0.1838 0.30185 0.0
H1841 H 0.90878 0.20321 0.36985 0.0
H1842 H 0.84634 0.23155 0.33801 0.0
H1843 H 0.84208 0.21221 0.27069 0.0
H1844 H 0.90991 0.24591 0.38449 0.0
H1845 H 0.84123 0.21402 0.45255 0.0
H1846 H 0.85225 0.20135 0.40876 0.0
H1847 H 0.83301 0.22162 0.40196 0.0
C1848 C 0.89163 0.19377 0.30973 0.0
C1849 C 0.87297 0.19629 0.28087 0.0
C1850 C 0.89404 0.20499 0.3485 0.0
C1851 C 0.87772 0.21867 0.3593 0.0
C1852 C 0.85895 0.22085 0.33081 0.0
H1853 H 0.88314 0.32722 0.52619 0.0
H1854 H 0.88125 0.3014 0.46773 0.0
C1855 C 0.85662 0.20983 0.29214 0.0
C1856 C 0.88072 0.23176 0.399 0.0
H1857 H 0.85574 0.24605 0.48408 0.0
C1858 C 0.89823 0.24577 0.40652 0.0
C1859 C 0.86559 0.23151 0.42798 0.0
C1860 C 0.84708 0.21619 0.42269 0.0
C1861 C 0.90049 0.26003 0.44131 0.0
C1862 C 0.88466 0.26048 0.46911 0.0
C1863 C 0.8677 0.24592 0.46252 0.0
C1864 C 0.88526 0.27614 0.50482 0.0
C1865 C 0.91981 0.27452 0.44796 0.0
C1866 C 0.88741 0.27056 0.54521 0.0
C1867 C 0.88838 0.28531 0.57883 0.0
C1868 C 0.88702 0.306 0.57279 0.0
C1869 C 0.88429 0.31148 0.53216 0.0
C1870 C 0.88339 0.29672 0.49861 0.0
H1871 H 0.93339 0.26877 0.43087 0.0
H1872 H 0.91444 0.28917 0.43664 0.0
H1873 H 0.92626 0.27731 0.48115 0.0
H1874 H 0.88872 0.25478 0.55077 0.0
H1875 H 0.89048 0.28048 0.60958 0.0
H1876 H 0.54901 0.15956 0.96868 0.0
H1877 H 0.52371 0.16665 0.02035 0.0
H1878 H 0.50309 0.10406 1.00411 0.0
H1879 H 0.52759 0.09718 0.95189 0.0
H1880 H 0.46855 0.12858 0.99797 0.0
H1881 H 0.5256 0.15437 0.13879 0.0
H1882 H 0.52725 0.16809 0.09483 0.0
H1883 H 0.53522 0.14203 0.09331 0.0
C1884 C 0.53942 0.14728 0.97694 0.0
C1885 C 0.54031 0.12779 0.95641 0.0
C1886 C 0.52496 0.15133 0.00646 0.0
C1887 C 0.5115 0.13587 0.01635 0.0
C1888 C 0.51317 0.11628 0.99694 0.0
H1889 H 0.44299 0.11063 0.20978 0.0
H1890 H 0.4692 0.11951 0.16441 0.0
C1891 C 0.52725 0.11233 0.9672 0.0
C1892 C 0.49462 0.13985 0.0448 0.0
H1893 H 0.48785 0.15306 0.14527 0.0
C1894 C 0.47273 0.13412 0.03012 0.0
C1895 C 0.50004 0.14718 0.08669 0.0
C1896 C 0.52331 0.15315 0.1046 0.0
C1897 C 0.45645 0.13432 0.05646 0.0
C1898 C 0.46197 0.14113 0.09865 0.0
C1899 C 0.48359 0.14795 0.11291 0.0
C1900 C 0.44658 0.13843 0.12928 0.0
C1901 C 0.4339 0.12593 0.03922 0.0
C1902 C 0.42522 0.14656 0.12561 0.0
C1903 C 0.41005 0.14118 0.15131 0.0
C1904 C 0.41628 0.12804 0.18156 0.0
C1905 C 0.43789 0.12081 0.18657 0.0
C1906 C 0.45289 0.12599 0.16082 0.0
H1907 H 0.43377 0.11756 0.00832 0.0
H1908 H 0.42797 0.11557 0.06002 0.0
H1909 H 0.4221 0.13855 0.03614 0.0
H1910 H 0.42006 0.15651 0.10205 0.0
H1911 H 0.39335 0.14664 0.14654 0.0
H1912 H 0.63054 0.70866 0.14706 0.0
H1913 H 0.62711 0.73332 0.09615 0.0
H1914 H 0.64035 0.6868 1.00228 0.0
H1915 H 0.64337 0.66191 0.05278 0.0
H1916 H 0.65647 0.74611 0.05047 0.0
H1917 H 0.58535 0.71144 0.94647 0.0
H1918 H 0.59372 0.70361 0.99715 0.0
H1919 H 0.60789 0.69437 0.95466 0.0
C1920 C 0.63272 0.70361 0.11559 0.0
C1921 C 0.63719 0.68321 0.10414 0.0
C1922 C 0.6307 0.71776 0.08644 0.0
C1923 C 0.63302 0.71191 0.04509 0.0
C1924 C 0.63788 0.69164 0.03369 0.0
H1925 H 0.66607 0.78976 0.86677 0.0
H1926 H 0.66425 0.76475 0.91572 0.0
C1927 C 0.63983 0.67743 0.06279 0.0
C1928 C 0.6312 0.72718 0.0144 0.0
H1929 H 0.60462 0.73776 0.92086 0.0
C1930 C 0.64502 0.74431 0.02228 0.0
C1931 C 0.61602 0.72509 0.97782 0.0
C1932 C 0.59974 0.70775 0.96864 0.0
C1933 C 0.64455 0.75903 0.99424 0.0
C1934 C 0.63016 0.75643 0.95673 0.0
C1935 C 0.61583 0.73965 0.94934 0.0
C1936 C 0.63039 0.7707 0.92447 0.0
C1937 C 0.65941 0.77734 1.00524 0.0
C1938 C 0.61164 0.78184 0.91153 0.0
C1939 C 0.61255 0.79619 0.88305 0.0
C1940 C 0.63226 0.79957 0.86687 0.0
C1941 C 0.65069 0.78779 0.87888 0.0
C1942 C 0.64972 0.77348 0.90705 0.0
H1943 H 0.66439 0.78003 0.03902 0.0
H1944 H 0.67458 0.77488 0.99045 0.0
H1945 H 0.65125 0.79111 0.99425 0.0
H1946 H 0.59649 0.77988 0.92441 0.0
H1947 H 0.5981 0.80511 0.87503 0.0
H1948 H 0.94871 0.92896 0.50237 0.0
H1949 H 0.9678 0.92495 0.57099 0.0
H1950 H 0.92886 0.87169 0.57699 0.0
H1951 H 0.90979 0.87539 0.50796 0.0
H1952 H 0.95246 0.92093 0.65078 0.0
H1953 H 0.99447 0.85285 0.58687 0.0
H1954 H 0.98038 0.87047 0.55433 0.0
H1955 H 0.96488 0.85299 0.57778 0.0
C1956 C 0.94395 0.91655 0.51848 0.0
C1957 C 0.92772 0.90252 0.49959 0.0
C1958 C 0.95482 0.91434 0.55778 0.0
C1959 C 0.94986 0.89794 0.57887 0.0
C1960 C 0.93297 0.8844 0.56106 0.0
H1961 H 0.02065 0.8754 0.82145 0.0
H1962 H 0.9905 0.87962 0.76609 0.0
C1963 C 0.92196 0.88666 0.52172 0.0
C1964 C 0.9638 0.89426 0.6177 0.0
H1965 H 0.00535 0.86429 0.6562 0.0
C1966 C 0.96379 0.90838 0.65229 0.0
C1967 C 0.97873 0.87799 0.61928 0.0
C1968 C 0.97985 0.86272 0.58262 0.0
C1969 C 0.97866 0.90684 0.68819 0.0
C1970 C 0.99389 0.89085 0.6893 0.0
C1971 C 0.99353 0.87648 0.65515 0.0
C1972 C 0.0116 0.88967 0.72415 0.0
C1973 C 0.9787 0.92271 0.72412 0.0
C1974 C 0.03333 0.89409 0.71887 0.0
C1975 C 0.05053 0.8918 0.75029 0.0
C1976 C 0.04638 0.88482 0.78763 0.0
C1977 C 0.02445 0.8808 0.79315 0.0
C1978 C 0.0072 0.88322 0.76162 0.0
H1979 H 0.96678 0.93495 0.71736 0.0
H1980 H 0.97442 0.91558 0.75121 0.0
H1981 H 0.99543 0.92947 0.73256 0.0
H1982 H 0.03702 0.89907 0.6901 0.0
H1983 H 0.06715 0.89504 0.74483 0.0
H1984 H 0.68622 0.72972 0.37627 0.0
H1985 H 0.67505 0.75252 0.43226 0.0
H1986 H 0.61097 0.72406 0.41449 0.0
H1987 H 0.62195 0.70099 0.35875 0.0
H1988 H 0.6094 0.76653 0.42391 0.0
H1989 H 0.6677 0.73755 0.54762 0.0
H1990 H 0.68072 0.7448 0.50538 0.0
H1991 H 0.6614 0.72403 0.49721 0.0
C1992 C 0.66975 0.7282 0.38422 0.0
C1993 C 0.65503 0.71352 0.36243 0.0
C1994 C 0.66341 0.74125 0.41641 0.0
C1995 C 0.64227 0.73985 0.42796 0.0
C1996 C 0.62738 0.72542 0.40611 0.0
H1997 H 0.60658 0.80126 0.65743 0.0
H1998 H 0.61236 0.7758 0.60107 0.0
C1999 C 0.6337 0.71231 0.37387 0.0
C2000 C 0.63574 0.75359 0.46264 0.0
H2001 H 0.65015 0.7687 0.56481 0.0
C2002 C 0.6182 0.76692 0.45479 0.0
C2003 C 0.64698 0.75388 0.50311 0.0
C2004 C 0.66511 0.73917 0.51405 0.0
C2005 C 0.61213 0.78098 0.48596 0.0
C2006 C 0.6241 0.78194 0.52594 0.0
C2007 C 0.64112 0.76813 0.5341 0.0
C2008 C 0.61963 0.79744 0.5595 0.0
C2009 C 0.59287 0.79463 0.47583 0.0
C2010 C 0.62194 0.81809 0.55507 0.0
C2011 C 0.61867 0.83269 0.5872 0.0
C2012 C 0.61312 0.82697 0.62471 0.0
C2013 C 0.61078 0.80625 0.62903 0.0
C2014 C 0.61409 0.79165 0.59682 0.0
H2015 H 0.58172 0.78821 0.4483 0.0
H2016 H 0.58321 0.79726 0.5021 0.0
H2017 H 0.59907 0.80945 0.46904 0.0
H2018 H 0.62668 0.82295 0.52696 0.0
H2019 H 0.62073 0.84846 0.58272 0.0
H2020 H 0.52835 0.34357 0.53042 0.0
H2021 H 0.50185 0.33533 0.57673 0.0
H2022 H 0.44956 0.36094 0.49758 0.0
H2023 H 0.47591 0.36948 0.45206 0.0
H2024 H 0.47763 0.36924 0.61249 0.0
H2025 H 0.42128 0.3087 0.53207 0.0
H2026 H 0.44895 0.31209 0.52017 0.0
H2027 H 0.42731 0.32836 0.50113 0.0
C2028 C 0.51106 0.34671 0.52225 0.0
C2029 C 0.50408 0.35702 0.4876 0.0
C2030 C 0.49596 0.34209 0.54872 0.0
C2031 C 0.47366 0.34732 0.54035 0.0
C2032 C 0.46655 0.3564 0.50427 0.0
H2033 H 0.35876 0.37286 0.65926 0.0
H2034 H 0.38481 0.36226 0.61069 0.0
C2035 C 0.48162 0.36134 0.47835 0.0
C2036 C 0.45855 0.34663 0.57205 0.0
H2037 H 0.40863 0.3285 0.58876 0.0
C2038 C 0.46275 0.36004 0.60775 0.0
C2039 C 0.43895 0.33492 0.56534 0.0
C2040 C 0.43384 0.32006 0.52775 0.0
C2041 C 0.44748 0.36279 0.63604 0.0
C2042 C 0.4277 0.3512 0.62931 0.0
C2043 C 0.42376 0.33733 0.59407 0.0
C2044 C 0.41061 0.35416 0.6576 0.0
C2045 C 0.45222 0.37895 0.67163 0.0
C2046 C 0.41605 0.35242 0.69987 0.0
C2047 C 0.40142 0.3589 0.72748 0.0
C2048 C 0.3806 0.36627 0.7134 0.0
C2049 C 0.37457 0.36686 0.67087 0.0
C2050 C 0.38942 0.36076 0.64316 0.0
H2051 H 0.46475 0.39003 0.66594 0.0
H2052 H 0.43707 0.38729 0.6776 0.0
H2053 H 0.45876 0.3718 0.69977 0.0
H2054 H 0.43216 0.3472 0.71184 0.0
H2055 H 0.40714 0.35968 0.76005 0.0
H2056 H 0.90812 0.1275 0.97471 0.0
H2057 H 0.91855 0.15117 0.92706 0.0
H2058 H 0.90551 0.20139 0.01344 0.0
H2059 H 0.89552 0.17791 0.06058 0.0
H2060 H 0.89206 0.17749 0.89071 0.0
H2061 H 0.96132 0.22116 0.9804 0.0
H2062 H 0.95221 0.19743 0.99525 0.0
H2063 H 0.9389 0.22072 0.01016 0.0
C2064 C 0.90815 0.14361 0.98369 0.0
C2065 C 0.90167 0.15101 0.02157 0.0
C2066 C 0.91405 0.1571 0.95659 0.0
C2067 C 0.91337 0.17813 0.967 0.0
C2068 C 0.90705 0.18533 1.0052 0.0
H2069 H 0.87991 0.2852 0.86715 0.0
H2070 H 0.89129 0.25687 0.9068 0.0
C2071 C 0.90128 0.17192 0.03214 0.0
C2072 C 0.91637 0.19269 0.93648 0.0
H2073 H 0.93845 0.23915 0.9289 0.0
C2074 C 0.90272 0.19066 0.89852 0.0
C2075 C 0.93033 0.2099 0.94648 0.0
C2076 C 0.94667 0.21229 0.98514 0.0
C2077 C 0.90135 0.20607 0.87195 0.0
C2078 C 0.91396 0.22395 0.8836 0.0
C2079 C 0.92868 0.22547 0.92019 0.0
C2080 C 0.90973 0.2421 0.86098 0.0
C2081 C 0.88532 0.2038 0.83286 0.0
C2082 C 0.91678 0.24341 0.82241 0.0
C2083 C 0.91039 0.25974 0.79963 0.0
C2084 C 0.89668 0.27487 0.81503 0.0
C2085 C 0.89036 0.27376 0.85432 0.0
C2086 C 0.89692 0.25763 0.87712 0.0
H2087 H 0.87612 0.18922 0.82891 0.0
H2088 H 0.87333 0.21636 0.83294 0.0
H2089 H 0.89434 0.2047 0.80596 0.0
H2090 H 0.92665 0.23152 0.80945 0.0
H2091 H 0.91533 0.25999 0.76929 0.0
H2092 H 0.12069 0.64435 0.17584 0.0
H2093 H 0.09496 0.64697 0.11281 0.0
H2094 H 0.04083 0.65113 0.18477 0.0
H2095 H 0.06648 0.64881 0.24716 0.0
H2096 H 0.06607 0.61964 0.08367 0.0
H2097 H 0.01967 0.69012 0.10464 0.0
H2098 H 0.04504 0.68561 0.13691 0.0
H2099 H 0.01922 0.67605 0.14829 0.0
C2100 C 0.10339 0.64674 0.17817 0.0
C2101 C 0.09565 0.64715 0.2165 0.0
C2102 C 0.08865 0.64812 0.14217 0.0
C2103 C 0.06584 0.64961 0.14378 0.0
C2104 C 0.05829 0.6508 0.18246 0.0
H2105 H 0.96258 0.58785 0.98857 0.0
H2106 H 0.99253 0.60174 0.03907 0.0
C2107 C 0.07304 0.64963 0.21838 0.0
C2108 C 0.04981 0.64662 0.1053 0.0
H2109 H 1.00043 0.66279 0.05891 0.0
C2110 C 0.05202 0.6294 0.07792 0.0
C2111 C 0.03146 0.65935 0.09707 0.0
C2112 C 0.02885 0.67892 0.12311 0.0
C2113 C 0.03586 0.6239 0.04437 0.0
C2114 C 0.01662 0.63564 0.03831 0.0
C2115 C 0.01499 0.65358 0.06392 0.0
C2116 C 0.99736 0.62832 0.00811 0.0
C2117 C 0.03932 0.6052 0.01624 0.0
C2118 C 0.98944 0.639 0.97441 0.0
C2119 C 0.97205 0.63105 0.94511 0.0
C2120 C 0.96224 0.61231 0.94921 0.0
C2121 C 0.96986 0.60213 0.98385 0.0
C2122 C 0.98706 0.61006 0.0129 0.0
H2123 H 0.0571 0.60174 0.01672 0.0
H2124 H 0.03122 0.5921 0.0268 0.0
H2125 H 0.03209 0.60692 0.98403 0.0
H2126 H 0.99709 0.65319 0.97019 0.0
H2127 H 0.96683 0.63928 0.91877 0.0
H2128 H 0.66477 0.28931 0.24874 0.0
H2129 H 0.66158 0.26964 0.18177 0.0
H2130 H 0.60171 0.30064 0.14292 0.0
H2131 H 0.60455 0.32028 0.21041 0.0
H2132 H 0.59842 0.25824 0.12801 0.0
H2133 H 0.67206 0.28662 0.06928 0.0
H2134 H 0.67787 0.27859 0.12009 0.0
H2135 H 0.66022 0.29985 0.11155 0.0
C2136 C 0.65101 0.29216 0.22587 0.0
C2137 C 0.63506 0.30659 0.23498 0.0
C2138 C 0.64931 0.28097 0.18742 0.0
C2139 C 0.63161 0.28387 0.15703 0.0
C2140 C 0.61566 0.29831 0.16577 0.0
H2141 H 0.62068 0.22453 0.90536 0.0
H2142 H 0.62347 0.24958 0.9654 0.0
C2143 C 0.61741 0.30966 0.2043 0.0
C2144 C 0.62923 0.27087 0.11727 0.0
H2145 H 0.65608 0.25572 0.03499 0.0
C2146 C 0.61091 0.25784 0.10746 0.0
C2147 C 0.64542 0.27045 0.09022 0.0
C2148 C 0.6649 0.28476 0.09803 0.0
C2149 C 0.60876 0.24392 0.07216 0.0
C2150 C 0.62551 0.24282 0.04623 0.0
C2151 C 0.6434 0.25637 0.05517 0.0
C2152 C 0.6248 0.22756 0.00991 0.0
C2153 C 0.58855 0.23052 0.06291 0.0
C2154 C 0.62522 0.20682 0.015 0.0
C2155 C 0.62374 0.19244 0.98078 0.0
C2156 C 0.62183 0.19846 0.94061 0.0
C2157 C 0.6221 0.21929 0.93574 0.0
C2158 C 0.62366 0.23366 0.97004 0.0
H2159 H 0.57487 0.23671 0.07923 0.0
H2160 H 0.58278 0.22857 0.02934 0.0
H2161 H 0.59263 0.21539 0.07323 0.0
H2162 H 0.62653 0.20175 0.04552 0.0
H2163 H 0.62363 0.17658 0.98584 0.0
H2164 H 0.94808 0.34867 0.53075 0.0
H2165 H 0.97083 0.34175 0.47495 0.0
H2166 H 0.00462 0.39876 0.51061 0.0
H2167 H 0.98226 0.40571 0.56613 0.0
H2168 H 0.97709 0.36197 0.40807 0.0
H2169 H 0.05555 0.35976 0.51088 0.0
H2170 H 0.02917 0.35888 0.5295 0.0
H2171 H 0.04117 0.38274 0.52199 0.0
C2172 C 0.96014 0.35986 0.52636 0.0
C2173 C 0.96334 0.37777 0.55307 0.0
C2174 C 0.97327 0.35579 0.49464 0.0
C2175 C 0.98987 0.36949 0.48926 0.0
C2176 C 0.99244 0.38765 0.5149 0.0
H2177 H 0.04997 0.40144 0.28973 0.0
H2178 H 0.02504 0.39199 0.33645 0.0
C2179 C 0.97949 0.39167 0.54653 0.0
C2180 C 0.00439 0.36531 0.45657 0.0
H2181 H 0.05834 0.36687 0.44108 0.0
C2182 C 0.99487 0.36264 0.41527 0.0
C2183 C 0.02762 0.3656 0.46579 0.0
C2184 C 0.03896 0.36667 0.50949 0.0
C2185 C 0.00789 0.36186 0.38299 0.0
C2186 C 0.03109 0.36423 0.39224 0.0
C2187 C 0.04062 0.3653 0.43361 0.0
C2188 C 0.04547 0.36805 0.36039 0.0
C2189 C 0.9964 0.35891 0.33943 0.0
C2190 C 0.06577 0.35816 0.35856 0.0
C2191 C 0.08043 0.36397 0.33222 0.0
C2192 C 0.07493 0.37961 0.3071 0.0
C2193 C 0.05451 0.38912 0.30838 0.0
C2194 C 0.04007 0.38354 0.3348 0.0
H2195 H 0.98235 0.34815 0.33714 0.0
H2196 H 0.98959 0.37356 0.3304 0.0
H2197 H 0.00763 0.35317 0.31734 0.0
H2198 H 0.07055 0.34637 0.37838 0.0
H2199 H 0.09633 0.35687 0.33283 0.0
H2200 H 0.90435 0.70119 0.63327 0.0
H2201 H 0.90463 0.72769 0.58616 0.0
H2202 H 0.83635 0.73988 0.59679 0.0
H2203 H 0.83585 0.71336 0.64283 0.0
H2204 H 0.84285 0.73511 0.51823 0.0
H2205 H 0.90554 0.78882 0.604 0.0
H2206 H 0.91515 0.7634 0.59567 0.0
H2207 H 0.89384 0.76874 0.62774 0.0
C2208 C 0.88956 0.70983 0.62624 0.0
C2209 C 0.87008 0.70517 0.64193 0.0
C2210 C 0.88973 0.72501 0.59928 0.0
C2211 C 0.87053 0.73597 0.58803 0.0
C2212 C 0.85135 0.73167 0.60478 0.0
H2213 H 0.85541 0.84521 0.46054 0.0
H2214 H 0.85791 0.82 0.51052 0.0
C2215 C 0.85111 0.71647 0.6312 0.0
C2216 C 0.86965 0.751 0.55691 0.0
H2217 H 0.89187 0.79537 0.53574 0.0
C2218 C 0.8536 0.74828 0.52214 0.0
C2219 C 0.88347 0.76834 0.56206 0.0
C2220 C 0.90035 0.77267 0.59954 0.0
C2221 C 0.85091 0.76234 0.49262 0.0
C2222 C 0.86504 0.77945 0.49724 0.0
C2223 C 0.88111 0.78222 0.532 0.0
C2224 C 0.86322 0.79472 0.46655 0.0
C2225 C 0.83251 0.75897 0.45735 0.0
C2226 C 0.86539 0.78898 0.42509 0.0
C2227 C 0.86371 0.80331 0.39632 0.0
C2228 C 0.8601 0.82383 0.40838 0.0
C2229 C 0.85802 0.82955 0.45 0.0
C2230 C 0.85958 0.81516 0.47872 0.0
H2231 H 0.81953 0.74874 0.46458 0.0
H2232 H 0.82478 0.77346 0.44949 0.0
H2233 H 0.83924 0.75182 0.42984 0.0
H2234 H 0.86872 0.77342 0.41501 0.0
H2235 H 0.86575 0.79833 0.36476 0.0
H2236 H 0.59152 0.63175 0.00931 0.0
H2237 H 0.5713 0.63602 0.94154 0.0
H2238 H 0.53037 0.58448 0.95104 0.0
H2239 H 0.5507 0.57981 0.01832 0.0
H2240 H 0.54344 0.58661 0.87106 0.0
H2241 H 0.50781 0.65838 0.93347 0.0
H2242 H 0.53735 0.65698 0.94003 0.0
H2243 H 0.52173 0.64082 0.96635 0.0
C2244 C 0.57864 0.62096 0.9966 0.0
C2245 C 0.57277 0.60537 0.01934 0.0
C2246 C 0.56692 0.62359 0.958 0.0
C2247 C 0.54915 0.61073 0.94154 0.0
C2248 C 0.54399 0.59461 0.96322 0.0
H2249 H 0.43233 0.62523 0.77427 0.0
H2250 H 0.46071 0.61999 0.83152 0.0
C2251 C 0.55559 0.59201 1.00176 0.0
C2252 C 0.5349 0.61466 0.90316 0.0
H2253 H 0.49631 0.6473 0.86402 0.0
C2254 C 0.53329 0.59997 0.86927 0.0
C2255 C 0.52148 0.63199 0.90121 0.0
C2256 C 0.52195 0.64792 0.93722 0.0
C2257 C 0.51842 0.60205 0.83362 0.0
C2258 C 0.50492 0.61931 0.83183 0.0
C2259 C 0.50676 0.63412 0.86548 0.0
C2260 C 0.48792 0.62183 0.79629 0.0
C2261 C 0.51668 0.58545 0.7987 0.0
C2262 C 0.49383 0.62461 0.75743 0.0
C2263 C 0.47761 0.62765 0.72451 0.0
C2264 C 0.45518 0.62798 0.72988 0.0
C2265 C 0.44939 0.62501 0.76888 0.0
C2266 C 0.4656 0.62206 0.80173 0.0
H2267 H 0.52532 0.57155 0.80785 0.0
H2268 H 0.49916 0.5816 0.78757 0.0
H2269 H 0.52417 0.59075 0.77266 0.0
H2270 H 0.51099 0.62475 0.75273 0.0
H2271 H 0.4827 0.62995 0.69498 0.0
H2272 H 0.32259 0.27446 0.63645 0.0
H2273 H 0.33413 0.252 0.58054 0.0
H2274 H 0.39551 0.28487 0.59131 0.0
H2275 H 0.38408 0.30756 0.6478 0.0
H2276 H 0.3441 0.26241 0.50598 0.0
H2277 H 0.41532 0.22565 0.59122 0.0
H2278 H 0.39519 0.23992 0.61709 0.0
H2279 H 0.41592 0.25281 0.59533 0.0
C2280 C 0.33862 0.27692 0.6272 0.0
C2281 C 0.35246 0.29273 0.64702 0.0
C2282 C 0.3452 0.26402 0.59517 0.0
C2283 C 0.36576 0.26657 0.58195 0.0
C2284 C 0.37975 0.28232 0.60157 0.0
H2285 H 0.39374 0.20542 0.34606 0.0
H2286 H 0.38904 0.23106 0.40256 0.0
C2287 C 0.37319 0.29526 0.63396 0.0
C2288 C 0.37185 0.25301 0.54665 0.0
H2289 H 0.40733 0.21573 0.52004 0.0
C2290 C 0.35803 0.25231 0.50896 0.0
C2291 C 0.38991 0.23971 0.55069 0.0
C2292 C 0.4049 0.23935 0.59079 0.0
C2293 C 0.3615 0.23847 0.47548 0.0
C2294 C 0.37954 0.22515 0.47948 0.0
C2295 C 0.39357 0.22602 0.51697 0.0
C2296 C 0.38346 0.20961 0.44565 0.0
C2297 C 0.34533 0.23773 0.43661 0.0
C2298 C 0.38245 0.18899 0.45135 0.0
C2299 C 0.38521 0.17425 0.41914 0.0
C2300 C 0.38913 0.17983 0.38051 0.0
C2301 C 0.39054 0.20053 0.37519 0.0
C2302 C 0.38781 0.21525 0.40746 0.0
H2303 H 0.32976 0.24558 0.44181 0.0
H2304 H 0.35273 0.24532 0.41302 0.0
H2305 H 0.34135 0.22187 0.42409 0.0
H2306 H 0.37916 0.18429 0.48059 0.0
H2307 H 0.38413 0.15848 0.4245 0.0
H2308 H 0.50421 0.65794 0.54273 0.0
H2309 H 0.53455 0.66703 0.50562 0.0
H2310 H 0.50262 0.63373 0.39506 0.0
H2311 H 0.47245 0.62493 0.43143 0.0
H2312 H 0.56201 0.63956 0.47016 0.0
H2313 H 0.5214 0.68457 0.35034 0.0
H2314 H 0.50896 0.68018 0.39559 0.0
H2315 H 0.50622 0.66166 0.35145 0.0
C2316 C 0.50337 0.65312 0.5102 0.0
C2317 C 0.48586 0.64077 0.48997 0.0
C2318 C 0.52079 0.6582 0.4891 0.0
C2319 C 0.52077 0.65131 0.44733 0.0
C2320 C 0.50285 0.63965 0.42693 0.0
H2321 H 0.59294 0.61694 0.25623 0.0
H2322 H 0.56718 0.62776 0.30449 0.0
C2323 C 0.48565 0.63448 0.44792 0.0
C2324 C 0.54022 0.65418 0.4256 0.0
H2325 H 0.55325 0.66526 0.33268 0.0
C2326 C 0.56041 0.64582 0.44068 0.0
C2327 C 0.53818 0.66237 0.38719 0.0
C2328 C 0.51756 0.67289 0.37046 0.0
C2329 C 0.57793 0.64388 0.41685 0.0
C2330 C 0.57523 0.65068 0.37702 0.0
C2331 C 0.55552 0.6602 0.3632 0.0
C2332 C 0.59117 0.64556 0.34716 0.0
C2333 C 0.59852 0.63319 0.43318 0.0
C2334 C 0.61325 0.65225 0.35455 0.0
C2335 C 0.6281 0.64594 0.32682 0.0
C2336 C 0.62092 0.63308 0.29127 0.0
C2337 C 0.5988 0.62687 0.28351 0.0
C2338 C 0.58407 0.6331 0.311 0.0
H2339 H 0.5966 0.62604 0.46167 0.0
H2340 H 0.60306 0.62135 0.40971 0.0
H2341 H 0.61233 0.64425 0.4404 0.0
H2342 H 0.61905 0.66215 0.38186 0.0
H2343 H 0.64516 0.65077 0.33347 0.0
H2344 H 0.13479 0.722 0.14434 0.0
H2345 H 0.12512 0.75063 0.10493 0.0
H2346 H 0.08379 0.77389 0.19461 0.0
H2347 H 0.09375 0.74525 0.23504 0.0
H2348 H 0.0836 0.76457 0.0702 0.0
H2349 H 0.12731 0.82105 0.18911 0.0
H2350 H 0.13182 0.79425 0.19024 0.0
H2351 H 0.10675 0.80512 0.20443 0.0
C2352 C 0.12354 0.7331 0.15574 0.0
C2353 C 0.11513 0.73128 0.19299 0.0
C2354 C 0.11796 0.74946 0.13302 0.0
C2355 C 0.10394 0.76454 0.14701 0.0
C2356 C 0.09485 0.76254 0.18348 0.0
H2357 H 0.08768 0.87328 0.00652 0.0
H2358 H 0.07822 0.8494 0.05453 0.0
C2359 C 0.10038 0.74602 0.20631 0.0
C2360 C 0.09982 0.78249 0.1235 0.0
H2361 H 0.11543 0.8319 0.12417 0.0
C2362 C 0.09007 0.77943 0.08234 0.0
C2363 C 0.1083 0.80188 0.1393 0.0
C2364 C 0.11925 0.80592 0.1831 0.0
C2365 C 0.0897 0.79487 0.05602 0.0
C2366 C 0.09941 0.81383 0.07108 0.0
C2367 C 0.10788 0.81736 0.11284 0.0
C2368 C 0.10433 0.82859 0.0424 0.0
C2369 C 0.08004 0.79057 0.01159 0.0
C2370 C 0.12223 0.82497 0.02037 0.0
C2371 C 0.1273 0.83833 0.99277 0.0
C2372 C 0.11429 0.85541 0.98571 0.0
C2373 C 0.09687 0.85952 0.00895 0.0
C2374 C 0.09181 0.84612 0.03706 0.0
H2375 H 0.06946 0.77678 0.00637 0.0
H2376 H 0.07017 0.80363 1.00133 0.0
H2377 H 0.09361 0.78833 0.99238 0.0
H2378 H 0.13226 0.81168 0.02445 0.0
H2379 H 0.14112 0.83497 0.9759 0.0
H2380 H 0.04406 0.41891 0.01711 0.0
H2381 H 0.01392 0.40514 0.96695 0.0
H2382 H 0.00841 0.35437 0.03726 0.0
H2383 H 0.03872 0.36816 0.08845 0.0
H2384 H 0.00591 0.34421 0.94861 0.0
H2385 H 0.94899 0.40561 0.9881 0.0
H2386 H 0.97507 0.41496 0.97839 0.0
H2387 H 0.97376 0.4005 0.02152 0.0
C2388 C 0.03651 0.40483 0.02231 0.0
C2389 C 0.04397 0.39478 0.05722 0.0
C2390 C 0.0192 0.39697 0.99341 0.0
C2391 C 0.00866 0.37889 0.9986 0.0
C2392 C 0.01628 0.36841 0.03271 0.0
H2393 H 0.88567 0.36071 0.83055 0.0
H2394 H 0.91146 0.35868 0.89373 0.0
C2395 C 0.03373 0.3763 0.06189 0.0
C2396 C 0.98955 0.37144 0.96825 0.0
H2397 H 0.94012 0.387 0.92194 0.0
C2398 C 0.99132 0.35335 0.94318 0.0
C2399 C 0.9703 0.38312 0.96163 0.0
C2400 C 0.96676 0.40202 0.98911 0.0
C2401 C 0.97496 0.34733 0.91003 0.0
C2402 C 0.95656 0.35994 0.90133 0.0
C2403 C 0.95422 0.37734 0.92813 0.0
C2404 C 0.94062 0.35661 0.86285 0.0
C2405 C 0.97772 0.32766 0.88442 0.0
C2406 C 0.94823 0.35556 0.82424 0.0
C2407 C 0.93347 0.35646 0.78826 0.0
C2408 C 0.91081 0.35846 0.79003 0.0
C2409 C 0.90304 0.3587 0.82832 0.0
C2410 C 0.91779 0.35764 0.86438 0.0
H2411 H 0.98714 0.31667 0.90307 0.0
H2412 H 0.96158 0.32077 0.87099 0.0
H2413 H 0.98717 0.33049 0.85895 0.0
H2414 H 0.9657 0.35556 0.82206 0.0
H2415 H 0.94002 0.35746 0.75953 0.0
H2416 H 0.40646 0.68621 0.80503 0.0
H2417 H 0.41184 0.70569 0.87294 0.0
H2418 H 0.35014 0.73569 0.84367 0.0
H2419 H 0.34456 0.71633 0.77632 0.0
H2420 H 0.41377 0.74906 0.88694 0.0
H2421 H 0.34635 0.71735 0.95903 0.0
H2422 H 0.35693 0.70449 0.91492 0.0
H2423 H 0.33774 0.72481 0.90842 0.0
C2424 C 0.3938 0.6966 0.81344 0.0
C2425 C 0.37495 0.69955 0.78532 0.0
C2426 C 0.39698 0.70784 0.85213 0.0
C2427 C 0.38126 0.72197 0.86359 0.0
C2428 C 0.36231 0.72464 0.83585 0.0
H2429 H 0.38795 0.82982 0.03174 0.0
H2430 H 0.38644 0.80421 0.97295 0.0
C2431 C 0.35922 0.71361 0.79721 0.0
C2432 C 0.38501 0.73493 0.90332 0.0
H2433 H 0.36183 0.74894 0.99056 0.0
C2434 C 0.40259 0.74887 0.90986 0.0
C2435 C 0.37052 0.7346 0.93337 0.0
C2436 C 0.35193 0.71938 0.92889 0.0
C2437 C 0.40551 0.763 0.94483 0.0
C2438 C 0.39033 0.76334 0.97382 0.0
C2439 C 0.37331 0.74884 0.96813 0.0
C2440 C 0.39152 0.7789 0.00972 0.0
C2441 C 0.42479 0.77751 0.95036 0.0
C2442 C 0.39438 0.7732 0.05003 0.0
C2443 C 0.39518 0.78782 0.08382 0.0
C2444 C 0.3929 0.80848 0.078 0.0
C2445 C 0.3898 0.8141 0.03749 0.0
C2446 C 0.38909 0.79947 1.00377 0.0
H2447 H 0.43796 0.77186 0.93212 0.0
H2448 H 0.41914 0.79222 0.93967 0.0
H2449 H 0.43188 0.78017 0.98325 0.0
H2450 H 0.39614 0.75741 0.05537 0.0
H2451 H 0.39754 0.78289 0.1145 0.0
H2452 H 0.95312 0.62397 0.7401 0.0
H2453 H 0.97991 0.63171 0.69478 0.0
H2454 H 0.9271 0.63631 0.59575 0.0
H2455 H 0.9002 0.62932 0.64199 0.0
H2456 H 0.98636 0.60732 0.6295 0.0
H2457 H 0.96613 0.68287 0.57838 0.0
H2458 H 0.95585 0.67387 0.62242 0.0
H2459 H 0.94265 0.66622 0.57119 0.0
C2460 C 0.94721 0.62763 0.70923 0.0
C2461 C 0.92462 0.62679 0.69486 0.0
C2462 C 0.96253 0.6318 0.68316 0.0
C2463 C 0.95561 0.63486 0.64183 0.0
C2464 C 0.93289 0.63458 0.62772 0.0
H2465 H 0.01987 0.60069 0.43214 0.0
H2466 H 0.99841 0.6047 0.48952 0.0
C2467 C 0.91751 0.63055 0.65405 0.0
C2468 C 0.9722 0.63555 0.6126 0.0
H2469 H 0.98856 0.66181 0.53716 0.0
C2470 C 0.98699 0.61942 0.60977 0.0
C2471 C 0.97329 0.65138 0.58701 0.0
C2472 C 0.95878 0.66967 0.59013 0.0
C2473 C 0.00215 0.61828 0.58117 0.0
C2474 C 0.00238 0.63348 0.55397 0.0
C2475 C 0.98828 0.65007 0.55781 0.0
C2476 C 0.0159 0.63143 0.5194 0.0
C2477 C 0.01765 0.60061 0.57996 0.0
C2478 C 0.03282 0.64528 0.51672 0.0
C2479 C 0.04531 0.64301 0.48367 0.0
C2480 C 0.04087 0.62695 0.4525 0.0
C2481 C 0.02384 0.61321 0.4555 0.0
C2482 C 0.01155 0.61542 0.48845 0.0
H2483 H 0.01988 0.5937 0.60963 0.0
H2484 H 0.01071 0.58886 0.5555 0.0
H2485 H 0.03401 0.60529 0.57291 0.0
H2486 H 0.03636 0.65783 0.54017 0.0
H2487 H 0.05796 0.65413 0.48201 0.0
H2488 H 0.17223 0.29154 0.35877 0.0
H2489 H 0.17178 0.26481 0.40439 0.0
H2490 H 0.10309 0.27583 0.4129 0.0
H2491 H 0.10332 0.30259 0.3666 0.0
H2492 H 0.16426 0.26846 0.4827 0.0
H2493 H 0.10313 0.21479 0.39225 0.0
H2494 H 0.11499 0.23531 0.37005 0.0
H2495 H 0.09298 0.23999 0.40076 0.0
C2496 C 0.15691 0.28818 0.36991 0.0
C2497 C 0.13778 0.2992 0.35861 0.0
C2498 C 0.15669 0.27284 0.39608 0.0
C2499 C 0.13737 0.26806 0.41191 0.0
C2500 C 0.1181 0.27884 0.40039 0.0
H2501 H 0.13656 0.20624 0.6335 0.0
H2502 H 0.13497 0.23061 0.58237 0.0
C2503 C 0.11826 0.29418 0.37383 0.0
C2504 C 0.13803 0.25267 0.4423 0.0
H2505 H 0.11521 0.20813 0.46128 0.0
C2506 C 0.15354 0.25525 0.47789 0.0
C2507 C 0.12427 0.23526 0.43597 0.0
C2508 C 0.10804 0.231 0.39753 0.0
C2509 C 0.15557 0.24112 0.5073 0.0
C2510 C 0.14137 0.22403 0.50163 0.0
C2511 C 0.126 0.22128 0.46585 0.0
C2512 C 0.14218 0.20896 0.53265 0.0
C2513 C 0.17327 0.24446 0.5438 0.0
C2514 C 0.14626 0.18846 0.52171 0.0
C2515 C 0.14707 0.17435 0.55099 0.0
C2516 C 0.14371 0.18042 0.59187 0.0
C2517 C 0.1395 0.20097 0.60255 0.0
C2518 C 0.13864 0.21501 0.57329 0.0
H2519 H 0.18655 0.25464 0.53761 0.0
H2520 H 0.16593 0.25165 0.57059 0.0
H2521 H 0.18072 0.22994 0.55225 0.0
H2522 H 0.14895 0.18339 0.49051 0.0
H2523 H 0.15018 0.15867 0.54148 0.0
H2524 H 0.45455 0.42669 0.98283 0.0
H2525 H 0.47692 0.42024 0.04718 0.0
H2526 H 0.44203 0.36406 0.04759 0.0
H2527 H 0.41973 0.37018 0.98266 0.0
H2528 H 0.46416 0.41304 0.12528 0.0
H2529 H 0.50804 0.34815 0.05424 0.0
H2530 H 0.49237 0.36581 0.02398 0.0
H2531 H 0.47847 0.34672 0.04626 0.0
C2532 C 0.45151 0.41299 0.99665 0.0
C2533 C 0.43526 0.39902 0.97755 0.0
C2534 C 0.46428 0.40937 0.03352 0.0
C2535 C 0.46129 0.3916 0.05192 0.0
C2536 C 0.44474 0.3778 0.03363 0.0
H2537 H 0.52301 0.36668 0.29627 0.0
H2538 H 0.49669 0.37182 0.23576 0.0
C2539 C 0.43182 0.38145 0.99674 0.0
C2540 C 0.47599 0.38745 0.08964 0.0
H2541 H 0.51741 0.35668 0.12561 0.0
C2542 C 0.47571 0.40065 0.12549 0.0
C2543 C 0.49125 0.37144 0.08957 0.0
C2544 C 0.49279 0.35726 0.05145 0.0
C2545 C 0.49028 0.39825 0.16134 0.0
C2546 C 0.50542 0.38215 0.16135 0.0
C2547 C 0.50571 0.36895 0.12551 0.0
C2548 C 0.52141 0.37901 0.19805 0.0
C2549 C 0.48975 0.41324 0.19861 0.0
C2550 C 0.54409 0.38106 0.19671 0.0
C2551 C 0.55924 0.37814 0.23128 0.0
C2552 C 0.55199 0.37293 0.26777 0.0
C2553 C 0.52922 0.37073 0.26878 0.0
C2554 C 0.5141 0.37374 0.23428 0.0
H2555 H 0.48047 0.42705 0.1909 0.0
H2556 H 0.48162 0.40614 0.22192 0.0
H2557 H 0.50671 0.41774 0.21272 0.0
H2558 H 0.55006 0.38505 0.16895 0.0
H2559 H 0.57663 0.37986 0.22929 0.0
loop_
_geom_bond_atom_site_label_1
_geom_bond_atom_site_label_2
_geom_bond_distance
_geom_bond_site_symmetry_2
_ccdc_geom_bond_type
Zn0 N4 2.020 . S
Zn0 O8 2.019 . S
Zn0 N10 2.119 . S
Zn0 O18 1.975 . S
C1 N2 1.334 . S
C1 N5 1.336 . S
N2 C1 1.334 . S
N2 C3 1.334 . S
C3 N2 1.334 . S
C3 N4 1.336 . S
N4 Zn0 2.020 . S
N4 C3 1.336 . S
N4 N5 1.354 . S
N5 C1 1.336 . S
N5 N4 1.354 . S
N5 Zn9 2.020 . S
C6 O7 1.244 . S
C6 O30 1.257 . S
O7 C6 1.244 . S
O8 Zn0 2.019 . S
O8 C28 1.257 . S
Zn9 N5 2.020 . S
Zn9 O16 1.975 . S
Zn9 N25 2.119 . S
Zn9 O30 2.019 . S
N10 Zn0 2.119 . S
N10 C12 1.334 . S
N10 C13 1.328 . S
C11 C12 1.391 . S
C11 N14 1.329 . S
C11 H32 0.930 . S
C12 N10 1.334 . S
C12 C11 1.391 . S
C12 H19 0.930 . S
C13 N10 1.328 . S
C13 C15 1.392 . S
C13 H20 0.930 . S
N14 C11 1.329 . S
N14 C15 1.331 . S
C15 C13 1.392 . S
C15 N14 1.331 . S
O16 Zn9 1.975 . S
O16 C17 1.252 . S
C17 O16 1.252 . S
C17 O18 1.252 . S
O18 Zn0 1.975 . S
O18 C17 1.252 . S
H19 C12 0.930 . S
H20 C13 0.930 . S
C21 C22 1.392 . S
C21 N25 1.328 . S
C21 H27 0.930 . S
C22 C21 1.392 . S
C22 N26 1.331 . S
C23 C24 1.391 . S
C23 N26 1.329 . S
C23 H33 0.930 . S
C24 C23 1.391 . S
C24 N25 1.334 . S
C24 H31 0.930 . S
N25 Zn9 2.119 . S
N25 C21 1.328 . S
N25 C24 1.334 . S
N26 C22 1.331 . S
N26 C23 1.329 . S
H27 C21 0.930 . S
C28 O8 1.257 . S
C28 O29 1.244 . S
O29 C28 1.244 . S
O30 C6 1.257 . S
O30 Zn9 2.019 . S
H31 C24 0.930 . S
H32 C11 0.930 . S
H33 C23 0.930 . S
Zn34 N38 2.020 . S
Zn34 O42 2.019 . S
Zn34 N44 2.119 . S
Zn34 O52 1.975 . S
C35 N36 1.334 . S
C35 N39 1.336 . S
N36 C35 1.334 . S
N36 C37 1.334 . S
C37 N36 1.334 . S
C37 N38 1.336 . S
N38 Zn34 2.020 . S
N38 C37 1.336 . S
N38 N39 1.354 . S
N39 C35 1.336 . S
N39 N38 1.354 . S
N39 Zn43 2.020 . S
C40 O41 1.244 . S
C40 O64 1.257 . S
O41 C40 1.244 . S
O42 Zn34 2.019 . S
O42 C62 1.257 . S
Zn43 N39 2.020 . S
Zn43 O50 1.975 . S
Zn43 N59 2.119 . S
Zn43 O64 2.019 . S
N44 Zn34 2.119 . S
N44 C46 1.334 . S
N44 C47 1.328 . S
C45 C46 1.391 . S
C45 N48 1.329 . S
C45 H66 0.930 . S
C46 N44 1.334 . S
C46 C45 1.391 . S
C46 H53 0.930 . S
C47 N44 1.328 . S
C47 C49 1.392 . S
C47 H54 0.930 . S
N48 C45 1.329 . S
N48 C49 1.331 . S
C49 C47 1.392 . S
C49 N48 1.331 . S
O50 Zn43 1.975 . S
O50 C51 1.252 . S
C51 O50 1.252 . S
C51 O52 1.252 . S
O52 Zn34 1.975 . S
O52 C51 1.252 . S
H53 C46 0.930 . S
H54 C47 0.930 . S
C55 C56 1.392 . S
C55 N59 1.328 . S
C55 H61 0.930 . S
C56 C55 1.392 . S
C56 N60 1.331 . S
C57 C58 1.391 . S
C57 N60 1.329 . S
C57 H67 0.930 . S
C58 C57 1.391 . S
C58 N59 1.334 . S
C58 H65 0.930 . S
N59 Zn43 2.119 . S
N59 C55 1.328 . S
N59 C58 1.334 . S
N60 C56 1.331 . S
N60 C57 1.329 . S
H61 C55 0.930 . S
C62 O42 1.257 . S
C62 O63 1.244 . S
O63 C62 1.244 . S
O64 C40 1.257 . S
O64 Zn43 2.019 . S
H65 C58 0.930 . S
H66 C45 0.930 . S
H67 C57 0.930 . S
Zn68 N72 2.020 . S
Zn68 O76 2.019 . S
Zn68 N78 2.119 . S
Zn68 O86 1.975 . S
C69 N70 1.334 . S
C69 N73 1.336 . S
N70 C69 1.334 . S
N70 C71 1.334 . S
C71 N70 1.334 . S
C71 N72 1.336 . S
N72 Zn68 2.020 . S
N72 C71 1.336 . S
N72 N73 1.354 . S
N73 C69 1.336 . S
N73 N72 1.354 . S
N73 Zn77 2.020 . S
C74 O75 1.244 . S
C74 O98 1.257 . S
O75 C74 1.244 . S
O76 Zn68 2.019 . S
O76 C96 1.257 . S
Zn77 N73 2.020 . S
Zn77 O84 1.975 . S
Zn77 N93 2.119 . S
Zn77 O98 2.019 . S
N78 Zn68 2.119 . S
N78 C80 1.334 . S
N78 C81 1.328 . S
C79 C80 1.391 . S
C79 N82 1.329 . S
C79 H100 0.930 . S
C80 N78 1.334 . S
C80 C79 1.391 . S
C80 H87 0.930 . S
C81 N78 1.328 . S
C81 C83 1.392 . S
C81 H88 0.930 . S
N82 C79 1.329 . S
N82 C83 1.331 . S
C83 C81 1.392 . S
C83 N82 1.331 . S
O84 Zn77 1.975 . S
O84 C85 1.252 . S
C85 O84 1.252 . S
C85 O86 1.252 . S
O86 Zn68 1.975 . S
O86 C85 1.252 . S
H87 C80 0.930 . S
H88 C81 0.930 . S
C89 C90 1.392 . S
C89 N93 1.328 . S
C89 H95 0.930 . S
C90 C89 1.392 . S
C90 N94 1.331 . S
C91 C92 1.391 . S
C91 N94 1.329 . S
C91 H101 0.930 . S
C92 C91 1.391 . S
C92 N93 1.334 . S
C92 H99 0.930 . S
N93 Zn77 2.119 . S
N93 C89 1.328 . S
N93 C92 1.334 . S
N94 C90 1.331 . S
N94 C91 1.329 . S
H95 C89 0.930 . S
C96 O76 1.257 . S
C96 O97 1.244 . S
O97 C96 1.244 . S
O98 C74 1.257 . S
O98 Zn77 2.019 . S
H99 C92 0.930 . S
H100 C79 0.930 . S
H101 C91 0.930 . S
Zn102 N106 2.020 . S
Zn102 O110 2.019 . S
Zn102 N112 2.119 . S
Zn102 O120 1.975 . S
C103 N104 1.334 . S
C103 N107 1.336 . S
N104 C103 1.334 . S
N104 C105 1.334 . S
C105 N104 1.334 . S
C105 N106 1.336 . S
N106 Zn102 2.020 . S
N106 C105 1.336 . S
N106 N107 1.354 . S
N107 C103 1.336 . S
N107 N106 1.354 . S
N107 Zn111 2.020 . S
C108 O109 1.244 . S
C108 O132 1.257 . S
O109 C108 1.244 . S
O110 Zn102 2.019 . S
O110 C130 1.257 . S
Zn111 N107 2.020 . S
Zn111 O118 1.975 . S
Zn111 N127 2.119 . S
Zn111 O132 2.019 . S
N112 Zn102 2.119 . S
N112 C114 1.334 . S
N112 C115 1.328 . S
C113 C114 1.391 . S
C113 N116 1.329 . S
C113 H134 0.930 . S
C114 N112 1.334 . S
C114 C113 1.391 . S
C114 H121 0.930 . S
C115 N112 1.328 . S
C115 C117 1.392 . S
C115 H122 0.930 . S
N116 C113 1.329 . S
N116 C117 1.331 . S
C117 C115 1.392 . S
C117 N116 1.331 . S
O118 Zn111 1.975 . S
O118 C119 1.252 . S
C119 O118 1.252 . S
C119 O120 1.252 . S
O120 Zn102 1.975 . S
O120 C119 1.252 . S
H121 C114 0.930 . S
H122 C115 0.930 . S
C123 C124 1.392 . S
C123 N127 1.328 . S
C123 H129 0.930 . S
C124 C123 1.392 . S
C124 N128 1.331 . S
C125 C126 1.391 . S
C125 N128 1.329 . S
C125 H135 0.930 . S
C126 C125 1.391 . S
C126 N127 1.334 . S
C126 H133 0.930 . S
N127 Zn111 2.119 . S
N127 C123 1.328 . S
N127 C126 1.334 . S
N128 C124 1.331 . S
N128 C125 1.329 . S
H129 C123 0.930 . S
C130 O110 1.257 . S
C130 O131 1.244 . S
O131 C130 1.244 . S
O132 C108 1.257 . S
O132 Zn111 2.019 . S
H133 C126 0.930 . S
H134 C113 0.930 . S
H135 C125 0.930 . S
Zn136 N140 2.020 . S
Zn136 O144 2.019 . S
Zn136 N146 2.119 . S
Zn136 O154 1.975 . S
C137 N138 1.334 . S
C137 N141 1.336 . S
N138 C137 1.334 . S
N138 C139 1.334 . S
C139 N138 1.334 . S
C139 N140 1.336 . S
N140 Zn136 2.020 . S
N140 C139 1.336 . S
N140 N141 1.354 . S
N141 C137 1.336 . S
N141 N140 1.354 . S
N141 Zn145 2.020 . S
C142 O143 1.244 . S
C142 O166 1.257 . S
O143 C142 1.244 . S
O144 Zn136 2.019 . S
O144 C164 1.257 . S
Zn145 N141 2.020 . S
Zn145 O152 1.975 . S
Zn145 N161 2.119 . S
Zn145 O166 2.019 . S
N146 Zn136 2.119 . S
N146 C148 1.334 . S
N146 C149 1.328 . S
C147 C148 1.391 . S
C147 N150 1.329 . S
C147 H168 0.930 . S
C148 N146 1.334 . S
C148 C147 1.391 . S
C148 H155 0.930 . S
C149 N146 1.328 . S
C149 C151 1.392 . S
C149 H156 0.930 . S
N150 C147 1.329 . S
N150 C151 1.331 . S
C151 C149 1.392 . S
C151 N150 1.331 . S
O152 Zn145 1.975 . S
O152 C153 1.252 . S
C153 O152 1.252 . S
C153 O154 1.252 . S
O154 Zn136 1.975 . S
O154 C153 1.252 . S
H155 C148 0.930 . S
H156 C149 0.930 . S
C157 C158 1.392 . S
C157 N161 1.328 . S
C157 H163 0.930 . S
C158 C157 1.392 . S
C158 N162 1.331 . S
C159 C160 1.391 . S
C159 N162 1.329 . S
C159 H169 0.930 . S
C160 C159 1.391 . S
C160 N161 1.334 . S
C160 H167 0.930 . S
N161 Zn145 2.119 . S
N161 C157 1.328 . S
N161 C160 1.334 . S
N162 C158 1.331 . S
N162 C159 1.329 . S
H163 C157 0.930 . S
C164 O144 1.257 . S
C164 O165 1.244 . S
O165 C164 1.244 . S
O166 C142 1.257 . S
O166 Zn145 2.019 . S
H167 C160 0.930 . S
H168 C147 0.930 . S
H169 C159 0.930 . S
Zn170 N174 2.020 . S
Zn170 O178 2.019 . S
Zn170 N180 2.119 . S
Zn170 O188 1.975 . S
C171 N172 1.334 . S
C171 N175 1.336 . S
N172 C171 1.334 . S
N172 C173 1.334 . S
C173 N172 1.334 . S
C173 N174 1.336 . S
N174 Zn170 2.020 . S
N174 C173 1.336 . S
N174 N175 1.354 . S
N175 C171 1.336 . S
N175 N174 1.354 . S
N175 Zn179 2.020 . S
C176 O177 1.244 . S
C176 O200 1.257 . S
O177 C176 1.244 . S
O178 Zn170 2.019 . S
O178 C198 1.257 . S
Zn179 N175 2.020 . S
Zn179 O186 1.975 . S
Zn179 N195 2.119 . S
Zn179 O200 2.019 . S
N180 Zn170 2.119 . S
N180 C182 1.334 . S
N180 C183 1.328 . S
C181 C182 1.391 . S
C181 N184 1.329 . S
C181 H202 0.930 . S
C182 N180 1.334 . S
C182 C181 1.391 . S
C182 H189 0.930 . S
C183 N180 1.328 . S
C183 C185 1.392 . S
C183 H190 0.930 . S
N184 C181 1.329 . S
N184 C185 1.331 . S
C185 C183 1.392 . S
C185 N184 1.331 . S
O186 Zn179 1.975 . S
O186 C187 1.252 . S
C187 O186 1.252 . S
C187 O188 1.252 . S
O188 Zn170 1.975 . S
O188 C187 1.252 . S
H189 C182 0.930 . S
H190 C183 0.930 . S
C191 C192 1.392 . S
C191 N195 1.328 . S
C191 H197 0.930 . S
C192 C191 1.392 . S
C192 N196 1.331 . S
C193 C194 1.391 . S
C193 N196 1.329 . S
C193 H203 0.930 . S
C194 C193 1.391 . S
C194 N195 1.334 . S
C194 H201 0.930 . S
N195 Zn179 2.119 . S
N195 C191 1.328 . S
N195 C194 1.334 . S
N196 C192 1.331 . S
N196 C193 1.329 . S
H197 C191 0.930 . S
C198 O178 1.257 . S
C198 O199 1.244 . S
O199 C198 1.244 . S
O200 C176 1.257 . S
O200 Zn179 2.019 . S
H201 C194 0.930 . S
H202 C181 0.930 . S
H203 C193 0.930 . S
Zn204 N208 2.020 . S
Zn204 O212 2.019 . S
Zn204 N214 2.119 . S
Zn204 O222 1.975 . S
C205 N206 1.334 . S
C205 N209 1.336 . S
N206 C205 1.334 . S
N206 C207 1.334 . S
C207 N206 1.334 . S
C207 N208 1.336 . S
N208 Zn204 2.020 . S
N208 C207 1.336 . S
N208 N209 1.354 . S
N209 C205 1.336 . S
N209 N208 1.354 . S
N209 Zn213 2.020 . S
C210 O211 1.244 . S
C210 O234 1.257 . S
O211 C210 1.244 . S
O212 Zn204 2.019 . S
O212 C232 1.257 . S
Zn213 N209 2.020 . S
Zn213 O220 1.975 . S
Zn213 N229 2.119 . S
Zn213 O234 2.019 . S
N214 Zn204 2.119 . S
N214 C216 1.334 . S
N214 C217 1.328 . S
C215 C216 1.391 . S
C215 N218 1.329 . S
C215 H236 0.930 . S
C216 N214 1.334 . S
C216 C215 1.391 . S
C216 H223 0.930 . S
C217 N214 1.328 . S
C217 C219 1.392 . S
C217 H224 0.930 . S
N218 C215 1.329 . S
N218 C219 1.331 . S
C219 C217 1.392 . S
C219 N218 1.331 . S
O220 Zn213 1.975 . S
O220 C221 1.252 . S
C221 O220 1.252 . S
C221 O222 1.252 . S
O222 Zn204 1.975 . S
O222 C221 1.252 . S
H223 C216 0.930 . S
H224 C217 0.930 . S
C225 C226 1.392 . S
C225 N229 1.328 . S
C225 H231 0.930 . S
C226 C225 1.392 . S
C226 N230 1.331 . S
C227 C228 1.391 . S
C227 N230 1.329 . S
C227 H237 0.930 . S
C228 C227 1.391 . S
C228 N229 1.334 . S
C228 H235 0.930 . S
N229 Zn213 2.119 . S
N229 C225 1.328 . S
N229 C228 1.334 . S
N230 C226 1.331 . S
N230 C227 1.329 . S
H231 C225 0.930 . S
C232 O212 1.257 . S
C232 O233 1.244 . S
O233 C232 1.244 . S
O234 C210 1.257 . S
O234 Zn213 2.019 . S
H235 C228 0.930 . S
H236 C215 0.930 . S
H237 C227 0.930 . S
Zn238 N242 2.020 . S
Zn238 O246 2.019 . S
Zn238 N248 2.119 . S
Zn238 O256 1.975 . S
C239 N240 1.334 . S
C239 N243 1.336 . S
N240 C239 1.334 . S
N240 C241 1.334 . S
C241 N240 1.334 . S
C241 N242 1.336 . S
N242 Zn238 2.020 . S
N242 C241 1.336 . S
N242 N243 1.354 . S
N243 C239 1.336 . S
N243 N242 1.354 . S
N243 Zn247 2.020 . S
C244 O245 1.244 . S
C244 O268 1.257 . S
O245 C244 1.244 . S
O246 Zn238 2.019 . S
O246 C266 1.257 . S
Zn247 N243 2.020 . S
Zn247 O254 1.975 . S
Zn247 N263 2.119 . S
Zn247 O268 2.019 . S
N248 Zn238 2.119 . S
N248 C250 1.334 . S
N248 C251 1.328 . S
C249 C250 1.391 . S
C249 N252 1.329 . S
C249 H270 0.930 . S
C250 N248 1.334 . S
C250 C249 1.391 . S
C250 H257 0.930 . S
C251 N248 1.328 . S
C251 C253 1.392 . S
C251 H258 0.930 . S
N252 C249 1.329 . S
N252 C253 1.331 . S
C253 C251 1.392 . S
C253 N252 1.331 . S
O254 Zn247 1.975 . S
O254 C255 1.252 . S
C255 O254 1.252 . S
C255 O256 1.252 . S
O256 Zn238 1.975 . S
O256 C255 1.252 . S
H257 C250 0.930 . S
H258 C251 0.930 . S
C259 C260 1.392 . S
C259 N263 1.328 . S
C259 H265 0.930 . S
C260 C259 1.392 . S
C260 N264 1.331 . S
C261 C262 1.391 . S
C261 N264 1.329 . S
C261 H271 0.930 . S
C262 C261 1.391 . S
C262 N263 1.334 . S
C262 H269 0.930 . S
N263 Zn247 2.119 . S
N263 C259 1.328 . S
N263 C262 1.334 . S
N264 C260 1.331 . S
N264 C261 1.329 . S
H265 C259 0.930 . S
C266 O246 1.257 . S
C266 O267 1.244 . S
O267 C266 1.244 . S
O268 C244 1.257 . S
O268 Zn247 2.019 . S
H269 C262 0.930 . S
H270 C249 0.930 . S
H271 C261 0.930 . S
Zn272 N276 2.020 . S
Zn272 O280 2.019 . S
Zn272 N282 2.119 . S
Zn272 O290 1.975 . S
C273 N274 1.334 . S
C273 N277 1.336 . S
N274 C273 1.334 . S
N274 C275 1.334 . S
C275 N274 1.334 . S
C275 N276 1.336 . S
N276 Zn272 2.020 . S
N276 C275 1.336 . S
N276 N277 1.354 . S
N277 C273 1.336 . S
N277 N276 1.354 . S
N277 Zn281 2.020 . S
C278 O279 1.244 . S
C278 O302 1.257 . S
O279 C278 1.244 . S
O280 Zn272 2.019 . S
O280 C300 1.257 . S
Zn281 N277 2.020 . S
Zn281 O288 1.975 . S
Zn281 N297 2.119 . S
Zn281 O302 2.019 . S
N282 Zn272 2.119 . S
N282 C284 1.334 . S
N282 C285 1.328 . S
C283 C284 1.391 . S
C283 N286 1.329 . S
C283 H304 0.930 . S
C284 N282 1.334 . S
C284 C283 1.391 . S
C284 H291 0.930 . S
C285 N282 1.328 . S
C285 C287 1.392 . S
C285 H292 0.930 . S
N286 C283 1.329 . S
N286 C287 1.331 . S
C287 C285 1.392 . S
C287 N286 1.331 . S
O288 Zn281 1.975 . S
O288 C289 1.252 . S
C289 O288 1.252 . S
C289 O290 1.252 . S
O290 Zn272 1.975 . S
O290 C289 1.252 . S
H291 C284 0.930 . S
H292 C285 0.930 . S
C293 C294 1.392 . S
C293 N297 1.328 . S
C293 H299 0.930 . S
C294 C293 1.392 . S
C294 N298 1.331 . S
C295 C296 1.391 . S
C295 N298 1.329 . S
C295 H305 0.930 . S
C296 C295 1.391 . S
C296 N297 1.334 . S
C296 H303 0.930 . S
N297 Zn281 2.119 . S
N297 C293 1.328 . S
N297 C296 1.334 . S
N298 C294 1.331 . S
N298 C295 1.329 . S
H299 C293 0.930 . S
C300 O280 1.257 . S
C300 O301 1.244 . S
O301 C300 1.244 . S
O302 C278 1.257 . S
O302 Zn281 2.019 . S
H303 C296 0.930 . S
H304 C283 0.930 . S
H305 C295 0.930 . S
Zn306 N310 2.020 . S
Zn306 O314 2.019 . S
Zn306 N316 2.119 . S
Zn306 O324 1.975 . S
C307 N308 1.334 . S
C307 N311 1.336 . S
N308 C307 1.334 . S
N308 C309 1.334 . S
C309 N308 1.334 . S
C309 N310 1.336 . S
N310 Zn306 2.020 . S
N310 C309 1.336 . S
N310 N311 1.354 . S
N311 C307 1.336 . S
N311 N310 1.354 . S
N311 Zn315 2.020 . S
C312 O313 1.244 . S
C312 O336 1.257 . S
O313 C312 1.244 . S
O314 Zn306 2.019 . S
O314 C334 1.257 . S
Zn315 N311 2.020 . S
Zn315 O322 1.975 . S
Zn315 N331 2.119 . S
Zn315 O336 2.019 . S
N316 Zn306 2.119 . S
N316 C318 1.334 . S
N316 C319 1.328 . S
C317 C318 1.391 . S
C317 N320 1.329 . S
C317 H338 0.930 . S
C318 N316 1.334 . S
C318 C317 1.391 . S
C318 H325 0.930 . S
C319 N316 1.328 . S
C319 C321 1.392 . S
C319 H326 0.930 . S
N320 C317 1.329 . S
N320 C321 1.331 . S
C321 C319 1.392 . S
C321 N320 1.331 . S
O322 Zn315 1.975 . S
O322 C323 1.252 . S
C323 O322 1.252 . S
C323 O324 1.252 . S
O324 Zn306 1.975 . S
O324 C323 1.252 . S
H325 C318 0.930 . S
H326 C319 0.930 . S
C327 C328 1.392 . S
C327 N331 1.328 . S
C327 H333 0.930 . S
C328 C327 1.392 . S
C328 N332 1.331 . S
C329 C330 1.391 . S
C329 N332 1.329 . S
C329 H339 0.930 . S
C330 C329 1.391 . S
C330 N331 1.334 . S
C330 H337 0.930 . S
N331 Zn315 2.119 . S
N331 C327 1.328 . S
N331 C330 1.334 . S
N332 C328 1.331 . S
N332 C329 1.329 . S
H333 C327 0.930 . S
C334 O314 1.257 . S
C334 O335 1.244 . S
O335 C334 1.244 . S
O336 C312 1.257 . S
O336 Zn315 2.019 . S
H337 C330 0.930 . S
H338 C317 0.930 . S
H339 C329 0.930 . S
Zn340 N344 2.020 . S
Zn340 O348 2.019 . S
Zn340 N350 2.119 . S
Zn340 O358 1.975 . S
C341 N342 1.334 . S
C341 N345 1.336 . S
N342 C341 1.334 . S
N342 C343 1.334 . S
C343 N342 1.334 . S
C343 N344 1.336 . S
N344 Zn340 2.020 . S
N344 C343 1.336 . S
N344 N345 1.354 . S
N345 C341 1.336 . S
N345 N344 1.354 . S
N345 Zn349 2.020 . S
C346 O347 1.244 . S
C346 O370 1.257 . S
O347 C346 1.244 . S
O348 Zn340 2.019 . S
O348 C368 1.257 . S
Zn349 N345 2.020 . S
Zn349 O356 1.975 . S
Zn349 N365 2.119 . S
Zn349 O370 2.019 . S
N350 Zn340 2.119 . S
N350 C352 1.334 . S
N350 C353 1.328 . S
C351 C352 1.391 . S
C351 N354 1.329 . S
C351 H372 0.930 . S
C352 N350 1.334 . S
C352 C351 1.391 . S
C352 H359 0.930 . S
C353 N350 1.328 . S
C353 C355 1.392 . S
C353 H360 0.930 . S
N354 C351 1.329 . S
N354 C355 1.331 . S
C355 C353 1.392 . S
C355 N354 1.331 . S
O356 Zn349 1.975 . S
O356 C357 1.252 . S
C357 O356 1.252 . S
C357 O358 1.252 . S
O358 Zn340 1.975 . S
O358 C357 1.252 . S
H359 C352 0.930 . S
H360 C353 0.930 . S
C361 C362 1.392 . S
C361 N365 1.328 . S
C361 H367 0.930 . S
C362 C361 1.392 . S
C362 N366 1.331 . S
C363 C364 1.391 . S
C363 N366 1.329 . S
C363 H373 0.930 . S
C364 C363 1.391 . S
C364 N365 1.334 . S
C364 H371 0.930 . S
N365 Zn349 2.119 . S
N365 C361 1.328 . S
N365 C364 1.334 . S
N366 C362 1.331 . S
N366 C363 1.329 . S
H367 C361 0.930 . S
C368 O348 1.257 . S
C368 O369 1.244 . S
O369 C368 1.244 . S
O370 C346 1.257 . S
O370 Zn349 2.019 . S
H371 C364 0.930 . S
H372 C351 0.930 . S
H373 C363 0.930 . S
Zn374 N378 2.020 . S
Zn374 O382 2.019 . S
Zn374 N384 2.119 . S
Zn374 O392 1.975 . S
C375 N376 1.334 . S
C375 N379 1.336 . S
N376 C375 1.334 . S
N376 C377 1.334 . S
C377 N376 1.334 . S
C377 N378 1.336 . S
N378 Zn374 2.020 . S
N378 C377 1.336 . S
N378 N379 1.354 . S
N379 C375 1.336 . S
N379 N378 1.354 . S
N379 Zn383 2.020 . S
C380 O381 1.244 . S
C380 O404 1.257 . S
O381 C380 1.244 . S
O382 Zn374 2.019 . S
O382 C402 1.257 . S
Zn383 N379 2.020 . S
Zn383 O390 1.975 . S
Zn383 N399 2.119 . S
Zn383 O404 2.019 . S
N384 Zn374 2.119 . S
N384 C386 1.334 . S
N384 C387 1.328 . S
C385 C386 1.391 . S
C385 N388 1.329 . S
C385 H406 0.930 . S
C386 N384 1.334 . S
C386 C385 1.391 . S
C386 H393 0.930 . S
C387 N384 1.328 . S
C387 C389 1.392 . S
C387 H394 0.930 . S
N388 C385 1.329 . S
N388 C389 1.331 . S
C389 C387 1.392 . S
C389 N388 1.331 . S
O390 Zn383 1.975 . S
O390 C391 1.252 . S
C391 O390 1.252 . S
C391 O392 1.252 . S
O392 Zn374 1.975 . S
O392 C391 1.252 . S
H393 C386 0.930 . S
H394 C387 0.930 . S
C395 C396 1.392 . S
C395 N399 1.328 . S
C395 H401 0.930 . S
C396 C395 1.392 . S
C396 N400 1.331 . S
C397 C398 1.391 . S
C397 N400 1.329 . S
C397 H407 0.930 . S
C398 C397 1.391 . S
C398 N399 1.334 . S
C398 H405 0.930 . S
N399 Zn383 2.119 . S
N399 C395 1.328 . S
N399 C398 1.334 . S
N400 C396 1.331 . S
N400 C397 1.329 . S
H401 C395 0.930 . S
C402 O382 1.257 . S
C402 O403 1.244 . S
O403 C402 1.244 . S
O404 C380 1.257 . S
O404 Zn383 2.019 . S
H405 C398 0.930 . S
H406 C385 0.930 . S
H407 C397 0.930 . S
Zn408 N412 2.020 . S
Zn408 O416 2.019 . S
Zn408 N418 2.119 . S
Zn408 O426 1.975 . S
C409 N410 1.334 . S
C409 N413 1.336 . S
N410 C409 1.334 . S
N410 C411 1.334 . S
C411 N410 1.334 . S
C411 N412 1.336 . S
N412 Zn408 2.020 . S
N412 C411 1.336 . S
N412 N413 1.354 . S
N413 C409 1.336 . S
N413 N412 1.354 . S
N413 Zn417 2.020 . S
C414 O415 1.244 . S
C414 O438 1.257 . S
O415 C414 1.244 . S
O416 Zn408 2.019 . S
O416 C436 1.257 . S
Zn417 N413 2.020 . S
Zn417 O424 1.975 . S
Zn417 N433 2.119 . S
Zn417 O438 2.019 . S
N418 Zn408 2.119 . S
N418 C420 1.334 . S
N418 C421 1.328 . S
C419 C420 1.391 . S
C419 N422 1.329 . S
C419 H440 0.930 . S
C420 N418 1.334 . S
C420 C419 1.391 . S
C420 H427 0.930 . S
C421 N418 1.328 . S
C421 C423 1.392 . S
C421 H428 0.930 . S
N422 C419 1.329 . S
N422 C423 1.331 . S
C423 C421 1.392 . S
C423 N422 1.331 . S
O424 Zn417 1.975 . S
O424 C425 1.252 . S
C425 O424 1.252 . S
C425 O426 1.252 . S
O426 Zn408 1.975 . S
O426 C425 1.252 . S
H427 C420 0.930 . S
H428 C421 0.930 . S
C429 C430 1.392 . S
C429 N433 1.328 . S
C429 H435 0.930 . S
C430 C429 1.392 . S
C430 N434 1.331 . S
C431 C432 1.391 . S
C431 N434 1.329 . S
C431 H441 0.930 . S
C432 C431 1.391 . S
C432 N433 1.334 . S
C432 H439 0.930 . S
N433 Zn417 2.119 . S
N433 C429 1.328 . S
N433 C432 1.334 . S
N434 C430 1.331 . S
N434 C431 1.329 . S
H435 C429 0.930 . S
C436 O416 1.257 . S
C436 O437 1.244 . S
O437 C436 1.244 . S
O438 C414 1.257 . S
O438 Zn417 2.019 . S
H439 C432 0.930 . S
H440 C419 0.930 . S
H441 C431 0.930 . S
Zn442 N446 2.020 . S
Zn442 O450 2.019 . S
Zn442 N452 2.119 . S
Zn442 O460 1.975 . S
C443 N444 1.334 . S
C443 N447 1.336 . S
N444 C443 1.334 . S
N444 C445 1.334 . S
C445 N444 1.334 . S
C445 N446 1.336 . S
N446 Zn442 2.020 . S
N446 C445 1.336 . S
N446 N447 1.354 . S
N447 C443 1.336 . S
N447 N446 1.354 . S
N447 Zn451 2.020 . S
C448 O449 1.244 . S
C448 O472 1.257 . S
O449 C448 1.244 . S
O450 Zn442 2.019 . S
O450 C470 1.257 . S
Zn451 N447 2.020 . S
Zn451 O458 1.975 . S
Zn451 N467 2.119 . S
Zn451 O472 2.019 . S
N452 Zn442 2.119 . S
N452 C454 1.334 . S
N452 C455 1.328 . S
C453 C454 1.391 . S
C453 N456 1.329 . S
C453 H474 0.930 . S
C454 N452 1.334 . S
C454 C453 1.391 . S
C454 H461 0.930 . S
C455 N452 1.328 . S
C455 C457 1.392 . S
C455 H462 0.930 . S
N456 C453 1.329 . S
N456 C457 1.331 . S
C457 C455 1.392 . S
C457 N456 1.331 . S
O458 Zn451 1.975 . S
O458 C459 1.252 . S
C459 O458 1.252 . S
C459 O460 1.252 . S
O460 Zn442 1.975 . S
O460 C459 1.252 . S
H461 C454 0.930 . S
H462 C455 0.930 . S
C463 C464 1.392 . S
C463 N467 1.328 . S
C463 H469 0.930 . S
C464 C463 1.392 . S
C464 N468 1.331 . S
C465 C466 1.391 . S
C465 N468 1.329 . S
C465 H475 0.930 . S
C466 C465 1.391 . S
C466 N467 1.334 . S
C466 H473 0.930 . S
N467 Zn451 2.119 . S
N467 C463 1.328 . S
N467 C466 1.334 . S
N468 C464 1.331 . S
N468 C465 1.329 . S
H469 C463 0.930 . S
C470 O450 1.257 . S
C470 O471 1.244 . S
O471 C470 1.244 . S
O472 C448 1.257 . S
O472 Zn451 2.019 . S
H473 C466 0.930 . S
H474 C453 0.930 . S
H475 C465 0.930 . S
Zn476 N480 2.020 . S
Zn476 O484 2.019 . S
Zn476 N486 2.119 . S
Zn476 O494 1.975 . S
C477 N478 1.334 . S
C477 N481 1.336 . S
N478 C477 1.334 . S
N478 C479 1.334 . S
C479 N478 1.334 . S
C479 N480 1.336 . S
N480 Zn476 2.020 . S
N480 C479 1.336 . S
N480 N481 1.354 . S
N481 C477 1.336 . S
N481 N480 1.354 . S
N481 Zn485 2.020 . S
C482 O483 1.244 . S
C482 O506 1.257 . S
O483 C482 1.244 . S
O484 Zn476 2.019 . S
O484 C504 1.257 . S
Zn485 N481 2.020 . S
Zn485 O492 1.975 . S
Zn485 N501 2.119 . S
Zn485 O506 2.019 . S
N486 Zn476 2.119 . S
N486 C488 1.334 . S
N486 C489 1.328 . S
C487 C488 1.391 . S
C487 N490 1.329 . S
C487 H508 0.930 . S
C488 N486 1.334 . S
C488 C487 1.391 . S
C488 H495 0.930 . S
C489 N486 1.328 . S
C489 C491 1.392 . S
C489 H496 0.930 . S
N490 C487 1.329 . S
N490 C491 1.331 . S
C491 C489 1.392 . S
C491 N490 1.331 . S
O492 Zn485 1.975 . S
O492 C493 1.252 . S
C493 O492 1.252 . S
C493 O494 1.252 . S
O494 Zn476 1.975 . S
O494 C493 1.252 . S
H495 C488 0.930 . S
H496 C489 0.930 . S
C497 C498 1.392 . S
C497 N501 1.328 . S
C497 H503 0.930 . S
C498 C497 1.392 . S
C498 N502 1.331 . S
C499 C500 1.391 . S
C499 N502 1.329 . S
C499 H509 0.930 . S
C500 C499 1.391 . S
C500 N501 1.334 . S
C500 H507 0.930 . S
N501 Zn485 2.119 . S
N501 C497 1.328 . S
N501 C500 1.334 . S
N502 C498 1.331 . S
N502 C499 1.329 . S
H503 C497 0.930 . S
C504 O484 1.257 . S
C504 O505 1.244 . S
O505 C504 1.244 . S
O506 C482 1.257 . S
O506 Zn485 2.019 . S
H507 C500 0.930 . S
H508 C487 0.930 . S
H509 C499 0.930 . S
Zn510 N514 2.020 . S
Zn510 O518 2.019 . S
Zn510 N520 2.119 . S
Zn510 O528 1.975 . S
C511 N512 1.334 . S
C511 N515 1.336 . S
N512 C511 1.334 . S
N512 C513 1.334 . S
C513 N512 1.334 . S
C513 N514 1.336 . S
N514 Zn510 2.020 . S
N514 C513 1.336 . S
N514 N515 1.354 . S
N515 C511 1.336 . S
N515 N514 1.354 . S
N515 Zn519 2.020 . S
C516 O517 1.244 . S
C516 O540 1.257 . S
O517 C516 1.244 . S
O518 Zn510 2.019 . S
O518 C538 1.257 . S
Zn519 N515 2.020 . S
Zn519 O526 1.975 . S
Zn519 N535 2.119 . S
Zn519 O540 2.019 . S
N520 Zn510 2.119 . S
N520 C522 1.334 . S
N520 C523 1.328 . S
C521 C522 1.391 . S
C521 N524 1.329 . S
C521 H542 0.930 . S
C522 N520 1.334 . S
C522 C521 1.391 . S
C522 H529 0.930 . S
C523 N520 1.328 . S
C523 C525 1.392 . S
C523 H530 0.930 . S
N524 C521 1.329 . S
N524 C525 1.331 . S
C525 C523 1.392 . S
C525 N524 1.331 . S
O526 Zn519 1.975 . S
O526 C527 1.252 . S
C527 O526 1.252 . S
C527 O528 1.252 . S
O528 Zn510 1.975 . S
O528 C527 1.252 . S
H529 C522 0.930 . S
H530 C523 0.930 . S
C531 C532 1.392 . S
C531 N535 1.328 . S
C531 H537 0.930 . S
C532 C531 1.392 . S
C532 N536 1.331 . S
C533 C534 1.391 . S
C533 N536 1.329 . S
C533 H543 0.930 . S
C534 C533 1.391 . S
C534 N535 1.334 . S
C534 H541 0.930 . S
N535 Zn519 2.119 . S
N535 C531 1.328 . S
N535 C534 1.334 . S
N536 C532 1.331 . S
N536 C533 1.329 . S
H537 C531 0.930 . S
C538 O518 1.257 . S
C538 O539 1.244 . S
O539 C538 1.244 . S
O540 C516 1.257 . S
O540 Zn519 2.019 . S
H541 C534 0.930 . S
H542 C521 0.930 . S
H543 C533 0.930 . S
H544 C552 0.929 . S
H545 C554 0.930 . S
H546 C556 0.930 1_455 S
H547 C559 0.929 . S
H548 C562 0.930 . S
H549 C564 0.960 . S
H550 C564 0.960 . S
H551 C564 0.960 . S
C552 H544 0.929 . S
C552 C553 1.377 . S
C552 C554 1.384 . S
C553 C552 1.377 . S
C553 C559 1.390 . S
C554 H545 0.930 . S
C554 C552 1.384 . S
C554 C555 1.372 . S
C555 C554 1.372 . S
C555 C556 1.400 . S
C555 C560 1.490 1_655 S
C556 H546 0.930 1_655 S
C556 C555 1.400 . S
C556 C559 1.386 . S
H557 C573 0.930 . S
H558 C574 0.931 . S
C559 H547 0.929 . S
C559 C553 1.390 . S
C559 C556 1.386 . S
C560 C555 1.490 1_455 S
C560 C562 1.395 1_455 S
C560 C563 1.403 . S
H561 C567 0.930 . S
C562 H548 0.930 . S
C562 C560 1.395 1_655 S
C562 C565 1.403 . S
C563 C560 1.403 . S
C563 C564 1.524 . S
C563 C567 1.400 . S
C564 H549 0.960 . S
C564 H550 0.960 . S
C564 H551 0.960 . S
C564 C563 1.524 . S
C565 C562 1.403 . S
C565 C566 1.392 1_655 S
C565 C569 1.495 . S
C566 C565 1.392 1_455 S
C566 C567 1.385 . S
C566 C568 1.478 . S
C567 H561 0.930 . S
C567 C563 1.400 . S
C567 C566 1.385 . S
C568 C566 1.478 . S
C568 C570 1.381 . S
C568 C574 1.383 . S
C569 C565 1.495 . S
C569 H575 0.959 . S
C569 H576 0.961 . S
C569 H577 0.960 . S
C570 C568 1.381 . S
C570 C571 1.394 . S
C570 H578 0.930 . S
C571 C570 1.394 . S
C571 C572 1.383 . S
C571 H579 0.929 . S
C572 C571 1.383 . S
C572 C573 1.377 . S
C573 H557 0.930 . S
C573 C572 1.377 . S
C573 C574 1.379 . S
C574 H558 0.931 . S
C574 C568 1.383 . S
C574 C573 1.379 . S
H575 C569 0.959 . S
H576 C569 0.961 . S
H577 C569 0.960 . S
H578 C570 0.930 . S
H579 C571 0.929 . S
H580 C588 0.929 . S
H581 C590 0.930 1_655 S
H582 C592 0.930 . S
H583 C595 0.929 . S
H584 C598 0.930 . S
H585 C600 0.960 . S
H586 C600 0.960 . S
H587 C600 0.960 . S
C588 H580 0.929 . S
C588 C589 1.377 . S
C588 C590 1.384 . S
C589 C588 1.377 . S
C589 C595 1.390 . S
C590 H581 0.930 1_455 S
C590 C588 1.384 . S
C590 C591 1.372 . S
C591 C590 1.372 . S
C591 C592 1.400 . S
C591 C596 1.490 1_455 S
C592 H582 0.930 . S
C592 C591 1.400 . S
C592 C595 1.386 . S
H593 C609 0.930 . S
H594 C610 0.931 . S
C595 H583 0.929 . S
C595 C589 1.390 . S
C595 C592 1.386 . S
C596 C591 1.490 1_655 S
C596 C598 1.395 . S
C596 C599 1.403 . S
H597 C603 0.930 . S
C598 H584 0.930 . S
C598 C596 1.395 . S
C598 C601 1.403 . S
C599 C596 1.403 . S
C599 C600 1.524 1_655 S
C599 C603 1.400 . S
C600 H585 0.960 . S
C600 H586 0.960 . S
C600 H587 0.960 . S
C600 C599 1.524 1_455 S
C601 C598 1.403 . S
C601 C602 1.392 . S
C601 C605 1.495 . S
C602 C601 1.392 . S
C602 C603 1.385 . S
C602 C604 1.478 . S
C603 H597 0.930 . S
C603 C599 1.400 . S
C603 C602 1.385 . S
C604 C602 1.478 . S
C604 C606 1.381 . S
C604 C610 1.383 . S
C605 C601 1.495 . S
C605 H611 0.959 . S
C605 H612 0.961 . S
C605 H613 0.960 . S
C606 C604 1.381 . S
C606 C607 1.394 . S
C606 H614 0.930 . S
C607 C606 1.394 . S
C607 C608 1.383 . S
C607 H615 0.929 . S
C608 C607 1.383 . S
C608 C609 1.377 . S
C609 H593 0.930 . S
C609 C608 1.377 . S
C609 C610 1.379 . S
C610 H594 0.931 . S
C610 C604 1.383 . S
C610 C609 1.379 . S
H611 C605 0.959 . S
H612 C605 0.961 . S
H613 C605 0.960 . S
H614 C606 0.930 . S
H615 C607 0.929 . S
H616 C624 0.929 . S
H617 C626 0.930 . S
H618 C628 0.930 . S
H619 C631 0.929 . S
H620 C634 0.930 . S
H621 C636 0.960 . S
H622 C636 0.960 . S
H623 C636 0.960 . S
C624 H616 0.929 . S
C624 C625 1.377 . S
C624 C626 1.384 . S
C625 C624 1.377 . S
C625 C631 1.390 . S
C626 H617 0.930 . S
C626 C624 1.384 . S
C626 C627 1.372 . S
C627 C626 1.372 . S
C627 C628 1.400 . S
C627 C632 1.490 . S
C628 H618 0.930 . S
C628 C627 1.400 . S
C628 C631 1.386 . S
H629 C645 0.930 . S
H630 C646 0.931 . S
C631 H619 0.929 . S
C631 C625 1.390 . S
C631 C628 1.386 . S
C632 C627 1.490 . S
C632 C634 1.395 . S
C632 C635 1.403 . S
H633 C639 0.930 . S
C634 H620 0.930 . S
C634 C632 1.395 . S
C634 C637 1.403 . S
C635 C632 1.403 . S
C635 C636 1.524 . S
C635 C639 1.400 . S
C636 H621 0.960 . S
C636 H622 0.960 . S
C636 H623 0.960 . S
C636 C635 1.524 . S
C637 C634 1.403 . S
C637 C638 1.392 . S
C637 C641 1.495 . S
C638 C637 1.392 . S
C638 C639 1.385 . S
C638 C640 1.478 . S
C639 H633 0.930 . S
C639 C635 1.400 . S
C639 C638 1.385 . S
C640 C638 1.478 . S
C640 C642 1.381 . S
C640 C646 1.383 . S
C641 C637 1.495 . S
C641 H647 0.959 . S
C641 H648 0.961 . S
C641 H649 0.960 . S
C642 C640 1.381 . S
C642 C643 1.394 . S
C642 H650 0.930 . S
C643 C642 1.394 . S
C643 C644 1.383 . S
C643 H651 0.929 . S
C644 C643 1.383 . S
C644 C645 1.377 . S
C645 H629 0.930 . S
C645 C644 1.377 . S
C645 C646 1.379 . S
C646 H630 0.931 . S
C646 C640 1.383 . S
C646 C645 1.379 . S
H647 C641 0.959 . S
H648 C641 0.961 . S
H649 C641 0.960 . S
H650 C642 0.930 . S
H651 C643 0.929 . S
H652 C660 0.929 . S
H653 C662 0.930 . S
H654 C664 0.930 . S
H655 C667 0.929 . S
H656 C670 0.930 . S
H657 C672 0.960 . S
H658 C672 0.960 . S
H659 C672 0.960 . S
C660 H652 0.929 . S
C660 C661 1.377 . S
C660 C662 1.384 . S
C661 C660 1.377 . S
C661 C667 1.390 . S
C662 H653 0.930 . S
C662 C660 1.384 . S
C662 C663 1.372 . S
C663 C662 1.372 . S
C663 C664 1.400 . S
C663 C668 1.490 . S
C664 H654 0.930 . S
C664 C663 1.400 . S
C664 C667 1.386 . S
H665 C681 0.930 . S
H666 C682 0.931 . S
C667 H655 0.929 . S
C667 C661 1.390 . S
C667 C664 1.386 . S
C668 C663 1.490 . S
C668 C670 1.395 . S
C668 C671 1.403 . S
H669 C675 0.930 . S
C670 H656 0.930 . S
C670 C668 1.395 . S
C670 C673 1.403 . S
C671 C668 1.403 . S
C671 C672 1.524 . S
C671 C675 1.400 . S
C672 H657 0.960 . S
C672 H658 0.960 . S
C672 H659 0.960 . S
C672 C671 1.524 . S
C673 C670 1.403 . S
C673 C674 1.392 . S
C673 C677 1.495 . S
C674 C673 1.392 . S
C674 C675 1.385 . S
C674 C676 1.478 . S
C675 H669 0.930 . S
C675 C671 1.400 . S
C675 C674 1.385 . S
C676 C674 1.478 . S
C676 C678 1.381 . S
C676 C682 1.383 . S
C677 C673 1.495 . S
C677 H683 0.959 . S
C677 H684 0.961 . S
C677 H685 0.960 . S
C678 C676 1.381 . S
C678 C679 1.394 . S
C678 H686 0.930 . S
C679 C678 1.394 . S
C679 C680 1.383 . S
C679 H687 0.929 . S
C680 C679 1.383 . S
C680 C681 1.377 . S
C681 H665 0.930 . S
C681 C680 1.377 . S
C681 C682 1.379 . S
C682 H666 0.931 . S
C682 C676 1.383 . S
C682 C681 1.379 . S
H683 C677 0.959 . S
H684 C677 0.961 . S
H685 C677 0.960 . S
H686 C678 0.930 . S
H687 C679 0.929 . S
H688 C696 0.929 . S
H689 C698 0.930 . S
H690 C700 0.930 . S
H691 C703 0.929 . S
H692 C706 0.930 . S
H693 C708 0.960 . S
H694 C708 0.960 . S
H695 C708 0.960 . S
C696 H688 0.929 . S
C696 C697 1.377 . S
C696 C698 1.384 . S
C697 C696 1.377 . S
C697 C703 1.390 . S
C698 H689 0.930 . S
C698 C696 1.384 . S
C698 C699 1.372 . S
C699 C698 1.372 . S
C699 C700 1.400 . S
C699 C704 1.490 . S
C700 H690 0.930 . S
C700 C699 1.400 . S
C700 C703 1.386 . S
H701 C717 0.930 . S
H702 C718 0.931 . S
C703 H691 0.929 . S
C703 C697 1.390 . S
C703 C700 1.386 . S
C704 C699 1.490 . S
C704 C706 1.395 . S
C704 C707 1.403 . S
H705 C711 0.930 . S
C706 H692 0.930 . S
C706 C704 1.395 . S
C706 C709 1.403 1_655 S
C707 C704 1.403 . S
C707 C708 1.524 . S
C707 C711 1.400 . S
C708 H693 0.960 . S
C708 H694 0.960 . S
C708 H695 0.960 . S
C708 C707 1.524 . S
C709 C706 1.403 1_455 S
C709 C710 1.391 1_455 S
C709 C713 1.495 . S
C710 C709 1.391 1_655 S
C710 C711 1.401 . S
C710 C712 1.464 1_655 S
C711 H705 0.930 . S
C711 C707 1.400 . S
C711 C710 1.401 . S
C712 C710 1.464 1_455 S
C712 C714 1.381 . S
C712 C718 1.383 . S
C713 C709 1.495 . S
C713 H719 0.959 . S
C713 H720 0.961 . S
C713 H721 0.960 . S
C714 C712 1.381 . S
C714 C715 1.394 . S
C714 H722 0.930 1_455 S
C715 C714 1.394 . S
C715 C716 1.383 . S
C715 H723 0.929 . S
C716 C715 1.383 . S
C716 C717 1.377 . S
C717 H701 0.930 . S
C717 C716 1.377 . S
C717 C718 1.379 . S
C718 H702 0.931 . S
C718 C712 1.383 . S
C718 C717 1.379 . S
H719 C713 0.959 . S
H720 C713 0.961 . S
H721 C713 0.960 . S
H722 C714 0.930 1_655 S
H723 C715 0.929 . S
H724 C732 0.929 . S
H725 C734 0.930 . S
H726 C736 0.930 . S
H727 C739 0.929 . S
H728 C742 0.930 . S
H729 C744 0.960 . S
H730 C744 0.960 . S
H731 C744 0.960 . S
C732 H724 0.929 . S
C732 C733 1.377 . S
C732 C734 1.384 . S
C733 C732 1.377 . S
C733 C739 1.390 . S
C734 H725 0.930 . S
C734 C732 1.384 . S
C734 C735 1.372 . S
C735 C734 1.372 . S
C735 C736 1.400 . S
C735 C740 1.490 . S
C736 H726 0.930 . S
C736 C735 1.400 . S
C736 C739 1.386 . S
H737 C753 0.930 . S
H738 C754 0.931 . S
C739 H727 0.929 . S
C739 C733 1.390 . S
C739 C736 1.386 . S
C740 C735 1.490 . S
C740 C742 1.395 . S
C740 C743 1.403 . S
H741 C747 0.897 1_655 S
C742 H728 0.930 . S
C742 C740 1.395 . S
C742 C745 1.403 . S
C743 C740 1.403 . S
C743 C744 1.524 . S
C743 C747 1.400 . S
C744 H729 0.960 . S
C744 H730 0.960 . S
C744 H731 0.960 . S
C744 C743 1.524 . S
C745 C742 1.403 . S
C745 C746 1.392 . S
C745 C749 1.495 . S
C746 C745 1.392 . S
C746 C747 1.385 . S
C746 C748 1.478 1_455 S
C747 H741 0.897 1_455 S
C747 C743 1.400 . S
C747 C746 1.385 . S
C748 C746 1.478 1_655 S
C748 C750 1.381 . S
C748 C754 1.383 . S
C749 C745 1.495 . S
C749 H755 0.959 . S
C749 H756 0.961 . S
C749 H757 0.960 . S
C750 C748 1.381 . S
C750 C751 1.394 . S
C750 H758 0.930 1_655 S
C751 C750 1.394 . S
C751 C752 1.383 . S
C751 H759 0.929 . S
C752 C751 1.383 . S
C752 C753 1.377 . S
C753 H737 0.930 . S
C753 C752 1.377 . S
C753 C754 1.379 . S
C754 H738 0.931 . S
C754 C748 1.383 . S
C754 C753 1.379 . S
H755 C749 0.959 . S
H756 C749 0.961 . S
H757 C749 0.960 . S
H758 C750 0.930 1_455 S
H759 C751 0.929 . S
H760 C768 0.929 . S
H761 C770 0.930 . S
H762 C772 0.930 . S
H763 C775 0.929 . S
H764 C778 0.930 . S
H765 C780 0.960 . S
H766 C780 0.960 . S
H767 C780 0.960 . S
C768 H760 0.929 . S
C768 C769 1.377 . S
C768 C770 1.384 . S
C769 C768 1.377 . S
C769 C775 1.390 . S
C770 H761 0.930 . S
C770 C768 1.384 . S
C770 C771 1.372 . S
C771 C770 1.372 . S
C771 C772 1.400 . S
C771 C776 1.490 . S
C772 H762 0.930 . S
C772 C771 1.400 . S
C772 C775 1.386 . S
H773 C789 0.930 . S
H774 C790 0.931 . S
C775 H763 0.929 . S
C775 C769 1.390 . S
C775 C772 1.386 . S
C776 C771 1.490 . S
C776 C778 1.395 . S
C776 C779 1.403 . S
H777 C783 0.930 . S
C778 H764 0.930 . S
C778 C776 1.395 . S
C778 C781 1.403 . S
C779 C776 1.403 . S
C779 C780 1.524 . S
C779 C783 1.400 . S
C780 H765 0.960 . S
C780 H766 0.960 . S
C780 H767 0.960 . S
C780 C779 1.524 . S
C781 C778 1.403 . S
C781 C782 1.392 . S
C781 C785 1.495 . S
C782 C781 1.392 . S
C782 C783 1.385 . S
C782 C784 1.478 . S
C783 H777 0.930 . S
C783 C779 1.400 . S
C783 C782 1.385 . S
C784 C782 1.478 . S
C784 C786 1.381 . S
C784 C790 1.383 . S
C785 C781 1.495 . S
C785 H791 0.959 . S
C785 H792 0.961 . S
C785 H793 0.960 . S
C786 C784 1.381 . S
C786 C787 1.394 . S
C786 H794 0.930 . S
C787 C786 1.394 . S
C787 C788 1.383 . S
C787 H795 0.929 . S
C788 C787 1.383 . S
C788 C789 1.377 . S
C789 H773 0.930 . S
C789 C788 1.377 . S
C789 C790 1.379 . S
C790 H774 0.931 . S
C790 C784 1.383 . S
C790 C789 1.379 . S
H791 C785 0.959 . S
H792 C785 0.961 . S
H793 C785 0.960 . S
H794 C786 0.930 . S
H795 C787 0.929 . S
H796 C804 0.929 . S
H797 C806 0.930 . S
H798 C808 0.930 . S
H799 C811 0.929 . S
H800 C814 0.930 . S
H801 C816 0.960 . S
H802 C816 0.960 . S
H803 C816 0.960 . S
C804 H796 0.929 . S
C804 C805 1.377 . S
C804 C806 1.384 . S
C805 C804 1.377 . S
C805 C811 1.390 . S
C806 H797 0.930 . S
C806 C804 1.384 . S
C806 C807 1.372 . S
C807 C806 1.372 . S
C807 C808 1.400 . S
C807 C812 1.490 . S
C808 H798 0.930 . S
C808 C807 1.400 . S
C808 C811 1.386 . S
H809 C825 0.930 . S
H810 C826 0.931 . S
C811 H799 0.929 . S
C811 C805 1.390 . S
C811 C808 1.386 . S
C812 C807 1.490 . S
C812 C814 1.395 . S
C812 C815 1.403 . S
H813 C819 0.930 . S
C814 H800 0.930 . S
C814 C812 1.395 . S
C814 C817 1.403 . S
C815 C812 1.403 . S
C815 C816 1.524 . S
C815 C819 1.400 . S
C816 H801 0.960 . S
C816 H802 0.960 . S
C816 H803 0.960 . S
C816 C815 1.524 . S
C817 C814 1.403 . S
C817 C818 1.392 . S
C817 C821 1.495 . S
C818 C817 1.392 . S
C818 C819 1.385 . S
C818 C820 1.478 . S
C819 H813 0.930 . S
C819 C815 1.400 . S
C819 C818 1.385 . S
C820 C818 1.478 . S
C820 C822 1.381 . S
C820 C826 1.383 . S
C821 C817 1.495 . S
C821 H827 0.959 . S
C821 H828 0.961 . S
C821 H829 0.960 . S
C822 C820 1.381 . S
C822 C823 1.394 . S
C822 H830 0.930 . S
C823 C822 1.394 . S
C823 C824 1.383 . S
C823 H831 0.929 . S
C824 C823 1.383 . S
C824 C825 1.377 . S
C825 H809 0.930 . S
C825 C824 1.377 . S
C825 C826 1.379 . S
C826 H810 0.931 . S
C826 C820 1.383 . S
C826 C825 1.379 . S
H827 C821 0.959 . S
H828 C821 0.961 . S
H829 C821 0.960 . S
H830 C822 0.930 . S
H831 C823 0.929 . S
H832 C840 0.929 . S
H833 C842 0.930 . S
H834 C844 0.930 . S
H835 C847 0.929 . S
H836 C850 0.930 . S
H837 C852 0.960 . S
H838 C852 0.960 1_556 S
H839 C852 0.960 . S
C840 H832 0.929 . S
C840 C841 1.377 . S
C840 C842 1.384 . S
C841 C840 1.377 . S
C841 C847 1.390 . S
C842 H833 0.930 . S
C842 C840 1.384 . S
C842 C843 1.372 . S
C843 C842 1.372 . S
C843 C844 1.400 . S
C843 C848 1.490 . S
C844 H834 0.930 . S
C844 C843 1.400 . S
C844 C847 1.386 . S
H845 C861 0.930 . S
H846 C862 0.931 . S
C847 H835 0.929 . S
C847 C841 1.390 . S
C847 C844 1.386 . S
C848 C843 1.490 . S
C848 C850 1.395 . S
C848 C851 1.403 . S
H849 C855 0.930 . S
C850 H836 0.930 . S
C850 C848 1.395 . S
C850 C853 1.403 . S
C851 C848 1.403 . S
C851 C852 1.524 1_556 S
C851 C855 1.400 1_556 S
C852 H837 0.960 . S
C852 H838 0.960 1_554 S
C852 H839 0.960 . S
C852 C851 1.524 1_554 S
C853 C850 1.403 . S
C853 C854 1.392 1_556 S
C853 C857 1.495 . S
C854 C853 1.392 1_554 S
C854 C855 1.385 . S
C854 C856 1.478 . S
C855 H849 0.930 . S
C855 C851 1.400 1_554 S
C855 C854 1.385 . S
C856 C854 1.478 . S
C856 C858 1.381 . S
C856 C862 1.383 . S
C857 C853 1.495 . S
C857 H863 0.959 . S
C857 H864 0.961 . S
C857 H865 0.960 . S
C858 C856 1.381 . S
C858 C859 1.394 . S
C858 H866 0.930 . S
C859 C858 1.394 . S
C859 C860 1.383 . S
C859 H867 0.929 . S
C860 C859 1.383 . S
C860 C861 1.377 . S
C861 H845 0.930 . S
C861 C860 1.377 . S
C861 C862 1.379 . S
C862 H846 0.931 . S
C862 C856 1.383 . S
C862 C861 1.379 . S
H863 C857 0.959 . S
H864 C857 0.961 . S
H865 C857 0.960 . S
H866 C858 0.930 . S
H867 C859 0.929 . S
H868 C876 0.929 . S
H869 C878 0.930 . S
H870 C880 0.930 . S
H871 C883 0.929 . S
H872 C886 0.930 . S
H873 C888 0.960 . S
H874 C888 0.960 . S
H875 C888 0.960 . S
C876 H868 0.929 . S
C876 C877 1.377 . S
C876 C878 1.384 . S
C877 C876 1.377 . S
C877 C883 1.390 . S
C878 H869 0.930 . S
C878 C876 1.384 . S
C878 C879 1.372 . S
C879 C878 1.372 . S
C879 C880 1.400 . S
C879 C884 1.490 . S
C880 H870 0.930 . S
C880 C879 1.400 . S
C880 C883 1.386 . S
H881 C897 0.930 . S
H882 C898 0.931 . S
C883 H871 0.929 . S
C883 C877 1.390 . S
C883 C880 1.386 . S
C884 C879 1.490 . S
C884 C886 1.395 . S
C884 C887 1.403 . S
H885 C891 0.978 . S
C886 H872 0.930 . S
C886 C884 1.395 . S
C886 C889 1.403 . S
C887 C884 1.403 . S
C887 C888 1.524 . S
C887 C891 1.346 1_565 S
C888 H873 0.960 . S
C888 H874 0.960 . S
C888 H875 0.960 . S
C888 C887 1.524 . S
C889 C886 1.403 . S
C889 C890 1.392 1_565 S
C889 C893 1.495 . S
C890 C889 1.392 1_545 S
C890 C891 1.395 . S
C890 C892 1.478 . S
C891 H885 0.978 . S
C891 C887 1.346 1_545 S
C891 C890 1.395 . S
C892 C890 1.478 . S
C892 C894 1.381 . S
C892 C898 1.383 . S
C893 C889 1.495 . S
C893 H899 0.959 . S
C893 H900 0.961 . S
C893 H901 0.960 . S
C894 C892 1.381 . S
C894 C895 1.394 . S
C894 H902 0.930 . S
C895 C894 1.394 . S
C895 C896 1.383 . S
C895 H903 0.929 . S
C896 C895 1.383 . S
C896 C897 1.377 . S
C897 H881 0.930 . S
C897 C896 1.377 . S
C897 C898 1.379 . S
C898 H882 0.931 . S
C898 C892 1.383 . S
C898 C897 1.379 . S
H899 C893 0.959 . S
H900 C893 0.961 . S
H901 C893 0.960 . S
H902 C894 0.930 . S
H903 C895 0.929 . S
H904 C912 0.929 . S
H905 C914 0.930 . S
H906 C916 0.930 . S
H907 C919 0.929 . S
H908 C922 0.930 . S
H909 C924 0.960 . S
H910 C924 0.960 . S
H911 C924 0.960 . S
C912 H904 0.929 . S
C912 C913 1.377 . S
C912 C914 1.384 . S
C913 C912 1.377 . S
C913 C919 1.390 . S
C914 H905 0.930 . S
C914 C912 1.384 . S
C914 C915 1.372 . S
C915 C914 1.372 . S
C915 C916 1.400 . S
C915 C920 1.490 . S
C916 H906 0.930 . S
C916 C915 1.400 . S
C916 C919 1.386 . S
H917 C933 0.930 . S
H918 C934 0.931 . S
C919 H907 0.929 . S
C919 C913 1.390 . S
C919 C916 1.386 . S
C920 C915 1.490 . S
C920 C922 1.395 . S
C920 C923 1.403 . S
H921 C927 0.930 . S
C922 H908 0.930 . S
C922 C920 1.395 . S
C922 C925 1.403 . S
C923 C920 1.403 . S
C923 C924 1.524 . S
C923 C927 1.400 . S
C924 H909 0.960 . S
C924 H910 0.960 . S
C924 H911 0.960 . S
C924 C923 1.524 . S
C925 C922 1.403 . S
C925 C926 1.392 . S
C925 C929 1.495 . S
C926 C925 1.392 . S
C926 C927 1.385 . S
C926 C928 1.478 . S
C927 H921 0.930 . S
C927 C923 1.400 . S
C927 C926 1.385 . S
C928 C926 1.478 . S
C928 C930 1.381 . S
C928 C934 1.383 . S
C929 C925 1.495 . S
C929 H935 0.959 . S
C929 H936 0.961 . S
C929 H937 0.960 . S
C930 C928 1.381 . S
C930 C931 1.394 . S
C930 H938 0.930 . S
C931 C930 1.394 . S
C931 C932 1.383 . S
C931 H939 0.929 . S
C932 C931 1.383 . S
C932 C933 1.377 . S
C933 H917 0.930 . S
C933 C932 1.377 . S
C933 C934 1.379 . S
C934 H918 0.931 . S
C934 C928 1.383 . S
C934 C933 1.379 . S
H935 C929 0.959 . S
H936 C929 0.961 . S
H937 C929 0.960 . S
H938 C930 0.930 . S
H939 C931 0.929 . S
H940 C948 0.929 . S
H941 C950 0.930 . S
H942 C952 0.930 . S
H943 C955 0.929 . S
H944 C958 0.930 1_565 S
H945 C960 0.960 . S
H946 C960 0.945 1_565 S
H947 C960 0.960 1_565 S
C948 H940 0.929 . S
C948 C949 1.377 . S
C948 C950 1.384 . S
C949 C948 1.377 . S
C949 C955 1.390 . S
C950 H941 0.930 . S
C950 C948 1.384 . S
C950 C951 1.372 . S
C951 C950 1.372 . S
C951 C952 1.400 . S
C951 C956 1.490 . S
C952 H942 0.930 . S
C952 C951 1.400 . S
C952 C955 1.386 . S
H953 C969 0.930 . S
H954 C970 0.931 . S
C955 H943 0.929 . S
C955 C949 1.390 . S
C955 C952 1.386 . S
C956 C951 1.490 . S
C956 C958 1.395 1_565 S
C956 C959 1.403 1_565 S
H957 C963 0.930 . S
C958 H944 0.930 1_545 S
C958 C956 1.395 1_545 S
C958 C961 1.403 . S
C959 C956 1.403 1_545 S
C959 C960 1.524 . S
C959 C963 1.400 . S
C960 H945 0.960 . S
C960 H946 0.945 1_545 S
C960 H947 0.960 1_545 S
C960 C959 1.524 . S
C961 C958 1.403 . S
C961 C962 1.392 . S
C961 C965 1.495 . S
C962 C961 1.392 . S
C962 C963 1.385 . S
C962 C964 1.478 . S
C963 H957 0.930 . S
C963 C959 1.400 . S
C963 C962 1.385 . S
C964 C962 1.478 . S
C964 C966 1.381 . S
C964 C970 1.383 . S
C965 C961 1.495 . S
C965 H971 0.959 . S
C965 H972 0.961 . S
C965 H973 0.960 . S
C966 C964 1.381 . S
C966 C967 1.394 . S
C966 H974 0.930 . S
C967 C966 1.394 . S
C967 C968 1.383 . S
C967 H975 0.929 . S
C968 C967 1.383 . S
C968 C969 1.377 . S
C969 H953 0.930 . S
C969 C968 1.377 . S
C969 C970 1.379 . S
C970 H954 0.931 . S
C970 C964 1.383 . S
C970 C969 1.379 . S
H971 C965 0.959 . S
H972 C965 0.961 . S
H973 C965 0.960 . S
H974 C966 0.930 . S
H975 C967 0.929 . S
H976 C984 0.929 . S
H977 C986 0.930 . S
H978 C988 0.930 . S
H979 C991 0.929 . S
H980 C994 0.930 . S
H981 C996 0.960 . S
H982 C996 0.960 . S
H983 C996 0.960 . S
C984 H976 0.929 . S
C984 C985 1.377 . S
C984 C986 1.384 . S
C985 C984 1.377 . S
C985 C991 1.390 . S
C986 H977 0.930 . S
C986 C984 1.384 . S
C986 C987 1.372 . S
C987 C986 1.372 . S
C987 C988 1.400 . S
C987 C992 1.490 . S
C988 H978 0.930 . S
C988 C987 1.400 . S
C988 C991 1.386 . S
H989 C1005 0.930 . S
H990 C1006 0.931 . S
C991 H979 0.929 . S
C991 C985 1.390 . S
C991 C988 1.386 . S
C992 C987 1.490 . S
C992 C994 1.395 1_556 S
C992 C995 1.403 . S
H993 C999 0.929 1_556 S
C994 H980 0.930 . S
C994 C992 1.395 1_554 S
C994 C997 1.403 . S
C995 C992 1.403 . S
C995 C996 1.524 . S
C995 C999 1.389 1_556 S
C996 H981 0.960 . S
C996 H982 0.960 . S
C996 H983 0.960 . S
C996 C995 1.524 . S
C997 C994 1.403 . S
C997 C998 1.392 . S
C997 C1001 1.495 . S
C998 C997 1.392 . S
C998 C999 1.398 . S
C998 C1000 1.478 . S
C999 H993 0.929 1_554 S
C999 C995 1.389 1_554 S
C999 C998 1.398 . S
C1000 C998 1.478 . S
C1000 C1002 1.381 . S
C1000 C1006 1.383 . S
C1001 C997 1.495 . S
C1001 H1007 0.959 . S
C1001 H1008 0.961 . S
C1001 H1009 0.960 . S
C1002 C1000 1.381 . S
C1002 C1003 1.394 . S
C1002 H1010 0.930 . S
C1003 C1002 1.394 . S
C1003 C1004 1.383 . S
C1003 H1011 0.929 . S
C1004 C1003 1.383 . S
C1004 C1005 1.377 . S
C1005 H989 0.930 . S
C1005 C1004 1.377 . S
C1005 C1006 1.379 . S
C1006 H990 0.931 . S
C1006 C1000 1.383 . S
C1006 C1005 1.379 . S
H1007 C1001 0.959 . S
H1008 C1001 0.961 . S
H1009 C1001 0.960 . S
H1010 C1002 0.930 . S
H1011 C1003 0.929 . S
H1012 C1020 0.929 . S
H1013 C1022 0.930 . S
H1014 C1024 0.930 . S
H1015 C1027 0.929 . S
H1016 C1030 0.933 . S
H1017 C1032 0.960 . S
H1018 C1032 0.960 . S
H1019 C1032 0.960 1_565 S
C1020 H1012 0.929 . S
C1020 C1021 1.377 . S
C1020 C1022 1.384 . S
C1021 C1020 1.377 . S
C1021 C1027 1.390 . S
C1022 H1013 0.930 . S
C1022 C1020 1.384 . S
C1022 C1023 1.372 . S
C1023 C1022 1.372 . S
C1023 C1024 1.400 . S
C1023 C1028 1.490 . S
C1024 H1014 0.930 . S
C1024 C1023 1.400 . S
C1024 C1027 1.386 . S
H1025 C1041 0.930 . S
H1026 C1042 0.931 . S
C1027 H1015 0.929 . S
C1027 C1021 1.390 . S
C1027 C1024 1.386 . S
C1028 C1023 1.490 . S
C1028 C1030 1.395 . S
C1028 C1031 1.403 1_565 S
H1029 C1035 0.930 . S
C1030 H1016 0.933 . S
C1030 C1028 1.395 . S
C1030 C1033 1.399 1_565 S
C1031 C1028 1.403 1_545 S
C1031 C1032 1.524 . S
C1031 C1035 1.400 . S
C1032 H1017 0.960 . S
C1032 H1018 0.960 . S
C1032 H1019 0.960 1_545 S
C1032 C1031 1.524 . S
C1033 C1030 1.399 1_545 S
C1033 C1034 1.392 . S
C1033 C1037 1.495 . S
C1034 C1033 1.392 . S
C1034 C1035 1.385 . S
C1034 C1036 1.478 . S
C1035 H1029 0.930 . S
C1035 C1031 1.400 . S
C1035 C1034 1.385 . S
C1036 C1034 1.478 . S
C1036 C1038 1.381 . S
C1036 C1042 1.383 . S
C1037 C1033 1.495 . S
C1037 H1043 0.959 . S
C1037 H1044 0.961 . S
C1037 H1045 0.960 . S
C1038 C1036 1.381 . S
C1038 C1039 1.394 . S
C1038 H1046 0.930 . S
C1039 C1038 1.394 . S
C1039 C1040 1.383 . S
C1039 H1047 0.929 . S
C1040 C1039 1.383 . S
C1040 C1041 1.377 . S
C1041 H1025 0.930 . S
C1041 C1040 1.377 . S
C1041 C1042 1.379 . S
C1042 H1026 0.931 . S
C1042 C1036 1.383 . S
C1042 C1041 1.379 . S
H1043 C1037 0.959 . S
H1044 C1037 0.961 . S
H1045 C1037 0.960 . S
H1046 C1038 0.930 . S
H1047 C1039 0.929 . S
H1048 C1056 0.929 . S
H1049 C1058 0.930 . S
H1050 C1060 0.930 . S
H1051 C1063 0.929 . S
H1052 C1066 0.930 . S
H1053 C1068 0.960 . S
H1054 C1068 0.960 . S
H1055 C1068 0.960 . S
C1056 H1048 0.929 . S
C1056 C1057 1.377 . S
C1056 C1058 1.384 . S
C1057 C1056 1.377 . S
C1057 C1063 1.390 . S
C1058 H1049 0.930 . S
C1058 C1056 1.384 . S
C1058 C1059 1.372 . S
C1059 C1058 1.372 . S
C1059 C1060 1.400 . S
C1059 C1064 1.490 . S
C1060 H1050 0.930 . S
C1060 C1059 1.400 . S
C1060 C1063 1.386 . S
H1061 C1077 0.930 . S
H1062 C1078 0.931 . S
C1063 H1051 0.929 . S
C1063 C1057 1.390 . S
C1063 C1060 1.386 . S
C1064 C1059 1.490 . S
C1064 C1066 1.395 . S
C1064 C1067 1.403 . S
H1065 C1071 0.930 . S
C1066 H1052 0.930 . S
C1066 C1064 1.395 . S
C1066 C1069 1.403 . S
C1067 C1064 1.403 . S
C1067 C1068 1.524 . S
C1067 C1071 1.400 . S
C1068 H1053 0.960 . S
C1068 H1054 0.960 . S
C1068 H1055 0.960 . S
C1068 C1067 1.524 . S
C1069 C1066 1.403 . S
C1069 C1070 1.392 . S
C1069 C1073 1.495 . S
C1070 C1069 1.392 . S
C1070 C1071 1.385 . S
C1070 C1072 1.478 . S
C1071 H1065 0.930 . S
C1071 C1067 1.400 . S
C1071 C1070 1.385 . S
C1072 C1070 1.478 . S
C1072 C1074 1.381 . S
C1072 C1078 1.383 . S
C1073 C1069 1.495 . S
C1073 H1079 0.959 . S
C1073 H1080 0.961 . S
C1073 H1081 0.960 . S
C1074 C1072 1.381 . S
C1074 C1075 1.394 . S
C1074 H1082 0.930 . S
C1075 C1074 1.394 . S
C1075 C1076 1.383 . S
C1075 H1083 0.929 . S
C1076 C1075 1.383 . S
C1076 C1077 1.377 . S
C1077 H1061 0.930 . S
C1077 C1076 1.377 . S
C1077 C1078 1.379 . S
C1078 H1062 0.931 . S
C1078 C1072 1.383 . S
C1078 C1077 1.379 . S
H1079 C1073 0.959 . S
H1080 C1073 0.961 . S
H1081 C1073 0.960 . S
H1082 C1074 0.930 . S
H1083 C1075 0.929 . S
H1084 C1092 0.929 . S
H1085 C1094 0.930 . S
H1086 C1096 0.930 . S
H1087 C1099 0.929 . S
H1088 C1102 0.930 . S
H1089 C1104 0.960 . S
H1090 C1104 0.960 . S
H1091 C1104 0.960 . S
C1092 H1084 0.929 . S
C1092 C1093 1.377 . S
C1092 C1094 1.384 . S
C1093 C1092 1.377 . S
C1093 C1099 1.390 . S
C1094 H1085 0.930 . S
C1094 C1092 1.384 . S
C1094 C1095 1.372 . S
C1095 C1094 1.372 . S
C1095 C1096 1.400 . S
C1095 C1100 1.490 . S
C1096 H1086 0.930 . S
C1096 C1095 1.400 . S
C1096 C1099 1.386 . S
H1097 C1113 0.930 . S
H1098 C1114 0.931 . S
C1099 H1087 0.929 . S
C1099 C1093 1.390 . S
C1099 C1096 1.386 . S
C1100 C1095 1.490 . S
C1100 C1102 1.395 . S
C1100 C1103 1.403 . S
H1101 C1107 0.930 . S
C1102 H1088 0.930 . S
C1102 C1100 1.395 . S
C1102 C1105 1.403 . S
C1103 C1100 1.403 . S
C1103 C1104 1.524 . S
C1103 C1107 1.400 . S
C1104 H1089 0.960 . S
C1104 H1090 0.960 . S
C1104 H1091 0.960 . S
C1104 C1103 1.524 . S
C1105 C1102 1.403 . S
C1105 C1106 1.392 1_565 S
C1105 C1109 1.495 1_565 S
C1106 C1105 1.392 1_545 S
C1106 C1107 1.385 1_545 S
C1106 C1108 1.478 . S
C1107 H1101 0.930 . S
C1107 C1103 1.400 . S
C1107 C1106 1.385 1_565 S
C1108 C1106 1.478 . S
C1108 C1110 1.381 . S
C1108 C1114 1.383 . S
C1109 C1105 1.495 1_545 S
C1109 H1115 0.959 . S
C1109 H1116 0.961 . S
C1109 H1117 0.960 . S
C1110 C1108 1.381 . S
C1110 C1111 1.394 . S
C1110 H1118 0.930 . S
C1111 C1110 1.394 . S
C1111 C1112 1.383 . S
C1111 H1119 0.929 . S
C1112 C1111 1.383 . S
C1112 C1113 1.377 . S
C1113 H1097 0.930 . S
C1113 C1112 1.377 . S
C1113 C1114 1.379 . S
C1114 H1098 0.931 . S
C1114 C1108 1.383 . S
C1114 C1113 1.379 . S
H1115 C1109 0.959 . S
H1116 C1109 0.961 . S
H1117 C1109 0.960 . S
H1118 C1110 0.930 . S
H1119 C1111 0.929 . S
H1120 C1128 0.929 . S
H1121 C1130 0.930 . S
H1122 C1132 0.930 . S
H1123 C1135 0.929 . S
H1124 C1138 0.930 . S
H1125 C1140 0.960 . S
H1126 C1140 0.960 . S
H1127 C1140 0.960 . S
C1128 H1120 0.929 . S
C1128 C1129 1.377 . S
C1128 C1130 1.384 . S
C1129 C1128 1.377 . S
C1129 C1135 1.390 . S
C1130 H1121 0.930 . S
C1130 C1128 1.384 . S
C1130 C1131 1.372 . S
C1131 C1130 1.372 . S
C1131 C1132 1.400 . S
C1131 C1136 1.490 . S
C1132 H1122 0.930 . S
C1132 C1131 1.400 . S
C1132 C1135 1.386 . S
H1133 C1149 0.930 . S
H1134 C1150 0.931 . S
C1135 H1123 0.929 . S
C1135 C1129 1.390 . S
C1135 C1132 1.386 . S
C1136 C1131 1.490 . S
C1136 C1138 1.395 . S
C1136 C1139 1.403 . S
H1137 C1143 0.930 . S
C1138 H1124 0.930 . S
C1138 C1136 1.395 . S
C1138 C1141 1.403 . S
C1139 C1136 1.403 . S
C1139 C1140 1.524 . S
C1139 C1143 1.400 . S
C1140 H1125 0.960 . S
C1140 H1126 0.960 . S
C1140 H1127 0.960 . S
C1140 C1139 1.524 . S
C1141 C1138 1.403 . S
C1141 C1142 1.392 . S
C1141 C1145 1.495 . S
C1142 C1141 1.392 . S
C1142 C1143 1.385 . S
C1142 C1144 1.478 . S
C1143 H1137 0.930 . S
C1143 C1139 1.400 . S
C1143 C1142 1.385 . S
C1144 C1142 1.478 . S
C1144 C1146 1.381 . S
C1144 C1150 1.383 . S
C1145 C1141 1.495 . S
C1145 H1151 0.959 . S
C1145 H1152 0.961 . S
C1145 H1153 0.960 . S
C1146 C1144 1.381 . S
C1146 C1147 1.394 . S
C1146 H1154 0.930 . S
C1147 C1146 1.394 . S
C1147 C1148 1.383 . S
C1147 H1155 0.929 . S
C1148 C1147 1.383 . S
C1148 C1149 1.377 . S
C1149 H1133 0.930 . S
C1149 C1148 1.377 . S
C1149 C1150 1.379 . S
C1150 H1134 0.931 . S
C1150 C1144 1.383 . S
C1150 C1149 1.379 . S
H1151 C1145 0.959 . S
H1152 C1145 0.961 . S
H1153 C1145 0.960 . S
H1154 C1146 0.930 . S
H1155 C1147 0.929 . S
H1156 C1164 0.929 . S
H1157 C1166 0.930 . S
H1158 C1168 0.930 . S
H1159 C1171 0.929 . S
H1160 C1174 0.930 . S
H1161 C1176 0.960 . S
H1162 C1176 0.960 . S
H1163 C1176 0.960 . S
C1164 H1156 0.929 . S
C1164 C1165 1.377 . S
C1164 C1166 1.384 . S
C1165 C1164 1.377 . S
C1165 C1171 1.390 . S
C1166 H1157 0.930 . S
C1166 C1164 1.384 . S
C1166 C1167 1.372 . S
C1167 C1166 1.372 . S
C1167 C1168 1.400 . S
C1167 C1172 1.490 . S
C1168 H1158 0.930 . S
C1168 C1167 1.400 . S
C1168 C1171 1.386 . S
H1169 C1185 0.930 . S
H1170 C1186 0.931 . S
C1171 H1159 0.929 . S
C1171 C1165 1.390 . S
C1171 C1168 1.386 . S
C1172 C1167 1.490 . S
C1172 C1174 1.395 . S
C1172 C1175 1.403 . S
H1173 C1179 0.930 . S
C1174 H1160 0.930 . S
C1174 C1172 1.395 . S
C1174 C1177 1.403 . S
C1175 C1172 1.403 . S
C1175 C1176 1.524 . S
C1175 C1179 1.400 . S
C1176 H1161 0.960 . S
C1176 H1162 0.960 . S
C1176 H1163 0.960 . S
C1176 C1175 1.524 . S
C1177 C1174 1.403 . S
C1177 C1178 1.392 . S
C1177 C1181 1.495 . S
C1178 C1177 1.392 . S
C1178 C1179 1.385 . S
C1178 C1180 1.478 . S
C1179 H1173 0.930 . S
C1179 C1175 1.400 . S
C1179 C1178 1.385 . S
C1180 C1178 1.478 . S
C1180 C1182 1.381 . S
C1180 C1186 1.383 . S
C1181 C1177 1.495 . S
C1181 H1187 0.959 . S
C1181 H1188 0.961 . S
C1181 H1189 0.960 . S
C1182 C1180 1.381 . S
C1182 C1183 1.394 . S
C1182 H1190 0.930 . S
C1183 C1182 1.394 . S
C1183 C1184 1.383 . S
C1183 H1191 0.929 . S
C1184 C1183 1.383 . S
C1184 C1185 1.377 . S
C1185 H1169 0.930 . S
C1185 C1184 1.377 . S
C1185 C1186 1.379 . S
C1186 H1170 0.931 . S
C1186 C1180 1.383 . S
C1186 C1185 1.379 . S
H1187 C1181 0.959 . S
H1188 C1181 0.961 . S
H1189 C1181 0.960 . S
H1190 C1182 0.930 . S
H1191 C1183 0.929 . S
H1192 C1200 0.929 . S
H1193 C1202 0.944 . S
H1194 C1204 0.930 . S
H1195 C1207 0.929 . S
H1196 C1210 0.930 . S
H1197 C1212 0.960 . S
H1198 C1212 0.960 . S
H1199 C1212 0.960 . S
C1200 H1192 0.929 . S
C1200 C1201 1.377 . S
C1200 C1202 1.384 . S
C1201 C1200 1.377 . S
C1201 C1207 1.390 . S
C1202 H1193 0.944 . S
C1202 C1200 1.384 . S
C1202 C1203 1.372 . S
C1203 C1202 1.372 . S
C1203 C1204 1.400 . S
C1203 C1208 1.490 1_556 S
C1204 H1194 0.930 . S
C1204 C1203 1.400 . S
C1204 C1207 1.386 . S
H1205 C1221 0.930 . S
H1206 C1222 0.931 . S
C1207 H1195 0.929 . S
C1207 C1201 1.390 . S
C1207 C1204 1.386 . S
C1208 C1203 1.490 1_554 S
C1208 C1210 1.395 . S
C1208 C1211 1.403 1_554 S
H1209 C1215 0.930 1_556 S
C1210 H1196 0.930 . S
C1210 C1208 1.395 . S
C1210 C1213 1.403 . S
C1211 C1208 1.403 1_556 S
C1211 C1212 1.524 . S
C1211 C1215 1.400 1_556 S
C1212 H1197 0.960 . S
C1212 H1198 0.960 . S
C1212 H1199 0.960 . S
C1212 C1211 1.524 . S
C1213 C1210 1.403 . S
C1213 C1214 1.392 . S
C1213 C1217 1.495 . S
C1214 C1213 1.392 . S
C1214 C1215 1.385 . S
C1214 C1216 1.478 . S
C1215 H1209 0.930 1_554 S
C1215 C1211 1.400 1_554 S
C1215 C1214 1.385 . S
C1216 C1214 1.478 . S
C1216 C1218 1.381 . S
C1216 C1222 1.383 . S
C1217 C1213 1.495 . S
C1217 H1223 0.959 . S
C1217 H1224 0.961 . S
C1217 H1225 0.960 . S
C1218 C1216 1.381 . S
C1218 C1219 1.394 . S
C1218 H1226 0.930 . S
C1219 C1218 1.394 . S
C1219 C1220 1.383 . S
C1219 H1227 0.929 . S
C1220 C1219 1.383 . S
C1220 C1221 1.377 . S
C1221 H1205 0.930 . S
C1221 C1220 1.377 . S
C1221 C1222 1.379 . S
C1222 H1206 0.931 . S
C1222 C1216 1.383 . S
C1222 C1221 1.379 . S
H1223 C1217 0.959 . S
H1224 C1217 0.961 . S
H1225 C1217 0.960 . S
H1226 C1218 0.930 . S
H1227 C1219 0.929 . S
H1228 C1236 0.929 . S
H1229 C1238 0.930 . S
H1230 C1240 0.930 . S
H1231 C1243 0.929 . S
H1232 C1246 0.930 . S
H1233 C1248 0.960 . S
H1234 C1248 0.960 . S
H1235 C1248 0.960 . S
C1236 H1228 0.929 . S
C1236 C1237 1.377 . S
C1236 C1238 1.384 . S
C1237 C1236 1.377 . S
C1237 C1243 1.390 . S
C1238 H1229 0.930 . S
C1238 C1236 1.384 . S
C1238 C1239 1.372 . S
C1239 C1238 1.372 . S
C1239 C1240 1.400 . S
C1239 C1244 1.490 . S
C1240 H1230 0.930 . S
C1240 C1239 1.400 . S
C1240 C1243 1.386 . S
H1241 C1257 0.930 . S
H1242 C1258 0.931 . S
C1243 H1231 0.929 . S
C1243 C1237 1.390 . S
C1243 C1240 1.386 . S
C1244 C1239 1.490 . S
C1244 C1246 1.395 . S
C1244 C1247 1.403 . S
H1245 C1251 0.930 . S
C1246 H1232 0.930 . S
C1246 C1244 1.395 . S
C1246 C1249 1.403 . S
C1247 C1244 1.403 . S
C1247 C1248 1.524 . S
C1247 C1251 1.400 . S
C1248 H1233 0.960 . S
C1248 H1234 0.960 . S
C1248 H1235 0.960 . S
C1248 C1247 1.524 . S
C1249 C1246 1.403 . S
C1249 C1250 1.392 . S
C1249 C1253 1.495 . S
C1250 C1249 1.392 . S
C1250 C1251 1.385 . S
C1250 C1252 1.478 . S
C1251 H1245 0.930 . S
C1251 C1247 1.400 . S
C1251 C1250 1.385 . S
C1252 C1250 1.478 . S
C1252 C1254 1.381 . S
C1252 C1258 1.383 . S
C1253 C1249 1.495 . S
C1253 H1259 0.959 . S
C1253 H1260 0.961 . S
C1253 H1261 0.960 . S
C1254 C1252 1.381 . S
C1254 C1255 1.394 . S
C1254 H1262 0.930 . S
C1255 C1254 1.394 . S
C1255 C1256 1.383 . S
C1255 H1263 0.929 . S
C1256 C1255 1.383 . S
C1256 C1257 1.377 . S
C1257 H1241 0.930 . S
C1257 C1256 1.377 . S
C1257 C1258 1.379 . S
C1258 H1242 0.931 . S
C1258 C1252 1.383 . S
C1258 C1257 1.379 . S
H1259 C1253 0.959 . S
H1260 C1253 0.961 . S
H1261 C1253 0.960 . S
H1262 C1254 0.930 . S
H1263 C1255 0.929 . S
H1264 C1272 0.929 . S
H1265 C1274 0.930 . S
H1266 C1276 0.930 . S
H1267 C1279 0.929 . S
H1268 C1282 0.930 . S
H1269 C1284 0.960 . S
H1270 C1284 0.960 . S
H1271 C1284 0.960 . S
C1272 H1264 0.929 . S
C1272 C1273 1.377 . S
C1272 C1274 1.384 . S
C1273 C1272 1.377 . S
C1273 C1279 1.390 . S
C1274 H1265 0.930 . S
C1274 C1272 1.384 . S
C1274 C1275 1.372 . S
C1275 C1274 1.372 . S
C1275 C1276 1.400 . S
C1275 C1280 1.490 . S
C1276 H1266 0.930 . S
C1276 C1275 1.400 . S
C1276 C1279 1.386 . S
H1277 C1293 0.930 . S
H1278 C1294 0.931 . S
C1279 H1267 0.929 . S
C1279 C1273 1.390 . S
C1279 C1276 1.386 . S
C1280 C1275 1.490 . S
C1280 C1282 1.395 . S
C1280 C1283 1.403 . S
H1281 C1287 0.930 . S
C1282 H1268 0.930 . S
C1282 C1280 1.395 . S
C1282 C1285 1.403 . S
C1283 C1280 1.403 . S
C1283 C1284 1.524 . S
C1283 C1287 1.400 . S
C1284 H1269 0.960 . S
C1284 H1270 0.960 . S
C1284 H1271 0.960 . S
C1284 C1283 1.524 . S
C1285 C1282 1.403 . S
C1285 C1286 1.392 . S
C1285 C1289 1.495 . S
C1286 C1285 1.392 . S
C1286 C1287 1.385 . S
C1286 C1288 1.478 . S
C1287 H1281 0.930 . S
C1287 C1283 1.400 . S
C1287 C1286 1.385 . S
C1288 C1286 1.478 . S
C1288 C1290 1.381 . S
C1288 C1294 1.383 . S
C1289 C1285 1.495 . S
C1289 H1295 0.959 . S
C1289 H1296 0.961 . S
C1289 H1297 0.960 . S
C1290 C1288 1.381 . S
C1290 C1291 1.394 . S
C1290 H1298 0.930 . S
C1291 C1290 1.394 . S
C1291 C1292 1.383 . S
C1291 H1299 0.929 . S
C1292 C1291 1.383 . S
C1292 C1293 1.377 . S
C1293 H1277 0.930 . S
C1293 C1292 1.377 . S
C1293 C1294 1.379 . S
C1294 H1278 0.931 . S
C1294 C1288 1.383 . S
C1294 C1293 1.379 . S
H1295 C1289 0.959 . S
H1296 C1289 0.961 . S
H1297 C1289 0.960 . S
H1298 C1290 0.930 . S
H1299 C1291 0.929 . S
H1300 C1308 0.929 . S
H1301 C1310 0.930 . S
H1302 C1312 0.930 . S
H1303 C1315 0.929 . S
H1304 C1318 0.930 . S
H1305 C1320 0.960 . S
H1306 C1320 0.960 . S
H1307 C1320 0.960 . S
C1308 H1300 0.929 . S
C1308 C1309 1.377 . S
C1308 C1310 1.384 . S
C1309 C1308 1.377 . S
C1309 C1315 1.390 . S
C1310 H1301 0.930 . S
C1310 C1308 1.384 . S
C1310 C1311 1.372 . S
C1311 C1310 1.372 . S
C1311 C1312 1.400 . S
C1311 C1316 1.490 . S
C1312 H1302 0.930 . S
C1312 C1311 1.400 . S
C1312 C1315 1.386 . S
H1313 C1329 0.930 . S
H1314 C1330 0.931 . S
C1315 H1303 0.929 . S
C1315 C1309 1.390 . S
C1315 C1312 1.386 . S
C1316 C1311 1.490 . S
C1316 C1318 1.395 . S
C1316 C1319 1.403 . S
H1317 C1323 0.930 . S
C1318 H1304 0.930 . S
C1318 C1316 1.395 . S
C1318 C1321 1.403 . S
C1319 C1316 1.403 . S
C1319 C1320 1.524 . S
C1319 C1323 1.400 . S
C1320 H1305 0.960 . S
C1320 H1306 0.960 . S
C1320 H1307 0.960 . S
C1320 C1319 1.524 . S
C1321 C1318 1.403 . S
C1321 C1322 1.392 . S
C1321 C1325 1.495 . S
C1322 C1321 1.392 . S
C1322 C1323 1.385 . S
C1322 C1324 1.478 . S
C1323 H1317 0.930 . S
C1323 C1319 1.400 . S
C1323 C1322 1.385 . S
C1324 C1322 1.478 . S
C1324 C1326 1.381 . S
C1324 C1330 1.383 . S
C1325 C1321 1.495 . S
C1325 H1331 0.959 . S
C1325 H1332 0.961 . S
C1325 H1333 0.960 . S
C1326 C1324 1.381 . S
C1326 C1327 1.394 . S
C1326 H1334 0.930 . S
C1327 C1326 1.394 . S
C1327 C1328 1.383 . S
C1327 H1335 0.929 . S
C1328 C1327 1.383 . S
C1328 C1329 1.377 . S
C1329 H1313 0.930 . S
C1329 C1328 1.377 . S
C1329 C1330 1.379 . S
C1330 H1314 0.931 . S
C1330 C1324 1.383 . S
C1330 C1329 1.379 . S
H1331 C1325 0.959 . S
H1332 C1325 0.961 . S
H1333 C1325 0.960 . S
H1334 C1326 0.930 . S
H1335 C1327 0.929 . S
H1336 C1344 0.929 . S
H1337 C1346 0.930 . S
H1338 C1348 0.930 . S
H1339 C1351 0.929 . S
H1340 C1354 0.930 1_554 S
H1341 C1356 0.960 . S
H1342 C1356 0.960 . S
H1343 C1356 0.960 . S
C1344 H1336 0.929 . S
C1344 C1345 1.377 . S
C1344 C1346 1.384 . S
C1345 C1344 1.377 . S
C1345 C1351 1.390 . S
C1346 H1337 0.930 . S
C1346 C1344 1.384 . S
C1346 C1347 1.372 . S
C1347 C1346 1.372 . S
C1347 C1348 1.400 . S
C1347 C1352 1.490 . S
C1348 H1338 0.930 . S
C1348 C1347 1.400 . S
C1348 C1351 1.386 . S
H1349 C1365 0.930 . S
H1350 C1366 0.931 . S
C1351 H1339 0.929 . S
C1351 C1345 1.390 . S
C1351 C1348 1.386 . S
C1352 C1347 1.490 . S
C1352 C1354 1.395 . S
C1352 C1355 1.403 . S
H1353 C1359 0.930 . S
C1354 H1340 0.930 1_556 S
C1354 C1352 1.395 . S
C1354 C1357 1.403 1_556 S
C1355 C1352 1.403 . S
C1355 C1356 1.524 . S
C1355 C1359 1.400 . S
C1356 H1341 0.960 . S
C1356 H1342 0.960 . S
C1356 H1343 0.960 . S
C1356 C1355 1.524 . S
C1357 C1354 1.403 1_554 S
C1357 C1358 1.392 . S
C1357 C1361 1.495 . S
C1358 C1357 1.392 . S
C1358 C1359 1.385 1_554 S
C1358 C1360 1.478 . S
C1359 H1353 0.930 . S
C1359 C1355 1.400 . S
C1359 C1358 1.385 1_556 S
C1360 C1358 1.478 . S
C1360 C1362 1.381 . S
C1360 C1366 1.383 . S
C1361 C1357 1.495 . S
C1361 H1367 0.959 . S
C1361 H1368 0.961 . S
C1361 H1369 0.960 . S
C1362 C1360 1.381 . S
C1362 C1363 1.394 . S
C1362 H1370 0.930 . S
C1363 C1362 1.394 . S
C1363 C1364 1.383 . S
C1363 H1371 0.929 . S
C1364 C1363 1.383 . S
C1364 C1365 1.377 . S
C1365 H1349 0.930 . S
C1365 C1364 1.377 . S
C1365 C1366 1.379 . S
C1366 H1350 0.931 . S
C1366 C1360 1.383 . S
C1366 C1365 1.379 . S
H1367 C1361 0.959 . S
H1368 C1361 0.961 . S
H1369 C1361 0.960 . S
H1370 C1362 0.930 . S
H1371 C1363 0.929 . S
H1372 C1380 0.929 . S
H1373 C1382 0.930 . S
H1374 C1384 0.930 . S
H1375 C1387 0.929 . S
H1376 C1390 0.930 . S
H1377 C1392 0.960 . S
H1378 C1392 0.960 . S
H1379 C1392 0.960 . S
C1380 H1372 0.929 . S
C1380 C1381 1.377 . S
C1380 C1382 1.384 . S
C1381 C1380 1.377 . S
C1381 C1387 1.390 . S
C1382 H1373 0.930 . S
C1382 C1380 1.384 . S
C1382 C1383 1.372 . S
C1383 C1382 1.372 . S
C1383 C1384 1.400 . S
C1383 C1388 1.490 . S
C1384 H1374 0.930 . S
C1384 C1383 1.400 . S
C1384 C1387 1.386 . S
H1385 C1401 0.930 . S
H1386 C1402 0.931 . S
C1387 H1375 0.929 . S
C1387 C1381 1.390 . S
C1387 C1384 1.386 . S
C1388 C1383 1.490 . S
C1388 C1390 1.395 . S
C1388 C1391 1.403 . S
H1389 C1395 0.930 . S
C1390 H1376 0.930 . S
C1390 C1388 1.395 . S
C1390 C1393 1.403 . S
C1391 C1388 1.403 . S
C1391 C1392 1.524 . S
C1391 C1395 1.400 . S
C1392 H1377 0.960 . S
C1392 H1378 0.960 . S
C1392 H1379 0.960 . S
C1392 C1391 1.524 . S
C1393 C1390 1.403 . S
C1393 C1394 1.392 . S
C1393 C1397 1.495 . S
C1394 C1393 1.392 . S
C1394 C1395 1.385 . S
C1394 C1396 1.478 . S
C1395 H1389 0.930 . S
C1395 C1391 1.400 . S
C1395 C1394 1.385 . S
C1396 C1394 1.478 . S
C1396 C1398 1.381 . S
C1396 C1402 1.383 . S
C1397 C1393 1.495 . S
C1397 H1403 0.959 . S
C1397 H1404 0.961 . S
C1397 H1405 0.960 . S
C1398 C1396 1.381 . S
C1398 C1399 1.394 . S
C1398 H1406 0.930 . S
C1399 C1398 1.394 . S
C1399 C1400 1.383 . S
C1399 H1407 0.929 . S
C1400 C1399 1.383 . S
C1400 C1401 1.377 . S
C1401 H1385 0.930 . S
C1401 C1400 1.377 . S
C1401 C1402 1.379 . S
C1402 H1386 0.931 . S
C1402 C1396 1.383 . S
C1402 C1401 1.379 . S
H1403 C1397 0.959 . S
H1404 C1397 0.961 . S
H1405 C1397 0.960 . S
H1406 C1398 0.930 . S
H1407 C1399 0.929 . S
H1408 C1416 0.929 . S
H1409 C1418 0.930 . S
H1410 C1420 0.930 . S
H1411 C1423 0.929 . S
H1412 C1426 0.930 . S
H1413 C1428 0.960 . S
H1414 C1428 0.960 . S
H1415 C1428 0.960 . S
C1416 H1408 0.929 . S
C1416 C1417 1.377 . S
C1416 C1418 1.384 . S
C1417 C1416 1.377 . S
C1417 C1423 1.390 . S
C1418 H1409 0.930 . S
C1418 C1416 1.384 . S
C1418 C1419 1.372 . S
C1419 C1418 1.372 . S
C1419 C1420 1.400 . S
C1419 C1424 1.490 . S
C1420 H1410 0.930 . S
C1420 C1419 1.400 . S
C1420 C1423 1.386 . S
H1421 C1437 0.930 . S
H1422 C1438 0.931 . S
C1423 H1411 0.929 . S
C1423 C1417 1.390 . S
C1423 C1420 1.386 . S
C1424 C1419 1.490 . S
C1424 C1426 1.395 . S
C1424 C1427 1.403 . S
H1425 C1431 0.919 1_554 S
C1426 H1412 0.930 . S
C1426 C1424 1.395 . S
C1426 C1429 1.403 . S
C1427 C1424 1.403 . S
C1427 C1428 1.524 . S
C1427 C1431 1.413 . S
C1428 H1413 0.960 . S
C1428 H1414 0.960 . S
C1428 H1415 0.960 . S
C1428 C1427 1.524 . S
C1429 C1426 1.403 . S
C1429 C1430 1.392 . S
C1429 C1433 1.495 . S
C1430 C1429 1.392 . S
C1430 C1431 1.383 . S
C1430 C1432 1.478 1_556 S
C1431 H1425 0.919 1_556 S
C1431 C1427 1.413 . S
C1431 C1430 1.383 . S
C1432 C1430 1.478 1_554 S
C1432 C1434 1.381 . S
C1432 C1438 1.383 . S
C1433 C1429 1.495 . S
C1433 H1439 0.959 . S
C1433 H1440 0.961 . S
C1433 H1441 0.960 . S
C1434 C1432 1.381 . S
C1434 C1435 1.394 . S
C1434 H1442 0.904 1_554 S
C1435 C1434 1.394 . S
C1435 C1436 1.383 . S
C1435 H1443 0.929 . S
C1436 C1435 1.383 . S
C1436 C1437 1.377 . S
C1437 H1421 0.930 . S
C1437 C1436 1.377 . S
C1437 C1438 1.379 . S
C1438 H1422 0.931 . S
C1438 C1432 1.383 . S
C1438 C1437 1.379 . S
H1439 C1433 0.959 . S
H1440 C1433 0.961 . S
H1441 C1433 0.960 . S
H1442 C1434 0.904 1_556 S
H1443 C1435 0.929 . S
H1444 C1452 0.929 . S
H1445 C1454 0.932 . S
H1446 C1456 0.930 . S
H1447 C1459 0.929 1_455 S
H1448 C1462 0.930 . S
H1449 C1464 0.960 . S
H1450 C1464 0.960 . S
H1451 C1464 0.960 . S
C1452 H1444 0.929 . S
C1452 C1453 1.377 . S
C1452 C1454 1.368 1_556 S
C1453 C1452 1.377 . S
C1453 C1459 1.390 . S
C1454 H1445 0.932 . S
C1454 C1452 1.368 1_554 S
C1454 C1455 1.386 . S
C1455 C1454 1.386 . S
C1455 C1456 1.400 . S
C1455 C1460 1.490 . S
C1456 H1446 0.930 . S
C1456 C1455 1.400 . S
C1456 C1459 1.386 1_554 S
H1457 C1473 0.930 . S
H1458 C1474 0.931 . S
C1459 H1447 0.929 1_655 S
C1459 C1453 1.390 . S
C1459 C1456 1.386 1_556 S
C1460 C1455 1.490 . S
C1460 C1462 1.395 . S
C1460 C1463 1.403 . S
H1461 C1467 0.930 . S
C1462 H1448 0.930 . S
C1462 C1460 1.395 . S
C1462 C1465 1.403 . S
C1463 C1460 1.403 . S
C1463 C1464 1.524 . S
C1463 C1467 1.400 . S
C1464 H1449 0.960 . S
C1464 H1450 0.960 . S
C1464 H1451 0.960 . S
C1464 C1463 1.524 . S
C1465 C1462 1.403 . S
C1465 C1466 1.392 . S
C1465 C1469 1.495 . S
C1466 C1465 1.392 . S
C1466 C1467 1.385 . S
C1466 C1468 1.478 . S
C1467 H1461 0.930 . S
C1467 C1463 1.400 . S
C1467 C1466 1.385 . S
C1468 C1466 1.478 . S
C1468 C1470 1.381 . S
C1468 C1474 1.383 . S
C1469 C1465 1.495 . S
C1469 H1475 0.959 . S
C1469 H1476 0.961 . S
C1469 H1477 0.960 . S
C1470 C1468 1.381 . S
C1470 C1471 1.394 . S
C1470 H1478 0.930 . S
C1471 C1470 1.394 . S
C1471 C1472 1.383 . S
C1471 H1479 0.929 . S
C1472 C1471 1.383 . S
C1472 C1473 1.377 . S
C1473 H1457 0.930 . S
C1473 C1472 1.377 . S
C1473 C1474 1.379 . S
C1474 H1458 0.931 . S
C1474 C1468 1.383 . S
C1474 C1473 1.379 . S
H1475 C1469 0.959 . S
H1476 C1469 0.961 . S
H1477 C1469 0.960 . S
H1478 C1470 0.930 . S
H1479 C1471 0.929 . S
H1480 C1488 0.929 . S
H1481 C1490 0.930 . S
H1482 C1492 0.930 . S
H1483 C1495 0.929 . S
H1484 C1498 0.930 . S
H1485 C1500 0.960 . S
H1486 C1500 0.960 . S
H1487 C1500 0.960 . S
C1488 H1480 0.929 . S
C1488 C1489 1.377 . S
C1488 C1490 1.384 . S
C1489 C1488 1.377 . S
C1489 C1495 1.390 . S
C1490 H1481 0.930 . S
C1490 C1488 1.384 . S
C1490 C1491 1.372 . S
C1491 C1490 1.372 . S
C1491 C1492 1.400 . S
C1491 C1496 1.490 . S
C1492 H1482 0.930 . S
C1492 C1491 1.400 . S
C1492 C1495 1.386 . S
H1493 C1509 0.930 . S
H1494 C1510 0.931 . S
C1495 H1483 0.929 . S
C1495 C1489 1.390 . S
C1495 C1492 1.386 . S
C1496 C1491 1.490 . S
C1496 C1498 1.395 . S
C1496 C1499 1.403 . S
H1497 C1503 0.930 . S
C1498 H1484 0.930 . S
C1498 C1496 1.395 . S
C1498 C1501 1.403 . S
C1499 C1496 1.403 . S
C1499 C1500 1.524 . S
C1499 C1503 1.400 . S
C1500 H1485 0.960 . S
C1500 H1486 0.960 . S
C1500 H1487 0.960 . S
C1500 C1499 1.524 . S
C1501 C1498 1.403 . S
C1501 C1502 1.392 . S
C1501 C1505 1.495 . S
C1502 C1501 1.392 . S
C1502 C1503 1.385 . S
C1502 C1504 1.478 . S
C1503 H1497 0.930 . S
C1503 C1499 1.400 . S
C1503 C1502 1.385 . S
C1504 C1502 1.478 . S
C1504 C1506 1.381 . S
C1504 C1510 1.383 . S
C1505 C1501 1.495 . S
C1505 H1511 0.959 . S
C1505 H1512 0.961 . S
C1505 H1513 0.960 . S
C1506 C1504 1.381 . S
C1506 C1507 1.394 . S
C1506 H1514 0.930 . S
C1507 C1506 1.394 . S
C1507 C1508 1.383 . S
C1507 H1515 0.929 . S
C1508 C1507 1.383 . S
C1508 C1509 1.377 . S
C1509 H1493 0.930 . S
C1509 C1508 1.377 . S
C1509 C1510 1.379 . S
C1510 H1494 0.931 . S
C1510 C1504 1.383 . S
C1510 C1509 1.379 . S
H1511 C1505 0.959 . S
H1512 C1505 0.961 . S
H1513 C1505 0.960 . S
H1514 C1506 0.930 . S
H1515 C1507 0.929 . S
H1516 C1524 0.929 . S
H1517 C1526 0.930 . S
H1518 C1528 0.930 . S
H1519 C1531 0.929 . S
H1520 C1534 0.930 . S
H1521 C1536 0.960 . S
H1522 C1536 0.960 . S
H1523 C1536 0.960 . S
C1524 H1516 0.929 . S
C1524 C1525 1.377 . S
C1524 C1526 1.384 . S
C1525 C1524 1.377 . S
C1525 C1531 1.390 . S
C1526 H1517 0.930 . S
C1526 C1524 1.384 . S
C1526 C1527 1.372 . S
C1527 C1526 1.372 . S
C1527 C1528 1.400 . S
C1527 C1532 1.490 . S
C1528 H1518 0.930 . S
C1528 C1527 1.400 . S
C1528 C1531 1.386 . S
H1529 C1545 0.930 . S
H1530 C1546 0.931 . S
C1531 H1519 0.929 . S
C1531 C1525 1.390 . S
C1531 C1528 1.386 . S
C1532 C1527 1.490 . S
C1532 C1534 1.395 . S
C1532 C1535 1.403 . S
H1533 C1539 0.930 . S
C1534 H1520 0.930 . S
C1534 C1532 1.395 . S
C1534 C1537 1.403 . S
C1535 C1532 1.403 . S
C1535 C1536 1.524 . S
C1535 C1539 1.400 . S
C1536 H1521 0.960 . S
C1536 H1522 0.960 . S
C1536 H1523 0.960 . S
C1536 C1535 1.524 . S
C1537 C1534 1.403 . S
C1537 C1538 1.392 . S
C1537 C1541 1.495 . S
C1538 C1537 1.392 . S
C1538 C1539 1.385 . S
C1538 C1540 1.478 . S
C1539 H1533 0.930 . S
C1539 C1535 1.400 . S
C1539 C1538 1.385 . S
C1540 C1538 1.478 . S
C1540 C1542 1.381 . S
C1540 C1546 1.383 . S
C1541 C1537 1.495 . S
C1541 H1547 0.959 . S
C1541 H1548 0.961 . S
C1541 H1549 0.960 . S
C1542 C1540 1.381 . S
C1542 C1543 1.394 . S
C1542 H1550 0.930 . S
C1543 C1542 1.394 . S
C1543 C1544 1.383 . S
C1543 H1551 0.929 . S
C1544 C1543 1.383 . S
C1544 C1545 1.377 . S
C1545 H1529 0.930 . S
C1545 C1544 1.377 . S
C1545 C1546 1.379 . S
C1546 H1530 0.931 . S
C1546 C1540 1.383 . S
C1546 C1545 1.379 . S
H1547 C1541 0.959 . S
H1548 C1541 0.961 . S
H1549 C1541 0.960 . S
H1550 C1542 0.930 . S
H1551 C1543 0.929 . S
H1552 C1560 0.929 . S
H1553 C1562 0.930 . S
H1554 C1564 0.930 . S
H1555 C1567 0.929 . S
H1556 C1570 0.930 . S
H1557 C1572 0.960 . S
H1558 C1572 0.960 . S
H1559 C1572 0.960 . S
C1560 H1552 0.929 . S
C1560 C1561 1.377 . S
C1560 C1562 1.384 . S
C1561 C1560 1.377 . S
C1561 C1567 1.390 . S
C1562 H1553 0.930 . S
C1562 C1560 1.384 . S
C1562 C1563 1.372 . S
C1563 C1562 1.372 . S
C1563 C1564 1.400 . S
C1563 C1568 1.490 . S
C1564 H1554 0.930 . S
C1564 C1563 1.400 . S
C1564 C1567 1.386 . S
H1565 C1581 0.930 . S
H1566 C1582 0.931 . S
C1567 H1555 0.929 . S
C1567 C1561 1.390 . S
C1567 C1564 1.386 . S
C1568 C1563 1.490 . S
C1568 C1570 1.395 . S
C1568 C1571 1.403 . S
H1569 C1575 0.930 . S
C1570 H1556 0.930 . S
C1570 C1568 1.395 . S
C1570 C1573 1.403 . S
C1571 C1568 1.403 . S
C1571 C1572 1.524 . S
C1571 C1575 1.400 . S
C1572 H1557 0.960 . S
C1572 H1558 0.960 . S
C1572 H1559 0.960 . S
C1572 C1571 1.524 . S
C1573 C1570 1.403 . S
C1573 C1574 1.392 . S
C1573 C1577 1.495 . S
C1574 C1573 1.392 . S
C1574 C1575 1.385 . S
C1574 C1576 1.478 . S
C1575 H1569 0.930 . S
C1575 C1571 1.400 . S
C1575 C1574 1.385 . S
C1576 C1574 1.478 . S
C1576 C1578 1.381 . S
C1576 C1582 1.383 . S
C1577 C1573 1.495 . S
C1577 H1583 0.959 . S
C1577 H1584 0.961 . S
C1577 H1585 0.960 . S
C1578 C1576 1.381 . S
C1578 C1579 1.394 . S
C1578 H1586 0.930 . S
C1579 C1578 1.394 . S
C1579 C1580 1.383 . S
C1579 H1587 0.929 . S
C1580 C1579 1.383 . S
C1580 C1581 1.377 . S
C1581 H1565 0.930 . S
C1581 C1580 1.377 . S
C1581 C1582 1.379 . S
C1582 H1566 0.931 . S
C1582 C1576 1.383 . S
C1582 C1581 1.379 . S
H1583 C1577 0.959 . S
H1584 C1577 0.961 . S
H1585 C1577 0.960 . S
H1586 C1578 0.930 . S
H1587 C1579 0.929 . S
H1588 C1596 0.929 1_554 S
H1589 C1598 0.930 . S
H1590 C1600 0.930 . S
H1591 C1603 0.929 . S
H1592 C1606 0.930 . S
H1593 C1608 0.960 . S
H1594 C1608 0.960 . S
H1595 C1608 0.960 . S
C1596 H1588 0.929 1_556 S
C1596 C1597 1.377 . S
C1596 C1598 1.384 . S
C1597 C1596 1.377 . S
C1597 C1603 1.390 . S
C1598 H1589 0.930 . S
C1598 C1596 1.384 . S
C1598 C1599 1.372 . S
C1599 C1598 1.372 . S
C1599 C1600 1.400 . S
C1599 C1604 1.490 . S
C1600 H1590 0.930 . S
C1600 C1599 1.400 . S
C1600 C1603 1.386 . S
H1601 C1617 0.930 . S
H1602 C1618 0.931 . S
C1603 H1591 0.929 . S
C1603 C1597 1.390 . S
C1603 C1600 1.386 . S
C1604 C1599 1.490 . S
C1604 C1606 1.395 . S
C1604 C1607 1.403 . S
H1605 C1611 0.930 . S
C1606 H1592 0.930 . S
C1606 C1604 1.395 . S
C1606 C1609 1.403 . S
C1607 C1604 1.403 . S
C1607 C1608 1.524 . S
C1607 C1611 1.400 . S
C1608 H1593 0.960 . S
C1608 H1594 0.960 . S
C1608 H1595 0.960 . S
C1608 C1607 1.524 . S
C1609 C1606 1.403 . S
C1609 C1610 1.392 . S
C1609 C1613 1.495 . S
C1610 C1609 1.392 . S
C1610 C1611 1.385 . S
C1610 C1612 1.478 . S
C1611 H1605 0.930 . S
C1611 C1607 1.400 . S
C1611 C1610 1.385 . S
C1612 C1610 1.478 . S
C1612 C1614 1.381 . S
C1612 C1618 1.383 . S
C1613 C1609 1.495 . S
C1613 H1619 0.959 . S
C1613 H1620 0.961 . S
C1613 H1621 0.960 . S
C1614 C1612 1.381 . S
C1614 C1615 1.394 . S
C1614 H1622 0.930 . S
C1615 C1614 1.394 . S
C1615 C1616 1.383 . S
C1615 H1623 0.929 . S
C1616 C1615 1.383 . S
C1616 C1617 1.377 . S
C1617 H1601 0.930 . S
C1617 C1616 1.377 . S
C1617 C1618 1.379 . S
C1618 H1602 0.931 . S
C1618 C1612 1.383 . S
C1618 C1617 1.379 . S
H1619 C1613 0.959 . S
H1620 C1613 0.961 . S
H1621 C1613 0.960 . S
H1622 C1614 0.930 . S
H1623 C1615 0.929 . S
H1624 C1632 0.929 . S
H1625 C1634 0.930 . S
H1626 C1636 0.930 . S
H1627 C1639 0.929 . S
H1628 C1642 0.930 . S
H1629 C1644 0.960 . S
H1630 C1644 0.960 . S
H1631 C1644 0.960 . S
C1632 H1624 0.929 . S
C1632 C1633 1.377 . S
C1632 C1634 1.384 . S
C1633 C1632 1.377 . S
C1633 C1639 1.390 . S
C1634 H1625 0.930 . S
C1634 C1632 1.384 . S
C1634 C1635 1.372 . S
C1635 C1634 1.372 . S
C1635 C1636 1.400 . S
C1635 C1640 1.490 . S
C1636 H1626 0.930 . S
C1636 C1635 1.400 . S
C1636 C1639 1.386 . S
H1637 C1653 0.930 . S
H1638 C1654 0.931 . S
C1639 H1627 0.929 . S
C1639 C1633 1.390 . S
C1639 C1636 1.386 . S
C1640 C1635 1.490 . S
C1640 C1642 1.395 . S
C1640 C1643 1.403 1_556 S
H1641 C1647 0.930 . S
C1642 H1628 0.930 . S
C1642 C1640 1.395 . S
C1642 C1645 1.403 1_556 S
C1643 C1640 1.403 1_554 S
C1643 C1644 1.524 . S
C1643 C1647 1.400 . S
C1644 H1629 0.960 . S
C1644 H1630 0.960 . S
C1644 H1631 0.960 . S
C1644 C1643 1.524 . S
C1645 C1642 1.403 1_554 S
C1645 C1646 1.392 . S
C1645 C1649 1.495 . S
C1646 C1645 1.392 . S
C1646 C1647 1.385 . S
C1646 C1648 1.478 . S
C1647 H1641 0.930 . S
C1647 C1643 1.400 . S
C1647 C1646 1.385 . S
C1648 C1646 1.478 . S
C1648 C1650 1.381 . S
C1648 C1654 1.383 . S
C1649 C1645 1.495 . S
C1649 H1655 0.959 1_554 S
C1649 H1656 0.961 . S
C1649 H1657 0.960 . S
C1650 C1648 1.381 . S
C1650 C1651 1.394 . S
C1650 H1658 0.930 . S
C1651 C1650 1.394 . S
C1651 C1652 1.383 . S
C1651 H1659 0.929 . S
C1652 C1651 1.383 . S
C1652 C1653 1.377 . S
C1653 H1637 0.930 . S
C1653 C1652 1.377 . S
C1653 C1654 1.379 . S
C1654 H1638 0.931 . S
C1654 C1648 1.383 . S
C1654 C1653 1.379 . S
H1655 C1649 0.959 1_556 S
H1656 C1649 0.961 . S
H1657 C1649 0.960 . S
H1658 C1650 0.930 . S
H1659 C1651 0.929 . S
H1660 C1668 0.929 . S
H1661 C1670 0.930 . S
H1662 C1672 0.930 . S
H1663 C1675 0.929 . S
H1664 C1678 0.930 . S
H1665 C1680 0.960 . S
H1666 C1680 0.960 . S
H1667 C1680 0.960 . S
C1668 H1660 0.929 . S
C1668 C1669 1.377 . S
C1668 C1670 1.384 1_655 S
C1669 C1668 1.377 . S
C1669 C1675 1.390 . S
C1670 H1661 0.930 . S
C1670 C1668 1.384 1_455 S
C1670 C1671 1.372 . S
C1671 C1670 1.372 . S
C1671 C1672 1.400 1_455 S
C1671 C1676 1.490 . S
C1672 H1662 0.930 . S
C1672 C1671 1.400 1_655 S
C1672 C1675 1.386 . S
H1673 C1689 0.930 . S
H1674 C1690 0.931 . S
C1675 H1663 0.929 . S
C1675 C1669 1.390 . S
C1675 C1672 1.386 . S
C1676 C1671 1.490 . S
C1676 C1678 1.395 . S
C1676 C1679 1.403 . S
H1677 C1683 0.930 . S
C1678 H1664 0.930 . S
C1678 C1676 1.395 . S
C1678 C1681 1.403 . S
C1679 C1676 1.403 . S
C1679 C1680 1.524 . S
C1679 C1683 1.400 . S
C1680 H1665 0.960 . S
C1680 H1666 0.960 . S
C1680 H1667 0.960 . S
C1680 C1679 1.524 . S
C1681 C1678 1.403 . S
C1681 C1682 1.392 . S
C1681 C1685 1.495 . S
C1682 C1681 1.392 . S
C1682 C1683 1.385 . S
C1682 C1684 1.478 . S
C1683 H1677 0.930 . S
C1683 C1679 1.400 . S
C1683 C1682 1.385 . S
C1684 C1682 1.478 . S
C1684 C1686 1.381 . S
C1684 C1690 1.383 . S
C1685 C1681 1.495 . S
C1685 H1691 0.959 . S
C1685 H1692 0.961 . S
C1685 H1693 0.960 . S
C1686 C1684 1.381 . S
C1686 C1687 1.394 . S
C1686 H1694 0.930 . S
C1687 C1686 1.394 . S
C1687 C1688 1.383 . S
C1687 H1695 0.929 . S
C1688 C1687 1.383 . S
C1688 C1689 1.377 . S
C1689 H1673 0.930 . S
C1689 C1688 1.377 . S
C1689 C1690 1.379 . S
C1690 H1674 0.931 . S
C1690 C1684 1.383 . S
C1690 C1689 1.379 . S
H1691 C1685 0.959 . S
H1692 C1685 0.961 . S
H1693 C1685 0.960 . S
H1694 C1686 0.930 . S
H1695 C1687 0.929 . S
H1696 C1704 0.929 . S
H1697 C1706 0.930 . S
H1698 C1708 0.930 . S
H1699 C1711 0.929 . S
H1700 C1714 0.930 . S
H1701 C1716 0.960 . S
H1702 C1716 0.960 . S
H1703 C1716 0.960 . S
C1704 H1696 0.929 . S
C1704 C1705 1.377 . S
C1704 C1706 1.384 . S
C1705 C1704 1.377 . S
C1705 C1711 1.390 . S
C1706 H1697 0.930 . S
C1706 C1704 1.384 . S
C1706 C1707 1.372 . S
C1707 C1706 1.372 . S
C1707 C1708 1.400 . S
C1707 C1712 1.490 . S
C1708 H1698 0.930 . S
C1708 C1707 1.400 . S
C1708 C1711 1.386 . S
H1709 C1725 0.930 . S
H1710 C1726 0.931 . S
C1711 H1699 0.929 . S
C1711 C1705 1.390 . S
C1711 C1708 1.386 . S
C1712 C1707 1.490 . S
C1712 C1714 1.395 . S
C1712 C1715 1.403 . S
H1713 C1719 0.930 . S
C1714 H1700 0.930 . S
C1714 C1712 1.395 . S
C1714 C1717 1.403 1_554 S
C1715 C1712 1.403 . S
C1715 C1716 1.524 . S
C1715 C1719 1.400 . S
C1716 H1701 0.960 . S
C1716 H1702 0.960 . S
C1716 H1703 0.960 . S
C1716 C1715 1.524 . S
C1717 C1714 1.403 1_556 S
C1717 C1718 1.392 . S
C1717 C1721 1.495 . S
C1718 C1717 1.392 . S
C1718 C1719 1.385 1_556 S
C1718 C1720 1.478 . S
C1719 H1713 0.930 . S
C1719 C1715 1.400 . S
C1719 C1718 1.385 1_554 S
C1720 C1718 1.478 . S
C1720 C1722 1.381 . S
C1720 C1726 1.383 . S
C1721 C1717 1.495 . S
C1721 H1727 0.959 . S
C1721 H1728 0.961 . S
C1721 H1729 0.960 . S
C1722 C1720 1.381 . S
C1722 C1723 1.394 . S
C1722 H1730 0.930 . S
C1723 C1722 1.394 . S
C1723 C1724 1.383 . S
C1723 H1731 0.929 . S
C1724 C1723 1.383 . S
C1724 C1725 1.377 . S
C1725 H1709 0.930 . S
C1725 C1724 1.377 . S
C1725 C1726 1.379 . S
C1726 H1710 0.931 . S
C1726 C1720 1.383 . S
C1726 C1725 1.379 . S
H1727 C1721 0.959 . S
H1728 C1721 0.961 . S
H1729 C1721 0.960 . S
H1730 C1722 0.930 . S
H1731 C1723 0.929 . S
H1732 C1740 0.929 . S
H1733 C1742 0.930 . S
H1734 C1744 0.930 . S
H1735 C1747 0.929 . S
H1736 C1750 0.930 . S
H1737 C1752 0.960 . S
H1738 C1752 0.960 . S
H1739 C1752 0.960 . S
C1740 H1732 0.929 . S
C1740 C1741 1.377 . S
C1740 C1742 1.384 . S
C1741 C1740 1.377 . S
C1741 C1747 1.390 . S
C1742 H1733 0.930 . S
C1742 C1740 1.384 . S
C1742 C1743 1.372 . S
C1743 C1742 1.372 . S
C1743 C1744 1.400 . S
C1743 C1748 1.490 . S
C1744 H1734 0.930 . S
C1744 C1743 1.400 . S
C1744 C1747 1.386 . S
H1745 C1761 0.930 . S
H1746 C1762 0.931 . S
C1747 H1735 0.929 . S
C1747 C1741 1.390 . S
C1747 C1744 1.386 . S
C1748 C1743 1.490 . S
C1748 C1750 1.395 . S
C1748 C1751 1.403 . S
H1749 C1755 0.930 . S
C1750 H1736 0.930 . S
C1750 C1748 1.395 . S
C1750 C1753 1.403 . S
C1751 C1748 1.403 . S
C1751 C1752 1.524 . S
C1751 C1755 1.400 . S
C1752 H1737 0.960 . S
C1752 H1738 0.960 . S
C1752 H1739 0.960 . S
C1752 C1751 1.524 . S
C1753 C1750 1.403 . S
C1753 C1754 1.392 . S
C1753 C1757 1.495 . S
C1754 C1753 1.392 . S
C1754 C1755 1.385 . S
C1754 C1756 1.478 . S
C1755 H1749 0.930 . S
C1755 C1751 1.400 . S
C1755 C1754 1.385 . S
C1756 C1754 1.478 . S
C1756 C1758 1.392 . S
C1756 C1762 1.383 . S
C1757 C1753 1.495 . S
C1757 H1763 0.959 . S
C1757 H1764 0.961 . S
C1757 H1765 0.960 . S
C1758 C1756 1.392 . S
C1758 C1759 1.381 1_556 S
C1758 H1766 0.933 . S
C1759 C1758 1.381 1_554 S
C1759 C1760 1.383 . S
C1759 H1767 0.929 . S
C1760 C1759 1.383 . S
C1760 C1761 1.377 . S
C1761 H1745 0.930 . S
C1761 C1760 1.377 . S
C1761 C1762 1.379 1_554 S
C1762 H1746 0.931 . S
C1762 C1756 1.383 . S
C1762 C1761 1.379 1_556 S
H1763 C1757 0.959 . S
H1764 C1757 0.961 . S
H1765 C1757 0.960 . S
H1766 C1758 0.933 . S
H1767 C1759 0.929 . S
H1768 C1776 0.929 . S
H1769 C1778 0.930 . S
H1770 C1780 0.930 . S
H1771 C1783 0.929 . S
H1772 C1786 0.930 . S
H1773 C1788 0.960 . S
H1774 C1788 0.960 . S
H1775 C1788 0.960 . S
C1776 H1768 0.929 . S
C1776 C1777 1.377 . S
C1776 C1778 1.384 . S
C1777 C1776 1.377 . S
C1777 C1783 1.390 . S
C1778 H1769 0.930 . S
C1778 C1776 1.384 . S
C1778 C1779 1.372 . S
C1779 C1778 1.372 . S
C1779 C1780 1.400 . S
C1779 C1784 1.490 . S
C1780 H1770 0.930 . S
C1780 C1779 1.400 . S
C1780 C1783 1.386 . S
H1781 C1797 0.930 . S
H1782 C1798 0.931 . S
C1783 H1771 0.929 . S
C1783 C1777 1.390 . S
C1783 C1780 1.386 . S
C1784 C1779 1.490 . S
C1784 C1786 1.395 . S
C1784 C1787 1.403 . S
H1785 C1791 0.930 . S
C1786 H1772 0.930 . S
C1786 C1784 1.395 . S
C1786 C1789 1.403 . S
C1787 C1784 1.403 . S
C1787 C1788 1.524 . S
C1787 C1791 1.400 . S
C1788 H1773 0.960 . S
C1788 H1774 0.960 . S
C1788 H1775 0.960 . S
C1788 C1787 1.524 . S
C1789 C1786 1.403 . S
C1789 C1790 1.392 . S
C1789 C1793 1.495 . S
C1790 C1789 1.392 . S
C1790 C1791 1.385 . S
C1790 C1792 1.478 . S
C1791 H1785 0.930 . S
C1791 C1787 1.400 . S
C1791 C1790 1.385 . S
C1792 C1790 1.478 . S
C1792 C1794 1.381 . S
C1792 C1798 1.383 . S
C1793 C1789 1.495 . S
C1793 H1799 0.959 . S
C1793 H1800 0.961 . S
C1793 H1801 0.960 . S
C1794 C1792 1.381 . S
C1794 C1795 1.394 . S
C1794 H1802 0.930 . S
C1795 C1794 1.394 . S
C1795 C1796 1.383 . S
C1795 H1803 0.929 . S
C1796 C1795 1.383 . S
C1796 C1797 1.377 . S
C1797 H1781 0.930 . S
C1797 C1796 1.377 . S
C1797 C1798 1.379 . S
C1798 H1782 0.931 . S
C1798 C1792 1.383 . S
C1798 C1797 1.379 . S
H1799 C1793 0.959 . S
H1800 C1793 0.961 . S
H1801 C1793 0.960 . S
H1802 C1794 0.930 . S
H1803 C1795 0.929 . S
H1804 C1812 0.929 . S
H1805 C1814 0.930 . S
H1806 C1816 0.930 . S
H1807 C1819 0.929 . S
H1808 C1822 0.930 . S
H1809 C1824 0.960 . S
H1810 C1824 0.960 . S
H1811 C1824 0.960 . S
C1812 H1804 0.929 . S
C1812 C1813 1.377 . S
C1812 C1814 1.384 . S
C1813 C1812 1.377 . S
C1813 C1819 1.390 . S
C1814 H1805 0.930 . S
C1814 C1812 1.384 . S
C1814 C1815 1.372 . S
C1815 C1814 1.372 . S
C1815 C1816 1.400 . S
C1815 C1820 1.490 . S
C1816 H1806 0.930 . S
C1816 C1815 1.400 . S
C1816 C1819 1.386 . S
H1817 C1833 0.930 . S
H1818 C1834 0.931 . S
C1819 H1807 0.929 . S
C1819 C1813 1.390 . S
C1819 C1816 1.386 . S
C1820 C1815 1.490 . S
C1820 C1822 1.395 . S
C1820 C1823 1.403 . S
H1821 C1827 0.930 . S
C1822 H1808 0.930 . S
C1822 C1820 1.395 . S
C1822 C1825 1.403 . S
C1823 C1820 1.403 . S
C1823 C1824 1.524 . S
C1823 C1827 1.400 . S
C1824 H1809 0.960 . S
C1824 H1810 0.960 . S
C1824 H1811 0.960 . S
C1824 C1823 1.524 . S
C1825 C1822 1.403 . S
C1825 C1826 1.392 . S
C1825 C1829 1.495 . S
C1826 C1825 1.392 . S
C1826 C1827 1.385 . S
C1826 C1828 1.478 . S
C1827 H1821 0.930 . S
C1827 C1823 1.400 . S
C1827 C1826 1.385 . S
C1828 C1826 1.478 . S
C1828 C1830 1.381 . S
C1828 C1834 1.383 . S
C1829 C1825 1.495 . S
C1829 H1835 0.959 . S
C1829 H1836 0.961 . S
C1829 H1837 0.960 . S
C1830 C1828 1.381 . S
C1830 C1831 1.394 . S
C1830 H1838 0.930 . S
C1831 C1830 1.394 . S
C1831 C1832 1.383 . S
C1831 H1839 0.929 . S
C1832 C1831 1.383 . S
C1832 C1833 1.377 . S
C1833 H1817 0.930 . S
C1833 C1832 1.377 . S
C1833 C1834 1.379 . S
C1834 H1818 0.931 . S
C1834 C1828 1.383 . S
C1834 C1833 1.379 . S
H1835 C1829 0.959 . S
H1836 C1829 0.961 . S
H1837 C1829 0.960 . S
H1838 C1830 0.930 . S
H1839 C1831 0.929 . S
H1840 C1848 0.929 . S
H1841 C1850 0.930 . S
H1842 C1852 0.930 . S
H1843 C1855 0.929 . S
H1844 C1858 0.930 . S
H1845 C1860 0.960 . S
H1846 C1860 0.960 . S
H1847 C1860 0.960 . S
C1848 H1840 0.929 . S
C1848 C1849 1.377 . S
C1848 C1850 1.384 . S
C1849 C1848 1.377 . S
C1849 C1855 1.390 . S
C1850 H1841 0.930 . S
C1850 C1848 1.384 . S
C1850 C1851 1.372 . S
C1851 C1850 1.372 . S
C1851 C1852 1.400 . S
C1851 C1856 1.490 . S
C1852 H1842 0.930 . S
C1852 C1851 1.400 . S
C1852 C1855 1.386 . S
H1853 C1869 0.930 . S
H1854 C1870 0.931 . S
C1855 H1843 0.929 . S
C1855 C1849 1.390 . S
C1855 C1852 1.386 . S
C1856 C1851 1.490 . S
C1856 C1858 1.395 . S
C1856 C1859 1.403 . S
H1857 C1863 0.930 . S
C1858 H1844 0.930 . S
C1858 C1856 1.395 . S
C1858 C1861 1.403 . S
C1859 C1856 1.403 . S
C1859 C1860 1.524 . S
C1859 C1863 1.400 . S
C1860 H1845 0.960 . S
C1860 H1846 0.960 . S
C1860 H1847 0.960 . S
C1860 C1859 1.524 . S
C1861 C1858 1.403 . S
C1861 C1862 1.392 . S
C1861 C1865 1.495 . S
C1862 C1861 1.392 . S
C1862 C1863 1.385 . S
C1862 C1864 1.478 . S
C1863 H1857 0.930 . S
C1863 C1859 1.400 . S
C1863 C1862 1.385 . S
C1864 C1862 1.478 . S
C1864 C1866 1.381 . S
C1864 C1870 1.383 . S
C1865 C1861 1.495 . S
C1865 H1871 0.959 . S
C1865 H1872 0.961 . S
C1865 H1873 0.960 . S
C1866 C1864 1.381 . S
C1866 C1867 1.394 . S
C1866 H1874 0.930 . S
C1867 C1866 1.394 . S
C1867 C1868 1.383 . S
C1867 H1875 0.929 . S
C1868 C1867 1.383 . S
C1868 C1869 1.377 . S
C1869 H1853 0.930 . S
C1869 C1868 1.377 . S
C1869 C1870 1.379 . S
C1870 H1854 0.931 . S
C1870 C1864 1.383 . S
C1870 C1869 1.379 . S
H1871 C1865 0.959 . S
H1872 C1865 0.961 . S
H1873 C1865 0.960 . S
H1874 C1866 0.930 . S
H1875 C1867 0.929 . S
H1876 C1884 0.929 . S
H1877 C1886 0.930 . S
H1878 C1888 0.930 . S
H1879 C1891 0.929 . S
H1880 C1894 0.930 . S
H1881 C1896 0.960 . S
H1882 C1896 0.960 . S
H1883 C1896 0.960 . S
C1884 H1876 0.929 . S
C1884 C1885 1.377 . S
C1884 C1886 1.384 . S
C1885 C1884 1.377 . S
C1885 C1891 1.390 . S
C1886 H1877 0.930 . S
C1886 C1884 1.384 . S
C1886 C1887 1.372 . S
C1887 C1886 1.372 . S
C1887 C1888 1.400 . S
C1887 C1892 1.490 . S
C1888 H1878 0.930 . S
C1888 C1887 1.400 . S
C1888 C1891 1.386 . S
H1889 C1905 0.930 . S
H1890 C1906 0.931 . S
C1891 H1879 0.929 . S
C1891 C1885 1.390 . S
C1891 C1888 1.386 . S
C1892 C1887 1.490 . S
C1892 C1894 1.395 . S
C1892 C1895 1.403 . S
H1893 C1899 0.930 . S
C1894 H1880 0.930 . S
C1894 C1892 1.395 . S
C1894 C1897 1.403 . S
C1895 C1892 1.403 . S
C1895 C1896 1.524 . S
C1895 C1899 1.400 . S
C1896 H1881 0.960 . S
C1896 H1882 0.960 . S
C1896 H1883 0.960 . S
C1896 C1895 1.524 . S
C1897 C1894 1.403 . S
C1897 C1898 1.392 . S
C1897 C1901 1.495 . S
C1898 C1897 1.392 . S
C1898 C1899 1.385 . S
C1898 C1900 1.478 . S
C1899 H1893 0.930 . S
C1899 C1895 1.400 . S
C1899 C1898 1.385 . S
C1900 C1898 1.478 . S
C1900 C1902 1.381 . S
C1900 C1906 1.383 . S
C1901 C1897 1.495 . S
C1901 H1907 0.959 . S
C1901 H1908 0.961 . S
C1901 H1909 0.960 . S
C1902 C1900 1.381 . S
C1902 C1903 1.394 . S
C1902 H1910 0.930 . S
C1903 C1902 1.394 . S
C1903 C1904 1.383 . S
C1903 H1911 0.929 . S
C1904 C1903 1.383 . S
C1904 C1905 1.377 . S
C1905 H1889 0.930 . S
C1905 C1904 1.377 . S
C1905 C1906 1.379 . S
C1906 H1890 0.931 . S
C1906 C1900 1.383 . S
C1906 C1905 1.379 . S
H1907 C1901 0.959 . S
H1908 C1901 0.961 . S
H1909 C1901 0.960 . S
H1910 C1902 0.930 . S
H1911 C1903 0.929 . S
H1912 C1920 0.929 . S
H1913 C1922 0.930 . S
H1914 C1924 0.930 . S
H1915 C1927 0.929 . S
H1916 C1930 0.930 . S
H1917 C1932 0.960 . S
H1918 C1932 0.960 . S
H1919 C1932 0.960 . S
C1920 H1912 0.929 . S
C1920 C1921 1.377 . S
C1920 C1922 1.384 . S
C1921 C1920 1.377 . S
C1921 C1927 1.390 . S
C1922 H1913 0.930 . S
C1922 C1920 1.384 . S
C1922 C1923 1.372 . S
C1923 C1922 1.372 . S
C1923 C1924 1.400 . S
C1923 C1928 1.492 . S
C1924 H1914 0.930 . S
C1924 C1923 1.400 . S
C1924 C1927 1.386 . S
H1925 C1941 0.930 . S
H1926 C1942 0.931 . S
C1927 H1915 0.929 . S
C1927 C1921 1.390 . S
C1927 C1924 1.386 . S
C1928 C1923 1.492 . S
C1928 C1930 1.395 . S
C1928 C1931 1.400 1_554 S
H1929 C1935 0.930 . S
C1930 H1916 0.930 . S
C1930 C1928 1.395 . S
C1930 C1933 1.403 1_554 S
C1931 C1928 1.400 1_556 S
C1931 C1932 1.524 . S
C1931 C1935 1.400 . S
C1932 H1917 0.960 . S
C1932 H1918 0.960 . S
C1932 H1919 0.960 . S
C1932 C1931 1.524 . S
C1933 C1930 1.403 1_556 S
C1933 C1934 1.392 . S
C1933 C1937 1.495 . S
C1934 C1933 1.392 . S
C1934 C1935 1.385 . S
C1934 C1936 1.478 . S
C1935 H1929 0.930 . S
C1935 C1931 1.400 . S
C1935 C1934 1.385 . S
C1936 C1934 1.478 . S
C1936 C1938 1.381 . S
C1936 C1942 1.383 . S
C1937 C1933 1.495 . S
C1937 H1943 0.959 1_556 S
C1937 H1944 0.961 . S
C1937 H1945 0.960 . S
C1938 C1936 1.381 . S
C1938 C1939 1.394 . S
C1938 H1946 0.930 . S
C1939 C1938 1.394 . S
C1939 C1940 1.383 . S
C1939 H1947 0.929 . S
C1940 C1939 1.383 . S
C1940 C1941 1.377 . S
C1941 H1925 0.930 . S
C1941 C1940 1.377 . S
C1941 C1942 1.379 . S
C1942 H1926 0.931 . S
C1942 C1936 1.383 . S
C1942 C1941 1.379 . S
H1943 C1937 0.959 1_554 S
H1944 C1937 0.961 . S
H1945 C1937 0.960 . S
H1946 C1938 0.930 . S
H1947 C1939 0.929 . S
H1948 C1956 0.929 . S
H1949 C1958 0.930 . S
H1950 C1960 0.930 . S
H1951 C1963 0.929 . S
H1952 C1966 0.930 . S
H1953 C1968 0.960 . S
H1954 C1968 0.960 . S
H1955 C1968 0.960 . S
C1956 H1948 0.929 . S
C1956 C1957 1.377 . S
C1956 C1958 1.384 . S
C1957 C1956 1.377 . S
C1957 C1963 1.390 . S
C1958 H1949 0.930 . S
C1958 C1956 1.384 . S
C1958 C1959 1.372 . S
C1959 C1958 1.372 . S
C1959 C1960 1.400 . S
C1959 C1964 1.490 . S
C1960 H1950 0.930 . S
C1960 C1959 1.400 . S
C1960 C1963 1.386 . S
H1961 C1977 0.930 . S
H1962 C1978 0.931 . S
C1963 H1951 0.929 . S
C1963 C1957 1.390 . S
C1963 C1960 1.386 . S
C1964 C1959 1.490 . S
C1964 C1966 1.395 . S
C1964 C1967 1.403 . S
H1965 C1971 0.930 . S
C1966 H1952 0.930 . S
C1966 C1964 1.395 . S
C1966 C1969 1.403 . S
C1967 C1964 1.403 . S
C1967 C1968 1.524 . S
C1967 C1971 1.400 . S
C1968 H1953 0.960 . S
C1968 H1954 0.960 . S
C1968 H1955 0.960 . S
C1968 C1967 1.524 . S
C1969 C1966 1.403 . S
C1969 C1970 1.392 . S
C1969 C1973 1.495 . S
C1970 C1969 1.392 . S
C1970 C1971 1.385 . S
C1970 C1972 1.478 . S
C1971 H1965 0.930 . S
C1971 C1967 1.400 . S
C1971 C1970 1.385 . S
C1972 C1970 1.478 . S
C1972 C1974 1.381 1_655 S
C1972 C1978 1.383 . S
C1973 C1969 1.495 . S
C1973 H1979 0.959 . S
C1973 H1980 0.961 . S
C1973 H1981 0.960 . S
C1974 C1972 1.381 1_455 S
C1974 C1975 1.394 . S
C1974 H1982 0.930 1_455 S
C1975 C1974 1.394 . S
C1975 C1976 1.383 . S
C1975 H1983 0.929 . S
C1976 C1975 1.383 . S
C1976 C1977 1.377 . S
C1977 H1961 0.930 . S
C1977 C1976 1.377 . S
C1977 C1978 1.379 1_455 S
C1978 H1962 0.931 . S
C1978 C1972 1.383 . S
C1978 C1977 1.379 1_655 S
H1979 C1973 0.959 . S
H1980 C1973 0.961 . S
H1981 C1973 0.960 . S
H1982 C1974 0.930 1_655 S
H1983 C1975 0.929 . S
H1984 C1992 0.929 . S
H1985 C1994 0.930 . S
H1986 C1996 0.930 . S
H1987 C1999 0.929 . S
H1988 C2002 0.930 . S
H1989 C2004 0.960 . S
H1990 C2004 0.960 . S
H1991 C2004 0.960 . S
C1992 H1984 0.929 . S
C1992 C1993 1.377 . S
C1992 C1994 1.384 . S
C1993 C1992 1.377 . S
C1993 C1999 1.390 . S
C1994 H1985 0.930 . S
C1994 C1992 1.384 . S
C1994 C1995 1.372 . S
C1995 C1994 1.372 . S
C1995 C1996 1.400 . S
C1995 C2000 1.490 . S
C1996 H1986 0.930 . S
C1996 C1995 1.400 . S
C1996 C1999 1.386 . S
H1997 C2013 0.930 . S
H1998 C2014 0.931 . S
C1999 H1987 0.929 . S
C1999 C1993 1.390 . S
C1999 C1996 1.386 . S
C2000 C1995 1.490 . S
C2000 C2002 1.395 . S
C2000 C2003 1.403 . S
H2001 C2007 0.930 . S
C2002 H1988 0.930 . S
C2002 C2000 1.395 . S
C2002 C2005 1.403 . S
C2003 C2000 1.403 . S
C2003 C2004 1.524 . S
C2003 C2007 1.400 . S
C2004 H1989 0.960 . S
C2004 H1990 0.960 . S
C2004 H1991 0.960 . S
C2004 C2003 1.524 . S
C2005 C2002 1.403 . S
C2005 C2006 1.392 . S
C2005 C2009 1.495 . S
C2006 C2005 1.392 . S
C2006 C2007 1.385 . S
C2006 C2008 1.478 . S
C2007 H2001 0.930 . S
C2007 C2003 1.400 . S
C2007 C2006 1.385 . S
C2008 C2006 1.478 . S
C2008 C2010 1.381 . S
C2008 C2014 1.383 . S
C2009 C2005 1.495 . S
C2009 H2015 0.959 . S
C2009 H2016 0.961 . S
C2009 H2017 0.960 . S
C2010 C2008 1.381 . S
C2010 C2011 1.394 . S
C2010 H2018 0.930 . S
C2011 C2010 1.394 . S
C2011 C2012 1.383 . S
C2011 H2019 0.929 . S
C2012 C2011 1.383 . S
C2012 C2013 1.377 . S
C2013 H1997 0.930 . S
C2013 C2012 1.377 . S
C2013 C2014 1.379 . S
C2014 H1998 0.931 . S
C2014 C2008 1.383 . S
C2014 C2013 1.379 . S
H2015 C2009 0.959 . S
H2016 C2009 0.961 . S
H2017 C2009 0.960 . S
H2018 C2010 0.930 . S
H2019 C2011 0.929 . S
H2020 C2028 0.929 . S
H2021 C2030 0.930 . S
H2022 C2032 0.930 . S
H2023 C2035 0.929 . S
H2024 C2038 0.930 . S
H2025 C2040 0.960 . S
H2026 C2040 0.960 . S
H2027 C2040 0.960 . S
C2028 H2020 0.929 . S
C2028 C2029 1.377 . S
C2028 C2030 1.384 . S
C2029 C2028 1.377 . S
C2029 C2035 1.390 . S
C2030 H2021 0.930 . S
C2030 C2028 1.384 . S
C2030 C2031 1.372 . S
C2031 C2030 1.372 . S
C2031 C2032 1.400 . S
C2031 C2036 1.490 . S
C2032 H2022 0.930 . S
C2032 C2031 1.400 . S
C2032 C2035 1.386 . S
H2033 C2049 0.930 . S
H2034 C2050 0.931 . S
C2035 H2023 0.929 . S
C2035 C2029 1.390 . S
C2035 C2032 1.386 . S
C2036 C2031 1.490 . S
C2036 C2038 1.395 . S
C2036 C2039 1.403 . S
H2037 C2043 0.930 . S
C2038 H2024 0.930 . S
C2038 C2036 1.395 . S
C2038 C2041 1.403 . S
C2039 C2036 1.403 . S
C2039 C2040 1.524 . S
C2039 C2043 1.400 . S
C2040 H2025 0.960 . S
C2040 H2026 0.960 . S
C2040 H2027 0.960 . S
C2040 C2039 1.524 . S
C2041 C2038 1.403 . S
C2041 C2042 1.392 . S
C2041 C2045 1.495 . S
C2042 C2041 1.392 . S
C2042 C2043 1.385 . S
C2042 C2044 1.478 . S
C2043 H2037 0.930 . S
C2043 C2039 1.400 . S
C2043 C2042 1.385 . S
C2044 C2042 1.478 . S
C2044 C2046 1.381 . S
C2044 C2050 1.383 . S
C2045 C2041 1.495 . S
C2045 H2051 0.959 . S
C2045 H2052 0.961 . S
C2045 H2053 0.960 . S
C2046 C2044 1.381 . S
C2046 C2047 1.394 . S
C2046 H2054 0.930 . S
C2047 C2046 1.394 . S
C2047 C2048 1.383 . S
C2047 H2055 0.929 . S
C2048 C2047 1.383 . S
C2048 C2049 1.377 . S
C2049 H2033 0.930 . S
C2049 C2048 1.377 . S
C2049 C2050 1.379 . S
C2050 H2034 0.931 . S
C2050 C2044 1.383 . S
C2050 C2049 1.379 . S
H2051 C2045 0.959 . S
H2052 C2045 0.961 . S
H2053 C2045 0.960 . S
H2054 C2046 0.930 . S
H2055 C2047 0.929 . S
H2056 C2064 0.929 . S
H2057 C2066 0.930 . S
H2058 C2068 0.930 . S
H2059 C2071 0.929 . S
H2060 C2074 0.930 . S
H2061 C2076 0.960 1_556 S
H2062 C2076 0.960 . S
H2063 C2076 0.960 . S
C2064 H2056 0.929 . S
C2064 C2065 1.377 . S
C2064 C2066 1.384 1_554 S
C2065 C2064 1.377 . S
C2065 C2071 1.390 . S
C2066 H2057 0.930 . S
C2066 C2064 1.384 1_556 S
C2066 C2067 1.372 . S
C2067 C2066 1.372 . S
C2067 C2068 1.400 1_556 S
C2067 C2072 1.490 . S
C2068 H2058 0.930 . S
C2068 C2067 1.400 1_554 S
C2068 C2071 1.386 . S
H2069 C2085 0.930 . S
H2070 C2086 0.931 . S
C2071 H2059 0.929 . S
C2071 C2065 1.390 . S
C2071 C2068 1.386 . S
C2072 C2067 1.490 . S
C2072 C2074 1.395 . S
C2072 C2075 1.403 . S
H2073 C2079 0.930 . S
C2074 H2060 0.930 . S
C2074 C2072 1.395 . S
C2074 C2077 1.403 . S
C2075 C2072 1.403 . S
C2075 C2076 1.524 1_556 S
C2075 C2079 1.400 . S
C2076 H2061 0.960 1_554 S
C2076 H2062 0.960 . S
C2076 H2063 0.960 . S
C2076 C2075 1.524 1_554 S
C2077 C2074 1.403 . S
C2077 C2078 1.392 . S
C2077 C2081 1.495 . S
C2078 C2077 1.392 . S
C2078 C2079 1.385 . S
C2078 C2080 1.478 . S
C2079 H2073 0.930 . S
C2079 C2075 1.400 . S
C2079 C2078 1.385 . S
C2080 C2078 1.478 . S
C2080 C2082 1.381 . S
C2080 C2086 1.383 . S
C2081 C2077 1.495 . S
C2081 H2087 0.959 . S
C2081 H2088 0.961 . S
C2081 H2089 0.960 . S
C2082 C2080 1.381 . S
C2082 C2083 1.394 . S
C2082 H2090 0.930 . S
C2083 C2082 1.394 . S
C2083 C2084 1.383 . S
C2083 H2091 0.929 . S
C2084 C2083 1.383 . S
C2084 C2085 1.377 . S
C2085 H2069 0.930 . S
C2085 C2084 1.377 . S
C2085 C2086 1.379 . S
C2086 H2070 0.931 . S
C2086 C2080 1.383 . S
C2086 C2085 1.379 . S
H2087 C2081 0.959 . S
H2088 C2081 0.961 . S
H2089 C2081 0.960 . S
H2090 C2082 0.930 . S
H2091 C2083 0.929 . S
H2092 C2100 0.929 . S
H2093 C2102 0.930 . S
H2094 C2104 0.930 . S
H2095 C2107 0.929 . S
H2096 C2110 0.930 . S
H2097 C2112 0.960 . S
H2098 C2112 0.960 . S
H2099 C2112 0.960 . S
C2100 H2092 0.929 . S
C2100 C2101 1.377 . S
C2100 C2102 1.384 . S
C2101 C2100 1.377 . S
C2101 C2107 1.390 . S
C2102 H2093 0.930 . S
C2102 C2100 1.384 . S
C2102 C2103 1.372 . S
C2103 C2102 1.372 . S
C2103 C2104 1.400 . S
C2103 C2108 1.490 . S
C2104 H2094 0.930 . S
C2104 C2103 1.400 . S
C2104 C2107 1.386 . S
H2105 C2121 0.930 . S
H2106 C2122 0.931 . S
C2107 H2095 0.929 . S
C2107 C2101 1.390 . S
C2107 C2104 1.386 . S
C2108 C2103 1.490 . S
C2108 C2110 1.395 . S
C2108 C2111 1.403 1_455 S
H2109 C2115 0.930 . S
C2110 H2096 0.930 . S
C2110 C2108 1.395 . S
C2110 C2113 1.403 . S
C2111 C2108 1.403 1_655 S
C2111 C2112 1.524 . S
C2111 C2115 1.400 . S
C2112 H2097 0.960 . S
C2112 H2098 0.960 . S
C2112 H2099 0.960 . S
C2112 C2111 1.524 . S
C2113 C2110 1.403 . S
C2113 C2114 1.392 1_455 S
C2113 C2117 1.495 . S
C2114 C2113 1.392 1_655 S
C2114 C2115 1.385 . S
C2114 C2116 1.478 . S
C2115 H2109 0.930 . S
C2115 C2111 1.400 . S
C2115 C2114 1.385 . S
C2116 C2114 1.478 . S
C2116 C2118 1.381 . S
C2116 C2122 1.383 . S
C2117 C2113 1.495 . S
C2117 H2123 0.959 . S
C2117 H2124 0.961 . S
C2117 H2125 0.960 . S
C2118 C2116 1.381 . S
C2118 C2119 1.394 1_554 S
C2118 H2126 0.930 . S
C2119 C2118 1.394 1_556 S
C2119 C2120 1.383 . S
C2119 H2127 0.929 . S
C2120 C2119 1.383 . S
C2120 C2121 1.377 1_556 S
C2121 H2105 0.930 . S
C2121 C2120 1.377 1_554 S
C2121 C2122 1.379 . S
C2122 H2106 0.931 . S
C2122 C2116 1.383 . S
C2122 C2121 1.379 . S
H2123 C2117 0.959 . S
H2124 C2117 0.961 . S
H2125 C2117 0.960 . S
H2126 C2118 0.930 . S
H2127 C2119 0.929 . S
H2128 C2136 0.929 . S
H2129 C2138 0.930 . S
H2130 C2140 0.930 . S
H2131 C2143 0.929 . S
H2132 C2146 0.930 . S
H2133 C2148 0.960 1_556 S
H2134 C2148 0.960 . S
H2135 C2148 0.960 . S
C2136 H2128 0.929 . S
C2136 C2137 1.377 . S
C2136 C2138 1.384 . S
C2137 C2136 1.377 . S
C2137 C2143 1.390 . S
C2138 H2129 0.930 . S
C2138 C2136 1.384 . S
C2138 C2139 1.372 . S
C2139 C2138 1.372 . S
C2139 C2140 1.400 . S
C2139 C2144 1.490 . S
C2140 H2130 0.930 . S
C2140 C2139 1.400 . S
C2140 C2143 1.386 . S
H2141 C2157 0.930 . S
H2142 C2158 0.931 . S
C2143 H2131 0.929 . S
C2143 C2137 1.390 . S
C2143 C2140 1.386 . S
C2144 C2139 1.490 . S
C2144 C2146 1.395 . S
C2144 C2147 1.403 . S
H2145 C2151 0.930 1_556 S
C2146 H2132 0.930 . S
C2146 C2144 1.395 . S
C2146 C2149 1.403 . S
C2147 C2144 1.403 . S
C2147 C2148 1.524 . S
C2147 C2151 1.400 . S
C2148 H2133 0.960 1_554 S
C2148 H2134 0.960 . S
C2148 H2135 0.960 . S
C2148 C2147 1.524 . S
C2149 C2146 1.403 . S
C2149 C2150 1.392 . S
C2149 C2153 1.495 . S
C2150 C2149 1.392 . S
C2150 C2151 1.385 . S
C2150 C2152 1.478 1_554 S
C2151 H2145 0.930 1_554 S
C2151 C2147 1.400 . S
C2151 C2150 1.385 . S
C2152 C2150 1.478 1_556 S
C2152 C2154 1.381 . S
C2152 C2158 1.383 . S
C2153 C2149 1.495 . S
C2153 H2159 0.959 . S
C2153 H2160 0.961 . S
C2153 H2161 0.960 . S
C2154 C2152 1.381 . S
C2154 C2155 1.394 . S
C2154 H2162 0.930 . S
C2155 C2154 1.394 . S
C2155 C2156 1.383 . S
C2155 H2163 0.929 . S
C2156 C2155 1.383 . S
C2156 C2157 1.377 . S
C2157 H2141 0.930 . S
C2157 C2156 1.377 . S
C2157 C2158 1.379 . S
C2158 H2142 0.931 . S
C2158 C2152 1.383 . S
C2158 C2157 1.379 . S
H2159 C2153 0.959 . S
H2160 C2153 0.961 . S
H2161 C2153 0.960 . S
H2162 C2154 0.930 . S
H2163 C2155 0.929 . S
H2164 C2172 0.929 . S
H2165 C2174 0.930 . S
H2166 C2176 0.930 . S
H2167 C2179 0.929 . S
H2168 C2182 0.930 . S
H2169 C2184 0.960 . S
H2170 C2184 0.960 . S
H2171 C2184 0.960 . S
C2172 H2164 0.929 . S
C2172 C2173 1.377 . S
C2172 C2174 1.384 . S
C2173 C2172 1.377 . S
C2173 C2179 1.390 . S
C2174 H2165 0.930 . S
C2174 C2172 1.384 . S
C2174 C2175 1.372 . S
C2175 C2174 1.372 . S
C2175 C2176 1.400 . S
C2175 C2180 1.490 . S
C2176 H2166 0.930 . S
C2176 C2175 1.400 . S
C2176 C2179 1.386 . S
H2177 C2193 0.930 . S
H2178 C2194 0.931 . S
C2179 H2167 0.929 . S
C2179 C2173 1.390 . S
C2179 C2176 1.386 . S
C2180 C2175 1.490 . S
C2180 C2182 1.395 . S
C2180 C2183 1.403 1_655 S
H2181 C2187 0.930 . S
C2182 H2168 0.930 . S
C2182 C2180 1.395 . S
C2182 C2185 1.403 . S
C2183 C2180 1.403 1_455 S
C2183 C2184 1.524 . S
C2183 C2187 1.400 . S
C2184 H2169 0.960 . S
C2184 H2170 0.960 . S
C2184 H2171 0.960 . S
C2184 C2183 1.524 . S
C2185 C2182 1.403 . S
C2185 C2186 1.392 1_655 S
C2185 C2189 1.495 . S
C2186 C2185 1.392 1_455 S
C2186 C2187 1.385 . S
C2186 C2188 1.478 . S
C2187 H2181 0.930 . S
C2187 C2183 1.400 . S
C2187 C2186 1.385 . S
C2188 C2186 1.478 . S
C2188 C2190 1.381 . S
C2188 C2194 1.383 . S
C2189 C2185 1.495 . S
C2189 H2195 0.959 . S
C2189 H2196 0.961 . S
C2189 H2197 0.960 . S
C2190 C2188 1.381 . S
C2190 C2191 1.394 . S
C2190 H2198 0.930 . S
C2191 C2190 1.394 . S
C2191 C2192 1.383 . S
C2191 H2199 0.929 . S
C2192 C2191 1.383 . S
C2192 C2193 1.377 . S
C2193 H2177 0.930 . S
C2193 C2192 1.377 . S
C2193 C2194 1.379 . S
C2194 H2178 0.931 . S
C2194 C2188 1.383 . S
C2194 C2193 1.379 . S
H2195 C2189 0.959 . S
H2196 C2189 0.961 . S
H2197 C2189 0.960 . S
H2198 C2190 0.930 . S
H2199 C2191 0.929 . S
H2200 C2208 0.929 . S
H2201 C2210 0.930 . S
H2202 C2212 0.930 . S
H2203 C2215 0.929 . S
H2204 C2218 0.930 . S
H2205 C2220 0.960 . S
H2206 C2220 0.960 . S
H2207 C2220 0.960 . S
C2208 H2200 0.929 . S
C2208 C2209 1.377 . S
C2208 C2210 1.384 . S
C2209 C2208 1.377 . S
C2209 C2215 1.390 . S
C2210 H2201 0.930 . S
C2210 C2208 1.384 . S
C2210 C2211 1.372 . S
C2211 C2210 1.372 . S
C2211 C2212 1.400 . S
C2211 C2216 1.490 . S
C2212 H2202 0.930 . S
C2212 C2211 1.400 . S
C2212 C2215 1.386 . S
H2213 C2229 0.930 . S
H2214 C2230 0.931 . S
C2215 H2203 0.929 . S
C2215 C2209 1.390 . S
C2215 C2212 1.386 . S
C2216 C2211 1.490 . S
C2216 C2218 1.395 . S
C2216 C2219 1.403 . S
H2217 C2223 0.930 . S
C2218 H2204 0.930 . S
C2218 C2216 1.395 . S
C2218 C2221 1.403 . S
C2219 C2216 1.403 . S
C2219 C2220 1.524 . S
C2219 C2223 1.400 . S
C2220 H2205 0.960 . S
C2220 H2206 0.960 . S
C2220 H2207 0.960 . S
C2220 C2219 1.524 . S
C2221 C2218 1.403 . S
C2221 C2222 1.392 . S
C2221 C2225 1.495 . S
C2222 C2221 1.392 . S
C2222 C2223 1.385 . S
C2222 C2224 1.478 . S
C2223 H2217 0.930 . S
C2223 C2219 1.400 . S
C2223 C2222 1.385 . S
C2224 C2222 1.478 . S
C2224 C2226 1.381 . S
C2224 C2230 1.383 . S
C2225 C2221 1.495 . S
C2225 H2231 0.959 . S
C2225 H2232 0.961 . S
C2225 H2233 0.960 . S
C2226 C2224 1.381 . S
C2226 C2227 1.394 . S
C2226 H2234 0.930 . S
C2227 C2226 1.394 . S
C2227 C2228 1.383 . S
C2227 H2235 0.929 . S
C2228 C2227 1.383 . S
C2228 C2229 1.377 . S
C2229 H2213 0.930 . S
C2229 C2228 1.377 . S
C2229 C2230 1.379 . S
C2230 H2214 0.931 . S
C2230 C2224 1.383 . S
C2230 C2229 1.379 . S
H2231 C2225 0.959 . S
H2232 C2225 0.961 . S
H2233 C2225 0.960 . S
H2234 C2226 0.930 . S
H2235 C2227 0.929 . S
H2236 C2244 0.929 . S
H2237 C2246 0.930 . S
H2238 C2248 0.930 . S
H2239 C2251 0.929 . S
H2240 C2254 0.930 . S
H2241 C2256 0.960 . S
H2242 C2256 0.960 . S
H2243 C2256 0.960 . S
C2244 H2236 0.929 . S
C2244 C2245 1.377 1_556 S
C2244 C2246 1.384 . S
C2245 C2244 1.377 1_554 S
C2245 C2251 1.390 . S
C2246 H2237 0.930 . S
C2246 C2244 1.384 . S
C2246 C2247 1.372 . S
C2247 C2246 1.372 . S
C2247 C2248 1.400 . S
C2247 C2252 1.490 . S
C2248 H2238 0.930 . S
C2248 C2247 1.400 . S
C2248 C2251 1.386 1_556 S
H2249 C2265 0.930 . S
H2250 C2266 0.931 . S
C2251 H2239 0.929 . S
C2251 C2245 1.390 . S
C2251 C2248 1.386 1_554 S
C2252 C2247 1.490 . S
C2252 C2254 1.395 . S
C2252 C2255 1.403 . S
H2253 C2259 0.930 . S
C2254 H2240 0.930 . S
C2254 C2252 1.395 . S
C2254 C2257 1.403 . S
C2255 C2252 1.403 . S
C2255 C2256 1.524 . S
C2255 C2259 1.400 . S
C2256 H2241 0.960 . S
C2256 H2242 0.960 . S
C2256 H2243 0.960 . S
C2256 C2255 1.524 . S
C2257 C2254 1.403 . S
C2257 C2258 1.392 . S
C2257 C2261 1.495 . S
C2258 C2257 1.392 . S
C2258 C2259 1.385 . S
C2258 C2260 1.478 . S
C2259 H2253 0.930 . S
C2259 C2255 1.400 . S
C2259 C2258 1.385 . S
C2260 C2258 1.478 . S
C2260 C2262 1.381 . S
C2260 C2266 1.383 . S
C2261 C2257 1.495 . S
C2261 H2267 0.959 . S
C2261 H2268 0.961 . S
C2261 H2269 0.960 . S
C2262 C2260 1.381 . S
C2262 C2263 1.394 . S
C2262 H2270 0.930 . S
C2263 C2262 1.394 . S
C2263 C2264 1.383 . S
C2263 H2271 0.929 . S
C2264 C2263 1.383 . S
C2264 C2265 1.377 . S
C2265 H2249 0.930 . S
C2265 C2264 1.377 . S
C2265 C2266 1.379 . S
C2266 H2250 0.931 . S
C2266 C2260 1.383 . S
C2266 C2265 1.379 . S
H2267 C2261 0.959 . S
H2268 C2261 0.961 . S
H2269 C2261 0.960 . S
H2270 C2262 0.930 . S
H2271 C2263 0.929 . S
H2272 C2280 0.929 . S
H2273 C2282 0.930 . S
H2274 C2284 0.930 . S
H2275 C2287 0.929 . S
H2276 C2290 0.930 . S
H2277 C2292 0.960 . S
H2278 C2292 0.960 . S
H2279 C2292 0.960 . S
C2280 H2272 0.929 . S
C2280 C2281 1.377 . S
C2280 C2282 1.384 . S
C2281 C2280 1.377 . S
C2281 C2287 1.390 . S
C2282 H2273 0.930 . S
C2282 C2280 1.384 . S
C2282 C2283 1.372 . S
C2283 C2282 1.372 . S
C2283 C2284 1.400 . S
C2283 C2288 1.490 . S
C2284 H2274 0.930 . S
C2284 C2283 1.400 . S
C2284 C2287 1.386 . S
H2285 C2301 0.930 . S
H2286 C2302 0.931 . S
C2287 H2275 0.929 . S
C2287 C2281 1.390 . S
C2287 C2284 1.386 . S
C2288 C2283 1.490 . S
C2288 C2290 1.395 . S
C2288 C2291 1.403 . S
H2289 C2295 0.930 . S
C2290 H2276 0.930 . S
C2290 C2288 1.395 . S
C2290 C2293 1.403 . S
C2291 C2288 1.403 . S
C2291 C2292 1.524 . S
C2291 C2295 1.400 . S
C2292 H2277 0.960 . S
C2292 H2278 0.960 . S
C2292 H2279 0.960 . S
C2292 C2291 1.524 . S
C2293 C2290 1.403 . S
C2293 C2294 1.392 . S
C2293 C2297 1.495 . S
C2294 C2293 1.392 . S
C2294 C2295 1.385 . S
C2294 C2296 1.478 . S
C2295 H2289 0.930 . S
C2295 C2291 1.400 . S
C2295 C2294 1.385 . S
C2296 C2294 1.478 . S
C2296 C2298 1.381 . S
C2296 C2302 1.383 . S
C2297 C2293 1.495 . S
C2297 H2303 0.959 . S
C2297 H2304 0.961 . S
C2297 H2305 0.960 . S
C2298 C2296 1.381 . S
C2298 C2299 1.394 . S
C2298 H2306 0.930 . S
C2299 C2298 1.394 . S
C2299 C2300 1.383 . S
C2299 H2307 0.929 . S
C2300 C2299 1.383 . S
C2300 C2301 1.377 . S
C2301 H2285 0.930 . S
C2301 C2300 1.377 . S
C2301 C2302 1.379 . S
C2302 H2286 0.931 . S
C2302 C2296 1.383 . S
C2302 C2301 1.379 . S
H2303 C2297 0.959 . S
H2304 C2297 0.961 . S
H2305 C2297 0.960 . S
H2306 C2298 0.930 . S
H2307 C2299 0.929 . S
H2308 C2316 0.929 . S
H2309 C2318 0.930 . S
H2310 C2320 0.930 . S
H2311 C2323 0.929 . S
H2312 C2326 0.930 . S
H2313 C2328 0.960 . S
H2314 C2328 0.960 . S
H2315 C2328 0.960 . S
C2316 H2308 0.929 . S
C2316 C2317 1.377 . S
C2316 C2318 1.384 . S
C2317 C2316 1.377 . S
C2317 C2323 1.390 . S
C2318 H2309 0.930 . S
C2318 C2316 1.384 . S
C2318 C2319 1.372 . S
C2319 C2318 1.372 . S
C2319 C2320 1.400 . S
C2319 C2324 1.490 . S
C2320 H2310 0.930 . S
C2320 C2319 1.400 . S
C2320 C2323 1.386 . S
H2321 C2337 0.930 . S
H2322 C2338 0.931 . S
C2323 H2311 0.929 . S
C2323 C2317 1.390 . S
C2323 C2320 1.386 . S
C2324 C2319 1.490 . S
C2324 C2326 1.395 . S
C2324 C2327 1.403 . S
H2325 C2331 0.930 . S
C2326 H2312 0.930 . S
C2326 C2324 1.395 . S
C2326 C2329 1.403 . S
C2327 C2324 1.403 . S
C2327 C2328 1.524 . S
C2327 C2331 1.400 . S
C2328 H2313 0.960 . S
C2328 H2314 0.960 . S
C2328 H2315 0.960 . S
C2328 C2327 1.524 . S
C2329 C2326 1.403 . S
C2329 C2330 1.392 . S
C2329 C2333 1.495 . S
C2330 C2329 1.392 . S
C2330 C2331 1.385 . S
C2330 C2332 1.478 . S
C2331 H2325 0.930 . S
C2331 C2327 1.400 . S
C2331 C2330 1.385 . S
C2332 C2330 1.478 . S
C2332 C2334 1.381 . S
C2332 C2338 1.383 . S
C2333 C2329 1.495 . S
C2333 H2339 0.959 . S
C2333 H2340 0.961 . S
C2333 H2341 0.960 . S
C2334 C2332 1.381 . S
C2334 C2335 1.394 . S
C2334 H2342 0.930 . S
C2335 C2334 1.394 . S
C2335 C2336 1.383 . S
C2335 H2343 0.929 . S
C2336 C2335 1.383 . S
C2336 C2337 1.377 . S
C2337 H2321 0.930 . S
C2337 C2336 1.377 . S
C2337 C2338 1.379 . S
C2338 H2322 0.931 . S
C2338 C2332 1.383 . S
C2338 C2337 1.379 . S
H2339 C2333 0.959 . S
H2340 C2333 0.961 . S
H2341 C2333 0.960 . S
H2342 C2334 0.930 . S
H2343 C2335 0.929 . S
H2344 C2352 0.929 . S
H2345 C2354 0.930 . S
H2346 C2356 0.930 . S
H2347 C2359 0.929 . S
H2348 C2362 0.930 . S
H2349 C2364 0.960 . S
H2350 C2364 0.960 . S
H2351 C2364 0.960 . S
C2352 H2344 0.929 . S
C2352 C2353 1.377 . S
C2352 C2354 1.384 . S
C2353 C2352 1.377 . S
C2353 C2359 1.390 . S
C2354 H2345 0.930 . S
C2354 C2352 1.384 . S
C2354 C2355 1.372 . S
C2355 C2354 1.372 . S
C2355 C2356 1.400 . S
C2355 C2360 1.490 . S
C2356 H2346 0.930 . S
C2356 C2355 1.400 . S
C2356 C2359 1.386 . S
H2357 C2373 0.930 . S
H2358 C2374 0.931 . S
C2359 H2347 0.929 . S
C2359 C2353 1.390 . S
C2359 C2356 1.386 . S
C2360 C2355 1.490 . S
C2360 C2362 1.395 . S
C2360 C2363 1.403 . S
H2361 C2367 0.930 . S
C2362 H2348 0.930 . S
C2362 C2360 1.395 . S
C2362 C2365 1.403 . S
C2363 C2360 1.403 . S
C2363 C2364 1.524 . S
C2363 C2367 1.400 . S
C2364 H2349 0.960 . S
C2364 H2350 0.960 . S
C2364 H2351 0.960 . S
C2364 C2363 1.524 . S
C2365 C2362 1.403 . S
C2365 C2366 1.392 . S
C2365 C2369 1.495 . S
C2366 C2365 1.392 . S
C2366 C2367 1.385 . S
C2366 C2368 1.478 . S
C2367 H2361 0.930 . S
C2367 C2363 1.400 . S
C2367 C2366 1.385 . S
C2368 C2366 1.478 . S
C2368 C2370 1.381 1_554 S
C2368 C2374 1.383 . S
C2369 C2365 1.495 . S
C2369 H2375 0.959 . S
C2369 H2376 0.961 . S
C2369 H2377 0.960 . S
C2370 C2368 1.381 1_556 S
C2370 C2371 1.394 . S
C2370 H2378 0.930 . S
C2371 C2370 1.394 . S
C2371 C2372 1.383 . S
C2371 H2379 0.929 . S
C2372 C2371 1.383 . S
C2372 C2373 1.377 . S
C2373 H2357 0.930 . S
C2373 C2372 1.377 . S
C2373 C2374 1.379 1_556 S
C2374 H2358 0.931 . S
C2374 C2368 1.383 . S
C2374 C2373 1.379 1_554 S
H2375 C2369 0.959 . S
H2376 C2369 0.961 . S
H2377 C2369 0.960 . S
H2378 C2370 0.930 . S
H2379 C2371 0.929 . S
H2380 C2388 0.929 . S
H2381 C2390 0.930 . S
H2382 C2392 0.930 . S
H2383 C2395 0.929 . S
H2384 C2398 0.930 . S
H2385 C2400 0.960 . S
H2386 C2400 0.960 . S
H2387 C2400 0.960 . S
C2388 H2380 0.929 . S
C2388 C2389 1.377 1_556 S
C2388 C2390 1.384 . S
C2389 C2388 1.377 1_554 S
C2389 C2395 1.390 . S
C2390 H2381 0.930 . S
C2390 C2388 1.384 . S
C2390 C2391 1.372 . S
C2391 C2390 1.372 . S
C2391 C2392 1.400 . S
C2391 C2396 1.490 . S
C2392 H2382 0.930 . S
C2392 C2391 1.400 . S
C2392 C2395 1.386 1_556 S
H2393 C2409 0.930 . S
H2394 C2410 0.931 . S
C2395 H2383 0.929 . S
C2395 C2389 1.390 . S
C2395 C2392 1.386 1_554 S
C2396 C2391 1.490 . S
C2396 C2398 1.395 . S
C2396 C2399 1.403 1_455 S
H2397 C2403 0.930 . S
C2398 H2384 0.930 . S
C2398 C2396 1.395 . S
C2398 C2401 1.403 . S
C2399 C2396 1.403 1_655 S
C2399 C2400 1.524 . S
C2399 C2403 1.400 . S
C2400 H2385 0.960 . S
C2400 H2386 0.960 . S
C2400 H2387 0.960 . S
C2400 C2399 1.524 . S
C2401 C2398 1.403 . S
C2401 C2402 1.392 1_455 S
C2401 C2405 1.495 . S
C2402 C2401 1.392 1_655 S
C2402 C2403 1.385 . S
C2402 C2404 1.478 . S
C2403 H2397 0.930 . S
C2403 C2399 1.400 . S
C2403 C2402 1.385 . S
C2404 C2402 1.478 . S
C2404 C2406 1.381 . S
C2404 C2410 1.383 . S
C2405 C2401 1.495 . S
C2405 H2411 0.959 . S
C2405 H2412 0.961 . S
C2405 H2413 0.960 . S
C2406 C2404 1.381 . S
C2406 C2407 1.394 . S
C2406 H2414 0.930 . S
C2407 C2406 1.394 . S
C2407 C2408 1.383 . S
C2407 H2415 0.929 . S
C2408 C2407 1.383 . S
C2408 C2409 1.377 . S
C2409 H2393 0.930 . S
C2409 C2408 1.377 . S
C2409 C2410 1.379 . S
C2410 H2394 0.931 . S
C2410 C2404 1.383 . S
C2410 C2409 1.379 . S
H2411 C2405 0.959 . S
H2412 C2405 0.961 . S
H2413 C2405 0.960 . S
H2414 C2406 0.930 . S
H2415 C2407 0.929 . S
H2416 C2424 0.929 . S
H2417 C2426 0.930 . S
H2418 C2428 0.930 . S
H2419 C2431 0.929 . S
H2420 C2434 0.930 . S
H2421 C2436 0.960 . S
H2422 C2436 0.960 . S
H2423 C2436 0.960 . S
C2424 H2416 0.929 . S
C2424 C2425 1.377 . S
C2424 C2426 1.384 . S
C2425 C2424 1.377 . S
C2425 C2431 1.390 . S
C2426 H2417 0.930 . S
C2426 C2424 1.384 . S
C2426 C2427 1.372 . S
C2427 C2426 1.372 . S
C2427 C2428 1.400 . S
C2427 C2432 1.490 . S
C2428 H2418 0.930 . S
C2428 C2427 1.400 . S
C2428 C2431 1.386 . S
H2429 C2445 0.930 . S
H2430 C2446 0.931 1_556 S
C2431 H2419 0.929 . S
C2431 C2425 1.390 . S
C2431 C2428 1.386 . S
C2432 C2427 1.490 . S
C2432 C2434 1.395 . S
C2432 C2435 1.403 . S
H2433 C2439 0.930 . S
C2434 H2420 0.930 . S
C2434 C2432 1.395 . S
C2434 C2437 1.403 . S
C2435 C2432 1.403 . S
C2435 C2436 1.524 . S
C2435 C2439 1.400 . S
C2436 H2421 0.960 . S
C2436 H2422 0.960 . S
C2436 H2423 0.960 . S
C2436 C2435 1.524 . S
C2437 C2434 1.403 . S
C2437 C2438 1.392 . S
C2437 C2441 1.495 . S
C2438 C2437 1.392 . S
C2438 C2439 1.385 . S
C2438 C2440 1.478 1_556 S
C2439 H2433 0.930 . S
C2439 C2435 1.400 . S
C2439 C2438 1.385 . S
C2440 C2438 1.478 1_554 S
C2440 C2442 1.381 . S
C2440 C2446 1.383 . S
C2441 C2437 1.495 . S
C2441 H2447 0.959 . S
C2441 H2448 0.961 . S
C2441 H2449 0.960 . S
C2442 C2440 1.381 . S
C2442 C2443 1.394 . S
C2442 H2450 0.930 . S
C2443 C2442 1.394 . S
C2443 C2444 1.383 . S
C2443 H2451 0.929 . S
C2444 C2443 1.383 . S
C2444 C2445 1.377 . S
C2445 H2429 0.930 . S
C2445 C2444 1.377 . S
C2445 C2446 1.379 . S
C2446 H2430 0.931 1_554 S
C2446 C2440 1.383 . S
C2446 C2445 1.379 . S
H2447 C2441 0.959 . S
H2448 C2441 0.961 . S
H2449 C2441 0.960 . S
H2450 C2442 0.930 . S
H2451 C2443 0.929 . S
H2452 C2460 0.929 . S
H2453 C2462 0.930 . S
H2454 C2464 0.930 . S
H2455 C2467 0.929 . S
H2456 C2470 0.930 . S
H2457 C2472 0.960 . S
H2458 C2472 0.960 . S
H2459 C2472 0.960 . S
C2460 H2452 0.929 . S
C2460 C2461 1.377 . S
C2460 C2462 1.384 . S
C2461 C2460 1.377 . S
C2461 C2467 1.390 . S
C2462 H2453 0.930 . S
C2462 C2460 1.384 . S
C2462 C2463 1.372 . S
C2463 C2462 1.372 . S
C2463 C2464 1.400 . S
C2463 C2468 1.490 . S
C2464 H2454 0.930 . S
C2464 C2463 1.400 . S
C2464 C2467 1.386 . S
H2465 C2481 0.930 . S
H2466 C2482 0.931 . S
C2467 H2455 0.929 . S
C2467 C2461 1.390 . S
C2467 C2464 1.386 . S
C2468 C2463 1.490 . S
C2468 C2470 1.395 1_655 S
C2468 C2471 1.403 . S
H2469 C2475 0.930 1_655 S
C2470 H2456 0.930 . S
C2470 C2468 1.395 1_455 S
C2470 C2473 1.403 . S
C2471 C2468 1.403 . S
C2471 C2472 1.524 . S
C2471 C2475 1.400 1_655 S
C2472 H2457 0.960 . S
C2472 H2458 0.960 . S
C2472 H2459 0.960 . S
C2472 C2471 1.524 . S
C2473 C2470 1.403 . S
C2473 C2474 1.392 . S
C2473 C2477 1.495 . S
C2474 C2473 1.392 . S
C2474 C2475 1.385 . S
C2474 C2476 1.478 . S
C2475 H2469 0.930 1_455 S
C2475 C2471 1.400 1_455 S
C2475 C2474 1.385 . S
C2476 C2474 1.478 . S
C2476 C2478 1.381 . S
C2476 C2482 1.383 . S
C2477 C2473 1.495 . S
C2477 H2483 0.959 . S
C2477 H2484 0.961 . S
C2477 H2485 0.960 . S
C2478 C2476 1.381 . S
C2478 C2479 1.394 . S
C2478 H2486 0.930 . S
C2479 C2478 1.394 . S
C2479 C2480 1.383 . S
C2479 H2487 0.929 . S
C2480 C2479 1.383 . S
C2480 C2481 1.377 . S
C2481 H2465 0.930 . S
C2481 C2480 1.377 . S
C2481 C2482 1.379 . S
C2482 H2466 0.931 . S
C2482 C2476 1.383 . S
C2482 C2481 1.379 . S
H2483 C2477 0.959 . S
H2484 C2477 0.961 . S
H2485 C2477 0.960 . S
H2486 C2478 0.930 . S
H2487 C2479 0.929 . S
H2488 C2496 0.929 . S
H2489 C2498 0.930 . S
H2490 C2500 0.930 . S
H2491 C2503 0.929 . S
H2492 C2506 0.930 . S
H2493 C2508 0.960 . S
H2494 C2508 0.960 . S
H2495 C2508 0.960 . S
C2496 H2488 0.929 . S
C2496 C2497 1.377 . S
C2496 C2498 1.384 . S
C2497 C2496 1.377 . S
C2497 C2503 1.390 . S
C2498 H2489 0.930 . S
C2498 C2496 1.384 . S
C2498 C2499 1.372 . S
C2499 C2498 1.372 . S
C2499 C2500 1.400 . S
C2499 C2504 1.490 . S
C2500 H2490 0.930 . S
C2500 C2499 1.400 . S
C2500 C2503 1.386 . S
H2501 C2517 0.930 . S
H2502 C2518 0.931 . S
C2503 H2491 0.929 . S
C2503 C2497 1.390 . S
C2503 C2500 1.386 . S
C2504 C2499 1.490 . S
C2504 C2506 1.395 . S
C2504 C2507 1.403 . S
H2505 C2511 0.930 . S
C2506 H2492 0.930 . S
C2506 C2504 1.395 . S
C2506 C2509 1.403 . S
C2507 C2504 1.403 . S
C2507 C2508 1.524 . S
C2507 C2511 1.400 . S
C2508 H2493 0.960 . S
C2508 H2494 0.960 . S
C2508 H2495 0.960 . S
C2508 C2507 1.524 . S
C2509 C2506 1.403 . S
C2509 C2510 1.392 . S
C2509 C2513 1.495 . S
C2510 C2509 1.392 . S
C2510 C2511 1.385 . S
C2510 C2512 1.478 . S
C2511 H2505 0.930 . S
C2511 C2507 1.400 . S
C2511 C2510 1.385 . S
C2512 C2510 1.478 . S
C2512 C2514 1.381 . S
C2512 C2518 1.383 . S
C2513 C2509 1.495 . S
C2513 H2519 0.959 . S
C2513 H2520 0.961 . S
C2513 H2521 0.960 . S
C2514 C2512 1.381 . S
C2514 C2515 1.394 . S
C2514 H2522 0.930 . S
C2515 C2514 1.394 . S
C2515 C2516 1.383 . S
C2515 H2523 0.929 . S
C2516 C2515 1.383 . S
C2516 C2517 1.377 . S
C2517 H2501 0.930 . S
C2517 C2516 1.377 . S
C2517 C2518 1.379 . S
C2518 H2502 0.931 . S
C2518 C2512 1.383 . S
C2518 C2517 1.379 . S
H2519 C2513 0.959 . S
H2520 C2513 0.961 . S
H2521 C2513 0.960 . S
H2522 C2514 0.930 . S
H2523 C2515 0.929 . S
H2524 C2532 0.929 . S
H2525 C2534 0.930 . S
H2526 C2536 0.930 . S
H2527 C2539 0.944 . S
H2528 C2542 0.930 . S
H2529 C2544 0.960 . S
H2530 C2544 0.960 . S
H2531 C2544 0.960 . S
C2532 H2524 0.929 . S
C2532 C2533 1.377 1_554 S
C2532 C2534 1.384 . S
C2533 C2532 1.377 1_556 S
C2533 C2539 1.394 . S
C2534 H2525 0.930 . S
C2534 C2532 1.384 . S
C2534 C2535 1.372 . S
C2535 C2534 1.372 . S
C2535 C2536 1.400 . S
C2535 C2540 1.490 . S
C2536 H2526 0.930 . S
C2536 C2535 1.400 . S
C2536 C2539 1.367 1_554 S
H2537 C2553 0.930 . S
H2538 C2554 0.931 . S
C2539 H2527 0.944 . S
C2539 C2533 1.394 . S
C2539 C2536 1.367 1_556 S
C2540 C2535 1.490 . S
C2540 C2542 1.395 . S
C2540 C2543 1.403 . S
H2541 C2547 0.930 . S
C2542 H2528 0.930 . S
C2542 C2540 1.395 . S
C2542 C2545 1.403 . S
C2543 C2540 1.403 . S
C2543 C2544 1.524 . S
C2543 C2547 1.400 . S
C2544 H2529 0.960 . S
C2544 H2530 0.960 . S
C2544 H2531 0.960 . S
C2544 C2543 1.524 . S
C2545 C2542 1.403 . S
C2545 C2546 1.392 . S
C2545 C2549 1.495 . S
C2546 C2545 1.392 . S
C2546 C2547 1.385 . S
C2546 C2548 1.478 . S
C2547 H2541 0.930 . S
C2547 C2543 1.400 . S
C2547 C2546 1.385 . S
C2548 C2546 1.478 . S
C2548 C2550 1.381 . S
C2548 C2554 1.383 . S
C2549 C2545 1.495 . S
C2549 H2555 0.959 . S
C2549 H2556 0.961 . S
C2549 H2557 0.960 . S
C2550 C2548 1.381 . S
C2550 C2551 1.394 . S
C2550 H2558 0.930 . S
C2551 C2550 1.394 . S
C2551 C2552 1.383 . S
C2551 H2559 0.929 . S
C2552 C2551 1.383 . S
C2552 C2553 1.377 . S
C2553 H2537 0.930 . S
C2553 C2552 1.377 . S
C2553 C2554 1.379 . S
C2554 H2538 0.931 . S
C2554 C2548 1.383 . S
C2554 C2553 1.379 . S
H2555 C2549 0.959 . S
H2556 C2549 0.961 . S
H2557 C2549 0.960 . S
H2558 C2550 0.930 . S
H2559 C2551 0.929 . S
C553 C266 0.313 . S
C572 C28 0.555 . S
C589 C142 0.280 . S
C608 C40 0.240 . S
C625 C176 0.478 . S
C644 C96 0.251 . S
C661 C210 0.310 . S
C680 C108 0.213 . S
C697 C278 0.465 . S
C716 C538 0.341 . S
C733 C312 0.304 . S
C752 C436 0.275 . S
C769 C470 0.474 . S
C788 C368 0.232 . S
C805 C482 0.280 . S
C824 C402 0.219 . S
C841 C232 1.398 . S
C860 C6 1.320 . S
C877 C37 1.069 . S
C896 C244 1.173 . S
C913 C164 2.079 . S
C932 C69 1.876 . S
C949 C173 1.647 . S
C968 C105 1.645 . S
C985 C300 1.364 . S
C1004 C504 1.399 . S
C1021 C516 1.184 . S
C1040 C309 1.111 . S
C1057 C341 1.893 . S
C1076 C414 2.076 . S
C1093 C375 1.619 . S
C1112 C443 1.615 . S
C1129 C62 1.394 . S
C1148 C198 1.342 . S
C1165 C207 1.050 . S
C1184 C74 1.196 . S
C1201 C130 2.076 . S
C1220 C239 1.920 . S
C1237 C139 1.631 . S
C1256 C1 1.643 . S
C1273 C448 1.363 . S
C1292 C334 1.416 . S
C1309 C346 1.185 . S
C1328 C479 1.117 . S
C1345 C511 1.905 . S
C1364 C380 2.080 . S
C1381 C275 1.640 . S
C1400 C409 1.590 . S
C1417 C328 1.425 . S
C1436 C17 1.421 . S
C1453 C525 1.580 1_655 S
C1472 C35 1.532 . S
C1489 C71 1.795 . S
C1508 C389 1.849 . S
C1525 C464 0.767 . S
C1544 C103 0.793 . S
C1561 C532 1.282 . S
C1580 C153 1.610 . S
C1597 C396 1.579 1_556 S
C1616 C171 1.832 . S
C1633 C221 2.374 . S
C1652 C457 2.388 . S
C1669 C255 1.326 . S
C1688 C321 1.016 . S
C1705 C56 1.424 . S
C1724 C289 1.421 . S
C1741 C307 1.528 . S
C1760 C253 1.572 1_455 S
C1777 C124 1.854 . S
C1796 C343 1.773 . S
C1813 C377 0.836 . S
C1832 C185 0.794 . S
C1849 C260 1.284 . S
C1868 C425 1.599 . S
C1885 C117 1.571 1_554 S
C1904 C445 1.835 . S
C1921 C493 2.372 . S
C1940 C192 2.391 . S
C1957 C49 1.075 . S
C1976 C527 1.327 . S
C1993 C498 1.425 . S
C2012 C187 1.410 . S
C2029 C355 1.582 . S
C2048 C205 1.513 . S
C2065 C241 1.796 . S
C2084 C423 1.851 . S
C2101 C137 0.839 . S
C2120 C287 0.752 . S
C2137 C362 1.289 . S
C2156 C119 1.605 . S
C2173 C430 1.561 . S
C2192 C3 1.809 . S
C2209 C294 2.396 . S
C2228 C51 2.373 . S
C2245 C491 1.064 . S
C2264 C85 1.327 . S
C2281 C226 1.425 . S
C2300 C459 1.422 . S
C2317 C83 1.580 . S
C2336 C477 1.528 . S
C2353 C158 1.852 . S
C2372 C513 1.809 . S
C2389 C22 0.794 . S
C2408 C411 0.826 . S
C2425 C90 1.287 . S
C2444 C391 1.598 . S
C2461 C273 1.828 . S
C2480 C151 1.603 . S
C2497 C15 2.396 . S
C2516 C323 2.379 . S
C2533 C219 1.077 . S
C2552 C357 1.326 . S
