# Generated by pormake.
# Topology ukg, (4)-cn, num edge types: 1
# Building blocks:
#     Node 0, Type 0, BuildingBlock: QUQFOY_clean_sbu_3, # of connection points: 4
#     Node 1, Type 0, BuildingBlock: QUQFOY_clean_sbu_3, # of connection points: 4
#     Node 2, Type 0, BuildingBlock: QUQFOY_clean_sbu_3, # of connection points: 4
#     Node 3, Type 0, BuildingBlock: QUQFOY_clean_sbu_3, # of connection points: 4
#     Node 4, Type 0, BuildingBlock: QUQFOY_clean_sbu_3, # of connection points: 4
#     Node 5, Type 0, BuildingBlock: QUQFOY_clean_sbu_3, # of connection points: 4
#     Node 6, Type 0, BuildingBlock: QUQFOY_clean_sbu_3, # of connection points: 4
#     Node 7, Type 0, BuildingBlock: QUQFOY_clean_sbu_3, # of connection points: 4
#     Edge 8, Type (0, 0), BuildingBlock: MIFKUJ_clean_linker_0, # of connection points: 2
#     Edge 9, Type (0, 0), BuildingBlock: MIFKUJ_clean_linker_0, # of connection points: 2
#     Edge 10, Type (0, 0), BuildingBlock: MIFKUJ_clean_linker_0, # of connection points: 2
#     Edge 11, Type (0, 0), BuildingBlock: MIFKUJ_clean_linker_0, # of connection points: 2
#     Edge 12, Type (0, 0), BuildingBlock: MIFKUJ_clean_linker_0, # of connection points: 2
#     Edge 13, Type (0, 0), BuildingBlock: MIFKUJ_clean_linker_0, # of connection points: 2
#     Edge 14, Type (0, 0), BuildingBlock: MIFKUJ_clean_linker_0, # of connection points: 2
#     Edge 15, Type (0, 0), BuildingBlock: MIFKUJ_clean_linker_0, # of connection points: 2
#     Edge 16, Type (0, 0), BuildingBlock: MIFKUJ_clean_linker_0, # of connection points: 2
#     Edge 17, Type (0, 0), BuildingBlock: MIFKUJ_clean_linker_0, # of connection points: 2
#     Edge 18, Type (0, 0), BuildingBlock: MIFKUJ_clean_linker_0, # of connection points: 2
#     Edge 19, Type (0, 0), BuildingBlock: MIFKUJ_clean_linker_0, # of connection points: 2
#     Edge 20, Type (0, 0), BuildingBlock: MIFKUJ_clean_linker_0, # of connection points: 2
#     Edge 21, Type (0, 0), BuildingBlock: MIFKUJ_clean_linker_0, # of connection points: 2
#     Edge 22, Type (0, 0), BuildingBlock: MIFKUJ_clean_linker_0, # of connection points: 2
#     Edge 23, Type (0, 0), BuildingBlock: MIFKUJ_clean_linker_0, # of connection points: 2
# Relax obj value: 0.116
# Max RMSD: 0.204
# Mean RMSD: 0.201
data_MOF--net-ukg--node1-QUQFOY_clean_sbu_3--edge1-MIFKUJ_clean_linker_0
_symmetry_space_group_name_H-M    P1
_symmetry_Int_Tables_number       1
_symmetry_cell_setting            triclinic
loop_
_symmetry_equiv_pos_as_xyz
'x, y, z'
_cell_length_a     39.233901
_cell_length_b     39.278337
_cell_length_c     50.472555
_cell_angle_alpha  90.107486
_cell_angle_beta   90.092434
_cell_angle_gamma 89.998495
loop_
_atom_site_label
_atom_site_type_symbol
_atom_site_fract_x
_atom_site_fract_y
_atom_site_fract_z
_atom_type_partial_charge
C0 C 0.08434 0.65796 0.17906 0.0
O1 O 0.07483 0.648 0.20177 0.0
Cd2 Cd 0.01507 0.64728 0.21169 0.0
O3 O 0.06286 0.66158 0.16034 0.0
Cd4 Cd 0.00226 0.65058 0.15017 0.0
C5 C 0.99171 0.72399 0.18215 0.0
O6 O 0.98628 0.60801 0.18344 0.0
O7 O 0.94557 0.63749 0.16595 0.0
O8 O 0.02137 0.61415 0.11409 0.0
C9 C 0.95448 0.61328 0.18102 0.0
O10 O -0.00305 0.70597 0.20276 0.0
C11 C 0.00071 0.62601 0.09706 0.0
O12 O 0.99331 0.71081 0.1591 0.0
O13 O 0.98141 0.6502 0.10447 0.0
C14 C 0.37296 0.61395 0.72746 0.0
O15 O 0.37972 0.60058 0.74972 0.0
Cd16 Cd 0.38368 0.54023 0.75421 0.0
O17 O 0.3727 0.59579 0.70652 0.0
Cd18 Cd 0.3848 0.53639 0.69269 0.0
C19 C 0.30961 0.51943 0.72059 0.0
O20 O 0.42711 0.51814 0.72559 0.0
O21 O 0.3977 0.47861 0.70654 0.0
O22 O 0.41986 0.55853 0.6565 0.0
C23 C 0.42233 0.48661 0.72158 0.0
O24 O 0.32579 0.52142 0.74247 0.0
C25 C 0.40783 0.53838 0.63914 0.0
O26 O 0.32463 0.52516 0.69873 0.0
O27 O 0.38476 0.51786 0.64658 0.0
C28 C 0.40591 0.8279 0.17891 0.0
O29 O 0.41343 0.84073 0.20126 0.0
Cd30 Cd 0.47272 0.84434 0.21252 0.0
O31 O 0.42859 0.82468 0.16109 0.0
Cd32 Cd 0.48823 0.83955 0.15128 0.0
C33 C 0.49696 0.76694 0.18392 0.0
O34 O 0.50343 0.88231 0.18457 0.0
O35 O 0.54422 0.85123 0.16881 0.0
O36 O 0.46813 0.87617 0.11591 0.0
C37 C 0.53514 0.87583 0.18351 0.0
O38 O 0.49046 0.78549 0.20406 0.0
C39 C 0.48834 0.86466 0.09843 0.0
O40 O 0.49729 0.77958 0.16068 0.0
O41 O 0.50832 0.84076 0.10536 0.0
C42 C 0.15052 0.89999 0.72279 0.0
O43 O 0.14305 0.91643 0.74372 0.0
Cd44 Cd 0.11755 0.97215 0.74491 0.0
O45 O 0.14258 0.91154 0.70003 0.0
Cd46 Cd 0.11468 0.96137 0.6798 0.0
C47 C 0.17975 0.00823 0.70593 0.0
O48 O 0.07224 0.97288 0.71367 0.0
O49 O 0.07843 0.01135 0.68371 0.0
O50 O 0.0847 0.92684 0.6468 0.0
C51 C 0.06331 0.00154 0.70451 0.0
O52 O 0.16502 0.00583 0.72834 0.0
C53 C 0.09666 0.94293 0.62704 0.0
O54 O 0.16759 0.99348 0.68547 0.0
O55 O 0.1177 0.96671 0.63197 0.0
C56 C 0.96423 0.42505 0.75703 0.0
O57 O 0.94369 0.41332 0.73978 0.0
Cd58 Cd 0.89744 0.37531 0.75067 0.0
O59 O 0.9598 0.41899 0.78158 0.0
Cd60 Cd 0.92324 0.39188 0.81507 0.0
C61 C 0.94548 0.3162 0.78673 0.0
O62 O 0.87158 0.39639 0.78972 0.0
O63 O 0.86583 0.37391 0.82814 0.0
O64 O 0.93467 0.44432 0.83894 0.0
C65 C 0.85276 0.38005 0.80568 0.0
O66 O 0.92863 0.32596 0.76648 0.0
C67 C 0.94086 0.43002 0.86099 0.0
O68 O 0.94849 0.33508 0.80725 0.0
O69 O 0.93872 0.39771 0.86179 0.0
C70 C 0.57651 0.44954 0.28772 0.0
O71 O 0.58867 0.42182 0.27875 0.0
Cd72 Cd 0.62516 0.38441 0.30453 0.0
O73 O 0.58206 0.45858 0.31157 0.0
Cd74 Cd 0.61068 0.44153 0.35266 0.0
C75 C 0.68577 0.44568 0.319 0.0
O76 O 0.60364 0.38033 0.34845 0.0
O77 O 0.63548 0.39802 0.38041 0.0
O78 O 0.56048 0.463 0.37561 0.0
C79 C 0.62347 0.37306 0.36754 0.0
O80 O 0.67707 0.41796 0.30767 0.0
C81 C 0.57723 0.47868 0.39342 0.0
O82 O 0.66569 0.46101 0.33496 0.0
O83 O 0.60955 0.47806 0.39171 0.0
C84 C 0.52431 0.08667 0.75944 0.0
O85 O 0.54674 0.09951 0.74427 0.0
Cd86 Cd 0.60052 0.12353 0.75853 0.0
O87 O 0.52939 0.0846 0.78433 0.0
Cd88 Cd 0.57107 0.09716 0.81955 0.0
C89 C 0.5676 0.18173 0.80329 0.0
O90 O 0.62081 0.08834 0.7928 0.0
O91 O 0.63096 0.10309 0.83286 0.0
O92 O 0.55226 0.04432 0.84015 0.0
C93 C 0.64234 0.09914 0.80957 0.0
O94 O 0.58436 0.17483 0.78233 0.0
C95 C 0.54871 0.05721 0.86311 0.0
O96 O 0.55705 0.15848 0.81893 0.0
O97 O 0.55539 0.08873 0.8657 0.0
C98 C 0.92254 0.04201 0.28297 0.0
O99 O 0.90668 0.06891 0.27637 0.0
Cd100 Cd 0.86728 0.0989 0.30543 0.0
O101 O 0.91903 0.02947 0.30603 0.0
Cd102 Cd 0.88983 0.03744 0.34826 0.0
C103 C 0.81419 0.02993 0.31601 0.0
O104 O 0.88545 0.09889 0.3503 0.0
O105 O 0.85441 0.07019 0.37753 0.0
O106 O 0.94114 0.02631 0.37369 0.0
C107 C 0.86204 0.09886 0.3677 0.0
O108 O 0.81924 0.06 0.30737 0.0
C109 C 0.92922 0.00073 0.38598 0.0
O110 O 0.8369 0.01396 0.32925 0.0
O111 O 0.89889 0.99179 0.38035 0.0
H112 H 0.93082 0.4132 0.91276 0.0
H113 H 0.94236 0.4484 0.95178 0.0
H114 H 0.98459 0.5266 0.90153 0.0
H115 H 0.97103 0.49235 0.86246 0.0
H116 H 0.99387 0.47145 0.97492 0.0
H117 H 0.9745 0.60427 0.92687 0.0
H118 H 0.94092 0.63067 0.89099 0.0
H119 H 0.86534 0.55213 0.89794 0.0
H120 H 0.89825 0.52552 0.93406 0.0
H121 H 0.04911 0.59084 0.06959 0.0
H122 H 0.04181 0.56022 0.02773 0.0
H123 H 0.93687 0.59315 0.02421 0.0
H124 H 0.94482 0.6255 0.06512 0.0
H125 H 0.9587 0.59271 0.97774 0.0
H126 H 0.96371 0.51095 0.04781 0.0
H127 H 0.98809 0.48165 0.08665 0.0
H128 H 0.07577 0.45298 0.04094 0.0
H129 H 0.05209 0.48248 0.0019 0.0
C130 C 0.94251 0.43794 0.91011 0.0
C131 C 0.94969 0.45026 0.88464 0.0
C132 C 0.94921 0.45802 0.93241 0.0
C133 C 0.9638 0.49053 0.92967 0.0
C134 C 0.97235 0.50214 0.90421 0.0
C135 C 0.9648 0.48246 0.88188 0.0
C136 C 0.96977 0.51226 0.95341 0.0
C137 C 0.98615 0.49796 0.9755 0.0
C138 C 0.95919 0.54674 0.9545 0.0
C139 C 0.93904 0.56273 0.93297 0.0
C140 C 0.95066 0.59271 0.92079 0.0
C141 C 0.93176 0.60769 0.9004 0.0
C142 C 0.90108 0.59302 0.89213 0.0
C143 C 0.88917 0.5634 0.9043 0.0
C144 C 0.90796 0.54834 0.92471 0.0
C145 C 0.02466 0.59189 0.05962 0.0
C146 C -0.00253 0.61038 0.07059 0.0
C147 C 0.0204 0.57415 0.03582 0.0
C148 C 0.98851 0.57355 0.02308 0.0
C149 C 0.96171 0.59308 0.03361 0.0
C150 C 0.96624 0.61157 0.05702 0.0
C151 C 0.98262 0.55185 -0.00069 0.0
C152 C 0.96644 0.5662 0.97715 0.0
C153 C 0.99199 0.517 -0.00139 0.0
C154 C 0.00629 0.49922 0.02203 0.0
C155 C 0.9883 0.49859 0.0461 0.0
C156 C 0.00197 0.48192 0.06814 0.0
C157 C 0.0335 0.46555 0.06629 0.0
C158 C 0.05138 0.46573 0.04236 0.0
C159 C 0.03784 0.48239 0.02027 0.0
H160 H 0.04404 0.45266 0.08337 0.0
H161 H 0.8865 0.60464 0.87633 0.0
H162 H 0.41162 0.48361 0.60651 0.0
H163 H 0.43873 0.48032 0.56314 0.0
H164 H 0.45959 0.58827 0.56623 0.0
H165 H 0.43471 0.59093 0.61066 0.0
H166 H 0.42922 0.50186 0.51795 0.0
H167 H 0.52931 0.60882 0.53159 0.0
H168 H 0.56184 0.63684 0.56741 0.0
H169 H 0.55336 0.54692 0.61521 0.0
H170 H 0.52114 0.51827 0.57957 0.0
H171 H 0.51382 0.5072 0.39527 0.0
H172 H 0.48314 0.52652 0.43475 0.0
H173 H 0.57019 0.50038 0.48315 0.0
H174 H 0.6016 0.48373 0.44355 0.0
H175 H 0.54427 0.55087 0.50403 0.0
H176 H 0.4959 0.44595 0.47241 0.0
H177 H 0.46858 0.4074 0.44009 0.0
H178 H 0.38269 0.47481 0.4346 0.0
H179 H 0.40971 0.51395 0.46668 0.0
C180 C 0.42195 0.50663 0.59787 0.0
C181 C 0.42141 0.53744 0.61195 0.0
C182 C 0.43736 0.50479 0.57301 0.0
C183 C 0.45183 0.53392 0.56142 0.0
C184 C 0.44963 0.56518 0.57498 0.0
C185 C 0.43519 0.56677 0.60027 0.0
C186 C 0.46994 0.53103 0.53559 0.0
C187 C 0.45437 0.51267 0.51495 0.0
C188 C 0.50297 0.54467 0.53157 0.0
C189 C 0.52246 0.56161 0.55306 0.0
C190 C 0.53446 0.59504 0.54974 0.0
C191 C 0.55283 0.61102 0.57 0.0
C192 C 0.55954 0.59372 0.59361 0.0
C193 C 0.54802 0.56035 0.59697 0.0
C194 C 0.52968 0.54424 0.57675 0.0
C195 C 0.5265 0.50625 0.41433 0.0
C196 C 0.55995 0.49388 0.41646 0.0
C197 C 0.50889 0.51699 0.43692 0.0
C198 C 0.52391 0.51406 0.46215 0.0
C199 C 0.55789 0.50295 0.46402 0.0
C200 C 0.57586 0.49334 0.44137 0.0
C201 C 0.50402 0.52076 0.48673 0.0
C202 C 0.51906 0.5402 0.507 0.0
C203 C 0.47129 0.50649 0.49097 0.0
C204 C 0.45499 0.48304 0.47168 0.0
C205 C 0.47129 0.45264 0.46416 0.0
C206 C 0.45585 0.43068 0.44591 0.0
C207 C 0.42397 0.43871 0.43523 0.0
C208 C 0.40742 0.46867 0.44285 0.0
C209 C 0.42277 0.49074 0.46106 0.0
H210 H 0.41206 0.42167 0.42111 0.0
H211 H 0.57375 0.60615 0.60928 0.0
H212 H 0.43873 0.90122 0.07361 0.0
H213 H 0.4422 0.92979 0.03073 0.0
H214 H 0.54519 0.89301 0.02113 0.0
H215 H 0.54105 0.86293 0.0633 0.0
H216 H 0.47733 0.97893 0.01563 0.0
H217 H 0.56878 0.8875 0.95821 0.0
H218 H 0.57931 0.82581 0.95402 0.0
H219 H 0.47699 0.80499 0.97932 0.0
H220 H 0.46569 0.86653 0.98331 0.0
H221 H 0.5598 0.07005 0.91542 0.0
H222 H 0.54394 0.03465 0.95311 0.0
H223 H 0.49601 0.96269 0.90004 0.0
H224 H 0.51368 -0.0028 0.86214 0.0
H225 H 0.52729 0.92886 0.93421 0.0
H226 H 0.44935 0.02041 0.94126 0.0
H227 H 0.42963 0.07997 0.94305 0.0
H228 H 0.48808 0.09651 0.01391 0.0
H229 H 0.50853 0.03716 0.01236 0.0
C230 C 0.4619 0.89881 0.06211 0.0
C231 C 0.48958 0.87977 0.0717 0.0
C232 C 0.46392 0.91526 0.03765 0.0
C233 C 0.49385 0.91342 0.02247 0.0
C234 C 0.52147 0.89418 0.03204 0.0
C235 C 0.51917 0.87711 0.05623 0.0
C236 C 0.49695 0.93323 0.99748 0.0
C237 C 0.48805 0.96787 0.99778 0.0
C238 C 0.50999 0.91875 0.97387 0.0
C239 C 0.5165 0.88166 0.97127 0.0
C240 C 0.54848 0.86977 0.96276 0.0
C241 C 0.55459 0.83482 0.96045 0.0
C242 C 0.52887 0.8115 0.96647 0.0
C243 C 0.49693 0.82308 0.97475 0.0
C244 C 0.49068 0.85799 0.97707 0.0
C245 C 0.54576 0.04674 0.91183 0.0
C246 C 0.53788 0.03639 0.8859 0.0
C247 C 0.53647 0.0266 0.9334 0.0
C248 C 0.51813 -0.00377 0.92956 0.0
C249 C 0.51011 0.98597 0.90359 0.0
C250 C 0.52012 0.00574 0.88195 0.0
C251 C 0.5084 0.97472 0.95258 0.0
C252 C 0.51616 0.93981 0.95195 0.0
C253 C 0.49289 0.98861 0.97551 0.0
C254 C 0.48067 0.02438 0.97657 0.0
C255 C 0.45819 0.03681 0.95712 0.0
C256 C 0.44685 0.07053 0.95811 0.0
C257 C 0.45764 0.09203 0.97855 0.0
C258 C 0.47975 0.07983 -0.00192 0.0
C259 C 0.49119 0.04614 0.99717 0.0
H260 H 0.44884 0.11813 0.97928 0.0
H261 H 0.53366 0.78446 0.96469 0.0
H262 H 0.99389 0.01539 0.40224 0.0
H263 H 0.02441 0.99153 0.43998 0.0
H264 H 0.94042 0.92337 0.45504 0.0
H265 H 0.90938 0.9476 0.41741 0.0
H266 H 0.9579 0.9567 0.49856 0.0
H267 H 0.0179 0.89267 0.43375 0.0
H268 H 0.05003 0.88251 0.39256 0.0
H269 H 0.13034 0.94781 0.42028 0.0
H270 H 0.09847 0.95879 0.46149 0.0
H271 H 0.04759 0.89787 0.61086 0.0
H272 H 0.02174 0.89376 0.56679 0.0
H273 H 0.09163 0.96979 0.5378 0.0
H274 H 0.11784 0.97373 0.58158 0.0
H275 H 0.07914 0.9208 0.50045 0.0
H276 H 0.0142 0.99279 0.56018 0.0
H277 H 0.98205 0.00501 0.60107 0.0
H278 H 0.91091 0.92556 0.58194 0.0
H279 H 0.94295 0.91258 0.54109 0.0
C280 C 0.98208 0.99497 0.41331 0.0
C281 C 0.94913 0.98352 0.40694 0.0
C282 C -0.00031 0.98116 0.4348 0.0
C283 C 0.98485 0.95541 0.45021 0.0
C284 C 0.95239 0.94314 0.44336 0.0
C285 C 0.93471 0.957 0.42186 0.0
C286 C 0.00184 0.94401 0.47494 0.0
C287 C 0.98414 0.94796 0.49888 0.0
C288 C 0.0363 0.9333 0.47542 0.0
C289 C 0.05566 0.92671 0.45068 0.0
C290 C 0.0423 0.90507 0.431 0.0
C291 C 0.06049 0.89913 0.40765 0.0
C292 C 0.09218 0.91454 0.40379 0.0
C293 C 0.10578 0.93588 0.4233 0.0
C294 C 0.08768 0.94193 0.44668 0.0
C295 C 0.05788 0.91322 0.59497 0.0
C296 C 0.08446 0.93646 0.59977 0.0
C297 C 0.04305 0.91087 0.56982 0.0
C298 C 0.05445 0.93185 0.54915 0.0
C299 C 0.08242 0.9534 0.55348 0.0
C300 C 0.09726 0.95574 0.57857 0.0
C301 C 0.03531 0.93411 0.52388 0.0
C302 C 0.05264 0.92865 0.49994 0.0
C303 C 0.00051 0.94357 0.52331 0.0
C304 C 0.98119 0.95144 0.54779 0.0
C305 C 0.99185 0.97776 0.56481 0.0
C306 C 0.97364 0.98485 0.58796 0.0
C307 C 0.94452 0.96599 0.59415 0.0
C308 C 0.93351 0.94008 0.57716 0.0
C309 C 0.95168 0.93285 0.55401 0.0
H310 H 0.93044 0.97152 0.61207 0.0
H311 H 0.10623 0.90991 0.3857 0.0
H312 H 0.1055 0.70993 0.14817 0.0
H313 H 0.16234 0.7343 0.14565 0.0
H314 H 0.20026 0.65572 0.19776 0.0
H315 H 0.14237 0.63287 0.20194 0.0
H316 H 0.22664 0.70873 0.21282 0.0
H317 H 0.21988 0.66111 0.12747 0.0
H318 H 0.19583 0.64663 0.08372 0.0
H319 H 0.19528 0.75238 0.06234 0.0
H320 H 0.21889 0.76757 0.1061 0.0
H321 H 0.38915 0.77976 0.14236 0.0
H322 H 0.33707 0.74625 0.1402 0.0
H323 H 0.29403 0.80633 0.20358 0.0
H324 H 0.34703 0.83892 0.20677 0.0
H325 H 0.2756 0.7542 0.12955 0.0
H326 H 0.24459 0.76034 0.24287 0.0
H327 H 0.27587 0.76337 0.28527 0.0
H328 H 0.36438 0.72017 0.24822 0.0
H329 H 0.33353 0.71652 0.20571 0.0
C330 C 0.12608 0.69755 0.15877 0.0
C331 C 0.11969 0.66942 0.17513 0.0
C332 C 0.15871 0.71137 0.15719 0.0
C333 C 0.18598 0.69654 0.17107 0.0
C334 C 0.17974 0.66772 0.18686 0.0
C335 C 0.14676 0.65453 0.18914 0.0
C336 C 0.22029 0.71267 0.17046 0.0
C337 C 0.23739 0.71839 0.19454 0.0
C338 C 0.23518 0.7244 0.14658 0.0
C339 C 0.22096 0.71549 0.12017 0.0
C340 C 0.21442 0.68131 0.11351 0.0
C341 C 0.2009 0.67297 0.0887 0.0
C342 C 0.19398 0.69858 0.07028 0.0
C343 C 0.20064 0.73258 0.07663 0.0
C344 C 0.21415 0.74106 0.10143 0.0
C345 C 0.36846 0.78618 0.15564 0.0
C346 C 0.37226 0.81187 0.17488 0.0
C347 C 0.33865 0.76691 0.15439 0.0
C348 C 0.31185 0.77322 0.17209 0.0
C349 C 0.31476 0.80031 0.19022 0.0
C350 C 0.34489 0.81916 0.19186 0.0
C351 C 0.28123 0.751 0.17194 0.0
C352 C 0.26491 0.74418 0.14774 0.0
C353 C 0.26817 0.73647 0.19547 0.0
C354 C 0.28682 0.73849 0.22105 0.0
C355 C 0.27069 0.75139 0.2438 0.0
C356 C 0.28836 0.75324 0.26784 0.0
C357 C 0.32212 0.74208 0.26941 0.0
C358 C 0.33827 0.72895 0.24695 0.0
C359 C 0.32072 0.72704 0.22288 0.0
H360 H 0.33575 0.74354 0.28804 0.0
H361 H 0.1835 0.69207 0.05108 0.0
H362 H 0.34838 0.64838 0.68442 0.0
H363 H 0.31608 0.70137 0.68481 0.0
H364 H 0.33558 0.71271 0.76851 0.0
H365 H 0.36754 0.65937 0.76843 0.0
H366 H 0.26915 0.71535 0.75809 0.0
H367 H 0.3689 0.76877 0.72341 0.0
H368 H 0.41768 0.77627 0.69324 0.0
H369 H 0.34927 0.78622 0.62722 0.0
H370 H 0.30007 0.7783 0.65693 0.0
H371 H 0.18253 0.87454 0.76671 0.0
H372 H 0.22446 0.82867 0.76832 0.0
H373 H 0.21043 0.81059 0.68468 0.0
H374 H 0.1689 0.85682 0.68274 0.0
H375 H 0.27686 0.81395 0.69716 0.0
H376 H 0.17791 0.75608 0.73076 0.0
H377 H 0.12869 0.74751 0.76033 0.0
H378 H 0.19553 0.74497 0.82775 0.0
H379 H 0.24514 0.75397 0.79859 0.0
C380 C 0.34657 0.66252 0.70281 0.0
C381 C 0.36021 0.64939 0.72647 0.0
C382 C 0.32815 0.69293 0.70297 0.0
C383 C 0.32335 0.71095 0.72672 0.0
C384 C 0.33886 0.69909 0.75 0.0
C385 C 0.35722 0.66864 0.74988 0.0
C386 C 0.29905 0.73979 0.72779 0.0
C387 C 0.27123 0.73728 0.74514 0.0
C388 C 0.30124 0.76783 0.71033 0.0
C389 C 0.33079 0.77266 0.69239 0.0
C390 C 0.36425 0.77228 0.70243 0.0
C391 C 0.39199 0.77666 0.68541 0.0
C392 C 0.38658 0.78164 0.65833 0.0
C393 C 0.35342 0.78233 0.64821 0.0
C394 C 0.3256 0.77794 0.66513 0.0
C395 C 0.18793 0.86048 0.74872 0.0
C396 C 0.17229 0.86932 0.7246 0.0
C397 C 0.21196 0.83429 0.74968 0.0
C398 C 0.22049 0.81619 0.72663 0.0
C399 C 0.20431 0.82437 0.70267 0.0
C400 C 0.18041 0.85065 0.70165 0.0
C401 C 0.24693 0.78929 0.7273 0.0
C402 C 0.27504 0.79216 0.71026 0.0
C403 C 0.24499 0.76147 0.74496 0.0
C404 C 0.21519 0.75607 0.76252 0.0
C405 C 0.18208 0.75399 0.75191 0.0
C406 C 0.15412 0.74899 0.7686 0.0
C407 C 0.15897 0.7458 0.79591 0.0
C408 C 0.19181 0.7475 0.80659 0.0
C409 C 0.21986 0.75252 0.79 0.0
H410 H 0.13729 0.74192 0.80879 0.0
H411 H 0.40809 0.78503 0.64519 0.0
H412 H 0.66153 0.11722 0.75909 0.0
H413 H 0.6983 0.1654 0.74771 0.0
H414 H 0.728 0.17514 0.82963 0.0
H415 H 0.69033 0.12815 0.84138 0.0
H416 H 0.686 0.23283 0.77411 0.0
H417 H 0.80745 0.19889 0.82995 0.0
H418 H 0.84411 0.14927 0.8394 0.0
H419 H 0.81481 0.10372 0.76538 0.0
H420 H 0.77807 0.15313 0.7555 0.0
H421 H 0.80043 0.35693 0.83568 0.0
H422 H 0.76221 0.30966 0.82476 0.0
H423 H 0.8032 0.30615 0.74565 0.0
H424 H 0.84035 0.35444 0.75601 0.0
H425 H 0.81044 0.24473 0.78881 0.0
H426 H 0.73458 0.31697 0.73806 0.0
H427 H 0.69965 0.36872 0.73289 0.0
H428 H 0.63773 0.33873 0.79887 0.0
H429 H 0.67242 0.28683 0.80457 0.0
C430 C 0.67618 0.12931 0.77464 0.0
C431 C 0.67207 0.11967 0.80129 0.0
C432 C 0.69717 0.1568 0.76807 0.0
C433 C 0.71527 0.17406 0.78792 0.0
C434 C 0.71401 0.16218 0.81407 0.0
C435 C 0.69257 0.13523 0.82072 0.0
C436 C 0.73302 0.20635 0.78221 0.0
C437 C 0.71335 0.23539 0.77668 0.0
C438 C 0.76848 0.20959 0.78604 0.0
C439 C 0.7901 0.17965 0.792 0.0
C440 C 0.80885 0.17825 0.81572 0.0
C441 C 0.8296 0.15017 0.82116 0.0
C442 C 0.83178 0.12336 0.803 0.0
C443 C 0.81306 0.12449 0.77944 0.0
C444 C 0.79221 0.15247 0.77394 0.0
C445 C 0.80031 0.34699 0.81564 0.0
C446 C 0.82363 0.35914 0.79678 0.0
C447 C 0.77854 0.32 0.80946 0.0
C448 C 0.78013 0.30448 0.78449 0.0
C449 C 0.80159 0.31804 0.765 0.0
C450 C 0.82279 0.34565 0.77097 0.0
C451 C 0.76362 0.27111 0.78053 0.0
C452 C 0.78339 0.24196 0.78503 0.0
C453 C 0.72826 0.26789 0.77598 0.0
C454 C 0.70639 0.29823 0.77193 0.0
C455 C 0.71364 0.3215 0.75157 0.0
C456 C 0.69385 0.35083 0.74852 0.0
C457 C 0.66664 0.3571 0.76566 0.0
C458 C 0.65887 0.33383 0.78566 0.0
C459 C 0.67853 0.30441 0.78876 0.0
H460 H 0.65146 0.37991 0.76335 0.0
H461 H 0.84799 0.10172 0.80718 0.0
H462 H 0.65957 0.34995 0.40959 0.0
H463 H 0.69695 0.30046 0.41081 0.0
H464 H 0.66195 0.27057 0.33307 0.0
H465 H 0.62465 0.32064 0.33156 0.0
H466 H 0.69296 0.23368 0.40791 0.0
H467 H 0.73149 0.24566 0.29743 0.0
H468 H 0.73336 0.28994 0.26278 0.0
H469 H 0.74287 0.36736 0.32257 0.0
H470 H 0.74153 0.32362 0.35738 0.0
H471 H 0.79443 0.09313 0.37688 0.0
H472 H 0.75183 0.13789 0.37723 0.0
H473 H 0.83025 0.21291 0.36344 0.0
H474 H 0.87316 0.16733 0.36138 0.0
H475 H 0.77838 0.22874 0.33556 0.0
H476 H 0.79153 0.1995 0.42668 0.0
H477 H 0.7948 0.1616 0.4655 0.0
H478 H 0.6917 0.12916 0.45199 0.0
H479 H 0.68795 0.16656 0.41287 0.0
C480 C 0.65928 0.33246 0.39297 0.0
C481 C 0.63956 0.33935 0.37034 0.0
C482 C 0.68061 0.30414 0.39373 0.0
C483 C 0.6827 0.28224 0.37184 0.0
C484 C 0.66106 0.28754 0.35001 0.0
C485 C 0.63959 0.31596 0.34925 0.0
C486 C 0.7096 0.25581 0.37117 0.0
C487 C 0.7115 0.23237 0.39201 0.0
C488 C 0.73453 0.25503 0.35094 0.0
C489 C 0.73598 0.28139 0.32999 0.0
C490 C 0.73409 0.27214 0.30312 0.0
C491 C 0.73504 0.29716 0.28345 0.0
C492 C 0.73807 0.33149 0.29043 0.0
C493 C 0.74035 0.34084 0.3171 0.0
C494 C 0.73947 0.31594 0.33681 0.0
C495 C 0.80276 0.11919 0.3742 0.0
C496 C 0.83723 0.1269 0.36959 0.0
C497 C 0.77831 0.14482 0.37447 0.0
C498 C 0.78784 0.17893 0.37107 0.0
C499 C 0.8223 0.18677 0.36628 0.0
C500 C 0.8468 0.16085 0.36528 0.0
C501 C 0.76157 0.2061 0.37218 0.0
C502 C 0.75976 0.22975 0.35141 0.0
C503 C 0.7375 0.20795 0.39308 0.0
C504 C 0.73956 0.18564 0.41673 0.0
C505 C 0.76962 0.18413 0.4319 0.0
C506 C 0.77155 0.16276 0.45397 0.0
C507 C 0.7435 0.14293 0.46117 0.0
C508 C 0.71342 0.14451 0.44637 0.0
C509 C 0.71136 0.16583 0.42427 0.0
H510 H 0.74506 0.12639 0.47826 0.0
H511 H 0.73875 0.35081 0.27519 0.0
H512 H 0.70728 0.51125 0.32767 0.0
H513 H 0.75734 0.53881 0.30824 0.0
H514 H 0.78877 0.44287 0.27449 0.0
H515 H 0.73844 0.41554 0.29284 0.0
H516 H 0.82731 0.53165 0.3082 0.0
H517 H 0.81259 0.45766 0.20982 0.0
H518 H 0.76868 0.42449 0.18612 0.0
H519 H 0.68998 0.48208 0.22458 0.0
H520 H 0.73335 0.51671 0.24755 0.0
H521 H 0.96586 0.56581 0.2198 0.0
H522 H 0.923 0.53661 0.2468 0.0
H523 H 0.84306 0.59002 0.20534 0.0
H524 H 0.88549 0.61896 0.17824 0.0
H525 H 0.82872 0.52353 0.21004 0.0
H526 H 0.86661 0.61469 0.26658 0.0
H527 H 0.90907 0.64891 0.29095 0.0
H528 H 0.93798 0.56105 0.33623 0.0
H529 H 0.896 0.52618 0.31185 0.0
C530 C 0.72519 0.49591 0.31653 0.0
C531 C 0.71864 0.4613 0.31151 0.0
C532 C 0.75384 0.51167 0.30554 0.0
C533 C 0.77635 0.49296 0.28956 0.0
C534 C 0.77138 0.45785 0.28643 0.0
C535 C 0.74259 0.44225 0.29701 0.0
C536 C 0.80263 0.51064 0.27372 0.0
C537 C 0.82775 0.5298 0.28676 0.0
C538 C 0.80277 0.5086 0.24568 0.0
C539 C 0.77631 0.48949 0.23069 0.0
C540 C 0.78592 0.46356 0.21297 0.0
C541 C 0.76111 0.44457 0.1996 0.0
C542 C 0.72657 0.45122 0.20383 0.0
C543 C 0.71676 0.4771 0.22123 0.0
C544 C 0.74145 0.4965 0.23435 0.0
C545 C 0.93914 0.57121 0.21641 0.0
C546 C 0.92903 0.5947 0.19694 0.0
C547 C 0.91473 0.55467 0.23192 0.0
C548 C 0.8799 0.56141 0.22819 0.0
C549 C 0.86981 0.58449 0.20853 0.0
C550 C 0.89411 0.60104 0.1931 0.0
C551 C 0.85372 0.54426 0.2445 0.0
C552 C 0.82848 0.52522 0.2315 0.0
C553 C 0.85326 0.54681 0.27247 0.0
C554 C 0.87841 0.56776 0.28721 0.0
C555 C 0.88222 0.60261 0.28159 0.0
C556 C 0.90616 0.62213 0.29543 0.0
C557 C 0.92627 0.60714 0.31507 0.0
C558 C 0.92242 0.57261 0.32097 0.0
C559 C 0.89854 0.55296 0.30717 0.0
H560 H 0.94479 0.6223 0.32577 0.0
H561 H 0.7074 0.43631 0.19363 0.0
H562 H 0.40072 0.42281 0.73341 0.0
H563 H 0.43182 0.37847 0.75726 0.0
H564 H 0.51761 0.44604 0.76661 0.0
H565 H 0.48606 0.49122 0.74336 0.0
H566 H 0.52653 0.37407 0.74128 0.0
H567 H 0.48704 0.43374 0.8185 0.0
H568 H 0.4438 0.46225 0.84611 0.0
H569 H 0.38614 0.36949 0.85013 0.0
H570 H 0.42878 0.34055 0.82217 0.0
H571 H 0.60865 0.23701 0.79996 0.0
H572 H 0.59045 0.29642 0.79691 0.0
H573 H 0.48633 0.26571 0.81069 0.0
H574 H 0.50491 0.20653 0.81546 0.0
H575 H 0.4941 0.32683 0.82884 0.0
H576 H 0.52386 0.26987 0.74741 0.0
H577 H 0.56198 0.23875 0.71702 0.0
H578 H 0.63126 0.32336 0.71658 0.0
H579 H 0.59367 0.35481 0.74727 0.0
C580 C 0.42612 0.42835 0.74069 0.0
C581 C 0.4411 0.46037 0.73648 0.0
C582 C 0.44372 0.40309 0.75442 0.0
C583 C 0.47679 0.40921 0.76377 0.0
C584 C 0.49194 0.4411 0.75965 0.0
C585 C 0.47398 0.46675 0.7464 0.0
C586 C 0.49595 0.38111 0.77616 0.0
C587 C 0.52024 0.36418 0.76074 0.0
C588 C 0.48661 0.36781 0.80109 0.0
C589 C 0.46101 0.38505 0.81806 0.0
C590 C 0.46499 0.41949 0.82507 0.0
C591 C 0.44062 0.43572 0.84083 0.0
C592 C 0.4122 0.41771 0.84983 0.0
C593 C 0.40815 0.38341 0.84314 0.0
C594 C 0.43245 0.36707 0.82736 0.0
C595 C 0.58207 0.24323 0.80324 0.0
C596 C 0.55803 0.21742 0.80771 0.0
C597 C 0.57167 0.2771 0.80135 0.0
C598 C 0.53689 0.28542 0.80268 0.0
C599 C 0.51328 0.25993 0.8094 0.0
C600 C 0.52385 0.22613 0.81212 0.0
C601 C 0.5246 0.31931 0.79383 0.0
C602 C 0.50127 0.33715 0.80973 0.0
C603 C 0.53413 0.33306 0.76892 0.0
C604 C 0.55632 0.31443 0.75002 0.0
C605 C 0.54735 0.28173 0.74098 0.0
C606 C 0.56883 0.26405 0.7237 0.0
C607 C 0.59914 0.27899 0.71502 0.0
C608 C 0.60789 0.31175 0.72346 0.0
C609 C 0.58652 0.3295 0.7408 0.0
H610 H 0.61576 0.26525 0.70166 0.0
H611 H 0.39336 0.43032 0.86203 0.0
H612 H 0.52706 0.93499 0.21167 0.0
H613 H 0.56926 0.96266 0.2406 0.0
H614 H 0.64068 0.88177 0.22455 0.0
H615 H 0.59916 0.85437 0.19548 0.0
H616 H 0.63543 0.90131 0.27968 0.0
H617 H 0.64964 0.95046 0.19153 0.0
H618 H 0.62907 0.98087 0.1519 0.0
H619 H 0.60096 0.06657 0.2001 0.0
H620 H 0.62096 0.03641 0.24008 0.0
H621 H 0.80143 0.96236 0.30743 0.0
H622 H 0.74817 0.93723 0.29134 0.0
H623 H 0.69947 0.03571 0.29556 0.0
H624 H 0.75301 0.06104 0.31036 0.0
H625 H 0.68666 0.0105 0.25074 0.0
H626 H 0.67835 0.96706 0.33807 0.0
H627 H 0.69691 0.93831 0.379 0.0
H628 H 0.71025 0.84482 0.33603 0.0
H629 H 0.69223 0.87312 0.29474 0.0
C630 C 0.55174 0.92313 0.2144 0.0
C631 C 0.55993 0.89268 0.2012 0.0
C632 C 0.57571 0.93888 0.23092 0.0
C633 C 0.60795 0.92411 0.23467 0.0
C634 C 0.61584 0.89338 0.22198 0.0
C635 C 0.59218 0.87794 0.20522 0.0
C636 C 0.63439 0.94135 0.25064 0.0
C637 C 0.64681 0.92516 0.27344 0.0
C638 C 0.64827 0.97292 0.24284 0.0
C639 C 0.63638 0.99103 0.2188 0.0
C640 C 0.63878 0.97565 0.19369 0.0
C641 C 0.62729 0.99287 0.17117 0.0
C642 C 0.6136 0.02559 0.17349 0.0
C643 C 0.61149 0.0412 0.19833 0.0
C644 C 0.6229 0.02406 0.22093 0.0
C645 C 0.77916 0.97843 0.3053 0.0
C646 C 0.78132 0.01361 0.30986 0.0
C647 C 0.74866 0.96407 0.29626 0.0
C648 C 0.71964 0.98454 0.29237 0.0
C649 C 0.7215 0.01943 0.29823 0.0
C650 C 0.75208 0.03386 0.30669 0.0
C651 C 0.68842 0.97034 0.27988 0.0
C652 C 0.67507 0.98702 0.25755 0.0
C653 C 0.67334 0.93952 0.28845 0.0
C654 C 0.68417 0.92231 0.31325 0.0
C655 C 0.68548 0.94043 0.3373 0.0
C656 C 0.69587 0.9242 0.36058 0.0
C657 C 0.70482 0.88978 0.36011 0.0
C658 C 0.70333 0.87149 0.33636 0.0
C659 C 0.69298 0.88761 0.31302 0.0
H660 H 0.71285 0.87726 0.37815 0.0
H661 H 0.60473 0.03888 0.15602 0.0
H662 H 0.9595 0.27874 0.74301 0.0
H663 H 0.97705 0.21952 0.74085 0.0
H664 H 0.98354 0.21569 0.82609 0.0
H665 H 0.96596 0.27585 0.82852 0.0
H666 H 0.03756 0.17861 0.79608 0.0
H667 H 0.91755 0.18764 0.80295 0.0
H668 H 0.86311 0.21489 0.79197 0.0
H669 H 0.87007 0.17774 0.71212 0.0
H670 H 0.9261 0.15242 0.72205 0.0
H671 H 0.05342 0.00299 0.7582 0.0
H672 H 0.02793 0.04969 0.78388 0.0
H673 H 0.00206 0.10132 0.7112 0.0
H674 H 0.0277 0.05524 0.68562 0.0
H675 H 0.95146 0.10677 0.75025 0.0
H676 H 0.07541 0.11823 0.73989 0.0
H677 H 0.1343 0.09782 0.74642 0.0
H678 H 0.11899 0.09651 0.83065 0.0
H679 H 0.05979 0.11642 0.82453 0.0
C680 C 0.96498 0.26557 0.76138 0.0
C681 C 0.96075 0.28181 0.78599 0.0
C682 C 0.97512 0.23172 0.76007 0.0
C683 C 0.98093 0.21317 0.78332 0.0
C684 C 0.97896 0.22968 0.80796 0.0
C685 C 0.96889 0.26393 0.8093 0.0
C686 C 0.98618 0.17598 0.78118 0.0
C687 C 0.01843 0.16251 0.78686 0.0
C688 C 0.96112 0.15516 0.769 0.0
C689 C 0.9263 0.16827 0.76326 0.0
C690 C 0.90769 0.18547 0.78296 0.0
C691 C 0.87655 0.20075 0.77687 0.0
C692 C 0.86294 0.19792 0.75138 0.0
C693 C 0.88062 0.17991 0.73187 0.0
C694 C 0.91225 0.16528 0.73768 0.0
C695 C 0.04151 0.02394 0.74777 0.0
C696 C 0.04271 0.02577 0.71996 0.0
C697 C 0.02709 0.05056 0.76244 0.0
C698 C 0.01337 0.07897 0.7494 0.0
C699 C 0.01246 0.07956 0.72162 0.0
C700 C 0.02723 0.05333 0.70703 0.0
C701 C 0.00327 0.10999 0.76403 0.0
C702 C 0.97006 0.12234 0.76061 0.0
C703 C 0.02745 0.12982 0.77808 0.0
C704 C 0.06311 0.11835 0.78175 0.0
C705 C 0.08455 0.11334 0.75978 0.0
C706 C 0.11797 0.1019 0.7634 0.0
C707 C 0.13034 0.09576 0.78893 0.0
C708 C 0.10934 0.10119 0.81088 0.0
C709 C 0.07586 0.11253 0.80735 0.0
H710 H 0.15623 0.0869 0.7917 0.0
H711 H 0.83871 0.20968 0.74673 0.0
H712 H 0.01089 0.45645 0.7888 0.0
H713 H 0.06603 0.47935 0.77614 0.0
H714 H 0.04395 0.45821 0.69397 0.0
H715 H 0.98857 0.43447 0.70657 0.0
H716 H 0.10452 0.43353 0.70748 0.0
H717 H 0.05005 0.54059 0.71621 0.0
H718 H 0.01434 0.58498 0.73676 0.0
H719 H 0.08253 0.58985 0.80328 0.0
H720 H 0.11842 0.54513 0.78333 0.0
H721 H 0.26771 0.50792 0.67798 0.0
H722 H 0.20619 0.49753 0.67853 0.0
H723 H 0.2064 0.50392 0.76384 0.0
H724 H 0.26771 0.51434 0.76356 0.0
H725 H 0.15445 0.5415 0.74079 0.0
H726 H 0.20311 0.42821 0.73432 0.0
H727 H 0.23835 0.38344 0.71372 0.0
H728 H 0.18002 0.39129 0.64193 0.0
H729 H 0.14471 0.43647 0.66201 0.0
C730 C 0.01741 0.4571 0.76796 0.0
C731 C 0.99536 0.44341 0.74871 0.0
C732 C 0.04894 0.47046 0.76073 0.0
C733 C 0.05903 0.47076 0.73407 0.0
C734 C 0.0366 0.45829 0.71465 0.0
C735 C 0.00493 0.44485 0.72188 0.0
C736 C 0.09421 0.48122 0.72713 0.0
C737 C 0.11521 0.45754 0.71417 0.0
C738 C 0.1083 0.5123 0.73621 0.0
C739 C 0.08685 0.53933 0.74831 0.0
C740 C 0.05732 0.55095 0.73531 0.0
C741 C 0.03706 0.57621 0.74684 0.0
C742 C 0.04614 0.5902 0.77132 0.0
C743 C 0.07554 0.579 0.78431 0.0
C744 C 0.09588 0.55373 0.77287 0.0
C745 C 0.25469 0.50701 0.69688 0.0
C746 C 0.27266 0.51188 0.72075 0.0
C747 C 0.21956 0.50107 0.69712 0.0
C748 C 0.20183 0.49995 0.72122 0.0
C749 C 0.21965 0.50484 0.74503 0.0
C750 C 0.25474 0.51058 0.74483 0.0
C751 C 0.1647 0.49342 0.72188 0.0
C752 C 0.14345 0.51786 0.73363 0.0
C753 C 0.15034 0.46313 0.7116 0.0
C754 C 0.17157 0.43601 0.69954 0.0
C755 C 0.19801 0.42061 0.71405 0.0
C756 C 0.21795 0.39512 0.70249 0.0
C757 C 0.21151 0.38461 0.6765 0.0
C758 C 0.18504 0.39951 0.66204 0.0
C759 C 0.16504 0.42505 0.6735 0.0
H760 H 0.22696 0.36486 0.66759 0.0
H761 H 0.03041 0.60975 0.78022 0.0
H762 H 0.57657 0.45094 0.23326 0.0
H763 H 0.55541 0.49709 0.20494 0.0
H764 H 0.51656 0.54912 0.27394 0.0
H765 H 0.53703 0.50329 0.30208 0.0
H766 H 0.47392 0.55669 0.23329 0.0
H767 H 0.59694 0.56454 0.24827 0.0
H768 H 0.65731 0.54746 0.24465 0.0
H769 H 0.64872 0.54527 0.15984 0.0
H770 H 0.58818 0.56185 0.16299 0.0
H771 H 0.49096 0.73153 0.22997 0.0
H772 H 0.49686 0.67059 0.23667 0.0
H773 H 0.51992 0.65691 0.15381 0.0
H774 H 0.51406 0.7185 0.14676 0.0
H775 H 0.56428 0.62253 0.18763 0.0
H776 H 0.44501 0.6306 0.17441 0.0
H777 H 0.38756 0.65502 0.17996 0.0
H778 H 0.3901 0.63119 0.26291 0.0
H779 H 0.4478 0.60713 0.258 0.0
C780 C 0.56278 0.47184 0.24227 0.0
C781 C 0.55879 0.47367 0.26994 0.0
C782 C 0.5509 0.49826 0.22608 0.0
C783 C 0.53485 0.52678 0.23738 0.0
C784 C 0.52889 0.52742 0.26477 0.0
C785 C 0.54078 0.50122 0.28087 0.0
C786 C 0.52669 0.5575 0.22157 0.0
C787 C 0.4936 0.57099 0.22313 0.0
C788 C 0.55212 0.57569 0.20759 0.0
C789 C 0.58793 0.5639 0.20587 0.0
C790 C 0.6078 0.55991 0.22887 0.0
C791 C 0.64207 0.55046 0.2269 0.0
C792 C 0.65681 0.54531 0.20203 0.0
C793 C 0.63724 0.54924 0.17909 0.0
C794 C 0.60296 0.5586 0.18095 0.0
C795 C 0.49731 0.71573 0.21308 0.0
C796 C 0.50201 0.72995 0.1878 0.0
C797 C 0.50039 0.6808 0.21693 0.0
C798 C 0.50815 0.65922 0.19563 0.0
C799 C 0.51355 0.6732 0.17042 0.0
C800 C 0.51026 0.70833 0.16647 0.0
C801 C 0.51205 0.6223 0.20051 0.0
C802 C 0.54426 0.60767 0.19687 0.0
C803 C 0.48591 0.60323 0.21278 0.0
C804 C 0.45084 0.61706 0.21581 0.0
C805 C 0.4334 0.63068 0.19387 0.0
C806 C 0.40078 0.64448 0.19691 0.0
C807 C 0.38519 0.64463 0.22177 0.0
C808 C 0.40219 0.63098 0.24365 0.0
C809 C 0.43484 0.6172 0.24074 0.0
H810 H 0.35993 0.65528 0.22407 0.0
H811 H 0.68345 0.53853 0.20048 0.0
H812 H 0.50289 0.08784 0.70756 0.0
H813 H 0.4459 0.07429 0.69067 0.0
H814 H 0.41322 0.04898 0.76981 0.0
H815 H 0.46991 0.0616 0.78668 0.0
H816 H 0.38835 0.00465 0.73588 0.0
H817 H 0.39678 0.12754 0.74122 0.0
H818 H 0.42159 0.18364 0.73081 0.0
H819 H 0.402 0.16726 0.64802 0.0
H820 H 0.37745 0.11085 0.65794 0.0
H821 H 0.21539 0.03696 0.74666 0.0
H822 H 0.27563 0.05187 0.74704 0.0
H823 H 0.28226 0.03084 0.66338 0.0
H824 H 0.22175 0.01512 0.66272 0.0
H825 H 0.32173 0.09505 0.69066 0.0
H826 H 0.30816 0.97196 0.688 0.0
H827 H 0.27989 0.91873 0.7017 0.0
H828 H 0.30735 0.93828 0.7827 0.0
H829 H 0.33526 0.99194 0.76951 0.0
C830 C 0.48363 0.07903 0.72132 0.0
C831 C 0.49092 0.076 0.74852 0.0
C832 C 0.45106 0.07146 0.71163 0.0
C833 C 0.42519 0.06105 0.72903 0.0
C834 C 0.43277 0.05696 0.756 0.0
C835 C 0.46525 0.06431 0.76566 0.0
C836 C 0.38981 0.0554 0.71967 0.0
C837 C 0.37393 0.0244 0.72588 0.0
C838 C 0.37101 0.08094 0.70623 0.0
C839 C 0.3857 0.11483 0.70028 0.0
C840 C 0.39802 0.1358 0.72078 0.0
C841 C 0.41199 0.16767 0.71497 0.0
C842 C 0.41348 0.17896 0.68876 0.0
C843 C 0.40091 0.15845 0.66831 0.0
C844 C 0.38696 0.12654 0.67401 0.0
C845 C 0.22931 0.03615 0.72814 0.0
C846 C 0.21384 0.02427 0.70473 0.0
C847 C 0.26373 0.04476 0.72844 0.0
C848 C 0.28321 0.04207 0.70531 0.0
C849 C 0.26743 0.03301 0.6814 0.0
C850 C 0.23292 0.02399 0.68111 0.0
C851 C 0.3206 0.04469 0.70729 0.0
C852 C 0.33664 0.07506 0.69991 0.0
C853 C 0.33956 0.01875 0.71987 0.0
C854 C 0.32354 0.98609 0.72779 0.0
C855 C 0.30793 0.96503 0.70876 0.0
C856 C 0.29201 0.93476 0.71642 0.0
C857 C 0.29175 0.92516 0.74306 0.0
C858 C 0.30754 0.94575 0.76207 0.0
C859 C 0.32345 0.97608 0.75451 0.0
H860 H 0.27937 0.90174 0.74896 0.0
H861 H 0.4243 0.20364 0.6843 0.0
H862 H 0.98117 0.75849 0.22825 0.0
H863 H 0.97097 0.81908 0.23416 0.0
H864 H 0.97629 0.83412 0.14965 0.0
H865 H 0.98682 0.77298 0.14342 0.0
H866 H 0.01311 0.88336 0.17883 0.0
H867 H 0.90089 0.8377 0.17644 0.0
H868 H 0.85467 0.79758 0.18727 0.0
H869 H 0.86147 0.82577 0.26934 0.0
H870 H 0.9081 0.86569 0.25909 0.0
H871 H 0.91128 0.04006 0.22942 0.0
H872 H 0.92764 0.99333 0.19971 0.0
H873 H 0.98875 0.94945 0.26189 0.0
H874 H 0.97272 0.99575 0.29157 0.0
H875 H 0.91267 0.92024 0.2312 0.0
H876 H 0.03917 0.94921 0.23114 0.0
H877 H 0.08474 0.98977 0.21939 0.0
H878 H 0.04648 0.99493 0.13972 0.0
H879 H 0.00045 0.95466 0.15118 0.0
C880 C 0.98012 0.77451 0.21083 0.0
C881 C 0.98466 0.7608 0.18534 0.0
C882 C 0.9742 0.80919 0.21426 0.0
C883 C 0.97252 0.83098 0.19232 0.0
C884 C 0.97739 0.81763 0.16681 0.0
C885 C 0.98322 0.78272 0.16331 0.0
C886 C 0.96567 0.86763 0.19661 0.0
C887 C 0.99081 0.89153 0.18981 0.0
C888 C 0.93643 0.8784 0.2107 0.0
C889 C 0.90812 0.85463 0.21698 0.0
C890 C 0.89268 0.83521 0.19683 0.0
C891 C 0.86638 0.81251 0.20286 0.0
C892 C 0.85516 0.80911 0.22898 0.0
C893 C 0.87017 0.82845 0.24911 0.0
C894 C 0.89651 0.85116 0.24319 0.0
C895 C 0.92947 0.02132 0.23634 0.0
C896 C 0.94045 0.0213 0.2629 0.0
C897 C 0.93874 0.99466 0.21935 0.0
C898 C 0.95956 0.96821 0.22862 0.0
C899 C 0.97314 0.96999 0.25426 0.0
C900 C 0.96378 -0.00363 0.27125 0.0
C901 C 0.96079 0.93531 0.21455 0.0
C902 C 0.93445 0.91214 0.21955 0.0
C903 C 0.98873 0.92531 0.19884 0.0
C904 C 0.01623 0.9494 0.19208 0.0
C905 C 0.0403 0.9593 0.21121 0.0
C906 C 0.06626 0.98214 0.20459 0.0
C907 C 0.06844 0.99503 0.17885 0.0
C908 C 0.04472 0.98501 0.15966 0.0
C909 C 0.01871 0.9622 0.16621 0.0
H910 H 0.08855 0.01268 0.17376 0.0
H911 H 0.8348 0.79151 0.23361 0.0
loop_
_geom_bond_atom_site_label_1
_geom_bond_atom_site_label_2
_geom_bond_distance
_geom_bond_site_symmetry_2
_ccdc_geom_bond_type
C0 O1 1.306 . S
C0 O3 1.160 . S
O1 C0 1.306 . S
O1 Cd2 2.228 . S
Cd2 O1 2.228 . S
Cd2 O6 2.273 . S
Cd2 O10 2.277 . S
O3 C0 1.160 . S
O3 Cd4 2.203 . S
Cd4 O3 2.203 . S
Cd4 O6 2.411 . S
Cd4 O7 2.333 1_455 S
Cd4 O8 2.352 . S
Cd4 O12 2.277 1_455 S
Cd4 O13 2.356 1_455 S
C5 O10 1.208 . S
C5 O12 1.226 1_455 S
O6 Cd2 2.273 . S
O6 Cd4 2.411 . S
O6 C9 1.320 1_455 S
O7 Cd4 2.333 1_655 S
O7 C9 1.214 . S
O8 Cd4 2.352 . S
O8 C11 1.258 . S
C9 O6 1.320 1_655 S
C9 O7 1.214 . S
O10 Cd2 2.277 . S
O10 C5 1.208 . S
C11 O8 1.258 . S
C11 O13 1.282 1_455 S
O12 Cd4 2.277 1_655 S
O12 C5 1.226 1_655 S
O13 Cd4 2.356 1_655 S
O13 C11 1.282 1_655 S
C14 O15 1.306 . S
C14 O17 1.160 . S
O15 C14 1.306 . S
O15 Cd16 2.228 . S
Cd16 O15 2.228 . S
Cd16 O20 2.273 . S
Cd16 O24 2.277 . S
O17 C14 1.160 . S
O17 Cd18 2.203 . S
Cd18 O17 2.203 . S
Cd18 O20 2.411 . S
Cd18 O21 2.333 . S
Cd18 O22 2.352 . S
Cd18 O26 2.277 . S
Cd18 O27 2.356 . S
C19 O24 1.209 . S
C19 O26 1.226 . S
O20 Cd16 2.273 . S
O20 Cd18 2.411 . S
O20 C23 1.320 . S
O21 Cd18 2.333 . S
O21 C23 1.214 . S
O22 Cd18 2.352 . S
O22 C25 1.258 . S
C23 O20 1.320 . S
C23 O21 1.214 . S
O24 Cd16 2.277 . S
O24 C19 1.209 . S
C25 O22 1.258 . S
C25 O27 1.282 . S
O26 Cd18 2.277 . S
O26 C19 1.226 . S
O27 Cd18 2.356 . S
O27 C25 1.282 . S
C28 O29 1.306 . S
C28 O31 1.160 . S
O29 C28 1.306 . S
O29 Cd30 2.228 . S
Cd30 O29 2.228 . S
Cd30 O34 2.273 . S
Cd30 O38 2.277 . S
O31 C28 1.160 . S
O31 Cd32 2.203 . S
Cd32 O31 2.203 . S
Cd32 O34 2.411 . S
Cd32 O35 2.333 . S
Cd32 O36 2.352 . S
Cd32 O40 2.277 . S
Cd32 O41 2.356 . S
C33 O38 1.209 . S
C33 O40 1.226 . S
O34 Cd30 2.273 . S
O34 Cd32 2.411 . S
O34 C37 1.320 . S
O35 Cd32 2.333 . S
O35 C37 1.214 . S
O36 Cd32 2.352 . S
O36 C39 1.258 . S
C37 O34 1.320 . S
C37 O35 1.214 . S
O38 Cd30 2.277 . S
O38 C33 1.209 . S
C39 O36 1.258 . S
C39 O41 1.282 . S
O40 Cd32 2.277 . S
O40 C33 1.226 . S
O41 Cd32 2.356 . S
O41 C39 1.282 . S
C42 O43 1.306 . S
C42 O45 1.160 . S
O43 C42 1.306 . S
O43 Cd44 2.228 . S
Cd44 O43 2.228 . S
Cd44 O48 2.273 . S
Cd44 O52 2.277 . S
O45 C42 1.160 . S
O45 Cd46 2.203 . S
Cd46 O45 2.203 . S
Cd46 O48 2.411 . S
Cd46 O49 2.333 1_565 S
Cd46 O50 2.352 . S
Cd46 O54 2.277 1_565 S
Cd46 O55 2.356 1_565 S
C47 O52 1.208 . S
C47 O54 1.226 1_565 S
O48 Cd44 2.273 . S
O48 Cd46 2.411 . S
O48 C51 1.320 1_565 S
O49 Cd46 2.333 1_545 S
O49 C51 1.214 . S
O50 Cd46 2.352 . S
O50 C53 1.258 . S
C51 O48 1.320 1_545 S
C51 O49 1.214 . S
O52 Cd44 2.277 . S
O52 C47 1.208 . S
C53 O50 1.258 . S
C53 O55 1.282 1_565 S
O54 Cd46 2.277 1_545 S
O54 C47 1.226 1_545 S
O55 Cd46 2.356 1_545 S
O55 C53 1.282 1_545 S
C56 O57 1.306 1_455 S
C56 O59 1.160 . S
O57 C56 1.306 1_655 S
O57 Cd58 2.228 . S
Cd58 O57 2.228 . S
Cd58 O62 2.273 . S
Cd58 O66 2.277 . S
O59 C56 1.160 . S
O59 Cd60 2.203 1_455 S
Cd60 O59 2.203 1_655 S
Cd60 O62 2.411 . S
Cd60 O63 2.333 . S
Cd60 O64 2.352 . S
Cd60 O68 2.277 1_655 S
Cd60 O69 2.356 . S
C61 O66 1.209 . S
C61 O68 1.226 1_655 S
O62 Cd58 2.273 . S
O62 Cd60 2.411 . S
O62 C65 1.320 . S
O63 Cd60 2.333 . S
O63 C65 1.214 . S
O64 Cd60 2.352 . S
O64 C67 1.258 . S
C65 O62 1.320 . S
C65 O63 1.214 . S
O66 Cd58 2.277 . S
O66 C61 1.209 . S
C67 O64 1.258 . S
C67 O69 1.282 . S
O68 Cd60 2.277 1_455 S
O68 C61 1.226 1_455 S
O69 Cd60 2.356 . S
O69 C67 1.282 . S
C70 O71 1.306 . S
C70 O73 1.160 . S
O71 C70 1.306 . S
O71 Cd72 2.228 . S
Cd72 O71 2.228 . S
Cd72 O76 2.273 . S
Cd72 O80 2.277 . S
O73 C70 1.160 . S
O73 Cd74 2.203 . S
Cd74 O73 2.203 . S
Cd74 O76 2.411 . S
Cd74 O77 2.333 . S
Cd74 O78 2.352 . S
Cd74 O82 2.277 . S
Cd74 O83 2.356 . S
C75 O80 1.209 . S
C75 O82 1.226 . S
O76 Cd72 2.273 . S
O76 Cd74 2.411 . S
O76 C79 1.320 . S
O77 Cd74 2.333 . S
O77 C79 1.214 . S
O78 Cd74 2.352 . S
O78 C81 1.258 . S
C79 O76 1.320 . S
C79 O77 1.214 . S
O80 Cd72 2.277 . S
O80 C75 1.209 . S
C81 O78 1.258 . S
C81 O83 1.282 . S
O82 Cd74 2.277 . S
O82 C75 1.226 . S
O83 Cd74 2.356 . S
O83 C81 1.282 . S
C84 O85 1.306 . S
C84 O87 1.160 . S
O85 C84 1.306 . S
O85 Cd86 2.228 . S
Cd86 O85 2.228 . S
Cd86 O90 2.273 . S
Cd86 O94 2.277 . S
O87 C84 1.160 . S
O87 Cd88 2.203 . S
Cd88 O87 2.203 . S
Cd88 O90 2.411 . S
Cd88 O91 2.333 . S
Cd88 O92 2.352 . S
Cd88 O96 2.277 . S
Cd88 O97 2.356 . S
C89 O94 1.209 . S
C89 O96 1.226 . S
O90 Cd86 2.273 . S
O90 Cd88 2.411 . S
O90 C93 1.320 . S
O91 Cd88 2.333 . S
O91 C93 1.214 . S
O92 Cd88 2.352 . S
O92 C95 1.258 . S
C93 O90 1.320 . S
C93 O91 1.214 . S
O94 Cd86 2.277 . S
O94 C89 1.209 . S
C95 O92 1.258 . S
C95 O97 1.282 . S
O96 Cd88 2.277 . S
O96 C89 1.226 . S
O97 Cd88 2.356 . S
O97 C95 1.282 . S
C98 O99 1.306 1_565 S
C98 O101 1.160 . S
O99 C98 1.306 1_545 S
O99 Cd100 2.228 . S
Cd100 O99 2.228 . S
Cd100 O104 2.273 . S
Cd100 O108 2.277 . S
O101 C98 1.160 . S
O101 Cd102 2.203 1_565 S
Cd102 O101 2.203 1_545 S
Cd102 O104 2.411 . S
Cd102 O105 2.333 . S
Cd102 O106 2.352 . S
Cd102 O110 2.277 1_545 S
Cd102 O111 2.356 . S
C103 O108 1.209 . S
C103 O110 1.226 1_545 S
O104 Cd100 2.273 . S
O104 Cd102 2.411 . S
O104 C107 1.320 . S
O105 Cd102 2.333 . S
O105 C107 1.214 . S
O106 Cd102 2.352 . S
O106 C109 1.258 . S
C107 O104 1.320 . S
C107 O105 1.214 . S
O108 Cd100 2.277 . S
O108 C103 1.209 . S
C109 O106 1.258 . S
C109 O111 1.282 . S
O110 Cd102 2.277 1_565 S
O110 C103 1.226 1_565 S
O111 Cd102 2.356 . S
O111 C109 1.282 . S
H112 C130 0.951 . S
H113 C132 0.951 . S
H114 C134 0.950 . S
H115 C135 0.950 . S
H116 C137 0.950 . S
H117 C140 0.950 . S
H118 C141 0.950 . S
H119 C143 0.950 . S
H120 C144 0.950 1_554 S
H121 C145 0.951 . S
H122 C147 0.951 . S
H123 C149 0.950 . S
H124 C150 0.950 . S
H125 C152 0.950 . S
H126 C155 0.950 . S
H127 C156 0.950 . S
H128 C158 0.950 . S
H129 C159 0.950 1_556 S
C130 H112 0.951 . S
C130 C131 1.366 . S
C130 C132 1.388 . S
C131 C130 1.366 . S
C131 C135 1.385 1_655 S
C132 H113 0.951 . S
C132 C130 1.388 . S
C132 C133 1.366 . S
C133 C132 1.366 . S
C133 C134 1.414 1_655 S
C133 C136 1.499 . S
C134 H114 0.950 . S
C134 C133 1.414 1_455 S
C134 C135 1.374 . S
C135 H115 0.950 . S
C135 C131 1.385 1_455 S
C135 C134 1.374 . S
C136 C133 1.499 . S
C136 C137 1.373 1_655 S
C136 C138 1.389 . S
C137 H116 0.950 . S
C137 C136 1.373 1_455 S
C137 C153 1.377 1_556 S
C138 C136 1.389 . S
C138 C139 1.524 . S
C138 C152 1.377 1_556 S
C139 C138 1.524 . S
C139 C140 1.397 . S
C139 C144 1.363 . S
C140 H117 0.950 . S
C140 C139 1.397 . S
C140 C141 1.334 . S
C141 H118 0.950 . S
C141 C140 1.334 . S
C141 C142 1.287 . S
C142 C141 1.287 . S
C142 C143 1.524 . S
C142 H161 0.913 . S
C143 H119 0.950 . S
C143 C142 1.524 . S
C143 C144 1.415 . S
C144 H120 0.950 1_556 S
C144 C139 1.363 . S
C144 C143 1.415 . S
C145 H121 0.951 . S
C145 C146 1.366 . S
C145 C147 1.388 . S
C146 C145 1.366 . S
C146 C150 1.385 1_455 S
C147 H122 0.951 . S
C147 C145 1.388 . S
C147 C148 1.366 . S
C148 C147 1.366 . S
C148 C149 1.414 1_455 S
C148 C151 1.499 . S
C149 H123 0.950 . S
C149 C148 1.414 1_655 S
C149 C150 1.374 . S
C150 H124 0.950 . S
C150 C146 1.385 1_655 S
C150 C149 1.374 . S
C151 C148 1.499 . S
C151 C152 1.373 1_455 S
C151 C153 1.389 . S
C152 H125 0.950 . S
C152 C138 1.377 1_554 S
C152 C151 1.373 1_655 S
C153 C137 1.377 1_554 S
C153 C151 1.389 . S
C153 C154 1.524 . S
C154 C153 1.524 . S
C154 C155 1.397 . S
C154 C159 1.363 . S
C155 H126 0.950 . S
C155 C154 1.397 . S
C155 C156 1.334 . S
C156 H127 0.950 . S
C156 C155 1.334 . S
C156 C157 1.287 . S
C157 C156 1.287 . S
C157 C158 1.524 . S
C157 H160 0.999 . S
C158 H128 0.950 . S
C158 C157 1.524 . S
C158 C159 1.415 . S
C159 H129 0.950 1_554 S
C159 C154 1.363 . S
C159 C158 1.415 . S
H160 C157 0.999 . S
H161 C142 0.913 . S
H162 C180 0.951 . S
H163 C182 0.951 . S
H164 C184 0.950 . S
H165 C185 0.950 . S
H166 C187 0.950 . S
H167 C190 0.950 . S
H168 C191 0.950 . S
H169 C193 0.950 . S
H170 C194 0.950 . S
H171 C195 0.951 . S
H172 C197 0.951 . S
H173 C199 0.950 . S
H174 C200 0.950 . S
H175 C202 0.950 . S
H176 C205 0.950 . S
H177 C206 0.950 . S
H178 C208 0.950 . S
H179 C209 0.950 . S
C180 H162 0.951 . S
C180 C181 1.366 . S
C180 C182 1.388 . S
C181 C180 1.366 . S
C181 C185 1.385 . S
C182 H163 0.951 . S
C182 C180 1.388 . S
C182 C183 1.366 . S
C183 C182 1.366 . S
C183 C184 1.414 . S
C183 C186 1.499 . S
C184 H164 0.950 . S
C184 C183 1.414 . S
C184 C185 1.374 . S
C185 H165 0.950 . S
C185 C181 1.385 . S
C185 C184 1.374 . S
C186 C183 1.499 . S
C186 C187 1.373 . S
C186 C188 1.389 . S
C187 H166 0.950 . S
C187 C186 1.373 . S
C187 C203 1.377 . S
C188 C186 1.389 . S
C188 C189 1.524 . S
C188 C202 1.377 . S
C189 C188 1.524 . S
C189 C190 1.397 . S
C189 C194 1.363 . S
C190 H167 0.950 . S
C190 C189 1.397 . S
C190 C191 1.334 . S
C191 H168 0.950 . S
C191 C190 1.334 . S
C191 C192 1.287 . S
C192 C191 1.287 . S
C192 C193 1.524 . S
C192 H211 0.913 . S
C193 H169 0.950 . S
C193 C192 1.524 . S
C193 C194 1.415 . S
C194 H170 0.950 . S
C194 C189 1.363 . S
C194 C193 1.415 . S
C195 H171 0.951 . S
C195 C196 1.366 . S
C195 C197 1.388 . S
C196 C195 1.366 . S
C196 C200 1.385 . S
C197 H172 0.951 . S
C197 C195 1.388 . S
C197 C198 1.366 . S
C198 C197 1.366 . S
C198 C199 1.414 . S
C198 C201 1.499 . S
C199 H173 0.950 . S
C199 C198 1.414 . S
C199 C200 1.374 . S
C200 H174 0.950 . S
C200 C196 1.385 . S
C200 C199 1.374 . S
C201 C198 1.499 . S
C201 C202 1.373 . S
C201 C203 1.389 . S
C202 H175 0.950 . S
C202 C188 1.377 . S
C202 C201 1.373 . S
C203 C187 1.377 . S
C203 C201 1.389 . S
C203 C204 1.524 . S
C204 C203 1.524 . S
C204 C205 1.397 . S
C204 C209 1.363 . S
C205 H176 0.950 . S
C205 C204 1.397 . S
C205 C206 1.334 . S
C206 H177 0.950 . S
C206 C205 1.334 . S
C206 C207 1.287 . S
C207 C206 1.287 . S
C207 C208 1.524 . S
C207 H210 0.999 . S
C208 H178 0.950 . S
C208 C207 1.524 . S
C208 C209 1.415 . S
C209 H179 0.950 . S
C209 C204 1.363 . S
C209 C208 1.415 . S
H210 C207 0.999 . S
H211 C192 0.913 . S
H212 C230 0.951 . S
H213 C232 0.951 . S
H214 C234 0.950 . S
H215 C235 0.950 . S
H216 C237 0.950 . S
H217 C240 0.950 1_554 S
H218 C241 0.950 . S
H219 C243 0.950 . S
H220 C244 0.950 . S
H221 C245 0.951 . S
H222 C247 0.951 . S
H223 C249 0.950 . S
H224 C250 0.950 . S
H225 C252 0.950 . S
H226 C255 0.939 1_556 S
H227 C256 0.950 . S
H228 C258 0.950 . S
H229 C259 0.950 . S
C230 H212 0.951 . S
C230 C231 1.366 . S
C230 C232 1.388 . S
C231 C230 1.366 . S
C231 C235 1.385 . S
C232 H213 0.951 . S
C232 C230 1.388 . S
C232 C233 1.366 . S
C233 C232 1.366 . S
C233 C234 1.414 . S
C233 C236 1.499 . S
C234 H214 0.950 . S
C234 C233 1.414 . S
C234 C235 1.374 . S
C235 H215 0.950 . S
C235 C231 1.385 . S
C235 C234 1.374 . S
C236 C233 1.499 . S
C236 C237 1.373 1_565 S
C236 C238 1.389 1_554 S
C237 H216 0.950 . S
C237 C236 1.373 1_545 S
C237 C253 1.377 . S
C238 C236 1.389 1_556 S
C238 C239 1.524 . S
C238 C252 1.377 . S
C239 C238 1.524 . S
C239 C240 1.397 . S
C239 C244 1.363 . S
C240 H217 0.950 1_556 S
C240 C239 1.397 . S
C240 C241 1.334 . S
C241 H218 0.950 . S
C241 C240 1.334 . S
C241 C242 1.287 . S
C242 C241 1.287 . S
C242 C243 1.524 . S
C242 H261 0.913 . S
C243 H219 0.950 . S
C243 C242 1.524 . S
C243 C244 1.415 . S
C244 H220 0.950 . S
C244 C239 1.363 . S
C244 C243 1.415 . S
C245 H221 0.951 . S
C245 C246 1.366 . S
C245 C247 1.388 . S
C246 C245 1.366 . S
C246 C250 1.385 . S
C247 H222 0.951 . S
C247 C245 1.388 . S
C247 C248 1.366 . S
C248 C247 1.366 . S
C248 C249 1.414 . S
C248 C251 1.499 . S
C249 H223 0.950 . S
C249 C248 1.414 . S
C249 C250 1.374 . S
C250 H224 0.950 . S
C250 C246 1.385 . S
C250 C249 1.374 . S
C251 C248 1.499 . S
C251 C252 1.373 1_545 S
C251 C253 1.389 1_556 S
C252 H225 0.950 . S
C252 C238 1.377 . S
C252 C251 1.373 1_565 S
C253 C237 1.377 . S
C253 C251 1.389 1_554 S
C253 C254 1.524 . S
C254 C253 1.524 . S
C254 C255 1.397 . S
C254 C259 1.363 . S
C255 H226 0.939 1_554 S
C255 C254 1.397 . S
C255 C256 1.334 . S
C256 H227 0.950 . S
C256 C255 1.334 . S
C256 C257 1.287 . S
C257 C256 1.287 . S
C257 C258 1.524 . S
C257 H260 0.999 . S
C258 H228 0.950 . S
C258 C257 1.524 . S
C258 C259 1.415 . S
C259 H229 0.950 . S
C259 C254 1.363 . S
C259 C258 1.415 . S
H260 C257 0.999 . S
H261 C242 0.913 . S
H262 C280 0.951 . S
H263 C282 0.951 . S
H264 C284 0.950 . S
H265 C285 0.950 . S
H266 C287 0.950 . S
H267 C290 0.950 . S
H268 C291 0.950 . S
H269 C293 0.950 . S
H270 C294 0.950 . S
H271 C295 0.951 . S
H272 C297 0.951 . S
H273 C299 0.950 . S
H274 C300 0.950 . S
H275 C302 0.950 . S
H276 C305 0.950 . S
H277 C306 0.950 . S
H278 C308 0.950 . S
H279 C309 0.950 . S
C280 H262 0.951 . S
C280 C281 1.366 . S
C280 C282 1.388 . S
C281 C280 1.366 . S
C281 C285 1.385 1_545 S
C282 H263 0.951 . S
C282 C280 1.388 . S
C282 C283 1.366 . S
C283 C282 1.366 . S
C283 C284 1.414 1_545 S
C283 C286 1.499 . S
C284 H264 0.950 . S
C284 C283 1.414 1_565 S
C284 C285 1.374 . S
C285 H265 0.950 . S
C285 C281 1.385 1_565 S
C285 C284 1.374 . S
C286 C283 1.499 . S
C286 C287 1.373 1_545 S
C286 C288 1.389 1_655 S
C287 H266 0.950 . S
C287 C286 1.373 1_565 S
C287 C303 1.377 . S
C288 C286 1.389 1_455 S
C288 C289 1.524 . S
C288 C302 1.377 . S
C289 C288 1.524 . S
C289 C290 1.397 . S
C289 C294 1.363 . S
C290 H267 0.950 . S
C290 C289 1.397 . S
C290 C291 1.334 . S
C291 H268 0.950 . S
C291 C290 1.334 . S
C291 C292 1.287 . S
C292 C291 1.287 . S
C292 C293 1.524 . S
C292 H311 0.913 . S
C293 H269 0.950 . S
C293 C292 1.524 . S
C293 C294 1.415 . S
C294 H270 0.950 . S
C294 C289 1.363 . S
C294 C293 1.415 . S
C295 H271 0.951 . S
C295 C296 1.366 . S
C295 C297 1.388 . S
C296 C295 1.366 . S
C296 C300 1.385 1_565 S
C297 H272 0.951 . S
C297 C295 1.388 . S
C297 C298 1.366 . S
C298 C297 1.366 . S
C298 C299 1.414 1_565 S
C298 C301 1.502 . S
C299 H273 0.950 . S
C299 C298 1.414 1_545 S
C299 C300 1.374 . S
C300 H274 0.950 . S
C300 C296 1.385 1_545 S
C300 C299 1.374 . S
C301 C298 1.502 . S
C301 C302 1.360 1_565 S
C301 C303 1.401 1_455 S
C302 H275 0.950 . S
C302 C288 1.377 . S
C302 C301 1.360 1_545 S
C303 C287 1.377 . S
C303 C301 1.401 1_655 S
C303 C304 1.524 . S
C304 C303 1.524 . S
C304 C305 1.397 . S
C304 C309 1.363 . S
C305 H276 0.950 . S
C305 C304 1.397 . S
C305 C306 1.334 . S
C306 H277 0.950 . S
C306 C305 1.334 . S
C306 C307 1.287 . S
C307 C306 1.287 . S
C307 C308 1.524 . S
C307 H310 0.999 . S
C308 H278 0.950 . S
C308 C307 1.524 . S
C308 C309 1.415 . S
C309 H279 0.950 . S
C309 C304 1.363 . S
C309 C308 1.415 . S
H310 C307 0.999 . S
H311 C292 0.913 . S
H312 C330 0.951 . S
H313 C332 0.951 . S
H314 C334 0.950 . S
H315 C335 0.950 . S
H316 C337 0.950 . S
H317 C340 0.950 . S
H318 C341 0.950 . S
H319 C343 0.950 . S
H320 C344 0.950 . S
H321 C345 0.951 . S
H322 C347 0.951 . S
H323 C349 0.950 . S
H324 C350 0.950 . S
H325 C352 0.950 . S
H326 C355 0.950 . S
H327 C356 0.950 . S
H328 C358 0.950 . S
H329 C359 0.950 . S
C330 H312 0.951 . S
C330 C331 1.366 . S
C330 C332 1.388 . S
C331 C330 1.366 . S
C331 C335 1.385 . S
C332 H313 0.951 . S
C332 C330 1.388 . S
C332 C333 1.366 . S
C333 C332 1.366 . S
C333 C334 1.414 . S
C333 C336 1.499 . S
C334 H314 0.950 . S
C334 C333 1.414 . S
C334 C335 1.374 . S
C335 H315 0.950 . S
C335 C331 1.385 . S
C335 C334 1.374 . S
C336 C333 1.499 . S
C336 C337 1.373 . S
C336 C338 1.389 . S
C337 H316 0.950 . S
C337 C336 1.373 . S
C337 C353 1.377 . S
C338 C336 1.389 . S
C338 C339 1.524 . S
C338 C352 1.377 . S
C339 C338 1.524 . S
C339 C340 1.397 . S
C339 C344 1.363 . S
C340 H317 0.950 . S
C340 C339 1.397 . S
C340 C341 1.334 . S
C341 H318 0.950 . S
C341 C340 1.334 . S
C341 C342 1.287 . S
C342 C341 1.287 . S
C342 C343 1.524 . S
C342 H361 0.913 . S
C343 H319 0.950 . S
C343 C342 1.524 . S
C343 C344 1.415 . S
C344 H320 0.950 . S
C344 C339 1.363 . S
C344 C343 1.415 . S
C345 H321 0.951 . S
C345 C346 1.366 . S
C345 C347 1.388 . S
C346 C345 1.366 . S
C346 C350 1.385 . S
C347 H322 0.951 . S
C347 C345 1.388 . S
C347 C348 1.366 . S
C348 C347 1.366 . S
C348 C349 1.414 . S
C348 C351 1.499 . S
C349 H323 0.950 . S
C349 C348 1.414 . S
C349 C350 1.374 . S
C350 H324 0.950 . S
C350 C346 1.385 . S
C350 C349 1.374 . S
C351 C348 1.499 . S
C351 C352 1.373 . S
C351 C353 1.389 . S
C352 H325 0.950 . S
C352 C338 1.377 . S
C352 C351 1.373 . S
C353 C337 1.377 . S
C353 C351 1.389 . S
C353 C354 1.524 . S
C354 C353 1.524 . S
C354 C355 1.397 . S
C354 C359 1.363 . S
C355 H326 0.950 . S
C355 C354 1.397 . S
C355 C356 1.334 . S
C356 H327 0.950 . S
C356 C355 1.334 . S
C356 C357 1.287 . S
C357 C356 1.287 . S
C357 C358 1.524 . S
C357 H360 0.999 . S
C358 H328 0.950 . S
C358 C357 1.524 . S
C358 C359 1.415 . S
C359 H329 0.950 . S
C359 C354 1.363 . S
C359 C358 1.415 . S
H360 C357 0.999 . S
H361 C342 0.913 . S
H362 C380 0.951 . S
H363 C382 0.951 . S
H364 C384 0.950 . S
H365 C385 0.950 . S
H366 C387 0.950 . S
H367 C390 0.950 . S
H368 C391 0.950 . S
H369 C393 0.950 . S
H370 C394 0.950 . S
H371 C395 0.951 . S
H372 C397 0.951 . S
H373 C399 0.950 . S
H374 C400 0.950 . S
H375 C402 0.950 . S
H376 C405 0.950 . S
H377 C406 0.950 . S
H378 C408 0.950 . S
H379 C409 0.950 . S
C380 H362 0.951 . S
C380 C381 1.366 . S
C380 C382 1.388 . S
C381 C380 1.366 . S
C381 C385 1.385 . S
C382 H363 0.951 . S
C382 C380 1.388 . S
C382 C383 1.366 . S
C383 C382 1.366 . S
C383 C384 1.414 . S
C383 C386 1.499 . S
C384 H364 0.950 . S
C384 C383 1.414 . S
C384 C385 1.374 . S
C385 H365 0.950 . S
C385 C381 1.385 . S
C385 C384 1.374 . S
C386 C383 1.499 . S
C386 C387 1.373 . S
C386 C388 1.389 . S
C387 H366 0.950 . S
C387 C386 1.373 . S
C387 C403 1.377 . S
C388 C386 1.389 . S
C388 C389 1.524 . S
C388 C402 1.377 . S
C389 C388 1.524 . S
C389 C390 1.397 . S
C389 C394 1.363 . S
C390 H367 0.950 . S
C390 C389 1.397 . S
C390 C391 1.334 . S
C391 H368 0.950 . S
C391 C390 1.334 . S
C391 C392 1.287 . S
C392 C391 1.287 . S
C392 C393 1.524 . S
C392 H411 0.913 . S
C393 H369 0.950 . S
C393 C392 1.524 . S
C393 C394 1.415 . S
C394 H370 0.950 . S
C394 C389 1.363 . S
C394 C393 1.415 . S
C395 H371 0.951 . S
C395 C396 1.366 . S
C395 C397 1.388 . S
C396 C395 1.366 . S
C396 C400 1.385 . S
C397 H372 0.951 . S
C397 C395 1.388 . S
C397 C398 1.366 . S
C398 C397 1.366 . S
C398 C399 1.414 . S
C398 C401 1.499 . S
C399 H373 0.950 . S
C399 C398 1.414 . S
C399 C400 1.374 . S
C400 H374 0.950 . S
C400 C396 1.385 . S
C400 C399 1.374 . S
C401 C398 1.499 . S
C401 C402 1.373 . S
C401 C403 1.389 . S
C402 H375 0.950 . S
C402 C388 1.377 . S
C402 C401 1.373 . S
C403 C387 1.377 . S
C403 C401 1.389 . S
C403 C404 1.524 . S
C404 C403 1.524 . S
C404 C405 1.397 . S
C404 C409 1.363 . S
C405 H376 0.950 . S
C405 C404 1.397 . S
C405 C406 1.334 . S
C406 H377 0.950 . S
C406 C405 1.334 . S
C406 C407 1.287 . S
C407 C406 1.287 . S
C407 C408 1.524 . S
C407 H410 0.999 . S
C408 H378 0.950 . S
C408 C407 1.524 . S
C408 C409 1.415 . S
C409 H379 0.950 . S
C409 C404 1.363 . S
C409 C408 1.415 . S
H410 C407 0.999 . S
H411 C392 0.913 . S
H412 C430 0.951 . S
H413 C432 0.951 . S
H414 C434 0.950 . S
H415 C435 0.950 . S
H416 C437 0.950 . S
H417 C440 0.950 . S
H418 C441 0.950 . S
H419 C443 0.950 . S
H420 C444 0.950 . S
H421 C445 0.951 . S
H422 C447 0.951 . S
H423 C449 0.950 . S
H424 C450 0.950 . S
H425 C452 0.950 . S
H426 C455 0.950 . S
H427 C456 0.950 . S
H428 C458 0.950 . S
H429 C459 0.950 . S
C430 H412 0.951 . S
C430 C431 1.366 . S
C430 C432 1.388 . S
C431 C430 1.366 . S
C431 C435 1.385 . S
C432 H413 0.951 . S
C432 C430 1.388 . S
C432 C433 1.366 . S
C433 C432 1.366 . S
C433 C434 1.414 . S
C433 C436 1.499 . S
C434 H414 0.950 . S
C434 C433 1.414 . S
C434 C435 1.374 . S
C435 H415 0.950 . S
C435 C431 1.385 . S
C435 C434 1.374 . S
C436 C433 1.499 . S
C436 C437 1.373 . S
C436 C438 1.389 . S
C437 H416 0.950 . S
C437 C436 1.373 . S
C437 C453 1.377 . S
C438 C436 1.389 . S
C438 C439 1.524 . S
C438 C452 1.377 . S
C439 C438 1.524 . S
C439 C440 1.397 . S
C439 C444 1.363 . S
C440 H417 0.950 . S
C440 C439 1.397 . S
C440 C441 1.334 . S
C441 H418 0.950 . S
C441 C440 1.334 . S
C441 C442 1.287 . S
C442 C441 1.287 . S
C442 C443 1.524 . S
C442 H461 0.913 . S
C443 H419 0.950 . S
C443 C442 1.524 . S
C443 C444 1.415 . S
C444 H420 0.950 . S
C444 C439 1.363 . S
C444 C443 1.415 . S
C445 H421 0.951 . S
C445 C446 1.366 . S
C445 C447 1.388 . S
C446 C445 1.366 . S
C446 C450 1.385 . S
C447 H422 0.951 . S
C447 C445 1.388 . S
C447 C448 1.366 . S
C448 C447 1.366 . S
C448 C449 1.414 . S
C448 C451 1.499 . S
C449 H423 0.950 . S
C449 C448 1.414 . S
C449 C450 1.374 . S
C450 H424 0.950 . S
C450 C446 1.385 . S
C450 C449 1.374 . S
C451 C448 1.499 . S
C451 C452 1.373 . S
C451 C453 1.389 . S
C452 H425 0.950 . S
C452 C438 1.377 . S
C452 C451 1.373 . S
C453 C437 1.377 . S
C453 C451 1.389 . S
C453 C454 1.524 . S
C454 C453 1.524 . S
C454 C455 1.397 . S
C454 C459 1.363 . S
C455 H426 0.950 . S
C455 C454 1.397 . S
C455 C456 1.334 . S
C456 H427 0.950 . S
C456 C455 1.334 . S
C456 C457 1.287 . S
C457 C456 1.287 . S
C457 C458 1.524 . S
C457 H460 0.999 . S
C458 H428 0.950 . S
C458 C457 1.524 . S
C458 C459 1.415 . S
C459 H429 0.950 . S
C459 C454 1.363 . S
C459 C458 1.415 . S
H460 C457 0.999 . S
H461 C442 0.913 . S
H462 C480 0.951 . S
H463 C482 0.951 . S
H464 C484 0.950 . S
H465 C485 0.950 . S
H466 C487 0.950 . S
H467 C490 0.950 . S
H468 C491 0.950 . S
H469 C493 0.950 . S
H470 C494 0.950 . S
H471 C495 0.951 . S
H472 C497 0.951 . S
H473 C499 0.950 . S
H474 C500 0.950 . S
H475 C502 0.950 . S
H476 C505 0.950 . S
H477 C506 0.950 . S
H478 C508 0.950 . S
H479 C509 0.950 . S
C480 H462 0.951 . S
C480 C481 1.366 . S
C480 C482 1.388 . S
C481 C480 1.366 . S
C481 C485 1.385 . S
C482 H463 0.951 . S
C482 C480 1.388 . S
C482 C483 1.366 . S
C483 C482 1.366 . S
C483 C484 1.414 . S
C483 C486 1.499 . S
C484 H464 0.950 . S
C484 C483 1.414 . S
C484 C485 1.374 . S
C485 H465 0.950 . S
C485 C481 1.385 . S
C485 C484 1.374 . S
C486 C483 1.499 . S
C486 C487 1.373 . S
C486 C488 1.389 . S
C487 H466 0.950 . S
C487 C486 1.373 . S
C487 C503 1.377 . S
C488 C486 1.389 . S
C488 C489 1.524 . S
C488 C502 1.377 . S
C489 C488 1.524 . S
C489 C490 1.397 . S
C489 C494 1.363 . S
C490 H467 0.950 . S
C490 C489 1.397 . S
C490 C491 1.334 . S
C491 H468 0.950 . S
C491 C490 1.334 . S
C491 C492 1.287 . S
C492 C491 1.287 . S
C492 C493 1.524 . S
C492 H511 0.913 . S
C493 H469 0.950 . S
C493 C492 1.524 . S
C493 C494 1.415 . S
C494 H470 0.950 . S
C494 C489 1.363 . S
C494 C493 1.415 . S
C495 H471 0.951 . S
C495 C496 1.366 . S
C495 C497 1.388 . S
C496 C495 1.366 . S
C496 C500 1.385 . S
C497 H472 0.951 . S
C497 C495 1.388 . S
C497 C498 1.366 . S
C498 C497 1.366 . S
C498 C499 1.414 . S
C498 C501 1.499 . S
C499 H473 0.950 . S
C499 C498 1.414 . S
C499 C500 1.374 . S
C500 H474 0.950 . S
C500 C496 1.385 . S
C500 C499 1.374 . S
C501 C498 1.499 . S
C501 C502 1.373 . S
C501 C503 1.389 . S
C502 H475 0.950 . S
C502 C488 1.377 . S
C502 C501 1.373 . S
C503 C487 1.377 . S
C503 C501 1.389 . S
C503 C504 1.524 . S
C504 C503 1.524 . S
C504 C505 1.397 . S
C504 C509 1.363 . S
C505 H476 0.950 . S
C505 C504 1.397 . S
C505 C506 1.334 . S
C506 H477 0.950 . S
C506 C505 1.334 . S
C506 C507 1.287 . S
C507 C506 1.287 . S
C507 C508 1.524 . S
C507 H510 0.999 . S
C508 H478 0.950 . S
C508 C507 1.524 . S
C508 C509 1.415 . S
C509 H479 0.950 . S
C509 C504 1.363 . S
C509 C508 1.415 . S
H510 C507 0.999 . S
H511 C492 0.913 . S
H512 C530 0.951 . S
H513 C532 0.951 . S
H514 C534 0.950 . S
H515 C535 0.950 . S
H516 C537 0.950 . S
H517 C540 0.950 . S
H518 C541 0.950 . S
H519 C543 0.950 . S
H520 C544 0.950 . S
H521 C545 0.951 . S
H522 C547 0.951 . S
H523 C549 0.950 . S
H524 C550 0.950 . S
H525 C552 0.950 . S
H526 C555 0.950 . S
H527 C556 0.950 . S
H528 C558 0.950 . S
H529 C559 0.950 . S
C530 H512 0.951 . S
C530 C531 1.366 . S
C530 C532 1.388 . S
C531 C530 1.366 . S
C531 C535 1.385 . S
C532 H513 0.951 . S
C532 C530 1.388 . S
C532 C533 1.366 . S
C533 C532 1.366 . S
C533 C534 1.414 . S
C533 C536 1.499 . S
C534 H514 0.950 . S
C534 C533 1.414 . S
C534 C535 1.374 . S
C535 H515 0.950 . S
C535 C531 1.385 . S
C535 C534 1.374 . S
C536 C533 1.499 . S
C536 C537 1.373 . S
C536 C538 1.389 . S
C537 H516 0.950 . S
C537 C536 1.373 . S
C537 C553 1.377 . S
C538 C536 1.389 . S
C538 C539 1.524 . S
C538 C552 1.377 . S
C539 C538 1.524 . S
C539 C540 1.397 . S
C539 C544 1.363 . S
C540 H517 0.950 . S
C540 C539 1.397 . S
C540 C541 1.334 . S
C541 H518 0.950 . S
C541 C540 1.334 . S
C541 C542 1.287 . S
C542 C541 1.287 . S
C542 C543 1.524 . S
C542 H561 0.913 . S
C543 H519 0.950 . S
C543 C542 1.524 . S
C543 C544 1.415 . S
C544 H520 0.950 . S
C544 C539 1.363 . S
C544 C543 1.415 . S
C545 H521 0.951 . S
C545 C546 1.366 . S
C545 C547 1.388 . S
C546 C545 1.366 . S
C546 C550 1.385 . S
C547 H522 0.951 . S
C547 C545 1.388 . S
C547 C548 1.366 . S
C548 C547 1.366 . S
C548 C549 1.414 . S
C548 C551 1.499 . S
C549 H523 0.950 . S
C549 C548 1.414 . S
C549 C550 1.374 . S
C550 H524 0.950 . S
C550 C546 1.385 . S
C550 C549 1.374 . S
C551 C548 1.499 . S
C551 C552 1.373 . S
C551 C553 1.389 . S
C552 H525 0.950 . S
C552 C538 1.377 . S
C552 C551 1.373 . S
C553 C537 1.377 . S
C553 C551 1.389 . S
C553 C554 1.524 . S
C554 C553 1.524 . S
C554 C555 1.397 . S
C554 C559 1.363 . S
C555 H526 0.950 . S
C555 C554 1.397 . S
C555 C556 1.334 . S
C556 H527 0.950 . S
C556 C555 1.334 . S
C556 C557 1.287 . S
C557 C556 1.287 . S
C557 C558 1.524 . S
C557 H560 0.999 . S
C558 H528 0.950 . S
C558 C557 1.524 . S
C558 C559 1.415 . S
C559 H529 0.950 . S
C559 C554 1.363 . S
C559 C558 1.415 . S
H560 C557 0.999 . S
H561 C542 0.913 . S
H562 C580 0.951 . S
H563 C582 0.951 . S
H564 C584 0.950 . S
H565 C585 0.950 . S
H566 C587 0.950 . S
H567 C590 0.950 . S
H568 C591 0.950 . S
H569 C593 0.950 . S
H570 C594 0.950 . S
H571 C595 0.951 . S
H572 C597 0.951 . S
H573 C599 0.950 . S
H574 C600 0.950 . S
H575 C602 0.950 . S
H576 C605 0.950 . S
H577 C606 0.950 . S
H578 C608 0.950 . S
H579 C609 0.950 . S
C580 H562 0.951 . S
C580 C581 1.366 . S
C580 C582 1.388 . S
C581 C580 1.366 . S
C581 C585 1.385 . S
C582 H563 0.951 . S
C582 C580 1.388 . S
C582 C583 1.366 . S
C583 C582 1.366 . S
C583 C584 1.414 . S
C583 C586 1.499 . S
C584 H564 0.950 . S
C584 C583 1.414 . S
C584 C585 1.374 . S
C585 H565 0.950 . S
C585 C581 1.385 . S
C585 C584 1.374 . S
C586 C583 1.499 . S
C586 C587 1.373 . S
C586 C588 1.389 . S
C587 H566 0.950 . S
C587 C586 1.373 . S
C587 C603 1.377 . S
C588 C586 1.389 . S
C588 C589 1.524 . S
C588 C602 1.377 . S
C589 C588 1.524 . S
C589 C590 1.397 . S
C589 C594 1.363 . S
C590 H567 0.950 . S
C590 C589 1.397 . S
C590 C591 1.334 . S
C591 H568 0.950 . S
C591 C590 1.334 . S
C591 C592 1.287 . S
C592 C591 1.287 . S
C592 C593 1.524 . S
C592 H611 0.913 . S
C593 H569 0.950 . S
C593 C592 1.524 . S
C593 C594 1.415 . S
C594 H570 0.950 . S
C594 C589 1.363 . S
C594 C593 1.415 . S
C595 H571 0.951 . S
C595 C596 1.366 . S
C595 C597 1.388 . S
C596 C595 1.366 . S
C596 C600 1.385 . S
C597 H572 0.951 . S
C597 C595 1.388 . S
C597 C598 1.366 . S
C598 C597 1.366 . S
C598 C599 1.414 . S
C598 C601 1.499 . S
C599 H573 0.950 . S
C599 C598 1.414 . S
C599 C600 1.374 . S
C600 H574 0.950 . S
C600 C596 1.385 . S
C600 C599 1.374 . S
C601 C598 1.499 . S
C601 C602 1.373 . S
C601 C603 1.389 . S
C602 H575 0.950 . S
C602 C588 1.377 . S
C602 C601 1.373 . S
C603 C587 1.377 . S
C603 C601 1.389 . S
C603 C604 1.524 . S
C604 C603 1.524 . S
C604 C605 1.397 . S
C604 C609 1.363 . S
C605 H576 0.950 . S
C605 C604 1.397 . S
C605 C606 1.334 . S
C606 H577 0.950 . S
C606 C605 1.334 . S
C606 C607 1.287 . S
C607 C606 1.287 . S
C607 C608 1.524 . S
C607 H610 0.999 . S
C608 H578 0.950 . S
C608 C607 1.524 . S
C608 C609 1.415 . S
C609 H579 0.950 . S
C609 C604 1.363 . S
C609 C608 1.415 . S
H610 C607 0.999 . S
H611 C592 0.913 . S
H612 C630 0.951 . S
H613 C632 0.951 . S
H614 C634 0.950 . S
H615 C635 0.950 . S
H616 C637 0.950 . S
H617 C640 0.950 . S
H618 C641 0.950 . S
H619 C643 0.950 . S
H620 C644 0.950 . S
H621 C645 0.951 . S
H622 C647 0.951 . S
H623 C649 0.950 . S
H624 C650 0.950 . S
H625 C652 0.950 . S
H626 C655 0.950 . S
H627 C656 0.950 . S
H628 C658 0.950 . S
H629 C659 0.950 . S
C630 H612 0.951 . S
C630 C631 1.366 . S
C630 C632 1.388 . S
C631 C630 1.366 . S
C631 C635 1.385 . S
C632 H613 0.951 . S
C632 C630 1.388 . S
C632 C633 1.366 . S
C633 C632 1.366 . S
C633 C634 1.414 . S
C633 C636 1.499 . S
C634 H614 0.950 . S
C634 C633 1.414 . S
C634 C635 1.374 . S
C635 H615 0.950 . S
C635 C631 1.385 . S
C635 C634 1.374 . S
C636 C633 1.499 . S
C636 C637 1.373 . S
C636 C638 1.389 . S
C637 H616 0.950 . S
C637 C636 1.373 . S
C637 C653 1.377 . S
C638 C636 1.389 . S
C638 C639 1.524 . S
C638 C652 1.377 . S
C639 C638 1.524 . S
C639 C640 1.397 . S
C639 C644 1.363 1_565 S
C640 H617 0.950 . S
C640 C639 1.397 . S
C640 C641 1.334 . S
C641 H618 0.950 . S
C641 C640 1.334 . S
C641 C642 1.314 . S
C642 C641 1.314 . S
C642 C643 1.505 1_565 S
C642 H661 0.904 1_565 S
C643 H619 0.950 . S
C643 C642 1.505 1_545 S
C643 C644 1.415 . S
C644 H620 0.950 . S
C644 C639 1.363 1_545 S
C644 C643 1.415 . S
C645 H621 0.951 . S
C645 C646 1.366 . S
C645 C647 1.388 . S
C646 C645 1.366 . S
C646 C650 1.385 1_565 S
C647 H622 0.951 . S
C647 C645 1.388 . S
C647 C648 1.366 . S
C648 C647 1.366 . S
C648 C649 1.414 1_565 S
C648 C651 1.499 . S
C649 H623 0.950 . S
C649 C648 1.414 1_545 S
C649 C650 1.374 . S
C650 H624 0.950 . S
C650 C646 1.385 1_545 S
C650 C649 1.374 . S
C651 C648 1.499 . S
C651 C652 1.373 . S
C651 C653 1.389 . S
C652 H625 0.950 . S
C652 C638 1.377 . S
C652 C651 1.373 . S
C653 C637 1.377 . S
C653 C651 1.389 . S
C653 C654 1.524 . S
C654 C653 1.524 . S
C654 C655 1.397 . S
C654 C659 1.363 . S
C655 H626 0.950 . S
C655 C654 1.397 . S
C655 C656 1.334 . S
C656 H627 0.950 . S
C656 C655 1.334 . S
C656 C657 1.287 . S
C657 C656 1.287 . S
C657 C658 1.524 . S
C657 H660 0.999 . S
C658 H628 0.950 . S
C658 C657 1.524 . S
C658 C659 1.415 . S
C659 H629 0.950 . S
C659 C654 1.363 . S
C659 C658 1.415 . S
H660 C657 0.999 . S
H661 C642 0.904 1_545 S
H662 C680 0.951 1_655 S
H663 C682 0.951 . S
H664 C684 0.950 . S
H665 C685 0.950 . S
H666 C687 0.950 . S
H667 C690 0.950 . S
H668 C691 0.950 . S
H669 C693 0.950 . S
H670 C694 0.950 . S
H671 C695 0.951 . S
H672 C697 0.951 . S
H673 C699 0.950 . S
H674 C700 0.950 . S
H675 C702 0.950 . S
H676 C705 0.950 . S
H677 C706 0.950 . S
H678 C708 0.950 . S
H679 C709 0.950 . S
C680 H662 0.951 1_455 S
C680 C681 1.366 . S
C680 C682 1.388 . S
C681 C680 1.366 . S
C681 C685 1.385 . S
C682 H663 0.951 . S
C682 C680 1.388 . S
C682 C683 1.366 . S
C683 C682 1.366 . S
C683 C684 1.414 . S
C683 C686 1.499 . S
C684 H664 0.950 . S
C684 C683 1.414 . S
C684 C685 1.374 . S
C685 H665 0.950 . S
C685 C681 1.385 . S
C685 C684 1.374 . S
C686 C683 1.499 . S
C686 C687 1.373 . S
C686 C688 1.389 . S
C687 H666 0.950 . S
C687 C686 1.373 . S
C687 C703 1.377 . S
C688 C686 1.389 . S
C688 C689 1.524 1_455 S
C688 C702 1.377 . S
C689 C688 1.524 1_655 S
C689 C690 1.397 . S
C689 C694 1.363 . S
C690 H667 0.950 . S
C690 C689 1.397 . S
C690 C691 1.334 . S
C691 H668 0.950 . S
C691 C690 1.334 . S
C691 C692 1.287 . S
C692 C691 1.287 . S
C692 C693 1.524 . S
C692 H711 0.913 . S
C693 H669 0.950 . S
C693 C692 1.524 . S
C693 C694 1.415 . S
C694 H670 0.950 . S
C694 C689 1.363 . S
C694 C693 1.415 . S
C695 H671 0.951 . S
C695 C696 1.366 . S
C695 C697 1.388 . S
C696 C695 1.366 . S
C696 C700 1.385 . S
C697 H672 0.951 . S
C697 C695 1.388 . S
C697 C698 1.366 . S
C698 C697 1.366 . S
C698 C699 1.414 . S
C698 C701 1.499 . S
C699 H673 0.950 . S
C699 C698 1.414 . S
C699 C700 1.374 . S
C700 H674 0.950 . S
C700 C696 1.385 . S
C700 C699 1.374 . S
C701 C698 1.499 . S
C701 C702 1.373 . S
C701 C703 1.389 . S
C702 H675 0.950 . S
C702 C688 1.377 . S
C702 C701 1.373 . S
C703 C687 1.377 . S
C703 C701 1.389 . S
C703 C704 1.524 . S
C704 C703 1.524 . S
C704 C705 1.397 . S
C704 C709 1.363 . S
C705 H676 0.950 . S
C705 C704 1.397 . S
C705 C706 1.334 . S
C706 H677 0.950 . S
C706 C705 1.334 . S
C706 C707 1.287 . S
C707 C706 1.287 . S
C707 C708 1.524 . S
C707 H710 0.999 . S
C708 H678 0.950 . S
C708 C707 1.524 . S
C708 C709 1.415 . S
C709 H679 0.950 . S
C709 C704 1.363 . S
C709 C708 1.415 . S
H710 C707 0.999 . S
H711 C692 0.913 . S
H712 C730 0.951 . S
H713 C732 0.951 . S
H714 C734 0.950 . S
H715 C735 0.950 . S
H716 C737 0.950 . S
H717 C740 0.950 . S
H718 C741 0.950 . S
H719 C743 0.950 . S
H720 C744 0.950 . S
H721 C745 0.951 . S
H722 C747 0.951 . S
H723 C749 0.950 . S
H724 C750 0.950 . S
H725 C752 0.950 . S
H726 C755 0.950 . S
H727 C756 0.950 . S
H728 C758 0.950 . S
H729 C759 0.950 . S
C730 H712 0.951 . S
C730 C731 1.366 . S
C730 C732 1.388 . S
C731 C730 1.366 . S
C731 C735 1.385 . S
C732 H713 0.951 . S
C732 C730 1.388 . S
C732 C733 1.366 . S
C733 C732 1.366 . S
C733 C734 1.414 . S
C733 C736 1.499 . S
C734 H714 0.950 . S
C734 C733 1.414 . S
C734 C735 1.374 . S
C735 H715 0.950 . S
C735 C731 1.385 . S
C735 C734 1.374 . S
C736 C733 1.499 . S
C736 C737 1.373 . S
C736 C738 1.389 . S
C737 H716 0.950 . S
C737 C736 1.373 . S
C737 C753 1.377 . S
C738 C736 1.389 . S
C738 C739 1.524 . S
C738 C752 1.377 . S
C739 C738 1.524 . S
C739 C740 1.397 . S
C739 C744 1.363 . S
C740 H717 0.950 . S
C740 C739 1.397 . S
C740 C741 1.334 . S
C741 H718 0.950 . S
C741 C740 1.334 . S
C741 C742 1.287 . S
C742 C741 1.287 . S
C742 C743 1.524 . S
C742 H761 0.913 . S
C743 H719 0.950 . S
C743 C742 1.524 . S
C743 C744 1.415 . S
C744 H720 0.950 . S
C744 C739 1.363 . S
C744 C743 1.415 . S
C745 H721 0.951 . S
C745 C746 1.366 . S
C745 C747 1.388 . S
C746 C745 1.366 . S
C746 C750 1.385 . S
C747 H722 0.951 . S
C747 C745 1.388 . S
C747 C748 1.366 . S
C748 C747 1.366 . S
C748 C749 1.414 . S
C748 C751 1.499 . S
C749 H723 0.950 . S
C749 C748 1.414 . S
C749 C750 1.374 . S
C750 H724 0.950 . S
C750 C746 1.385 . S
C750 C749 1.374 . S
C751 C748 1.499 . S
C751 C752 1.373 . S
C751 C753 1.389 . S
C752 H725 0.950 . S
C752 C738 1.377 . S
C752 C751 1.373 . S
C753 C737 1.377 . S
C753 C751 1.389 . S
C753 C754 1.524 . S
C754 C753 1.524 . S
C754 C755 1.397 . S
C754 C759 1.363 . S
C755 H726 0.950 . S
C755 C754 1.397 . S
C755 C756 1.334 . S
C756 H727 0.950 . S
C756 C755 1.334 . S
C756 C757 1.287 . S
C757 C756 1.287 . S
C757 C758 1.524 . S
C757 H760 0.999 . S
C758 H728 0.950 . S
C758 C757 1.524 . S
C758 C759 1.415 . S
C759 H729 0.950 . S
C759 C754 1.363 . S
C759 C758 1.415 . S
H760 C757 0.999 . S
H761 C742 0.913 . S
H762 C780 0.951 . S
H763 C782 0.951 . S
H764 C784 0.950 . S
H765 C785 0.950 . S
H766 C787 0.950 . S
H767 C790 0.950 . S
H768 C791 0.950 . S
H769 C793 0.950 . S
H770 C794 0.950 . S
H771 C795 0.951 . S
H772 C797 0.951 . S
H773 C799 0.950 . S
H774 C800 0.950 . S
H775 C802 0.950 . S
H776 C805 0.950 . S
H777 C806 0.950 . S
H778 C808 0.950 . S
H779 C809 0.950 . S
C780 H762 0.951 . S
C780 C781 1.366 . S
C780 C782 1.388 . S
C781 C780 1.366 . S
C781 C785 1.385 . S
C782 H763 0.951 . S
C782 C780 1.388 . S
C782 C783 1.366 . S
C783 C782 1.366 . S
C783 C784 1.414 . S
C783 C786 1.499 . S
C784 H764 0.950 . S
C784 C783 1.414 . S
C784 C785 1.374 . S
C785 H765 0.950 . S
C785 C781 1.385 . S
C785 C784 1.374 . S
C786 C783 1.499 . S
C786 C787 1.373 . S
C786 C788 1.389 . S
C787 H766 0.950 . S
C787 C786 1.373 . S
C787 C803 1.377 . S
C788 C786 1.389 . S
C788 C789 1.524 . S
C788 C802 1.377 . S
C789 C788 1.524 . S
C789 C790 1.397 . S
C789 C794 1.363 . S
C790 H767 0.950 . S
C790 C789 1.397 . S
C790 C791 1.334 . S
C791 H768 0.950 . S
C791 C790 1.334 . S
C791 C792 1.287 . S
C792 C791 1.287 . S
C792 C793 1.524 . S
C792 H811 0.913 . S
C793 H769 0.950 . S
C793 C792 1.524 . S
C793 C794 1.415 . S
C794 H770 0.950 . S
C794 C789 1.363 . S
C794 C793 1.415 . S
C795 H771 0.951 . S
C795 C796 1.366 . S
C795 C797 1.388 . S
C796 C795 1.366 . S
C796 C800 1.385 . S
C797 H772 0.951 . S
C797 C795 1.388 . S
C797 C798 1.366 . S
C798 C797 1.366 . S
C798 C799 1.414 . S
C798 C801 1.499 . S
C799 H773 0.950 . S
C799 C798 1.414 . S
C799 C800 1.374 . S
C800 H774 0.950 . S
C800 C796 1.385 . S
C800 C799 1.374 . S
C801 C798 1.499 . S
C801 C802 1.373 . S
C801 C803 1.389 . S
C802 H775 0.950 . S
C802 C788 1.377 . S
C802 C801 1.373 . S
C803 C787 1.377 . S
C803 C801 1.389 . S
C803 C804 1.524 . S
C804 C803 1.524 . S
C804 C805 1.397 . S
C804 C809 1.363 . S
C805 H776 0.950 . S
C805 C804 1.397 . S
C805 C806 1.334 . S
C806 H777 0.950 . S
C806 C805 1.334 . S
C806 C807 1.287 . S
C807 C806 1.287 . S
C807 C808 1.524 . S
C807 H810 0.999 . S
C808 H778 0.950 . S
C808 C807 1.524 . S
C808 C809 1.415 . S
C809 H779 0.950 . S
C809 C804 1.363 . S
C809 C808 1.415 . S
H810 C807 0.999 . S
H811 C792 0.913 . S
H812 C830 0.951 . S
H813 C832 0.951 . S
H814 C834 0.950 . S
H815 C835 0.950 . S
H816 C837 0.950 . S
H817 C840 0.950 . S
H818 C841 0.950 . S
H819 C843 0.950 . S
H820 C844 0.950 . S
H821 C845 0.951 . S
H822 C847 0.951 . S
H823 C849 0.943 1_565 S
H824 C850 0.950 . S
H825 C852 0.950 . S
H826 C855 0.950 1_565 S
H827 C856 0.950 1_565 S
H828 C858 0.950 . S
H829 C859 0.950 . S
C830 H812 0.951 . S
C830 C831 1.366 . S
C830 C832 1.388 . S
C831 C830 1.366 . S
C831 C835 1.385 . S
C832 H813 0.951 . S
C832 C830 1.388 . S
C832 C833 1.366 . S
C833 C832 1.366 . S
C833 C834 1.414 . S
C833 C836 1.499 . S
C834 H814 0.950 . S
C834 C833 1.414 . S
C834 C835 1.374 . S
C835 H815 0.950 . S
C835 C831 1.385 . S
C835 C834 1.374 . S
C836 C833 1.499 . S
C836 C837 1.373 . S
C836 C838 1.389 . S
C837 H816 0.950 . S
C837 C836 1.373 . S
C837 C853 1.377 . S
C838 C836 1.389 . S
C838 C839 1.524 . S
C838 C852 1.377 . S
C839 C838 1.524 . S
C839 C840 1.397 . S
C839 C844 1.363 . S
C840 H817 0.950 . S
C840 C839 1.397 . S
C840 C841 1.334 . S
C841 H818 0.950 . S
C841 C840 1.334 . S
C841 C842 1.287 . S
C842 C841 1.287 . S
C842 C843 1.524 . S
C842 H861 0.913 . S
C843 H819 0.950 . S
C843 C842 1.524 . S
C843 C844 1.415 . S
C844 H820 0.950 . S
C844 C839 1.363 . S
C844 C843 1.415 . S
C845 H821 0.951 . S
C845 C846 1.366 . S
C845 C847 1.388 . S
C846 C845 1.366 . S
C846 C850 1.385 1_545 S
C847 H822 0.951 . S
C847 C845 1.388 . S
C847 C848 1.366 . S
C848 C847 1.366 . S
C848 C849 1.426 . S
C848 C851 1.499 . S
C849 H823 0.943 1_545 S
C849 C848 1.426 . S
C849 C850 1.369 1_545 S
C850 H824 0.950 . S
C850 C846 1.385 1_565 S
C850 C849 1.369 1_565 S
C851 C848 1.499 . S
C851 C852 1.373 . S
C851 C853 1.389 . S
C852 H825 0.950 . S
C852 C838 1.377 . S
C852 C851 1.373 . S
C853 C837 1.377 . S
C853 C851 1.389 . S
C853 C854 1.524 . S
C854 C853 1.524 . S
C854 C855 1.397 . S
C854 C859 1.363 . S
C855 H826 0.950 1_545 S
C855 C854 1.397 . S
C855 C856 1.334 . S
C856 H827 0.950 1_545 S
C856 C855 1.334 . S
C856 C857 1.287 . S
C857 C856 1.287 . S
C857 C858 1.524 . S
C857 H860 0.999 . S
C858 H828 0.950 . S
C858 C857 1.524 . S
C858 C859 1.415 . S
C859 H829 0.950 . S
C859 C854 1.363 . S
C859 C858 1.415 . S
H860 C857 0.999 . S
H861 C842 0.913 . S
H862 C880 0.951 . S
H863 C882 0.951 . S
H864 C884 0.950 . S
H865 C885 0.950 . S
H866 C887 0.950 . S
H867 C890 0.950 . S
H868 C891 0.950 . S
H869 C893 0.950 . S
H870 C894 0.950 . S
H871 C895 0.951 . S
H872 C897 0.951 . S
H873 C899 0.950 . S
H874 C900 0.950 . S
H875 C902 0.950 . S
H876 C905 0.950 1_655 S
H877 C906 0.950 . S
H878 C908 0.950 . S
H879 C909 0.952 . S
C880 H862 0.951 . S
C880 C881 1.366 . S
C880 C882 1.388 . S
C881 C880 1.366 . S
C881 C885 1.385 . S
C882 H863 0.951 . S
C882 C880 1.388 . S
C882 C883 1.366 . S
C883 C882 1.366 . S
C883 C884 1.414 . S
C883 C886 1.499 . S
C884 H864 0.950 . S
C884 C883 1.414 . S
C884 C885 1.374 . S
C885 H865 0.950 . S
C885 C881 1.385 . S
C885 C884 1.374 . S
C886 C883 1.499 . S
C886 C887 1.373 . S
C886 C888 1.389 . S
C887 H866 0.950 . S
C887 C886 1.373 . S
C887 C903 1.377 . S
C888 C886 1.389 . S
C888 C889 1.524 . S
C888 C902 1.377 . S
C889 C888 1.524 . S
C889 C890 1.397 . S
C889 C894 1.363 . S
C890 H867 0.950 . S
C890 C889 1.397 . S
C890 C891 1.334 . S
C891 H868 0.950 . S
C891 C890 1.334 . S
C891 C892 1.287 . S
C892 C891 1.287 . S
C892 C893 1.524 . S
C892 H911 0.913 . S
C893 H869 0.950 . S
C893 C892 1.524 . S
C893 C894 1.415 . S
C894 H870 0.950 . S
C894 C889 1.363 . S
C894 C893 1.415 . S
C895 H871 0.951 . S
C895 C896 1.366 . S
C895 C897 1.388 . S
C896 C895 1.366 . S
C896 C900 1.385 . S
C897 H872 0.951 . S
C897 C895 1.388 . S
C897 C898 1.366 . S
C898 C897 1.366 . S
C898 C899 1.414 . S
C898 C901 1.499 . S
C899 H873 0.950 . S
C899 C898 1.414 . S
C899 C900 1.374 . S
C900 H874 0.950 . S
C900 C896 1.385 . S
C900 C899 1.374 . S
C901 C898 1.499 . S
C901 C902 1.373 . S
C901 C903 1.389 . S
C902 H875 0.950 . S
C902 C888 1.377 . S
C902 C901 1.373 . S
C903 C887 1.377 . S
C903 C901 1.389 . S
C903 C904 1.524 . S
C904 C903 1.524 . S
C904 C905 1.397 1_655 S
C904 C909 1.365 . S
C905 H876 0.950 1_455 S
C905 C904 1.397 1_455 S
C905 C906 1.334 . S
C906 H877 0.950 . S
C906 C905 1.334 . S
C906 C907 1.287 . S
C907 C906 1.287 . S
C907 C908 1.524 . S
C907 H910 0.999 . S
C908 H878 0.950 . S
C908 C907 1.524 . S
C908 C909 1.411 1_455 S
C909 H879 0.952 . S
C909 C904 1.365 . S
C909 C908 1.411 1_655 S
H910 C907 0.999 . S
H911 C892 0.913 . S
C131 C67 1.614 . S
C146 C11 1.608 . S
C181 C25 1.608 . S
C196 C81 1.614 . S
C231 C39 1.608 . S
C246 C95 1.614 . S
C281 C109 1.614 . S
C296 C53 1.608 . S
C331 C0 1.370 . S
C346 C28 1.370 . S
C381 C14 1.370 . S
C396 C42 1.370 . S
C431 C93 1.300 . S
C446 C65 1.299 . S
C481 C79 1.300 . S
C496 C107 1.300 . S
C531 C75 0.875 . S
C546 C9 0.867 . S
C581 C23 0.867 . S
C596 C89 0.875 . S
C631 C37 0.867 . S
C646 C103 0.873 1_565 S
C681 C61 0.874 1_455 S
C696 C51 0.867 . S
C731 C56 0.888 . S
C746 C19 0.895 . S
C781 C70 0.890 . S
C796 C33 0.896 . S
C831 C84 0.889 . S
C846 C47 0.896 1_545 S
C881 C5 0.895 1_655 S
C896 C98 0.888 . S
