# Generated by pormake.
# Topology pcl, (4)-cn, num edge types: 1
# Building blocks:
#     Node 0, Type 0, BuildingBlock: QUQFOY_clean_sbu_1, # of connection points: 4
#     Node 1, Type 0, BuildingBlock: QUQFOY_clean_sbu_1, # of connection points: 4
#     Node 2, Type 0, BuildingBlock: QUQFOY_clean_sbu_1, # of connection points: 4
#     Node 3, Type 0, BuildingBlock: QUQFOY_clean_sbu_1, # of connection points: 4
#     Node 4, Type 0, BuildingBlock: QUQFOY_clean_sbu_1, # of connection points: 4
#     Node 5, Type 0, BuildingBlock: QUQFOY_clean_sbu_1, # of connection points: 4
#     Node 6, Type 0, BuildingBlock: QUQFOY_clean_sbu_1, # of connection points: 4
#     Node 7, Type 0, BuildingBlock: QUQFOY_clean_sbu_1, # of connection points: 4
#     Node 8, Type 0, BuildingBlock: QUQFOY_clean_sbu_1, # of connection points: 4
#     Node 9, Type 0, BuildingBlock: QUQFOY_clean_sbu_1, # of connection points: 4
#     Node 10, Type 0, BuildingBlock: QUQFOY_clean_sbu_1, # of connection points: 4
#     Node 11, Type 0, BuildingBlock: QUQFOY_clean_sbu_1, # of connection points: 4
#     Node 12, Type 0, BuildingBlock: QUQFOY_clean_sbu_1, # of connection points: 4
#     Node 13, Type 0, BuildingBlock: QUQFOY_clean_sbu_1, # of connection points: 4
#     Node 14, Type 0, BuildingBlock: QUQFOY_clean_sbu_1, # of connection points: 4
#     Node 15, Type 0, BuildingBlock: QUQFOY_clean_sbu_1, # of connection points: 4
#     Edge 16, Type (0, 0), BuildingBlock: XUDNAN_clean_linker_2, # of connection points: 2
#     Edge 17, Type (0, 0), BuildingBlock: XUDNAN_clean_linker_2, # of connection points: 2
#     Edge 18, Type (0, 0), BuildingBlock: XUDNAN_clean_linker_2, # of connection points: 2
#     Edge 19, Type (0, 0), BuildingBlock: XUDNAN_clean_linker_2, # of connection points: 2
#     Edge 20, Type (0, 0), BuildingBlock: XUDNAN_clean_linker_2, # of connection points: 2
#     Edge 21, Type (0, 0), BuildingBlock: XUDNAN_clean_linker_2, # of connection points: 2
#     Edge 22, Type (0, 0), BuildingBlock: XUDNAN_clean_linker_2, # of connection points: 2
#     Edge 23, Type (0, 0), BuildingBlock: XUDNAN_clean_linker_2, # of connection points: 2
#     Edge 24, Type (0, 0), BuildingBlock: XUDNAN_clean_linker_2, # of connection points: 2
#     Edge 25, Type (0, 0), BuildingBlock: XUDNAN_clean_linker_2, # of connection points: 2
#     Edge 26, Type (0, 0), BuildingBlock: XUDNAN_clean_linker_2, # of connection points: 2
#     Edge 27, Type (0, 0), BuildingBlock: XUDNAN_clean_linker_2, # of connection points: 2
#     Edge 28, Type (0, 0), BuildingBlock: XUDNAN_clean_linker_2, # of connection points: 2
#     Edge 29, Type (0, 0), BuildingBlock: XUDNAN_clean_linker_2, # of connection points: 2
#     Edge 30, Type (0, 0), BuildingBlock: XUDNAN_clean_linker_2, # of connection points: 2
#     Edge 31, Type (0, 0), BuildingBlock: XUDNAN_clean_linker_2, # of connection points: 2
#     Edge 32, Type (0, 0), BuildingBlock: XUDNAN_clean_linker_2, # of connection points: 2
#     Edge 33, Type (0, 0), BuildingBlock: XUDNAN_clean_linker_2, # of connection points: 2
#     Edge 34, Type (0, 0), BuildingBlock: XUDNAN_clean_linker_2, # of connection points: 2
#     Edge 35, Type (0, 0), BuildingBlock: XUDNAN_clean_linker_2, # of connection points: 2
#     Edge 36, Type (0, 0), BuildingBlock: XUDNAN_clean_linker_2, # of connection points: 2
#     Edge 37, Type (0, 0), BuildingBlock: XUDNAN_clean_linker_2, # of connection points: 2
#     Edge 38, Type (0, 0), BuildingBlock: XUDNAN_clean_linker_2, # of connection points: 2
#     Edge 39, Type (0, 0), BuildingBlock: XUDNAN_clean_linker_2, # of connection points: 2
#     Edge 40, Type (0, 0), BuildingBlock: XUDNAN_clean_linker_2, # of connection points: 2
#     Edge 41, Type (0, 0), BuildingBlock: XUDNAN_clean_linker_2, # of connection points: 2
#     Edge 42, Type (0, 0), BuildingBlock: XUDNAN_clean_linker_2, # of connection points: 2
#     Edge 43, Type (0, 0), BuildingBlock: XUDNAN_clean_linker_2, # of connection points: 2
#     Edge 44, Type (0, 0), BuildingBlock: XUDNAN_clean_linker_2, # of connection points: 2
#     Edge 45, Type (0, 0), BuildingBlock: XUDNAN_clean_linker_2, # of connection points: 2
#     Edge 46, Type (0, 0), BuildingBlock: XUDNAN_clean_linker_2, # of connection points: 2
#     Edge 47, Type (0, 0), BuildingBlock: XUDNAN_clean_linker_2, # of connection points: 2
# Relax obj value: 0.092
# Max RMSD: 0.136
# Mean RMSD: 0.119
data_MOF--net-pcl--node1-QUQFOY_clean_sbu_1--edge1-XUDNAN_clean_linker_2
_symmetry_space_group_name_H-M    P1
_symmetry_Int_Tables_number       1
_symmetry_cell_setting            triclinic
loop_
_symmetry_equiv_pos_as_xyz
'x, y, z'
_cell_length_a     52.919588
_cell_length_b     44.685393
_cell_length_c     46.179895
_cell_angle_alpha  90.050122
_cell_angle_beta   90.033767
_cell_angle_gamma 89.941389
loop_
_atom_site_label
_atom_site_type_symbol
_atom_site_fract_x
_atom_site_fract_y
_atom_site_fract_z
_atom_type_partial_charge
O0 O 0.16317 0.32147 0.14123 0.0
Cd1 Cd 0.15378 0.3096 0.09912 0.0
Cd2 Cd 0.14363 0.36865 0.09337 0.0
O3 O 0.15993 0.37006 0.13384 0.0
O4 O 0.17502 0.27473 0.08691 0.0
O5 O 0.17738 0.31962 0.06669 0.0
C6 C 0.18525 0.29228 0.06805 0.0
C7 C 0.15494 0.40531 0.05963 0.0
C8 C 0.16531 0.34821 0.15035 0.0
C9 C 0.09997 0.32503 0.08796 0.0
O10 O 0.1073 0.35204 0.09015 0.0
O11 O 0.11584 0.30365 0.08942 0.0
O12 O 0.14103 0.41164 0.08169 0.0
O13 O 0.16277 0.37811 0.05684 0.0
O14 O 0.85625 0.67917 0.64478 0.0
Cd15 Cd 0.8658 0.68987 0.6025 0.0
Cd16 Cd 0.87553 0.63066 0.59838 0.0
O17 O 0.85901 0.63033 0.63872 0.0
O18 O 0.84492 0.72492 0.59013 0.0
O19 O 0.84201 0.6799 0.57018 0.0
C20 C 0.8344 0.70733 0.57148 0.0
C21 C 0.86375 0.5941 0.56476 0.0
C22 C 0.85379 0.65275 0.65459 0.0
C23 C 0.91948 0.67369 0.59215 0.0
O24 O 0.91197 0.64682 0.59506 0.0
O25 O 0.90375 0.69524 0.59286 0.0
O26 O 0.87759 0.58756 0.58684 0.0
O27 O 0.85623 0.62142 0.56196 0.0
O28 O 0.16453 0.68137 0.87688 0.0
Cd29 Cd 0.15518 0.68344 0.92049 0.0
Cd30 Cd 0.14222 0.62556 0.91184 0.0
O31 O 0.15733 0.63316 0.87154 0.0
O32 O 0.17525 0.71758 0.93612 0.0
O33 O 0.18051 0.67076 0.95071 0.0
C34 C 0.18723 0.69852 0.95199 0.0
C35 C 0.15339 0.58122 0.9352 0.0
C36 C 0.1645 0.65802 0.86113 0.0
C37 C 0.10043 0.66835 0.92812 0.0
O38 O 0.10653 0.64224 0.91961 0.0
O39 O 0.11726 0.68842 0.93148 0.0
O40 O 0.13899 0.58116 0.91271 0.0
O41 O 0.16159 0.60659 0.9447 0.0
O42 O 0.85514 0.32658 0.36497 0.0
Cd43 Cd 0.86425 0.31809 0.40788 0.0
Cd44 Cd 0.87475 0.37758 0.41036 0.0
O45 O 0.85804 0.37543 0.37018 0.0
O46 O 0.84329 0.28374 0.42126 0.0
O47 O 0.8398 0.32965 0.43917 0.0
C48 C 0.83229 0.30212 0.43881 0.0
C49 C 0.86492 0.42065 0.43681 0.0
C50 C 0.85265 0.3528 0.35474 0.0
C51 C 0.91801 0.33385 0.41922 0.0
O52 O 0.91096 0.36077 0.41526 0.0
O53 O 0.90199 0.31263 0.41867 0.0
O54 O 0.87888 0.4217 0.41405 0.0
O55 O 0.85664 0.39491 0.44516 0.0
O56 O 0.85931 0.61802 0.97949 0.0
Cd57 Cd 0.86503 0.66337 0.9734 0.0
Cd58 Cd 0.86959 0.64248 0.91338 0.0
O59 O 0.85576 0.60495 0.93365 0.0
O60 O 0.85583 0.67935 0.01224 0.0
O61 O 0.83448 0.69088 0.97269 0.0
C62 C 0.83683 0.69267 1.00048 0.0
C63 C 0.85821 0.64352 0.86427 0.0
C64 C 0.85453 0.59843 0.96033 0.0
C65 C 0.91536 0.67045 0.94399 0.0
O66 O 0.90612 0.65595 0.92274 0.0
O67 O 0.90166 0.67768 0.96555 0.0
O68 O 0.87379 0.62414 0.8744 0.0
O69 O 0.84934 0.66342 0.88177 0.0
O70 O 0.16054 0.38224 0.47629 0.0
Cd71 Cd 0.15416 0.33847 0.46375 0.0
Cd72 Cd 0.14907 0.36416 0.40903 0.0
O73 O 0.16437 0.39944 0.43184 0.0
O74 O 0.17063 0.31356 0.49413 0.0
O75 O 0.18319 0.31416 0.44833 0.0
C76 C 0.18637 0.30474 0.47456 0.0
C77 C 0.16087 0.36362 0.36006 0.0
C78 C 0.16585 0.4034 0.45901 0.0
C79 C 0.10303 0.33515 0.43727 0.0
O80 O 0.11207 0.35182 0.41751 0.0
O81 O 0.11715 0.3251 0.45735 0.0
O82 O 0.1463 0.38393 0.37054 0.0
O83 O 0.16867 0.34279 0.37722 0.0
O84 O 0.85656 0.37299 0.03134 0.0
Cd85 Cd 0.86272 0.33109 0.04889 0.0
Cd86 Cd 0.87035 0.3649 0.09791 0.0
O87 O 0.85775 0.3991 0.07176 0.0
O88 O 0.84713 0.30432 0.01941 0.0
O89 O 0.83302 0.3079 0.06443 0.0
C90 C 0.83058 0.29706 0.03862 0.0
C91 C 0.85586 0.36512 0.14565 0.0
C92 C 0.85435 0.39776 0.04459 0.0
C93 C 0.9148 0.33 0.07391 0.0
O94 O 0.90678 0.3499 0.09136 0.0
O95 O 0.89982 0.31769 0.05591 0.0
O96 O 0.87129 0.38511 0.13625 0.0
O97 O 0.8485 0.3445 0.12798 0.0
O98 O 0.1641 0.62387 0.53903 0.0
Cd99 Cd 0.15679 0.66721 0.55261 0.0
Cd100 Cd 0.14921 0.63358 0.60366 0.0
O101 O 0.16261 0.59814 0.57972 0.0
O102 O 0.16379 0.68861 0.51575 0.0
O103 O 0.1867 0.69572 0.55501 0.0
C104 C 0.18297 0.70107 0.52788 0.0
C105 C 0.16419 0.64196 0.6505 0.0
C106 C 0.16651 0.59931 0.55264 0.0
C107 C 0.10463 0.66698 0.57896 0.0
O108 O 0.11255 0.64685 0.59615 0.0
O109 O 0.11971 0.67971 0.56142 0.0
O110 O 0.14945 0.61984 0.64458 0.0
O111 O 0.17116 0.6591 0.62943 0.0
O112 O 0.66153 0.82901 0.15534 0.0
Cd113 Cd 0.65635 0.81561 0.11269 0.0
Cd114 Cd 0.64718 0.876 0.10403 0.0
O115 O 0.66006 0.87727 0.14605 0.0
O116 O 0.67444 0.77667 0.11017 0.0
O117 O 0.68586 0.8166 0.08497 0.0
C118 C 0.68997 0.78913 0.09236 0.0
C119 C 0.6589 0.91733 0.07616 0.0
C120 C 0.66355 0.85597 0.16377 0.0
C121 C 0.60424 0.83202 0.09355 0.0
O122 O 0.6115 0.85901 0.09622 0.0
O123 O 0.61965 0.81053 0.0976 0.0
O124 O 0.64306 0.9197 0.09711 0.0
O125 O 0.66813 0.89126 0.07042 0.0
O126 O 0.36054 0.17582 0.63321 0.0
Cd127 Cd 0.36758 0.19301 0.59253 0.0
Cd128 Cd 0.3831 0.13717 0.57953 0.0
O129 O 0.3751 0.13079 0.62294 0.0
O130 O 0.34282 0.22555 0.58394 0.0
O131 O 0.3449 0.18305 0.55918 0.0
C132 C 0.3343 0.20877 0.56333 0.0
C133 C 0.37144 0.098 0.54863 0.0
C134 C 0.36579 0.14926 0.64101 0.0
C135 C 0.42104 0.18782 0.57375 0.0
O136 O 0.41565 0.16049 0.56916 0.0
O137 O 0.40445 0.20554 0.58394 0.0
O138 O 0.39122 0.09632 0.56476 0.0
O139 O 0.35805 0.12211 0.54979 0.0
O140 O 0.66039 0.17844 0.87256 0.0
Cd141 Cd 0.65139 0.18756 0.91542 0.0
Cd142 Cd 0.64192 0.128 0.91731 0.0
O143 O 0.65745 0.12939 0.87648 0.0
O144 O 0.67231 0.22226 0.92873 0.0
O145 O 0.67566 0.17653 0.94692 0.0
C146 C 0.68313 0.20402 0.94654 0.0
C147 C 0.65529 0.09073 0.94941 0.0
C148 C 0.66254 0.15248 0.86152 0.0
C149 C 0.59791 0.17058 0.92637 0.0
O150 O 0.60549 0.14387 0.92231 0.0
O151 O 0.61351 0.19224 0.92606 0.0
O152 O 0.64069 0.08456 0.92787 0.0
O153 O 0.66256 0.11809 0.95255 0.0
O154 O 0.35957 0.81836 0.36796 0.0
Cd155 Cd 0.36526 0.81321 0.41208 0.0
Cd156 Cd 0.37712 0.87221 0.40666 0.0
O157 O 0.36572 0.867 0.36436 0.0
O158 O 0.34541 0.77663 0.42097 0.0
O159 O 0.33612 0.82126 0.43914 0.0
C160 C 0.33058 0.79328 0.43618 0.0
C161 C 0.36558 0.9155 0.43164 0.0
C162 C 0.35997 0.84211 0.35283 0.0
C163 C 0.41831 0.82868 0.42574 0.0
O164 O 0.41181 0.85477 0.41771 0.0
O165 O 0.40205 0.80777 0.42687 0.0
O166 O 0.383 0.91579 0.41219 0.0
O167 O 0.35397 0.89061 0.43655 0.0
O168 O 0.35359 0.1151 0.96919 0.0
Cd169 Cd 0.36017 0.15949 0.95912 0.0
Cd170 Cd 0.36946 0.13345 0.90274 0.0
O171 O 0.35329 0.09803 0.92437 0.0
O172 O 0.34345 0.18204 0.99109 0.0
O173 O 0.33148 0.18544 0.94523 0.0
C174 C 0.32809 0.19278 0.97204 0.0
C175 C 0.3641 0.13036 0.85223 0.0
C176 C 0.35 0.09392 0.9513 0.0
C177 C 0.41261 0.16427 0.93617 0.0
O178 O 0.40496 0.14793 0.91537 0.0
O179 O 0.39733 0.17341 0.95552 0.0
O180 O 0.37809 0.11191 0.86629 0.0
O181 O 0.35304 0.1513 0.86673 0.0
O182 O 0.66001 0.87917 0.48961 0.0
Cd183 Cd 0.65469 0.83716 0.47197 0.0
Cd184 Cd 0.64689 0.87099 0.42264 0.0
O185 O 0.65935 0.90514 0.44912 0.0
O186 O 0.67092 0.81048 0.50104 0.0
O187 O 0.68457 0.81461 0.45587 0.0
C188 C 0.68734 0.80355 0.48153 0.0
C189 C 0.6595 0.87305 0.37409 0.0
C190 C 0.66226 0.90393 0.47639 0.0
C191 C 0.60284 0.83519 0.44713 0.0
O192 O 0.61081 0.85506 0.42967 0.0
O193 O 0.61783 0.8231 0.46524 0.0
O194 O 0.64414 0.89233 0.38496 0.0
O195 O 0.66803 0.8522 0.39079 0.0
O196 O 0.35806 0.87296 0.03018 0.0
Cd197 Cd 0.36679 0.83124 0.04704 0.0
Cd198 Cd 0.37476 0.86585 0.09442 0.0
O199 O 0.35961 0.8999 0.07011 0.0
O200 O 0.35126 0.80377 0.01804 0.0
O201 O 0.33867 0.80605 0.06369 0.0
C202 C 0.33575 0.79531 0.03792 0.0
C203 C 0.36094 0.85789 0.14168 0.0
C204 C 0.3552 0.89783 0.04317 0.0
C205 C 0.41983 0.83383 0.06892 0.0
O206 O 0.41159 0.85389 0.08601 0.0
O207 O 0.40471 0.81985 0.05226 0.0
O208 O 0.37502 0.88041 0.13511 0.0
O209 O 0.35402 0.84013 0.12104 0.0
O210 O 0.66082 0.12635 0.53701 0.0
Cd211 Cd 0.65459 0.17128 0.5433 0.0
Cd212 Cd 0.64643 0.15445 0.60246 0.0
O213 O 0.65569 0.11415 0.58286 0.0
O214 O 0.6727 0.19219 0.51139 0.0
O215 O 0.6827 0.19761 0.55774 0.0
C216 C 0.68718 0.20382 0.53088 0.0
C217 C 0.65779 0.1541 0.65153 0.0
C218 C 0.66055 0.10677 0.55688 0.0
C219 C 0.60411 0.18579 0.56864 0.0
O220 O 0.6126 0.17572 0.5925 0.0
O221 O 0.61747 0.18543 0.54577 0.0
O222 O 0.63953 0.13812 0.64175 0.0
O223 O 0.66945 0.17149 0.63373 0.0
H224 H 0.06063 0.36186 0.10155 0.0
H225 H 0.0776 0.27427 0.0659 0.0
H226 H 0.03182 0.2653 0.05845 0.0
H227 H 1.00468 0.33945 0.14034 0.0
H228 H 0.9885 0.37428 0.13362 0.0
H229 H 0.02247 0.3735 0.13575 0.0
H230 H 0.02534 0.39779 0.08489 0.0
H231 H 0.99139 0.39862 0.08259 0.0
H232 H 1.00954 0.38029 0.05471 0.0
H233 H 0.98367 0.26752 0.05276 0.0
H234 H 0.93783 0.27919 0.05269 0.0
H235 H 0.95344 0.36404 0.09477 0.0
C236 C 0.05477 0.34077 0.09213 0.0
C237 C 0.07268 0.31884 0.08409 0.0
C238 C 0.06418 0.29139 0.07221 0.0
C239 C 0.03824 0.28614 0.06785 0.0
C240 C 0.02109 0.3084 0.07588 0.0
C241 C 0.02908 0.33502 0.08808 0.0
C242 C 1.00703 0.35518 0.09543 0.0
C243 C 1.00559 0.36093 0.12823 0.0
C244 C 1.00841 0.38471 0.07838 0.0
C245 C 0.9853 0.33594 0.08519 0.0
C246 C 0.99369 0.30912 0.07376 0.0
C247 C 0.97691 0.28833 0.06195 0.0
C248 C 0.95094 0.29516 0.06193 0.0
C249 C 0.94204 0.32236 0.07399 0.0
C250 C 0.95957 0.34284 0.08579 0.0
H251 H 0.95852 0.6365 0.60608 0.0
H252 H 0.94227 0.72398 0.56982 0.0
H253 H 0.98813 0.73243 0.56256 0.0
H254 H 0.01454 0.65858 0.64498 0.0
H255 H 0.03049 0.62356 0.63848 0.0
H256 H 0.99652 0.62467 0.64046 0.0
H257 H 0.9936 0.60008 0.5897 0.0
H258 H 0.02755 0.59891 0.58755 0.0
H259 H 1.00958 0.61723 0.55951 0.0
H260 H 0.03618 0.72979 0.55729 0.0
H261 H 0.08192 0.71779 0.55753 0.0
H262 H 0.06574 0.63324 0.59973 0.0
C263 C 0.96454 0.65746 0.59656 0.0
C264 C 0.94682 0.67952 0.58832 0.0
C265 C 0.95554 0.70677 0.5763 0.0
C266 C 0.98152 0.71173 0.57204 0.0
C267 C 0.99848 0.68936 0.5803 0.0
C268 C 0.99029 0.66291 0.59259 0.0
C269 C 0.01218 0.64258 0.60012 0.0
C270 C 0.01351 0.63704 0.63296 0.0
C271 C 0.01063 0.61296 0.5832 0.0
C272 C 0.03406 0.66154 0.5899 0.0
C273 C 0.02587 0.68837 0.57832 0.0
C274 C 0.04278 0.70897 0.56656 0.0
C275 C 0.0687 0.70194 0.56672 0.0
C276 C 0.07742 0.67472 0.57888 0.0
C277 C 0.05975 0.65443 0.59065 0.0
H278 H 0.95231 0.64176 0.91358 0.0
H279 H 0.94055 0.71332 0.97567 0.0
H280 H 0.98676 0.72231 0.97718 0.0
H281 H 1.00723 0.61237 0.947 0.0
H282 H 0.02234 0.60236 0.91339 0.0
H283 H 0.9884 0.60335 0.91564 0.0
H284 H 0.98675 0.64051 0.8726 0.0
H285 H 0.02071 0.63956 0.87014 0.0
H286 H 1.00458 0.67482 0.87445 0.0
H287 H 0.03491 0.723 0.9716 0.0
H288 H 0.08027 0.71312 0.962 0.0
H289 H 0.05952 0.63905 0.90608 0.0
C290 C 0.95936 0.65964 0.9272 0.0
C291 C 0.9428 0.6771 0.94425 0.0
C292 C 0.9529 0.69978 0.96231 0.0
C293 C 0.9791 0.70507 0.96325 0.0
C294 C 0.99492 0.68724 0.94628 0.0
C295 C 0.98536 0.66483 0.92877 0.0
C296 C 1.00627 0.64757 0.91391 0.0
C297 C 1.00604 0.61446 0.92304 0.0
C298 C 1.00446 0.65083 0.88082 0.0
C299 C 0.02916 0.66366 0.92579 0.0
C300 C 0.02232 0.68673 0.94414 0.0
C301 C 0.04043 0.70491 0.95733 0.0
C302 C 0.06612 0.69919 0.95174 0.0
C303 C 0.07343 0.67518 0.9335 0.0
C304 C 0.05459 0.65737 0.92038 0.0
H305 H 0.06551 0.36818 0.41238 0.0
H306 H 0.07854 0.28764 0.4626 0.0
H307 H 0.03251 0.27735 0.46244 0.0
H308 H 1.00921 0.39003 0.44945 0.0
H309 H 0.99427 0.40496 0.41748 0.0
H310 H 0.02819 0.40484 0.4204 0.0
H311 H 0.03141 0.37551 0.37208 0.0
H312 H 0.99748 0.37553 0.36901 0.0
H313 H 0.01462 0.34066 0.3681 0.0
H314 H 0.9846 0.27573 0.45557 0.0
H315 H 0.93914 0.28502 0.44618 0.0
H316 H 0.9582 0.36835 0.40332 0.0
C317 C 0.05874 0.34821 0.42313 0.0
C318 C 0.07561 0.32851 0.43725 0.0
C319 C 0.06593 0.30297 0.45159 0.0
C320 C 0.03985 0.29692 0.45153 0.0
C321 C 0.02372 0.31688 0.43739 0.0
C322 C 0.03284 0.34217 0.42373 0.0
C323 C 0.01163 0.36088 0.41127 0.0
C324 C 0.01078 0.39202 0.42551 0.0
C325 C 0.01393 0.36327 0.37815 0.0
C326 C 0.98908 0.34217 0.41992 0.0
C327 C 0.99637 0.31668 0.43466 0.0
C328 C 0.97871 0.29572 0.4442 0.0
C329 C 0.95296 0.30113 0.43871 0.0
C330 C 0.94514 0.3275 0.42423 0.0
C331 C 0.96355 0.34814 0.41473 0.0
H332 H 0.45767 0.87061 0.08699 0.0
H333 H 0.44415 0.78283 0.04996 0.0
H334 H 0.49019 0.77233 0.05166 0.0
H335 H 0.51544 0.88534 0.04802 0.0
H336 H 0.52967 0.905 0.07796 0.0
H337 H 0.49586 0.90513 0.0736 0.0
H338 H 0.49068 0.88426 0.12562 0.0
H339 H 0.52446 0.88399 0.13012 0.0
H340 H 0.50664 0.85011 0.13555 0.0
H341 H 0.53815 0.77099 0.06032 0.0
H342 H 0.5833 0.7803 0.07156 0.0
H343 H 0.56431 0.87 0.10031 0.0
C344 C 0.46432 0.84914 0.07921 0.0
C345 C 0.44731 0.82743 0.06854 0.0
C346 C 0.45687 0.79978 0.05821 0.0
C347 C 0.48296 0.79362 0.05918 0.0
C348 C 0.49919 0.81552 0.07012 0.0
C349 C 0.49017 0.84286 0.07961 0.0
C350 C 0.51132 0.8629 0.09 0.0
C351 C 0.51318 0.89126 0.07127 0.0
C352 C 0.50807 0.87076 0.12223 0.0
C353 C 0.53374 0.84251 0.08526 0.0
C354 C 0.52647 0.81518 0.07397 0.0
C355 C 0.54402 0.79243 0.06888 0.0
C356 C 0.5696 0.79788 0.0754 0.0
C357 C 0.57738 0.82596 0.08656 0.0
C358 C 0.55908 0.84844 0.09142 0.0
H359 H 0.56595 0.16083 0.53771 0.0
H360 H 0.58277 0.23184 0.59852 0.0
H361 H 0.5373 0.24513 0.60065 0.0
H362 H 0.51115 0.19644 0.50032 0.0
H363 H 0.49403 0.16163 0.4986 0.0
H364 H 0.52808 0.16152 0.4976 0.0
H365 H 0.52909 0.1255 0.54154 0.0
H366 H 0.49513 0.12551 0.54267 0.0
H367 H 0.51292 0.13592 0.57441 0.0
H368 H 0.48973 0.24784 0.59912 0.0
H369 H 0.44405 0.23645 0.59855 0.0
H370 H 0.45823 0.16093 0.54169 0.0
C371 C 0.56003 0.1798 0.55067 0.0
C372 C 0.57769 0.19595 0.56735 0.0
C373 C 0.56939 0.21971 0.58519 0.0
C374 C 0.54368 0.22741 0.58644 0.0
C375 C 0.52654 0.21075 0.57006 0.0
C376 C 0.53437 0.18723 0.55271 0.0
C377 C 0.51201 0.17026 0.54047 0.0
C378 C 0.51128 0.17262 0.50727 0.0
C379 C 0.51231 0.13736 0.55038 0.0
C380 C 0.49039 0.18743 0.55414 0.0
C381 C 0.49912 0.21116 0.57053 0.0
C382 C 0.48268 0.22948 0.58615 0.0
C383 C 0.45673 0.22289 0.58562 0.0
C384 C 0.44755 0.19781 0.57007 0.0
C385 C 0.46464 0.18033 0.55367 0.0
H386 H 0.55888 0.13544 0.9085 0.0
H387 H 0.5752 0.21827 0.95379 0.0
H388 H 0.52931 0.22613 0.9618 0.0
H389 H 0.50339 0.1624 0.87174 0.0
H390 H 0.48722 0.12701 0.87412 0.0
H391 H 0.52121 0.128 0.87272 0.0
H392 H 0.52348 0.09765 0.92049 0.0
H393 H 0.4895 0.0966 0.92206 0.0
H394 H 0.50726 0.11136 0.95216 0.0
H395 H 0.48106 0.22308 0.96662 0.0
H396 H 0.43522 0.2117 0.96418 0.0
H397 H 0.45163 0.13267 0.91288 0.0
C398 C 0.55286 0.15522 0.9202 0.0
C399 C 0.57059 0.17613 0.93077 0.0
C400 C 0.5619 0.20196 0.94554 0.0
C401 C 0.5359 0.20654 0.95024 0.0
C402 C 0.51891 0.18532 0.93962 0.0
C403 C 0.52711 0.16037 0.92458 0.0
C404 C 0.5052 0.14128 0.91458 0.0
C405 C 0.5042 0.13959 0.88132 0.0
C406 C 0.50644 0.10987 0.92814 0.0
C407 C 0.48331 0.15915 0.92654 0.0
C408 C 0.49148 0.18434 0.94118 0.0
C409 C 0.47449 0.20357 0.95495 0.0
C410 C 0.44852 0.19691 0.95353 0.0
C411 C 0.43986 0.1715 0.93809 0.0
C412 C 0.4576 0.15253 0.92448 0.0
H413 H 0.45823 0.86381 0.41123 0.0
H414 H 0.43957 0.7807 0.45474 0.0
H415 H 0.48509 0.77252 0.46521 0.0
H416 H 0.51482 0.8375 0.37741 0.0
H417 H 0.53091 0.87282 0.38131 0.0
H418 H 0.49702 0.87192 0.37802 0.0
H419 H 0.49276 0.90141 0.42617 0.0
H420 H 0.52663 0.90245 0.42958 0.0
H421 H 0.50771 0.88717 0.45844 0.0
H422 H 0.53346 0.77498 0.47194 0.0
H423 H 0.57932 0.78651 0.47215 0.0
H424 H 0.56465 0.86678 0.42205 0.0
C425 C 0.46358 0.8439 0.42311 0.0
C426 C 0.4453 0.823 0.4324 0.0
C427 C 0.45326 0.79705 0.44748 0.0
C428 C 0.47905 0.79226 0.45353 0.0
C429 C 0.49656 0.81346 0.44404 0.0
C430 C 0.48905 0.83864 0.42895 0.0
C431 C 0.51129 0.85789 0.42048 0.0
C432 C 0.51364 0.86014 0.38734 0.0
C433 C 0.50948 0.88906 0.43452 0.0
C434 C 0.53264 0.83981 0.4333 0.0
C435 C 0.52393 0.81433 0.44698 0.0
C436 C 0.54043 0.79477 0.46108 0.0
C437 C 0.56643 0.8015 0.46113 0.0
C438 C 0.57562 0.8274 0.44692 0.0
C439 C 0.55836 0.84659 0.43281 0.0
H440 H 0.16615 0.30881 0.19632 0.0
H441 H 0.17892 0.40189 0.17369 0.0
H442 H 0.18442 0.41425 0.22521 0.0
H443 H 0.12925 0.32231 0.25637 0.0
H444 H 0.14135 0.29224 0.27838 0.0
H445 H 0.14235 0.28933 0.23956 0.0
H446 H 0.19068 0.28039 0.2415 0.0
H447 H 0.18983 0.28309 0.28045 0.0
H448 H 0.21062 0.30697 0.25997 0.0
H449 H 0.18181 0.4184 0.27829 0.0
H450 H 0.17344 0.4135 0.3306 0.0
H451 H 0.16411 0.31769 0.32045 0.0
C452 C 0.17086 0.33161 0.20216 0.0
C453 C 0.17217 0.35436 0.1809 0.0
C454 C 0.17782 0.38405 0.18951 0.0
C455 C 0.18108 0.39131 0.21875 0.0
C456 C 0.17887 0.36861 0.23921 0.0
C457 C 0.17419 0.33928 0.2314 0.0
C458 C 0.17064 0.31975 0.25799 0.0
C459 C 0.14434 0.30506 0.25807 0.0
C460 C 0.1917 0.29615 0.2601 0.0
C461 C 0.17305 0.34295 0.28185 0.0
C462 C 0.178 0.37093 0.27042 0.0
C463 C 0.17856 0.39653 0.28761 0.0
C464 C 0.17368 0.39356 0.31723 0.0
C465 C 0.16856 0.3652 0.32946 0.0
C466 C 0.1687 0.33948 0.31166 0.0
H467 H 0.85351 0.69357 0.69939 0.0
H468 H 0.8391 0.60018 0.67927 0.0
H469 H 0.83313 0.58962 0.73108 0.0
H470 H 0.89001 0.681 0.75978 0.0
H471 H 0.87851 0.71206 0.78094 0.0
H472 H 0.87755 0.71379 0.74205 0.0
H473 H 0.8294 0.72408 0.74367 0.0
H474 H 0.83022 0.72258 0.78268 0.0
H475 H 0.80896 0.69865 0.76283 0.0
H476 H 0.83561 0.58708 0.7842 0.0
H477 H 0.84439 0.59331 0.83631 0.0
H478 H 0.85552 0.68848 0.82364 0.0
C479 C 0.84833 0.67111 0.70583 0.0
C480 C 0.84669 0.64772 0.68522 0.0
C481 C 0.84045 0.61847 0.69459 0.0
C482 C 0.83691 0.61225 0.724 0.0
C483 C 0.83946 0.63554 0.74383 0.0
C484 C 0.84475 0.66447 0.73523 0.0
C485 C 0.84868 0.68473 0.76127 0.0
C486 C 0.87527 0.6987 0.76098 0.0
C487 C 0.82808 0.70894 0.7627 0.0
C488 C 0.84584 0.66236 0.78575 0.0
C489 C 0.84028 0.63418 0.77507 0.0
C490 C 0.8393 0.60913 0.79292 0.0
C491 C 0.84441 0.61284 0.82242 0.0
C492 C 0.85016 0.6414 0.83385 0.0
C493 C 0.85041 0.66659 0.81543 0.0
H494 H 0.15738 0.61516 0.81975 0.0
H495 H 0.18565 0.70546 0.83183 0.0
H496 H 0.19299 0.7095 0.77904 0.0
H497 H 0.19942 0.59348 0.75977 0.0
H498 H 0.17477 0.57277 0.74178 0.0
H499 H 0.17484 0.57587 0.78069 0.0
H500 H 0.12938 0.59753 0.77922 0.0
H501 H 0.12919 0.59456 0.7404 0.0
H502 H 0.12296 0.63012 0.75742 0.0
H503 H 0.19402 0.70475 0.72411 0.0
H504 H 0.18691 0.69247 0.67244 0.0
H505 H 0.15696 0.60589 0.69736 0.0
C506 C 0.16564 0.6356 0.81147 0.0
C507 C 0.17113 0.65992 0.83 0.0
C508 C 0.18141 0.68647 0.81808 0.0
C509 C 0.18571 0.68893 0.78814 0.0
C510 C 0.17963 0.66466 0.77044 0.0
C511 C 0.16982 0.6385 0.78175 0.0
C512 C 0.16285 0.61657 0.75811 0.0
C513 C 0.17894 0.58798 0.76022 0.0
C514 C 0.13441 0.60929 0.75884 0.0
C515 C 0.16971 0.63467 0.73163 0.0
C516 C 0.17972 0.66217 0.73908 0.0
C517 C 0.18642 0.68315 0.71807 0.0
C518 C 0.18236 0.67597 0.68878 0.0
C519 C 0.17141 0.64823 0.68087 0.0
C520 C 0.16546 0.62724 0.70266 0.0
H521 H 0.85439 0.31955 0.18535 0.0
H522 H 0.83958 0.41421 0.17411 0.0
H523 H 0.83046 0.41905 0.22631 0.0
H524 H 0.80839 0.30583 0.24644 0.0
H525 H 0.83007 0.28114 0.26477 0.0
H526 H 0.83032 0.28349 0.22579 0.0
H527 H 0.87803 0.29636 0.22698 0.0
H528 H 0.87791 0.29417 0.26585 0.0
H529 H 0.88869 0.32779 0.24822 0.0
H530 H 0.8284 0.41552 0.27936 0.0
H531 H 0.83548 0.40463 0.3309 0.0
H532 H 0.85348 0.3124 0.30946 0.0
C533 C 0.8483 0.34096 0.19387 0.0
C534 C 0.84713 0.36644 0.17585 0.0
C535 C 0.84022 0.39444 0.18768 0.0
C536 C 0.83492 0.39735 0.21722 0.0
C537 C 0.83687 0.37206 0.23469 0.0
C538 C 0.84345 0.34437 0.22358 0.0
C539 C 0.84753 0.32184 0.24773 0.0
C540 C 0.8279 0.29658 0.24608 0.0
C541 C 0.87465 0.30932 0.24715 0.0
C542 C 0.84315 0.3415 0.27408 0.0
C543 C 0.83648 0.3702 0.26592 0.0
C544 C 0.83323 0.39304 0.28608 0.0
C545 C 0.83741 0.38663 0.31533 0.0
C546 C 0.84497 0.35764 0.32426 0.0
C547 C 0.84729 0.33462 0.30336 0.0
H548 H 0.66469 0.82733 0.33469 0.0
H549 H 0.66865 0.92374 0.34405 0.0
H550 H 0.67539 0.9289 0.29144 0.0
H551 H 0.71028 0.8199 0.27301 0.0
H552 H 0.69153 0.79148 0.25552 0.0
H553 H 0.69139 0.79472 0.29444 0.0
H554 H 0.64262 0.79972 0.29376 0.0
H555 H 0.64262 0.79666 0.25492 0.0
H556 H 0.62816 0.8286 0.2721 0.0
H557 H 0.67738 0.92445 0.23825 0.0
H558 H 0.67278 0.91106 0.1869 0.0
H559 H 0.66552 0.81736 0.21052 0.0
C560 C 0.6678 0.84937 0.32565 0.0
C561 C 0.6666 0.87516 0.34332 0.0
C562 C 0.66975 0.90377 0.33079 0.0
C563 C 0.67368 0.90689 0.30099 0.0
C564 C 0.67414 0.88117 0.28395 0.0
C565 C 0.67124 0.85293 0.29571 0.0
C566 C 0.66962 0.82937 0.27205 0.0
C567 C 0.69205 0.80758 0.27387 0.0
C568 C 0.64425 0.81261 0.27329 0.0
C569 C 0.67138 0.84893 0.24526 0.0
C570 C 0.67444 0.87864 0.25275 0.0
C571 C 0.67526 0.90122 0.23205 0.0
C572 C 0.67254 0.89335 0.20289 0.0
C573 C 0.66879 0.86313 0.19456 0.0
C574 C 0.66861 0.84061 0.21611 0.0
H575 H 0.35171 0.17362 0.81197 0.0
H576 H 0.37069 0.07958 0.82102 0.0
H577 H 0.36924 0.07354 0.76805 0.0
H578 H 0.30976 0.16568 0.74804 0.0
H579 H 0.32109 0.19965 0.73154 0.0
H580 H 0.32067 0.19612 0.77042 0.0
H581 H 0.36846 0.20849 0.77224 0.0
H582 H 0.36903 0.21199 0.73343 0.0
H583 H 0.39027 0.18634 0.75122 0.0
H584 H 0.36901 0.078 0.71467 0.0
H585 H 0.37113 0.09307 0.66347 0.0
H586 H 0.35321 0.18459 0.68789 0.0
C587 C 0.35502 0.15168 0.80275 0.0
C588 C 0.36116 0.12702 0.82057 0.0
C589 C 0.36595 0.09877 0.80776 0.0
C590 C 0.36506 0.09506 0.77769 0.0
C591 C 0.35944 0.11984 0.76065 0.0
C592 C 0.35452 0.14764 0.77259 0.0
C593 C 0.35095 0.17099 0.74909 0.0
C594 C 0.32401 0.18386 0.74982 0.0
C595 C 0.37087 0.19591 0.75165 0.0
C596 C 0.35516 0.15204 0.72223 0.0
C597 C 0.35971 0.12255 0.72947 0.0
C598 C 0.36523 0.10097 0.70865 0.0
C599 C 0.36645 0.10979 0.6796 0.0
C600 C 0.36229 0.14 0.67157 0.0
C601 C 0.35623 0.16127 0.69324 0.0
H602 H 0.66316 0.19546 0.81869 0.0
H603 H 0.67607 0.10082 0.83411 0.0
H604 H 0.68175 0.09276 0.78183 0.0
H605 H 0.62639 0.18688 0.75762 0.0
H606 H 0.63845 0.21873 0.7381 0.0
H607 H 0.63932 0.21838 0.77703 0.0
H608 H 0.68762 0.22758 0.77603 0.0
H609 H 0.68689 0.22813 0.73699 0.0
H610 H 0.70772 0.20268 0.75567 0.0
H611 H 0.67941 0.09305 0.72857 0.0
H612 H 0.67092 0.10226 0.67678 0.0
H613 H 0.66116 0.19684 0.69429 0.0
C614 C 0.66791 0.17322 0.81113 0.0
C615 C 0.66925 0.14878 0.83057 0.0
C616 C 0.67496 0.11989 0.81972 0.0
C617 C 0.67832 0.11509 0.79002 0.0
C618 C 0.67614 0.13942 0.77138 0.0
C619 C 0.67132 0.168 0.78142 0.0
C620 C 0.66777 0.18968 0.75642 0.0
C621 C 0.64142 0.20426 0.75736 0.0
C622 C 0.68876 0.21342 0.75627 0.0
C623 C 0.67034 0.16855 0.73084 0.0
C624 C 0.67541 0.13971 0.74009 0.0
C625 C 0.67611 0.11562 0.72097 0.0
C626 C 0.67121 0.12102 0.69167 0.0
C627 C 0.66596 0.15027 0.68172 0.0
C628 C 0.66594 0.17445 0.7014 0.0
H629 H 0.3706 0.89346 0.18854 0.0
H630 H 0.33704 0.80853 0.16403 0.0
H631 H 0.33023 0.79664 0.21575 0.0
H632 H 0.4043 0.86732 0.24813 0.0
H633 H 0.39944 0.90014 0.27015 0.0
H634 H 0.39928 0.90324 0.23132 0.0
H635 H 0.35475 0.92738 0.23304 0.0
H636 H 0.35482 0.92453 0.27197 0.0
H637 H 0.32941 0.90819 0.25132 0.0
H638 H 0.33117 0.792 0.27024 0.0
H639 H 0.33803 0.79584 0.32303 0.0
H640 H 0.37016 0.88437 0.31148 0.0
C641 C 0.36141 0.87257 0.19397 0.0
C642 C 0.35431 0.85192 0.17225 0.0
C643 C 0.34251 0.82475 0.18031 0.0
C644 C 0.33858 0.8178 0.20962 0.0
C645 C 0.34633 0.83841 0.23051 0.0
C646 C 0.35725 0.86538 0.22301 0.0
C647 C 0.36502 0.88307 0.24953 0.0
C648 C 0.3937 0.88876 0.24979 0.0
C649 C 0.3501 0.91254 0.25158 0.0
C650 C 0.35735 0.86152 0.27318 0.0
C651 C 0.34651 0.83594 0.26181 0.0
C652 C 0.33929 0.81211 0.2794 0.0
C653 C 0.34336 0.81446 0.30935 0.0
C654 C 0.35449 0.84048 0.32142 0.0
C655 C 0.36128 0.86437 0.303 0.0
H656 H 0.30364 0.19165 0.02389 0.0
H657 H 0.30366 0.236 0.94042 0.0
H658 H 0.26736 0.26724 0.95607 0.0
H659 H 0.23619 0.18766 0.03027 0.0
H660 H 0.23622 0.19326 0.06893 0.0
H661 H 0.26291 0.17578 0.05162 0.0
H662 H 0.29267 0.21567 0.07392 0.0
H663 H 0.26607 0.23324 0.09134 0.0
H664 H 0.28626 0.2548 0.06787 0.0
H665 H 0.23188 0.29488 0.98209 0.0
H666 H 0.19779 0.31325 0.0143 0.0
H667 H 0.21902 0.24732 0.07875 0.0
C668 C 0.29615 0.20814 0.00899 0.0
C669 C 0.30661 0.21177 0.98109 0.0
C670 C 0.29595 0.23304 0.96195 0.0
C671 C 0.2754 0.25087 0.97068 0.0
C672 C 0.2655 0.24669 0.99839 0.0
C673 C 0.27534 0.22554 0.01709 0.0
C674 C 0.26055 0.22429 0.04512 0.0
C675 C 0.24823 0.19342 0.04921 0.0
C676 C 0.2774 0.2325 0.07109 0.0
C677 C 0.24092 0.24822 0.03945 0.0
C678 C 0.24426 0.26119 0.01255 0.0
C679 C 0.22896 0.28466 1.00306 0.0
C680 C 0.2097 0.29498 0.02149 0.0
C681 C 0.20564 0.28147 0.04882 0.0
C682 C 0.22146 0.25776 0.05777 0.0
H683 H 0.79893 0.74943 0.58455 0.0
H684 H 0.82296 0.68895 0.51648 0.0
H685 H 0.78811 0.70721 0.48519 0.0
H686 H 0.73244 0.73791 0.57326 0.0
H687 H 0.72408 0.77602 0.58182 0.0
H688 H 0.75169 0.75932 0.59794 0.0
H689 H 0.77933 0.80255 0.57811 0.0
H690 H 0.75181 0.81942 0.56198 0.0
H691 H 0.77892 0.81074 0.53989 0.0
H692 H 0.75144 0.7345 0.46062 0.0
H693 H 0.71366 0.76435 0.44697 0.0
H694 H 0.71163 0.80248 0.53327 0.0
C695 C 0.79695 0.74023 0.56296 0.0
C696 C 0.81375 0.71813 0.55269 0.0
C697 C 0.81029 0.70604 0.52462 0.0
C698 C 0.79061 0.71631 0.50672 0.0
C699 C 0.77429 0.73817 0.51753 0.0
C700 C 0.77706 0.74961 0.54519 0.0
C701 C 0.75629 0.7717 0.55233 0.0
C702 C 0.74017 0.76056 0.57784 0.0
C703 C 0.76725 0.80295 0.55843 0.0
C704 C 0.74152 0.77118 0.52428 0.0
C705 C 0.75234 0.75208 0.50426 0.0
C706 C 0.74262 0.74919 0.47628 0.0
C707 C 0.72123 0.76621 0.46868 0.0
C708 C 0.70957 0.78524 0.48923 0.0
C709 C 0.71987 0.78759 0.51734 0.0
H710 H 0.30927 0.79555 0.9877 0.0
H711 H 0.31272 0.75265 0.07173 0.0
H712 H 0.27551 0.72154 0.05865 0.0
H713 H 0.24199 0.8011 0.98599 0.0
H714 H 0.23983 0.79531 0.94744 0.0
H715 H 0.26771 0.81212 0.96275 0.0
H716 H 0.29551 0.77129 0.93867 0.0
H717 H 0.26771 0.75439 0.92323 0.0
H718 H 0.28873 0.73238 0.94537 0.0
H719 H 0.2384 0.69384 0.0347 0.0
H720 H 0.20225 0.67645 1.00476 0.0
H721 H 0.22116 0.7421 0.93927 0.0
C722 C 0.3024 0.7793 1.0032 0.0
C723 C 0.31406 0.77599 0.03049 0.0
C724 C 0.30411 0.75523 0.05059 0.0
C725 C 0.28306 0.73749 0.04331 0.0
C726 C 0.27192 0.74139 0.01614 0.0
C727 C 0.28108 0.76217 0.99663 0.0
C728 C 0.26485 0.76371 0.96969 0.0
C729 C 0.25289 0.79491 0.96629 0.0
C730 C 0.28011 0.75491 0.94265 0.0
C731 C 0.24517 0.74038 0.97687 0.0
C732 C 0.24972 0.72731 1.0035 0.0
C733 C 0.23453 0.7042 0.01399 0.0
C734 C 0.21411 0.69443 0.99688 0.0
C735 C 0.20879 0.70827 0.96999 0.0
C736 C 0.22455 0.73151 0.96001 0.0
H737 H 0.71377 0.20112 0.48048 0.0
H738 H 0.7098 0.24857 0.56228 0.0
H739 H 0.74621 0.27993 0.54748 0.0
H740 H 0.7815 0.1983 0.47768 0.0
H741 H 0.78286 0.20243 0.43889 0.0
H742 H 0.75581 0.18506 0.45546 0.0
H743 H 0.72631 0.22343 0.43032 0.0
H744 H 0.75328 0.24091 0.41366 0.0
H745 H 0.73186 0.26289 0.43534 0.0
H746 H 0.78231 0.30739 0.52227 0.0
H747 H 0.81738 0.32517 0.49114 0.0
H748 H 0.79953 0.25635 0.42813 0.0
C749 C 0.72044 0.21829 0.49518 0.0
C750 C 0.70883 0.22275 0.52236 0.0
C751 C 0.71841 0.24493 0.5413 0.0
C752 C 0.73901 0.26285 0.53304 0.0
C753 C 0.75006 0.25786 0.50602 0.0
C754 C 0.74128 0.23581 0.48758 0.0
C755 C 0.75715 0.23382 0.46038 0.0
C756 C 0.7701 0.20308 0.45798 0.0
C757 C 0.74119 0.24068 0.43333 0.0
C758 C 0.77616 0.25837 0.46622 0.0
C759 C 0.7716 0.27229 0.49245 0.0
C760 C 0.78619 0.29642 0.50184 0.0
C761 C 0.806 0.30641 0.48403 0.0
C762 C 0.8113 0.2919 0.45745 0.0
C763 C 0.79615 0.26757 0.44857 0.0
H764 H 0.71461 0.79215 0.03961 0.0
H765 H 0.71679 0.74936 0.12388 0.0
H766 H 0.75572 0.72264 0.11004 0.0
H767 H 0.73452 0.72622 1.00015 0.0
H768 H 0.75286 0.74662 0.97389 0.0
H769 H 0.72597 0.76408 0.99085 0.0
H770 H 0.75437 0.80785 0.00791 0.0
H771 H 0.78139 0.79044 0.99113 0.0
H772 H 0.78224 0.79997 0.02906 0.0
H773 H 0.79465 0.70191 0.08833 0.0
H774 H 0.82887 0.68253 0.05759 0.0
H775 H 0.80037 0.73441 0.98508 0.0
C776 C 0.72343 0.77723 0.05509 0.0
C777 C 0.71286 0.77291 0.0829 0.0
C778 C 0.72459 0.75289 0.10247 0.0
C779 C 0.74678 0.73777 0.09487 0.0
C780 C 0.75679 0.74246 0.06739 0.0
C781 C 0.74534 0.76122 0.04753 0.0
C782 C 0.75932 0.7605 0.01879 0.0
C783 C 0.74214 0.74864 0.99448 0.0
C784 C 0.76996 0.79154 0.01129 0.0
C785 C 0.78038 0.73849 0.02573 0.0
C786 C 0.7787 0.72889 0.0541 0.0
C787 C 0.79611 0.70909 0.06602 0.0
C788 C 0.81558 0.69832 0.04837 0.0
C789 C 0.8173 0.70689 0.01891 0.0
C790 C 0.79949 0.7274 0.0075 0.0
H791 H 0.29728 0.24871 0.57779 0.0
H792 H 0.32278 0.19104 0.50809 0.0
H793 H 0.28732 0.2087 0.47747 0.0
H794 H 0.23053 0.23617 0.56588 0.0
H795 H 0.22185 0.27397 0.57527 0.0
H796 H 0.24946 0.25713 0.59124 0.0
H797 H 0.2769 0.30115 0.57273 0.0
H798 H 0.24938 0.31814 0.55673 0.0
H799 H 0.27672 0.31029 0.53472 0.0
H800 H 0.25027 0.2355 0.45354 0.0
H801 H 0.21274 0.2657 0.43995 0.0
H802 H 0.20988 0.30214 0.52694 0.0
C803 C 0.29543 0.23985 0.55605 0.0
C804 C 0.31287 0.21874 0.54516 0.0
C805 C 0.30961 0.20728 0.5168 0.0
C806 C 0.28958 0.21722 0.49926 0.0
C807 C 0.27273 0.23817 0.51065 0.0
C808 C 0.27527 0.249 0.53855 0.0
C809 C 0.25428 0.27071 0.54599 0.0
C810 C 0.23807 0.25877 0.57108 0.0
C811 C 0.26497 0.30192 0.55294 0.0
C812 C 0.23969 0.27077 0.5178 0.0
C813 C 0.25072 0.25211 0.49753 0.0
C814 C 0.24128 0.24984 0.46938 0.0
C815 C 0.22003 0.26707 0.46183 0.0
C816 C 0.20824 0.28585 0.48251 0.0
C817 C 0.21819 0.28749 0.51085 0.0
H818 H 0.80623 0.29753 0.98694 0.0
H819 H 0.80452 0.25668 0.072 0.0
H820 H 0.76674 0.22728 0.05756 0.0
H821 H 0.73917 0.30628 0.98108 0.0
H822 H 0.73852 0.29945 0.94261 0.0
H823 H 0.76623 0.31544 0.95913 0.0
H824 H 0.79369 0.27272 0.9378 0.0
H825 H 0.76608 0.25664 0.92115 0.0
H826 H 0.78533 0.23435 0.94507 0.0
H827 H 0.72999 0.20087 0.03236 0.0
H828 H 0.69491 0.18381 1.00078 0.0
H829 H 0.71857 0.24647 0.93454 0.0
C830 C 0.79807 0.28211 1.00241 0.0
C831 C 0.80845 0.27886 0.03039 0.0
C832 C 0.79689 0.2592 0.05037 0.0
C833 C 0.7755 0.24244 0.04233 0.0
C834 C 0.76568 0.24623 0.0145 0.0
C835 C 0.77641 0.26596 0.99503 0.0
C836 C 0.76145 0.26743 0.96712 0.0
C837 C 0.75071 0.29903 0.96221 0.0
C838 C 0.7776 0.25716 0.94126 0.0
C839 C 0.7407 0.24522 0.9737 0.0
C840 C 0.74364 0.23285 1.00095 0.0
C841 C 0.72736 0.21071 0.01116 0.0
C842 C 0.70756 0.20112 0.99311 0.0
C843 C 0.70391 0.21416 0.96549 0.0
C844 C 0.72068 0.23654 0.9558 0.0
H845 H 0.22469 0.73375 0.54594 0.0
H846 H 0.1827 0.70679 0.46937 0.0
H847 H 0.21498 0.72971 0.43843 0.0
H848 H 0.24658 0.80647 0.51528 0.0
H849 H 0.27697 0.80405 0.53276 0.0
H850 H 0.24964 0.78733 0.54945 0.0
H851 H 0.27296 0.73639 0.55151 0.0
H852 H 0.30025 0.75286 0.53461 0.0
H853 H 0.28551 0.72046 0.51864 0.0
H854 H 0.25355 0.74916 0.41558 0.0
H855 H 0.29491 0.77017 0.40168 0.0
H856 H 0.31154 0.78906 0.49179 0.0
C857 C 0.22209 0.73321 0.52269 0.0
C858 C 0.20111 0.71841 0.51014 0.0
C859 C 0.19848 0.71804 0.47959 0.0
C860 C 0.21677 0.73097 0.46175 0.0
C861 C 0.23745 0.74472 0.47468 0.0
C862 C 0.24008 0.74654 0.5044 0.0
C863 C 0.26455 0.76233 0.5124 0.0
C864 C 0.2591 0.7918 0.52842 0.0
C865 C 0.28183 0.74177 0.53035 0.0
C866 C 0.27552 0.76813 0.48253 0.0
C867 C 0.25949 0.75759 0.46118 0.0
C868 C 0.26604 0.75811 0.432 0.0
C869 C 0.28956 0.76991 0.42433 0.0
C870 C 0.30604 0.78145 0.44565 0.0
C871 C 0.29893 0.78082 0.47512 0.0
H872 H 0.15368 0.56982 0.99329 0.0
H873 H 0.16564 0.52858 0.90946 0.0
H874 H 0.17229 0.47955 0.93312 0.0
H875 H 0.19725 0.5221 0.03621 0.0
H876 H 0.17584 0.52037 0.06651 0.0
H877 H 0.17621 0.55295 0.04353 0.0
H878 H 0.1282 0.54681 0.03422 0.0
H879 H 0.1277 0.51422 0.05705 0.0
H880 H 0.11644 0.51178 0.02027 0.0
H881 H 0.17511 0.43466 0.96551 0.0
H882 H 0.16986 0.39636 1.00363 0.0
H883 H 0.15238 0.46615 0.06589 0.0
C884 C 0.15842 0.55056 0.98011 0.0
C885 C 0.15968 0.55286 0.94969 0.0
C886 C 0.16491 0.52714 0.93286 0.0
C887 C 0.1688 0.49929 0.94611 0.0
C888 C 0.16698 0.49754 0.97616 0.0
C889 C 0.16168 0.52243 0.99296 0.0
C890 C 0.15772 0.51384 0.02436 0.0
C891 C 0.17797 0.52817 0.04379 0.0
C892 C 0.13092 0.52215 0.03455 0.0
C893 C 0.16116 0.48024 0.02248 0.0
C894 C 0.16707 0.47137 0.99463 0.0
C895 C 0.17061 0.44134 0.98744 0.0
C896 C 0.16763 0.41976 0.00922 0.0
C897 C 0.16065 0.4283 0.03763 0.0
C898 C 0.1577 0.45897 0.04433 0.0
H899 H 0.8678 0.5332 0.56989 0.0
H900 H 0.84685 0.60342 0.50958 0.0
H901 H 0.84116 0.56561 0.47108 0.0
H902 H 0.90328 0.49005 0.52221 0.0
H903 H 0.89303 0.45427 0.5358 0.0
H904 H 0.89315 0.48638 0.55931 0.0
H905 H 0.84567 0.47831 0.57044 0.0
H906 H 0.8454 0.44603 0.54701 0.0
H907 H 0.82335 0.47616 0.541 0.0
H908 H 0.84375 0.52157 0.43787 0.0
H909 H 0.85069 0.47328 0.41292 0.0
H910 H 0.86653 0.43075 0.49525 0.0
C911 C 0.8616 0.54055 0.5487 0.0
C912 C 0.8578 0.57124 0.54266 0.0
C913 C 0.84974 0.58002 0.5147 0.0
C914 C 0.84648 0.55871 0.4927 0.0
C915 C 0.85086 0.5287 0.49921 0.0
C916 C 0.85783 0.51953 0.52665 0.0
C917 C 0.86223 0.48601 0.52766 0.0
C918 C 0.88955 0.47877 0.53678 0.0
C919 C 0.84301 0.47073 0.54772 0.0
C920 C 0.85753 0.47791 0.49626 0.0
C921 C 0.85102 0.50292 0.48024 0.0
C922 C 0.84818 0.50171 0.45027 0.0
C923 C 0.85224 0.47429 0.4363 0.0
C924 C 0.85864 0.44841 0.45233 0.0
C925 C 0.86093 0.45012 0.48271 0.0
H926 H 0.85798 0.45583 0.06356 0.0
H927 H 0.83922 0.40229 0.98804 0.0
H928 H 0.83339 0.44842 0.95945 0.0
H929 H 0.81454 0.51861 0.04832 0.0
H930 H 0.83677 0.54617 0.06108 0.0
H931 H 0.83677 0.50911 0.07646 0.0
H932 H 0.88423 0.50337 0.0638 0.0
H933 H 0.88437 0.54031 0.04836 0.0
H934 H 0.89442 0.50875 0.02692 0.0
H935 H 0.83302 0.49977 0.93812 0.0
H936 H 0.83875 0.5528 0.92519 0.0
H937 H 0.85808 0.57313 0.0145 0.0
C938 C 0.85216 0.45378 0.04116 0.0
C939 C 0.84894 0.42542 0.02807 0.0
C940 C 0.84176 0.42375 0.99855 0.0
C941 C 0.83831 0.44983 0.98216 0.0
C942 C 0.84206 0.4774 0.9956 0.0
C943 C 0.84877 0.47958 0.02444 0.0
C944 C 0.85339 0.51183 0.03312 0.0
C945 C 0.83422 0.52203 0.05611 0.0
C946 C 0.88073 0.51631 0.04366 0.0
C947 C 0.84881 0.52737 1.00447 0.0
C948 C 0.84203 0.50712 0.98321 0.0
C949 C 0.83806 0.51589 0.95465 0.0
C950 C 0.84142 0.54609 0.94752 0.0
C951 C 0.84881 0.56721 0.96884 0.0
C952 C 0.85216 0.55766 0.99776 0.0
H953 H 0.15883 0.42569 0.51405 0.0
H954 H 0.18731 0.44931 0.42892 0.0
H955 H 0.19463 0.50093 0.4456 0.0
H956 H 0.1248 0.4913 0.52529 0.0
H957 H 0.13137 0.49439 0.56347 0.0
H958 H 0.13146 0.45824 0.54632 0.0
H959 H 0.17706 0.44879 0.5646 0.0
H960 H 0.17709 0.48495 0.58196 0.0
H961 H 0.20153 0.4755 0.55636 0.0
H962 H 0.19456 0.55076 0.46926 0.0
H963 H 0.18744 0.59594 0.49878 0.0
H964 H 0.15922 0.54073 0.56899 0.0
C965 C 0.16718 0.44155 0.49915 0.0
C966 C 0.17259 0.43341 0.4702 0.0
C967 C 0.18301 0.45499 0.45119 0.0
C968 C 0.18734 0.48436 0.46048 0.0
C969 C 0.18125 0.49185 0.4889 0.0
C970 C 0.17152 0.4711 0.50805 0.0
C971 C 0.16477 0.48565 0.53671 0.0
C972 C 0.13642 0.48219 0.54331 0.0
C973 C 0.18109 0.47297 0.56137 0.0
C974 C 0.17155 0.51794 0.53033 0.0
C975 C 0.18126 0.5209 0.50271 0.0
C976 C 0.18734 0.54871 0.49109 0.0
C977 C 0.18312 0.57425 0.50799 0.0
C978 C 0.17291 0.57186 0.53625 0.0
C979 C 0.16745 0.54323 0.54767 0.0
H980 H 0.6488 0.03005 0.94449 0.0
H981 H 0.67765 0.09869 1.00224 0.0
H982 H 0.68614 0.06025 0.03936 0.0
H983 H 0.61692 0.98839 0.99626 0.0
H984 H 0.62443 0.95224 0.98117 0.0
H985 H 0.62313 0.98457 0.95805 0.0
H986 H 0.66884 0.97405 0.9407 0.0
H987 H 0.67029 0.9416 0.96381 0.0
H988 H 0.69386 0.97051 0.96699 0.0
H989 H 0.68568 0.01604 0.07233 0.0
H990 H 0.67879 0.96817 0.098 0.0
H991 H 0.65319 0.92725 0.01818 0.0
C992 C 0.65732 0.03692 0.96476 0.0
C993 C 0.66255 0.06737 0.97051 0.0
C994 C 0.67358 0.07549 0.99733 0.0
C995 C 0.6785 0.0538 0.01853 0.0
C996 C 0.67269 0.02406 0.01237 0.0
C997 C 0.66266 0.0155 0.98601 0.0
C998 C 0.65697 0.98226 0.98542 0.0
C999 C 0.62869 0.97655 0.97991 0.0
C1000 C 0.67348 0.96616 0.96289 0.0
C1001 C 0.6645 0.97364 0.01596 0.0
C1002 C 0.67359 0.99812 0.0311 0.0
C1003 C 0.67927 0.99654 0.06052 0.0
C1004 C 0.67529 0.96937 0.07491 0.0
C1005 C 0.66613 0.94411 0.05977 0.0
C1006 C 0.66107 0.94608 0.02987 0.0
H1007 H 0.39977 0.95632 0.44991 0.0
H1008 H 0.31988 0.93535 0.45232 0.0
H1009 H 0.3119 0.98187 0.48042 0.0
H1010 H 0.40291 0.98245 0.52293 0.0
H1011 H 0.42621 0.01071 0.51516 0.0
H1012 H 0.42491 0.9772 0.49356 0.0
H1013 H 0.42035 0.00935 0.44714 0.0
H1014 H 0.4215 0.04299 0.46862 0.0
H1015 H 0.39515 0.03642 0.4447 0.0
H1016 H 0.31313 0.03225 0.507 0.0
H1017 H 0.32398 0.0776 0.53552 0.0
H1018 H 0.4035 0.06154 0.51934 0.0
C1019 C 0.38056 0.9617 0.45613 0.0
C1020 C 0.36034 0.94268 0.44867 0.0
C1021 C 0.33555 0.94987 0.45779 0.0
C1022 C 0.33088 0.97625 0.47358 0.0
C1023 C 0.35132 0.99467 0.48051 0.0
C1024 C 0.37572 0.98733 0.4725 0.0
C1025 C 0.39469 0.00944 0.48437 0.0
C1026 C 0.41326 0.99403 0.50525 0.0
C1027 C 0.40874 0.0255 0.45973 0.0
C1028 C 0.37721 0.03055 0.50025 0.0
C1029 C 0.3522 0.0221 0.49736 0.0
C1030 C 0.33266 0.03889 0.50959 0.0
C1031 C 0.33895 0.06463 0.52559 0.0
C1032 C 0.36454 0.07276 0.5297 0.0
C1033 C 0.3838 0.05558 0.51671 0.0
H1034 H 0.35803 0.95665 0.06019 0.0
H1035 H 0.33669 0.89984 0.9879 0.0
H1036 H 0.32823 0.94464 0.95829 0.0
H1037 H 0.31246 0.0182 0.04534 0.0
H1038 H 0.33488 0.04662 0.05567 0.0
H1039 H 0.33602 0.01025 0.07249 0.0
H1040 H 0.38293 0.0047 0.05732 0.0
H1041 H 0.38192 0.04094 0.04045 0.0
H1042 H 0.39141 0.00864 0.0197 0.0
H1043 H 0.3265 0.99481 0.93499 0.0
H1044 H 0.33212 0.04707 0.91929 0.0
H1045 H 0.35458 0.07171 0.00655 0.0
C1046 C 0.35101 0.95362 0.03836 0.0
C1047 C 0.3479 0.92471 0.02641 0.0
C1048 C 0.33918 0.92174 0.99754 0.0
C1049 C 0.3342 0.94706 0.98058 0.0
C1050 C 0.33796 0.97521 0.99282 0.0
C1051 C 0.34607 0.97868 0.02107 0.0
C1052 C 0.35067 0.01135 0.02817 0.0
C1053 C 0.33241 0.02224 0.05182 0.0
C1054 C 0.37838 0.0167 0.03691 0.0
C1055 C 0.34462 0.02559 0.99922 0.0
C1056 C 0.33701 0.00436 0.97926 0.0
C1057 C 0.33207 0.01172 0.95052 0.0
C1058 C 0.33539 0.04147 0.94179 0.0
C1059 C 0.34366 0.06353 0.96171 0.0
C1060 C 0.34783 0.05549 0.99093 0.0
H1061 H 0.6613 0.08021 0.50312 0.0
H1062 H 0.66956 0.06102 0.59481 0.0
H1063 H 0.67449 0.00736 0.58364 0.0
H1064 H 0.62393 0.01761 0.48673 0.0
H1065 H 0.63772 0.01088 0.45164 0.0
H1066 H 0.63744 0.04812 0.46646 0.0
H1067 H 0.68606 0.05129 0.46058 0.0
H1068 H 0.68649 0.01399 0.44569 0.0
H1069 H 0.70579 0.0229 0.47669 0.0
H1070 H 0.67552 0.95559 0.56306 0.0
H1071 H 0.67171 0.90914 0.53451 0.0
H1072 H 0.66241 0.96179 0.45619 0.0
C1073 C 0.66459 0.0648 0.52082 0.0
C1074 C 0.66515 0.07487 0.54984 0.0
C1075 C 0.66907 0.05388 0.5724 0.0
C1076 C 0.67199 0.02334 0.56628 0.0
C1077 C 0.67097 0.01412 0.5375 0.0
C1078 C 0.66739 0.03419 0.51511 0.0
C1079 C 0.6654 0.01819 0.48626 0.0
C1080 C 0.63959 0.02405 0.47195 0.0
C1081 C 0.68724 0.02713 0.46612 0.0
C1082 C 0.66788 0.98596 0.49601 0.0
C1083 C 0.67135 0.98414 0.52561 0.0
C1084 C 0.67305 0.95673 0.53982 0.0
C1085 C 0.67082 0.93045 0.5234 0.0
C1086 C 0.66681 0.93175 0.49308 0.0
C1087 C 0.6657 0.95997 0.47927 0.0
loop_
_geom_bond_atom_site_label_1
_geom_bond_atom_site_label_2
_geom_bond_distance
_geom_bond_site_symmetry_2
_ccdc_geom_bond_type
O0 Cd1 2.223 . S
O0 C8 1.315 . S
Cd1 O0 2.223 . S
Cd1 O4 2.297 . S
Cd1 O5 2.439 . S
Cd1 O11 2.240 . S
Cd2 O3 2.240 . S
Cd2 O10 2.223 . S
Cd2 O12 2.297 . S
Cd2 O13 2.439 . S
O3 Cd2 2.240 . S
O3 C8 1.279 . S
O4 Cd1 2.297 . S
O4 C6 1.247 . S
O5 Cd1 2.439 . S
O5 C6 1.208 . S
C6 O4 1.247 . S
C6 O5 1.208 . S
C7 O12 1.247 . S
C7 O13 1.208 . S
C8 O0 1.315 . S
C8 O3 1.279 . S
C9 O10 1.315 . S
C9 O11 1.279 . S
O10 Cd2 2.223 . S
O10 C9 1.315 . S
O11 Cd1 2.240 . S
O11 C9 1.279 . S
O12 Cd2 2.297 . S
O12 C7 1.247 . S
O13 Cd2 2.439 . S
O13 C7 1.208 . S
O14 Cd15 2.223 . S
O14 C22 1.315 . S
Cd15 O14 2.223 . S
Cd15 O18 2.297 . S
Cd15 O19 2.439 . S
Cd15 O25 2.240 . S
Cd16 O17 2.240 . S
Cd16 O24 2.223 . S
Cd16 O26 2.297 . S
Cd16 O27 2.439 . S
O17 Cd16 2.240 . S
O17 C22 1.279 . S
O18 Cd15 2.297 . S
O18 C20 1.247 . S
O19 Cd15 2.439 . S
O19 C20 1.208 . S
C20 O18 1.247 . S
C20 O19 1.208 . S
C21 O26 1.247 . S
C21 O27 1.208 . S
C22 O14 1.315 . S
C22 O17 1.279 . S
C23 O24 1.315 . S
C23 O25 1.279 . S
O24 Cd16 2.223 . S
O24 C23 1.315 . S
O25 Cd15 2.240 . S
O25 C23 1.279 . S
O26 Cd16 2.297 . S
O26 C21 1.247 . S
O27 Cd16 2.439 . S
O27 C21 1.208 . S
O28 Cd29 2.223 . S
O28 C36 1.315 . S
Cd29 O28 2.223 . S
Cd29 O32 2.297 . S
Cd29 O33 2.439 . S
Cd29 O39 2.240 . S
Cd30 O31 2.240 . S
Cd30 O38 2.223 . S
Cd30 O40 2.297 . S
Cd30 O41 2.439 . S
O31 Cd30 2.240 . S
O31 C36 1.279 . S
O32 Cd29 2.297 . S
O32 C34 1.247 . S
O33 Cd29 2.439 . S
O33 C34 1.208 . S
C34 O32 1.247 . S
C34 O33 1.208 . S
C35 O40 1.247 . S
C35 O41 1.208 . S
C36 O28 1.315 . S
C36 O31 1.279 . S
C37 O38 1.315 . S
C37 O39 1.279 . S
O38 Cd30 2.223 . S
O38 C37 1.315 . S
O39 Cd29 2.240 . S
O39 C37 1.279 . S
O40 Cd30 2.297 . S
O40 C35 1.247 . S
O41 Cd30 2.439 . S
O41 C35 1.208 . S
O42 Cd43 2.223 . S
O42 C50 1.315 . S
Cd43 O42 2.223 . S
Cd43 O46 2.297 . S
Cd43 O47 2.439 . S
Cd43 O53 2.240 . S
Cd44 O45 2.240 . S
Cd44 O52 2.223 . S
Cd44 O54 2.297 . S
Cd44 O55 2.439 . S
O45 Cd44 2.240 . S
O45 C50 1.279 . S
O46 Cd43 2.297 . S
O46 C48 1.247 . S
O47 Cd43 2.439 . S
O47 C48 1.208 . S
C48 O46 1.247 . S
C48 O47 1.208 . S
C49 O54 1.247 . S
C49 O55 1.208 . S
C50 O42 1.315 . S
C50 O45 1.279 . S
C51 O52 1.315 . S
C51 O53 1.279 . S
O52 Cd44 2.223 . S
O52 C51 1.315 . S
O53 Cd43 2.240 . S
O53 C51 1.279 . S
O54 Cd44 2.297 . S
O54 C49 1.247 . S
O55 Cd44 2.439 . S
O55 C49 1.208 . S
O56 Cd57 2.223 . S
O56 C64 1.315 . S
Cd57 O56 2.223 . S
Cd57 O60 2.297 . S
Cd57 O61 2.439 . S
Cd57 O67 2.240 . S
Cd58 O59 2.240 . S
Cd58 O66 2.223 . S
Cd58 O68 2.297 . S
Cd58 O69 2.439 . S
O59 Cd58 2.240 . S
O59 C64 1.279 . S
O60 Cd57 2.297 . S
O60 C62 1.247 . S
O61 Cd57 2.439 . S
O61 C62 1.208 . S
C62 O60 1.247 . S
C62 O61 1.208 . S
C63 O68 1.247 . S
C63 O69 1.208 . S
C64 O56 1.315 . S
C64 O59 1.279 . S
C65 O66 1.315 . S
C65 O67 1.279 . S
O66 Cd58 2.223 . S
O66 C65 1.315 . S
O67 Cd57 2.240 . S
O67 C65 1.279 . S
O68 Cd58 2.297 . S
O68 C63 1.247 . S
O69 Cd58 2.439 . S
O69 C63 1.208 . S
O70 Cd71 2.223 . S
O70 C78 1.315 . S
Cd71 O70 2.223 . S
Cd71 O74 2.297 . S
Cd71 O75 2.439 . S
Cd71 O81 2.240 . S
Cd72 O73 2.240 . S
Cd72 O80 2.223 . S
Cd72 O82 2.297 . S
Cd72 O83 2.439 . S
O73 Cd72 2.240 . S
O73 C78 1.279 . S
O74 Cd71 2.297 . S
O74 C76 1.247 . S
O75 Cd71 2.439 . S
O75 C76 1.208 . S
C76 O74 1.247 . S
C76 O75 1.208 . S
C77 O82 1.247 . S
C77 O83 1.208 . S
C78 O70 1.315 . S
C78 O73 1.279 . S
C79 O80 1.315 . S
C79 O81 1.279 . S
O80 Cd72 2.223 . S
O80 C79 1.315 . S
O81 Cd71 2.240 . S
O81 C79 1.279 . S
O82 Cd72 2.297 . S
O82 C77 1.247 . S
O83 Cd72 2.439 . S
O83 C77 1.208 . S
O84 Cd85 2.223 . S
O84 C92 1.315 . S
Cd85 O84 2.223 . S
Cd85 O88 2.297 . S
Cd85 O89 2.439 . S
Cd85 O95 2.240 . S
Cd86 O87 2.240 . S
Cd86 O94 2.223 . S
Cd86 O96 2.297 . S
Cd86 O97 2.439 . S
O87 Cd86 2.240 . S
O87 C92 1.279 . S
O88 Cd85 2.297 . S
O88 C90 1.247 . S
O89 Cd85 2.439 . S
O89 C90 1.208 . S
C90 O88 1.247 . S
C90 O89 1.208 . S
C91 O96 1.247 . S
C91 O97 1.208 . S
C92 O84 1.315 . S
C92 O87 1.279 . S
C93 O94 1.315 . S
C93 O95 1.279 . S
O94 Cd86 2.223 . S
O94 C93 1.315 . S
O95 Cd85 2.240 . S
O95 C93 1.279 . S
O96 Cd86 2.297 . S
O96 C91 1.247 . S
O97 Cd86 2.439 . S
O97 C91 1.208 . S
O98 Cd99 2.223 . S
O98 C106 1.315 . S
Cd99 O98 2.223 . S
Cd99 O102 2.297 . S
Cd99 O103 2.439 . S
Cd99 O109 2.240 . S
Cd100 O101 2.240 . S
Cd100 O108 2.223 . S
Cd100 O110 2.297 . S
Cd100 O111 2.439 . S
O101 Cd100 2.240 . S
O101 C106 1.279 . S
O102 Cd99 2.297 . S
O102 C104 1.247 . S
O103 Cd99 2.439 . S
O103 C104 1.208 . S
C104 O102 1.247 . S
C104 O103 1.208 . S
C105 O110 1.247 . S
C105 O111 1.208 . S
C106 O98 1.315 . S
C106 O101 1.279 . S
C107 O108 1.315 . S
C107 O109 1.279 . S
O108 Cd100 2.223 . S
O108 C107 1.315 . S
O109 Cd99 2.240 . S
O109 C107 1.279 . S
O110 Cd100 2.297 . S
O110 C105 1.247 . S
O111 Cd100 2.439 . S
O111 C105 1.208 . S
O112 Cd113 2.223 . S
O112 C120 1.315 . S
Cd113 O112 2.223 . S
Cd113 O116 2.297 . S
Cd113 O117 2.439 . S
Cd113 O123 2.240 . S
Cd114 O115 2.240 . S
Cd114 O122 2.223 . S
Cd114 O124 2.297 . S
Cd114 O125 2.439 . S
O115 Cd114 2.240 . S
O115 C120 1.279 . S
O116 Cd113 2.297 . S
O116 C118 1.247 . S
O117 Cd113 2.439 . S
O117 C118 1.208 . S
C118 O116 1.247 . S
C118 O117 1.208 . S
C119 O124 1.247 . S
C119 O125 1.208 . S
C120 O112 1.315 . S
C120 O115 1.279 . S
C121 O122 1.315 . S
C121 O123 1.279 . S
O122 Cd114 2.223 . S
O122 C121 1.315 . S
O123 Cd113 2.240 . S
O123 C121 1.279 . S
O124 Cd114 2.297 . S
O124 C119 1.247 . S
O125 Cd114 2.439 . S
O125 C119 1.208 . S
O126 Cd127 2.223 . S
O126 C134 1.315 . S
Cd127 O126 2.223 . S
Cd127 O130 2.297 . S
Cd127 O131 2.439 . S
Cd127 O137 2.240 . S
Cd128 O129 2.240 . S
Cd128 O136 2.223 . S
Cd128 O138 2.297 . S
Cd128 O139 2.439 . S
O129 Cd128 2.240 . S
O129 C134 1.279 . S
O130 Cd127 2.297 . S
O130 C132 1.247 . S
O131 Cd127 2.439 . S
O131 C132 1.208 . S
C132 O130 1.247 . S
C132 O131 1.208 . S
C133 O138 1.247 . S
C133 O139 1.208 . S
C134 O126 1.315 . S
C134 O129 1.279 . S
C135 O136 1.315 . S
C135 O137 1.279 . S
O136 Cd128 2.223 . S
O136 C135 1.315 . S
O137 Cd127 2.240 . S
O137 C135 1.279 . S
O138 Cd128 2.297 . S
O138 C133 1.247 . S
O139 Cd128 2.439 . S
O139 C133 1.208 . S
O140 Cd141 2.223 . S
O140 C148 1.315 . S
Cd141 O140 2.223 . S
Cd141 O144 2.297 . S
Cd141 O145 2.439 . S
Cd141 O151 2.240 . S
Cd142 O143 2.240 . S
Cd142 O150 2.223 . S
Cd142 O152 2.297 . S
Cd142 O153 2.439 . S
O143 Cd142 2.240 . S
O143 C148 1.279 . S
O144 Cd141 2.297 . S
O144 C146 1.247 . S
O145 Cd141 2.439 . S
O145 C146 1.208 . S
C146 O144 1.247 . S
C146 O145 1.208 . S
C147 O152 1.247 . S
C147 O153 1.208 . S
C148 O140 1.315 . S
C148 O143 1.279 . S
C149 O150 1.315 . S
C149 O151 1.279 . S
O150 Cd142 2.223 . S
O150 C149 1.315 . S
O151 Cd141 2.240 . S
O151 C149 1.279 . S
O152 Cd142 2.297 . S
O152 C147 1.247 . S
O153 Cd142 2.439 . S
O153 C147 1.208 . S
O154 Cd155 2.223 . S
O154 C162 1.315 . S
Cd155 O154 2.223 . S
Cd155 O158 2.297 . S
Cd155 O159 2.439 . S
Cd155 O165 2.240 . S
Cd156 O157 2.240 . S
Cd156 O164 2.223 . S
Cd156 O166 2.297 . S
Cd156 O167 2.439 . S
O157 Cd156 2.240 . S
O157 C162 1.279 . S
O158 Cd155 2.297 . S
O158 C160 1.247 . S
O159 Cd155 2.439 . S
O159 C160 1.208 . S
C160 O158 1.247 . S
C160 O159 1.208 . S
C161 O166 1.247 . S
C161 O167 1.208 . S
C162 O154 1.315 . S
C162 O157 1.279 . S
C163 O164 1.315 . S
C163 O165 1.279 . S
O164 Cd156 2.223 . S
O164 C163 1.315 . S
O165 Cd155 2.240 . S
O165 C163 1.279 . S
O166 Cd156 2.297 . S
O166 C161 1.247 . S
O167 Cd156 2.439 . S
O167 C161 1.208 . S
O168 Cd169 2.223 . S
O168 C176 1.315 . S
Cd169 O168 2.223 . S
Cd169 O172 2.297 . S
Cd169 O173 2.439 . S
Cd169 O179 2.240 . S
Cd170 O171 2.240 . S
Cd170 O178 2.223 . S
Cd170 O180 2.297 . S
Cd170 O181 2.439 . S
O171 Cd170 2.240 . S
O171 C176 1.279 . S
O172 Cd169 2.297 . S
O172 C174 1.247 . S
O173 Cd169 2.439 . S
O173 C174 1.208 . S
C174 O172 1.247 . S
C174 O173 1.208 . S
C175 O180 1.247 . S
C175 O181 1.208 . S
C176 O168 1.315 . S
C176 O171 1.279 . S
C177 O178 1.315 . S
C177 O179 1.279 . S
O178 Cd170 2.223 . S
O178 C177 1.315 . S
O179 Cd169 2.240 . S
O179 C177 1.279 . S
O180 Cd170 2.297 . S
O180 C175 1.247 . S
O181 Cd170 2.439 . S
O181 C175 1.208 . S
O182 Cd183 2.223 . S
O182 C190 1.315 . S
Cd183 O182 2.223 . S
Cd183 O186 2.297 . S
Cd183 O187 2.439 . S
Cd183 O193 2.240 . S
Cd184 O185 2.240 . S
Cd184 O192 2.223 . S
Cd184 O194 2.297 . S
Cd184 O195 2.439 . S
O185 Cd184 2.240 . S
O185 C190 1.279 . S
O186 Cd183 2.297 . S
O186 C188 1.247 . S
O187 Cd183 2.439 . S
O187 C188 1.208 . S
C188 O186 1.247 . S
C188 O187 1.208 . S
C189 O194 1.247 . S
C189 O195 1.208 . S
C190 O182 1.315 . S
C190 O185 1.279 . S
C191 O192 1.315 . S
C191 O193 1.279 . S
O192 Cd184 2.223 . S
O192 C191 1.315 . S
O193 Cd183 2.240 . S
O193 C191 1.279 . S
O194 Cd184 2.297 . S
O194 C189 1.247 . S
O195 Cd184 2.439 . S
O195 C189 1.208 . S
O196 Cd197 2.223 . S
O196 C204 1.315 . S
Cd197 O196 2.223 . S
Cd197 O200 2.297 . S
Cd197 O201 2.439 . S
Cd197 O207 2.240 . S
Cd198 O199 2.240 . S
Cd198 O206 2.223 . S
Cd198 O208 2.297 . S
Cd198 O209 2.439 . S
O199 Cd198 2.240 . S
O199 C204 1.279 . S
O200 Cd197 2.297 . S
O200 C202 1.247 . S
O201 Cd197 2.439 . S
O201 C202 1.208 . S
C202 O200 1.247 . S
C202 O201 1.208 . S
C203 O208 1.247 . S
C203 O209 1.208 . S
C204 O196 1.315 . S
C204 O199 1.279 . S
C205 O206 1.315 . S
C205 O207 1.279 . S
O206 Cd198 2.223 . S
O206 C205 1.315 . S
O207 Cd197 2.240 . S
O207 C205 1.279 . S
O208 Cd198 2.297 . S
O208 C203 1.247 . S
O209 Cd198 2.439 . S
O209 C203 1.208 . S
O210 Cd211 2.223 . S
O210 C218 1.315 . S
Cd211 O210 2.223 . S
Cd211 O214 2.297 . S
Cd211 O215 2.439 . S
Cd211 O221 2.240 . S
Cd212 O213 2.240 . S
Cd212 O220 2.223 . S
Cd212 O222 2.297 . S
Cd212 O223 2.439 . S
O213 Cd212 2.240 . S
O213 C218 1.279 . S
O214 Cd211 2.297 . S
O214 C216 1.247 . S
O215 Cd211 2.439 . S
O215 C216 1.208 . S
C216 O214 1.247 . S
C216 O215 1.208 . S
C217 O222 1.247 . S
C217 O223 1.208 . S
C218 O210 1.315 . S
C218 O213 1.279 . S
C219 O220 1.315 . S
C219 O221 1.279 . S
O220 Cd212 2.223 . S
O220 C219 1.315 . S
O221 Cd211 2.240 . S
O221 C219 1.279 . S
O222 Cd212 2.297 . S
O222 C217 1.247 . S
O223 Cd212 2.439 . S
O223 C217 1.208 . S
H224 C236 0.930 . S
H225 C238 0.930 . S
H226 C239 0.930 . S
H227 C243 0.959 . S
H228 C243 0.959 . S
H229 C243 0.983 . S
H230 C244 0.960 1_455 S
H231 C244 0.961 . S
H232 C244 0.959 . S
H233 C247 0.929 . S
H234 C248 0.931 . S
H235 C250 0.930 . S
C236 H224 0.930 . S
C236 C237 1.399 . S
C236 C241 1.399 . S
C237 C236 1.399 . S
C237 C238 1.376 . S
C238 H225 0.930 . S
C238 C237 1.376 . S
C238 C239 1.388 . S
C239 H226 0.930 . S
C239 C238 1.388 . S
C239 C240 1.390 . S
C240 C239 1.390 . S
C240 C241 1.394 . S
C240 C246 1.465 1_455 S
C241 C236 1.399 . S
C241 C240 1.394 . S
C241 C242 1.516 1_455 S
C242 C241 1.516 1_655 S
C242 C243 1.502 . S
C242 C244 1.561 . S
C242 C245 1.526 . S
C243 H227 0.959 . S
C243 H228 0.959 . S
C243 H229 0.983 . S
C243 C242 1.502 . S
C244 H230 0.960 1_655 S
C244 H231 0.961 . S
C244 H232 0.959 . S
C244 C242 1.561 . S
C245 C242 1.526 . S
C245 C246 1.396 . S
C245 C250 1.390 . S
C246 C240 1.465 1_655 S
C246 C245 1.396 . S
C246 C247 1.399 . S
C247 H233 0.929 . S
C247 C246 1.399 . S
C247 C248 1.385 . S
C248 H234 0.931 . S
C248 C247 1.385 . S
C248 C249 1.389 . S
C249 C248 1.389 . S
C249 C250 1.387 . S
C250 H235 0.930 . S
C250 C245 1.390 . S
C250 C249 1.387 . S
H251 C263 0.930 . S
H252 C265 0.930 . S
H253 C266 0.930 . S
H254 C270 0.959 . S
H255 C270 0.959 . S
H256 C270 0.961 1_655 S
H257 C271 0.960 1_655 S
H258 C271 0.961 . S
H259 C271 0.959 . S
H260 C274 0.929 . S
H261 C275 0.931 . S
H262 C277 0.930 . S
C263 H251 0.930 . S
C263 C264 1.399 . S
C263 C268 1.399 . S
C264 C263 1.399 . S
C264 C265 1.376 . S
C265 H252 0.930 . S
C265 C264 1.376 . S
C265 C266 1.388 . S
C266 H253 0.930 . S
C266 C265 1.388 . S
C266 C267 1.390 . S
C267 C266 1.390 . S
C267 C268 1.394 . S
C267 C273 1.465 1_655 S
C268 C263 1.399 . S
C268 C267 1.394 . S
C268 C269 1.516 1_655 S
C269 C268 1.516 1_455 S
C269 C270 1.502 . S
C269 C271 1.561 . S
C269 C272 1.526 . S
C270 H254 0.959 . S
C270 H255 0.959 . S
C270 H256 0.961 1_455 S
C270 C269 1.502 . S
C271 H257 0.960 1_455 S
C271 H258 0.961 . S
C271 H259 0.959 . S
C271 C269 1.561 . S
C272 C269 1.526 . S
C272 C273 1.396 . S
C272 C277 1.390 . S
C273 C267 1.465 1_455 S
C273 C272 1.396 . S
C273 C274 1.399 . S
C274 H260 0.929 . S
C274 C273 1.399 . S
C274 C275 1.385 . S
C275 H261 0.931 . S
C275 C274 1.385 . S
C275 C276 1.389 . S
C276 C275 1.389 . S
C276 C277 1.387 . S
C277 H262 0.930 . S
C277 C272 1.390 . S
C277 C276 1.387 . S
H278 C290 0.930 . S
H279 C292 0.930 . S
H280 C293 0.930 . S
H281 C297 0.959 . S
H282 C297 0.959 1_455 S
H283 C297 0.961 . S
H284 C298 0.960 . S
H285 C298 0.961 . S
H286 C298 0.959 . S
H287 C301 0.929 . S
H288 C302 0.931 . S
H289 C304 0.930 . S
C290 H278 0.930 . S
C290 C291 1.399 . S
C290 C295 1.399 . S
C291 C290 1.399 . S
C291 C292 1.376 . S
C292 H279 0.930 . S
C292 C291 1.376 . S
C292 C293 1.388 . S
C293 H280 0.930 . S
C293 C292 1.388 . S
C293 C294 1.390 . S
C294 C293 1.390 . S
C294 C295 1.394 . S
C294 C300 1.465 1_655 S
C295 C290 1.399 . S
C295 C294 1.394 . S
C295 C296 1.516 . S
C296 C295 1.516 . S
C296 C297 1.502 . S
C296 C298 1.561 . S
C296 C299 1.526 1_655 S
C297 H281 0.959 . S
C297 H282 0.959 1_655 S
C297 H283 0.961 . S
C297 C296 1.502 . S
C298 H284 0.960 . S
C298 H285 0.961 . S
C298 H286 0.959 . S
C298 C296 1.561 . S
C299 C296 1.526 1_455 S
C299 C300 1.396 . S
C299 C304 1.390 . S
C300 C294 1.465 1_455 S
C300 C299 1.396 . S
C300 C301 1.399 . S
C301 H287 0.929 . S
C301 C300 1.399 . S
C301 C302 1.385 . S
C302 H288 0.931 . S
C302 C301 1.385 . S
C302 C303 1.389 . S
C303 C302 1.389 . S
C303 C304 1.387 . S
C304 H289 0.930 . S
C304 C299 1.390 . S
C304 C303 1.387 . S
H305 C317 0.930 . S
H306 C319 0.930 . S
H307 C320 0.930 . S
H308 C324 0.959 . S
H309 C324 0.959 1_655 S
H310 C324 0.961 . S
H311 C325 0.960 . S
H312 C325 0.961 1_655 S
H313 C325 0.959 . S
H314 C328 0.929 . S
H315 C329 0.931 . S
H316 C331 0.930 . S
C317 H305 0.930 . S
C317 C318 1.399 . S
C317 C322 1.399 . S
C318 C317 1.399 . S
C318 C319 1.376 . S
C319 H306 0.930 . S
C319 C318 1.376 . S
C319 C320 1.388 . S
C320 H307 0.930 . S
C320 C319 1.388 . S
C320 C321 1.390 . S
C321 C320 1.390 . S
C321 C322 1.394 . S
C321 C327 1.465 1_455 S
C322 C317 1.399 . S
C322 C321 1.394 . S
C322 C323 1.516 . S
C323 C322 1.516 . S
C323 C324 1.502 . S
C323 C325 1.561 . S
C323 C326 1.526 1_455 S
C324 H308 0.959 . S
C324 H309 0.959 1_455 S
C324 H310 0.961 . S
C324 C323 1.502 . S
C325 H311 0.960 . S
C325 H312 0.961 1_455 S
C325 H313 0.959 . S
C325 C323 1.561 . S
C326 C323 1.526 1_655 S
C326 C327 1.396 . S
C326 C331 1.390 . S
C327 C321 1.465 1_655 S
C327 C326 1.396 . S
C327 C328 1.399 . S
C328 H314 0.929 . S
C328 C327 1.399 . S
C328 C329 1.385 . S
C329 H315 0.931 . S
C329 C328 1.385 . S
C329 C330 1.389 . S
C330 C329 1.389 . S
C330 C331 1.387 . S
C331 H316 0.930 . S
C331 C326 1.390 . S
C331 C330 1.387 . S
H332 C344 0.930 . S
H333 C346 0.930 . S
H334 C347 0.930 . S
H335 C351 0.959 . S
H336 C351 0.959 . S
H337 C351 0.961 . S
H338 C352 0.960 . S
H339 C352 0.961 . S
H340 C352 0.959 . S
H341 C355 0.929 . S
H342 C356 0.931 . S
H343 C358 0.930 . S
C344 H332 0.930 . S
C344 C345 1.399 . S
C344 C349 1.399 . S
C345 C344 1.399 . S
C345 C346 1.376 . S
C346 H333 0.930 . S
C346 C345 1.376 . S
C346 C347 1.388 . S
C347 H334 0.930 . S
C347 C346 1.388 . S
C347 C348 1.390 . S
C348 C347 1.390 . S
C348 C349 1.394 . S
C348 C354 1.465 . S
C349 C344 1.399 . S
C349 C348 1.394 . S
C349 C350 1.516 . S
C350 C349 1.516 . S
C350 C351 1.502 . S
C350 C352 1.561 . S
C350 C353 1.526 . S
C351 H335 0.959 . S
C351 H336 0.959 . S
C351 H337 0.961 . S
C351 C350 1.502 . S
C352 H338 0.960 . S
C352 H339 0.961 . S
C352 H340 0.959 . S
C352 C350 1.561 . S
C353 C350 1.526 . S
C353 C354 1.396 . S
C353 C358 1.390 . S
C354 C348 1.465 . S
C354 C353 1.396 . S
C354 C355 1.399 . S
C355 H341 0.929 . S
C355 C354 1.399 . S
C355 C356 1.385 . S
C356 H342 0.931 . S
C356 C355 1.385 . S
C356 C357 1.389 . S
C357 C356 1.389 . S
C357 C358 1.387 . S
C358 H343 0.930 . S
C358 C353 1.390 . S
C358 C357 1.387 . S
H359 C371 0.930 . S
H360 C373 0.930 . S
H361 C374 0.930 . S
H362 C378 0.959 . S
H363 C378 0.959 . S
H364 C378 0.961 . S
H365 C379 0.960 . S
H366 C379 0.961 . S
H367 C379 0.959 . S
H368 C382 0.929 . S
H369 C383 0.931 . S
H370 C385 0.930 . S
C371 H359 0.930 . S
C371 C372 1.399 . S
C371 C376 1.399 . S
C372 C371 1.399 . S
C372 C373 1.376 . S
C373 H360 0.930 . S
C373 C372 1.376 . S
C373 C374 1.388 . S
C374 H361 0.930 . S
C374 C373 1.388 . S
C374 C375 1.390 . S
C375 C374 1.390 . S
C375 C376 1.394 . S
C375 C381 1.465 . S
C376 C371 1.399 . S
C376 C375 1.394 . S
C376 C377 1.516 . S
C377 C376 1.516 . S
C377 C378 1.502 . S
C377 C379 1.561 . S
C377 C380 1.526 . S
C378 H362 0.959 . S
C378 H363 0.959 . S
C378 H364 0.961 . S
C378 C377 1.502 . S
C379 H365 0.960 . S
C379 H366 0.961 . S
C379 H367 0.959 . S
C379 C377 1.561 . S
C380 C377 1.526 . S
C380 C381 1.396 . S
C380 C385 1.390 . S
C381 C375 1.465 . S
C381 C380 1.396 . S
C381 C382 1.399 . S
C382 H368 0.929 . S
C382 C381 1.399 . S
C382 C383 1.385 . S
C383 H369 0.931 . S
C383 C382 1.385 . S
C383 C384 1.389 . S
C384 C383 1.389 . S
C384 C385 1.387 . S
C385 H370 0.930 . S
C385 C380 1.390 . S
C385 C384 1.387 . S
H386 C398 0.930 . S
H387 C400 0.930 . S
H388 C401 0.930 . S
H389 C405 0.959 . S
H390 C405 0.959 . S
H391 C405 0.961 . S
H392 C406 0.960 . S
H393 C406 0.961 . S
H394 C406 0.959 . S
H395 C409 0.929 . S
H396 C410 0.931 . S
H397 C412 0.930 . S
C398 H386 0.930 . S
C398 C399 1.399 . S
C398 C403 1.399 . S
C399 C398 1.399 . S
C399 C400 1.376 . S
C400 H387 0.930 . S
C400 C399 1.376 . S
C400 C401 1.388 . S
C401 H388 0.930 . S
C401 C400 1.388 . S
C401 C402 1.390 . S
C402 C401 1.390 . S
C402 C403 1.394 . S
C402 C408 1.465 . S
C403 C398 1.399 . S
C403 C402 1.394 . S
C403 C404 1.516 . S
C404 C403 1.516 . S
C404 C405 1.502 . S
C404 C406 1.561 . S
C404 C407 1.526 . S
C405 H389 0.959 . S
C405 H390 0.959 . S
C405 H391 0.961 . S
C405 C404 1.502 . S
C406 H392 0.960 . S
C406 H393 0.961 . S
C406 H394 0.959 . S
C406 C404 1.561 . S
C407 C404 1.526 . S
C407 C408 1.396 . S
C407 C412 1.390 . S
C408 C402 1.465 . S
C408 C407 1.396 . S
C408 C409 1.399 . S
C409 H395 0.929 . S
C409 C408 1.399 . S
C409 C410 1.385 . S
C410 H396 0.931 . S
C410 C409 1.385 . S
C410 C411 1.389 . S
C411 C410 1.389 . S
C411 C412 1.387 . S
C412 H397 0.930 . S
C412 C407 1.390 . S
C412 C411 1.387 . S
H413 C425 0.930 . S
H414 C427 0.930 . S
H415 C428 0.930 . S
H416 C432 0.959 . S
H417 C432 0.959 . S
H418 C432 0.961 . S
H419 C433 0.960 . S
H420 C433 0.961 . S
H421 C433 0.959 . S
H422 C436 0.929 . S
H423 C437 0.931 . S
H424 C439 0.930 . S
C425 H413 0.930 . S
C425 C426 1.399 . S
C425 C430 1.399 . S
C426 C425 1.399 . S
C426 C427 1.376 . S
C427 H414 0.930 . S
C427 C426 1.376 . S
C427 C428 1.388 . S
C428 H415 0.930 . S
C428 C427 1.388 . S
C428 C429 1.390 . S
C429 C428 1.390 . S
C429 C430 1.394 . S
C429 C435 1.465 . S
C430 C425 1.399 . S
C430 C429 1.394 . S
C430 C431 1.516 . S
C431 C430 1.516 . S
C431 C432 1.502 . S
C431 C433 1.561 . S
C431 C434 1.526 . S
C432 H416 0.959 . S
C432 H417 0.959 . S
C432 H418 0.961 . S
C432 C431 1.502 . S
C433 H419 0.960 . S
C433 H420 0.961 . S
C433 H421 0.959 . S
C433 C431 1.561 . S
C434 C431 1.526 . S
C434 C435 1.396 . S
C434 C439 1.390 . S
C435 C429 1.465 . S
C435 C434 1.396 . S
C435 C436 1.399 . S
C436 H422 0.929 . S
C436 C435 1.399 . S
C436 C437 1.385 . S
C437 H423 0.931 . S
C437 C436 1.385 . S
C437 C438 1.389 . S
C438 C437 1.389 . S
C438 C439 1.387 . S
C439 H424 0.930 . S
C439 C434 1.390 . S
C439 C438 1.387 . S
H440 C452 0.930 . S
H441 C454 0.930 . S
H442 C455 0.930 . S
H443 C459 0.959 . S
H444 C459 0.959 . S
H445 C459 0.961 . S
H446 C460 0.960 . S
H447 C460 0.961 . S
H448 C460 0.959 . S
H449 C463 0.929 . S
H450 C464 0.931 . S
H451 C466 0.930 . S
C452 H440 0.930 . S
C452 C453 1.399 . S
C452 C457 1.399 . S
C453 C452 1.399 . S
C453 C454 1.376 . S
C454 H441 0.930 . S
C454 C453 1.376 . S
C454 C455 1.388 . S
C455 H442 0.930 . S
C455 C454 1.388 . S
C455 C456 1.390 . S
C456 C455 1.390 . S
C456 C457 1.394 . S
C456 C462 1.465 . S
C457 C452 1.399 . S
C457 C456 1.394 . S
C457 C458 1.516 . S
C458 C457 1.516 . S
C458 C459 1.502 . S
C458 C460 1.561 . S
C458 C461 1.526 . S
C459 H443 0.959 . S
C459 H444 0.959 . S
C459 H445 0.961 . S
C459 C458 1.502 . S
C460 H446 0.960 . S
C460 H447 0.961 . S
C460 H448 0.959 . S
C460 C458 1.561 . S
C461 C458 1.526 . S
C461 C462 1.396 . S
C461 C466 1.390 . S
C462 C456 1.465 . S
C462 C461 1.396 . S
C462 C463 1.399 . S
C463 H449 0.929 . S
C463 C462 1.399 . S
C463 C464 1.385 . S
C464 H450 0.931 . S
C464 C463 1.385 . S
C464 C465 1.389 . S
C465 C464 1.389 . S
C465 C466 1.387 . S
C466 H451 0.930 . S
C466 C461 1.390 . S
C466 C465 1.387 . S
H467 C479 0.930 . S
H468 C481 0.930 . S
H469 C482 0.930 . S
H470 C486 0.959 . S
H471 C486 0.959 . S
H472 C486 0.961 . S
H473 C487 0.960 . S
H474 C487 0.961 . S
H475 C487 0.959 . S
H476 C490 0.929 . S
H477 C491 0.931 . S
H478 C493 0.930 . S
C479 H467 0.930 . S
C479 C480 1.399 . S
C479 C484 1.399 . S
C480 C479 1.399 . S
C480 C481 1.376 . S
C481 H468 0.930 . S
C481 C480 1.376 . S
C481 C482 1.388 . S
C482 H469 0.930 . S
C482 C481 1.388 . S
C482 C483 1.390 . S
C483 C482 1.390 . S
C483 C484 1.394 . S
C483 C489 1.465 . S
C484 C479 1.399 . S
C484 C483 1.394 . S
C484 C485 1.516 . S
C485 C484 1.516 . S
C485 C486 1.502 . S
C485 C487 1.561 . S
C485 C488 1.526 . S
C486 H470 0.959 . S
C486 H471 0.959 . S
C486 H472 0.961 . S
C486 C485 1.502 . S
C487 H473 0.960 . S
C487 H474 0.961 . S
C487 H475 0.959 . S
C487 C485 1.561 . S
C488 C485 1.526 . S
C488 C489 1.396 . S
C488 C493 1.390 . S
C489 C483 1.465 . S
C489 C488 1.396 . S
C489 C490 1.399 . S
C490 H476 0.929 . S
C490 C489 1.399 . S
C490 C491 1.385 . S
C491 H477 0.931 . S
C491 C490 1.385 . S
C491 C492 1.389 . S
C492 C491 1.389 . S
C492 C493 1.387 . S
C493 H478 0.930 . S
C493 C488 1.390 . S
C493 C492 1.387 . S
H494 C506 0.930 . S
H495 C508 0.930 . S
H496 C509 0.930 . S
H497 C513 0.959 . S
H498 C513 0.959 . S
H499 C513 0.961 . S
H500 C514 0.960 . S
H501 C514 0.961 . S
H502 C514 0.959 . S
H503 C517 0.929 . S
H504 C518 0.931 . S
H505 C520 0.930 . S
C506 H494 0.930 . S
C506 C507 1.399 . S
C506 C511 1.399 . S
C507 C506 1.399 . S
C507 C508 1.376 . S
C508 H495 0.930 . S
C508 C507 1.376 . S
C508 C509 1.388 . S
C509 H496 0.930 . S
C509 C508 1.388 . S
C509 C510 1.390 . S
C510 C509 1.390 . S
C510 C511 1.394 . S
C510 C516 1.465 . S
C511 C506 1.399 . S
C511 C510 1.394 . S
C511 C512 1.516 . S
C512 C511 1.516 . S
C512 C513 1.502 . S
C512 C514 1.561 . S
C512 C515 1.526 . S
C513 H497 0.959 . S
C513 H498 0.959 . S
C513 H499 0.961 . S
C513 C512 1.502 . S
C514 H500 0.960 . S
C514 H501 0.961 . S
C514 H502 0.959 . S
C514 C512 1.561 . S
C515 C512 1.526 . S
C515 C516 1.396 . S
C515 C520 1.390 . S
C516 C510 1.465 . S
C516 C515 1.396 . S
C516 C517 1.399 . S
C517 H503 0.929 . S
C517 C516 1.399 . S
C517 C518 1.385 . S
C518 H504 0.931 . S
C518 C517 1.385 . S
C518 C519 1.389 . S
C519 C518 1.389 . S
C519 C520 1.387 . S
C520 H505 0.930 . S
C520 C515 1.390 . S
C520 C519 1.387 . S
H521 C533 0.930 . S
H522 C535 0.930 . S
H523 C536 0.930 . S
H524 C540 0.959 . S
H525 C540 0.959 . S
H526 C540 0.961 . S
H527 C541 0.960 . S
H528 C541 0.961 . S
H529 C541 0.959 . S
H530 C544 0.929 . S
H531 C545 0.931 . S
H532 C547 0.930 . S
C533 H521 0.930 . S
C533 C534 1.399 . S
C533 C538 1.399 . S
C534 C533 1.399 . S
C534 C535 1.376 . S
C535 H522 0.930 . S
C535 C534 1.376 . S
C535 C536 1.388 . S
C536 H523 0.930 . S
C536 C535 1.388 . S
C536 C537 1.390 . S
C537 C536 1.390 . S
C537 C538 1.394 . S
C537 C543 1.465 . S
C538 C533 1.399 . S
C538 C537 1.394 . S
C538 C539 1.516 . S
C539 C538 1.516 . S
C539 C540 1.502 . S
C539 C541 1.561 . S
C539 C542 1.526 . S
C540 H524 0.959 . S
C540 H525 0.959 . S
C540 H526 0.961 . S
C540 C539 1.502 . S
C541 H527 0.960 . S
C541 H528 0.961 . S
C541 H529 0.959 . S
C541 C539 1.561 . S
C542 C539 1.526 . S
C542 C543 1.396 . S
C542 C547 1.390 . S
C543 C537 1.465 . S
C543 C542 1.396 . S
C543 C544 1.399 . S
C544 H530 0.929 . S
C544 C543 1.399 . S
C544 C545 1.385 . S
C545 H531 0.931 . S
C545 C544 1.385 . S
C545 C546 1.389 . S
C546 C545 1.389 . S
C546 C547 1.387 . S
C547 H532 0.930 . S
C547 C542 1.390 . S
C547 C546 1.387 . S
H548 C560 0.930 . S
H549 C562 0.930 . S
H550 C563 0.930 . S
H551 C567 0.959 . S
H552 C567 0.959 . S
H553 C567 0.961 . S
H554 C568 0.960 . S
H555 C568 0.961 . S
H556 C568 0.959 . S
H557 C571 0.929 . S
H558 C572 0.931 . S
H559 C574 0.930 . S
C560 H548 0.930 . S
C560 C561 1.399 . S
C560 C565 1.399 . S
C561 C560 1.399 . S
C561 C562 1.376 . S
C562 H549 0.930 . S
C562 C561 1.376 . S
C562 C563 1.388 . S
C563 H550 0.930 . S
C563 C562 1.388 . S
C563 C564 1.390 . S
C564 C563 1.390 . S
C564 C565 1.394 . S
C564 C570 1.465 . S
C565 C560 1.399 . S
C565 C564 1.394 . S
C565 C566 1.516 . S
C566 C565 1.516 . S
C566 C567 1.502 . S
C566 C568 1.561 . S
C566 C569 1.526 . S
C567 H551 0.959 . S
C567 H552 0.959 . S
C567 H553 0.961 . S
C567 C566 1.502 . S
C568 H554 0.960 . S
C568 H555 0.961 . S
C568 H556 0.959 . S
C568 C566 1.561 . S
C569 C566 1.526 . S
C569 C570 1.396 . S
C569 C574 1.390 . S
C570 C564 1.465 . S
C570 C569 1.396 . S
C570 C571 1.399 . S
C571 H557 0.929 . S
C571 C570 1.399 . S
C571 C572 1.385 . S
C572 H558 0.931 . S
C572 C571 1.385 . S
C572 C573 1.389 . S
C573 C572 1.389 . S
C573 C574 1.387 . S
C574 H559 0.930 . S
C574 C569 1.390 . S
C574 C573 1.387 . S
H575 C587 0.930 . S
H576 C589 0.930 . S
H577 C590 0.930 . S
H578 C594 0.959 . S
H579 C594 0.959 . S
H580 C594 0.961 . S
H581 C595 0.960 . S
H582 C595 0.961 . S
H583 C595 0.959 . S
H584 C598 0.929 . S
H585 C599 0.931 . S
H586 C601 0.930 . S
C587 H575 0.930 . S
C587 C588 1.399 . S
C587 C592 1.399 . S
C588 C587 1.399 . S
C588 C589 1.376 . S
C589 H576 0.930 . S
C589 C588 1.376 . S
C589 C590 1.388 . S
C590 H577 0.930 . S
C590 C589 1.388 . S
C590 C591 1.390 . S
C591 C590 1.390 . S
C591 C592 1.394 . S
C591 C597 1.465 . S
C592 C587 1.399 . S
C592 C591 1.394 . S
C592 C593 1.516 . S
C593 C592 1.516 . S
C593 C594 1.502 . S
C593 C595 1.561 . S
C593 C596 1.526 . S
C594 H578 0.959 . S
C594 H579 0.959 . S
C594 H580 0.961 . S
C594 C593 1.502 . S
C595 H581 0.960 . S
C595 H582 0.961 . S
C595 H583 0.959 . S
C595 C593 1.561 . S
C596 C593 1.526 . S
C596 C597 1.396 . S
C596 C601 1.390 . S
C597 C591 1.465 . S
C597 C596 1.396 . S
C597 C598 1.399 . S
C598 H584 0.929 . S
C598 C597 1.399 . S
C598 C599 1.385 . S
C599 H585 0.931 . S
C599 C598 1.385 . S
C599 C600 1.389 . S
C600 C599 1.389 . S
C600 C601 1.387 . S
C601 H586 0.930 . S
C601 C596 1.390 . S
C601 C600 1.387 . S
H602 C614 0.930 . S
H603 C616 0.930 . S
H604 C617 0.930 . S
H605 C621 0.959 . S
H606 C621 0.959 . S
H607 C621 0.961 . S
H608 C622 0.960 . S
H609 C622 0.961 . S
H610 C622 0.959 . S
H611 C625 0.929 . S
H612 C626 0.931 . S
H613 C628 0.930 . S
C614 H602 0.930 . S
C614 C615 1.399 . S
C614 C619 1.399 . S
C615 C614 1.399 . S
C615 C616 1.376 . S
C616 H603 0.930 . S
C616 C615 1.376 . S
C616 C617 1.388 . S
C617 H604 0.930 . S
C617 C616 1.388 . S
C617 C618 1.390 . S
C618 C617 1.390 . S
C618 C619 1.394 . S
C618 C624 1.465 . S
C619 C614 1.399 . S
C619 C618 1.394 . S
C619 C620 1.516 . S
C620 C619 1.516 . S
C620 C621 1.502 . S
C620 C622 1.561 . S
C620 C623 1.526 . S
C621 H605 0.959 . S
C621 H606 0.959 . S
C621 H607 0.961 . S
C621 C620 1.502 . S
C622 H608 0.960 . S
C622 H609 0.961 . S
C622 H610 0.959 . S
C622 C620 1.561 . S
C623 C620 1.526 . S
C623 C624 1.396 . S
C623 C628 1.390 . S
C624 C618 1.465 . S
C624 C623 1.396 . S
C624 C625 1.399 . S
C625 H611 0.929 . S
C625 C624 1.399 . S
C625 C626 1.385 . S
C626 H612 0.931 . S
C626 C625 1.385 . S
C626 C627 1.389 . S
C627 C626 1.389 . S
C627 C628 1.387 . S
C628 H613 0.930 . S
C628 C623 1.390 . S
C628 C627 1.387 . S
H629 C641 0.930 . S
H630 C643 0.930 . S
H631 C644 0.930 . S
H632 C648 0.959 . S
H633 C648 0.959 . S
H634 C648 0.961 . S
H635 C649 0.960 . S
H636 C649 0.961 . S
H637 C649 0.959 . S
H638 C652 0.929 . S
H639 C653 0.931 . S
H640 C655 0.930 . S
C641 H629 0.930 . S
C641 C642 1.399 . S
C641 C646 1.399 . S
C642 C641 1.399 . S
C642 C643 1.376 . S
C643 H630 0.930 . S
C643 C642 1.376 . S
C643 C644 1.388 . S
C644 H631 0.930 . S
C644 C643 1.388 . S
C644 C645 1.390 . S
C645 C644 1.390 . S
C645 C646 1.394 . S
C645 C651 1.465 . S
C646 C641 1.399 . S
C646 C645 1.394 . S
C646 C647 1.516 . S
C647 C646 1.516 . S
C647 C648 1.502 . S
C647 C649 1.561 . S
C647 C650 1.526 . S
C648 H632 0.959 . S
C648 H633 0.959 . S
C648 H634 0.961 . S
C648 C647 1.502 . S
C649 H635 0.960 . S
C649 H636 0.961 . S
C649 H637 0.959 . S
C649 C647 1.561 . S
C650 C647 1.526 . S
C650 C651 1.396 . S
C650 C655 1.390 . S
C651 C645 1.465 . S
C651 C650 1.396 . S
C651 C652 1.399 . S
C652 H638 0.929 . S
C652 C651 1.399 . S
C652 C653 1.385 . S
C653 H639 0.931 . S
C653 C652 1.385 . S
C653 C654 1.389 . S
C654 C653 1.389 . S
C654 C655 1.387 . S
C655 H640 0.930 . S
C655 C650 1.390 . S
C655 C654 1.387 . S
H656 C668 0.930 . S
H657 C670 0.930 . S
H658 C671 0.930 . S
H659 C675 0.959 . S
H660 C675 0.959 . S
H661 C675 0.961 . S
H662 C676 0.960 . S
H663 C676 0.961 . S
H664 C676 0.959 . S
H665 C679 0.929 1_556 S
H666 C680 0.931 . S
H667 C682 0.930 . S
C668 H656 0.930 . S
C668 C669 1.399 . S
C668 C673 1.399 . S
C669 C668 1.399 . S
C669 C670 1.376 . S
C670 H657 0.930 . S
C670 C669 1.376 . S
C670 C671 1.388 . S
C671 H658 0.930 . S
C671 C670 1.388 . S
C671 C672 1.390 . S
C672 C671 1.390 . S
C672 C673 1.394 . S
C672 C678 1.465 1_556 S
C673 C668 1.399 . S
C673 C672 1.394 . S
C673 C674 1.516 1_556 S
C674 C673 1.516 1_554 S
C674 C675 1.502 . S
C674 C676 1.561 . S
C674 C677 1.526 . S
C675 H659 0.959 . S
C675 H660 0.959 . S
C675 H661 0.961 . S
C675 C674 1.502 . S
C676 H662 0.960 . S
C676 H663 0.961 . S
C676 H664 0.959 . S
C676 C674 1.561 . S
C677 C674 1.526 . S
C677 C678 1.396 . S
C677 C682 1.390 . S
C678 C672 1.465 1_554 S
C678 C677 1.396 . S
C678 C679 1.399 . S
C679 H665 0.929 1_554 S
C679 C678 1.399 . S
C679 C680 1.385 . S
C680 H666 0.931 . S
C680 C679 1.385 . S
C680 C681 1.389 . S
C681 C680 1.389 . S
C681 C682 1.387 . S
C682 H667 0.930 . S
C682 C677 1.390 . S
C682 C681 1.387 . S
H683 C695 0.930 . S
H684 C697 0.930 . S
H685 C698 0.930 . S
H686 C702 0.959 . S
H687 C702 0.959 . S
H688 C702 0.961 . S
H689 C703 0.960 . S
H690 C703 0.961 . S
H691 C703 0.959 . S
H692 C706 0.929 . S
H693 C707 0.931 . S
H694 C709 0.930 . S
C695 H683 0.930 . S
C695 C696 1.399 . S
C695 C700 1.399 . S
C696 C695 1.399 . S
C696 C697 1.376 . S
C697 H684 0.930 . S
C697 C696 1.376 . S
C697 C698 1.388 . S
C698 H685 0.930 . S
C698 C697 1.388 . S
C698 C699 1.390 . S
C699 C698 1.390 . S
C699 C700 1.394 . S
C699 C705 1.465 . S
C700 C695 1.399 . S
C700 C699 1.394 . S
C700 C701 1.516 . S
C701 C700 1.516 . S
C701 C702 1.502 . S
C701 C703 1.561 . S
C701 C704 1.526 . S
C702 H686 0.959 . S
C702 H687 0.959 . S
C702 H688 0.961 . S
C702 C701 1.502 . S
C703 H689 0.960 . S
C703 H690 0.961 . S
C703 H691 0.959 . S
C703 C701 1.561 . S
C704 C701 1.526 . S
C704 C705 1.396 . S
C704 C709 1.390 . S
C705 C699 1.465 . S
C705 C704 1.396 . S
C705 C706 1.399 . S
C706 H692 0.929 . S
C706 C705 1.399 . S
C706 C707 1.385 . S
C707 H693 0.931 . S
C707 C706 1.385 . S
C707 C708 1.389 . S
C708 C707 1.389 . S
C708 C709 1.387 . S
C709 H694 0.930 . S
C709 C704 1.390 . S
C709 C708 1.387 . S
H710 C722 0.930 1_556 S
H711 C724 0.930 . S
H712 C725 0.930 . S
H713 C729 0.959 . S
H714 C729 0.959 . S
H715 C729 0.961 . S
H716 C730 0.960 . S
H717 C730 0.961 . S
H718 C730 0.959 . S
H719 C733 0.929 . S
H720 C734 0.931 . S
H721 C736 0.930 . S
C722 H710 0.930 1_554 S
C722 C723 1.399 . S
C722 C727 1.388 1_554 S
C723 C722 1.399 . S
C723 C724 1.376 . S
C724 H711 0.930 . S
C724 C723 1.376 . S
C724 C725 1.388 . S
C725 H712 0.930 . S
C725 C724 1.388 . S
C725 C726 1.390 . S
C726 C725 1.390 . S
C726 C727 1.373 1_554 S
C726 C732 1.465 . S
C727 C722 1.388 1_556 S
C727 C726 1.373 1_556 S
C727 C728 1.547 . S
C728 C727 1.547 . S
C728 C729 1.502 . S
C728 C730 1.561 . S
C728 C731 1.526 . S
C729 H713 0.959 . S
C729 H714 0.959 . S
C729 H715 0.961 . S
C729 C728 1.502 . S
C730 H716 0.960 . S
C730 H717 0.961 . S
C730 H718 0.959 . S
C730 C728 1.561 . S
C731 C728 1.526 . S
C731 C732 1.396 1_556 S
C731 C736 1.390 . S
C732 C726 1.465 . S
C732 C731 1.396 1_554 S
C732 C733 1.399 . S
C733 H719 0.929 . S
C733 C732 1.399 . S
C733 C734 1.385 1_554 S
C734 H720 0.931 . S
C734 C733 1.385 1_556 S
C734 C735 1.389 . S
C735 C734 1.389 . S
C735 C736 1.387 . S
C736 H721 0.930 . S
C736 C731 1.390 . S
C736 C735 1.387 . S
H737 C749 0.930 . S
H738 C751 0.930 . S
H739 C752 0.930 . S
H740 C756 0.959 . S
H741 C756 0.959 . S
H742 C756 0.961 . S
H743 C757 0.960 . S
H744 C757 0.961 . S
H745 C757 0.959 . S
H746 C760 0.929 . S
H747 C761 0.931 . S
H748 C763 0.930 . S
C749 H737 0.930 . S
C749 C750 1.399 . S
C749 C754 1.399 . S
C750 C749 1.399 . S
C750 C751 1.376 . S
C751 H738 0.930 . S
C751 C750 1.376 . S
C751 C752 1.388 . S
C752 H739 0.930 . S
C752 C751 1.388 . S
C752 C753 1.390 . S
C753 C752 1.390 . S
C753 C754 1.394 . S
C753 C759 1.465 . S
C754 C749 1.399 . S
C754 C753 1.394 . S
C754 C755 1.516 . S
C755 C754 1.516 . S
C755 C756 1.502 . S
C755 C757 1.561 . S
C755 C758 1.526 . S
C756 H740 0.959 . S
C756 H741 0.959 . S
C756 H742 0.961 . S
C756 C755 1.502 . S
C757 H743 0.960 . S
C757 H744 0.961 . S
C757 H745 0.959 . S
C757 C755 1.561 . S
C758 C755 1.526 . S
C758 C759 1.396 . S
C758 C763 1.390 . S
C759 C753 1.465 . S
C759 C758 1.396 . S
C759 C760 1.399 . S
C760 H746 0.929 . S
C760 C759 1.399 . S
C760 C761 1.385 . S
C761 H747 0.931 . S
C761 C760 1.385 . S
C761 C762 1.389 . S
C762 C761 1.389 . S
C762 C763 1.387 . S
C763 H748 0.930 . S
C763 C758 1.390 . S
C763 C762 1.387 . S
H764 C776 0.930 . S
H765 C778 0.930 . S
H766 C779 0.930 . S
H767 C783 0.959 . S
H768 C783 0.959 . S
H769 C783 0.961 . S
H770 C784 0.960 . S
H771 C784 0.961 . S
H772 C784 0.959 . S
H773 C787 0.929 . S
H774 C788 0.931 . S
H775 C790 0.930 . S
C776 H764 0.930 . S
C776 C777 1.399 . S
C776 C781 1.399 . S
C777 C776 1.399 . S
C777 C778 1.376 . S
C778 H765 0.930 . S
C778 C777 1.376 . S
C778 C779 1.388 . S
C779 H766 0.930 . S
C779 C778 1.388 . S
C779 C780 1.390 . S
C780 C779 1.390 . S
C780 C781 1.394 . S
C780 C786 1.465 . S
C781 C776 1.399 . S
C781 C780 1.394 . S
C781 C782 1.516 1_554 S
C782 C781 1.516 1_556 S
C782 C783 1.502 . S
C782 C784 1.561 . S
C782 C785 1.526 . S
C783 H767 0.959 . S
C783 H768 0.959 . S
C783 H769 0.961 . S
C783 C782 1.502 . S
C784 H770 0.960 . S
C784 H771 0.961 . S
C784 H772 0.959 . S
C784 C782 1.561 . S
C785 C782 1.526 . S
C785 C786 1.396 1_556 S
C785 C790 1.390 . S
C786 C780 1.465 . S
C786 C785 1.396 1_554 S
C786 C787 1.399 . S
C787 H773 0.929 . S
C787 C786 1.399 . S
C787 C788 1.385 1_554 S
C788 H774 0.931 . S
C788 C787 1.385 1_556 S
C788 C789 1.389 . S
C789 C788 1.389 . S
C789 C790 1.387 . S
C790 H775 0.930 . S
C790 C785 1.390 . S
C790 C789 1.387 . S
H791 C803 0.930 . S
H792 C805 0.930 . S
H793 C806 0.930 . S
H794 C810 0.959 . S
H795 C810 0.959 . S
H796 C810 0.961 . S
H797 C811 0.960 . S
H798 C811 0.961 . S
H799 C811 0.959 . S
H800 C814 0.929 . S
H801 C815 0.931 . S
H802 C817 0.930 . S
C803 H791 0.930 . S
C803 C804 1.399 . S
C803 C808 1.399 . S
C804 C803 1.399 . S
C804 C805 1.376 . S
C805 H792 0.930 . S
C805 C804 1.376 . S
C805 C806 1.388 . S
C806 H793 0.930 . S
C806 C805 1.388 . S
C806 C807 1.390 . S
C807 C806 1.390 . S
C807 C808 1.394 . S
C807 C813 1.465 . S
C808 C803 1.399 . S
C808 C807 1.394 . S
C808 C809 1.516 . S
C809 C808 1.516 . S
C809 C810 1.502 . S
C809 C811 1.561 . S
C809 C812 1.526 . S
C810 H794 0.959 . S
C810 H795 0.959 . S
C810 H796 0.961 . S
C810 C809 1.502 . S
C811 H797 0.960 . S
C811 H798 0.961 . S
C811 H799 0.959 . S
C811 C809 1.561 . S
C812 C809 1.526 . S
C812 C813 1.396 . S
C812 C817 1.390 . S
C813 C807 1.465 . S
C813 C812 1.396 . S
C813 C814 1.399 . S
C814 H800 0.929 . S
C814 C813 1.399 . S
C814 C815 1.385 . S
C815 H801 0.931 . S
C815 C814 1.385 . S
C815 C816 1.389 . S
C816 C815 1.389 . S
C816 C817 1.387 . S
C817 H802 0.930 . S
C817 C812 1.390 . S
C817 C816 1.387 . S
H818 C830 0.930 . S
H819 C832 0.930 . S
H820 C833 0.930 . S
H821 C837 0.959 . S
H822 C837 0.959 . S
H823 C837 0.961 . S
H824 C838 0.960 . S
H825 C838 0.961 . S
H826 C838 0.959 . S
H827 C841 0.929 . S
H828 C842 0.931 . S
H829 C844 0.930 . S
C830 H818 0.930 . S
C830 C831 1.399 . S
C830 C835 1.399 . S
C831 C830 1.399 . S
C831 C832 1.376 . S
C832 H819 0.930 . S
C832 C831 1.376 . S
C832 C833 1.388 . S
C833 H820 0.930 . S
C833 C832 1.388 . S
C833 C834 1.390 . S
C834 C833 1.390 . S
C834 C835 1.394 . S
C834 C840 1.465 1_554 S
C835 C830 1.399 . S
C835 C834 1.394 . S
C835 C836 1.516 . S
C836 C835 1.516 . S
C836 C837 1.502 1_554 S
C836 C838 1.561 . S
C836 C839 1.526 1_554 S
C837 H821 0.959 . S
C837 H822 0.959 . S
C837 H823 0.961 . S
C837 C836 1.502 1_556 S
C838 H824 0.960 . S
C838 H825 0.961 . S
C838 H826 0.959 . S
C838 C836 1.561 . S
C839 C836 1.526 1_556 S
C839 C840 1.396 . S
C839 C844 1.390 . S
C840 C834 1.465 1_556 S
C840 C839 1.396 . S
C840 C841 1.399 . S
C841 H827 0.929 . S
C841 C840 1.399 . S
C841 C842 1.385 . S
C842 H828 0.931 . S
C842 C841 1.385 . S
C842 C843 1.389 . S
C843 C842 1.389 . S
C843 C844 1.387 . S
C844 H829 0.930 . S
C844 C839 1.390 . S
C844 C843 1.387 . S
H845 C857 0.930 . S
H846 C859 0.930 . S
H847 C860 0.930 . S
H848 C864 0.959 . S
H849 C864 0.959 . S
H850 C864 0.961 . S
H851 C865 0.960 . S
H852 C865 0.961 . S
H853 C865 0.959 . S
H854 C868 0.929 . S
H855 C869 0.931 . S
H856 C871 0.930 . S
C857 H845 0.930 . S
C857 C858 1.399 . S
C857 C862 1.399 . S
C858 C857 1.399 . S
C858 C859 1.376 . S
C859 H846 0.930 . S
C859 C858 1.376 . S
C859 C860 1.388 . S
C860 H847 0.930 . S
C860 C859 1.388 . S
C860 C861 1.390 . S
C861 C860 1.390 . S
C861 C862 1.394 . S
C861 C867 1.465 . S
C862 C857 1.399 . S
C862 C861 1.394 . S
C862 C863 1.516 . S
C863 C862 1.516 . S
C863 C864 1.502 . S
C863 C865 1.561 . S
C863 C866 1.526 . S
C864 H848 0.959 . S
C864 H849 0.959 . S
C864 H850 0.961 . S
C864 C863 1.502 . S
C865 H851 0.960 . S
C865 H852 0.961 . S
C865 H853 0.959 . S
C865 C863 1.561 . S
C866 C863 1.526 . S
C866 C867 1.396 . S
C866 C871 1.390 . S
C867 C861 1.465 . S
C867 C866 1.396 . S
C867 C868 1.399 . S
C868 H854 0.929 . S
C868 C867 1.399 . S
C868 C869 1.385 . S
C869 H855 0.931 . S
C869 C868 1.385 . S
C869 C870 1.389 . S
C870 C869 1.389 . S
C870 C871 1.387 . S
C871 H856 0.930 . S
C871 C866 1.390 . S
C871 C870 1.387 . S
H872 C884 0.930 1_554 S
H873 C886 0.930 . S
H874 C887 0.930 . S
H875 C891 0.959 . S
H876 C891 0.959 . S
H877 C891 0.961 . S
H878 C892 0.960 . S
H879 C892 0.961 . S
H880 C892 0.959 . S
H881 C895 0.929 . S
H882 C896 0.931 . S
H883 C898 0.930 . S
C884 H872 0.930 1_556 S
C884 C885 1.399 . S
C884 C889 1.399 1_556 S
C885 C884 1.399 . S
C885 C886 1.376 . S
C886 H873 0.930 . S
C886 C885 1.376 . S
C886 C887 1.388 . S
C887 H874 0.930 . S
C887 C886 1.388 . S
C887 C888 1.390 . S
C888 C887 1.390 . S
C888 C889 1.394 1_556 S
C888 C894 1.465 . S
C889 C884 1.399 1_554 S
C889 C888 1.394 1_554 S
C889 C890 1.516 . S
C890 C889 1.516 . S
C890 C891 1.502 . S
C890 C892 1.561 . S
C890 C893 1.526 . S
C891 H875 0.959 . S
C891 H876 0.959 . S
C891 H877 0.961 . S
C891 C890 1.502 . S
C892 H878 0.960 . S
C892 H879 0.961 . S
C892 H880 0.959 . S
C892 C890 1.561 . S
C893 C890 1.526 . S
C893 C894 1.396 1_554 S
C893 C898 1.390 . S
C894 C888 1.465 . S
C894 C893 1.396 1_556 S
C894 C895 1.399 . S
C895 H881 0.929 . S
C895 C894 1.399 . S
C895 C896 1.385 . S
C896 H882 0.931 . S
C896 C895 1.385 . S
C896 C897 1.389 1_556 S
C897 C896 1.389 1_554 S
C897 C898 1.387 . S
C898 H883 0.930 . S
C898 C893 1.390 . S
C898 C897 1.387 . S
H899 C911 0.930 . S
H900 C913 0.930 . S
H901 C914 0.930 . S
H902 C918 0.959 . S
H903 C918 0.959 . S
H904 C918 0.961 . S
H905 C919 0.960 . S
H906 C919 0.961 . S
H907 C919 0.959 . S
H908 C922 0.929 . S
H909 C923 0.931 . S
H910 C925 0.930 . S
C911 H899 0.930 . S
C911 C912 1.399 . S
C911 C916 1.399 . S
C912 C911 1.399 . S
C912 C913 1.376 . S
C913 H900 0.930 . S
C913 C912 1.376 . S
C913 C914 1.388 . S
C914 H901 0.930 . S
C914 C913 1.388 . S
C914 C915 1.390 . S
C915 C914 1.390 . S
C915 C916 1.394 . S
C915 C921 1.465 . S
C916 C911 1.399 . S
C916 C915 1.394 . S
C916 C917 1.516 . S
C917 C916 1.516 . S
C917 C918 1.502 . S
C917 C919 1.561 . S
C917 C920 1.526 . S
C918 H902 0.959 . S
C918 H903 0.959 . S
C918 H904 0.961 . S
C918 C917 1.502 . S
C919 H905 0.960 . S
C919 H906 0.961 . S
C919 H907 0.959 . S
C919 C917 1.561 . S
C920 C917 1.526 . S
C920 C921 1.396 . S
C920 C925 1.390 . S
C921 C915 1.465 . S
C921 C920 1.396 . S
C921 C922 1.399 . S
C922 H908 0.929 . S
C922 C921 1.399 . S
C922 C923 1.385 . S
C923 H909 0.931 . S
C923 C922 1.385 . S
C923 C924 1.389 . S
C924 C923 1.389 . S
C924 C925 1.387 . S
C925 H910 0.930 . S
C925 C920 1.390 . S
C925 C924 1.387 . S
H926 C938 0.930 . S
H927 C940 0.930 1_556 S
H928 C941 0.930 . S
H929 C945 0.959 . S
H930 C945 0.959 . S
H931 C945 0.961 . S
H932 C946 0.960 . S
H933 C946 0.961 . S
H934 C946 0.959 . S
H935 C949 0.929 . S
H936 C950 0.931 . S
H937 C952 0.930 1_554 S
C938 H926 0.930 . S
C938 C939 1.399 . S
C938 C943 1.399 . S
C939 C938 1.399 . S
C939 C940 1.376 . S
C940 H927 0.930 1_554 S
C940 C939 1.376 . S
C940 C941 1.388 1_554 S
C941 H928 0.930 . S
C941 C940 1.388 1_556 S
C941 C942 1.390 . S
C942 C941 1.390 . S
C942 C943 1.394 1_556 S
C942 C948 1.465 . S
C943 C938 1.399 . S
C943 C942 1.394 1_554 S
C943 C944 1.516 . S
C944 C943 1.516 . S
C944 C945 1.502 . S
C944 C946 1.561 . S
C944 C947 1.526 . S
C945 H929 0.959 . S
C945 H930 0.959 . S
C945 H931 0.961 . S
C945 C944 1.502 . S
C946 H932 0.960 . S
C946 H933 0.961 . S
C946 H934 0.959 . S
C946 C944 1.561 . S
C947 C944 1.526 . S
C947 C948 1.396 1_554 S
C947 C952 1.390 1_554 S
C948 C942 1.465 . S
C948 C947 1.396 1_556 S
C948 C949 1.399 . S
C949 H935 0.929 . S
C949 C948 1.399 . S
C949 C950 1.385 . S
C950 H936 0.931 . S
C950 C949 1.385 . S
C950 C951 1.389 . S
C951 C950 1.389 . S
C951 C952 1.387 . S
C952 H937 0.930 1_556 S
C952 C947 1.390 1_556 S
C952 C951 1.387 . S
H953 C965 0.930 . S
H954 C967 0.930 . S
H955 C968 0.930 . S
H956 C972 0.959 . S
H957 C972 0.959 . S
H958 C972 0.961 . S
H959 C973 0.960 . S
H960 C973 0.961 . S
H961 C973 0.959 . S
H962 C976 0.929 . S
H963 C977 0.931 . S
H964 C979 0.930 . S
C965 H953 0.930 . S
C965 C966 1.399 . S
C965 C970 1.399 . S
C966 C965 1.399 . S
C966 C967 1.376 . S
C967 H954 0.930 . S
C967 C966 1.376 . S
C967 C968 1.388 . S
C968 H955 0.930 . S
C968 C967 1.388 . S
C968 C969 1.390 . S
C969 C968 1.390 . S
C969 C970 1.394 . S
C969 C975 1.465 . S
C970 C965 1.399 . S
C970 C969 1.394 . S
C970 C971 1.516 . S
C971 C970 1.516 . S
C971 C972 1.502 . S
C971 C973 1.561 . S
C971 C974 1.526 . S
C972 H956 0.959 . S
C972 H957 0.959 . S
C972 H958 0.961 . S
C972 C971 1.502 . S
C973 H959 0.960 . S
C973 H960 0.961 . S
C973 H961 0.959 . S
C973 C971 1.561 . S
C974 C971 1.526 . S
C974 C975 1.396 . S
C974 C979 1.390 . S
C975 C969 1.465 . S
C975 C974 1.396 . S
C975 C976 1.399 . S
C976 H962 0.929 . S
C976 C975 1.399 . S
C976 C977 1.385 . S
C977 H963 0.931 . S
C977 C976 1.385 . S
C977 C978 1.389 . S
C978 C977 1.389 . S
C978 C979 1.387 . S
C979 H964 0.930 . S
C979 C974 1.390 . S
C979 C978 1.387 . S
H980 C992 0.930 . S
H981 C994 0.930 . S
H982 C995 0.930 . S
H983 C999 0.959 . S
H984 C999 0.959 . S
H985 C999 0.961 . S
H986 C1000 0.960 . S
H987 C1000 0.961 . S
H988 C1000 0.959 . S
H989 C1003 0.929 . S
H990 C1004 0.931 . S
H991 C1006 0.910 1_556 S
C992 H980 0.930 . S
C992 C993 1.399 . S
C992 C997 1.399 . S
C993 C992 1.399 . S
C993 C994 1.376 1_556 S
C994 H981 0.930 . S
C994 C993 1.376 1_554 S
C994 C995 1.388 . S
C995 H982 0.930 . S
C995 C994 1.388 . S
C995 C996 1.390 . S
C996 C995 1.390 . S
C996 C997 1.394 1_554 S
C996 C1002 1.465 1_545 S
C997 C992 1.399 . S
C997 C996 1.394 1_556 S
C997 C998 1.516 1_545 S
C998 C997 1.516 1_565 S
C998 C999 1.502 . S
C998 C1000 1.561 . S
C998 C1001 1.526 . S
C999 H983 0.959 . S
C999 H984 0.959 . S
C999 H985 0.961 . S
C999 C998 1.502 . S
C1000 H986 0.960 . S
C1000 H987 0.961 . S
C1000 H988 0.959 . S
C1000 C998 1.561 . S
C1001 C998 1.526 . S
C1001 C1002 1.396 1_556 S
C1001 C1006 1.385 1_556 S
C1002 C996 1.465 1_565 S
C1002 C1001 1.396 1_554 S
C1002 C1003 1.399 . S
C1003 H989 0.929 . S
C1003 C1002 1.399 . S
C1003 C1004 1.385 . S
C1004 H990 0.931 . S
C1004 C1003 1.385 . S
C1004 C1005 1.389 . S
C1005 C1004 1.389 . S
C1005 C1006 1.412 . S
C1006 H991 0.910 1_554 S
C1006 C1001 1.385 1_554 S
C1006 C1005 1.412 . S
H1007 C1019 0.930 . S
H1008 C1021 0.930 . S
H1009 C1022 0.930 . S
H1010 C1026 0.959 . S
H1011 C1026 0.959 . S
H1012 C1026 0.961 1_565 S
H1013 C1027 0.960 . S
H1014 C1027 0.961 . S
H1015 C1027 0.959 . S
H1016 C1030 0.929 . S
H1017 C1031 0.931 . S
H1018 C1033 0.930 . S
C1019 H1007 0.930 . S
C1019 C1020 1.399 . S
C1019 C1024 1.399 . S
C1020 C1019 1.399 . S
C1020 C1021 1.376 . S
C1021 H1008 0.930 . S
C1021 C1020 1.376 . S
C1021 C1022 1.388 . S
C1022 H1009 0.930 . S
C1022 C1021 1.388 . S
C1022 C1023 1.390 . S
C1023 C1022 1.390 . S
C1023 C1024 1.394 . S
C1023 C1029 1.465 1_565 S
C1024 C1019 1.399 . S
C1024 C1023 1.394 . S
C1024 C1025 1.516 1_565 S
C1025 C1024 1.516 1_545 S
C1025 C1026 1.502 . S
C1025 C1027 1.561 . S
C1025 C1028 1.526 . S
C1026 H1010 0.959 . S
C1026 H1011 0.959 . S
C1026 H1012 0.961 1_545 S
C1026 C1025 1.502 . S
C1027 H1013 0.960 . S
C1027 H1014 0.961 . S
C1027 H1015 0.959 . S
C1027 C1025 1.561 . S
C1028 C1025 1.526 . S
C1028 C1029 1.396 . S
C1028 C1033 1.390 . S
C1029 C1023 1.465 1_545 S
C1029 C1028 1.396 . S
C1029 C1030 1.399 . S
C1030 H1016 0.929 . S
C1030 C1029 1.399 . S
C1030 C1031 1.385 . S
C1031 H1017 0.931 . S
C1031 C1030 1.385 . S
C1031 C1032 1.389 . S
C1032 C1031 1.389 . S
C1032 C1033 1.387 . S
C1033 H1018 0.930 . S
C1033 C1028 1.390 . S
C1033 C1032 1.387 . S
H1034 C1046 0.930 . S
H1035 C1048 0.930 1_556 S
H1036 C1049 0.930 . S
H1037 C1053 0.959 . S
H1038 C1053 0.959 . S
H1039 C1053 0.961 . S
H1040 C1054 0.960 . S
H1041 C1054 0.961 . S
H1042 C1054 0.959 . S
H1043 C1057 0.929 . S
H1044 C1058 0.931 . S
H1045 C1060 0.930 1_554 S
C1046 H1034 0.930 . S
C1046 C1047 1.399 . S
C1046 C1051 1.399 . S
C1047 C1046 1.399 . S
C1047 C1048 1.376 . S
C1048 H1035 0.930 1_554 S
C1048 C1047 1.376 . S
C1048 C1049 1.388 1_554 S
C1049 H1036 0.930 . S
C1049 C1048 1.388 1_556 S
C1049 C1050 1.390 . S
C1050 C1049 1.390 . S
C1050 C1051 1.394 1_556 S
C1050 C1056 1.465 1_565 S
C1051 C1046 1.399 . S
C1051 C1050 1.394 1_554 S
C1051 C1052 1.516 1_565 S
C1052 C1051 1.516 1_545 S
C1052 C1053 1.502 . S
C1052 C1054 1.561 . S
C1052 C1055 1.526 . S
C1053 H1037 0.959 . S
C1053 H1038 0.959 . S
C1053 H1039 0.961 . S
C1053 C1052 1.502 . S
C1054 H1040 0.960 . S
C1054 H1041 0.961 . S
C1054 H1042 0.959 . S
C1054 C1052 1.561 . S
C1055 C1052 1.526 . S
C1055 C1056 1.396 1_554 S
C1055 C1060 1.390 1_554 S
C1056 C1050 1.465 1_545 S
C1056 C1055 1.396 1_556 S
C1056 C1057 1.399 . S
C1057 H1043 0.929 . S
C1057 C1056 1.399 . S
C1057 C1058 1.385 . S
C1058 H1044 0.931 . S
C1058 C1057 1.385 . S
C1058 C1059 1.389 . S
C1059 C1058 1.389 . S
C1059 C1060 1.387 . S
C1060 H1045 0.930 1_556 S
C1060 C1055 1.390 1_556 S
C1060 C1059 1.387 . S
H1061 C1073 0.930 . S
H1062 C1075 0.930 . S
H1063 C1076 0.930 . S
H1064 C1080 0.959 . S
H1065 C1080 0.959 . S
H1066 C1080 0.961 . S
H1067 C1081 0.960 . S
H1068 C1081 0.961 . S
H1069 C1081 0.959 . S
H1070 C1084 0.929 . S
H1071 C1085 0.931 . S
H1072 C1087 0.930 . S
C1073 H1061 0.930 . S
C1073 C1074 1.399 . S
C1073 C1078 1.399 . S
C1074 C1073 1.399 . S
C1074 C1075 1.376 . S
C1075 H1062 0.930 . S
C1075 C1074 1.376 . S
C1075 C1076 1.388 . S
C1076 H1063 0.930 . S
C1076 C1075 1.388 . S
C1076 C1077 1.390 . S
C1077 C1076 1.390 . S
C1077 C1078 1.394 . S
C1077 C1083 1.465 1_545 S
C1078 C1073 1.399 . S
C1078 C1077 1.394 . S
C1078 C1079 1.516 . S
C1079 C1078 1.516 . S
C1079 C1080 1.502 . S
C1079 C1081 1.561 . S
C1079 C1082 1.526 1_545 S
C1080 H1064 0.959 . S
C1080 H1065 0.959 . S
C1080 H1066 0.961 . S
C1080 C1079 1.502 . S
C1081 H1067 0.960 . S
C1081 H1068 0.961 . S
C1081 H1069 0.959 . S
C1081 C1079 1.561 . S
C1082 C1079 1.526 1_565 S
C1082 C1083 1.396 . S
C1082 C1087 1.390 . S
C1083 C1077 1.465 1_565 S
C1083 C1082 1.396 . S
C1083 C1084 1.399 . S
C1084 H1070 0.929 . S
C1084 C1083 1.399 . S
C1084 C1085 1.385 . S
C1085 H1071 0.931 . S
C1085 C1084 1.385 . S
C1085 C1086 1.389 . S
C1086 C1085 1.389 . S
C1086 C1087 1.387 . S
C1087 H1072 0.930 . S
C1087 C1082 1.390 . S
C1087 C1086 1.387 . S
C237 C9 1.422 . S
C249 C93 1.479 . S
C264 C23 1.483 . S
C276 C107 1.493 . S
C291 C65 1.503 . S
C303 C37 1.456 . S
C318 C79 1.452 . S
C330 C51 1.437 . S
C345 C205 1.503 . S
C357 C121 1.456 . S
C372 C219 1.458 . S
C384 C135 1.431 . S
C399 C149 1.487 . S
C411 C177 1.452 . S
C426 C163 1.423 . S
C438 C191 1.481 . S
C453 C8 1.585 . S
C465 C77 1.534 . S
C480 C22 1.587 . S
C492 C63 1.524 . S
C507 C36 1.586 . S
C519 C105 1.566 . S
C534 C91 1.510 . S
C546 C50 1.592 . S
C561 C189 1.513 . S
C573 C120 1.592 . S
C588 C175 1.511 . S
C600 C134 1.592 . S
C615 C148 1.587 . S
C627 C217 1.523 . S
C642 C203 1.573 . S
C654 C162 1.582 . S
C669 C174 1.519 . S
C681 C6 1.558 . S
C696 C20 1.546 . S
C708 C188 1.529 . S
C723 C202 1.550 . S
C735 C34 1.535 . S
C750 C216 1.517 . S
C762 C48 1.560 . S
C777 C118 1.573 . S
C789 C62 1.495 . S
C804 C132 1.534 . S
C816 C76 1.551 . S
C831 C90 1.554 . S
C843 C146 1.528 . S
C858 C104 1.528 . S
C870 C160 1.546 . S
C885 C35 1.099 . S
C897 C7 1.173 . S
C912 C21 1.185 . S
C924 C49 1.087 . S
C939 C92 1.954 . S
C951 C64 1.966 . S
C966 C78 1.956 . S
C978 C106 1.954 . S
C993 C147 1.176 . S
C1005 C119 1.090 . S
C1020 C161 1.152 . S
C1032 C133 1.113 . S
C1047 C204 1.954 . S
C1059 C176 1.966 . S
C1074 C218 1.963 . S
C1086 C190 1.951 . S
