# Generated by pormake.
# Topology pcb, (4)-cn, num edge types: 1
# Building blocks:
#     Node 0, Type 0, BuildingBlock: AZAVOO_clean_sbu_0, # of connection points: 4
#     Node 1, Type 0, BuildingBlock: AZAVOO_clean_sbu_0, # of connection points: 4
#     Node 2, Type 0, BuildingBlock: AZAVOO_clean_sbu_0, # of connection points: 4
#     Node 3, Type 0, BuildingBlock: AZAVOO_clean_sbu_0, # of connection points: 4
#     Node 4, Type 0, BuildingBlock: AZAVOO_clean_sbu_0, # of connection points: 4
#     Node 5, Type 0, BuildingBlock: AZAVOO_clean_sbu_0, # of connection points: 4
#     Node 6, Type 0, BuildingBlock: AZAVOO_clean_sbu_0, # of connection points: 4
#     Node 7, Type 0, BuildingBlock: AZAVOO_clean_sbu_0, # of connection points: 4
#     Node 8, Type 0, BuildingBlock: AZAVOO_clean_sbu_0, # of connection points: 4
#     Node 9, Type 0, BuildingBlock: AZAVOO_clean_sbu_0, # of connection points: 4
#     Node 10, Type 0, BuildingBlock: AZAVOO_clean_sbu_0, # of connection points: 4
#     Node 11, Type 0, BuildingBlock: AZAVOO_clean_sbu_0, # of connection points: 4
#     Node 12, Type 0, BuildingBlock: AZAVOO_clean_sbu_0, # of connection points: 4
#     Node 13, Type 0, BuildingBlock: AZAVOO_clean_sbu_0, # of connection points: 4
#     Node 14, Type 0, BuildingBlock: AZAVOO_clean_sbu_0, # of connection points: 4
#     Node 15, Type 0, BuildingBlock: AZAVOO_clean_sbu_0, # of connection points: 4
#     Edge 16, Type (0, 0), BuildingBlock: CIFDUS_clean_linker_0, # of connection points: 2
#     Edge 17, Type (0, 0), BuildingBlock: CIFDUS_clean_linker_0, # of connection points: 2
#     Edge 18, Type (0, 0), BuildingBlock: CIFDUS_clean_linker_0, # of connection points: 2
#     Edge 19, Type (0, 0), BuildingBlock: CIFDUS_clean_linker_0, # of connection points: 2
#     Edge 20, Type (0, 0), BuildingBlock: CIFDUS_clean_linker_0, # of connection points: 2
#     Edge 21, Type (0, 0), BuildingBlock: CIFDUS_clean_linker_0, # of connection points: 2
#     Edge 22, Type (0, 0), BuildingBlock: CIFDUS_clean_linker_0, # of connection points: 2
#     Edge 23, Type (0, 0), BuildingBlock: CIFDUS_clean_linker_0, # of connection points: 2
#     Edge 24, Type (0, 0), BuildingBlock: CIFDUS_clean_linker_0, # of connection points: 2
#     Edge 25, Type (0, 0), BuildingBlock: CIFDUS_clean_linker_0, # of connection points: 2
#     Edge 26, Type (0, 0), BuildingBlock: CIFDUS_clean_linker_0, # of connection points: 2
#     Edge 27, Type (0, 0), BuildingBlock: CIFDUS_clean_linker_0, # of connection points: 2
#     Edge 28, Type (0, 0), BuildingBlock: CIFDUS_clean_linker_0, # of connection points: 2
#     Edge 29, Type (0, 0), BuildingBlock: CIFDUS_clean_linker_0, # of connection points: 2
#     Edge 30, Type (0, 0), BuildingBlock: CIFDUS_clean_linker_0, # of connection points: 2
#     Edge 31, Type (0, 0), BuildingBlock: CIFDUS_clean_linker_0, # of connection points: 2
#     Edge 32, Type (0, 0), BuildingBlock: CIFDUS_clean_linker_0, # of connection points: 2
#     Edge 33, Type (0, 0), BuildingBlock: CIFDUS_clean_linker_0, # of connection points: 2
#     Edge 34, Type (0, 0), BuildingBlock: CIFDUS_clean_linker_0, # of connection points: 2
#     Edge 35, Type (0, 0), BuildingBlock: CIFDUS_clean_linker_0, # of connection points: 2
#     Edge 36, Type (0, 0), BuildingBlock: CIFDUS_clean_linker_0, # of connection points: 2
#     Edge 37, Type (0, 0), BuildingBlock: CIFDUS_clean_linker_0, # of connection points: 2
#     Edge 38, Type (0, 0), BuildingBlock: CIFDUS_clean_linker_0, # of connection points: 2
#     Edge 39, Type (0, 0), BuildingBlock: CIFDUS_clean_linker_0, # of connection points: 2
#     Edge 40, Type (0, 0), BuildingBlock: CIFDUS_clean_linker_0, # of connection points: 2
#     Edge 41, Type (0, 0), BuildingBlock: CIFDUS_clean_linker_0, # of connection points: 2
#     Edge 42, Type (0, 0), BuildingBlock: CIFDUS_clean_linker_0, # of connection points: 2
#     Edge 43, Type (0, 0), BuildingBlock: CIFDUS_clean_linker_0, # of connection points: 2
#     Edge 44, Type (0, 0), BuildingBlock: CIFDUS_clean_linker_0, # of connection points: 2
#     Edge 45, Type (0, 0), BuildingBlock: CIFDUS_clean_linker_0, # of connection points: 2
#     Edge 46, Type (0, 0), BuildingBlock: CIFDUS_clean_linker_0, # of connection points: 2
#     Edge 47, Type (0, 0), BuildingBlock: CIFDUS_clean_linker_0, # of connection points: 2
# Relax obj value: 0.185
# Max RMSD: 0.082
# Mean RMSD: 0.077
data_MOF--net-pcb--node1-AZAVOO_clean_sbu_0--edge1-CIFDUS_clean_linker_0
_symmetry_space_group_name_H-M    P1
_symmetry_Int_Tables_number       1
_symmetry_cell_setting            triclinic
loop_
_symmetry_equiv_pos_as_xyz
'x, y, z'
_cell_length_a     40.873478
_cell_length_b     41.104631
_cell_length_c     41.608107
_cell_angle_alpha  90.885619
_cell_angle_beta   90.693247
_cell_angle_gamma 90.158196
loop_
_atom_site_label
_atom_site_type_symbol
_atom_site_fract_x
_atom_site_fract_y
_atom_site_fract_z
_atom_type_partial_charge
Mg0 Mg 0.18915 0.11854 0.14371 0.0
O1 O 0.14211 0.14879 0.1391 0.0
O2 O 0.11521 0.13286 0.09451 0.0
Mg3 Mg 0.14307 0.09054 0.07222 0.0
C4 C 0.11786 0.15097 0.11959 0.0
C5 C 0.2055 0.17125 0.19368 0.0
O6 O 0.2018 0.18782 0.16714 0.0
O7 O 0.15789 0.07704 0.16323 0.0
O8 O 0.13158 0.06246 0.11769 0.0
O9 O 0.21614 0.15131 0.11019 0.0
O10 O 0.1883 0.1075 0.09518 0.0
C11 C 0.13709 0.05928 0.14778 0.0
C12 C 0.20521 0.13241 0.08733 0.0
O13 O 0.19955 0.14088 0.19298 0.0
Mg14 Mg 0.87728 0.16213 0.15758 0.0
O15 O 0.87427 0.15376 0.10149 0.0
O16 O 0.918 0.12208 0.09293 0.0
Mg17 Mg 0.94609 0.1086 0.13842 0.0
C18 C 0.89329 0.13795 0.08251 0.0
C19 C 0.83249 0.21025 0.18554 0.0
O20 O 0.86196 0.21368 0.19813 0.0
O21 O 0.85604 0.11035 0.16485 0.0
O22 O 0.90116 0.08089 0.15585 0.0
O23 O 0.91169 0.2043 0.14993 0.0
O24 O 0.92727 0.1537 0.15776 0.0
C25 C 0.87119 0.08309 0.16388 0.0
C26 C 0.93489 0.18309 0.1511 0.0
O27 O 0.82812 0.18839 0.16371 0.0
Mg28 Mg 0.79111 0.83243 0.12658 0.0
O29 O 0.84755 0.82797 0.11878 0.0
O30 O 0.85494 0.85285 0.07198 0.0
Mg31 Mg 0.80725 0.87188 0.04989 0.0
C32 C 0.86623 0.83762 0.09627 0.0
C33 C 0.79402 0.78378 0.18347 0.0
O34 O 0.80052 0.76412 0.15922 0.0
O35 O 0.79777 0.88691 0.1409 0.0
O36 O 0.80254 0.90827 0.0919 0.0
O37 O 0.78199 0.7864 0.09752 0.0
O38 O 0.78179 0.83545 0.07719 0.0
C39 C 0.80005 0.91142 0.12237 0.0
C40 C 0.77967 0.8046 0.07255 0.0
O41 O 0.79304 0.81433 0.17861 0.0
Mg42 Mg 0.13401 0.82541 0.1623 0.0
O43 O 0.07775 0.81757 0.15147 0.0
O44 O 0.066 0.85861 0.11828 0.0
Mg45 Mg 0.10876 0.89323 0.1113 0.0
C46 C 0.0576 0.83316 0.13344 0.0
C47 C 0.16776 0.77999 0.20482 0.0
O48 O 0.1791 0.80965 0.20959 0.0
O49 O 0.14831 0.80876 0.11088 0.0
O50 O 0.13588 0.85356 0.08325 0.0
O51 O 0.12398 0.85732 0.20595 0.0
O52 O 0.12775 0.87433 0.15614 0.0
C53 C 0.14785 0.82499 0.08486 0.0
C54 C 0.12257 0.88094 0.18585 0.0
O55 O 0.14463 0.7758 0.18429 0.0
Mg56 Mg 0.16868 0.81493 0.83678 0.0
O57 O 0.16755 0.87295 0.83584 0.0
O58 O 0.12457 0.88855 0.86561 0.0
Mg59 Mg 0.11958 0.84834 0.90139 0.0
C60 C 0.14689 0.89462 0.84526 0.0
C61 C 0.20628 0.82434 0.77334 0.0
O62 O 0.1808 0.8434 0.76961 0.0
O63 O 0.20192 0.80955 0.88227 0.0
O64 O 0.17458 0.85103 0.89888 0.0
O65 O 0.12248 0.81404 0.80661 0.0
O66 O 0.12273 0.81445 0.85961 0.0
C67 C 0.19234 0.82699 0.9058 0.0
C68 C 0.10624 0.81486 0.83311 0.0
O69 O 0.21049 0.81076 0.80033 0.0
Mg70 Mg 0.14872 0.16213 0.84849 0.0
O71 O 0.14466 0.10603 0.83943 0.0
O72 O 0.11233 0.09014 0.87957 0.0
Mg73 Mg 0.10105 0.13129 0.91526 0.0
C74 C 0.12858 0.08405 0.85412 0.0
C75 C 0.18579 0.20095 0.80626 0.0
O76 O 0.18082 0.21547 0.83414 0.0
O77 O 0.09523 0.16868 0.83128 0.0
O78 O 0.06945 0.15495 0.87641 0.0
O79 O 0.19405 0.15593 0.87855 0.0
O80 O 0.14359 0.15573 0.89702 0.0
C81 C 0.06926 0.16628 0.848 0.0
C82 C 0.17437 0.15239 0.90228 0.0
O83 O 0.17162 0.17377 0.80062 0.0
Mg84 Mg 0.81674 0.10622 0.82312 0.0
O85 O 0.82538 0.11847 0.8779 0.0
O86 O 0.86518 0.08365 0.89189 0.0
Mg87 Mg 0.87796 0.04748 0.85176 0.0
C88 C 0.84585 0.10717 0.89856 0.0
C89 C 0.76394 0.1487 0.79253 0.0
O90 O 0.75576 0.11869 0.78451 0.0
O91 O 0.86662 0.12992 0.81157 0.0
O92 O 0.90068 0.08937 0.82454 0.0
O93 O 0.77778 0.06829 0.83415 0.0
O94 O 0.8306 0.05881 0.83153 0.0
C95 C 0.89514 0.11714 0.81236 0.0
C96 C 0.80186 0.04822 0.83735 0.0
O97 O 0.78853 0.15317 0.81127 0.0
Mg98 Mg 0.84085 0.79552 0.84449 0.0
O99 O 0.83253 0.8487 0.86004 0.0
O100 O 0.84317 0.85389 0.91273 0.0
Mg101 Mg 0.85877 0.80401 0.93124 0.0
C102 C 0.83429 0.86584 0.88587 0.0
C103 C 0.82322 0.80554 0.76705 0.0
O104 O 0.83258 0.81598 0.73893 0.0
O105 O 0.89684 0.80331 0.84729 0.0
O106 O 0.90424 0.80723 0.9005 0.0
O107 O 0.78888 0.78511 0.86062 0.0
O108 O 0.83271 0.77993 0.89121 0.0
C109 C 0.91549 0.80703 0.87202 0.0
C110 C 0.80154 0.77951 0.88858 0.0
O111 O 0.84139 0.81136 0.79157 0.0
Mg112 Mg 0.6636 0.67087 0.67264 0.0
O113 O 0.61257 0.68318 0.65238 0.0
O114 O 0.60682 0.66344 0.60241 0.0
Mg115 Mg 0.65322 0.63424 0.59208 0.0
C116 C 0.59583 0.67943 0.62647 0.0
C117 C 0.65703 0.70513 0.74542 0.0
O118 O 0.6382 0.71011 0.77039 0.0
O119 O 0.6465 0.61879 0.68295 0.0
O120 O 0.63958 0.5999 0.63254 0.0
O121 O 0.68374 0.71426 0.64622 0.0
O122 O 0.68181 0.66417 0.62646 0.0
C123 C 0.63804 0.59631 0.66293 0.0
C124 C 0.68847 0.69425 0.62239 0.0
O125 O 0.64551 0.68812 0.72202 0.0
Mg126 Mg 0.35326 0.69329 0.6476 0.0
O127 O 0.37076 0.67194 0.59945 0.0
O128 O 0.41564 0.6423 0.6077 0.0
Mg129 Mg 0.42649 0.64373 0.6622 0.0
C130 C 0.39378 0.65394 0.58892 0.0
C131 C 0.28299 0.72767 0.62673 0.0
O132 O 0.26088 0.73167 0.60395 0.0
O133 O 0.33251 0.64261 0.65911 0.0
O134 O 0.37895 0.61562 0.66933 0.0
O135 O 0.38869 0.73481 0.64119 0.0
O136 O 0.40024 0.68976 0.66721 0.0
C137 C 0.34777 0.61684 0.66745 0.0
C138 C 0.40999 0.7168 0.65569 0.0
O139 O 0.30652 0.70823 0.62113 0.0
Mg140 Mg 0.31945 0.35117 0.65473 0.0
O141 O 0.37642 0.34725 0.65404 0.0
O142 O 0.39075 0.37323 0.60937 0.0
Mg143 Mg 0.34603 0.39216 0.58186 0.0
C144 C 0.3982 0.35735 0.6346 0.0
C145 C 0.31664 0.30153 0.70808 0.0
O146 O 0.32875 0.28442 0.68415 0.0
O147 O 0.32366 0.40479 0.67068 0.0
O148 O 0.33438 0.42763 0.62333 0.0
O149 O 0.31328 0.30549 0.62479 0.0
O150 O 0.31794 0.35482 0.60523 0.0
C151 C 0.32761 0.42979 0.65319 0.0
C152 C 0.31572 0.32404 0.60022 0.0
O153 O 0.31506 0.3323 0.70563 0.0
Mg154 Mg 0.66815 0.35743 0.66396 0.0
O155 O 0.61189 0.35005 0.65408 0.0
O156 O 0.59968 0.39189 0.62191 0.0
Mg157 Mg 0.64222 0.42717 0.61553 0.0
C158 C 0.59161 0.36602 0.63657 0.0
C159 C 0.70287 0.31045 0.70459 0.0
O160 O 0.71647 0.33942 0.70707 0.0
O161 O 0.67939 0.34145 0.61109 0.0
O162 O 0.66804 0.3881 0.58602 0.0
O163 O 0.65857 0.38891 0.70842 0.0
O164 O 0.66201 0.40678 0.659 0.0
C165 C 0.6792 0.35915 0.58595 0.0
C166 C 0.6564 0.4128 0.6887 0.0
O167 O 0.67824 0.30703 0.68568 0.0
Mg168 Mg 0.65944 0.35004 0.32715 0.0
O169 O 0.66066 0.40694 0.33735 0.0
O170 O 0.6139 0.41348 0.36424 0.0
Mg171 Mg 0.58334 0.36749 0.36986 0.0
C172 C 0.64008 0.42515 0.35237 0.0
C173 C 0.70777 0.31876 0.28737 0.0
O174 O 0.67844 0.30601 0.2835 0.0
O175 O 0.67298 0.34013 0.38075 0.0
O176 O 0.62323 0.34623 0.40212 0.0
O177 O 0.63044 0.35605 0.28041 0.0
O178 O 0.60929 0.35046 0.32838 0.0
C179 C 0.65332 0.33824 0.40447 0.0
C180 C 0.60491 0.3548 0.29827 0.0
O181 O 0.71126 0.34235 0.30752 0.0
Mg182 Mg 0.65043 0.69366 0.37508 0.0
O183 O 0.649 0.63634 0.37674 0.0
O184 O 0.60931 0.62856 0.41241 0.0
Mg185 Mg 0.58992 0.6749 0.43651 0.0
C186 C 0.62994 0.6174 0.39218 0.0
C187 C 0.70574 0.68204 0.31974 0.0
O188 O 0.71573 0.65637 0.33546 0.0
O189 O 0.60095 0.69236 0.34722 0.0
O190 O 0.56633 0.68724 0.38832 0.0
O191 O 0.68751 0.69896 0.41664 0.0
O192 O 0.63425 0.69821 0.42169 0.0
C193 C 0.57197 0.69189 0.35863 0.0
C194 C 0.6624 0.70077 0.43521 0.0
O195 O 0.6807 0.69758 0.32921 0.0
Mg196 Mg 0.33101 0.61087 0.32816 0.0
O197 O 0.34417 0.62266 0.3818 0.0
O198 O 0.37945 0.58373 0.39633 0.0
Mg199 Mg 0.3878 0.54761 0.35485 0.0
C200 C 0.36305 0.60944 0.40271 0.0
C201 C 0.2809 0.65451 0.29962 0.0
O202 O 0.2745 0.62462 0.28975 0.0
O203 O 0.3817 0.63049 0.31371 0.0
O204 O 0.41312 0.58828 0.3276 0.0
O205 O 0.28988 0.5783 0.34389 0.0
O206 O 0.3407 0.56236 0.33566 0.0
C207 C 0.40944 0.61612 0.31484 0.0
C208 C 0.31174 0.55569 0.34513 0.0
O209 O 0.30512 0.65917 0.31877 0.0
Mg210 Mg 0.37018 0.30194 0.3607 0.0
O211 O 0.34327 0.35075 0.36646 0.0
O212 O 0.36796 0.37988 0.40553 0.0
Mg213 Mg 0.41292 0.35203 0.42185 0.0
C214 C 0.34545 0.37629 0.38426 0.0
C215 C 0.32225 0.26324 0.31952 0.0
O216 O 0.32637 0.24578 0.34542 0.0
O217 O 0.40907 0.32807 0.33122 0.0
O218 O 0.43225 0.35777 0.37098 0.0
O219 O 0.34235 0.28112 0.40169 0.0
O220 O 0.38992 0.30625 0.40678 0.0
C221 C 0.42984 0.34929 0.34137 0.0
C222 C 0.36547 0.29251 0.42016 0.0
O223 O 0.33836 0.28956 0.31705 0.0
H224 H 0.28432 0.2091 0.3194 0.0
H225 H 0.30827 0.29253 0.26232 0.0
H226 H 0.27151 0.27279 0.2195 0.0
H227 H 0.23526 0.23029 0.19717 0.0
H228 H 0.21294 0.146 0.25366 0.0
H229 H 0.24609 0.16801 0.29816 0.0
C230 C 0.28147 0.22308 0.29765 0.0
C231 C 0.29925 0.2521 0.29394 0.0
C232 C 0.26052 0.2115 0.27312 0.0
C233 C 0.29504 0.27 0.2657 0.0
C234 C 0.27399 0.25875 0.24123 0.0
C235 C 0.23726 0.21691 0.21936 0.0
C236 C 0.22178 0.18646 0.22204 0.0
C237 C 0.25694 0.22933 0.24454 0.0
C238 C 0.22471 0.16942 0.25094 0.0
C239 C 0.24375 0.18193 0.27634 0.0
H240 H 0.70349 0.27479 0.23836 0.0
H241 H 0.77392 0.32999 0.29507 0.0
H242 H 0.81861 0.30229 0.26703 0.0
H243 H 0.83732 0.26041 0.22864 0.0
H244 H 0.76662 0.20491 0.17249 0.0
H245 H 0.72215 0.23505 0.19813 0.0
C246 C 0.7286 0.28096 0.24461 0.0
C247 C 0.73532 0.30432 0.26908 0.0
C248 C 0.75402 0.26484 0.22854 0.0
C249 C 0.76804 0.31214 0.27645 0.0
C250 C 0.79356 0.29622 0.26046 0.0
C251 C 0.81219 0.25495 0.2218 0.0
C252 C 0.80534 0.23017 0.19875 0.0
C253 C 0.7868 0.27222 0.23681 0.0
C254 C 0.77262 0.22374 0.19011 0.0
C255 C 0.7472 0.24092 0.20485 0.0
H256 H 0.79388 0.72034 0.20207 0.0
H257 H 0.76328 0.81643 0.23221 0.0
H258 H 0.73318 0.79319 0.27666 0.0
H259 H 0.71253 0.74551 0.3049 0.0
H260 H 0.74467 0.64949 0.27687 0.0
H261 H 0.77698 0.67274 0.23347 0.0
C262 C 0.781 0.73627 0.21861 0.0
C263 C 0.7807 0.77014 0.21354 0.0
C264 C 0.76358 0.7227 0.24418 0.0
C265 C 0.76403 0.79034 0.23542 0.0
C266 C 0.74656 0.77703 0.26076 0.0
C267 C 0.72652 0.72964 0.28921 0.0
C268 C 0.72573 0.69575 0.29367 0.0
C269 C 0.74557 0.74324 0.26492 0.0
C270 C 0.74466 0.6756 0.27372 0.0
C271 C 0.76316 0.68891 0.24897 0.0
H272 H 0.22824 0.65045 0.25927 0.0
H273 H 0.28911 0.71993 0.31115 0.0
H274 H 0.25825 0.76463 0.28738 0.0
H275 H 0.21577 0.78383 0.25026 0.0
H276 H 0.15535 0.71452 0.19767 0.0
H277 H 0.18429 0.66972 0.22361 0.0
C278 C 0.23473 0.67535 0.26555 0.0
C279 C 0.26114 0.68179 0.28689 0.0
C280 C 0.21703 0.7009 0.25163 0.0
C281 C 0.26901 0.71425 0.2948 0.0
C282 C 0.25139 0.73981 0.28116 0.0
C283 C 0.20874 0.75894 0.2445 0.0
C284 C 0.18347 0.75257 0.22186 0.0
C285 C 0.22562 0.7334 0.25929 0.0
C286 C 0.17468 0.72014 0.21493 0.0
C287 C 0.19128 0.69453 0.22971 0.0
H288 H 0.25486 0.78605 0.63551 0.0
H289 H 0.30177 0.70883 0.68744 0.0
H290 H 0.2852 0.73413 0.7386 0.0
H291 H 0.25117 0.77477 0.76779 0.0
H292 H 0.20455 0.85138 0.71424 0.0
H293 H 0.22752 0.82996 0.66463 0.0
C294 C 0.26192 0.775 0.65806 0.0
C295 C 0.27915 0.74544 0.65772 0.0
C296 C 0.25209 0.78947 0.68711 0.0
C297 C 0.28855 0.73163 0.68709 0.0
C298 C 0.27884 0.74598 0.71631 0.0
C299 C 0.24658 0.78714 0.74537 0.0
C300 C 0.22565 0.81443 0.7448 0.0
C301 C 0.25969 0.77441 0.71656 0.0
C302 C 0.22016 0.83018 0.71547 0.0
C303 C 0.23326 0.8179 0.68698 0.0
H304 H 0.21776 0.25823 0.81362 0.0
H305 H 0.2088 0.1748 0.74974 0.0
H306 H 0.2513 0.19733 0.71546 0.0
H307 H 0.28981 0.24129 0.70321 0.0
H308 H 0.29682 0.32557 0.76616 0.0
H309 H 0.25663 0.30155 0.80193 0.0
C310 C 0.22499 0.2449 0.79217 0.0
C311 C 0.21001 0.2149 0.78417 0.0
C312 C 0.24936 0.25792 0.77276 0.0
C313 C 0.21976 0.19803 0.75631 0.0
C314 C 0.24419 0.21081 0.73684 0.0
C315 C 0.28301 0.25418 0.72506 0.0
C316 C 0.29645 0.28511 0.73219 0.0
C317 C 0.25913 0.24072 0.74487 0.0
C318 C 0.28693 0.3017 0.76028 0.0
C319 C 0.26382 0.28808 0.78057 0.0
H320 H 0.78181 0.21286 0.79238 0.0
H321 H 0.70749 0.14635 0.75683 0.0
H322 H 0.68159 0.19003 0.72679 0.0
H323 H 0.68108 0.2471 0.70866 0.0
H324 H 0.75618 0.31294 0.74415 0.0
H325 H 0.78041 0.26983 0.77572 0.0
C326 C 0.75975 0.20798 0.77836 0.0
C327 C 0.74675 0.17628 0.77693 0.0
C328 C 0.74511 0.23317 0.76072 0.0
C329 C 0.71819 0.17047 0.75839 0.0
C330 C 0.70333 0.19546 0.74107 0.0
C331 C 0.7027 0.25199 0.72333 0.0
C332 C 0.71671 0.28333 0.72377 0.0
C333 C 0.71678 0.22688 0.74168 0.0
C334 C 0.74474 0.28915 0.74311 0.0
C335 C 0.75873 0.26445 0.76132 0.0
H336 H 0.80157 0.75718 0.72751 0.0
H337 H 0.77458 0.81587 0.80951 0.0
H338 H 0.721 0.789 0.8107 0.0
H339 H 0.68136 0.75063 0.7869 0.0
H340 H 0.70801 0.69194 0.70446 0.0
H341 H 0.76203 0.71742 0.70441 0.0
C342 C 0.784 0.76369 0.74583 0.0
C343 C 0.79218 0.78752 0.7692 0.0
C344 C 0.75311 0.7486 0.74583 0.0
C345 C 0.76919 0.79643 0.79237 0.0
C346 C 0.73845 0.78148 0.79266 0.0
C347 C 0.69895 0.74325 0.76891 0.0
C348 C 0.69026 0.71978 0.74526 0.0
C349 C 0.7301 0.75769 0.76937 0.0
C350 C 0.71355 0.71052 0.72234 0.0
C351 C 0.74463 0.72489 0.72252 0.0
H352 H 0.20204 0.19031 0.94833 0.0
H353 H 0.17106 0.09216 0.92619 0.0
H354 H 0.18229 0.07631 0.98171 0.0
H355 H 0.19524 0.09185 0.03702 0.0
H356 H 0.22201 0.19095 0.06108 0.0
H357 H 0.21894 0.20507 0.00407 0.0
C358 C 0.19852 0.16536 0.95576 0.0
C359 C 0.1861 0.14219 0.93371 0.0
C360 C 0.20402 0.15683 0.98787 0.0
C361 C 0.18091 0.11007 0.9431 0.0
C362 C 0.18717 0.10114 0.97472 0.0
C363 C 0.20053 0.11655 0.02983 0.0
C364 C 0.20816 0.14052 0.05315 0.0
C365 C 0.1978 0.12455 -0.00257 0.0
C366 C 0.21584 0.17217 0.04347 0.0
C367 C 0.21393 0.18025 0.01096 0.0
H368 H 0.90078 0.11654 0.93311 0.0
H369 H 0.79633 0.12816 0.93847 0.0
H370 H 0.80137 0.14169 0.9962 0.0
H371 H 0.8359 0.14448 0.04655 0.0
H372 H 0.94044 0.13229 0.03826 0.0
H373 H 0.93491 0.12498 0.98058 0.0
C374 C 0.87909 0.12244 0.94681 0.0
C375 C 0.84823 0.12103 0.93167 0.0
C376 C 0.88222 0.12982 0.9797 0.0
C377 C 0.82041 0.12918 0.94959 0.0
C378 C 0.82331 0.13665 0.98266 0.0
C379 C 0.85741 0.14073 0.03199 0.0
C380 C 0.88848 0.13828 0.04698 0.0
C381 C 0.85411 0.13623 -0.00176 0.0
C382 C 0.91614 0.13357 0.02764 0.0
C383 C 0.91309 0.12946 0.99451 0.0
H384 H 0.80723 0.73958 0.93856 0.0
H385 H 0.75655 0.82488 0.90596 0.0
H386 H 0.74252 0.83916 0.96151 0.0
H387 H 0.75317 0.832 0.01954 0.0
H388 H 0.80368 0.74629 0.05185 0.0
H389 H 0.80926 0.7273 0.99618 0.0
C390 C 0.79193 0.76054 0.94362 0.0
C391 C 0.78274 0.78111 0.91843 0.0
C392 C 0.78475 0.7689 0.97555 0.0
C393 C 0.76331 0.80842 0.92501 0.0
C394 C 0.75584 0.81686 0.9568 0.0
C395 C 0.76492 0.80891 0.01434 0.0
C396 C 0.77857 0.79081 0.03959 0.0
C397 C 0.76778 0.79807 0.98231 0.0
C398 C 0.7932 0.76069 0.03275 0.0
C399 C 0.79643 0.74988 0.00095 0.0
H400 H 0.12249 0.79346 0.03249 0.0
H401 H 0.21164 0.83359 0.07261 0.0
H402 H 0.23663 0.83277 0.01948 0.0
H403 H 0.22872 0.83087 0.96049 0.0
H404 H 0.13979 0.79016 0.92037 0.0
H405 H 0.11924 0.78029 0.97432 0.0
C406 C 0.14786 0.80057 0.02968 0.0
C407 C 0.1654 0.81325 0.05628 0.0
C408 C 0.16187 0.80045 -0.00109 0.0
C409 C 0.19797 0.82322 0.05244 0.0
C410 C 0.21211 0.82312 0.022 0.0
C411 C 0.20548 0.81858 0.96368 0.0
C412 C 0.18572 0.81129 0.93668 0.0
C413 C 0.19374 0.81324 0.99485 0.0
C414 C 0.15541 0.79584 0.94092 0.0
C415 C 0.14356 0.79045 0.97177 0.0
H416 H 0.06739 0.17089 0.0816 0.0
H417 H 0.10277 0.1732 0.1798 0.0
H418 H 0.04868 0.1891 0.19831 0.0
H419 H 0.98927 0.19123 0.18736 0.0
H420 H 0.95376 0.1883 0.08953 0.0
H421 H 0.00988 0.1839 0.06996 0.0
C422 C 0.06349 0.17574 0.10697 0.0
C423 C 0.08888 0.17008 0.12933 0.0
C424 C 0.03214 0.18428 0.11753 0.0
C425 C 0.08362 0.17707 0.16205 0.0
C426 C 0.05257 0.1859 0.17273 0.0
C427 C 0.99411 0.19084 0.16177 0.0
C428 C 0.96786 0.19018 0.13978 0.0
C429 C 0.02634 0.18792 0.15084 0.0
C430 C 0.97391 0.18922 0.1067 0.0
C431 C 0.0059 0.18642 0.09559 0.0
H432 H 0.83879 0.93492 0.17115 0.0
H433 H 0.76586 0.96328 0.10153 0.0
H434 H 0.77698 0.02069 0.11336 0.0
H435 H 0.81411 0.06242 0.13643 0.0
H436 H 0.89113 0.03363 0.20144 0.0
H437 H 0.87161 0.97735 0.19919 0.0
C438 C 0.82466 0.95374 0.15944 0.0
C439 C 0.80152 0.94499 0.1356 0.0
C440 C 0.83228 0.9868 0.16532 0.0
C441 C 0.7838 0.96955 0.12002 0.0
C442 C 0.79026 0.00237 0.12665 0.0
C443 C 0.82578 0.04398 0.15097 0.0
C444 C 0.85383 0.05209 0.16922 0.0
C445 C 0.8154 0.01131 0.14826 0.0
C446 C 0.86934 0.02788 0.18736 0.0
C447 C 0.85835 -0.00435 0.18588 0.0
H448 H 0.90461 0.81647 0.14734 0.0
H449 H 0.90959 0.84609 0.04825 0.0
H450 H 0.96871 0.84319 0.05032 0.0
H451 H 0.01929 0.83765 0.08092 0.0
H452 H 0.017 0.80873 0.17991 0.0
H453 H 0.95692 0.80518 0.17699 0.0
C454 C 0.91863 0.82191 0.12613 0.0
C455 C 0.90232 0.83207 0.09785 0.0
C456 C 0.95325 0.82032 0.12739 0.0
C457 C 0.92112 0.83875 0.07056 0.0
C458 C 0.95512 0.83703 0.07161 0.0
C459 C 0.0057 0.83 0.10176 0.0
C460 C 0.02256 0.82366 0.13062 0.0
C461 C 0.97143 0.82864 0.10002 0.0
C462 C 0.00463 0.81352 0.15731 0.0
C463 C 0.97023 0.81186 0.15571 0.0
H464 H 0.15903 0.0248 0.19934 0.0
H465 H 0.07933 0.03116 0.13073 0.0
H466 H 0.0621 0.97614 0.14313 0.0
H467 H 0.07842 0.92274 0.16273 0.0
H468 H 0.15876 0.91489 0.22992 0.0
H469 H 0.16653 0.97401 0.22965 0.0
C470 C 0.13719 0.01456 0.18804 0.0
C471 C 0.12115 0.0315 0.16338 0.0
C472 C 0.12783 0.98243 0.19471 0.0
C473 C 0.09264 0.01816 0.14917 0.0
C474 C 0.08276 0.98667 0.15618 0.0
C475 C 0.09665 0.93427 0.17835 0.0
C476 C 0.11826 0.9149 0.19596 0.0
C477 C 0.10148 0.96794 0.17727 0.0
C478 C 0.1418 0.92964 0.21626 0.0
C479 C 0.14651 0.96336 0.21574 0.0
H480 H 0.95196 0.8082 0.81658 0.0
H481 H 0.96024 0.81468 0.92025 0.0
H482 H 0.01904 0.81902 0.9168 0.0
H483 H 0.0683 0.81873 0.88547 0.0
H484 H 0.06276 0.81281 0.78197 0.0
H485 H 0.00281 0.81058 0.78434 0.0
C486 C 0.96665 0.81068 0.83836 0.0
C487 C 0.95142 0.81085 0.8686 0.0
C488 C 0.00099 0.81324 0.83636 0.0
C489 C 0.97097 0.81426 0.89658 0.0
C490 C 0.00478 0.81679 0.89473 0.0
C491 C 0.05415 0.81736 0.8633 0.0
C492 C 0.07005 0.816 0.83361 0.0
C493 C 0.02003 0.81601 0.86487 0.0
C494 C 0.05111 0.81396 0.80519 0.0
C495 C 0.01684 0.81259 0.80655 0.0
H496 H 0.09757 0.93649 0.83575 0.0
H497 H 0.20269 0.9301 0.83367 0.0
H498 H 0.20661 0.98969 0.83111 0.0
H499 H 0.17978 0.04384 0.83856 0.0
H500 H 0.07458 0.04808 0.84368 0.0
H501 H 0.07094 0.98934 0.83557 0.0
C502 C 0.12135 0.9481 0.83402 0.0
C503 C 0.14979 0.92899 0.8353 0.0
C504 C 0.12333 0.98214 0.83344 0.0
C505 C 0.18042 0.94429 0.83266 0.0
C506 C 0.18264 0.97839 0.83153 0.0
C507 C 0.15613 0.03188 0.8369 0.0
C508 C 0.12744 0.05015 0.84178 0.0
C509 C 0.15426 -0.00234 0.8332 0.0
C510 C 0.09693 0.03443 0.84007 0.0
C511 C 0.09484 0.00084 0.83556 0.0
H512 H 0.04165 0.1404 0.79397 0.0
H513 H 0.02395 0.20669 0.87293 0.0
H514 H 0.9651 0.20403 0.86228 0.0
H515 H 0.91921 0.17208 0.83966 0.0
H516 H 0.93722 0.10061 0.76537 0.0
H517 H 0.99486 0.11648 0.7641 0.0
C518 C 0.02492 0.15537 0.80777 0.0
C519 C 0.03688 0.17369 0.83414 0.0
C520 C 0.99095 0.15226 0.80259 0.0
C521 C 0.01509 0.1925 0.85244 0.0
C522 C 0.98144 0.19074 0.84653 0.0
C523 C 0.9355 0.16127 0.82211 0.0
C524 C 0.92419 0.13545 0.80251 0.0
C525 C 0.96901 0.16917 0.82297 0.0
C526 C 0.94553 0.12082 0.78042 0.0
C527 C 0.97856 0.12959 0.78001 0.0
H528 H 0.79107 0.8965 0.84634 0.0
H529 H 0.86238 0.91418 0.92195 0.0
H530 H 0.85597 0.97283 0.91584 0.0
H531 H 0.83397 0.01885 0.88557 0.0
H532 H 0.76107 0.00208 0.81155 0.0
H533 H 0.7635 0.94328 0.8209 0.0
C534 C 0.80495 0.91326 0.86163 0.0
C535 C 0.82754 0.9011 0.88422 0.0
C536 C 0.80074 0.94701 0.85834 0.0
C537 C 0.84494 0.92298 0.90433 0.0
C538 C 0.84134 0.9565 0.9008 0.0
C539 C 0.81824 0.00228 0.87192 0.0
C540 C 0.79757 0.01446 0.84778 0.0
C541 C 0.81986 0.96875 0.87744 0.0
C542 C 0.77696 0.99307 0.83043 0.0
C543 C 0.77863 0.9595 0.83555 0.0
H544 H 0.71573 0.69252 0.47523 0.0
H545 H 0.61432 0.7216 0.47441 0.0
H546 H 0.6156 0.72854 0.53248 0.0
H547 H 0.64351 0.72121 0.58413 0.0
H548 H 0.74292 0.68727 0.58649 0.0
H549 H 0.74501 0.68851 0.52761 0.0
C550 C 0.69408 0.70062 0.48781 0.0
C551 C 0.66486 0.70596 0.47048 0.0
C552 C 0.69477 0.7042 0.52159 0.0
C553 C 0.63698 0.7166 0.48713 0.0
C554 C 0.6377 0.72088 0.5204 0.0
C555 C 0.66596 0.71533 0.57168 0.0
C556 C 0.69331 0.7051 0.58937 0.0
C557 C 0.66623 0.7142 0.53795 0.0
C558 C 0.72192 0.69616 0.57316 0.0
C559 C 0.7229 0.69636 0.53953 0.0
H560 H 0.35217 0.6744 0.54126 0.0
H561 H 0.43608 0.61296 0.55796 0.0
H562 H 0.43446 0.59494 0.50189 0.0
H563 H 0.40805 0.5946 0.44884 0.0
H564 H 0.32434 0.65594 0.43136 0.0
H565 H 0.32728 0.67611 0.48699 0.0
C566 C 0.37026 0.65721 0.53266 0.0
C567 C 0.39409 0.64494 0.5541 0.0
C568 C 0.36918 0.64681 0.50024 0.0
C569 C 0.41738 0.6228 0.54225 0.0
C570 C 0.41645 0.6124 0.51012 0.0
C571 C 0.39042 0.61246 0.45706 0.0
C572 C 0.36581 0.62349 0.43585 0.0
C573 C 0.39224 0.62391 0.48902 0.0
C574 C 0.34351 0.64694 0.44704 0.0
C575 C 0.34514 0.65843 0.47892 0.0
H576 H 0.31154 0.27919 0.45571 0.0
H577 H 0.41291 0.3085 0.46378 0.0
H578 H 0.40674 0.3189 0.52105 0.0
H579 H 0.37145 0.32448 0.56778 0.0
H580 H 0.27072 0.29411 0.56132 0.0
H581 H 0.27767 0.27877 0.50448 0.0
C582 C 0.33234 0.28743 0.47011 0.0
C583 C 0.36235 0.29399 0.45538 0.0
C584 C 0.3287 0.29323 0.50321 0.0
C585 C 0.38926 0.30421 0.47437 0.0
C586 C 0.38585 0.31002 0.50717 0.0
C587 C 0.35125 0.31409 0.55389 0.0
C588 C 0.32066 0.31052 0.56807 0.0
C589 C 0.3555 0.30547 0.52161 0.0
C590 C 0.29449 0.29688 0.55044 0.0
C591 C 0.29845 0.28831 0.51807 0.0
H592 H 0.70513 0.36114 0.44023 0.0
H593 H 0.62486 0.29308 0.44119 0.0
H594 H 0.63125 0.28709 0.49918 0.0
H595 H 0.65149 0.31048 0.55048 0.0
H596 H 0.72832 0.38222 0.54999 0.0
H597 H 0.73226 0.37698 0.49156 0.0
C598 C 0.69002 0.34404 0.45303 0.0
C599 C 0.66454 0.32764 0.43657 0.0
C600 C 0.69297 0.34173 0.48676 0.0
C601 C 0.64464 0.30598 0.45347 0.0
C602 C 0.64813 0.3027 0.48668 0.0
C603 C 0.67013 0.32369 0.53765 0.0
C604 C 0.68981 0.34643 0.55442 0.0
C605 C 0.67107 0.32173 0.50382 0.0
C606 C 0.71323 0.36424 0.5375 0.0
C607 C 0.71518 0.36156 0.50403 0.0
H608 H 0.56072 0.7065 0.6753 0.0
H609 H 0.55436 0.68123 0.57428 0.0
H610 H 0.4967 0.69653 0.57326 0.0
H611 H 0.44649 0.71076 0.60256 0.0
H612 H 0.45218 0.73147 0.7042 0.0
H613 H 0.51173 0.72519 0.70341 0.0
C614 C 0.54692 0.70477 0.6529 0.0
C615 C 0.5619 0.69232 0.62501 0.0
C616 C 0.51358 0.71304 0.6526 0.0
C617 C 0.54348 0.69036 0.59623 0.0
C618 C 0.51046 0.69917 0.59559 0.0
C619 C 0.46106 0.71506 0.6242 0.0
C620 C 0.44536 0.72234 0.65326 0.0
C621 C 0.49504 0.70977 0.62379 0.0
C622 C 0.46406 0.72663 0.68148 0.0
C623 C 0.49799 0.72263 0.68107 0.0
H624 H 0.36145 0.56777 0.70798 0.0
H625 H 0.29614 0.59527 0.63097 0.0
H626 H 0.28031 0.53833 0.6225 0.0
H627 H 0.29351 0.48045 0.63017 0.0
H628 H 0.35832 0.45278 0.7074 0.0
H629 H 0.36579 0.51014 0.72296 0.0
C630 C 0.34293 0.56135 0.69007 0.0
C631 C 0.33028 0.58552 0.66981 0.0
C632 C 0.33441 0.52854 0.68503 0.0
C633 C 0.30612 0.57709 0.64689 0.0
C634 C 0.2974 0.54448 0.64178 0.0
C635 C 0.30856 0.48705 0.65094 0.0
C636 C 0.32576 0.46274 0.66742 0.0
C637 C 0.31266 0.51995 0.65962 0.0
C638 C 0.34492 0.47124 0.69445 0.0
C639 C 0.34932 0.50399 0.70316 0.0
H640 H 0.54591 0.35189 0.68229 0.0
H641 H 0.56039 0.35741 0.58005 0.0
H642 H 0.50169 0.35197 0.57036 0.0
H643 H 0.44615 0.35254 0.59083 0.0
H644 H 0.42966 0.34856 0.69282 0.0
H645 H 0.48897 0.34618 0.70279 0.0
C646 C 0.53616 0.3509 0.65794 0.0
C647 C 0.5574 0.35495 0.63186 0.0
C648 C 0.50197 0.34867 0.65254 0.0
C649 C 0.54448 0.35426 0.60043 0.0
C650 C 0.5109 0.35137 0.59489 0.0
C651 C 0.45546 0.35086 0.61528 0.0
C652 C 0.43351 0.35129 0.64106 0.0
C653 C 0.48938 0.34973 0.62075 0.0
C654 C 0.44602 0.34842 0.67253 0.0
C655 C 0.47996 0.34719 0.67823 0.0
H656 H 0.66496 0.5618 0.71206 0.0
H657 H 0.59039 0.55786 0.63787 0.0
H658 H 0.5844 0.49941 0.64483 0.0
H659 H 0.60837 0.44877 0.66365 0.0
H660 H 0.68546 0.45104 0.735 0.0
H661 H 0.68203 0.51064 0.73836 0.0
C662 C 0.64664 0.54823 0.69832 0.0
C663 C 0.62845 0.56387 0.67418 0.0
C664 C 0.64417 0.51426 0.70165 0.0
C665 C 0.6049 0.54614 0.65632 0.0
C666 C 0.60155 0.51273 0.66019 0.0
C667 C 0.62372 0.46236 0.68059 0.0
C668 C 0.64738 0.44595 0.69873 0.0
C669 C 0.62229 0.49637 0.68148 0.0
C670 C 0.66697 0.46341 0.72091 0.0
C671 C 0.66525 0.49746 0.72252 0.0
H672 H 0.46168 0.31691 0.29365 0.0
H673 H 0.45537 0.41 0.34233 0.0
H674 H 0.5098 0.4245 0.32405 0.0
H675 H 0.56353 0.40396 0.30843 0.0
H676 H 0.57164 0.30975 0.26287 0.0
H677 H 0.51222 0.30257 0.26479 0.0
C678 C 0.47167 0.34091 0.29891 0.0
C679 C 0.45511 0.36204 0.31995 0.0
C680 C 0.50364 0.34857 0.28937 0.0
C681 C 0.46812 0.39314 0.32663 0.0
C682 C 0.49931 0.40137 0.31636 0.0
C683 C 0.55195 0.38271 0.29737 0.0
C684 C 0.57149 0.35736 0.28567 0.0
C685 C 0.51809 0.37832 0.29981 0.0
C686 C 0.55674 0.32964 0.27173 0.0
C687 C 0.52284 0.32536 0.27329 0.0
H688 H 0.59814 0.46799 0.37896 0.0
H689 H 0.69284 0.46403 0.33441 0.0
H690 H 0.69858 0.52337 0.34202 0.0
H691 H 0.67595 0.57693 0.36225 0.0
H692 H 0.58084 0.57651 0.4068 0.0
H693 H 0.57632 0.5186 0.39805 0.0
C694 C 0.62028 0.47974 0.37083 0.0
C695 C 0.64506 0.46116 0.35619 0.0
C696 C 0.62337 0.51345 0.37532 0.0
C697 C 0.67329 0.47748 0.3458 0.0
C698 C 0.67656 0.5115 0.35017 0.0
C699 C 0.65431 0.5641 0.37001 0.0
C700 C 0.62897 0.5815 0.38556 0.0
C701 C 0.65167 0.52987 0.36503 0.0
C702 C 0.60107 0.56421 0.39527 0.0
C703 C 0.59827 0.53084 0.39018 0.0
H704 H 0.55652 0.64845 0.31174 0.0
H705 H 0.52154 0.73416 0.3609 0.0
H706 H 0.46549 0.72167 0.34363 0.0
H707 H 0.42605 0.6791 0.32706 0.0
H708 H 0.46122 0.59025 0.28363 0.0
H709 H 0.51715 0.61122 0.28527 0.0
C710 C 0.53678 0.66518 0.31717 0.0
C711 C 0.54296 0.69218 0.33738 0.0
C712 C 0.50437 0.6567 0.30882 0.0
C713 C 0.5172 0.71336 0.34508 0.0
C714 C 0.4851 0.70597 0.33557 0.0
C715 C 0.4458 0.66501 0.31669 0.0
C716 C 0.43969 0.63312 0.30556 0.0
C717 C 0.47819 0.6766 0.31926 0.0
C718 C 0.46549 0.61483 0.29254 0.0
C719 C 0.49752 0.62672 0.29368 0.0
H720 H 0.33574 0.43025 0.42137 0.0
H721 H 0.31036 0.38721 0.32907 0.0
H722 H 0.29117 0.43982 0.31027 0.0
H723 H 0.29259 0.49961 0.31655 0.0
H724 H 0.32035 0.54265 0.40786 0.0
H725 H 0.32739 0.48858 0.43076 0.0
C726 C 0.32525 0.43219 0.3974 0.0
C727 C 0.32527 0.40502 0.37641 0.0
C728 C 0.31507 0.46267 0.38647 0.0
C729 C 0.31097 0.40778 0.34566 0.0
C730 C 0.30022 0.43795 0.33476 0.0
C731 C 0.2989 0.49692 0.34177 0.0
C732 C 0.30579 0.52465 0.36072 0.0
C733 C 0.30373 0.46581 0.35441 0.0
C734 C 0.3146 0.52136 0.39315 0.0
C735 C 0.3189 0.49052 0.40609 0.0
loop_
_geom_bond_atom_site_label_1
_geom_bond_atom_site_label_2
_geom_bond_distance
_geom_bond_site_symmetry_2
_ccdc_geom_bond_type
Mg0 O1 2.028 . S
Mg0 O7 1.986 . S
Mg0 O9 2.114 . S
Mg0 O10 2.251 . S
Mg0 O13 2.010 . S
O1 Mg0 2.028 . S
O1 C4 1.250 . S
O2 Mg3 2.028 . S
O2 C4 1.248 . S
Mg3 O2 2.028 . S
Mg3 O8 2.032 . S
Mg3 O10 2.079 . S
C4 O1 1.250 . S
C4 O2 1.248 . S
C5 O6 1.264 . S
C5 O13 1.249 . S
O6 C5 1.264 . S
O7 Mg0 1.986 . S
O7 C11 1.246 . S
O8 Mg3 2.032 . S
O8 C11 1.259 . S
O9 Mg0 2.114 . S
O9 C12 1.252 . S
O10 Mg0 2.251 . S
O10 Mg3 2.079 . S
O10 C12 1.273 . S
C11 O7 1.246 . S
C11 O8 1.259 . S
C12 O9 1.252 . S
C12 O10 1.273 . S
O13 Mg0 2.010 . S
O13 C5 1.249 . S
Mg14 O15 2.028 . S
Mg14 O21 1.986 . S
Mg14 O23 2.114 . S
Mg14 O24 2.251 . S
Mg14 O27 2.010 . S
O15 Mg14 2.028 . S
O15 C18 1.250 . S
O16 Mg17 2.028 . S
O16 C18 1.248 . S
Mg17 O16 2.028 . S
Mg17 O22 2.032 . S
Mg17 O24 2.079 . S
C18 O15 1.250 . S
C18 O16 1.248 . S
C19 O20 1.264 . S
C19 O27 1.249 . S
O20 C19 1.264 . S
O21 Mg14 1.986 . S
O21 C25 1.246 . S
O22 Mg17 2.032 . S
O22 C25 1.259 . S
O23 Mg14 2.114 . S
O23 C26 1.252 . S
O24 Mg14 2.251 . S
O24 Mg17 2.079 . S
O24 C26 1.273 . S
C25 O21 1.246 . S
C25 O22 1.259 . S
C26 O23 1.252 . S
C26 O24 1.273 . S
O27 Mg14 2.010 . S
O27 C19 1.249 . S
Mg28 O29 2.028 . S
Mg28 O35 1.986 . S
Mg28 O37 2.114 . S
Mg28 O38 2.251 . S
Mg28 O41 2.010 . S
O29 Mg28 2.028 . S
O29 C32 1.250 . S
O30 Mg31 2.028 . S
O30 C32 1.248 . S
Mg31 O30 2.028 . S
Mg31 O36 2.032 . S
Mg31 O38 2.079 . S
C32 O29 1.250 . S
C32 O30 1.248 . S
C33 O34 1.264 . S
C33 O41 1.249 . S
O34 C33 1.264 . S
O35 Mg28 1.986 . S
O35 C39 1.246 . S
O36 Mg31 2.032 . S
O36 C39 1.259 . S
O37 Mg28 2.114 . S
O37 C40 1.252 . S
O38 Mg28 2.251 . S
O38 Mg31 2.079 . S
O38 C40 1.273 . S
C39 O35 1.246 . S
C39 O36 1.259 . S
C40 O37 1.252 . S
C40 O38 1.273 . S
O41 Mg28 2.010 . S
O41 C33 1.249 . S
Mg42 O43 2.028 . S
Mg42 O49 1.986 . S
Mg42 O51 2.114 . S
Mg42 O52 2.251 . S
Mg42 O55 2.010 . S
O43 Mg42 2.028 . S
O43 C46 1.250 . S
O44 Mg45 2.028 . S
O44 C46 1.248 . S
Mg45 O44 2.028 . S
Mg45 O50 2.032 . S
Mg45 O52 2.079 . S
C46 O43 1.250 . S
C46 O44 1.248 . S
C47 O48 1.264 . S
C47 O55 1.249 . S
O48 C47 1.264 . S
O49 Mg42 1.986 . S
O49 C53 1.246 . S
O50 Mg45 2.032 . S
O50 C53 1.259 . S
O51 Mg42 2.114 . S
O51 C54 1.252 . S
O52 Mg42 2.251 . S
O52 Mg45 2.079 . S
O52 C54 1.273 . S
C53 O49 1.246 . S
C53 O50 1.259 . S
C54 O51 1.252 . S
C54 O52 1.273 . S
O55 Mg42 2.010 . S
O55 C47 1.249 . S
Mg56 O57 2.028 . S
Mg56 O63 1.986 . S
Mg56 O65 2.114 . S
Mg56 O66 2.251 . S
Mg56 O69 2.010 . S
O57 Mg56 2.028 . S
O57 C60 1.250 . S
O58 Mg59 2.028 . S
O58 C60 1.248 . S
Mg59 O58 2.028 . S
Mg59 O64 2.032 . S
Mg59 O66 2.079 . S
C60 O57 1.250 . S
C60 O58 1.248 . S
C61 O62 1.264 . S
C61 O69 1.249 . S
O62 C61 1.264 . S
O63 Mg56 1.986 . S
O63 C67 1.246 . S
O64 Mg59 2.032 . S
O64 C67 1.259 . S
O65 Mg56 2.114 . S
O65 C68 1.252 . S
O66 Mg56 2.251 . S
O66 Mg59 2.079 . S
O66 C68 1.273 . S
C67 O63 1.246 . S
C67 O64 1.259 . S
C68 O65 1.252 . S
C68 O66 1.273 . S
O69 Mg56 2.010 . S
O69 C61 1.249 . S
Mg70 O71 2.028 . S
Mg70 O77 1.986 . S
Mg70 O79 2.114 . S
Mg70 O80 2.251 . S
Mg70 O83 2.010 . S
O71 Mg70 2.028 . S
O71 C74 1.250 . S
O72 Mg73 2.028 . S
O72 C74 1.248 . S
Mg73 O72 2.028 . S
Mg73 O78 2.032 . S
Mg73 O80 2.079 . S
C74 O71 1.250 . S
C74 O72 1.248 . S
C75 O76 1.264 . S
C75 O83 1.249 . S
O76 C75 1.264 . S
O77 Mg70 1.986 . S
O77 C81 1.246 . S
O78 Mg73 2.032 . S
O78 C81 1.259 . S
O79 Mg70 2.114 . S
O79 C82 1.252 . S
O80 Mg70 2.251 . S
O80 Mg73 2.079 . S
O80 C82 1.273 . S
C81 O77 1.246 . S
C81 O78 1.259 . S
C82 O79 1.252 . S
C82 O80 1.273 . S
O83 Mg70 2.010 . S
O83 C75 1.249 . S
Mg84 O85 2.028 . S
Mg84 O91 1.986 . S
Mg84 O93 2.114 . S
Mg84 O94 2.251 . S
Mg84 O97 2.010 . S
O85 Mg84 2.028 . S
O85 C88 1.250 . S
O86 Mg87 2.028 . S
O86 C88 1.248 . S
Mg87 O86 2.028 . S
Mg87 O92 2.032 . S
Mg87 O94 2.079 . S
C88 O85 1.250 . S
C88 O86 1.248 . S
C89 O90 1.264 . S
C89 O97 1.249 . S
O90 C89 1.264 . S
O91 Mg84 1.986 . S
O91 C95 1.246 . S
O92 Mg87 2.032 . S
O92 C95 1.259 . S
O93 Mg84 2.114 . S
O93 C96 1.252 . S
O94 Mg84 2.251 . S
O94 Mg87 2.079 . S
O94 C96 1.273 . S
C95 O91 1.246 . S
C95 O92 1.259 . S
C96 O93 1.252 . S
C96 O94 1.273 . S
O97 Mg84 2.010 . S
O97 C89 1.249 . S
Mg98 O99 2.028 . S
Mg98 O105 1.986 . S
Mg98 O107 2.114 . S
Mg98 O108 2.251 . S
Mg98 O111 2.010 . S
O99 Mg98 2.028 . S
O99 C102 1.250 . S
O100 Mg101 2.028 . S
O100 C102 1.248 . S
Mg101 O100 2.028 . S
Mg101 O106 2.032 . S
Mg101 O108 2.079 . S
C102 O99 1.250 . S
C102 O100 1.248 . S
C103 O104 1.264 . S
C103 O111 1.249 . S
O104 C103 1.264 . S
O105 Mg98 1.986 . S
O105 C109 1.246 . S
O106 Mg101 2.032 . S
O106 C109 1.259 . S
O107 Mg98 2.114 . S
O107 C110 1.252 . S
O108 Mg98 2.251 . S
O108 Mg101 2.079 . S
O108 C110 1.273 . S
C109 O105 1.246 . S
C109 O106 1.259 . S
C110 O107 1.252 . S
C110 O108 1.273 . S
O111 Mg98 2.010 . S
O111 C103 1.249 . S
Mg112 O113 2.028 . S
Mg112 O119 1.986 . S
Mg112 O121 2.114 . S
Mg112 O122 2.251 . S
Mg112 O125 2.010 . S
O113 Mg112 2.028 . S
O113 C116 1.250 . S
O114 Mg115 2.028 . S
O114 C116 1.248 . S
Mg115 O114 2.028 . S
Mg115 O120 2.032 . S
Mg115 O122 2.079 . S
C116 O113 1.250 . S
C116 O114 1.248 . S
C117 O118 1.264 . S
C117 O125 1.249 . S
O118 C117 1.264 . S
O119 Mg112 1.986 . S
O119 C123 1.246 . S
O120 Mg115 2.032 . S
O120 C123 1.259 . S
O121 Mg112 2.114 . S
O121 C124 1.252 . S
O122 Mg112 2.251 . S
O122 Mg115 2.079 . S
O122 C124 1.273 . S
C123 O119 1.246 . S
C123 O120 1.259 . S
C124 O121 1.252 . S
C124 O122 1.273 . S
O125 Mg112 2.010 . S
O125 C117 1.249 . S
Mg126 O127 2.028 . S
Mg126 O133 1.986 . S
Mg126 O135 2.114 . S
Mg126 O136 2.251 . S
Mg126 O139 2.010 . S
O127 Mg126 2.028 . S
O127 C130 1.250 . S
O128 Mg129 2.028 . S
O128 C130 1.248 . S
Mg129 O128 2.028 . S
Mg129 O134 2.032 . S
Mg129 O136 2.079 . S
C130 O127 1.250 . S
C130 O128 1.248 . S
C131 O132 1.264 . S
C131 O139 1.249 . S
O132 C131 1.264 . S
O133 Mg126 1.986 . S
O133 C137 1.246 . S
O134 Mg129 2.032 . S
O134 C137 1.259 . S
O135 Mg126 2.114 . S
O135 C138 1.252 . S
O136 Mg126 2.251 . S
O136 Mg129 2.079 . S
O136 C138 1.273 . S
C137 O133 1.246 . S
C137 O134 1.259 . S
C138 O135 1.252 . S
C138 O136 1.273 . S
O139 Mg126 2.010 . S
O139 C131 1.249 . S
Mg140 O141 2.028 . S
Mg140 O147 1.986 . S
Mg140 O149 2.114 . S
Mg140 O150 2.251 . S
Mg140 O153 2.010 . S
O141 Mg140 2.028 . S
O141 C144 1.250 . S
O142 Mg143 2.028 . S
O142 C144 1.248 . S
Mg143 O142 2.028 . S
Mg143 O148 2.032 . S
Mg143 O150 2.079 . S
C144 O141 1.250 . S
C144 O142 1.248 . S
C145 O146 1.264 . S
C145 O153 1.249 . S
O146 C145 1.264 . S
O147 Mg140 1.986 . S
O147 C151 1.246 . S
O148 Mg143 2.032 . S
O148 C151 1.259 . S
O149 Mg140 2.114 . S
O149 C152 1.252 . S
O150 Mg140 2.251 . S
O150 Mg143 2.079 . S
O150 C152 1.273 . S
C151 O147 1.246 . S
C151 O148 1.259 . S
C152 O149 1.252 . S
C152 O150 1.273 . S
O153 Mg140 2.010 . S
O153 C145 1.249 . S
Mg154 O155 2.028 . S
Mg154 O161 1.986 . S
Mg154 O163 2.114 . S
Mg154 O164 2.251 . S
Mg154 O167 2.010 . S
O155 Mg154 2.028 . S
O155 C158 1.250 . S
O156 Mg157 2.028 . S
O156 C158 1.248 . S
Mg157 O156 2.028 . S
Mg157 O162 2.032 . S
Mg157 O164 2.079 . S
C158 O155 1.250 . S
C158 O156 1.248 . S
C159 O160 1.264 . S
C159 O167 1.249 . S
O160 C159 1.264 . S
O161 Mg154 1.986 . S
O161 C165 1.246 . S
O162 Mg157 2.032 . S
O162 C165 1.259 . S
O163 Mg154 2.114 . S
O163 C166 1.252 . S
O164 Mg154 2.251 . S
O164 Mg157 2.079 . S
O164 C166 1.273 . S
C165 O161 1.246 . S
C165 O162 1.259 . S
C166 O163 1.252 . S
C166 O164 1.273 . S
O167 Mg154 2.010 . S
O167 C159 1.249 . S
Mg168 O169 2.028 . S
Mg168 O175 1.986 . S
Mg168 O177 2.114 . S
Mg168 O178 2.251 . S
Mg168 O181 2.010 . S
O169 Mg168 2.028 . S
O169 C172 1.250 . S
O170 Mg171 2.028 . S
O170 C172 1.248 . S
Mg171 O170 2.028 . S
Mg171 O176 2.032 . S
Mg171 O178 2.079 . S
C172 O169 1.250 . S
C172 O170 1.248 . S
C173 O174 1.264 . S
C173 O181 1.249 . S
O174 C173 1.264 . S
O175 Mg168 1.986 . S
O175 C179 1.246 . S
O176 Mg171 2.032 . S
O176 C179 1.259 . S
O177 Mg168 2.114 . S
O177 C180 1.252 . S
O178 Mg168 2.251 . S
O178 Mg171 2.079 . S
O178 C180 1.273 . S
C179 O175 1.246 . S
C179 O176 1.259 . S
C180 O177 1.252 . S
C180 O178 1.273 . S
O181 Mg168 2.010 . S
O181 C173 1.249 . S
Mg182 O183 2.028 . S
Mg182 O189 1.986 . S
Mg182 O191 2.114 . S
Mg182 O192 2.251 . S
Mg182 O195 2.010 . S
O183 Mg182 2.028 . S
O183 C186 1.250 . S
O184 Mg185 2.028 . S
O184 C186 1.248 . S
Mg185 O184 2.028 . S
Mg185 O190 2.032 . S
Mg185 O192 2.079 . S
C186 O183 1.250 . S
C186 O184 1.248 . S
C187 O188 1.264 . S
C187 O195 1.249 . S
O188 C187 1.264 . S
O189 Mg182 1.986 . S
O189 C193 1.246 . S
O190 Mg185 2.032 . S
O190 C193 1.259 . S
O191 Mg182 2.114 . S
O191 C194 1.252 . S
O192 Mg182 2.251 . S
O192 Mg185 2.079 . S
O192 C194 1.273 . S
C193 O189 1.246 . S
C193 O190 1.259 . S
C194 O191 1.252 . S
C194 O192 1.273 . S
O195 Mg182 2.010 . S
O195 C187 1.249 . S
Mg196 O197 2.028 . S
Mg196 O203 1.986 . S
Mg196 O205 2.114 . S
Mg196 O206 2.251 . S
Mg196 O209 2.010 . S
O197 Mg196 2.028 . S
O197 C200 1.250 . S
O198 Mg199 2.028 . S
O198 C200 1.248 . S
Mg199 O198 2.028 . S
Mg199 O204 2.032 . S
Mg199 O206 2.079 . S
C200 O197 1.250 . S
C200 O198 1.248 . S
C201 O202 1.264 . S
C201 O209 1.249 . S
O202 C201 1.264 . S
O203 Mg196 1.986 . S
O203 C207 1.246 . S
O204 Mg199 2.032 . S
O204 C207 1.259 . S
O205 Mg196 2.114 . S
O205 C208 1.252 . S
O206 Mg196 2.251 . S
O206 Mg199 2.079 . S
O206 C208 1.273 . S
C207 O203 1.246 . S
C207 O204 1.259 . S
C208 O205 1.252 . S
C208 O206 1.273 . S
O209 Mg196 2.010 . S
O209 C201 1.249 . S
Mg210 O211 2.028 . S
Mg210 O217 1.986 . S
Mg210 O219 2.114 . S
Mg210 O220 2.251 . S
Mg210 O223 2.010 . S
O211 Mg210 2.028 . S
O211 C214 1.250 . S
O212 Mg213 2.028 . S
O212 C214 1.248 . S
Mg213 O212 2.028 . S
Mg213 O218 2.032 . S
Mg213 O220 2.079 . S
C214 O211 1.250 . S
C214 O212 1.248 . S
C215 O216 1.264 . S
C215 O223 1.249 . S
O216 C215 1.264 . S
O217 Mg210 1.986 . S
O217 C221 1.246 . S
O218 Mg213 2.032 . S
O218 C221 1.259 . S
O219 Mg210 2.114 . S
O219 C222 1.252 . S
O220 Mg210 2.251 . S
O220 Mg213 2.079 . S
O220 C222 1.273 . S
C221 O217 1.246 . S
C221 O218 1.259 . S
C222 O219 1.252 . S
C222 O220 1.273 . S
O223 Mg210 2.010 . S
O223 C215 1.249 . S
H224 C230 0.930 . S
H225 C233 0.930 . S
H226 C234 0.930 . S
H227 C235 0.930 . S
H228 C238 0.930 . S
H229 C239 0.930 . S
C230 H224 0.930 . S
C230 C231 1.355 . S
C230 C232 1.415 . S
C231 C230 1.355 . S
C231 C233 1.419 . S
C232 C230 1.415 . S
C232 C237 1.425 . S
C232 C239 1.409 . S
C233 H225 0.930 . S
C233 C231 1.419 . S
C233 C234 1.362 . S
C234 H226 0.930 . S
C234 C233 1.362 . S
C234 C237 1.409 . S
C235 H227 0.930 . S
C235 C236 1.355 . S
C235 C237 1.415 . S
C236 C235 1.355 . S
C236 C238 1.419 . S
C237 C232 1.425 . S
C237 C234 1.409 . S
C237 C235 1.415 . S
C238 H228 0.930 . S
C238 C236 1.419 . S
C238 C239 1.362 . S
C239 H229 0.930 . S
C239 C232 1.409 . S
C239 C238 1.362 . S
H240 C246 0.930 . S
H241 C249 0.930 . S
H242 C250 0.930 . S
H243 C251 0.930 . S
H244 C254 0.930 . S
H245 C255 0.930 . S
C246 H240 0.930 . S
C246 C247 1.355 . S
C246 C248 1.415 . S
C247 C246 1.355 . S
C247 C249 1.419 . S
C248 C246 1.415 . S
C248 C253 1.425 . S
C248 C255 1.409 . S
C249 H241 0.930 . S
C249 C247 1.419 . S
C249 C250 1.362 . S
C250 H242 0.930 . S
C250 C249 1.362 . S
C250 C253 1.409 . S
C251 H243 0.930 . S
C251 C252 1.355 . S
C251 C253 1.415 . S
C252 C251 1.355 . S
C252 C254 1.419 . S
C253 C248 1.425 . S
C253 C250 1.409 . S
C253 C251 1.415 . S
C254 H244 0.930 . S
C254 C252 1.419 . S
C254 C255 1.362 . S
C255 H245 0.930 . S
C255 C248 1.409 . S
C255 C254 1.362 . S
H256 C262 0.930 . S
H257 C265 0.930 . S
H258 C266 0.930 . S
H259 C267 0.930 . S
H260 C270 0.930 . S
H261 C271 0.930 . S
C262 H256 0.930 . S
C262 C263 1.355 . S
C262 C264 1.415 . S
C263 C262 1.355 . S
C263 C265 1.419 . S
C264 C262 1.415 . S
C264 C269 1.425 . S
C264 C271 1.409 . S
C265 H257 0.930 . S
C265 C263 1.419 . S
C265 C266 1.362 . S
C266 H258 0.930 . S
C266 C265 1.362 . S
C266 C269 1.409 . S
C267 H259 0.930 . S
C267 C268 1.355 . S
C267 C269 1.415 . S
C268 C267 1.355 . S
C268 C270 1.419 . S
C269 C264 1.425 . S
C269 C266 1.409 . S
C269 C267 1.415 . S
C270 H260 0.930 . S
C270 C268 1.419 . S
C270 C271 1.362 . S
C271 H261 0.930 . S
C271 C264 1.409 . S
C271 C270 1.362 . S
H272 C278 0.930 . S
H273 C281 0.930 . S
H274 C282 0.930 . S
H275 C283 0.930 . S
H276 C286 0.930 . S
H277 C287 0.930 . S
C278 H272 0.930 . S
C278 C279 1.355 . S
C278 C280 1.415 . S
C279 C278 1.355 . S
C279 C281 1.419 . S
C280 C278 1.415 . S
C280 C285 1.425 . S
C280 C287 1.409 . S
C281 H273 0.930 . S
C281 C279 1.419 . S
C281 C282 1.362 . S
C282 H274 0.930 . S
C282 C281 1.362 . S
C282 C285 1.409 . S
C283 H275 0.930 . S
C283 C284 1.355 . S
C283 C285 1.415 . S
C284 C283 1.355 . S
C284 C286 1.419 . S
C285 C280 1.425 . S
C285 C282 1.409 . S
C285 C283 1.415 . S
C286 H276 0.930 . S
C286 C284 1.419 . S
C286 C287 1.362 . S
C287 H277 0.930 . S
C287 C280 1.409 . S
C287 C286 1.362 . S
H288 C294 0.930 . S
H289 C297 0.930 . S
H290 C298 0.930 . S
H291 C299 0.930 . S
H292 C302 0.930 . S
H293 C303 0.930 . S
C294 H288 0.930 . S
C294 C295 1.355 . S
C294 C296 1.415 . S
C295 C294 1.355 . S
C295 C297 1.419 . S
C296 C294 1.415 . S
C296 C301 1.425 . S
C296 C303 1.409 . S
C297 H289 0.930 . S
C297 C295 1.419 . S
C297 C298 1.362 . S
C298 H290 0.930 . S
C298 C297 1.362 . S
C298 C301 1.409 . S
C299 H291 0.930 . S
C299 C300 1.355 . S
C299 C301 1.415 . S
C300 C299 1.355 . S
C300 C302 1.419 . S
C301 C296 1.425 . S
C301 C298 1.409 . S
C301 C299 1.415 . S
C302 H292 0.930 . S
C302 C300 1.419 . S
C302 C303 1.362 . S
C303 H293 0.930 . S
C303 C296 1.409 . S
C303 C302 1.362 . S
H304 C310 0.930 . S
H305 C313 0.930 . S
H306 C314 0.930 . S
H307 C315 0.930 . S
H308 C318 0.930 . S
H309 C319 0.930 . S
C310 H304 0.930 . S
C310 C311 1.355 . S
C310 C312 1.415 . S
C311 C310 1.355 . S
C311 C313 1.419 . S
C312 C310 1.415 . S
C312 C317 1.425 . S
C312 C319 1.409 . S
C313 H305 0.930 . S
C313 C311 1.419 . S
C313 C314 1.362 . S
C314 H306 0.930 . S
C314 C313 1.362 . S
C314 C317 1.409 . S
C315 H307 0.930 . S
C315 C316 1.355 . S
C315 C317 1.415 . S
C316 C315 1.355 . S
C316 C318 1.419 . S
C317 C312 1.425 . S
C317 C314 1.409 . S
C317 C315 1.415 . S
C318 H308 0.930 . S
C318 C316 1.419 . S
C318 C319 1.362 . S
C319 H309 0.930 . S
C319 C312 1.409 . S
C319 C318 1.362 . S
H320 C326 0.930 . S
H321 C329 0.930 . S
H322 C330 0.930 . S
H323 C331 0.930 . S
H324 C334 0.930 . S
H325 C335 0.930 . S
C326 H320 0.930 . S
C326 C327 1.355 . S
C326 C328 1.415 . S
C327 C326 1.355 . S
C327 C329 1.419 . S
C328 C326 1.415 . S
C328 C333 1.425 . S
C328 C335 1.409 . S
C329 H321 0.930 . S
C329 C327 1.419 . S
C329 C330 1.362 . S
C330 H322 0.930 . S
C330 C329 1.362 . S
C330 C333 1.409 . S
C331 H323 0.930 . S
C331 C332 1.355 . S
C331 C333 1.415 . S
C332 C331 1.355 . S
C332 C334 1.419 . S
C333 C328 1.425 . S
C333 C330 1.409 . S
C333 C331 1.415 . S
C334 H324 0.930 . S
C334 C332 1.419 . S
C334 C335 1.362 . S
C335 H325 0.930 . S
C335 C328 1.409 . S
C335 C334 1.362 . S
H336 C342 0.930 . S
H337 C345 0.930 . S
H338 C346 0.930 . S
H339 C347 0.930 . S
H340 C350 0.930 . S
H341 C351 0.930 . S
C342 H336 0.930 . S
C342 C343 1.355 . S
C342 C344 1.415 . S
C343 C342 1.355 . S
C343 C345 1.419 . S
C344 C342 1.415 . S
C344 C349 1.425 . S
C344 C351 1.409 . S
C345 H337 0.930 . S
C345 C343 1.419 . S
C345 C346 1.362 . S
C346 H338 0.930 . S
C346 C345 1.362 . S
C346 C349 1.409 . S
C347 H339 0.930 . S
C347 C348 1.355 . S
C347 C349 1.415 . S
C348 C347 1.355 . S
C348 C350 1.419 . S
C349 C344 1.425 . S
C349 C346 1.409 . S
C349 C347 1.415 . S
C350 H340 0.930 . S
C350 C348 1.419 . S
C350 C351 1.362 . S
C351 H341 0.930 . S
C351 C344 1.409 . S
C351 C350 1.362 . S
H352 C358 0.930 . S
H353 C361 0.930 . S
H354 C362 0.930 . S
H355 C363 0.930 . S
H356 C366 0.930 . S
H357 C367 0.930 . S
C358 H352 0.930 . S
C358 C359 1.355 . S
C358 C360 1.415 . S
C359 C358 1.355 . S
C359 C361 1.419 . S
C360 C358 1.415 . S
C360 C365 1.425 1_556 S
C360 C367 1.409 1_556 S
C361 H353 0.930 . S
C361 C359 1.419 . S
C361 C362 1.362 . S
C362 H354 0.930 . S
C362 C361 1.362 . S
C362 C365 1.409 1_556 S
C363 H355 0.930 . S
C363 C364 1.355 . S
C363 C365 1.415 . S
C364 C363 1.355 . S
C364 C366 1.419 . S
C365 C360 1.425 1_554 S
C365 C362 1.409 1_554 S
C365 C363 1.415 . S
C366 H356 0.930 . S
C366 C364 1.419 . S
C366 C367 1.362 . S
C367 H357 0.930 . S
C367 C360 1.409 1_554 S
C367 C366 1.362 . S
H368 C374 0.930 . S
H369 C377 0.930 . S
H370 C378 0.930 . S
H371 C379 0.930 . S
H372 C382 0.930 . S
H373 C383 0.930 . S
C374 H368 0.930 . S
C374 C375 1.355 . S
C374 C376 1.415 . S
C375 C374 1.355 . S
C375 C377 1.419 . S
C376 C374 1.415 . S
C376 C381 1.425 1_556 S
C376 C383 1.409 1_556 S
C377 H369 0.930 . S
C377 C375 1.419 . S
C377 C378 1.362 . S
C378 H370 0.930 . S
C378 C377 1.362 . S
C378 C381 1.409 1_556 S
C379 H371 0.930 . S
C379 C380 1.355 . S
C379 C381 1.415 . S
C380 C379 1.355 . S
C380 C382 1.419 . S
C381 C376 1.425 1_554 S
C381 C378 1.409 1_554 S
C381 C379 1.415 . S
C382 H372 0.930 . S
C382 C380 1.419 . S
C382 C383 1.362 . S
C383 H373 0.930 . S
C383 C376 1.409 1_554 S
C383 C382 1.362 . S
H384 C390 0.930 . S
H385 C393 0.930 . S
H386 C394 0.930 . S
H387 C395 0.930 . S
H388 C398 0.930 . S
H389 C399 0.930 . S
C390 H384 0.930 . S
C390 C391 1.355 . S
C390 C392 1.415 . S
C391 C390 1.355 . S
C391 C393 1.419 . S
C392 C390 1.415 . S
C392 C397 1.425 1_556 S
C392 C399 1.409 1_556 S
C393 H385 0.930 . S
C393 C391 1.419 . S
C393 C394 1.362 . S
C394 H386 0.930 . S
C394 C393 1.362 . S
C394 C397 1.409 1_556 S
C395 H387 0.930 . S
C395 C396 1.355 . S
C395 C397 1.415 . S
C396 C395 1.355 . S
C396 C398 1.419 . S
C397 C392 1.425 1_554 S
C397 C394 1.409 1_554 S
C397 C395 1.415 . S
C398 H388 0.930 . S
C398 C396 1.419 . S
C398 C399 1.362 . S
C399 H389 0.930 . S
C399 C392 1.409 1_554 S
C399 C398 1.362 . S
H400 C406 0.930 . S
H401 C409 0.930 . S
H402 C410 0.930 . S
H403 C411 0.930 . S
H404 C414 0.930 . S
H405 C415 0.930 . S
C406 H400 0.930 . S
C406 C407 1.355 . S
C406 C408 1.415 . S
C407 C406 1.355 . S
C407 C409 1.419 . S
C408 C406 1.415 . S
C408 C413 1.425 1_554 S
C408 C415 1.409 1_554 S
C409 H401 0.930 . S
C409 C407 1.419 . S
C409 C410 1.362 . S
C410 H402 0.930 . S
C410 C409 1.362 . S
C410 C413 1.409 1_554 S
C411 H403 0.930 . S
C411 C412 1.355 . S
C411 C413 1.415 . S
C412 C411 1.355 . S
C412 C414 1.419 . S
C413 C408 1.425 1_556 S
C413 C410 1.409 1_556 S
C413 C411 1.415 . S
C414 H404 0.930 . S
C414 C412 1.419 . S
C414 C415 1.362 . S
C415 H405 0.930 . S
C415 C408 1.409 1_556 S
C415 C414 1.362 . S
H416 C422 0.930 . S
H417 C425 0.930 . S
H418 C426 0.930 . S
H419 C427 0.930 . S
H420 C430 0.930 . S
H421 C431 0.930 1_455 S
C422 H416 0.930 . S
C422 C423 1.355 . S
C422 C424 1.415 . S
C423 C422 1.355 . S
C423 C425 1.419 . S
C424 C422 1.415 . S
C424 C429 1.425 . S
C424 C431 1.409 1_455 S
C425 H417 0.930 . S
C425 C423 1.419 . S
C425 C426 1.362 . S
C426 H418 0.930 . S
C426 C425 1.362 . S
C426 C429 1.409 . S
C427 H419 0.930 . S
C427 C428 1.355 . S
C427 C429 1.415 1_655 S
C428 C427 1.355 . S
C428 C430 1.419 . S
C429 C424 1.425 . S
C429 C426 1.409 . S
C429 C427 1.415 1_455 S
C430 H420 0.930 . S
C430 C428 1.419 . S
C430 C431 1.362 . S
C431 H421 0.930 1_655 S
C431 C424 1.409 1_655 S
C431 C430 1.362 . S
H432 C438 0.930 . S
H433 C441 0.930 . S
H434 C442 0.930 . S
H435 C443 0.930 . S
H436 C446 0.930 . S
H437 C447 0.930 . S
C438 H432 0.930 . S
C438 C439 1.355 . S
C438 C440 1.440 . S
C439 C438 1.355 . S
C439 C441 1.419 . S
C440 C438 1.440 . S
C440 C445 1.419 1_565 S
C440 C447 1.391 1_565 S
C441 H433 0.930 . S
C441 C439 1.419 . S
C441 C442 1.362 . S
C442 H434 0.930 . S
C442 C441 1.362 . S
C442 C445 1.409 1_565 S
C443 H435 0.930 . S
C443 C444 1.355 . S
C443 C445 1.415 . S
C444 C443 1.355 . S
C444 C446 1.419 . S
C445 C440 1.419 1_545 S
C445 C442 1.409 1_545 S
C445 C443 1.415 . S
C446 H436 0.930 . S
C446 C444 1.419 . S
C446 C447 1.362 . S
C447 H437 0.930 . S
C447 C440 1.391 1_545 S
C447 C446 1.362 . S
H448 C454 0.930 . S
H449 C457 0.930 . S
H450 C458 0.930 . S
H451 C459 0.930 . S
H452 C462 0.930 . S
H453 C463 0.930 . S
C454 H448 0.930 . S
C454 C455 1.355 . S
C454 C456 1.415 . S
C455 C454 1.355 . S
C455 C457 1.419 . S
C456 C454 1.415 . S
C456 C461 1.425 1_655 S
C456 C463 1.409 1_655 S
C457 H449 0.930 . S
C457 C455 1.419 . S
C457 C458 1.362 . S
C458 H450 0.930 . S
C458 C457 1.362 . S
C458 C461 1.409 1_655 S
C459 H451 0.930 . S
C459 C460 1.355 . S
C459 C461 1.415 . S
C460 C459 1.355 . S
C460 C462 1.419 . S
C461 C456 1.425 1_455 S
C461 C458 1.409 1_455 S
C461 C459 1.415 . S
C462 H452 0.930 . S
C462 C460 1.419 . S
C462 C463 1.362 . S
C463 H453 0.930 . S
C463 C456 1.409 1_455 S
C463 C462 1.362 . S
H464 C470 0.930 . S
H465 C473 0.930 . S
H466 C474 0.930 . S
H467 C475 0.930 . S
H468 C478 0.930 . S
H469 C479 0.930 . S
C470 H464 0.930 . S
C470 C471 1.355 . S
C470 C472 1.415 . S
C471 C470 1.355 . S
C471 C473 1.419 . S
C472 C470 1.415 . S
C472 C477 1.425 1_545 S
C472 C479 1.409 1_545 S
C473 H465 0.930 . S
C473 C471 1.419 . S
C473 C474 1.362 . S
C474 H466 0.930 . S
C474 C473 1.362 . S
C474 C477 1.409 1_545 S
C475 H467 0.930 . S
C475 C476 1.355 . S
C475 C477 1.415 . S
C476 C475 1.355 . S
C476 C478 1.419 . S
C477 C472 1.425 1_565 S
C477 C474 1.409 1_565 S
C477 C475 1.415 . S
C478 H468 0.930 . S
C478 C476 1.419 . S
C478 C479 1.362 . S
C479 H469 0.930 . S
C479 C472 1.409 1_565 S
C479 C478 1.362 . S
H480 C486 0.930 . S
H481 C489 0.930 . S
H482 C490 0.930 . S
H483 C491 0.930 . S
H484 C494 0.930 . S
H485 C495 0.930 . S
C486 H480 0.930 . S
C486 C487 1.355 . S
C486 C488 1.415 . S
C487 C486 1.355 . S
C487 C489 1.419 . S
C488 C486 1.415 . S
C488 C493 1.425 1_655 S
C488 C495 1.409 1_655 S
C489 H481 0.930 . S
C489 C487 1.419 . S
C489 C490 1.362 . S
C490 H482 0.930 . S
C490 C489 1.362 . S
C490 C493 1.409 1_655 S
C491 H483 0.930 . S
C491 C492 1.355 . S
C491 C493 1.415 . S
C492 C491 1.355 . S
C492 C494 1.419 . S
C493 C488 1.425 1_455 S
C493 C490 1.409 1_455 S
C493 C491 1.415 . S
C494 H484 0.930 . S
C494 C492 1.419 . S
C494 C495 1.362 . S
C495 H485 0.930 . S
C495 C488 1.409 1_455 S
C495 C494 1.362 . S
H496 C502 0.930 . S
H497 C505 0.930 . S
H498 C506 0.930 . S
H499 C507 0.930 . S
H500 C510 0.930 . S
H501 C511 0.930 . S
C502 H496 0.930 . S
C502 C503 1.355 . S
C502 C504 1.415 . S
C503 C502 1.355 . S
C503 C505 1.419 . S
C504 C502 1.415 . S
C504 C509 1.425 1_565 S
C504 C511 1.409 1_565 S
C505 H497 0.930 . S
C505 C503 1.419 . S
C505 C506 1.362 . S
C506 H498 0.930 . S
C506 C505 1.362 . S
C506 C509 1.409 1_565 S
C507 H499 0.930 . S
C507 C508 1.355 . S
C507 C509 1.415 . S
C508 C507 1.355 . S
C508 C510 1.419 . S
C509 C504 1.425 1_545 S
C509 C506 1.409 1_545 S
C509 C507 1.415 . S
C510 H500 0.930 . S
C510 C508 1.419 . S
C510 C511 1.362 . S
C511 H501 0.930 . S
C511 C504 1.409 1_545 S
C511 C510 1.362 . S
H512 C518 0.930 . S
H513 C521 0.930 . S
H514 C522 0.930 . S
H515 C523 0.930 . S
H516 C526 0.930 . S
H517 C527 0.930 . S
C518 H512 0.930 . S
C518 C519 1.355 . S
C518 C520 1.450 . S
C519 C518 1.355 . S
C519 C521 1.419 . S
C520 C518 1.450 . S
C520 C525 1.415 1_455 S
C520 C527 1.384 1_455 S
C521 H513 0.930 . S
C521 C519 1.419 . S
C521 C522 1.362 . S
C522 H514 0.930 . S
C522 C521 1.362 . S
C522 C525 1.409 1_455 S
C523 H515 0.930 . S
C523 C524 1.355 . S
C523 C525 1.415 . S
C524 C523 1.355 . S
C524 C526 1.419 . S
C525 C520 1.415 1_655 S
C525 C522 1.409 1_655 S
C525 C523 1.415 . S
C526 H516 0.930 . S
C526 C524 1.419 . S
C526 C527 1.362 . S
C527 H517 0.930 . S
C527 C520 1.384 1_655 S
C527 C526 1.362 . S
H528 C534 0.930 . S
H529 C537 0.930 . S
H530 C538 0.930 . S
H531 C539 0.930 . S
H532 C542 0.930 . S
H533 C543 0.930 . S
C534 H528 0.930 . S
C534 C535 1.355 . S
C534 C536 1.415 . S
C535 C534 1.355 . S
C535 C537 1.419 . S
C536 C534 1.415 . S
C536 C541 1.425 . S
C536 C543 1.409 1_565 S
C537 H529 0.930 . S
C537 C535 1.419 . S
C537 C538 1.362 . S
C538 H530 0.930 . S
C538 C537 1.362 . S
C538 C541 1.409 . S
C539 H531 0.930 . S
C539 C540 1.355 . S
C539 C541 1.415 1_545 S
C540 C539 1.355 . S
C540 C542 1.419 . S
C541 C536 1.425 . S
C541 C538 1.409 . S
C541 C539 1.415 1_565 S
C542 H532 0.930 . S
C542 C540 1.419 . S
C542 C543 1.362 . S
C543 H533 0.930 . S
C543 C536 1.409 1_545 S
C543 C542 1.362 . S
H544 C550 0.930 . S
H545 C553 0.930 . S
H546 C554 0.930 . S
H547 C555 0.930 . S
H548 C558 0.930 . S
H549 C559 0.930 . S
C550 H544 0.930 . S
C550 C551 1.355 . S
C550 C552 1.415 . S
C551 C550 1.355 . S
C551 C553 1.419 . S
C552 C550 1.415 . S
C552 C557 1.425 . S
C552 C559 1.409 . S
C553 H545 0.930 . S
C553 C551 1.419 . S
C553 C554 1.362 . S
C554 H546 0.930 . S
C554 C553 1.362 . S
C554 C557 1.409 . S
C555 H547 0.930 . S
C555 C556 1.355 . S
C555 C557 1.415 . S
C556 C555 1.355 . S
C556 C558 1.419 . S
C557 C552 1.425 . S
C557 C554 1.409 . S
C557 C555 1.415 . S
C558 H548 0.930 . S
C558 C556 1.419 . S
C558 C559 1.362 . S
C559 H549 0.930 . S
C559 C552 1.409 . S
C559 C558 1.362 . S
H560 C566 0.930 . S
H561 C569 0.930 . S
H562 C570 0.930 . S
H563 C571 0.930 . S
H564 C574 0.930 . S
H565 C575 0.930 . S
C566 H560 0.930 . S
C566 C567 1.355 . S
C566 C568 1.415 . S
C567 C566 1.355 . S
C567 C569 1.419 . S
C568 C566 1.415 . S
C568 C573 1.425 . S
C568 C575 1.409 . S
C569 H561 0.930 . S
C569 C567 1.419 . S
C569 C570 1.362 . S
C570 H562 0.930 . S
C570 C569 1.362 . S
C570 C573 1.409 . S
C571 H563 0.930 . S
C571 C572 1.355 . S
C571 C573 1.415 . S
C572 C571 1.355 . S
C572 C574 1.419 . S
C573 C568 1.425 . S
C573 C570 1.409 . S
C573 C571 1.415 . S
C574 H564 0.930 . S
C574 C572 1.419 . S
C574 C575 1.362 . S
C575 H565 0.930 . S
C575 C568 1.409 . S
C575 C574 1.362 . S
H576 C582 0.930 . S
H577 C585 0.930 . S
H578 C586 0.930 . S
H579 C587 0.930 . S
H580 C590 0.930 . S
H581 C591 0.930 . S
C582 H576 0.930 . S
C582 C583 1.355 . S
C582 C584 1.415 . S
C583 C582 1.355 . S
C583 C585 1.419 . S
C584 C582 1.415 . S
C584 C589 1.425 . S
C584 C591 1.409 . S
C585 H577 0.930 . S
C585 C583 1.419 . S
C585 C586 1.362 . S
C586 H578 0.930 . S
C586 C585 1.362 . S
C586 C589 1.409 . S
C587 H579 0.930 . S
C587 C588 1.355 . S
C587 C589 1.415 . S
C588 C587 1.355 . S
C588 C590 1.419 . S
C589 C584 1.425 . S
C589 C586 1.409 . S
C589 C587 1.415 . S
C590 H580 0.930 . S
C590 C588 1.419 . S
C590 C591 1.362 . S
C591 H581 0.930 . S
C591 C584 1.409 . S
C591 C590 1.362 . S
H592 C598 0.930 . S
H593 C601 0.930 . S
H594 C602 0.930 . S
H595 C603 0.930 . S
H596 C606 0.930 . S
H597 C607 0.930 . S
C598 H592 0.930 . S
C598 C599 1.355 . S
C598 C600 1.415 . S
C599 C598 1.355 . S
C599 C601 1.419 . S
C600 C598 1.415 . S
C600 C605 1.425 . S
C600 C607 1.409 . S
C601 H593 0.930 . S
C601 C599 1.419 . S
C601 C602 1.362 . S
C602 H594 0.930 . S
C602 C601 1.362 . S
C602 C605 1.409 . S
C603 H595 0.930 . S
C603 C604 1.355 . S
C603 C605 1.415 . S
C604 C603 1.355 . S
C604 C606 1.419 . S
C605 C600 1.425 . S
C605 C602 1.409 . S
C605 C603 1.415 . S
C606 H596 0.930 . S
C606 C604 1.419 . S
C606 C607 1.362 . S
C607 H597 0.930 . S
C607 C600 1.409 . S
C607 C606 1.362 . S
H608 C614 0.930 . S
H609 C617 0.930 . S
H610 C618 0.930 . S
H611 C619 0.930 . S
H612 C622 0.930 . S
H613 C623 0.930 . S
C614 H608 0.930 . S
C614 C615 1.355 . S
C614 C616 1.415 . S
C615 C614 1.355 . S
C615 C617 1.419 . S
C616 C614 1.415 . S
C616 C621 1.425 . S
C616 C623 1.409 . S
C617 H609 0.930 . S
C617 C615 1.419 . S
C617 C618 1.362 . S
C618 H610 0.930 . S
C618 C617 1.362 . S
C618 C621 1.409 . S
C619 H611 0.930 . S
C619 C620 1.355 . S
C619 C621 1.415 . S
C620 C619 1.355 . S
C620 C622 1.419 . S
C621 C616 1.425 . S
C621 C618 1.409 . S
C621 C619 1.415 . S
C622 H612 0.930 . S
C622 C620 1.419 . S
C622 C623 1.362 . S
C623 H613 0.930 . S
C623 C616 1.409 . S
C623 C622 1.362 . S
H624 C630 0.930 . S
H625 C633 0.930 . S
H626 C634 0.930 . S
H627 C635 0.930 . S
H628 C638 0.930 . S
H629 C639 0.930 . S
C630 H624 0.930 . S
C630 C631 1.355 . S
C630 C632 1.415 . S
C631 C630 1.355 . S
C631 C633 1.419 . S
C632 C630 1.415 . S
C632 C637 1.425 . S
C632 C639 1.409 . S
C633 H625 0.930 . S
C633 C631 1.419 . S
C633 C634 1.362 . S
C634 H626 0.930 . S
C634 C633 1.362 . S
C634 C637 1.409 . S
C635 H627 0.930 . S
C635 C636 1.355 . S
C635 C637 1.415 . S
C636 C635 1.355 . S
C636 C638 1.419 . S
C637 C632 1.425 . S
C637 C634 1.409 . S
C637 C635 1.415 . S
C638 H628 0.930 . S
C638 C636 1.419 . S
C638 C639 1.362 . S
C639 H629 0.930 . S
C639 C632 1.409 . S
C639 C638 1.362 . S
H640 C646 0.930 . S
H641 C649 0.930 . S
H642 C650 0.930 . S
H643 C651 0.930 . S
H644 C654 0.930 . S
H645 C655 0.930 . S
C646 H640 0.930 . S
C646 C647 1.355 . S
C646 C648 1.415 . S
C647 C646 1.355 . S
C647 C649 1.419 . S
C648 C646 1.415 . S
C648 C653 1.425 . S
C648 C655 1.409 . S
C649 H641 0.930 . S
C649 C647 1.419 . S
C649 C650 1.362 . S
C650 H642 0.930 . S
C650 C649 1.362 . S
C650 C653 1.409 . S
C651 H643 0.930 . S
C651 C652 1.355 . S
C651 C653 1.415 . S
C652 C651 1.355 . S
C652 C654 1.419 . S
C653 C648 1.425 . S
C653 C650 1.409 . S
C653 C651 1.415 . S
C654 H644 0.930 . S
C654 C652 1.419 . S
C654 C655 1.362 . S
C655 H645 0.930 . S
C655 C648 1.409 . S
C655 C654 1.362 . S
H656 C662 0.930 . S
H657 C665 0.930 . S
H658 C666 0.930 . S
H659 C667 0.930 . S
H660 C670 0.930 . S
H661 C671 0.930 . S
C662 H656 0.930 . S
C662 C663 1.355 . S
C662 C664 1.415 . S
C663 C662 1.355 . S
C663 C665 1.419 . S
C664 C662 1.415 . S
C664 C669 1.425 . S
C664 C671 1.409 . S
C665 H657 0.930 . S
C665 C663 1.419 . S
C665 C666 1.362 . S
C666 H658 0.930 . S
C666 C665 1.362 . S
C666 C669 1.409 . S
C667 H659 0.930 . S
C667 C668 1.355 . S
C667 C669 1.415 . S
C668 C667 1.355 . S
C668 C670 1.419 . S
C669 C664 1.425 . S
C669 C666 1.409 . S
C669 C667 1.415 . S
C670 H660 0.930 . S
C670 C668 1.419 . S
C670 C671 1.362 . S
C671 H661 0.930 . S
C671 C664 1.409 . S
C671 C670 1.362 . S
H672 C678 0.930 . S
H673 C681 0.930 . S
H674 C682 0.930 . S
H675 C683 0.930 . S
H676 C686 0.930 . S
H677 C687 0.930 . S
C678 H672 0.930 . S
C678 C679 1.355 . S
C678 C680 1.415 . S
C679 C678 1.355 . S
C679 C681 1.419 . S
C680 C678 1.415 . S
C680 C685 1.425 . S
C680 C687 1.409 . S
C681 H673 0.930 . S
C681 C679 1.419 . S
C681 C682 1.362 . S
C682 H674 0.930 . S
C682 C681 1.362 . S
C682 C685 1.409 . S
C683 H675 0.930 . S
C683 C684 1.355 . S
C683 C685 1.415 . S
C684 C683 1.355 . S
C684 C686 1.419 . S
C685 C680 1.425 . S
C685 C682 1.409 . S
C685 C683 1.415 . S
C686 H676 0.930 . S
C686 C684 1.419 . S
C686 C687 1.362 . S
C687 H677 0.930 . S
C687 C680 1.409 . S
C687 C686 1.362 . S
H688 C694 0.930 . S
H689 C697 0.930 . S
H690 C698 0.930 . S
H691 C699 0.930 . S
H692 C702 0.930 . S
H693 C703 0.930 . S
C694 H688 0.930 . S
C694 C695 1.355 . S
C694 C696 1.415 . S
C695 C694 1.355 . S
C695 C697 1.419 . S
C696 C694 1.415 . S
C696 C701 1.425 . S
C696 C703 1.409 . S
C697 H689 0.930 . S
C697 C695 1.419 . S
C697 C698 1.362 . S
C698 H690 0.930 . S
C698 C697 1.362 . S
C698 C701 1.409 . S
C699 H691 0.930 . S
C699 C700 1.355 . S
C699 C701 1.415 . S
C700 C699 1.355 . S
C700 C702 1.419 . S
C701 C696 1.425 . S
C701 C698 1.409 . S
C701 C699 1.415 . S
C702 H692 0.930 . S
C702 C700 1.419 . S
C702 C703 1.362 . S
C703 H693 0.930 . S
C703 C696 1.409 . S
C703 C702 1.362 . S
H704 C710 0.930 . S
H705 C713 0.930 . S
H706 C714 0.930 . S
H707 C715 0.930 . S
H708 C718 0.930 . S
H709 C719 0.930 . S
C710 H704 0.930 . S
C710 C711 1.355 . S
C710 C712 1.415 . S
C711 C710 1.355 . S
C711 C713 1.419 . S
C712 C710 1.415 . S
C712 C717 1.425 . S
C712 C719 1.409 . S
C713 H705 0.930 . S
C713 C711 1.419 . S
C713 C714 1.362 . S
C714 H706 0.930 . S
C714 C713 1.362 . S
C714 C717 1.409 . S
C715 H707 0.930 . S
C715 C716 1.355 . S
C715 C717 1.415 . S
C716 C715 1.355 . S
C716 C718 1.419 . S
C717 C712 1.425 . S
C717 C714 1.409 . S
C717 C715 1.415 . S
C718 H708 0.930 . S
C718 C716 1.419 . S
C718 C719 1.362 . S
C719 H709 0.930 . S
C719 C712 1.409 . S
C719 C718 1.362 . S
H720 C726 0.930 . S
H721 C729 0.930 . S
H722 C730 0.930 . S
H723 C731 0.930 . S
H724 C734 0.930 . S
H725 C735 0.930 . S
C726 H720 0.930 . S
C726 C727 1.355 . S
C726 C728 1.415 . S
C727 C726 1.355 . S
C727 C729 1.419 . S
C728 C726 1.415 . S
C728 C733 1.425 . S
C728 C735 1.409 . S
C729 H721 0.930 . S
C729 C727 1.419 . S
C729 C730 1.362 . S
C730 H722 0.930 . S
C730 C729 1.362 . S
C730 C733 1.409 . S
C731 H723 0.930 . S
C731 C732 1.355 . S
C731 C733 1.415 . S
C732 C731 1.355 . S
C732 C734 1.419 . S
C733 C728 1.425 . S
C733 C730 1.409 . S
C733 C731 1.415 . S
C734 H724 0.930 . S
C734 C732 1.419 . S
C734 C735 1.362 . S
C735 H725 0.930 . S
C735 C728 1.409 . S
C735 C734 1.362 . S
C231 C215 0.924 . S
C236 C5 0.932 . S
C247 C173 0.886 . S
C252 C19 1.023 . S
C263 C33 0.802 . S
C268 C187 0.939 . S
C279 C201 1.008 . S
C284 C47 0.958 . S
C295 C131 0.859 . S
C300 C61 0.889 . S
C311 C75 0.981 . S
C316 C145 0.955 . S
C327 C89 1.005 . S
C332 C159 0.849 . S
C343 C103 0.866 . S
C348 C117 0.785 . S
C359 C82 1.333 . S
C364 C12 1.353 . S
C375 C88 1.557 . S
C380 C18 1.480 . S
C391 C110 1.353 . S
C396 C40 1.328 . S
C407 C53 1.373 . S
C412 C67 1.302 . S
C423 C4 1.378 . S
C428 C26 1.433 . S
C439 C39 1.311 . S
C444 C25 1.331 . S
C455 C32 1.412 . S
C460 C46 1.502 . S
C471 C11 1.278 . S
C476 C54 1.320 . S
C487 C109 1.288 . S
C492 C68 1.332 . S
C503 C60 1.453 . S
C508 C74 1.462 . S
C519 C81 1.345 . S
C524 C95 1.301 . S
C535 C102 1.311 . S
C540 C96 1.437 . S
C551 C194 1.320 . S
C556 C124 1.349 . S
C567 C130 1.472 . S
C572 C200 1.561 . S
C583 C222 1.318 . S
C588 C152 1.347 . S
C599 C179 1.382 . S
C604 C165 1.299 . S
C615 C116 1.350 . S
C620 C138 1.422 . S
C631 C137 1.330 . S
C636 C151 1.332 . S
C647 C158 1.416 . S
C652 C144 1.498 . S
C663 C123 1.260 . S
C668 C166 1.328 . S
C679 C221 1.296 . S
C684 C180 1.313 . S
C695 C172 1.467 . S
C700 C186 1.448 . S
C711 C193 1.346 . S
C716 C207 1.300 . S
C727 C214 1.334 . S
C732 C208 1.446 . S
