# Generated by pormake.
# Topology smm, (6)-cn, num edge types: 1
# Building blocks:
#     Node 0, Type 0, BuildingBlock: BETFEN_clean_sbu_0, # of connection points: 6
#     Node 1, Type 0, BuildingBlock: BETFEN_clean_sbu_0, # of connection points: 6
#     Node 2, Type 0, BuildingBlock: BETFEN_clean_sbu_0, # of connection points: 6
#     Node 3, Type 0, BuildingBlock: BETFEN_clean_sbu_0, # of connection points: 6
#     Node 4, Type 0, BuildingBlock: BETFEN_clean_sbu_0, # of connection points: 6
#     Node 5, Type 0, BuildingBlock: BETFEN_clean_sbu_0, # of connection points: 6
#     Node 6, Type 0, BuildingBlock: BETFEN_clean_sbu_0, # of connection points: 6
#     Node 7, Type 0, BuildingBlock: BETFEN_clean_sbu_0, # of connection points: 6
#     Node 8, Type 0, BuildingBlock: BETFEN_clean_sbu_0, # of connection points: 6
#     Edge 9, Type (0, 0), BuildingBlock: TEMPAE_clean_linker_10, # of connection points: 2
#     Edge 10, Type (0, 0), BuildingBlock: TEMPAE_clean_linker_10, # of connection points: 2
#     Edge 11, Type (0, 0), BuildingBlock: TEMPAE_clean_linker_10, # of connection points: 2
#     Edge 12, Type (0, 0), BuildingBlock: TEMPAE_clean_linker_10, # of connection points: 2
#     Edge 13, Type (0, 0), BuildingBlock: TEMPAE_clean_linker_10, # of connection points: 2
#     Edge 14, Type (0, 0), BuildingBlock: TEMPAE_clean_linker_10, # of connection points: 2
#     Edge 15, Type (0, 0), BuildingBlock: TEMPAE_clean_linker_10, # of connection points: 2
#     Edge 16, Type (0, 0), BuildingBlock: TEMPAE_clean_linker_10, # of connection points: 2
#     Edge 17, Type (0, 0), BuildingBlock: TEMPAE_clean_linker_10, # of connection points: 2
#     Edge 18, Type (0, 0), BuildingBlock: TEMPAE_clean_linker_10, # of connection points: 2
#     Edge 19, Type (0, 0), BuildingBlock: TEMPAE_clean_linker_10, # of connection points: 2
#     Edge 20, Type (0, 0), BuildingBlock: TEMPAE_clean_linker_10, # of connection points: 2
#     Edge 21, Type (0, 0), BuildingBlock: TEMPAE_clean_linker_10, # of connection points: 2
#     Edge 22, Type (0, 0), BuildingBlock: TEMPAE_clean_linker_10, # of connection points: 2
#     Edge 23, Type (0, 0), BuildingBlock: TEMPAE_clean_linker_10, # of connection points: 2
#     Edge 24, Type (0, 0), BuildingBlock: TEMPAE_clean_linker_10, # of connection points: 2
#     Edge 25, Type (0, 0), BuildingBlock: TEMPAE_clean_linker_10, # of connection points: 2
#     Edge 26, Type (0, 0), BuildingBlock: TEMPAE_clean_linker_10, # of connection points: 2
#     Edge 27, Type (0, 0), BuildingBlock: TEMPAE_clean_linker_10, # of connection points: 2
#     Edge 28, Type (0, 0), BuildingBlock: TEMPAE_clean_linker_10, # of connection points: 2
#     Edge 29, Type (0, 0), BuildingBlock: TEMPAE_clean_linker_10, # of connection points: 2
#     Edge 30, Type (0, 0), BuildingBlock: TEMPAE_clean_linker_10, # of connection points: 2
#     Edge 31, Type (0, 0), BuildingBlock: TEMPAE_clean_linker_10, # of connection points: 2
#     Edge 32, Type (0, 0), BuildingBlock: TEMPAE_clean_linker_10, # of connection points: 2
#     Edge 33, Type (0, 0), BuildingBlock: TEMPAE_clean_linker_10, # of connection points: 2
#     Edge 34, Type (0, 0), BuildingBlock: TEMPAE_clean_linker_10, # of connection points: 2
#     Edge 35, Type (0, 0), BuildingBlock: TEMPAE_clean_linker_10, # of connection points: 2
# Relax obj value: 0.110
# Max RMSD: 0.189
# Mean RMSD: 0.159
data_MOF--net-smm--node1-BETFEN_clean_sbu_0--edge1-TEMPAE_clean_linker_10
_symmetry_space_group_name_H-M    P1
_symmetry_Int_Tables_number       1
_symmetry_cell_setting            triclinic
loop_
_symmetry_equiv_pos_as_xyz
'x, y, z'
_cell_length_a     61.623938
_cell_length_b     79.64196
_cell_length_c     14.633901
_cell_angle_alpha  92.808674
_cell_angle_beta   93.973991
_cell_angle_gamma 122.3693
loop_
_atom_site_label
_atom_site_type_symbol
_atom_site_fract_x
_atom_site_fract_y
_atom_site_fract_z
_atom_type_partial_charge
Pr0 Pr 0.09779 0.23341 0.05908 0.0
Pr1 Pr 1.04622 0.19415 0.07856 0.0
C2 C 0.13586 0.26687 -0.00323 0.0
C3 C 0.14791 0.2884 -0.01432 0.0
C4 C 0.16793 0.303 0.05087 0.0
C5 C 0.18213 0.32307 0.03365 0.0
C6 C 0.17677 0.32899 0.95054 0.0
C7 C 0.1561 0.31449 0.88691 0.0
C8 C 0.14189 0.29442 0.90414 0.0
C9 C 0.09003 0.22475 0.23972 0.0
C10 C 1.04422 0.23476 0.0824 0.0
C11 C 1.00966 0.15732 0.11792 0.0
C12 C 1.00678 0.13751 0.11061 0.0
C13 C 0.98455 0.12091 0.06163 0.0
C14 C 0.9821 0.10235 0.05009 0.0
C15 C 1.00184 0.09991 0.08736 0.0
C16 C 1.02393 0.11654 0.13771 0.0
C17 C 1.0264 0.13509 0.14903 0.0
C18 C 1.0559 0.20349 0.89917 0.0
C19 C 0.10053 0.19353 0.06945 0.0
O20 O 0.11401 0.25391 0.94665 0.0
O21 O 0.13789 0.26158 0.07869 0.0
O22 O 0.0727 0.2221 0.17871 0.0
O23 O 0.11282 0.23419 0.21154 0.0
O24 O 1.03244 0.21631 0.10721 0.0
O25 O 0.06748 0.24334 0.05323 0.0
O26 O 1.02763 0.17111 0.17983 0.0
O27 O 1.00821 0.16435 0.04035 0.0
O28 O 0.07204 0.20498 0.96191 0.0
O29 O 1.0333 0.19648 0.92732 0.0
O30 O 0.11218 0.21159 0.04154 0.0
O31 O 0.077 0.18496 0.09523 0.0
H32 H 0.17336 0.29884 0.11372 0.0
H33 H 0.19812 0.3338 0.08364 0.0
H34 H 0.15128 0.3186 0.8227 0.0
H35 H 0.12677 0.28354 0.85198 0.0
H36 H 0.96911 0.12232 0.03149 0.0
H37 H 0.9646 0.08987 0.01232 0.0
H38 H 1.03962 0.11535 0.16697 0.0
H39 H 1.04386 0.14759 0.18692 0.0
Pr40 Pr 0.9611 0.83355 -0.0038 0.0
Pr41 Pr 0.95845 0.87104 0.95962 0.0
C42 C 0.955 0.79886 0.05295 0.0
C43 C 0.94293 0.7763 0.04616 0.0
C44 C 0.95877 0.76873 0.06348 0.0
C45 C 0.9483 0.748 0.06562 0.0
C46 C 0.92136 0.73369 0.05004 0.0
C47 C 0.90547 0.74129 0.03107 0.0
C48 C 0.916 0.76214 0.02984 0.0
C49 C 0.96227 0.84169 0.81338 0.0
C50 C 0.90332 0.82962 0.94253 0.0
C51 C 0.96124 0.90424 0.90724 0.0
C52 C 0.96935 0.92508 0.93705 0.0
C53 C 0.96294 0.93006 0.0201 0.0
C54 C 0.96833 0.94939 0.04179 0.0
C55 C 0.98028 0.9642 -0.01893 0.0
C56 C 0.98734 0.95927 0.89933 0.0
C57 C 0.98189 0.93995 0.87761 0.0
C58 C 0.9583 0.86329 0.14424 0.0
C59 C 1.01647 0.87865 -0.0111 0.0
O60 O 0.94194 0.80648 0.0797 0.0
O61 O 0.97186 0.8099 -0.00228 0.0
O62 O 0.948 0.84284 0.86741 0.0
O63 O 0.97524 0.83477 0.85069 0.0
O64 O 0.91665 0.84622 0.90342 0.0
O65 O 0.91567 0.82273 -0.00916 0.0
O66 O 0.97915 0.90049 0.89489 0.0
O67 O 0.94134 0.8898 0.94152 0.0
O68 O 0.97179 0.8615 0.08876 0.0
O69 O 0.94659 0.87128 0.10831 0.0
O70 O 1.00611 0.86187 0.03185 0.0
O71 O 1.00117 0.88251 0.94011 0.0
H72 H 0.97953 0.77899 0.0771 0.0
H73 H 0.96155 0.7432 0.07918 0.0
H74 H 0.88468 0.73114 0.0194 0.0
H75 H 0.90296 0.76717 0.01713 0.0
H76 H 0.9533 0.91893 0.06749 0.0
H77 H 0.96296 0.95269 0.10597 0.0
H78 H 0.9963 0.97016 0.85038 0.0
H79 H 0.98685 0.93646 0.81285 0.0
Pr80 Pr 0.26183 1.03137 -0.00338 0.0
Pr81 Pr 0.2395 0.05698 0.04407 0.0
C82 C 0.28292 1.01233 0.92165 0.0
C83 C 0.30289 1.00732 0.92187 0.0
C84 C 0.29473 0.98721 0.90352 0.0
C85 C 0.31268 0.98171 0.89664 0.0
C86 C 0.33939 0.99621 0.90789 0.0
C87 C 0.34765 1.01641 0.92809 0.0
C88 C 0.32956 1.02194 0.93457 0.0
C89 C 0.25771 1.03594 0.18329 0.0
C90 C 0.30351 0.082 0.03325 0.0
C91 C 0.21435 0.07408 0.10583 0.0
C92 C 0.20637 0.08859 0.09131 0.0
C93 C 0.18615 0.08415 0.02349 0.0
C94 C 0.17648 0.09657 0.01786 0.0
C95 C 0.18665 0.11385 0.07999 0.0
C96 C 0.20732 0.11853 0.14642 0.0
C97 C 0.21695 0.10606 0.15215 0.0
C98 C 0.24381 0.05254 0.85742 0.0
C99 C 0.19996 1.00649 0.01818 0.0
O100 O 0.2886 1.02997 0.90149 0.0
O101 O 0.26608 1.0048 -0.01882 0.0
O102 O 0.26526 0.04962 0.13084 0.0
O103 O 0.25399 1.01967 0.14226 0.0
O104 O 0.28422 0.0832 0.0611 0.0
O105 O 0.29935 0.06445 0.00156 0.0
O106 O 0.20344 0.05777 0.04923 0.0
O107 O 0.23843 0.08071 0.13496 0.0
O108 O 0.23636 0.03887 0.91008 0.0
O109 O 0.24711 0.06868 0.89849 0.0
O110 O 0.21712 1.0068 0.96743 0.0
O111 O 0.2059 1.02326 0.06707 0.0
H112 H 0.27429 0.97566 0.8932 0.0
H113 H 0.30557 0.96601 0.88275 0.0
H114 H 0.36806 1.02798 0.93685 0.0
H115 H 0.3364 0.03759 0.94842 0.0
H116 H 0.17719 0.07071 0.97608 0.0
H117 H 0.16036 0.0922 0.96655 0.0
H118 H 0.216 0.1318 0.19474 0.0
H119 H 0.23232 0.10985 0.20588 0.0
Pr120 Pr 0.78477 0.53829 0.1071 0.0
Pr121 Pr 0.8316 0.5355 0.08074 0.0
C122 C 0.75143 0.54647 0.17295 0.0
C123 C 0.75181 0.56409 0.2095 0.0
C124 C 0.72868 0.56351 0.20594 0.0
C125 C 0.72849 0.57983 0.24392 0.0
C126 C 0.75147 0.59699 0.28619 0.0
C127 C 0.77478 0.59771 0.28758 0.0
C128 C 0.77493 0.58133 0.24962 0.0
C129 C 0.79112 0.53322 0.92435 0.0
C130 C 0.84096 0.58128 0.09217 0.0
C131 C 0.86579 0.52561 0.03635 0.0
C132 C 0.87298 0.51085 0.05476 0.0
C133 C 0.89764 0.51526 0.03899 0.0
C134 C 0.90488 0.50153 0.05417 0.0
C135 C 0.88764 0.48291 0.08578 0.0
C136 C 0.86293 0.47862 0.10239 0.0
C137 C 0.85568 0.49239 0.08697 0.0
C138 C 0.82342 0.53945 0.26226 0.0
C139 C 0.77117 0.49247 0.08169 0.0
O140 O 0.76487 0.54139 0.22408 0.0
O141 O 0.75357 0.54504 0.08503 0.0
O142 O 0.80933 0.54444 -0.01362 0.0
O143 O 0.76854 0.52531 0.95389 0.0
O144 O 0.84913 0.57018 0.05538 0.0
O145 O 0.81912 0.57238 0.13065 0.0
O146 O 0.8437 0.51906 -0.01307 0.0
O147 O 0.8708 0.53897 0.10404 0.0
O148 O 0.80635 0.52807 0.1979 0.0
O149 O 0.84625 0.54927 0.23495 0.0
O150 O 0.76263 0.50377 0.10806 0.0
O151 O 0.79552 0.5008 0.06219 0.0
H152 H 0.71071 0.55033 0.17473 0.0
H153 H 0.71031 0.57899 0.24057 0.0
H154 H 0.79273 0.61067 0.32026 0.0
H155 H 0.79298 0.58199 0.25308 0.0
H156 H 0.91141 0.5294 0.01456 0.0
H157 H 0.92418 0.50565 0.04192 0.0
H158 H 0.84895 0.46443 0.1258 0.0
H159 H 0.83652 0.48856 0.09973 0.0
Pr160 Pr 0.55222 0.20443 0.13364 0.0
Pr161 Pr 0.55281 0.24236 0.09322 0.0
C162 C 0.54905 0.17329 0.21078 0.0
C163 C 0.5363 0.15288 0.24008 0.0
C164 C 0.5343 0.13725 0.18333 0.0
C165 C 0.5277 0.11927 0.21828 0.0
C166 C 0.52311 0.11657 0.31086 0.0
C167 C 0.52353 0.13174 0.36589 0.0
C168 C 0.53013 0.14972 0.33097 0.0
C169 C 0.55199 0.21046 0.9471 0.0
C170 C 0.49478 0.19973 0.09556 0.0
C171 C 0.5671 0.27935 0.04445 0.0
C172 C 0.59061 0.30049 0.05031 0.0
C173 C 0.5982 0.31416 0.12917 0.0
C174 C 0.61919 0.33421 0.13198 0.0
C175 C 0.6334 0.3415 0.05584 0.0
C176 C 0.62587 0.32772 0.97727 0.0
C177 C 0.60491 0.30767 0.97454 0.0
C178 C 0.55317 0.23534 0.27754 0.0
C179 C 0.60882 0.24333 0.11869 0.0
O180 O 0.54682 0.18681 0.25587 0.0
O181 O 0.55267 0.17612 0.1243 0.0
O182 O 0.5393 0.21354 0.0023 0.0
O183 O 0.56367 0.20261 -0.01426 0.0
O184 O 0.50675 0.21746 0.06068 0.0
O185 O 0.50842 0.19333 0.13683 0.0
O186 O 0.56626 0.26555 -0.01083 0.0
O187 O 0.55658 0.27239 0.11969 0.0
O188 O 0.56685 0.23381 0.22171 0.0
O189 O 0.53864 0.24086 0.23919 0.0
O190 O 0.59656 0.22666 0.15793 0.0
O191 O 0.59608 0.25089 0.08116 0.0
H192 H 0.53911 0.13925 0.11323 0.0
H193 H 0.52717 0.10775 0.17378 0.0
H194 H 0.52036 0.13024 0.43773 0.0
H195 H 0.53183 0.16156 0.37693 0.0
H196 H 0.58767 0.30947 0.18877 0.0
H197 H 0.62382 0.34414 0.19353 0.0
H198 H 0.63626 0.33237 0.91735 0.0
H199 H 0.59972 0.2978 0.91218 0.0
Pr200 Pr 0.9827 0.36896 0.20138 0.0
Pr201 Pr 0.92601 0.33451 0.13507 0.0
C202 C 1.03161 0.39368 0.28164 0.0
C203 C 0.05879 0.40742 0.32389 0.0
C204 C 0.07871 0.41752 0.26781 0.0
C205 C 0.10448 0.43 0.30648 0.0
C206 C 0.11112 0.43272 0.40245 0.0
C207 C 0.09111 0.42273 0.45872 0.0
C208 C 0.06525 0.41022 0.41988 0.0
C209 C 0.96868 0.36321 0.01288 0.0
C210 C 0.96918 0.32225 0.15326 0.0
C211 C 0.87668 0.31089 0.0543 0.0
C212 C 0.85043 0.30695 0.06259 0.0
C213 C 0.84023 0.30413 0.14765 0.0
C214 C 0.81487 0.29935 0.15287 0.0
C215 C 0.79903 0.29728 0.07324 0.0
C216 C 0.80957 0.30053 -0.01144 0.0
C217 C 0.83489 0.30527 -0.01661 0.0
C218 C 0.93887 0.3404 0.32459 0.0
C219 C 0.94108 0.38239 0.1679 0.0
O220 O 1.01189 0.38506 0.32969 0.0
O221 O 1.02563 0.3896 0.19242 0.0
O222 O 0.96283 0.34941 0.06376 0.0
O223 O 0.98282 0.38083 0.05829 0.0
O224 O 0.94743 0.31785 0.10484 0.0
O225 O 0.98342 0.33938 0.20684 0.0
O226 O 0.89372 0.32783 0.02462 0.0
O227 O 0.88677 0.3055 0.11909 0.0
O228 O 0.94582 0.35417 0.27281 0.0
O229 O 0.92257 0.32299 0.28057 0.0
O230 O 0.964 0.38804 0.21042 0.0
O231 O 0.92492 0.36381 0.12942 0.0
H232 H 0.07444 0.41578 0.19364 0.0
H233 H 0.1192 0.43772 0.2609 0.0
H234 H 0.09545 0.42432 0.53279 0.0
H235 H 1.05037 0.40258 0.46502 0.0
H236 H 0.8517 0.30535 0.21012 0.0
H237 H 0.80748 0.29676 0.2192 0.0
H238 H 0.79826 0.29944 0.92592 0.0
H239 H 0.84226 0.30742 0.91699 0.0
Pr240 Pr 0.50399 0.93744 0.87784 0.0
Pr241 Pr 0.45392 0.89879 0.90326 0.0
C242 C 0.53854 0.97157 0.81024 0.0
C243 C 0.5358 0.98551 0.75586 0.0
C244 C 0.55734 1.00449 0.747 0.0
C245 C 0.55456 1.01782 0.69635 0.0
C246 C 0.5301 1.0124 0.65417 0.0
C247 C 0.50858 0.99326 0.66313 0.0
C248 C 0.51145 0.97995 0.71312 0.0
C249 C 0.4968 0.93055 0.06147 0.0
C250 C 0.44956 0.93704 0.88968 0.0
C251 C 0.41581 0.86443 0.95773 0.0
C252 C 0.40908 0.84377 0.95047 0.0
C253 C 0.38335 0.82798 0.95001 0.0
C254 C 0.37675 0.80824 0.93544 0.0
C255 C 0.39587 0.80414 0.92077 0.0
C256 C 0.42173 0.82009 0.92365 0.0
C257 C 0.42824 0.83972 0.93847 0.0
C258 C 0.4613 0.90676 0.72084 0.0
C259 C 0.50869 0.89849 0.89513 0.0
O260 O 0.5293 0.95383 0.76779 0.0
O261 O 0.53275 0.97098 0.89482 0.0
O262 O 0.47959 0.92747 -0.00103 0.0
O263 O 0.51941 0.93867 0.03151 0.0
O264 O 0.44078 0.92075 0.93185 0.0
O265 O 0.47104 0.94429 0.84952 0.0
O266 O 0.43706 0.87727 0.01093 0.0
O267 O 0.41348 0.87107 0.88001 0.0
O268 O 0.47814 0.9087 0.7817 0.0
O269 O 0.43908 0.89979 0.75188 0.0
O270 O 0.52112 0.91729 0.87597 0.0
O271 O 0.48422 0.88901 0.91236 0.0
H272 H 0.57631 1.009 0.77916 0.0
H273 H 0.57161 1.0323 0.68962 0.0
H274 H 0.48943 0.98865 0.63275 0.0
H275 H 0.4946 0.96532 0.71871 0.0
H276 H 0.36833 0.83091 0.95912 0.0
H277 H 0.3567 0.79622 0.93441 0.0
H278 H 0.43684 0.81747 0.91108 0.0
H279 H 0.44816 0.85176 0.93844 0.0
Pr280 Pr 0.36213 0.55651 0.66553 0.0
Pr281 Pr 0.3446 0.58461 0.62179 0.0
C282 C 0.36544 0.52723 0.73555 0.0
C283 C 0.34609 0.50739 0.76193 0.0
C284 C 0.34913 0.49131 0.74609 0.0
C285 C 0.33029 0.47224 0.76739 0.0
C286 C 0.30804 0.46891 0.80515 0.0
C287 C 0.30517 0.48515 0.82117 0.0
C288 C 0.32393 0.50416 0.79947 0.0
C289 C 0.36451 0.56507 0.48356 0.0
C290 C 0.29971 0.53817 0.60094 0.0
C291 C 0.33671 0.61247 0.56262 0.0
C292 C 0.34494 0.63253 0.60076 0.0
C293 C 0.35466 0.6387 0.69396 0.0
C294 C 0.36148 0.6575 0.73193 0.0
C295 C 0.35893 0.67042 0.6769 0.0
C296 C 0.34993 0.66442 0.58286 0.0
C297 C 0.34287 0.6455 0.54502 0.0
C298 C 0.3448 0.57716 0.80648 0.0
C299 C 0.40821 0.6042 0.67786 0.0
O300 O 0.36892 0.54264 0.78633 0.0
O301 O 0.36486 0.52926 0.64745 0.0
O302 O 0.34626 0.5615 0.52977 0.0
O303 O 0.38154 0.5627 0.52824 0.0
O304 O 0.30779 0.55463 0.56084 0.0
O305 O 0.31608 0.5366 0.65776 0.0
O306 O 0.3551 0.61037 0.53684 0.0
O307 O 0.32048 0.59802 0.60853 0.0
O308 O 0.36199 0.58058 0.75567 0.0
O309 O 0.32665 0.5784 0.76354 0.0
O310 O 0.40264 0.58663 0.70257 0.0
O311 O 0.39004 0.60642 0.63836 0.0
H312 H 0.36594 0.49345 0.71626 0.0
H313 H 0.33296 0.46004 0.75269 0.0
H314 H 0.28849 0.48323 0.85111 0.0
H315 H 0.32103 0.51632 0.81172 0.0
H316 H 0.35662 0.62886 0.73752 0.0
H317 H 0.36868 0.66193 0.80432 0.0
H318 H 0.34771 0.67414 0.53934 0.0
H319 H 0.33551 0.6409 0.47282 0.0
Pr320 Pr 0.65285 0.72914 0.7888 0.0
Pr321 Pr 0.65145 0.76606 0.84425 0.0
C322 C 0.66099 0.7018 0.71325 0.0
C323 C 0.68115 0.69982 0.67544 0.0
C324 C 0.68816 0.68752 0.71553 0.0
C325 C 0.70477 0.68335 0.67481 0.0
C326 C 0.71459 0.69131 0.59271 0.0
C327 C 0.70857 0.70441 0.55492 0.0
C328 C 0.69202 0.70868 0.59604 0.0
C329 C 0.64887 0.73453 0.97502 0.0
C330 C 0.70845 0.77117 0.84428 0.0
C331 C 0.64411 0.79459 0.91598 0.0
C332 C 0.62902 0.80416 0.90884 0.0
C333 C 0.60812 0.79753 0.84064 0.0
C334 C 0.59439 0.8071 0.83652 0.0
C335 C 0.60121 0.82348 0.9007 0.0
C336 C 0.62228 0.83 0.96842 0.0
C337 C 0.63592 0.82047 0.97237 0.0
C338 C 0.65411 0.75986 0.65769 0.0
C339 C 0.59529 0.72048 0.78727 0.0
O340 O 0.65162 0.71044 0.6655 0.0
O341 O 0.66356 0.70618 0.80224 0.0
O342 O 0.66326 0.74831 0.92779 0.0
O343 O 0.63687 0.71707 0.92803 0.0
O344 O 0.69568 0.7773 0.89094 0.0
O345 O 0.69549 0.75539 0.78322 0.0
O346 O 0.63276 0.77651 0.94149 0.0
O347 O 0.65989 0.79765 0.85429 0.0
O348 O 0.6398 0.74665 0.707 0.0
O349 O 0.66736 0.77743 0.70332 0.0
O350 O 0.60902 0.71393 0.75452 0.0
O351 O 0.60657 0.73874 0.83149 0.0
H352 H 0.67994 0.68047 0.77647 0.0
H353 H 0.70871 0.67295 0.70482 0.0
H354 H 0.71599 0.71084 0.49198 0.0
H355 H 0.68708 0.71835 0.56385 0.0
H356 H 0.6024 0.78496 0.79083 0.0
H357 H 0.57819 0.80148 0.78384 0.0
H358 H 0.62854 0.84272 0.01804 0.0
H359 H 0.65203 0.82593 0.02536 0.0
C360 C 0.20217 0.35355 0.83976 0.0
C361 C 0.19386 0.34989 0.92768 0.0
C362 C 0.21981 0.37303 0.81876 0.0
C363 C 0.22942 0.3893 0.88726 0.0
C364 C 0.22063 0.38579 0.97541 0.0
C365 C 0.203 0.36613 -0.00537 0.0
C366 C 0.22878 0.37612 0.72404 0.0
C367 C 0.23024 0.40277 0.05001 0.0
C368 C 0.29487 0.4361 0.86543 0.0
C369 C 0.28785 0.44858 0.82717 0.0
C370 C 0.27605 0.41683 0.88552 0.0
C371 C 0.24952 0.40987 0.86773 0.0
C372 C 0.24226 0.42242 0.82991 0.0
C373 C 0.26149 0.44156 0.80974 0.0
C374 C 0.28459 0.40387 0.92547 0.0
C375 C 0.21419 0.41559 0.81005 0.0
H376 H 0.19552 0.34108 0.78803 0.0
H377 H 0.19645 0.36344 0.06236 0.0
H378 H 0.22572 0.38719 0.69263 0.0
H379 H 0.24983 0.38224 0.72951 0.0
H380 H 0.2185 0.36203 0.67717 0.0
H381 H 0.22057 0.39766 0.11336 0.0
H382 H 0.25138 0.41013 0.06813 0.0
H383 H 0.22694 0.41424 0.02486 0.0
H384 H 0.31515 0.44146 0.88055 0.0
H385 H 0.25582 0.45094 0.77895 0.0
H386 H 0.27639 0.38986 0.87939 0.0
H387 H 0.27716 0.39961 -0.007 0.0
H388 H 0.30597 0.41149 0.93516 0.0
H389 H 0.20406 0.40216 0.75915 0.0
H390 H 0.21179 0.42734 0.78265 0.0
H391 H 0.20454 0.41126 0.87378 0.0
C392 C 0.86317 0.82746 0.87474 0.0
C393 C 0.87434 0.8197 0.93219 0.0
C394 C 0.8365 0.81987 0.86637 0.0
C395 C 0.8199 0.80383 0.91608 0.0
C396 C 0.83084 0.79572 0.97391 0.0
C397 C 0.85785 0.80373 -0.01857 0.0
C398 C 0.82608 0.82905 0.80336 0.0
C399 C 0.81394 0.77853 0.02777 0.0
C400 C 0.75256 0.79521 0.93658 0.0
C401 C 0.73716 0.78029 0.8638 0.0
C402 C 0.77927 0.80264 0.95622 0.0
C403 C 0.79105 0.795 0.90223 0.0
C404 C 0.7755 0.77989 0.82921 0.0
C405 C 0.74907 0.77285 0.81097 0.0
C406 C 0.79499 0.81883 0.0344 0.0
C407 C 0.78687 0.77125 0.769 0.0
H408 H 0.87535 0.83975 0.83579 0.0
H409 H 0.86605 0.79763 0.02647 0.0
H410 H 0.81213 0.81767 0.74718 0.0
H411 H 0.81548 0.8342 0.84206 0.0
H412 H 0.84159 0.84193 0.772 0.0
H413 H 0.82526 0.77416 0.07135 0.0
H414 H 0.8033 0.78261 0.07253 0.0
H415 H 0.79929 0.76539 0.97982 0.0
H416 H 0.74374 0.80102 0.97859 0.0
H417 H 0.73767 0.76129 0.75458 0.0
H418 H 0.81026 0.83254 0.0072 0.0
H419 H 0.80485 0.81408 0.08303 0.0
H420 H 0.78294 0.82257 0.07282 0.0
H421 H 0.80153 0.78306 0.73053 0.0
H422 H 0.77197 0.75874 0.71859 0.0
H423 H 0.79685 0.76573 0.81206 0.0
C424 C 0.35326 0.97531 0.82812 0.0
C425 C 0.35824 0.99002 0.89827 0.0
C426 C 0.36957 0.96806 0.82205 0.0
C427 C 0.39151 0.97564 0.88779 0.0
C428 C 0.39722 0.99103 0.95673 0.0
C429 C 0.38058 0.99806 0.96103 0.0
C430 C 0.36276 0.95176 0.74704 0.0
C431 C 0.42034 0.99952 0.02833 0.0
C432 C 0.41366 0.9403 0.93851 0.0
C433 C 0.43515 0.94726 0.88894 0.0
C434 C 0.39961 0.94954 0.93932 0.0
C435 C 0.40704 0.96622 0.88906 0.0
C436 C 0.42876 0.97341 0.83896 0.0
C437 C 0.44258 0.96388 0.83962 0.0
C438 C 0.37663 0.94132 -0.00628 0.0
C439 C 0.43729 0.99107 0.7841 0.0
H440 H 0.33635 0.96926 0.77815 0.0
H441 H 0.38456 1.00934 0.01574 0.0
H442 H 0.37968 0.95598 0.70916 0.0
H443 H 0.35753 0.93781 0.77812 0.0
H444 H 0.34629 0.94858 0.69704 0.0
H445 H 0.4234 1.01253 0.0724 0.0
H446 H 0.41759 0.98782 0.07306 0.0
H447 H 0.43808 1.00421 -0.00525 0.0
H448 H 0.40772 0.92753 0.97717 0.0
H449 H 0.45911 0.96941 0.80101 0.0
H450 H 0.35883 0.93629 0.94694 0.0
H451 H 0.37924 0.95319 0.04485 0.0
H452 H 0.37367 0.92852 0.0307 0.0
H453 H 0.42147 0.98772 0.73053 0.0
H454 H 0.45478 0.99505 0.75002 0.0
H455 H 0.4415 1.00425 0.82973 0.0
C456 C 0.45461 0.17146 0.15295 0.0
C457 C 0.4655 0.18542 0.08765 0.0
C458 C 0.42811 0.15585 0.14343 0.0
C459 C 0.41125 0.15351 0.06574 0.0
C460 C 0.42185 0.16787 0.00051 0.0
C461 C 0.4486 0.1836 0.01231 0.0
C462 C 0.41833 0.14143 0.21605 0.0
C463 C 0.40506 0.16621 0.9162 0.0
C464 C 0.35082 0.09991 0.00149 0.0
C465 C 0.33078 0.10065 0.03862 0.0
C466 C 0.3765 0.11693 0.00725 0.0
C467 C 0.38309 0.13559 0.05199 0.0
C468 C 0.36291 0.13653 0.08875 0.0
C469 C 0.33728 0.11928 0.08141 0.0
C470 C 0.39682 0.1148 0.96633 0.0
C471 C 0.36853 0.15576 0.13788 0.0
H472 H 0.4671 0.1725 0.21188 0.0
H473 H 0.45647 0.19394 0.96043 0.0
H474 H 0.40126 0.14045 0.24222 0.0
H475 H 0.41202 0.12626 0.18544 0.0
H476 H 0.43329 0.14585 0.27516 0.0
H477 H 0.4154 0.17905 0.87483 0.0
H478 H 0.39854 0.15222 0.87225 0.0
H479 H 0.38749 0.16535 0.93637 0.0
H480 H 0.34648 0.08586 0.96779 0.0
H481 H 0.32234 0.12036 0.11067 0.0
H482 H 0.41181 0.11735 0.02174 0.0
H483 H 0.4066 0.12626 0.91794 0.0
H484 H 0.38858 0.09978 0.929 0.0
H485 H 0.38236 0.16 0.20039 0.0
H486 H 0.35078 0.15455 0.15873 0.0
H487 H 0.37778 0.16803 0.09295 0.0
C488 C 0.99924 0.31113 0.20566 0.0
C489 C 0.97868 0.30836 0.14438 0.0
C490 C 1.00908 0.29872 0.19658 0.0
C491 C 0.9985 0.28312 0.12355 0.0
C492 C 0.97766 0.28018 0.06167 0.0
C493 C 0.96795 0.29266 0.0731 0.0
C494 C 1.03103 0.30243 0.26511 0.0
C495 C 0.96587 0.26401 -0.01793 0.0
C496 C 1.04159 0.26463 0.04955 0.0
C497 C 1.03179 0.24666 0.09058 0.0
C498 C 1.03075 0.27634 0.05842 0.0
C499 C 1.00964 0.27028 0.11085 0.0
C500 C 0.99961 0.25214 0.15231 0.0
C501 C 1.0106 0.24055 0.1412 0.0
C502 C 1.04204 0.29534 0.0118 0.0
C503 C 0.97743 0.2451 0.20986 0.0
H504 H 1.00776 0.3231 0.26125 0.0
H505 H 0.95222 0.29033 0.02476 0.0
H506 H 1.02556 0.28858 0.29754 0.0
H507 H 1.04825 0.30655 0.22926 0.0
H508 H 1.03649 0.31456 0.32017 0.0
H509 H 0.94964 0.2634 0.94051 0.0
H510 H 0.98084 0.26663 0.93651 0.0
H511 H 0.95864 0.24924 0.00788 0.0
H512 H 0.05785 0.2696 0.00992 0.0
H513 H 1.00285 0.22683 0.17384 0.0
H514 H 1.04988 0.30836 0.06416 0.0
H515 H 1.0267 0.29496 0.96556 0.0
H516 H 0.05778 0.29768 0.97077 0.0
H517 H 0.98296 0.25647 0.26877 0.0
H518 H 0.97163 0.23066 0.23704 0.0
H519 H 0.96045 0.24334 0.16835 0.0
C520 C 0.92149 0.70445 0.118 0.0
C521 C 0.91016 0.71124 0.05478 0.0
C522 C 0.9114 0.68376 0.12373 0.0
C523 C 0.88927 0.66882 0.06436 0.0
C524 C 0.87782 0.67552 -6e-05 0.0
C525 C 0.88815 0.69633 -0.00367 0.0
C526 C 0.92433 0.67786 0.19492 0.0
C527 C 0.85446 0.6606 0.93423 0.0
C528 C 0.8745 0.61444 0.03015 0.0
C529 C 0.85482 0.6039 0.08714 0.0
C530 C 0.88577 0.63528 0.022 0.0
C531 C 0.87758 0.64637 0.07226 0.0
C532 C 0.85799 0.63581 0.1307 0.0
C533 C 0.847 0.61507 0.13702 0.0
C534 C 0.90631 0.64544 0.95815 0.0
C535 C 0.84838 0.64645 0.18684 0.0
H536 H 0.93815 0.71538 0.16508 0.0
H537 H 0.87908 0.70091 0.94617 0.0
H538 H 0.91043 0.66879 0.24345 0.0
H539 H 0.9303 0.66842 0.16114 0.0
H540 H 0.94161 0.69102 0.23493 0.0
H541 H 0.8482 0.66793 0.88591 0.0
H542 H 0.85877 0.65079 0.89369 0.0
H543 H 0.83813 0.65086 0.97344 0.0
H544 H 0.88081 0.60632 -0.0097 0.0
H545 H 0.83196 0.60753 0.18164 0.0
H546 H 0.9243 0.65813 -0.003 0.0
H547 H 0.89983 0.65168 0.90443 0.0
H548 H 0.91082 0.63507 0.92395 0.0
H549 H 0.86475 0.65918 0.23212 0.0
H550 H 0.83344 0.63641 0.2303 0.0
H551 H 0.84002 0.65268 0.14053 0.0
C552 C 0.25544 0.52374 0.51867 0.0
C553 C 0.27206 0.5215 0.5802 0.0
C554 C 0.22935 0.50841 0.49644 0.0
C555 C 0.21928 0.4902 0.53665 0.0
C556 C 0.2358 0.48784 0.59972 0.0
C557 C 0.26201 0.50349 0.62053 0.0
C558 C 0.21256 0.51167 0.42898 0.0
C559 C 0.2259 0.46871 0.6443 0.0
C560 C 0.14565 0.45911 0.52306 0.0
C561 C 0.13879 0.4461 0.44281 0.0
C562 C 0.17176 0.47284 0.55726 0.0
C563 C 0.19161 0.47369 0.51013 0.0
C564 C 0.18481 0.46003 0.43146 0.0
C565 C 0.15859 0.44643 0.39898 0.0
C566 C 0.1781 0.48703 0.64164 0.0
C567 C 0.20527 0.46032 0.3792 0.0
H568 H 0.26284 0.53755 0.48702 0.0
H569 H 0.27462 0.50157 0.66817 0.0
H570 H 0.20496 0.5004 0.36815 0.0
H571 H 0.19568 0.50969 0.46133 0.0
H572 H 0.22322 0.5268 0.40486 0.0
H573 H 0.24015 0.47013 0.69997 0.0
H574 H 0.20761 0.46422 0.67349 0.0
H575 H 0.22163 0.45651 0.59166 0.0
H576 H 0.13062 0.45911 0.55739 0.0
H577 H 0.15359 0.43617 0.33823 0.0
H578 H 0.18693 0.50246 0.62183 0.0
H579 H 0.19244 0.48703 0.69187 0.0
H580 H 0.16068 0.48311 0.67599 0.0
H581 H 0.21599 0.47456 0.34733 0.0
H582 H 0.19692 0.44773 0.32399 0.0
H583 H 0.21948 0.4596 0.42685 0.0
C584 C 0.74623 0.68078 0.58825 0.0
C585 C 0.7281 0.68375 0.54146 0.0
C586 C 0.75475 0.66959 0.54472 0.0
C587 C 0.74474 0.66114 0.45259 0.0
C588 C 0.72823 0.66559 0.4027 0.0
C589 C 0.72011 0.67688 0.44779 0.0
C590 C 0.77271 0.66543 0.59979 0.0
C591 C 0.71715 0.65688 0.30427 0.0
C592 C 0.76938 0.63362 0.31948 0.0
C593 C 0.75077 0.61371 0.3315 0.0
C594 C 0.76813 0.64939 0.36012 0.0
C595 C 0.7478 0.64505 0.41371 0.0
C596 C 0.72937 0.625 0.42779 0.0
C597 C 0.73112 0.60961 0.38667 0.0
C598 C 0.78814 0.6706 0.34404 0.0
C599 C 0.70747 0.61974 0.48507 0.0
H600 H 0.75276 0.68637 0.66032 0.0
H601 H 0.70597 0.67901 0.41137 0.0
H602 H 0.7615 0.64994 0.61939 0.0
H603 H 0.78778 0.66663 0.55825 0.0
H604 H 0.78229 0.67584 0.66373 0.0
H605 H 0.70786 0.6641 0.27126 0.0
H606 H 0.73244 0.65848 0.2628 0.0
H607 H 0.70239 0.64066 0.3028 0.0
H608 H 0.78456 0.63683 0.27661 0.0
H609 H 0.71705 0.59427 0.39777 0.0
H610 H 0.79668 0.68016 0.41051 0.0
H611 H 0.77883 0.6768 0.30229 0.0
H612 H 0.80394 0.67158 0.30754 0.0
H613 H 0.71527 0.62765 0.55539 0.0
H614 H 0.69513 0.60343 0.49089 0.0
H615 H 0.69512 0.62467 0.45391 0.0
C616 C 0.53756 0.09294 0.3337 0.0
C617 C 0.52065 0.09904 0.35265 0.0
C618 C 0.53756 0.07787 0.37946 0.0
C619 C 0.52018 0.06861 0.44586 0.0
C620 C 0.50243 0.07419 0.46311 0.0
C621 C 0.50293 0.08939 0.4165 0.0
C622 C 0.5569 0.07243 0.35942 0.0
C623 C 0.48343 0.06451 0.53273 0.0
C624 C 0.51026 1.02001 0.51936 0.0
C625 C 0.52701 1.02669 0.60158 0.0
C626 C 0.50737 1.03339 0.46892 0.0
C627 C 0.52175 0.05398 0.50093 0.0
C628 C 0.5385 0.06078 0.58417 0.0
C629 C 0.54083 0.04706 0.6336 0.0
C630 C 0.48924 1.02556 0.38068 0.0
C631 C 0.55422 0.08263 0.62056 0.0
H632 H 0.55161 0.10053 0.28566 0.0
H633 H 0.48965 0.09392 0.43085 0.0
H634 H 0.57069 0.07648 0.42184 0.0
H635 H 0.54691 0.05607 0.34152 0.0
H636 H 0.56804 0.08018 0.30205 0.0
H637 H 0.46972 0.06952 0.53345 0.0
H638 H 0.47221 0.04801 0.51779 0.0
H639 H 0.49404 0.06821 0.60257 0.0
H640 H 0.49971 1.00434 0.49341 0.0
H641 H 0.55343 0.05231 0.69787 0.0
H642 H 0.50036 1.03209 0.32165 0.0
H643 H 0.47515 1.03015 0.38295 0.0
H644 H 0.47841 1.00901 0.36781 0.0
H645 H 0.56734 0.09156 0.56977 0.0
H646 H 0.56605 0.08545 0.68709 0.0
H647 H 0.54126 0.08809 0.63041 0.0
C648 C 0.17256 0.13495 0.15921 0.0
C649 C 0.17516 0.12647 0.07736 0.0
C650 C 0.16104 0.14623 0.15802 0.0
C651 C 0.15165 0.14915 0.07298 0.0
C652 C 0.15435 0.14077 -0.00991 0.0
C653 C 0.16606 0.12964 -0.00677 0.0
C654 C 0.15859 0.1548 0.24815 0.0
C655 C 0.14446 0.1433 0.89785 0.0
C656 C 0.09951 0.16151 0.07546 0.0
C657 C 0.11369 0.18224 0.06975 0.0
C658 C 0.11148 0.15057 0.07509 0.0
C659 C 0.13852 0.16057 0.07088 0.0
C660 C 0.15296 0.18151 0.06524 0.0
C661 C 0.14039 0.19203 0.06402 0.0
C662 C 0.09509 0.12828 0.08015 0.0
C663 C 0.18179 0.19286 0.06116 0.0
H664 H 0.17901 0.13242 0.22484 0.0
H665 H 0.16818 0.12348 0.92931 0.0
H666 H 0.16759 0.17116 0.24822 0.0
H667 H 0.13786 0.1481 0.25662 0.0
H668 H 0.16785 0.152 0.30824 0.0
H669 H 0.14827 0.13612 0.83956 0.0
H670 H 0.12331 0.13667 0.89443 0.0
H671 H 0.15368 0.15941 0.88924 0.0
H672 H 0.07888 0.15369 0.07913 0.0
H673 H 0.15161 0.20802 0.05978 0.0
H674 H 0.09883 0.1249 0.14999 0.0
H675 H 0.10008 0.1203 0.03011 0.0
H676 H 0.07411 0.12227 0.06615 0.0
H677 H 0.1914 0.191 0.12326 0.0
H678 H 0.1903 0.20908 0.05688 0.0
H679 H 0.18615 0.18674 0.00046 0.0
C680 C 1.00724 1.00177 -0.01852 0.0
C681 C 0.98447 0.98444 0.00096 0.0
C682 C 1.01092 1.02078 -0.00333 0.0
C683 C 0.99137 1.02262 0.03205 0.0
C684 C 0.96848 1.00523 0.05272 0.0
C685 C 0.96532 0.98642 0.03705 0.0
C686 C 1.0357 0.03891 0.97419 0.0
C687 C 0.94707 1.00644 0.09008 0.0
C688 C 1.00816 0.07317 0.14388 0.0
C689 C 0.99948 0.0802 0.07304 0.0
C690 C 1.00589 0.05461 0.13129 0.0
C691 C 0.99459 0.04265 0.04584 0.0
C692 C 0.98596 0.04971 0.97386 0.0
C693 C 0.98854 0.06833 -0.01179 0.0
C694 C 1.01538 0.04772 0.20989 0.0
C695 C 0.97389 0.03752 0.88153 0.0
H696 H 1.02231 1.00049 0.95467 0.0
H697 H 0.9475 0.97316 0.05109 0.0
H698 H 1.0313 0.0464 0.92071 0.0
H699 H 1.04554 0.04986 0.03617 0.0
H700 H 1.04924 1.03505 0.94891 0.0
H701 H 0.93074 0.99163 0.10476 0.0
H702 H 0.95466 1.01674 0.15444 0.0
H703 H 0.93957 1.01263 0.03975 0.0
H704 H 1.01637 0.08202 0.21005 0.0
H705 H 0.9822 0.07371 0.93231 0.0
H706 H 1.0298 0.04455 0.18774 0.0
H707 H 0.99902 1.0336 0.2303 0.0
H708 H 1.02435 0.05897 0.27113 0.0
H709 H 0.98762 1.03456 0.85081 0.0
H710 H 0.96829 0.04513 0.83243 0.0
H711 H 0.95641 1.02283 0.89042 0.0
C712 C 1.05378 0.90888 0.9293 0.0
C713 C 1.04526 0.89496 -0.0043 0.0
C714 C 0.07903 0.92626 0.9371 0.0
C715 C 0.09734 0.93038 0.01309 0.0
C716 C 0.08936 0.91611 0.07921 0.0
C717 C 0.06359 0.89874 0.07009 0.0
C718 C 0.08589 0.94058 0.86424 0.0
C719 C 0.10795 0.91945 0.16102 0.0
C720 C 0.16887 0.96876 0.97727 0.0
C721 C 0.17398 0.98692 0.02095 0.0
C722 C 0.14474 0.95037 0.97757 0.0
C723 C 0.12445 0.94962 0.02191 0.0
C724 C 0.1296 0.96785 0.06733 0.0
C725 C 0.15405 0.98603 0.06672 0.0
C726 C 0.1408 0.93167 0.92849 0.0
C727 C 0.10894 0.96826 0.11494 0.0
H728 H 1.04029 0.90644 0.87076 0.0
H729 H 0.05763 0.8885 0.12276 0.0
H730 H 0.09127 0.95543 0.89615 0.0
H731 H 0.10289 0.94266 0.8325 0.0
H732 H 0.06969 0.93531 0.8089 0.0
H733 H 0.09974 0.90661 0.20321 0.0
H734 H 0.12616 0.922 0.13776 0.0
H735 H 0.11304 0.93307 0.20512 0.0
H736 H 0.18382 0.96886 0.94199 0.0
H737 H 0.15737 0.9997 0.10119 0.0
H738 H 0.12593 0.92632 0.86831 0.0
H739 H 0.1336 0.91961 0.97493 0.0
H740 H 0.15888 0.93418 0.90396 0.0
H741 H 0.0924 0.96431 0.0635 0.0
H742 H 0.11612 0.98315 0.15168 0.0
H743 H 0.10151 0.95694 0.16512 0.0
C744 C 0.88812 0.45652 0.1754 0.0
C745 C 0.89543 0.46812 0.10047 0.0
C746 C 0.89553 0.44276 0.18996 0.0
C747 C 0.91061 0.44031 0.12812 0.0
C748 C 0.91803 0.45193 0.05237 0.0
C749 C 0.91042 0.4656 0.03959 0.0
C750 C 0.8872 0.43082 0.27185 0.0
C751 C 0.93388 0.44981 -0.01595 0.0
C752 C 0.94908 0.41696 0.20185 0.0
C753 C 0.93313 0.39718 0.16065 0.0
C754 C 0.94189 0.43101 0.19297 0.0
C755 C 0.91819 0.42533 0.14123 0.0
C756 C 0.90194 0.40536 0.10017 0.0
C757 C 0.90953 0.39162 0.11043 0.0
C758 C 0.95983 0.45205 0.23842 0.0
C759 C 0.87656 0.39851 0.0442 0.0
H760 H 0.87687 0.4584 0.2238 0.0
H761 H 0.91592 0.47413 -0.01941 0.0
H762 H 0.87532 0.41462 0.24824 0.0
H763 H 0.90443 0.43363 0.31596 0.0
H764 H 0.87579 0.43456 0.31424 0.0
H765 H 0.93845 0.46009 0.92956 0.0
H766 H 0.95228 0.45289 0.02011 0.0
H767 H 0.92325 0.43424 0.95079 0.0
H768 H 0.96732 0.42155 0.2409 0.0
H769 H 0.89694 0.37647 0.07799 0.0
H770 H 0.94946 0.45598 0.2853 0.0
H771 H 0.96628 0.46275 0.1854 0.0
H772 H 0.97717 0.45403 0.27849 0.0
H773 H 0.86414 0.40106 0.08655 0.0
H774 H 0.86585 0.38243 0.01809 0.0
H775 H 0.88009 0.4074 -0.0154 0.0
C776 C 0.7597 0.45636 0.05315 0.0
C777 C 0.75249 0.46997 0.07574 0.0
C778 C 0.74177 0.43533 0.04879 0.0
C779 C 0.71579 0.42743 0.06716 0.0
C780 C 0.70851 0.44114 0.08989 0.0
C781 C 0.72672 0.46195 0.09391 0.0
C782 C 0.75068 0.42151 0.02451 0.0
C783 C 0.68129 0.4338 0.11011 0.0
C784 C 0.65994 0.37359 0.97839 0.0
C785 C 0.65545 0.36331 0.05773 0.0
C786 C 0.6798 0.39407 0.97982 0.0
C787 C 0.69602 0.40499 0.06256 0.0
C788 C 0.69196 0.39466 0.14243 0.0
C789 C 0.67193 0.37417 0.13913 0.0
C790 C 0.68299 0.40418 0.89276 0.0
C791 C 0.70858 0.40537 0.23236 0.0
H792 H 0.7794 0.46212 0.03908 0.0
H793 H 0.72053 0.47201 0.1115 0.0
H794 H 0.74768 0.41182 0.08049 0.0
H795 H 0.73896 0.41155 0.96121 0.0
H796 H 0.77142 0.42979 0.01307 0.0
H797 H 0.67852 0.44625 0.12666 0.0
H798 H 0.66733 0.42409 0.04986 0.0
H799 H 0.67649 0.42464 0.16908 0.0
H800 H 0.64742 0.36577 0.91502 0.0
H801 H 0.66929 0.36663 0.20089 0.0
H802 H 0.70332 0.41168 0.87706 0.0
H803 H 0.67857 0.41591 0.90252 0.0
H804 H 0.67011 0.39351 0.83263 0.0
H805 H 0.72932 0.41264 0.22257 0.0
H806 H 0.70413 0.39515 0.28704 0.0
H807 H 0.7056 0.41735 0.25634 0.0
C808 C 0.65013 0.24439 0.15184 0.0
C809 C 0.63728 0.25313 0.11446 0.0
C810 C 0.67657 0.25258 0.14534 0.0
C811 C 0.69089 0.27009 0.10052 0.0
C812 C 0.67822 0.27924 0.06395 0.0
C813 C 0.65161 0.27066 0.07116 0.0
C814 C 0.6891 0.24225 0.18539 0.0
C815 C 0.69271 0.29796 0.01599 0.0
C816 C 0.76453 0.29838 0.15303 0.0
C817 C 0.77148 0.29123 0.07804 0.0
C818 C 0.73857 0.29213 0.15994 0.0
C819 C 0.71887 0.27835 0.09024 0.0
C820 C 0.72581 0.2714 0.01345 0.0
C821 C 0.75188 0.27787 0.00838 0.0
C822 C 0.73216 0.29996 0.24297 0.0
C823 C 0.70554 0.25665 0.93764 0.0
H824 H 0.63944 0.23088 0.18557 0.0
H825 H 0.642 0.27758 0.04202 0.0
H826 H 0.69651 0.23731 0.13003 0.0
H827 H 0.70589 0.25281 0.23618 0.0
H828 H 0.67549 0.22901 0.2199 0.0
H829 H 0.68047 0.30376 -0.00524 0.0
H830 H 0.70987 0.30978 0.06198 0.0
H831 H 0.69986 0.29486 0.9539 0.0
H832 H 0.77942 0.30893 0.20665 0.0
H833 H 0.75678 0.27195 0.9507 0.0
H834 H 0.71982 0.28746 0.28349 0.0
H835 H 0.72098 0.30657 0.22085 0.0
H836 H 0.74975 0.31144 0.28855 0.0
H837 H 0.69229 0.24233 0.96562 0.0
H838 H 0.71416 0.25364 0.87982 0.0
H839 H 0.69369 0.26234 0.91029 0.0
C840 C 0.57786 0.83721 0.81362 0.0
C841 C 0.58666 0.83382 0.89775 0.0
C842 C 0.56501 0.84752 0.81065 0.0
C843 C 0.56073 0.85472 0.89372 0.0
C844 C 0.56927 0.85115 0.97872 0.0
C845 C 0.58199 0.84078 0.9797 0.0
C846 C 0.55619 0.85086 0.71838 0.0
C847 C 0.56504 0.85836 0.06906 0.0
C848 C 0.54906 0.89749 0.89379 0.0
C849 C 0.52212 0.88737 0.89449 0.0
C850 C 0.5618 0.8871 0.89301 0.0
C851 C 0.54736 0.86598 0.89211 0.0
C852 C 0.52014 0.85567 0.89167 0.0
C853 C 0.50796 0.86644 0.89312 0.0
C854 C 0.59081 0.89877 0.89393 0.0
C855 C 0.50383 0.8332 0.88994 0.0
H856 H 0.58149 0.83216 0.74975 0.0
H857 H 0.58815 0.83799 0.04523 0.0
H858 H 0.53506 0.84444 0.71222 0.0
H859 H 0.56586 0.86711 0.7125 0.0
H860 H 0.56047 0.84403 0.66002 0.0
H861 H 0.57288 0.85448 0.12935 0.0
H862 H 0.57444 0.87482 0.07432 0.0
H863 H 0.54407 0.85169 0.07234 0.0
H864 H 0.5603 0.91362 0.89468 0.0
H865 H 0.48717 0.85833 0.89211 0.0
H866 H 0.59611 0.89343 0.83316 0.0
H867 H 0.59967 0.89629 0.95618 0.0
H868 H 0.59927 0.91507 0.89339 0.0
H869 H 0.50726 0.82616 0.83007 0.0
H870 H 0.48284 0.8273 0.88595 0.0
H871 H 0.50944 0.82856 0.95291 0.0
C872 C 0.35418 0.69076 0.79877 0.0
C873 C 0.36477 0.68983 0.71845 0.0
C874 C 0.35879 0.70895 0.83767 0.0
C875 C 0.37454 0.72654 0.79543 0.0
C876 C 0.38567 0.72573 0.7152 0.0
C877 C 0.38049 0.70729 0.67721 0.0
C878 C 0.34642 0.70927 0.92272 0.0
C879 C 0.40285 0.74429 0.66913 0.0
C880 C 0.36742 0.7706 0.832 0.0
C881 C 0.3889 0.78346 0.89617 0.0
C882 C 0.36212 0.75174 0.8005 0.0
C883 C 0.37882 0.74575 0.83353 0.0
C884 C 0.40009 0.7584 0.90029 0.0
C885 C 0.4048 0.7771 0.93123 0.0
C886 C 0.33915 0.73853 0.72959 0.0
C887 C 0.41831 0.75246 0.93682 0.0
H888 H 0.3418 0.67716 0.82998 0.0
H889 H 0.38884 0.70652 0.61554 0.0
H890 H 0.36143 0.71999 0.97841 0.0
H891 H 0.33318 0.71445 0.90731 0.0
H892 H 0.33527 0.69434 0.94848 0.0
H893 H 0.41072 0.74117 0.60914 0.0
H894 H 0.39178 0.75088 0.64523 0.0
H895 H 0.41925 0.75569 0.71915 0.0
H896 H 0.35529 0.77555 0.80369 0.0
H897 H 0.42122 0.78692 -0.0182 0.0
H898 H 0.3268 0.72351 0.75316 0.0
H899 H 0.34592 0.73648 0.66414 0.0
H900 H 0.32715 0.74488 0.71547 0.0
H901 H 0.40737 0.73785 0.9654 0.0
H902 H 0.43333 0.7637 -0.00871 0.0
H903 H 0.42807 0.75064 0.87975 0.0
C904 C 0.5502 0.70499 0.83622 0.0
C905 C 0.56664 0.70637 0.77123 0.0
C906 C 0.52378 0.68924 0.82562 0.0
C907 C 0.51357 0.67467 0.74794 0.0
C908 C 0.52994 0.67666 0.68041 0.0
C909 C 0.55608 0.69234 0.69298 0.0
C910 C 0.50702 0.68774 0.89916 0.0
C911 C 0.52007 0.66181 0.59581 0.0
C912 C 0.45467 0.6215 0.74927 0.0
C913 C 0.43513 0.62227 0.69817 0.0
C914 C 0.47996 0.6386 0.76919 0.0
C915 C 0.48607 0.65702 0.73703 0.0
C916 C 0.46631 0.65797 0.68683 0.0
C917 C 0.44122 0.64068 0.66821 0.0
C918 C 0.50032 0.63686 0.8231 0.0
C919 C 0.47183 0.67715 0.6505 0.0
H920 H 0.5582 0.71563 0.89719 0.0
H921 H 0.56855 0.69336 0.64181 0.0
H922 H 0.48914 0.68636 0.86789 0.0
H923 H 0.50102 0.67407 0.934 0.0
H924 H 0.51721 0.70089 0.95178 0.0
H925 H 0.53497 0.66594 0.54774 0.0
H926 H 0.51379 0.64677 0.61649 0.0
H927 H 0.50298 0.66067 0.5584 0.0
H928 H 0.45026 0.60749 0.77369 0.0
H929 H 0.42638 0.64163 0.62909 0.0
H930 H 0.50992 0.64856 0.8824 0.0
H931 H 0.51544 0.63929 0.77869 0.0
H932 H 0.49216 0.62199 0.84922 0.0
H933 H 0.48123 0.68955 0.70675 0.0
H934 H 0.45402 0.67588 0.61898 0.0
H935 H 0.48548 0.68124 0.59774 0.0
C936 C 0.08475 0.21102 0.77549 0.0
C937 C 0.06154 0.2076 0.80363 0.0
C938 C 0.09005 0.21423 0.68405 0.0
C939 C 0.07186 0.21433 0.61979 0.0
C940 C 1.04865 0.21133 0.64846 0.0
C941 C 1.04367 0.20784 0.74007 0.0
C942 C 0.11487 0.21714 0.65584 0.0
C943 C 1.02901 0.21167 0.58222 0.0
C944 C 0.09533 0.23889 0.40059 0.0
C945 C 0.08588 0.2222 0.33669 0.0
C946 C 0.09074 0.23657 0.49317 0.0
C947 C 0.07685 0.2171 0.52203 0.0
C948 C 0.0677 0.20023 0.45741 0.0
C949 C 0.07218 0.20301 0.36507 0.0
C950 C 0.10046 0.25489 0.55975 0.0
C951 C 1.05327 0.17927 0.48582 0.0
H952 H 0.0986 0.21085 0.82465 0.0
H953 H 1.0258 0.20533 0.76198 0.0
H954 H 0.1104 0.20525 0.60103 0.0
H955 H 0.12625 0.23166 0.62685 0.0
H956 H 0.12704 0.21678 0.7144 0.0
H957 H 1.01247 0.20993 0.61636 0.0
H958 H 1.0383 0.22596 0.55032 0.0
H959 H 1.02145 0.19944 0.52575 0.0
H960 H 0.10589 0.25371 0.37769 0.0
H961 H 0.06533 0.19021 0.31524 0.0
H962 H 0.11381 0.25558 0.61686 0.0
H963 H 0.084 0.25401 0.59078 0.0
H964 H 0.11074 0.26893 0.52605 0.0
H965 H 0.06537 0.17784 0.54071 0.0
H966 H 1.04785 0.16781 0.42732 0.0
H967 H 1.03542 0.17608 0.51474 0.0
C968 C 0.93902 0.84014 0.6646 0.0
C969 C 0.96217 0.84563 0.71665 0.0
C970 C 0.93851 0.84294 0.57081 0.0
C971 C 0.96192 0.85229 0.5299 0.0
C972 C 0.98549 0.85849 0.5835 0.0
C973 C 0.98523 0.85465 0.67603 0.0
C974 C 0.91288 0.83549 0.51514 0.0
C975 C 1.01097 0.8693 0.54339 0.0
C976 C 0.96029 0.84442 0.27112 0.0
C977 C 0.96005 0.86081 0.2426 0.0
C978 C 0.96039 0.84123 0.3645 0.0
C979 C 0.96168 0.8554 0.43078 0.0
C980 C 0.96247 0.87243 0.40222 0.0
C981 C 0.96098 0.87467 0.30799 0.0
C982 C 0.95849 0.82249 0.3919 0.0
C983 C 0.96505 0.88833 0.4711 0.0
H984 H 0.92121 0.83305 0.69657 0.0
H985 H 1.00314 0.85906 0.71725 0.0
H986 H 0.9129 0.84813 0.48649 0.0
H987 H 0.90978 0.82488 0.45602 0.0
H988 H 0.89637 0.82787 0.55673 0.0
H989 H 1.0277 0.87436 0.5961 0.0
H990 H 1.01118 0.85936 0.48821 0.0
H991 H 1.01348 0.88252 0.51161 0.0
H992 H 0.95956 0.83377 0.22011 0.0
H993 H 0.96106 0.88747 0.28546 0.0
H994 H 0.94159 0.81405 0.43091 0.0
H995 H 0.97596 0.82642 0.43794 0.0
H996 H 0.95643 0.81255 0.33138 0.0
H997 H 0.94776 0.882 0.50889 0.0
H998 H 0.96726 0.90133 0.43783 0.0
H999 H 0.98206 0.89369 0.52276 0.0
C1000 C 0.25191 1.03666 0.72482 0.0
C1001 C 0.24489 0.04965 0.75822 0.0
C1002 C 0.25445 1.03462 0.63108 0.0
C1003 C 0.24839 0.045 0.56892 0.0
C1004 C 0.24029 0.05756 0.60213 0.0
C1005 C 0.23927 0.06012 0.69692 0.0
C1006 C 0.26415 1.02173 0.59902 0.0
C1007 C 0.2325 0.06813 0.53753 0.0
C1008 C 0.27532 0.0549 0.33815 0.0
C1009 C 0.25528 0.03848 0.28107 0.0
C1010 C 0.27357 0.05699 0.43265 0.0
C1011 C 0.25069 0.04282 0.46927 0.0
C1012 C 0.23005 1.02655 0.41068 0.0
C1013 C 0.23289 1.02431 0.31743 0.0
C1014 C 0.29638 0.07408 0.49352 0.0
C1015 C 0.20491 1.01167 0.44617 0.0
H1016 H 0.25611 1.02852 0.77241 0.0
H1017 H 0.23354 0.07 0.72292 0.0
H1018 H 0.24911 1.00905 0.54993 0.0
H1019 H 0.28136 1.03056 0.56198 0.0
H1020 H 0.26945 1.01564 0.65706 0.0
H1021 H 0.22492 0.0762 0.57372 0.0
H1022 H 0.24933 0.07904 0.50346 0.0
H1023 H 0.21742 0.05717 0.48252 0.0
H1024 H 0.29267 0.06574 0.30933 0.0
H1025 H 0.21735 1.01173 0.27229 0.0
H1026 H 0.30243 0.0682 0.55035 0.0
H1027 H 0.29085 0.08398 0.52539 0.0
H1028 H 0.31319 0.08318 0.45494 0.0
H1029 H 0.2083 1.00339 0.49805 0.0
H1030 H 0.19019 1.00069 0.39026 0.0
H1031 H 0.19697 1.01961 0.4809 0.0
C1032 C 0.83191 0.55608 0.4201 0.0
C1033 C 0.81853 0.53873 0.35874 0.0
C1034 C 0.82683 0.55548 0.5122 0.0
C1035 C 0.80882 0.53692 0.54351 0.0
C1036 C 0.79561 0.5193 0.48164 0.0
C1037 C 0.80023 0.52051 0.38923 0.0
C1038 C 0.84051 0.57466 0.57564 0.0
C1039 C 0.77701 0.49914 0.51336 0.0
C1040 C 0.81604 0.5332 0.79916 0.0
C1041 C 0.79494 0.53342 0.82681 0.0
C1042 C 0.82045 0.53385 0.70652 0.0
C1043 C 0.80406 0.53581 0.64138 0.0
C1044 C 0.78299 0.53648 0.66957 0.0
C1045 C 0.77832 0.53481 0.76207 0.0
C1046 C 0.84247 0.53228 0.67834 0.0
C1047 C 0.76577 0.53937 0.60253 0.0
H1048 H 0.84585 0.57016 0.39547 0.0
H1049 H 0.79005 0.5071 0.34119 0.0
H1050 H 0.82614 0.57659 0.60816 0.0
H1051 H 0.853 0.57403 0.63187 0.0
H1052 H 0.8527 0.58796 0.53894 0.0
H1053 H 0.76903 0.48682 0.4569 0.0
H1054 H 0.78696 0.49606 0.56994 0.0
H1055 H 0.76069 0.4991 0.54109 0.0
H1056 H 0.82886 0.53221 0.84989 0.0
H1057 H 0.76223 0.53529 0.78439 0.0
H1058 H 0.85687 0.5462 0.65012 0.0
H1059 H 0.83513 0.51984 0.62304 0.0
H1060 H 0.85243 0.52966 0.73684 0.0
H1061 H 0.77764 0.55316 0.56855 0.0
H1062 H 0.75099 0.54052 0.63659 0.0
H1063 H 0.75573 0.5267 0.54763 0.0
C1064 C 0.57591 0.2386 0.43121 0.0
C1065 C 0.55278 0.23058 0.3736 0.0
C1066 C 0.57569 0.23514 0.52456 0.0
C1067 C 0.55177 0.22257 0.55958 0.0
C1068 C 0.5284 0.21376 0.50006 0.0
C1069 C 0.52917 0.21829 0.40825 0.0
C1070 C 0.60097 0.24543 0.58628 0.0
C1071 C 0.5026 0.19952 0.53319 0.0
C1072 C 0.55517 0.20151 0.78455 0.0
C1073 C 0.55107 0.21307 0.8478 0.0
C1074 C 0.5546 0.20397 0.69007 0.0
C1075 C 0.55118 0.21906 0.65891 0.0
C1076 C 0.54733 0.23092 0.72296 0.0
C1077 C 0.54655 0.22734 0.81613 0.0
C1078 C 0.55744 0.19034 0.62358 0.0
C1079 C 0.54458 0.24766 0.69352 0.0
H1080 H 0.59414 0.24818 0.40401 0.0
H1081 H 0.51131 0.21192 0.36292 0.0
H1082 H 0.60047 0.25468 0.64436 0.0
H1083 H 0.60391 0.23419 0.6164 0.0
H1084 H 0.61779 0.25517 0.54894 0.0
H1085 H 0.48654 0.19255 0.47624 0.0
H1086 H 0.50315 0.18751 0.56645 0.0
H1087 H 0.49835 0.20757 0.58571 0.0
H1088 H 0.55834 0.19026 0.80872 0.0
H1089 H 0.54304 0.23609 0.86465 0.0
H1090 H 0.5755 0.1991 0.59088 0.0
H1091 H 0.54113 0.18324 0.56764 0.0
H1092 H 0.55796 0.1784 0.65788 0.0
H1093 H 0.56126 0.25799 0.657 0.0
H1094 H 0.54353 0.25636 0.75283 0.0
H1095 H 0.52685 0.24153 0.64471 0.0
C1096 C 0.96757 0.35377 0.47129 0.0
C1097 C 0.94266 0.34398 0.42488 0.0
C1098 C 0.97152 0.35706 0.56755 0.0
C1099 C 0.94997 0.35063 0.61757 0.0
C1100 C 0.92473 0.34091 0.57041 0.0
C1101 C 0.92134 0.33745 0.47416 0.0
C1102 C 0.99865 0.36705 0.61566 0.0
C1103 C 0.90139 0.33423 0.62153 0.0
C1104 C 0.95666 0.34163 0.86642 0.0
C1105 C 0.96293 0.35977 0.91235 0.0
C1106 C 0.9524 0.33846 0.77018 0.0
C1107 C 0.95381 0.35363 0.7194 0.0
C1108 C 0.95942 0.37176 0.76578 0.0
C1109 C 0.96425 0.37473 0.86206 0.0
C1110 C 0.94698 0.31909 0.72288 0.0
C1111 C 0.96045 0.38804 0.71372 0.0
H1112 H 0.98384 0.35831 0.4324 0.0
H1113 H 0.90209 0.32989 0.43723 0.0
H1114 H 1.00371 0.38074 0.65903 0.0
H1115 H 0.99981 0.35688 0.66208 0.0
H1116 H 1.01327 0.37121 0.56639 0.0
H1117 H 0.88325 0.32768 0.57416 0.0
H1118 H 0.89921 0.32292 0.66776 0.0
H1119 H 0.90403 0.34709 0.66548 0.0
H1120 H 0.95575 0.33011 0.90563 0.0
H1121 H 0.96891 0.38869 0.89807 0.0
H1122 H 0.96198 0.32224 0.67659 0.0
H1123 H 0.92808 0.31128 0.67948 0.0
H1124 H 0.94667 0.30889 0.77264 0.0
H1125 H 0.97625 0.39371 0.66883 0.0
H1126 H 0.96372 0.4008 0.76048 0.0
H1127 H 0.9421 0.38195 0.66836 0.0
C1128 C 0.46435 0.92533 0.58547 0.0
C1129 C 0.46593 0.91028 0.62443 0.0
C1130 C 0.47035 0.92965 0.49516 0.0
C1131 C 0.4769 0.91799 0.44165 0.0
C1132 C 0.47791 0.90244 0.48071 0.0
C1133 C 0.47298 0.89909 0.57249 0.0
C1134 C 0.47011 0.94688 0.45766 0.0
C1135 C 0.48387 0.88919 0.42522 0.0
C1136 C 0.46661 0.91579 0.18102 0.0
C1137 C 0.49203 0.92758 0.15887 0.0
C1138 C 0.46145 0.91241 0.27254 0.0
C1139 C 0.48216 0.92169 0.34426 0.0
C1140 C 0.50786 0.93408 0.3225 0.0
C1141 C 0.51253 0.93661 0.22981 0.0
C1142 C 0.43384 0.89866 0.29225 0.0
C1143 C 0.53039 0.94474 0.39715 0.0
H1144 H 0.45909 0.93405 0.62655 0.0
H1145 H 0.47417 0.88745 0.60332 0.0
H1146 H 0.48937 0.95777 0.4365 0.0
H1147 H 0.45586 0.94145 0.3955 0.0
H1148 H 0.46524 0.95477 0.50892 0.0
H1149 H 0.48301 0.87733 0.46481 0.0
H1150 H 0.4699 0.88199 0.36212 0.0
H1151 H 0.50344 0.89827 0.40279 0.0
H1152 H 0.45068 0.90896 0.1265 0.0
H1153 H 0.53218 0.94591 0.21301 0.0
H1154 H 0.42806 0.90696 0.33683 0.0
H1155 H 0.43212 0.88634 0.33017 0.0
H1156 H 0.42006 0.89207 0.22839 0.0
H1157 H 0.52709 0.95373 0.44797 0.0
H1158 H 0.54898 0.95478 0.36926 0.0
H1159 H 0.53211 0.93368 0.43475 0.0
C1160 C 0.32659 0.56909 0.95739 0.0
C1161 C 0.34729 0.57489 0.90537 0.0
C1162 C 0.32912 0.56699 0.05167 0.0
C1163 C 0.35304 0.57112 0.09469 0.0
C1164 C 0.37398 0.57699 0.04217 0.0
C1165 C 0.37077 0.57863 0.94799 0.0
C1166 C 0.30624 0.56038 0.10527 0.0
C1167 C 0.39988 0.58178 0.08566 0.0
C1168 C 0.36746 0.58466 0.35365 0.0
C1169 C 0.36308 0.56689 0.38458 0.0
C1170 C 0.36449 0.58631 0.25925 0.0
C1171 C 0.35637 0.56959 0.19494 0.0
C1172 C 0.35184 0.55155 0.22642 0.0
C1173 C 0.35549 0.55047 0.32124 0.0
C1174 C 0.37002 0.60592 0.22837 0.0
C1175 C 0.34277 0.53332 0.16009 0.0
H1176 H 0.30839 0.56607 0.92429 0.0
H1177 H 0.38686 0.58315 0.90789 0.0
H1178 H 0.30158 0.54675 0.13824 0.0
H1179 H 0.31106 0.57216 0.16118 0.0
H1180 H 0.28878 0.55717 0.06106 0.0
H1181 H 0.41426 0.58629 0.03521 0.0
H1182 H 0.40766 0.59409 0.14192 0.0
H1183 H 0.39764 0.56859 0.1168 0.0
H1184 H 0.37328 0.59728 0.40343 0.0
H1185 H 0.35179 0.53667 0.34614 0.0
H1186 H 0.35239 0.60375 0.18995 0.0
H1187 H 0.38517 0.61147 0.18076 0.0
H1188 H 0.37657 0.61756 0.28713 0.0
H1189 H 0.32434 0.52899 0.11936 0.0
H1190 H 0.33975 0.52036 0.19586 0.0
H1191 H 0.35714 0.53674 0.11068 0.0
C1192 C 0.67652 0.76456 0.51759 0.0
C1193 C 0.6535 0.756 0.55831 0.0
C1194 C 0.67613 0.7604 0.42296 0.0
C1195 C 0.65207 0.74821 0.3678 0.0
C1196 C 0.62874 0.73982 0.40895 0.0
C1197 C 0.6298 0.74343 0.50436 0.0
C1198 C 0.70141 0.76887 0.38224 0.0
C1199 C 0.60271 0.72741 0.35203 0.0
C1200 C 0.65203 0.75528 0.11351 0.0
C1201 C 0.64924 0.73772 0.07499 0.0
C1202 C 0.65229 0.75864 0.20857 0.0
C1203 C 0.65123 0.74458 0.26674 0.0
C1204 C 0.6492 0.72706 0.22821 0.0
C1205 C 0.64756 0.72358 0.13223 0.0
C1206 C 0.65338 0.77709 0.24646 0.0
C1207 C 0.64925 0.7122 0.28838 0.0
H1208 H 0.69482 0.77405 0.56025 0.0
H1209 H 0.61203 0.7369 0.53657 0.0
H1210 H 0.70187 0.75669 0.34416 0.0
H1211 H 0.70327 0.77945 0.33215 0.0
H1212 H 0.71837 0.77685 0.43566 0.0
H1213 H 0.58643 0.72257 0.39441 0.0
H1214 H 0.60115 0.73615 0.29807 0.0
H1215 H 0.60061 0.71393 0.31641 0.0
H1216 H 0.65355 0.76623 0.06901 0.0
H1217 H 0.6458 0.71013 0.10216 0.0
H1218 H 0.67158 0.78693 0.29251 0.0
H1219 H 0.63714 0.77282 0.28827 0.0
H1220 H 0.65232 0.78578 0.19114 0.0
H1221 H 0.66661 0.71991 0.34002 0.0
H1222 H 0.64911 0.69997 0.24791 0.0
H1223 H 0.63208 0.70551 0.3269 0.0
loop_
_geom_bond_atom_site_label_1
_geom_bond_atom_site_label_2
_geom_bond_distance
_geom_bond_site_symmetry_2
_ccdc_geom_bond_type
Pr0 C2 2.880 . S
Pr0 O20 2.562 . S
Pr0 O21 2.490 . S
Pr0 O22 2.695 . S
Pr0 O23 2.512 . S
Pr0 O25 2.437 . S
Pr0 O28 2.436 1_554 S
Pr0 O30 2.438 . S
Pr1 C11 2.880 1_455 S
Pr1 O22 2.436 . S
Pr1 O24 2.454 . S
Pr1 O26 2.562 . S
Pr1 O27 2.490 1_454 S
Pr1 O28 2.695 1_554 S
Pr1 O29 2.512 1_554 S
Pr1 O31 2.437 . S
C2 Pr0 2.880 . S
C2 C3 1.491 . S
C2 O20 1.254 . S
C2 O21 1.225 . S
C3 C2 1.491 . S
C3 C4 1.392 . S
C3 C8 1.364 . S
C4 C3 1.392 . S
C4 C5 1.368 . S
C4 H32 0.929 . S
C5 C4 1.368 . S
C5 C6 1.386 . S
C5 H33 0.929 . S
C6 C5 1.386 . S
C6 C7 1.373 1_554 S
C7 C6 1.373 1_556 S
C7 C8 1.408 1_556 S
C7 H34 0.931 . S
C8 C3 1.364 . S
C8 C7 1.408 1_554 S
C8 H35 0.922 1_554 S
C9 O22 1.270 . S
C9 O23 1.248 . S
C10 O24 1.270 . S
C10 O25 1.278 . S
C11 Pr1 2.880 1_655 S
C11 C12 1.491 . S
C11 O26 1.254 1_655 S
C11 O27 1.225 1_554 S
C12 C11 1.491 . S
C12 C13 1.392 1_554 S
C12 C17 1.356 . S
C13 C12 1.392 1_556 S
C13 C14 1.367 1_556 S
C13 H36 0.929 . S
C14 C13 1.367 1_554 S
C14 C15 1.394 . S
C14 H37 0.922 1_554 S
C15 C14 1.394 . S
C15 C16 1.373 . S
C16 C15 1.373 . S
C16 C17 1.409 . S
C16 H38 0.931 . S
C17 C12 1.356 . S
C17 C16 1.409 . S
C17 H39 0.930 . S
C18 O28 1.270 . S
C18 O29 1.248 . S
C19 O30 1.267 . S
C19 O31 1.278 . S
O20 Pr0 2.562 . S
O20 C2 1.254 . S
O21 Pr0 2.490 . S
O21 C2 1.225 . S
O22 Pr0 2.695 . S
O22 Pr1 2.436 . S
O22 C9 1.270 . S
O23 Pr0 2.512 . S
O23 C9 1.248 . S
O24 Pr1 2.454 . S
O24 C10 1.270 . S
O25 Pr0 2.437 . S
O25 C10 1.278 . S
O26 Pr1 2.562 . S
O26 C11 1.254 1_455 S
O27 Pr1 2.490 1_656 S
O27 C11 1.225 1_556 S
O28 Pr0 2.436 1_556 S
O28 Pr1 2.695 1_556 S
O28 C18 1.270 . S
O29 Pr1 2.512 1_556 S
O29 C18 1.248 . S
O30 Pr0 2.438 . S
O30 C19 1.267 . S
O31 Pr1 2.437 . S
O31 C19 1.278 . S
H32 C4 0.929 . S
H33 C5 0.929 . S
H34 C7 0.931 . S
H35 C8 0.922 1_556 S
H36 C13 0.929 . S
H37 C14 0.922 1_556 S
H38 C16 0.931 . S
H39 C17 0.930 . S
Pr40 C42 2.880 . S
Pr40 O60 2.562 . S
Pr40 O61 2.490 1_554 S
Pr40 O62 2.695 1_554 S
Pr40 O63 2.512 1_554 S
Pr40 O65 2.437 1_554 S
Pr40 O68 2.436 . S
Pr40 O70 2.438 . S
Pr41 C51 2.880 . S
Pr41 O62 2.436 1_554 S
Pr41 O64 2.438 . S
Pr41 O66 2.562 1_554 S
Pr41 O67 2.490 . S
Pr41 O68 2.695 . S
Pr41 O69 2.512 . S
Pr41 O71 2.437 . S
C42 Pr40 2.880 . S
C42 C43 1.491 . S
C42 O60 1.254 . S
C42 O61 1.225 1_554 S
C43 C42 1.491 . S
C43 C44 1.392 1_554 S
C43 C48 1.356 . S
C44 C43 1.392 1_556 S
C44 C45 1.368 . S
C44 H72 0.929 . S
C45 C44 1.368 . S
C45 C46 1.386 1_556 S
C45 H73 0.929 . S
C46 C45 1.386 1_554 S
C46 C47 1.373 . S
C47 C46 1.373 . S
C47 C48 1.409 . S
C47 H74 0.931 . S
C48 C43 1.356 . S
C48 C47 1.409 . S
C48 H75 0.930 . S
C49 O62 1.270 . S
C49 O63 1.248 . S
C50 O64 1.267 . S
C50 O65 1.278 1_554 S
C51 Pr41 2.880 . S
C51 C52 1.491 . S
C51 O66 1.254 1_554 S
C51 O67 1.225 . S
C52 C51 1.491 . S
C52 C53 1.392 . S
C52 C57 1.356 1_554 S
C53 C52 1.392 . S
C53 C54 1.368 . S
C53 H76 0.929 . S
C54 C53 1.368 . S
C54 C55 1.386 . S
C54 H77 0.929 . S
C55 C54 1.386 . S
C55 C56 1.373 1_554 S
C56 C55 1.373 1_556 S
C56 C57 1.409 . S
C56 H78 0.931 . S
C57 C52 1.356 1_556 S
C57 C56 1.409 . S
C57 H79 0.930 . S
C58 O68 1.270 . S
C58 O69 1.248 . S
C59 O70 1.267 . S
C59 O71 1.278 . S
O60 Pr40 2.562 . S
O60 C42 1.254 . S
O61 Pr40 2.490 1_556 S
O61 C42 1.225 1_556 S
O62 Pr40 2.695 1_556 S
O62 Pr41 2.436 1_556 S
O62 C49 1.270 . S
O63 Pr40 2.512 1_556 S
O63 C49 1.248 . S
O64 Pr41 2.438 . S
O64 C50 1.267 . S
O65 Pr40 2.437 1_556 S
O65 C50 1.278 1_556 S
O66 Pr41 2.562 1_556 S
O66 C51 1.254 1_556 S
O67 Pr41 2.490 . S
O67 C51 1.225 . S
O68 Pr40 2.436 . S
O68 Pr41 2.695 . S
O68 C58 1.270 . S
O69 Pr41 2.512 . S
O69 C58 1.248 . S
O70 Pr40 2.438 . S
O70 C59 1.267 . S
O71 Pr41 2.437 . S
O71 C59 1.278 . S
H72 C44 0.929 . S
H73 C45 0.929 . S
H74 C47 0.931 . S
H75 C48 0.930 . S
H76 C53 0.929 . S
H77 C54 0.929 . S
H78 C56 0.931 . S
H79 C57 0.930 . S
Pr80 C82 2.881 . S
Pr80 O100 2.562 1_554 S
Pr80 O101 2.490 . S
Pr80 O102 2.695 1_565 S
Pr80 O103 2.512 . S
Pr80 O105 2.437 1_565 S
Pr80 O108 2.436 1_564 S
Pr80 O110 2.438 . S
Pr81 C91 2.880 . S
Pr81 O102 2.436 . S
Pr81 O104 2.438 . S
Pr81 O106 2.562 . S
Pr81 O107 2.490 1_554 S
Pr81 O108 2.695 1_554 S
Pr81 O109 2.512 1_554 S
Pr81 O111 2.437 1_554 S
C82 Pr80 2.881 . S
C82 C83 1.491 1_554 S
C82 O100 1.250 1_554 S
C82 O101 1.229 . S
C83 C82 1.491 1_556 S
C83 C84 1.392 1_556 S
C83 C88 1.356 . S
C84 C83 1.392 1_554 S
C84 C85 1.368 . S
C84 H112 0.929 . S
C85 C84 1.368 . S
C85 C86 1.386 1_554 S
C85 H113 0.929 . S
C86 C85 1.386 1_556 S
C86 C87 1.373 . S
C87 C86 1.373 . S
C87 C88 1.409 . S
C87 H114 0.931 . S
C88 C83 1.356 . S
C88 C87 1.409 . S
C88 H115 0.930 . S
C89 O102 1.270 . S
C89 O103 1.248 1_545 S
C90 O104 1.267 . S
C90 O105 1.278 . S
C91 Pr81 2.880 . S
C91 C92 1.491 . S
C91 O106 1.254 . S
C91 O107 1.225 1_554 S
C92 C91 1.491 . S
C92 C93 1.392 1_554 S
C92 C97 1.356 . S
C93 C92 1.392 1_556 S
C93 C94 1.368 . S
C93 H116 0.929 . S
C94 C93 1.368 . S
C94 C95 1.386 1_556 S
C94 H117 0.929 . S
C95 C94 1.386 1_554 S
C95 C96 1.373 . S
C96 C95 1.373 . S
C96 C97 1.409 . S
C96 H118 0.931 . S
C97 C92 1.356 . S
C97 C96 1.409 . S
C97 H119 0.930 . S
C98 O108 1.270 . S
C98 O109 1.248 . S
C99 O110 1.267 . S
C99 O111 1.278 1_564 S
O100 Pr80 2.562 1_556 S
O100 C82 1.250 1_556 S
O101 Pr80 2.490 . S
O101 C82 1.229 . S
O102 Pr80 2.695 1_545 S
O102 Pr81 2.436 . S
O102 C89 1.270 . S
O103 Pr80 2.512 . S
O103 C89 1.248 1_565 S
O104 Pr81 2.438 . S
O104 C90 1.267 . S
O105 Pr80 2.437 1_545 S
O105 C90 1.278 . S
O106 Pr81 2.562 . S
O106 C91 1.254 . S
O107 Pr81 2.490 1_556 S
O107 C91 1.225 1_556 S
O108 Pr80 2.436 1_546 S
O108 Pr81 2.695 1_556 S
O108 C98 1.270 . S
O109 Pr81 2.512 1_556 S
O109 C98 1.248 . S
O110 Pr80 2.438 . S
O110 C99 1.267 . S
O111 Pr81 2.437 1_556 S
O111 C99 1.278 1_546 S
H112 C84 0.929 . S
H113 C85 0.929 . S
H114 C87 0.931 . S
H115 C88 0.930 . S
H116 C93 0.929 . S
H117 C94 0.929 . S
H118 C96 0.931 . S
H119 C97 0.930 . S
Pr120 C122 2.880 . S
Pr120 O140 2.562 . S
Pr120 O141 2.490 . S
Pr120 O142 2.695 . S
Pr120 O143 2.504 1_554 S
Pr120 O145 2.437 . S
Pr120 O148 2.436 . S
Pr120 O150 2.438 . S
Pr121 C131 2.880 . S
Pr121 O142 2.436 . S
Pr121 O144 2.438 . S
Pr121 O146 2.562 . S
Pr121 O147 2.490 . S
Pr121 O148 2.695 . S
Pr121 O149 2.512 . S
Pr121 O151 2.437 . S
C122 Pr120 2.880 . S
C122 C123 1.491 . S
C122 O140 1.254 . S
C122 O141 1.225 . S
C123 C122 1.491 . S
C123 C124 1.392 . S
C123 C128 1.356 . S
C124 C123 1.392 . S
C124 C125 1.368 . S
C124 H152 0.929 . S
C125 C124 1.368 . S
C125 C126 1.386 . S
C125 H153 0.929 . S
C126 C125 1.386 . S
C126 C127 1.373 . S
C127 C126 1.373 . S
C127 C128 1.409 . S
C127 H154 0.931 . S
C128 C123 1.356 . S
C128 C127 1.409 . S
C128 H155 0.930 . S
C129 O142 1.271 . S
C129 O143 1.249 1_554 S
C130 O144 1.267 . S
C130 O145 1.278 . S
C131 Pr121 2.880 . S
C131 C132 1.491 . S
C131 O146 1.254 . S
C131 O147 1.225 . S
C132 C131 1.491 . S
C132 C133 1.392 . S
C132 C137 1.356 . S
C133 C132 1.392 . S
C133 C134 1.368 . S
C133 H156 0.929 . S
C134 C133 1.368 . S
C134 C135 1.386 . S
C134 H157 0.929 . S
C135 C134 1.386 . S
C135 C136 1.373 . S
C136 C135 1.373 . S
C136 C137 1.409 . S
C136 H158 0.930 1_554 S
C137 C132 1.356 . S
C137 C136 1.409 . S
C137 H159 0.930 . S
C138 O148 1.270 . S
C138 O149 1.248 . S
C139 O150 1.267 . S
C139 O151 1.278 . S
O140 Pr120 2.562 . S
O140 C122 1.254 . S
O141 Pr120 2.490 . S
O141 C122 1.225 . S
O142 Pr120 2.695 . S
O142 Pr121 2.436 . S
O142 C129 1.271 . S
O143 Pr120 2.504 1_556 S
O143 C129 1.249 1_556 S
O144 Pr121 2.438 . S
O144 C130 1.267 . S
O145 Pr120 2.437 . S
O145 C130 1.278 . S
O146 Pr121 2.562 . S
O146 C131 1.254 . S
O147 Pr121 2.490 . S
O147 C131 1.225 . S
O148 Pr120 2.436 . S
O148 Pr121 2.695 . S
O148 C138 1.270 . S
O149 Pr121 2.512 . S
O149 C138 1.248 . S
O150 Pr120 2.438 . S
O150 C139 1.267 . S
O151 Pr121 2.437 . S
O151 C139 1.278 . S
H152 C124 0.929 . S
H153 C125 0.929 . S
H154 C127 0.931 . S
H155 C128 0.930 . S
H156 C133 0.929 . S
H157 C134 0.929 . S
H158 C136 0.930 1_556 S
H159 C137 0.930 . S
Pr160 C162 2.880 . S
Pr160 O180 2.562 . S
Pr160 O181 2.490 . S
Pr160 O182 2.695 . S
Pr160 O183 2.512 1_554 S
Pr160 O185 2.437 . S
Pr160 O188 2.436 . S
Pr160 O190 2.438 . S
Pr161 C171 2.880 . S
Pr161 O182 2.436 . S
Pr161 O184 2.438 . S
Pr161 O186 2.562 . S
Pr161 O187 2.490 . S
Pr161 O188 2.695 . S
Pr161 O189 2.512 . S
Pr161 O191 2.437 . S
C162 Pr160 2.880 . S
C162 C163 1.491 . S
C162 O180 1.254 . S
C162 O181 1.225 . S
C163 C162 1.491 . S
C163 C164 1.392 . S
C163 C168 1.356 . S
C164 C163 1.392 . S
C164 C165 1.368 . S
C164 H192 0.929 . S
C165 C164 1.368 . S
C165 C166 1.386 . S
C165 H193 0.929 . S
C166 C165 1.386 . S
C166 C167 1.373 . S
C167 C166 1.373 . S
C167 C168 1.409 . S
C167 H194 0.931 . S
C168 C163 1.356 . S
C168 C167 1.409 . S
C168 H195 0.930 . S
C169 O182 1.270 1_556 S
C169 O183 1.248 . S
C170 O184 1.267 . S
C170 O185 1.278 . S
C171 Pr161 2.880 . S
C171 C172 1.491 . S
C171 O186 1.254 . S
C171 O187 1.225 . S
C172 C171 1.491 . S
C172 C173 1.392 . S
C172 C177 1.356 . S
C173 C172 1.392 . S
C173 C174 1.368 . S
C173 H196 0.929 . S
C174 C173 1.368 . S
C174 C175 1.386 . S
C174 H197 0.929 . S
C175 C174 1.386 . S
C175 C176 1.373 . S
C176 C175 1.373 . S
C176 C177 1.409 . S
C176 H198 0.931 . S
C177 C172 1.356 . S
C177 C176 1.409 . S
C177 H199 0.930 . S
C178 O188 1.270 . S
C178 O189 1.248 . S
C179 O190 1.267 . S
C179 O191 1.278 . S
O180 Pr160 2.562 . S
O180 C162 1.254 . S
O181 Pr160 2.490 . S
O181 C162 1.225 . S
O182 Pr160 2.695 . S
O182 Pr161 2.436 . S
O182 C169 1.270 1_554 S
O183 Pr160 2.512 1_556 S
O183 C169 1.248 . S
O184 Pr161 2.438 . S
O184 C170 1.267 . S
O185 Pr160 2.437 . S
O185 C170 1.278 . S
O186 Pr161 2.562 . S
O186 C171 1.254 . S
O187 Pr161 2.490 . S
O187 C171 1.225 . S
O188 Pr160 2.436 . S
O188 Pr161 2.695 . S
O188 C178 1.270 . S
O189 Pr161 2.512 . S
O189 C178 1.248 . S
O190 Pr160 2.438 . S
O190 C179 1.267 . S
O191 Pr161 2.437 . S
O191 C179 1.278 . S
H192 C164 0.929 . S
H193 C165 0.929 . S
H194 C167 0.931 . S
H195 C168 0.930 . S
H196 C173 0.929 . S
H197 C174 0.929 . S
H198 C176 0.931 . S
H199 C177 0.930 . S
Pr200 C202 2.896 . S
Pr200 O220 2.562 . S
Pr200 O221 2.490 . S
Pr200 O222 2.695 . S
Pr200 O223 2.512 . S
Pr200 O225 2.437 . S
Pr200 O228 2.436 . S
Pr200 O230 2.438 . S
Pr201 C211 2.880 . S
Pr201 O222 2.436 . S
Pr201 O224 2.438 . S
Pr201 O226 2.562 . S
Pr201 O227 2.490 . S
Pr201 O228 2.695 . S
Pr201 O229 2.512 . S
Pr201 O231 2.437 . S
C202 Pr200 2.896 . S
C202 C203 1.475 1_655 S
C202 O220 1.262 . S
C202 O221 1.232 . S
C203 C202 1.475 1_455 S
C203 C204 1.392 . S
C203 C208 1.356 . S
C204 C203 1.392 . S
C204 C205 1.368 . S
C204 H232 0.929 . S
C205 C204 1.368 . S
C205 C206 1.386 . S
C205 H233 0.929 . S
C206 C205 1.386 . S
C206 C207 1.373 . S
C207 C206 1.373 . S
C207 C208 1.409 . S
C207 H234 0.931 . S
C208 C203 1.356 . S
C208 C207 1.409 . S
C208 H235 0.930 . S
C209 O222 1.270 . S
C209 O223 1.248 . S
C210 O224 1.267 . S
C210 O225 1.278 . S
C211 Pr201 2.880 . S
C211 C212 1.491 . S
C211 O226 1.254 . S
C211 O227 1.225 . S
C212 C211 1.491 . S
C212 C213 1.392 . S
C212 C217 1.356 . S
C213 C212 1.392 . S
C213 C214 1.368 . S
C213 H236 0.929 . S
C214 C213 1.368 . S
C214 C215 1.386 . S
C214 H237 0.929 . S
C215 C214 1.386 . S
C215 C216 1.373 . S
C216 C215 1.373 . S
C216 C217 1.409 . S
C216 H238 0.931 1_554 S
C217 C212 1.356 . S
C217 C216 1.409 . S
C217 H239 0.930 . S
C218 O228 1.270 . S
C218 O229 1.248 . S
C219 O230 1.267 . S
C219 O231 1.278 . S
O220 Pr200 2.562 . S
O220 C202 1.262 . S
O221 Pr200 2.490 . S
O221 C202 1.232 . S
O222 Pr200 2.695 . S
O222 Pr201 2.436 . S
O222 C209 1.270 . S
O223 Pr200 2.512 . S
O223 C209 1.248 . S
O224 Pr201 2.438 . S
O224 C210 1.267 . S
O225 Pr200 2.437 . S
O225 C210 1.278 . S
O226 Pr201 2.562 . S
O226 C211 1.254 . S
O227 Pr201 2.490 . S
O227 C211 1.225 . S
O228 Pr200 2.436 . S
O228 Pr201 2.695 . S
O228 C218 1.270 . S
O229 Pr201 2.512 . S
O229 C218 1.248 . S
O230 Pr200 2.438 . S
O230 C219 1.267 . S
O231 Pr201 2.437 . S
O231 C219 1.278 . S
H232 C204 0.929 . S
H233 C205 0.929 . S
H234 C207 0.931 . S
H235 C208 0.930 . S
H236 C213 0.929 . S
H237 C214 0.929 . S
H238 C216 0.931 1_556 S
H239 C217 0.930 . S
Pr240 C242 2.880 . S
Pr240 O260 2.562 . S
Pr240 O261 2.490 . S
Pr240 O262 2.695 . S
Pr240 O263 2.512 . S
Pr240 O265 2.437 . S
Pr240 O268 2.436 . S
Pr240 O270 2.438 . S
Pr241 C251 2.880 . S
Pr241 O262 2.436 . S
Pr241 O264 2.438 . S
Pr241 O266 2.562 . S
Pr241 O267 2.490 . S
Pr241 O268 2.695 . S
Pr241 O269 2.512 . S
Pr241 O271 2.437 . S
C242 Pr240 2.880 . S
C242 C243 1.491 . S
C242 O260 1.254 . S
C242 O261 1.225 . S
C243 C242 1.491 . S
C243 C244 1.392 . S
C243 C248 1.356 . S
C244 C243 1.392 . S
C244 C245 1.368 . S
C244 H272 0.929 . S
C245 C244 1.368 . S
C245 C246 1.386 . S
C245 H273 0.929 . S
C246 C245 1.386 . S
C246 C247 1.373 . S
C247 C246 1.373 . S
C247 C248 1.409 . S
C247 H274 0.931 . S
C248 C243 1.356 . S
C248 C247 1.409 . S
C248 H275 0.930 . S
C249 O262 1.270 . S
C249 O263 1.248 . S
C250 O264 1.267 . S
C250 O265 1.278 . S
C251 Pr241 2.880 . S
C251 C252 1.491 . S
C251 O266 1.254 . S
C251 O267 1.225 . S
C252 C251 1.491 . S
C252 C253 1.392 . S
C252 C257 1.356 . S
C253 C252 1.392 . S
C253 C254 1.368 . S
C253 H276 0.929 . S
C254 C253 1.368 . S
C254 C255 1.386 . S
C254 H277 0.929 . S
C255 C254 1.386 . S
C255 C256 1.373 . S
C256 C255 1.373 . S
C256 C257 1.409 . S
C256 H278 0.931 . S
C257 C252 1.356 . S
C257 C256 1.409 . S
C257 H279 0.930 . S
C258 O268 1.270 . S
C258 O269 1.248 . S
C259 O270 1.267 . S
C259 O271 1.278 . S
O260 Pr240 2.562 . S
O260 C242 1.254 . S
O261 Pr240 2.490 . S
O261 C242 1.225 . S
O262 Pr240 2.695 . S
O262 Pr241 2.436 . S
O262 C249 1.270 . S
O263 Pr240 2.512 . S
O263 C249 1.248 . S
O264 Pr241 2.438 . S
O264 C250 1.267 . S
O265 Pr240 2.437 . S
O265 C250 1.278 . S
O266 Pr241 2.562 . S
O266 C251 1.254 . S
O267 Pr241 2.490 . S
O267 C251 1.225 . S
O268 Pr240 2.436 . S
O268 Pr241 2.695 . S
O268 C258 1.270 . S
O269 Pr241 2.512 . S
O269 C258 1.248 . S
O270 Pr240 2.438 . S
O270 C259 1.267 . S
O271 Pr241 2.437 . S
O271 C259 1.278 . S
H272 C244 0.929 . S
H273 C245 0.929 . S
H274 C247 0.931 . S
H275 C248 0.930 . S
H276 C253 0.929 . S
H277 C254 0.929 . S
H278 C256 0.931 . S
H279 C257 0.930 . S
Pr280 C282 2.880 . S
Pr280 O300 2.562 . S
Pr280 O301 2.490 . S
Pr280 O302 2.695 . S
Pr280 O303 2.512 . S
Pr280 O305 2.437 . S
Pr280 O308 2.436 . S
Pr280 O310 2.438 . S
Pr281 C291 2.880 . S
Pr281 O302 2.436 . S
Pr281 O304 2.438 . S
Pr281 O306 2.562 . S
Pr281 O307 2.490 . S
Pr281 O308 2.695 . S
Pr281 O309 2.512 . S
Pr281 O311 2.437 . S
C282 Pr280 2.880 . S
C282 C283 1.491 . S
C282 O300 1.254 . S
C282 O301 1.225 . S
C283 C282 1.491 . S
C283 C284 1.392 . S
C283 C288 1.356 . S
C284 C283 1.392 . S
C284 C285 1.368 . S
C284 H312 0.929 . S
C285 C284 1.368 . S
C285 C286 1.386 . S
C285 H313 0.929 . S
C286 C285 1.386 . S
C286 C287 1.373 . S
C287 C286 1.373 . S
C287 C288 1.409 . S
C287 H314 0.931 . S
C288 C283 1.356 . S
C288 C287 1.409 . S
C288 H315 0.930 . S
C289 O302 1.270 . S
C289 O303 1.248 . S
C290 O304 1.267 . S
C290 O305 1.278 . S
C291 Pr281 2.880 . S
C291 C292 1.491 . S
C291 O306 1.254 . S
C291 O307 1.225 . S
C292 C291 1.491 . S
C292 C293 1.392 . S
C292 C297 1.356 . S
C293 C292 1.392 . S
C293 C294 1.368 . S
C293 H316 0.929 . S
C294 C293 1.368 . S
C294 C295 1.386 . S
C294 H317 0.929 . S
C295 C294 1.386 . S
C295 C296 1.373 . S
C296 C295 1.373 . S
C296 C297 1.409 . S
C296 H318 0.931 . S
C297 C292 1.356 . S
C297 C296 1.409 . S
C297 H319 0.930 . S
C298 O308 1.270 . S
C298 O309 1.248 . S
C299 O310 1.267 . S
C299 O311 1.278 . S
O300 Pr280 2.562 . S
O300 C282 1.254 . S
O301 Pr280 2.490 . S
O301 C282 1.225 . S
O302 Pr280 2.695 . S
O302 Pr281 2.436 . S
O302 C289 1.270 . S
O303 Pr280 2.512 . S
O303 C289 1.248 . S
O304 Pr281 2.438 . S
O304 C290 1.267 . S
O305 Pr280 2.437 . S
O305 C290 1.278 . S
O306 Pr281 2.562 . S
O306 C291 1.254 . S
O307 Pr281 2.490 . S
O307 C291 1.225 . S
O308 Pr280 2.436 . S
O308 Pr281 2.695 . S
O308 C298 1.270 . S
O309 Pr281 2.512 . S
O309 C298 1.248 . S
O310 Pr280 2.438 . S
O310 C299 1.267 . S
O311 Pr281 2.437 . S
O311 C299 1.278 . S
H312 C284 0.929 . S
H313 C285 0.929 . S
H314 C287 0.931 . S
H315 C288 0.930 . S
H316 C293 0.929 . S
H317 C294 0.929 . S
H318 C296 0.931 . S
H319 C297 0.930 . S
Pr320 C322 2.880 . S
Pr320 O340 2.562 . S
Pr320 O341 2.490 . S
Pr320 O342 2.695 . S
Pr320 O343 2.512 . S
Pr320 O345 2.437 . S
Pr320 O348 2.436 . S
Pr320 O350 2.438 . S
Pr321 C331 2.880 . S
Pr321 O342 2.436 . S
Pr321 O344 2.438 . S
Pr321 O346 2.562 . S
Pr321 O347 2.490 . S
Pr321 O348 2.695 . S
Pr321 O349 2.512 . S
Pr321 O351 2.437 . S
C322 Pr320 2.880 . S
C322 C323 1.491 . S
C322 O340 1.254 . S
C322 O341 1.225 . S
C323 C322 1.491 . S
C323 C324 1.392 . S
C323 C328 1.356 . S
C324 C323 1.392 . S
C324 C325 1.368 . S
C324 H352 0.929 . S
C325 C324 1.368 . S
C325 C326 1.386 . S
C325 H353 0.929 . S
C326 C325 1.386 . S
C326 C327 1.373 . S
C327 C326 1.373 . S
C327 C328 1.409 . S
C327 H354 0.931 . S
C328 C323 1.356 . S
C328 C327 1.409 . S
C328 H355 0.930 . S
C329 O342 1.270 . S
C329 O343 1.248 . S
C330 O344 1.267 . S
C330 O345 1.278 . S
C331 Pr321 2.880 . S
C331 C332 1.491 . S
C331 O346 1.254 . S
C331 O347 1.225 . S
C332 C331 1.491 . S
C332 C333 1.392 . S
C332 C337 1.356 . S
C333 C332 1.392 . S
C333 C334 1.368 . S
C333 H356 0.929 . S
C334 C333 1.368 . S
C334 C335 1.386 . S
C334 H357 0.929 . S
C335 C334 1.386 . S
C335 C336 1.373 . S
C336 C335 1.373 . S
C336 C337 1.409 . S
C336 H358 0.931 . S
C337 C332 1.356 . S
C337 C336 1.409 . S
C337 H359 0.930 . S
C338 O348 1.270 . S
C338 O349 1.248 . S
C339 O350 1.267 . S
C339 O351 1.278 . S
O340 Pr320 2.562 . S
O340 C322 1.254 . S
O341 Pr320 2.490 . S
O341 C322 1.225 . S
O342 Pr320 2.695 . S
O342 Pr321 2.436 . S
O342 C329 1.270 . S
O343 Pr320 2.512 . S
O343 C329 1.248 . S
O344 Pr321 2.438 . S
O344 C330 1.267 . S
O345 Pr320 2.437 . S
O345 C330 1.278 . S
O346 Pr321 2.562 . S
O346 C331 1.254 . S
O347 Pr321 2.490 . S
O347 C331 1.225 . S
O348 Pr320 2.436 . S
O348 Pr321 2.695 . S
O348 C338 1.270 . S
O349 Pr321 2.512 . S
O349 C338 1.248 . S
O350 Pr320 2.438 . S
O350 C339 1.267 . S
O351 Pr321 2.437 . S
O351 C339 1.278 . S
H352 C324 0.929 . S
H353 C325 0.929 . S
H354 C327 0.931 . S
H355 C328 0.930 . S
H356 C333 0.929 . S
H357 C334 0.929 . S
H358 C336 0.931 . S
H359 C337 0.930 . S
C360 C361 1.391 1_556 S
C360 C362 1.394 . S
C360 H376 0.931 . S
C361 C360 1.391 1_554 S
C361 C365 1.376 . S
C362 C360 1.394 . S
C362 C363 1.369 . S
C362 C366 1.531 . S
C363 C362 1.369 . S
C363 C364 1.410 1_556 S
C363 C371 1.503 . S
C364 C363 1.410 1_554 S
C364 C365 1.392 . S
C364 C367 1.511 . S
C365 C361 1.376 . S
C365 C364 1.392 . S
C365 H377 0.929 . S
C366 C362 1.531 . S
C366 H378 0.960 . S
C366 H379 0.962 . S
C366 H380 0.960 . S
C367 C364 1.511 . S
C367 H381 0.961 . S
C367 H382 0.961 . S
C367 H383 0.961 . S
C368 C369 1.370 . S
C368 C370 1.363 . S
C368 H384 0.931 . S
C369 C368 1.370 . S
C369 C373 1.408 . S
C370 C368 1.363 . S
C370 C371 1.370 . S
C370 C374 1.524 . S
C371 C363 1.503 . S
C371 C370 1.370 . S
C371 C372 1.403 . S
C372 C371 1.403 . S
C372 C373 1.404 . S
C372 C375 1.539 . S
C373 C369 1.408 . S
C373 C372 1.404 . S
C373 H385 0.930 . S
C374 C370 1.524 . S
C374 H386 0.956 . S
C374 H387 0.961 . S
C374 H388 0.961 . S
C375 C372 1.539 . S
C375 H389 0.958 . S
C375 H390 0.961 . S
C375 H391 0.951 1_556 S
H376 C360 0.931 . S
H377 C365 0.929 . S
H378 C366 0.960 . S
H379 C366 0.962 . S
H380 C366 0.960 . S
H381 C367 0.961 . S
H382 C367 0.961 . S
H383 C367 0.961 . S
H384 C368 0.931 . S
H385 C373 0.930 . S
H386 C374 0.956 . S
H387 C374 0.961 . S
H388 C374 0.961 . S
H389 C375 0.958 . S
H390 C375 0.961 . S
H391 C375 0.951 1_554 S
C392 C393 1.391 . S
C392 C394 1.394 . S
C392 H408 0.928 1_556 S
C393 C392 1.391 . S
C393 C397 1.376 . S
C394 C392 1.394 . S
C394 C395 1.369 . S
C394 C398 1.531 . S
C395 C394 1.369 . S
C395 C396 1.410 . S
C395 C403 1.503 . S
C396 C395 1.410 . S
C396 C397 1.392 . S
C396 C399 1.511 . S
C397 C393 1.376 . S
C397 C396 1.392 . S
C397 H409 0.929 . S
C398 C394 1.531 . S
C398 H410 0.960 . S
C398 H411 0.962 1_556 S
C398 H412 0.960 . S
C399 C396 1.511 . S
C399 H413 0.961 . S
C399 H414 0.961 . S
C399 H415 0.961 . S
C400 C401 1.370 . S
C400 C402 1.363 . S
C400 H416 0.931 . S
C401 C400 1.370 . S
C401 C405 1.408 . S
C402 C400 1.363 . S
C402 C403 1.370 . S
C402 C406 1.524 1_556 S
C403 C395 1.503 . S
C403 C402 1.370 . S
C403 C404 1.403 . S
C404 C403 1.403 . S
C404 C405 1.404 . S
C404 C407 1.539 . S
C405 C401 1.408 . S
C405 C404 1.404 . S
C405 H417 0.930 . S
C406 C402 1.524 1_554 S
C406 H418 0.956 . S
C406 H419 0.961 . S
C406 H420 0.961 . S
C407 C404 1.539 . S
C407 H421 0.958 . S
C407 H422 0.961 . S
C407 H423 0.960 . S
H408 C392 0.928 1_554 S
H409 C397 0.929 . S
H410 C398 0.960 . S
H411 C398 0.962 1_554 S
H412 C398 0.960 . S
H413 C399 0.961 . S
H414 C399 0.961 . S
H415 C399 0.961 . S
H416 C400 0.931 . S
H417 C405 0.930 . S
H418 C406 0.956 . S
H419 C406 0.961 . S
H420 C406 0.961 . S
H421 C407 0.958 . S
H422 C407 0.961 . S
H423 C407 0.960 . S
C424 C425 1.391 . S
C424 C426 1.394 . S
C424 H440 0.931 . S
C425 C424 1.391 . S
C425 C429 1.376 . S
C426 C424 1.394 . S
C426 C427 1.369 . S
C426 C430 1.531 . S
C427 C426 1.369 . S
C427 C428 1.410 . S
C427 C435 1.503 . S
C428 C427 1.410 . S
C428 C429 1.392 . S
C428 C431 1.511 . S
C429 C425 1.376 . S
C429 C428 1.392 . S
C429 H441 0.929 . S
C430 C426 1.531 . S
C430 H442 0.960 . S
C430 H443 0.962 . S
C430 H444 0.960 . S
C431 C428 1.511 . S
C431 H445 0.961 . S
C431 H446 0.961 . S
C431 H447 0.961 . S
C432 C433 1.370 . S
C432 C434 1.363 . S
C432 H448 0.931 . S
C433 C432 1.370 . S
C433 C437 1.408 . S
C434 C432 1.363 . S
C434 C435 1.370 . S
C434 C438 1.524 . S
C435 C427 1.503 . S
C435 C434 1.370 . S
C435 C436 1.403 . S
C436 C435 1.403 . S
C436 C437 1.404 . S
C436 C439 1.539 . S
C437 C433 1.408 . S
C437 C436 1.404 . S
C437 H449 0.930 . S
C438 C434 1.524 . S
C438 H450 0.956 1_556 S
C438 H451 0.961 1_556 S
C438 H452 0.961 1_556 S
C439 C436 1.539 . S
C439 H453 0.958 . S
C439 H454 0.961 . S
C439 H455 0.960 . S
H440 C424 0.931 . S
H441 C429 0.929 . S
H442 C430 0.960 . S
H443 C430 0.962 . S
H444 C430 0.960 . S
H445 C431 0.961 . S
H446 C431 0.961 . S
H447 C431 0.961 . S
H448 C432 0.931 . S
H449 C437 0.930 . S
H450 C438 0.956 1_554 S
H451 C438 0.961 1_554 S
H452 C438 0.961 1_554 S
H453 C439 0.958 . S
H454 C439 0.961 . S
H455 C439 0.960 . S
C456 C457 1.391 . S
C456 C458 1.394 . S
C456 H472 0.931 . S
C457 C456 1.391 . S
C457 C461 1.376 . S
C458 C456 1.394 . S
C458 C459 1.369 . S
C458 C462 1.531 . S
C459 C458 1.369 . S
C459 C460 1.410 . S
C459 C467 1.503 . S
C460 C459 1.410 . S
C460 C461 1.392 . S
C460 C463 1.511 1_554 S
C461 C457 1.376 . S
C461 C460 1.392 . S
C461 H473 0.929 1_554 S
C462 C458 1.531 . S
C462 H474 0.960 . S
C462 H475 0.962 . S
C462 H476 0.960 . S
C463 C460 1.511 1_556 S
C463 H477 0.961 . S
C463 H478 0.961 . S
C463 H479 0.961 . S
C464 C465 1.370 . S
C464 C466 1.363 . S
C464 H480 0.931 . S
C465 C464 1.370 . S
C465 C469 1.408 . S
C466 C464 1.363 . S
C466 C467 1.370 . S
C466 C470 1.524 . S
C467 C459 1.503 . S
C467 C466 1.370 . S
C467 C468 1.403 . S
C468 C467 1.403 . S
C468 C469 1.404 . S
C468 C471 1.539 . S
C469 C465 1.408 . S
C469 C468 1.404 . S
C469 H481 0.930 . S
C470 C466 1.524 . S
C470 H482 0.956 . S
C470 H483 0.961 . S
C470 H484 0.961 . S
C471 C468 1.539 . S
C471 H485 0.958 . S
C471 H486 0.961 1_554 S
C471 H487 0.960 . S
H472 C456 0.931 . S
H473 C461 0.929 1_556 S
H474 C462 0.960 . S
H475 C462 0.962 . S
H476 C462 0.960 . S
H477 C463 0.961 . S
H478 C463 0.961 . S
H479 C463 0.961 . S
H480 C464 0.931 . S
H481 C469 0.930 . S
H482 C470 0.956 . S
H483 C470 0.961 . S
H484 C470 0.961 . S
H485 C471 0.958 . S
H486 C471 0.961 1_556 S
H487 C471 0.960 . S
C488 C489 1.391 . S
C488 C490 1.394 . S
C488 H504 0.931 . S
C489 C488 1.391 . S
C489 C493 1.376 . S
C490 C488 1.394 . S
C490 C491 1.369 . S
C490 C494 1.531 . S
C491 C490 1.369 . S
C491 C492 1.410 . S
C491 C499 1.503 . S
C492 C491 1.410 . S
C492 C493 1.392 . S
C492 C495 1.511 . S
C493 C489 1.376 . S
C493 C492 1.392 . S
C493 H505 0.929 . S
C494 C490 1.531 . S
C494 H506 0.960 . S
C494 H507 0.962 . S
C494 H508 0.960 . S
C495 C492 1.511 . S
C495 H509 0.961 1_654 S
C495 H510 0.961 1_655 S
C495 H511 0.961 1_554 S
C496 C497 1.370 1_455 S
C496 C498 1.363 . S
C496 H512 0.931 . S
C497 C496 1.370 1_655 S
C497 C501 1.408 . S
C498 C496 1.363 . S
C498 C499 1.370 1_455 S
C498 C502 1.524 . S
C499 C491 1.503 . S
C499 C498 1.370 1_655 S
C499 C500 1.403 . S
C500 C499 1.403 . S
C500 C501 1.404 . S
C500 C503 1.539 . S
C501 C497 1.408 . S
C501 C500 1.404 . S
C501 H513 0.930 . S
C502 C498 1.524 . S
C502 H514 0.956 . S
C502 H515 0.961 . S
C502 H516 0.961 . S
C503 C500 1.539 . S
C503 H517 0.958 . S
C503 H518 0.961 1_554 S
C503 H519 0.960 . S
H504 C488 0.931 . S
H505 C493 0.929 . S
H506 C494 0.960 . S
H507 C494 0.962 . S
H508 C494 0.960 . S
H509 C495 0.961 1_456 S
H510 C495 0.961 1_455 S
H511 C495 0.961 1_556 S
H512 C496 0.931 . S
H513 C501 0.930 . S
H514 C502 0.956 . S
H515 C502 0.961 . S
H516 C502 0.961 . S
H517 C503 0.958 . S
H518 C503 0.961 1_556 S
H519 C503 0.960 . S
C520 C521 1.391 . S
C520 C522 1.394 . S
C520 H536 0.931 . S
C521 C520 1.391 . S
C521 C525 1.376 . S
C522 C520 1.394 . S
C522 C523 1.369 . S
C522 C526 1.531 . S
C523 C522 1.369 . S
C523 C524 1.410 . S
C523 C531 1.503 . S
C524 C523 1.410 . S
C524 C525 1.392 . S
C524 C527 1.511 . S
C525 C521 1.376 . S
C525 C524 1.392 . S
C525 H537 0.929 . S
C526 C522 1.531 . S
C526 H538 0.960 . S
C526 H539 0.962 . S
C526 H540 0.960 . S
C527 C524 1.511 . S
C527 H541 0.961 . S
C527 H542 0.961 . S
C527 H543 0.961 . S
C528 C529 1.370 . S
C528 C530 1.363 . S
C528 H544 0.931 . S
C529 C528 1.370 . S
C529 C533 1.408 . S
C530 C528 1.363 . S
C530 C531 1.370 . S
C530 C534 1.524 1_554 S
C531 C523 1.503 . S
C531 C530 1.370 . S
C531 C532 1.403 . S
C532 C531 1.403 . S
C532 C533 1.404 . S
C532 C535 1.539 . S
C533 C529 1.408 . S
C533 C532 1.404 . S
C533 H545 0.930 . S
C534 C530 1.524 1_556 S
C534 H546 0.956 . S
C534 H547 0.961 . S
C534 H548 0.961 . S
C535 C532 1.539 . S
C535 H549 0.958 . S
C535 H550 0.961 . S
C535 H551 0.960 . S
H536 C520 0.931 . S
H537 C525 0.929 . S
H538 C526 0.960 . S
H539 C526 0.962 . S
H540 C526 0.960 . S
H541 C527 0.961 . S
H542 C527 0.961 . S
H543 C527 0.961 . S
H544 C528 0.931 . S
H545 C533 0.930 . S
H546 C534 0.956 . S
H547 C534 0.961 . S
H548 C534 0.961 . S
H549 C535 0.958 . S
H550 C535 0.961 . S
H551 C535 0.960 . S
C552 C553 1.391 . S
C552 C554 1.394 . S
C552 H568 0.931 . S
C553 C552 1.391 . S
C553 C557 1.376 . S
C554 C552 1.394 . S
C554 C555 1.369 . S
C554 C558 1.531 . S
C555 C554 1.369 . S
C555 C556 1.410 . S
C555 C563 1.503 . S
C556 C555 1.410 . S
C556 C557 1.392 . S
C556 C559 1.511 . S
C557 C553 1.376 . S
C557 C556 1.392 . S
C557 H569 0.929 . S
C558 C554 1.531 . S
C558 H570 0.960 . S
C558 H571 0.962 . S
C558 H572 0.960 . S
C559 C556 1.511 . S
C559 H573 0.961 . S
C559 H574 0.961 . S
C559 H575 0.961 . S
C560 C561 1.370 . S
C560 C562 1.363 . S
C560 H576 0.931 . S
C561 C560 1.370 . S
C561 C565 1.408 . S
C562 C560 1.363 . S
C562 C563 1.370 . S
C562 C566 1.524 . S
C563 C555 1.503 . S
C563 C562 1.370 . S
C563 C564 1.403 . S
C564 C563 1.403 . S
C564 C565 1.404 . S
C564 C567 1.539 . S
C565 C561 1.408 . S
C565 C564 1.404 . S
C565 H577 0.930 . S
C566 C562 1.524 . S
C566 H578 0.956 . S
C566 H579 0.961 . S
C566 H580 0.961 . S
C567 C564 1.539 . S
C567 H581 0.958 . S
C567 H582 0.961 . S
C567 H583 0.960 . S
H568 C552 0.931 . S
H569 C557 0.929 . S
H570 C558 0.960 . S
H571 C558 0.962 . S
H572 C558 0.960 . S
H573 C559 0.961 . S
H574 C559 0.961 . S
H575 C559 0.961 . S
H576 C560 0.931 . S
H577 C565 0.930 . S
H578 C566 0.956 . S
H579 C566 0.961 . S
H580 C566 0.961 . S
H581 C567 0.958 . S
H582 C567 0.961 . S
H583 C567 0.960 . S
C584 C585 1.391 . S
C584 C586 1.394 . S
C584 H600 0.931 . S
C585 C584 1.391 . S
C585 C589 1.376 . S
C586 C584 1.394 . S
C586 C587 1.369 . S
C586 C590 1.531 . S
C587 C586 1.369 . S
C587 C588 1.410 . S
C587 C595 1.503 . S
C588 C587 1.410 . S
C588 C589 1.392 . S
C588 C591 1.511 . S
C589 C585 1.376 . S
C589 C588 1.392 . S
C589 H601 0.929 . S
C590 C586 1.531 . S
C590 H602 0.960 . S
C590 H603 0.962 . S
C590 H604 0.960 . S
C591 C588 1.511 . S
C591 H605 0.961 . S
C591 H606 0.961 . S
C591 H607 0.961 . S
C592 C593 1.370 . S
C592 C594 1.363 . S
C592 H608 0.931 . S
C593 C592 1.370 . S
C593 C597 1.408 . S
C594 C592 1.363 . S
C594 C595 1.370 . S
C594 C598 1.524 . S
C595 C587 1.503 . S
C595 C594 1.370 . S
C595 C596 1.403 . S
C596 C595 1.403 . S
C596 C597 1.404 . S
C596 C599 1.539 . S
C597 C593 1.408 . S
C597 C596 1.404 . S
C597 H609 0.930 . S
C598 C594 1.524 . S
C598 H610 0.956 . S
C598 H611 0.961 . S
C598 H612 0.961 . S
C599 C596 1.539 . S
C599 H613 0.958 . S
C599 H614 0.961 . S
C599 H615 0.960 . S
H600 C584 0.931 . S
H601 C589 0.929 . S
H602 C590 0.960 . S
H603 C590 0.962 . S
H604 C590 0.960 . S
H605 C591 0.961 . S
H606 C591 0.961 . S
H607 C591 0.961 . S
H608 C592 0.931 . S
H609 C597 0.930 . S
H610 C598 0.956 . S
H611 C598 0.961 . S
H612 C598 0.961 . S
H613 C599 0.958 . S
H614 C599 0.961 . S
H615 C599 0.960 . S
C616 C617 1.391 . S
C616 C618 1.394 . S
C616 H632 0.931 . S
C617 C616 1.391 . S
C617 C621 1.376 . S
C618 C616 1.394 . S
C618 C619 1.369 . S
C618 C622 1.531 . S
C619 C618 1.369 . S
C619 C620 1.410 . S
C619 C627 1.503 . S
C620 C619 1.410 . S
C620 C621 1.392 . S
C620 C623 1.511 . S
C621 C617 1.376 . S
C621 C620 1.392 . S
C621 H633 0.929 . S
C622 C618 1.531 . S
C622 H634 0.960 . S
C622 H635 0.962 . S
C622 H636 0.960 . S
C623 C620 1.511 . S
C623 H637 0.961 . S
C623 H638 0.961 . S
C623 H639 0.961 . S
C624 C625 1.370 . S
C624 C626 1.363 . S
C624 H640 0.931 1_545 S
C625 C624 1.370 . S
C625 C629 1.408 . S
C626 C624 1.363 . S
C626 C627 1.370 . S
C626 C630 1.524 . S
C627 C619 1.503 . S
C627 C626 1.370 . S
C627 C628 1.403 . S
C628 C627 1.403 . S
C628 C629 1.404 . S
C628 C631 1.539 . S
C629 C625 1.408 . S
C629 C628 1.404 . S
C629 H641 0.930 . S
C630 C626 1.524 . S
C630 H642 0.956 . S
C630 H643 0.961 . S
C630 H644 0.961 1_545 S
C631 C628 1.539 . S
C631 H645 0.958 . S
C631 H646 0.961 . S
C631 H647 0.960 . S
H632 C616 0.931 . S
H633 C621 0.929 . S
H634 C622 0.960 . S
H635 C622 0.962 . S
H636 C622 0.960 . S
H637 C623 0.961 . S
H638 C623 0.961 . S
H639 C623 0.961 . S
H640 C624 0.931 1_565 S
H641 C629 0.930 . S
H642 C630 0.956 . S
H643 C630 0.961 . S
H644 C630 0.961 1_565 S
H645 C631 0.958 . S
H646 C631 0.961 . S
H647 C631 0.960 . S
C648 C649 1.391 . S
C648 C650 1.394 . S
C648 H664 0.931 . S
C649 C648 1.391 . S
C649 C653 1.376 . S
C650 C648 1.394 . S
C650 C651 1.369 . S
C650 C654 1.531 . S
C651 C650 1.369 . S
C651 C652 1.410 . S
C651 C659 1.503 . S
C652 C651 1.410 . S
C652 C653 1.392 . S
C652 C655 1.511 . S
C653 C649 1.376 . S
C653 C652 1.392 . S
C653 H665 0.929 . S
C654 C650 1.531 . S
C654 H666 0.960 . S
C654 H667 0.962 . S
C654 H668 0.960 . S
C655 C652 1.511 . S
C655 H669 0.961 1_554 S
C655 H670 0.961 . S
C655 H671 0.961 . S
C656 C657 1.370 . S
C656 C658 1.363 . S
C656 H672 0.931 1_554 S
C657 C656 1.370 . S
C657 C661 1.408 . S
C658 C656 1.363 . S
C658 C659 1.370 . S
C658 C662 1.524 1_554 S
C659 C651 1.503 . S
C659 C658 1.370 . S
C659 C660 1.403 . S
C660 C659 1.403 . S
C660 C661 1.404 . S
C660 C663 1.539 . S
C661 C657 1.408 . S
C661 C660 1.404 . S
C661 H673 0.930 . S
C662 C658 1.524 1_556 S
C662 H674 0.956 . S
C662 H675 0.961 . S
C662 H676 0.961 . S
C663 C660 1.539 . S
C663 H677 0.958 . S
C663 H678 0.961 . S
C663 H679 0.960 . S
H664 C648 0.931 . S
H665 C653 0.929 . S
H666 C654 0.960 . S
H667 C654 0.962 . S
H668 C654 0.960 . S
H669 C655 0.961 1_556 S
H670 C655 0.961 . S
H671 C655 0.961 . S
H672 C656 0.931 1_556 S
H673 C661 0.930 . S
H674 C662 0.956 . S
H675 C662 0.961 . S
H676 C662 0.961 . S
H677 C663 0.958 . S
H678 C663 0.961 . S
H679 C663 0.960 . S
C680 C681 1.391 . S
C680 C682 1.394 . S
C680 H696 0.931 . S
C681 C680 1.391 . S
C681 C685 1.376 . S
C682 C680 1.394 . S
C682 C683 1.369 . S
C682 C686 1.533 1_665 S
C683 C682 1.369 . S
C683 C684 1.410 . S
C683 C691 1.503 1_565 S
C684 C683 1.410 . S
C684 C685 1.392 . S
C684 C687 1.511 . S
C685 C681 1.376 . S
C685 C684 1.392 . S
C685 H697 0.929 . S
C686 C682 1.533 1_445 S
C686 H698 0.962 1_455 S
C686 H699 0.961 . S
C686 H700 1.000 . S
C687 C684 1.511 . S
C687 H701 0.961 . S
C687 H702 0.961 . S
C687 H703 0.961 1_554 S
C688 C689 1.370 . S
C688 C690 1.363 . S
C688 H704 0.931 . S
C689 C688 1.370 . S
C689 C693 1.408 1_554 S
C690 C688 1.363 . S
C690 C691 1.370 . S
C690 C694 1.524 . S
C691 C683 1.503 1_545 S
C691 C690 1.370 . S
C691 C692 1.403 1_554 S
C692 C691 1.403 1_556 S
C692 C693 1.404 . S
C692 C695 1.539 . S
C693 C689 1.408 1_556 S
C693 C692 1.404 . S
C693 H705 0.930 . S
C694 C690 1.524 . S
C694 H706 0.956 . S
C694 H707 0.961 1_545 S
C694 H708 0.961 . S
C695 C692 1.539 . S
C695 H709 0.958 . S
C695 H710 0.961 . S
C695 H711 0.960 1_545 S
H696 C680 0.931 . S
H697 C685 0.929 . S
H698 C686 0.962 1_655 S
H699 C686 0.961 . S
H700 C686 1.000 . S
H701 C687 0.961 . S
H702 C687 0.961 . S
H703 C687 0.961 1_556 S
H704 C688 0.931 . S
H705 C693 0.930 . S
H706 C694 0.956 . S
H707 C694 0.961 1_565 S
H708 C694 0.961 . S
H709 C695 0.958 . S
H710 C695 0.961 . S
H711 C695 0.960 1_565 S
C712 C713 1.391 . S
C712 C714 1.394 1_655 S
C712 H728 0.931 . S
C713 C712 1.391 . S
C713 C717 1.376 1_655 S
C714 C712 1.394 1_455 S
C714 C715 1.369 . S
C714 C718 1.531 . S
C715 C714 1.369 . S
C715 C716 1.410 . S
C715 C723 1.503 . S
C716 C715 1.410 . S
C716 C717 1.392 . S
C716 C719 1.511 . S
C717 C713 1.376 1_455 S
C717 C716 1.392 . S
C717 H729 0.929 . S
C718 C714 1.531 . S
C718 H730 0.960 . S
C718 H731 0.962 1_554 S
C718 H732 0.960 . S
C719 C716 1.511 . S
C719 H733 0.961 . S
C719 H734 0.961 . S
C719 H735 0.961 . S
C720 C721 1.370 1_556 S
C720 C722 1.363 . S
C720 H736 0.931 . S
C721 C720 1.370 1_554 S
C721 C725 1.408 . S
C722 C720 1.363 . S
C722 C723 1.370 1_556 S
C722 C726 1.524 . S
C723 C715 1.503 . S
C723 C722 1.370 1_554 S
C723 C724 1.403 . S
C724 C723 1.403 . S
C724 C725 1.404 . S
C724 C727 1.539 . S
C725 C721 1.408 . S
C725 C724 1.404 . S
C725 H737 0.930 . S
C726 C722 1.524 . S
C726 H738 0.956 . S
C726 H739 0.961 . S
C726 H740 0.961 . S
C727 C724 1.539 . S
C727 H741 0.958 . S
C727 H742 0.961 . S
C727 H743 0.960 . S
H728 C712 0.931 . S
H729 C717 0.929 . S
H730 C718 0.960 . S
H731 C718 0.962 1_556 S
H732 C718 0.960 . S
H733 C719 0.961 . S
H734 C719 0.961 . S
H735 C719 0.961 . S
H736 C720 0.931 . S
H737 C725 0.930 . S
H738 C726 0.956 . S
H739 C726 0.961 . S
H740 C726 0.961 . S
H741 C727 0.958 . S
H742 C727 0.961 . S
H743 C727 0.960 . S
C744 C745 1.391 . S
C744 C746 1.394 . S
C744 H760 0.931 . S
C745 C744 1.391 . S
C745 C749 1.376 . S
C746 C744 1.394 . S
C746 C747 1.369 . S
C746 C750 1.531 . S
C747 C746 1.369 . S
C747 C748 1.410 . S
C747 C755 1.503 . S
C748 C747 1.410 . S
C748 C749 1.392 . S
C748 C751 1.511 . S
C749 C745 1.376 . S
C749 C748 1.392 . S
C749 H761 0.929 . S
C750 C746 1.531 . S
C750 H762 0.960 . S
C750 H763 0.962 . S
C750 H764 0.960 . S
C751 C748 1.511 . S
C751 H765 0.961 . S
C751 H766 0.961 . S
C751 H767 0.961 . S
C752 C753 1.370 . S
C752 C754 1.363 . S
C752 H768 0.931 . S
C753 C752 1.370 . S
C753 C757 1.408 . S
C754 C752 1.363 . S
C754 C755 1.370 . S
C754 C758 1.524 . S
C755 C747 1.503 . S
C755 C754 1.370 . S
C755 C756 1.403 . S
C756 C755 1.403 . S
C756 C757 1.404 . S
C756 C759 1.539 1_554 S
C757 C753 1.408 . S
C757 C756 1.404 . S
C757 H769 0.930 . S
C758 C754 1.524 . S
C758 H770 0.956 . S
C758 H771 0.961 . S
C758 H772 0.961 . S
C759 C756 1.539 1_556 S
C759 H773 0.958 . S
C759 H774 0.961 . S
C759 H775 0.960 . S
H760 C744 0.931 . S
H761 C749 0.929 . S
H762 C750 0.960 . S
H763 C750 0.962 . S
H764 C750 0.960 . S
H765 C751 0.961 . S
H766 C751 0.961 . S
H767 C751 0.961 . S
H768 C752 0.931 . S
H769 C757 0.930 . S
H770 C758 0.956 . S
H771 C758 0.961 . S
H772 C758 0.961 . S
H773 C759 0.958 . S
H774 C759 0.961 . S
H775 C759 0.960 . S
C776 C777 1.391 . S
C776 C778 1.394 . S
C776 H792 0.931 . S
C777 C776 1.391 . S
C777 C781 1.376 . S
C778 C776 1.394 . S
C778 C779 1.369 . S
C778 C782 1.531 . S
C779 C778 1.369 . S
C779 C780 1.410 . S
C779 C787 1.503 . S
C780 C779 1.410 . S
C780 C781 1.392 . S
C780 C783 1.511 . S
C781 C777 1.376 . S
C781 C780 1.392 . S
C781 H793 0.929 . S
C782 C778 1.531 . S
C782 H794 0.960 . S
C782 H795 0.962 1_554 S
C782 H796 0.960 . S
C783 C780 1.511 . S
C783 H797 0.961 . S
C783 H798 0.961 . S
C783 H799 0.961 . S
C784 C785 1.370 . S
C784 C786 1.363 . S
C784 H800 0.931 . S
C785 C784 1.370 . S
C785 C789 1.408 . S
C786 C784 1.363 . S
C786 C787 1.370 . S
C786 C790 1.524 . S
C787 C779 1.503 . S
C787 C786 1.370 . S
C787 C788 1.403 . S
C788 C787 1.403 . S
C788 C789 1.404 . S
C788 C791 1.539 . S
C789 C785 1.408 . S
C789 C788 1.404 . S
C789 H801 0.930 . S
C790 C786 1.524 . S
C790 H802 0.956 1_554 S
C790 H803 0.961 . S
C790 H804 0.961 1_554 S
C791 C788 1.539 . S
C791 H805 0.958 . S
C791 H806 0.961 . S
C791 H807 0.960 . S
H792 C776 0.931 . S
H793 C781 0.929 . S
H794 C782 0.960 . S
H795 C782 0.962 1_556 S
H796 C782 0.960 . S
H797 C783 0.961 . S
H798 C783 0.961 . S
H799 C783 0.961 . S
H800 C784 0.931 . S
H801 C789 0.930 . S
H802 C790 0.956 1_556 S
H803 C790 0.961 . S
H804 C790 0.961 1_556 S
H805 C791 0.958 . S
H806 C791 0.961 . S
H807 C791 0.960 . S
C808 C809 1.391 . S
C808 C810 1.394 . S
C808 H824 0.931 . S
C809 C808 1.391 . S
C809 C813 1.376 . S
C810 C808 1.394 . S
C810 C811 1.369 . S
C810 C814 1.531 . S
C811 C810 1.369 . S
C811 C812 1.410 . S
C811 C819 1.503 . S
C812 C811 1.410 . S
C812 C813 1.392 . S
C812 C815 1.511 . S
C813 C809 1.376 . S
C813 C812 1.392 . S
C813 H825 0.929 . S
C814 C810 1.531 . S
C814 H826 0.960 . S
C814 H827 0.962 . S
C814 H828 0.960 . S
C815 C812 1.511 . S
C815 H829 0.961 . S
C815 H830 0.961 . S
C815 H831 0.961 . S
C816 C817 1.370 . S
C816 C818 1.363 . S
C816 H832 0.931 . S
C817 C816 1.370 . S
C817 C821 1.408 . S
C818 C816 1.363 . S
C818 C819 1.370 . S
C818 C822 1.524 . S
C819 C811 1.503 . S
C819 C818 1.370 . S
C819 C820 1.403 . S
C820 C819 1.403 . S
C820 C821 1.404 . S
C820 C823 1.539 1_554 S
C821 C817 1.408 . S
C821 C820 1.404 . S
C821 H833 0.930 1_554 S
C822 C818 1.524 . S
C822 H834 0.956 . S
C822 H835 0.961 . S
C822 H836 0.961 . S
C823 C820 1.539 1_556 S
C823 H837 0.958 . S
C823 H838 0.961 . S
C823 H839 0.960 . S
H824 C808 0.931 . S
H825 C813 0.929 . S
H826 C814 0.960 . S
H827 C814 0.962 . S
H828 C814 0.960 . S
H829 C815 0.961 . S
H830 C815 0.961 . S
H831 C815 0.961 . S
H832 C816 0.931 . S
H833 C821 0.930 1_556 S
H834 C822 0.956 . S
H835 C822 0.961 . S
H836 C822 0.961 . S
H837 C823 0.958 . S
H838 C823 0.961 . S
H839 C823 0.960 . S
C840 C841 1.391 . S
C840 C842 1.394 . S
C840 H856 0.931 . S
C841 C840 1.391 . S
C841 C845 1.376 . S
C842 C840 1.394 . S
C842 C843 1.369 . S
C842 C846 1.531 . S
C843 C842 1.369 . S
C843 C844 1.410 . S
C843 C851 1.503 . S
C844 C843 1.410 . S
C844 C845 1.392 . S
C844 C847 1.511 . S
C845 C841 1.376 . S
C845 C844 1.392 . S
C845 H857 0.929 . S
C846 C842 1.531 . S
C846 H858 0.960 . S
C846 H859 0.962 . S
C846 H860 0.960 . S
C847 C844 1.511 . S
C847 H861 0.961 . S
C847 H862 0.961 . S
C847 H863 0.961 . S
C848 C849 1.370 . S
C848 C850 1.363 . S
C848 H864 0.931 . S
C849 C848 1.370 . S
C849 C853 1.408 . S
C850 C848 1.363 . S
C850 C851 1.370 . S
C850 C854 1.524 . S
C851 C843 1.503 . S
C851 C850 1.370 . S
C851 C852 1.403 . S
C852 C851 1.403 . S
C852 C853 1.404 . S
C852 C855 1.539 . S
C853 C849 1.408 . S
C853 C852 1.404 . S
C853 H865 0.930 . S
C854 C850 1.524 . S
C854 H866 0.956 . S
C854 H867 0.961 . S
C854 H868 0.961 . S
C855 C852 1.539 . S
C855 H869 0.958 . S
C855 H870 0.961 . S
C855 H871 0.960 . S
H856 C840 0.931 . S
H857 C845 0.929 . S
H858 C846 0.960 . S
H859 C846 0.962 . S
H860 C846 0.960 . S
H861 C847 0.961 . S
H862 C847 0.961 . S
H863 C847 0.961 . S
H864 C848 0.931 . S
H865 C853 0.930 . S
H866 C854 0.956 . S
H867 C854 0.961 . S
H868 C854 0.961 . S
H869 C855 0.958 . S
H870 C855 0.961 . S
H871 C855 0.960 . S
C872 C873 1.391 . S
C872 C874 1.394 . S
C872 H888 0.931 . S
C873 C872 1.391 . S
C873 C877 1.376 . S
C874 C872 1.394 . S
C874 C875 1.369 . S
C874 C878 1.531 . S
C875 C874 1.369 . S
C875 C876 1.410 . S
C875 C883 1.503 . S
C876 C875 1.410 . S
C876 C877 1.392 . S
C876 C879 1.511 . S
C877 C873 1.376 . S
C877 C876 1.392 . S
C877 H889 0.929 . S
C878 C874 1.531 . S
C878 H890 0.960 . S
C878 H891 0.962 . S
C878 H892 0.960 . S
C879 C876 1.511 . S
C879 H893 0.961 . S
C879 H894 0.961 . S
C879 H895 0.961 . S
C880 C881 1.370 . S
C880 C882 1.363 . S
C880 H896 0.931 . S
C881 C880 1.370 . S
C881 C885 1.408 . S
C882 C880 1.363 . S
C882 C883 1.370 . S
C882 C886 1.524 . S
C883 C875 1.503 . S
C883 C882 1.370 . S
C883 C884 1.403 . S
C884 C883 1.403 . S
C884 C885 1.404 . S
C884 C887 1.539 . S
C885 C881 1.408 . S
C885 C884 1.404 . S
C885 H897 0.930 . S
C886 C882 1.524 . S
C886 H898 0.956 . S
C886 H899 0.961 . S
C886 H900 0.961 . S
C887 C884 1.539 . S
C887 H901 0.958 1_556 S
C887 H902 0.961 . S
C887 H903 0.960 . S
H888 C872 0.931 . S
H889 C877 0.929 . S
H890 C878 0.960 . S
H891 C878 0.962 . S
H892 C878 0.960 . S
H893 C879 0.961 . S
H894 C879 0.961 . S
H895 C879 0.961 . S
H896 C880 0.931 . S
H897 C885 0.930 . S
H898 C886 0.956 . S
H899 C886 0.961 . S
H900 C886 0.961 . S
H901 C887 0.958 1_554 S
H902 C887 0.961 . S
H903 C887 0.960 . S
C904 C905 1.391 . S
C904 C906 1.394 . S
C904 H920 0.931 . S
C905 C904 1.391 . S
C905 C909 1.376 . S
C906 C904 1.394 . S
C906 C907 1.369 . S
C906 C910 1.531 . S
C907 C906 1.369 . S
C907 C908 1.410 . S
C907 C915 1.503 . S
C908 C907 1.410 . S
C908 C909 1.392 . S
C908 C911 1.511 . S
C909 C905 1.376 . S
C909 C908 1.392 . S
C909 H921 0.929 . S
C910 C906 1.531 . S
C910 H922 0.960 . S
C910 H923 0.962 . S
C910 H924 0.960 . S
C911 C908 1.511 . S
C911 H925 0.961 . S
C911 H926 0.961 . S
C911 H927 0.961 . S
C912 C913 1.370 . S
C912 C914 1.363 . S
C912 H928 0.931 . S
C913 C912 1.370 . S
C913 C917 1.408 . S
C914 C912 1.363 . S
C914 C915 1.370 . S
C914 C918 1.524 . S
C915 C907 1.503 . S
C915 C914 1.370 . S
C915 C916 1.403 . S
C916 C915 1.403 . S
C916 C917 1.404 . S
C916 C919 1.539 . S
C917 C913 1.408 . S
C917 C916 1.404 . S
C917 H929 0.930 . S
C918 C914 1.524 . S
C918 H930 0.956 . S
C918 H931 0.961 . S
C918 H932 0.961 . S
C919 C916 1.539 . S
C919 H933 0.958 . S
C919 H934 0.961 . S
C919 H935 0.960 . S
H920 C904 0.931 . S
H921 C909 0.929 . S
H922 C910 0.960 . S
H923 C910 0.962 . S
H924 C910 0.960 . S
H925 C911 0.961 . S
H926 C911 0.961 . S
H927 C911 0.961 . S
H928 C912 0.931 . S
H929 C917 0.930 . S
H930 C918 0.956 . S
H931 C918 0.961 . S
H932 C918 0.961 . S
H933 C919 0.958 . S
H934 C919 0.961 . S
H935 C919 0.960 . S
C936 C937 1.391 . S
C936 C938 1.394 . S
C936 H952 0.931 . S
C937 C936 1.391 . S
C937 C941 1.376 . S
C938 C936 1.394 . S
C938 C939 1.369 . S
C938 C942 1.531 . S
C939 C938 1.369 . S
C939 C940 1.410 . S
C939 C947 1.503 . S
C940 C939 1.410 . S
C940 C941 1.392 . S
C940 C943 1.511 1_455 S
C941 C937 1.376 . S
C941 C940 1.392 . S
C941 H953 0.929 . S
C942 C938 1.531 . S
C942 H954 0.960 . S
C942 H955 0.962 . S
C942 H956 0.960 . S
C943 C940 1.511 1_655 S
C943 H957 0.961 . S
C943 H958 0.961 1_655 S
C943 H959 0.961 . S
C944 C945 1.370 . S
C944 C946 1.363 . S
C944 H960 0.931 . S
C945 C944 1.370 . S
C945 C949 1.408 . S
C946 C944 1.363 . S
C946 C947 1.370 . S
C946 C950 1.524 . S
C947 C939 1.503 . S
C947 C946 1.370 . S
C947 C948 1.403 . S
C948 C947 1.403 . S
C948 C949 1.404 . S
C948 C951 1.539 . S
C949 C945 1.408 . S
C949 C948 1.404 . S
C949 H961 0.930 . S
C950 C946 1.524 . S
C950 H962 0.956 . S
C950 H963 0.961 . S
C950 H964 0.961 . S
C951 C948 1.539 . S
C951 H965 0.958 . S
C951 H966 0.961 1_455 S
C951 H967 0.942 1_455 S
H952 C936 0.931 . S
H953 C941 0.929 . S
H954 C942 0.960 . S
H955 C942 0.962 . S
H956 C942 0.960 . S
H957 C943 0.961 . S
H958 C943 0.961 1_455 S
H959 C943 0.961 . S
H960 C944 0.931 . S
H961 C949 0.930 . S
H962 C950 0.956 . S
H963 C950 0.961 . S
H964 C950 0.961 . S
H965 C951 0.958 . S
H966 C951 0.961 1_655 S
H967 C951 0.942 1_655 S
C968 C969 1.391 . S
C968 C970 1.394 . S
C968 H984 0.931 . S
C969 C968 1.391 . S
C969 C973 1.376 . S
C970 C968 1.394 . S
C970 C971 1.369 . S
C970 C974 1.531 . S
C971 C970 1.369 . S
C971 C972 1.410 . S
C971 C979 1.503 . S
C972 C971 1.410 . S
C972 C973 1.392 . S
C972 C975 1.511 . S
C973 C969 1.376 . S
C973 C972 1.392 . S
C973 H985 0.929 . S
C974 C970 1.531 . S
C974 H986 0.960 . S
C974 H987 0.962 . S
C974 H988 0.960 . S
C975 C972 1.511 . S
C975 H989 0.961 . S
C975 H990 0.961 . S
C975 H991 0.961 . S
C976 C977 1.370 . S
C976 C978 1.363 . S
C976 H992 0.931 . S
C977 C976 1.370 . S
C977 C981 1.408 . S
C978 C976 1.363 . S
C978 C979 1.370 . S
C978 C982 1.524 . S
C979 C971 1.503 . S
C979 C978 1.370 . S
C979 C980 1.403 . S
C980 C979 1.403 . S
C980 C981 1.404 . S
C980 C983 1.539 . S
C981 C977 1.408 . S
C981 C980 1.404 . S
C981 H993 0.930 . S
C982 C978 1.524 . S
C982 H994 0.956 . S
C982 H995 0.961 . S
C982 H996 0.961 . S
C983 C980 1.539 . S
C983 H997 0.958 . S
C983 H998 0.961 . S
C983 H999 0.960 . S
H984 C968 0.931 . S
H985 C973 0.929 . S
H986 C974 0.960 . S
H987 C974 0.962 . S
H988 C974 0.960 . S
H989 C975 0.961 . S
H990 C975 0.961 . S
H991 C975 0.961 . S
H992 C976 0.931 . S
H993 C981 0.930 . S
H994 C982 0.956 . S
H995 C982 0.961 . S
H996 C982 0.961 . S
H997 C983 0.958 . S
H998 C983 0.961 . S
H999 C983 0.960 . S
C1000 C1001 1.378 1_565 S
C1000 C1002 1.393 . S
C1000 H1016 0.944 . S
C1001 C1000 1.378 1_545 S
C1001 C1005 1.376 . S
C1002 C1000 1.393 . S
C1002 C1003 1.369 1_565 S
C1002 C1006 1.531 . S
C1003 C1002 1.369 1_545 S
C1003 C1004 1.410 . S
C1003 C1011 1.503 . S
C1004 C1003 1.410 . S
C1004 C1005 1.392 . S
C1004 C1007 1.511 . S
C1005 C1001 1.376 . S
C1005 C1004 1.392 . S
C1005 H1017 0.929 . S
C1006 C1002 1.531 . S
C1006 H1018 0.960 . S
C1006 H1019 0.962 . S
C1006 H1020 0.960 . S
C1007 C1004 1.511 . S
C1007 H1021 0.961 . S
C1007 H1022 0.961 . S
C1007 H1023 0.961 . S
C1008 C1009 1.370 . S
C1008 C1010 1.363 . S
C1008 H1024 0.931 . S
C1009 C1008 1.370 . S
C1009 C1013 1.408 1_545 S
C1010 C1008 1.363 . S
C1010 C1011 1.370 . S
C1010 C1014 1.524 . S
C1011 C1003 1.503 . S
C1011 C1010 1.370 . S
C1011 C1012 1.403 1_545 S
C1012 C1011 1.403 1_565 S
C1012 C1013 1.404 . S
C1012 C1015 1.539 . S
C1013 C1009 1.408 1_565 S
C1013 C1012 1.404 . S
C1013 H1025 0.930 . S
C1014 C1010 1.524 . S
C1014 H1026 0.956 . S
C1014 H1027 0.961 . S
C1014 H1028 0.961 . S
C1015 C1012 1.539 . S
C1015 H1029 0.958 . S
C1015 H1030 0.961 . S
C1015 H1031 0.960 . S
H1016 C1000 0.944 . S
H1017 C1005 0.929 . S
H1018 C1006 0.960 . S
H1019 C1006 0.962 . S
H1020 C1006 0.960 . S
H1021 C1007 0.961 . S
H1022 C1007 0.961 . S
H1023 C1007 0.961 . S
H1024 C1008 0.931 . S
H1025 C1013 0.930 . S
H1026 C1014 0.956 . S
H1027 C1014 0.961 . S
H1028 C1014 0.961 . S
H1029 C1015 0.958 . S
H1030 C1015 0.961 . S
H1031 C1015 0.960 . S
C1032 C1033 1.391 . S
C1032 C1034 1.394 . S
C1032 H1048 0.931 . S
C1033 C1032 1.391 . S
C1033 C1037 1.376 . S
C1034 C1032 1.394 . S
C1034 C1035 1.369 . S
C1034 C1038 1.531 . S
C1035 C1034 1.369 . S
C1035 C1036 1.410 . S
C1035 C1043 1.503 . S
C1036 C1035 1.410 . S
C1036 C1037 1.392 . S
C1036 C1039 1.511 . S
C1037 C1033 1.376 . S
C1037 C1036 1.392 . S
C1037 H1049 0.929 . S
C1038 C1034 1.531 . S
C1038 H1050 0.960 . S
C1038 H1051 0.962 . S
C1038 H1052 0.960 . S
C1039 C1036 1.511 . S
C1039 H1053 0.961 . S
C1039 H1054 0.961 . S
C1039 H1055 0.961 . S
C1040 C1041 1.370 . S
C1040 C1042 1.363 . S
C1040 H1056 0.931 . S
C1041 C1040 1.370 . S
C1041 C1045 1.408 . S
C1042 C1040 1.363 . S
C1042 C1043 1.370 . S
C1042 C1046 1.524 . S
C1043 C1035 1.503 . S
C1043 C1042 1.370 . S
C1043 C1044 1.403 . S
C1044 C1043 1.403 . S
C1044 C1045 1.404 . S
C1044 C1047 1.539 . S
C1045 C1041 1.408 . S
C1045 C1044 1.404 . S
C1045 H1057 0.930 . S
C1046 C1042 1.524 . S
C1046 H1058 0.956 . S
C1046 H1059 0.961 . S
C1046 H1060 0.961 . S
C1047 C1044 1.539 . S
C1047 H1061 0.958 . S
C1047 H1062 0.961 . S
C1047 H1063 0.960 . S
H1048 C1032 0.931 . S
H1049 C1037 0.929 . S
H1050 C1038 0.960 . S
H1051 C1038 0.962 . S
H1052 C1038 0.960 . S
H1053 C1039 0.961 . S
H1054 C1039 0.961 . S
H1055 C1039 0.961 . S
H1056 C1040 0.931 . S
H1057 C1045 0.930 . S
H1058 C1046 0.956 . S
H1059 C1046 0.961 . S
H1060 C1046 0.961 . S
H1061 C1047 0.958 . S
H1062 C1047 0.961 . S
H1063 C1047 0.960 . S
C1064 C1065 1.391 . S
C1064 C1066 1.394 . S
C1064 H1080 0.931 . S
C1065 C1064 1.391 . S
C1065 C1069 1.376 . S
C1066 C1064 1.394 . S
C1066 C1067 1.369 . S
C1066 C1070 1.531 . S
C1067 C1066 1.369 . S
C1067 C1068 1.410 . S
C1067 C1075 1.503 . S
C1068 C1067 1.410 . S
C1068 C1069 1.392 . S
C1068 C1071 1.511 . S
C1069 C1065 1.376 . S
C1069 C1068 1.392 . S
C1069 H1081 0.929 . S
C1070 C1066 1.531 . S
C1070 H1082 0.960 . S
C1070 H1083 0.962 . S
C1070 H1084 0.960 . S
C1071 C1068 1.511 . S
C1071 H1085 0.961 . S
C1071 H1086 0.961 . S
C1071 H1087 0.961 . S
C1072 C1073 1.370 . S
C1072 C1074 1.363 . S
C1072 H1088 0.931 . S
C1073 C1072 1.370 . S
C1073 C1077 1.408 . S
C1074 C1072 1.363 . S
C1074 C1075 1.370 . S
C1074 C1078 1.524 . S
C1075 C1067 1.503 . S
C1075 C1074 1.370 . S
C1075 C1076 1.403 . S
C1076 C1075 1.403 . S
C1076 C1077 1.404 . S
C1076 C1079 1.539 . S
C1077 C1073 1.408 . S
C1077 C1076 1.404 . S
C1077 H1089 0.930 . S
C1078 C1074 1.524 . S
C1078 H1090 0.956 . S
C1078 H1091 0.961 . S
C1078 H1092 0.961 . S
C1079 C1076 1.539 . S
C1079 H1093 0.958 . S
C1079 H1094 0.961 . S
C1079 H1095 0.960 . S
H1080 C1064 0.931 . S
H1081 C1069 0.929 . S
H1082 C1070 0.960 . S
H1083 C1070 0.962 . S
H1084 C1070 0.960 . S
H1085 C1071 0.961 . S
H1086 C1071 0.961 . S
H1087 C1071 0.961 . S
H1088 C1072 0.931 . S
H1089 C1077 0.930 . S
H1090 C1078 0.956 . S
H1091 C1078 0.961 . S
H1092 C1078 0.961 . S
H1093 C1079 0.958 . S
H1094 C1079 0.961 . S
H1095 C1079 0.960 . S
C1096 C1097 1.391 . S
C1096 C1098 1.394 . S
C1096 H1112 0.931 . S
C1097 C1096 1.391 . S
C1097 C1101 1.376 . S
C1098 C1096 1.394 . S
C1098 C1099 1.369 . S
C1098 C1102 1.531 . S
C1099 C1098 1.369 . S
C1099 C1100 1.410 . S
C1099 C1107 1.503 . S
C1100 C1099 1.410 . S
C1100 C1101 1.392 . S
C1100 C1103 1.511 . S
C1101 C1097 1.376 . S
C1101 C1100 1.392 . S
C1101 H1113 0.929 . S
C1102 C1098 1.531 . S
C1102 H1114 0.960 . S
C1102 H1115 0.962 . S
C1102 H1116 0.960 . S
C1103 C1100 1.511 . S
C1103 H1117 0.961 . S
C1103 H1118 0.961 . S
C1103 H1119 0.961 . S
C1104 C1105 1.370 . S
C1104 C1106 1.363 . S
C1104 H1120 0.931 . S
C1105 C1104 1.370 . S
C1105 C1109 1.408 . S
C1106 C1104 1.363 . S
C1106 C1107 1.370 . S
C1106 C1110 1.524 . S
C1107 C1099 1.503 . S
C1107 C1106 1.370 . S
C1107 C1108 1.403 . S
C1108 C1107 1.403 . S
C1108 C1109 1.404 . S
C1108 C1111 1.539 . S
C1109 C1105 1.408 . S
C1109 C1108 1.404 . S
C1109 H1121 0.930 . S
C1110 C1106 1.524 . S
C1110 H1122 0.956 . S
C1110 H1123 0.961 . S
C1110 H1124 0.961 . S
C1111 C1108 1.539 . S
C1111 H1125 0.958 . S
C1111 H1126 0.961 . S
C1111 H1127 0.960 . S
H1112 C1096 0.931 . S
H1113 C1101 0.929 . S
H1114 C1102 0.960 . S
H1115 C1102 0.962 . S
H1116 C1102 0.960 . S
H1117 C1103 0.961 . S
H1118 C1103 0.961 . S
H1119 C1103 0.961 . S
H1120 C1104 0.931 . S
H1121 C1109 0.930 . S
H1122 C1110 0.956 . S
H1123 C1110 0.961 . S
H1124 C1110 0.961 . S
H1125 C1111 0.958 . S
H1126 C1111 0.961 . S
H1127 C1111 0.960 . S
C1128 C1129 1.391 . S
C1128 C1130 1.394 . S
C1128 H1144 0.931 . S
C1129 C1128 1.391 . S
C1129 C1133 1.376 . S
C1130 C1128 1.394 . S
C1130 C1131 1.369 . S
C1130 C1134 1.531 . S
C1131 C1130 1.369 . S
C1131 C1132 1.410 . S
C1131 C1139 1.503 . S
C1132 C1131 1.410 . S
C1132 C1133 1.392 . S
C1132 C1135 1.511 . S
C1133 C1129 1.376 . S
C1133 C1132 1.392 . S
C1133 H1145 0.929 . S
C1134 C1130 1.531 . S
C1134 H1146 0.960 . S
C1134 H1147 0.962 . S
C1134 H1148 0.960 . S
C1135 C1132 1.511 . S
C1135 H1149 0.961 . S
C1135 H1150 0.961 . S
C1135 H1151 0.961 . S
C1136 C1137 1.370 . S
C1136 C1138 1.363 . S
C1136 H1152 0.931 . S
C1137 C1136 1.370 . S
C1137 C1141 1.408 . S
C1138 C1136 1.363 . S
C1138 C1139 1.370 . S
C1138 C1142 1.524 . S
C1139 C1131 1.503 . S
C1139 C1138 1.370 . S
C1139 C1140 1.403 . S
C1140 C1139 1.403 . S
C1140 C1141 1.404 . S
C1140 C1143 1.539 . S
C1141 C1137 1.408 . S
C1141 C1140 1.404 . S
C1141 H1153 0.930 . S
C1142 C1138 1.524 . S
C1142 H1154 0.956 . S
C1142 H1155 0.961 . S
C1142 H1156 0.961 . S
C1143 C1140 1.539 . S
C1143 H1157 0.958 . S
C1143 H1158 0.961 . S
C1143 H1159 0.960 . S
H1144 C1128 0.931 . S
H1145 C1133 0.929 . S
H1146 C1134 0.960 . S
H1147 C1134 0.962 . S
H1148 C1134 0.960 . S
H1149 C1135 0.961 . S
H1150 C1135 0.961 . S
H1151 C1135 0.961 . S
H1152 C1136 0.931 . S
H1153 C1141 0.930 . S
H1154 C1142 0.956 . S
H1155 C1142 0.961 . S
H1156 C1142 0.961 . S
H1157 C1143 0.958 . S
H1158 C1143 0.961 . S
H1159 C1143 0.960 . S
C1160 C1161 1.391 . S
C1160 C1162 1.394 . S
C1160 H1176 0.931 . S
C1161 C1160 1.391 . S
C1161 C1165 1.376 . S
C1162 C1160 1.394 . S
C1162 C1163 1.369 . S
C1162 C1166 1.531 . S
C1163 C1162 1.369 . S
C1163 C1164 1.410 . S
C1163 C1171 1.503 . S
C1164 C1163 1.410 . S
C1164 C1165 1.392 . S
C1164 C1167 1.511 . S
C1165 C1161 1.376 . S
C1165 C1164 1.392 . S
C1165 H1177 0.929 . S
C1166 C1162 1.531 . S
C1166 H1178 0.960 . S
C1166 H1179 0.962 . S
C1166 H1180 0.960 . S
C1167 C1164 1.511 . S
C1167 H1181 0.961 . S
C1167 H1182 0.961 . S
C1167 H1183 0.961 . S
C1168 C1169 1.370 . S
C1168 C1170 1.363 . S
C1168 H1184 0.931 . S
C1169 C1168 1.370 . S
C1169 C1173 1.408 . S
C1170 C1168 1.363 . S
C1170 C1171 1.370 . S
C1170 C1174 1.524 . S
C1171 C1163 1.503 . S
C1171 C1170 1.370 . S
C1171 C1172 1.403 . S
C1172 C1171 1.403 . S
C1172 C1173 1.404 . S
C1172 C1175 1.539 . S
C1173 C1169 1.408 . S
C1173 C1172 1.404 . S
C1173 H1185 0.930 . S
C1174 C1170 1.524 . S
C1174 H1186 0.956 . S
C1174 H1187 0.961 . S
C1174 H1188 0.961 . S
C1175 C1172 1.539 . S
C1175 H1189 0.958 . S
C1175 H1190 0.961 . S
C1175 H1191 0.960 . S
H1176 C1160 0.931 . S
H1177 C1165 0.929 . S
H1178 C1166 0.960 . S
H1179 C1166 0.962 . S
H1180 C1166 0.960 . S
H1181 C1167 0.961 . S
H1182 C1167 0.961 . S
H1183 C1167 0.961 . S
H1184 C1168 0.931 . S
H1185 C1173 0.930 . S
H1186 C1174 0.956 . S
H1187 C1174 0.961 . S
H1188 C1174 0.961 . S
H1189 C1175 0.958 . S
H1190 C1175 0.961 . S
H1191 C1175 0.960 . S
C1192 C1193 1.391 . S
C1192 C1194 1.394 . S
C1192 H1208 0.931 . S
C1193 C1192 1.391 . S
C1193 C1197 1.376 . S
C1194 C1192 1.394 . S
C1194 C1195 1.369 . S
C1194 C1198 1.531 . S
C1195 C1194 1.369 . S
C1195 C1196 1.410 . S
C1195 C1203 1.503 . S
C1196 C1195 1.410 . S
C1196 C1197 1.392 . S
C1196 C1199 1.511 . S
C1197 C1193 1.376 . S
C1197 C1196 1.392 . S
C1197 H1209 0.929 . S
C1198 C1194 1.531 . S
C1198 H1210 0.960 . S
C1198 H1211 0.962 . S
C1198 H1212 0.960 . S
C1199 C1196 1.511 . S
C1199 H1213 0.961 . S
C1199 H1214 0.961 . S
C1199 H1215 0.961 . S
C1200 C1201 1.370 . S
C1200 C1202 1.363 . S
C1200 H1216 0.931 . S
C1201 C1200 1.370 . S
C1201 C1205 1.408 . S
C1202 C1200 1.363 . S
C1202 C1203 1.370 . S
C1202 C1206 1.524 . S
C1203 C1195 1.503 . S
C1203 C1202 1.370 . S
C1203 C1204 1.403 . S
C1204 C1203 1.403 . S
C1204 C1205 1.404 . S
C1204 C1207 1.539 . S
C1205 C1201 1.408 . S
C1205 C1204 1.404 . S
C1205 H1217 0.930 . S
C1206 C1202 1.524 . S
C1206 H1218 0.956 . S
C1206 H1219 0.961 . S
C1206 H1220 0.961 . S
C1207 C1204 1.539 . S
C1207 H1221 0.958 . S
C1207 H1222 0.961 . S
C1207 H1223 0.960 . S
H1208 C1192 0.931 . S
H1209 C1197 0.929 . S
H1210 C1198 0.960 . S
H1211 C1198 0.962 . S
H1212 C1198 0.960 . S
H1213 C1199 0.961 . S
H1214 C1199 0.961 . S
H1215 C1199 0.961 . S
H1216 C1200 0.931 . S
H1217 C1205 0.930 . S
H1218 C1206 0.956 . S
H1219 C1206 0.961 . S
H1220 C1206 0.961 . S
H1221 C1207 0.958 . S
H1222 C1207 0.961 . S
H1223 C1207 0.960 . S
C361 C6 1.553 . S
C369 C286 1.520 . S
C393 C50 2.655 1_556 S
C401 C330 2.736 . S
C425 C86 1.797 . S
C433 C250 1.794 . S
C457 C170 3.086 . S
C465 C90 3.061 . S
C489 C210 2.848 . S
C497 C10 2.907 1_655 S
C521 C46 2.586 . S
C529 C130 2.557 . S
C553 C290 1.970 . S
C561 C206 2.006 . S
C585 C326 1.601 . S
C593 C126 1.631 . S
C617 C166 1.714 . S
C625 C246 1.782 1_545 S
C649 C95 1.883 . S
C657 C19 1.955 . S
C681 C55 1.370 . S
C689 C15 1.369 . S
C713 C59 3.367 . S
C721 C99 3.327 . S
C745 C135 1.895 . S
C753 C219 1.883 . S
C777 C139 1.949 . S
C785 C175 1.975 . S
C809 C179 1.688 . S
C817 C215 1.693 . S
C841 C335 1.973 . S
C849 C259 2.008 . S
C873 C295 0.752 . S
C881 C255 0.739 . S
C905 C339 2.197 . S
C913 C299 2.262 . S
C937 C18 0.974 . S
C945 C9 1.027 . S
C969 C49 1.023 . S
C977 C58 0.982 . S
C1001 C98 1.003 . S
C1009 C89 0.987 . S
C1033 C138 1.053 . S
C1041 C129 1.010 1_556 S
C1065 C178 0.993 . S
C1073 C169 1.035 . S
C1097 C218 1.009 . S
C1105 C209 0.990 1_556 S
C1129 C258 1.057 . S
C1137 C249 1.021 1_554 S
C1161 C298 1.048 1_554 S
C1169 C289 1.002 . S
C1193 C338 1.022 . S
C1201 C329 0.990 1_554 S
