# Generated by pormake.
# Topology wnd, (6)-cn, num edge types: 1
# Building blocks:
#     Node 0, Type 0, BuildingBlock: BETGAK_clean_sbu_0, # of connection points: 6
#     Node 1, Type 0, BuildingBlock: BETGAK_clean_sbu_0, # of connection points: 6
#     Node 2, Type 0, BuildingBlock: BETGAK_clean_sbu_0, # of connection points: 6
#     Node 3, Type 0, BuildingBlock: BETGAK_clean_sbu_0, # of connection points: 6
#     Node 4, Type 0, BuildingBlock: BETGAK_clean_sbu_0, # of connection points: 6
#     Node 5, Type 0, BuildingBlock: BETGAK_clean_sbu_0, # of connection points: 6
#     Node 6, Type 0, BuildingBlock: BETGAK_clean_sbu_0, # of connection points: 6
#     Node 7, Type 0, BuildingBlock: BETGAK_clean_sbu_0, # of connection points: 6
#     Node 8, Type 0, BuildingBlock: BETGAK_clean_sbu_0, # of connection points: 6
#     Node 9, Type 0, BuildingBlock: BETGAK_clean_sbu_0, # of connection points: 6
#     Node 10, Type 0, BuildingBlock: BETGAK_clean_sbu_0, # of connection points: 6
#     Node 11, Type 0, BuildingBlock: BETGAK_clean_sbu_0, # of connection points: 6
#     Node 12, Type 0, BuildingBlock: BETGAK_clean_sbu_0, # of connection points: 6
#     Node 13, Type 0, BuildingBlock: BETGAK_clean_sbu_0, # of connection points: 6
#     Node 14, Type 0, BuildingBlock: BETGAK_clean_sbu_0, # of connection points: 6
#     Node 15, Type 0, BuildingBlock: BETGAK_clean_sbu_0, # of connection points: 6
#     Node 16, Type 0, BuildingBlock: BETGAK_clean_sbu_0, # of connection points: 6
#     Node 17, Type 0, BuildingBlock: BETGAK_clean_sbu_0, # of connection points: 6
#     Node 18, Type 0, BuildingBlock: BETGAK_clean_sbu_0, # of connection points: 6
#     Node 19, Type 0, BuildingBlock: BETGAK_clean_sbu_0, # of connection points: 6
#     Node 20, Type 0, BuildingBlock: BETGAK_clean_sbu_0, # of connection points: 6
#     Node 21, Type 0, BuildingBlock: BETGAK_clean_sbu_0, # of connection points: 6
#     Node 22, Type 0, BuildingBlock: BETGAK_clean_sbu_0, # of connection points: 6
#     Node 23, Type 0, BuildingBlock: BETGAK_clean_sbu_0, # of connection points: 6
#     Node 24, Type 0, BuildingBlock: BETGAK_clean_sbu_0, # of connection points: 6
#     Node 25, Type 0, BuildingBlock: BETGAK_clean_sbu_0, # of connection points: 6
#     Node 26, Type 0, BuildingBlock: BETGAK_clean_sbu_0, # of connection points: 6
#     Node 27, Type 0, BuildingBlock: BETGAK_clean_sbu_0, # of connection points: 6
#     Node 28, Type 0, BuildingBlock: BETGAK_clean_sbu_0, # of connection points: 6
#     Node 29, Type 0, BuildingBlock: BETGAK_clean_sbu_0, # of connection points: 6
#     Node 30, Type 0, BuildingBlock: BETGAK_clean_sbu_0, # of connection points: 6
#     Node 31, Type 0, BuildingBlock: BETGAK_clean_sbu_0, # of connection points: 6
#     Node 32, Type 0, BuildingBlock: BETGAK_clean_sbu_0, # of connection points: 6
#     Node 33, Type 0, BuildingBlock: BETGAK_clean_sbu_0, # of connection points: 6
#     Node 34, Type 0, BuildingBlock: BETGAK_clean_sbu_0, # of connection points: 6
#     Node 35, Type 0, BuildingBlock: BETGAK_clean_sbu_0, # of connection points: 6
#     Edge 36, Type (0, 0), BuildingBlock: UVAHIK_clean_linker_0, # of connection points: 2
#     Edge 37, Type (0, 0), BuildingBlock: UVAHIK_clean_linker_0, # of connection points: 2
#     Edge 38, Type (0, 0), BuildingBlock: UVAHIK_clean_linker_0, # of connection points: 2
#     Edge 39, Type (0, 0), BuildingBlock: UVAHIK_clean_linker_0, # of connection points: 2
#     Edge 40, Type (0, 0), BuildingBlock: UVAHIK_clean_linker_0, # of connection points: 2
#     Edge 41, Type (0, 0), BuildingBlock: UVAHIK_clean_linker_0, # of connection points: 2
#     Edge 42, Type (0, 0), BuildingBlock: UVAHIK_clean_linker_0, # of connection points: 2
#     Edge 43, Type (0, 0), BuildingBlock: UVAHIK_clean_linker_0, # of connection points: 2
#     Edge 44, Type (0, 0), BuildingBlock: UVAHIK_clean_linker_0, # of connection points: 2
#     Edge 45, Type (0, 0), BuildingBlock: UVAHIK_clean_linker_0, # of connection points: 2
#     Edge 46, Type (0, 0), BuildingBlock: UVAHIK_clean_linker_0, # of connection points: 2
#     Edge 47, Type (0, 0), BuildingBlock: UVAHIK_clean_linker_0, # of connection points: 2
#     Edge 48, Type (0, 0), BuildingBlock: UVAHIK_clean_linker_0, # of connection points: 2
#     Edge 49, Type (0, 0), BuildingBlock: UVAHIK_clean_linker_0, # of connection points: 2
#     Edge 50, Type (0, 0), BuildingBlock: UVAHIK_clean_linker_0, # of connection points: 2
#     Edge 51, Type (0, 0), BuildingBlock: UVAHIK_clean_linker_0, # of connection points: 2
#     Edge 52, Type (0, 0), BuildingBlock: UVAHIK_clean_linker_0, # of connection points: 2
#     Edge 53, Type (0, 0), BuildingBlock: UVAHIK_clean_linker_0, # of connection points: 2
#     Edge 54, Type (0, 0), BuildingBlock: UVAHIK_clean_linker_0, # of connection points: 2
#     Edge 55, Type (0, 0), BuildingBlock: UVAHIK_clean_linker_0, # of connection points: 2
#     Edge 56, Type (0, 0), BuildingBlock: UVAHIK_clean_linker_0, # of connection points: 2
#     Edge 57, Type (0, 0), BuildingBlock: UVAHIK_clean_linker_0, # of connection points: 2
#     Edge 58, Type (0, 0), BuildingBlock: UVAHIK_clean_linker_0, # of connection points: 2
#     Edge 59, Type (0, 0), BuildingBlock: UVAHIK_clean_linker_0, # of connection points: 2
#     Edge 60, Type (0, 0), BuildingBlock: UVAHIK_clean_linker_0, # of connection points: 2
#     Edge 61, Type (0, 0), BuildingBlock: UVAHIK_clean_linker_0, # of connection points: 2
#     Edge 62, Type (0, 0), BuildingBlock: UVAHIK_clean_linker_0, # of connection points: 2
#     Edge 63, Type (0, 0), BuildingBlock: UVAHIK_clean_linker_0, # of connection points: 2
#     Edge 64, Type (0, 0), BuildingBlock: UVAHIK_clean_linker_0, # of connection points: 2
#     Edge 65, Type (0, 0), BuildingBlock: UVAHIK_clean_linker_0, # of connection points: 2
#     Edge 66, Type (0, 0), BuildingBlock: UVAHIK_clean_linker_0, # of connection points: 2
#     Edge 67, Type (0, 0), BuildingBlock: UVAHIK_clean_linker_0, # of connection points: 2
#     Edge 68, Type (0, 0), BuildingBlock: UVAHIK_clean_linker_0, # of connection points: 2
#     Edge 69, Type (0, 0), BuildingBlock: UVAHIK_clean_linker_0, # of connection points: 2
#     Edge 70, Type (0, 0), BuildingBlock: UVAHIK_clean_linker_0, # of connection points: 2
#     Edge 71, Type (0, 0), BuildingBlock: UVAHIK_clean_linker_0, # of connection points: 2
#     Edge 72, Type (0, 0), BuildingBlock: UVAHIK_clean_linker_0, # of connection points: 2
#     Edge 73, Type (0, 0), BuildingBlock: UVAHIK_clean_linker_0, # of connection points: 2
#     Edge 74, Type (0, 0), BuildingBlock: UVAHIK_clean_linker_0, # of connection points: 2
#     Edge 75, Type (0, 0), BuildingBlock: UVAHIK_clean_linker_0, # of connection points: 2
#     Edge 76, Type (0, 0), BuildingBlock: UVAHIK_clean_linker_0, # of connection points: 2
#     Edge 77, Type (0, 0), BuildingBlock: UVAHIK_clean_linker_0, # of connection points: 2
#     Edge 78, Type (0, 0), BuildingBlock: UVAHIK_clean_linker_0, # of connection points: 2
#     Edge 79, Type (0, 0), BuildingBlock: UVAHIK_clean_linker_0, # of connection points: 2
#     Edge 80, Type (0, 0), BuildingBlock: UVAHIK_clean_linker_0, # of connection points: 2
#     Edge 81, Type (0, 0), BuildingBlock: UVAHIK_clean_linker_0, # of connection points: 2
#     Edge 82, Type (0, 0), BuildingBlock: UVAHIK_clean_linker_0, # of connection points: 2
#     Edge 83, Type (0, 0), BuildingBlock: UVAHIK_clean_linker_0, # of connection points: 2
#     Edge 84, Type (0, 0), BuildingBlock: UVAHIK_clean_linker_0, # of connection points: 2
#     Edge 85, Type (0, 0), BuildingBlock: UVAHIK_clean_linker_0, # of connection points: 2
#     Edge 86, Type (0, 0), BuildingBlock: UVAHIK_clean_linker_0, # of connection points: 2
#     Edge 87, Type (0, 0), BuildingBlock: UVAHIK_clean_linker_0, # of connection points: 2
#     Edge 88, Type (0, 0), BuildingBlock: UVAHIK_clean_linker_0, # of connection points: 2
#     Edge 89, Type (0, 0), BuildingBlock: UVAHIK_clean_linker_0, # of connection points: 2
#     Edge 90, Type (0, 0), BuildingBlock: UVAHIK_clean_linker_0, # of connection points: 2
#     Edge 91, Type (0, 0), BuildingBlock: UVAHIK_clean_linker_0, # of connection points: 2
#     Edge 92, Type (0, 0), BuildingBlock: UVAHIK_clean_linker_0, # of connection points: 2
#     Edge 93, Type (0, 0), BuildingBlock: UVAHIK_clean_linker_0, # of connection points: 2
#     Edge 94, Type (0, 0), BuildingBlock: UVAHIK_clean_linker_0, # of connection points: 2
#     Edge 95, Type (0, 0), BuildingBlock: UVAHIK_clean_linker_0, # of connection points: 2
#     Edge 96, Type (0, 0), BuildingBlock: UVAHIK_clean_linker_0, # of connection points: 2
#     Edge 97, Type (0, 0), BuildingBlock: UVAHIK_clean_linker_0, # of connection points: 2
#     Edge 98, Type (0, 0), BuildingBlock: UVAHIK_clean_linker_0, # of connection points: 2
#     Edge 99, Type (0, 0), BuildingBlock: UVAHIK_clean_linker_0, # of connection points: 2
#     Edge 100, Type (0, 0), BuildingBlock: UVAHIK_clean_linker_0, # of connection points: 2
#     Edge 101, Type (0, 0), BuildingBlock: UVAHIK_clean_linker_0, # of connection points: 2
#     Edge 102, Type (0, 0), BuildingBlock: UVAHIK_clean_linker_0, # of connection points: 2
#     Edge 103, Type (0, 0), BuildingBlock: UVAHIK_clean_linker_0, # of connection points: 2
#     Edge 104, Type (0, 0), BuildingBlock: UVAHIK_clean_linker_0, # of connection points: 2
#     Edge 105, Type (0, 0), BuildingBlock: UVAHIK_clean_linker_0, # of connection points: 2
#     Edge 106, Type (0, 0), BuildingBlock: UVAHIK_clean_linker_0, # of connection points: 2
#     Edge 107, Type (0, 0), BuildingBlock: UVAHIK_clean_linker_0, # of connection points: 2
#     Edge 108, Type (0, 0), BuildingBlock: UVAHIK_clean_linker_0, # of connection points: 2
#     Edge 109, Type (0, 0), BuildingBlock: UVAHIK_clean_linker_0, # of connection points: 2
#     Edge 110, Type (0, 0), BuildingBlock: UVAHIK_clean_linker_0, # of connection points: 2
#     Edge 111, Type (0, 0), BuildingBlock: UVAHIK_clean_linker_0, # of connection points: 2
#     Edge 112, Type (0, 0), BuildingBlock: UVAHIK_clean_linker_0, # of connection points: 2
#     Edge 113, Type (0, 0), BuildingBlock: UVAHIK_clean_linker_0, # of connection points: 2
#     Edge 114, Type (0, 0), BuildingBlock: UVAHIK_clean_linker_0, # of connection points: 2
#     Edge 115, Type (0, 0), BuildingBlock: UVAHIK_clean_linker_0, # of connection points: 2
#     Edge 116, Type (0, 0), BuildingBlock: UVAHIK_clean_linker_0, # of connection points: 2
#     Edge 117, Type (0, 0), BuildingBlock: UVAHIK_clean_linker_0, # of connection points: 2
#     Edge 118, Type (0, 0), BuildingBlock: UVAHIK_clean_linker_0, # of connection points: 2
#     Edge 119, Type (0, 0), BuildingBlock: UVAHIK_clean_linker_0, # of connection points: 2
#     Edge 120, Type (0, 0), BuildingBlock: UVAHIK_clean_linker_0, # of connection points: 2
#     Edge 121, Type (0, 0), BuildingBlock: UVAHIK_clean_linker_0, # of connection points: 2
#     Edge 122, Type (0, 0), BuildingBlock: UVAHIK_clean_linker_0, # of connection points: 2
#     Edge 123, Type (0, 0), BuildingBlock: UVAHIK_clean_linker_0, # of connection points: 2
#     Edge 124, Type (0, 0), BuildingBlock: UVAHIK_clean_linker_0, # of connection points: 2
#     Edge 125, Type (0, 0), BuildingBlock: UVAHIK_clean_linker_0, # of connection points: 2
#     Edge 126, Type (0, 0), BuildingBlock: UVAHIK_clean_linker_0, # of connection points: 2
#     Edge 127, Type (0, 0), BuildingBlock: UVAHIK_clean_linker_0, # of connection points: 2
#     Edge 128, Type (0, 0), BuildingBlock: UVAHIK_clean_linker_0, # of connection points: 2
#     Edge 129, Type (0, 0), BuildingBlock: UVAHIK_clean_linker_0, # of connection points: 2
#     Edge 130, Type (0, 0), BuildingBlock: UVAHIK_clean_linker_0, # of connection points: 2
#     Edge 131, Type (0, 0), BuildingBlock: UVAHIK_clean_linker_0, # of connection points: 2
#     Edge 132, Type (0, 0), BuildingBlock: UVAHIK_clean_linker_0, # of connection points: 2
#     Edge 133, Type (0, 0), BuildingBlock: UVAHIK_clean_linker_0, # of connection points: 2
#     Edge 134, Type (0, 0), BuildingBlock: UVAHIK_clean_linker_0, # of connection points: 2
#     Edge 135, Type (0, 0), BuildingBlock: UVAHIK_clean_linker_0, # of connection points: 2
#     Edge 136, Type (0, 0), BuildingBlock: UVAHIK_clean_linker_0, # of connection points: 2
#     Edge 137, Type (0, 0), BuildingBlock: UVAHIK_clean_linker_0, # of connection points: 2
#     Edge 138, Type (0, 0), BuildingBlock: UVAHIK_clean_linker_0, # of connection points: 2
#     Edge 139, Type (0, 0), BuildingBlock: UVAHIK_clean_linker_0, # of connection points: 2
#     Edge 140, Type (0, 0), BuildingBlock: UVAHIK_clean_linker_0, # of connection points: 2
#     Edge 141, Type (0, 0), BuildingBlock: UVAHIK_clean_linker_0, # of connection points: 2
#     Edge 142, Type (0, 0), BuildingBlock: UVAHIK_clean_linker_0, # of connection points: 2
#     Edge 143, Type (0, 0), BuildingBlock: UVAHIK_clean_linker_0, # of connection points: 2
# Relax obj value: 0.096
# Max RMSD: 0.193
# Mean RMSD: 0.193
data_MOF--net-wnd--node1-BETGAK_clean_sbu_0--edge1-UVAHIK_clean_linker_0
_symmetry_space_group_name_H-M    P1
_symmetry_Int_Tables_number       1
_symmetry_cell_setting            triclinic
loop_
_symmetry_equiv_pos_as_xyz
'x, y, z'
_cell_length_a     49.347168
_cell_length_b     49.351941
_cell_length_c     204.16848
_cell_angle_alpha  89.924208
_cell_angle_beta   89.983918
_cell_angle_gamma 119.98954
loop_
_atom_site_label
_atom_site_type_symbol
_atom_site_fract_x
_atom_site_fract_y
_atom_site_fract_z
_atom_type_partial_charge
La0 La 0.49285 0.06838 0.06316 0.0
La1 La 0.52493 0.02855 0.06562 0.0
C2 C 0.47192 0.10418 0.06592 0.0
C3 C 0.48242 0.1374 0.06465 0.0
C4 C 0.51096 0.15674 0.06146 0.0
C5 C 0.52229 0.18895 0.06087 0.0
C6 C 0.50524 0.2024 0.06344 0.0
C7 C 0.47636 0.18269 0.06653 0.0
C8 C 0.46513 0.15055 0.06713 0.0
C9 C 0.51546 0.06135 0.05195 0.0
C10 C 0.56771 0.10081 0.0646 0.0
C11 C 0.54688 0.99201 0.06617 0.0
C12 C 0.54699 0.96327 0.06403 0.0
C13 C 0.5251 0.93352 0.06646 0.0
C14 C 0.52935 0.90773 0.06547 0.0
C15 C 0.55577 0.91114 0.06208 0.0
C16 C 0.57685 0.94062 0.05941 0.0
C17 C 0.57254 0.9663 0.06039 0.0
C18 C 0.50804 0.04972 0.07596 0.0
C19 C 0.45329 0.99486 0.06157 0.0
O20 O 0.46239 0.08529 0.06084 0.0
O21 O 0.49037 0.09939 0.06977 0.0
O22 O 0.5007 0.07673 0.05266 0.0
O23 O 0.51682 0.05063 0.0575 0.0
O24 O 0.54248 0.10394 0.0649 0.0
O25 O 0.566 0.07335 0.06414 0.0
O26 O 0.52418 0.98946 0.06994 0.0
O27 O 0.55696 0.01566 0.06209 0.0
O28 O 0.53331 0.04789 0.07573 0.0
O29 O 0.49369 0.03934 0.07069 0.0
O30 O 0.48003 0.99459 0.06142 0.0
O31 O 0.45212 0.02071 0.06289 0.0
H32 H 0.52474 0.14702 0.05954 0.0
H33 H 0.54442 0.20331 0.0584 0.0
H34 H 0.4628 0.19223 0.06865 0.0
H35 H 0.44326 0.13606 0.06968 0.0
H36 H 0.50538 0.93038 0.06937 0.0
H37 H 0.51272 0.88546 0.06763 0.0
H38 H 0.59716 0.94405 0.05669 0.0
H39 H 0.59007 0.98894 0.05852 0.0
La40 La 0.02919 0.46052 0.06333 0.0
La41 La 0.06917 0.53218 0.06584 0.0
C42 C 0.9915 0.40413 0.06601 0.0
C43 C 0.95774 0.38269 0.06479 0.0
C44 C 0.94721 0.35203 0.06266 0.0
C45 C 0.91515 0.33102 0.06187 0.0
C46 C 0.89286 0.34017 0.06326 0.0
C47 C 0.90364 0.37117 0.06526 0.0
C48 C 0.93564 0.39217 0.066 0.0
C49 C 0.04009 0.49015 0.05199 0.0
C50 C 0.9974 0.50381 0.06407 0.0
C51 C 0.10648 0.59049 0.06652 0.0
C52 C 0.13511 0.61933 0.0643 0.0
C53 C 0.16493 0.62741 0.06671 0.0
C54 C 0.19065 0.65744 0.06563 0.0
C55 C 0.18708 0.68022 0.06218 0.0
C56 C 0.15752 0.67161 0.05955 0.0
C57 C 0.13192 0.64164 0.0606 0.0
C58 C 0.04615 0.494 0.07617 0.0
C59 C 0.10248 0.49346 0.06207 0.0
O60 O 1.01026 0.41286 0.06091 0.0
O61 O 0.99819 0.42741 0.07 0.0
O62 O 0.02468 0.46001 0.05271 0.0
O63 O 0.04872 0.50226 0.05761 0.0
O64 O 0.9938 0.47529 0.06449 0.0
O65 O 0.02514 0.52928 0.06381 0.0
O66 O 0.10917 0.56981 0.07008 0.0
O67 O 0.08227 0.57753 0.06259 0.0
O68 O 0.0483 0.52121 0.07584 0.0
O69 O 0.05721 0.49001 0.07099 0.0
O70 O 0.10297 0.52058 0.06176 0.0
O71 O 0.07648 0.46667 0.06345 0.0
H72 H 0.96377 0.3442 0.06167 0.0
H73 H 0.90786 0.30756 0.06019 0.0
H74 H 0.88734 0.37907 0.06646 0.0
H75 H 0.94297 0.41569 0.06765 0.0
H76 H 0.16819 0.61102 0.06966 0.0
H77 H 0.21299 0.66325 0.06777 0.0
H78 H 0.15396 0.68831 0.05678 0.0
H79 H 0.10923 0.63639 0.05875 0.0
La80 La 0.63652 0.60401 0.063 0.0
La81 La 0.56475 0.57141 0.06537 0.0
C82 C 0.69287 0.62293 0.06575 0.0
C83 C 0.71448 0.61075 0.06456 0.0
C84 C 0.74429 0.63032 0.06191 0.0
C85 C 0.76538 0.61939 0.06107 0.0
C86 C 0.75719 0.58866 0.06289 0.0
C87 C 0.72707 0.56898 0.06544 0.0
C88 C 0.70598 0.57983 0.06625 0.0
C89 C 0.60765 0.58583 0.05159 0.0
C90 C 0.59375 0.52877 0.06339 0.0
C91 C 0.50637 0.55006 0.06606 0.0
C92 C 0.47807 0.55149 0.0641 0.0
C93 C 0.46892 0.57026 0.06756 0.0
C94 C 0.43912 0.56665 0.06664 0.0
C95 C 0.41759 0.54404 0.06228 0.0
C96 C 0.42733 0.52629 0.05861 0.0
C97 C 0.4571 0.52989 0.05953 0.0
C98 C 0.60245 0.58602 0.07574 0.0
C99 C 0.60294 0.64398 0.06194 0.0
O100 O 0.68427 0.63305 0.06064 0.0
O101 O 0.66945 0.60624 0.06972 0.0
O102 O 0.63774 0.60064 0.05238 0.0
O103 O 0.59516 0.58192 0.05719 0.0
O104 O 0.62205 0.55379 0.0641 0.0
O105 O 0.56819 0.53086 0.06305 0.0
O106 O 0.52674 0.5715 0.07001 0.0
O107 O 0.51967 0.54073 0.06175 0.0
O108 O 0.57568 0.56049 0.07528 0.0
O109 O 0.60643 0.60158 0.07063 0.0
O110 O 0.57595 0.61725 0.06162 0.0
O111 O 0.62993 0.64494 0.0632 0.0
H112 H 0.75139 0.65419 0.06055 0.0
H113 H 0.78814 0.6351 0.05898 0.0
H114 H 0.71995 0.54537 0.067 0.0
H115 H 0.68316 0.56406 0.0683 0.0
H116 H 0.48426 0.58687 0.07118 0.0
H117 H 0.4327 0.58112 0.06947 0.0
H118 H 0.4114 0.50842 0.05526 0.0
H119 H 0.4631 0.5146 0.05688 0.0
La120 La 0.07517 0.48164 0.47391 0.0
La121 La 0.03452 0.51298 0.4718 0.0
C122 C 0.11201 0.46243 0.47079 0.0
C123 C 0.14539 0.47354 0.47198 0.0
C124 C 0.16303 0.49892 0.47616 0.0
C125 C 0.19546 0.51155 0.47669 0.0
C126 C 0.21087 0.49916 0.473 0.0
C127 C 0.19287 0.47335 0.4689 0.0
C128 C 0.16048 0.46072 0.46839 0.0
C129 C 0.06596 0.50054 0.48539 0.0
C130 C 0.10652 0.55663 0.47313 0.0
C131 C 0.99705 0.53386 0.47134 0.0
C132 C 0.96823 0.53391 0.47348 0.0
C133 C 0.93868 0.51259 0.47089 0.0
C134 C 0.91295 0.51697 0.47186 0.0
C135 C 0.9162 0.54296 0.47539 0.0
C136 C 0.94545 0.56345 0.47821 0.0
C137 C 0.97108 0.55901 0.47726 0.0
C138 C 0.05633 0.49775 0.46129 0.0
C139 C 1.00197 0.44101 0.47549 0.0
O140 O 0.09312 0.45172 0.47587 0.0
O141 O 0.10671 0.48115 0.46715 0.0
O142 O 0.08157 0.48612 0.48449 0.0
O143 O 0.05623 0.5037 0.47985 0.0
O144 O 0.1102 0.5318 0.47262 0.0
O145 O 0.07877 0.55427 0.47359 0.0
O146 O 0.99466 0.51112 0.46762 0.0
O147 O 1.02092 0.54443 0.47536 0.0
O148 O 0.05437 0.5229 0.4617 0.0
O149 O 0.04595 0.48284 0.46651 0.0
O150 O 1.00125 0.46747 0.47595 0.0
O151 O 0.02789 0.44051 0.47388 0.0
H152 H 0.15184 0.50947 0.47889 0.0
H153 H 0.20858 0.53161 0.47984 0.0
H154 H 0.20385 0.46293 0.46606 0.0
H155 H 0.14728 0.44133 0.46509 0.0
H156 H 0.93569 0.49328 0.46786 0.0
H157 H 0.89088 0.50081 0.46958 0.0
H158 H 0.94876 0.58342 0.48104 0.0
H159 H 0.99357 0.57614 0.47924 0.0
La160 La 0.61025 0.62581 0.47372 0.0
La161 La 0.57691 0.55392 0.47127 0.0
C162 C 0.63023 0.68242 0.47102 0.0
C163 C 0.61824 0.70427 0.47211 0.0
C164 C 0.63785 0.73412 0.47471 0.0
C165 C 0.62708 0.7554 0.47546 0.0
C166 C 0.59646 0.74734 0.47358 0.0
C167 C 0.57675 0.71719 0.47106 0.0
C168 C 0.58745 0.69593 0.47035 0.0
C169 C 0.58824 0.59627 0.48498 0.0
C170 C 0.53502 0.58403 0.4729 0.0
C171 C 0.55395 0.49533 0.47056 0.0
C172 C 0.55563 0.46641 0.47157 0.0
C173 C 0.55007 0.44675 0.46617 0.0
C174 C 0.54598 0.41679 0.46698 0.0
C175 C 0.54739 0.40562 0.47323 0.0
C176 C 0.5544 0.42582 0.47863 0.0
C177 C 0.55825 0.45587 0.47782 0.0
C178 C 0.59297 0.59216 0.46097 0.0
C179 C 0.6497 0.59136 0.47481 0.0
O180 O 0.63945 0.67336 0.4762 0.0
O181 O 0.61389 0.65929 0.46698 0.0
O182 O 0.60342 0.6264 0.48426 0.0
O183 O 0.58626 0.58417 0.47941 0.0
O184 O 0.56045 0.61208 0.47223 0.0
O185 O 0.53648 0.55812 0.47334 0.0
O186 O 0.57121 0.51487 0.46596 0.0
O187 O 0.55019 0.50952 0.47562 0.0
O188 O 0.56698 0.56575 0.46138 0.0
O189 O 0.60816 0.59575 0.46612 0.0
O190 O 0.62303 0.56424 0.47464 0.0
O191 O 0.65092 0.61875 0.47393 0.0
H192 H 0.66162 0.7411 0.47612 0.0
H193 H 0.64281 0.77819 0.47751 0.0
H194 H 0.55322 0.71017 0.46947 0.0
H195 H 0.57168 0.67312 0.46831 0.0
H196 H 0.54763 0.45411 0.4613 0.0
H197 H 0.54111 0.4021 0.4627 0.0
H198 H 0.55556 0.4179 0.48352 0.0
H199 H 0.56221 0.47035 0.4821 0.0
La200 La 0.46672 0.01814 0.47402 0.0
La201 La 0.53844 0.05923 0.4716 0.0
C202 C 0.41041 0.98059 0.47131 0.0
C203 C 0.38894 0.94675 0.47246 0.0
C204 C 0.3588 0.93627 0.47494 0.0
C205 C 0.33779 0.90421 0.47574 0.0
C206 C 0.34639 0.88185 0.47403 0.0
C207 C 0.37687 0.89255 0.47165 0.0
C208 C 0.3979 0.92456 0.47091 0.0
C209 C 0.49628 0.02574 0.48525 0.0
C210 C 0.51069 0.98728 0.47268 0.0
C211 C 0.59666 0.09645 0.47084 0.0
C212 C 0.62554 0.12682 0.472 0.0
C213 C 0.64436 0.14261 0.46658 0.0
C214 C 0.67443 0.1682 0.46742 0.0
C215 C 0.68651 0.17879 0.47372 0.0
C216 C 0.66713 0.16398 0.47917 0.0
C217 C 0.63697 0.13803 0.47832 0.0
C218 C 0.50048 0.03722 0.46128 0.0
C219 C 0.49878 0.09164 0.47543 0.0
O220 O 0.41904 0.99902 0.47646 0.0
O221 O 0.43375 0.9876 0.46729 0.0
O222 O 0.46618 1.00999 0.48452 0.0
O223 O 0.50838 0.03663 0.47972 0.0
O224 O 0.48209 0.98352 0.47229 0.0
O225 O 0.53601 1.01505 0.47319 0.0
O226 O 0.57655 0.09509 0.46648 0.0
O227 O 0.58323 0.07686 0.47572 0.0
O228 O 0.52748 0.03887 0.46159 0.0
O229 O 0.49626 0.04769 0.46652 0.0
O230 O 0.52642 0.09319 0.47542 0.0
O231 O 0.47211 0.06515 0.47427 0.0
H232 H 0.35138 0.95289 0.4762 0.0
H233 H 0.31478 0.89699 0.4777 0.0
H234 H 0.38433 0.87621 0.4702 0.0
H235 H 0.42102 0.93182 0.469 0.0
H236 H 0.6363 0.13431 0.46166 0.0
H237 H 0.68854 0.17932 0.46312 0.0
H238 H 0.67579 0.17155 0.48409 0.0
H239 H 0.62314 0.12615 0.48261 0.0
La240 La 0.57962 0.05858 0.9716 0.0
La241 La 0.61041 0.01782 0.97418 0.0
C242 C 0.55885 0.09607 0.97087 0.0
C243 C 0.55829 0.12448 0.9731 0.0
C244 C 0.57967 0.15433 0.97063 0.0
C245 C 0.57494 0.17979 0.97166 0.0
C246 C 0.54854 0.17596 0.97512 0.0
C247 C 0.52798 0.14641 0.97783 0.0
C248 C 0.53276 0.12104 0.97682 0.0
C249 C 0.59639 0.03708 0.9613 0.0
C250 C 0.65066 0.09085 0.976 0.0
C251 C 0.62946 0.98035 0.97165 0.0
C252 C 0.6167 0.94646 0.97283 0.0
C253 C 0.63591 0.93567 0.97542 0.0
C254 C 0.62439 0.90355 0.97628 0.0
C255 C 0.59341 0.88144 0.97453 0.0
C256 C 0.57411 0.89247 0.97203 0.0
C257 C 0.58554 0.92452 0.97122 0.0
C258 C 0.58775 0.02533 0.98535 0.0
C259 C 0.53574 0.98656 0.97266 0.0
O260 O 0.58273 0.09911 0.96745 0.0
O261 O 0.54701 0.07145 0.97471 0.0
O262 O 0.57139 0.03936 0.9615 0.0
O263 O 0.61063 0.04717 0.9666 0.0
O264 O 0.62408 0.09144 0.97616 0.0
O265 O 0.65164 0.06507 0.97452 0.0
O266 O 0.63888 0.9988 0.97679 0.0
O267 O 0.6136 0.98748 0.96752 0.0
O268 O 0.60222 1.00968 0.98468 0.0
O269 O 0.58675 0.03616 0.97979 0.0
O270 O 0.56068 0.98297 0.97237 0.0
O271 O 0.53797 1.01425 0.97312 0.0
H272 H 0.5993 0.15777 0.96765 0.0
H273 H 0.59116 0.20212 0.96947 0.0
H274 H 0.50769 0.14267 0.98061 0.0
H275 H 0.51558 0.09833 0.97871 0.0
H276 H 0.65993 0.95208 0.97672 0.0
H277 H 0.63983 0.89609 0.97833 0.0
H278 H 0.55031 0.87633 0.97054 0.0
H279 H 0.57001 0.93202 0.96923 0.0
La280 La 0.03265 0.55528 0.97154 0.0
La281 La 0.07361 0.62669 0.97412 0.0
C282 C 0.99439 0.49727 0.97061 0.0
C283 C 0.96393 0.46901 0.97218 0.0
C284 C 0.94297 0.45316 0.96705 0.0
C285 C 0.91681 0.4235 0.96804 0.0
C286 C 0.91079 0.40872 0.9742 0.0
C287 C 0.93121 0.42513 0.97941 0.0
C288 C 0.95753 0.45486 0.97841 0.0
C289 C 0.05659 0.59365 0.96126 0.0
C290 C 1.0002 0.59504 0.97511 0.0
C291 C 0.11207 0.68302 0.97155 0.0
C292 C 0.14571 0.70449 0.97287 0.0
C293 C 0.15598 0.73499 0.97508 0.0
C294 C 0.18798 0.75616 0.97589 0.0
C295 C 0.21047 0.74734 0.97446 0.0
C296 C 0.19996 0.71648 0.97239 0.0
C297 C 0.16802 0.69532 0.97162 0.0
C298 C 0.0617 0.5968 0.98544 0.0
C299 C 0.10411 0.58213 0.97348 0.0
O300 O 0.99474 0.51826 0.96662 0.0
O301 O 1.01599 0.50972 0.97515 0.0
O302 O 0.05444 0.56644 0.96163 0.0
O303 O 0.04549 0.59781 0.96641 0.0
O304 O 0.99887 0.56752 0.97537 0.0
O305 O 0.02668 0.62155 0.97382 0.0
O306 O 0.09281 0.67439 0.97656 0.0
O307 O 0.10572 0.65968 0.9676 0.0
O308 O 0.07766 0.62693 0.98475 0.0
O309 O 0.0531 0.58486 0.97981 0.0
O310 O 0.10825 0.61085 0.97295 0.0
O311 O 0.07607 0.55701 0.97372 0.0
H312 H 0.94759 0.46311 0.96217 0.0
H313 H 0.9021 0.41162 0.96387 0.0
H314 H 0.92717 0.41481 0.98424 0.0
H315 H 0.97336 0.46625 0.98246 0.0
H316 H 0.13926 0.74259 0.97609 0.0
H317 H 0.19508 0.77951 0.97762 0.0
H318 H 0.21642 0.70884 0.97115 0.0
H319 H 0.1609 0.67196 0.96991 0.0
La320 La 0.53639 0.51406 0.97157 0.0
La321 La 0.46459 0.48099 0.97405 0.0
C322 C 0.59483 0.53633 0.97068 0.0
C323 C 0.62402 0.53514 0.9717 0.0
C324 C 0.64316 0.5397 0.96624 0.0
C325 C 0.67331 0.54424 0.967 0.0
C326 C 0.68521 0.54429 0.97326 0.0
C327 C 0.66555 0.5383 0.97873 0.0
C328 C 0.6353 0.53402 0.97796 0.0
C329 C 0.49822 0.49905 0.96129 0.0
C330 C 0.49869 0.44122 0.97486 0.0
C331 C 0.40804 0.46096 0.9712 0.0
C332 C 0.38498 0.47098 0.97253 0.0
C333 C 0.3935 0.49882 0.97593 0.0
C334 C 0.37231 0.50978 0.97655 0.0
C335 C 0.34218 0.49307 0.97378 0.0
C336 C 0.3337 0.46487 0.97048 0.0
C337 C 0.3549 0.45401 0.96986 0.0
C338 C 0.49369 0.49968 0.98541 0.0
C339 C 0.50701 0.55636 0.9735 0.0
O340 O 0.57481 0.51802 0.96626 0.0
O341 O 0.5812 0.54139 0.97567 0.0
O342 O 0.52473 0.52489 0.96174 0.0
O343 O 0.4945 0.48348 0.96639 0.0
O344 O 0.52578 0.46789 0.97494 0.0
O345 O 0.4715 0.44021 0.97384 0.0
O346 O 0.41698 0.45044 0.97619 0.0
O347 O 0.43162 0.48021 0.96752 0.0
O348 O 0.46356 0.48465 0.98466 0.0
O349 O 0.50612 0.50353 0.9798 0.0
O350 O 0.47868 0.53114 0.97303 0.0
O351 O 0.53276 0.55458 0.97374 0.0
H352 H 0.63523 0.541 0.96136 0.0
H353 H 0.68759 0.5483 0.96268 0.0
H354 H 0.67402 0.53827 0.98362 0.0
H355 H 0.62124 0.53088 0.98228 0.0
H356 H 0.41673 0.51238 0.97799 0.0
H357 H 0.37956 0.53137 0.97918 0.0
H358 H 0.31095 0.4516 0.9682 0.0
H359 H 0.34805 0.43271 0.96714 0.0
La360 La 0.06919 0.57388 0.56524 0.0
La361 La 0.02824 0.6048 0.56311 0.0
C362 C 0.10675 0.55311 0.56566 0.0
C363 C 0.13524 0.55271 0.56341 0.0
C364 C 0.16509 0.57415 0.56585 0.0
C365 C 0.1906 0.5695 0.56479 0.0
C366 C 0.18681 0.54312 0.56134 0.0
C367 C 0.15725 0.52251 0.55867 0.0
C368 C 0.13184 0.52722 0.55969 0.0
C369 C 0.04765 0.58916 0.57578 0.0
C370 C 0.10142 0.64564 0.56149 0.0
C371 C 0.99157 0.6243 0.56617 0.0
C372 C 0.95844 0.61405 0.56492 0.0
C373 C 0.93963 0.58712 0.56121 0.0
C374 C 0.90739 0.5757 0.56066 0.0
C375 C 0.8934 0.59101 0.56381 0.0
C376 C 0.9126 0.61829 0.56743 0.0
C377 C 0.94476 0.62963 0.56799 0.0
C378 C 0.03739 0.58576 0.55165 0.0
C379 C 0.99716 0.52992 0.564 0.0
O380 O 0.10964 0.57639 0.56927 0.0
O381 O 0.08235 0.54197 0.56178 0.0
O382 O 0.05009 0.56429 0.57539 0.0
O383 O 0.05759 0.60397 0.57054 0.0
O384 O 0.10221 0.61924 0.561 0.0
O385 O 0.07549 0.64602 0.56314 0.0
O386 O 1.01082 0.63517 0.56116 0.0
O387 O 0.99617 0.60494 0.56977 0.0
O388 O 1.02163 0.60002 0.55254 0.0
O389 O 0.04729 0.58281 0.55717 0.0
O390 O 0.99335 0.55469 0.56448 0.0
O391 O 0.02495 0.53241 0.56353 0.0
H392 H 0.1685 0.59376 0.56882 0.0
H393 H 0.21294 0.58576 0.56696 0.0
H394 H 0.15353 0.50224 0.55589 0.0
H395 H 0.10911 0.51001 0.55783 0.0
H396 H 0.94978 0.57459 0.55886 0.0
H397 H 0.89344 0.55485 0.55778 0.0
H398 H 0.90266 0.63041 0.57002 0.0
H399 H 0.95883 0.65016 0.57096 0.0
La400 La 0.5245 0.53194 0.5656 0.0
La401 La 0.49262 0.4604 0.563 0.0
C402 C 0.54657 0.59033 0.56648 0.0
C403 C 0.54534 0.61942 0.56539 0.0
C404 C 0.55045 0.639 0.57079 0.0
C405 C 0.55489 0.66907 0.56993 0.0
C406 C 0.55426 0.68041 0.56365 0.0
C407 C 0.5477 0.66029 0.55825 0.0
C408 C 0.54352 0.63013 0.5591 0.0
C409 C 0.50788 0.49332 0.57584 0.0
C410 C 0.45242 0.49393 0.56166 0.0
C411 C 0.47281 0.40372 0.5656 0.0
C412 C 0.48494 0.382 0.56452 0.0
C413 C 0.4652 0.35189 0.56205 0.0
C414 C 0.47605 0.33067 0.56133 0.0
C415 C 0.50688 0.33905 0.56311 0.0
C416 C 0.52673 0.36949 0.56547 0.0
C417 C 0.51594 0.39069 0.56615 0.0
C418 C 0.51525 0.49045 0.55183 0.0
C419 C 0.56761 0.50311 0.56427 0.0
O420 O 0.52788 0.57021 0.57086 0.0
O421 O 0.55211 0.57684 0.56154 0.0
O422 O 0.53365 0.51996 0.57554 0.0
O423 O 0.49316 0.48964 0.57062 0.0
O424 O 0.47886 0.52121 0.56187 0.0
O425 O 0.45153 0.46676 0.56264 0.0
O426 O 0.46384 0.41295 0.56041 0.0
O427 O 0.4889 0.42669 0.5697 0.0
O428 O 0.50049 0.46031 0.5525 0.0
O429 O 0.5166 0.50236 0.55739 0.0
O430 O 0.54243 0.47476 0.56476 0.0
O431 O 0.56559 0.52868 0.56378 0.0
H432 H 0.55225 0.63148 0.57568 0.0
H433 H 0.5594 0.68371 0.57421 0.0
H434 H 0.54713 0.66835 0.55334 0.0
H435 H 0.53991 0.61568 0.55484 0.0
H436 H 0.44126 0.34465 0.56074 0.0
H437 H 0.4602 0.30766 0.55939 0.0
H438 H 0.55043 0.37677 0.56698 0.0
H439 H 0.5318 0.41374 0.56807 0.0
La440 La 0.56492 0.0274 0.56542 0.0
La441 La 0.63663 0.06837 0.563 0.0
C442 C 0.50669 0.99022 0.56619 0.0
C443 C 0.47778 0.95989 0.56501 0.0
C444 C 0.45895 0.94404 0.57044 0.0
C445 C 0.42887 0.91849 0.56959 0.0
C446 C 0.41677 0.90799 0.56329 0.0
C447 C 0.43614 0.92287 0.55784 0.0
C448 C 0.46632 0.94878 0.55869 0.0
C449 C 0.60278 0.04935 0.57576 0.0
C450 C 0.60445 0.99488 0.56158 0.0
C451 C 0.69297 0.10582 0.5657 0.0
C452 C 0.71455 0.13963 0.56455 0.0
C453 C 0.7449 0.15006 0.56221 0.0
C454 C 0.76602 0.18211 0.56144 0.0
C455 C 0.75732 0.20451 0.56304 0.0
C456 C 0.72663 0.19385 0.56527 0.0
C457 C 0.70549 0.16186 0.56599 0.0
C458 C 0.60705 0.06079 0.55176 0.0
C459 C 0.59278 0.09935 0.56434 0.0
O460 O 0.52681 0.99147 0.57053 0.0
O461 O 0.52011 1.0099 0.56132 0.0
O462 O 0.57581 0.04774 0.57543 0.0
O463 O 0.60711 0.03891 0.57052 0.0
O464 O 0.57685 0.9934 0.56159 0.0
O465 O 0.63114 0.02132 0.56274 0.0
O466 O 0.68429 0.08738 0.56055 0.0
O467 O 0.66965 0.0989 0.56971 0.0
O468 O 0.63715 0.07649 0.5525 0.0
O469 O 0.59496 0.04993 0.55731 0.0
O470 O 0.62136 0.10306 0.56473 0.0
O471 O 0.56742 0.07161 0.56383 0.0
H472 H 0.46703 0.95226 0.57536 0.0
H473 H 0.41477 0.9073 0.57389 0.0
H474 H 0.42746 0.91537 0.55292 0.0
H475 H 0.48015 0.96071 0.55441 0.0
H476 H 0.7524 0.13341 0.56104 0.0
H477 H 0.78921 0.1893 0.55958 0.0
H478 H 0.71907 0.21022 0.56664 0.0
H479 H 0.6822 0.15462 0.5678 0.0
La480 La 0.15865 0.4015 0.3966 0.0
La481 La 0.19085 0.36181 0.399 0.0
C482 C 0.13935 0.43861 0.39932 0.0
C483 C 0.15172 0.4725 0.39822 0.0
C484 C 0.13226 0.48309 0.39568 0.0
C485 C 0.14341 0.51519 0.3949 0.0
C486 C 0.17427 0.53746 0.39669 0.0
C487 C 0.19382 0.52666 0.39914 0.0
C488 C 0.18274 0.49464 0.39988 0.0
C489 C 0.18039 0.39391 0.38532 0.0
C490 C 0.23376 0.43392 0.39769 0.0
C491 C 0.21307 0.32555 0.39968 0.0
C492 C 0.21147 0.29502 0.39864 0.0
C493 C 0.21662 0.2806 0.40405 0.0
C494 C 0.22083 0.25482 0.40323 0.0
C495 C 0.21991 0.24263 0.39697 0.0
C496 C 0.21329 0.25611 0.39155 0.0
C497 C 0.20936 0.28225 0.39237 0.0
C498 C 0.17465 0.38365 0.40933 0.0
C499 C 0.11819 0.32771 0.39547 0.0
O500 O 0.12982 0.42033 0.39415 0.0
O501 O 0.15558 0.43156 0.40335 0.0
O502 O 0.1655 0.40912 0.38607 0.0
O503 O 0.18223 0.3835 0.39087 0.0
O504 O 0.20852 0.43694 0.39821 0.0
O505 O 0.2319 0.40638 0.39719 0.0
O506 O 0.19553 0.32762 0.40424 0.0
O507 O 0.21742 0.34396 0.39466 0.0
O508 O 0.20042 0.38278 0.40897 0.0
O509 O 0.1598 0.37266 0.40412 0.0
O510 O 0.14459 0.32671 0.3955 0.0
O511 O 0.11754 0.35408 0.39648 0.0
H512 H 0.10832 0.46653 0.39434 0.0
H513 H 0.12779 0.52253 0.39289 0.0
H514 H 0.21753 0.54294 0.40067 0.0
H515 H 0.1984 0.48731 0.40186 0.0
H516 H 0.21868 0.2901 0.40892 0.0
H517 H 0.2254 0.24475 0.40752 0.0
H518 H 0.21252 0.24732 0.38666 0.0
H519 H 0.20572 0.29304 0.38809 0.0
La520 La 0.69718 0.79683 0.39565 0.0
La521 La 0.73313 0.86462 0.39884 0.0
C522 C 0.658 0.73887 0.39593 0.0
C523 C 0.62356 0.71861 0.39583 0.0
C524 C 0.61026 0.69092 0.39217 0.0
C525 C 0.57787 0.67069 0.39216 0.0
C526 C 0.5579 0.67758 0.39583 0.0
C527 C 0.57128 0.70575 0.3994 0.0
C528 C 0.60378 0.72607 0.3994 0.0
C529 C 0.72046 0.8324 0.38523 0.0
C530 C 0.66181 0.83657 0.39738 0.0
C531 C 0.76847 0.9233 0.39989 0.0
C532 C 0.79961 0.95203 0.39929 0.0
C533 C 0.81144 0.97202 0.40472 0.0
C534 C 0.83771 1.00191 0.40413 0.0
C535 C 0.85297 1.0127 0.39807 0.0
C536 C 0.84201 0.99213 0.39268 0.0
C537 C 0.81548 0.96217 0.39327 0.0
C538 C 0.70947 0.82503 0.40892 0.0
C539 C 0.76984 0.82851 0.39596 0.0
O540 O 0.67106 0.75439 0.39056 0.0
O541 O 0.6703 0.75599 0.40116 0.0
O542 O 0.71792 0.80517 0.38604 0.0
O543 O 0.70883 0.8387 0.39016 0.0
O544 O 0.65963 0.80863 0.39723 0.0
O545 O 0.68913 0.86244 0.39733 0.0
O546 O 0.76382 0.90345 0.40461 0.0
O547 O 0.75298 0.90936 0.39458 0.0
O548 O 0.70965 0.85132 0.40855 0.0
O549 O 0.72252 0.82244 0.4039 0.0
O550 O 0.76993 0.85533 0.39561 0.0
O551 O 0.74354 0.80167 0.397 0.0
H552 H 0.62502 0.68479 0.38935 0.0
H553 H 0.56847 0.64961 0.38924 0.0
H554 H 0.55676 0.71179 0.40233 0.0
H555 H 0.61341 0.74737 0.40226 0.0
H556 H 0.79955 0.96498 0.40941 0.0
H557 H 0.84575 0.01684 0.40841 0.0
H558 H 0.8531 0.99969 0.38793 0.0
H559 H 0.80678 0.94746 0.38897 0.0
La560 La 0.30387 0.938 0.39629 0.0
La561 La 0.23219 0.90617 0.39868 0.0
C562 C 0.36032 0.95837 0.3992 0.0
C563 C 0.38302 0.94784 0.39801 0.0
C564 C 0.37544 0.92191 0.394 0.0
C565 C 0.39592 0.91007 0.39348 0.0
C566 C 0.4243 0.92388 0.39699 0.0
C567 C 0.4318 0.95011 0.40094 0.0
C568 C 0.41137 0.96192 0.40144 0.0
C569 C 0.27484 0.91645 0.385 0.0
C570 C 0.26103 0.86302 0.39746 0.0
C571 C 0.17383 0.88411 0.39951 0.0
C572 C 0.14491 0.88568 0.3985 0.0
C573 C 0.12605 0.88165 0.40398 0.0
C574 C 0.09609 0.87756 0.40324 0.0
C575 C 0.08416 0.87747 0.39698 0.0
C576 C 0.10354 0.8829 0.39149 0.0
C577 C 0.13359 0.88673 0.39223 0.0
C578 C 0.27012 0.92218 0.40901 0.0
C579 C 0.27059 0.97845 0.395 0.0
O580 O 0.35141 0.96827 0.39411 0.0
O581 O 0.33679 0.9397 0.40296 0.0
O582 O 0.30494 0.93124 0.38578 0.0
O583 O 0.26242 0.91456 0.39053 0.0
O584 O 0.28943 0.88812 0.39789 0.0
O585 O 0.23547 0.86504 0.39694 0.0
O586 O 0.19379 0.90223 0.40396 0.0
O587 O 0.18747 0.87912 0.39451 0.0
O588 O 0.24351 0.89643 0.40864 0.0
O589 O 0.27404 0.93712 0.40381 0.0
O590 O 0.2432 0.95209 0.39499 0.0
O591 O 0.29748 0.97905 0.39613 0.0
H592 H 0.35341 0.91048 0.39138 0.0
H593 H 0.38947 0.89007 0.39035 0.0
H594 H 0.45308 0.96102 0.40381 0.0
H595 H 0.41734 0.9816 0.40465 0.0
H596 H 0.13404 0.88042 0.40885 0.0
H597 H 0.08201 0.87394 0.40757 0.0
H598 H 0.09499 0.88288 0.38661 0.0
H599 H 0.14747 0.88947 0.38791 0.0
La600 La 0.74309 0.81601 0.80726 0.0
La601 La 0.70426 0.8492 0.80511 0.0
C602 C 0.77966 0.79628 0.80423 0.0
C603 C 0.81274 0.80644 0.80557 0.0
C604 C 0.83213 0.8348 0.8088 0.0
C605 C 0.86427 0.84586 0.80943 0.0
C606 C 0.87761 0.8287 0.80686 0.0
C607 C 0.85784 0.79997 0.80374 0.0
C608 C 0.82577 0.78903 0.8031 0.0
C609 C 0.73315 0.83409 0.81875 0.0
C610 C 0.77599 0.89135 0.80706 0.0
C611 C 0.66791 0.87135 0.8044 0.0
C612 C 0.6372 0.8694 0.80546 0.0
C613 C 0.6219 0.87299 0.80001 0.0
C614 C 0.59586 0.87682 0.8008 0.0
C615 C 0.58429 0.87711 0.80708 0.0
C616 C 0.59874 0.87211 0.81254 0.0
C617 C 0.6251 0.86853 0.81174 0.0
C618 C 0.7271 0.83468 0.79468 0.0
C619 C 0.66933 0.77608 0.80813 0.0
O620 O 0.76012 0.78526 0.8092 0.0
O621 O 0.77526 0.81575 0.80064 0.0
O622 O 0.74823 0.81913 0.81787 0.0
O623 O 0.72432 0.83816 0.8132 0.0
O624 O 0.77894 0.86619 0.80623 0.0
O625 O 0.74848 0.88958 0.80746 0.0
O626 O 0.67008 0.8538 0.79986 0.0
O627 O 0.68639 0.87586 0.80939 0.0
O628 O 0.7267 0.86063 0.79525 0.0
O629 O 0.7153 0.81892 0.79975 0.0
O630 O 0.66874 0.80266 0.80842 0.0
O631 O 0.69549 0.77531 0.80692 0.0
H632 H 0.82251 0.84869 0.81071 0.0
H633 H 0.87867 0.86787 0.81192 0.0
H634 H 0.8673 0.78634 0.80162 0.0
H635 H 0.81126 0.76729 0.80052 0.0
H636 H 0.63087 0.8741 0.79511 0.0
H637 H 0.58506 0.8801 0.79649 0.0
H638 H 0.59049 0.8723 0.81745 0.0
H639 H 0.63657 0.86615 0.81605 0.0
La640 La 0.27921 0.96037 0.80739 0.0
La641 La 0.24765 0.88881 0.8051 0.0
C642 C 0.29789 0.01662 0.80459 0.0
C643 C 0.2855 0.03806 0.80575 0.0
C644 C 0.30513 0.06824 0.80819 0.0
C645 C 0.29396 0.08915 0.80899 0.0
C646 C 0.2629 0.08038 0.80733 0.0
C647 C 0.24317 0.04988 0.80499 0.0
C648 C 0.25428 0.02898 0.80423 0.0
C649 C 0.26087 0.93177 0.81885 0.0
C650 C 0.20418 0.91697 0.80694 0.0
C651 C 0.22675 0.83051 0.80436 0.0
C652 C 0.22611 0.80145 0.80658 0.0
C653 C 0.24764 0.79309 0.80417 0.0
C654 C 0.24292 0.76288 0.8052 0.0
C655 C 0.21636 0.7402 0.80861 0.0
C656 C 0.19562 0.74907 0.81125 0.0
C657 C 0.2004 0.77923 0.81024 0.0
C658 C 0.26267 0.92647 0.79467 0.0
C659 C 0.31954 0.92751 0.80882 0.0
O660 O 0.30803 1.00816 0.80971 0.0
O661 O 0.28132 0.99314 0.80064 0.0
O662 O 0.27539 0.96181 0.81799 0.0
O663 O 0.2573 0.91906 0.81329 0.0
O664 O 0.22897 0.94535 0.80617 0.0
O665 O 0.20671 0.89169 0.80741 0.0
O666 O 0.25061 0.85135 0.80094 0.0
O667 O 0.21502 0.84331 0.80821 0.0
O668 O 0.23733 0.89956 0.7951 0.0
O669 O 0.27781 0.93056 0.79983 0.0
O670 O 0.2929 0.90048 0.80929 0.0
O671 O 0.32031 0.95411 0.80725 0.0
H672 H 0.32923 0.07577 0.80942 0.0
H673 H 0.30973 0.11223 0.81092 0.0
H674 H 0.2193 0.04232 0.80357 0.0
H675 H 0.23847 1.00587 0.80233 0.0
H676 H 0.26742 0.80939 0.80123 0.0
H677 H 0.25929 0.75687 0.80306 0.0
H678 H 0.1752 0.73244 0.81399 0.0
H679 H 0.1831 0.78469 0.81209 0.0
La680 La 0.13396 0.35169 0.80729 0.0
La681 La 0.20596 0.39138 0.80484 0.0
C682 C 0.07745 0.31522 0.80444 0.0
C683 C 0.05509 0.28184 0.80565 0.0
C684 C 0.06295 0.26393 0.80974 0.0
C685 C 0.04289 0.23153 0.81031 0.0
C686 C 1.0147 0.21639 0.80674 0.0
C687 C 1.00678 0.23465 0.80273 0.0
C688 C 0.0268 0.26701 0.80219 0.0
C689 C 0.16349 0.35895 0.81851 0.0
C690 C 0.1767 0.31935 0.8061 0.0
C691 C 0.26446 0.42761 0.80414 0.0
C692 C 0.29343 0.45824 0.80508 0.0
C693 C 0.31262 0.47248 0.7996 0.0
C694 C 0.34262 0.49837 0.80032 0.0
C695 C 0.35432 0.51087 0.80655 0.0
C696 C 0.3346 0.49753 0.81202 0.0
C697 C 0.30451 0.47128 0.81131 0.0
C698 C 0.16778 0.36957 0.79455 0.0
C699 C 0.16763 0.42557 0.80849 0.0
O700 O 0.08638 0.33402 0.80953 0.0
O701 O 0.10097 0.32046 0.80063 0.0
O702 O 0.13335 0.34372 0.81781 0.0
O703 O 0.17561 0.36948 0.81296 0.0
O704 O 0.14834 0.31619 0.80571 0.0
O705 O 0.20241 0.34684 0.80656 0.0
O706 O 0.24485 0.42515 0.79954 0.0
O707 O 0.25038 0.40961 0.8092 0.0
O708 O 0.19449 0.37057 0.79487 0.0
O709 O 0.16394 0.38053 0.79976 0.0
O710 O 0.19495 0.42647 0.80833 0.0
O711 O 0.14048 0.39924 0.80755 0.0
H712 H 0.08495 0.27489 0.81237 0.0
H713 H 0.04993 0.21823 0.81338 0.0
H714 H 0.98511 0.22391 0.79999 0.0
H715 H 1.02047 0.28038 0.79895 0.0
H716 H 0.30487 0.46276 0.79475 0.0
H717 H 0.35693 0.5083 0.79599 0.0
H718 H 0.34293 0.50654 0.81689 0.0
H719 H 0.29042 0.46065 0.81563 0.0
La720 La 0.24257 0.39056 0.30485 0.0
La721 La 0.27501 0.35114 0.30729 0.0
C722 C 0.22014 0.42666 0.30416 0.0
C723 C 0.22164 0.45717 0.30519 0.0
C724 C 0.21695 0.47178 0.29974 0.0
C725 C 0.21268 0.49754 0.30053 0.0
C726 C 0.21302 0.50952 0.30679 0.0
C727 C 0.21916 0.49583 0.31224 0.0
C728 C 0.22317 0.46972 0.31145 0.0
C729 C 0.259 0.36892 0.29454 0.0
C730 C 0.31504 0.42501 0.30848 0.0
C731 C 0.29577 0.3153 0.30442 0.0
C732 C 0.28567 0.28214 0.30562 0.0
C733 C 0.25812 0.2628 0.30913 0.0
C734 C 0.247 0.23059 0.30965 0.0
C735 C 0.26322 0.21714 0.30666 0.0
C736 C 0.2911 0.23687 0.30324 0.0
C737 C 0.30214 0.269 0.30272 0.0
C738 C 0.25301 0.35838 0.31855 0.0
C739 C 0.19993 0.31848 0.30614 0.0
O740 O 0.23773 0.42463 0.2996 0.0
O741 O 0.21584 0.40827 0.30917 0.0
O742 O 0.23322 0.36977 0.29488 0.0
O743 O 0.27383 0.37986 0.29975 0.0
O744 O 0.28855 0.4258 0.30836 0.0
O745 O 0.3159 0.39873 0.30751 0.0
O746 O 0.30551 0.33415 0.3095 0.0
O747 O 0.27695 0.31994 0.30066 0.0
O748 O 0.26794 0.34319 0.3178 0.0
O749 O 0.25117 0.36888 0.313 0.0
O750 O 0.2252 0.31542 0.30573 0.0
O751 O 0.20166 0.34595 0.30659 0.0
H752 H 0.21533 0.46245 0.29487 0.0
H753 H 0.2085 0.50776 0.29622 0.0
H754 H 0.21949 0.50444 0.31713 0.0
H755 H 0.22642 0.45879 0.31575 0.0
H756 H 0.24492 0.27252 0.31136 0.0
H757 H 0.22567 0.21624 0.31237 0.0
H758 H 0.30396 0.22737 0.30078 0.0
H759 H 0.32318 0.28348 0.29991 0.0
La760 La 0.70003 0.88637 0.30442 0.0
La761 La 0.73869 0.9582 0.3074 0.0
C762 C 0.66343 0.82802 0.30349 0.0
C763 C 0.6348 0.79917 0.3057 0.0
C764 C 0.60502 0.79107 0.30326 0.0
C765 C 0.57928 0.7611 0.30436 0.0
C766 C 0.58276 0.73841 0.30786 0.0
C767 C 0.61229 0.74703 0.31052 0.0
C768 C 0.63793 0.77695 0.30944 0.0
C769 C 0.72378 0.92597 0.29435 0.0
C770 C 0.66535 0.92387 0.3083 0.0
C771 C 0.7762 1.01508 0.30511 0.0
C772 C 0.81009 0.0363 0.30626 0.0
C773 C 0.82074 0.06598 0.30899 0.0
C774 C 0.85286 0.08682 0.30976 0.0
C775 C 0.87509 0.07849 0.30777 0.0
C776 C 0.86423 0.04847 0.30514 0.0
C777 C 0.83219 0.02765 0.3044 0.0
C778 C 0.72587 0.92595 0.31846 0.0
C779 C 0.77178 0.91605 0.30676 0.0
O780 O 0.66063 0.84883 0.29999 0.0
O781 O 0.68754 0.8409 0.30745 0.0
O782 O 0.72183 0.89881 0.29453 0.0
O783 O 0.71206 0.9292 0.29951 0.0
O784 O 0.66534 0.89693 0.30849 0.0
O785 O 0.69111 0.9511 0.30706 0.0
O786 O 0.75783 1.00537 0.31027 0.0
O787 O 0.76912 0.99259 0.30087 0.0
O788 O 0.74048 0.95627 0.31812 0.0
O789 O 0.7192 0.91566 0.31269 0.0
O790 O 0.77478 0.94434 0.30632 0.0
O791 O 0.74428 0.89014 0.30679 0.0
H792 H 0.60181 0.80738 0.30027 0.0
H793 H 0.55697 0.75526 0.3022 0.0
H794 H 0.61579 0.7304 0.31333 0.0
H795 H 0.66059 0.78222 0.31131 0.0
H796 H 0.80421 0.07318 0.31048 0.0
H797 H 0.86024 0.1095 0.31191 0.0
H798 H 0.88049 0.04127 0.30346 0.0
H799 H 0.8248 1.00496 0.30226 0.0
La800 La 0.20287 0.8467 0.3051 0.0
La801 La 0.13109 0.81587 0.30733 0.0
C802 C 0.26116 0.8678 0.3044 0.0
C803 C 0.28995 0.86607 0.30553 0.0
C804 C 0.30922 0.87016 0.30012 0.0
C805 C 0.33907 0.87407 0.30097 0.0
C806 C 0.35051 0.87391 0.30726 0.0
C807 C 0.33071 0.86842 0.31269 0.0
C808 C 0.30077 0.86479 0.31183 0.0
C809 C 0.16559 0.83155 0.29466 0.0
C810 C 0.1633 0.77442 0.30867 0.0
C811 C 0.07483 0.79653 0.30438 0.0
C812 C 0.05227 0.80718 0.30565 0.0
C813 C 0.05966 0.83221 0.30992 0.0
C814 C 0.03949 0.84438 0.31053 0.0
C815 C 1.0117 0.8319 0.30685 0.0
C816 C 1.00424 0.80644 0.30267 0.0
C817 C 0.02436 0.79426 0.30207 0.0
C818 C 0.15981 0.83662 0.31869 0.0
C819 C 0.17508 0.8908 0.30635 0.0
O820 O 0.24122 0.84957 0.29997 0.0
O821 O 0.24753 0.87338 0.30932 0.0
O822 O 0.19249 0.85693 0.2951 0.0
O823 O 0.16098 0.81643 0.29986 0.0
O824 O 0.19087 0.80055 0.3088 0.0
O825 O 0.13673 0.77432 0.30742 0.0
O826 O 0.08336 0.7858 0.30939 0.0
O827 O 0.09864 0.81557 0.30072 0.0
O828 O 0.12976 0.82237 0.31786 0.0
O829 O 0.17232 0.83846 0.31317 0.0
O830 O 0.14658 0.86601 0.30572 0.0
O831 O 0.20029 0.88818 0.30695 0.0
H832 H 0.30163 0.87156 0.29521 0.0
H833 H 0.35346 0.87775 0.29668 0.0
H834 H 0.33886 0.86824 0.3176 0.0
H835 H 0.28659 0.86199 0.31611 0.0
H836 H 0.0814 0.84284 0.31265 0.0
H837 H 0.04614 0.86417 0.31374 0.0
H838 H 0.98286 0.79597 0.29982 0.0
H839 H 1.01843 0.77515 0.2987 0.0
La840 La 0.73132 0.90329 0.89872 0.0
La841 La 0.69308 0.93693 0.89651 0.0
C842 C 0.76756 0.88095 0.89932 0.0
C843 C 0.79649 0.88096 0.89725 0.0
C844 C 0.82616 0.90316 0.89964 0.0
C845 C 0.85211 0.89909 0.89871 0.0
C846 C 0.84895 0.87257 0.89542 0.0
C847 C 0.81953 0.85116 0.8928 0.0
C848 C 0.79369 0.85528 0.89371 0.0
C849 C 0.70907 0.91829 0.90917 0.0
C850 C 0.76668 0.97588 0.89537 0.0
C851 C 0.65705 0.9573 0.89954 0.0
C852 C 0.62396 0.94725 0.89824 0.0
C853 C 0.60464 0.91935 0.89486 0.0
C854 C 0.57247 0.90827 0.89427 0.0
C855 C 0.55902 0.92492 0.89705 0.0
C856 C 0.57872 0.9532 0.90033 0.0
C857 C 0.61081 0.96418 0.90093 0.0
C858 C 0.70273 0.91856 0.88502 0.0
C859 C 0.65952 0.86165 0.89671 0.0
O860 O 0.76981 0.90329 0.90314 0.0
O861 O 0.74437 0.87143 0.89515 0.0
O862 O 0.70982 0.89252 0.90867 0.0
O863 O 0.72059 0.93383 0.90407 0.0
O864 O 0.76639 0.9489 0.89494 0.0
O865 O 0.74096 0.97725 0.89673 0.0
O866 O 0.6764 0.96792 0.89453 0.0
O867 O 0.66142 0.93792 0.90317 0.0
O868 O 0.68781 0.93368 0.88591 0.0
O869 O 0.71163 0.91446 0.89057 0.0
O870 O 0.65676 0.88692 0.8975 0.0
O871 O 0.68694 0.86322 0.89637 0.0
H872 H 0.82912 0.923 0.90248 0.0
H873 H 0.87433 0.91598 0.90083 0.0
H874 H 0.81627 0.83075 0.89014 0.0
H875 H 0.77112 0.83754 0.89187 0.0
H876 H 0.61433 0.90582 0.89279 0.0
H877 H 0.55814 0.88663 0.89166 0.0
H878 H 0.56919 0.96642 0.90261 0.0
H879 H 0.62526 0.98552 0.90363 0.0
La880 La 0.18931 0.86533 0.89921 0.0
La881 La 0.15749 0.79381 0.89686 0.0
C882 C 0.21042 0.92371 0.89991 0.0
C883 C 0.21091 0.9527 0.89769 0.0
C884 C 0.1888 0.9606 0.89995 0.0
C885 C 0.19323 0.9907 0.89889 0.0
C886 C 0.22005 1.01373 0.8956 0.0
C887 C 0.2414 1.0053 0.89311 0.0
C888 C 0.23691 0.97527 0.89415 0.0
C889 C 0.17427 0.82766 0.90965 0.0
C890 C 0.11732 0.82712 0.8956 0.0
C891 C 0.1378 0.73738 0.89976 0.0
C892 C 0.14784 0.71443 0.89838 0.0
C893 C 0.17558 0.72311 0.89491 0.0
C894 C 0.1868 0.70215 0.89428 0.0
C895 C 0.17045 0.67211 0.89712 0.0
C896 C 0.14231 0.66345 0.90048 0.0
C897 C 0.13119 0.68442 0.90111 0.0
C898 C 0.17586 0.82239 0.88542 0.0
C899 C 0.23257 0.83691 0.89731 0.0
O900 O 0.18677 0.90298 0.9034 0.0
O901 O 0.22188 0.91076 0.89603 0.0
O902 O 0.19952 0.85467 0.90922 0.0
O903 O 0.15911 0.82347 0.90448 0.0
O904 O 0.14405 0.85404 0.89515 0.0
O905 O 0.11649 0.80037 0.89705 0.0
O906 O 0.12682 0.74615 0.89484 0.0
O907 O 0.15737 0.76107 0.90337 0.0
O908 O 0.16135 0.79234 0.88628 0.0
O909 O 0.17948 0.83518 0.89098 0.0
O910 O 0.20769 0.80853 0.89801 0.0
O911 O 0.23018 0.86229 0.89693 0.0
H912 H 0.16875 0.94401 0.90278 0.0
H913 H 0.17638 0.99634 0.90092 0.0
H914 H 0.26203 0.02219 0.89047 0.0
H915 H 0.25463 0.97016 0.89241 0.0
H916 H 0.18892 0.74633 0.89281 0.0
H917 H 0.20833 0.70952 0.89161 0.0
H918 H 0.12934 0.64076 0.90281 0.0
H919 H 0.10999 0.67748 0.90388 0.0
La920 La 0.22924 0.36161 0.89879 0.0
La921 La 0.301 0.40181 0.89643 0.0
C922 C 0.17084 0.32449 0.8994 0.0
C923 C 0.14208 0.29559 0.89727 0.0
C924 C 0.13436 0.26597 0.89976 0.0
C925 C 0.10439 0.24004 0.89879 0.0
C926 C 0.0813 0.24317 0.89537 0.0
C927 C 0.08957 0.27251 0.89264 0.0
C928 C 0.11949 0.29834 0.8936 0.0
C929 C 0.26687 0.38335 0.90919 0.0
C930 C 0.26772 0.32833 0.89489 0.0
C931 C 0.35757 0.43843 0.89921 0.0
C932 C 0.37973 0.47174 0.89787 0.0
C933 C 0.36944 0.49082 0.89496 0.0
C934 C 0.38986 0.52306 0.89428 0.0
C935 C 0.42103 0.53684 0.89646 0.0
C936 C 0.43134 0.51743 0.89925 0.0
C937 C 0.41084 0.48523 0.89996 0.0
C938 C 0.27187 0.39418 0.88513 0.0
C939 C 0.25786 0.4336 0.89747 0.0
O940 O 0.19128 0.32215 0.90311 0.0
O941 O 0.18408 0.34825 0.89534 0.0
O942 O 0.23983 0.38159 0.90885 0.0
O943 O 0.27116 0.37285 0.90396 0.0
O944 O 0.24066 0.32792 0.89462 0.0
O945 O 0.29455 0.35429 0.89627 0.0
O946 O 0.34856 0.41928 0.89418 0.0
O947 O 0.33412 0.43331 0.90303 0.0
O948 O 0.30195 0.40979 0.88591 0.0
O949 O 0.25953 0.38355 0.89066 0.0
O950 O 0.28621 0.43694 0.8981 0.0
O951 O 0.23244 0.40594 0.89692 0.0
H952 H 0.15098 0.26304 0.90271 0.0
H953 H 0.09886 0.21789 0.901 0.0
H954 H 0.07264 0.27574 0.88989 0.0
H955 H 0.12448 0.32087 0.89169 0.0
H956 H 0.34545 0.48086 0.89332 0.0
H957 H 0.38123 0.53719 0.89204 0.0
H958 H 0.45505 0.52727 0.90105 0.0
H959 H 0.41912 0.47096 0.90228 0.0
La960 La 0.82538 0.73434 0.72961 0.0
La961 La 0.85747 0.69482 0.73232 0.0
C962 C 0.80576 0.77145 0.73209 0.0
C963 C 0.81802 0.80528 0.73093 0.0
C964 C 0.79867 0.81562 0.72821 0.0
C965 C 0.80963 0.84767 0.7274 0.0
C966 C 0.84019 0.87016 0.72933 0.0
C967 C 0.85965 0.85961 0.73196 0.0
C968 C 0.84876 0.82764 0.73273 0.0
C969 C 0.84789 0.72638 0.71848 0.0
C970 C 0.90043 0.76668 0.73076 0.0
C971 C 0.87974 0.65871 0.73328 0.0
C972 C 0.87834 0.62829 0.73227 0.0
C973 C 0.88341 0.61395 0.7377 0.0
C974 C 0.88778 0.58826 0.73692 0.0
C975 C 0.88712 0.57611 0.73066 0.0
C976 C 0.88057 0.58951 0.72522 0.0
C977 C 0.87645 0.61555 0.72601 0.0
C978 C 0.84139 0.71762 0.74249 0.0
C979 C 0.78514 0.66043 0.72852 0.0
O980 O 0.79665 0.75302 0.72695 0.0
O981 O 0.82178 0.7646 0.73622 0.0
O982 O 0.83313 0.74179 0.71908 0.0
O983 O 0.84922 0.71608 0.72407 0.0
O984 O 0.87526 0.76986 0.73128 0.0
O985 O 0.8984 0.73908 0.73032 0.0
O986 O 0.86136 0.66046 0.73768 0.0
O987 O 0.8849 0.67736 0.72827 0.0
O988 O 0.86711 0.71664 0.74218 0.0
O989 O 0.82641 0.70616 0.73731 0.0
O990 O 0.81162 0.65962 0.72874 0.0
O991 O 0.78428 0.6868 0.72938 0.0
H992 H 0.77494 0.79889 0.72677 0.0
H993 H 0.7941 0.85479 0.72525 0.0
H994 H 0.88311 0.87605 0.73359 0.0
H995 H 0.86434 0.82052 0.73485 0.0
H996 H 0.88527 0.62345 0.74257 0.0
H997 H 0.89228 0.57824 0.74122 0.0
H998 H 0.87999 0.58074 0.72033 0.0
H999 H 0.87287 0.62628 0.72171 0.0
La1000 La 0.36123 0.12499 0.72996 0.0
La1001 La 0.40122 0.19679 0.73215 0.0
C1002 C 0.32481 0.06871 0.73301 0.0
C1003 C 0.29164 0.04596 0.73175 0.0
C1004 C 0.27271 0.05455 0.72821 0.0
C1005 C 0.24046 0.03381 0.72765 0.0
C1006 C 0.22657 1.00407 0.73062 0.0
C1007 C 0.24588 0.99549 0.73407 0.0
C1008 C 0.27805 0.01626 0.73464 0.0
C1009 C 0.37045 0.1532 0.71849 0.0
C1010 C 0.32928 0.16811 0.7307 0.0
C1011 C 0.43851 0.25517 0.73272 0.0
C1012 C 0.46708 0.28423 0.73054 0.0
C1013 C 0.49687 0.29254 0.73301 0.0
C1014 C 0.52245 0.32272 0.732 0.0
C1015 C 0.51882 0.34548 0.72856 0.0
C1016 C 0.4893 0.33666 0.72587 0.0
C1017 C 0.46383 0.30652 0.72686 0.0
C1018 C 0.37941 0.15935 0.74263 0.0
C1019 C 0.43439 0.15818 0.72838 0.0
O1020 O 0.34399 0.07728 0.72798 0.0
O1021 O 0.32951 0.09252 0.73665 0.0
O1022 O 0.35505 0.12316 0.71939 0.0
O1023 O 0.38002 0.16613 0.72403 0.0
O1024 O 0.32583 0.13968 0.73121 0.0
O1025 O 0.35695 0.19361 0.73026 0.0
O1026 O 0.4413 0.23463 0.73631 0.0
O1027 O 0.41431 0.24204 0.72878 0.0
O1028 O 0.38104 0.18631 0.74223 0.0
O1029 O 0.39008 0.15518 0.73742 0.0
O1030 O 0.43468 0.18513 0.7279 0.0
O1031 O 0.40873 0.13162 0.73003 0.0
H1032 H 0.28278 0.07753 0.72599 0.0
H1033 H 0.22642 0.04109 0.7249 0.0
H1034 H 0.23601 0.97305 0.73652 0.0
H1035 H 0.29221 1.00939 0.73747 0.0
H1036 H 0.50019 0.27619 0.73597 0.0
H1037 H 0.54473 0.32866 0.73419 0.0
H1038 H 0.48567 0.35332 0.7231 0.0
H1039 H 0.44116 0.30111 0.72496 0.0
La1040 La 0.96967 0.27069 0.72967 0.0
La1041 La 0.89791 0.23942 0.73226 0.0
C1042 C 0.02595 0.28866 0.73227 0.0
C1043 C 0.04719 0.27609 0.73104 0.0
C1044 C 0.07738 0.29573 0.72858 0.0
C1045 C 0.09826 0.28454 0.72775 0.0
C1046 C 0.08949 0.25347 0.72941 0.0
C1047 C 0.05894 0.23371 0.73175 0.0
C1048 C 0.03803 0.24482 0.73253 0.0
C1049 C 0.93958 0.25234 0.71839 0.0
C1050 C 0.92568 0.19555 0.73042 0.0
C1051 C 0.83979 0.21869 0.73321 0.0
C1052 C 0.81097 0.22026 0.73201 0.0
C1053 C 0.79213 0.21747 0.73741 0.0
C1054 C 0.76216 0.21323 0.73653 0.0
C1055 C 0.75019 0.21172 0.73021 0.0
C1056 C 0.7696 0.21596 0.72478 0.0
C1057 C 0.79965 0.21995 0.72567 0.0
C1058 C 0.93636 0.25407 0.74249 0.0
C1059 C 0.93742 0.31195 0.72875 0.0
O1060 O 1.01737 0.29893 0.72719 0.0
O1061 O 1.00264 0.27225 0.73629 0.0
O1062 O 0.96976 0.26691 0.71903 0.0
O1063 O 0.92785 0.24886 0.72405 0.0
O1064 O 0.95432 0.22034 0.7308 0.0
O1065 O 0.9003 0.19802 0.73022 0.0
O1066 O 0.86031 0.23806 0.73743 0.0
O1067 O 0.85275 0.21171 0.72838 0.0
O1068 O 0.90931 0.2288 0.74214 0.0
O1069 O 0.94028 0.26938 0.73734 0.0
O1070 O 0.90989 0.28571 0.72861 0.0
O1071 O 0.96413 0.3122 0.72992 0.0
H1072 H 0.08495 0.31986 0.72737 0.0
H1073 H 0.12133 0.30034 0.72581 0.0
H1074 H 0.05134 0.20981 0.73317 0.0
H1075 H 1.01487 0.22898 0.73442 0.0
H1076 H 0.80012 0.2173 0.74234 0.0
H1077 H 0.74807 0.21054 0.74081 0.0
H1078 H 0.76105 0.21483 0.71985 0.0
H1079 H 0.8135 0.22171 0.7214 0.0
La1080 La 0.40914 0.14777 0.14081 0.0
La1081 La 0.36894 0.17935 0.13849 0.0
C1082 C 0.44628 0.12862 0.13792 0.0
C1083 C 0.47948 0.13978 0.13931 0.0
C1084 C 0.49764 0.16773 0.14277 0.0
C1085 C 0.52989 0.17987 0.14351 0.0
C1086 C 0.54455 0.1642 0.14082 0.0
C1087 C 0.52604 0.13588 0.13746 0.0
C1088 C 0.49384 0.12386 0.1367 0.0
C1089 C 0.39865 0.16611 0.15222 0.0
C1090 C 0.44072 0.22292 0.14013 0.0
C1091 C 0.3314 0.20008 0.13786 0.0
C1092 C 0.30139 0.19819 0.13974 0.0
C1093 C 0.27397 0.17983 0.13611 0.0
C1094 C 0.24763 0.18324 0.13693 0.0
C1095 C 0.24806 0.20524 0.14138 0.0
C1096 C 0.27499 0.2225 0.14524 0.0
C1097 C 0.30133 0.21911 0.14441 0.0
C1098 C 0.39185 0.16468 0.1281 0.0
C1099 C 0.33568 0.10699 0.14195 0.0
O1100 O 0.4268 0.11772 0.1429 0.0
O1101 O 0.44134 0.14741 0.13421 0.0
O1102 O 0.41421 0.15157 0.15142 0.0
O1103 O 0.3897 0.16962 0.14663 0.0
O1104 O 0.44438 0.19805 0.13965 0.0
O1105 O 0.41294 0.22056 0.14047 0.0
O1106 O 0.33087 0.17914 0.13384 0.0
O1107 O 0.35373 0.20921 0.14224 0.0
O1108 O 0.39009 0.18994 0.12851 0.0
O1109 O 0.38077 0.14938 0.13325 0.0
O1110 O 0.33486 0.13342 0.14233 0.0
O1111 O 0.36186 0.10658 0.14055 0.0
H1112 H 0.48696 0.18045 0.14479 0.0
H1113 H 0.54334 0.20151 0.14619 0.0
H1114 H 0.53658 0.1234 0.13526 0.0
H1115 H 0.48026 0.10247 0.13395 0.0
H1116 H 0.27325 0.16375 0.13242 0.0
H1117 H 0.22715 0.16915 0.13396 0.0
H1118 H 0.27638 0.23988 0.14866 0.0
H1119 H 0.32223 0.23408 0.1472 0.0
La1120 La 0.94328 0.28828 0.14156 0.0
La1121 La 0.91085 0.22073 0.13816 0.0
C1122 C 0.96248 0.34632 0.14134 0.0
C1123 C 0.94823 0.36652 0.14147 0.0
C1124 C 0.96235 0.39399 0.1452 0.0
C1125 C 0.95001 0.41409 0.14526 0.0
C1126 C 0.92327 0.40728 0.14155 0.0
C1127 C 0.90879 0.37934 0.1379 0.0
C1128 C 0.92113 0.35917 0.13786 0.0
C1129 C 0.93139 0.25225 0.1519 0.0
C1130 C 0.86809 0.24932 0.14003 0.0
C1131 C 0.88751 0.16205 0.13695 0.0
C1132 C 0.888 0.13298 0.1387 0.0
C1133 C 0.9087 0.12499 0.13568 0.0
C1134 C 0.90499 0.09504 0.13653 0.0
C1135 C 0.88028 0.07223 0.14035 0.0
C1136 C 0.86037 0.08071 0.14355 0.0
C1137 C 0.86415 0.11059 0.14273 0.0
C1138 C 0.9266 0.26088 0.12817 0.0
C1139 C 0.98329 0.25568 0.14119 0.0
O1140 O 0.96 0.33068 0.1467 0.0
O1141 O 0.95767 0.32931 0.13609 0.0
O1142 O 0.95602 0.27956 0.1511 0.0
O1143 O 0.91329 0.24612 0.14701 0.0
O1144 O 0.89399 0.27707 0.14034 0.0
O1145 O 0.86921 0.22331 0.13967 0.0
O1146 O 0.90902 0.18268 0.13305 0.0
O1147 O 0.87926 0.17527 0.14148 0.0
O1148 O 0.90075 0.23435 0.12846 0.0
O1149 O 0.94224 0.26311 0.13316 0.0
O1150 O 0.95622 0.22927 0.14169 0.0
O1151 O 0.98431 0.28273 0.14012 0.0
H1152 H 0.98312 0.40004 0.14805 0.0
H1153 H 0.96146 0.43498 0.14824 0.0
H1154 H 0.88833 0.37338 0.13495 0.0
H1155 H 0.90968 0.33804 0.13495 0.0
H1156 H 0.92705 0.14144 0.13247 0.0
H1157 H 0.92068 0.08934 0.13395 0.0
H1158 H 0.84141 0.06402 0.14661 0.0
H1159 H 0.84752 0.11577 0.14506 0.0
La1160 La 0.80121 0.68427 0.14063 0.0
La1161 La 0.87306 0.72295 0.13798 0.0
C1162 C 0.74453 0.64728 0.1381 0.0
C1163 C 0.72298 0.61341 0.13925 0.0
C1164 C 0.69347 0.60302 0.14206 0.0
C1165 C 0.67246 0.57095 0.14289 0.0
C1166 C 0.68042 0.54849 0.14088 0.0
C1167 C 0.71024 0.55908 0.13814 0.0
C1168 C 0.73125 0.59106 0.13736 0.0
C1169 C 0.83143 0.69224 0.1518 0.0
C1170 C 0.84306 0.65087 0.13954 0.0
C1171 C 0.93164 0.75861 0.13725 0.0
C1172 C 0.96041 0.78938 0.13819 0.0
C1173 C 0.97979 0.80356 0.13273 0.0
C1174 C 1.00968 0.82957 0.13348 0.0
C1175 C 1.02108 0.84221 0.13971 0.0
C1176 C 1.00115 0.82895 0.14516 0.0
C1177 C 0.97117 0.80262 0.14441 0.0
C1178 C 0.83437 0.70061 0.12778 0.0
C1179 C 0.83549 0.75834 0.14144 0.0
O1180 O 0.75375 0.6657 0.14324 0.0
O1181 O 0.76748 0.65419 0.13398 0.0
O1182 O 0.80126 0.67729 0.15118 0.0
O1183 O 0.84316 0.70214 0.14619 0.0
O1184 O 0.81491 0.64821 0.13909 0.0
O1185 O 0.86897 0.67826 0.13992 0.0
O1186 O 0.91216 0.75586 0.1326 0.0
O1187 O 0.91739 0.74102 0.14236 0.0
O1188 O 0.86097 0.70134 0.12809 0.0
O1189 O 0.83093 0.71213 0.13296 0.0
O1190 O 0.86267 0.7589 0.14121 0.0
O1191 O 0.80809 0.73199 0.14073 0.0
H1192 H 0.68655 0.61972 0.14358 0.0
H1193 H 0.64996 0.5638 0.14512 0.0
H1194 H 0.71718 0.54267 0.13644 0.0
H1195 H 0.75381 0.59819 0.13516 0.0
H1196 H 0.97227 0.7937 0.12789 0.0
H1197 H 0.02417 0.83945 0.12917 0.0
H1198 H 1.00924 0.83806 0.15003 0.0
H1199 H 0.95692 0.79204 0.14873 0.0
La1200 La 0.91508 0.72633 0.63809 0.0
La1201 La 0.9449 0.68482 0.64085 0.0
C1202 C 0.89457 0.76386 0.63707 0.0
C1203 C 0.89519 0.79377 0.63828 0.0
C1204 C 0.8916 0.80932 0.63288 0.0
C1205 C 0.88652 0.83451 0.63376 0.0
C1206 C 0.88502 0.84496 0.64008 0.0
C1207 C 0.89011 0.83038 0.6455 0.0
C1208 C 0.89489 0.8048 0.64462 0.0
C1209 C 0.93149 0.70389 0.62789 0.0
C1210 C 0.98654 0.75826 0.64228 0.0
C1211 C 0.9635 0.64684 0.63845 0.0
C1212 C 0.95107 0.6131 0.63975 0.0
C1213 C 0.97096 0.60263 0.64208 0.0
C1214 C 0.95986 0.57059 0.64294 0.0
C1215 C 0.92862 0.54825 0.64143 0.0
C1216 C 0.9086 0.55897 0.63922 0.0
C1217 C 0.91963 0.59096 0.63842 0.0
C1218 C 0.92208 0.69292 0.65193 0.0
C1219 C 0.87031 0.65444 0.63917 0.0
O1220 O 0.91493 0.76346 0.63301 0.0
O1221 O 0.88667 0.7433 0.64182 0.0
O1222 O 0.90652 0.70623 0.62807 0.0
O1223 O 0.94582 0.71414 0.63319 0.0
O1224 O 0.9605 0.75987 0.64218 0.0
O1225 O 0.9867 0.73174 0.64113 0.0
O1226 O 0.97324 0.66574 0.64353 0.0
O1227 O 0.94722 0.65347 0.63434 0.0
O1228 O 0.93622 0.6769 0.65134 0.0
O1229 O 0.92153 0.70379 0.64634 0.0
O1230 O 0.89504 0.65044 0.63899 0.0
O1231 O 0.87292 0.68232 0.63954 0.0
H1232 H 0.89143 0.80113 0.62795 0.0
H1233 H 0.88315 0.84548 0.62948 0.0
H1234 H 0.88903 0.83786 0.65043 0.0
H1235 H 0.8973 0.79309 0.64888 0.0
H1236 H 0.99523 0.61922 0.64316 0.0
H1237 H 0.97586 0.56337 0.64478 0.0
H1238 H 0.88456 0.54264 0.63793 0.0
H1239 H 0.90361 0.59824 0.63662 0.0
La1240 La 0.36722 0.22293 0.63829 0.0
La1241 La 0.40765 0.29456 0.64068 0.0
C1242 C 0.32985 0.16477 0.63741 0.0
C1243 C 0.29985 0.13542 0.63859 0.0
C1244 C 0.2846 0.1162 0.63319 0.0
C1245 C 0.25935 0.08592 0.63406 0.0
C1246 C 0.24851 0.074 0.64037 0.0
C1247 C 0.26282 0.09374 0.64579 0.0
C1248 C 0.28845 0.1241 0.64492 0.0
C1249 C 0.39026 0.26088 0.62794 0.0
C1250 C 0.33425 0.26231 0.64185 0.0
C1251 C 0.44553 0.35079 0.6379 0.0
C1252 C 0.47927 0.37249 0.63908 0.0
C1253 C 0.48966 0.4034 0.64101 0.0
C1254 C 0.5217 0.4247 0.64172 0.0
C1255 C 0.54413 0.41559 0.64047 0.0
C1256 C 0.53349 0.38432 0.63868 0.0
C1257 C 0.5015 0.36303 0.63802 0.0
C1258 C 0.39724 0.26547 0.65207 0.0
C1259 C 0.43888 0.25067 0.63993 0.0
O1260 O 0.3306 0.18526 0.63321 0.0
O1261 O 0.34995 0.17776 0.6422 0.0
O1262 O 0.38883 0.23401 0.62836 0.0
O1263 O 0.37915 0.26503 0.6331 0.0
O1264 O 0.33308 0.23485 0.64205 0.0
O1265 O 0.36056 0.28896 0.64056 0.0
O1266 O 0.42674 0.34238 0.64299 0.0
O1267 O 0.43893 0.32724 0.63399 0.0
O1268 O 0.41288 0.29556 0.65127 0.0
O1269 O 0.38806 0.25303 0.64649 0.0
O1270 O 0.44265 0.27926 0.63949 0.0
O1271 O 0.41107 0.22531 0.64025 0.0
H1272 H 0.29305 0.12418 0.62826 0.0
H1273 H 0.24862 0.07157 0.62978 0.0
H1274 H 0.25507 0.08523 0.65072 0.0
H1275 H 0.29993 0.13825 0.64918 0.0
H1276 H 0.473 0.41122 0.64188 0.0
H1277 H 0.52887 0.44836 0.64323 0.0
H1278 H 0.54989 0.37641 0.63759 0.0
H1279 H 0.49427 0.33932 0.63653 0.0
La1280 La 0.87034 0.17911 0.63846 0.0
La1281 La 0.79855 0.14768 0.64104 0.0
C1282 C 0.9285 0.19997 0.63754 0.0
C1283 C 0.95725 0.19818 0.63868 0.0
C1284 C 0.97607 0.20128 0.63326 0.0
C1285 C 1.00584 0.20495 0.63409 0.0
C1286 C 1.01773 0.2055 0.64038 0.0
C1287 C 0.99835 0.20132 0.64583 0.0
C1288 C 0.96849 0.19785 0.64499 0.0
C1289 C 0.83204 0.1644 0.62822 0.0
C1290 C 0.83092 0.10654 0.64197 0.0
C1291 C 0.74227 0.12965 0.63842 0.0
C1292 C 0.72094 0.14213 0.63963 0.0
C1293 C 0.69063 0.12237 0.64202 0.0
C1294 C 0.66966 0.13347 0.64282 0.0
C1295 C 0.67845 0.16459 0.64119 0.0
C1296 C 0.70912 0.18448 0.63893 0.0
C1297 C 0.73011 0.17345 0.63818 0.0
C1298 C 0.82856 0.16619 0.65232 0.0
C1299 C 0.8424 0.22282 0.64027 0.0
O1300 O 0.90807 0.18103 0.63325 0.0
O1301 O 0.91542 0.20645 0.64243 0.0
O1302 O 0.85903 0.18972 0.62859 0.0
O1303 O 0.82798 0.14904 0.63337 0.0
O1304 O 0.85844 0.13279 0.64208 0.0
O1305 O 0.80417 0.10622 0.64081 0.0
O1306 O 0.75083 0.11941 0.64351 0.0
O1307 O 0.76561 0.14609 0.63441 0.0
O1308 O 0.79838 0.15155 0.65168 0.0
O1309 O 0.84033 0.16961 0.64667 0.0
O1310 O 0.81379 0.19799 0.6399 0.0
O1311 O 0.86784 0.22045 0.64049 0.0
H1312 H 0.96826 0.20223 0.62835 0.0
H1313 H 1.02001 0.20869 0.62977 0.0
H1314 H 1.00638 0.20114 0.65075 0.0
H1315 H 0.95462 0.19576 0.64927 0.0
H1316 H 0.68303 0.09819 0.6432 0.0
H1317 H 0.6465 0.11756 0.6447 0.0
H1318 H 0.71675 0.20842 0.63754 0.0
H1319 H 0.75336 0.18939 0.63634 0.0
La1320 La 0.39961 0.23969 0.23215 0.0
La1321 La 0.36099 0.27268 0.22956 0.0
C1322 C 0.43642 0.21817 0.23309 0.0
C1323 C 0.46738 0.22108 0.23177 0.0
C1324 C 0.48697 0.22474 0.23709 0.0
C1325 C 0.51364 0.22198 0.23626 0.0
C1326 C 0.52152 0.21541 0.23006 0.0
C1327 C 0.50245 0.2128 0.22468 0.0
C1328 C 0.47563 0.21548 0.22553 0.0
C1329 C 0.37578 0.2542 0.24238 0.0
C1330 C 0.43466 0.31258 0.22882 0.0
C1331 C 0.32341 0.2916 0.23216 0.0
C1332 C 0.28961 0.27926 0.23095 0.0
C1333 C 0.27927 0.29867 0.22827 0.0
C1334 C 0.24723 0.28761 0.22742 0.0
C1335 C 0.22477 0.2569 0.22928 0.0
C1336 C 0.23533 0.23737 0.23186 0.0
C1337 C 0.26729 0.24836 0.23267 0.0
C1338 C 0.3723 0.25433 0.21823 0.0
C1339 C 0.32822 0.19738 0.2299 0.0
O1340 O 0.43488 0.23702 0.23739 0.0
O1341 O 0.41659 0.21154 0.22825 0.0
O1342 O 0.3765 0.22839 0.24191 0.0
O1343 O 0.38793 0.27002 0.23732 0.0
O1344 O 0.43506 0.28588 0.22873 0.0
O1345 O 0.40847 0.3136 0.22981 0.0
O1346 O 0.34215 0.30146 0.22705 0.0
O1347 O 0.33018 0.2752 0.2362 0.0
O1348 O 0.35717 0.26935 0.21892 0.0
O1349 O 0.38045 0.2504 0.22387 0.0
O1350 O 0.32504 0.22249 0.23057 0.0
O1351 O 0.3558 0.19928 0.22968 0.0
H1352 H 0.48092 0.22838 0.24198 0.0
H1353 H 0.52728 0.22365 0.24055 0.0
H1354 H 0.50795 0.2082 0.21982 0.0
H1355 H 0.46088 0.21218 0.22133 0.0
H1356 H 0.29597 0.32252 0.22688 0.0
H1357 H 0.24009 0.3032 0.2253 0.0
H1358 H 0.21889 0.21379 0.23345 0.0
H1359 H 0.27441 0.23271 0.23476 0.0
La1360 La 0.85695 0.20121 0.23284 0.0
La1361 La 0.8249 0.12936 0.22994 0.0
C1362 C 0.87816 0.25951 0.23367 0.0
C1363 C 0.87866 0.28846 0.23141 0.0
C1364 C 0.85666 0.2965 0.23368 0.0
C1365 C 0.86106 0.32654 0.23256 0.0
C1366 C 0.88775 0.34938 0.22921 0.0
C1367 C 0.90899 0.34082 0.22672 0.0
C1368 C 0.90453 0.31083 0.22781 0.0
C1369 C 0.84082 0.16182 0.24297 0.0
C1370 C 0.78525 0.16307 0.22884 0.0
C1371 C 0.80481 0.0725 0.23248 0.0
C1372 C 0.81527 0.04978 0.23121 0.0
C1373 C 0.84334 0.05861 0.22786 0.0
C1374 C 0.8547 0.03772 0.22731 0.0
C1375 C 0.83819 1.00762 0.23011 0.0
C1376 C 0.80978 0.99885 0.23337 0.0
C1377 C 0.79851 0.01973 0.23391 0.0
C1378 C 0.84457 0.1612 0.21885 0.0
C1379 C 0.89999 0.17229 0.23088 0.0
O1380 O 0.85429 0.23866 0.2371 0.0
O1381 O 0.88986 0.24671 0.2298 0.0
O1382 O 0.86567 0.18924 0.24284 0.0
O1383 O 0.82627 0.1583 0.23773 0.0
O1384 O 0.81198 0.19011 0.22859 0.0
O1385 O 0.78413 0.13612 0.23021 0.0
O1386 O 0.79528 0.08208 0.22743 0.0
O1387 O 0.82315 0.09556 0.23637 0.0
O1388 O 0.82933 0.13088 0.21925 0.0
O1389 O 0.84773 0.17179 0.2246 0.0
O1390 O 0.87496 0.14375 0.23109 0.0
O1391 O 0.89795 0.19795 0.23083 0.0
H1392 H 0.83671 0.28006 0.23656 0.0
H1393 H 0.84431 0.33231 0.2346 0.0
H1394 H 0.92952 0.35756 0.22403 0.0
H1395 H 0.92216 0.30562 0.22607 0.0
H1396 H 0.85677 0.08186 0.22578 0.0
H1397 H 0.87645 0.04519 0.22471 0.0
H1398 H 0.79667 0.97614 0.23569 0.0
H1399 H 0.77705 1.01266 0.2366 0.0
La1400 La 0.89709 0.6969 0.23218 0.0
La1401 La 0.96866 0.73722 0.22975 0.0
C1402 C 0.83874 0.65972 0.23285 0.0
C1403 C 0.80995 0.63109 0.23065 0.0
C1404 C 0.80185 0.60133 0.23311 0.0
C1405 C 0.77179 0.57564 0.23209 0.0
C1406 C 0.74901 0.57915 0.22864 0.0
C1407 C 0.75766 0.60862 0.22593 0.0
C1408 C 0.78767 0.63421 0.22693 0.0
C1409 C 0.93484 0.71845 0.24258 0.0
C1410 C 0.93544 0.66377 0.22816 0.0
C1411 C 0.02531 0.77349 0.23248 0.0
C1412 C 0.048 0.80657 0.23111 0.0
C1413 C 0.03859 0.82587 0.22798 0.0
C1414 C 0.05947 0.85803 0.22732 0.0
C1415 C 0.09019 0.87146 0.22976 0.0
C1416 C 0.09959 0.85178 0.23277 0.0
C1417 C 0.07867 0.81968 0.23345 0.0
C1418 C 0.93934 0.72953 0.21847 0.0
C1419 C 0.92552 0.76893 0.2309 0.0
O1420 O 0.85933 0.65695 0.23642 0.0
O1421 O 0.85181 0.68395 0.22891 0.0
O1422 O 0.90768 0.71641 0.24228 0.0
O1423 O 0.93917 0.7082 0.23732 0.0
O1424 O 0.90839 0.66337 0.2279 0.0
O1425 O 0.96223 0.68971 0.22957 0.0
O1426 O 1.01609 0.75412 0.22749 0.0
O1427 O 1.00197 0.76906 0.23626 0.0
O1428 O 0.96942 0.74528 0.21923 0.0
O1429 O 0.92706 0.71886 0.22401 0.0
O1430 O 0.95393 0.77235 0.23146 0.0
O1431 O 0.90015 0.74122 0.23037 0.0
H1432 H 0.81822 0.59813 0.23608 0.0
H1433 H 0.76595 0.55338 0.23428 0.0
H1434 H 0.74096 0.61212 0.22316 0.0
H1435 H 0.79295 0.65686 0.22504 0.0
H1436 H 1.01489 0.81617 0.22617 0.0
H1437 H 0.05154 0.87239 0.22492 0.0
H1438 H 0.12288 0.86132 0.2348 0.0
H1439 H 0.08622 0.80522 0.23595 0.0
C1440 C 0.42238 0.17505 0.11752 0.0
C1441 C 0.4044 0.15452 0.12258 0.0
C1442 C 0.43453 0.16483 0.11246 0.0
C1443 C 0.42234 0.092 0.10431 0.0
H1444 H 0.5064 0.14435 0.09761 0.0
C1445 C 0.46649 0.05658 0.08144 0.0
C1446 C 0.49737 0.06222 0.0814 0.0
C1447 C 0.45599 0.06865 0.08641 0.0
C1448 C 0.48294 0.12933 0.09945 0.0
H1449 H 0.38481 0.10714 0.12623 0.0
H1450 H 0.40585 0.08948 0.11751 0.0
H1451 H 0.48655 0.1641 0.10628 0.0
H1452 H 0.54142 0.08477 0.08661 0.0
H1453 H 0.52303 0.10575 0.09538 0.0
H1454 H 0.41872 0.05709 0.09759 0.0
C1455 C 0.41053 0.11338 0.11738 0.0
C1456 C 0.4714 0.14081 0.10437 0.0
C1457 C 0.39857 0.12358 0.12241 0.0
C1458 C 0.51751 0.08005 0.08651 0.0
C1459 C 0.507 0.09228 0.09149 0.0
C1460 C 0.43377 0.08061 0.09938 0.0
C1461 C 0.42866 0.13375 0.11231 0.0
C1462 C 0.44095 0.12223 0.1069 0.0
C1463 C 0.47601 0.08667 0.09152 0.0
C1464 C 0.46424 0.09904 0.09687 0.0
H1465 H 0.42726 0.19902 0.11751 0.0
H1466 H 0.44814 0.18114 0.10862 0.0
H1467 H 0.39868 0.07706 0.10605 0.0
H1468 H 0.45036 0.04292 0.07758 0.0
H1469 H 0.43216 0.06414 0.08618 0.0
C1470 C 0.96875 0.30885 0.12263 0.0
C1471 C 0.93747 0.28442 0.12277 0.0
C1472 C 0.97955 0.33155 0.11768 0.0
C1473 C 0.9535 0.36713 0.10476 0.0
H1474 H 0.03729 0.39723 0.09807 0.0
C1475 C 1.01525 0.47347 0.0867 0.0
C1476 C 0.03342 0.47107 0.08168 0.0
C1477 C 1.0028 0.45091 0.09174 0.0
C1478 C 1.01374 0.38904 0.09983 0.0
H1479 H 0.89298 0.26464 0.11776 0.0
H1480 H 0.91189 0.30419 0.10902 0.0
H1481 H 1.01654 0.35702 0.10649 0.0
H1482 H 0.05311 0.44335 0.07806 0.0
H1483 H 0.03145 0.40423 0.08672 0.0
H1484 H 0.95066 0.39894 0.09798 0.0
C1485 C 0.92804 0.30603 0.11281 0.0
C1486 C 1.00191 0.3661 0.10474 0.0
C1487 C 0.91721 0.28318 0.11779 0.0
C1488 C 0.03919 0.44591 0.08185 0.0
C1489 C 0.02687 0.4235 0.08686 0.0
C1490 C 0.96542 0.39023 0.09984 0.0
C1491 C 0.95946 0.33053 0.11266 0.0
C1492 C 0.97162 0.35476 0.10731 0.0
C1493 C 1.00848 0.42558 0.0919 0.0
C1494 C 0.99572 0.40148 0.09728 0.0
H1495 H 0.98504 0.31049 0.12638 0.0
H1496 H 1.00372 0.35018 0.11783 0.0
H1497 H 0.9302 0.35928 0.10664 0.0
H1498 H 1.01043 0.4926 0.08671 0.0
H1499 H 0.98906 0.45357 0.09555 0.0
C1500 C 0.64966 0.62742 0.08154 0.0
C1501 C 0.62508 0.59624 0.08128 0.0
C1502 C 0.67193 0.63762 0.08655 0.0
C1503 C 0.70602 0.60988 0.09943 0.0
H1504 H 0.73781 0.69384 0.10613 0.0
C1505 C 0.81274 0.66945 0.11735 0.0
C1506 C 0.8112 0.68824 0.12234 0.0
C1507 C 0.78999 0.65738 0.11236 0.0
C1508 C 0.72912 0.67023 0.10438 0.0
H1509 H 0.60436 0.55136 0.08618 0.0
H1510 H 0.64312 0.56927 0.09506 0.0
H1511 H 0.69749 0.6739 0.09777 0.0
H1512 H 0.78485 0.70945 0.12594 0.0
H1513 H 0.7453 0.68833 0.11739 0.0
H1514 H 0.73739 0.60614 0.10618 0.0
C1515 C 0.64546 0.58577 0.09129 0.0
C1516 C 0.70612 0.65885 0.09949 0.0
C1517 C 0.62306 0.57552 0.08624 0.0
C1518 C 0.78672 0.69501 0.12218 0.0
C1519 C 0.76407 0.68301 0.11723 0.0
C1520 C 0.72913 0.6213 0.10434 0.0
C1521 C 0.67025 0.61704 0.09153 0.0
C1522 C 0.69424 0.62855 0.09691 0.0
C1523 C 0.76529 0.66402 0.11223 0.0
C1524 C 0.74102 0.65168 0.1069 0.0
H1525 H 0.65193 0.64402 0.0778 0.0
H1526 H 0.69081 0.66168 0.08646 0.0
H1527 H 0.69775 0.58654 0.09755 0.0
H1528 H 0.83136 0.66387 0.11733 0.0
H1529 H 0.79201 0.64318 0.10857 0.0
C1530 C 0.08676 0.508 0.45069 0.0
C1531 C 0.06886 0.48756 0.45576 0.0
C1532 C 0.09914 0.49781 0.44567 0.0
C1533 C 0.08818 0.42482 0.43773 0.0
H1534 H 0.17163 0.47823 0.43083 0.0
C1535 C 0.13261 0.38906 0.41498 0.0
C1536 C 0.16389 0.39591 0.4148 0.0
C1537 C 0.12194 0.40098 0.41994 0.0
C1538 C 0.14836 0.46289 0.43274 0.0
H1539 H 0.04958 0.44031 0.45948 0.0
H1540 H 0.07109 0.42273 0.45084 0.0
H1541 H 0.15132 0.49782 0.43944 0.0
H1542 H 0.20847 0.42042 0.41979 0.0
H1543 H 0.18977 0.44109 0.42856 0.0
H1544 H 0.08524 0.38972 0.43116 0.0
C1545 C 0.07551 0.44653 0.45065 0.0
C1546 C 0.13653 0.4743 0.43762 0.0
C1547 C 0.06327 0.45669 0.45564 0.0
C1548 C 0.18424 0.41475 0.41978 0.0
C1549 C 0.17354 0.4268 0.42477 0.0
C1550 C 0.09992 0.4135 0.43285 0.0
C1551 C 0.09362 0.46684 0.44557 0.0
C1552 C 0.10626 0.45536 0.44021 0.0
C1553 C 0.14216 0.42003 0.42493 0.0
C1554 C 0.13017 0.43231 0.43026 0.0
H1555 H 0.09146 0.53191 0.45064 0.0
H1556 H 0.11269 0.51408 0.44181 0.0
H1557 H 0.06466 0.40957 0.43951 0.0
H1558 H 0.11629 0.37461 0.41122 0.0
H1559 H 0.09781 0.39556 0.4198 0.0
C1560 C 0.58298 0.61352 0.45052 0.0
C1561 C 0.60357 0.61509 0.45546 0.0
C1562 C 0.59346 0.63606 0.44549 0.0
C1563 C 0.66677 0.69639 0.43724 0.0
H1564 H 0.61437 0.72812 0.43059 0.0
C1565 C 0.70304 0.77684 0.41447 0.0
C1566 C 0.69662 0.80157 0.41432 0.0
C1567 C 0.69091 0.75418 0.41943 0.0
C1568 C 0.62945 0.71973 0.43242 0.0
H1569 H 0.6514 0.6413 0.45891 0.0
H1570 H 0.66949 0.68048 0.45026 0.0
H1571 H 0.59472 0.68859 0.43927 0.0
H1572 H 0.67252 0.82197 0.41935 0.0
H1573 H 0.65157 0.78257 0.42812 0.0
H1574 H 0.70173 0.72784 0.43053 0.0
C1575 C 0.64533 0.66183 0.45018 0.0
C1576 C 0.61799 0.69669 0.43736 0.0
C1577 C 0.63489 0.6394 0.45519 0.0
C1578 C 0.67786 0.80318 0.41932 0.0
C1579 C 0.66566 0.78042 0.42431 0.0
C1580 C 0.67818 0.71933 0.43232 0.0
C1581 C 0.62486 0.66059 0.44524 0.0
C1582 C 0.63653 0.6847 0.43986 0.0
C1583 C 0.67209 0.75558 0.42445 0.0
C1584 C 0.65974 0.73138 0.42981 0.0
H1585 H 0.55873 0.59503 0.45059 0.0
H1586 H 0.57702 0.63402 0.44174 0.0
H1587 H 0.68172 0.68762 0.43895 0.0
H1588 H 0.71749 0.77491 0.41071 0.0
H1589 H 0.69607 0.73529 0.41927 0.0
C1590 C 0.29086 0.91226 0.41953 0.0
C1591 C 0.29304 0.93268 0.41449 0.0
C1592 C 0.31335 0.92267 0.42457 0.0
C1593 C 0.37392 0.99572 0.43267 0.0
H1594 H 0.40541 0.94328 0.43942 0.0
C1595 C 0.45252 0.03071 0.45566 0.0
C1596 C 0.47764 0.02489 0.45578 0.0
C1597 C 0.43026 0.01884 0.45064 0.0
C1598 C 0.39706 0.95834 0.43756 0.0
H1599 H 0.3203 0.98008 0.41082 0.0
H1600 H 0.35932 0.99809 0.41949 0.0
H1601 H 0.36604 0.9236 0.43072 0.0
H1602 H 0.49926 1.00224 0.45065 0.0
H1603 H 0.46043 0.9816 0.44178 0.0
H1604 H 0.40509 0.0306 0.4394 0.0
C1605 C 0.34026 0.97413 0.41964 0.0
C1606 C 0.37415 0.94689 0.43262 0.0
C1607 C 0.31792 0.96373 0.41464 0.0
C1608 C 0.48015 1.00708 0.45069 0.0
C1609 C 0.45772 0.99506 0.44565 0.0
C1610 C 0.39665 1.00708 0.43761 0.0
C1611 C 0.33837 0.95383 0.4247 0.0
C1612 C 0.3623 0.96547 0.43008 0.0
C1613 C 0.43246 1.00085 0.44554 0.0
C1614 C 0.40858 0.9886 0.44015 0.0
H1615 H 0.27193 0.88821 0.41956 0.0
H1616 H 0.31088 0.90641 0.4284 0.0
H1617 H 0.36522 1.01067 0.43092 0.0
H1618 H 0.4499 0.04436 0.4595 0.0
H1619 H 0.41102 0.02348 0.45081 0.0
C1620 C 0.58655 1.00651 0.95078 0.0
C1621 C 0.60683 0.02429 0.95587 0.0
C1622 C 0.59676 0.99391 0.94581 0.0
C1623 C 0.66963 1.00406 0.93798 0.0
H1624 H 0.61546 0.92099 0.93102 0.0
C1625 C 0.70385 0.96003 0.91497 0.0
C1626 C 0.69698 0.92875 0.91474 0.0
C1627 C 0.69227 0.97058 0.92002 0.0
C1628 C 0.631 0.94414 0.93294 0.0
H1629 H 0.6538 0.04315 0.95967 0.0
H1630 H 0.67147 0.02124 0.95111 0.0
H1631 H 0.59624 0.94143 0.93968 0.0
H1632 H 0.67268 0.88402 0.91969 0.0
H1633 H 0.65251 0.90252 0.92861 0.0
H1634 H 0.70451 1.00676 0.93135 0.0
C1635 C 0.64776 0.01707 0.95088 0.0
C1636 C 0.61983 0.95605 0.93786 0.0
C1637 C 0.63757 0.02953 0.95583 0.0
C1638 C 0.67837 0.90825 0.91973 0.0
C1639 C 0.66663 0.91883 0.92481 0.0
C1640 C 0.68072 0.99224 0.93307 0.0
C1641 C 0.62759 0.99906 0.94578 0.0
C1642 C 0.63902 0.98621 0.94046 0.0
C1643 C 0.67351 0.95024 0.92504 0.0
C1644 C 0.6616 0.96215 0.93045 0.0
H1645 H 0.56274 1.00209 0.95067 0.0
H1646 H 0.58061 0.98049 0.94194 0.0
H1647 H 0.68508 0.02748 0.93978 0.0
H1648 H 0.7181 0.97647 0.9112 0.0
H1649 H 0.69773 0.99473 0.91993 0.0
C1650 C 0.13432 0.77795 0.91507 0.0
C1651 C 0.16434 0.80467 0.91514 0.0
C1652 C 0.12481 0.75518 0.91999 0.0
C1653 C 0.13858 0.74238 0.93715 0.0
H1654 H 0.09449 0.6546 0.93233 0.0
C1655 C 0.06654 0.64342 0.95583 0.0
C1656 C 0.06985 0.6167 0.95577 0.0
C1657 C 0.07991 0.66618 0.9509 0.0
C1658 C 0.10694 0.67898 0.93377 0.0
H1659 H 0.20747 0.82895 0.92065 0.0
H1660 H 0.19052 0.78944 0.9294 0.0
H1661 H 0.11476 0.69486 0.92378 0.0
H1662 H 0.0888 0.5924 0.9503 0.0
H1663 H 0.11159 0.63191 0.94156 0.0
H1664 H 0.13022 0.7265 0.94714 0.0
C1665 C 0.17453 0.78593 0.92543 0.0
C1666 C 0.11836 0.7021 0.92886 0.0
C1667 C 0.18427 0.80858 0.92042 0.0
C1668 C 0.08598 0.61278 0.95051 0.0
C1669 C 0.09901 0.63543 0.94551 0.0
C1670 C 0.12674 0.71926 0.94205 0.0
C1671 C 0.14477 0.75871 0.92524 0.0
C1672 C 0.13414 0.73414 0.93048 0.0
C1673 C 0.09646 0.66265 0.94568 0.0
C1674 C 0.11054 0.68722 0.94044 0.0
H1675 H 0.11817 0.77438 0.91113 0.0
H1676 H 0.10157 0.73489 0.91973 0.0
H1677 H 0.15045 0.76675 0.93859 0.0
H1678 H 0.05385 0.64698 0.95975 0.0
H1679 H 0.07694 0.68647 0.95115 0.0
C1680 C 0.45058 0.45765 0.95561 0.0
C1681 C 0.47524 0.48881 0.95582 0.0
C1682 C 0.42818 0.44736 0.95062 0.0
C1683 C 0.39356 0.47456 0.93778 0.0
H1684 H 0.36343 0.39121 0.93087 0.0
C1685 C 0.28719 0.41361 0.91977 0.0
C1686 C 0.2898 0.39594 0.91467 0.0
C1687 C 0.30975 0.42587 0.92479 0.0
C1688 C 0.37164 0.41464 0.93269 0.0
H1689 H 0.49586 0.53358 0.95088 0.0
H1690 H 0.45678 0.51554 0.94205 0.0
H1691 H 0.4035 0.41132 0.9393 0.0
H1692 H 0.31794 0.37703 0.91089 0.0
H1693 H 0.35705 0.39834 0.91952 0.0
H1694 H 0.36185 0.47789 0.93105 0.0
C1695 C 0.45455 0.49912 0.94583 0.0
C1696 C 0.39449 0.4261 0.93761 0.0
C1697 C 0.47712 0.50945 0.95085 0.0
C1698 C 0.3152 0.39054 0.91474 0.0
C1699 C 0.3376 0.40266 0.91973 0.0
C1700 C 0.37053 0.46301 0.93286 0.0
C1701 C 0.42978 0.46784 0.94563 0.0
C1702 C 0.40581 0.4562 0.94025 0.0
C1703 C 0.33528 0.42048 0.92485 0.0
C1704 C 0.35928 0.43287 0.93022 0.0
H1705 H 0.44841 0.44112 0.95936 0.0
H1706 H 0.40931 0.4233 0.95072 0.0
H1707 H 0.40143 0.49773 0.93972 0.0
H1708 H 0.26787 0.41816 0.91985 0.0
H1709 H 0.30695 0.4392 0.92867 0.0
C1710 C 0.97164 0.69387 0.62264 0.0
C1711 C 0.94184 0.69105 0.62245 0.0
C1712 C 0.98143 0.68105 0.61768 0.0
C1713 C 0.96802 0.65609 0.60036 0.0
H1714 H 1.01256 0.6125 0.60494 0.0
C1715 C 0.03797 0.62894 0.58126 0.0
C1716 C 0.03508 0.5991 0.58135 0.0
C1717 C 0.02517 0.63843 0.58628 0.0
C1718 C 0.99998 0.6244 0.60357 0.0
H1719 H 0.89933 0.67338 0.61676 0.0
H1720 H 0.91663 0.65143 0.608 0.0
H1721 H 0.99254 0.63207 0.6136 0.0
H1722 H 1.01747 0.55626 0.58694 0.0
H1723 H 0.99557 0.57311 0.59582 0.0
H1724 H 0.97576 0.64874 0.59034 0.0
C1725 C 0.93233 0.66331 0.61204 0.0
C1726 C 0.98873 0.63589 0.60854 0.0
C1727 C 0.92237 0.67584 0.61707 0.0
C1728 C 1.01995 0.57932 0.58671 0.0
C1729 C 1.00745 0.58902 0.5918 0.0
C1730 C 0.97961 0.64494 0.5954 0.0
C1731 C 0.96193 0.6655 0.61231 0.0
C1732 C 0.97276 0.65209 0.60701 0.0
C1733 C 1.00958 0.61861 0.59161 0.0
C1734 C 0.99595 0.62912 0.59693 0.0
H1735 H 0.98742 0.70584 0.62667 0.0
H1736 H 1.00455 0.68373 0.61801 0.0
H1737 H 0.95602 0.66856 0.59898 0.0
H1738 H 0.04988 0.64496 0.57726 0.0
H1739 H 0.02783 0.66156 0.58601 0.0
C1740 C 0.46592 0.44545 0.58143 0.0
C1741 C 0.49709 0.4701 0.5813 0.0
C1742 C 0.45528 0.42281 0.5864 0.0
C1743 C 0.48195 0.38788 0.59932 0.0
H1744 H 0.39791 0.35663 0.60598 0.0
C1745 C 0.42114 0.28145 0.6174 0.0
C1746 C 0.40286 0.28371 0.62242 0.0
C1747 C 0.43339 0.30395 0.61235 0.0
C1748 C 0.42152 0.36514 0.60423 0.0
H1749 H 0.54151 0.49049 0.58635 0.0
H1750 H 0.52288 0.45106 0.59512 0.0
H1751 H 0.41825 0.3969 0.59757 0.0
H1752 H 0.38282 0.31116 0.62602 0.0
H1753 H 0.40412 0.35016 0.61734 0.0
H1754 H 0.48525 0.35633 0.60611 0.0
C1755 C 0.50671 0.44897 0.59131 0.0
C1756 C 0.43313 0.38811 0.59932 0.0
C1757 C 0.51737 0.47176 0.58632 0.0
C1758 C 0.39681 0.30869 0.62223 0.0
C1759 C 0.40893 0.33103 0.61721 0.0
C1760 C 0.47026 0.36475 0.60424 0.0
C1761 C 0.47543 0.42415 0.59143 0.0
C1762 C 0.46351 0.39989 0.59677 0.0
C1763 C 0.42738 0.32908 0.61218 0.0
C1764 C 0.43987 0.3531 0.60679 0.0
H1765 H 0.44966 0.44347 0.57764 0.0
H1766 H 0.43123 0.40393 0.58623 0.0
H1767 H 0.50533 0.39606 0.59746 0.0
H1768 H 0.42618 0.26246 0.61741 0.0
H1769 H 0.44722 0.30142 0.60854 0.0
C1770 C 0.78435 0.12314 0.62253 0.0
C1771 C 0.8093 0.15416 0.62271 0.0
C1772 C 0.76223 0.11287 0.61748 0.0
C1773 C 0.72886 0.14023 0.60443 0.0
H1774 H 0.6982 0.05655 0.59766 0.0
C1775 C 0.62305 0.0797 0.58632 0.0
C1776 C 0.62562 0.06183 0.58125 0.0
C1777 C 0.64547 0.09186 0.59136 0.0
C1778 C 0.70657 0.08006 0.59945 0.0
H1779 H 0.83071 0.19871 0.61767 0.0
H1780 H 0.79208 0.18072 0.60876 0.0
H1781 H 0.73789 0.07653 0.60618 0.0
H1782 H 0.65347 0.04242 0.57756 0.0
H1783 H 0.69235 0.06355 0.58625 0.0
H1784 H 0.69769 0.14377 0.59759 0.0
C1785 C 0.78944 0.1644 0.6126 0.0
C1786 C 0.72919 0.09145 0.60441 0.0
C1787 C 0.81173 0.17469 0.61767 0.0
C1788 C 0.6508 0.05611 0.58139 0.0
C1789 C 0.67305 0.06812 0.58641 0.0
C1790 C 0.70606 0.12875 0.59947 0.0
C1791 C 0.76439 0.13326 0.61242 0.0
C1792 C 0.74069 0.12168 0.607 0.0
C1793 C 0.67079 0.08616 0.59149 0.0
C1794 C 0.69462 0.09849 0.59689 0.0
H1795 H 0.78177 0.10669 0.62634 0.0
H1796 H 0.74313 0.08892 0.6176 0.0
H1797 H 0.73689 0.1635 0.60633 0.0
H1798 H 0.60389 0.08448 0.58635 0.0
H1799 H 0.64271 0.10535 0.59521 0.0
C1800 C 0.79979 0.72406 0.74809 0.0
C1801 C 0.83091 0.7304 0.74792 0.0
C1802 C 0.78948 0.73641 0.75304 0.0
C1803 C 0.8171 0.79838 0.76589 0.0
H1804 H 0.73304 0.74646 0.77261 0.0
C1805 C 0.75798 0.84506 0.78413 0.0
C1806 C 0.73946 0.82445 0.78912 0.0
C1807 C 0.76988 0.83466 0.77905 0.0
C1808 C 0.75667 0.76132 0.77084 0.0
H1809 H 0.87554 0.75442 0.75289 0.0
H1810 H 0.85746 0.77573 0.76164 0.0
H1811 H 0.75278 0.72609 0.76419 0.0
H1812 H 0.71871 0.77674 0.79265 0.0
H1813 H 0.73948 0.75885 0.78394 0.0
H1814 H 0.82105 0.83339 0.77268 0.0
C1815 C 0.84109 0.76158 0.75786 0.0
C1816 C 0.76792 0.7497 0.76593 0.0
C1817 C 0.85144 0.74916 0.75288 0.0
C1818 C 0.73288 0.79326 0.78888 0.0
C1819 C 0.74468 0.78292 0.78384 0.0
C1820 C 0.80577 0.81006 0.77082 0.0
C1821 C 0.80989 0.75534 0.75802 0.0
C1822 C 0.79831 0.76799 0.76336 0.0
C1823 C 0.76331 0.80335 0.77882 0.0
C1824 C 0.7754 0.79163 0.7734 0.0
H1825 H 0.78334 0.70967 0.74434 0.0
H1826 H 0.76547 0.73138 0.75289 0.0
H1827 H 0.84048 0.81334 0.764 0.0
H1828 H 0.76343 0.86921 0.78418 0.0
H1829 H 0.78387 0.85105 0.77525 0.0
C1830 C 0.30421 0.97394 0.78892 0.0
C1831 C 0.27303 0.94929 0.78914 0.0
C1832 C 0.31457 0.99641 0.78393 0.0
C1833 C 0.28752 0.03137 0.77111 0.0
H1834 H 0.37127 0.06228 0.76431 0.0
C1835 C 0.34869 0.13856 0.75319 0.0
C1836 C 0.36681 0.13636 0.74813 0.0
C1837 C 0.33632 0.1158 0.75819 0.0
C1838 C 0.34773 0.05387 0.7661 0.0
H1839 H 0.22832 0.92878 0.7842 0.0
H1840 H 0.2465 0.96799 0.77537 0.0
H1841 H 0.35097 0.0218 0.77267 0.0
H1842 H 0.38642 0.10875 0.7444 0.0
H1843 H 0.36493 0.06934 0.75299 0.0
H1844 H 0.28429 0.06328 0.76441 0.0
C1845 C 0.26288 0.97014 0.77915 0.0
C1846 C 0.33615 0.03076 0.77098 0.0
C1847 C 0.25248 0.94748 0.78417 0.0
C1848 C 0.37258 0.1112 0.74823 0.0
C1849 C 0.36034 0.0886 0.7532 0.0
C1850 C 0.2992 0.05465 0.76622 0.0
C1851 C 0.29417 0.99495 0.77895 0.0
C1852 C 0.30589 0.01913 0.77358 0.0
C1853 C 0.34204 0.09048 0.75828 0.0
C1854 C 0.32949 0.06621 0.76362 0.0
H1855 H 0.32068 0.97607 0.79267 0.0
H1856 H 0.33864 0.01528 0.78404 0.0
H1857 H 0.26424 0.02329 0.77302 0.0
H1858 H 0.34384 0.15767 0.75325 0.0
H1859 H 0.32261 0.11828 0.76204 0.0
C1860 C 0.95689 0.24387 0.75302 0.0
C1861 C 0.95922 0.26435 0.74798 0.0
C1862 C 0.97933 0.25418 0.75807 0.0
C1863 C 0.0401 0.32724 0.76616 0.0
H1864 H 0.07139 0.2747 0.77295 0.0
C1865 C 0.11973 0.36312 0.78899 0.0
C1866 C 0.14468 0.35703 0.7891 0.0
C1867 C 0.09719 0.35102 0.78402 0.0
C1868 C 0.06309 0.28979 0.77108 0.0
H1869 H 0.98669 0.31178 0.74433 0.0
H1870 H 0.02559 0.32959 0.75301 0.0
H1871 H 0.03184 0.25493 0.76429 0.0
H1872 H 0.1657 0.33368 0.78401 0.0
H1873 H 0.12643 0.31271 0.77524 0.0
H1874 H 0.07155 0.36227 0.77283 0.0
C1875 C 1.00646 0.30565 0.75315 0.0
C1876 C 0.04008 0.27828 0.76616 0.0
C1877 C 0.98419 0.29536 0.74814 0.0
C1878 C 0.14673 0.33874 0.78406 0.0
C1879 C 0.12405 0.32652 0.77907 0.0
C1880 C 0.06295 0.33866 0.77107 0.0
C1881 C 1.00443 0.28531 0.75821 0.0
C1882 C 0.02832 0.29691 0.7636 0.0
C1883 C 0.09895 0.33256 0.77897 0.0
C1884 C 0.07484 0.32017 0.77362 0.0
H1885 H 0.93789 0.21985 0.75304 0.0
H1886 H 0.97676 0.23789 0.7619 0.0
H1887 H 0.03147 0.34223 0.76439 0.0
H1888 H 0.11745 0.37713 0.79279 0.0
H1889 H 0.07808 0.35586 0.7842 0.0
C1890 C 0.3006 0.36235 0.28899 0.0
C1891 C 0.26963 0.35646 0.28907 0.0
C1892 C 0.31111 0.35031 0.28402 0.0
C1893 C 0.28406 0.28975 0.2709 0.0
H1894 H 0.3689 0.34152 0.26457 0.0
C1895 C 0.344 0.24353 0.25279 0.0
C1896 C 0.36317 0.26438 0.24789 0.0
C1897 C 0.33182 0.25377 0.25784 0.0
C1898 C 0.34506 0.32671 0.26622 0.0
H1899 H 0.22546 0.33355 0.28391 0.0
H1900 H 0.2439 0.31278 0.27512 0.0
H1901 H 0.34872 0.36147 0.27298 0.0
H1902 H 0.38488 0.31239 0.24452 0.0
H1903 H 0.36363 0.33007 0.25319 0.0
H1904 H 0.28037 0.25521 0.264 0.0
C1905 C 0.25999 0.32634 0.27899 0.0
C1906 C 0.33354 0.33808 0.27113 0.0
C1907 C 0.24944 0.33846 0.28399 0.0
C1908 C 0.37016 0.29568 0.24821 0.0
C1909 C 0.35808 0.30589 0.25323 0.0
C1910 C 0.29565 0.27831 0.26597 0.0
C1911 C 0.29105 0.33215 0.27892 0.0
C1912 C 0.30288 0.31983 0.27357 0.0
C1913 C 0.33875 0.28518 0.25814 0.0
C1914 C 0.32633 0.29669 0.26354 0.0
H1915 H 0.3168 0.37614 0.29283 0.0
H1916 H 0.33498 0.35496 0.28424 0.0
H1917 H 0.26045 0.27482 0.27267 0.0
H1918 H 0.33823 0.21928 0.25268 0.0
H1919 H 0.3173 0.23717 0.26156 0.0
C1920 C 0.72964 0.97386 0.28879 0.0
C1921 C 0.7364 0.94936 0.28893 0.0
C1922 C 0.74173 0.99662 0.28385 0.0
C1923 C 0.8041 0.03258 0.27114 0.0
H1924 H 0.75092 0.06289 0.26425 0.0
C1925 C 0.85011 0.14047 0.25349 0.0
C1926 C 0.83016 0.13826 0.24835 0.0
C1927 C 0.83956 0.11744 0.25843 0.0
C1928 C 0.76613 0.05464 0.26607 0.0
H1929 H 0.76093 0.92937 0.28392 0.0
H1930 H 0.78197 0.9691 0.2752 0.0
H1931 H 0.73071 0.02216 0.27258 0.0
H1932 H 0.78339 0.11036 0.24442 0.0
H1933 H 0.76516 0.07043 0.25292 0.0
H1934 H 0.8394 0.06493 0.26453 0.0
C1935 C 0.7676 0.97093 0.27899 0.0
C1936 C 0.75459 0.03141 0.27093 0.0
C1937 C 0.75535 0.94799 0.28395 0.0
C1938 C 0.7994 0.11278 0.2483 0.0
C1939 C 0.78887 0.08991 0.25322 0.0
C1940 C 0.81573 0.05601 0.26629 0.0
C1941 C 0.76089 0.99557 0.27886 0.0
C1942 C 0.77336 0.02 0.27355 0.0
C1943 C 0.8087 0.09183 0.25837 0.0
C1944 C 0.79686 0.06734 0.26366 0.0
H1945 H 0.71507 0.9756 0.29254 0.0
H1946 H 0.73634 0.01535 0.284 0.0
H1947 H 0.8194 0.02466 0.27307 0.0
H1948 H 0.87392 0.15985 0.25367 0.0
H1949 H 0.85545 0.11996 0.26234 0.0
C1950 C 0.98465 0.72812 0.24792 0.0
C1951 C 0.95772 0.73104 0.24808 0.0
C1952 C 1.00713 0.74082 0.2529 0.0
C1953 C 1.01856 0.76529 0.27022 0.0
H1954 H 0.10667 0.80952 0.26561 0.0
C1955 C 0.11612 0.79182 0.28917 0.0
C1956 C 0.14288 0.8218 0.28913 0.0
C1957 C 0.09371 0.7825 0.28418 0.0
C1958 C 0.08219 0.79743 0.26699 0.0
H1959 H 0.93277 0.74865 0.25375 0.0
H1960 H 0.97181 0.77034 0.26256 0.0
H1961 H 0.06706 0.79018 0.25697 0.0
H1962 H 0.16762 0.86509 0.28367 0.0
H1963 H 0.12869 0.84855 0.27484 0.0
H1964 H 0.03369 0.77216 0.28024 0.0
C1965 C 0.9757 0.75853 0.25851 0.0
C1966 C 0.05944 0.78609 0.26203 0.0
C1967 C 0.95333 0.74615 0.25346 0.0
C1968 C 0.1472 0.84191 0.28386 0.0
C1969 C 0.1249 0.8324 0.2788 0.0
C1970 C 0.04131 0.77627 0.27518 0.0
C1971 C 1.00309 0.75631 0.25826 0.0
C1972 C 0.02729 0.76966 0.26357 0.0
C1973 C 0.09765 0.80265 0.27894 0.0
C1974 C 0.07346 0.79231 0.27364 0.0
H1975 H 0.98856 0.71622 0.24389 0.0
H1976 H 0.02757 0.73813 0.25258 0.0
H1977 H 0.99409 0.75264 0.27159 0.0
H1978 H 0.11227 0.77555 0.29311 0.0
H1979 H 0.07338 0.75927 0.28441 0.0
C1980 C 0.53309 0.08115 0.04074 0.0
C1981 C 0.52806 0.05872 0.04555 0.0
C1982 C 0.5406 0.07785 0.03432 0.0
C1983 C 0.53124 0.01792 0.02246 0.0
H1984 H 0.58839 0.08965 1.01198 0.0
C1985 C 0.56993 1.00581 0.99656 0.0
C1986 C 0.57522 0.02825 0.99173 0.0
C1987 C 0.56246 1.00929 1.00297 0.0
C1988 C 0.57196 0.06947 1.0148 0.0
H1989 H 0.52791 0.01554 0.04747 0.0
H1990 H 0.54122 1.00951 0.03611 0.0
H1991 H 0.58246 0.09618 0.02364 0.0
H1992 H 0.57588 0.07166 0.98978 0.0
H1993 H 0.56257 0.07797 1.00112 0.0
H1994 H 0.5207 0.9912 1.01362 0.0
C1995 C 0.53915 0.02972 0.03735 0.0
C1996 C 0.56871 0.07314 0.02151 0.0
C1997 C 0.53186 0.03326 0.04386 0.0
C1998 C 0.57172 0.05392 0.9934 0.0
C1999 C 0.56444 0.05762 0.9999 0.0
C2000 C 0.53447 1.01425 1.01575 0.0
C2001 C 0.54315 0.05183 0.03248 0.0
C2002 C 0.54828 0.04742 0.02544 0.0
C2003 C 0.56016 0.03548 1.00479 0.0
C2004 C 0.55494 0.03995 1.01182 0.0
H2005 H 0.53032 0.10107 0.04189 0.0
H2006 H 0.54308 0.09513 0.03073 0.0
H2007 H 0.51482 0.99773 0.02528 0.0
H2008 H 0.57247 0.98574 0.99543 0.0
H2009 H 0.55979 0.99197 1.00657 0.0
C2010 C 0.05353 0.59987 0.99728 0.0
C2011 C 0.05357 0.58175 0.99198 0.0
C2012 C 0.05131 0.58949 1.00371 0.0
C2013 C 0.031 0.52063 1.01418 0.0
H2014 H 0.0854 0.58404 0.02663 0.0
C2015 C 0.04762 0.48692 0.04013 0.0
C2016 C 0.04777 0.50508 0.04544 0.0
C2017 C 0.04962 0.49725 0.0337 0.0
C2018 C 0.06979 0.56612 0.02325 0.0
H2019 H 0.05006 0.53779 0.98924 0.0
H2020 H 0.04633 0.51931 1.00062 0.0
H2021 H 0.08503 0.59821 1.0152 0.0
H2022 H 0.05135 0.54904 0.0482 0.0
H2023 H 0.05467 0.56743 0.03683 0.0
H2024 H 1.01576 0.48854 0.02223 0.0
C2025 C 0.04781 0.54166 0.99975 0.0
C2026 C 0.06956 0.57419 1.01667 0.0
C2027 C 0.04982 0.55209 0.99324 0.0
C2028 C 0.05143 0.5347 0.04419 0.0
C2029 C 0.05321 0.54509 0.03768 0.0
C2030 C 0.03123 0.51256 0.02076 0.0
C2031 C 0.04942 0.56072 1.00507 0.0
C2032 C 0.0501 0.55159 1.01204 0.0
C2033 C 0.05147 0.52601 0.03235 0.0
C2034 C 0.05071 0.53516 0.02539 0.0
H2035 H 0.05605 0.62272 0.99646 0.0
H2036 H 0.05161 0.60439 1.00763 0.0
H2037 H 1.01541 0.5027 1.0108 0.0
H2038 H 0.04517 0.46409 0.04094 0.0
H2039 H 0.04922 0.48234 0.02977 0.0
C2040 C 0.56184 0.55483 0.04391 0.0
C2041 C 0.59303 0.57805 0.04501 0.0
C2042 C 0.5507 0.54627 0.03745 0.0
C2043 C 0.58065 0.55003 0.02045 0.0
H2044 H 0.49786 0.53133 1.01509 0.0
C2045 C 0.53959 0.53102 0.99306 0.0
C2046 C 0.50842 0.5077 0.99198 0.0
C2047 C 0.5508 0.53974 0.99951 0.0
C2048 C 0.52101 0.53619 1.01651 0.0
H2049 H 0.63641 0.61154 0.04027 0.0
H2050 H 0.61706 0.59737 0.02921 0.0
H2051 H 0.51392 0.54519 0.02646 0.0
H2052 H 0.46516 0.47418 0.99676 0.0
H2053 H 0.48462 0.48865 1.0078 0.0
H2054 H 0.58773 0.54103 1.0105 0.0
C2055 C 0.60131 0.58493 0.03322 0.0
C2056 C 0.53015 0.54407 0.02305 0.0
C2057 C 0.61233 0.59325 0.03959 0.0
C2058 C 0.48922 0.49256 0.99741 0.0
C2059 C 0.50031 0.50105 1.00378 0.0
C2060 C 0.57151 0.54215 1.01391 0.0
C2061 C 0.57061 0.56086 0.03202 0.0
C2062 C 0.56014 0.5512 0.02511 0.0
C2063 C 0.53098 0.52521 1.00495 0.0
C2064 C 0.54151 0.53501 1.01185 0.0
H2065 H 0.54652 0.54265 0.04799 0.0
H2066 H 0.52687 0.5276 0.0367 0.0
H2067 H 0.60379 0.55488 0.02187 0.0
H2068 H 0.55484 0.54315 0.98896 0.0
H2069 H 0.57462 0.55848 1.00024 0.0
C2070 C 0.0553 0.55739 0.54392 0.0
C2071 C 0.04339 0.57755 0.54503 0.0
C2072 C 0.05838 0.54911 0.53746 0.0
C2073 C 0.06174 0.5743 0.52004 0.0
H2074 H 0.03362 0.48765 0.51594 0.0
C2075 C 0.0482 0.52901 0.49312 0.0
C2076 C 0.05997 0.50874 0.49201 0.0
C2077 C 0.04516 0.5373 0.49958 0.0
C2078 C 0.04177 0.51203 0.517 0.0
H2079 H 0.02608 0.60529 0.54027 0.0
H2080 H 0.03141 0.5911 0.52923 0.0
H2081 H 0.03359 0.50298 0.5273 0.0
H2082 H 0.0771 0.48082 0.49676 0.0
H2083 H 0.07187 0.49504 0.5078 0.0
H2084 H 0.06993 0.58335 0.50974 0.0
C2085 C 0.03863 0.58172 0.53323 0.0
C2086 C 0.04193 0.52082 0.52353 0.0
C2087 C 0.03535 0.58969 0.5396 0.0
C2088 C 0.06792 0.49651 0.49743 0.0
C2089 C 0.0647 0.50449 0.5038 0.0
C2090 C 0.06159 0.56551 0.51351 0.0
C2091 C 0.04997 0.5612 0.53204 0.0
C2092 C 0.05184 0.55207 0.52514 0.0
C2093 C 0.05349 0.52512 0.505 0.0
C2094 C 0.05167 0.53426 0.5119 0.0
H2095 H 0.06158 0.54763 0.548 0.0
H2096 H 0.06736 0.53332 0.53671 0.0
H2097 H 0.06988 0.59867 0.5211 0.0
H2098 H 0.04199 0.53885 0.48904 0.0
H2099 H 0.03628 0.55316 0.50033 0.0
C2100 C 0.5723 0.55236 0.49323 0.0
C2101 C 0.57538 0.58118 0.49138 0.0
C2102 C 0.56529 0.5421 0.49978 0.0
C2103 C 0.57058 0.57468 0.51655 0.0
H2104 H 0.51702 0.48821 0.5216 0.0
C2105 C 0.53062 0.53441 0.54361 0.0
C2106 C 0.52803 0.50578 0.54544 0.0
C2107 C 0.5375 0.54477 0.53706 0.0
C2108 C 0.53234 0.51248 0.52028 0.0
H2109 H 0.57151 0.62071 0.49478 0.0
H2110 H 0.55848 0.6026 0.50598 0.0
H2111 H 0.52554 0.50206 0.51002 0.0
H2112 H 0.53262 0.4667 0.54201 0.0
H2113 H 0.54533 0.48496 0.53081 0.0
H2114 H 0.57735 0.5851 0.52682 0.0
C2115 C 0.56248 0.5883 0.50253 0.0
C2116 C 0.53724 0.52038 0.51362 0.0
C2117 C 0.56965 0.59853 0.49607 0.0
C2118 C 0.5341 0.48873 0.54073 0.0
C2119 C 0.5411 0.49904 0.53427 0.0
C2120 C 0.56567 0.56679 0.52321 0.0
C2121 C 0.56115 0.56047 0.50455 0.0
C2122 C 0.55637 0.55161 0.51165 0.0
C2123 C 0.54195 0.52666 0.53227 0.0
C2124 C 0.54657 0.53556 0.52518 0.0
H2125 H 0.57683 0.53865 0.48972 0.0
H2126 H 0.5644 0.52048 0.50116 0.0
H2127 H 0.58594 0.59895 0.51524 0.0
H2128 H 0.52581 0.54788 0.54713 0.0
H2129 H 0.53804 0.56624 0.53569 0.0
C2130 C 0.56238 0.03282 0.54369 0.0
C2131 C 0.59194 0.05791 0.54534 0.0
C2132 C 0.55156 0.02922 0.53718 0.0
C2133 C 0.58262 0.05338 0.5202 0.0
H2134 H 0.49656 0.02575 0.51565 0.0
C2135 C 0.54093 0.05375 0.49333 0.0
C2136 C 0.51138 0.02864 0.49168 0.0
C2137 C 0.55174 0.05736 0.49984 0.0
C2138 C 0.52068 0.03321 0.51682 0.0
H2139 H 0.63237 0.09982 0.54162 0.0
H2140 H 0.61342 0.09407 0.5305 0.0
H2141 H 0.51167 0.03103 0.52715 0.0
H2142 H 0.47094 0.98674 0.4954 0.0
H2143 H 0.48988 0.99252 0.50653 0.0
H2144 H 0.59162 0.05556 0.50988 0.0
C2145 C 0.59888 0.07653 0.53407 0.0
C2146 C 0.52929 0.03617 0.52344 0.0
C2147 C 0.60963 0.07997 0.54049 0.0
C2148 C 0.49368 1.0066 0.49653 0.0
C2149 C 0.50442 1.01005 0.50296 0.0
C2150 C 0.574 0.05043 0.51359 0.0
C2151 C 0.57013 0.05072 0.53226 0.0
C2152 C 0.56041 0.0464 0.52522 0.0
C2153 C 0.53317 0.03587 0.50477 0.0
C2154 C 0.54289 0.0402 0.5118 0.0
H2155 H 0.54836 0.0154 0.54733 0.0
H2156 H 0.52922 1.00904 0.53596 0.0
H2157 H 0.60674 0.06084 0.52138 0.0
H2158 H 0.55495 0.07116 0.48969 0.0
H2159 H 0.57407 0.07755 0.50107 0.0
C2160 C 0.23694 0.33917 0.32985 0.0
C2161 C 0.24084 0.36109 0.325 0.0
C2162 C 0.22992 0.34261 0.3363 0.0
C2163 C 0.20092 0.38283 0.34707 0.0
H2164 H 0.24495 0.36403 0.36047 0.0
C2165 C 0.19633 0.4129 0.37401 0.0
C2166 C 0.19244 0.39104 0.37887 0.0
C2167 C 0.20328 0.40936 0.36756 0.0
C2168 C 0.23216 0.369 0.35681 0.0
H2169 H 0.23924 0.40336 0.32306 0.0
H2170 H 0.22696 0.40972 0.33448 0.0
H2171 H 0.25408 0.35853 0.34894 0.0
H2172 H 0.194 0.34876 0.38083 0.0
H2173 H 0.20617 0.34223 0.36942 0.0
H2174 H 0.17901 0.3933 0.35494 0.0
C2175 C 0.22924 0.38963 0.33323 0.0
C2176 C 0.2374 0.36591 0.35017 0.0
C2177 C 0.23618 0.38603 0.32669 0.0
C2178 C 0.19705 0.36605 0.37719 0.0
C2179 C 0.20392 0.36235 0.37066 0.0
C2180 C 0.19567 0.38592 0.3537 0.0
C2181 C 0.22681 0.3683 0.33814 0.0
C2182 C 0.22179 0.37269 0.3452 0.0
C2183 C 0.20633 0.38363 0.36573 0.0
C2184 C 0.2113 0.37915 0.35867 0.0
H2185 H 0.24001 0.31945 0.32869 0.0
H2186 H 0.2273 0.32519 0.33986 0.0
H2187 H 0.18814 0.38781 0.3434 0.0
H2188 H 0.1933 0.43266 0.37516 0.0
H2189 H 0.2059 0.42674 0.36399 0.0
C2190 C 0.73478 0.83412 0.37351 0.0
C2191 C 0.72362 0.8454 0.37854 0.0
C2192 C 0.73388 0.84197 0.36697 0.0
C2193 C 0.69349 0.87033 0.35591 0.0
H2194 H 0.75675 0.8783 0.34353 0.0
C2195 C 0.70795 0.92184 0.32989 0.0
C2196 C 0.71632 0.90874 0.32473 0.0
C2197 C 0.70527 0.91071 0.33628 0.0
C2198 C 0.73861 0.87561 0.3469 0.0
H2199 H 0.70401 0.87504 0.38068 0.0
H2200 H 0.70321 0.88971 0.36921 0.0
H2201 H 0.76218 0.86971 0.35509 0.0
H2202 H 0.72763 0.87309 0.32211 0.0
H2203 H 0.72333 0.85355 0.33341 0.0
H2204 H 0.67051 0.87726 0.3477 0.0
C2205 C 0.712 0.87405 0.37032 0.0
C2206 C 0.74174 0.87078 0.35356 0.0
C2207 C 0.7128 0.86601 0.37691 0.0
C2208 C 0.72067 0.88323 0.32601 0.0
C2209 C 0.71857 0.87238 0.33247 0.0
C2210 C 0.69054 0.87548 0.34926 0.0
C2211 C 0.72201 0.86163 0.36525 0.0
C2212 C 0.71923 0.86804 0.35817 0.0
C2213 C 0.71151 0.88652 0.3377 0.0
C2214 C 0.71309 0.87823 0.34467 0.0
H2215 H 0.74329 0.81818 0.3746 0.0
H2216 H 0.74143 0.83154 0.36326 0.0
H2217 H 0.67533 0.86774 0.35926 0.0
H2218 H 0.70473 0.94173 0.32903 0.0
H2219 H 0.70007 0.92233 0.34017 0.0
C2220 C 0.20529 0.85546 0.32666 0.0
C2221 C 0.1745 0.84794 0.3252 0.0
C2222 C 0.21652 0.86296 0.33314 0.0
C2223 C 0.18693 0.85255 0.35035 0.0
H2224 H 0.27103 0.91815 0.35443 0.0
C2225 C 0.22921 0.89706 0.37706 0.0
C2226 C 0.26001 0.90466 0.37852 0.0
C2227 C 0.21793 0.88934 0.37059 0.0
C2228 C 0.24751 0.89951 0.35339 0.0
H2229 H 0.13199 0.84385 0.32927 0.0
H2230 H 0.1515 0.85736 0.34034 0.0
H2231 H 0.25469 0.9067 0.34302 0.0
H2232 H 0.30248 0.90855 0.37447 0.0
H2233 H 0.28288 0.89465 0.36341 0.0
H2234 H 0.17975 0.84538 0.36072 0.0
C2235 C 0.16684 0.85666 0.33663 0.0
C2236 C 0.23819 0.89291 0.34682 0.0
C2237 C 0.15573 0.84914 0.33024 0.0
C2238 C 0.27873 0.90322 0.3735 0.0
C2239 C 0.26757 0.89547 0.36711 0.0
C2240 C 0.19624 0.85915 0.35691 0.0
C2241 C 0.19711 0.86306 0.33823 0.0
C2242 C 0.20773 0.86941 0.34521 0.0
C2243 C 0.2373 0.88908 0.36551 0.0
C2244 C 0.2267 0.88266 0.35853 0.0
H2245 H 0.22022 0.8546 0.32288 0.0
H2246 H 0.24001 0.86777 0.33419 0.0
H2247 H 0.1634 0.83391 0.34931 0.0
H2248 H 0.21433 0.8981 0.38083 0.0
H2249 H 0.19444 0.88453 0.36952 0.0
C2250 C 0.71602 0.86313 0.82648 0.0
C2251 C 0.72722 0.84238 0.82537 0.0
C2252 C 0.71314 0.87154 0.83294 0.0
C2253 C 0.74291 0.87299 0.84985 0.0
H2254 H 0.67212 0.88076 0.85542 0.0
C2255 C 0.71951 0.88921 0.8773 0.0
C2256 C 0.70833 0.90998 0.87841 0.0
C2257 C 0.72223 0.88063 0.87085 0.0
C2258 C 0.69224 0.87896 0.85394 0.0
H2259 H 0.74298 0.81334 0.83013 0.0
H2260 H 0.73745 0.82732 0.84118 0.0
H2261 H 0.67581 0.86796 0.84404 0.0
H2262 H 0.69236 0.93882 0.87364 0.0
H2263 H 0.69761 0.92458 0.8626 0.0
H2264 H 0.75936 0.88401 0.85975 0.0
C2265 C 0.73168 0.83792 0.83716 0.0
C2266 C 0.69437 0.87171 0.84739 0.0
C2267 C 0.73461 0.8297 0.83079 0.0
C2268 C 0.70073 0.92247 0.87298 0.0
C2269 C 0.7035 0.91409 0.86661 0.0
C2270 C 0.74079 0.88024 0.8564 0.0
C2271 C 0.72142 0.85932 0.83836 0.0
C2272 C 0.71968 0.86852 0.84526 0.0
C2273 C 0.71379 0.89271 0.86543 0.0
C2274 C 0.71548 0.88344 0.85853 0.0
H2275 H 0.71024 0.87332 0.8224 0.0
H2276 H 0.70517 0.88816 0.83368 0.0
H2277 H 0.76303 0.87119 0.84837 0.0
H2278 H 0.72547 0.87918 0.88139 0.0
H2279 H 0.73022 0.86404 0.87012 0.0
C2280 C 0.207 0.86773 0.8776 0.0
C2281 C 0.18361 0.83668 0.8788 0.0
C2282 C 0.21557 0.87845 0.87111 0.0
C2283 C 0.21132 0.8473 0.85422 0.0
H2284 H 0.2309 0.93001 0.84856 0.0
C2285 C 0.2299 0.88642 0.82667 0.0
C2286 C 0.25328 0.91747 0.82547 0.0
C2287 C 0.22141 0.8757 0.83317 0.0
C2288 C 0.22579 0.90687 0.85006 0.0
H2289 H 0.14979 0.79317 0.87419 0.0
H2290 H 0.16397 0.8118 0.86307 0.0
H2291 H 0.21712 0.91479 0.85998 0.0
H2292 H 0.28718 0.96098 0.83007 0.0
H2293 H 0.27314 0.94234 0.8412 0.0
H2294 H 0.21998 0.83938 0.8443 0.0
C2295 C 0.17655 0.82775 0.86703 0.0
C2296 C 0.21796 0.89821 0.85663 0.0
C2297 C 0.16823 0.81714 0.87344 0.0
C2298 C 0.26875 0.937 0.83082 0.0
C2299 C 0.26051 0.92639 0.83724 0.0
C2300 C 0.21915 0.85596 0.84765 0.0
C2301 C 0.20081 0.85827 0.86574 0.0
C2302 C 0.2105 0.86825 0.8588 0.0
C2303 C 0.23624 0.89589 0.83853 0.0
C2304 C 0.22661 0.88591 0.84547 0.0
H2305 H 0.21932 0.88324 0.88165 0.0
H2306 H 0.23439 0.90216 0.8703 0.0
H2307 H 0.20621 0.82417 0.85572 0.0
H2308 H 0.21751 0.87092 0.82263 0.0
H2309 H 0.20259 0.852 0.83399 0.0
C2310 C 0.20832 0.38656 0.82656 0.0
C2311 C 0.17865 0.36161 0.82492 0.0
C2312 C 0.21927 0.39004 0.83305 0.0
C2313 C 0.20443 0.3468 0.84896 0.0
H2314 H 0.24164 0.42926 0.85673 0.0
C2315 C 0.22723 0.36651 0.87705 0.0
C2316 C 0.25695 0.39137 0.87868 0.0
C2317 C 0.21638 0.36296 0.87054 0.0
C2318 C 0.23142 0.40605 0.85463 0.0
H2319 H 0.1379 0.32012 0.82868 0.0
H2320 H 0.15676 0.32601 0.83981 0.0
H2321 H 0.22886 0.42279 0.84508 0.0
H2322 H 0.29793 0.4326 0.87491 0.0
H2323 H 0.27923 0.42661 0.86377 0.0
H2324 H 0.20697 0.33007 0.85851 0.0
C2325 C 0.17181 0.34291 0.83619 0.0
C2326 C 0.22432 0.40241 0.84793 0.0
C2327 C 0.1609 0.33965 0.82978 0.0
C2328 C 0.27489 0.41315 0.87381 0.0
C2329 C 0.26407 0.40983 0.8674 0.0
C2330 C 0.21153 0.35044 0.85566 0.0
C2331 C 0.20087 0.3684 0.83797 0.0
C2332 C 0.21066 0.37272 0.845 0.0
C2333 C 0.23494 0.38446 0.86562 0.0
C2334 C 0.22518 0.38013 0.85859 0.0
H2335 H 0.22238 0.40392 0.82291 0.0
H2336 H 0.24193 0.40983 0.83424 0.0
H2337 H 0.19424 0.3236 0.84686 0.0
H2338 H 0.21301 0.3493 0.8807 0.0
H2339 H 0.19367 0.34326 0.86935 0.0
C2340 C 0.86801 0.74737 0.70745 0.0
C2341 C 0.86118 0.72396 0.71215 0.0
C2342 C 0.87576 0.7443 0.70104 0.0
C2343 C 0.86356 0.68447 0.6889 0.0
H2344 H 0.92417 0.75577 0.67877 0.0
C2345 C 0.90179 0.67227 0.66295 0.0
C2346 C 0.909 0.69573 0.65825 0.0
C2347 C 0.89418 0.67556 0.66936 0.0
C2348 C 0.90678 0.73574 0.68149 0.0
H2349 H 0.85808 0.67925 0.71387 0.0
H2350 H 0.87177 0.67362 0.70252 0.0
H2351 H 0.91819 0.76161 0.69046 0.0
H2352 H 0.91292 0.74079 0.65651 0.0
H2353 H 0.89936 0.74677 0.66785 0.0
H2354 H 0.85207 0.65861 0.67993 0.0
C2355 C 0.87098 0.69444 0.70385 0.0
C2356 C 0.9035 0.739 0.68822 0.0
C2357 C 0.86349 0.69775 0.71036 0.0
C2358 C 0.90721 0.72225 0.66003 0.0
C2359 C 0.89981 0.72575 0.66653 0.0
C2360 C 0.8668 0.68121 0.68217 0.0
C2361 C 0.87669 0.71753 0.69909 0.0
C2362 C 0.88182 0.71341 0.69202 0.0
C2363 C 0.89369 0.70258 0.67131 0.0
C2364 C 0.88852 0.70678 0.67837 0.0
H2365 H 0.86639 0.76787 0.70869 0.0
H2366 H 0.87961 0.76238 0.69754 0.0
H2367 H 0.84618 0.66444 0.69162 0.0
H2368 H 0.903 0.65154 0.66173 0.0
H2369 H 0.89006 0.65741 0.67287 0.0
C2370 C 0.38132 0.21939 0.6598 0.0
C2371 C 0.39055 0.25092 0.65867 0.0
C2372 C 0.37878 0.20825 0.66627 0.0
C2373 C 0.40724 0.23795 0.68315 0.0
H2374 H 0.34038 0.15709 0.68882 0.0
C2375 C 0.38608 0.19887 0.71068 0.0
C2376 C 0.37648 0.1673 0.71186 0.0
C2377 C 0.38839 0.20977 0.70419 0.0
C2378 C 0.35945 0.17967 0.68732 0.0
H2379 H 0.4027 0.29492 0.6634 0.0
H2380 H 0.39767 0.27561 0.67446 0.0
H2381 H 0.34269 0.17289 0.67742 0.0
H2382 H 0.3633 0.12289 0.7072 0.0
H2383 H 0.36802 0.14178 0.6961 0.0
H2384 H 0.42404 0.24473 0.69304 0.0
C2385 C 0.39332 0.25956 0.67046 0.0
C2386 C 0.36076 0.18866 0.68076 0.0
C2387 C 0.39594 0.27057 0.66408 0.0
C2388 C 0.37037 0.1473 0.70648 0.0
C2389 C 0.37281 0.15808 0.70008 0.0
C2390 C 0.40595 0.22895 0.68971 0.0
C2391 C 0.38541 0.22849 0.67167 0.0
C2392 C 0.38461 0.21798 0.67859 0.0
C2393 C 0.38121 0.18925 0.69882 0.0
C2394 C 0.38207 0.19965 0.69189 0.0
H2395 H 0.37713 0.20377 0.65572 0.0
H2396 H 0.37258 0.1841 0.66703 0.0
H2397 H 0.42627 0.26055 0.68165 0.0
H2398 H 0.39084 0.21477 0.71473 0.0
H2399 H 0.39494 0.23399 0.7034 0.0
C2400 C 0.8258 0.15613 0.66422 0.0
C2401 C 0.84389 0.17344 0.65882 0.0
C2402 C 0.83694 0.16433 0.67059 0.0
C2403 C 0.89105 0.23193 0.68049 0.0
H2404 H 0.87199 0.169 0.69388 0.0
C2405 C 0.94226 0.26259 0.70651 0.0
C2406 C 0.9242 0.24521 0.7119 0.0
C2407 C 0.9311 0.25444 0.70013 0.0
C2408 C 0.87703 0.18683 0.69023 0.0
H2409 H 0.8884 0.21255 0.65585 0.0
H2410 H 0.90833 0.22726 0.66713 0.0
H2411 H 0.85889 0.1532 0.68247 0.0
H2412 H 0.87973 0.20603 0.71487 0.0
H2413 H 0.85976 0.19142 0.70358 0.0
H2414 H 0.90919 0.26556 0.68824 0.0
C2415 C 0.88527 0.20723 0.66638 0.0
C2416 C 0.86974 0.17782 0.68367 0.0
C2417 C 0.87409 0.19869 0.65992 0.0
C2418 C 0.89401 0.21995 0.7108 0.0
C2419 C 0.88282 0.21147 0.70434 0.0
C2420 C 0.89834 0.24094 0.68705 0.0
C2421 C 0.86655 0.19032 0.67179 0.0
C2422 C 0.87659 0.20023 0.6787 0.0
C2423 C 0.90151 0.22843 0.69893 0.0
C2424 C 0.89148 0.21853 0.69201 0.0
H2425 H 0.80238 0.13651 0.66353 0.0
H2426 H 0.82167 0.15098 0.6746 0.0
H2427 H 0.89609 0.24976 0.67683 0.0
H2428 H 0.96567 0.28222 0.7072 0.0
H2429 H 0.94636 0.26784 0.69613 0.0
C2430 C 0.38701 0.22275 0.21069 0.0
C2431 C 0.37944 0.24632 0.2117 0.0
C2432 C 0.38992 0.21403 0.20426 0.0
C2433 C 0.40013 0.24159 0.18685 0.0
H2434 H 0.36013 0.15346 0.1826 0.0
C2435 C 0.38368 0.19707 0.15987 0.0
C2436 C 0.39169 0.17386 0.15879 0.0
C2437 C 0.38093 0.20565 0.16632 0.0
C2438 C 0.37158 0.17821 0.1837 0.0
H2439 H 0.3701 0.27991 0.20683 0.0
H2440 H 0.37515 0.26501 0.19583 0.0
H2441 H 0.36145 0.16947 0.19396 0.0
H2442 H 0.40197 0.14074 0.16357 0.0
H2443 H 0.39706 0.15533 0.17462 0.0
H2444 H 0.41018 0.25033 0.17659 0.0
C2445 C 0.37906 0.2532 0.19989 0.0
C2446 C 0.37252 0.18738 0.19023 0.0
C2447 C 0.37594 0.26161 0.20623 0.0
C2448 C 0.39578 0.15876 0.16423 0.0
C2449 C 0.39276 0.16699 0.1706 0.0
C2450 C 0.39914 0.23243 0.18032 0.0
C2451 C 0.38569 0.22906 0.19878 0.0
C2452 C 0.38673 0.2192 0.1919 0.0
C2453 C 0.38573 0.19081 0.17176 0.0
C2454 C 0.38488 0.20061 0.17865 0.0
H2455 H 0.38965 0.21047 0.21482 0.0
H2456 H 0.39526 0.19544 0.20358 0.0
H2457 H 0.41162 0.26635 0.18794 0.0
H2458 H 0.38057 0.2092 0.15577 0.0
H2459 H 0.37527 0.22399 0.16704 0.0
C2460 C 0.89017 0.21888 0.16026 0.0
C2461 C 0.92161 0.23928 0.1586 0.0
C2462 C 0.88141 0.21099 0.16685 0.0
C2463 C 0.91465 0.21457 0.18362 0.0
H2464 H 0.83709 0.20838 0.1895 0.0
C2465 C 0.88179 0.20356 0.2112 0.0
C2466 C 0.85202 0.17807 0.21254 0.0
C2467 C 0.89036 0.21406 0.2047 0.0
C2468 C 0.85886 0.21009 0.18793 0.0
H2469 H 0.96858 0.2663 0.1625 0.0
H2470 H 0.9535 0.25325 0.17385 0.0
H2471 H 0.85122 0.21749 0.17792 0.0
H2472 H 0.80738 0.14473 0.20831 0.0
H2473 H 0.8218 0.16353 0.19712 0.0
H2474 H 0.92233 0.20744 0.19365 0.0
C2475 C 0.93545 0.24283 0.17015 0.0
C2476 C 0.86684 0.21499 0.18127 0.0
C2477 C 0.94413 0.25051 0.16361 0.0
C2478 C 0.83043 0.16462 0.2074 0.0
C2479 C 0.83869 0.17541 0.20099 0.0
C2480 C 0.90682 0.21001 0.19028 0.0
C2481 C 0.90392 0.22338 0.17191 0.0
C2482 C 0.89482 0.21718 0.179 0.0
C2483 C 0.86905 0.19958 0.19951 0.0
C2484 C 0.87874 0.20751 0.19252 0.0
H2485 H 0.87228 0.2099 0.15651 0.0
H2486 H 0.85695 0.19549 0.16799 0.0
H2487 H 0.93612 0.21555 0.18208 0.0
H2488 H 0.89899 0.21397 0.21507 0.0
H2489 H 0.9139 0.23288 0.20372 0.0
C2490 C 0.8763 0.72045 0.15981 0.0
C2491 C 0.84695 0.69501 0.15817 0.0
C2492 C 0.88731 0.72416 0.16631 0.0
C2493 C 0.87345 0.68116 0.18223 0.0
H2494 H 0.9082 0.76343 0.19 0.0
C2495 C 0.89504 0.7011 0.21034 0.0
C2496 C 0.92433 0.72654 0.21203 0.0
C2497 C 0.88435 0.69732 0.20382 0.0
C2498 C 0.89869 0.74029 0.1879 0.0
H2499 H 0.80689 0.65287 0.16191 0.0
H2500 H 0.82587 0.6591 0.17304 0.0
H2501 H 0.89577 0.75665 0.17834 0.0
H2502 H 0.96463 0.76857 0.20832 0.0
H2503 H 0.94617 0.76221 0.19714 0.0
H2504 H 0.87632 0.6648 0.1918 0.0
C2505 C 0.84063 0.67624 0.16942 0.0
C2506 C 0.89178 0.73647 0.18119 0.0
C2507 C 0.82964 0.67276 0.16302 0.0
C2508 C 0.94193 0.74868 0.20718 0.0
C2509 C 0.93124 0.74513 0.20075 0.0
C2510 C 0.88034 0.68498 0.18894 0.0
C2511 C 0.86929 0.70225 0.17122 0.0
C2512 C 0.87899 0.70684 0.17826 0.0
C2513 C 0.90261 0.71916 0.19892 0.0
C2514 C 0.8931 0.7146 0.19187 0.0
H2515 H 0.89 0.73806 0.15618 0.0
H2516 H 0.90966 0.74437 0.16751 0.0
H2517 H 0.86393 0.65802 0.18014 0.0
H2518 H 0.88111 0.68359 0.21398 0.0
H2519 H 0.86201 0.67715 0.2026 0.0
C2520 C 0.5381 0.85386 0.06042 0.0
C2521 C 0.56227 0.88464 0.06162 0.0
C2522 C 0.54437 0.82912 0.06009 0.0
C2523 C 0.60212 0.80588 0.06521 0.0
H2524 H 0.56113 0.74151 0.05204 0.0
C2525 C 0.62777 0.7031 0.06234 0.0
C2526 C 0.60165 0.67341 0.06116 0.0
C2527 C 0.62509 0.73017 0.06203 0.0
C2528 C 0.5726 0.75909 0.0558 0.0
H2529 H 0.61202 0.91319 0.06353 0.0
H2530 H 0.62291 0.87021 0.0629 0.0
H2531 H 0.55167 0.78542 0.05235 0.0
H2532 H 0.55228 0.6493 0.05861 0.0
H2533 H 0.54768 0.69575 0.05816 0.0
H2534 H 0.62264 0.77924 0.06873 0.0
C2535 C 0.59907 0.86516 0.06222 0.0
C2536 C 0.56713 0.78433 0.05597 0.0
C2537 C 0.59285 0.88991 0.06251 0.0
C2538 C 0.57305 0.67163 0.05954 0.0
C2539 C 0.5704 0.69848 0.05923 0.0
C2540 C 0.60748 0.78051 0.06506 0.0
C2541 C 0.57494 0.83441 0.06101 0.0
C2542 C 0.58156 0.80795 0.06072 0.0
C2543 C 0.59626 0.72819 0.0605 0.0
C2544 C 0.59252 0.75653 0.06039 0.0
H2545 H 0.51432 0.84891 0.05968 0.0
H2546 H 0.52511 0.80571 0.05921 0.0
H2547 H 0.61344 0.82346 0.06897 0.0
H2548 H 0.65014 0.70542 0.06361 0.0
H2549 H 0.64563 0.75265 0.06298 0.0
C2550 C 0.24427 0.71988 0.06038 0.0
C2551 C 0.2135 0.71323 0.06163 0.0
C2552 C 0.26893 0.7509 0.05996 0.0
C2553 C 0.29209 0.83197 0.06493 0.0
H2554 H 0.35592 0.8552 0.0516 0.0
C2555 C 0.3942 0.96044 0.06188 0.0
C2556 C 0.42396 0.96421 0.06065 0.0
C2557 C 0.36723 0.93064 0.06157 0.0
C2558 C 0.3385 0.84915 0.0554 0.0
H2559 H 0.18487 0.73435 0.06354 0.0
H2560 H 0.22771 0.78825 0.06276 0.0
H2561 H 0.3122 0.80174 0.05206 0.0
H2562 H 0.44827 0.93932 0.05796 0.0
H2563 H 0.40196 0.88813 0.05751 0.0
H2564 H 0.31868 0.87924 0.06835 0.0
C2565 C 0.23282 0.76948 0.0621 0.0
C2566 C 0.31337 0.81838 0.05566 0.0
C2567 C 0.20815 0.7385 0.06248 0.0
C2568 C 0.42587 0.93758 0.05894 0.0
C2569 C 0.3991 0.908 0.05863 0.0
C2570 C 0.31735 0.86275 0.0647 0.0
C2571 C 0.26357 0.77615 0.06083 0.0
C2572 C 0.28993 0.80926 0.06046 0.0
C2573 C 0.36936 0.90392 0.06 0.0
C2574 C 0.34114 0.87174 0.05997 0.0
H2575 H 0.24928 0.70107 0.05967 0.0
H2576 H 0.29234 0.7551 0.05904 0.0
H2577 H 0.27466 0.82577 0.06873 0.0
H2578 H 0.39177 0.98034 0.06322 0.0
H2579 H 0.34472 0.92855 0.06258 0.0
C2580 C 0.13687 0.46896 0.06291 0.0
C2581 C 0.13289 0.49434 0.06116 0.0
C2582 C 0.16657 0.47159 0.06258 0.0
C2583 C 0.24633 0.5204 0.05535 0.0
H2584 H 0.27319 0.48866 0.06983 0.0
C2585 C 0.36865 0.53029 0.05581 0.0
C2586 C 0.38462 0.53767 0.06184 0.0
C2587 C 0.33735 0.52308 0.05547 0.0
C2588 C 0.26616 0.49784 0.06576 0.0
H2589 H 0.15714 0.5421 0.0575 0.0
H2590 H 0.20824 0.5466 0.05696 0.0
H2591 H 0.21964 0.47902 0.06955 0.0
H2592 H 0.37965 0.54284 0.07225 0.0
H2593 H 0.32557 0.53112 0.07163 0.0
H2594 H 0.29304 0.5401 0.05165 0.0
C2595 C 0.18859 0.52454 0.05854 0.0
C2596 C 0.23524 0.49191 0.06555 0.0
C2597 C 0.15912 0.52198 0.05889 0.0
C2598 C 0.36838 0.53775 0.0675 0.0
C2599 C 0.3371 0.53052 0.06716 0.0
C2600 C 0.27719 0.5263 0.05555 0.0
C2601 C 0.19289 0.49957 0.06044 0.0
C2602 C 0.225 0.50348 0.06039 0.0
C2603 C 0.32107 0.52297 0.06114 0.0
C2604 C 0.28769 0.51544 0.06079 0.0
H2605 H 0.11725 0.44736 0.06469 0.0
H2606 H 0.16892 0.45175 0.06402 0.0
H2607 H 0.23925 0.52936 0.05124 0.0
H2608 H 0.38037 0.53019 0.05133 0.0
H2609 H 0.32579 0.51716 0.05075 0.0
C2610 C 0.8588 0.52546 0.47683 0.0
C2611 C 0.8898 0.54966 0.47584 0.0
C2612 C 0.83414 0.53188 0.47712 0.0
C2613 C 0.8121 0.59086 0.47223 0.0
H2614 H 0.74544 0.54755 0.48488 0.0
C2615 C 0.70889 0.6162 0.47481 0.0
C2616 C 0.67899 0.58988 0.47569 0.0
C2617 C 0.73589 0.61343 0.47522 0.0
C2618 C 0.76367 0.55969 0.48127 0.0
H2619 H 0.91884 0.59966 0.47427 0.0
H2620 H 0.87601 0.61081 0.47484 0.0
H2621 H 0.78931 0.538 0.4847 0.0
H2622 H 0.65443 0.54005 0.47784 0.0
H2623 H 0.70078 0.53531 0.47847 0.0
H2624 H 0.78615 0.61217 0.46872 0.0
C2625 C 0.87072 0.58682 0.47538 0.0
C2626 C 0.7889 0.55417 0.48117 0.0
C2627 C 0.89538 0.58044 0.47513 0.0
C2628 C 0.67692 0.56097 0.47713 0.0
C2629 C 0.70371 0.55823 0.47755 0.0
C2630 C 0.78675 0.5963 0.47231 0.0
C2631 C 0.83973 0.56265 0.47638 0.0
C2632 C 0.81334 0.56942 0.47661 0.0
C2633 C 0.73363 0.5843 0.47656 0.0
C2634 C 0.76194 0.5805 0.47678 0.0
H2635 H 0.85358 0.50152 0.47742 0.0
H2636 H 0.81057 0.51259 0.47782 0.0
H2637 H 0.83031 0.60284 0.4686 0.0
H2638 H 0.71145 0.63881 0.47368 0.0
H2639 H 0.75854 0.63412 0.4745 0.0
C2640 C 0.52464 0.14719 0.47931 0.0
C2641 C 0.49881 0.1216 0.47634 0.0
C2642 C 0.52698 0.17662 0.47954 0.0
C2643 C 0.50188 0.22512 0.47071 0.0
H2644 H 0.53364 0.27897 0.48593 0.0
C2645 C 0.51443 0.34815 0.4708 0.0
C2646 C 0.54007 0.37254 0.47408 0.0
C2647 C 0.50762 0.31711 0.47142 0.0
C2648 C 0.52514 0.26448 0.4816 0.0
H2649 H 0.45476 0.10689 0.4714 0.0
H2650 H 0.45897 0.15856 0.47176 0.0
H2651 H 0.52411 0.22552 0.48651 0.0
H2652 H 0.57859 0.3832 0.48064 0.0
H2653 H 0.5673 0.32917 0.48162 0.0
H2654 H 0.50379 0.26413 0.46571 0.0
C2655 C 0.47744 0.1557 0.47391 0.0
C2656 C 0.51949 0.23369 0.48195 0.0
C2657 C 0.47488 0.12602 0.47376 0.0
C2658 C 0.55855 0.36497 0.47808 0.0
C2659 C 0.55193 0.33388 0.47865 0.0
C2660 C 0.50781 0.25598 0.47033 0.0
C2661 C 0.50374 0.18147 0.47674 0.0
C2662 C 0.50791 0.21363 0.4765 0.0
C2663 C 0.52642 0.30944 0.4753 0.0
C2664 C 0.51964 0.27624 0.47576 0.0
H2665 H 0.54351 0.14467 0.48136 0.0
H2666 H 0.54767 0.19591 0.48171 0.0
H2667 H 0.49347 0.21054 0.46638 0.0
H2668 H 0.49932 0.35303 0.46778 0.0
H2669 H 0.48735 0.29909 0.46889 0.0
C2670 C 0.96665 0.38322 0.4735 0.0
C2671 C 0.97185 0.41128 0.47638 0.0
C2672 C 0.93681 0.35638 0.47367 0.0
C2673 C 0.86007 0.31989 0.48223 0.0
H2674 H 0.82699 0.27717 0.46575 0.0
C2675 C 0.72804 0.22921 0.47884 0.0
C2676 C 0.71975 0.20409 0.47453 0.0
C2677 C 0.75928 0.25338 0.47935 0.0
C2678 C 0.83588 0.28835 0.47043 0.0
H2679 H 0.95002 0.43262 0.48197 0.0
H2680 H 0.89846 0.38593 0.48236 0.0
H2681 H 0.88085 0.31991 0.46632 0.0
H2682 H 0.73805 0.18399 0.4676 0.0
H2683 H 0.79228 0.22534 0.46862 0.0
H2684 H 0.81528 0.28826 0.48638 0.0
C2685 C 0.91728 0.3846 0.47994 0.0
C2686 C 0.86688 0.31298 0.47075 0.0
C2687 C 0.94688 0.41145 0.47968 0.0
C2688 C 0.74353 0.20332 0.47088 0.0
C2689 C 0.77472 0.2272 0.47145 0.0
C2690 C 0.82914 0.29502 0.48194 0.0
C2691 C 0.91166 0.35688 0.47683 0.0
C2692 C 0.87932 0.32925 0.47663 0.0
C2693 C 0.78312 0.25284 0.47563 0.0
C2694 C 0.81644 0.27898 0.47602 0.0
H2695 H 0.98528 0.38231 0.47089 0.0
H2696 H 0.93332 0.3353 0.47128 0.0
H2697 H 0.869 0.33174 0.48686 0.0
H2698 H 0.71025 0.23058 0.48169 0.0
H2699 H 0.76457 0.27283 0.48257 0.0
C2700 C 0.47385 0.38206 0.9746 0.0
C2701 C 0.50005 0.41184 0.97566 0.0
C2702 C 0.47657 0.35502 0.97498 0.0
C2703 C 0.52946 0.32674 0.98126 0.0
H2704 H 0.48861 0.26157 0.96825 0.0
C2705 C 0.56538 0.23303 0.97675 0.0
C2706 C 0.54149 0.20207 0.97561 0.0
C2707 C 0.55864 0.25746 0.97706 0.0
C2708 C 0.49993 0.27938 0.97197 0.0
H2709 H 0.54959 0.43617 0.97806 0.0
H2710 H 0.55425 0.38979 0.97863 0.0
H2711 H 0.47896 0.30553 0.96839 0.0
H2712 H 0.49173 0.17282 0.9738 0.0
H2713 H 0.48001 0.21526 0.97441 0.0
H2714 H 0.55085 0.30093 0.98476 0.0
C2715 C 0.53145 0.38696 0.9776 0.0
C2716 C 0.49431 0.30459 0.97206 0.0
C2717 C 0.52876 0.41377 0.97722 0.0
C2718 C 0.51069 0.19626 0.97477 0.0
C2719 C 0.504 0.2207 0.97505 0.0
C2720 C 0.53518 0.30167 0.98114 0.0
C2721 C 0.50552 0.35716 0.97646 0.0
C2722 C 0.50932 0.32888 0.97666 0.0
C2723 C 0.52786 0.25165 0.9762 0.0
C2724 C 0.52078 0.27779 0.97645 0.0
H2725 H 0.45139 0.37963 0.97338 0.0
H2726 H 0.45599 0.33245 0.97413 0.0
H2727 H 0.54096 0.34457 0.98497 0.0
H2728 H 0.58931 0.2384 0.97744 0.0
H2729 H 0.57769 0.28103 0.97789 0.0
C2730 C 0.88733 0.35426 0.97903 0.0
C2731 C 0.88419 0.37588 0.97505 0.0
C2732 C 0.86301 0.3231 0.97955 0.0
C2733 C 0.77738 0.27183 0.97647 0.0
H2734 H 0.79645 0.20472 0.97771 0.0
C2735 C 0.67883 0.14514 0.98054 0.0
C2736 C 0.67999 0.12115 0.97707 0.0
C2737 C 0.70481 0.1753 0.98079 0.0
C2738 C 0.79064 0.22311 0.97732 0.0
H2739 H 0.85225 0.38128 0.9686 0.0
H2740 H 0.81055 0.32714 0.96933 0.0
H2741 H 0.83897 0.25886 0.97698 0.0
H2742 H 0.70994 0.10991 0.97132 0.0
H2743 H 0.75535 0.16287 0.97165 0.0
H2744 H 0.7292 0.2363 0.97654 0.0
C2745 C 0.83163 0.33426 0.97215 0.0
C2746 C 0.81511 0.25431 0.97699 0.0
C2747 C 0.85584 0.3654 0.97166 0.0
C2748 C 0.70834 0.12779 0.97408 0.0
C2749 C 0.73439 0.15823 0.97427 0.0
C2750 C 0.75301 0.24075 0.97676 0.0
C2751 C 0.83482 0.31255 0.97608 0.0
C2752 C 0.80885 0.27918 0.97654 0.0
C2753 C 0.73273 0.18264 0.9775 0.0
C2754 C 0.75918 0.21584 0.97721 0.0
H2755 H 0.90886 0.36119 0.98166 0.0
H2756 H 0.86631 0.30732 0.98269 0.0
H2757 H 0.77143 0.29016 0.97622 0.0
H2758 H 0.65748 0.1408 0.98296 0.0
H2759 H 0.70275 0.19304 0.9835 0.0
C2760 C 0.72661 0.5345 0.97819 0.0
C2761 C 0.71846 0.552 0.97402 0.0
C2762 C 0.75782 0.54142 0.97869 0.0
C2763 C 0.83495 0.58434 0.96996 0.0
H2764 H 0.86702 0.57123 0.98625 0.0
C2765 C 0.96547 0.61836 0.97314 0.0
C2766 C 0.97017 0.59497 0.97593 0.0
C2767 C 0.93573 0.6157 0.97328 0.0
C2768 C 0.8584 0.57495 0.98166 0.0
H2769 H 0.73709 0.5914 0.96733 0.0
H2770 H 0.79126 0.60395 0.96831 0.0
H2771 H 0.81344 0.56134 0.98577 0.0
H2772 H 0.94752 0.55116 0.98131 0.0
H2773 H 0.89623 0.54686 0.98164 0.0
H2774 H 0.88011 0.59816 0.96588 0.0
C2775 C 0.77358 0.58416 0.97104 0.0
C2776 C 0.82753 0.56909 0.98136 0.0
C2777 C 0.74241 0.57702 0.97049 0.0
C2778 C 0.94479 0.56961 0.97909 0.0
C2779 C 0.91532 0.56718 0.97931 0.0
C2780 C 0.86591 0.59049 0.97028 0.0
C2781 C 0.78183 0.56631 0.97509 0.0
C2782 C 0.81516 0.57341 0.97549 0.0
C2783 C 0.91019 0.58987 0.97631 0.0
C2784 C 0.87797 0.58559 0.97611 0.0
H2785 H 0.70873 0.51495 0.98094 0.0
H2786 H 0.76296 0.52676 0.98179 0.0
H2787 H 0.82635 0.58745 0.9653 0.0
H2788 H 0.98443 0.6381 0.97063 0.0
H2789 H 0.93265 0.63373 0.97096 0.0
C2790 C 0.39323 0.46885 0.56176 0.0
C2791 C 0.42301 0.49504 0.56067 0.0
C2792 C 0.36616 0.47149 0.56133 0.0
C2793 C 0.33768 0.52423 0.555 0.0
H2794 H 0.27283 0.48354 0.56813 0.0
C2795 C 0.24391 0.56006 0.55964 0.0
C2796 C 0.21298 0.53614 0.56083 0.0
C2797 C 0.26837 0.55338 0.55929 0.0
C2798 C 0.29054 0.49481 0.56438 0.0
H2799 H 0.44729 0.54442 0.55811 0.0
H2800 H 0.40084 0.54897 0.55746 0.0
H2801 H 0.3168 0.47393 0.56792 0.0
H2802 H 0.18384 0.4864 0.56269 0.0
H2803 H 0.22635 0.47478 0.56203 0.0
H2804 H 0.31176 0.54557 0.55153 0.0
C2805 C 0.39803 0.52624 0.55856 0.0
C2806 C 0.31577 0.48921 0.56425 0.0
C2807 C 0.42488 0.52362 0.55899 0.0
C2808 C 0.20725 0.50538 0.56168 0.0
C2809 C 0.23172 0.49874 0.56137 0.0
C2810 C 0.31259 0.52994 0.55515 0.0
C2811 C 0.36825 0.50035 0.55978 0.0
C2812 C 0.33994 0.50415 0.5596 0.0
C2813 C 0.26264 0.52263 0.56017 0.0
C2814 C 0.28882 0.51559 0.55988 0.0
H2815 H 0.39085 0.44649 0.56307 0.0
H2816 H 0.34362 0.45094 0.56223 0.0
H2817 H 0.35541 0.53569 0.55126 0.0
H2818 H 0.24921 0.58397 0.55894 0.0
H2819 H 0.29191 0.57245 0.55843 0.0
C2820 C 0.58741 0.73779 0.56613 0.0
C2821 C 0.5619 0.71357 0.56279 0.0
C2822 C 0.59444 0.76889 0.56551 0.0
C2823 C 0.57782 0.82205 0.55529 0.0
H2824 H 0.60883 0.87551 0.57058 0.0
C2825 C 0.57857 0.93944 0.55764 0.0
C2826 C 0.60435 0.9649 0.56065 0.0
C2827 C 0.57615 0.90997 0.55739 0.0
C2828 C 0.60061 0.86106 0.56624 0.0
H2829 H 0.52388 0.70326 0.55611 0.0
H2830 H 0.53553 0.75742 0.55514 0.0
H2831 H 0.59826 0.82182 0.57123 0.0
H2832 H 0.64821 0.97937 0.56565 0.0
H2833 H 0.64384 0.92762 0.56527 0.0
H2834 H 0.57926 0.86123 0.55039 0.0
C2835 C 0.55063 0.75253 0.55816 0.0
C2836 C 0.59454 0.83014 0.5666 0.0
C2837 C 0.54381 0.72136 0.55872 0.0
C2838 C 0.62815 0.96033 0.56326 0.0
C2839 C 0.62549 0.93062 0.56309 0.0
C2840 C 0.5836 0.85289 0.55496 0.0
C2841 C 0.57598 0.7768 0.56158 0.0
C2842 C 0.58294 0.81006 0.56113 0.0
C2843 C 0.59924 0.90497 0.56022 0.0
C2844 C 0.59495 0.87277 0.56043 0.0
H2845 H 0.60222 0.73271 0.56921 0.0
H2846 H 0.6146 0.78678 0.5681 0.0
H2847 H 0.56951 0.8077 0.55094 0.0
H2848 H 0.55981 0.94208 0.55557 0.0
H2849 H 0.55551 0.89078 0.55518 0.0
C2850 C 0.37521 0.85766 0.55814 0.0
C2851 C 0.38352 0.88271 0.56248 0.0
C2852 C 0.34397 0.8335 0.55762 0.0
C2853 C 0.26741 0.79837 0.56656 0.0
H2854 H 0.23423 0.75525 0.55011 0.0
C2855 C 0.13666 0.70343 0.5635 0.0
C2856 C 0.13148 0.67543 0.56059 0.0
C2857 C 0.16648 0.7303 0.56332 0.0
C2858 C 0.24317 0.76702 0.55475 0.0
H2859 H 0.36525 0.90269 0.56943 0.0
H2860 H 0.31101 0.86136 0.56841 0.0
H2861 H 0.28794 0.79873 0.5506 0.0
H2862 H 0.15332 0.65423 0.55495 0.0
H2863 H 0.20484 0.70098 0.55456 0.0
H2864 H 0.22246 0.76672 0.57067 0.0
C2865 C 0.32856 0.85955 0.56557 0.0
C2866 C 0.2741 0.7919 0.55504 0.0
C2867 C 0.35975 0.88341 0.56614 0.0
C2868 C 0.15644 0.67535 0.55726 0.0
C2869 C 0.18602 0.70224 0.55701 0.0
C2870 C 0.2364 0.77373 0.56624 0.0
C2871 C 0.32014 0.83398 0.56136 0.0
C2872 C 0.28682 0.80784 0.56097 0.0
C2873 C 0.19162 0.7299 0.56014 0.0
C2874 C 0.22395 0.75755 0.56035 0.0
H2875 H 0.39299 0.85634 0.55528 0.0
H2876 H 0.33867 0.81411 0.55439 0.0
H2877 H 0.27631 0.80947 0.57125 0.0
H2878 H 0.11803 0.70426 0.56613 0.0
H2879 H 0.16995 0.75133 0.56574 0.0
C2880 C 0.24396 1.00756 0.39118 0.0
C2881 C 0.27004 1.00813 0.39412 0.0
C2882 C 0.2413 0.03448 0.39094 0.0
C2883 C 0.26599 0.1081 0.39967 0.0
H2884 H 0.2341 0.12983 0.38439 0.0
C2885 C 0.25298 0.21828 0.39945 0.0
C2886 C 0.22738 0.21698 0.39613 0.0
C2887 C 0.25989 0.19411 0.39886 0.0
C2888 C 0.24263 0.12394 0.38874 0.0
H2889 H 0.31417 0.03786 0.39899 0.0
H2890 H 0.30939 0.085 0.39862 0.0
H2891 H 0.24383 0.08603 0.38388 0.0
H2892 H 0.18906 0.18917 0.38954 0.0
H2893 H 0.20048 0.14649 0.38862 0.0
H2894 H 0.26389 0.14515 0.40462 0.0
C2895 C 0.29098 0.06355 0.3965 0.0
C2896 C 0.24839 0.09886 0.38843 0.0
C2897 C 0.29387 0.03663 0.39666 0.0
C2898 C 0.20906 0.19099 0.39213 0.0
C2899 C 0.21575 0.16655 0.39158 0.0
C2900 C 0.25993 0.13295 0.40001 0.0
C2901 C 0.26446 0.0627 0.3937 0.0
C2902 C 0.26005 0.09054 0.3939 0.0
C2903 C 0.24121 0.16765 0.39497 0.0
C2904 C 0.24806 0.14126 0.39456 0.0
H2905 H 0.22517 0.98606 0.38916 0.0
H2906 H 0.22046 0.03285 0.38879 0.0
H2907 H 0.27446 0.10203 0.40401 0.0
H2908 H 0.26797 0.23824 0.40248 0.0
H2909 H 0.28013 0.1964 0.40142 0.0
C2910 C 0.08924 0.27142 0.39202 0.0
C2911 C 0.08851 0.29732 0.39471 0.0
C2912 C 0.06237 0.24179 0.3919 0.0
C2913 C 0.98758 0.19392 0.4005 0.0
H2914 H 0.96833 0.13804 0.3857 0.0
C2915 C 0.87722 0.07043 0.40032 0.0
C2916 C 0.87919 0.04574 0.39735 0.0
C2917 C 0.90161 0.10144 0.39972 0.0
C2918 C 0.97352 0.15311 0.38992 0.0
H2919 H 0.05846 0.31225 0.39925 0.0
H2920 H 1.01137 0.26027 0.39906 0.0
H2921 H 1.01203 0.19153 0.38502 0.0
H2922 H 0.90867 0.03459 0.39142 0.0
H2923 H 0.95154 0.08853 0.39047 0.0
H2924 H 0.94972 0.15543 0.40548 0.0
C2925 C 0.03294 0.26304 0.39706 0.0
C2926 C 0.99856 0.18393 0.38951 0.0
C2927 C 0.05986 0.2929 0.39712 0.0
C2928 C 0.90623 0.053 0.39372 0.0
C2929 C 0.9308 0.08406 0.39317 0.0
C2930 C 0.96269 0.16302 0.40093 0.0
C2931 C 0.03395 0.23701 0.39452 0.0
C2932 C 1.00606 0.20474 0.3948 0.0
C2933 C 0.92893 0.1088 0.39617 0.0
C2934 C 0.9553 0.14203 0.39566 0.0
H2935 H 0.11084 0.27387 0.39011 0.0
H2936 H 0.06419 0.22235 0.38995 0.0
H2937 H 0.99294 0.20907 0.40471 0.0
H2938 H 0.85651 0.06585 0.40305 0.0
H2939 H 0.89879 0.11969 0.40199 0.0
C2940 C 0.80587 0.80685 0.39808 0.0
C2941 C 0.80037 0.82965 0.39527 0.0
C2942 C 0.83595 0.81035 0.39792 0.0
C2943 C 0.91963 0.87223 0.39548 0.0
H2944 H 0.93368 0.80184 0.39434 0.0
C2945 C 0.04359 0.88851 0.39214 0.0
C2946 C 0.05118 0.87045 0.39626 0.0
C2947 C 1.01268 0.8825 0.39172 0.0
C2948 C 0.93011 0.82174 0.39469 0.0
H2949 H 0.82169 0.87303 0.38975 0.0
H2950 H 0.87326 0.87849 0.38924 0.0
H2951 H 0.88025 0.79276 0.39412 0.0
H2952 H 0.03199 0.83111 0.40298 0.0
H2953 H 0.97821 0.82058 0.40224 0.0
H2954 H 0.96947 0.90119 0.39598 0.0
C2955 C 0.85496 0.85851 0.39181 0.0
C2956 C 0.89943 0.81653 0.3946 0.0
C2957 C 0.82518 0.85523 0.39206 0.0
C2958 C 0.02701 0.84573 0.39982 0.0
C2959 C 0.99611 0.83948 0.39934 0.0
C2960 C 0.95022 0.87743 0.39551 0.0
C2961 C 0.86108 0.83656 0.39486 0.0
C2962 C 0.89371 0.84173 0.39498 0.0
C2963 C 0.98858 0.85798 0.39535 0.0
C2964 C 0.95589 0.85228 0.39513 0.0
H2965 H 0.78726 0.78694 0.40062 0.0
H2966 H 0.83967 0.79301 0.40037 0.0
H2967 H 0.91636 0.89226 0.39596 0.0
H2968 H 0.06165 0.90775 0.38934 0.0
H2969 H 1.00762 0.89702 0.38855 0.0
C2970 C 0.37714 0.9487 0.80669 0.0
C2971 C 0.34905 0.92664 0.80971 0.0
C2972 C 0.40359 0.94497 0.80685 0.0
C2973 C 0.42502 0.88298 0.80965 0.0
H2974 H 0.50986 0.95304 0.80974 0.0
C2975 C 0.53315 0.86642 0.81219 0.0
C2976 C 0.55817 0.88394 0.80787 0.0
C2977 C 0.5083 0.87249 0.81273 0.0
C2978 C 0.48629 0.93321 0.80968 0.0
H2979 H 0.32738 0.88437 0.8156 0.0
H2980 H 0.37335 0.87857 0.8161 0.0
H2981 H 0.46591 0.96265 0.81023 0.0
H2982 H 0.57707 0.92233 0.80091 0.0
H2983 H 0.53392 0.93289 0.80186 0.0
H2984 H 0.44545 0.85358 0.80917 0.0
C2985 C 0.3749 0.89814 0.81338 0.0
C2986 C 0.46101 0.93872 0.80994 0.0
C2987 C 0.3485 0.90165 0.81315 0.0
C2988 C 0.55801 0.9081 0.80422 0.0
C2989 C 0.5334 0.91439 0.80482 0.0
C2990 C 0.45025 0.87749 0.80946 0.0
C2991 C 0.40267 0.91925 0.8101 0.0
C2992 C 0.42993 0.91368 0.80992 0.0
C2993 C 0.50807 0.89652 0.80903 0.0
C2994 C 0.48124 0.90251 0.80945 0.0
H2995 H 0.3783 0.96808 0.80396 0.0
H2996 H 0.42436 0.96166 0.80422 0.0
H2997 H 0.40157 0.863 0.80947 0.0
H2998 H 0.53248 0.84761 0.81505 0.0
H2999 H 0.4893 0.85843 0.81606 0.0
C3000 C 0.17867 0.68202 0.80824 0.0
C3001 C 0.20939 0.70705 0.80912 0.0
C3002 C 0.17204 0.65092 0.80855 0.0
C3003 C 0.20309 0.60125 0.81485 0.0
H3004 H 0.14754 0.5411 0.80205 0.0
C3005 C 0.19719 0.48285 0.81108 0.0
C3006 C 0.16867 0.45609 0.80942 0.0
C3007 C 0.19973 0.51228 0.81148 0.0
C3008 C 0.16269 0.55739 0.80574 0.0
H3009 H 0.25715 0.71864 0.81108 0.0
H3010 H 0.24565 0.66444 0.81159 0.0
H3011 H 0.15707 0.59466 0.80183 0.0
H3012 H 0.12013 0.43959 0.807 0.0
H3013 H 0.12444 0.49122 0.80777 0.0
H3014 H 0.20879 0.56418 0.81877 0.0
C3015 C 0.2266 0.6689 0.8107 0.0
C3016 C 0.16825 0.58821 0.80559 0.0
C3017 C 0.23327 0.70004 0.81034 0.0
C3018 C 0.14245 0.4596 0.8083 0.0
C3019 C 0.14501 0.48929 0.80869 0.0
C3020 C 0.19743 0.57046 0.81501 0.0
C3021 C 0.19589 0.64389 0.80979 0.0
C3022 C 0.18887 0.61068 0.8101 0.0
C3023 C 0.17381 0.5161 0.81025 0.0
C3024 C 0.17752 0.54816 0.8104 0.0
H3025 H 0.15971 0.68645 0.8072 0.0
H3026 H 0.1481 0.63233 0.80787 0.0
H3027 H 0.21859 0.61767 0.81848 0.0
H3028 H 0.21801 0.4813 0.81199 0.0
H3029 H 0.22242 0.53224 0.81257 0.0
C3030 C 0.6341 0.71806 0.80622 0.0
C3031 C 0.63886 0.74645 0.80885 0.0
C3032 C 0.60425 0.69114 0.80636 0.0
C3033 C 0.52671 0.6556 0.8146 0.0
H3034 H 0.49521 0.609 0.79847 0.0
C3035 C 0.39524 0.56277 0.81127 0.0
C3036 C 0.38744 0.53673 0.80727 0.0
C3037 C 0.42633 0.58737 0.81172 0.0
C3038 C 0.50366 0.62129 0.80306 0.0
H3039 H 0.61609 0.76834 0.8139 0.0
H3040 H 0.56459 0.72162 0.81422 0.0
H3041 H 0.54884 0.65234 0.79896 0.0
H3042 H 0.40655 0.51561 0.80082 0.0
H3043 H 0.46051 0.55775 0.80172 0.0
H3044 H 0.48176 0.6245 0.81875 0.0
C3045 C 0.58375 0.72005 0.81203 0.0
C3046 C 0.53453 0.64628 0.80333 0.0
C3047 C 0.61334 0.74694 0.81181 0.0
C3048 C 0.41161 0.53559 0.80385 0.0
C3049 C 0.44266 0.55993 0.80435 0.0
C3050 C 0.49592 0.6304 0.81436 0.0
C3051 C 0.57863 0.69189 0.80922 0.0
C3052 C 0.54641 0.66396 0.80908 0.0
C3053 C 0.45056 0.58642 0.80824 0.0
C3054 C 0.48377 0.61296 0.80857 0.0
H3055 H 0.65315 0.71686 0.80388 0.0
H3056 H 0.60118 0.66976 0.8042 0.0
H3057 H 0.53518 0.6685 0.81914 0.0
H3058 H 0.37718 0.56449 0.81394 0.0
H3059 H 0.4312 0.60744 0.81469 0.0
C3060 C 0.22336 0.56091 0.31169 0.0
C3061 C 0.20553 0.5352 0.30758 0.0
C3062 C 0.21664 0.58534 0.31221 0.0
C3063 C 0.17357 0.61967 0.30359 0.0
H3064 H 0.18771 0.66534 0.31983 0.0
C3065 C 0.13984 0.7163 0.30682 0.0
C3066 C 0.16338 0.74448 0.30954 0.0
C3067 C 0.14251 0.68923 0.30697 0.0
C3068 C 0.1837 0.65287 0.31525 0.0
H3069 H 0.16577 0.51446 0.30101 0.0
H3070 H 0.15356 0.5563 0.30202 0.0
H3071 H 0.19742 0.62153 0.31933 0.0
H3072 H 0.20746 0.7658 0.3148 0.0
H3073 H 0.21177 0.71881 0.31514 0.0
H3074 H 0.15963 0.65098 0.29955 0.0
C3075 C 0.17345 0.55837 0.30469 0.0
C3076 C 0.18946 0.62778 0.31494 0.0
C3077 C 0.18039 0.5342 0.30412 0.0
C3078 C 0.1889 0.74456 0.31264 0.0
C3079 C 0.19133 0.71752 0.31287 0.0
C3080 C 0.16752 0.64454 0.30392 0.0
C3081 C 0.19164 0.58453 0.30869 0.0
C3082 C 0.18474 0.61091 0.30909 0.0
C3083 C 0.1685 0.68962 0.30994 0.0
C3084 C 0.17277 0.66168 0.30974 0.0
H3085 H 0.24301 0.56252 0.31439 0.0
H3086 H 0.23154 0.60517 0.31527 0.0
H3087 H 0.17016 0.60782 0.29895 0.0
H3088 H 0.11998 0.71545 0.30436 0.0
H3089 H 0.12436 0.66805 0.30472 0.0
C3090 C 0.34289 0.48247 0.3109 0.0
C3091 C 0.34453 0.45553 0.30934 0.0
C3092 C 0.36987 0.51186 0.31123 0.0
C3093 C 0.45203 0.5561 0.30546 0.0
H3094 H 0.45705 0.61753 0.31797 0.0
C3095 C 0.56155 0.6801 0.30769 0.0
C3096 C 0.55629 0.70546 0.30846 0.0
C3097 C 0.5368 0.64918 0.30808 0.0
C3098 C 0.45593 0.60077 0.3144 0.0
H3099 H 0.37641 0.43866 0.30706 0.0
H3100 H 0.42385 0.49018 0.30773 0.0
H3101 H 0.41297 0.56426 0.31838 0.0
H3102 H 0.52059 0.71786 0.3103 0.0
H3103 H 0.47739 0.66394 0.31096 0.0
H3104 H 0.49508 0.59279 0.30149 0.0
C3105 C 0.40139 0.48844 0.30861 0.0
C3106 C 0.4306 0.57012 0.31464 0.0
C3107 C 0.3742 0.45882 0.30828 0.0
C3108 C 0.52554 0.69898 0.30965 0.0
C3109 C 0.50079 0.66802 0.31009 0.0
C3110 C 0.47748 0.58677 0.30525 0.0
C3111 C 0.39954 0.51543 0.31004 0.0
C3112 C 0.428 0.54741 0.31011 0.0
C3113 C 0.50606 0.64267 0.30929 0.0
C3114 C 0.47958 0.60964 0.30966 0.0
H3115 H 0.32057 0.48109 0.31176 0.0
H3116 H 0.36727 0.53197 0.31224 0.0
H3117 H 0.45073 0.53948 0.30184 0.0
H3118 H 0.58482 0.68412 0.30667 0.0
H3119 H 0.54183 0.63032 0.30749 0.0
C3120 C 0.40792 0.90553 0.30462 0.0
C3121 C 0.38342 0.88076 0.3081 0.0
C3122 C 0.43876 0.91167 0.3052 0.0
C3123 C 0.48446 0.87366 0.30925 0.0
H3124 H 0.55418 0.95842 0.31071 0.0
C3125 C 0.6102 0.89653 0.31244 0.0
C3126 C 0.63475 0.92242 0.30924 0.0
C3127 C 0.58028 0.89296 0.3128 0.0
C3128 C 0.53509 0.93461 0.31022 0.0
H3129 H 0.37233 0.84325 0.315 0.0
H3130 H 0.42627 0.85377 0.31598 0.0
H3131 H 0.50073 0.94916 0.3104 0.0
H3132 H 0.64714 0.96531 0.30402 0.0
H3133 H 0.59466 0.95876 0.30448 0.0
H3134 H 0.51847 0.85898 0.30886 0.0
C3135 C 0.42151 0.86843 0.31278 0.0
C3136 C 0.50437 0.9293 0.31007 0.0
C3137 C 0.39065 0.86252 0.31226 0.0
C3138 C 0.62881 0.9452 0.30657 0.0
C3139 C 0.59864 0.94141 0.30685 0.0
C3140 C 0.51512 0.87896 0.30933 0.0
C3141 C 0.44595 0.89303 0.30924 0.0
C3142 C 0.47866 0.89875 0.30959 0.0
C3143 C 0.57375 0.91492 0.30988 0.0
C3144 C 0.54098 0.90951 0.30983 0.0
H3145 H 0.40325 0.92028 0.30143 0.0
H3146 H 0.45691 0.93063 0.30237 0.0
H3147 H 0.46527 0.84988 0.30876 0.0
H3148 H 0.61398 0.87869 0.31463 0.0
H3149 H 0.56219 0.87273 0.31535 0.0
C3150 C 0.0895 0.85671 0.89306 0.0
C3151 C 0.08784 0.82827 0.89479 0.0
C3152 C 0.06258 0.85926 0.89273 0.0
C3153 C 0.98059 0.82226 0.89866 0.0
H3154 H 0.9752 0.87727 0.8858 0.0
C3155 C 0.87062 0.83588 0.896 0.0
C3156 C 0.87564 0.86631 0.89502 0.0
C3157 C 0.89554 0.82989 0.89576 0.0
C3158 C 0.97642 0.86204 0.88947 0.0
H3159 H 0.05596 0.77994 0.89741 0.0
H3160 H 1.00864 0.78425 0.89674 0.0
H3161 H 1.0193 0.86808 0.88553 0.0
H3162 H 0.91111 0.91426 0.89295 0.0
H3163 H 0.95459 0.90386 0.89255 0.0
H3164 H 0.93757 0.81624 0.90258 0.0
C3165 C 0.03107 0.80476 0.89572 0.0
C3166 C 1.00178 0.85672 0.88932 0.0
C3167 C 0.05819 0.80219 0.89605 0.0
C3168 C 0.90634 0.89058 0.89376 0.0
C3169 C 0.93126 0.88454 0.89348 0.0
C3170 C 0.9551 0.82746 0.89879 0.0
C3171 C 0.03293 0.83345 0.89409 0.0
C3172 C 1.00451 0.83709 0.89397 0.0
C3173 C 0.92622 0.85411 0.89449 0.0
C3174 C 0.95285 0.84771 0.89424 0.0
H3175 H 0.11179 0.87745 0.89206 0.0
H3176 H 0.06523 0.88189 0.89158 0.0
H3177 H 0.98198 0.80733 0.90238 0.0
H3178 H 0.84742 0.81665 0.89707 0.0
H3179 H 0.89068 0.80615 0.89651 0.0
C3180 C 0.23829 0.27107 0.89221 0.0
C3181 C 0.26663 0.29773 0.89402 0.0
C3182 C 0.2356 0.24153 0.89194 0.0
C3183 C 0.27174 0.19625 0.89821 0.0
H3184 H 0.2171 0.13553 0.8854 0.0
C3185 C 0.25712 0.07205 0.89606 0.0
C3186 C 0.22664 0.04677 0.89506 0.0
C3187 C 0.26341 0.10304 0.89569 0.0
C3188 C 0.23223 0.15207 0.88905 0.0
H3189 H 0.31469 0.31392 0.89681 0.0
H3190 H 0.31017 0.26219 0.89622 0.0
H3191 H 0.22675 0.18895 0.88494 0.0
H3192 H 0.17892 0.03463 0.89286 0.0
H3193 H 0.18983 0.08864 0.89225 0.0
H3194 H 0.2772 0.1592 0.90231 0.0
C3195 C 0.28982 0.26424 0.8951 0.0
C3196 C 0.23781 0.18283 0.88879 0.0
C3197 C 0.29253 0.294 0.89538 0.0
C3198 C 0.20263 0.05343 0.89368 0.0
C3199 C 0.20897 0.08446 0.89327 0.0
C3200 C 0.26628 0.16547 0.89845 0.0
C3201 C 0.26118 0.2375 0.89343 0.0
C3202 C 0.25731 0.20533 0.89342 0.0
C3203 C 0.23944 0.10973 0.89429 0.0
C3204 C 0.24615 0.14284 0.89392 0.0
H3205 H 0.21769 0.27276 0.89113 0.0
H3206 H 0.21302 0.22166 0.89074 0.0
H3207 H 0.28655 0.21265 0.90192 0.0
H3208 H 0.27616 0.06792 0.89722 0.0
H3209 H 0.28718 0.12181 0.89645 0.0
C3210 C 0.82437 1.00304 0.89311 0.0
C3211 C 0.79762 1.00511 0.89463 0.0
C3212 C 0.854 0.02977 0.89281 0.0
C3213 C 0.8991 0.11217 0.89846 0.0
H3214 H 0.96005 0.11629 0.8859 0.0
C3215 C 1.02293 0.22168 0.89575 0.0
C3216 C 0.04835 0.21652 0.89493 0.0
C3217 C 0.99202 0.1968 0.8955 0.0
C3218 C 0.94345 0.11542 0.88948 0.0
H3219 H 0.7814 0.03749 0.89693 0.0
H3220 H 0.83329 0.08445 0.89631 0.0
H3221 H 0.90673 0.07229 0.88565 0.0
H3222 H 0.06081 0.18084 0.89313 0.0
H3223 H 1.00694 0.13743 0.89273 0.0
H3224 H 0.93598 0.15543 0.90228 0.0
C3225 C 0.83123 0.06186 0.89543 0.0
C3226 C 0.91275 0.09012 0.88934 0.0
C3227 C 0.80139 0.03494 0.89574 0.0
C3228 C 0.04191 0.18572 0.89382 0.0
C3229 C 1.01095 0.16084 0.89353 0.0
C3230 C 0.92982 0.13759 0.89858 0.0
C3231 C 0.85801 0.05961 0.89399 0.0
C3232 C 0.89017 0.08787 0.89388 0.0
C3233 C 0.98555 0.16601 0.89438 0.0
C3234 C 0.95252 0.13941 0.89414 0.0
H3235 H 0.82266 0.98058 0.89225 0.0
H3236 H 0.87393 0.02683 0.89181 0.0
H3237 H 0.88262 0.11115 0.90209 0.0
H3238 H 0.02691 0.24497 0.8967 0.0
H3239 H 0.97314 0.20176 0.89613 0.0
C3240 C 0.91151 0.34162 0.72489 0.0
C3241 C 0.93722 0.34181 0.72793 0.0
C3242 C 0.90912 0.36866 0.72465 0.0
C3243 C 0.93348 0.4419 0.73349 0.0
H3244 H 0.9029 0.46439 0.71811 0.0
C3245 C 0.92027 0.55195 0.73323 0.0
C3246 C 0.89476 0.55058 0.72986 0.0
C3247 C 0.92735 0.5279 0.73266 0.0
C3248 C 0.91107 0.45828 0.72249 0.0
H3249 H 0.98097 0.37099 0.73297 0.0
H3250 H 0.97666 0.41841 0.7326 0.0
H3251 H 0.91268 0.42062 0.71761 0.0
H3252 H 0.85679 0.52277 0.72319 0.0
H3253 H 0.86853 0.48031 0.72229 0.0
H3254 H 0.93097 0.47872 0.73845 0.0
C3255 C 0.95834 0.39714 0.73041 0.0
C3256 C 0.91686 0.43323 0.72218 0.0
C3257 C 0.96096 0.37006 0.73057 0.0
C3258 C 0.87671 0.52465 0.72582 0.0
C3259 C 0.88359 0.50034 0.72529 0.0
C3260 C 0.9274 0.46674 0.73382 0.0
C3261 C 0.93219 0.39666 0.7275 0.0
C3262 C 0.92799 0.42461 0.72769 0.0
C3263 C 0.90895 0.50152 0.72873 0.0
C3264 C 0.91597 0.47527 0.72833 0.0
H3265 H 0.8928 0.32031 0.72279 0.0
H3266 H 0.88855 0.36732 0.72243 0.0
H3267 H 0.94155 0.43559 0.73786 0.0
H3268 H 0.93505 0.57188 0.73629 0.0
H3269 H 0.9475 0.53021 0.73526 0.0
C3270 C 0.53952 0.40376 0.72885 0.0
C3271 C 0.54512 0.37862 0.72806 0.0
C3272 C 0.56409 0.43484 0.72853 0.0
C3273 C 0.64529 0.48416 0.72239 0.0
H3274 H 0.64913 0.54495 0.73493 0.0
C3275 C 0.75758 0.60298 0.72607 0.0
C3276 C 0.75571 0.62981 0.72762 0.0
C3277 C 0.73074 0.57349 0.72571 0.0
C3278 C 0.64822 0.52848 0.73131 0.0
H3279 H 0.5813 0.36684 0.72626 0.0
H3280 H 0.62415 0.42096 0.72574 0.0
H3281 H 0.60508 0.49143 0.73518 0.0
H3282 H 0.7235 0.6463 0.72988 0.0
H3283 H 0.67628 0.59457 0.72915 0.0
H3284 H 0.68831 0.52102 0.71851 0.0
C3285 C 0.60062 0.41662 0.72657 0.0
C3286 C 0.62294 0.49767 0.73147 0.0
C3287 C 0.57606 0.38551 0.72692 0.0
C3288 C 0.7259 0.62626 0.72866 0.0
C3289 C 0.69883 0.5965 0.7283 0.0
C3290 C 0.67044 0.51494 0.72221 0.0
C3291 C 0.59502 0.44175 0.72738 0.0
C3292 C 0.62132 0.47495 0.72707 0.0
C3293 C 0.70092 0.56963 0.72686 0.0
C3294 C 0.67259 0.5375 0.72673 0.0
H3295 H 0.51611 0.39945 0.72982 0.0
H3296 H 0.55878 0.45349 0.72914 0.0
H3297 H 0.64457 0.46756 0.71883 0.0
H3298 H 0.77999 0.60453 0.72524 0.0
H3299 H 0.73357 0.55351 0.7247 0.0
C3300 C 0.47111 0.13746 0.73054 0.0
C3301 C 0.46473 0.15909 0.72744 0.0
C3302 C 0.50135 0.14138 0.73034 0.0
C3303 C 0.58432 0.20359 0.72728 0.0
H3304 H 0.59994 0.13406 0.72753 0.0
C3305 C 0.70937 0.22112 0.72489 0.0
C3306 C 0.71714 0.20436 0.72935 0.0
C3307 C 0.67835 0.21463 0.72429 0.0
C3308 C 0.59595 0.15374 0.72749 0.0
H3309 H 0.48465 0.20071 0.72135 0.0
H3310 H 0.53655 0.20682 0.72078 0.0
H3311 H 0.54619 0.12388 0.72702 0.0
H3312 H 0.6981 0.16684 0.73651 0.0
H3313 H 0.64417 0.15552 0.73546 0.0
H3314 H 0.6341 0.23339 0.7277 0.0
C3315 C 0.51878 0.18747 0.72359 0.0
C3316 C 0.56507 0.14791 0.72723 0.0
C3317 C 0.48881 0.18378 0.72387 0.0
C3318 C 0.69302 0.18048 0.73308 0.0
C3319 C 0.66202 0.17376 0.73244 0.0
C3320 C 0.61514 0.20938 0.72748 0.0
C3321 C 0.52582 0.16685 0.72697 0.0
C3322 C 0.55875 0.17276 0.72713 0.0
C3323 C 0.65428 0.19091 0.72808 0.0
C3324 C 0.62139 0.18456 0.72762 0.0
H3325 H 0.45316 0.11832 0.73337 0.0
H3326 H 0.50576 0.12509 0.73304 0.0
H3327 H 0.58062 0.22343 0.72739 0.0
H3328 H 0.72737 0.23969 0.72195 0.0
H3329 H 0.67316 0.22813 0.72085 0.0
C3330 C 0.21167 0.21778 0.14773 0.0
C3331 C 0.22141 0.21155 0.14172 0.0
C3332 C 0.18745 0.22482 0.14797 0.0
C3333 C 0.1434 0.25193 0.13762 0.0
H3334 H 0.08156 0.21632 0.15147 0.0
C3335 C 0.04213 0.2798 0.14041 0.0
C3336 C 1.01249 0.25397 0.14179 0.0
C3337 C 0.06909 0.27698 0.14071 0.0
C3338 C 0.09858 0.22643 0.14755 0.0
H3339 H 0.21331 0.20834 0.13123 0.0
H3340 H 0.17078 0.21986 0.13167 0.0
H3341 H 0.12502 0.20614 0.15126 0.0
H3342 H 0.98823 0.20501 0.14466 0.0
H3343 H 0.03468 0.2002 0.14516 0.0
H3344 H 0.11635 0.27147 0.13381 0.0
C3345 C 0.18206 0.21963 0.13621 0.0
C3346 C 0.12374 0.22084 0.14747 0.0
C3347 C 0.2062 0.21252 0.13596 0.0
C3348 C 1.01058 0.2255 0.14357 0.0
C3349 C 0.03736 0.22275 0.1439 0.0
C3350 C 0.11824 0.25759 0.13771 0.0
C3351 C 0.17236 0.22594 0.14221 0.0
C3352 C 0.14633 0.23319 0.14246 0.0
C3353 C 0.067 0.24834 0.14245 0.0
C3354 C 0.09523 0.24455 0.14263 0.0
H3355 H 0.22266 0.21707 0.15227 0.0
H3356 H 0.18083 0.22978 0.15269 0.0
H3357 H 0.16056 0.26221 0.13373 0.0
H3358 H 0.04448 0.30205 0.13901 0.0
H3359 H 0.09157 0.29726 0.13961 0.0
C3360 C 0.84361 1.01376 0.1405 0.0
C3361 C 0.87435 0.03938 0.14079 0.0
C3362 C 0.83783 0.98293 0.14086 0.0
C3363 C 0.87315 0.93582 0.1464 0.0
H3364 H 0.81198 0.87212 0.13491 0.0
C3365 C 0.86603 0.8164 0.1432 0.0
C3366 C 0.83693 0.7892 0.14213 0.0
C3367 C 0.86868 0.84594 0.1434 0.0
C3368 C 0.82878 0.88942 0.13824 0.0
H3369 H 0.92309 0.05227 0.14171 0.0
H3370 H 0.91306 0.99855 0.14231 0.0
H3371 H 0.8207 0.92535 0.13444 0.0
H3372 H 0.78757 0.77214 0.14057 0.0
H3373 H 0.7921 0.82392 0.14103 0.0
H3374 H 0.88121 0.90008 0.15023 0.0
C3375 C 0.89335 1.00235 0.14185 0.0
C3376 C 0.83387 0.92007 0.13795 0.0
C3377 C 0.89915 0.03321 0.14144 0.0
C3378 C 0.81034 0.79247 0.14141 0.0
C3379 C 0.81302 0.82226 0.14162 0.0
C3380 C 0.86794 0.9052 0.14671 0.0
C3381 C 0.86259 0.97675 0.14156 0.0
C3382 C 0.8564 0.9438 0.14198 0.0
C3383 C 0.84233 0.84948 0.14258 0.0
C3384 C 0.84599 0.88158 0.14258 0.0
H3385 H 0.82391 0.01749 0.13991 0.0
H3386 H 0.81385 0.96391 0.14066 0.0
H3387 H 0.8902 0.95324 0.14968 0.0
H3388 H 0.88717 0.81511 0.14378 0.0
H3389 H 0.89174 0.86615 0.14404 0.0
C3390 C 0.30074 0.04903 0.13999 0.0
C3391 C 0.30544 0.07722 0.14271 0.0
C3392 C 0.27095 0.02208 0.14009 0.0
C3393 C 0.19314 0.98601 0.14824 0.0
H3394 H 0.16225 0.94076 0.13194 0.0
C3395 C 0.06177 0.894 0.14451 0.0
C3396 C 0.05415 0.86808 0.14049 0.0
C3397 C 0.09285 0.91852 0.14504 0.0
C3398 C 0.17053 0.95269 0.13658 0.0
H3399 H 0.28265 0.09868 0.14792 0.0
H3400 H 0.23121 0.05189 0.14817 0.0
H3401 H 0.21591 0.98394 0.13259 0.0
H3402 H 0.07355 0.84709 0.13407 0.0
H3403 H 0.12748 0.88914 0.1351 0.0
H3404 H 0.14793 0.95473 0.15226 0.0
C3405 C 0.25039 0.0505 0.14593 0.0
C3406 C 0.20142 0.97756 0.13694 0.0
C3407 C 0.27995 0.07743 0.14576 0.0
C3408 C 0.07847 0.86699 0.13712 0.0
C3409 C 0.10949 0.89126 0.1377 0.0
C3410 C 0.16232 0.96094 0.14791 0.0
C3411 C 0.2453 0.02259 0.143 0.0
C3412 C 0.21307 0.99474 0.14276 0.0
C3413 C 0.11722 0.9176 0.14162 0.0
C3414 C 0.15041 0.944 0.14205 0.0
H3415 H 0.31979 0.04807 0.13758 0.0
H3416 H 0.26791 1.00089 0.13783 0.0
H3417 H 0.20143 0.99852 0.15283 0.0
H3418 H 0.04359 0.89569 0.14714 0.0
H3419 H 0.09761 0.93849 0.14804 0.0
C3420 C 0.8935 0.89524 0.64519 0.0
C3421 C 0.87665 0.86994 0.64093 0.0
C3422 C 0.88612 0.91919 0.64573 0.0
C3423 C 0.84332 0.95321 0.63691 0.0
H3424 H 0.85476 0.99743 0.65326 0.0
C3425 C 0.80791 0.04857 0.64006 0.0
C3426 C 0.83121 0.07674 0.64282 0.0
C3427 C 0.81074 0.02162 0.64023 0.0
C3428 C 0.85148 0.98533 0.64866 0.0
H3429 H 0.83789 0.8493 0.6341 0.0
H3430 H 0.82444 0.89025 0.63516 0.0
H3431 H 0.8651 0.95403 0.65279 0.0
H3432 H 0.875 0.09821 0.64819 0.0
H3433 H 0.87958 0.05137 0.64858 0.0
H3434 H 0.82946 0.98447 0.63282 0.0
C3435 C 0.84411 0.89242 0.63793 0.0
C3436 C 0.85762 0.9605 0.64836 0.0
C3437 C 0.85174 0.86876 0.63734 0.0
C3438 C 0.85664 0.07695 0.64599 0.0
C3439 C 0.85922 0.05001 0.64625 0.0
C3440 C 0.83686 0.97779 0.63723 0.0
C3441 C 0.86139 0.91825 0.64207 0.0
C3442 C 0.85393 0.94421 0.64247 0.0
C3443 C 0.83665 0.02214 0.64327 0.0
C3444 C 0.84116 0.99438 0.64308 0.0
H3445 H 0.91293 0.89693 0.64799 0.0
H3446 H 0.90032 0.9388 0.6489 0.0
H3447 H 0.84073 0.94181 0.63224 0.0
H3448 H 0.78812 0.04765 0.63755 0.0
H3449 H 0.79282 1.00043 0.63793 0.0
C3450 C 0.198 0.03227 0.64548 0.0
C3451 C 0.22338 0.04065 0.64123 0.0
C3452 C 0.17398 1.00095 0.64604 0.0
C3453 C 0.14007 0.92387 0.63732 0.0
H3454 H 0.09532 0.89148 0.65367 0.0
C3455 C 0.04471 0.79309 0.64055 0.0
C3456 C 1.0164 0.78817 0.64327 0.0
C3457 C 0.07165 0.8229 0.64074 0.0
C3458 C 0.10756 0.90018 0.64906 0.0
H3459 H 0.24405 0.02239 0.63444 0.0
H3460 H 0.203 0.96804 0.63553 0.0
H3461 H 0.13869 0.94523 0.65314 0.0
H3462 H 0.99469 0.81041 0.64858 0.0
H3463 H 0.04152 0.86186 0.649 0.0
H3464 H 0.109 0.87861 0.63329 0.0
C3465 C 0.20081 0.98558 0.63828 0.0
C3466 C 0.13238 0.93116 0.64874 0.0
C3467 C 0.22453 0.01685 0.63767 0.0
C3468 C 1.01607 0.81334 0.64642 0.0
C3469 C 0.043 0.84289 0.6467 0.0
C3470 C 0.11551 0.89281 0.63767 0.0
C3471 C 0.1749 0.97708 0.64241 0.0
C3472 C 0.14889 0.94364 0.64284 0.0
C3473 C 0.071 0.84828 0.64374 0.0
C3474 C 0.09871 0.88063 0.64353 0.0
H3475 H 0.1963 0.05005 0.64826 0.0
H3476 H 0.15434 0.99564 0.6492 0.0
H3477 H 0.15161 0.93253 0.63265 0.0
H3478 H 0.04574 0.77429 0.63805 0.0
H3479 H 0.09292 0.8262 0.63846 0.0
C3480 C 0.29883 0.28471 0.63982 0.0
C3481 C 0.30419 0.26202 0.64275 0.0
C3482 C 0.26893 0.28163 0.64002 0.0
C3483 C 0.19266 0.24167 0.64875 0.0
H3484 H 0.1578 0.24886 0.63226 0.0
C3485 C 0.06946 0.23016 0.64644 0.0
C3486 C 0.05064 0.21189 0.6412 0.0
C3487 C 0.10088 0.23787 0.64693 0.0
C3488 C 0.16719 0.24674 0.63691 0.0
H3489 H 0.28271 0.21914 0.64845 0.0
H3490 H 0.23113 0.21418 0.64889 0.0
H3491 H 0.21228 0.26105 0.63273 0.0
H3492 H 0.05041 0.1864 0.63252 0.0
H3493 H 0.10512 0.20042 0.63331 0.0
H3494 H 0.14744 0.22699 0.65291 0.0
C3495 C 0.24981 0.23423 0.64641 0.0
C3496 C 0.19852 0.25407 0.63719 0.0
C3497 C 0.27941 0.23702 0.64612 0.0
C3498 C 0.06414 0.2011 0.63654 0.0
C3499 C 0.0956 0.20911 0.63699 0.0
C3500 C 0.16144 0.23473 0.64849 0.0
C3501 C 0.24397 0.25613 0.64326 0.0
C3502 C 0.21154 0.25119 0.6431 0.0
C3503 C 0.11446 0.2278 0.64216 0.0
C3504 C 0.14816 0.23672 0.64254 0.0
H3505 H 0.31735 0.30413 0.63715 0.0
H3506 H 0.26525 0.29903 0.63758 0.0
H3507 H 0.202 0.23937 0.65339 0.0
H3508 H 0.06024 0.23937 0.65008 0.0
H3509 H 0.1148 0.25245 0.65096 0.0
C3510 C 0.54694 0.18654 0.22513 0.0
C3511 C 0.54865 0.20996 0.22933 0.0
C3512 C 0.57172 0.18034 0.22473 0.0
C3513 C 0.65658 0.21507 0.22861 0.0
H3514 H 0.63942 0.1298 0.22662 0.0
C3515 C 0.75718 0.18996 0.22464 0.0
C3516 C 0.75596 0.16424 0.22789 0.0
C3517 C 0.73098 0.19376 0.22438 0.0
C3518 C 0.64467 0.15373 0.22722 0.0
H3519 H 0.57848 0.24564 0.2363 0.0
H3520 H 0.62099 0.23428 0.23575 0.0
H3521 H 0.59609 0.14028 0.22719 0.0
H3522 H 0.72572 0.12171 0.23325 0.0
H3523 H 0.6799 0.1286 0.23292 0.0
H3524 H 0.70496 0.22851 0.22889 0.0
C3525 C 0.60069 0.2209 0.23268 0.0
C3526 C 0.61976 0.15982 0.22747 0.0
C3527 C 0.57603 0.22719 0.23306 0.0
C3528 C 0.7274 0.14169 0.23067 0.0
C3529 C 0.70111 0.14568 0.23047 0.0
C3530 C 0.68138 0.20898 0.2284 0.0
C3531 C 0.59892 0.19732 0.22852 0.0
C3532 C 0.62536 0.19061 0.22817 0.0
C3533 C 0.70276 0.17218 0.22744 0.0
C3534 C 0.67588 0.17825 0.22768 0.0
H3535 H 0.52616 0.17246 0.22224 0.0
H3536 H 0.56955 0.16229 0.2214 0.0
H3537 H 0.662 0.23912 0.22907 0.0
H3538 H 0.77867 0.2076 0.22236 0.0
H3539 H 0.73304 0.21396 0.22183 0.0
C3540 C 0.90608 0.60656 0.22546 0.0
C3541 C 0.93439 0.63322 0.22728 0.0
C3542 C 0.90341 0.57703 0.22519 0.0
C3543 C 0.9395 0.53187 0.23155 0.0
H3544 H 0.88491 0.47089 0.21877 0.0
C3545 C 0.92486 0.40768 0.22956 0.0
C3546 C 0.89435 0.38238 0.22861 0.0
C3547 C 0.93116 0.43865 0.22914 0.0
C3548 C 0.90003 0.48752 0.22241 0.0
H3549 H 0.98243 0.64944 0.23009 0.0
H3550 H 0.97795 0.59773 0.22951 0.0
H3551 H 0.8946 0.52432 0.21824 0.0
H3552 H 0.8466 0.37018 0.22642 0.0
H3553 H 0.85755 0.42419 0.22571 0.0
H3554 H 0.94491 0.49491 0.2357 0.0
C3555 C 0.9576 0.59977 0.22838 0.0
C3556 C 0.90563 0.51827 0.22211 0.0
C3557 C 0.96029 0.62952 0.22866 0.0
C3558 C 0.87033 0.389 0.22721 0.0
C3559 C 0.87669 0.42002 0.22674 0.0
C3560 C 0.93402 0.50111 0.23182 0.0
C3561 C 0.92898 0.57302 0.22671 0.0
C3562 C 0.92511 0.54086 0.22673 0.0
C3563 C 0.90719 0.4453 0.22772 0.0
C3564 C 0.91391 0.4784 0.2273 0.0
H3565 H 0.88549 0.60825 0.22436 0.0
H3566 H 0.88084 0.55714 0.22399 0.0
H3567 H 0.95427 0.54834 0.23525 0.0
H3568 H 0.9439 0.40356 0.23073 0.0
H3569 H 0.95496 0.45744 0.22987 0.0
C3570 C 0.46886 0.37173 0.22906 0.0
C3571 C 0.46538 0.34196 0.22804 0.0
C3572 C 0.49859 0.3988 0.2287 0.0
C3573 C 0.57994 0.42726 0.22253 0.0
H3574 H 0.6036 0.49254 0.2355 0.0
C3575 C 0.70923 0.52191 0.22704 0.0
C3576 C 0.71597 0.55279 0.22816 0.0
C3577 C 0.67818 0.49727 0.22673 0.0
C3578 C 0.5973 0.4747 0.23179 0.0
H3579 H 0.49077 0.31769 0.22572 0.0
H3580 H 0.54177 0.36415 0.22519 0.0
H3581 H 0.55014 0.44836 0.23533 0.0
H3582 H 0.695 0.58165 0.22995 0.0
H3583 H 0.64104 0.53884 0.22934 0.0
H3584 H 0.62718 0.45328 0.21906 0.0
C3585 C 0.52173 0.36693 0.22618 0.0
C3586 C 0.56654 0.44936 0.23168 0.0
C3587 C 0.49226 0.34008 0.22654 0.0
C3588 C 0.69077 0.55828 0.22899 0.0
C3589 C 0.65976 0.53363 0.22872 0.0
C3590 C 0.61066 0.45247 0.22266 0.0
C3591 C 0.52547 0.39671 0.22728 0.0
C3592 C 0.55751 0.42505 0.2271 0.0
C3593 C 0.653 0.50277 0.22758 0.0
C3594 C 0.61989 0.47641 0.22733 0.0
H3595 H 0.44875 0.37412 0.23023 0.0
H3596 H 0.50048 0.42135 0.22952 0.0
H3597 H 0.57379 0.40939 0.21884 0.0
H3598 H 0.72797 0.51679 0.22635 0.0
H3599 H 0.67392 0.47377 0.22592 0.0
C3600 C 0.61365 0.49041 0.06452 0.0
C3601 C 0.58948 0.49672 0.06304 0.0
C3602 C 0.60783 0.45941 0.06457 0.0
C3603 C 0.54181 0.37863 0.06654 0.0
H3604 H 0.5954 0.35172 0.05842 0.0
C3605 C 0.49747 0.24861 0.06179 0.0
C3606 C 0.51767 0.23686 0.06307 0.0
C3607 C 0.50861 0.28082 0.06181 0.0
C3608 C 0.58036 0.35893 0.06077 0.0
H3609 H 0.54068 0.47525 0.06011 0.0
H3610 H 0.53089 0.42219 0.06019 0.0
H3611 H 0.61145 0.40749 0.05853 0.0
H3612 H 0.56575 0.2501 0.06526 0.0
H3613 H 0.5852 0.30642 0.06527 0.0
H3614 H 0.51065 0.33047 0.06877 0.0
C3615 C 0.5541 0.44086 0.06146 0.0
C3616 C 0.5896 0.39087 0.06084 0.0
C3617 C 0.55985 0.4715 0.06139 0.0
C3618 C 0.54956 0.2583 0.06419 0.0
C3619 C 0.56073 0.29062 0.06421 0.0
C3620 C 0.53264 0.34691 0.06647 0.0
C3621 C 0.57773 0.43425 0.06317 0.0
C3622 C 0.57006 0.40098 0.06361 0.0
C3623 C 0.54028 0.30227 0.06311 0.0
C3624 C 0.55143 0.33649 0.06348 0.0
H3625 H 0.63676 0.50924 0.06578 0.0
H3626 H 0.62657 0.45506 0.06589 0.0
H3627 H 0.52652 0.38567 0.06884 0.0
H3628 H 0.47294 0.23288 0.06077 0.0
H3629 H 0.4923 0.28893 0.06079 0.0
C3630 C 0.83724 0.32658 0.06075 0.0
C3631 C 0.85857 0.31725 0.06284 0.0
C3632 C 0.80502 0.30519 0.06059 0.0
C3633 C 0.74865 0.22058 0.05982 0.0
H3634 H 0.68896 0.24135 0.06726 0.0
C3635 C 0.62518 0.12461 0.06619 0.0
C3636 C 0.59962 0.12867 0.06469 0.0
C3637 C 0.65574 0.14947 0.06574 0.0
C3638 C 0.70527 0.23535 0.06508 0.0
H3639 H 0.86222 0.2779 0.06652 0.0
H3640 H 0.80641 0.24068 0.06609 0.0
H3641 H 0.74455 0.28125 0.06673 0.0
H3642 H 0.58624 0.16263 0.0618 0.0
H3643 H 0.64026 0.20653 0.06096 0.0
H3644 H 0.70979 0.17485 0.05818 0.0
C3645 C 0.81465 0.26451 0.06452 0.0
C3646 C 0.73711 0.25818 0.06478 0.0
C3647 C 0.84675 0.2859 0.06473 0.0
C3648 C 0.60543 0.15873 0.06298 0.0
C3649 C 0.63634 0.18383 0.0625 0.0
C3650 C 0.71698 0.19793 0.06009 0.0
C3651 C 0.79338 0.27387 0.06245 0.0
C3652 C 0.75923 0.25079 0.06228 0.0
C3653 C 0.66187 0.17923 0.06374 0.0
C3654 C 0.69495 0.20473 0.06287 0.0
H3655 H 0.84541 0.35039 0.05917 0.0
H3656 H 0.78926 0.31304 0.05891 0.0
H3657 H 0.76495 0.21434 0.05773 0.0
H3658 H 0.62168 0.10197 0.06765 0.0
H3659 H 0.67469 0.14523 0.06694 0.0
C3660 C 0.93933 0.48354 0.06261 0.0
C3661 C 0.96978 0.50831 0.06385 0.0
C3662 C 0.91419 0.48925 0.06206 0.0
C3663 C 0.89899 0.55465 0.05874 0.0
H3664 H 0.81812 0.50155 0.06678 0.0
C3665 C 0.8121 0.59775 0.06367 0.0
C3666 C 0.7802 0.57743 0.06235 0.0
C3667 C 0.83358 0.58715 0.06336 0.0
C3668 C 0.84048 0.5164 0.06444 0.0
H3669 H 0.99721 0.55823 0.06577 0.0
H3670 H 0.95396 0.56784 0.06492 0.0
H3671 H 0.85827 0.4862 0.06719 0.0
H3672 H 0.7462 0.52988 0.05954 0.0
H3673 H 0.78372 0.51134 0.05912 0.0
H3674 H 0.88165 0.5852 0.05613 0.0
C3675 C 0.94938 0.54419 0.06418 0.0
C3676 C 0.86345 0.50757 0.06466 0.0
C3677 C 0.97427 0.53857 0.0647 0.0
C3678 C 0.77045 0.54615 0.06069 0.0
C3679 C 0.79194 0.53547 0.06044 0.0
C3680 C 0.87621 0.56351 0.05856 0.0
C3681 C 0.9191 0.51982 0.06274 0.0
C3682 C 0.89326 0.52699 0.06194 0.0
C3683 C 0.82378 0.55588 0.06176 0.0
C3684 C 0.84689 0.54486 0.06151 0.0
H3685 H 0.93504 0.45996 0.06193 0.0
H3686 H 0.89111 0.46992 0.06096 0.0
H3687 H 0.92138 0.56978 0.05644 0.0
H3688 H 0.82049 0.62177 0.0651 0.0
H3689 H 0.85786 0.60336 0.06451 0.0
C3690 C 0.49827 0.6059 0.47207 0.0
C3691 C 0.50338 0.58073 0.4733 0.0
C3692 C 0.4679 0.60164 0.47241 0.0
C3693 C 0.38921 0.54817 0.47938 0.0
H3694 H 0.35792 0.57839 0.46543 0.0
C3695 C 0.26156 0.52322 0.47932 0.0
C3696 C 0.24557 0.51338 0.47331 0.0
C3697 C 0.29402 0.53571 0.47961 0.0
C3698 C 0.3663 0.56977 0.46936 0.0
H3699 H 0.4803 0.5314 0.4759 0.0
H3700 H 0.4282 0.52421 0.47645 0.0
H3701 H 0.41301 0.59243 0.46549 0.0
H3702 H 0.25157 0.51013 0.46287 0.0
H3703 H 0.30794 0.53128 0.4634 0.0
H3704 H 0.3425 0.52458 0.48314 0.0
C3705 C 0.44747 0.54729 0.47529 0.0
C3706 C 0.39797 0.57812 0.46943 0.0
C3707 C 0.47751 0.55143 0.47491 0.0
C3708 C 0.26301 0.517 0.4676 0.0
C3709 C 0.29546 0.52957 0.46788 0.0
C3710 C 0.35768 0.53992 0.47932 0.0
C3711 C 0.44217 0.57224 0.47405 0.0
C3712 C 0.40963 0.56682 0.47437 0.0
C3713 C 0.31138 0.53882 0.4739 0.0
C3714 C 0.34563 0.55009 0.47425 0.0
H3715 H 0.5176 0.62875 0.47082 0.0
H3716 H 0.4646 0.62138 0.47145 0.0
H3717 H 0.39751 0.53938 0.4833 0.0
H3718 H 0.24889 0.52066 0.48382 0.0
H3719 H 0.30553 0.54286 0.48432 0.0
C3720 C 0.6058 0.8023 0.47263 0.0
C3721 C 0.58537 0.77049 0.47403 0.0
C3722 C 0.59532 0.8239 0.47286 0.0
C3723 C 0.52447 0.83093 0.4718 0.0
H3724 H 0.57839 0.91237 0.47947 0.0
C3725 C 0.49093 0.92921 0.47389 0.0
C3726 C 0.51542 0.95979 0.47263 0.0
C3727 C 0.49696 0.90423 0.4743 0.0
C3728 C 0.56311 0.88984 0.47725 0.0
H3729 H 0.53777 0.73676 0.47688 0.0
H3730 H 0.51945 0.77447 0.47718 0.0
H3731 H 0.59393 0.87275 0.47981 0.0
H3732 H 0.56508 0.98765 0.47046 0.0
H3733 H 0.57525 0.94464 0.47107 0.0
H3734 H 0.49391 0.84842 0.46914 0.0
C3735 C 0.54357 0.78256 0.47586 0.0
C3736 C 0.57205 0.8671 0.47745 0.0
C3737 C 0.55411 0.76094 0.47568 0.0
C3738 C 0.54566 0.96457 0.47156 0.0
C3739 C 0.5516 0.93984 0.47195 0.0
C3740 C 0.51555 0.85383 0.47157 0.0
C3741 C 0.56407 0.81432 0.47446 0.0
C3742 C 0.55316 0.83755 0.47463 0.0
C3743 C 0.52756 0.90943 0.47345 0.0
C3744 C 0.53511 0.88381 0.47418 0.0
H3745 H 0.62982 0.81052 0.47121 0.0
H3746 H 0.61162 0.8481 0.47165 0.0
H3747 H 0.50943 0.8084 0.46956 0.0
H3748 H 0.46736 0.92471 0.47473 0.0
H3749 H 0.47787 0.88107 0.47546 0.0
C3750 C 0.29165 0.83593 0.47306 0.0
C3751 C 0.32345 0.84757 0.47451 0.0
C3752 C 0.2702 0.80385 0.47336 0.0
C3753 C 0.2633 0.72624 0.47246 0.0
H3754 H 0.18227 0.69886 0.48038 0.0
C3755 C 0.16461 0.59457 0.47444 0.0
C3756 C 0.13408 0.58877 0.47324 0.0
C3757 C 0.1897 0.62546 0.47492 0.0
C3758 C 0.20468 0.70607 0.4781 0.0
H3759 H 0.35731 0.8341 0.47751 0.0
H3760 H 0.31985 0.77801 0.47789 0.0
H3761 H 0.22197 0.754 0.48063 0.0
H3762 H 0.10645 0.61104 0.47129 0.0
H3763 H 0.14964 0.66399 0.472 0.0
H3764 H 0.24556 0.67821 0.46978 0.0
C3765 C 0.31168 0.79389 0.4765 0.0
C3766 C 0.22745 0.73772 0.47825 0.0
C3767 C 0.33315 0.82608 0.47626 0.0
C3768 C 0.12946 0.61444 0.47233 0.0
C3769 C 0.15432 0.64499 0.47278 0.0
C3770 C 0.24033 0.69444 0.47226 0.0
C3771 C 0.27994 0.78243 0.47507 0.0
C3772 C 0.25682 0.74831 0.47533 0.0
C3773 C 0.18468 0.65104 0.47421 0.0
C3774 C 0.21047 0.68409 0.47495 0.0
H3775 H 0.2833 0.85151 0.47155 0.0
H3776 H 0.24599 0.79574 0.47213 0.0
H3777 H 0.2857 0.73371 0.47015 0.0
H3778 H 0.16898 0.57533 0.47515 0.0
H3779 H 0.21283 0.62929 0.47601 0.0
C3780 C 0.54125 0.61426 0.97289 0.0
C3781 C 0.51109 0.58831 0.97375 0.0
C3782 C 0.54664 0.64465 0.97345 0.0
C3783 C 0.51001 0.6938 0.97299 0.0
H3784 H 0.5874 0.75283 0.9816 0.0
C3785 C 0.55016 0.826 0.97678 0.0
C3786 C 0.58156 0.84708 0.97509 0.0
C3787 C 0.53896 0.79372 0.97708 0.0
C3788 C 0.56577 0.7367 0.97916 0.0
H3789 H 0.46262 0.57427 0.97568 0.0
H3790 H 0.47218 0.62805 0.97671 0.0
H3791 H 0.5716 0.6976 0.98136 0.0
H3792 H 0.62549 0.85019 0.97231 0.0
H3793 H 0.6062 0.79429 0.97301 0.0
H3794 H 0.50448 0.73334 0.97078 0.0
C3795 C 0.49162 0.62449 0.97559 0.0
C3796 C 0.55668 0.705 0.97901 0.0
C3797 C 0.48614 0.59371 0.97501 0.0
C3798 C 0.60142 0.83494 0.97377 0.0
C3799 C 0.59031 0.80278 0.97414 0.0
C3800 C 0.51906 0.72567 0.97317 0.0
C3801 C 0.52212 0.6503 0.97493 0.0
C3802 C 0.52916 0.68323 0.97577 0.0
C3803 C 0.55896 0.78177 0.97579 0.0
C3804 C 0.54748 0.74756 0.97612 0.0
H3805 H 0.56106 0.61124 0.97179 0.0
H3806 H 0.57023 0.66386 0.97271 0.0
H3807 H 0.48874 0.6777 0.97043 0.0
H3808 H 0.53422 0.8344 0.97793 0.0
H3809 H 0.51477 0.77816 0.97843 0.0
C3810 C 0.25625 0.80181 0.973 0.0
C3811 C 0.24469 0.77046 0.97487 0.0
C3812 C 0.28832 0.82333 0.97316 0.0
C3813 C 0.36592 0.82989 0.97265 0.0
H3814 H 0.39357 0.91323 0.97929 0.0
C3815 C 0.49767 0.92876 0.97425 0.0
C3816 C 0.50367 0.95897 0.97261 0.0
C3817 C 0.4667 0.90383 0.97475 0.0
C3818 C 0.38628 0.89016 0.97736 0.0
H3819 H 0.25826 0.73751 0.97847 0.0
H3820 H 0.31434 0.7751 0.97863 0.0
H3821 H 0.33843 0.87375 0.97984 0.0
H3822 H 0.48188 0.98616 0.96985 0.0
H3823 H 0.42871 0.94317 0.97061 0.0
H3824 H 0.41392 0.84668 0.97005 0.0
C3825 C 0.29841 0.78284 0.97701 0.0
C3826 C 0.35463 0.8675 0.97769 0.0
C3827 C 0.26623 0.7613 0.9769 0.0
C3828 C 0.47822 0.96338 0.97124 0.0
C3829 C 0.44758 0.93868 0.97171 0.0
C3830 C 0.39773 0.85271 0.97229 0.0
C3831 C 0.30981 0.81412 0.97515 0.0
C3832 C 0.34394 0.83727 0.97523 0.0
C3833 C 0.44129 0.90874 0.97362 0.0
C3834 C 0.40817 0.88334 0.97451 0.0
H3835 H 0.2406 0.80967 0.97127 0.0
H3836 H 0.29637 0.84714 0.9716 0.0
H3837 H 0.35839 0.8068 0.9707 0.0
H3838 H 0.51676 0.92459 0.97533 0.0
H3839 H 0.46266 0.88102 0.97622 0.0
C3840 C 0.16238 0.60137 0.97282 0.0
C3841 C 0.1314 0.57699 0.97376 0.0
C3842 C 0.18731 0.59517 0.97282 0.0
C3843 C 0.20231 0.52937 0.97026 0.0
H3844 H 0.28068 0.58082 0.97931 0.0
C3845 C 0.28769 0.48451 0.97513 0.0
C3846 C 0.31985 0.50518 0.97417 0.0
C3847 C 0.26641 0.49541 0.97509 0.0
C3848 C 0.25905 0.56639 0.9767 0.0
H3849 H 0.1028 0.52713 0.97571 0.0
H3850 H 0.14566 0.51668 0.97575 0.0
H3851 H 0.24087 0.59669 0.97909 0.0
H3852 H 0.35475 0.55384 0.97253 0.0
H3853 H 0.31754 0.57287 0.9725 0.0
H3854 H 0.22008 0.49899 0.96789 0.0
C3855 C 0.15084 0.54045 0.97486 0.0
C3856 C 0.23626 0.57553 0.97656 0.0
C3857 C 0.12616 0.54657 0.97487 0.0
C3858 C 0.33021 0.53725 0.97335 0.0
C3859 C 0.30886 0.54819 0.97333 0.0
C3860 C 0.22494 0.52028 0.9704 0.0
C3861 C 0.18169 0.56447 0.97373 0.0
C3862 C 0.20735 0.55677 0.97344 0.0
C3863 C 0.27661 0.52731 0.9741 0.0
C3864 C 0.25341 0.53832 0.97371 0.0
H3865 H 0.16733 0.62507 0.97197 0.0
H3866 H 0.21083 0.61424 0.97194 0.0
H3867 H 0.18065 0.51473 0.96767 0.0
H3868 H 0.27888 0.45978 0.97591 0.0
H3869 H 0.24185 0.47873 0.97586 0.0
C3870 C 0.6256 0.53786 0.56386 0.0
C3871 C 0.5997 0.50737 0.5643 0.0
C3872 C 0.65605 0.54309 0.56399 0.0
C3873 C 0.70508 0.50769 0.56117 0.0
H3874 H 0.76492 0.57942 0.57124 0.0
C3875 C 0.83768 0.54593 0.56391 0.0
C3876 C 0.85888 0.57833 0.5635 0.0
C3877 C 0.8053 0.53438 0.56406 0.0
C3878 C 0.7486 0.55945 0.56836 0.0
H3879 H 0.58592 0.45832 0.56508 0.0
H3880 H 0.63977 0.46762 0.56533 0.0
H3881 H 0.70972 0.56358 0.57165 0.0
H3882 H 0.86232 0.62374 0.56258 0.0
H3883 H 0.80618 0.60371 0.56289 0.0
H3884 H 0.7444 0.50392 0.55785 0.0
C3885 C 0.63608 0.48741 0.56488 0.0
C3886 C 0.7169 0.5503 0.56861 0.0
C3887 C 0.60526 0.48209 0.56477 0.0
C3888 C 0.84681 0.59874 0.56305 0.0
C3889 C 0.81456 0.58724 0.56323 0.0
C3890 C 0.73698 0.51684 0.56094 0.0
C3891 C 0.66181 0.51809 0.56458 0.0
C3892 C 0.6948 0.52483 0.56489 0.0
C3893 C 0.7934 0.55498 0.56384 0.0
C3894 C 0.75919 0.54333 0.56441 0.0
H3895 H 0.62256 0.55805 0.56343 0.0
H3896 H 0.67521 0.56694 0.56359 0.0
H3897 H 0.68867 0.48803 0.55823 0.0
H3898 H 0.8461 0.52951 0.56433 0.0
H3899 H 0.78964 0.50942 0.56456 0.0
C3900 C 0.55799 0.12218 0.56555 0.0
C3901 C 0.58813 0.12687 0.56439 0.0
C3902 C 0.55205 0.14692 0.56515 0.0
C3903 C 0.58815 0.23293 0.56525 0.0
H3904 H 0.50919 0.21339 0.55721 0.0
C3905 C 0.54914 0.32539 0.56096 0.0
C3906 C 0.51802 0.31594 0.56271 0.0
C3907 C 0.55973 0.30381 0.56082 0.0
C3908 C 0.53124 0.21921 0.55951 0.0
H3909 H 0.63603 0.16176 0.56211 0.0
H3910 H 0.62552 0.20538 0.56134 0.0
H3911 H 0.52476 0.1738 0.55761 0.0
H3912 H 0.47389 0.27615 0.56578 0.0
H3913 H 0.49215 0.23862 0.5654 0.0
H3914 H 0.59441 0.27852 0.56714 0.0
C3915 C 0.60651 0.18232 0.56259 0.0
C3916 C 0.54019 0.19649 0.55975 0.0
C3917 C 0.61255 0.15735 0.56302 0.0
C3918 C 0.49778 0.28427 0.56427 0.0
C3919 C 0.5083 0.26271 0.56408 0.0
C3920 C 0.57922 0.25582 0.56498 0.0
C3921 C 0.57599 0.1772 0.56353 0.0
C3922 C 0.5684 0.20276 0.56275 0.0
C3923 C 0.5394 0.27219 0.56237 0.0
C3924 C 0.55033 0.24897 0.56223 0.0
H3925 H 0.53865 0.09919 0.56674 0.0
H3926 H 0.52849 0.1422 0.5661 0.0
H3927 H 0.60996 0.23853 0.56763 0.0
H3928 H 0.56533 0.34946 0.55964 0.0
H3929 H 0.58373 0.3118 0.55942 0.0
C3930 C 0.97437 0.47219 0.56496 0.0
C3931 C 0.96967 0.49774 0.56394 0.0
C3932 C 0.9496 0.44157 0.56453 0.0
C3933 C 0.8635 0.39193 0.56485 0.0
H3934 H 0.88252 0.3322 0.55679 0.0
C3935 C 0.7709 0.26033 0.56074 0.0
C3936 C 0.78036 0.23878 0.5626 0.0
C3937 C 0.79244 0.2925 0.56054 0.0
C3938 C 0.87684 0.34853 0.55909 0.0
H3939 H 0.93474 0.51093 0.56186 0.0
H3940 H 0.89105 0.45688 0.56103 0.0
H3941 H 0.92219 0.38733 0.55706 0.0
H3942 H 0.82014 0.23473 0.5658 0.0
H3943 H 0.8576 0.29049 0.56528 0.0
H3944 H 0.81793 0.35272 0.56685 0.0
C3945 C 0.91416 0.46083 0.5622 0.0
C3946 C 0.89961 0.38018 0.55926 0.0
C3947 C 0.93916 0.49178 0.56266 0.0
C3948 C 0.812 0.25036 0.5642 0.0
C3949 C 0.83353 0.28242 0.56393 0.0
C3950 C 0.84053 0.36013 0.56464 0.0
C3951 C 0.91925 0.43535 0.56302 0.0
C3952 C 0.89356 0.40224 0.56228 0.0
C3953 C 0.82403 0.3039 0.56211 0.0
C3954 C 0.84722 0.338 0.56188 0.0
H3955 H 0.99738 0.47574 0.56607 0.0
H3956 H 0.95433 0.42267 0.5654 0.0
H3957 H 0.85805 0.40821 0.56725 0.0
H3958 H 0.74687 0.25236 0.55938 0.0
H3959 H 0.78446 0.30843 0.55905 0.0
C3960 C 0.16574 0.58356 0.39767 0.0
C3961 C 0.18576 0.57176 0.39621 0.0
C3962 C 0.17657 0.61568 0.3974 0.0
C3963 C 0.24789 0.69316 0.39822 0.0
H3964 H 0.19396 0.72101 0.39064 0.0
C3965 C 0.28121 0.8251 0.3961 0.0
C3966 C 0.25669 0.83097 0.3975 0.0
C3967 C 0.27535 0.79415 0.39567 0.0
C3968 C 0.20926 0.71367 0.39283 0.0
H3969 H 0.23303 0.58496 0.39322 0.0
H3970 H 0.25197 0.64111 0.39285 0.0
H3971 H 0.17813 0.66579 0.39034 0.0
H3972 H 0.20725 0.80889 0.39991 0.0
H3973 H 0.1974 0.75587 0.39926 0.0
H3974 H 0.27874 0.74122 0.40082 0.0
C3975 C 0.2279 0.62534 0.39425 0.0
C3976 C 0.20015 0.68196 0.39265 0.0
C3977 C 0.217 0.59312 0.39447 0.0
C3978 C 0.22666 0.8054 0.39869 0.0
C3979 C 0.2209 0.77481 0.39829 0.0
C3980 C 0.25698 0.72504 0.39843 0.0
C3981 C 0.20778 0.63699 0.3957 0.0
C3982 C 0.219 0.67118 0.39546 0.0
C3983 C 0.2449 0.76865 0.39663 0.0
C3984 C 0.23739 0.73554 0.39586 0.0
H3985 H 0.14178 0.56804 0.39917 0.0
H3986 H 0.16058 0.62391 0.39865 0.0
H3987 H 0.26291 0.68558 0.40044 0.0
H3988 H 0.30462 0.84428 0.39517 0.0
H3989 H 0.29441 0.7902 0.39441 0.0
C3990 C 0.50155 0.66543 0.39605 0.0
C3991 C 0.52345 0.65503 0.39603 0.0
C3992 C 0.46928 0.64393 0.39608 0.0
C3993 C 0.41284 0.56163 0.39187 0.0
H3994 H 0.35493 0.57088 0.40321 0.0
C3995 C 0.29195 0.45791 0.39744 0.0
C3996 C 0.2657 0.462 0.39756 0.0
C3997 C 0.32218 0.48349 0.39707 0.0
C3998 C 0.37072 0.56821 0.39994 0.0
H3999 H 0.5282 0.61364 0.39631 0.0
H4000 H 0.47239 0.57648 0.39629 0.0
H4001 H 0.4102 0.61188 0.40293 0.0
H4002 H 0.25107 0.49677 0.39752 0.0
H4003 H 0.30441 0.54188 0.39687 0.0
H4004 H 0.3738 0.51803 0.38891 0.0
C4005 C 0.48007 0.60123 0.39615 0.0
C4006 C 0.4024 0.59167 0.39979 0.0
C4007 C 0.51218 0.62261 0.39615 0.0
C4008 C 0.27069 0.4927 0.39743 0.0
C4009 C 0.30125 0.51854 0.39707 0.0
C4010 C 0.38136 0.53835 0.39201 0.0
C4011 C 0.45816 0.61154 0.39605 0.0
C4012 C 0.42397 0.58827 0.39586 0.0
C4013 C 0.32733 0.51414 0.39679 0.0
C4014 C 0.36 0.5409 0.39617 0.0
H4015 H 0.50931 0.69019 0.3959 0.0
H4016 H 0.45306 0.65267 0.39597 0.0
H4017 H 0.4286 0.55859 0.38866 0.0
H4018 H 0.28931 0.43477 0.3976 0.0
H4019 H 0.34165 0.47917 0.39702 0.0
C4020 C 0.47836 0.93075 0.39678 0.0
C4021 C 0.44574 0.91072 0.3967 0.0
C4022 C 0.49859 0.91866 0.397 0.0
C4023 C 0.50605 0.84938 0.39372 0.0
H4024 H 0.57509 0.88978 0.40593 0.0
C4025 C 0.6029 0.81419 0.39733 0.0
C4026 C 0.63352 0.83999 0.3975 0.0
C4027 C 0.57692 0.81876 0.3975 0.0
C4028 C 0.556 0.87826 0.40248 0.0
H4029 H 0.40899 0.86198 0.39661 0.0
H4030 H 0.44456 0.8409 0.39687 0.0
H4031 H 0.53589 0.90585 0.40549 0.0
H4032 H 0.66054 0.89083 0.39788 0.0
H4033 H 0.61604 0.89849 0.39812 0.0
H4034 H 0.52694 0.82233 0.39061 0.0
C4035 C 0.45431 0.86603 0.39678 0.0
C4036 C 0.53356 0.88753 0.40222 0.0
C4037 C 0.43396 0.87816 0.39661 0.0
C4038 C 0.63746 0.87025 0.39779 0.0
C4039 C 0.61181 0.87473 0.39797 0.0
C4040 C 0.52875 0.84015 0.39396 0.0
C4041 C 0.48684 0.88618 0.3971 0.0
C4042 C 0.50877 0.87383 0.39772 0.0
C4043 C 0.5812 0.84918 0.3979 0.0
C4044 C 0.55446 0.85514 0.39822 0.0
H4045 H 0.48836 0.95591 0.39669 0.0
H4046 H 0.52357 0.93483 0.39709 0.0
H4047 H 0.48715 0.83834 0.39021 0.0
H4048 H 0.59901 0.79059 0.39709 0.0
H4049 H 0.55357 0.79858 0.39743 0.0
C4050 C 0.14677 0.88245 0.80876 0.0
C4051 C 0.17196 0.91232 0.80723 0.0
C4052 C 0.11606 0.87654 0.8087 0.0
C4053 C 0.06597 0.91203 0.80952 0.0
H4054 H 1.00546 0.83342 0.80156 0.0
C4055 C 0.93366 0.87279 0.80616 0.0
C4056 C 0.91203 0.84091 0.80725 0.0
C4057 C 0.96594 0.88377 0.80616 0.0
C4058 C 1.02193 0.8553 0.80387 0.0
H4059 H 0.18429 0.95977 0.80467 0.0
H4060 H 0.13004 0.94929 0.80456 0.0
H4061 H 0.06063 0.84913 0.80145 0.0
H4062 H 0.90768 0.79597 0.80951 0.0
H4063 H 0.96368 0.81499 0.80951 0.0
H4064 H 0.0269 0.91792 0.81198 0.0
C4065 C 0.13445 0.9305 0.8058 0.0
C4066 C 0.05364 0.86438 0.80379 0.0
C4067 C 0.16551 0.93648 0.80584 0.0
C4068 C 0.92356 0.82051 0.80851 0.0
C4069 C 0.95574 0.83145 0.80851 0.0
C4070 C 0.03405 0.90289 0.80961 0.0
C4071 C 0.10934 0.90023 0.80711 0.0
C4072 C 0.07604 0.89254 0.80672 0.0
C4073 C 0.97738 0.86312 0.80724 0.0
C4074 C 1.01157 0.8741 0.80688 0.0
H4075 H 0.15061 0.86324 0.80996 0.0
H4076 H 0.09743 0.85317 0.8099 0.0
H4077 H 0.0826 0.9338 0.81184 0.0
H4078 H 0.92564 0.88914 0.80511 0.0
H4079 H 0.98188 0.90824 0.80511 0.0
C4080 C 0.22031 0.09337 0.80966 0.0
C4081 C 0.2514 0.10317 0.80781 0.0
C4082 C 0.20937 0.11466 0.80988 0.0
C4083 C 0.2371 0.19905 0.81123 0.0
H4084 H 0.15809 0.1793 0.80318 0.0
C4085 C 0.21066 0.29568 0.80482 0.0
C4086 C 0.18081 0.29151 0.8061 0.0
C4087 C 0.21629 0.27078 0.80531 0.0
C4088 C 0.17996 0.18499 0.80554 0.0
H4089 H 0.29507 0.14326 0.80464 0.0
H4090 H 0.27623 0.18029 0.80515 0.0
H4091 H 0.17387 0.13945 0.80367 0.0
H4092 H 0.13302 0.25733 0.80865 0.0
H4093 H 0.143 0.21333 0.80954 0.0
H4094 H 0.24347 0.24446 0.81308 0.0
C4095 C 0.26039 0.15615 0.8065 0.0
C4096 C 0.18903 0.1622 0.80581 0.0
C4097 C 0.27124 0.13488 0.80623 0.0
C4098 C 0.15629 0.26132 0.80765 0.0
C4099 C 0.16201 0.23616 0.80815 0.0
C4100 C 0.22802 0.22167 0.81099 0.0
C4101 C 0.22932 0.14633 0.80831 0.0
C4102 C 0.21807 0.16926 0.80852 0.0
C4103 C 0.19232 0.24085 0.80712 0.0
C4104 C 0.19975 0.21525 0.80799 0.0
H4105 H 0.20443 0.06926 0.81101 0.0
H4106 H 0.18541 0.10643 0.81136 0.0
H4107 H 0.25925 0.20502 0.81349 0.0
H4108 H 0.23004 0.31841 0.80349 0.0
H4109 H 0.23966 0.27511 0.80428 0.0
C4110 C 0.97922 0.16433 0.80143 0.0
C4111 C 0.99387 0.1817 0.8071 0.0
C4112 C 0.95915 0.1319 0.80176 0.0
C4113 C 0.90868 0.06939 0.81336 0.0
H4114 H 0.90435 1.01431 0.79936 0.0
C4115 C 0.80057 0.94852 0.80945 0.0
C4116 C 0.80416 0.92306 0.80757 0.0
C4117 C 0.82625 0.97873 0.80979 0.0
C4118 C 0.90551 0.02927 0.80335 0.0
H4119 H 0.999 0.17824 0.81756 0.0
H4120 H 0.96426 0.12166 0.81813 0.0
H4121 H 0.94503 0.0695 0.79916 0.0
H4122 H 0.83805 0.90967 0.80462 0.0
H4123 H 0.88328 0.96294 0.80519 0.0
H4124 H 0.86913 0.02934 0.81754 0.0
C4125 C 0.96811 0.1332 0.81342 0.0
C4126 C 0.9286 0.06101 0.8032 0.0
C4127 C 0.98827 0.16564 0.81309 0.0
C4128 C 0.83441 0.9287 0.80609 0.0
C4129 C 0.86028 0.95923 0.80638 0.0
C4130 C 0.8856 0.03776 0.8135 0.0
C4131 C 0.9531 0.1159 0.80777 0.0
C4132 C 0.93018 0.08161 0.80816 0.0
C4133 C 0.85645 0.98461 0.80825 0.0
C4134 C 0.8833 0.01739 0.80844 0.0
H4135 H 0.98331 0.17579 0.79671 0.0
H4136 H 0.94781 0.11949 0.79731 0.0
H4137 H 0.90896 0.08448 0.81724 0.0
H4138 H 0.77775 0.94527 0.81065 0.0
H4139 H 0.82226 0.99768 0.81114 0.0
C4140 C 0.155 0.92912 0.30563 0.0
C4141 C 0.17987 0.92309 0.30636 0.0
C4142 C 0.16075 0.96009 0.30551 0.0
C4143 C 0.22514 0.04098 0.3023 0.0
H4144 H 0.17596 0.06797 0.31224 0.0
C4145 C 0.27151 0.17092 0.3076 0.0
C4146 C 0.25091 0.18267 0.30693 0.0
C4147 C 0.26039 0.13873 0.30745 0.0
C4148 C 0.18971 0.06072 0.30938 0.0
H4149 H 0.23023 0.94523 0.30772 0.0
H4150 H 0.2399 0.9982 0.30755 0.0
H4151 H 0.16017 1.0123 0.31194 0.0
H4152 H 0.20212 0.16934 0.30569 0.0
H4153 H 0.18269 0.11304 0.30549 0.0
H4154 H 0.2549 0.08911 0.29979 0.0
C4155 C 0.21605 0.97929 0.30694 0.0
C4156 C 0.18061 0.02883 0.30919 0.0
C4157 C 0.21038 0.94867 0.30708 0.0
C4158 C 0.21868 0.16119 0.30629 0.0
C4159 C 0.2075 0.12888 0.30616 0.0
C4160 C 0.23422 0.07268 0.30249 0.0
C4161 C 0.19148 0.98554 0.30608 0.0
C4162 C 0.19866 0.01869 0.30576 0.0
C4163 C 0.22831 0.11728 0.30664 0.0
C4164 C 0.21704 0.0831 0.30614 0.0
H4165 H 0.1312 0.91001 0.30509 0.0
H4166 H 0.14128 0.96413 0.30484 0.0
H4167 H 0.23918 0.03394 0.29947 0.0
H4168 H 0.29637 0.18665 0.30825 0.0
H4169 H 0.27701 0.13062 0.30798 0.0
C4170 C 0.16256 0.26028 0.30756 0.0
C4171 C 0.16802 0.29056 0.30619 0.0
C4172 C 0.13176 0.23499 0.30809 0.0
C4173 C 0.05134 0.21979 0.31138 0.0
H4174 H 1.02304 0.13854 0.30353 0.0
C4175 C 0.92104 0.13323 0.30689 0.0
C4176 C 0.90939 0.1013 0.3082 0.0
C4177 C 0.95316 0.15456 0.3071 0.0
C4178 C 0.03069 0.16099 0.30582 0.0
H4179 H 0.14529 0.3175 0.30395 0.0
H4180 H 0.09252 0.27399 0.30479 0.0
H4181 H 0.07859 0.17857 0.303 0.0
H4182 H 0.92286 0.06704 0.31086 0.0
H4183 H 0.97902 0.10433 0.31114 0.0
H4184 H 1.00363 0.20268 0.3141 0.0
C4185 C 0.11171 0.26968 0.30565 0.0
C4186 C 0.06251 0.1839 0.30552 0.0
C4187 C 0.14214 0.2947 0.30513 0.0
C4188 C 0.9309 0.09134 0.30973 0.0
C4189 C 0.96313 0.1127 0.3099 0.0
C4190 C 1.0197 0.19706 0.31166 0.0
C4191 C 0.10599 0.23963 0.30727 0.0
C4192 C 0.07306 0.21383 0.30817 0.0
C4193 C 0.97463 0.14459 0.3086 0.0
C4194 C 1.00882 0.16761 0.30876 0.0
H4195 H 0.18196 0.25629 0.30839 0.0
H4196 H 0.12813 0.21206 0.30933 0.0
H4197 H 0.05875 0.24231 0.31362 0.0
H4198 H 0.9054 0.14176 0.30555 0.0
H4199 H 0.96125 0.17886 0.30596 0.0
C4200 C 0.97709 0.84957 0.30154 0.0
C4201 C 0.99085 0.84569 0.30723 0.0
C4202 C 0.95693 0.86179 0.30188 0.0
C4203 C 0.90425 0.87073 0.31335 0.0
H4204 H 0.90207 0.92453 0.29974 0.0
C4205 C 0.79621 0.88312 0.30895 0.0
C4206 C 0.79993 0.91254 0.30734 0.0
C4207 C 0.82199 0.87878 0.30939 0.0
C4208 C 0.90261 0.90985 0.30363 0.0
H4209 H 0.99438 0.85208 0.31776 0.0
H4210 H 0.95938 0.87364 0.31837 0.0
H4211 H 0.94319 0.91063 0.29963 0.0
H4212 H 0.8341 0.96062 0.30501 0.0
H4213 H 0.87946 0.95293 0.30575 0.0
H4214 H 0.86361 0.86971 0.31732 0.0
C4215 C 0.96403 0.86699 0.31363 0.0
C4216 C 0.92596 0.90157 0.30353 0.0
C4217 C 0.98432 0.85487 0.31328 0.0
C4218 C 0.83035 0.93767 0.30625 0.0
C4219 C 0.85631 0.93322 0.30664 0.0
C4220 C 0.88089 0.8789 0.31344 0.0
C4221 C 0.94989 0.8704 0.30794 0.0
C4222 C 0.92676 0.88147 0.30833 0.0
C4223 C 0.85237 0.90366 0.30823 0.0
C4224 C 0.87938 0.89805 0.30851 0.0
H4225 H 0.98195 0.8432 0.29679 0.0
H4226 H 0.94624 0.86375 0.29741 0.0
H4227 H 0.90395 0.85505 0.31711 0.0
H4228 H 0.77324 0.86315 0.30986 0.0
H4229 H 0.81797 0.85559 0.31051 0.0
C4230 C 0.27094 0.8169 0.89815 0.0
C4231 C 0.26474 0.84143 0.89701 0.0
C4232 C 0.30195 0.8227 0.89817 0.0
C4233 C 0.3828 0.88812 0.90062 0.0
H4234 H 0.40976 0.83636 0.8917 0.0
C4235 C 0.51293 0.93317 0.89571 0.0
C4236 C 0.52457 0.91266 0.8967 0.0
C4237 C 0.48074 0.92213 0.89576 0.0
C4238 C 0.40254 0.85087 0.89428 0.0
H4239 H 0.28649 0.89103 0.89472 0.0
H4240 H 0.33953 0.90078 0.89475 0.0
H4241 H 0.35404 0.82046 0.89191 0.0
H4242 H 0.5111 0.86412 0.89841 0.0
H4243 H 0.45481 0.84483 0.89848 0.0
H4244 H 0.43092 0.91862 0.90297 0.0
C4245 C 0.32076 0.87724 0.89576 0.0
C4246 C 0.37061 0.84171 0.8944 0.0
C4247 C 0.29012 0.87151 0.89572 0.0
C4248 C 0.50301 0.88058 0.89757 0.0
C4249 C 0.4707 0.8695 0.89762 0.0
C4250 C 0.41451 0.89722 0.9005 0.0
C4251 C 0.32723 0.85315 0.8971 0.0
C4252 C 0.36047 0.86062 0.89746 0.0
C4253 C 0.45917 0.89022 0.89681 0.0
C4254 C 0.42495 0.87909 0.89722 0.0
H4255 H 0.25198 0.79343 0.89913 0.0
H4256 H 0.30617 0.8036 0.89921 0.0
H4257 H 0.37575 0.90288 0.90315 0.0
H4258 H 0.52874 0.95789 0.89488 0.0
H4259 H 0.47272 0.93868 0.89496 0.0
C4260 C 0.16252 0.61787 0.89591 0.0
C4261 C 0.18294 0.65012 0.89677 0.0
C4262 C 0.17374 0.59689 0.89603 0.0
C4263 C 0.24469 0.58981 0.89443 0.0
H4264 H 0.19409 0.51276 0.90403 0.0
C4265 C 0.27838 0.49206 0.8983 0.0
C4266 C 0.25345 0.46133 0.8974 0.0
C4267 C 0.27288 0.51744 0.89839 0.0
C4268 C 0.20845 0.53407 0.9013 0.0
H4269 H 0.23151 0.68554 0.89829 0.0
H4270 H 0.25112 0.64878 0.89845 0.0
H4271 H 0.17844 0.55226 0.90369 0.0
H4272 H 0.20332 0.43363 0.89567 0.0
H4273 H 0.19409 0.4772 0.89578 0.0
H4274 H 0.27449 0.57109 0.89198 0.0
C4275 C 0.22639 0.63984 0.89765 0.0
C4276 C 0.19941 0.55672 0.90109 0.0
C4277 C 0.21512 0.6609 0.89755 0.0
C4278 C 0.22319 0.45677 0.89646 0.0
C4279 C 0.21776 0.48186 0.89656 0.0
C4280 C 0.25375 0.56698 0.89463 0.0
C4281 C 0.20573 0.6075 0.89701 0.0
C4282 C 0.21699 0.58459 0.89754 0.0
C4283 C 0.24234 0.51247 0.89761 0.0
C4284 C 0.23529 0.53852 0.89795 0.0
H4285 H 0.13773 0.60876 0.89515 0.0
H4286 H 0.15726 0.57221 0.89537 0.0
H4287 H 0.25876 0.61104 0.89165 0.0
H4288 H 0.302 0.49646 0.89901 0.0
H4289 H 0.29234 0.5408 0.8992 0.0
C4290 C 0.47394 0.58339 0.89403 0.0
C4291 C 0.4426 0.57132 0.89593 0.0
C4292 C 0.49438 0.6157 0.89365 0.0
C4293 C 0.50684 0.69144 0.89985 0.0
H4294 H 0.56747 0.72489 0.88574 0.0
C4295 C 0.60098 0.82433 0.89751 0.0
C4296 C 0.63132 0.83002 0.89611 0.0
C4297 C 0.57511 0.79382 0.89709 0.0
C4298 C 0.55077 0.71595 0.88973 0.0
H4299 H 0.40831 0.58403 0.89899 0.0
H4300 H 0.444 0.6405 0.89829 0.0
H4301 H 0.528 0.66959 0.88579 0.0
H4302 H 0.65792 0.80795 0.89306 0.0
H4303 H 0.61351 0.75568 0.89238 0.0
H4304 H 0.53021 0.73788 0.90384 0.0
C4305 C 0.45275 0.62487 0.8971 0.0
C4306 C 0.52816 0.68419 0.88976 0.0
C4307 C 0.43222 0.59249 0.89744 0.0
C4308 C 0.63503 0.80468 0.8942 0.0
C4309 C 0.6094 0.77453 0.89374 0.0
C4310 C 0.52959 0.72333 0.89982 0.0
C4311 C 0.48411 0.6369 0.8952 0.0
C4312 C 0.50632 0.67133 0.8949 0.0
C4313 C 0.57909 0.76857 0.89519 0.0
C4314 C 0.55231 0.73581 0.89483 0.0
H4315 H 0.48268 0.56782 0.89278 0.0
H4316 H 0.51845 0.62408 0.89225 0.0
H4317 H 0.49047 0.68231 0.90389 0.0
H4318 H 0.59726 0.84328 0.89899 0.0
H4319 H 0.55202 0.79002 0.89822 0.0
C4320 C 0.83098 0.91592 0.73005 0.0
C4321 C 0.85143 0.90441 0.72881 0.0
C4322 C 0.84157 0.948 0.72975 0.0
C4323 C 0.91227 0.02568 0.73099 0.0
H4324 H 0.85948 0.0534 0.72279 0.0
C4325 C 0.94571 0.1575 0.72905 0.0
C4326 C 0.92096 0.16334 0.73019 0.0
C4327 C 0.93987 0.12659 0.72853 0.0
C4328 C 0.87444 0.0461 0.72515 0.0
H4329 H 0.89924 0.91809 0.72617 0.0
H4330 H 0.91776 0.97415 0.72577 0.0
H4331 H 0.844 0.99825 0.72253 0.0
H4332 H 0.87088 0.14104 0.73195 0.0
H4333 H 0.86106 0.08811 0.73115 0.0
H4334 H 0.94237 0.07363 0.73375 0.0
C4335 C 0.89352 0.95819 0.72701 0.0
C4336 C 0.86554 1.01443 0.72499 0.0
C4337 C 0.88286 0.92601 0.72726 0.0
C4338 C 0.89056 0.13767 0.73096 0.0
C4339 C 0.88481 0.1071 0.73047 0.0
C4340 C 0.92114 0.05749 0.73119 0.0
C4341 C 0.87297 0.96955 0.72825 0.0
C4342 C 0.88399 1.0037 0.72801 0.0
C4343 C 0.90919 0.10103 0.72914 0.0
C4344 C 0.90194 0.06797 0.72839 0.0
H4345 H 0.80683 0.90022 0.7314 0.0
H4346 H 0.82523 0.95601 0.73084 0.0
H4347 H 0.92696 0.01813 0.73338 0.0
H4348 H 0.9694 0.1767 0.72844 0.0
H4349 H 0.95922 0.12274 0.72751 0.0
C4350 C 0.95829 0.78995 0.7298 0.0
C4351 C 0.93253 0.79449 0.73068 0.0
C4352 C 0.98879 0.81504 0.72994 0.0
C4353 C 0.03815 0.89998 0.72799 0.0
H4354 H 0.09797 0.88523 0.73736 0.0
C4355 C 0.17084 0.99336 0.73096 0.0
C4356 C 0.19205 0.98227 0.7303 0.0
C4357 C 0.13846 0.9725 0.73106 0.0
C4358 C 0.08167 0.8897 0.73467 0.0
H4359 H 0.91905 0.82962 0.73221 0.0
H4360 H 0.97303 0.87397 0.73247 0.0
H4361 H 0.04274 0.84596 0.73763 0.0
H4362 H 0.19552 0.94055 0.72892 0.0
H4363 H 0.13938 0.90438 0.72913 0.0
H4364 H 0.07751 0.94378 0.72499 0.0
C4365 C 0.96916 0.85061 0.73168 0.0
C4366 C 0.04995 0.86719 0.73484 0.0
C4367 C 0.93828 0.82522 0.73155 0.0
C4368 C 0.18 0.94991 0.72958 0.0
C4369 C 0.14774 0.92914 0.7297 0.0
C4370 C 0.0701 0.92267 0.72783 0.0
C4371 C 0.99477 0.84564 0.73098 0.0
C4372 C 0.02784 0.87164 0.73137 0.0
C4373 C 0.12655 0.94008 0.73055 0.0
C4374 C 0.09231 0.91742 0.73105 0.0
H4375 H 0.95508 0.76682 0.72902 0.0
H4376 H 1.00784 0.81039 0.72922 0.0
H4377 H 1.02173 0.90407 0.72525 0.0
H4378 H 0.17926 0.01809 0.73159 0.0
H4379 H 0.12281 0.9817 0.73175 0.0
C4380 C 0.30602 0.20268 0.73148 0.0
C4381 C 0.3016 0.17249 0.73055 0.0
C4382 C 0.28111 0.20828 0.73097 0.0
C4383 C 0.19511 0.1716 0.73128 0.0
H4384 H 0.21385 0.24975 0.72293 0.0
C4385 C 0.10261 0.21089 0.72716 0.0
C4386 C 0.11235 0.24203 0.72893 0.0
C4387 C 0.124 0.20006 0.72694 0.0
C4388 C 0.20825 0.22791 0.7253 0.0
H4389 H 0.26697 0.12421 0.72854 0.0
H4390 H 0.223 0.13415 0.72758 0.0
H4391 H 0.25351 0.23427 0.72326 0.0
H4392 H 0.1525 0.28591 0.73197 0.0
H4393 H 0.18968 0.26729 0.73142 0.0
H4394 H 0.14966 0.16549 0.73332 0.0
C4395 C 0.24603 0.15344 0.72874 0.0
C4396 C 0.231 0.21901 0.7255 0.0
C4397 C 0.27119 0.14774 0.72928 0.0
C4398 C 0.14412 0.26203 0.73043 0.0
C4399 C 0.1655 0.2513 0.73015 0.0
C4400 C 0.17216 0.18046 0.73104 0.0
C4401 C 0.25088 0.18396 0.72947 0.0
C4402 C 0.22508 0.19117 0.72865 0.0
C4403 C 0.15572 0.2202 0.72841 0.0
C4404 C 0.17877 0.2091 0.72818 0.0
H4405 H 0.32893 0.2223 0.73259 0.0
H4406 H 0.28564 0.23188 0.73177 0.0
H4407 H 0.18978 0.15008 0.73376 0.0
H4408 H 0.07848 0.19486 0.72587 0.0
H4409 H 0.11581 0.17605 0.72552 0.0
C4410 C 0.81032 0.21634 0.1414 0.0
C4411 C 0.83661 0.24627 0.14051 0.0
C4412 C 0.78044 0.21235 0.142 0.0
C4413 C 0.73137 0.24568 0.13787 0.0
H4414 H 0.67666 0.18663 0.15097 0.0
C4415 C 0.59989 0.20968 0.14057 0.0
C4416 C 0.57902 0.17744 0.14143 0.0
C4417 C 0.63231 0.22184 0.14095 0.0
C4418 C 0.69153 0.20305 0.14726 0.0
H4419 H 0.85179 0.29557 0.1395 0.0
H4420 H 0.79883 0.2884 0.14047 0.0
H4421 H 0.73185 0.20205 0.15077 0.0
H4422 H 0.576 0.13292 0.14349 0.0
H4423 H 0.63227 0.15393 0.14406 0.0
H4424 H 0.69067 0.24591 0.13424 0.0
C4425 C 0.8018 0.26812 0.14072 0.0
C4426 C 0.72321 0.21199 0.14716 0.0
C4427 C 0.83207 0.27222 0.14018 0.0
C4428 C 0.59136 0.15778 0.14274 0.0
C4429 C 0.62367 0.16993 0.14315 0.0
C4430 C 0.69951 0.23666 0.13796 0.0
C4431 C 0.77572 0.23808 0.1417 0.0
C4432 C 0.74334 0.23271 0.14236 0.0
C4433 C 0.64461 0.2021 0.14224 0.0
C4434 C 0.67905 0.21456 0.14255 0.0
H4435 H 0.81267 0.19569 0.14168 0.0
H4436 H 0.76086 0.18885 0.14262 0.0
H4437 H 0.74627 0.26157 0.13408 0.0
H4438 H 0.5912 0.22545 0.13949 0.0
H4439 H 0.64774 0.24673 0.14026 0.0
C4440 C 0.93213 0.46212 0.14138 0.0
C4441 C 0.91117 0.42967 0.14141 0.0
C4442 C 0.9212 0.48333 0.14141 0.0
C4443 C 0.85312 0.49266 0.13763 0.0
H4444 H 0.89711 0.56572 0.14871 0.0
C4445 C 0.82064 0.59198 0.13987 0.0
C4446 C 0.84653 0.62257 0.13975 0.0
C4447 C 0.82507 0.56596 0.14029 0.0
C4448 C 0.88463 0.54554 0.14556 0.0
H4449 H 0.86194 0.39427 0.14138 0.0
H4450 H 0.84285 0.4315 0.14136 0.0
H4451 H 0.91142 0.5252 0.14898 0.0
H4452 H 0.8974 0.64941 0.13981 0.0
H4453 H 0.90482 0.60473 0.1405 0.0
H4454 H 0.82667 0.51359 0.13414 0.0
C4455 C 0.86784 0.4404 0.14131 0.0
C4456 C 0.89288 0.5223 0.14571 0.0
C4457 C 0.87882 0.41906 0.14131 0.0
C4458 C 0.87676 0.62638 0.13996 0.0
C4459 C 0.88111 0.60063 0.14039 0.0
C4460 C 0.84485 0.51609 0.13747 0.0
C4461 C 0.88893 0.47282 0.14143 0.0
C4462 C 0.87779 0.49591 0.14164 0.0
C4463 C 0.85543 0.5701 0.14065 0.0
C4464 C 0.86109 0.5432 0.14132 0.0
H4465 H 0.95717 0.47127 0.14128 0.0
H4466 H 0.93813 0.50813 0.14135 0.0
H4467 H 0.84103 0.47263 0.13443 0.0
H4468 H 0.79705 0.58814 0.13972 0.0
H4469 H 0.80477 0.5427 0.14047 0.0
C4470 C 0.66751 0.49265 0.14288 0.0
C4471 C 0.65751 0.51421 0.14143 0.0
C4472 C 0.64607 0.46046 0.14315 0.0
C4473 C 0.56203 0.40405 0.14544 0.0
H4474 H 0.5792 0.34491 0.1365 0.0
C4475 C 0.46354 0.28082 0.13961 0.0
C4476 C 0.46828 0.25511 0.14031 0.0
C4477 C 0.48839 0.31138 0.14007 0.0
C4478 C 0.57424 0.36103 0.13911 0.0
H4479 H 0.61682 0.51827 0.13904 0.0
H4480 H 0.57959 0.46247 0.13966 0.0
H4481 H 0.61922 0.40045 0.1368 0.0
H4482 H 0.50343 0.24171 0.1419 0.0
H4483 H 0.5473 0.29569 0.14277 0.0
H4484 H 0.51721 0.36503 0.14775 0.0
C4485 C 0.60403 0.47052 0.14064 0.0
C4486 C 0.59715 0.39287 0.13927 0.0
C4487 C 0.62543 0.50262 0.14031 0.0
C4488 C 0.49893 0.26094 0.14134 0.0
C4489 C 0.52405 0.29185 0.14183 0.0
C4490 C 0.53931 0.37236 0.14531 0.0
C4491 C 0.61406 0.44901 0.14205 0.0
C4492 C 0.59101 0.41484 0.14232 0.0
C4493 C 0.51891 0.31743 0.1413 0.0
C4494 C 0.54476 0.3505 0.14201 0.0
H4495 H 0.69191 0.50062 0.14387 0.0
H4496 H 0.65451 0.44455 0.14432 0.0
H4497 H 0.5568 0.42021 0.14796 0.0
H4498 H 0.44044 0.27747 0.1387 0.0
H4499 H 0.48359 0.33037 0.13944 0.0
C4500 C 0.87723 0.28063 0.63945 0.0
C4501 C 0.84703 0.25499 0.64047 0.0
C4502 C 0.88302 0.3112 0.63996 0.0
C4503 C 0.84652 0.36075 0.63979 0.0
H4504 H 0.92543 0.42031 0.64781 0.0
C4505 C 0.88626 0.49261 0.64386 0.0
C4506 C 0.91723 0.51396 0.64194 0.0
C4507 C 0.87545 0.46041 0.6441 0.0
C4508 C 0.90338 0.40402 0.64554 0.0
H4509 H 0.79893 0.24163 0.64264 0.0
H4510 H 0.8092 0.29562 0.6436 0.0
H4511 H 0.90983 0.36513 0.64753 0.0
H4512 H 0.9608 0.5176 0.63867 0.0
H4513 H 0.94222 0.46181 0.63925 0.0
H4514 H 0.8403 0.40007 0.63782 0.0
C4515 C 0.82836 0.29175 0.64237 0.0
C4516 C 0.89441 0.37235 0.64536 0.0
C4517 C 0.82247 0.26083 0.64184 0.0
C4518 C 0.93707 0.50214 0.64031 0.0
C4519 C 0.92637 0.47005 0.64062 0.0
C4520 C 0.85545 0.39258 0.64001 0.0
C4521 C 0.85889 0.3173 0.64154 0.0
C4522 C 0.86627 0.35037 0.64234 0.0
C4523 C 0.89543 0.44878 0.6425 0.0
C4524 C 0.88434 0.41464 0.64276 0.0
H4525 H 0.89671 0.27721 0.63827 0.0
H4526 H 0.90661 0.33017 0.63908 0.0
H4527 H 0.82477 0.34452 0.63741 0.0
H4528 H 0.87036 0.50076 0.64524 0.0
H4529 H 0.85158 0.44463 0.64563 0.0
C4530 C 0.83158 0.59678 0.64076 0.0
C4531 C 0.83807 0.62708 0.63907 0.0
C4532 C 0.80047 0.57205 0.64117 0.0
C4533 C 0.71983 0.55897 0.64323 0.0
H4534 H 0.69255 0.47506 0.637 0.0
C4535 C 0.58998 0.46984 0.63873 0.0
C4536 C 0.5784 0.43876 0.6408 0.0
C4537 C 0.62205 0.49145 0.63888 0.0
C4538 C 0.69989 0.49831 0.63883 0.0
H4539 H 0.81695 0.65463 0.6361 0.0
H4540 H 0.76354 0.61197 0.63667 0.0
H4541 H 0.74812 0.51488 0.63649 0.0
H4542 H 0.59199 0.40638 0.64474 0.0
H4543 H 0.64805 0.44407 0.64488 0.0
H4544 H 0.67174 0.54275 0.64545 0.0
C4545 C 0.78213 0.60725 0.63791 0.0
C4546 C 0.73174 0.52112 0.63854 0.0
C4547 C 0.81293 0.63177 0.63754 0.0
C4548 C 0.59995 0.42994 0.64301 0.0
C4549 C 0.63213 0.45154 0.64311 0.0
C4550 C 0.68813 0.53634 0.64347 0.0
C4551 C 0.77533 0.5772 0.63987 0.0
C4552 C 0.74202 0.55193 0.64063 0.0
C4553 C 0.64354 0.48259 0.64106 0.0
C4554 C 0.67766 0.50587 0.64118 0.0
H4555 H 0.85041 0.59238 0.64197 0.0
H4556 H 0.79609 0.54919 0.6427 0.0
H4557 H 0.72692 0.58218 0.64505 0.0
H4558 H 0.57435 0.47744 0.63685 0.0
H4559 H 0.6301 0.51505 0.63717 0.0
C4560 C 0.6238 0.15595 0.64008 0.0
C4561 C 0.6555 0.17595 0.64164 0.0
C4562 C 0.60236 0.16661 0.64035 0.0
C4563 C 0.59556 0.23745 0.63955 0.0
H4564 H 0.51396 0.18325 0.64719 0.0
C4565 C 0.49688 0.27056 0.6414 0.0
C4566 C 0.4664 0.24599 0.6401 0.0
C4567 C 0.5219 0.26464 0.64191 0.0
C4568 C 0.53653 0.19862 0.64498 0.0
H4569 H 0.68917 0.22305 0.64479 0.0
H4570 H 0.65173 0.24172 0.64511 0.0
H4571 H 0.55358 0.16771 0.64749 0.0
H4572 H 0.4388 0.19624 0.63802 0.0
H4573 H 0.48186 0.18628 0.6388 0.0
H4574 H 0.57807 0.26802 0.6369 0.0
C4575 C 0.64364 0.21778 0.64366 0.0
C4576 C 0.55927 0.18968 0.64517 0.0
C4577 C 0.6651 0.20703 0.64346 0.0
C4578 C 0.46177 0.21574 0.63914 0.0
C4579 C 0.48655 0.20992 0.63963 0.0
C4580 C 0.57263 0.24634 0.63932 0.0
C4581 C 0.61199 0.19764 0.64213 0.0
C4582 C 0.58886 0.20866 0.64235 0.0
C4583 C 0.51686 0.23406 0.64114 0.0
C4584 C 0.54257 0.22667 0.64191 0.0
H4585 H 0.61553 0.13214 0.63852 0.0
H4586 H 0.57823 0.15063 0.63903 0.0
H4587 H 0.61814 0.25256 0.63732 0.0
H4588 H 0.50127 0.29413 0.64216 0.0
H4589 H 0.54498 0.28381 0.64308 0.0
C4590 C 0.93753 0.1518 0.22926 0.0
C4591 C 0.93203 0.17663 0.23059 0.0
C4592 C 0.96832 0.15738 0.22865 0.0
C4593 C 0.04883 0.22253 0.22524 0.0
H4594 H 0.07681 0.16952 0.23324 0.0
C4595 C 0.17888 0.26586 0.23006 0.0
C4596 C 0.19052 0.24558 0.22875 0.0
C4597 C 0.14679 0.25519 0.22976 0.0
C4598 C 0.06925 0.18434 0.23091 0.0
H4599 H 0.95482 0.22651 0.23259 0.0
H4600 H 1.00754 0.23587 0.23162 0.0
H4601 H 1.02131 0.15417 0.23371 0.0
H4602 H 0.17708 0.198 0.22599 0.0
H4603 H 0.12098 0.17931 0.22559 0.0
H4604 H 0.09664 0.25304 0.22257 0.0
C4605 C 0.98836 0.21228 0.23086 0.0
C4606 C 0.03745 0.17551 0.23117 0.0
C4607 C 0.95792 0.20679 0.23146 0.0
C4608 C 0.16904 0.21424 0.22712 0.0
C4609 C 0.13685 0.20349 0.22688 0.0
C4610 C 0.08047 0.23138 0.22501 0.0
C4611 C 0.99408 0.18786 0.22934 0.0
C4612 C 0.027 0.19491 0.22847 0.0
C4613 C 0.12536 0.22387 0.22818 0.0
C4614 C 0.09121 0.21277 0.22796 0.0
H4615 H 0.91815 0.12828 0.22857 0.0
H4616 H 0.97193 0.13801 0.22748 0.0
H4617 H 0.04151 0.23765 0.22296 0.0
H4618 H 0.19448 0.28992 0.23146 0.0
H4619 H 0.13868 0.27138 0.2309 0.0
C4620 C 0.8303 0.95334 0.22898 0.0
C4621 C 0.8507 0.98562 0.22983 0.0
C4622 C 0.8415 0.93234 0.22917 0.0
C4623 C 0.9123 0.92505 0.22767 0.0
H4624 H 0.86171 0.84843 0.23742 0.0
C4625 C 0.946 0.82741 0.23163 0.0
C4626 C 0.92103 0.79661 0.23084 0.0
C4627 C 0.94046 0.85278 0.2317 0.0
C4628 C 0.87607 0.86961 0.23464 0.0
H4629 H 0.89924 0.02102 0.23139 0.0
H4630 H 0.91881 0.98423 0.23165 0.0
H4631 H 0.84615 0.88798 0.23697 0.0
H4632 H 0.87076 0.76876 0.2293 0.0
H4633 H 0.86148 0.81229 0.22938 0.0
H4634 H 0.94198 0.90614 0.22527 0.0
C4635 C 0.8941 0.97529 0.23082 0.0
C4636 C 0.86709 0.89229 0.23437 0.0
C4637 C 0.88285 0.99638 0.23066 0.0
C4638 C 0.89067 0.79196 0.23001 0.0
C4639 C 0.88522 0.81704 0.23008 0.0
C4640 C 0.92129 0.90217 0.22792 0.0
C4641 C 0.87345 0.94295 0.2302 0.0
C4642 C 0.88466 0.92002 0.23078 0.0
C4643 C 0.90985 0.84774 0.23101 0.0
C4644 C 0.90284 0.87385 0.23129 0.0
H4645 H 0.80554 0.94422 0.22818 0.0
H4646 H 0.82502 0.90765 0.22852 0.0
H4647 H 0.92637 0.94617 0.22486 0.0
H4648 H 0.96969 0.83188 0.23225 0.0
H4649 H 0.95998 0.87619 0.23242 0.0
C4650 C 0.10187 0.92733 0.23061 0.0
C4651 C 0.11218 0.90588 0.22935 0.0
C4652 C 0.12303 0.95963 0.23061 0.0
C4653 C 0.20752 0.01568 0.23263 0.0
H4654 H 0.18891 0.07657 0.225 0.0
C4655 C 0.30467 0.14035 0.22764 0.0
C4656 C 0.30038 0.16547 0.22945 0.0
C4657 C 0.27974 0.10974 0.22765 0.0
C4658 C 0.19425 0.05986 0.22722 0.0
H4659 H 0.15267 0.90183 0.22681 0.0
H4660 H 0.1894 0.95787 0.2268 0.0
H4661 H 0.14914 0.02083 0.22486 0.0
H4662 H 0.26582 0.17791 0.23241 0.0
H4663 H 0.22176 0.12377 0.23243 0.0
H4664 H 0.25255 0.05432 0.23494 0.0
C4665 C 0.16509 0.94978 0.22793 0.0
C4666 C 0.17152 0.02794 0.22714 0.0
C4667 C 0.14399 0.91759 0.22793 0.0
C4668 C 0.26998 0.15914 0.23102 0.0
C4669 C 0.24477 0.12817 0.23102 0.0
C4670 C 0.2301 0.04738 0.23271 0.0
C4671 C 0.15501 0.97123 0.22937 0.0
C4672 C 0.17814 1.0054 0.22974 0.0
C4673 C 0.24961 0.10309 0.22947 0.0
C4674 C 0.22404 0.06983 0.22989 0.0
H4675 H 0.07759 0.91915 0.23179 0.0
H4676 H 0.1145 0.97545 0.23178 0.0
H4677 H 0.21317 0.99915 0.23484 0.0
H4678 H 0.32753 0.14417 0.22627 0.0
H4679 H 0.28417 0.09112 0.22626 0.0
loop_
_geom_bond_atom_site_label_1
_geom_bond_atom_site_label_2
_geom_bond_distance
_geom_bond_site_symmetry_2
_ccdc_geom_bond_type
La0 C2 2.928 . S
La0 O20 2.521 . S
La0 O21 2.628 . S
La0 O22 2.554 . S
La0 O23 2.757 . S
La0 O24 2.470 . S
La0 O29 2.482 . S
La0 O31 2.503 . S
La1 C11 2.928 1_545 S
La1 O23 2.482 . S
La1 O25 2.503 . S
La1 O26 2.521 1_545 S
La1 O27 2.628 1_545 S
La1 O28 2.554 . S
La1 O29 2.757 . S
La1 O30 2.470 1_545 S
C2 La0 2.928 . S
C2 C3 1.503 . S
C2 O20 1.261 . S
C2 O21 1.243 . S
C3 C2 1.503 . S
C3 C4 1.394 . S
C3 C8 1.373 . S
C4 C3 1.394 . S
C4 C5 1.380 . S
C4 H32 0.930 . S
C5 C4 1.380 . S
C5 C6 1.376 . S
C5 H33 0.930 . S
C6 C5 1.376 . S
C6 C7 1.370 . S
C7 C6 1.370 . S
C7 C8 1.396 . S
C7 H34 0.929 . S
C8 C3 1.373 . S
C8 C7 1.396 . S
C8 H35 0.929 . S
C9 O22 1.240 . S
C9 O23 1.289 . S
C10 O24 1.258 . S
C10 O25 1.256 . S
C11 La1 2.928 1_565 S
C11 C12 1.503 . S
C11 O26 1.261 . S
C11 O27 1.243 . S
C12 C11 1.503 . S
C12 C13 1.394 . S
C12 C17 1.373 . S
C13 C12 1.394 . S
C13 C14 1.380 . S
C13 H36 0.930 . S
C14 C13 1.380 . S
C14 C15 1.376 . S
C14 H37 0.930 . S
C15 C14 1.376 . S
C15 C16 1.370 . S
C16 C15 1.370 . S
C16 C17 1.396 . S
C16 H38 0.929 . S
C17 C12 1.373 . S
C17 C16 1.396 . S
C17 H39 0.929 . S
C18 O28 1.240 . S
C18 O29 1.289 . S
C19 O30 1.258 . S
C19 O31 1.256 1_565 S
O20 La0 2.521 . S
O20 C2 1.261 . S
O21 La0 2.628 . S
O21 C2 1.243 . S
O22 La0 2.554 . S
O22 C9 1.240 . S
O23 La0 2.757 . S
O23 La1 2.482 . S
O23 C9 1.289 . S
O24 La0 2.470 . S
O24 C10 1.258 . S
O25 La1 2.503 . S
O25 C10 1.256 . S
O26 La1 2.521 1_565 S
O26 C11 1.261 . S
O27 La1 2.628 1_565 S
O27 C11 1.243 . S
O28 La1 2.554 . S
O28 C18 1.240 . S
O29 La0 2.482 . S
O29 La1 2.757 . S
O29 C18 1.289 . S
O30 La1 2.470 1_565 S
O30 C19 1.258 . S
O31 La0 2.503 . S
O31 C19 1.256 1_545 S
H32 C4 0.930 . S
H33 C5 0.930 . S
H34 C7 0.929 . S
H35 C8 0.929 . S
H36 C13 0.930 . S
H37 C14 0.930 . S
H38 C16 0.929 . S
H39 C17 0.929 . S
La40 C42 2.928 . S
La40 O60 2.521 . S
La40 O61 2.628 . S
La40 O62 2.554 1_655 S
La40 O63 2.757 1_655 S
La40 O64 2.470 . S
La40 O69 2.482 1_655 S
La40 O71 2.503 1_655 S
La41 C51 2.928 . S
La41 O63 2.482 . S
La41 O65 2.503 1_455 S
La41 O66 2.521 . S
La41 O67 2.628 . S
La41 O68 2.554 . S
La41 O69 2.757 . S
La41 O70 2.470 . S
C42 La40 2.928 . S
C42 C43 1.503 . S
C42 O60 1.261 . S
C42 O61 1.243 . S
C43 C42 1.503 . S
C43 C44 1.394 . S
C43 C48 1.373 . S
C44 C43 1.394 . S
C44 C45 1.380 . S
C44 H72 0.930 . S
C45 C44 1.380 . S
C45 C46 1.376 . S
C45 H73 0.930 . S
C46 C45 1.376 . S
C46 C47 1.370 . S
C47 C46 1.370 . S
C47 C48 1.396 . S
C47 H74 0.929 . S
C48 C43 1.373 . S
C48 C47 1.396 . S
C48 H75 0.929 . S
C49 O62 1.240 . S
C49 O63 1.289 . S
C50 O64 1.258 . S
C50 O65 1.256 . S
C51 La41 2.928 . S
C51 C52 1.503 . S
C51 O66 1.261 . S
C51 O67 1.243 . S
C52 C51 1.503 . S
C52 C53 1.394 . S
C52 C57 1.373 . S
C53 C52 1.394 . S
C53 C54 1.380 . S
C53 H76 0.930 . S
C54 C53 1.380 . S
C54 C55 1.376 . S
C54 H77 0.930 . S
C55 C54 1.376 . S
C55 C56 1.370 . S
C56 C55 1.370 . S
C56 C57 1.396 . S
C56 H78 0.929 . S
C57 C52 1.373 . S
C57 C56 1.396 . S
C57 H79 0.929 . S
C58 O68 1.240 . S
C58 O69 1.289 . S
C59 O70 1.258 . S
C59 O71 1.256 . S
O60 La40 2.521 . S
O60 C42 1.261 . S
O61 La40 2.628 . S
O61 C42 1.243 . S
O62 La40 2.554 1_455 S
O62 C49 1.240 . S
O63 La40 2.757 1_455 S
O63 La41 2.482 . S
O63 C49 1.289 . S
O64 La40 2.470 . S
O64 C50 1.258 . S
O65 La41 2.503 1_655 S
O65 C50 1.256 . S
O66 La41 2.521 . S
O66 C51 1.261 . S
O67 La41 2.628 . S
O67 C51 1.243 . S
O68 La41 2.554 . S
O68 C58 1.240 . S
O69 La40 2.482 1_455 S
O69 La41 2.757 . S
O69 C58 1.289 . S
O70 La41 2.470 . S
O70 C59 1.258 . S
O71 La40 2.503 1_455 S
O71 C59 1.256 . S
H72 C44 0.930 . S
H73 C45 0.930 . S
H74 C47 0.929 . S
H75 C48 0.929 . S
H76 C53 0.930 . S
H77 C54 0.930 . S
H78 C56 0.929 . S
H79 C57 0.929 . S
La80 C82 2.928 . S
La80 O100 2.521 . S
La80 O101 2.628 . S
La80 O102 2.554 . S
La80 O103 2.757 . S
La80 O104 2.470 . S
La80 O109 2.482 . S
La80 O111 2.503 . S
La81 C91 2.928 . S
La81 O103 2.482 . S
La81 O105 2.503 . S
La81 O106 2.521 . S
La81 O107 2.628 . S
La81 O108 2.554 . S
La81 O109 2.757 . S
La81 O110 2.470 . S
C82 La80 2.928 . S
C82 C83 1.503 . S
C82 O100 1.261 . S
C82 O101 1.243 . S
C83 C82 1.503 . S
C83 C84 1.394 . S
C83 C88 1.373 . S
C84 C83 1.394 . S
C84 C85 1.380 . S
C84 H112 0.930 . S
C85 C84 1.380 . S
C85 C86 1.376 . S
C85 H113 0.930 . S
C86 C85 1.376 . S
C86 C87 1.370 . S
C87 C86 1.370 . S
C87 C88 1.396 . S
C87 H114 0.929 . S
C88 C83 1.373 . S
C88 C87 1.396 . S
C88 H115 0.929 . S
C89 O102 1.240 . S
C89 O103 1.289 . S
C90 O104 1.258 . S
C90 O105 1.256 . S
C91 La81 2.928 . S
C91 C92 1.503 . S
C91 O106 1.261 . S
C91 O107 1.243 . S
C92 C91 1.503 . S
C92 C93 1.394 . S
C92 C97 1.373 . S
C93 C92 1.394 . S
C93 C94 1.380 . S
C93 H116 0.930 . S
C94 C93 1.380 . S
C94 C95 1.376 . S
C94 H117 0.930 . S
C95 C94 1.376 . S
C95 C96 1.370 . S
C96 C95 1.370 . S
C96 C97 1.396 . S
C96 H118 0.929 . S
C97 C92 1.373 . S
C97 C96 1.396 . S
C97 H119 0.929 . S
C98 O108 1.240 . S
C98 O109 1.289 . S
C99 O110 1.258 . S
C99 O111 1.256 . S
O100 La80 2.521 . S
O100 C82 1.261 . S
O101 La80 2.628 . S
O101 C82 1.243 . S
O102 La80 2.554 . S
O102 C89 1.240 . S
O103 La80 2.757 . S
O103 La81 2.482 . S
O103 C89 1.289 . S
O104 La80 2.470 . S
O104 C90 1.258 . S
O105 La81 2.503 . S
O105 C90 1.256 . S
O106 La81 2.521 . S
O106 C91 1.261 . S
O107 La81 2.628 . S
O107 C91 1.243 . S
O108 La81 2.554 . S
O108 C98 1.240 . S
O109 La80 2.482 . S
O109 La81 2.757 . S
O109 C98 1.289 . S
O110 La81 2.470 . S
O110 C99 1.258 . S
O111 La80 2.503 . S
O111 C99 1.256 . S
H112 C84 0.930 . S
H113 C85 0.930 . S
H114 C87 0.929 . S
H115 C88 0.929 . S
H116 C93 0.930 . S
H117 C94 0.930 . S
H118 C96 0.929 . S
H119 C97 0.929 . S
La120 C122 2.928 . S
La120 O140 2.521 . S
La120 O141 2.628 . S
La120 O142 2.554 . S
La120 O143 2.757 . S
La120 O144 2.470 . S
La120 O149 2.482 . S
La120 O151 2.503 . S
La121 C131 2.928 1_455 S
La121 O143 2.482 . S
La121 O145 2.503 . S
La121 O146 2.521 1_455 S
La121 O147 2.628 1_455 S
La121 O148 2.554 . S
La121 O149 2.757 . S
La121 O150 2.470 1_455 S
C122 La120 2.928 . S
C122 C123 1.503 . S
C122 O140 1.261 . S
C122 O141 1.243 . S
C123 C122 1.503 . S
C123 C124 1.394 . S
C123 C128 1.373 . S
C124 C123 1.394 . S
C124 C125 1.380 . S
C124 H152 0.930 . S
C125 C124 1.380 . S
C125 C126 1.376 . S
C125 H153 0.930 . S
C126 C125 1.376 . S
C126 C127 1.370 . S
C127 C126 1.370 . S
C127 C128 1.396 . S
C127 H154 0.929 . S
C128 C123 1.373 . S
C128 C127 1.396 . S
C128 H155 0.929 . S
C129 O142 1.240 . S
C129 O143 1.289 . S
C130 O144 1.258 . S
C130 O145 1.256 . S
C131 La121 2.928 1_655 S
C131 C132 1.503 . S
C131 O146 1.261 . S
C131 O147 1.243 . S
C132 C131 1.503 . S
C132 C133 1.394 . S
C132 C137 1.373 . S
C133 C132 1.394 . S
C133 C134 1.380 . S
C133 H156 0.930 . S
C134 C133 1.380 . S
C134 C135 1.376 . S
C134 H157 0.930 . S
C135 C134 1.376 . S
C135 C136 1.370 . S
C136 C135 1.370 . S
C136 C137 1.396 . S
C136 H158 0.929 . S
C137 C132 1.373 . S
C137 C136 1.396 . S
C137 H159 0.929 . S
C138 O148 1.240 . S
C138 O149 1.289 . S
C139 O150 1.258 . S
C139 O151 1.256 1_655 S
O140 La120 2.521 . S
O140 C122 1.261 . S
O141 La120 2.628 . S
O141 C122 1.243 . S
O142 La120 2.554 . S
O142 C129 1.240 . S
O143 La120 2.757 . S
O143 La121 2.482 . S
O143 C129 1.289 . S
O144 La120 2.470 . S
O144 C130 1.258 . S
O145 La121 2.503 . S
O145 C130 1.256 . S
O146 La121 2.521 1_655 S
O146 C131 1.261 . S
O147 La121 2.628 1_655 S
O147 C131 1.243 . S
O148 La121 2.554 . S
O148 C138 1.240 . S
O149 La120 2.482 . S
O149 La121 2.757 . S
O149 C138 1.289 . S
O150 La121 2.470 1_655 S
O150 C139 1.258 . S
O151 La120 2.503 . S
O151 C139 1.256 1_455 S
H152 C124 0.930 . S
H153 C125 0.930 . S
H154 C127 0.929 . S
H155 C128 0.929 . S
H156 C133 0.930 . S
H157 C134 0.930 . S
H158 C136 0.929 . S
H159 C137 0.929 . S
La160 C162 2.928 . S
La160 O180 2.521 . S
La160 O181 2.628 . S
La160 O182 2.554 . S
La160 O183 2.757 . S
La160 O184 2.470 . S
La160 O189 2.482 . S
La160 O191 2.503 . S
La161 C171 2.928 . S
La161 O183 2.482 . S
La161 O185 2.503 . S
La161 O186 2.521 . S
La161 O187 2.628 . S
La161 O188 2.554 . S
La161 O189 2.757 . S
La161 O190 2.470 . S
C162 La160 2.928 . S
C162 C163 1.503 . S
C162 O180 1.261 . S
C162 O181 1.243 . S
C163 C162 1.503 . S
C163 C164 1.394 . S
C163 C168 1.373 . S
C164 C163 1.394 . S
C164 C165 1.380 . S
C164 H192 0.930 . S
C165 C164 1.380 . S
C165 C166 1.376 . S
C165 H193 0.930 . S
C166 C165 1.376 . S
C166 C167 1.370 . S
C167 C166 1.370 . S
C167 C168 1.396 . S
C167 H194 0.929 . S
C168 C163 1.373 . S
C168 C167 1.396 . S
C168 H195 0.929 . S
C169 O182 1.240 . S
C169 O183 1.289 . S
C170 O184 1.258 . S
C170 O185 1.256 . S
C171 La161 2.928 . S
C171 C172 1.503 . S
C171 O186 1.261 . S
C171 O187 1.243 . S
C172 C171 1.503 . S
C172 C173 1.394 . S
C172 C177 1.373 . S
C173 C172 1.394 . S
C173 C174 1.380 . S
C173 H196 0.930 . S
C174 C173 1.380 . S
C174 C175 1.376 . S
C174 H197 0.930 . S
C175 C174 1.376 . S
C175 C176 1.370 . S
C176 C175 1.370 . S
C176 C177 1.396 . S
C176 H198 0.929 . S
C177 C172 1.373 . S
C177 C176 1.396 . S
C177 H199 0.929 . S
C178 O188 1.240 . S
C178 O189 1.289 . S
C179 O190 1.258 . S
C179 O191 1.256 . S
O180 La160 2.521 . S
O180 C162 1.261 . S
O181 La160 2.628 . S
O181 C162 1.243 . S
O182 La160 2.554 . S
O182 C169 1.240 . S
O183 La160 2.757 . S
O183 La161 2.482 . S
O183 C169 1.289 . S
O184 La160 2.470 . S
O184 C170 1.258 . S
O185 La161 2.503 . S
O185 C170 1.256 . S
O186 La161 2.521 . S
O186 C171 1.261 . S
O187 La161 2.628 . S
O187 C171 1.243 . S
O188 La161 2.554 . S
O188 C178 1.240 . S
O189 La160 2.482 . S
O189 La161 2.757 . S
O189 C178 1.289 . S
O190 La161 2.470 . S
O190 C179 1.258 . S
O191 La160 2.503 . S
O191 C179 1.256 . S
H192 C164 0.930 . S
H193 C165 0.930 . S
H194 C167 0.929 . S
H195 C168 0.929 . S
H196 C173 0.930 . S
H197 C174 0.930 . S
H198 C176 0.929 . S
H199 C177 0.929 . S
La200 C202 2.928 . S
La200 O220 2.521 . S
La200 O221 2.628 . S
La200 O222 2.554 1_565 S
La200 O223 2.757 1_565 S
La200 O224 2.470 . S
La200 O229 2.482 1_565 S
La200 O231 2.503 1_565 S
La201 C211 2.928 . S
La201 O223 2.482 . S
La201 O225 2.503 1_545 S
La201 O226 2.521 . S
La201 O227 2.628 . S
La201 O228 2.554 . S
La201 O229 2.757 . S
La201 O230 2.470 . S
C202 La200 2.928 . S
C202 C203 1.503 . S
C202 O220 1.261 . S
C202 O221 1.243 . S
C203 C202 1.503 . S
C203 C204 1.394 . S
C203 C208 1.373 . S
C204 C203 1.394 . S
C204 C205 1.380 . S
C204 H232 0.930 . S
C205 C204 1.380 . S
C205 C206 1.376 . S
C205 H233 0.930 . S
C206 C205 1.376 . S
C206 C207 1.370 . S
C207 C206 1.370 . S
C207 C208 1.396 . S
C207 H234 0.929 . S
C208 C203 1.373 . S
C208 C207 1.396 . S
C208 H235 0.929 . S
C209 O222 1.240 . S
C209 O223 1.289 . S
C210 O224 1.258 . S
C210 O225 1.256 . S
C211 La201 2.928 . S
C211 C212 1.503 . S
C211 O226 1.261 . S
C211 O227 1.243 . S
C212 C211 1.503 . S
C212 C213 1.394 . S
C212 C217 1.373 . S
C213 C212 1.394 . S
C213 C214 1.380 . S
C213 H236 0.930 . S
C214 C213 1.380 . S
C214 C215 1.376 . S
C214 H237 0.930 . S
C215 C214 1.376 . S
C215 C216 1.370 . S
C216 C215 1.370 . S
C216 C217 1.396 . S
C216 H238 0.929 . S
C217 C212 1.373 . S
C217 C216 1.396 . S
C217 H239 0.929 . S
C218 O228 1.240 . S
C218 O229 1.289 . S
C219 O230 1.258 . S
C219 O231 1.256 . S
O220 La200 2.521 . S
O220 C202 1.261 . S
O221 La200 2.628 . S
O221 C202 1.243 . S
O222 La200 2.554 1_545 S
O222 C209 1.240 . S
O223 La200 2.757 1_545 S
O223 La201 2.482 . S
O223 C209 1.289 . S
O224 La200 2.470 . S
O224 C210 1.258 . S
O225 La201 2.503 1_565 S
O225 C210 1.256 . S
O226 La201 2.521 . S
O226 C211 1.261 . S
O227 La201 2.628 . S
O227 C211 1.243 . S
O228 La201 2.554 . S
O228 C218 1.240 . S
O229 La200 2.482 1_545 S
O229 La201 2.757 . S
O229 C218 1.289 . S
O230 La201 2.470 . S
O230 C219 1.258 . S
O231 La200 2.503 1_545 S
O231 C219 1.256 . S
H232 C204 0.930 . S
H233 C205 0.930 . S
H234 C207 0.929 . S
H235 C208 0.929 . S
H236 C213 0.930 . S
H237 C214 0.930 . S
H238 C216 0.929 . S
H239 C217 0.929 . S
La240 C242 2.928 . S
La240 O260 2.521 . S
La240 O261 2.628 . S
La240 O262 2.554 . S
La240 O263 2.757 . S
La240 O264 2.470 . S
La240 O269 2.482 . S
La240 O271 2.503 1_545 S
La241 C251 2.928 . S
La241 O263 2.482 1_565 S
La241 O265 2.503 1_565 S
La241 O266 2.521 . S
La241 O267 2.628 . S
La241 O268 2.554 1_565 S
La241 O269 2.757 1_565 S
La241 O270 2.470 . S
C242 La240 2.928 . S
C242 C243 1.503 . S
C242 O260 1.261 . S
C242 O261 1.243 . S
C243 C242 1.503 . S
C243 C244 1.394 . S
C243 C248 1.373 . S
C244 C243 1.394 . S
C244 C245 1.380 . S
C244 H272 0.930 . S
C245 C244 1.380 . S
C245 C246 1.376 . S
C245 H273 0.930 . S
C246 C245 1.376 . S
C246 C247 1.370 . S
C247 C246 1.370 . S
C247 C248 1.396 . S
C247 H274 0.929 . S
C248 C243 1.373 . S
C248 C247 1.396 . S
C248 H275 0.929 . S
C249 O262 1.240 . S
C249 O263 1.289 . S
C250 O264 1.258 . S
C250 O265 1.256 . S
C251 La241 2.928 . S
C251 C252 1.503 . S
C251 O266 1.261 . S
C251 O267 1.243 . S
C252 C251 1.503 . S
C252 C253 1.394 . S
C252 C257 1.373 . S
C253 C252 1.394 . S
C253 C254 1.380 . S
C253 H276 0.930 . S
C254 C253 1.380 . S
C254 C255 1.376 . S
C254 H277 0.930 . S
C255 C254 1.376 . S
C255 C256 1.370 . S
C256 C255 1.370 . S
C256 C257 1.396 . S
C256 H278 0.929 . S
C257 C252 1.373 . S
C257 C256 1.396 . S
C257 H279 0.929 . S
C258 O268 1.240 . S
C258 O269 1.289 . S
C259 O270 1.258 . S
C259 O271 1.256 . S
O260 La240 2.521 . S
O260 C242 1.261 . S
O261 La240 2.628 . S
O261 C242 1.243 . S
O262 La240 2.554 . S
O262 C249 1.240 . S
O263 La240 2.757 . S
O263 La241 2.482 1_545 S
O263 C249 1.289 . S
O264 La240 2.470 . S
O264 C250 1.258 . S
O265 La241 2.503 1_545 S
O265 C250 1.256 . S
O266 La241 2.521 . S
O266 C251 1.261 . S
O267 La241 2.628 . S
O267 C251 1.243 . S
O268 La241 2.554 1_545 S
O268 C258 1.240 . S
O269 La240 2.482 . S
O269 La241 2.757 1_545 S
O269 C258 1.289 . S
O270 La241 2.470 . S
O270 C259 1.258 . S
O271 La240 2.503 1_565 S
O271 C259 1.256 . S
H272 C244 0.930 . S
H273 C245 0.930 . S
H274 C247 0.929 . S
H275 C248 0.929 . S
H276 C253 0.930 . S
H277 C254 0.930 . S
H278 C256 0.929 . S
H279 C257 0.929 . S
La280 C282 2.928 1_455 S
La280 O300 2.521 1_455 S
La280 O301 2.628 1_455 S
La280 O302 2.554 . S
La280 O303 2.757 . S
La280 O304 2.470 1_455 S
La280 O309 2.482 . S
La280 O311 2.503 . S
La281 C291 2.928 . S
La281 O303 2.482 . S
La281 O305 2.503 . S
La281 O306 2.521 . S
La281 O307 2.628 . S
La281 O308 2.554 . S
La281 O309 2.757 . S
La281 O310 2.470 . S
C282 La280 2.928 1_655 S
C282 C283 1.503 . S
C282 O300 1.261 . S
C282 O301 1.243 . S
C283 C282 1.503 . S
C283 C284 1.394 . S
C283 C288 1.373 . S
C284 C283 1.394 . S
C284 C285 1.380 . S
C284 H312 0.930 . S
C285 C284 1.380 . S
C285 C286 1.376 . S
C285 H313 0.930 . S
C286 C285 1.376 . S
C286 C287 1.370 . S
C287 C286 1.370 . S
C287 C288 1.396 . S
C287 H314 0.929 . S
C288 C283 1.373 . S
C288 C287 1.396 . S
C288 H315 0.929 . S
C289 O302 1.240 . S
C289 O303 1.289 . S
C290 O304 1.258 . S
C290 O305 1.256 1_655 S
C291 La281 2.928 . S
C291 C292 1.503 . S
C291 O306 1.261 . S
C291 O307 1.243 . S
C292 C291 1.503 . S
C292 C293 1.394 . S
C292 C297 1.373 . S
C293 C292 1.394 . S
C293 C294 1.380 . S
C293 H316 0.930 . S
C294 C293 1.380 . S
C294 C295 1.376 . S
C294 H317 0.930 . S
C295 C294 1.376 . S
C295 C296 1.370 . S
C296 C295 1.370 . S
C296 C297 1.396 . S
C296 H318 0.929 . S
C297 C292 1.373 . S
C297 C296 1.396 . S
C297 H319 0.929 . S
C298 O308 1.240 . S
C298 O309 1.289 . S
C299 O310 1.258 . S
C299 O311 1.256 . S
O300 La280 2.521 1_655 S
O300 C282 1.261 . S
O301 La280 2.628 1_655 S
O301 C282 1.243 . S
O302 La280 2.554 . S
O302 C289 1.240 . S
O303 La280 2.757 . S
O303 La281 2.482 . S
O303 C289 1.289 . S
O304 La280 2.470 1_655 S
O304 C290 1.258 . S
O305 La281 2.503 . S
O305 C290 1.256 1_455 S
O306 La281 2.521 . S
O306 C291 1.261 . S
O307 La281 2.628 . S
O307 C291 1.243 . S
O308 La281 2.554 . S
O308 C298 1.240 . S
O309 La280 2.482 . S
O309 La281 2.757 . S
O309 C298 1.289 . S
O310 La281 2.470 . S
O310 C299 1.258 . S
O311 La280 2.503 . S
O311 C299 1.256 . S
H312 C284 0.930 . S
H313 C285 0.930 . S
H314 C287 0.929 . S
H315 C288 0.929 . S
H316 C293 0.930 . S
H317 C294 0.930 . S
H318 C296 0.929 . S
H319 C297 0.929 . S
La320 C322 2.928 . S
La320 O340 2.521 . S
La320 O341 2.628 . S
La320 O342 2.554 . S
La320 O343 2.757 . S
La320 O344 2.470 . S
La320 O349 2.482 . S
La320 O351 2.503 . S
La321 C331 2.928 . S
La321 O343 2.482 . S
La321 O345 2.503 . S
La321 O346 2.521 . S
La321 O347 2.628 . S
La321 O348 2.554 . S
La321 O349 2.757 . S
La321 O350 2.470 . S
C322 La320 2.928 . S
C322 C323 1.503 . S
C322 O340 1.261 . S
C322 O341 1.243 . S
C323 C322 1.503 . S
C323 C324 1.394 . S
C323 C328 1.373 . S
C324 C323 1.394 . S
C324 C325 1.380 . S
C324 H352 0.930 . S
C325 C324 1.380 . S
C325 C326 1.376 . S
C325 H353 0.930 . S
C326 C325 1.376 . S
C326 C327 1.370 . S
C327 C326 1.370 . S
C327 C328 1.396 . S
C327 H354 0.929 . S
C328 C323 1.373 . S
C328 C327 1.396 . S
C328 H355 0.929 . S
C329 O342 1.240 . S
C329 O343 1.289 . S
C330 O344 1.258 . S
C330 O345 1.256 . S
C331 La321 2.928 . S
C331 C332 1.503 . S
C331 O346 1.261 . S
C331 O347 1.243 . S
C332 C331 1.503 . S
C332 C333 1.394 . S
C332 C337 1.373 . S
C333 C332 1.394 . S
C333 C334 1.380 . S
C333 H356 0.930 . S
C334 C333 1.380 . S
C334 C335 1.376 . S
C334 H357 0.930 . S
C335 C334 1.376 . S
C335 C336 1.370 . S
C336 C335 1.370 . S
C336 C337 1.396 . S
C336 H358 0.929 . S
C337 C332 1.373 . S
C337 C336 1.396 . S
C337 H359 0.929 . S
C338 O348 1.240 . S
C338 O349 1.289 . S
C339 O350 1.258 . S
C339 O351 1.256 . S
O340 La320 2.521 . S
O340 C322 1.261 . S
O341 La320 2.628 . S
O341 C322 1.243 . S
O342 La320 2.554 . S
O342 C329 1.240 . S
O343 La320 2.757 . S
O343 La321 2.482 . S
O343 C329 1.289 . S
O344 La320 2.470 . S
O344 C330 1.258 . S
O345 La321 2.503 . S
O345 C330 1.256 . S
O346 La321 2.521 . S
O346 C331 1.261 . S
O347 La321 2.628 . S
O347 C331 1.243 . S
O348 La321 2.554 . S
O348 C338 1.240 . S
O349 La320 2.482 . S
O349 La321 2.757 . S
O349 C338 1.289 . S
O350 La321 2.470 . S
O350 C339 1.258 . S
O351 La320 2.503 . S
O351 C339 1.256 . S
H352 C324 0.930 . S
H353 C325 0.930 . S
H354 C327 0.929 . S
H355 C328 0.929 . S
H356 C333 0.930 . S
H357 C334 0.930 . S
H358 C336 0.929 . S
H359 C337 0.929 . S
La360 C362 2.928 . S
La360 O380 2.521 . S
La360 O381 2.628 . S
La360 O382 2.554 . S
La360 O383 2.757 . S
La360 O384 2.470 . S
La360 O389 2.482 . S
La360 O391 2.503 1_455 S
La361 C371 2.928 . S
La361 O383 2.482 1_655 S
La361 O385 2.503 1_655 S
La361 O386 2.521 . S
La361 O387 2.628 . S
La361 O388 2.554 1_655 S
La361 O389 2.757 1_655 S
La361 O390 2.470 . S
C362 La360 2.928 . S
C362 C363 1.503 . S
C362 O380 1.261 . S
C362 O381 1.243 . S
C363 C362 1.503 . S
C363 C364 1.394 . S
C363 C368 1.373 . S
C364 C363 1.394 . S
C364 C365 1.380 . S
C364 H392 0.930 . S
C365 C364 1.380 . S
C365 C366 1.376 . S
C365 H393 0.930 . S
C366 C365 1.376 . S
C366 C367 1.370 . S
C367 C366 1.370 . S
C367 C368 1.396 . S
C367 H394 0.929 . S
C368 C363 1.373 . S
C368 C367 1.396 . S
C368 H395 0.929 . S
C369 O382 1.240 . S
C369 O383 1.289 . S
C370 O384 1.258 . S
C370 O385 1.256 . S
C371 La361 2.928 . S
C371 C372 1.503 . S
C371 O386 1.261 . S
C371 O387 1.243 . S
C372 C371 1.503 . S
C372 C373 1.394 . S
C372 C377 1.373 . S
C373 C372 1.394 . S
C373 C374 1.380 . S
C373 H396 0.930 . S
C374 C373 1.380 . S
C374 C375 1.376 . S
C374 H397 0.930 . S
C375 C374 1.376 . S
C375 C376 1.370 . S
C376 C375 1.370 . S
C376 C377 1.396 . S
C376 H398 0.929 . S
C377 C372 1.373 . S
C377 C376 1.396 . S
C377 H399 0.929 . S
C378 O388 1.240 . S
C378 O389 1.289 . S
C379 O390 1.258 . S
C379 O391 1.256 . S
O380 La360 2.521 . S
O380 C362 1.261 . S
O381 La360 2.628 . S
O381 C362 1.243 . S
O382 La360 2.554 . S
O382 C369 1.240 . S
O383 La360 2.757 . S
O383 La361 2.482 1_455 S
O383 C369 1.289 . S
O384 La360 2.470 . S
O384 C370 1.258 . S
O385 La361 2.503 1_455 S
O385 C370 1.256 . S
O386 La361 2.521 . S
O386 C371 1.261 . S
O387 La361 2.628 . S
O387 C371 1.243 . S
O388 La361 2.554 1_455 S
O388 C378 1.240 . S
O389 La360 2.482 . S
O389 La361 2.757 1_455 S
O389 C378 1.289 . S
O390 La361 2.470 . S
O390 C379 1.258 . S
O391 La360 2.503 1_655 S
O391 C379 1.256 . S
H392 C364 0.930 . S
H393 C365 0.930 . S
H394 C367 0.929 . S
H395 C368 0.929 . S
H396 C373 0.930 . S
H397 C374 0.930 . S
H398 C376 0.929 . S
H399 C377 0.929 . S
La400 C402 2.928 . S
La400 O420 2.521 . S
La400 O421 2.628 . S
La400 O422 2.554 . S
La400 O423 2.757 . S
La400 O424 2.470 . S
La400 O429 2.482 . S
La400 O431 2.503 . S
La401 C411 2.928 . S
La401 O423 2.482 . S
La401 O425 2.503 . S
La401 O426 2.521 . S
La401 O427 2.628 . S
La401 O428 2.554 . S
La401 O429 2.757 . S
La401 O430 2.470 . S
C402 La400 2.928 . S
C402 C403 1.503 . S
C402 O420 1.261 . S
C402 O421 1.243 . S
C403 C402 1.503 . S
C403 C404 1.394 . S
C403 C408 1.373 . S
C404 C403 1.394 . S
C404 C405 1.380 . S
C404 H432 0.930 . S
C405 C404 1.380 . S
C405 C406 1.376 . S
C405 H433 0.930 . S
C406 C405 1.376 . S
C406 C407 1.370 . S
C407 C406 1.370 . S
C407 C408 1.396 . S
C407 H434 0.929 . S
C408 C403 1.373 . S
C408 C407 1.396 . S
C408 H435 0.929 . S
C409 O422 1.240 . S
C409 O423 1.289 . S
C410 O424 1.258 . S
C410 O425 1.256 . S
C411 La401 2.928 . S
C411 C412 1.503 . S
C411 O426 1.261 . S
C411 O427 1.243 . S
C412 C411 1.503 . S
C412 C413 1.394 . S
C412 C417 1.373 . S
C413 C412 1.394 . S
C413 C414 1.380 . S
C413 H436 0.930 . S
C414 C413 1.380 . S
C414 C415 1.376 . S
C414 H437 0.930 . S
C415 C414 1.376 . S
C415 C416 1.370 . S
C416 C415 1.370 . S
C416 C417 1.396 . S
C416 H438 0.929 . S
C417 C412 1.373 . S
C417 C416 1.396 . S
C417 H439 0.929 . S
C418 O428 1.240 . S
C418 O429 1.289 . S
C419 O430 1.258 . S
C419 O431 1.256 . S
O420 La400 2.521 . S
O420 C402 1.261 . S
O421 La400 2.628 . S
O421 C402 1.243 . S
O422 La400 2.554 . S
O422 C409 1.240 . S
O423 La400 2.757 . S
O423 La401 2.482 . S
O423 C409 1.289 . S
O424 La400 2.470 . S
O424 C410 1.258 . S
O425 La401 2.503 . S
O425 C410 1.256 . S
O426 La401 2.521 . S
O426 C411 1.261 . S
O427 La401 2.628 . S
O427 C411 1.243 . S
O428 La401 2.554 . S
O428 C418 1.240 . S
O429 La400 2.482 . S
O429 La401 2.757 . S
O429 C418 1.289 . S
O430 La401 2.470 . S
O430 C419 1.258 . S
O431 La400 2.503 . S
O431 C419 1.256 . S
H432 C404 0.930 . S
H433 C405 0.930 . S
H434 C407 0.929 . S
H435 C408 0.929 . S
H436 C413 0.930 . S
H437 C414 0.930 . S
H438 C416 0.929 . S
H439 C417 0.929 . S
La440 C442 2.928 1_545 S
La440 O460 2.521 1_545 S
La440 O461 2.628 1_545 S
La440 O462 2.554 . S
La440 O463 2.757 . S
La440 O464 2.470 1_545 S
La440 O469 2.482 . S
La440 O471 2.503 . S
La441 C451 2.928 . S
La441 O463 2.482 . S
La441 O465 2.503 . S
La441 O466 2.521 . S
La441 O467 2.628 . S
La441 O468 2.554 . S
La441 O469 2.757 . S
La441 O470 2.470 . S
C442 La440 2.928 1_565 S
C442 C443 1.503 . S
C442 O460 1.261 . S
C442 O461 1.243 . S
C443 C442 1.503 . S
C443 C444 1.394 . S
C443 C448 1.373 . S
C444 C443 1.394 . S
C444 C445 1.380 . S
C444 H472 0.930 . S
C445 C444 1.380 . S
C445 C446 1.376 . S
C445 H473 0.930 . S
C446 C445 1.376 . S
C446 C447 1.370 . S
C447 C446 1.370 . S
C447 C448 1.396 . S
C447 H474 0.929 . S
C448 C443 1.373 . S
C448 C447 1.396 . S
C448 H475 0.929 . S
C449 O462 1.240 . S
C449 O463 1.289 . S
C450 O464 1.258 . S
C450 O465 1.256 1_565 S
C451 La441 2.928 . S
C451 C452 1.503 . S
C451 O466 1.261 . S
C451 O467 1.243 . S
C452 C451 1.503 . S
C452 C453 1.394 . S
C452 C457 1.373 . S
C453 C452 1.394 . S
C453 C454 1.380 . S
C453 H476 0.930 . S
C454 C453 1.380 . S
C454 C455 1.376 . S
C454 H477 0.930 . S
C455 C454 1.376 . S
C455 C456 1.370 . S
C456 C455 1.370 . S
C456 C457 1.396 . S
C456 H478 0.929 . S
C457 C452 1.373 . S
C457 C456 1.396 . S
C457 H479 0.929 . S
C458 O468 1.240 . S
C458 O469 1.289 . S
C459 O470 1.258 . S
C459 O471 1.256 . S
O460 La440 2.521 1_565 S
O460 C442 1.261 . S
O461 La440 2.628 1_565 S
O461 C442 1.243 . S
O462 La440 2.554 . S
O462 C449 1.240 . S
O463 La440 2.757 . S
O463 La441 2.482 . S
O463 C449 1.289 . S
O464 La440 2.470 1_565 S
O464 C450 1.258 . S
O465 La441 2.503 . S
O465 C450 1.256 1_545 S
O466 La441 2.521 . S
O466 C451 1.261 . S
O467 La441 2.628 . S
O467 C451 1.243 . S
O468 La441 2.554 . S
O468 C458 1.240 . S
O469 La440 2.482 . S
O469 La441 2.757 . S
O469 C458 1.289 . S
O470 La441 2.470 . S
O470 C459 1.258 . S
O471 La440 2.503 . S
O471 C459 1.256 . S
H472 C444 0.930 . S
H473 C445 0.930 . S
H474 C447 0.929 . S
H475 C448 0.929 . S
H476 C453 0.930 . S
H477 C454 0.930 . S
H478 C456 0.929 . S
H479 C457 0.929 . S
La480 C482 2.928 . S
La480 O500 2.521 . S
La480 O501 2.628 . S
La480 O502 2.554 . S
La480 O503 2.757 . S
La480 O504 2.470 . S
La480 O509 2.482 . S
La480 O511 2.503 . S
La481 C491 2.928 . S
La481 O503 2.482 . S
La481 O505 2.503 . S
La481 O506 2.521 . S
La481 O507 2.628 . S
La481 O508 2.554 . S
La481 O509 2.757 . S
La481 O510 2.470 . S
C482 La480 2.928 . S
C482 C483 1.503 . S
C482 O500 1.261 . S
C482 O501 1.243 . S
C483 C482 1.503 . S
C483 C484 1.394 . S
C483 C488 1.373 . S
C484 C483 1.394 . S
C484 C485 1.380 . S
C484 H512 0.930 . S
C485 C484 1.380 . S
C485 C486 1.376 . S
C485 H513 0.930 . S
C486 C485 1.376 . S
C486 C487 1.370 . S
C487 C486 1.370 . S
C487 C488 1.396 . S
C487 H514 0.929 . S
C488 C483 1.373 . S
C488 C487 1.396 . S
C488 H515 0.929 . S
C489 O502 1.240 . S
C489 O503 1.289 . S
C490 O504 1.258 . S
C490 O505 1.256 . S
C491 La481 2.928 . S
C491 C492 1.503 . S
C491 O506 1.261 . S
C491 O507 1.243 . S
C492 C491 1.503 . S
C492 C493 1.394 . S
C492 C497 1.373 . S
C493 C492 1.394 . S
C493 C494 1.380 . S
C493 H516 0.930 . S
C494 C493 1.380 . S
C494 C495 1.376 . S
C494 H517 0.930 . S
C495 C494 1.376 . S
C495 C496 1.370 . S
C496 C495 1.370 . S
C496 C497 1.396 . S
C496 H518 0.929 . S
C497 C492 1.373 . S
C497 C496 1.396 . S
C497 H519 0.929 . S
C498 O508 1.240 . S
C498 O509 1.289 . S
C499 O510 1.258 . S
C499 O511 1.256 . S
O500 La480 2.521 . S
O500 C482 1.261 . S
O501 La480 2.628 . S
O501 C482 1.243 . S
O502 La480 2.554 . S
O502 C489 1.240 . S
O503 La480 2.757 . S
O503 La481 2.482 . S
O503 C489 1.289 . S
O504 La480 2.470 . S
O504 C490 1.258 . S
O505 La481 2.503 . S
O505 C490 1.256 . S
O506 La481 2.521 . S
O506 C491 1.261 . S
O507 La481 2.628 . S
O507 C491 1.243 . S
O508 La481 2.554 . S
O508 C498 1.240 . S
O509 La480 2.482 . S
O509 La481 2.757 . S
O509 C498 1.289 . S
O510 La481 2.470 . S
O510 C499 1.258 . S
O511 La480 2.503 . S
O511 C499 1.256 . S
H512 C484 0.930 . S
H513 C485 0.930 . S
H514 C487 0.929 . S
H515 C488 0.929 . S
H516 C493 0.930 . S
H517 C494 0.930 . S
H518 C496 0.929 . S
H519 C497 0.929 . S
La520 C522 2.928 . S
La520 O540 2.521 . S
La520 O541 2.628 . S
La520 O542 2.554 . S
La520 O543 2.757 . S
La520 O544 2.470 . S
La520 O549 2.482 . S
La520 O551 2.503 . S
La521 C531 2.928 . S
La521 O543 2.482 . S
La521 O545 2.503 . S
La521 O546 2.521 . S
La521 O547 2.628 . S
La521 O548 2.554 . S
La521 O549 2.757 . S
La521 O550 2.470 . S
C522 La520 2.928 . S
C522 C523 1.503 . S
C522 O540 1.261 . S
C522 O541 1.243 . S
C523 C522 1.503 . S
C523 C524 1.394 . S
C523 C528 1.373 . S
C524 C523 1.394 . S
C524 C525 1.380 . S
C524 H552 0.930 . S
C525 C524 1.380 . S
C525 C526 1.376 . S
C525 H553 0.930 . S
C526 C525 1.376 . S
C526 C527 1.370 . S
C527 C526 1.370 . S
C527 C528 1.396 . S
C527 H554 0.929 . S
C528 C523 1.373 . S
C528 C527 1.396 . S
C528 H555 0.929 . S
C529 O542 1.240 . S
C529 O543 1.289 . S
C530 O544 1.258 . S
C530 O545 1.256 . S
C531 La521 2.928 . S
C531 C532 1.503 . S
C531 O546 1.261 . S
C531 O547 1.243 . S
C532 C531 1.503 . S
C532 C533 1.394 . S
C532 C537 1.373 . S
C533 C532 1.394 . S
C533 C534 1.380 . S
C533 H556 0.930 . S
C534 C533 1.380 . S
C534 C535 1.376 . S
C534 H557 0.930 . S
C535 C534 1.376 . S
C535 C536 1.370 . S
C536 C535 1.370 . S
C536 C537 1.396 . S
C536 H558 0.929 . S
C537 C532 1.373 . S
C537 C536 1.396 . S
C537 H559 0.929 . S
C538 O548 1.240 . S
C538 O549 1.289 . S
C539 O550 1.258 . S
C539 O551 1.256 . S
O540 La520 2.521 . S
O540 C522 1.261 . S
O541 La520 2.628 . S
O541 C522 1.243 . S
O542 La520 2.554 . S
O542 C529 1.240 . S
O543 La520 2.757 . S
O543 La521 2.482 . S
O543 C529 1.289 . S
O544 La520 2.470 . S
O544 C530 1.258 . S
O545 La521 2.503 . S
O545 C530 1.256 . S
O546 La521 2.521 . S
O546 C531 1.261 . S
O547 La521 2.628 . S
O547 C531 1.243 . S
O548 La521 2.554 . S
O548 C538 1.240 . S
O549 La520 2.482 . S
O549 La521 2.757 . S
O549 C538 1.289 . S
O550 La521 2.470 . S
O550 C539 1.258 . S
O551 La520 2.503 . S
O551 C539 1.256 . S
H552 C524 0.930 . S
H553 C525 0.930 . S
H554 C527 0.929 . S
H555 C528 0.929 . S
H556 C533 0.930 . S
H557 C534 0.930 . S
H558 C536 0.929 . S
H559 C537 0.929 . S
La560 C562 2.928 . S
La560 O580 2.521 . S
La560 O581 2.628 . S
La560 O582 2.554 . S
La560 O583 2.757 . S
La560 O584 2.470 . S
La560 O589 2.482 . S
La560 O591 2.503 . S
La561 C571 2.928 . S
La561 O583 2.482 . S
La561 O585 2.503 . S
La561 O586 2.521 . S
La561 O587 2.628 . S
La561 O588 2.554 . S
La561 O589 2.757 . S
La561 O590 2.470 . S
C562 La560 2.928 . S
C562 C563 1.503 . S
C562 O580 1.261 . S
C562 O581 1.243 . S
C563 C562 1.503 . S
C563 C564 1.394 . S
C563 C568 1.373 . S
C564 C563 1.394 . S
C564 C565 1.380 . S
C564 H592 0.930 . S
C565 C564 1.380 . S
C565 C566 1.376 . S
C565 H593 0.930 . S
C566 C565 1.376 . S
C566 C567 1.370 . S
C567 C566 1.370 . S
C567 C568 1.396 . S
C567 H594 0.929 . S
C568 C563 1.373 . S
C568 C567 1.396 . S
C568 H595 0.929 . S
C569 O582 1.240 . S
C569 O583 1.289 . S
C570 O584 1.258 . S
C570 O585 1.256 . S
C571 La561 2.928 . S
C571 C572 1.503 . S
C571 O586 1.261 . S
C571 O587 1.243 . S
C572 C571 1.503 . S
C572 C573 1.394 . S
C572 C577 1.373 . S
C573 C572 1.394 . S
C573 C574 1.380 . S
C573 H596 0.930 . S
C574 C573 1.380 . S
C574 C575 1.376 . S
C574 H597 0.930 . S
C575 C574 1.376 . S
C575 C576 1.370 . S
C576 C575 1.370 . S
C576 C577 1.396 . S
C576 H598 0.929 . S
C577 C572 1.373 . S
C577 C576 1.396 . S
C577 H599 0.929 . S
C578 O588 1.240 . S
C578 O589 1.289 . S
C579 O590 1.258 . S
C579 O591 1.256 . S
O580 La560 2.521 . S
O580 C562 1.261 . S
O581 La560 2.628 . S
O581 C562 1.243 . S
O582 La560 2.554 . S
O582 C569 1.240 . S
O583 La560 2.757 . S
O583 La561 2.482 . S
O583 C569 1.289 . S
O584 La560 2.470 . S
O584 C570 1.258 . S
O585 La561 2.503 . S
O585 C570 1.256 . S
O586 La561 2.521 . S
O586 C571 1.261 . S
O587 La561 2.628 . S
O587 C571 1.243 . S
O588 La561 2.554 . S
O588 C578 1.240 . S
O589 La560 2.482 . S
O589 La561 2.757 . S
O589 C578 1.289 . S
O590 La561 2.470 . S
O590 C579 1.258 . S
O591 La560 2.503 . S
O591 C579 1.256 . S
H592 C564 0.930 . S
H593 C565 0.930 . S
H594 C567 0.929 . S
H595 C568 0.929 . S
H596 C573 0.930 . S
H597 C574 0.930 . S
H598 C576 0.929 . S
H599 C577 0.929 . S
La600 C602 2.928 . S
La600 O620 2.521 . S
La600 O621 2.628 . S
La600 O622 2.554 . S
La600 O623 2.757 . S
La600 O624 2.470 . S
La600 O629 2.482 . S
La600 O631 2.503 . S
La601 C611 2.928 . S
La601 O623 2.482 . S
La601 O625 2.503 . S
La601 O626 2.521 . S
La601 O627 2.628 . S
La601 O628 2.554 . S
La601 O629 2.757 . S
La601 O630 2.470 . S
C602 La600 2.928 . S
C602 C603 1.503 . S
C602 O620 1.261 . S
C602 O621 1.243 . S
C603 C602 1.503 . S
C603 C604 1.394 . S
C603 C608 1.373 . S
C604 C603 1.394 . S
C604 C605 1.380 . S
C604 H632 0.930 . S
C605 C604 1.380 . S
C605 C606 1.376 . S
C605 H633 0.930 . S
C606 C605 1.376 . S
C606 C607 1.370 . S
C607 C606 1.370 . S
C607 C608 1.396 . S
C607 H634 0.929 . S
C608 C603 1.373 . S
C608 C607 1.396 . S
C608 H635 0.929 . S
C609 O622 1.240 . S
C609 O623 1.289 . S
C610 O624 1.258 . S
C610 O625 1.256 . S
C611 La601 2.928 . S
C611 C612 1.503 . S
C611 O626 1.261 . S
C611 O627 1.243 . S
C612 C611 1.503 . S
C612 C613 1.394 . S
C612 C617 1.373 . S
C613 C612 1.394 . S
C613 C614 1.380 . S
C613 H636 0.930 . S
C614 C613 1.380 . S
C614 C615 1.376 . S
C614 H637 0.930 . S
C615 C614 1.376 . S
C615 C616 1.370 . S
C616 C615 1.370 . S
C616 C617 1.396 . S
C616 H638 0.929 . S
C617 C612 1.373 . S
C617 C616 1.396 . S
C617 H639 0.929 . S
C618 O628 1.240 . S
C618 O629 1.289 . S
C619 O630 1.258 . S
C619 O631 1.256 . S
O620 La600 2.521 . S
O620 C602 1.261 . S
O621 La600 2.628 . S
O621 C602 1.243 . S
O622 La600 2.554 . S
O622 C609 1.240 . S
O623 La600 2.757 . S
O623 La601 2.482 . S
O623 C609 1.289 . S
O624 La600 2.470 . S
O624 C610 1.258 . S
O625 La601 2.503 . S
O625 C610 1.256 . S
O626 La601 2.521 . S
O626 C611 1.261 . S
O627 La601 2.628 . S
O627 C611 1.243 . S
O628 La601 2.554 . S
O628 C618 1.240 . S
O629 La600 2.482 . S
O629 La601 2.757 . S
O629 C618 1.289 . S
O630 La601 2.470 . S
O630 C619 1.258 . S
O631 La600 2.503 . S
O631 C619 1.256 . S
H632 C604 0.930 . S
H633 C605 0.930 . S
H634 C607 0.929 . S
H635 C608 0.929 . S
H636 C613 0.930 . S
H637 C614 0.930 . S
H638 C616 0.929 . S
H639 C617 0.929 . S
La640 C642 2.928 . S
La640 O660 2.521 . S
La640 O661 2.628 . S
La640 O662 2.554 . S
La640 O663 2.757 . S
La640 O664 2.470 . S
La640 O669 2.482 . S
La640 O671 2.503 . S
La641 C651 2.928 . S
La641 O663 2.482 . S
La641 O665 2.503 . S
La641 O666 2.521 . S
La641 O667 2.628 . S
La641 O668 2.554 . S
La641 O669 2.757 . S
La641 O670 2.470 . S
C642 La640 2.928 . S
C642 C643 1.503 1_565 S
C642 O660 1.261 . S
C642 O661 1.243 . S
C643 C642 1.503 1_545 S
C643 C644 1.394 . S
C643 C648 1.373 . S
C644 C643 1.394 . S
C644 C645 1.380 . S
C644 H672 0.930 . S
C645 C644 1.380 . S
C645 C646 1.376 . S
C645 H673 0.930 . S
C646 C645 1.376 . S
C646 C647 1.370 . S
C647 C646 1.370 . S
C647 C648 1.396 . S
C647 H674 0.929 . S
C648 C643 1.373 . S
C648 C647 1.396 . S
C648 H675 0.929 . S
C649 O662 1.240 . S
C649 O663 1.289 . S
C650 O664 1.258 . S
C650 O665 1.256 . S
C651 La641 2.928 . S
C651 C652 1.503 . S
C651 O666 1.261 . S
C651 O667 1.243 . S
C652 C651 1.503 . S
C652 C653 1.394 . S
C652 C657 1.373 . S
C653 C652 1.394 . S
C653 C654 1.380 . S
C653 H676 0.930 . S
C654 C653 1.380 . S
C654 C655 1.376 . S
C654 H677 0.930 . S
C655 C654 1.376 . S
C655 C656 1.370 . S
C656 C655 1.370 . S
C656 C657 1.396 . S
C656 H678 0.929 . S
C657 C652 1.373 . S
C657 C656 1.396 . S
C657 H679 0.929 . S
C658 O668 1.240 . S
C658 O669 1.289 . S
C659 O670 1.258 . S
C659 O671 1.256 . S
O660 La640 2.521 . S
O660 C642 1.261 . S
O661 La640 2.628 . S
O661 C642 1.243 . S
O662 La640 2.554 . S
O662 C649 1.240 . S
O663 La640 2.757 . S
O663 La641 2.482 . S
O663 C649 1.289 . S
O664 La640 2.470 . S
O664 C650 1.258 . S
O665 La641 2.503 . S
O665 C650 1.256 . S
O666 La641 2.521 . S
O666 C651 1.261 . S
O667 La641 2.628 . S
O667 C651 1.243 . S
O668 La641 2.554 . S
O668 C658 1.240 . S
O669 La640 2.482 . S
O669 La641 2.757 . S
O669 C658 1.289 . S
O670 La641 2.470 . S
O670 C659 1.258 . S
O671 La640 2.503 . S
O671 C659 1.256 . S
H672 C644 0.930 . S
H673 C645 0.930 . S
H674 C647 0.929 . S
H675 C648 0.929 . S
H676 C653 0.930 . S
H677 C654 0.930 . S
H678 C656 0.929 . S
H679 C657 0.929 . S
La680 C682 2.928 . S
La680 O700 2.521 . S
La680 O701 2.628 . S
La680 O702 2.554 . S
La680 O703 2.757 . S
La680 O704 2.470 . S
La680 O709 2.482 . S
La680 O711 2.503 . S
La681 C691 2.928 . S
La681 O703 2.482 . S
La681 O705 2.503 . S
La681 O706 2.521 . S
La681 O707 2.628 . S
La681 O708 2.554 . S
La681 O709 2.757 . S
La681 O710 2.470 . S
C682 La680 2.928 . S
C682 C683 1.503 . S
C682 O700 1.261 . S
C682 O701 1.243 . S
C683 C682 1.503 . S
C683 C684 1.394 . S
C683 C688 1.373 . S
C684 C683 1.394 . S
C684 C685 1.380 . S
C684 H712 0.930 . S
C685 C684 1.380 . S
C685 C686 1.376 1_455 S
C685 H713 0.930 1_455 S
C686 C685 1.376 1_655 S
C686 C687 1.368 1_655 S
C687 C686 1.368 1_455 S
C687 C688 1.396 . S
C687 H714 0.929 . S
C688 C683 1.373 . S
C688 C687 1.396 . S
C688 H715 0.929 . S
C689 O702 1.240 . S
C689 O703 1.289 . S
C690 O704 1.258 . S
C690 O705 1.256 . S
C691 La681 2.928 . S
C691 C692 1.503 . S
C691 O706 1.261 . S
C691 O707 1.243 . S
C692 C691 1.503 . S
C692 C693 1.394 . S
C692 C697 1.373 . S
C693 C692 1.394 . S
C693 C694 1.380 . S
C693 H716 0.930 . S
C694 C693 1.380 . S
C694 C695 1.376 . S
C694 H717 0.930 . S
C695 C694 1.376 . S
C695 C696 1.370 . S
C696 C695 1.370 . S
C696 C697 1.396 . S
C696 H718 0.929 . S
C697 C692 1.373 . S
C697 C696 1.396 . S
C697 H719 0.929 . S
C698 O708 1.240 . S
C698 O709 1.289 . S
C699 O710 1.258 . S
C699 O711 1.256 . S
O700 La680 2.521 . S
O700 C682 1.261 . S
O701 La680 2.628 . S
O701 C682 1.243 . S
O702 La680 2.554 . S
O702 C689 1.240 . S
O703 La680 2.757 . S
O703 La681 2.482 . S
O703 C689 1.289 . S
O704 La680 2.470 . S
O704 C690 1.258 . S
O705 La681 2.503 . S
O705 C690 1.256 . S
O706 La681 2.521 . S
O706 C691 1.261 . S
O707 La681 2.628 . S
O707 C691 1.243 . S
O708 La681 2.554 . S
O708 C698 1.240 . S
O709 La680 2.482 . S
O709 La681 2.757 . S
O709 C698 1.289 . S
O710 La681 2.470 . S
O710 C699 1.258 . S
O711 La680 2.503 . S
O711 C699 1.256 . S
H712 C684 0.930 . S
H713 C685 0.930 1_655 S
H714 C687 0.929 . S
H715 C688 0.929 . S
H716 C693 0.930 . S
H717 C694 0.930 . S
H718 C696 0.929 . S
H719 C697 0.929 . S
La720 C722 2.928 . S
La720 O740 2.521 . S
La720 O741 2.628 . S
La720 O742 2.554 . S
La720 O743 2.757 . S
La720 O744 2.470 . S
La720 O749 2.482 . S
La720 O751 2.503 . S
La721 C731 2.928 . S
La721 O743 2.482 . S
La721 O745 2.503 . S
La721 O746 2.521 . S
La721 O747 2.628 . S
La721 O748 2.554 . S
La721 O749 2.757 . S
La721 O750 2.470 . S
C722 La720 2.928 . S
C722 C723 1.503 . S
C722 O740 1.261 . S
C722 O741 1.243 . S
C723 C722 1.503 . S
C723 C724 1.394 . S
C723 C728 1.373 . S
C724 C723 1.394 . S
C724 C725 1.380 . S
C724 H752 0.930 . S
C725 C724 1.380 . S
C725 C726 1.376 . S
C725 H753 0.930 . S
C726 C725 1.376 . S
C726 C727 1.370 . S
C727 C726 1.370 . S
C727 C728 1.396 . S
C727 H754 0.929 . S
C728 C723 1.373 . S
C728 C727 1.396 . S
C728 H755 0.929 . S
C729 O742 1.240 . S
C729 O743 1.289 . S
C730 O744 1.258 . S
C730 O745 1.256 . S
C731 La721 2.928 . S
C731 C732 1.503 . S
C731 O746 1.261 . S
C731 O747 1.243 . S
C732 C731 1.503 . S
C732 C733 1.394 . S
C732 C737 1.373 . S
C733 C732 1.394 . S
C733 C734 1.380 . S
C733 H756 0.930 . S
C734 C733 1.380 . S
C734 C735 1.376 . S
C734 H757 0.930 . S
C735 C734 1.376 . S
C735 C736 1.370 . S
C736 C735 1.370 . S
C736 C737 1.396 . S
C736 H758 0.929 . S
C737 C732 1.373 . S
C737 C736 1.396 . S
C737 H759 0.929 . S
C738 O748 1.240 . S
C738 O749 1.289 . S
C739 O750 1.258 . S
C739 O751 1.256 . S
O740 La720 2.521 . S
O740 C722 1.261 . S
O741 La720 2.628 . S
O741 C722 1.243 . S
O742 La720 2.554 . S
O742 C729 1.240 . S
O743 La720 2.757 . S
O743 La721 2.482 . S
O743 C729 1.289 . S
O744 La720 2.470 . S
O744 C730 1.258 . S
O745 La721 2.503 . S
O745 C730 1.256 . S
O746 La721 2.521 . S
O746 C731 1.261 . S
O747 La721 2.628 . S
O747 C731 1.243 . S
O748 La721 2.554 . S
O748 C738 1.240 . S
O749 La720 2.482 . S
O749 La721 2.757 . S
O749 C738 1.289 . S
O750 La721 2.470 . S
O750 C739 1.258 . S
O751 La720 2.503 . S
O751 C739 1.256 . S
H752 C724 0.930 . S
H753 C725 0.930 . S
H754 C727 0.929 . S
H755 C728 0.929 . S
H756 C733 0.930 . S
H757 C734 0.930 . S
H758 C736 0.929 . S
H759 C737 0.929 . S
La760 C762 2.928 . S
La760 O780 2.521 . S
La760 O781 2.628 . S
La760 O782 2.554 . S
La760 O783 2.757 . S
La760 O784 2.470 . S
La760 O789 2.482 . S
La760 O791 2.503 . S
La761 C771 2.928 . S
La761 O783 2.482 . S
La761 O785 2.503 . S
La761 O786 2.521 . S
La761 O787 2.628 . S
La761 O788 2.554 . S
La761 O789 2.757 . S
La761 O790 2.470 . S
C762 La760 2.928 . S
C762 C763 1.503 . S
C762 O780 1.261 . S
C762 O781 1.243 . S
C763 C762 1.503 . S
C763 C764 1.394 . S
C763 C768 1.373 . S
C764 C763 1.394 . S
C764 C765 1.380 . S
C764 H792 0.930 . S
C765 C764 1.380 . S
C765 C766 1.376 . S
C765 H793 0.930 . S
C766 C765 1.376 . S
C766 C767 1.370 . S
C767 C766 1.370 . S
C767 C768 1.396 . S
C767 H794 0.929 . S
C768 C763 1.373 . S
C768 C767 1.396 . S
C768 H795 0.929 . S
C769 O782 1.240 . S
C769 O783 1.289 . S
C770 O784 1.258 . S
C770 O785 1.256 . S
C771 La761 2.928 . S
C771 C772 1.503 1_565 S
C771 O786 1.261 . S
C771 O787 1.243 . S
C772 C771 1.503 1_545 S
C772 C773 1.394 . S
C772 C777 1.373 . S
C773 C772 1.394 . S
C773 C774 1.380 . S
C773 H796 0.930 . S
C774 C773 1.380 . S
C774 C775 1.376 . S
C774 H797 0.930 . S
C775 C774 1.376 . S
C775 C776 1.370 . S
C776 C775 1.370 . S
C776 C777 1.396 . S
C776 H798 0.929 . S
C777 C772 1.373 . S
C777 C776 1.396 . S
C777 H799 0.929 . S
C778 O788 1.240 . S
C778 O789 1.289 . S
C779 O790 1.258 . S
C779 O791 1.256 . S
O780 La760 2.521 . S
O780 C762 1.261 . S
O781 La760 2.628 . S
O781 C762 1.243 . S
O782 La760 2.554 . S
O782 C769 1.240 . S
O783 La760 2.757 . S
O783 La761 2.482 . S
O783 C769 1.289 . S
O784 La760 2.470 . S
O784 C770 1.258 . S
O785 La761 2.503 . S
O785 C770 1.256 . S
O786 La761 2.521 . S
O786 C771 1.261 . S
O787 La761 2.628 . S
O787 C771 1.243 . S
O788 La761 2.554 . S
O788 C778 1.240 . S
O789 La760 2.482 . S
O789 La761 2.757 . S
O789 C778 1.289 . S
O790 La761 2.470 . S
O790 C779 1.258 . S
O791 La760 2.503 . S
O791 C779 1.256 . S
H792 C764 0.930 . S
H793 C765 0.930 . S
H794 C767 0.929 . S
H795 C768 0.929 . S
H796 C773 0.930 . S
H797 C774 0.930 . S
H798 C776 0.929 . S
H799 C777 0.929 . S
La800 C802 2.928 . S
La800 O820 2.521 . S
La800 O821 2.628 . S
La800 O822 2.554 . S
La800 O823 2.757 . S
La800 O824 2.470 . S
La800 O829 2.482 . S
La800 O831 2.503 . S
La801 C811 2.928 . S
La801 O823 2.482 . S
La801 O825 2.503 . S
La801 O826 2.521 . S
La801 O827 2.628 . S
La801 O828 2.554 . S
La801 O829 2.757 . S
La801 O830 2.470 . S
C802 La800 2.928 . S
C802 C803 1.503 . S
C802 O820 1.261 . S
C802 O821 1.243 . S
C803 C802 1.503 . S
C803 C804 1.394 . S
C803 C808 1.373 . S
C804 C803 1.394 . S
C804 C805 1.380 . S
C804 H832 0.930 . S
C805 C804 1.380 . S
C805 C806 1.376 . S
C805 H833 0.930 . S
C806 C805 1.376 . S
C806 C807 1.370 . S
C807 C806 1.370 . S
C807 C808 1.396 . S
C807 H834 0.929 . S
C808 C803 1.373 . S
C808 C807 1.396 . S
C808 H835 0.929 . S
C809 O822 1.240 . S
C809 O823 1.289 . S
C810 O824 1.258 . S
C810 O825 1.256 . S
C811 La801 2.928 . S
C811 C812 1.503 . S
C811 O826 1.261 . S
C811 O827 1.243 . S
C812 C811 1.503 . S
C812 C813 1.394 . S
C812 C817 1.373 . S
C813 C812 1.394 . S
C813 C814 1.380 . S
C813 H836 0.930 . S
C814 C813 1.380 . S
C814 C815 1.379 . S
C814 H837 0.936 . S
C815 C814 1.379 . S
C815 C816 1.372 . S
C816 C815 1.372 . S
C816 C817 1.396 . S
C816 H838 0.929 . S
C817 C812 1.373 . S
C817 C816 1.396 . S
C817 H839 0.929 . S
C818 O828 1.240 . S
C818 O829 1.289 . S
C819 O830 1.258 . S
C819 O831 1.256 . S
O820 La800 2.521 . S
O820 C802 1.261 . S
O821 La800 2.628 . S
O821 C802 1.243 . S
O822 La800 2.554 . S
O822 C809 1.240 . S
O823 La800 2.757 . S
O823 La801 2.482 . S
O823 C809 1.289 . S
O824 La800 2.470 . S
O824 C810 1.258 . S
O825 La801 2.503 . S
O825 C810 1.256 . S
O826 La801 2.521 . S
O826 C811 1.261 . S
O827 La801 2.628 . S
O827 C811 1.243 . S
O828 La801 2.554 . S
O828 C818 1.240 . S
O829 La800 2.482 . S
O829 La801 2.757 . S
O829 C818 1.289 . S
O830 La801 2.470 . S
O830 C819 1.258 . S
O831 La800 2.503 . S
O831 C819 1.256 . S
H832 C804 0.930 . S
H833 C805 0.930 . S
H834 C807 0.929 . S
H835 C808 0.929 . S
H836 C813 0.930 . S
H837 C814 0.936 . S
H838 C816 0.929 . S
H839 C817 0.929 . S
La840 C842 2.928 . S
La840 O860 2.521 . S
La840 O861 2.628 . S
La840 O862 2.554 . S
La840 O863 2.757 . S
La840 O864 2.470 . S
La840 O869 2.482 . S
La840 O871 2.503 . S
La841 C851 2.928 . S
La841 O863 2.482 . S
La841 O865 2.503 . S
La841 O866 2.521 . S
La841 O867 2.628 . S
La841 O868 2.554 . S
La841 O869 2.757 . S
La841 O870 2.470 . S
C842 La840 2.928 . S
C842 C843 1.503 . S
C842 O860 1.261 . S
C842 O861 1.243 . S
C843 C842 1.503 . S
C843 C844 1.394 . S
C843 C848 1.373 . S
C844 C843 1.394 . S
C844 C845 1.380 . S
C844 H872 0.930 . S
C845 C844 1.380 . S
C845 C846 1.376 . S
C845 H873 0.930 . S
C846 C845 1.376 . S
C846 C847 1.370 . S
C847 C846 1.370 . S
C847 C848 1.396 . S
C847 H874 0.929 . S
C848 C843 1.373 . S
C848 C847 1.396 . S
C848 H875 0.929 . S
C849 O862 1.240 . S
C849 O863 1.289 . S
C850 O864 1.258 . S
C850 O865 1.256 . S
C851 La841 2.928 . S
C851 C852 1.503 . S
C851 O866 1.261 . S
C851 O867 1.243 . S
C852 C851 1.503 . S
C852 C853 1.394 . S
C852 C857 1.373 . S
C853 C852 1.394 . S
C853 C854 1.380 . S
C853 H876 0.930 . S
C854 C853 1.380 . S
C854 C855 1.376 . S
C854 H877 0.930 . S
C855 C854 1.376 . S
C855 C856 1.370 . S
C856 C855 1.370 . S
C856 C857 1.396 . S
C856 H878 0.929 . S
C857 C852 1.373 . S
C857 C856 1.396 . S
C857 H879 0.929 . S
C858 O868 1.240 . S
C858 O869 1.289 . S
C859 O870 1.258 . S
C859 O871 1.256 . S
O860 La840 2.521 . S
O860 C842 1.261 . S
O861 La840 2.628 . S
O861 C842 1.243 . S
O862 La840 2.554 . S
O862 C849 1.240 . S
O863 La840 2.757 . S
O863 La841 2.482 . S
O863 C849 1.289 . S
O864 La840 2.470 . S
O864 C850 1.258 . S
O865 La841 2.503 . S
O865 C850 1.256 . S
O866 La841 2.521 . S
O866 C851 1.261 . S
O867 La841 2.628 . S
O867 C851 1.243 . S
O868 La841 2.554 . S
O868 C858 1.240 . S
O869 La840 2.482 . S
O869 La841 2.757 . S
O869 C858 1.289 . S
O870 La841 2.470 . S
O870 C859 1.258 . S
O871 La840 2.503 . S
O871 C859 1.256 . S
H872 C844 0.930 . S
H873 C845 0.930 . S
H874 C847 0.929 . S
H875 C848 0.929 . S
H876 C853 0.930 . S
H877 C854 0.930 . S
H878 C856 0.929 . S
H879 C857 0.929 . S
La880 C882 2.928 . S
La880 O900 2.521 . S
La880 O901 2.628 . S
La880 O902 2.554 . S
La880 O903 2.757 . S
La880 O904 2.470 . S
La880 O909 2.482 . S
La880 O911 2.503 . S
La881 C891 2.928 . S
La881 O903 2.482 . S
La881 O905 2.503 . S
La881 O906 2.521 . S
La881 O907 2.628 . S
La881 O908 2.554 . S
La881 O909 2.757 . S
La881 O910 2.470 . S
C882 La880 2.928 . S
C882 C883 1.503 . S
C882 O900 1.261 . S
C882 O901 1.243 . S
C883 C882 1.503 . S
C883 C884 1.394 . S
C883 C888 1.373 . S
C884 C883 1.394 . S
C884 C885 1.380 . S
C884 H912 0.930 . S
C885 C884 1.380 . S
C885 C886 1.376 . S
C885 H913 0.930 . S
C886 C885 1.376 . S
C886 C887 1.370 . S
C887 C886 1.370 . S
C887 C888 1.396 . S
C887 H914 0.929 . S
C888 C883 1.373 . S
C888 C887 1.396 . S
C888 H915 0.929 . S
C889 O902 1.240 . S
C889 O903 1.289 . S
C890 O904 1.258 . S
C890 O905 1.256 . S
C891 La881 2.928 . S
C891 C892 1.503 . S
C891 O906 1.261 . S
C891 O907 1.243 . S
C892 C891 1.503 . S
C892 C893 1.394 . S
C892 C897 1.373 . S
C893 C892 1.394 . S
C893 C894 1.380 . S
C893 H916 0.930 . S
C894 C893 1.380 . S
C894 C895 1.376 . S
C894 H917 0.930 . S
C895 C894 1.376 . S
C895 C896 1.370 . S
C896 C895 1.370 . S
C896 C897 1.396 . S
C896 H918 0.929 . S
C897 C892 1.373 . S
C897 C896 1.396 . S
C897 H919 0.929 . S
C898 O908 1.240 . S
C898 O909 1.289 . S
C899 O910 1.258 . S
C899 O911 1.256 . S
O900 La880 2.521 . S
O900 C882 1.261 . S
O901 La880 2.628 . S
O901 C882 1.243 . S
O902 La880 2.554 . S
O902 C889 1.240 . S
O903 La880 2.757 . S
O903 La881 2.482 . S
O903 C889 1.289 . S
O904 La880 2.470 . S
O904 C890 1.258 . S
O905 La881 2.503 . S
O905 C890 1.256 . S
O906 La881 2.521 . S
O906 C891 1.261 . S
O907 La881 2.628 . S
O907 C891 1.243 . S
O908 La881 2.554 . S
O908 C898 1.240 . S
O909 La880 2.482 . S
O909 La881 2.757 . S
O909 C898 1.289 . S
O910 La881 2.470 . S
O910 C899 1.258 . S
O911 La880 2.503 . S
O911 C899 1.256 . S
H912 C884 0.930 . S
H913 C885 0.930 . S
H914 C887 0.929 . S
H915 C888 0.929 . S
H916 C893 0.930 . S
H917 C894 0.930 . S
H918 C896 0.929 . S
H919 C897 0.929 . S
La920 C922 2.928 . S
La920 O940 2.521 . S
La920 O941 2.628 . S
La920 O942 2.554 . S
La920 O943 2.757 . S
La920 O944 2.470 . S
La920 O949 2.482 . S
La920 O951 2.503 . S
La921 C931 2.928 . S
La921 O943 2.482 . S
La921 O945 2.503 . S
La921 O946 2.521 . S
La921 O947 2.628 . S
La921 O948 2.554 . S
La921 O949 2.757 . S
La921 O950 2.470 . S
C922 La920 2.928 . S
C922 C923 1.503 . S
C922 O940 1.261 . S
C922 O941 1.243 . S
C923 C922 1.503 . S
C923 C924 1.394 . S
C923 C928 1.373 . S
C924 C923 1.394 . S
C924 C925 1.380 . S
C924 H952 0.930 . S
C925 C924 1.380 . S
C925 C926 1.376 . S
C925 H953 0.930 . S
C926 C925 1.376 . S
C926 C927 1.370 . S
C927 C926 1.370 . S
C927 C928 1.396 . S
C927 H954 0.929 . S
C928 C923 1.373 . S
C928 C927 1.396 . S
C928 H955 0.929 . S
C929 O942 1.240 . S
C929 O943 1.289 . S
C930 O944 1.258 . S
C930 O945 1.256 . S
C931 La921 2.928 . S
C931 C932 1.503 . S
C931 O946 1.261 . S
C931 O947 1.243 . S
C932 C931 1.503 . S
C932 C933 1.394 . S
C932 C937 1.373 . S
C933 C932 1.394 . S
C933 C934 1.380 . S
C933 H956 0.930 . S
C934 C933 1.380 . S
C934 C935 1.376 . S
C934 H957 0.930 . S
C935 C934 1.376 . S
C935 C936 1.370 . S
C936 C935 1.370 . S
C936 C937 1.396 . S
C936 H958 0.929 . S
C937 C932 1.373 . S
C937 C936 1.396 . S
C937 H959 0.929 . S
C938 O948 1.240 . S
C938 O949 1.289 . S
C939 O950 1.258 . S
C939 O951 1.256 . S
O940 La920 2.521 . S
O940 C922 1.261 . S
O941 La920 2.628 . S
O941 C922 1.243 . S
O942 La920 2.554 . S
O942 C929 1.240 . S
O943 La920 2.757 . S
O943 La921 2.482 . S
O943 C929 1.289 . S
O944 La920 2.470 . S
O944 C930 1.258 . S
O945 La921 2.503 . S
O945 C930 1.256 . S
O946 La921 2.521 . S
O946 C931 1.261 . S
O947 La921 2.628 . S
O947 C931 1.243 . S
O948 La921 2.554 . S
O948 C938 1.240 . S
O949 La920 2.482 . S
O949 La921 2.757 . S
O949 C938 1.289 . S
O950 La921 2.470 . S
O950 C939 1.258 . S
O951 La920 2.503 . S
O951 C939 1.256 . S
H952 C924 0.930 . S
H953 C925 0.930 . S
H954 C927 0.929 . S
H955 C928 0.929 . S
H956 C933 0.930 . S
H957 C934 0.930 . S
H958 C936 0.929 . S
H959 C937 0.929 . S
La960 C962 2.928 . S
La960 O980 2.521 . S
La960 O981 2.628 . S
La960 O982 2.554 . S
La960 O983 2.757 . S
La960 O984 2.470 . S
La960 O989 2.482 . S
La960 O991 2.503 . S
La961 C971 2.928 . S
La961 O983 2.482 . S
La961 O985 2.503 . S
La961 O986 2.521 . S
La961 O987 2.628 . S
La961 O988 2.554 . S
La961 O989 2.757 . S
La961 O990 2.470 . S
C962 La960 2.928 . S
C962 C963 1.503 . S
C962 O980 1.261 . S
C962 O981 1.243 . S
C963 C962 1.503 . S
C963 C964 1.394 . S
C963 C968 1.373 . S
C964 C963 1.394 . S
C964 C965 1.380 . S
C964 H992 0.930 . S
C965 C964 1.380 . S
C965 C966 1.376 . S
C965 H993 0.930 . S
C966 C965 1.376 . S
C966 C967 1.370 . S
C967 C966 1.370 . S
C967 C968 1.396 . S
C967 H994 0.929 . S
C968 C963 1.373 . S
C968 C967 1.396 . S
C968 H995 0.929 . S
C969 O982 1.240 . S
C969 O983 1.289 . S
C970 O984 1.258 . S
C970 O985 1.256 . S
C971 La961 2.928 . S
C971 C972 1.503 . S
C971 O986 1.261 . S
C971 O987 1.243 . S
C972 C971 1.503 . S
C972 C973 1.394 . S
C972 C977 1.373 . S
C973 C972 1.394 . S
C973 C974 1.380 . S
C973 H996 0.930 . S
C974 C973 1.380 . S
C974 C975 1.376 . S
C974 H997 0.930 . S
C975 C974 1.376 . S
C975 C976 1.370 . S
C976 C975 1.370 . S
C976 C977 1.396 . S
C976 H998 0.929 . S
C977 C972 1.373 . S
C977 C976 1.396 . S
C977 H999 0.929 . S
C978 O988 1.240 . S
C978 O989 1.289 . S
C979 O990 1.258 . S
C979 O991 1.256 . S
O980 La960 2.521 . S
O980 C962 1.261 . S
O981 La960 2.628 . S
O981 C962 1.243 . S
O982 La960 2.554 . S
O982 C969 1.240 . S
O983 La960 2.757 . S
O983 La961 2.482 . S
O983 C969 1.289 . S
O984 La960 2.470 . S
O984 C970 1.258 . S
O985 La961 2.503 . S
O985 C970 1.256 . S
O986 La961 2.521 . S
O986 C971 1.261 . S
O987 La961 2.628 . S
O987 C971 1.243 . S
O988 La961 2.554 . S
O988 C978 1.240 . S
O989 La960 2.482 . S
O989 La961 2.757 . S
O989 C978 1.289 . S
O990 La961 2.470 . S
O990 C979 1.258 . S
O991 La960 2.503 . S
O991 C979 1.256 . S
H992 C964 0.930 . S
H993 C965 0.930 . S
H994 C967 0.929 . S
H995 C968 0.929 . S
H996 C973 0.930 . S
H997 C974 0.930 . S
H998 C976 0.929 . S
H999 C977 0.929 . S
La1000 C1002 2.928 . S
La1000 O1020 2.521 . S
La1000 O1021 2.628 . S
La1000 O1022 2.554 . S
La1000 O1023 2.757 . S
La1000 O1024 2.470 . S
La1000 O1029 2.482 . S
La1000 O1031 2.503 . S
La1001 C1011 2.928 . S
La1001 O1023 2.482 . S
La1001 O1025 2.503 . S
La1001 O1026 2.521 . S
La1001 O1027 2.628 . S
La1001 O1028 2.554 . S
La1001 O1029 2.757 . S
La1001 O1030 2.470 . S
C1002 La1000 2.928 . S
C1002 C1003 1.503 . S
C1002 O1020 1.261 . S
C1002 O1021 1.243 . S
C1003 C1002 1.503 . S
C1003 C1004 1.394 . S
C1003 C1008 1.373 . S
C1004 C1003 1.394 . S
C1004 C1005 1.380 . S
C1004 H1032 0.930 . S
C1005 C1004 1.380 . S
C1005 C1006 1.376 1_545 S
C1005 H1033 0.930 1_545 S
C1006 C1005 1.376 1_565 S
C1006 C1007 1.368 1_565 S
C1007 C1006 1.368 1_545 S
C1007 C1008 1.396 . S
C1007 H1034 0.929 . S
C1008 C1003 1.373 . S
C1008 C1007 1.396 . S
C1008 H1035 0.929 . S
C1009 O1022 1.240 . S
C1009 O1023 1.289 . S
C1010 O1024 1.258 . S
C1010 O1025 1.256 . S
C1011 La1001 2.928 . S
C1011 C1012 1.503 . S
C1011 O1026 1.261 . S
C1011 O1027 1.243 . S
C1012 C1011 1.503 . S
C1012 C1013 1.394 . S
C1012 C1017 1.373 . S
C1013 C1012 1.394 . S
C1013 C1014 1.380 . S
C1013 H1036 0.930 . S
C1014 C1013 1.380 . S
C1014 C1015 1.376 . S
C1014 H1037 0.930 . S
C1015 C1014 1.376 . S
C1015 C1016 1.370 . S
C1016 C1015 1.370 . S
C1016 C1017 1.396 . S
C1016 H1038 0.929 . S
C1017 C1012 1.373 . S
C1017 C1016 1.396 . S
C1017 H1039 0.929 . S
C1018 O1028 1.240 . S
C1018 O1029 1.289 . S
C1019 O1030 1.258 . S
C1019 O1031 1.256 . S
O1020 La1000 2.521 . S
O1020 C1002 1.261 . S
O1021 La1000 2.628 . S
O1021 C1002 1.243 . S
O1022 La1000 2.554 . S
O1022 C1009 1.240 . S
O1023 La1000 2.757 . S
O1023 La1001 2.482 . S
O1023 C1009 1.289 . S
O1024 La1000 2.470 . S
O1024 C1010 1.258 . S
O1025 La1001 2.503 . S
O1025 C1010 1.256 . S
O1026 La1001 2.521 . S
O1026 C1011 1.261 . S
O1027 La1001 2.628 . S
O1027 C1011 1.243 . S
O1028 La1001 2.554 . S
O1028 C1018 1.240 . S
O1029 La1000 2.482 . S
O1029 La1001 2.757 . S
O1029 C1018 1.289 . S
O1030 La1001 2.470 . S
O1030 C1019 1.258 . S
O1031 La1000 2.503 . S
O1031 C1019 1.256 . S
H1032 C1004 0.930 . S
H1033 C1005 0.930 1_565 S
H1034 C1007 0.929 . S
H1035 C1008 0.929 . S
H1036 C1013 0.930 . S
H1037 C1014 0.930 . S
H1038 C1016 0.929 . S
H1039 C1017 0.929 . S
La1040 C1042 2.928 . S
La1040 O1060 2.521 . S
La1040 O1061 2.628 . S
La1040 O1062 2.554 . S
La1040 O1063 2.757 . S
La1040 O1064 2.470 . S
La1040 O1069 2.482 . S
La1040 O1071 2.503 . S
La1041 C1051 2.928 . S
La1041 O1063 2.482 . S
La1041 O1065 2.503 . S
La1041 O1066 2.521 . S
La1041 O1067 2.628 . S
La1041 O1068 2.554 . S
La1041 O1069 2.757 . S
La1041 O1070 2.470 . S
C1042 La1040 2.928 . S
C1042 C1043 1.503 1_655 S
C1042 O1060 1.261 . S
C1042 O1061 1.243 . S
C1043 C1042 1.503 1_455 S
C1043 C1044 1.394 . S
C1043 C1048 1.373 . S
C1044 C1043 1.394 . S
C1044 C1045 1.380 . S
C1044 H1072 0.930 . S
C1045 C1044 1.380 . S
C1045 C1046 1.376 . S
C1045 H1073 0.930 . S
C1046 C1045 1.376 . S
C1046 C1047 1.370 . S
C1047 C1046 1.370 . S
C1047 C1048 1.396 . S
C1047 H1074 0.929 . S
C1048 C1043 1.373 . S
C1048 C1047 1.396 . S
C1048 H1075 0.929 . S
C1049 O1062 1.240 . S
C1049 O1063 1.289 . S
C1050 O1064 1.258 . S
C1050 O1065 1.256 . S
C1051 La1041 2.928 . S
C1051 C1052 1.503 . S
C1051 O1066 1.261 . S
C1051 O1067 1.243 . S
C1052 C1051 1.503 . S
C1052 C1053 1.394 . S
C1052 C1057 1.373 . S
C1053 C1052 1.394 . S
C1053 C1054 1.380 . S
C1053 H1076 0.930 . S
C1054 C1053 1.380 . S
C1054 C1055 1.376 . S
C1054 H1077 0.930 . S
C1055 C1054 1.376 . S
C1055 C1056 1.370 . S
C1056 C1055 1.370 . S
C1056 C1057 1.396 . S
C1056 H1078 0.929 . S
C1057 C1052 1.373 . S
C1057 C1056 1.396 . S
C1057 H1079 0.929 . S
C1058 O1068 1.240 . S
C1058 O1069 1.289 . S
C1059 O1070 1.258 . S
C1059 O1071 1.256 . S
O1060 La1040 2.521 . S
O1060 C1042 1.261 . S
O1061 La1040 2.628 . S
O1061 C1042 1.243 . S
O1062 La1040 2.554 . S
O1062 C1049 1.240 . S
O1063 La1040 2.757 . S
O1063 La1041 2.482 . S
O1063 C1049 1.289 . S
O1064 La1040 2.470 . S
O1064 C1050 1.258 . S
O1065 La1041 2.503 . S
O1065 C1050 1.256 . S
O1066 La1041 2.521 . S
O1066 C1051 1.261 . S
O1067 La1041 2.628 . S
O1067 C1051 1.243 . S
O1068 La1041 2.554 . S
O1068 C1058 1.240 . S
O1069 La1040 2.482 . S
O1069 La1041 2.757 . S
O1069 C1058 1.289 . S
O1070 La1041 2.470 . S
O1070 C1059 1.258 . S
O1071 La1040 2.503 . S
O1071 C1059 1.256 . S
H1072 C1044 0.930 . S
H1073 C1045 0.930 . S
H1074 C1047 0.929 . S
H1075 C1048 0.929 . S
H1076 C1053 0.930 . S
H1077 C1054 0.930 . S
H1078 C1056 0.929 . S
H1079 C1057 0.929 . S
La1080 C1082 2.928 . S
La1080 O1100 2.521 . S
La1080 O1101 2.628 . S
La1080 O1102 2.554 . S
La1080 O1103 2.757 . S
La1080 O1104 2.470 . S
La1080 O1109 2.482 . S
La1080 O1111 2.503 . S
La1081 C1091 2.928 . S
La1081 O1103 2.482 . S
La1081 O1105 2.503 . S
La1081 O1106 2.521 . S
La1081 O1107 2.628 . S
La1081 O1108 2.554 . S
La1081 O1109 2.757 . S
La1081 O1110 2.470 . S
C1082 La1080 2.928 . S
C1082 C1083 1.503 . S
C1082 O1100 1.261 . S
C1082 O1101 1.243 . S
C1083 C1082 1.503 . S
C1083 C1084 1.394 . S
C1083 C1088 1.373 . S
C1084 C1083 1.394 . S
C1084 C1085 1.380 . S
C1084 H1112 0.930 . S
C1085 C1084 1.380 . S
C1085 C1086 1.376 . S
C1085 H1113 0.930 . S
C1086 C1085 1.376 . S
C1086 C1087 1.370 . S
C1087 C1086 1.370 . S
C1087 C1088 1.396 . S
C1087 H1114 0.929 . S
C1088 C1083 1.373 . S
C1088 C1087 1.396 . S
C1088 H1115 0.929 . S
C1089 O1102 1.240 . S
C1089 O1103 1.289 . S
C1090 O1104 1.258 . S
C1090 O1105 1.256 . S
C1091 La1081 2.928 . S
C1091 C1092 1.503 . S
C1091 O1106 1.261 . S
C1091 O1107 1.243 . S
C1092 C1091 1.503 . S
C1092 C1093 1.394 . S
C1092 C1097 1.373 . S
C1093 C1092 1.394 . S
C1093 C1094 1.380 . S
C1093 H1116 0.930 . S
C1094 C1093 1.380 . S
C1094 C1095 1.376 . S
C1094 H1117 0.930 . S
C1095 C1094 1.376 . S
C1095 C1096 1.370 . S
C1096 C1095 1.370 . S
C1096 C1097 1.396 . S
C1096 H1118 0.929 . S
C1097 C1092 1.373 . S
C1097 C1096 1.396 . S
C1097 H1119 0.929 . S
C1098 O1108 1.240 . S
C1098 O1109 1.289 . S
C1099 O1110 1.258 . S
C1099 O1111 1.256 . S
O1100 La1080 2.521 . S
O1100 C1082 1.261 . S
O1101 La1080 2.628 . S
O1101 C1082 1.243 . S
O1102 La1080 2.554 . S
O1102 C1089 1.240 . S
O1103 La1080 2.757 . S
O1103 La1081 2.482 . S
O1103 C1089 1.289 . S
O1104 La1080 2.470 . S
O1104 C1090 1.258 . S
O1105 La1081 2.503 . S
O1105 C1090 1.256 . S
O1106 La1081 2.521 . S
O1106 C1091 1.261 . S
O1107 La1081 2.628 . S
O1107 C1091 1.243 . S
O1108 La1081 2.554 . S
O1108 C1098 1.240 . S
O1109 La1080 2.482 . S
O1109 La1081 2.757 . S
O1109 C1098 1.289 . S
O1110 La1081 2.470 . S
O1110 C1099 1.258 . S
O1111 La1080 2.503 . S
O1111 C1099 1.256 . S
H1112 C1084 0.930 . S
H1113 C1085 0.930 . S
H1114 C1087 0.929 . S
H1115 C1088 0.929 . S
H1116 C1093 0.930 . S
H1117 C1094 0.930 . S
H1118 C1096 0.929 . S
H1119 C1097 0.929 . S
La1120 C1122 2.928 . S
La1120 O1140 2.521 . S
La1120 O1141 2.628 . S
La1120 O1142 2.554 . S
La1120 O1143 2.757 . S
La1120 O1144 2.470 . S
La1120 O1149 2.482 . S
La1120 O1151 2.503 . S
La1121 C1131 2.928 . S
La1121 O1143 2.482 . S
La1121 O1145 2.503 . S
La1121 O1146 2.521 . S
La1121 O1147 2.628 . S
La1121 O1148 2.554 . S
La1121 O1149 2.757 . S
La1121 O1150 2.470 . S
C1122 La1120 2.928 . S
C1122 C1123 1.503 . S
C1122 O1140 1.261 . S
C1122 O1141 1.243 . S
C1123 C1122 1.503 . S
C1123 C1124 1.394 . S
C1123 C1128 1.373 . S
C1124 C1123 1.394 . S
C1124 C1125 1.380 . S
C1124 H1152 0.930 . S
C1125 C1124 1.380 . S
C1125 C1126 1.376 . S
C1125 H1153 0.930 . S
C1126 C1125 1.376 . S
C1126 C1127 1.370 . S
C1127 C1126 1.370 . S
C1127 C1128 1.396 . S
C1127 H1154 0.929 . S
C1128 C1123 1.373 . S
C1128 C1127 1.396 . S
C1128 H1155 0.929 . S
C1129 O1142 1.240 . S
C1129 O1143 1.289 . S
C1130 O1144 1.258 . S
C1130 O1145 1.256 . S
C1131 La1121 2.928 . S
C1131 C1132 1.503 . S
C1131 O1146 1.261 . S
C1131 O1147 1.243 . S
C1132 C1131 1.503 . S
C1132 C1133 1.394 . S
C1132 C1137 1.373 . S
C1133 C1132 1.394 . S
C1133 C1134 1.380 . S
C1133 H1156 0.930 . S
C1134 C1133 1.380 . S
C1134 C1135 1.376 . S
C1134 H1157 0.930 . S
C1135 C1134 1.376 . S
C1135 C1136 1.370 . S
C1136 C1135 1.370 . S
C1136 C1137 1.396 . S
C1136 H1158 0.929 . S
C1137 C1132 1.373 . S
C1137 C1136 1.396 . S
C1137 H1159 0.929 . S
C1138 O1148 1.240 . S
C1138 O1149 1.289 . S
C1139 O1150 1.258 . S
C1139 O1151 1.256 . S
O1140 La1120 2.521 . S
O1140 C1122 1.261 . S
O1141 La1120 2.628 . S
O1141 C1122 1.243 . S
O1142 La1120 2.554 . S
O1142 C1129 1.240 . S
O1143 La1120 2.757 . S
O1143 La1121 2.482 . S
O1143 C1129 1.289 . S
O1144 La1120 2.470 . S
O1144 C1130 1.258 . S
O1145 La1121 2.503 . S
O1145 C1130 1.256 . S
O1146 La1121 2.521 . S
O1146 C1131 1.261 . S
O1147 La1121 2.628 . S
O1147 C1131 1.243 . S
O1148 La1121 2.554 . S
O1148 C1138 1.240 . S
O1149 La1120 2.482 . S
O1149 La1121 2.757 . S
O1149 C1138 1.289 . S
O1150 La1121 2.470 . S
O1150 C1139 1.258 . S
O1151 La1120 2.503 . S
O1151 C1139 1.256 . S
H1152 C1124 0.930 . S
H1153 C1125 0.930 . S
H1154 C1127 0.929 . S
H1155 C1128 0.929 . S
H1156 C1133 0.930 . S
H1157 C1134 0.930 . S
H1158 C1136 0.929 . S
H1159 C1137 0.929 . S
La1160 C1162 2.928 . S
La1160 O1180 2.521 . S
La1160 O1181 2.628 . S
La1160 O1182 2.554 . S
La1160 O1183 2.757 . S
La1160 O1184 2.470 . S
La1160 O1189 2.482 . S
La1160 O1191 2.503 . S
La1161 C1171 2.928 . S
La1161 O1183 2.482 . S
La1161 O1185 2.503 . S
La1161 O1186 2.521 . S
La1161 O1187 2.628 . S
La1161 O1188 2.554 . S
La1161 O1189 2.757 . S
La1161 O1190 2.470 . S
C1162 La1160 2.928 . S
C1162 C1163 1.503 . S
C1162 O1180 1.261 . S
C1162 O1181 1.243 . S
C1163 C1162 1.503 . S
C1163 C1164 1.394 . S
C1163 C1168 1.373 . S
C1164 C1163 1.394 . S
C1164 C1165 1.380 . S
C1164 H1192 0.930 . S
C1165 C1164 1.380 . S
C1165 C1166 1.376 . S
C1165 H1193 0.930 . S
C1166 C1165 1.376 . S
C1166 C1167 1.370 . S
C1167 C1166 1.370 . S
C1167 C1168 1.396 . S
C1167 H1194 0.929 . S
C1168 C1163 1.373 . S
C1168 C1167 1.396 . S
C1168 H1195 0.929 . S
C1169 O1182 1.240 . S
C1169 O1183 1.289 . S
C1170 O1184 1.258 . S
C1170 O1185 1.256 . S
C1171 La1161 2.928 . S
C1171 C1172 1.503 . S
C1171 O1186 1.261 . S
C1171 O1187 1.243 . S
C1172 C1171 1.503 . S
C1172 C1173 1.394 . S
C1172 C1177 1.373 . S
C1173 C1172 1.394 . S
C1173 C1174 1.380 . S
C1173 H1196 0.930 . S
C1174 C1173 1.380 . S
C1174 C1175 1.376 . S
C1174 H1197 0.930 . S
C1175 C1174 1.376 . S
C1175 C1176 1.370 . S
C1176 C1175 1.370 . S
C1176 C1177 1.396 . S
C1176 H1198 0.929 . S
C1177 C1172 1.373 . S
C1177 C1176 1.396 . S
C1177 H1199 0.929 . S
C1178 O1188 1.240 . S
C1178 O1189 1.289 . S
C1179 O1190 1.258 . S
C1179 O1191 1.256 . S
O1180 La1160 2.521 . S
O1180 C1162 1.261 . S
O1181 La1160 2.628 . S
O1181 C1162 1.243 . S
O1182 La1160 2.554 . S
O1182 C1169 1.240 . S
O1183 La1160 2.757 . S
O1183 La1161 2.482 . S
O1183 C1169 1.289 . S
O1184 La1160 2.470 . S
O1184 C1170 1.258 . S
O1185 La1161 2.503 . S
O1185 C1170 1.256 . S
O1186 La1161 2.521 . S
O1186 C1171 1.261 . S
O1187 La1161 2.628 . S
O1187 C1171 1.243 . S
O1188 La1161 2.554 . S
O1188 C1178 1.240 . S
O1189 La1160 2.482 . S
O1189 La1161 2.757 . S
O1189 C1178 1.289 . S
O1190 La1161 2.470 . S
O1190 C1179 1.258 . S
O1191 La1160 2.503 . S
O1191 C1179 1.256 . S
H1192 C1164 0.930 . S
H1193 C1165 0.930 . S
H1194 C1167 0.929 . S
H1195 C1168 0.929 . S
H1196 C1173 0.930 . S
H1197 C1174 0.930 . S
H1198 C1176 0.929 . S
H1199 C1177 0.929 . S
La1200 C1202 2.928 . S
La1200 O1220 2.521 . S
La1200 O1221 2.628 . S
La1200 O1222 2.554 . S
La1200 O1223 2.757 . S
La1200 O1224 2.470 . S
La1200 O1229 2.482 . S
La1200 O1231 2.503 . S
La1201 C1211 2.928 . S
La1201 O1223 2.482 . S
La1201 O1225 2.503 . S
La1201 O1226 2.521 . S
La1201 O1227 2.628 . S
La1201 O1228 2.554 . S
La1201 O1229 2.757 . S
La1201 O1230 2.470 . S
C1202 La1200 2.928 . S
C1202 C1203 1.503 . S
C1202 O1220 1.261 . S
C1202 O1221 1.243 . S
C1203 C1202 1.503 . S
C1203 C1204 1.394 . S
C1203 C1208 1.373 . S
C1204 C1203 1.394 . S
C1204 C1205 1.380 . S
C1204 H1232 0.930 . S
C1205 C1204 1.380 . S
C1205 C1206 1.376 . S
C1205 H1233 0.930 . S
C1206 C1205 1.376 . S
C1206 C1207 1.370 . S
C1207 C1206 1.370 . S
C1207 C1208 1.396 . S
C1207 H1234 0.929 . S
C1208 C1203 1.373 . S
C1208 C1207 1.396 . S
C1208 H1235 0.929 . S
C1209 O1222 1.240 . S
C1209 O1223 1.289 . S
C1210 O1224 1.258 . S
C1210 O1225 1.256 . S
C1211 La1201 2.928 . S
C1211 C1212 1.503 . S
C1211 O1226 1.261 . S
C1211 O1227 1.243 . S
C1212 C1211 1.503 . S
C1212 C1213 1.394 . S
C1212 C1217 1.373 . S
C1213 C1212 1.394 . S
C1213 C1214 1.380 . S
C1213 H1236 0.930 . S
C1214 C1213 1.380 . S
C1214 C1215 1.376 . S
C1214 H1237 0.930 . S
C1215 C1214 1.376 . S
C1215 C1216 1.370 . S
C1216 C1215 1.370 . S
C1216 C1217 1.396 . S
C1216 H1238 0.929 . S
C1217 C1212 1.373 . S
C1217 C1216 1.396 . S
C1217 H1239 0.929 . S
C1218 O1228 1.240 . S
C1218 O1229 1.289 . S
C1219 O1230 1.258 . S
C1219 O1231 1.256 . S
O1220 La1200 2.521 . S
O1220 C1202 1.261 . S
O1221 La1200 2.628 . S
O1221 C1202 1.243 . S
O1222 La1200 2.554 . S
O1222 C1209 1.240 . S
O1223 La1200 2.757 . S
O1223 La1201 2.482 . S
O1223 C1209 1.289 . S
O1224 La1200 2.470 . S
O1224 C1210 1.258 . S
O1225 La1201 2.503 . S
O1225 C1210 1.256 . S
O1226 La1201 2.521 . S
O1226 C1211 1.261 . S
O1227 La1201 2.628 . S
O1227 C1211 1.243 . S
O1228 La1201 2.554 . S
O1228 C1218 1.240 . S
O1229 La1200 2.482 . S
O1229 La1201 2.757 . S
O1229 C1218 1.289 . S
O1230 La1201 2.470 . S
O1230 C1219 1.258 . S
O1231 La1200 2.503 . S
O1231 C1219 1.256 . S
H1232 C1204 0.930 . S
H1233 C1205 0.930 . S
H1234 C1207 0.929 . S
H1235 C1208 0.929 . S
H1236 C1213 0.930 . S
H1237 C1214 0.930 . S
H1238 C1216 0.929 . S
H1239 C1217 0.929 . S
La1240 C1242 2.928 . S
La1240 O1260 2.521 . S
La1240 O1261 2.628 . S
La1240 O1262 2.554 . S
La1240 O1263 2.757 . S
La1240 O1264 2.470 . S
La1240 O1269 2.482 . S
La1240 O1271 2.503 . S
La1241 C1251 2.928 . S
La1241 O1263 2.482 . S
La1241 O1265 2.503 . S
La1241 O1266 2.521 . S
La1241 O1267 2.628 . S
La1241 O1268 2.554 . S
La1241 O1269 2.757 . S
La1241 O1270 2.470 . S
C1242 La1240 2.928 . S
C1242 C1243 1.503 . S
C1242 O1260 1.261 . S
C1242 O1261 1.243 . S
C1243 C1242 1.503 . S
C1243 C1244 1.394 . S
C1243 C1248 1.373 . S
C1244 C1243 1.394 . S
C1244 C1245 1.380 . S
C1244 H1272 0.930 . S
C1245 C1244 1.380 . S
C1245 C1246 1.376 . S
C1245 H1273 0.930 . S
C1246 C1245 1.376 . S
C1246 C1247 1.370 . S
C1247 C1246 1.370 . S
C1247 C1248 1.396 . S
C1247 H1274 0.929 . S
C1248 C1243 1.373 . S
C1248 C1247 1.396 . S
C1248 H1275 0.929 . S
C1249 O1262 1.240 . S
C1249 O1263 1.289 . S
C1250 O1264 1.258 . S
C1250 O1265 1.256 . S
C1251 La1241 2.928 . S
C1251 C1252 1.503 . S
C1251 O1266 1.261 . S
C1251 O1267 1.243 . S
C1252 C1251 1.503 . S
C1252 C1253 1.394 . S
C1252 C1257 1.373 . S
C1253 C1252 1.394 . S
C1253 C1254 1.380 . S
C1253 H1276 0.930 . S
C1254 C1253 1.380 . S
C1254 C1255 1.376 . S
C1254 H1277 0.930 . S
C1255 C1254 1.376 . S
C1255 C1256 1.370 . S
C1256 C1255 1.370 . S
C1256 C1257 1.396 . S
C1256 H1278 0.929 . S
C1257 C1252 1.373 . S
C1257 C1256 1.396 . S
C1257 H1279 0.929 . S
C1258 O1268 1.240 . S
C1258 O1269 1.289 . S
C1259 O1270 1.258 . S
C1259 O1271 1.256 . S
O1260 La1240 2.521 . S
O1260 C1242 1.261 . S
O1261 La1240 2.628 . S
O1261 C1242 1.243 . S
O1262 La1240 2.554 . S
O1262 C1249 1.240 . S
O1263 La1240 2.757 . S
O1263 La1241 2.482 . S
O1263 C1249 1.289 . S
O1264 La1240 2.470 . S
O1264 C1250 1.258 . S
O1265 La1241 2.503 . S
O1265 C1250 1.256 . S
O1266 La1241 2.521 . S
O1266 C1251 1.261 . S
O1267 La1241 2.628 . S
O1267 C1251 1.243 . S
O1268 La1241 2.554 . S
O1268 C1258 1.240 . S
O1269 La1240 2.482 . S
O1269 La1241 2.757 . S
O1269 C1258 1.289 . S
O1270 La1241 2.470 . S
O1270 C1259 1.258 . S
O1271 La1240 2.503 . S
O1271 C1259 1.256 . S
H1272 C1244 0.930 . S
H1273 C1245 0.930 . S
H1274 C1247 0.929 . S
H1275 C1248 0.929 . S
H1276 C1253 0.930 . S
H1277 C1254 0.930 . S
H1278 C1256 0.929 . S
H1279 C1257 0.929 . S
La1280 C1282 2.928 . S
La1280 O1300 2.521 . S
La1280 O1301 2.628 . S
La1280 O1302 2.554 . S
La1280 O1303 2.757 . S
La1280 O1304 2.470 . S
La1280 O1309 2.482 . S
La1280 O1311 2.503 . S
La1281 C1291 2.928 . S
La1281 O1303 2.482 . S
La1281 O1305 2.503 . S
La1281 O1306 2.521 . S
La1281 O1307 2.628 . S
La1281 O1308 2.554 . S
La1281 O1309 2.757 . S
La1281 O1310 2.470 . S
C1282 La1280 2.928 . S
C1282 C1283 1.503 . S
C1282 O1300 1.261 . S
C1282 O1301 1.243 . S
C1283 C1282 1.503 . S
C1283 C1284 1.394 . S
C1283 C1288 1.373 . S
C1284 C1283 1.394 . S
C1284 C1285 1.380 . S
C1284 H1312 0.930 . S
C1285 C1284 1.380 . S
C1285 C1286 1.376 . S
C1285 H1313 0.930 . S
C1286 C1285 1.376 . S
C1286 C1287 1.370 . S
C1287 C1286 1.370 . S
C1287 C1288 1.396 . S
C1287 H1314 0.929 . S
C1288 C1283 1.373 . S
C1288 C1287 1.396 . S
C1288 H1315 0.929 . S
C1289 O1302 1.240 . S
C1289 O1303 1.289 . S
C1290 O1304 1.258 . S
C1290 O1305 1.256 . S
C1291 La1281 2.928 . S
C1291 C1292 1.503 . S
C1291 O1306 1.261 . S
C1291 O1307 1.243 . S
C1292 C1291 1.503 . S
C1292 C1293 1.394 . S
C1292 C1297 1.373 . S
C1293 C1292 1.394 . S
C1293 C1294 1.380 . S
C1293 H1316 0.930 . S
C1294 C1293 1.380 . S
C1294 C1295 1.376 . S
C1294 H1317 0.930 . S
C1295 C1294 1.376 . S
C1295 C1296 1.370 . S
C1296 C1295 1.370 . S
C1296 C1297 1.396 . S
C1296 H1318 0.929 . S
C1297 C1292 1.373 . S
C1297 C1296 1.396 . S
C1297 H1319 0.929 . S
C1298 O1308 1.240 . S
C1298 O1309 1.289 . S
C1299 O1310 1.258 . S
C1299 O1311 1.256 . S
O1300 La1280 2.521 . S
O1300 C1282 1.261 . S
O1301 La1280 2.628 . S
O1301 C1282 1.243 . S
O1302 La1280 2.554 . S
O1302 C1289 1.240 . S
O1303 La1280 2.757 . S
O1303 La1281 2.482 . S
O1303 C1289 1.289 . S
O1304 La1280 2.470 . S
O1304 C1290 1.258 . S
O1305 La1281 2.503 . S
O1305 C1290 1.256 . S
O1306 La1281 2.521 . S
O1306 C1291 1.261 . S
O1307 La1281 2.628 . S
O1307 C1291 1.243 . S
O1308 La1281 2.554 . S
O1308 C1298 1.240 . S
O1309 La1280 2.482 . S
O1309 La1281 2.757 . S
O1309 C1298 1.289 . S
O1310 La1281 2.470 . S
O1310 C1299 1.258 . S
O1311 La1280 2.503 . S
O1311 C1299 1.256 . S
H1312 C1284 0.930 . S
H1313 C1285 0.930 . S
H1314 C1287 0.929 . S
H1315 C1288 0.929 . S
H1316 C1293 0.930 . S
H1317 C1294 0.930 . S
H1318 C1296 0.929 . S
H1319 C1297 0.929 . S
La1320 C1322 2.928 . S
La1320 O1340 2.521 . S
La1320 O1341 2.628 . S
La1320 O1342 2.554 . S
La1320 O1343 2.757 . S
La1320 O1344 2.470 . S
La1320 O1349 2.482 . S
La1320 O1351 2.503 . S
La1321 C1331 2.928 . S
La1321 O1343 2.482 . S
La1321 O1345 2.503 . S
La1321 O1346 2.521 . S
La1321 O1347 2.628 . S
La1321 O1348 2.554 . S
La1321 O1349 2.757 . S
La1321 O1350 2.470 . S
C1322 La1320 2.928 . S
C1322 C1323 1.503 . S
C1322 O1340 1.261 . S
C1322 O1341 1.243 . S
C1323 C1322 1.503 . S
C1323 C1324 1.394 . S
C1323 C1328 1.373 . S
C1324 C1323 1.394 . S
C1324 C1325 1.380 . S
C1324 H1352 0.930 . S
C1325 C1324 1.380 . S
C1325 C1326 1.376 . S
C1325 H1353 0.930 . S
C1326 C1325 1.376 . S
C1326 C1327 1.370 . S
C1327 C1326 1.370 . S
C1327 C1328 1.396 . S
C1327 H1354 0.929 . S
C1328 C1323 1.373 . S
C1328 C1327 1.396 . S
C1328 H1355 0.929 . S
C1329 O1342 1.240 . S
C1329 O1343 1.289 . S
C1330 O1344 1.258 . S
C1330 O1345 1.256 . S
C1331 La1321 2.928 . S
C1331 C1332 1.503 . S
C1331 O1346 1.261 . S
C1331 O1347 1.243 . S
C1332 C1331 1.503 . S
C1332 C1333 1.394 . S
C1332 C1337 1.373 . S
C1333 C1332 1.394 . S
C1333 C1334 1.380 . S
C1333 H1356 0.930 . S
C1334 C1333 1.380 . S
C1334 C1335 1.376 . S
C1334 H1357 0.930 . S
C1335 C1334 1.376 . S
C1335 C1336 1.370 . S
C1336 C1335 1.370 . S
C1336 C1337 1.396 . S
C1336 H1358 0.929 . S
C1337 C1332 1.373 . S
C1337 C1336 1.396 . S
C1337 H1359 0.929 . S
C1338 O1348 1.240 . S
C1338 O1349 1.289 . S
C1339 O1350 1.258 . S
C1339 O1351 1.256 . S
O1340 La1320 2.521 . S
O1340 C1322 1.261 . S
O1341 La1320 2.628 . S
O1341 C1322 1.243 . S
O1342 La1320 2.554 . S
O1342 C1329 1.240 . S
O1343 La1320 2.757 . S
O1343 La1321 2.482 . S
O1343 C1329 1.289 . S
O1344 La1320 2.470 . S
O1344 C1330 1.258 . S
O1345 La1321 2.503 . S
O1345 C1330 1.256 . S
O1346 La1321 2.521 . S
O1346 C1331 1.261 . S
O1347 La1321 2.628 . S
O1347 C1331 1.243 . S
O1348 La1321 2.554 . S
O1348 C1338 1.240 . S
O1349 La1320 2.482 . S
O1349 La1321 2.757 . S
O1349 C1338 1.289 . S
O1350 La1321 2.470 . S
O1350 C1339 1.258 . S
O1351 La1320 2.503 . S
O1351 C1339 1.256 . S
H1352 C1324 0.930 . S
H1353 C1325 0.930 . S
H1354 C1327 0.929 . S
H1355 C1328 0.929 . S
H1356 C1333 0.930 . S
H1357 C1334 0.930 . S
H1358 C1336 0.929 . S
H1359 C1337 0.929 . S
La1360 C1362 2.928 . S
La1360 O1380 2.521 . S
La1360 O1381 2.628 . S
La1360 O1382 2.554 . S
La1360 O1383 2.757 . S
La1360 O1384 2.470 . S
La1360 O1389 2.482 . S
La1360 O1391 2.503 . S
La1361 C1371 2.928 . S
La1361 O1383 2.482 . S
La1361 O1385 2.503 . S
La1361 O1386 2.521 . S
La1361 O1387 2.628 . S
La1361 O1388 2.554 . S
La1361 O1389 2.757 . S
La1361 O1390 2.470 . S
C1362 La1360 2.928 . S
C1362 C1363 1.503 . S
C1362 O1380 1.261 . S
C1362 O1381 1.243 . S
C1363 C1362 1.503 . S
C1363 C1364 1.394 . S
C1363 C1368 1.373 . S
C1364 C1363 1.394 . S
C1364 C1365 1.380 . S
C1364 H1392 0.930 . S
C1365 C1364 1.380 . S
C1365 C1366 1.376 . S
C1365 H1393 0.930 . S
C1366 C1365 1.376 . S
C1366 C1367 1.370 . S
C1367 C1366 1.370 . S
C1367 C1368 1.396 . S
C1367 H1394 0.929 . S
C1368 C1363 1.373 . S
C1368 C1367 1.396 . S
C1368 H1395 0.929 . S
C1369 O1382 1.240 . S
C1369 O1383 1.289 . S
C1370 O1384 1.258 . S
C1370 O1385 1.256 . S
C1371 La1361 2.928 . S
C1371 C1372 1.503 . S
C1371 O1386 1.261 . S
C1371 O1387 1.243 . S
C1372 C1371 1.503 . S
C1372 C1373 1.394 . S
C1372 C1377 1.373 . S
C1373 C1372 1.394 . S
C1373 C1374 1.380 . S
C1373 H1396 0.930 . S
C1374 C1373 1.380 . S
C1374 C1375 1.379 . S
C1374 H1397 0.936 . S
C1375 C1374 1.379 . S
C1375 C1376 1.372 . S
C1376 C1375 1.372 . S
C1376 C1377 1.396 . S
C1376 H1398 0.929 . S
C1377 C1372 1.373 . S
C1377 C1376 1.396 . S
C1377 H1399 0.929 . S
C1378 O1388 1.240 . S
C1378 O1389 1.289 . S
C1379 O1390 1.258 . S
C1379 O1391 1.256 . S
O1380 La1360 2.521 . S
O1380 C1362 1.261 . S
O1381 La1360 2.628 . S
O1381 C1362 1.243 . S
O1382 La1360 2.554 . S
O1382 C1369 1.240 . S
O1383 La1360 2.757 . S
O1383 La1361 2.482 . S
O1383 C1369 1.289 . S
O1384 La1360 2.470 . S
O1384 C1370 1.258 . S
O1385 La1361 2.503 . S
O1385 C1370 1.256 . S
O1386 La1361 2.521 . S
O1386 C1371 1.261 . S
O1387 La1361 2.628 . S
O1387 C1371 1.243 . S
O1388 La1361 2.554 . S
O1388 C1378 1.240 . S
O1389 La1360 2.482 . S
O1389 La1361 2.757 . S
O1389 C1378 1.289 . S
O1390 La1361 2.470 . S
O1390 C1379 1.258 . S
O1391 La1360 2.503 . S
O1391 C1379 1.256 . S
H1392 C1364 0.930 . S
H1393 C1365 0.930 . S
H1394 C1367 0.929 . S
H1395 C1368 0.929 . S
H1396 C1373 0.930 . S
H1397 C1374 0.936 . S
H1398 C1376 0.929 . S
H1399 C1377 0.929 . S
La1400 C1402 2.928 . S
La1400 O1420 2.521 . S
La1400 O1421 2.628 . S
La1400 O1422 2.554 . S
La1400 O1423 2.757 . S
La1400 O1424 2.470 . S
La1400 O1429 2.482 . S
La1400 O1431 2.503 . S
La1401 C1411 2.928 . S
La1401 O1423 2.482 . S
La1401 O1425 2.503 . S
La1401 O1426 2.521 . S
La1401 O1427 2.628 . S
La1401 O1428 2.554 . S
La1401 O1429 2.757 . S
La1401 O1430 2.470 . S
C1402 La1400 2.928 . S
C1402 C1403 1.503 . S
C1402 O1420 1.261 . S
C1402 O1421 1.243 . S
C1403 C1402 1.503 . S
C1403 C1404 1.394 . S
C1403 C1408 1.373 . S
C1404 C1403 1.394 . S
C1404 C1405 1.380 . S
C1404 H1432 0.930 . S
C1405 C1404 1.380 . S
C1405 C1406 1.376 . S
C1405 H1433 0.930 . S
C1406 C1405 1.376 . S
C1406 C1407 1.370 . S
C1407 C1406 1.370 . S
C1407 C1408 1.396 . S
C1407 H1434 0.929 . S
C1408 C1403 1.373 . S
C1408 C1407 1.396 . S
C1408 H1435 0.929 . S
C1409 O1422 1.240 . S
C1409 O1423 1.289 . S
C1410 O1424 1.258 . S
C1410 O1425 1.256 . S
C1411 La1401 2.928 . S
C1411 C1412 1.503 1_655 S
C1411 O1426 1.261 . S
C1411 O1427 1.243 . S
C1412 C1411 1.503 1_455 S
C1412 C1413 1.394 . S
C1412 C1417 1.373 . S
C1413 C1412 1.394 . S
C1413 C1414 1.380 . S
C1413 H1436 0.930 . S
C1414 C1413 1.380 . S
C1414 C1415 1.376 . S
C1414 H1437 0.930 . S
C1415 C1414 1.376 . S
C1415 C1416 1.370 . S
C1416 C1415 1.370 . S
C1416 C1417 1.396 . S
C1416 H1438 0.929 . S
C1417 C1412 1.373 . S
C1417 C1416 1.396 . S
C1417 H1439 0.929 . S
C1418 O1428 1.240 . S
C1418 O1429 1.289 . S
C1419 O1430 1.258 . S
C1419 O1431 1.256 . S
O1420 La1400 2.521 . S
O1420 C1402 1.261 . S
O1421 La1400 2.628 . S
O1421 C1402 1.243 . S
O1422 La1400 2.554 . S
O1422 C1409 1.240 . S
O1423 La1400 2.757 . S
O1423 La1401 2.482 . S
O1423 C1409 1.289 . S
O1424 La1400 2.470 . S
O1424 C1410 1.258 . S
O1425 La1401 2.503 . S
O1425 C1410 1.256 . S
O1426 La1401 2.521 . S
O1426 C1411 1.261 . S
O1427 La1401 2.628 . S
O1427 C1411 1.243 . S
O1428 La1401 2.554 . S
O1428 C1418 1.240 . S
O1429 La1400 2.482 . S
O1429 La1401 2.757 . S
O1429 C1418 1.289 . S
O1430 La1401 2.470 . S
O1430 C1419 1.258 . S
O1431 La1400 2.503 . S
O1431 C1419 1.256 . S
H1432 C1404 0.930 . S
H1433 C1405 0.930 . S
H1434 C1407 0.929 . S
H1435 C1408 0.929 . S
H1436 C1413 0.930 . S
H1437 C1414 0.930 . S
H1438 C1416 0.929 . S
H1439 C1417 0.929 . S
C1440 C1441 1.349 . S
C1440 C1442 1.327 . S
C1440 H1465 0.950 . S
C1441 C1440 1.349 . S
C1441 C1457 1.349 . S
C1442 C1440 1.327 . S
C1442 C1461 1.429 . S
C1442 H1466 0.950 . S
C1443 C1460 1.574 . S
C1443 C1462 1.368 . S
C1443 H1467 0.949 . S
H1444 C1448 0.949 . S
C1445 C1446 1.349 . S
C1445 C1447 1.327 . S
C1445 H1468 0.950 . S
C1446 C1445 1.349 . S
C1446 C1458 1.349 . S
C1447 C1445 1.327 . S
C1447 C1463 1.429 . S
C1447 H1469 0.950 . S
C1448 H1444 0.949 . S
C1448 C1456 1.574 . S
C1448 C1464 1.368 . S
H1449 C1457 0.950 . S
H1450 C1455 0.950 . S
H1451 C1456 0.949 . S
H1452 C1458 0.950 . S
H1453 C1459 0.950 . S
H1454 C1460 0.949 . S
C1455 H1450 0.950 . S
C1455 C1457 1.327 . S
C1455 C1461 1.429 . S
C1456 C1448 1.574 . S
C1456 H1451 0.949 . S
C1456 C1462 1.368 . S
C1457 C1441 1.349 . S
C1457 H1449 0.950 . S
C1457 C1455 1.327 . S
C1458 C1446 1.349 . S
C1458 H1452 0.950 . S
C1458 C1459 1.327 . S
C1459 H1453 0.950 . S
C1459 C1458 1.327 . S
C1459 C1463 1.429 . S
C1460 C1443 1.574 . S
C1460 H1454 0.949 . S
C1460 C1464 1.368 . S
C1461 C1442 1.429 . S
C1461 C1455 1.429 . S
C1461 C1462 1.523 . S
C1462 C1443 1.368 . S
C1462 C1456 1.368 . S
C1462 C1461 1.523 . S
C1463 C1447 1.429 . S
C1463 C1459 1.429 . S
C1463 C1464 1.523 . S
C1464 C1448 1.368 . S
C1464 C1460 1.368 . S
C1464 C1463 1.523 . S
H1465 C1440 0.950 . S
H1466 C1442 0.950 . S
H1467 C1443 0.949 . S
H1468 C1445 0.950 . S
H1469 C1447 0.950 . S
C1470 C1471 1.349 . S
C1470 C1472 1.327 . S
C1470 H1495 0.950 . S
C1471 C1470 1.349 . S
C1471 C1487 1.349 . S
C1472 C1470 1.327 . S
C1472 C1491 1.429 . S
C1472 H1496 0.950 . S
C1473 C1490 1.574 . S
C1473 C1492 1.368 . S
C1473 H1497 0.949 . S
H1474 C1478 0.949 . S
C1475 C1476 1.349 . S
C1475 C1477 1.327 . S
C1475 H1498 0.950 . S
C1476 C1475 1.349 . S
C1476 C1488 1.349 1_655 S
C1477 C1475 1.327 . S
C1477 C1493 1.429 . S
C1477 H1499 0.950 . S
C1478 H1474 0.949 . S
C1478 C1486 1.574 . S
C1478 C1494 1.368 . S
H1479 C1487 0.950 . S
H1480 C1485 0.950 . S
H1481 C1486 0.949 . S
H1482 C1488 0.950 . S
H1483 C1489 0.950 . S
H1484 C1490 0.949 . S
C1485 H1480 0.950 . S
C1485 C1487 1.327 . S
C1485 C1491 1.429 . S
C1486 C1478 1.574 . S
C1486 H1481 0.949 . S
C1486 C1492 1.368 . S
C1487 C1471 1.349 . S
C1487 H1479 0.950 . S
C1487 C1485 1.327 . S
C1488 C1476 1.349 1_455 S
C1488 H1482 0.950 . S
C1488 C1489 1.327 . S
C1489 H1483 0.950 . S
C1489 C1488 1.327 . S
C1489 C1493 1.429 1_455 S
C1490 C1473 1.574 . S
C1490 H1484 0.949 . S
C1490 C1494 1.368 . S
C1491 C1472 1.429 . S
C1491 C1485 1.429 . S
C1491 C1492 1.523 . S
C1492 C1473 1.368 . S
C1492 C1486 1.368 . S
C1492 C1491 1.523 . S
C1493 C1477 1.429 . S
C1493 C1489 1.429 1_655 S
C1493 C1494 1.523 . S
C1494 C1478 1.368 . S
C1494 C1490 1.368 . S
C1494 C1493 1.523 . S
H1495 C1470 0.950 . S
H1496 C1472 0.950 . S
H1497 C1473 0.949 . S
H1498 C1475 0.950 . S
H1499 C1477 0.950 . S
C1500 C1501 1.349 . S
C1500 C1502 1.327 . S
C1500 H1525 0.950 . S
C1501 C1500 1.349 . S
C1501 C1517 1.349 . S
C1502 C1500 1.327 . S
C1502 C1521 1.429 . S
C1502 H1526 0.950 . S
C1503 C1520 1.574 . S
C1503 C1522 1.368 . S
C1503 H1527 0.949 . S
H1504 C1508 0.949 . S
C1505 C1506 1.349 . S
C1505 C1507 1.327 . S
C1505 H1528 0.950 . S
C1506 C1505 1.349 . S
C1506 C1518 1.349 . S
C1507 C1505 1.327 . S
C1507 C1523 1.429 . S
C1507 H1529 0.950 . S
C1508 H1504 0.949 . S
C1508 C1516 1.574 . S
C1508 C1524 1.368 . S
H1509 C1517 0.950 . S
H1510 C1515 0.950 . S
H1511 C1516 0.949 . S
H1512 C1518 0.950 . S
H1513 C1519 0.950 . S
H1514 C1520 0.949 . S
C1515 H1510 0.950 . S
C1515 C1517 1.327 . S
C1515 C1521 1.429 . S
C1516 C1508 1.574 . S
C1516 H1511 0.949 . S
C1516 C1522 1.368 . S
C1517 C1501 1.349 . S
C1517 H1509 0.950 . S
C1517 C1515 1.327 . S
C1518 C1506 1.349 . S
C1518 H1512 0.950 . S
C1518 C1519 1.327 . S
C1519 H1513 0.950 . S
C1519 C1518 1.327 . S
C1519 C1523 1.429 . S
C1520 C1503 1.574 . S
C1520 H1514 0.949 . S
C1520 C1524 1.368 . S
C1521 C1502 1.429 . S
C1521 C1515 1.429 . S
C1521 C1522 1.523 . S
C1522 C1503 1.368 . S
C1522 C1516 1.368 . S
C1522 C1521 1.523 . S
C1523 C1507 1.429 . S
C1523 C1519 1.429 . S
C1523 C1524 1.523 . S
C1524 C1508 1.368 . S
C1524 C1520 1.368 . S
C1524 C1523 1.523 . S
H1525 C1500 0.950 . S
H1526 C1502 0.950 . S
H1527 C1503 0.949 . S
H1528 C1505 0.950 . S
H1529 C1507 0.950 . S
C1530 C1531 1.349 . S
C1530 C1532 1.327 . S
C1530 H1555 0.950 . S
C1531 C1530 1.349 . S
C1531 C1547 1.349 . S
C1532 C1530 1.327 . S
C1532 C1551 1.429 . S
C1532 H1556 0.950 . S
C1533 C1550 1.574 . S
C1533 C1552 1.368 . S
C1533 H1557 0.949 . S
H1534 C1538 0.949 . S
C1535 C1536 1.349 . S
C1535 C1537 1.327 . S
C1535 H1558 0.950 . S
C1536 C1535 1.349 . S
C1536 C1548 1.349 . S
C1537 C1535 1.327 . S
C1537 C1553 1.429 . S
C1537 H1559 0.950 . S
C1538 H1534 0.949 . S
C1538 C1546 1.574 . S
C1538 C1554 1.368 . S
H1539 C1547 0.950 . S
H1540 C1545 0.950 . S
H1541 C1546 0.949 . S
H1542 C1548 0.950 . S
H1543 C1549 0.950 . S
H1544 C1550 0.949 . S
C1545 H1540 0.950 . S
C1545 C1547 1.327 . S
C1545 C1551 1.429 . S
C1546 C1538 1.574 . S
C1546 H1541 0.949 . S
C1546 C1552 1.368 . S
C1547 C1531 1.349 . S
C1547 H1539 0.950 . S
C1547 C1545 1.327 . S
C1548 C1536 1.349 . S
C1548 H1542 0.950 . S
C1548 C1549 1.327 . S
C1549 H1543 0.950 . S
C1549 C1548 1.327 . S
C1549 C1553 1.429 . S
C1550 C1533 1.574 . S
C1550 H1544 0.949 . S
C1550 C1554 1.368 . S
C1551 C1532 1.429 . S
C1551 C1545 1.429 . S
C1551 C1552 1.523 . S
C1552 C1533 1.368 . S
C1552 C1546 1.368 . S
C1552 C1551 1.523 . S
C1553 C1537 1.429 . S
C1553 C1549 1.429 . S
C1553 C1554 1.523 . S
C1554 C1538 1.368 . S
C1554 C1550 1.368 . S
C1554 C1553 1.523 . S
H1555 C1530 0.950 . S
H1556 C1532 0.950 . S
H1557 C1533 0.949 . S
H1558 C1535 0.950 . S
H1559 C1537 0.950 . S
C1560 C1561 1.349 . S
C1560 C1562 1.327 . S
C1560 H1585 0.950 . S
C1561 C1560 1.349 . S
C1561 C1577 1.349 . S
C1562 C1560 1.327 . S
C1562 C1581 1.429 . S
C1562 H1586 0.950 . S
C1563 C1580 1.574 . S
C1563 C1582 1.368 . S
C1563 H1587 0.949 . S
H1564 C1568 0.949 . S
C1565 C1566 1.349 . S
C1565 C1567 1.327 . S
C1565 H1588 0.950 . S
C1566 C1565 1.349 . S
C1566 C1578 1.349 . S
C1567 C1565 1.327 . S
C1567 C1583 1.429 . S
C1567 H1589 0.950 . S
C1568 H1564 0.949 . S
C1568 C1576 1.574 . S
C1568 C1584 1.368 . S
H1569 C1577 0.950 . S
H1570 C1575 0.950 . S
H1571 C1576 0.949 . S
H1572 C1578 0.950 . S
H1573 C1579 0.950 . S
H1574 C1580 0.949 . S
C1575 H1570 0.950 . S
C1575 C1577 1.327 . S
C1575 C1581 1.429 . S
C1576 C1568 1.574 . S
C1576 H1571 0.949 . S
C1576 C1582 1.368 . S
C1577 C1561 1.349 . S
C1577 H1569 0.950 . S
C1577 C1575 1.327 . S
C1578 C1566 1.349 . S
C1578 H1572 0.950 . S
C1578 C1579 1.327 . S
C1579 H1573 0.950 . S
C1579 C1578 1.327 . S
C1579 C1583 1.429 . S
C1580 C1563 1.574 . S
C1580 H1574 0.949 . S
C1580 C1584 1.368 . S
C1581 C1562 1.429 . S
C1581 C1575 1.429 . S
C1581 C1582 1.523 . S
C1582 C1563 1.368 . S
C1582 C1576 1.368 . S
C1582 C1581 1.523 . S
C1583 C1567 1.429 . S
C1583 C1579 1.429 . S
C1583 C1584 1.523 . S
C1584 C1568 1.368 . S
C1584 C1580 1.368 . S
C1584 C1583 1.523 . S
H1585 C1560 0.950 . S
H1586 C1562 0.950 . S
H1587 C1563 0.949 . S
H1588 C1565 0.950 . S
H1589 C1567 0.950 . S
C1590 C1591 1.349 . S
C1590 C1592 1.327 . S
C1590 H1615 0.950 . S
C1591 C1590 1.349 . S
C1591 C1607 1.349 . S
C1592 C1590 1.327 . S
C1592 C1611 1.429 . S
C1592 H1616 0.950 . S
C1593 C1610 1.574 . S
C1593 C1612 1.368 . S
C1593 H1617 0.949 . S
H1594 C1598 0.949 . S
C1595 C1596 1.349 1_545 S
C1595 C1597 1.327 . S
C1595 H1618 0.950 . S
C1596 C1595 1.349 1_565 S
C1596 C1608 1.349 . S
C1597 C1595 1.327 . S
C1597 C1613 1.429 1_545 S
C1597 H1619 0.950 . S
C1598 H1594 0.949 . S
C1598 C1606 1.574 . S
C1598 C1614 1.368 . S
H1599 C1607 0.950 . S
H1600 C1605 0.950 . S
H1601 C1606 0.949 . S
H1602 C1608 0.950 . S
H1603 C1609 0.950 . S
H1604 C1610 0.926 1_545 S
C1605 H1600 0.950 . S
C1605 C1607 1.327 . S
C1605 C1611 1.429 . S
C1606 C1598 1.574 . S
C1606 H1601 0.949 . S
C1606 C1612 1.368 . S
C1607 C1591 1.349 . S
C1607 H1599 0.950 . S
C1607 C1605 1.327 . S
C1608 C1596 1.349 . S
C1608 H1602 0.950 . S
C1608 C1609 1.327 . S
C1609 H1603 0.950 . S
C1609 C1608 1.327 . S
C1609 C1613 1.429 . S
C1610 C1593 1.574 . S
C1610 H1604 0.926 1_565 S
C1610 C1614 1.368 . S
C1611 C1592 1.429 . S
C1611 C1605 1.429 . S
C1611 C1612 1.523 . S
C1612 C1593 1.368 . S
C1612 C1606 1.368 . S
C1612 C1611 1.523 . S
C1613 C1597 1.429 1_565 S
C1613 C1609 1.429 . S
C1613 C1614 1.523 . S
C1614 C1598 1.368 . S
C1614 C1610 1.368 . S
C1614 C1613 1.523 . S
H1615 C1590 0.950 . S
H1616 C1592 0.950 . S
H1617 C1593 0.949 . S
H1618 C1595 0.950 . S
H1619 C1597 0.950 . S
C1620 C1621 1.349 . S
C1620 C1622 1.327 . S
C1620 H1645 0.950 . S
C1621 C1620 1.349 . S
C1621 C1637 1.349 1_565 S
C1622 C1620 1.327 . S
C1622 C1641 1.429 . S
C1622 H1646 0.950 . S
C1623 C1640 1.574 . S
C1623 C1642 1.368 . S
C1623 H1647 0.949 1_565 S
H1624 C1628 0.949 . S
C1625 C1626 1.349 . S
C1625 C1627 1.327 . S
C1625 H1648 0.950 . S
C1626 C1625 1.349 . S
C1626 C1638 1.349 . S
C1627 C1625 1.327 . S
C1627 C1643 1.429 . S
C1627 H1649 0.950 . S
C1628 H1624 0.949 . S
C1628 C1636 1.574 . S
C1628 C1644 1.368 . S
H1629 C1637 0.950 . S
H1630 C1635 0.950 . S
H1631 C1636 0.949 . S
H1632 C1638 0.950 . S
H1633 C1639 0.950 . S
H1634 C1640 0.949 . S
C1635 H1630 0.950 . S
C1635 C1637 1.327 . S
C1635 C1641 1.429 1_545 S
C1636 C1628 1.574 . S
C1636 H1631 0.949 . S
C1636 C1642 1.368 . S
C1637 C1621 1.349 1_545 S
C1637 H1629 0.950 . S
C1637 C1635 1.327 . S
C1638 C1626 1.349 . S
C1638 H1632 0.950 . S
C1638 C1639 1.327 . S
C1639 H1633 0.950 . S
C1639 C1638 1.327 . S
C1639 C1643 1.429 . S
C1640 C1623 1.574 . S
C1640 H1634 0.949 . S
C1640 C1644 1.368 . S
C1641 C1622 1.429 . S
C1641 C1635 1.429 1_565 S
C1641 C1642 1.523 . S
C1642 C1623 1.368 . S
C1642 C1636 1.368 . S
C1642 C1641 1.523 . S
C1643 C1627 1.429 . S
C1643 C1639 1.429 . S
C1643 C1644 1.523 . S
C1644 C1628 1.368 . S
C1644 C1640 1.368 . S
C1644 C1643 1.523 . S
H1645 C1620 0.950 . S
H1646 C1622 0.950 . S
H1647 C1623 0.949 1_545 S
H1648 C1625 0.950 . S
H1649 C1627 0.950 . S
C1650 C1651 1.349 . S
C1650 C1652 1.327 . S
C1650 H1675 0.950 . S
C1651 C1650 1.349 . S
C1651 C1667 1.349 . S
C1652 C1650 1.327 . S
C1652 C1671 1.429 . S
C1652 H1676 0.950 . S
C1653 C1670 1.574 . S
C1653 C1672 1.368 . S
C1653 H1677 0.949 . S
H1654 C1658 0.949 . S
C1655 C1656 1.349 . S
C1655 C1657 1.327 . S
C1655 H1678 0.950 . S
C1656 C1655 1.349 . S
C1656 C1668 1.349 . S
C1657 C1655 1.327 . S
C1657 C1673 1.429 . S
C1657 H1679 0.950 . S
C1658 H1654 0.949 . S
C1658 C1666 1.574 . S
C1658 C1674 1.368 . S
H1659 C1667 0.950 . S
H1660 C1665 0.950 . S
H1661 C1666 0.949 . S
H1662 C1668 0.950 . S
H1663 C1669 0.950 . S
H1664 C1670 0.949 . S
C1665 H1660 0.950 . S
C1665 C1667 1.327 . S
C1665 C1671 1.429 . S
C1666 C1658 1.574 . S
C1666 H1661 0.949 . S
C1666 C1672 1.368 . S
C1667 C1651 1.349 . S
C1667 H1659 0.950 . S
C1667 C1665 1.327 . S
C1668 C1656 1.349 . S
C1668 H1662 0.950 . S
C1668 C1669 1.327 . S
C1669 H1663 0.950 . S
C1669 C1668 1.327 . S
C1669 C1673 1.429 . S
C1670 C1653 1.574 . S
C1670 H1664 0.949 . S
C1670 C1674 1.368 . S
C1671 C1652 1.429 . S
C1671 C1665 1.429 . S
C1671 C1672 1.523 . S
C1672 C1653 1.368 . S
C1672 C1666 1.368 . S
C1672 C1671 1.523 . S
C1673 C1657 1.429 . S
C1673 C1669 1.429 . S
C1673 C1674 1.523 . S
C1674 C1658 1.368 . S
C1674 C1670 1.368 . S
C1674 C1673 1.523 . S
H1675 C1650 0.950 . S
H1676 C1652 0.950 . S
H1677 C1653 0.949 . S
H1678 C1655 0.950 . S
H1679 C1657 0.950 . S
C1680 C1681 1.349 . S
C1680 C1682 1.327 . S
C1680 H1705 0.950 . S
C1681 C1680 1.349 . S
C1681 C1697 1.349 . S
C1682 C1680 1.327 . S
C1682 C1701 1.429 . S
C1682 H1706 0.950 . S
C1683 C1700 1.574 . S
C1683 C1702 1.368 . S
C1683 H1707 0.949 . S
H1684 C1688 0.949 . S
C1685 C1686 1.349 . S
C1685 C1687 1.327 . S
C1685 H1708 0.950 . S
C1686 C1685 1.349 . S
C1686 C1698 1.349 . S
C1687 C1685 1.327 . S
C1687 C1703 1.429 . S
C1687 H1709 0.950 . S
C1688 H1684 0.949 . S
C1688 C1696 1.574 . S
C1688 C1704 1.368 . S
H1689 C1697 0.950 . S
H1690 C1695 0.950 . S
H1691 C1696 0.949 . S
H1692 C1698 0.950 . S
H1693 C1699 0.950 . S
H1694 C1700 0.949 . S
C1695 H1690 0.950 . S
C1695 C1697 1.327 . S
C1695 C1701 1.429 . S
C1696 C1688 1.574 . S
C1696 H1691 0.949 . S
C1696 C1702 1.368 . S
C1697 C1681 1.349 . S
C1697 H1689 0.950 . S
C1697 C1695 1.327 . S
C1698 C1686 1.349 . S
C1698 H1692 0.950 . S
C1698 C1699 1.327 . S
C1699 H1693 0.950 . S
C1699 C1698 1.327 . S
C1699 C1703 1.429 . S
C1700 C1683 1.574 . S
C1700 H1694 0.949 . S
C1700 C1704 1.368 . S
C1701 C1682 1.429 . S
C1701 C1695 1.429 . S
C1701 C1702 1.523 . S
C1702 C1683 1.368 . S
C1702 C1696 1.368 . S
C1702 C1701 1.523 . S
C1703 C1687 1.429 . S
C1703 C1699 1.429 . S
C1703 C1704 1.523 . S
C1704 C1688 1.368 . S
C1704 C1700 1.368 . S
C1704 C1703 1.523 . S
H1705 C1680 0.950 . S
H1706 C1682 0.950 . S
H1707 C1683 0.949 . S
H1708 C1685 0.950 . S
H1709 C1687 0.950 . S
C1710 C1711 1.349 . S
C1710 C1712 1.327 . S
C1710 H1735 0.950 . S
C1711 C1710 1.349 . S
C1711 C1727 1.349 . S
C1712 C1710 1.327 . S
C1712 C1731 1.429 . S
C1712 H1736 0.950 . S
C1713 C1730 1.574 . S
C1713 C1732 1.368 . S
C1713 H1737 0.949 . S
H1714 C1718 0.949 . S
C1715 C1716 1.349 . S
C1715 C1717 1.327 . S
C1715 H1738 0.950 . S
C1716 C1715 1.349 . S
C1716 C1728 1.349 1_655 S
C1717 C1715 1.327 . S
C1717 C1733 1.429 . S
C1717 H1739 0.950 . S
C1718 H1714 0.949 . S
C1718 C1726 1.574 . S
C1718 C1734 1.368 . S
H1719 C1727 0.950 . S
H1720 C1725 0.950 . S
H1721 C1726 0.949 . S
H1722 C1728 0.950 . S
H1723 C1729 0.950 . S
H1724 C1730 0.949 . S
C1725 H1720 0.950 . S
C1725 C1727 1.327 . S
C1725 C1731 1.429 . S
C1726 C1718 1.574 . S
C1726 H1721 0.949 . S
C1726 C1732 1.368 . S
C1727 C1711 1.349 . S
C1727 H1719 0.950 . S
C1727 C1725 1.327 . S
C1728 C1716 1.349 1_455 S
C1728 H1722 0.950 . S
C1728 C1729 1.327 1_455 S
C1729 H1723 0.950 . S
C1729 C1728 1.327 1_655 S
C1729 C1733 1.429 . S
C1730 C1713 1.574 . S
C1730 H1724 0.949 . S
C1730 C1734 1.368 . S
C1731 C1712 1.429 . S
C1731 C1725 1.429 . S
C1731 C1732 1.523 . S
C1732 C1713 1.368 . S
C1732 C1726 1.368 . S
C1732 C1731 1.523 . S
C1733 C1717 1.429 . S
C1733 C1729 1.429 . S
C1733 C1734 1.523 . S
C1734 C1718 1.368 . S
C1734 C1730 1.368 . S
C1734 C1733 1.523 . S
H1735 C1710 0.950 . S
H1736 C1712 0.950 . S
H1737 C1713 0.949 . S
H1738 C1715 0.950 . S
H1739 C1717 0.950 . S
C1740 C1741 1.349 . S
C1740 C1742 1.327 . S
C1740 H1765 0.950 . S
C1741 C1740 1.349 . S
C1741 C1757 1.349 . S
C1742 C1740 1.327 . S
C1742 C1761 1.429 . S
C1742 H1766 0.950 . S
C1743 C1760 1.574 . S
C1743 C1762 1.368 . S
C1743 H1767 0.949 . S
H1744 C1748 0.949 . S
C1745 C1746 1.349 . S
C1745 C1747 1.327 . S
C1745 H1768 0.950 . S
C1746 C1745 1.349 . S
C1746 C1758 1.349 . S
C1747 C1745 1.327 . S
C1747 C1763 1.429 . S
C1747 H1769 0.950 . S
C1748 H1744 0.949 . S
C1748 C1756 1.574 . S
C1748 C1764 1.368 . S
H1749 C1757 0.950 . S
H1750 C1755 0.950 . S
H1751 C1756 0.949 . S
H1752 C1758 0.950 . S
H1753 C1759 0.950 . S
H1754 C1760 0.949 . S
C1755 H1750 0.950 . S
C1755 C1757 1.327 . S
C1755 C1761 1.429 . S
C1756 C1748 1.574 . S
C1756 H1751 0.949 . S
C1756 C1762 1.368 . S
C1757 C1741 1.349 . S
C1757 H1749 0.950 . S
C1757 C1755 1.327 . S
C1758 C1746 1.349 . S
C1758 H1752 0.950 . S
C1758 C1759 1.327 . S
C1759 H1753 0.950 . S
C1759 C1758 1.327 . S
C1759 C1763 1.429 . S
C1760 C1743 1.574 . S
C1760 H1754 0.949 . S
C1760 C1764 1.368 . S
C1761 C1742 1.429 . S
C1761 C1755 1.429 . S
C1761 C1762 1.523 . S
C1762 C1743 1.368 . S
C1762 C1756 1.368 . S
C1762 C1761 1.523 . S
C1763 C1747 1.429 . S
C1763 C1759 1.429 . S
C1763 C1764 1.523 . S
C1764 C1748 1.368 . S
C1764 C1760 1.368 . S
C1764 C1763 1.523 . S
H1765 C1740 0.950 . S
H1766 C1742 0.950 . S
H1767 C1743 0.949 . S
H1768 C1745 0.950 . S
H1769 C1747 0.950 . S
C1770 C1771 1.349 . S
C1770 C1772 1.327 . S
C1770 H1795 0.950 . S
C1771 C1770 1.349 . S
C1771 C1787 1.349 . S
C1772 C1770 1.327 . S
C1772 C1791 1.429 . S
C1772 H1796 0.950 . S
C1773 C1790 1.574 . S
C1773 C1792 1.368 . S
C1773 H1797 0.949 . S
H1774 C1778 0.949 . S
C1775 C1776 1.349 . S
C1775 C1777 1.327 . S
C1775 H1798 0.950 . S
C1776 C1775 1.349 . S
C1776 C1788 1.349 . S
C1777 C1775 1.327 . S
C1777 C1793 1.429 . S
C1777 H1799 0.950 . S
C1778 H1774 0.949 . S
C1778 C1786 1.574 . S
C1778 C1794 1.368 . S
H1779 C1787 0.950 . S
H1780 C1785 0.950 . S
H1781 C1786 0.949 . S
H1782 C1788 0.950 . S
H1783 C1789 0.950 . S
H1784 C1790 0.949 . S
C1785 H1780 0.950 . S
C1785 C1787 1.327 . S
C1785 C1791 1.429 . S
C1786 C1778 1.574 . S
C1786 H1781 0.949 . S
C1786 C1792 1.368 . S
C1787 C1771 1.349 . S
C1787 H1779 0.950 . S
C1787 C1785 1.327 . S
C1788 C1776 1.349 . S
C1788 H1782 0.950 . S
C1788 C1789 1.327 . S
C1789 H1783 0.950 . S
C1789 C1788 1.327 . S
C1789 C1793 1.429 . S
C1790 C1773 1.574 . S
C1790 H1784 0.949 . S
C1790 C1794 1.368 . S
C1791 C1772 1.429 . S
C1791 C1785 1.429 . S
C1791 C1792 1.523 . S
C1792 C1773 1.368 . S
C1792 C1786 1.368 . S
C1792 C1791 1.523 . S
C1793 C1777 1.429 . S
C1793 C1789 1.429 . S
C1793 C1794 1.523 . S
C1794 C1778 1.368 . S
C1794 C1790 1.368 . S
C1794 C1793 1.523 . S
H1795 C1770 0.950 . S
H1796 C1772 0.950 . S
H1797 C1773 0.949 . S
H1798 C1775 0.950 . S
H1799 C1777 0.950 . S
C1800 C1801 1.349 . S
C1800 C1802 1.327 . S
C1800 H1825 0.950 . S
C1801 C1800 1.349 . S
C1801 C1817 1.349 . S
C1802 C1800 1.327 . S
C1802 C1821 1.429 . S
C1802 H1826 0.950 . S
C1803 C1820 1.574 . S
C1803 C1822 1.368 . S
C1803 H1827 0.949 . S
H1804 C1808 0.949 . S
C1805 C1806 1.349 . S
C1805 C1807 1.327 . S
C1805 H1828 0.950 . S
C1806 C1805 1.349 . S
C1806 C1818 1.349 . S
C1807 C1805 1.327 . S
C1807 C1823 1.429 . S
C1807 H1829 0.950 . S
C1808 H1804 0.949 . S
C1808 C1816 1.574 . S
C1808 C1824 1.368 . S
H1809 C1817 0.950 . S
H1810 C1815 0.950 . S
H1811 C1816 0.949 . S
H1812 C1818 0.950 . S
H1813 C1819 0.950 . S
H1814 C1820 0.949 . S
C1815 H1810 0.950 . S
C1815 C1817 1.327 . S
C1815 C1821 1.429 . S
C1816 C1808 1.574 . S
C1816 H1811 0.949 . S
C1816 C1822 1.368 . S
C1817 C1801 1.349 . S
C1817 H1809 0.950 . S
C1817 C1815 1.327 . S
C1818 C1806 1.349 . S
C1818 H1812 0.950 . S
C1818 C1819 1.327 . S
C1819 H1813 0.950 . S
C1819 C1818 1.327 . S
C1819 C1823 1.429 . S
C1820 C1803 1.574 . S
C1820 H1814 0.949 . S
C1820 C1824 1.368 . S
C1821 C1802 1.429 . S
C1821 C1815 1.429 . S
C1821 C1822 1.523 . S
C1822 C1803 1.368 . S
C1822 C1816 1.368 . S
C1822 C1821 1.523 . S
C1823 C1807 1.429 . S
C1823 C1819 1.429 . S
C1823 C1824 1.523 . S
C1824 C1808 1.368 . S
C1824 C1820 1.368 . S
C1824 C1823 1.523 . S
H1825 C1800 0.950 . S
H1826 C1802 0.950 . S
H1827 C1803 0.949 . S
H1828 C1805 0.950 . S
H1829 C1807 0.950 . S
C1830 C1831 1.349 . S
C1830 C1832 1.327 . S
C1830 H1855 0.950 . S
C1831 C1830 1.349 . S
C1831 C1847 1.349 . S
C1832 C1830 1.327 . S
C1832 C1851 1.429 . S
C1832 H1856 0.950 1_565 S
C1833 C1850 1.574 1_565 S
C1833 C1852 1.368 1_565 S
C1833 H1857 0.949 . S
H1834 C1838 0.949 . S
C1835 C1836 1.349 . S
C1835 C1837 1.327 . S
C1835 H1858 0.950 . S
C1836 C1835 1.349 . S
C1836 C1848 1.349 . S
C1837 C1835 1.327 . S
C1837 C1853 1.429 . S
C1837 H1859 0.950 . S
C1838 H1834 0.949 . S
C1838 C1846 1.574 . S
C1838 C1854 1.368 . S
H1839 C1847 0.950 . S
H1840 C1845 0.950 . S
H1841 C1846 0.949 . S
H1842 C1848 0.950 . S
H1843 C1849 0.950 . S
H1844 C1850 0.949 . S
C1845 H1840 0.950 . S
C1845 C1847 1.327 . S
C1845 C1851 1.429 . S
C1846 C1838 1.574 . S
C1846 H1841 0.949 . S
C1846 C1852 1.368 . S
C1847 C1831 1.349 . S
C1847 H1839 0.950 . S
C1847 C1845 1.327 . S
C1848 C1836 1.349 . S
C1848 H1842 0.950 . S
C1848 C1849 1.327 . S
C1849 H1843 0.950 . S
C1849 C1848 1.327 . S
C1849 C1853 1.429 . S
C1850 C1833 1.574 1_545 S
C1850 H1844 0.949 . S
C1850 C1854 1.368 . S
C1851 C1832 1.429 . S
C1851 C1845 1.429 . S
C1851 C1852 1.523 1_565 S
C1852 C1833 1.368 1_545 S
C1852 C1846 1.368 . S
C1852 C1851 1.523 1_545 S
C1853 C1837 1.429 . S
C1853 C1849 1.429 . S
C1853 C1854 1.523 . S
C1854 C1838 1.368 . S
C1854 C1850 1.368 . S
C1854 C1853 1.523 . S
H1855 C1830 0.950 . S
H1856 C1832 0.950 1_545 S
H1857 C1833 0.949 . S
H1858 C1835 0.950 . S
H1859 C1837 0.950 . S
C1860 C1861 1.349 . S
C1860 C1862 1.327 . S
C1860 H1885 0.950 . S
C1861 C1860 1.349 . S
C1861 C1877 1.349 . S
C1862 C1860 1.327 . S
C1862 C1881 1.429 . S
C1862 H1886 0.950 . S
C1863 C1880 1.574 . S
C1863 C1882 1.368 . S
C1863 H1887 0.949 . S
H1864 C1868 0.949 . S
C1865 C1866 1.349 . S
C1865 C1867 1.327 . S
C1865 H1888 0.950 . S
C1866 C1865 1.349 . S
C1866 C1878 1.349 . S
C1867 C1865 1.327 . S
C1867 C1883 1.429 . S
C1867 H1889 0.950 . S
C1868 H1864 0.949 . S
C1868 C1876 1.574 . S
C1868 C1884 1.368 . S
H1869 C1877 0.950 . S
H1870 C1875 0.950 . S
H1871 C1876 0.949 . S
H1872 C1878 0.950 . S
H1873 C1879 0.950 . S
H1874 C1880 0.949 . S
C1875 H1870 0.950 . S
C1875 C1877 1.327 . S
C1875 C1881 1.429 . S
C1876 C1868 1.574 . S
C1876 H1871 0.949 . S
C1876 C1882 1.368 . S
C1877 C1861 1.349 . S
C1877 H1869 0.950 . S
C1877 C1875 1.327 . S
C1878 C1866 1.349 . S
C1878 H1872 0.950 . S
C1878 C1879 1.327 . S
C1879 H1873 0.950 . S
C1879 C1878 1.327 . S
C1879 C1883 1.429 . S
C1880 C1863 1.574 . S
C1880 H1874 0.949 . S
C1880 C1884 1.368 . S
C1881 C1862 1.429 . S
C1881 C1875 1.429 . S
C1881 C1882 1.523 1_655 S
C1882 C1863 1.368 . S
C1882 C1876 1.368 . S
C1882 C1881 1.523 1_455 S
C1883 C1867 1.429 . S
C1883 C1879 1.429 . S
C1883 C1884 1.523 . S
C1884 C1868 1.368 . S
C1884 C1880 1.368 . S
C1884 C1883 1.523 . S
H1885 C1860 0.950 . S
H1886 C1862 0.950 . S
H1887 C1863 0.949 . S
H1888 C1865 0.950 . S
H1889 C1867 0.950 . S
C1890 C1891 1.349 . S
C1890 C1892 1.327 . S
C1890 H1915 0.950 . S
C1891 C1890 1.349 . S
C1891 C1907 1.349 . S
C1892 C1890 1.327 . S
C1892 C1911 1.429 . S
C1892 H1916 0.950 . S
C1893 C1910 1.574 . S
C1893 C1912 1.368 . S
C1893 H1917 0.949 . S
H1894 C1898 0.949 . S
C1895 C1896 1.349 . S
C1895 C1897 1.327 . S
C1895 H1918 0.950 . S
C1896 C1895 1.349 . S
C1896 C1908 1.349 . S
C1897 C1895 1.327 . S
C1897 C1913 1.429 . S
C1897 H1919 0.950 . S
C1898 H1894 0.949 . S
C1898 C1906 1.574 . S
C1898 C1914 1.368 . S
H1899 C1907 0.950 . S
H1900 C1905 0.950 . S
H1901 C1906 0.949 . S
H1902 C1908 0.950 . S
H1903 C1909 0.950 . S
H1904 C1910 0.949 . S
C1905 H1900 0.950 . S
C1905 C1907 1.327 . S
C1905 C1911 1.429 . S
C1906 C1898 1.574 . S
C1906 H1901 0.949 . S
C1906 C1912 1.368 . S
C1907 C1891 1.349 . S
C1907 H1899 0.950 . S
C1907 C1905 1.327 . S
C1908 C1896 1.349 . S
C1908 H1902 0.950 . S
C1908 C1909 1.327 . S
C1909 H1903 0.950 . S
C1909 C1908 1.327 . S
C1909 C1913 1.429 . S
C1910 C1893 1.574 . S
C1910 H1904 0.949 . S
C1910 C1914 1.368 . S
C1911 C1892 1.429 . S
C1911 C1905 1.429 . S
C1911 C1912 1.523 . S
C1912 C1893 1.368 . S
C1912 C1906 1.368 . S
C1912 C1911 1.523 . S
C1913 C1897 1.429 . S
C1913 C1909 1.429 . S
C1913 C1914 1.523 . S
C1914 C1898 1.368 . S
C1914 C1910 1.368 . S
C1914 C1913 1.523 . S
H1915 C1890 0.950 . S
H1916 C1892 0.950 . S
H1917 C1893 0.949 . S
H1918 C1895 0.950 . S
H1919 C1897 0.950 . S
C1920 C1921 1.349 . S
C1920 C1922 1.327 . S
C1920 H1945 0.950 . S
C1921 C1920 1.349 . S
C1921 C1937 1.349 . S
C1922 C1920 1.327 . S
C1922 C1941 1.429 . S
C1922 H1946 0.950 . S
C1923 C1940 1.574 . S
C1923 C1942 1.368 . S
C1923 H1947 0.949 . S
H1924 C1928 0.949 . S
C1925 C1926 1.349 . S
C1925 C1927 1.327 . S
C1925 H1948 0.950 . S
C1926 C1925 1.349 . S
C1926 C1938 1.349 . S
C1927 C1925 1.327 . S
C1927 C1943 1.429 . S
C1927 H1949 0.950 . S
C1928 H1924 0.949 . S
C1928 C1936 1.574 . S
C1928 C1944 1.368 . S
H1929 C1937 0.950 . S
H1930 C1935 0.950 . S
H1931 C1936 0.949 1_565 S
H1932 C1938 0.950 . S
H1933 C1939 0.950 . S
H1934 C1940 0.949 . S
C1935 H1930 0.950 . S
C1935 C1937 1.327 . S
C1935 C1941 1.429 . S
C1936 C1928 1.574 . S
C1936 H1931 0.949 1_545 S
C1936 C1942 1.368 . S
C1937 C1921 1.349 . S
C1937 H1929 0.950 . S
C1937 C1935 1.327 . S
C1938 C1926 1.349 . S
C1938 H1932 0.950 . S
C1938 C1939 1.327 . S
C1939 H1933 0.950 . S
C1939 C1938 1.327 . S
C1939 C1943 1.429 . S
C1940 C1923 1.574 . S
C1940 H1934 0.949 . S
C1940 C1944 1.368 . S
C1941 C1922 1.429 . S
C1941 C1935 1.429 . S
C1941 C1942 1.523 1_565 S
C1942 C1923 1.368 . S
C1942 C1936 1.368 . S
C1942 C1941 1.523 1_545 S
C1943 C1927 1.429 . S
C1943 C1939 1.429 . S
C1943 C1944 1.523 . S
C1944 C1928 1.368 . S
C1944 C1940 1.368 . S
C1944 C1943 1.523 . S
H1945 C1920 0.950 . S
H1946 C1922 0.950 . S
H1947 C1923 0.949 . S
H1948 C1925 0.950 . S
H1949 C1927 0.950 . S
C1950 C1951 1.349 . S
C1950 C1952 1.327 . S
C1950 H1975 0.950 . S
C1951 C1950 1.349 . S
C1951 C1967 1.349 . S
C1952 C1950 1.327 . S
C1952 C1971 1.429 . S
C1952 H1976 0.950 1_655 S
C1953 C1970 1.574 1_655 S
C1953 C1972 1.368 1_655 S
C1953 H1977 0.949 . S
H1954 C1958 0.949 . S
C1955 C1956 1.349 . S
C1955 C1957 1.327 . S
C1955 H1978 0.950 . S
C1956 C1955 1.349 . S
C1956 C1968 1.349 . S
C1957 C1955 1.327 . S
C1957 C1973 1.429 . S
C1957 H1979 0.950 . S
C1958 H1954 0.949 . S
C1958 C1966 1.574 . S
C1958 C1974 1.368 . S
H1959 C1967 0.950 . S
H1960 C1965 0.950 . S
H1961 C1966 0.949 . S
H1962 C1968 0.950 . S
H1963 C1969 0.950 . S
H1964 C1970 0.949 . S
C1965 H1960 0.950 . S
C1965 C1967 1.327 . S
C1965 C1971 1.429 . S
C1966 C1958 1.574 . S
C1966 H1961 0.949 . S
C1966 C1972 1.368 . S
C1967 C1951 1.349 . S
C1967 H1959 0.950 . S
C1967 C1965 1.327 . S
C1968 C1956 1.349 . S
C1968 H1962 0.950 . S
C1968 C1969 1.327 . S
C1969 H1963 0.950 . S
C1969 C1968 1.327 . S
C1969 C1973 1.429 . S
C1970 C1953 1.574 1_455 S
C1970 H1964 0.949 . S
C1970 C1974 1.368 . S
C1971 C1952 1.429 . S
C1971 C1965 1.429 . S
C1971 C1972 1.523 1_655 S
C1972 C1953 1.368 1_455 S
C1972 C1966 1.368 . S
C1972 C1971 1.523 1_455 S
C1973 C1957 1.429 . S
C1973 C1969 1.429 . S
C1973 C1974 1.523 . S
C1974 C1958 1.368 . S
C1974 C1970 1.368 . S
C1974 C1973 1.523 . S
H1975 C1950 0.950 . S
H1976 C1952 0.950 1_455 S
H1977 C1953 0.949 . S
H1978 C1955 0.950 . S
H1979 C1957 0.950 . S
C1980 C1981 1.349 . S
C1980 C1982 1.327 . S
C1980 H2005 0.950 . S
C1981 C1980 1.349 . S
C1981 C1997 1.349 . S
C1982 C1980 1.327 . S
C1982 C2001 1.429 . S
C1982 H2006 0.950 . S
C1983 C2000 1.574 1_554 S
C1983 C2002 1.368 . S
C1983 H2007 0.949 1_545 S
H1984 C1988 0.949 . S
C1985 C1986 1.349 . S
C1985 C1987 1.327 . S
C1985 H2008 0.950 1_545 S
C1986 C1985 1.349 . S
C1986 C1998 1.349 . S
C1987 C1985 1.327 . S
C1987 C2003 1.429 . S
C1987 H2009 0.950 1_545 S
C1988 H1984 0.949 . S
C1988 C1996 1.574 1_556 S
C1988 C2004 1.368 . S
H1989 C1997 0.950 1_565 S
H1990 C1995 0.950 1_565 S
H1991 C1996 0.949 . S
H1992 C1998 0.950 . S
H1993 C1999 0.950 . S
H1994 C2000 0.949 1_565 S
C1995 H1990 0.950 1_545 S
C1995 C1997 1.327 . S
C1995 C2001 1.429 . S
C1996 C1988 1.574 1_554 S
C1996 H1991 0.949 . S
C1996 C2002 1.368 . S
C1997 C1981 1.349 . S
C1997 H1989 0.950 1_545 S
C1997 C1995 1.327 . S
C1998 C1986 1.349 . S
C1998 H1992 0.950 . S
C1998 C1999 1.327 . S
C1999 H1993 0.950 . S
C1999 C1998 1.327 . S
C1999 C2003 1.429 . S
C2000 C1983 1.574 1_556 S
C2000 H1994 0.949 1_545 S
C2000 C2004 1.368 . S
C2001 C1982 1.429 . S
C2001 C1995 1.429 . S
C2001 C2002 1.523 . S
C2002 C1983 1.368 . S
C2002 C1996 1.368 . S
C2002 C2001 1.523 . S
C2003 C1987 1.429 . S
C2003 C1999 1.429 . S
C2003 C2004 1.523 . S
C2004 C1988 1.368 . S
C2004 C2000 1.368 . S
C2004 C2003 1.523 . S
H2005 C1980 0.950 . S
H2006 C1982 0.950 . S
H2007 C1983 0.949 1_565 S
H2008 C1985 0.950 1_565 S
H2009 C1987 0.950 1_565 S
C2010 C2011 1.349 . S
C2010 C2012 1.327 . S
C2010 H2035 0.950 . S
C2011 C2010 1.349 . S
C2011 C2027 1.349 . S
C2012 C2010 1.327 . S
C2012 C2031 1.429 . S
C2012 H2036 0.950 . S
C2013 C2030 1.574 1_556 S
C2013 C2032 1.368 . S
C2013 H2037 0.949 . S
H2014 C2018 0.949 . S
C2015 C2016 1.349 . S
C2015 C2017 1.327 . S
C2015 H2038 0.950 . S
C2016 C2015 1.349 . S
C2016 C2028 1.349 . S
C2017 C2015 1.327 . S
C2017 C2033 1.429 . S
C2017 H2039 0.950 . S
C2018 H2014 0.949 . S
C2018 C2026 1.574 1_554 S
C2018 C2034 1.368 . S
H2019 C2027 0.950 . S
H2020 C2025 0.950 . S
H2021 C2026 0.949 . S
H2022 C2028 0.950 . S
H2023 C2029 0.950 . S
H2024 C2030 0.949 . S
C2025 H2020 0.950 . S
C2025 C2027 1.327 . S
C2025 C2031 1.429 . S
C2026 C2018 1.574 1_556 S
C2026 H2021 0.949 . S
C2026 C2032 1.368 . S
C2027 C2011 1.349 . S
C2027 H2019 0.950 . S
C2027 C2025 1.327 . S
C2028 C2016 1.349 . S
C2028 H2022 0.950 . S
C2028 C2029 1.327 . S
C2029 H2023 0.950 . S
C2029 C2028 1.327 . S
C2029 C2033 1.429 . S
C2030 C2013 1.574 1_554 S
C2030 H2024 0.949 . S
C2030 C2034 1.368 . S
C2031 C2012 1.429 . S
C2031 C2025 1.429 . S
C2031 C2032 1.523 . S
C2032 C2013 1.368 . S
C2032 C2026 1.368 . S
C2032 C2031 1.523 . S
C2033 C2017 1.429 . S
C2033 C2029 1.429 . S
C2033 C2034 1.523 . S
C2034 C2018 1.368 . S
C2034 C2030 1.368 . S
C2034 C2033 1.523 . S
H2035 C2010 0.950 . S
H2036 C2012 0.950 . S
H2037 C2013 0.949 . S
H2038 C2015 0.950 . S
H2039 C2017 0.950 . S
C2040 C2041 1.349 . S
C2040 C2042 1.327 . S
C2040 H2065 0.950 . S
C2041 C2040 1.349 . S
C2041 C2057 1.349 . S
C2042 C2040 1.327 . S
C2042 C2061 1.429 . S
C2042 H2066 0.950 . S
C2043 C2060 1.574 1_554 S
C2043 C2062 1.368 . S
C2043 H2067 0.949 . S
H2044 C2048 0.949 . S
C2045 C2046 1.349 . S
C2045 C2047 1.327 . S
C2045 H2068 0.950 . S
C2046 C2045 1.349 . S
C2046 C2058 1.349 . S
C2047 C2045 1.327 . S
C2047 C2063 1.429 . S
C2047 H2069 0.950 . S
C2048 H2044 0.949 . S
C2048 C2056 1.574 1_556 S
C2048 C2064 1.368 . S
H2049 C2057 0.950 . S
H2050 C2055 0.950 . S
H2051 C2056 0.949 . S
H2052 C2058 0.950 . S
H2053 C2059 0.950 . S
H2054 C2060 0.949 . S
C2055 H2050 0.950 . S
C2055 C2057 1.327 . S
C2055 C2061 1.429 . S
C2056 C2048 1.574 1_554 S
C2056 H2051 0.949 . S
C2056 C2062 1.368 . S
C2057 C2041 1.349 . S
C2057 H2049 0.950 . S
C2057 C2055 1.327 . S
C2058 C2046 1.349 . S
C2058 H2052 0.950 . S
C2058 C2059 1.327 . S
C2059 H2053 0.950 . S
C2059 C2058 1.327 . S
C2059 C2063 1.429 . S
C2060 C2043 1.574 1_556 S
C2060 H2054 0.949 . S
C2060 C2064 1.368 . S
C2061 C2042 1.429 . S
C2061 C2055 1.429 . S
C2061 C2062 1.523 . S
C2062 C2043 1.368 . S
C2062 C2056 1.368 . S
C2062 C2061 1.523 . S
C2063 C2047 1.429 . S
C2063 C2059 1.429 . S
C2063 C2064 1.523 . S
C2064 C2048 1.368 . S
C2064 C2060 1.368 . S
C2064 C2063 1.523 . S
H2065 C2040 0.950 . S
H2066 C2042 0.950 . S
H2067 C2043 0.949 . S
H2068 C2045 0.950 . S
H2069 C2047 0.950 . S
C2070 C2071 1.349 . S
C2070 C2072 1.327 . S
C2070 H2095 0.950 1_455 S
C2071 C2070 1.349 . S
C2071 C2087 1.349 . S
C2072 C2070 1.327 . S
C2072 C2091 1.429 . S
C2072 H2096 0.950 1_455 S
C2073 C2090 1.574 . S
C2073 C2092 1.368 . S
C2073 H2097 0.949 . S
H2074 C2078 0.949 1_655 S
C2075 C2076 1.349 . S
C2075 C2077 1.327 . S
C2075 H2098 0.950 . S
C2076 C2075 1.349 . S
C2076 C2088 1.349 . S
C2077 C2075 1.327 . S
C2077 C2093 1.429 . S
C2077 H2099 0.950 . S
C2078 H2074 0.949 1_455 S
C2078 C2086 1.574 . S
C2078 C2094 1.368 . S
H2079 C2087 0.950 . S
H2080 C2085 0.950 . S
H2081 C2086 0.949 1_655 S
H2082 C2088 0.950 1_655 S
H2083 C2089 0.950 1_655 S
H2084 C2090 0.949 . S
C2085 H2080 0.950 . S
C2085 C2087 1.327 . S
C2085 C2091 1.429 . S
C2086 C2078 1.574 . S
C2086 H2081 0.949 1_455 S
C2086 C2092 1.368 . S
C2087 C2071 1.349 . S
C2087 H2079 0.950 . S
C2087 C2085 1.327 . S
C2088 C2076 1.349 . S
C2088 H2082 0.950 1_455 S
C2088 C2089 1.327 . S
C2089 H2083 0.950 1_455 S
C2089 C2088 1.327 . S
C2089 C2093 1.429 . S
C2090 C2073 1.574 . S
C2090 H2084 0.949 . S
C2090 C2094 1.368 . S
C2091 C2072 1.429 . S
C2091 C2085 1.429 . S
C2091 C2092 1.523 . S
C2092 C2073 1.368 . S
C2092 C2086 1.368 . S
C2092 C2091 1.523 . S
C2093 C2077 1.429 . S
C2093 C2089 1.429 . S
C2093 C2094 1.523 . S
C2094 C2078 1.368 . S
C2094 C2090 1.368 . S
C2094 C2093 1.523 . S
H2095 C2070 0.950 1_655 S
H2096 C2072 0.950 1_655 S
H2097 C2073 0.949 . S
H2098 C2075 0.950 . S
H2099 C2077 0.950 . S
C2100 C2101 1.349 . S
C2100 C2102 1.327 . S
C2100 H2125 0.950 . S
C2101 C2100 1.349 . S
C2101 C2117 1.349 . S
C2102 C2100 1.327 . S
C2102 C2121 1.429 . S
C2102 H2126 0.950 . S
C2103 C2120 1.574 . S
C2103 C2122 1.368 . S
C2103 H2127 0.949 . S
H2104 C2108 0.949 . S
C2105 C2106 1.349 . S
C2105 C2107 1.327 . S
C2105 H2128 0.950 . S
C2106 C2105 1.349 . S
C2106 C2118 1.349 . S
C2107 C2105 1.327 . S
C2107 C2123 1.429 . S
C2107 H2129 0.950 . S
C2108 H2104 0.949 . S
C2108 C2116 1.574 . S
C2108 C2124 1.368 . S
H2109 C2117 0.950 . S
H2110 C2115 0.950 . S
H2111 C2116 0.949 . S
H2112 C2118 0.950 . S
H2113 C2119 0.950 . S
H2114 C2120 0.949 . S
C2115 H2110 0.950 . S
C2115 C2117 1.327 . S
C2115 C2121 1.429 . S
C2116 C2108 1.574 . S
C2116 H2111 0.949 . S
C2116 C2122 1.368 . S
C2117 C2101 1.349 . S
C2117 H2109 0.950 . S
C2117 C2115 1.327 . S
C2118 C2106 1.349 . S
C2118 H2112 0.950 . S
C2118 C2119 1.327 . S
C2119 H2113 0.950 . S
C2119 C2118 1.327 . S
C2119 C2123 1.429 . S
C2120 C2103 1.574 . S
C2120 H2114 0.949 . S
C2120 C2124 1.368 . S
C2121 C2102 1.429 . S
C2121 C2115 1.429 . S
C2121 C2122 1.523 . S
C2122 C2103 1.368 . S
C2122 C2116 1.368 . S
C2122 C2121 1.523 . S
C2123 C2107 1.429 . S
C2123 C2119 1.429 . S
C2123 C2124 1.523 . S
C2124 C2108 1.368 . S
C2124 C2120 1.368 . S
C2124 C2123 1.523 . S
H2125 C2100 0.950 . S
H2126 C2102 0.950 . S
H2127 C2103 0.949 . S
H2128 C2105 0.950 . S
H2129 C2107 0.950 . S
C2130 C2131 1.349 . S
C2130 C2132 1.327 . S
C2130 H2155 0.950 1_545 S
C2131 C2130 1.349 . S
C2131 C2147 1.349 . S
C2132 C2130 1.327 . S
C2132 C2151 1.429 . S
C2132 H2156 0.950 1_545 S
C2133 C2150 1.574 . S
C2133 C2152 1.368 . S
C2133 H2157 0.949 . S
H2134 C2138 0.949 1_565 S
C2135 C2136 1.349 . S
C2135 C2137 1.327 . S
C2135 H2158 0.950 . S
C2136 C2135 1.349 . S
C2136 C2148 1.349 . S
C2137 C2135 1.327 . S
C2137 C2153 1.429 . S
C2137 H2159 0.950 . S
C2138 H2134 0.949 1_545 S
C2138 C2146 1.574 . S
C2138 C2154 1.368 . S
H2139 C2147 0.950 . S
H2140 C2145 0.950 . S
H2141 C2146 0.949 1_565 S
H2142 C2148 0.950 1_565 S
H2143 C2149 0.950 1_565 S
H2144 C2150 0.949 . S
C2145 H2140 0.950 . S
C2145 C2147 1.327 . S
C2145 C2151 1.429 . S
C2146 C2138 1.574 . S
C2146 H2141 0.949 1_545 S
C2146 C2152 1.368 . S
C2147 C2131 1.349 . S
C2147 H2139 0.950 . S
C2147 C2145 1.327 . S
C2148 C2136 1.349 . S
C2148 H2142 0.950 1_545 S
C2148 C2149 1.327 . S
C2149 H2143 0.950 1_545 S
C2149 C2148 1.327 . S
C2149 C2153 1.429 . S
C2150 C2133 1.574 . S
C2150 H2144 0.949 . S
C2150 C2154 1.368 . S
C2151 C2132 1.429 . S
C2151 C2145 1.429 . S
C2151 C2152 1.523 . S
C2152 C2133 1.368 . S
C2152 C2146 1.368 . S
C2152 C2151 1.523 . S
C2153 C2137 1.429 . S
C2153 C2149 1.429 . S
C2153 C2154 1.523 . S
C2154 C2138 1.368 . S
C2154 C2150 1.368 . S
C2154 C2153 1.523 . S
H2155 C2130 0.950 1_565 S
H2156 C2132 0.950 1_565 S
H2157 C2133 0.949 . S
H2158 C2135 0.950 . S
H2159 C2137 0.950 . S
C2160 C2161 1.349 . S
C2160 C2162 1.327 . S
C2160 H2185 0.950 . S
C2161 C2160 1.349 . S
C2161 C2177 1.349 . S
C2162 C2160 1.327 . S
C2162 C2181 1.429 . S
C2162 H2186 0.950 . S
C2163 C2180 1.574 . S
C2163 C2182 1.368 . S
C2163 H2187 0.949 . S
H2164 C2168 0.949 . S
C2165 C2166 1.349 . S
C2165 C2167 1.327 . S
C2165 H2188 0.950 . S
C2166 C2165 1.349 . S
C2166 C2178 1.349 . S
C2167 C2165 1.327 . S
C2167 C2183 1.429 . S
C2167 H2189 0.950 . S
C2168 H2164 0.949 . S
C2168 C2176 1.574 . S
C2168 C2184 1.368 . S
H2169 C2177 0.950 . S
H2170 C2175 0.950 . S
H2171 C2176 0.949 . S
H2172 C2178 0.950 . S
H2173 C2179 0.950 . S
H2174 C2180 0.949 . S
C2175 H2170 0.950 . S
C2175 C2177 1.327 . S
C2175 C2181 1.429 . S
C2176 C2168 1.574 . S
C2176 H2171 0.949 . S
C2176 C2182 1.368 . S
C2177 C2161 1.349 . S
C2177 H2169 0.950 . S
C2177 C2175 1.327 . S
C2178 C2166 1.349 . S
C2178 H2172 0.950 . S
C2178 C2179 1.327 . S
C2179 H2173 0.950 . S
C2179 C2178 1.327 . S
C2179 C2183 1.429 . S
C2180 C2163 1.574 . S
C2180 H2174 0.949 . S
C2180 C2184 1.368 . S
C2181 C2162 1.429 . S
C2181 C2175 1.429 . S
C2181 C2182 1.523 . S
C2182 C2163 1.368 . S
C2182 C2176 1.368 . S
C2182 C2181 1.523 . S
C2183 C2167 1.429 . S
C2183 C2179 1.429 . S
C2183 C2184 1.523 . S
C2184 C2168 1.368 . S
C2184 C2180 1.368 . S
C2184 C2183 1.523 . S
H2185 C2160 0.950 . S
H2186 C2162 0.950 . S
H2187 C2163 0.949 . S
H2188 C2165 0.950 . S
H2189 C2167 0.950 . S
C2190 C2191 1.349 . S
C2190 C2192 1.327 . S
C2190 H2215 0.950 . S
C2191 C2190 1.349 . S
C2191 C2207 1.349 . S
C2192 C2190 1.327 . S
C2192 C2211 1.429 . S
C2192 H2216 0.950 . S
C2193 C2210 1.574 . S
C2193 C2212 1.368 . S
C2193 H2217 0.949 . S
H2194 C2198 0.949 . S
C2195 C2196 1.349 . S
C2195 C2197 1.327 . S
C2195 H2218 0.950 . S
C2196 C2195 1.349 . S
C2196 C2208 1.349 . S
C2197 C2195 1.327 . S
C2197 C2213 1.429 . S
C2197 H2219 0.950 . S
C2198 H2194 0.949 . S
C2198 C2206 1.574 . S
C2198 C2214 1.368 . S
H2199 C2207 0.950 . S
H2200 C2205 0.950 . S
H2201 C2206 0.949 . S
H2202 C2208 0.950 . S
H2203 C2209 0.950 . S
H2204 C2210 0.949 . S
C2205 H2200 0.950 . S
C2205 C2207 1.327 . S
C2205 C2211 1.429 . S
C2206 C2198 1.574 . S
C2206 H2201 0.949 . S
C2206 C2212 1.368 . S
C2207 C2191 1.349 . S
C2207 H2199 0.950 . S
C2207 C2205 1.327 . S
C2208 C2196 1.349 . S
C2208 H2202 0.950 . S
C2208 C2209 1.327 . S
C2209 H2203 0.950 . S
C2209 C2208 1.327 . S
C2209 C2213 1.429 . S
C2210 C2193 1.574 . S
C2210 H2204 0.949 . S
C2210 C2214 1.368 . S
C2211 C2192 1.429 . S
C2211 C2205 1.429 . S
C2211 C2212 1.523 . S
C2212 C2193 1.368 . S
C2212 C2206 1.368 . S
C2212 C2211 1.523 . S
C2213 C2197 1.429 . S
C2213 C2209 1.429 . S
C2213 C2214 1.523 . S
C2214 C2198 1.368 . S
C2214 C2210 1.368 . S
C2214 C2213 1.523 . S
H2215 C2190 0.950 . S
H2216 C2192 0.950 . S
H2217 C2193 0.949 . S
H2218 C2195 0.950 . S
H2219 C2197 0.950 . S
C2220 C2221 1.349 . S
C2220 C2222 1.327 . S
C2220 H2245 0.950 . S
C2221 C2220 1.349 . S
C2221 C2237 1.349 . S
C2222 C2220 1.327 . S
C2222 C2241 1.429 . S
C2222 H2246 0.950 . S
C2223 C2240 1.574 . S
C2223 C2242 1.368 . S
C2223 H2247 0.949 . S
H2224 C2228 0.949 . S
C2225 C2226 1.349 . S
C2225 C2227 1.327 . S
C2225 H2248 0.950 . S
C2226 C2225 1.349 . S
C2226 C2238 1.349 . S
C2227 C2225 1.327 . S
C2227 C2243 1.429 . S
C2227 H2249 0.950 . S
C2228 H2224 0.949 . S
C2228 C2236 1.574 . S
C2228 C2244 1.368 . S
H2229 C2237 0.950 . S
H2230 C2235 0.950 . S
H2231 C2236 0.949 . S
H2232 C2238 0.950 . S
H2233 C2239 0.950 . S
H2234 C2240 0.949 . S
C2235 H2230 0.950 . S
C2235 C2237 1.327 . S
C2235 C2241 1.429 . S
C2236 C2228 1.574 . S
C2236 H2231 0.949 . S
C2236 C2242 1.368 . S
C2237 C2221 1.349 . S
C2237 H2229 0.950 . S
C2237 C2235 1.327 . S
C2238 C2226 1.349 . S
C2238 H2232 0.950 . S
C2238 C2239 1.327 . S
C2239 H2233 0.950 . S
C2239 C2238 1.327 . S
C2239 C2243 1.429 . S
C2240 C2223 1.574 . S
C2240 H2234 0.949 . S
C2240 C2244 1.368 . S
C2241 C2222 1.429 . S
C2241 C2235 1.429 . S
C2241 C2242 1.523 . S
C2242 C2223 1.368 . S
C2242 C2236 1.368 . S
C2242 C2241 1.523 . S
C2243 C2227 1.429 . S
C2243 C2239 1.429 . S
C2243 C2244 1.523 . S
C2244 C2228 1.368 . S
C2244 C2240 1.368 . S
C2244 C2243 1.523 . S
H2245 C2220 0.950 . S
H2246 C2222 0.950 . S
H2247 C2223 0.949 . S
H2248 C2225 0.950 . S
H2249 C2227 0.950 . S
C2250 C2251 1.349 . S
C2250 C2252 1.327 . S
C2250 H2275 0.950 . S
C2251 C2250 1.349 . S
C2251 C2267 1.349 . S
C2252 C2250 1.327 . S
C2252 C2271 1.429 . S
C2252 H2276 0.950 . S
C2253 C2270 1.574 . S
C2253 C2272 1.368 . S
C2253 H2277 0.949 . S
H2254 C2258 0.949 . S
C2255 C2256 1.349 . S
C2255 C2257 1.327 . S
C2255 H2278 0.950 . S
C2256 C2255 1.349 . S
C2256 C2268 1.349 . S
C2257 C2255 1.327 . S
C2257 C2273 1.429 . S
C2257 H2279 0.950 . S
C2258 H2254 0.949 . S
C2258 C2266 1.574 . S
C2258 C2274 1.368 . S
H2259 C2267 0.950 . S
H2260 C2265 0.950 . S
H2261 C2266 0.949 . S
H2262 C2268 0.950 . S
H2263 C2269 0.950 . S
H2264 C2270 0.949 . S
C2265 H2260 0.950 . S
C2265 C2267 1.327 . S
C2265 C2271 1.429 . S
C2266 C2258 1.574 . S
C2266 H2261 0.949 . S
C2266 C2272 1.368 . S
C2267 C2251 1.349 . S
C2267 H2259 0.950 . S
C2267 C2265 1.327 . S
C2268 C2256 1.349 . S
C2268 H2262 0.950 . S
C2268 C2269 1.327 . S
C2269 H2263 0.950 . S
C2269 C2268 1.327 . S
C2269 C2273 1.429 . S
C2270 C2253 1.574 . S
C2270 H2264 0.949 . S
C2270 C2274 1.368 . S
C2271 C2252 1.429 . S
C2271 C2265 1.429 . S
C2271 C2272 1.523 . S
C2272 C2253 1.368 . S
C2272 C2266 1.368 . S
C2272 C2271 1.523 . S
C2273 C2257 1.429 . S
C2273 C2269 1.429 . S
C2273 C2274 1.523 . S
C2274 C2258 1.368 . S
C2274 C2270 1.368 . S
C2274 C2273 1.523 . S
H2275 C2250 0.950 . S
H2276 C2252 0.950 . S
H2277 C2253 0.949 . S
H2278 C2255 0.950 . S
H2279 C2257 0.950 . S
C2280 C2281 1.349 . S
C2280 C2282 1.327 . S
C2280 H2305 0.950 . S
C2281 C2280 1.349 . S
C2281 C2297 1.349 . S
C2282 C2280 1.327 . S
C2282 C2301 1.429 . S
C2282 H2306 0.950 . S
C2283 C2300 1.574 . S
C2283 C2302 1.368 . S
C2283 H2307 0.949 . S
H2284 C2288 0.949 . S
C2285 C2286 1.349 . S
C2285 C2287 1.327 . S
C2285 H2308 0.950 . S
C2286 C2285 1.349 . S
C2286 C2298 1.349 . S
C2287 C2285 1.327 . S
C2287 C2303 1.429 . S
C2287 H2309 0.950 . S
C2288 H2284 0.949 . S
C2288 C2296 1.574 . S
C2288 C2304 1.368 . S
H2289 C2297 0.950 . S
H2290 C2295 0.950 . S
H2291 C2296 0.949 . S
H2292 C2298 0.950 . S
H2293 C2299 0.950 . S
H2294 C2300 0.949 . S
C2295 H2290 0.950 . S
C2295 C2297 1.327 . S
C2295 C2301 1.429 . S
C2296 C2288 1.574 . S
C2296 H2291 0.949 . S
C2296 C2302 1.368 . S
C2297 C2281 1.349 . S
C2297 H2289 0.950 . S
C2297 C2295 1.327 . S
C2298 C2286 1.349 . S
C2298 H2292 0.950 . S
C2298 C2299 1.327 . S
C2299 H2293 0.950 . S
C2299 C2298 1.327 . S
C2299 C2303 1.429 . S
C2300 C2283 1.574 . S
C2300 H2294 0.949 . S
C2300 C2304 1.368 . S
C2301 C2282 1.429 . S
C2301 C2295 1.429 . S
C2301 C2302 1.523 . S
C2302 C2283 1.368 . S
C2302 C2296 1.368 . S
C2302 C2301 1.523 . S
C2303 C2287 1.429 . S
C2303 C2299 1.429 . S
C2303 C2304 1.523 . S
C2304 C2288 1.368 . S
C2304 C2300 1.368 . S
C2304 C2303 1.523 . S
H2305 C2280 0.950 . S
H2306 C2282 0.950 . S
H2307 C2283 0.949 . S
H2308 C2285 0.950 . S
H2309 C2287 0.950 . S
C2310 C2311 1.349 . S
C2310 C2312 1.327 . S
C2310 H2335 0.950 . S
C2311 C2310 1.349 . S
C2311 C2327 1.349 . S
C2312 C2310 1.327 . S
C2312 C2331 1.429 . S
C2312 H2336 0.950 . S
C2313 C2330 1.574 . S
C2313 C2332 1.368 . S
C2313 H2337 0.949 . S
H2314 C2318 0.949 . S
C2315 C2316 1.349 . S
C2315 C2317 1.327 . S
C2315 H2338 0.950 . S
C2316 C2315 1.349 . S
C2316 C2328 1.349 . S
C2317 C2315 1.327 . S
C2317 C2333 1.429 . S
C2317 H2339 0.950 . S
C2318 H2314 0.949 . S
C2318 C2326 1.574 . S
C2318 C2334 1.368 . S
H2319 C2327 0.950 . S
H2320 C2325 0.950 . S
H2321 C2326 0.949 . S
H2322 C2328 0.950 . S
H2323 C2329 0.950 . S
H2324 C2330 0.949 . S
C2325 H2320 0.950 . S
C2325 C2327 1.327 . S
C2325 C2331 1.429 . S
C2326 C2318 1.574 . S
C2326 H2321 0.949 . S
C2326 C2332 1.368 . S
C2327 C2311 1.349 . S
C2327 H2319 0.950 . S
C2327 C2325 1.327 . S
C2328 C2316 1.349 . S
C2328 H2322 0.950 . S
C2328 C2329 1.327 . S
C2329 H2323 0.950 . S
C2329 C2328 1.327 . S
C2329 C2333 1.429 . S
C2330 C2313 1.574 . S
C2330 H2324 0.949 . S
C2330 C2334 1.368 . S
C2331 C2312 1.429 . S
C2331 C2325 1.429 . S
C2331 C2332 1.523 . S
C2332 C2313 1.368 . S
C2332 C2326 1.368 . S
C2332 C2331 1.523 . S
C2333 C2317 1.429 . S
C2333 C2329 1.429 . S
C2333 C2334 1.523 . S
C2334 C2318 1.368 . S
C2334 C2330 1.368 . S
C2334 C2333 1.523 . S
H2335 C2310 0.950 . S
H2336 C2312 0.950 . S
H2337 C2313 0.949 . S
H2338 C2315 0.950 . S
H2339 C2317 0.950 . S
C2340 C2341 1.349 . S
C2340 C2342 1.327 . S
C2340 H2365 0.950 . S
C2341 C2340 1.349 . S
C2341 C2357 1.349 . S
C2342 C2340 1.327 . S
C2342 C2361 1.429 . S
C2342 H2366 0.950 . S
C2343 C2360 1.574 . S
C2343 C2362 1.368 . S
C2343 H2367 0.949 . S
H2344 C2348 0.949 . S
C2345 C2346 1.349 . S
C2345 C2347 1.327 . S
C2345 H2368 0.950 . S
C2346 C2345 1.349 . S
C2346 C2358 1.349 . S
C2347 C2345 1.327 . S
C2347 C2363 1.429 . S
C2347 H2369 0.950 . S
C2348 H2344 0.949 . S
C2348 C2356 1.574 . S
C2348 C2364 1.368 . S
H2349 C2357 0.950 . S
H2350 C2355 0.950 . S
H2351 C2356 0.949 . S
H2352 C2358 0.950 . S
H2353 C2359 0.950 . S
H2354 C2360 0.949 . S
C2355 H2350 0.950 . S
C2355 C2357 1.327 . S
C2355 C2361 1.429 . S
C2356 C2348 1.574 . S
C2356 H2351 0.949 . S
C2356 C2362 1.368 . S
C2357 C2341 1.349 . S
C2357 H2349 0.950 . S
C2357 C2355 1.327 . S
C2358 C2346 1.349 . S
C2358 H2352 0.950 . S
C2358 C2359 1.327 . S
C2359 H2353 0.950 . S
C2359 C2358 1.327 . S
C2359 C2363 1.429 . S
C2360 C2343 1.574 . S
C2360 H2354 0.949 . S
C2360 C2364 1.368 . S
C2361 C2342 1.429 . S
C2361 C2355 1.429 . S
C2361 C2362 1.523 . S
C2362 C2343 1.368 . S
C2362 C2356 1.368 . S
C2362 C2361 1.523 . S
C2363 C2347 1.429 . S
C2363 C2359 1.429 . S
C2363 C2364 1.523 . S
C2364 C2348 1.368 . S
C2364 C2360 1.368 . S
C2364 C2363 1.523 . S
H2365 C2340 0.950 . S
H2366 C2342 0.950 . S
H2367 C2343 0.949 . S
H2368 C2345 0.950 . S
H2369 C2347 0.950 . S
C2370 C2371 1.349 . S
C2370 C2372 1.327 . S
C2370 H2395 0.950 . S
C2371 C2370 1.349 . S
C2371 C2387 1.349 . S
C2372 C2370 1.327 . S
C2372 C2391 1.429 . S
C2372 H2396 0.950 . S
C2373 C2390 1.574 . S
C2373 C2392 1.368 . S
C2373 H2397 0.949 . S
H2374 C2378 0.949 . S
C2375 C2376 1.349 . S
C2375 C2377 1.327 . S
C2375 H2398 0.950 . S
C2376 C2375 1.349 . S
C2376 C2388 1.349 . S
C2377 C2375 1.327 . S
C2377 C2393 1.429 . S
C2377 H2399 0.950 . S
C2378 H2374 0.949 . S
C2378 C2386 1.574 . S
C2378 C2394 1.368 . S
H2379 C2387 0.950 . S
H2380 C2385 0.950 . S
H2381 C2386 0.949 . S
H2382 C2388 0.950 . S
H2383 C2389 0.950 . S
H2384 C2390 0.949 . S
C2385 H2380 0.950 . S
C2385 C2387 1.327 . S
C2385 C2391 1.429 . S
C2386 C2378 1.574 . S
C2386 H2381 0.949 . S
C2386 C2392 1.368 . S
C2387 C2371 1.349 . S
C2387 H2379 0.950 . S
C2387 C2385 1.327 . S
C2388 C2376 1.349 . S
C2388 H2382 0.950 . S
C2388 C2389 1.327 . S
C2389 H2383 0.950 . S
C2389 C2388 1.327 . S
C2389 C2393 1.429 . S
C2390 C2373 1.574 . S
C2390 H2384 0.949 . S
C2390 C2394 1.368 . S
C2391 C2372 1.429 . S
C2391 C2385 1.429 . S
C2391 C2392 1.523 . S
C2392 C2373 1.368 . S
C2392 C2386 1.368 . S
C2392 C2391 1.523 . S
C2393 C2377 1.429 . S
C2393 C2389 1.429 . S
C2393 C2394 1.523 . S
C2394 C2378 1.368 . S
C2394 C2390 1.368 . S
C2394 C2393 1.523 . S
H2395 C2370 0.950 . S
H2396 C2372 0.950 . S
H2397 C2373 0.949 . S
H2398 C2375 0.950 . S
H2399 C2377 0.950 . S
C2400 C2401 1.349 . S
C2400 C2402 1.327 . S
C2400 H2425 0.950 . S
C2401 C2400 1.349 . S
C2401 C2417 1.349 . S
C2402 C2400 1.327 . S
C2402 C2421 1.429 . S
C2402 H2426 0.950 . S
C2403 C2420 1.574 . S
C2403 C2422 1.368 . S
C2403 H2427 0.949 . S
H2404 C2408 0.949 . S
C2405 C2406 1.349 . S
C2405 C2407 1.327 . S
C2405 H2428 0.950 . S
C2406 C2405 1.349 . S
C2406 C2418 1.349 . S
C2407 C2405 1.327 . S
C2407 C2423 1.429 . S
C2407 H2429 0.950 . S
C2408 H2404 0.949 . S
C2408 C2416 1.574 . S
C2408 C2424 1.368 . S
H2409 C2417 0.950 . S
H2410 C2415 0.950 . S
H2411 C2416 0.949 . S
H2412 C2418 0.950 . S
H2413 C2419 0.950 . S
H2414 C2420 0.949 . S
C2415 H2410 0.950 . S
C2415 C2417 1.327 . S
C2415 C2421 1.429 . S
C2416 C2408 1.574 . S
C2416 H2411 0.949 . S
C2416 C2422 1.368 . S
C2417 C2401 1.349 . S
C2417 H2409 0.950 . S
C2417 C2415 1.327 . S
C2418 C2406 1.349 . S
C2418 H2412 0.950 . S
C2418 C2419 1.327 . S
C2419 H2413 0.950 . S
C2419 C2418 1.327 . S
C2419 C2423 1.429 . S
C2420 C2403 1.574 . S
C2420 H2414 0.949 . S
C2420 C2424 1.368 . S
C2421 C2402 1.429 . S
C2421 C2415 1.429 . S
C2421 C2422 1.523 . S
C2422 C2403 1.368 . S
C2422 C2416 1.368 . S
C2422 C2421 1.523 . S
C2423 C2407 1.429 . S
C2423 C2419 1.429 . S
C2423 C2424 1.523 . S
C2424 C2408 1.368 . S
C2424 C2420 1.368 . S
C2424 C2423 1.523 . S
H2425 C2400 0.950 . S
H2426 C2402 0.950 . S
H2427 C2403 0.949 . S
H2428 C2405 0.950 . S
H2429 C2407 0.950 . S
C2430 C2431 1.349 . S
C2430 C2432 1.327 . S
C2430 H2455 0.950 . S
C2431 C2430 1.349 . S
C2431 C2447 1.349 . S
C2432 C2430 1.327 . S
C2432 C2451 1.429 . S
C2432 H2456 0.950 . S
C2433 C2450 1.574 . S
C2433 C2452 1.368 . S
C2433 H2457 0.949 . S
H2434 C2438 0.949 . S
C2435 C2436 1.349 . S
C2435 C2437 1.327 . S
C2435 H2458 0.950 . S
C2436 C2435 1.349 . S
C2436 C2448 1.349 . S
C2437 C2435 1.327 . S
C2437 C2453 1.429 . S
C2437 H2459 0.950 . S
C2438 H2434 0.949 . S
C2438 C2446 1.574 . S
C2438 C2454 1.368 . S
H2439 C2447 0.950 . S
H2440 C2445 0.950 . S
H2441 C2446 0.949 . S
H2442 C2448 0.950 . S
H2443 C2449 0.950 . S
H2444 C2450 0.949 . S
C2445 H2440 0.950 . S
C2445 C2447 1.327 . S
C2445 C2451 1.429 . S
C2446 C2438 1.574 . S
C2446 H2441 0.949 . S
C2446 C2452 1.368 . S
C2447 C2431 1.349 . S
C2447 H2439 0.950 . S
C2447 C2445 1.327 . S
C2448 C2436 1.349 . S
C2448 H2442 0.950 . S
C2448 C2449 1.327 . S
C2449 H2443 0.950 . S
C2449 C2448 1.327 . S
C2449 C2453 1.429 . S
C2450 C2433 1.574 . S
C2450 H2444 0.949 . S
C2450 C2454 1.368 . S
C2451 C2432 1.429 . S
C2451 C2445 1.429 . S
C2451 C2452 1.523 . S
C2452 C2433 1.368 . S
C2452 C2446 1.368 . S
C2452 C2451 1.523 . S
C2453 C2437 1.429 . S
C2453 C2449 1.429 . S
C2453 C2454 1.523 . S
C2454 C2438 1.368 . S
C2454 C2450 1.368 . S
C2454 C2453 1.523 . S
H2455 C2430 0.950 . S
H2456 C2432 0.950 . S
H2457 C2433 0.949 . S
H2458 C2435 0.950 . S
H2459 C2437 0.950 . S
C2460 C2461 1.349 . S
C2460 C2462 1.327 . S
C2460 H2485 0.950 . S
C2461 C2460 1.349 . S
C2461 C2477 1.349 . S
C2462 C2460 1.327 . S
C2462 C2481 1.429 . S
C2462 H2486 0.950 . S
C2463 C2480 1.574 . S
C2463 C2482 1.368 . S
C2463 H2487 0.949 . S
H2464 C2468 0.949 . S
C2465 C2466 1.349 . S
C2465 C2467 1.327 . S
C2465 H2488 0.950 . S
C2466 C2465 1.349 . S
C2466 C2478 1.349 . S
C2467 C2465 1.327 . S
C2467 C2483 1.429 . S
C2467 H2489 0.950 . S
C2468 H2464 0.949 . S
C2468 C2476 1.574 . S
C2468 C2484 1.368 . S
H2469 C2477 0.950 . S
H2470 C2475 0.950 . S
H2471 C2476 0.949 . S
H2472 C2478 0.950 . S
H2473 C2479 0.950 . S
H2474 C2480 0.949 . S
C2475 H2470 0.950 . S
C2475 C2477 1.327 . S
C2475 C2481 1.429 . S
C2476 C2468 1.574 . S
C2476 H2471 0.949 . S
C2476 C2482 1.368 . S
C2477 C2461 1.349 . S
C2477 H2469 0.950 . S
C2477 C2475 1.327 . S
C2478 C2466 1.349 . S
C2478 H2472 0.950 . S
C2478 C2479 1.327 . S
C2479 H2473 0.950 . S
C2479 C2478 1.327 . S
C2479 C2483 1.429 . S
C2480 C2463 1.574 . S
C2480 H2474 0.949 . S
C2480 C2484 1.368 . S
C2481 C2462 1.429 . S
C2481 C2475 1.429 . S
C2481 C2482 1.523 . S
C2482 C2463 1.368 . S
C2482 C2476 1.368 . S
C2482 C2481 1.523 . S
C2483 C2467 1.429 . S
C2483 C2479 1.429 . S
C2483 C2484 1.523 . S
C2484 C2468 1.368 . S
C2484 C2480 1.368 . S
C2484 C2483 1.523 . S
H2485 C2460 0.950 . S
H2486 C2462 0.950 . S
H2487 C2463 0.949 . S
H2488 C2465 0.950 . S
H2489 C2467 0.950 . S
C2490 C2491 1.349 . S
C2490 C2492 1.327 . S
C2490 H2515 0.950 . S
C2491 C2490 1.349 . S
C2491 C2507 1.349 . S
C2492 C2490 1.327 . S
C2492 C2511 1.429 . S
C2492 H2516 0.950 . S
C2493 C2510 1.574 . S
C2493 C2512 1.368 . S
C2493 H2517 0.949 . S
H2494 C2498 0.949 . S
C2495 C2496 1.349 . S
C2495 C2497 1.327 . S
C2495 H2518 0.950 . S
C2496 C2495 1.349 . S
C2496 C2508 1.349 . S
C2497 C2495 1.327 . S
C2497 C2513 1.429 . S
C2497 H2519 0.950 . S
C2498 H2494 0.949 . S
C2498 C2506 1.574 . S
C2498 C2514 1.368 . S
H2499 C2507 0.950 . S
H2500 C2505 0.950 . S
H2501 C2506 0.949 . S
H2502 C2508 0.950 . S
H2503 C2509 0.950 . S
H2504 C2510 0.949 . S
C2505 H2500 0.950 . S
C2505 C2507 1.327 . S
C2505 C2511 1.429 . S
C2506 C2498 1.574 . S
C2506 H2501 0.949 . S
C2506 C2512 1.368 . S
C2507 C2491 1.349 . S
C2507 H2499 0.950 . S
C2507 C2505 1.327 . S
C2508 C2496 1.349 . S
C2508 H2502 0.950 . S
C2508 C2509 1.327 . S
C2509 H2503 0.950 . S
C2509 C2508 1.327 . S
C2509 C2513 1.429 . S
C2510 C2493 1.574 . S
C2510 H2504 0.949 . S
C2510 C2514 1.368 . S
C2511 C2492 1.429 . S
C2511 C2505 1.429 . S
C2511 C2512 1.523 . S
C2512 C2493 1.368 . S
C2512 C2506 1.368 . S
C2512 C2511 1.523 . S
C2513 C2497 1.429 . S
C2513 C2509 1.429 . S
C2513 C2514 1.523 . S
C2514 C2498 1.368 . S
C2514 C2510 1.368 . S
C2514 C2513 1.523 . S
H2515 C2490 0.950 . S
H2516 C2492 0.950 . S
H2517 C2493 0.949 . S
H2518 C2495 0.950 . S
H2519 C2497 0.950 . S
C2520 C2521 1.349 . S
C2520 C2522 1.327 . S
C2520 H2545 0.950 . S
C2521 C2520 1.349 . S
C2521 C2537 1.349 . S
C2522 C2520 1.327 . S
C2522 C2541 1.429 . S
C2522 H2546 0.950 . S
C2523 C2540 1.574 . S
C2523 C2542 1.368 . S
C2523 H2547 0.949 . S
H2524 C2528 0.949 . S
C2525 C2526 1.349 . S
C2525 C2527 1.327 . S
C2525 H2548 0.950 . S
C2526 C2525 1.349 . S
C2526 C2538 1.349 . S
C2527 C2525 1.327 . S
C2527 C2543 1.429 . S
C2527 H2549 0.950 . S
C2528 H2524 0.949 . S
C2528 C2536 1.574 . S
C2528 C2544 1.368 . S
H2529 C2537 0.950 . S
H2530 C2535 0.950 . S
H2531 C2536 0.949 . S
H2532 C2538 0.950 . S
H2533 C2539 0.950 . S
H2534 C2540 0.949 . S
C2535 H2530 0.950 . S
C2535 C2537 1.327 . S
C2535 C2541 1.429 . S
C2536 C2528 1.574 . S
C2536 H2531 0.949 . S
C2536 C2542 1.368 . S
C2537 C2521 1.349 . S
C2537 H2529 0.950 . S
C2537 C2535 1.327 . S
C2538 C2526 1.349 . S
C2538 H2532 0.950 . S
C2538 C2539 1.327 . S
C2539 H2533 0.950 . S
C2539 C2538 1.327 . S
C2539 C2543 1.429 . S
C2540 C2523 1.574 . S
C2540 H2534 0.949 . S
C2540 C2544 1.368 . S
C2541 C2522 1.429 . S
C2541 C2535 1.429 . S
C2541 C2542 1.523 . S
C2542 C2523 1.368 . S
C2542 C2536 1.368 . S
C2542 C2541 1.523 . S
C2543 C2527 1.429 . S
C2543 C2539 1.429 . S
C2543 C2544 1.523 . S
C2544 C2528 1.368 . S
C2544 C2540 1.368 . S
C2544 C2543 1.523 . S
H2545 C2520 0.950 . S
H2546 C2522 0.950 . S
H2547 C2523 0.949 . S
H2548 C2525 0.950 . S
H2549 C2527 0.950 . S
C2550 C2551 1.349 . S
C2550 C2552 1.327 . S
C2550 H2575 0.950 . S
C2551 C2550 1.349 . S
C2551 C2567 1.349 . S
C2552 C2550 1.327 . S
C2552 C2571 1.429 . S
C2552 H2576 0.950 . S
C2553 C2570 1.574 . S
C2553 C2572 1.368 . S
C2553 H2577 0.949 . S
H2554 C2558 0.949 . S
C2555 C2556 1.349 . S
C2555 C2557 1.327 . S
C2555 H2578 0.950 . S
C2556 C2555 1.349 . S
C2556 C2568 1.349 . S
C2557 C2555 1.327 . S
C2557 C2573 1.429 . S
C2557 H2579 0.950 . S
C2558 H2554 0.949 . S
C2558 C2566 1.574 . S
C2558 C2574 1.368 . S
H2559 C2567 0.950 . S
H2560 C2565 0.950 . S
H2561 C2566 0.949 . S
H2562 C2568 0.950 . S
H2563 C2569 0.950 . S
H2564 C2570 0.949 . S
C2565 H2560 0.950 . S
C2565 C2567 1.327 . S
C2565 C2571 1.429 . S
C2566 C2558 1.574 . S
C2566 H2561 0.949 . S
C2566 C2572 1.368 . S
C2567 C2551 1.349 . S
C2567 H2559 0.950 . S
C2567 C2565 1.327 . S
C2568 C2556 1.349 . S
C2568 H2562 0.950 . S
C2568 C2569 1.327 . S
C2569 H2563 0.950 . S
C2569 C2568 1.327 . S
C2569 C2573 1.429 . S
C2570 C2553 1.574 . S
C2570 H2564 0.949 . S
C2570 C2574 1.368 . S
C2571 C2552 1.429 . S
C2571 C2565 1.429 . S
C2571 C2572 1.523 . S
C2572 C2553 1.368 . S
C2572 C2566 1.368 . S
C2572 C2571 1.523 . S
C2573 C2557 1.429 . S
C2573 C2569 1.429 . S
C2573 C2574 1.523 . S
C2574 C2558 1.368 . S
C2574 C2570 1.368 . S
C2574 C2573 1.523 . S
H2575 C2550 0.950 . S
H2576 C2552 0.950 . S
H2577 C2553 0.949 . S
H2578 C2555 0.950 . S
H2579 C2557 0.950 . S
C2580 C2581 1.349 . S
C2580 C2582 1.327 . S
C2580 H2605 0.950 . S
C2581 C2580 1.349 . S
C2581 C2597 1.349 . S
C2582 C2580 1.327 . S
C2582 C2601 1.429 . S
C2582 H2606 0.950 . S
C2583 C2600 1.574 . S
C2583 C2602 1.368 . S
C2583 H2607 0.949 . S
H2584 C2588 0.949 . S
C2585 C2586 1.349 . S
C2585 C2587 1.327 . S
C2585 H2608 0.950 . S
C2586 C2585 1.349 . S
C2586 C2598 1.349 . S
C2587 C2585 1.327 . S
C2587 C2603 1.429 . S
C2587 H2609 0.950 . S
C2588 H2584 0.949 . S
C2588 C2596 1.574 . S
C2588 C2604 1.368 . S
H2589 C2597 0.950 . S
H2590 C2595 0.950 . S
H2591 C2596 0.949 . S
H2592 C2598 0.950 . S
H2593 C2599 0.950 . S
H2594 C2600 0.949 . S
C2595 H2590 0.950 . S
C2595 C2597 1.327 . S
C2595 C2601 1.429 . S
C2596 C2588 1.574 . S
C2596 H2591 0.949 . S
C2596 C2602 1.368 . S
C2597 C2581 1.349 . S
C2597 H2589 0.950 . S
C2597 C2595 1.327 . S
C2598 C2586 1.349 . S
C2598 H2592 0.950 . S
C2598 C2599 1.327 . S
C2599 H2593 0.950 . S
C2599 C2598 1.327 . S
C2599 C2603 1.429 . S
C2600 C2583 1.574 . S
C2600 H2594 0.949 . S
C2600 C2604 1.368 . S
C2601 C2582 1.429 . S
C2601 C2595 1.429 . S
C2601 C2602 1.523 . S
C2602 C2583 1.368 . S
C2602 C2596 1.368 . S
C2602 C2601 1.523 . S
C2603 C2587 1.429 . S
C2603 C2599 1.429 . S
C2603 C2604 1.523 . S
C2604 C2588 1.368 . S
C2604 C2600 1.368 . S
C2604 C2603 1.523 . S
H2605 C2580 0.950 . S
H2606 C2582 0.950 . S
H2607 C2583 0.949 . S
H2608 C2585 0.950 . S
H2609 C2587 0.950 . S
C2610 C2611 1.349 . S
C2610 C2612 1.327 . S
C2610 H2635 0.950 . S
C2611 C2610 1.349 . S
C2611 C2627 1.349 . S
C2612 C2610 1.327 . S
C2612 C2631 1.429 . S
C2612 H2636 0.950 . S
C2613 C2630 1.574 . S
C2613 C2632 1.368 . S
C2613 H2637 0.949 . S
H2614 C2618 0.949 . S
C2615 C2616 1.349 . S
C2615 C2617 1.327 . S
C2615 H2638 0.950 . S
C2616 C2615 1.349 . S
C2616 C2628 1.349 . S
C2617 C2615 1.327 . S
C2617 C2633 1.429 . S
C2617 H2639 0.950 . S
C2618 H2614 0.949 . S
C2618 C2626 1.574 . S
C2618 C2634 1.368 . S
H2619 C2627 0.950 . S
H2620 C2625 0.950 . S
H2621 C2626 0.949 . S
H2622 C2628 0.950 . S
H2623 C2629 0.950 . S
H2624 C2630 0.949 . S
C2625 H2620 0.950 . S
C2625 C2627 1.327 . S
C2625 C2631 1.429 . S
C2626 C2618 1.574 . S
C2626 H2621 0.949 . S
C2626 C2632 1.368 . S
C2627 C2611 1.349 . S
C2627 H2619 0.950 . S
C2627 C2625 1.327 . S
C2628 C2616 1.349 . S
C2628 H2622 0.950 . S
C2628 C2629 1.327 . S
C2629 H2623 0.950 . S
C2629 C2628 1.327 . S
C2629 C2633 1.429 . S
C2630 C2613 1.574 . S
C2630 H2624 0.949 . S
C2630 C2634 1.368 . S
C2631 C2612 1.429 . S
C2631 C2625 1.429 . S
C2631 C2632 1.523 . S
C2632 C2613 1.368 . S
C2632 C2626 1.368 . S
C2632 C2631 1.523 . S
C2633 C2617 1.429 . S
C2633 C2629 1.429 . S
C2633 C2634 1.523 . S
C2634 C2618 1.368 . S
C2634 C2630 1.368 . S
C2634 C2633 1.523 . S
H2635 C2610 0.950 . S
H2636 C2612 0.950 . S
H2637 C2613 0.949 . S
H2638 C2615 0.950 . S
H2639 C2617 0.950 . S
C2640 C2641 1.349 . S
C2640 C2642 1.327 . S
C2640 H2665 0.950 . S
C2641 C2640 1.349 . S
C2641 C2657 1.349 . S
C2642 C2640 1.327 . S
C2642 C2661 1.429 . S
C2642 H2666 0.950 . S
C2643 C2660 1.574 . S
C2643 C2662 1.368 . S
C2643 H2667 0.949 . S
H2644 C2648 0.949 . S
C2645 C2646 1.349 . S
C2645 C2647 1.327 . S
C2645 H2668 0.950 . S
C2646 C2645 1.349 . S
C2646 C2658 1.349 . S
C2647 C2645 1.327 . S
C2647 C2663 1.429 . S
C2647 H2669 0.950 . S
C2648 H2644 0.949 . S
C2648 C2656 1.574 . S
C2648 C2664 1.368 . S
H2649 C2657 0.950 . S
H2650 C2655 0.950 . S
H2651 C2656 0.949 . S
H2652 C2658 0.950 . S
H2653 C2659 0.950 . S
H2654 C2660 0.949 . S
C2655 H2650 0.950 . S
C2655 C2657 1.327 . S
C2655 C2661 1.429 . S
C2656 C2648 1.574 . S
C2656 H2651 0.949 . S
C2656 C2662 1.368 . S
C2657 C2641 1.349 . S
C2657 H2649 0.950 . S
C2657 C2655 1.327 . S
C2658 C2646 1.349 . S
C2658 H2652 0.950 . S
C2658 C2659 1.327 . S
C2659 H2653 0.950 . S
C2659 C2658 1.327 . S
C2659 C2663 1.429 . S
C2660 C2643 1.574 . S
C2660 H2654 0.949 . S
C2660 C2664 1.368 . S
C2661 C2642 1.429 . S
C2661 C2655 1.429 . S
C2661 C2662 1.523 . S
C2662 C2643 1.368 . S
C2662 C2656 1.368 . S
C2662 C2661 1.523 . S
C2663 C2647 1.429 . S
C2663 C2659 1.429 . S
C2663 C2664 1.523 . S
C2664 C2648 1.368 . S
C2664 C2660 1.368 . S
C2664 C2663 1.523 . S
H2665 C2640 0.950 . S
H2666 C2642 0.950 . S
H2667 C2643 0.949 . S
H2668 C2645 0.950 . S
H2669 C2647 0.950 . S
C2670 C2671 1.349 . S
C2670 C2672 1.327 . S
C2670 H2695 0.950 . S
C2671 C2670 1.349 . S
C2671 C2687 1.349 . S
C2672 C2670 1.327 . S
C2672 C2691 1.429 . S
C2672 H2696 0.950 . S
C2673 C2690 1.574 . S
C2673 C2692 1.368 . S
C2673 H2697 0.949 . S
H2674 C2678 0.949 . S
C2675 C2676 1.349 . S
C2675 C2677 1.327 . S
C2675 H2698 0.950 . S
C2676 C2675 1.349 . S
C2676 C2688 1.349 . S
C2677 C2675 1.327 . S
C2677 C2693 1.429 . S
C2677 H2699 0.950 . S
C2678 H2674 0.949 . S
C2678 C2686 1.574 . S
C2678 C2694 1.368 . S
H2679 C2687 0.950 . S
H2680 C2685 0.950 . S
H2681 C2686 0.949 . S
H2682 C2688 0.950 . S
H2683 C2689 0.950 . S
H2684 C2690 0.949 . S
C2685 H2680 0.950 . S
C2685 C2687 1.327 . S
C2685 C2691 1.429 . S
C2686 C2678 1.574 . S
C2686 H2681 0.949 . S
C2686 C2692 1.368 . S
C2687 C2671 1.349 . S
C2687 H2679 0.950 . S
C2687 C2685 1.327 . S
C2688 C2676 1.349 . S
C2688 H2682 0.950 . S
C2688 C2689 1.327 . S
C2689 H2683 0.950 . S
C2689 C2688 1.327 . S
C2689 C2693 1.429 . S
C2690 C2673 1.574 . S
C2690 H2684 0.949 . S
C2690 C2694 1.368 . S
C2691 C2672 1.429 . S
C2691 C2685 1.429 . S
C2691 C2692 1.523 . S
C2692 C2673 1.368 . S
C2692 C2686 1.368 . S
C2692 C2691 1.523 . S
C2693 C2677 1.429 . S
C2693 C2689 1.429 . S
C2693 C2694 1.523 . S
C2694 C2678 1.368 . S
C2694 C2690 1.368 . S
C2694 C2693 1.523 . S
H2695 C2670 0.950 . S
H2696 C2672 0.950 . S
H2697 C2673 0.949 . S
H2698 C2675 0.950 . S
H2699 C2677 0.950 . S
C2700 C2701 1.349 . S
C2700 C2702 1.327 . S
C2700 H2725 0.950 . S
C2701 C2700 1.349 . S
C2701 C2717 1.349 . S
C2702 C2700 1.327 . S
C2702 C2721 1.429 . S
C2702 H2726 0.950 . S
C2703 C2720 1.574 . S
C2703 C2722 1.368 . S
C2703 H2727 0.949 . S
H2704 C2708 0.949 . S
C2705 C2706 1.349 . S
C2705 C2707 1.327 . S
C2705 H2728 0.950 . S
C2706 C2705 1.349 . S
C2706 C2718 1.349 . S
C2707 C2705 1.327 . S
C2707 C2723 1.429 . S
C2707 H2729 0.950 . S
C2708 H2704 0.949 . S
C2708 C2716 1.574 . S
C2708 C2724 1.368 . S
H2709 C2717 0.950 . S
H2710 C2715 0.950 . S
H2711 C2716 0.949 . S
H2712 C2718 0.950 . S
H2713 C2719 0.950 . S
H2714 C2720 0.949 . S
C2715 H2710 0.950 . S
C2715 C2717 1.327 . S
C2715 C2721 1.429 . S
C2716 C2708 1.574 . S
C2716 H2711 0.949 . S
C2716 C2722 1.368 . S
C2717 C2701 1.349 . S
C2717 H2709 0.950 . S
C2717 C2715 1.327 . S
C2718 C2706 1.349 . S
C2718 H2712 0.950 . S
C2718 C2719 1.327 . S
C2719 H2713 0.950 . S
C2719 C2718 1.327 . S
C2719 C2723 1.429 . S
C2720 C2703 1.574 . S
C2720 H2714 0.949 . S
C2720 C2724 1.368 . S
C2721 C2702 1.429 . S
C2721 C2715 1.429 . S
C2721 C2722 1.523 . S
C2722 C2703 1.368 . S
C2722 C2716 1.368 . S
C2722 C2721 1.523 . S
C2723 C2707 1.429 . S
C2723 C2719 1.429 . S
C2723 C2724 1.523 . S
C2724 C2708 1.368 . S
C2724 C2720 1.368 . S
C2724 C2723 1.523 . S
H2725 C2700 0.950 . S
H2726 C2702 0.950 . S
H2727 C2703 0.949 . S
H2728 C2705 0.950 . S
H2729 C2707 0.950 . S
C2730 C2731 1.349 . S
C2730 C2732 1.327 . S
C2730 H2755 0.950 . S
C2731 C2730 1.349 . S
C2731 C2747 1.349 . S
C2732 C2730 1.327 . S
C2732 C2751 1.429 . S
C2732 H2756 0.950 . S
C2733 C2750 1.574 . S
C2733 C2752 1.368 . S
C2733 H2757 0.949 . S
H2734 C2738 0.949 . S
C2735 C2736 1.349 . S
C2735 C2737 1.327 . S
C2735 H2758 0.950 . S
C2736 C2735 1.349 . S
C2736 C2748 1.349 . S
C2737 C2735 1.327 . S
C2737 C2753 1.429 . S
C2737 H2759 0.950 . S
C2738 H2734 0.949 . S
C2738 C2746 1.574 . S
C2738 C2754 1.368 . S
H2739 C2747 0.950 . S
H2740 C2745 0.950 . S
H2741 C2746 0.949 . S
H2742 C2748 0.950 . S
H2743 C2749 0.950 . S
H2744 C2750 0.949 . S
C2745 H2740 0.950 . S
C2745 C2747 1.327 . S
C2745 C2751 1.429 . S
C2746 C2738 1.574 . S
C2746 H2741 0.949 . S
C2746 C2752 1.368 . S
C2747 C2731 1.349 . S
C2747 H2739 0.950 . S
C2747 C2745 1.327 . S
C2748 C2736 1.349 . S
C2748 H2742 0.950 . S
C2748 C2749 1.327 . S
C2749 H2743 0.950 . S
C2749 C2748 1.327 . S
C2749 C2753 1.429 . S
C2750 C2733 1.574 . S
C2750 H2744 0.949 . S
C2750 C2754 1.368 . S
C2751 C2732 1.429 . S
C2751 C2745 1.429 . S
C2751 C2752 1.523 . S
C2752 C2733 1.368 . S
C2752 C2746 1.368 . S
C2752 C2751 1.523 . S
C2753 C2737 1.429 . S
C2753 C2749 1.429 . S
C2753 C2754 1.523 . S
C2754 C2738 1.368 . S
C2754 C2750 1.368 . S
C2754 C2753 1.523 . S
H2755 C2730 0.950 . S
H2756 C2732 0.950 . S
H2757 C2733 0.949 . S
H2758 C2735 0.950 . S
H2759 C2737 0.950 . S
C2760 C2761 1.349 . S
C2760 C2762 1.327 . S
C2760 H2785 0.950 . S
C2761 C2760 1.349 . S
C2761 C2777 1.349 . S
C2762 C2760 1.327 . S
C2762 C2781 1.429 . S
C2762 H2786 0.950 . S
C2763 C2780 1.574 . S
C2763 C2782 1.368 . S
C2763 H2787 0.949 . S
H2764 C2768 0.949 . S
C2765 C2766 1.349 . S
C2765 C2767 1.327 . S
C2765 H2788 0.950 . S
C2766 C2765 1.349 . S
C2766 C2778 1.349 . S
C2767 C2765 1.327 . S
C2767 C2783 1.429 . S
C2767 H2789 0.950 . S
C2768 H2764 0.949 . S
C2768 C2776 1.574 . S
C2768 C2784 1.368 . S
H2769 C2777 0.950 . S
H2770 C2775 0.950 . S
H2771 C2776 0.949 . S
H2772 C2778 0.950 . S
H2773 C2779 0.950 . S
H2774 C2780 0.949 . S
C2775 H2770 0.950 . S
C2775 C2777 1.327 . S
C2775 C2781 1.429 . S
C2776 C2768 1.574 . S
C2776 H2771 0.949 . S
C2776 C2782 1.368 . S
C2777 C2761 1.349 . S
C2777 H2769 0.950 . S
C2777 C2775 1.327 . S
C2778 C2766 1.349 . S
C2778 H2772 0.950 . S
C2778 C2779 1.327 . S
C2779 H2773 0.950 . S
C2779 C2778 1.327 . S
C2779 C2783 1.429 . S
C2780 C2763 1.574 . S
C2780 H2774 0.949 . S
C2780 C2784 1.368 . S
C2781 C2762 1.429 . S
C2781 C2775 1.429 . S
C2781 C2782 1.523 . S
C2782 C2763 1.368 . S
C2782 C2776 1.368 . S
C2782 C2781 1.523 . S
C2783 C2767 1.429 . S
C2783 C2779 1.429 . S
C2783 C2784 1.523 . S
C2784 C2768 1.368 . S
C2784 C2780 1.368 . S
C2784 C2783 1.523 . S
H2785 C2760 0.950 . S
H2786 C2762 0.950 . S
H2787 C2763 0.949 . S
H2788 C2765 0.950 . S
H2789 C2767 0.950 . S
C2790 C2791 1.349 . S
C2790 C2792 1.327 . S
C2790 H2815 0.950 . S
C2791 C2790 1.349 . S
C2791 C2807 1.349 . S
C2792 C2790 1.327 . S
C2792 C2811 1.429 . S
C2792 H2816 0.950 . S
C2793 C2810 1.574 . S
C2793 C2812 1.368 . S
C2793 H2817 0.949 . S
H2794 C2798 0.949 . S
C2795 C2796 1.349 . S
C2795 C2797 1.327 . S
C2795 H2818 0.950 . S
C2796 C2795 1.349 . S
C2796 C2808 1.349 . S
C2797 C2795 1.327 . S
C2797 C2813 1.429 . S
C2797 H2819 0.950 . S
C2798 H2794 0.949 . S
C2798 C2806 1.574 . S
C2798 C2814 1.368 . S
H2799 C2807 0.950 . S
H2800 C2805 0.950 . S
H2801 C2806 0.949 . S
H2802 C2808 0.950 . S
H2803 C2809 0.950 . S
H2804 C2810 0.949 . S
C2805 H2800 0.950 . S
C2805 C2807 1.327 . S
C2805 C2811 1.429 . S
C2806 C2798 1.574 . S
C2806 H2801 0.949 . S
C2806 C2812 1.368 . S
C2807 C2791 1.349 . S
C2807 H2799 0.950 . S
C2807 C2805 1.327 . S
C2808 C2796 1.349 . S
C2808 H2802 0.950 . S
C2808 C2809 1.327 . S
C2809 H2803 0.950 . S
C2809 C2808 1.327 . S
C2809 C2813 1.429 . S
C2810 C2793 1.574 . S
C2810 H2804 0.949 . S
C2810 C2814 1.368 . S
C2811 C2792 1.429 . S
C2811 C2805 1.429 . S
C2811 C2812 1.523 . S
C2812 C2793 1.368 . S
C2812 C2806 1.368 . S
C2812 C2811 1.523 . S
C2813 C2797 1.429 . S
C2813 C2809 1.429 . S
C2813 C2814 1.523 . S
C2814 C2798 1.368 . S
C2814 C2810 1.368 . S
C2814 C2813 1.523 . S
H2815 C2790 0.950 . S
H2816 C2792 0.950 . S
H2817 C2793 0.949 . S
H2818 C2795 0.950 . S
H2819 C2797 0.950 . S
C2820 C2821 1.349 . S
C2820 C2822 1.327 . S
C2820 H2845 0.950 . S
C2821 C2820 1.349 . S
C2821 C2837 1.349 . S
C2822 C2820 1.327 . S
C2822 C2841 1.429 . S
C2822 H2846 0.950 . S
C2823 C2840 1.574 . S
C2823 C2842 1.368 . S
C2823 H2847 0.949 . S
H2824 C2828 0.949 . S
C2825 C2826 1.349 . S
C2825 C2827 1.327 . S
C2825 H2848 0.950 . S
C2826 C2825 1.349 . S
C2826 C2838 1.349 . S
C2827 C2825 1.327 . S
C2827 C2843 1.429 . S
C2827 H2849 0.950 . S
C2828 H2824 0.949 . S
C2828 C2836 1.574 . S
C2828 C2844 1.368 . S
H2829 C2837 0.950 . S
H2830 C2835 0.950 . S
H2831 C2836 0.949 . S
H2832 C2838 0.950 . S
H2833 C2839 0.950 . S
H2834 C2840 0.949 . S
C2835 H2830 0.950 . S
C2835 C2837 1.327 . S
C2835 C2841 1.429 . S
C2836 C2828 1.574 . S
C2836 H2831 0.949 . S
C2836 C2842 1.368 . S
C2837 C2821 1.349 . S
C2837 H2829 0.950 . S
C2837 C2835 1.327 . S
C2838 C2826 1.349 . S
C2838 H2832 0.950 . S
C2838 C2839 1.327 . S
C2839 H2833 0.950 . S
C2839 C2838 1.327 . S
C2839 C2843 1.429 . S
C2840 C2823 1.574 . S
C2840 H2834 0.949 . S
C2840 C2844 1.368 . S
C2841 C2822 1.429 . S
C2841 C2835 1.429 . S
C2841 C2842 1.523 . S
C2842 C2823 1.368 . S
C2842 C2836 1.368 . S
C2842 C2841 1.523 . S
C2843 C2827 1.429 . S
C2843 C2839 1.429 . S
C2843 C2844 1.523 . S
C2844 C2828 1.368 . S
C2844 C2840 1.368 . S
C2844 C2843 1.523 . S
H2845 C2820 0.950 . S
H2846 C2822 0.950 . S
H2847 C2823 0.949 . S
H2848 C2825 0.950 . S
H2849 C2827 0.950 . S
C2850 C2851 1.349 . S
C2850 C2852 1.327 . S
C2850 H2875 0.950 . S
C2851 C2850 1.349 . S
C2851 C2867 1.349 . S
C2852 C2850 1.327 . S
C2852 C2871 1.429 . S
C2852 H2876 0.950 . S
C2853 C2870 1.574 . S
C2853 C2872 1.368 . S
C2853 H2877 0.949 . S
H2854 C2858 0.949 . S
C2855 C2856 1.349 . S
C2855 C2857 1.327 . S
C2855 H2878 0.950 . S
C2856 C2855 1.349 . S
C2856 C2868 1.349 . S
C2857 C2855 1.327 . S
C2857 C2873 1.429 . S
C2857 H2879 0.950 . S
C2858 H2854 0.949 . S
C2858 C2866 1.574 . S
C2858 C2874 1.368 . S
H2859 C2867 0.950 . S
H2860 C2865 0.950 . S
H2861 C2866 0.949 . S
H2862 C2868 0.950 . S
H2863 C2869 0.950 . S
H2864 C2870 0.949 . S
C2865 H2860 0.950 . S
C2865 C2867 1.327 . S
C2865 C2871 1.429 . S
C2866 C2858 1.574 . S
C2866 H2861 0.949 . S
C2866 C2872 1.368 . S
C2867 C2851 1.349 . S
C2867 H2859 0.950 . S
C2867 C2865 1.327 . S
C2868 C2856 1.349 . S
C2868 H2862 0.950 . S
C2868 C2869 1.327 . S
C2869 H2863 0.950 . S
C2869 C2868 1.327 . S
C2869 C2873 1.429 . S
C2870 C2853 1.574 . S
C2870 H2864 0.949 . S
C2870 C2874 1.368 . S
C2871 C2852 1.429 . S
C2871 C2865 1.429 . S
C2871 C2872 1.523 . S
C2872 C2853 1.368 . S
C2872 C2866 1.368 . S
C2872 C2871 1.523 . S
C2873 C2857 1.429 . S
C2873 C2869 1.429 . S
C2873 C2874 1.523 . S
C2874 C2858 1.368 . S
C2874 C2870 1.368 . S
C2874 C2873 1.523 . S
H2875 C2850 0.950 . S
H2876 C2852 0.950 . S
H2877 C2853 0.949 . S
H2878 C2855 0.950 . S
H2879 C2857 0.950 . S
C2880 C2881 1.349 . S
C2880 C2882 1.327 . S
C2880 H2905 0.950 . S
C2881 C2880 1.349 . S
C2881 C2897 1.349 . S
C2882 C2880 1.327 . S
C2882 C2901 1.429 1_565 S
C2882 H2906 0.930 1_565 S
C2883 C2900 1.574 . S
C2883 C2902 1.368 . S
C2883 H2907 0.949 . S
H2884 C2888 0.949 . S
C2885 C2886 1.349 . S
C2885 C2887 1.327 . S
C2885 H2908 0.950 . S
C2886 C2885 1.349 . S
C2886 C2898 1.349 . S
C2887 C2885 1.327 . S
C2887 C2903 1.429 . S
C2887 H2909 0.950 . S
C2888 H2884 0.949 . S
C2888 C2896 1.574 . S
C2888 C2904 1.368 . S
H2889 C2897 0.950 . S
H2890 C2895 0.950 . S
H2891 C2896 0.949 . S
H2892 C2898 0.950 . S
H2893 C2899 0.950 . S
H2894 C2900 0.949 . S
C2895 H2890 0.950 . S
C2895 C2897 1.327 1_545 S
C2895 C2901 1.429 . S
C2896 C2888 1.574 . S
C2896 H2891 0.949 . S
C2896 C2902 1.368 . S
C2897 C2881 1.349 . S
C2897 H2889 0.950 . S
C2897 C2895 1.327 1_565 S
C2898 C2886 1.349 . S
C2898 H2892 0.950 . S
C2898 C2899 1.327 . S
C2899 H2893 0.950 . S
C2899 C2898 1.327 . S
C2899 C2903 1.429 . S
C2900 C2883 1.574 . S
C2900 H2894 0.949 . S
C2900 C2904 1.368 . S
C2901 C2882 1.429 1_545 S
C2901 C2895 1.429 . S
C2901 C2902 1.523 . S
C2902 C2883 1.368 . S
C2902 C2896 1.368 . S
C2902 C2901 1.523 . S
C2903 C2887 1.429 . S
C2903 C2899 1.429 . S
C2903 C2904 1.523 . S
C2904 C2888 1.368 . S
C2904 C2900 1.368 . S
C2904 C2903 1.523 . S
H2905 C2880 0.950 . S
H2906 C2882 0.930 1_545 S
H2907 C2883 0.949 . S
H2908 C2885 0.950 . S
H2909 C2887 0.950 . S
C2910 C2911 1.349 . S
C2910 C2912 1.327 . S
C2910 H2935 0.950 . S
C2911 C2910 1.349 . S
C2911 C2927 1.349 . S
C2912 C2910 1.327 . S
C2912 C2931 1.429 . S
C2912 H2936 0.950 . S
C2913 C2930 1.574 . S
C2913 C2932 1.368 1_655 S
C2913 H2937 0.960 1_655 S
H2914 C2918 0.949 . S
C2915 C2916 1.349 . S
C2915 C2917 1.327 . S
C2915 H2938 0.950 . S
C2916 C2915 1.349 . S
C2916 C2928 1.349 . S
C2917 C2915 1.327 . S
C2917 C2933 1.429 . S
C2917 H2939 0.950 . S
C2918 H2914 0.949 . S
C2918 C2926 1.574 1_655 S
C2918 C2934 1.368 . S
H2919 C2927 0.950 . S
H2920 C2925 0.950 . S
H2921 C2926 0.949 . S
H2922 C2928 0.950 . S
H2923 C2929 0.950 . S
H2924 C2930 0.949 . S
C2925 H2920 0.950 . S
C2925 C2927 1.327 . S
C2925 C2931 1.429 . S
C2926 C2918 1.574 1_455 S
C2926 H2921 0.949 . S
C2926 C2932 1.368 . S
C2927 C2911 1.349 . S
C2927 H2919 0.950 . S
C2927 C2925 1.327 . S
C2928 C2916 1.349 . S
C2928 H2922 0.950 . S
C2928 C2929 1.327 . S
C2929 H2923 0.950 . S
C2929 C2928 1.327 . S
C2929 C2933 1.429 . S
C2930 C2913 1.574 . S
C2930 H2924 0.949 . S
C2930 C2934 1.368 . S
C2931 C2912 1.429 . S
C2931 C2925 1.429 . S
C2931 C2932 1.523 . S
C2932 C2913 1.368 1_455 S
C2932 C2926 1.368 . S
C2932 C2931 1.523 . S
C2933 C2917 1.429 . S
C2933 C2929 1.429 . S
C2933 C2934 1.523 . S
C2934 C2918 1.368 . S
C2934 C2930 1.368 . S
C2934 C2933 1.523 . S
H2935 C2910 0.950 . S
H2936 C2912 0.950 . S
H2937 C2913 0.960 1_455 S
H2938 C2915 0.950 . S
H2939 C2917 0.950 . S
C2940 C2941 1.349 . S
C2940 C2942 1.327 . S
C2940 H2965 0.950 . S
C2941 C2940 1.349 . S
C2941 C2957 1.349 . S
C2942 C2940 1.327 . S
C2942 C2961 1.429 . S
C2942 H2966 0.950 . S
C2943 C2960 1.574 . S
C2943 C2962 1.368 . S
C2943 H2967 0.949 . S
H2944 C2948 0.949 . S
C2945 C2946 1.349 . S
C2945 C2947 1.327 1_455 S
C2945 H2968 0.950 . S
C2946 C2945 1.349 . S
C2946 C2958 1.349 1_455 S
C2947 C2945 1.327 1_655 S
C2947 C2963 1.429 . S
C2947 H2969 0.950 . S
C2948 H2944 0.949 . S
C2948 C2956 1.574 . S
C2948 C2964 1.368 . S
H2949 C2957 0.950 . S
H2950 C2955 0.950 . S
H2951 C2956 0.949 . S
H2952 C2958 0.950 1_455 S
H2953 C2959 0.950 . S
H2954 C2960 0.949 . S
C2955 H2950 0.950 . S
C2955 C2957 1.327 . S
C2955 C2961 1.429 . S
C2956 C2948 1.574 . S
C2956 H2951 0.949 . S
C2956 C2962 1.368 . S
C2957 C2941 1.349 . S
C2957 H2949 0.950 . S
C2957 C2955 1.327 . S
C2958 C2946 1.349 1_655 S
C2958 H2952 0.950 1_655 S
C2958 C2959 1.327 . S
C2959 H2953 0.950 . S
C2959 C2958 1.327 . S
C2959 C2963 1.429 . S
C2960 C2943 1.574 . S
C2960 H2954 0.949 . S
C2960 C2964 1.368 . S
C2961 C2942 1.429 . S
C2961 C2955 1.429 . S
C2961 C2962 1.523 . S
C2962 C2943 1.368 . S
C2962 C2956 1.368 . S
C2962 C2961 1.523 . S
C2963 C2947 1.429 . S
C2963 C2959 1.429 . S
C2963 C2964 1.523 . S
C2964 C2948 1.368 . S
C2964 C2960 1.368 . S
C2964 C2963 1.523 . S
H2965 C2940 0.950 . S
H2966 C2942 0.950 . S
H2967 C2943 0.949 . S
H2968 C2945 0.950 . S
H2969 C2947 0.950 . S
C2970 C2971 1.349 . S
C2970 C2972 1.327 . S
C2970 H2995 0.950 . S
C2971 C2970 1.349 . S
C2971 C2987 1.349 . S
C2972 C2970 1.327 . S
C2972 C2991 1.429 . S
C2972 H2996 0.950 . S
C2973 C2990 1.574 . S
C2973 C2992 1.368 . S
C2973 H2997 0.949 . S
H2974 C2978 0.949 . S
C2975 C2976 1.349 . S
C2975 C2977 1.327 . S
C2975 H2998 0.950 . S
C2976 C2975 1.349 . S
C2976 C2988 1.349 . S
C2977 C2975 1.327 . S
C2977 C2993 1.429 . S
C2977 H2999 0.950 . S
C2978 H2974 0.949 . S
C2978 C2986 1.574 . S
C2978 C2994 1.368 . S
H2979 C2987 0.950 . S
H2980 C2985 0.950 . S
H2981 C2986 0.949 . S
H2982 C2988 0.950 . S
H2983 C2989 0.950 . S
H2984 C2990 0.949 . S
C2985 H2980 0.950 . S
C2985 C2987 1.327 . S
C2985 C2991 1.429 . S
C2986 C2978 1.574 . S
C2986 H2981 0.949 . S
C2986 C2992 1.368 . S
C2987 C2971 1.349 . S
C2987 H2979 0.950 . S
C2987 C2985 1.327 . S
C2988 C2976 1.349 . S
C2988 H2982 0.950 . S
C2988 C2989 1.327 . S
C2989 H2983 0.950 . S
C2989 C2988 1.327 . S
C2989 C2993 1.429 . S
C2990 C2973 1.574 . S
C2990 H2984 0.949 . S
C2990 C2994 1.368 . S
C2991 C2972 1.429 . S
C2991 C2985 1.429 . S
C2991 C2992 1.523 . S
C2992 C2973 1.368 . S
C2992 C2986 1.368 . S
C2992 C2991 1.523 . S
C2993 C2977 1.429 . S
C2993 C2989 1.429 . S
C2993 C2994 1.523 . S
C2994 C2978 1.368 . S
C2994 C2990 1.368 . S
C2994 C2993 1.523 . S
H2995 C2970 0.950 . S
H2996 C2972 0.950 . S
H2997 C2973 0.949 . S
H2998 C2975 0.950 . S
H2999 C2977 0.950 . S
C3000 C3001 1.349 . S
C3000 C3002 1.327 . S
C3000 H3025 0.950 . S
C3001 C3000 1.349 . S
C3001 C3017 1.349 . S
C3002 C3000 1.327 . S
C3002 C3021 1.429 . S
C3002 H3026 0.950 . S
C3003 C3020 1.574 . S
C3003 C3022 1.368 . S
C3003 H3027 0.949 . S
H3004 C3008 0.949 . S
C3005 C3006 1.349 . S
C3005 C3007 1.327 . S
C3005 H3028 0.950 . S
C3006 C3005 1.349 . S
C3006 C3018 1.349 . S
C3007 C3005 1.327 . S
C3007 C3023 1.429 . S
C3007 H3029 0.950 . S
C3008 H3004 0.949 . S
C3008 C3016 1.574 . S
C3008 C3024 1.368 . S
H3009 C3017 0.950 . S
H3010 C3015 0.950 . S
H3011 C3016 0.949 . S
H3012 C3018 0.950 . S
H3013 C3019 0.950 . S
H3014 C3020 0.949 . S
C3015 H3010 0.950 . S
C3015 C3017 1.327 . S
C3015 C3021 1.429 . S
C3016 C3008 1.574 . S
C3016 H3011 0.949 . S
C3016 C3022 1.368 . S
C3017 C3001 1.349 . S
C3017 H3009 0.950 . S
C3017 C3015 1.327 . S
C3018 C3006 1.349 . S
C3018 H3012 0.950 . S
C3018 C3019 1.327 . S
C3019 H3013 0.950 . S
C3019 C3018 1.327 . S
C3019 C3023 1.429 . S
C3020 C3003 1.574 . S
C3020 H3014 0.949 . S
C3020 C3024 1.368 . S
C3021 C3002 1.429 . S
C3021 C3015 1.429 . S
C3021 C3022 1.523 . S
C3022 C3003 1.368 . S
C3022 C3016 1.368 . S
C3022 C3021 1.523 . S
C3023 C3007 1.429 . S
C3023 C3019 1.429 . S
C3023 C3024 1.523 . S
C3024 C3008 1.368 . S
C3024 C3020 1.368 . S
C3024 C3023 1.523 . S
H3025 C3000 0.950 . S
H3026 C3002 0.950 . S
H3027 C3003 0.949 . S
H3028 C3005 0.950 . S
H3029 C3007 0.950 . S
C3030 C3031 1.349 . S
C3030 C3032 1.327 . S
C3030 H3055 0.950 . S
C3031 C3030 1.349 . S
C3031 C3047 1.349 . S
C3032 C3030 1.327 . S
C3032 C3051 1.429 . S
C3032 H3056 0.950 . S
C3033 C3050 1.574 . S
C3033 C3052 1.368 . S
C3033 H3057 0.949 . S
H3034 C3038 0.949 . S
C3035 C3036 1.349 . S
C3035 C3037 1.327 . S
C3035 H3058 0.950 . S
C3036 C3035 1.349 . S
C3036 C3048 1.349 . S
C3037 C3035 1.327 . S
C3037 C3053 1.429 . S
C3037 H3059 0.950 . S
C3038 H3034 0.949 . S
C3038 C3046 1.574 . S
C3038 C3054 1.368 . S
H3039 C3047 0.950 . S
H3040 C3045 0.950 . S
H3041 C3046 0.949 . S
H3042 C3048 0.950 . S
H3043 C3049 0.950 . S
H3044 C3050 0.949 . S
C3045 H3040 0.950 . S
C3045 C3047 1.327 . S
C3045 C3051 1.429 . S
C3046 C3038 1.574 . S
C3046 H3041 0.949 . S
C3046 C3052 1.368 . S
C3047 C3031 1.349 . S
C3047 H3039 0.950 . S
C3047 C3045 1.327 . S
C3048 C3036 1.349 . S
C3048 H3042 0.950 . S
C3048 C3049 1.327 . S
C3049 H3043 0.950 . S
C3049 C3048 1.327 . S
C3049 C3053 1.429 . S
C3050 C3033 1.574 . S
C3050 H3044 0.949 . S
C3050 C3054 1.368 . S
C3051 C3032 1.429 . S
C3051 C3045 1.429 . S
C3051 C3052 1.523 . S
C3052 C3033 1.368 . S
C3052 C3046 1.368 . S
C3052 C3051 1.523 . S
C3053 C3037 1.429 . S
C3053 C3049 1.429 . S
C3053 C3054 1.523 . S
C3054 C3038 1.368 . S
C3054 C3050 1.368 . S
C3054 C3053 1.523 . S
H3055 C3030 0.950 . S
H3056 C3032 0.950 . S
H3057 C3033 0.949 . S
H3058 C3035 0.950 . S
H3059 C3037 0.950 . S
C3060 C3061 1.349 . S
C3060 C3062 1.327 . S
C3060 H3085 0.950 . S
C3061 C3060 1.349 . S
C3061 C3077 1.349 . S
C3062 C3060 1.327 . S
C3062 C3081 1.429 . S
C3062 H3086 0.950 . S
C3063 C3080 1.574 . S
C3063 C3082 1.368 . S
C3063 H3087 0.949 . S
H3064 C3068 0.949 . S
C3065 C3066 1.349 . S
C3065 C3067 1.327 . S
C3065 H3088 0.950 . S
C3066 C3065 1.349 . S
C3066 C3078 1.349 . S
C3067 C3065 1.327 . S
C3067 C3083 1.429 . S
C3067 H3089 0.950 . S
C3068 H3064 0.949 . S
C3068 C3076 1.574 . S
C3068 C3084 1.368 . S
H3069 C3077 0.950 . S
H3070 C3075 0.950 . S
H3071 C3076 0.949 . S
H3072 C3078 0.950 . S
H3073 C3079 0.950 . S
H3074 C3080 0.949 . S
C3075 H3070 0.950 . S
C3075 C3077 1.327 . S
C3075 C3081 1.429 . S
C3076 C3068 1.574 . S
C3076 H3071 0.949 . S
C3076 C3082 1.368 . S
C3077 C3061 1.349 . S
C3077 H3069 0.950 . S
C3077 C3075 1.327 . S
C3078 C3066 1.349 . S
C3078 H3072 0.950 . S
C3078 C3079 1.327 . S
C3079 H3073 0.950 . S
C3079 C3078 1.327 . S
C3079 C3083 1.429 . S
C3080 C3063 1.574 . S
C3080 H3074 0.949 . S
C3080 C3084 1.368 . S
C3081 C3062 1.429 . S
C3081 C3075 1.429 . S
C3081 C3082 1.523 . S
C3082 C3063 1.368 . S
C3082 C3076 1.368 . S
C3082 C3081 1.523 . S
C3083 C3067 1.429 . S
C3083 C3079 1.429 . S
C3083 C3084 1.523 . S
C3084 C3068 1.368 . S
C3084 C3080 1.368 . S
C3084 C3083 1.523 . S
H3085 C3060 0.950 . S
H3086 C3062 0.950 . S
H3087 C3063 0.949 . S
H3088 C3065 0.950 . S
H3089 C3067 0.950 . S
C3090 C3091 1.349 . S
C3090 C3092 1.327 . S
C3090 H3115 0.950 . S
C3091 C3090 1.349 . S
C3091 C3107 1.349 . S
C3092 C3090 1.327 . S
C3092 C3111 1.429 . S
C3092 H3116 0.950 . S
C3093 C3110 1.574 . S
C3093 C3112 1.368 . S
C3093 H3117 0.949 . S
H3094 C3098 0.949 . S
C3095 C3096 1.349 . S
C3095 C3097 1.327 . S
C3095 H3118 0.950 . S
C3096 C3095 1.349 . S
C3096 C3108 1.349 . S
C3097 C3095 1.327 . S
C3097 C3113 1.429 . S
C3097 H3119 0.950 . S
C3098 H3094 0.949 . S
C3098 C3106 1.574 . S
C3098 C3114 1.368 . S
H3099 C3107 0.950 . S
H3100 C3105 0.950 . S
H3101 C3106 0.949 . S
H3102 C3108 0.950 . S
H3103 C3109 0.950 . S
H3104 C3110 0.949 . S
C3105 H3100 0.950 . S
C3105 C3107 1.327 . S
C3105 C3111 1.429 . S
C3106 C3098 1.574 . S
C3106 H3101 0.949 . S
C3106 C3112 1.368 . S
C3107 C3091 1.349 . S
C3107 H3099 0.950 . S
C3107 C3105 1.327 . S
C3108 C3096 1.349 . S
C3108 H3102 0.950 . S
C3108 C3109 1.327 . S
C3109 H3103 0.950 . S
C3109 C3108 1.327 . S
C3109 C3113 1.429 . S
C3110 C3093 1.574 . S
C3110 H3104 0.949 . S
C3110 C3114 1.368 . S
C3111 C3092 1.429 . S
C3111 C3105 1.429 . S
C3111 C3112 1.523 . S
C3112 C3093 1.368 . S
C3112 C3106 1.368 . S
C3112 C3111 1.523 . S
C3113 C3097 1.429 . S
C3113 C3109 1.429 . S
C3113 C3114 1.523 . S
C3114 C3098 1.368 . S
C3114 C3110 1.368 . S
C3114 C3113 1.523 . S
H3115 C3090 0.950 . S
H3116 C3092 0.950 . S
H3117 C3093 0.949 . S
H3118 C3095 0.950 . S
H3119 C3097 0.950 . S
C3120 C3121 1.349 . S
C3120 C3122 1.327 . S
C3120 H3145 0.950 . S
C3121 C3120 1.349 . S
C3121 C3137 1.349 . S
C3122 C3120 1.327 . S
C3122 C3141 1.429 . S
C3122 H3146 0.950 . S
C3123 C3140 1.574 . S
C3123 C3142 1.368 . S
C3123 H3147 0.949 . S
H3124 C3128 0.949 . S
C3125 C3126 1.349 . S
C3125 C3127 1.327 . S
C3125 H3148 0.950 . S
C3126 C3125 1.349 . S
C3126 C3138 1.349 . S
C3127 C3125 1.327 . S
C3127 C3143 1.429 . S
C3127 H3149 0.950 . S
C3128 H3124 0.949 . S
C3128 C3136 1.574 . S
C3128 C3144 1.368 . S
H3129 C3137 0.950 . S
H3130 C3135 0.950 . S
H3131 C3136 0.949 . S
H3132 C3138 0.950 . S
H3133 C3139 0.950 . S
H3134 C3140 0.949 . S
C3135 H3130 0.950 . S
C3135 C3137 1.327 . S
C3135 C3141 1.429 . S
C3136 C3128 1.574 . S
C3136 H3131 0.949 . S
C3136 C3142 1.368 . S
C3137 C3121 1.349 . S
C3137 H3129 0.950 . S
C3137 C3135 1.327 . S
C3138 C3126 1.349 . S
C3138 H3132 0.950 . S
C3138 C3139 1.327 . S
C3139 H3133 0.950 . S
C3139 C3138 1.327 . S
C3139 C3143 1.429 . S
C3140 C3123 1.574 . S
C3140 H3134 0.949 . S
C3140 C3144 1.368 . S
C3141 C3122 1.429 . S
C3141 C3135 1.429 . S
C3141 C3142 1.523 . S
C3142 C3123 1.368 . S
C3142 C3136 1.368 . S
C3142 C3141 1.523 . S
C3143 C3127 1.429 . S
C3143 C3139 1.429 . S
C3143 C3144 1.523 . S
C3144 C3128 1.368 . S
C3144 C3140 1.368 . S
C3144 C3143 1.523 . S
H3145 C3120 0.950 . S
H3146 C3122 0.950 . S
H3147 C3123 0.949 . S
H3148 C3125 0.950 . S
H3149 C3127 0.950 . S
C3150 C3151 1.349 . S
C3150 C3152 1.327 . S
C3150 H3175 0.950 . S
C3151 C3150 1.349 . S
C3151 C3167 1.349 . S
C3152 C3150 1.327 . S
C3152 C3171 1.429 . S
C3152 H3176 0.950 . S
C3153 C3170 1.574 . S
C3153 C3172 1.368 1_655 S
C3153 H3177 0.949 . S
H3154 C3158 0.949 . S
C3155 C3156 1.349 . S
C3155 C3157 1.327 . S
C3155 H3178 0.950 . S
C3156 C3155 1.349 . S
C3156 C3168 1.349 . S
C3157 C3155 1.327 . S
C3157 C3173 1.429 . S
C3157 H3179 0.950 . S
C3158 H3154 0.949 . S
C3158 C3166 1.574 1_655 S
C3158 C3174 1.368 . S
H3159 C3167 0.950 . S
H3160 C3165 0.950 . S
H3161 C3166 0.949 . S
H3162 C3168 0.950 . S
H3163 C3169 0.950 . S
H3164 C3170 0.949 . S
C3165 H3160 0.950 . S
C3165 C3167 1.327 . S
C3165 C3171 1.429 . S
C3166 C3158 1.574 1_455 S
C3166 H3161 0.949 . S
C3166 C3172 1.368 . S
C3167 C3151 1.349 . S
C3167 H3159 0.950 . S
C3167 C3165 1.327 . S
C3168 C3156 1.349 . S
C3168 H3162 0.950 . S
C3168 C3169 1.327 . S
C3169 H3163 0.950 . S
C3169 C3168 1.327 . S
C3169 C3173 1.429 . S
C3170 C3153 1.574 . S
C3170 H3164 0.949 . S
C3170 C3174 1.368 . S
C3171 C3152 1.429 . S
C3171 C3165 1.429 . S
C3171 C3172 1.523 . S
C3172 C3153 1.368 1_455 S
C3172 C3166 1.368 . S
C3172 C3171 1.523 . S
C3173 C3157 1.429 . S
C3173 C3169 1.429 . S
C3173 C3174 1.523 . S
C3174 C3158 1.368 . S
C3174 C3170 1.368 . S
C3174 C3173 1.523 . S
H3175 C3150 0.950 . S
H3176 C3152 0.950 . S
H3177 C3153 0.949 . S
H3178 C3155 0.950 . S
H3179 C3157 0.950 . S
C3180 C3181 1.349 . S
C3180 C3182 1.327 . S
C3180 H3205 0.950 . S
C3181 C3180 1.349 . S
C3181 C3197 1.349 . S
C3182 C3180 1.327 . S
C3182 C3201 1.429 . S
C3182 H3206 0.950 . S
C3183 C3200 1.574 . S
C3183 C3202 1.368 . S
C3183 H3207 0.949 . S
H3184 C3188 0.949 . S
C3185 C3186 1.349 . S
C3185 C3187 1.327 . S
C3185 H3208 0.950 . S
C3186 C3185 1.349 . S
C3186 C3198 1.349 . S
C3187 C3185 1.327 . S
C3187 C3203 1.429 . S
C3187 H3209 0.950 . S
C3188 H3184 0.949 . S
C3188 C3196 1.574 . S
C3188 C3204 1.368 . S
H3189 C3197 0.950 . S
H3190 C3195 0.950 . S
H3191 C3196 0.949 . S
H3192 C3198 0.950 . S
H3193 C3199 0.950 . S
H3194 C3200 0.949 . S
C3195 H3190 0.950 . S
C3195 C3197 1.327 . S
C3195 C3201 1.429 . S
C3196 C3188 1.574 . S
C3196 H3191 0.949 . S
C3196 C3202 1.368 . S
C3197 C3181 1.349 . S
C3197 H3189 0.950 . S
C3197 C3195 1.327 . S
C3198 C3186 1.349 . S
C3198 H3192 0.950 . S
C3198 C3199 1.327 . S
C3199 H3193 0.950 . S
C3199 C3198 1.327 . S
C3199 C3203 1.429 . S
C3200 C3183 1.574 . S
C3200 H3194 0.949 . S
C3200 C3204 1.368 . S
C3201 C3182 1.429 . S
C3201 C3195 1.429 . S
C3201 C3202 1.523 . S
C3202 C3183 1.368 . S
C3202 C3196 1.368 . S
C3202 C3201 1.523 . S
C3203 C3187 1.429 . S
C3203 C3199 1.429 . S
C3203 C3204 1.523 . S
C3204 C3188 1.368 . S
C3204 C3200 1.368 . S
C3204 C3203 1.523 . S
H3205 C3180 0.950 . S
H3206 C3182 0.950 . S
H3207 C3183 0.949 . S
H3208 C3185 0.950 . S
H3209 C3187 0.950 . S
C3210 C3211 1.349 . S
C3210 C3212 1.327 . S
C3210 H3235 0.950 . S
C3211 C3210 1.349 . S
C3211 C3227 1.349 . S
C3212 C3210 1.327 . S
C3212 C3231 1.429 1_565 S
C3212 H3236 0.950 . S
C3213 C3230 1.574 . S
C3213 C3232 1.368 . S
C3213 H3237 0.949 . S
H3214 C3218 0.949 . S
C3215 C3216 1.349 . S
C3215 C3217 1.327 1_455 S
C3215 H3238 0.950 . S
C3216 C3215 1.349 . S
C3216 C3228 1.349 . S
C3217 C3215 1.327 1_655 S
C3217 C3233 1.429 . S
C3217 H3239 0.950 . S
C3218 H3214 0.949 . S
C3218 C3226 1.574 . S
C3218 C3234 1.368 . S
H3219 C3227 0.950 . S
H3220 C3225 0.950 . S
H3221 C3226 0.949 . S
H3222 C3228 0.950 . S
H3223 C3229 0.950 . S
H3224 C3230 0.949 . S
C3225 H3220 0.950 . S
C3225 C3227 1.327 1_545 S
C3225 C3231 1.429 . S
C3226 C3218 1.574 . S
C3226 H3221 0.949 . S
C3226 C3232 1.368 . S
C3227 C3211 1.349 . S
C3227 H3219 0.950 . S
C3227 C3225 1.327 1_565 S
C3228 C3216 1.349 . S
C3228 H3222 0.950 . S
C3228 C3229 1.327 1_455 S
C3229 H3223 0.950 . S
C3229 C3228 1.327 1_655 S
C3229 C3233 1.429 . S
C3230 C3213 1.574 . S
C3230 H3224 0.949 . S
C3230 C3234 1.368 . S
C3231 C3212 1.429 1_545 S
C3231 C3225 1.429 . S
C3231 C3232 1.523 . S
C3232 C3213 1.368 . S
C3232 C3226 1.368 . S
C3232 C3231 1.523 . S
C3233 C3217 1.429 . S
C3233 C3229 1.429 . S
C3233 C3234 1.523 . S
C3234 C3218 1.368 . S
C3234 C3230 1.368 . S
C3234 C3233 1.523 . S
H3235 C3210 0.950 . S
H3236 C3212 0.950 . S
H3237 C3213 0.949 . S
H3238 C3215 0.950 . S
H3239 C3217 0.950 . S
C3240 C3241 1.349 . S
C3240 C3242 1.327 . S
C3240 H3265 0.950 . S
C3241 C3240 1.349 . S
C3241 C3257 1.349 . S
C3242 C3240 1.327 . S
C3242 C3261 1.429 . S
C3242 H3266 0.950 . S
C3243 C3260 1.574 . S
C3243 C3262 1.368 . S
C3243 H3267 0.949 . S
H3244 C3248 0.949 . S
C3245 C3246 1.349 . S
C3245 C3247 1.327 . S
C3245 H3268 0.950 . S
C3246 C3245 1.349 . S
C3246 C3258 1.349 . S
C3247 C3245 1.327 . S
C3247 C3263 1.429 . S
C3247 H3269 0.950 . S
C3248 H3244 0.949 . S
C3248 C3256 1.574 . S
C3248 C3264 1.368 . S
H3249 C3257 0.950 . S
H3250 C3255 0.950 . S
H3251 C3256 0.949 . S
H3252 C3258 0.950 . S
H3253 C3259 0.950 . S
H3254 C3260 0.949 . S
C3255 H3250 0.950 . S
C3255 C3257 1.327 . S
C3255 C3261 1.429 . S
C3256 C3248 1.574 . S
C3256 H3251 0.949 . S
C3256 C3262 1.368 . S
C3257 C3241 1.349 . S
C3257 H3249 0.950 . S
C3257 C3255 1.327 . S
C3258 C3246 1.349 . S
C3258 H3252 0.950 . S
C3258 C3259 1.327 . S
C3259 H3253 0.950 . S
C3259 C3258 1.327 . S
C3259 C3263 1.429 . S
C3260 C3243 1.574 . S
C3260 H3254 0.949 . S
C3260 C3264 1.368 . S
C3261 C3242 1.429 . S
C3261 C3255 1.429 . S
C3261 C3262 1.523 . S
C3262 C3243 1.368 . S
C3262 C3256 1.368 . S
C3262 C3261 1.523 . S
C3263 C3247 1.429 . S
C3263 C3259 1.429 . S
C3263 C3264 1.523 . S
C3264 C3248 1.368 . S
C3264 C3260 1.368 . S
C3264 C3263 1.523 . S
H3265 C3240 0.950 . S
H3266 C3242 0.950 . S
H3267 C3243 0.949 . S
H3268 C3245 0.950 . S
H3269 C3247 0.950 . S
C3270 C3271 1.349 . S
C3270 C3272 1.327 . S
C3270 H3295 0.950 . S
C3271 C3270 1.349 . S
C3271 C3287 1.349 . S
C3272 C3270 1.327 . S
C3272 C3291 1.429 . S
C3272 H3296 0.950 . S
C3273 C3290 1.574 . S
C3273 C3292 1.368 . S
C3273 H3297 0.949 . S
H3274 C3278 0.949 . S
C3275 C3276 1.349 . S
C3275 C3277 1.327 . S
C3275 H3298 0.950 . S
C3276 C3275 1.349 . S
C3276 C3288 1.349 . S
C3277 C3275 1.327 . S
C3277 C3293 1.429 . S
C3277 H3299 0.950 . S
C3278 H3274 0.949 . S
C3278 C3286 1.574 . S
C3278 C3294 1.368 . S
H3279 C3287 0.950 . S
H3280 C3285 0.950 . S
H3281 C3286 0.949 . S
H3282 C3288 0.950 . S
H3283 C3289 0.950 . S
H3284 C3290 0.949 . S
C3285 H3280 0.950 . S
C3285 C3287 1.327 . S
C3285 C3291 1.429 . S
C3286 C3278 1.574 . S
C3286 H3281 0.949 . S
C3286 C3292 1.368 . S
C3287 C3271 1.349 . S
C3287 H3279 0.950 . S
C3287 C3285 1.327 . S
C3288 C3276 1.349 . S
C3288 H3282 0.950 . S
C3288 C3289 1.327 . S
C3289 H3283 0.950 . S
C3289 C3288 1.327 . S
C3289 C3293 1.429 . S
C3290 C3273 1.574 . S
C3290 H3284 0.949 . S
C3290 C3294 1.368 . S
C3291 C3272 1.429 . S
C3291 C3285 1.429 . S
C3291 C3292 1.523 . S
C3292 C3273 1.368 . S
C3292 C3286 1.368 . S
C3292 C3291 1.523 . S
C3293 C3277 1.429 . S
C3293 C3289 1.429 . S
C3293 C3294 1.523 . S
C3294 C3278 1.368 . S
C3294 C3290 1.368 . S
C3294 C3293 1.523 . S
H3295 C3270 0.950 . S
H3296 C3272 0.950 . S
H3297 C3273 0.949 . S
H3298 C3275 0.950 . S
H3299 C3277 0.950 . S
C3300 C3301 1.349 . S
C3300 C3302 1.327 . S
C3300 H3325 0.950 . S
C3301 C3300 1.349 . S
C3301 C3317 1.349 . S
C3302 C3300 1.327 . S
C3302 C3321 1.429 . S
C3302 H3326 0.950 . S
C3303 C3320 1.574 . S
C3303 C3322 1.368 . S
C3303 H3327 0.949 . S
H3304 C3308 0.949 . S
C3305 C3306 1.349 . S
C3305 C3307 1.327 . S
C3305 H3328 0.950 . S
C3306 C3305 1.349 . S
C3306 C3318 1.349 . S
C3307 C3305 1.327 . S
C3307 C3323 1.429 . S
C3307 H3329 0.950 . S
C3308 H3304 0.949 . S
C3308 C3316 1.574 . S
C3308 C3324 1.368 . S
H3309 C3317 0.950 . S
H3310 C3315 0.950 . S
H3311 C3316 0.949 . S
H3312 C3318 0.950 . S
H3313 C3319 0.950 . S
H3314 C3320 0.949 . S
C3315 H3310 0.950 . S
C3315 C3317 1.327 . S
C3315 C3321 1.429 . S
C3316 C3308 1.574 . S
C3316 H3311 0.949 . S
C3316 C3322 1.368 . S
C3317 C3301 1.349 . S
C3317 H3309 0.950 . S
C3317 C3315 1.327 . S
C3318 C3306 1.349 . S
C3318 H3312 0.950 . S
C3318 C3319 1.327 . S
C3319 H3313 0.950 . S
C3319 C3318 1.327 . S
C3319 C3323 1.429 . S
C3320 C3303 1.574 . S
C3320 H3314 0.949 . S
C3320 C3324 1.368 . S
C3321 C3302 1.429 . S
C3321 C3315 1.429 . S
C3321 C3322 1.523 . S
C3322 C3303 1.368 . S
C3322 C3316 1.368 . S
C3322 C3321 1.523 . S
C3323 C3307 1.429 . S
C3323 C3319 1.429 . S
C3323 C3324 1.523 . S
C3324 C3308 1.368 . S
C3324 C3320 1.368 . S
C3324 C3323 1.523 . S
H3325 C3300 0.950 . S
H3326 C3302 0.950 . S
H3327 C3303 0.949 . S
H3328 C3305 0.950 . S
H3329 C3307 0.950 . S
C3330 C3331 1.349 . S
C3330 C3332 1.327 . S
C3330 H3355 0.950 . S
C3331 C3330 1.349 . S
C3331 C3347 1.349 . S
C3332 C3330 1.327 . S
C3332 C3351 1.429 . S
C3332 H3356 0.950 . S
C3333 C3350 1.574 . S
C3333 C3352 1.368 . S
C3333 H3357 0.949 . S
H3334 C3338 0.949 . S
C3335 C3336 1.349 . S
C3335 C3337 1.327 1_655 S
C3335 H3358 0.950 . S
C3336 C3335 1.349 . S
C3336 C3348 1.349 . S
C3337 C3335 1.327 1_455 S
C3337 C3353 1.429 . S
C3337 H3359 0.950 . S
C3338 H3334 0.949 . S
C3338 C3346 1.574 . S
C3338 C3354 1.368 . S
H3339 C3347 0.950 . S
H3340 C3345 0.950 . S
H3341 C3346 0.949 . S
H3342 C3348 0.950 . S
H3343 C3349 0.950 . S
H3344 C3350 0.949 . S
C3345 H3340 0.950 . S
C3345 C3347 1.327 . S
C3345 C3351 1.429 . S
C3346 C3338 1.574 . S
C3346 H3341 0.949 . S
C3346 C3352 1.368 . S
C3347 C3331 1.349 . S
C3347 H3339 0.950 . S
C3347 C3345 1.327 . S
C3348 C3336 1.349 . S
C3348 H3342 0.950 . S
C3348 C3349 1.327 . S
C3349 H3343 0.950 . S
C3349 C3348 1.327 . S
C3349 C3353 1.429 1_655 S
C3350 C3333 1.574 . S
C3350 H3344 0.949 . S
C3350 C3354 1.368 . S
C3351 C3332 1.429 . S
C3351 C3345 1.429 . S
C3351 C3352 1.523 . S
C3352 C3333 1.368 . S
C3352 C3346 1.368 . S
C3352 C3351 1.523 . S
C3353 C3337 1.429 . S
C3353 C3349 1.429 1_455 S
C3353 C3354 1.523 . S
C3354 C3338 1.368 . S
C3354 C3350 1.368 . S
C3354 C3353 1.523 . S
H3355 C3330 0.950 . S
H3356 C3332 0.950 . S
H3357 C3333 0.949 . S
H3358 C3335 0.950 . S
H3359 C3337 0.950 . S
C3360 C3361 1.349 . S
C3360 C3362 1.327 1_545 S
C3360 H3385 0.950 . S
C3361 C3360 1.349 . S
C3361 C3377 1.349 . S
C3362 C3360 1.327 1_565 S
C3362 C3381 1.429 . S
C3362 H3386 0.950 . S
C3363 C3380 1.574 . S
C3363 C3382 1.368 . S
C3363 H3387 0.949 . S
H3364 C3368 0.949 . S
C3365 C3366 1.349 . S
C3365 C3367 1.327 . S
C3365 H3388 0.950 . S
C3366 C3365 1.349 . S
C3366 C3378 1.349 . S
C3367 C3365 1.327 . S
C3367 C3383 1.429 . S
C3367 H3389 0.950 . S
C3368 H3364 0.949 . S
C3368 C3376 1.574 . S
C3368 C3384 1.368 . S
H3369 C3377 0.950 . S
H3370 C3375 0.950 . S
H3371 C3376 0.949 . S
H3372 C3378 0.950 . S
H3373 C3379 0.950 . S
H3374 C3380 0.949 . S
C3375 H3370 0.950 . S
C3375 C3377 1.327 1_565 S
C3375 C3381 1.429 . S
C3376 C3368 1.574 . S
C3376 H3371 0.949 . S
C3376 C3382 1.368 . S
C3377 C3361 1.349 . S
C3377 H3369 0.950 . S
C3377 C3375 1.327 1_545 S
C3378 C3366 1.349 . S
C3378 H3372 0.950 . S
C3378 C3379 1.327 . S
C3379 H3373 0.950 . S
C3379 C3378 1.327 . S
C3379 C3383 1.429 . S
C3380 C3363 1.574 . S
C3380 H3374 0.949 . S
C3380 C3384 1.368 . S
C3381 C3362 1.429 . S
C3381 C3375 1.429 . S
C3381 C3382 1.523 . S
C3382 C3363 1.368 . S
C3382 C3376 1.368 . S
C3382 C3381 1.523 . S
C3383 C3367 1.429 . S
C3383 C3379 1.429 . S
C3383 C3384 1.523 . S
C3384 C3368 1.368 . S
C3384 C3380 1.368 . S
C3384 C3383 1.523 . S
H3385 C3360 0.950 . S
H3386 C3362 0.950 . S
H3387 C3363 0.949 . S
H3388 C3365 0.950 . S
H3389 C3367 0.950 . S
C3390 C3391 1.349 . S
C3390 C3392 1.327 . S
C3390 H3415 0.950 . S
C3391 C3390 1.349 . S
C3391 C3407 1.349 . S
C3392 C3390 1.327 . S
C3392 C3411 1.429 . S
C3392 H3416 0.950 . S
C3393 C3410 1.574 1_545 S
C3393 C3412 1.368 . S
C3393 H3417 0.949 . S
H3394 C3398 0.949 . S
C3395 C3396 1.349 . S
C3395 C3397 1.327 . S
C3395 H3418 0.950 . S
C3396 C3395 1.349 . S
C3396 C3408 1.349 . S
C3397 C3395 1.327 . S
C3397 C3413 1.429 . S
C3397 H3419 0.950 . S
C3398 H3394 0.949 . S
C3398 C3406 1.579 . S
C3398 C3414 1.368 . S
H3399 C3407 0.950 . S
H3400 C3405 0.950 . S
H3401 C3406 0.952 1_545 S
H3402 C3408 0.950 . S
H3403 C3409 0.950 . S
H3404 C3410 0.949 . S
C3405 H3400 0.950 . S
C3405 C3407 1.327 . S
C3405 C3411 1.429 . S
C3406 C3398 1.579 . S
C3406 H3401 0.952 1_565 S
C3406 C3412 1.359 1_565 S
C3407 C3391 1.349 . S
C3407 H3399 0.950 . S
C3407 C3405 1.327 . S
C3408 C3396 1.349 . S
C3408 H3402 0.950 . S
C3408 C3409 1.327 . S
C3409 H3403 0.950 . S
C3409 C3408 1.327 . S
C3409 C3413 1.429 . S
C3410 C3393 1.574 1_565 S
C3410 H3404 0.949 . S
C3410 C3414 1.368 . S
C3411 C3392 1.429 . S
C3411 C3405 1.429 . S
C3411 C3412 1.523 . S
C3412 C3393 1.368 . S
C3412 C3406 1.359 1_545 S
C3412 C3411 1.523 . S
C3413 C3397 1.429 . S
C3413 C3409 1.429 . S
C3413 C3414 1.523 . S
C3414 C3398 1.368 . S
C3414 C3410 1.368 . S
C3414 C3413 1.523 . S
H3415 C3390 0.950 . S
H3416 C3392 0.950 . S
H3417 C3393 0.949 . S
H3418 C3395 0.950 . S
H3419 C3397 0.950 . S
C3420 C3421 1.349 . S
C3420 C3422 1.327 . S
C3420 H3445 0.950 . S
C3421 C3420 1.349 . S
C3421 C3437 1.349 . S
C3422 C3420 1.327 . S
C3422 C3441 1.429 . S
C3422 H3446 0.950 . S
C3423 C3440 1.574 . S
C3423 C3442 1.368 . S
C3423 H3447 0.949 . S
H3424 C3428 0.949 . S
C3425 C3426 1.349 . S
C3425 C3427 1.327 . S
C3425 H3448 0.950 . S
C3426 C3425 1.349 . S
C3426 C3438 1.349 . S
C3427 C3425 1.327 . S
C3427 C3443 1.429 . S
C3427 H3449 0.950 . S
C3428 H3424 0.949 . S
C3428 C3436 1.574 1_545 S
C3428 C3444 1.368 . S
H3429 C3437 0.950 . S
H3430 C3435 0.950 . S
H3431 C3436 0.949 . S
H3432 C3438 0.950 . S
H3433 C3439 0.950 . S
H3434 C3440 0.944 1_545 S
C3435 H3430 0.950 . S
C3435 C3437 1.327 . S
C3435 C3441 1.429 . S
C3436 C3428 1.574 1_565 S
C3436 H3431 0.949 . S
C3436 C3442 1.368 . S
C3437 C3421 1.349 . S
C3437 H3429 0.950 . S
C3437 C3435 1.327 . S
C3438 C3426 1.349 . S
C3438 H3432 0.950 . S
C3438 C3439 1.327 . S
C3439 H3433 0.950 . S
C3439 C3438 1.327 . S
C3439 C3443 1.429 . S
C3440 C3423 1.574 . S
C3440 H3434 0.944 1_565 S
C3440 C3444 1.368 1_565 S
C3441 C3422 1.429 . S
C3441 C3435 1.429 . S
C3441 C3442 1.523 . S
C3442 C3423 1.368 . S
C3442 C3436 1.368 . S
C3442 C3441 1.523 . S
C3443 C3427 1.429 . S
C3443 C3439 1.429 . S
C3443 C3444 1.523 . S
C3444 C3428 1.368 . S
C3444 C3440 1.368 1_545 S
C3444 C3443 1.523 . S
H3445 C3420 0.950 . S
H3446 C3422 0.950 . S
H3447 C3423 0.949 . S
H3448 C3425 0.950 . S
H3449 C3427 0.950 . S
C3450 C3451 1.349 . S
C3450 C3452 1.327 1_545 S
C3450 H3475 0.950 . S
C3451 C3450 1.349 . S
C3451 C3467 1.327 1_545 S
C3452 C3450 1.327 1_565 S
C3452 C3471 1.429 . S
C3452 H3476 0.950 . S
C3453 C3470 1.574 . S
C3453 C3472 1.368 . S
C3453 H3477 0.949 . S
H3454 C3458 0.949 . S
C3455 C3456 1.349 . S
C3455 C3457 1.327 1_655 S
C3455 H3478 0.950 . S
C3456 C3455 1.349 . S
C3456 C3468 1.349 . S
C3457 C3455 1.327 1_455 S
C3457 C3473 1.429 . S
C3457 H3479 0.950 . S
C3458 H3454 0.949 . S
C3458 C3466 1.574 . S
C3458 C3474 1.368 . S
H3459 C3467 0.951 1_545 S
H3460 C3465 0.950 . S
H3461 C3466 0.949 . S
H3462 C3468 0.950 . S
H3463 C3469 0.950 . S
H3464 C3470 0.949 . S
C3465 H3460 0.950 . S
C3465 C3467 1.349 . S
C3465 C3471 1.429 . S
C3466 C3458 1.574 . S
C3466 H3461 0.949 . S
C3466 C3472 1.368 . S
C3467 C3451 1.327 1_565 S
C3467 H3459 0.951 1_565 S
C3467 C3465 1.349 . S
C3468 C3456 1.349 . S
C3468 H3462 0.950 . S
C3468 C3469 1.327 . S
C3469 H3463 0.950 . S
C3469 C3468 1.327 . S
C3469 C3473 1.429 1_655 S
C3470 C3453 1.574 . S
C3470 H3464 0.949 . S
C3470 C3474 1.368 . S
C3471 C3452 1.429 . S
C3471 C3465 1.429 . S
C3471 C3472 1.523 . S
C3472 C3453 1.368 . S
C3472 C3466 1.368 . S
C3472 C3471 1.523 . S
C3473 C3457 1.429 . S
C3473 C3469 1.429 1_455 S
C3473 C3474 1.523 . S
C3474 C3458 1.368 . S
C3474 C3470 1.368 . S
C3474 C3473 1.523 . S
H3475 C3450 0.950 . S
H3476 C3452 0.950 . S
H3477 C3453 0.949 . S
H3478 C3455 0.950 . S
H3479 C3457 0.950 . S
C3480 C3481 1.349 . S
C3480 C3482 1.327 . S
C3480 H3505 0.950 . S
C3481 C3480 1.349 . S
C3481 C3497 1.349 . S
C3482 C3480 1.327 . S
C3482 C3501 1.429 . S
C3482 H3506 0.950 . S
C3483 C3500 1.574 . S
C3483 C3502 1.368 . S
C3483 H3507 0.949 . S
H3484 C3488 0.949 . S
C3485 C3486 1.349 . S
C3485 C3487 1.327 . S
C3485 H3508 0.950 . S
C3486 C3485 1.349 . S
C3486 C3498 1.349 . S
C3487 C3485 1.327 . S
C3487 C3503 1.429 . S
C3487 H3509 0.950 . S
C3488 H3484 0.949 . S
C3488 C3496 1.574 . S
C3488 C3504 1.368 . S
H3489 C3497 0.950 . S
H3490 C3495 0.950 . S
H3491 C3496 0.949 . S
H3492 C3498 0.950 . S
H3493 C3499 0.950 . S
H3494 C3500 0.949 . S
C3495 H3490 0.950 . S
C3495 C3497 1.327 . S
C3495 C3501 1.429 . S
C3496 C3488 1.574 . S
C3496 H3491 0.949 . S
C3496 C3502 1.368 . S
C3497 C3481 1.349 . S
C3497 H3489 0.950 . S
C3497 C3495 1.327 . S
C3498 C3486 1.349 . S
C3498 H3492 0.950 . S
C3498 C3499 1.327 . S
C3499 H3493 0.950 . S
C3499 C3498 1.327 . S
C3499 C3503 1.429 . S
C3500 C3483 1.574 . S
C3500 H3494 0.949 . S
C3500 C3504 1.368 . S
C3501 C3482 1.429 . S
C3501 C3495 1.429 . S
C3501 C3502 1.523 . S
C3502 C3483 1.368 . S
C3502 C3496 1.368 . S
C3502 C3501 1.523 . S
C3503 C3487 1.429 . S
C3503 C3499 1.429 . S
C3503 C3504 1.523 . S
C3504 C3488 1.368 . S
C3504 C3500 1.368 . S
C3504 C3503 1.523 . S
H3505 C3480 0.950 . S
H3506 C3482 0.950 . S
H3507 C3483 0.949 . S
H3508 C3485 0.950 . S
H3509 C3487 0.950 . S
C3510 C3511 1.349 . S
C3510 C3512 1.327 . S
C3510 H3535 0.950 . S
C3511 C3510 1.349 . S
C3511 C3527 1.349 . S
C3512 C3510 1.327 . S
C3512 C3531 1.429 . S
C3512 H3536 0.950 . S
C3513 C3530 1.574 . S
C3513 C3532 1.368 . S
C3513 H3537 0.949 . S
H3514 C3518 0.949 . S
C3515 C3516 1.349 . S
C3515 C3517 1.327 . S
C3515 H3538 0.950 . S
C3516 C3515 1.349 . S
C3516 C3528 1.349 . S
C3517 C3515 1.327 . S
C3517 C3533 1.429 . S
C3517 H3539 0.950 . S
C3518 H3514 0.949 . S
C3518 C3526 1.574 . S
C3518 C3534 1.368 . S
H3519 C3527 0.950 . S
H3520 C3525 0.950 . S
H3521 C3526 0.949 . S
H3522 C3528 0.950 . S
H3523 C3529 0.950 . S
H3524 C3530 0.949 . S
C3525 H3520 0.950 . S
C3525 C3527 1.327 . S
C3525 C3531 1.429 . S
C3526 C3518 1.574 . S
C3526 H3521 0.949 . S
C3526 C3532 1.368 . S
C3527 C3511 1.349 . S
C3527 H3519 0.950 . S
C3527 C3525 1.327 . S
C3528 C3516 1.349 . S
C3528 H3522 0.950 . S
C3528 C3529 1.327 . S
C3529 H3523 0.950 . S
C3529 C3528 1.327 . S
C3529 C3533 1.429 . S
C3530 C3513 1.574 . S
C3530 H3524 0.949 . S
C3530 C3534 1.368 . S
C3531 C3512 1.429 . S
C3531 C3525 1.429 . S
C3531 C3532 1.523 . S
C3532 C3513 1.368 . S
C3532 C3526 1.368 . S
C3532 C3531 1.523 . S
C3533 C3517 1.429 . S
C3533 C3529 1.429 . S
C3533 C3534 1.523 . S
C3534 C3518 1.368 . S
C3534 C3530 1.368 . S
C3534 C3533 1.523 . S
H3535 C3510 0.950 . S
H3536 C3512 0.950 . S
H3537 C3513 0.949 . S
H3538 C3515 0.950 . S
H3539 C3517 0.950 . S
C3540 C3541 1.349 . S
C3540 C3542 1.327 . S
C3540 H3565 0.950 . S
C3541 C3540 1.349 . S
C3541 C3557 1.349 . S
C3542 C3540 1.327 . S
C3542 C3561 1.429 . S
C3542 H3566 0.950 . S
C3543 C3560 1.574 . S
C3543 C3562 1.368 . S
C3543 H3567 0.949 . S
H3544 C3548 0.949 . S
C3545 C3546 1.349 . S
C3545 C3547 1.327 . S
C3545 H3568 0.950 . S
C3546 C3545 1.349 . S
C3546 C3558 1.349 . S
C3547 C3545 1.327 . S
C3547 C3563 1.429 . S
C3547 H3569 0.950 . S
C3548 H3544 0.949 . S
C3548 C3556 1.574 . S
C3548 C3564 1.368 . S
H3549 C3557 0.950 . S
H3550 C3555 0.950 . S
H3551 C3556 0.949 . S
H3552 C3558 0.950 . S
H3553 C3559 0.950 . S
H3554 C3560 0.949 . S
C3555 H3550 0.950 . S
C3555 C3557 1.327 . S
C3555 C3561 1.429 . S
C3556 C3548 1.574 . S
C3556 H3551 0.949 . S
C3556 C3562 1.368 . S
C3557 C3541 1.349 . S
C3557 H3549 0.950 . S
C3557 C3555 1.327 . S
C3558 C3546 1.349 . S
C3558 H3552 0.950 . S
C3558 C3559 1.327 . S
C3559 H3553 0.950 . S
C3559 C3558 1.327 . S
C3559 C3563 1.429 . S
C3560 C3543 1.574 . S
C3560 H3554 0.949 . S
C3560 C3564 1.368 . S
C3561 C3542 1.429 . S
C3561 C3555 1.429 . S
C3561 C3562 1.523 . S
C3562 C3543 1.368 . S
C3562 C3556 1.368 . S
C3562 C3561 1.523 . S
C3563 C3547 1.429 . S
C3563 C3559 1.429 . S
C3563 C3564 1.523 . S
C3564 C3548 1.368 . S
C3564 C3560 1.368 . S
C3564 C3563 1.523 . S
H3565 C3540 0.950 . S
H3566 C3542 0.950 . S
H3567 C3543 0.949 . S
H3568 C3545 0.950 . S
H3569 C3547 0.950 . S
C3570 C3571 1.349 . S
C3570 C3572 1.327 . S
C3570 H3595 0.950 . S
C3571 C3570 1.349 . S
C3571 C3587 1.349 . S
C3572 C3570 1.327 . S
C3572 C3591 1.429 . S
C3572 H3596 0.950 . S
C3573 C3590 1.574 . S
C3573 C3592 1.368 . S
C3573 H3597 0.949 . S
H3574 C3578 0.949 . S
C3575 C3576 1.349 . S
C3575 C3577 1.327 . S
C3575 H3598 0.950 . S
C3576 C3575 1.349 . S
C3576 C3588 1.349 . S
C3577 C3575 1.327 . S
C3577 C3593 1.429 . S
C3577 H3599 0.950 . S
C3578 H3574 0.949 . S
C3578 C3586 1.574 . S
C3578 C3594 1.368 . S
H3579 C3587 0.950 . S
H3580 C3585 0.950 . S
H3581 C3586 0.949 . S
H3582 C3588 0.950 . S
H3583 C3589 0.950 . S
H3584 C3590 0.949 . S
C3585 H3580 0.950 . S
C3585 C3587 1.327 . S
C3585 C3591 1.429 . S
C3586 C3578 1.574 . S
C3586 H3581 0.949 . S
C3586 C3592 1.368 . S
C3587 C3571 1.349 . S
C3587 H3579 0.950 . S
C3587 C3585 1.327 . S
C3588 C3576 1.349 . S
C3588 H3582 0.950 . S
C3588 C3589 1.327 . S
C3589 H3583 0.950 . S
C3589 C3588 1.327 . S
C3589 C3593 1.429 . S
C3590 C3573 1.574 . S
C3590 H3584 0.949 . S
C3590 C3594 1.368 . S
C3591 C3572 1.429 . S
C3591 C3585 1.429 . S
C3591 C3592 1.523 . S
C3592 C3573 1.368 . S
C3592 C3586 1.368 . S
C3592 C3591 1.523 . S
C3593 C3577 1.429 . S
C3593 C3589 1.429 . S
C3593 C3594 1.523 . S
C3594 C3578 1.368 . S
C3594 C3590 1.368 . S
C3594 C3593 1.523 . S
H3595 C3570 0.950 . S
H3596 C3572 0.950 . S
H3597 C3573 0.949 . S
H3598 C3575 0.950 . S
H3599 C3577 0.950 . S
C3600 C3601 1.349 . S
C3600 C3602 1.327 . S
C3600 H3625 0.950 . S
C3601 C3600 1.349 . S
C3601 C3617 1.349 . S
C3602 C3600 1.327 . S
C3602 C3621 1.429 . S
C3602 H3626 0.950 . S
C3603 C3620 1.574 . S
C3603 C3622 1.368 . S
C3603 H3627 0.949 . S
H3604 C3608 0.949 . S
C3605 C3606 1.349 . S
C3605 C3607 1.327 . S
C3605 H3628 0.950 . S
C3606 C3605 1.349 . S
C3606 C3618 1.349 . S
C3607 C3605 1.327 . S
C3607 C3623 1.429 . S
C3607 H3629 0.950 . S
C3608 H3604 0.949 . S
C3608 C3616 1.574 . S
C3608 C3624 1.368 . S
H3609 C3617 0.950 . S
H3610 C3615 0.950 . S
H3611 C3616 0.949 . S
H3612 C3618 0.950 . S
H3613 C3619 0.950 . S
H3614 C3620 0.949 . S
C3615 H3610 0.950 . S
C3615 C3617 1.327 . S
C3615 C3621 1.429 . S
C3616 C3608 1.574 . S
C3616 H3611 0.949 . S
C3616 C3622 1.368 . S
C3617 C3601 1.349 . S
C3617 H3609 0.950 . S
C3617 C3615 1.327 . S
C3618 C3606 1.349 . S
C3618 H3612 0.950 . S
C3618 C3619 1.327 . S
C3619 H3613 0.950 . S
C3619 C3618 1.327 . S
C3619 C3623 1.429 . S
C3620 C3603 1.574 . S
C3620 H3614 0.949 . S
C3620 C3624 1.368 . S
C3621 C3602 1.429 . S
C3621 C3615 1.429 . S
C3621 C3622 1.523 . S
C3622 C3603 1.368 . S
C3622 C3616 1.368 . S
C3622 C3621 1.523 . S
C3623 C3607 1.429 . S
C3623 C3619 1.429 . S
C3623 C3624 1.523 . S
C3624 C3608 1.368 . S
C3624 C3620 1.368 . S
C3624 C3623 1.523 . S
H3625 C3600 0.950 . S
H3626 C3602 0.950 . S
H3627 C3603 0.949 . S
H3628 C3605 0.950 . S
H3629 C3607 0.950 . S
C3630 C3631 1.349 . S
C3630 C3632 1.327 . S
C3630 H3655 0.950 . S
C3631 C3630 1.349 . S
C3631 C3647 1.349 . S
C3632 C3630 1.327 . S
C3632 C3651 1.429 . S
C3632 H3656 0.950 . S
C3633 C3650 1.574 . S
C3633 C3652 1.368 . S
C3633 H3657 0.949 . S
H3634 C3638 0.949 . S
C3635 C3636 1.349 . S
C3635 C3637 1.327 . S
C3635 H3658 0.950 . S
C3636 C3635 1.349 . S
C3636 C3648 1.349 . S
C3637 C3635 1.327 . S
C3637 C3653 1.429 . S
C3637 H3659 0.950 . S
C3638 H3634 0.949 . S
C3638 C3646 1.574 . S
C3638 C3654 1.368 . S
H3639 C3647 0.950 . S
H3640 C3645 0.950 . S
H3641 C3646 0.949 . S
H3642 C3648 0.950 . S
H3643 C3649 0.950 . S
H3644 C3650 0.949 . S
C3645 H3640 0.950 . S
C3645 C3647 1.327 . S
C3645 C3651 1.429 . S
C3646 C3638 1.574 . S
C3646 H3641 0.949 . S
C3646 C3652 1.368 . S
C3647 C3631 1.349 . S
C3647 H3639 0.950 . S
C3647 C3645 1.327 . S
C3648 C3636 1.349 . S
C3648 H3642 0.950 . S
C3648 C3649 1.327 . S
C3649 H3643 0.950 . S
C3649 C3648 1.327 . S
C3649 C3653 1.429 . S
C3650 C3633 1.574 . S
C3650 H3644 0.949 . S
C3650 C3654 1.368 . S
C3651 C3632 1.429 . S
C3651 C3645 1.429 . S
C3651 C3652 1.523 . S
C3652 C3633 1.368 . S
C3652 C3646 1.368 . S
C3652 C3651 1.523 . S
C3653 C3637 1.429 . S
C3653 C3649 1.429 . S
C3653 C3654 1.523 . S
C3654 C3638 1.368 . S
C3654 C3650 1.368 . S
C3654 C3653 1.523 . S
H3655 C3630 0.950 . S
H3656 C3632 0.950 . S
H3657 C3633 0.949 . S
H3658 C3635 0.950 . S
H3659 C3637 0.950 . S
C3660 C3661 1.349 . S
C3660 C3662 1.327 . S
C3660 H3685 0.950 . S
C3661 C3660 1.349 . S
C3661 C3677 1.349 . S
C3662 C3660 1.327 . S
C3662 C3681 1.429 . S
C3662 H3686 0.950 . S
C3663 C3680 1.574 . S
C3663 C3682 1.368 . S
C3663 H3687 0.949 . S
H3664 C3668 0.949 . S
C3665 C3666 1.349 . S
C3665 C3667 1.327 . S
C3665 H3688 0.950 . S
C3666 C3665 1.349 . S
C3666 C3678 1.349 . S
C3667 C3665 1.327 . S
C3667 C3683 1.429 . S
C3667 H3689 0.950 . S
C3668 H3664 0.949 . S
C3668 C3676 1.574 . S
C3668 C3684 1.368 . S
H3669 C3677 0.950 . S
H3670 C3675 0.950 . S
H3671 C3676 0.949 . S
H3672 C3678 0.950 . S
H3673 C3679 0.950 . S
H3674 C3680 0.949 . S
C3675 H3670 0.950 . S
C3675 C3677 1.327 . S
C3675 C3681 1.429 . S
C3676 C3668 1.574 . S
C3676 H3671 0.949 . S
C3676 C3682 1.368 . S
C3677 C3661 1.349 . S
C3677 H3669 0.950 . S
C3677 C3675 1.327 . S
C3678 C3666 1.349 . S
C3678 H3672 0.950 . S
C3678 C3679 1.327 . S
C3679 H3673 0.950 . S
C3679 C3678 1.327 . S
C3679 C3683 1.429 . S
C3680 C3663 1.574 . S
C3680 H3674 0.949 . S
C3680 C3684 1.368 . S
C3681 C3662 1.429 . S
C3681 C3675 1.429 . S
C3681 C3682 1.523 . S
C3682 C3663 1.368 . S
C3682 C3676 1.368 . S
C3682 C3681 1.523 . S
C3683 C3667 1.429 . S
C3683 C3679 1.429 . S
C3683 C3684 1.523 . S
C3684 C3668 1.368 . S
C3684 C3680 1.368 . S
C3684 C3683 1.523 . S
H3685 C3660 0.950 . S
H3686 C3662 0.950 . S
H3687 C3663 0.949 . S
H3688 C3665 0.950 . S
H3689 C3667 0.950 . S
C3690 C3691 1.349 . S
C3690 C3692 1.327 . S
C3690 H3715 0.950 . S
C3691 C3690 1.349 . S
C3691 C3707 1.349 . S
C3692 C3690 1.327 . S
C3692 C3711 1.429 . S
C3692 H3716 0.950 . S
C3693 C3710 1.574 . S
C3693 C3712 1.368 . S
C3693 H3717 0.949 . S
H3694 C3698 0.949 . S
C3695 C3696 1.349 . S
C3695 C3697 1.327 . S
C3695 H3718 0.950 . S
C3696 C3695 1.349 . S
C3696 C3708 1.349 . S
C3697 C3695 1.327 . S
C3697 C3713 1.429 . S
C3697 H3719 0.950 . S
C3698 H3694 0.949 . S
C3698 C3706 1.574 . S
C3698 C3714 1.368 . S
H3699 C3707 0.950 . S
H3700 C3705 0.950 . S
H3701 C3706 0.949 . S
H3702 C3708 0.950 . S
H3703 C3709 0.950 . S
H3704 C3710 0.949 . S
C3705 H3700 0.950 . S
C3705 C3707 1.327 . S
C3705 C3711 1.429 . S
C3706 C3698 1.574 . S
C3706 H3701 0.949 . S
C3706 C3712 1.368 . S
C3707 C3691 1.349 . S
C3707 H3699 0.950 . S
C3707 C3705 1.327 . S
C3708 C3696 1.349 . S
C3708 H3702 0.950 . S
C3708 C3709 1.327 . S
C3709 H3703 0.950 . S
C3709 C3708 1.327 . S
C3709 C3713 1.429 . S
C3710 C3693 1.574 . S
C3710 H3704 0.949 . S
C3710 C3714 1.368 . S
C3711 C3692 1.429 . S
C3711 C3705 1.429 . S
C3711 C3712 1.523 . S
C3712 C3693 1.368 . S
C3712 C3706 1.368 . S
C3712 C3711 1.523 . S
C3713 C3697 1.429 . S
C3713 C3709 1.429 . S
C3713 C3714 1.523 . S
C3714 C3698 1.368 . S
C3714 C3710 1.368 . S
C3714 C3713 1.523 . S
H3715 C3690 0.950 . S
H3716 C3692 0.950 . S
H3717 C3693 0.949 . S
H3718 C3695 0.950 . S
H3719 C3697 0.950 . S
C3720 C3721 1.349 . S
C3720 C3722 1.327 . S
C3720 H3745 0.950 . S
C3721 C3720 1.349 . S
C3721 C3737 1.349 . S
C3722 C3720 1.327 . S
C3722 C3741 1.429 . S
C3722 H3746 0.950 . S
C3723 C3740 1.574 . S
C3723 C3742 1.368 . S
C3723 H3747 0.949 . S
H3724 C3728 0.949 . S
C3725 C3726 1.349 . S
C3725 C3727 1.327 . S
C3725 H3748 0.950 . S
C3726 C3725 1.349 . S
C3726 C3738 1.349 . S
C3727 C3725 1.327 . S
C3727 C3743 1.429 . S
C3727 H3749 0.950 . S
C3728 H3724 0.949 . S
C3728 C3736 1.574 . S
C3728 C3744 1.368 . S
H3729 C3737 0.950 . S
H3730 C3735 0.950 . S
H3731 C3736 0.949 . S
H3732 C3738 0.950 . S
H3733 C3739 0.950 . S
H3734 C3740 0.949 . S
C3735 H3730 0.950 . S
C3735 C3737 1.327 . S
C3735 C3741 1.429 . S
C3736 C3728 1.574 . S
C3736 H3731 0.949 . S
C3736 C3742 1.368 . S
C3737 C3721 1.349 . S
C3737 H3729 0.950 . S
C3737 C3735 1.327 . S
C3738 C3726 1.349 . S
C3738 H3732 0.950 . S
C3738 C3739 1.327 . S
C3739 H3733 0.950 . S
C3739 C3738 1.327 . S
C3739 C3743 1.429 . S
C3740 C3723 1.574 . S
C3740 H3734 0.949 . S
C3740 C3744 1.368 . S
C3741 C3722 1.429 . S
C3741 C3735 1.429 . S
C3741 C3742 1.523 . S
C3742 C3723 1.368 . S
C3742 C3736 1.368 . S
C3742 C3741 1.523 . S
C3743 C3727 1.429 . S
C3743 C3739 1.429 . S
C3743 C3744 1.523 . S
C3744 C3728 1.368 . S
C3744 C3740 1.368 . S
C3744 C3743 1.523 . S
H3745 C3720 0.950 . S
H3746 C3722 0.950 . S
H3747 C3723 0.949 . S
H3748 C3725 0.950 . S
H3749 C3727 0.950 . S
C3750 C3751 1.349 . S
C3750 C3752 1.327 . S
C3750 H3775 0.950 . S
C3751 C3750 1.349 . S
C3751 C3767 1.349 . S
C3752 C3750 1.327 . S
C3752 C3771 1.429 . S
C3752 H3776 0.950 . S
C3753 C3770 1.574 . S
C3753 C3772 1.368 . S
C3753 H3777 0.949 . S
H3754 C3758 0.949 . S
C3755 C3756 1.349 . S
C3755 C3757 1.327 . S
C3755 H3778 0.950 . S
C3756 C3755 1.349 . S
C3756 C3768 1.349 . S
C3757 C3755 1.327 . S
C3757 C3773 1.429 . S
C3757 H3779 0.950 . S
C3758 H3754 0.949 . S
C3758 C3766 1.574 . S
C3758 C3774 1.368 . S
H3759 C3767 0.950 . S
H3760 C3765 0.950 . S
H3761 C3766 0.949 . S
H3762 C3768 0.950 . S
H3763 C3769 0.950 . S
H3764 C3770 0.949 . S
C3765 H3760 0.950 . S
C3765 C3767 1.327 . S
C3765 C3771 1.429 . S
C3766 C3758 1.574 . S
C3766 H3761 0.949 . S
C3766 C3772 1.368 . S
C3767 C3751 1.349 . S
C3767 H3759 0.950 . S
C3767 C3765 1.327 . S
C3768 C3756 1.349 . S
C3768 H3762 0.950 . S
C3768 C3769 1.327 . S
C3769 H3763 0.950 . S
C3769 C3768 1.327 . S
C3769 C3773 1.429 . S
C3770 C3753 1.574 . S
C3770 H3764 0.949 . S
C3770 C3774 1.368 . S
C3771 C3752 1.429 . S
C3771 C3765 1.429 . S
C3771 C3772 1.523 . S
C3772 C3753 1.368 . S
C3772 C3766 1.368 . S
C3772 C3771 1.523 . S
C3773 C3757 1.429 . S
C3773 C3769 1.429 . S
C3773 C3774 1.523 . S
C3774 C3758 1.368 . S
C3774 C3770 1.368 . S
C3774 C3773 1.523 . S
H3775 C3750 0.950 . S
H3776 C3752 0.950 . S
H3777 C3753 0.949 . S
H3778 C3755 0.950 . S
H3779 C3757 0.950 . S
C3780 C3781 1.349 . S
C3780 C3782 1.327 . S
C3780 H3805 0.950 . S
C3781 C3780 1.349 . S
C3781 C3797 1.349 . S
C3782 C3780 1.327 . S
C3782 C3801 1.429 . S
C3782 H3806 0.950 . S
C3783 C3800 1.574 . S
C3783 C3802 1.368 . S
C3783 H3807 0.949 . S
H3784 C3788 0.949 . S
C3785 C3786 1.349 . S
C3785 C3787 1.327 . S
C3785 H3808 0.950 . S
C3786 C3785 1.349 . S
C3786 C3798 1.349 . S
C3787 C3785 1.327 . S
C3787 C3803 1.429 . S
C3787 H3809 0.950 . S
C3788 H3784 0.949 . S
C3788 C3796 1.574 . S
C3788 C3804 1.368 . S
H3789 C3797 0.950 . S
H3790 C3795 0.950 . S
H3791 C3796 0.949 . S
H3792 C3798 0.950 . S
H3793 C3799 0.950 . S
H3794 C3800 0.949 . S
C3795 H3790 0.950 . S
C3795 C3797 1.327 . S
C3795 C3801 1.429 . S
C3796 C3788 1.574 . S
C3796 H3791 0.949 . S
C3796 C3802 1.368 . S
C3797 C3781 1.349 . S
C3797 H3789 0.950 . S
C3797 C3795 1.327 . S
C3798 C3786 1.349 . S
C3798 H3792 0.950 . S
C3798 C3799 1.327 . S
C3799 H3793 0.950 . S
C3799 C3798 1.327 . S
C3799 C3803 1.429 . S
C3800 C3783 1.574 . S
C3800 H3794 0.949 . S
C3800 C3804 1.368 . S
C3801 C3782 1.429 . S
C3801 C3795 1.429 . S
C3801 C3802 1.523 . S
C3802 C3783 1.368 . S
C3802 C3796 1.368 . S
C3802 C3801 1.523 . S
C3803 C3787 1.429 . S
C3803 C3799 1.429 . S
C3803 C3804 1.523 . S
C3804 C3788 1.368 . S
C3804 C3800 1.368 . S
C3804 C3803 1.523 . S
H3805 C3780 0.950 . S
H3806 C3782 0.950 . S
H3807 C3783 0.949 . S
H3808 C3785 0.950 . S
H3809 C3787 0.950 . S
C3810 C3811 1.349 . S
C3810 C3812 1.327 . S
C3810 H3835 0.950 . S
C3811 C3810 1.349 . S
C3811 C3827 1.349 . S
C3812 C3810 1.327 . S
C3812 C3831 1.429 . S
C3812 H3836 0.950 . S
C3813 C3830 1.574 . S
C3813 C3832 1.368 . S
C3813 H3837 0.949 . S
H3814 C3818 0.949 . S
C3815 C3816 1.349 . S
C3815 C3817 1.327 . S
C3815 H3838 0.950 . S
C3816 C3815 1.349 . S
C3816 C3828 1.349 . S
C3817 C3815 1.327 . S
C3817 C3833 1.429 . S
C3817 H3839 0.950 . S
C3818 H3814 0.949 . S
C3818 C3826 1.574 . S
C3818 C3834 1.368 . S
H3819 C3827 0.950 . S
H3820 C3825 0.950 . S
H3821 C3826 0.949 . S
H3822 C3828 0.950 . S
H3823 C3829 0.950 . S
H3824 C3830 0.949 . S
C3825 H3820 0.950 . S
C3825 C3827 1.327 . S
C3825 C3831 1.429 . S
C3826 C3818 1.574 . S
C3826 H3821 0.949 . S
C3826 C3832 1.368 . S
C3827 C3811 1.349 . S
C3827 H3819 0.950 . S
C3827 C3825 1.327 . S
C3828 C3816 1.349 . S
C3828 H3822 0.950 . S
C3828 C3829 1.327 . S
C3829 H3823 0.950 . S
C3829 C3828 1.327 . S
C3829 C3833 1.429 . S
C3830 C3813 1.574 . S
C3830 H3824 0.949 . S
C3830 C3834 1.368 . S
C3831 C3812 1.429 . S
C3831 C3825 1.429 . S
C3831 C3832 1.523 . S
C3832 C3813 1.368 . S
C3832 C3826 1.368 . S
C3832 C3831 1.523 . S
C3833 C3817 1.429 . S
C3833 C3829 1.429 . S
C3833 C3834 1.523 . S
C3834 C3818 1.368 . S
C3834 C3830 1.368 . S
C3834 C3833 1.523 . S
H3835 C3810 0.950 . S
H3836 C3812 0.950 . S
H3837 C3813 0.949 . S
H3838 C3815 0.950 . S
H3839 C3817 0.950 . S
C3840 C3841 1.349 . S
C3840 C3842 1.327 . S
C3840 H3865 0.950 . S
C3841 C3840 1.349 . S
C3841 C3857 1.349 . S
C3842 C3840 1.327 . S
C3842 C3861 1.429 . S
C3842 H3866 0.950 . S
C3843 C3860 1.574 . S
C3843 C3862 1.368 . S
C3843 H3867 0.949 . S
H3844 C3848 0.949 . S
C3845 C3846 1.349 . S
C3845 C3847 1.327 . S
C3845 H3868 0.950 . S
C3846 C3845 1.349 . S
C3846 C3858 1.349 . S
C3847 C3845 1.327 . S
C3847 C3863 1.429 . S
C3847 H3869 0.950 . S
C3848 H3844 0.949 . S
C3848 C3856 1.574 . S
C3848 C3864 1.368 . S
H3849 C3857 0.950 . S
H3850 C3855 0.950 . S
H3851 C3856 0.949 . S
H3852 C3858 0.950 . S
H3853 C3859 0.950 . S
H3854 C3860 0.949 . S
C3855 H3850 0.950 . S
C3855 C3857 1.327 . S
C3855 C3861 1.429 . S
C3856 C3848 1.574 . S
C3856 H3851 0.949 . S
C3856 C3862 1.368 . S
C3857 C3841 1.349 . S
C3857 H3849 0.950 . S
C3857 C3855 1.327 . S
C3858 C3846 1.349 . S
C3858 H3852 0.950 . S
C3858 C3859 1.327 . S
C3859 H3853 0.950 . S
C3859 C3858 1.327 . S
C3859 C3863 1.429 . S
C3860 C3843 1.574 . S
C3860 H3854 0.949 . S
C3860 C3864 1.368 . S
C3861 C3842 1.429 . S
C3861 C3855 1.429 . S
C3861 C3862 1.523 . S
C3862 C3843 1.368 . S
C3862 C3856 1.368 . S
C3862 C3861 1.523 . S
C3863 C3847 1.429 . S
C3863 C3859 1.429 . S
C3863 C3864 1.523 . S
C3864 C3848 1.368 . S
C3864 C3860 1.368 . S
C3864 C3863 1.523 . S
H3865 C3840 0.950 . S
H3866 C3842 0.950 . S
H3867 C3843 0.949 . S
H3868 C3845 0.950 . S
H3869 C3847 0.950 . S
C3870 C3871 1.349 . S
C3870 C3872 1.327 . S
C3870 H3895 0.950 . S
C3871 C3870 1.349 . S
C3871 C3887 1.349 . S
C3872 C3870 1.327 . S
C3872 C3891 1.429 . S
C3872 H3896 0.950 . S
C3873 C3890 1.574 . S
C3873 C3892 1.368 . S
C3873 H3897 0.949 . S
H3874 C3878 0.949 . S
C3875 C3876 1.349 . S
C3875 C3877 1.327 . S
C3875 H3898 0.950 . S
C3876 C3875 1.349 . S
C3876 C3888 1.349 . S
C3877 C3875 1.327 . S
C3877 C3893 1.429 . S
C3877 H3899 0.950 . S
C3878 H3874 0.949 . S
C3878 C3886 1.574 . S
C3878 C3894 1.368 . S
H3879 C3887 0.950 . S
H3880 C3885 0.950 . S
H3881 C3886 0.949 . S
H3882 C3888 0.950 . S
H3883 C3889 0.950 . S
H3884 C3890 0.949 . S
C3885 H3880 0.950 . S
C3885 C3887 1.327 . S
C3885 C3891 1.429 . S
C3886 C3878 1.574 . S
C3886 H3881 0.949 . S
C3886 C3892 1.368 . S
C3887 C3871 1.349 . S
C3887 H3879 0.950 . S
C3887 C3885 1.327 . S
C3888 C3876 1.349 . S
C3888 H3882 0.950 . S
C3888 C3889 1.327 . S
C3889 H3883 0.950 . S
C3889 C3888 1.327 . S
C3889 C3893 1.429 . S
C3890 C3873 1.574 . S
C3890 H3884 0.949 . S
C3890 C3894 1.368 . S
C3891 C3872 1.429 . S
C3891 C3885 1.429 . S
C3891 C3892 1.523 . S
C3892 C3873 1.368 . S
C3892 C3886 1.368 . S
C3892 C3891 1.523 . S
C3893 C3877 1.429 . S
C3893 C3889 1.429 . S
C3893 C3894 1.523 . S
C3894 C3878 1.368 . S
C3894 C3890 1.368 . S
C3894 C3893 1.523 . S
H3895 C3870 0.950 . S
H3896 C3872 0.950 . S
H3897 C3873 0.949 . S
H3898 C3875 0.950 . S
H3899 C3877 0.950 . S
C3900 C3901 1.349 . S
C3900 C3902 1.327 . S
C3900 H3925 0.950 . S
C3901 C3900 1.349 . S
C3901 C3917 1.349 . S
C3902 C3900 1.327 . S
C3902 C3921 1.429 . S
C3902 H3926 0.950 . S
C3903 C3920 1.574 . S
C3903 C3922 1.368 . S
C3903 H3927 0.949 . S
H3904 C3908 0.949 . S
C3905 C3906 1.349 . S
C3905 C3907 1.327 . S
C3905 H3928 0.950 . S
C3906 C3905 1.349 . S
C3906 C3918 1.349 . S
C3907 C3905 1.327 . S
C3907 C3923 1.429 . S
C3907 H3929 0.950 . S
C3908 H3904 0.949 . S
C3908 C3916 1.574 . S
C3908 C3924 1.368 . S
H3909 C3917 0.950 . S
H3910 C3915 0.950 . S
H3911 C3916 0.949 . S
H3912 C3918 0.950 . S
H3913 C3919 0.950 . S
H3914 C3920 0.949 . S
C3915 H3910 0.950 . S
C3915 C3917 1.327 . S
C3915 C3921 1.429 . S
C3916 C3908 1.574 . S
C3916 H3911 0.949 . S
C3916 C3922 1.368 . S
C3917 C3901 1.349 . S
C3917 H3909 0.950 . S
C3917 C3915 1.327 . S
C3918 C3906 1.349 . S
C3918 H3912 0.950 . S
C3918 C3919 1.327 . S
C3919 H3913 0.950 . S
C3919 C3918 1.327 . S
C3919 C3923 1.429 . S
C3920 C3903 1.574 . S
C3920 H3914 0.949 . S
C3920 C3924 1.368 . S
C3921 C3902 1.429 . S
C3921 C3915 1.429 . S
C3921 C3922 1.523 . S
C3922 C3903 1.368 . S
C3922 C3916 1.368 . S
C3922 C3921 1.523 . S
C3923 C3907 1.429 . S
C3923 C3919 1.429 . S
C3923 C3924 1.523 . S
C3924 C3908 1.368 . S
C3924 C3920 1.368 . S
C3924 C3923 1.523 . S
H3925 C3900 0.950 . S
H3926 C3902 0.950 . S
H3927 C3903 0.949 . S
H3928 C3905 0.950 . S
H3929 C3907 0.950 . S
C3930 C3931 1.349 . S
C3930 C3932 1.327 . S
C3930 H3955 0.950 . S
C3931 C3930 1.349 . S
C3931 C3947 1.349 . S
C3932 C3930 1.327 . S
C3932 C3951 1.429 . S
C3932 H3956 0.950 . S
C3933 C3950 1.574 . S
C3933 C3952 1.368 . S
C3933 H3957 0.949 . S
H3934 C3938 0.949 . S
C3935 C3936 1.349 . S
C3935 C3937 1.327 . S
C3935 H3958 0.950 . S
C3936 C3935 1.349 . S
C3936 C3948 1.349 . S
C3937 C3935 1.327 . S
C3937 C3953 1.429 . S
C3937 H3959 0.950 . S
C3938 H3934 0.949 . S
C3938 C3946 1.574 . S
C3938 C3954 1.368 . S
H3939 C3947 0.950 . S
H3940 C3945 0.950 . S
H3941 C3946 0.949 . S
H3942 C3948 0.950 . S
H3943 C3949 0.950 . S
H3944 C3950 0.949 . S
C3945 H3940 0.950 . S
C3945 C3947 1.327 . S
C3945 C3951 1.429 . S
C3946 C3938 1.574 . S
C3946 H3941 0.949 . S
C3946 C3952 1.368 . S
C3947 C3931 1.349 . S
C3947 H3939 0.950 . S
C3947 C3945 1.327 . S
C3948 C3936 1.349 . S
C3948 H3942 0.950 . S
C3948 C3949 1.327 . S
C3949 H3943 0.950 . S
C3949 C3948 1.327 . S
C3949 C3953 1.429 . S
C3950 C3933 1.574 . S
C3950 H3944 0.949 . S
C3950 C3954 1.368 . S
C3951 C3932 1.429 . S
C3951 C3945 1.429 . S
C3951 C3952 1.523 . S
C3952 C3933 1.368 . S
C3952 C3946 1.368 . S
C3952 C3951 1.523 . S
C3953 C3937 1.429 . S
C3953 C3949 1.429 . S
C3953 C3954 1.523 . S
C3954 C3938 1.368 . S
C3954 C3950 1.368 . S
C3954 C3953 1.523 . S
H3955 C3930 0.950 . S
H3956 C3932 0.950 . S
H3957 C3933 0.949 . S
H3958 C3935 0.950 . S
H3959 C3937 0.950 . S
C3960 C3961 1.349 . S
C3960 C3962 1.327 . S
C3960 H3985 0.950 . S
C3961 C3960 1.349 . S
C3961 C3977 1.349 . S
C3962 C3960 1.327 . S
C3962 C3981 1.429 . S
C3962 H3986 0.950 . S
C3963 C3980 1.574 . S
C3963 C3982 1.368 . S
C3963 H3987 0.949 . S
H3964 C3968 0.949 . S
C3965 C3966 1.349 . S
C3965 C3967 1.327 . S
C3965 H3988 0.950 . S
C3966 C3965 1.349 . S
C3966 C3978 1.349 . S
C3967 C3965 1.327 . S
C3967 C3983 1.429 . S
C3967 H3989 0.950 . S
C3968 H3964 0.949 . S
C3968 C3976 1.574 . S
C3968 C3984 1.368 . S
H3969 C3977 0.950 . S
H3970 C3975 0.950 . S
H3971 C3976 0.949 . S
H3972 C3978 0.950 . S
H3973 C3979 0.950 . S
H3974 C3980 0.949 . S
C3975 H3970 0.950 . S
C3975 C3977 1.327 . S
C3975 C3981 1.429 . S
C3976 C3968 1.574 . S
C3976 H3971 0.949 . S
C3976 C3982 1.368 . S
C3977 C3961 1.349 . S
C3977 H3969 0.950 . S
C3977 C3975 1.327 . S
C3978 C3966 1.349 . S
C3978 H3972 0.950 . S
C3978 C3979 1.327 . S
C3979 H3973 0.950 . S
C3979 C3978 1.327 . S
C3979 C3983 1.429 . S
C3980 C3963 1.574 . S
C3980 H3974 0.949 . S
C3980 C3984 1.368 . S
C3981 C3962 1.429 . S
C3981 C3975 1.429 . S
C3981 C3982 1.523 . S
C3982 C3963 1.368 . S
C3982 C3976 1.368 . S
C3982 C3981 1.523 . S
C3983 C3967 1.429 . S
C3983 C3979 1.429 . S
C3983 C3984 1.523 . S
C3984 C3968 1.368 . S
C3984 C3980 1.368 . S
C3984 C3983 1.523 . S
H3985 C3960 0.950 . S
H3986 C3962 0.950 . S
H3987 C3963 0.949 . S
H3988 C3965 0.950 . S
H3989 C3967 0.950 . S
C3990 C3991 1.349 . S
C3990 C3992 1.327 . S
C3990 H4015 0.950 . S
C3991 C3990 1.349 . S
C3991 C4007 1.349 . S
C3992 C3990 1.327 . S
C3992 C4011 1.429 . S
C3992 H4016 0.950 . S
C3993 C4010 1.574 . S
C3993 C4012 1.368 . S
C3993 H4017 0.949 . S
H3994 C3998 0.949 . S
C3995 C3996 1.349 . S
C3995 C3997 1.327 . S
C3995 H4018 0.950 . S
C3996 C3995 1.349 . S
C3996 C4008 1.349 . S
C3997 C3995 1.327 . S
C3997 C4013 1.429 . S
C3997 H4019 0.950 . S
C3998 H3994 0.949 . S
C3998 C4006 1.574 . S
C3998 C4014 1.368 . S
H3999 C4007 0.950 . S
H4000 C4005 0.950 . S
H4001 C4006 0.949 . S
H4002 C4008 0.950 . S
H4003 C4009 0.950 . S
H4004 C4010 0.949 . S
C4005 H4000 0.950 . S
C4005 C4007 1.327 . S
C4005 C4011 1.429 . S
C4006 C3998 1.574 . S
C4006 H4001 0.949 . S
C4006 C4012 1.368 . S
C4007 C3991 1.349 . S
C4007 H3999 0.950 . S
C4007 C4005 1.327 . S
C4008 C3996 1.349 . S
C4008 H4002 0.950 . S
C4008 C4009 1.327 . S
C4009 H4003 0.950 . S
C4009 C4008 1.327 . S
C4009 C4013 1.429 . S
C4010 C3993 1.574 . S
C4010 H4004 0.949 . S
C4010 C4014 1.368 . S
C4011 C3992 1.429 . S
C4011 C4005 1.429 . S
C4011 C4012 1.523 . S
C4012 C3993 1.368 . S
C4012 C4006 1.368 . S
C4012 C4011 1.523 . S
C4013 C3997 1.429 . S
C4013 C4009 1.429 . S
C4013 C4014 1.523 . S
C4014 C3998 1.368 . S
C4014 C4010 1.368 . S
C4014 C4013 1.523 . S
H4015 C3990 0.950 . S
H4016 C3992 0.950 . S
H4017 C3993 0.949 . S
H4018 C3995 0.950 . S
H4019 C3997 0.950 . S
C4020 C4021 1.349 . S
C4020 C4022 1.327 . S
C4020 H4045 0.950 . S
C4021 C4020 1.349 . S
C4021 C4037 1.349 . S
C4022 C4020 1.327 . S
C4022 C4041 1.429 . S
C4022 H4046 0.950 . S
C4023 C4040 1.574 . S
C4023 C4042 1.368 . S
C4023 H4047 0.949 . S
H4024 C4028 0.949 . S
C4025 C4026 1.349 . S
C4025 C4027 1.327 . S
C4025 H4048 0.950 . S
C4026 C4025 1.349 . S
C4026 C4038 1.349 . S
C4027 C4025 1.327 . S
C4027 C4043 1.429 . S
C4027 H4049 0.950 . S
C4028 H4024 0.949 . S
C4028 C4036 1.574 . S
C4028 C4044 1.368 . S
H4029 C4037 0.950 . S
H4030 C4035 0.950 . S
H4031 C4036 0.949 . S
H4032 C4038 0.950 . S
H4033 C4039 0.950 . S
H4034 C4040 0.949 . S
C4035 H4030 0.950 . S
C4035 C4037 1.327 . S
C4035 C4041 1.429 . S
C4036 C4028 1.574 . S
C4036 H4031 0.949 . S
C4036 C4042 1.368 . S
C4037 C4021 1.349 . S
C4037 H4029 0.950 . S
C4037 C4035 1.327 . S
C4038 C4026 1.349 . S
C4038 H4032 0.950 . S
C4038 C4039 1.327 . S
C4039 H4033 0.950 . S
C4039 C4038 1.327 . S
C4039 C4043 1.429 . S
C4040 C4023 1.574 . S
C4040 H4034 0.949 . S
C4040 C4044 1.368 . S
C4041 C4022 1.429 . S
C4041 C4035 1.429 . S
C4041 C4042 1.523 . S
C4042 C4023 1.368 . S
C4042 C4036 1.368 . S
C4042 C4041 1.523 . S
C4043 C4027 1.429 . S
C4043 C4039 1.429 . S
C4043 C4044 1.523 . S
C4044 C4028 1.368 . S
C4044 C4040 1.368 . S
C4044 C4043 1.523 . S
H4045 C4020 0.950 . S
H4046 C4022 0.950 . S
H4047 C4023 0.949 . S
H4048 C4025 0.950 . S
H4049 C4027 0.950 . S
C4050 C4051 1.349 . S
C4050 C4052 1.327 . S
C4050 H4075 0.950 . S
C4051 C4050 1.349 . S
C4051 C4067 1.349 . S
C4052 C4050 1.327 . S
C4052 C4071 1.429 . S
C4052 H4076 0.950 . S
C4053 C4070 1.574 . S
C4053 C4072 1.368 . S
C4053 H4077 0.949 . S
H4054 C4058 0.949 . S
C4055 C4056 1.349 . S
C4055 C4057 1.327 . S
C4055 H4078 0.950 . S
C4056 C4055 1.349 . S
C4056 C4068 1.349 . S
C4057 C4055 1.327 . S
C4057 C4073 1.429 . S
C4057 H4079 0.950 . S
C4058 H4054 0.949 . S
C4058 C4066 1.574 1_655 S
C4058 C4074 1.368 . S
H4059 C4067 0.950 . S
H4060 C4065 0.950 . S
H4061 C4066 0.949 . S
H4062 C4068 0.950 . S
H4063 C4069 0.950 . S
H4064 C4070 0.949 . S
C4065 H4060 0.950 . S
C4065 C4067 1.327 . S
C4065 C4071 1.429 . S
C4066 C4058 1.574 1_455 S
C4066 H4061 0.949 . S
C4066 C4072 1.368 . S
C4067 C4051 1.349 . S
C4067 H4059 0.950 . S
C4067 C4065 1.327 . S
C4068 C4056 1.349 . S
C4068 H4062 0.950 . S
C4068 C4069 1.327 . S
C4069 H4063 0.950 . S
C4069 C4068 1.327 . S
C4069 C4073 1.429 . S
C4070 C4053 1.574 . S
C4070 H4064 0.949 . S
C4070 C4074 1.368 1_455 S
C4071 C4052 1.429 . S
C4071 C4065 1.429 . S
C4071 C4072 1.523 . S
C4072 C4053 1.368 . S
C4072 C4066 1.368 . S
C4072 C4071 1.523 . S
C4073 C4057 1.429 . S
C4073 C4069 1.429 . S
C4073 C4074 1.523 . S
C4074 C4058 1.368 . S
C4074 C4070 1.368 1_655 S
C4074 C4073 1.523 . S
H4075 C4050 0.950 . S
H4076 C4052 0.950 . S
H4077 C4053 0.949 . S
H4078 C4055 0.950 . S
H4079 C4057 0.950 . S
C4080 C4081 1.349 . S
C4080 C4082 1.327 . S
C4080 H4105 0.950 . S
C4081 C4080 1.349 . S
C4081 C4097 1.349 . S
C4082 C4080 1.327 . S
C4082 C4101 1.429 . S
C4082 H4106 0.950 . S
C4083 C4100 1.574 . S
C4083 C4102 1.368 . S
C4083 H4107 0.949 . S
H4084 C4088 0.949 . S
C4085 C4086 1.349 . S
C4085 C4087 1.327 . S
C4085 H4108 0.950 . S
C4086 C4085 1.349 . S
C4086 C4098 1.349 . S
C4087 C4085 1.327 . S
C4087 C4103 1.429 . S
C4087 H4109 0.950 . S
C4088 H4084 0.949 . S
C4088 C4096 1.574 . S
C4088 C4104 1.368 . S
H4089 C4097 0.950 . S
H4090 C4095 0.950 . S
H4091 C4096 0.949 . S
H4092 C4098 0.950 . S
H4093 C4099 0.950 . S
H4094 C4100 0.949 . S
C4095 H4090 0.950 . S
C4095 C4097 1.327 . S
C4095 C4101 1.429 . S
C4096 C4088 1.574 . S
C4096 H4091 0.949 . S
C4096 C4102 1.368 . S
C4097 C4081 1.349 . S
C4097 H4089 0.950 . S
C4097 C4095 1.327 . S
C4098 C4086 1.349 . S
C4098 H4092 0.950 . S
C4098 C4099 1.327 . S
C4099 H4093 0.950 . S
C4099 C4098 1.327 . S
C4099 C4103 1.429 . S
C4100 C4083 1.574 . S
C4100 H4094 0.949 . S
C4100 C4104 1.368 . S
C4101 C4082 1.429 . S
C4101 C4095 1.429 . S
C4101 C4102 1.523 . S
C4102 C4083 1.368 . S
C4102 C4096 1.368 . S
C4102 C4101 1.523 . S
C4103 C4087 1.429 . S
C4103 C4099 1.429 . S
C4103 C4104 1.523 . S
C4104 C4088 1.368 . S
C4104 C4100 1.368 . S
C4104 C4103 1.523 . S
H4105 C4080 0.950 . S
H4106 C4082 0.950 . S
H4107 C4083 0.949 . S
H4108 C4085 0.950 . S
H4109 C4087 0.950 . S
C4110 C4111 1.349 . S
C4110 C4112 1.327 . S
C4110 H4135 0.950 1_655 S
C4111 C4110 1.349 . S
C4111 C4127 1.349 . S
C4112 C4110 1.327 . S
C4112 C4131 1.429 . S
C4112 H4136 0.950 . S
C4113 C4130 1.574 . S
C4113 C4132 1.368 . S
C4113 H4137 0.949 . S
H4114 C4118 0.949 1_565 S
C4115 C4116 1.349 . S
C4115 C4117 1.327 . S
C4115 H4138 0.950 . S
C4116 C4115 1.349 . S
C4116 C4128 1.349 . S
C4117 C4115 1.327 . S
C4117 C4133 1.429 . S
C4117 H4139 0.950 . S
C4118 H4114 0.949 1_545 S
C4118 C4126 1.574 . S
C4118 C4134 1.368 . S
H4119 C4127 0.950 . S
H4120 C4125 0.950 . S
H4121 C4126 0.949 . S
H4122 C4128 0.950 . S
H4123 C4129 0.950 . S
H4124 C4130 0.949 . S
C4125 H4120 0.950 . S
C4125 C4127 1.327 . S
C4125 C4131 1.429 . S
C4126 C4118 1.574 . S
C4126 H4121 0.949 . S
C4126 C4132 1.368 . S
C4127 C4111 1.349 . S
C4127 H4119 0.950 . S
C4127 C4125 1.327 . S
C4128 C4116 1.349 . S
C4128 H4122 0.950 . S
C4128 C4129 1.327 . S
C4129 H4123 0.950 . S
C4129 C4128 1.327 . S
C4129 C4133 1.429 . S
C4130 C4113 1.574 . S
C4130 H4124 0.949 . S
C4130 C4134 1.368 . S
C4131 C4112 1.429 . S
C4131 C4125 1.429 . S
C4131 C4132 1.523 . S
C4132 C4113 1.368 . S
C4132 C4126 1.368 . S
C4132 C4131 1.523 . S
C4133 C4117 1.429 . S
C4133 C4129 1.429 . S
C4133 C4134 1.523 1_565 S
C4134 C4118 1.368 . S
C4134 C4130 1.368 . S
C4134 C4133 1.523 1_545 S
H4135 C4110 0.950 1_455 S
H4136 C4112 0.950 . S
H4137 C4113 0.949 . S
H4138 C4115 0.950 . S
H4139 C4117 0.950 . S
C4140 C4141 1.349 . S
C4140 C4142 1.327 . S
C4140 H4165 0.950 . S
C4141 C4140 1.349 . S
C4141 C4157 1.349 . S
C4142 C4140 1.327 . S
C4142 C4161 1.429 . S
C4142 H4166 0.950 . S
C4143 C4160 1.574 . S
C4143 C4162 1.368 . S
C4143 H4167 0.949 . S
H4144 C4148 0.949 . S
C4145 C4146 1.349 . S
C4145 C4147 1.327 . S
C4145 H4168 0.950 . S
C4146 C4145 1.349 . S
C4146 C4158 1.349 . S
C4147 C4145 1.327 . S
C4147 C4163 1.429 . S
C4147 H4169 0.950 . S
C4148 H4144 0.949 . S
C4148 C4156 1.574 . S
C4148 C4164 1.368 . S
H4149 C4157 0.950 . S
H4150 C4155 0.950 . S
H4151 C4156 0.949 . S
H4152 C4158 0.950 . S
H4153 C4159 0.950 . S
H4154 C4160 0.949 . S
C4155 H4150 0.950 . S
C4155 C4157 1.327 . S
C4155 C4161 1.429 . S
C4156 C4148 1.574 . S
C4156 H4151 0.949 . S
C4156 C4162 1.368 . S
C4157 C4141 1.349 . S
C4157 H4149 0.950 . S
C4157 C4155 1.327 . S
C4158 C4146 1.349 . S
C4158 H4152 0.950 . S
C4158 C4159 1.327 . S
C4159 H4153 0.950 . S
C4159 C4158 1.327 . S
C4159 C4163 1.429 . S
C4160 C4143 1.574 . S
C4160 H4154 0.949 . S
C4160 C4164 1.368 . S
C4161 C4142 1.429 . S
C4161 C4155 1.429 . S
C4161 C4162 1.523 1_565 S
C4162 C4143 1.368 . S
C4162 C4156 1.368 . S
C4162 C4161 1.523 1_545 S
C4163 C4147 1.429 . S
C4163 C4159 1.429 . S
C4163 C4164 1.523 . S
C4164 C4148 1.368 . S
C4164 C4160 1.368 . S
C4164 C4163 1.523 . S
H4165 C4140 0.950 . S
H4166 C4142 0.950 . S
H4167 C4143 0.949 . S
H4168 C4145 0.950 . S
H4169 C4147 0.950 . S
C4170 C4171 1.349 . S
C4170 C4172 1.327 . S
C4170 H4195 0.950 . S
C4171 C4170 1.349 . S
C4171 C4187 1.349 . S
C4172 C4170 1.327 . S
C4172 C4191 1.429 . S
C4172 H4196 0.950 . S
C4173 C4190 1.574 . S
C4173 C4192 1.368 . S
C4173 H4197 0.949 . S
H4174 C4178 0.948 1_655 S
C4175 C4176 1.349 . S
C4175 C4177 1.327 . S
C4175 H4198 0.950 . S
C4176 C4175 1.349 . S
C4176 C4188 1.349 . S
C4177 C4175 1.327 . S
C4177 C4193 1.429 . S
C4177 H4199 0.950 . S
C4178 H4174 0.948 1_455 S
C4178 C4186 1.574 . S
C4178 C4194 1.368 1_455 S
H4179 C4187 0.950 . S
H4180 C4185 0.950 . S
H4181 C4186 0.949 . S
H4182 C4188 0.950 . S
H4183 C4189 0.950 . S
H4184 C4190 0.949 1_655 S
C4185 H4180 0.950 . S
C4185 C4187 1.327 . S
C4185 C4191 1.429 . S
C4186 C4178 1.574 . S
C4186 H4181 0.949 . S
C4186 C4192 1.368 . S
C4187 C4171 1.349 . S
C4187 H4179 0.950 . S
C4187 C4185 1.327 . S
C4188 C4176 1.349 . S
C4188 H4182 0.950 . S
C4188 C4189 1.327 . S
C4189 H4183 0.950 . S
C4189 C4188 1.327 . S
C4189 C4193 1.429 . S
C4190 C4173 1.574 . S
C4190 H4184 0.949 1_455 S
C4190 C4194 1.368 1_455 S
C4191 C4172 1.429 . S
C4191 C4185 1.429 . S
C4191 C4192 1.523 . S
C4192 C4173 1.368 . S
C4192 C4186 1.368 . S
C4192 C4191 1.523 . S
C4193 C4177 1.429 . S
C4193 C4189 1.429 . S
C4193 C4194 1.523 . S
C4194 C4178 1.368 1_655 S
C4194 C4190 1.368 1_655 S
C4194 C4193 1.523 . S
H4195 C4170 0.950 . S
H4196 C4172 0.950 . S
H4197 C4173 0.949 . S
H4198 C4175 0.950 . S
H4199 C4177 0.950 . S
C4200 C4201 1.349 . S
C4200 C4202 1.327 . S
C4200 H4225 0.950 1_655 S
C4201 C4200 1.349 . S
C4201 C4217 1.349 . S
C4202 C4200 1.327 . S
C4202 C4221 1.429 . S
C4202 H4226 0.950 . S
C4203 C4220 1.574 . S
C4203 C4222 1.368 . S
C4203 H4227 0.949 . S
H4204 C4208 0.949 . S
C4205 C4206 1.349 . S
C4205 C4207 1.327 . S
C4205 H4228 0.950 . S
C4206 C4205 1.349 . S
C4206 C4218 1.349 . S
C4207 C4205 1.327 . S
C4207 C4223 1.429 . S
C4207 H4229 0.950 . S
C4208 H4204 0.949 . S
C4208 C4216 1.574 . S
C4208 C4224 1.368 . S
H4209 C4217 0.950 . S
H4210 C4215 0.950 . S
H4211 C4216 0.949 . S
H4212 C4218 0.950 . S
H4213 C4219 0.950 . S
H4214 C4220 0.949 . S
C4215 H4210 0.950 . S
C4215 C4217 1.327 . S
C4215 C4221 1.429 . S
C4216 C4208 1.574 . S
C4216 H4211 0.949 . S
C4216 C4222 1.368 . S
C4217 C4201 1.349 . S
C4217 H4209 0.950 . S
C4217 C4215 1.327 . S
C4218 C4206 1.349 . S
C4218 H4212 0.950 . S
C4218 C4219 1.327 . S
C4219 H4213 0.950 . S
C4219 C4218 1.327 . S
C4219 C4223 1.429 . S
C4220 C4203 1.574 . S
C4220 H4214 0.949 . S
C4220 C4224 1.368 . S
C4221 C4202 1.429 . S
C4221 C4215 1.429 . S
C4221 C4222 1.523 . S
C4222 C4203 1.368 . S
C4222 C4216 1.368 . S
C4222 C4221 1.523 . S
C4223 C4207 1.429 . S
C4223 C4219 1.429 . S
C4223 C4224 1.523 . S
C4224 C4208 1.368 . S
C4224 C4220 1.368 . S
C4224 C4223 1.523 . S
H4225 C4200 0.950 1_455 S
H4226 C4202 0.950 . S
H4227 C4203 0.949 . S
H4228 C4205 0.950 . S
H4229 C4207 0.950 . S
C4230 C4231 1.349 . S
C4230 C4232 1.327 . S
C4230 H4255 0.950 . S
C4231 C4230 1.349 . S
C4231 C4247 1.349 . S
C4232 C4230 1.327 . S
C4232 C4251 1.429 . S
C4232 H4256 0.950 . S
C4233 C4250 1.574 . S
C4233 C4252 1.368 . S
C4233 H4257 0.949 . S
H4234 C4238 0.949 . S
C4235 C4236 1.349 . S
C4235 C4237 1.327 . S
C4235 H4258 0.950 . S
C4236 C4235 1.349 . S
C4236 C4248 1.349 . S
C4237 C4235 1.327 . S
C4237 C4253 1.429 . S
C4237 H4259 0.950 . S
C4238 H4234 0.949 . S
C4238 C4246 1.574 . S
C4238 C4254 1.368 . S
H4239 C4247 0.950 . S
H4240 C4245 0.950 . S
H4241 C4246 0.949 . S
H4242 C4248 0.950 . S
H4243 C4249 0.950 . S
H4244 C4250 0.949 . S
C4245 H4240 0.950 . S
C4245 C4247 1.327 . S
C4245 C4251 1.429 . S
C4246 C4238 1.574 . S
C4246 H4241 0.949 . S
C4246 C4252 1.368 . S
C4247 C4231 1.349 . S
C4247 H4239 0.950 . S
C4247 C4245 1.327 . S
C4248 C4236 1.349 . S
C4248 H4242 0.950 . S
C4248 C4249 1.327 . S
C4249 H4243 0.950 . S
C4249 C4248 1.327 . S
C4249 C4253 1.429 . S
C4250 C4233 1.574 . S
C4250 H4244 0.949 . S
C4250 C4254 1.368 . S
C4251 C4232 1.429 . S
C4251 C4245 1.429 . S
C4251 C4252 1.523 . S
C4252 C4233 1.368 . S
C4252 C4246 1.368 . S
C4252 C4251 1.523 . S
C4253 C4237 1.429 . S
C4253 C4249 1.429 . S
C4253 C4254 1.523 . S
C4254 C4238 1.368 . S
C4254 C4250 1.368 . S
C4254 C4253 1.523 . S
H4255 C4230 0.950 . S
H4256 C4232 0.950 . S
H4257 C4233 0.949 . S
H4258 C4235 0.950 . S
H4259 C4237 0.950 . S
C4260 C4261 1.349 . S
C4260 C4262 1.327 . S
C4260 H4285 0.950 . S
C4261 C4260 1.349 . S
C4261 C4277 1.349 . S
C4262 C4260 1.327 . S
C4262 C4281 1.429 . S
C4262 H4286 0.950 . S
C4263 C4280 1.574 . S
C4263 C4282 1.368 . S
C4263 H4287 0.949 . S
H4264 C4268 0.949 . S
C4265 C4266 1.349 . S
C4265 C4267 1.327 . S
C4265 H4288 0.950 . S
C4266 C4265 1.349 . S
C4266 C4278 1.349 . S
C4267 C4265 1.327 . S
C4267 C4283 1.429 . S
C4267 H4289 0.950 . S
C4268 H4264 0.949 . S
C4268 C4276 1.574 . S
C4268 C4284 1.368 . S
H4269 C4277 0.950 . S
H4270 C4275 0.950 . S
H4271 C4276 0.949 . S
H4272 C4278 0.950 . S
H4273 C4279 0.950 . S
H4274 C4280 0.949 . S
C4275 H4270 0.950 . S
C4275 C4277 1.327 . S
C4275 C4281 1.429 . S
C4276 C4268 1.574 . S
C4276 H4271 0.949 . S
C4276 C4282 1.368 . S
C4277 C4261 1.349 . S
C4277 H4269 0.950 . S
C4277 C4275 1.327 . S
C4278 C4266 1.349 . S
C4278 H4272 0.950 . S
C4278 C4279 1.327 . S
C4279 H4273 0.950 . S
C4279 C4278 1.327 . S
C4279 C4283 1.429 . S
C4280 C4263 1.574 . S
C4280 H4274 0.949 . S
C4280 C4284 1.368 . S
C4281 C4262 1.429 . S
C4281 C4275 1.429 . S
C4281 C4282 1.523 . S
C4282 C4263 1.368 . S
C4282 C4276 1.368 . S
C4282 C4281 1.523 . S
C4283 C4267 1.429 . S
C4283 C4279 1.429 . S
C4283 C4284 1.523 . S
C4284 C4268 1.368 . S
C4284 C4280 1.368 . S
C4284 C4283 1.523 . S
H4285 C4260 0.950 . S
H4286 C4262 0.950 . S
H4287 C4263 0.949 . S
H4288 C4265 0.950 . S
H4289 C4267 0.950 . S
C4290 C4291 1.349 . S
C4290 C4292 1.327 . S
C4290 H4315 0.950 . S
C4291 C4290 1.349 . S
C4291 C4307 1.349 . S
C4292 C4290 1.327 . S
C4292 C4311 1.429 . S
C4292 H4316 0.950 . S
C4293 C4310 1.574 . S
C4293 C4312 1.368 . S
C4293 H4317 0.949 . S
H4294 C4298 0.949 . S
C4295 C4296 1.349 . S
C4295 C4297 1.327 . S
C4295 H4318 0.950 . S
C4296 C4295 1.349 . S
C4296 C4308 1.349 . S
C4297 C4295 1.327 . S
C4297 C4313 1.429 . S
C4297 H4319 0.950 . S
C4298 H4294 0.949 . S
C4298 C4306 1.574 . S
C4298 C4314 1.368 . S
H4299 C4307 0.950 . S
H4300 C4305 0.950 . S
H4301 C4306 0.949 . S
H4302 C4308 0.950 . S
H4303 C4309 0.950 . S
H4304 C4310 0.949 . S
C4305 H4300 0.950 . S
C4305 C4307 1.327 . S
C4305 C4311 1.429 . S
C4306 C4298 1.574 . S
C4306 H4301 0.949 . S
C4306 C4312 1.368 . S
C4307 C4291 1.349 . S
C4307 H4299 0.950 . S
C4307 C4305 1.327 . S
C4308 C4296 1.349 . S
C4308 H4302 0.950 . S
C4308 C4309 1.327 . S
C4309 H4303 0.950 . S
C4309 C4308 1.327 . S
C4309 C4313 1.429 . S
C4310 C4293 1.574 . S
C4310 H4304 0.949 . S
C4310 C4314 1.368 . S
C4311 C4292 1.429 . S
C4311 C4305 1.429 . S
C4311 C4312 1.523 . S
C4312 C4293 1.368 . S
C4312 C4306 1.368 . S
C4312 C4311 1.523 . S
C4313 C4297 1.429 . S
C4313 C4309 1.429 . S
C4313 C4314 1.523 . S
C4314 C4298 1.368 . S
C4314 C4310 1.368 . S
C4314 C4313 1.523 . S
H4315 C4290 0.950 . S
H4316 C4292 0.950 . S
H4317 C4293 0.949 . S
H4318 C4295 0.950 . S
H4319 C4297 0.950 . S
C4320 C4321 1.349 . S
C4320 C4322 1.327 . S
C4320 H4345 0.950 . S
C4321 C4320 1.349 . S
C4321 C4337 1.349 . S
C4322 C4320 1.327 . S
C4322 C4341 1.429 . S
C4322 H4346 0.950 . S
C4323 C4340 1.574 . S
C4323 C4342 1.368 1_545 S
C4323 H4347 0.949 . S
H4324 C4328 0.949 . S
C4325 C4326 1.349 . S
C4325 C4327 1.327 . S
C4325 H4348 0.950 . S
C4326 C4325 1.349 . S
C4326 C4338 1.349 . S
C4327 C4325 1.327 . S
C4327 C4343 1.429 . S
C4327 H4349 0.950 . S
C4328 H4324 0.949 . S
C4328 C4336 1.533 1_545 S
C4328 C4344 1.368 . S
H4329 C4337 0.950 . S
H4330 C4335 0.950 . S
H4331 C4336 0.966 . S
H4332 C4338 0.950 . S
H4333 C4339 0.950 . S
H4334 C4340 0.949 . S
C4335 H4330 0.950 . S
C4335 C4337 1.327 . S
C4335 C4341 1.429 . S
C4336 C4328 1.533 1_565 S
C4336 H4331 0.966 . S
C4336 C4342 1.392 . S
C4337 C4321 1.349 . S
C4337 H4329 0.950 . S
C4337 C4335 1.327 . S
C4338 C4326 1.349 . S
C4338 H4332 0.950 . S
C4338 C4339 1.327 . S
C4339 H4333 0.950 . S
C4339 C4338 1.327 . S
C4339 C4343 1.429 . S
C4340 C4323 1.574 . S
C4340 H4334 0.949 . S
C4340 C4344 1.368 . S
C4341 C4322 1.429 . S
C4341 C4335 1.429 . S
C4341 C4342 1.523 . S
C4342 C4323 1.368 1_565 S
C4342 C4336 1.392 . S
C4342 C4341 1.523 . S
C4343 C4327 1.429 . S
C4343 C4339 1.429 . S
C4343 C4344 1.523 . S
C4344 C4328 1.368 . S
C4344 C4340 1.368 . S
C4344 C4343 1.523 . S
H4345 C4320 0.950 . S
H4346 C4322 0.950 . S
H4347 C4323 0.949 . S
H4348 C4325 0.950 . S
H4349 C4327 0.950 . S
C4350 C4351 1.349 . S
C4350 C4352 1.327 . S
C4350 H4375 0.950 . S
C4351 C4350 1.349 . S
C4351 C4367 1.349 . S
C4352 C4350 1.327 . S
C4352 C4371 1.429 . S
C4352 H4376 0.950 . S
C4353 C4370 1.574 . S
C4353 C4372 1.368 . S
C4353 H4377 0.949 1_455 S
H4354 C4358 0.949 . S
C4355 C4356 1.349 . S
C4355 C4357 1.327 . S
C4355 H4378 0.950 . S
C4356 C4355 1.349 . S
C4356 C4368 1.349 . S
C4357 C4355 1.327 . S
C4357 C4373 1.429 . S
C4357 H4379 0.950 . S
C4358 H4354 0.949 . S
C4358 C4366 1.574 . S
C4358 C4374 1.368 . S
H4359 C4367 0.950 . S
H4360 C4365 0.950 . S
H4361 C4366 0.949 . S
H4362 C4368 0.950 . S
H4363 C4369 0.950 . S
H4364 C4370 0.949 . S
C4365 H4360 0.950 . S
C4365 C4367 1.327 . S
C4365 C4371 1.429 . S
C4366 C4358 1.574 . S
C4366 H4361 0.949 . S
C4366 C4372 1.368 . S
C4367 C4351 1.349 . S
C4367 H4359 0.950 . S
C4367 C4365 1.327 . S
C4368 C4356 1.349 . S
C4368 H4362 0.950 . S
C4368 C4369 1.327 . S
C4369 H4363 0.950 . S
C4369 C4368 1.327 . S
C4369 C4373 1.429 . S
C4370 C4353 1.574 . S
C4370 H4364 0.949 . S
C4370 C4374 1.368 . S
C4371 C4352 1.429 . S
C4371 C4365 1.429 . S
C4371 C4372 1.523 1_655 S
C4372 C4353 1.368 . S
C4372 C4366 1.368 . S
C4372 C4371 1.523 1_455 S
C4373 C4357 1.429 . S
C4373 C4369 1.429 . S
C4373 C4374 1.523 . S
C4374 C4358 1.368 . S
C4374 C4370 1.368 . S
C4374 C4373 1.523 . S
H4375 C4350 0.950 . S
H4376 C4352 0.950 . S
H4377 C4353 0.949 1_655 S
H4378 C4355 0.950 . S
H4379 C4357 0.950 . S
C4380 C4381 1.349 . S
C4380 C4382 1.327 . S
C4380 H4405 0.950 . S
C4381 C4380 1.349 . S
C4381 C4397 1.349 . S
C4382 C4380 1.327 . S
C4382 C4401 1.429 . S
C4382 H4406 0.950 . S
C4383 C4400 1.574 . S
C4383 C4402 1.368 . S
C4383 H4407 0.949 . S
H4384 C4388 0.949 . S
C4385 C4386 1.349 . S
C4385 C4387 1.327 . S
C4385 H4408 0.950 . S
C4386 C4385 1.349 . S
C4386 C4398 1.349 . S
C4387 C4385 1.327 . S
C4387 C4403 1.429 . S
C4387 H4409 0.950 . S
C4388 H4384 0.949 . S
C4388 C4396 1.574 . S
C4388 C4404 1.368 . S
H4389 C4397 0.950 . S
H4390 C4395 0.950 . S
H4391 C4396 0.949 . S
H4392 C4398 0.950 . S
H4393 C4399 0.950 . S
H4394 C4400 0.949 . S
C4395 H4390 0.950 . S
C4395 C4397 1.327 . S
C4395 C4401 1.429 . S
C4396 C4388 1.574 . S
C4396 H4391 0.949 . S
C4396 C4402 1.368 . S
C4397 C4381 1.349 . S
C4397 H4389 0.950 . S
C4397 C4395 1.327 . S
C4398 C4386 1.349 . S
C4398 H4392 0.950 . S
C4398 C4399 1.327 . S
C4399 H4393 0.950 . S
C4399 C4398 1.327 . S
C4399 C4403 1.429 . S
C4400 C4383 1.574 . S
C4400 H4394 0.949 . S
C4400 C4404 1.368 . S
C4401 C4382 1.429 . S
C4401 C4395 1.429 . S
C4401 C4402 1.523 . S
C4402 C4383 1.368 . S
C4402 C4396 1.368 . S
C4402 C4401 1.523 . S
C4403 C4387 1.429 . S
C4403 C4399 1.429 . S
C4403 C4404 1.523 . S
C4404 C4388 1.368 . S
C4404 C4400 1.368 . S
C4404 C4403 1.523 . S
H4405 C4380 0.950 . S
H4406 C4382 0.950 . S
H4407 C4383 0.949 . S
H4408 C4385 0.950 . S
H4409 C4387 0.950 . S
C4410 C4411 1.349 . S
C4410 C4412 1.327 . S
C4410 H4435 0.950 . S
C4411 C4410 1.349 . S
C4411 C4427 1.349 . S
C4412 C4410 1.327 . S
C4412 C4431 1.429 . S
C4412 H4436 0.950 . S
C4413 C4430 1.574 . S
C4413 C4432 1.368 . S
C4413 H4437 0.949 . S
H4414 C4418 0.949 . S
C4415 C4416 1.349 . S
C4415 C4417 1.327 . S
C4415 H4438 0.950 . S
C4416 C4415 1.349 . S
C4416 C4428 1.349 . S
C4417 C4415 1.327 . S
C4417 C4433 1.429 . S
C4417 H4439 0.950 . S
C4418 H4414 0.949 . S
C4418 C4426 1.574 . S
C4418 C4434 1.368 . S
H4419 C4427 0.950 . S
H4420 C4425 0.950 . S
H4421 C4426 0.949 . S
H4422 C4428 0.950 . S
H4423 C4429 0.950 . S
H4424 C4430 0.949 . S
C4425 H4420 0.950 . S
C4425 C4427 1.327 . S
C4425 C4431 1.429 . S
C4426 C4418 1.574 . S
C4426 H4421 0.949 . S
C4426 C4432 1.368 . S
C4427 C4411 1.349 . S
C4427 H4419 0.950 . S
C4427 C4425 1.327 . S
C4428 C4416 1.349 . S
C4428 H4422 0.950 . S
C4428 C4429 1.327 . S
C4429 H4423 0.950 . S
C4429 C4428 1.327 . S
C4429 C4433 1.429 . S
C4430 C4413 1.574 . S
C4430 H4424 0.949 . S
C4430 C4434 1.368 . S
C4431 C4412 1.429 . S
C4431 C4425 1.429 . S
C4431 C4432 1.523 . S
C4432 C4413 1.368 . S
C4432 C4426 1.368 . S
C4432 C4431 1.523 . S
C4433 C4417 1.429 . S
C4433 C4429 1.429 . S
C4433 C4434 1.523 . S
C4434 C4418 1.368 . S
C4434 C4430 1.368 . S
C4434 C4433 1.523 . S
H4435 C4410 0.950 . S
H4436 C4412 0.950 . S
H4437 C4413 0.949 . S
H4438 C4415 0.950 . S
H4439 C4417 0.950 . S
C4440 C4441 1.349 . S
C4440 C4442 1.327 . S
C4440 H4465 0.950 . S
C4441 C4440 1.349 . S
C4441 C4457 1.349 . S
C4442 C4440 1.327 . S
C4442 C4461 1.429 . S
C4442 H4466 0.950 . S
C4443 C4460 1.574 . S
C4443 C4462 1.368 . S
C4443 H4467 0.949 . S
H4444 C4448 0.949 . S
C4445 C4446 1.349 . S
C4445 C4447 1.327 . S
C4445 H4468 0.950 . S
C4446 C4445 1.349 . S
C4446 C4458 1.349 . S
C4447 C4445 1.327 . S
C4447 C4463 1.429 . S
C4447 H4469 0.950 . S
C4448 H4444 0.949 . S
C4448 C4456 1.574 . S
C4448 C4464 1.368 . S
H4449 C4457 0.950 . S
H4450 C4455 0.950 . S
H4451 C4456 0.949 . S
H4452 C4458 0.950 . S
H4453 C4459 0.950 . S
H4454 C4460 0.949 . S
C4455 H4450 0.950 . S
C4455 C4457 1.327 . S
C4455 C4461 1.429 . S
C4456 C4448 1.574 . S
C4456 H4451 0.949 . S
C4456 C4462 1.368 . S
C4457 C4441 1.349 . S
C4457 H4449 0.950 . S
C4457 C4455 1.327 . S
C4458 C4446 1.349 . S
C4458 H4452 0.950 . S
C4458 C4459 1.327 . S
C4459 H4453 0.950 . S
C4459 C4458 1.327 . S
C4459 C4463 1.429 . S
C4460 C4443 1.574 . S
C4460 H4454 0.949 . S
C4460 C4464 1.368 . S
C4461 C4442 1.429 . S
C4461 C4455 1.429 . S
C4461 C4462 1.523 . S
C4462 C4443 1.368 . S
C4462 C4456 1.368 . S
C4462 C4461 1.523 . S
C4463 C4447 1.429 . S
C4463 C4459 1.429 . S
C4463 C4464 1.523 . S
C4464 C4448 1.368 . S
C4464 C4460 1.368 . S
C4464 C4463 1.523 . S
H4465 C4440 0.950 . S
H4466 C4442 0.950 . S
H4467 C4443 0.949 . S
H4468 C4445 0.950 . S
H4469 C4447 0.950 . S
C4470 C4471 1.349 . S
C4470 C4472 1.327 . S
C4470 H4495 0.950 . S
C4471 C4470 1.349 . S
C4471 C4487 1.349 . S
C4472 C4470 1.327 . S
C4472 C4491 1.429 . S
C4472 H4496 0.950 . S
C4473 C4490 1.574 . S
C4473 C4492 1.368 . S
C4473 H4497 0.949 . S
H4474 C4478 0.949 . S
C4475 C4476 1.349 . S
C4475 C4477 1.327 . S
C4475 H4498 0.950 . S
C4476 C4475 1.349 . S
C4476 C4488 1.349 . S
C4477 C4475 1.327 . S
C4477 C4493 1.429 . S
C4477 H4499 0.950 . S
C4478 H4474 0.949 . S
C4478 C4486 1.574 . S
C4478 C4494 1.368 . S
H4479 C4487 0.950 . S
H4480 C4485 0.950 . S
H4481 C4486 0.949 . S
H4482 C4488 0.950 . S
H4483 C4489 0.950 . S
H4484 C4490 0.949 . S
C4485 H4480 0.950 . S
C4485 C4487 1.327 . S
C4485 C4491 1.429 . S
C4486 C4478 1.574 . S
C4486 H4481 0.949 . S
C4486 C4492 1.368 . S
C4487 C4471 1.349 . S
C4487 H4479 0.950 . S
C4487 C4485 1.327 . S
C4488 C4476 1.349 . S
C4488 H4482 0.950 . S
C4488 C4489 1.327 . S
C4489 H4483 0.950 . S
C4489 C4488 1.327 . S
C4489 C4493 1.429 . S
C4490 C4473 1.574 . S
C4490 H4484 0.949 . S
C4490 C4494 1.368 . S
C4491 C4472 1.429 . S
C4491 C4485 1.429 . S
C4491 C4492 1.523 . S
C4492 C4473 1.368 . S
C4492 C4486 1.368 . S
C4492 C4491 1.523 . S
C4493 C4477 1.429 . S
C4493 C4489 1.429 . S
C4493 C4494 1.523 . S
C4494 C4478 1.368 . S
C4494 C4490 1.368 . S
C4494 C4493 1.523 . S
H4495 C4470 0.950 . S
H4496 C4472 0.950 . S
H4497 C4473 0.949 . S
H4498 C4475 0.950 . S
H4499 C4477 0.950 . S
C4500 C4501 1.349 . S
C4500 C4502 1.327 . S
C4500 H4525 0.950 . S
C4501 C4500 1.349 . S
C4501 C4517 1.349 . S
C4502 C4500 1.327 . S
C4502 C4521 1.429 . S
C4502 H4526 0.950 . S
C4503 C4520 1.574 . S
C4503 C4522 1.368 . S
C4503 H4527 0.949 . S
H4504 C4508 0.949 . S
C4505 C4506 1.349 . S
C4505 C4507 1.327 . S
C4505 H4528 0.950 . S
C4506 C4505 1.349 . S
C4506 C4518 1.349 . S
C4507 C4505 1.327 . S
C4507 C4523 1.429 . S
C4507 H4529 0.950 . S
C4508 H4504 0.949 . S
C4508 C4516 1.574 . S
C4508 C4524 1.368 . S
H4509 C4517 0.950 . S
H4510 C4515 0.950 . S
H4511 C4516 0.949 . S
H4512 C4518 0.950 . S
H4513 C4519 0.950 . S
H4514 C4520 0.949 . S
C4515 H4510 0.950 . S
C4515 C4517 1.327 . S
C4515 C4521 1.429 . S
C4516 C4508 1.574 . S
C4516 H4511 0.949 . S
C4516 C4522 1.368 . S
C4517 C4501 1.349 . S
C4517 H4509 0.950 . S
C4517 C4515 1.327 . S
C4518 C4506 1.349 . S
C4518 H4512 0.950 . S
C4518 C4519 1.327 . S
C4519 H4513 0.950 . S
C4519 C4518 1.327 . S
C4519 C4523 1.429 . S
C4520 C4503 1.574 . S
C4520 H4514 0.949 . S
C4520 C4524 1.368 . S
C4521 C4502 1.429 . S
C4521 C4515 1.429 . S
C4521 C4522 1.523 . S
C4522 C4503 1.368 . S
C4522 C4516 1.368 . S
C4522 C4521 1.523 . S
C4523 C4507 1.429 . S
C4523 C4519 1.429 . S
C4523 C4524 1.523 . S
C4524 C4508 1.368 . S
C4524 C4520 1.368 . S
C4524 C4523 1.523 . S
H4525 C4500 0.950 . S
H4526 C4502 0.950 . S
H4527 C4503 0.949 . S
H4528 C4505 0.950 . S
H4529 C4507 0.950 . S
C4530 C4531 1.349 . S
C4530 C4532 1.327 . S
C4530 H4555 0.950 . S
C4531 C4530 1.349 . S
C4531 C4547 1.349 . S
C4532 C4530 1.327 . S
C4532 C4551 1.429 . S
C4532 H4556 0.950 . S
C4533 C4550 1.574 . S
C4533 C4552 1.368 . S
C4533 H4557 0.949 . S
H4534 C4538 0.949 . S
C4535 C4536 1.349 . S
C4535 C4537 1.327 . S
C4535 H4558 0.950 . S
C4536 C4535 1.349 . S
C4536 C4548 1.349 . S
C4537 C4535 1.327 . S
C4537 C4553 1.429 . S
C4537 H4559 0.950 . S
C4538 H4534 0.949 . S
C4538 C4546 1.574 . S
C4538 C4554 1.368 . S
H4539 C4547 0.950 . S
H4540 C4545 0.950 . S
H4541 C4546 0.949 . S
H4542 C4548 0.950 . S
H4543 C4549 0.950 . S
H4544 C4550 0.949 . S
C4545 H4540 0.950 . S
C4545 C4547 1.327 . S
C4545 C4551 1.429 . S
C4546 C4538 1.574 . S
C4546 H4541 0.949 . S
C4546 C4552 1.368 . S
C4547 C4531 1.349 . S
C4547 H4539 0.950 . S
C4547 C4545 1.327 . S
C4548 C4536 1.349 . S
C4548 H4542 0.950 . S
C4548 C4549 1.327 . S
C4549 H4543 0.950 . S
C4549 C4548 1.327 . S
C4549 C4553 1.429 . S
C4550 C4533 1.574 . S
C4550 H4544 0.949 . S
C4550 C4554 1.368 . S
C4551 C4532 1.429 . S
C4551 C4545 1.429 . S
C4551 C4552 1.523 . S
C4552 C4533 1.368 . S
C4552 C4546 1.368 . S
C4552 C4551 1.523 . S
C4553 C4537 1.429 . S
C4553 C4549 1.429 . S
C4553 C4554 1.523 . S
C4554 C4538 1.368 . S
C4554 C4550 1.368 . S
C4554 C4553 1.523 . S
H4555 C4530 0.950 . S
H4556 C4532 0.950 . S
H4557 C4533 0.949 . S
H4558 C4535 0.950 . S
H4559 C4537 0.950 . S
C4560 C4561 1.349 . S
C4560 C4562 1.327 . S
C4560 H4585 0.950 . S
C4561 C4560 1.349 . S
C4561 C4577 1.349 . S
C4562 C4560 1.327 . S
C4562 C4581 1.429 . S
C4562 H4586 0.950 . S
C4563 C4580 1.574 . S
C4563 C4582 1.368 . S
C4563 H4587 0.949 . S
H4564 C4568 0.949 . S
C4565 C4566 1.349 . S
C4565 C4567 1.327 . S
C4565 H4588 0.950 . S
C4566 C4565 1.349 . S
C4566 C4578 1.349 . S
C4567 C4565 1.327 . S
C4567 C4583 1.429 . S
C4567 H4589 0.950 . S
C4568 H4564 0.949 . S
C4568 C4576 1.574 . S
C4568 C4584 1.368 . S
H4569 C4577 0.950 . S
H4570 C4575 0.950 . S
H4571 C4576 0.949 . S
H4572 C4578 0.950 . S
H4573 C4579 0.950 . S
H4574 C4580 0.949 . S
C4575 H4570 0.950 . S
C4575 C4577 1.327 . S
C4575 C4581 1.429 . S
C4576 C4568 1.574 . S
C4576 H4571 0.949 . S
C4576 C4582 1.368 . S
C4577 C4561 1.349 . S
C4577 H4569 0.950 . S
C4577 C4575 1.327 . S
C4578 C4566 1.349 . S
C4578 H4572 0.950 . S
C4578 C4579 1.327 . S
C4579 H4573 0.950 . S
C4579 C4578 1.327 . S
C4579 C4583 1.429 . S
C4580 C4563 1.574 . S
C4580 H4574 0.949 . S
C4580 C4584 1.368 . S
C4581 C4562 1.429 . S
C4581 C4575 1.429 . S
C4581 C4582 1.523 . S
C4582 C4563 1.368 . S
C4582 C4576 1.368 . S
C4582 C4581 1.523 . S
C4583 C4567 1.429 . S
C4583 C4579 1.429 . S
C4583 C4584 1.523 . S
C4584 C4568 1.368 . S
C4584 C4580 1.368 . S
C4584 C4583 1.523 . S
H4585 C4560 0.950 . S
H4586 C4562 0.950 . S
H4587 C4563 0.949 . S
H4588 C4565 0.950 . S
H4589 C4567 0.950 . S
C4590 C4591 1.349 . S
C4590 C4592 1.327 . S
C4590 H4615 0.950 . S
C4591 C4590 1.349 . S
C4591 C4607 1.349 . S
C4592 C4590 1.327 . S
C4592 C4611 1.429 . S
C4592 H4616 0.950 . S
C4593 C4610 1.574 . S
C4593 C4612 1.368 . S
C4593 H4617 0.949 . S
H4594 C4598 0.949 . S
C4595 C4596 1.349 . S
C4595 C4597 1.327 . S
C4595 H4618 0.950 . S
C4596 C4595 1.349 . S
C4596 C4608 1.349 . S
C4597 C4595 1.327 . S
C4597 C4613 1.429 . S
C4597 H4619 0.950 . S
C4598 H4594 0.949 . S
C4598 C4606 1.574 . S
C4598 C4614 1.368 . S
H4599 C4607 0.950 . S
H4600 C4605 0.950 . S
H4601 C4606 0.949 . S
H4602 C4608 0.950 . S
H4603 C4609 0.950 . S
H4604 C4610 0.949 . S
C4605 H4600 0.950 . S
C4605 C4607 1.327 . S
C4605 C4611 1.429 . S
C4606 C4598 1.574 . S
C4606 H4601 0.949 . S
C4606 C4612 1.368 . S
C4607 C4591 1.349 . S
C4607 H4599 0.950 . S
C4607 C4605 1.327 . S
C4608 C4596 1.349 . S
C4608 H4602 0.950 . S
C4608 C4609 1.327 . S
C4609 H4603 0.950 . S
C4609 C4608 1.327 . S
C4609 C4613 1.429 . S
C4610 C4593 1.574 . S
C4610 H4604 0.949 . S
C4610 C4614 1.368 . S
C4611 C4592 1.429 . S
C4611 C4605 1.429 . S
C4611 C4612 1.523 1_655 S
C4612 C4593 1.368 . S
C4612 C4606 1.368 . S
C4612 C4611 1.523 1_455 S
C4613 C4597 1.429 . S
C4613 C4609 1.429 . S
C4613 C4614 1.523 . S
C4614 C4598 1.368 . S
C4614 C4610 1.368 . S
C4614 C4613 1.523 . S
H4615 C4590 0.950 . S
H4616 C4592 0.950 . S
H4617 C4593 0.949 . S
H4618 C4595 0.950 . S
H4619 C4597 0.950 . S
C4620 C4621 1.349 . S
C4620 C4622 1.327 . S
C4620 H4645 0.950 . S
C4621 C4620 1.349 . S
C4621 C4637 1.349 . S
C4622 C4620 1.327 . S
C4622 C4641 1.429 . S
C4622 H4646 0.950 . S
C4623 C4640 1.574 . S
C4623 C4642 1.368 . S
C4623 H4647 0.949 . S
H4624 C4628 0.949 . S
C4625 C4626 1.349 . S
C4625 C4627 1.327 . S
C4625 H4648 0.950 . S
C4626 C4625 1.349 . S
C4626 C4638 1.349 . S
C4627 C4625 1.327 . S
C4627 C4643 1.429 . S
C4627 H4649 0.950 . S
C4628 H4624 0.949 . S
C4628 C4636 1.574 . S
C4628 C4644 1.368 . S
H4629 C4637 0.950 . S
H4630 C4635 0.950 . S
H4631 C4636 0.949 . S
H4632 C4638 0.950 . S
H4633 C4639 0.950 . S
H4634 C4640 0.949 . S
C4635 H4630 0.950 . S
C4635 C4637 1.327 . S
C4635 C4641 1.429 . S
C4636 C4628 1.574 . S
C4636 H4631 0.949 . S
C4636 C4642 1.368 . S
C4637 C4621 1.349 . S
C4637 H4629 0.950 . S
C4637 C4635 1.327 . S
C4638 C4626 1.349 . S
C4638 H4632 0.950 . S
C4638 C4639 1.327 . S
C4639 H4633 0.950 . S
C4639 C4638 1.327 . S
C4639 C4643 1.429 . S
C4640 C4623 1.574 . S
C4640 H4634 0.949 . S
C4640 C4644 1.368 . S
C4641 C4622 1.429 . S
C4641 C4635 1.429 . S
C4641 C4642 1.523 . S
C4642 C4623 1.368 . S
C4642 C4636 1.368 . S
C4642 C4641 1.523 . S
C4643 C4627 1.429 . S
C4643 C4639 1.429 . S
C4643 C4644 1.523 . S
C4644 C4628 1.368 . S
C4644 C4640 1.368 . S
C4644 C4643 1.523 . S
H4645 C4620 0.950 . S
H4646 C4622 0.950 . S
H4647 C4623 0.949 . S
H4648 C4625 0.950 . S
H4649 C4627 0.950 . S
C4650 C4651 1.349 . S
C4650 C4652 1.327 . S
C4650 H4675 0.950 . S
C4651 C4650 1.349 . S
C4651 C4667 1.349 . S
C4652 C4650 1.327 . S
C4652 C4671 1.429 . S
C4652 H4676 0.950 . S
C4653 C4670 1.574 1_565 S
C4653 C4672 1.368 . S
C4653 H4677 0.949 . S
H4654 C4658 0.949 . S
C4655 C4656 1.349 . S
C4655 C4657 1.327 . S
C4655 H4678 0.950 . S
C4656 C4655 1.349 . S
C4656 C4668 1.349 . S
C4657 C4655 1.327 . S
C4657 C4673 1.429 . S
C4657 H4679 0.950 . S
C4658 H4654 0.949 . S
C4658 C4666 1.574 . S
C4658 C4674 1.368 . S
H4659 C4667 0.950 . S
H4660 C4665 0.950 . S
H4661 C4666 0.949 . S
H4662 C4668 0.950 . S
H4663 C4669 0.950 . S
H4664 C4670 0.949 . S
C4665 H4660 0.950 . S
C4665 C4667 1.327 . S
C4665 C4671 1.429 . S
C4666 C4658 1.574 . S
C4666 H4661 0.949 . S
C4666 C4672 1.368 1_545 S
C4667 C4651 1.349 . S
C4667 H4659 0.950 . S
C4667 C4665 1.327 . S
C4668 C4656 1.349 . S
C4668 H4662 0.950 . S
C4668 C4669 1.327 . S
C4669 H4663 0.950 . S
C4669 C4668 1.327 . S
C4669 C4673 1.429 . S
C4670 C4653 1.574 1_545 S
C4670 H4664 0.949 . S
C4670 C4674 1.368 . S
C4671 C4652 1.429 . S
C4671 C4665 1.429 . S
C4671 C4672 1.523 . S
C4672 C4653 1.368 . S
C4672 C4666 1.368 1_565 S
C4672 C4671 1.523 . S
C4673 C4657 1.429 . S
C4673 C4669 1.429 . S
C4673 C4674 1.523 . S
C4674 C4658 1.368 . S
C4674 C4670 1.368 . S
C4674 C4673 1.523 . S
H4675 C4650 0.950 . S
H4676 C4652 0.950 . S
H4677 C4653 0.949 . S
H4678 C4655 0.950 . S
H4679 C4657 0.950 . S
C1441 C1098 2.124 . S
C1446 C18 2.124 . S
C1471 C1138 2.123 . S
C1476 C58 2.123 1_655 S
C1501 C98 2.125 . S
C1506 C1178 2.125 . S
C1531 C138 2.124 . S
C1536 C498 2.124 . S
C1561 C178 2.126 . S
C1566 C538 2.126 . S
C1591 C578 2.122 . S
C1596 C218 2.122 1_565 S
C1621 C249 2.123 1_565 S
C1626 C849 2.123 . S
C1651 C889 2.124 . S
C1656 C289 2.124 . S
C1681 C329 2.125 . S
C1686 C929 2.125 . S
C1711 C1209 2.123 . S
C1716 C369 2.123 1_655 S
C1741 C409 2.126 . S
C1746 C1249 2.126 . S
C1771 C1289 2.123 . S
C1776 C449 2.123 . S
C1801 C978 2.123 . S
C1806 C618 2.123 . S
C1831 C658 2.125 . S
C1836 C1018 2.125 . S
C1861 C1058 2.124 . S
C1866 C698 2.124 . S
C1891 C729 2.124 . S
C1896 C1329 2.124 . S
C1921 C769 2.125 . S
C1926 C1369 2.125 . S
C1951 C1409 2.124 . S
C1956 C809 2.124 . S
C1981 C9 1.617 . S
C1986 C258 1.617 . S
C2011 C298 1.615 . S
C2016 C49 1.615 . S
C2041 C89 1.619 . S
C2046 C338 1.619 . S
C2071 C378 1.617 . S
C2076 C129 1.617 . S
C2101 C169 1.617 . S
C2106 C418 1.617 . S
C2131 C458 1.617 . S
C2136 C209 1.617 . S
C2161 C738 1.617 . S
C2166 C489 1.617 . S
C2191 C529 1.617 . S
C2196 C778 1.617 . S
C2221 C818 1.618 . S
C2226 C569 1.618 . S
C2251 C609 1.618 . S
C2256 C858 1.618 . S
C2281 C898 1.616 . S
C2286 C649 1.616 . S
C2311 C689 1.617 . S
C2316 C938 1.617 . S
C2341 C969 1.618 . S
C2346 C1218 1.618 . S
C2371 C1258 1.615 . S
C2376 C1009 1.615 . S
C2401 C1298 1.618 . S
C2406 C1049 1.618 . S
C2431 C1338 1.617 . S
C2436 C1089 1.617 . S
C2461 C1129 1.616 . S
C2466 C1378 1.616 . S
C2491 C1169 1.618 . S
C2496 C1418 1.618 . S
C2521 C15 1.840 . S
C2526 C99 1.833 . S
C2551 C55 1.839 . S
C2556 C19 1.833 . S
C2581 C59 1.834 . S
C2586 C95 1.841 . S
C2611 C135 1.840 . S
C2616 C179 1.833 . S
C2641 C219 1.834 . S
C2646 C175 1.840 . S
C2671 C139 1.833 . S
C2676 C215 1.840 . S
C2701 C330 1.833 . S
C2706 C246 1.839 . S
C2731 C286 1.839 . S
C2736 C250 1.833 . S
C2761 C326 1.840 . S
C2766 C290 1.834 . S
C2791 C410 1.833 . S
C2796 C366 1.839 . S
C2821 C406 1.840 . S
C2826 C450 1.834 . S
C2851 C446 1.839 . S
C2856 C370 1.833 . S
C2881 C579 1.834 . S
C2886 C495 1.840 . S
C2911 C499 1.834 . S
C2916 C535 1.840 1_545 S
C2941 C539 1.834 . S
C2946 C575 1.840 . S
C2971 C659 1.834 . S
C2976 C615 1.840 . S
C3001 C655 1.840 . S
C3006 C699 1.834 . S
C3031 C619 1.834 . S
C3036 C695 1.840 . S
C3061 C726 1.840 . S
C3066 C810 1.833 . S
C3091 C730 1.834 . S
C3096 C766 1.840 . S
C3121 C806 1.840 . S
C3126 C770 1.834 . S
C3151 C890 1.833 . S
C3156 C846 1.840 . S
C3181 C930 1.833 . S
C3186 C886 1.840 1_545 S
C3211 C850 1.833 . S
C3216 C926 1.840 . S
C3241 C1059 1.834 . S
C3246 C975 1.840 . S
C3271 C1015 1.840 . S
C3276 C979 1.834 . S
C3301 C1019 1.834 . S
C3306 C1055 1.840 . S
C3331 C1095 1.840 . S
C3336 C1139 1.834 . S
C3361 C1135 1.840 . S
C3366 C1179 1.833 . S
C3391 C1099 1.834 . S
C3396 C1175 1.841 1_455 S
C3421 C1206 1.840 . S
C3426 C1290 1.833 . S
C3451 C1246 1.840 . S
C3456 C1210 1.833 . S
C3481 C1250 1.834 . S
C3486 C1286 1.840 1_455 S
C3511 C1326 1.840 . S
C3516 C1370 1.834 . S
C3541 C1410 1.833 . S
C3546 C1366 1.840 . S
C3571 C1330 1.834 . S
C3576 C1406 1.840 . S
C3601 C90 1.094 . S
C3606 C6 1.128 . S
C3631 C46 1.127 . S
C3636 C10 1.093 . S
C3661 C50 1.094 . S
C3666 C86 1.127 . S
C3691 C170 1.094 . S
C3696 C126 1.128 . S
C3721 C166 1.127 . S
C3726 C210 1.094 . S
C3751 C206 1.127 . S
C3756 C130 1.093 . S
C3781 C339 1.095 . S
C3786 C255 1.128 . S
C3811 C295 1.128 . S
C3816 C259 1.094 . S
C3841 C299 1.094 . S
C3846 C335 1.127 . S
C3871 C419 1.095 . S
C3876 C375 1.128 . S
C3901 C459 1.094 . S
C3906 C415 1.128 . S
C3931 C379 1.094 . S
C3936 C455 1.127 . S
C3961 C486 1.127 . S
C3966 C570 1.094 . S
C3991 C526 1.127 . S
C3996 C490 1.093 . S
C4021 C566 1.128 . S
C4026 C530 1.094 . S
C4051 C650 1.094 . S
C4056 C606 1.127 . S
C4081 C646 1.128 . S
C4086 C690 1.094 . S
C4111 C686 1.130 . S
C4116 C610 1.093 . S
C4141 C819 1.094 . S
C4146 C735 1.127 . S
C4171 C739 1.093 . S
C4176 C775 1.127 . S
C4201 C815 1.123 1_655 S
C4206 C779 1.094 . S
C4231 C899 1.094 . S
C4236 C855 1.127 . S
C4261 C895 1.128 . S
C4266 C939 1.094 . S
C4291 C935 1.127 . S
C4296 C859 1.094 . S
C4321 C966 1.127 . S
C4326 C1050 1.094 . S
C4351 C970 1.093 . S
C4356 C1006 1.130 . S
C4381 C1010 1.094 . S
C4386 C1046 1.127 . S
C4411 C1130 1.094 . S
C4416 C1086 1.127 . S
C4441 C1126 1.128 . S
C4446 C1170 1.094 . S
C4471 C1166 1.127 . S
C4476 C1090 1.093 . S
C4501 C1299 1.094 . S
C4506 C1215 1.128 . S
C4531 C1219 1.094 . S
C4536 C1255 1.127 . S
C4561 C1295 1.127 . S
C4566 C1259 1.094 . S
C4591 C1379 1.094 . S
C4596 C1335 1.127 . S
C4621 C1375 1.124 1_565 S
C4626 C1419 1.094 . S
C4651 C1415 1.127 . S
C4656 C1339 1.093 . S
