# Generated by pormake.
# Topology bsn, (6)-cn, num edge types: 1
# Building blocks:
#     Node 0, Type 0, BuildingBlock: FUNLAD_clean_sbu_0, # of connection points: 6
#     Node 1, Type 0, BuildingBlock: FUNLAD_clean_sbu_0, # of connection points: 6
#     Node 2, Type 0, BuildingBlock: FUNLAD_clean_sbu_0, # of connection points: 6
#     Node 3, Type 0, BuildingBlock: FUNLAD_clean_sbu_0, # of connection points: 6
#     Edge 4, Type (0, 0), BuildingBlock: KIFKEQ_clean_linker_1, # of connection points: 2
#     Edge 5, Type (0, 0), BuildingBlock: KIFKEQ_clean_linker_1, # of connection points: 2
#     Edge 6, Type (0, 0), BuildingBlock: KIFKEQ_clean_linker_1, # of connection points: 2
#     Edge 7, Type (0, 0), BuildingBlock: KIFKEQ_clean_linker_1, # of connection points: 2
#     Edge 8, Type (0, 0), BuildingBlock: KIFKEQ_clean_linker_1, # of connection points: 2
#     Edge 9, Type (0, 0), BuildingBlock: KIFKEQ_clean_linker_1, # of connection points: 2
#     Edge 10, Type (0, 0), BuildingBlock: KIFKEQ_clean_linker_1, # of connection points: 2
#     Edge 11, Type (0, 0), BuildingBlock: KIFKEQ_clean_linker_1, # of connection points: 2
#     Edge 12, Type (0, 0), BuildingBlock: KIFKEQ_clean_linker_1, # of connection points: 2
#     Edge 13, Type (0, 0), BuildingBlock: KIFKEQ_clean_linker_1, # of connection points: 2
#     Edge 14, Type (0, 0), BuildingBlock: KIFKEQ_clean_linker_1, # of connection points: 2
#     Edge 15, Type (0, 0), BuildingBlock: KIFKEQ_clean_linker_1, # of connection points: 2
# Relax obj value: 0.461
# Max RMSD: 0.272
# Mean RMSD: 0.272
data_MOF--net-bsn--node1-FUNLAD_clean_sbu_0--edge1-KIFKEQ_clean_linker_1
_symmetry_space_group_name_H-M    P1
_symmetry_Int_Tables_number       1
_symmetry_cell_setting            triclinic
loop_
_symmetry_equiv_pos_as_xyz
'x, y, z'
_cell_length_a     27.779327
_cell_length_b     27.748571
_cell_length_c     21.658313
_cell_angle_alpha  90.941051
_cell_angle_beta   94.402947
_cell_angle_gamma 98.181426
loop_
_atom_site_label
_atom_site_type_symbol
_atom_site_fract_x
_atom_site_fract_y
_atom_site_fract_z
_atom_type_partial_charge
C0 C 0.16564 0.31196 0.34665 0.0
N1 N 0.05451 0.30584 0.21422 0.0
C2 C 0.07735 0.34573 0.18713 0.0
C3 C 0.07868 0.34656 0.12299 0.0
C4 C 0.05679 0.30572 0.08699 0.0
C5 C 1.03181 0.2659 0.11584 0.0
C6 C 1.0309 0.26683 0.17999 0.0
Zn7 Zn 0.06106 0.30137 0.30733 0.0
C8 C 0.06552 0.19821 0.35088 0.0
N9 N 0.0791 0.28951 0.49975 0.0
C10 C 0.11756 0.3168 0.53229 0.0
C11 C 0.04447 0.26066 0.52859 0.0
C12 C 0.04689 0.2596 0.59292 0.0
C13 C 0.08561 0.28818 0.62791 0.0
C14 C 0.12167 0.31651 0.5968 0.0
Zn15 Zn 0.07116 0.29356 0.40665 0.0
O16 O 0.13431 0.3188 0.30379 0.0
C17 C 0.06796 0.39622 0.3764 0.0
O18 O 0.1513 0.29752 0.39884 0.0
H19 H 1.01434 0.2391 0.50169 0.0
H20 H 0.09621 0.37611 0.21544 0.0
H21 H 0.14461 0.3395 0.50822 0.0
O22 O 0.05473 0.37988 0.32124 0.0
O23 O 0.07878 0.367 0.41735 0.0
H24 H 1.01267 0.23572 0.20258 0.0
O25 O 0.99011 0.28872 0.40704 0.0
O26 O 0.98808 0.28436 0.30572 0.0
O27 O 0.06414 0.22076 0.40131 0.0
O28 O 0.06763 0.22179 0.30065 0.0
C29 C 0.96578 0.28263 0.35421 0.0
H30 H 0.09853 0.37774 0.10206 0.0
H31 H 1.01408 0.23404 0.08915 0.0
H32 H 1.01786 0.23778 0.61489 0.0
H33 H 0.15249 0.33856 0.62197 0.0
C34 C 0.14935 0.79901 0.61845 0.0
N35 N 0.04497 0.79025 0.46364 0.0
C36 C 0.08609 0.80959 0.43746 0.0
C37 C 0.08703 0.80994 0.37341 0.0
C38 C 0.04511 0.79062 0.33604 0.0
C39 C 1.00331 0.77024 0.36406 0.0
C40 C 1.00412 0.77022 0.42853 0.0
Zn41 Zn 0.04546 0.79557 0.55676 0.0
C42 C 1.03603 0.70167 0.60618 0.0
N43 N 0.05667 0.81224 0.7474 0.0
C44 C 0.08304 0.85031 0.78079 0.0
C45 C 1.02913 0.77567 0.77517 0.0
C46 C 1.02711 0.77647 0.83902 0.0
C47 C 0.05343 0.81548 0.87478 0.0
C48 C 0.08194 0.85269 0.84508 0.0
Zn49 Zn 0.05502 0.80842 0.65414 0.0
O50 O 0.12357 0.78229 0.56914 0.0
C51 C 0.06706 0.90096 0.59096 0.0
O52 O 0.12905 0.81796 0.66077 0.0
H53 H 1.00824 0.74591 0.74765 0.0
H54 H 0.11789 0.82596 0.46627 0.0
H55 H 0.1046 0.87897 0.7575 0.0
O56 O 0.06772 0.86854 0.54976 0.0
O57 O 0.05706 0.88815 0.64548 0.0
H58 H 0.97194 0.75496 0.4505 0.0
O59 O 0.98059 0.79974 0.65294 0.0
O60 O 0.96827 0.80763 0.55286 0.0
O61 O 0.05463 0.72724 0.65421 0.0
O62 O 1.02277 0.72308 0.55845 0.0
C63 C 0.95169 0.80367 0.60623 0.0
H64 H 0.1197 0.82657 0.35333 0.0
H65 H 0.97042 0.75473 0.33643 0.0
H66 H 1.00542 0.74658 0.86016 0.0
H67 H 0.10253 0.88355 0.87106 0.0
C68 C 0.66443 0.79252 0.8499 0.0
N69 N 0.55432 0.77365 0.71362 0.0
C70 C 0.57656 0.81368 0.68625 0.0
C71 C 0.57559 0.81552 0.62217 0.0
C72 C 0.55204 0.77555 0.58596 0.0
C73 C 0.52958 0.73447 0.61506 0.0
C74 C 0.5309 0.73441 0.67961 0.0
Zn75 Zn 0.55889 0.77476 0.8071 0.0
C76 C 0.56075 0.68071 0.86659 0.0
N77 N 0.5739 0.78757 -0.00045 0.0
C78 C 0.61144 0.81453 0.03423 0.0
C79 C 0.53621 0.76131 0.02616 0.0
C80 C 0.53467 0.76221 0.09006 0.0
C81 C 0.57256 0.78996 0.12693 0.0
C82 C 0.61166 0.81599 0.09873 0.0
Zn83 Zn 0.57082 0.78511 0.90613 0.0
O84 O 0.63275 0.79125 0.80488 0.0
C85 C 0.56628 0.87951 0.85973 0.0
O86 O 0.65071 0.78665 0.90462 0.0
H87 H 0.50715 0.73952 -0.00222 0.0
H88 H 0.59568 0.84411 0.71419 0.0
H89 H 0.64094 0.83513 0.01187 0.0
O90 O 0.5512 0.85419 0.81031 0.0
O91 O 0.58125 0.85854 0.90696 0.0
H92 H 0.51344 0.70306 0.70254 0.0
O93 O 0.48948 0.7851 0.90009 0.0
O94 O 0.48594 0.75796 0.80417 0.0
O95 O 0.56082 0.71108 0.91042 0.0
O96 O 0.56425 0.6959 0.8115 0.0
C97 C 0.46429 0.76902 0.85015 0.0
H98 H 0.59395 0.84748 0.60114 0.0
H99 H 0.51099 0.70306 0.58821 0.0
H100 H 0.50437 0.74108 0.11052 0.0
H101 H 0.64144 0.83781 0.12613 0.0
C102 C 0.6495 0.28107 0.11719 0.0
N103 N 0.54639 0.28847 0.96538 0.0
C104 C 0.58596 0.30953 0.93746 0.0
C105 C 0.58476 0.31048 0.87317 0.0
C106 C 0.54231 0.28978 0.83748 0.0
C107 C 0.50175 0.26893 0.86761 0.0
C108 C 0.50466 0.26855 0.93202 0.0
Zn109 Zn 0.54998 0.28567 0.05833 0.0
C110 C 0.53504 0.18293 0.09078 0.0
N111 N 0.55339 0.27707 0.24784 0.0
C112 C 0.57951 0.31486 0.28195 0.0
C113 C 0.52716 0.23915 0.27488 0.0
C114 C 0.52586 0.23872 0.33899 0.0
C115 C 0.55148 0.27789 0.37508 0.0
C116 C 0.57893 0.31609 0.3461 0.0
Zn117 Zn 0.55139 0.27935 0.15495 0.0
O118 O 0.62702 0.27233 0.06356 0.0
C119 C 0.56485 0.38261 0.10893 0.0
O120 O 0.62583 0.29025 0.16222 0.0
H121 H 0.50643 0.20973 0.24659 0.0
H122 H 0.61867 0.32523 0.9651 0.0
H123 H 0.60035 0.34438 0.2593 0.0
O124 O 0.57325 0.35833 0.06245 0.0
O125 O 0.55023 0.35999 0.1566 0.0
H126 H 0.47373 0.25194 0.9554 0.0
O127 O 0.47709 0.26779 0.15277 0.0
O128 O 0.47295 0.29957 0.06119 0.0
O129 O 0.55167 0.1996 0.1448 0.0
O130 O 0.52664 0.21254 0.04916 0.0
C131 C 0.45205 0.284 0.10909 0.0
H132 H 0.61706 0.32633 0.85172 0.0
H133 H 0.46814 0.25314 0.84174 0.0
H134 H 0.50401 0.20884 0.35997 0.0
H135 H 0.59961 0.34658 0.37276 0.0
H136 H 0.99958 0.45834 0.35334 0.0
H137 H 0.13721 0.44658 0.45403 0.0
H138 H 0.99221 0.53042 0.41728 0.0
H139 H 0.12876 0.51506 0.52017 0.0
H140 H 0.11993 0.66519 0.60034 0.0
H141 H 0.13044 0.59561 0.53712 0.0
H142 H 0.97389 0.5536 0.51584 0.0
H143 H 0.96413 0.62587 0.57698 0.0
C144 C 1.02892 0.4721 0.38771 0.0
C145 C 0.06924 0.44724 0.39811 0.0
C146 C 1.02419 0.51257 0.42575 0.0
C147 C 0.05939 0.52848 0.47532 0.0
C148 C 0.10097 0.50494 0.48262 0.0
C149 C 0.10598 0.46544 0.4443 0.0
C150 C 0.08799 0.6396 0.58545 0.0
C151 C 1.0414 0.65017 0.59587 0.0
C152 C 0.0938 0.59978 0.54769 0.0
C153 C 0.05299 0.56872 0.51992 0.0
C154 C 1.00629 0.57716 0.53465 0.0
C155 C 1.0006 0.61772 0.57152 0.0
H156 H 0.70857 0.87448 0.80372 0.0
H157 H 0.731 0.72875 0.85063 0.0
H158 H 0.77321 0.87917 0.734 0.0
H159 H 0.79821 0.73382 0.78306 0.0
H160 H 0.87639 0.73012 0.60971 0.0
H161 H 0.80985 0.73038 0.67721 0.0
H162 H 0.8535 0.88476 0.71337 0.0
H163 H 0.91776 0.88423 0.64348 0.0
C164 C 0.72949 0.84442 0.80181 0.0
C165 C 0.71555 0.80176 0.834 0.0
C166 C 0.76634 0.84678 0.76098 0.0
C167 C 0.79077 0.80653 0.75132 0.0
C168 C 0.77946 0.76516 0.78761 0.0
C169 C 0.74198 0.76268 0.8281 0.0
C170 C 0.86966 0.76452 0.62922 0.0
C171 C 0.90115 0.80747 0.61945 0.0
C172 C 0.83256 0.76451 0.66977 0.0
C173 C 0.82665 0.80737 0.70258 0.0
C174 C 0.85618 0.85097 0.6891 0.0
C175 C 0.89273 0.85097 0.64798 0.0
H176 H 0.48327 0.42153 0.08038 0.0
H177 H 0.6397 0.45588 0.10048 0.0
H178 H 0.47856 0.48855 0.01098 0.0
H179 H 0.63564 0.5257 0.03426 0.0
H180 H 0.62527 0.61446 0.86397 0.0
H181 H 0.62474 0.54429 0.9312 0.0
H182 H 0.4834 0.5677 -0.01296 0.0
H183 H 0.48308 0.63457 0.91697 0.0
C184 C 0.5165 0.44566 0.07336 0.0
C185 C 0.56169 0.43425 0.09755 0.0
C186 C 0.51405 0.48391 0.03232 0.0
C187 C 0.55684 0.51255 0.01513 0.0
C188 C 0.60185 0.50378 0.04423 0.0
C189 C 0.60423 0.46475 0.0842 0.0
C190 C 0.59307 0.60257 0.88803 0.0
C191 C 0.55367 0.62913 0.88391 0.0
C192 C 0.59327 0.56331 0.92836 0.0
C193 C 0.55453 0.55052 0.96649 0.0
C194 C 0.51384 0.57542 0.9587 0.0
C195 C 0.51333 0.61376 0.91775 0.0
H196 H 0.90279 0.34845 0.36453 0.0
H197 H 0.91104 0.19983 0.31161 0.0
H198 H 0.82597 0.34496 0.30033 0.0
H199 H 0.83627 0.19654 0.24503 0.0
H200 H 0.68188 0.19873 0.15381 0.0
H201 H 0.75358 0.19535 0.22462 0.0
H202 H 0.80242 0.34761 0.19461 0.0
H203 H 0.72878 0.35093 0.12645 0.0
C204 C 0.88682 0.31425 0.34164 0.0
C205 C 0.91224 0.27404 0.34434 0.0
C206 C 0.84361 0.31262 0.30299 0.0
C207 C 0.82531 0.27093 0.26545 0.0
C208 C 0.84864 0.22933 0.27288 0.0
C209 C 0.89134 0.23087 0.31201 0.0
C210 C 0.70925 0.23079 0.16008 0.0
C211 C 0.70057 0.27468 0.133 0.0
C212 C 0.75016 0.22917 0.20164 0.0
C213 C 0.78374 0.27148 0.21695 0.0
C214 C 0.77682 0.31454 0.1858 0.0
C215 C 0.73544 0.31621 0.14493 0.0
H216 H 0.42206 0.37018 0.13385 0.0
H217 H 0.3753 0.2154 0.12666 0.0
H218 H 0.35858 0.38118 0.202 0.0
H219 H 0.30985 0.22594 0.19235 0.0
H220 H 0.23041 0.24602 0.3609 0.0
H221 H 0.29861 0.24155 0.29662 0.0
H222 H 0.27794 0.38074 0.21994 0.0
H223 H 0.21236 0.38585 0.28617 0.0
C224 C 0.39618 0.33881 0.14374 0.0
C225 C 0.40274 0.29213 0.12323 0.0
C226 C 0.3601 0.34488 0.18396 0.0
C227 C 0.32932 0.30434 0.20435 0.0
C228 C 0.33359 0.258 0.17959 0.0
C229 C 0.37012 0.25198 0.14015 0.0
C230 C 0.24233 0.27665 0.33268 0.0
C231 C 0.21654 0.31659 0.32932 0.0
C232 C 0.28049 0.27359 0.29428 0.0
C233 C 0.29328 0.31019 0.25132 0.0
C234 C 0.26977 0.35181 0.25207 0.0
C235 C 0.23221 0.35499 0.29065 0.0
H236 H 0.39994 0.69235 0.80725 0.0
H237 H 0.41128 0.84431 0.85898 0.0
H238 H 0.32506 0.69718 0.74384 0.0
H239 H 0.33465 0.84933 0.79699 0.0
H240 H 0.23504 0.86068 0.6234 0.0
H241 H 0.30831 0.85149 0.69001 0.0
H242 H 0.2432 0.70618 0.73262 0.0
H243 H 0.17164 0.71554 0.66526 0.0
C244 C 0.38478 0.72626 0.80769 0.0
C245 C 0.41111 0.76776 0.8388 0.0
C246 C 0.34199 0.72928 0.77056 0.0
C247 C 0.32404 0.77397 0.76372 0.0
C248 C 0.34804 0.81458 0.79957 0.0
C249 C 0.39123 0.8115 0.83669 0.0
C250 C 0.23782 0.82592 0.64444 0.0
C251 C 0.19869 0.78775 0.63616 0.0
C252 C 0.27913 0.82107 0.6842 0.0
C253 C 0.28176 0.77823 0.71772 0.0
C254 C 0.2433 0.73941 0.7071 0.0
C255 C 0.20242 0.74422 0.66704 0.0
H256 H 0.48018 0.91341 0.86418 0.0
H257 H 0.63563 0.95672 0.88867 0.0
H258 H 0.46798 0.9824 0.92917 0.0
H259 H 0.62403 1.02752 0.95099 0.0
H260 H 0.59909 0.11744 0.11588 0.0
H261 H 0.60455 0.04511 0.05175 0.0
H262 H 0.46992 0.0647 0.94747 0.0
H263 H 0.46359 0.13447 0.01336 0.0
C264 C 0.51159 0.93949 0.88037 0.0
C265 C 0.55875 0.93033 0.87011 0.0
C266 C 0.50479 0.97879 0.91872 0.0
C267 C 0.54509 1.01024 0.94715 0.0
C268 C 0.59209 1.00338 0.93195 0.0
C269 C 0.5988 0.96368 0.89444 0.0
C270 C 0.56962 0.10467 0.08122 0.0
C271 C 0.53072 0.13132 0.07007 0.0
C272 C 0.57331 0.06402 0.04312 0.0
C273 C 0.53836 0.04953 -0.00716 0.0
C274 C 0.49758 0.07419 -0.01465 0.0
C275 C 0.49375 0.11424 0.02358 0.0
H276 H 0.14309 0.94104 0.53146 0.0
H277 H 1.00732 0.97156 0.5957 0.0
H278 H 0.14324 1.00722 0.45989 0.0
H279 H 1.00829 1.04035 0.5259 0.0
H280 H 0.99034 0.12512 0.35428 0.0
H281 H 0.99417 0.05463 0.4195 0.0
H282 H 0.15145 0.08883 0.43928 0.0
H283 H 0.14702 0.15737 0.37183 0.0
C284 C 0.11444 0.96374 0.53245 0.0
C285 C 0.07567 0.95165 0.57009 0.0
C286 C 0.11421 1.00159 0.49074 0.0
C287 C 0.07528 1.02896 0.48564 0.0
C288 C 1.03828 1.0193 0.52701 0.0
C289 C 1.03834 0.98084 0.56857 0.0
C290 C 1.02576 0.11547 0.36932 0.0
C291 C 0.06843 0.14599 0.35642 0.0
C292 C 1.02801 0.07608 0.40871 0.0
C293 C 0.07306 0.06659 0.43679 0.0
C294 C 0.11597 0.09448 0.41888 0.0
C295 C 0.11362 0.13344 0.37893 0.0
H296 H 0.08834 0.23314 0.02311 0.0
H297 H 1.03943 0.37316 0.00126 0.0
H298 H 0.10034 0.22922 0.91302 0.0
H299 H 0.04951 0.3687 0.89041 0.0
H300 H 0.1126 0.36769 0.70562 0.0
H301 H 0.1096 0.37185 0.81741 0.0
H302 H 0.0544 0.218 0.816 0.0
H303 H 0.06078 0.21315 0.70496 0.0
C304 C 0.07958 0.26277 -0.00567 0.0
C305 C 0.06268 0.30329 0.02014 0.0
C306 C 0.08636 0.26055 0.93137 0.0
C307 C 0.07576 0.29858 0.89288 0.0
C308 C 0.05883 0.33918 0.91896 0.0
C309 C 0.05269 0.34166 -0.01782 0.0
C310 C 0.10093 0.33452 0.72934 0.0
C311 C 0.08678 0.29009 0.69634 0.0
C312 C 0.09845 0.33708 0.79332 0.0
C313 C 0.08128 0.29539 0.82555 0.0
C314 C 0.0682 0.25075 0.79272 0.0
C315 C 0.07123 0.24808 0.72889 0.0
H316 H 0.97347 0.79146 0.93956 0.0
H317 H 0.12849 0.84181 0.96339 0.0
H318 H 0.97102 0.78531 0.05112 0.0
H319 H 0.12554 0.83829 0.07543 0.0
H320 H 0.11366 0.76654 0.2626 0.0
H321 H 0.11522 0.77556 0.15096 0.0
H322 H 0.97809 0.83277 0.14578 0.0
H323 H 0.97616 0.82256 0.25727 0.0
C324 C 1.00697 0.80153 0.96873 0.0
C325 C 0.0513 0.81655 0.94275 0.0
C326 C 1.00545 0.79858 0.03268 0.0
C327 C 0.04815 0.81099 0.07203 0.0
C328 C 0.09218 0.82766 0.04617 0.0
C329 C 0.09377 0.83033 -0.0179 0.0
C330 C 0.0839 0.78095 0.23738 0.0
C331 C 0.04474 0.79374 0.26819 0.0
C332 C 0.08491 0.78645 0.17366 0.0
C333 C 0.04695 0.80522 0.13967 0.0
C334 C 1.00758 0.81766 0.17058 0.0
C335 C 1.0064 0.81178 0.23428 0.0
H336 H 0.64343 0.77282 0.21433 0.0
H337 H 0.49721 0.80932 0.19109 0.0
H338 H 0.63747 0.76903 0.32655 0.0
H339 H 0.49121 0.80548 0.30291 0.0
H340 H 0.52724 0.84723 0.51139 0.0
H341 H 0.5333 0.85252 0.39963 0.0
H342 H 0.5841 0.71249 0.39657 0.0
H343 H 0.57813 0.70727 0.50859 0.0
C344 C 0.61033 0.78051 0.23346 0.0
C345 C 0.57073 0.79125 0.19459 0.0
C346 C 0.60674 0.7779 0.29725 0.0
C347 C 0.56378 0.78669 0.32288 0.0
C348 C 0.52473 0.79871 0.28409 0.0
C349 C 0.52808 0.80072 0.22036 0.0
C350 C 0.53949 0.81757 0.48662 0.0
C351 C 0.55223 0.77685 0.51812 0.0
C352 C 0.54281 0.82052 0.42294 0.0
C353 C 0.55944 0.78304 0.38998 0.0
C354 C 0.57167 0.74204 0.42134 0.0
C355 C 0.56778 0.73881 0.485 0.0
H356 H 0.56284 0.20554 0.45586 0.0
H357 H 0.53336 0.354 0.44575 0.0
H358 H 0.55897 0.20883 0.56799 0.0
H359 H 0.52831 0.35713 0.55759 0.0
H360 H 0.57952 0.3621 0.76322 0.0
H361 H 0.58132 0.35873 0.65111 0.0
H362 H 0.50147 0.21291 0.64521 0.0
H363 H 0.50214 0.21522 0.75763 0.0
C364 C 0.55509 0.23867 0.47775 0.0
C365 C 0.54864 0.27959 0.4426 0.0
C366 C 0.55267 0.24054 0.54174 0.0
C367 C 0.54333 0.28326 0.5715 0.0
C368 C 0.53638 0.324 0.53606 0.0
C369 C 0.5392 0.32223 0.47217 0.0
C370 C 0.56272 0.32919 0.73799 0.0
C371 C 0.54089 0.28885 0.76918 0.0
C372 C 0.56321 0.32749 0.67375 0.0
C373 C 0.54158 0.28553 0.63944 0.0
C374 C 0.51899 0.2455 0.67053 0.0
C375 C 0.51879 0.24709 0.73481 0.0
loop_
_geom_bond_atom_site_label_1
_geom_bond_atom_site_label_2
_geom_bond_distance
_geom_bond_site_symmetry_2
_ccdc_geom_bond_type
C0 O16 1.251 . S
C0 O18 1.254 . S
N1 C2 1.333 . S
N1 C6 1.307 1_455 S
N1 Zn7 2.020 . S
C2 N1 1.333 . S
C2 C3 1.379 . S
C2 H20 0.952 . S
C3 C2 1.379 . S
C3 C4 1.390 . S
C3 H30 0.949 . S
C4 C3 1.390 . S
C4 C5 1.357 1_455 S
C5 C4 1.357 1_655 S
C5 C6 1.370 . S
C5 H31 0.950 . S
C6 N1 1.307 1_655 S
C6 C5 1.370 . S
C6 H24 0.948 . S
Zn7 N1 2.020 . S
Zn7 O16 2.039 . S
Zn7 O22 2.034 . S
Zn7 O26 2.025 1_455 S
Zn7 O28 2.024 . S
C8 O27 1.246 . S
C8 O28 1.249 . S
N9 C10 1.307 . S
N9 C11 1.333 1_455 S
N9 Zn15 2.020 . S
C10 N9 1.307 . S
C10 C14 1.370 . S
C10 H21 0.948 . S
C11 N9 1.333 1_655 S
C11 C12 1.379 . S
C11 H19 0.952 . S
C12 C11 1.379 . S
C12 C13 1.390 1_655 S
C12 H32 0.949 . S
C13 C12 1.390 1_455 S
C13 C14 1.357 . S
C14 C10 1.370 . S
C14 C13 1.357 . S
C14 H33 0.950 . S
Zn15 N9 2.020 . S
Zn15 O18 2.025 . S
Zn15 O23 2.024 . S
Zn15 O25 2.039 1_455 S
Zn15 O27 2.034 . S
O16 C0 1.251 . S
O16 Zn7 2.039 . S
C17 O22 1.246 . S
C17 O23 1.249 . S
O18 C0 1.254 . S
O18 Zn15 2.025 . S
H19 C11 0.952 . S
H20 C2 0.952 . S
H21 C10 0.948 . S
O22 Zn7 2.034 . S
O22 C17 1.246 . S
O23 Zn15 2.024 . S
O23 C17 1.249 . S
H24 C6 0.948 . S
O25 Zn15 2.039 1_655 S
O25 C29 1.251 . S
O26 Zn7 2.025 1_655 S
O26 C29 1.254 . S
O27 C8 1.246 . S
O27 Zn15 2.034 . S
O28 Zn7 2.024 . S
O28 C8 1.249 . S
C29 O25 1.251 . S
C29 O26 1.254 . S
H30 C3 0.949 . S
H31 C5 0.950 . S
H32 C12 0.949 . S
H33 C14 0.950 . S
C34 O50 1.251 . S
C34 O52 1.254 . S
N35 C36 1.333 . S
N35 C40 1.307 1_455 S
N35 Zn41 2.020 . S
C36 N35 1.333 . S
C36 C37 1.379 . S
C36 H54 0.952 . S
C37 C36 1.379 . S
C37 C38 1.390 . S
C37 H64 0.949 . S
C38 C37 1.390 . S
C38 C39 1.357 1_455 S
C39 C38 1.357 1_655 S
C39 C40 1.370 . S
C39 H65 0.950 . S
C40 N35 1.307 1_655 S
C40 C39 1.370 . S
C40 H58 0.948 . S
Zn41 N35 2.020 . S
Zn41 O50 2.039 . S
Zn41 O56 2.034 . S
Zn41 O60 2.025 1_455 S
Zn41 O62 2.024 . S
C42 O61 1.246 . S
C42 O62 1.249 . S
N43 C44 1.307 . S
N43 C45 1.333 1_455 S
N43 Zn49 2.020 . S
C44 N43 1.307 . S
C44 C48 1.370 . S
C44 H55 0.948 . S
C45 N43 1.333 1_655 S
C45 C46 1.379 . S
C45 H53 0.952 . S
C46 C45 1.379 . S
C46 C47 1.390 1_655 S
C46 H66 0.949 . S
C47 C46 1.390 1_455 S
C47 C48 1.357 . S
C48 C44 1.370 . S
C48 C47 1.357 . S
C48 H67 0.950 . S
Zn49 N43 2.020 . S
Zn49 O52 2.025 . S
Zn49 O57 2.024 . S
Zn49 O59 2.039 1_455 S
Zn49 O61 2.034 . S
O50 C34 1.251 . S
O50 Zn41 2.039 . S
C51 O56 1.246 . S
C51 O57 1.249 . S
O52 C34 1.254 . S
O52 Zn49 2.025 . S
H53 C45 0.952 . S
H54 C36 0.952 . S
H55 C44 0.948 . S
O56 Zn41 2.034 . S
O56 C51 1.246 . S
O57 Zn49 2.024 . S
O57 C51 1.249 . S
H58 C40 0.948 . S
O59 Zn49 2.039 1_655 S
O59 C63 1.251 . S
O60 Zn41 2.025 1_655 S
O60 C63 1.254 . S
O61 C42 1.246 . S
O61 Zn49 2.034 . S
O62 Zn41 2.024 . S
O62 C42 1.249 . S
C63 O59 1.251 . S
C63 O60 1.254 . S
H64 C37 0.949 . S
H65 C39 0.950 . S
H66 C46 0.949 . S
H67 C48 0.950 . S
C68 O84 1.251 . S
C68 O86 1.254 . S
N69 C70 1.333 . S
N69 C74 1.307 . S
N69 Zn75 2.020 . S
C70 N69 1.333 . S
C70 C71 1.379 . S
C70 H88 0.952 . S
C71 C70 1.379 . S
C71 C72 1.390 . S
C71 H98 0.949 . S
C72 C71 1.390 . S
C72 C73 1.357 . S
C73 C72 1.357 . S
C73 C74 1.370 . S
C73 H99 0.950 . S
C74 N69 1.307 . S
C74 C73 1.370 . S
C74 H92 0.948 . S
Zn75 N69 2.020 . S
Zn75 O84 2.039 . S
Zn75 O90 2.034 . S
Zn75 O94 2.025 . S
Zn75 O96 2.024 . S
C76 O95 1.246 . S
C76 O96 1.249 . S
N77 C78 1.307 . S
N77 C79 1.333 . S
N77 Zn83 2.020 1_554 S
C78 N77 1.307 . S
C78 C82 1.370 . S
C78 H89 0.948 . S
C79 N77 1.333 . S
C79 C80 1.379 . S
C79 H87 0.952 . S
C80 C79 1.379 . S
C80 C81 1.390 . S
C80 H100 0.949 . S
C81 C80 1.390 . S
C81 C82 1.357 . S
C82 C78 1.370 . S
C82 C81 1.357 . S
C82 H101 0.950 . S
Zn83 N77 2.020 1_556 S
Zn83 O86 2.025 . S
Zn83 O91 2.024 . S
Zn83 O93 2.039 . S
Zn83 O95 2.034 . S
O84 C68 1.251 . S
O84 Zn75 2.039 . S
C85 O90 1.246 . S
C85 O91 1.249 . S
O86 C68 1.254 . S
O86 Zn83 2.025 . S
H87 C79 0.952 . S
H88 C70 0.952 . S
H89 C78 0.948 . S
O90 Zn75 2.034 . S
O90 C85 1.246 . S
O91 Zn83 2.024 . S
O91 C85 1.249 . S
H92 C74 0.948 . S
O93 Zn83 2.039 . S
O93 C97 1.251 . S
O94 Zn75 2.025 . S
O94 C97 1.254 . S
O95 C76 1.246 . S
O95 Zn83 2.034 . S
O96 Zn75 2.024 . S
O96 C76 1.249 . S
C97 O93 1.251 . S
C97 O94 1.254 . S
H98 C71 0.949 . S
H99 C73 0.950 . S
H100 C80 0.949 . S
H101 C82 0.950 . S
C102 O118 1.251 . S
C102 O120 1.254 . S
N103 C104 1.333 . S
N103 C108 1.307 . S
N103 Zn109 2.020 1_556 S
C104 N103 1.333 . S
C104 C105 1.379 . S
C104 H122 0.952 . S
C105 C104 1.379 . S
C105 C106 1.390 . S
C105 H132 0.949 . S
C106 C105 1.390 . S
C106 C107 1.357 . S
C107 C106 1.357 . S
C107 C108 1.370 . S
C107 H133 0.950 . S
C108 N103 1.307 . S
C108 C107 1.370 . S
C108 H126 0.948 . S
Zn109 N103 2.020 1_554 S
Zn109 O118 2.039 . S
Zn109 O124 2.034 . S
Zn109 O128 2.025 . S
Zn109 O130 2.024 . S
C110 O129 1.246 . S
C110 O130 1.249 . S
N111 C112 1.307 . S
N111 C113 1.333 . S
N111 Zn117 2.020 . S
C112 N111 1.307 . S
C112 C116 1.370 . S
C112 H123 0.948 . S
C113 N111 1.333 . S
C113 C114 1.379 . S
C113 H121 0.952 . S
C114 C113 1.379 . S
C114 C115 1.390 . S
C114 H134 0.949 . S
C115 C114 1.390 . S
C115 C116 1.357 . S
C116 C112 1.370 . S
C116 C115 1.357 . S
C116 H135 0.950 . S
Zn117 N111 2.020 . S
Zn117 O120 2.025 . S
Zn117 O125 2.024 . S
Zn117 O127 2.039 . S
Zn117 O129 2.034 . S
O118 C102 1.251 . S
O118 Zn109 2.039 . S
C119 O124 1.246 . S
C119 O125 1.249 . S
O120 C102 1.254 . S
O120 Zn117 2.025 . S
H121 C113 0.952 . S
H122 C104 0.952 . S
H123 C112 0.948 . S
O124 Zn109 2.034 . S
O124 C119 1.246 . S
O125 Zn117 2.024 . S
O125 C119 1.249 . S
H126 C108 0.948 . S
O127 Zn117 2.039 . S
O127 C131 1.251 . S
O128 Zn109 2.025 . S
O128 C131 1.254 . S
O129 C110 1.246 . S
O129 Zn117 2.034 . S
O130 Zn109 2.024 . S
O130 C110 1.249 . S
C131 O127 1.251 . S
C131 O128 1.254 . S
H132 C105 0.949 . S
H133 C107 0.950 . S
H134 C114 0.949 . S
H135 C116 0.950 . S
H136 C144 0.950 . S
H137 C149 0.950 . S
H138 C146 0.950 . S
H139 C148 0.950 . S
H140 C150 0.950 . S
H141 C152 0.950 . S
H142 C154 0.950 . S
H143 C155 0.950 . S
C144 H136 0.950 . S
C144 C145 1.386 1_655 S
C144 C146 1.391 . S
C145 C144 1.386 1_455 S
C145 C149 1.393 . S
C146 H138 0.950 . S
C146 C144 1.391 . S
C146 C147 1.400 1_655 S
C147 C146 1.400 1_455 S
C147 C148 1.398 . S
C147 C153 1.491 . S
C148 H139 0.950 . S
C148 C147 1.398 . S
C148 C149 1.391 . S
C149 H137 0.950 . S
C149 C145 1.393 . S
C149 C148 1.391 . S
C150 H140 0.950 . S
C150 C151 1.386 . S
C150 C152 1.391 . S
C151 C150 1.386 . S
C151 C155 1.393 1_455 S
C152 H141 0.950 . S
C152 C150 1.391 . S
C152 C153 1.400 . S
C153 C147 1.491 . S
C153 C152 1.400 . S
C153 C154 1.398 1_455 S
C154 H142 0.950 . S
C154 C153 1.398 1_655 S
C154 C155 1.391 . S
C155 H143 0.950 . S
C155 C151 1.393 1_655 S
C155 C154 1.391 . S
H156 C164 0.950 . S
H157 C169 0.950 . S
H158 C166 0.950 . S
H159 C168 0.950 . S
H160 C170 0.950 . S
H161 C172 0.950 . S
H162 C174 0.950 . S
H163 C175 0.950 . S
C164 H156 0.950 . S
C164 C165 1.386 . S
C164 C166 1.391 . S
C165 C164 1.386 . S
C165 C169 1.393 . S
C166 H158 0.950 . S
C166 C164 1.391 . S
C166 C167 1.400 . S
C167 C166 1.400 . S
C167 C168 1.398 . S
C167 C173 1.491 . S
C168 H159 0.950 . S
C168 C167 1.398 . S
C168 C169 1.391 . S
C169 H157 0.950 . S
C169 C165 1.393 . S
C169 C168 1.391 . S
C170 H160 0.950 . S
C170 C171 1.386 . S
C170 C172 1.391 . S
C171 C170 1.386 . S
C171 C175 1.393 . S
C172 H161 0.950 . S
C172 C170 1.391 . S
C172 C173 1.400 . S
C173 C167 1.491 . S
C173 C172 1.400 . S
C173 C174 1.398 . S
C174 H162 0.950 . S
C174 C173 1.398 . S
C174 C175 1.391 . S
C175 H163 0.950 . S
C175 C171 1.393 . S
C175 C174 1.391 . S
H176 C184 0.950 . S
H177 C189 0.950 . S
H178 C186 0.950 . S
H179 C188 0.950 . S
H180 C190 0.950 . S
H181 C192 0.950 . S
H182 C194 0.950 . S
H183 C195 0.950 . S
C184 H176 0.950 . S
C184 C185 1.386 . S
C184 C186 1.391 . S
C185 C184 1.386 . S
C185 C189 1.393 . S
C186 H178 0.950 . S
C186 C184 1.391 . S
C186 C187 1.400 . S
C187 C186 1.400 . S
C187 C188 1.398 1_554 S
C187 C193 1.491 1_554 S
C188 H179 0.950 . S
C188 C187 1.398 1_556 S
C188 C189 1.391 1_556 S
C189 H177 0.950 . S
C189 C185 1.393 . S
C189 C188 1.391 1_554 S
C190 H180 0.950 . S
C190 C191 1.386 . S
C190 C192 1.391 . S
C191 C190 1.386 . S
C191 C195 1.393 . S
C192 H181 0.950 . S
C192 C190 1.391 . S
C192 C193 1.400 . S
C193 C187 1.491 1_556 S
C193 C192 1.400 . S
C193 C194 1.398 1_556 S
C194 H182 0.950 . S
C194 C193 1.398 1_554 S
C194 C195 1.391 1_554 S
C195 H183 0.950 . S
C195 C191 1.393 . S
C195 C194 1.391 1_556 S
H196 C204 0.950 . S
H197 C209 0.950 . S
H198 C206 0.950 . S
H199 C208 0.950 . S
H200 C210 0.950 . S
H201 C212 0.950 . S
H202 C214 0.950 . S
H203 C215 0.950 . S
C204 H196 0.950 . S
C204 C205 1.386 . S
C204 C206 1.391 . S
C205 C204 1.386 . S
C205 C209 1.393 . S
C206 H198 0.950 . S
C206 C204 1.391 . S
C206 C207 1.400 . S
C207 C206 1.400 . S
C207 C208 1.398 . S
C207 C213 1.491 . S
C208 H199 0.950 . S
C208 C207 1.398 . S
C208 C209 1.391 . S
C209 H197 0.950 . S
C209 C205 1.393 . S
C209 C208 1.391 . S
C210 H200 0.950 . S
C210 C211 1.386 . S
C210 C212 1.391 . S
C211 C210 1.386 . S
C211 C215 1.393 . S
C212 H201 0.950 . S
C212 C210 1.391 . S
C212 C213 1.400 . S
C213 C207 1.491 . S
C213 C212 1.400 . S
C213 C214 1.398 . S
C214 H202 0.950 . S
C214 C213 1.398 . S
C214 C215 1.391 . S
C215 H203 0.950 . S
C215 C211 1.393 . S
C215 C214 1.391 . S
H216 C224 0.950 . S
H217 C229 0.950 . S
H218 C226 0.950 . S
H219 C228 0.950 . S
H220 C230 0.950 . S
H221 C232 0.950 . S
H222 C234 0.950 . S
H223 C235 0.950 . S
C224 H216 0.950 . S
C224 C225 1.386 . S
C224 C226 1.391 . S
C225 C224 1.386 . S
C225 C229 1.393 . S
C226 H218 0.950 . S
C226 C224 1.391 . S
C226 C227 1.400 . S
C227 C226 1.400 . S
C227 C228 1.398 . S
C227 C233 1.491 . S
C228 H219 0.950 . S
C228 C227 1.398 . S
C228 C229 1.391 . S
C229 H217 0.950 . S
C229 C225 1.393 . S
C229 C228 1.391 . S
C230 H220 0.950 . S
C230 C231 1.386 . S
C230 C232 1.391 . S
C231 C230 1.386 . S
C231 C235 1.393 . S
C232 H221 0.950 . S
C232 C230 1.391 . S
C232 C233 1.400 . S
C233 C227 1.491 . S
C233 C232 1.400 . S
C233 C234 1.398 . S
C234 H222 0.950 . S
C234 C233 1.398 . S
C234 C235 1.391 . S
C235 H223 0.950 . S
C235 C231 1.393 . S
C235 C234 1.391 . S
H236 C244 0.950 . S
H237 C249 0.950 . S
H238 C246 0.950 . S
H239 C248 0.950 . S
H240 C250 0.950 . S
H241 C252 0.950 . S
H242 C254 0.950 . S
H243 C255 0.950 . S
C244 H236 0.950 . S
C244 C245 1.386 . S
C244 C246 1.391 . S
C245 C244 1.386 . S
C245 C249 1.393 . S
C246 H238 0.950 . S
C246 C244 1.391 . S
C246 C247 1.400 . S
C247 C246 1.400 . S
C247 C248 1.398 . S
C247 C253 1.491 . S
C248 H239 0.950 . S
C248 C247 1.398 . S
C248 C249 1.391 . S
C249 H237 0.950 . S
C249 C245 1.393 . S
C249 C248 1.391 . S
C250 H240 0.950 . S
C250 C251 1.386 . S
C250 C252 1.391 . S
C251 C250 1.386 . S
C251 C255 1.393 . S
C252 H241 0.950 . S
C252 C250 1.391 . S
C252 C253 1.400 . S
C253 C247 1.491 . S
C253 C252 1.400 . S
C253 C254 1.398 . S
C254 H242 0.950 . S
C254 C253 1.398 . S
C254 C255 1.391 . S
C255 H243 0.950 . S
C255 C251 1.393 . S
C255 C254 1.391 . S
H256 C264 0.950 . S
H257 C269 0.950 . S
H258 C266 0.950 1_554 S
H259 C268 0.951 . S
H260 C270 0.950 . S
H261 C272 0.950 1_556 S
H262 C274 0.951 . S
H263 C275 0.950 . S
C264 H256 0.950 . S
C264 C265 1.386 . S
C264 C266 1.391 . S
C265 C264 1.386 . S
C265 C269 1.393 . S
C266 H258 0.950 1_556 S
C266 C264 1.391 . S
C266 C267 1.400 . S
C267 C266 1.400 . S
C267 C268 1.398 . S
C267 C273 1.491 1_566 S
C268 H259 0.951 . S
C268 C267 1.398 . S
C268 C269 1.391 . S
C269 H257 0.950 . S
C269 C265 1.393 . S
C269 C268 1.391 . S
C270 H260 0.950 . S
C270 C271 1.386 . S
C270 C272 1.391 . S
C271 C270 1.386 . S
C271 C275 1.393 . S
C272 H261 0.950 1_554 S
C272 C270 1.391 . S
C272 C273 1.400 . S
C273 C267 1.491 1_544 S
C273 C272 1.400 . S
C273 C274 1.398 . S
C274 H262 0.951 . S
C274 C273 1.398 . S
C274 C275 1.391 . S
C275 H263 0.950 . S
C275 C271 1.393 . S
C275 C274 1.391 . S
H276 C284 0.953 . S
H277 C289 0.950 . S
H278 C286 0.950 1_655 S
H279 C288 0.950 1_545 S
H280 C290 0.950 . S
H281 C292 0.950 . S
H282 C294 0.950 1_665 S
H283 C295 0.950 1_655 S
C284 H276 0.953 . S
C284 C285 1.382 1_655 S
C284 C286 1.392 1_655 S
C285 C284 1.382 1_455 S
C285 C289 1.393 . S
C286 H278 0.950 1_455 S
C286 C284 1.392 1_455 S
C286 C287 1.400 . S
C287 C286 1.400 . S
C287 C288 1.398 . S
C287 C293 1.491 1_565 S
C288 H279 0.950 1_565 S
C288 C287 1.398 . S
C288 C289 1.391 . S
C289 H277 0.950 . S
C289 C285 1.393 . S
C289 C288 1.391 . S
C290 H280 0.950 . S
C290 C291 1.386 . S
C290 C292 1.391 . S
C291 C290 1.386 . S
C291 C295 1.393 . S
C292 H281 0.950 . S
C292 C290 1.391 . S
C292 C293 1.400 . S
C293 C287 1.491 1_545 S
C293 C292 1.400 . S
C293 C294 1.398 . S
C294 H282 0.950 1_445 S
C294 C293 1.398 . S
C294 C295 1.391 . S
C295 H283 0.950 1_455 S
C295 C291 1.393 . S
C295 C294 1.391 . S
H296 C304 0.950 . S
H297 C309 0.950 . S
H298 C306 0.950 . S
H299 C308 0.950 . S
H300 C310 0.950 . S
H301 C312 0.950 . S
H302 C314 0.950 . S
H303 C315 0.950 . S
C304 H296 0.950 . S
C304 C305 1.386 1_655 S
C304 C306 1.391 1_554 S
C305 C304 1.386 1_455 S
C305 C309 1.393 . S
C306 H298 0.950 . S
C306 C304 1.391 1_556 S
C306 C307 1.400 1_655 S
C307 C306 1.400 1_455 S
C307 C308 1.398 . S
C307 C313 1.491 . S
C308 H299 0.950 . S
C308 C307 1.398 . S
C308 C309 1.391 1_556 S
C309 H297 0.950 . S
C309 C305 1.393 . S
C309 C308 1.391 1_554 S
C310 H300 0.950 . S
C310 C311 1.386 . S
C310 C312 1.391 . S
C311 C310 1.386 . S
C311 C315 1.393 1_455 S
C312 H301 0.950 . S
C312 C310 1.391 . S
C312 C313 1.400 . S
C313 C307 1.491 . S
C313 C312 1.400 . S
C313 C314 1.398 1_455 S
C314 H302 0.950 . S
C314 C313 1.398 1_655 S
C314 C315 1.391 . S
C315 H303 0.950 . S
C315 C311 1.393 1_655 S
C315 C314 1.391 . S
H316 C324 0.950 . S
H317 C329 0.950 . S
H318 C326 0.950 . S
H319 C328 0.950 . S
H320 C330 0.950 . S
H321 C332 0.950 . S
H322 C334 0.950 . S
H323 C335 0.950 . S
C324 H316 0.950 . S
C324 C325 1.386 1_655 S
C324 C326 1.391 1_556 S
C325 C324 1.386 1_455 S
C325 C329 1.393 . S
C326 H318 0.950 . S
C326 C324 1.391 1_554 S
C326 C327 1.400 1_655 S
C327 C326 1.400 1_455 S
C327 C328 1.398 . S
C327 C333 1.491 . S
C328 H319 0.950 . S
C328 C327 1.398 . S
C328 C329 1.391 1_554 S
C329 H317 0.950 . S
C329 C325 1.393 . S
C329 C328 1.391 1_556 S
C330 H320 0.950 . S
C330 C331 1.386 . S
C330 C332 1.391 . S
C331 C330 1.386 . S
C331 C335 1.393 1_455 S
C332 H321 0.950 . S
C332 C330 1.391 . S
C332 C333 1.400 . S
C333 C327 1.491 . S
C333 C332 1.400 . S
C333 C334 1.398 1_455 S
C334 H322 0.950 . S
C334 C333 1.398 1_655 S
C334 C335 1.391 . S
C335 H323 0.950 . S
C335 C331 1.393 1_655 S
C335 C334 1.391 . S
H336 C344 0.950 . S
H337 C349 0.950 . S
H338 C346 0.950 . S
H339 C348 0.950 . S
H340 C350 0.950 . S
H341 C352 0.950 . S
H342 C354 0.950 . S
H343 C355 0.950 . S
C344 H336 0.950 . S
C344 C345 1.386 . S
C344 C346 1.391 . S
C345 C344 1.386 . S
C345 C349 1.393 . S
C346 H338 0.950 . S
C346 C344 1.391 . S
C346 C347 1.400 . S
C347 C346 1.400 . S
C347 C348 1.398 . S
C347 C353 1.491 . S
C348 H339 0.950 . S
C348 C347 1.398 . S
C348 C349 1.391 . S
C349 H337 0.950 . S
C349 C345 1.393 . S
C349 C348 1.391 . S
C350 H340 0.950 . S
C350 C351 1.386 . S
C350 C352 1.391 . S
C351 C350 1.386 . S
C351 C355 1.393 . S
C352 H341 0.950 . S
C352 C350 1.391 . S
C352 C353 1.400 . S
C353 C347 1.491 . S
C353 C352 1.400 . S
C353 C354 1.398 . S
C354 H342 0.950 . S
C354 C353 1.398 . S
C354 C355 1.391 . S
C355 H343 0.950 . S
C355 C351 1.393 . S
C355 C354 1.391 . S
H356 C364 0.950 . S
H357 C369 0.950 . S
H358 C366 0.950 . S
H359 C368 0.950 . S
H360 C370 0.950 . S
H361 C372 0.950 . S
H362 C374 0.950 . S
H363 C375 0.950 . S
C364 H356 0.950 . S
C364 C365 1.386 . S
C364 C366 1.391 . S
C365 C364 1.386 . S
C365 C369 1.393 . S
C366 H358 0.950 . S
C366 C364 1.391 . S
C366 C367 1.400 . S
C367 C366 1.400 . S
C367 C368 1.398 . S
C367 C373 1.491 . S
C368 H359 0.950 . S
C368 C367 1.398 . S
C368 C369 1.391 . S
C369 H357 0.950 . S
C369 C365 1.393 . S
C369 C368 1.391 . S
C370 H360 0.950 . S
C370 C371 1.386 . S
C370 C372 1.391 . S
C371 C370 1.386 . S
C371 C375 1.393 . S
C372 H361 0.950 . S
C372 C370 1.391 . S
C372 C373 1.400 . S
C373 C367 1.491 . S
C373 C372 1.400 . S
C373 C374 1.398 . S
C374 H362 0.950 . S
C374 C373 1.398 . S
C374 C375 1.391 . S
C375 H363 0.950 . S
C375 C371 1.393 . S
C375 C374 1.391 . S
C145 C17 1.974 . S
C151 C42 1.974 . S
C165 C68 2.125 . S
C171 C63 2.125 . S
C185 C119 2.058 . S
C191 C76 2.058 . S
C205 C29 1.919 . S
C211 C102 1.919 . S
C225 C131 2.119 . S
C231 C0 2.119 . S
C245 C97 1.932 . S
C251 C34 1.932 . S
C265 C85 1.971 . S
C271 C110 1.971 . S
C285 C51 2.065 . S
C291 C8 2.065 . S
C305 C4 0.605 . S
C311 C13 0.605 . S
C325 C47 0.605 . S
C331 C38 0.605 . S
C345 C81 0.605 . S
C351 C72 0.605 . S
C365 C115 0.603 . S
C371 C106 0.603 . S
