# Generated by pormake.
# Topology uot, (4)-cn, num edge types: 1
# Building blocks:
#     Node 0, Type 0, BuildingBlock: ESEHIV_clean_sbu_0, # of connection points: 4
#     Node 1, Type 0, BuildingBlock: ESEHIV_clean_sbu_0, # of connection points: 4
#     Node 2, Type 0, BuildingBlock: ESEHIV_clean_sbu_0, # of connection points: 4
#     Node 3, Type 0, BuildingBlock: ESEHIV_clean_sbu_0, # of connection points: 4
#     Node 4, Type 0, BuildingBlock: ESEHIV_clean_sbu_0, # of connection points: 4
#     Node 5, Type 0, BuildingBlock: ESEHIV_clean_sbu_0, # of connection points: 4
#     Node 6, Type 0, BuildingBlock: ESEHIV_clean_sbu_0, # of connection points: 4
#     Node 7, Type 0, BuildingBlock: ESEHIV_clean_sbu_0, # of connection points: 4
#     Node 8, Type 0, BuildingBlock: ESEHIV_clean_sbu_0, # of connection points: 4
#     Node 9, Type 0, BuildingBlock: ESEHIV_clean_sbu_0, # of connection points: 4
#     Node 10, Type 0, BuildingBlock: ESEHIV_clean_sbu_0, # of connection points: 4
#     Node 11, Type 0, BuildingBlock: ESEHIV_clean_sbu_0, # of connection points: 4
#     Node 12, Type 0, BuildingBlock: ESEHIV_clean_sbu_0, # of connection points: 4
#     Node 13, Type 0, BuildingBlock: ESEHIV_clean_sbu_0, # of connection points: 4
#     Node 14, Type 0, BuildingBlock: ESEHIV_clean_sbu_0, # of connection points: 4
#     Node 15, Type 0, BuildingBlock: ESEHIV_clean_sbu_0, # of connection points: 4
#     Edge 16, Type (0, 0), BuildingBlock: CIFDUS_clean_linker_0, # of connection points: 2
#     Edge 17, Type (0, 0), BuildingBlock: CIFDUS_clean_linker_0, # of connection points: 2
#     Edge 18, Type (0, 0), BuildingBlock: CIFDUS_clean_linker_0, # of connection points: 2
#     Edge 19, Type (0, 0), BuildingBlock: CIFDUS_clean_linker_0, # of connection points: 2
#     Edge 20, Type (0, 0), BuildingBlock: CIFDUS_clean_linker_0, # of connection points: 2
#     Edge 21, Type (0, 0), BuildingBlock: CIFDUS_clean_linker_0, # of connection points: 2
#     Edge 22, Type (0, 0), BuildingBlock: CIFDUS_clean_linker_0, # of connection points: 2
#     Edge 23, Type (0, 0), BuildingBlock: CIFDUS_clean_linker_0, # of connection points: 2
#     Edge 24, Type (0, 0), BuildingBlock: CIFDUS_clean_linker_0, # of connection points: 2
#     Edge 25, Type (0, 0), BuildingBlock: CIFDUS_clean_linker_0, # of connection points: 2
#     Edge 26, Type (0, 0), BuildingBlock: CIFDUS_clean_linker_0, # of connection points: 2
#     Edge 27, Type (0, 0), BuildingBlock: CIFDUS_clean_linker_0, # of connection points: 2
#     Edge 28, Type (0, 0), BuildingBlock: CIFDUS_clean_linker_0, # of connection points: 2
#     Edge 29, Type (0, 0), BuildingBlock: CIFDUS_clean_linker_0, # of connection points: 2
#     Edge 30, Type (0, 0), BuildingBlock: CIFDUS_clean_linker_0, # of connection points: 2
#     Edge 31, Type (0, 0), BuildingBlock: CIFDUS_clean_linker_0, # of connection points: 2
#     Edge 32, Type (0, 0), BuildingBlock: CIFDUS_clean_linker_0, # of connection points: 2
#     Edge 33, Type (0, 0), BuildingBlock: CIFDUS_clean_linker_0, # of connection points: 2
#     Edge 34, Type (0, 0), BuildingBlock: CIFDUS_clean_linker_0, # of connection points: 2
#     Edge 35, Type (0, 0), BuildingBlock: CIFDUS_clean_linker_0, # of connection points: 2
#     Edge 36, Type (0, 0), BuildingBlock: CIFDUS_clean_linker_0, # of connection points: 2
#     Edge 37, Type (0, 0), BuildingBlock: CIFDUS_clean_linker_0, # of connection points: 2
#     Edge 38, Type (0, 0), BuildingBlock: CIFDUS_clean_linker_0, # of connection points: 2
#     Edge 39, Type (0, 0), BuildingBlock: CIFDUS_clean_linker_0, # of connection points: 2
#     Edge 40, Type (0, 0), BuildingBlock: CIFDUS_clean_linker_0, # of connection points: 2
#     Edge 41, Type (0, 0), BuildingBlock: CIFDUS_clean_linker_0, # of connection points: 2
#     Edge 42, Type (0, 0), BuildingBlock: CIFDUS_clean_linker_0, # of connection points: 2
#     Edge 43, Type (0, 0), BuildingBlock: CIFDUS_clean_linker_0, # of connection points: 2
#     Edge 44, Type (0, 0), BuildingBlock: CIFDUS_clean_linker_0, # of connection points: 2
#     Edge 45, Type (0, 0), BuildingBlock: CIFDUS_clean_linker_0, # of connection points: 2
#     Edge 46, Type (0, 0), BuildingBlock: CIFDUS_clean_linker_0, # of connection points: 2
#     Edge 47, Type (0, 0), BuildingBlock: CIFDUS_clean_linker_0, # of connection points: 2
# Relax obj value: 0.099
# Max RMSD: 0.252
# Mean RMSD: 0.252
data_MOF--net-uot--node1-ESEHIV_clean_sbu_0--edge1-CIFDUS_clean_linker_0
_symmetry_space_group_name_H-M    P1
_symmetry_Int_Tables_number       1
_symmetry_cell_setting            triclinic
loop_
_symmetry_equiv_pos_as_xyz
'x, y, z'
_cell_length_a     43.21206
_cell_length_b     43.127188
_cell_length_c     40.634779
_cell_angle_alpha  90.027986
_cell_angle_beta   89.309708
_cell_angle_gamma 89.955533
loop_
_atom_site_label
_atom_site_type_symbol
_atom_site_fract_x
_atom_site_fract_y
_atom_site_fract_z
_atom_type_partial_charge
Cu0 Cu 0.18057 0.44648 0.37264 0.0
N1 N 0.19909 0.47756 0.34735 0.0
N2 N 0.20326 0.5191 0.31466 0.0
C3 C 0.18427 0.49692 0.32685 0.0
C4 C 0.23114 0.51333 0.32806 0.0
C5 C 0.22846 0.48777 0.34828 0.0
O6 O 0.14792 0.42772 0.34732 0.0
C7 C 0.182 0.46799 0.43788 0.0
O8 O 0.21054 0.45758 0.43608 0.0
H9 H 0.15968 0.49564 0.32232 0.0
H10 H 0.24637 0.47801 0.36348 0.0
N11 N 0.20832 0.41467 0.38282 0.0
N12 N 0.24855 0.38191 0.38272 0.0
C13 C 0.2361 0.40772 0.36923 0.0
C14 C 0.20287 0.39243 0.4053 0.0
C15 C 0.22756 0.37231 0.4054 0.0
C16 C 0.12055 0.43829 0.34522 0.0
O17 O 0.1129 0.46356 0.36146 0.0
H18 H 0.24682 0.42122 0.3498 0.0
H19 H 0.18209 0.39082 0.42032 0.0
O20 O 0.16458 0.46533 0.41299 0.0
H21 H 0.25189 0.52692 0.32409 0.0
H22 H 0.22941 0.35172 0.42046 0.0
Cu23 Cu 0.44224 0.83469 0.67378 0.0
N24 N 0.47939 0.83488 0.69699 0.0
N25 N 0.51841 0.85035 0.72869 0.0
C26 C 0.49172 0.85857 0.71403 0.0
C27 C 0.52291 0.82031 0.72063 0.0
C28 C 0.49881 0.81085 0.70122 0.0
O29 O 0.4163 0.86776 0.69095 0.0
C30 C 0.4714 0.82447 0.61208 0.0
O31 O 0.48577 0.80258 0.62835 0.0
H32 H 0.4814 0.88136 0.71558 0.0
H33 H 0.4954 0.78783 0.69134 0.0
N34 N 0.42186 0.79729 0.68218 0.0
N35 N 0.38763 0.75842 0.68129 0.0
C36 C 0.39835 0.78409 0.66574 0.0
C37 C 0.42607 0.77946 0.70889 0.0
C38 C 0.40519 0.75545 0.70835 0.0
C39 C 0.42208 0.89627 0.68585 0.0
O40 O 0.44562 0.90389 0.66676 0.0
H41 H 0.38866 0.79373 0.64354 0.0
H42 H 0.4427 0.78404 0.72795 0.0
O43 O 0.4508 0.84057 0.62692 0.0
H44 H 0.54188 0.80594 0.72878 0.0
H45 H 0.4031 0.73728 0.72659 0.0
Cu46 Cu 0.83654 0.56819 0.3679 0.0
N47 N 0.82029 0.54006 0.33781 0.0
N48 N 0.81833 0.50383 0.29847 0.0
C49 C 0.83667 0.52039 0.31866 0.0
C50 C 0.78922 0.5135 0.30543 0.0
C51 C 0.79053 0.53584 0.32965 0.0
O52 O 0.86993 0.59046 0.34613 0.0
C53 C 0.83369 0.52745 0.42169 0.0
O54 O 0.8064 0.52113 0.40944 0.0
H55 H 0.86155 0.51816 0.31982 0.0
H56 H 0.77115 0.54828 0.34039 0.0
N57 N 0.80624 0.59623 0.38197 0.0
N58 N 0.76643 0.6294 0.38353 0.0
C59 C 0.78498 0.61157 0.36422 0.0
C60 C 0.80108 0.60465 0.41341 0.0
C61 C 0.77659 0.62503 0.41449 0.0
C62 C 0.89673 0.57859 0.3426 0.0
O63 O 0.90236 0.55132 0.35564 0.0
H64 H 0.78323 0.60965 0.33776 0.0
H65 H 0.81403 0.59621 0.43418 0.0
O66 O 0.85121 0.54661 0.40663 0.0
H67 H 0.76844 0.50544 0.29357 0.0
H68 H 0.76659 0.63515 0.43654 0.0
Cu69 Cu 0.56093 0.20303 0.6706 0.0
N70 N 0.52122 0.2029 0.68942 0.0
N71 N 0.47931 0.1905 0.71949 0.0
C72 C 0.50889 0.18299 0.71152 0.0
C73 C 0.47306 0.21619 0.70173 0.0
C74 C 0.49886 0.2237 0.68327 0.0
O75 O 0.58588 0.17079 0.69038 0.0
C76 C 0.53475 0.18579 0.60931 0.0
O77 O 0.51232 0.17448 0.62777 0.0
H78 H 0.52126 0.16323 0.72114 0.0
H79 H 0.50129 0.24308 0.66656 0.0
N80 N 0.57904 0.24126 0.68028 0.0
N81 N 0.61158 0.28153 0.68288 0.0
C82 C 0.60611 0.25335 0.66942 0.0
C83 C 0.56726 0.26228 0.70143 0.0
C84 C 0.58713 0.28705 0.70305 0.0
C85 C 0.58025 0.14197 0.68766 0.0
O86 O 0.55687 0.13287 0.6697 0.0
H87 H 0.6214 0.24173 0.6521 0.0
H88 H 0.54592 0.25953 0.71528 0.0
O89 O 0.55815 0.1981 0.62296 0.0
H90 H 0.45154 0.22901 0.70226 0.0
H91 H 0.58419 0.30717 0.7187 0.0
Cu92 Cu 0.18398 0.57387 0.67366 0.0
N93 N 0.19516 0.55075 0.71045 0.0
N94 N 0.19265 0.51542 0.75067 0.0
C95 C 0.17883 0.52724 0.72379 0.0
C96 C 0.2188 0.53218 0.75424 0.0
C97 C 0.22024 0.55399 0.72944 0.0
O98 O 0.14883 0.59934 0.68627 0.0
C99 C 0.16262 0.5521 0.61137 0.0
O100 O 0.15127 0.58012 0.60757 0.0
H101 H 0.15743 0.51871 0.71364 0.0
H102 H 0.23823 0.57107 0.72562 0.0
N103 N 0.21681 0.59896 0.65971 0.0
N104 N 0.25469 0.63428 0.65796 0.0
C105 C 0.2315 0.62162 0.67618 0.0
C106 C 0.23108 0.59725 0.63017 0.0
C107 C 0.25439 0.61894 0.629 0.0
C108 C 0.12207 0.58775 0.69081 0.0
O109 O 0.11752 0.5584 0.68369 0.0
H110 H 0.2253 0.62856 0.70099 0.0
H111 H 0.22522 0.581 0.61096 0.0
O112 O 0.1755 0.545 0.63833 0.0
H113 H 0.2355 0.52922 0.77362 0.0
H114 H 0.27044 0.62244 0.60869 0.0
Cu115 Cu 0.56632 0.81589 0.3676 0.0
N116 N 0.52768 0.81435 0.34764 0.0
N117 N 0.48779 0.82293 0.31428 0.0
C118 C 0.51798 0.82879 0.32025 0.0
C119 C 0.47845 0.80383 0.3388 0.0
C120 C 0.50307 0.79855 0.35918 0.0
O121 O 0.5926 0.84776 0.34819 0.0
C122 C 0.53846 0.83633 0.42794 0.0
O123 O 0.52027 0.85271 0.40896 0.0
H124 H 0.53276 0.84335 0.30517 0.0
H125 H 0.50294 0.78469 0.38137 0.0
N126 N 0.58622 0.77812 0.36039 0.0
N127 N 0.62216 0.74082 0.36155 0.0
C128 C 0.6142 0.76969 0.37153 0.0
C129 C 0.57604 0.75388 0.34275 0.0
C130 C 0.59814 0.73082 0.34342 0.0
C131 C 0.58479 0.87546 0.34136 0.0
O132 O 0.55687 0.88526 0.34922 0.0
H133 H 0.62852 0.78469 0.3863 0.0
H134 H 0.55406 0.75303 0.33033 0.0
O135 O 0.5604 0.82064 0.41492 0.0
H136 H 0.45522 0.79509 0.34253 0.0
H137 H 0.59634 0.70828 0.3319 0.0
Cu138 Cu 0.82667 0.4447 0.67026 0.0
N139 N 0.83439 0.48383 0.6881 0.0
N140 N 0.85177 0.52142 0.72098 0.0
C141 C 0.85242 0.49079 0.71389 0.0
C142 C 0.83246 0.53407 0.69879 0.0
C143 C 0.82173 0.51084 0.67866 0.0
O144 O 0.85785 0.41602 0.68617 0.0
C145 C 0.84364 0.46613 0.60638 0.0
O146 O 0.86377 0.48297 0.62244 0.0
H147 H 0.86525 0.47361 0.72752 0.0
H148 H 0.80577 0.51337 0.65853 0.0
N149 N 0.78781 0.43227 0.68584 0.0
N150 N 0.7415 0.40978 0.69166 0.0
C151 C 0.76847 0.41027 0.67442 0.0
C152 C 0.77269 0.44577 0.71118 0.0
C153 C 0.74418 0.43204 0.71478 0.0
C154 C 0.88659 0.42173 0.68272 0.0
O155 O 0.89523 0.44641 0.66611 0.0
H156 H 0.77368 0.39559 0.65345 0.0
H157 H 0.78169 0.46462 0.72578 0.0
O158 O 0.82608 0.4476 0.62233 0.0
H159 H 0.82676 0.55844 0.6969 0.0
H160 H 0.72672 0.43796 0.73307 0.0
Cu161 Cu 0.45385 0.20402 0.3608 0.0
N162 N 0.48997 0.20198 0.33496 0.0
N163 N 0.52553 0.1843 0.29897 0.0
C164 C 0.49716 0.17996 0.31264 0.0
C165 C 0.53631 0.21048 0.31314 0.0
C166 C 0.5143 0.22136 0.3351 0.0
O167 O 0.42464 0.17426 0.34363 0.0
C168 C 0.48846 0.19122 0.4194 0.0
O169 O 0.51288 0.19078 0.39991 0.0
H170 H 0.48175 0.16117 0.3066 0.0
H171 H 0.51619 0.24159 0.35071 0.0
N172 N 0.43589 0.24317 0.35663 0.0
N173 N 0.40133 0.28163 0.36097 0.0
C174 C 0.40951 0.25299 0.37124 0.0
C175 C 0.44475 0.26632 0.33646 0.0
C176 C 0.42351 0.29009 0.33909 0.0
C177 C 0.42902 0.14512 0.34456 0.0
O178 O 0.45353 0.13417 0.35948 0.0
H179 H 0.39603 0.23889 0.38813 0.0
H180 H 0.46485 0.2657 0.32036 0.0
O181 O 0.46177 0.19583 0.40728 0.0
H182 H 0.55881 0.22074 0.30881 0.0
H183 H 0.42427 0.31181 0.32578 0.0
Cu184 Cu 0.70674 0.96208 0.8488 0.0
N185 N 0.7078 1.00069 0.82773 0.0
N186 N 0.69388 0.04265 0.79909 0.0
C187 C 0.68497 0.01472 0.81096 0.0
C188 C 0.72347 0.04617 0.80867 0.0
C189 C 0.73196 0.02032 0.82621 0.0
O190 O 0.67728 0.93572 0.82685 0.0
C191 C 0.70871 0.98756 0.91253 0.0
O192 O 0.7309 1.00434 0.89924 0.0
H193 H 0.66219 1.00484 0.80793 0.0
H194 H 0.75428 0.01609 0.83711 0.0
N195 N 0.74544 0.94301 0.84472 0.0
N196 N 0.78431 0.90917 0.85039 0.0
C197 C 0.7566 0.91904 0.86227 0.0
C198 C 0.76671 0.94845 0.821 0.0
C199 C 0.79072 0.92779 0.8245 0.0
C200 C 0.64811 0.93905 0.82931 0.0
O201 O 0.63672 0.96105 0.84828 0.0
H202 H 0.74406 0.90834 0.88249 0.0
H203 H 0.76453 0.96572 0.80188 0.0
O204 O 0.69529 0.96726 0.89499 0.0
H205 H 0.73812 0.06586 0.80307 0.0
H206 H 0.81122 0.92651 0.80899 0.0
Cu207 Cu 0.94392 0.33223 0.16842 0.0
N208 N 0.98072 0.32611 0.19082 0.0
N209 N 0.02132 0.33506 0.22298 0.0
C210 C 0.99581 0.3472 0.20901 0.0
C211 C 0.02214 0.30514 0.21311 0.0
C212 C 0.99701 0.29969 0.19336 0.0
O213 O 0.92819 0.37264 0.18146 0.0
C214 C 0.97724 0.33601 0.10802 0.0
O215 O 1.00012 0.34417 0.12715 0.0
H216 H 0.98827 0.37101 0.21167 0.0
H217 H 0.99082 0.27795 0.1819 0.0
N218 N 0.91593 0.30232 0.18342 0.0
N219 N 0.88429 0.26154 0.18805 0.0
C220 C 0.90421 0.27722 0.16819 0.0
C221 C 0.90331 0.30229 0.21383 0.0
C222 C 0.88376 0.27731 0.21674 0.0
C223 C 0.89941 0.37891 0.18225 0.0
O224 O 0.87965 0.35855 0.17083 0.0
H225 H 0.90991 0.27081 0.14308 0.0
H226 H 0.90809 0.31938 0.23258 0.0
O227 O 0.95086 0.32994 0.12089 0.0
H228 H 0.03929 0.28818 0.22016 0.0
H229 H 0.87062 0.27093 0.23855 0.0
Cu230 Cu 0.32699 0.06948 0.8733 0.0
N231 N 0.31582 0.03833 0.84401 0.0
N232 N 0.32023 1.00085 0.80633 0.0
C233 C 0.3352 0.02262 0.82391 0.0
C234 C 0.29024 1.00299 0.81575 0.0
C235 C 0.28756 0.0263 0.8389 0.0
O236 O 0.35738 0.09539 0.85116 0.0
C237 C 0.32925 0.02896 0.92732 0.0
O238 O 0.30398 0.01798 0.91397 0.0
H239 H 0.35993 0.02656 0.82285 0.0
H240 H 0.26661 0.03372 0.85144 0.0
N241 N 0.29256 0.09335 0.88514 0.0
N242 N 0.25347 0.12732 0.88382 0.0
C243 C 0.27617 0.11299 0.86632 0.0
C244 C 0.27979 0.09524 0.91542 0.0
C245 C 0.25571 0.11611 0.9147 0.0
C246 C 0.3862 0.08932 0.85139 0.0
O247 O 0.39613 0.0657 0.86873 0.0
H248 H 0.28129 0.11716 0.84056 0.0
H249 H 0.28764 0.08252 0.93667 0.0
O250 O 0.34352 0.05115 0.91312 0.0
H251 H 0.2716 0.9888 0.80654 0.0
H252 H 0.24088 0.12236 0.93532 0.0
Cu253 Cu 0.08238 0.68645 0.17002 0.0
N254 N 0.0416 0.68595 0.18549 0.0
N255 N 0.99903 0.67581 0.21537 0.0
C256 C 0.02968 0.67031 0.21137 0.0
C257 C 0.9916 0.69564 0.19097 0.0
C258 C 0.01787 0.70186 0.17268 0.0
O259 O 0.1033 0.6498 0.18702 0.0
C260 C 0.06349 0.66795 0.107 0.0
O261 O 0.04849 0.64662 0.12386 0.0
H262 H 0.04335 0.65554 0.22708 0.0
H263 H 0.0196 0.71681 0.15137 0.0
N264 N 0.10039 0.72315 0.18503 0.0
N265 N 0.13035 0.76503 0.19064 0.0
C266 C 0.12506 0.73892 0.1731 0.0
C267 C 0.08989 0.73973 0.21086 0.0
C268 C 0.10824 0.7655 0.21439 0.0
C269 C 0.12744 0.65086 0.20468 0.0
O270 O 0.14045 0.67776 0.2106 0.0
H271 H 0.1386 0.73156 0.15192 0.0
H272 H 0.07019 0.73343 0.22611 0.0
O273 O 0.08099 0.68672 0.12224 0.0
H274 H 0.96871 0.70465 0.18622 0.0
H275 H 0.10579 0.78298 0.23338 0.0
Cu276 Cu 0.69844 0.06394 0.16332 0.0
N277 N 0.69317 0.0263 0.18565 0.0
N278 N 0.67465 0.98977 0.21972 0.0
C279 C 0.67306 0.01981 0.21033 0.0
C280 C 0.69687 0.97705 0.20033 0.0
C281 C 0.70823 0.9996 0.17943 0.0
O282 O 0.66886 0.09436 0.17939 0.0
C283 C 0.68289 0.03618 0.10092 0.0
O284 O 0.66734 0.01527 0.1178 0.0
H285 H 0.65758 0.03677 0.22118 0.0
H286 H 0.72575 0.9966 0.16046 0.0
N287 N 0.73788 0.07956 0.17102 0.0
N288 N 0.77609 0.11384 0.17748 0.0
C289 C 0.74516 0.10929 0.17744 0.0
C290 C 0.76507 0.06475 0.16692 0.0
C291 C 0.78871 0.08585 0.17091 0.0
C292 C 0.63981 0.08987 0.18119 0.0
O293 O 0.6282 0.06375 0.17019 0.0
H294 H 0.72808 0.12747 0.18051 0.0
H295 H 0.76748 0.04055 0.1604 0.0
O296 O 0.69593 0.05844 0.11596 0.0
H297 H 0.70377 0.95293 0.20041 0.0
H298 H 0.81324 0.08102 0.16881 0.0
Cu299 Cu 0.06674 0.32803 0.85933 0.0
N300 N 0.03056 0.31818 0.83717 0.0
N301 N 0.98958 0.3227 0.80456 0.0
C302 C 0.01524 0.33658 0.81617 0.0
C303 C 0.98881 0.29444 0.81884 0.0
C304 C 0.01423 0.29168 0.83885 0.0
O305 O 0.08059 0.36837 0.84385 0.0
C306 C 0.0326 0.33361 0.91926 0.0
O307 O 1.00936 0.33938 0.89965 0.0
H308 H 0.02248 0.35993 0.81014 0.0
H309 H 0.02032 0.27187 0.85375 0.0
N310 N 0.09671 0.29881 0.84753 0.0
N311 N 0.13298 0.26179 0.84878 0.0
C312 C 0.11244 0.27885 0.86659 0.0
C313 C 0.10755 0.29432 0.81677 0.0
C314 C 0.12987 0.2716 0.81741 0.0
C315 C 0.10872 0.3769 0.84551 0.0
O316 O 0.12877 0.35878 0.86012 0.0
H317 H 0.10877 0.2769 0.89289 0.0
H318 H 0.09995 0.30708 0.79542 0.0
O319 O 0.05934 0.32839 0.90683 0.0
H320 H 0.97127 0.27696 0.81495 0.0
H321 H 0.14326 0.26353 0.79643 0.0
Cu322 Cu 0.33079 0.94473 0.17457 0.0
N323 N 0.33645 0.98446 0.19181 0.0
N324 N 0.35197 0.02343 0.22392 0.0
C325 C 0.35297 0.99254 0.21836 0.0
C326 C 0.33385 0.03507 0.20004 0.0
C327 C 0.32425 1.01098 0.18038 0.0
O328 O 0.36373 0.91789 0.19006 0.0
C329 C 0.34703 0.96543 0.11049 0.0
O330 O 0.36792 0.98161 0.12619 0.0
H331 H 0.36526 0.97602 0.23339 0.0
H332 H 0.30962 0.01265 0.15904 0.0
N333 N 0.29303 0.93017 0.19111 0.0
N334 N 0.24861 0.90447 0.19885 0.0
C335 C 0.2747 0.90706 0.18027 0.0
C336 C 0.27821 0.94228 0.21741 0.0
C337 C 0.2509 0.92657 0.22222 0.0
C338 C 0.39195 0.92638 0.19009 0.0
O339 O 0.39954 0.95316 0.17696 0.0
H340 H 0.28009 0.8929 0.15896 0.0
H341 H 0.28671 0.96134 0.23204 0.0
O342 O 0.32933 0.94726 0.12674 0.0
H343 H 0.32846 0.05933 0.19647 0.0
H344 H 0.23415 0.93088 0.24172 0.0
Cu345 Cu 0.95109 0.69217 0.87557 0.0
N346 N 0.98167 0.70191 0.84444 0.0
N347 N 0.0178 0.696 0.8051 0.0
C348 C 0.99759 0.68163 0.82559 0.0
C349 C 0.01447 0.72657 0.81143 0.0
C350 C 0.99206 0.73014 0.83563 0.0
O351 O 0.92264 0.66347 0.85509 0.0
C352 C 0.99301 0.68801 0.92754 0.0
O353 O 1.00442 0.71289 0.91324 0.0
H354 H 0.99475 0.65678 0.82723 0.0
H355 H 0.98387 0.75176 0.84605 0.0
N356 N 0.92944 0.72792 0.88786 0.0
N357 N 0.89899 0.76987 0.88636 0.0
C358 C 0.91189 0.74634 0.86888 0.0
C359 C 0.92766 0.74012 0.91828 0.0
C360 C 0.90896 0.76597 0.91745 0.0
C361 C 0.92918 0.63503 0.85037 0.0
O362 O 0.95512 0.62383 0.86201 0.0
H363 H 0.90832 0.74224 0.84293 0.0
H364 H 0.93913 0.73082 0.93963 0.0
O365 O 0.96986 0.67458 0.91467 0.0
H366 H 0.02703 0.74505 0.79922 0.0
H367 H 0.90352 0.78093 0.93811 0.0
H368 H 0.28179 0.34324 0.42091 0.0
H369 H 0.28113 0.3867 0.32524 0.0
H370 H 0.32922 0.36024 0.31047 0.0
H371 H 0.37048 0.32314 0.3239 0.0
H372 H 0.37019 0.27877 0.41901 0.0
H373 H 0.323 0.30662 0.43446 0.0
C374 C 0.2919 0.34679 0.39669 0.0
C375 C 0.27754 0.36695 0.37424 0.0
C376 C 0.31934 0.33111 0.38814 0.0
C377 C 0.29162 0.37165 0.34323 0.0
C378 C 0.3191 0.35632 0.33464 0.0
C379 C 0.3603 0.31981 0.34813 0.0
C380 C 0.3739 0.29881 0.37024 0.0
C381 C 0.33306 0.33586 0.35683 0.0
C382 C 0.36005 0.29445 0.40137 0.0
C383 C 0.33313 0.3105 0.41029 0.0
H384 H 0.3511 0.72429 0.72156 0.0
H385 H 0.36686 0.74789 0.61958 0.0
H386 H 0.32562 0.71246 0.60337 0.0
H387 H 0.28655 0.67329 0.61807 0.0
H388 H 0.27234 0.64845 0.72002 0.0
H389 H 0.31141 0.68602 0.73633 0.0
C390 C 0.34573 0.72155 0.69575 0.0
C391 C 0.36235 0.73856 0.67181 0.0
C392 C 0.32221 0.70094 0.68661 0.0
C393 C 0.3544 0.73526 0.63855 0.0
C394 C 0.33092 0.71486 0.62925 0.0
C395 C 0.29208 0.67592 0.64385 0.0
C396 C 0.27655 0.6578 0.66772 0.0
C397 C 0.31491 0.69733 0.65305 0.0
C398 C 0.28361 0.66216 0.7011 0.0
C399 C 0.30616 0.68353 0.71045 0.0
H400 H 0.64847 0.69432 0.3263 0.0
H401 H 0.6591 0.74924 0.41428 0.0
H402 H 0.70571 0.72044 0.42792 0.0
H403 H 0.74275 0.67891 0.41574 0.0
H404 H 0.73115 0.62234 0.32915 0.0
H405 H 0.68578 0.65268 0.31403 0.0
C406 C 0.6608 0.69987 0.34859 0.0
C407 C 0.65009 0.72398 0.36921 0.0
C408 C 0.68751 0.68295 0.35652 0.0
C409 C 0.66686 0.73114 0.39769 0.0
C410 C 0.69348 0.71452 0.40565 0.0
C411 C 0.73022 0.67298 0.39369 0.0
C412 C 0.74039 0.64817 0.37377 0.0
C413 C 0.7039 0.69026 0.38537 0.0
C414 C 0.72414 0.64143 0.34484 0.0
C415 C 0.69801 0.65866 0.33628 0.0
H416 H 0.613 0.34352 0.68895 0.0
H417 H 0.67048 0.26432 0.66675 0.0
H418 H 0.71626 0.29777 0.66459 0.0
H419 H 0.74046 0.34935 0.67368 0.0
H420 H 0.6821 0.4273 0.69821 0.0
H421 H 0.63626 0.39457 0.6952 0.0
C422 C 0.63552 0.33348 0.68376 0.0
C423 C 0.63826 0.30135 0.6785 0.0
C424 C 0.66168 0.35269 0.68322 0.0
C425 C 0.66761 0.28895 0.67084 0.0
C426 C 0.69385 0.30807 0.66982 0.0
C427 C 0.71764 0.35912 0.67788 0.0
C428 C 0.71467 0.39063 0.68652 0.0
C429 C 0.69125 0.33993 0.67658 0.0
C430 C 0.68499 0.40303 0.69209 0.0
C431 C 0.65877 0.38436 0.69027 0.0
H432 H 0.82443 0.87445 0.8146 0.0
H433 H 0.78556 0.88555 0.91219 0.0
H434 H 0.81722 0.84257 0.93187 0.0
H435 H 0.85656 0.80245 0.92153 0.0
H436 H 0.89636 0.79245 0.82419 0.0
H437 H 0.86363 0.83437 0.80425 0.0
C438 C 0.82305 0.86774 0.84025 0.0
C439 C 0.8027 0.88345 0.86189 0.0
C440 C 0.84145 0.84312 0.85144 0.0
C441 C 0.80078 0.8738 0.89491 0.0
C442 C 0.81902 0.8493 0.90623 0.0
C443 C 0.85832 0.80956 0.89602 0.0
C444 C 0.87909 0.79426 0.87447 0.0
C445 C 0.83956 0.8339 0.88474 0.0
C446 C 0.88045 0.80349 0.84129 0.0
C447 C 0.86184 0.82764 0.82989 0.0
H448 H 0.83026 0.13138 0.14943 0.0
H449 H 0.75768 0.16176 0.21571 0.0
H450 H 0.78449 0.21094 0.22398 0.0
H451 H 0.82887 0.24491 0.21312 0.0
H452 H 0.9017 0.21497 0.14697 0.0
H453 H 0.87437 0.16612 0.13756 0.0
C454 C 0.82047 0.14868 0.16586 0.0
C455 C 0.79208 0.14283 0.18209 0.0
C456 C 0.83597 0.17701 0.17036 0.0
C457 C 0.77936 0.16576 0.20278 0.0
C458 C 0.79473 0.19384 0.2076 0.0
C459 C 0.83887 0.22763 0.19679 0.0
C460 C 0.86743 0.23349 0.18098 0.0
C461 C 0.82309 0.19965 0.19163 0.0
C462 C 0.87969 0.21114 0.15927 0.0
C463 C 0.86415 0.18312 0.15407 0.0
H464 H 0.15966 0.21561 0.8134 0.0
H465 H 0.15488 0.25544 0.91083 0.0
H466 H 0.19163 0.21689 0.93038 0.0
H467 H 0.22607 0.17263 0.91957 0.0
H468 H 0.23156 0.13344 0.82199 0.0
H469 H 0.19427 0.17165 0.80251 0.0
C470 C 0.16681 0.21616 0.83884 0.0
C471 C 0.15437 0.2386 0.86052 0.0
C472 C 0.18831 0.19416 0.84985 0.0
C473 C 0.16362 0.23834 0.8936 0.0
C474 C 0.18487 0.21639 0.90478 0.0
C475 C 0.21892 0.17223 0.89412 0.0
C476 C 0.23162 0.15009 0.8723 0.0
C477 C 0.1974 0.19424 0.88311 0.0
C478 C 0.22247 0.15037 0.83923 0.0
C479 C 0.20098 0.17212 0.82812 0.0
H480 H 0.25108 0.84561 0.17544 0.0
H481 H 0.18868 0.91524 0.21386 0.0
H482 H 0.1461 0.87835 0.21304 0.0
H483 H 0.12699 0.82582 0.20426 0.0
H484 H 0.18845 0.75521 0.16654 0.0
H485 H 0.23075 0.793 0.16341 0.0
C486 C 0.22807 0.85275 0.18318 0.0
C487 C 0.22322 0.88306 0.19516 0.0
C488 C 0.20352 0.83122 0.1828 0.0
C489 C 0.19324 0.89192 0.20522 0.0
C490 C 0.1688 0.87087 0.20461 0.0
C491 C 0.14965 0.81865 0.19542 0.0
C492 C 0.15463 0.78765 0.18605 0.0
C493 C 0.17379 0.84035 0.19406 0.0
C494 C 0.18396 0.77894 0.17383 0.0
C495 C 0.2082 0.80052 0.17223 0.0
H496 H 0.15647 0.52172 0.27121 0.0
H497 H 0.2306 0.57563 0.31251 0.0
H498 H 0.21466 0.6206 0.28063 0.0
H499 H 0.17823 0.64549 0.24316 0.0
H500 H 0.10332 0.59216 0.20248 0.0
H501 H 0.12092 0.54624 0.23208 0.0
C502 C 0.16908 0.54332 0.27333 0.0
C503 C 0.19466 0.54519 0.29441 0.0
C504 C 0.15959 0.56929 0.25509 0.0
C505 C 0.21106 0.57329 0.29631 0.0
C506 C 0.20182 0.59915 0.27821 0.0
C507 C 0.16581 0.6238 0.24056 0.0
C508 C 0.13939 0.6224 0.22069 0.0
C509 C 0.17594 0.59752 0.2578 0.0
C510 C 0.12371 0.59399 0.21759 0.0
C511 C 0.13372 0.56769 0.2346 0.0
H512 H 0.57977 0.844 0.73728 0.0
H513 H 0.50109 0.89995 0.76572 0.0
H514 H 0.53423 0.93228 0.79983 0.0
H515 H 0.58571 0.94466 0.8216 0.0
H516 H 0.66416 0.88831 0.79287 0.0
H517 H 0.63083 0.85588 0.75934 0.0
C518 C 0.56976 0.86304 0.7512 0.0
C519 C 0.53794 0.86945 0.7489 0.0
C520 C 0.58892 0.88145 0.77083 0.0
C521 C 0.52554 0.89466 0.76666 0.0
C522 C 0.54446 0.91306 0.78637 0.0
C523 C 0.5955 0.92521 0.80813 0.0
C524 C 0.62741 0.91897 0.80982 0.0
C525 C 0.57621 0.90669 0.78862 0.0
C526 C 0.6397 0.89373 0.79203 0.0
C527 C 0.62066 0.87513 0.7728 0.0
H528 H 0.84069 0.39091 0.20341 0.0
H529 H 0.93308 0.42892 0.20239 0.0
H530 H 0.91567 0.47193 0.23714 0.0
H531 H 0.8749 0.49725 0.26991 0.0
H532 H 0.78326 0.45743 0.27343 0.0
H533 H 0.79965 0.41696 0.2352 0.0
C534 C 0.85697 0.40879 0.21043 0.0
C535 C 0.88816 0.40665 0.2003 0.0
C536 C 0.84697 0.4331 0.23101 0.0
C537 C 0.90895 0.42995 0.20986 0.0
C538 C 0.89903 0.45452 0.22982 0.0
C539 C 0.8585 0.47965 0.2626 0.0
C540 C 0.82786 0.48047 0.2749 0.0
C541 C 0.86822 0.45602 0.24101 0.0
C542 C 0.80687 0.45772 0.26431 0.0
C543 C 0.81628 0.43438 0.24252 0.0
H544 H 0.49457 0.15161 0.76918 0.0
H545 H 0.41654 0.19287 0.72019 0.0
H546 H 0.38117 0.16658 0.75777 0.0
H547 H 0.37196 0.13094 0.80369 0.0
H548 H 0.44948 0.08758 0.85139 0.0
H549 H 0.48532 0.11538 0.81498 0.0
C550 C 0.46986 0.1547 0.76646 0.0
C551 C 0.45846 0.17446 0.74178 0.0
C552 C 0.44944 0.13908 0.78797 0.0
C553 C 0.42622 0.17834 0.73914 0.0
C554 C 0.40585 0.16311 0.76056 0.0
C555 C 0.3967 0.12769 0.80631 0.0
C556 C 0.40798 0.10725 0.83033 0.0
C557 C 0.41717 0.14341 0.78503 0.0
C558 C 0.44013 0.10316 0.83313 0.0
C559 C 0.46067 0.11904 0.81228 0.0
H560 H 0.13346 0.49717 0.76044 0.0
H561 H 0.22759 0.47632 0.78691 0.0
H562 H 0.20972 0.43259 0.82013 0.0
H563 H 0.16761 0.39897 0.83994 0.0
H564 H 0.07351 0.41915 0.81245 0.0
H565 H 0.09118 0.46428 0.78127 0.0
C566 C 0.15011 0.48296 0.77326 0.0
C567 C 0.18188 0.49003 0.77096 0.0
C568 C 0.13968 0.45766 0.79217 0.0
C569 C 0.20302 0.47166 0.7884 0.0
C570 C 0.19282 0.44651 0.8073 0.0
C571 C 0.1509 0.41333 0.82733 0.0
C572 C 0.11926 0.40555 0.82853 0.0
C573 C 0.16123 0.43915 0.80918 0.0
C574 C 0.09799 0.4245 0.81198 0.0
C575 C 0.10808 0.45032 0.79405 0.0
H576 H 0.3852 0.86924 0.21789 0.0
H577 H 0.4509 0.94372 0.20481 0.0
H578 H 0.48718 0.91742 0.24085 0.0
H579 H 0.49858 0.87542 0.27938 0.0
H580 H 0.4335 0.80023 0.29148 0.0
H581 H 0.39867 0.82486 0.25278 0.0
C582 C 0.40758 0.87958 0.22265 0.0
C583 C 0.41515 0.90854 0.20884 0.0
C584 C 0.42836 0.8644 0.24355 0.0
C585 C 0.44437 0.92148 0.21511 0.0
C586 C 0.46514 0.90651 0.23585 0.0
C587 C 0.47709 0.86403 0.27322 0.0
C588 C 0.46865 0.83612 0.2889 0.0
C589 C 0.45716 0.87823 0.25068 0.0
C590 C 0.44043 0.82203 0.28054 0.0
C591 C 0.42049 0.83603 0.25818 0.0
H592 H 0.83555 0.57503 0.75085 0.0
H593 H 0.90572 0.50381 0.74887 0.0
H594 H 0.93487 0.53165 0.7906 0.0
H595 H 0.94177 0.57756 0.82566 0.0
H596 H 0.87229 0.64957 0.82616 0.0
H597 H 0.84168 0.62014 0.78693 0.0
C598 C 0.8573 0.56565 0.75936 0.0
C599 C 0.86843 0.53739 0.7465 0.0
C600 C 0.87413 0.58197 0.78313 0.0
C601 C 0.89639 0.52532 0.75845 0.0
C602 C 0.91319 0.54134 0.78223 0.0
C603 C 0.91979 0.5867 0.81746 0.0
C604 C 0.90943 0.61581 0.82883 0.0
C605 C 0.90243 0.56983 0.79452 0.0
C606 C 0.88091 0.62729 0.81779 0.0
C607 C 0.86338 0.6105 0.79528 0.0
H608 H 0.58344 0.0796 0.20954 0.0
H609 H 0.65224 0.15067 0.19369 0.0
H610 H 0.62194 0.18685 0.22731 0.0
H611 H 0.57726 0.1975 0.26307 0.0
H612 H 0.51038 0.12497 0.28203 0.0
H613 H 0.53829 0.09061 0.24493 0.0
C614 C 0.5916 0.10313 0.2131 0.0
C615 C 0.62002 0.11244 0.19909 0.0
C616 C 0.57445 0.12361 0.23313 0.0
C617 C 0.63046 0.1429 0.20426 0.0
C618 C 0.61317 0.1636 0.22352 0.0
C619 C 0.56872 0.17419 0.2594 0.0
C620 C 0.54156 0.1642 0.27578 0.0
C621 C 0.58536 0.15405 0.23851 0.0
C622 C 0.53088 0.13384 0.26984 0.0
C623 C 0.547 0.1139 0.24863 0.0
H624 H 0.64617 0.02978 0.75879 0.0
H625 H 0.70059 0.10497 0.79753 0.0
H626 H 0.67074 0.14215 0.76583 0.0
H627 H 0.62895 0.15356 0.72759 0.0
H628 H 0.5738 0.07879 0.689 0.0
H629 H 0.60401 0.04131 0.72031 0.0
C630 C 0.65133 0.05431 0.76051 0.0
C631 C 0.67571 0.06447 0.78052 0.0
C632 C 0.63394 0.07569 0.74221 0.0
C633 C 0.68231 0.09638 0.78203 0.0
C634 C 0.66511 0.11772 0.76402 0.0
C635 C 0.62352 0.12907 0.72591 0.0
C636 C 0.5991 0.11907 0.70592 0.0
C637 C 0.64091 0.10765 0.74402 0.0
C638 C 0.59247 0.08719 0.70414 0.0
C639 C 0.60972 0.06571 0.72209 0.0
H640 H 0.13033 0.38736 0.30712 0.0
H641 H 0.05973 0.45337 0.33553 0.0
H642 H 0.02264 0.42711 0.30014 0.0
H643 H 0.01028 0.38525 0.26136 0.0
H644 H 0.08145 0.32011 0.23235 0.0
H645 H 0.11816 0.34603 0.26814 0.0
C646 C 0.10682 0.39605 0.30566 0.0
C647 C 0.09786 0.42233 0.32402 0.0
C648 C 0.08567 0.38092 0.28523 0.0
C649 C 0.06729 0.43321 0.3217 0.0
C650 C 0.04605 0.4182 0.30145 0.0
C651 C 0.03387 0.37687 0.26257 0.0
C652 C 0.04298 0.35067 0.2441 0.0
C653 C 0.05501 0.39206 0.28306 0.0
C654 C 0.0736 0.3399 0.24654 0.0
C655 C 0.0947 0.35484 0.26688 0.0
H656 H 0.36933 1.01038 0.76625 0.0
H657 H 0.3017 0.94195 0.79533 0.0
H658 H 0.32641 0.90374 0.75914 0.0
H659 H 0.36876 0.88909 0.72137 0.0
H660 H 0.43623 0.95773 0.69182 0.0
H661 H 0.41006 0.99653 0.72599 0.0
C662 C 0.36008 0.98708 0.76466 0.0
C663 C 0.33387 0.97894 0.78362 0.0
C664 C 0.37439 0.96527 0.74376 0.0
C665 C 0.32172 0.94884 0.78085 0.0
C666 C 0.33595 0.92695 0.76029 0.0
C667 C 0.37765 0.91258 0.72222 0.0
C668 C 0.40456 0.9204 0.7042 0.0
C669 C 0.36249 0.93481 0.74192 0.0
C670 C 0.41557 0.95104 0.7054 0.0
C671 C 0.40069 0.97324 0.72505 0.0
H672 H 0.89275 0.63495 0.31274 0.0
H673 H 0.95406 0.55684 0.3251 0.0
H674 H 0.99167 0.5805 0.28753 0.0
H675 H 1.00605 0.62215 0.24904 0.0
H676 H 0.94494 0.70052 0.23747 0.0
H677 H 0.90834 0.67777 0.27653 0.0
C678 C 0.91442 0.62315 0.3074 0.0
C679 C 0.92044 0.59407 0.32167 0.0
C680 C 0.93592 0.6368 0.28564 0.0
C681 C 0.94873 0.57922 0.3145 0.0
C682 C 0.97027 0.59271 0.29292 0.0
C683 C 0.98496 0.6345 0.25535 0.0
C684 C 0.97827 0.66294 0.23994 0.0
C685 C 0.96397 0.62134 0.27806 0.0
C686 C 0.95054 0.67835 0.24832 0.0
C687 C 0.92961 0.66544 0.27087 0.0
H688 H 0.68902 0.93828 0.25402 0.0
H689 H 0.61648 1.00553 0.23963 0.0
H690 H 0.58284 0.97724 0.27779 0.0
H691 H 0.57291 0.93166 0.31297 0.0
H692 H 0.64528 0.86379 0.32584 0.0
H693 H 0.67985 0.89392 0.29049 0.0
C694 C 0.66583 0.94672 0.25909 0.0
C695 C 0.65536 0.97397 0.24371 0.0
C696 C 0.64643 0.93012 0.28078 0.0
C697 C 0.62537 0.98484 0.25122 0.0
C698 C 0.60599 0.96852 0.27294 0.0
C699 C 0.59633 0.92359 0.3083 0.0
C700 C 0.60634 0.89536 0.322 0.0
C701 C 0.61613 0.94092 0.28758 0.0
C702 C 0.63681 0.88531 0.31557 0.0
C703 C 0.65665 0.90253 0.29529 0.0
H704 H 0.87665 0.37339 0.72494 0.0
H705 H 0.94926 0.42875 0.68073 0.0
H706 H 0.9877 0.40209 0.71377 0.0
H707 H 1.00056 0.3649 0.75709 0.0
H708 H 0.92825 0.31004 0.80213 0.0
H709 H 0.88997 0.33433 0.76662 0.0
C710 C 0.90091 0.37942 0.72229 0.0
C711 C 0.90996 0.4032 0.70048 0.0
C712 C 0.92299 0.36416 0.74161 0.0
C713 C 0.94155 0.41065 0.69737 0.0
C714 C 0.9636 0.39546 0.71632 0.0
C715 C 0.97641 0.35835 0.75923 0.0
C716 C 0.96727 0.33588 0.78245 0.0
C717 C 0.95453 0.37255 0.7389 0.0
C718 C 0.93596 0.32713 0.78436 0.0
C719 C 0.91402 0.34114 0.76417 0.0
H720 H 0.44046 0.08537 0.32631 0.0
H721 H 0.37277 0.15858 0.3184 0.0
H722 H 0.34208 0.12658 0.28154 0.0
H723 H 0.3358 0.07901 0.24934 0.0
H724 H 0.40457 1.00669 0.25519 0.0
H725 H 0.43316 0.03691 0.29543 0.0
C726 C 0.4188 0.09418 0.31687 0.0
C727 C 0.409 0.12437 0.32506 0.0
C728 C 0.40149 0.07586 0.29518 0.0
C729 C 0.38095 0.13548 0.3124 0.0
C730 C 0.36339 0.11722 0.29126 0.0
C731 C 0.35709 0.06988 0.25926 0.0
C732 C 0.36801 0.04063 0.24899 0.0
C733 C 0.37371 0.0876 0.28203 0.0
C734 C 0.39538 0.02895 0.26277 0.0
C735 C 0.41189 0.04633 0.28568 0.0
H736 H 0.1261 0.64655 0.71507 0.0
H737 H 0.06304 0.5695 0.70581 0.0
H738 H 0.02461 0.59689 0.73938 0.0
H739 H 0.00995 0.64146 0.77379 0.0
H740 H 0.07338 0.71792 0.78419 0.0
H741 H 0.11041 0.69219 0.74741 0.0
C742 C 0.10384 0.63585 0.72007 0.0
C743 C 0.0976 0.60589 0.70804 0.0
C744 C 0.08192 0.65157 0.73975 0.0
C745 C 0.06857 0.59246 0.71479 0.0
C746 C 0.04657 0.60808 0.73409 0.0
C747 C 0.03192 0.65245 0.76815 0.0
C748 C 0.03894 0.68148 0.78203 0.0
C749 C 0.05321 0.63739 0.74719 0.0
C750 C 0.06726 0.6957 0.77376 0.0
C751 C 0.08853 0.68091 0.75284 0.0
H752 H 0.13414 0.55621 0.55168 0.0
H753 H 0.19761 0.4997 0.60702 0.0
H754 H 0.20792 0.46797 0.55861 0.0
H755 H 0.20221 0.45855 0.49962 0.0
H756 H 0.13762 0.51308 0.44396 0.0
H757 H 0.12429 0.5431 0.49341 0.0
C758 C 0.14994 0.53673 0.55323 0.0
C759 C 0.1653 0.53064 0.58293 0.0
C760 C 0.15575 0.51832 0.52518 0.0
C761 C 0.18548 0.50508 0.58455 0.0
C762 C 0.19154 0.48692 0.5568 0.0
C763 C 0.18504 0.47686 0.49838 0.0
C764 C 0.17121 0.48388 0.46817 0.0
C765 C 0.17734 0.49373 0.52685 0.0
C766 C 0.14861 0.50729 0.46698 0.0
C767 C 0.14109 0.52453 0.49521 0.0
H768 H 0.49094 0.86292 0.46288 0.0
H769 H 0.56976 0.80225 0.47342 0.0
H770 H 0.55589 0.7934 0.53099 0.0
H771 H 0.52064 0.80139 0.57788 0.0
H772 H 0.442 0.86229 0.56808 0.0
H773 H 0.45653 0.87242 0.51069 0.0
C774 C 0.50525 0.84794 0.47781 0.0
C775 C 0.53135 0.83323 0.46367 0.0
C776 C 0.49704 0.84278 0.511 0.0
C777 C 0.54956 0.8139 0.48351 0.0
C778 C 0.54159 0.80873 0.51647 0.0
C779 C 0.50659 0.81686 0.56323 0.0
C780 C 0.4801 0.83086 0.57727 0.0
C781 C 0.5152 0.82275 0.53037 0.0
C782 C 0.46243 0.85111 0.55792 0.0
C783 C 0.47076 0.85693 0.52509 0.0
H784 H 0.802 0.48575 0.45948 0.0
H785 H 0.88455 0.54211 0.45793 0.0
H786 H 0.89581 0.5265 0.51425 0.0
H787 H 0.88039 0.49984 0.56515 0.0
H788 H 0.79779 0.44359 0.56701 0.0
H789 H 0.78857 0.45601 0.50927 0.0
C790 C 0.82262 0.49442 0.47132 0.0
C791 C 0.84223 0.51532 0.45452 0.0
C792 C 0.82888 0.4855 0.50385 0.0
C793 C 0.86896 0.5261 0.47024 0.0
C794 C 0.8754 0.51725 0.50252 0.0
C795 C 0.86047 0.49008 0.5529 0.0
C796 C 0.83966 0.47104 0.57055 0.0
C797 C 0.85522 0.49744 0.51976 0.0
C798 C 0.81415 0.45838 0.55411 0.0
C799 C 0.80881 0.46555 0.52109 0.0
H800 H 0.54173 0.19531 0.45416 0.0
H801 H 0.44357 0.17951 0.46574 0.0
H802 H 0.44959 0.17505 0.52528 0.0
H803 H 0.48243 0.177 0.57413 0.0
H804 H 0.58014 0.19542 0.56289 0.0
H805 H 0.57459 0.19738 0.50309 0.0
C806 C 0.52166 0.19071 0.46966 0.0
C807 C 0.49223 0.18769 0.45545 0.0
C808 C 0.5252 0.1887 0.50395 0.0
C809 C 0.46646 0.18201 0.476 0.0
C810 C 0.46989 0.17942 0.51006 0.0
C811 C 0.50259 0.18123 0.55861 0.0
C812 C 0.5317 0.18595 0.573 0.0
C813 C 0.49911 0.18291 0.52432 0.0
C814 C 0.55747 0.19175 0.55249 0.0
C815 C 0.55431 0.19287 0.51829 0.0
H816 H 0.66191 0.98986 0.06082 0.0
H817 H 0.71579 0.07419 0.05994 0.0
H818 H 0.72804 0.06663 1.00187 0.0
H819 H 0.72523 0.0354 0.95182 0.0
H820 H 0.67113 0.95135 0.95156 0.0
H821 H 0.65724 0.95953 1.00951 0.0
C822 C 0.67614 1.00671 0.04788 0.0
C823 C 0.68799 0.03249 0.06492 0.0
C824 C 0.68325 1.00219 1.01429 0.0
C825 C 0.70636 0.05409 0.04762 0.0
C826 C 0.71348 0.04977 1.01435 0.0
C827 C 0.71039 0.01881 0.96438 0.0
C828 C 0.69946 0.99267 0.9474 0.0
C829 C 0.70237 0.02375 0.99755 0.0
C830 C 0.67995 0.97165 0.96404 0.0
C831 C 0.672 0.97631 0.9972 0.0
H832 H 0.97754 0.332 0.95241 0.0
H833 H 0.07621 0.3345 0.96753 0.0
H834 H 0.06768 0.3354 0.02711 0.0
H835 H 0.03225 0.33621 0.07486 0.0
H836 H 0.93363 0.33199 0.05985 0.0
H837 H 0.94214 0.33093 1.00025 0.0
C838 C 0.99721 0.33276 0.96871 0.0
C839 C 0.02749 0.33338 0.95545 0.0
C840 C 0.99215 0.33295 1.00297 0.0
C841 C 0.05268 0.33402 0.97701 0.0
C842 C 0.04781 0.33458 1.01111 0.0
C843 C 0.01258 0.33506 0.05858 0.0
C844 C 0.98231 0.33437 0.07186 0.0
C845 C 0.01766 0.33418 0.02435 0.0
C846 C 0.95715 0.33255 0.05035 0.0
C847 C 0.962 0.33201 1.01624 0.0
H848 H 0.30235 0.98373 0.9645 0.0
H849 H 0.37806 0.04902 0.96397 0.0
H850 H 0.39138 0.03356 0.01986 0.0
H851 H 0.37957 1.00395 0.06999 0.0
H852 H 0.30329 0.93934 0.0709 0.0
H853 H 0.29234 0.95199 1.01362 0.0
C854 C 0.32193 0.99445 0.97647 0.0
C855 C 0.33902 0.01769 0.96008 0.0
C856 C 0.3293 0.98566 1.00873 0.0
C857 C 0.36441 0.03117 0.97599 0.0
C858 C 0.37202 0.02238 1.008 0.0
C859 C 0.36069 0.99241 0.05763 0.0
C860 C 0.34215 0.97087 0.07488 0.0
C861 C 0.35432 1.00002 0.02479 0.0
C862 C 0.31788 0.95607 0.05833 0.0
C863 C 0.31155 0.96335 0.02556 0.0
H864 H 0.04084 0.71291 0.96151 0.0
H865 H 0.97252 0.64001 0.9662 0.0
H866 H 0.9899 0.62595 0.02122 0.0
H867 H 0.02219 0.63652 0.06935 0.0
H868 H 0.08968 0.71023 0.06494 0.0
H869 H 0.07505 0.72157 1.00836 0.0
C870 C 0.02986 0.69378 0.97441 0.0
C871 C 1.00522 0.67771 0.95974 0.0
C872 C 0.03977 0.686 1.00618 0.0
C873 C 0.99144 0.65288 0.97687 0.0
C874 C 1.00134 0.64484 1.00839 0.0
C875 C 0.03396 0.65487 0.05594 0.0
C876 C 0.05691 0.6726 0.07155 0.0
C877 C 0.02515 0.66156 0.0235 0.0
C878 C 0.07188 0.69626 0.05367 0.0
C879 C 0.06347 0.70282 0.0213 0.0
loop_
_geom_bond_atom_site_label_1
_geom_bond_atom_site_label_2
_geom_bond_distance
_geom_bond_site_symmetry_2
_ccdc_geom_bond_type
Cu0 N1 1.999 . S
Cu0 O6 1.974 . S
Cu0 N11 1.985 . S
Cu0 O20 1.959 . S
N1 Cu0 1.999 . S
N1 C3 1.263 . S
N1 C5 1.389 . S
N2 C3 1.358 . S
N2 C4 1.400 . S
C3 N1 1.263 . S
C3 N2 1.358 . S
C3 H9 0.930 . S
C4 N2 1.400 . S
C4 C5 1.351 . S
C4 H21 0.930 . S
C5 N1 1.389 . S
C5 C4 1.351 . S
C5 H10 0.930 . S
O6 Cu0 1.974 . S
O6 C16 1.282 . S
C7 O8 1.261 . S
C7 O20 1.251 . S
O8 C7 1.261 . S
H9 C3 0.930 . S
H10 C5 0.930 . S
N11 Cu0 1.985 . S
N11 C13 1.335 . S
N11 C14 1.390 . S
N12 C13 1.345 . S
N12 C15 1.336 . S
C13 N11 1.335 . S
C13 N12 1.345 . S
C13 H18 0.930 . S
C14 N11 1.390 . S
C14 C15 1.346 . S
C14 H19 0.930 . S
C15 N12 1.336 . S
C15 C14 1.346 . S
C15 H22 0.929 . S
C16 O6 1.282 . S
C16 O17 1.216 . S
O17 C16 1.216 . S
H18 C13 0.930 . S
H19 C14 0.930 . S
O20 Cu0 1.959 . S
O20 C7 1.251 . S
H21 C4 0.930 . S
H22 C15 0.929 . S
Cu23 N24 1.999 . S
Cu23 O29 1.974 . S
Cu23 N34 1.985 . S
Cu23 O43 1.959 . S
N24 Cu23 1.999 . S
N24 C26 1.263 . S
N24 C28 1.389 . S
N25 C26 1.358 . S
N25 C27 1.400 . S
C26 N24 1.263 . S
C26 N25 1.358 . S
C26 H32 0.930 . S
C27 N25 1.400 . S
C27 C28 1.351 . S
C27 H44 0.930 . S
C28 N24 1.389 . S
C28 C27 1.351 . S
C28 H33 0.930 . S
O29 Cu23 1.974 . S
O29 C39 1.282 . S
C30 O31 1.261 . S
C30 O43 1.251 . S
O31 C30 1.261 . S
H32 C26 0.930 . S
H33 C28 0.930 . S
N34 Cu23 1.985 . S
N34 C36 1.335 . S
N34 C37 1.390 . S
N35 C36 1.345 . S
N35 C38 1.336 . S
C36 N34 1.335 . S
C36 N35 1.345 . S
C36 H41 0.930 . S
C37 N34 1.390 . S
C37 C38 1.346 . S
C37 H42 0.930 . S
C38 N35 1.336 . S
C38 C37 1.346 . S
C38 H45 0.929 . S
C39 O29 1.282 . S
C39 O40 1.216 . S
O40 C39 1.216 . S
H41 C36 0.930 . S
H42 C37 0.930 . S
O43 Cu23 1.959 . S
O43 C30 1.251 . S
H44 C27 0.930 . S
H45 C38 0.929 . S
Cu46 N47 1.999 . S
Cu46 O52 1.974 . S
Cu46 N57 1.985 . S
Cu46 O66 1.959 . S
N47 Cu46 1.999 . S
N47 C49 1.263 . S
N47 C51 1.389 . S
N48 C49 1.358 . S
N48 C50 1.400 . S
C49 N47 1.263 . S
C49 N48 1.358 . S
C49 H55 0.930 . S
C50 N48 1.400 . S
C50 C51 1.351 . S
C50 H67 0.930 . S
C51 N47 1.389 . S
C51 C50 1.351 . S
C51 H56 0.930 . S
O52 Cu46 1.974 . S
O52 C62 1.282 . S
C53 O54 1.261 . S
C53 O66 1.251 . S
O54 C53 1.261 . S
H55 C49 0.930 . S
H56 C51 0.930 . S
N57 Cu46 1.985 . S
N57 C59 1.335 . S
N57 C60 1.390 . S
N58 C59 1.345 . S
N58 C61 1.336 . S
C59 N57 1.335 . S
C59 N58 1.345 . S
C59 H64 0.930 . S
C60 N57 1.390 . S
C60 C61 1.346 . S
C60 H65 0.930 . S
C61 N58 1.336 . S
C61 C60 1.346 . S
C61 H68 0.929 . S
C62 O52 1.282 . S
C62 O63 1.216 . S
O63 C62 1.216 . S
H64 C59 0.930 . S
H65 C60 0.930 . S
O66 Cu46 1.959 . S
O66 C53 1.251 . S
H67 C50 0.930 . S
H68 C61 0.929 . S
Cu69 N70 1.999 . S
Cu69 O75 1.974 . S
Cu69 N80 1.985 . S
Cu69 O89 1.959 . S
N70 Cu69 1.999 . S
N70 C72 1.263 . S
N70 C74 1.389 . S
N71 C72 1.358 . S
N71 C73 1.400 . S
C72 N70 1.263 . S
C72 N71 1.358 . S
C72 H78 0.930 . S
C73 N71 1.400 . S
C73 C74 1.351 . S
C73 H90 0.930 . S
C74 N70 1.389 . S
C74 C73 1.351 . S
C74 H79 0.930 . S
O75 Cu69 1.974 . S
O75 C85 1.282 . S
C76 O77 1.261 . S
C76 O89 1.251 . S
O77 C76 1.261 . S
H78 C72 0.930 . S
H79 C74 0.930 . S
N80 Cu69 1.985 . S
N80 C82 1.335 . S
N80 C83 1.390 . S
N81 C82 1.345 . S
N81 C84 1.336 . S
C82 N80 1.335 . S
C82 N81 1.345 . S
C82 H87 0.930 . S
C83 N80 1.390 . S
C83 C84 1.346 . S
C83 H88 0.930 . S
C84 N81 1.336 . S
C84 C83 1.346 . S
C84 H91 0.929 . S
C85 O75 1.282 . S
C85 O86 1.216 . S
O86 C85 1.216 . S
H87 C82 0.930 . S
H88 C83 0.930 . S
O89 Cu69 1.959 . S
O89 C76 1.251 . S
H90 C73 0.930 . S
H91 C84 0.929 . S
Cu92 N93 1.999 . S
Cu92 O98 1.974 . S
Cu92 N103 1.985 . S
Cu92 O112 1.959 . S
N93 Cu92 1.999 . S
N93 C95 1.263 . S
N93 C97 1.389 . S
N94 C95 1.358 . S
N94 C96 1.400 . S
C95 N93 1.263 . S
C95 N94 1.358 . S
C95 H101 0.930 . S
C96 N94 1.400 . S
C96 C97 1.351 . S
C96 H113 0.930 . S
C97 N93 1.389 . S
C97 C96 1.351 . S
C97 H102 0.930 . S
O98 Cu92 1.974 . S
O98 C108 1.282 . S
C99 O100 1.261 . S
C99 O112 1.251 . S
O100 C99 1.261 . S
H101 C95 0.930 . S
H102 C97 0.930 . S
N103 Cu92 1.985 . S
N103 C105 1.335 . S
N103 C106 1.390 . S
N104 C105 1.345 . S
N104 C107 1.336 . S
C105 N103 1.335 . S
C105 N104 1.345 . S
C105 H110 0.930 . S
C106 N103 1.390 . S
C106 C107 1.346 . S
C106 H111 0.930 . S
C107 N104 1.336 . S
C107 C106 1.346 . S
C107 H114 0.929 . S
C108 O98 1.282 . S
C108 O109 1.216 . S
O109 C108 1.216 . S
H110 C105 0.930 . S
H111 C106 0.930 . S
O112 Cu92 1.959 . S
O112 C99 1.251 . S
H113 C96 0.930 . S
H114 C107 0.929 . S
Cu115 N116 1.999 . S
Cu115 O121 1.974 . S
Cu115 N126 1.985 . S
Cu115 O135 1.959 . S
N116 Cu115 1.999 . S
N116 C118 1.263 . S
N116 C120 1.389 . S
N117 C118 1.358 . S
N117 C119 1.400 . S
C118 N116 1.263 . S
C118 N117 1.358 . S
C118 H124 0.930 . S
C119 N117 1.400 . S
C119 C120 1.351 . S
C119 H136 0.930 . S
C120 N116 1.389 . S
C120 C119 1.351 . S
C120 H125 0.930 . S
O121 Cu115 1.974 . S
O121 C131 1.282 . S
C122 O123 1.261 . S
C122 O135 1.251 . S
O123 C122 1.261 . S
H124 C118 0.930 . S
H125 C120 0.930 . S
N126 Cu115 1.985 . S
N126 C128 1.335 . S
N126 C129 1.390 . S
N127 C128 1.345 . S
N127 C130 1.336 . S
C128 N126 1.335 . S
C128 N127 1.345 . S
C128 H133 0.930 . S
C129 N126 1.390 . S
C129 C130 1.346 . S
C129 H134 0.930 . S
C130 N127 1.336 . S
C130 C129 1.346 . S
C130 H137 0.929 . S
C131 O121 1.282 . S
C131 O132 1.216 . S
O132 C131 1.216 . S
H133 C128 0.930 . S
H134 C129 0.930 . S
O135 Cu115 1.959 . S
O135 C122 1.251 . S
H136 C119 0.930 . S
H137 C130 0.929 . S
Cu138 N139 1.999 . S
Cu138 O144 1.974 . S
Cu138 N149 1.985 . S
Cu138 O158 1.959 . S
N139 Cu138 1.999 . S
N139 C141 1.263 . S
N139 C143 1.389 . S
N140 C141 1.358 . S
N140 C142 1.400 . S
C141 N139 1.263 . S
C141 N140 1.358 . S
C141 H147 0.930 . S
C142 N140 1.400 . S
C142 C143 1.351 . S
C142 H159 0.930 . S
C143 N139 1.389 . S
C143 C142 1.351 . S
C143 H148 0.930 . S
O144 Cu138 1.974 . S
O144 C154 1.282 . S
C145 O146 1.261 . S
C145 O158 1.251 . S
O146 C145 1.261 . S
H147 C141 0.930 . S
H148 C143 0.930 . S
N149 Cu138 1.985 . S
N149 C151 1.335 . S
N149 C152 1.390 . S
N150 C151 1.345 . S
N150 C153 1.336 . S
C151 N149 1.335 . S
C151 N150 1.345 . S
C151 H156 0.930 . S
C152 N149 1.390 . S
C152 C153 1.346 . S
C152 H157 0.930 . S
C153 N150 1.336 . S
C153 C152 1.346 . S
C153 H160 0.929 . S
C154 O144 1.282 . S
C154 O155 1.216 . S
O155 C154 1.216 . S
H156 C151 0.930 . S
H157 C152 0.930 . S
O158 Cu138 1.959 . S
O158 C145 1.251 . S
H159 C142 0.930 . S
H160 C153 0.929 . S
Cu161 N162 1.999 . S
Cu161 O167 1.974 . S
Cu161 N172 1.985 . S
Cu161 O181 1.959 . S
N162 Cu161 1.999 . S
N162 C164 1.263 . S
N162 C166 1.389 . S
N163 C164 1.358 . S
N163 C165 1.400 . S
C164 N162 1.263 . S
C164 N163 1.358 . S
C164 H170 0.930 . S
C165 N163 1.400 . S
C165 C166 1.351 . S
C165 H182 0.930 . S
C166 N162 1.389 . S
C166 C165 1.351 . S
C166 H171 0.930 . S
O167 Cu161 1.974 . S
O167 C177 1.282 . S
C168 O169 1.261 . S
C168 O181 1.251 . S
O169 C168 1.261 . S
H170 C164 0.930 . S
H171 C166 0.930 . S
N172 Cu161 1.985 . S
N172 C174 1.335 . S
N172 C175 1.390 . S
N173 C174 1.345 . S
N173 C176 1.336 . S
C174 N172 1.335 . S
C174 N173 1.345 . S
C174 H179 0.930 . S
C175 N172 1.390 . S
C175 C176 1.346 . S
C175 H180 0.930 . S
C176 N173 1.336 . S
C176 C175 1.346 . S
C176 H183 0.929 . S
C177 O167 1.282 . S
C177 O178 1.216 . S
O178 C177 1.216 . S
H179 C174 0.930 . S
H180 C175 0.930 . S
O181 Cu161 1.959 . S
O181 C168 1.251 . S
H182 C165 0.930 . S
H183 C176 0.929 . S
Cu184 N185 1.999 1_565 S
Cu184 O190 1.974 . S
Cu184 N195 1.985 . S
Cu184 O204 1.959 . S
N185 Cu184 1.999 1_545 S
N185 C187 1.263 . S
N185 C189 1.389 . S
N186 C187 1.358 . S
N186 C188 1.400 . S
C187 N185 1.263 . S
C187 N186 1.358 . S
C187 H193 0.930 1_545 S
C188 N186 1.400 . S
C188 C189 1.351 . S
C188 H205 0.930 . S
C189 N185 1.389 . S
C189 C188 1.351 . S
C189 H194 0.930 . S
O190 Cu184 1.974 . S
O190 C200 1.282 . S
C191 O192 1.261 . S
C191 O204 1.251 . S
O192 C191 1.261 . S
H193 C187 0.930 1_565 S
H194 C189 0.930 . S
N195 Cu184 1.985 . S
N195 C197 1.335 . S
N195 C198 1.390 . S
N196 C197 1.345 . S
N196 C199 1.336 . S
C197 N195 1.335 . S
C197 N196 1.345 . S
C197 H202 0.930 . S
C198 N195 1.390 . S
C198 C199 1.346 . S
C198 H203 0.930 . S
C199 N196 1.336 . S
C199 C198 1.346 . S
C199 H206 0.929 . S
C200 O190 1.282 . S
C200 O201 1.216 . S
O201 C200 1.216 . S
H202 C197 0.930 . S
H203 C198 0.930 . S
O204 Cu184 1.959 . S
O204 C191 1.251 . S
H205 C188 0.930 . S
H206 C199 0.929 . S
Cu207 N208 1.999 1_655 S
Cu207 O213 1.974 . S
Cu207 N218 1.985 . S
Cu207 O227 1.959 . S
N208 Cu207 1.999 1_455 S
N208 C210 1.263 . S
N208 C212 1.389 . S
N209 C210 1.358 . S
N209 C211 1.400 . S
C210 N208 1.263 . S
C210 N209 1.358 . S
C210 H216 0.930 1_455 S
C211 N209 1.400 . S
C211 C212 1.351 . S
C211 H228 0.930 . S
C212 N208 1.389 . S
C212 C211 1.351 . S
C212 H217 0.930 . S
O213 Cu207 1.974 . S
O213 C223 1.282 . S
C214 O215 1.261 . S
C214 O227 1.251 . S
O215 C214 1.261 . S
H216 C210 0.930 1_655 S
H217 C212 0.930 . S
N218 Cu207 1.985 . S
N218 C220 1.335 . S
N218 C221 1.390 . S
N219 C220 1.345 . S
N219 C222 1.336 . S
C220 N218 1.335 . S
C220 N219 1.345 . S
C220 H225 0.930 . S
C221 N218 1.390 . S
C221 C222 1.346 . S
C221 H226 0.930 . S
C222 N219 1.336 . S
C222 C221 1.346 . S
C222 H229 0.929 . S
C223 O213 1.282 . S
C223 O224 1.216 . S
O224 C223 1.216 . S
H225 C220 0.930 . S
H226 C221 0.930 . S
O227 Cu207 1.959 . S
O227 C214 1.251 . S
H228 C211 0.930 . S
H229 C222 0.929 . S
Cu230 N231 1.999 1_545 S
Cu230 O236 1.974 . S
Cu230 N241 1.985 . S
Cu230 O250 1.959 . S
N231 Cu230 1.999 1_565 S
N231 C233 1.263 . S
N231 C235 1.389 . S
N232 C233 1.358 . S
N232 C234 1.400 . S
C233 N231 1.263 . S
C233 N232 1.358 . S
C233 H239 0.930 1_565 S
C234 N232 1.400 . S
C234 C235 1.351 . S
C234 H251 0.930 . S
C235 N231 1.389 . S
C235 C234 1.351 . S
C235 H240 0.930 . S
O236 Cu230 1.974 . S
O236 C246 1.282 . S
C237 O238 1.261 . S
C237 O250 1.251 . S
O238 C237 1.261 . S
H239 C233 0.930 1_545 S
H240 C235 0.930 . S
N241 Cu230 1.985 . S
N241 C243 1.335 . S
N241 C244 1.390 . S
N242 C243 1.345 . S
N242 C245 1.336 . S
C243 N241 1.335 . S
C243 N242 1.345 . S
C243 H248 0.930 . S
C244 N241 1.390 . S
C244 C245 1.346 . S
C244 H249 0.930 . S
C245 N242 1.336 . S
C245 C244 1.346 . S
C245 H252 0.929 . S
C246 O236 1.282 . S
C246 O247 1.216 . S
O247 C246 1.216 . S
H248 C243 0.930 . S
H249 C244 0.930 . S
O250 Cu230 1.959 . S
O250 C237 1.251 . S
H251 C234 0.930 . S
H252 C245 0.929 . S
Cu253 N254 1.999 1_455 S
Cu253 O259 1.974 . S
Cu253 N264 1.985 . S
Cu253 O273 1.959 . S
N254 Cu253 1.999 1_655 S
N254 C256 1.263 . S
N254 C258 1.389 . S
N255 C256 1.358 . S
N255 C257 1.400 . S
C256 N254 1.263 . S
C256 N255 1.358 . S
C256 H262 0.930 1_655 S
C257 N255 1.400 . S
C257 C258 1.351 . S
C257 H274 0.930 . S
C258 N254 1.389 . S
C258 C257 1.351 . S
C258 H263 0.930 . S
O259 Cu253 1.974 . S
O259 C269 1.282 . S
C260 O261 1.261 . S
C260 O273 1.251 . S
O261 C260 1.261 . S
H262 C256 0.930 1_455 S
H263 C258 0.930 . S
N264 Cu253 1.985 . S
N264 C266 1.335 . S
N264 C267 1.390 . S
N265 C266 1.345 . S
N265 C268 1.336 . S
C266 N264 1.335 . S
C266 N265 1.345 . S
C266 H271 0.930 . S
C267 N264 1.390 . S
C267 C268 1.346 . S
C267 H272 0.930 . S
C268 N265 1.336 . S
C268 C267 1.346 . S
C268 H275 0.929 . S
C269 O259 1.282 . S
C269 O270 1.216 . S
O270 C269 1.216 . S
H271 C266 0.930 . S
H272 C267 0.930 . S
O273 Cu253 1.959 . S
O273 C260 1.251 . S
H274 C257 0.930 . S
H275 C268 0.929 . S
Cu276 N277 1.999 1_545 S
Cu276 O282 1.974 . S
Cu276 N287 1.985 . S
Cu276 O296 1.959 . S
N277 Cu276 1.999 1_565 S
N277 C279 1.263 . S
N277 C281 1.389 . S
N278 C279 1.358 . S
N278 C280 1.400 . S
C279 N277 1.263 . S
C279 N278 1.358 . S
C279 H285 0.930 1_565 S
C280 N278 1.400 . S
C280 C281 1.351 . S
C280 H297 0.930 . S
C281 N277 1.389 . S
C281 C280 1.351 . S
C281 H286 0.930 . S
O282 Cu276 1.974 . S
O282 C292 1.282 . S
C283 O284 1.261 . S
C283 O296 1.251 . S
O284 C283 1.261 . S
H285 C279 0.930 1_545 S
H286 C281 0.930 . S
N287 Cu276 1.985 . S
N287 C289 1.335 . S
N287 C290 1.390 . S
N288 C289 1.345 . S
N288 C291 1.336 . S
C289 N287 1.335 . S
C289 N288 1.345 . S
C289 H294 0.930 . S
C290 N287 1.390 . S
C290 C291 1.346 . S
C290 H295 0.930 . S
C291 N288 1.336 . S
C291 C290 1.346 . S
C291 H298 0.929 . S
C292 O282 1.282 . S
C292 O293 1.216 . S
O293 C292 1.216 . S
H294 C289 0.930 . S
H295 C290 0.930 . S
O296 Cu276 1.959 . S
O296 C283 1.251 . S
H297 C280 0.930 . S
H298 C291 0.929 . S
Cu299 N300 1.999 1_455 S
Cu299 O305 1.974 . S
Cu299 N310 1.985 . S
Cu299 O319 1.959 . S
N300 Cu299 1.999 1_655 S
N300 C302 1.263 . S
N300 C304 1.389 . S
N301 C302 1.358 . S
N301 C303 1.400 . S
C302 N300 1.263 . S
C302 N301 1.358 . S
C302 H308 0.930 1_655 S
C303 N301 1.400 . S
C303 C304 1.351 . S
C303 H320 0.930 . S
C304 N300 1.389 . S
C304 C303 1.351 . S
C304 H309 0.930 . S
O305 Cu299 1.974 . S
O305 C315 1.282 . S
C306 O307 1.261 . S
C306 O319 1.251 . S
O307 C306 1.261 . S
H308 C302 0.930 1_455 S
H309 C304 0.930 . S
N310 Cu299 1.985 . S
N310 C312 1.335 . S
N310 C313 1.390 . S
N311 C312 1.345 . S
N311 C314 1.336 . S
C312 N310 1.335 . S
C312 N311 1.345 . S
C312 H317 0.930 . S
C313 N310 1.390 . S
C313 C314 1.346 . S
C313 H318 0.930 . S
C314 N311 1.336 . S
C314 C313 1.346 . S
C314 H321 0.929 . S
C315 O305 1.282 . S
C315 O316 1.216 . S
O316 C315 1.216 . S
H317 C312 0.930 . S
H318 C313 0.930 . S
O319 Cu299 1.959 . S
O319 C306 1.251 . S
H320 C303 0.930 . S
H321 C314 0.929 . S
Cu322 N323 1.999 1_565 S
Cu322 O328 1.974 . S
Cu322 N333 1.985 . S
Cu322 O342 1.959 . S
N323 Cu322 1.999 1_545 S
N323 C325 1.263 . S
N323 C327 1.389 . S
N324 C325 1.358 . S
N324 C326 1.400 . S
C325 N323 1.263 . S
C325 N324 1.358 . S
C325 H331 0.930 1_545 S
C326 N324 1.400 . S
C326 C327 1.351 . S
C326 H343 0.930 . S
C327 N323 1.389 . S
C327 C326 1.351 . S
C327 H332 0.930 . S
O328 Cu322 1.974 . S
O328 C338 1.282 . S
C329 O330 1.261 . S
C329 O342 1.251 . S
O330 C329 1.261 . S
H331 C325 0.930 1_565 S
H332 C327 0.930 . S
N333 Cu322 1.985 . S
N333 C335 1.335 . S
N333 C336 1.390 . S
N334 C335 1.345 . S
N334 C337 1.336 . S
C335 N333 1.335 . S
C335 N334 1.345 . S
C335 H340 0.930 . S
C336 N333 1.390 . S
C336 C337 1.346 . S
C336 H341 0.930 . S
C337 N334 1.336 . S
C337 C336 1.346 . S
C337 H344 0.929 . S
C338 O328 1.282 . S
C338 O339 1.216 . S
O339 C338 1.216 . S
H340 C335 0.930 . S
H341 C336 0.930 . S
O342 Cu322 1.959 . S
O342 C329 1.251 . S
H343 C326 0.930 . S
H344 C337 0.929 . S
Cu345 N346 1.999 1_655 S
Cu345 O351 1.974 . S
Cu345 N356 1.985 . S
Cu345 O365 1.959 . S
N346 Cu345 1.999 1_455 S
N346 C348 1.263 . S
N346 C350 1.389 . S
N347 C348 1.358 . S
N347 C349 1.400 . S
C348 N346 1.263 . S
C348 N347 1.358 . S
C348 H354 0.930 1_455 S
C349 N347 1.400 . S
C349 C350 1.351 . S
C349 H366 0.930 . S
C350 N346 1.389 . S
C350 C349 1.351 . S
C350 H355 0.930 . S
O351 Cu345 1.974 . S
O351 C361 1.282 . S
C352 O353 1.261 . S
C352 O365 1.251 . S
O353 C352 1.261 . S
H354 C348 0.930 1_655 S
H355 C350 0.930 . S
N356 Cu345 1.985 . S
N356 C358 1.335 . S
N356 C359 1.390 . S
N357 C358 1.345 . S
N357 C360 1.336 . S
C358 N356 1.335 . S
C358 N357 1.345 . S
C358 H363 0.930 . S
C359 N356 1.390 . S
C359 C360 1.346 . S
C359 H364 0.930 . S
C360 N357 1.336 . S
C360 C359 1.346 . S
C360 H367 0.929 . S
C361 O351 1.282 . S
C361 O362 1.216 . S
O362 C361 1.216 . S
H363 C358 0.930 . S
H364 C359 0.930 . S
O365 Cu345 1.959 . S
O365 C352 1.251 . S
H366 C349 0.930 . S
H367 C360 0.929 . S
H368 C374 0.930 . S
H369 C377 0.930 . S
H370 C378 0.930 . S
H371 C379 0.930 . S
H372 C382 0.930 . S
H373 C383 0.930 . S
C374 H368 0.930 . S
C374 C375 1.355 . S
C374 C376 1.415 . S
C375 C374 1.355 . S
C375 C377 1.419 . S
C376 C374 1.415 . S
C376 C381 1.425 . S
C376 C383 1.409 . S
C377 H369 0.930 . S
C377 C375 1.419 . S
C377 C378 1.362 . S
C378 H370 0.930 . S
C378 C377 1.362 . S
C378 C381 1.409 . S
C379 H371 0.930 . S
C379 C380 1.355 . S
C379 C381 1.415 . S
C380 C379 1.355 . S
C380 C382 1.419 . S
C381 C376 1.425 . S
C381 C378 1.409 . S
C381 C379 1.415 . S
C382 H372 0.930 . S
C382 C380 1.419 . S
C382 C383 1.362 . S
C383 H373 0.930 . S
C383 C376 1.409 . S
C383 C382 1.362 . S
H384 C390 0.930 . S
H385 C393 0.930 . S
H386 C394 0.930 . S
H387 C395 0.930 . S
H388 C398 0.930 . S
H389 C399 0.930 . S
C390 H384 0.930 . S
C390 C391 1.355 . S
C390 C392 1.415 . S
C391 C390 1.355 . S
C391 C393 1.419 . S
C392 C390 1.415 . S
C392 C397 1.425 . S
C392 C399 1.409 . S
C393 H385 0.930 . S
C393 C391 1.419 . S
C393 C394 1.362 . S
C394 H386 0.930 . S
C394 C393 1.362 . S
C394 C397 1.409 . S
C395 H387 0.930 . S
C395 C396 1.355 . S
C395 C397 1.415 . S
C396 C395 1.355 . S
C396 C398 1.419 . S
C397 C392 1.425 . S
C397 C394 1.409 . S
C397 C395 1.415 . S
C398 H388 0.930 . S
C398 C396 1.419 . S
C398 C399 1.362 . S
C399 H389 0.930 . S
C399 C392 1.409 . S
C399 C398 1.362 . S
H400 C406 0.930 . S
H401 C409 0.930 . S
H402 C410 0.930 . S
H403 C411 0.930 . S
H404 C414 0.930 . S
H405 C415 0.930 . S
C406 H400 0.930 . S
C406 C407 1.355 . S
C406 C408 1.415 . S
C407 C406 1.355 . S
C407 C409 1.419 . S
C408 C406 1.415 . S
C408 C413 1.425 . S
C408 C415 1.409 . S
C409 H401 0.930 . S
C409 C407 1.419 . S
C409 C410 1.362 . S
C410 H402 0.930 . S
C410 C409 1.362 . S
C410 C413 1.409 . S
C411 H403 0.930 . S
C411 C412 1.355 . S
C411 C413 1.415 . S
C412 C411 1.355 . S
C412 C414 1.419 . S
C413 C408 1.425 . S
C413 C410 1.409 . S
C413 C411 1.415 . S
C414 H404 0.930 . S
C414 C412 1.419 . S
C414 C415 1.362 . S
C415 H405 0.930 . S
C415 C408 1.409 . S
C415 C414 1.362 . S
H416 C422 0.930 . S
H417 C425 0.930 . S
H418 C426 0.930 . S
H419 C427 0.930 . S
H420 C430 0.930 . S
H421 C431 0.930 . S
C422 H416 0.930 . S
C422 C423 1.355 . S
C422 C424 1.415 . S
C423 C422 1.355 . S
C423 C425 1.419 . S
C424 C422 1.415 . S
C424 C429 1.425 . S
C424 C431 1.409 . S
C425 H417 0.930 . S
C425 C423 1.419 . S
C425 C426 1.362 . S
C426 H418 0.930 . S
C426 C425 1.362 . S
C426 C429 1.409 . S
C427 H419 0.930 . S
C427 C428 1.355 . S
C427 C429 1.415 . S
C428 C427 1.355 . S
C428 C430 1.419 . S
C429 C424 1.425 . S
C429 C426 1.409 . S
C429 C427 1.415 . S
C430 H420 0.930 . S
C430 C428 1.419 . S
C430 C431 1.362 . S
C431 H421 0.930 . S
C431 C424 1.409 . S
C431 C430 1.362 . S
H432 C438 0.930 . S
H433 C441 0.930 . S
H434 C442 0.930 . S
H435 C443 0.930 . S
H436 C446 0.930 . S
H437 C447 0.930 . S
C438 H432 0.930 . S
C438 C439 1.355 . S
C438 C440 1.415 . S
C439 C438 1.355 . S
C439 C441 1.419 . S
C440 C438 1.415 . S
C440 C445 1.425 . S
C440 C447 1.409 . S
C441 H433 0.930 . S
C441 C439 1.419 . S
C441 C442 1.362 . S
C442 H434 0.930 . S
C442 C441 1.362 . S
C442 C445 1.409 . S
C443 H435 0.930 . S
C443 C444 1.355 . S
C443 C445 1.415 . S
C444 C443 1.355 . S
C444 C446 1.419 . S
C445 C440 1.425 . S
C445 C442 1.409 . S
C445 C443 1.415 . S
C446 H436 0.930 . S
C446 C444 1.419 . S
C446 C447 1.362 . S
C447 H437 0.930 . S
C447 C440 1.409 . S
C447 C446 1.362 . S
H448 C454 0.930 . S
H449 C457 0.930 . S
H450 C458 0.930 . S
H451 C459 0.930 . S
H452 C462 0.930 . S
H453 C463 0.930 . S
C454 H448 0.930 . S
C454 C455 1.355 . S
C454 C456 1.415 . S
C455 C454 1.355 . S
C455 C457 1.419 . S
C456 C454 1.415 . S
C456 C461 1.425 . S
C456 C463 1.409 . S
C457 H449 0.930 . S
C457 C455 1.419 . S
C457 C458 1.362 . S
C458 H450 0.930 . S
C458 C457 1.362 . S
C458 C461 1.409 . S
C459 H451 0.930 . S
C459 C460 1.355 . S
C459 C461 1.415 . S
C460 C459 1.355 . S
C460 C462 1.419 . S
C461 C456 1.425 . S
C461 C458 1.409 . S
C461 C459 1.415 . S
C462 H452 0.930 . S
C462 C460 1.419 . S
C462 C463 1.362 . S
C463 H453 0.930 . S
C463 C456 1.409 . S
C463 C462 1.362 . S
H464 C470 0.930 . S
H465 C473 0.930 . S
H466 C474 0.930 . S
H467 C475 0.930 . S
H468 C478 0.930 . S
H469 C479 0.930 . S
C470 H464 0.930 . S
C470 C471 1.355 . S
C470 C472 1.415 . S
C471 C470 1.355 . S
C471 C473 1.419 . S
C472 C470 1.415 . S
C472 C477 1.425 . S
C472 C479 1.409 . S
C473 H465 0.930 . S
C473 C471 1.419 . S
C473 C474 1.362 . S
C474 H466 0.930 . S
C474 C473 1.362 . S
C474 C477 1.409 . S
C475 H467 0.930 . S
C475 C476 1.355 . S
C475 C477 1.415 . S
C476 C475 1.355 . S
C476 C478 1.419 . S
C477 C472 1.425 . S
C477 C474 1.409 . S
C477 C475 1.415 . S
C478 H468 0.930 . S
C478 C476 1.419 . S
C478 C479 1.362 . S
C479 H469 0.930 . S
C479 C472 1.409 . S
C479 C478 1.362 . S
H480 C486 0.930 . S
H481 C489 0.930 . S
H482 C490 0.930 . S
H483 C491 0.930 . S
H484 C494 0.930 . S
H485 C495 0.930 . S
C486 H480 0.930 . S
C486 C487 1.355 . S
C486 C488 1.415 . S
C487 C486 1.355 . S
C487 C489 1.419 . S
C488 C486 1.415 . S
C488 C493 1.425 . S
C488 C495 1.409 . S
C489 H481 0.930 . S
C489 C487 1.419 . S
C489 C490 1.362 . S
C490 H482 0.930 . S
C490 C489 1.362 . S
C490 C493 1.409 . S
C491 H483 0.930 . S
C491 C492 1.355 . S
C491 C493 1.415 . S
C492 C491 1.355 . S
C492 C494 1.419 . S
C493 C488 1.425 . S
C493 C490 1.409 . S
C493 C491 1.415 . S
C494 H484 0.930 . S
C494 C492 1.419 . S
C494 C495 1.362 . S
C495 H485 0.930 . S
C495 C488 1.409 . S
C495 C494 1.362 . S
H496 C502 0.930 . S
H497 C505 0.930 . S
H498 C506 0.930 . S
H499 C507 0.930 . S
H500 C510 0.930 . S
H501 C511 0.930 . S
C502 H496 0.930 . S
C502 C503 1.355 . S
C502 C504 1.415 . S
C503 C502 1.355 . S
C503 C505 1.419 . S
C504 C502 1.415 . S
C504 C509 1.425 . S
C504 C511 1.409 . S
C505 H497 0.930 . S
C505 C503 1.419 . S
C505 C506 1.362 . S
C506 H498 0.930 . S
C506 C505 1.362 . S
C506 C509 1.409 . S
C507 H499 0.930 . S
C507 C508 1.355 . S
C507 C509 1.415 . S
C508 C507 1.355 . S
C508 C510 1.419 . S
C509 C504 1.425 . S
C509 C506 1.409 . S
C509 C507 1.415 . S
C510 H500 0.930 . S
C510 C508 1.419 . S
C510 C511 1.362 . S
C511 H501 0.930 . S
C511 C504 1.409 . S
C511 C510 1.362 . S
H512 C518 0.930 . S
H513 C521 0.930 . S
H514 C522 0.930 . S
H515 C523 0.930 . S
H516 C526 0.930 . S
H517 C527 0.930 . S
C518 H512 0.930 . S
C518 C519 1.355 . S
C518 C520 1.415 . S
C519 C518 1.355 . S
C519 C521 1.419 . S
C520 C518 1.415 . S
C520 C525 1.425 . S
C520 C527 1.409 . S
C521 H513 0.930 . S
C521 C519 1.419 . S
C521 C522 1.362 . S
C522 H514 0.930 . S
C522 C521 1.362 . S
C522 C525 1.409 . S
C523 H515 0.930 . S
C523 C524 1.355 . S
C523 C525 1.415 . S
C524 C523 1.355 . S
C524 C526 1.419 . S
C525 C520 1.425 . S
C525 C522 1.409 . S
C525 C523 1.415 . S
C526 H516 0.930 . S
C526 C524 1.419 . S
C526 C527 1.362 . S
C527 H517 0.930 . S
C527 C520 1.409 . S
C527 C526 1.362 . S
H528 C534 0.930 . S
H529 C537 0.930 . S
H530 C538 0.930 . S
H531 C539 0.930 . S
H532 C542 0.930 . S
H533 C543 0.930 . S
C534 H528 0.930 . S
C534 C535 1.355 . S
C534 C536 1.415 . S
C535 C534 1.355 . S
C535 C537 1.419 . S
C536 C534 1.415 . S
C536 C541 1.425 . S
C536 C543 1.409 . S
C537 H529 0.930 . S
C537 C535 1.419 . S
C537 C538 1.362 . S
C538 H530 0.930 . S
C538 C537 1.362 . S
C538 C541 1.409 . S
C539 H531 0.930 . S
C539 C540 1.355 . S
C539 C541 1.415 . S
C540 C539 1.355 . S
C540 C542 1.419 . S
C541 C536 1.425 . S
C541 C538 1.409 . S
C541 C539 1.415 . S
C542 H532 0.930 . S
C542 C540 1.419 . S
C542 C543 1.362 . S
C543 H533 0.930 . S
C543 C536 1.409 . S
C543 C542 1.362 . S
H544 C550 0.930 . S
H545 C553 0.930 . S
H546 C554 0.930 . S
H547 C555 0.930 . S
H548 C558 0.930 . S
H549 C559 0.930 . S
C550 H544 0.930 . S
C550 C551 1.355 . S
C550 C552 1.415 . S
C551 C550 1.355 . S
C551 C553 1.419 . S
C552 C550 1.415 . S
C552 C557 1.425 . S
C552 C559 1.409 . S
C553 H545 0.930 . S
C553 C551 1.419 . S
C553 C554 1.362 . S
C554 H546 0.930 . S
C554 C553 1.362 . S
C554 C557 1.409 . S
C555 H547 0.930 . S
C555 C556 1.355 . S
C555 C557 1.415 . S
C556 C555 1.355 . S
C556 C558 1.419 . S
C557 C552 1.425 . S
C557 C554 1.409 . S
C557 C555 1.415 . S
C558 H548 0.930 . S
C558 C556 1.419 . S
C558 C559 1.362 . S
C559 H549 0.930 . S
C559 C552 1.409 . S
C559 C558 1.362 . S
H560 C566 0.930 . S
H561 C569 0.930 . S
H562 C570 0.930 . S
H563 C571 0.930 . S
H564 C574 0.930 . S
H565 C575 0.930 . S
C566 H560 0.930 . S
C566 C567 1.355 . S
C566 C568 1.415 . S
C567 C566 1.355 . S
C567 C569 1.419 . S
C568 C566 1.415 . S
C568 C573 1.425 . S
C568 C575 1.409 . S
C569 H561 0.930 . S
C569 C567 1.419 . S
C569 C570 1.362 . S
C570 H562 0.930 . S
C570 C569 1.362 . S
C570 C573 1.409 . S
C571 H563 0.930 . S
C571 C572 1.355 . S
C571 C573 1.415 . S
C572 C571 1.355 . S
C572 C574 1.419 . S
C573 C568 1.425 . S
C573 C570 1.409 . S
C573 C571 1.415 . S
C574 H564 0.930 . S
C574 C572 1.419 . S
C574 C575 1.362 . S
C575 H565 0.930 . S
C575 C568 1.409 . S
C575 C574 1.362 . S
H576 C582 0.930 . S
H577 C585 0.930 . S
H578 C586 0.930 . S
H579 C587 0.930 . S
H580 C590 0.930 . S
H581 C591 0.930 . S
C582 H576 0.930 . S
C582 C583 1.355 . S
C582 C584 1.415 . S
C583 C582 1.355 . S
C583 C585 1.419 . S
C584 C582 1.415 . S
C584 C589 1.425 . S
C584 C591 1.409 . S
C585 H577 0.930 . S
C585 C583 1.419 . S
C585 C586 1.362 . S
C586 H578 0.930 . S
C586 C585 1.362 . S
C586 C589 1.409 . S
C587 H579 0.930 . S
C587 C588 1.355 . S
C587 C589 1.415 . S
C588 C587 1.355 . S
C588 C590 1.419 . S
C589 C584 1.425 . S
C589 C586 1.409 . S
C589 C587 1.415 . S
C590 H580 0.930 . S
C590 C588 1.419 . S
C590 C591 1.362 . S
C591 H581 0.930 . S
C591 C584 1.409 . S
C591 C590 1.362 . S
H592 C598 0.930 . S
H593 C601 0.930 . S
H594 C602 0.930 . S
H595 C603 0.930 . S
H596 C606 0.930 . S
H597 C607 0.930 . S
C598 H592 0.930 . S
C598 C599 1.355 . S
C598 C600 1.415 . S
C599 C598 1.355 . S
C599 C601 1.419 . S
C600 C598 1.415 . S
C600 C605 1.425 . S
C600 C607 1.409 . S
C601 H593 0.930 . S
C601 C599 1.419 . S
C601 C602 1.362 . S
C602 H594 0.930 . S
C602 C601 1.362 . S
C602 C605 1.409 . S
C603 H595 0.930 . S
C603 C604 1.355 . S
C603 C605 1.415 . S
C604 C603 1.355 . S
C604 C606 1.419 . S
C605 C600 1.425 . S
C605 C602 1.409 . S
C605 C603 1.415 . S
C606 H596 0.930 . S
C606 C604 1.419 . S
C606 C607 1.362 . S
C607 H597 0.930 . S
C607 C600 1.409 . S
C607 C606 1.362 . S
H608 C614 0.930 . S
H609 C617 0.930 . S
H610 C618 0.930 . S
H611 C619 0.930 . S
H612 C622 0.930 . S
H613 C623 0.930 . S
C614 H608 0.930 . S
C614 C615 1.355 . S
C614 C616 1.415 . S
C615 C614 1.355 . S
C615 C617 1.419 . S
C616 C614 1.415 . S
C616 C621 1.425 . S
C616 C623 1.409 . S
C617 H609 0.930 . S
C617 C615 1.419 . S
C617 C618 1.362 . S
C618 H610 0.930 . S
C618 C617 1.362 . S
C618 C621 1.409 . S
C619 H611 0.930 . S
C619 C620 1.355 . S
C619 C621 1.415 . S
C620 C619 1.355 . S
C620 C622 1.419 . S
C621 C616 1.425 . S
C621 C618 1.409 . S
C621 C619 1.415 . S
C622 H612 0.930 . S
C622 C620 1.419 . S
C622 C623 1.362 . S
C623 H613 0.930 . S
C623 C616 1.409 . S
C623 C622 1.362 . S
H624 C630 0.930 . S
H625 C633 0.930 . S
H626 C634 0.930 . S
H627 C635 0.930 . S
H628 C638 0.930 . S
H629 C639 0.930 . S
C630 H624 0.930 . S
C630 C631 1.355 . S
C630 C632 1.415 . S
C631 C630 1.355 . S
C631 C633 1.419 . S
C632 C630 1.415 . S
C632 C637 1.425 . S
C632 C639 1.409 . S
C633 H625 0.930 . S
C633 C631 1.419 . S
C633 C634 1.362 . S
C634 H626 0.930 . S
C634 C633 1.362 . S
C634 C637 1.409 . S
C635 H627 0.930 . S
C635 C636 1.355 . S
C635 C637 1.415 . S
C636 C635 1.355 . S
C636 C638 1.419 . S
C637 C632 1.425 . S
C637 C634 1.409 . S
C637 C635 1.415 . S
C638 H628 0.930 . S
C638 C636 1.419 . S
C638 C639 1.362 . S
C639 H629 0.930 . S
C639 C632 1.409 . S
C639 C638 1.362 . S
H640 C646 0.930 . S
H641 C649 0.930 . S
H642 C650 0.930 . S
H643 C651 0.930 . S
H644 C654 0.930 . S
H645 C655 0.930 . S
C646 H640 0.930 . S
C646 C647 1.355 . S
C646 C648 1.415 . S
C647 C646 1.355 . S
C647 C649 1.419 . S
C648 C646 1.415 . S
C648 C653 1.425 . S
C648 C655 1.409 . S
C649 H641 0.930 . S
C649 C647 1.419 . S
C649 C650 1.362 . S
C650 H642 0.930 . S
C650 C649 1.362 . S
C650 C653 1.409 . S
C651 H643 0.930 . S
C651 C652 1.355 . S
C651 C653 1.415 . S
C652 C651 1.355 . S
C652 C654 1.419 . S
C653 C648 1.425 . S
C653 C650 1.409 . S
C653 C651 1.415 . S
C654 H644 0.930 . S
C654 C652 1.419 . S
C654 C655 1.362 . S
C655 H645 0.930 . S
C655 C648 1.409 . S
C655 C654 1.362 . S
H656 C662 0.930 . S
H657 C665 0.930 . S
H658 C666 0.930 . S
H659 C667 0.930 . S
H660 C670 0.930 . S
H661 C671 0.930 . S
C662 H656 0.930 . S
C662 C663 1.355 . S
C662 C664 1.415 . S
C663 C662 1.355 . S
C663 C665 1.419 . S
C664 C662 1.415 . S
C664 C669 1.425 . S
C664 C671 1.409 . S
C665 H657 0.930 . S
C665 C663 1.419 . S
C665 C666 1.362 . S
C666 H658 0.930 . S
C666 C665 1.362 . S
C666 C669 1.409 . S
C667 H659 0.930 . S
C667 C668 1.355 . S
C667 C669 1.415 . S
C668 C667 1.355 . S
C668 C670 1.419 . S
C669 C664 1.425 . S
C669 C666 1.409 . S
C669 C667 1.415 . S
C670 H660 0.930 . S
C670 C668 1.419 . S
C670 C671 1.362 . S
C671 H661 0.930 . S
C671 C664 1.409 . S
C671 C670 1.362 . S
H672 C678 0.930 . S
H673 C681 0.930 . S
H674 C682 0.930 . S
H675 C683 0.930 . S
H676 C686 0.930 . S
H677 C687 0.930 . S
C678 H672 0.930 . S
C678 C679 1.355 . S
C678 C680 1.415 . S
C679 C678 1.355 . S
C679 C681 1.419 . S
C680 C678 1.415 . S
C680 C685 1.425 . S
C680 C687 1.409 . S
C681 H673 0.930 . S
C681 C679 1.419 . S
C681 C682 1.362 . S
C682 H674 0.930 . S
C682 C681 1.362 . S
C682 C685 1.409 . S
C683 H675 0.930 . S
C683 C684 1.355 . S
C683 C685 1.415 . S
C684 C683 1.355 . S
C684 C686 1.419 . S
C685 C680 1.425 . S
C685 C682 1.409 . S
C685 C683 1.415 . S
C686 H676 0.930 . S
C686 C684 1.419 . S
C686 C687 1.362 . S
C687 H677 0.930 . S
C687 C680 1.409 . S
C687 C686 1.362 . S
H688 C694 0.930 . S
H689 C697 0.930 . S
H690 C698 0.930 . S
H691 C699 0.930 . S
H692 C702 0.930 . S
H693 C703 0.930 . S
C694 H688 0.930 . S
C694 C695 1.355 . S
C694 C696 1.415 . S
C695 C694 1.355 . S
C695 C697 1.419 . S
C696 C694 1.415 . S
C696 C701 1.425 . S
C696 C703 1.409 . S
C697 H689 0.930 . S
C697 C695 1.419 . S
C697 C698 1.362 . S
C698 H690 0.930 . S
C698 C697 1.362 . S
C698 C701 1.409 . S
C699 H691 0.930 . S
C699 C700 1.355 . S
C699 C701 1.415 . S
C700 C699 1.355 . S
C700 C702 1.419 . S
C701 C696 1.425 . S
C701 C698 1.409 . S
C701 C699 1.415 . S
C702 H692 0.930 . S
C702 C700 1.419 . S
C702 C703 1.362 . S
C703 H693 0.930 . S
C703 C696 1.409 . S
C703 C702 1.362 . S
H704 C710 0.930 . S
H705 C713 0.930 . S
H706 C714 0.930 . S
H707 C715 0.930 . S
H708 C718 0.930 . S
H709 C719 0.930 . S
C710 H704 0.930 . S
C710 C711 1.355 . S
C710 C712 1.415 . S
C711 C710 1.355 . S
C711 C713 1.419 . S
C712 C710 1.415 . S
C712 C717 1.425 . S
C712 C719 1.409 . S
C713 H705 0.930 . S
C713 C711 1.419 . S
C713 C714 1.362 . S
C714 H706 0.930 . S
C714 C713 1.362 . S
C714 C717 1.409 . S
C715 H707 0.930 . S
C715 C716 1.355 . S
C715 C717 1.415 . S
C716 C715 1.355 . S
C716 C718 1.419 . S
C717 C712 1.425 . S
C717 C714 1.409 . S
C717 C715 1.415 . S
C718 H708 0.930 . S
C718 C716 1.419 . S
C718 C719 1.362 . S
C719 H709 0.930 . S
C719 C712 1.409 . S
C719 C718 1.362 . S
H720 C726 0.930 . S
H721 C729 0.930 . S
H722 C730 0.930 . S
H723 C731 0.930 . S
H724 C734 0.930 . S
H725 C735 0.930 . S
C726 H720 0.930 . S
C726 C727 1.355 . S
C726 C728 1.415 . S
C727 C726 1.355 . S
C727 C729 1.419 . S
C728 C726 1.415 . S
C728 C733 1.425 . S
C728 C735 1.409 . S
C729 H721 0.930 . S
C729 C727 1.419 . S
C729 C730 1.362 . S
C730 H722 0.930 . S
C730 C729 1.362 . S
C730 C733 1.409 . S
C731 H723 0.930 . S
C731 C732 1.355 . S
C731 C733 1.415 . S
C732 C731 1.355 . S
C732 C734 1.419 . S
C733 C728 1.425 . S
C733 C730 1.409 . S
C733 C731 1.415 . S
C734 H724 0.930 . S
C734 C732 1.419 . S
C734 C735 1.362 . S
C735 H725 0.930 . S
C735 C728 1.409 . S
C735 C734 1.362 . S
H736 C742 0.930 . S
H737 C745 0.930 . S
H738 C746 0.930 . S
H739 C747 0.930 . S
H740 C750 0.930 . S
H741 C751 0.930 . S
C742 H736 0.930 . S
C742 C743 1.355 . S
C742 C744 1.415 . S
C743 C742 1.355 . S
C743 C745 1.419 . S
C744 C742 1.415 . S
C744 C749 1.425 . S
C744 C751 1.409 . S
C745 H737 0.930 . S
C745 C743 1.419 . S
C745 C746 1.362 . S
C746 H738 0.930 . S
C746 C745 1.362 . S
C746 C749 1.409 . S
C747 H739 0.930 . S
C747 C748 1.355 . S
C747 C749 1.415 . S
C748 C747 1.355 . S
C748 C750 1.419 . S
C749 C744 1.425 . S
C749 C746 1.409 . S
C749 C747 1.415 . S
C750 H740 0.930 . S
C750 C748 1.419 . S
C750 C751 1.362 . S
C751 H741 0.930 . S
C751 C744 1.409 . S
C751 C750 1.362 . S
H752 C758 0.930 . S
H753 C761 0.930 . S
H754 C762 0.930 . S
H755 C763 0.930 . S
H756 C766 0.930 . S
H757 C767 0.930 . S
C758 H752 0.930 . S
C758 C759 1.355 . S
C758 C760 1.415 . S
C759 C758 1.355 . S
C759 C761 1.419 . S
C760 C758 1.415 . S
C760 C765 1.425 . S
C760 C767 1.409 . S
C761 H753 0.930 . S
C761 C759 1.419 . S
C761 C762 1.362 . S
C762 H754 0.930 . S
C762 C761 1.362 . S
C762 C765 1.409 . S
C763 H755 0.930 . S
C763 C764 1.355 . S
C763 C765 1.415 . S
C764 C763 1.355 . S
C764 C766 1.419 . S
C765 C760 1.425 . S
C765 C762 1.409 . S
C765 C763 1.415 . S
C766 H756 0.930 . S
C766 C764 1.419 . S
C766 C767 1.362 . S
C767 H757 0.930 . S
C767 C760 1.409 . S
C767 C766 1.362 . S
H768 C774 0.930 . S
H769 C777 0.930 . S
H770 C778 0.930 . S
H771 C779 0.930 . S
H772 C782 0.930 . S
H773 C783 0.930 . S
C774 H768 0.930 . S
C774 C775 1.355 . S
C774 C776 1.415 . S
C775 C774 1.355 . S
C775 C777 1.419 . S
C776 C774 1.415 . S
C776 C781 1.425 . S
C776 C783 1.409 . S
C777 H769 0.930 . S
C777 C775 1.419 . S
C777 C778 1.362 . S
C778 H770 0.930 . S
C778 C777 1.362 . S
C778 C781 1.409 . S
C779 H771 0.930 . S
C779 C780 1.355 . S
C779 C781 1.415 . S
C780 C779 1.355 . S
C780 C782 1.419 . S
C781 C776 1.425 . S
C781 C778 1.409 . S
C781 C779 1.415 . S
C782 H772 0.930 . S
C782 C780 1.419 . S
C782 C783 1.362 . S
C783 H773 0.930 . S
C783 C776 1.409 . S
C783 C782 1.362 . S
H784 C790 0.930 . S
H785 C793 0.930 . S
H786 C794 0.930 . S
H787 C795 0.930 . S
H788 C798 0.930 . S
H789 C799 0.930 . S
C790 H784 0.930 . S
C790 C791 1.355 . S
C790 C792 1.415 . S
C791 C790 1.355 . S
C791 C793 1.419 . S
C792 C790 1.415 . S
C792 C797 1.425 . S
C792 C799 1.409 . S
C793 H785 0.930 . S
C793 C791 1.419 . S
C793 C794 1.362 . S
C794 H786 0.930 . S
C794 C793 1.362 . S
C794 C797 1.409 . S
C795 H787 0.930 . S
C795 C796 1.355 . S
C795 C797 1.415 . S
C796 C795 1.355 . S
C796 C798 1.419 . S
C797 C792 1.425 . S
C797 C794 1.409 . S
C797 C795 1.415 . S
C798 H788 0.930 . S
C798 C796 1.419 . S
C798 C799 1.362 . S
C799 H789 0.930 . S
C799 C792 1.409 . S
C799 C798 1.362 . S
H800 C806 0.930 . S
H801 C809 0.930 . S
H802 C810 0.930 . S
H803 C811 0.930 . S
H804 C814 0.930 . S
H805 C815 0.930 . S
C806 H800 0.930 . S
C806 C807 1.355 . S
C806 C808 1.415 . S
C807 C806 1.355 . S
C807 C809 1.419 . S
C808 C806 1.415 . S
C808 C813 1.425 . S
C808 C815 1.409 . S
C809 H801 0.930 . S
C809 C807 1.419 . S
C809 C810 1.362 . S
C810 H802 0.930 . S
C810 C809 1.362 . S
C810 C813 1.409 . S
C811 H803 0.930 . S
C811 C812 1.355 . S
C811 C813 1.415 . S
C812 C811 1.355 . S
C812 C814 1.419 . S
C813 C808 1.425 . S
C813 C810 1.409 . S
C813 C811 1.415 . S
C814 H804 0.930 . S
C814 C812 1.419 . S
C814 C815 1.362 . S
C815 H805 0.930 . S
C815 C808 1.409 . S
C815 C814 1.362 . S
H816 C822 0.930 . S
H817 C825 0.930 . S
H818 C826 0.930 . S
H819 C827 0.930 . S
H820 C830 0.930 . S
H821 C831 0.930 . S
C822 H816 0.930 . S
C822 C823 1.355 1_565 S
C822 C824 1.415 . S
C823 C822 1.355 1_545 S
C823 C825 1.419 . S
C824 C822 1.415 . S
C824 C829 1.425 1_564 S
C824 C831 1.409 1_554 S
C825 H817 0.930 . S
C825 C823 1.419 . S
C825 C826 1.362 . S
C826 H818 0.930 . S
C826 C825 1.362 . S
C826 C829 1.409 1_554 S
C827 H819 0.930 . S
C827 C828 1.355 1_545 S
C827 C829 1.415 . S
C828 C827 1.355 1_565 S
C828 C830 1.419 . S
C829 C824 1.425 1_546 S
C829 C826 1.409 1_556 S
C829 C827 1.415 . S
C830 H820 0.930 . S
C830 C828 1.419 . S
C830 C831 1.362 . S
C831 H821 0.930 . S
C831 C824 1.409 1_556 S
C831 C830 1.362 . S
H832 C838 0.930 . S
H833 C841 0.930 . S
H834 C842 0.930 . S
H835 C843 0.930 . S
H836 C846 0.930 . S
H837 C847 0.930 . S
C838 H832 0.930 . S
C838 C839 1.355 1_655 S
C838 C840 1.415 . S
C839 C838 1.355 1_455 S
C839 C841 1.419 . S
C840 C838 1.415 . S
C840 C845 1.425 1_656 S
C840 C847 1.409 1_556 S
C841 H833 0.930 . S
C841 C839 1.419 . S
C841 C842 1.362 . S
C842 H834 0.930 . S
C842 C841 1.362 . S
C842 C845 1.409 1_556 S
C843 H835 0.930 . S
C843 C844 1.355 1_455 S
C843 C845 1.415 . S
C844 C843 1.355 1_655 S
C844 C846 1.419 . S
C845 C840 1.425 1_454 S
C845 C842 1.409 1_554 S
C845 C843 1.415 . S
C846 H836 0.930 . S
C846 C844 1.419 . S
C846 C847 1.362 . S
C847 H837 0.930 . S
C847 C840 1.409 1_554 S
C847 C846 1.362 . S
H848 C854 0.930 . S
H849 C857 0.930 . S
H850 C858 0.930 . S
H851 C859 0.930 . S
H852 C862 0.930 . S
H853 C863 0.930 . S
C854 H848 0.930 . S
C854 C855 1.355 1_565 S
C854 C856 1.415 . S
C855 C854 1.355 1_545 S
C855 C857 1.419 . S
C856 C854 1.415 . S
C856 C861 1.425 1_566 S
C856 C863 1.409 1_556 S
C857 H849 0.930 . S
C857 C855 1.419 . S
C857 C858 1.362 . S
C858 H850 0.930 . S
C858 C857 1.362 . S
C858 C861 1.409 1_556 S
C859 H851 0.930 . S
C859 C860 1.355 1_545 S
C859 C861 1.415 . S
C860 C859 1.355 1_565 S
C860 C862 1.419 . S
C861 C856 1.425 1_544 S
C861 C858 1.409 1_554 S
C861 C859 1.415 . S
C862 H852 0.930 . S
C862 C860 1.419 . S
C862 C863 1.362 . S
C863 H853 0.930 . S
C863 C856 1.409 1_554 S
C863 C862 1.362 . S
H864 C870 0.930 . S
H865 C873 0.930 . S
H866 C874 0.930 . S
H867 C875 0.930 . S
H868 C878 0.930 . S
H869 C879 0.930 . S
C870 H864 0.930 . S
C870 C871 1.375 . S
C870 C872 1.415 . S
C871 C870 1.375 . S
C871 C873 1.392 1_655 S
C872 C870 1.415 . S
C872 C877 1.425 1_656 S
C872 C879 1.409 1_556 S
C873 H865 0.930 . S
C873 C871 1.392 1_455 S
C873 C874 1.362 . S
C874 H866 0.930 . S
C874 C873 1.362 . S
C874 C877 1.409 1_556 S
C875 H867 0.930 . S
C875 C876 1.375 . S
C875 C877 1.415 . S
C876 C875 1.375 . S
C876 C878 1.392 1_455 S
C877 C872 1.425 1_454 S
C877 C874 1.409 1_554 S
C877 C875 1.415 . S
C878 H868 0.930 . S
C878 C876 1.392 1_655 S
C878 C879 1.362 . S
C879 H869 0.930 . S
C879 C872 1.409 1_554 S
C879 C878 1.362 . S
C375 N12 1.657 . S
C380 N173 1.712 . S
C391 N35 1.708 . S
C396 N104 1.662 . S
C407 N127 1.717 . S
C412 N58 1.652 . S
C423 N81 1.678 . S
C428 N150 1.692 . S
C439 N196 1.664 . S
C444 N357 1.705 . S
C455 N288 1.669 . S
C460 N219 1.700 . S
C471 N311 1.703 . S
C476 N242 1.666 . S
C487 N334 1.711 . S
C492 N265 1.658 . S
C503 N2 1.718 . S
C508 C269 1.765 . S
C519 N25 1.732 . S
C524 C200 1.767 . S
C535 C223 1.736 . S
C540 N48 1.706 . S
C551 N71 1.714 . S
C556 C246 1.719 . S
C567 N94 1.711 . S
C572 C315 1.760 . S
C583 C338 1.748 . S
C588 N117 1.705 . S
C599 N140 1.728 . S
C604 C361 1.767 . S
C615 C292 1.703 . S
C620 N163 1.756 . S
C631 N186 1.711 . S
C636 C85 1.725 . S
C647 C16 1.716 . S
C652 N209 1.718 . S
C663 N232 1.705 . S
C668 C39 1.741 . S
C679 C62 1.750 . S
C684 N255 1.706 . S
C695 N278 1.766 . S
C700 C131 1.711 . S
C711 C154 1.703 . S
C716 N301 1.736 . S
C727 C177 1.762 . S
C732 N324 1.714 . S
C743 C108 1.725 . S
C748 N347 1.711 . S
C759 C99 1.949 . S
C764 C7 1.944 . S
C775 C122 1.913 . S
C780 C30 1.926 . S
C791 C53 1.928 . S
C796 C145 1.912 . S
C807 C168 1.917 . S
C812 C76 1.921 . S
C823 C283 1.933 . S
C828 C191 1.909 . S
C839 C306 1.904 . S
C844 C214 1.944 . S
C855 C237 1.915 . S
C860 C329 1.924 . S
C871 C352 1.944 . S
C876 C260 1.966 . S
