# Generated by pormake.
# Topology lon, (4)-cn, num edge types: 1
# Building blocks:
#     Node 0, Type 0, BuildingBlock: ICAMEG_clean_sbu_1, # of connection points: 4
#     Node 1, Type 0, BuildingBlock: ICAMEG_clean_sbu_1, # of connection points: 4
#     Node 2, Type 0, BuildingBlock: ICAMEG_clean_sbu_1, # of connection points: 4
#     Node 3, Type 0, BuildingBlock: ICAMEG_clean_sbu_1, # of connection points: 4
#     Edge 4, Type (0, 0), BuildingBlock: FUNLAD_clean_linker_1, # of connection points: 2
#     Edge 5, Type (0, 0), BuildingBlock: FUNLAD_clean_linker_1, # of connection points: 2
#     Edge 6, Type (0, 0), BuildingBlock: FUNLAD_clean_linker_1, # of connection points: 2
#     Edge 7, Type (0, 0), BuildingBlock: FUNLAD_clean_linker_1, # of connection points: 2
#     Edge 8, Type (0, 0), BuildingBlock: FUNLAD_clean_linker_1, # of connection points: 2
#     Edge 9, Type (0, 0), BuildingBlock: FUNLAD_clean_linker_1, # of connection points: 2
#     Edge 10, Type (0, 0), BuildingBlock: FUNLAD_clean_linker_1, # of connection points: 2
#     Edge 11, Type (0, 0), BuildingBlock: FUNLAD_clean_linker_1, # of connection points: 2
# Relax obj value: 0.243
# Max RMSD: 0.269
# Mean RMSD: 0.258
data_MOF--net-lon--node1-ICAMEG_clean_sbu_1--edge1-FUNLAD_clean_linker_1
_symmetry_space_group_name_H-M    P1
_symmetry_Int_Tables_number       1
_symmetry_cell_setting            triclinic
loop_
_symmetry_equiv_pos_as_xyz
'x, y, z'
_cell_length_a     23.007825
_cell_length_b     26.691233
_cell_length_c     45.40399
_cell_angle_alpha  93.099941
_cell_angle_beta   89.797157
_cell_angle_gamma 115.289
loop_
_atom_site_label
_atom_site_type_symbol
_atom_site_fract_x
_atom_site_fract_y
_atom_site_fract_z
_atom_type_partial_charge
Co0 Co 0.34555 0.72588 0.04733 0.0
Co1 Co 0.39043 0.66967 0.10424 0.0
O2 O 0.3846 0.73239 0.08635 0.0
C3 C 0.4712 0.82384 0.04278 0.0
O4 O 0.50026 0.79474 0.05243 0.0
C5 C 0.33487 0.67516 0.16282 0.0
O6 O 0.2909 0.62449 0.15653 0.0
O7 O 0.29578 0.62506 0.09849 0.0
O8 O 0.27889 0.64956 0.05397 0.0
H9 H 0.34314 0.46888 0.11195 0.0
H10 H 0.36528 0.82192 0.08862 0.0
O11 O 0.41033 0.80263 0.0397 0.0
H12 H 0.13212 0.73062 0.06656 0.0
H13 H 0.26804 0.79611 0.96207 0.0
H14 H 0.29527 0.63719 0.99944 0.0
H15 H 0.20446 0.69429 0.04342 0.0
H16 H 0.31569 0.80287 1.01155 0.0
O17 O 0.37723 0.70024 0.14399 0.0
H18 H 0.33757 0.54871 0.08929 0.0
H19 H 0.45482 0.65767 0.15871 0.0
H20 H 0.24678 0.62845 0.94997 0.0
H21 H 0.29472 0.86019 0.11196 0.0
H22 H 0.23292 0.70831 0.93098 0.0
H23 H 0.17721 0.81434 0.10103 0.0
O24 O 0.40313 0.6944 0.02984 0.0
H25 H 0.58987 0.84258 0.13201 0.0
H26 H 0.50607 0.64908 0.09117 0.0
H27 H 0.62315 0.70579 0.09517 0.0
H28 H 0.66581 0.80327 0.11581 0.0
H29 H 0.473 0.7846 0.12724 0.0
H30 H 0.46123 0.57897 0.18226 0.0
H31 H 0.40524 0.48377 0.1588 0.0
O32 O 0.40527 0.6391 0.06503 0.0
C33 C 0.2606 0.61841 0.07566 0.0
C34 C 0.36778 0.51017 0.12237 0.0
C35 C 0.43405 0.57195 0.16184 0.0
N36 N 0.39594 0.60777 0.12262 0.0
C37 C 0.36487 0.55553 0.10962 0.0
C38 C 0.43018 0.61633 0.14843 0.0
C39 C 0.40263 0.51855 0.14866 0.0
C40 C 0.31426 0.80203 0.08358 0.0
N41 N 0.2891 0.75604 0.06461 0.0
C42 C 0.27452 0.82377 0.09693 0.0
C43 C 0.20858 0.79799 0.09081 0.0
C44 C 0.18325 0.75103 0.07147 0.0
C45 C 0.22446 0.73052 0.05851 0.0
C46 C 0.27377 0.76101 0.97011 0.0
C47 C 0.28911 0.67204 0.99139 0.0
C48 C 0.30089 0.76464 0.99808 0.0
N49 N 0.3079 0.72035 1.00844 0.0
C50 C 0.26176 0.66688 0.96333 0.0
C51 C 0.25404 0.71172 0.95269 0.0
C52 C 0.41638 0.65602 0.0389 0.0
C53 C 0.57187 0.80009 0.12312 0.0
C54 C 0.52415 0.69148 0.1001 0.0
C55 C 0.59056 0.72336 0.10239 0.0
C56 C 0.61446 0.77804 0.11397 0.0
N57 N 0.48264 0.7134 0.1091 0.0
C58 C 0.50574 0.76697 0.12049 0.0
Co59 Co 0.63393 0.31877 0.55122 0.0
Co60 Co 0.71519 0.31962 0.61494 0.0
O61 O 0.65255 0.33769 0.59379 0.0
C62 C 0.63539 0.43237 0.56191 0.0
O63 O 0.6599 0.43841 0.5886 0.0
C64 C 0.60233 0.28564 0.65523 0.0
O65 O 0.56201 0.26915 0.6326 0.0
O66 O 0.66759 0.24019 0.6013 0.0
O67 O 0.64246 0.24751 0.55452 0.0
H68 H 0.86432 0.22816 0.62527 0.0
H69 H 0.54228 0.34502 0.58815 0.0
O70 O 0.62377 0.38885 0.54548 0.0
H71 H 0.41446 0.15804 0.54222 0.0
H72 H 0.51902 0.30328 0.45449 0.0
H73 H 0.69108 0.27375 0.50424 0.0
H74 H 0.52993 0.20789 0.53224 0.0
H75 H 0.5404 0.32569 0.5079 0.0
O76 O 0.66269 0.30546 0.6514 0.0
H77 H 0.78731 0.25314 0.59926 0.0
H78 H 0.77313 0.34566 0.67585 0.0
H79 H 0.67095 0.25036 0.45083 0.0
H80 H 0.42688 0.29694 0.59846 0.0
H81 H 0.58436 0.26509 0.42561 0.0
H82 H 0.3621 0.20259 0.5755 0.0
O83 O 0.72678 0.35917 0.54289 0.0
H84 H 0.73373 0.50052 0.66246 0.0
H85 H 0.8528 0.40307 0.61525 0.0
H86 H 0.91134 0.50119 0.63268 0.0
H87 H 0.85183 0.55053 0.65668 0.0
H88 H 0.6768 0.40278 0.64405 0.0
H89 H 0.84952 0.32132 0.70272 0.0
H90 H 0.89588 0.26233 0.67738 0.0
O91 O 0.7719 0.33449 0.57976 0.0
C92 C 0.64759 0.21932 0.57536 0.0
C93 C 0.84458 0.25401 0.63652 0.0
C94 C 0.83621 0.30623 0.68 0.0
N95 N 0.77603 0.30107 0.63594 0.0
C96 C 0.80107 0.26839 0.62189 0.0
C97 C 0.79284 0.31976 0.66468 0.0
C98 C 0.86222 0.27315 0.66577 0.0
C99 C 0.51446 0.30437 0.57776 0.0
N100 N 0.54295 0.27966 0.55939 0.0
C101 C 0.44909 0.27714 0.58384 0.0
C102 C 0.4128 0.22417 0.57101 0.0
C103 C 0.44218 0.19911 0.55238 0.0
C104 C 0.50769 0.22753 0.54687 0.0
C105 C 0.55681 0.29659 0.46524 0.0
C106 C 0.65309 0.28 0.49346 0.0
C107 C 0.56926 0.30932 0.49547 0.0
N108 N 0.61665 0.30063 0.50923 0.0
C109 C 0.64202 0.26681 0.46319 0.0
C110 C 0.59347 0.27514 0.44905 0.0
C111 C 0.77485 0.35638 0.55522 0.0
C112 C 0.7602 0.47951 0.65201 0.0
C113 C 0.82629 0.42441 0.6252 0.0
C114 C 0.85983 0.47992 0.63524 0.0
C115 C 0.82644 0.50755 0.64874 0.0
N116 N 0.76124 0.39717 0.62843 0.0
C117 C 0.72824 0.42406 0.64164 0.0
Co118 Co 0.31644 0.71712 0.49047 0.0
Co119 Co 0.4235 0.71802 0.43737 0.0
O120 O 0.33557 0.70033 0.44998 0.0
C121 C 0.22373 0.59954 0.47739 0.0
O122 O 0.26972 0.59074 0.46434 0.0
C123 C 0.3678 0.7594 0.39033 0.0
O124 O 0.34183 0.77957 0.4107 0.0
O125 O 0.45159 0.79697 0.45158 0.0
O126 O 0.3977 0.78773 0.49377 0.0
H127 H 0.66403 0.80385 0.44957 0.0
H128 H 0.21717 0.69237 0.4435 0.0
O129 O 0.23437 0.64749 0.48865 0.0
H130 H 0.26338 0.88085 0.48441 0.0
H131 H 0.17218 0.72826 0.57175 0.0
H132 H 0.3929 0.75883 0.54621 0.0
H133 H 0.31933 0.82868 0.50419 0.0
H134 H 0.19748 0.70825 0.52088 0.0
O135 O 0.40246 0.73525 0.39748 0.0
H136 H 0.55292 0.78009 0.46508 0.0
H137 H 0.48054 0.69532 0.38193 0.0
H138 H 0.36986 0.78003 0.59729 0.0
H139 H 0.15912 0.74257 0.42334 0.0
H140 H 0.25881 0.76475 0.61033 0.0
H141 H 0.18232 0.83762 0.44373 0.0
O142 O 0.36211 0.67541 0.50613 0.0
H143 H 0.2777 0.54046 0.38178 0.0
H144 H 0.47295 0.63233 0.44481 0.0
H145 H 0.43684 0.5342 0.42791 0.0
H146 H 0.33881 0.48768 0.39593 0.0
H147 H 0.31435 0.63805 0.4 0.0
H148 H 0.59088 0.71857 0.36543 0.0
H149 H 0.68356 0.773 0.39941 0.0
O150 O 0.44723 0.69979 0.47662 0.0
C151 C 0.44158 0.8164 0.47635 0.0
C152 C 0.62405 0.77999 0.43459 0.0
C153 C 0.58299 0.73219 0.38735 0.0
N154 N 0.5103 0.73608 0.42451 0.0
C155 C 0.56103 0.76631 0.44327 0.0
C156 C 0.52063 0.71929 0.3968 0.0
C157 C 0.63497 0.76271 0.40643 0.0
C158 C 0.22706 0.7335 0.45267 0.0
N159 N 0.27159 0.7576 0.47501 0.0
C160 C 0.19425 0.76182 0.44108 0.0
C161 C 0.20736 0.81518 0.45251 0.0
C162 C 0.25287 0.83949 0.47529 0.0
C163 C 0.28469 0.8099 0.48632 0.0
C164 C 0.22078 0.73518 0.56633 0.0
C165 C 0.34454 0.75237 0.55168 0.0
C166 C 0.23537 0.72377 0.53758 0.0
N167 N 0.29674 0.73276 0.53054 0.0
C168 C 0.33174 0.7643 0.58066 0.0
C169 C 0.26941 0.75568 0.58796 0.0
C170 C 0.41689 0.67748 0.49954 0.0
C171 C 0.32051 0.56026 0.39569 0.0
C172 C 0.42973 0.61224 0.4313 0.0
C173 C 0.40975 0.55672 0.42161 0.0
C174 C 0.35478 0.53066 0.40365 0.0
N175 N 0.39574 0.64098 0.42348 0.0
C176 C 0.34172 0.61564 0.40593 0.0
Co177 Co 0.66653 0.32026 0.99687 0.0
Co178 Co 0.72455 0.37951 0.93203 0.0
O179 O 0.67635 0.31423 0.95423 0.0
C180 C 0.70888 0.2298 0.98981 0.0
O181 O 0.75726 0.26247 0.97439 0.0
C182 C 0.63538 0.36301 0.88164 0.0
O183 O 0.63742 0.41189 0.88938 0.0
O184 O 0.6671 0.41341 0.94709 0.0
O185 O 0.66355 0.394 0.99473 0.0
H186 H 0.83274 0.58401 0.91684 0.0
H187 H 0.57688 0.21979 0.96205 0.0
O188 O 0.66823 0.24641 1.0002 0.0
H189 H 0.43985 0.29903 1.01012 0.0
H190 H 0.58101 0.24593 0.09532 0.0
H191 H 0.72461 0.41021 0.04367 0.0
H192 H 0.55719 0.34301 1.01894 0.0
H193 H 0.59065 0.24055 0.04123 0.0
O194 O 0.66446 0.34226 0.89735 0.0
H195 H 0.776 0.50093 0.94508 0.0
H196 H 0.77252 0.39679 0.87034 0.0
H197 H 0.71623 0.4175 0.09776 0.0
H198 H 0.45949 0.17383 0.95303 0.0
H199 H 0.64396 0.33494 0.12394 0.0
H200 H 0.3902 0.21366 0.97705 0.0
O201 O 0.76135 0.35808 1.00241 0.0
H202 H 0.77108 0.22274 0.88987 0.0
H203 H 0.86691 0.41807 0.92831 0.0
H204 H 0.93771 0.3741 0.91265 0.0
H205 H 0.88986 0.2758 0.89313 0.0
H206 H 0.70196 0.26799 0.90635 0.0
H207 H 0.82871 0.47867 0.84123 0.0
H208 H 0.85928 0.57313 0.8645 0.0
O209 O 0.78667 0.41709 0.96601 0.0
C210 C 0.65418 0.42017 0.97396 0.0
C211 C 0.81977 0.54308 0.90647 0.0
C212 C 0.81757 0.48397 0.86404 0.0
N213 N 0.77108 0.44409 0.90942 0.0
C214 C 0.78774 0.4959 0.92237 0.0
C215 C 0.78576 0.43776 0.88064 0.0
C216 C 0.83465 0.53694 0.87711 0.0
C217 C 0.54694 0.237 0.97282 0.0
N218 N 0.57385 0.28387 0.99108 0.0
C219 C 0.48054 0.21093 0.96755 0.0
C220 C 0.44169 0.23332 0.98101 0.0
C221 C 0.4695 0.28121 0.99958 0.0
C222 C 0.53603 0.30602 1.00441 0.0
C223 C 0.61251 0.28223 0.08415 0.0
C224 C 0.69275 0.37421 0.05489 0.0
C225 C 0.61822 0.27942 0.05354 0.0
N226 N 0.65773 0.32516 0.03929 0.0
C227 C 0.68833 0.37854 0.08553 0.0
C228 C 0.64784 0.33219 0.1002 0.0
C229 C 0.80068 0.4004 0.98965 0.0
C230 C 0.7925 0.26566 0.89823 0.0
C231 C 0.84562 0.37519 0.91999 0.0
C232 C 0.88601 0.35057 0.91106 0.0
C233 C 0.85914 0.29543 0.9001 0.0
N234 N 0.78025 0.3457 0.91814 0.0
C235 C 0.75359 0.29161 0.90744 0.0
H236 H 0.38806 0.73549 0.19922 0.0
C237 C 0.34313 0.69973 0.19335 0.0
H238 H 0.25568 0.6402 0.20865 0.0
H239 H 0.34831 0.63878 0.33807 0.0
H240 H 0.32032 0.54476 0.31895 0.0
H241 H 0.29161 0.5177 0.26632 0.0
H242 H 0.2898 0.58422 0.23267 0.0
C243 C 0.30009 0.67655 0.21439 0.0
C244 C 0.31603 0.69346 0.24636 0.0
C245 C 0.31787 0.65406 0.2657 0.0
C246 C 0.33641 0.67008 0.29586 0.0
C247 C 0.33626 0.62943 0.31479 0.0
C248 C 0.32001 0.57512 0.30415 0.0
C249 C 0.3037 0.55988 0.27456 0.0
C250 C 0.30264 0.59862 0.25547 0.0
H251 H 0.30825 0.76475 0.35342 0.0
C252 C 0.34989 0.75755 0.35889 0.0
H253 H 0.42175 0.73444 0.3432 0.0
H254 H 0.30644 0.77662 0.21697 0.0
H255 H 0.33775 0.87161 0.23578 0.0
H256 H 0.37979 0.90158 0.28675 0.0
H257 H 0.38932 0.83647 0.31944 0.0
C258 C 0.38077 0.74243 0.33743 0.0
C259 C 0.3548 0.7258 0.3066 0.0
C260 C 0.3519 0.765 0.28746 0.0
C261 C 0.33085 0.74842 0.25753 0.0
C262 C 0.32492 0.78759 0.23941 0.0
C263 C 0.34226 0.84215 0.25001 0.0
C264 C 0.36569 0.85896 0.27874 0.0
C265 C 0.37062 0.82105 0.29734 0.0
H266 H 0.53167 0.28705 0.68834 0.0
C267 C 0.57916 0.2883 0.68547 0.0
H268 H 0.66613 0.29887 0.70577 0.0
H269 H 0.68863 0.45172 0.81524 0.0
H270 H 0.7688 0.51459 0.78381 0.0
H271 H 0.77415 0.48814 0.73129 0.0
H272 H 0.69995 0.39823 0.7101 0.0
C273 C 0.61847 0.29712 0.70903 0.0
C274 C 0.60585 0.31527 0.73905 0.0
C275 C 0.64794 0.36894 0.7509 0.0
C276 C 0.64355 0.38483 0.78094 0.0
C277 C 0.68849 0.43775 0.79243 0.0
C278 C 0.73505 0.47434 0.77463 0.0
C279 C 0.73818 0.45941 0.74511 0.0
C280 C 0.69536 0.40747 0.73327 0.0
H281 H 0.6206 0.30094 0.84499 0.0
C282 C 0.61368 0.33778 0.85157 0.0
H283 H 0.59141 0.4014 0.83713 0.0
H284 H 0.51783 0.20919 0.72362 0.0
H285 H 0.43382 0.14796 0.75436 0.0
H286 H 0.42149 0.17804 0.80541 0.0
H287 H 0.49395 0.26933 0.82623 0.0
C288 C 0.59574 0.36321 0.83106 0.0
C289 C 0.59601 0.34748 0.79901 0.0
C290 C 0.55162 0.29498 0.78673 0.0
C291 C 0.55722 0.27843 0.75686 0.0
C292 C 0.51459 0.22456 0.74579 0.0
C293 C 0.46628 0.1889 0.76326 0.0
C294 C 0.45944 0.20578 0.79204 0.0
C295 C 0.5015 0.25813 0.80376 0.0
H296 H 0.4594 0.64636 0.99643 0.0
C297 C 0.44731 0.6305 1.01826 0.0
H298 H 0.44906 0.57224 0.0476 0.0
H299 H 0.48309 0.40437 0.95564 0.0
H300 H 0.36814 0.35641 0.9631 0.0
H301 H 0.3102 0.40364 0.98976 0.0
H302 H 0.36695 0.49901 1.00936 0.0
C303 C 0.4625 0.58962 0.02618 0.0
C304 C 0.49587 0.56483 1.00619 0.0
C305 C 0.46178 0.50964 0.99422 0.0
C306 C 0.49505 0.48258 0.9786 0.0
C307 C 0.46008 0.42693 0.96758 0.0
C308 C 0.39411 0.39895 0.97167 0.0
C309 C 0.3615 0.42552 0.98671 0.0
C310 C 0.39466 0.48021 0.9979 0.0
H311 H 0.62528 0.4694 1.00596 0.0
C312 C 0.62678 0.45953 0.98248 0.0
H313 H 0.59543 0.46752 0.93996 0.0
H314 H 0.57626 0.67097 0.02622 0.0
H315 H 0.69064 0.71906 1.01789 0.0
H316 H 0.7473 0.67301 0.98921 0.0
H317 H 0.68976 0.57807 0.96894 0.0
C318 C 0.59839 0.47921 0.96339 0.0
C319 C 0.56237 0.51073 0.97503 0.0
C320 C 0.59595 0.5668 0.9857 0.0
C321 C 0.56286 0.59377 1.00159 0.0
C322 C 0.59845 0.64884 1.01336 0.0
C323 C 0.66427 0.6769 1.00884 0.0
C324 C 0.69621 0.65093 0.99274 0.0
C325 C 0.66272 0.59646 0.98131 0.0
H326 H 0.14502 0.51858 0.46262 0.0
C327 C 0.15839 0.55408 0.47833 0.0
H328 H 0.1299 0.59217 0.5137 0.0
H329 H 0.83528 0.49104 0.50267 0.0
H330 H 0.86508 0.58661 0.49202 0.0
H331 H 0.97793 0.64988 0.48301 0.0
H332 H 0.06181 0.61807 0.48509 0.0
C333 C 0.11588 0.55624 0.49822 0.0
C334 C 0.04733 0.51449 0.49848 0.0
C335 C 0.99824 0.53299 0.49588 0.0
C336 C 0.93284 0.49602 0.50017 0.0
C337 C 0.88553 0.51672 0.49902 0.0
C338 C 0.90196 0.57167 0.49295 0.0
C339 C 0.96548 0.60731 0.48793 0.0
C340 C 1.01322 0.58849 0.48935 0.0
H341 H 0.88007 0.38913 0.55625 0.0
C342 C 0.83907 0.38337 0.54232 0.0
H343 H 0.80896 0.39931 0.50149 0.0
H344 H 0.12865 0.46486 0.5071 0.0
H345 H 0.09757 0.36718 0.51267 0.0
H346 H 0.98315 0.30087 0.51318 0.0
H347 H 0.89918 0.33257 0.50915 0.0
C348 C 0.84945 0.40404 0.51545 0.0
C349 C 0.91623 0.44 0.50621 0.0
C350 C 0.96461 0.42026 0.50605 0.0
C351 C 0.03046 0.45791 0.50349 0.0
C352 C 0.07784 0.43787 0.50691 0.0
C353 C 0.06065 0.38181 0.51043 0.0
C354 C 0.99627 0.34452 0.51088 0.0
C355 C 0.94861 0.3633 0.50878 0.0
H356 H 0.73454 0.15868 0.98493 0.0
C357 C 0.70075 0.17294 0.99476 0.0
H358 H 0.6194 0.15324 1.02147 0.0
H359 H 0.56594 0.89772 0.97987 0.0
H360 H 0.55493 0.92178 0.93001 0.0
H361 H 0.58197 1.01872 0.91913 0.0
H362 H 0.62108 0.09217 0.95778 0.0
C363 C 0.65206 0.13862 1.01075 0.0
C364 C 0.64207 0.08099 1.01609 0.0
C365 C 0.61835 0.03855 0.99316 0.0
C366 C 0.6003 0.98232 0.99961 0.0
C367 C 0.57824 0.9408 0.97628 0.0
C368 C 0.57207 0.95409 0.94757 0.0
C369 C 0.58748 1.00869 0.94143 0.0
C370 C 0.6102 0.05057 0.96386 0.0
H371 H 0.47993 0.90284 0.02689 0.0
C372 C 0.50758 0.88172 0.03488 0.0
H373 H 0.60077 0.89007 0.04574 0.0
H374 H 0.69225 0.15277 0.06434 0.0
H375 H 0.70312 0.12825 0.1141 0.0
H376 H 0.6689 0.03043 0.12545 0.0
H377 H 0.62379 0.95648 0.0871 0.0
C378 C 0.57188 0.9093 0.03695 0.0
C379 C 0.60358 0.96841 0.02909 0.0
C380 C 0.6309 1.01107 0.05161 0.0
C381 C 0.65007 0.06743 0.04511 0.0
C382 C 0.67627 0.10923 0.06815 0.0
C383 C 0.68294 0.09575 0.09677 0.0
C384 C 0.66371 0.04067 0.10315 0.0
C385 C 0.63785 0.99863 0.08095 0.0
H386 H 0.60362 0.47033 0.52745 0.0
C387 C 0.6144 0.47309 0.55095 0.0
H388 H 0.61139 0.51194 0.59237 0.0
H389 H 0.59954 0.72166 0.5376 0.0
H390 H 0.70081 0.76379 0.56519 0.0
H391 H 0.74454 0.70582 0.58893 0.0
H392 H 0.68713 0.60538 0.58544 0.0
C393 C 0.60128 0.5086 0.5688 0.0
C394 C 0.57213 0.54376 0.55662 0.0
C395 C 0.60629 0.60239 0.55889 0.0
C396 C 0.58149 0.63583 0.54484 0.0
C397 C 0.61654 0.6943 0.54755 0.0
C398 C 0.67466 0.71902 0.56336 0.0
C399 C 0.69925 0.68638 0.57675 0.0
C400 C 0.66576 0.62875 0.57458 0.0
H401 H 0.41704 0.62815 0.53709 0.0
C402 C 0.44469 0.6496 0.51851 0.0
H403 H 0.52895 0.66808 0.49391 0.0
H404 H 0.48683 0.43368 0.55362 0.0
H405 H 0.38797 0.3912 0.52442 0.0
H406 H 0.35148 0.44814 0.49522 0.0
H407 H 0.41239 0.54781 0.49584 0.0
C408 C 0.49977 0.64572 0.5119 0.0
C409 C 0.52284 0.61064 0.52837 0.0
C410 C 0.48814 0.55194 0.52642 0.0
C411 C 0.51155 0.5187 0.54154 0.0
C412 C 0.47338 0.46062 0.54113 0.0
C413 C 0.41615 0.43571 0.52468 0.0
C414 C 0.39544 0.46777 0.50837 0.0
C415 C 0.43076 0.52517 0.50914 0.0
H416 H 0.17802 0.54609 0.09253 0.0
C417 C 0.19474 0.57305 0.07424 0.0
H418 H 0.17193 0.59179 0.0324 0.0
H419 H 0.94189 0.37279 0.99083 0.0
H420 H 0.02698 0.36442 0.96224 0.0
H421 H 0.14081 0.42747 0.97322 0.0
H422 H 0.17019 0.49934 1.01281 0.0
C423 C 0.15486 0.56609 0.05115 0.0
C424 C 0.08771 0.52222 0.04868 0.0
C425 C 0.0714 0.47994 0.02577 0.0
C426 C 1.00587 0.44371 1.01938 0.0
C427 C 0.99092 0.40198 0.9963 0.0
C428 C 0.0393 0.39652 0.97982 0.0
C429 C 0.10337 0.43202 0.986 0.0
C430 C 0.11955 0.47324 1.0087 0.0
H431 H 0.89922 0.4665 0.98978 0.0
C432 C 0.86645 0.43178 1.00188 0.0
H433 H 0.85663 0.38452 0.03917 0.0
H434 H 0.10173 0.59855 0.09439 0.0
H435 H 1.01657 0.6048 0.12361 0.0
H436 H 0.90319 0.53953 0.11355 0.0
H437 H 0.87432 0.46787 0.07382 0.0
C438 C 0.88827 0.41822 0.0262 0.0
C439 C 0.95671 0.44996 0.03586 0.0
C440 C 0.97304 0.48975 0.05999 0.0
C441 C 0.03863 0.52657 0.06619 0.0
C442 C 0.05309 0.56843 0.08916 0.0
C443 C 1.00455 0.5727 0.10605 0.0
C444 C 0.94069 0.53601 0.10035 0.0
C445 C 0.92479 0.4951 0.07752 0.0
H446 H 0.62499 0.13384 0.5877 0.0
C447 C 0.62678 0.15898 0.56937 0.0
H448 H 0.60824 0.15866 0.52368 0.0
H449 H 0.60391 0.91686 0.50348 0.0
H450 H 0.71786 0.97102 0.49636 0.0
H451 H 0.7684 0.07235 0.50733 0.0
H452 H 0.70525 0.12004 0.52597 0.0
C453 C 0.6065 0.13425 0.54233 0.0
C454 C 0.57682 0.07282 0.53699 0.0
C455 C 0.6138 0.04573 0.52536 0.0
C456 C 0.58413 0.98748 0.51814 0.0
C457 C 0.62317 0.96123 0.5081 0.0
C458 C 0.68885 0.99179 0.50419 0.0
C459 C 0.71735 0.04884 0.51042 0.0
C460 C 0.68056 0.0757 0.52101 0.0
H461 H 0.50859 0.903 0.46816 0.0
C462 C 0.48157 0.87554 0.48507 0.0
H463 H 0.4568 0.86854 0.52991 0.0
H464 H 0.4928 0.11164 0.55996 0.0
H465 H 0.37865 0.05821 0.56687 0.0
H466 H 0.32622 0.95782 0.55311 0.0
H467 H 0.38756 0.91049 0.53254 0.0
C468 C 0.48398 0.89607 0.51306 0.0
C469 C 0.51688 0.95675 0.52159 0.0
C470 C 0.48024 0.98385 0.5339 0.0
C471 C 0.51028 0.04183 0.54164 0.0
C472 C 0.4724 0.06781 0.55358 0.0
C473 C 0.40679 0.03761 0.55769 0.0
C474 C 0.3773 0.98112 0.54998 0.0
C475 C 0.41326 0.95439 0.5382 0.0
loop_
_geom_bond_atom_site_label_1
_geom_bond_atom_site_label_2
_geom_bond_distance
_geom_bond_site_symmetry_2
_ccdc_geom_bond_type
Co0 O2 2.143 . S
Co0 O8 2.074 . S
Co0 O11 2.093 . S
Co0 O24 2.097 . S
Co0 N41 2.151 . S
Co0 N49 2.214 1_554 S
Co1 O2 2.160 . S
Co1 O7 2.058 . S
Co1 O17 2.057 . S
Co1 O32 2.037 . S
Co1 N36 2.145 . S
Co1 N57 2.257 . S
O2 Co0 2.143 . S
O2 Co1 2.160 . S
C3 O4 1.278 . S
C3 O11 1.224 . S
O4 C3 1.278 . S
C5 O6 1.245 . S
C5 O17 1.232 . S
O6 C5 1.245 . S
O7 Co1 2.058 . S
O7 C33 1.269 . S
O8 Co0 2.074 . S
O8 C33 1.257 . S
H9 C34 0.930 . S
H10 C40 0.930 . S
O11 Co0 2.093 . S
O11 C3 1.224 . S
H12 C44 0.929 . S
H13 C46 0.930 . S
H14 C47 0.930 . S
H15 C45 0.929 . S
H16 C48 0.928 . S
O17 Co1 2.057 . S
O17 C5 1.232 . S
H18 C37 0.929 . S
H19 C38 0.929 . S
H20 C50 0.931 . S
H21 C42 0.929 . S
H22 C51 0.930 . S
H23 C43 0.931 . S
O24 Co0 2.097 . S
O24 C52 1.214 . S
H25 C53 0.929 . S
H26 C54 0.929 . S
H27 C55 0.930 . S
H28 C56 0.929 . S
H29 C58 0.930 . S
H30 C35 0.930 . S
H31 C39 0.930 . S
O32 Co1 2.037 . S
O32 C52 1.234 . S
C33 O7 1.269 . S
C33 O8 1.257 . S
C34 H9 0.930 . S
C34 C37 1.388 . S
C34 C39 1.418 . S
C35 H30 0.930 . S
C35 C38 1.404 . S
C35 C39 1.353 . S
N36 Co1 2.145 . S
N36 C37 1.397 . S
N36 C38 1.334 . S
C37 H18 0.929 . S
C37 C34 1.388 . S
C37 N36 1.397 . S
C38 H19 0.929 . S
C38 C35 1.404 . S
C38 N36 1.334 . S
C39 H31 0.930 . S
C39 C34 1.418 . S
C39 C35 1.353 . S
C40 H10 0.930 . S
C40 N41 1.330 . S
C40 C42 1.446 . S
N41 Co0 2.151 . S
N41 C40 1.330 . S
N41 C45 1.418 . S
C42 H21 0.929 . S
C42 C40 1.446 . S
C42 C43 1.332 . S
C43 H23 0.931 . S
C43 C42 1.332 . S
C43 C44 1.267 . S
C44 H12 0.929 . S
C44 C43 1.267 . S
C44 C45 1.251 . S
C45 H15 0.929 . S
C45 N41 1.418 . S
C45 C44 1.251 . S
C46 H13 0.930 . S
C46 C48 1.406 . S
C46 C51 1.261 . S
C47 H14 0.930 . S
C47 N49 1.325 . S
C47 C50 1.357 . S
C48 H16 0.928 . S
C48 C46 1.406 . S
C48 N49 1.261 . S
N49 Co0 2.214 1_556 S
N49 C47 1.325 . S
N49 C48 1.261 . S
C50 H20 0.931 . S
C50 C47 1.357 . S
C50 C51 1.312 . S
C51 H22 0.930 . S
C51 C46 1.261 . S
C51 C50 1.312 . S
C52 O24 1.214 . S
C52 O32 1.234 . S
C53 H25 0.929 . S
C53 C56 1.391 . S
C53 C58 1.391 . S
C54 H26 0.929 . S
C54 C55 1.390 . S
C54 N57 1.391 . S
C55 H27 0.930 . S
C55 C54 1.390 . S
C55 C56 1.392 . S
C56 H28 0.929 . S
C56 C53 1.391 . S
C56 C55 1.392 . S
N57 Co1 2.257 . S
N57 C54 1.391 . S
N57 C58 1.388 . S
C58 H29 0.930 . S
C58 C53 1.391 . S
C58 N57 1.388 . S
Co59 O61 2.143 . S
Co59 O67 2.074 . S
Co59 O70 2.093 . S
Co59 O83 2.097 . S
Co59 N100 2.151 . S
Co59 N108 2.214 . S
Co60 O61 2.160 . S
Co60 O66 2.058 . S
Co60 O76 2.057 . S
Co60 O91 2.037 . S
Co60 N95 2.145 . S
Co60 N116 2.257 . S
O61 Co59 2.143 . S
O61 Co60 2.160 . S
C62 O63 1.278 . S
C62 O70 1.224 . S
O63 C62 1.278 . S
C64 O65 1.245 . S
C64 O76 1.232 . S
O65 C64 1.245 . S
O66 Co60 2.058 . S
O66 C92 1.269 . S
O67 Co59 2.074 . S
O67 C92 1.257 . S
H68 C93 0.930 . S
H69 C99 0.930 . S
O70 Co59 2.093 . S
O70 C62 1.224 . S
H71 C103 0.929 . S
H72 C105 0.930 . S
H73 C106 0.930 . S
H74 C104 0.929 . S
H75 C107 0.928 . S
O76 Co60 2.057 . S
O76 C64 1.232 . S
H77 C96 0.929 . S
H78 C97 0.929 . S
H79 C109 0.931 . S
H80 C101 0.929 . S
H81 C110 0.930 . S
H82 C102 0.931 . S
O83 Co59 2.097 . S
O83 C111 1.214 . S
H84 C112 0.929 . S
H85 C113 0.929 . S
H86 C114 0.930 . S
H87 C115 0.929 . S
H88 C117 0.930 . S
H89 C94 0.930 . S
H90 C98 0.930 . S
O91 Co60 2.037 . S
O91 C111 1.234 . S
C92 O66 1.269 . S
C92 O67 1.257 . S
C93 H68 0.930 . S
C93 C96 1.388 . S
C93 C98 1.418 . S
C94 H89 0.930 . S
C94 C97 1.404 . S
C94 C98 1.353 . S
N95 Co60 2.145 . S
N95 C96 1.397 . S
N95 C97 1.334 . S
C96 H77 0.929 . S
C96 C93 1.388 . S
C96 N95 1.397 . S
C97 H78 0.929 . S
C97 C94 1.404 . S
C97 N95 1.334 . S
C98 H90 0.930 . S
C98 C93 1.418 . S
C98 C94 1.353 . S
C99 H69 0.930 . S
C99 N100 1.330 . S
C99 C101 1.446 . S
N100 Co59 2.151 . S
N100 C99 1.330 . S
N100 C104 1.418 . S
C101 H80 0.929 . S
C101 C99 1.446 . S
C101 C102 1.332 . S
C102 H82 0.931 . S
C102 C101 1.332 . S
C102 C103 1.267 . S
C103 H71 0.929 . S
C103 C102 1.267 . S
C103 C104 1.251 . S
C104 H74 0.929 . S
C104 N100 1.418 . S
C104 C103 1.251 . S
C105 H72 0.930 . S
C105 C107 1.406 . S
C105 C110 1.261 . S
C106 H73 0.930 . S
C106 N108 1.325 . S
C106 C109 1.357 . S
C107 H75 0.928 . S
C107 C105 1.406 . S
C107 N108 1.261 . S
N108 Co59 2.214 . S
N108 C106 1.325 . S
N108 C107 1.261 . S
C109 H79 0.931 . S
C109 C106 1.357 . S
C109 C110 1.312 . S
C110 H81 0.930 . S
C110 C105 1.261 . S
C110 C109 1.312 . S
C111 O83 1.214 . S
C111 O91 1.234 . S
C112 H84 0.929 . S
C112 C115 1.391 . S
C112 C117 1.391 . S
C113 H85 0.929 . S
C113 C114 1.390 . S
C113 N116 1.391 . S
C114 H86 0.930 . S
C114 C113 1.390 . S
C114 C115 1.392 . S
C115 H87 0.929 . S
C115 C112 1.391 . S
C115 C114 1.392 . S
N116 Co60 2.257 . S
N116 C113 1.391 . S
N116 C117 1.388 . S
C117 H88 0.930 . S
C117 C112 1.391 . S
C117 N116 1.388 . S
Co118 O120 2.143 . S
Co118 O126 2.074 . S
Co118 O129 2.093 . S
Co118 O142 2.097 . S
Co118 N159 2.151 . S
Co118 N167 2.214 . S
Co119 O120 2.160 . S
Co119 O125 2.058 . S
Co119 O135 2.057 . S
Co119 O150 2.037 . S
Co119 N154 2.145 . S
Co119 N175 2.257 . S
O120 Co118 2.143 . S
O120 Co119 2.160 . S
C121 O122 1.278 . S
C121 O129 1.224 . S
O122 C121 1.278 . S
C123 O124 1.245 . S
C123 O135 1.232 . S
O124 C123 1.245 . S
O125 Co119 2.058 . S
O125 C151 1.269 . S
O126 Co118 2.074 . S
O126 C151 1.257 . S
H127 C152 0.930 . S
H128 C158 0.930 . S
O129 Co118 2.093 . S
O129 C121 1.224 . S
H130 C162 0.929 . S
H131 C164 0.930 . S
H132 C165 0.930 . S
H133 C163 0.929 . S
H134 C166 0.928 . S
O135 Co119 2.057 . S
O135 C123 1.232 . S
H136 C155 0.929 . S
H137 C156 0.929 . S
H138 C168 0.931 . S
H139 C160 0.929 . S
H140 C169 0.930 . S
H141 C161 0.931 . S
O142 Co118 2.097 . S
O142 C170 1.214 . S
H143 C171 0.929 . S
H144 C172 0.929 . S
H145 C173 0.930 . S
H146 C174 0.929 . S
H147 C176 0.930 . S
H148 C153 0.930 . S
H149 C157 0.930 . S
O150 Co119 2.037 . S
O150 C170 1.234 . S
C151 O125 1.269 . S
C151 O126 1.257 . S
C152 H127 0.930 . S
C152 C155 1.388 . S
C152 C157 1.418 . S
C153 H148 0.930 . S
C153 C156 1.404 . S
C153 C157 1.353 . S
N154 Co119 2.145 . S
N154 C155 1.397 . S
N154 C156 1.334 . S
C155 H136 0.929 . S
C155 C152 1.388 . S
C155 N154 1.397 . S
C156 H137 0.929 . S
C156 C153 1.404 . S
C156 N154 1.334 . S
C157 H149 0.930 . S
C157 C152 1.418 . S
C157 C153 1.353 . S
C158 H128 0.930 . S
C158 N159 1.330 . S
C158 C160 1.446 . S
N159 Co118 2.151 . S
N159 C158 1.330 . S
N159 C163 1.418 . S
C160 H139 0.929 . S
C160 C158 1.446 . S
C160 C161 1.332 . S
C161 H141 0.931 . S
C161 C160 1.332 . S
C161 C162 1.267 . S
C162 H130 0.929 . S
C162 C161 1.267 . S
C162 C163 1.251 . S
C163 H133 0.929 . S
C163 N159 1.418 . S
C163 C162 1.251 . S
C164 H131 0.930 . S
C164 C166 1.406 . S
C164 C169 1.261 . S
C165 H132 0.930 . S
C165 N167 1.325 . S
C165 C168 1.357 . S
C166 H134 0.928 . S
C166 C164 1.406 . S
C166 N167 1.261 . S
N167 Co118 2.214 . S
N167 C165 1.325 . S
N167 C166 1.261 . S
C168 H138 0.931 . S
C168 C165 1.357 . S
C168 C169 1.312 . S
C169 H140 0.930 . S
C169 C164 1.261 . S
C169 C168 1.312 . S
C170 O142 1.214 . S
C170 O150 1.234 . S
C171 H143 0.929 . S
C171 C174 1.391 . S
C171 C176 1.391 . S
C172 H144 0.929 . S
C172 C173 1.390 . S
C172 N175 1.391 . S
C173 H145 0.930 . S
C173 C172 1.390 . S
C173 C174 1.392 . S
C174 H146 0.929 . S
C174 C171 1.391 . S
C174 C173 1.392 . S
N175 Co119 2.257 . S
N175 C172 1.391 . S
N175 C176 1.388 . S
C176 H147 0.930 . S
C176 C171 1.391 . S
C176 N175 1.388 . S
Co177 O179 2.143 . S
Co177 O185 2.074 . S
Co177 O188 2.093 . S
Co177 O201 2.097 . S
Co177 N218 2.151 . S
Co177 N226 2.214 1_556 S
Co178 O179 2.160 . S
Co178 O184 2.058 . S
Co178 O194 2.057 . S
Co178 O209 2.037 . S
Co178 N213 2.145 . S
Co178 N234 2.257 . S
O179 Co177 2.143 . S
O179 Co178 2.160 . S
C180 O181 1.278 . S
C180 O188 1.224 . S
O181 C180 1.278 . S
C182 O183 1.245 . S
C182 O194 1.232 . S
O183 C182 1.245 . S
O184 Co178 2.058 . S
O184 C210 1.269 . S
O185 Co177 2.074 . S
O185 C210 1.257 . S
H186 C211 0.930 . S
H187 C217 0.930 . S
O188 Co177 2.093 . S
O188 C180 1.224 . S
H189 C221 0.929 . S
H190 C223 0.930 . S
H191 C224 0.930 . S
H192 C222 0.929 . S
H193 C225 0.928 . S
O194 Co178 2.057 . S
O194 C182 1.232 . S
H195 C214 0.929 . S
H196 C215 0.929 . S
H197 C227 0.931 . S
H198 C219 0.929 . S
H199 C228 0.930 . S
H200 C220 0.931 . S
O201 Co177 2.097 . S
O201 C229 1.214 . S
H202 C230 0.929 . S
H203 C231 0.929 . S
H204 C232 0.930 . S
H205 C233 0.929 . S
H206 C235 0.930 . S
H207 C212 0.930 . S
H208 C216 0.930 . S
O209 Co178 2.037 . S
O209 C229 1.234 . S
C210 O184 1.269 . S
C210 O185 1.257 . S
C211 H186 0.930 . S
C211 C214 1.388 . S
C211 C216 1.418 . S
C212 H207 0.930 . S
C212 C215 1.404 . S
C212 C216 1.353 . S
N213 Co178 2.145 . S
N213 C214 1.397 . S
N213 C215 1.334 . S
C214 H195 0.929 . S
C214 C211 1.388 . S
C214 N213 1.397 . S
C215 H196 0.929 . S
C215 C212 1.404 . S
C215 N213 1.334 . S
C216 H208 0.930 . S
C216 C211 1.418 . S
C216 C212 1.353 . S
C217 H187 0.930 . S
C217 N218 1.330 . S
C217 C219 1.446 . S
N218 Co177 2.151 . S
N218 C217 1.330 . S
N218 C222 1.418 . S
C219 H198 0.929 . S
C219 C217 1.446 . S
C219 C220 1.332 . S
C220 H200 0.931 . S
C220 C219 1.332 . S
C220 C221 1.267 . S
C221 H189 0.929 . S
C221 C220 1.267 . S
C221 C222 1.251 . S
C222 H192 0.929 . S
C222 N218 1.418 . S
C222 C221 1.251 . S
C223 H190 0.930 . S
C223 C225 1.406 . S
C223 C228 1.261 . S
C224 H191 0.930 . S
C224 N226 1.325 . S
C224 C227 1.357 . S
C225 H193 0.928 . S
C225 C223 1.406 . S
C225 N226 1.261 . S
N226 Co177 2.214 1_554 S
N226 C224 1.325 . S
N226 C225 1.261 . S
C227 H197 0.931 . S
C227 C224 1.357 . S
C227 C228 1.312 . S
C228 H199 0.930 . S
C228 C223 1.261 . S
C228 C227 1.312 . S
C229 O201 1.214 . S
C229 O209 1.234 . S
C230 H202 0.929 . S
C230 C233 1.391 . S
C230 C235 1.391 . S
C231 H203 0.929 . S
C231 C232 1.390 . S
C231 N234 1.391 . S
C232 H204 0.930 . S
C232 C231 1.390 . S
C232 C233 1.392 . S
C233 H205 0.929 . S
C233 C230 1.391 . S
C233 C232 1.392 . S
N234 Co178 2.257 . S
N234 C231 1.391 . S
N234 C235 1.388 . S
C235 H206 0.930 . S
C235 C230 1.391 . S
C235 N234 1.388 . S
H236 C237 0.951 . S
C237 H236 0.951 . S
C237 C243 1.265 . S
H238 C243 0.950 . S
H239 C247 0.949 . S
H240 C248 0.950 . S
H241 C249 0.951 . S
H242 C250 0.951 . S
C243 C237 1.265 . S
C243 H238 0.950 . S
C243 C244 1.478 . S
C244 C243 1.478 . S
C244 C245 1.397 . S
C244 C261 1.394 . S
C245 C244 1.397 . S
C245 C246 1.438 . S
C245 C250 1.429 . S
C246 C245 1.438 . S
C246 C247 1.428 . S
C246 C259 1.394 . S
C247 H239 0.949 . S
C247 C246 1.428 . S
C247 C248 1.345 . S
C248 H240 0.950 . S
C248 C247 1.345 . S
C248 C249 1.424 . S
C249 H241 0.951 . S
C249 C248 1.424 . S
C249 C250 1.347 . S
C250 H242 0.951 . S
C250 C245 1.429 . S
C250 C249 1.347 . S
H251 C252 0.951 . S
C252 H251 0.951 . S
C252 C258 1.265 . S
H253 C258 0.950 . S
H254 C262 0.949 . S
H255 C263 0.950 . S
H256 C264 0.951 . S
H257 C265 0.951 . S
C258 C252 1.265 . S
C258 H253 0.950 . S
C258 C259 1.478 . S
C259 C246 1.394 . S
C259 C258 1.478 . S
C259 C260 1.397 . S
C260 C259 1.397 . S
C260 C261 1.438 . S
C260 C265 1.429 . S
C261 C244 1.394 . S
C261 C260 1.438 . S
C261 C262 1.428 . S
C262 H254 0.949 . S
C262 C261 1.428 . S
C262 C263 1.345 . S
C263 H255 0.950 . S
C263 C262 1.345 . S
C263 C264 1.424 . S
C264 H256 0.951 . S
C264 C263 1.424 . S
C264 C265 1.347 . S
C265 H257 0.951 . S
C265 C260 1.429 . S
C265 C264 1.347 . S
H266 C267 0.951 . S
C267 H266 0.951 . S
C267 C273 1.265 . S
H268 C273 0.950 . S
H269 C277 0.949 . S
H270 C278 0.950 . S
H271 C279 0.951 . S
H272 C280 0.951 . S
C273 C267 1.265 . S
C273 H268 0.950 . S
C273 C274 1.478 . S
C274 C273 1.478 . S
C274 C275 1.397 . S
C274 C291 1.394 . S
C275 C274 1.397 . S
C275 C276 1.438 . S
C275 C280 1.429 . S
C276 C275 1.438 . S
C276 C277 1.428 . S
C276 C289 1.394 . S
C277 H269 0.949 . S
C277 C276 1.428 . S
C277 C278 1.345 . S
C278 H270 0.950 . S
C278 C277 1.345 . S
C278 C279 1.424 . S
C279 H271 0.951 . S
C279 C278 1.424 . S
C279 C280 1.347 . S
C280 H272 0.951 . S
C280 C275 1.429 . S
C280 C279 1.347 . S
H281 C282 0.951 . S
C282 H281 0.951 . S
C282 C288 1.265 . S
H283 C288 0.950 . S
H284 C292 0.949 . S
H285 C293 0.950 . S
H286 C294 0.951 . S
H287 C295 0.951 . S
C288 C282 1.265 . S
C288 H283 0.950 . S
C288 C289 1.478 . S
C289 C276 1.394 . S
C289 C288 1.478 . S
C289 C290 1.397 . S
C290 C289 1.397 . S
C290 C291 1.438 . S
C290 C295 1.429 . S
C291 C274 1.394 . S
C291 C290 1.438 . S
C291 C292 1.428 . S
C292 H284 0.949 . S
C292 C291 1.428 . S
C292 C293 1.345 . S
C293 H285 0.950 . S
C293 C292 1.345 . S
C293 C294 1.424 . S
C294 H286 0.951 . S
C294 C293 1.424 . S
C294 C295 1.347 . S
C295 H287 0.951 . S
C295 C290 1.429 . S
C295 C294 1.347 . S
H296 C297 0.951 1_556 S
C297 H296 0.951 1_554 S
C297 C303 1.265 . S
H298 C303 0.950 . S
H299 C307 0.949 . S
H300 C308 0.950 . S
H301 C309 0.948 1_554 S
H302 C310 0.951 . S
C303 C297 1.265 . S
C303 H298 0.950 . S
C303 C304 1.478 . S
C304 C303 1.478 . S
C304 C305 1.397 1_554 S
C304 C321 1.394 1_554 S
C305 C304 1.397 1_556 S
C305 C306 1.438 . S
C305 C310 1.429 1_556 S
C306 C305 1.438 . S
C306 C307 1.428 . S
C306 C319 1.394 . S
C307 H299 0.949 . S
C307 C306 1.428 . S
C307 C308 1.345 . S
C308 H300 0.950 . S
C308 C307 1.345 . S
C308 C309 1.428 . S
C309 H301 0.948 1_556 S
C309 C308 1.428 . S
C309 C310 1.346 1_556 S
C310 H302 0.951 . S
C310 C305 1.429 1_554 S
C310 C309 1.346 1_554 S
H311 C312 0.951 . S
C312 H311 0.951 . S
C312 C318 1.265 . S
H313 C318 0.950 . S
H314 C322 0.949 1_554 S
H315 C323 0.950 . S
H316 C324 0.951 . S
H317 C325 0.951 . S
C318 C312 1.265 . S
C318 H313 0.950 . S
C318 C319 1.478 . S
C319 C306 1.394 . S
C319 C318 1.478 . S
C319 C320 1.397 . S
C320 C319 1.397 . S
C320 C321 1.438 . S
C320 C325 1.429 . S
C321 C304 1.394 1_556 S
C321 C320 1.438 . S
C321 C322 1.428 . S
C322 H314 0.949 1_556 S
C322 C321 1.428 . S
C322 C323 1.345 . S
C323 H315 0.950 . S
C323 C322 1.345 . S
C323 C324 1.424 . S
C324 H316 0.951 . S
C324 C323 1.424 . S
C324 C325 1.347 . S
C325 H317 0.951 . S
C325 C320 1.429 . S
C325 C324 1.347 . S
H326 C327 0.951 . S
C327 H326 0.951 . S
C327 C333 1.265 . S
H328 C333 0.950 . S
H329 C337 0.949 . S
H330 C338 0.950 . S
H331 C339 0.951 . S
H332 C340 0.951 1_455 S
C333 C327 1.265 . S
C333 H328 0.950 . S
C333 C334 1.478 . S
C334 C333 1.478 . S
C334 C335 1.397 1_455 S
C334 C351 1.394 . S
C335 C334 1.397 1_655 S
C335 C336 1.438 . S
C335 C340 1.429 . S
C336 C335 1.438 . S
C336 C337 1.428 . S
C336 C349 1.394 . S
C337 H329 0.949 . S
C337 C336 1.428 . S
C337 C338 1.345 . S
C338 H330 0.950 . S
C338 C337 1.345 . S
C338 C339 1.424 . S
C339 H331 0.951 . S
C339 C338 1.424 . S
C339 C340 1.347 . S
C340 H332 0.951 1_655 S
C340 C335 1.429 . S
C340 C339 1.347 . S
H341 C342 0.951 . S
C342 H341 0.951 . S
C342 C348 1.265 . S
H343 C348 0.950 . S
H344 C352 0.949 . S
H345 C353 0.950 . S
H346 C354 0.951 . S
H347 C355 0.951 . S
C348 C342 1.265 . S
C348 H343 0.950 . S
C348 C349 1.478 . S
C349 C336 1.394 . S
C349 C348 1.478 . S
C349 C350 1.397 . S
C350 C349 1.397 . S
C350 C351 1.438 1_655 S
C350 C355 1.429 . S
C351 C334 1.394 . S
C351 C350 1.438 1_455 S
C351 C352 1.428 . S
C352 H344 0.949 . S
C352 C351 1.428 . S
C352 C353 1.345 . S
C353 H345 0.950 . S
C353 C352 1.345 . S
C353 C354 1.424 1_455 S
C354 H346 0.951 . S
C354 C353 1.424 1_655 S
C354 C355 1.347 . S
C355 H347 0.951 . S
C355 C350 1.429 . S
C355 C354 1.347 . S
H356 C357 0.951 . S
C357 H356 0.951 . S
C357 C363 1.265 . S
H358 C363 0.950 . S
H359 C367 0.949 . S
H360 C368 0.950 . S
H361 C369 0.951 . S
H362 C370 0.951 1_545 S
C363 C357 1.265 . S
C363 H358 0.950 . S
C363 C364 1.478 . S
C364 C363 1.478 . S
C364 C365 1.397 1_545 S
C364 C381 1.394 1_556 S
C365 C364 1.397 1_565 S
C365 C366 1.438 . S
C365 C370 1.429 . S
C366 C365 1.438 . S
C366 C367 1.428 . S
C366 C379 1.394 1_556 S
C367 H359 0.949 . S
C367 C366 1.428 . S
C367 C368 1.345 . S
C368 H360 0.950 . S
C368 C367 1.345 . S
C368 C369 1.424 . S
C369 H361 0.951 . S
C369 C368 1.424 . S
C369 C370 1.347 . S
C370 H362 0.951 1_565 S
C370 C365 1.429 . S
C370 C369 1.347 . S
H371 C372 0.951 . S
C372 H371 0.951 . S
C372 C378 1.265 . S
H373 C378 0.950 . S
H374 C382 0.949 . S
H375 C383 0.950 . S
H376 C384 0.951 . S
H377 C385 0.951 1_565 S
C378 C372 1.265 . S
C378 H373 0.950 . S
C378 C379 1.478 . S
C379 C366 1.394 1_554 S
C379 C378 1.478 . S
C379 C380 1.397 1_565 S
C380 C379 1.397 1_545 S
C380 C381 1.438 . S
C380 C385 1.429 . S
C381 C364 1.394 1_554 S
C381 C380 1.438 . S
C381 C382 1.428 . S
C382 H374 0.949 . S
C382 C381 1.428 . S
C382 C383 1.345 . S
C383 H375 0.950 . S
C383 C382 1.345 . S
C383 C384 1.424 . S
C384 H376 0.951 . S
C384 C383 1.424 . S
C384 C385 1.347 . S
C385 H377 0.951 1_545 S
C385 C380 1.429 . S
C385 C384 1.347 . S
H386 C387 0.951 . S
C387 H386 0.951 . S
C387 C393 1.265 . S
H388 C393 0.950 . S
H389 C397 0.949 . S
H390 C398 0.950 . S
H391 C399 0.951 . S
H392 C400 0.951 . S
C393 C387 1.265 . S
C393 H388 0.950 . S
C393 C394 1.478 . S
C394 C393 1.478 . S
C394 C395 1.397 . S
C394 C411 1.394 . S
C395 C394 1.397 . S
C395 C396 1.438 . S
C395 C400 1.429 . S
C396 C395 1.438 . S
C396 C397 1.428 . S
C396 C409 1.394 . S
C397 H389 0.949 . S
C397 C396 1.428 . S
C397 C398 1.345 . S
C398 H390 0.950 . S
C398 C397 1.345 . S
C398 C399 1.424 . S
C399 H391 0.951 . S
C399 C398 1.424 . S
C399 C400 1.347 . S
C400 H392 0.951 . S
C400 C395 1.429 . S
C400 C399 1.347 . S
H401 C402 0.951 . S
C402 H401 0.951 . S
C402 C408 1.265 . S
H403 C408 0.950 . S
H404 C412 0.949 . S
H405 C413 0.950 . S
H406 C414 0.951 . S
H407 C415 0.951 . S
C408 C402 1.265 . S
C408 H403 0.950 . S
C408 C409 1.478 . S
C409 C396 1.394 . S
C409 C408 1.478 . S
C409 C410 1.397 . S
C410 C409 1.397 . S
C410 C411 1.438 . S
C410 C415 1.429 . S
C411 C394 1.394 . S
C411 C410 1.438 . S
C411 C412 1.428 . S
C412 H404 0.949 . S
C412 C411 1.428 . S
C412 C413 1.345 . S
C413 H405 0.950 . S
C413 C412 1.345 . S
C413 C414 1.424 . S
C414 H406 0.951 . S
C414 C413 1.424 . S
C414 C415 1.347 . S
C415 H407 0.951 . S
C415 C410 1.429 . S
C415 C414 1.347 . S
H416 C417 0.951 . S
C417 H416 0.951 . S
C417 C423 1.265 . S
H418 C423 0.950 . S
H419 C427 0.949 . S
H420 C428 0.949 . S
H421 C429 0.951 . S
H422 C430 0.951 . S
C423 C417 1.265 . S
C423 H418 0.950 . S
C423 C424 1.478 . S
C424 C423 1.478 . S
C424 C425 1.397 1_554 S
C424 C441 1.394 . S
C425 C424 1.397 1_556 S
C425 C426 1.438 1_455 S
C425 C430 1.429 . S
C426 C425 1.438 1_655 S
C426 C427 1.428 . S
C426 C439 1.394 1_556 S
C427 H419 0.949 . S
C427 C426 1.428 . S
C427 C428 1.345 1_655 S
C428 H420 0.949 . S
C428 C427 1.345 1_455 S
C428 C429 1.424 . S
C429 H421 0.951 . S
C429 C428 1.424 . S
C429 C430 1.347 . S
C430 H422 0.951 . S
C430 C425 1.429 . S
C430 C429 1.347 . S
H431 C432 0.951 . S
C432 H431 0.951 . S
C432 C438 1.265 1_556 S
H433 C438 0.950 . S
H434 C442 0.949 . S
H435 C443 0.950 1_455 S
H436 C444 0.951 . S
H437 C445 0.951 . S
C438 C432 1.265 1_554 S
C438 H433 0.950 . S
C438 C439 1.478 . S
C439 C426 1.394 1_554 S
C439 C438 1.478 . S
C439 C440 1.397 . S
C440 C439 1.397 . S
C440 C441 1.438 1_655 S
C440 C445 1.429 . S
C441 C424 1.394 . S
C441 C440 1.438 1_455 S
C441 C442 1.428 . S
C442 H434 0.949 . S
C442 C441 1.428 . S
C442 C443 1.345 1_455 S
C443 H435 0.950 1_655 S
C443 C442 1.345 1_655 S
C443 C444 1.424 . S
C444 H436 0.951 . S
C444 C443 1.424 . S
C444 C445 1.347 . S
C445 H437 0.951 . S
C445 C440 1.429 . S
C445 C444 1.347 . S
H446 C447 0.951 . S
C447 H446 0.951 . S
C447 C453 1.265 . S
H448 C453 0.950 . S
H449 C457 0.949 . S
H450 C458 0.950 . S
H451 C459 0.951 . S
H452 C460 0.951 . S
C453 C447 1.265 . S
C453 H448 0.950 . S
C453 C454 1.478 . S
C454 C453 1.478 . S
C454 C455 1.397 . S
C454 C471 1.394 . S
C455 C454 1.397 . S
C455 C456 1.438 1_545 S
C455 C460 1.429 . S
C456 C455 1.438 1_565 S
C456 C457 1.428 . S
C456 C469 1.394 . S
C457 H449 0.949 . S
C457 C456 1.428 . S
C457 C458 1.345 1_565 S
C458 H450 0.950 . S
C458 C457 1.345 1_545 S
C458 C459 1.424 . S
C459 H451 0.951 . S
C459 C458 1.424 . S
C459 C460 1.347 . S
C460 H452 0.951 . S
C460 C455 1.429 . S
C460 C459 1.347 . S
H461 C462 0.951 . S
C462 H461 0.951 . S
C462 C468 1.265 . S
H463 C468 0.950 . S
H464 C472 0.949 . S
H465 C473 0.950 . S
H466 C474 0.951 . S
H467 C475 0.951 . S
C468 C462 1.265 . S
C468 H463 0.950 . S
C468 C469 1.478 . S
C469 C456 1.394 . S
C469 C468 1.478 . S
C469 C470 1.397 . S
C470 C469 1.397 . S
C470 C471 1.438 1_565 S
C470 C475 1.429 . S
C471 C454 1.394 . S
C471 C470 1.438 1_545 S
C471 C472 1.428 . S
C472 H464 0.949 . S
C472 C471 1.428 . S
C472 C473 1.345 1_545 S
C473 H465 0.950 . S
C473 C472 1.345 1_565 S
C473 C474 1.424 . S
C474 H466 0.951 . S
C474 C473 1.424 . S
C474 C475 1.347 . S
C475 H467 0.951 . S
C475 C470 1.429 . S
C475 C474 1.347 . S
C237 C5 1.594 . S
C252 C123 1.621 . S
C267 C64 1.621 . S
C282 C182 1.593 . S
C297 C52 1.737 . S
C312 C210 1.717 . S
C327 C121 1.513 . S
C342 C111 1.449 . S
C357 C180 1.349 . S
C372 C3 1.334 . S
C387 C62 1.466 . S
C402 C170 1.472 . S
C417 C33 1.740 . S
C432 C229 1.698 . S
C447 C92 1.949 . S
C462 C151 1.919 . S
