# Generated by pormake.
# Topology wgf, (5)-cn, num edge types: 1
# Building blocks:
#     Node 0, Type 0, BuildingBlock: XOMCOT_clean_sbu_0, # of connection points: 5
#     Node 1, Type 0, BuildingBlock: XOMCOT_clean_sbu_0, # of connection points: 5
#     Node 2, Type 0, BuildingBlock: XOMCOT_clean_sbu_0, # of connection points: 5
#     Node 3, Type 0, BuildingBlock: XOMCOT_clean_sbu_0, # of connection points: 5
#     Node 4, Type 0, BuildingBlock: XOMCOT_clean_sbu_0, # of connection points: 5
#     Node 5, Type 0, BuildingBlock: XOMCOT_clean_sbu_0, # of connection points: 5
#     Node 6, Type 0, BuildingBlock: XOMCOT_clean_sbu_0, # of connection points: 5
#     Node 7, Type 0, BuildingBlock: XOMCOT_clean_sbu_0, # of connection points: 5
#     Node 8, Type 0, BuildingBlock: XOMCOT_clean_sbu_0, # of connection points: 5
#     Node 9, Type 0, BuildingBlock: XOMCOT_clean_sbu_0, # of connection points: 5
#     Node 10, Type 0, BuildingBlock: XOMCOT_clean_sbu_0, # of connection points: 5
#     Node 11, Type 0, BuildingBlock: XOMCOT_clean_sbu_0, # of connection points: 5
#     Node 12, Type 0, BuildingBlock: XOMCOT_clean_sbu_0, # of connection points: 5
#     Node 13, Type 0, BuildingBlock: XOMCOT_clean_sbu_0, # of connection points: 5
#     Node 14, Type 0, BuildingBlock: XOMCOT_clean_sbu_0, # of connection points: 5
#     Node 15, Type 0, BuildingBlock: XOMCOT_clean_sbu_0, # of connection points: 5
#     Node 16, Type 0, BuildingBlock: XOMCOT_clean_sbu_0, # of connection points: 5
#     Node 17, Type 0, BuildingBlock: XOMCOT_clean_sbu_0, # of connection points: 5
#     Node 18, Type 0, BuildingBlock: XOMCOT_clean_sbu_0, # of connection points: 5
#     Node 19, Type 0, BuildingBlock: XOMCOT_clean_sbu_0, # of connection points: 5
#     Node 20, Type 0, BuildingBlock: XOMCOT_clean_sbu_0, # of connection points: 5
#     Node 21, Type 0, BuildingBlock: XOMCOT_clean_sbu_0, # of connection points: 5
#     Node 22, Type 0, BuildingBlock: XOMCOT_clean_sbu_0, # of connection points: 5
#     Node 23, Type 0, BuildingBlock: XOMCOT_clean_sbu_0, # of connection points: 5
#     Node 24, Type 0, BuildingBlock: XOMCOT_clean_sbu_0, # of connection points: 5
#     Node 25, Type 0, BuildingBlock: XOMCOT_clean_sbu_0, # of connection points: 5
#     Node 26, Type 0, BuildingBlock: XOMCOT_clean_sbu_0, # of connection points: 5
#     Node 27, Type 0, BuildingBlock: XOMCOT_clean_sbu_0, # of connection points: 5
#     Node 28, Type 0, BuildingBlock: XOMCOT_clean_sbu_0, # of connection points: 5
#     Node 29, Type 0, BuildingBlock: XOMCOT_clean_sbu_0, # of connection points: 5
#     Node 30, Type 0, BuildingBlock: XOMCOT_clean_sbu_0, # of connection points: 5
#     Node 31, Type 0, BuildingBlock: XOMCOT_clean_sbu_0, # of connection points: 5
#     Edge 32, Type (0, 0), None
#     Edge 33, Type (0, 0), None
#     Edge 34, Type (0, 0), None
#     Edge 35, Type (0, 0), None
#     Edge 36, Type (0, 0), None
#     Edge 37, Type (0, 0), None
#     Edge 38, Type (0, 0), None
#     Edge 39, Type (0, 0), None
#     Edge 40, Type (0, 0), None
#     Edge 41, Type (0, 0), None
#     Edge 42, Type (0, 0), None
#     Edge 43, Type (0, 0), None
#     Edge 44, Type (0, 0), None
#     Edge 45, Type (0, 0), None
#     Edge 46, Type (0, 0), None
#     Edge 47, Type (0, 0), None
#     Edge 48, Type (0, 0), None
#     Edge 49, Type (0, 0), None
#     Edge 50, Type (0, 0), None
#     Edge 51, Type (0, 0), None
#     Edge 52, Type (0, 0), None
#     Edge 53, Type (0, 0), None
#     Edge 54, Type (0, 0), None
#     Edge 55, Type (0, 0), None
#     Edge 56, Type (0, 0), None
#     Edge 57, Type (0, 0), None
#     Edge 58, Type (0, 0), None
#     Edge 59, Type (0, 0), None
#     Edge 60, Type (0, 0), None
#     Edge 61, Type (0, 0), None
#     Edge 62, Type (0, 0), None
#     Edge 63, Type (0, 0), None
#     Edge 64, Type (0, 0), None
#     Edge 65, Type (0, 0), None
#     Edge 66, Type (0, 0), None
#     Edge 67, Type (0, 0), None
#     Edge 68, Type (0, 0), None
#     Edge 69, Type (0, 0), None
#     Edge 70, Type (0, 0), None
#     Edge 71, Type (0, 0), None
#     Edge 72, Type (0, 0), None
#     Edge 73, Type (0, 0), None
#     Edge 74, Type (0, 0), None
#     Edge 75, Type (0, 0), None
#     Edge 76, Type (0, 0), None
#     Edge 77, Type (0, 0), None
#     Edge 78, Type (0, 0), None
#     Edge 79, Type (0, 0), None
#     Edge 80, Type (0, 0), None
#     Edge 81, Type (0, 0), None
#     Edge 82, Type (0, 0), None
#     Edge 83, Type (0, 0), None
#     Edge 84, Type (0, 0), None
#     Edge 85, Type (0, 0), None
#     Edge 86, Type (0, 0), None
#     Edge 87, Type (0, 0), None
#     Edge 88, Type (0, 0), None
#     Edge 89, Type (0, 0), None
#     Edge 90, Type (0, 0), None
#     Edge 91, Type (0, 0), None
#     Edge 92, Type (0, 0), None
#     Edge 93, Type (0, 0), None
#     Edge 94, Type (0, 0), None
#     Edge 95, Type (0, 0), None
#     Edge 96, Type (0, 0), None
#     Edge 97, Type (0, 0), None
#     Edge 98, Type (0, 0), None
#     Edge 99, Type (0, 0), None
#     Edge 100, Type (0, 0), None
#     Edge 101, Type (0, 0), None
#     Edge 102, Type (0, 0), None
#     Edge 103, Type (0, 0), None
#     Edge 104, Type (0, 0), None
#     Edge 105, Type (0, 0), None
#     Edge 106, Type (0, 0), None
#     Edge 107, Type (0, 0), None
#     Edge 108, Type (0, 0), None
#     Edge 109, Type (0, 0), None
#     Edge 110, Type (0, 0), None
#     Edge 111, Type (0, 0), None
# Relax obj value: 0.481
# Max RMSD: 0.240
# Mean RMSD: 0.231
data_MOF--net-wgf--node1-XOMCOT_clean_sbu_0--edge1-none
_symmetry_space_group_name_H-M    P1
_symmetry_Int_Tables_number       1
_symmetry_cell_setting            triclinic
loop_
_symmetry_equiv_pos_as_xyz
'x, y, z'
_cell_length_a     46.443061
_cell_length_b     46.438171
_cell_length_c     11.514844
_cell_angle_alpha  90.023933
_cell_angle_beta   89.906127
_cell_angle_gamma 89.913785
loop_
_atom_site_label
_atom_site_type_symbol
_atom_site_fract_x
_atom_site_fract_y
_atom_site_fract_z
_atom_type_partial_charge
Co0 Co 0.05981 0.05739 0.12145 0.0
C1 C 0.03842 0.10064 0.27445 0.0
C2 C 1.0078 0.09342 0.13948 0.0
C3 C 0.99822 0.11563 0.20839 0.0
N4 N 0.03259 0.08351 0.18483 0.0
N5 N 1.0169 0.11912 0.29735 0.0
H6 H 0.05664 0.09726 0.33135 0.0
H7 H 0.99677 0.08468 0.06488 0.0
C8 C 0.03665 0.05741 0.85235 0.0
O9 O 0.06144 0.06231 0.8022 0.0
N10 N 0.08823 0.03263 0.05139 0.0
C11 C 0.09435 1.00465 0.06675 0.0
C12 C 0.11358 0.99668 0.98104 0.0
C13 C 0.10484 0.04121 0.96229 0.0
N14 N 0.11884 1.01946 0.91075 0.0
C15 C 0.11218 0.08526 0.15628 0.0
C16 C 0.09522 0.14183 0.13428 0.0
C17 C 0.12044 0.13571 0.19849 0.0
C18 C 0.12881 0.1069 0.20537 0.0
C19 C 0.07847 0.11892 0.08642 0.0
N20 N 0.08641 0.09064 0.10236 0.0
H21 H 0.11903 0.06349 0.17377 0.0
H22 H 0.05813 0.12391 1.04542 0.0
H23 H 0.08382 0.99047 0.12785 0.0
H24 H 0.10333 0.06236 0.92378 0.0
O25 O 0.07509 0.04824 0.27815 0.0
O26 O 0.04033 0.02393 0.20038 0.0
O27 O 0.0349 0.05793 0.96538 0.0
C28 C 0.05693 0.02759 0.29064 0.0
H29 H 0.97687 0.12498 0.20493 0.0
H30 H 0.11916 0.97466 0.95981 0.0
H31 H 0.08839 0.16391 0.12212 0.0
H32 H 0.14834 0.10087 0.25079 0.0
Co33 Co 0.23709 0.81846 0.37171 0.0
C34 C 0.19482 0.79692 0.52478 0.0
C35 C 0.19853 0.76844 0.38106 0.0
C36 C 0.17536 0.76007 0.44664 0.0
N37 N 0.21153 0.79079 0.4344 0.0
N38 N 0.17352 0.77771 0.53927 0.0
H39 H 0.20006 0.81352 0.58721 0.0
H40 H 0.20485 0.75876 0.30001 0.0
C41 C 0.23004 0.79701 0.09835 0.0
O42 O 0.227 0.82221 1.04841 0.0
N43 N 0.26137 0.84737 0.3016 0.0
C44 C 0.25815 0.87645 0.30141 0.0
C45 C 0.26634 0.88715 0.19517 0.0
C46 C 0.27384 0.84149 0.20014 0.0
N47 N 0.27522 0.86473 0.13131 0.0
C48 C 0.20514 0.86544 0.46093 0.0
C49 C 0.15218 0.85709 0.36185 0.0
C50 C 0.15448 0.87686 0.45551 0.0
C51 C 0.1816 0.8806 0.5031 0.0
C52 C 0.17687 0.84106 0.32346 0.0
N53 N 0.20341 0.84549 0.37288 0.0
H54 H 0.22488 0.86969 0.50573 0.0
H55 H 0.17437 0.82461 0.25772 0.0
H56 H 0.24841 0.88944 0.36774 0.0
H57 H 0.27811 0.81987 0.17207 0.0
O58 O 0.25092 0.82971 0.52915 0.0
O59 O 0.27227 0.79695 0.42855 0.0
O60 O 0.23188 0.7957 0.21116 0.0
C61 C 0.27171 0.81158 0.52505 0.0
H62 H 0.16309 0.74047 0.43537 0.0
H63 H 0.26351 0.90897 0.16427 0.0
H64 H 0.13167 0.85404 0.31912 0.0
H65 H 0.18493 0.89603 0.57253 0.0
Co66 Co 0.4834 0.98652 0.60929 0.0
C67 C 0.50389 0.94436 0.76546 0.0
C68 C 0.53383 0.94863 0.62618 0.0
C69 C 0.54153 0.92519 0.69196 0.0
N70 N 0.51071 0.96117 0.67603 0.0
N71 N 0.52295 0.923 0.78192 0.0
H72 H 0.48612 0.94874 0.82364 0.0
H73 H 0.54446 0.95563 0.54782 0.0
C74 C 0.5119 0.97363 0.3598 0.0
O75 O 0.49723 0.94966 0.3499 0.0
N76 N 0.45539 1.0098 0.53281 0.0
C77 C 0.43888 0.03249 0.56301 0.0
C78 C 0.4204 0.03812 0.47108 0.0
C79 C 0.44623 1.00159 0.42791 0.0
N80 N 0.42562 1.01859 0.38635 0.0
C81 C 0.43131 0.95747 0.63231 0.0
C82 C 0.45005 0.90123 0.62233 0.0
C83 C 0.42407 0.90714 0.68178 0.0
C84 C 0.41496 0.93584 0.68322 0.0
C85 C 0.46669 0.9242 0.57418 0.0
N86 N 0.45793 0.95246 0.5847 0.0
H87 H 0.42356 0.97908 0.64563 0.0
H88 H 0.48751 0.91921 0.5375 0.0
H89 H 0.44055 0.04444 0.64326 0.0
H90 H 0.45538 0.98403 0.37914 0.0
O91 O 0.46613 0.995 0.76461 0.0
O92 O 0.50048 0.02067 0.69223 0.0
O93 O 0.50878 0.98845 0.4546 0.0
C94 C 0.48332 1.01635 0.78029 0.0
H95 H 0.56132 0.91304 0.68333 0.0
H96 H 0.40655 0.05675 0.46238 0.0
H97 H 0.45755 0.87925 0.61386 0.0
H98 H 0.39489 0.94181 0.72502 0.0
Co99 Co 0.30394 0.23207 0.90687 0.0
C100 C 0.34963 0.25089 0.0494 0.0
C101 C 0.34253 0.28226 0.91757 0.0
C102 C 0.36651 0.28988 0.98031 0.0
N103 N 0.3313 0.25841 0.96598 0.0
N104 N 0.36991 0.2709 0.06845 0.0
H105 H 0.34557 0.23307 0.10761 0.0
H106 H 0.33374 0.29388 0.84453 0.0
C107 C 0.31006 0.25279 0.63373 0.0
O108 O 0.31578 0.22722 0.59091 0.0
N109 N 0.27769 0.20411 0.84305 0.0
C110 C 0.27811 0.17509 0.8569 0.0
C111 C 0.27159 0.1621 0.75279 0.0
C112 C 0.26776 0.20799 0.73613 0.0
N113 N 0.26612 0.18326 0.67694 0.0
C114 C 0.33705 0.18392 0.9762 0.0
C115 C 0.38728 0.19329 0.85722 0.0
C116 C 0.3873 0.17331 0.95036 0.0
C117 C 0.36154 0.16885 1.00778 0.0
C118 C 0.36187 0.20943 0.83085 0.0
N119 N 0.33676 0.20463 0.89078 0.0
H120 H 0.31884 0.1797 1.03022 0.0
H121 H 0.36278 0.22635 0.76647 0.0
H122 H 0.28422 0.16361 0.934 0.0
H123 H 0.26418 0.22886 0.69956 0.0
O124 O 0.29326 0.21944 0.06593 0.0
O125 O 0.27032 0.25342 0.97838 0.0
O126 O 0.30699 0.25561 0.74602 0.0
C127 C 0.2726 0.23767 0.07172 0.0
H128 H 0.37745 0.31039 0.97414 0.0
H129 H 0.27261 0.13934 0.73287 0.0
H130 H 0.40666 0.19664 0.80669 0.0
H131 H 0.36003 0.15301 0.07678 0.0
Co132 Co 0.06762 0.97617 0.55543 0.0
C133 C 0.05383 0.93074 0.39926 0.0
C134 C 1.01909 0.93632 0.51974 0.0
C135 C 1.0126 0.91405 0.44561 0.0
N136 N 0.04446 0.9474 0.48605 0.0
N137 N 0.03426 0.91115 0.3676 0.0
H138 H 0.07302 0.93537 0.34922 0.0
H139 H 1.00566 0.94454 0.589 0.0
C140 C 0.04548 0.96426 0.82275 0.0
O141 O 0.07075 0.95669 0.8633 0.0
N142 N 0.09255 1.0044 0.62896 0.0
C143 C 0.12013 1.01198 0.60329 0.0
C144 C 0.13457 1.01904 0.7048 0.0
C145 C 0.09022 1.00986 0.74209 0.0
N146 N 0.11532 1.01664 0.79068 0.0
C147 C 0.12045 0.94953 0.49891 0.0
C148 C 0.10975 0.89433 0.57241 0.0
C149 C 0.1321 0.8988 0.49047 0.0
C150 C 0.13736 0.92706 0.45734 0.0
C151 C 0.09239 0.91799 0.61121 0.0
N152 N 0.09749 0.94552 0.57225 0.0
H153 H 0.12442 0.96974 0.45835 0.0
H154 H 0.07379 0.91379 0.6652 0.0
H155 H 0.12966 1.01199 0.51785 0.0
H156 H 0.0706 1.00917 0.79033 0.0
O157 O 0.08055 0.98905 0.39898 0.0
O158 O 0.04366 1.00773 0.4858 0.0
O159 O 0.04296 0.97012 0.71214 0.0
C160 C 0.05948 1.00703 0.39245 0.0
H161 H 0.99183 0.90361 0.4393 0.0
H162 H 0.15699 0.02483 0.71485 0.0
H163 H 0.10548 0.87287 0.60476 0.0
H164 H 0.1547 0.93194 0.39728 0.0
Co165 Co 0.32511 0.81922 0.78492 0.0
C166 C 0.37314 0.80091 0.6458 0.0
C167 C 0.3579 0.7657 0.74893 0.0
C168 C 0.37889 0.75595 0.67402 0.0
N169 N 0.35368 0.79369 0.72633 0.0
N170 N 0.3869 0.77782 0.603 0.0
H171 H 0.37229 0.82122 0.59991 0.0
H172 H 0.34479 0.75278 0.8065 0.0
C173 C 0.32809 0.79909 0.0602 0.0
O174 O 0.3314 0.82511 0.10248 0.0
N175 N 0.29681 0.8459 0.84807 0.0
C176 C 0.29488 0.87504 0.83911 0.0
C177 C 0.28405 0.88618 0.94065 0.0
C178 C 0.28385 0.83999 0.94856 0.0
N179 N 0.27824 0.86386 1.01019 0.0
C180 C 0.35308 0.86989 0.71497 0.0
C181 C 0.40676 0.86356 0.80992 0.0
C182 C 0.40266 0.88479 0.72263 0.0
C183 C 0.3752 0.88727 0.67704 0.0
C184 C 0.38322 0.84546 0.84546 0.0
N185 N 0.35629 0.84878 0.79745 0.0
H186 H 0.33391 0.87234 0.66539 0.0
H187 H 0.3871 0.82801 0.90564 0.0
H188 H 0.30172 0.88832 0.76825 0.0
H189 H 0.28103 0.81842 0.98018 0.0
O190 O 0.31403 0.83031 0.62357 0.0
O191 O 0.29305 0.79604 0.71592 0.0
O192 O 0.32823 0.79573 0.94712 0.0
C193 C 0.29444 0.81099 0.62022 0.0
H194 H 0.38316 0.73343 0.65658 0.0
H195 H 0.28277 0.90868 0.96452 0.0
H196 H 0.42775 0.86078 0.84912 0.0
H197 H 0.37063 0.90263 0.6085 0.0
Co198 Co 0.46929 0.06904 1.04139 0.0
C199 C 0.49176 0.11553 0.90467 0.0
C200 C 0.52507 0.09861 1.01311 0.0
C201 C 0.5365 0.11949 0.94176 0.0
N202 N 0.49729 0.09535 0.98421 0.0
N203 N 0.51561 0.12917 0.86967 0.0
H204 H 0.47209 0.11595 0.85474 0.0
H205 H 0.53662 0.08544 0.07491 0.0
C206 C 0.48577 0.07248 0.31714 0.0
O207 O 0.45934 0.07418 0.35583 0.0
N208 N 0.43995 0.04365 0.10511 0.0
C209 C 0.4112 0.04876 0.11432 0.0
C210 C 0.40087 0.03685 0.21523 0.0
C211 C 0.44582 0.02652 0.19566 0.0
N212 N 0.42288 0.02341 0.26668 0.0
C213 C 0.42301 0.10157 0.95231 0.0
C214 C 0.42882 0.15226 0.07204 0.0
C215 C 0.41041 0.15158 0.97386 0.0
C216 C 0.40788 0.12564 0.91531 0.0
C217 C 0.44522 0.12743 0.10354 0.0
N218 N 0.442 0.1021 1.04382 0.0
H219 H 0.41915 0.0822 0.90373 0.0
H220 H 0.46077 0.12878 0.17318 0.0
H221 H 0.39847 0.06279 0.06117 0.0
H222 H 0.46761 0.02104 0.22049 0.0
O223 O 0.46008 0.05688 0.87926 0.0
O224 O 0.4919 0.03497 0.98259 0.0
O225 O 0.49032 0.07325 0.20544 0.0
C226 C 0.47923 0.03692 0.88214 0.0
H227 H 0.55928 0.12349 0.93003 0.0
H228 H 0.37994 0.04056 0.25399 0.0
H229 H 0.43046 0.17167 0.12368 0.0
H230 H 0.39291 0.12343 0.84367 0.0
Co231 Co 0.2182 0.22293 0.32392 0.0
C232 C 0.17126 0.24048 0.18201 0.0
C233 C 0.18287 0.27513 0.2953 0.0
C234 C 0.16103 0.28407 0.22316 0.0
N235 N 0.18991 0.24818 0.26422 0.0
N236 N 0.15466 0.26244 0.14853 0.0
H237 H 0.17358 0.221 0.13132 0.0
H238 H 0.19397 0.28792 0.3596 0.0
C239 C 0.21142 0.2406 0.59989 0.0
O240 O 0.20988 0.21427 0.64058 0.0
N241 N 0.24602 0.19626 0.38864 0.0
C242 C 0.24548 0.167 0.39225 0.0
C243 C 0.25637 0.15774 0.49637 0.0
C244 C 0.25991 0.20379 0.48502 0.0
N245 N 0.26426 0.18119 0.55574 0.0
C246 C 0.19135 0.17293 0.23952 0.0
C247 C 0.1372 0.17771 0.33349 0.0
C248 C 0.14169 0.15782 0.24161 0.0
C249 C 0.16939 0.15587 0.19687 0.0
C250 C 0.16046 0.19532 0.37412 0.0
N251 N 0.18752 0.19284 0.32644 0.0
H252 H 0.21144 0.17083 0.19421 0.0
H253 H 0.15629 0.21185 0.43822 0.0
H254 H 0.23567 0.15261 0.33137 0.0
H255 H 0.26247 0.22598 0.50996 0.0
O256 O 0.23163 0.21418 0.16324 0.0
O257 O 0.2505 0.24793 0.26614 0.0
O258 O 0.21199 0.24446 0.4875 0.0
C259 C 0.25011 0.23471 0.16658 0.0
H260 H 0.1539 0.30614 0.21352 0.0
H261 H 0.25537 0.13606 0.53057 0.0
H262 H 0.11611 0.17976 0.37272 0.0
H263 H 0.17427 0.14102 0.12677 0.0
Co264 Co 0.98392 0.962 0.06117 0.0
C265 C 0.93745 0.99383 0.96391 0.0
C266 C 0.96613 0.02239 0.05127 0.0
C267 C 0.94159 0.03707 1.02009 0.0
N268 N 0.96302 0.9951 1.01622 0.0
N269 N 0.92483 0.01967 0.95291 0.0
H270 H 0.9303 0.97515 0.91693 0.0
H271 H 0.98422 0.03063 0.09997 0.0
C272 C 0.96574 0.99803 0.29841 0.0
O273 O 0.94139 1.00724 0.25441 0.0
N274 N 1.00412 0.92787 0.10864 0.0
C275 C 0.99445 0.90056 0.12226 0.0
C276 C 1.00976 0.88766 0.20966 0.0
C277 C 0.02623 0.93022 0.18075 0.0
N278 N 0.02884 0.90696 0.24956 0.0
C279 C 0.94596 0.92243 0.95131 0.0
C280 C 0.90029 0.92075 0.10245 0.0
C281 C 0.89859 0.905 0.9971 0.0
C282 C 0.92189 0.90639 0.92236 0.0
C283 C 0.9251 0.93786 0.12751 0.0
N284 N 0.94787 0.93852 0.05161 0.0
H285 H 0.96362 0.92028 0.8922 0.0
H286 H 0.926 0.95014 0.20715 0.0
H287 H 0.97514 0.89148 0.08628 0.0
H288 H 0.03528 0.95106 0.20174 0.0
O289 O 0.99634 0.95468 0.8958 0.0
O290 O 0.02233 0.97929 1.01291 0.0
O291 O 0.98073 0.97793 0.24138 0.0
C292 C 0.02042 0.96762 0.90989 0.0
H293 H 0.93885 0.06014 1.02848 0.0
H294 H 1.0037 0.86807 0.25431 0.0
H295 H 0.88292 0.91955 0.16505 0.0
H296 H 0.9222 0.89379 0.84302 0.0
Co297 Co 0.81608 0.22763 0.80058 0.0
C298 C 0.77587 0.18167 0.74805 0.0
C299 C 0.75443 0.22174 0.76939 0.0
C300 C 0.73497 0.20032 0.7467 0.0
N301 N 0.78061 0.21 0.76273 0.0
N302 N 0.74933 0.17625 0.71005 0.0
H303 H 0.79187 0.16497 0.74905 0.0
H304 H 0.74997 0.24374 0.79301 0.0
C305 C 0.77803 0.21397 1.03562 0.0
O306 O 0.76278 0.19429 0.98275 0.0
N307 N 0.85186 0.24481 0.84298 0.0
C308 C 0.87864 0.23345 0.84706 0.0
C309 C 0.89277 0.24537 0.94062 0.0
C310 C 0.85129 0.2653 0.92258 0.0
N311 N 0.87505 0.26501 0.98867 0.0
C312 C 0.83938 0.1806 0.67421 0.0
C313 C 0.86981 0.15262 0.84451 0.0
C314 C 0.87379 0.14397 0.72735 0.0
C315 C 0.85729 0.15774 0.64348 0.0
C316 C 0.85018 0.17516 0.87313 0.0
N317 N 0.83596 0.18972 0.7871 0.0
H318 H 0.82771 0.19078 0.60478 0.0
H319 H 0.84832 0.18238 0.96218 0.0
H320 H 0.88615 0.21528 0.79684 0.0
H321 H 0.8312 0.2752 0.9491 0.0
O322 O 0.8243 0.23952 0.63501 0.0
O323 O 0.80212 0.26744 0.75421 0.0
O324 O 0.80096 0.22522 0.98204 0.0
C325 C 0.81333 0.26467 0.65049 0.0
H326 H 0.71209 0.20398 0.73688 0.0
H327 H 0.9124 0.2374 0.97971 0.0
H328 H 0.88241 0.1427 0.91269 0.0
H329 H 0.85948 0.15205 0.55259 0.0
Co330 Co 0.55003 0.0698 0.54549 0.0
C331 C 0.58413 0.03504 0.40963 0.0
C332 C 0.57191 1.01094 0.55589 0.0
C333 C 0.59861 1.00139 0.51981 0.0
N334 N 0.56404 0.03365 0.49066 0.0
N335 N 0.60699 1.01802 0.43002 0.0
H336 H 0.58072 0.04666 0.33004 0.0
H337 H 0.55953 1.0024 0.62723 0.0
C338 C 0.57364 0.03752 0.78803 0.0
O339 O 0.59977 0.03309 0.74816 0.0
N340 N 0.53641 0.10617 0.59962 0.0
C341 C 0.54962 0.13214 0.60103 0.0
C342 C 0.54022 0.14708 0.69729 0.0
C343 C 0.51761 0.10678 0.68571 0.0
N344 N 0.52031 0.1307 0.75017 0.0
C345 C 0.59492 0.09663 0.41247 0.0
C346 C 0.63023 0.11649 0.58463 0.0
C347 C 0.63587 0.12478 0.46822 0.0
C348 C 0.61832 0.11356 0.38285 0.0
C349 C 0.60702 0.09734 0.6108 0.0
N350 N 0.58907 0.08781 0.52444 0.0
H351 H 0.5809 0.09211 0.34126 0.0
H352 H 0.60217 0.09232 0.70037 0.0
H353 H 0.56736 0.13852 0.54618 0.0
H354 H 0.50685 0.08744 0.71525 0.0
O355 O 0.53561 0.08031 0.38601 0.0
O356 O 0.50876 0.05834 0.50888 0.0
O357 O 0.55535 0.0533 0.72509 0.0
C358 C 0.51055 0.06988 0.40557 0.0
H359 H 0.60986 0.98243 0.55042 0.0
H360 H 0.54983 0.16628 0.7336 0.0
H361 H 0.64291 0.12543 0.65465 0.0
H362 H 0.62107 0.11997 0.29293 0.0
Co363 Co 0.71505 0.79971 0.34139 0.0
C364 C 0.74665 0.84521 0.23922 0.0
C365 C 0.77525 0.81909 0.33858 0.0
C366 C 0.78914 0.84403 0.30632 0.0
N367 N 0.74831 0.82056 0.29779 0.0
N368 N 0.77174 0.85945 0.2341 0.0
H369 H 0.72842 0.85041 0.18518 0.0
H370 H 0.78379 0.80182 0.39136 0.0
C371 C 0.74943 0.81781 0.58338 0.0
O372 O 0.75888 0.84231 0.54171 0.0
N373 N 0.68062 0.77946 0.38815 0.0
C374 C 0.65357 0.78951 0.40733 0.0
C375 C 0.64058 0.77295 0.49031 0.0
C376 C 0.68277 0.75627 0.45528 0.0
N377 N 0.65977 0.75321 0.52578 0.0
C378 C 0.67372 0.83394 0.22927 0.0
C379 C 0.67948 0.88656 0.33529 0.0
C380 C 0.66222 0.88448 0.234 0.0
C381 C 0.65984 0.85759 0.18254 0.0
C382 C 0.69424 0.86171 0.37906 0.0
N383 N 0.69138 0.83552 0.32478 0.0
H384 H 0.66884 0.81368 0.18884 0.0
H385 H 0.70837 0.86378 0.45304 0.0
H386 H 0.64483 0.80992 0.38102 0.0
H387 H 0.70351 0.74656 0.47285 0.0
O388 O 0.70894 0.78716 0.17458 0.0
O389 O 0.73278 0.76143 0.29517 0.0
O390 O 0.72979 0.80302 0.52334 0.0
C391 C 0.72207 0.76322 0.19047 0.0
H392 H 0.81194 0.8479 0.31787 0.0
H393 H 0.62134 0.77891 0.53788 0.0
H394 H 0.68134 0.90692 0.38039 0.0
H395 H 0.6461 0.85443 0.10754 0.0
Co396 Co 0.97447 0.05938 0.62049 0.0
C397 C 0.93391 0.04687 0.78951 0.0
C398 C 0.93263 1.01233 0.66895 0.0
C399 C 0.91235 1.0081 0.75498 0.0
N400 N 0.94763 0.03587 0.69807 0.0
N401 N 0.91629 0.02803 0.84042 0.0
H402 H 0.94029 0.06687 0.82979 0.0
H403 H 0.93629 0.99894 0.59376 0.0
C404 C 0.97439 1.01105 0.41907 0.0
O405 O 0.98933 0.99462 0.48892 0.0
N406 N 0.99865 0.08618 0.54393 0.0
C407 C 0.02051 0.10261 0.58281 0.0
C408 C 0.02589 0.12352 0.50122 0.0
C409 C 0.98993 0.09853 0.44594 0.0
N410 N 1.00733 0.11999 0.41204 0.0
C411 C 0.94822 0.11302 0.6711 0.0
C412 C 0.8922 0.09993 0.61452 0.0
C413 C 0.89731 0.12382 0.68798 0.0
C414 C 0.92592 0.13053 0.71261 0.0
C415 C 0.91535 0.08219 0.57705 0.0
N416 N 0.94304 0.08824 0.60962 0.0
H417 H 0.96985 0.11841 0.69711 0.0
H418 H 0.9108 0.06262 0.52961 0.0
H419 H 0.03205 0.0998 0.66317 0.0
H420 H 0.97301 0.08956 0.39249 0.0
O421 O 0.98981 0.0734 0.774 0.0
O422 O 1.00911 0.0379 0.68121 0.0
O423 O 0.96589 0.03664 0.45807 0.0
C424 C 1.01025 0.05461 0.7727 0.0
H425 H 0.89972 0.98866 0.76463 0.0
H426 H 0.04467 0.1373 0.49915 0.0
H427 H 0.8704 0.09442 0.58983 0.0
H428 H 0.93114 0.14932 0.76423 0.0
Co429 Co 0.71931 0.22486 0.36324 0.0
C430 C 0.72859 0.18208 0.52712 0.0
C431 C 0.76771 0.18553 0.43121 0.0
C432 C 0.77087 0.16624 0.52148 0.0
N433 N 0.74137 0.19679 0.44182 0.0
N434 N 0.7472 0.1675 0.59234 0.0
H435 H 0.70713 0.18707 0.55686 0.0
H436 H 0.7838 0.19178 0.36842 0.0
C437 C 0.76731 0.22214 0.16009 0.0
O438 O 0.78518 0.23569 0.2285 0.0
N439 N 0.69362 0.25051 0.28753 0.0
C440 C 0.67827 0.27307 0.32792 0.0
C441 C 0.65824 0.28042 0.24549 0.0
C442 C 0.68131 0.24331 0.18747 0.0
N443 N 0.66105 0.26226 0.15452 0.0
C444 C 0.665 0.19963 0.41024 0.0
C445 C 0.67908 0.14361 0.35468 0.0
C446 C 0.65593 0.14846 0.43208 0.0
C447 C 0.64839 0.17704 0.45509 0.0
C448 C 0.6958 0.16697 0.31351 0.0
N449 N 0.68962 0.19457 0.34752 0.0
H450 H 0.65957 0.22128 0.43663 0.0
H451 H 0.7152 0.16264 0.26435 0.0
H452 H 0.68126 0.28386 0.40983 0.0
H453 H 0.6896 0.22636 0.13213 0.0
O454 O 0.70586 0.24056 0.5172 0.0
O455 O 0.74227 0.25826 0.42447 0.0
O456 O 0.74143 0.21549 0.20085 0.0
C457 C 0.7256 0.26016 0.51595 0.0
H458 H 0.79109 0.15621 0.54456 0.0
H459 H 0.64563 0.30004 0.24479 0.0
H460 H 0.68469 0.12188 0.32906 0.0
H461 H 0.6297 0.18196 0.50799 0.0
Co462 Co 0.57013 0.97505 0.10882 0.0
C463 C 0.61119 0.98752 0.28051 0.0
C464 C 0.61191 0.02178 0.15767 0.0
C465 C 0.62941 0.02827 0.25087 0.0
N466 N 0.59849 0.99713 0.1843 0.0
N467 N 0.62406 1.00889 0.3369 0.0
H468 H 0.60455 0.96792 0.32355 0.0
H469 H 0.6074 0.03523 0.08334 0.0
C470 C 0.56572 0.02268 0.90659 0.0
O471 O 0.54701 0.03586 0.97259 0.0
N472 N 0.54416 0.9501 1.03162 0.0
C473 C 0.52004 0.93656 0.06626 0.0
C474 C 0.51301 0.91657 0.98313 0.0
C475 C 0.55215 0.93709 0.93383 0.0
N476 N 0.53229 0.91851 0.89529 0.0
C477 C 0.59264 0.91958 0.14205 0.0
C478 C 0.65053 0.93205 0.12744 0.0
C479 C 0.64197 0.90729 0.18964 0.0
C480 C 0.61259 0.90102 0.19216 0.0
C481 C 0.62941 0.9507 0.0783 0.0
N482 N 0.60052 0.94514 0.09179 0.0
H483 H 0.57028 0.91444 0.15575 0.0
H484 H 0.63626 0.97074 1.03925 0.0
H485 H 0.50763 0.94135 0.14257 0.0
H486 H 0.57023 0.94448 0.88235 0.0
O487 O 0.55623 0.95933 0.26074 0.0
O488 O 0.53667 0.99677 0.18505 0.0
O489 O 0.57774 0.9988 0.94768 0.0
C490 C 0.53657 0.9786 0.27213 0.0
H491 H 0.63827 0.0495 0.26586 0.0
H492 H 0.49247 0.90567 0.97719 0.0
H493 H 0.67316 0.93712 0.1181 0.0
H494 H 0.60483 0.88172 0.23491 0.0
Co495 Co 0.80969 0.80772 0.90875 0.0
C496 C 0.79929 0.84988 0.07392 0.0
C497 C 0.76496 0.85233 0.95306 0.0
C498 C 0.7617 0.87329 1.03724 0.0
N499 N 0.78765 0.83622 0.98392 0.0
N500 N 0.78113 0.86843 0.12369 0.0
H501 H 0.81881 0.84253 0.11537 0.0
H502 H 0.75142 0.84889 0.87826 0.0
C503 C 0.76161 0.80879 0.70519 0.0
O504 O 0.74442 0.7945 0.77439 0.0
N505 N 0.83503 0.78166 0.83418 0.0
C506 C 0.85025 0.75915 0.87552 0.0
C507 C 0.87235 0.75362 0.79914 0.0
C508 C 0.84891 0.7902 0.73928 0.0
N509 N 0.87078 0.77269 0.71063 0.0
C510 C 0.8643 0.83217 0.95356 0.0
C511 C 0.85229 0.88858 0.89682 0.0
C512 C 0.87615 0.88287 0.9691 0.0
C513 C 0.88241 0.85406 0.99314 0.0
C514 C 0.83413 0.86578 0.85983 0.0
N515 N 0.8396 0.83793 0.89288 0.0
H516 H 0.86925 0.81043 0.97989 0.0
H517 H 0.81467 0.87076 0.81237 0.0
H518 H 0.84588 0.74736 0.95435 0.0
H519 H 0.84124 0.80762 0.68503 0.0
O520 O 0.82384 0.79245 0.06319 0.0
O521 O 0.78655 0.77507 0.97614 0.0
O522 O 0.78726 0.8165 0.74563 0.0
C523 C 0.80386 0.77323 0.06563 0.0
H524 H 0.74271 0.88666 1.04643 0.0
H525 H 0.88586 0.73459 0.79965 0.0
H526 H 0.84754 0.91045 0.87039 0.0
H527 H 0.90143 0.84841 1.04258 0.0
Co528 Co 0.56665 0.5585 0.62159 0.0
C529 C 0.55076 0.59982 0.79184 0.0
C530 C 0.5195 0.59963 0.65604 0.0
C531 C 0.51332 0.6218 0.73101 0.0
N532 N 0.54257 0.58545 0.69751 0.0
N533 N 0.53238 0.62105 0.81973 0.0
H534 H 0.56839 0.59292 0.84665 0.0
H535 H 0.50753 0.59406 0.57894 0.0
C536 C 0.53599 0.55048 0.38241 0.0
O537 O 0.54802 0.52517 0.3797 0.0
N538 N 0.59215 0.53348 0.53891 0.0
C539 C 0.6006 0.50607 0.55341 0.0
C540 C 0.61676 0.49849 0.45713 0.0
C541 C 0.60431 0.54247 0.43989 0.0
N542 N 0.61787 0.52121 0.38297 0.0
C543 C 0.62242 0.57992 0.66094 0.0
C544 C 0.61143 0.63821 0.65419 0.0
C545 C 0.63678 0.62876 0.71083 0.0
C546 C 0.64211 0.59907 0.70968 0.0
C547 C 0.59191 0.61794 0.6048 0.0
N548 N 0.59685 0.58885 0.61382 0.0
H549 H 0.62678 0.55727 0.67252 0.0
H550 H 0.57184 0.62562 0.56874 0.0
H551 H 0.59389 0.49204 0.62324 0.0
H552 H 0.59936 0.56323 0.40239 0.0
O553 O 0.58049 0.54315 0.77283 0.0
O554 O 0.54317 0.52544 0.68616 0.0
O555 O 0.54381 0.56816 0.46485 0.0
C556 C 0.5598 0.52473 0.77773 0.0
H557 H 0.49372 0.63445 0.73048 0.0
H558 H 0.62384 0.47686 0.4368 0.0
H559 H 0.60642 0.66096 0.65001 0.0
H560 H 0.66087 0.59014 0.75229 0.0
Co561 Co 0.72701 0.31084 0.8632 0.0
C562 C 0.68283 0.29247 1.01933 0.0
C563 C 0.68681 0.26223 0.88048 0.0
C564 C 0.66425 0.25407 0.95012 0.0
N565 N 0.699 0.28579 0.92754 0.0
N566 N 0.6627 0.27243 1.04099 0.0
H567 H 0.68798 0.30989 0.07817 0.0
H568 H 0.69405 0.25111 0.80354 0.0
C569 C 0.72385 0.28703 0.59392 0.0
O570 O 0.71969 0.31174 0.54206 0.0
N571 N 0.75376 0.33694 0.7916 0.0
C572 C 0.78207 0.34134 0.80729 0.0
C573 C 0.79155 0.35902 0.71872 0.0
C574 C 0.74655 0.35286 0.6989 0.0
N575 N 0.76926 0.36502 0.64726 0.0
C576 C 0.70278 0.36565 0.89417 0.0
C577 C 0.64517 0.35272 0.873 0.0
C578 C 0.65274 0.37826 0.93289 0.0
C579 C 0.68219 0.38446 0.93943 0.0
C580 C 0.66695 0.33399 0.82773 0.0
N581 N 0.69569 0.33993 0.8433 0.0
H582 H 0.72497 0.37076 0.91245 0.0
H583 H 0.66057 0.31373 0.78935 0.0
H584 H 0.79536 0.33067 0.87116 0.0
H585 H 0.72535 0.35284 0.66077 0.0
O586 O 0.73783 0.32546 1.01998 0.0
O587 O 0.75908 0.28883 0.94108 0.0
O588 O 0.72442 0.28598 0.70707 0.0
C589 C 0.75709 0.30564 1.03165 0.0
H590 H 0.65308 0.23366 0.94503 0.0
H591 H 0.81387 0.3635 0.6986 0.0
H592 H 0.62274 0.34696 0.86305 0.0
H593 H 0.68981 0.4033 0.9854 0.0
Co594 Co 0.98098 0.47253 0.20211 0.0
C595 C 1.00338 0.42486 0.33307 0.0
C596 C 0.03737 0.44529 0.23817 0.0
C597 C 0.04889 0.4248 0.31093 0.0
N598 N 1.00892 0.44595 0.25733 0.0
N599 N 0.02754 0.41362 0.37748 0.0
H600 H 0.98293 0.42299 0.37714 0.0
H601 H 0.0491 0.46054 0.18526 0.0
C602 C 1.00032 0.47171 0.92669 0.0
O603 O 0.97439 0.46713 0.88568 0.0
N604 N 0.95196 0.49842 0.14221 0.0
C605 C 0.92291 0.49561 0.14609 0.0
C606 C 0.91129 0.50646 1.04554 0.0
C607 C 0.95701 0.51351 1.04591 0.0
N608 N 0.93311 0.51669 0.98154 0.0
C609 C 0.93433 0.43813 0.27842 0.0
C610 C 0.93901 0.39065 0.13868 0.0
C611 C 0.91994 0.38962 0.23522 0.0
C612 C 0.9181 0.41395 0.304 0.0
C613 C 0.9566 0.41548 0.119 0.0
N614 N 0.9539 0.4393 0.18857 0.0
H615 H 0.93086 0.45585 0.33621 0.0
H616 H 0.9724 0.41532 0.04988 0.0
H617 H 0.91062 0.48428 0.21042 0.0
H618 H 0.97843 0.51859 1.01683 0.0
O619 O 0.96963 0.48268 0.36442 0.0
O620 O 1.00193 0.5062 0.27037 0.0
O621 O 1.00405 0.47136 1.03926 0.0
C622 C 0.98754 0.50363 0.36711 0.0
H623 H 0.07158 0.4231 0.33129 0.0
H624 H 0.88925 0.5041 1.0167 0.0
H625 H 0.94033 0.37255 0.07965 0.0
H626 H 0.90295 0.41489 0.37572 0.0
Co627 Co 0.81428 0.7217 0.40153 0.0
C628 C 0.85468 0.74239 0.56514 0.0
C629 C 0.84886 0.774 0.43245 0.0
C630 C 0.86995 0.78324 0.50734 0.0
N631 N 0.83875 0.74882 0.47287 0.0
N632 N 0.87232 0.76395 0.59506 0.0
H633 H 0.85072 0.72368 0.61886 0.0
H634 H 0.84086 0.78543 0.35734 0.0
C635 C 0.80088 0.75055 0.16277 0.0
O636 O 0.77705 0.73592 0.16517 0.0
N637 N 0.79174 0.69328 0.32328 0.0
C638 C 0.76507 0.68286 0.33893 0.0
C639 C 0.75873 0.66577 0.24403 0.0
C640 C 0.80158 0.68151 0.22478 0.0
N641 N 0.78145 0.66603 0.16957 0.0
C642 C 0.8419 0.66916 0.4444 0.0
C643 C 0.89876 0.68584 0.4308 0.0
C644 C 0.89212 0.66031 0.49214 0.0
C645 C 0.86313 0.6522 0.49536 0.0
C646 C 0.87628 0.70294 0.38136 0.0
N647 N 0.84787 0.69506 0.39288 0.0
H648 H 0.81991 0.66237 0.45712 0.0
H649 H 0.88164 0.7234 0.34215 0.0
H650 H 0.75051 0.68895 0.40808 0.0
H651 H 0.82171 0.68814 0.1859 0.0
O652 O 0.80176 0.70669 0.55515 0.0
O653 O 0.77912 0.74143 0.46921 0.0
O654 O 0.82009 0.74494 0.24265 0.0
C655 C 0.78105 0.72504 0.56141 0.0
H656 H 0.87899 0.80471 0.50861 0.0
H657 H 0.73769 0.65708 0.22446 0.0
H658 H 0.92094 0.6926 0.42166 0.0
H659 H 0.85663 0.63255 0.53882 0.0
Co660 Co 0.56323 0.47323 1.04863 0.0
C661 C 0.54697 0.42733 0.89433 0.0
C662 C 0.51245 0.43627 1.01246 0.0
C663 C 0.50385 0.41527 0.93567 0.0
N664 N 0.5391 0.44451 0.98213 0.0
N665 N 0.52523 0.41059 0.85777 0.0
H666 H 0.56662 0.43048 0.84521 0.0
H667 H 0.49945 0.44611 0.07959 0.0
C668 C 0.54116 0.46843 0.31997 0.0
O669 O 0.56669 0.46334 0.36305 0.0
N670 N 0.58833 0.50113 0.11935 0.0
C671 C 0.59023 0.52978 0.10416 0.0
C672 C 0.60757 0.54069 0.19052 0.0
C673 C 0.60529 0.4951 0.21039 0.0
N674 N 0.61592 0.51883 0.26098 0.0
C675 C 0.61844 0.44972 1.02155 0.0
C676 C 0.60589 0.39207 1.0455 0.0
C677 C 0.63135 0.39965 0.98496 0.0
C678 C 0.6374 0.42914 0.97724 0.0
C679 C 0.58702 0.41384 0.08984 0.0
N680 N 0.59273 0.44257 0.07242 0.0
H681 H 0.62334 0.47192 1.00217 0.0
H682 H 0.56668 0.40746 0.1277 0.0
H683 H 0.57815 0.54228 1.04185 0.0
H684 H 0.60748 0.4738 0.24637 0.0
O685 O 0.57829 0.48391 0.89146 0.0
O686 O 0.54129 0.50483 0.96691 0.0
O687 O 0.53816 0.47042 0.20691 0.0
C688 C 0.55834 0.50292 0.87721 0.0
H689 H 0.48192 0.40779 0.92574 0.0
H690 H 0.61045 0.56336 0.20872 0.0
H691 H 0.60024 0.36962 0.05627 0.0
H692 H 0.65618 0.43677 0.93082 0.0
Co693 Co 0.811 0.31161 0.29362 0.0
C694 C 0.85535 0.2922 0.1409 0.0
C695 C 0.84486 0.25811 0.25813 0.0
C696 C 0.86625 0.24888 0.18368 0.0
N697 N 0.8371 0.28481 0.22564 0.0
N698 N 0.87221 0.27026 0.10759 0.0
H699 H 0.85299 0.31166 0.09027 0.0
H700 H 0.83489 0.24571 0.32665 0.0
C701 C 0.81786 0.28966 0.5636 0.0
O702 O 0.82513 0.31483 0.6054 0.0
N703 N 0.78634 0.34041 0.36526 0.0
C704 C 0.78715 0.3694 0.34953 0.0
C705 C 0.77906 0.38311 0.45086 0.0
C706 C 0.77536 0.33723 0.47184 0.0
N707 N 0.7719 0.36252 0.52654 0.0
C708 C 0.846 0.35836 0.22167 0.0
C709 C 0.89539 0.34777 0.34447 0.0
C710 C 0.89642 0.36789 0.2519 0.0
C711 C 0.87106 0.37292 0.19207 0.0
C712 C 0.86956 0.3322 0.36847 0.0
N713 N 0.84486 0.33772 0.30726 0.0
H714 H 0.82795 0.36291 0.167 0.0
H715 H 0.86975 0.31528 0.43294 0.0
H716 H 0.79487 0.38041 0.27362 0.0
H717 H 0.77263 0.3168 0.51389 0.0
O718 O 0.79885 0.32485 0.13595 0.0
O719 O 0.77642 0.29118 0.22723 0.0
O720 O 0.81436 0.28698 0.45152 0.0
C721 C 0.77834 0.30631 0.13246 0.0
H722 H 0.87379 0.2269 0.17558 0.0
H723 H 0.78005 0.40592 0.46968 0.0
H724 H 0.91433 0.34403 0.39703 0.0
H725 H 0.87027 0.38895 0.12364 0.0
Co726 Co 0.97782 0.56026 0.61839 0.0
C727 C 0.99744 0.6037 0.46407 0.0
C728 C 0.02578 0.60134 0.60855 0.0
C729 C 0.0333 0.62478 0.54321 0.0
N730 N 1.00402 0.58737 0.55506 0.0
N731 N 1.01585 0.62576 0.45012 0.0
H732 H 0.98114 0.59779 0.40138 0.0
H733 H 0.03578 0.59547 0.68942 0.0
C734 C 0.99924 0.56956 0.89054 0.0
O735 O 0.97398 0.57221 0.94061 0.0
N736 N 0.9505 0.53423 0.6902 0.0
C737 C 0.92124 0.53403 0.6861 0.0
C738 C 0.91047 0.5257 0.79226 0.0
C739 C 0.95664 0.5235 0.79452 0.0
N740 N 0.9331 0.5201 0.86046 0.0
C741 C 0.9282 0.58868 0.53626 0.0
C742 C 0.93506 0.6432 0.62332 0.0
C743 C 0.91399 0.63867 0.53597 0.0
C744 C 0.91119 0.61079 0.4943 0.0
C745 C 0.95258 0.61969 0.66347 0.0
N746 N 0.94895 0.59235 0.61977 0.0
H747 H 0.92524 0.56866 0.49208 0.0
H748 H 0.96976 0.62383 0.72454 0.0
H749 H 0.90784 0.5408 0.61544 0.0
H750 H 0.97826 0.52102 0.82515 0.0
O751 O 0.96686 0.54604 0.46088 0.0
O752 O 1.00095 0.5263 0.55894 0.0
O753 O 1.00056 0.56667 0.77808 0.0
C754 C 0.98597 0.52615 0.46339 0.0
H755 H 0.05239 0.6378 0.55478 0.0
H756 H 0.88814 0.52572 0.81921 0.0
H757 H 0.93806 0.66449 0.65956 0.0
H758 H 0.89578 0.60585 0.4265 0.0
Co759 Co 0.73046 0.71677 0.83311 0.0
C760 C 0.68517 0.7289 0.67418 0.0
C761 C 0.68781 0.76298 0.79931 0.0
C762 C 0.6656 0.7687 0.72401 0.0
N763 N 0.70064 0.73858 0.76374 0.0
N764 N 0.66452 0.74748 0.64336 0.0
H765 H 0.69088 0.71006 0.62372 0.0
H766 H 0.6947 0.77626 0.87116 0.0
C767 C 0.72088 0.73813 0.10206 0.0
O768 O 0.71643 0.71233 0.14397 0.0
N769 N 0.7596 0.69345 0.90527 0.0
C770 C 0.78828 0.69298 0.88942 0.0
C771 C 0.80019 0.67641 0.97614 0.0
C772 C 0.75455 0.67632 0.99678 0.0
N773 N 0.77888 0.66714 1.04751 0.0
C774 C 0.70866 0.66089 0.80575 0.0
C775 C 0.65096 0.67333 0.83366 0.0
C776 C 0.6585 0.64869 0.76806 0.0
C777 C 0.68798 0.64236 0.75935 0.0
C778 C 0.67271 0.69155 0.88037 0.0
N779 N 0.70134 0.68621 0.85908 0.0
H780 H 0.73093 0.65632 0.78574 0.0
H781 H 0.66638 0.71149 0.92176 0.0
H782 H 0.80005 0.70553 0.82621 0.0
H783 H 0.73344 0.67298 1.03294 0.0
O784 O 0.74271 0.70237 0.67699 0.0
O785 O 0.76056 0.74092 0.7532 0.0
O786 O 0.72485 0.74138 0.99014 0.0
C787 C 0.75985 0.72398 0.66293 0.0
H788 H 0.65378 0.78877 0.71974 0.0
H789 H 0.82299 0.67477 0.99407 0.0
H790 H 0.62854 0.67896 0.84601 0.0
H791 H 0.69547 0.62395 0.71008 0.0
Co792 Co 0.47995 0.47124 0.56292 0.0
C793 C 0.4346 0.51272 0.51289 0.0
C794 C 0.47524 0.53306 0.53128 0.0
C795 C 0.45429 0.55313 0.50928 0.0
N796 N 0.46285 0.50718 0.52599 0.0
N797 N 0.42965 0.53947 0.47523 0.0
H798 H 0.41755 0.49714 0.51562 0.0
H799 H 0.4974 0.53702 0.55373 0.0
C800 C 0.46778 0.5095 0.80014 0.0
O801 O 0.44941 0.5262 0.7466 0.0
N802 N 0.49689 0.43525 0.60427 0.0
C803 C 0.48641 0.40815 0.60148 0.0
C804 C 0.49981 0.39259 0.68799 0.0
C805 C 0.51803 0.43499 0.68104 0.0
N806 N 0.5193 0.40994 0.73886 0.0
C807 C 0.4319 0.44938 0.4403 0.0
C808 C 0.40576 0.4172 0.61018 0.0
C809 C 0.39628 0.41404 0.49378 0.0
C810 C 0.40909 0.43143 0.41028 0.0
C811 C 0.4282 0.43686 0.63828 0.0
N812 N 0.4418 0.45202 0.55232 0.0
H813 H 0.44159 0.46158 0.37106 0.0
H814 H 0.43619 0.43796 0.72637 0.0
H815 H 0.46809 0.40109 0.55136 0.0
H816 H 0.52772 0.45478 0.71162 0.0
O817 O 0.49091 0.46258 0.39569 0.0
O818 O 0.51969 0.48411 0.51255 0.0
O819 O 0.47815 0.48622 0.74541 0.0
C820 C 0.51635 0.47292 0.40903 0.0
H821 H 0.45855 0.57588 0.49878 0.0
H822 H 0.49293 0.37195 0.72157 0.0
H823 H 0.39661 0.40389 0.67797 0.0
H824 H 0.40281 0.42985 0.31991 0.0
Co825 Co 0.3226 0.73769 0.30274 0.0
C826 C 0.28254 0.69106 0.25802 0.0
C827 C 0.26097 0.7302 0.28921 0.0
C828 C 0.24158 0.70797 0.28067 0.0
N829 N 0.28712 0.71963 0.26581 0.0
N830 N 0.25514 0.68448 0.23549 0.0
H831 H 0.29868 0.67453 0.25613 0.0
H832 H 0.25664 0.75202 0.31551 0.0
C833 C 0.28596 0.72139 0.54365 0.0
O834 O 0.28265 0.69426 0.51506 0.0
N835 N 0.35811 0.75499 0.34628 0.0
C836 C 0.38545 0.74573 0.33036 0.0
C837 C 0.40211 0.75674 0.41887 0.0
C838 C 0.35904 0.7735 0.43311 0.0
N839 N 0.38512 0.774 0.48308 0.0
C840 C 0.34542 0.6898 0.18189 0.0
C841 C 0.38111 0.6665 0.34685 0.0
C842 C 0.38407 0.65696 0.23017 0.0
C843 C 0.36494 0.66839 0.14942 0.0
C844 C 0.36001 0.6876 0.37759 0.0
N845 N 0.34289 0.69978 0.29405 0.0
H846 H 0.3319 0.69847 0.11426 0.0
H847 H 0.35926 0.69581 0.4655 0.0
H848 H 0.39204 0.72928 0.26936 0.0
H849 H 0.33966 0.78174 0.47366 0.0
O850 O 0.33261 0.74856 0.13616 0.0
O851 O 0.30969 0.77728 0.24873 0.0
O852 O 0.30407 0.73753 0.48065 0.0
C853 C 0.32224 0.77412 0.14776 0.0
H854 H 0.21844 0.71055 0.28442 0.0
H855 H 0.42355 0.74978 0.44278 0.0
H856 H 0.39547 0.65832 0.4131 0.0
H857 H 0.36605 0.66204 0.05898 0.0
Co858 Co 0.06371 0.57539 0.11391 0.0
C859 C 0.10193 0.5698 0.93017 0.0
C860 C 0.10778 0.53293 1.03738 0.0
C861 C 0.12683 0.5322 0.94517 0.0
N862 N 0.09087 0.55589 1.02123 0.0
N863 N 0.12033 0.5538 0.86859 0.0
H864 H 0.09341 0.59003 0.89909 0.0
H865 H 0.10608 0.51774 0.1082 0.0
C866 C 0.06291 0.5365 0.3456 0.0
O867 O 0.03591 0.54367 0.35542 0.0
N868 N 0.03821 0.59877 0.20199 0.0
C869 C 1.01487 0.6137 0.16637 0.0
C870 C 1.00801 0.63354 0.24977 0.0
C871 C 0.0461 0.61112 0.3012 0.0
N872 N 0.02652 0.63034 0.33892 0.0
C873 C 0.08516 0.63142 0.07673 0.0
C874 C 0.14315 0.61877 0.08969 0.0
C875 C 0.13468 0.64336 1.02595 0.0
C876 C 0.10514 0.64982 1.02481 0.0
C877 C 0.12211 0.60062 0.14161 0.0
N878 N 0.09325 0.60604 0.12726 0.0
H879 H 0.06268 0.63612 0.06292 0.0
H880 H 0.12895 0.58061 0.18101 0.0
H881 H 1.00317 0.61067 0.08661 0.0
H882 H 0.06373 0.60309 0.35349 0.0
O883 O 0.04455 0.59024 0.96842 0.0
O884 O 0.03035 0.55158 0.0552 0.0
O885 O 0.07776 0.55018 0.26451 0.0
C886 C 0.02629 0.56926 0.96824 0.0
H887 H 0.14071 0.51407 0.92574 0.0
H888 H 0.98798 0.64546 0.25412 0.0
H889 H 0.1657 0.61309 0.09646 0.0
H890 H 0.09694 0.66819 0.97737 0.0
Co891 Co 0.2117 0.3045 0.83256 0.0
C892 C 0.2455 0.34647 0.72091 0.0
C893 C 0.27291 0.31946 0.82142 0.0
C894 C 0.28777 0.34386 0.78962 0.0
N895 N 0.24611 0.32183 0.77992 0.0
N896 N 0.27083 0.36025 0.71932 0.0
H897 H 0.22766 0.3524 0.6664 0.0
H898 H 0.28057 0.30231 0.87657 0.0
C899 C 0.24967 0.32291 0.06809 0.0
O900 O 0.25994 0.34652 1.02146 0.0
N901 N 0.17603 0.28827 0.88583 0.0
C902 C 0.14936 0.30013 0.89378 0.0
C903 C 0.1348 0.28741 0.9836 0.0
C904 C 0.17631 0.26742 0.9641 0.0
N905 N 0.15229 0.26752 1.02966 0.0
C906 C 0.17483 0.34497 0.71993 0.0
C907 C 0.17984 0.39225 0.86084 0.0
C908 C 0.16272 0.39466 0.7588 0.0
C909 C 0.1607 0.37024 0.6894 0.0
C910 C 0.19409 0.36596 0.88899 0.0
N911 N 0.19146 0.34242 0.81835 0.0
H912 H 0.17079 0.32693 0.66428 0.0
H913 H 0.20716 0.36471 0.96627 0.0
H914 H 0.14167 0.31918 0.85104 0.0
H915 H 0.19624 0.25709 0.98968 0.0
O916 O 0.20253 0.29073 0.66983 0.0
O917 O 0.22556 0.26427 0.79064 0.0
O918 O 0.22888 0.30848 1.01228 0.0
C919 C 0.21384 0.26587 0.68766 0.0
H920 H 0.31058 0.34724 0.80341 0.0
H921 H 0.1153 0.29544 1.02392 0.0
H922 H 0.18228 0.41044 0.91867 0.0
H923 H 0.14706 0.36989 0.61327 0.0
Co924 Co 0.47972 0.56645 0.13314 0.0
C925 C 0.43465 0.5603 0.29167 0.0
C926 C 0.43711 0.52078 0.19795 0.0
C927 C 0.41773 0.51848 0.28834 0.0
N928 N 0.44903 0.54683 0.20697 0.0
N929 N 0.41997 0.5421 0.35882 0.0
H930 H 0.44055 0.58154 0.321 0.0
H931 H 0.44331 0.50414 0.13742 0.0
C932 C 0.47527 0.51902 0.92708 0.0
O933 O 0.48618 0.49966 0.99702 0.0
N934 N 0.50826 0.58959 0.06196 0.0
C935 C 0.53287 0.60115 0.10271 0.0
C936 C 0.54217 0.62134 1.02395 0.0
C937 C 0.50215 0.60409 0.96564 0.0
N938 N 0.52326 0.62221 0.93489 0.0
C939 C 0.45829 0.623 0.17916 0.0
C940 C 0.40223 0.61399 0.11019 0.0
C941 C 0.4077 0.63688 0.1883 0.0
C942 C 0.43649 0.6417 0.21865 0.0
C943 C 0.42468 0.59526 0.07441 0.0
N944 N 0.45216 0.59893 0.11462 0.0
H945 H 0.4799 0.6264 0.21083 0.0
H946 H 0.41942 0.57625 1.02449 0.0
H947 H 0.54392 0.59514 0.18146 0.0
H948 H 0.48405 0.59868 0.91066 0.0
O949 O 0.49578 0.57831 0.28915 0.0
O950 O 0.50977 0.53998 0.19735 0.0
O951 O 0.47018 0.54529 0.96848 0.0
C952 C 0.51322 0.55652 0.28831 0.0
H953 H 0.40735 0.49854 0.31279 0.0
H954 H 0.56327 0.63121 1.02312 0.0
H955 H 0.38047 0.60968 0.08151 0.0
H956 H 0.44217 0.6596 0.27437 0.0
Co957 Co 0.2259 0.73239 0.87395 0.0
C958 C 0.23264 0.69402 0.05759 0.0
C959 C 0.26967 0.68965 0.9496 0.0
C960 C 0.27143 0.67083 1.04218 0.0
N961 N 0.24592 0.70545 0.96581 0.0
N962 N 0.24959 0.67644 0.1189 0.0
H963 H 0.21218 0.7019 0.0894 0.0
H964 H 0.28485 0.69213 0.879 0.0
C965 C 0.26497 0.73377 0.64089 0.0
O966 O 0.2572 0.76057 0.63075 0.0
N967 N 0.20234 0.7575 0.78553 0.0
C968 C 0.18688 0.78056 0.8208 0.0
C969 C 0.16613 0.78606 0.7395 0.0
C970 C 0.18963 0.74862 0.68843 0.0
N971 N 0.1695 0.76725 0.65111 0.0
C972 C 0.16954 0.71183 0.91036 0.0
C973 C 0.18058 0.65354 0.90413 0.0
C974 C 0.15562 0.66312 0.96341 0.0
C975 C 0.15012 0.69278 0.9613 0.0
C976 C 0.19983 0.67373 0.85262 0.0
N977 N 0.19505 0.70282 0.86284 0.0
H978 H 0.16525 0.73441 0.92254 0.0
H979 H 0.21994 0.66607 0.81644 0.0
H980 H 0.18993 0.79271 0.89951 0.0
H981 H 0.19785 0.73087 0.63706 0.0
O982 O 0.21067 0.75125 1.01976 0.0
O983 O 0.24906 0.76622 0.93354 0.0
O984 O 0.25148 0.71871 0.7223 0.0
C985 C 0.23118 0.76995 1.02034 0.0
H986 H 0.29028 0.65799 0.06177 0.0
H987 H 0.15338 0.80557 0.73513 0.0
H988 H 0.18567 0.6308 0.90048 0.0
H989 H 0.13165 0.70183 1.00574 0.0
Co990 Co 0.06084 0.47938 0.68256 0.0
C991 C 0.10625 0.52037 0.73067 0.0
C992 C 0.06697 0.54132 0.69499 0.0
C993 C 0.08877 0.56115 0.70601 0.0
N994 N 0.07784 0.51538 0.71952 0.0
N995 N 0.11229 0.54791 0.75235 0.0
H996 H 0.12286 0.50448 0.73808 0.0
H997 H 0.04524 0.5452 0.66682 0.0
C998 C 0.07575 0.516 0.44252 0.0
O999 O 0.10278 0.51996 0.47112 0.0
N1000 N 0.0451 0.443 0.63986 0.0
C1001 C 0.05661 0.41647 0.65466 0.0
C1002 C 0.04799 0.39936 0.56339 0.0
C1003 C 0.02755 0.44088 0.55028 0.0
N1004 N 0.02995 0.41511 0.49804 0.0
C1005 C 0.10951 0.4559 0.79592 0.0
C1006 C 0.13507 0.42725 0.61475 0.0
C1007 C 0.14404 0.4205 0.72986 0.0
C1008 C 0.13158 0.43641 0.81944 0.0
C1009 C 0.11265 0.44747 0.5943 0.0
N1010 N 0.09936 0.46085 0.68546 0.0
H1011 H 0.10035 0.46714 0.86911 0.0
H1012 H 0.10456 0.45057 0.50714 0.0
H1013 H 0.07332 0.41109 0.71615 0.0
H1014 H 1.01823 0.45968 0.50942 0.0
O1015 O 0.0508 0.46903 0.84927 0.0
O1016 O 0.02098 0.49083 0.73768 0.0
O1017 O 0.06001 0.49764 0.5054 0.0
C1018 C 0.02484 0.47843 0.83839 0.0
H1019 H 0.08574 0.58424 0.70272 0.0
H1020 H 0.0572 0.37884 0.53846 0.0
H1021 H 0.14428 0.41606 0.54109 0.0
H1022 H 0.1373 0.43257 0.90919 0.0
Co1023 Co 0.31175 0.31353 0.39135 0.0
C1024 C 0.29965 0.35416 0.56066 0.0
C1025 C 0.26572 0.35673 0.43839 0.0
C1026 C 0.2616 0.37673 0.52553 0.0
N1027 N 0.28864 0.34084 0.46845 0.0
N1028 N 0.28065 0.37134 0.61274 0.0
H1029 H 0.3194 0.34736 0.60181 0.0
H1030 H 0.25268 0.35395 0.36186 0.0
C1031 C 0.26226 0.31477 0.1908 0.0
O1032 O 0.24458 0.30272 0.2647 0.0
N1033 N 0.33844 0.28909 0.31521 0.0
C1034 C 0.35423 0.26659 0.35258 0.0
C1035 C 0.3753 0.26126 0.27117 0.0
C1036 C 0.35148 0.29827 0.21926 0.0
N1037 N 0.37229 0.28031 0.18304 0.0
C1038 C 0.36549 0.33962 0.43855 0.0
C1039 C 0.35226 0.39563 0.38157 0.0
C1040 C 0.37625 0.3905 0.45438 0.0
C1041 C 0.38305 0.36189 0.47909 0.0
C1042 C 0.33451 0.3725 0.34493 0.0
N1043 N 0.34061 0.34483 0.37793 0.0
H1044 H 0.37097 0.31799 0.46459 0.0
H1045 H 0.31489 0.37707 0.29791 0.0
H1046 H 0.35071 0.25448 0.4312 0.0
H1047 H 0.34296 0.31574 0.16734 0.0
O1048 O 0.32626 0.2986 0.54542 0.0
O1049 O 0.29049 0.27903 0.45728 0.0
O1050 O 0.28856 0.32163 0.22799 0.0
C1051 C 0.30743 0.2783 0.54811 0.0
H1052 H 0.24231 0.38965 0.53521 0.0
H1053 H 0.38843 0.242 0.26737 0.0
H1054 H 0.34666 0.41743 0.3569 0.0
H1055 H 0.40192 0.35665 0.53016 0.0
loop_
_geom_bond_atom_site_label_1
_geom_bond_atom_site_label_2
_geom_bond_distance
_geom_bond_site_symmetry_2
_ccdc_geom_bond_type
Co0 N4 2.148 . S
Co0 N10 2.128 1_554 S
Co0 N20 2.194 . S
Co0 O25 2.351 . S
Co0 O26 2.155 . S
Co0 O27 2.096 1_554 S
C1 N4 1.301 . S
C1 N5 1.328 . S
C1 H6 0.930 . S
C2 C3 1.333 . S
C2 N4 1.317 1_655 S
C2 H7 0.930 . S
C3 C2 1.333 . S
C3 N5 1.350 1_655 S
C3 H29 0.931 . S
N4 Co0 2.148 . S
N4 C1 1.301 . S
N4 C2 1.317 1_455 S
N5 C1 1.328 . S
N5 C3 1.350 1_455 S
H6 C1 0.930 . S
H7 C2 0.930 . S
C8 O9 1.224 . S
C8 O27 1.247 . S
O9 C8 1.224 . S
N10 Co0 2.128 1_556 S
N10 C11 1.355 . S
N10 C13 1.311 . S
C11 N10 1.355 . S
C11 C12 1.363 . S
C11 H23 0.929 1_556 S
C12 C11 1.363 . S
C12 N14 1.375 . S
C12 H30 0.931 . S
C13 N10 1.311 . S
C13 N14 1.347 . S
C13 H24 0.929 . S
N14 C12 1.375 . S
N14 C13 1.347 . S
C15 C18 1.365 . S
C15 N20 1.328 . S
C15 H21 0.929 . S
C16 C17 1.362 . S
C16 C19 1.378 . S
C16 H31 0.929 1_554 S
C17 C16 1.362 . S
C17 C18 1.366 . S
C18 C15 1.365 . S
C18 C17 1.366 . S
C18 H32 0.930 . S
C19 C16 1.378 . S
C19 N20 1.315 . S
C19 H22 0.930 1_554 S
N20 Co0 2.194 . S
N20 C15 1.328 . S
N20 C19 1.315 . S
H21 C15 0.929 . S
H22 C19 0.930 1_556 S
H23 C11 0.929 1_554 S
H24 C13 0.929 . S
O25 Co0 2.351 . S
O25 C28 1.244 . S
O26 Co0 2.155 . S
O26 C28 1.240 . S
O27 Co0 2.096 1_556 S
O27 C8 1.247 . S
C28 O25 1.244 . S
C28 O26 1.240 . S
H29 C3 0.931 . S
H30 C12 0.931 . S
H31 C16 0.929 1_556 S
H32 C18 0.930 . S
Co33 N37 2.148 . S
Co33 N43 2.128 . S
Co33 N53 2.194 . S
Co33 O58 2.351 . S
Co33 O59 2.155 . S
Co33 O60 2.096 . S
C34 N37 1.301 . S
C34 N38 1.328 . S
C34 H39 0.930 . S
C35 C36 1.333 . S
C35 N37 1.317 . S
C35 H40 0.930 . S
C36 C35 1.333 . S
C36 N38 1.350 . S
C36 H62 0.931 . S
N37 Co33 2.148 . S
N37 C34 1.301 . S
N37 C35 1.317 . S
N38 C34 1.328 . S
N38 C36 1.350 . S
H39 C34 0.930 . S
H40 C35 0.930 . S
C41 O42 1.224 . S
C41 O60 1.247 . S
O42 C41 1.224 . S
N43 Co33 2.128 . S
N43 C44 1.355 . S
N43 C46 1.311 . S
C44 N43 1.355 . S
C44 C45 1.363 . S
C44 H56 0.929 . S
C45 C44 1.363 . S
C45 N47 1.375 . S
C45 H63 0.931 . S
C46 N43 1.311 . S
C46 N47 1.347 . S
C46 H57 0.929 . S
N47 C45 1.375 . S
N47 C46 1.347 . S
C48 C51 1.365 . S
C48 N53 1.328 . S
C48 H54 0.929 . S
C49 C50 1.362 . S
C49 C52 1.378 . S
C49 H64 0.929 . S
C50 C49 1.362 . S
C50 C51 1.366 . S
C51 C48 1.365 . S
C51 C50 1.366 . S
C51 H65 0.930 . S
C52 C49 1.378 . S
C52 N53 1.315 . S
C52 H55 0.930 . S
N53 Co33 2.194 . S
N53 C48 1.328 . S
N53 C52 1.315 . S
H54 C48 0.929 . S
H55 C52 0.930 . S
H56 C44 0.929 . S
H57 C46 0.929 . S
O58 Co33 2.351 . S
O58 C61 1.244 . S
O59 Co33 2.155 . S
O59 C61 1.240 . S
O60 Co33 2.096 . S
O60 C41 1.247 . S
C61 O58 1.244 . S
C61 O59 1.240 . S
H62 C36 0.931 . S
H63 C45 0.931 . S
H64 C49 0.929 . S
H65 C51 0.930 . S
Co66 N70 2.148 . S
Co66 N76 2.128 . S
Co66 N86 2.194 . S
Co66 O91 2.351 . S
Co66 O92 2.155 . S
Co66 O93 2.096 . S
C67 N70 1.301 . S
C67 N71 1.328 . S
C67 H72 0.930 . S
C68 C69 1.333 . S
C68 N70 1.317 . S
C68 H73 0.930 . S
C69 C68 1.333 . S
C69 N71 1.350 . S
C69 H95 0.931 . S
N70 Co66 2.148 . S
N70 C67 1.301 . S
N70 C68 1.317 . S
N71 C67 1.328 . S
N71 C69 1.350 . S
H72 C67 0.930 . S
H73 C68 0.930 . S
C74 O75 1.224 . S
C74 O93 1.247 . S
O75 C74 1.224 . S
N76 Co66 2.128 . S
N76 C77 1.355 . S
N76 C79 1.311 . S
C77 N76 1.355 . S
C77 C78 1.363 . S
C77 H89 0.929 . S
C78 C77 1.363 . S
C78 N80 1.375 . S
C78 H96 0.931 . S
C79 N76 1.311 . S
C79 N80 1.347 . S
C79 H90 0.929 . S
N80 C78 1.375 . S
N80 C79 1.347 . S
C81 C84 1.365 . S
C81 N86 1.328 . S
C81 H87 0.929 . S
C82 C83 1.362 . S
C82 C85 1.378 . S
C82 H97 0.929 . S
C83 C82 1.362 . S
C83 C84 1.366 . S
C84 C81 1.365 . S
C84 C83 1.366 . S
C84 H98 0.930 . S
C85 C82 1.378 . S
C85 N86 1.315 . S
C85 H88 0.930 . S
N86 Co66 2.194 . S
N86 C81 1.328 . S
N86 C85 1.315 . S
H87 C81 0.929 . S
H88 C85 0.930 . S
H89 C77 0.929 . S
H90 C79 0.929 . S
O91 Co66 2.351 . S
O91 C94 1.244 . S
O92 Co66 2.155 . S
O92 C94 1.240 . S
O93 Co66 2.096 . S
O93 C74 1.247 . S
C94 O91 1.244 . S
C94 O92 1.240 . S
H95 C69 0.931 . S
H96 C78 0.931 . S
H97 C82 0.929 . S
H98 C84 0.930 . S
Co99 N103 2.148 . S
Co99 N109 2.128 . S
Co99 N119 2.194 . S
Co99 O124 2.351 . S
Co99 O125 2.155 . S
Co99 O126 2.096 . S
C100 N103 1.301 1_554 S
C100 N104 1.328 . S
C100 H105 0.930 . S
C101 C102 1.333 1_556 S
C101 N103 1.317 . S
C101 H106 0.930 . S
C102 C101 1.333 1_554 S
C102 N104 1.350 . S
C102 H128 0.931 . S
N103 Co99 2.148 . S
N103 C100 1.301 1_556 S
N103 C101 1.317 . S
N104 C100 1.328 . S
N104 C102 1.350 . S
H105 C100 0.930 . S
H106 C101 0.930 . S
C107 O108 1.224 . S
C107 O126 1.247 . S
O108 C107 1.224 . S
N109 Co99 2.128 . S
N109 C110 1.355 . S
N109 C112 1.311 . S
C110 N109 1.355 . S
C110 C111 1.363 . S
C110 H122 0.929 . S
C111 C110 1.363 . S
C111 N113 1.375 . S
C111 H129 0.931 . S
C112 N109 1.311 . S
C112 N113 1.347 . S
C112 H123 0.929 . S
N113 C111 1.375 . S
N113 C112 1.347 . S
C114 C117 1.365 . S
C114 N119 1.328 . S
C114 H120 0.929 . S
C115 C116 1.362 . S
C115 C118 1.378 . S
C115 H130 0.929 . S
C116 C115 1.362 . S
C116 C117 1.366 . S
C117 C114 1.365 . S
C117 C116 1.366 . S
C117 H131 0.930 . S
C118 C115 1.378 . S
C118 N119 1.315 . S
C118 H121 0.930 . S
N119 Co99 2.194 . S
N119 C114 1.328 . S
N119 C118 1.315 . S
H120 C114 0.929 . S
H121 C118 0.930 . S
H122 C110 0.929 . S
H123 C112 0.929 . S
O124 Co99 2.351 . S
O124 C127 1.244 . S
O125 Co99 2.155 . S
O125 C127 1.240 . S
O126 Co99 2.096 . S
O126 C107 1.247 . S
C127 O124 1.244 . S
C127 O125 1.240 . S
H128 C102 0.931 . S
H129 C111 0.931 . S
H130 C115 0.929 . S
H131 C117 0.930 . S
Co132 N136 2.148 . S
Co132 N142 2.128 . S
Co132 N152 2.194 . S
Co132 O157 2.351 . S
Co132 O158 2.155 . S
Co132 O159 2.096 . S
C133 N136 1.301 . S
C133 N137 1.328 . S
C133 H138 0.930 . S
C134 C135 1.333 . S
C134 N136 1.317 1_655 S
C134 H139 0.930 . S
C135 C134 1.333 . S
C135 N137 1.350 1_655 S
C135 H161 0.931 . S
N136 Co132 2.148 . S
N136 C133 1.301 . S
N136 C134 1.317 1_455 S
N137 C133 1.328 . S
N137 C135 1.350 1_455 S
H138 C133 0.930 . S
H139 C134 0.930 . S
C140 O141 1.224 . S
C140 O159 1.247 . S
O141 C140 1.224 . S
N142 Co132 2.128 . S
N142 C143 1.355 . S
N142 C145 1.311 . S
C143 N142 1.355 . S
C143 C144 1.363 . S
C143 H155 0.929 . S
C144 C143 1.363 . S
C144 N146 1.375 . S
C144 H162 0.931 . S
C145 N142 1.311 . S
C145 N146 1.347 . S
C145 H156 0.929 . S
N146 C144 1.375 . S
N146 C145 1.347 . S
C147 C150 1.365 . S
C147 N152 1.328 . S
C147 H153 0.929 . S
C148 C149 1.362 . S
C148 C151 1.378 . S
C148 H163 0.929 . S
C149 C148 1.362 . S
C149 C150 1.366 . S
C150 C147 1.365 . S
C150 C149 1.366 . S
C150 H164 0.930 . S
C151 C148 1.378 . S
C151 N152 1.315 . S
C151 H154 0.930 . S
N152 Co132 2.194 . S
N152 C147 1.328 . S
N152 C151 1.315 . S
H153 C147 0.929 . S
H154 C151 0.930 . S
H155 C143 0.929 . S
H156 C145 0.929 . S
O157 Co132 2.351 . S
O157 C160 1.244 . S
O158 Co132 2.155 . S
O158 C160 1.240 . S
O159 Co132 2.096 . S
O159 C140 1.247 . S
C160 O157 1.244 . S
C160 O158 1.240 . S
H161 C135 0.931 . S
H162 C144 0.931 . S
H163 C148 0.929 . S
H164 C150 0.930 . S
Co165 N169 2.148 . S
Co165 N175 2.128 . S
Co165 N185 2.194 . S
Co165 O190 2.351 . S
Co165 O191 2.155 . S
Co165 O192 2.096 . S
C166 N169 1.301 . S
C166 N170 1.328 . S
C166 H171 0.930 . S
C167 C168 1.333 . S
C167 N169 1.317 . S
C167 H172 0.930 . S
C168 C167 1.333 . S
C168 N170 1.350 . S
C168 H194 0.931 . S
N169 Co165 2.148 . S
N169 C166 1.301 . S
N169 C167 1.317 . S
N170 C166 1.328 . S
N170 C168 1.350 . S
H171 C166 0.930 . S
H172 C167 0.930 . S
C173 O174 1.224 . S
C173 O192 1.247 . S
O174 C173 1.224 . S
N175 Co165 2.128 . S
N175 C176 1.355 . S
N175 C178 1.311 . S
C176 N175 1.355 . S
C176 C177 1.363 . S
C176 H188 0.929 . S
C177 C176 1.363 . S
C177 N179 1.375 1_556 S
C177 H195 0.931 . S
C178 N175 1.311 . S
C178 N179 1.347 1_556 S
C178 H189 0.929 1_556 S
N179 C177 1.375 1_554 S
N179 C178 1.347 1_554 S
C180 C183 1.365 . S
C180 N185 1.328 . S
C180 H186 0.929 . S
C181 C182 1.362 . S
C181 C184 1.378 . S
C181 H196 0.929 . S
C182 C181 1.362 . S
C182 C183 1.366 . S
C183 C180 1.365 . S
C183 C182 1.366 . S
C183 H197 0.930 . S
C184 C181 1.378 . S
C184 N185 1.315 . S
C184 H187 0.930 . S
N185 Co165 2.194 . S
N185 C180 1.328 . S
N185 C184 1.315 . S
H186 C180 0.929 . S
H187 C184 0.930 . S
H188 C176 0.929 . S
H189 C178 0.929 1_554 S
O190 Co165 2.351 . S
O190 C193 1.244 . S
O191 Co165 2.155 . S
O191 C193 1.240 . S
O192 Co165 2.096 . S
O192 C173 1.247 . S
C193 O190 1.244 . S
C193 O191 1.240 . S
H194 C168 0.931 . S
H195 C177 0.931 . S
H196 C181 0.929 . S
H197 C183 0.930 . S
Co198 N202 2.148 1_554 S
Co198 N208 2.128 . S
Co198 N218 2.194 . S
Co198 O223 2.351 1_554 S
Co198 O224 2.155 1_554 S
Co198 O225 2.096 . S
C199 N202 1.301 . S
C199 N203 1.328 . S
C199 H204 0.930 . S
C200 C201 1.333 . S
C200 N202 1.317 . S
C200 H205 0.930 1_556 S
C201 C200 1.333 . S
C201 N203 1.350 . S
C201 H227 0.931 . S
N202 Co198 2.148 1_556 S
N202 C199 1.301 . S
N202 C200 1.317 . S
N203 C199 1.328 . S
N203 C201 1.350 . S
H204 C199 0.930 . S
H205 C200 0.930 1_554 S
C206 O207 1.224 . S
C206 O225 1.247 . S
O207 C206 1.224 . S
N208 Co198 2.128 . S
N208 C209 1.355 . S
N208 C211 1.311 . S
C209 N208 1.355 . S
C209 C210 1.363 . S
C209 H221 0.929 . S
C210 C209 1.363 . S
C210 N212 1.375 . S
C210 H228 0.931 . S
C211 N208 1.311 . S
C211 N212 1.347 . S
C211 H222 0.929 . S
N212 C210 1.375 . S
N212 C211 1.347 . S
C213 C216 1.365 . S
C213 N218 1.328 1_556 S
C213 H219 0.929 . S
C214 C215 1.362 1_554 S
C214 C217 1.378 . S
C214 H229 0.929 . S
C215 C214 1.362 1_556 S
C215 C216 1.366 . S
C216 C213 1.365 . S
C216 C215 1.366 . S
C216 H230 0.930 . S
C217 C214 1.378 . S
C217 N218 1.315 . S
C217 H220 0.930 . S
N218 Co198 2.194 . S
N218 C213 1.328 1_554 S
N218 C217 1.315 . S
H219 C213 0.929 . S
H220 C217 0.930 . S
H221 C209 0.929 . S
H222 C211 0.929 . S
O223 Co198 2.351 1_556 S
O223 C226 1.244 . S
O224 Co198 2.155 1_556 S
O224 C226 1.240 . S
O225 Co198 2.096 . S
O225 C206 1.247 . S
C226 O223 1.244 . S
C226 O224 1.240 . S
H227 C201 0.931 . S
H228 C210 0.931 . S
H229 C214 0.929 . S
H230 C216 0.930 . S
Co231 N235 2.148 . S
Co231 N241 2.128 . S
Co231 N251 2.194 . S
Co231 O256 2.351 . S
Co231 O257 2.155 . S
Co231 O258 2.096 . S
C232 N235 1.301 . S
C232 N236 1.328 . S
C232 H237 0.930 . S
C233 C234 1.333 . S
C233 N235 1.317 . S
C233 H238 0.930 . S
C234 C233 1.333 . S
C234 N236 1.350 . S
C234 H260 0.931 . S
N235 Co231 2.148 . S
N235 C232 1.301 . S
N235 C233 1.317 . S
N236 C232 1.328 . S
N236 C234 1.350 . S
H237 C232 0.930 . S
H238 C233 0.930 . S
C239 O240 1.224 . S
C239 O258 1.247 . S
O240 C239 1.224 . S
N241 Co231 2.128 . S
N241 C242 1.355 . S
N241 C244 1.311 . S
C242 N241 1.355 . S
C242 C243 1.363 . S
C242 H254 0.929 . S
C243 C242 1.363 . S
C243 N245 1.375 . S
C243 H261 0.931 . S
C244 N241 1.311 . S
C244 N245 1.347 . S
C244 H255 0.929 . S
N245 C243 1.375 . S
N245 C244 1.347 . S
C246 C249 1.365 . S
C246 N251 1.328 . S
C246 H252 0.929 . S
C247 C248 1.362 . S
C247 C250 1.378 . S
C247 H262 0.929 . S
C248 C247 1.362 . S
C248 C249 1.366 . S
C249 C246 1.365 . S
C249 C248 1.366 . S
C249 H263 0.930 . S
C250 C247 1.378 . S
C250 N251 1.315 . S
C250 H253 0.930 . S
N251 Co231 2.194 . S
N251 C246 1.328 . S
N251 C250 1.315 . S
H252 C246 0.929 . S
H253 C250 0.930 . S
H254 C242 0.929 . S
H255 C244 0.929 . S
O256 Co231 2.351 . S
O256 C259 1.244 . S
O257 Co231 2.155 . S
O257 C259 1.240 . S
O258 Co231 2.096 . S
O258 C239 1.247 . S
C259 O256 1.244 . S
C259 O257 1.240 . S
H260 C234 0.931 . S
H261 C243 0.931 . S
H262 C247 0.929 . S
H263 C249 0.930 . S
Co264 N268 2.148 1_554 S
Co264 N274 2.128 . S
Co264 N284 2.194 . S
Co264 O289 2.351 1_554 S
Co264 O290 2.155 1_554 S
Co264 O291 2.096 . S
C265 N268 1.301 . S
C265 N269 1.350 . S
C265 H270 0.930 . S
C266 C267 1.333 . S
C266 N268 1.317 1_545 S
C266 H271 0.930 1_556 S
C267 C266 1.333 . S
C267 N269 1.333 1_545 S
C267 H293 0.931 . S
N268 Co264 2.148 1_556 S
N268 C265 1.301 . S
N268 C266 1.317 1_565 S
N269 C265 1.350 . S
N269 C267 1.333 1_565 S
H270 C265 0.930 . S
H271 C266 0.930 1_554 S
C272 O273 1.224 . S
C272 O291 1.247 . S
O273 C272 1.224 . S
N274 Co264 2.128 . S
N274 C275 1.355 . S
N274 C277 1.311 . S
C275 N274 1.355 . S
C275 C276 1.363 . S
C275 H287 0.929 . S
C276 C275 1.363 . S
C276 N278 1.375 . S
C276 H294 0.931 . S
C277 N274 1.311 . S
C277 N278 1.347 . S
C277 H288 0.929 . S
N278 C276 1.375 . S
N278 C277 1.347 . S
C279 C282 1.365 . S
C279 N284 1.328 1_556 S
C279 H285 0.929 . S
C280 C281 1.362 1_554 S
C280 C283 1.378 . S
C280 H295 0.929 . S
C281 C280 1.362 1_556 S
C281 C282 1.366 . S
C282 C279 1.365 . S
C282 C281 1.366 . S
C282 H296 0.930 . S
C283 C280 1.378 . S
C283 N284 1.315 . S
C283 H286 0.930 . S
N284 Co264 2.194 . S
N284 C279 1.328 1_554 S
N284 C283 1.315 . S
H285 C279 0.929 . S
H286 C283 0.930 . S
H287 C275 0.929 . S
H288 C277 0.929 . S
O289 Co264 2.351 1_556 S
O289 C292 1.244 . S
O290 Co264 2.155 1_556 S
O290 C292 1.240 . S
O291 Co264 2.096 . S
O291 C272 1.247 . S
C292 O289 1.244 . S
C292 O290 1.240 . S
H293 C267 0.931 . S
H294 C276 0.931 . S
H295 C280 0.929 . S
H296 C282 0.930 . S
Co297 N301 2.148 . S
Co297 N307 2.128 . S
Co297 N317 2.194 . S
Co297 O322 2.351 . S
Co297 O323 2.155 . S
Co297 O324 2.096 . S
C298 N301 1.301 . S
C298 N302 1.328 . S
C298 H303 0.930 . S
C299 C300 1.333 . S
C299 N301 1.317 . S
C299 H304 0.930 . S
C300 C299 1.333 . S
C300 N302 1.350 . S
C300 H326 0.931 . S
N301 Co297 2.148 . S
N301 C298 1.301 . S
N301 C299 1.317 . S
N302 C298 1.328 . S
N302 C300 1.350 . S
H303 C298 0.930 . S
H304 C299 0.930 . S
C305 O306 1.224 . S
C305 O324 1.247 . S
O306 C305 1.224 . S
N307 Co297 2.128 . S
N307 C308 1.355 . S
N307 C310 1.311 . S
C308 N307 1.355 . S
C308 C309 1.363 . S
C308 H320 0.929 . S
C309 C308 1.363 . S
C309 N311 1.375 1_556 S
C309 H327 0.931 . S
C310 N307 1.311 . S
C310 N311 1.347 1_556 S
C310 H321 0.929 1_556 S
N311 C309 1.375 1_554 S
N311 C310 1.347 1_554 S
C312 C315 1.365 . S
C312 N317 1.328 . S
C312 H318 0.929 . S
C313 C314 1.362 . S
C313 C316 1.378 . S
C313 H328 0.929 . S
C314 C313 1.362 . S
C314 C315 1.366 . S
C315 C312 1.365 . S
C315 C314 1.366 . S
C315 H329 0.930 . S
C316 C313 1.378 . S
C316 N317 1.315 . S
C316 H319 0.930 . S
N317 Co297 2.194 . S
N317 C312 1.328 . S
N317 C316 1.315 . S
H318 C312 0.929 . S
H319 C316 0.930 . S
H320 C308 0.929 . S
H321 C310 0.929 1_554 S
O322 Co297 2.351 . S
O322 C325 1.244 . S
O323 Co297 2.155 . S
O323 C325 1.240 . S
O324 Co297 2.096 . S
O324 C305 1.247 . S
C325 O322 1.244 . S
C325 O323 1.240 . S
H326 C300 0.931 . S
H327 C309 0.931 . S
H328 C313 0.929 . S
H329 C315 0.930 . S
Co330 N334 2.148 . S
Co330 N340 2.128 . S
Co330 N350 2.194 . S
Co330 O355 2.351 . S
Co330 O356 2.155 . S
Co330 O357 2.096 . S
C331 N334 1.301 . S
C331 N335 1.349 . S
C331 H336 0.930 . S
C332 C333 1.333 . S
C332 N334 1.317 1_565 S
C332 H337 0.930 . S
C333 C332 1.333 . S
C333 N335 1.333 1_565 S
C333 H359 0.931 . S
N334 Co330 2.148 . S
N334 C331 1.301 . S
N334 C332 1.317 1_545 S
N335 C331 1.349 . S
N335 C333 1.333 1_545 S
H336 C331 0.930 . S
H337 C332 0.930 . S
C338 O339 1.224 . S
C338 O357 1.247 . S
O339 C338 1.224 . S
N340 Co330 2.128 . S
N340 C341 1.355 . S
N340 C343 1.311 . S
C341 N340 1.355 . S
C341 C342 1.363 . S
C341 H353 0.929 . S
C342 C341 1.363 . S
C342 N344 1.375 . S
C342 H360 0.931 . S
C343 N340 1.311 . S
C343 N344 1.347 . S
C343 H354 0.929 . S
N344 C342 1.375 . S
N344 C343 1.347 . S
C345 C348 1.365 . S
C345 N350 1.328 . S
C345 H351 0.929 . S
C346 C347 1.362 . S
C346 C349 1.378 . S
C346 H361 0.929 . S
C347 C346 1.362 . S
C347 C348 1.366 . S
C348 C345 1.365 . S
C348 C347 1.366 . S
C348 H362 0.930 . S
C349 C346 1.378 . S
C349 N350 1.315 . S
C349 H352 0.930 . S
N350 Co330 2.194 . S
N350 C345 1.328 . S
N350 C349 1.315 . S
H351 C345 0.929 . S
H352 C349 0.930 . S
H353 C341 0.929 . S
H354 C343 0.929 . S
O355 Co330 2.351 . S
O355 C358 1.244 . S
O356 Co330 2.155 . S
O356 C358 1.240 . S
O357 Co330 2.096 . S
O357 C338 1.247 . S
C358 O355 1.244 . S
C358 O356 1.240 . S
H359 C333 0.931 . S
H360 C342 0.931 . S
H361 C346 0.929 . S
H362 C348 0.930 . S
Co363 N367 2.148 . S
Co363 N373 2.128 . S
Co363 N383 2.194 . S
Co363 O388 2.351 . S
Co363 O389 2.155 . S
Co363 O390 2.096 . S
C364 N367 1.301 . S
C364 N368 1.328 . S
C364 H369 0.930 . S
C365 C366 1.333 . S
C365 N367 1.317 . S
C365 H370 0.930 . S
C366 C365 1.333 . S
C366 N368 1.350 . S
C366 H392 0.931 . S
N367 Co363 2.148 . S
N367 C364 1.301 . S
N367 C365 1.317 . S
N368 C364 1.328 . S
N368 C366 1.350 . S
H369 C364 0.930 . S
H370 C365 0.930 . S
C371 O372 1.224 . S
C371 O390 1.247 . S
O372 C371 1.224 . S
N373 Co363 2.128 . S
N373 C374 1.355 . S
N373 C376 1.311 . S
C374 N373 1.355 . S
C374 C375 1.363 . S
C374 H386 0.929 . S
C375 C374 1.363 . S
C375 N377 1.375 . S
C375 H393 0.931 . S
C376 N373 1.311 . S
C376 N377 1.347 . S
C376 H387 0.929 . S
N377 C375 1.375 . S
N377 C376 1.347 . S
C378 C381 1.365 . S
C378 N383 1.328 . S
C378 H384 0.929 . S
C379 C380 1.362 . S
C379 C382 1.378 . S
C379 H394 0.929 . S
C380 C379 1.362 . S
C380 C381 1.366 . S
C381 C378 1.365 . S
C381 C380 1.366 . S
C381 H395 0.930 . S
C382 C379 1.378 . S
C382 N383 1.315 . S
C382 H385 0.930 . S
N383 Co363 2.194 . S
N383 C378 1.328 . S
N383 C382 1.315 . S
H384 C378 0.929 . S
H385 C382 0.930 . S
H386 C374 0.929 . S
H387 C376 0.929 . S
O388 Co363 2.351 . S
O388 C391 1.244 . S
O389 Co363 2.155 . S
O389 C391 1.240 . S
O390 Co363 2.096 . S
O390 C371 1.247 . S
C391 O388 1.244 . S
C391 O389 1.240 . S
H392 C366 0.931 . S
H393 C375 0.931 . S
H394 C379 0.929 . S
H395 C381 0.930 . S
Co396 N400 2.148 . S
Co396 N406 2.128 . S
Co396 N416 2.194 . S
Co396 O421 2.351 . S
Co396 O422 2.155 . S
Co396 O423 2.096 . S
C397 N400 1.301 . S
C397 N401 1.349 . S
C397 H402 0.930 . S
C398 C399 1.333 . S
C398 N400 1.317 1_565 S
C398 H403 0.930 . S
C399 C398 1.333 . S
C399 N401 1.333 1_565 S
C399 H425 0.931 . S
N400 Co396 2.148 . S
N400 C397 1.301 . S
N400 C398 1.317 1_545 S
N401 C397 1.349 . S
N401 C399 1.333 1_545 S
H402 C397 0.930 . S
H403 C398 0.930 . S
C404 O405 1.224 . S
C404 O423 1.247 . S
O405 C404 1.224 . S
N406 Co396 2.128 . S
N406 C407 1.355 . S
N406 C409 1.311 . S
C407 N406 1.355 . S
C407 C408 1.363 . S
C407 H419 0.929 . S
C408 C407 1.363 . S
C408 N410 1.375 . S
C408 H426 0.931 . S
C409 N406 1.311 . S
C409 N410 1.347 . S
C409 H420 0.929 . S
N410 C408 1.375 . S
N410 C409 1.347 . S
C411 C414 1.365 . S
C411 N416 1.328 . S
C411 H417 0.929 . S
C412 C413 1.362 . S
C412 C415 1.378 . S
C412 H427 0.929 . S
C413 C412 1.362 . S
C413 C414 1.366 . S
C414 C411 1.365 . S
C414 C413 1.366 . S
C414 H428 0.930 . S
C415 C412 1.378 . S
C415 N416 1.315 . S
C415 H418 0.930 . S
N416 Co396 2.194 . S
N416 C411 1.328 . S
N416 C415 1.315 . S
H417 C411 0.929 . S
H418 C415 0.930 . S
H419 C407 0.929 . S
H420 C409 0.929 . S
O421 Co396 2.351 . S
O421 C424 1.244 . S
O422 Co396 2.155 . S
O422 C424 1.240 . S
O423 Co396 2.096 . S
O423 C404 1.247 . S
C424 O421 1.244 . S
C424 O422 1.240 . S
H425 C399 0.931 . S
H426 C408 0.931 . S
H427 C412 0.929 . S
H428 C414 0.930 . S
Co429 N433 2.148 . S
Co429 N439 2.128 . S
Co429 N449 2.194 . S
Co429 O454 2.351 . S
Co429 O455 2.155 . S
Co429 O456 2.096 . S
C430 N433 1.301 . S
C430 N434 1.328 . S
C430 H435 0.930 . S
C431 C432 1.333 . S
C431 N433 1.317 . S
C431 H436 0.930 . S
C432 C431 1.333 . S
C432 N434 1.350 . S
C432 H458 0.931 . S
N433 Co429 2.148 . S
N433 C430 1.301 . S
N433 C431 1.317 . S
N434 C430 1.328 . S
N434 C432 1.350 . S
H435 C430 0.930 . S
H436 C431 0.930 . S
C437 O438 1.224 . S
C437 O456 1.247 . S
O438 C437 1.224 . S
N439 Co429 2.128 . S
N439 C440 1.355 . S
N439 C442 1.311 . S
C440 N439 1.355 . S
C440 C441 1.363 . S
C440 H452 0.929 . S
C441 C440 1.363 . S
C441 N443 1.375 . S
C441 H459 0.931 . S
C442 N439 1.311 . S
C442 N443 1.347 . S
C442 H453 0.929 . S
N443 C441 1.375 . S
N443 C442 1.347 . S
C444 C447 1.365 . S
C444 N449 1.328 . S
C444 H450 0.929 . S
C445 C446 1.362 . S
C445 C448 1.378 . S
C445 H460 0.929 . S
C446 C445 1.362 . S
C446 C447 1.366 . S
C447 C444 1.365 . S
C447 C446 1.366 . S
C447 H461 0.930 . S
C448 C445 1.378 . S
C448 N449 1.315 . S
C448 H451 0.930 . S
N449 Co429 2.194 . S
N449 C444 1.328 . S
N449 C448 1.315 . S
H450 C444 0.929 . S
H451 C448 0.930 . S
H452 C440 0.929 . S
H453 C442 0.929 . S
O454 Co429 2.351 . S
O454 C457 1.244 . S
O455 Co429 2.155 . S
O455 C457 1.240 . S
O456 Co429 2.096 . S
O456 C437 1.247 . S
C457 O454 1.244 . S
C457 O455 1.240 . S
H458 C432 0.931 . S
H459 C441 0.931 . S
H460 C445 0.929 . S
H461 C447 0.930 . S
Co462 N466 2.148 . S
Co462 N472 2.128 1_554 S
Co462 N482 2.194 . S
Co462 O487 2.351 . S
Co462 O488 2.155 . S
Co462 O489 2.096 1_554 S
C463 N466 1.301 . S
C463 N467 1.349 . S
C463 H468 0.930 . S
C464 C465 1.333 . S
C464 N466 1.317 1_545 S
C464 H469 0.930 . S
C465 C464 1.333 . S
C465 N467 1.333 1_545 S
C465 H491 0.931 . S
N466 Co462 2.148 . S
N466 C463 1.301 . S
N466 C464 1.317 1_565 S
N467 C463 1.349 . S
N467 C465 1.333 1_565 S
H468 C463 0.930 . S
H469 C464 0.930 . S
C470 O471 1.224 . S
C470 O489 1.247 . S
O471 C470 1.224 . S
N472 Co462 2.128 1_556 S
N472 C473 1.355 . S
N472 C475 1.311 . S
C473 N472 1.355 . S
C473 C474 1.363 . S
C473 H485 0.929 1_556 S
C474 C473 1.363 . S
C474 N476 1.375 . S
C474 H492 0.931 . S
C475 N472 1.311 . S
C475 N476 1.347 . S
C475 H486 0.929 . S
N476 C474 1.375 . S
N476 C475 1.347 . S
C477 C480 1.365 . S
C477 N482 1.328 . S
C477 H483 0.929 . S
C478 C479 1.362 . S
C478 C481 1.378 . S
C478 H493 0.929 1_554 S
C479 C478 1.362 . S
C479 C480 1.366 . S
C480 C477 1.365 . S
C480 C479 1.366 . S
C480 H494 0.930 . S
C481 C478 1.378 . S
C481 N482 1.315 . S
C481 H484 0.930 1_554 S
N482 Co462 2.194 . S
N482 C477 1.328 . S
N482 C481 1.315 . S
H483 C477 0.929 . S
H484 C481 0.930 1_556 S
H485 C473 0.929 1_554 S
H486 C475 0.929 . S
O487 Co462 2.351 . S
O487 C490 1.244 . S
O488 Co462 2.155 . S
O488 C490 1.240 . S
O489 Co462 2.096 1_556 S
O489 C470 1.247 . S
C490 O487 1.244 . S
C490 O488 1.240 . S
H491 C465 0.931 . S
H492 C474 0.931 . S
H493 C478 0.929 1_556 S
H494 C480 0.930 . S
Co495 N499 2.148 . S
Co495 N505 2.128 . S
Co495 N515 2.194 . S
Co495 O520 2.351 . S
Co495 O521 2.155 . S
Co495 O522 2.096 . S
C496 N499 1.301 1_554 S
C496 N500 1.328 . S
C496 H501 0.930 . S
C497 C498 1.333 . S
C497 N499 1.317 . S
C497 H502 0.930 . S
C498 C497 1.333 . S
C498 N500 1.350 1_556 S
C498 H524 0.931 . S
N499 Co495 2.148 . S
N499 C496 1.301 1_556 S
N499 C497 1.317 . S
N500 C496 1.328 . S
N500 C498 1.350 1_554 S
H501 C496 0.930 . S
H502 C497 0.930 . S
C503 O504 1.224 . S
C503 O522 1.247 . S
O504 C503 1.224 . S
N505 Co495 2.128 . S
N505 C506 1.355 . S
N505 C508 1.311 . S
C506 N505 1.355 . S
C506 C507 1.363 . S
C506 H518 0.929 . S
C507 C506 1.363 . S
C507 N509 1.375 . S
C507 H525 0.931 . S
C508 N505 1.311 . S
C508 N509 1.347 . S
C508 H519 0.929 . S
N509 C507 1.375 . S
N509 C508 1.347 . S
C510 C513 1.365 . S
C510 N515 1.328 . S
C510 H516 0.929 . S
C511 C512 1.362 . S
C511 C514 1.378 . S
C511 H526 0.929 . S
C512 C511 1.362 . S
C512 C513 1.366 . S
C513 C510 1.365 . S
C513 C512 1.366 . S
C513 H527 0.930 . S
C514 C511 1.378 . S
C514 N515 1.315 . S
C514 H517 0.930 . S
N515 Co495 2.194 . S
N515 C510 1.328 . S
N515 C514 1.315 . S
H516 C510 0.929 . S
H517 C514 0.930 . S
H518 C506 0.929 . S
H519 C508 0.929 . S
O520 Co495 2.351 . S
O520 C523 1.244 . S
O521 Co495 2.155 . S
O521 C523 1.240 . S
O522 Co495 2.096 . S
O522 C503 1.247 . S
C523 O520 1.244 . S
C523 O521 1.240 . S
H524 C498 0.931 . S
H525 C507 0.931 . S
H526 C511 0.929 . S
H527 C513 0.930 . S
Co528 N532 2.148 . S
Co528 N538 2.128 . S
Co528 N548 2.194 . S
Co528 O553 2.351 . S
Co528 O554 2.155 . S
Co528 O555 2.096 . S
C529 N532 1.301 . S
C529 N533 1.328 . S
C529 H534 0.930 . S
C530 C531 1.333 . S
C530 N532 1.317 . S
C530 H535 0.930 . S
C531 C530 1.333 . S
C531 N533 1.350 . S
C531 H557 0.931 . S
N532 Co528 2.148 . S
N532 C529 1.301 . S
N532 C530 1.317 . S
N533 C529 1.328 . S
N533 C531 1.350 . S
H534 C529 0.930 . S
H535 C530 0.930 . S
C536 O537 1.224 . S
C536 O555 1.247 . S
O537 C536 1.224 . S
N538 Co528 2.128 . S
N538 C539 1.355 . S
N538 C541 1.311 . S
C539 N538 1.355 . S
C539 C540 1.363 . S
C539 H551 0.929 . S
C540 C539 1.363 . S
C540 N542 1.375 . S
C540 H558 0.931 . S
C541 N538 1.311 . S
C541 N542 1.347 . S
C541 H552 0.929 . S
N542 C540 1.375 . S
N542 C541 1.347 . S
C543 C546 1.365 . S
C543 N548 1.328 . S
C543 H549 0.929 . S
C544 C545 1.362 . S
C544 C547 1.378 . S
C544 H559 0.929 . S
C545 C544 1.362 . S
C545 C546 1.366 . S
C546 C543 1.365 . S
C546 C545 1.366 . S
C546 H560 0.930 . S
C547 C544 1.378 . S
C547 N548 1.315 . S
C547 H550 0.930 . S
N548 Co528 2.194 . S
N548 C543 1.328 . S
N548 C547 1.315 . S
H549 C543 0.929 . S
H550 C547 0.930 . S
H551 C539 0.929 . S
H552 C541 0.929 . S
O553 Co528 2.351 . S
O553 C556 1.244 . S
O554 Co528 2.155 . S
O554 C556 1.240 . S
O555 Co528 2.096 . S
O555 C536 1.247 . S
C556 O553 1.244 . S
C556 O554 1.240 . S
H557 C531 0.931 . S
H558 C540 0.931 . S
H559 C544 0.929 . S
H560 C546 0.930 . S
Co561 N565 2.148 . S
Co561 N571 2.128 . S
Co561 N581 2.194 . S
Co561 O586 2.351 . S
Co561 O587 2.155 . S
Co561 O588 2.096 . S
C562 N565 1.301 1_554 S
C562 N566 1.328 . S
C562 H567 0.930 . S
C563 C564 1.333 1_556 S
C563 N565 1.317 . S
C563 H568 0.930 . S
C564 C563 1.333 1_554 S
C564 N566 1.350 . S
C564 H590 0.931 . S
N565 Co561 2.148 . S
N565 C562 1.301 1_556 S
N565 C563 1.317 . S
N566 C562 1.328 . S
N566 C564 1.350 . S
H567 C562 0.930 . S
H568 C563 0.930 . S
C569 O570 1.224 . S
C569 O588 1.247 . S
O570 C569 1.224 . S
N571 Co561 2.128 . S
N571 C572 1.355 . S
N571 C574 1.311 . S
C572 N571 1.355 . S
C572 C573 1.363 . S
C572 H584 0.929 . S
C573 C572 1.363 . S
C573 N575 1.375 . S
C573 H591 0.931 . S
C574 N571 1.311 . S
C574 N575 1.347 . S
C574 H585 0.929 . S
N575 C573 1.375 . S
N575 C574 1.347 . S
C576 C579 1.365 . S
C576 N581 1.328 . S
C576 H582 0.929 . S
C577 C578 1.362 . S
C577 C580 1.378 . S
C577 H592 0.929 . S
C578 C577 1.362 . S
C578 C579 1.366 . S
C579 C576 1.365 . S
C579 C578 1.366 . S
C579 H593 0.930 . S
C580 C577 1.378 . S
C580 N581 1.315 . S
C580 H583 0.930 . S
N581 Co561 2.194 . S
N581 C576 1.328 . S
N581 C580 1.315 . S
H582 C576 0.929 . S
H583 C580 0.930 . S
H584 C572 0.929 . S
H585 C574 0.929 . S
O586 Co561 2.351 . S
O586 C589 1.244 . S
O587 Co561 2.155 . S
O587 C589 1.240 . S
O588 Co561 2.096 . S
O588 C569 1.247 . S
C589 O586 1.244 . S
C589 O587 1.240 . S
H590 C564 0.931 . S
H591 C573 0.931 . S
H592 C577 0.929 . S
H593 C579 0.930 . S
Co594 N598 2.148 . S
Co594 N604 2.128 1_554 S
Co594 N614 2.194 . S
Co594 O619 2.351 . S
Co594 O620 2.155 . S
Co594 O621 2.096 1_554 S
C595 N598 1.301 . S
C595 N599 1.328 . S
C595 H600 0.930 . S
C596 C597 1.333 . S
C596 N598 1.317 1_455 S
C596 H601 0.930 . S
C597 C596 1.333 . S
C597 N599 1.350 1_455 S
C597 H623 0.931 . S
N598 Co594 2.148 . S
N598 C595 1.301 . S
N598 C596 1.317 1_655 S
N599 C595 1.328 . S
N599 C597 1.350 1_655 S
H600 C595 0.930 . S
H601 C596 0.930 . S
C602 O603 1.224 . S
C602 O621 1.247 . S
O603 C602 1.224 . S
N604 Co594 2.128 1_556 S
N604 C605 1.355 . S
N604 C607 1.311 . S
C605 N604 1.355 . S
C605 C606 1.363 . S
C605 H617 0.929 1_556 S
C606 C605 1.363 . S
C606 N608 1.375 . S
C606 H624 0.931 . S
C607 N604 1.311 . S
C607 N608 1.347 . S
C607 H618 0.929 . S
N608 C606 1.375 . S
N608 C607 1.347 . S
C609 C612 1.365 . S
C609 N614 1.328 . S
C609 H615 0.929 . S
C610 C611 1.362 . S
C610 C613 1.378 . S
C610 H625 0.929 1_554 S
C611 C610 1.362 . S
C611 C612 1.366 . S
C612 C609 1.365 . S
C612 C611 1.366 . S
C612 H626 0.930 . S
C613 C610 1.378 . S
C613 N614 1.315 . S
C613 H616 0.930 1_554 S
N614 Co594 2.194 . S
N614 C609 1.328 . S
N614 C613 1.315 . S
H615 C609 0.929 . S
H616 C613 0.930 1_556 S
H617 C605 0.929 1_554 S
H618 C607 0.929 . S
O619 Co594 2.351 . S
O619 C622 1.244 . S
O620 Co594 2.155 . S
O620 C622 1.240 . S
O621 Co594 2.096 1_556 S
O621 C602 1.247 . S
C622 O619 1.244 . S
C622 O620 1.240 . S
H623 C597 0.931 . S
H624 C606 0.931 . S
H625 C610 0.929 1_556 S
H626 C612 0.930 . S
Co627 N631 2.148 . S
Co627 N637 2.128 . S
Co627 N647 2.194 . S
Co627 O652 2.351 . S
Co627 O653 2.155 . S
Co627 O654 2.096 . S
C628 N631 1.301 . S
C628 N632 1.328 . S
C628 H633 0.930 . S
C629 C630 1.333 . S
C629 N631 1.317 . S
C629 H634 0.930 . S
C630 C629 1.333 . S
C630 N632 1.350 . S
C630 H656 0.931 . S
N631 Co627 2.148 . S
N631 C628 1.301 . S
N631 C629 1.317 . S
N632 C628 1.328 . S
N632 C630 1.350 . S
H633 C628 0.930 . S
H634 C629 0.930 . S
C635 O636 1.224 . S
C635 O654 1.247 . S
O636 C635 1.224 . S
N637 Co627 2.128 . S
N637 C638 1.355 . S
N637 C640 1.311 . S
C638 N637 1.355 . S
C638 C639 1.363 . S
C638 H650 0.929 . S
C639 C638 1.363 . S
C639 N641 1.375 . S
C639 H657 0.931 . S
C640 N637 1.311 . S
C640 N641 1.347 . S
C640 H651 0.929 . S
N641 C639 1.375 . S
N641 C640 1.347 . S
C642 C645 1.365 . S
C642 N647 1.328 . S
C642 H648 0.929 . S
C643 C644 1.362 . S
C643 C646 1.378 . S
C643 H658 0.929 . S
C644 C643 1.362 . S
C644 C645 1.366 . S
C645 C642 1.365 . S
C645 C644 1.366 . S
C645 H659 0.930 . S
C646 C643 1.378 . S
C646 N647 1.315 . S
C646 H649 0.930 . S
N647 Co627 2.194 . S
N647 C642 1.328 . S
N647 C646 1.315 . S
H648 C642 0.929 . S
H649 C646 0.930 . S
H650 C638 0.929 . S
H651 C640 0.929 . S
O652 Co627 2.351 . S
O652 C655 1.244 . S
O653 Co627 2.155 . S
O653 C655 1.240 . S
O654 Co627 2.096 . S
O654 C635 1.247 . S
C655 O652 1.244 . S
C655 O653 1.240 . S
H656 C630 0.931 . S
H657 C639 0.931 . S
H658 C643 0.929 . S
H659 C645 0.930 . S
Co660 N664 2.148 1_554 S
Co660 N670 2.128 . S
Co660 N680 2.194 . S
Co660 O685 2.351 1_554 S
Co660 O686 2.155 1_554 S
Co660 O687 2.096 . S
C661 N664 1.301 . S
C661 N665 1.328 . S
C661 H666 0.930 . S
C662 C663 1.333 . S
C662 N664 1.317 . S
C662 H667 0.930 1_556 S
C663 C662 1.333 . S
C663 N665 1.350 . S
C663 H689 0.931 . S
N664 Co660 2.148 1_556 S
N664 C661 1.301 . S
N664 C662 1.317 . S
N665 C661 1.328 . S
N665 C663 1.350 . S
H666 C661 0.930 . S
H667 C662 0.930 1_554 S
C668 O669 1.224 . S
C668 O687 1.247 . S
O669 C668 1.224 . S
N670 Co660 2.128 . S
N670 C671 1.355 . S
N670 C673 1.311 . S
C671 N670 1.355 . S
C671 C672 1.363 . S
C671 H683 0.929 . S
C672 C671 1.363 . S
C672 N674 1.375 . S
C672 H690 0.931 . S
C673 N670 1.311 . S
C673 N674 1.347 . S
C673 H684 0.929 . S
N674 C672 1.375 . S
N674 C673 1.347 . S
C675 C678 1.365 . S
C675 N680 1.328 1_556 S
C675 H681 0.929 . S
C676 C677 1.362 1_554 S
C676 C679 1.378 . S
C676 H691 0.929 . S
C677 C676 1.362 1_556 S
C677 C678 1.366 . S
C678 C675 1.365 . S
C678 C677 1.366 . S
C678 H692 0.930 . S
C679 C676 1.378 . S
C679 N680 1.315 . S
C679 H682 0.930 . S
N680 Co660 2.194 . S
N680 C675 1.328 1_554 S
N680 C679 1.315 . S
H681 C675 0.929 . S
H682 C679 0.930 . S
H683 C671 0.929 . S
H684 C673 0.929 . S
O685 Co660 2.351 1_556 S
O685 C688 1.244 . S
O686 Co660 2.155 1_556 S
O686 C688 1.240 . S
O687 Co660 2.096 . S
O687 C668 1.247 . S
C688 O685 1.244 . S
C688 O686 1.240 . S
H689 C663 0.931 . S
H690 C672 0.931 . S
H691 C676 0.929 . S
H692 C678 0.930 . S
Co693 N697 2.148 . S
Co693 N703 2.128 . S
Co693 N713 2.194 . S
Co693 O718 2.351 . S
Co693 O719 2.155 . S
Co693 O720 2.096 . S
C694 N697 1.301 . S
C694 N698 1.328 . S
C694 H699 0.930 . S
C695 C696 1.333 . S
C695 N697 1.317 . S
C695 H700 0.930 . S
C696 C695 1.333 . S
C696 N698 1.350 . S
C696 H722 0.931 . S
N697 Co693 2.148 . S
N697 C694 1.301 . S
N697 C695 1.317 . S
N698 C694 1.328 . S
N698 C696 1.350 . S
H699 C694 0.930 . S
H700 C695 0.930 . S
C701 O702 1.224 . S
C701 O720 1.247 . S
O702 C701 1.224 . S
N703 Co693 2.128 . S
N703 C704 1.355 . S
N703 C706 1.311 . S
C704 N703 1.355 . S
C704 C705 1.363 . S
C704 H716 0.929 . S
C705 C704 1.363 . S
C705 N707 1.375 . S
C705 H723 0.931 . S
C706 N703 1.311 . S
C706 N707 1.347 . S
C706 H717 0.929 . S
N707 C705 1.375 . S
N707 C706 1.347 . S
C708 C711 1.365 . S
C708 N713 1.328 . S
C708 H714 0.929 . S
C709 C710 1.362 . S
C709 C712 1.378 . S
C709 H724 0.929 . S
C710 C709 1.362 . S
C710 C711 1.366 . S
C711 C708 1.365 . S
C711 C710 1.366 . S
C711 H725 0.930 . S
C712 C709 1.378 . S
C712 N713 1.315 . S
C712 H715 0.930 . S
N713 Co693 2.194 . S
N713 C708 1.328 . S
N713 C712 1.315 . S
H714 C708 0.929 . S
H715 C712 0.930 . S
H716 C704 0.929 . S
H717 C706 0.929 . S
O718 Co693 2.351 . S
O718 C721 1.244 . S
O719 Co693 2.155 . S
O719 C721 1.240 . S
O720 Co693 2.096 . S
O720 C701 1.247 . S
C721 O718 1.244 . S
C721 O719 1.240 . S
H722 C696 0.931 . S
H723 C705 0.931 . S
H724 C709 0.929 . S
H725 C711 0.930 . S
Co726 N730 2.148 . S
Co726 N736 2.128 . S
Co726 N746 2.194 . S
Co726 O751 2.351 . S
Co726 O752 2.155 . S
Co726 O753 2.096 . S
C727 N730 1.301 . S
C727 N731 1.328 . S
C727 H732 0.930 . S
C728 C729 1.333 . S
C728 N730 1.317 1_455 S
C728 H733 0.930 . S
C729 C728 1.333 . S
C729 N731 1.350 1_455 S
C729 H755 0.931 . S
N730 Co726 2.148 . S
N730 C727 1.301 . S
N730 C728 1.317 1_655 S
N731 C727 1.328 . S
N731 C729 1.350 1_655 S
H732 C727 0.930 . S
H733 C728 0.930 . S
C734 O735 1.224 . S
C734 O753 1.247 . S
O735 C734 1.224 . S
N736 Co726 2.128 . S
N736 C737 1.355 . S
N736 C739 1.311 . S
C737 N736 1.355 . S
C737 C738 1.363 . S
C737 H749 0.929 . S
C738 C737 1.363 . S
C738 N740 1.375 . S
C738 H756 0.931 . S
C739 N736 1.311 . S
C739 N740 1.347 . S
C739 H750 0.929 . S
N740 C738 1.375 . S
N740 C739 1.347 . S
C741 C744 1.365 . S
C741 N746 1.328 . S
C741 H747 0.929 . S
C742 C743 1.362 . S
C742 C745 1.378 . S
C742 H757 0.929 . S
C743 C742 1.362 . S
C743 C744 1.366 . S
C744 C741 1.365 . S
C744 C743 1.366 . S
C744 H758 0.930 . S
C745 C742 1.378 . S
C745 N746 1.315 . S
C745 H748 0.930 . S
N746 Co726 2.194 . S
N746 C741 1.328 . S
N746 C745 1.315 . S
H747 C741 0.929 . S
H748 C745 0.930 . S
H749 C737 0.929 . S
H750 C739 0.929 . S
O751 Co726 2.351 . S
O751 C754 1.244 . S
O752 Co726 2.155 . S
O752 C754 1.240 . S
O753 Co726 2.096 . S
O753 C734 1.247 . S
C754 O751 1.244 . S
C754 O752 1.240 . S
H755 C729 0.931 . S
H756 C738 0.931 . S
H757 C742 0.929 . S
H758 C744 0.930 . S
Co759 N763 2.148 . S
Co759 N769 2.128 . S
Co759 N779 2.194 . S
Co759 O784 2.351 . S
Co759 O785 2.155 . S
Co759 O786 2.096 . S
C760 N763 1.301 . S
C760 N764 1.328 . S
C760 H765 0.930 . S
C761 C762 1.333 . S
C761 N763 1.317 . S
C761 H766 0.930 . S
C762 C761 1.333 . S
C762 N764 1.350 . S
C762 H788 0.931 . S
N763 Co759 2.148 . S
N763 C760 1.301 . S
N763 C761 1.317 . S
N764 C760 1.328 . S
N764 C762 1.350 . S
H765 C760 0.930 . S
H766 C761 0.930 . S
C767 O768 1.224 . S
C767 O786 1.247 . S
O768 C767 1.224 . S
N769 Co759 2.128 . S
N769 C770 1.355 . S
N769 C772 1.311 . S
C770 N769 1.355 . S
C770 C771 1.363 . S
C770 H782 0.929 . S
C771 C770 1.363 . S
C771 N773 1.375 1_556 S
C771 H789 0.931 . S
C772 N769 1.311 . S
C772 N773 1.347 1_556 S
C772 H783 0.929 1_556 S
N773 C771 1.375 1_554 S
N773 C772 1.347 1_554 S
C774 C777 1.365 . S
C774 N779 1.328 . S
C774 H780 0.929 . S
C775 C776 1.362 . S
C775 C778 1.378 . S
C775 H790 0.929 . S
C776 C775 1.362 . S
C776 C777 1.366 . S
C777 C774 1.365 . S
C777 C776 1.366 . S
C777 H791 0.930 . S
C778 C775 1.378 . S
C778 N779 1.315 . S
C778 H781 0.930 . S
N779 Co759 2.194 . S
N779 C774 1.328 . S
N779 C778 1.315 . S
H780 C774 0.929 . S
H781 C778 0.930 . S
H782 C770 0.929 . S
H783 C772 0.929 1_554 S
O784 Co759 2.351 . S
O784 C787 1.244 . S
O785 Co759 2.155 . S
O785 C787 1.240 . S
O786 Co759 2.096 . S
O786 C767 1.247 . S
C787 O784 1.244 . S
C787 O785 1.240 . S
H788 C762 0.931 . S
H789 C771 0.931 . S
H790 C775 0.929 . S
H791 C777 0.930 . S
Co792 N796 2.148 . S
Co792 N802 2.128 . S
Co792 N812 2.194 . S
Co792 O817 2.351 . S
Co792 O818 2.155 . S
Co792 O819 2.096 . S
C793 N796 1.301 . S
C793 N797 1.328 . S
C793 H798 0.930 . S
C794 C795 1.333 . S
C794 N796 1.317 . S
C794 H799 0.930 . S
C795 C794 1.333 . S
C795 N797 1.350 . S
C795 H821 0.931 . S
N796 Co792 2.148 . S
N796 C793 1.301 . S
N796 C794 1.317 . S
N797 C793 1.328 . S
N797 C795 1.350 . S
H798 C793 0.930 . S
H799 C794 0.930 . S
C800 O801 1.224 . S
C800 O819 1.247 . S
O801 C800 1.224 . S
N802 Co792 2.128 . S
N802 C803 1.355 . S
N802 C805 1.311 . S
C803 N802 1.355 . S
C803 C804 1.363 . S
C803 H815 0.929 . S
C804 C803 1.363 . S
C804 N806 1.375 . S
C804 H822 0.931 . S
C805 N802 1.311 . S
C805 N806 1.347 . S
C805 H816 0.929 . S
N806 C804 1.375 . S
N806 C805 1.347 . S
C807 C810 1.365 . S
C807 N812 1.328 . S
C807 H813 0.929 . S
C808 C809 1.362 . S
C808 C811 1.378 . S
C808 H823 0.929 . S
C809 C808 1.362 . S
C809 C810 1.366 . S
C810 C807 1.365 . S
C810 C809 1.366 . S
C810 H824 0.930 . S
C811 C808 1.378 . S
C811 N812 1.315 . S
C811 H814 0.930 . S
N812 Co792 2.194 . S
N812 C807 1.328 . S
N812 C811 1.315 . S
H813 C807 0.929 . S
H814 C811 0.930 . S
H815 C803 0.929 . S
H816 C805 0.929 . S
O817 Co792 2.351 . S
O817 C820 1.244 . S
O818 Co792 2.155 . S
O818 C820 1.240 . S
O819 Co792 2.096 . S
O819 C800 1.247 . S
C820 O817 1.244 . S
C820 O818 1.240 . S
H821 C795 0.931 . S
H822 C804 0.931 . S
H823 C808 0.929 . S
H824 C810 0.930 . S
Co825 N829 2.148 . S
Co825 N835 2.128 . S
Co825 N845 2.194 . S
Co825 O850 2.351 . S
Co825 O851 2.155 . S
Co825 O852 2.096 . S
C826 N829 1.301 . S
C826 N830 1.328 . S
C826 H831 0.930 . S
C827 C828 1.333 . S
C827 N829 1.317 . S
C827 H832 0.930 . S
C828 C827 1.333 . S
C828 N830 1.350 . S
C828 H854 0.931 . S
N829 Co825 2.148 . S
N829 C826 1.301 . S
N829 C827 1.317 . S
N830 C826 1.328 . S
N830 C828 1.350 . S
H831 C826 0.930 . S
H832 C827 0.930 . S
C833 O834 1.224 . S
C833 O852 1.247 . S
O834 C833 1.224 . S
N835 Co825 2.128 . S
N835 C836 1.355 . S
N835 C838 1.311 . S
C836 N835 1.355 . S
C836 C837 1.363 . S
C836 H848 0.929 . S
C837 C836 1.363 . S
C837 N839 1.375 . S
C837 H855 0.931 . S
C838 N835 1.311 . S
C838 N839 1.347 . S
C838 H849 0.929 . S
N839 C837 1.375 . S
N839 C838 1.347 . S
C840 C843 1.365 . S
C840 N845 1.328 . S
C840 H846 0.929 . S
C841 C842 1.362 . S
C841 C844 1.378 . S
C841 H856 0.929 . S
C842 C841 1.362 . S
C842 C843 1.366 . S
C843 C840 1.365 . S
C843 C842 1.366 . S
C843 H857 0.930 . S
C844 C841 1.378 . S
C844 N845 1.315 . S
C844 H847 0.930 . S
N845 Co825 2.194 . S
N845 C840 1.328 . S
N845 C844 1.315 . S
H846 C840 0.929 . S
H847 C844 0.930 . S
H848 C836 0.929 . S
H849 C838 0.929 . S
O850 Co825 2.351 . S
O850 C853 1.244 . S
O851 Co825 2.155 . S
O851 C853 1.240 . S
O852 Co825 2.096 . S
O852 C833 1.247 . S
C853 O850 1.244 . S
C853 O851 1.240 . S
H854 C828 0.931 . S
H855 C837 0.931 . S
H856 C841 0.929 . S
H857 C843 0.930 . S
Co858 N862 2.148 1_554 S
Co858 N868 2.128 . S
Co858 N878 2.194 . S
Co858 O883 2.351 1_554 S
Co858 O884 2.155 1_554 S
Co858 O885 2.096 . S
C859 N862 1.301 . S
C859 N863 1.328 . S
C859 H864 0.930 . S
C860 C861 1.333 . S
C860 N862 1.317 . S
C860 H865 0.930 1_556 S
C861 C860 1.333 . S
C861 N863 1.350 . S
C861 H887 0.931 . S
N862 Co858 2.148 1_556 S
N862 C859 1.301 . S
N862 C860 1.317 . S
N863 C859 1.328 . S
N863 C861 1.350 . S
H864 C859 0.930 . S
H865 C860 0.930 1_554 S
C866 O867 1.224 . S
C866 O885 1.247 . S
O867 C866 1.224 . S
N868 Co858 2.128 . S
N868 C869 1.355 . S
N868 C871 1.311 . S
C869 N868 1.355 . S
C869 C870 1.363 . S
C869 H881 0.929 . S
C870 C869 1.363 . S
C870 N872 1.375 . S
C870 H888 0.931 . S
C871 N868 1.311 . S
C871 N872 1.347 . S
C871 H882 0.929 . S
N872 C870 1.375 . S
N872 C871 1.347 . S
C873 C876 1.365 . S
C873 N878 1.328 1_556 S
C873 H879 0.929 . S
C874 C875 1.362 1_554 S
C874 C877 1.378 . S
C874 H889 0.929 . S
C875 C874 1.362 1_556 S
C875 C876 1.366 . S
C876 C873 1.365 . S
C876 C875 1.366 . S
C876 H890 0.930 . S
C877 C874 1.378 . S
C877 N878 1.315 . S
C877 H880 0.930 . S
N878 Co858 2.194 . S
N878 C873 1.328 1_554 S
N878 C877 1.315 . S
H879 C873 0.929 . S
H880 C877 0.930 . S
H881 C869 0.929 . S
H882 C871 0.929 . S
O883 Co858 2.351 1_556 S
O883 C886 1.244 . S
O884 Co858 2.155 1_556 S
O884 C886 1.240 . S
O885 Co858 2.096 . S
O885 C866 1.247 . S
C886 O883 1.244 . S
C886 O884 1.240 . S
H887 C861 0.931 . S
H888 C870 0.931 . S
H889 C874 0.929 . S
H890 C876 0.930 . S
Co891 N895 2.148 . S
Co891 N901 2.128 . S
Co891 N911 2.194 . S
Co891 O916 2.351 . S
Co891 O917 2.155 . S
Co891 O918 2.096 . S
C892 N895 1.301 . S
C892 N896 1.328 . S
C892 H897 0.930 . S
C893 C894 1.333 . S
C893 N895 1.317 . S
C893 H898 0.930 . S
C894 C893 1.333 . S
C894 N896 1.350 . S
C894 H920 0.931 . S
N895 Co891 2.148 . S
N895 C892 1.301 . S
N895 C893 1.317 . S
N896 C892 1.328 . S
N896 C894 1.350 . S
H897 C892 0.930 . S
H898 C893 0.930 . S
C899 O900 1.224 . S
C899 O918 1.247 . S
O900 C899 1.224 . S
N901 Co891 2.128 . S
N901 C902 1.355 . S
N901 C904 1.311 . S
C902 N901 1.355 . S
C902 C903 1.363 . S
C902 H914 0.929 . S
C903 C902 1.363 . S
C903 N905 1.375 1_556 S
C903 H921 0.931 . S
C904 N901 1.311 . S
C904 N905 1.347 1_556 S
C904 H915 0.929 1_556 S
N905 C903 1.375 1_554 S
N905 C904 1.347 1_554 S
C906 C909 1.365 . S
C906 N911 1.328 . S
C906 H912 0.929 . S
C907 C908 1.362 . S
C907 C910 1.378 . S
C907 H922 0.929 . S
C908 C907 1.362 . S
C908 C909 1.366 . S
C909 C906 1.365 . S
C909 C908 1.366 . S
C909 H923 0.930 . S
C910 C907 1.378 . S
C910 N911 1.315 . S
C910 H913 0.930 . S
N911 Co891 2.194 . S
N911 C906 1.328 . S
N911 C910 1.315 . S
H912 C906 0.929 . S
H913 C910 0.930 . S
H914 C902 0.929 . S
H915 C904 0.929 1_554 S
O916 Co891 2.351 . S
O916 C919 1.244 . S
O917 Co891 2.155 . S
O917 C919 1.240 . S
O918 Co891 2.096 . S
O918 C899 1.247 . S
C919 O916 1.244 . S
C919 O917 1.240 . S
H920 C894 0.931 . S
H921 C903 0.931 . S
H922 C907 0.929 . S
H923 C909 0.930 . S
Co924 N928 2.148 . S
Co924 N934 2.128 1_554 S
Co924 N944 2.194 . S
Co924 O949 2.351 . S
Co924 O950 2.155 . S
Co924 O951 2.096 1_554 S
C925 N928 1.301 . S
C925 N929 1.328 . S
C925 H930 0.930 . S
C926 C927 1.333 . S
C926 N928 1.317 . S
C926 H931 0.930 . S
C927 C926 1.333 . S
C927 N929 1.350 . S
C927 H953 0.931 . S
N928 Co924 2.148 . S
N928 C925 1.301 . S
N928 C926 1.317 . S
N929 C925 1.328 . S
N929 C927 1.350 . S
H930 C925 0.930 . S
H931 C926 0.930 . S
C932 O933 1.224 . S
C932 O951 1.247 . S
O933 C932 1.224 . S
N934 Co924 2.128 1_556 S
N934 C935 1.355 . S
N934 C937 1.311 . S
C935 N934 1.355 . S
C935 C936 1.363 . S
C935 H947 0.929 1_556 S
C936 C935 1.363 . S
C936 N938 1.375 . S
C936 H954 0.931 . S
C937 N934 1.311 . S
C937 N938 1.347 . S
C937 H948 0.929 . S
N938 C936 1.375 . S
N938 C937 1.347 . S
C939 C942 1.365 . S
C939 N944 1.328 . S
C939 H945 0.929 . S
C940 C941 1.362 . S
C940 C943 1.378 . S
C940 H955 0.929 1_554 S
C941 C940 1.362 . S
C941 C942 1.366 . S
C942 C939 1.365 . S
C942 C941 1.366 . S
C942 H956 0.930 . S
C943 C940 1.378 . S
C943 N944 1.315 . S
C943 H946 0.930 1_554 S
N944 Co924 2.194 . S
N944 C939 1.328 . S
N944 C943 1.315 . S
H945 C939 0.929 . S
H946 C943 0.930 1_556 S
H947 C935 0.929 1_554 S
H948 C937 0.929 . S
O949 Co924 2.351 . S
O949 C952 1.244 . S
O950 Co924 2.155 . S
O950 C952 1.240 . S
O951 Co924 2.096 1_556 S
O951 C932 1.247 . S
C952 O949 1.244 . S
C952 O950 1.240 . S
H953 C927 0.931 . S
H954 C936 0.931 . S
H955 C940 0.929 1_556 S
H956 C942 0.930 . S
Co957 N961 2.148 . S
Co957 N967 2.128 . S
Co957 N977 2.194 . S
Co957 O982 2.351 . S
Co957 O983 2.155 . S
Co957 O984 2.096 . S
C958 N961 1.301 1_554 S
C958 N962 1.328 . S
C958 H963 0.930 . S
C959 C960 1.333 . S
C959 N961 1.317 . S
C959 H964 0.930 . S
C960 C959 1.333 . S
C960 N962 1.350 1_556 S
C960 H986 0.931 . S
N961 Co957 2.148 . S
N961 C958 1.301 1_556 S
N961 C959 1.317 . S
N962 C958 1.328 . S
N962 C960 1.350 1_554 S
H963 C958 0.930 . S
H964 C959 0.930 . S
C965 O966 1.224 . S
C965 O984 1.247 . S
O966 C965 1.224 . S
N967 Co957 2.128 . S
N967 C968 1.355 . S
N967 C970 1.311 . S
C968 N967 1.355 . S
C968 C969 1.363 . S
C968 H980 0.929 . S
C969 C968 1.363 . S
C969 N971 1.375 . S
C969 H987 0.931 . S
C970 N967 1.311 . S
C970 N971 1.347 . S
C970 H981 0.929 . S
N971 C969 1.375 . S
N971 C970 1.347 . S
C972 C975 1.365 . S
C972 N977 1.328 . S
C972 H978 0.929 . S
C973 C974 1.362 . S
C973 C976 1.378 . S
C973 H988 0.929 . S
C974 C973 1.362 . S
C974 C975 1.366 . S
C975 C972 1.365 . S
C975 C974 1.366 . S
C975 H989 0.930 . S
C976 C973 1.378 . S
C976 N977 1.315 . S
C976 H979 0.930 . S
N977 Co957 2.194 . S
N977 C972 1.328 . S
N977 C976 1.315 . S
H978 C972 0.929 . S
H979 C976 0.930 . S
H980 C968 0.929 . S
H981 C970 0.929 . S
O982 Co957 2.351 . S
O982 C985 1.244 . S
O983 Co957 2.155 . S
O983 C985 1.240 . S
O984 Co957 2.096 . S
O984 C965 1.247 . S
C985 O982 1.244 . S
C985 O983 1.240 . S
H986 C960 0.931 . S
H987 C969 0.931 . S
H988 C973 0.929 . S
H989 C975 0.930 . S
Co990 N994 2.148 . S
Co990 N1000 2.128 . S
Co990 N1010 2.194 . S
Co990 O1015 2.351 . S
Co990 O1016 2.155 . S
Co990 O1017 2.096 . S
C991 N994 1.301 . S
C991 N995 1.328 . S
C991 H996 0.930 . S
C992 C993 1.333 . S
C992 N994 1.317 . S
C992 H997 0.930 . S
C993 C992 1.333 . S
C993 N995 1.350 . S
C993 H1019 0.931 . S
N994 Co990 2.148 . S
N994 C991 1.301 . S
N994 C992 1.317 . S
N995 C991 1.328 . S
N995 C993 1.350 . S
H996 C991 0.930 . S
H997 C992 0.930 . S
C998 O999 1.224 . S
C998 O1017 1.247 . S
O999 C998 1.224 . S
N1000 Co990 2.128 . S
N1000 C1001 1.355 . S
N1000 C1003 1.311 . S
C1001 N1000 1.355 . S
C1001 C1002 1.363 . S
C1001 H1013 0.929 . S
C1002 C1001 1.363 . S
C1002 N1004 1.375 . S
C1002 H1020 0.931 . S
C1003 N1000 1.311 . S
C1003 N1004 1.347 . S
C1003 H1014 0.929 . S
N1004 C1002 1.375 . S
N1004 C1003 1.347 . S
C1005 C1008 1.365 . S
C1005 N1010 1.328 . S
C1005 H1011 0.929 . S
C1006 C1007 1.362 . S
C1006 C1009 1.378 . S
C1006 H1021 0.929 . S
C1007 C1006 1.362 . S
C1007 C1008 1.366 . S
C1008 C1005 1.365 . S
C1008 C1007 1.366 . S
C1008 H1022 0.930 . S
C1009 C1006 1.378 . S
C1009 N1010 1.315 . S
C1009 H1012 0.930 . S
N1010 Co990 2.194 . S
N1010 C1005 1.328 . S
N1010 C1009 1.315 . S
H1011 C1005 0.929 . S
H1012 C1009 0.930 . S
H1013 C1001 0.929 . S
H1014 C1003 0.929 . S
O1015 Co990 2.351 . S
O1015 C1018 1.244 . S
O1016 Co990 2.155 . S
O1016 C1018 1.240 . S
O1017 Co990 2.096 . S
O1017 C998 1.247 . S
C1018 O1015 1.244 . S
C1018 O1016 1.240 . S
H1019 C993 0.931 . S
H1020 C1002 0.931 . S
H1021 C1006 0.929 . S
H1022 C1008 0.930 . S
Co1023 N1027 2.148 . S
Co1023 N1033 2.128 . S
Co1023 N1043 2.194 . S
Co1023 O1048 2.351 . S
Co1023 O1049 2.155 . S
Co1023 O1050 2.096 . S
C1024 N1027 1.301 . S
C1024 N1028 1.328 . S
C1024 H1029 0.930 . S
C1025 C1026 1.333 . S
C1025 N1027 1.317 . S
C1025 H1030 0.930 . S
C1026 C1025 1.333 . S
C1026 N1028 1.350 . S
C1026 H1052 0.931 . S
N1027 Co1023 2.148 . S
N1027 C1024 1.301 . S
N1027 C1025 1.317 . S
N1028 C1024 1.328 . S
N1028 C1026 1.350 . S
H1029 C1024 0.930 . S
H1030 C1025 0.930 . S
C1031 O1032 1.224 . S
C1031 O1050 1.247 . S
O1032 C1031 1.224 . S
N1033 Co1023 2.128 . S
N1033 C1034 1.355 . S
N1033 C1036 1.311 . S
C1034 N1033 1.355 . S
C1034 C1035 1.363 . S
C1034 H1046 0.929 . S
C1035 C1034 1.363 . S
C1035 N1037 1.375 . S
C1035 H1053 0.931 . S
C1036 N1033 1.311 . S
C1036 N1037 1.347 . S
C1036 H1047 0.929 . S
N1037 C1035 1.375 . S
N1037 C1036 1.347 . S
C1038 C1041 1.365 . S
C1038 N1043 1.328 . S
C1038 H1044 0.929 . S
C1039 C1040 1.362 . S
C1039 C1042 1.378 . S
C1039 H1054 0.929 . S
C1040 C1039 1.362 . S
C1040 C1041 1.366 . S
C1041 C1038 1.365 . S
C1041 C1040 1.366 . S
C1041 H1055 0.930 . S
C1042 C1039 1.378 . S
C1042 N1043 1.315 . S
C1042 H1045 0.930 . S
N1043 Co1023 2.194 . S
N1043 C1038 1.328 . S
N1043 C1042 1.315 . S
H1044 C1038 0.929 . S
H1045 C1042 0.930 . S
H1046 C1034 0.929 . S
H1047 C1036 0.929 . S
O1048 Co1023 2.351 . S
O1048 C1051 1.244 . S
O1049 Co1023 2.155 . S
O1049 C1051 1.240 . S
O1050 Co1023 2.096 . S
O1050 C1031 1.247 . S
C1051 O1048 1.244 . S
C1051 O1049 1.240 . S
H1052 C1026 0.931 . S
H1053 C1035 0.931 . S
H1054 C1039 0.929 . S
H1055 C1041 0.930 . S
N146 N14 1.453 1_565 S
N47 N179 1.454 . S
N80 N212 1.453 1_565 S
N113 N245 1.454 . S
C404 C272 3.000 1_545 S
C305 C437 2.999 1_556 S
C338 C470 3.000 1_545 S
C503 C371 2.999 . S
N542 N674 1.453 . S
N575 N707 1.454 . S
N740 N608 1.453 . S
N641 N773 1.454 . S
C800 C932 3.000 . S
C833 C965 2.999 . S
C998 C866 3.000 . S
C899 C1031 2.999 1_556 S
C424 C8 2.671 1_655 S
C41 C985 2.672 1_554 S
C490 C74 2.671 . S
C107 C1051 2.672 . S
C140 C292 2.671 1_455 S
C853 C173 2.672 1_554 S
C358 C206 2.671 . S
C239 C919 2.672 . S
N278 N137 0.971 1_655 S
N311 N698 0.971 . S
N344 N203 0.971 . S
N377 N764 0.971 . S
N5 N410 0.972 1_455 S
N566 N443 0.971 . S
N476 N71 0.972 . S
N632 N509 0.971 . S
C536 C952 2.671 . S
C569 C457 2.672 . S
C602 C1018 2.671 1_655 S
C635 C523 2.672 1_554 S
C668 C820 2.671 . S
C325 C701 2.672 . S
C886 C734 2.671 1_455 S
C767 C391 2.672 1_556 S
N665 N806 0.971 . S
N170 N839 0.971 . S
N731 N872 0.971 1_655 S
N236 N905 0.971 . S
N938 N533 0.972 . S
N38 N971 0.971 . S
N1004 N599 0.972 1_455 S
N104 N1037 0.971 . S
C28 C160 2.324 1_545 S
C193 C61 2.324 . S
C226 C94 2.324 1_545 S
C127 C259 2.324 1_556 S
N269 N401 0.516 1_565 S
N302 N434 0.520 . S
N467 N335 0.516 1_565 S
N368 N500 0.520 . S
C688 C556 2.324 . S
C589 C721 2.324 1_556 S
C754 C622 2.324 . S
C655 C787 2.324 . S
N929 N797 0.520 . S
N830 N962 0.520 . S
N995 N863 0.520 . S
N896 N1028 0.520 . S
C248 C17 1.811 . S
C50 C149 1.811 . S
C83 C182 1.811 . S
C215 C116 1.811 . S
C281 C512 1.822 . S
C413 C314 1.822 . S
C446 C347 1.822 . S
C380 C479 1.823 . S
C776 C545 1.811 . S
C578 C677 1.811 . S
C710 C611 1.811 . S
C644 C743 1.811 . S
C809 C1040 1.822 . S
C842 C941 1.823 . S
C875 C974 1.822 . S
C1007 C908 1.822 . S
