# Generated by pormake.
# Topology dei, (4)-cn, num edge types: 1
# Building blocks:
#     Node 0, Type 0, BuildingBlock: TATPOV_clean_sbu_0, # of connection points: 4
#     Node 1, Type 0, BuildingBlock: TATPOV_clean_sbu_0, # of connection points: 4
#     Node 2, Type 0, BuildingBlock: TATPOV_clean_sbu_0, # of connection points: 4
#     Node 3, Type 0, BuildingBlock: TATPOV_clean_sbu_0, # of connection points: 4
#     Node 4, Type 0, BuildingBlock: TATPOV_clean_sbu_0, # of connection points: 4
#     Node 5, Type 0, BuildingBlock: TATPOV_clean_sbu_0, # of connection points: 4
#     Node 6, Type 0, BuildingBlock: TATPOV_clean_sbu_0, # of connection points: 4
#     Node 7, Type 0, BuildingBlock: TATPOV_clean_sbu_0, # of connection points: 4
#     Node 8, Type 0, BuildingBlock: TATPOV_clean_sbu_0, # of connection points: 4
#     Node 9, Type 0, BuildingBlock: TATPOV_clean_sbu_0, # of connection points: 4
#     Node 10, Type 0, BuildingBlock: TATPOV_clean_sbu_0, # of connection points: 4
#     Node 11, Type 0, BuildingBlock: TATPOV_clean_sbu_0, # of connection points: 4
#     Node 12, Type 0, BuildingBlock: TATPOV_clean_sbu_0, # of connection points: 4
#     Node 13, Type 0, BuildingBlock: TATPOV_clean_sbu_0, # of connection points: 4
#     Node 14, Type 0, BuildingBlock: TATPOV_clean_sbu_0, # of connection points: 4
#     Node 15, Type 0, BuildingBlock: TATPOV_clean_sbu_0, # of connection points: 4
#     Node 16, Type 0, BuildingBlock: TATPOV_clean_sbu_0, # of connection points: 4
#     Node 17, Type 0, BuildingBlock: TATPOV_clean_sbu_0, # of connection points: 4
#     Node 18, Type 0, BuildingBlock: TATPOV_clean_sbu_0, # of connection points: 4
#     Node 19, Type 0, BuildingBlock: TATPOV_clean_sbu_0, # of connection points: 4
#     Node 20, Type 0, BuildingBlock: TATPOV_clean_sbu_0, # of connection points: 4
#     Node 21, Type 0, BuildingBlock: TATPOV_clean_sbu_0, # of connection points: 4
#     Node 22, Type 0, BuildingBlock: TATPOV_clean_sbu_0, # of connection points: 4
#     Node 23, Type 0, BuildingBlock: TATPOV_clean_sbu_0, # of connection points: 4
#     Node 24, Type 0, BuildingBlock: TATPOV_clean_sbu_0, # of connection points: 4
#     Node 25, Type 0, BuildingBlock: TATPOV_clean_sbu_0, # of connection points: 4
#     Node 26, Type 0, BuildingBlock: TATPOV_clean_sbu_0, # of connection points: 4
#     Node 27, Type 0, BuildingBlock: TATPOV_clean_sbu_0, # of connection points: 4
#     Node 28, Type 0, BuildingBlock: TATPOV_clean_sbu_0, # of connection points: 4
#     Node 29, Type 0, BuildingBlock: TATPOV_clean_sbu_0, # of connection points: 4
#     Node 30, Type 0, BuildingBlock: TATPOV_clean_sbu_0, # of connection points: 4
#     Node 31, Type 0, BuildingBlock: TATPOV_clean_sbu_0, # of connection points: 4
#     Edge 32, Type (0, 0), BuildingBlock: MIFKUJ_clean_linker_0, # of connection points: 2
#     Edge 33, Type (0, 0), BuildingBlock: MIFKUJ_clean_linker_0, # of connection points: 2
#     Edge 34, Type (0, 0), BuildingBlock: MIFKUJ_clean_linker_0, # of connection points: 2
#     Edge 35, Type (0, 0), BuildingBlock: MIFKUJ_clean_linker_0, # of connection points: 2
#     Edge 36, Type (0, 0), BuildingBlock: MIFKUJ_clean_linker_0, # of connection points: 2
#     Edge 37, Type (0, 0), BuildingBlock: MIFKUJ_clean_linker_0, # of connection points: 2
#     Edge 38, Type (0, 0), BuildingBlock: MIFKUJ_clean_linker_0, # of connection points: 2
#     Edge 39, Type (0, 0), BuildingBlock: MIFKUJ_clean_linker_0, # of connection points: 2
#     Edge 40, Type (0, 0), BuildingBlock: MIFKUJ_clean_linker_0, # of connection points: 2
#     Edge 41, Type (0, 0), BuildingBlock: MIFKUJ_clean_linker_0, # of connection points: 2
#     Edge 42, Type (0, 0), BuildingBlock: MIFKUJ_clean_linker_0, # of connection points: 2
#     Edge 43, Type (0, 0), BuildingBlock: MIFKUJ_clean_linker_0, # of connection points: 2
#     Edge 44, Type (0, 0), BuildingBlock: MIFKUJ_clean_linker_0, # of connection points: 2
#     Edge 45, Type (0, 0), BuildingBlock: MIFKUJ_clean_linker_0, # of connection points: 2
#     Edge 46, Type (0, 0), BuildingBlock: MIFKUJ_clean_linker_0, # of connection points: 2
#     Edge 47, Type (0, 0), BuildingBlock: MIFKUJ_clean_linker_0, # of connection points: 2
#     Edge 48, Type (0, 0), BuildingBlock: MIFKUJ_clean_linker_0, # of connection points: 2
#     Edge 49, Type (0, 0), BuildingBlock: MIFKUJ_clean_linker_0, # of connection points: 2
#     Edge 50, Type (0, 0), BuildingBlock: MIFKUJ_clean_linker_0, # of connection points: 2
#     Edge 51, Type (0, 0), BuildingBlock: MIFKUJ_clean_linker_0, # of connection points: 2
#     Edge 52, Type (0, 0), BuildingBlock: MIFKUJ_clean_linker_0, # of connection points: 2
#     Edge 53, Type (0, 0), BuildingBlock: MIFKUJ_clean_linker_0, # of connection points: 2
#     Edge 54, Type (0, 0), BuildingBlock: MIFKUJ_clean_linker_0, # of connection points: 2
#     Edge 55, Type (0, 0), BuildingBlock: MIFKUJ_clean_linker_0, # of connection points: 2
#     Edge 56, Type (0, 0), BuildingBlock: MIFKUJ_clean_linker_0, # of connection points: 2
#     Edge 57, Type (0, 0), BuildingBlock: MIFKUJ_clean_linker_0, # of connection points: 2
#     Edge 58, Type (0, 0), BuildingBlock: MIFKUJ_clean_linker_0, # of connection points: 2
#     Edge 59, Type (0, 0), BuildingBlock: MIFKUJ_clean_linker_0, # of connection points: 2
#     Edge 60, Type (0, 0), BuildingBlock: MIFKUJ_clean_linker_0, # of connection points: 2
#     Edge 61, Type (0, 0), BuildingBlock: MIFKUJ_clean_linker_0, # of connection points: 2
#     Edge 62, Type (0, 0), BuildingBlock: MIFKUJ_clean_linker_0, # of connection points: 2
#     Edge 63, Type (0, 0), BuildingBlock: MIFKUJ_clean_linker_0, # of connection points: 2
#     Edge 64, Type (0, 0), BuildingBlock: MIFKUJ_clean_linker_0, # of connection points: 2
#     Edge 65, Type (0, 0), BuildingBlock: MIFKUJ_clean_linker_0, # of connection points: 2
#     Edge 66, Type (0, 0), BuildingBlock: MIFKUJ_clean_linker_0, # of connection points: 2
#     Edge 67, Type (0, 0), BuildingBlock: MIFKUJ_clean_linker_0, # of connection points: 2
#     Edge 68, Type (0, 0), BuildingBlock: MIFKUJ_clean_linker_0, # of connection points: 2
#     Edge 69, Type (0, 0), BuildingBlock: MIFKUJ_clean_linker_0, # of connection points: 2
#     Edge 70, Type (0, 0), BuildingBlock: MIFKUJ_clean_linker_0, # of connection points: 2
#     Edge 71, Type (0, 0), BuildingBlock: MIFKUJ_clean_linker_0, # of connection points: 2
#     Edge 72, Type (0, 0), BuildingBlock: MIFKUJ_clean_linker_0, # of connection points: 2
#     Edge 73, Type (0, 0), BuildingBlock: MIFKUJ_clean_linker_0, # of connection points: 2
#     Edge 74, Type (0, 0), BuildingBlock: MIFKUJ_clean_linker_0, # of connection points: 2
#     Edge 75, Type (0, 0), BuildingBlock: MIFKUJ_clean_linker_0, # of connection points: 2
#     Edge 76, Type (0, 0), BuildingBlock: MIFKUJ_clean_linker_0, # of connection points: 2
#     Edge 77, Type (0, 0), BuildingBlock: MIFKUJ_clean_linker_0, # of connection points: 2
#     Edge 78, Type (0, 0), BuildingBlock: MIFKUJ_clean_linker_0, # of connection points: 2
#     Edge 79, Type (0, 0), BuildingBlock: MIFKUJ_clean_linker_0, # of connection points: 2
#     Edge 80, Type (0, 0), BuildingBlock: MIFKUJ_clean_linker_0, # of connection points: 2
#     Edge 81, Type (0, 0), BuildingBlock: MIFKUJ_clean_linker_0, # of connection points: 2
#     Edge 82, Type (0, 0), BuildingBlock: MIFKUJ_clean_linker_0, # of connection points: 2
#     Edge 83, Type (0, 0), BuildingBlock: MIFKUJ_clean_linker_0, # of connection points: 2
#     Edge 84, Type (0, 0), BuildingBlock: MIFKUJ_clean_linker_0, # of connection points: 2
#     Edge 85, Type (0, 0), BuildingBlock: MIFKUJ_clean_linker_0, # of connection points: 2
#     Edge 86, Type (0, 0), BuildingBlock: MIFKUJ_clean_linker_0, # of connection points: 2
#     Edge 87, Type (0, 0), BuildingBlock: MIFKUJ_clean_linker_0, # of connection points: 2
#     Edge 88, Type (0, 0), BuildingBlock: MIFKUJ_clean_linker_0, # of connection points: 2
#     Edge 89, Type (0, 0), BuildingBlock: MIFKUJ_clean_linker_0, # of connection points: 2
#     Edge 90, Type (0, 0), BuildingBlock: MIFKUJ_clean_linker_0, # of connection points: 2
#     Edge 91, Type (0, 0), BuildingBlock: MIFKUJ_clean_linker_0, # of connection points: 2
#     Edge 92, Type (0, 0), BuildingBlock: MIFKUJ_clean_linker_0, # of connection points: 2
#     Edge 93, Type (0, 0), BuildingBlock: MIFKUJ_clean_linker_0, # of connection points: 2
#     Edge 94, Type (0, 0), BuildingBlock: MIFKUJ_clean_linker_0, # of connection points: 2
#     Edge 95, Type (0, 0), BuildingBlock: MIFKUJ_clean_linker_0, # of connection points: 2
# Relax obj value: 0.256
# Max RMSD: 0.093
# Mean RMSD: 0.093
data_MOF--net-dei--node1-TATPOV_clean_sbu_0--edge1-MIFKUJ_clean_linker_0
_symmetry_space_group_name_H-M    P1
_symmetry_Int_Tables_number       1
_symmetry_cell_setting            triclinic
loop_
_symmetry_equiv_pos_as_xyz
'x, y, z'
_cell_length_a     65.816871
_cell_length_b     65.815907
_cell_length_c     124.60348
_cell_angle_alpha  90.010695
_cell_angle_beta   90.005017
_cell_angle_gamma 89.996852
loop_
_atom_site_label
_atom_site_type_symbol
_atom_site_fract_x
_atom_site_fract_y
_atom_site_fract_z
_atom_type_partial_charge
Zn0 Zn 0.15132 0.62817 0.03859 0.0
Zn1 Zn 0.15448 0.61002 0.05785 0.0
O2 O 0.16945 0.59073 0.04754 0.0
O3 O 0.16567 0.6048 0.03163 0.0
O4 O 0.1592 0.59749 0.0723 0.0
O5 O 0.16813 0.65147 0.04409 0.0
O6 O 0.16756 0.6379 0.06025 0.0
C7 C 0.17245 0.59054 0.03743 0.0
C8 C 0.11244 0.6188 0.04854 0.0
O9 O 0.12347 0.61095 0.05585 0.0
O10 O 0.12068 0.62746 0.04055 0.0
C11 C 0.1469 0.5867 0.0777 0.0
O12 O 0.12903 0.58219 0.07365 0.0
C13 C 0.17267 0.6522 0.05395 0.0
Zn14 Zn 0.62044 0.90354 0.2786 0.0
Zn15 Zn 0.6373 0.91023 0.29803 0.0
O16 O 0.65782 0.92325 0.28771 0.0
O17 O 0.64409 0.91815 0.27181 0.0
O18 O 0.64759 0.91705 0.31275 0.0
O19 O 0.5954 0.91918 0.28293 0.0
O20 O 0.60926 0.92355 0.29881 0.0
C21 C 0.65837 0.92517 0.27753 0.0
C22 C 0.63034 0.86665 0.29035 0.0
O23 O 0.63677 0.87902 0.29745 0.0
O24 O 0.62262 0.87333 0.28172 0.0
C25 C 0.65919 0.90617 0.31853 0.0
O26 O 0.66644 0.88909 0.31464 0.0
C27 C 0.59448 0.92616 0.29239 0.0
Zn28 Zn 0.34722 0.39062 0.52798 0.0
Zn29 Zn 0.34197 0.39735 0.54885 0.0
O30 O 0.32347 0.41898 0.54185 0.0
O31 O 0.32559 0.41101 0.52471 0.0
O32 O 0.33712 0.40046 0.56467 0.0
O33 O 0.33929 0.36152 0.52949 0.0
O34 O 0.33405 0.36734 0.54665 0.0
C35 C 0.31805 0.42173 0.53214 0.0
C36 C 0.38404 0.40288 0.53887 0.0
O37 O 0.3726 0.4027 0.54712 0.0
O38 O 0.3767 0.39886 0.52971 0.0
C39 C 0.33872 0.41697 0.56988 0.0
O40 O 0.34378 0.4337 0.56479 0.0
C41 C 0.33394 0.35526 0.53866 0.0
Zn42 Zn 0.88074 0.09032 0.77896 0.0
Zn43 Zn 0.85946 0.08614 0.79726 0.0
O44 O 0.84135 0.07178 0.78611 0.0
O45 O 0.85918 0.07443 0.77121 0.0
O46 O 0.84518 0.08249 0.81138 0.0
O47 O 0.90433 0.07546 0.78553 0.0
O48 O 0.887 0.07283 0.80055 0.0
C49 C 0.84348 0.0683 0.7761 0.0
C50 C 0.86833 0.12861 0.78833 0.0
O51 O 0.86043 0.11713 0.79542 0.0
O52 O 0.87793 0.12092 0.7805 0.0
C53 C 0.84376 0.06491 0.81554 0.0
O54 O 0.85034 0.04912 0.8101 0.0
C55 C 0.90309 0.06954 0.79517 0.0
Zn56 Zn 0.14802 0.3791 0.97736 0.0
Zn57 Zn 0.15531 0.39691 0.95822 0.0
O58 O 0.16935 0.41648 0.96871 0.0
O59 O 0.16453 0.4012 0.98425 0.0
O60 O 0.16129 0.40782 0.94352 0.0
O61 O 0.16254 0.35388 0.97249 0.0
O62 O 0.16849 0.36884 0.95703 0.0
C63 C 0.17202 0.41565 0.97884 0.0
C64 C 0.11148 0.39059 0.966 0.0
O65 O 0.12411 0.39663 0.95894 0.0
O66 O 0.11783 0.38271 0.97465 0.0
C67 C 0.15076 0.42114 0.93868 0.0
O68 O 0.13539 0.42968 0.94367 0.0
C69 C 0.17028 0.35355 0.9632 0.0
Zn70 Zn 0.87711 0.88593 0.22334 0.0
Zn71 Zn 0.859 0.88764 0.20382 0.0
O72 O 0.83937 0.90399 0.21335 0.0
O73 O 0.85446 0.90332 0.22914 0.0
O74 O 0.84741 0.8889 0.18889 0.0
O75 O 0.90192 0.89964 0.21725 0.0
O76 O 0.88705 0.9004 0.20144 0.0
C77 C 0.83989 0.90904 0.22323 0.0
C78 C 0.86596 0.84651 0.2149 0.0
O79 O 0.85947 0.85708 0.20705 0.0
O80 O 0.87419 0.85516 0.22288 0.0
C81 C 0.83744 0.90383 0.18512 0.0
O82 O 0.83317 0.91933 0.19137 0.0
C83 C 0.90227 0.90429 0.2074 0.0
Zn84 Zn 0.37375 0.62475 0.47492 0.0
Zn85 Zn 0.368 0.60656 0.45562 0.0
O86 O 0.35138 0.58858 0.46584 0.0
O87 O 0.35636 0.60297 0.48159 0.0
O88 O 0.3631 0.59561 0.44079 0.0
O89 O 0.36004 0.65009 0.46939 0.0
O90 O 0.35641 0.63509 0.45373 0.0
C91 C 0.34819 0.58923 0.47593 0.0
C92 C 0.41109 0.6117 0.46472 0.0
O93 O 0.39907 0.60529 0.45744 0.0
O94 O 0.40403 0.62059 0.47294 0.0
C95 C 0.35395 0.57943 0.43803 0.0
O96 O 0.34733 0.56686 0.44543 0.0
C97 C 0.35395 0.65049 0.45975 0.0
Zn98 Zn 0.63189 0.11487 0.72214 0.0
Zn99 Zn 0.64207 0.10854 0.70153 0.0
O100 O 0.66447 0.09326 0.70985 0.0
O101 O 0.65567 0.09792 0.72672 0.0
O102 O 0.64824 0.10265 0.68602 0.0
O103 O 0.60497 0.10124 0.71977 0.0
O104 O 0.61337 0.09652 0.70286 0.0
C105 C 0.66754 0.09027 0.71983 0.0
C106 C 0.63987 0.15195 0.71046 0.0
O107 O 0.64309 0.13978 0.70268 0.0
O108 O 0.63501 0.14504 0.7196 0.0
C109 C 0.66094 0.11244 0.68034 0.0
O110 O 0.67138 0.1273 0.68471 0.0
C111 C 0.60069 0.09459 0.71051 0.0
Zn112 Zn 0.85553 0.37395 0.96568 0.0
Zn113 Zn 0.85282 0.39045 0.94607 0.0
O114 O 0.83639 0.4108 0.95519 0.0
O115 O 0.83671 0.39576 0.971 0.0
O116 O 0.84984 0.39946 0.93074 0.0
O117 O 0.8438 0.34755 0.96062 0.0
O118 O 0.84063 0.3618 0.94477 0.0
C119 C 0.83095 0.4102 0.96501 0.0
C120 C 0.89436 0.38624 0.95693 0.0
O121 O 0.88367 0.39137 0.94884 0.0
O122 O 0.88589 0.3787 0.96515 0.0
C123 C 0.85034 0.41717 0.9267 0.0
O124 O 0.85326 0.43297 0.93296 0.0
C125 C 0.83817 0.34658 0.95093 0.0
Zn126 Zn 0.36245 0.08465 0.72307 0.0
Zn127 Zn 0.35066 0.08354 0.70239 0.0
O128 O 0.32785 0.06817 0.71026 0.0
O129 O 0.33823 0.0678 0.72707 0.0
O130 O 0.34275 0.08152 0.68683 0.0
O131 O 0.38852 0.0707 0.71926 0.0
O132 O 0.37922 0.07079 0.7023 0.0
C133 C 0.32529 0.06292 0.72001 0.0
C134 C 0.35515 0.12446 0.71385 0.0
O135 O 0.3508 0.11413 0.70552 0.0
O136 O 0.36051 0.11551 0.72241 0.0
C137 C 0.35033 0.09383 0.68008 0.0
O138 O 0.36281 0.10804 0.68347 0.0
C139 C 0.39221 0.06656 0.70954 0.0
Zn140 Zn 0.66812 0.62363 0.46811 0.0
Zn141 Zn 0.67038 0.60378 0.44927 0.0
O142 O 0.68737 0.58584 0.45947 0.0
O143 O 0.68644 0.60274 0.47473 0.0
O144 O 0.67305 0.59081 0.43472 0.0
O145 O 0.6804 0.64861 0.46151 0.0
O146 O 0.68102 0.63249 0.44605 0.0
C147 C 0.6925 0.58766 0.46929 0.0
C148 C 0.62903 0.61 0.45992 0.0
O149 O 0.63973 0.60303 0.45224 0.0
O150 O 0.63751 0.61929 0.46764 0.0
C151 C 0.69011 0.59121 0.42995 0.0
O152 O 0.70597 0.59862 0.43502 0.0
C153 C 0.68432 0.64843 0.45157 0.0
Zn154 Zn 0.13758 0.89706 0.2162 0.0
Zn155 Zn 0.14971 0.90288 0.19591 0.0
O156 O 0.1697 0.92069 0.20444 0.0
O157 O 0.15707 0.91893 0.2208 0.0
O158 O 0.15674 0.90657 0.18034 0.0
O159 O 0.10894 0.90439 0.2122 0.0
O160 O 0.11977 0.91174 0.19596 0.0
C161 C 0.16997 0.92606 0.21427 0.0
C162 C 0.15285 0.86072 0.20626 0.0
O163 O 0.15404 0.87232 0.1981 0.0
O164 O 0.14696 0.86775 0.2152 0.0
C165 C 0.17332 0.91277 0.17628 0.0
O166 O 0.18848 0.91786 0.18259 0.0
C167 C 0.10546 0.91088 0.20282 0.0
Zn168 Zn 0.85906 0.61966 0.02766 0.0
Zn169 Zn 0.85165 0.60291 0.04691 0.0
O170 O 0.8384 0.58264 0.03636 0.0
O171 O 0.84572 0.59583 0.02058 0.0
O172 O 0.84584 0.59151 0.0616 0.0
O173 O 0.84168 0.64358 0.03167 0.0
O174 O 0.83783 0.63086 0.0479 0.0
C175 C 0.83752 0.58198 0.02613 0.0
C176 C 0.89555 0.61135 0.03963 0.0
O177 O 0.88294 0.60404 0.04636 0.0
O178 O 0.88917 0.61934 0.03101 0.0
C179 C 0.85475 0.60011 0.06943 0.0
O180 O 0.86733 0.61515 0.06746 0.0
C181 C 0.83463 0.64492 0.04109 0.0
Zn182 Zn 0.11223 0.11644 0.78002 0.0
Zn183 Zn 0.13395 0.11017 0.79829 0.0
O184 O 0.15129 0.09619 0.78692 0.0
O185 O 0.1349 0.10232 0.77185 0.0
O186 O 0.14759 0.10352 0.81224 0.0
O187 O 0.08936 0.0994 0.78604 0.0
O188 O 0.10668 0.09644 0.80104 0.0
C189 C 0.14981 0.09448 0.77677 0.0
C190 C 0.12427 0.15351 0.79099 0.0
O191 O 0.13348 0.14132 0.79726 0.0
O192 O 0.11365 0.14673 0.78329 0.0
C193 C 0.1569 0.11567 0.81844 0.0
O194 O 0.15967 0.13461 0.81546 0.0
C195 C 0.09082 0.09279 0.79555 0.0
Zn196 Zn 0.6351 0.38782 0.52318 0.0
Zn197 Zn 0.64413 0.39559 0.54369 0.0
O198 O 0.66249 0.41555 0.53535 0.0
O199 O 0.65598 0.40805 0.51848 0.0
O200 O 0.65178 0.40011 0.55914 0.0
O201 O 0.64327 0.35868 0.52505 0.0
O202 O 0.65104 0.36534 0.54186 0.0
C203 C 0.66572 0.4183 0.52536 0.0
C204 C 0.60055 0.40142 0.53547 0.0
O205 O 0.61335 0.40165 0.54315 0.0
O206 O 0.60622 0.39647 0.52611 0.0
C207 C 0.6452 0.41471 0.56483 0.0
O208 O 0.63287 0.42812 0.56051 0.0
C209 C 0.64985 0.35284 0.53408 0.0
Zn210 Zn 0.37311 0.88801 0.27978 0.0
Zn211 Zn 0.35543 0.89306 0.29911 0.0
O212 O 0.33538 0.90713 0.28883 0.0
O213 O 0.35046 0.90416 0.27311 0.0
O214 O 0.34362 0.89769 0.31381 0.0
O215 O 0.39786 0.90301 0.28489 0.0
O216 O 0.38326 0.907 0.30063 0.0
C217 C 0.33582 0.91057 0.27876 0.0
C218 C 0.36276 0.85015 0.29025 0.0
O219 O 0.35637 0.86193 0.29764 0.0
O220 O 0.37052 0.85753 0.2818 0.0
C221 C 0.3433 0.91565 0.31757 0.0
O222 O 0.34964 0.9307 0.31151 0.0
C223 C 0.39827 0.90988 0.29437 0.0
Zn224 Zn 0.6469 0.1021 0.52362 0.0
Zn225 Zn 0.65366 0.09608 0.54459 0.0
O226 O 0.67183 0.07443 0.53741 0.0
O227 O 0.66783 0.08091 0.5202 0.0
O228 O 0.65973 0.09363 0.56036 0.0
O229 O 0.65503 0.13137 0.52482 0.0
O230 O 0.66085 0.12609 0.54197 0.0
C231 C 0.67606 0.07067 0.52762 0.0
C232 C 0.61102 0.0898 0.53538 0.0
O233 O 0.62308 0.09012 0.54338 0.0
O234 O 0.61756 0.09402 0.52608 0.0
C235 C 0.65141 0.08091 0.56665 0.0
O236 O 0.63833 0.06774 0.56276 0.0
C237 C 0.66052 0.13797 0.5339 0.0
Zn238 Zn 0.13271 0.41076 0.7818 0.0
Zn239 Zn 0.13954 0.41306 0.80299 0.0
O240 O 0.1647 0.42666 0.79621 0.0
O241 O 0.15691 0.42841 0.77902 0.0
O242 O 0.14353 0.41719 0.81879 0.0
O243 O 0.10552 0.42418 0.78355 0.0
O244 O 0.11174 0.42656 0.80085 0.0
C245 C 0.16882 0.43244 0.78669 0.0
C246 C 0.13789 0.37153 0.79244 0.0
O247 O 0.1388 0.38222 0.80095 0.0
O248 O 0.13606 0.38001 0.78335 0.0
C249 C 0.15781 0.4095 0.8243 0.0
O250 O 0.17128 0.39779 0.81958 0.0
C251 C 0.1002 0.4298 0.79284 0.0
Zn252 Zn 0.84144 0.88119 0.02934 0.0
Zn253 Zn 0.84117 0.89258 0.05015 0.0
O254 O 0.82676 0.91645 0.04258 0.0
O255 O 0.82507 0.90599 0.02577 0.0
O256 O 0.84034 0.89902 0.06595 0.0
O257 O 0.82655 0.85558 0.03292 0.0
O258 O 0.82691 0.8647 0.04991 0.0
C259 C 0.82106 0.91906 0.0329 0.0
C260 C 0.88165 0.88696 0.03843 0.0
O261 O 0.87164 0.89134 0.04687 0.0
O262 O 0.87237 0.88215 0.02988 0.0
C263 C 0.8265 0.90931 0.07054 0.0
O264 O 0.81195 0.91746 0.06475 0.0
C265 C 0.82209 0.85204 0.04261 0.0
Zn266 Zn 0.36981 0.5923 0.28571 0.0
Zn267 Zn 0.35324 0.59092 0.30552 0.0
O268 O 0.33254 0.57516 0.29642 0.0
O269 O 0.34673 0.57496 0.2804 0.0
O270 O 0.34246 0.58953 0.32056 0.0
O271 O 0.39483 0.57836 0.29128 0.0
O272 O 0.3811 0.57741 0.30737 0.0
C273 C 0.33241 0.56975 0.2866 0.0
C274 C 0.36011 0.63195 0.2944 0.0
O275 O 0.35417 0.62152 0.30242 0.0
O276 O 0.36732 0.6231 0.2862 0.0
C277 C 0.33734 0.57273 0.3248 0.0
O278 O 0.33794 0.55609 0.31898 0.0
C279 C 0.39579 0.5734 0.30109 0.0
Zn280 Zn 0.63061 0.87005 0.46877 0.0
Zn281 Zn 0.64086 0.88989 0.45067 0.0
O282 O 0.65815 0.90447 0.46205 0.0
O283 O 0.6518 0.88659 0.47662 0.0
O284 O 0.64939 0.90182 0.43654 0.0
O285 O 0.63827 0.84318 0.46212 0.0
O286 O 0.64851 0.86021 0.44794 0.0
C287 C 0.66122 0.90089 0.47198 0.0
C288 C 0.59696 0.89122 0.45884 0.0
O289 O 0.61012 0.89552 0.45169 0.0
O290 O 0.60205 0.88097 0.46702 0.0
C291 C 0.64133 0.91672 0.43166 0.0
O292 O 0.62647 0.92681 0.43627 0.0
C293 C 0.64633 0.84346 0.4529 0.0
Zn294 Zn 0.37298 0.38239 0.72224 0.0
Zn295 Zn 0.35289 0.38449 0.70326 0.0
O296 O 0.3337 0.39948 0.71358 0.0
O297 O 0.35118 0.40006 0.7287 0.0
O298 O 0.33993 0.38712 0.68872 0.0
O299 O 0.39712 0.39639 0.71568 0.0
O300 O 0.38022 0.39848 0.70048 0.0
C301 C 0.33562 0.40498 0.72333 0.0
C302 C 0.36142 0.34308 0.71349 0.0
O303 O 0.35447 0.35377 0.70579 0.0
O304 O 0.36975 0.35163 0.72148 0.0
C305 C 0.33901 0.40466 0.68447 0.0
O306 O 0.34503 0.42047 0.69007 0.0
C307 C 0.39607 0.40214 0.706 0.0
Zn308 Zn 0.84704 0.12347 0.96636 0.0
Zn309 Zn 0.84471 0.10542 0.9469 0.0
O310 O 0.83004 0.08511 0.95678 0.0
O311 O 0.82959 0.10107 0.97236 0.0
O312 O 0.8414 0.09449 0.93196 0.0
O313 O 0.83336 0.14857 0.96071 0.0
O314 O 0.83156 0.13347 0.94499 0.0
C315 C 0.82477 0.08597 0.96662 0.0
C316 C 0.88624 0.11246 0.95706 0.0
O317 O 0.87546 0.10624 0.94923 0.0
O318 O 0.87779 0.12013 0.96527 0.0
C319 C 0.84019 0.07611 0.92891 0.0
O320 O 0.84151 0.06143 0.93602 0.0
C321 C 0.82807 0.14879 0.95095 0.0
Zn322 Zn 0.12623 0.61632 0.2294 0.0
Zn323 Zn 0.13948 0.60312 0.21 0.0
O324 O 0.15788 0.58737 0.22018 0.0
O325 O 0.14683 0.59718 0.23605 0.0
O326 O 0.14688 0.59329 0.1953 0.0
O327 O 0.09803 0.60637 0.22597 0.0
O328 O 0.10964 0.59468 0.21059 0.0
C329 C 0.15871 0.58646 0.23038 0.0
C330 C 0.14189 0.64837 0.21594 0.0
O331 O 0.14495 0.63388 0.20935 0.0
O332 O 0.13411 0.64484 0.22505 0.0
C333 C 0.16358 0.59676 0.19054 0.0
O334 O 0.17782 0.60713 0.1955 0.0
C335 C 0.09512 0.59709 0.21721 0.0
Zn336 Zn 0.34785 0.87991 0.47016 0.0
Zn337 Zn 0.33952 0.89514 0.45071 0.0
O338 O 0.32142 0.91276 0.46056 0.0
O339 O 0.32688 0.8986 0.47634 0.0
O340 O 0.33312 0.90386 0.43565 0.0
O341 O 0.33898 0.85215 0.4656 0.0
O342 O 0.33157 0.86502 0.44978 0.0
C343 C 0.31775 0.91156 0.47059 0.0
C344 C 0.38292 0.89721 0.45965 0.0
O345 O 0.37025 0.90044 0.45211 0.0
O346 O 0.37706 0.88891 0.46829 0.0
C347 C 0.33611 0.92124 0.43151 0.0
O348 O 0.34355 0.93595 0.43746 0.0
C349 C 0.33217 0.84995 0.45617 0.0
Zn350 Zn 0.8621 0.58736 0.22326 0.0
Zn351 Zn 0.84793 0.58807 0.2029 0.0
O352 O 0.82541 0.57214 0.2108 0.0
O353 O 0.83751 0.57122 0.2273 0.0
O354 O 0.8405 0.58859 0.18725 0.0
O355 O 0.88697 0.57208 0.21864 0.0
O356 O 0.8761 0.57474 0.20198 0.0
C357 C 0.82388 0.56656 0.22057 0.0
C358 C 0.85499 0.62797 0.21502 0.0
O359 O 0.84902 0.61825 0.20676 0.0
O360 O 0.8615 0.61838 0.22315 0.0
C361 C 0.82792 0.5775 0.18219 0.0
O362 O 0.81684 0.56424 0.18746 0.0
C363 C 0.88941 0.56893 0.20871 0.0
Zn364 Zn 0.14123 0.12709 0.97185 0.0
Zn365 Zn 0.1471 0.11384 0.95154 0.0
O366 O 0.16206 0.09222 0.96029 0.0
O367 O 0.15759 0.10301 0.97686 0.0
O368 O 0.15236 0.10665 0.93617 0.0
O369 O 0.15586 0.15321 0.96846 0.0
O370 O 0.16012 0.14195 0.952 0.0
C371 C 0.16497 0.09021 0.97034 0.0
C372 C 0.10391 0.11778 0.96055 0.0
O373 O 0.11599 0.11311 0.95294 0.0
O374 O 0.1109 0.12429 0.96938 0.0
C375 C 0.14639 0.09099 0.93113 0.0
O376 O 0.1357 0.0771 0.93617 0.0
C377 C 0.16273 0.15566 0.95906 0.0
Zn378 Zn 0.61651 0.40696 0.71775 0.0
Zn379 Zn 0.63424 0.4121 0.6985 0.0
O380 O 0.65357 0.4273 0.70877 0.0
O381 O 0.63802 0.4245 0.72437 0.0
O382 O 0.64538 0.41704 0.68369 0.0
O383 O 0.5909 0.42005 0.71245 0.0
O384 O 0.6056 0.42404 0.69674 0.0
C385 C 0.65265 0.43117 0.7188 0.0
C386 C 0.62907 0.36927 0.70772 0.0
O387 O 0.63483 0.38103 0.70019 0.0
O388 O 0.62096 0.3766 0.71609 0.0
C389 C 0.6582 0.40582 0.67889 0.0
O390 O 0.6661 0.3902 0.68396 0.0
C391 C 0.59024 0.42623 0.70284 0.0
Zn392 Zn 0.36022 0.10694 0.52438 0.0
Zn393 Zn 0.35334 0.09833 0.5452 0.0
O394 O 0.33365 0.07873 0.53758 0.0
O395 O 0.33855 0.08672 0.5206 0.0
O396 O 0.34892 0.09427 0.561 0.0
O397 O 0.35219 0.136 0.52682 0.0
O398 O 0.34619 0.1285 0.54373 0.0
C399 C 0.32938 0.07638 0.52767 0.0
C400 C 0.39581 0.09238 0.53537 0.0
O401 O 0.38368 0.09178 0.54334 0.0
O402 O 0.38946 0.09811 0.52626 0.0
C403 C 0.34237 0.0785 0.56576 0.0
O404 O 0.33761 0.06231 0.56013 0.0
C405 C 0.34646 0.14134 0.5361 0.0
Zn406 Zn 0.61448 0.61252 0.28188 0.0
Zn407 Zn 0.63448 0.60626 0.30051 0.0
O408 O 0.65234 0.59126 0.28953 0.0
O409 O 0.63642 0.5969 0.27425 0.0
O410 O 0.64718 0.60066 0.31487 0.0
O411 O 0.5902 0.59736 0.28765 0.0
O412 O 0.60656 0.59348 0.3029 0.0
C413 C 0.65104 0.58902 0.27939 0.0
C414 C 0.62731 0.64966 0.29232 0.0
O415 O 0.63474 0.63749 0.29925 0.0
O416 O 0.61776 0.64276 0.28428 0.0
C417 C 0.66592 0.60013 0.31728 0.0
O418 O 0.67962 0.60384 0.30987 0.0
C419 C 0.59081 0.5907 0.29717 0.0
Zn420 Zn 0.13905 0.87485 0.02559 0.0
Zn421 Zn 0.14214 0.89538 0.04436 0.0
O422 O 0.15747 0.91369 0.03372 0.0
O423 O 0.15498 0.89703 0.01843 0.0
O424 O 0.14541 0.90871 0.05871 0.0
O425 O 0.1548 0.8517 0.03208 0.0
O426 O 0.15557 0.86806 0.0475 0.0
C427 C 0.16142 0.91212 0.02374 0.0
C428 C 0.10019 0.88588 0.03496 0.0
O429 O 0.1113 0.89392 0.04218 0.0
O430 O 0.10832 0.87676 0.02709 0.0
C431 C 0.16299 0.9135 0.06209 0.0
O432 O 0.17865 0.91152 0.05563 0.0
C433 C 0.15994 0.85259 0.04185 0.0
Zn434 Zn 0.86437 0.38363 0.7727 0.0
Zn435 Zn 0.85166 0.38919 0.79298 0.0
O436 O 0.82993 0.40426 0.7841 0.0
O437 O 0.83987 0.39873 0.76748 0.0
O438 O 0.84346 0.39373 0.80835 0.0
O439 O 0.88968 0.39956 0.77587 0.0
O440 O 0.87986 0.40244 0.79269 0.0
C441 C 0.82744 0.40658 0.77402 0.0
C442 C 0.85711 0.34604 0.78388 0.0
O443 O 0.85178 0.35797 0.79145 0.0
O444 O 0.86337 0.35328 0.77506 0.0
C445 C 0.84371 0.4116 0.81223 0.0
O446 O 0.84828 0.42693 0.80592 0.0
C447 C 0.89281 0.40585 0.78533 0.0
H448 H 0.13652 0.57593 0.17814 0.0
H449 H 0.13861 0.56907 0.15899 0.0
H450 H 0.19802 0.59671 0.15793 0.0
H451 H 0.19587 0.60405 0.17717 0.0
H452 H 0.1743 0.61187 0.14286 0.0
H453 H 0.19174 0.54508 0.15412 0.0
H454 H 0.18866 0.51319 0.16437 0.0
H455 H 0.13051 0.5018 0.14996 0.0
H456 H 0.1331 0.53377 0.13973 0.0
H457 H 0.18328 0.59174 0.08782 0.0
H458 H 0.19041 0.58798 0.10693 0.0
H459 H 0.12928 0.56661 0.11221 0.0
H460 H 0.12202 0.57012 0.09302 0.0
H461 H 0.15806 0.5465 0.12494 0.0
H462 H 0.13915 0.61533 0.11566 0.0
H463 H 0.14213 0.64722 0.10539 0.0
H464 H 0.20357 0.6545 0.11634 0.0
H465 H 0.20103 0.62247 0.12656 0.0
C466 C 0.15018 0.58034 0.17389 0.0
C467 C 0.16599 0.59067 0.17918 0.0
C468 C 0.15141 0.57624 0.16293 0.0
C469 C 0.16856 0.58219 0.15703 0.0
C470 C 0.18467 0.59194 0.16234 0.0
C471 C 0.18342 0.5961 0.17333 0.0
C472 C 0.16869 0.57991 0.14519 0.0
C473 C 0.17124 0.59746 0.13895 0.0
C474 C 0.16419 0.56121 0.14009 0.0
C475 C 0.16256 0.54192 0.14621 0.0
C476 C 0.17822 0.53586 0.1532 0.0
C477 C 0.17657 0.51775 0.15899 0.0
C478 C 0.15938 0.5055 0.15783 0.0
C479 C 0.14381 0.51131 0.15085 0.0
C480 C 0.14538 0.52941 0.14504 0.0
C481 C 0.17141 0.58594 0.093 0.0
C482 C 0.15196 0.58154 0.08893 0.0
C483 C 0.17554 0.58379 0.10392 0.0
C484 C 0.16027 0.57736 0.11099 0.0
C485 C 0.14125 0.57166 0.10687 0.0
C486 C 0.1371 0.57374 0.09592 0.0
C487 C 0.16352 0.57845 0.12272 0.0
C488 C 0.1615 0.56077 0.1289 0.0
C489 C 0.16852 0.59702 0.12781 0.0
C490 C 0.16998 0.6164 0.12178 0.0
C491 C 0.15334 0.62366 0.11582 0.0
C492 C 0.15494 0.64176 0.11001 0.0
C493 C 0.17305 0.65285 0.11019 0.0
C494 C 0.18957 0.64588 0.1162 0.0
C495 C 0.18805 0.62775 0.122 0.0
H496 H 0.17426 0.66686 0.10569 0.0
H497 H 0.15813 0.49148 0.16232 0.0
H498 H 0.66877 0.89602 0.41943 0.0
H499 H 0.67518 0.89974 0.40032 0.0
H500 H 0.63354 0.95034 0.39906 0.0
H501 H 0.62656 0.94632 0.41825 0.0
H502 H 0.62515 0.92454 0.38378 0.0
H503 H 0.68592 0.95657 0.39564 0.0
H504 H 0.71743 0.96075 0.40611 0.0
H505 H 0.74219 0.90693 0.39167 0.0
H506 H 0.71071 0.90226 0.38122 0.0
H507 H 0.64549 0.94001 0.32893 0.0
H508 H 0.64626 0.94678 0.34817 0.0
H509 H 0.67999 0.89146 0.35333 0.0
H510 H 0.67941 0.88455 0.33401 0.0
H511 H 0.693 0.9239 0.36641 0.0
H512 H 0.63036 0.89041 0.35623 0.0
H513 H 0.599 0.88676 0.34556 0.0
H514 H 0.57801 0.94466 0.35693 0.0
H515 H 0.6094 0.94878 0.36755 0.0
C516 C 0.66116 0.90816 0.41515 0.0
C517 C 0.64705 0.92082 0.42037 0.0
C518 C 0.66497 0.91035 0.4042 0.0
C519 C 0.65501 0.92546 0.39824 0.0
C520 C 0.64143 0.93859 0.4035 0.0
C521 C 0.63749 0.93631 0.41447 0.0
C522 C 0.65749 0.92625 0.3864 0.0
C523 C 0.64 0.92488 0.38 0.0
C524 C 0.67687 0.92623 0.38144 0.0
C525 C 0.69587 0.92899 0.3877 0.0
C526 C 0.69802 0.94554 0.39475 0.0
C527 C 0.71589 0.94801 0.40068 0.0
C528 C 0.73178 0.9341 0.39957 0.0
C529 C 0.72986 0.9177 0.39252 0.0
C530 C 0.71201 0.91514 0.38658 0.0
C531 C 0.65334 0.92939 0.33412 0.0
C532 C 0.66216 0.91158 0.32995 0.0
C533 C 0.65375 0.9333 0.34512 0.0
C534 C 0.66291 0.91946 0.35217 0.0
C535 C 0.6728 0.9023 0.348 0.0
C536 C 0.67239 0.89834 0.33697 0.0
C537 C 0.66072 0.92203 0.36391 0.0
C538 C 0.67821 0.92392 0.37025 0.0
C539 C 0.64135 0.92263 0.36884 0.0
C540 C 0.62232 0.92 0.36259 0.0
C541 C 0.61912 0.90242 0.3564 0.0
C542 C 0.60133 0.90026 0.35037 0.0
C543 C 0.58655 0.9155 0.35054 0.0
C544 C 0.58949 0.93289 0.35679 0.0
C545 C 0.60727 0.93514 0.36282 0.0
H546 H 0.57282 0.91382 0.34585 0.0
H547 H 0.74561 0.93604 0.40416 0.0
H548 H 0.33933 0.43945 0.67248 0.0
H549 H 0.33551 0.4424 0.65306 0.0
H550 H 0.32365 0.37806 0.6509 0.0
H551 H 0.32777 0.3749 0.67032 0.0
H552 H 0.35262 0.38924 0.63722 0.0
H553 H 0.28611 0.41333 0.64636 0.0
H554 H 0.261 0.43483 0.65568 0.0
H555 H 0.28705 0.48813 0.64134 0.0
H556 H 0.31251 0.46697 0.63205 0.0
H557 H 0.32776 0.38495 0.58252 0.0
H558 H 0.32457 0.38421 0.602 0.0
H559 H 0.33971 0.4479 0.60351 0.0
H560 H 0.34276 0.44888 0.58391 0.0
H561 H 0.30855 0.43762 0.61744 0.0
H562 H 0.37548 0.41391 0.60883 0.0
H563 H 0.40081 0.39269 0.5995 0.0
H564 H 0.37416 0.33894 0.61304 0.0
H565 H 0.34847 0.35984 0.62233 0.0
C566 C 0.33559 0.42596 0.66791 0.0
C567 C 0.33398 0.4069 0.67295 0.0
C568 C 0.33332 0.4277 0.65679 0.0
C569 C 0.32923 0.41046 0.65052 0.0
C570 C 0.32685 0.39156 0.65559 0.0
C571 C 0.32915 0.38979 0.66669 0.0
C572 C 0.32907 0.41183 0.63864 0.0
C573 C 0.34271 0.39957 0.6329 0.0
C574 C 0.31664 0.42581 0.63302 0.0
C575 C 0.30134 0.43857 0.63859 0.0
C576 C 0.2866 0.42965 0.64527 0.0
C577 C 0.27228 0.44178 0.65053 0.0
C578 C 0.27246 0.46284 0.64913 0.0
C579 C 0.28694 0.47181 0.64243 0.0
C580 C 0.30131 0.45976 0.63716 0.0
C581 C 0.33032 0.39887 0.58696 0.0
C582 C 0.33571 0.41695 0.58166 0.0
C583 C 0.3285 0.39839 0.5981 0.0
C584 C 0.33218 0.41593 0.6042 0.0
C585 C 0.33687 0.43419 0.59894 0.0
C586 C 0.33868 0.43469 0.58775 0.0
C587 C 0.33191 0.41486 0.61608 0.0
C588 C 0.31833 0.42723 0.6218 0.0
C589 C 0.34443 0.40103 0.62172 0.0
C590 C 0.35993 0.38843 0.61619 0.0
C591 C 0.37492 0.39755 0.60975 0.0
C592 C 0.38936 0.38558 0.60448 0.0
C593 C 0.38906 0.36447 0.60565 0.0
C594 C 0.37436 0.35529 0.61212 0.0
C595 C 0.35986 0.36719 0.6174 0.0
H596 H 0.40025 0.35523 0.60157 0.0
H597 H 0.26136 0.4722 0.6532 0.0
H598 H 0.83867 0.0388 0.919 0.0
H599 H 0.83423 0.03199 0.89978 0.0
H600 H 0.83057 0.09639 0.89364 0.0
H601 H 0.83476 0.1033 0.91269 0.0
H602 H 0.80195 0.07566 0.88246 0.0
H603 H 0.87446 0.07023 0.88955 0.0
H604 H 0.90466 0.05587 0.8985 0.0
H605 H 0.88932 0.99649 0.88672 0.0
H606 H 0.85888 0.01049 0.87781 0.0
H607 H 0.83291 0.09493 0.82956 0.0
H608 H 0.82696 0.09175 0.84877 0.0
H609 H 0.83433 0.02674 0.84653 0.0
H610 H 0.84076 0.02985 0.82726 0.0
H611 H 0.85693 0.04133 0.86215 0.0
H612 H 0.78757 0.04815 0.85235 0.0
H613 H 0.75776 0.06278 0.8432 0.0
H614 H 0.76668 0.1192 0.85984 0.0
H615 H 0.79672 0.10502 0.86899 0.0
C616 C 0.83684 0.05149 0.91355 0.0
C617 C 0.83718 0.07159 0.91738 0.0
C618 C 0.83433 0.04757 0.90258 0.0
C619 C 0.83216 0.0637 0.89528 0.0
C620 C 0.83213 0.08371 0.89913 0.0
C621 C 0.83466 0.08763 0.91004 0.0
C622 C 0.83064 0.06007 0.88356 0.0
C623 C 0.81397 0.06819 0.87799 0.0
C624 C 0.84599 0.04973 0.87779 0.0
C625 C 0.86428 0.04135 0.88314 0.0
C626 C 0.87745 0.05409 0.88895 0.0
C627 C 0.89462 0.04602 0.89399 0.0
C628 C 0.89886 0.02527 0.89321 0.0
C629 C 0.88598 0.01255 0.88735 0.0
C630 C 0.86878 0.02054 0.88229 0.0
C631 C 0.83295 0.0799 0.8331 0.0
C632 C 0.83742 0.06265 0.82687 0.0
C633 C 0.82941 0.07809 0.8441 0.0
C634 C 0.83001 0.05897 0.8491 0.0
C635 C 0.83377 0.04163 0.84284 0.0
C636 C 0.83739 0.04344 0.83182 0.0
C637 C 0.82851 0.05747 0.86096 0.0
C638 C 0.84463 0.0484 0.86658 0.0
C639 C 0.81262 0.06692 0.86677 0.0
C640 C 0.79449 0.07553 0.86132 0.0
C641 C 0.78326 0.06372 0.85401 0.0
C642 C 0.7663 0.07193 0.84883 0.0
C643 C 0.76034 0.09191 0.85093 0.0
C644 C 0.77131 0.10372 0.85823 0.0
C645 C 0.78829 0.09559 0.86343 0.0
H646 H 0.74722 0.09824 0.8469 0.0
H647 H 0.91217 0.01905 0.89712 0.0
H648 H 0.12924 0.44599 0.92517 0.0
H649 H 0.13238 0.44828 0.90564 0.0
H650 H 0.18276 0.40637 0.90646 0.0
H651 H 0.18001 0.4043 0.92594 0.0
H652 H 0.18903 0.4355 0.89169 0.0
H653 H 0.13485 0.38969 0.90143 0.0
H654 H 0.10295 0.37998 0.91046 0.0
H655 H 0.07086 0.42637 0.89315 0.0
H656 H 0.10265 0.43654 0.88412 0.0
H657 H 0.18447 0.39358 0.83897 0.0
H658 H 0.18499 0.39943 0.85837 0.0
H659 H 0.1342 0.44048 0.85537 0.0
H660 H 0.13335 0.43449 0.83606 0.0
H661 H 0.12806 0.41416 0.87115 0.0
H662 H 0.18237 0.45813 0.86028 0.0
H663 H 0.21445 0.46712 0.85123 0.0
H664 H 0.24653 0.42356 0.87049 0.0
H665 H 0.21458 0.41411 0.87956 0.0
C666 C 0.14119 0.43752 0.92121 0.0
C667 C 0.1542 0.42477 0.9271 0.0
C668 C 0.14292 0.43879 0.91005 0.0
C669 C 0.15757 0.4272 0.90459 0.0
C670 C 0.17131 0.41539 0.9105 0.0
C671 C 0.16964 0.41417 0.92165 0.0
C672 C 0.15773 0.42616 0.8927 0.0
C673 C 0.17576 0.43072 0.88719 0.0
C674 C 0.14031 0.42021 0.88683 0.0
C675 C 0.12116 0.41402 0.89219 0.0
C676 C 0.12101 0.39791 0.89961 0.0
C677 C 0.10295 0.39231 0.90472 0.0
C678 C 0.0849 0.40259 0.90241 0.0
C679 C 0.08486 0.41845 0.89495 0.0
C680 C 0.10289 0.42413 0.88983 0.0
C681 C 0.1735 0.40394 0.84244 0.0
C682 C 0.15884 0.41352 0.83597 0.0
C683 C 0.17388 0.40735 0.85351 0.0
C684 C 0.15974 0.42054 0.8583 0.0
C685 C 0.14525 0.43025 0.85184 0.0
C686 C 0.14481 0.42681 0.8408 0.0
C687 C 0.15938 0.42349 0.8701 0.0
C688 C 0.14131 0.41918 0.87562 0.0
C689 C 0.17679 0.42958 0.87595 0.0
C690 C 0.19604 0.43529 0.87053 0.0
C691 C 0.19624 0.45036 0.86253 0.0
C692 C 0.2144 0.45555 0.85741 0.0
C693 C 0.23251 0.44588 0.86027 0.0
C694 C 0.23249 0.43103 0.86828 0.0
C695 C 0.21436 0.42576 0.87342 0.0
H696 H 0.24656 0.44993 0.85629 0.0
H697 H 0.07093 0.39824 0.90637 0.0
H698 H 0.8021 0.9333 0.08311 0.0
H699 H 0.80031 0.93386 0.10278 0.0
H700 H 0.84751 0.88852 0.10436 0.0
H701 H 0.84955 0.88797 0.08481 0.0
H702 H 0.81299 0.87969 0.11707 0.0
H703 H 0.85917 0.93565 0.1098 0.0
H704 H 0.86872 0.96835 0.10156 0.0
H705 H 0.81873 0.99764 0.11741 0.0
H706 H 0.80872 0.96501 0.12563 0.0
H707 H 0.85061 0.87804 0.16948 0.0
H708 H 0.84457 0.88033 0.15026 0.0
H709 H 0.80662 0.93298 0.1552 0.0
H710 H 0.81322 0.93119 0.17454 0.0
H711 H 0.83094 0.93976 0.13917 0.0
H712 H 0.78633 0.88573 0.14802 0.0
H713 H 0.77536 0.85347 0.15623 0.0
H714 H 0.81932 0.82095 0.13744 0.0
H715 H 0.83077 0.85305 0.12922 0.0
C716 C 0.81217 0.92355 0.08766 0.0
C717 C 0.82597 0.9106 0.0824 0.0
C718 C 0.81114 0.9239 0.09888 0.0
C719 C 0.82377 0.91121 0.10499 0.0
C720 C 0.8376 0.89838 0.09977 0.0
C721 C 0.8388 0.89817 0.08859 0.0
C722 C 0.82254 0.91095 0.11685 0.0
C723 C 0.81702 0.89276 0.12193 0.0
C724 C 0.82701 0.92826 0.12314 0.0
C725 C 0.83306 0.94785 0.11822 0.0
C726 C 0.85011 0.94902 0.11145 0.0
C727 C 0.85563 0.96755 0.1068 0.0
C728 C 0.8443 0.98505 0.10894 0.0
C729 C 0.82746 0.98406 0.11575 0.0
C730 C 0.82187 0.96556 0.12041 0.0
C731 C 0.8408 0.89 0.16652 0.0
C732 C 0.83236 0.90441 0.17355 0.0
C733 C 0.83726 0.89123 0.1555 0.0
C734 C 0.82486 0.90664 0.15127 0.0
C735 C 0.81619 0.92093 0.15828 0.0
C736 C 0.81992 0.91985 0.16933 0.0
C737 C 0.8219 0.90826 0.13947 0.0
C738 C 0.82658 0.92672 0.13437 0.0
C739 C 0.81637 0.89124 0.13315 0.0
C740 C 0.8095 0.87184 0.13805 0.0
C741 C 0.79376 0.87172 0.14569 0.0
C742 C 0.78744 0.85345 0.15034 0.0
C743 C 0.79666 0.83517 0.14737 0.0
C744 C 0.81219 0.83512 0.13973 0.0
C745 C 0.81858 0.85335 0.13506 0.0
H746 H 0.79174 0.82105 0.15098 0.0
H747 H 0.8486 -0.00062 0.10533 0.0
H748 H 0.33677 0.5457 0.42868 0.0
H749 H 0.32834 0.54094 0.40964 0.0
H750 H 0.3522 0.60047 0.40254 0.0
H751 H 0.36069 0.60533 0.42138 0.0
H752 H 0.31416 0.59329 0.39334 0.0
H753 H 0.37987 0.55957 0.39721 0.0
H754 H 0.40297 0.53395 0.40495 0.0
H755 H 0.36342 0.48619 0.39424 0.0
H756 H 0.33994 0.51157 0.38655 0.0
H757 H 0.34075 0.60322 0.33951 0.0
H758 H 0.33746 0.60073 0.3589 0.0
H759 H 0.3208 0.53754 0.35599 0.0
H760 H 0.3247 0.53978 0.33647 0.0
H761 H 0.34836 0.54145 0.37079 0.0
H762 H 0.2857 0.5743 0.3641 0.0
H763 H 0.26209 0.59933 0.35628 0.0
H764 H 0.2937 0.64765 0.37232 0.0
H765 H 0.3177 0.62296 0.38012 0.0
C766 C 0.34028 0.55772 0.42305 0.0
C767 C 0.34944 0.57587 0.42655 0.0
C768 C 0.33544 0.55498 0.41219 0.0
C769 C 0.33961 0.57039 0.40472 0.0
C770 C 0.34875 0.58845 0.4082 0.0
C771 C 0.35371 0.59114 0.41898 0.0
C772 C 0.33479 0.56793 0.39319 0.0
C773 C 0.32162 0.58199 0.38838 0.0
C774 C 0.34391 0.55266 0.38683 0.0
C775 C 0.35804 0.53745 0.39143 0.0
C776 C 0.37601 0.54361 0.39659 0.0
C777 C 0.38919 0.52914 0.40095 0.0
C778 C 0.38463 0.50846 0.40012 0.0
C779 C 0.36691 0.50221 0.3949 0.0
C780 C 0.35367 0.51663 0.39053 0.0
C781 C 0.3361 0.58884 0.34295 0.0
C782 C 0.33303 0.57168 0.33644 0.0
C783 C 0.33409 0.58747 0.35406 0.0
C784 C 0.3286 0.56901 0.35892 0.0
C785 C 0.32499 0.55195 0.35242 0.0
C786 C 0.32718 0.55327 0.34127 0.0
C787 C 0.32827 0.56735 0.37081 0.0
C788 C 0.34044 0.55249 0.37572 0.0
C789 C 0.31805 0.58179 0.37728 0.0
C790 C 0.30358 0.59675 0.37266 0.0
C791 C 0.28771 0.59027 0.36591 0.0
C792 C 0.27424 0.60441 0.36149 0.0
C793 C 0.27641 0.62507 0.3638 0.0
C794 C 0.29203 0.63163 0.37055 0.0
C795 C 0.30555 0.61757 0.37499 0.0
H796 H 0.26597 0.63598 0.36036 0.0
H797 H 0.39485 0.49728 0.4035 0.0
H798 H 0.64202 0.08227 0.66907 0.0
H799 H 0.64383 0.07566 0.64983 0.0
H800 H 0.68628 0.12509 0.64611 0.0
H801 H 0.68439 0.132 0.66539 0.0
H802 H 0.65627 0.1271 0.63152 0.0
H803 H 0.70211 0.07601 0.64402 0.0
H804 H 0.71341 0.04717 0.65514 0.0
H805 H 0.66532 0.01026 0.6424 0.0
H806 H 0.65354 0.03898 0.63131 0.0
H807 H 0.67751 0.1064 0.57711 0.0
H808 H 0.68209 0.11022 0.59644 0.0
H809 H 0.63866 0.0623 0.60204 0.0
H810 H 0.63414 0.05818 0.58266 0.0
H811 H 0.67121 0.0596 0.61562 0.0
H812 H 0.62421 0.11114 0.60407 0.0
H813 H 0.61259 0.13993 0.59299 0.0
H814 H 0.66276 0.17594 0.60411 0.0
H815 H 0.67484 0.14725 0.61515 0.0
C816 C 0.65188 0.09167 0.66419 0.0
C817 C 0.66304 0.1077 0.66877 0.0
C818 C 0.65297 0.08778 0.65319 0.0
C819 C 0.66534 0.09975 0.64654 0.0
C820 C 0.67668 0.11564 0.6511 0.0
C821 C 0.67561 0.11953 0.66212 0.0
C822 C 0.66554 0.09632 0.63477 0.0
C823 C 0.65992 0.11244 0.62803 0.0
C824 C 0.66978 0.07704 0.63025 0.0
C825 C 0.67684 0.05972 0.6369 0.0
C826 C 0.69384 0.0618 0.64365 0.0
C827 C 0.70035 0.04546 0.64994 0.0
C828 C 0.69006 0.02691 0.6495 0.0
C829 C 0.67327 0.02465 0.64274 0.0
C830 C 0.66668 0.04094 0.63644 0.0
C831 C 0.66903 0.09654 0.58243 0.0
C832 C 0.65531 0.08209 0.57834 0.0
C833 C 0.67164 0.09879 0.59349 0.0
C834 C 0.66048 0.08676 0.60068 0.0
C835 C 0.64737 0.07179 0.59663 0.0
C836 C 0.64477 0.06949 0.58555 0.0
C837 C 0.6619 0.09036 0.6124 0.0
C838 C 0.66775 0.07429 0.61912 0.0
C839 C 0.65785 0.10967 0.61693 0.0
C840 C 0.65055 0.12698 0.61034 0.0
C841 C 0.63285 0.12515 0.60409 0.0
C842 C 0.62617 0.14145 0.59782 0.0
C843 C 0.63697 0.15973 0.59782 0.0
C844 C 0.65444 0.16176 0.6041 0.0
C845 C 0.6612 0.14549 0.61037 0.0
H846 H 0.63177 0.17234 0.59297 0.0
H847 H 0.69513 0.01428 0.65437 0.0
H848 H 0.84439 0.44763 0.82321 0.0
H849 H 0.84227 0.45259 0.84264 0.0
H850 H 0.83476 0.38801 0.84704 0.0
H851 H 0.83651 0.38295 0.82765 0.0
H852 H 0.80992 0.40891 0.86009 0.0
H853 H 0.88106 0.41115 0.85025 0.0
H854 H 0.91074 0.42424 0.84033 0.0
H855 H 0.90104 0.48356 0.85372 0.0
H856 H 0.87112 0.47087 0.86361 0.0
H857 H 0.84358 0.38733 0.91198 0.0
H858 H 0.83937 0.39078 0.89269 0.0
H859 H 0.84655 0.45573 0.89532 0.0
H860 H 0.85106 0.4524 0.91481 0.0
H861 H 0.86878 0.43999 0.87881 0.0
H862 H 0.80001 0.4361 0.89057 0.0
H863 H 0.77084 0.42233 0.90063 0.0
H864 H 0.77623 0.36572 0.88374 0.0
H865 H 0.80562 0.37904 0.87368 0.0
C866 C 0.84209 0.4345 0.8283 0.0
C867 C 0.84076 0.41487 0.82388 0.0
C868 C 0.84097 0.43736 0.83941 0.0
C869 C 0.83865 0.42064 0.8463 0.0
C870 C 0.83658 0.40113 0.84187 0.0
C871 C 0.83764 0.39826 0.83078 0.0
C872 C 0.83911 0.42321 0.85813 0.0
C873 C 0.82283 0.41561 0.86419 0.0
C874 C 0.85568 0.43252 0.86346 0.0
C875 C 0.87373 0.44012 0.85757 0.0
C876 C 0.88517 0.42702 0.85101 0.0
C877 C 0.90204 0.43436 0.8454 0.0
C878 C 0.90773 0.45473 0.84637 0.0
C879 C 0.89659 0.46779 0.85297 0.0
C880 C 0.87968 0.46054 0.85858 0.0
C881 C 0.84421 0.40241 0.90851 0.0
C882 C 0.84761 0.41962 0.91497 0.0
C883 C 0.84169 0.40435 0.89746 0.0
C884 C 0.84232 0.42353 0.89258 0.0
C885 C 0.84589 0.44078 0.89895 0.0
C886 C 0.84843 0.43886 0.91007 0.0
C887 C 0.83982 0.42522 0.88078 0.0
C888 C 0.8557 0.43361 0.87471 0.0
C889 C 0.8229 0.41659 0.87543 0.0
C890 C 0.80511 0.40855 0.88141 0.0
C891 C 0.79506 0.42067 0.88905 0.0
C892 C 0.77848 0.41295 0.89475 0.0
C893 C 0.77171 0.39315 0.89284 0.0
C894 C 0.78149 0.38105 0.88521 0.0
C895 C 0.7981 0.38869 0.8795 0.0
H896 H 0.75887 0.3872 0.89726 0.0
H897 H 0.9208 0.46037 0.84203 0.0
H898 H 0.33107 0.06235 0.66993 0.0
H899 H 0.32579 0.05801 0.6506 0.0
H900 H 0.35459 0.11581 0.64475 0.0
H901 H 0.35997 0.12027 0.66401 0.0
H902 H 0.31927 0.11016 0.63275 0.0
H903 H 0.38108 0.07375 0.64141 0.0
H904 H 0.4014 0.04827 0.65118 0.0
H905 H 0.36247 0.00077 0.63954 0.0
H906 H 0.34174 0.02603 0.62982 0.0
H907 H 0.35206 0.1093 0.57945 0.0
H908 H 0.34917 0.1098 0.5989 0.0
H909 H 0.32502 0.04887 0.59849 0.0
H910 H 0.3282 0.04808 0.57888 0.0
H911 H 0.35336 0.05318 0.61387 0.0
H912 H 0.29381 0.08897 0.60346 0.0
H913 H 0.27343 0.1143 0.59364 0.0
H914 H 0.30709 0.16257 0.60851 0.0
H915 H 0.32789 0.13752 0.61831 0.0
C916 C 0.33615 0.0742 0.66453 0.0
C917 C 0.34604 0.09162 0.66849 0.0
C918 C 0.33317 0.07166 0.6535 0.0
C919 C 0.33994 0.08653 0.64627 0.0
C920 C 0.34926 0.10417 0.65021 0.0
C921 C 0.3524 0.10665 0.66122 0.0
C922 C 0.33793 0.08353 0.63454 0.0
C923 C 0.32679 0.09778 0.6286 0.0
C924 C 0.34723 0.06699 0.6292 0.0
C925 C 0.35972 0.0518 0.635 0.0
C926 C 0.37675 0.05789 0.64102 0.0
C927 C 0.38836 0.04348 0.64653 0.0
C928 C 0.38319 0.02292 0.64601 0.0
C929 C 0.36643 0.01671 0.63995 0.0
C930 C 0.35475 0.03106 0.63444 0.0
C931 C 0.34606 0.09598 0.58345 0.0
C932 C 0.3403 0.07865 0.57759 0.0
C933 C 0.34431 0.09635 0.59459 0.0
C934 C 0.33656 0.07951 0.60014 0.0
C935 C 0.33093 0.06208 0.59435 0.0
C936 C 0.33273 0.06167 0.58315 0.0
C937 C 0.33504 0.08009 0.61201 0.0
C938 C 0.34552 0.06539 0.618 0.0
C939 C 0.32504 0.09618 0.61741 0.0
C940 C 0.31251 0.11134 0.61157 0.0
C941 C 0.29697 0.10498 0.60458 0.0
C942 C 0.28532 0.1193 0.59902 0.0
C943 C 0.28899 0.14003 0.60044 0.0
C944 C 0.30427 0.1465 0.60743 0.0
C945 C 0.31598 0.13225 0.613 0.0
H946 H 0.27995 0.15109 0.59613 0.0
H947 H 0.3922 0.01178 0.65027 0.0
H948 H 0.65949 0.57869 0.41667 0.0
H949 H 0.66071 0.57499 0.39722 0.0
H950 H 0.72483 0.58862 0.3975 0.0
H951 H 0.72366 0.59272 0.417 0.0
H952 H 0.70584 0.61153 0.3833 0.0
H953 H 0.70754 0.54082 0.39083 0.0
H954 H 0.69723 0.5086 0.39933 0.0
H955 H 0.6383 0.51327 0.38476 0.0
H956 H 0.64814 0.54567 0.37629 0.0
H957 H 0.70422 0.60062 0.32609 0.0
H958 H 0.71345 0.59415 0.34486 0.0
H959 H 0.6505 0.58289 0.35244 0.0
H960 H 0.6412 0.58909 0.33382 0.0
H961 H 0.67521 0.55549 0.36216 0.0
H962 H 0.67201 0.62872 0.35745 0.0
H963 H 0.68189 0.66128 0.34915 0.0
H964 H 0.74385 0.65152 0.35866 0.0
H965 H 0.73435 0.61876 0.36689 0.0
C966 C 0.67394 0.58057 0.41263 0.0
C967 C 0.69145 0.58613 0.41839 0.0
C968 C 0.67464 0.57833 0.4015 0.0
C969 C 0.6929 0.58139 0.39589 0.0
C970 C 0.71058 0.58618 0.40166 0.0
C971 C 0.70989 0.58847 0.41281 0.0
C972 C 0.69298 0.58142 0.38397 0.0
C973 C 0.69961 0.59904 0.37866 0.0
C974 C 0.68456 0.56529 0.37791 0.0
C975 C 0.67856 0.54576 0.38297 0.0
C976 C 0.69233 0.53506 0.3895 0.0
C977 C 0.68657 0.51675 0.3943 0.0
C978 C 0.66711 0.50891 0.3926 0.0
C979 C 0.65337 0.51936 0.38607 0.0
C980 C 0.65904 0.53768 0.38125 0.0
C981 C 0.69238 0.59664 0.33175 0.0
C982 C 0.67196 0.59553 0.32847 0.0
C983 C 0.69767 0.59298 0.34247 0.0
C984 C 0.68263 0.58817 0.35005 0.0
C985 C 0.66236 0.58652 0.34672 0.0
C986 C 0.65706 0.59021 0.33606 0.0
C987 C 0.68759 0.58575 0.36159 0.0
C988 C 0.68188 0.56773 0.36681 0.0
C989 C 0.69683 0.6015 0.36758 0.0
C990 C 0.70252 0.62119 0.36266 0.0
C991 C 0.68777 0.63344 0.35769 0.0
C992 C 0.69329 0.65195 0.35301 0.0
C993 C 0.7135 0.65843 0.35335 0.0
C994 C 0.72821 0.64645 0.35838 0.0
C995 C 0.72277 0.62792 0.36306 0.0
H996 H 0.71774 0.67276 0.34973 0.0
H997 H 0.66268 0.49473 0.39632 0.0
H998 H 0.20554 0.92714 0.16445 0.0
H999 H 0.20822 0.9289 0.14483 0.0
H1000 H 0.1483 0.90294 0.14188 0.0
H1001 H 0.14553 0.901 0.16132 0.0
H1002 H 0.17506 0.88505 0.12831 0.0
H1003 H 0.156 0.95353 0.13882 0.0
H1004 H 0.16058 0.9859 0.1485 0.0
H1005 H 0.21796 0.99497 0.13281 0.0
H1006 H 0.21382 0.96249 0.12314 0.0
H1007 H 0.13541 0.90978 0.0783 0.0
H1008 H 0.14194 0.91163 0.09754 0.0
H1009 H 0.20415 0.9285 0.0914 0.0
H1010 H 0.19786 0.9264 0.07201 0.0
H1011 H 0.1828 0.95066 0.10909 0.0
H1012 H 0.2 0.88408 0.09699 0.0
H1013 H 0.19485 0.85225 0.08693 0.0
H1014 H 0.14147 0.83943 0.10553 0.0
H1015 H 0.14603 0.87145 0.11555 0.0
C1016 C 0.19296 0.9218 0.15961 0.0
C1017 C 0.17531 0.91397 0.16446 0.0
C1018 C 0.1945 0.92286 0.14841 0.0
C1019 C 0.17842 0.91611 0.14191 0.0
C1020 C 0.16091 0.90816 0.14674 0.0
C1021 C 0.15933 0.90715 0.15788 0.0
C1022 C 0.17948 0.91732 0.13005 0.0
C1023 C 0.17671 0.8994 0.12412 0.0
C1024 C 0.18226 0.93597 0.12457 0.0
C1025 C 0.18473 0.95548 0.13037 0.0
C1026 C 0.16968 0.96234 0.13751 0.0
C1027 C 0.17217 0.98072 0.14298 0.0
C1028 C 0.18958 0.99245 0.1413 0.0
C1029 C 0.2045 0.98585 0.13412 0.0
C1030 C 0.20209 0.96746 0.12864 0.0
C1031 C 0.15041 0.91422 0.081 0.0
C1032 C 0.16618 0.91777 0.07362 0.0
C1033 C 0.15411 0.91522 0.092 0.0
C1034 C 0.17356 0.91997 0.09584 0.0
C1035 C 0.18906 0.92475 0.08854 0.0
C1036 C 0.18544 0.9235 0.0775 0.0
C1037 C 0.17777 0.91849 0.10745 0.0
C1038 C 0.18154 0.93629 0.1133 0.0
C1039 C 0.17598 0.89971 0.11288 0.0
C1040 C 0.17326 0.88029 0.10696 0.0
C1041 C 0.18705 0.87458 0.09888 0.0
C1042 C 0.18425 0.85649 0.09318 0.0
C1043 C 0.16782 0.84384 0.09558 0.0
C1044 C 0.15418 0.84925 0.10368 0.0
C1045 C 0.15687 0.86738 0.10937 0.0
H1046 H 0.16569 0.82983 0.09116 0.0
H1047 H 0.19149 0.00668 0.14554 0.0
H1048 H 0.8754 0.61154 0.08735 0.0
H1049 H 0.86792 0.60279 0.10594 0.0
H1050 H 0.81709 0.56634 0.09562 0.0
H1051 H 0.82451 0.57504 0.07686 0.0
H1052 H 0.80761 0.59215 0.11269 0.0
H1053 H 0.85723 0.54234 0.10439 0.0
H1054 H 0.88935 0.52877 0.09717 0.0
H1055 H 0.92315 0.56552 0.11935 0.0
H1056 H 0.89124 0.57956 0.1266 0.0
H1057 H 0.80173 0.55808 0.16836 0.0
H1058 H 0.80316 0.55792 0.14865 0.0
H1059 H 0.85489 0.59808 0.1496 0.0
H1060 H 0.85353 0.59851 0.16912 0.0
H1061 H 0.86064 0.56365 0.13666 0.0
H1062 H 0.81078 0.61668 0.14292 0.0
H1063 H 0.77858 0.63041 0.14998 0.0
H1064 H 0.74506 0.58666 0.13153 0.0
H1065 H 0.77711 0.57249 0.12448 0.0
C1066 C 0.86268 0.60157 0.089 0.0
C1067 C 0.85057 0.59396 0.08063 0.0
C1068 C 0.85848 0.59652 0.09963 0.0
C1069 C 0.84206 0.58378 0.10214 0.0
C1070 C 0.82987 0.57615 0.09383 0.0
C1071 C 0.83418 0.58107 0.08313 0.0
C1072 C 0.83758 0.57906 0.11352 0.0
C1073 C 0.819 0.58547 0.1179 0.0
C1074 C 0.85252 0.57051 0.12031 0.0
C1075 C 0.87181 0.5621 0.116 0.0
C1076 C 0.87151 0.54765 0.10768 0.0
C1077 C 0.88969 0.53985 0.10359 0.0
C1078 C 0.90828 0.5463 0.10779 0.0
C1079 C 0.90873 0.56054 0.11611 0.0
C1080 C 0.8906 0.5684 0.12022 0.0
C1081 C 0.8133 0.567 0.16435 0.0
C1082 C 0.82754 0.57827 0.17031 0.0
C1083 C 0.81407 0.56689 0.15311 0.0
C1084 C 0.82919 0.57792 0.1477 0.0
C1085 C 0.84319 0.58938 0.15364 0.0
C1086 C 0.8423 0.58967 0.16481 0.0
C1087 C 0.83099 0.57738 0.13587 0.0
C1088 C 0.84908 0.56992 0.13141 0.0
C1089 C 0.81557 0.58488 0.12903 0.0
C1090 C 0.79634 0.59334 0.13329 0.0
C1091 C 0.79655 0.60985 0.14046 0.0
C1092 C 0.77833 0.61774 0.14444 0.0
C1093 C 0.75978 0.60936 0.14124 0.0
C1094 C 0.75943 0.5931 0.13403 0.0
C1095 C 0.77762 0.58514 0.13003 0.0
H1096 H 0.74569 0.6155 0.14433 0.0
H1097 H 0.92234 0.54024 0.10462 0.0
H1098 H 0.15025 0.07839 0.82739 0.0
H1099 H 0.1525 0.06928 0.84633 0.0
H1100 H 0.17567 0.12896 0.85368 0.0
H1101 H 0.1735 0.1383 0.8347 0.0
H1102 H 0.19446 0.09727 0.86551 0.0
H1103 H 0.12685 0.12101 0.85615 0.0
H1104 H 0.09528 0.12032 0.84548 0.0
H1105 H 0.08467 0.05855 0.85504 0.0
H1106 H 0.11635 0.0588 0.86566 0.0
H1107 H 0.16722 0.11778 0.91864 0.0
H1108 H 0.1726 0.11646 0.89936 0.0
H1109 H 0.14095 0.05912 0.89784 0.0
H1110 H 0.13508 0.06053 0.91727 0.0
H1111 H 0.1277 0.08413 0.88269 0.0
H1112 H 0.19265 0.0615 0.89403 0.0
H1113 H 0.22442 0.0615 0.90452 0.0
H1114 H 0.24054 0.11949 0.89123 0.0
H1115 H 0.20873 0.11998 0.88078 0.0
C1116 C 0.15616 0.08951 0.83299 0.0
C1117 C 0.16144 0.1092 0.82956 0.0
C1118 C 0.15741 0.08425 0.84381 0.0
C1119 C 0.16395 0.09856 0.85139 0.0
C1120 C 0.17052 0.11775 0.84793 0.0
C1121 C 0.16922 0.12307 0.83709 0.0
C1122 C 0.16228 0.09416 0.863 0.0
C1123 C 0.1799 0.0945 0.86931 0.0
C1124 C 0.1433 0.08989 0.86784 0.0
C1125 C 0.12408 0.08985 0.8616 0.0
C1126 C 0.11785 0.10724 0.85592 0.0
C1127 C 0.09993 0.10693 0.84989 0.0
C1128 C 0.08801 0.08938 0.84955 0.0
C1129 C 0.09394 0.07213 0.85529 0.0
C1130 C 0.11187 0.07234 0.86132 0.0
C1131 C 0.16152 0.10476 0.91426 0.0
C1132 C 0.15068 0.08925 0.91951 0.0
C1133 C 0.16475 0.10396 0.90322 0.0
C1134 C 0.15745 0.08754 0.89717 0.0
C1135 C 0.14681 0.07188 0.90237 0.0
C1136 C 0.14349 0.0727 0.91347 0.0
C1137 C 0.15989 0.08762 0.88533 0.0
C1138 C 0.14237 0.08652 0.87893 0.0
C1139 C 0.179 0.09105 0.88042 0.0
C1140 C 0.19821 0.09082 0.88667 0.0
C1141 C 0.2029 0.07432 0.8934 0.0
C1142 C 0.22093 0.07423 0.89933 0.0
C1143 C 0.23447 0.0905 0.89855 0.0
C1144 C 0.23003 0.10689 0.89183 0.0
C1145 C 0.21201 0.10707 0.88588 0.0
H1146 H 0.24843 0.0904 0.90315 0.0
H1147 H 0.07415 0.08916 0.84487 0.0
H1148 H 0.6717 0.39052 0.57586 0.0
H1149 H 0.67871 0.39071 0.5951 0.0
H1150 H 0.6376 0.44116 0.59922 0.0
H1151 H 0.63074 0.44131 0.57992 0.0
H1152 H 0.67147 0.44552 0.61153 0.0
H1153 H 0.62213 0.393 0.60439 0.0
H1154 H 0.60901 0.36229 0.59541 0.0
H1155 H 0.65966 0.32783 0.60727 0.0
H1156 H 0.67323 0.35843 0.61621 0.0
H1157 H 0.64282 0.43565 0.666 0.0
H1158 H 0.64591 0.43859 0.64659 0.0
H1159 H 0.68551 0.38636 0.64602 0.0
H1160 H 0.68218 0.38304 0.66551 0.0
H1161 H 0.65596 0.38245 0.63175 0.0
H1162 H 0.70353 0.43452 0.6405 0.0
H1163 H 0.7162 0.46528 0.64959 0.0
H1164 H 0.66891 0.50068 0.63497 0.0
H1165 H 0.65577 0.47007 0.6259 0.0
C1166 C 0.66425 0.40177 0.58083 0.0
C1167 C 0.6505 0.41578 0.57637 0.0
C1168 C 0.66825 0.40183 0.59184 0.0
C1169 C 0.65844 0.41575 0.59861 0.0
C1170 C 0.64531 0.43026 0.59414 0.0
C1171 C 0.64135 0.43027 0.58311 0.0
C1172 C 0.66112 0.41456 0.61042 0.0
C1173 C 0.66794 0.4318 0.61598 0.0
C1174 C 0.65701 0.39648 0.61617 0.0
C1175 C 0.6488 0.37805 0.61086 0.0
C1176 C 0.63055 0.37891 0.60501 0.0
C1177 C 0.62302 0.36152 0.59994 0.0
C1178 C 0.63353 0.34313 0.60075 0.0
C1179 C 0.65156 0.34209 0.60665 0.0
C1180 C 0.65917 0.35945 0.61172 0.0
C1181 C 0.65244 0.42493 0.66179 0.0
C1182 C 0.66217 0.40903 0.66731 0.0
C1183 C 0.65428 0.42672 0.65067 0.0
C1184 C 0.66607 0.4128 0.64484 0.0
C1185 C 0.67635 0.39729 0.65037 0.0
C1186 C 0.67447 0.39545 0.66151 0.0
C1187 C 0.6662 0.41347 0.63293 0.0
C1188 C 0.6598 0.39612 0.62732 0.0
C1189 C 0.67068 0.43146 0.62717 0.0
C1190 C 0.67857 0.44994 0.63258 0.0
C1191 C 0.69574 0.44883 0.63928 0.0
C1192 C 0.70302 0.46625 0.64442 0.0
C1193 C 0.69334 0.48491 0.64288 0.0
C1194 C 0.67639 0.48621 0.63617 0.0
C1195 C 0.66903 0.46883 0.63101 0.0
H1196 H 0.69901 0.49838 0.64686 0.0
H1197 H 0.62768 0.32968 0.59682 0.0
H1198 H 0.33004 0.88793 0.33236 0.0
H1199 H 0.32434 0.89343 0.35151 0.0
H1200 H 0.33866 0.95698 0.34773 0.0
H1201 H 0.34458 0.95159 0.32856 0.0
H1202 H 0.3597 0.94017 0.364 0.0
H1203 H 0.29026 0.94235 0.35303 0.0
H1204 H 0.2593 0.93055 0.34379 0.0
H1205 H 0.25962 0.87587 0.36257 0.0
H1206 H 0.29075 0.8872 0.37183 0.0
H1207 H 0.34091 0.95605 0.41961 0.0
H1208 H 0.33765 0.95962 0.40011 0.0
H1209 H 0.32099 0.89639 0.39762 0.0
H1210 H 0.32368 0.89283 0.41701 0.0
H1211 H 0.29871 0.9182 0.3843 0.0
H1212 H 0.37021 0.91321 0.39309 0.0
H1213 H 0.40186 0.92367 0.40214 0.0
H1214 H 0.39815 0.98235 0.38721 0.0
H1215 H 0.36631 0.9723 0.37818 0.0
C1216 C 0.33173 0.90314 0.33556 0.0
C1217 C 0.33784 0.91931 0.32894 0.0
C1218 C 0.32837 0.90628 0.34651 0.0
C1219 C 0.33094 0.92565 0.35103 0.0
C1220 C 0.33657 0.94192 0.34439 0.0
C1221 C 0.33989 0.93881 0.33344 0.0
C1222 C 0.32918 0.92853 0.36281 0.0
C1223 C 0.34619 0.93579 0.36842 0.0
C1224 C 0.31172 0.92242 0.36859 0.0
C1225 C 0.29293 0.91558 0.36307 0.0
C1226 C 0.28382 0.92774 0.35514 0.0
C1227 C 0.26622 0.92115 0.3499 0.0
C1228 C 0.25752 0.90246 0.35258 0.0
C1229 C 0.26638 0.89034 0.36051 0.0
C1230 C 0.28398 0.89686 0.36576 0.0
C1231 C 0.33635 0.94297 0.41491 0.0
C1232 C 0.33273 0.92412 0.41986 0.0
C1233 C 0.33456 0.94502 0.40377 0.0
C1234 C 0.32935 0.92819 0.39738 0.0
C1235 C 0.32502 0.90959 0.40237 0.0
C1236 C 0.32666 0.90757 0.41347 0.0
C1237 C 0.32937 0.92945 0.38548 0.0
C1238 C 0.31207 0.92293 0.37985 0.0
C1239 C 0.34662 0.93608 0.37967 0.0
C1240 C 0.36577 0.9421 0.38507 0.0
C1241 C 0.37607 0.92839 0.39181 0.0
C1242 C 0.39405 0.93424 0.39692 0.0
C1243 C 0.40198 0.95369 0.39528 0.0
C1244 C 0.39197 0.96731 0.38849 0.0
C1245 C 0.37396 0.96155 0.38337 0.0
H1246 H 0.4159 0.95818 0.39924 0.0
H1247 H 0.2439 0.89738 0.34852 0.0
H1248 H 0.08898 0.59983 0.06381 0.0
H1249 H 0.0518 0.59788 0.06447 0.0
H1250 H 0.04804 0.63317 0.03537 0.0
H1251 H 0.08495 0.63539 0.0347 0.0
H1252 H 0.02127 0.64642 0.05004 0.0
H1253 H 0.04195 0.58166 0.0352 0.0
H1254 H 0.06035 0.54902 0.03523 0.0
H1255 H 0.02938 0.5313 0.06408 0.0
H1256 H 0.01099 0.56398 0.06429 0.0
H1257 H 0.92595 0.62769 0.0275 0.0
H1258 H 0.96223 0.62814 0.03133 0.0
H1259 H 0.95189 0.59493 0.06066 0.0
H1260 H 0.9153 0.59431 0.05687 0.0
H1261 H 0.98505 0.58032 0.04897 0.0
H1262 H 0.96141 0.64383 0.06249 0.0
H1263 H 0.94271 0.67627 0.06204 0.0
H1264 H 0.97917 0.69637 0.03552 0.0
H1265 H 0.9979 0.66391 0.0357 0.0
C1266 C 0.08023 0.60722 0.05757 0.0
C1267 C 0.08997 0.61773 0.04919 0.0
C1268 C 0.05898 0.60602 0.05794 0.0
C1269 C 0.04715 0.61527 0.04993 0.0
C1270 C 0.05686 0.62596 0.04165 0.0
C1271 C 0.078 0.62714 0.04127 0.0
C1272 C 0.02463 0.61387 0.05001 0.0
C1273 C 0.01336 0.63196 0.04975 0.0
C1274 C 0.01428 0.59501 0.04997 0.0
C1275 C 0.02529 0.57536 0.04984 0.0
C1276 C 0.0392 0.57088 0.0416 0.0
C1277 C 0.0496 0.55236 0.04157 0.0
C1278 C 0.04609 0.53812 0.04968 0.0
C1279 C 0.03212 0.54236 0.05782 0.0
C1280 C 0.0217 0.56087 0.0579 0.0
C1281 C 0.9313 0.62042 0.03477 0.0
C1282 C 0.91766 0.61103 0.0419 0.0
C1283 C 0.95208 0.62077 0.03696 0.0
C1284 C 0.95972 0.6118 0.04634 0.0
C1285 C 0.94627 0.602 0.05339 0.0
C1286 C 0.92538 0.60171 0.05122 0.0
C1287 C 0.98179 0.61288 0.04869 0.0
C1288 C 0.99295 0.59476 0.04943 0.0
C1289 C 0.99209 0.63173 0.04915 0.0
C1290 C 0.98097 0.65136 0.04907 0.0
C1291 C 0.96535 0.6551 0.05651 0.0
C1292 C 0.95475 0.67351 0.05631 0.0
C1293 C 0.95972 0.68836 0.04874 0.0
C1294 C 0.97533 0.68485 0.04137 0.0
C1295 C 0.98596 0.66646 0.04153 0.0
H1296 H 0.9515 0.7026 0.0486 0.0
H1297 H 0.05416 0.52379 0.04963 0.0
H1298 H 0.64385 0.67085 0.30926 0.0
H1299 H 0.64802 0.7078 0.31081 0.0
H1300 H 0.62096 0.71557 0.27955 0.0
H1301 H 0.61679 0.67896 0.27791 0.0
H1302 H 0.65558 0.73806 0.28191 0.0
H1303 H 0.5938 0.72424 0.30199 0.0
H1304 H 0.57395 0.70788 0.31638 0.0
H1305 H 0.61308 0.7345 0.34011 0.0
H1306 H 0.63332 0.75081 0.32584 0.0
H1307 H 0.61909 0.83662 0.2765 0.0
H1308 H 0.62249 0.80007 0.27882 0.0
H1309 H 0.64898 0.80932 0.3101 0.0
H1310 H 0.64549 0.84622 0.30788 0.0
H1311 H 0.62056 0.7784 0.31002 0.0
H1312 H 0.67938 0.79622 0.29005 0.0
H1313 H 0.69907 0.81282 0.27569 0.0
H1314 H 0.66639 0.77871 0.25192 0.0
H1315 H 0.64626 0.76212 0.26613 0.0
C1316 C 0.6388 0.68045 0.30272 0.0
C1317 C 0.62994 0.67193 0.29347 0.0
C1318 C 0.64115 0.70154 0.30363 0.0
C1319 C 0.63474 0.71441 0.2953 0.0
C1320 C 0.62607 0.70591 0.28606 0.0
C1321 C 0.62362 0.68494 0.28516 0.0
C1322 C 0.63687 0.7368 0.29607 0.0
C1323 C 0.64788 0.7469 0.28804 0.0
C1324 C 0.62742 0.74827 0.30428 0.0
C1325 C 0.61522 0.73853 0.31285 0.0
C1326 C 0.59827 0.72646 0.31027 0.0
C1327 C 0.58693 0.71723 0.31841 0.0
C1328 C 0.59229 0.72009 0.32916 0.0
C1329 C 0.60897 0.73226 0.33179 0.0
C1330 C 0.62037 0.7415 0.32368 0.0
C1331 C 0.62564 0.83098 0.28389 0.0
C1332 C 0.63211 0.8444 0.29198 0.0
C1333 C 0.62765 0.81004 0.28519 0.0
C1334 C 0.63627 0.80198 0.29456 0.0
C1335 C 0.64239 0.81525 0.30278 0.0
C1336 C 0.64042 0.83631 0.30148 0.0
C1337 C 0.63869 0.77966 0.29564 0.0
C1338 C 0.6286 0.76958 0.30402 0.0
C1339 C 0.64906 0.76816 0.28776 0.0
C1340 C 0.66122 0.77801 0.27917 0.0
C1341 C 0.67628 0.79235 0.28176 0.0
C1342 C 0.68754 0.80175 0.27364 0.0
C1343 C 0.68396 0.79684 0.2629 0.0
C1344 C 0.66914 0.7825 0.26025 0.0
C1345 C 0.65782 0.77307 0.26833 0.0
H1346 H 0.69269 0.80414 0.25663 0.0
H1347 H 0.58349 0.71294 0.33544 0.0
H1348 H 0.40635 0.40842 0.55733 0.0
H1349 H 0.44344 0.41086 0.55886 0.0
H1350 H 0.44875 0.40778 0.5244 0.0
H1351 H 0.41199 0.40525 0.52278 0.0
H1352 H 0.47289 0.3802 0.53441 0.0
H1353 H 0.45694 0.45179 0.53775 0.0
H1354 H 0.44031 0.4815 0.54601 0.0
H1355 H 0.46978 0.46855 0.57599 0.0
H1356 H 0.48639 0.43858 0.56793 0.0
H1357 H 0.57084 0.40621 0.52049 0.0
H1358 H 0.53442 0.40905 0.52344 0.0
H1359 H 0.54397 0.40885 0.55768 0.0
H1360 H 0.58082 0.40614 0.5548 0.0
H1361 H 0.51278 0.43626 0.55072 0.0
H1362 H 0.53071 0.36635 0.54719 0.0
H1363 H 0.54768 0.33674 0.53902 0.0
H1364 H 0.51422 0.34597 0.50984 0.0
H1365 H 0.49727 0.37584 0.51777 0.0
C1366 C 0.41542 0.40852 0.55008 0.0
C1367 C 0.40619 0.40649 0.53994 0.0
C1368 C 0.4366 0.40995 0.55097 0.0
C1369 C 0.44884 0.40944 0.54174 0.0
C1370 C 0.4396 0.40808 0.53163 0.0
C1371 C 0.41854 0.40667 0.53072 0.0
C1372 C 0.47133 0.4091 0.54249 0.0
C1373 C 0.48159 0.39254 0.53791 0.0
C1374 C 0.48266 0.4248 0.54744 0.0
C1375 C 0.47271 0.44281 0.55227 0.0
C1376 C 0.45973 0.45517 0.54613 0.0
C1377 C 0.45034 0.47208 0.55077 0.0
C1378 C 0.45393 0.47687 0.56153 0.0
C1379 C 0.46698 0.46479 0.56766 0.0
C1380 C 0.47639 0.44786 0.56306 0.0
C1381 C 0.56532 0.40699 0.52867 0.0
C1382 C 0.57875 0.40566 0.53742 0.0
C1383 C 0.54446 0.40862 0.53033 0.0
C1384 C 0.5365 0.40881 0.54077 0.0
C1385 C 0.54985 0.40864 0.54956 0.0
C1386 C 0.57086 0.40705 0.5479 0.0
C1387 C 0.5142 0.40772 0.5423 0.0
C1388 C 0.50402 0.42385 0.54734 0.0
C1389 C 0.50283 0.39155 0.53783 0.0
C1390 C 0.51282 0.37343 0.53306 0.0
C1391 C 0.52707 0.36215 0.539 0.0
C1392 C 0.53667 0.34531 0.53442 0.0
C1393 C 0.53206 0.3395 0.52391 0.0
C1394 C 0.51779 0.35049 0.51798 0.0
C1395 C 0.50815 0.36737 0.52252 0.0
H1396 H 0.53952 0.32646 0.52038 0.0
H1397 H 0.44665 0.48997 0.56511 0.0
H1398 H 0.84296 0.32444 0.80124 0.0
H1399 H 0.84199 0.28742 0.80336 0.0
H1400 H 0.8687 0.28025 0.77196 0.0
H1401 H 0.86937 0.31697 0.76971 0.0
H1402 H 0.83833 0.25444 0.77446 0.0
H1403 H 0.89672 0.27522 0.79535 0.0
H1404 H 0.91441 0.29429 0.8096 0.0
H1405 H 0.87632 0.2665 0.83341 0.0
H1406 H 0.85822 0.24745 0.81928 0.0
H1407 H 0.8809 0.157 0.7738 0.0
H1408 H 0.87611 0.19368 0.77453 0.0
H1409 H 0.84556 0.18786 0.80499 0.0
H1410 H 0.85037 0.15093 0.80438 0.0
H1411 H 0.87342 0.21976 0.80457 0.0
H1412 H 0.81771 0.19599 0.78345 0.0
H1413 H 0.80125 0.17638 0.769 0.0
H1414 H 0.83514 0.20966 0.74539 0.0
H1415 H 0.85204 0.22926 0.75971 0.0
C1416 C 0.8486 0.31496 0.79479 0.0
C1417 C 0.85627 0.32369 0.78531 0.0
C1418 C 0.8481 0.29381 0.79602 0.0
C1419 C 0.85542 0.28105 0.78785 0.0
C1420 C 0.86291 0.28977 0.77837 0.0
C1421 C 0.86334 0.31081 0.77711 0.0
C1422 C 0.85545 0.2586 0.78904 0.0
C1423 C 0.84611 0.24688 0.78102 0.0
C1424 C 0.86508 0.24869 0.79775 0.0
C1425 C 0.87596 0.26011 0.80625 0.0
C1426 C 0.89201 0.27331 0.80362 0.0
C1427 C 0.90213 0.28408 0.81168 0.0
C1428 C 0.89645 0.28166 0.8224 0.0
C1429 C 0.88067 0.2684 0.8251 0.0
C1430 C 0.87049 0.2576 0.81707 0.0
C1431 C 0.8732 0.16345 0.78069 0.0
C1432 C 0.86593 0.15097 0.78901 0.0
C1433 C 0.87041 0.18444 0.78107 0.0
C1434 C 0.86025 0.19345 0.78974 0.0
C1435 C 0.85337 0.18117 0.7982 0.0
C1436 C 0.85609 0.16008 0.79782 0.0
C1437 C 0.85679 0.21571 0.78985 0.0
C1438 C 0.86541 0.22736 0.79811 0.0
C1439 C 0.84658 0.22558 0.78132 0.0
C1440 C 0.83625 0.214 0.77267 0.0
C1441 C 0.82175 0.19904 0.77518 0.0
C1442 C 0.81233 0.18793 0.76702 0.0
C1443 C 0.81717 0.19175 0.75629 0.0
C1444 C 0.83141 0.20672 0.7537 0.0
C1445 C 0.8409 0.21785 0.76184 0.0
H1446 H 0.80987 0.18312 0.74997 0.0
H1447 H 0.9043 0.29001 0.82863 0.0
H1448 H 0.92089 0.37758 0.97309 0.0
H1449 H 0.95776 0.38017 0.97288 0.0
H1450 H 0.95582 0.40252 0.94035 0.0
H1451 H 0.91862 0.40017 0.94051 0.0
H1452 H 0.9841 0.36024 0.96027 0.0
H1453 H 0.99824 0.43432 0.93704 0.0
H1454 H 0.98124 0.46696 0.93322 0.0
H1455 H 0.94862 0.46281 0.96299 0.0
H1456 H 0.96562 0.4303 0.96703 0.0
H1457 H 0.09192 0.40356 0.94775 0.0
H1458 H 0.05519 0.4041 0.9444 0.0
H1459 H 0.04438 0.38219 0.97652 0.0
H1460 H 0.08081 0.38131 0.97988 0.0
H1461 H 0.02304 0.42369 0.95402 0.0
H1462 H 0.00684 0.34805 0.97641 0.0
H1463 H 0.02408 0.31558 0.98025 0.0
H1464 H 0.06089 0.32278 0.95206 0.0
H1465 H 0.04368 0.35514 0.94796 0.0
C1466 C 0.92821 0.38315 0.96588 0.0
C1467 C 0.91676 0.38861 0.9568 0.0
C1468 C 0.94934 0.38458 0.96578 0.0
C1469 C 0.95955 0.39156 0.95662 0.0
C1470 C 0.94823 0.39727 0.94755 0.0
C1471 C 0.92698 0.39585 0.94764 0.0
C1472 C 0.98209 0.39215 0.9566 0.0
C1473 C 0.99259 0.37415 0.95898 0.0
C1474 C 0.99321 0.41015 0.95454 0.0
C1475 C 0.98301 0.42976 0.95226 0.0
C1476 C 0.98747 0.4404 0.94277 0.0
C1477 C 0.97783 0.45888 0.94057 0.0
C1478 C 0.9638 0.46691 0.94784 0.0
C1479 C 0.95942 0.45652 0.95734 0.0
C1480 C 0.96903 0.43806 0.95958 0.0
C1481 C 0.0817 0.39892 0.95411 0.0
C1482 C 0.08932 0.39218 0.96405 0.0
C1483 C 0.06073 0.3993 0.95219 0.0
C1484 C 0.04709 0.39287 0.96015 0.0
C1485 C 0.05465 0.38684 0.97019 0.0
C1486 C 0.07552 0.3864 0.9721 0.0
C1487 C 0.02493 0.39191 0.95802 0.0
C1488 C 0.01454 0.40975 0.95519 0.0
C1489 C 0.01383 0.37375 0.95964 0.0
C1490 C 0.02406 0.35411 0.96193 0.0
C1491 C 0.01854 0.34265 0.971 0.0
C1492 C 0.02832 0.32428 0.97322 0.0
C1493 C 0.04361 0.31715 0.96641 0.0
C1494 C 0.0491 0.32835 0.95734 0.0
C1495 C 0.03935 0.34672 0.95507 0.0
H1496 H 0.05118 0.30293 0.96816 0.0
H1497 H 0.95635 0.4812 0.94612 0.0
H1498 H 0.87689 0.81961 0.2306 0.0
H1499 H 0.87412 0.78266 0.23026 0.0
H1500 H 0.84814 0.78542 0.19851 0.0
H1501 H 0.85055 0.82252 0.19883 0.0
H1502 H 0.82797 0.75869 0.21094 0.0
H1503 H 0.8975 0.77172 0.20203 0.0
H1504 H 0.93155 0.78673 0.20432 0.0
H1505 H 0.93813 0.75607 0.23454 0.0
H1506 H 0.90399 0.7411 0.2325 0.0
H1507 H 0.84201 0.65348 0.19904 0.0
H1508 H 0.84292 0.6906 0.19888 0.0
H1509 H 0.86837 0.69065 0.23078 0.0
H1510 H 0.86774 0.65354 0.23098 0.0
H1511 H 0.88877 0.71598 0.21767 0.0
H1512 H 0.81884 0.70324 0.22654 0.0
H1513 H 0.78481 0.68826 0.22408 0.0
H1514 H 0.77914 0.71825 0.19362 0.0
H1515 H 0.81326 0.7332 0.19584 0.0
C1516 C 0.87057 0.81241 0.22353 0.0
C1517 C 0.86404 0.82406 0.21471 0.0
C1518 C 0.86907 0.79125 0.22334 0.0
C1519 C 0.86119 0.78125 0.2143 0.0
C1520 C 0.85432 0.79282 0.20556 0.0
C1521 C 0.85577 0.81403 0.20575 0.0
C1522 C 0.86018 0.75872 0.214 0.0
C1523 C 0.84131 0.74934 0.21225 0.0
C1524 C 0.87752 0.74652 0.21591 0.0
C1525 C 0.89811 0.75544 0.21715 0.0
C1526 C 0.90614 0.7683 0.2092 0.0
C1527 C 0.92547 0.77678 0.21045 0.0
C1528 C 0.93698 0.7724 0.21959 0.0
C1529 C 0.9292 0.75948 0.22748 0.0
C1530 C 0.90986 0.75097 0.22627 0.0
C1531 C 0.84772 0.66137 0.20605 0.0
C1532 C 0.8548 0.6505 0.21503 0.0
C1533 C 0.84815 0.68261 0.20595 0.0
C1534 C 0.85557 0.69341 0.21485 0.0
C1535 C 0.86259 0.68262 0.22383 0.0
C1536 C 0.86216 0.66139 0.22394 0.0
C1537 C 0.85654 0.71594 0.2147 0.0
C1538 C 0.87543 0.72533 0.21634 0.0
C1539 C 0.83923 0.72811 0.21265 0.0
C1540 C 0.81869 0.71917 0.21131 0.0
C1541 C 0.8104 0.70651 0.21928 0.0
C1542 C 0.79109 0.69805 0.21793 0.0
C1543 C 0.77985 0.70226 0.20868 0.0
C1544 C 0.78788 0.71498 0.20077 0.0
C1545 C 0.8072 0.72347 0.20208 0.0
H1546 H 0.76489 0.6957 0.20766 0.0
H1547 H 0.95194 0.77898 0.22054 0.0
H1548 H 0.43224 0.59377 0.4482 0.0
H1549 H 0.46922 0.5916 0.4461 0.0
H1550 H 0.47722 0.62227 0.4764 0.0
H1551 H 0.44052 0.62465 0.47853 0.0
H1552 H 0.50063 0.63875 0.46087 0.0
H1553 H 0.48495 0.57143 0.47406 0.0
H1554 H 0.46768 0.53818 0.47368 0.0
H1555 H 0.49357 0.52562 0.44275 0.0
H1556 H 0.5108 0.55893 0.44289 0.0
H1557 H 0.60201 0.62305 0.47506 0.0
H1558 H 0.56505 0.62147 0.47442 0.0
H1559 H 0.56793 0.59105 0.4438 0.0
H1560 H 0.60515 0.59238 0.4444 0.0
H1561 H 0.53899 0.57424 0.45708 0.0
H1562 H 0.55659 0.6402 0.44433 0.0
H1563 H 0.57393 0.67341 0.44451 0.0
H1564 H 0.54423 0.68874 0.4741 0.0
H1565 H 0.52692 0.65549 0.47418 0.0
C1566 C 0.44188 0.59996 0.45444 0.0
C1567 C 0.43339 0.60942 0.46352 0.0
C1568 C 0.46301 0.59865 0.45324 0.0
C1569 C 0.47597 0.60673 0.46112 0.0
C1570 C 0.46751 0.61599 0.47021 0.0
C1571 C 0.44648 0.61728 0.47142 0.0
C1572 C 0.49838 0.60616 0.45985 0.0
C1573 C 0.50903 0.62463 0.46013 0.0
C1574 C 0.50927 0.58779 0.45851 0.0
C1575 C 0.49896 0.56776 0.45843 0.0
C1576 C 0.48682 0.56165 0.46714 0.0
C1577 C 0.47707 0.54278 0.46697 0.0
C1578 C 0.47947 0.52982 0.45818 0.0
C1579 C 0.49169 0.53569 0.44955 0.0
C1580 C 0.50146 0.55455 0.44967 0.0
C1581 C 0.59486 0.61593 0.46819 0.0
C1582 C 0.60659 0.60798 0.45974 0.0
C1583 C 0.5737 0.6151 0.46783 0.0
C1584 C 0.56374 0.60643 0.45898 0.0
C1585 C 0.57533 0.59789 0.45067 0.0
C1586 C 0.59659 0.59871 0.45103 0.0
C1587 C 0.54122 0.60679 0.45841 0.0
C1588 C 0.53058 0.58836 0.45772 0.0
C1589 C 0.53026 0.62521 0.45933 0.0
C1590 C 0.54058 0.64528 0.4593 0.0
C1591 C 0.55387 0.65059 0.45092 0.0
C1592 C 0.56367 0.66943 0.45097 0.0
C1593 C 0.56021 0.68316 0.45932 0.0
C1594 C 0.5469 0.67809 0.46764 0.0
C1595 C 0.53707 0.65925 0.46763 0.0
H1596 H 0.56782 0.69774 0.45935 0.0
H1597 H 0.47191 0.51522 0.45807 0.0
H1598 H 0.63395 0.18146 0.72548 0.0
H1599 H 0.63344 0.21808 0.72285 0.0
H1600 H 0.64762 0.21002 0.68934 0.0
H1601 H 0.64829 0.17301 0.69189 0.0
H1602 H 0.66918 0.2424 0.69916 0.0
H1603 H 0.60052 0.21974 0.69541 0.0
H1604 H 0.56968 0.2008 0.70051 0.0
H1605 H 0.56595 0.23457 0.72993 0.0
H1606 H 0.59695 0.25351 0.72508 0.0
H1607 H 0.64209 0.34735 0.69023 0.0
H1608 H 0.6451 0.31034 0.68872 0.0
H1609 H 0.62521 0.30392 0.72154 0.0
H1610 H 0.62178 0.34063 0.72304 0.0
H1611 H 0.60556 0.27826 0.70908 0.0
H1612 H 0.67572 0.29834 0.71384 0.0
H1613 H 0.7071 0.31687 0.70925 0.0
H1614 H 0.70831 0.28804 0.67834 0.0
H1615 H 0.67677 0.26952 0.6827 0.0
C1616 C 0.63709 0.18737 0.71754 0.0
C1617 C 0.64097 0.17424 0.70887 0.0
C1618 C 0.63675 0.20835 0.71606 0.0
C1619 C 0.64019 0.21673 0.70587 0.0
C1620 C 0.64484 0.20381 0.69725 0.0
C1621 C 0.64516 0.18269 0.69872 0.0
C1622 C 0.63815 0.23896 0.70432 0.0
C1623 C 0.65518 0.25027 0.70112 0.0
C1624 C 0.61994 0.24917 0.70701 0.0
C1625 C 0.60115 0.23796 0.70991 0.0
C1626 C 0.5932 0.22304 0.703 0.0
C1627 C 0.57568 0.21231 0.70584 0.0
C1628 C 0.56588 0.21645 0.71554 0.0
C1629 C 0.57356 0.23137 0.72242 0.0
C1630 C 0.59109 0.24213 0.71962 0.0
C1631 C 0.63842 0.33804 0.69713 0.0
C1632 C 0.63163 0.34697 0.70675 0.0
C1633 C 0.64023 0.3169 0.69626 0.0
C1634 C 0.63548 0.30435 0.70503 0.0
C1635 C 0.62888 0.31328 0.71465 0.0
C1636 C 0.62696 0.33431 0.7155 0.0
C1637 C 0.63679 0.28186 0.70426 0.0
C1638 C 0.61953 0.27045 0.70698 0.0
C1639 C 0.65481 0.27163 0.70117 0.0
C1640 C 0.67376 0.28274 0.69855 0.0
C1641 C 0.68258 0.29608 0.70603 0.0
C1642 C 0.70042 0.30656 0.70348 0.0
C1643 C 0.70966 0.30369 0.69349 0.0
C1644 C 0.70111 0.29028 0.68606 0.0
C1645 C 0.68327 0.27978 0.68857 0.0
H1646 H 0.72346 0.31181 0.69153 0.0
H1647 H 0.55232 0.20813 0.71773 0.0
H1648 H 0.37076 0.3161 0.7294 0.0
H1649 H 0.36875 0.27914 0.7288 0.0
H1650 H 0.34695 0.28202 0.69618 0.0
H1651 H 0.34848 0.31917 0.6968 0.0
H1652 H 0.32607 0.25444 0.70734 0.0
H1653 H 0.39643 0.26924 0.70173 0.0
H1654 H 0.42962 0.285 0.7056 0.0
H1655 H 0.43202 0.25414 0.73593 0.0
H1656 H 0.3987 0.2384 0.73231 0.0
H1657 H 0.34456 0.14892 0.69693 0.0
H1658 H 0.34464 0.18609 0.69634 0.0
H1659 H 0.36422 0.18805 0.72936 0.0
H1660 H 0.36437 0.151 0.73001 0.0
H1661 H 0.38648 0.21314 0.71692 0.0
H1662 H 0.31544 0.19904 0.72253 0.0
H1663 H 0.28235 0.18326 0.71844 0.0
H1664 H 0.28157 0.21263 0.68768 0.0
H1665 H 0.31481 0.22838 0.69153 0.0
C1666 C 0.36554 0.30892 0.72209 0.0
C1667 C 0.35991 0.32062 0.71312 0.0
C1668 C 0.36446 0.28775 0.72174 0.0
C1669 C 0.35802 0.27777 0.71238 0.0
C1670 C 0.35203 0.28939 0.70347 0.0
C1671 C 0.35297 0.31062 0.70383 0.0
C1672 C 0.35763 0.25522 0.71192 0.0
C1673 C 0.33936 0.2454 0.70927 0.0
C1674 C 0.37488 0.24341 0.71461 0.0
C1675 C 0.39498 0.25277 0.71679 0.0
C1676 C 0.40397 0.26592 0.70926 0.0
C1677 C 0.42282 0.27483 0.7114 0.0
C1678 C 0.4329 0.27061 0.72101 0.0
C1679 C 0.42418 0.25741 0.72849 0.0
C1680 C 0.40532 0.24847 0.72639 0.0
C1681 C 0.34879 0.15726 0.70408 0.0
C1682 C 0.35445 0.14696 0.71352 0.0
C1683 C 0.34876 0.1785 0.70374 0.0
C1684 C 0.35431 0.18984 0.71282 0.0
C1685 C 0.3599 0.1796 0.72225 0.0
C1686 C 0.35991 0.1584 0.72261 0.0
C1687 C 0.35487 0.21237 0.71248 0.0
C1688 C 0.3732 0.22218 0.71495 0.0
C1689 C 0.33771 0.22413 0.70959 0.0
C1690 C 0.31771 0.21471 0.70727 0.0
C1691 C 0.30829 0.202 0.71486 0.0
C1692 C 0.2895 0.19308 0.71259 0.0
C1693 C 0.27989 0.19689 0.70279 0.0
C1694 C 0.28904 0.20967 0.69525 0.0
C1695 C 0.30785 0.21861 0.69748 0.0
H1696 H 0.26534 0.18998 0.70105 0.0
H1697 H 0.44749 0.27753 0.72266 0.0
H1698 H 0.12654 0.68285 0.22478 0.0
H1699 H 0.13372 0.71795 0.21974 0.0
H1700 H 0.17553 0.69726 0.19547 0.0
H1701 H 0.16804 0.66178 0.20029 0.0
H1702 H 0.18806 0.73204 0.21197 0.0
H1703 H 0.14067 0.71237 0.18443 0.0
H1704 H 0.10939 0.69619 0.17767 0.0
H1705 H 0.07327 0.73615 0.19712 0.0
H1706 H 0.10436 0.75235 0.20413 0.0
H1707 H 0.15617 0.83831 0.18783 0.0
H1708 H 0.16042 0.80143 0.18633 0.0
H1709 H 0.16389 0.79677 0.22081 0.0
H1710 H 0.15958 0.8335 0.22239 0.0
H1711 H 0.13388 0.77316 0.19474 0.0
H1712 H 0.19525 0.75753 0.22727 0.0
H1713 H 0.22615 0.77383 0.23442 0.0
H1714 H 0.23504 0.80485 0.20448 0.0
H1715 H 0.20439 0.7885 0.19708 0.0
C1716 C 0.13732 0.6857 0.21839 0.0
C1717 C 0.14673 0.66955 0.21293 0.0
C1718 C 0.14136 0.70575 0.21552 0.0
C1719 C 0.15511 0.71009 0.20725 0.0
C1720 C 0.16487 0.69411 0.20187 0.0
C1721 C 0.16053 0.67392 0.20461 0.0
C1722 C 0.15879 0.73148 0.20428 0.0
C1723 C 0.17641 0.74107 0.20807 0.0
C1724 C 0.14361 0.74305 0.19911 0.0
C1725 C 0.12486 0.73347 0.19486 0.0
C1726 C 0.12606 0.71758 0.18734 0.0
C1727 C 0.10837 0.70843 0.18345 0.0
C1728 C 0.08936 0.71511 0.18698 0.0
C1729 C 0.08801 0.73099 0.19439 0.0
C1730 C 0.10566 0.74018 0.19832 0.0
C1731 C 0.15813 0.82946 0.19508 0.0
C1732 C 0.1574 0.83879 0.20523 0.0
C1733 C 0.16053 0.80841 0.19421 0.0
C1734 C 0.16259 0.79642 0.20345 0.0
C1735 C 0.16257 0.80579 0.21357 0.0
C1736 C 0.15997 0.82676 0.21446 0.0
C1737 C 0.16295 0.77396 0.20269 0.0
C1738 C 0.14591 0.76417 0.19834 0.0
C1739 C 0.17871 0.76225 0.20733 0.0
C1740 C 0.19743 0.77185 0.21164 0.0
C1741 C 0.20387 0.76771 0.22218 0.0
C1742 C 0.22133 0.777 0.22628 0.0
C1743 C 0.23253 0.7904 0.21991 0.0
C1744 C 0.22632 0.79451 0.20941 0.0
C1745 C 0.20889 0.78526 0.20527 0.0
H1746 H 0.24602 0.79759 0.22311 0.0
H1747 H 0.07567 0.708 0.18396 0.0
H1748 H 0.09664 0.1826 0.78577 0.0
H1749 H 0.10049 0.21939 0.78715 0.0
H1750 H 0.16071 0.21139 0.80025 0.0
H1751 H 0.15633 0.17445 0.7995 0.0
H1752 H 0.14516 0.24163 0.8096 0.0
H1753 H 0.1514 0.22392 0.77282 0.0
H1754 H 0.14204 0.20803 0.75559 0.0
H1755 H 0.08757 0.24387 0.75441 0.0
H1756 H 0.09647 0.25979 0.77171 0.0
H1757 H 0.15353 0.34546 0.77767 0.0
H1758 H 0.15429 0.3084 0.77841 0.0
H1759 H 0.12349 0.31002 0.80901 0.0
H1760 H 0.12404 0.34718 0.80859 0.0
H1761 H 0.12761 0.2825 0.77748 0.0
H1762 H 0.1312 0.2681 0.82362 0.0
H1763 H 0.14663 0.28354 0.83972 0.0
H1764 H 0.1926 0.3114 0.8202 0.0
H1765 H 0.17762 0.29592 0.804 0.0
C1766 C 0.11064 0.18871 0.78902 0.0
C1767 C 0.12627 0.1757 0.79243 0.0
C1768 C 0.1129 0.20975 0.78975 0.0
C1769 C 0.13113 0.21828 0.79352 0.0
C1770 C 0.14653 0.20526 0.79726 0.0
C1771 C 0.14404 0.18415 0.7968 0.0
C1772 C 0.13423 0.2407 0.79331 0.0
C1773 C 0.14138 0.25057 0.80257 0.0
C1774 C 0.12994 0.25241 0.78404 0.0
C1775 C 0.12452 0.24292 0.77361 0.0
C1776 C 0.13736 0.22832 0.76892 0.0
C1777 C 0.13215 0.21932 0.75914 0.0
C1778 C 0.1142 0.22491 0.75392 0.0
C1779 C 0.10146 0.23954 0.75847 0.0
C1780 C 0.10659 0.24858 0.76826 0.0
C1781 C 0.14715 0.33787 0.78461 0.0
C1782 C 0.13878 0.34915 0.79309 0.0
C1783 C 0.14752 0.31667 0.78502 0.0
C1784 C 0.13911 0.30624 0.79381 0.0
C1785 C 0.13061 0.31757 0.80227 0.0
C1786 C 0.13078 0.33883 0.802 0.0
C1787 C 0.13836 0.28358 0.79382 0.0
C1788 C 0.13156 0.27363 0.78451 0.0
C1789 C 0.14392 0.27178 0.80287 0.0
C1790 C 0.15315 0.281 0.81259 0.0
C1791 C 0.14464 0.27746 0.82277 0.0
C1792 C 0.1533 0.28623 0.83191 0.0
C1793 C 0.17054 0.29849 0.83098 0.0
C1794 C 0.1792 0.30196 0.8209 0.0
C1795 C 0.17062 0.29321 0.81174 0.0
H1796 H 0.17721 0.30528 0.83806 0.0
H1797 H 0.11019 0.21792 0.74635 0.0
H1798 H 0.346 0.6563 0.31066 0.0
H1799 H 0.34378 0.69345 0.31085 0.0
H1800 H 0.36917 0.69558 0.27896 0.0
H1801 H 0.3712 0.6586 0.27863 0.0
H1802 H 0.3729 0.72228 0.30929 0.0
H1803 H 0.34839 0.73413 0.26494 0.0
H1804 H 0.32817 0.71657 0.25109 0.0
H1805 H 0.29376 0.68621 0.27558 0.0
H1806 H 0.31356 0.70381 0.28957 0.0
H1807 H 0.37364 0.82116 0.27567 0.0
H1808 H 0.37108 0.78438 0.27744 0.0
H1809 H 0.34532 0.79141 0.30905 0.0
H1810 H 0.34802 0.82841 0.3074 0.0
H1811 H 0.33842 0.76022 0.2801 0.0
H1812 H 0.36114 0.75039 0.32441 0.0
H1813 H 0.38156 0.76775 0.33827 0.0
H1814 H 0.4195 0.79376 0.31383 0.0
H1815 H 0.39948 0.77635 0.29985 0.0
C1816 C 0.35104 0.66467 0.30367 0.0
C1817 C 0.3587 0.65444 0.29461 0.0
C1818 C 0.34981 0.6859 0.30381 0.0
C1819 C 0.35607 0.69727 0.29487 0.0
C1820 C 0.3639 0.68711 0.28587 0.0
C1821 C 0.36513 0.66594 0.28572 0.0
C1822 C 0.35478 0.7198 0.29495 0.0
C1823 C 0.36504 0.73058 0.30302 0.0
C1824 C 0.34479 0.73064 0.28667 0.0
C1825 C 0.3326 0.72017 0.27831 0.0
C1826 C 0.33645 0.72378 0.26737 0.0
C1827 C 0.32507 0.71381 0.25949 0.0
C1828 C 0.30973 0.70024 0.26245 0.0
C1829 C 0.30569 0.69667 0.2733 0.0
C1830 C 0.31701 0.70662 0.28121 0.0
C1831 C 0.36745 0.81496 0.28302 0.0
C1832 C 0.36109 0.82778 0.29141 0.0
C1833 C 0.36593 0.79389 0.284 0.0
C1834 C 0.35812 0.78513 0.29339 0.0
C1835 C 0.35161 0.79784 0.30177 0.0
C1836 C 0.35311 0.81899 0.3008 0.0
C1837 C 0.35687 0.76268 0.29431 0.0
C1838 C 0.3461 0.75191 0.28643 0.0
C1839 C 0.36637 0.75188 0.30276 0.0
C1840 C 0.37865 0.76227 0.31109 0.0
C1841 C 0.37387 0.75978 0.322 0.0
C1842 C 0.38537 0.76963 0.32988 0.0
C1843 C 0.40176 0.78191 0.32693 0.0
C1844 C 0.40674 0.78431 0.3161 0.0
C1845 C 0.39531 0.77449 0.3082 0.0
H1846 H 0.41064 0.78953 0.33304 0.0
H1847 H 0.30096 0.69252 0.25634 0.0
H1848 H 0.41618 0.08389 0.55408 0.0
H1849 H 0.45268 0.07783 0.55628 0.0
H1850 H 0.46104 0.08337 0.52207 0.0
H1851 H 0.42475 0.08924 0.51978 0.0
H1852 H 0.48339 0.05231 0.5303 0.0
H1853 H 0.47009 0.1232 0.53859 0.0
H1854 H 0.45365 0.15109 0.54857 0.0
H1855 H 0.47848 0.12829 0.57808 0.0
H1856 H 0.49485 0.1001 0.56827 0.0
H1857 H 0.582 0.08635 0.51987 0.0
H1858 H 0.54572 0.08095 0.52221 0.0
H1859 H 0.55389 0.07732 0.55651 0.0
H1860 H 0.59047 0.08301 0.55425 0.0
H1861 H 0.52321 0.10239 0.55136 0.0
H1862 H 0.54178 0.03487 0.5422 0.0
H1863 H 0.55848 0.00758 0.53192 0.0
H1864 H 0.52413 0.02386 0.50392 0.0
H1865 H 0.50743 0.05147 0.51398 0.0
C1866 C 0.42577 0.08362 0.54702 0.0
C1867 C 0.41756 0.08721 0.53676 0.0
C1868 C 0.44662 0.0802 0.5483 0.0
C1869 C 0.45959 0.08033 0.53935 0.0
C1870 C 0.45131 0.08318 0.52909 0.0
C1871 C 0.43054 0.08664 0.5278 0.0
C1872 C 0.48192 0.07855 0.54058 0.0
C1873 C 0.49214 0.06326 0.53488 0.0
C1874 C 0.49325 0.09247 0.54684 0.0
C1875 C 0.48346 0.10942 0.55273 0.0
C1876 C 0.4719 0.12405 0.54722 0.0
C1877 C 0.46262 0.13992 0.55284 0.0
C1878 C 0.46496 0.14142 0.56396 0.0
C1879 C 0.47664 0.12708 0.56947 0.0
C1880 C 0.48592 0.11116 0.56389 0.0
C1881 C 0.57619 0.08423 0.52793 0.0
C1882 C 0.58917 0.08516 0.53688 0.0
C1883 C 0.55541 0.08099 0.52924 0.0
C1884 C 0.54711 0.07846 0.53953 0.0
C1885 C 0.56001 0.07913 0.5485 0.0
C1886 C 0.5809 0.08236 0.54719 0.0
C1887 C 0.52478 0.0765 0.54081 0.0
C1888 C 0.51452 0.09111 0.54697 0.0
C1889 C 0.51343 0.06196 0.53495 0.0
C1890 C 0.52342 0.04534 0.52885 0.0
C1891 C 0.53788 0.03274 0.53383 0.0
C1892 C 0.54734 0.01719 0.52804 0.0
C1893 C 0.54238 0.014 0.51727 0.0
C1894 C 0.52795 0.02635 0.51226 0.0
C1895 C 0.51846 0.04193 0.51801 0.0
H1896 H 0.54971 0.00195 0.5128 0.0
H1897 H 0.45777 0.15372 0.5683 0.0
H1898 H 0.9067 0.90007 0.0546 0.0
H1899 H 0.94389 0.90048 0.05474 0.0
H1900 H 0.94472 0.87522 0.0228 0.0
H1901 H 0.90763 0.87469 0.02259 0.0
H1902 H 0.97121 0.85584 0.03634 0.0
H1903 H 0.95432 0.92467 0.02652 0.0
H1904 H 0.93759 0.95792 0.02881 0.0
H1905 H 0.96854 0.96647 0.05881 0.0
H1906 H 0.98525 0.93313 0.05677 0.0
H1907 H 0.07223 0.87244 0.02038 0.0
H1908 H 0.03531 0.87321 0.02188 0.0
H1909 H 0.04017 0.90186 0.05291 0.0
H1910 H 0.07726 0.90151 0.0514 0.0
H1911 H 0.01084 0.91933 0.04117 0.0
H1912 H 0.02881 0.8515 0.05087 0.0
H1913 H 0.04556 0.8182 0.04888 0.0
H1914 H 0.01252 0.80742 0.01971 0.0
H1915 H 0.99578 0.8408 0.02144 0.0
C1916 C 0.91479 0.89461 0.0476 0.0
C1917 C 0.90417 0.88737 0.03857 0.0
C1918 C 0.93604 0.89493 0.04768 0.0
C1919 C 0.94705 0.888 0.03875 0.0
C1920 C 0.93651 0.88064 0.02978 0.0
C1921 C 0.91529 0.88041 0.02966 0.0
C1922 C 0.96958 0.88819 0.03876 0.0
C1923 C 0.97989 0.86975 0.03728 0.0
C1924 C 0.98087 0.90625 0.04032 0.0
C1925 C 0.97086 0.92631 0.04155 0.0
C1926 C 0.95742 0.93356 0.03365 0.0
C1927 C 0.94797 0.95244 0.0349 0.0
C1928 C 0.95195 0.96427 0.04397 0.0
C1929 C 0.96544 0.95728 0.0518 0.0
C1930 C 0.97492 0.9384 0.0506 0.0
C1931 C 0.0655 0.87894 0.02754 0.0
C1932 C 0.07774 0.88681 0.0358 0.0
C1933 C 0.04436 0.87928 0.0284 0.0
C1934 C 0.03497 0.88729 0.03758 0.0
C1935 C 0.0471 0.89554 0.04577 0.0
C1936 C 0.0683 0.89528 0.0449 0.0
C1937 C 0.0125 0.887 0.0386 0.0
C1938 C 0.00219 0.9054 0.04029 0.0
C1939 C 0.00118 0.86886 0.03729 0.0
C1940 C 0.01117 0.84874 0.03624 0.0
C1941 C 0.02523 0.8421 0.04398 0.0
C1942 C 0.0347 0.8232 0.04291 0.0
C1943 C 0.03014 0.81072 0.03416 0.0
C1944 C 0.01605 0.81711 0.02648 0.0
C1945 C 0.00655 0.83601 0.02751 0.0
H1946 H 0.03749 0.79609 0.03335 0.0
H1947 H 0.94463 0.97889 0.04492 0.0
H1948 H 0.4024 0.91098 0.44153 0.0
H1949 H 0.43892 0.91706 0.43925 0.0
H1950 H 0.44903 0.90093 0.47238 0.0
H1951 H 0.41281 0.89506 0.47475 0.0
H1952 H 0.47163 0.93346 0.46672 0.0
H1953 H 0.45602 0.86654 0.45215 0.0
H1954 H 0.43842 0.84299 0.43986 0.0
H1955 H 0.46291 0.87493 0.41274 0.0
H1956 H 0.48046 0.89882 0.42489 0.0
H1957 H 0.56718 0.89008 0.47398 0.0
H1958 H 0.53141 0.89849 0.47187 0.0
H1959 H 0.54198 0.91519 0.43887 0.0
H1960 H 0.57812 0.90671 0.44091 0.0
H1961 H 0.50933 0.88949 0.44122 0.0
H1962 H 0.53101 0.95183 0.4564 0.0
H1963 H 0.54896 0.97448 0.46899 0.0
H1964 H 0.51348 0.95112 0.49513 0.0
H1965 H 0.49552 0.92809 0.48274 0.0
C1966 C 0.4124 0.90892 0.44835 0.0
C1967 C 0.40469 0.90237 0.4583 0.0
C1968 C 0.43325 0.91236 0.44703 0.0
C1969 C 0.44672 0.90928 0.45562 0.0
C1970 C 0.43894 0.90344 0.46564 0.0
C1971 C 0.41819 0.89998 0.46696 0.0
C1972 C 0.46905 0.911 0.45423 0.0
C1973 C 0.47991 0.92387 0.46114 0.0
C1974 C 0.47979 0.89899 0.4467 0.0
C1975 C 0.46932 0.8846 0.43941 0.0
C1976 C 0.45751 0.86862 0.44356 0.0
C1977 C 0.44758 0.8552 0.43663 0.0
C1978 C 0.44949 0.85751 0.42552 0.0
C1979 C 0.4614 0.87319 0.42134 0.0
C1980 C 0.47135 0.88667 0.42824 0.0
C1981 C 0.56201 0.89569 0.46628 0.0
C1982 C 0.57552 0.89766 0.4576 0.0
C1983 C 0.54154 0.90064 0.46511 0.0
C1984 C 0.53406 0.90768 0.45525 0.0
C1985 C 0.54748 0.90988 0.44657 0.0
C1986 C 0.56811 0.90507 0.44776 0.0
C1987 C 0.51195 0.91139 0.454 0.0
C1988 C 0.50111 0.89953 0.44659 0.0
C1989 C 0.50123 0.92429 0.46111 0.0
C1990 C 0.51197 0.93815 0.46863 0.0
C1991 C 0.52713 0.95141 0.46485 0.0
C1992 C 0.53729 0.96434 0.47195 0.0
C1993 C 0.53238 0.96423 0.48286 0.0
C1994 C 0.51727 0.9512 0.48668 0.0
C1995 C 0.50706 0.93822 0.47961 0.0
H1996 H 0.54026 0.97426 0.48834 0.0
H1997 H 0.44179 0.8471 0.42017 0.0
H1998 H 0.07436 0.12567 0.97533 0.0
H1999 H 0.03778 0.12162 0.97334 0.0
H2000 H 0.04614 0.10041 0.94089 0.0
H2001 H 0.08299 0.10463 0.94276 0.0
H2002 H 0.01521 0.12778 0.94233 0.0
H2003 H 0.03444 0.06691 0.96021 0.0
H2004 H 0.05144 0.04584 0.97388 0.0
H2005 H 0.01655 0.07475 0.99867 0.0
H2006 H -0.00045 0.09623 0.98516 0.0
H2007 H 0.90994 0.09945 0.94028 0.0
H2008 H 0.94708 0.09748 0.93963 0.0
H2009 H 0.95042 0.11999 0.97209 0.0
H2010 H 0.91344 0.12189 0.97286 0.0
H2011 H 0.97576 0.08788 0.96892 0.0
H2012 H 0.95942 0.15108 0.951 0.0
H2013 H 0.94265 0.1722 0.93726 0.0
H2014 H 0.97223 0.13816 0.91235 0.0
H2015 H 0.98898 0.11666 0.92595 0.0
C2016 C 0.0685 0.12013 0.96775 0.0
C2017 C 0.08165 0.11542 0.95921 0.0
C2018 C 0.04755 0.11772 0.96665 0.0
C2019 C 0.03925 0.11043 0.95702 0.0
C2020 C 0.05225 0.10597 0.94841 0.0
C2021 C 0.0733 0.10836 0.9495 0.0
C2022 C 0.01694 0.10786 0.95601 0.0
C2023 C 0.0066 0.11873 0.948 0.0
C2024 C 0.0057 0.09624 0.9635 0.0
C2025 C 0.01582 0.08329 0.97167 0.0
C2026 C 0.0305 0.06889 0.96858 0.0
C2027 C 0.04012 0.05685 0.9763 0.0
C2028 C 0.0351 0.05898 0.98714 0.0
C2029 C 0.02043 0.07313 0.99028 0.0
C2030 C 0.01078 0.08522 0.98259 0.0
C2031 C 0.91858 0.10395 0.94729 0.0
C2032 C 0.9087 0.11091 0.95661 0.0
C2033 C 0.9398 0.10286 0.94689 0.0
C2034 C 0.95151 0.10873 0.95578 0.0
C2035 C 0.94168 0.11537 0.96514 0.0
C2036 C 0.92052 0.11652 0.96554 0.0
C2037 C 0.97403 0.1082 0.95541 0.0
C2038 C 0.9844 0.09671 0.96315 0.0
C2039 C 0.98528 0.11918 0.94766 0.0
C2040 C 0.97526 0.13212 0.93949 0.0
C2041 C 0.96221 0.14799 0.94259 0.0
C2042 C 0.95274 0.16005 0.93483 0.0
C2043 C 0.95632 0.15648 0.92393 0.0
C2044 C 0.96944 0.14088 0.92078 0.0
C2045 C 0.97893 0.12877 0.92852 0.0
H2046 H 0.94898 0.16583 0.91794 0.0
H2047 H 0.04257 0.04965 0.99311 0.0
H2048 H 0.17902 0.45458 0.97205 0.0
H2049 H 0.19126 0.48288 0.983 0.0
H2050 H 0.20198 0.4418 0.0094 0.0
H2051 H 0.18932 0.41361 0.9986 0.0
H2052 H 0.17728 0.47084 0.01507 0.0
H2053 H 0.24143 0.46842 0.99769 0.0
H2054 H 0.26538 0.46671 0.98251 0.0
H2055 H 0.24327 0.52389 0.97073 0.0
H2056 H 0.21896 0.52582 0.98575 0.0
H2057 H 0.18957 0.55723 0.0471 0.0
H2058 H 0.20179 0.52637 0.03824 0.0
H2059 H 0.19005 0.55345 0.00732 0.0
H2060 H 0.17843 0.58439 0.01604 0.0
H2061 H 0.22251 0.52874 0.00623 0.0
H2062 H 0.15338 0.5259 0.02023 0.0
H2063 H 0.12764 0.52781 0.03459 0.0
H2064 H 0.15809 0.48018 0.05181 0.0
H2065 H 0.18414 0.47817 0.03759 0.0
C2066 C 0.18446 0.45152 0.98009 0.0
C2067 C 0.18286 0.432 0.98455 0.0
C2068 C 0.1916 0.46768 0.98632 0.0
C2069 C 0.19754 0.46443 0.99702 0.0
C2070 C 0.19741 0.44464 0.00118 0.0
C2071 C 0.19008 0.42858 0.99501 0.0
C2072 C 0.20049 0.4819 0.00434 0.0
C2073 C 0.18766 0.48321 0.0133 0.0
C2074 C 0.21364 0.49825 0.00189 0.0
C2075 C 0.22828 0.49721 0.99284 0.0
C2076 C 0.24156 0.48057 0.99182 0.0
C2077 C 0.25523 0.47957 0.98325 0.0
C2078 C 0.25583 0.49517 0.97565 0.0
C2079 C 0.24279 0.51182 0.97663 0.0
C2080 C 0.22909 0.51289 0.98518 0.0
C2081 C 0.18999 0.55675 0.03842 0.0
C2082 C 0.18261 0.57308 0.03227 0.0
C2083 C 0.19702 0.53914 0.03337 0.0
C2084 C 0.19646 0.53752 0.02213 0.0
C2085 C 0.19059 0.55437 0.016 0.0
C2086 C 0.18376 0.572 0.02102 0.0
C2087 C 0.19904 0.51765 0.01676 0.0
C2088 C 0.21273 0.51598 0.00816 0.0
C2089 C 0.18652 0.50094 0.01943 0.0
C2090 C 0.17082 0.50207 0.02794 0.0
C2091 C 0.15464 0.51593 0.02712 0.0
C2092 C 0.13999 0.51702 0.03522 0.0
C2093 C 0.14127 0.50417 0.04413 0.0
C2094 C 0.15715 0.49016 0.04492 0.0
C2095 C 0.17186 0.48904 0.03684 0.0
H2096 H 0.12991 0.50504 0.05039 0.0
H2097 H 0.26642 0.49437 0.96902 0.0
H2098 H 0.80185 0.91562 0.21497 0.0
H2099 H 0.7724 0.92923 0.22454 0.0
H2100 H 0.81013 0.94184 0.25207 0.0
H2101 H 0.83948 0.92794 0.24267 0.0
H2102 H 0.77928 0.91853 0.25732 0.0
H2103 H 0.78704 0.9805 0.23801 0.0
H2104 H 0.79163 0.00231 0.22211 0.0
H2105 H 0.73491 0.98122 0.20923 0.0
H2106 H 0.73011 0.95904 0.22498 0.0
H2107 H 0.6923 0.94155 0.28696 0.0
H2108 H 0.72439 0.94998 0.27811 0.0
H2109 H 0.69776 0.93599 0.24734 0.0
H2110 H 0.6656 0.92814 0.25603 0.0
H2111 H 0.72527 0.96592 0.24531 0.0
H2112 H 0.72175 0.89925 0.26192 0.0
H2113 H 0.71677 0.87569 0.27709 0.0
H2114 H 0.76569 0.90431 0.29418 0.0
H2115 H 0.77077 0.9282 0.27914 0.0
C2116 C 0.80395 0.92172 0.22297 0.0
C2117 C 0.82289 0.92039 0.22813 0.0
C2118 C 0.78713 0.92962 0.22841 0.0
C2119 C 0.78908 0.93656 0.23903 0.0
C2120 C 0.80828 0.93651 0.2439 0.0
C2121 C 0.82502 0.9285 0.23852 0.0
C2122 C 0.77078 0.94098 0.24554 0.0
C2123 C 0.76774 0.92933 0.25484 0.0
C2124 C 0.75548 0.95464 0.24215 0.0
C2125 C 0.75828 0.968 0.23266 0.0
C2126 C 0.77561 0.98038 0.23175 0.0
C2127 C 0.77824 0.99284 0.22277 0.0
C2128 C 0.76359 0.99312 0.21466 0.0
C2129 C 0.74625 0.98098 0.21552 0.0
C2130 C 0.74355 0.96849 0.22448 0.0
C2131 C 0.69314 0.94073 0.27829 0.0
C2132 C 0.67654 0.93375 0.27222 0.0
C2133 C 0.71148 0.94556 0.27324 0.0
C2134 C 0.71355 0.94318 0.26209 0.0
C2135 C 0.69652 0.93787 0.25595 0.0
C2136 C 0.67816 0.93323 0.26096 0.0
C2137 C 0.73385 0.94333 0.25696 0.0
C2138 C 0.73715 0.95562 0.24792 0.0
C2139 C 0.74941 0.93008 0.26048 0.0
C2140 C 0.74647 0.91565 0.26948 0.0
C2141 C 0.73135 0.90058 0.26894 0.0
C2142 C 0.72852 0.88717 0.27751 0.0
C2143 C 0.74087 0.88854 0.28661 0.0
C2144 C 0.75611 0.90329 0.28714 0.0
C2145 C 0.75897 0.91677 0.2786 0.0
H2146 H 0.73866 0.87815 0.29323 0.0
H2147 H 0.76565 0.00277 0.20771 0.0
H2148 H 0.29038 0.4232 0.51606 0.0
H2149 H 0.28014 0.454 0.50659 0.0
H2150 H 0.30829 0.49051 0.53118 0.0
H2151 H 0.31809 0.45969 0.54086 0.0
H2152 H 0.27645 0.51135 0.51923 0.0
H2153 H 0.33891 0.47192 0.51358 0.0
H2154 H 0.35692 0.43976 0.50998 0.0
H2155 H 0.32374 0.43266 0.48054 0.0
H2156 H 0.3053 0.46466 0.48408 0.0
H2157 H 0.34004 0.58555 0.49729 0.0
H2158 H 0.32121 0.5587 0.50622 0.0
H2159 H 0.30753 0.5314 0.47557 0.0
H2160 H 0.32687 0.55814 0.46651 0.0
H2161 H 0.32367 0.50489 0.48834 0.0
H2162 H 0.2692 0.55108 0.49193 0.0
H2163 H 0.25192 0.58344 0.4959 0.0
H2164 H 0.26987 0.57894 0.52894 0.0
H2165 H 0.28753 0.5467 0.52515 0.0
C2166 C 0.29344 0.43782 0.51973 0.0
C2167 C 0.30541 0.43918 0.52903 0.0
C2168 C 0.28752 0.45539 0.51433 0.0
C2169 C 0.29397 0.47443 0.51805 0.0
C2170 C 0.30325 0.47591 0.52817 0.0
C2171 C 0.30891 0.45829 0.53368 0.0
C2172 C 0.29617 0.49141 0.51038 0.0
C2173 C 0.28667 0.51006 0.51243 0.0
C2174 C 0.30921 0.48946 0.5014 0.0
C2175 C 0.32059 0.4705 0.49915 0.0
C2176 C 0.3354 0.46343 0.50637 0.0
C2177 C 0.34568 0.44525 0.50434 0.0
C2178 C 0.34144 0.43414 0.49505 0.0
C2179 C 0.32697 0.44125 0.48774 0.0
C2180 C 0.3166 0.4594 0.48976 0.0
C2181 C 0.33282 0.57401 0.4924 0.0
C2182 C 0.33519 0.57385 0.48118 0.0
C2183 C 0.3218 0.55878 0.49753 0.0
C2184 C 0.31269 0.54317 0.49157 0.0
C2185 C 0.31433 0.54338 0.48032 0.0
C2186 C 0.32548 0.55861 0.47517 0.0
C2187 C 0.30423 0.52524 0.4972 0.0
C2188 C 0.31281 0.50627 0.49485 0.0
C2189 C 0.29041 0.52705 0.50588 0.0
C2190 C 0.27979 0.54647 0.50824 0.0
C2191 C 0.2696 0.55705 0.50003 0.0
C2192 C 0.25971 0.57537 0.50225 0.0
C2193 C 0.25981 0.58325 0.51266 0.0
C2194 C 0.26979 0.57281 0.52088 0.0
C2195 C 0.27972 0.55448 0.5187 0.0
H2196 H 0.25215 0.59744 0.51436 0.0
H2197 H 0.3494 0.42006 0.49349 0.0
H2198 H 0.84515 0.05404 0.75557 0.0
H2199 H 0.81643 0.04625 0.7439 0.0
H2200 H 0.7753 0.05462 0.77048 0.0
H2201 H 0.80401 0.0622 0.78228 0.0
H2202 H 0.76193 0.02483 0.75584 0.0
H2203 H 0.78709 0.09451 0.75572 0.0
H2204 H 0.81365 0.12063 0.75351 0.0
H2205 H 0.82398 0.10074 0.72114 0.0
H2206 H 0.79762 0.07432 0.72322 0.0
H2207 H 0.67479 0.07666 0.74007 0.0
H2208 H 0.70576 0.0615 0.74698 0.0
H2209 H 0.73175 0.06196 0.71518 0.0
H2210 H 0.70062 0.07757 0.70816 0.0
H2211 H 0.75574 0.08038 0.7291 0.0
H2212 H 0.72304 0.01658 0.72827 0.0
H2213 H 0.69559 0.99158 0.73081 0.0
H2214 H 0.69827 0.00054 0.76491 0.0
H2215 H 0.72553 0.02582 0.76258 0.0
C2216 C 0.83005 0.05373 0.75901 0.0
C2217 C 0.82678 0.05918 0.7698 0.0
C2218 C 0.81367 0.04921 0.75233 0.0
C2219 C 0.79377 0.05026 0.75629 0.0
C2220 C 0.79058 0.05378 0.76727 0.0
C2221 C 0.80699 0.0582 0.774 0.0
C2222 C 0.77635 0.05094 0.7488 0.0
C2223 C 0.76049 0.0369 0.74997 0.0
C2224 C 0.77485 0.06638 0.74094 0.0
C2225 C 0.7906 0.0823 0.73966 0.0
C2226 C 0.79514 0.09562 0.74816 0.0
C2227 C 0.81013 0.11049 0.74693 0.0
C2228 C 0.82054 0.1123 0.7372 0.0
C2229 C 0.81593 0.09928 0.72868 0.0
C2230 C 0.80098 0.08437 0.72987 0.0
C2231 C 0.68693 0.07327 0.73448 0.0
C2232 C 0.68535 0.07857 0.72358 0.0
C2233 C 0.70458 0.06434 0.73844 0.0
C2234 C 0.72102 0.06038 0.73159 0.0
C2235 C 0.71918 0.06478 0.72059 0.0
C2236 C 0.70142 0.07371 0.7166 0.0
C2237 C 0.74086 0.05457 0.73629 0.0
C2238 C 0.75727 0.0678 0.73468 0.0
C2239 C 0.74274 0.03843 0.74375 0.0
C2240 C 0.72633 0.02319 0.74523 0.0
C2241 C 0.7177 0.01333 0.73631 0.0
C2242 C 0.70217 -0.00091 0.73771 0.0
C2243 C 0.69518 0.99448 0.74802 0.0
C2244 C 0.70371 0.0041 0.75694 0.0
C2245 C 0.71924 0.01837 0.75558 0.0
H2246 H 0.68315 0.98345 0.74909 0.0
H2247 H 0.83214 0.12382 0.73626 0.0
H2248 H 0.83239 0.57726 0.0046 0.0
H2249 H 0.81953 0.54774 0.99514 0.0
H2250 H 0.8068 0.51824 0.02532 0.0
H2251 H 0.82022 0.54782 0.03496 0.0
H2252 H 0.82849 0.49467 0.01305 0.0
H2253 H 0.76783 0.53162 0.00771 0.0
H2254 H 0.7461 0.56091 0.00324 0.0
H2255 H 0.7685 0.5603 0.97088 0.0
H2256 H 0.79061 0.53119 0.97518 0.0
H2257 H 0.8075 0.40898 0.98293 0.0
H2258 H 0.79639 0.43797 0.99364 0.0
H2259 H 0.81866 0.47886 0.96929 0.0
H2260 H 0.82949 0.44983 0.95839 0.0
H2261 H 0.78458 0.49436 0.98066 0.0
H2262 H 0.85061 0.46348 0.98786 0.0
H2263 H 0.87291 0.43452 0.99226 0.0
H2264 H 0.83983 0.42456 0.02149 0.0
H2265 H 0.81714 0.4533 0.01718 0.0
C2266 C 0.82662 0.56464 0.00928 0.0
C2267 C 0.82757 0.56481 0.02056 0.0
C2268 C 0.819 0.54783 0.00383 0.0
C2269 C 0.81193 0.53085 0.0095 0.0
C2270 C 0.81208 0.53124 0.02078 0.0
C2271 C 0.81979 0.54812 0.02628 0.0
C2272 C 0.80715 0.5119 0.00359 0.0
C2273 C 0.81836 0.49447 0.00618 0.0
C2274 C 0.79429 0.51171 0.99446 0.0
C2275 C 0.78097 0.52923 0.9918 0.0
C2276 C 0.76824 0.5378 0.99966 0.0
C2277 C 0.75583 0.55437 0.99715 0.0
C2278 C 0.75593 0.56247 0.98679 0.0
C2279 C 0.76842 0.554 0.9789 0.0
C2280 C 0.78088 0.53743 0.98137 0.0
C2281 C 0.80948 0.42414 0.97971 0.0
C2282 C 0.81976 0.42721 0.96995 0.0
C2283 C 0.80305 0.44066 0.98582 0.0
C2284 C 0.80713 0.46051 0.98235 0.0
C2285 C 0.81544 0.46363 0.9721 0.0
C2286 C 0.82169 0.44704 0.96591 0.0
C2287 C 0.80621 0.47756 0.99007 0.0
C2288 C 0.79412 0.49453 0.98776 0.0
C2289 C 0.81826 0.47743 0.99948 0.0
C2290 C 0.83205 0.46034 0.00214 0.0
C2291 C 0.84802 0.45502 0.99519 0.0
C2292 C 0.86073 0.43866 0.99767 0.0
C2293 C 0.85775 0.42767 0.00713 0.0
C2294 C 0.84209 0.43306 0.01416 0.0
C2295 C 0.8293 0.44937 0.0117 0.0
H2296 H 0.86761 0.41501 0.00904 0.0
H2297 H 0.74631 0.5753 0.98486 0.0
H2298 H 0.15354 0.09116 0.75498 0.0
H2299 H 0.18137 0.07568 0.74496 0.0
H2300 H 0.20972 0.05743 0.77466 0.0
H2301 H 0.18215 0.07325 0.78476 0.0
H2302 H 0.23527 0.07755 0.76255 0.0
H2303 H 0.18999 0.0221 0.75696 0.0
H2304 H 0.15797 0.00516 0.75193 0.0
H2305 H 0.16405 0.02717 0.71966 0.0
H2306 H 0.19597 0.0445 0.72452 0.0
H2307 H 0.31911 0.03932 0.73759 0.0
H2308 H 0.28656 0.03348 0.74645 0.0
H2309 H 0.25538 0.06096 0.71969 0.0
H2310 H 0.28793 0.06643 0.71065 0.0
H2311 H 0.23132 0.03148 0.73106 0.0
H2312 H 0.27233 0.09161 0.73769 0.0
H2313 H 0.30426 0.10909 0.7424 0.0
H2314 H 0.30521 0.07856 0.77286 0.0
H2315 H 0.27344 0.06063 0.76823 0.0
C2316 C 0.16556 0.08364 0.75939 0.0
C2317 C 0.16575 0.08364 0.77068 0.0
C2318 C 0.18137 0.07462 0.75364 0.0
C2319 C 0.19753 0.06523 0.75906 0.0
C2320 C 0.19736 0.06456 0.77032 0.0
C2321 C 0.18163 0.07367 0.77608 0.0
C2322 C 0.2157 0.05837 0.75307 0.0
C2323 C 0.23441 0.06705 0.75585 0.0
C2324 C 0.21452 0.04515 0.74411 0.0
C2325 C 0.19532 0.03474 0.74114 0.0
C2326 C 0.18442 0.02347 0.74881 0.0
C2327 C 0.1663 0.01377 0.74599 0.0
C2328 C 0.15896 0.01512 0.73549 0.0
C2329 C 0.16975 0.02614 0.72779 0.0
C2330 C 0.18788 0.03589 0.73057 0.0
C2331 C 0.30526 0.04339 0.73341 0.0
C2332 C 0.30601 0.05377 0.72356 0.0
C2333 C 0.28669 0.03997 0.73846 0.0
C2334 C 0.26869 0.04726 0.73383 0.0
C2335 C 0.26915 0.05531 0.7234 0.0
C2336 C 0.28777 0.05849 0.71826 0.0
C2337 C 0.25064 0.05061 0.74065 0.0
C2338 C 0.23206 0.04154 0.73795 0.0
C2339 C 0.25179 0.06358 0.74969 0.0
C2340 C 0.27067 0.07462 0.75257 0.0
C2341 C 0.27943 0.08853 0.74536 0.0
C2342 C 0.29749 0.09852 0.74802 0.0
C2343 C 0.30679 0.0949 0.75792 0.0
C2344 C 0.29801 0.08132 0.76519 0.0
C2345 C 0.27999 0.07124 0.76255 0.0
H2346 H 0.32077 0.10264 0.75996 0.0
H2347 H 0.14493 0.00759 0.73332 0.0
H2348 H 0.67957 0.4238 0.50503 0.0
H2349 H 0.69818 0.45266 0.49802 0.0
H2350 H 0.70312 0.47764 0.52994 0.0
H2351 H 0.6839 0.4487 0.53706 0.0
H2352 H 0.6866 0.50385 0.517 0.0
H2353 H 0.7465 0.46508 0.51518 0.0
H2354 H 0.76838 0.43542 0.5117 0.0
H2355 H 0.75527 0.43944 0.47802 0.0
H2356 H 0.73306 0.46894 0.48129 0.0
H2357 H 0.71277 0.58997 0.48832 0.0
H2358 H 0.72269 0.5615 0.49972 0.0
H2359 H 0.70613 0.51956 0.4746 0.0
H2360 H 0.6965 0.54801 0.46305 0.0
H2361 H 0.7378 0.50482 0.48776 0.0
H2362 H 0.67025 0.53542 0.49127 0.0
H2363 H 0.64717 0.56433 0.49449 0.0
H2364 H 0.67473 0.57441 0.52528 0.0
H2365 H 0.69816 0.5457 0.52215 0.0
C2366 C 0.68491 0.4352 0.51063 0.0
C2367 C 0.67995 0.43413 0.52158 0.0
C2368 C 0.69585 0.45162 0.50661 0.0
C2369 C 0.70225 0.46727 0.51345 0.0
C2370 C 0.69841 0.46566 0.52452 0.0
C2371 C 0.68741 0.44915 0.52857 0.0
C2372 C 0.70959 0.48658 0.5087 0.0
C2373 C 0.69834 0.50419 0.51089 0.0
C2374 C 0.72464 0.487 0.50057 0.0
C2375 C 0.73805 0.46925 0.4985 0.0
C2376 C 0.74817 0.45958 0.50704 0.0
C2377 C 0.76065 0.44279 0.5051 0.0
C2378 C 0.76321 0.43555 0.49465 0.0
C2379 C 0.7533 0.44509 0.48611 0.0
C2380 C 0.74079 0.46188 0.488 0.0
C2381 C 0.71183 0.57471 0.48509 0.0
C2382 C 0.70338 0.57115 0.47489 0.0
C2383 C 0.7176 0.55848 0.49161 0.0
C2384 C 0.71471 0.53846 0.48808 0.0
C2385 C 0.70842 0.53493 0.47747 0.0
C2386 C 0.70282 0.5512 0.4709 0.0
C2387 C 0.71433 0.52155 0.49589 0.0
C2388 C 0.72673 0.50452 0.49421 0.0
C2389 C 0.7003 0.52153 0.5045 0.0
C2390 C 0.6861 0.53863 0.50642 0.0
C2391 C 0.67146 0.5439 0.49869 0.0
C2392 C 0.65832 0.56023 0.5005 0.0
C2393 C 0.65953 0.57124 0.51007 0.0
C2394 C 0.67385 0.5659 0.51786 0.0
C2395 C 0.68706 0.54961 0.51607 0.0
H2396 H 0.64934 0.58388 0.51146 0.0
H2397 H 0.77288 0.42254 0.49316 0.0
H2398 H 0.20914 0.92594 0.20729 0.0
H2399 H 0.23866 0.9345 0.21831 0.0
H2400 H 0.1993 0.96035 0.24235 0.0
H2401 H 0.16967 0.95142 0.2315 0.0
H2402 H 0.24588 0.97692 0.23899 0.0
H2403 H 0.20069 0.9183 0.24815 0.0
H2404 H 0.18048 0.88902 0.24186 0.0
H2405 H 0.23323 0.86415 0.2264 0.0
H2406 H 0.25363 0.89352 0.23245 0.0
H2407 H 0.29645 0.91376 0.28557 0.0
H2408 H 0.26749 0.92652 0.27517 0.0
H2409 H 0.30793 0.94377 0.24952 0.0
H2410 H 0.33683 0.93081 0.25974 0.0
H2411 H 0.259 0.90888 0.2548 0.0
H2412 H 0.28471 0.98603 0.23697 0.0
H2413 H 0.305 0.01588 0.24228 0.0
H2414 H 0.29204 0.00397 0.27546 0.0
H2415 H 0.27142 0.97424 0.27034 0.0
C2416 C 0.20683 0.93435 0.21466 0.0
C2417 C 0.18717 0.93769 0.21866 0.0
C2418 C 0.22371 0.93928 0.22094 0.0
C2419 C 0.22104 0.94788 0.23114 0.0
C2420 C 0.2016 0.95381 0.23446 0.0
C2421 C 0.1847 0.94857 0.22829 0.0
C2422 C 0.23711 0.94544 0.23927 0.0
C2423 C 0.24886 0.96212 0.24247 0.0
C2424 C 0.24059 0.92616 0.2439 0.0
C2425 C 0.2286 0.90811 0.24068 0.0
C2426 C 0.20793 0.9066 0.24338 0.0
C2427 C 0.19645 0.89002 0.23985 0.0
C2428 C 0.20556 0.87475 0.23371 0.0
C2429 C 0.22619 0.876 0.23114 0.0
C2430 C 0.23772 0.8926 0.23462 0.0
C2431 C 0.29919 0.92067 0.27782 0.0
C2432 C 0.31882 0.92108 0.2734 0.0
C2433 C 0.28267 0.92793 0.2719 0.0
C2434 C 0.28565 0.93611 0.26161 0.0
C2435 C 0.30538 0.93769 0.25748 0.0
C2436 C 0.32183 0.93014 0.2633 0.0
C2437 C 0.2681 0.94036 0.25458 0.0
C2438 C 0.25603 0.92383 0.25148 0.0
C2439 C 0.26446 0.95979 0.2501 0.0
C2440 C 0.27666 0.97778 0.25326 0.0
C2441 C 0.28611 0.98982 0.24539 0.0
C2442 C 0.29769 0.00672 0.24837 0.0
C2443 C 0.29986 0.01178 0.2592 0.0
C2444 C 0.29041 -2e-05 0.26708 0.0
C2445 C 0.27882 0.98308 0.26414 0.0
H2446 H 0.30883 0.02486 0.26149 0.0
H2447 H 0.19663 0.86195 0.23097 0.0
H2448 H 0.68656 0.0381 0.5402 0.0
H2449 H 0.69877 0.00513 0.53377 0.0
H2450 H 0.70456 0.02971 0.50181 0.0
H2451 H 0.69295 0.06252 0.50819 0.0
H2452 H 0.67579 0.98534 0.52057 0.0
H2453 H 0.73313 0.00253 0.48566 0.0
H2454 H 0.76384 0.02321 0.48275 0.0
H2455 H 0.77547 0.02377 0.51665 0.0
H2456 H 0.745 0.00282 0.51978 0.0
H2457 H 0.67643 0.93816 0.46642 0.0
H2458 H 0.69224 0.96292 0.47844 0.0
H2459 H 0.69183 0.91888 0.50407 0.0
H2460 H 0.67571 0.89417 0.49219 0.0
H2461 H 0.72556 0.96728 0.49223 0.0
H2462 H 0.67249 0.94254 0.52599 0.0
H2463 H 0.64069 0.9233 0.52871 0.0
H2464 H 0.62023 0.94054 0.49728 0.0
H2465 H 0.65177 0.96008 0.49444 0.0
C2466 C 0.69121 0.03665 0.5319 0.0
C2467 C 0.68839 0.05276 0.52465 0.0
C2468 C 0.69818 0.0178 0.52823 0.0
C2469 C 0.70253 0.01486 0.51729 0.0
C2470 C 0.70163 0.03155 0.5103 0.0
C2471 C 0.69472 0.05032 0.51395 0.0
C2472 C 0.70364 0.99409 0.5127 0.0
C2473 C 0.68716 0.9811 0.51467 0.0
C2474 C 0.71816 0.98867 0.50481 0.0
C2475 C 0.73669 0.00111 0.50296 0.0
C2476 C 0.7423 0.0069 0.4925 0.0
C2477 C 0.75966 0.01873 0.49081 0.0
C2478 C 0.77158 0.02482 0.49951 0.0
C2479 C 0.76619 0.01908 0.50992 0.0
C2480 C 0.74885 0.00726 0.51166 0.0
C2481 C 0.68015 0.93358 0.47454 0.0
C2482 C 0.67439 0.91439 0.47843 0.0
C2483 C 0.6893 0.94771 0.48138 0.0
C2484 C 0.69288 0.94281 0.49218 0.0
C2485 C 0.68895 0.92302 0.49579 0.0
C2486 C 0.67965 0.90896 0.489 0.0
C2487 C 0.69745 0.95922 0.49994 0.0
C2488 C 0.7148 0.97129 0.49848 0.0
C2489 C 0.6837 0.96396 0.5083 0.0
C2490 C 0.66458 0.95249 0.50996 0.0
C2491 C 0.66117 0.94223 0.51968 0.0
C2492 C 0.6432 0.93129 0.52124 0.0
C2493 C 0.62849 0.93062 0.51316 0.0
C2494 C 0.63167 0.94099 0.50352 0.0
C2495 C 0.64959 0.95199 0.50193 0.0
H2496 H 0.61461 0.92212 0.51438 0.0
H2497 H 0.78501 0.03398 0.49819 0.0
H2498 H 0.17732 0.46655 0.77529 0.0
H2499 H 0.20938 0.47352 0.76601 0.0
H2500 H 0.23649 0.42153 0.7816 0.0
H2501 H 0.20508 0.41577 0.79151 0.0
H2502 H 0.26501 0.44497 0.77679 0.0
H2503 H 0.20733 0.41886 0.75692 0.0
H2504 H 0.17244 0.41986 0.74969 0.0
H2505 H 0.18621 0.47506 0.73282 0.0
H2506 H 0.22114 0.47448 0.74006 0.0
H2507 H 0.29534 0.39667 0.72269 0.0
H2508 H 0.26905 0.41093 0.73429 0.0
H2509 H 0.31265 0.4534 0.74732 0.0
H2510 H 0.3393 0.43785 0.73633 0.0
H2511 H 0.25031 0.44274 0.73776 0.0
H2512 H 0.30251 0.46424 0.77307 0.0
H2513 H 0.33599 0.45513 0.78061 0.0
H2514 H 0.33113 0.39542 0.76695 0.0
H2515 H 0.29756 0.40412 0.75943 0.0
C2516 C 0.19051 0.45731 0.77709 0.0
C2517 C 0.18888 0.4406 0.78402 0.0
C2518 C 0.20873 0.46112 0.77172 0.0
C2519 C 0.2251 0.44754 0.77275 0.0
C2520 C 0.22407 0.43216 0.78057 0.0
C2521 C 0.20611 0.42885 0.78626 0.0
C2522 C 0.24174 0.4471 0.76469 0.0
C2523 C 0.26182 0.44473 0.76825 0.0
C2524 C 0.23764 0.44642 0.75352 0.0
C2525 C 0.21671 0.44677 0.74913 0.0
C2526 C 0.20286 0.43125 0.75171 0.0
C2527 C 0.18309 0.43174 0.74761 0.0
C2528 C 0.17709 0.44755 0.74083 0.0
C2529 C 0.19087 0.46286 0.7381 0.0
C2530 C 0.21064 0.46247 0.7422 0.0
C2531 C 0.29917 0.40922 0.72794 0.0
C2532 C 0.31925 0.41607 0.72876 0.0
C2533 C 0.28417 0.41742 0.73456 0.0
C2534 C 0.28892 0.43297 0.74191 0.0
C2535 C 0.30871 0.44098 0.74201 0.0
C2536 C 0.32387 0.43224 0.73568 0.0
C2537 C 0.27345 0.43959 0.74988 0.0
C2538 C 0.25362 0.4434 0.74628 0.0
C2539 C 0.2776 0.44037 0.76104 0.0
C2540 C 0.29769 0.43493 0.76558 0.0
C2541 C 0.3086 0.44917 0.77169 0.0
C2542 C 0.32758 0.44408 0.77596 0.0
C2543 C 0.33572 0.42474 0.77422 0.0
C2544 C 0.32485 0.41042 0.76825 0.0
C2545 C 0.30586 0.41542 0.76398 0.0
H2546 H 0.35042 0.42084 0.77752 0.0
H2547 H 0.16178 0.4479 0.73767 0.0
H2548 H 0.78559 0.92451 0.02221 0.0
H2549 H 0.77562 0.95501 0.01224 0.0
H2550 H 0.82827 0.98639 0.02466 0.0
H2551 H 0.83714 0.9565 0.03527 0.0
H2552 H 0.80214 0.0129 0.02094 0.0
H2553 H 0.82789 0.95652 0.00017 0.0
H2554 H 0.82815 0.9214 0.99324 0.0
H2555 H 0.76912 0.93045 0.97935 0.0
H2556 H 0.76843 0.96557 0.98632 0.0
H2557 H 0.8351 0.04635 0.96452 0.0
H2558 H 0.8252 0.01869 0.97647 0.0
H2559 H 0.78211 0.05834 0.99216 0.0
H2560 H 0.79334 0.08647 0.98075 0.0
H2561 H 0.79639 0.99697 0.98213 0.0
H2562 H 0.77907 0.04847 0.01842 0.0
H2563 H 0.78703 0.08287 0.02512 0.0
H2564 H 0.84305 0.08257 0.00745 0.0
H2565 H 0.83551 0.0481 0.00076 0.0
C2566 C 0.79446 0.93827 0.02312 0.0
C2567 C 0.81209 0.93833 0.02944 0.0
C2568 C 0.78893 0.95559 0.01734 0.0
C2569 C 0.8016 0.97278 0.01737 0.0
C2570 C 0.81827 0.97333 0.02443 0.0
C2571 C 0.82336 0.95626 0.03052 0.0
C2572 C 0.79919 0.98906 0.00919 0.0
C2573 C 0.80066 0.00941 0.01246 0.0
C2574 C 0.79762 0.9846 0.99808 0.0
C2575 C 0.798 0.96353 0.99388 0.0
C2576 C 0.81492 0.95096 0.99569 0.0
C2577 C 0.81515 0.93107 0.99175 0.0
C2578 C 0.79863 0.92367 0.98589 0.0
C2579 C 0.78187 0.93618 0.98392 0.0
C2580 C 0.78155 0.95607 0.98786 0.0
C2581 C 0.82322 0.04899 0.97038 0.0
C2582 C 0.81512 0.06847 0.97184 0.0
C2583 C 0.81753 0.03319 0.97722 0.0
C2584 C 0.80329 0.03653 0.98546 0.0
C2585 C 0.79363 0.05553 0.98613 0.0
C2586 C 0.79988 0.07153 0.97955 0.0
C2587 C 0.80019 0.02076 0.99384 0.0
C2588 C 0.79746 0.00051 0.99062 0.0
C2589 C 0.80183 0.02522 0.00495 0.0
C2590 C 0.80658 0.04586 0.00899 0.0
C2591 C 0.79309 0.05576 0.01599 0.0
C2592 C 0.79753 0.07526 0.01978 0.0
C2593 C 0.8155 0.08493 0.01668 0.0
C2594 C 0.82911 0.07509 0.00982 0.0
C2595 C 0.82475 0.05558 0.00602 0.0
H2596 H 0.81889 0.10003 0.01961 0.0
H2597 H 0.79883 0.90827 0.98285 0.0
H2598 H 0.33153 0.5462 0.26867 0.0
H2599 H 0.30135 0.53522 0.25885 0.0
H2600 H 0.26325 0.55892 0.28409 0.0
H2601 H 0.29344 0.56939 0.29412 0.0
H2602 H 0.24537 0.52617 0.27384 0.0
H2603 H 0.27853 0.58992 0.26428 0.0
H2604 H 0.30778 0.61066 0.25852 0.0
H2605 H 0.31311 0.57506 0.22977 0.0
H2606 H 0.28403 0.55393 0.23545 0.0
H2607 H 0.16446 0.58109 0.25188 0.0
H2608 H 0.1931 0.56473 0.26066 0.0
H2609 H 0.21697 0.54669 0.22984 0.0
H2610 H 0.18841 0.56342 0.22092 0.0
H2611 H 0.24369 0.56788 0.24067 0.0
H2612 H 0.20315 0.51061 0.24862 0.0
H2613 H 0.17298 0.4916 0.25466 0.0
H2614 H 0.18 0.5159 0.28642 0.0
H2615 H 0.21003 0.53531 0.28055 0.0
C2616 C 0.31674 0.54854 0.27227 0.0
C2617 C 0.31475 0.55907 0.28202 0.0
C2618 C 0.29953 0.54218 0.26667 0.0
C2619 C 0.28011 0.54672 0.27064 0.0
C2620 C 0.27813 0.55535 0.28089 0.0
C2621 C 0.29538 0.56142 0.28658 0.0
C2622 C 0.26228 0.54601 0.26342 0.0
C2623 C 0.24491 0.53519 0.26656 0.0
C2624 C 0.26195 0.55743 0.2538 0.0
C2625 C 0.27931 0.57021 0.25034 0.0
C2626 C 0.28604 0.58644 0.25676 0.0
C2627 C 0.30257 0.59827 0.25351 0.0
C2628 C 0.31234 0.59414 0.2438 0.0
C2629 C 0.30556 0.57821 0.2373 0.0
C2630 C 0.28906 0.5663 0.24053 0.0
C2631 C 0.17556 0.57331 0.24695 0.0
C2632 C 0.17434 0.57386 0.23569 0.0
C2633 C 0.19184 0.56373 0.252 0.0
C2634 C 0.20712 0.55435 0.24591 0.0
C2635 C 0.20529 0.55378 0.23469 0.0
C2636 C 0.189 0.56342 0.22961 0.0
C2637 C 0.22639 0.54841 0.25117 0.0
C2638 C 0.24415 0.55818 0.24771 0.0
C2639 C 0.22691 0.53617 0.26051 0.0
C2640 C 0.20884 0.5245 0.26412 0.0
C2641 C 0.19819 0.51202 0.25688 0.0
C2642 C 0.18112 0.50115 0.26027 0.0
C2643 C 0.17457 0.50255 0.27091 0.0
C2644 C 0.1851 0.51481 0.27818 0.0
C2645 C 0.20218 0.52572 0.27483 0.0
H2646 H 0.16134 0.49412 0.27353 0.0
H2647 H 0.32514 0.60331 0.24129 0.0
H2648 H 0.31285 0.0721 0.50783 0.0
H2649 H 0.29518 0.04272 0.50078 0.0
H2650 H 0.29488 0.01548 0.5323 0.0
H2651 H 0.31324 0.04494 0.53942 0.0
H2652 H 0.31282 0.99186 0.51887 0.0
H2653 H 0.24937 0.02419 0.51814 0.0
H2654 H 0.22423 0.05146 0.51543 0.0
H2655 H 0.23631 0.05107 0.48158 0.0
H2656 H 0.26176 0.02403 0.48408 0.0
H2657 H 0.29627 0.9058 0.48892 0.0
H2658 H 0.2822 0.93227 0.50045 0.0
H2659 H 0.29566 0.97721 0.47629 0.0
H2660 H 0.30942 0.95066 0.46458 0.0
H2661 H 0.26157 0.98759 0.48973 0.0
H2662 H 0.33238 0.9647 0.49257 0.0
H2663 H 0.35847 0.9382 0.49506 0.0
H2664 H 0.33211 0.92208 0.52542 0.0
H2665 H 0.30566 0.94832 0.523 0.0
C2666 C 0.30863 0.0601 0.51335 0.0
C2667 C 0.31486 0.06062 0.52414 0.0
C2668 C 0.2982 0.04337 0.50932 0.0
C2669 C 0.29357 0.02686 0.516 0.0
C2670 C 0.29825 0.02808 0.527 0.0
C2671 C 0.30878 0.04489 0.53105 0.0
C2672 C 0.28795 0.00719 0.51101 0.0
C2673 C 0.30105 0.99073 0.5128 0.0
C2674 C 0.27287 0.00574 0.50292 0.0
C2675 C 0.25754 0.02204 0.50131 0.0
C2676 C 0.24678 0.02999 0.51012 0.0
C2677 C 0.23245 0.04541 0.50862 0.0
C2678 C 0.22868 0.05299 0.49834 0.0
C2679 C 0.23922 0.04516 0.48953 0.0
C2680 C 0.25358 0.02974 0.49099 0.0
C2681 C 0.29557 0.92123 0.48591 0.0
C2682 C 0.30437 0.92633 0.47598 0.0
C2683 C 0.28742 0.93629 0.49248 0.0
C2684 C 0.28831 0.95669 0.4893 0.0
C2685 C 0.29487 0.96152 0.47888 0.0
C2686 C 0.30283 0.94637 0.47222 0.0
C2687 C 0.28687 0.97296 0.49744 0.0
C2688 C 0.27264 0.98862 0.49616 0.0
C2689 C 0.30091 0.97382 0.50603 0.0
C2690 C 0.31693 0.95824 0.50754 0.0
C2691 C 0.33209 0.9554 0.49974 0.0
C2692 C 0.34693 0.94045 0.50114 0.0
C2693 C 0.34691 0.92842 0.51038 0.0
C2694 C 0.33207 0.93137 0.51825 0.0
C2695 C 0.31715 0.94627 0.51687 0.0
H2696 H 0.35842 0.91685 0.51145 0.0
H2697 H 0.21758 0.06493 0.4972 0.0
H2698 H 0.68153 0.56505 0.28746 0.0
H2699 H 0.70937 0.5493 0.27742 0.0
H2700 H 0.68453 0.5728 0.24787 0.0
H2701 H 0.65641 0.58783 0.25773 0.0
H2702 H 0.70107 0.53691 0.24424 0.0
H2703 H 0.72107 0.59906 0.26252 0.0
H2704 H 0.72586 0.62096 0.27839 0.0
H2705 H 0.76506 0.5762 0.29253 0.0
H2706 H 0.7603 0.55393 0.27678 0.0
H2707 H 0.78516 0.56951 0.21274 0.0
H2708 H 0.75411 0.56087 0.22254 0.0
H2709 H 0.78997 0.53247 0.24735 0.0
H2710 H 0.82096 0.5414 0.23771 0.0
H2711 H 0.76866 0.56331 0.25492 0.0
H2712 H 0.75432 0.50515 0.23364 0.0
H2713 H 0.74982 0.48529 0.21704 0.0
H2714 H 0.70058 0.52414 0.20757 0.0
H2715 H 0.70496 0.54444 0.22405 0.0
C2716 C 0.68188 0.56661 0.27881 0.0
C2717 C 0.66696 0.57796 0.27341 0.0
C2718 C 0.69776 0.55758 0.27309 0.0
C2719 C 0.6992 0.56017 0.26191 0.0
C2720 C 0.68373 0.57057 0.25647 0.0
C2721 C 0.66773 0.57931 0.26215 0.0
C2722 C 0.71777 0.55419 0.25598 0.0
C2723 C 0.71589 0.54262 0.24655 0.0
C2724 C 0.73715 0.56132 0.25913 0.0
C2725 C 0.74013 0.57474 0.26855 0.0
C2726 C 0.73061 0.59385 0.26905 0.0
C2727 C 0.73332 0.60633 0.27801 0.0
C2728 C 0.7457 0.59994 0.28648 0.0
C2729 C 0.75544 0.5811 0.28598 0.0
C2730 C 0.75274 0.56855 0.27704 0.0
C2731 C 0.78634 0.56076 0.22007 0.0
C2732 C 0.80541 0.55647 0.22459 0.0
C2733 C 0.7686 0.55575 0.22566 0.0
C2734 C 0.76977 0.54616 0.23572 0.0
C2735 C 0.78875 0.53998 0.23963 0.0
C2736 C 0.80643 0.54514 0.23413 0.0
C2737 C 0.75201 0.5463 0.24302 0.0
C2738 C 0.75402 0.55699 0.25271 0.0
C2739 C 0.73281 0.53858 0.24 0.0
C2740 C 0.73006 0.5264 0.23007 0.0
C2741 C 0.74263 0.50957 0.22799 0.0
C2742 C 0.74008 0.49821 0.2186 0.0
C2743 C 0.72494 0.50347 0.21125 0.0
C2744 C 0.7123 0.52008 0.21328 0.0
C2745 C 0.71479 0.5315 0.22265 0.0
H2746 H 0.723 0.49466 0.20399 0.0
H2747 H 0.74778 0.60962 0.29342 0.0
H2748 H 0.17858 0.91001 0.00388 0.0
H2749 H 0.19275 0.93791 0.99341 0.0
H2750 H 0.18351 0.97861 0.02012 0.0
H2751 H 0.16972 0.95065 0.03075 0.0
H2752 H 0.17004 0.96848 0.98777 0.0
H2753 H 0.21354 0.01961 0.01847 0.0
H2754 H 0.2376 0.01544 0.03346 0.0
H2755 H 0.25711 0.9582 0.02054 0.0
H2756 H 0.23339 0.96214 0.00537 0.0
H2757 H 0.17208 0.08091 0.9913 0.0
H2758 H 0.18439 0.0489 0.99849 0.0
H2759 H 0.19534 0.02693 0.96638 0.0
H2760 H 0.18239 0.05891 0.95904 0.0
H2761 H 0.21683 0.02412 0.99826 0.0
H2762 H 0.17811 0.97861 0.96521 0.0
H2763 H 0.15227 0.98275 0.951 0.0
H2764 H 0.1216 0.02774 0.96999 0.0
H2765 H 0.14713 0.02368 0.98434 0.0
C2766 C 0.17994 0.92482 0.00761 0.0
C2767 C 0.1727 0.92825 0.01808 0.0
C2768 C 0.18815 0.9407 0.00163 0.0
C2769 C 0.18923 0.96032 0.00597 0.0
C2770 C 0.18316 0.96352 0.01666 0.0
C2771 C 0.1751 0.94757 0.0227 0.0
C2772 C 0.19334 0.97789 0.99889 0.0
C2773 C 0.18078 0.98033 0.98989 0.0
C2774 C 0.20707 0.99352 0.00174 0.0
C2775 C 0.22158 0.99115 0.01079 0.0
C2776 C 0.22305 0.0062 0.01877 0.0
C2777 C 0.23661 0.00385 0.02732 0.0
C2778 C 0.24885 0.98655 0.02796 0.0
C2779 C 0.24758 0.97157 0.02005 0.0
C2780 C 0.23405 0.97384 0.01148 0.0
C2781 C 0.1774 0.06944 0.98574 0.0
C2782 C 0.17576 0.07225 0.97458 0.0
C2783 C 0.18465 0.05119 0.98988 0.0
C2784 C 0.19046 0.03543 0.98297 0.0
C2785 C 0.19063 0.03884 0.97184 0.0
C2786 C 0.18318 0.05708 0.96766 0.0
C2787 C 0.19307 0.01479 0.98745 0.0
C2788 C 0.20675 0.01183 0.99596 0.0
C2789 C 0.18023 0.99866 0.98424 0.0
C2790 C 0.16465 0.00103 0.97575 0.0
C2791 C 0.16582 0.98935 0.96634 0.0
C2792 C 0.15124 0.99169 0.95827 0.0
C2793 C 0.13536 0.00557 0.95957 0.0
C2794 C 0.13395 0.01706 0.96898 0.0
C2795 C 0.14847 0.01475 0.97707 0.0
H2796 H 0.1241 0.00737 0.95331 0.0
H2797 H 0.25933 0.98476 0.03459 0.0
H2798 H 0.79729 0.4262 0.78529 0.0
H2799 H 0.76724 0.44317 0.77785 0.0
H2800 H 0.78811 0.42974 0.74579 0.0
H2801 H 0.81813 0.41334 0.75306 0.0
H2802 H 0.77051 0.46637 0.74631 0.0
H2803 H 0.75521 0.39776 0.75943 0.0
H2804 H 0.75285 0.37155 0.77354 0.0
H2805 H 0.71341 0.41016 0.79193 0.0
H2806 H 0.71573 0.43668 0.77796 0.0
H2807 H 0.69199 0.43507 0.71206 0.0
H2808 H 0.72107 0.44423 0.7232 0.0
H2809 H 0.68068 0.4596 0.74926 0.0
H2810 H 0.65159 0.44999 0.73823 0.0
H2811 H 0.70588 0.43157 0.75524 0.0
H2812 H 0.71357 0.49548 0.73853 0.0
H2813 H 0.71553 0.52028 0.72374 0.0
H2814 H 0.76864 0.49039 0.71145 0.0
H2815 H 0.76685 0.46521 0.72606 0.0
C2816 C 0.79556 0.4271 0.77666 0.0
C2817 C 0.80993 0.41814 0.76977 0.0
C2818 C 0.77843 0.43683 0.77242 0.0
C2819 C 0.77536 0.43754 0.76126 0.0
C2820 C 0.7902 0.42947 0.75442 0.0
C2821 C 0.80728 0.41989 0.75861 0.0
C2822 C 0.7559 0.44449 0.75658 0.0
C2823 C 0.7563 0.4589 0.74826 0.0
C2824 C 0.73728 0.43519 0.75938 0.0
C2825 C 0.73586 0.41926 0.76774 0.0
C2826 C 0.74615 0.40068 0.76652 0.0
C2827 C 0.74481 0.38578 0.77448 0.0
C2828 C 0.73305 0.38922 0.78364 0.0
C2829 C 0.72256 0.40754 0.78484 0.0
C2830 C 0.72388 0.42251 0.77691 0.0
C2831 C 0.68928 0.44103 0.72003 0.0
C2832 C 0.66958 0.44145 0.72435 0.0
C2833 C 0.70592 0.44639 0.7264 0.0
C2834 C 0.70306 0.45256 0.7371 0.0
C2835 C 0.68324 0.4548 0.74105 0.0
C2836 C 0.66664 0.44925 0.73474 0.0
C2837 C 0.72054 0.45288 0.7446 0.0
C2838 C 0.71981 0.43974 0.75346 0.0
C2839 C 0.73881 0.46326 0.74222 0.0
C2840 C 0.74002 0.47839 0.7334 0.0
C2841 C 0.7256 0.4941 0.73263 0.0
C2842 C 0.72669 0.50824 0.72429 0.0
C2843 C 0.74219 0.5069 0.71666 0.0
C2844 C 0.75665 0.49142 0.71737 0.0
C2845 C 0.75563 0.47723 0.7257 0.0
H2846 H 0.743 0.51787 0.7102 0.0
H2847 H 0.73202 0.37766 0.7898 0.0
H2848 H 0.154 0.83651 0.06176 0.0
H2849 H 0.16611 0.80339 0.06807 0.0
H2850 H 0.20224 0.79711 0.03932 0.0
H2851 H 0.18917 0.8295 0.03276 0.0
H2852 H 0.17679 0.76784 0.04076 0.0
H2853 H 0.22282 0.7993 0.06585 0.0
H2854 H 0.23198 0.82264 0.08056 0.0
H2855 H 0.19067 0.79178 0.10165 0.0
H2856 H 0.18104 0.76841 0.08703 0.0
H2857 H 0.2054 0.67148 0.04576 0.0
H2858 H 0.21441 0.70698 0.0489 0.0
H2859 H 0.16936 0.71059 0.07396 0.0
H2860 H 0.16105 0.67464 0.07121 0.0
H2861 H 0.20162 0.74121 0.07564 0.0
H2862 H 0.15135 0.71524 0.05062 0.0
H2863 H 0.13974 0.69205 0.03632 0.0
H2864 H 0.18668 0.71422 0.01544 0.0
H2865 H 0.19878 0.73729 0.02971 0.0
C2866 C 0.1649 0.8282 0.05694 0.0
C2867 C 0.17039 0.83518 0.0467 0.0
C2868 C 0.17197 0.80939 0.06059 0.0
C2869 C 0.18504 0.79772 0.05414 0.0
C2870 C 0.19203 0.80578 0.04438 0.0
C2871 C 0.18453 0.82421 0.04062 0.0
C2872 C 0.18832 0.77588 0.05641 0.0
C2873 C 0.18275 0.76218 0.04831 0.0
C2874 C 0.19508 0.76835 0.06646 0.0
C2875 C 0.20113 0.78216 0.07531 0.0
C2876 C 0.21561 0.79755 0.0736 0.0
C2877 C 0.22091 0.81076 0.08193 0.0
C2878 C 0.21193 0.80867 0.09203 0.0
C2879 C 0.19765 0.79334 0.09383 0.0
C2880 C 0.19229 0.78009 0.08553 0.0
C2881 C 0.19818 0.6796 0.0523 0.0
C2882 C 0.18231 0.67066 0.05811 0.0
C2883 C 0.20341 0.6998 0.05414 0.0
C2884 C 0.19218 0.71146 0.06147 0.0
C2885 C 0.17817 0.70182 0.06826 0.0
C2886 C 0.17333 0.68136 0.06663 0.0
C2887 C 0.19085 0.73363 0.05982 0.0
C2888 C 0.19624 0.74718 0.06804 0.0
C2889 C 0.18364 0.74128 0.04993 0.0
C2890 C 0.17609 0.7278 0.04125 0.0
C2891 C 0.15926 0.71507 0.04299 0.0
C2892 C 0.15259 0.70196 0.0349 0.0
C2893 C 0.1625 0.70163 0.02498 0.0
C2894 C 0.17905 0.71447 0.02313 0.0
C2895 C 0.18581 0.72756 0.03122 0.0
H2896 H 0.15733 0.69145 0.01873 0.0
H2897 H 0.21601 0.81895 0.09846 0.0
H2898 H 0.58435 0.93704 0.31298 0.0
H2899 H 0.55085 0.94777 0.31941 0.0
H2900 H 0.52848 0.94756 0.28686 0.0
H2901 H 0.56173 0.9372 0.28038 0.0
H2902 H 0.51071 0.97781 0.29887 0.0
H2903 H 0.52699 0.90358 0.30284 0.0
H2904 H 0.54786 0.8765 0.31101 0.0
H2905 H 0.53408 0.8995 0.34244 0.0
H2906 H 0.51326 0.9268 0.33441 0.0
H2907 H 0.42807 0.9261 0.28202 0.0
H2908 H 0.45953 0.94177 0.28788 0.0
H2909 H 0.4414 0.93483 0.32096 0.0
H2910 H 0.40949 0.91892 0.31509 0.0
H2911 H 0.47857 0.91927 0.31733 0.0
H2912 H 0.44893 0.98273 0.31174 0.0
H2913 H 0.42787 0.00913 0.30321 0.0
H2914 H 0.46617 0.00792 0.27533 0.0
H2915 H 0.48729 0.98129 0.2836 0.0
C2916 C 0.57241 0.93977 0.30717 0.0
C2917 C 0.57556 0.93588 0.29618 0.0
C2918 C 0.5533 0.94593 0.31087 0.0
C2919 C 0.53714 0.94822 0.30362 0.0
C2920 C 0.54075 0.94592 0.29259 0.0
C2921 C 0.55975 0.93979 0.2889 0.0
C2922 C 0.51583 0.94978 0.30731 0.0
C2923 C 0.50359 0.96524 0.30306 0.0
C2924 C 0.50669 0.9339 0.31325 0.0
C2925 C 0.51876 0.91725 0.31805 0.0
C2926 C 0.52845 0.90283 0.31149 0.0
C2927 C 0.54027 0.88748 0.31609 0.0
C2928 C 0.54234 0.88632 0.32724 0.0
C2929 C 0.5325 0.90045 0.33381 0.0
C2930 C 0.52069 0.91585 0.32924 0.0
C2931 C 0.43057 0.92813 0.29055 0.0
C2932 C 0.41639 0.92108 0.29809 0.0
C2933 C 0.44849 0.93735 0.29389 0.0
C2934 C 0.45269 0.93978 0.30486 0.0
C2935 C 0.43833 0.9333 0.31246 0.0
C2936 C 0.42018 0.92418 0.30909 0.0
C2937 C 0.47329 0.94645 0.30808 0.0
C2938 C 0.48548 0.93254 0.31367 0.0
C2939 C 0.48232 0.96385 0.30341 0.0
C2940 C 0.46977 0.97999 0.29833 0.0
C2941 C 0.45283 0.98802 0.30377 0.0
C2942 C 0.44087 0.00304 0.29898 0.0
C2943 C 0.44569 0.01022 0.28874 0.0
C2944 C 0.46249 0.00239 0.28327 0.0
C2945 C 0.4745 0.98736 0.28803 0.0
H2946 H 0.43641 0.02184 0.28504 0.0
H2947 H 0.55154 0.87446 0.33079 0.0
H2948 H 0.34073 0.17098 0.52119 0.0
H2949 H 0.33472 0.20697 0.52436 0.0
H2950 H 0.33356 0.19643 0.55852 0.0
H2951 H 0.33936 0.16006 0.55543 0.0
H2952 H 0.30434 0.22558 0.55135 0.0
H2953 H 0.37552 0.21305 0.54906 0.0
H2954 H 0.4069 0.19849 0.54146 0.0
H2955 H 0.39722 0.23151 0.51219 0.0
H2956 H 0.3656 0.24603 0.51955 0.0
H2957 H 0.32869 0.33428 0.55753 0.0
H2958 H 0.32645 0.29725 0.55961 0.0
H2959 H 0.32663 0.29029 0.5252 0.0
H2960 H 0.32883 0.32695 0.52302 0.0
H2961 H 0.35811 0.26977 0.53602 0.0
H2962 H 0.28513 0.28014 0.53831 0.0
H2963 H 0.254 0.29453 0.54628 0.0
H2964 H 0.26809 0.26612 0.5764 0.0
H2965 H 0.29948 0.25178 0.56864 0.0
C2966 C 0.33901 0.17621 0.52939 0.0
C2967 C 0.34084 0.16273 0.53807 0.0
C2968 C 0.33553 0.19678 0.53118 0.0
C2969 C 0.33403 0.20432 0.54167 0.0
C2970 C 0.33475 0.19083 0.55036 0.0
C2971 C 0.33815 0.17012 0.54858 0.0
C2972 C 0.33339 0.22649 0.54338 0.0
C2973 C 0.31623 0.2353 0.54819 0.0
C2974 C 0.34897 0.23905 0.53927 0.0
C2975 C 0.36812 0.23053 0.53484 0.0
C2976 C 0.38001 0.21711 0.54098 0.0
C2977 C 0.39785 0.20887 0.53672 0.0
C2978 C 0.40403 0.21404 0.52634 0.0
C2979 C 0.39241 0.22751 0.52022 0.0
C2980 C 0.37454 0.23577 0.52444 0.0
C2981 C 0.32782 0.32486 0.55042 0.0
C2982 C 0.32926 0.3335 0.54011 0.0
C2983 C 0.32651 0.30375 0.55163 0.0
C2984 C 0.32654 0.29115 0.54255 0.0
C2985 C 0.32672 0.29983 0.53229 0.0
C2986 C 0.328 0.32079 0.53107 0.0
C2987 C 0.32866 0.26893 0.54355 0.0
C2988 C 0.34631 0.2601 0.53933 0.0
C2989 C 0.31363 0.2565 0.54829 0.0
C2990 C 0.29478 0.26511 0.55294 0.0
C2991 C 0.28171 0.27714 0.54667 0.0
C2992 C 0.26399 0.28524 0.55114 0.0
C2993 C 0.25911 0.2813 0.56185 0.0
C2994 C 0.27191 0.26919 0.5681 0.0
C2995 C 0.28966 0.26107 0.56367 0.0
H2996 H 0.24538 0.28759 0.56529 0.0
H2997 H 0.41784 0.20765 0.52306 0.0
H2998 H 0.93564 0.05291 0.78514 0.0
H2999 H 0.96766 0.04294 0.79312 0.0
H3000 H 0.9435 0.05461 0.82474 0.0
H3001 H 0.91108 0.06497 0.81667 0.0
H3002 H 0.97692 0.07514 0.82197 0.0
H3003 H 0.96312 0.0064 0.81907 0.0
H3004 H 0.94959 0.97429 0.81185 0.0
H3005 H 0.98965 0.97875 0.78477 0.0
H3006 H 0.00322 0.01105 0.79169 0.0
H3007 H 0.08493 0.08265 0.8167 0.0
H3008 H 0.05551 0.06506 0.82444 0.0
H3009 H 0.02981 0.05836 0.79278 0.0
H3010 H 0.05891 0.07576 0.78503 0.0
H3011 H 0.02348 0.02371 0.80643 0.0
H3012 H 0.01487 0.10176 0.80758 0.0
H3013 H 0.0288 0.13408 0.8145 0.0
H3014 H 0.03216 0.10862 0.84619 0.0
H3015 H 0.01821 0.07619 0.83941 0.0
C3016 C 0.93692 0.05293 0.79381 0.0
C3017 C 0.92096 0.06002 0.80026 0.0
C3018 C 0.95521 0.04692 0.79841 0.0
C3019 C 0.95798 0.04776 0.80958 0.0
C3020 C 0.94164 0.05367 0.81612 0.0
C3021 C 0.92317 0.05961 0.8115 0.0
C3022 C 0.97894 0.04619 0.81386 0.0
C3023 C 0.98702 0.06337 0.81902 0.0
C3024 C 0.99225 0.03073 0.81026 0.0
C3025 C 0.9843 0.01118 0.80597 0.0
C3026 C 0.96902 0.0006 0.81155 0.0
C3027 C 0.96133 0.98234 0.80751 0.0
C3028 C 0.96879 0.97446 0.79787 0.0
C3029 C 0.98395 0.98483 0.79226 0.0
C3030 C 0.9917 0.0031 0.79627 0.0
C3031 C 0.07313 0.07714 0.81139 0.0
C3032 C 0.07406 0.08085 0.80026 0.0
C3033 C 0.05642 0.06702 0.81582 0.0
C3034 C 0.04055 0.06037 0.80917 0.0
C3035 C 0.04202 0.06317 0.79804 0.0
C3036 C 0.05854 0.07337 0.79363 0.0
C3037 C 0.02094 0.05333 0.81357 0.0
C3038 C 0.01322 0.03462 0.81006 0.0
C3039 C 0.00794 0.06709 0.81889 0.0
C3040 C 0.01549 0.08671 0.82302 0.0
C3041 C 0.01847 0.10317 0.81603 0.0
C3042 C 0.0264 0.12145 0.81991 0.0
C3043 C 0.03134 0.12341 0.83078 0.0
C3044 C 0.02828 0.1071 0.83779 0.0
C3045 C 0.02034 0.08879 0.83393 0.0
H3046 H 0.03754 0.13755 0.83377 0.0
H3047 H 0.9628 0.96033 0.79475 0.0
H3048 H 0.17474 0.18577 0.97263 0.0
H3049 H 0.18908 0.21864 0.96788 0.0
H3050 H 0.18947 0.20156 0.93445 0.0
H3051 H 0.1749 0.16846 0.93913 0.0
H3052 H 0.22309 0.23328 0.95712 0.0
H3053 H 0.1731 0.24439 0.92101 0.0
H3054 H 0.14259 0.23001 0.91231 0.0
H3055 H 0.11803 0.21448 0.94317 0.0
H3056 H 0.1483 0.22896 0.95202 0.0
H3057 H 0.18043 0.34329 0.94255 0.0
H3058 H 0.19321 0.31036 0.93629 0.0
H3059 H 0.19577 0.2892 0.96905 0.0
H3060 H 0.18327 0.3218 0.97531 0.0
H3061 H 0.17194 0.27652 0.93886 0.0
H3062 H 0.22922 0.25425 0.97317 0.0
H3063 H 0.25834 0.26978 0.9825 0.0
H3064 H 0.26795 0.31004 0.95587 0.0
H3065 H 0.23909 0.29456 0.94629 0.0
C3066 C 0.17809 0.18885 0.96427 0.0
C3067 C 0.17336 0.17466 0.95624 0.0
C3068 C 0.18651 0.20757 0.96158 0.0
C3069 C 0.19025 0.21252 0.95082 0.0
C3070 C 0.18663 0.19799 0.9428 0.0
C3071 C 0.17823 0.17916 0.9455 0.0
C3072 C 0.19518 0.2338 0.94813 0.0
C3073 C 0.21214 0.24283 0.95301 0.0
C3074 C 0.18135 0.24603 0.94233 0.0
C3075 C 0.16303 0.23748 0.93714 0.0
C3076 C 0.16116 0.23791 0.92591 0.0
C3077 C 0.14392 0.22976 0.92096 0.0
C3078 C 0.12842 0.22126 0.92718 0.0
C3079 C 0.13008 0.22099 0.93836 0.0
C3080 C 0.14726 0.22916 0.94335 0.0
C3081 C 0.18421 0.33175 0.94842 0.0
C3082 C 0.18059 0.33499 0.95941 0.0
C3083 C 0.19155 0.313 0.94482 0.0
C3084 C 0.19567 0.29741 0.9522 0.0
C3085 C 0.19316 0.30112 0.96321 0.0
C3086 C 0.18572 0.31971 0.96678 0.0
C3087 C 0.19906 0.27627 0.94858 0.0
C3088 C 0.18365 0.26715 0.94248 0.0
C3089 C 0.21432 0.26403 0.95328 0.0
C3090 C 0.23194 0.27318 0.95898 0.0
C3091 C 0.23765 0.26627 0.96924 0.0
C3092 C 0.25409 0.27511 0.97459 0.0
C3093 C 0.26499 0.29088 0.96978 0.0
C3094 C 0.25948 0.29783 0.9596 0.0
C3095 C 0.24306 0.28905 0.95421 0.0
H3096 H 0.2777 0.29771 0.97395 0.0
H3097 H 0.1151 0.21493 0.92333 0.0
H3098 H 0.93291 0.92322 0.21809 0.0
H3099 H 0.96583 0.93333 0.21098 0.0
H3100 H 0.94709 0.91531 0.17919 0.0
H3101 H 0.91383 0.90518 0.18628 0.0
H3102 H 0.98147 0.89628 0.18568 0.0
H3103 H 0.9598 0.96411 0.18293 0.0
H3104 H 0.94275 0.99591 0.18822 0.0
H3105 H 0.98305 0.00194 0.21512 0.0
H3106 H 0.00017 0.97002 0.21011 0.0
H3107 H 0.09246 0.93011 0.18446 0.0
H3108 H 0.0571 0.9369 0.17913 0.0
H3109 H 0.03603 0.91018 0.20868 0.0
H3110 H 0.07094 0.9037 0.21416 0.0
H3111 H 0.02167 0.9576 0.19497 0.0
H3112 H 0.00549 0.87195 0.19639 0.0
H3113 H 0.02268 0.83973 0.19192 0.0
H3114 H 0.05715 0.86991 0.16739 0.0
H3115 H 0.03993 0.90223 0.1716 0.0
C3116 C 0.93561 0.92179 0.20954 0.0
C3117 C 0.9209 0.91318 0.20276 0.0
C3118 C 0.95437 0.92779 0.20547 0.0
C3119 C 0.95884 0.92523 0.19454 0.0
C3120 C 0.94384 0.91756 0.18763 0.0
C3121 C 0.9249 0.91176 0.1917 0.0
C3122 C 0.98013 0.92747 0.19092 0.0
C3123 C 0.99017 0.9099 0.18738 0.0
C3124 C 0.99145 0.94531 0.19304 0.0
C3125 C 0.98129 0.96461 0.19612 0.0
C3126 C 0.96498 0.97214 0.19001 0.0
C3127 C 0.9553 0.99021 0.19296 0.0
C3128 C 0.96182 0.00094 0.202 0.0
C3129 C 0.97804 0.99363 0.20811 0.0
C3130 C 0.98778 0.97557 0.2052 0.0
C3131 C 0.08027 0.92588 0.18986 0.0
C3132 C 0.08448 0.91632 0.19973 0.0
C3133 C 0.06017 0.92981 0.18681 0.0
C3134 C 0.04414 0.92391 0.19351 0.0
C3135 C 0.04831 0.91479 0.20342 0.0
C3136 C 0.06827 0.91111 0.20653 0.0
C3137 C 0.02275 0.9262 0.19026 0.0
C3138 C 0.01277 0.94442 0.19269 0.0
C3139 C 0.01141 0.90902 0.18708 0.0
C3140 C 0.0215 0.88953 0.18435 0.0
C3141 C 0.01664 0.87168 0.18999 0.0
C3142 C 0.02641 0.85341 0.18752 0.0
C3143 C 0.04103 0.85278 0.1794 0.0
C3144 C 0.04587 0.87043 0.17371 0.0
C3145 C 0.03613 0.88873 0.17614 0.0
H3146 H 0.04859 0.83863 0.1775 0.0
H3147 H 0.9543 0.01492 0.20427 0.0
H3148 H 0.33828 0.68189 0.47124 0.0
H3149 H 0.32383 0.71335 0.46441 0.0
H3150 H 0.33266 0.69255 0.4319 0.0
H3151 H 0.34716 0.6607 0.43873 0.0
H3152 H 0.34919 0.73021 0.4357 0.0
H3153 H 0.28498 0.70028 0.4395 0.0
H3154 H 0.25782 0.67973 0.44772 0.0
H3155 H 0.25549 0.7206 0.47455 0.0
H3156 H 0.28285 0.74123 0.4666 0.0
H3157 H 0.32637 0.83636 0.43556 0.0
H3158 H 0.31924 0.8013 0.42994 0.0
H3159 H 0.31585 0.78306 0.46316 0.0
H3160 H 0.32285 0.8177 0.46879 0.0
H3161 H 0.28751 0.76315 0.45058 0.0
H3162 H 0.36091 0.78119 0.4497 0.0
H3163 H 0.38959 0.80112 0.44249 0.0
H3164 H 0.37455 0.78182 0.41053 0.0
H3165 H 0.34564 0.76194 0.41758 0.0
C3166 C 0.33696 0.68386 0.46264 0.0
C3167 C 0.344 0.66891 0.45552 0.0
C3168 C 0.32847 0.70176 0.45874 0.0
C3169 C 0.3269 0.70512 0.44765 0.0
C3170 C 0.33354 0.69009 0.44049 0.0
C3171 C 0.34186 0.67199 0.4444 0.0
C3172 C 0.32068 0.72544 0.44383 0.0
C3173 C 0.33531 0.73728 0.43857 0.0
C3174 C 0.30258 0.73462 0.44756 0.0
C3175 C 0.28599 0.72235 0.45242 0.0
C3176 C 0.27875 0.70485 0.44718 0.0
C3177 C 0.26331 0.69318 0.4518 0.0
C3178 C 0.25493 0.69886 0.46165 0.0
C3179 C 0.26197 0.71624 0.46691 0.0
C3180 C 0.27741 0.72797 0.46233 0.0
C3181 C 0.32371 0.8249 0.44164 0.0
C3182 C 0.32548 0.82966 0.45261 0.0
C3183 C 0.3196 0.80495 0.43842 0.0
C3184 C 0.3171 0.78963 0.44614 0.0
C3185 C 0.31761 0.79468 0.45707 0.0
C3186 C 0.32184 0.81446 0.46028 0.0
C3187 C 0.31668 0.76789 0.4432 0.0
C3188 C 0.3008 0.75584 0.44717 0.0
C3189 C 0.33366 0.75848 0.43834 0.0
C3190 C 0.35103 0.77033 0.43414 0.0
C3191 C 0.36368 0.78131 0.44113 0.0
C3192 C 0.37996 0.79258 0.43708 0.0
C3193 C 0.38385 0.79279 0.42605 0.0
C3194 C 0.37148 0.78169 0.41906 0.0
C3195 C 0.35515 0.77043 0.42308 0.0
H3196 H 0.39647 0.80152 0.42293 0.0
H3197 H 0.24298 0.6898 0.46521 0.0
H3198 H 0.41979 0.04845 0.72263 0.0
H3199 H 0.45619 0.04568 0.71944 0.0
H3200 H 0.44782 0.06609 0.68687 0.0
H3201 H 0.41113 0.06887 0.68997 0.0
H3202 H 0.484 0.03558 0.69236 0.0
H3203 H 0.45447 0.10201 0.70001 0.0
H3204 H 0.43091 0.12443 0.70986 0.0
H3205 H 0.45922 0.1078 0.73964 0.0
H3206 H 0.4827 0.08497 0.72997 0.0
H3207 H 0.58219 0.08668 0.69121 0.0
H3208 H 0.54713 0.07527 0.68838 0.0
H3209 H 0.53895 0.07009 0.72263 0.0
H3210 H 0.57361 0.08177 0.72552 0.0
H3211 H 0.51055 0.0934 0.71378 0.0
H3212 H 0.54117 0.02826 0.70634 0.0
H3213 H 0.56409 0.00462 0.6969 0.0
H3214 H 0.53444 0.01809 0.66704 0.0
H3215 H 0.51151 0.04203 0.67629 0.0
C3216 C 0.42555 0.05168 0.71467 0.0
C3217 C 0.41271 0.05935 0.70663 0.0
C3218 C 0.44633 0.04993 0.71284 0.0
C3219 C 0.4546 0.05592 0.70297 0.0
C3220 C 0.44162 0.06132 0.69452 0.0
C3221 C 0.4207 0.06301 0.69633 0.0
C3222 C 0.4764 0.06095 0.70249 0.0
C3223 C 0.4899 0.04837 0.69688 0.0
C3224 C 0.48392 0.07755 0.70848 0.0
C3225 C 0.47019 0.09166 0.71428 0.0
C3226 C 0.45556 0.10303 0.70867 0.0
C3227 C 0.44224 0.11581 0.71421 0.0
C3228 C 0.44354 0.1175 0.72537 0.0
C3229 C 0.45822 0.10646 0.731 0.0
C3230 C 0.47154 0.0936 0.72549 0.0
C3231 C 0.57299 0.08281 0.69812 0.0
C3232 C 0.58054 0.08539 0.7086 0.0
C3233 C 0.55301 0.07621 0.69649 0.0
C3234 C 0.54045 0.07189 0.7053 0.0
C3235 C 0.54836 0.07348 0.71572 0.0
C3236 C 0.56817 0.08019 0.71736 0.0
C3237 C 0.51853 0.06773 0.70388 0.0
C3238 C 0.50484 0.08067 0.70914 0.0
C3239 C 0.51102 0.05151 0.69755 0.0
C3240 C 0.52479 0.03712 0.69199 0.0
C3241 C 0.53966 0.02633 0.69775 0.0
C3242 C 0.55263 0.01284 0.69243 0.0
C3243 C 0.55077 0.0099 0.68137 0.0
C3244 C 0.53589 0.02041 0.6756 0.0
C3245 C 0.5229 0.03393 0.68088 0.0
H3246 H 0.56082 -0.00055 0.67727 0.0
H3247 H 0.4332 0.1274 0.72965 0.0
H3248 H 0.83156 0.31154 0.96197 0.0
H3249 H 0.81987 0.2791 0.95492 0.0
H3250 H 0.81299 0.30553 0.92348 0.0
H3251 H 0.82505 0.33831 0.93044 0.0
H3252 H 0.78025 0.27036 0.94012 0.0
H3253 H 0.8365 0.28158 0.91379 0.0
H3254 H 0.86995 0.29652 0.90952 0.0
H3255 H 0.89607 0.2669 0.93696 0.0
H3256 H 0.86268 0.25201 0.94144 0.0
H3257 H 0.82597 0.15987 0.92979 0.0
H3258 H 0.81661 0.19335 0.92271 0.0
H3259 H 0.80122 0.21318 0.95471 0.0
H3260 H 0.81049 0.18002 0.96178 0.0
H3261 H 0.83755 0.22656 0.92857 0.0
H3262 H 0.76716 0.2491 0.95493 0.0
H3263 H 0.73456 0.23393 0.96041 0.0
H3264 H 0.73595 0.19445 0.93299 0.0
H3265 H 0.76842 0.20959 0.92723 0.0
C3266 C 0.82742 0.31061 0.95357 0.0
C3267 C 0.82945 0.32747 0.94674 0.0
C3268 C 0.82063 0.29208 0.94958 0.0
C3269 C 0.81568 0.29001 0.9387 0.0
C3270 C 0.81686 0.3069 0.93189 0.0
C3271 C 0.82376 0.32556 0.93589 0.0
C3272 C 0.81118 0.2695 0.93462 0.0
C3273 C 0.79247 0.26069 0.9373 0.0
C3274 C 0.82706 0.25717 0.9307 0.0
C3275 C 0.84714 0.26583 0.92797 0.0
C3276 C 0.84938 0.27837 0.91893 0.0
C3277 C 0.86831 0.28681 0.91647 0.0
C3278 C 0.88512 0.28269 0.92297 0.0
C3279 C 0.88304 0.27009 0.93193 0.0
C3280 C 0.86413 0.26164 0.93443 0.0
C3281 C 0.82006 0.17122 0.93526 0.0
C3282 C 0.81921 0.16746 0.94636 0.0
C3283 C 0.8147 0.1903 0.93119 0.0
C3284 C 0.80805 0.20569 0.93816 0.0
C3285 C 0.80592 0.20144 0.94914 0.0
C3286 C 0.81146 0.18253 0.9532 0.0
C3287 C 0.80679 0.22707 0.93455 0.0
C3288 C 0.82466 0.23605 0.93066 0.0
C3289 C 0.79 0.23949 0.93725 0.0
C3290 C 0.77028 0.23053 0.94063 0.0
C3291 C 0.76045 0.23733 0.95 0.0
C3292 C 0.742 0.22869 0.95317 0.0
C3293 C 0.73319 0.21324 0.94705 0.0
C3294 C 0.74281 0.2064 0.93773 0.0
C3295 C 0.76125 0.21499 0.93451 0.0
H3296 H 0.71892 0.20656 0.94953 0.0
H3297 H 0.89976 0.28923 0.92106 0.0
H3298 H 0.67148 0.83867 0.43553 0.0
H3299 H 0.6837 0.80658 0.4278 0.0
H3300 H 0.64902 0.77323 0.4513 0.0
H3301 H 0.63692 0.80496 0.45907 0.0
H3302 H 0.70596 0.77599 0.43828 0.0
H3303 H 0.62817 0.73311 0.4398 0.0
H3304 H 0.59216 0.7405 0.43602 0.0
H3305 H 0.60965 0.78869 0.41472 0.0
H3306 H 0.64579 0.78141 0.41823 0.0
H3307 H 0.70057 0.68197 0.46095 0.0
H3308 H 0.70253 0.71584 0.4533 0.0
H3309 H 0.6833 0.6924 0.42258 0.0
H3310 H 0.6812 0.65821 0.43027 0.0
H3311 H 0.65804 0.72028 0.42944 0.0
H3312 H 0.72803 0.71922 0.42406 0.0
H3313 H 0.76416 0.7119 0.42751 0.0
H3314 H 0.76314 0.75122 0.45499 0.0
H3315 H 0.72693 0.75856 0.45184 0.0
C3316 C 0.66636 0.82447 0.43898 0.0
C3317 C 0.65326 0.82431 0.44792 0.0
C3318 C 0.67336 0.80621 0.43457 0.0
C3319 C 0.66704 0.78761 0.4389 0.0
C3320 C 0.65381 0.78746 0.44774 0.0
C3321 C 0.64702 0.80561 0.45221 0.0
C3322 C 0.67493 0.76809 0.4348 0.0
C3323 C 0.69564 0.76379 0.43615 0.0
C3324 C 0.66151 0.75249 0.43156 0.0
C3325 C 0.63974 0.7567 0.42928 0.0
C3326 C 0.62437 0.74517 0.43423 0.0
C3327 C 0.60392 0.74937 0.43216 0.0
C3328 C 0.59862 0.76506 0.42514 0.0
C3329 C 0.61377 0.77656 0.42017 0.0
C3330 C 0.63424 0.77241 0.42221 0.0
C3331 C 0.69736 0.68388 0.45248 0.0
C3332 C 0.69037 0.66753 0.44626 0.0
C3333 C 0.69871 0.70326 0.44807 0.0
C3334 C 0.69309 0.70669 0.43735 0.0
C3335 C 0.68777 0.69007 0.43086 0.0
C3336 C 0.68657 0.67056 0.43527 0.0
C3337 C 0.6888 0.72778 0.43388 0.0
C3338 C 0.66866 0.73247 0.43111 0.0
C3339 C 0.70282 0.7437 0.43571 0.0
C3340 C 0.72469 0.73948 0.43768 0.0
C3341 C 0.73546 0.72625 0.43088 0.0
C3342 C 0.75598 0.72209 0.43278 0.0
C3343 C 0.76594 0.7311 0.44146 0.0
C3344 C 0.75541 0.7443 0.44825 0.0
C3345 C 0.73489 0.74851 0.44639 0.0
H3346 H 0.78183 0.72786 0.44292 0.0
H3347 H 0.58278 0.7683 0.42356 0.0
H3348 H 0.80957 0.66743 0.02868 0.0
H3349 H 0.79798 0.702 0.03221 0.0
H3350 H 0.82477 0.69964 0.06379 0.0
H3351 H 0.83576 0.66453 0.06042 0.0
H3352 H 0.78999 0.726 0.06254 0.0
H3353 H 0.85399 0.71487 0.04499 0.0
H3354 H 0.87685 0.69939 0.0316 0.0
H3355 H 0.84168 0.72571 0.00611 0.0
H3356 H 0.81841 0.74107 0.01936 0.0
H3357 H 0.82475 0.83149 0.06168 0.0
H3358 H 0.81749 0.79532 0.06443 0.0
H3359 H 0.79224 0.79171 0.03253 0.0
H3360 H 0.79974 0.82757 0.02968 0.0
H3361 H 0.8258 0.76808 0.03544 0.0
H3362 H 0.7631 0.78197 0.05402 0.0
H3363 H 0.74182 0.7976 0.06805 0.0
H3364 H 0.7767 0.76747 0.09244 0.0
H3365 H 0.79839 0.75187 0.07855 0.0
C3366 C 0.81241 0.67406 0.0365 0.0
C3367 C 0.82387 0.66358 0.04421 0.0
C3368 C 0.80571 0.69374 0.03853 0.0
C3369 C 0.81093 0.70346 0.04816 0.0
C3370 C 0.82063 0.69236 0.0563 0.0
C3371 C 0.82699 0.67239 0.05435 0.0
C3372 C 0.80976 0.72586 0.04876 0.0
C3373 C 0.79789 0.73529 0.05669 0.0
C3374 C 0.8202 0.73789 0.04115 0.0
C3375 C 0.83436 0.72895 0.03316 0.0
C3376 C 0.85106 0.71724 0.03653 0.0
C3377 C 0.86409 0.7085 0.02897 0.0
C3378 C 0.86069 0.71153 0.01801 0.0
C3379 C 0.84428 0.72336 0.0146 0.0
C3380 C 0.83117 0.73209 0.02213 0.0
C3381 C 0.81703 0.82311 0.0554 0.0
C3382 C 0.81319 0.83216 0.04538 0.0
C3383 C 0.81283 0.80249 0.057 0.0
C3384 C 0.80449 0.79085 0.04864 0.0
C3385 C 0.79878 0.80044 0.03905 0.0
C3386 C 0.80315 0.82089 0.03742 0.0
C3387 C 0.80538 0.76842 0.04896 0.0
C3388 C 0.81764 0.75891 0.04126 0.0
C3389 C 0.79556 0.75657 0.05689 0.0
C3390 C 0.78251 0.76591 0.06524 0.0
C3391 C 0.76636 0.77882 0.06237 0.0
C3392 C 0.7542 0.78764 0.0703 0.0
C3393 C 0.75794 0.78357 0.08113 0.0
C3394 C 0.77383 0.77063 0.08405 0.0
C3395 C 0.78605 0.76177 0.07615 0.0
H3396 H 0.7485 0.79042 0.08726 0.0
H3397 H 0.8708 0.70475 0.01217 0.0
H3398 H 0.65232 0.32359 0.51872 0.0
H3399 H 0.65767 0.28734 0.52125 0.0
H3400 H 0.66477 0.29652 0.55532 0.0
H3401 H 0.65954 0.33317 0.55286 0.0
H3402 H 0.6922 0.26706 0.54627 0.0
H3403 H 0.62131 0.28101 0.54797 0.0
H3404 H 0.58899 0.29659 0.5423 0.0
H3405 H 0.59213 0.26472 0.51227 0.0
H3406 H 0.62466 0.2492 0.5177 0.0
H3407 H 0.66917 0.15867 0.55251 0.0
H3408 H 0.67125 0.19563 0.55478 0.0
H3409 H 0.66317 0.20362 0.5207 0.0
H3410 H 0.66112 0.16697 0.51832 0.0
H3411 H 0.63495 0.22454 0.53331 0.0
H3412 H 0.70777 0.21301 0.53148 0.0
H3413 H 0.74008 0.19781 0.53746 0.0
H3414 H 0.73248 0.22475 0.56859 0.0
H3415 H 0.69996 0.23989 0.56283 0.0
C3416 C 0.6552 0.31802 0.52675 0.0
C3417 C 0.65521 0.33123 0.53561 0.0
C3418 C 0.65829 0.29729 0.52818 0.0
C3419 C 0.66129 0.2893 0.53848 0.0
C3420 C 0.6624 0.30247 0.54731 0.0
C3421 C 0.65934 0.32335 0.54589 0.0
C3422 C 0.66176 0.26704 0.53992 0.0
C3423 C 0.67957 0.2577 0.54365 0.0
C3424 C 0.64524 0.25494 0.53648 0.0
C3425 C 0.62551 0.26404 0.53322 0.0
C3426 C 0.61519 0.27743 0.54013 0.0
C3427 C 0.59681 0.28624 0.53696 0.0
C3428 C 0.58853 0.28168 0.52692 0.0
C3429 C 0.59857 0.26825 0.52004 0.0
C3430 C 0.61697 0.25942 0.52317 0.0
C3431 C 0.6682 0.16829 0.54548 0.0
C3432 C 0.66474 0.15989 0.53525 0.0
C3433 C 0.66942 0.18938 0.5468 0.0
C3434 C 0.66723 0.20226 0.53791 0.0
C3435 C 0.66477 0.19387 0.52766 0.0
C3436 C 0.66362 0.1729 0.52632 0.0
C3437 C 0.66569 0.2245 0.53924 0.0
C3438 C 0.6475 0.23384 0.53609 0.0
C3439 C 0.68178 0.23647 0.54331 0.0
C3440 C 0.70131 0.22736 0.54677 0.0
C3441 C 0.71288 0.21552 0.53963 0.0
C3442 C 0.73126 0.20696 0.54297 0.0
C3443 C 0.7383 0.21025 0.55341 0.0
C3444 C 0.727 0.22218 0.56052 0.0
C3445 C 0.7086 0.23076 0.55721 0.0
H3446 H 0.75254 0.20362 0.55598 0.0
H3447 H 0.5743 0.28853 0.52448 0.0
H3448 H 0.91206 0.40914 0.80473 0.0
H3449 H 0.94642 0.42218 0.80791 0.0
H3450 H 0.9506 0.44009 0.77466 0.0
H3451 H 0.91673 0.42651 0.77138 0.0
H3452 H 0.98026 0.41558 0.77991 0.0
H3453 H 0.94995 0.47514 0.7957 0.0
H3454 H 0.92749 0.49352 0.80821 0.0
H3455 H 0.95961 0.46805 0.83502 0.0
H3456 H 0.9821 0.4493 0.82266 0.0
H3457 H 0.07724 0.45041 0.77836 0.0
H3458 H 0.04067 0.45625 0.77934 0.0
H3459 H 0.03981 0.43262 0.81162 0.0
H3460 H 0.07662 0.42736 0.81082 0.0
H3461 H 0.00846 0.46166 0.8077 0.0
H3462 H 0.03551 0.39978 0.79266 0.0
H3463 H 0.05788 0.37989 0.78075 0.0
H3464 H 0.03077 0.40803 0.75315 0.0
H3465 H 0.00845 0.42834 0.76493 0.0
C3466 C 0.92021 0.41622 0.79817 0.0
C3467 C 0.91195 0.41649 0.78776 0.0
C3468 C 0.93975 0.4238 0.80001 0.0
C3469 C 0.95106 0.43208 0.79151 0.0
C3470 C 0.94217 0.43365 0.78131 0.0
C3471 C 0.92286 0.42581 0.77944 0.0
C3472 C 0.97301 0.43635 0.79274 0.0
C3473 C 0.98631 0.42602 0.78585 0.0
C3474 C 0.98099 0.44924 0.80081 0.0
C3475 C 0.96761 0.46068 0.80824 0.0
C3476 C 0.95213 0.47334 0.80426 0.0
C3477 C 0.93941 0.48385 0.81133 0.0
C3478 C 0.94209 0.48192 0.8224 0.0
C3479 C 0.95754 0.46953 0.82644 0.0
C3480 C 0.9703 0.45897 0.8194 0.0
C3481 C 0.06937 0.4471 0.78579 0.0
C3482 C 0.0796 0.43801 0.79443 0.0
C3483 C 0.04852 0.45054 0.78636 0.0
C3484 C 0.03755 0.44441 0.79546 0.0
C3485 C 0.04804 0.4374 0.80453 0.0
C3486 C 0.06904 0.43429 0.80403 0.0
C3487 C 0.01536 0.44141 0.79463 0.0
C3488 C 0.00219 0.45158 0.80167 0.0
C3489 C 0.00731 0.42815 0.78677 0.0
C3490 C 0.02048 0.41572 0.77967 0.0
C3491 C 0.03442 0.40182 0.78406 0.0
C3492 C 0.04708 0.39047 0.77733 0.0
C3493 C 0.04578 0.39273 0.7662 0.0
C3494 C 0.03178 0.40631 0.76178 0.0
C3495 C 0.01912 0.41775 0.76847 0.0
H3496 H 0.0556 0.38393 0.76101 0.0
H3497 H 0.93221 0.49006 0.82786 0.0
H3498 H 0.4262 0.55627 0.28948 0.0
H3499 H 0.45968 0.54663 0.29577 0.0
H3500 H 0.44192 0.55983 0.32839 0.0
H3501 H 0.40809 0.56985 0.32205 0.0
H3502 H 0.47426 0.58062 0.32315 0.0
H3503 H 0.45949 0.51147 0.32206 0.0
H3504 H 0.44476 0.47921 0.31573 0.0
H3505 H 0.4812 0.48219 0.2872 0.0
H3506 H 0.49592 0.51463 0.29324 0.0
H3507 H 0.58241 0.58269 0.31831 0.0
H3508 H 0.55114 0.56782 0.32561 0.0
H3509 H 0.52822 0.55957 0.29347 0.0
H3510 H 0.55914 0.57439 0.28614 0.0
H3511 H 0.51828 0.52708 0.30753 0.0
H3512 H 0.51792 0.60283 0.30645 0.0
H3513 H 0.53167 0.63596 0.31223 0.0
H3514 H 0.52284 0.61931 0.34523 0.0
H3515 H 0.50922 0.58599 0.33961 0.0
C3516 C 0.42921 0.55671 0.29803 0.0
C3517 C 0.41464 0.56415 0.30525 0.0
C3518 C 0.44833 0.55089 0.30165 0.0
C3519 C 0.4533 0.55228 0.31259 0.0
C3520 C 0.43835 0.55848 0.31993 0.0
C3521 C 0.41907 0.56425 0.31629 0.0
C3522 C 0.47497 0.551 0.31573 0.0
C3523 C 0.48386 0.56848 0.32016 0.0
C3524 C 0.48757 0.53516 0.31189 0.0
C3525 C 0.47889 0.51553 0.30815 0.0
C3526 C 0.46432 0.50532 0.31441 0.0
C3527 C 0.45596 0.48698 0.31087 0.0
C3528 C 0.46206 0.47864 0.30107 0.0
C3529 C 0.47653 0.48863 0.2948 0.0
C3530 C 0.48494 0.50698 0.2983 0.0
C3531 C 0.57082 0.57739 0.31281 0.0
C3532 C 0.57305 0.57998 0.30166 0.0
C3533 C 0.55305 0.56883 0.31699 0.0
C3534 C 0.53744 0.56261 0.31007 0.0
C3535 C 0.54019 0.56413 0.29894 0.0
C3536 C 0.55776 0.57283 0.29477 0.0
C3537 C 0.51707 0.55723 0.31414 0.0
C3538 C 0.50858 0.53856 0.31109 0.0
C3539 C 0.50477 0.57189 0.31928 0.0
C3540 C 0.51282 0.5919 0.32263 0.0
C3541 C 0.51903 0.60622 0.31493 0.0
C3542 C 0.52678 0.62502 0.31818 0.0
C3543 C 0.52819 0.62972 0.32909 0.0
C3544 C 0.52179 0.61564 0.33678 0.0
C3545 C 0.51406 0.5968 0.33357 0.0
H3546 H 0.53419 0.64428 0.33159 0.0
H3547 H 0.45556 0.46445 0.29834 0.0
H3548 H 0.42642 0.42165 0.71652 0.0
H3549 H 0.45654 0.43733 0.70886 0.0
H3550 H 0.43535 0.42312 0.67696 0.0
H3551 H 0.40476 0.40738 0.68464 0.0
H3552 H 0.4738 0.4089 0.6811 0.0
H3553 H 0.44158 0.47223 0.68256 0.0
H3554 H 0.41997 0.4996 0.68977 0.0
H3555 H 0.46063 0.50707 0.71642 0.0
H3556 H 0.48233 0.47954 0.7095 0.0
H3557 H 0.57887 0.43099 0.68179 0.0
H3558 H 0.54466 0.4389 0.67517 0.0
H3559 H 0.52429 0.44785 0.70775 0.0
H3560 H 0.55816 0.44022 0.71436 0.0
H3561 H 0.50455 0.47333 0.69388 0.0
H3562 H 0.52349 0.40006 0.69612 0.0
H3563 H 0.54438 0.37086 0.69036 0.0
H3564 H 0.52777 0.38184 0.65753 0.0
H3565 H 0.50694 0.41123 0.66313 0.0
C3566 C 0.42798 0.42208 0.70787 0.0
C3567 C 0.41336 0.4131 0.70118 0.0
C3568 C 0.44509 0.4313 0.70349 0.0
C3569 C 0.44802 0.43166 0.69233 0.0
C3570 C 0.4332 0.4232 0.68558 0.0
C3571 C 0.41583 0.41417 0.68998 0.0
C3572 C 0.46799 0.43823 0.68815 0.0
C3573 C 0.48038 0.42334 0.68347 0.0
C3574 C 0.47653 0.45706 0.69123 0.0
C3575 C 0.46365 0.4738 0.69546 0.0
C3576 C 0.44589 0.47964 0.68999 0.0
C3577 C 0.43361 0.4952 0.69402 0.0
C3578 C 0.43894 0.50508 0.70354 0.0
C3579 C 0.45655 0.49944 0.70903 0.0
C3580 C 0.46889 0.48388 0.70503 0.0
C3581 C 0.5672 0.43519 0.6875 0.0
C3582 C 0.57105 0.43458 0.69861 0.0
C3583 C 0.5477 0.43973 0.6837 0.0
C3584 C 0.53191 0.44373 0.69098 0.0
C3585 C 0.53625 0.44485 0.70199 0.0
C3586 C 0.5556 0.44026 0.70577 0.0
C3587 C 0.51034 0.44339 0.68765 0.0
C3588 C 0.49771 0.45943 0.6909 0.0
C3589 C 0.50152 0.42556 0.68335 0.0
C3590 C 0.51391 0.4079 0.68001 0.0
C3591 C 0.5244 0.39627 0.68767 0.0
C3592 C 0.53621 0.37971 0.68444 0.0
C3593 C 0.53746 0.37454 0.67358 0.0
C3594 C 0.52684 0.3859 0.66593 0.0
C3595 C 0.51504 0.4025 0.66913 0.0
H3596 H 0.54661 0.36172 0.67109 0.0
H3597 H 0.4294 0.51712 0.70666 0.0
H3598 H 0.91016 0.53603 0.21601 0.0
H3599 H 0.94664 0.53008 0.21377 0.0
H3600 H 0.94992 0.5809 0.19192 0.0
H3601 H 0.91327 0.58569 0.19348 0.0
H3602 H 0.98031 0.55755 0.18794 0.0
H3603 H 0.95142 0.58702 0.22023 0.0
H3604 H 0.92953 0.58722 0.23632 0.0
H3605 H 0.96036 0.53444 0.24839 0.0
H3606 H 0.98226 0.53381 0.2323 0.0
H3607 H 0.05913 0.61137 0.22459 0.0
H3608 H 0.02524 0.59893 0.22038 0.0
H3609 H 0.05111 0.55222 0.20021 0.0
H3610 H 0.0852 0.56544 0.20398 0.0
H3611 H 0.00786 0.56595 0.22474 0.0
H3612 H 0.01579 0.53817 0.18113 0.0
H3613 H 0.03638 0.54499 0.16496 0.0
H3614 H 0.04612 0.60638 0.17545 0.0
H3615 H 0.02541 0.59997 0.1916 0.0
C3616 C 0.9186 0.54524 0.21035 0.0
C3617 C 0.90917 0.56146 0.20502 0.0
C3618 C 0.93941 0.54193 0.20911 0.0
C3619 C 0.95114 0.55557 0.20303 0.0
C3620 C 0.94126 0.57028 0.19674 0.0
C3621 C 0.92031 0.57307 0.19765 0.0
C3622 C 0.97334 0.55733 0.20484 0.0
C3623 C 0.98642 0.55912 0.19598 0.0
C3624 C 0.9813 0.55981 0.21533 0.0
C3625 C 0.96826 0.56021 0.22503 0.0
C3626 C 0.95344 0.57541 0.2263 0.0
C3627 C 0.94105 0.5756 0.23541 0.0
C3628 C 0.94352 0.56081 0.24335 0.0
C3629 C 0.95843 0.54585 0.24222 0.0
C3630 C 0.97083 0.54556 0.23311 0.0
C3631 C 0.05759 0.59849 0.21923 0.0
C3632 C 0.07473 0.58935 0.21462 0.0
C3633 C 0.03822 0.59134 0.21684 0.0
C3634 C 0.03557 0.57463 0.20996 0.0
C3635 C 0.05273 0.56533 0.2054 0.0
C3636 C 0.07217 0.57282 0.20759 0.0
C3637 C 0.01474 0.56707 0.20784 0.0
C3638 C 0.00194 0.56394 0.21668 0.0
C3639 C 0.00694 0.56441 0.19733 0.0
C3640 C 0.0193 0.56849 0.18763 0.0
C3641 C 0.02231 0.55312 0.17997 0.0
C3642 C 0.03399 0.55692 0.17081 0.0
C3643 C 0.04262 0.57608 0.16921 0.0
C3644 C 0.03951 0.59151 0.17673 0.0
C3645 C 0.02782 0.5878 0.18589 0.0
H3646 H 0.05167 0.57898 0.16212 0.0
H3647 H 0.93391 0.56098 0.2504 0.0
loop_
_geom_bond_atom_site_label_1
_geom_bond_atom_site_label_2
_geom_bond_distance
_geom_bond_site_symmetry_2
_ccdc_geom_bond_type
Zn0 O3 2.031 . S
Zn0 O5 2.049 . S
Zn0 O10 2.067 . S
Zn1 O2 1.962 . S
Zn1 O4 1.986 . S
Zn1 O6 1.996 . S
Zn1 O9 1.943 . S
O2 Zn1 1.962 . S
O2 C7 1.254 . S
O3 Zn0 2.031 . S
O3 C7 1.269 . S
O4 Zn1 1.986 . S
O4 C11 1.262 . S
O5 Zn0 2.049 . S
O5 C13 1.260 . S
O6 Zn1 1.996 . S
O6 C13 1.257 . S
C7 O2 1.254 . S
C7 O3 1.269 . S
C8 O9 1.249 . S
C8 O10 1.270 . S
O9 Zn1 1.943 . S
O9 C8 1.249 . S
O10 Zn0 2.067 . S
O10 C8 1.270 . S
C11 O4 1.262 . S
C11 O12 1.232 . S
O12 C11 1.232 . S
C13 O5 1.260 . S
C13 O6 1.257 . S
Zn14 O17 2.031 . S
Zn14 O19 2.049 . S
Zn14 O24 2.067 . S
Zn15 O16 1.962 . S
Zn15 O18 1.986 . S
Zn15 O20 1.996 . S
Zn15 O23 1.943 . S
O16 Zn15 1.962 . S
O16 C21 1.254 . S
O17 Zn14 2.031 . S
O17 C21 1.269 . S
O18 Zn15 1.986 . S
O18 C25 1.262 . S
O19 Zn14 2.049 . S
O19 C27 1.260 . S
O20 Zn15 1.996 . S
O20 C27 1.257 . S
C21 O16 1.254 . S
C21 O17 1.269 . S
C22 O23 1.249 . S
C22 O24 1.270 . S
O23 Zn15 1.943 . S
O23 C22 1.249 . S
O24 Zn14 2.067 . S
O24 C22 1.270 . S
C25 O18 1.262 . S
C25 O26 1.232 . S
O26 C25 1.232 . S
C27 O19 1.260 . S
C27 O20 1.257 . S
Zn28 O31 2.031 . S
Zn28 O33 2.049 . S
Zn28 O38 2.067 . S
Zn29 O30 1.962 . S
Zn29 O32 1.986 . S
Zn29 O34 1.996 . S
Zn29 O37 1.943 . S
O30 Zn29 1.962 . S
O30 C35 1.254 . S
O31 Zn28 2.031 . S
O31 C35 1.269 . S
O32 Zn29 1.986 . S
O32 C39 1.262 . S
O33 Zn28 2.049 . S
O33 C41 1.260 . S
O34 Zn29 1.996 . S
O34 C41 1.257 . S
C35 O30 1.254 . S
C35 O31 1.269 . S
C36 O37 1.249 . S
C36 O38 1.270 . S
O37 Zn29 1.943 . S
O37 C36 1.249 . S
O38 Zn28 2.067 . S
O38 C36 1.270 . S
C39 O32 1.262 . S
C39 O40 1.232 . S
O40 C39 1.232 . S
C41 O33 1.260 . S
C41 O34 1.257 . S
Zn42 O45 2.031 . S
Zn42 O47 2.049 . S
Zn42 O52 2.067 . S
Zn43 O44 1.962 . S
Zn43 O46 1.986 . S
Zn43 O48 1.996 . S
Zn43 O51 1.943 . S
O44 Zn43 1.962 . S
O44 C49 1.254 . S
O45 Zn42 2.031 . S
O45 C49 1.269 . S
O46 Zn43 1.986 . S
O46 C53 1.262 . S
O47 Zn42 2.049 . S
O47 C55 1.260 . S
O48 Zn43 1.996 . S
O48 C55 1.257 . S
C49 O44 1.254 . S
C49 O45 1.269 . S
C50 O51 1.249 . S
C50 O52 1.270 . S
O51 Zn43 1.943 . S
O51 C50 1.249 . S
O52 Zn42 2.067 . S
O52 C50 1.270 . S
C53 O46 1.262 . S
C53 O54 1.232 . S
O54 C53 1.232 . S
C55 O47 1.260 . S
C55 O48 1.257 . S
Zn56 O59 2.031 . S
Zn56 O61 2.049 . S
Zn56 O66 2.067 . S
Zn57 O58 1.962 . S
Zn57 O60 1.986 . S
Zn57 O62 1.996 . S
Zn57 O65 1.943 . S
O58 Zn57 1.962 . S
O58 C63 1.254 . S
O59 Zn56 2.031 . S
O59 C63 1.269 . S
O60 Zn57 1.986 . S
O60 C67 1.262 . S
O61 Zn56 2.049 . S
O61 C69 1.260 . S
O62 Zn57 1.996 . S
O62 C69 1.257 . S
C63 O58 1.254 . S
C63 O59 1.269 . S
C64 O65 1.249 . S
C64 O66 1.270 . S
O65 Zn57 1.943 . S
O65 C64 1.249 . S
O66 Zn56 2.067 . S
O66 C64 1.270 . S
C67 O60 1.262 . S
C67 O68 1.232 . S
O68 C67 1.232 . S
C69 O61 1.260 . S
C69 O62 1.257 . S
Zn70 O73 2.031 . S
Zn70 O75 2.049 . S
Zn70 O80 2.067 . S
Zn71 O72 1.962 . S
Zn71 O74 1.986 . S
Zn71 O76 1.996 . S
Zn71 O79 1.943 . S
O72 Zn71 1.962 . S
O72 C77 1.254 . S
O73 Zn70 2.031 . S
O73 C77 1.269 . S
O74 Zn71 1.986 . S
O74 C81 1.262 . S
O75 Zn70 2.049 . S
O75 C83 1.260 . S
O76 Zn71 1.996 . S
O76 C83 1.257 . S
C77 O72 1.254 . S
C77 O73 1.269 . S
C78 O79 1.249 . S
C78 O80 1.270 . S
O79 Zn71 1.943 . S
O79 C78 1.249 . S
O80 Zn70 2.067 . S
O80 C78 1.270 . S
C81 O74 1.262 . S
C81 O82 1.232 . S
O82 C81 1.232 . S
C83 O75 1.260 . S
C83 O76 1.257 . S
Zn84 O87 2.031 . S
Zn84 O89 2.049 . S
Zn84 O94 2.067 . S
Zn85 O86 1.962 . S
Zn85 O88 1.986 . S
Zn85 O90 1.996 . S
Zn85 O93 1.943 . S
O86 Zn85 1.962 . S
O86 C91 1.254 . S
O87 Zn84 2.031 . S
O87 C91 1.269 . S
O88 Zn85 1.986 . S
O88 C95 1.262 . S
O89 Zn84 2.049 . S
O89 C97 1.260 . S
O90 Zn85 1.996 . S
O90 C97 1.257 . S
C91 O86 1.254 . S
C91 O87 1.269 . S
C92 O93 1.249 . S
C92 O94 1.270 . S
O93 Zn85 1.943 . S
O93 C92 1.249 . S
O94 Zn84 2.067 . S
O94 C92 1.270 . S
C95 O88 1.262 . S
C95 O96 1.232 . S
O96 C95 1.232 . S
C97 O89 1.260 . S
C97 O90 1.257 . S
Zn98 O101 2.031 . S
Zn98 O103 2.049 . S
Zn98 O108 2.067 . S
Zn99 O100 1.962 . S
Zn99 O102 1.986 . S
Zn99 O104 1.996 . S
Zn99 O107 1.943 . S
O100 Zn99 1.962 . S
O100 C105 1.254 . S
O101 Zn98 2.031 . S
O101 C105 1.269 . S
O102 Zn99 1.986 . S
O102 C109 1.262 . S
O103 Zn98 2.049 . S
O103 C111 1.260 . S
O104 Zn99 1.996 . S
O104 C111 1.257 . S
C105 O100 1.254 . S
C105 O101 1.269 . S
C106 O107 1.249 . S
C106 O108 1.270 . S
O107 Zn99 1.943 . S
O107 C106 1.249 . S
O108 Zn98 2.067 . S
O108 C106 1.270 . S
C109 O102 1.262 . S
C109 O110 1.232 . S
O110 C109 1.232 . S
C111 O103 1.260 . S
C111 O104 1.257 . S
Zn112 O115 2.031 . S
Zn112 O117 2.049 . S
Zn112 O122 2.067 . S
Zn113 O114 1.962 . S
Zn113 O116 1.986 . S
Zn113 O118 1.996 . S
Zn113 O121 1.943 . S
O114 Zn113 1.962 . S
O114 C119 1.254 . S
O115 Zn112 2.031 . S
O115 C119 1.269 . S
O116 Zn113 1.986 . S
O116 C123 1.262 . S
O117 Zn112 2.049 . S
O117 C125 1.260 . S
O118 Zn113 1.996 . S
O118 C125 1.257 . S
C119 O114 1.254 . S
C119 O115 1.269 . S
C120 O121 1.249 . S
C120 O122 1.270 . S
O121 Zn113 1.943 . S
O121 C120 1.249 . S
O122 Zn112 2.067 . S
O122 C120 1.270 . S
C123 O116 1.262 . S
C123 O124 1.232 . S
O124 C123 1.232 . S
C125 O117 1.260 . S
C125 O118 1.257 . S
Zn126 O129 2.031 . S
Zn126 O131 2.049 . S
Zn126 O136 2.067 . S
Zn127 O128 1.962 . S
Zn127 O130 1.986 . S
Zn127 O132 1.996 . S
Zn127 O135 1.943 . S
O128 Zn127 1.962 . S
O128 C133 1.254 . S
O129 Zn126 2.031 . S
O129 C133 1.269 . S
O130 Zn127 1.986 . S
O130 C137 1.262 . S
O131 Zn126 2.049 . S
O131 C139 1.260 . S
O132 Zn127 1.996 . S
O132 C139 1.257 . S
C133 O128 1.254 . S
C133 O129 1.269 . S
C134 O135 1.249 . S
C134 O136 1.270 . S
O135 Zn127 1.943 . S
O135 C134 1.249 . S
O136 Zn126 2.067 . S
O136 C134 1.270 . S
C137 O130 1.262 . S
C137 O138 1.232 . S
O138 C137 1.232 . S
C139 O131 1.260 . S
C139 O132 1.257 . S
Zn140 O143 2.031 . S
Zn140 O145 2.049 . S
Zn140 O150 2.067 . S
Zn141 O142 1.962 . S
Zn141 O144 1.986 . S
Zn141 O146 1.996 . S
Zn141 O149 1.943 . S
O142 Zn141 1.962 . S
O142 C147 1.254 . S
O143 Zn140 2.031 . S
O143 C147 1.269 . S
O144 Zn141 1.986 . S
O144 C151 1.262 . S
O145 Zn140 2.049 . S
O145 C153 1.260 . S
O146 Zn141 1.996 . S
O146 C153 1.257 . S
C147 O142 1.254 . S
C147 O143 1.269 . S
C148 O149 1.249 . S
C148 O150 1.270 . S
O149 Zn141 1.943 . S
O149 C148 1.249 . S
O150 Zn140 2.067 . S
O150 C148 1.270 . S
C151 O144 1.262 . S
C151 O152 1.232 . S
O152 C151 1.232 . S
C153 O145 1.260 . S
C153 O146 1.257 . S
Zn154 O157 2.031 . S
Zn154 O159 2.049 . S
Zn154 O164 2.067 . S
Zn155 O156 1.962 . S
Zn155 O158 1.986 . S
Zn155 O160 1.996 . S
Zn155 O163 1.943 . S
O156 Zn155 1.962 . S
O156 C161 1.254 . S
O157 Zn154 2.031 . S
O157 C161 1.269 . S
O158 Zn155 1.986 . S
O158 C165 1.262 . S
O159 Zn154 2.049 . S
O159 C167 1.260 . S
O160 Zn155 1.996 . S
O160 C167 1.257 . S
C161 O156 1.254 . S
C161 O157 1.269 . S
C162 O163 1.249 . S
C162 O164 1.270 . S
O163 Zn155 1.943 . S
O163 C162 1.249 . S
O164 Zn154 2.067 . S
O164 C162 1.270 . S
C165 O158 1.262 . S
C165 O166 1.232 . S
O166 C165 1.232 . S
C167 O159 1.260 . S
C167 O160 1.257 . S
Zn168 O171 2.031 . S
Zn168 O173 2.049 . S
Zn168 O178 2.067 . S
Zn169 O170 1.962 . S
Zn169 O172 1.986 . S
Zn169 O174 1.996 . S
Zn169 O177 1.943 . S
O170 Zn169 1.962 . S
O170 C175 1.254 . S
O171 Zn168 2.031 . S
O171 C175 1.269 . S
O172 Zn169 1.986 . S
O172 C179 1.262 . S
O173 Zn168 2.049 . S
O173 C181 1.260 . S
O174 Zn169 1.996 . S
O174 C181 1.257 . S
C175 O170 1.254 . S
C175 O171 1.269 . S
C176 O177 1.249 . S
C176 O178 1.270 . S
O177 Zn169 1.943 . S
O177 C176 1.249 . S
O178 Zn168 2.067 . S
O178 C176 1.270 . S
C179 O172 1.262 . S
C179 O180 1.232 . S
O180 C179 1.232 . S
C181 O173 1.260 . S
C181 O174 1.257 . S
Zn182 O185 2.031 . S
Zn182 O187 2.049 . S
Zn182 O192 2.067 . S
Zn183 O184 1.962 . S
Zn183 O186 1.986 . S
Zn183 O188 1.996 . S
Zn183 O191 1.943 . S
O184 Zn183 1.962 . S
O184 C189 1.254 . S
O185 Zn182 2.031 . S
O185 C189 1.269 . S
O186 Zn183 1.986 . S
O186 C193 1.262 . S
O187 Zn182 2.049 . S
O187 C195 1.260 . S
O188 Zn183 1.996 . S
O188 C195 1.257 . S
C189 O184 1.254 . S
C189 O185 1.269 . S
C190 O191 1.249 . S
C190 O192 1.270 . S
O191 Zn183 1.943 . S
O191 C190 1.249 . S
O192 Zn182 2.067 . S
O192 C190 1.270 . S
C193 O186 1.262 . S
C193 O194 1.232 . S
O194 C193 1.232 . S
C195 O187 1.260 . S
C195 O188 1.257 . S
Zn196 O199 2.031 . S
Zn196 O201 2.049 . S
Zn196 O206 2.067 . S
Zn197 O198 1.962 . S
Zn197 O200 1.986 . S
Zn197 O202 1.996 . S
Zn197 O205 1.943 . S
O198 Zn197 1.962 . S
O198 C203 1.254 . S
O199 Zn196 2.031 . S
O199 C203 1.269 . S
O200 Zn197 1.986 . S
O200 C207 1.262 . S
O201 Zn196 2.049 . S
O201 C209 1.260 . S
O202 Zn197 1.996 . S
O202 C209 1.257 . S
C203 O198 1.254 . S
C203 O199 1.269 . S
C204 O205 1.249 . S
C204 O206 1.270 . S
O205 Zn197 1.943 . S
O205 C204 1.249 . S
O206 Zn196 2.067 . S
O206 C204 1.270 . S
C207 O200 1.262 . S
C207 O208 1.232 . S
O208 C207 1.232 . S
C209 O201 1.260 . S
C209 O202 1.257 . S
Zn210 O213 2.031 . S
Zn210 O215 2.049 . S
Zn210 O220 2.067 . S
Zn211 O212 1.962 . S
Zn211 O214 1.986 . S
Zn211 O216 1.996 . S
Zn211 O219 1.943 . S
O212 Zn211 1.962 . S
O212 C217 1.254 . S
O213 Zn210 2.031 . S
O213 C217 1.269 . S
O214 Zn211 1.986 . S
O214 C221 1.262 . S
O215 Zn210 2.049 . S
O215 C223 1.260 . S
O216 Zn211 1.996 . S
O216 C223 1.257 . S
C217 O212 1.254 . S
C217 O213 1.269 . S
C218 O219 1.249 . S
C218 O220 1.270 . S
O219 Zn211 1.943 . S
O219 C218 1.249 . S
O220 Zn210 2.067 . S
O220 C218 1.270 . S
C221 O214 1.262 . S
C221 O222 1.232 . S
O222 C221 1.232 . S
C223 O215 1.260 . S
C223 O216 1.257 . S
Zn224 O227 2.031 . S
Zn224 O229 2.049 . S
Zn224 O234 2.067 . S
Zn225 O226 1.962 . S
Zn225 O228 1.986 . S
Zn225 O230 1.996 . S
Zn225 O233 1.943 . S
O226 Zn225 1.962 . S
O226 C231 1.254 . S
O227 Zn224 2.031 . S
O227 C231 1.269 . S
O228 Zn225 1.986 . S
O228 C235 1.262 . S
O229 Zn224 2.049 . S
O229 C237 1.260 . S
O230 Zn225 1.996 . S
O230 C237 1.257 . S
C231 O226 1.254 . S
C231 O227 1.269 . S
C232 O233 1.249 . S
C232 O234 1.270 . S
O233 Zn225 1.943 . S
O233 C232 1.249 . S
O234 Zn224 2.067 . S
O234 C232 1.270 . S
C235 O228 1.262 . S
C235 O236 1.232 . S
O236 C235 1.232 . S
C237 O229 1.260 . S
C237 O230 1.257 . S
Zn238 O241 2.031 . S
Zn238 O243 2.049 . S
Zn238 O248 2.067 . S
Zn239 O240 1.962 . S
Zn239 O242 1.986 . S
Zn239 O244 1.996 . S
Zn239 O247 1.943 . S
O240 Zn239 1.962 . S
O240 C245 1.254 . S
O241 Zn238 2.031 . S
O241 C245 1.269 . S
O242 Zn239 1.986 . S
O242 C249 1.262 . S
O243 Zn238 2.049 . S
O243 C251 1.260 . S
O244 Zn239 1.996 . S
O244 C251 1.257 . S
C245 O240 1.254 . S
C245 O241 1.269 . S
C246 O247 1.249 . S
C246 O248 1.270 . S
O247 Zn239 1.943 . S
O247 C246 1.249 . S
O248 Zn238 2.067 . S
O248 C246 1.270 . S
C249 O242 1.262 . S
C249 O250 1.232 . S
O250 C249 1.232 . S
C251 O243 1.260 . S
C251 O244 1.257 . S
Zn252 O255 2.031 . S
Zn252 O257 2.049 . S
Zn252 O262 2.067 . S
Zn253 O254 1.962 . S
Zn253 O256 1.986 . S
Zn253 O258 1.996 . S
Zn253 O261 1.943 . S
O254 Zn253 1.962 . S
O254 C259 1.254 . S
O255 Zn252 2.031 . S
O255 C259 1.269 . S
O256 Zn253 1.986 . S
O256 C263 1.262 . S
O257 Zn252 2.049 . S
O257 C265 1.260 . S
O258 Zn253 1.996 . S
O258 C265 1.257 . S
C259 O254 1.254 . S
C259 O255 1.269 . S
C260 O261 1.249 . S
C260 O262 1.270 . S
O261 Zn253 1.943 . S
O261 C260 1.249 . S
O262 Zn252 2.067 . S
O262 C260 1.270 . S
C263 O256 1.262 . S
C263 O264 1.232 . S
O264 C263 1.232 . S
C265 O257 1.260 . S
C265 O258 1.257 . S
Zn266 O269 2.031 . S
Zn266 O271 2.049 . S
Zn266 O276 2.067 . S
Zn267 O268 1.962 . S
Zn267 O270 1.986 . S
Zn267 O272 1.996 . S
Zn267 O275 1.943 . S
O268 Zn267 1.962 . S
O268 C273 1.254 . S
O269 Zn266 2.031 . S
O269 C273 1.269 . S
O270 Zn267 1.986 . S
O270 C277 1.262 . S
O271 Zn266 2.049 . S
O271 C279 1.260 . S
O272 Zn267 1.996 . S
O272 C279 1.257 . S
C273 O268 1.254 . S
C273 O269 1.269 . S
C274 O275 1.249 . S
C274 O276 1.270 . S
O275 Zn267 1.943 . S
O275 C274 1.249 . S
O276 Zn266 2.067 . S
O276 C274 1.270 . S
C277 O270 1.262 . S
C277 O278 1.232 . S
O278 C277 1.232 . S
C279 O271 1.260 . S
C279 O272 1.257 . S
Zn280 O283 2.031 . S
Zn280 O285 2.049 . S
Zn280 O290 2.067 . S
Zn281 O282 1.962 . S
Zn281 O284 1.986 . S
Zn281 O286 1.996 . S
Zn281 O289 1.943 . S
O282 Zn281 1.962 . S
O282 C287 1.254 . S
O283 Zn280 2.031 . S
O283 C287 1.269 . S
O284 Zn281 1.986 . S
O284 C291 1.262 . S
O285 Zn280 2.049 . S
O285 C293 1.260 . S
O286 Zn281 1.996 . S
O286 C293 1.257 . S
C287 O282 1.254 . S
C287 O283 1.269 . S
C288 O289 1.249 . S
C288 O290 1.270 . S
O289 Zn281 1.943 . S
O289 C288 1.249 . S
O290 Zn280 2.067 . S
O290 C288 1.270 . S
C291 O284 1.262 . S
C291 O292 1.232 . S
O292 C291 1.232 . S
C293 O285 1.260 . S
C293 O286 1.257 . S
Zn294 O297 2.031 . S
Zn294 O299 2.049 . S
Zn294 O304 2.067 . S
Zn295 O296 1.962 . S
Zn295 O298 1.986 . S
Zn295 O300 1.996 . S
Zn295 O303 1.943 . S
O296 Zn295 1.962 . S
O296 C301 1.254 . S
O297 Zn294 2.031 . S
O297 C301 1.269 . S
O298 Zn295 1.986 . S
O298 C305 1.262 . S
O299 Zn294 2.049 . S
O299 C307 1.260 . S
O300 Zn295 1.996 . S
O300 C307 1.257 . S
C301 O296 1.254 . S
C301 O297 1.269 . S
C302 O303 1.249 . S
C302 O304 1.270 . S
O303 Zn295 1.943 . S
O303 C302 1.249 . S
O304 Zn294 2.067 . S
O304 C302 1.270 . S
C305 O298 1.262 . S
C305 O306 1.232 . S
O306 C305 1.232 . S
C307 O299 1.260 . S
C307 O300 1.257 . S
Zn308 O311 2.031 . S
Zn308 O313 2.049 . S
Zn308 O318 2.067 . S
Zn309 O310 1.962 . S
Zn309 O312 1.986 . S
Zn309 O314 1.996 . S
Zn309 O317 1.943 . S
O310 Zn309 1.962 . S
O310 C315 1.254 . S
O311 Zn308 2.031 . S
O311 C315 1.269 . S
O312 Zn309 1.986 . S
O312 C319 1.262 . S
O313 Zn308 2.049 . S
O313 C321 1.260 . S
O314 Zn309 1.996 . S
O314 C321 1.257 . S
C315 O310 1.254 . S
C315 O311 1.269 . S
C316 O317 1.249 . S
C316 O318 1.270 . S
O317 Zn309 1.943 . S
O317 C316 1.249 . S
O318 Zn308 2.067 . S
O318 C316 1.270 . S
C319 O312 1.262 . S
C319 O320 1.232 . S
O320 C319 1.232 . S
C321 O313 1.260 . S
C321 O314 1.257 . S
Zn322 O325 2.031 . S
Zn322 O327 2.049 . S
Zn322 O332 2.067 . S
Zn323 O324 1.962 . S
Zn323 O326 1.986 . S
Zn323 O328 1.996 . S
Zn323 O331 1.943 . S
O324 Zn323 1.962 . S
O324 C329 1.254 . S
O325 Zn322 2.031 . S
O325 C329 1.269 . S
O326 Zn323 1.986 . S
O326 C333 1.262 . S
O327 Zn322 2.049 . S
O327 C335 1.260 . S
O328 Zn323 1.996 . S
O328 C335 1.257 . S
C329 O324 1.254 . S
C329 O325 1.269 . S
C330 O331 1.249 . S
C330 O332 1.270 . S
O331 Zn323 1.943 . S
O331 C330 1.249 . S
O332 Zn322 2.067 . S
O332 C330 1.270 . S
C333 O326 1.262 . S
C333 O334 1.232 . S
O334 C333 1.232 . S
C335 O327 1.260 . S
C335 O328 1.257 . S
Zn336 O339 2.031 . S
Zn336 O341 2.049 . S
Zn336 O346 2.067 . S
Zn337 O338 1.962 . S
Zn337 O340 1.986 . S
Zn337 O342 1.996 . S
Zn337 O345 1.943 . S
O338 Zn337 1.962 . S
O338 C343 1.254 . S
O339 Zn336 2.031 . S
O339 C343 1.269 . S
O340 Zn337 1.986 . S
O340 C347 1.262 . S
O341 Zn336 2.049 . S
O341 C349 1.260 . S
O342 Zn337 1.996 . S
O342 C349 1.257 . S
C343 O338 1.254 . S
C343 O339 1.269 . S
C344 O345 1.249 . S
C344 O346 1.270 . S
O345 Zn337 1.943 . S
O345 C344 1.249 . S
O346 Zn336 2.067 . S
O346 C344 1.270 . S
C347 O340 1.262 . S
C347 O348 1.232 . S
O348 C347 1.232 . S
C349 O341 1.260 . S
C349 O342 1.257 . S
Zn350 O353 2.031 . S
Zn350 O355 2.049 . S
Zn350 O360 2.067 . S
Zn351 O352 1.962 . S
Zn351 O354 1.986 . S
Zn351 O356 1.996 . S
Zn351 O359 1.943 . S
O352 Zn351 1.962 . S
O352 C357 1.254 . S
O353 Zn350 2.031 . S
O353 C357 1.269 . S
O354 Zn351 1.986 . S
O354 C361 1.262 . S
O355 Zn350 2.049 . S
O355 C363 1.260 . S
O356 Zn351 1.996 . S
O356 C363 1.257 . S
C357 O352 1.254 . S
C357 O353 1.269 . S
C358 O359 1.249 . S
C358 O360 1.270 . S
O359 Zn351 1.943 . S
O359 C358 1.249 . S
O360 Zn350 2.067 . S
O360 C358 1.270 . S
C361 O354 1.262 . S
C361 O362 1.232 . S
O362 C361 1.232 . S
C363 O355 1.260 . S
C363 O356 1.257 . S
Zn364 O367 2.031 . S
Zn364 O369 2.049 . S
Zn364 O374 2.067 . S
Zn365 O366 1.962 . S
Zn365 O368 1.986 . S
Zn365 O370 1.996 . S
Zn365 O373 1.943 . S
O366 Zn365 1.962 . S
O366 C371 1.254 . S
O367 Zn364 2.031 . S
O367 C371 1.269 . S
O368 Zn365 1.986 . S
O368 C375 1.262 . S
O369 Zn364 2.049 . S
O369 C377 1.260 . S
O370 Zn365 1.996 . S
O370 C377 1.257 . S
C371 O366 1.254 . S
C371 O367 1.269 . S
C372 O373 1.249 . S
C372 O374 1.270 . S
O373 Zn365 1.943 . S
O373 C372 1.249 . S
O374 Zn364 2.067 . S
O374 C372 1.270 . S
C375 O368 1.262 . S
C375 O376 1.232 . S
O376 C375 1.232 . S
C377 O369 1.260 . S
C377 O370 1.257 . S
Zn378 O381 2.031 . S
Zn378 O383 2.049 . S
Zn378 O388 2.067 . S
Zn379 O380 1.962 . S
Zn379 O382 1.986 . S
Zn379 O384 1.996 . S
Zn379 O387 1.943 . S
O380 Zn379 1.962 . S
O380 C385 1.254 . S
O381 Zn378 2.031 . S
O381 C385 1.269 . S
O382 Zn379 1.986 . S
O382 C389 1.262 . S
O383 Zn378 2.049 . S
O383 C391 1.260 . S
O384 Zn379 1.996 . S
O384 C391 1.257 . S
C385 O380 1.254 . S
C385 O381 1.269 . S
C386 O387 1.249 . S
C386 O388 1.270 . S
O387 Zn379 1.943 . S
O387 C386 1.249 . S
O388 Zn378 2.067 . S
O388 C386 1.270 . S
C389 O382 1.262 . S
C389 O390 1.232 . S
O390 C389 1.232 . S
C391 O383 1.260 . S
C391 O384 1.257 . S
Zn392 O395 2.031 . S
Zn392 O397 2.049 . S
Zn392 O402 2.067 . S
Zn393 O394 1.962 . S
Zn393 O396 1.986 . S
Zn393 O398 1.996 . S
Zn393 O401 1.943 . S
O394 Zn393 1.962 . S
O394 C399 1.254 . S
O395 Zn392 2.031 . S
O395 C399 1.269 . S
O396 Zn393 1.986 . S
O396 C403 1.262 . S
O397 Zn392 2.049 . S
O397 C405 1.260 . S
O398 Zn393 1.996 . S
O398 C405 1.257 . S
C399 O394 1.254 . S
C399 O395 1.269 . S
C400 O401 1.249 . S
C400 O402 1.270 . S
O401 Zn393 1.943 . S
O401 C400 1.249 . S
O402 Zn392 2.067 . S
O402 C400 1.270 . S
C403 O396 1.262 . S
C403 O404 1.232 . S
O404 C403 1.232 . S
C405 O397 1.260 . S
C405 O398 1.257 . S
Zn406 O409 2.031 . S
Zn406 O411 2.049 . S
Zn406 O416 2.067 . S
Zn407 O408 1.962 . S
Zn407 O410 1.986 . S
Zn407 O412 1.996 . S
Zn407 O415 1.943 . S
O408 Zn407 1.962 . S
O408 C413 1.254 . S
O409 Zn406 2.031 . S
O409 C413 1.269 . S
O410 Zn407 1.986 . S
O410 C417 1.262 . S
O411 Zn406 2.049 . S
O411 C419 1.260 . S
O412 Zn407 1.996 . S
O412 C419 1.257 . S
C413 O408 1.254 . S
C413 O409 1.269 . S
C414 O415 1.249 . S
C414 O416 1.270 . S
O415 Zn407 1.943 . S
O415 C414 1.249 . S
O416 Zn406 2.067 . S
O416 C414 1.270 . S
C417 O410 1.262 . S
C417 O418 1.232 . S
O418 C417 1.232 . S
C419 O411 1.260 . S
C419 O412 1.257 . S
Zn420 O423 2.031 . S
Zn420 O425 2.049 . S
Zn420 O430 2.067 . S
Zn421 O422 1.962 . S
Zn421 O424 1.986 . S
Zn421 O426 1.996 . S
Zn421 O429 1.943 . S
O422 Zn421 1.962 . S
O422 C427 1.254 . S
O423 Zn420 2.031 . S
O423 C427 1.269 . S
O424 Zn421 1.986 . S
O424 C431 1.262 . S
O425 Zn420 2.049 . S
O425 C433 1.260 . S
O426 Zn421 1.996 . S
O426 C433 1.257 . S
C427 O422 1.254 . S
C427 O423 1.269 . S
C428 O429 1.249 . S
C428 O430 1.270 . S
O429 Zn421 1.943 . S
O429 C428 1.249 . S
O430 Zn420 2.067 . S
O430 C428 1.270 . S
C431 O424 1.262 . S
C431 O432 1.232 . S
O432 C431 1.232 . S
C433 O425 1.260 . S
C433 O426 1.257 . S
Zn434 O437 2.031 . S
Zn434 O439 2.049 . S
Zn434 O444 2.067 . S
Zn435 O436 1.962 . S
Zn435 O438 1.986 . S
Zn435 O440 1.996 . S
Zn435 O443 1.943 . S
O436 Zn435 1.962 . S
O436 C441 1.254 . S
O437 Zn434 2.031 . S
O437 C441 1.269 . S
O438 Zn435 1.986 . S
O438 C445 1.262 . S
O439 Zn434 2.049 . S
O439 C447 1.260 . S
O440 Zn435 1.996 . S
O440 C447 1.257 . S
C441 O436 1.254 . S
C441 O437 1.269 . S
C442 O443 1.249 . S
C442 O444 1.270 . S
O443 Zn435 1.943 . S
O443 C442 1.249 . S
O444 Zn434 2.067 . S
O444 C442 1.270 . S
C445 O438 1.262 . S
C445 O446 1.232 . S
O446 C445 1.232 . S
C447 O439 1.260 . S
C447 O440 1.257 . S
H448 C466 0.951 . S
H449 C468 0.951 . S
H450 C470 0.950 . S
H451 C471 0.950 . S
H452 C473 0.950 . S
H453 C476 0.950 . S
H454 C477 0.950 . S
H455 C479 0.950 . S
H456 C480 0.950 . S
H457 C481 0.951 . S
H458 C483 0.951 . S
H459 C485 0.950 . S
H460 C486 0.950 . S
H461 C488 0.950 . S
H462 C491 0.950 . S
H463 C492 0.950 . S
H464 C494 0.950 . S
H465 C495 0.950 . S
C466 H448 0.951 . S
C466 C467 1.366 . S
C466 C468 1.388 . S
C467 C466 1.366 . S
C467 C471 1.385 . S
C468 H449 0.951 . S
C468 C466 1.388 . S
C468 C469 1.366 . S
C469 C468 1.366 . S
C469 C470 1.414 . S
C469 C472 1.499 . S
C470 H450 0.950 . S
C470 C469 1.414 . S
C470 C471 1.374 . S
C471 H451 0.950 . S
C471 C467 1.385 . S
C471 C470 1.374 . S
C472 C469 1.499 . S
C472 C473 1.373 . S
C472 C474 1.389 . S
C473 H452 0.950 . S
C473 C472 1.373 . S
C473 C489 1.377 . S
C474 C472 1.389 . S
C474 C475 1.524 . S
C474 C488 1.377 . S
C475 C474 1.524 . S
C475 C476 1.397 . S
C475 C480 1.363 . S
C476 H453 0.950 . S
C476 C475 1.397 . S
C476 C477 1.334 . S
C477 H454 0.950 . S
C477 C476 1.334 . S
C477 C478 1.287 . S
C478 C477 1.287 . S
C478 C479 1.524 . S
C478 H497 0.913 . S
C479 H455 0.950 . S
C479 C478 1.524 . S
C479 C480 1.415 . S
C480 H456 0.950 . S
C480 C475 1.363 . S
C480 C479 1.415 . S
C481 H457 0.951 . S
C481 C482 1.366 . S
C481 C483 1.388 . S
C482 C481 1.366 . S
C482 C486 1.385 . S
C483 H458 0.951 . S
C483 C481 1.388 . S
C483 C484 1.366 . S
C484 C483 1.366 . S
C484 C485 1.414 . S
C484 C487 1.499 . S
C485 H459 0.950 . S
C485 C484 1.414 . S
C485 C486 1.374 . S
C486 H460 0.950 . S
C486 C482 1.385 . S
C486 C485 1.374 . S
C487 C484 1.499 . S
C487 C488 1.373 . S
C487 C489 1.389 . S
C488 H461 0.950 . S
C488 C474 1.377 . S
C488 C487 1.373 . S
C489 C473 1.377 . S
C489 C487 1.389 . S
C489 C490 1.524 . S
C490 C489 1.524 . S
C490 C491 1.397 . S
C490 C495 1.363 . S
C491 H462 0.950 . S
C491 C490 1.397 . S
C491 C492 1.334 . S
C492 H463 0.950 . S
C492 C491 1.334 . S
C492 C493 1.287 . S
C493 C492 1.287 . S
C493 C494 1.524 . S
C493 H496 0.999 . S
C494 H464 0.950 . S
C494 C493 1.524 . S
C494 C495 1.415 . S
C495 H465 0.950 . S
C495 C490 1.363 . S
C495 C494 1.415 . S
H496 C493 0.999 . S
H497 C478 0.913 . S
H498 C516 0.951 . S
H499 C518 0.951 . S
H500 C520 0.950 . S
H501 C521 0.950 . S
H502 C523 0.950 . S
H503 C526 0.950 . S
H504 C527 0.950 . S
H505 C529 0.950 . S
H506 C530 0.950 . S
H507 C531 0.951 . S
H508 C533 0.951 . S
H509 C535 0.950 . S
H510 C536 0.950 . S
H511 C538 0.950 . S
H512 C541 0.950 . S
H513 C542 0.950 . S
H514 C544 0.950 . S
H515 C545 0.950 . S
C516 H498 0.951 . S
C516 C517 1.366 . S
C516 C518 1.388 . S
C517 C516 1.366 . S
C517 C521 1.385 . S
C518 H499 0.951 . S
C518 C516 1.388 . S
C518 C519 1.366 . S
C519 C518 1.366 . S
C519 C520 1.414 . S
C519 C522 1.499 . S
C520 H500 0.950 . S
C520 C519 1.414 . S
C520 C521 1.374 . S
C521 H501 0.950 . S
C521 C517 1.385 . S
C521 C520 1.374 . S
C522 C519 1.499 . S
C522 C523 1.373 . S
C522 C524 1.389 . S
C523 H502 0.950 . S
C523 C522 1.373 . S
C523 C539 1.377 . S
C524 C522 1.389 . S
C524 C525 1.524 . S
C524 C538 1.377 . S
C525 C524 1.524 . S
C525 C526 1.397 . S
C525 C530 1.363 . S
C526 H503 0.950 . S
C526 C525 1.397 . S
C526 C527 1.334 . S
C527 H504 0.950 . S
C527 C526 1.334 . S
C527 C528 1.287 . S
C528 C527 1.287 . S
C528 C529 1.524 . S
C528 H547 0.913 . S
C529 H505 0.950 . S
C529 C528 1.524 . S
C529 C530 1.415 . S
C530 H506 0.950 . S
C530 C525 1.363 . S
C530 C529 1.415 . S
C531 H507 0.951 . S
C531 C532 1.366 . S
C531 C533 1.388 . S
C532 C531 1.366 . S
C532 C536 1.385 . S
C533 H508 0.951 . S
C533 C531 1.388 . S
C533 C534 1.366 . S
C534 C533 1.366 . S
C534 C535 1.414 . S
C534 C537 1.499 . S
C535 H509 0.950 . S
C535 C534 1.414 . S
C535 C536 1.374 . S
C536 H510 0.950 . S
C536 C532 1.385 . S
C536 C535 1.374 . S
C537 C534 1.499 . S
C537 C538 1.373 . S
C537 C539 1.389 . S
C538 H511 0.950 . S
C538 C524 1.377 . S
C538 C537 1.373 . S
C539 C523 1.377 . S
C539 C537 1.389 . S
C539 C540 1.524 . S
C540 C539 1.524 . S
C540 C541 1.397 . S
C540 C545 1.363 . S
C541 H512 0.950 . S
C541 C540 1.397 . S
C541 C542 1.334 . S
C542 H513 0.950 . S
C542 C541 1.334 . S
C542 C543 1.287 . S
C543 C542 1.287 . S
C543 C544 1.524 . S
C543 H546 0.999 . S
C544 H514 0.950 . S
C544 C543 1.524 . S
C544 C545 1.415 . S
C545 H515 0.950 . S
C545 C540 1.363 . S
C545 C544 1.415 . S
H546 C543 0.999 . S
H547 C528 0.913 . S
H548 C566 0.951 . S
H549 C568 0.951 . S
H550 C570 0.950 . S
H551 C571 0.950 . S
H552 C573 0.950 . S
H553 C576 0.950 . S
H554 C577 0.950 . S
H555 C579 0.950 . S
H556 C580 0.950 . S
H557 C581 0.951 . S
H558 C583 0.951 . S
H559 C585 0.950 . S
H560 C586 0.950 . S
H561 C588 0.950 . S
H562 C591 0.950 . S
H563 C592 0.950 . S
H564 C594 0.950 . S
H565 C595 0.950 . S
C566 H548 0.951 . S
C566 C567 1.366 . S
C566 C568 1.388 . S
C567 C566 1.366 . S
C567 C571 1.385 . S
C568 H549 0.951 . S
C568 C566 1.388 . S
C568 C569 1.366 . S
C569 C568 1.366 . S
C569 C570 1.414 . S
C569 C572 1.499 . S
C570 H550 0.950 . S
C570 C569 1.414 . S
C570 C571 1.374 . S
C571 H551 0.950 . S
C571 C567 1.385 . S
C571 C570 1.374 . S
C572 C569 1.499 . S
C572 C573 1.373 . S
C572 C574 1.389 . S
C573 H552 0.950 . S
C573 C572 1.373 . S
C573 C589 1.377 . S
C574 C572 1.389 . S
C574 C575 1.524 . S
C574 C588 1.377 . S
C575 C574 1.524 . S
C575 C576 1.397 . S
C575 C580 1.363 . S
C576 H553 0.950 . S
C576 C575 1.397 . S
C576 C577 1.334 . S
C577 H554 0.950 . S
C577 C576 1.334 . S
C577 C578 1.287 . S
C578 C577 1.287 . S
C578 C579 1.524 . S
C578 H597 0.913 . S
C579 H555 0.950 . S
C579 C578 1.524 . S
C579 C580 1.415 . S
C580 H556 0.950 . S
C580 C575 1.363 . S
C580 C579 1.415 . S
C581 H557 0.951 . S
C581 C582 1.366 . S
C581 C583 1.388 . S
C582 C581 1.366 . S
C582 C586 1.385 . S
C583 H558 0.951 . S
C583 C581 1.388 . S
C583 C584 1.366 . S
C584 C583 1.366 . S
C584 C585 1.414 . S
C584 C587 1.499 . S
C585 H559 0.950 . S
C585 C584 1.414 . S
C585 C586 1.374 . S
C586 H560 0.950 . S
C586 C582 1.385 . S
C586 C585 1.374 . S
C587 C584 1.499 . S
C587 C588 1.373 . S
C587 C589 1.389 . S
C588 H561 0.950 . S
C588 C574 1.377 . S
C588 C587 1.373 . S
C589 C573 1.377 . S
C589 C587 1.389 . S
C589 C590 1.524 . S
C590 C589 1.524 . S
C590 C591 1.397 . S
C590 C595 1.363 . S
C591 H562 0.950 . S
C591 C590 1.397 . S
C591 C592 1.334 . S
C592 H563 0.950 . S
C592 C591 1.334 . S
C592 C593 1.287 . S
C593 C592 1.287 . S
C593 C594 1.524 . S
C593 H596 0.999 . S
C594 H564 0.950 . S
C594 C593 1.524 . S
C594 C595 1.415 . S
C595 H565 0.950 . S
C595 C590 1.363 . S
C595 C594 1.415 . S
H596 C593 0.999 . S
H597 C578 0.913 . S
H598 C616 0.951 . S
H599 C618 0.951 . S
H600 C620 0.950 . S
H601 C621 0.950 . S
H602 C623 0.950 . S
H603 C626 0.950 . S
H604 C627 0.950 . S
H605 C629 0.950 . S
H606 C630 0.950 . S
H607 C631 0.951 . S
H608 C633 0.951 . S
H609 C635 0.950 . S
H610 C636 0.950 . S
H611 C638 0.950 . S
H612 C641 0.950 . S
H613 C642 0.950 . S
H614 C644 0.950 . S
H615 C645 0.950 . S
C616 H598 0.951 . S
C616 C617 1.366 . S
C616 C618 1.388 . S
C617 C616 1.366 . S
C617 C621 1.385 . S
C618 H599 0.951 . S
C618 C616 1.388 . S
C618 C619 1.366 . S
C619 C618 1.366 . S
C619 C620 1.414 . S
C619 C622 1.499 . S
C620 H600 0.950 . S
C620 C619 1.414 . S
C620 C621 1.374 . S
C621 H601 0.950 . S
C621 C617 1.385 . S
C621 C620 1.374 . S
C622 C619 1.499 . S
C622 C623 1.373 . S
C622 C624 1.389 . S
C623 H602 0.950 . S
C623 C622 1.373 . S
C623 C639 1.377 . S
C624 C622 1.389 . S
C624 C625 1.524 . S
C624 C638 1.377 . S
C625 C624 1.524 . S
C625 C626 1.397 . S
C625 C630 1.363 . S
C626 H603 0.950 . S
C626 C625 1.397 . S
C626 C627 1.334 . S
C627 H604 0.950 . S
C627 C626 1.334 . S
C627 C628 1.287 . S
C628 C627 1.287 . S
C628 C629 1.524 . S
C628 H647 0.913 . S
C629 H605 0.950 . S
C629 C628 1.524 . S
C629 C630 1.415 . S
C630 H606 0.950 . S
C630 C625 1.363 . S
C630 C629 1.415 . S
C631 H607 0.951 . S
C631 C632 1.366 . S
C631 C633 1.388 . S
C632 C631 1.366 . S
C632 C636 1.385 . S
C633 H608 0.951 . S
C633 C631 1.388 . S
C633 C634 1.366 . S
C634 C633 1.366 . S
C634 C635 1.414 . S
C634 C637 1.499 . S
C635 H609 0.950 . S
C635 C634 1.414 . S
C635 C636 1.374 . S
C636 H610 0.950 . S
C636 C632 1.385 . S
C636 C635 1.374 . S
C637 C634 1.499 . S
C637 C638 1.373 . S
C637 C639 1.389 . S
C638 H611 0.950 . S
C638 C624 1.377 . S
C638 C637 1.373 . S
C639 C623 1.377 . S
C639 C637 1.389 . S
C639 C640 1.524 . S
C640 C639 1.524 . S
C640 C641 1.397 . S
C640 C645 1.363 . S
C641 H612 0.950 . S
C641 C640 1.397 . S
C641 C642 1.334 . S
C642 H613 0.950 . S
C642 C641 1.334 . S
C642 C643 1.287 . S
C643 C642 1.287 . S
C643 C644 1.524 . S
C643 H646 0.999 . S
C644 H614 0.950 . S
C644 C643 1.524 . S
C644 C645 1.415 . S
C645 H615 0.950 . S
C645 C640 1.363 . S
C645 C644 1.415 . S
H646 C643 0.999 . S
H647 C628 0.913 . S
H648 C666 0.951 . S
H649 C668 0.951 . S
H650 C670 0.950 . S
H651 C671 0.950 . S
H652 C673 0.950 . S
H653 C676 0.950 . S
H654 C677 0.950 . S
H655 C679 0.950 . S
H656 C680 0.950 . S
H657 C681 0.951 . S
H658 C683 0.951 . S
H659 C685 0.950 . S
H660 C686 0.950 . S
H661 C688 0.950 . S
H662 C691 0.950 . S
H663 C692 0.950 . S
H664 C694 0.950 . S
H665 C695 0.950 . S
C666 H648 0.951 . S
C666 C667 1.366 . S
C666 C668 1.388 . S
C667 C666 1.366 . S
C667 C671 1.385 . S
C668 H649 0.951 . S
C668 C666 1.388 . S
C668 C669 1.366 . S
C669 C668 1.366 . S
C669 C670 1.414 . S
C669 C672 1.499 . S
C670 H650 0.950 . S
C670 C669 1.414 . S
C670 C671 1.374 . S
C671 H651 0.950 . S
C671 C667 1.385 . S
C671 C670 1.374 . S
C672 C669 1.499 . S
C672 C673 1.373 . S
C672 C674 1.389 . S
C673 H652 0.950 . S
C673 C672 1.373 . S
C673 C689 1.377 . S
C674 C672 1.389 . S
C674 C675 1.524 . S
C674 C688 1.377 . S
C675 C674 1.524 . S
C675 C676 1.397 . S
C675 C680 1.363 . S
C676 H653 0.950 . S
C676 C675 1.397 . S
C676 C677 1.334 . S
C677 H654 0.950 . S
C677 C676 1.334 . S
C677 C678 1.287 . S
C678 C677 1.287 . S
C678 C679 1.524 . S
C678 H697 0.913 . S
C679 H655 0.950 . S
C679 C678 1.524 . S
C679 C680 1.415 . S
C680 H656 0.950 . S
C680 C675 1.363 . S
C680 C679 1.415 . S
C681 H657 0.951 . S
C681 C682 1.366 . S
C681 C683 1.388 . S
C682 C681 1.366 . S
C682 C686 1.385 . S
C683 H658 0.951 . S
C683 C681 1.388 . S
C683 C684 1.366 . S
C684 C683 1.366 . S
C684 C685 1.414 . S
C684 C687 1.499 . S
C685 H659 0.950 . S
C685 C684 1.414 . S
C685 C686 1.374 . S
C686 H660 0.950 . S
C686 C682 1.385 . S
C686 C685 1.374 . S
C687 C684 1.499 . S
C687 C688 1.373 . S
C687 C689 1.389 . S
C688 H661 0.950 . S
C688 C674 1.377 . S
C688 C687 1.373 . S
C689 C673 1.377 . S
C689 C687 1.389 . S
C689 C690 1.524 . S
C690 C689 1.524 . S
C690 C691 1.397 . S
C690 C695 1.363 . S
C691 H662 0.950 . S
C691 C690 1.397 . S
C691 C692 1.334 . S
C692 H663 0.950 . S
C692 C691 1.334 . S
C692 C693 1.287 . S
C693 C692 1.287 . S
C693 C694 1.524 . S
C693 H696 0.999 . S
C694 H664 0.950 . S
C694 C693 1.524 . S
C694 C695 1.415 . S
C695 H665 0.950 . S
C695 C690 1.363 . S
C695 C694 1.415 . S
H696 C693 0.999 . S
H697 C678 0.913 . S
H698 C716 0.951 . S
H699 C718 0.951 . S
H700 C720 0.950 . S
H701 C721 0.950 . S
H702 C723 0.950 . S
H703 C726 0.950 . S
H704 C727 0.950 . S
H705 C729 0.950 . S
H706 C730 0.950 . S
H707 C731 0.951 . S
H708 C733 0.951 . S
H709 C735 0.950 . S
H710 C736 0.950 . S
H711 C738 0.950 . S
H712 C741 0.950 . S
H713 C742 0.950 . S
H714 C744 0.950 . S
H715 C745 0.950 . S
C716 H698 0.951 . S
C716 C717 1.366 . S
C716 C718 1.388 . S
C717 C716 1.366 . S
C717 C721 1.385 . S
C718 H699 0.951 . S
C718 C716 1.388 . S
C718 C719 1.366 . S
C719 C718 1.366 . S
C719 C720 1.414 . S
C719 C722 1.499 . S
C720 H700 0.950 . S
C720 C719 1.414 . S
C720 C721 1.374 . S
C721 H701 0.950 . S
C721 C717 1.385 . S
C721 C720 1.374 . S
C722 C719 1.499 . S
C722 C723 1.373 . S
C722 C724 1.389 . S
C723 H702 0.950 . S
C723 C722 1.373 . S
C723 C739 1.377 . S
C724 C722 1.389 . S
C724 C725 1.524 . S
C724 C738 1.377 . S
C725 C724 1.524 . S
C725 C726 1.397 . S
C725 C730 1.363 . S
C726 H703 0.950 . S
C726 C725 1.397 . S
C726 C727 1.334 . S
C727 H704 0.950 . S
C727 C726 1.334 . S
C727 C728 1.287 . S
C728 C727 1.287 . S
C728 C729 1.524 . S
C728 H747 0.913 . S
C729 H705 0.950 . S
C729 C728 1.524 . S
C729 C730 1.415 . S
C730 H706 0.950 . S
C730 C725 1.363 . S
C730 C729 1.415 . S
C731 H707 0.951 . S
C731 C732 1.366 . S
C731 C733 1.388 . S
C732 C731 1.366 . S
C732 C736 1.385 . S
C733 H708 0.951 . S
C733 C731 1.388 . S
C733 C734 1.366 . S
C734 C733 1.366 . S
C734 C735 1.414 . S
C734 C737 1.499 . S
C735 H709 0.950 . S
C735 C734 1.414 . S
C735 C736 1.374 . S
C736 H710 0.950 . S
C736 C732 1.385 . S
C736 C735 1.374 . S
C737 C734 1.499 . S
C737 C738 1.373 . S
C737 C739 1.389 . S
C738 H711 0.950 . S
C738 C724 1.377 . S
C738 C737 1.373 . S
C739 C723 1.377 . S
C739 C737 1.389 . S
C739 C740 1.524 . S
C740 C739 1.524 . S
C740 C741 1.397 . S
C740 C745 1.363 . S
C741 H712 0.950 . S
C741 C740 1.397 . S
C741 C742 1.334 . S
C742 H713 0.950 . S
C742 C741 1.334 . S
C742 C743 1.287 . S
C743 C742 1.287 . S
C743 C744 1.524 . S
C743 H746 0.999 . S
C744 H714 0.950 . S
C744 C743 1.524 . S
C744 C745 1.415 . S
C745 H715 0.950 . S
C745 C740 1.363 . S
C745 C744 1.415 . S
H746 C743 0.999 . S
H747 C728 0.913 . S
H748 C766 0.951 . S
H749 C768 0.951 . S
H750 C770 0.950 . S
H751 C771 0.950 . S
H752 C773 0.950 . S
H753 C776 0.950 . S
H754 C777 0.950 . S
H755 C779 0.950 . S
H756 C780 0.950 . S
H757 C781 0.951 . S
H758 C783 0.951 . S
H759 C785 0.950 . S
H760 C786 0.950 . S
H761 C788 0.950 . S
H762 C791 0.950 . S
H763 C792 0.950 . S
H764 C794 0.950 . S
H765 C795 0.950 . S
C766 H748 0.951 . S
C766 C767 1.366 . S
C766 C768 1.388 . S
C767 C766 1.366 . S
C767 C771 1.385 . S
C768 H749 0.951 . S
C768 C766 1.388 . S
C768 C769 1.366 . S
C769 C768 1.366 . S
C769 C770 1.414 . S
C769 C772 1.499 . S
C770 H750 0.950 . S
C770 C769 1.414 . S
C770 C771 1.374 . S
C771 H751 0.950 . S
C771 C767 1.385 . S
C771 C770 1.374 . S
C772 C769 1.499 . S
C772 C773 1.373 . S
C772 C774 1.389 . S
C773 H752 0.950 . S
C773 C772 1.373 . S
C773 C789 1.377 . S
C774 C772 1.389 . S
C774 C775 1.524 . S
C774 C788 1.377 . S
C775 C774 1.524 . S
C775 C776 1.397 . S
C775 C780 1.363 . S
C776 H753 0.950 . S
C776 C775 1.397 . S
C776 C777 1.334 . S
C777 H754 0.950 . S
C777 C776 1.334 . S
C777 C778 1.287 . S
C778 C777 1.287 . S
C778 C779 1.524 . S
C778 H797 0.913 . S
C779 H755 0.950 . S
C779 C778 1.524 . S
C779 C780 1.415 . S
C780 H756 0.950 . S
C780 C775 1.363 . S
C780 C779 1.415 . S
C781 H757 0.951 . S
C781 C782 1.366 . S
C781 C783 1.388 . S
C782 C781 1.366 . S
C782 C786 1.385 . S
C783 H758 0.951 . S
C783 C781 1.388 . S
C783 C784 1.366 . S
C784 C783 1.366 . S
C784 C785 1.414 . S
C784 C787 1.499 . S
C785 H759 0.950 . S
C785 C784 1.414 . S
C785 C786 1.374 . S
C786 H760 0.950 . S
C786 C782 1.385 . S
C786 C785 1.374 . S
C787 C784 1.499 . S
C787 C788 1.373 . S
C787 C789 1.389 . S
C788 H761 0.950 . S
C788 C774 1.377 . S
C788 C787 1.373 . S
C789 C773 1.377 . S
C789 C787 1.389 . S
C789 C790 1.524 . S
C790 C789 1.524 . S
C790 C791 1.397 . S
C790 C795 1.363 . S
C791 H762 0.950 . S
C791 C790 1.397 . S
C791 C792 1.334 . S
C792 H763 0.950 . S
C792 C791 1.334 . S
C792 C793 1.287 . S
C793 C792 1.287 . S
C793 C794 1.524 . S
C793 H796 0.999 . S
C794 H764 0.950 . S
C794 C793 1.524 . S
C794 C795 1.415 . S
C795 H765 0.950 . S
C795 C790 1.363 . S
C795 C794 1.415 . S
H796 C793 0.999 . S
H797 C778 0.913 . S
H798 C816 0.951 . S
H799 C818 0.951 . S
H800 C820 0.950 . S
H801 C821 0.950 . S
H802 C823 0.950 . S
H803 C826 0.950 . S
H804 C827 0.950 . S
H805 C829 0.950 . S
H806 C830 0.950 . S
H807 C831 0.951 . S
H808 C833 0.951 . S
H809 C835 0.950 . S
H810 C836 0.950 . S
H811 C838 0.950 . S
H812 C841 0.950 . S
H813 C842 0.950 . S
H814 C844 0.950 . S
H815 C845 0.950 . S
C816 H798 0.951 . S
C816 C817 1.366 . S
C816 C818 1.388 . S
C817 C816 1.366 . S
C817 C821 1.385 . S
C818 H799 0.951 . S
C818 C816 1.388 . S
C818 C819 1.366 . S
C819 C818 1.366 . S
C819 C820 1.414 . S
C819 C822 1.499 . S
C820 H800 0.950 . S
C820 C819 1.414 . S
C820 C821 1.374 . S
C821 H801 0.950 . S
C821 C817 1.385 . S
C821 C820 1.374 . S
C822 C819 1.499 . S
C822 C823 1.373 . S
C822 C824 1.389 . S
C823 H802 0.950 . S
C823 C822 1.373 . S
C823 C839 1.377 . S
C824 C822 1.389 . S
C824 C825 1.524 . S
C824 C838 1.377 . S
C825 C824 1.524 . S
C825 C826 1.397 . S
C825 C830 1.363 . S
C826 H803 0.950 . S
C826 C825 1.397 . S
C826 C827 1.334 . S
C827 H804 0.950 . S
C827 C826 1.334 . S
C827 C828 1.287 . S
C828 C827 1.287 . S
C828 C829 1.524 . S
C828 H847 0.913 . S
C829 H805 0.950 . S
C829 C828 1.524 . S
C829 C830 1.415 . S
C830 H806 0.950 . S
C830 C825 1.363 . S
C830 C829 1.415 . S
C831 H807 0.951 . S
C831 C832 1.366 . S
C831 C833 1.388 . S
C832 C831 1.366 . S
C832 C836 1.385 . S
C833 H808 0.951 . S
C833 C831 1.388 . S
C833 C834 1.366 . S
C834 C833 1.366 . S
C834 C835 1.414 . S
C834 C837 1.499 . S
C835 H809 0.950 . S
C835 C834 1.414 . S
C835 C836 1.374 . S
C836 H810 0.950 . S
C836 C832 1.385 . S
C836 C835 1.374 . S
C837 C834 1.499 . S
C837 C838 1.373 . S
C837 C839 1.389 . S
C838 H811 0.950 . S
C838 C824 1.377 . S
C838 C837 1.373 . S
C839 C823 1.377 . S
C839 C837 1.389 . S
C839 C840 1.524 . S
C840 C839 1.524 . S
C840 C841 1.397 . S
C840 C845 1.363 . S
C841 H812 0.950 . S
C841 C840 1.397 . S
C841 C842 1.334 . S
C842 H813 0.950 . S
C842 C841 1.334 . S
C842 C843 1.287 . S
C843 C842 1.287 . S
C843 C844 1.524 . S
C843 H846 0.999 . S
C844 H814 0.950 . S
C844 C843 1.524 . S
C844 C845 1.415 . S
C845 H815 0.950 . S
C845 C840 1.363 . S
C845 C844 1.415 . S
H846 C843 0.999 . S
H847 C828 0.913 . S
H848 C866 0.951 . S
H849 C868 0.951 . S
H850 C870 0.950 . S
H851 C871 0.950 . S
H852 C873 0.950 . S
H853 C876 0.950 . S
H854 C877 0.950 . S
H855 C879 0.950 . S
H856 C880 0.950 . S
H857 C881 0.951 . S
H858 C883 0.951 . S
H859 C885 0.950 . S
H860 C886 0.950 . S
H861 C888 0.950 . S
H862 C891 0.950 . S
H863 C892 0.950 . S
H864 C894 0.950 . S
H865 C895 0.950 . S
C866 H848 0.951 . S
C866 C867 1.366 . S
C866 C868 1.388 . S
C867 C866 1.366 . S
C867 C871 1.385 . S
C868 H849 0.951 . S
C868 C866 1.388 . S
C868 C869 1.366 . S
C869 C868 1.366 . S
C869 C870 1.414 . S
C869 C872 1.499 . S
C870 H850 0.950 . S
C870 C869 1.414 . S
C870 C871 1.374 . S
C871 H851 0.950 . S
C871 C867 1.385 . S
C871 C870 1.374 . S
C872 C869 1.499 . S
C872 C873 1.373 . S
C872 C874 1.389 . S
C873 H852 0.950 . S
C873 C872 1.373 . S
C873 C889 1.377 . S
C874 C872 1.389 . S
C874 C875 1.524 . S
C874 C888 1.377 . S
C875 C874 1.524 . S
C875 C876 1.397 . S
C875 C880 1.363 . S
C876 H853 0.950 . S
C876 C875 1.397 . S
C876 C877 1.334 . S
C877 H854 0.950 . S
C877 C876 1.334 . S
C877 C878 1.287 . S
C878 C877 1.287 . S
C878 C879 1.524 . S
C878 H897 0.913 . S
C879 H855 0.950 . S
C879 C878 1.524 . S
C879 C880 1.415 . S
C880 H856 0.950 . S
C880 C875 1.363 . S
C880 C879 1.415 . S
C881 H857 0.951 . S
C881 C882 1.366 . S
C881 C883 1.388 . S
C882 C881 1.366 . S
C882 C886 1.385 . S
C883 H858 0.951 . S
C883 C881 1.388 . S
C883 C884 1.366 . S
C884 C883 1.366 . S
C884 C885 1.414 . S
C884 C887 1.499 . S
C885 H859 0.950 . S
C885 C884 1.414 . S
C885 C886 1.374 . S
C886 H860 0.950 . S
C886 C882 1.385 . S
C886 C885 1.374 . S
C887 C884 1.499 . S
C887 C888 1.373 . S
C887 C889 1.389 . S
C888 H861 0.950 . S
C888 C874 1.377 . S
C888 C887 1.373 . S
C889 C873 1.377 . S
C889 C887 1.389 . S
C889 C890 1.524 . S
C890 C889 1.524 . S
C890 C891 1.397 . S
C890 C895 1.363 . S
C891 H862 0.950 . S
C891 C890 1.397 . S
C891 C892 1.334 . S
C892 H863 0.950 . S
C892 C891 1.334 . S
C892 C893 1.287 . S
C893 C892 1.287 . S
C893 C894 1.524 . S
C893 H896 0.999 . S
C894 H864 0.950 . S
C894 C893 1.524 . S
C894 C895 1.415 . S
C895 H865 0.950 . S
C895 C890 1.363 . S
C895 C894 1.415 . S
H896 C893 0.999 . S
H897 C878 0.913 . S
H898 C916 0.951 . S
H899 C918 0.951 . S
H900 C920 0.950 . S
H901 C921 0.950 . S
H902 C923 0.950 . S
H903 C926 0.950 . S
H904 C927 0.950 . S
H905 C929 0.950 . S
H906 C930 0.950 . S
H907 C931 0.951 . S
H908 C933 0.951 . S
H909 C935 0.950 . S
H910 C936 0.950 . S
H911 C938 0.950 . S
H912 C941 0.950 . S
H913 C942 0.950 . S
H914 C944 0.950 . S
H915 C945 0.950 . S
C916 H898 0.951 . S
C916 C917 1.366 . S
C916 C918 1.388 . S
C917 C916 1.366 . S
C917 C921 1.385 . S
C918 H899 0.951 . S
C918 C916 1.388 . S
C918 C919 1.366 . S
C919 C918 1.366 . S
C919 C920 1.414 . S
C919 C922 1.499 . S
C920 H900 0.950 . S
C920 C919 1.414 . S
C920 C921 1.374 . S
C921 H901 0.950 . S
C921 C917 1.385 . S
C921 C920 1.374 . S
C922 C919 1.499 . S
C922 C923 1.373 . S
C922 C924 1.389 . S
C923 H902 0.950 . S
C923 C922 1.373 . S
C923 C939 1.377 . S
C924 C922 1.389 . S
C924 C925 1.524 . S
C924 C938 1.377 . S
C925 C924 1.524 . S
C925 C926 1.397 . S
C925 C930 1.363 . S
C926 H903 0.950 . S
C926 C925 1.397 . S
C926 C927 1.334 . S
C927 H904 0.950 . S
C927 C926 1.334 . S
C927 C928 1.287 . S
C928 C927 1.287 . S
C928 C929 1.524 . S
C928 H947 0.913 . S
C929 H905 0.950 . S
C929 C928 1.524 . S
C929 C930 1.415 . S
C930 H906 0.950 . S
C930 C925 1.363 . S
C930 C929 1.415 . S
C931 H907 0.951 . S
C931 C932 1.366 . S
C931 C933 1.388 . S
C932 C931 1.366 . S
C932 C936 1.385 . S
C933 H908 0.951 . S
C933 C931 1.388 . S
C933 C934 1.366 . S
C934 C933 1.366 . S
C934 C935 1.414 . S
C934 C937 1.499 . S
C935 H909 0.950 . S
C935 C934 1.414 . S
C935 C936 1.374 . S
C936 H910 0.950 . S
C936 C932 1.385 . S
C936 C935 1.374 . S
C937 C934 1.499 . S
C937 C938 1.373 . S
C937 C939 1.389 . S
C938 H911 0.950 . S
C938 C924 1.377 . S
C938 C937 1.373 . S
C939 C923 1.377 . S
C939 C937 1.389 . S
C939 C940 1.524 . S
C940 C939 1.524 . S
C940 C941 1.397 . S
C940 C945 1.363 . S
C941 H912 0.950 . S
C941 C940 1.397 . S
C941 C942 1.334 . S
C942 H913 0.950 . S
C942 C941 1.334 . S
C942 C943 1.287 . S
C943 C942 1.287 . S
C943 C944 1.524 . S
C943 H946 0.999 . S
C944 H914 0.950 . S
C944 C943 1.524 . S
C944 C945 1.415 . S
C945 H915 0.950 . S
C945 C940 1.363 . S
C945 C944 1.415 . S
H946 C943 0.999 . S
H947 C928 0.913 . S
H948 C966 0.951 . S
H949 C968 0.951 . S
H950 C970 0.950 . S
H951 C971 0.950 . S
H952 C973 0.950 . S
H953 C976 0.950 . S
H954 C977 0.950 . S
H955 C979 0.950 . S
H956 C980 0.950 . S
H957 C981 0.951 . S
H958 C983 0.951 . S
H959 C985 0.950 . S
H960 C986 0.950 . S
H961 C988 0.950 . S
H962 C991 0.950 . S
H963 C992 0.950 . S
H964 C994 0.950 . S
H965 C995 0.950 . S
C966 H948 0.951 . S
C966 C967 1.366 . S
C966 C968 1.388 . S
C967 C966 1.366 . S
C967 C971 1.385 . S
C968 H949 0.951 . S
C968 C966 1.388 . S
C968 C969 1.366 . S
C969 C968 1.366 . S
C969 C970 1.414 . S
C969 C972 1.499 . S
C970 H950 0.950 . S
C970 C969 1.414 . S
C970 C971 1.374 . S
C971 H951 0.950 . S
C971 C967 1.385 . S
C971 C970 1.374 . S
C972 C969 1.499 . S
C972 C973 1.373 . S
C972 C974 1.389 . S
C973 H952 0.950 . S
C973 C972 1.373 . S
C973 C989 1.377 . S
C974 C972 1.389 . S
C974 C975 1.524 . S
C974 C988 1.377 . S
C975 C974 1.524 . S
C975 C976 1.397 . S
C975 C980 1.363 . S
C976 H953 0.950 . S
C976 C975 1.397 . S
C976 C977 1.334 . S
C977 H954 0.950 . S
C977 C976 1.334 . S
C977 C978 1.287 . S
C978 C977 1.287 . S
C978 C979 1.524 . S
C978 H997 0.913 . S
C979 H955 0.950 . S
C979 C978 1.524 . S
C979 C980 1.415 . S
C980 H956 0.950 . S
C980 C975 1.363 . S
C980 C979 1.415 . S
C981 H957 0.951 . S
C981 C982 1.366 . S
C981 C983 1.388 . S
C982 C981 1.366 . S
C982 C986 1.385 . S
C983 H958 0.951 . S
C983 C981 1.388 . S
C983 C984 1.366 . S
C984 C983 1.366 . S
C984 C985 1.414 . S
C984 C987 1.499 . S
C985 H959 0.950 . S
C985 C984 1.414 . S
C985 C986 1.374 . S
C986 H960 0.950 . S
C986 C982 1.385 . S
C986 C985 1.374 . S
C987 C984 1.499 . S
C987 C988 1.373 . S
C987 C989 1.389 . S
C988 H961 0.950 . S
C988 C974 1.377 . S
C988 C987 1.373 . S
C989 C973 1.377 . S
C989 C987 1.389 . S
C989 C990 1.524 . S
C990 C989 1.524 . S
C990 C991 1.397 . S
C990 C995 1.363 . S
C991 H962 0.950 . S
C991 C990 1.397 . S
C991 C992 1.334 . S
C992 H963 0.950 . S
C992 C991 1.334 . S
C992 C993 1.287 . S
C993 C992 1.287 . S
C993 C994 1.524 . S
C993 H996 0.999 . S
C994 H964 0.950 . S
C994 C993 1.524 . S
C994 C995 1.415 . S
C995 H965 0.950 . S
C995 C990 1.363 . S
C995 C994 1.415 . S
H996 C993 0.999 . S
H997 C978 0.913 . S
H998 C1016 0.951 . S
H999 C1018 0.951 . S
H1000 C1020 0.950 . S
H1001 C1021 0.950 . S
H1002 C1023 0.950 . S
H1003 C1026 0.950 . S
H1004 C1027 0.950 . S
H1005 C1029 0.950 . S
H1006 C1030 0.950 . S
H1007 C1031 0.951 . S
H1008 C1033 0.951 . S
H1009 C1035 0.950 . S
H1010 C1036 0.950 . S
H1011 C1038 0.950 . S
H1012 C1041 0.950 . S
H1013 C1042 0.950 . S
H1014 C1044 0.950 . S
H1015 C1045 0.950 . S
C1016 H998 0.951 . S
C1016 C1017 1.366 . S
C1016 C1018 1.388 . S
C1017 C1016 1.366 . S
C1017 C1021 1.385 . S
C1018 H999 0.951 . S
C1018 C1016 1.388 . S
C1018 C1019 1.366 . S
C1019 C1018 1.366 . S
C1019 C1020 1.414 . S
C1019 C1022 1.499 . S
C1020 H1000 0.950 . S
C1020 C1019 1.414 . S
C1020 C1021 1.374 . S
C1021 H1001 0.950 . S
C1021 C1017 1.385 . S
C1021 C1020 1.374 . S
C1022 C1019 1.499 . S
C1022 C1023 1.373 . S
C1022 C1024 1.389 . S
C1023 H1002 0.950 . S
C1023 C1022 1.373 . S
C1023 C1039 1.377 . S
C1024 C1022 1.389 . S
C1024 C1025 1.524 . S
C1024 C1038 1.377 . S
C1025 C1024 1.524 . S
C1025 C1026 1.397 . S
C1025 C1030 1.363 . S
C1026 H1003 0.950 . S
C1026 C1025 1.397 . S
C1026 C1027 1.334 . S
C1027 H1004 0.950 . S
C1027 C1026 1.334 . S
C1027 C1028 1.287 . S
C1028 C1027 1.287 . S
C1028 C1029 1.524 . S
C1028 H1047 0.913 . S
C1029 H1005 0.950 . S
C1029 C1028 1.524 . S
C1029 C1030 1.415 . S
C1030 H1006 0.950 . S
C1030 C1025 1.363 . S
C1030 C1029 1.415 . S
C1031 H1007 0.951 . S
C1031 C1032 1.366 . S
C1031 C1033 1.388 . S
C1032 C1031 1.366 . S
C1032 C1036 1.385 . S
C1033 H1008 0.951 . S
C1033 C1031 1.388 . S
C1033 C1034 1.366 . S
C1034 C1033 1.366 . S
C1034 C1035 1.414 . S
C1034 C1037 1.499 . S
C1035 H1009 0.950 . S
C1035 C1034 1.414 . S
C1035 C1036 1.374 . S
C1036 H1010 0.950 . S
C1036 C1032 1.385 . S
C1036 C1035 1.374 . S
C1037 C1034 1.499 . S
C1037 C1038 1.373 . S
C1037 C1039 1.389 . S
C1038 H1011 0.950 . S
C1038 C1024 1.377 . S
C1038 C1037 1.373 . S
C1039 C1023 1.377 . S
C1039 C1037 1.389 . S
C1039 C1040 1.524 . S
C1040 C1039 1.524 . S
C1040 C1041 1.397 . S
C1040 C1045 1.363 . S
C1041 H1012 0.950 . S
C1041 C1040 1.397 . S
C1041 C1042 1.334 . S
C1042 H1013 0.950 . S
C1042 C1041 1.334 . S
C1042 C1043 1.287 . S
C1043 C1042 1.287 . S
C1043 C1044 1.524 . S
C1043 H1046 0.999 . S
C1044 H1014 0.950 . S
C1044 C1043 1.524 . S
C1044 C1045 1.415 . S
C1045 H1015 0.950 . S
C1045 C1040 1.363 . S
C1045 C1044 1.415 . S
H1046 C1043 0.999 . S
H1047 C1028 0.913 . S
H1048 C1066 0.951 . S
H1049 C1068 0.951 . S
H1050 C1070 0.950 . S
H1051 C1071 0.950 . S
H1052 C1073 0.950 . S
H1053 C1076 0.950 . S
H1054 C1077 0.950 . S
H1055 C1079 0.950 . S
H1056 C1080 0.950 . S
H1057 C1081 0.951 . S
H1058 C1083 0.951 . S
H1059 C1085 0.950 . S
H1060 C1086 0.950 . S
H1061 C1088 0.950 . S
H1062 C1091 0.950 . S
H1063 C1092 0.950 . S
H1064 C1094 0.950 . S
H1065 C1095 0.950 . S
C1066 H1048 0.951 . S
C1066 C1067 1.366 . S
C1066 C1068 1.388 . S
C1067 C1066 1.366 . S
C1067 C1071 1.385 . S
C1068 H1049 0.951 . S
C1068 C1066 1.388 . S
C1068 C1069 1.366 . S
C1069 C1068 1.366 . S
C1069 C1070 1.414 . S
C1069 C1072 1.499 . S
C1070 H1050 0.950 . S
C1070 C1069 1.414 . S
C1070 C1071 1.374 . S
C1071 H1051 0.950 . S
C1071 C1067 1.385 . S
C1071 C1070 1.374 . S
C1072 C1069 1.499 . S
C1072 C1073 1.373 . S
C1072 C1074 1.389 . S
C1073 H1052 0.950 . S
C1073 C1072 1.373 . S
C1073 C1089 1.377 . S
C1074 C1072 1.389 . S
C1074 C1075 1.524 . S
C1074 C1088 1.377 . S
C1075 C1074 1.524 . S
C1075 C1076 1.397 . S
C1075 C1080 1.363 . S
C1076 H1053 0.950 . S
C1076 C1075 1.397 . S
C1076 C1077 1.334 . S
C1077 H1054 0.950 . S
C1077 C1076 1.334 . S
C1077 C1078 1.287 . S
C1078 C1077 1.287 . S
C1078 C1079 1.524 . S
C1078 H1097 0.913 . S
C1079 H1055 0.950 . S
C1079 C1078 1.524 . S
C1079 C1080 1.415 . S
C1080 H1056 0.950 . S
C1080 C1075 1.363 . S
C1080 C1079 1.415 . S
C1081 H1057 0.951 . S
C1081 C1082 1.366 . S
C1081 C1083 1.388 . S
C1082 C1081 1.366 . S
C1082 C1086 1.385 . S
C1083 H1058 0.951 . S
C1083 C1081 1.388 . S
C1083 C1084 1.366 . S
C1084 C1083 1.366 . S
C1084 C1085 1.414 . S
C1084 C1087 1.499 . S
C1085 H1059 0.950 . S
C1085 C1084 1.414 . S
C1085 C1086 1.374 . S
C1086 H1060 0.950 . S
C1086 C1082 1.385 . S
C1086 C1085 1.374 . S
C1087 C1084 1.499 . S
C1087 C1088 1.373 . S
C1087 C1089 1.389 . S
C1088 H1061 0.950 . S
C1088 C1074 1.377 . S
C1088 C1087 1.373 . S
C1089 C1073 1.377 . S
C1089 C1087 1.389 . S
C1089 C1090 1.524 . S
C1090 C1089 1.524 . S
C1090 C1091 1.397 . S
C1090 C1095 1.363 . S
C1091 H1062 0.950 . S
C1091 C1090 1.397 . S
C1091 C1092 1.334 . S
C1092 H1063 0.950 . S
C1092 C1091 1.334 . S
C1092 C1093 1.287 . S
C1093 C1092 1.287 . S
C1093 C1094 1.524 . S
C1093 H1096 0.999 . S
C1094 H1064 0.950 . S
C1094 C1093 1.524 . S
C1094 C1095 1.415 . S
C1095 H1065 0.950 . S
C1095 C1090 1.363 . S
C1095 C1094 1.415 . S
H1096 C1093 0.999 . S
H1097 C1078 0.913 . S
H1098 C1116 0.951 . S
H1099 C1118 0.951 . S
H1100 C1120 0.950 . S
H1101 C1121 0.950 . S
H1102 C1123 0.950 . S
H1103 C1126 0.950 . S
H1104 C1127 0.950 . S
H1105 C1129 0.950 . S
H1106 C1130 0.950 . S
H1107 C1131 0.951 . S
H1108 C1133 0.951 . S
H1109 C1135 0.950 . S
H1110 C1136 0.950 . S
H1111 C1138 0.950 . S
H1112 C1141 0.950 . S
H1113 C1142 0.950 . S
H1114 C1144 0.950 . S
H1115 C1145 0.950 . S
C1116 H1098 0.951 . S
C1116 C1117 1.366 . S
C1116 C1118 1.388 . S
C1117 C1116 1.366 . S
C1117 C1121 1.385 . S
C1118 H1099 0.951 . S
C1118 C1116 1.388 . S
C1118 C1119 1.366 . S
C1119 C1118 1.366 . S
C1119 C1120 1.414 . S
C1119 C1122 1.499 . S
C1120 H1100 0.950 . S
C1120 C1119 1.414 . S
C1120 C1121 1.374 . S
C1121 H1101 0.950 . S
C1121 C1117 1.385 . S
C1121 C1120 1.374 . S
C1122 C1119 1.499 . S
C1122 C1123 1.373 . S
C1122 C1124 1.389 . S
C1123 H1102 0.950 . S
C1123 C1122 1.373 . S
C1123 C1139 1.377 . S
C1124 C1122 1.389 . S
C1124 C1125 1.524 . S
C1124 C1138 1.377 . S
C1125 C1124 1.524 . S
C1125 C1126 1.397 . S
C1125 C1130 1.363 . S
C1126 H1103 0.950 . S
C1126 C1125 1.397 . S
C1126 C1127 1.334 . S
C1127 H1104 0.950 . S
C1127 C1126 1.334 . S
C1127 C1128 1.287 . S
C1128 C1127 1.287 . S
C1128 C1129 1.524 . S
C1128 H1147 0.913 . S
C1129 H1105 0.950 . S
C1129 C1128 1.524 . S
C1129 C1130 1.415 . S
C1130 H1106 0.950 . S
C1130 C1125 1.363 . S
C1130 C1129 1.415 . S
C1131 H1107 0.951 . S
C1131 C1132 1.366 . S
C1131 C1133 1.388 . S
C1132 C1131 1.366 . S
C1132 C1136 1.385 . S
C1133 H1108 0.951 . S
C1133 C1131 1.388 . S
C1133 C1134 1.366 . S
C1134 C1133 1.366 . S
C1134 C1135 1.414 . S
C1134 C1137 1.499 . S
C1135 H1109 0.950 . S
C1135 C1134 1.414 . S
C1135 C1136 1.374 . S
C1136 H1110 0.950 . S
C1136 C1132 1.385 . S
C1136 C1135 1.374 . S
C1137 C1134 1.499 . S
C1137 C1138 1.373 . S
C1137 C1139 1.389 . S
C1138 H1111 0.950 . S
C1138 C1124 1.377 . S
C1138 C1137 1.373 . S
C1139 C1123 1.377 . S
C1139 C1137 1.389 . S
C1139 C1140 1.524 . S
C1140 C1139 1.524 . S
C1140 C1141 1.397 . S
C1140 C1145 1.363 . S
C1141 H1112 0.950 . S
C1141 C1140 1.397 . S
C1141 C1142 1.334 . S
C1142 H1113 0.950 . S
C1142 C1141 1.334 . S
C1142 C1143 1.287 . S
C1143 C1142 1.287 . S
C1143 C1144 1.524 . S
C1143 H1146 0.999 . S
C1144 H1114 0.950 . S
C1144 C1143 1.524 . S
C1144 C1145 1.415 . S
C1145 H1115 0.950 . S
C1145 C1140 1.363 . S
C1145 C1144 1.415 . S
H1146 C1143 0.999 . S
H1147 C1128 0.913 . S
H1148 C1166 0.951 . S
H1149 C1168 0.951 . S
H1150 C1170 0.950 . S
H1151 C1171 0.950 . S
H1152 C1173 0.950 . S
H1153 C1176 0.950 . S
H1154 C1177 0.950 . S
H1155 C1179 0.950 . S
H1156 C1180 0.950 . S
H1157 C1181 0.951 . S
H1158 C1183 0.951 . S
H1159 C1185 0.950 . S
H1160 C1186 0.950 . S
H1161 C1188 0.950 . S
H1162 C1191 0.950 . S
H1163 C1192 0.950 . S
H1164 C1194 0.950 . S
H1165 C1195 0.950 . S
C1166 H1148 0.951 . S
C1166 C1167 1.366 . S
C1166 C1168 1.388 . S
C1167 C1166 1.366 . S
C1167 C1171 1.385 . S
C1168 H1149 0.951 . S
C1168 C1166 1.388 . S
C1168 C1169 1.366 . S
C1169 C1168 1.366 . S
C1169 C1170 1.414 . S
C1169 C1172 1.499 . S
C1170 H1150 0.950 . S
C1170 C1169 1.414 . S
C1170 C1171 1.374 . S
C1171 H1151 0.950 . S
C1171 C1167 1.385 . S
C1171 C1170 1.374 . S
C1172 C1169 1.499 . S
C1172 C1173 1.373 . S
C1172 C1174 1.389 . S
C1173 H1152 0.950 . S
C1173 C1172 1.373 . S
C1173 C1189 1.377 . S
C1174 C1172 1.389 . S
C1174 C1175 1.524 . S
C1174 C1188 1.377 . S
C1175 C1174 1.524 . S
C1175 C1176 1.397 . S
C1175 C1180 1.363 . S
C1176 H1153 0.950 . S
C1176 C1175 1.397 . S
C1176 C1177 1.334 . S
C1177 H1154 0.950 . S
C1177 C1176 1.334 . S
C1177 C1178 1.287 . S
C1178 C1177 1.287 . S
C1178 C1179 1.524 . S
C1178 H1197 0.913 . S
C1179 H1155 0.950 . S
C1179 C1178 1.524 . S
C1179 C1180 1.415 . S
C1180 H1156 0.950 . S
C1180 C1175 1.363 . S
C1180 C1179 1.415 . S
C1181 H1157 0.951 . S
C1181 C1182 1.366 . S
C1181 C1183 1.388 . S
C1182 C1181 1.366 . S
C1182 C1186 1.385 . S
C1183 H1158 0.951 . S
C1183 C1181 1.388 . S
C1183 C1184 1.366 . S
C1184 C1183 1.366 . S
C1184 C1185 1.414 . S
C1184 C1187 1.499 . S
C1185 H1159 0.950 . S
C1185 C1184 1.414 . S
C1185 C1186 1.374 . S
C1186 H1160 0.950 . S
C1186 C1182 1.385 . S
C1186 C1185 1.374 . S
C1187 C1184 1.499 . S
C1187 C1188 1.373 . S
C1187 C1189 1.389 . S
C1188 H1161 0.950 . S
C1188 C1174 1.377 . S
C1188 C1187 1.373 . S
C1189 C1173 1.377 . S
C1189 C1187 1.389 . S
C1189 C1190 1.524 . S
C1190 C1189 1.524 . S
C1190 C1191 1.397 . S
C1190 C1195 1.363 . S
C1191 H1162 0.950 . S
C1191 C1190 1.397 . S
C1191 C1192 1.334 . S
C1192 H1163 0.950 . S
C1192 C1191 1.334 . S
C1192 C1193 1.287 . S
C1193 C1192 1.287 . S
C1193 C1194 1.524 . S
C1193 H1196 0.999 . S
C1194 H1164 0.950 . S
C1194 C1193 1.524 . S
C1194 C1195 1.415 . S
C1195 H1165 0.950 . S
C1195 C1190 1.363 . S
C1195 C1194 1.415 . S
H1196 C1193 0.999 . S
H1197 C1178 0.913 . S
H1198 C1216 0.951 . S
H1199 C1218 0.951 . S
H1200 C1220 0.950 . S
H1201 C1221 0.950 . S
H1202 C1223 0.950 . S
H1203 C1226 0.950 . S
H1204 C1227 0.950 . S
H1205 C1229 0.950 . S
H1206 C1230 0.950 . S
H1207 C1231 0.951 . S
H1208 C1233 0.951 . S
H1209 C1235 0.950 . S
H1210 C1236 0.950 . S
H1211 C1238 0.950 . S
H1212 C1241 0.950 . S
H1213 C1242 0.950 . S
H1214 C1244 0.950 . S
H1215 C1245 0.950 . S
C1216 H1198 0.951 . S
C1216 C1217 1.366 . S
C1216 C1218 1.388 . S
C1217 C1216 1.366 . S
C1217 C1221 1.385 . S
C1218 H1199 0.951 . S
C1218 C1216 1.388 . S
C1218 C1219 1.366 . S
C1219 C1218 1.366 . S
C1219 C1220 1.414 . S
C1219 C1222 1.499 . S
C1220 H1200 0.950 . S
C1220 C1219 1.414 . S
C1220 C1221 1.374 . S
C1221 H1201 0.950 . S
C1221 C1217 1.385 . S
C1221 C1220 1.374 . S
C1222 C1219 1.499 . S
C1222 C1223 1.373 . S
C1222 C1224 1.389 . S
C1223 H1202 0.950 . S
C1223 C1222 1.373 . S
C1223 C1239 1.377 . S
C1224 C1222 1.389 . S
C1224 C1225 1.524 . S
C1224 C1238 1.377 . S
C1225 C1224 1.524 . S
C1225 C1226 1.397 . S
C1225 C1230 1.363 . S
C1226 H1203 0.950 . S
C1226 C1225 1.397 . S
C1226 C1227 1.334 . S
C1227 H1204 0.950 . S
C1227 C1226 1.334 . S
C1227 C1228 1.287 . S
C1228 C1227 1.287 . S
C1228 C1229 1.524 . S
C1228 H1247 0.913 . S
C1229 H1205 0.950 . S
C1229 C1228 1.524 . S
C1229 C1230 1.415 . S
C1230 H1206 0.950 . S
C1230 C1225 1.363 . S
C1230 C1229 1.415 . S
C1231 H1207 0.951 . S
C1231 C1232 1.366 . S
C1231 C1233 1.388 . S
C1232 C1231 1.366 . S
C1232 C1236 1.385 . S
C1233 H1208 0.951 . S
C1233 C1231 1.388 . S
C1233 C1234 1.366 . S
C1234 C1233 1.366 . S
C1234 C1235 1.414 . S
C1234 C1237 1.499 . S
C1235 H1209 0.950 . S
C1235 C1234 1.414 . S
C1235 C1236 1.374 . S
C1236 H1210 0.950 . S
C1236 C1232 1.385 . S
C1236 C1235 1.374 . S
C1237 C1234 1.499 . S
C1237 C1238 1.373 . S
C1237 C1239 1.389 . S
C1238 H1211 0.950 . S
C1238 C1224 1.377 . S
C1238 C1237 1.373 . S
C1239 C1223 1.377 . S
C1239 C1237 1.389 . S
C1239 C1240 1.524 . S
C1240 C1239 1.524 . S
C1240 C1241 1.397 . S
C1240 C1245 1.363 . S
C1241 H1212 0.950 . S
C1241 C1240 1.397 . S
C1241 C1242 1.334 . S
C1242 H1213 0.950 . S
C1242 C1241 1.334 . S
C1242 C1243 1.287 . S
C1243 C1242 1.287 . S
C1243 C1244 1.524 . S
C1243 H1246 0.999 . S
C1244 H1214 0.950 . S
C1244 C1243 1.524 . S
C1244 C1245 1.415 . S
C1245 H1215 0.950 . S
C1245 C1240 1.363 . S
C1245 C1244 1.415 . S
H1246 C1243 0.999 . S
H1247 C1228 0.913 . S
H1248 C1266 0.951 . S
H1249 C1268 0.951 . S
H1250 C1270 0.950 . S
H1251 C1271 0.950 . S
H1252 C1273 0.950 . S
H1253 C1276 0.950 . S
H1254 C1277 0.950 . S
H1255 C1279 0.950 . S
H1256 C1280 0.950 . S
H1257 C1281 0.951 . S
H1258 C1283 0.951 . S
H1259 C1285 0.950 . S
H1260 C1286 0.950 . S
H1261 C1288 0.950 . S
H1262 C1291 0.950 . S
H1263 C1292 0.950 . S
H1264 C1294 0.950 . S
H1265 C1295 0.950 . S
C1266 H1248 0.951 . S
C1266 C1267 1.366 . S
C1266 C1268 1.388 . S
C1267 C1266 1.366 . S
C1267 C1271 1.385 . S
C1268 H1249 0.951 . S
C1268 C1266 1.388 . S
C1268 C1269 1.366 . S
C1269 C1268 1.366 . S
C1269 C1270 1.414 . S
C1269 C1272 1.499 . S
C1270 H1250 0.950 . S
C1270 C1269 1.414 . S
C1270 C1271 1.374 . S
C1271 H1251 0.950 . S
C1271 C1267 1.385 . S
C1271 C1270 1.374 . S
C1272 C1269 1.499 . S
C1272 C1273 1.373 . S
C1272 C1274 1.389 . S
C1273 H1252 0.950 . S
C1273 C1272 1.373 . S
C1273 C1289 1.377 1_455 S
C1274 C1272 1.389 . S
C1274 C1275 1.524 . S
C1274 C1288 1.377 1_455 S
C1275 C1274 1.524 . S
C1275 C1276 1.397 . S
C1275 C1280 1.363 . S
C1276 H1253 0.950 . S
C1276 C1275 1.397 . S
C1276 C1277 1.334 . S
C1277 H1254 0.950 . S
C1277 C1276 1.334 . S
C1277 C1278 1.287 . S
C1278 C1277 1.287 . S
C1278 C1279 1.524 . S
C1278 H1297 0.913 . S
C1279 H1255 0.950 . S
C1279 C1278 1.524 . S
C1279 C1280 1.415 . S
C1280 H1256 0.950 . S
C1280 C1275 1.363 . S
C1280 C1279 1.415 . S
C1281 H1257 0.951 . S
C1281 C1282 1.366 . S
C1281 C1283 1.388 . S
C1282 C1281 1.366 . S
C1282 C1286 1.385 . S
C1283 H1258 0.951 . S
C1283 C1281 1.388 . S
C1283 C1284 1.366 . S
C1284 C1283 1.366 . S
C1284 C1285 1.414 . S
C1284 C1287 1.499 . S
C1285 H1259 0.950 . S
C1285 C1284 1.414 . S
C1285 C1286 1.374 . S
C1286 H1260 0.950 . S
C1286 C1282 1.385 . S
C1286 C1285 1.374 . S
C1287 C1284 1.499 . S
C1287 C1288 1.373 . S
C1287 C1289 1.389 . S
C1288 H1261 0.950 . S
C1288 C1274 1.377 1_655 S
C1288 C1287 1.373 . S
C1289 C1273 1.377 1_655 S
C1289 C1287 1.389 . S
C1289 C1290 1.524 . S
C1290 C1289 1.524 . S
C1290 C1291 1.397 . S
C1290 C1295 1.363 . S
C1291 H1262 0.950 . S
C1291 C1290 1.397 . S
C1291 C1292 1.334 . S
C1292 H1263 0.950 . S
C1292 C1291 1.334 . S
C1292 C1293 1.287 . S
C1293 C1292 1.287 . S
C1293 C1294 1.524 . S
C1293 H1296 0.999 . S
C1294 H1264 0.950 . S
C1294 C1293 1.524 . S
C1294 C1295 1.415 . S
C1295 H1265 0.950 . S
C1295 C1290 1.363 . S
C1295 C1294 1.415 . S
H1296 C1293 0.999 . S
H1297 C1278 0.913 . S
H1298 C1316 0.951 . S
H1299 C1318 0.951 . S
H1300 C1320 0.950 . S
H1301 C1321 0.950 . S
H1302 C1323 0.950 . S
H1303 C1326 0.950 . S
H1304 C1327 0.950 . S
H1305 C1329 0.950 . S
H1306 C1330 0.950 . S
H1307 C1331 0.951 . S
H1308 C1333 0.951 . S
H1309 C1335 0.950 . S
H1310 C1336 0.950 . S
H1311 C1338 0.950 . S
H1312 C1341 0.950 . S
H1313 C1342 0.950 . S
H1314 C1344 0.950 . S
H1315 C1345 0.950 . S
C1316 H1298 0.951 . S
C1316 C1317 1.366 . S
C1316 C1318 1.388 . S
C1317 C1316 1.366 . S
C1317 C1321 1.385 . S
C1318 H1299 0.951 . S
C1318 C1316 1.388 . S
C1318 C1319 1.366 . S
C1319 C1318 1.366 . S
C1319 C1320 1.414 . S
C1319 C1322 1.499 . S
C1320 H1300 0.950 . S
C1320 C1319 1.414 . S
C1320 C1321 1.374 . S
C1321 H1301 0.950 . S
C1321 C1317 1.385 . S
C1321 C1320 1.374 . S
C1322 C1319 1.499 . S
C1322 C1323 1.373 . S
C1322 C1324 1.389 . S
C1323 H1302 0.950 . S
C1323 C1322 1.373 . S
C1323 C1339 1.377 . S
C1324 C1322 1.389 . S
C1324 C1325 1.524 . S
C1324 C1338 1.377 . S
C1325 C1324 1.524 . S
C1325 C1326 1.397 . S
C1325 C1330 1.363 . S
C1326 H1303 0.950 . S
C1326 C1325 1.397 . S
C1326 C1327 1.334 . S
C1327 H1304 0.950 . S
C1327 C1326 1.334 . S
C1327 C1328 1.287 . S
C1328 C1327 1.287 . S
C1328 C1329 1.524 . S
C1328 H1347 0.913 . S
C1329 H1305 0.950 . S
C1329 C1328 1.524 . S
C1329 C1330 1.415 . S
C1330 H1306 0.950 . S
C1330 C1325 1.363 . S
C1330 C1329 1.415 . S
C1331 H1307 0.951 . S
C1331 C1332 1.366 . S
C1331 C1333 1.388 . S
C1332 C1331 1.366 . S
C1332 C1336 1.385 . S
C1333 H1308 0.951 . S
C1333 C1331 1.388 . S
C1333 C1334 1.366 . S
C1334 C1333 1.366 . S
C1334 C1335 1.414 . S
C1334 C1337 1.499 . S
C1335 H1309 0.950 . S
C1335 C1334 1.414 . S
C1335 C1336 1.374 . S
C1336 H1310 0.950 . S
C1336 C1332 1.385 . S
C1336 C1335 1.374 . S
C1337 C1334 1.499 . S
C1337 C1338 1.373 . S
C1337 C1339 1.389 . S
C1338 H1311 0.950 . S
C1338 C1324 1.377 . S
C1338 C1337 1.373 . S
C1339 C1323 1.377 . S
C1339 C1337 1.389 . S
C1339 C1340 1.524 . S
C1340 C1339 1.524 . S
C1340 C1341 1.397 . S
C1340 C1345 1.363 . S
C1341 H1312 0.950 . S
C1341 C1340 1.397 . S
C1341 C1342 1.334 . S
C1342 H1313 0.950 . S
C1342 C1341 1.334 . S
C1342 C1343 1.287 . S
C1343 C1342 1.287 . S
C1343 C1344 1.524 . S
C1343 H1346 0.999 . S
C1344 H1314 0.950 . S
C1344 C1343 1.524 . S
C1344 C1345 1.415 . S
C1345 H1315 0.950 . S
C1345 C1340 1.363 . S
C1345 C1344 1.415 . S
H1346 C1343 0.999 . S
H1347 C1328 0.913 . S
H1348 C1366 0.951 . S
H1349 C1368 0.951 . S
H1350 C1370 0.950 . S
H1351 C1371 0.950 . S
H1352 C1373 0.950 . S
H1353 C1376 0.950 . S
H1354 C1377 0.950 . S
H1355 C1379 0.950 . S
H1356 C1380 0.950 . S
H1357 C1381 0.951 . S
H1358 C1383 0.951 . S
H1359 C1385 0.950 . S
H1360 C1386 0.950 . S
H1361 C1388 0.950 . S
H1362 C1391 0.950 . S
H1363 C1392 0.950 . S
H1364 C1394 0.950 . S
H1365 C1395 0.950 . S
C1366 H1348 0.951 . S
C1366 C1367 1.366 . S
C1366 C1368 1.388 . S
C1367 C1366 1.366 . S
C1367 C1371 1.385 . S
C1368 H1349 0.951 . S
C1368 C1366 1.388 . S
C1368 C1369 1.366 . S
C1369 C1368 1.366 . S
C1369 C1370 1.414 . S
C1369 C1372 1.499 . S
C1370 H1350 0.950 . S
C1370 C1369 1.414 . S
C1370 C1371 1.374 . S
C1371 H1351 0.950 . S
C1371 C1367 1.385 . S
C1371 C1370 1.374 . S
C1372 C1369 1.499 . S
C1372 C1373 1.373 . S
C1372 C1374 1.389 . S
C1373 H1352 0.950 . S
C1373 C1372 1.373 . S
C1373 C1389 1.377 . S
C1374 C1372 1.389 . S
C1374 C1375 1.524 . S
C1374 C1388 1.377 . S
C1375 C1374 1.524 . S
C1375 C1376 1.397 . S
C1375 C1380 1.363 . S
C1376 H1353 0.950 . S
C1376 C1375 1.397 . S
C1376 C1377 1.334 . S
C1377 H1354 0.950 . S
C1377 C1376 1.334 . S
C1377 C1378 1.287 . S
C1378 C1377 1.287 . S
C1378 C1379 1.524 . S
C1378 H1397 0.913 . S
C1379 H1355 0.950 . S
C1379 C1378 1.524 . S
C1379 C1380 1.415 . S
C1380 H1356 0.950 . S
C1380 C1375 1.363 . S
C1380 C1379 1.415 . S
C1381 H1357 0.951 . S
C1381 C1382 1.366 . S
C1381 C1383 1.388 . S
C1382 C1381 1.366 . S
C1382 C1386 1.385 . S
C1383 H1358 0.951 . S
C1383 C1381 1.388 . S
C1383 C1384 1.366 . S
C1384 C1383 1.366 . S
C1384 C1385 1.414 . S
C1384 C1387 1.499 . S
C1385 H1359 0.950 . S
C1385 C1384 1.414 . S
C1385 C1386 1.374 . S
C1386 H1360 0.950 . S
C1386 C1382 1.385 . S
C1386 C1385 1.374 . S
C1387 C1384 1.499 . S
C1387 C1388 1.373 . S
C1387 C1389 1.389 . S
C1388 H1361 0.950 . S
C1388 C1374 1.377 . S
C1388 C1387 1.373 . S
C1389 C1373 1.377 . S
C1389 C1387 1.389 . S
C1389 C1390 1.524 . S
C1390 C1389 1.524 . S
C1390 C1391 1.397 . S
C1390 C1395 1.363 . S
C1391 H1362 0.950 . S
C1391 C1390 1.397 . S
C1391 C1392 1.334 . S
C1392 H1363 0.950 . S
C1392 C1391 1.334 . S
C1392 C1393 1.287 . S
C1393 C1392 1.287 . S
C1393 C1394 1.524 . S
C1393 H1396 0.999 . S
C1394 H1364 0.950 . S
C1394 C1393 1.524 . S
C1394 C1395 1.415 . S
C1395 H1365 0.950 . S
C1395 C1390 1.363 . S
C1395 C1394 1.415 . S
H1396 C1393 0.999 . S
H1397 C1378 0.913 . S
H1398 C1416 0.951 . S
H1399 C1418 0.951 . S
H1400 C1420 0.950 . S
H1401 C1421 0.950 . S
H1402 C1423 0.950 . S
H1403 C1426 0.950 . S
H1404 C1427 0.950 . S
H1405 C1429 0.950 . S
H1406 C1430 0.950 . S
H1407 C1431 0.951 . S
H1408 C1433 0.951 . S
H1409 C1435 0.950 . S
H1410 C1436 0.950 . S
H1411 C1438 0.950 . S
H1412 C1441 0.950 . S
H1413 C1442 0.950 . S
H1414 C1444 0.950 . S
H1415 C1445 0.950 . S
C1416 H1398 0.951 . S
C1416 C1417 1.366 . S
C1416 C1418 1.388 . S
C1417 C1416 1.366 . S
C1417 C1421 1.385 . S
C1418 H1399 0.951 . S
C1418 C1416 1.388 . S
C1418 C1419 1.366 . S
C1419 C1418 1.366 . S
C1419 C1420 1.414 . S
C1419 C1422 1.499 . S
C1420 H1400 0.950 . S
C1420 C1419 1.414 . S
C1420 C1421 1.374 . S
C1421 H1401 0.950 . S
C1421 C1417 1.385 . S
C1421 C1420 1.374 . S
C1422 C1419 1.499 . S
C1422 C1423 1.373 . S
C1422 C1424 1.389 . S
C1423 H1402 0.950 . S
C1423 C1422 1.373 . S
C1423 C1439 1.377 . S
C1424 C1422 1.389 . S
C1424 C1425 1.524 . S
C1424 C1438 1.377 . S
C1425 C1424 1.524 . S
C1425 C1426 1.397 . S
C1425 C1430 1.363 . S
C1426 H1403 0.950 . S
C1426 C1425 1.397 . S
C1426 C1427 1.334 . S
C1427 H1404 0.950 . S
C1427 C1426 1.334 . S
C1427 C1428 1.287 . S
C1428 C1427 1.287 . S
C1428 C1429 1.524 . S
C1428 H1447 0.913 . S
C1429 H1405 0.950 . S
C1429 C1428 1.524 . S
C1429 C1430 1.415 . S
C1430 H1406 0.950 . S
C1430 C1425 1.363 . S
C1430 C1429 1.415 . S
C1431 H1407 0.951 . S
C1431 C1432 1.366 . S
C1431 C1433 1.388 . S
C1432 C1431 1.366 . S
C1432 C1436 1.385 . S
C1433 H1408 0.951 . S
C1433 C1431 1.388 . S
C1433 C1434 1.366 . S
C1434 C1433 1.366 . S
C1434 C1435 1.414 . S
C1434 C1437 1.499 . S
C1435 H1409 0.950 . S
C1435 C1434 1.414 . S
C1435 C1436 1.374 . S
C1436 H1410 0.950 . S
C1436 C1432 1.385 . S
C1436 C1435 1.374 . S
C1437 C1434 1.499 . S
C1437 C1438 1.373 . S
C1437 C1439 1.389 . S
C1438 H1411 0.950 . S
C1438 C1424 1.377 . S
C1438 C1437 1.373 . S
C1439 C1423 1.377 . S
C1439 C1437 1.389 . S
C1439 C1440 1.524 . S
C1440 C1439 1.524 . S
C1440 C1441 1.397 . S
C1440 C1445 1.363 . S
C1441 H1412 0.950 . S
C1441 C1440 1.397 . S
C1441 C1442 1.334 . S
C1442 H1413 0.950 . S
C1442 C1441 1.334 . S
C1442 C1443 1.287 . S
C1443 C1442 1.287 . S
C1443 C1444 1.524 . S
C1443 H1446 0.999 . S
C1444 H1414 0.950 . S
C1444 C1443 1.524 . S
C1444 C1445 1.415 . S
C1445 H1415 0.950 . S
C1445 C1440 1.363 . S
C1445 C1444 1.415 . S
H1446 C1443 0.999 . S
H1447 C1428 0.913 . S
H1448 C1466 0.951 . S
H1449 C1468 0.951 . S
H1450 C1470 0.950 . S
H1451 C1471 0.950 . S
H1452 C1473 0.950 . S
H1453 C1476 0.950 . S
H1454 C1477 0.950 . S
H1455 C1479 0.950 . S
H1456 C1480 0.950 . S
H1457 C1481 0.951 . S
H1458 C1483 0.951 . S
H1459 C1485 0.950 . S
H1460 C1486 0.950 . S
H1461 C1488 0.950 . S
H1462 C1491 0.950 . S
H1463 C1492 0.950 . S
H1464 C1494 0.950 . S
H1465 C1495 0.950 . S
C1466 H1448 0.951 . S
C1466 C1467 1.366 . S
C1466 C1468 1.388 . S
C1467 C1466 1.366 . S
C1467 C1471 1.385 . S
C1468 H1449 0.951 . S
C1468 C1466 1.388 . S
C1468 C1469 1.366 . S
C1469 C1468 1.366 . S
C1469 C1470 1.414 . S
C1469 C1472 1.499 . S
C1470 H1450 0.950 . S
C1470 C1469 1.414 . S
C1470 C1471 1.374 . S
C1471 H1451 0.950 . S
C1471 C1467 1.385 . S
C1471 C1470 1.374 . S
C1472 C1469 1.499 . S
C1472 C1473 1.373 . S
C1472 C1474 1.389 . S
C1473 H1452 0.950 . S
C1473 C1472 1.373 . S
C1473 C1489 1.377 1_655 S
C1474 C1472 1.389 . S
C1474 C1475 1.524 . S
C1474 C1488 1.377 1_655 S
C1475 C1474 1.524 . S
C1475 C1476 1.397 . S
C1475 C1480 1.363 . S
C1476 H1453 0.950 . S
C1476 C1475 1.397 . S
C1476 C1477 1.334 . S
C1477 H1454 0.950 . S
C1477 C1476 1.334 . S
C1477 C1478 1.287 . S
C1478 C1477 1.287 . S
C1478 C1479 1.524 . S
C1478 H1497 0.913 . S
C1479 H1455 0.950 . S
C1479 C1478 1.524 . S
C1479 C1480 1.415 . S
C1480 H1456 0.950 . S
C1480 C1475 1.363 . S
C1480 C1479 1.415 . S
C1481 H1457 0.951 . S
C1481 C1482 1.366 . S
C1481 C1483 1.388 . S
C1482 C1481 1.366 . S
C1482 C1486 1.385 . S
C1483 H1458 0.951 . S
C1483 C1481 1.388 . S
C1483 C1484 1.366 . S
C1484 C1483 1.366 . S
C1484 C1485 1.414 . S
C1484 C1487 1.499 . S
C1485 H1459 0.950 . S
C1485 C1484 1.414 . S
C1485 C1486 1.374 . S
C1486 H1460 0.950 . S
C1486 C1482 1.385 . S
C1486 C1485 1.374 . S
C1487 C1484 1.499 . S
C1487 C1488 1.373 . S
C1487 C1489 1.389 . S
C1488 H1461 0.950 . S
C1488 C1474 1.377 1_455 S
C1488 C1487 1.373 . S
C1489 C1473 1.377 1_455 S
C1489 C1487 1.389 . S
C1489 C1490 1.524 . S
C1490 C1489 1.524 . S
C1490 C1491 1.397 . S
C1490 C1495 1.363 . S
C1491 H1462 0.950 . S
C1491 C1490 1.397 . S
C1491 C1492 1.334 . S
C1492 H1463 0.950 . S
C1492 C1491 1.334 . S
C1492 C1493 1.287 . S
C1493 C1492 1.287 . S
C1493 C1494 1.524 . S
C1493 H1496 0.999 . S
C1494 H1464 0.950 . S
C1494 C1493 1.524 . S
C1494 C1495 1.415 . S
C1495 H1465 0.950 . S
C1495 C1490 1.363 . S
C1495 C1494 1.415 . S
H1496 C1493 0.999 . S
H1497 C1478 0.913 . S
H1498 C1516 0.951 . S
H1499 C1518 0.951 . S
H1500 C1520 0.950 . S
H1501 C1521 0.950 . S
H1502 C1523 0.950 . S
H1503 C1526 0.950 . S
H1504 C1527 0.950 . S
H1505 C1529 0.950 . S
H1506 C1530 0.950 . S
H1507 C1531 0.951 . S
H1508 C1533 0.951 . S
H1509 C1535 0.950 . S
H1510 C1536 0.950 . S
H1511 C1538 0.950 . S
H1512 C1541 0.950 . S
H1513 C1542 0.950 . S
H1514 C1544 0.950 . S
H1515 C1545 0.950 . S
C1516 H1498 0.951 . S
C1516 C1517 1.366 . S
C1516 C1518 1.388 . S
C1517 C1516 1.366 . S
C1517 C1521 1.385 . S
C1518 H1499 0.951 . S
C1518 C1516 1.388 . S
C1518 C1519 1.366 . S
C1519 C1518 1.366 . S
C1519 C1520 1.414 . S
C1519 C1522 1.499 . S
C1520 H1500 0.950 . S
C1520 C1519 1.414 . S
C1520 C1521 1.374 . S
C1521 H1501 0.950 . S
C1521 C1517 1.385 . S
C1521 C1520 1.374 . S
C1522 C1519 1.499 . S
C1522 C1523 1.373 . S
C1522 C1524 1.389 . S
C1523 H1502 0.950 . S
C1523 C1522 1.373 . S
C1523 C1539 1.377 . S
C1524 C1522 1.389 . S
C1524 C1525 1.524 . S
C1524 C1538 1.377 . S
C1525 C1524 1.524 . S
C1525 C1526 1.397 . S
C1525 C1530 1.363 . S
C1526 H1503 0.950 . S
C1526 C1525 1.397 . S
C1526 C1527 1.334 . S
C1527 H1504 0.950 . S
C1527 C1526 1.334 . S
C1527 C1528 1.287 . S
C1528 C1527 1.287 . S
C1528 C1529 1.524 . S
C1528 H1547 0.913 . S
C1529 H1505 0.950 . S
C1529 C1528 1.524 . S
C1529 C1530 1.415 . S
C1530 H1506 0.950 . S
C1530 C1525 1.363 . S
C1530 C1529 1.415 . S
C1531 H1507 0.951 . S
C1531 C1532 1.366 . S
C1531 C1533 1.388 . S
C1532 C1531 1.366 . S
C1532 C1536 1.385 . S
C1533 H1508 0.951 . S
C1533 C1531 1.388 . S
C1533 C1534 1.366 . S
C1534 C1533 1.366 . S
C1534 C1535 1.414 . S
C1534 C1537 1.499 . S
C1535 H1509 0.950 . S
C1535 C1534 1.414 . S
C1535 C1536 1.374 . S
C1536 H1510 0.950 . S
C1536 C1532 1.385 . S
C1536 C1535 1.374 . S
C1537 C1534 1.499 . S
C1537 C1538 1.373 . S
C1537 C1539 1.389 . S
C1538 H1511 0.950 . S
C1538 C1524 1.377 . S
C1538 C1537 1.373 . S
C1539 C1523 1.377 . S
C1539 C1537 1.389 . S
C1539 C1540 1.524 . S
C1540 C1539 1.524 . S
C1540 C1541 1.397 . S
C1540 C1545 1.363 . S
C1541 H1512 0.950 . S
C1541 C1540 1.397 . S
C1541 C1542 1.334 . S
C1542 H1513 0.950 . S
C1542 C1541 1.334 . S
C1542 C1543 1.287 . S
C1543 C1542 1.287 . S
C1543 C1544 1.524 . S
C1543 H1546 0.999 . S
C1544 H1514 0.950 . S
C1544 C1543 1.524 . S
C1544 C1545 1.415 . S
C1545 H1515 0.950 . S
C1545 C1540 1.363 . S
C1545 C1544 1.415 . S
H1546 C1543 0.999 . S
H1547 C1528 0.913 . S
H1548 C1566 0.951 . S
H1549 C1568 0.951 . S
H1550 C1570 0.950 . S
H1551 C1571 0.950 . S
H1552 C1573 0.950 . S
H1553 C1576 0.950 . S
H1554 C1577 0.950 . S
H1555 C1579 0.950 . S
H1556 C1580 0.950 . S
H1557 C1581 0.951 . S
H1558 C1583 0.951 . S
H1559 C1585 0.950 . S
H1560 C1586 0.950 . S
H1561 C1588 0.950 . S
H1562 C1591 0.950 . S
H1563 C1592 0.950 . S
H1564 C1594 0.950 . S
H1565 C1595 0.950 . S
C1566 H1548 0.951 . S
C1566 C1567 1.366 . S
C1566 C1568 1.388 . S
C1567 C1566 1.366 . S
C1567 C1571 1.385 . S
C1568 H1549 0.951 . S
C1568 C1566 1.388 . S
C1568 C1569 1.366 . S
C1569 C1568 1.366 . S
C1569 C1570 1.414 . S
C1569 C1572 1.499 . S
C1570 H1550 0.950 . S
C1570 C1569 1.414 . S
C1570 C1571 1.374 . S
C1571 H1551 0.950 . S
C1571 C1567 1.385 . S
C1571 C1570 1.374 . S
C1572 C1569 1.499 . S
C1572 C1573 1.373 . S
C1572 C1574 1.389 . S
C1573 H1552 0.950 . S
C1573 C1572 1.373 . S
C1573 C1589 1.377 . S
C1574 C1572 1.389 . S
C1574 C1575 1.524 . S
C1574 C1588 1.377 . S
C1575 C1574 1.524 . S
C1575 C1576 1.397 . S
C1575 C1580 1.363 . S
C1576 H1553 0.950 . S
C1576 C1575 1.397 . S
C1576 C1577 1.334 . S
C1577 H1554 0.950 . S
C1577 C1576 1.334 . S
C1577 C1578 1.287 . S
C1578 C1577 1.287 . S
C1578 C1579 1.524 . S
C1578 H1597 0.913 . S
C1579 H1555 0.950 . S
C1579 C1578 1.524 . S
C1579 C1580 1.415 . S
C1580 H1556 0.950 . S
C1580 C1575 1.363 . S
C1580 C1579 1.415 . S
C1581 H1557 0.951 . S
C1581 C1582 1.366 . S
C1581 C1583 1.388 . S
C1582 C1581 1.366 . S
C1582 C1586 1.385 . S
C1583 H1558 0.951 . S
C1583 C1581 1.388 . S
C1583 C1584 1.366 . S
C1584 C1583 1.366 . S
C1584 C1585 1.414 . S
C1584 C1587 1.499 . S
C1585 H1559 0.950 . S
C1585 C1584 1.414 . S
C1585 C1586 1.374 . S
C1586 H1560 0.950 . S
C1586 C1582 1.385 . S
C1586 C1585 1.374 . S
C1587 C1584 1.499 . S
C1587 C1588 1.373 . S
C1587 C1589 1.389 . S
C1588 H1561 0.950 . S
C1588 C1574 1.377 . S
C1588 C1587 1.373 . S
C1589 C1573 1.377 . S
C1589 C1587 1.389 . S
C1589 C1590 1.524 . S
C1590 C1589 1.524 . S
C1590 C1591 1.397 . S
C1590 C1595 1.363 . S
C1591 H1562 0.950 . S
C1591 C1590 1.397 . S
C1591 C1592 1.334 . S
C1592 H1563 0.950 . S
C1592 C1591 1.334 . S
C1592 C1593 1.287 . S
C1593 C1592 1.287 . S
C1593 C1594 1.524 . S
C1593 H1596 0.999 . S
C1594 H1564 0.950 . S
C1594 C1593 1.524 . S
C1594 C1595 1.415 . S
C1595 H1565 0.950 . S
C1595 C1590 1.363 . S
C1595 C1594 1.415 . S
H1596 C1593 0.999 . S
H1597 C1578 0.913 . S
H1598 C1616 0.951 . S
H1599 C1618 0.951 . S
H1600 C1620 0.950 . S
H1601 C1621 0.950 . S
H1602 C1623 0.950 . S
H1603 C1626 0.950 . S
H1604 C1627 0.950 . S
H1605 C1629 0.950 . S
H1606 C1630 0.950 . S
H1607 C1631 0.951 . S
H1608 C1633 0.951 . S
H1609 C1635 0.950 . S
H1610 C1636 0.950 . S
H1611 C1638 0.950 . S
H1612 C1641 0.950 . S
H1613 C1642 0.950 . S
H1614 C1644 0.950 . S
H1615 C1645 0.950 . S
C1616 H1598 0.951 . S
C1616 C1617 1.366 . S
C1616 C1618 1.388 . S
C1617 C1616 1.366 . S
C1617 C1621 1.385 . S
C1618 H1599 0.951 . S
C1618 C1616 1.388 . S
C1618 C1619 1.366 . S
C1619 C1618 1.366 . S
C1619 C1620 1.414 . S
C1619 C1622 1.499 . S
C1620 H1600 0.950 . S
C1620 C1619 1.414 . S
C1620 C1621 1.374 . S
C1621 H1601 0.950 . S
C1621 C1617 1.385 . S
C1621 C1620 1.374 . S
C1622 C1619 1.499 . S
C1622 C1623 1.373 . S
C1622 C1624 1.389 . S
C1623 H1602 0.950 . S
C1623 C1622 1.373 . S
C1623 C1639 1.377 . S
C1624 C1622 1.389 . S
C1624 C1625 1.524 . S
C1624 C1638 1.377 . S
C1625 C1624 1.524 . S
C1625 C1626 1.397 . S
C1625 C1630 1.363 . S
C1626 H1603 0.950 . S
C1626 C1625 1.397 . S
C1626 C1627 1.334 . S
C1627 H1604 0.950 . S
C1627 C1626 1.334 . S
C1627 C1628 1.287 . S
C1628 C1627 1.287 . S
C1628 C1629 1.524 . S
C1628 H1647 0.913 . S
C1629 H1605 0.950 . S
C1629 C1628 1.524 . S
C1629 C1630 1.415 . S
C1630 H1606 0.950 . S
C1630 C1625 1.363 . S
C1630 C1629 1.415 . S
C1631 H1607 0.951 . S
C1631 C1632 1.366 . S
C1631 C1633 1.388 . S
C1632 C1631 1.366 . S
C1632 C1636 1.385 . S
C1633 H1608 0.951 . S
C1633 C1631 1.388 . S
C1633 C1634 1.366 . S
C1634 C1633 1.366 . S
C1634 C1635 1.414 . S
C1634 C1637 1.499 . S
C1635 H1609 0.950 . S
C1635 C1634 1.414 . S
C1635 C1636 1.374 . S
C1636 H1610 0.950 . S
C1636 C1632 1.385 . S
C1636 C1635 1.374 . S
C1637 C1634 1.499 . S
C1637 C1638 1.373 . S
C1637 C1639 1.389 . S
C1638 H1611 0.950 . S
C1638 C1624 1.377 . S
C1638 C1637 1.373 . S
C1639 C1623 1.377 . S
C1639 C1637 1.389 . S
C1639 C1640 1.524 . S
C1640 C1639 1.524 . S
C1640 C1641 1.397 . S
C1640 C1645 1.363 . S
C1641 H1612 0.950 . S
C1641 C1640 1.397 . S
C1641 C1642 1.334 . S
C1642 H1613 0.950 . S
C1642 C1641 1.334 . S
C1642 C1643 1.287 . S
C1643 C1642 1.287 . S
C1643 C1644 1.524 . S
C1643 H1646 0.999 . S
C1644 H1614 0.950 . S
C1644 C1643 1.524 . S
C1644 C1645 1.415 . S
C1645 H1615 0.950 . S
C1645 C1640 1.363 . S
C1645 C1644 1.415 . S
H1646 C1643 0.999 . S
H1647 C1628 0.913 . S
H1648 C1666 0.951 . S
H1649 C1668 0.951 . S
H1650 C1670 0.950 . S
H1651 C1671 0.950 . S
H1652 C1673 0.950 . S
H1653 C1676 0.950 . S
H1654 C1677 0.950 . S
H1655 C1679 0.950 . S
H1656 C1680 0.950 . S
H1657 C1681 0.951 . S
H1658 C1683 0.951 . S
H1659 C1685 0.950 . S
H1660 C1686 0.950 . S
H1661 C1688 0.950 . S
H1662 C1691 0.950 . S
H1663 C1692 0.950 . S
H1664 C1694 0.950 . S
H1665 C1695 0.950 . S
C1666 H1648 0.951 . S
C1666 C1667 1.366 . S
C1666 C1668 1.388 . S
C1667 C1666 1.366 . S
C1667 C1671 1.385 . S
C1668 H1649 0.951 . S
C1668 C1666 1.388 . S
C1668 C1669 1.366 . S
C1669 C1668 1.366 . S
C1669 C1670 1.414 . S
C1669 C1672 1.499 . S
C1670 H1650 0.950 . S
C1670 C1669 1.414 . S
C1670 C1671 1.374 . S
C1671 H1651 0.950 . S
C1671 C1667 1.385 . S
C1671 C1670 1.374 . S
C1672 C1669 1.499 . S
C1672 C1673 1.373 . S
C1672 C1674 1.389 . S
C1673 H1652 0.950 . S
C1673 C1672 1.373 . S
C1673 C1689 1.377 . S
C1674 C1672 1.389 . S
C1674 C1675 1.524 . S
C1674 C1688 1.377 . S
C1675 C1674 1.524 . S
C1675 C1676 1.397 . S
C1675 C1680 1.363 . S
C1676 H1653 0.950 . S
C1676 C1675 1.397 . S
C1676 C1677 1.334 . S
C1677 H1654 0.950 . S
C1677 C1676 1.334 . S
C1677 C1678 1.287 . S
C1678 C1677 1.287 . S
C1678 C1679 1.524 . S
C1678 H1697 0.913 . S
C1679 H1655 0.950 . S
C1679 C1678 1.524 . S
C1679 C1680 1.415 . S
C1680 H1656 0.950 . S
C1680 C1675 1.363 . S
C1680 C1679 1.415 . S
C1681 H1657 0.951 . S
C1681 C1682 1.366 . S
C1681 C1683 1.388 . S
C1682 C1681 1.366 . S
C1682 C1686 1.385 . S
C1683 H1658 0.951 . S
C1683 C1681 1.388 . S
C1683 C1684 1.366 . S
C1684 C1683 1.366 . S
C1684 C1685 1.414 . S
C1684 C1687 1.499 . S
C1685 H1659 0.950 . S
C1685 C1684 1.414 . S
C1685 C1686 1.374 . S
C1686 H1660 0.950 . S
C1686 C1682 1.385 . S
C1686 C1685 1.374 . S
C1687 C1684 1.499 . S
C1687 C1688 1.373 . S
C1687 C1689 1.389 . S
C1688 H1661 0.950 . S
C1688 C1674 1.377 . S
C1688 C1687 1.373 . S
C1689 C1673 1.377 . S
C1689 C1687 1.389 . S
C1689 C1690 1.524 . S
C1690 C1689 1.524 . S
C1690 C1691 1.397 . S
C1690 C1695 1.363 . S
C1691 H1662 0.950 . S
C1691 C1690 1.397 . S
C1691 C1692 1.334 . S
C1692 H1663 0.950 . S
C1692 C1691 1.334 . S
C1692 C1693 1.287 . S
C1693 C1692 1.287 . S
C1693 C1694 1.524 . S
C1693 H1696 0.999 . S
C1694 H1664 0.950 . S
C1694 C1693 1.524 . S
C1694 C1695 1.415 . S
C1695 H1665 0.950 . S
C1695 C1690 1.363 . S
C1695 C1694 1.415 . S
H1696 C1693 0.999 . S
H1697 C1678 0.913 . S
H1698 C1716 0.951 . S
H1699 C1718 0.951 . S
H1700 C1720 0.950 . S
H1701 C1721 0.950 . S
H1702 C1723 0.950 . S
H1703 C1726 0.950 . S
H1704 C1727 0.950 . S
H1705 C1729 0.950 . S
H1706 C1730 0.950 . S
H1707 C1731 0.951 . S
H1708 C1733 0.951 . S
H1709 C1735 0.950 . S
H1710 C1736 0.950 . S
H1711 C1738 0.950 . S
H1712 C1741 0.950 . S
H1713 C1742 0.950 . S
H1714 C1744 0.950 . S
H1715 C1745 0.950 . S
C1716 H1698 0.951 . S
C1716 C1717 1.366 . S
C1716 C1718 1.388 . S
C1717 C1716 1.366 . S
C1717 C1721 1.385 . S
C1718 H1699 0.951 . S
C1718 C1716 1.388 . S
C1718 C1719 1.366 . S
C1719 C1718 1.366 . S
C1719 C1720 1.414 . S
C1719 C1722 1.499 . S
C1720 H1700 0.950 . S
C1720 C1719 1.414 . S
C1720 C1721 1.374 . S
C1721 H1701 0.950 . S
C1721 C1717 1.385 . S
C1721 C1720 1.374 . S
C1722 C1719 1.499 . S
C1722 C1723 1.373 . S
C1722 C1724 1.389 . S
C1723 H1702 0.950 . S
C1723 C1722 1.373 . S
C1723 C1739 1.377 . S
C1724 C1722 1.389 . S
C1724 C1725 1.524 . S
C1724 C1738 1.377 . S
C1725 C1724 1.524 . S
C1725 C1726 1.397 . S
C1725 C1730 1.363 . S
C1726 H1703 0.950 . S
C1726 C1725 1.397 . S
C1726 C1727 1.334 . S
C1727 H1704 0.950 . S
C1727 C1726 1.334 . S
C1727 C1728 1.287 . S
C1728 C1727 1.287 . S
C1728 C1729 1.524 . S
C1728 H1747 0.913 . S
C1729 H1705 0.950 . S
C1729 C1728 1.524 . S
C1729 C1730 1.415 . S
C1730 H1706 0.950 . S
C1730 C1725 1.363 . S
C1730 C1729 1.415 . S
C1731 H1707 0.951 . S
C1731 C1732 1.366 . S
C1731 C1733 1.388 . S
C1732 C1731 1.366 . S
C1732 C1736 1.385 . S
C1733 H1708 0.951 . S
C1733 C1731 1.388 . S
C1733 C1734 1.366 . S
C1734 C1733 1.366 . S
C1734 C1735 1.414 . S
C1734 C1737 1.499 . S
C1735 H1709 0.950 . S
C1735 C1734 1.414 . S
C1735 C1736 1.374 . S
C1736 H1710 0.950 . S
C1736 C1732 1.385 . S
C1736 C1735 1.374 . S
C1737 C1734 1.499 . S
C1737 C1738 1.373 . S
C1737 C1739 1.389 . S
C1738 H1711 0.950 . S
C1738 C1724 1.377 . S
C1738 C1737 1.373 . S
C1739 C1723 1.377 . S
C1739 C1737 1.389 . S
C1739 C1740 1.524 . S
C1740 C1739 1.524 . S
C1740 C1741 1.397 . S
C1740 C1745 1.363 . S
C1741 H1712 0.950 . S
C1741 C1740 1.397 . S
C1741 C1742 1.334 . S
C1742 H1713 0.950 . S
C1742 C1741 1.334 . S
C1742 C1743 1.287 . S
C1743 C1742 1.287 . S
C1743 C1744 1.524 . S
C1743 H1746 0.999 . S
C1744 H1714 0.950 . S
C1744 C1743 1.524 . S
C1744 C1745 1.415 . S
C1745 H1715 0.950 . S
C1745 C1740 1.363 . S
C1745 C1744 1.415 . S
H1746 C1743 0.999 . S
H1747 C1728 0.913 . S
H1748 C1766 0.951 . S
H1749 C1768 0.951 . S
H1750 C1770 0.950 . S
H1751 C1771 0.950 . S
H1752 C1773 0.950 . S
H1753 C1776 0.950 . S
H1754 C1777 0.950 . S
H1755 C1779 0.950 . S
H1756 C1780 0.950 . S
H1757 C1781 0.951 . S
H1758 C1783 0.951 . S
H1759 C1785 0.950 . S
H1760 C1786 0.950 . S
H1761 C1788 0.950 . S
H1762 C1791 0.950 . S
H1763 C1792 0.950 . S
H1764 C1794 0.950 . S
H1765 C1795 0.950 . S
C1766 H1748 0.951 . S
C1766 C1767 1.366 . S
C1766 C1768 1.388 . S
C1767 C1766 1.366 . S
C1767 C1771 1.385 . S
C1768 H1749 0.951 . S
C1768 C1766 1.388 . S
C1768 C1769 1.366 . S
C1769 C1768 1.366 . S
C1769 C1770 1.414 . S
C1769 C1772 1.499 . S
C1770 H1750 0.950 . S
C1770 C1769 1.414 . S
C1770 C1771 1.374 . S
C1771 H1751 0.950 . S
C1771 C1767 1.385 . S
C1771 C1770 1.374 . S
C1772 C1769 1.499 . S
C1772 C1773 1.373 . S
C1772 C1774 1.389 . S
C1773 H1752 0.950 . S
C1773 C1772 1.373 . S
C1773 C1789 1.377 . S
C1774 C1772 1.389 . S
C1774 C1775 1.524 . S
C1774 C1788 1.377 . S
C1775 C1774 1.524 . S
C1775 C1776 1.397 . S
C1775 C1780 1.363 . S
C1776 H1753 0.950 . S
C1776 C1775 1.397 . S
C1776 C1777 1.334 . S
C1777 H1754 0.950 . S
C1777 C1776 1.334 . S
C1777 C1778 1.287 . S
C1778 C1777 1.287 . S
C1778 C1779 1.524 . S
C1778 H1797 0.913 . S
C1779 H1755 0.950 . S
C1779 C1778 1.524 . S
C1779 C1780 1.415 . S
C1780 H1756 0.950 . S
C1780 C1775 1.363 . S
C1780 C1779 1.415 . S
C1781 H1757 0.951 . S
C1781 C1782 1.366 . S
C1781 C1783 1.388 . S
C1782 C1781 1.366 . S
C1782 C1786 1.385 . S
C1783 H1758 0.951 . S
C1783 C1781 1.388 . S
C1783 C1784 1.366 . S
C1784 C1783 1.366 . S
C1784 C1785 1.414 . S
C1784 C1787 1.499 . S
C1785 H1759 0.950 . S
C1785 C1784 1.414 . S
C1785 C1786 1.374 . S
C1786 H1760 0.950 . S
C1786 C1782 1.385 . S
C1786 C1785 1.374 . S
C1787 C1784 1.499 . S
C1787 C1788 1.373 . S
C1787 C1789 1.389 . S
C1788 H1761 0.950 . S
C1788 C1774 1.377 . S
C1788 C1787 1.373 . S
C1789 C1773 1.377 . S
C1789 C1787 1.389 . S
C1789 C1790 1.524 . S
C1790 C1789 1.524 . S
C1790 C1791 1.397 . S
C1790 C1795 1.363 . S
C1791 H1762 0.950 . S
C1791 C1790 1.397 . S
C1791 C1792 1.334 . S
C1792 H1763 0.950 . S
C1792 C1791 1.334 . S
C1792 C1793 1.287 . S
C1793 C1792 1.287 . S
C1793 C1794 1.524 . S
C1793 H1796 0.999 . S
C1794 H1764 0.950 . S
C1794 C1793 1.524 . S
C1794 C1795 1.415 . S
C1795 H1765 0.950 . S
C1795 C1790 1.363 . S
C1795 C1794 1.415 . S
H1796 C1793 0.999 . S
H1797 C1778 0.913 . S
H1798 C1816 0.951 . S
H1799 C1818 0.951 . S
H1800 C1820 0.950 . S
H1801 C1821 0.950 . S
H1802 C1823 0.950 . S
H1803 C1826 0.950 . S
H1804 C1827 0.950 . S
H1805 C1829 0.950 . S
H1806 C1830 0.950 . S
H1807 C1831 0.951 . S
H1808 C1833 0.951 . S
H1809 C1835 0.950 . S
H1810 C1836 0.950 . S
H1811 C1838 0.950 . S
H1812 C1841 0.950 . S
H1813 C1842 0.950 . S
H1814 C1844 0.950 . S
H1815 C1845 0.950 . S
C1816 H1798 0.951 . S
C1816 C1817 1.366 . S
C1816 C1818 1.388 . S
C1817 C1816 1.366 . S
C1817 C1821 1.385 . S
C1818 H1799 0.951 . S
C1818 C1816 1.388 . S
C1818 C1819 1.366 . S
C1819 C1818 1.366 . S
C1819 C1820 1.414 . S
C1819 C1822 1.499 . S
C1820 H1800 0.950 . S
C1820 C1819 1.414 . S
C1820 C1821 1.374 . S
C1821 H1801 0.950 . S
C1821 C1817 1.385 . S
C1821 C1820 1.374 . S
C1822 C1819 1.499 . S
C1822 C1823 1.373 . S
C1822 C1824 1.389 . S
C1823 H1802 0.950 . S
C1823 C1822 1.373 . S
C1823 C1839 1.377 . S
C1824 C1822 1.389 . S
C1824 C1825 1.524 . S
C1824 C1838 1.377 . S
C1825 C1824 1.524 . S
C1825 C1826 1.397 . S
C1825 C1830 1.363 . S
C1826 H1803 0.950 . S
C1826 C1825 1.397 . S
C1826 C1827 1.334 . S
C1827 H1804 0.950 . S
C1827 C1826 1.334 . S
C1827 C1828 1.287 . S
C1828 C1827 1.287 . S
C1828 C1829 1.524 . S
C1828 H1847 0.913 . S
C1829 H1805 0.950 . S
C1829 C1828 1.524 . S
C1829 C1830 1.415 . S
C1830 H1806 0.950 . S
C1830 C1825 1.363 . S
C1830 C1829 1.415 . S
C1831 H1807 0.951 . S
C1831 C1832 1.366 . S
C1831 C1833 1.388 . S
C1832 C1831 1.366 . S
C1832 C1836 1.385 . S
C1833 H1808 0.951 . S
C1833 C1831 1.388 . S
C1833 C1834 1.366 . S
C1834 C1833 1.366 . S
C1834 C1835 1.414 . S
C1834 C1837 1.499 . S
C1835 H1809 0.950 . S
C1835 C1834 1.414 . S
C1835 C1836 1.374 . S
C1836 H1810 0.950 . S
C1836 C1832 1.385 . S
C1836 C1835 1.374 . S
C1837 C1834 1.499 . S
C1837 C1838 1.373 . S
C1837 C1839 1.389 . S
C1838 H1811 0.950 . S
C1838 C1824 1.377 . S
C1838 C1837 1.373 . S
C1839 C1823 1.377 . S
C1839 C1837 1.389 . S
C1839 C1840 1.524 . S
C1840 C1839 1.524 . S
C1840 C1841 1.397 . S
C1840 C1845 1.363 . S
C1841 H1812 0.950 . S
C1841 C1840 1.397 . S
C1841 C1842 1.334 . S
C1842 H1813 0.950 . S
C1842 C1841 1.334 . S
C1842 C1843 1.287 . S
C1843 C1842 1.287 . S
C1843 C1844 1.524 . S
C1843 H1846 0.999 . S
C1844 H1814 0.950 . S
C1844 C1843 1.524 . S
C1844 C1845 1.415 . S
C1845 H1815 0.950 . S
C1845 C1840 1.363 . S
C1845 C1844 1.415 . S
H1846 C1843 0.999 . S
H1847 C1828 0.913 . S
H1848 C1866 0.951 . S
H1849 C1868 0.951 . S
H1850 C1870 0.950 . S
H1851 C1871 0.950 . S
H1852 C1873 0.950 . S
H1853 C1876 0.950 . S
H1854 C1877 0.950 . S
H1855 C1879 0.950 . S
H1856 C1880 0.950 . S
H1857 C1881 0.951 . S
H1858 C1883 0.951 . S
H1859 C1885 0.950 . S
H1860 C1886 0.950 . S
H1861 C1888 0.950 . S
H1862 C1891 0.950 . S
H1863 C1892 0.950 . S
H1864 C1894 0.950 . S
H1865 C1895 0.950 . S
C1866 H1848 0.951 . S
C1866 C1867 1.366 . S
C1866 C1868 1.388 . S
C1867 C1866 1.366 . S
C1867 C1871 1.385 . S
C1868 H1849 0.951 . S
C1868 C1866 1.388 . S
C1868 C1869 1.366 . S
C1869 C1868 1.366 . S
C1869 C1870 1.414 . S
C1869 C1872 1.499 . S
C1870 H1850 0.950 . S
C1870 C1869 1.414 . S
C1870 C1871 1.374 . S
C1871 H1851 0.950 . S
C1871 C1867 1.385 . S
C1871 C1870 1.374 . S
C1872 C1869 1.499 . S
C1872 C1873 1.373 . S
C1872 C1874 1.389 . S
C1873 H1852 0.950 . S
C1873 C1872 1.373 . S
C1873 C1889 1.377 . S
C1874 C1872 1.389 . S
C1874 C1875 1.524 . S
C1874 C1888 1.377 . S
C1875 C1874 1.524 . S
C1875 C1876 1.397 . S
C1875 C1880 1.363 . S
C1876 H1853 0.950 . S
C1876 C1875 1.397 . S
C1876 C1877 1.334 . S
C1877 H1854 0.950 . S
C1877 C1876 1.334 . S
C1877 C1878 1.287 . S
C1878 C1877 1.287 . S
C1878 C1879 1.524 . S
C1878 H1897 0.913 . S
C1879 H1855 0.950 . S
C1879 C1878 1.524 . S
C1879 C1880 1.415 . S
C1880 H1856 0.950 . S
C1880 C1875 1.363 . S
C1880 C1879 1.415 . S
C1881 H1857 0.951 . S
C1881 C1882 1.366 . S
C1881 C1883 1.388 . S
C1882 C1881 1.366 . S
C1882 C1886 1.385 . S
C1883 H1858 0.951 . S
C1883 C1881 1.388 . S
C1883 C1884 1.366 . S
C1884 C1883 1.366 . S
C1884 C1885 1.414 . S
C1884 C1887 1.499 . S
C1885 H1859 0.950 . S
C1885 C1884 1.414 . S
C1885 C1886 1.374 . S
C1886 H1860 0.950 . S
C1886 C1882 1.385 . S
C1886 C1885 1.374 . S
C1887 C1884 1.499 . S
C1887 C1888 1.373 . S
C1887 C1889 1.389 . S
C1888 H1861 0.950 . S
C1888 C1874 1.377 . S
C1888 C1887 1.373 . S
C1889 C1873 1.377 . S
C1889 C1887 1.389 . S
C1889 C1890 1.524 . S
C1890 C1889 1.524 . S
C1890 C1891 1.397 . S
C1890 C1895 1.363 . S
C1891 H1862 0.950 . S
C1891 C1890 1.397 . S
C1891 C1892 1.334 . S
C1892 H1863 0.950 . S
C1892 C1891 1.334 . S
C1892 C1893 1.287 . S
C1893 C1892 1.287 . S
C1893 C1894 1.524 . S
C1893 H1896 0.999 . S
C1894 H1864 0.950 . S
C1894 C1893 1.524 . S
C1894 C1895 1.415 . S
C1895 H1865 0.950 . S
C1895 C1890 1.363 . S
C1895 C1894 1.415 . S
H1896 C1893 0.999 . S
H1897 C1878 0.913 . S
H1898 C1916 0.951 . S
H1899 C1918 0.951 . S
H1900 C1920 0.950 . S
H1901 C1921 0.950 . S
H1902 C1923 0.950 . S
H1903 C1926 0.950 . S
H1904 C1927 0.950 . S
H1905 C1929 0.950 . S
H1906 C1930 0.950 . S
H1907 C1931 0.951 . S
H1908 C1933 0.951 . S
H1909 C1935 0.950 . S
H1910 C1936 0.950 . S
H1911 C1938 0.950 . S
H1912 C1941 0.950 . S
H1913 C1942 0.950 . S
H1914 C1944 0.950 . S
H1915 C1945 0.950 . S
C1916 H1898 0.951 . S
C1916 C1917 1.366 . S
C1916 C1918 1.388 . S
C1917 C1916 1.366 . S
C1917 C1921 1.385 . S
C1918 H1899 0.951 . S
C1918 C1916 1.388 . S
C1918 C1919 1.366 . S
C1919 C1918 1.366 . S
C1919 C1920 1.414 . S
C1919 C1922 1.499 . S
C1920 H1900 0.950 . S
C1920 C1919 1.414 . S
C1920 C1921 1.374 . S
C1921 H1901 0.950 . S
C1921 C1917 1.385 . S
C1921 C1920 1.374 . S
C1922 C1919 1.499 . S
C1922 C1923 1.373 . S
C1922 C1924 1.389 . S
C1923 H1902 0.950 . S
C1923 C1922 1.373 . S
C1923 C1939 1.377 1_655 S
C1924 C1922 1.389 . S
C1924 C1925 1.524 . S
C1924 C1938 1.377 1_655 S
C1925 C1924 1.524 . S
C1925 C1926 1.397 . S
C1925 C1930 1.363 . S
C1926 H1903 0.950 . S
C1926 C1925 1.397 . S
C1926 C1927 1.334 . S
C1927 H1904 0.950 . S
C1927 C1926 1.334 . S
C1927 C1928 1.287 . S
C1928 C1927 1.287 . S
C1928 C1929 1.524 . S
C1928 H1947 0.913 . S
C1929 H1905 0.950 . S
C1929 C1928 1.524 . S
C1929 C1930 1.415 . S
C1930 H1906 0.950 . S
C1930 C1925 1.363 . S
C1930 C1929 1.415 . S
C1931 H1907 0.951 . S
C1931 C1932 1.366 . S
C1931 C1933 1.388 . S
C1932 C1931 1.366 . S
C1932 C1936 1.385 . S
C1933 H1908 0.951 . S
C1933 C1931 1.388 . S
C1933 C1934 1.366 . S
C1934 C1933 1.366 . S
C1934 C1935 1.414 . S
C1934 C1937 1.499 . S
C1935 H1909 0.950 . S
C1935 C1934 1.414 . S
C1935 C1936 1.374 . S
C1936 H1910 0.950 . S
C1936 C1932 1.385 . S
C1936 C1935 1.374 . S
C1937 C1934 1.499 . S
C1937 C1938 1.373 . S
C1937 C1939 1.389 . S
C1938 H1911 0.950 . S
C1938 C1924 1.377 1_455 S
C1938 C1937 1.373 . S
C1939 C1923 1.377 1_455 S
C1939 C1937 1.389 . S
C1939 C1940 1.524 . S
C1940 C1939 1.524 . S
C1940 C1941 1.397 . S
C1940 C1945 1.363 . S
C1941 H1912 0.950 . S
C1941 C1940 1.397 . S
C1941 C1942 1.334 . S
C1942 H1913 0.950 . S
C1942 C1941 1.334 . S
C1942 C1943 1.287 . S
C1943 C1942 1.287 . S
C1943 C1944 1.524 . S
C1943 H1946 0.999 . S
C1944 H1914 0.950 . S
C1944 C1943 1.524 . S
C1944 C1945 1.415 . S
C1945 H1915 0.950 . S
C1945 C1940 1.363 . S
C1945 C1944 1.415 . S
H1946 C1943 0.999 . S
H1947 C1928 0.913 . S
H1948 C1966 0.951 . S
H1949 C1968 0.951 . S
H1950 C1970 0.950 . S
H1951 C1971 0.950 . S
H1952 C1973 0.950 . S
H1953 C1976 0.950 . S
H1954 C1977 0.950 . S
H1955 C1979 0.950 . S
H1956 C1980 0.950 . S
H1957 C1981 0.951 . S
H1958 C1983 0.951 . S
H1959 C1985 0.950 . S
H1960 C1986 0.950 . S
H1961 C1988 0.950 . S
H1962 C1991 0.950 . S
H1963 C1992 0.950 . S
H1964 C1994 0.950 . S
H1965 C1995 0.950 . S
C1966 H1948 0.951 . S
C1966 C1967 1.366 . S
C1966 C1968 1.388 . S
C1967 C1966 1.366 . S
C1967 C1971 1.385 . S
C1968 H1949 0.951 . S
C1968 C1966 1.388 . S
C1968 C1969 1.366 . S
C1969 C1968 1.366 . S
C1969 C1970 1.414 . S
C1969 C1972 1.499 . S
C1970 H1950 0.950 . S
C1970 C1969 1.414 . S
C1970 C1971 1.374 . S
C1971 H1951 0.950 . S
C1971 C1967 1.385 . S
C1971 C1970 1.374 . S
C1972 C1969 1.499 . S
C1972 C1973 1.373 . S
C1972 C1974 1.389 . S
C1973 H1952 0.950 . S
C1973 C1972 1.373 . S
C1973 C1989 1.377 . S
C1974 C1972 1.389 . S
C1974 C1975 1.524 . S
C1974 C1988 1.377 . S
C1975 C1974 1.524 . S
C1975 C1976 1.397 . S
C1975 C1980 1.363 . S
C1976 H1953 0.950 . S
C1976 C1975 1.397 . S
C1976 C1977 1.334 . S
C1977 H1954 0.950 . S
C1977 C1976 1.334 . S
C1977 C1978 1.287 . S
C1978 C1977 1.287 . S
C1978 C1979 1.524 . S
C1978 H1997 0.913 . S
C1979 H1955 0.950 . S
C1979 C1978 1.524 . S
C1979 C1980 1.415 . S
C1980 H1956 0.950 . S
C1980 C1975 1.363 . S
C1980 C1979 1.415 . S
C1981 H1957 0.951 . S
C1981 C1982 1.366 . S
C1981 C1983 1.388 . S
C1982 C1981 1.366 . S
C1982 C1986 1.385 . S
C1983 H1958 0.951 . S
C1983 C1981 1.388 . S
C1983 C1984 1.366 . S
C1984 C1983 1.366 . S
C1984 C1985 1.414 . S
C1984 C1987 1.499 . S
C1985 H1959 0.950 . S
C1985 C1984 1.414 . S
C1985 C1986 1.374 . S
C1986 H1960 0.950 . S
C1986 C1982 1.385 . S
C1986 C1985 1.374 . S
C1987 C1984 1.499 . S
C1987 C1988 1.373 . S
C1987 C1989 1.389 . S
C1988 H1961 0.950 . S
C1988 C1974 1.377 . S
C1988 C1987 1.373 . S
C1989 C1973 1.377 . S
C1989 C1987 1.389 . S
C1989 C1990 1.524 . S
C1990 C1989 1.524 . S
C1990 C1991 1.397 . S
C1990 C1995 1.363 . S
C1991 H1962 0.950 . S
C1991 C1990 1.397 . S
C1991 C1992 1.334 . S
C1992 H1963 0.950 . S
C1992 C1991 1.334 . S
C1992 C1993 1.287 . S
C1993 C1992 1.287 . S
C1993 C1994 1.524 . S
C1993 H1996 0.999 . S
C1994 H1964 0.950 . S
C1994 C1993 1.524 . S
C1994 C1995 1.415 . S
C1995 H1965 0.950 . S
C1995 C1990 1.363 . S
C1995 C1994 1.415 . S
H1996 C1993 0.999 . S
H1997 C1978 0.913 . S
H1998 C2016 0.951 . S
H1999 C2018 0.951 . S
H2000 C2020 0.950 . S
H2001 C2021 0.950 . S
H2002 C2023 0.950 . S
H2003 C2026 0.950 . S
H2004 C2027 0.950 . S
H2005 C2029 0.950 1_554 S
H2006 C2030 0.950 . S
H2007 C2031 0.951 . S
H2008 C2033 0.951 . S
H2009 C2035 0.950 . S
H2010 C2036 0.950 . S
H2011 C2038 0.950 . S
H2012 C2041 0.950 . S
H2013 C2042 0.950 . S
H2014 C2044 0.950 . S
H2015 C2045 0.950 . S
C2016 H1998 0.951 . S
C2016 C2017 1.366 . S
C2016 C2018 1.388 . S
C2017 C2016 1.366 . S
C2017 C2021 1.385 . S
C2018 H1999 0.951 . S
C2018 C2016 1.388 . S
C2018 C2019 1.366 . S
C2019 C2018 1.366 . S
C2019 C2020 1.414 . S
C2019 C2022 1.499 . S
C2020 H2000 0.950 . S
C2020 C2019 1.414 . S
C2020 C2021 1.374 . S
C2021 H2001 0.950 . S
C2021 C2017 1.385 . S
C2021 C2020 1.374 . S
C2022 C2019 1.499 . S
C2022 C2023 1.373 . S
C2022 C2024 1.389 . S
C2023 H2002 0.950 . S
C2023 C2022 1.373 . S
C2023 C2039 1.377 1_455 S
C2024 C2022 1.389 . S
C2024 C2025 1.524 . S
C2024 C2038 1.377 1_455 S
C2025 C2024 1.524 . S
C2025 C2026 1.397 . S
C2025 C2030 1.363 . S
C2026 H2003 0.950 . S
C2026 C2025 1.397 . S
C2026 C2027 1.334 . S
C2027 H2004 0.950 . S
C2027 C2026 1.334 . S
C2027 C2028 1.287 . S
C2028 C2027 1.287 . S
C2028 C2029 1.524 . S
C2028 H2047 0.913 1_556 S
C2029 H2005 0.950 1_556 S
C2029 C2028 1.524 . S
C2029 C2030 1.415 . S
C2030 H2006 0.950 . S
C2030 C2025 1.363 . S
C2030 C2029 1.415 . S
C2031 H2007 0.951 . S
C2031 C2032 1.366 . S
C2031 C2033 1.388 . S
C2032 C2031 1.366 . S
C2032 C2036 1.385 . S
C2033 H2008 0.951 . S
C2033 C2031 1.388 . S
C2033 C2034 1.366 . S
C2034 C2033 1.366 . S
C2034 C2035 1.414 . S
C2034 C2037 1.499 . S
C2035 H2009 0.950 . S
C2035 C2034 1.414 . S
C2035 C2036 1.374 . S
C2036 H2010 0.950 . S
C2036 C2032 1.385 . S
C2036 C2035 1.374 . S
C2037 C2034 1.499 . S
C2037 C2038 1.373 . S
C2037 C2039 1.389 . S
C2038 H2011 0.950 . S
C2038 C2024 1.377 1_655 S
C2038 C2037 1.373 . S
C2039 C2023 1.377 1_655 S
C2039 C2037 1.389 . S
C2039 C2040 1.524 . S
C2040 C2039 1.524 . S
C2040 C2041 1.397 . S
C2040 C2045 1.363 . S
C2041 H2012 0.950 . S
C2041 C2040 1.397 . S
C2041 C2042 1.334 . S
C2042 H2013 0.950 . S
C2042 C2041 1.334 . S
C2042 C2043 1.287 . S
C2043 C2042 1.287 . S
C2043 C2044 1.524 . S
C2043 H2046 0.999 . S
C2044 H2014 0.950 . S
C2044 C2043 1.524 . S
C2044 C2045 1.415 . S
C2045 H2015 0.950 . S
C2045 C2040 1.363 . S
C2045 C2044 1.415 . S
H2046 C2043 0.999 . S
H2047 C2028 0.913 1_554 S
H2048 C2066 0.951 . S
H2049 C2068 0.951 . S
H2050 C2070 0.950 . S
H2051 C2071 0.950 . S
H2052 C2073 0.950 . S
H2053 C2076 0.950 . S
H2054 C2077 0.950 . S
H2055 C2079 0.950 . S
H2056 C2080 0.950 . S
H2057 C2081 0.951 . S
H2058 C2083 0.951 . S
H2059 C2085 0.950 . S
H2060 C2086 0.950 . S
H2061 C2088 0.950 . S
H2062 C2091 0.950 . S
H2063 C2092 0.950 . S
H2064 C2094 0.950 . S
H2065 C2095 0.950 . S
C2066 H2048 0.951 . S
C2066 C2067 1.366 . S
C2066 C2068 1.388 . S
C2067 C2066 1.366 . S
C2067 C2071 1.385 . S
C2068 H2049 0.951 . S
C2068 C2066 1.388 . S
C2068 C2069 1.366 . S
C2069 C2068 1.366 . S
C2069 C2070 1.414 . S
C2069 C2072 1.499 . S
C2070 H2050 0.950 . S
C2070 C2069 1.414 . S
C2070 C2071 1.374 . S
C2071 H2051 0.950 . S
C2071 C2067 1.385 . S
C2071 C2070 1.374 . S
C2072 C2069 1.499 . S
C2072 C2073 1.373 1_556 S
C2072 C2074 1.389 . S
C2073 H2052 0.950 . S
C2073 C2072 1.373 1_554 S
C2073 C2089 1.377 . S
C2074 C2072 1.389 . S
C2074 C2075 1.524 . S
C2074 C2088 1.377 . S
C2075 C2074 1.524 . S
C2075 C2076 1.397 . S
C2075 C2080 1.363 . S
C2076 H2053 0.950 . S
C2076 C2075 1.397 . S
C2076 C2077 1.334 . S
C2077 H2054 0.950 . S
C2077 C2076 1.334 . S
C2077 C2078 1.287 . S
C2078 C2077 1.287 . S
C2078 C2079 1.524 . S
C2078 H2097 0.913 . S
C2079 H2055 0.950 . S
C2079 C2078 1.524 . S
C2079 C2080 1.415 . S
C2080 H2056 0.950 . S
C2080 C2075 1.363 . S
C2080 C2079 1.415 . S
C2081 H2057 0.951 . S
C2081 C2082 1.366 . S
C2081 C2083 1.388 . S
C2082 C2081 1.366 . S
C2082 C2086 1.385 . S
C2083 H2058 0.951 . S
C2083 C2081 1.388 . S
C2083 C2084 1.366 . S
C2084 C2083 1.366 . S
C2084 C2085 1.414 . S
C2084 C2087 1.499 . S
C2085 H2059 0.950 . S
C2085 C2084 1.414 . S
C2085 C2086 1.374 . S
C2086 H2060 0.950 . S
C2086 C2082 1.385 . S
C2086 C2085 1.374 . S
C2087 C2084 1.499 . S
C2087 C2088 1.373 1_554 S
C2087 C2089 1.389 . S
C2088 H2061 0.950 . S
C2088 C2074 1.377 . S
C2088 C2087 1.373 1_556 S
C2089 C2073 1.377 . S
C2089 C2087 1.389 . S
C2089 C2090 1.524 . S
C2090 C2089 1.524 . S
C2090 C2091 1.397 . S
C2090 C2095 1.363 . S
C2091 H2062 0.950 . S
C2091 C2090 1.397 . S
C2091 C2092 1.334 . S
C2092 H2063 0.950 . S
C2092 C2091 1.334 . S
C2092 C2093 1.287 . S
C2093 C2092 1.287 . S
C2093 C2094 1.524 . S
C2093 H2096 0.999 . S
C2094 H2064 0.950 . S
C2094 C2093 1.524 . S
C2094 C2095 1.415 . S
C2095 H2065 0.950 . S
C2095 C2090 1.363 . S
C2095 C2094 1.415 . S
H2096 C2093 0.999 . S
H2097 C2078 0.913 . S
H2098 C2116 0.951 . S
H2099 C2118 0.951 . S
H2100 C2120 0.950 . S
H2101 C2121 0.950 . S
H2102 C2123 0.950 . S
H2103 C2126 0.950 . S
H2104 C2127 0.950 . S
H2105 C2129 0.950 . S
H2106 C2130 0.950 . S
H2107 C2131 0.951 . S
H2108 C2133 0.951 . S
H2109 C2135 0.950 . S
H2110 C2136 0.950 . S
H2111 C2138 0.950 . S
H2112 C2141 0.950 . S
H2113 C2142 0.950 . S
H2114 C2144 0.950 . S
H2115 C2145 0.950 . S
C2116 H2098 0.951 . S
C2116 C2117 1.366 . S
C2116 C2118 1.388 . S
C2117 C2116 1.366 . S
C2117 C2121 1.385 . S
C2118 H2099 0.951 . S
C2118 C2116 1.388 . S
C2118 C2119 1.366 . S
C2119 C2118 1.366 . S
C2119 C2120 1.414 . S
C2119 C2122 1.499 . S
C2120 H2100 0.950 . S
C2120 C2119 1.414 . S
C2120 C2121 1.374 . S
C2121 H2101 0.950 . S
C2121 C2117 1.385 . S
C2121 C2120 1.374 . S
C2122 C2119 1.499 . S
C2122 C2123 1.373 . S
C2122 C2124 1.389 . S
C2123 H2102 0.950 . S
C2123 C2122 1.373 . S
C2123 C2139 1.377 . S
C2124 C2122 1.389 . S
C2124 C2125 1.524 . S
C2124 C2138 1.377 . S
C2125 C2124 1.524 . S
C2125 C2126 1.397 . S
C2125 C2130 1.363 . S
C2126 H2103 0.950 . S
C2126 C2125 1.397 . S
C2126 C2127 1.334 . S
C2127 H2104 0.950 . S
C2127 C2126 1.334 . S
C2127 C2128 1.287 . S
C2128 C2127 1.287 . S
C2128 C2129 1.524 . S
C2128 H2147 0.913 . S
C2129 H2105 0.950 . S
C2129 C2128 1.524 . S
C2129 C2130 1.415 . S
C2130 H2106 0.950 . S
C2130 C2125 1.363 . S
C2130 C2129 1.415 . S
C2131 H2107 0.951 . S
C2131 C2132 1.366 . S
C2131 C2133 1.388 . S
C2132 C2131 1.366 . S
C2132 C2136 1.385 . S
C2133 H2108 0.951 . S
C2133 C2131 1.388 . S
C2133 C2134 1.366 . S
C2134 C2133 1.366 . S
C2134 C2135 1.414 . S
C2134 C2137 1.499 . S
C2135 H2109 0.950 . S
C2135 C2134 1.414 . S
C2135 C2136 1.374 . S
C2136 H2110 0.950 . S
C2136 C2132 1.385 . S
C2136 C2135 1.374 . S
C2137 C2134 1.499 . S
C2137 C2138 1.373 . S
C2137 C2139 1.389 . S
C2138 H2111 0.950 . S
C2138 C2124 1.377 . S
C2138 C2137 1.373 . S
C2139 C2123 1.377 . S
C2139 C2137 1.389 . S
C2139 C2140 1.524 . S
C2140 C2139 1.524 . S
C2140 C2141 1.397 . S
C2140 C2145 1.363 . S
C2141 H2112 0.950 . S
C2141 C2140 1.397 . S
C2141 C2142 1.334 . S
C2142 H2113 0.950 . S
C2142 C2141 1.334 . S
C2142 C2143 1.287 . S
C2143 C2142 1.287 . S
C2143 C2144 1.524 . S
C2143 H2146 0.999 . S
C2144 H2114 0.950 . S
C2144 C2143 1.524 . S
C2144 C2145 1.415 . S
C2145 H2115 0.950 . S
C2145 C2140 1.363 . S
C2145 C2144 1.415 . S
H2146 C2143 0.999 . S
H2147 C2128 0.913 . S
H2148 C2166 0.951 . S
H2149 C2168 0.951 . S
H2150 C2170 0.950 . S
H2151 C2171 0.950 . S
H2152 C2173 0.950 . S
H2153 C2176 0.950 . S
H2154 C2177 0.950 . S
H2155 C2179 0.950 . S
H2156 C2180 0.950 . S
H2157 C2181 0.951 . S
H2158 C2183 0.951 . S
H2159 C2185 0.950 . S
H2160 C2186 0.950 . S
H2161 C2188 0.950 . S
H2162 C2191 0.950 . S
H2163 C2192 0.950 . S
H2164 C2194 0.950 . S
H2165 C2195 0.950 . S
C2166 H2148 0.951 . S
C2166 C2167 1.366 . S
C2166 C2168 1.388 . S
C2167 C2166 1.366 . S
C2167 C2171 1.385 . S
C2168 H2149 0.951 . S
C2168 C2166 1.388 . S
C2168 C2169 1.366 . S
C2169 C2168 1.366 . S
C2169 C2170 1.414 . S
C2169 C2172 1.499 . S
C2170 H2150 0.950 . S
C2170 C2169 1.414 . S
C2170 C2171 1.374 . S
C2171 H2151 0.950 . S
C2171 C2167 1.385 . S
C2171 C2170 1.374 . S
C2172 C2169 1.499 . S
C2172 C2173 1.373 . S
C2172 C2174 1.389 . S
C2173 H2152 0.950 . S
C2173 C2172 1.373 . S
C2173 C2189 1.377 . S
C2174 C2172 1.389 . S
C2174 C2175 1.524 . S
C2174 C2188 1.377 . S
C2175 C2174 1.524 . S
C2175 C2176 1.397 . S
C2175 C2180 1.363 . S
C2176 H2153 0.950 . S
C2176 C2175 1.397 . S
C2176 C2177 1.334 . S
C2177 H2154 0.950 . S
C2177 C2176 1.334 . S
C2177 C2178 1.287 . S
C2178 C2177 1.287 . S
C2178 C2179 1.524 . S
C2178 H2197 0.913 . S
C2179 H2155 0.950 . S
C2179 C2178 1.524 . S
C2179 C2180 1.415 . S
C2180 H2156 0.950 . S
C2180 C2175 1.363 . S
C2180 C2179 1.415 . S
C2181 H2157 0.951 . S
C2181 C2182 1.366 . S
C2181 C2183 1.388 . S
C2182 C2181 1.366 . S
C2182 C2186 1.385 . S
C2183 H2158 0.951 . S
C2183 C2181 1.388 . S
C2183 C2184 1.366 . S
C2184 C2183 1.366 . S
C2184 C2185 1.414 . S
C2184 C2187 1.499 . S
C2185 H2159 0.950 . S
C2185 C2184 1.414 . S
C2185 C2186 1.374 . S
C2186 H2160 0.950 . S
C2186 C2182 1.385 . S
C2186 C2185 1.374 . S
C2187 C2184 1.499 . S
C2187 C2188 1.373 . S
C2187 C2189 1.389 . S
C2188 H2161 0.950 . S
C2188 C2174 1.377 . S
C2188 C2187 1.373 . S
C2189 C2173 1.377 . S
C2189 C2187 1.389 . S
C2189 C2190 1.524 . S
C2190 C2189 1.524 . S
C2190 C2191 1.397 . S
C2190 C2195 1.363 . S
C2191 H2162 0.950 . S
C2191 C2190 1.397 . S
C2191 C2192 1.334 . S
C2192 H2163 0.950 . S
C2192 C2191 1.334 . S
C2192 C2193 1.287 . S
C2193 C2192 1.287 . S
C2193 C2194 1.524 . S
C2193 H2196 0.999 . S
C2194 H2164 0.950 . S
C2194 C2193 1.524 . S
C2194 C2195 1.415 . S
C2195 H2165 0.950 . S
C2195 C2190 1.363 . S
C2195 C2194 1.415 . S
H2196 C2193 0.999 . S
H2197 C2178 0.913 . S
H2198 C2216 0.951 . S
H2199 C2218 0.951 . S
H2200 C2220 0.950 . S
H2201 C2221 0.950 . S
H2202 C2223 0.950 . S
H2203 C2226 0.950 . S
H2204 C2227 0.950 . S
H2205 C2229 0.950 . S
H2206 C2230 0.950 . S
H2207 C2231 0.951 . S
H2208 C2233 0.951 . S
H2209 C2235 0.950 . S
H2210 C2236 0.950 . S
H2211 C2238 0.950 . S
H2212 C2241 0.950 . S
H2213 C2242 0.950 . S
H2214 C2244 0.950 . S
H2215 C2245 0.950 . S
C2216 H2198 0.951 . S
C2216 C2217 1.366 . S
C2216 C2218 1.388 . S
C2217 C2216 1.366 . S
C2217 C2221 1.385 . S
C2218 H2199 0.951 . S
C2218 C2216 1.388 . S
C2218 C2219 1.366 . S
C2219 C2218 1.366 . S
C2219 C2220 1.414 . S
C2219 C2222 1.499 . S
C2220 H2200 0.950 . S
C2220 C2219 1.414 . S
C2220 C2221 1.374 . S
C2221 H2201 0.950 . S
C2221 C2217 1.385 . S
C2221 C2220 1.374 . S
C2222 C2219 1.499 . S
C2222 C2223 1.373 . S
C2222 C2224 1.389 . S
C2223 H2202 0.950 . S
C2223 C2222 1.373 . S
C2223 C2239 1.377 . S
C2224 C2222 1.389 . S
C2224 C2225 1.524 . S
C2224 C2238 1.377 . S
C2225 C2224 1.524 . S
C2225 C2226 1.397 . S
C2225 C2230 1.363 . S
C2226 H2203 0.950 . S
C2226 C2225 1.397 . S
C2226 C2227 1.334 . S
C2227 H2204 0.950 . S
C2227 C2226 1.334 . S
C2227 C2228 1.287 . S
C2228 C2227 1.287 . S
C2228 C2229 1.524 . S
C2228 H2247 0.913 . S
C2229 H2205 0.950 . S
C2229 C2228 1.524 . S
C2229 C2230 1.415 . S
C2230 H2206 0.950 . S
C2230 C2225 1.363 . S
C2230 C2229 1.415 . S
C2231 H2207 0.951 . S
C2231 C2232 1.366 . S
C2231 C2233 1.388 . S
C2232 C2231 1.366 . S
C2232 C2236 1.385 . S
C2233 H2208 0.951 . S
C2233 C2231 1.388 . S
C2233 C2234 1.366 . S
C2234 C2233 1.366 . S
C2234 C2235 1.414 . S
C2234 C2237 1.499 . S
C2235 H2209 0.950 . S
C2235 C2234 1.414 . S
C2235 C2236 1.374 . S
C2236 H2210 0.950 . S
C2236 C2232 1.385 . S
C2236 C2235 1.374 . S
C2237 C2234 1.499 . S
C2237 C2238 1.373 . S
C2237 C2239 1.389 . S
C2238 H2211 0.950 . S
C2238 C2224 1.377 . S
C2238 C2237 1.373 . S
C2239 C2223 1.377 . S
C2239 C2237 1.389 . S
C2239 C2240 1.524 . S
C2240 C2239 1.524 . S
C2240 C2241 1.397 . S
C2240 C2245 1.363 . S
C2241 H2212 0.950 . S
C2241 C2240 1.397 . S
C2241 C2242 1.334 . S
C2242 H2213 0.950 . S
C2242 C2241 1.334 . S
C2242 C2243 1.287 . S
C2243 C2242 1.287 . S
C2243 C2244 1.524 . S
C2243 H2246 0.999 . S
C2244 H2214 0.950 . S
C2244 C2243 1.524 . S
C2244 C2245 1.415 . S
C2245 H2215 0.950 . S
C2245 C2240 1.363 . S
C2245 C2244 1.415 . S
H2246 C2243 0.999 . S
H2247 C2228 0.913 . S
H2248 C2266 0.951 . S
H2249 C2268 0.951 . S
H2250 C2270 0.950 . S
H2251 C2271 0.950 . S
H2252 C2273 0.950 . S
H2253 C2276 1.010 . S
H2254 C2277 0.950 . S
H2255 C2279 0.950 . S
H2256 C2280 0.950 . S
H2257 C2281 0.951 . S
H2258 C2283 0.951 . S
H2259 C2285 0.950 . S
H2260 C2286 0.950 . S
H2261 C2288 0.950 . S
H2262 C2291 1.010 . S
H2263 C2292 0.950 . S
H2264 C2294 0.950 . S
H2265 C2295 0.950 . S
C2266 H2248 0.951 . S
C2266 C2267 1.366 . S
C2266 C2268 1.388 . S
C2267 C2266 1.366 . S
C2267 C2271 1.385 . S
C2268 H2249 0.951 . S
C2268 C2266 1.388 . S
C2268 C2269 1.366 . S
C2269 C2268 1.366 . S
C2269 C2270 1.414 . S
C2269 C2272 1.499 . S
C2270 H2250 0.950 . S
C2270 C2269 1.414 . S
C2270 C2271 1.374 . S
C2271 H2251 0.950 . S
C2271 C2267 1.385 . S
C2271 C2270 1.374 . S
C2272 C2269 1.499 . S
C2272 C2273 1.373 . S
C2272 C2274 1.389 1_554 S
C2273 H2252 0.950 . S
C2273 C2272 1.373 . S
C2273 C2289 1.377 . S
C2274 C2272 1.389 1_556 S
C2274 C2275 1.524 . S
C2274 C2288 1.377 . S
C2275 C2274 1.524 . S
C2275 C2276 1.397 . S
C2275 C2280 1.363 . S
C2276 H2253 1.010 . S
C2276 C2275 1.397 . S
C2276 C2277 1.334 . S
C2277 H2254 0.950 . S
C2277 C2276 1.334 . S
C2277 C2278 1.287 . S
C2278 C2277 1.287 . S
C2278 C2279 1.524 . S
C2278 H2297 0.913 . S
C2279 H2255 0.950 . S
C2279 C2278 1.524 . S
C2279 C2280 1.415 . S
C2280 H2256 0.950 . S
C2280 C2275 1.363 . S
C2280 C2279 1.415 . S
C2281 H2257 0.951 . S
C2281 C2282 1.366 . S
C2281 C2283 1.388 . S
C2282 C2281 1.366 . S
C2282 C2286 1.385 . S
C2283 H2258 0.951 . S
C2283 C2281 1.388 . S
C2283 C2284 1.366 . S
C2284 C2283 1.366 . S
C2284 C2285 1.414 . S
C2284 C2287 1.499 . S
C2285 H2259 0.950 . S
C2285 C2284 1.414 . S
C2285 C2286 1.374 . S
C2286 H2260 0.950 . S
C2286 C2282 1.385 . S
C2286 C2285 1.374 . S
C2287 C2284 1.499 . S
C2287 C2288 1.373 . S
C2287 C2289 1.389 1_556 S
C2288 H2261 0.950 . S
C2288 C2274 1.377 . S
C2288 C2287 1.373 . S
C2289 C2273 1.377 . S
C2289 C2287 1.389 1_554 S
C2289 C2290 1.524 . S
C2290 C2289 1.524 . S
C2290 C2291 1.397 . S
C2290 C2295 1.363 . S
C2291 H2262 1.010 . S
C2291 C2290 1.397 . S
C2291 C2292 1.334 . S
C2292 H2263 0.950 . S
C2292 C2291 1.334 . S
C2292 C2293 1.287 . S
C2293 C2292 1.287 . S
C2293 C2294 1.524 . S
C2293 H2296 0.999 . S
C2294 H2264 0.950 . S
C2294 C2293 1.524 . S
C2294 C2295 1.415 . S
C2295 H2265 0.950 . S
C2295 C2290 1.363 . S
C2295 C2294 1.415 . S
H2296 C2293 0.999 . S
H2297 C2278 0.913 . S
H2298 C2316 0.951 . S
H2299 C2318 0.951 . S
H2300 C2320 0.950 . S
H2301 C2321 0.950 . S
H2302 C2323 0.950 . S
H2303 C2326 0.950 . S
H2304 C2327 0.950 . S
H2305 C2329 0.950 . S
H2306 C2330 0.950 . S
H2307 C2331 0.951 . S
H2308 C2333 0.951 . S
H2309 C2335 0.950 . S
H2310 C2336 0.950 . S
H2311 C2338 0.950 . S
H2312 C2341 0.950 . S
H2313 C2342 0.950 . S
H2314 C2344 0.950 . S
H2315 C2345 0.950 . S
C2316 H2298 0.951 . S
C2316 C2317 1.366 . S
C2316 C2318 1.388 . S
C2317 C2316 1.366 . S
C2317 C2321 1.385 . S
C2318 H2299 0.951 . S
C2318 C2316 1.388 . S
C2318 C2319 1.366 . S
C2319 C2318 1.366 . S
C2319 C2320 1.414 . S
C2319 C2322 1.499 . S
C2320 H2300 0.950 . S
C2320 C2319 1.414 . S
C2320 C2321 1.374 . S
C2321 H2301 0.950 . S
C2321 C2317 1.385 . S
C2321 C2320 1.374 . S
C2322 C2319 1.499 . S
C2322 C2323 1.373 . S
C2322 C2324 1.389 . S
C2323 H2302 0.950 . S
C2323 C2322 1.373 . S
C2323 C2339 1.377 . S
C2324 C2322 1.389 . S
C2324 C2325 1.524 . S
C2324 C2338 1.377 . S
C2325 C2324 1.524 . S
C2325 C2326 1.397 . S
C2325 C2330 1.363 . S
C2326 H2303 0.950 . S
C2326 C2325 1.397 . S
C2326 C2327 1.334 . S
C2327 H2304 0.950 . S
C2327 C2326 1.334 . S
C2327 C2328 1.287 . S
C2328 C2327 1.287 . S
C2328 C2329 1.524 . S
C2328 H2347 0.913 . S
C2329 H2305 0.950 . S
C2329 C2328 1.524 . S
C2329 C2330 1.415 . S
C2330 H2306 0.950 . S
C2330 C2325 1.363 . S
C2330 C2329 1.415 . S
C2331 H2307 0.951 . S
C2331 C2332 1.366 . S
C2331 C2333 1.388 . S
C2332 C2331 1.366 . S
C2332 C2336 1.385 . S
C2333 H2308 0.951 . S
C2333 C2331 1.388 . S
C2333 C2334 1.366 . S
C2334 C2333 1.366 . S
C2334 C2335 1.414 . S
C2334 C2337 1.499 . S
C2335 H2309 0.950 . S
C2335 C2334 1.414 . S
C2335 C2336 1.374 . S
C2336 H2310 0.950 . S
C2336 C2332 1.385 . S
C2336 C2335 1.374 . S
C2337 C2334 1.499 . S
C2337 C2338 1.373 . S
C2337 C2339 1.389 . S
C2338 H2311 0.950 . S
C2338 C2324 1.377 . S
C2338 C2337 1.373 . S
C2339 C2323 1.377 . S
C2339 C2337 1.389 . S
C2339 C2340 1.524 . S
C2340 C2339 1.524 . S
C2340 C2341 1.397 . S
C2340 C2345 1.363 . S
C2341 H2312 0.950 . S
C2341 C2340 1.397 . S
C2341 C2342 1.334 . S
C2342 H2313 0.950 . S
C2342 C2341 1.334 . S
C2342 C2343 1.287 . S
C2343 C2342 1.287 . S
C2343 C2344 1.524 . S
C2343 H2346 0.999 . S
C2344 H2314 0.950 . S
C2344 C2343 1.524 . S
C2344 C2345 1.415 . S
C2345 H2315 0.950 . S
C2345 C2340 1.363 . S
C2345 C2344 1.415 . S
H2346 C2343 0.999 . S
H2347 C2328 0.913 . S
H2348 C2366 0.951 . S
H2349 C2368 0.951 . S
H2350 C2370 0.950 . S
H2351 C2371 0.950 . S
H2352 C2373 0.950 . S
H2353 C2376 0.950 . S
H2354 C2377 0.950 . S
H2355 C2379 0.950 . S
H2356 C2380 0.950 . S
H2357 C2381 0.951 . S
H2358 C2383 0.951 . S
H2359 C2385 0.950 . S
H2360 C2386 0.950 . S
H2361 C2388 0.950 . S
H2362 C2391 0.950 . S
H2363 C2392 0.950 . S
H2364 C2394 0.950 . S
H2365 C2395 0.950 . S
C2366 H2348 0.951 . S
C2366 C2367 1.366 . S
C2366 C2368 1.388 . S
C2367 C2366 1.366 . S
C2367 C2371 1.385 . S
C2368 H2349 0.951 . S
C2368 C2366 1.388 . S
C2368 C2369 1.366 . S
C2369 C2368 1.366 . S
C2369 C2370 1.414 . S
C2369 C2372 1.499 . S
C2370 H2350 0.950 . S
C2370 C2369 1.414 . S
C2370 C2371 1.374 . S
C2371 H2351 0.950 . S
C2371 C2367 1.385 . S
C2371 C2370 1.374 . S
C2372 C2369 1.499 . S
C2372 C2373 1.373 . S
C2372 C2374 1.389 . S
C2373 H2352 0.950 . S
C2373 C2372 1.373 . S
C2373 C2389 1.377 . S
C2374 C2372 1.389 . S
C2374 C2375 1.524 . S
C2374 C2388 1.377 . S
C2375 C2374 1.524 . S
C2375 C2376 1.397 . S
C2375 C2380 1.363 . S
C2376 H2353 0.950 . S
C2376 C2375 1.397 . S
C2376 C2377 1.334 . S
C2377 H2354 0.950 . S
C2377 C2376 1.334 . S
C2377 C2378 1.287 . S
C2378 C2377 1.287 . S
C2378 C2379 1.524 . S
C2378 H2397 0.913 . S
C2379 H2355 0.950 . S
C2379 C2378 1.524 . S
C2379 C2380 1.415 . S
C2380 H2356 0.950 . S
C2380 C2375 1.363 . S
C2380 C2379 1.415 . S
C2381 H2357 0.951 . S
C2381 C2382 1.366 . S
C2381 C2383 1.388 . S
C2382 C2381 1.366 . S
C2382 C2386 1.385 . S
C2383 H2358 0.951 . S
C2383 C2381 1.388 . S
C2383 C2384 1.366 . S
C2384 C2383 1.366 . S
C2384 C2385 1.414 . S
C2384 C2387 1.499 . S
C2385 H2359 0.950 . S
C2385 C2384 1.414 . S
C2385 C2386 1.374 . S
C2386 H2360 0.950 . S
C2386 C2382 1.385 . S
C2386 C2385 1.374 . S
C2387 C2384 1.499 . S
C2387 C2388 1.373 . S
C2387 C2389 1.389 . S
C2388 H2361 0.950 . S
C2388 C2374 1.377 . S
C2388 C2387 1.373 . S
C2389 C2373 1.377 . S
C2389 C2387 1.389 . S
C2389 C2390 1.524 . S
C2390 C2389 1.524 . S
C2390 C2391 1.397 . S
C2390 C2395 1.363 . S
C2391 H2362 0.950 . S
C2391 C2390 1.397 . S
C2391 C2392 1.334 . S
C2392 H2363 0.950 . S
C2392 C2391 1.334 . S
C2392 C2393 1.287 . S
C2393 C2392 1.287 . S
C2393 C2394 1.524 . S
C2393 H2396 0.999 . S
C2394 H2364 0.950 . S
C2394 C2393 1.524 . S
C2394 C2395 1.415 . S
C2395 H2365 0.950 . S
C2395 C2390 1.363 . S
C2395 C2394 1.415 . S
H2396 C2393 0.999 . S
H2397 C2378 0.913 . S
H2398 C2416 0.951 . S
H2399 C2418 0.951 . S
H2400 C2420 0.950 . S
H2401 C2421 0.950 . S
H2402 C2423 0.950 . S
H2403 C2426 0.950 . S
H2404 C2427 0.950 . S
H2405 C2429 0.950 . S
H2406 C2430 0.950 . S
H2407 C2431 0.951 . S
H2408 C2433 0.951 . S
H2409 C2435 0.950 . S
H2410 C2436 0.950 . S
H2411 C2438 0.950 . S
H2412 C2441 0.950 . S
H2413 C2442 0.950 . S
H2414 C2444 0.950 . S
H2415 C2445 0.950 . S
C2416 H2398 0.951 . S
C2416 C2417 1.366 . S
C2416 C2418 1.388 . S
C2417 C2416 1.366 . S
C2417 C2421 1.385 . S
C2418 H2399 0.951 . S
C2418 C2416 1.388 . S
C2418 C2419 1.366 . S
C2419 C2418 1.366 . S
C2419 C2420 1.414 . S
C2419 C2422 1.499 . S
C2420 H2400 0.950 . S
C2420 C2419 1.414 . S
C2420 C2421 1.374 . S
C2421 H2401 0.950 . S
C2421 C2417 1.385 . S
C2421 C2420 1.374 . S
C2422 C2419 1.499 . S
C2422 C2423 1.373 . S
C2422 C2424 1.389 . S
C2423 H2402 0.950 . S
C2423 C2422 1.373 . S
C2423 C2439 1.377 . S
C2424 C2422 1.389 . S
C2424 C2425 1.524 . S
C2424 C2438 1.377 . S
C2425 C2424 1.524 . S
C2425 C2426 1.397 . S
C2425 C2430 1.363 . S
C2426 H2403 0.950 . S
C2426 C2425 1.397 . S
C2426 C2427 1.334 . S
C2427 H2404 0.950 . S
C2427 C2426 1.334 . S
C2427 C2428 1.287 . S
C2428 C2427 1.287 . S
C2428 C2429 1.524 . S
C2428 H2447 0.913 . S
C2429 H2405 0.950 . S
C2429 C2428 1.524 . S
C2429 C2430 1.415 . S
C2430 H2406 0.950 . S
C2430 C2425 1.363 . S
C2430 C2429 1.415 . S
C2431 H2407 0.951 . S
C2431 C2432 1.366 . S
C2431 C2433 1.388 . S
C2432 C2431 1.366 . S
C2432 C2436 1.385 . S
C2433 H2408 0.951 . S
C2433 C2431 1.388 . S
C2433 C2434 1.366 . S
C2434 C2433 1.366 . S
C2434 C2435 1.414 . S
C2434 C2437 1.499 . S
C2435 H2409 0.950 . S
C2435 C2434 1.414 . S
C2435 C2436 1.374 . S
C2436 H2410 0.950 . S
C2436 C2432 1.385 . S
C2436 C2435 1.374 . S
C2437 C2434 1.499 . S
C2437 C2438 1.373 . S
C2437 C2439 1.389 . S
C2438 H2411 0.950 . S
C2438 C2424 1.377 . S
C2438 C2437 1.373 . S
C2439 C2423 1.377 . S
C2439 C2437 1.389 . S
C2439 C2440 1.524 . S
C2440 C2439 1.524 . S
C2440 C2441 1.397 . S
C2440 C2445 1.363 . S
C2441 H2412 0.950 . S
C2441 C2440 1.397 . S
C2441 C2442 1.334 . S
C2442 H2413 0.950 . S
C2442 C2441 1.334 . S
C2442 C2443 1.287 . S
C2443 C2442 1.287 . S
C2443 C2444 1.524 . S
C2443 H2446 0.999 . S
C2444 H2414 0.950 . S
C2444 C2443 1.524 . S
C2444 C2445 1.415 . S
C2445 H2415 0.950 . S
C2445 C2440 1.363 . S
C2445 C2444 1.415 . S
H2446 C2443 0.999 . S
H2447 C2428 0.913 . S
H2448 C2466 0.951 . S
H2449 C2468 0.951 . S
H2450 C2470 0.950 . S
H2451 C2471 0.950 . S
H2452 C2473 0.950 . S
H2453 C2476 0.950 . S
H2454 C2477 0.950 . S
H2455 C2479 0.950 . S
H2456 C2480 0.950 . S
H2457 C2481 0.951 . S
H2458 C2483 0.951 . S
H2459 C2485 0.950 . S
H2460 C2486 0.950 . S
H2461 C2488 0.950 . S
H2462 C2491 0.950 . S
H2463 C2492 0.950 . S
H2464 C2494 0.950 . S
H2465 C2495 0.950 . S
C2466 H2448 0.951 . S
C2466 C2467 1.366 . S
C2466 C2468 1.388 . S
C2467 C2466 1.366 . S
C2467 C2471 1.385 . S
C2468 H2449 0.951 . S
C2468 C2466 1.388 . S
C2468 C2469 1.366 . S
C2469 C2468 1.366 . S
C2469 C2470 1.414 . S
C2469 C2472 1.499 . S
C2470 H2450 0.950 . S
C2470 C2469 1.414 . S
C2470 C2471 1.374 . S
C2471 H2451 0.950 . S
C2471 C2467 1.385 . S
C2471 C2470 1.374 . S
C2472 C2469 1.499 . S
C2472 C2473 1.373 . S
C2472 C2474 1.389 . S
C2473 H2452 0.950 . S
C2473 C2472 1.373 . S
C2473 C2489 1.377 1_545 S
C2474 C2472 1.389 . S
C2474 C2475 1.524 . S
C2474 C2488 1.377 1_545 S
C2475 C2474 1.524 . S
C2475 C2476 1.397 . S
C2475 C2480 1.363 1_545 S
C2476 H2453 0.950 . S
C2476 C2475 1.397 . S
C2476 C2477 1.334 . S
C2477 H2454 0.950 . S
C2477 C2476 1.334 . S
C2477 C2478 1.287 . S
C2478 C2477 1.287 . S
C2478 C2479 1.524 1_545 S
C2478 H2497 0.913 . S
C2479 H2455 0.950 . S
C2479 C2478 1.524 1_565 S
C2479 C2480 1.415 . S
C2480 H2456 0.950 . S
C2480 C2475 1.363 1_565 S
C2480 C2479 1.415 . S
C2481 H2457 0.951 . S
C2481 C2482 1.366 . S
C2481 C2483 1.388 . S
C2482 C2481 1.366 . S
C2482 C2486 1.385 . S
C2483 H2458 0.951 . S
C2483 C2481 1.388 . S
C2483 C2484 1.366 . S
C2484 C2483 1.366 . S
C2484 C2485 1.414 . S
C2484 C2487 1.499 . S
C2485 H2459 0.950 . S
C2485 C2484 1.414 . S
C2485 C2486 1.374 . S
C2486 H2460 0.950 . S
C2486 C2482 1.385 . S
C2486 C2485 1.374 . S
C2487 C2484 1.499 . S
C2487 C2488 1.373 . S
C2487 C2489 1.389 . S
C2488 H2461 0.950 . S
C2488 C2474 1.377 1_565 S
C2488 C2487 1.373 . S
C2489 C2473 1.377 1_565 S
C2489 C2487 1.389 . S
C2489 C2490 1.524 . S
C2490 C2489 1.524 . S
C2490 C2491 1.397 . S
C2490 C2495 1.363 1_565 S
C2491 H2462 0.950 . S
C2491 C2490 1.397 . S
C2491 C2492 1.334 . S
C2492 H2463 0.950 . S
C2492 C2491 1.334 . S
C2492 C2493 1.287 . S
C2493 C2492 1.287 . S
C2493 C2494 1.524 1_565 S
C2493 H2496 0.999 . S
C2494 H2464 0.950 . S
C2494 C2493 1.524 1_545 S
C2494 C2495 1.415 . S
C2495 H2465 0.950 . S
C2495 C2490 1.363 1_545 S
C2495 C2494 1.415 . S
H2496 C2493 0.999 . S
H2497 C2478 0.913 . S
H2498 C2516 0.951 . S
H2499 C2518 0.951 . S
H2500 C2520 0.950 . S
H2501 C2521 0.950 . S
H2502 C2523 0.950 . S
H2503 C2526 0.950 . S
H2504 C2527 0.950 . S
H2505 C2529 0.950 . S
H2506 C2530 0.950 . S
H2507 C2531 0.951 . S
H2508 C2533 0.951 . S
H2509 C2535 0.950 . S
H2510 C2536 0.950 . S
H2511 C2538 0.950 . S
H2512 C2541 0.950 . S
H2513 C2542 0.950 . S
H2514 C2544 0.950 . S
H2515 C2545 0.950 . S
C2516 H2498 0.951 . S
C2516 C2517 1.366 . S
C2516 C2518 1.388 . S
C2517 C2516 1.366 . S
C2517 C2521 1.385 . S
C2518 H2499 0.951 . S
C2518 C2516 1.388 . S
C2518 C2519 1.366 . S
C2519 C2518 1.366 . S
C2519 C2520 1.414 . S
C2519 C2522 1.499 . S
C2520 H2500 0.950 . S
C2520 C2519 1.414 . S
C2520 C2521 1.374 . S
C2521 H2501 0.950 . S
C2521 C2517 1.385 . S
C2521 C2520 1.374 . S
C2522 C2519 1.499 . S
C2522 C2523 1.373 . S
C2522 C2524 1.389 . S
C2523 H2502 0.950 . S
C2523 C2522 1.373 . S
C2523 C2539 1.377 . S
C2524 C2522 1.389 . S
C2524 C2525 1.524 . S
C2524 C2538 1.377 . S
C2525 C2524 1.524 . S
C2525 C2526 1.397 . S
C2525 C2530 1.363 . S
C2526 H2503 0.950 . S
C2526 C2525 1.397 . S
C2526 C2527 1.334 . S
C2527 H2504 0.950 . S
C2527 C2526 1.334 . S
C2527 C2528 1.287 . S
C2528 C2527 1.287 . S
C2528 C2529 1.524 . S
C2528 H2547 0.913 . S
C2529 H2505 0.950 . S
C2529 C2528 1.524 . S
C2529 C2530 1.415 . S
C2530 H2506 0.950 . S
C2530 C2525 1.363 . S
C2530 C2529 1.415 . S
C2531 H2507 0.951 . S
C2531 C2532 1.366 . S
C2531 C2533 1.388 . S
C2532 C2531 1.366 . S
C2532 C2536 1.385 . S
C2533 H2508 0.951 . S
C2533 C2531 1.388 . S
C2533 C2534 1.366 . S
C2534 C2533 1.366 . S
C2534 C2535 1.414 . S
C2534 C2537 1.499 . S
C2535 H2509 0.950 . S
C2535 C2534 1.414 . S
C2535 C2536 1.374 . S
C2536 H2510 0.950 . S
C2536 C2532 1.385 . S
C2536 C2535 1.374 . S
C2537 C2534 1.499 . S
C2537 C2538 1.373 . S
C2537 C2539 1.389 . S
C2538 H2511 0.950 . S
C2538 C2524 1.377 . S
C2538 C2537 1.373 . S
C2539 C2523 1.377 . S
C2539 C2537 1.389 . S
C2539 C2540 1.524 . S
C2540 C2539 1.524 . S
C2540 C2541 1.397 . S
C2540 C2545 1.363 . S
C2541 H2512 0.950 . S
C2541 C2540 1.397 . S
C2541 C2542 1.334 . S
C2542 H2513 0.950 . S
C2542 C2541 1.334 . S
C2542 C2543 1.287 . S
C2543 C2542 1.287 . S
C2543 C2544 1.524 . S
C2543 H2546 0.999 . S
C2544 H2514 0.950 . S
C2544 C2543 1.524 . S
C2544 C2545 1.415 . S
C2545 H2515 0.950 . S
C2545 C2540 1.363 . S
C2545 C2544 1.415 . S
H2546 C2543 0.999 . S
H2547 C2528 0.913 . S
H2548 C2566 0.951 . S
H2549 C2568 0.951 . S
H2550 C2570 0.950 . S
H2551 C2571 0.950 . S
H2552 C2573 0.950 . S
H2553 C2576 0.950 . S
H2554 C2577 0.950 . S
H2555 C2579 0.950 . S
H2556 C2580 0.950 . S
H2557 C2581 0.951 . S
H2558 C2583 0.951 . S
H2559 C2585 0.950 . S
H2560 C2586 0.950 . S
H2561 C2588 0.950 . S
H2562 C2591 0.950 . S
H2563 C2592 0.950 . S
H2564 C2594 0.950 . S
H2565 C2595 0.950 . S
C2566 H2548 0.951 . S
C2566 C2567 1.366 . S
C2566 C2568 1.388 . S
C2567 C2566 1.366 . S
C2567 C2571 1.385 . S
C2568 H2549 0.951 . S
C2568 C2566 1.388 . S
C2568 C2569 1.366 . S
C2569 C2568 1.366 . S
C2569 C2570 1.414 . S
C2569 C2572 1.499 . S
C2570 H2550 0.950 . S
C2570 C2569 1.414 . S
C2570 C2571 1.374 . S
C2571 H2551 0.950 . S
C2571 C2567 1.385 . S
C2571 C2570 1.374 . S
C2572 C2569 1.499 . S
C2572 C2573 1.373 1_565 S
C2572 C2574 1.389 1_554 S
C2573 H2552 0.950 . S
C2573 C2572 1.373 1_545 S
C2573 C2589 1.377 . S
C2574 C2572 1.389 1_556 S
C2574 C2575 1.524 . S
C2574 C2588 1.377 . S
C2575 C2574 1.524 . S
C2575 C2576 1.397 . S
C2575 C2580 1.363 . S
C2576 H2553 0.950 . S
C2576 C2575 1.397 . S
C2576 C2577 1.334 . S
C2577 H2554 0.950 . S
C2577 C2576 1.334 . S
C2577 C2578 1.287 . S
C2578 C2577 1.287 . S
C2578 C2579 1.524 . S
C2578 H2597 0.913 . S
C2579 H2555 0.950 . S
C2579 C2578 1.524 . S
C2579 C2580 1.415 . S
C2580 H2556 0.950 . S
C2580 C2575 1.363 . S
C2580 C2579 1.415 . S
C2581 H2557 0.951 . S
C2581 C2582 1.366 . S
C2581 C2583 1.388 . S
C2582 C2581 1.366 . S
C2582 C2586 1.385 . S
C2583 H2558 0.951 . S
C2583 C2581 1.388 . S
C2583 C2584 1.366 . S
C2584 C2583 1.366 . S
C2584 C2585 1.414 . S
C2584 C2587 1.499 . S
C2585 H2559 0.950 . S
C2585 C2584 1.414 . S
C2585 C2586 1.374 . S
C2586 H2560 0.950 . S
C2586 C2582 1.385 . S
C2586 C2585 1.374 . S
C2587 C2584 1.499 . S
C2587 C2588 1.373 1_545 S
C2587 C2589 1.389 1_556 S
C2588 H2561 0.950 . S
C2588 C2574 1.377 . S
C2588 C2587 1.373 1_565 S
C2589 C2573 1.377 . S
C2589 C2587 1.389 1_554 S
C2589 C2590 1.524 . S
C2590 C2589 1.524 . S
C2590 C2591 1.397 . S
C2590 C2595 1.363 . S
C2591 H2562 0.950 . S
C2591 C2590 1.397 . S
C2591 C2592 1.334 . S
C2592 H2563 0.950 . S
C2592 C2591 1.334 . S
C2592 C2593 1.287 . S
C2593 C2592 1.287 . S
C2593 C2594 1.524 . S
C2593 H2596 0.999 . S
C2594 H2564 0.950 . S
C2594 C2593 1.524 . S
C2594 C2595 1.415 . S
C2595 H2565 0.950 . S
C2595 C2590 1.363 . S
C2595 C2594 1.415 . S
H2596 C2593 0.999 . S
H2597 C2578 0.913 . S
H2598 C2616 0.951 . S
H2599 C2618 0.951 . S
H2600 C2620 0.950 . S
H2601 C2621 0.950 . S
H2602 C2623 0.950 . S
H2603 C2626 0.950 . S
H2604 C2627 0.950 . S
H2605 C2629 0.950 . S
H2606 C2630 0.950 . S
H2607 C2631 0.951 . S
H2608 C2633 0.951 . S
H2609 C2635 0.950 . S
H2610 C2636 0.950 . S
H2611 C2638 0.950 . S
H2612 C2641 0.950 . S
H2613 C2642 0.950 . S
H2614 C2644 0.950 . S
H2615 C2645 0.950 . S
C2616 H2598 0.951 . S
C2616 C2617 1.366 . S
C2616 C2618 1.388 . S
C2617 C2616 1.366 . S
C2617 C2621 1.385 . S
C2618 H2599 0.951 . S
C2618 C2616 1.388 . S
C2618 C2619 1.366 . S
C2619 C2618 1.366 . S
C2619 C2620 1.414 . S
C2619 C2622 1.499 . S
C2620 H2600 0.950 . S
C2620 C2619 1.414 . S
C2620 C2621 1.374 . S
C2621 H2601 0.950 . S
C2621 C2617 1.385 . S
C2621 C2620 1.374 . S
C2622 C2619 1.499 . S
C2622 C2623 1.373 . S
C2622 C2624 1.389 . S
C2623 H2602 0.950 . S
C2623 C2622 1.373 . S
C2623 C2639 1.377 . S
C2624 C2622 1.389 . S
C2624 C2625 1.524 . S
C2624 C2638 1.377 . S
C2625 C2624 1.524 . S
C2625 C2626 1.397 . S
C2625 C2630 1.363 . S
C2626 H2603 0.950 . S
C2626 C2625 1.397 . S
C2626 C2627 1.334 . S
C2627 H2604 0.950 . S
C2627 C2626 1.334 . S
C2627 C2628 1.287 . S
C2628 C2627 1.287 . S
C2628 C2629 1.524 . S
C2628 H2647 0.913 . S
C2629 H2605 0.950 . S
C2629 C2628 1.524 . S
C2629 C2630 1.415 . S
C2630 H2606 0.950 . S
C2630 C2625 1.363 . S
C2630 C2629 1.415 . S
C2631 H2607 0.951 . S
C2631 C2632 1.366 . S
C2631 C2633 1.388 . S
C2632 C2631 1.366 . S
C2632 C2636 1.385 . S
C2633 H2608 0.951 . S
C2633 C2631 1.388 . S
C2633 C2634 1.366 . S
C2634 C2633 1.366 . S
C2634 C2635 1.414 . S
C2634 C2637 1.499 . S
C2635 H2609 0.950 . S
C2635 C2634 1.414 . S
C2635 C2636 1.374 . S
C2636 H2610 0.950 . S
C2636 C2632 1.385 . S
C2636 C2635 1.374 . S
C2637 C2634 1.499 . S
C2637 C2638 1.373 . S
C2637 C2639 1.389 . S
C2638 H2611 0.950 . S
C2638 C2624 1.377 . S
C2638 C2637 1.373 . S
C2639 C2623 1.377 . S
C2639 C2637 1.389 . S
C2639 C2640 1.524 . S
C2640 C2639 1.524 . S
C2640 C2641 1.397 . S
C2640 C2645 1.363 . S
C2641 H2612 0.950 . S
C2641 C2640 1.397 . S
C2641 C2642 1.334 . S
C2642 H2613 0.950 . S
C2642 C2641 1.334 . S
C2642 C2643 1.287 . S
C2643 C2642 1.287 . S
C2643 C2644 1.524 . S
C2643 H2646 0.999 . S
C2644 H2614 0.950 . S
C2644 C2643 1.524 . S
C2644 C2645 1.415 . S
C2645 H2615 0.950 . S
C2645 C2640 1.363 . S
C2645 C2644 1.415 . S
H2646 C2643 0.999 . S
H2647 C2628 0.913 . S
H2648 C2666 0.951 . S
H2649 C2668 0.951 . S
H2650 C2670 0.950 . S
H2651 C2671 0.950 . S
H2652 C2673 0.950 . S
H2653 C2676 0.950 . S
H2654 C2677 0.950 . S
H2655 C2679 0.950 . S
H2656 C2680 0.950 . S
H2657 C2681 0.951 . S
H2658 C2683 0.951 . S
H2659 C2685 0.950 . S
H2660 C2686 0.950 . S
H2661 C2688 0.950 . S
H2662 C2691 0.950 . S
H2663 C2692 0.950 . S
H2664 C2694 0.950 . S
H2665 C2695 0.950 . S
C2666 H2648 0.951 . S
C2666 C2667 1.366 . S
C2666 C2668 1.388 . S
C2667 C2666 1.366 . S
C2667 C2671 1.385 . S
C2668 H2649 0.951 . S
C2668 C2666 1.388 . S
C2668 C2669 1.366 . S
C2669 C2668 1.366 . S
C2669 C2670 1.414 . S
C2669 C2672 1.499 . S
C2670 H2650 0.950 . S
C2670 C2669 1.414 . S
C2670 C2671 1.374 . S
C2671 H2651 0.950 . S
C2671 C2667 1.385 . S
C2671 C2670 1.374 . S
C2672 C2669 1.499 . S
C2672 C2673 1.373 . S
C2672 C2674 1.389 . S
C2673 H2652 0.950 . S
C2673 C2672 1.373 . S
C2673 C2689 1.377 1_545 S
C2674 C2672 1.389 . S
C2674 C2675 1.524 . S
C2674 C2688 1.377 1_545 S
C2675 C2674 1.524 . S
C2675 C2676 1.397 . S
C2675 C2680 1.363 . S
C2676 H2653 0.950 . S
C2676 C2675 1.397 . S
C2676 C2677 1.334 . S
C2677 H2654 0.950 . S
C2677 C2676 1.334 . S
C2677 C2678 1.287 . S
C2678 C2677 1.287 . S
C2678 C2679 1.524 . S
C2678 H2697 0.913 . S
C2679 H2655 0.950 . S
C2679 C2678 1.524 . S
C2679 C2680 1.415 . S
C2680 H2656 0.950 . S
C2680 C2675 1.363 . S
C2680 C2679 1.415 . S
C2681 H2657 0.951 . S
C2681 C2682 1.366 . S
C2681 C2683 1.388 . S
C2682 C2681 1.366 . S
C2682 C2686 1.385 . S
C2683 H2658 0.951 . S
C2683 C2681 1.388 . S
C2683 C2684 1.366 . S
C2684 C2683 1.366 . S
C2684 C2685 1.414 . S
C2684 C2687 1.499 . S
C2685 H2659 0.950 . S
C2685 C2684 1.414 . S
C2685 C2686 1.374 . S
C2686 H2660 0.950 . S
C2686 C2682 1.385 . S
C2686 C2685 1.374 . S
C2687 C2684 1.499 . S
C2687 C2688 1.373 . S
C2687 C2689 1.389 . S
C2688 H2661 0.950 . S
C2688 C2674 1.377 1_565 S
C2688 C2687 1.373 . S
C2689 C2673 1.377 1_565 S
C2689 C2687 1.389 . S
C2689 C2690 1.524 . S
C2690 C2689 1.524 . S
C2690 C2691 1.397 . S
C2690 C2695 1.363 . S
C2691 H2662 0.950 . S
C2691 C2690 1.397 . S
C2691 C2692 1.334 . S
C2692 H2663 0.950 . S
C2692 C2691 1.334 . S
C2692 C2693 1.287 . S
C2693 C2692 1.287 . S
C2693 C2694 1.524 . S
C2693 H2696 0.999 . S
C2694 H2664 0.950 . S
C2694 C2693 1.524 . S
C2694 C2695 1.415 . S
C2695 H2665 0.950 . S
C2695 C2690 1.363 . S
C2695 C2694 1.415 . S
H2696 C2693 0.999 . S
H2697 C2678 0.913 . S
H2698 C2716 0.951 . S
H2699 C2718 0.951 . S
H2700 C2720 0.950 . S
H2701 C2721 0.950 . S
H2702 C2723 0.950 . S
H2703 C2726 0.950 . S
H2704 C2727 0.950 . S
H2705 C2729 0.950 . S
H2706 C2730 0.950 . S
H2707 C2731 0.951 . S
H2708 C2733 0.951 . S
H2709 C2735 0.950 . S
H2710 C2736 0.950 . S
H2711 C2738 0.950 . S
H2712 C2741 0.950 . S
H2713 C2742 0.950 . S
H2714 C2744 0.950 . S
H2715 C2745 0.950 . S
C2716 H2698 0.951 . S
C2716 C2717 1.366 . S
C2716 C2718 1.388 . S
C2717 C2716 1.366 . S
C2717 C2721 1.385 . S
C2718 H2699 0.951 . S
C2718 C2716 1.388 . S
C2718 C2719 1.366 . S
C2719 C2718 1.366 . S
C2719 C2720 1.414 . S
C2719 C2722 1.499 . S
C2720 H2700 0.950 . S
C2720 C2719 1.414 . S
C2720 C2721 1.374 . S
C2721 H2701 0.950 . S
C2721 C2717 1.385 . S
C2721 C2720 1.374 . S
C2722 C2719 1.499 . S
C2722 C2723 1.373 . S
C2722 C2724 1.389 . S
C2723 H2702 0.950 . S
C2723 C2722 1.373 . S
C2723 C2739 1.377 . S
C2724 C2722 1.389 . S
C2724 C2725 1.524 . S
C2724 C2738 1.377 . S
C2725 C2724 1.524 . S
C2725 C2726 1.397 . S
C2725 C2730 1.363 . S
C2726 H2703 0.950 . S
C2726 C2725 1.397 . S
C2726 C2727 1.334 . S
C2727 H2704 0.950 . S
C2727 C2726 1.334 . S
C2727 C2728 1.287 . S
C2728 C2727 1.287 . S
C2728 C2729 1.524 . S
C2728 H2747 0.913 . S
C2729 H2705 0.950 . S
C2729 C2728 1.524 . S
C2729 C2730 1.415 . S
C2730 H2706 0.950 . S
C2730 C2725 1.363 . S
C2730 C2729 1.415 . S
C2731 H2707 0.951 . S
C2731 C2732 1.366 . S
C2731 C2733 1.388 . S
C2732 C2731 1.366 . S
C2732 C2736 1.385 . S
C2733 H2708 0.951 . S
C2733 C2731 1.388 . S
C2733 C2734 1.366 . S
C2734 C2733 1.366 . S
C2734 C2735 1.414 . S
C2734 C2737 1.499 . S
C2735 H2709 0.950 . S
C2735 C2734 1.414 . S
C2735 C2736 1.374 . S
C2736 H2710 0.950 . S
C2736 C2732 1.385 . S
C2736 C2735 1.374 . S
C2737 C2734 1.499 . S
C2737 C2738 1.373 . S
C2737 C2739 1.389 . S
C2738 H2711 0.950 . S
C2738 C2724 1.377 . S
C2738 C2737 1.373 . S
C2739 C2723 1.377 . S
C2739 C2737 1.389 . S
C2739 C2740 1.524 . S
C2740 C2739 1.524 . S
C2740 C2741 1.397 . S
C2740 C2745 1.363 . S
C2741 H2712 0.950 . S
C2741 C2740 1.397 . S
C2741 C2742 1.334 . S
C2742 H2713 0.950 . S
C2742 C2741 1.334 . S
C2742 C2743 1.287 . S
C2743 C2742 1.287 . S
C2743 C2744 1.524 . S
C2743 H2746 0.999 . S
C2744 H2714 0.950 . S
C2744 C2743 1.524 . S
C2744 C2745 1.415 . S
C2745 H2715 0.950 . S
C2745 C2740 1.363 . S
C2745 C2744 1.415 . S
H2746 C2743 0.999 . S
H2747 C2728 0.913 . S
H2748 C2766 0.951 . S
H2749 C2768 0.951 . S
H2750 C2770 0.950 . S
H2751 C2771 0.950 . S
H2752 C2773 0.950 . S
H2753 C2776 0.950 . S
H2754 C2777 0.950 . S
H2755 C2779 0.950 . S
H2756 C2780 1.003 . S
H2757 C2781 0.951 . S
H2758 C2783 0.951 . S
H2759 C2785 0.950 . S
H2760 C2786 0.950 . S
H2761 C2788 0.950 . S
H2762 C2791 0.950 . S
H2763 C2792 0.950 . S
H2764 C2794 0.950 . S
H2765 C2795 1.003 . S
C2766 H2748 0.951 . S
C2766 C2767 1.366 . S
C2766 C2768 1.388 . S
C2767 C2766 1.366 . S
C2767 C2771 1.385 . S
C2768 H2749 0.951 . S
C2768 C2766 1.388 . S
C2768 C2769 1.366 . S
C2769 C2768 1.366 . S
C2769 C2770 1.414 . S
C2769 C2772 1.499 . S
C2770 H2750 0.950 . S
C2770 C2769 1.414 . S
C2770 C2771 1.374 . S
C2771 H2751 0.950 . S
C2771 C2767 1.385 . S
C2771 C2770 1.374 . S
C2772 C2769 1.499 . S
C2772 C2773 1.373 . S
C2772 C2774 1.389 . S
C2773 H2752 0.950 . S
C2773 C2772 1.373 . S
C2773 C2789 1.377 1_564 S
C2774 C2772 1.389 . S
C2774 C2775 1.524 . S
C2774 C2788 1.377 1_564 S
C2775 C2774 1.524 . S
C2775 C2776 1.397 . S
C2775 C2780 1.363 . S
C2776 H2753 0.950 . S
C2776 C2775 1.397 . S
C2776 C2777 1.334 . S
C2777 H2754 0.950 . S
C2777 C2776 1.334 . S
C2777 C2778 1.287 . S
C2778 C2777 1.287 . S
C2778 C2779 1.524 . S
C2778 H2797 0.913 . S
C2779 H2755 0.950 . S
C2779 C2778 1.524 . S
C2779 C2780 1.415 . S
C2780 H2756 1.003 . S
C2780 C2775 1.363 . S
C2780 C2779 1.415 . S
C2781 H2757 0.951 . S
C2781 C2782 1.366 . S
C2781 C2783 1.388 . S
C2782 C2781 1.366 . S
C2782 C2786 1.385 . S
C2783 H2758 0.951 . S
C2783 C2781 1.388 . S
C2783 C2784 1.366 . S
C2784 C2783 1.366 . S
C2784 C2785 1.414 . S
C2784 C2787 1.499 . S
C2785 H2759 0.950 . S
C2785 C2784 1.414 . S
C2785 C2786 1.374 . S
C2786 H2760 0.950 . S
C2786 C2782 1.385 . S
C2786 C2785 1.374 . S
C2787 C2784 1.499 . S
C2787 C2788 1.373 . S
C2787 C2789 1.389 . S
C2788 H2761 0.950 . S
C2788 C2774 1.377 1_546 S
C2788 C2787 1.373 . S
C2789 C2773 1.377 1_546 S
C2789 C2787 1.389 . S
C2789 C2790 1.524 . S
C2790 C2789 1.524 . S
C2790 C2791 1.397 . S
C2790 C2795 1.363 . S
C2791 H2762 0.950 . S
C2791 C2790 1.397 . S
C2791 C2792 1.334 . S
C2792 H2763 0.950 . S
C2792 C2791 1.334 . S
C2792 C2793 1.287 . S
C2793 C2792 1.287 . S
C2793 C2794 1.524 . S
C2793 H2796 0.999 . S
C2794 H2764 0.950 . S
C2794 C2793 1.524 . S
C2794 C2795 1.415 . S
C2795 H2765 1.003 . S
C2795 C2790 1.363 . S
C2795 C2794 1.415 . S
H2796 C2793 0.999 . S
H2797 C2778 0.913 . S
H2798 C2816 0.951 . S
H2799 C2818 0.951 . S
H2800 C2820 0.950 . S
H2801 C2821 0.950 . S
H2802 C2823 0.950 . S
H2803 C2826 0.950 . S
H2804 C2827 0.950 . S
H2805 C2829 0.950 . S
H2806 C2830 0.950 . S
H2807 C2831 0.951 . S
H2808 C2833 0.951 . S
H2809 C2835 0.950 . S
H2810 C2836 0.950 . S
H2811 C2838 0.950 . S
H2812 C2841 0.950 . S
H2813 C2842 0.950 . S
H2814 C2844 0.950 . S
H2815 C2845 0.950 . S
C2816 H2798 0.951 . S
C2816 C2817 1.366 . S
C2816 C2818 1.388 . S
C2817 C2816 1.366 . S
C2817 C2821 1.385 . S
C2818 H2799 0.951 . S
C2818 C2816 1.388 . S
C2818 C2819 1.366 . S
C2819 C2818 1.366 . S
C2819 C2820 1.414 . S
C2819 C2822 1.499 . S
C2820 H2800 0.950 . S
C2820 C2819 1.414 . S
C2820 C2821 1.374 . S
C2821 H2801 0.950 . S
C2821 C2817 1.385 . S
C2821 C2820 1.374 . S
C2822 C2819 1.499 . S
C2822 C2823 1.373 . S
C2822 C2824 1.389 . S
C2823 H2802 0.950 . S
C2823 C2822 1.373 . S
C2823 C2839 1.377 . S
C2824 C2822 1.389 . S
C2824 C2825 1.524 . S
C2824 C2838 1.377 . S
C2825 C2824 1.524 . S
C2825 C2826 1.397 . S
C2825 C2830 1.363 . S
C2826 H2803 0.950 . S
C2826 C2825 1.397 . S
C2826 C2827 1.334 . S
C2827 H2804 0.950 . S
C2827 C2826 1.334 . S
C2827 C2828 1.287 . S
C2828 C2827 1.287 . S
C2828 C2829 1.524 . S
C2828 H2847 0.913 . S
C2829 H2805 0.950 . S
C2829 C2828 1.524 . S
C2829 C2830 1.415 . S
C2830 H2806 0.950 . S
C2830 C2825 1.363 . S
C2830 C2829 1.415 . S
C2831 H2807 0.951 . S
C2831 C2832 1.366 . S
C2831 C2833 1.388 . S
C2832 C2831 1.366 . S
C2832 C2836 1.385 . S
C2833 H2808 0.951 . S
C2833 C2831 1.388 . S
C2833 C2834 1.366 . S
C2834 C2833 1.366 . S
C2834 C2835 1.414 . S
C2834 C2837 1.499 . S
C2835 H2809 0.950 . S
C2835 C2834 1.414 . S
C2835 C2836 1.374 . S
C2836 H2810 0.950 . S
C2836 C2832 1.385 . S
C2836 C2835 1.374 . S
C2837 C2834 1.499 . S
C2837 C2838 1.373 . S
C2837 C2839 1.389 . S
C2838 H2811 0.950 . S
C2838 C2824 1.377 . S
C2838 C2837 1.373 . S
C2839 C2823 1.377 . S
C2839 C2837 1.389 . S
C2839 C2840 1.524 . S
C2840 C2839 1.524 . S
C2840 C2841 1.397 . S
C2840 C2845 1.363 . S
C2841 H2812 0.950 . S
C2841 C2840 1.397 . S
C2841 C2842 1.334 . S
C2842 H2813 0.950 . S
C2842 C2841 1.334 . S
C2842 C2843 1.287 . S
C2843 C2842 1.287 . S
C2843 C2844 1.524 . S
C2843 H2846 0.999 . S
C2844 H2814 0.950 . S
C2844 C2843 1.524 . S
C2844 C2845 1.415 . S
C2845 H2815 0.950 . S
C2845 C2840 1.363 . S
C2845 C2844 1.415 . S
H2846 C2843 0.999 . S
H2847 C2828 0.913 . S
H2848 C2866 0.951 . S
H2849 C2868 0.951 . S
H2850 C2870 0.950 . S
H2851 C2871 0.950 . S
H2852 C2873 0.950 . S
H2853 C2876 0.950 . S
H2854 C2877 0.950 . S
H2855 C2879 0.950 . S
H2856 C2880 0.950 . S
H2857 C2881 0.951 . S
H2858 C2883 0.951 . S
H2859 C2885 0.950 . S
H2860 C2886 0.950 . S
H2861 C2888 0.950 . S
H2862 C2891 0.950 . S
H2863 C2892 0.950 . S
H2864 C2894 0.950 1_556 S
H2865 C2895 0.950 . S
C2866 H2848 0.951 . S
C2866 C2867 1.366 . S
C2866 C2868 1.388 . S
C2867 C2866 1.366 . S
C2867 C2871 1.385 . S
C2868 H2849 0.951 . S
C2868 C2866 1.388 . S
C2868 C2869 1.366 . S
C2869 C2868 1.366 . S
C2869 C2870 1.414 . S
C2869 C2872 1.499 . S
C2870 H2850 0.950 . S
C2870 C2869 1.414 . S
C2870 C2871 1.374 . S
C2871 H2851 0.950 . S
C2871 C2867 1.385 . S
C2871 C2870 1.374 . S
C2872 C2869 1.499 . S
C2872 C2873 1.373 . S
C2872 C2874 1.389 . S
C2873 H2852 0.950 . S
C2873 C2872 1.373 . S
C2873 C2889 1.377 . S
C2874 C2872 1.389 . S
C2874 C2875 1.524 . S
C2874 C2888 1.377 . S
C2875 C2874 1.524 . S
C2875 C2876 1.397 . S
C2875 C2880 1.363 . S
C2876 H2853 0.950 . S
C2876 C2875 1.397 . S
C2876 C2877 1.334 . S
C2877 H2854 0.950 . S
C2877 C2876 1.334 . S
C2877 C2878 1.287 . S
C2878 C2877 1.287 . S
C2878 C2879 1.524 . S
C2878 H2897 0.913 . S
C2879 H2855 0.950 . S
C2879 C2878 1.524 . S
C2879 C2880 1.415 . S
C2880 H2856 0.950 . S
C2880 C2875 1.363 . S
C2880 C2879 1.415 . S
C2881 H2857 0.951 . S
C2881 C2882 1.366 . S
C2881 C2883 1.388 . S
C2882 C2881 1.366 . S
C2882 C2886 1.385 . S
C2883 H2858 0.951 . S
C2883 C2881 1.388 . S
C2883 C2884 1.366 . S
C2884 C2883 1.366 . S
C2884 C2885 1.414 . S
C2884 C2887 1.499 . S
C2885 H2859 0.950 . S
C2885 C2884 1.414 . S
C2885 C2886 1.374 . S
C2886 H2860 0.950 . S
C2886 C2882 1.385 . S
C2886 C2885 1.374 . S
C2887 C2884 1.499 . S
C2887 C2888 1.373 . S
C2887 C2889 1.389 . S
C2888 H2861 0.950 . S
C2888 C2874 1.377 . S
C2888 C2887 1.373 . S
C2889 C2873 1.377 . S
C2889 C2887 1.389 . S
C2889 C2890 1.524 . S
C2890 C2889 1.524 . S
C2890 C2891 1.397 . S
C2890 C2895 1.363 . S
C2891 H2862 0.950 . S
C2891 C2890 1.397 . S
C2891 C2892 1.334 . S
C2892 H2863 0.950 . S
C2892 C2891 1.334 . S
C2892 C2893 1.231 1_554 S
C2893 C2892 1.231 1_556 S
C2893 C2894 1.504 1_556 S
C2893 H2896 1.090 . S
C2894 H2864 0.950 1_554 S
C2894 C2893 1.504 1_554 S
C2894 C2895 1.415 . S
C2895 H2865 0.950 . S
C2895 C2890 1.363 . S
C2895 C2894 1.415 . S
H2896 C2893 1.090 . S
H2897 C2878 0.913 . S
H2898 C2916 0.951 . S
H2899 C2918 0.951 . S
H2900 C2920 0.950 . S
H2901 C2921 0.950 . S
H2902 C2923 0.950 . S
H2903 C2926 0.950 . S
H2904 C2927 0.950 . S
H2905 C2929 0.950 . S
H2906 C2930 0.950 . S
H2907 C2931 0.951 . S
H2908 C2933 0.951 . S
H2909 C2935 0.950 . S
H2910 C2936 0.950 . S
H2911 C2938 0.950 . S
H2912 C2941 0.950 . S
H2913 C2942 0.950 . S
H2914 C2944 0.950 . S
H2915 C2945 0.950 . S
C2916 H2898 0.951 . S
C2916 C2917 1.366 . S
C2916 C2918 1.388 . S
C2917 C2916 1.366 . S
C2917 C2921 1.385 . S
C2918 H2899 0.951 . S
C2918 C2916 1.388 . S
C2918 C2919 1.366 . S
C2919 C2918 1.366 . S
C2919 C2920 1.414 . S
C2919 C2922 1.499 . S
C2920 H2900 0.950 . S
C2920 C2919 1.414 . S
C2920 C2921 1.374 . S
C2921 H2901 0.950 . S
C2921 C2917 1.385 . S
C2921 C2920 1.374 . S
C2922 C2919 1.499 . S
C2922 C2923 1.373 . S
C2922 C2924 1.389 . S
C2923 H2902 0.950 . S
C2923 C2922 1.373 . S
C2923 C2939 1.377 . S
C2924 C2922 1.389 . S
C2924 C2925 1.524 . S
C2924 C2938 1.377 . S
C2925 C2924 1.524 . S
C2925 C2926 1.397 . S
C2925 C2930 1.363 . S
C2926 H2903 0.950 . S
C2926 C2925 1.397 . S
C2926 C2927 1.334 . S
C2927 H2904 0.950 . S
C2927 C2926 1.334 . S
C2927 C2928 1.287 . S
C2928 C2927 1.287 . S
C2928 C2929 1.524 . S
C2928 H2947 0.913 . S
C2929 H2905 0.950 . S
C2929 C2928 1.524 . S
C2929 C2930 1.415 . S
C2930 H2906 0.950 . S
C2930 C2925 1.363 . S
C2930 C2929 1.415 . S
C2931 H2907 0.951 . S
C2931 C2932 1.366 . S
C2931 C2933 1.388 . S
C2932 C2931 1.366 . S
C2932 C2936 1.385 . S
C2933 H2908 0.951 . S
C2933 C2931 1.388 . S
C2933 C2934 1.366 . S
C2934 C2933 1.366 . S
C2934 C2935 1.414 . S
C2934 C2937 1.499 . S
C2935 H2909 0.950 . S
C2935 C2934 1.414 . S
C2935 C2936 1.374 . S
C2936 H2910 0.950 . S
C2936 C2932 1.385 . S
C2936 C2935 1.374 . S
C2937 C2934 1.499 . S
C2937 C2938 1.373 . S
C2937 C2939 1.389 . S
C2938 H2911 0.950 . S
C2938 C2924 1.377 . S
C2938 C2937 1.373 . S
C2939 C2923 1.377 . S
C2939 C2937 1.389 . S
C2939 C2940 1.524 . S
C2940 C2939 1.524 . S
C2940 C2941 1.397 . S
C2940 C2945 1.363 . S
C2941 H2912 0.950 . S
C2941 C2940 1.397 . S
C2941 C2942 1.334 . S
C2942 H2913 0.950 . S
C2942 C2941 1.334 . S
C2942 C2943 1.287 . S
C2943 C2942 1.287 . S
C2943 C2944 1.524 . S
C2943 H2946 0.999 . S
C2944 H2914 0.950 . S
C2944 C2943 1.524 . S
C2944 C2945 1.415 . S
C2945 H2915 0.950 . S
C2945 C2940 1.363 . S
C2945 C2944 1.415 . S
H2946 C2943 0.999 . S
H2947 C2928 0.913 . S
H2948 C2966 0.951 . S
H2949 C2968 0.951 . S
H2950 C2970 0.950 . S
H2951 C2971 0.950 . S
H2952 C2973 0.950 . S
H2953 C2976 0.950 . S
H2954 C2977 0.950 . S
H2955 C2979 0.950 . S
H2956 C2980 0.950 . S
H2957 C2981 0.951 . S
H2958 C2983 0.951 . S
H2959 C2985 0.950 . S
H2960 C2986 0.950 . S
H2961 C2988 0.950 . S
H2962 C2991 0.950 . S
H2963 C2992 0.950 . S
H2964 C2994 0.950 . S
H2965 C2995 0.950 . S
C2966 H2948 0.951 . S
C2966 C2967 1.366 . S
C2966 C2968 1.388 . S
C2967 C2966 1.366 . S
C2967 C2971 1.385 . S
C2968 H2949 0.951 . S
C2968 C2966 1.388 . S
C2968 C2969 1.366 . S
C2969 C2968 1.366 . S
C2969 C2970 1.414 . S
C2969 C2972 1.499 . S
C2970 H2950 0.950 . S
C2970 C2969 1.414 . S
C2970 C2971 1.374 . S
C2971 H2951 0.950 . S
C2971 C2967 1.385 . S
C2971 C2970 1.374 . S
C2972 C2969 1.499 . S
C2972 C2973 1.373 . S
C2972 C2974 1.389 . S
C2973 H2952 0.950 . S
C2973 C2972 1.373 . S
C2973 C2989 1.377 . S
C2974 C2972 1.389 . S
C2974 C2975 1.524 . S
C2974 C2988 1.377 . S
C2975 C2974 1.524 . S
C2975 C2976 1.397 . S
C2975 C2980 1.363 . S
C2976 H2953 0.950 . S
C2976 C2975 1.397 . S
C2976 C2977 1.334 . S
C2977 H2954 0.950 . S
C2977 C2976 1.334 . S
C2977 C2978 1.287 . S
C2978 C2977 1.287 . S
C2978 C2979 1.524 . S
C2978 H2997 0.913 . S
C2979 H2955 0.950 . S
C2979 C2978 1.524 . S
C2979 C2980 1.415 . S
C2980 H2956 0.950 . S
C2980 C2975 1.363 . S
C2980 C2979 1.415 . S
C2981 H2957 0.951 . S
C2981 C2982 1.366 . S
C2981 C2983 1.388 . S
C2982 C2981 1.366 . S
C2982 C2986 1.385 . S
C2983 H2958 0.951 . S
C2983 C2981 1.388 . S
C2983 C2984 1.366 . S
C2984 C2983 1.366 . S
C2984 C2985 1.414 . S
C2984 C2987 1.499 . S
C2985 H2959 0.950 . S
C2985 C2984 1.414 . S
C2985 C2986 1.374 . S
C2986 H2960 0.950 . S
C2986 C2982 1.385 . S
C2986 C2985 1.374 . S
C2987 C2984 1.499 . S
C2987 C2988 1.373 . S
C2987 C2989 1.389 . S
C2988 H2961 0.950 . S
C2988 C2974 1.377 . S
C2988 C2987 1.373 . S
C2989 C2973 1.377 . S
C2989 C2987 1.389 . S
C2989 C2990 1.524 . S
C2990 C2989 1.524 . S
C2990 C2991 1.397 . S
C2990 C2995 1.363 . S
C2991 H2962 0.950 . S
C2991 C2990 1.397 . S
C2991 C2992 1.334 . S
C2992 H2963 0.950 . S
C2992 C2991 1.334 . S
C2992 C2993 1.287 . S
C2993 C2992 1.287 . S
C2993 C2994 1.524 . S
C2993 H2996 0.999 . S
C2994 H2964 0.950 . S
C2994 C2993 1.524 . S
C2994 C2995 1.415 . S
C2995 H2965 0.950 . S
C2995 C2990 1.363 . S
C2995 C2994 1.415 . S
H2996 C2993 0.999 . S
H2997 C2978 0.913 . S
H2998 C3016 0.951 . S
H2999 C3018 0.951 . S
H3000 C3020 0.950 . S
H3001 C3021 0.950 . S
H3002 C3023 0.950 . S
H3003 C3026 0.950 . S
H3004 C3027 0.950 . S
H3005 C3029 0.950 . S
H3006 C3030 0.950 . S
H3007 C3031 0.951 . S
H3008 C3033 0.951 . S
H3009 C3035 0.950 . S
H3010 C3036 0.950 . S
H3011 C3038 0.950 . S
H3012 C3041 0.950 . S
H3013 C3042 0.950 . S
H3014 C3044 0.950 . S
H3015 C3045 0.950 . S
C3016 H2998 0.951 . S
C3016 C3017 1.366 . S
C3016 C3018 1.388 . S
C3017 C3016 1.366 . S
C3017 C3021 1.385 . S
C3018 H2999 0.951 . S
C3018 C3016 1.388 . S
C3018 C3019 1.366 . S
C3019 C3018 1.366 . S
C3019 C3020 1.414 . S
C3019 C3022 1.499 . S
C3020 H3000 0.950 . S
C3020 C3019 1.414 . S
C3020 C3021 1.374 . S
C3021 H3001 0.950 . S
C3021 C3017 1.385 . S
C3021 C3020 1.374 . S
C3022 C3019 1.499 . S
C3022 C3023 1.373 . S
C3022 C3024 1.389 . S
C3023 H3002 0.950 . S
C3023 C3022 1.373 . S
C3023 C3039 1.377 1_655 S
C3024 C3022 1.389 . S
C3024 C3025 1.524 . S
C3024 C3038 1.377 1_655 S
C3025 C3024 1.524 . S
C3025 C3026 1.397 . S
C3025 C3030 1.363 . S
C3026 H3003 0.950 . S
C3026 C3025 1.397 . S
C3026 C3027 1.334 . S
C3027 H3004 0.950 . S
C3027 C3026 1.334 . S
C3027 C3028 1.287 . S
C3028 C3027 1.287 . S
C3028 C3029 1.524 . S
C3028 H3047 0.913 . S
C3029 H3005 0.950 . S
C3029 C3028 1.524 . S
C3029 C3030 1.415 . S
C3030 H3006 0.950 . S
C3030 C3025 1.363 . S
C3030 C3029 1.415 . S
C3031 H3007 0.951 . S
C3031 C3032 1.366 . S
C3031 C3033 1.388 . S
C3032 C3031 1.366 . S
C3032 C3036 1.385 . S
C3033 H3008 0.951 . S
C3033 C3031 1.388 . S
C3033 C3034 1.366 . S
C3034 C3033 1.366 . S
C3034 C3035 1.414 . S
C3034 C3037 1.499 . S
C3035 H3009 0.950 . S
C3035 C3034 1.414 . S
C3035 C3036 1.374 . S
C3036 H3010 0.950 . S
C3036 C3032 1.385 . S
C3036 C3035 1.374 . S
C3037 C3034 1.499 . S
C3037 C3038 1.373 . S
C3037 C3039 1.389 . S
C3038 H3011 0.950 . S
C3038 C3024 1.377 1_455 S
C3038 C3037 1.373 . S
C3039 C3023 1.377 1_455 S
C3039 C3037 1.389 . S
C3039 C3040 1.524 . S
C3040 C3039 1.524 . S
C3040 C3041 1.397 . S
C3040 C3045 1.363 . S
C3041 H3012 0.950 . S
C3041 C3040 1.397 . S
C3041 C3042 1.334 . S
C3042 H3013 0.950 . S
C3042 C3041 1.334 . S
C3042 C3043 1.287 . S
C3043 C3042 1.287 . S
C3043 C3044 1.524 . S
C3043 H3046 0.999 . S
C3044 H3014 0.950 . S
C3044 C3043 1.524 . S
C3044 C3045 1.415 . S
C3045 H3015 0.950 . S
C3045 C3040 1.363 . S
C3045 C3044 1.415 . S
H3046 C3043 0.999 . S
H3047 C3028 0.913 . S
H3048 C3066 0.951 . S
H3049 C3068 0.951 . S
H3050 C3070 0.950 . S
H3051 C3071 0.950 . S
H3052 C3073 0.950 . S
H3053 C3076 0.950 . S
H3054 C3077 0.950 . S
H3055 C3079 0.950 . S
H3056 C3080 0.950 . S
H3057 C3081 0.951 . S
H3058 C3083 0.951 . S
H3059 C3085 0.950 . S
H3060 C3086 0.950 . S
H3061 C3088 0.950 . S
H3062 C3091 0.950 . S
H3063 C3092 0.950 . S
H3064 C3094 0.950 . S
H3065 C3095 0.950 . S
C3066 H3048 0.951 . S
C3066 C3067 1.366 . S
C3066 C3068 1.388 . S
C3067 C3066 1.366 . S
C3067 C3071 1.385 . S
C3068 H3049 0.951 . S
C3068 C3066 1.388 . S
C3068 C3069 1.366 . S
C3069 C3068 1.366 . S
C3069 C3070 1.414 . S
C3069 C3072 1.499 . S
C3070 H3050 0.950 . S
C3070 C3069 1.414 . S
C3070 C3071 1.374 . S
C3071 H3051 0.950 . S
C3071 C3067 1.385 . S
C3071 C3070 1.374 . S
C3072 C3069 1.499 . S
C3072 C3073 1.373 . S
C3072 C3074 1.389 . S
C3073 H3052 0.950 . S
C3073 C3072 1.373 . S
C3073 C3089 1.377 . S
C3074 C3072 1.389 . S
C3074 C3075 1.524 . S
C3074 C3088 1.377 . S
C3075 C3074 1.524 . S
C3075 C3076 1.397 . S
C3075 C3080 1.363 . S
C3076 H3053 0.950 . S
C3076 C3075 1.397 . S
C3076 C3077 1.334 . S
C3077 H3054 0.950 . S
C3077 C3076 1.334 . S
C3077 C3078 1.287 . S
C3078 C3077 1.287 . S
C3078 C3079 1.524 . S
C3078 H3097 0.913 . S
C3079 H3055 0.950 . S
C3079 C3078 1.524 . S
C3079 C3080 1.415 . S
C3080 H3056 0.950 . S
C3080 C3075 1.363 . S
C3080 C3079 1.415 . S
C3081 H3057 0.951 . S
C3081 C3082 1.366 . S
C3081 C3083 1.388 . S
C3082 C3081 1.366 . S
C3082 C3086 1.385 . S
C3083 H3058 0.951 . S
C3083 C3081 1.388 . S
C3083 C3084 1.366 . S
C3084 C3083 1.366 . S
C3084 C3085 1.414 . S
C3084 C3087 1.499 . S
C3085 H3059 0.950 . S
C3085 C3084 1.414 . S
C3085 C3086 1.374 . S
C3086 H3060 0.950 . S
C3086 C3082 1.385 . S
C3086 C3085 1.374 . S
C3087 C3084 1.499 . S
C3087 C3088 1.373 . S
C3087 C3089 1.389 . S
C3088 H3061 0.950 . S
C3088 C3074 1.377 . S
C3088 C3087 1.373 . S
C3089 C3073 1.377 . S
C3089 C3087 1.389 . S
C3089 C3090 1.524 . S
C3090 C3089 1.524 . S
C3090 C3091 1.397 . S
C3090 C3095 1.363 . S
C3091 H3062 0.950 . S
C3091 C3090 1.397 . S
C3091 C3092 1.334 . S
C3092 H3063 0.950 . S
C3092 C3091 1.334 . S
C3092 C3093 1.287 . S
C3093 C3092 1.287 . S
C3093 C3094 1.524 . S
C3093 H3096 0.991 . S
C3094 H3064 0.950 . S
C3094 C3093 1.524 . S
C3094 C3095 1.415 . S
C3095 H3065 0.950 . S
C3095 C3090 1.363 . S
C3095 C3094 1.415 . S
H3096 C3093 0.991 . S
H3097 C3078 0.913 . S
H3098 C3116 0.951 . S
H3099 C3118 0.951 . S
H3100 C3120 0.950 . S
H3101 C3121 0.950 . S
H3102 C3123 0.950 . S
H3103 C3126 0.950 . S
H3104 C3127 0.950 . S
H3105 C3129 0.950 . S
H3106 C3130 0.950 . S
H3107 C3131 0.951 . S
H3108 C3133 0.951 . S
H3109 C3135 0.950 . S
H3110 C3136 0.950 . S
H3111 C3138 0.950 . S
H3112 C3141 0.950 . S
H3113 C3142 0.950 . S
H3114 C3144 0.950 . S
H3115 C3145 0.950 . S
C3116 H3098 0.951 . S
C3116 C3117 1.366 . S
C3116 C3118 1.388 . S
C3117 C3116 1.366 . S
C3117 C3121 1.385 . S
C3118 H3099 0.951 . S
C3118 C3116 1.388 . S
C3118 C3119 1.366 . S
C3119 C3118 1.366 . S
C3119 C3120 1.414 . S
C3119 C3122 1.499 . S
C3120 H3100 0.950 . S
C3120 C3119 1.414 . S
C3120 C3121 1.374 . S
C3121 H3101 0.950 . S
C3121 C3117 1.385 . S
C3121 C3120 1.374 . S
C3122 C3119 1.499 . S
C3122 C3123 1.373 . S
C3122 C3124 1.389 . S
C3123 H3102 0.950 . S
C3123 C3122 1.373 . S
C3123 C3139 1.377 1_655 S
C3124 C3122 1.389 . S
C3124 C3125 1.524 . S
C3124 C3138 1.377 1_655 S
C3125 C3124 1.524 . S
C3125 C3126 1.397 . S
C3125 C3130 1.363 . S
C3126 H3103 0.950 . S
C3126 C3125 1.397 . S
C3126 C3127 1.334 . S
C3127 H3104 0.950 . S
C3127 C3126 1.334 . S
C3127 C3128 1.287 . S
C3128 C3127 1.287 . S
C3128 C3129 1.524 . S
C3128 H3147 0.913 . S
C3129 H3105 0.950 . S
C3129 C3128 1.524 . S
C3129 C3130 1.415 . S
C3130 H3106 0.950 . S
C3130 C3125 1.363 . S
C3130 C3129 1.415 . S
C3131 H3107 0.951 . S
C3131 C3132 1.366 . S
C3131 C3133 1.388 . S
C3132 C3131 1.366 . S
C3132 C3136 1.385 . S
C3133 H3108 0.951 . S
C3133 C3131 1.388 . S
C3133 C3134 1.366 . S
C3134 C3133 1.366 . S
C3134 C3135 1.414 . S
C3134 C3137 1.499 . S
C3135 H3109 0.950 . S
C3135 C3134 1.414 . S
C3135 C3136 1.374 . S
C3136 H3110 0.950 . S
C3136 C3132 1.385 . S
C3136 C3135 1.374 . S
C3137 C3134 1.499 . S
C3137 C3138 1.373 . S
C3137 C3139 1.389 . S
C3138 H3111 0.950 . S
C3138 C3124 1.377 1_455 S
C3138 C3137 1.373 . S
C3139 C3123 1.377 1_455 S
C3139 C3137 1.389 . S
C3139 C3140 1.524 . S
C3140 C3139 1.524 . S
C3140 C3141 1.397 . S
C3140 C3145 1.363 . S
C3141 H3112 0.950 . S
C3141 C3140 1.397 . S
C3141 C3142 1.334 . S
C3142 H3113 0.950 . S
C3142 C3141 1.334 . S
C3142 C3143 1.287 . S
C3143 C3142 1.287 . S
C3143 C3144 1.524 . S
C3143 H3146 0.999 . S
C3144 H3114 0.950 . S
C3144 C3143 1.524 . S
C3144 C3145 1.415 . S
C3145 H3115 0.950 . S
C3145 C3140 1.363 . S
C3145 C3144 1.415 . S
H3146 C3143 0.999 . S
H3147 C3128 0.913 . S
H3148 C3166 0.951 . S
H3149 C3168 0.951 . S
H3150 C3170 0.950 . S
H3151 C3171 0.950 . S
H3152 C3173 0.950 . S
H3153 C3176 0.950 . S
H3154 C3177 0.950 . S
H3155 C3179 0.950 . S
H3156 C3180 0.950 . S
H3157 C3181 0.951 . S
H3158 C3183 0.951 . S
H3159 C3185 0.950 . S
H3160 C3186 0.950 . S
H3161 C3188 0.950 . S
H3162 C3191 0.950 . S
H3163 C3192 0.950 . S
H3164 C3194 0.950 . S
H3165 C3195 0.950 . S
C3166 H3148 0.951 . S
C3166 C3167 1.366 . S
C3166 C3168 1.388 . S
C3167 C3166 1.366 . S
C3167 C3171 1.385 . S
C3168 H3149 0.951 . S
C3168 C3166 1.388 . S
C3168 C3169 1.366 . S
C3169 C3168 1.366 . S
C3169 C3170 1.414 . S
C3169 C3172 1.499 . S
C3170 H3150 0.950 . S
C3170 C3169 1.414 . S
C3170 C3171 1.374 . S
C3171 H3151 0.950 . S
C3171 C3167 1.385 . S
C3171 C3170 1.374 . S
C3172 C3169 1.499 . S
C3172 C3173 1.373 . S
C3172 C3174 1.389 . S
C3173 H3152 0.950 . S
C3173 C3172 1.373 . S
C3173 C3189 1.377 . S
C3174 C3172 1.389 . S
C3174 C3175 1.524 . S
C3174 C3188 1.377 . S
C3175 C3174 1.524 . S
C3175 C3176 1.397 . S
C3175 C3180 1.363 . S
C3176 H3153 0.950 . S
C3176 C3175 1.397 . S
C3176 C3177 1.334 . S
C3177 H3154 0.950 . S
C3177 C3176 1.334 . S
C3177 C3178 1.287 . S
C3178 C3177 1.287 . S
C3178 C3179 1.524 . S
C3178 H3197 0.913 . S
C3179 H3155 0.950 . S
C3179 C3178 1.524 . S
C3179 C3180 1.415 . S
C3180 H3156 0.950 . S
C3180 C3175 1.363 . S
C3180 C3179 1.415 . S
C3181 H3157 0.951 . S
C3181 C3182 1.366 . S
C3181 C3183 1.388 . S
C3182 C3181 1.366 . S
C3182 C3186 1.385 . S
C3183 H3158 0.951 . S
C3183 C3181 1.388 . S
C3183 C3184 1.366 . S
C3184 C3183 1.366 . S
C3184 C3185 1.414 . S
C3184 C3187 1.499 . S
C3185 H3159 0.950 . S
C3185 C3184 1.414 . S
C3185 C3186 1.374 . S
C3186 H3160 0.950 . S
C3186 C3182 1.385 . S
C3186 C3185 1.374 . S
C3187 C3184 1.499 . S
C3187 C3188 1.373 . S
C3187 C3189 1.389 . S
C3188 H3161 0.950 . S
C3188 C3174 1.377 . S
C3188 C3187 1.373 . S
C3189 C3173 1.377 . S
C3189 C3187 1.389 . S
C3189 C3190 1.524 . S
C3190 C3189 1.524 . S
C3190 C3191 1.397 . S
C3190 C3195 1.363 . S
C3191 H3162 0.950 . S
C3191 C3190 1.397 . S
C3191 C3192 1.334 . S
C3192 H3163 0.950 . S
C3192 C3191 1.334 . S
C3192 C3193 1.287 . S
C3193 C3192 1.287 . S
C3193 C3194 1.524 . S
C3193 H3196 0.999 . S
C3194 H3164 0.950 . S
C3194 C3193 1.524 . S
C3194 C3195 1.415 . S
C3195 H3165 0.950 . S
C3195 C3190 1.363 . S
C3195 C3194 1.415 . S
H3196 C3193 0.999 . S
H3197 C3178 0.913 . S
H3198 C3216 0.951 . S
H3199 C3218 0.951 . S
H3200 C3220 0.950 . S
H3201 C3221 0.950 . S
H3202 C3223 0.950 . S
H3203 C3226 0.950 . S
H3204 C3227 0.950 . S
H3205 C3229 0.950 . S
H3206 C3230 0.950 . S
H3207 C3231 0.951 . S
H3208 C3233 0.951 . S
H3209 C3235 0.950 . S
H3210 C3236 0.950 . S
H3211 C3238 0.950 . S
H3212 C3241 0.950 . S
H3213 C3242 0.950 . S
H3214 C3244 0.950 . S
H3215 C3245 0.950 . S
C3216 H3198 0.951 . S
C3216 C3217 1.366 . S
C3216 C3218 1.388 . S
C3217 C3216 1.366 . S
C3217 C3221 1.385 . S
C3218 H3199 0.951 . S
C3218 C3216 1.388 . S
C3218 C3219 1.366 . S
C3219 C3218 1.366 . S
C3219 C3220 1.414 . S
C3219 C3222 1.499 . S
C3220 H3200 0.950 . S
C3220 C3219 1.414 . S
C3220 C3221 1.374 . S
C3221 H3201 0.950 . S
C3221 C3217 1.385 . S
C3221 C3220 1.374 . S
C3222 C3219 1.499 . S
C3222 C3223 1.373 . S
C3222 C3224 1.389 . S
C3223 H3202 0.950 . S
C3223 C3222 1.373 . S
C3223 C3239 1.377 . S
C3224 C3222 1.389 . S
C3224 C3225 1.524 . S
C3224 C3238 1.377 . S
C3225 C3224 1.524 . S
C3225 C3226 1.397 . S
C3225 C3230 1.363 . S
C3226 H3203 0.950 . S
C3226 C3225 1.397 . S
C3226 C3227 1.334 . S
C3227 H3204 0.950 . S
C3227 C3226 1.334 . S
C3227 C3228 1.287 . S
C3228 C3227 1.287 . S
C3228 C3229 1.524 . S
C3228 H3247 0.913 . S
C3229 H3205 0.950 . S
C3229 C3228 1.524 . S
C3229 C3230 1.415 . S
C3230 H3206 0.950 . S
C3230 C3225 1.363 . S
C3230 C3229 1.415 . S
C3231 H3207 0.951 . S
C3231 C3232 1.366 . S
C3231 C3233 1.388 . S
C3232 C3231 1.366 . S
C3232 C3236 1.385 . S
C3233 H3208 0.951 . S
C3233 C3231 1.388 . S
C3233 C3234 1.366 . S
C3234 C3233 1.366 . S
C3234 C3235 1.414 . S
C3234 C3237 1.499 . S
C3235 H3209 0.950 . S
C3235 C3234 1.414 . S
C3235 C3236 1.374 . S
C3236 H3210 0.950 . S
C3236 C3232 1.385 . S
C3236 C3235 1.374 . S
C3237 C3234 1.499 . S
C3237 C3238 1.373 . S
C3237 C3239 1.389 . S
C3238 H3211 0.950 . S
C3238 C3224 1.377 . S
C3238 C3237 1.373 . S
C3239 C3223 1.377 . S
C3239 C3237 1.389 . S
C3239 C3240 1.524 . S
C3240 C3239 1.524 . S
C3240 C3241 1.397 . S
C3240 C3245 1.363 . S
C3241 H3212 0.950 . S
C3241 C3240 1.397 . S
C3241 C3242 1.334 . S
C3242 H3213 0.950 . S
C3242 C3241 1.334 . S
C3242 C3243 1.287 . S
C3243 C3242 1.287 . S
C3243 C3244 1.524 . S
C3243 H3246 0.999 . S
C3244 H3214 0.950 . S
C3244 C3243 1.524 . S
C3244 C3245 1.415 . S
C3245 H3215 0.950 . S
C3245 C3240 1.363 . S
C3245 C3244 1.415 . S
H3246 C3243 0.999 . S
H3247 C3228 0.913 . S
H3248 C3266 0.951 . S
H3249 C3268 0.951 . S
H3250 C3270 0.950 . S
H3251 C3271 0.950 . S
H3252 C3273 0.950 . S
H3253 C3276 0.950 . S
H3254 C3277 0.950 . S
H3255 C3279 0.950 . S
H3256 C3280 0.950 . S
H3257 C3281 0.951 . S
H3258 C3283 0.951 . S
H3259 C3285 0.950 . S
H3260 C3286 0.950 . S
H3261 C3288 0.950 . S
H3262 C3291 0.950 . S
H3263 C3292 0.950 . S
H3264 C3294 0.950 . S
H3265 C3295 0.950 . S
C3266 H3248 0.951 . S
C3266 C3267 1.366 . S
C3266 C3268 1.388 . S
C3267 C3266 1.366 . S
C3267 C3271 1.385 . S
C3268 H3249 0.951 . S
C3268 C3266 1.388 . S
C3268 C3269 1.366 . S
C3269 C3268 1.366 . S
C3269 C3270 1.414 . S
C3269 C3272 1.499 . S
C3270 H3250 0.950 . S
C3270 C3269 1.414 . S
C3270 C3271 1.374 . S
C3271 H3251 0.950 . S
C3271 C3267 1.385 . S
C3271 C3270 1.374 . S
C3272 C3269 1.499 . S
C3272 C3273 1.373 . S
C3272 C3274 1.389 . S
C3273 H3252 0.950 . S
C3273 C3272 1.373 . S
C3273 C3289 1.377 . S
C3274 C3272 1.389 . S
C3274 C3275 1.524 . S
C3274 C3288 1.377 . S
C3275 C3274 1.524 . S
C3275 C3276 1.397 . S
C3275 C3280 1.363 . S
C3276 H3253 0.950 . S
C3276 C3275 1.397 . S
C3276 C3277 1.334 . S
C3277 H3254 0.950 . S
C3277 C3276 1.334 . S
C3277 C3278 1.287 . S
C3278 C3277 1.287 . S
C3278 C3279 1.524 . S
C3278 H3297 0.913 . S
C3279 H3255 0.950 . S
C3279 C3278 1.524 . S
C3279 C3280 1.415 . S
C3280 H3256 0.950 . S
C3280 C3275 1.363 . S
C3280 C3279 1.415 . S
C3281 H3257 0.951 . S
C3281 C3282 1.366 . S
C3281 C3283 1.388 . S
C3282 C3281 1.366 . S
C3282 C3286 1.385 . S
C3283 H3258 0.951 . S
C3283 C3281 1.388 . S
C3283 C3284 1.366 . S
C3284 C3283 1.366 . S
C3284 C3285 1.414 . S
C3284 C3287 1.499 . S
C3285 H3259 0.950 . S
C3285 C3284 1.414 . S
C3285 C3286 1.374 . S
C3286 H3260 0.950 . S
C3286 C3282 1.385 . S
C3286 C3285 1.374 . S
C3287 C3284 1.499 . S
C3287 C3288 1.373 . S
C3287 C3289 1.389 . S
C3288 H3261 0.950 . S
C3288 C3274 1.377 . S
C3288 C3287 1.373 . S
C3289 C3273 1.377 . S
C3289 C3287 1.389 . S
C3289 C3290 1.524 . S
C3290 C3289 1.524 . S
C3290 C3291 1.397 . S
C3290 C3295 1.363 . S
C3291 H3262 0.950 . S
C3291 C3290 1.397 . S
C3291 C3292 1.334 . S
C3292 H3263 0.950 . S
C3292 C3291 1.334 . S
C3292 C3293 1.287 . S
C3293 C3292 1.287 . S
C3293 C3294 1.524 . S
C3293 H3296 0.999 . S
C3294 H3264 0.950 . S
C3294 C3293 1.524 . S
C3294 C3295 1.415 . S
C3295 H3265 0.950 . S
C3295 C3290 1.363 . S
C3295 C3294 1.415 . S
H3296 C3293 0.999 . S
H3297 C3278 0.913 . S
H3298 C3316 0.951 . S
H3299 C3318 0.951 . S
H3300 C3320 0.950 . S
H3301 C3321 0.950 . S
H3302 C3323 0.950 . S
H3303 C3326 0.950 . S
H3304 C3327 0.950 . S
H3305 C3329 0.950 . S
H3306 C3330 0.950 . S
H3307 C3331 0.951 . S
H3308 C3333 0.951 . S
H3309 C3335 0.950 . S
H3310 C3336 0.950 . S
H3311 C3338 0.950 . S
H3312 C3341 0.950 . S
H3313 C3342 0.950 . S
H3314 C3344 0.950 . S
H3315 C3345 0.950 . S
C3316 H3298 0.951 . S
C3316 C3317 1.366 . S
C3316 C3318 1.388 . S
C3317 C3316 1.366 . S
C3317 C3321 1.385 . S
C3318 H3299 0.951 . S
C3318 C3316 1.388 . S
C3318 C3319 1.366 . S
C3319 C3318 1.366 . S
C3319 C3320 1.414 . S
C3319 C3322 1.499 . S
C3320 H3300 0.950 . S
C3320 C3319 1.414 . S
C3320 C3321 1.374 . S
C3321 H3301 0.950 . S
C3321 C3317 1.385 . S
C3321 C3320 1.374 . S
C3322 C3319 1.499 . S
C3322 C3323 1.373 . S
C3322 C3324 1.389 . S
C3323 H3302 0.950 . S
C3323 C3322 1.373 . S
C3323 C3339 1.377 . S
C3324 C3322 1.389 . S
C3324 C3325 1.524 . S
C3324 C3338 1.377 . S
C3325 C3324 1.524 . S
C3325 C3326 1.397 . S
C3325 C3330 1.363 . S
C3326 H3303 0.950 . S
C3326 C3325 1.397 . S
C3326 C3327 1.334 . S
C3327 H3304 0.950 . S
C3327 C3326 1.334 . S
C3327 C3328 1.287 . S
C3328 C3327 1.287 . S
C3328 C3329 1.524 . S
C3328 H3347 0.913 . S
C3329 H3305 0.950 . S
C3329 C3328 1.524 . S
C3329 C3330 1.415 . S
C3330 H3306 0.950 . S
C3330 C3325 1.363 . S
C3330 C3329 1.415 . S
C3331 H3307 0.951 . S
C3331 C3332 1.366 . S
C3331 C3333 1.388 . S
C3332 C3331 1.366 . S
C3332 C3336 1.385 . S
C3333 H3308 0.951 . S
C3333 C3331 1.388 . S
C3333 C3334 1.366 . S
C3334 C3333 1.366 . S
C3334 C3335 1.414 . S
C3334 C3337 1.499 . S
C3335 H3309 0.950 . S
C3335 C3334 1.414 . S
C3335 C3336 1.374 . S
C3336 H3310 0.950 . S
C3336 C3332 1.385 . S
C3336 C3335 1.374 . S
C3337 C3334 1.499 . S
C3337 C3338 1.373 . S
C3337 C3339 1.389 . S
C3338 H3311 0.950 . S
C3338 C3324 1.377 . S
C3338 C3337 1.373 . S
C3339 C3323 1.377 . S
C3339 C3337 1.389 . S
C3339 C3340 1.524 . S
C3340 C3339 1.524 . S
C3340 C3341 1.397 . S
C3340 C3345 1.363 . S
C3341 H3312 0.950 . S
C3341 C3340 1.397 . S
C3341 C3342 1.334 . S
C3342 H3313 0.950 . S
C3342 C3341 1.334 . S
C3342 C3343 1.287 . S
C3343 C3342 1.287 . S
C3343 C3344 1.524 . S
C3343 H3346 0.999 . S
C3344 H3314 0.950 . S
C3344 C3343 1.524 . S
C3344 C3345 1.415 . S
C3345 H3315 0.950 . S
C3345 C3340 1.363 . S
C3345 C3344 1.415 . S
H3346 C3343 0.999 . S
H3347 C3328 0.913 . S
H3348 C3366 0.951 . S
H3349 C3368 0.951 . S
H3350 C3370 0.950 . S
H3351 C3371 0.950 . S
H3352 C3373 0.950 . S
H3353 C3376 0.950 . S
H3354 C3377 0.950 . S
H3355 C3379 0.968 . S
H3356 C3380 0.950 . S
H3357 C3381 0.951 . S
H3358 C3383 0.951 . S
H3359 C3385 0.950 . S
H3360 C3386 0.950 . S
H3361 C3388 0.950 . S
H3362 C3391 0.950 . S
H3363 C3392 0.950 . S
H3364 C3394 0.950 . S
H3365 C3395 0.950 . S
C3366 H3348 0.951 . S
C3366 C3367 1.366 . S
C3366 C3368 1.388 . S
C3367 C3366 1.366 . S
C3367 C3371 1.385 . S
C3368 H3349 0.951 . S
C3368 C3366 1.388 . S
C3368 C3369 1.366 . S
C3369 C3368 1.366 . S
C3369 C3370 1.414 . S
C3369 C3372 1.499 . S
C3370 H3350 0.950 . S
C3370 C3369 1.414 . S
C3370 C3371 1.374 . S
C3371 H3351 0.950 . S
C3371 C3367 1.385 . S
C3371 C3370 1.374 . S
C3372 C3369 1.499 . S
C3372 C3373 1.373 . S
C3372 C3374 1.389 . S
C3373 H3352 0.950 . S
C3373 C3372 1.373 . S
C3373 C3389 1.377 . S
C3374 C3372 1.389 . S
C3374 C3375 1.524 . S
C3374 C3388 1.377 . S
C3375 C3374 1.524 . S
C3375 C3376 1.397 . S
C3375 C3380 1.363 . S
C3376 H3353 0.950 . S
C3376 C3375 1.397 . S
C3376 C3377 1.334 . S
C3377 H3354 0.950 . S
C3377 C3376 1.334 . S
C3377 C3378 1.294 1_554 S
C3378 C3377 1.294 1_556 S
C3378 C3379 1.524 . S
C3378 H3397 0.906 . S
C3379 H3355 0.968 . S
C3379 C3378 1.524 . S
C3379 C3380 1.394 1_556 S
C3380 H3356 0.950 . S
C3380 C3375 1.363 . S
C3380 C3379 1.394 1_554 S
C3381 H3357 0.951 . S
C3381 C3382 1.366 . S
C3381 C3383 1.388 . S
C3382 C3381 1.366 . S
C3382 C3386 1.385 . S
C3383 H3358 0.951 . S
C3383 C3381 1.388 . S
C3383 C3384 1.366 . S
C3384 C3383 1.366 . S
C3384 C3385 1.414 . S
C3384 C3387 1.499 . S
C3385 H3359 0.950 . S
C3385 C3384 1.414 . S
C3385 C3386 1.374 . S
C3386 H3360 0.950 . S
C3386 C3382 1.385 . S
C3386 C3385 1.374 . S
C3387 C3384 1.499 . S
C3387 C3388 1.373 . S
C3387 C3389 1.389 . S
C3388 H3361 0.950 . S
C3388 C3374 1.377 . S
C3388 C3387 1.373 . S
C3389 C3373 1.377 . S
C3389 C3387 1.389 . S
C3389 C3390 1.524 . S
C3390 C3389 1.524 . S
C3390 C3391 1.397 . S
C3390 C3395 1.363 . S
C3391 H3362 0.950 . S
C3391 C3390 1.397 . S
C3391 C3392 1.334 . S
C3392 H3363 0.950 . S
C3392 C3391 1.334 . S
C3392 C3393 1.287 . S
C3393 C3392 1.287 . S
C3393 C3394 1.524 . S
C3393 H3396 0.999 . S
C3394 H3364 0.950 . S
C3394 C3393 1.524 . S
C3394 C3395 1.415 . S
C3395 H3365 0.950 . S
C3395 C3390 1.363 . S
C3395 C3394 1.415 . S
H3396 C3393 0.999 . S
H3397 C3378 0.906 . S
H3398 C3416 0.951 . S
H3399 C3418 0.951 . S
H3400 C3420 0.950 . S
H3401 C3421 0.950 . S
H3402 C3423 0.950 . S
H3403 C3426 0.950 . S
H3404 C3427 0.950 . S
H3405 C3429 0.950 . S
H3406 C3430 0.950 . S
H3407 C3431 0.951 . S
H3408 C3433 0.951 . S
H3409 C3435 0.950 . S
H3410 C3436 0.950 . S
H3411 C3438 0.950 . S
H3412 C3441 0.950 . S
H3413 C3442 0.950 . S
H3414 C3444 0.950 . S
H3415 C3445 0.950 . S
C3416 H3398 0.951 . S
C3416 C3417 1.366 . S
C3416 C3418 1.388 . S
C3417 C3416 1.366 . S
C3417 C3421 1.385 . S
C3418 H3399 0.951 . S
C3418 C3416 1.388 . S
C3418 C3419 1.366 . S
C3419 C3418 1.366 . S
C3419 C3420 1.414 . S
C3419 C3422 1.499 . S
C3420 H3400 0.950 . S
C3420 C3419 1.414 . S
C3420 C3421 1.374 . S
C3421 H3401 0.950 . S
C3421 C3417 1.385 . S
C3421 C3420 1.374 . S
C3422 C3419 1.499 . S
C3422 C3423 1.373 . S
C3422 C3424 1.389 . S
C3423 H3402 0.950 . S
C3423 C3422 1.373 . S
C3423 C3439 1.377 . S
C3424 C3422 1.389 . S
C3424 C3425 1.524 . S
C3424 C3438 1.377 . S
C3425 C3424 1.524 . S
C3425 C3426 1.397 . S
C3425 C3430 1.363 . S
C3426 H3403 0.950 . S
C3426 C3425 1.397 . S
C3426 C3427 1.334 . S
C3427 H3404 0.950 . S
C3427 C3426 1.334 . S
C3427 C3428 1.287 . S
C3428 C3427 1.287 . S
C3428 C3429 1.524 . S
C3428 H3447 0.913 . S
C3429 H3405 0.950 . S
C3429 C3428 1.524 . S
C3429 C3430 1.415 . S
C3430 H3406 0.950 . S
C3430 C3425 1.363 . S
C3430 C3429 1.415 . S
C3431 H3407 0.951 . S
C3431 C3432 1.366 . S
C3431 C3433 1.388 . S
C3432 C3431 1.366 . S
C3432 C3436 1.385 . S
C3433 H3408 0.951 . S
C3433 C3431 1.388 . S
C3433 C3434 1.366 . S
C3434 C3433 1.366 . S
C3434 C3435 1.414 . S
C3434 C3437 1.499 . S
C3435 H3409 0.950 . S
C3435 C3434 1.414 . S
C3435 C3436 1.374 . S
C3436 H3410 0.950 . S
C3436 C3432 1.385 . S
C3436 C3435 1.374 . S
C3437 C3434 1.499 . S
C3437 C3438 1.373 . S
C3437 C3439 1.389 . S
C3438 H3411 0.950 . S
C3438 C3424 1.377 . S
C3438 C3437 1.373 . S
C3439 C3423 1.377 . S
C3439 C3437 1.389 . S
C3439 C3440 1.524 . S
C3440 C3439 1.524 . S
C3440 C3441 1.397 . S
C3440 C3445 1.363 . S
C3441 H3412 0.950 . S
C3441 C3440 1.397 . S
C3441 C3442 1.334 . S
C3442 H3413 0.950 . S
C3442 C3441 1.334 . S
C3442 C3443 1.287 . S
C3443 C3442 1.287 . S
C3443 C3444 1.524 . S
C3443 H3446 0.999 . S
C3444 H3414 0.950 . S
C3444 C3443 1.524 . S
C3444 C3445 1.415 . S
C3445 H3415 0.950 . S
C3445 C3440 1.363 . S
C3445 C3444 1.415 . S
H3446 C3443 0.999 . S
H3447 C3428 0.913 . S
H3448 C3466 0.951 . S
H3449 C3468 0.951 . S
H3450 C3470 0.950 . S
H3451 C3471 0.950 . S
H3452 C3473 0.950 . S
H3453 C3476 0.950 . S
H3454 C3477 0.950 . S
H3455 C3479 0.950 . S
H3456 C3480 0.950 . S
H3457 C3481 0.951 . S
H3458 C3483 0.951 . S
H3459 C3485 0.950 . S
H3460 C3486 0.950 . S
H3461 C3488 0.950 . S
H3462 C3491 0.950 . S
H3463 C3492 0.950 . S
H3464 C3494 0.950 . S
H3465 C3495 0.950 . S
C3466 H3448 0.951 . S
C3466 C3467 1.366 . S
C3466 C3468 1.388 . S
C3467 C3466 1.366 . S
C3467 C3471 1.385 . S
C3468 H3449 0.951 . S
C3468 C3466 1.388 . S
C3468 C3469 1.366 . S
C3469 C3468 1.366 . S
C3469 C3470 1.414 . S
C3469 C3472 1.499 . S
C3470 H3450 0.950 . S
C3470 C3469 1.414 . S
C3470 C3471 1.374 . S
C3471 H3451 0.950 . S
C3471 C3467 1.385 . S
C3471 C3470 1.374 . S
C3472 C3469 1.499 . S
C3472 C3473 1.373 . S
C3472 C3474 1.389 . S
C3473 H3452 0.950 . S
C3473 C3472 1.373 . S
C3473 C3489 1.377 1_655 S
C3474 C3472 1.389 . S
C3474 C3475 1.524 . S
C3474 C3488 1.377 1_655 S
C3475 C3474 1.524 . S
C3475 C3476 1.397 . S
C3475 C3480 1.363 . S
C3476 H3453 0.950 . S
C3476 C3475 1.397 . S
C3476 C3477 1.334 . S
C3477 H3454 0.950 . S
C3477 C3476 1.334 . S
C3477 C3478 1.287 . S
C3478 C3477 1.287 . S
C3478 C3479 1.524 . S
C3478 H3497 0.913 . S
C3479 H3455 0.950 . S
C3479 C3478 1.524 . S
C3479 C3480 1.415 . S
C3480 H3456 0.950 . S
C3480 C3475 1.363 . S
C3480 C3479 1.415 . S
C3481 H3457 0.951 . S
C3481 C3482 1.366 . S
C3481 C3483 1.388 . S
C3482 C3481 1.366 . S
C3482 C3486 1.385 . S
C3483 H3458 0.951 . S
C3483 C3481 1.388 . S
C3483 C3484 1.366 . S
C3484 C3483 1.366 . S
C3484 C3485 1.414 . S
C3484 C3487 1.499 . S
C3485 H3459 0.950 . S
C3485 C3484 1.414 . S
C3485 C3486 1.374 . S
C3486 H3460 0.950 . S
C3486 C3482 1.385 . S
C3486 C3485 1.374 . S
C3487 C3484 1.499 . S
C3487 C3488 1.373 . S
C3487 C3489 1.389 . S
C3488 H3461 0.950 . S
C3488 C3474 1.377 1_455 S
C3488 C3487 1.373 . S
C3489 C3473 1.377 1_455 S
C3489 C3487 1.389 . S
C3489 C3490 1.524 . S
C3490 C3489 1.524 . S
C3490 C3491 1.397 . S
C3490 C3495 1.363 . S
C3491 H3462 0.950 . S
C3491 C3490 1.397 . S
C3491 C3492 1.334 . S
C3492 H3463 0.950 . S
C3492 C3491 1.334 . S
C3492 C3493 1.287 . S
C3493 C3492 1.287 . S
C3493 C3494 1.524 . S
C3493 H3496 0.999 . S
C3494 H3464 0.950 . S
C3494 C3493 1.524 . S
C3494 C3495 1.415 . S
C3495 H3465 0.950 . S
C3495 C3490 1.363 . S
C3495 C3494 1.415 . S
H3496 C3493 0.999 . S
H3497 C3478 0.913 . S
H3498 C3516 0.951 . S
H3499 C3518 0.951 . S
H3500 C3520 0.950 . S
H3501 C3521 0.950 . S
H3502 C3523 0.950 . S
H3503 C3526 0.950 . S
H3504 C3527 0.950 . S
H3505 C3529 0.950 . S
H3506 C3530 0.950 . S
H3507 C3531 0.951 . S
H3508 C3533 0.951 . S
H3509 C3535 0.950 . S
H3510 C3536 0.950 . S
H3511 C3538 0.950 . S
H3512 C3541 0.950 . S
H3513 C3542 0.950 . S
H3514 C3544 0.950 . S
H3515 C3545 0.950 . S
C3516 H3498 0.951 . S
C3516 C3517 1.366 . S
C3516 C3518 1.388 . S
C3517 C3516 1.366 . S
C3517 C3521 1.385 . S
C3518 H3499 0.951 . S
C3518 C3516 1.388 . S
C3518 C3519 1.366 . S
C3519 C3518 1.366 . S
C3519 C3520 1.414 . S
C3519 C3522 1.499 . S
C3520 H3500 0.950 . S
C3520 C3519 1.414 . S
C3520 C3521 1.374 . S
C3521 H3501 0.950 . S
C3521 C3517 1.385 . S
C3521 C3520 1.374 . S
C3522 C3519 1.499 . S
C3522 C3523 1.373 . S
C3522 C3524 1.389 . S
C3523 H3502 0.950 . S
C3523 C3522 1.373 . S
C3523 C3539 1.377 . S
C3524 C3522 1.389 . S
C3524 C3525 1.524 . S
C3524 C3538 1.377 . S
C3525 C3524 1.524 . S
C3525 C3526 1.397 . S
C3525 C3530 1.363 . S
C3526 H3503 0.950 . S
C3526 C3525 1.397 . S
C3526 C3527 1.334 . S
C3527 H3504 0.950 . S
C3527 C3526 1.334 . S
C3527 C3528 1.287 . S
C3528 C3527 1.287 . S
C3528 C3529 1.524 . S
C3528 H3547 0.913 . S
C3529 H3505 0.950 . S
C3529 C3528 1.524 . S
C3529 C3530 1.415 . S
C3530 H3506 0.950 . S
C3530 C3525 1.363 . S
C3530 C3529 1.415 . S
C3531 H3507 0.951 . S
C3531 C3532 1.366 . S
C3531 C3533 1.388 . S
C3532 C3531 1.366 . S
C3532 C3536 1.385 . S
C3533 H3508 0.951 . S
C3533 C3531 1.388 . S
C3533 C3534 1.366 . S
C3534 C3533 1.366 . S
C3534 C3535 1.414 . S
C3534 C3537 1.499 . S
C3535 H3509 0.950 . S
C3535 C3534 1.414 . S
C3535 C3536 1.374 . S
C3536 H3510 0.950 . S
C3536 C3532 1.385 . S
C3536 C3535 1.374 . S
C3537 C3534 1.499 . S
C3537 C3538 1.373 . S
C3537 C3539 1.389 . S
C3538 H3511 0.950 . S
C3538 C3524 1.377 . S
C3538 C3537 1.373 . S
C3539 C3523 1.377 . S
C3539 C3537 1.389 . S
C3539 C3540 1.524 . S
C3540 C3539 1.524 . S
C3540 C3541 1.397 . S
C3540 C3545 1.363 . S
C3541 H3512 0.950 . S
C3541 C3540 1.397 . S
C3541 C3542 1.334 . S
C3542 H3513 0.950 . S
C3542 C3541 1.334 . S
C3542 C3543 1.287 . S
C3543 C3542 1.287 . S
C3543 C3544 1.524 . S
C3543 H3546 0.999 . S
C3544 H3514 0.950 . S
C3544 C3543 1.524 . S
C3544 C3545 1.415 . S
C3545 H3515 0.950 . S
C3545 C3540 1.363 . S
C3545 C3544 1.415 . S
H3546 C3543 0.999 . S
H3547 C3528 0.913 . S
H3548 C3566 0.951 . S
H3549 C3568 0.951 . S
H3550 C3570 0.950 . S
H3551 C3571 0.950 . S
H3552 C3573 0.950 . S
H3553 C3576 0.950 . S
H3554 C3577 0.950 . S
H3555 C3579 0.950 . S
H3556 C3580 0.950 . S
H3557 C3581 0.951 . S
H3558 C3583 0.951 . S
H3559 C3585 0.950 . S
H3560 C3586 0.950 . S
H3561 C3588 0.950 . S
H3562 C3591 0.950 . S
H3563 C3592 0.950 . S
H3564 C3594 0.950 . S
H3565 C3595 0.950 . S
C3566 H3548 0.951 . S
C3566 C3567 1.366 . S
C3566 C3568 1.388 . S
C3567 C3566 1.366 . S
C3567 C3571 1.385 . S
C3568 H3549 0.951 . S
C3568 C3566 1.388 . S
C3568 C3569 1.366 . S
C3569 C3568 1.366 . S
C3569 C3570 1.414 . S
C3569 C3572 1.499 . S
C3570 H3550 0.950 . S
C3570 C3569 1.414 . S
C3570 C3571 1.374 . S
C3571 H3551 0.950 . S
C3571 C3567 1.385 . S
C3571 C3570 1.374 . S
C3572 C3569 1.499 . S
C3572 C3573 1.373 . S
C3572 C3574 1.389 . S
C3573 H3552 0.950 . S
C3573 C3572 1.373 . S
C3573 C3589 1.377 . S
C3574 C3572 1.389 . S
C3574 C3575 1.524 . S
C3574 C3588 1.377 . S
C3575 C3574 1.524 . S
C3575 C3576 1.397 . S
C3575 C3580 1.363 . S
C3576 H3553 0.950 . S
C3576 C3575 1.397 . S
C3576 C3577 1.334 . S
C3577 H3554 0.950 . S
C3577 C3576 1.334 . S
C3577 C3578 1.287 . S
C3578 C3577 1.287 . S
C3578 C3579 1.524 . S
C3578 H3597 0.913 . S
C3579 H3555 0.950 . S
C3579 C3578 1.524 . S
C3579 C3580 1.415 . S
C3580 H3556 0.950 . S
C3580 C3575 1.363 . S
C3580 C3579 1.415 . S
C3581 H3557 0.951 . S
C3581 C3582 1.366 . S
C3581 C3583 1.388 . S
C3582 C3581 1.366 . S
C3582 C3586 1.385 . S
C3583 H3558 0.951 . S
C3583 C3581 1.388 . S
C3583 C3584 1.366 . S
C3584 C3583 1.366 . S
C3584 C3585 1.414 . S
C3584 C3587 1.499 . S
C3585 H3559 0.950 . S
C3585 C3584 1.414 . S
C3585 C3586 1.374 . S
C3586 H3560 0.950 . S
C3586 C3582 1.385 . S
C3586 C3585 1.374 . S
C3587 C3584 1.499 . S
C3587 C3588 1.373 . S
C3587 C3589 1.389 . S
C3588 H3561 0.950 . S
C3588 C3574 1.377 . S
C3588 C3587 1.373 . S
C3589 C3573 1.377 . S
C3589 C3587 1.389 . S
C3589 C3590 1.524 . S
C3590 C3589 1.524 . S
C3590 C3591 1.397 . S
C3590 C3595 1.363 . S
C3591 H3562 0.950 . S
C3591 C3590 1.397 . S
C3591 C3592 1.334 . S
C3592 H3563 0.950 . S
C3592 C3591 1.334 . S
C3592 C3593 1.287 . S
C3593 C3592 1.287 . S
C3593 C3594 1.524 . S
C3593 H3596 0.999 . S
C3594 H3564 0.950 . S
C3594 C3593 1.524 . S
C3594 C3595 1.415 . S
C3595 H3565 0.950 . S
C3595 C3590 1.363 . S
C3595 C3594 1.415 . S
H3596 C3593 0.999 . S
H3597 C3578 0.913 . S
H3598 C3616 0.951 . S
H3599 C3618 0.951 . S
H3600 C3620 0.950 . S
H3601 C3621 0.950 . S
H3602 C3623 0.950 . S
H3603 C3626 0.950 . S
H3604 C3627 0.950 . S
H3605 C3629 0.950 . S
H3606 C3630 0.950 . S
H3607 C3631 0.951 . S
H3608 C3633 0.951 . S
H3609 C3635 0.950 . S
H3610 C3636 0.950 . S
H3611 C3638 0.950 . S
H3612 C3641 0.950 . S
H3613 C3642 0.950 . S
H3614 C3644 0.950 . S
H3615 C3645 0.950 . S
C3616 H3598 0.951 . S
C3616 C3617 1.366 . S
C3616 C3618 1.388 . S
C3617 C3616 1.366 . S
C3617 C3621 1.385 . S
C3618 H3599 0.951 . S
C3618 C3616 1.388 . S
C3618 C3619 1.366 . S
C3619 C3618 1.366 . S
C3619 C3620 1.414 . S
C3619 C3622 1.499 . S
C3620 H3600 0.950 . S
C3620 C3619 1.414 . S
C3620 C3621 1.374 . S
C3621 H3601 0.950 . S
C3621 C3617 1.385 . S
C3621 C3620 1.374 . S
C3622 C3619 1.499 . S
C3622 C3623 1.373 . S
C3622 C3624 1.389 . S
C3623 H3602 0.950 . S
C3623 C3622 1.373 . S
C3623 C3639 1.377 1_655 S
C3624 C3622 1.389 . S
C3624 C3625 1.524 . S
C3624 C3638 1.377 1_655 S
C3625 C3624 1.524 . S
C3625 C3626 1.397 . S
C3625 C3630 1.363 . S
C3626 H3603 0.950 . S
C3626 C3625 1.397 . S
C3626 C3627 1.334 . S
C3627 H3604 0.950 . S
C3627 C3626 1.334 . S
C3627 C3628 1.287 . S
C3628 C3627 1.287 . S
C3628 C3629 1.524 . S
C3628 H3647 0.913 . S
C3629 H3605 0.950 . S
C3629 C3628 1.524 . S
C3629 C3630 1.415 . S
C3630 H3606 0.950 . S
C3630 C3625 1.363 . S
C3630 C3629 1.415 . S
C3631 H3607 0.951 . S
C3631 C3632 1.366 . S
C3631 C3633 1.388 . S
C3632 C3631 1.366 . S
C3632 C3636 1.385 . S
C3633 H3608 0.951 . S
C3633 C3631 1.388 . S
C3633 C3634 1.366 . S
C3634 C3633 1.366 . S
C3634 C3635 1.414 . S
C3634 C3637 1.499 . S
C3635 H3609 0.950 . S
C3635 C3634 1.414 . S
C3635 C3636 1.374 . S
C3636 H3610 0.950 . S
C3636 C3632 1.385 . S
C3636 C3635 1.374 . S
C3637 C3634 1.499 . S
C3637 C3638 1.373 . S
C3637 C3639 1.389 . S
C3638 H3611 0.950 . S
C3638 C3624 1.377 1_455 S
C3638 C3637 1.373 . S
C3639 C3623 1.377 1_455 S
C3639 C3637 1.389 . S
C3639 C3640 1.524 . S
C3640 C3639 1.524 . S
C3640 C3641 1.397 . S
C3640 C3645 1.363 . S
C3641 H3612 0.950 . S
C3641 C3640 1.397 . S
C3641 C3642 1.334 . S
C3642 H3613 0.950 . S
C3642 C3641 1.334 . S
C3642 C3643 1.287 . S
C3643 C3642 1.287 . S
C3643 C3644 1.524 . S
C3643 H3646 0.999 . S
C3644 H3614 0.950 . S
C3644 C3643 1.524 . S
C3644 C3645 1.415 . S
C3645 H3615 0.950 . S
C3645 C3640 1.363 . S
C3645 C3644 1.415 . S
H3646 C3643 0.999 . S
H3647 C3628 0.913 . S
C467 C333 1.464 . S
C482 C11 1.465 . S
C517 C291 1.464 . S
C532 C25 1.465 . S
C567 C305 1.465 . S
C582 C39 1.465 . S
C617 C319 1.465 . S
C632 C53 1.465 . S
C667 C67 1.465 . S
C682 C249 1.465 . S
C717 C263 1.465 . S
C732 C81 1.465 . S
C767 C95 1.465 . S
C782 C277 1.465 . S
C817 C109 1.465 . S
C832 C235 1.465 . S
C867 C445 1.464 . S
C882 C123 1.464 . S
C917 C137 1.465 . S
C932 C403 1.464 . S
C967 C151 1.465 . S
C982 C417 1.465 . S
C1017 C165 1.464 . S
C1032 C431 1.465 . S
C1067 C179 1.465 . S
C1082 C361 1.465 . S
C1117 C193 1.465 . S
C1132 C375 1.464 . S
C1167 C207 1.465 . S
C1182 C389 1.464 . S
C1217 C221 1.465 . S
C1232 C347 1.465 . S
C1267 C8 1.538 . S
C1282 C176 1.538 . S
C1317 C414 1.538 . S
C1332 C22 1.538 . S
C1367 C36 1.538 . S
C1382 C204 1.538 . S
C1417 C442 1.538 . S
C1432 C50 1.538 . S
C1467 C120 1.538 . S
C1482 C64 1.538 . S
C1517 C78 1.539 . S
C1532 C358 1.538 . S
C1567 C92 1.538 . S
C1582 C148 1.538 . S
C1617 C106 1.538 . S
C1632 C386 1.538 . S
C1667 C302 1.538 . S
C1682 C134 1.538 . S
C1717 C330 1.538 . S
C1732 C162 1.538 . S
C1767 C190 1.538 . S
C1782 C246 1.538 . S
C1817 C274 1.538 . S
C1832 C218 1.538 . S
C1867 C400 1.538 . S
C1882 C232 1.538 . S
C1917 C260 1.538 . S
C1932 C428 1.538 . S
C1967 C344 1.538 . S
C1982 C288 1.538 . S
C2017 C372 1.538 . S
C2032 C316 1.538 . S
C2067 C63 0.823 . S
C2082 C7 0.825 . S
C2117 C77 0.824 . S
C2132 C21 0.825 . S
C2167 C35 0.825 . S
C2182 C91 0.824 . S
C2217 C49 0.825 . S
C2232 C105 0.824 . S
C2267 C175 0.824 . S
C2282 C119 0.825 . S
C2317 C189 0.824 . S
C2332 C133 0.825 . S
C2367 C203 0.824 . S
C2382 C147 0.825 . S
C2417 C161 0.825 . S
C2432 C217 0.824 . S
C2467 C231 0.823 . S
C2482 C287 0.825 . S
C2517 C245 0.824 . S
C2532 C301 0.825 . S
C2567 C259 0.825 . S
C2582 C315 0.824 . S
C2617 C273 0.825 . S
C2632 C329 0.824 . S
C2667 C399 0.823 . S
C2682 C343 0.824 . S
C2717 C413 0.825 . S
C2732 C357 0.824 . S
C2767 C427 0.824 . S
C2782 C371 0.825 . S
C2817 C441 0.824 . S
C2832 C385 0.824 . S
C2867 C433 1.206 . S
C2882 C13 1.207 . S
C2917 C27 1.207 . S
C2932 C223 1.206 . S
C2967 C405 1.207 . S
C2982 C41 1.206 . S
C3017 C55 1.206 . S
C3032 C195 1.207 . S
C3067 C377 1.206 . S
C3082 C69 1.207 . S
C3117 C83 1.206 . S
C3132 C167 1.207 . S
C3167 C97 1.207 . S
C3182 C349 1.206 . S
C3217 C139 1.208 . S
C3232 C111 1.206 . S
C3267 C125 1.207 . S
C3282 C321 1.206 . S
C3317 C293 1.207 . S
C3332 C153 1.206 . S
C3367 C181 1.207 . S
C3382 C265 1.206 . S
C3417 C209 1.207 . S
C3432 C237 1.206 . S
C3467 C447 1.206 . S
C3482 C251 1.207 . S
C3517 C279 1.206 . S
C3532 C419 1.207 . S
C3567 C307 1.206 . S
C3582 C391 1.207 . S
C3617 C363 1.207 . S
C3632 C335 1.206 . S
