# Generated by pormake.
# Topology fng, (5)-cn, num edge types: 1
# Building blocks:
#     Node 0, Type 0, BuildingBlock: XOMCOT_clean_sbu_0, # of connection points: 5
#     Node 1, Type 0, BuildingBlock: XOMCOT_clean_sbu_0, # of connection points: 5
#     Node 2, Type 0, BuildingBlock: XOMCOT_clean_sbu_0, # of connection points: 5
#     Node 3, Type 0, BuildingBlock: XOMCOT_clean_sbu_0, # of connection points: 5
#     Node 4, Type 0, BuildingBlock: XOMCOT_clean_sbu_0, # of connection points: 5
#     Node 5, Type 0, BuildingBlock: XOMCOT_clean_sbu_0, # of connection points: 5
#     Node 6, Type 0, BuildingBlock: XOMCOT_clean_sbu_0, # of connection points: 5
#     Node 7, Type 0, BuildingBlock: XOMCOT_clean_sbu_0, # of connection points: 5
#     Node 8, Type 0, BuildingBlock: XOMCOT_clean_sbu_0, # of connection points: 5
#     Node 9, Type 0, BuildingBlock: XOMCOT_clean_sbu_0, # of connection points: 5
#     Node 10, Type 0, BuildingBlock: XOMCOT_clean_sbu_0, # of connection points: 5
#     Node 11, Type 0, BuildingBlock: XOMCOT_clean_sbu_0, # of connection points: 5
#     Node 12, Type 0, BuildingBlock: XOMCOT_clean_sbu_0, # of connection points: 5
#     Node 13, Type 0, BuildingBlock: XOMCOT_clean_sbu_0, # of connection points: 5
#     Node 14, Type 0, BuildingBlock: XOMCOT_clean_sbu_0, # of connection points: 5
#     Node 15, Type 0, BuildingBlock: XOMCOT_clean_sbu_0, # of connection points: 5
#     Node 16, Type 0, BuildingBlock: XOMCOT_clean_sbu_0, # of connection points: 5
#     Node 17, Type 0, BuildingBlock: XOMCOT_clean_sbu_0, # of connection points: 5
#     Edge 18, Type (0, 0), BuildingBlock: CIFDUS_clean_linker_0, # of connection points: 2
#     Edge 19, Type (0, 0), BuildingBlock: CIFDUS_clean_linker_0, # of connection points: 2
#     Edge 20, Type (0, 0), BuildingBlock: CIFDUS_clean_linker_0, # of connection points: 2
#     Edge 21, Type (0, 0), BuildingBlock: CIFDUS_clean_linker_0, # of connection points: 2
#     Edge 22, Type (0, 0), BuildingBlock: CIFDUS_clean_linker_0, # of connection points: 2
#     Edge 23, Type (0, 0), BuildingBlock: CIFDUS_clean_linker_0, # of connection points: 2
#     Edge 24, Type (0, 0), BuildingBlock: CIFDUS_clean_linker_0, # of connection points: 2
#     Edge 25, Type (0, 0), BuildingBlock: CIFDUS_clean_linker_0, # of connection points: 2
#     Edge 26, Type (0, 0), BuildingBlock: CIFDUS_clean_linker_0, # of connection points: 2
#     Edge 27, Type (0, 0), BuildingBlock: CIFDUS_clean_linker_0, # of connection points: 2
#     Edge 28, Type (0, 0), BuildingBlock: CIFDUS_clean_linker_0, # of connection points: 2
#     Edge 29, Type (0, 0), BuildingBlock: CIFDUS_clean_linker_0, # of connection points: 2
#     Edge 30, Type (0, 0), BuildingBlock: CIFDUS_clean_linker_0, # of connection points: 2
#     Edge 31, Type (0, 0), BuildingBlock: CIFDUS_clean_linker_0, # of connection points: 2
#     Edge 32, Type (0, 0), BuildingBlock: CIFDUS_clean_linker_0, # of connection points: 2
#     Edge 33, Type (0, 0), BuildingBlock: CIFDUS_clean_linker_0, # of connection points: 2
#     Edge 34, Type (0, 0), BuildingBlock: CIFDUS_clean_linker_0, # of connection points: 2
#     Edge 35, Type (0, 0), BuildingBlock: CIFDUS_clean_linker_0, # of connection points: 2
#     Edge 36, Type (0, 0), BuildingBlock: CIFDUS_clean_linker_0, # of connection points: 2
#     Edge 37, Type (0, 0), BuildingBlock: CIFDUS_clean_linker_0, # of connection points: 2
#     Edge 38, Type (0, 0), BuildingBlock: CIFDUS_clean_linker_0, # of connection points: 2
#     Edge 39, Type (0, 0), BuildingBlock: CIFDUS_clean_linker_0, # of connection points: 2
#     Edge 40, Type (0, 0), BuildingBlock: CIFDUS_clean_linker_0, # of connection points: 2
#     Edge 41, Type (0, 0), BuildingBlock: CIFDUS_clean_linker_0, # of connection points: 2
#     Edge 42, Type (0, 0), BuildingBlock: CIFDUS_clean_linker_0, # of connection points: 2
#     Edge 43, Type (0, 0), BuildingBlock: CIFDUS_clean_linker_0, # of connection points: 2
#     Edge 44, Type (0, 0), BuildingBlock: CIFDUS_clean_linker_0, # of connection points: 2
#     Edge 45, Type (0, 0), BuildingBlock: CIFDUS_clean_linker_0, # of connection points: 2
#     Edge 46, Type (0, 0), BuildingBlock: CIFDUS_clean_linker_0, # of connection points: 2
#     Edge 47, Type (0, 0), BuildingBlock: CIFDUS_clean_linker_0, # of connection points: 2
#     Edge 48, Type (0, 0), BuildingBlock: CIFDUS_clean_linker_0, # of connection points: 2
#     Edge 49, Type (0, 0), BuildingBlock: CIFDUS_clean_linker_0, # of connection points: 2
#     Edge 50, Type (0, 0), BuildingBlock: CIFDUS_clean_linker_0, # of connection points: 2
#     Edge 51, Type (0, 0), BuildingBlock: CIFDUS_clean_linker_0, # of connection points: 2
#     Edge 52, Type (0, 0), BuildingBlock: CIFDUS_clean_linker_0, # of connection points: 2
#     Edge 53, Type (0, 0), BuildingBlock: CIFDUS_clean_linker_0, # of connection points: 2
#     Edge 54, Type (0, 0), BuildingBlock: CIFDUS_clean_linker_0, # of connection points: 2
#     Edge 55, Type (0, 0), BuildingBlock: CIFDUS_clean_linker_0, # of connection points: 2
#     Edge 56, Type (0, 0), BuildingBlock: CIFDUS_clean_linker_0, # of connection points: 2
#     Edge 57, Type (0, 0), BuildingBlock: CIFDUS_clean_linker_0, # of connection points: 2
#     Edge 58, Type (0, 0), BuildingBlock: CIFDUS_clean_linker_0, # of connection points: 2
#     Edge 59, Type (0, 0), BuildingBlock: CIFDUS_clean_linker_0, # of connection points: 2
#     Edge 60, Type (0, 0), BuildingBlock: CIFDUS_clean_linker_0, # of connection points: 2
#     Edge 61, Type (0, 0), BuildingBlock: CIFDUS_clean_linker_0, # of connection points: 2
#     Edge 62, Type (0, 0), BuildingBlock: CIFDUS_clean_linker_0, # of connection points: 2
# Relax obj value: 0.105
# Max RMSD: 0.129
# Mean RMSD: 0.129
data_MOF--net-fng--node1-XOMCOT_clean_sbu_0--edge1-CIFDUS_clean_linker_0
_symmetry_space_group_name_H-M    P1
_symmetry_Int_Tables_number       1
_symmetry_cell_setting            triclinic
loop_
_symmetry_equiv_pos_as_xyz
'x, y, z'
_cell_length_a     69.835728
_cell_length_b     70.067531
_cell_length_c     15.513201
_cell_angle_alpha  89.927646
_cell_angle_beta   90.050765
_cell_angle_gamma 120.174
loop_
_atom_site_label
_atom_site_type_symbol
_atom_site_fract_x
_atom_site_fract_y
_atom_site_fract_z
_atom_type_partial_charge
Co0 Co 0.16561 0.25481 0.08147 0.0
C1 C 0.17063 0.2603 0.88899 0.0
C2 C 0.18751 0.29132 0.95423 0.0
C3 C 0.1907 0.29507 0.86687 0.0
N4 N 0.1742 0.26952 0.96864 0.0
N5 N 0.17991 0.27554 0.82538 0.0
H6 H 0.162 0.24276 0.87749 0.0
H7 H 0.19521 0.3038 0.00341 0.0
C8 C 0.16757 0.29761 0.13299 0.0
O9 O 0.15353 0.29486 0.07118 0.0
N10 N 0.15797 0.24066 0.19362 0.0
C11 C 0.14237 0.21969 0.21139 0.0
C12 C 0.14183 0.21651 0.29936 0.0
C13 C 0.16675 0.24993 0.27073 0.0
N14 N 0.15711 0.23557 0.33671 0.0
C15 C 0.12384 0.23435 0.99523 0.0
C16 C 0.09948 0.24128 0.11829 0.0
C17 C 0.08858 0.22834 0.04587 0.0
C18 C 0.10115 0.22524 0.9837 0.0
C19 C 0.12257 0.25036 0.12721 0.0
N20 N 0.1346 0.24709 0.06515 0.0
H21 H 0.13227 0.22954 0.9505 0.0
H22 H 0.13052 0.25909 0.18581 0.0
H23 H 0.13188 0.20767 0.16386 0.0
H24 H 0.17999 0.26682 0.27843 0.0
O25 O 0.16303 0.22836 0.03233 0.0
O26 O 0.19405 0.25574 0.0863 0.0
O27 O 0.17434 0.28382 0.14197 0.0
C28 C 0.18385 0.23633 0.04984 0.0
H29 H 0.20077 0.31102 0.83679 0.0
H30 H 0.13061 0.20147 0.33329 0.0
H31 H 0.09014 0.24337 0.16941 0.0
H32 H 0.09323 0.21464 0.9286 0.0
Co33 Co 0.78161 0.91601 0.10713 0.0
C34 C 0.77519 0.92339 0.92549 0.0
C35 C 0.75128 0.89071 0.96632 0.0
C36 C 0.74977 0.89199 0.87846 0.0
N37 N 0.76759 0.91031 0.99545 0.0
N38 N 0.76515 0.91247 0.85294 0.0
H39 H 0.78912 0.93998 0.92601 0.0
H40 H 0.74259 0.87585 0.0042 0.0
C41 C 0.73948 0.87564 0.18108 0.0
O42 O 0.745 0.86124 0.15538 0.0
N43 N 0.79466 0.92181 0.21918 0.0
C44 C 0.81461 0.9254 0.24559 0.0
C45 C 0.81494 0.92604 0.33468 0.0
C46 C 0.78365 0.9212 0.29043 0.0
N47 N 0.79525 0.92306 0.3617 0.0
C48 C 0.79823 0.89324 0.00945 0.0
C49 C 0.80018 0.86699 0.13798 0.0
C50 C 0.80981 0.86785 0.05769 0.0
C51 C 0.80828 0.88081 0.99278 0.0
C52 C 0.79014 0.87983 0.15226 0.0
N53 N 0.7891 0.89275 0.088 0.0
H54 H 0.7993 0.90454 0.96003 0.0
H55 H 0.78406 0.88004 0.21612 0.0
H56 H 0.82738 0.92627 0.2036 0.0
H57 H 0.76711 0.91885 0.2904 0.0
O58 O 0.80902 0.94001 0.06283 0.0
O59 O 0.78148 0.94378 0.11362 0.0
O60 O 0.75132 0.89613 0.16167 0.0
C61 C 0.80145 0.95308 0.0816 0.0
H62 H 0.73978 0.87822 0.83619 0.0
H63 H 0.82802 0.92734 0.37613 0.0
H64 H 0.80158 0.85758 0.19057 0.0
H65 H 0.81601 0.88235 0.9306 0.0
Co66 Co 0.13179 0.88001 0.12452 0.0
C67 C 0.13238 0.87845 0.93664 0.0
C68 C 0.1388 0.85415 0.99128 0.0
C69 C 0.13684 0.85118 0.90312 0.0
N70 N 0.13662 0.87171 0.01174 0.0
N71 N 0.13255 0.86639 0.87009 0.0
H72 H 0.1277 0.89085 0.93028 0.0
H73 H 0.14036 0.84344 0.03745 0.0
C74 C 0.17215 0.87419 0.15272 0.0
O75 O 0.18048 0.8826 0.07685 0.0
N76 N 0.12649 0.88772 0.23667 0.0
C77 C 0.12138 0.90322 0.25891 0.0
C78 C 0.12136 0.90442 0.34787 0.0
C79 C 0.12929 0.87961 0.31089 0.0
N80 N 0.12661 0.8897 0.37938 0.0
C81 C 0.14795 0.923 0.05037 0.0
C82 C 0.1885 0.94465 0.13204 0.0
C83 C 0.18314 0.95641 0.07263 0.0
C84 C 0.16248 0.94524 0.03221 0.0
C85 C 0.17357 0.92208 0.14692 0.0
N86 N 0.15381 0.91123 0.10375 0.0
H87 H 0.13161 0.91554 0.02288 0.0
H88 H 0.17775 0.91369 0.19518 0.0
H89 H 0.11863 0.9134 0.21385 0.0
H90 H 0.13357 0.8668 0.31515 0.0
O91 O 0.10556 0.87975 0.08131 0.0
O92 O 0.10578 0.85072 0.13568 0.0
O93 O 0.15418 0.87304 0.17836 0.0
C94 C 0.09454 0.85882 0.09974 0.0
H95 H 0.13715 0.83814 0.86688 0.0
H96 H 0.11874 0.91581 0.38615 0.0
H97 H 0.20402 0.95285 0.16697 0.0
H98 H 0.15717 0.95388 0.98914 0.0
Co99 Co 0.2689 0.15845 0.86675 0.0
C100 C 0.27482 0.15458 0.05279 0.0
C101 C 0.30134 0.18459 1.00116 0.0
C102 C 0.3034 0.18514 0.08975 0.0
N103 N 0.28352 0.16524 0.97794 0.0
N104 N 0.28662 0.1662 0.12181 0.0
H105 H 0.25905 0.13965 0.05826 0.0
H106 H 0.31139 0.1979 0.95714 0.0
C107 C 0.31591 0.1677 0.82083 0.0
O108 O 0.32039 0.16398 0.89917 0.0
N109 N 0.25459 0.15229 0.75604 0.0
C110 C 0.23554 0.13446 0.7306 0.0
C111 C 0.2341 0.13514 0.64197 0.0
C112 C 0.26415 0.16374 0.68367 0.0
N113 N 0.25218 0.15355 0.61295 0.0
C114 C 0.24057 0.11432 0.92919 0.0
C115 C 0.262 0.09437 0.85552 0.0
C116 C 0.24382 0.0818 0.90977 0.0
C117 C 0.23301 0.09207 0.94606 0.0
C118 C 0.26946 0.11691 0.84204 0.0
N119 N 0.25918 0.12689 0.88098 0.0
H120 H 0.23144 0.12146 0.95666 0.0
H121 H 0.28323 0.12596 0.79909 0.0
H122 H 0.22409 0.12135 0.77255 0.0
H123 H 0.28036 0.17845 0.68223 0.0
O124 O 0.2439 0.15892 0.91933 0.0
O125 O 0.27293 0.18804 0.86327 0.0
O126 O 0.29696 0.16529 0.80269 0.0
C127 C 0.25397 0.17993 0.9026 0.0
H128 H 0.31567 0.19879 0.12763 0.0
H129 H 0.2212 0.12268 0.6018 0.0
H130 H 0.27048 0.08688 0.82432 0.0
H131 H 0.21847 0.08282 0.98602 0.0
Co132 Co 0.88086 0.11632 0.90067 0.0
C133 C 0.88458 0.12382 0.08814 0.0
C134 C 0.8601 0.13009 0.03391 0.0
C135 C 0.85989 0.13211 0.12249 0.0
N136 N 0.87584 0.12516 0.01257 0.0
N137 N 0.87549 0.12831 0.15572 0.0
H138 H 0.89605 0.11793 0.09542 0.0
H139 H 0.84885 0.13115 0.98878 0.0
C140 C 0.87846 0.15767 0.85054 0.0
O141 O 0.89217 0.17008 0.91131 0.0
N142 N 0.88532 0.10741 0.78913 0.0
C143 C 0.90151 0.10357 0.7637 0.0
C144 C 0.90043 0.10128 0.67521 0.0
C145 C 0.8744 0.10697 0.71706 0.0
N146 N 0.88341 0.10352 0.64638 0.0
C147 C 0.92469 0.13204 0.96458 0.0
C148 C 0.94687 0.17065 0.87142 0.0
C149 C 0.95872 0.16617 0.93411 0.0
C150 C 0.94711 0.14635 0.98013 0.0
C151 C 0.92405 0.15586 0.85903 0.0
N152 N 0.91289 0.13738 0.90923 0.0
H153 H 0.91695 0.11643 0.99758 0.0
H154 H 0.91564 0.15915 0.80791 0.0
H155 H 0.91385 0.10355 0.80579 0.0
H156 H 0.86105 0.11058 0.71574 0.0
O157 O 0.88021 0.0907 0.952 0.0
O158 O 0.8508 0.09123 0.903 0.0
O159 O 0.87362 0.13764 0.84091 0.0
C160 C 0.85893 0.08011 0.93947 0.0
H161 H 0.84882 0.13552 0.15955 0.0
H162 H 0.91177 0.09898 0.635 0.0
H163 H 0.95517 0.1852 0.83109 0.0
H164 H 0.95511 0.14171 0.02885 0.0
Co165 Co 0.931 0.78366 0.91421 0.0
C166 C 0.92212 0.77731 0.10122 0.0
C167 C 0.92899 0.75315 0.04849 0.0
C168 C 0.92719 0.75053 0.13677 0.0
N169 N 0.92557 0.76983 0.0263 0.0
N170 N 0.92283 0.76577 0.16936 0.0
H171 H 0.92088 0.79193 0.10759 0.0
H172 H 0.93338 0.74413 0.00384 0.0
C173 C 0.89424 0.73617 0.88162 0.0
O174 O 0.88662 0.73441 0.96032 0.0
N175 N 0.93684 0.79712 0.80243 0.0
C176 C 0.93648 0.8153 0.77667 0.0
C177 C 0.93847 0.81672 0.68807 0.0
C178 C 0.93949 0.78803 0.73052 0.0
N179 N 0.94035 0.79953 0.65974 0.0
C180 C 0.91241 0.80902 0.97861 0.0
C181 C 0.87071 0.78555 0.90708 0.0
C182 C 0.87579 0.80398 0.95878 0.0
C183 C 0.89701 0.81562 0.99459 0.0
C184 C 0.88677 0.77933 0.8929 0.0
N185 N 0.90722 0.79064 0.93095 0.0
H186 H 0.92861 0.81887 0.00642 0.0
H187 H 0.88273 0.76585 0.8495 0.0
H188 H 0.93406 0.82623 0.81853 0.0
H189 H 0.93943 0.77255 0.72956 0.0
O190 O 0.95529 0.81041 0.96158 0.0
O191 O 0.95881 0.78315 0.90833 0.0
O192 O 0.91077 0.75431 0.85563 0.0
C193 C 0.96814 0.80256 0.94442 0.0
H194 H 0.92963 0.73887 0.17414 0.0
H195 H 0.93794 0.82902 0.64747 0.0
H196 H 0.8547 0.77637 0.87601 0.0
H197 H 0.90183 0.82984 0.03549 0.0
Co198 Co 0.84011 0.60165 0.45998 0.0
C199 C 0.84245 0.60741 0.26808 0.0
C200 C 0.86609 0.63679 0.33328 0.0
C201 C 0.86933 0.64023 0.24574 0.0
N202 N 0.84881 0.61638 0.34778 0.0
N203 N 0.85447 0.62168 0.20436 0.0
H204 H 0.83049 0.59034 0.2565 0.0
H205 H 0.87633 0.64817 0.38299 0.0
C206 C 0.84519 0.64674 0.50049 0.0
O207 O 0.83634 0.64733 0.4265 0.0
N208 N 0.83199 0.58718 0.57147 0.0
C209 C 0.81632 0.56613 0.58715 0.0
C210 C 0.81382 0.56301 0.67513 0.0
C211 C 0.83896 0.59653 0.65002 0.0
N212 N 0.82796 0.5822 0.71489 0.0
C213 C 0.79736 0.57669 0.38063 0.0
C214 C 0.77511 0.59215 0.4789 0.0
C215 C 0.76336 0.5764 0.41461 0.0
C216 C 0.77488 0.5687 0.36546 0.0
C217 C 0.79785 0.60003 0.49106 0.0
N218 N 0.80894 0.59279 0.4403 0.0
H219 H 0.80512 0.56905 0.34634 0.0
H220 H 0.8062 0.61131 0.54348 0.0
H221 H 0.80689 0.55407 0.53802 0.0
H222 H 0.85128 0.61368 0.65946 0.0
O223 O 0.8401 0.57621 0.41067 0.0
O224 O 0.86929 0.60474 0.46935 0.0
O225 O 0.84717 0.63013 0.5205 0.0
C226 C 0.86102 0.58582 0.43004 0.0
H227 H 0.88208 0.65514 0.21545 0.0
H228 H 0.80222 0.54778 0.70704 0.0
H229 H 0.76678 0.59817 0.5201 0.0
H230 H 0.76635 0.55581 0.31797 0.0
Co231 Co 0.46865 0.25853 0.4597 0.0
C232 C 0.46402 0.25196 0.27447 0.0
C233 C 0.4377 0.25557 0.32688 0.0
C234 C 0.43752 0.25751 0.23856 0.0
N235 N 0.45434 0.25202 0.34911 0.0
N236 N 0.4544 0.25561 0.20637 0.0
H237 H 0.4791 0.25143 0.27008 0.0
H238 H 0.42786 0.25877 0.37212 0.0
C239 C 0.4207 0.22248 0.50167 0.0
O240 O 0.41675 0.21443 0.42314 0.0
N241 N 0.48258 0.26557 0.57012 0.0
C242 C 0.4999 0.26407 0.59962 0.0
C243 C 0.50056 0.2663 0.6881 0.0
C244 C 0.47339 0.2692 0.63922 0.0
N245 N 0.48363 0.26922 0.71257 0.0
C246 C 0.49391 0.23929 0.39895 0.0
C247 C 0.46994 0.19829 0.47486 0.0
C248 C 0.48792 0.20253 0.42157 0.0
C249 C 0.50004 0.22347 0.38443 0.0
C250 C 0.46411 0.21463 0.48689 0.0
N251 N 0.4756 0.2347 0.44658 0.0
H252 H 0.50421 0.25539 0.37121 0.0
H253 H 0.45071 0.21105 0.53029 0.0
H254 H 0.51036 0.26022 0.56084 0.0
H255 H 0.45859 0.27046 0.6357 0.0
O256 O 0.49523 0.28243 0.40879 0.0
O257 O 0.46793 0.28614 0.46129 0.0
O258 O 0.43965 0.2388 0.52186 0.0
C259 C 0.48722 0.29524 0.42378 0.0
H260 H 0.42724 0.26212 0.20202 0.0
H261 H 0.51155 0.26421 0.73123 0.0
H262 H 0.46045 0.18249 0.50686 0.0
H263 H 0.51461 0.22788 0.3458 0.0
Co264 Co 0.80011 0.21686 0.43672 0.0
C265 C 0.7975 0.20895 0.24601 0.0
C266 C 0.81764 0.19786 0.30697 0.0
C267 C 0.81732 0.19422 0.21945 0.0
N268 N 0.80571 0.20774 0.32397 0.0
N269 N 0.80483 0.20145 0.18099 0.0
H270 H 0.78617 0.21504 0.23647 0.0
H271 H 0.8259 0.19321 0.35413 0.0
C272 C 0.84187 0.21677 0.4961 0.0
O273 O 0.85428 0.23221 0.44038 0.0
N274 N 0.7941 0.22514 0.54868 0.0
C275 C 0.78721 0.23961 0.564 0.0
C276 C 0.78542 0.24125 0.65178 0.0
C277 C 0.79631 0.21808 0.62738 0.0
N278 N 0.79128 0.2278 0.69216 0.0
C279 C 0.82143 0.25704 0.34089 0.0
C280 C 0.85144 0.28393 0.46389 0.0
C281 C 0.84961 0.29336 0.38661 0.0
C282 C 0.83467 0.27948 0.32447 0.0
C283 C 0.83781 0.26101 0.47766 0.0
N284 N 0.8231 0.24772 0.41581 0.0
H285 H 0.80865 0.24762 0.29513 0.0
H286 H 0.83848 0.25414 0.53928 0.0
H287 H 0.78392 0.24854 0.51477 0.0
H288 H 0.80187 0.20637 0.63693 0.0
O289 O 0.77558 0.21866 0.38879 0.0
O290 O 0.77281 0.18838 0.4457 0.0
O291 O 0.82089 0.20876 0.49708 0.0
C292 C 0.76305 0.198 0.40902 0.0
H293 H 0.82599 0.18717 0.18663 0.0
H294 H 0.78015 0.25165 0.68283 0.0
H295 H 0.86232 0.29427 0.51478 0.0
H296 H 0.83221 0.2862 0.26525 0.0
Co297 Co 0.93565 0.49838 0.23383 0.0
C298 C 0.94088 0.49554 0.42082 0.0
C299 C 0.96892 0.52402 0.36707 0.0
C300 C 0.97127 0.52465 0.4557 0.0
N301 N 0.94991 0.50559 0.34544 0.0
N302 N 0.95361 0.50658 0.48873 0.0
H303 H 0.92454 0.48145 0.42763 0.0
H304 H 0.97976 0.53665 0.32206 0.0
C305 C 0.98315 0.50908 0.18312 0.0
O306 O 0.98589 0.49901 0.24941 0.0
N307 N 0.92177 0.4917 0.12237 0.0
C308 C 0.90323 0.47337 0.0967 0.0
C309 C 0.90175 0.47405 0.00813 0.0
C310 C 0.93099 0.50344 0.05028 0.0
N311 N 0.91931 0.49296 0.9794 0.0
C312 C 0.91094 0.45434 0.29703 0.0
C313 C 0.93273 0.43585 0.21543 0.0
C314 C 0.91513 0.42259 0.27171 0.0
C315 C 0.90448 0.43243 0.31282 0.0
C316 C 0.93907 0.45825 0.20246 0.0
N317 N 0.92864 0.46751 0.24563 0.0
H318 H 0.90131 0.46051 0.32731 0.0
H319 H 0.95186 0.46772 0.15607 0.0
H320 H 0.89219 0.45998 0.13858 0.0
H321 H 0.94674 0.51867 0.04913 0.0
O322 O 0.90889 0.49523 0.28451 0.0
O323 O 0.93616 0.52661 0.23424 0.0
O324 O 0.96495 0.509 0.17258 0.0
C325 C 0.91675 0.51608 0.27059 0.0
H326 H 0.98452 0.53762 0.49294 0.0
H327 H 0.8892 0.46128 0.96783 0.0
H328 H 0.94115 0.42888 0.18019 0.0
H329 H 0.891 0.4233 0.35759 0.0
Co330 Co 0.55967 0.45666 0.22414 0.0
C331 C 0.55839 0.46185 0.41572 0.0
C332 C 0.53144 0.46208 0.35097 0.0
C333 C 0.5285 0.46263 0.43859 0.0
N334 N 0.55048 0.46212 0.33608 0.0
N335 N 0.54543 0.46238 0.47947 0.0
H336 H 0.57278 0.46041 0.42769 0.0
H337 H 0.51994 0.4608 0.30145 0.0
C338 C 0.55171 0.49492 0.18587 0.0
O339 O 0.55882 0.50357 0.26249 0.0
N340 N 0.56818 0.45082 0.11275 0.0
C341 C 0.585 0.44722 0.09636 0.0
C342 C 0.58664 0.44561 0.00842 0.0
C343 C 0.55972 0.45124 0.0347 0.0
N344 N 0.57076 0.44818 0.96928 0.0
C345 C 0.60281 0.47533 0.30082 0.0
C346 C 0.62342 0.51435 0.20911 0.0
C347 C 0.6358 0.51038 0.27066 0.0
C348 C 0.62511 0.49048 0.31643 0.0
C349 C 0.60088 0.4988 0.19643 0.0
N350 N 0.59057 0.47979 0.24406 0.0
H351 H 0.59563 0.45961 0.33312 0.0
H352 H 0.59211 0.50186 0.14608 0.0
H353 H 0.59571 0.4464 0.14483 0.0
H354 H 0.54584 0.45386 0.02617 0.0
O355 O 0.56059 0.4317 0.2738 0.0
O356 O 0.53094 0.42989 0.21461 0.0
O357 O 0.55173 0.4774 0.16334 0.0
C358 C 0.53972 0.41978 0.25444 0.0
H359 H 0.51438 0.46211 0.46968 0.0
H360 H 0.59911 0.44341 0.97606 0.0
H361 H 0.63112 0.52926 0.17051 0.0
H362 H 0.63416 0.48619 0.36176 0.0
Co363 Co 0.59818 0.10892 0.24936 0.0
C364 C 0.59523 0.10348 0.44178 0.0
C365 C 0.58258 0.07257 0.37674 0.0
C366 C 0.58142 0.06883 0.46429 0.0
N367 N 0.59056 0.09426 0.36207 0.0
N368 N 0.58933 0.0883 0.50545 0.0
H369 H 0.60361 0.12099 0.45351 0.0
H370 H 0.5787 0.06027 0.32749 0.0
C371 C 0.55554 0.06708 0.20243 0.0
O372 O 0.5454 0.07009 0.26781 0.0
N373 N 0.60611 0.12311 0.1374 0.0
C374 C 0.61322 0.14447 0.12005 0.0
C375 C 0.61582 0.14761 0.03211 0.0
C376 C 0.60452 0.11355 0.06002 0.0
N377 N 0.61027 0.12814 0.99428 0.0
C378 C 0.57933 0.13273 0.32919 0.0
C379 C 0.54624 0.12281 0.21014 0.0
C380 C 0.54808 0.136 0.28138 0.0
C381 C 0.56505 0.14101 0.34084 0.0
C382 C 0.56083 0.11462 0.2015 0.0
N383 N 0.5766 0.11883 0.26271 0.0
H384 H 0.59326 0.1385 0.37175 0.0
H385 H 0.55969 0.10528 0.14446 0.0
H386 H 0.61583 0.15677 0.16785 0.0
H387 H 0.59925 0.09627 0.05195 0.0
O388 O 0.62372 0.13413 0.29982 0.0
O389 O 0.62378 0.10495 0.24573 0.0
O390 O 0.5761 0.08059 0.18912 0.0
C391 C 0.63475 0.12415 0.28317 0.0
H392 H 0.57596 0.05303 0.49493 0.0
H393 H 0.62077 0.16295 0.99856 0.0
H394 H 0.53379 0.11901 0.16111 0.0
H395 H 0.56794 0.15211 0.39419 0.0
Co396 Co 0.50631 0.93234 0.75699 0.0
C397 C 0.51433 0.93973 0.56635 0.0
C398 C 0.51129 0.9656 0.62603 0.0
C399 C 0.5135 0.96927 0.5385 0.0
N400 N 0.51168 0.94698 0.64423 0.0
N401 N 0.51528 0.95293 0.50048 0.0
H402 H 0.51476 0.92467 0.55746 0.0
H403 H 0.50873 0.97562 0.67189 0.0
C404 C 0.50594 0.97226 0.84163 0.0
O405 O 0.48593 0.96673 0.81574 0.0
N406 N 0.50142 0.91811 0.86898 0.0
C407 C 0.48768 0.89659 0.88628 0.0
C408 C 0.48737 0.89342 0.97407 0.0
C409 C 0.50949 0.92769 0.94645 0.0
N410 N 0.50103 0.913 0.01224 0.0
C411 C 0.46433 0.91328 0.67207 0.0
C412 C 0.43895 0.91194 0.81065 0.0
C413 C 0.42827 0.90292 0.7317 0.0
C414 C 0.44145 0.90374 0.6621 0.0
C415 C 0.46201 0.92132 0.81795 0.0
N416 N 0.4746 0.92249 0.74837 0.0
H417 H 0.47363 0.9123 0.61864 0.0
H418 H 0.46969 0.92752 0.87998 0.0
H419 H 0.47789 0.88421 0.83866 0.0
H420 H 0.52111 0.9451 0.95458 0.0
O421 O 0.50531 0.90683 0.70401 0.0
O422 O 0.5357 0.93592 0.75368 0.0
O423 O 0.51508 0.96117 0.81872 0.0
C424 C 0.5266 0.91657 0.71728 0.0
H425 H 0.51276 0.98248 0.50539 0.0
H426 H 0.47711 0.87795 0.00718 0.0
H427 H 0.42959 0.91163 0.86675 0.0
H428 H 0.43409 0.89621 0.60088 0.0
Co429 Co 0.13232 0.5861 0.78434 0.0
C430 C 0.12932 0.57909 0.59956 0.0
C431 C 0.09874 0.57524 0.64704 0.0
C432 C 0.0975 0.57341 0.55847 0.0
N433 N 0.11877 0.57885 0.67227 0.0
N434 N 0.11678 0.57582 0.52927 0.0
H435 H 0.14637 0.58291 0.59769 0.0
H436 H 0.08617 0.57475 0.68871 0.0
C437 C 0.08791 0.56858 0.86366 0.0
O438 O 0.09011 0.58774 0.84268 0.0
N439 N 0.14606 0.59347 0.89661 0.0
C440 C 0.16647 0.59784 0.92041 0.0
C441 C 0.16843 0.60065 0.00852 0.0
C442 C 0.13628 0.59444 0.96976 0.0
N443 N 0.14937 0.59848 0.03892 0.0
C444 C 0.16174 0.57027 0.74264 0.0
C445 C 0.13117 0.52565 0.73989 0.0
C446 C 0.15276 0.53292 0.71008 0.0
C447 C 0.16814 0.5555 0.71373 0.0
C448 C 0.12528 0.54116 0.76792 0.0
N449 N 0.14051 0.56329 0.76844 0.0
H450 H 0.1739 0.58757 0.73967 0.0
H451 H 0.10824 0.53528 0.78509 0.0
H452 H 0.17911 0.59878 0.87787 0.0
H453 H 0.11962 0.59157 0.97334 0.0
O454 O 0.15854 0.61079 0.73464 0.0
O455 O 0.13044 0.6132 0.78535 0.0
O456 O 0.10311 0.56434 0.8422 0.0
C457 C 0.14988 0.62301 0.74911 0.0
H458 H 0.08375 0.57105 0.51858 0.0
H459 H 0.18261 0.60377 0.04728 0.0
H460 H 0.11872 0.5083 0.73773 0.0
H461 H 0.18504 0.56187 0.69223 0.0
Co462 Co 0.46139 0.53735 0.76429 0.0
C463 C 0.47045 0.54059 0.57688 0.0
C464 C 0.4682 0.51145 0.63127 0.0
C465 C 0.47036 0.51085 0.54301 0.0
N466 N 0.46849 0.53027 0.65247 0.0
N467 N 0.47186 0.5293 0.50947 0.0
H468 H 0.46914 0.55512 0.56921 0.0
H469 H 0.46571 0.49864 0.67655 0.0
C470 C 0.50227 0.53326 0.7996 0.0
O471 O 0.50991 0.53986 0.72133 0.0
N472 N 0.45405 0.54361 0.87584 0.0
C473 C 0.45247 0.56109 0.902 0.0
C474 C 0.4507 0.56033 0.99075 0.0
C475 C 0.45279 0.53231 0.94771 0.0
N476 N 0.45095 0.54221 0.01884 0.0
C477 C 0.47499 0.58015 0.69536 0.0
C478 C 0.51651 0.60336 0.76833 0.0
C479 C 0.50982 0.61452 0.7109 0.0
C480 C 0.48866 0.60228 0.67432 0.0
C481 C 0.50241 0.58069 0.78544 0.0
N482 N 0.48214 0.56908 0.74631 0.0
H483 H 0.45864 0.57179 0.66761 0.0
H484 H 0.50775 0.57286 0.83173 0.0
H485 H 0.45355 0.57398 0.86034 0.0
H486 H 0.4547 0.5179 0.94832 0.0
O487 O 0.43488 0.53554 0.71618 0.0
O488 O 0.43625 0.50726 0.77168 0.0
O489 O 0.48428 0.5322 0.82384 0.0
C490 C 0.42451 0.51465 0.73461 0.0
H491 H 0.47016 0.49762 0.50631 0.0
H492 H 0.45002 0.57249 0.03156 0.0
H493 H 0.53229 0.61204 0.80117 0.0
H494 H 0.48244 0.60948 0.62842 0.0
Co495 Co 0.59443 0.82079 0.55356 0.0
C496 C 0.59952 0.81793 0.74169 0.0
C497 C 0.62738 0.84632 0.68665 0.0
C498 C 0.6302 0.84695 0.77488 0.0
N499 N 0.60819 0.82795 0.66602 0.0
N500 N 0.61265 0.82894 0.80868 0.0
H501 H 0.58329 0.80378 0.74972 0.0
H502 H 0.63818 0.85876 0.64096 0.0
C503 C 0.63916 0.82475 0.521 0.0
O504 O 0.63722 0.81378 0.59231 0.0
N505 N 0.5813 0.81445 0.44124 0.0
C506 C 0.5619 0.79719 0.41529 0.0
C507 C 0.56072 0.79812 0.32674 0.0
C508 C 0.5914 0.82583 0.36959 0.0
N509 N 0.57931 0.81616 0.2987 0.0
C510 C 0.56642 0.77756 0.62055 0.0
C511 C 0.58334 0.75492 0.53414 0.0
C512 C 0.56516 0.7432 0.58952 0.0
C513 C 0.55701 0.75502 0.63335 0.0
C514 C 0.59255 0.77794 0.52345 0.0
N515 N 0.58451 0.78921 0.5689 0.0
H516 H 0.55845 0.78541 0.65172 0.0
H517 H 0.6054 0.78629 0.476 0.0
H518 H 0.5499 0.78443 0.45712 0.0
H519 H 0.60785 0.84022 0.36891 0.0
O520 O 0.56849 0.82026 0.59932 0.0
O521 O 0.59756 0.85022 0.5485 0.0
O522 O 0.62362 0.82821 0.49766 0.0
C523 C 0.57784 0.84114 0.5824 0.0
H524 H 0.64374 0.85983 0.81136 0.0
H525 H 0.54756 0.78618 0.28598 0.0
H526 H 0.58971 0.74628 0.49675 0.0
H527 H 0.54287 0.74674 0.67603 0.0
Co528 Co 0.22305 0.78465 0.54875 0.0
C529 C 0.22448 0.78956 0.73465 0.0
C530 C 0.19618 0.7895 0.68125 0.0
C531 C 0.1937 0.78747 0.7694 0.0
N532 N 0.21562 0.791 0.65992 0.0
N533 N 0.21142 0.78716 0.80199 0.0
H534 H 0.23913 0.78822 0.73964 0.0
H535 H 0.1838 0.78799 0.63545 0.0
C536 C 0.2157 0.82352 0.51669 0.0
O537 O 0.22278 0.83123 0.59447 0.0
N538 N 0.22955 0.77779 0.43789 0.0
C539 C 0.24744 0.77714 0.40964 0.0
C540 C 0.24622 0.77554 0.32091 0.0
C541 C 0.21759 0.77609 0.36798 0.0
N542 N 0.22754 0.77518 0.29547 0.0
C543 C 0.26728 0.80103 0.61189 0.0
C544 C 0.28711 0.84255 0.53912 0.0
C545 C 0.29999 0.837 0.59187 0.0
C546 C 0.28971 0.81572 0.62713 0.0
C547 C 0.26456 0.82722 0.52526 0.0
N548 N 0.25457 0.80696 0.56448 0.0
H549 H 0.2603 0.78464 0.63826 0.0
H550 H 0.25558 0.83171 0.48125 0.0
H551 H 0.26093 0.77897 0.4497 0.0
H552 H 0.2024 0.77665 0.37025 0.0
O553 O 0.22328 0.7592 0.59719 0.0
O554 O 0.19359 0.75835 0.5438 0.0
O555 O 0.21566 0.80622 0.4902 0.0
C556 C 0.20219 0.74777 0.58138 0.0
H557 H 0.17921 0.78448 0.80566 0.0
H558 H 0.25879 0.77615 0.27838 0.0
H559 H 0.29432 0.8586 0.50863 0.0
H560 H 0.29902 0.81014 0.66488 0.0
Co561 Co 0.25958 0.43617 0.56651 0.0
C562 C 0.26273 0.42959 0.7567 0.0
C563 C 0.23639 0.40067 0.69777 0.0
C564 C 0.23593 0.39714 0.7852 0.0
N565 N 0.25303 0.42118 0.67917 0.0
N566 N 0.25236 0.41541 0.82282 0.0
H567 H 0.27648 0.44616 0.76526 0.0
H568 H 0.22472 0.38906 0.65234 0.0
C569 C 0.22037 0.39432 0.48749 0.0
O570 O 0.20546 0.39794 0.5231 0.0
N571 N 0.26645 0.45066 0.45454 0.0
C572 C 0.27137 0.47147 0.43749 0.0
C573 C 0.27383 0.47484 0.34965 0.0
C574 C 0.26633 0.44177 0.37696 0.0
N575 N 0.27061 0.45613 0.31116 0.0
C576 C 0.23355 0.44994 0.66126 0.0
C577 C 0.20704 0.44992 0.52928 0.0
C578 C 0.20459 0.45665 0.61188 0.0
C579 C 0.21816 0.45656 0.67791 0.0
C580 C 0.2225 0.44288 0.51564 0.0
N581 N 0.23522 0.44237 0.58206 0.0
H582 H 0.24485 0.45199 0.71218 0.0
H583 H 0.22425 0.43793 0.45151 0.0
H584 H 0.27241 0.48317 0.48538 0.0
H585 H 0.26308 0.42508 0.36897 0.0
O586 O 0.28264 0.46313 0.61758 0.0
O587 O 0.28778 0.43674 0.56427 0.0
O588 O 0.241 0.4068 0.50433 0.0
C589 C 0.29625 0.45604 0.60103 0.0
H590 H 0.22362 0.38253 0.81861 0.0
H591 H 0.27704 0.4898 0.31689 0.0
H592 H 0.19717 0.45013 0.47583 0.0
H593 H 0.21763 0.46257 0.74169 0.0
H594 H 0.17235 0.27454 0.41993 0.0
H595 H 0.15173 0.20595 0.46039 0.0
H596 H 0.15755 0.21234 0.6153 0.0
H597 H 0.16794 0.23719 0.73971 0.0
H598 H 0.18752 0.30564 0.69943 0.0
H599 H 0.18327 0.29958 0.54465 0.0
C600 C 0.16937 0.26103 0.46242 0.0
C601 C 0.16152 0.23975 0.42806 0.0
C602 C 0.17266 0.2648 0.5519 0.0
C603 C 0.15748 0.22242 0.48476 0.0
C604 C 0.16091 0.22609 0.57354 0.0
C605 C 0.17118 0.25083 0.69769 0.0
C606 C 0.17809 0.2719 0.73276 0.0
C607 C 0.16832 0.24717 0.60803 0.0
C608 C 0.1825 0.2893 0.67556 0.0
C609 C 0.1799 0.28582 0.58646 0.0
H610 H 0.81756 0.94261 0.50575 0.0
H611 H 0.75315 0.89468 0.40848 0.0
H612 H 0.7375 0.88891 0.55249 0.0
H613 H 0.74231 0.8967 0.70648 0.0
H614 H 0.80734 0.94269 0.80563 0.0
H615 H 0.82231 0.95047 0.66091 0.0
C616 C 0.80017 0.93087 0.5167 0.0
C617 C 0.78652 0.91928 0.44723 0.0
C618 C 0.79128 0.92748 0.59977 0.0
C619 C 0.76391 0.90414 0.4612 0.0
C620 C 0.75494 0.90074 0.54343 0.0
C621 C 0.75973 0.90843 0.69637 0.0
C622 C 0.77351 0.91901 0.76697 0.0
C623 C 0.76849 0.91229 0.61317 0.0
C624 C 0.79607 0.93449 0.75278 0.0
C625 C 0.80482 0.93879 0.66985 0.0
H626 H 0.15683 0.87063 0.73214 0.0
H627 H 0.09699 0.86819 0.81628 0.0
H628 H 0.08986 0.87614 0.66953 0.0
H629 H 0.1013 0.88436 0.51698 0.0
H630 H 0.1622 0.88856 0.43593 0.0
H631 H 0.16876 0.8799 0.58188 0.0
C632 C 0.14212 0.87154 0.71733 0.0
C633 C 0.12731 0.86866 0.78319 0.0
C634 C 0.13857 0.87672 0.63394 0.0
C635 C 0.10847 0.8703 0.76527 0.0
C636 C 0.10449 0.87493 0.68192 0.0
C637 C 0.11601 0.88348 0.53206 0.0
C638 C 0.13111 0.88668 0.46663 0.0
C639 C 0.11956 0.87839 0.61585 0.0
C640 C 0.15018 0.88557 0.48569 0.0
C641 C 0.15391 0.88065 0.5687 0.0
H642 H 0.24575 0.12578 0.4824 0.0
H643 H 0.27552 0.19467 0.54737 0.0
H644 H 0.28997 0.205 0.4006 0.0
H645 H 0.29367 0.19428 0.25319 0.0
H646 H 0.26452 0.12527 0.18996 0.0
H647 H 0.25022 0.1151 0.33645 0.0
C648 C 0.25513 0.14303 0.46395 0.0
C649 C 0.25939 0.15945 0.52516 0.0
C650 C 0.26361 0.1488 0.37998 0.0
C651 C 0.27206 0.18177 0.50113 0.0
C652 C 0.28032 0.18766 0.41738 0.0
C653 C 0.28449 0.17705 0.27184 0.0
C654 C 0.2801 0.16056 0.21056 0.0
C655 C 0.27628 0.17131 0.3563 0.0
C656 C 0.26789 0.13826 0.2356 0.0
C657 C 0.25973 0.13243 0.31936 0.0
H658 H 0.91204 0.12127 0.51502 0.0
H659 H 0.843 0.09155 0.58183 0.0
H660 H 0.83433 0.09795 0.43547 0.0
H661 H 0.84654 0.11168 0.28741 0.0
H662 H 0.91565 0.14121 0.22216 0.0
H663 H 0.92424 0.13532 0.36895 0.0
C664 C 0.89507 0.1159 0.49712 0.0
C665 C 0.87816 0.1058 0.55871 0.0
C666 C 0.89029 0.11982 0.4134 0.0
C667 C 0.85629 0.0994 0.5353 0.0
C668 C 0.85134 0.10308 0.4518 0.0
C669 C 0.86347 0.11709 0.30605 0.0
C670 C 0.88045 0.12684 0.24449 0.0
C671 C 0.86824 0.11338 0.39036 0.0
C672 C 0.90233 0.13353 0.26869 0.0
C673 C 0.90724 0.13013 0.35237 0.0
H674 H 0.94553 0.76147 0.3011 0.0
H675 H 0.89914 0.78282 0.2368 0.0
H676 H 0.90119 0.79619 0.38364 0.0
H677 H 0.91675 0.80244 0.52956 0.0
H678 H 0.96242 0.7804 0.59554 0.0
H679 H 0.96009 0.76654 0.44883 0.0
C680 C 0.93561 0.7687 0.31971 0.0
C681 C 0.9223 0.77127 0.25821 0.0
C682 C 0.93694 0.77642 0.40415 0.0
C683 C 0.90972 0.78094 0.2829 0.0
C684 C 0.91088 0.78857 0.36673 0.0
C685 C 0.92638 0.79486 0.51122 0.0
C686 C 0.93993 0.79264 0.57239 0.0
C687 C 0.92467 0.78668 0.4275 0.0
C688 C 0.95193 0.78229 0.54898 0.0
C689 C 0.95056 0.77435 0.4654 0.0
H690 H 0.81949 0.5895 0.11632 0.0
H691 H 0.88595 0.64427 0.0819 0.0
H692 H 0.88343 0.63723 0.92765 0.0
H693 H 0.86281 0.61495 0.80172 0.0
H694 H 0.79654 0.55996 0.83691 0.0
H695 H 0.79892 0.56732 0.9909 0.0
C696 C 0.83357 0.59981 0.07565 0.0
C697 C 0.8529 0.61742 0.11216 0.0
C698 C 0.83217 0.59549 0.98638 0.0
C699 C 0.87072 0.63075 0.05682 0.0
C700 C 0.86937 0.62664 0.96805 0.0
C701 C 0.84881 0.60463 0.84273 0.0
C702 C 0.82958 0.58677 0.80672 0.0
C703 C 0.85021 0.60901 0.93201 0.0
C704 C 0.81174 0.57354 0.86201 0.0
C705 C 0.81301 0.57785 0.95051 0.0
H706 H 0.43158 0.24918 0.06 0.0
H707 H 0.49765 0.2748 0.16072 0.0
H708 H 0.5127 0.28203 0.01562 0.0
H709 H 0.50704 0.28002 0.85959 0.0
H710 H 0.44101 0.25514 0.75914 0.0
H711 H 0.42623 0.24937 0.90393 0.0
C712 C 0.44927 0.25652 0.04996 0.0
C713 C 0.46332 0.26089 0.12075 0.0
C714 C 0.45792 0.26093 0.96629 0.0
C715 C 0.48628 0.2705 0.1072 0.0
C716 C 0.495 0.2749 0.02421 0.0
C717 C 0.48944 0.27333 0.86947 0.0
C718 C 0.47525 0.2678 0.79836 0.0
C719 C 0.48093 0.2699 0.95324 0.0
C720 C 0.45248 0.25961 0.81222 0.0
C721 C 0.4439 0.25616 0.89533 0.0
H722 H 0.79547 0.19581 0.77653 0.0
H723 H 0.79071 0.25424 0.81987 0.0
H724 H 0.79333 0.25046 0.97399 0.0
H725 H 0.79821 0.23154 0.09789 0.0
H726 H 0.80429 0.17399 0.05646 0.0
H727 H 0.80038 0.1768 0.90094 0.0
C728 C 0.79511 0.20785 0.81907 0.0
C729 C 0.79274 0.22526 0.78467 0.0
C730 C 0.79699 0.20584 0.90885 0.0
C731 C 0.79214 0.24044 0.84269 0.0
C732 C 0.79379 0.2384 0.93166 0.0
C733 C 0.79836 0.21941 0.05509 0.0
C734 C 0.80145 0.20251 0.08933 0.0
C735 C 0.79627 0.22123 0.96555 0.0
C736 C 0.80209 0.18725 0.03219 0.0
C737 C 0.79978 0.18882 0.94309 0.0
H738 H 0.91336 0.46556 0.84819 0.0
H739 H 0.94222 0.53428 0.91467 0.0
H740 H 0.9569 0.54496 0.76838 0.0
H741 H 0.961 0.53454 0.62042 0.0
H742 H 0.93208 0.4657 0.55567 0.0
H743 H 0.91795 0.4552 0.7023 0.0
C744 C 0.92257 0.48284 0.83024 0.0
C745 C 0.92653 0.4991 0.89176 0.0
C746 C 0.93111 0.48882 0.74653 0.0
C747 C 0.93899 0.52148 0.86825 0.0
C748 C 0.94739 0.52758 0.78475 0.0
C749 C 0.9519 0.5173 0.63906 0.0
C750 C 0.94753 0.5009 0.57755 0.0
C751 C 0.94363 0.51138 0.72338 0.0
C752 C 0.93546 0.47857 0.60196 0.0
C753 C 0.92737 0.47257 0.68562 0.0
H754 H 0.54897 0.46593 0.88562 0.0
H755 H 0.58437 0.43095 0.84253 0.0
H756 H 0.58015 0.43275 0.68769 0.0
H757 H 0.56639 0.44404 0.56325 0.0
H758 H 0.53024 0.47819 0.60529 0.0
H759 H 0.53405 0.4761 0.76077 0.0
C760 C 0.55559 0.45847 0.84281 0.0
C761 C 0.5672 0.44849 0.87706 0.0
C762 C 0.5529 0.45931 0.75289 0.0
C763 C 0.57575 0.43914 0.81918 0.0
C764 C 0.57323 0.44003 0.73006 0.0
C765 C 0.5596 0.45132 0.60617 0.0
C766 C 0.54813 0.46138 0.57181 0.0
C767 C 0.56198 0.4502 0.69603 0.0
C768 C 0.53902 0.47022 0.62934 0.0
C769 C 0.54135 0.46919 0.71862 0.0
H770 H 0.61734 0.12618 0.59036 0.0
H771 H 0.56552 0.05873 0.63087 0.0
H772 H 0.56804 0.06477 0.78615 0.0
H773 H 0.58399 0.08957 0.91102 0.0
H774 H 0.63536 0.15714 0.86995 0.0
H775 H 0.6336 0.15077 0.71487 0.0
C776 C 0.60644 0.11281 0.63271 0.0
C777 C 0.59124 0.09199 0.59789 0.0
C778 C 0.60778 0.11645 0.72242 0.0
C779 C 0.57759 0.07484 0.65504 0.0
C780 C 0.57891 0.07832 0.74422 0.0
C781 C 0.59499 0.10285 0.86837 0.0
C782 C 0.60974 0.12387 0.90269 0.0
C783 C 0.59387 0.09908 0.77873 0.0
C784 C 0.62363 0.1409 0.84572 0.0
C785 C 0.6227 0.13724 0.7568 0.0
H786 H 0.50397 0.91439 0.418 0.0
H787 H 0.5278 0.98359 0.3729 0.0
H788 H 0.52579 0.97747 0.21794 0.0
H789 H 0.51586 0.95228 0.09445 0.0
H790 H 0.49377 0.88344 0.13966 0.0
H791 H 0.49667 0.88977 0.29453 0.0
C792 C 0.50908 0.92826 0.37477 0.0
C793 C 0.51579 0.94942 0.4084 0.0
C794 C 0.50808 0.92469 0.28499 0.0
C795 C 0.52211 0.96702 0.34995 0.0
C796 C 0.52109 0.96357 0.26081 0.0
C797 C 0.51198 0.93866 0.13771 0.0
C798 C 0.50435 0.91731 0.1042 0.0
C799 C 0.51386 0.94243 0.22746 0.0
C800 C 0.49924 0.89996 0.1626 0.0
C801 C 0.50102 0.90358 0.25167 0.0
H802 H 0.106 0.59331 0.39704 0.0
H803 H 0.14433 0.56289 0.46593 0.0
H804 H 0.15913 0.56851 0.31951 0.0
H805 H 0.16083 0.58183 0.1718 0.0
H806 H 0.12237 0.61209 0.10275 0.0
H807 H 0.10786 0.6068 0.24953 0.0
C808 C 0.11734 0.58765 0.37948 0.0
C809 C 0.12403 0.57765 0.44166 0.0
C810 C 0.12587 0.5911 0.29564 0.0
C811 C 0.13908 0.57075 0.41887 0.0
C812 C 0.14753 0.57397 0.3354 0.0
C813 C 0.14958 0.58759 0.18947 0.0
C814 C 0.14272 0.59739 0.12706 0.0
C815 C 0.14115 0.58426 0.27345 0.0
C816 C 0.12777 0.6044 0.14997 0.0
C817 C 0.11946 0.60135 0.23364 0.0
H818 H 0.45175 0.50123 0.37743 0.0
H819 H 0.49163 0.57021 0.44179 0.0
H820 H 0.48802 0.58048 0.29484 0.0
H821 H 0.47269 0.56987 0.14905 0.0
H822 H 0.43331 0.50103 0.08303 0.0
H823 H 0.43757 0.49058 0.2294 0.0
C824 C 0.45994 0.51847 0.35873 0.0
C825 C 0.47181 0.53494 0.42034 0.0
C826 C 0.45766 0.52426 0.27421 0.0
C827 C 0.48216 0.55725 0.39559 0.0
C828 C 0.4801 0.56314 0.3117 0.0
C829 C 0.46483 0.55262 0.16724 0.0
C830 C 0.45249 0.53623 0.10608 0.0
C831 C 0.4676 0.54679 0.25089 0.0
C832 C 0.44285 0.51389 0.12947 0.0
C833 C 0.44531 0.50794 0.21292 0.0
H834 H 0.57273 0.78854 0.1685 0.0
H835 H 0.6032 0.85738 0.23488 0.0
H836 H 0.61788 0.86782 0.08835 0.0
H837 H 0.62121 0.85709 0.94027 0.0
H838 H 0.59105 0.78809 0.87595 0.0
H839 H 0.57712 0.77786 0.02291 0.0
C840 C 0.58233 0.80579 0.15031 0.0
C841 C 0.58669 0.82219 0.21148 0.0
C842 C 0.59091 0.81159 0.06677 0.0
C843 C 0.59964 0.84453 0.18827 0.0
C844 C 0.60804 0.85047 0.10481 0.0
C845 C 0.61192 0.83987 0.9591 0.0
C846 C 0.60704 0.82335 0.89768 0.0
C847 C 0.60381 0.83412 0.04352 0.0
C848 C 0.59476 0.80105 0.92227 0.0
C849 C 0.58679 0.7952 0.00605 0.0
H850 H 0.23563 0.75983 0.15043 0.0
H851 H 0.20579 0.79643 0.24832 0.0
H852 H 0.19693 0.80229 0.103 0.0
H853 H 0.19949 0.79882 0.94699 0.0
H854 H 0.22925 0.76225 0.8485 0.0
H855 H 0.23654 0.75479 0.99455 0.0
C856 C 0.22722 0.76908 0.13961 0.0
C857 C 0.22145 0.77766 0.20978 0.0
C858 C 0.22231 0.77256 0.05573 0.0
C859 C 0.21024 0.7894 0.19545 0.0
C860 C 0.20526 0.79291 0.11226 0.0
C861 C 0.20734 0.78904 0.95797 0.0
C862 C 0.21422 0.7815 0.8878 0.0
C863 C 0.21143 0.78476 0.04192 0.0
C864 C 0.22439 0.7688 0.90196 0.0
C865 C 0.22842 0.76437 0.98531 0.0
H866 H 0.27333 0.45512 0.90496 0.0
H867 H 0.23954 0.38483 0.95072 0.0
H868 H 0.2423 0.39116 0.10563 0.0
H869 H 0.25287 0.41648 0.22873 0.0
H870 H 0.28839 0.48685 0.18313 0.0
H871 H 0.28638 0.48051 0.02852 0.0
C872 C 0.26687 0.44114 0.94837 0.0
C873 C 0.25599 0.41947 0.9149 0.0
C874 C 0.26865 0.44487 0.0382 0.0
C875 C 0.2476 0.40169 0.97355 0.0
C876 C 0.24926 0.40529 0.06266 0.0
C877 C 0.26048 0.43052 0.18558 0.0
C878 C 0.27056 0.45218 0.2191 0.0
C879 C 0.25952 0.4268 0.09586 0.0
C880 C 0.2801 0.46998 0.16051 0.0
C881 C 0.27909 0.46639 0.07145 0.0
H882 H 0.18401 0.37595 0.38354 0.0
H883 H 0.24107 0.37083 0.45257 0.0
H884 H 0.22973 0.34034 0.35064 0.0
H885 H 0.20356 0.31509 0.24085 0.0
H886 H 0.14799 0.32217 0.16503 0.0
H887 H 0.1588 0.35185 0.26979 0.0
C888 C 0.19389 0.36806 0.37667 0.0
C889 C 0.21324 0.37553 0.42649 0.0
C890 C 0.18758 0.35092 0.31608 0.0
C891 C 0.22608 0.36539 0.41536 0.0
C892 C 0.21959 0.34794 0.35698 0.0
C893 C 0.19384 0.32315 0.24712 0.0
C894 C 0.17493 0.3163 0.19489 0.0
C895 C 0.20039 0.34057 0.30677 0.0
C896 C 0.16266 0.3271 0.20376 0.0
C897 C 0.16879 0.34406 0.26404 0.0
H898 H 0.72313 0.84272 0.3006 0.0
H899 H 0.71181 0.89255 0.18879 0.0
H900 H 0.6796 0.881 0.28249 0.0
H901 H 0.65467 0.85677 0.397 0.0
H902 H 0.66778 0.80885 0.51641 0.0
H903 H 0.69923 0.81966 0.41971 0.0
C904 C 0.71349 0.85092 0.29633 0.0
C905 C 0.71967 0.86827 0.23683 0.0
C906 C 0.69537 0.84461 0.35232 0.0
C907 C 0.70734 0.87909 0.23361 0.0
C908 C 0.68893 0.87249 0.28726 0.0
C909 C 0.66441 0.84868 0.40187 0.0
C910 C 0.65874 0.83191 0.4638 0.0
C911 C 0.68279 0.85529 0.347 0.0
C912 C 0.67173 0.82182 0.4697 0.0
C913 C 0.68971 0.82795 0.41413 0.0
H914 H 0.21973 0.82862 0.34154 0.0
H915 H 0.19283 0.84372 0.56404 0.0
H916 H 0.17699 0.86049 0.47132 0.0
H917 H 0.17015 0.87039 0.32718 0.0
H918 H 0.19871 0.85759 0.10441 0.0
H919 H 0.21461 0.8406 0.1965 0.0
C920 C 0.21036 0.83558 0.36945 0.0
C921 C 0.20727 0.83472 0.45953 0.0
C922 C 0.20168 0.84571 0.31572 0.0
C923 C 0.19551 0.84421 0.49509 0.0
C924 C 0.1864 0.85378 0.44208 0.0
C925 C 0.1799 0.86396 0.29883 0.0
C926 C 0.1831 0.8652 0.20894 0.0
C927 C 0.18929 0.85456 0.35238 0.0
C928 C 0.19604 0.85697 0.17337 0.0
C929 C 0.20506 0.84715 0.22604 0.0
H930 H 0.37555 0.19896 0.48393 0.0
H931 H 0.42749 0.22201 0.67413 0.0
H932 H 0.40001 0.2065 0.78939 0.0
H933 H 0.36098 0.18717 0.83721 0.0
H934 H 0.30904 0.1651 0.64693 0.0
H935 H 0.3365 0.17911 0.53165 0.0
C936 C 0.38082 0.20044 0.55056 0.0
C937 C 0.40359 0.2119 0.5703 0.0
C938 C 0.36483 0.19157 0.61692 0.0
C939 C 0.4101 0.2137 0.65716 0.0
C940 C 0.39436 0.20468 0.7232 0.0
C941 C 0.35567 0.18523 0.77051 0.0
C942 C 0.3329 0.17506 0.75121 0.0
C943 C 0.37165 0.19371 0.70405 0.0
C944 C 0.3264 0.17294 0.66413 0.0
C945 C 0.34213 0.18095 0.59786 0.0
H946 H 0.89834 0.19781 0.76892 0.0
H947 H 0.8361 0.13705 0.79431 0.0
H948 H 0.81912 0.14999 0.68888 0.0
H949 H 0.82204 0.17819 0.58683 0.0
H950 H 0.88494 0.23778 0.55128 0.0
H951 H 0.90157 0.22571 0.66198 0.0
C952 C 0.88102 0.18757 0.75184 0.0
C953 C 0.8684 0.16662 0.79016 0.0
C954 C 0.87153 0.19482 0.68846 0.0
C955 C 0.8461 0.15328 0.76603 0.0
C956 C 0.8364 0.16065 0.70557 0.0
C957 C 0.8394 0.18854 0.60313 0.0
C958 C 0.85219 0.20888 0.56054 0.0
C959 C 0.84897 0.18131 0.66582 0.0
C960 C 0.87471 0.22198 0.58237 0.0
C961 C 0.88423 0.21513 0.64612 0.0
H962 H 0.89152 0.73718 0.70613 0.0
H963 H 0.87232 0.69236 0.92184 0.0
H964 H 0.85546 0.66082 0.82349 0.0
H965 H 0.8466 0.64591 0.67579 0.0
H966 H 0.86352 0.69047 0.4604 0.0
H967 H 0.88055 0.72211 0.55864 0.0
C968 C 0.8836 0.72049 0.73154 0.0
C969 C 0.88331 0.71714 0.82133 0.0
C970 C 0.87343 0.70238 0.67456 0.0
C971 C 0.87273 0.69542 0.85321 0.0
C972 C 0.86312 0.67736 0.79692 0.0
C973 C 0.85401 0.66254 0.65037 0.0
C974 C 0.85395 0.66581 0.56072 0.0
C975 C 0.86343 0.68063 0.70746 0.0
C976 C 0.86325 0.68748 0.52904 0.0
C977 C 0.8731 0.70559 0.58522 0.0
H978 H 1.01993 0.50503 0.14848 0.0
H979 H 0.98706 0.54058 0.0711 0.0
H980 H 1.01549 0.56076 0.9639 0.0
H981 H 0.05016 0.56944 0.89372 0.0
H982 H 0.08382 0.53443 0.96597 0.0
H983 H 0.05471 0.51295 0.07211 0.0
C984 C 1.01904 0.51721 0.10821 0.0
C985 C 1.00119 0.52115 0.11843 0.0
C986 C 0.0356 0.52889 0.04518 0.0
C987 C 1.00033 0.53693 0.06483 0.0
C988 C 1.01669 0.54862 0.00329 0.0
C989 C 0.05113 0.55701 0.93217 0.0
C990 C 0.06925 0.55364 0.92165 0.0
C991 C 0.03442 0.54482 0.99303 0.0
C992 C 0.07003 0.53732 0.97202 0.0
C993 C 0.05343 0.52512 0.03328 0.0
H994 H 0.50095 0.53344 0.97551 0.0
H995 H 0.53121 0.51892 0.76233 0.0
H996 H 0.54964 0.5064 0.86301 0.0
H997 H 0.55544 0.49744 0.01115 0.0
H998 H 0.52755 0.51454 0.22478 0.0
H999 H 0.50971 0.52789 0.12455 0.0
C1000 C 0.51157 0.52752 0.951 0.0
C1001 C 0.51448 0.52691 0.86123 0.0
C1002 C 0.52235 0.52057 0.00933 0.0
C1003 C 0.52863 0.51955 0.83087 0.0
C1004 C 0.53906 0.51224 0.88838 0.0
C1005 C 0.54558 0.50424 0.03565 0.0
C1006 C 0.54268 0.50486 0.12527 0.0
C1007 C 0.5358 0.51236 0.97763 0.0
C1008 C 0.53009 0.51396 0.15618 0.0
C1009 C 0.51981 0.5215 0.09882 0.0
H1010 H 0.57206 0.05266 0.07478 0.0
H1011 H 0.51059 0.03988 0.19102 0.0
H1012 H 0.48982 1.01031 0.08721 0.0
H1013 H 0.48903 0.98775 0.96337 0.0
H1014 H 0.55062 0.99935 0.8529 0.0
H1015 H 0.57133 0.02978 0.95347 0.0
C1016 C 0.55411 0.04343 0.07757 0.0
C1017 C 0.54296 0.04859 0.14089 0.0
C1018 C 0.54225 0.02626 0.01811 0.0
C1019 C 0.51968 0.03628 0.14344 0.0
C1020 C 0.50775 0.01938 0.08378 0.0
C1021 C 0.50698 0.9971 0.96088 0.0
C1022 C 0.51825 0.99142 0.90012 0.0
C1023 C 0.51884 1.01423 0.02068 0.0
C1024 C 0.54153 1.0034 0.89885 0.0
C1025 C 0.5534 0.02079 0.95648 0.0
H1026 H 0.22733 0.25126 0.00693 0.0
H1027 H 0.16437 0.19195 0.04599 0.0
H1028 H 0.18048 0.16938 0.00613 0.0
H1029 H 0.21206 0.16621 0.95667 0.0
H1030 H 0.27473 0.22509 0.90834 0.0
H1031 H 0.25924 0.24798 0.95453 0.0
C1032 C 0.21727 0.2334 0.00736 0.0
C1033 C 0.19471 0.2233 0.02981 0.0
C1034 C 0.22654 0.2204 0.98194 0.0
C1035 C 0.18176 0.20014 0.02883 0.0
C1036 C 0.19095 0.18719 0.00599 0.0
C1037 C 0.22236 0.18406 0.95629 0.0
C1038 C 0.24453 0.19389 0.92908 0.0
C1039 C 0.21325 0.1971 0.98172 0.0
C1040 C 0.25757 0.21707 0.92859 0.0
C1041 C 0.24873 0.23018 0.95529 0.0
H1042 H 0.78702 0.98209 0.04456 0.0
H1043 H 0.8461 0.97768 0.07384 0.0
H1044 H 0.86901 1.01651 0.03482 0.0
H1045 H 0.87244 0.05156 0.98866 0.0
H1046 H 0.81366 0.05604 0.95059 0.0
H1047 H 0.79055 1.01753 0.99616 0.0
C1048 C 0.80491 0.98975 0.04316 0.0
C1049 C 0.81485 0.97704 0.0626 0.0
C1050 C 0.81807 1.01209 0.01836 0.0
C1051 C 0.83804 0.98708 0.05915 0.0
C1052 C 0.85117 1.0093 0.03675 0.0
C1053 C 0.85457 0.04414 0.99047 0.0
C1054 C 0.84482 0.0567 0.96631 0.0
C1055 C 0.84139 0.02193 0.01553 0.0
C1056 C 0.82162 0.04674 0.96856 0.0
C1057 C 0.80838 0.02472 0.99485 0.0
H1058 H 0.99604 0.78753 0.99389 0.0
H1059 H 0.99368 0.84691 0.9451 0.0
H1060 H 0.03234 0.86945 0.98838 0.0
H1061 H 0.06669 0.87254 0.04277 0.0
H1062 H 0.06925 0.81363 0.09998 0.0
H1063 H 0.0308 0.79076 0.05192 0.0
C1064 C 1.00413 0.80539 0.99199 0.0
C1065 C 0.99206 0.81554 0.96567 0.0
C1066 C 1.02636 0.81837 0.0195 0.0
C1067 C 1.00261 0.83871 0.96501 0.0
C1068 C 1.02472 0.85163 0.98993 0.0
C1069 C 0.05884 0.85469 0.04503 0.0
C1070 C 0.07086 0.84485 0.07515 0.0
C1071 C 0.03671 0.84167 0.01797 0.0
C1072 C 0.06036 0.82167 0.07766 0.0
C1073 C 0.03838 0.80856 0.04974 0.0
H1074 H 0.88441 0.84631 0.96185 0.0
H1075 H 0.83092 0.77926 0.99163 0.0
H1076 H 0.80564 0.79279 0.02859 0.0
H1077 H 0.79901 0.82423 0.05508 0.0
H1078 H 0.8535 0.89078 0.02616 0.0
H1079 H 0.87825 0.87694 0.98928 0.0
C1080 C 0.86728 0.83456 0.97728 0.0
C1081 C 0.8597 0.81177 0.97478 0.0
C1082 C 0.85304 0.84244 0.99988 0.0
C1083 C 0.83723 0.79689 0.99248 0.0
C1084 C 0.8228 0.80464 0.01445 0.0
C1085 C 0.81636 0.83558 0.04165 0.0
C1086 C 0.8245 0.8585 0.04373 0.0
C1087 C 0.83057 0.82743 0.01914 0.0
C1088 C 0.84693 0.8731 0.0251 0.0
C1089 C 0.86106 0.86519 0.00366 0.0
H1090 H 0.23635 0.06092 0.06476 0.0
H1091 H 0.2317 0.049 0.79105 0.0
H1092 H 0.21348 1.00913 0.81697 0.0
H1093 H 0.19654 0.9775 0.91779 0.0
H1094 H 0.20259 0.98947 0.19161 0.0
H1095 H 0.2228 0.02937 0.16572 0.0
C1096 C 0.23154 0.04956 0.01093 0.0
C1097 C 0.23525 0.05787 0.92603 0.0
C1098 C 0.22128 0.02666 0.02646 0.0
C1099 C 0.22913 0.04301 0.85686 0.0
C1100 C 0.2186 0.02022 0.87172 0.0
C1101 C 0.20251 0.98888 0.97171 0.0
C1102 C 0.19796 0.98051 0.05658 0.0
C1103 C 0.21426 1.01182 0.95622 0.0
C1104 C 0.20598 0.99545 0.1258 0.0
C1105 C 0.21741 1.01828 0.11096 0.0
H1106 H 0.98983 0.15522 0.98047 0.0
H1107 H 0.98275 0.21182 0.92625 0.0
H1108 H 1.02193 0.23636 0.96046 0.0
H1109 H 0.0587 0.24172 0.00592 0.0
H1110 H 0.06396 0.18449 0.06645 0.0
H1111 H 1.02477 0.16032 0.03384 0.0
C1112 C 0.99652 0.1729 0.97777 0.0
C1113 C 0.98296 0.18146 0.95133 0.0
C1114 C 1.01882 0.18691 1.00016 0.0
C1115 C 0.99261 0.20456 0.9453 0.0
C1116 C 1.01504 0.21868 0.96586 0.0
C1117 C 0.05104 0.22399 0.01362 0.0
C1118 C 0.06408 0.21484 0.03951 0.0
C1119 C 1.02834 0.21006 0.99377 0.0
C1120 C 0.05415 0.19184 0.04759 0.0
C1121 C 0.0318 0.17803 0.02824 0.0
H1122 H 0.93193 0.55908 0.31837 0.0
H1123 H 0.8722 0.49655 0.27897 0.0
H1124 H 0.84978 0.51249 0.324 0.0
H1125 H 0.8469 0.54394 0.37632 0.0
H1126 H 0.90629 0.60612 0.42481 0.0
H1127 H 0.92898 0.59065 0.37552 0.0
C1128 C 0.91401 0.54906 0.31911 0.0
C1129 C 0.90374 0.5267 0.29476 0.0
C1130 C 0.90112 0.55823 0.34749 0.0
C1131 C 0.88051 0.5138 0.29738 0.0
C1132 C 0.86765 0.52289 0.32321 0.0
C1133 C 0.86482 0.55412 0.37629 0.0
C1134 C 0.87486 0.57617 0.4042 0.0
C1135 C 0.87775 0.54503 0.34886 0.0
C1136 C 0.89811 0.58906 0.40412 0.0
C1137 C 0.91111 0.58024 0.37554 0.0
H1138 H 0.555 0.39311 0.31013 0.0
H1139 H 0.49456 0.39374 0.26072 0.0
H1140 H 0.4728 0.35569 0.31314 0.0
H1141 H 0.47096 0.32194 0.37359 0.0
H1142 H 0.53169 0.32119 0.41378 0.0
H1143 H 0.55322 0.35945 0.3654 0.0
C1144 C 0.53706 0.38492 0.31058 0.0
C1145 C 0.52645 0.39629 0.28154 0.0
C1146 C 0.52466 0.36297 0.33989 0.0
C1147 C 0.50317 0.38534 0.28222 0.0
C1148 C 0.4907 0.3636 0.31263 0.0
C1149 C 0.48891 0.33028 0.37239 0.0
C1150 C 0.49973 0.31882 0.39807 0.0
C1151 C 0.50126 0.35223 0.34198 0.0
C1152 C 0.52297 0.32966 0.39458 0.0
C1153 C 0.53531 0.35155 0.36678 0.0
H1154 H 0.73459 0.154 0.37615 0.0
H1155 H 0.73744 0.21669 0.40098 0.0
H1156 H 0.69813 0.19938 0.36666 0.0
H1157 H 0.66303 0.16676 0.32654 0.0
H1158 H 0.65992 0.10422 0.292 0.0
H1159 H 0.69904 0.12103 0.33251 0.0
C1160 C 0.7265 0.16376 0.37461 0.0
C1161 C 0.73891 0.18659 0.39149 0.0
C1162 C 0.70384 0.15375 0.35246 0.0
C1163 C 0.7283 0.19911 0.38806 0.0
C1164 C 0.70579 0.18923 0.36844 0.0
C1165 C 0.67088 0.15677 0.32802 0.0
C1166 C 0.65853 0.13425 0.30647 0.0
C1167 C 0.69343 0.16662 0.34995 0.0
C1168 C 0.66905 0.12161 0.30804 0.0
C1169 C 0.69143 0.13122 0.33144 0.0
H1170 H 0.52842 0.1396 0.4278 0.0
H1171 H 0.5359 0.15546 0.15663 0.0
H1172 H 0.51625 0.17582 0.17494 0.0
H1173 H 0.49969 0.19173 0.26999 0.0
H1174 H 0.49258 0.17641 0.54149 0.0
H1175 H 0.50907 0.15308 0.52099 0.0
C1176 C 0.52562 0.14741 0.37262 0.0
C1177 C 0.53379 0.1461 0.291 0.0
C1178 C 0.51443 0.15926 0.38377 0.0
C1179 C 0.5297 0.15602 0.21997 0.0
C1180 C 0.51859 0.16783 0.23054 0.0
C1181 C 0.50162 0.18316 0.3246 0.0
C1182 C 0.49509 0.186 0.40736 0.0
C1183 C 0.5113 0.16994 0.31241 0.0
C1184 C 0.49734 0.17446 0.47713 0.0
C1185 C 0.50694 0.16124 0.4655 0.0
H1186 H 0.8937 0.32492 0.36441 0.0
H1187 H 0.8279 0.31572 0.37704 0.0
H1188 H 0.84213 0.35412 0.33642 0.0
H1189 H 0.8725 0.38962 0.29223 0.0
H1190 H 0.93925 0.40114 0.28635 0.0
H1191 H 0.92537 0.36237 0.32537 0.0
C1192 C 0.88266 0.33155 0.35968 0.0
C1193 C 0.85978 0.31757 0.37426 0.0
C1194 C 0.89102 0.35386 0.33545 0.0
C1195 C 0.84555 0.32621 0.36659 0.0
C1196 C 0.85365 0.34811 0.34277 0.0
C1197 C 0.88422 0.38392 0.30085 0.0
C1198 C 0.90701 0.39858 0.28753 0.0
C1199 C 0.87626 0.36199 0.3262 0.0
C1200 C 0.92162 0.39034 0.29566 0.0
C1201 C 0.9137 0.36818 0.319 0.0
H1202 H 0.74054 0.56841 0.26317 0.0
H1203 H 0.73119 0.56195 0.53866 0.0
H1204 H 0.691 0.54213 0.51878 0.0
H1205 H 0.65842 0.52434 0.42278 0.0
H1206 H 0.66776 0.53101 0.14732 0.0
H1207 H 0.70788 0.55309 0.16746 0.0
C1208 C 0.7297 0.56278 0.31889 0.0
C1209 C 0.73895 0.5666 0.40236 0.0
C1210 C 0.70654 0.55133 0.30693 0.0
C1211 C 0.72461 0.55943 0.4738 0.0
C1212 C 0.70159 0.54794 0.46241 0.0
C1213 C 0.66925 0.53075 0.36716 0.0
C1214 C 0.66003 0.52588 0.28356 0.0
C1215 C 0.69236 0.54345 0.37927 0.0
C1216 C 0.67431 0.53459 0.21231 0.0
C1217 C 0.69731 0.54711 0.22381 0.0
H1218 H 0.59483 0.88513 0.62015 0.0
H1219 H 0.53357 0.82378 0.58412 0.0
H1220 H 0.51244 0.84172 0.61955 0.0
H1221 H 0.51104 0.87436 0.66538 0.0
H1222 H 0.57178 0.93558 0.7101 0.0
H1223 H 0.59331 0.9183 0.66722 0.0
C1224 C 0.57687 0.87582 0.61938 0.0
C1225 C 0.5658 0.85316 0.59936 0.0
C1226 C 0.56468 0.88619 0.64207 0.0
C1227 C 0.54251 0.84121 0.59964 0.0
C1228 C 0.53037 0.85146 0.61991 0.0
C1229 C 0.52899 0.88397 0.6655 0.0
C1230 C 0.53975 0.90623 0.69089 0.0
C1231 C 0.54124 0.87385 0.64206 0.0
C1232 C 0.56305 0.91838 0.69111 0.0
C1233 C 0.57539 0.90851 0.66642 0.0
H1234 H 0.21727 0.72131 0.64066 0.0
H1235 H 0.15687 0.72157 0.58604 0.0
H1236 H 0.13505 0.68343 0.63801 0.0
H1237 H 0.13323 0.64953 0.69831 0.0
H1238 H 0.19419 0.64963 0.74454 0.0
H1239 H 0.21557 0.68796 0.69769 0.0
C1240 C 0.19932 0.71305 0.63989 0.0
C1241 C 0.18875 0.72432 0.60928 0.0
C1242 C 0.18693 0.6911 0.6691 0.0
C1243 C 0.16546 0.71327 0.60872 0.0
C1244 C 0.15297 0.69146 0.63883 0.0
C1245 C 0.15118 0.65808 0.69881 0.0
C1246 C 0.1621 0.64676 0.72541 0.0
C1247 C 0.16351 0.68016 0.66934 0.0
C1248 C 0.18537 0.65793 0.72438 0.0
C1249 C 0.19765 0.67987 0.69745 0.0
H1250 H 0.32595 0.44217 0.63522 0.0
H1251 H 0.32002 0.50044 0.61862 0.0
H1252 H 0.35894 0.52354 0.65745 0.0
H1253 H 0.39473 0.52743 0.69666 0.0
H1254 H 0.40084 0.46946 0.72273 0.0
H1255 H 0.36194 0.44607 0.68044 0.0
C1256 C 0.33326 0.45993 0.63977 0.0
C1257 C 0.3201 0.46957 0.62346 0.0
C1258 C 0.35569 0.47318 0.66433 0.0
C1259 C 0.32973 0.49258 0.63086 0.0
C1260 C 0.35202 0.50583 0.65306 0.0
C1261 C 0.38757 0.50967 0.69317 0.0
C1262 C 0.40072 0.50023 0.71253 0.0
C1263 C 0.36515 0.49634 0.67011 0.0
C1264 C 0.39108 0.47716 0.70843 0.0
C1265 C 0.36884 0.46378 0.68394 0.0
H1266 H 0.14768 0.4944 0.77696 0.0
H1267 H 0.17347 0.53759 0.55678 0.0
H1268 H 0.18965 0.51626 0.50104 0.0
H1269 H 0.19994 0.48769 0.52245 0.0
H1270 H 0.17541 0.44528 0.74516 0.0
H1271 H 0.15518 0.46357 0.79143 0.0
C1272 C 0.15647 0.49883 0.71602 0.0
C1273 C 0.15955 0.5177 0.67164 0.0
C1274 C 0.16616 0.48668 0.68493 0.0
C1275 C 0.17112 0.52332 0.59285 0.0
C1276 C 0.18038 0.51111 0.56082 0.0
C1277 C 0.18973 0.48212 0.57993 0.0
C1278 C 0.18928 0.46519 0.63036 0.0
C1279 C 0.17852 0.49309 0.60736 0.0
C1280 C 0.17617 0.45837 0.70544 0.0
C1281 C 0.16463 0.46887 0.73209 0.0
H1282 H 0.49656 0.64404 0.66754 0.0
H1283 H 0.55579 0.64024 0.70718 0.0
H1284 H 0.57845 0.67935 0.66972 0.0
H1285 H 0.58132 0.71518 0.62615 0.0
H1286 H 0.5211 0.71605 0.57274 0.0
H1287 H 0.4991 0.67722 0.61018 0.0
C1288 C 0.51438 0.65128 0.66576 0.0
C1289 C 0.52417 0.63868 0.6897 0.0
C1290 C 0.52728 0.67342 0.64043 0.0
C1291 C 0.54751 0.64928 0.6904 0.0
C1292 C 0.56057 0.6717 0.66787 0.0
C1293 C 0.56342 0.7067 0.62118 0.0
C1294 C 0.55288 0.71866 0.59793 0.0
C1295 C 0.55063 0.68399 0.64253 0.0
C1296 C 0.52964 0.70739 0.59185 0.0
C1297 C 0.517 0.68516 0.61346 0.0
H1298 H 0.3236 0.8429 0.74036 0.0
H1299 H 0.33109 0.86645 0.47834 0.0
H1300 H 0.37089 0.89004 0.50069 0.0
H1301 H 0.40395 0.9025 0.59176 0.0
H1302 H 0.39661 0.87703 0.8507 0.0
H1303 H 0.35653 0.85592 0.83229 0.0
C1304 C 0.3339 0.85309 0.68779 0.0
C1305 C 0.32416 0.85266 0.60744 0.0
C1306 C 0.35692 0.86634 0.70051 0.0
C1307 C 0.33789 0.86648 0.54111 0.0
C1308 C 0.36076 0.87989 0.55364 0.0
C1309 C 0.39365 0.89228 0.64424 0.0
C1310 C 0.40355 0.89141 0.72252 0.0
C1311 C 0.37052 0.87972 0.63264 0.0
C1312 C 0.38968 0.87837 0.79011 0.0
C1313 C 0.36666 0.86608 0.77937 0.0
loop_
_geom_bond_atom_site_label_1
_geom_bond_atom_site_label_2
_geom_bond_distance
_geom_bond_site_symmetry_2
_ccdc_geom_bond_type
Co0 N4 2.148 1_554 S
Co0 N10 2.128 . S
Co0 N20 2.194 . S
Co0 O25 2.351 . S
Co0 O26 2.155 . S
Co0 O27 2.096 . S
C1 N4 1.301 . S
C1 N5 1.328 . S
C1 H6 0.930 . S
C2 C3 1.333 . S
C2 N4 1.317 . S
C2 H7 0.930 . S
C3 C2 1.333 . S
C3 N5 1.350 . S
C3 H29 0.931 . S
N4 Co0 2.148 1_556 S
N4 C1 1.301 . S
N4 C2 1.317 . S
N5 C1 1.328 . S
N5 C3 1.350 . S
H6 C1 0.930 . S
H7 C2 0.930 . S
C8 O9 1.224 . S
C8 O27 1.247 . S
O9 C8 1.224 . S
N10 Co0 2.128 . S
N10 C11 1.355 . S
N10 C13 1.311 . S
C11 N10 1.355 . S
C11 C12 1.363 . S
C11 H23 0.929 . S
C12 C11 1.363 . S
C12 N14 1.375 . S
C12 H30 0.931 . S
C13 N10 1.311 . S
C13 N14 1.347 . S
C13 H24 0.929 . S
N14 C12 1.375 . S
N14 C13 1.347 . S
C15 C18 1.365 . S
C15 N20 1.328 . S
C15 H21 0.929 . S
C16 C17 1.362 . S
C16 C19 1.378 . S
C16 H31 0.929 . S
C17 C16 1.362 . S
C17 C18 1.366 . S
C18 C15 1.365 . S
C18 C17 1.366 . S
C18 H32 0.930 . S
C19 C16 1.378 . S
C19 N20 1.315 . S
C19 H22 0.930 . S
N20 Co0 2.194 . S
N20 C15 1.328 . S
N20 C19 1.315 . S
H21 C15 0.929 . S
H22 C19 0.930 . S
H23 C11 0.929 . S
H24 C13 0.929 . S
O25 Co0 2.351 . S
O25 C28 1.244 . S
O26 Co0 2.155 . S
O26 C28 1.240 . S
O27 Co0 2.096 . S
O27 C8 1.247 . S
C28 O25 1.244 . S
C28 O26 1.240 . S
H29 C3 0.931 . S
H30 C12 0.931 . S
H31 C16 0.929 . S
H32 C18 0.930 . S
Co33 N37 2.148 1_554 S
Co33 N43 2.128 . S
Co33 N53 2.194 . S
Co33 O58 2.351 . S
Co33 O59 2.155 . S
Co33 O60 2.096 . S
C34 N37 1.301 . S
C34 N38 1.328 . S
C34 H39 0.930 . S
C35 C36 1.333 . S
C35 N37 1.317 . S
C35 H40 0.930 . S
C36 C35 1.333 . S
C36 N38 1.350 . S
C36 H62 0.931 . S
N37 Co33 2.148 1_556 S
N37 C34 1.301 . S
N37 C35 1.317 . S
N38 C34 1.328 . S
N38 C36 1.350 . S
H39 C34 0.930 . S
H40 C35 0.930 . S
C41 O42 1.224 . S
C41 O60 1.247 . S
O42 C41 1.224 . S
N43 Co33 2.128 . S
N43 C44 1.355 . S
N43 C46 1.311 . S
C44 N43 1.355 . S
C44 C45 1.363 . S
C44 H56 0.929 . S
C45 C44 1.363 . S
C45 N47 1.375 . S
C45 H63 0.931 . S
C46 N43 1.311 . S
C46 N47 1.347 . S
C46 H57 0.929 . S
N47 C45 1.375 . S
N47 C46 1.347 . S
C48 C51 1.365 . S
C48 N53 1.328 . S
C48 H54 0.929 . S
C49 C50 1.362 . S
C49 C52 1.378 . S
C49 H64 0.929 . S
C50 C49 1.362 . S
C50 C51 1.366 . S
C51 C48 1.365 . S
C51 C50 1.366 . S
C51 H65 0.930 . S
C52 C49 1.378 . S
C52 N53 1.315 . S
C52 H55 0.930 . S
N53 Co33 2.194 . S
N53 C48 1.328 . S
N53 C52 1.315 . S
H54 C48 0.929 . S
H55 C52 0.930 . S
H56 C44 0.929 . S
H57 C46 0.929 . S
O58 Co33 2.351 . S
O58 C61 1.244 . S
O59 Co33 2.155 . S
O59 C61 1.240 . S
O60 Co33 2.096 . S
O60 C41 1.247 . S
C61 O58 1.244 . S
C61 O59 1.240 . S
H62 C36 0.931 . S
H63 C45 0.931 . S
H64 C49 0.929 . S
H65 C51 0.930 . S
Co66 N70 2.148 1_554 S
Co66 N76 2.128 . S
Co66 N86 2.194 . S
Co66 O91 2.351 . S
Co66 O92 2.155 . S
Co66 O93 2.096 . S
C67 N70 1.301 . S
C67 N71 1.328 . S
C67 H72 0.930 . S
C68 C69 1.333 . S
C68 N70 1.317 . S
C68 H73 0.930 . S
C69 C68 1.333 . S
C69 N71 1.350 . S
C69 H95 0.931 . S
N70 Co66 2.148 1_556 S
N70 C67 1.301 . S
N70 C68 1.317 . S
N71 C67 1.328 . S
N71 C69 1.350 . S
H72 C67 0.930 . S
H73 C68 0.930 . S
C74 O75 1.224 . S
C74 O93 1.247 . S
O75 C74 1.224 . S
N76 Co66 2.128 . S
N76 C77 1.355 . S
N76 C79 1.311 . S
C77 N76 1.355 . S
C77 C78 1.363 . S
C77 H89 0.929 . S
C78 C77 1.363 . S
C78 N80 1.375 . S
C78 H96 0.931 . S
C79 N76 1.311 . S
C79 N80 1.347 . S
C79 H90 0.929 . S
N80 C78 1.375 . S
N80 C79 1.347 . S
C81 C84 1.365 . S
C81 N86 1.328 . S
C81 H87 0.929 . S
C82 C83 1.362 . S
C82 C85 1.378 . S
C82 H97 0.929 . S
C83 C82 1.362 . S
C83 C84 1.366 . S
C84 C81 1.365 . S
C84 C83 1.366 . S
C84 H98 0.930 . S
C85 C82 1.378 . S
C85 N86 1.315 . S
C85 H88 0.930 . S
N86 Co66 2.194 . S
N86 C81 1.328 . S
N86 C85 1.315 . S
H87 C81 0.929 . S
H88 C85 0.930 . S
H89 C77 0.929 . S
H90 C79 0.929 . S
O91 Co66 2.351 . S
O91 C94 1.244 . S
O92 Co66 2.155 . S
O92 C94 1.240 . S
O93 Co66 2.096 . S
O93 C74 1.247 . S
C94 O91 1.244 . S
C94 O92 1.240 . S
H95 C69 0.931 . S
H96 C78 0.931 . S
H97 C82 0.929 . S
H98 C84 0.930 . S
Co99 N103 2.148 1_556 S
Co99 N109 2.128 . S
Co99 N119 2.194 . S
Co99 O124 2.351 . S
Co99 O125 2.155 . S
Co99 O126 2.096 . S
C100 N103 1.301 . S
C100 N104 1.328 . S
C100 H105 0.930 . S
C101 C102 1.333 . S
C101 N103 1.317 . S
C101 H106 0.930 . S
C102 C101 1.333 . S
C102 N104 1.350 . S
C102 H128 0.931 . S
N103 Co99 2.148 1_554 S
N103 C100 1.301 . S
N103 C101 1.317 . S
N104 C100 1.328 . S
N104 C102 1.350 . S
H105 C100 0.930 . S
H106 C101 0.930 . S
C107 O108 1.224 . S
C107 O126 1.247 . S
O108 C107 1.224 . S
N109 Co99 2.128 . S
N109 C110 1.355 . S
N109 C112 1.311 . S
C110 N109 1.355 . S
C110 C111 1.363 . S
C110 H122 0.929 . S
C111 C110 1.363 . S
C111 N113 1.375 . S
C111 H129 0.931 . S
C112 N109 1.311 . S
C112 N113 1.347 . S
C112 H123 0.929 . S
N113 C111 1.375 . S
N113 C112 1.347 . S
C114 C117 1.365 . S
C114 N119 1.328 . S
C114 H120 0.929 . S
C115 C116 1.362 . S
C115 C118 1.378 . S
C115 H130 0.929 . S
C116 C115 1.362 . S
C116 C117 1.366 . S
C117 C114 1.365 . S
C117 C116 1.366 . S
C117 H131 0.930 . S
C118 C115 1.378 . S
C118 N119 1.315 . S
C118 H121 0.930 . S
N119 Co99 2.194 . S
N119 C114 1.328 . S
N119 C118 1.315 . S
H120 C114 0.929 . S
H121 C118 0.930 . S
H122 C110 0.929 . S
H123 C112 0.929 . S
O124 Co99 2.351 . S
O124 C127 1.244 . S
O125 Co99 2.155 . S
O125 C127 1.240 . S
O126 Co99 2.096 . S
O126 C107 1.247 . S
C127 O124 1.244 . S
C127 O125 1.240 . S
H128 C102 0.931 . S
H129 C111 0.931 . S
H130 C115 0.929 . S
H131 C117 0.930 . S
Co132 N136 2.148 1_556 S
Co132 N142 2.128 . S
Co132 N152 2.194 . S
Co132 O157 2.351 . S
Co132 O158 2.155 . S
Co132 O159 2.096 . S
C133 N136 1.301 . S
C133 N137 1.328 . S
C133 H138 0.930 . S
C134 C135 1.333 . S
C134 N136 1.317 . S
C134 H139 0.930 . S
C135 C134 1.333 . S
C135 N137 1.350 . S
C135 H161 0.931 . S
N136 Co132 2.148 1_554 S
N136 C133 1.301 . S
N136 C134 1.317 . S
N137 C133 1.328 . S
N137 C135 1.350 . S
H138 C133 0.930 . S
H139 C134 0.930 . S
C140 O141 1.224 . S
C140 O159 1.247 . S
O141 C140 1.224 . S
N142 Co132 2.128 . S
N142 C143 1.355 . S
N142 C145 1.311 . S
C143 N142 1.355 . S
C143 C144 1.363 . S
C143 H155 0.929 . S
C144 C143 1.363 . S
C144 N146 1.375 . S
C144 H162 0.931 . S
C145 N142 1.311 . S
C145 N146 1.347 . S
C145 H156 0.929 . S
N146 C144 1.375 . S
N146 C145 1.347 . S
C147 C150 1.365 . S
C147 N152 1.328 . S
C147 H153 0.929 . S
C148 C149 1.362 . S
C148 C151 1.378 . S
C148 H163 0.929 . S
C149 C148 1.362 . S
C149 C150 1.366 . S
C150 C147 1.365 . S
C150 C149 1.366 . S
C150 H164 0.930 . S
C151 C148 1.378 . S
C151 N152 1.315 . S
C151 H154 0.930 . S
N152 Co132 2.194 . S
N152 C147 1.328 . S
N152 C151 1.315 . S
H153 C147 0.929 . S
H154 C151 0.930 . S
H155 C143 0.929 . S
H156 C145 0.929 . S
O157 Co132 2.351 . S
O157 C160 1.244 . S
O158 Co132 2.155 . S
O158 C160 1.240 . S
O159 Co132 2.096 . S
O159 C140 1.247 . S
C160 O157 1.244 . S
C160 O158 1.240 . S
H161 C135 0.931 . S
H162 C144 0.931 . S
H163 C148 0.929 . S
H164 C150 0.930 . S
Co165 N169 2.148 1_556 S
Co165 N175 2.128 . S
Co165 N185 2.194 . S
Co165 O190 2.351 . S
Co165 O191 2.155 . S
Co165 O192 2.096 . S
C166 N169 1.301 . S
C166 N170 1.328 . S
C166 H171 0.930 . S
C167 C168 1.333 . S
C167 N169 1.317 . S
C167 H172 0.930 . S
C168 C167 1.333 . S
C168 N170 1.350 . S
C168 H194 0.931 . S
N169 Co165 2.148 1_554 S
N169 C166 1.301 . S
N169 C167 1.317 . S
N170 C166 1.328 . S
N170 C168 1.350 . S
H171 C166 0.930 . S
H172 C167 0.930 . S
C173 O174 1.224 . S
C173 O192 1.247 . S
O174 C173 1.224 . S
N175 Co165 2.128 . S
N175 C176 1.355 . S
N175 C178 1.311 . S
C176 N175 1.355 . S
C176 C177 1.363 . S
C176 H188 0.929 . S
C177 C176 1.363 . S
C177 N179 1.375 . S
C177 H195 0.931 . S
C178 N175 1.311 . S
C178 N179 1.347 . S
C178 H189 0.929 . S
N179 C177 1.375 . S
N179 C178 1.347 . S
C180 C183 1.365 . S
C180 N185 1.328 . S
C180 H186 0.929 . S
C181 C182 1.362 . S
C181 C184 1.378 . S
C181 H196 0.929 . S
C182 C181 1.362 . S
C182 C183 1.366 . S
C183 C180 1.365 . S
C183 C182 1.366 . S
C183 H197 0.930 . S
C184 C181 1.378 . S
C184 N185 1.315 . S
C184 H187 0.930 . S
N185 Co165 2.194 . S
N185 C180 1.328 . S
N185 C184 1.315 . S
H186 C180 0.929 . S
H187 C184 0.930 . S
H188 C176 0.929 . S
H189 C178 0.929 . S
O190 Co165 2.351 . S
O190 C193 1.244 . S
O191 Co165 2.155 . S
O191 C193 1.240 . S
O192 Co165 2.096 . S
O192 C173 1.247 . S
C193 O190 1.244 . S
C193 O191 1.240 . S
H194 C168 0.931 . S
H195 C177 0.931 . S
H196 C181 0.929 . S
H197 C183 0.930 . S
Co198 N202 2.148 . S
Co198 N208 2.128 . S
Co198 N218 2.194 . S
Co198 O223 2.351 . S
Co198 O224 2.155 . S
Co198 O225 2.096 . S
C199 N202 1.301 . S
C199 N203 1.328 . S
C199 H204 0.930 . S
C200 C201 1.333 . S
C200 N202 1.317 . S
C200 H205 0.930 . S
C201 C200 1.333 . S
C201 N203 1.350 . S
C201 H227 0.931 . S
N202 Co198 2.148 . S
N202 C199 1.301 . S
N202 C200 1.317 . S
N203 C199 1.328 . S
N203 C201 1.350 . S
H204 C199 0.930 . S
H205 C200 0.930 . S
C206 O207 1.224 . S
C206 O225 1.247 . S
O207 C206 1.224 . S
N208 Co198 2.128 . S
N208 C209 1.355 . S
N208 C211 1.311 . S
C209 N208 1.355 . S
C209 C210 1.363 . S
C209 H221 0.929 . S
C210 C209 1.363 . S
C210 N212 1.375 . S
C210 H228 0.931 . S
C211 N208 1.311 . S
C211 N212 1.347 . S
C211 H222 0.929 . S
N212 C210 1.375 . S
N212 C211 1.347 . S
C213 C216 1.365 . S
C213 N218 1.328 . S
C213 H219 0.929 . S
C214 C215 1.362 . S
C214 C217 1.378 . S
C214 H229 0.929 . S
C215 C214 1.362 . S
C215 C216 1.366 . S
C216 C213 1.365 . S
C216 C215 1.366 . S
C216 H230 0.930 . S
C217 C214 1.378 . S
C217 N218 1.315 . S
C217 H220 0.930 . S
N218 Co198 2.194 . S
N218 C213 1.328 . S
N218 C217 1.315 . S
H219 C213 0.929 . S
H220 C217 0.930 . S
H221 C209 0.929 . S
H222 C211 0.929 . S
O223 Co198 2.351 . S
O223 C226 1.244 . S
O224 Co198 2.155 . S
O224 C226 1.240 . S
O225 Co198 2.096 . S
O225 C206 1.247 . S
C226 O223 1.244 . S
C226 O224 1.240 . S
H227 C201 0.931 . S
H228 C210 0.931 . S
H229 C214 0.929 . S
H230 C216 0.930 . S
Co231 N235 2.148 . S
Co231 N241 2.128 . S
Co231 N251 2.194 . S
Co231 O256 2.351 . S
Co231 O257 2.155 . S
Co231 O258 2.096 . S
C232 N235 1.301 . S
C232 N236 1.328 . S
C232 H237 0.930 . S
C233 C234 1.333 . S
C233 N235 1.317 . S
C233 H238 0.930 . S
C234 C233 1.333 . S
C234 N236 1.350 . S
C234 H260 0.931 . S
N235 Co231 2.148 . S
N235 C232 1.301 . S
N235 C233 1.317 . S
N236 C232 1.328 . S
N236 C234 1.350 . S
H237 C232 0.930 . S
H238 C233 0.930 . S
C239 O240 1.224 . S
C239 O258 1.247 . S
O240 C239 1.224 . S
N241 Co231 2.128 . S
N241 C242 1.355 . S
N241 C244 1.311 . S
C242 N241 1.355 . S
C242 C243 1.363 . S
C242 H254 0.929 . S
C243 C242 1.363 . S
C243 N245 1.375 . S
C243 H261 0.931 . S
C244 N241 1.311 . S
C244 N245 1.347 . S
C244 H255 0.929 . S
N245 C243 1.375 . S
N245 C244 1.347 . S
C246 C249 1.365 . S
C246 N251 1.328 . S
C246 H252 0.929 . S
C247 C248 1.362 . S
C247 C250 1.378 . S
C247 H262 0.929 . S
C248 C247 1.362 . S
C248 C249 1.366 . S
C249 C246 1.365 . S
C249 C248 1.366 . S
C249 H263 0.930 . S
C250 C247 1.378 . S
C250 N251 1.315 . S
C250 H253 0.930 . S
N251 Co231 2.194 . S
N251 C246 1.328 . S
N251 C250 1.315 . S
H252 C246 0.929 . S
H253 C250 0.930 . S
H254 C242 0.929 . S
H255 C244 0.929 . S
O256 Co231 2.351 . S
O256 C259 1.244 . S
O257 Co231 2.155 . S
O257 C259 1.240 . S
O258 Co231 2.096 . S
O258 C239 1.247 . S
C259 O256 1.244 . S
C259 O257 1.240 . S
H260 C234 0.931 . S
H261 C243 0.931 . S
H262 C247 0.929 . S
H263 C249 0.930 . S
Co264 N268 2.148 . S
Co264 N274 2.128 . S
Co264 N284 2.194 . S
Co264 O289 2.351 . S
Co264 O290 2.155 . S
Co264 O291 2.096 . S
C265 N268 1.301 . S
C265 N269 1.328 . S
C265 H270 0.930 . S
C266 C267 1.333 . S
C266 N268 1.317 . S
C266 H271 0.930 . S
C267 C266 1.333 . S
C267 N269 1.350 . S
C267 H293 0.931 . S
N268 Co264 2.148 . S
N268 C265 1.301 . S
N268 C266 1.317 . S
N269 C265 1.328 . S
N269 C267 1.350 . S
H270 C265 0.930 . S
H271 C266 0.930 . S
C272 O273 1.224 . S
C272 O291 1.247 . S
O273 C272 1.224 . S
N274 Co264 2.128 . S
N274 C275 1.355 . S
N274 C277 1.311 . S
C275 N274 1.355 . S
C275 C276 1.363 . S
C275 H287 0.929 . S
C276 C275 1.363 . S
C276 N278 1.375 . S
C276 H294 0.931 . S
C277 N274 1.311 . S
C277 N278 1.347 . S
C277 H288 0.929 . S
N278 C276 1.375 . S
N278 C277 1.347 . S
C279 C282 1.365 . S
C279 N284 1.328 . S
C279 H285 0.929 . S
C280 C281 1.362 . S
C280 C283 1.378 . S
C280 H295 0.929 . S
C281 C280 1.362 . S
C281 C282 1.366 . S
C282 C279 1.365 . S
C282 C281 1.366 . S
C282 H296 0.930 . S
C283 C280 1.378 . S
C283 N284 1.315 . S
C283 H286 0.930 . S
N284 Co264 2.194 . S
N284 C279 1.328 . S
N284 C283 1.315 . S
H285 C279 0.929 . S
H286 C283 0.930 . S
H287 C275 0.929 . S
H288 C277 0.929 . S
O289 Co264 2.351 . S
O289 C292 1.244 . S
O290 Co264 2.155 . S
O290 C292 1.240 . S
O291 Co264 2.096 . S
O291 C272 1.247 . S
C292 O289 1.244 . S
C292 O290 1.240 . S
H293 C267 0.931 . S
H294 C276 0.931 . S
H295 C280 0.929 . S
H296 C282 0.930 . S
Co297 N301 2.148 . S
Co297 N307 2.128 . S
Co297 N317 2.194 . S
Co297 O322 2.351 . S
Co297 O323 2.155 . S
Co297 O324 2.096 . S
C298 N301 1.301 . S
C298 N302 1.328 . S
C298 H303 0.930 . S
C299 C300 1.333 . S
C299 N301 1.317 . S
C299 H304 0.930 . S
C300 C299 1.333 . S
C300 N302 1.350 . S
C300 H326 0.931 . S
N301 Co297 2.148 . S
N301 C298 1.301 . S
N301 C299 1.317 . S
N302 C298 1.328 . S
N302 C300 1.350 . S
H303 C298 0.930 . S
H304 C299 0.930 . S
C305 O306 1.224 . S
C305 O324 1.247 . S
O306 C305 1.224 . S
N307 Co297 2.128 . S
N307 C308 1.355 . S
N307 C310 1.311 . S
C308 N307 1.355 . S
C308 C309 1.363 1_554 S
C308 H320 0.929 . S
C309 C308 1.363 1_556 S
C309 N311 1.375 . S
C309 H327 0.931 . S
C310 N307 1.311 . S
C310 N311 1.347 1_554 S
C310 H321 0.929 . S
N311 C309 1.375 . S
N311 C310 1.347 1_556 S
C312 C315 1.365 . S
C312 N317 1.328 . S
C312 H318 0.929 . S
C313 C314 1.362 . S
C313 C316 1.378 . S
C313 H328 0.929 . S
C314 C313 1.362 . S
C314 C315 1.366 . S
C315 C312 1.365 . S
C315 C314 1.366 . S
C315 H329 0.930 . S
C316 C313 1.378 . S
C316 N317 1.315 . S
C316 H319 0.930 . S
N317 Co297 2.194 . S
N317 C312 1.328 . S
N317 C316 1.315 . S
H318 C312 0.929 . S
H319 C316 0.930 . S
H320 C308 0.929 . S
H321 C310 0.929 . S
O322 Co297 2.351 . S
O322 C325 1.244 . S
O323 Co297 2.155 . S
O323 C325 1.240 . S
O324 Co297 2.096 . S
O324 C305 1.247 . S
C325 O322 1.244 . S
C325 O323 1.240 . S
H326 C300 0.931 . S
H327 C309 0.931 . S
H328 C313 0.929 . S
H329 C315 0.930 . S
Co330 N334 2.148 . S
Co330 N340 2.128 . S
Co330 N350 2.194 . S
Co330 O355 2.351 . S
Co330 O356 2.155 . S
Co330 O357 2.096 . S
C331 N334 1.301 . S
C331 N335 1.328 . S
C331 H336 0.930 . S
C332 C333 1.333 . S
C332 N334 1.317 . S
C332 H337 0.930 . S
C333 C332 1.333 . S
C333 N335 1.350 . S
C333 H359 0.931 . S
N334 Co330 2.148 . S
N334 C331 1.301 . S
N334 C332 1.317 . S
N335 C331 1.328 . S
N335 C333 1.350 . S
H336 C331 0.930 . S
H337 C332 0.930 . S
C338 O339 1.224 . S
C338 O357 1.247 . S
O339 C338 1.224 . S
N340 Co330 2.128 . S
N340 C341 1.355 . S
N340 C343 1.311 . S
C341 N340 1.355 . S
C341 C342 1.363 1_554 S
C341 H353 0.929 . S
C342 C341 1.363 1_556 S
C342 N344 1.375 . S
C342 H360 0.931 . S
C343 N340 1.311 . S
C343 N344 1.347 1_554 S
C343 H354 0.929 . S
N344 C342 1.375 . S
N344 C343 1.347 1_556 S
C345 C348 1.365 . S
C345 N350 1.328 . S
C345 H351 0.929 . S
C346 C347 1.362 . S
C346 C349 1.378 . S
C346 H361 0.929 . S
C347 C346 1.362 . S
C347 C348 1.366 . S
C348 C345 1.365 . S
C348 C347 1.366 . S
C348 H362 0.930 . S
C349 C346 1.378 . S
C349 N350 1.315 . S
C349 H352 0.930 . S
N350 Co330 2.194 . S
N350 C345 1.328 . S
N350 C349 1.315 . S
H351 C345 0.929 . S
H352 C349 0.930 . S
H353 C341 0.929 . S
H354 C343 0.929 . S
O355 Co330 2.351 . S
O355 C358 1.244 . S
O356 Co330 2.155 . S
O356 C358 1.240 . S
O357 Co330 2.096 . S
O357 C338 1.247 . S
C358 O355 1.244 . S
C358 O356 1.240 . S
H359 C333 0.931 . S
H360 C342 0.931 . S
H361 C346 0.929 . S
H362 C348 0.930 . S
Co363 N367 2.148 . S
Co363 N373 2.128 . S
Co363 N383 2.194 . S
Co363 O388 2.351 . S
Co363 O389 2.155 . S
Co363 O390 2.096 . S
C364 N367 1.301 . S
C364 N368 1.328 . S
C364 H369 0.930 . S
C365 C366 1.333 . S
C365 N367 1.317 . S
C365 H370 0.930 . S
C366 C365 1.333 . S
C366 N368 1.350 . S
C366 H392 0.931 . S
N367 Co363 2.148 . S
N367 C364 1.301 . S
N367 C365 1.317 . S
N368 C364 1.328 . S
N368 C366 1.350 . S
H369 C364 0.930 . S
H370 C365 0.930 . S
C371 O372 1.224 . S
C371 O390 1.247 . S
O372 C371 1.224 . S
N373 Co363 2.128 . S
N373 C374 1.355 . S
N373 C376 1.311 . S
C374 N373 1.355 . S
C374 C375 1.363 1_554 S
C374 H386 0.929 . S
C375 C374 1.363 1_556 S
C375 N377 1.375 . S
C375 H393 0.931 . S
C376 N373 1.311 . S
C376 N377 1.347 1_554 S
C376 H387 0.929 . S
N377 C375 1.375 . S
N377 C376 1.347 1_556 S
C378 C381 1.365 . S
C378 N383 1.328 . S
C378 H384 0.929 . S
C379 C380 1.362 . S
C379 C382 1.378 . S
C379 H394 0.929 . S
C380 C379 1.362 . S
C380 C381 1.366 . S
C381 C378 1.365 . S
C381 C380 1.366 . S
C381 H395 0.930 . S
C382 C379 1.378 . S
C382 N383 1.315 . S
C382 H385 0.930 . S
N383 Co363 2.194 . S
N383 C378 1.328 . S
N383 C382 1.315 . S
H384 C378 0.929 . S
H385 C382 0.930 . S
H386 C374 0.929 . S
H387 C376 0.929 . S
O388 Co363 2.351 . S
O388 C391 1.244 . S
O389 Co363 2.155 . S
O389 C391 1.240 . S
O390 Co363 2.096 . S
O390 C371 1.247 . S
C391 O388 1.244 . S
C391 O389 1.240 . S
H392 C366 0.931 . S
H393 C375 0.931 . S
H394 C379 0.929 . S
H395 C381 0.930 . S
Co396 N400 2.148 . S
Co396 N406 2.128 . S
Co396 N416 2.194 . S
Co396 O421 2.351 . S
Co396 O422 2.155 . S
Co396 O423 2.096 . S
C397 N400 1.301 . S
C397 N401 1.328 . S
C397 H402 0.930 . S
C398 C399 1.333 . S
C398 N400 1.317 . S
C398 H403 0.930 . S
C399 C398 1.333 . S
C399 N401 1.350 . S
C399 H425 0.931 . S
N400 Co396 2.148 . S
N400 C397 1.301 . S
N400 C398 1.317 . S
N401 C397 1.328 . S
N401 C399 1.350 . S
H402 C397 0.930 . S
H403 C398 0.930 . S
C404 O405 1.224 . S
C404 O423 1.247 . S
O405 C404 1.224 . S
N406 Co396 2.128 . S
N406 C407 1.355 . S
N406 C409 1.311 . S
C407 N406 1.355 . S
C407 C408 1.363 1_556 S
C407 H419 0.929 . S
C408 C407 1.363 1_554 S
C408 N410 1.375 . S
C408 H426 0.931 . S
C409 N406 1.311 . S
C409 N410 1.347 1_556 S
C409 H420 0.929 . S
N410 C408 1.375 . S
N410 C409 1.347 1_554 S
C411 C414 1.365 . S
C411 N416 1.328 . S
C411 H417 0.929 . S
C412 C413 1.362 . S
C412 C415 1.378 . S
C412 H427 0.929 . S
C413 C412 1.362 . S
C413 C414 1.366 . S
C414 C411 1.365 . S
C414 C413 1.366 . S
C414 H428 0.930 . S
C415 C412 1.378 . S
C415 N416 1.315 . S
C415 H418 0.930 . S
N416 Co396 2.194 . S
N416 C411 1.328 . S
N416 C415 1.315 . S
H417 C411 0.929 . S
H418 C415 0.930 . S
H419 C407 0.929 . S
H420 C409 0.929 . S
O421 Co396 2.351 . S
O421 C424 1.244 . S
O422 Co396 2.155 . S
O422 C424 1.240 . S
O423 Co396 2.096 . S
O423 C404 1.247 . S
C424 O421 1.244 . S
C424 O422 1.240 . S
H425 C399 0.931 . S
H426 C408 0.931 . S
H427 C412 0.929 . S
H428 C414 0.930 . S
Co429 N433 2.148 . S
Co429 N439 2.128 . S
Co429 N449 2.194 . S
Co429 O454 2.351 . S
Co429 O455 2.155 . S
Co429 O456 2.096 . S
C430 N433 1.301 . S
C430 N434 1.328 . S
C430 H435 0.930 . S
C431 C432 1.333 . S
C431 N433 1.317 . S
C431 H436 0.930 . S
C432 C431 1.333 . S
C432 N434 1.350 . S
C432 H458 0.931 . S
N433 Co429 2.148 . S
N433 C430 1.301 . S
N433 C431 1.317 . S
N434 C430 1.328 . S
N434 C432 1.350 . S
H435 C430 0.930 . S
H436 C431 0.930 . S
C437 O438 1.224 . S
C437 O456 1.247 . S
O438 C437 1.224 . S
N439 Co429 2.128 . S
N439 C440 1.355 . S
N439 C442 1.311 . S
C440 N439 1.355 . S
C440 C441 1.363 1_556 S
C440 H452 0.929 . S
C441 C440 1.363 1_554 S
C441 N443 1.375 . S
C441 H459 0.931 . S
C442 N439 1.311 . S
C442 N443 1.347 1_556 S
C442 H453 0.929 . S
N443 C441 1.375 . S
N443 C442 1.347 1_554 S
C444 C447 1.365 . S
C444 N449 1.328 . S
C444 H450 0.929 . S
C445 C446 1.362 . S
C445 C448 1.378 . S
C445 H460 0.929 . S
C446 C445 1.362 . S
C446 C447 1.366 . S
C447 C444 1.365 . S
C447 C446 1.366 . S
C447 H461 0.930 . S
C448 C445 1.378 . S
C448 N449 1.315 . S
C448 H451 0.930 . S
N449 Co429 2.194 . S
N449 C444 1.328 . S
N449 C448 1.315 . S
H450 C444 0.929 . S
H451 C448 0.930 . S
H452 C440 0.929 . S
H453 C442 0.929 . S
O454 Co429 2.351 . S
O454 C457 1.244 . S
O455 Co429 2.155 . S
O455 C457 1.240 . S
O456 Co429 2.096 . S
O456 C437 1.247 . S
C457 O454 1.244 . S
C457 O455 1.240 . S
H458 C432 0.931 . S
H459 C441 0.931 . S
H460 C445 0.929 . S
H461 C447 0.930 . S
Co462 N466 2.148 . S
Co462 N472 2.128 . S
Co462 N482 2.194 . S
Co462 O487 2.351 . S
Co462 O488 2.155 . S
Co462 O489 2.096 . S
C463 N466 1.301 . S
C463 N467 1.328 . S
C463 H468 0.930 . S
C464 C465 1.333 . S
C464 N466 1.317 . S
C464 H469 0.930 . S
C465 C464 1.333 . S
C465 N467 1.350 . S
C465 H491 0.931 . S
N466 Co462 2.148 . S
N466 C463 1.301 . S
N466 C464 1.317 . S
N467 C463 1.328 . S
N467 C465 1.350 . S
H468 C463 0.930 . S
H469 C464 0.930 . S
C470 O471 1.224 . S
C470 O489 1.247 . S
O471 C470 1.224 . S
N472 Co462 2.128 . S
N472 C473 1.355 . S
N472 C475 1.311 . S
C473 N472 1.355 . S
C473 C474 1.363 1_556 S
C473 H485 0.929 . S
C474 C473 1.363 1_554 S
C474 N476 1.375 . S
C474 H492 0.931 . S
C475 N472 1.311 . S
C475 N476 1.347 1_556 S
C475 H486 0.929 . S
N476 C474 1.375 . S
N476 C475 1.347 1_554 S
C477 C480 1.365 . S
C477 N482 1.328 . S
C477 H483 0.929 . S
C478 C479 1.362 . S
C478 C481 1.378 . S
C478 H493 0.929 . S
C479 C478 1.362 . S
C479 C480 1.366 . S
C480 C477 1.365 . S
C480 C479 1.366 . S
C480 H494 0.930 . S
C481 C478 1.378 . S
C481 N482 1.315 . S
C481 H484 0.930 . S
N482 Co462 2.194 . S
N482 C477 1.328 . S
N482 C481 1.315 . S
H483 C477 0.929 . S
H484 C481 0.930 . S
H485 C473 0.929 . S
H486 C475 0.929 . S
O487 Co462 2.351 . S
O487 C490 1.244 . S
O488 Co462 2.155 . S
O488 C490 1.240 . S
O489 Co462 2.096 . S
O489 C470 1.247 . S
C490 O487 1.244 . S
C490 O488 1.240 . S
H491 C465 0.931 . S
H492 C474 0.931 . S
H493 C478 0.929 . S
H494 C480 0.930 . S
Co495 N499 2.148 . S
Co495 N505 2.128 . S
Co495 N515 2.194 . S
Co495 O520 2.351 . S
Co495 O521 2.155 . S
Co495 O522 2.096 . S
C496 N499 1.301 . S
C496 N500 1.328 . S
C496 H501 0.930 . S
C497 C498 1.333 . S
C497 N499 1.317 . S
C497 H502 0.930 . S
C498 C497 1.333 . S
C498 N500 1.350 . S
C498 H524 0.931 . S
N499 Co495 2.148 . S
N499 C496 1.301 . S
N499 C497 1.317 . S
N500 C496 1.328 . S
N500 C498 1.350 . S
H501 C496 0.930 . S
H502 C497 0.930 . S
C503 O504 1.224 . S
C503 O522 1.247 . S
O504 C503 1.224 . S
N505 Co495 2.128 . S
N505 C506 1.355 . S
N505 C508 1.311 . S
C506 N505 1.355 . S
C506 C507 1.363 . S
C506 H518 0.929 . S
C507 C506 1.363 . S
C507 N509 1.375 . S
C507 H525 0.931 . S
C508 N505 1.311 . S
C508 N509 1.347 . S
C508 H519 0.929 . S
N509 C507 1.375 . S
N509 C508 1.347 . S
C510 C513 1.365 . S
C510 N515 1.328 . S
C510 H516 0.929 . S
C511 C512 1.362 . S
C511 C514 1.378 . S
C511 H526 0.929 . S
C512 C511 1.362 . S
C512 C513 1.366 . S
C513 C510 1.365 . S
C513 C512 1.366 . S
C513 H527 0.930 . S
C514 C511 1.378 . S
C514 N515 1.315 . S
C514 H517 0.930 . S
N515 Co495 2.194 . S
N515 C510 1.328 . S
N515 C514 1.315 . S
H516 C510 0.929 . S
H517 C514 0.930 . S
H518 C506 0.929 . S
H519 C508 0.929 . S
O520 Co495 2.351 . S
O520 C523 1.244 . S
O521 Co495 2.155 . S
O521 C523 1.240 . S
O522 Co495 2.096 . S
O522 C503 1.247 . S
C523 O520 1.244 . S
C523 O521 1.240 . S
H524 C498 0.931 . S
H525 C507 0.931 . S
H526 C511 0.929 . S
H527 C513 0.930 . S
Co528 N532 2.148 . S
Co528 N538 2.128 . S
Co528 N548 2.194 . S
Co528 O553 2.351 . S
Co528 O554 2.155 . S
Co528 O555 2.096 . S
C529 N532 1.301 . S
C529 N533 1.328 . S
C529 H534 0.930 . S
C530 C531 1.333 . S
C530 N532 1.317 . S
C530 H535 0.930 . S
C531 C530 1.333 . S
C531 N533 1.350 . S
C531 H557 0.931 . S
N532 Co528 2.148 . S
N532 C529 1.301 . S
N532 C530 1.317 . S
N533 C529 1.328 . S
N533 C531 1.350 . S
H534 C529 0.930 . S
H535 C530 0.930 . S
C536 O537 1.224 . S
C536 O555 1.247 . S
O537 C536 1.224 . S
N538 Co528 2.128 . S
N538 C539 1.355 . S
N538 C541 1.311 . S
C539 N538 1.355 . S
C539 C540 1.363 . S
C539 H551 0.929 . S
C540 C539 1.363 . S
C540 N542 1.375 . S
C540 H558 0.931 . S
C541 N538 1.311 . S
C541 N542 1.347 . S
C541 H552 0.929 . S
N542 C540 1.375 . S
N542 C541 1.347 . S
C543 C546 1.365 . S
C543 N548 1.328 . S
C543 H549 0.929 . S
C544 C545 1.362 . S
C544 C547 1.378 . S
C544 H559 0.929 . S
C545 C544 1.362 . S
C545 C546 1.366 . S
C546 C543 1.365 . S
C546 C545 1.366 . S
C546 H560 0.930 . S
C547 C544 1.378 . S
C547 N548 1.315 . S
C547 H550 0.930 . S
N548 Co528 2.194 . S
N548 C543 1.328 . S
N548 C547 1.315 . S
H549 C543 0.929 . S
H550 C547 0.930 . S
H551 C539 0.929 . S
H552 C541 0.929 . S
O553 Co528 2.351 . S
O553 C556 1.244 . S
O554 Co528 2.155 . S
O554 C556 1.240 . S
O555 Co528 2.096 . S
O555 C536 1.247 . S
C556 O553 1.244 . S
C556 O554 1.240 . S
H557 C531 0.931 . S
H558 C540 0.931 . S
H559 C544 0.929 . S
H560 C546 0.930 . S
Co561 N565 2.148 . S
Co561 N571 2.128 . S
Co561 N581 2.194 . S
Co561 O586 2.351 . S
Co561 O587 2.155 . S
Co561 O588 2.096 . S
C562 N565 1.301 . S
C562 N566 1.328 . S
C562 H567 0.930 . S
C563 C564 1.333 . S
C563 N565 1.317 . S
C563 H568 0.930 . S
C564 C563 1.333 . S
C564 N566 1.350 . S
C564 H590 0.931 . S
N565 Co561 2.148 . S
N565 C562 1.301 . S
N565 C563 1.317 . S
N566 C562 1.328 . S
N566 C564 1.350 . S
H567 C562 0.930 . S
H568 C563 0.930 . S
C569 O570 1.224 . S
C569 O588 1.247 . S
O570 C569 1.224 . S
N571 Co561 2.128 . S
N571 C572 1.355 . S
N571 C574 1.311 . S
C572 N571 1.355 . S
C572 C573 1.363 . S
C572 H584 0.929 . S
C573 C572 1.363 . S
C573 N575 1.375 . S
C573 H591 0.931 . S
C574 N571 1.311 . S
C574 N575 1.347 . S
C574 H585 0.929 . S
N575 C573 1.375 . S
N575 C574 1.347 . S
C576 C579 1.365 . S
C576 N581 1.328 . S
C576 H582 0.929 . S
C577 C578 1.362 . S
C577 C580 1.378 . S
C577 H592 0.929 . S
C578 C577 1.362 . S
C578 C579 1.366 . S
C579 C576 1.365 . S
C579 C578 1.366 . S
C579 H593 0.930 . S
C580 C577 1.378 . S
C580 N581 1.315 . S
C580 H583 0.930 . S
N581 Co561 2.194 . S
N581 C576 1.328 . S
N581 C580 1.315 . S
H582 C576 0.929 . S
H583 C580 0.930 . S
H584 C572 0.929 . S
H585 C574 0.929 . S
O586 Co561 2.351 . S
O586 C589 1.244 . S
O587 Co561 2.155 . S
O587 C589 1.240 . S
O588 Co561 2.096 . S
O588 C569 1.247 . S
C589 O586 1.244 . S
C589 O587 1.240 . S
H590 C564 0.931 . S
H591 C573 0.931 . S
H592 C577 0.929 . S
H593 C579 0.930 . S
H594 C600 0.930 . S
H595 C603 0.930 . S
H596 C604 0.930 . S
H597 C605 0.930 . S
H598 C608 0.930 . S
H599 C609 0.930 . S
C600 H594 0.930 . S
C600 C601 1.355 . S
C600 C602 1.415 . S
C601 C600 1.355 . S
C601 C603 1.419 . S
C602 C600 1.415 . S
C602 C607 1.425 . S
C602 C609 1.409 . S
C603 H595 0.930 . S
C603 C601 1.419 . S
C603 C604 1.362 . S
C604 H596 0.930 . S
C604 C603 1.362 . S
C604 C607 1.409 . S
C605 H597 0.930 . S
C605 C606 1.355 . S
C605 C607 1.415 . S
C606 C605 1.355 . S
C606 C608 1.419 . S
C607 C602 1.425 . S
C607 C604 1.409 . S
C607 C605 1.415 . S
C608 H598 0.930 . S
C608 C606 1.419 . S
C608 C609 1.362 . S
C609 H599 0.930 . S
C609 C602 1.409 . S
C609 C608 1.362 . S
H610 C616 0.930 . S
H611 C619 0.930 . S
H612 C620 0.930 . S
H613 C621 0.930 . S
H614 C624 0.930 . S
H615 C625 0.930 . S
C616 H610 0.930 . S
C616 C617 1.355 . S
C616 C618 1.415 . S
C617 C616 1.355 . S
C617 C619 1.419 . S
C618 C616 1.415 . S
C618 C623 1.425 . S
C618 C625 1.409 . S
C619 H611 0.930 . S
C619 C617 1.419 . S
C619 C620 1.362 . S
C620 H612 0.930 . S
C620 C619 1.362 . S
C620 C623 1.409 . S
C621 H613 0.930 . S
C621 C622 1.355 . S
C621 C623 1.415 . S
C622 C621 1.355 . S
C622 C624 1.419 . S
C623 C618 1.425 . S
C623 C620 1.409 . S
C623 C621 1.415 . S
C624 H614 0.930 . S
C624 C622 1.419 . S
C624 C625 1.362 . S
C625 H615 0.930 . S
C625 C618 1.409 . S
C625 C624 1.362 . S
H626 C632 0.930 . S
H627 C635 0.930 . S
H628 C636 0.930 . S
H629 C637 0.930 . S
H630 C640 0.930 . S
H631 C641 0.930 . S
C632 H626 0.930 . S
C632 C633 1.355 . S
C632 C634 1.415 . S
C633 C632 1.355 . S
C633 C635 1.419 . S
C634 C632 1.415 . S
C634 C639 1.425 . S
C634 C641 1.409 . S
C635 H627 0.930 . S
C635 C633 1.419 . S
C635 C636 1.362 . S
C636 H628 0.930 . S
C636 C635 1.362 . S
C636 C639 1.409 . S
C637 H629 0.930 . S
C637 C638 1.355 . S
C637 C639 1.415 . S
C638 C637 1.355 . S
C638 C640 1.419 . S
C639 C634 1.425 . S
C639 C636 1.409 . S
C639 C637 1.415 . S
C640 H630 0.930 . S
C640 C638 1.419 . S
C640 C641 1.362 . S
C641 H631 0.930 . S
C641 C634 1.409 . S
C641 C640 1.362 . S
H642 C648 0.930 . S
H643 C651 0.930 . S
H644 C652 0.930 . S
H645 C653 0.930 . S
H646 C656 0.930 . S
H647 C657 0.930 . S
C648 H642 0.930 . S
C648 C649 1.355 . S
C648 C650 1.415 . S
C649 C648 1.355 . S
C649 C651 1.419 . S
C650 C648 1.415 . S
C650 C655 1.425 . S
C650 C657 1.409 . S
C651 H643 0.930 . S
C651 C649 1.419 . S
C651 C652 1.362 . S
C652 H644 0.930 . S
C652 C651 1.362 . S
C652 C655 1.409 . S
C653 H645 0.930 . S
C653 C654 1.355 . S
C653 C655 1.415 . S
C654 C653 1.355 . S
C654 C656 1.419 . S
C655 C650 1.425 . S
C655 C652 1.409 . S
C655 C653 1.415 . S
C656 H646 0.930 . S
C656 C654 1.419 . S
C656 C657 1.362 . S
C657 H647 0.930 . S
C657 C650 1.409 . S
C657 C656 1.362 . S
H658 C664 0.930 . S
H659 C667 0.930 . S
H660 C668 0.930 . S
H661 C669 0.930 . S
H662 C672 0.930 . S
H663 C673 0.930 . S
C664 H658 0.930 . S
C664 C665 1.355 . S
C664 C666 1.415 . S
C665 C664 1.355 . S
C665 C667 1.419 . S
C666 C664 1.415 . S
C666 C671 1.425 . S
C666 C673 1.409 . S
C667 H659 0.930 . S
C667 C665 1.419 . S
C667 C668 1.362 . S
C668 H660 0.930 . S
C668 C667 1.362 . S
C668 C671 1.409 . S
C669 H661 0.930 . S
C669 C670 1.355 . S
C669 C671 1.415 . S
C670 C669 1.355 . S
C670 C672 1.419 . S
C671 C666 1.425 . S
C671 C668 1.409 . S
C671 C669 1.415 . S
C672 H662 0.930 . S
C672 C670 1.419 . S
C672 C673 1.362 . S
C673 H663 0.930 . S
C673 C666 1.409 . S
C673 C672 1.362 . S
H674 C680 0.930 . S
H675 C683 0.930 . S
H676 C684 0.930 . S
H677 C685 0.930 . S
H678 C688 0.930 . S
H679 C689 0.930 . S
C680 H674 0.930 . S
C680 C681 1.355 . S
C680 C682 1.415 . S
C681 C680 1.355 . S
C681 C683 1.419 . S
C682 C680 1.415 . S
C682 C687 1.425 . S
C682 C689 1.409 . S
C683 H675 0.930 . S
C683 C681 1.419 . S
C683 C684 1.362 . S
C684 H676 0.930 . S
C684 C683 1.362 . S
C684 C687 1.409 . S
C685 H677 0.930 . S
C685 C686 1.355 . S
C685 C687 1.415 . S
C686 C685 1.355 . S
C686 C688 1.419 . S
C687 C682 1.425 . S
C687 C684 1.409 . S
C687 C685 1.415 . S
C688 H678 0.930 . S
C688 C686 1.419 . S
C688 C689 1.362 . S
C689 H679 0.930 . S
C689 C682 1.409 . S
C689 C688 1.362 . S
H690 C696 0.930 . S
H691 C699 0.930 . S
H692 C700 0.930 . S
H693 C701 0.930 . S
H694 C704 0.930 . S
H695 C705 0.930 . S
C696 H690 0.930 . S
C696 C697 1.355 . S
C696 C698 1.415 1_554 S
C697 C696 1.355 . S
C697 C699 1.419 . S
C698 C696 1.415 1_556 S
C698 C703 1.425 . S
C698 C705 1.409 . S
C699 H691 0.930 . S
C699 C697 1.419 . S
C699 C700 1.362 1_554 S
C700 H692 0.930 . S
C700 C699 1.362 1_556 S
C700 C703 1.409 . S
C701 H693 0.930 . S
C701 C702 1.355 . S
C701 C703 1.415 . S
C702 C701 1.355 . S
C702 C704 1.419 . S
C703 C698 1.425 . S
C703 C700 1.409 . S
C703 C701 1.415 . S
C704 H694 0.930 . S
C704 C702 1.419 . S
C704 C705 1.362 . S
C705 H695 0.930 . S
C705 C698 1.409 . S
C705 C704 1.362 . S
H706 C712 0.930 . S
H707 C715 0.930 . S
H708 C716 0.930 1_556 S
H709 C717 0.930 . S
H710 C720 0.930 . S
H711 C721 0.930 . S
C712 H706 0.930 . S
C712 C713 1.355 . S
C712 C714 1.415 1_554 S
C713 C712 1.355 . S
C713 C715 1.419 . S
C714 C712 1.415 1_556 S
C714 C719 1.425 . S
C714 C721 1.409 . S
C715 H707 0.930 . S
C715 C713 1.419 . S
C715 C716 1.362 . S
C716 H708 0.930 1_554 S
C716 C715 1.362 . S
C716 C719 1.409 1_554 S
C717 H709 0.930 . S
C717 C718 1.355 . S
C717 C719 1.415 . S
C718 C717 1.355 . S
C718 C720 1.419 . S
C719 C714 1.425 . S
C719 C716 1.409 1_556 S
C719 C717 1.415 . S
C720 H710 0.930 . S
C720 C718 1.419 . S
C720 C721 1.362 . S
C721 H711 0.930 . S
C721 C714 1.409 . S
C721 C720 1.362 . S
H722 C728 0.930 . S
H723 C731 0.930 . S
H724 C732 0.930 . S
H725 C733 0.930 . S
H726 C736 0.930 . S
H727 C737 0.930 . S
C728 H722 0.930 . S
C728 C729 1.355 . S
C728 C730 1.415 . S
C729 C728 1.355 . S
C729 C731 1.419 . S
C730 C728 1.415 . S
C730 C735 1.425 . S
C730 C737 1.409 . S
C731 H723 0.930 . S
C731 C729 1.419 . S
C731 C732 1.362 . S
C732 H724 0.930 . S
C732 C731 1.362 . S
C732 C735 1.409 . S
C733 H725 0.930 . S
C733 C734 1.355 . S
C733 C735 1.415 1_554 S
C734 C733 1.355 . S
C734 C736 1.419 . S
C735 C730 1.425 . S
C735 C732 1.409 . S
C735 C733 1.415 1_556 S
C736 H726 0.930 . S
C736 C734 1.419 . S
C736 C737 1.362 1_554 S
C737 H727 0.930 . S
C737 C730 1.409 . S
C737 C736 1.362 1_556 S
H738 C744 0.930 . S
H739 C747 0.930 . S
H740 C748 0.930 . S
H741 C749 0.930 . S
H742 C752 0.930 . S
H743 C753 0.930 . S
C744 H738 0.930 . S
C744 C745 1.355 . S
C744 C746 1.415 . S
C745 C744 1.355 . S
C745 C747 1.419 . S
C746 C744 1.415 . S
C746 C751 1.425 . S
C746 C753 1.409 . S
C747 H739 0.930 . S
C747 C745 1.419 . S
C747 C748 1.362 . S
C748 H740 0.930 . S
C748 C747 1.362 . S
C748 C751 1.409 . S
C749 H741 0.930 . S
C749 C750 1.355 . S
C749 C751 1.415 . S
C750 C749 1.355 . S
C750 C752 1.419 . S
C751 C746 1.425 . S
C751 C748 1.409 . S
C751 C749 1.415 . S
C752 H742 0.930 . S
C752 C750 1.419 . S
C752 C753 1.362 . S
C753 H743 0.930 . S
C753 C746 1.409 . S
C753 C752 1.362 . S
H754 C760 0.930 . S
H755 C763 0.930 . S
H756 C764 0.930 . S
H757 C765 0.930 . S
H758 C768 0.930 . S
H759 C769 0.930 . S
C760 H754 0.930 . S
C760 C761 1.355 . S
C760 C762 1.415 . S
C761 C760 1.355 . S
C761 C763 1.419 . S
C762 C760 1.415 . S
C762 C767 1.425 . S
C762 C769 1.409 . S
C763 H755 0.930 . S
C763 C761 1.419 . S
C763 C764 1.362 . S
C764 H756 0.930 . S
C764 C763 1.362 . S
C764 C767 1.409 . S
C765 H757 0.930 . S
C765 C766 1.355 . S
C765 C767 1.415 . S
C766 C765 1.355 . S
C766 C768 1.419 . S
C767 C762 1.425 . S
C767 C764 1.409 . S
C767 C765 1.415 . S
C768 H758 0.930 . S
C768 C766 1.419 . S
C768 C769 1.362 . S
C769 H759 0.930 . S
C769 C762 1.409 . S
C769 C768 1.362 . S
H770 C776 0.930 . S
H771 C779 0.930 . S
H772 C780 0.930 . S
H773 C781 0.930 . S
H774 C784 0.930 . S
H775 C785 0.930 . S
C776 H770 0.930 . S
C776 C777 1.355 . S
C776 C778 1.415 . S
C777 C776 1.355 . S
C777 C779 1.419 . S
C778 C776 1.415 . S
C778 C783 1.425 . S
C778 C785 1.409 . S
C779 H771 0.930 . S
C779 C777 1.419 . S
C779 C780 1.362 . S
C780 H772 0.930 . S
C780 C779 1.362 . S
C780 C783 1.409 . S
C781 H773 0.930 . S
C781 C782 1.355 . S
C781 C783 1.415 . S
C782 C781 1.355 . S
C782 C784 1.419 . S
C783 C778 1.425 . S
C783 C780 1.409 . S
C783 C781 1.415 . S
C784 H774 0.930 . S
C784 C782 1.419 . S
C784 C785 1.362 . S
C785 H775 0.930 . S
C785 C778 1.409 . S
C785 C784 1.362 . S
H786 C792 0.930 . S
H787 C795 0.930 . S
H788 C796 0.930 . S
H789 C797 0.930 . S
H790 C800 0.930 . S
H791 C801 0.930 . S
C792 H786 0.930 . S
C792 C793 1.355 . S
C792 C794 1.415 . S
C793 C792 1.355 . S
C793 C795 1.419 . S
C794 C792 1.415 . S
C794 C799 1.425 . S
C794 C801 1.409 . S
C795 H787 0.930 . S
C795 C793 1.419 . S
C795 C796 1.362 . S
C796 H788 0.930 . S
C796 C795 1.362 . S
C796 C799 1.409 . S
C797 H789 0.930 . S
C797 C798 1.355 . S
C797 C799 1.415 . S
C798 C797 1.355 . S
C798 C800 1.419 . S
C799 C794 1.425 . S
C799 C796 1.409 . S
C799 C797 1.415 . S
C800 H790 0.930 . S
C800 C798 1.419 . S
C800 C801 1.362 . S
C801 H791 0.930 . S
C801 C794 1.409 . S
C801 C800 1.362 . S
H802 C808 0.930 . S
H803 C811 0.930 . S
H804 C812 0.930 . S
H805 C813 0.930 . S
H806 C816 0.930 . S
H807 C817 0.930 . S
C808 H802 0.930 . S
C808 C809 1.355 . S
C808 C810 1.415 . S
C809 C808 1.355 . S
C809 C811 1.419 . S
C810 C808 1.415 . S
C810 C815 1.425 . S
C810 C817 1.409 . S
C811 H803 0.930 . S
C811 C809 1.419 . S
C811 C812 1.362 . S
C812 H804 0.930 . S
C812 C811 1.362 . S
C812 C815 1.409 . S
C813 H805 0.930 . S
C813 C814 1.355 . S
C813 C815 1.415 . S
C814 C813 1.355 . S
C814 C816 1.419 . S
C815 C810 1.425 . S
C815 C812 1.409 . S
C815 C813 1.415 . S
C816 H806 0.930 . S
C816 C814 1.419 . S
C816 C817 1.362 . S
C817 H807 0.930 . S
C817 C810 1.409 . S
C817 C816 1.362 . S
H818 C824 0.930 . S
H819 C827 0.930 . S
H820 C828 0.930 . S
H821 C829 0.930 . S
H822 C832 0.930 . S
H823 C833 0.930 . S
C824 H818 0.930 . S
C824 C825 1.355 . S
C824 C826 1.415 . S
C825 C824 1.355 . S
C825 C827 1.419 . S
C826 C824 1.415 . S
C826 C831 1.425 . S
C826 C833 1.409 . S
C827 H819 0.930 . S
C827 C825 1.419 . S
C827 C828 1.362 . S
C828 H820 0.930 . S
C828 C827 1.362 . S
C828 C831 1.409 . S
C829 H821 0.930 . S
C829 C830 1.355 . S
C829 C831 1.415 . S
C830 C829 1.355 . S
C830 C832 1.419 . S
C831 C826 1.425 . S
C831 C828 1.409 . S
C831 C829 1.415 . S
C832 H822 0.930 . S
C832 C830 1.419 . S
C832 C833 1.362 . S
C833 H823 0.930 . S
C833 C826 1.409 . S
C833 C832 1.362 . S
H834 C840 0.930 . S
H835 C843 0.930 . S
H836 C844 0.930 . S
H837 C845 0.930 . S
H838 C848 0.930 . S
H839 C849 0.930 . S
C840 H834 0.930 . S
C840 C841 1.355 . S
C840 C842 1.415 . S
C841 C840 1.355 . S
C841 C843 1.419 . S
C842 C840 1.415 . S
C842 C847 1.425 . S
C842 C849 1.409 . S
C843 H835 0.930 . S
C843 C841 1.419 . S
C843 C844 1.362 . S
C844 H836 0.930 . S
C844 C843 1.362 . S
C844 C847 1.409 . S
C845 H837 0.930 . S
C845 C846 1.355 . S
C845 C847 1.415 1_556 S
C846 C845 1.355 . S
C846 C848 1.419 . S
C847 C842 1.425 . S
C847 C844 1.409 . S
C847 C845 1.415 1_554 S
C848 H838 0.930 . S
C848 C846 1.419 . S
C848 C849 1.362 1_556 S
C849 H839 0.930 . S
C849 C842 1.409 . S
C849 C848 1.362 1_554 S
H850 C856 0.930 . S
H851 C859 0.930 . S
H852 C860 0.930 . S
H853 C861 0.930 . S
H854 C864 0.930 . S
H855 C865 0.929 1_554 S
C856 H850 0.930 . S
C856 C857 1.355 . S
C856 C858 1.415 . S
C857 C856 1.355 . S
C857 C859 1.419 . S
C858 C856 1.415 . S
C858 C863 1.425 . S
C858 C865 1.398 1_554 S
C859 H851 0.930 . S
C859 C857 1.419 . S
C859 C860 1.362 . S
C860 H852 0.930 . S
C860 C859 1.362 . S
C860 C863 1.409 . S
C861 H853 0.930 . S
C861 C862 1.355 . S
C861 C863 1.415 1_556 S
C862 C861 1.355 . S
C862 C864 1.419 . S
C863 C858 1.425 . S
C863 C860 1.409 . S
C863 C861 1.415 1_554 S
C864 H854 0.930 . S
C864 C862 1.419 . S
C864 C865 1.375 . S
C865 H855 0.929 1_556 S
C865 C858 1.398 1_556 S
C865 C864 1.375 . S
H866 C872 0.930 . S
H867 C875 0.930 . S
H868 C876 0.930 . S
H869 C877 0.930 . S
H870 C880 0.930 . S
H871 C881 0.930 . S
C872 H866 0.930 . S
C872 C873 1.355 . S
C872 C874 1.415 1_556 S
C873 C872 1.355 . S
C873 C875 1.419 . S
C874 C872 1.415 1_554 S
C874 C879 1.425 . S
C874 C881 1.409 . S
C875 H867 0.930 . S
C875 C873 1.419 . S
C875 C876 1.362 1_556 S
C876 H868 0.930 . S
C876 C875 1.362 1_554 S
C876 C879 1.409 . S
C877 H869 0.930 . S
C877 C878 1.355 . S
C877 C879 1.415 . S
C878 C877 1.355 . S
C878 C880 1.419 . S
C879 C874 1.425 . S
C879 C876 1.409 . S
C879 C877 1.415 . S
C880 H870 0.930 . S
C880 C878 1.419 . S
C880 C881 1.362 . S
C881 H871 0.930 . S
C881 C874 1.409 . S
C881 C880 1.362 . S
H882 C888 0.930 . S
H883 C891 0.930 . S
H884 C892 0.930 . S
H885 C893 0.930 . S
H886 C896 0.930 . S
H887 C897 0.930 . S
C888 H882 0.930 . S
C888 C889 1.355 . S
C888 C890 1.415 . S
C889 C888 1.355 . S
C889 C891 1.419 . S
C890 C888 1.415 . S
C890 C895 1.425 . S
C890 C897 1.409 . S
C891 H883 0.930 . S
C891 C889 1.419 . S
C891 C892 1.362 . S
C892 H884 0.930 . S
C892 C891 1.362 . S
C892 C895 1.409 . S
C893 H885 0.930 . S
C893 C894 1.355 . S
C893 C895 1.415 . S
C894 C893 1.355 . S
C894 C896 1.419 . S
C895 C890 1.425 . S
C895 C892 1.409 . S
C895 C893 1.415 . S
C896 H886 0.930 . S
C896 C894 1.419 . S
C896 C897 1.362 . S
C897 H887 0.930 . S
C897 C890 1.409 . S
C897 C896 1.362 . S
H898 C904 0.930 . S
H899 C907 0.930 . S
H900 C908 0.930 . S
H901 C909 0.930 . S
H902 C912 0.930 . S
H903 C913 0.930 . S
C904 H898 0.930 . S
C904 C905 1.355 . S
C904 C906 1.415 . S
C905 C904 1.355 . S
C905 C907 1.419 . S
C906 C904 1.415 . S
C906 C911 1.425 . S
C906 C913 1.409 . S
C907 H899 0.930 . S
C907 C905 1.419 . S
C907 C908 1.362 . S
C908 H900 0.930 . S
C908 C907 1.362 . S
C908 C911 1.409 . S
C909 H901 0.930 . S
C909 C910 1.355 . S
C909 C911 1.415 . S
C910 C909 1.355 . S
C910 C912 1.419 . S
C911 C906 1.425 . S
C911 C908 1.409 . S
C911 C909 1.415 . S
C912 H902 0.930 . S
C912 C910 1.419 . S
C912 C913 1.362 . S
C913 H903 0.930 . S
C913 C906 1.409 . S
C913 C912 1.362 . S
H914 C920 0.930 . S
H915 C923 0.930 . S
H916 C924 0.930 . S
H917 C925 0.930 . S
H918 C928 0.930 . S
H919 C929 0.930 . S
C920 H914 0.930 . S
C920 C921 1.355 . S
C920 C922 1.415 . S
C921 C920 1.355 . S
C921 C923 1.419 . S
C922 C920 1.415 . S
C922 C927 1.425 . S
C922 C929 1.409 . S
C923 H915 0.930 . S
C923 C921 1.419 . S
C923 C924 1.362 . S
C924 H916 0.930 . S
C924 C923 1.362 . S
C924 C927 1.409 . S
C925 H917 0.930 . S
C925 C926 1.355 . S
C925 C927 1.415 . S
C926 C925 1.355 . S
C926 C928 1.419 . S
C927 C922 1.425 . S
C927 C924 1.409 . S
C927 C925 1.415 . S
C928 H918 0.930 . S
C928 C926 1.419 . S
C928 C929 1.362 . S
C929 H919 0.930 . S
C929 C922 1.409 . S
C929 C928 1.362 . S
H930 C936 0.930 . S
H931 C939 0.930 . S
H932 C940 0.930 . S
H933 C941 0.930 . S
H934 C944 0.930 . S
H935 C945 0.930 . S
C936 H930 0.930 . S
C936 C937 1.355 . S
C936 C938 1.415 . S
C937 C936 1.355 . S
C937 C939 1.419 . S
C938 C936 1.415 . S
C938 C943 1.425 . S
C938 C945 1.409 . S
C939 H931 0.930 . S
C939 C937 1.419 . S
C939 C940 1.362 . S
C940 H932 0.930 . S
C940 C939 1.362 . S
C940 C943 1.409 . S
C941 H933 0.930 . S
C941 C942 1.355 . S
C941 C943 1.415 . S
C942 C941 1.355 . S
C942 C944 1.419 . S
C943 C938 1.425 . S
C943 C940 1.409 . S
C943 C941 1.415 . S
C944 H934 0.930 . S
C944 C942 1.419 . S
C944 C945 1.362 . S
C945 H935 0.930 . S
C945 C938 1.409 . S
C945 C944 1.362 . S
H946 C952 0.930 . S
H947 C955 0.930 . S
H948 C956 0.930 . S
H949 C957 0.930 . S
H950 C960 0.930 . S
H951 C961 0.930 . S
C952 H946 0.930 . S
C952 C953 1.355 . S
C952 C954 1.415 . S
C953 C952 1.355 . S
C953 C955 1.419 . S
C954 C952 1.415 . S
C954 C959 1.425 . S
C954 C961 1.409 . S
C955 H947 0.930 . S
C955 C953 1.419 . S
C955 C956 1.362 . S
C956 H948 0.930 . S
C956 C955 1.362 . S
C956 C959 1.409 . S
C957 H949 0.930 . S
C957 C958 1.355 . S
C957 C959 1.415 . S
C958 C957 1.355 . S
C958 C960 1.419 . S
C959 C954 1.425 . S
C959 C956 1.409 . S
C959 C957 1.415 . S
C960 H950 0.930 . S
C960 C958 1.419 . S
C960 C961 1.362 . S
C961 H951 0.930 . S
C961 C954 1.409 . S
C961 C960 1.362 . S
H962 C968 0.930 . S
H963 C971 0.930 . S
H964 C972 0.930 . S
H965 C973 0.930 . S
H966 C976 0.930 . S
H967 C977 0.930 . S
C968 H962 0.930 . S
C968 C969 1.355 . S
C968 C970 1.415 . S
C969 C968 1.355 . S
C969 C971 1.419 . S
C970 C968 1.415 . S
C970 C975 1.425 . S
C970 C977 1.409 . S
C971 H963 0.930 . S
C971 C969 1.419 . S
C971 C972 1.362 . S
C972 H964 0.930 . S
C972 C971 1.362 . S
C972 C975 1.409 . S
C973 H965 0.930 . S
C973 C974 1.355 . S
C973 C975 1.415 . S
C974 C973 1.355 . S
C974 C976 1.419 . S
C975 C970 1.425 . S
C975 C972 1.409 . S
C975 C973 1.415 . S
C976 H966 0.930 . S
C976 C974 1.419 . S
C976 C977 1.362 . S
C977 H967 0.930 . S
C977 C970 1.409 . S
C977 C976 1.362 . S
H978 C984 0.930 . S
H979 C987 0.930 . S
H980 C988 0.930 1_455 S
H981 C989 0.930 . S
H982 C992 0.930 . S
H983 C993 0.933 1_655 S
C984 H978 0.930 . S
C984 C985 1.355 . S
C984 C986 1.415 . S
C985 C984 1.355 . S
C985 C987 1.419 . S
C986 C984 1.415 . S
C986 C991 1.425 1_654 S
C986 C993 1.409 1_654 S
C987 H979 0.930 . S
C987 C985 1.419 . S
C987 C988 1.362 . S
C988 H980 0.930 1_655 S
C988 C987 1.362 . S
C988 C991 1.409 1_654 S
C989 H981 0.930 . S
C989 C990 1.355 . S
C989 C991 1.415 . S
C990 C989 1.355 . S
C990 C992 1.419 . S
C991 C986 1.425 1_456 S
C991 C988 1.409 1_456 S
C991 C989 1.415 . S
C992 H982 0.930 . S
C992 C990 1.419 . S
C992 C993 1.362 . S
C993 H983 0.933 1_455 S
C993 C986 1.409 1_456 S
C993 C992 1.362 . S
H994 C1000 0.930 . S
H995 C1003 0.930 . S
H996 C1004 0.930 . S
H997 C1005 0.930 . S
H998 C1008 0.930 . S
H999 C1009 0.930 . S
C1000 H994 0.930 . S
C1000 C1001 1.355 . S
C1000 C1002 1.415 1_556 S
C1001 C1000 1.355 . S
C1001 C1003 1.419 . S
C1002 C1000 1.415 1_554 S
C1002 C1007 1.425 1_554 S
C1002 C1009 1.409 . S
C1003 H995 0.930 . S
C1003 C1001 1.419 . S
C1003 C1004 1.362 . S
C1004 H996 0.930 . S
C1004 C1003 1.362 . S
C1004 C1007 1.409 . S
C1005 H997 0.930 . S
C1005 C1006 1.355 . S
C1005 C1007 1.415 1_554 S
C1006 C1005 1.355 . S
C1006 C1008 1.419 . S
C1007 C1002 1.425 1_556 S
C1007 C1004 1.409 . S
C1007 C1005 1.415 1_556 S
C1008 H998 0.930 . S
C1008 C1006 1.419 . S
C1008 C1009 1.362 . S
C1009 H999 0.930 . S
C1009 C1002 1.409 . S
C1009 C1008 1.362 . S
H1010 C1016 0.930 . S
H1011 C1019 0.930 . S
H1012 C1020 0.930 . S
H1013 C1021 0.930 . S
H1014 C1024 0.930 . S
H1015 C1025 0.930 . S
C1016 H1010 0.930 . S
C1016 C1017 1.355 . S
C1016 C1018 1.415 1_554 S
C1017 C1016 1.355 . S
C1017 C1019 1.419 . S
C1018 C1016 1.415 1_556 S
C1018 C1023 1.425 1_546 S
C1018 C1025 1.409 . S
C1019 H1011 0.930 . S
C1019 C1017 1.419 . S
C1019 C1020 1.362 1_545 S
C1020 H1012 0.930 . S
C1020 C1019 1.362 1_565 S
C1020 C1023 1.409 . S
C1021 H1013 0.930 . S
C1021 C1022 1.355 . S
C1021 C1023 1.415 1_556 S
C1022 C1021 1.355 . S
C1022 C1024 1.419 . S
C1023 C1018 1.425 1_564 S
C1023 C1020 1.409 . S
C1023 C1021 1.415 1_554 S
C1024 H1014 0.930 . S
C1024 C1022 1.419 . S
C1024 C1025 1.362 1_565 S
C1025 H1015 0.930 . S
C1025 C1018 1.409 . S
C1025 C1024 1.362 1_545 S
H1026 C1032 0.930 . S
H1027 C1035 0.930 . S
H1028 C1036 0.930 . S
H1029 C1037 0.930 . S
H1030 C1040 0.930 . S
H1031 C1041 0.930 . S
C1032 H1026 0.930 . S
C1032 C1033 1.355 . S
C1032 C1034 1.415 . S
C1033 C1032 1.355 . S
C1033 C1035 1.419 1_554 S
C1034 C1032 1.415 . S
C1034 C1039 1.425 1_554 S
C1034 C1041 1.409 . S
C1035 H1027 0.930 . S
C1035 C1033 1.419 1_556 S
C1035 C1036 1.362 . S
C1036 H1028 0.930 . S
C1036 C1035 1.362 . S
C1036 C1039 1.409 . S
C1037 H1029 0.930 . S
C1037 C1038 1.355 . S
C1037 C1039 1.415 . S
C1038 C1037 1.355 . S
C1038 C1040 1.419 1_556 S
C1039 C1034 1.425 1_556 S
C1039 C1036 1.409 . S
C1039 C1037 1.415 . S
C1040 H1030 0.930 . S
C1040 C1038 1.419 1_554 S
C1040 C1041 1.362 . S
C1041 H1031 0.930 . S
C1041 C1034 1.409 . S
C1041 C1040 1.362 . S
H1042 C1048 0.930 . S
H1043 C1051 0.930 . S
H1044 C1052 0.930 1_556 S
H1045 C1053 0.930 . S
H1046 C1056 0.930 . S
H1047 C1057 0.930 1_554 S
C1048 H1042 0.930 . S
C1048 C1049 1.355 . S
C1048 C1050 1.415 . S
C1049 C1048 1.355 . S
C1049 C1051 1.419 . S
C1050 C1048 1.415 . S
C1050 C1055 1.425 1_564 S
C1050 C1057 1.409 1_564 S
C1051 H1043 0.930 . S
C1051 C1049 1.419 . S
C1051 C1052 1.362 . S
C1052 H1044 0.930 1_554 S
C1052 C1051 1.362 . S
C1052 C1055 1.409 1_564 S
C1053 H1045 0.930 . S
C1053 C1054 1.355 . S
C1053 C1055 1.415 . S
C1054 C1053 1.355 . S
C1054 C1056 1.419 . S
C1055 C1050 1.425 1_546 S
C1055 C1052 1.409 1_546 S
C1055 C1053 1.415 . S
C1056 H1046 0.930 . S
C1056 C1054 1.419 . S
C1056 C1057 1.362 . S
C1057 H1047 0.930 1_556 S
C1057 C1050 1.409 1_546 S
C1057 C1056 1.362 . S
H1058 C1064 0.930 . S
H1059 C1067 0.930 . S
H1060 C1068 0.930 . S
H1061 C1069 0.930 . S
H1062 C1072 0.930 . S
H1063 C1073 0.930 . S
C1064 H1058 0.930 . S
C1064 C1065 1.355 . S
C1064 C1066 1.459 . S
C1065 C1064 1.355 . S
C1065 C1067 1.419 1_556 S
C1066 C1064 1.459 . S
C1066 C1071 1.436 1_656 S
C1066 C1073 1.356 1_655 S
C1067 H1059 0.930 . S
C1067 C1065 1.419 1_554 S
C1067 C1068 1.362 . S
C1068 H1060 0.930 . S
C1068 C1067 1.362 . S
C1068 C1071 1.409 1_655 S
C1069 H1061 0.930 . S
C1069 C1070 1.355 . S
C1069 C1071 1.415 . S
C1070 C1069 1.355 . S
C1070 C1072 1.419 1_554 S
C1071 C1066 1.436 1_454 S
C1071 C1068 1.409 1_455 S
C1071 C1069 1.415 . S
C1072 H1062 0.930 . S
C1072 C1070 1.419 1_556 S
C1072 C1073 1.362 . S
C1073 H1063 0.930 . S
C1073 C1066 1.356 1_455 S
C1073 C1072 1.362 . S
H1074 C1080 0.930 . S
H1075 C1083 0.930 . S
H1076 C1084 0.930 . S
H1077 C1085 0.930 . S
H1078 C1088 0.930 . S
H1079 C1089 0.930 . S
C1080 H1074 0.930 . S
C1080 C1081 1.355 . S
C1080 C1082 1.415 . S
C1081 C1080 1.355 . S
C1081 C1083 1.419 . S
C1082 C1080 1.415 . S
C1082 C1087 1.425 1_556 S
C1082 C1089 1.409 . S
C1083 H1075 0.930 . S
C1083 C1081 1.419 . S
C1083 C1084 1.362 1_556 S
C1084 H1076 0.930 . S
C1084 C1083 1.362 1_554 S
C1084 C1087 1.409 . S
C1085 H1077 0.930 . S
C1085 C1086 1.355 . S
C1085 C1087 1.415 . S
C1086 C1085 1.355 . S
C1086 C1088 1.419 . S
C1087 C1082 1.425 1_554 S
C1087 C1084 1.409 . S
C1087 C1085 1.415 . S
C1088 H1078 0.930 . S
C1088 C1086 1.419 . S
C1088 C1089 1.362 1_554 S
C1089 H1079 0.930 . S
C1089 C1082 1.409 . S
C1089 C1088 1.362 1_556 S
H1090 C1096 0.930 . S
H1091 C1099 0.930 . S
H1092 C1100 0.930 1_565 S
H1093 C1101 0.930 . S
H1094 C1104 0.930 . S
H1095 C1105 0.930 1_545 S
C1096 H1090 0.930 . S
C1096 C1097 1.355 1_554 S
C1096 C1098 1.415 . S
C1097 C1096 1.355 1_556 S
C1097 C1099 1.419 . S
C1098 C1096 1.415 . S
C1098 C1103 1.425 1_544 S
C1098 C1105 1.409 1_545 S
C1099 H1091 0.930 . S
C1099 C1097 1.419 . S
C1099 C1100 1.362 . S
C1100 H1092 0.930 1_545 S
C1100 C1099 1.362 . S
C1100 C1103 1.409 1_545 S
C1101 H1093 0.930 . S
C1101 C1102 1.355 1_556 S
C1101 C1103 1.415 . S
C1102 C1101 1.355 1_554 S
C1102 C1104 1.419 . S
C1103 C1098 1.425 1_566 S
C1103 C1100 1.409 1_565 S
C1103 C1101 1.415 . S
C1104 H1094 0.930 . S
C1104 C1102 1.419 . S
C1104 C1105 1.362 . S
C1105 H1095 0.930 1_565 S
C1105 C1098 1.409 1_565 S
C1105 C1104 1.362 . S
H1106 C1112 0.930 1_554 S
H1107 C1115 0.930 . S
H1108 C1116 0.930 . S
H1109 C1117 0.930 1_556 S
H1110 C1120 0.930 . S
H1111 C1121 0.930 . S
C1112 H1106 0.930 1_556 S
C1112 C1113 1.355 . S
C1112 C1114 1.415 1_556 S
C1113 C1112 1.355 . S
C1113 C1115 1.419 . S
C1114 C1112 1.415 1_554 S
C1114 C1119 1.425 1_654 S
C1114 C1121 1.409 1_655 S
C1115 H1107 0.930 . S
C1115 C1113 1.419 . S
C1115 C1116 1.362 . S
C1116 H1108 0.930 . S
C1116 C1115 1.362 . S
C1116 C1119 1.409 1_655 S
C1117 H1109 0.930 1_554 S
C1117 C1118 1.355 . S
C1117 C1119 1.415 1_554 S
C1118 C1117 1.355 . S
C1118 C1120 1.419 . S
C1119 C1114 1.425 1_456 S
C1119 C1116 1.409 1_455 S
C1119 C1117 1.415 1_556 S
C1120 H1110 0.930 . S
C1120 C1118 1.419 . S
C1120 C1121 1.362 . S
C1121 H1111 0.930 . S
C1121 C1114 1.409 1_455 S
C1121 C1120 1.362 . S
H1122 C1128 0.930 . S
H1123 C1131 0.930 . S
H1124 C1132 0.930 . S
H1125 C1133 0.930 . S
H1126 C1136 0.930 . S
H1127 C1137 0.930 . S
C1128 H1122 0.930 . S
C1128 C1129 1.355 . S
C1128 C1130 1.415 . S
C1129 C1128 1.355 . S
C1129 C1131 1.419 . S
C1130 C1128 1.415 . S
C1130 C1135 1.425 . S
C1130 C1137 1.409 . S
C1131 H1123 0.930 . S
C1131 C1129 1.419 . S
C1131 C1132 1.362 . S
C1132 H1124 0.930 . S
C1132 C1131 1.362 . S
C1132 C1135 1.409 . S
C1133 H1125 0.930 . S
C1133 C1134 1.355 . S
C1133 C1135 1.415 . S
C1134 C1133 1.355 . S
C1134 C1136 1.419 . S
C1135 C1130 1.425 . S
C1135 C1132 1.409 . S
C1135 C1133 1.415 . S
C1136 H1126 0.930 . S
C1136 C1134 1.419 . S
C1136 C1137 1.362 . S
C1137 H1127 0.930 . S
C1137 C1130 1.409 . S
C1137 C1136 1.362 . S
H1138 C1144 0.930 . S
H1139 C1147 0.930 . S
H1140 C1148 0.930 . S
H1141 C1149 0.930 . S
H1142 C1152 0.930 . S
H1143 C1153 0.930 . S
C1144 H1138 0.930 . S
C1144 C1145 1.355 . S
C1144 C1146 1.415 . S
C1145 C1144 1.355 . S
C1145 C1147 1.419 . S
C1146 C1144 1.415 . S
C1146 C1151 1.425 . S
C1146 C1153 1.409 . S
C1147 H1139 0.930 . S
C1147 C1145 1.419 . S
C1147 C1148 1.362 . S
C1148 H1140 0.930 . S
C1148 C1147 1.362 . S
C1148 C1151 1.409 . S
C1149 H1141 0.930 . S
C1149 C1150 1.355 . S
C1149 C1151 1.415 . S
C1150 C1149 1.355 . S
C1150 C1152 1.419 . S
C1151 C1146 1.425 . S
C1151 C1148 1.409 . S
C1151 C1149 1.415 . S
C1152 H1142 0.930 . S
C1152 C1150 1.419 . S
C1152 C1153 1.362 . S
C1153 H1143 0.930 . S
C1153 C1146 1.409 . S
C1153 C1152 1.362 . S
H1154 C1160 0.930 . S
H1155 C1163 0.930 . S
H1156 C1164 0.930 . S
H1157 C1165 0.930 . S
H1158 C1168 0.930 . S
H1159 C1169 0.930 . S
C1160 H1154 0.930 . S
C1160 C1161 1.355 . S
C1160 C1162 1.415 . S
C1161 C1160 1.355 . S
C1161 C1163 1.419 . S
C1162 C1160 1.415 . S
C1162 C1167 1.425 . S
C1162 C1169 1.409 . S
C1163 H1155 0.930 . S
C1163 C1161 1.419 . S
C1163 C1164 1.362 . S
C1164 H1156 0.930 . S
C1164 C1163 1.362 . S
C1164 C1167 1.409 . S
C1165 H1157 0.930 . S
C1165 C1166 1.355 . S
C1165 C1167 1.415 . S
C1166 C1165 1.355 . S
C1166 C1168 1.419 . S
C1167 C1162 1.425 . S
C1167 C1164 1.409 . S
C1167 C1165 1.415 . S
C1168 H1158 0.930 . S
C1168 C1166 1.419 . S
C1168 C1169 1.362 . S
C1169 H1159 0.930 . S
C1169 C1162 1.409 . S
C1169 C1168 1.362 . S
H1170 C1176 0.930 . S
H1171 C1179 0.930 . S
H1172 C1180 0.930 . S
H1173 C1181 0.930 . S
H1174 C1184 0.930 . S
H1175 C1185 0.930 . S
C1176 H1170 0.930 . S
C1176 C1177 1.355 . S
C1176 C1178 1.415 . S
C1177 C1176 1.355 . S
C1177 C1179 1.419 . S
C1178 C1176 1.415 . S
C1178 C1183 1.425 . S
C1178 C1185 1.409 . S
C1179 H1171 0.930 . S
C1179 C1177 1.419 . S
C1179 C1180 1.362 . S
C1180 H1172 0.930 . S
C1180 C1179 1.362 . S
C1180 C1183 1.409 . S
C1181 H1173 0.930 . S
C1181 C1182 1.355 . S
C1181 C1183 1.415 . S
C1182 C1181 1.355 . S
C1182 C1184 1.419 . S
C1183 C1178 1.425 . S
C1183 C1180 1.409 . S
C1183 C1181 1.415 . S
C1184 H1174 0.930 . S
C1184 C1182 1.419 . S
C1184 C1185 1.362 . S
C1185 H1175 0.930 . S
C1185 C1178 1.409 . S
C1185 C1184 1.362 . S
H1186 C1192 0.930 . S
H1187 C1195 0.930 . S
H1188 C1196 0.930 . S
H1189 C1197 0.930 . S
H1190 C1200 0.930 . S
H1191 C1201 0.930 . S
C1192 H1186 0.930 . S
C1192 C1193 1.355 . S
C1192 C1194 1.415 . S
C1193 C1192 1.355 . S
C1193 C1195 1.419 . S
C1194 C1192 1.415 . S
C1194 C1199 1.425 . S
C1194 C1201 1.409 . S
C1195 H1187 0.930 . S
C1195 C1193 1.419 . S
C1195 C1196 1.362 . S
C1196 H1188 0.930 . S
C1196 C1195 1.362 . S
C1196 C1199 1.409 . S
C1197 H1189 0.930 . S
C1197 C1198 1.355 . S
C1197 C1199 1.415 . S
C1198 C1197 1.355 . S
C1198 C1200 1.419 . S
C1199 C1194 1.425 . S
C1199 C1196 1.409 . S
C1199 C1197 1.415 . S
C1200 H1190 0.930 . S
C1200 C1198 1.419 . S
C1200 C1201 1.362 . S
C1201 H1191 0.930 . S
C1201 C1194 1.409 . S
C1201 C1200 1.362 . S
H1202 C1208 0.930 . S
H1203 C1211 0.930 . S
H1204 C1212 0.930 . S
H1205 C1213 0.930 . S
H1206 C1216 0.930 . S
H1207 C1217 0.930 . S
C1208 H1202 0.930 . S
C1208 C1209 1.355 . S
C1208 C1210 1.415 . S
C1209 C1208 1.355 . S
C1209 C1211 1.419 . S
C1210 C1208 1.415 . S
C1210 C1215 1.425 . S
C1210 C1217 1.409 . S
C1211 H1203 0.930 . S
C1211 C1209 1.419 . S
C1211 C1212 1.362 . S
C1212 H1204 0.930 . S
C1212 C1211 1.362 . S
C1212 C1215 1.409 . S
C1213 H1205 0.930 . S
C1213 C1214 1.355 . S
C1213 C1215 1.415 . S
C1214 C1213 1.355 . S
C1214 C1216 1.419 . S
C1215 C1210 1.425 . S
C1215 C1212 1.409 . S
C1215 C1213 1.415 . S
C1216 H1206 0.930 . S
C1216 C1214 1.419 . S
C1216 C1217 1.362 . S
C1217 H1207 0.930 . S
C1217 C1210 1.409 . S
C1217 C1216 1.362 . S
H1218 C1224 0.930 . S
H1219 C1227 0.930 . S
H1220 C1228 0.930 . S
H1221 C1229 0.930 . S
H1222 C1232 0.930 . S
H1223 C1233 0.930 . S
C1224 H1218 0.930 . S
C1224 C1225 1.355 . S
C1224 C1226 1.415 . S
C1225 C1224 1.355 . S
C1225 C1227 1.419 . S
C1226 C1224 1.415 . S
C1226 C1231 1.425 . S
C1226 C1233 1.409 . S
C1227 H1219 0.930 . S
C1227 C1225 1.419 . S
C1227 C1228 1.362 . S
C1228 H1220 0.930 . S
C1228 C1227 1.362 . S
C1228 C1231 1.409 . S
C1229 H1221 0.930 . S
C1229 C1230 1.355 . S
C1229 C1231 1.415 . S
C1230 C1229 1.355 . S
C1230 C1232 1.419 . S
C1231 C1226 1.425 . S
C1231 C1228 1.409 . S
C1231 C1229 1.415 . S
C1232 H1222 0.930 . S
C1232 C1230 1.419 . S
C1232 C1233 1.362 . S
C1233 H1223 0.930 . S
C1233 C1226 1.409 . S
C1233 C1232 1.362 . S
H1234 C1240 0.930 . S
H1235 C1243 0.930 . S
H1236 C1244 0.930 . S
H1237 C1245 0.930 . S
H1238 C1248 0.930 . S
H1239 C1249 0.930 . S
C1240 H1234 0.930 . S
C1240 C1241 1.355 . S
C1240 C1242 1.415 . S
C1241 C1240 1.355 . S
C1241 C1243 1.419 . S
C1242 C1240 1.415 . S
C1242 C1247 1.425 . S
C1242 C1249 1.409 . S
C1243 H1235 0.930 . S
C1243 C1241 1.419 . S
C1243 C1244 1.362 . S
C1244 H1236 0.930 . S
C1244 C1243 1.362 . S
C1244 C1247 1.409 . S
C1245 H1237 0.930 . S
C1245 C1246 1.355 . S
C1245 C1247 1.415 . S
C1246 C1245 1.355 . S
C1246 C1248 1.419 . S
C1247 C1242 1.425 . S
C1247 C1244 1.409 . S
C1247 C1245 1.415 . S
C1248 H1238 0.930 . S
C1248 C1246 1.419 . S
C1248 C1249 1.362 . S
C1249 H1239 0.930 . S
C1249 C1242 1.409 . S
C1249 C1248 1.362 . S
H1250 C1256 0.930 . S
H1251 C1259 0.930 . S
H1252 C1260 0.930 . S
H1253 C1261 0.930 . S
H1254 C1264 0.930 . S
H1255 C1265 0.930 . S
C1256 H1250 0.930 . S
C1256 C1257 1.355 . S
C1256 C1258 1.415 . S
C1257 C1256 1.355 . S
C1257 C1259 1.419 . S
C1258 C1256 1.415 . S
C1258 C1263 1.425 . S
C1258 C1265 1.409 . S
C1259 H1251 0.930 . S
C1259 C1257 1.419 . S
C1259 C1260 1.362 . S
C1260 H1252 0.930 . S
C1260 C1259 1.362 . S
C1260 C1263 1.409 . S
C1261 H1253 0.930 . S
C1261 C1262 1.355 . S
C1261 C1263 1.415 . S
C1262 C1261 1.355 . S
C1262 C1264 1.419 . S
C1263 C1258 1.425 . S
C1263 C1260 1.409 . S
C1263 C1261 1.415 . S
C1264 H1254 0.930 . S
C1264 C1262 1.419 . S
C1264 C1265 1.362 . S
C1265 H1255 0.930 . S
C1265 C1258 1.409 . S
C1265 C1264 1.362 . S
H1266 C1272 0.930 . S
H1267 C1275 0.930 . S
H1268 C1276 0.930 . S
H1269 C1277 0.930 . S
H1270 C1280 0.930 . S
H1271 C1281 0.930 . S
C1272 H1266 0.930 . S
C1272 C1273 1.355 . S
C1272 C1274 1.415 . S
C1273 C1272 1.355 . S
C1273 C1275 1.419 . S
C1274 C1272 1.415 . S
C1274 C1279 1.425 . S
C1274 C1281 1.409 . S
C1275 H1267 0.930 . S
C1275 C1273 1.419 . S
C1275 C1276 1.362 . S
C1276 H1268 0.930 . S
C1276 C1275 1.362 . S
C1276 C1279 1.409 . S
C1277 H1269 0.930 . S
C1277 C1278 1.355 . S
C1277 C1279 1.415 . S
C1278 C1277 1.355 . S
C1278 C1280 1.419 . S
C1279 C1274 1.425 . S
C1279 C1276 1.409 . S
C1279 C1277 1.415 . S
C1280 H1270 0.930 . S
C1280 C1278 1.419 . S
C1280 C1281 1.362 . S
C1281 H1271 0.930 . S
C1281 C1274 1.409 . S
C1281 C1280 1.362 . S
H1282 C1288 0.930 . S
H1283 C1291 0.930 . S
H1284 C1292 0.930 . S
H1285 C1293 0.930 . S
H1286 C1296 0.930 . S
H1287 C1297 0.930 . S
C1288 H1282 0.930 . S
C1288 C1289 1.355 . S
C1288 C1290 1.415 . S
C1289 C1288 1.355 . S
C1289 C1291 1.419 . S
C1290 C1288 1.415 . S
C1290 C1295 1.425 . S
C1290 C1297 1.409 . S
C1291 H1283 0.930 . S
C1291 C1289 1.419 . S
C1291 C1292 1.362 . S
C1292 H1284 0.930 . S
C1292 C1291 1.362 . S
C1292 C1295 1.409 . S
C1293 H1285 0.930 . S
C1293 C1294 1.355 . S
C1293 C1295 1.415 . S
C1294 C1293 1.355 . S
C1294 C1296 1.419 . S
C1295 C1290 1.425 . S
C1295 C1292 1.409 . S
C1295 C1293 1.415 . S
C1296 H1286 0.930 . S
C1296 C1294 1.419 . S
C1296 C1297 1.362 . S
C1297 H1287 0.930 . S
C1297 C1290 1.409 . S
C1297 C1296 1.362 . S
H1298 C1304 0.930 . S
H1299 C1307 0.930 . S
H1300 C1308 0.930 . S
H1301 C1309 0.930 . S
H1302 C1312 0.930 . S
H1303 C1313 0.930 . S
C1304 H1298 0.930 . S
C1304 C1305 1.355 . S
C1304 C1306 1.415 . S
C1305 C1304 1.355 . S
C1305 C1307 1.419 . S
C1306 C1304 1.415 . S
C1306 C1311 1.425 . S
C1306 C1313 1.409 . S
C1307 H1299 0.930 . S
C1307 C1305 1.419 . S
C1307 C1308 1.362 . S
C1308 H1300 0.930 . S
C1308 C1307 1.362 . S
C1308 C1311 1.409 . S
C1309 H1301 0.930 . S
C1309 C1310 1.355 . S
C1309 C1311 1.415 . S
C1310 C1309 1.355 . S
C1310 C1312 1.419 . S
C1311 C1306 1.425 . S
C1311 C1308 1.409 . S
C1311 C1309 1.415 . S
C1312 H1302 0.930 . S
C1312 C1310 1.419 . S
C1312 C1313 1.362 . S
C1313 H1303 0.930 . S
C1313 C1306 1.409 . S
C1313 C1312 1.362 . S
C601 N14 1.161 . S
C606 N5 1.159 . S
C617 N47 1.179 . S
C622 N38 1.177 . S
C633 N71 1.172 . S
C638 N80 1.176 . S
C649 N113 1.171 . S
C654 N104 1.166 . S
C665 N146 1.174 . S
C670 N137 1.170 . S
C681 N170 1.159 . S
C686 N179 1.161 . S
C697 N203 1.173 . S
C702 N212 1.168 . S
C713 N236 1.172 . S
C718 N245 1.176 . S
C729 N278 1.169 . S
C734 N269 1.174 . S
C745 N311 1.171 . S
C750 N302 1.166 . S
C761 N344 1.160 . S
C766 N335 1.160 . S
C777 N368 1.161 . S
C782 N377 1.160 . S
C793 N401 1.162 . S
C798 N410 1.160 . S
C809 N434 1.167 . S
C814 N443 1.172 . S
C825 N467 1.163 . S
C830 N476 1.167 . S
C841 N509 1.167 . S
C846 N500 1.163 . S
C857 N542 1.179 . S
C862 N533 1.178 . S
C873 N566 1.179 . S
C878 N575 1.177 . S
C889 C569 1.548 . S
C894 C8 1.542 . S
C905 C41 1.566 . S
C910 C503 1.563 . S
C921 C536 1.568 . S
C926 C74 1.565 . S
C937 C239 1.511 . S
C942 C107 1.514 . S
C953 C140 1.552 . S
C958 C272 1.546 . S
C969 C173 1.569 . S
C974 C206 1.568 . S
C985 C305 1.556 . S
C990 C437 1.551 . S
C1001 C470 1.561 . S
C1006 C338 1.564 . S
C1017 C371 1.550 . S
C1022 C404 1.556 . S
C1033 C28 1.561 . S
C1038 C127 1.561 . S
C1049 C61 1.561 . S
C1054 C160 1.559 . S
C1065 C193 1.561 . S
C1070 C94 1.560 . S
C1081 C182 1.575 . S
C1086 C50 1.573 . S
C1097 C116 1.602 . S
C1102 C83 1.603 . S
C1113 C149 1.588 . S
C1118 C17 1.585 . S
C1129 C325 1.561 . S
C1134 C226 1.558 . S
C1145 C358 1.558 . S
C1150 C259 1.561 . S
C1161 C292 1.561 . S
C1166 C391 1.558 . S
C1177 C380 1.605 . S
C1182 C248 1.605 . S
C1193 C281 1.596 . S
C1198 C314 1.598 . S
C1209 C215 1.598 . S
C1214 C347 1.596 . S
C1225 C523 1.560 . S
C1230 C424 1.558 . S
C1241 C556 1.558 . S
C1246 C457 1.559 . S
C1257 C589 1.561 . S
C1262 C490 1.560 . S
C1273 C446 1.572 . S
C1278 C578 1.574 . S
C1289 C479 1.572 . S
C1294 C512 1.570 . S
C1305 C545 1.603 . S
C1310 C413 1.602 . S
