# Generated by pormake.
# Topology uka, (4)-cn, num edge types: 1
# Building blocks:
#     Node 0, Type 0, BuildingBlock: AZAVOO_clean_sbu_0, # of connection points: 4
#     Node 1, Type 0, BuildingBlock: AZAVOO_clean_sbu_0, # of connection points: 4
#     Node 2, Type 0, BuildingBlock: AZAVOO_clean_sbu_0, # of connection points: 4
#     Node 3, Type 0, BuildingBlock: AZAVOO_clean_sbu_0, # of connection points: 4
#     Node 4, Type 0, BuildingBlock: AZAVOO_clean_sbu_0, # of connection points: 4
#     Node 5, Type 0, BuildingBlock: AZAVOO_clean_sbu_0, # of connection points: 4
#     Node 6, Type 0, BuildingBlock: AZAVOO_clean_sbu_0, # of connection points: 4
#     Node 7, Type 0, BuildingBlock: AZAVOO_clean_sbu_0, # of connection points: 4
#     Node 8, Type 0, BuildingBlock: AZAVOO_clean_sbu_0, # of connection points: 4
#     Node 9, Type 0, BuildingBlock: AZAVOO_clean_sbu_0, # of connection points: 4
#     Node 10, Type 0, BuildingBlock: AZAVOO_clean_sbu_0, # of connection points: 4
#     Node 11, Type 0, BuildingBlock: AZAVOO_clean_sbu_0, # of connection points: 4
#     Node 12, Type 0, BuildingBlock: AZAVOO_clean_sbu_0, # of connection points: 4
#     Node 13, Type 0, BuildingBlock: AZAVOO_clean_sbu_0, # of connection points: 4
#     Node 14, Type 0, BuildingBlock: AZAVOO_clean_sbu_0, # of connection points: 4
#     Node 15, Type 0, BuildingBlock: AZAVOO_clean_sbu_0, # of connection points: 4
#     Node 16, Type 0, BuildingBlock: AZAVOO_clean_sbu_0, # of connection points: 4
#     Node 17, Type 0, BuildingBlock: AZAVOO_clean_sbu_0, # of connection points: 4
#     Node 18, Type 0, BuildingBlock: AZAVOO_clean_sbu_0, # of connection points: 4
#     Node 19, Type 0, BuildingBlock: AZAVOO_clean_sbu_0, # of connection points: 4
#     Node 20, Type 0, BuildingBlock: AZAVOO_clean_sbu_0, # of connection points: 4
#     Node 21, Type 0, BuildingBlock: AZAVOO_clean_sbu_0, # of connection points: 4
#     Node 22, Type 0, BuildingBlock: AZAVOO_clean_sbu_0, # of connection points: 4
#     Node 23, Type 0, BuildingBlock: AZAVOO_clean_sbu_0, # of connection points: 4
#     Node 24, Type 0, BuildingBlock: AZAVOO_clean_sbu_0, # of connection points: 4
#     Node 25, Type 0, BuildingBlock: AZAVOO_clean_sbu_0, # of connection points: 4
#     Node 26, Type 0, BuildingBlock: AZAVOO_clean_sbu_0, # of connection points: 4
#     Node 27, Type 0, BuildingBlock: AZAVOO_clean_sbu_0, # of connection points: 4
#     Node 28, Type 0, BuildingBlock: AZAVOO_clean_sbu_0, # of connection points: 4
#     Node 29, Type 0, BuildingBlock: AZAVOO_clean_sbu_0, # of connection points: 4
#     Node 30, Type 0, BuildingBlock: AZAVOO_clean_sbu_0, # of connection points: 4
#     Node 31, Type 0, BuildingBlock: AZAVOO_clean_sbu_0, # of connection points: 4
#     Edge 32, Type (0, 0), BuildingBlock: XUDNAN_clean_linker_2, # of connection points: 2
#     Edge 33, Type (0, 0), BuildingBlock: XUDNAN_clean_linker_2, # of connection points: 2
#     Edge 34, Type (0, 0), BuildingBlock: XUDNAN_clean_linker_2, # of connection points: 2
#     Edge 35, Type (0, 0), BuildingBlock: XUDNAN_clean_linker_2, # of connection points: 2
#     Edge 36, Type (0, 0), BuildingBlock: XUDNAN_clean_linker_2, # of connection points: 2
#     Edge 37, Type (0, 0), BuildingBlock: XUDNAN_clean_linker_2, # of connection points: 2
#     Edge 38, Type (0, 0), BuildingBlock: XUDNAN_clean_linker_2, # of connection points: 2
#     Edge 39, Type (0, 0), BuildingBlock: XUDNAN_clean_linker_2, # of connection points: 2
#     Edge 40, Type (0, 0), BuildingBlock: XUDNAN_clean_linker_2, # of connection points: 2
#     Edge 41, Type (0, 0), BuildingBlock: XUDNAN_clean_linker_2, # of connection points: 2
#     Edge 42, Type (0, 0), BuildingBlock: XUDNAN_clean_linker_2, # of connection points: 2
#     Edge 43, Type (0, 0), BuildingBlock: XUDNAN_clean_linker_2, # of connection points: 2
#     Edge 44, Type (0, 0), BuildingBlock: XUDNAN_clean_linker_2, # of connection points: 2
#     Edge 45, Type (0, 0), BuildingBlock: XUDNAN_clean_linker_2, # of connection points: 2
#     Edge 46, Type (0, 0), BuildingBlock: XUDNAN_clean_linker_2, # of connection points: 2
#     Edge 47, Type (0, 0), BuildingBlock: XUDNAN_clean_linker_2, # of connection points: 2
#     Edge 48, Type (0, 0), BuildingBlock: XUDNAN_clean_linker_2, # of connection points: 2
#     Edge 49, Type (0, 0), BuildingBlock: XUDNAN_clean_linker_2, # of connection points: 2
#     Edge 50, Type (0, 0), BuildingBlock: XUDNAN_clean_linker_2, # of connection points: 2
#     Edge 51, Type (0, 0), BuildingBlock: XUDNAN_clean_linker_2, # of connection points: 2
#     Edge 52, Type (0, 0), BuildingBlock: XUDNAN_clean_linker_2, # of connection points: 2
#     Edge 53, Type (0, 0), BuildingBlock: XUDNAN_clean_linker_2, # of connection points: 2
#     Edge 54, Type (0, 0), BuildingBlock: XUDNAN_clean_linker_2, # of connection points: 2
#     Edge 55, Type (0, 0), BuildingBlock: XUDNAN_clean_linker_2, # of connection points: 2
#     Edge 56, Type (0, 0), BuildingBlock: XUDNAN_clean_linker_2, # of connection points: 2
#     Edge 57, Type (0, 0), BuildingBlock: XUDNAN_clean_linker_2, # of connection points: 2
#     Edge 58, Type (0, 0), BuildingBlock: XUDNAN_clean_linker_2, # of connection points: 2
#     Edge 59, Type (0, 0), BuildingBlock: XUDNAN_clean_linker_2, # of connection points: 2
#     Edge 60, Type (0, 0), BuildingBlock: XUDNAN_clean_linker_2, # of connection points: 2
#     Edge 61, Type (0, 0), BuildingBlock: XUDNAN_clean_linker_2, # of connection points: 2
#     Edge 62, Type (0, 0), BuildingBlock: XUDNAN_clean_linker_2, # of connection points: 2
#     Edge 63, Type (0, 0), BuildingBlock: XUDNAN_clean_linker_2, # of connection points: 2
#     Edge 64, Type (0, 0), BuildingBlock: XUDNAN_clean_linker_2, # of connection points: 2
#     Edge 65, Type (0, 0), BuildingBlock: XUDNAN_clean_linker_2, # of connection points: 2
#     Edge 66, Type (0, 0), BuildingBlock: XUDNAN_clean_linker_2, # of connection points: 2
#     Edge 67, Type (0, 0), BuildingBlock: XUDNAN_clean_linker_2, # of connection points: 2
#     Edge 68, Type (0, 0), BuildingBlock: XUDNAN_clean_linker_2, # of connection points: 2
#     Edge 69, Type (0, 0), BuildingBlock: XUDNAN_clean_linker_2, # of connection points: 2
#     Edge 70, Type (0, 0), BuildingBlock: XUDNAN_clean_linker_2, # of connection points: 2
#     Edge 71, Type (0, 0), BuildingBlock: XUDNAN_clean_linker_2, # of connection points: 2
#     Edge 72, Type (0, 0), BuildingBlock: XUDNAN_clean_linker_2, # of connection points: 2
#     Edge 73, Type (0, 0), BuildingBlock: XUDNAN_clean_linker_2, # of connection points: 2
#     Edge 74, Type (0, 0), BuildingBlock: XUDNAN_clean_linker_2, # of connection points: 2
#     Edge 75, Type (0, 0), BuildingBlock: XUDNAN_clean_linker_2, # of connection points: 2
#     Edge 76, Type (0, 0), BuildingBlock: XUDNAN_clean_linker_2, # of connection points: 2
#     Edge 77, Type (0, 0), BuildingBlock: XUDNAN_clean_linker_2, # of connection points: 2
#     Edge 78, Type (0, 0), BuildingBlock: XUDNAN_clean_linker_2, # of connection points: 2
#     Edge 79, Type (0, 0), BuildingBlock: XUDNAN_clean_linker_2, # of connection points: 2
#     Edge 80, Type (0, 0), BuildingBlock: XUDNAN_clean_linker_2, # of connection points: 2
#     Edge 81, Type (0, 0), BuildingBlock: XUDNAN_clean_linker_2, # of connection points: 2
#     Edge 82, Type (0, 0), BuildingBlock: XUDNAN_clean_linker_2, # of connection points: 2
#     Edge 83, Type (0, 0), BuildingBlock: XUDNAN_clean_linker_2, # of connection points: 2
#     Edge 84, Type (0, 0), BuildingBlock: XUDNAN_clean_linker_2, # of connection points: 2
#     Edge 85, Type (0, 0), BuildingBlock: XUDNAN_clean_linker_2, # of connection points: 2
#     Edge 86, Type (0, 0), BuildingBlock: XUDNAN_clean_linker_2, # of connection points: 2
#     Edge 87, Type (0, 0), BuildingBlock: XUDNAN_clean_linker_2, # of connection points: 2
#     Edge 88, Type (0, 0), BuildingBlock: XUDNAN_clean_linker_2, # of connection points: 2
#     Edge 89, Type (0, 0), BuildingBlock: XUDNAN_clean_linker_2, # of connection points: 2
#     Edge 90, Type (0, 0), BuildingBlock: XUDNAN_clean_linker_2, # of connection points: 2
#     Edge 91, Type (0, 0), BuildingBlock: XUDNAN_clean_linker_2, # of connection points: 2
#     Edge 92, Type (0, 0), BuildingBlock: XUDNAN_clean_linker_2, # of connection points: 2
#     Edge 93, Type (0, 0), BuildingBlock: XUDNAN_clean_linker_2, # of connection points: 2
#     Edge 94, Type (0, 0), BuildingBlock: XUDNAN_clean_linker_2, # of connection points: 2
#     Edge 95, Type (0, 0), BuildingBlock: XUDNAN_clean_linker_2, # of connection points: 2
# Relax obj value: 0.272
# Max RMSD: 0.259
# Mean RMSD: 0.247
data_MOF--net-uka--node1-AZAVOO_clean_sbu_0--edge1-XUDNAN_clean_linker_2
_symmetry_space_group_name_H-M    P1
_symmetry_Int_Tables_number       1
_symmetry_cell_setting            triclinic
loop_
_symmetry_equiv_pos_as_xyz
'x, y, z'
_cell_length_a     59.690095
_cell_length_b     57.077486
_cell_length_c     41.75381
_cell_angle_alpha  90.015305
_cell_angle_beta   90.01051
_cell_angle_gamma 90.002885
loop_
_atom_site_label
_atom_site_type_symbol
_atom_site_fract_x
_atom_site_fract_y
_atom_site_fract_z
_atom_type_partial_charge
Mg0 Mg 0.13327 0.30051 0.23769 0.0
O1 O 0.11398 0.26859 0.25731 0.0
O2 O 0.08347 0.28274 0.28179 0.0
Mg3 Mg 0.08073 0.32181 0.27208 0.0
C4 C 0.09637 0.26576 0.27429 0.0
C5 C 0.17042 0.28612 0.19138 0.0
O6 O 0.16573 0.3076 0.18221 0.0
O7 O 0.11005 0.30273 0.19432 0.0
O8 O 0.07854 0.31508 0.2179 0.0
O9 O 0.14816 0.30398 0.28623 0.0
O10 O 0.11734 0.32231 0.27051 0.0
C11 C 0.08943 0.30869 0.19305 0.0
C12 C 0.13068 0.31634 0.29334 0.0
O13 O 0.1581 0.27665 0.21251 0.0
Mg14 Mg 0.04341 0.86501 0.54385 0.0
O15 O 0.01684 0.86766 0.58369 0.0
O16 O 0.03416 0.88076 0.62785 0.0
Mg17 Mg 0.07156 0.88392 0.6174 0.0
C18 C 0.01658 0.87419 0.61296 0.0
C19 C 0.02069 0.8478 0.48307 0.0
O20 O 0.04107 0.83924 0.48098 0.0
O21 O 0.04503 0.90499 0.53946 0.0
O22 O 0.06425 0.91447 0.58352 0.0
O23 O 0.04928 0.82815 0.55723 0.0
O24 O 0.06761 0.85797 0.57869 0.0
C25 C 0.05465 0.92016 0.55733 0.0
C26 C 0.06312 0.83583 0.57865 0.0
O27 O 0.01594 0.86123 0.5064 0.0
Mg28 Mg 0.36613 0.69467 0.77427 0.0
O29 O 0.38321 0.72959 0.78784 0.0
O30 O 0.41883 0.72035 0.79897 0.0
Mg31 Mg 0.42534 0.68175 0.78848 0.0
C32 C 0.40283 0.73517 0.7975 0.0
C33 C 0.32117 0.70114 0.7418 0.0
O34 O 0.32835 0.681 0.73049 0.0
O35 O 0.38118 0.69529 0.72373 0.0
O36 O 0.4165 0.68552 0.73535 0.0
O37 O 0.36052 0.68847 0.82665 0.0
O38 O 0.39004 0.67603 0.79962 0.0
C39 C 0.40114 0.69023 0.71505 0.0
C40 C 0.38015 0.67885 0.82671 0.0
O41 O 0.33433 0.71325 0.75904 0.0
Mg42 Mg 0.51139 0.13671 0.02932 0.0
O43 O 0.52257 0.13197 0.08131 0.0
O44 O 0.49387 0.13788 0.11473 0.0
Mg45 Mg 0.46324 0.14513 0.08303 0.0
C46 C 0.51446 0.13318 0.10953 0.0
C47 C 0.55983 0.1248 0.99423 0.0
O48 O 0.57757 0.11119 0.99311 0.0
O49 O 0.49392 0.10115 0.03067 0.0
O50 O 0.46463 0.10762 0.06293 0.0
O51 O 0.51758 0.17553 0.03325 0.0
O52 O 0.48548 0.15795 0.04466 0.0
C53 C 0.47613 0.09417 0.04481 0.0
C54 C 0.49734 0.17671 0.0443 0.0
O55 O 0.54449 0.11975 0.01426 0.0
Mg56 Mg 0.10489 0.7215 0.26826 0.0
O57 O 0.08328 0.75005 0.24386 0.0
O58 O 0.05316 0.73182 0.22373 0.0
Mg59 Mg 0.05383 0.69338 0.23852 0.0
C60 C 0.065 0.75018 0.22789 0.0
C61 C 0.14237 0.7408 0.30893 0.0
O62 O 0.13745 0.72087 0.32303 0.0
O63 O 0.08248 0.72081 0.31247 0.0
O64 O 0.05255 0.70231 0.29235 0.0
O65 O 0.12084 0.71325 0.22142 0.0
O66 O 0.09035 0.69575 0.23998 0.0
C67 C 0.06306 0.7117 0.31577 0.0
C68 C 0.10456 0.69865 0.21719 0.0
O69 O 0.12887 0.74863 0.28803 0.0
Mg70 Mg 0.48111 0.86007 0.45304 0.0
O71 O 0.5026 0.86938 0.40863 0.0
O72 O 0.47897 0.88537 0.37313 0.0
Mg73 Mg 0.44364 0.88668 0.39375 0.0
C74 C 0.49857 0.87857 0.38122 0.0
C75 C 0.50699 0.83776 0.5058 0.0
O76 O 0.48664 0.82895 0.50629 0.0
O77 O 0.47932 0.89847 0.46743 0.0
O78 O 0.45515 0.9132 0.43183 0.0
O79 O 0.47371 0.82496 0.43279 0.0
O80 O 0.45336 0.85663 0.42342 0.0
C81 C 0.46781 0.91548 0.4563 0.0
C82 C 0.45735 0.83484 0.4176 0.0
O83 O 0.51162 0.85308 0.48469 0.0
Mg84 Mg 0.38525 0.30166 0.75361 0.0
O85 O 0.39162 0.26347 0.73761 0.0
O86 O 0.4287 0.25816 0.73589 0.0
Mg87 Mg 0.44627 0.2928 0.74716 0.0
C88 C 0.40873 0.2506 0.73224 0.0
C89 C 0.33824 0.28403 0.73822 0.0
O90 O 0.35037 0.27787 0.71338 0.0
O91 O 0.39605 0.29454 0.80622 0.0
O92 O 0.43309 0.29395 0.79818 0.0
O93 O 0.3853 0.31237 0.70203 0.0
O94 O 0.41573 0.31085 0.73203 0.0
C95 C 0.41618 0.29413 0.81684 0.0
C96 C 0.40686 0.31344 0.70419 0.0
O97 O 0.34794 0.29382 0.76188 0.0
Mg98 Mg 0.03465 0.14243 0.94991 0.0
O99 O 0.01338 0.13242 0.90562 0.0
O100 O 0.03771 0.11867 0.86937 0.0
Mg101 Mg 0.07345 0.12045 0.88877 0.0
C102 C 0.01775 0.12374 0.87802 0.0
C103 C 0.00641 0.16483 -1e-05 0.0
O104 O 0.02591 0.17551 7e-05 0.0
O105 O 0.0387 0.10356 0.96253 0.0
O106 O 0.06439 0.09287 0.9264 0.0
O107 O 0.03935 0.17841 0.93069 0.0
O108 O 0.06184 0.14874 0.91974 0.0
C109 C 0.05201 0.08834 0.95056 0.0
C110 C 0.05605 0.17014 0.91455 0.0
O111 O 0.0037 0.14746 0.98126 0.0
Mg112 Mg 0.87361 0.79662 0.78738 0.0
O113 O 0.87306 0.77524 0.74134 0.0
O114 O 0.86515 0.79815 0.69928 0.0
Mg115 Mg 0.85522 0.83349 0.72081 0.0
C116 C 0.87034 0.77835 0.71137 0.0
C117 C 0.88761 0.76226 0.84181 0.0
O118 O 0.8952 0.78203 0.85372 0.0
O119 O 0.83605 0.79345 0.78859 0.0
O120 O 0.82564 0.81478 0.74626 0.0
O121 O 0.90838 0.80691 0.77629 0.0
O122 O 0.87858 0.82726 0.76084 0.0
C123 C 0.82097 0.80128 0.76979 0.0
C124 C 0.89992 0.82386 0.75963 0.0
O125 O 0.87738 0.76258 0.81514 0.0
Mg126 Mg 0.01476 0.13012 0.46916 0.0
O127 O 0.03874 0.13932 0.42848 0.0
O128 O 0.03189 0.11649 0.38611 0.0
Mg129 Mg 0.0031 0.09213 0.40022 0.0
C130 C 0.0426 0.1331 0.39965 0.0
C131 C 0.02877 0.16666 0.52163 0.0
O132 O 0.00696 0.1698 0.522 0.0
O133 O 0.03325 0.09612 0.4807 0.0
O134 O 0.02364 0.07374 0.43903 0.0
O135 O 0.99147 0.15629 0.44799 0.0
O136 O 0.99157 0.11867 0.43514 0.0
C137 C 0.03343 0.07651 0.46595 0.0
C138 C 0.9846 0.13961 0.42938 0.0
O139 O 0.03701 0.15119 0.50316 0.0
Mg140 Mg 0.63934 0.19309 0.31134 0.0
O141 O 0.63007 0.21448 0.26689 0.0
O142 O 0.63648 0.19345 0.22251 0.0
Mg143 Mg 0.65502 0.16072 0.23913 0.0
C144 C 0.62929 0.21183 0.23655 0.0
C145 C 0.64751 0.23357 0.36226 0.0
O146 O 0.66615 0.22203 0.36784 0.0
O147 O 0.67552 0.2032 0.30316 0.0
O148 O 0.68372 0.18446 0.25771 0.0
O149 O 0.60588 0.17635 0.3086 0.0
O150 O 0.6361 0.16243 0.28443 0.0
C151 C 0.68903 0.1984 0.28047 0.0
C152 C 0.61464 0.16199 0.28808 0.0
O153 O 0.63377 0.2258 0.34156 0.0
Mg154 Mg 0.46084 0.87545 0.00917 0.0
O155 O 0.44375 0.86384 0.96249 0.0
O156 O 0.46147 0.88026 0.92097 0.0
Mg157 Mg 0.49232 0.89914 0.94093 0.0
C158 C 0.44593 0.86748 0.93248 0.0
C159 C 0.43372 0.84919 0.05972 0.0
O160 O 0.4545 0.84303 0.06581 0.0
O161 O 0.44844 0.91336 0.00491 0.0
O162 O 0.47099 0.92658 0.96627 0.0
O163 O 0.48197 0.84313 0.00651 0.0
O164 O 0.49088 0.87707 0.98422 0.0
C165 C 0.45612 0.93006 0.98771 0.0
C166 C 0.49505 0.85514 0.98809 0.0
O167 O 0.43009 0.86391 0.03749 0.0
Mg168 Mg 0.86595 0.18056 0.71223 0.0
O169 O 0.87756 0.20504 0.75212 0.0
O170 O 0.8728 0.18754 0.79967 0.0
Mg171 Mg 0.85689 0.1518 0.79003 0.0
C172 C 0.87903 0.20492 0.78261 0.0
C173 C 0.8857 0.21276 0.65931 0.0
O174 O 0.90058 0.19584 0.66046 0.0
O175 O 0.83021 0.19008 0.72561 0.0
O176 O 0.82515 0.17108 0.77192 0.0
O177 O 0.89962 0.16415 0.70996 0.0
O178 O 0.8729 0.15207 0.74261 0.0
C179 C 0.81796 0.18429 0.74938 0.0
C180 C 0.89355 0.15103 0.73361 0.0
O181 O 0.86836 0.21133 0.67694 0.0
Mg182 Mg 0.46807 0.13257 0.49633 0.0
O183 O 0.4501 0.14216 0.54407 0.0
O184 O 0.47393 0.1329 0.58341 0.0
Mg185 Mg 0.50594 0.11758 0.56246 0.0
C186 C 0.4552 0.14113 0.57386 0.0
C187 C 0.43584 0.12976 0.43896 0.0
O188 O 0.45149 0.11472 0.43077 0.0
O189 O 0.46148 0.09334 0.50429 0.0
O190 O 0.48618 0.08626 0.54343 0.0
O191 O 0.48406 0.16806 0.49582 0.0
O192 O 0.49901 0.13659 0.51817 0.0
C193 C 0.47119 0.07932 0.52377 0.0
C194 C 0.49984 0.15872 0.51275 0.0
O195 O 0.43641 0.1386 0.46692 0.0
Mg196 Mg 0.64253 0.79213 0.23782 0.0
O197 O 0.62677 0.77819 0.28491 0.0
O198 O 0.63533 0.8045 0.32282 0.0
Mg199 Mg 0.6559 0.83406 0.30169 0.0
C200 C 0.62588 0.78553 0.3139 0.0
C201 C 0.63104 0.75886 0.18313 0.0
O202 O 0.62969 0.77985 0.17035 0.0
O203 O 0.67709 0.78088 0.25514 0.0
O204 O 0.68412 0.80729 0.29338 0.0
O205 O 0.61127 0.81166 0.22744 0.0
O206 O 0.63913 0.82618 0.25613 0.0
C207 C 0.68974 0.78939 0.27687 0.0
C208 C 0.61875 0.828 0.24606 0.0
O209 O 0.63681 0.75713 0.21236 0.0
Mg210 Mg 0.01087 0.87395 0.99598 0.0
O211 O 0.01954 0.86417 0.0478 0.0
O212 O 0.9963 0.88295 0.08102 0.0
Mg213 Mg 0.97218 0.90431 0.04979 0.0
C214 C 0.01252 0.86887 0.07597 0.0
C215 C 0.04449 0.85067 0.95087 0.0
O216 O 0.02744 0.85532 0.932 0.0
O217 O 0.02616 0.91025 0.00169 0.0
O218 O 0.0006 0.92826 0.03213 0.0
O219 O 0.98782 0.8438 0.99603 0.0
O220 O 0.97771 0.87989 0.00953 0.0
C221 C 0.01872 0.92851 0.01583 0.0
C222 C 0.9731 0.85785 0.00829 0.0
O223 O 0.04374 0.85762 0.97975 0.0
Mg224 Mg 0.61495 0.79834 0.76554 0.0
O225 O 0.60304 0.76128 0.78008 0.0
O226 O 0.56592 0.76308 0.78687 0.0
Mg227 Mg 0.55406 0.80011 0.77565 0.0
C228 C 0.58437 0.75179 0.78767 0.0
C229 C 0.65957 0.7727 0.77415 0.0
O230 O 0.64832 0.76627 0.79971 0.0
O231 O 0.60178 0.79462 0.71428 0.0
O232 O 0.56492 0.79707 0.72304 0.0
O233 O 0.61852 0.80613 0.81723 0.0
O234 O 0.58754 0.81256 0.78939 0.0
C235 C 0.58161 0.79522 0.70405 0.0
C236 C 0.59753 0.81175 0.81676 0.0
O237 O 0.64971 0.78491 0.75294 0.0
Mg238 Mg 0.54294 0.34447 0.04032 0.0
O239 O 0.52196 0.35549 0.0842 0.0
O240 O 0.54548 0.37089 0.1203 0.0
Mg241 Mg 0.58064 0.37128 0.0993 0.0
C242 C 0.52585 0.36468 0.11162 0.0
C243 C 0.49547 0.32512 0.01657 0.0
O244 O 0.49586 0.31374 0.04392 0.0
O245 O 0.54587 0.38262 0.02466 0.0
O246 O 0.56918 0.39757 0.06126 0.0
O247 O 0.54915 0.30971 0.06267 0.0
O248 O 0.57075 0.34069 0.0702 0.0
C249 C 0.55703 0.39971 0.0363 0.0
C250 C 0.56581 0.31935 0.07754 0.0
O251 O 0.51147 0.33902 0.00972 0.0
Mg252 Mg 0.88457 0.22833 0.20874 0.0
O253 O 0.9017 0.25855 0.23813 0.0
O254 O 0.9389 0.25211 0.23908 0.0
Mg255 Mg 0.94533 0.22762 0.19748 0.0
C256 C 0.92144 0.26295 0.24889 0.0
C257 C 0.84325 0.24819 0.24424 0.0
O258 O 0.85814 0.2483 0.26739 0.0
O259 O 0.88828 0.24427 0.15834 0.0
O260 O 0.92149 0.25299 0.17427 0.0
O261 O 0.88892 0.20691 0.2517 0.0
O262 O 0.91468 0.20835 0.21321 0.0
C263 C 0.90873 0.24745 0.15132 0.0
C264 C 0.90864 0.20141 0.24136 0.0
O265 O 0.84952 0.24307 0.216 0.0
Mg266 Mg 0.94955 0.62628 0.54325 0.0
O267 O 0.96866 0.6245 0.59168 0.0
O268 O 0.94302 0.61303 0.62749 0.0
Mg269 Mg 0.90902 0.60776 0.60397 0.0
C270 C 0.96301 0.61906 0.62033 0.0
C271 C 0.97631 0.64385 0.48972 0.0
O272 O 0.95499 0.64804 0.48428 0.0
O273 O 0.95027 0.58613 0.53982 0.0
O274 O 0.92394 0.57699 0.57577 0.0
O275 O 0.94023 0.66314 0.55288 0.0
O276 O 0.91959 0.63292 0.56756 0.0
C277 C 0.93824 0.571 0.55453 0.0
C278 C 0.92308 0.6552 0.56834 0.0
O279 O 0.98152 0.63196 0.51441 0.0
Mg280 Mg 0.61022 0.21574 0.74232 0.0
O281 O 0.59872 0.25328 0.72904 0.0
O282 O 0.56168 0.25091 0.72135 0.0
Mg283 Mg 0.54966 0.2136 0.72911 0.0
C284 C 0.57991 0.2626 0.72158 0.0
C285 C 0.65729 0.21285 0.77043 0.0
O286 O 0.64861 0.19236 0.7776 0.0
O287 O 0.59544 0.2177 0.7929 0.0
O288 O 0.55889 0.21434 0.78245 0.0
O289 O 0.61572 0.20936 0.69069 0.0
O290 O 0.58365 0.20237 0.71551 0.0
C291 C 0.57512 0.21596 0.80225 0.0
C292 C 0.59473 0.20384 0.68902 0.0
O293 O 0.64468 0.22833 0.758 0.0
Mg294 Mg 0.95663 0.35621 0.96024 0.0
O295 O 0.98087 0.36269 0.9184 0.0
O296 O 0.96086 0.37372 0.87563 0.0
Mg297 Mg 0.92421 0.37639 0.891 0.0
C298 C 0.97949 0.36874 0.88901 0.0
C299 C 0.98376 0.34109 0.01967 0.0
O300 O 0.96377 0.33292 0.02665 0.0
O301 O 0.95386 0.3957 0.96797 0.0
O302 O 0.93286 0.406 0.92595 0.0
O303 O 0.95117 0.31958 0.94389 0.0
O304 O 0.93071 0.34961 0.92774 0.0
C305 C 0.94329 0.41112 0.95173 0.0
C306 C 0.93563 0.32768 0.92532 0.0
O307 O 0.98638 0.35276 0.99402 0.0
Mg308 Mg 0.88851 0.79085 0.25183 0.0
O309 O 0.90633 0.75749 0.23244 0.0
O310 O 0.93949 0.77038 0.21428 0.0
Mg311 Mg 0.94381 0.80937 0.22299 0.0
C312 C 0.92523 0.75404 0.2187 0.0
C313 C 0.84676 0.7593 0.25832 0.0
O314 O 0.85102 0.75734 0.22756 0.0
O315 O 0.91016 0.79116 0.29685 0.0
O316 O 0.9429 0.80387 0.27749 0.0
O317 O 0.87453 0.79803 0.2032 0.0
O318 O 0.90727 0.8111 0.22049 0.0
C319 C 0.93052 0.79739 0.30081 0.0
C320 C 0.89326 0.80854 0.1973 0.0
O321 O 0.86078 0.76999 0.27598 0.0
Mg322 Mg 0.51394 0.64795 0.4724 0.0
O323 O 0.48942 0.6457 0.43017 0.0
O324 O 0.50924 0.64225 0.38488 0.0
Mg325 Mg 0.5464 0.6409 0.39827 0.0
C326 C 0.4906 0.64381 0.39974 0.0
C327 C 0.46824 0.658 0.5054 0.0
O328 O 0.46614 0.67068 0.47933 0.0
O329 O 0.51932 0.60847 0.46895 0.0
O330 O 0.54066 0.60615 0.425 0.0
O331 O 0.5174 0.68653 0.46705 0.0
O332 O 0.53855 0.66071 0.4417 0.0
C333 C 0.53088 0.59661 0.44893 0.0
C334 C 0.53305 0.68223 0.44645 0.0
O335 O 0.48547 0.64507 0.5087 0.0
Mg336 Mg 0.37512 0.28177 0.23716 0.0
O337 O 0.39425 0.27007 0.19163 0.0
O338 O 0.38786 0.29738 0.15425 0.0
Mg339 Mg 0.36618 0.32639 0.17537 0.0
C340 C 0.39704 0.27832 0.16338 0.0
C341 C 0.37659 0.24438 0.2901 0.0
O342 O 0.37207 0.26367 0.30602 0.0
O343 O 0.34177 0.27188 0.21444 0.0
O344 O 0.33647 0.30094 0.17955 0.0
O345 O 0.40558 0.30033 0.25358 0.0
O346 O 0.37989 0.31651 0.22247 0.0
C347 C 0.32984 0.28225 0.19344 0.0
C348 C 0.39956 0.31752 0.23529 0.0
O349 O 0.37855 0.24549 0.25981 0.0
Mg350 Mg 0.52574 0.61412 0.0069 0.0
O351 O 0.54234 0.62842 0.96059 0.0
O352 O 0.52218 0.61518 0.91909 0.0
Mg353 Mg 0.49427 0.59153 0.93759 0.0
C354 C 0.53831 0.62724 0.93052 0.0
C355 C 0.56028 0.64839 0.03533 0.0
O356 O 0.54992 0.66125 0.01384 0.0
O357 O 0.5412 0.57771 0.99817 0.0
O358 O 0.52024 0.56603 0.95675 0.0
O359 O 0.50205 0.64482 0.00765 0.0
O360 O 0.49545 0.61154 0.98235 0.0
C361 C 0.53574 0.5624 0.97719 0.0
C362 C 0.4896 0.63279 0.98837 0.0
O363 O 0.55512 0.62683 0.03768 0.0
Mg364 Mg 0.11136 0.6825 0.79503 0.0
O365 O 0.1023 0.70725 0.75437 0.0
O366 O 0.10637 0.68933 0.70705 0.0
Mg367 Mg 0.11947 0.65258 0.71808 0.0
C368 C 0.10129 0.70724 0.72387 0.0
C369 C 0.12127 0.71848 0.85347 0.0
O370 O 0.13615 0.70333 0.86386 0.0
O371 O 0.14766 0.68922 0.78282 0.0
O372 O 0.15206 0.67005 0.73653 0.0
O373 O 0.0766 0.66921 0.79666 0.0
O374 O 0.10288 0.65439 0.76517 0.0
C375 C 0.15975 0.68278 0.75923 0.0
C376 C 0.08206 0.65534 0.77343 0.0
O377 O 0.11018 0.71406 0.82822 0.0
Mg378 Mg 0.99813 0.35731 0.50277 0.0
O379 O 0.97946 0.34925 0.45573 0.0
O380 O 0.99557 0.37043 0.41693 0.0
Mg381 Mg 0.02289 0.39325 0.43923 0.0
C382 C 0.98115 0.35544 0.42642 0.0
C383 C 0.95094 0.342 0.53521 0.0
O384 O 0.94251 0.36126 0.5229 0.0
O385 O 0.98001 0.39246 0.50719 0.0
O386 O 0.99738 0.41353 0.46957 0.0
O387 O 0.02313 0.32945 0.49178 0.0
O388 O 0.02687 0.36631 0.47661 0.0
C389 C 0.9832 0.41175 0.49234 0.0
C390 C 0.03413 0.34503 0.4757 0.0
O391 O 0.97154 0.33724 0.53102 0.0
Mg392 Mg 0.34139 0.70088 0.23177 0.0
O393 O 0.35991 0.72396 0.2675 0.0
O394 O 0.35788 0.70877 0.31675 0.0
Mg395 Mg 0.33432 0.6774 0.31295 0.0
C396 C 0.36491 0.72427 0.29717 0.0
C397 C 0.33523 0.74441 0.18159 0.0
O398 O 0.31359 0.74408 0.18728 0.0
O399 O 0.3086 0.71732 0.24851 0.0
O400 O 0.3058 0.70205 0.29763 0.0
O401 O 0.37215 0.67936 0.22805 0.0
O402 O 0.34517 0.67235 0.26306 0.0
C403 C 0.29834 0.71512 0.27519 0.0
C404 C 0.36538 0.66853 0.2535 0.0
O405 O 0.34797 0.72951 0.19499 0.0
Mg406 Mg 0.9968 0.62194 0.00615 0.0
O407 O 0.98135 0.63331 0.05395 0.0
O408 O 0.99672 0.61249 0.09364 0.0
Mg409 Mg 0.02324 0.58867 0.07086 0.0
C410 C 0.98315 0.62812 0.08358 0.0
C411 C 0.95716 0.63246 0.95716 0.0
O412 O 0.96033 0.61062 0.94833 0.0
O413 O 0.97773 0.58751 0.00714 0.0
O414 O 0.99621 0.5673 0.04462 0.0
O415 O 0.02213 0.64956 0.01294 0.0
O416 O 0.02622 0.61299 0.02994 0.0
C417 C 0.98106 0.56875 0.02308 0.0
C418 C 0.03325 0.63434 0.02959 0.0
O419 O 0.96888 0.64097 0.97975 0.0
Mg420 Mg 0.1255 0.31877 0.70399 0.0
O421 O 0.1171 0.29219 0.74322 0.0
O422 O 0.12527 0.30777 0.79103 0.0
Mg423 Mg 0.14143 0.34333 0.78204 0.0
C424 C 0.11766 0.29113 0.77374 0.0
C425 C 0.09967 0.28173 0.66482 0.0
O426 O 0.08432 0.2898 0.68448 0.0
O427 O 0.16239 0.30897 0.70941 0.0
O428 O 0.17091 0.32491 0.75676 0.0
O429 O 0.09186 0.33467 0.71014 0.0
O430 O 0.12152 0.34591 0.73774 0.0
C431 C 0.17641 0.31334 0.73176 0.0
C432 C 0.10008 0.34655 0.73376 0.0
O433 O 0.11944 0.29005 0.66645 0.0
Mg434 Mg 0.52142 0.373 0.48614 0.0
O435 O 0.53747 0.3696 0.5364 0.0
O436 O 0.51275 0.38366 0.57185 0.0
Mg437 Mg 0.48303 0.39884 0.54469 0.0
C438 C 0.53137 0.37379 0.56521 0.0
C439 C 0.57376 0.36239 0.47263 0.0
O440 O 0.57773 0.37192 0.5007 0.0
O441 O 0.5297 0.4117 0.48437 0.0
O442 O 0.50519 0.42636 0.5195 0.0
O443 O 0.50568 0.33874 0.49461 0.0
O444 O 0.4898 0.37256 0.50752 0.0
C445 C 0.52092 0.42904 0.49904 0.0
C446 C 0.49026 0.35002 0.51 0.0
O447 O 0.55391 0.3622 0.46162 0.0
H448 H 0.04734 0.18001 0.406 0.0
H449 H 0.06757 0.12139 0.34662 0.0
H450 H 0.08582 0.14896 0.3088 0.0
H451 H 0.0313 0.21539 0.34228 0.0
H452 H 0.03989 0.24252 0.36063 0.0
H453 H 0.03172 0.21813 0.38528 0.0
H454 H 0.06995 0.21977 0.41489 0.0
H455 H 0.07812 0.24438 0.39054 0.0
H456 H 0.09556 0.21862 0.39205 0.0
H457 H 0.10028 0.18377 0.27623 0.0
H458 H 0.10799 0.2223 0.25096 0.0
H459 H 0.07483 0.25708 0.33026 0.0
C460 C 0.05629 0.17287 0.38564 0.0
C461 C 0.05658 0.14856 0.37959 0.0
C462 C 0.06754 0.13997 0.3519 0.0
C463 C 0.07789 0.15549 0.33033 0.0
C464 C 0.07674 0.17948 0.33661 0.0
C465 C 0.06611 0.18807 0.3636 0.0
C466 C 0.06498 0.21452 0.36339 0.0
C467 C 0.04053 0.22313 0.36285 0.0
C468 C 0.07793 0.22493 0.3919 0.0
C469 C 0.07665 0.21956 0.33206 0.0
C470 C 0.08361 0.19924 0.31707 0.0
C471 C 0.09487 0.19977 0.28778 0.0
C472 C 0.09914 0.22167 0.27359 0.0
C473 C 0.09172 0.24258 0.28845 0.0
C474 C 0.08037 0.24136 0.31803 0.0
H475 H 0.05965 0.78815 0.5804 0.0
H476 H 0.08547 0.84746 0.63408 0.0
H477 H 0.09627 0.82107 0.67799 0.0
H478 H 0.03787 0.75553 0.64662 0.0
H479 H 0.04646 0.72746 0.63109 0.0
H480 H 0.04005 0.75108 0.60398 0.0
H481 H 0.07929 0.74711 0.57795 0.0
H482 H 0.08572 0.72333 0.60475 0.0
H483 H 0.10393 0.74849 0.60287 0.0
H484 H 0.10264 0.78859 0.71704 0.0
H485 H 0.10889 0.75141 0.74583 0.0
H486 H 0.08164 0.71286 0.66508 0.0
C487 C 0.06759 0.79563 0.60138 0.0
C488 C 0.07129 0.82001 0.60403 0.0
C489 C 0.08206 0.82899 0.63163 0.0
C490 C 0.08828 0.81411 0.65676 0.0
C491 C 0.08396 0.79025 0.65362 0.0
C492 C 0.07424 0.78099 0.6264 0.0
C493 C 0.07236 0.75458 0.62847 0.0
C494 C 0.04772 0.74671 0.62749 0.0
C495 C 0.08615 0.74268 0.60194 0.0
C496 C 0.08254 0.75048 0.66115 0.0
C497 C 0.08878 0.77133 0.67544 0.0
C498 C 0.09801 0.77212 0.70603 0.0
C499 C 0.10136 0.75095 0.72223 0.0
C500 C 0.09583 0.72934 0.70753 0.0
C501 C 0.08618 0.72915 0.6767 0.0
H502 H 0.45138 0.82106 0.92961 0.0
H503 H 0.4164 0.87851 0.88406 0.0
H504 H 0.40063 0.85082 0.84379 0.0
H505 H 0.46771 0.79364 0.85675 0.0
H506 H 0.46561 0.76443 0.87283 0.0
H507 H 0.47203 0.78863 0.89894 0.0
H508 H 0.43794 0.77761 0.9347 0.0
H509 H 0.43153 0.75349 0.90845 0.0
H510 H 0.41052 0.77533 0.91685 0.0
H511 H 0.38836 0.81555 0.80914 0.0
H512 H 0.38314 0.77734 0.78151 0.0
H513 H 0.42997 0.74515 0.84758 0.0
C514 C 0.43993 0.82765 0.91158 0.0
C515 C 0.43438 0.8516 0.91031 0.0
C516 C 0.42028 0.86001 0.88566 0.0
C517 C 0.41138 0.84445 0.86275 0.0
C518 C 0.41735 0.8208 0.86452 0.0
C519 C 0.43154 0.81259 0.88819 0.0
C520 C 0.43687 0.78693 0.8838 0.0
C521 C 0.46205 0.7832 0.87773 0.0
C522 C 0.42872 0.77249 0.91266 0.0
C523 C 0.42325 0.78175 0.85417 0.0
C524 C 0.41186 0.80133 0.84346 0.0
C525 C 0.39744 0.80022 0.81714 0.0
C526 C 0.39458 0.77851 0.80158 0.0
C527 C 0.4065 0.75847 0.81202 0.0
C528 C 0.42107 0.76031 0.83851 0.0
H529 H 0.42333 0.2395 0.17458 0.0
H530 H 0.40662 0.29074 0.10146 0.0
H531 H 0.43501 0.27363 0.06573 0.0
H532 H 0.48335 0.23591 0.15777 0.0
H533 H 0.48444 0.20471 0.16423 0.0
H534 H 0.46425 0.22228 0.18553 0.0
H535 H 0.43194 0.1963 0.16383 0.0
H536 H 0.4521 0.17851 0.14302 0.0
H537 H 0.42935 0.19181 0.12124 0.0
H538 H 0.46435 0.25005 0.03685 0.0
H539 H 0.48825 0.21825 0.01497 0.0
H540 H 0.4848 0.18212 0.10596 0.0
C541 C 0.42566 0.24719 0.15111 0.0
C542 C 0.4129 0.26672 0.14112 0.0
C543 C 0.41635 0.276 0.10997 0.0
C544 C 0.43256 0.26649 0.08948 0.0
C545 C 0.44512 0.24756 0.10031 0.0
C546 C 0.44163 0.23779 0.13022 0.0
C547 C 0.45603 0.21627 0.13505 0.0
C548 C 0.47303 0.22003 0.16226 0.0
C549 C 0.44149 0.19444 0.14112 0.0
C550 C 0.46763 0.2151 0.10288 0.0
C551 C 0.46156 0.23361 0.0834 0.0
C552 C 0.4694 0.23559 0.05199 0.0
C553 C 0.48306 0.21763 0.03982 0.0
C554 C 0.48835 0.19802 0.05899 0.0
C555 C 0.48107 0.1971 0.09104 0.0
H556 H 0.05482 0.75398 0.16496 0.0
H557 H 0.06034 0.79452 0.25235 0.0
H558 H 0.04764 0.83005 0.22306 0.0
H559 H 0.07645 0.80012 0.11278 0.0
H560 H 0.05855 0.7915 0.08005 0.0
H561 H 0.06785 0.77007 0.10871 0.0
H562 H 0.02615 0.75894 0.11904 0.0
H563 H 0.01686 0.78111 0.09138 0.0
H564 H 0.00685 0.78128 0.13208 0.0
H565 H 0.03162 0.86036 0.1841 0.0
H566 H 0.01782 0.88373 0.13804 0.0
H567 H 0.02726 0.82381 0.07567 0.0
C568 C 0.05331 0.77037 0.17788 0.0
C569 C 0.05823 0.77164 0.21088 0.0
C570 C 0.05653 0.79334 0.22703 0.0
C571 C 0.0493 0.8135 0.21062 0.0
C572 C 0.04446 0.81165 0.17798 0.0
C573 C 0.04683 0.7907 0.16171 0.0
C574 C 0.04154 0.79343 0.12647 0.0
C575 C 0.06233 0.78849 0.10578 0.0
C576 C 0.02168 0.77777 0.11668 0.0
C577 C 0.03541 0.81911 0.12543 0.0
C578 C 0.0369 0.82932 0.15538 0.0
C579 C 0.03079 0.85262 0.16046 0.0
C580 C 0.02301 0.86576 0.13423 0.0
C581 C 0.02196 0.8557 0.10327 0.0
C582 C 0.02849 0.83215 0.09891 0.0
H583 H 0.39259 0.72376 0.34945 0.0
H584 H 0.36928 0.76801 0.27173 0.0
H585 H 0.39186 0.80081 0.29279 0.0
H586 H 0.39244 0.7666 0.41031 0.0
H587 H 0.41779 0.75651 0.42929 0.0
H588 H 0.40051 0.73624 0.40738 0.0
H589 H 0.43447 0.72471 0.37218 0.0
H590 H 0.45194 0.745 0.39385 0.0
H591 H 0.44965 0.74713 0.3509 0.0
H592 H 0.41432 0.82951 0.3246 0.0
H593 H 0.43741 0.85162 0.36319 0.0
H594 H 0.44774 0.78826 0.41857 0.0
C595 C 0.3923 0.74035 0.33686 0.0
C596 C 0.37908 0.74348 0.30916 0.0
C597 C 0.37933 0.76529 0.29301 0.0
C598 C 0.39207 0.78401 0.30478 0.0
C599 C 0.40474 0.78044 0.33234 0.0
C600 C 0.40521 0.75909 0.34794 0.0
C601 C 0.42022 0.75992 0.37713 0.0
C602 C 0.40694 0.7545 0.40784 0.0
C603 C 0.44026 0.74321 0.37327 0.0
C604 C 0.42756 0.78529 0.37603 0.0
C605 C 0.41843 0.7968 0.35001 0.0
C606 C 0.42176 0.82066 0.3449 0.0
C607 C 0.43473 0.83312 0.36708 0.0
C608 C 0.44426 0.82164 0.39382 0.0
C609 C 0.44084 0.79738 0.39807 0.0
H610 H 0.437 0.21305 0.73178 0.0
H611 H 0.37509 0.2389 0.69078 0.0
H612 H 0.37684 0.20825 0.64921 0.0
H613 H 0.46434 0.20532 0.66492 0.0
H614 H 0.47891 0.17852 0.67452 0.0
H615 H 0.47005 0.19772 0.70601 0.0
H616 H 0.44752 0.16442 0.73275 0.0
H617 H 0.4569 0.14461 0.70188 0.0
H618 H 0.42737 0.14808 0.7096 0.0
H619 H 0.39048 0.18179 0.60487 0.0
H620 H 0.41258 0.15901 0.56558 0.0
H621 H 0.46439 0.14881 0.63714 0.0
C622 C 0.42325 0.2115 0.71501 0.0
C623 C 0.40588 0.22827 0.71464 0.0
C624 C 0.38838 0.22602 0.6919 0.0
C625 C 0.3893 0.2087 0.66803 0.0
C626 C 0.40747 0.19334 0.6678 0.0
C627 C 0.42375 0.19409 0.69138 0.0
C628 C 0.4428 0.17747 0.68393 0.0
C629 C 0.46534 0.19055 0.68221 0.0
C630 C 0.44369 0.15745 0.7085 0.0
C631 C 0.43556 0.16858 0.65137 0.0
C632 C 0.41499 0.1776 0.64259 0.0
C633 C 0.40626 0.17402 0.61192 0.0
C634 C 0.41898 0.16113 0.58967 0.0
C635 C 0.44023 0.15197 0.59818 0.0
C636 C 0.44816 0.1553 0.6298 0.0
H637 H 0.09937 0.28781 0.83347 0.0
H638 H 0.11669 0.24662 0.74967 0.0
H639 H 0.10334 0.2108 0.77699 0.0
H640 H 0.11449 0.24579 0.89313 0.0
H641 H 0.09114 0.25248 0.91892 0.0
H642 H 0.10243 0.27475 0.89298 0.0
H643 H 0.06317 0.28114 0.86789 0.0
H644 H 0.05173 0.25896 0.89384 0.0
H645 H 0.04834 0.25652 0.85107 0.0
H646 H 0.08942 0.17943 0.81427 0.0
H647 H 0.07277 0.15517 0.85697 0.0
H648 H 0.0627 0.21724 0.91512 0.0
C649 C 0.10045 0.27123 0.82095 0.0
C650 C 0.10925 0.26986 0.78964 0.0
C651 C 0.11001 0.24797 0.77372 0.0
C652 C 0.10255 0.22756 0.78905 0.0
C653 C 0.09408 0.2295 0.82004 0.0
C654 C 0.0927 0.25081 0.83563 0.0
C655 C 0.08215 0.24826 0.86838 0.0
C656 C 0.09853 0.25576 0.89491 0.0
C657 C 0.06003 0.26204 0.8704 0.0
C658 C 0.07807 0.22212 0.86895 0.0
C659 C 0.08525 0.21159 0.84097 0.0
C660 C 0.0837 0.18748 0.83627 0.0
C661 C 0.07442 0.1738 0.86078 0.0
C662 C 0.06667 0.18433 0.88938 0.0
C663 C 0.06846 0.20879 0.89339 0.0
H664 H 0.99133 0.83527 0.62229 0.0
H665 H 0.99607 0.90885 0.64663 0.0
H666 H 0.96344 0.9048 0.68292 0.0
H667 H 0.92947 0.82916 0.62901 0.0
H668 H 0.93126 0.80081 0.64771 0.0
H669 H 0.95237 0.80979 0.61938 0.0
H670 H 0.98356 0.80244 0.6611 0.0
H671 H 0.96284 0.79289 0.68949 0.0
H672 H 0.98182 0.81628 0.69984 0.0
H673 H 0.93167 0.89212 0.71872 0.0
H674 H 0.90589 0.87102 0.7554 0.0
H675 H 0.925 0.80506 0.71198 0.0
C676 C 0.98495 0.85062 0.63452 0.0
C677 C 0.99564 0.8725 0.63125 0.0
C678 C 0.98768 0.89208 0.64857 0.0
C679 C 0.96919 0.88992 0.6691 0.0
C680 C 0.9592 0.86797 0.67239 0.0
C681 C 0.96692 0.84859 0.65577 0.0
C682 C 0.95512 0.82646 0.66649 0.0
C683 C 0.94124 0.81594 0.639 0.0
C684 C 0.97184 0.80847 0.68004 0.0
C685 C 0.94011 0.83627 0.69244 0.0
C686 C 0.94218 0.86034 0.6948 0.0
C687 C 0.92991 0.87328 0.71709 0.0
C688 C 0.91538 0.86124 0.73777 0.0
C689 C 0.91386 0.83657 0.73652 0.0
C690 C 0.92619 0.82398 0.71346 0.0
H691 H 0.97528 0.18279 0.40333 0.0
H692 H 0.96637 0.10816 0.38751 0.0
H693 H 0.95037 0.11621 0.33436 0.0
H694 H 0.923 0.19952 0.36763 0.0
H695 H 0.93389 0.22625 0.35069 0.0
H696 H 0.9461 0.21443 0.38662 0.0
H697 H 0.98503 0.21443 0.3591 0.0
H698 H 0.97278 0.22582 0.32286 0.0
H699 H 0.98871 0.199 0.32181 0.0
H700 H 0.93541 0.13194 0.28316 0.0
H701 H 0.91668 0.15492 0.24055 0.0
H702 H 0.93273 0.21917 0.29075 0.0
C703 C 0.96991 0.16815 0.38873 0.0
C704 C 0.97262 0.1448 0.39926 0.0
C705 C 0.96509 0.12616 0.37961 0.0
C706 C 0.95597 0.13054 0.34934 0.0
C707 C 0.95418 0.15368 0.33926 0.0
C708 C 0.96046 0.17223 0.35857 0.0
C709 C 0.95518 0.19549 0.34282 0.0
C710 C 0.93855 0.20975 0.36315 0.0
C711 C 0.97671 0.2095 0.33626 0.0
C712 C 0.94459 0.18704 0.31194 0.0
C713 C 0.94468 0.16285 0.31007 0.0
C714 C 0.93533 0.15089 0.2842 0.0
C715 C 0.92491 0.16399 0.26008 0.0
C716 C 0.92381 0.18862 0.26239 0.0
C717 C 0.93397 0.20033 0.2883 0.0
H718 H 0.512 0.15435 0.16824 0.0
H719 H 0.5522 0.10633 0.11186 0.0
H720 H 0.57998 0.10424 0.15563 0.0
H721 H 0.55745 0.18694 0.19676 0.0
H722 H 0.54536 0.19262 0.2355 0.0
H723 H 0.52742 0.18748 0.20161 0.0
H724 H 0.50813 0.15364 0.23301 0.0
H725 H 0.52651 0.15858 0.2666 0.0
H726 H 0.52492 0.12995 0.24851 0.0
H727 H 0.60511 0.11046 0.20266 0.0
H728 H 0.62673 0.12612 0.2483 0.0
H729 H 0.57069 0.17085 0.27369 0.0
C730 C 0.52632 0.14286 0.16556 0.0
C731 C 0.52983 0.13021 0.13693 0.0
C732 C 0.54917 0.11603 0.13374 0.0
C733 C 0.56496 0.11465 0.15851 0.0
C734 C 0.56124 0.12767 0.18624 0.0
C735 C 0.54244 0.14159 0.18987 0.0
C736 C 0.54367 0.15583 0.22044 0.0
C737 C 0.54346 0.18228 0.21312 0.0
C738 C 0.52468 0.14909 0.24351 0.0
C739 C 0.56626 0.14806 0.23314 0.0
C740 C 0.57598 0.13159 0.21325 0.0
C741 C 0.59755 0.12311 0.21865 0.0
C742 C 0.60973 0.13215 0.24458 0.0
C743 C 0.60037 0.1496 0.26462 0.0
C744 C 0.57814 0.15716 0.25922 0.0
H745 H 0.49652 0.85575 0.92368 0.0
H746 H 0.53082 0.82858 0.00707 0.0
H747 H 0.56081 0.81262 0.97189 0.0
H748 H 0.51029 0.80664 0.87018 0.0
H749 H 0.51265 0.82575 0.83601 0.0
H750 H 0.49368 0.83298 0.86811 0.0
H751 H 0.51321 0.87343 0.87399 0.0
H752 H 0.53245 0.86607 0.8424 0.0
H753 H 0.54298 0.87458 0.88116 0.0
H754 H 0.58861 0.80357 0.92735 0.0
H755 H 0.61034 0.79894 0.87728 0.0
H756 H 0.55621 0.83128 0.82381 0.0
C757 C 0.51025 0.84633 0.93449 0.0
C758 C 0.5117 0.84355 0.96785 0.0
C759 C 0.52963 0.83078 0.98136 0.0
C760 C 0.54664 0.82175 0.96162 0.0
C761 C 0.54498 0.82535 0.92862 0.0
C762 C 0.52698 0.83698 0.91519 0.0
C763 C 0.5291 0.83899 0.87929 0.0
C764 C 0.51031 0.82527 0.8624 0.0
C765 C 0.52946 0.8648 0.8686 0.0
C766 C 0.55157 0.82741 0.87453 0.0
C767 C 0.56049 0.81957 0.90317 0.0
C768 C 0.58165 0.80934 0.90475 0.0
C769 C 0.5939 0.80694 0.87627 0.0
C770 C 0.58486 0.81468 0.84673 0.0
C771 C 0.56342 0.82496 0.84598 0.0
H772 H 0.89914 0.15031 0.79875 0.0
H773 H 0.92784 0.12547 0.70974 0.0
H774 H 0.96072 0.11046 0.73922 0.0
H775 H 0.94746 0.17324 0.82799 0.0
H776 H 0.94332 0.166 0.8696 0.0
H777 H 0.91953 0.16972 0.84374 0.0
H778 H 0.9049 0.12855 0.85767 0.0
H779 H 0.92829 0.12454 0.88445 0.0
H780 H 0.92306 0.10354 0.85306 0.0
H781 H 0.99215 0.10289 0.7764 0.0
H782 H 0.02102 0.10446 0.81827 0.0
H783 H 0.97318 0.13637 0.88349 0.0
C784 C 0.91189 0.14082 0.78574 0.0
C785 C 0.91077 0.13846 0.75212 0.0
C786 C 0.92829 0.127 0.73559 0.0
C787 C 0.94697 0.11841 0.75215 0.0
C788 C 0.94797 0.12167 0.7852 0.0
C789 C 0.93091 0.13259 0.8019 0.0
C790 C 0.93754 0.13672 0.83655 0.0
C791 C 0.93696 0.16299 0.84493 0.0
C792 C 0.92256 0.12248 0.85928 0.0
C793 C 0.96129 0.12731 0.83632 0.0
C794 C 0.96672 0.11821 0.80664 0.0
C795 C 0.98802 0.10967 0.79988 0.0
C796 C 0.00436 0.11074 0.82388 0.0
C797 C 0.99946 0.12056 0.8543 0.0
C798 C 0.97746 0.12857 0.86066 0.0
H799 H 0.55032 0.19546 0.67736 0.0
H800 H 0.61403 0.20624 0.62956 0.0
H801 H 0.59541 0.20124 0.57714 0.0
H802 H 0.53103 0.15159 0.62839 0.0
H803 H 0.5022 0.16074 0.62847 0.0
H804 H 0.51991 0.16769 0.66197 0.0
H805 H 0.51063 0.21169 0.65542 0.0
H806 H 0.49291 0.20535 0.62147 0.0
H807 H 0.51561 0.22594 0.61757 0.0
H808 H 0.57042 0.19023 0.53051 0.0
H809 H 0.54121 0.17386 0.49449 0.0
H810 H 0.49395 0.17367 0.573 0.0
C811 C 0.56034 0.19734 0.65599 0.0
C812 C 0.58359 0.20142 0.65763 0.0
C813 C 0.59613 0.20317 0.6289 0.0
C814 C 0.5857 0.20052 0.599 0.0
C815 C 0.56268 0.19652 0.59829 0.0
C816 C 0.55017 0.19513 0.62608 0.0
C817 C 0.52604 0.1891 0.61918 0.0
C818 C 0.51942 0.16592 0.63548 0.0
C819 C 0.51038 0.20922 0.62902 0.0
C820 C 0.527 0.18655 0.58325 0.0
C821 C 0.54822 0.19104 0.57146 0.0
C822 C 0.5536 0.18729 0.53932 0.0
C823 C 0.53699 0.17813 0.51903 0.0
C824 C 0.51543 0.17311 0.53112 0.0
C825 C 0.51024 0.17794 0.56325 0.0
H826 H 0.61583 0.84281 0.30825 0.0
H827 H 0.58449 0.84964 0.21522 0.0
H828 H 0.55279 0.87072 0.24004 0.0
H829 H 0.56958 0.82595 0.34612 0.0
H830 H 0.57433 0.84045 0.38392 0.0
H831 H 0.59767 0.83288 0.35891 0.0
H832 H 0.61146 0.8755 0.35808 0.0
H833 H 0.58851 0.88364 0.38387 0.0
H834 H 0.59255 0.89855 0.34626 0.0
H835 H 0.52219 0.88489 0.2752 0.0
H836 H 0.49394 0.88888 0.31762 0.0
H837 H 0.54368 0.86955 0.38882 0.0
C838 C 0.60285 0.84968 0.29294 0.0
C839 C 0.60282 0.84505 0.25973 0.0
C840 C 0.58497 0.85341 0.24064 0.0
C841 C 0.56694 0.86544 0.25454 0.0
C842 C 0.56694 0.86875 0.28764 0.0
C843 C 0.58446 0.86114 0.30664 0.0
C844 C 0.57865 0.86312 0.34191 0.0
C845 C 0.58009 0.83916 0.35868 0.0
C846 C 0.59369 0.88129 0.35851 0.0
C847 C 0.5547 0.87172 0.33974 0.0
C848 C 0.54858 0.87564 0.30826 0.0
C849 C 0.5269 0.88224 0.29997 0.0
C850 C 0.51093 0.8844 0.32434 0.0
C851 C 0.51653 0.87949 0.35669 0.0
C852 C 0.53888 0.87356 0.36442 0.0
H853 H 0.93213 0.79841 0.16672 0.0
H854 H 0.8681 0.83289 0.1542 0.0
H855 H 0.87991 0.84613 0.10012 0.0
H856 H 0.96574 0.8404 0.13059 0.0
H857 H 0.98427 0.81952 0.11207 0.0
H858 H 0.96981 0.81186 0.14823 0.0
H859 H 0.95382 0.77535 0.11945 0.0
H860 H 0.96794 0.78337 0.083 0.0
H861 H 0.93805 0.77877 0.08292 0.0
H862 H 0.90144 0.8607 0.05186 0.0
H863 H 0.92955 0.87226 0.01101 0.0
H864 H 0.9775 0.82442 0.05317 0.0
C865 C 0.92055 0.80858 0.15251 0.0
C866 C 0.8994 0.815 0.1645 0.0
C867 C 0.88444 0.82794 0.14516 0.0
C868 C 0.89098 0.83545 0.11453 0.0
C869 C 0.91222 0.82915 0.10354 0.0
C870 C 0.92658 0.8156 0.12175 0.0
C871 C 0.94874 0.81178 0.1051 0.0
C872 C 0.96826 0.8215 0.12523 0.0
C873 C 0.95232 0.78576 0.09712 0.0
C874 C 0.94499 0.82605 0.07515 0.0
C875 C 0.92386 0.83603 0.07463 0.0
C876 C 0.91771 0.85236 0.05137 0.0
C877 C 0.93368 0.85881 0.02833 0.0
C878 C 0.9552 0.84851 0.0285 0.0
C879 C 0.96074 0.83166 0.05177 0.0
H880 H 0.52259 0.64864 0.87713 0.0
H881 H 0.5826 0.64032 0.93445 0.0
H882 H 0.60297 0.66709 0.89777 0.0
H883 H 0.549 0.65534 0.79798 0.0
H884 H 0.52946 0.67775 0.78592 0.0
H885 H 0.52082 0.65521 0.81352 0.0
H886 H 0.50881 0.68679 0.85464 0.0
H887 H 0.51712 0.70936 0.82711 0.0
H888 H 0.52873 0.70875 0.86697 0.0
H889 H 0.61588 0.6967 0.85643 0.0
H890 H 0.61882 0.73054 0.81984 0.0
H891 H 0.5493 0.72116 0.7924 0.0
C892 C 0.54019 0.65195 0.88148 0.0
C893 C 0.55121 0.64206 0.90815 0.0
C894 C 0.57398 0.64755 0.91387 0.0
C895 C 0.58567 0.66259 0.89307 0.0
C896 C 0.57422 0.67218 0.867 0.0
C897 C 0.55187 0.66728 0.86148 0.0
C898 C 0.54249 0.68208 0.83456 0.0
C899 C 0.53501 0.66667 0.80632 0.0
C900 C 0.52316 0.69767 0.84655 0.0
C901 C 0.56294 0.69643 0.82604 0.0
C902 C 0.58124 0.69007 0.84442 0.0
C903 C 0.60172 0.70167 0.84175 0.0
C904 C 0.60327 0.7208 0.82071 0.0
C905 C 0.58431 0.72845 0.80316 0.0
C906 C 0.56413 0.7156 0.80527 0.0
H907 H 0.60258 0.20904 0.18336 0.0
H908 H 0.63681 0.25815 0.24581 0.0
H909 H 0.62446 0.29098 0.2115 0.0
H910 H 0.61361 0.23751 0.10913 0.0
H911 H 0.58632 0.23196 0.09225 0.0
H912 H 0.59779 0.21219 0.12158 0.0
H913 H 0.56256 0.21768 0.15653 0.0
H914 H 0.55089 0.23779 0.12785 0.0
H915 H 0.55433 0.24668 0.16899 0.0
H916 H 0.61117 0.31772 0.16864 0.0
H917 H 0.59355 0.33797 0.12349 0.0
H918 H 0.56471 0.27233 0.09096 0.0
C919 C 0.6074 0.22675 0.18971 0.0
C920 C 0.62077 0.23122 0.21693 0.0
C921 C 0.62653 0.25451 0.22501 0.0
C922 C 0.61968 0.27319 0.20565 0.0
C923 C 0.6067 0.26824 0.17877 0.0
C924 C 0.60021 0.24568 0.17109 0.0
C925 C 0.5856 0.24539 0.14138 0.0
C926 C 0.59649 0.23091 0.1145 0.0
C927 C 0.56194 0.23637 0.14918 0.0
C928 C 0.58532 0.27126 0.13327 0.0
C929 C 0.5978 0.28402 0.155 0.0
C930 C 0.601 0.30802 0.15178 0.0
C931 C 0.59087 0.31941 0.12591 0.0
C932 C 0.57734 0.30692 0.10389 0.0
C933 C 0.57466 0.28246 0.10765 0.0
H934 H 0.95871 0.2887 0.26269 0.0
H935 H 0.89113 0.27467 0.29564 0.0
H936 H 0.89823 0.29857 0.34406 0.0
H937 H 0.98523 0.28497 0.33694 0.0
H938 H 0.00483 0.30841 0.3297 0.0
H939 H 0.99383 0.29179 0.29662 0.0
H940 H 0.9796 0.32995 0.26984 0.0
H941 H 0.99077 0.34676 0.3027 0.0
H942 H 0.96162 0.34946 0.29204 0.0
H943 H 0.9147 0.3199 0.39213 0.0
H944 H 0.93765 0.34071 0.43271 0.0
H945 H 0.99328 0.3429 0.36604 0.0
C946 C 0.94525 0.29101 0.27981 0.0
C947 C 0.92433 0.27988 0.2754 0.0
C948 C 0.90718 0.28326 0.29836 0.0
C949 C 0.91112 0.29669 0.32602 0.0
C950 C 0.93215 0.30695 0.32999 0.0
C951 C 0.94878 0.30462 0.30716 0.0
C952 C 0.97008 0.31694 0.31728 0.0
C953 C 0.98964 0.29948 0.32032 0.0
C954 C 0.97585 0.33697 0.29409 0.0
C955 C 0.96303 0.32624 0.34966 0.0
C956 C 0.94117 0.32014 0.35678 0.0
C957 C 0.93165 0.32521 0.38652 0.0
C958 C 0.94479 0.33692 0.40943 0.0
C959 C 0.96702 0.34375 0.4022 0.0
C960 C 0.97611 0.33843 0.37186 0.0
H961 H 0.89665 0.77506 0.65828 0.0
H962 H 0.85072 0.73591 0.71817 0.0
H963 H 0.85651 0.70071 0.68452 0.0
H964 H 0.88391 0.74704 0.58154 0.0
H965 H 0.91281 0.74647 0.56904 0.0
H966 H 0.90305 0.7693 0.59539 0.0
H967 H 0.9338 0.75841 0.63667 0.0
H968 H 0.9437 0.7357 0.61039 0.0
H969 H 0.93573 0.72868 0.6509 0.0
H970 H 0.86825 0.66967 0.64568 0.0
H971 H 0.8877 0.64377 0.60749 0.0
H972 H 0.92827 0.70246 0.57564 0.0
C973 C 0.88752 0.75916 0.66375 0.0
C974 C 0.87297 0.75806 0.69024 0.0
C975 C 0.86178 0.73692 0.69764 0.0
C976 C 0.86489 0.71696 0.67865 0.0
C977 C 0.87954 0.71845 0.65278 0.0
C978 C 0.8909 0.73891 0.64553 0.0
C979 C 0.90742 0.73517 0.61853 0.0
C980 C 0.90143 0.7504 0.5894 0.0
C981 C 0.93158 0.73976 0.62981 0.0
C982 C 0.90356 0.70943 0.61177 0.0
C983 C 0.88722 0.7002 0.63147 0.0
C984 C 0.88112 0.67666 0.63015 0.0
C985 C 0.89236 0.66204 0.60848 0.0
C986 C 0.90976 0.67096 0.58893 0.0
C987 C 0.91509 0.69506 0.59032 0.0
H988 H 0.51517 0.35624 0.62083 0.0
H989 H 0.57697 0.3673 0.56853 0.0
H990 H 0.59782 0.3459 0.6107 0.0
H991 H 0.53854 0.357 0.70407 0.0
H992 H 0.52029 0.33348 0.7163 0.0
H993 H 0.51124 0.35393 0.68605 0.0
H994 H 0.50356 0.31957 0.64704 0.0
H995 H 0.51246 0.29906 0.67703 0.0
H996 H 0.5257 0.29908 0.63823 0.0
H997 H 0.61099 0.31928 0.65512 0.0
H998 H 0.61457 0.28624 0.69294 0.0
H999 H 0.54361 0.2912 0.71431 0.0
C1000 C 0.53323 0.35498 0.6189 0.0
C1001 C 0.54459 0.36389 0.59187 0.0
C1002 C 0.56805 0.36087 0.58932 0.0
C1003 C 0.58 0.34887 0.61325 0.0
C1004 C 0.56819 0.33984 0.63936 0.0
C1005 C 0.54526 0.34264 0.64212 0.0
C1006 C 0.53586 0.32824 0.66942 0.0
C1007 C 0.5259 0.34412 0.69551 0.0
C1008 C 0.5184 0.31044 0.65719 0.0
C1009 C 0.55697 0.31626 0.68102 0.0
C1010 C 0.57556 0.32364 0.66403 0.0
C1011 C 0.59662 0.31364 0.66891 0.0
C1012 C 0.59853 0.29495 0.69064 0.0
C1013 C 0.57939 0.28617 0.70671 0.0
C1014 C 0.5586 0.29767 0.70268 0.0
H1015 H 0.93762 0.27982 0.92047 0.0
H1016 H 0.90955 0.34136 0.87442 0.0
H1017 H 0.89416 0.31676 0.83168 0.0
H1018 H 0.95138 0.24722 0.84908 0.0
H1019 H 0.94264 0.2194 0.86525 0.0
H1020 H 0.95295 0.24197 0.8916 0.0
H1021 H 0.91634 0.23975 0.92483 0.0
H1022 H 0.90604 0.21708 0.8987 0.0
H1023 H 0.88973 0.24327 0.90496 0.0
H1024 H 0.88302 0.28595 0.79271 0.0
H1025 H 0.87208 0.24991 0.7639 0.0
H1026 H 0.90354 0.20786 0.83784 0.0
C1027 C 0.92835 0.28814 0.9013 0.0
C1028 C 0.92537 0.3127 0.90044 0.0
C1029 C 0.91264 0.32279 0.87537 0.0
C1030 C 0.90374 0.30891 0.85088 0.0
C1031 C 0.90728 0.28486 0.85218 0.0
C1032 C 0.91887 0.27445 0.87703 0.0
C1033 C 0.91892 0.24801 0.87371 0.0
C1034 C 0.9429 0.23861 0.86966 0.0
C1035 C 0.90704 0.23635 0.90224 0.0
C1036 C 0.90554 0.24532 0.84312 0.0
C1037 C 0.89939 0.26683 0.8308 0.0
C1038 C 0.88755 0.26896 0.80221 0.0
C1039 C 0.88152 0.24845 0.78598 0.0
C1040 C 0.88693 0.22622 0.79881 0.0
C1041 C 0.89912 0.22467 0.82768 0.0
H1042 H 0.97489 0.67476 0.08022 0.0
H1043 H 0.96501 0.61403 0.14088 0.0
H1044 H 0.94653 0.63917 0.18161 0.0
H1045 H 0.99017 0.71291 0.14285 0.0
H1046 H 0.97705 0.73834 0.12558 0.0
H1047 H 0.98704 0.71527 0.1 0.0
H1048 H 0.94773 0.71114 0.07467 0.0
H1049 H 0.93725 0.73416 0.1001 0.0
H1050 H 0.92379 0.70592 0.10002 0.0
H1051 H 0.92912 0.67194 0.21594 0.0
H1052 H 0.91821 0.70939 0.24232 0.0
H1053 H 0.94291 0.7478 0.16016 0.0
C1054 C 0.9684 0.66667 0.10178 0.0
C1055 C 0.97088 0.64243 0.10722 0.0
C1056 C 0.96297 0.63257 0.13621 0.0
C1057 C 0.95245 0.64669 0.15938 0.0
C1058 C 0.95039 0.67065 0.15335 0.0
C1059 C 0.95843 0.68053 0.12535 0.0
C1060 C 0.95594 0.70687 0.1255 0.0
C1061 C 0.97891 0.71905 0.12337 0.0
C1062 C 0.94024 0.71499 0.09847 0.0
C1063 C 0.94534 0.71034 0.15799 0.0
C1064 C 0.94183 0.68933 0.17362 0.0
C1065 C 0.9319 0.68849 0.20394 0.0
C1066 C 0.92572 0.70974 0.21872 0.0
C1067 C 0.93004 0.73134 0.20335 0.0
C1068 C 0.93976 0.73149 0.17258 0.0
H1069 H 0.60467 0.74266 0.30763 0.0
H1070 H 0.61706 0.79908 0.37529 0.0
H1071 H 0.5923 0.78015 0.41431 0.0
H1072 H 0.54697 0.73144 0.32845 0.0
H1073 H 0.54948 0.70005 0.32554 0.0
H1074 H 0.56713 0.71864 0.30147 0.0
H1075 H 0.60246 0.69837 0.32455 0.0
H1076 H 0.58492 0.67959 0.34847 0.0
H1077 H 0.60633 0.69708 0.36735 0.0
H1078 H 0.56538 0.75622 0.44554 0.0
H1079 H 0.5424 0.7252 0.4705 0.0
H1080 H 0.55002 0.68241 0.38531 0.0
C1081 C 0.60215 0.75104 0.33062 0.0
C1082 C 0.61237 0.77273 0.33794 0.0
C1083 C 0.60899 0.78282 0.36863 0.0
C1084 C 0.59495 0.77219 0.39109 0.0
C1085 C 0.5848 0.75114 0.38291 0.0
C1086 C 0.58856 0.74035 0.35376 0.0
C1087 C 0.57671 0.7169 0.35207 0.0
C1088 C 0.55902 0.71676 0.32529 0.0
C1089 C 0.59362 0.6968 0.34787 0.0
C1090 C 0.56584 0.71628 0.38486 0.0
C1091 C 0.57037 0.73644 0.40194 0.0
C1092 C 0.56183 0.74023 0.43255 0.0
C1093 C 0.54873 0.72262 0.44644 0.0
C1094 C 0.54474 0.70139 0.42994 0.0
C1095 C 0.55317 0.69832 0.39864 0.0
H1096 H 0.48067 0.35975 0.10107 0.0
H1097 H 0.52961 0.37236 0.17604 0.0
H1098 H 0.49994 0.3691 0.21668 0.0
H1099 H 0.43248 0.39066 0.14305 0.0
H1100 H 0.41268 0.36943 0.12823 0.0
H1101 H 0.43688 0.37707 0.10458 0.0
H1102 H 0.44847 0.3332 0.10175 0.0
H1103 H 0.42409 0.32592 0.12477 0.0
H1104 H 0.45138 0.31684 0.13848 0.0
H1105 H 0.46744 0.35581 0.24906 0.0
H1106 H 0.43389 0.3357 0.2702 0.0
H1107 H 0.40504 0.33531 0.17508 0.0
C1108 C 0.48502 0.36251 0.12596 0.0
C1109 C 0.50747 0.36629 0.13531 0.0
C1110 C 0.51252 0.36959 0.16819 0.0
C1111 C 0.49576 0.36784 0.19152 0.0
C1112 C 0.47391 0.36334 0.1816 0.0
C1113 C 0.46841 0.36117 0.14955 0.0
C1114 C 0.44412 0.35425 0.14541 0.0
C1115 C 0.43075 0.37404 0.12937 0.0
C1116 C 0.44194 0.33117 0.12651 0.0
C1117 C 0.43728 0.35124 0.1801 0.0
C1118 C 0.45461 0.35688 0.20064 0.0
C1119 C 0.45344 0.35214 0.23337 0.0
C1120 C 0.43436 0.34069 0.24518 0.0
C1121 C 0.41666 0.33437 0.22438 0.0
C1122 C 0.41785 0.34058 0.19174 0.0
H1123 H 0.48206 0.62894 0.92484 0.0
H1124 H 0.45644 0.66219 0.01046 0.0
H1125 H 0.42437 0.67795 0.97889 0.0
H1126 H 0.46719 0.67402 0.86972 0.0
H1127 H 0.46043 0.65363 0.8382 0.0
H1128 H 0.48121 0.64608 0.86765 0.0
H1129 H 0.45936 0.60822 0.88163 0.0
H1130 H 0.43845 0.6155 0.85222 0.0
H1131 H 0.43031 0.61021 0.89316 0.0
H1132 H 0.39416 0.68843 0.93645 0.0
H1133 H 0.37083 0.69453 0.88788 0.0
H1134 H 0.41733 0.65225 0.83285 0.0
C1135 C 0.46961 0.63913 0.93724 0.0
C1136 C 0.47133 0.6438 0.97017 0.0
C1137 C 0.45522 0.65832 0.98513 0.0
C1138 C 0.43699 0.66722 0.96744 0.0
C1139 C 0.43547 0.66154 0.93494 0.0
C1140 C 0.4516 0.64799 0.92009 0.0
C1141 C 0.44662 0.64418 0.88512 0.0
C1142 C 0.46495 0.65514 0.86394 0.0
C1143 C 0.44349 0.61797 0.87761 0.0
C1144 C 0.4249 0.65739 0.88242 0.0
C1145 C 0.41861 0.66744 0.91118 0.0
C1146 C 0.399 0.68063 0.91386 0.0
C1147 C 0.38579 0.68388 0.88627 0.0
C1148 C 0.39238 0.67395 0.85662 0.0
C1149 C 0.41197 0.66029 0.85505 0.0
H1150 H 0.0778 0.65337 0.70804 0.0
H1151 H 0.04553 0.63314 0.79679 0.0
H1152 H 0.01293 0.61848 0.76629 0.0
H1153 H 0.0295 0.67611 0.67275 0.0
H1154 H 0.03588 0.66689 0.63249 0.0
H1155 H 0.05822 0.67239 0.66045 0.0
H1156 H 0.07373 0.63057 0.65121 0.0
H1157 H 0.05155 0.62496 0.62292 0.0
H1158 H 0.05555 0.60566 0.65661 0.0
H1159 H 0.98307 0.60901 0.72738 0.0
H1160 H 0.95667 0.60606 0.68255 0.0
H1161 H 0.00713 0.63434 0.61817 0.0
C1162 C 0.06421 0.64513 0.72089 0.0
C1163 C 0.06432 0.64381 0.75468 0.0
C1164 C 0.04581 0.63391 0.77086 0.0
C1165 C 0.02728 0.62556 0.75375 0.0
C1166 C 0.02743 0.62756 0.72049 0.0
C1167 C 0.04534 0.63715 0.70415 0.0
C1168 C 0.04019 0.63943 0.66867 0.0
C1169 C 0.04099 0.66524 0.65798 0.0
C1170 C 0.05621 0.62424 0.64867 0.0
C1171 C 0.01648 0.62987 0.66774 0.0
C1172 C 0.00964 0.6229 0.6979 0.0
C1173 C 0.98826 0.61422 0.70359 0.0
C1174 C 0.97335 0.6127 0.67785 0.0
C1175 C 0.97973 0.61996 0.64665 0.0
C1176 C 0.00173 0.6285 0.6416 0.0
H1177 H 0.05208 0.36967 0.42551 0.0
H1178 H 0.05837 0.30425 0.47746 0.0
H1179 H 0.08811 0.29169 0.43984 0.0
H1180 H 0.05514 0.34426 0.34996 0.0
H1181 H 0.06974 0.36852 0.33187 0.0
H1182 H 0.05165 0.37347 0.36562 0.0
H1183 H 0.08452 0.39304 0.39629 0.0
H1184 H 0.10279 0.38801 0.36263 0.0
H1185 H 0.11037 0.37719 0.40171 0.0
H1186 H 0.11561 0.28557 0.39416 0.0
H1187 H 0.13513 0.28461 0.34181 0.0
H1188 H 0.10795 0.35294 0.31875 0.0
C1189 C 0.05981 0.3529 0.42952 0.0
C1190 C 0.05292 0.33807 0.45464 0.0
C1191 C 0.06345 0.31599 0.45842 0.0
C1192 C 0.08043 0.30877 0.4373 0.0
C1193 C 0.08653 0.32379 0.41244 0.0
C1194 C 0.07632 0.3453 0.40836 0.0
C1195 C 0.08383 0.35713 0.37783 0.0
C1196 C 0.06391 0.36106 0.35498 0.0
C1197 C 0.09611 0.38021 0.38507 0.0
C1198 C 0.09973 0.33881 0.36505 0.0
C1199 C 0.10148 0.31989 0.38561 0.0
C1200 C 0.11458 0.30042 0.37811 0.0
C1201 C 0.12572 0.30008 0.34849 0.0
C1202 C 0.1232 0.31887 0.32666 0.0
C1203 C 0.11037 0.33855 0.33532 0.0
H1204 H 0.48385 0.66019 0.33902 0.0
H1205 H 0.45 0.62661 0.41865 0.0
H1206 H 0.4149 0.62538 0.38715 0.0
H1207 H 0.43774 0.69729 0.31876 0.0
H1208 H 0.44331 0.69636 0.27636 0.0
H1209 H 0.46591 0.69279 0.30446 0.0
H1210 H 0.47624 0.65322 0.27746 0.0
H1211 H 0.45337 0.65658 0.24966 0.0
H1212 H 0.45527 0.63061 0.27407 0.0
H1213 H 0.38339 0.62858 0.34733 0.0
H1214 H 0.35677 0.64006 0.30482 0.0
H1215 H 0.41099 0.67311 0.25237 0.0
C1216 C 0.46911 0.6523 0.34963 0.0
C1217 C 0.46963 0.6432 0.38105 0.0
C1218 C 0.4499 0.6336 0.39453 0.0
C1219 C 0.42997 0.63269 0.37677 0.0
C1220 C 0.43002 0.64174 0.34576 0.0
C1221 C 0.44899 0.65169 0.3325 0.0
C1222 C 0.44413 0.662 0.29984 0.0
C1223 C 0.448 0.68868 0.29988 0.0
C1224 C 0.45808 0.64987 0.27372 0.0
C1225 C 0.41951 0.65614 0.29666 0.0
C1226 C 0.41172 0.64427 0.32327 0.0
C1227 C 0.38931 0.63785 0.32636 0.0
C1228 C 0.37431 0.64445 0.30212 0.0
C1229 C 0.38178 0.65753 0.27536 0.0
C1230 C 0.4048 0.66283 0.27228 0.0
H1231 H 0.0359 0.6767 0.05884 0.0
H1232 H 0.06802 0.60869 0.05341 0.0
H1233 H 0.09364 0.62009 0.09736 0.0
H1234 H 0.08554 0.71173 0.08222 0.0
H1235 H 0.06976 0.72922 0.11015 0.0
H1236 H 0.05635 0.71786 0.07471 0.0
H1237 H 0.02596 0.69778 0.10912 0.0
H1238 H 0.03866 0.70976 0.14456 0.0
H1239 H 0.03419 0.6786 0.14131 0.0
H1240 H 0.11288 0.6373 0.14527 0.0
H1241 H 0.12298 0.65836 0.19525 0.0
H1242 H 0.0768 0.714 0.17069 0.0
C1243 C 0.04887 0.66454 0.06614 0.0
C1244 C 0.05041 0.64203 0.05245 0.0
C1245 C 0.06688 0.62615 0.06346 0.0
C1246 C 0.08149 0.63249 0.08828 0.0
C1247 C 0.07917 0.65466 0.10188 0.0
C1248 C 0.06321 0.67041 0.09126 0.0
C1249 C 0.06219 0.69189 0.1124 0.0
C1250 C 0.06886 0.71398 0.0937 0.0
C1251 C 0.03888 0.69465 0.12778 0.0
C1252 C 0.07974 0.68557 0.13698 0.0
C1253 C 0.08965 0.66423 0.13022 0.0
C1254 C 0.1055 0.65418 0.15055 0.0
C1255 C 0.11114 0.66617 0.17874 0.0
C1256 C 0.10075 0.68771 0.18614 0.0
C1257 C 0.0851 0.69765 0.165 0.0
H1258 H 0.05431 0.34441 0.73524 0.0
H1259 H 0.11145 0.37068 0.7886 0.0
H1260 H 0.08658 0.38047 0.83384 0.0
H1261 H 0.01427 0.38905 0.76412 0.0
H1262 H 0.99146 0.36837 0.76505 0.0
H1263 H 0.01369 0.36494 0.73623 0.0
H1264 H 0.02063 0.32272 0.75681 0.0
H1265 H 0.99866 0.32609 0.78594 0.0
H1266 H 0.02646 0.31803 0.79869 0.0
H1267 H 0.05608 0.38254 0.87577 0.0
H1268 H 0.02146 0.38158 0.90849 0.0
H1269 H 0.98402 0.35707 0.82602 0.0
C1270 C 0.06161 0.35265 0.75615 0.0
C1271 C 0.08497 0.35627 0.75859 0.0
C1272 C 0.09373 0.36715 0.7864 0.0
C1273 C 0.0797 0.37292 0.81219 0.0
C1274 C 0.05687 0.36821 0.80948 0.0
C1275 C 0.04781 0.35881 0.78186 0.0
C1276 C 0.02282 0.355 0.78518 0.0
C1277 C 0.0098 0.37026 0.76123 0.0
C1278 C 0.0168 0.32891 0.78144 0.0
C1279 C 0.01929 0.36326 0.81923 0.0
C1280 C 0.03915 0.37065 0.83297 0.0
C1281 C 0.04035 0.37729 0.86507 0.0
C1282 C 0.02068 0.37656 0.88349 0.0
C1283 C 0.00011 0.36958 0.86958 0.0
C1284 C 0.99946 0.36298 0.83702 0.0
H1285 H 0.45149 0.36464 0.5388 0.0
H1286 H 0.50157 0.3095 0.54026 0.0
H1287 H 0.48465 0.29332 0.58929 0.0
H1288 H 0.44986 0.37459 0.62107 0.0
H1289 H 0.42007 0.37941 0.62359 0.0
H1290 H 0.43472 0.38564 0.5869 0.0
H1291 H 0.40812 0.3579 0.55574 0.0
H1292 H 0.39314 0.3518 0.59227 0.0
H1293 H 0.40467 0.32807 0.56904 0.0
H1294 H 0.4655 0.2861 0.64112 0.0
H1295 H 0.44212 0.28523 0.6897 0.0
H1296 H 0.40286 0.34341 0.65366 0.0
C1297 C 0.45852 0.34884 0.54905 0.0
C1298 C 0.47772 0.33824 0.53571 0.0
C1299 C 0.48665 0.3177 0.54985 0.0
C1300 C 0.47725 0.30846 0.57781 0.0
C1301 C 0.45869 0.3197 0.59087 0.0
C1302 C 0.4491 0.33913 0.57668 0.0
C1303 C 0.42956 0.3482 0.59619 0.0
C1304 C 0.43382 0.37345 0.60761 0.0
C1305 C 0.40757 0.34637 0.57717 0.0
C1306 C 0.42997 0.33111 0.62388 0.0
C1307 C 0.44705 0.31495 0.62041 0.0
C1308 C 0.45183 0.29839 0.64389 0.0
C1309 C 0.43863 0.29819 0.67156 0.0
C1310 C 0.4208 0.31427 0.67529 0.0
C1311 C 0.41629 0.33079 0.65106 0.0
H1312 H 0.29768 0.30348 0.15697 0.0
H1313 H 0.30951 0.24241 0.21652 0.0
H1314 H 0.26946 0.23204 0.21255 0.0
H1315 H 0.25034 0.32053 0.19311 0.0
H1316 H 0.23602 0.33091 0.15785 0.0
H1317 H 0.26606 0.3303 0.15873 0.0
H1318 H 0.2665 0.30471 0.10743 0.0
H1319 H 0.2363 0.30527 0.10637 0.0
H1320 H 0.25093 0.27765 0.10653 0.0
H1321 H 0.22758 0.23241 0.2105 0.0
H1322 H 0.1879 0.24438 0.21252 0.0
H1323 H 0.20341 0.30532 0.15451 0.0
C1324 C 0.29207 0.28746 0.16828 0.0
C1325 C 0.30681 0.27373 0.18697 0.0
C1326 C 0.29859 0.25318 0.20195 0.0
C1327 C 0.27587 0.24706 0.19967 0.0
C1328 C 0.26161 0.26153 0.18206 0.0
C1329 C 0.26947 0.28122 0.1664 0.0
C1330 C 0.25043 0.2957 0.15291 0.0
C1331 C 0.25074 0.32082 0.16649 0.0
C1332 C 0.25108 0.29583 0.11612 0.0
C1333 C 0.23057 0.28189 0.16514 0.0
C1334 C 0.23732 0.26188 0.18113 0.0
C1335 C 0.22207 0.24774 0.19744 0.0
C1336 C 0.19953 0.2547 0.19847 0.0
C1337 C 0.19253 0.27581 0.18366 0.0
C1338 C 0.20815 0.28894 0.16571 0.0
H1339 H 0.039 0.9399 0.50136 0.0
H1340 H 0.07146 0.95713 0.59151 0.0
H1341 H 0.07255 0.99869 0.57592 0.0
H1342 H 0.06951 0.98216 0.45242 0.0
H1343 H 0.04544 0.9891 0.42814 0.0
H1344 H 0.04816 0.96037 0.44561 0.0
H1345 H 0.00937 0.96499 0.47283 0.0
H1346 H 0.00647 0.9936 0.45524 0.0
H1347 H 0.00416 0.99007 0.49801 0.0
H1348 H 0.06824 0.03878 0.55202 0.0
H1349 H 0.05773 0.07442 0.52192 0.0
H1350 H 0.02909 0.03084 0.44705 0.0
C1351 C 0.04644 0.95236 0.51778 0.0
C1352 C 0.05515 0.94514 0.54765 0.0
C1353 C 0.06469 0.96212 0.56843 0.0
C1354 C 0.06548 0.98582 0.55978 0.0
C1355 C 0.0568 0.99232 0.53018 0.0
C1356 C 0.04747 0.9761 0.50948 0.0
C1357 C 0.03854 0.98783 0.4796 0.0
C1358 C 0.05117 0.97936 0.44968 0.0
C1359 C 0.01313 0.98389 0.47625 0.0
C1360 C 0.04392 0.01317 0.48706 0.0
C1361 C 0.05459 0.01541 0.51623 0.0
C1362 C 0.0601 0.03726 0.52895 0.0
C1363 C 0.0541 0.0574 0.51167 0.0
C1364 C 0.04271 0.0555 0.48202 0.0
C1365 C 0.03806 0.033 0.4694 0.0
H1366 H 0.28823 0.67721 0.71012 0.0
H1367 H 0.29929 0.73673 0.77294 0.0
H1368 H 0.25849 0.74054 0.78067 0.0
H1369 H 0.23419 0.69881 0.67451 0.0
H1370 H 0.2228 0.66957 0.67341 0.0
H1371 H 0.25251 0.67406 0.6687 0.0
H1372 H 0.25987 0.64554 0.7158 0.0
H1373 H 0.23026 0.64129 0.7211 0.0
H1374 H 0.24716 0.65124 0.7542 0.0
H1375 H 0.21743 0.73375 0.78868 0.0
H1376 H 0.17844 0.71954 0.79177 0.0
H1377 H 0.19401 0.66496 0.72281 0.0
C1378 C 0.28206 0.69152 0.7247 0.0
C1379 C 0.29697 0.70665 0.74095 0.0
C1380 C 0.28821 0.72498 0.76012 0.0
C1381 C 0.26505 0.72726 0.76472 0.0
C1382 C 0.25088 0.71131 0.74959 0.0
C1383 C 0.25901 0.69409 0.72943 0.0
C1384 C 0.24042 0.67813 0.71789 0.0
C1385 C 0.2373 0.68028 0.68146 0.0
C1386 C 0.24469 0.65255 0.72786 0.0
C1387 C 0.22071 0.68846 0.73577 0.0
C1388 C 0.22707 0.70767 0.75378 0.0
C1389 C 0.21214 0.71904 0.77417 0.0
C1390 C 0.19009 0.7107 0.77597 0.0
C1391 C 0.18315 0.6912 0.75742 0.0
C1392 C 0.19871 0.68009 0.73696 0.0
H1393 H 0.48905 0.0637 0.99755 0.0
H1394 H 0.44482 0.0699 0.07964 0.0
H1395 H 0.43127 0.02958 0.07034 0.0
H1396 H 0.45089 0.02894 0.94808 0.0
H1397 H 0.47326 0.01157 0.93144 0.0
H1398 H 0.47846 0.04139 0.94352 0.0
H1399 H 0.51066 0.02748 0.98068 0.0
H1400 H 0.50573 0.99774 0.96839 0.0
H1401 H 0.50511 0.00526 0.01031 0.0
H1402 H 0.42492 0.98721 0.05448 0.0
H1403 H 0.42727 0.94653 0.03427 0.0
H1404 H 0.47413 0.96945 0.96113 0.0
C1405 C 0.47645 0.05665 0.01353 0.0
C1406 C 0.46806 0.06996 0.03936 0.0
C1407 C 0.45149 0.06006 0.05962 0.0
C1408 C 0.44362 0.0372 0.05447 0.0
C1409 C 0.45223 0.02458 0.02871 0.0
C1410 C 0.46822 0.03402 0.00852 0.0
C1411 C 0.47545 0.01659 0.98333 0.0
C1412 C 0.46913 0.02514 0.9496 0.0
C1413 C 0.50072 0.01147 0.98585 0.0
C1414 C 0.46154 0.99562 0.99305 0.0
C1415 C 0.4481 0.00054 0.01911 0.0
C1416 C 0.43512 0.98325 0.03375 0.0
C1417 C 0.4365 0.96019 0.02205 0.0
C1418 C 0.45078 0.9547 0.99599 0.0
C1419 C 0.4628 0.97295 0.98081 0.0
H1420 H 0.17672 0.72487 0.34606 0.0
H1421 H 0.16156 0.77361 0.26936 0.0
H1422 H 0.20184 0.77725 0.25752 0.0
H1423 H 0.23375 0.75129 0.36874 0.0
H1424 H 0.24477 0.7224 0.37623 0.0
H1425 H 0.21568 0.72865 0.38418 0.0
H1426 H 0.20433 0.69391 0.34769 0.0
H1427 H 0.23319 0.68788 0.33899 0.0
H1428 H 0.21384 0.69334 0.30669 0.0
H1429 H 0.24203 0.76796 0.24544 0.0
H1430 H 0.27933 0.74986 0.23831 0.0
H1431 H 0.26823 0.70766 0.32331 0.0
C1432 C 0.18192 0.73715 0.32775 0.0
C1433 C 0.16596 0.74884 0.30859 0.0
C1434 C 0.17344 0.76451 0.28451 0.0
C1435 C 0.19634 0.76667 0.27754 0.0
C1436 C 0.21155 0.75347 0.29531 0.0
C1437 C 0.20468 0.73948 0.32054 0.0
C1438 C 0.22382 0.72484 0.33334 0.0
C1439 C 0.22987 0.73225 0.36766 0.0
C1440 C 0.21846 0.69845 0.33153 0.0
C1441 C 0.24211 0.73156 0.31003 0.0
C1442 C 0.23488 0.74837 0.28858 0.0
C1443 C 0.2481 0.75531 0.26269 0.0
C1444 C 0.26918 0.74478 0.25866 0.0
C1445 C 0.27679 0.72743 0.28034 0.0
C1446 C 0.26312 0.72115 0.3066 0.0
H1447 H 0.45411 0.95812 0.43305 0.0
H1448 H 0.4827 0.92465 0.51706 0.0
H1449 H 0.48248 0.96262 0.54532 0.0
H1450 H 0.4861 0.01025 0.4386 0.0
H1451 H 0.4639 0.02916 0.42488 0.0
H1452 H 0.46472 0.99904 0.41222 0.0
H1453 H 0.42443 0.99307 0.43389 0.0
H1454 H 0.42361 0.02315 0.44696 0.0
H1455 H 0.41835 -0.00012 0.47514 0.0
H1456 H 0.48036 0.00397 0.5638 0.0
H1457 H 0.48028 0.04684 0.56971 0.0
H1458 H 0.45376 0.05401 0.47335 0.0
C1459 C 0.46015 0.95872 0.45749 0.0
C1460 C 0.46832 0.93837 0.47292 0.0
C1461 C 0.47641 0.93999 0.50473 0.0
C1462 C 0.47617 0.96144 0.52107 0.0
C1463 C 0.46787 0.9811 0.50524 0.0
C1464 C 0.46023 0.98002 0.47406 0.0
C1465 C 0.45366 0.00407 0.46182 0.0
C1466 C 0.46796 0.01104 0.43267 0.0
C1467 C 0.42851 0.00509 0.454 0.0
C1468 C 0.4592 0.01892 0.49084 0.0
C1469 C 0.46703 0.0052 0.51575 0.0
C1470 C 0.47416 0.01488 0.54456 0.0
C1471 C 0.47404 0.03928 0.54765 0.0
C1472 C 0.467 0.05381 0.52199 0.0
C1473 C 0.45889 0.04339 0.49355 0.0
H1474 H 0.2123 0.32407 0.77031 0.0
H1475 H 0.19345 0.2828 0.68712 0.0
H1476 H 0.23229 0.26827 0.68287 0.0
H1477 H 0.2654 0.34172 0.74123 0.0
H1478 H 0.27905 0.34029 0.77969 0.0
H1479 H 0.24948 0.3462 0.77741 0.0
H1480 H 0.24162 0.31092 0.81482 0.0
H1481 H 0.27119 0.3048 0.81705 0.0
H1482 H 0.25201 0.28231 0.80413 0.0
H1483 H 0.2733 0.25948 0.68627 0.0
H1484 H 0.3141 0.25869 0.69505 0.0
H1485 H 0.30652 0.30584 0.77594 0.0
C1486 C 0.21624 0.31181 0.75133 0.0
C1487 C 0.19973 0.30453 0.72909 0.0
C1488 C 0.20574 0.28867 0.70443 0.0
C1489 C 0.22775 0.28022 0.70192 0.0
C1490 C 0.24356 0.28776 0.72424 0.0
C1491 C 0.23812 0.30328 0.74839 0.0
C1492 C 0.25851 0.30956 0.76829 0.0
C1493 C 0.26339 0.33601 0.76653 0.0
C1494 C 0.25565 0.30141 0.80314 0.0
C1495 C 0.27638 0.29544 0.75122 0.0
C1496 C 0.26731 0.28281 0.7261 0.0
C1497 C 0.28056 0.26917 0.70599 0.0
C1498 C 0.30375 0.26885 0.71119 0.0
C1499 C 0.31353 0.28215 0.73624 0.0
C1500 C 0.29954 0.29524 0.75688 0.0
H1501 H 0.02101 0.06613 0.98892 0.0
H1502 H 0.08518 0.05614 0.94188 0.0
H1503 H 0.08572 0.01502 0.95946 0.0
H1504 H 0.03161 0.02568 0.05756 0.0
H1505 H 0.00315 0.01511 0.05737 0.0
H1506 H 0.00916 0.04471 0.04501 0.0
H1507 H 0.98924 0.03706 0.99084 0.0
H1508 H 0.98321 0.00751 0.003 0.0
H1509 H 0.99821 0.01284 0.96625 0.0
H1510 H 0.07746 0.9741 0.97618 0.0
H1511 H 0.06066 0.93609 0.991 0.0
H1512 H 0.00211 0.97239 0.02776 0.0
C1513 C 0.03542 0.05544 0.98302 0.0
C1514 C 0.05305 0.0644 0.96408 0.0
C1515 C 0.07142 0.04969 0.9563 0.0
C1516 C 0.07197 0.02631 0.96633 0.0
C1517 C 0.0541 0.01784 0.9843 0.0
C1518 C 0.03621 0.03195 0.99274 0.0
C1519 C 0.01825 0.01793 0.00977 0.0
C1520 C 0.01538 0.02636 0.04449 0.0
C1521 C 0.99592 0.01889 0.99135 0.0
C1522 C 0.02855 0.99368 0.00856 0.0
C1523 C 0.04936 0.99406 0.99413 0.0
C1524 C 0.06135 0.97358 0.98805 0.0
C1525 C 0.05165 0.95207 0.99646 0.0
C1526 C 0.03015 0.95123 0.01075 0.0
C1527 C 0.01875 0.97241 0.01743 0.0
H1528 H 0.78362 0.81402 0.73527 0.0
H1529 H 0.80542 0.76984 0.8141 0.0
H1530 H 0.76697 0.7548 0.81996 0.0
H1531 H 0.73111 0.82978 0.76896 0.0
H1532 H 0.71641 0.82951 0.73124 0.0
H1533 H 0.74593 0.83586 0.73227 0.0
H1534 H 0.7531 0.80213 0.69194 0.0
H1535 H 0.72359 0.79549 0.69114 0.0
H1536 H 0.74353 0.77297 0.7013 0.0
H1537 H 0.72613 0.74553 0.81871 0.0
H1538 H 0.685 0.74501 0.8131 0.0
H1539 H 0.68972 0.79493 0.73493 0.0
C1540 C 0.78036 0.80115 0.75374 0.0
C1541 C 0.79762 0.79313 0.77419 0.0
C1542 C 0.79254 0.77633 0.79814 0.0
C1543 C 0.77076 0.76753 0.80155 0.0
C1544 C 0.75424 0.77565 0.78081 0.0
C1545 C 0.75872 0.79218 0.75751 0.0
C1546 C 0.73769 0.79878 0.73933 0.0
C1547 C 0.73248 0.82504 0.7432 0.0
C1548 C 0.7396 0.79193 0.70382 0.0
C1549 C 0.72063 0.7837 0.7565 0.0
C1550 C 0.73059 0.77028 0.78008 0.0
C1551 C 0.71814 0.75582 0.80018 0.0
C1552 C 0.69479 0.75562 0.79677 0.0
C1553 C 0.68416 0.76987 0.77352 0.0
C1554 C 0.69736 0.78359 0.75261 0.0
H1555 H 0.71988 0.19838 0.23168 0.0
H1556 H 0.70843 0.2249 0.32782 0.0
H1557 H 0.74531 0.24441 0.32663 0.0
H1558 H 0.77716 0.18565 0.24111 0.0
H1559 H 0.78486 0.19446 0.20114 0.0
H1560 H 0.757 0.18395 0.20903 0.0
H1561 H 0.74059 0.22228 0.18537 0.0
H1562 H 0.76847 0.23302 0.17774 0.0
H1563 H 0.7493 0.25012 0.20151 0.0
H1564 H 0.78464 0.25838 0.31661 0.0
H1565 H 0.82368 0.2648 0.29893 0.0
H1566 H 0.80867 0.23055 0.20865 0.0
C1567 C 0.72504 0.20836 0.25248 0.0
C1568 C 0.71123 0.21002 0.27989 0.0
C1569 C 0.71867 0.22334 0.30652 0.0
C1570 C 0.73956 0.23459 0.30603 0.0
C1571 C 0.75272 0.2326 0.27861 0.0
C1572 C 0.74572 0.21986 0.2523 0.0
C1573 C 0.7634 0.21962 0.22631 0.0
C1574 C 0.77106 0.19443 0.21899 0.0
C1575 C 0.75492 0.232 0.19594 0.0
C1576 C 0.7817 0.23365 0.24248 0.0
C1577 C 0.77516 0.24116 0.27253 0.0
C1578 C 0.78984 0.25292 0.29293 0.0
C1579 C 0.81196 0.25651 0.28268 0.0
C1580 C 0.81914 0.24841 0.25231 0.0
C1581 C 0.80358 0.23743 0.2317 0.0
H1582 H 0.68872 0.1837 0.79678 0.0
H1583 H 0.68161 0.24819 0.74262 0.0
H1584 H 0.72251 0.24914 0.73399 0.0
H1585 H 0.74365 0.19862 0.83413 0.0
H1586 H 0.75329 0.16876 0.83143 0.0
H1587 H 0.72388 0.17481 0.83655 0.0
H1588 H 0.71513 0.15031 0.78582 0.0
H1589 H 0.74448 0.14449 0.78022 0.0
H1590 H 0.72847 0.15779 0.74846 0.0
H1591 H 0.76322 0.23999 0.72474 0.0
H1592 H 0.80152 0.22384 0.72077 0.0
H1593 H 0.78233 0.16613 0.78264 0.0
C1594 C 0.6958 0.19836 0.78381 0.0
C1595 C 0.68194 0.21587 0.77037 0.0
C1596 C 0.69188 0.23465 0.75332 0.0
C1597 C 0.71511 0.2353 0.74819 0.0
C1598 C 0.72818 0.21725 0.76068 0.0
C1599 C 0.71895 0.19938 0.7787 0.0
C1600 C 0.73652 0.18152 0.78819 0.0
C1601 C 0.73951 0.1809 0.82475 0.0
C1602 C 0.7308 0.1571 0.77487 0.0
C1603 C 0.75694 0.19174 0.77184 0.0
C1604 C 0.75178 0.21234 0.75609 0.0
C1605 C 0.76755 0.22411 0.73747 0.0
C1606 C 0.78921 0.2147 0.73516 0.0
C1607 C 0.79495 0.19381 0.75155 0.0
C1608 C 0.77855 0.18231 0.77021 0.0
H1609 H 0.80967 0.74763 0.22328 0.0
H1610 H 0.83168 0.76296 0.3201 0.0
H1611 H 0.79232 0.76574 0.33744 0.0
H1612 H 0.76949 0.78806 0.21987 0.0
H1613 H 0.74921 0.7716 0.19711 0.0
H1614 H 0.77847 0.76476 0.19364 0.0
H1615 H 0.77071 0.72169 0.20966 0.0
H1616 H 0.74123 0.72827 0.2127 0.0
H1617 H 0.75579 0.71547 0.24622 0.0
H1618 H 0.752 0.77574 0.34148 0.0
H1619 H 0.7132 0.78925 0.33287 0.0
H1620 H 0.71672 0.76676 0.23378 0.0
C1621 C 0.80624 0.75056 0.24843 0.0
C1622 C 0.82378 0.75505 0.27034 0.0
C1623 C 0.81855 0.75937 0.30289 0.0
C1624 C 0.7962 0.76095 0.31299 0.0
C1625 C 0.77929 0.75783 0.29035 0.0
C1626 C 0.78401 0.75226 0.25884 0.0
C1627 C 0.763 0.75272 0.23844 0.0
C1628 C 0.76519 0.77034 0.21066 0.0
C1629 C 0.75735 0.72807 0.22603 0.0
C1630 C 0.74599 0.76082 0.26295 0.0
C1631 C 0.75567 0.7633 0.29286 0.0
C1632 C 0.74405 0.77322 0.31844 0.0
C1633 C 0.72209 0.78101 0.31326 0.0
C1634 C 0.71194 0.77881 0.28275 0.0
C1635 C 0.7239 0.76809 0.25754 0.0
H1636 H 0.56355 0.44266 0.06371 0.0
H1637 H 0.54836 0.40883 0.97318 0.0
H1638 H 0.54736 0.44753 0.94666 0.0
H1639 H 0.52611 0.4893 0.05346 0.0
H1640 H 0.54353 0.5108 0.07295 0.0
H1641 H 0.54593 0.4804 0.0837 0.0
H1642 H 0.58841 0.48177 0.07094 0.0
H1643 H 0.58605 0.51217 0.05975 0.0
H1644 H 0.59762 0.49127 0.03193 0.0
H1645 H 0.54577 0.4894 0.93079 0.0
H1646 H 0.53857 0.53176 0.92757 0.0
H1647 H 0.55338 0.53886 0.02887 0.0
C1648 C 0.56037 0.44339 0.03818 0.0
C1649 C 0.55625 0.42277 0.02036 0.0
C1650 C 0.55158 0.42443 0.98722 0.0
C1651 C 0.55121 0.44629 0.97193 0.0
C1652 C 0.5554 0.46627 0.99019 0.0
C1653 C 0.55961 0.46507 0.02267 0.0
C1654 C 0.56112 0.48929 0.03743 0.0
C1655 C 0.5431 0.49264 0.0634 0.0
C1656 C 0.58471 0.49389 0.0508 0.0
C1657 C 0.55651 0.50433 0.00829 0.0
C1658 C 0.55379 0.49066 0.98119 0.0
C1659 C 0.54804 0.5003 0.95175 0.0
C1660 C 0.54399 0.5244 0.95019 0.0
C1661 C 0.54545 0.5386 0.97798 0.0
C1662 C 0.55259 0.52854 0.00714 0.0
H1663 H 0.99186 0.45701 0.47426 0.0
H1664 H 0.94851 0.41536 0.53542 0.0
H1665 H 0.9312 0.45168 0.55609 0.0
H1666 H 0.00253 0.50164 0.53044 0.0
H1667 H 0.00278 0.52507 0.5015 0.0
H1668 H 0.01047 0.49586 0.48953 0.0
H1669 H 0.98014 0.49659 0.44514 0.0
H1670 H 0.97242 0.52589 0.45683 0.0
H1671 H 0.95151 0.50312 0.4556 0.0
H1672 H 0.92004 0.49242 0.57194 0.0
H1673 H 0.91557 0.53458 0.58217 0.0
H1674 H 0.96682 0.54979 0.51121 0.0
C1675 C 0.97847 0.45542 0.49162 0.0
C1676 C 0.97146 0.43325 0.50308 0.0
C1677 C 0.95412 0.43209 0.5262 0.0
C1678 C 0.94419 0.45263 0.53805 0.0
C1679 C 0.95179 0.47416 0.52658 0.0
C1680 C 0.9685 0.47569 0.50384 0.0
C1681 C 0.9744 0.50098 0.49661 0.0
C1682 C 0.999 0.50618 0.50503 0.0
C1683 C 0.9693 0.50699 0.46146 0.0
C1684 C 0.95853 0.51349 0.51912 0.0
C1685 C 0.94556 0.49768 0.53602 0.0
C1686 C 0.93001 0.50496 0.55872 0.0
C1687 C 0.92765 0.52902 0.56437 0.0
C1688 C 0.94084 0.54565 0.54749 0.0
C1689 C 0.95643 0.53764 0.52447 0.0
H1690 H 0.96892 0.43151 0.99896 0.0
H1691 H 0.91747 0.4468 0.92839 0.0
H1692 H 0.9185 0.48842 0.94368 0.0
H1693 H 0.95041 0.47495 0.05942 0.0
H1694 H 0.97876 0.48234 0.07033 0.0
H1695 H 0.97223 0.45321 0.05651 0.0
H1696 H 0.00238 0.45696 0.01213 0.0
H1697 H 0.00902 0.48601 0.02584 0.0
H1698 H 0.00113 0.4813 0.98466 0.0
H1699 H 0.92754 0.52876 0.96256 0.0
H1700 H 0.94471 0.56511 0.98311 0.0
H1701 H 0.98994 0.5237 0.04176 0.0
C1702 C 0.95758 0.44352 0.98714 0.0
C1703 C 0.94311 0.43583 0.96252 0.0
C1704 C 0.92876 0.45222 0.9473 0.0
C1705 C 0.9291 0.47592 0.95593 0.0
C1706 C 0.94378 0.48298 0.97994 0.0
C1707 C 0.95773 0.46729 0.99541 0.0
C1708 C 0.97312 0.47974 0.01866 0.0
C1709 C 0.96834 0.4721 0.05329 0.0
C1710 C 0.99787 0.47577 0.00977 0.0
C1711 C 0.96611 0.50491 0.01307 0.0
C1712 C 0.94897 0.50638 0.99096 0.0
C1713 C 0.94075 0.52785 0.98028 0.0
C1714 C 0.95063 0.54841 0.99205 0.0
C1715 C 0.9686 0.5473 0.01417 0.0
C1716 C 0.97601 0.52521 0.02527 0.0
H1717 H 0.50385 0.47052 0.52178 0.0
H1718 H 0.55345 0.44217 0.4562 0.0
H1719 H 0.56242 0.48219 0.43803 0.0
H1720 H 0.48301 0.51382 0.47028 0.0
H1721 H 0.47892 0.5356 0.501 0.0
H1722 H 0.47766 0.50496 0.51102 0.0
H1723 H 0.5085 0.51081 0.55397 0.0
H1724 H 0.50972 0.54155 0.54428 0.0
H1725 H 0.5348 0.52399 0.54275 0.0
H1726 H 0.56391 0.52472 0.42398 0.0
H1727 H 0.55917 0.56721 0.41663 0.0
H1728 H 0.50873 0.56802 0.49165 0.0
C1729 C 0.51687 0.47268 0.50397 0.0
C1730 C 0.52795 0.45312 0.49045 0.0
C1731 C 0.54474 0.45682 0.46698 0.0
C1732 C 0.54996 0.4795 0.45649 0.0
C1733 C 0.53835 0.49829 0.46981 0.0
C1734 C 0.5223 0.49517 0.49323 0.0
C1735 C 0.51164 0.51824 0.50271 0.0
C1736 C 0.48631 0.51814 0.49583 0.0
C1737 C 0.51646 0.52398 0.53802 0.0
C1738 C 0.52393 0.53479 0.48051 0.0
C1739 C 0.5393 0.52291 0.46182 0.0
C1740 C 0.55209 0.53426 0.43869 0.0
C1741 C 0.54918 0.55841 0.43462 0.0
C1742 C 0.53359 0.57104 0.4536 0.0
C1743 C 0.52088 0.55896 0.47691 0.0
H1744 H 0.98285 0.32501 0.08139 0.0
H1745 H 0.02837 0.3448 0.005 0.0
H1746 H 0.06063 0.33483 0.03954 0.0
H1747 H 0.0148 0.34974 0.14419 0.0
H1748 H 0.00808 0.32711 0.17271 0.0
H1749 H 0.98878 0.33388 0.14095 0.0
H1750 H 0.98933 0.29046 0.1234 0.0
H1751 H 0.0091 0.28345 0.15453 0.0
H1752 H 0.01559 0.27665 0.11341 0.0
H1753 H 0.08798 0.32335 0.08302 0.0
H1754 H 0.10812 0.31563 0.13378 0.0
H1755 H 0.04451 0.30525 0.18202 0.0
C1756 C 0.9996 0.32707 0.07182 0.0
C1757 C 0.00311 0.33559 0.04047 0.0
C1758 C 0.02529 0.33834 0.02898 0.0
C1759 C 0.04371 0.33256 0.04833 0.0
C1760 C 0.03965 0.32416 0.07913 0.0
C1761 C 0.01814 0.32166 0.09091 0.0
C1762 C 0.0183 0.31396 0.12559 0.0
C1763 C 0.00682 0.33227 0.14712 0.0
C1764 C 0.00744 0.28969 0.12943 0.0
C1765 C 0.04328 0.31294 0.13166 0.0
C1766 C 0.05534 0.3184 0.10443 0.0
C1767 C 0.07871 0.31899 0.10448 0.0
C1768 C 0.09001 0.31449 0.13335 0.0
C1769 C 0.07786 0.30992 0.1618 0.0
C1770 C 0.05423 0.30874 0.16065 0.0
H1771 H 0.97428 0.79505 0.31966 0.0
H1772 H 0.90706 0.80719 0.35547 0.0
H1773 H 0.92276 0.81975 0.40751 0.0
H1774 H 0.99778 0.77372 0.39771 0.0
H1775 H 0.02448 0.78731 0.38987 0.0
H1776 H 0.00767 0.77661 0.35713 0.0
H1777 H 0.00924 0.8177 0.33084 0.0
H1778 H 0.02564 0.8287 0.3637 0.0
H1779 H -0.00032 0.84286 0.35311 0.0
H1780 H 0.94608 0.83674 0.45231 0.0
H1781 H 0.97509 0.85153 0.48949 0.0
H1782 H 0.0269 0.82648 0.42512 0.0
C1783 C 0.96285 0.79976 0.33875 0.0
C1784 C 0.93947 0.80017 0.33359 0.0
C1785 C 0.92502 0.80652 0.35905 0.0
C1786 C 0.9338 0.81381 0.38861 0.0
C1787 C 0.957 0.81413 0.39248 0.0
C1788 C 0.9713 0.80666 0.36852 0.0
C1789 C 0.99558 0.80939 0.37829 0.0
C1790 C 0.00705 0.78533 0.38092 0.0
C1791 C 0.00826 0.82563 0.35511 0.0
C1792 C 0.99273 0.82062 0.41087 0.0
C1793 C 0.97037 0.82316 0.4187 0.0
C1794 C 0.96364 0.83443 0.44672 0.0
C1795 C 0.98022 0.84297 0.46754 0.0
C1796 C 0.00324 0.84007 0.46025 0.0
C1797 C 0.00946 0.82875 0.43151 0.0
H1798 H 0.43816 0.66943 0.68954 0.0
H1799 H 0.37645 0.70453 0.66254 0.0
H1800 H 0.3858 0.69835 0.60527 0.0
H1801 H 0.47249 0.69179 0.62697 0.0
H1802 H 0.48787 0.66484 0.62222 0.0
H1803 H 0.47604 0.67228 0.66053 0.0
H1804 H 0.45474 0.63268 0.6613 0.0
H1805 H 0.46631 0.62523 0.62279 0.0
H1806 H 0.43638 0.6253 0.62852 0.0
H1807 H 0.40315 0.68929 0.55067 0.0
H1808 H 0.42664 0.67835 0.50416 0.0
H1809 H 0.4756 0.64758 0.56841 0.0
C1810 C 0.42658 0.67601 0.67171 0.0
C1811 C 0.40662 0.68766 0.68058 0.0
C1812 C 0.39187 0.69564 0.65633 0.0
C1813 C 0.39703 0.69215 0.62377 0.0
C1814 C 0.41682 0.6804 0.616 0.0
C1815 C 0.43129 0.67242 0.63938 0.0
C1816 C 0.45146 0.66027 0.6251 0.0
C1817 C 0.47325 0.67307 0.63424 0.0
C1818 C 0.45225 0.63433 0.63502 0.0
C1819 C 0.44632 0.66287 0.58986 0.0
C1820 C 0.4263 0.67453 0.58498 0.0
C1821 C 0.41872 0.67994 0.55427 0.0
C1822 C 0.43216 0.67363 0.52801 0.0
C1823 C 0.45284 0.6619 0.53265 0.0
C1824 C 0.4597 0.65613 0.56401 0.0
H1825 H 0.60365 0.19959 0.84848 0.0
H1826 H 0.5349 0.22133 0.83281 0.0
H1827 H 0.52439 0.20539 0.88559 0.0
H1828 H 0.59164 0.14662 0.87836 0.0
H1829 H 0.61355 0.14529 0.90801 0.0
H1830 H 0.61703 0.1633 0.87312 0.0
H1831 H 0.62409 0.19967 0.90884 0.0
H1832 H 0.62097 0.18166 0.94403 0.0
H1833 H 0.60393 0.20749 0.93916 0.0
H1834 H 0.51985 0.18028 0.93448 0.0
H1835 H 0.52221 0.14964 0.97607 0.0
H1836 H 0.59386 0.14457 0.96038 0.0
C1837 C 0.58661 0.20197 0.85678 0.0
C1838 C 0.57015 0.21188 0.8366 0.0
C1839 C 0.54784 0.21393 0.84792 0.0
C1840 C 0.54171 0.20495 0.87793 0.0
C1841 C 0.55809 0.19411 0.89652 0.0
C1842 C 0.58018 0.19291 0.88658 0.0
C1843 C 0.59396 0.17781 0.90898 0.0
C1844 C 0.60465 0.15703 0.89104 0.0
C1845 C 0.61179 0.19254 0.92628 0.0
C1846 C 0.57594 0.16969 0.93197 0.0
C1847 C 0.55544 0.17961 0.92484 0.0
C1848 C 0.53595 0.17295 0.94092 0.0
C1849 C 0.53744 0.15556 0.96467 0.0
C1850 C 0.55826 0.14499 0.97201 0.0
C1851 C 0.57772 0.15253 0.95569 0.0
H1852 H 0.96929 0.66487 0.43212 0.0
H1853 H 0.02181 0.64791 0.50013 0.0
H1854 H 0.04938 0.66856 0.46581 0.0
H1855 H 0.0009 0.65538 0.3625 0.0
H1856 H 0.98806 0.67894 0.34037 0.0
H1857 H 0.97271 0.66453 0.37173 0.0
H1858 H 0.96627 0.70473 0.39934 0.0
H1859 H 0.982 0.71919 0.36824 0.0
H1860 H 0.99004 0.72274 0.40955 0.0
H1861 H 0.07125 0.69049 0.42275 0.0
H1862 H 0.08623 0.70627 0.3719 0.0
H1863 H 0.01907 0.70759 0.33235 0.0
C1864 C 0.98657 0.66556 0.43998 0.0
C1865 C 0.9934 0.65483 0.46886 0.0
C1866 C 0.01622 0.65595 0.47804 0.0
C1867 C 0.03193 0.66784 0.45887 0.0
C1868 C 0.0245 0.6785 0.43069 0.0
C1869 C 0.00236 0.67721 0.42119 0.0
C1870 C 0.99876 0.68858 0.38887 0.0
C1871 C 0.98958 0.67079 0.36443 0.0
C1872 C 0.98336 0.71008 0.39169 0.0
C1873 C 0.02249 0.69581 0.38104 0.0
C1874 C 0.03704 0.69045 0.40576 0.0
C1875 C 0.05996 0.69486 0.40336 0.0
C1876 C 0.06831 0.70401 0.37448 0.0
C1877 C 0.05378 0.70818 0.34824 0.0
C1878 C 0.03054 0.70469 0.35207 0.0
H1879 H 0.54269 0.78464 0.6732 0.0
H1880 H 0.60984 0.81099 0.65671 0.0
H1881 H 0.59918 0.82182 0.60136 0.0
H1882 H 0.53281 0.76239 0.58986 0.0
H1883 H 0.50377 0.77096 0.59139 0.0
H1884 H 0.51797 0.762 0.62746 0.0
H1885 H 0.50675 0.80122 0.65434 0.0
H1886 H 0.49288 0.81048 0.61831 0.0
H1887 H 0.51456 0.82847 0.63558 0.0
H1888 H 0.57899 0.83567 0.55089 0.0
H1889 H 0.55222 0.84765 0.50851 0.0
H1890 H 0.49898 0.81112 0.55861 0.0
C1891 C 0.55537 0.79204 0.65766 0.0
C1892 C 0.5771 0.79694 0.66924 0.0
C1893 C 0.59316 0.80682 0.64823 0.0
C1894 C 0.58722 0.81314 0.6168 0.0
C1895 C 0.56529 0.80904 0.60662 0.0
C1896 C 0.54978 0.79822 0.62629 0.0
C1897 C 0.52693 0.79713 0.61073 0.0
C1898 C 0.51997 0.7716 0.60448 0.0
C1899 C 0.50926 0.8101 0.63094 0.0
C1900 C 0.5317 0.8099 0.57978 0.0
C1901 C 0.55391 0.81654 0.5776 0.0
C1902 C 0.56168 0.83012 0.55208 0.0
C1903 C 0.54635 0.83696 0.52822 0.0
C1904 C 0.52355 0.83021 0.53013 0.0
C1905 C 0.51634 0.81633 0.55616 0.0
H1906 H 0.44695 0.32354 0.84052 0.0
H1907 H 0.39685 0.27315 0.8703 0.0
H1908 H 0.40965 0.27761 0.92687 0.0
H1909 H 0.48994 0.30495 0.88964 0.0
H1910 H 0.50075 0.33387 0.89754 0.0
H1911 H 0.48598 0.32812 0.86086 0.0
H1912 H 0.45811 0.36172 0.87357 0.0
H1913 H 0.47289 0.36767 0.91031 0.0
H1914 H 0.44324 0.36168 0.91115 0.0
H1915 H 0.43172 0.28516 0.97963 0.0
H1916 H 0.45875 0.296 0.02222 0.0
H1917 H 0.49282 0.3422 0.95567 0.0
C1918 C 0.43843 0.31361 0.85899 0.0
C1919 C 0.42105 0.29787 0.85118 0.0
C1920 C 0.41017 0.28536 0.87593 0.0
C1921 C 0.41738 0.28778 0.90801 0.0
C1922 C 0.43511 0.30313 0.9147 0.0
C1923 C 0.44517 0.31606 0.89072 0.0
C1924 C 0.46433 0.33073 0.90321 0.0
C1925 C 0.48655 0.324 0.88685 0.0
C1926 C 0.45933 0.357 0.89933 0.0
C1927 C 0.46413 0.3236 0.93797 0.0
C1928 C 0.44716 0.30777 0.94443 0.0
C1929 C 0.4448 0.29781 0.97479 0.0
C1930 C 0.46026 0.30405 0.99884 0.0
C1931 C 0.47788 0.32006 0.99237 0.0
C1932 C 0.47946 0.33012 0.96161 0.0
H1933 H 0.95125 0.2506 0.12803 0.0
H1934 H 0.88817 0.21434 0.11318 0.0
H1935 H 0.906 0.18958 0.07186 0.0
H1936 H 0.96897 0.24931 0.04298 0.0
H1937 H 0.99796 0.2458 0.05408 0.0
H1938 H 0.9791 0.2615 0.08002 0.0
H1939 H 0.99039 0.23344 0.12642 0.0
H1940 H 0.00849 0.21729 0.09999 0.0
H1941 H 0.98657 0.2023 0.12148 0.0
H1942 H 0.93176 0.16669 0.03486 0.0
H1943 H 0.96262 0.14962 0.00277 0.0
H1944 H 0.00829 0.20143 0.04197 0.0
C1945 C 0.9411 0.23765 0.1158 0.0
C1946 C 0.91837 0.23433 0.12398 0.0
C1947 C 0.90562 0.21726 0.10732 0.0
C1948 C 0.91562 0.20305 0.08386 0.0
C1949 C 0.93825 0.20637 0.07701 0.0
C1950 C 0.95072 0.22352 0.09216 0.0
C1951 C 0.9748 0.22338 0.08088 0.0
C1952 C 0.98055 0.24635 0.06345 0.0
C1953 C 0.99101 0.21882 0.10886 0.0
C1954 C 0.97414 0.20293 0.05783 0.0
C1955 C 0.95291 0.19342 0.05568 0.0
C1956 C 0.94841 0.17412 0.03617 0.0
C1957 C 0.96605 0.16447 0.01816 0.0
C1958 C 0.98787 0.17414 0.01986 0.0
C1959 C 0.99183 0.19358 0.04008 0.0
H1960 H 0.95111 0.67963 0.96487 0.0
H1961 H 0.92869 0.6203 0.90821 0.0
H1962 H 0.90545 0.64688 0.87532 0.0
H1963 H 0.89832 0.71314 0.96225 0.0
H1964 H 0.91281 0.74076 0.95914 0.0
H1965 H 0.92552 0.7167 0.98037 0.0
H1966 H 0.96067 0.71991 0.94421 0.0
H1967 H 0.94807 0.74387 0.92282 0.0
H1968 H 0.95751 0.71832 0.90131 0.0
H1969 H 0.88729 0.68042 0.84585 0.0
H1970 H 0.87605 0.71812 0.82173 0.0
H1971 H 0.91089 0.75532 0.89757 0.0
C1972 C 0.94099 0.6721 0.94595 0.0
C1973 C 0.94165 0.64784 0.93919 0.0
C1974 C 0.9284 0.6388 0.91391 0.0
C1975 C 0.91511 0.65376 0.89515 0.0
C1976 C 0.91521 0.67766 0.9021 0.0
C1977 C 0.92776 0.68675 0.92698 0.0
C1978 C 0.92627 0.71321 0.92813 0.0
C1979 C 0.91506 0.72143 0.95933 0.0
C1980 C 0.94951 0.72448 0.92385 0.0
C1981 C 0.91138 0.71768 0.89946 0.0
C1982 C 0.90494 0.69696 0.88499 0.0
C1983 C 0.89202 0.69674 0.8572 0.0
C1984 C 0.88575 0.71826 0.84365 0.0
C1985 C 0.89256 0.7397 0.85778 0.0
C1986 C 0.90527 0.73927 0.8863 0.0
H1987 H 0.05773 0.26576 0.64995 0.0
H1988 H 0.12797 0.25614 0.62636 0.0
H1989 H 0.11756 0.22513 0.58766 0.0
H1990 H 0.04153 0.20534 0.64541 0.0
H1991 H 0.0146 0.21152 0.62779 0.0
H1992 H 0.02766 0.23273 0.65369 0.0
H1993 H 0.02468 0.26406 0.609 0.0
H1994 H 0.01159 0.24293 0.58301 0.0
H1995 H 0.0365 0.25809 0.57011 0.0
H1996 H 0.09931 0.19475 0.552 0.0
H1997 H 0.07469 0.1686 0.5206 0.0
H1998 H 0.01643 0.19896 0.56704 0.0
C1999 C 0.07098 0.25713 0.63672 0.0
C2000 C 0.0937 0.26333 0.64127 0.0
C2001 C 0.11046 0.2517 0.62327 0.0
C2002 C 0.10471 0.23404 0.60129 0.0
C2003 C 0.08213 0.22834 0.59749 0.0
C2004 C 0.06553 0.23965 0.61459 0.0
C2005 C 0.04249 0.23055 0.60577 0.0
C2006 C 0.0309 0.21937 0.6349 0.0
C2007 C 0.02797 0.25007 0.59109 0.0
C2008 C 0.04871 0.21228 0.58104 0.0
C2009 C 0.07164 0.21118 0.57669 0.0
C2010 C 0.08133 0.1955 0.55518 0.0
C2011 C 0.0672 0.18068 0.5375 0.0
C2012 C 0.04361 0.18171 0.54131 0.0
C2013 C 0.03437 0.19773 0.5635 0.0
H2014 H 0.56968 0.33885 0.41604 0.0
H2015 H 0.61657 0.35266 0.49324 0.0
H2016 H 0.64265 0.32344 0.47032 0.0
H2017 H 0.57579 0.27923 0.41578 0.0
H2018 H 0.57341 0.27553 0.37303 0.0
H2019 H 0.56027 0.30014 0.39222 0.0
H2020 H 0.58172 0.32872 0.35498 0.0
H2021 H 0.59476 0.30414 0.33532 0.0
H2022 H 0.61182 0.32699 0.35245 0.0
H2023 H 0.66137 0.28913 0.44241 0.0
H2024 H 0.67143 0.25374 0.41135 0.0
H2025 H 0.61155 0.26252 0.35358 0.0
C2026 C 0.58568 0.33625 0.42774 0.0
C2027 C 0.5911 0.34812 0.45642 0.0
C2028 C 0.61211 0.34391 0.47113 0.0
C2029 C 0.62702 0.32732 0.45829 0.0
C2030 C 0.62072 0.31527 0.43064 0.0
C2031 C 0.60062 0.31977 0.41538 0.0
C2032 C 0.59679 0.30318 0.38766 0.0
C2033 C 0.5753 0.28867 0.39249 0.0
C2034 C 0.59625 0.31656 0.35571 0.0
C2035 C 0.61751 0.28811 0.39029 0.0
C2036 C 0.63129 0.29548 0.41492 0.0
C2037 C 0.65084 0.28342 0.4228 0.0
C2038 C 0.65638 0.26329 0.4051 0.0
C2039 C 0.64228 0.25533 0.38005 0.0
C2040 C 0.62274 0.26814 0.3725 0.0
H2041 H 0.43666 0.81453 0.10447 0.0
H2042 H 0.38844 0.85719 0.05297 0.0
H2043 H 0.35747 0.83567 0.07931 0.0
H2044 H 0.40719 0.76118 0.09818 0.0
H2045 H 0.41503 0.75097 0.13745 0.0
H2046 H 0.43314 0.77071 0.11605 0.0
H2047 H 0.43214 0.79978 0.16378 0.0
H2048 H 0.41413 0.78004 0.18544 0.0
H2049 H 0.40552 0.80991 0.17874 0.0
H2050 H 0.33172 0.80813 0.11074 0.0
H2051 H 0.31389 0.77742 0.14414 0.0
H2052 H 0.37975 0.75309 0.17315 0.0
C2053 C 0.41962 0.81959 0.09891 0.0
C2054 C 0.41498 0.83761 0.07673 0.0
C2055 C 0.3924 0.84349 0.06999 0.0
C2056 C 0.3747 0.83136 0.08481 0.0
C2057 C 0.37992 0.81343 0.10626 0.0
C2058 C 0.40187 0.80766 0.1133 0.0
C2059 C 0.40319 0.7873 0.13634 0.0
C2060 C 0.41535 0.7663 0.12108 0.0
C2061 C 0.4144 0.79471 0.16794 0.0
C2062 C 0.37856 0.78231 0.141 0.0
C2063 C 0.36531 0.79758 0.12369 0.0
C2064 C 0.34197 0.79612 0.12442 0.0
C2065 C 0.33199 0.77862 0.1434 0.0
C2066 C 0.34539 0.76277 0.16115 0.0
C2067 C 0.36896 0.76479 0.15977 0.0
H2068 H 0.96172 0.29766 0.5545 0.0
H2069 H 0.90788 0.34875 0.55688 0.0
H2070 H 0.88453 0.32084 0.58766 0.0
H2071 H 0.92652 0.24677 0.54457 0.0
H2072 H 0.944 0.22844 0.56929 0.0
H2073 H 0.95619 0.25238 0.54727 0.0
H2074 H 0.97271 0.2693 0.59979 0.0
H2075 H 0.96069 0.24536 0.62192 0.0
H2076 H 0.95435 0.27513 0.63314 0.0
H2077 H 0.8676 0.28732 0.61997 0.0
H2078 H 0.85855 0.25122 0.65021 0.0
H2079 H 0.92347 0.2224 0.62482 0.0
C2080 C 0.94502 0.30305 0.56145 0.0
C2081 C 0.93665 0.32545 0.55336 0.0
C2082 C 0.91464 0.33168 0.56278 0.0
C2083 C 0.90126 0.31595 0.58027 0.0
C2084 C 0.91009 0.29401 0.58787 0.0
C2085 C 0.93145 0.28757 0.57861 0.0
C2086 C 0.93714 0.26305 0.58971 0.0
C2087 C 0.94119 0.2467 0.561 0.0
C2088 C 0.95741 0.26324 0.6125 0.0
C2089 C 0.91576 0.25677 0.60713 0.0
C2090 C 0.9003 0.27477 0.60581 0.0
C2091 C 0.87953 0.27307 0.62096 0.0
C2092 C 0.87453 0.2525 0.63806 0.0
C2093 C 0.89023 0.23392 0.63979 0.0
C2094 C 0.911 0.23616 0.62382 0.0
H2095 H 0.37802 0.2379 0.35501 0.0
H2096 H 0.38603 0.20101 0.26483 0.0
H2097 H 0.39685 0.16523 0.29436 0.0
H2098 H 0.4249 0.2151 0.39178 0.0
H2099 H 0.41282 0.21315 0.43125 0.0
H2100 H 0.4025 0.23454 0.40334 0.0
H2101 H 0.36231 0.21797 0.40979 0.0
H2102 H 0.37257 0.19641 0.43773 0.0
H2103 H 0.35723 0.18726 0.40271 0.0
H2104 H 0.41114 0.13509 0.3333 0.0
H2105 H 0.42888 0.11369 0.37799 0.0
H2106 H 0.41126 0.17026 0.44271 0.0
C2107 C 0.38154 0.22217 0.34143 0.0
C2108 C 0.38106 0.22225 0.30758 0.0
C2109 C 0.38618 0.20136 0.29077 0.0
C2110 C 0.39225 0.18091 0.30735 0.0
C2111 C 0.39297 0.18158 0.34073 0.0
C2112 C 0.38766 0.20167 0.35758 0.0
C2113 C 0.39172 0.19853 0.39314 0.0
C2114 C 0.40901 0.21638 0.40558 0.0
C2115 C 0.36964 0.20014 0.41195 0.0
C2116 C 0.40095 0.17383 0.39358 0.0
C2117 C 0.4012 0.1642 0.3632 0.0
C2118 C 0.41067 0.1423 0.35726 0.0
C2119 C 0.42072 0.13027 0.38283 0.0
C2120 C 0.42135 0.14021 0.41392 0.0
C2121 C 0.41069 0.16196 0.4194 0.0
H2122 H 0.57432 0.69393 0.03575 0.0
H2123 H 0.57987 0.62877 0.08869 0.0
H2124 H 0.60126 0.64932 0.13101 0.0
H2125 H 0.6298 0.71759 0.05729 0.0
H2126 H 0.61924 0.74711 0.05998 0.0
H2127 H 0.60657 0.72661 0.03259 0.0
H2128 H 0.56785 0.73417 0.05871 0.0
H2129 H 0.58039 0.75453 0.08629 0.0
H2130 H 0.56453 0.72998 0.10125 0.0
H2131 H 0.61887 0.67824 0.17013 0.0
H2132 H 0.63201 0.71247 0.20138 0.0
H2133 H 0.61483 0.75811 0.12195 0.0
C2134 C 0.58038 0.68382 0.05591 0.0
C2135 C 0.57544 0.65971 0.05885 0.0
C2136 C 0.58355 0.64723 0.08581 0.0
C2137 C 0.5957 0.65877 0.10999 0.0
C2138 C 0.59976 0.68272 0.10669 0.0
C2139 C 0.5925 0.69502 0.08013 0.0
C2140 C 0.59788 0.72084 0.08294 0.0
C2141 C 0.61436 0.72848 0.05664 0.0
C2142 C 0.57639 0.73574 0.08227 0.0
C2143 C 0.6088 0.72132 0.11562 0.0
C2144 C 0.60991 0.69919 0.12893 0.0
C2145 C 0.61834 0.6956 0.15972 0.0
C2146 C 0.62573 0.71515 0.17733 0.0
C2147 C 0.62456 0.73798 0.16411 0.0
C2148 C 0.61617 0.74091 0.13271 0.0
H2149 H 0.09372 0.75416 0.8352 0.0
H2150 H 0.13683 0.73157 0.91301 0.0
H2151 H 0.1252 0.76622 0.94462 0.0
H2152 H 0.10171 0.81792 0.8462 0.0
H2153 H 0.07291 0.82402 0.83627 0.0
H2154 H 0.08691 0.79922 0.81857 0.0
H2155 H 0.05561 0.77177 0.83968 0.0
H2156 H 0.04156 0.79641 0.85741 0.0
H2157 H 0.04913 0.77161 0.88185 0.0
H2158 H 0.1055 0.80114 0.96971 0.0
H2159 H 0.0793 0.83246 0.98616 0.0
H2160 H 0.04953 0.83162 0.89133 0.0
C2161 C 0.10107 0.75663 0.85867 0.0
C2162 C 0.1162 0.74013 0.87164 0.0
C2163 C 0.12528 0.74403 0.90253 0.0
C2164 C 0.11881 0.76368 0.92062 0.0
C2165 C 0.10346 0.77935 0.90729 0.0
C2166 C 0.09485 0.77606 0.8769 0.0
C2167 C 0.07739 0.79431 0.86878 0.0
C2168 C 0.0852 0.80978 0.8408 0.0
C2169 C 0.05458 0.78283 0.86153 0.0
C2170 C 0.07684 0.80793 0.89981 0.0
C2171 C 0.09221 0.79932 0.92161 0.0
C2172 C 0.09365 0.80823 0.95265 0.0
C2173 C 0.0787 0.82603 0.96177 0.0
C2174 C 0.06239 0.83456 0.94001 0.0
C2175 C 0.06191 0.82567 0.90846 0.0
loop_
_geom_bond_atom_site_label_1
_geom_bond_atom_site_label_2
_geom_bond_distance
_geom_bond_site_symmetry_2
_ccdc_geom_bond_type
Mg0 O1 2.028 . S
Mg0 O7 1.986 . S
Mg0 O9 2.114 . S
Mg0 O10 2.251 . S
Mg0 O13 2.010 . S
O1 Mg0 2.028 . S
O1 C4 1.250 . S
O2 Mg3 2.028 . S
O2 C4 1.248 . S
Mg3 O2 2.028 . S
Mg3 O8 2.032 . S
Mg3 O10 2.079 . S
C4 O1 1.250 . S
C4 O2 1.248 . S
C5 O6 1.264 . S
C5 O13 1.249 . S
O6 C5 1.264 . S
O7 Mg0 1.986 . S
O7 C11 1.246 . S
O8 Mg3 2.032 . S
O8 C11 1.259 . S
O9 Mg0 2.114 . S
O9 C12 1.252 . S
O10 Mg0 2.251 . S
O10 Mg3 2.079 . S
O10 C12 1.273 . S
C11 O7 1.246 . S
C11 O8 1.259 . S
C12 O9 1.252 . S
C12 O10 1.273 . S
O13 Mg0 2.010 . S
O13 C5 1.249 . S
Mg14 O15 2.028 1_455 S
Mg14 O21 1.986 1_455 S
Mg14 O23 2.114 . S
Mg14 O24 2.251 . S
Mg14 O27 2.010 1_455 S
O15 Mg14 2.028 1_655 S
O15 C18 1.250 . S
O16 Mg17 2.028 1_655 S
O16 C18 1.248 . S
Mg17 O16 2.028 1_455 S
Mg17 O22 2.032 . S
Mg17 O24 2.079 . S
C18 O15 1.250 . S
C18 O16 1.248 . S
C19 O20 1.264 . S
C19 O27 1.249 . S
O20 C19 1.264 . S
O21 Mg14 1.986 1_655 S
O21 C25 1.251 . S
O22 Mg17 2.032 . S
O22 C25 1.255 1_455 S
O23 Mg14 2.114 . S
O23 C26 1.252 . S
O24 Mg14 2.251 . S
O24 Mg17 2.079 . S
O24 C26 1.273 . S
C25 O21 1.251 . S
C25 O22 1.255 1_655 S
C26 O23 1.252 . S
C26 O24 1.273 . S
O27 Mg14 2.010 1_655 S
O27 C19 1.249 . S
Mg28 O29 2.028 . S
Mg28 O35 1.986 . S
Mg28 O37 2.114 . S
Mg28 O38 2.251 . S
Mg28 O41 2.010 . S
O29 Mg28 2.028 . S
O29 C32 1.250 . S
O30 Mg31 2.028 . S
O30 C32 1.248 . S
Mg31 O30 2.028 . S
Mg31 O36 2.032 . S
Mg31 O38 2.079 . S
C32 O29 1.250 . S
C32 O30 1.248 . S
C33 O34 1.264 . S
C33 O41 1.249 . S
O34 C33 1.264 . S
O35 Mg28 1.986 . S
O35 C39 1.246 . S
O36 Mg31 2.032 . S
O36 C39 1.259 . S
O37 Mg28 2.114 . S
O37 C40 1.252 . S
O38 Mg28 2.251 . S
O38 Mg31 2.079 . S
O38 C40 1.273 . S
C39 O35 1.246 . S
C39 O36 1.259 . S
C40 O37 1.252 . S
C40 O38 1.273 . S
O41 Mg28 2.010 . S
O41 C33 1.249 . S
Mg42 O43 2.028 . S
Mg42 O49 1.986 . S
Mg42 O51 2.114 . S
Mg42 O52 2.251 . S
Mg42 O55 2.010 1_554 S
O43 Mg42 2.028 . S
O43 C46 1.250 . S
O44 Mg45 2.028 . S
O44 C46 1.248 . S
Mg45 O44 2.028 . S
Mg45 O50 2.032 . S
Mg45 O52 2.079 . S
C46 O43 1.250 . S
C46 O44 1.248 . S
C47 O48 1.264 . S
C47 O55 1.249 . S
O48 C47 1.264 . S
O49 Mg42 1.986 . S
O49 C53 1.246 . S
O50 Mg45 2.032 . S
O50 C53 1.259 . S
O51 Mg42 2.114 . S
O51 C54 1.252 . S
O52 Mg42 2.251 . S
O52 Mg45 2.079 . S
O52 C54 1.273 . S
C53 O49 1.246 . S
C53 O50 1.259 . S
C54 O51 1.252 . S
C54 O52 1.273 . S
O55 Mg42 2.010 1_556 S
O55 C47 1.249 . S
Mg56 O57 2.028 . S
Mg56 O63 1.986 . S
Mg56 O65 2.114 . S
Mg56 O66 2.251 . S
Mg56 O69 2.010 . S
O57 Mg56 2.028 . S
O57 C60 1.250 . S
O58 Mg59 2.028 . S
O58 C60 1.248 . S
Mg59 O58 2.028 . S
Mg59 O64 2.032 . S
Mg59 O66 2.079 . S
C60 O57 1.250 . S
C60 O58 1.248 . S
C61 O62 1.264 . S
C61 O69 1.249 . S
O62 C61 1.264 . S
O63 Mg56 1.986 . S
O63 C67 1.246 . S
O64 Mg59 2.032 . S
O64 C67 1.259 . S
O65 Mg56 2.114 . S
O65 C68 1.252 . S
O66 Mg56 2.251 . S
O66 Mg59 2.079 . S
O66 C68 1.273 . S
C67 O63 1.246 . S
C67 O64 1.259 . S
C68 O65 1.252 . S
C68 O66 1.273 . S
O69 Mg56 2.010 . S
O69 C61 1.249 . S
Mg70 O71 2.028 . S
Mg70 O77 1.986 . S
Mg70 O79 2.114 . S
Mg70 O80 2.251 . S
Mg70 O83 2.010 . S
O71 Mg70 2.028 . S
O71 C74 1.250 . S
O72 Mg73 2.028 . S
O72 C74 1.248 . S
Mg73 O72 2.028 . S
Mg73 O78 2.032 . S
Mg73 O80 2.079 . S
C74 O71 1.250 . S
C74 O72 1.248 . S
C75 O76 1.264 . S
C75 O83 1.249 . S
O76 C75 1.264 . S
O77 Mg70 1.986 . S
O77 C81 1.246 . S
O78 Mg73 2.032 . S
O78 C81 1.259 . S
O79 Mg70 2.114 . S
O79 C82 1.252 . S
O80 Mg70 2.251 . S
O80 Mg73 2.079 . S
O80 C82 1.273 . S
C81 O77 1.246 . S
C81 O78 1.259 . S
C82 O79 1.252 . S
C82 O80 1.273 . S
O83 Mg70 2.010 . S
O83 C75 1.249 . S
Mg84 O85 2.028 . S
Mg84 O91 1.986 . S
Mg84 O93 2.114 . S
Mg84 O94 2.251 . S
Mg84 O97 2.010 . S
O85 Mg84 2.028 . S
O85 C88 1.250 . S
O86 Mg87 2.028 . S
O86 C88 1.248 . S
Mg87 O86 2.028 . S
Mg87 O92 2.032 . S
Mg87 O94 2.079 . S
C88 O85 1.250 . S
C88 O86 1.248 . S
C89 O90 1.264 . S
C89 O97 1.249 . S
O90 C89 1.264 . S
O91 Mg84 1.986 . S
O91 C95 1.246 . S
O92 Mg87 2.032 . S
O92 C95 1.259 . S
O93 Mg84 2.114 . S
O93 C96 1.252 . S
O94 Mg84 2.251 . S
O94 Mg87 2.079 . S
O94 C96 1.273 . S
C95 O91 1.246 . S
C95 O92 1.259 . S
C96 O93 1.252 . S
C96 O94 1.273 . S
O97 Mg84 2.010 . S
O97 C89 1.249 . S
Mg98 O99 2.028 1_455 S
Mg98 O105 1.986 1_455 S
Mg98 O107 2.114 . S
Mg98 O108 2.251 . S
Mg98 O111 2.010 1_456 S
O99 Mg98 2.028 1_655 S
O99 C102 1.250 . S
O100 Mg101 2.028 1_655 S
O100 C102 1.248 . S
Mg101 O100 2.028 1_455 S
Mg101 O106 2.032 . S
Mg101 O108 2.079 . S
C102 O99 1.250 . S
C102 O100 1.248 . S
C103 O104 1.264 . S
C103 O111 1.249 . S
O104 C103 1.264 . S
O105 Mg98 1.986 1_655 S
O105 C109 1.251 . S
O106 Mg101 2.032 . S
O106 C109 1.255 1_455 S
O107 Mg98 2.114 . S
O107 C110 1.252 . S
O108 Mg98 2.251 . S
O108 Mg101 2.079 . S
O108 C110 1.273 . S
C109 O105 1.251 . S
C109 O106 1.255 1_655 S
C110 O107 1.252 . S
C110 O108 1.273 . S
O111 Mg98 2.010 1_654 S
O111 C103 1.249 . S
Mg112 O113 2.028 . S
Mg112 O119 1.986 . S
Mg112 O121 2.114 . S
Mg112 O122 2.251 . S
Mg112 O125 2.010 . S
O113 Mg112 2.028 . S
O113 C116 1.250 . S
O114 Mg115 2.028 . S
O114 C116 1.248 . S
Mg115 O114 2.028 . S
Mg115 O120 2.032 . S
Mg115 O122 2.079 . S
C116 O113 1.250 . S
C116 O114 1.248 . S
C117 O118 1.264 . S
C117 O125 1.249 . S
O118 C117 1.264 . S
O119 Mg112 1.986 . S
O119 C123 1.246 . S
O120 Mg115 2.032 . S
O120 C123 1.259 . S
O121 Mg112 2.114 . S
O121 C124 1.252 . S
O122 Mg112 2.251 . S
O122 Mg115 2.079 . S
O122 C124 1.273 . S
C123 O119 1.246 . S
C123 O120 1.259 . S
C124 O121 1.252 . S
C124 O122 1.273 . S
O125 Mg112 2.010 . S
O125 C117 1.249 . S
Mg126 O127 2.028 . S
Mg126 O133 1.986 . S
Mg126 O135 2.114 1_455 S
Mg126 O136 2.251 1_455 S
Mg126 O139 2.010 . S
O127 Mg126 2.028 . S
O127 C130 1.250 . S
O128 Mg129 2.028 . S
O128 C130 1.248 . S
Mg129 O128 2.028 . S
Mg129 O134 2.032 . S
Mg129 O136 2.079 1_455 S
C130 O127 1.250 . S
C130 O128 1.248 . S
C131 O132 1.264 . S
C131 O139 1.249 . S
O132 C131 1.264 . S
O133 Mg126 1.986 . S
O133 C137 1.246 . S
O134 Mg129 2.032 . S
O134 C137 1.259 . S
O135 Mg126 2.114 1_655 S
O135 C138 1.252 . S
O136 Mg126 2.251 1_655 S
O136 Mg129 2.079 1_655 S
O136 C138 1.273 . S
C137 O133 1.246 . S
C137 O134 1.259 . S
C138 O135 1.252 . S
C138 O136 1.273 . S
O139 Mg126 2.010 . S
O139 C131 1.249 . S
Mg140 O141 2.028 . S
Mg140 O147 1.986 . S
Mg140 O149 2.114 . S
Mg140 O150 2.251 . S
Mg140 O153 2.010 . S
O141 Mg140 2.028 . S
O141 C144 1.250 . S
O142 Mg143 2.028 . S
O142 C144 1.248 . S
Mg143 O142 2.028 . S
Mg143 O148 2.032 . S
Mg143 O150 2.079 . S
C144 O141 1.250 . S
C144 O142 1.248 . S
C145 O146 1.264 . S
C145 O153 1.249 . S
O146 C145 1.264 . S
O147 Mg140 1.986 . S
O147 C151 1.246 . S
O148 Mg143 2.032 . S
O148 C151 1.259 . S
O149 Mg140 2.114 . S
O149 C152 1.252 . S
O150 Mg140 2.251 . S
O150 Mg143 2.079 . S
O150 C152 1.273 . S
C151 O147 1.246 . S
C151 O148 1.259 . S
C152 O149 1.252 . S
C152 O150 1.273 . S
O153 Mg140 2.010 . S
O153 C145 1.249 . S
Mg154 O155 2.028 . S
Mg154 O161 1.986 . S
Mg154 O163 2.114 . S
Mg154 O164 2.251 . S
Mg154 O167 2.010 1_556 S
O155 Mg154 2.028 . S
O155 C158 1.250 . S
O156 Mg157 2.028 . S
O156 C158 1.248 . S
Mg157 O156 2.028 . S
Mg157 O162 2.032 . S
Mg157 O164 2.079 . S
C158 O155 1.250 . S
C158 O156 1.248 . S
C159 O160 1.264 . S
C159 O167 1.249 . S
O160 C159 1.264 . S
O161 Mg154 1.986 . S
O161 C165 1.246 . S
O162 Mg157 2.032 . S
O162 C165 1.259 . S
O163 Mg154 2.114 . S
O163 C166 1.252 . S
O164 Mg154 2.251 . S
O164 Mg157 2.079 . S
O164 C166 1.273 . S
C165 O161 1.246 . S
C165 O162 1.259 . S
C166 O163 1.252 . S
C166 O164 1.273 . S
O167 Mg154 2.010 1_554 S
O167 C159 1.249 . S
Mg168 O169 2.028 . S
Mg168 O175 1.986 . S
Mg168 O177 2.114 . S
Mg168 O178 2.251 . S
Mg168 O181 2.010 . S
O169 Mg168 2.028 . S
O169 C172 1.250 . S
O170 Mg171 2.028 . S
O170 C172 1.248 . S
Mg171 O170 2.028 . S
Mg171 O176 2.032 . S
Mg171 O178 2.079 . S
C172 O169 1.250 . S
C172 O170 1.248 . S
C173 O174 1.264 . S
C173 O181 1.249 . S
O174 C173 1.264 . S
O175 Mg168 1.986 . S
O175 C179 1.246 . S
O176 Mg171 2.032 . S
O176 C179 1.259 . S
O177 Mg168 2.114 . S
O177 C180 1.252 . S
O178 Mg168 2.251 . S
O178 Mg171 2.079 . S
O178 C180 1.273 . S
C179 O175 1.246 . S
C179 O176 1.259 . S
C180 O177 1.252 . S
C180 O178 1.273 . S
O181 Mg168 2.010 . S
O181 C173 1.249 . S
Mg182 O183 2.028 . S
Mg182 O189 1.986 . S
Mg182 O191 2.114 . S
Mg182 O192 2.251 . S
Mg182 O195 2.010 . S
O183 Mg182 2.028 . S
O183 C186 1.250 . S
O184 Mg185 2.028 . S
O184 C186 1.248 . S
Mg185 O184 2.028 . S
Mg185 O190 2.032 . S
Mg185 O192 2.079 . S
C186 O183 1.250 . S
C186 O184 1.248 . S
C187 O188 1.264 . S
C187 O195 1.249 . S
O188 C187 1.264 . S
O189 Mg182 1.986 . S
O189 C193 1.246 . S
O190 Mg185 2.032 . S
O190 C193 1.259 . S
O191 Mg182 2.114 . S
O191 C194 1.252 . S
O192 Mg182 2.251 . S
O192 Mg185 2.079 . S
O192 C194 1.273 . S
C193 O189 1.246 . S
C193 O190 1.259 . S
C194 O191 1.252 . S
C194 O192 1.273 . S
O195 Mg182 2.010 . S
O195 C187 1.249 . S
Mg196 O197 2.028 . S
Mg196 O203 1.986 . S
Mg196 O205 2.114 . S
Mg196 O206 2.251 . S
Mg196 O209 2.010 . S
O197 Mg196 2.028 . S
O197 C200 1.250 . S
O198 Mg199 2.028 . S
O198 C200 1.248 . S
Mg199 O198 2.028 . S
Mg199 O204 2.032 . S
Mg199 O206 2.079 . S
C200 O197 1.250 . S
C200 O198 1.248 . S
C201 O202 1.264 . S
C201 O209 1.249 . S
O202 C201 1.264 . S
O203 Mg196 1.986 . S
O203 C207 1.246 . S
O204 Mg199 2.032 . S
O204 C207 1.259 . S
O205 Mg196 2.114 . S
O205 C208 1.252 . S
O206 Mg196 2.251 . S
O206 Mg199 2.079 . S
O206 C208 1.273 . S
C207 O203 1.246 . S
C207 O204 1.259 . S
C208 O205 1.252 . S
C208 O206 1.273 . S
O209 Mg196 2.010 . S
O209 C201 1.249 . S
Mg210 O211 2.028 . S
Mg210 O217 1.986 . S
Mg210 O219 2.114 1_455 S
Mg210 O220 2.251 1_455 S
Mg210 O223 2.010 1_554 S
O211 Mg210 2.028 . S
O211 C214 1.250 . S
O212 Mg213 2.028 . S
O212 C214 1.248 . S
Mg213 O212 2.028 . S
Mg213 O218 2.032 . S
Mg213 O220 2.079 1_455 S
C214 O211 1.250 . S
C214 O212 1.248 . S
C215 O216 1.264 . S
C215 O223 1.249 . S
O216 C215 1.264 . S
O217 Mg210 1.986 . S
O217 C221 1.246 . S
O218 Mg213 2.032 . S
O218 C221 1.259 . S
O219 Mg210 2.114 1_655 S
O219 C222 1.252 . S
O220 Mg210 2.251 1_655 S
O220 Mg213 2.079 1_655 S
O220 C222 1.273 . S
C221 O217 1.246 . S
C221 O218 1.259 . S
C222 O219 1.252 . S
C222 O220 1.273 . S
O223 Mg210 2.010 1_556 S
O223 C215 1.249 . S
Mg224 O225 2.028 . S
Mg224 O231 1.986 . S
Mg224 O233 2.114 . S
Mg224 O234 2.251 . S
Mg224 O237 2.010 . S
O225 Mg224 2.028 . S
O225 C228 1.250 . S
O226 Mg227 2.028 . S
O226 C228 1.248 . S
Mg227 O226 2.028 . S
Mg227 O232 2.032 . S
Mg227 O234 2.079 . S
C228 O225 1.250 . S
C228 O226 1.248 . S
C229 O230 1.264 . S
C229 O237 1.249 . S
O230 C229 1.264 . S
O231 Mg224 1.986 . S
O231 C235 1.246 . S
O232 Mg227 2.032 . S
O232 C235 1.259 . S
O233 Mg224 2.114 . S
O233 C236 1.252 . S
O234 Mg224 2.251 . S
O234 Mg227 2.079 . S
O234 C236 1.273 . S
C235 O231 1.246 . S
C235 O232 1.259 . S
C236 O233 1.252 . S
C236 O234 1.273 . S
O237 Mg224 2.010 . S
O237 C229 1.249 . S
Mg238 O239 2.028 . S
Mg238 O245 1.986 . S
Mg238 O247 2.114 . S
Mg238 O248 2.251 . S
Mg238 O251 2.010 1_554 S
O239 Mg238 2.028 . S
O239 C242 1.250 . S
O240 Mg241 2.028 . S
O240 C242 1.248 . S
Mg241 O240 2.028 . S
Mg241 O246 2.032 . S
Mg241 O248 2.079 . S
C242 O239 1.250 . S
C242 O240 1.248 . S
C243 O244 1.264 . S
C243 O251 1.249 . S
O244 C243 1.264 . S
O245 Mg238 1.986 . S
O245 C249 1.246 . S
O246 Mg241 2.032 . S
O246 C249 1.259 . S
O247 Mg238 2.114 . S
O247 C250 1.252 . S
O248 Mg238 2.251 . S
O248 Mg241 2.079 . S
O248 C250 1.273 . S
C249 O245 1.246 . S
C249 O246 1.259 . S
C250 O247 1.252 . S
C250 O248 1.273 . S
O251 Mg238 2.010 1_556 S
O251 C243 1.249 . S
Mg252 O253 2.028 . S
Mg252 O259 1.986 . S
Mg252 O261 2.114 . S
Mg252 O262 2.251 . S
Mg252 O265 2.010 . S
O253 Mg252 2.028 . S
O253 C256 1.250 . S
O254 Mg255 2.028 . S
O254 C256 1.248 . S
Mg255 O254 2.028 . S
Mg255 O260 2.032 . S
Mg255 O262 2.079 . S
C256 O253 1.250 . S
C256 O254 1.248 . S
C257 O258 1.264 . S
C257 O265 1.249 . S
O258 C257 1.264 . S
O259 Mg252 1.986 . S
O259 C263 1.246 . S
O260 Mg255 2.032 . S
O260 C263 1.259 . S
O261 Mg252 2.114 . S
O261 C264 1.252 . S
O262 Mg252 2.251 . S
O262 Mg255 2.079 . S
O262 C264 1.273 . S
C263 O259 1.246 . S
C263 O260 1.259 . S
C264 O261 1.252 . S
C264 O262 1.273 . S
O265 Mg252 2.010 . S
O265 C257 1.249 . S
Mg266 O267 2.028 1_655 S
Mg266 O273 1.986 1_655 S
Mg266 O275 2.114 . S
Mg266 O276 2.251 . S
Mg266 O279 2.010 1_655 S
O267 Mg266 2.028 1_455 S
O267 C270 1.250 . S
O268 Mg269 2.028 1_455 S
O268 C270 1.248 . S
Mg269 O268 2.028 1_655 S
Mg269 O274 2.032 . S
Mg269 O276 2.079 . S
C270 O267 1.250 . S
C270 O268 1.248 . S
C271 O272 1.264 . S
C271 O279 1.249 . S
O272 C271 1.264 . S
O273 Mg266 1.986 1_455 S
O273 C277 1.251 . S
O274 Mg269 2.032 . S
O274 C277 1.255 1_655 S
O275 Mg266 2.114 . S
O275 C278 1.252 . S
O276 Mg266 2.251 . S
O276 Mg269 2.079 . S
O276 C278 1.273 . S
C277 O273 1.251 . S
C277 O274 1.255 1_455 S
C278 O275 1.252 . S
C278 O276 1.273 . S
O279 Mg266 2.010 1_455 S
O279 C271 1.249 . S
Mg280 O281 2.028 . S
Mg280 O287 1.986 . S
Mg280 O289 2.114 . S
Mg280 O290 2.251 . S
Mg280 O293 2.010 . S
O281 Mg280 2.028 . S
O281 C284 1.250 . S
O282 Mg283 2.028 . S
O282 C284 1.248 . S
Mg283 O282 2.028 . S
Mg283 O288 2.032 . S
Mg283 O290 2.079 . S
C284 O281 1.250 . S
C284 O282 1.248 . S
C285 O286 1.264 . S
C285 O293 1.249 . S
O286 C285 1.264 . S
O287 Mg280 1.986 . S
O287 C291 1.246 . S
O288 Mg283 2.032 . S
O288 C291 1.259 . S
O289 Mg280 2.114 . S
O289 C292 1.252 . S
O290 Mg280 2.251 . S
O290 Mg283 2.079 . S
O290 C292 1.273 . S
C291 O287 1.246 . S
C291 O288 1.259 . S
C292 O289 1.252 . S
C292 O290 1.273 . S
O293 Mg280 2.010 . S
O293 C285 1.249 . S
Mg294 O295 2.028 1_655 S
Mg294 O301 1.986 1_655 S
Mg294 O303 2.114 . S
Mg294 O304 2.251 . S
Mg294 O307 2.010 1_656 S
O295 Mg294 2.028 1_455 S
O295 C298 1.250 . S
O296 Mg297 2.028 1_455 S
O296 C298 1.248 . S
Mg297 O296 2.028 1_655 S
Mg297 O302 2.032 . S
Mg297 O304 2.079 . S
C298 O295 1.250 . S
C298 O296 1.248 . S
C299 O300 1.264 . S
C299 O307 1.249 . S
O300 C299 1.264 . S
O301 Mg294 1.986 1_455 S
O301 C305 1.251 . S
O302 Mg297 2.032 . S
O302 C305 1.255 1_655 S
O303 Mg294 2.114 . S
O303 C306 1.252 . S
O304 Mg294 2.251 . S
O304 Mg297 2.079 . S
O304 C306 1.273 . S
C305 O301 1.251 . S
C305 O302 1.255 1_455 S
C306 O303 1.252 . S
C306 O304 1.273 . S
O307 Mg294 2.010 1_454 S
O307 C299 1.249 . S
Mg308 O309 2.028 . S
Mg308 O315 1.986 . S
Mg308 O317 2.114 . S
Mg308 O318 2.251 . S
Mg308 O321 2.010 . S
O309 Mg308 2.028 . S
O309 C312 1.250 . S
O310 Mg311 2.028 . S
O310 C312 1.248 . S
Mg311 O310 2.028 . S
Mg311 O316 2.032 . S
Mg311 O318 2.079 . S
C312 O309 1.250 . S
C312 O310 1.248 . S
C313 O314 1.264 . S
C313 O321 1.249 . S
O314 C313 1.264 . S
O315 Mg308 1.986 . S
O315 C319 1.246 . S
O316 Mg311 2.032 . S
O316 C319 1.259 . S
O317 Mg308 2.114 . S
O317 C320 1.252 . S
O318 Mg308 2.251 . S
O318 Mg311 2.079 . S
O318 C320 1.273 . S
C319 O315 1.246 . S
C319 O316 1.259 . S
C320 O317 1.252 . S
C320 O318 1.273 . S
O321 Mg308 2.010 . S
O321 C313 1.249 . S
Mg322 O323 2.028 . S
Mg322 O329 1.986 . S
Mg322 O331 2.114 . S
Mg322 O332 2.251 . S
Mg322 O335 2.010 . S
O323 Mg322 2.028 . S
O323 C326 1.250 . S
O324 Mg325 2.028 . S
O324 C326 1.248 . S
Mg325 O324 2.028 . S
Mg325 O330 2.032 . S
Mg325 O332 2.079 . S
C326 O323 1.250 . S
C326 O324 1.248 . S
C327 O328 1.264 . S
C327 O335 1.249 . S
O328 C327 1.264 . S
O329 Mg322 1.986 . S
O329 C333 1.246 . S
O330 Mg325 2.032 . S
O330 C333 1.259 . S
O331 Mg322 2.114 . S
O331 C334 1.252 . S
O332 Mg322 2.251 . S
O332 Mg325 2.079 . S
O332 C334 1.273 . S
C333 O329 1.246 . S
C333 O330 1.259 . S
C334 O331 1.252 . S
C334 O332 1.273 . S
O335 Mg322 2.010 . S
O335 C327 1.249 . S
Mg336 O337 2.028 . S
Mg336 O343 1.986 . S
Mg336 O345 2.114 . S
Mg336 O346 2.251 . S
Mg336 O349 2.010 . S
O337 Mg336 2.028 . S
O337 C340 1.250 . S
O338 Mg339 2.028 . S
O338 C340 1.248 . S
Mg339 O338 2.028 . S
Mg339 O344 2.032 . S
Mg339 O346 2.079 . S
C340 O337 1.250 . S
C340 O338 1.248 . S
C341 O342 1.264 . S
C341 O349 1.249 . S
O342 C341 1.264 . S
O343 Mg336 1.986 . S
O343 C347 1.246 . S
O344 Mg339 2.032 . S
O344 C347 1.259 . S
O345 Mg336 2.114 . S
O345 C348 1.252 . S
O346 Mg336 2.251 . S
O346 Mg339 2.079 . S
O346 C348 1.273 . S
C347 O343 1.246 . S
C347 O344 1.259 . S
C348 O345 1.252 . S
C348 O346 1.273 . S
O349 Mg336 2.010 . S
O349 C341 1.249 . S
Mg350 O351 2.028 . S
Mg350 O357 1.986 . S
Mg350 O359 2.114 . S
Mg350 O360 2.251 . S
Mg350 O363 2.010 1_556 S
O351 Mg350 2.028 . S
O351 C354 1.250 . S
O352 Mg353 2.028 . S
O352 C354 1.248 . S
Mg353 O352 2.028 . S
Mg353 O358 2.032 . S
Mg353 O360 2.079 . S
C354 O351 1.250 . S
C354 O352 1.248 . S
C355 O356 1.264 . S
C355 O363 1.249 . S
O356 C355 1.264 . S
O357 Mg350 1.986 . S
O357 C361 1.246 . S
O358 Mg353 2.032 . S
O358 C361 1.259 . S
O359 Mg350 2.114 . S
O359 C362 1.252 . S
O360 Mg350 2.251 . S
O360 Mg353 2.079 . S
O360 C362 1.273 . S
C361 O357 1.246 . S
C361 O358 1.259 . S
C362 O359 1.252 . S
C362 O360 1.273 . S
O363 Mg350 2.010 1_554 S
O363 C355 1.249 . S
Mg364 O365 2.028 . S
Mg364 O371 1.986 . S
Mg364 O373 2.114 . S
Mg364 O374 2.251 . S
Mg364 O377 2.010 . S
O365 Mg364 2.028 . S
O365 C368 1.250 . S
O366 Mg367 2.028 . S
O366 C368 1.248 . S
Mg367 O366 2.028 . S
Mg367 O372 2.032 . S
Mg367 O374 2.079 . S
C368 O365 1.250 . S
C368 O366 1.248 . S
C369 O370 1.264 . S
C369 O377 1.249 . S
O370 C369 1.264 . S
O371 Mg364 1.986 . S
O371 C375 1.246 . S
O372 Mg367 2.032 . S
O372 C375 1.259 . S
O373 Mg364 2.114 . S
O373 C376 1.252 . S
O374 Mg364 2.251 . S
O374 Mg367 2.079 . S
O374 C376 1.273 . S
C375 O371 1.246 . S
C375 O372 1.259 . S
C376 O373 1.252 . S
C376 O374 1.273 . S
O377 Mg364 2.010 . S
O377 C369 1.249 . S
Mg378 O379 2.028 . S
Mg378 O385 1.986 . S
Mg378 O387 2.114 1_655 S
Mg378 O388 2.251 1_655 S
Mg378 O391 2.010 . S
O379 Mg378 2.028 . S
O379 C382 1.250 . S
O380 Mg381 2.028 . S
O380 C382 1.248 . S
Mg381 O380 2.028 . S
Mg381 O386 2.032 . S
Mg381 O388 2.079 1_655 S
C382 O379 1.250 . S
C382 O380 1.248 . S
C383 O384 1.264 . S
C383 O391 1.249 . S
O384 C383 1.264 . S
O385 Mg378 1.986 . S
O385 C389 1.246 . S
O386 Mg381 2.032 . S
O386 C389 1.259 . S
O387 Mg378 2.114 1_455 S
O387 C390 1.252 . S
O388 Mg378 2.251 1_455 S
O388 Mg381 2.079 1_455 S
O388 C390 1.273 . S
C389 O385 1.246 . S
C389 O386 1.259 . S
C390 O387 1.252 . S
C390 O388 1.273 . S
O391 Mg378 2.010 . S
O391 C383 1.249 . S
Mg392 O393 2.028 . S
Mg392 O399 1.986 . S
Mg392 O401 2.114 . S
Mg392 O402 2.251 . S
Mg392 O405 2.010 . S
O393 Mg392 2.028 . S
O393 C396 1.250 . S
O394 Mg395 2.028 . S
O394 C396 1.248 . S
Mg395 O394 2.028 . S
Mg395 O400 2.032 . S
Mg395 O402 2.079 . S
C396 O393 1.250 . S
C396 O394 1.248 . S
C397 O398 1.264 . S
C397 O405 1.249 . S
O398 C397 1.264 . S
O399 Mg392 1.986 . S
O399 C403 1.246 . S
O400 Mg395 2.032 . S
O400 C403 1.259 . S
O401 Mg392 2.114 . S
O401 C404 1.252 . S
O402 Mg392 2.251 . S
O402 Mg395 2.079 . S
O402 C404 1.273 . S
C403 O399 1.246 . S
C403 O400 1.259 . S
C404 O401 1.252 . S
C404 O402 1.273 . S
O405 Mg392 2.010 . S
O405 C397 1.249 . S
Mg406 O407 2.028 . S
Mg406 O413 1.986 . S
Mg406 O415 2.114 1_655 S
Mg406 O416 2.251 1_655 S
Mg406 O419 2.010 1_554 S
O407 Mg406 2.028 . S
O407 C410 1.250 . S
O408 Mg409 2.028 . S
O408 C410 1.248 . S
Mg409 O408 2.028 . S
Mg409 O414 2.032 . S
Mg409 O416 2.079 1_655 S
C410 O407 1.250 . S
C410 O408 1.248 . S
C411 O412 1.264 . S
C411 O419 1.249 . S
O412 C411 1.264 . S
O413 Mg406 1.986 . S
O413 C417 1.246 . S
O414 Mg409 2.032 . S
O414 C417 1.259 . S
O415 Mg406 2.114 1_455 S
O415 C418 1.252 . S
O416 Mg406 2.251 1_455 S
O416 Mg409 2.079 1_455 S
O416 C418 1.273 . S
C417 O413 1.246 . S
C417 O414 1.259 . S
C418 O415 1.252 . S
C418 O416 1.273 . S
O419 Mg406 2.010 1_556 S
O419 C411 1.249 . S
Mg420 O421 2.028 . S
Mg420 O427 1.986 . S
Mg420 O429 2.114 . S
Mg420 O430 2.251 . S
Mg420 O433 2.010 . S
O421 Mg420 2.028 . S
O421 C424 1.250 . S
O422 Mg423 2.028 . S
O422 C424 1.248 . S
Mg423 O422 2.028 . S
Mg423 O428 2.032 . S
Mg423 O430 2.079 . S
C424 O421 1.250 . S
C424 O422 1.248 . S
C425 O426 1.264 . S
C425 O433 1.249 . S
O426 C425 1.264 . S
O427 Mg420 1.986 . S
O427 C431 1.246 . S
O428 Mg423 2.032 . S
O428 C431 1.259 . S
O429 Mg420 2.114 . S
O429 C432 1.252 . S
O430 Mg420 2.251 . S
O430 Mg423 2.079 . S
O430 C432 1.273 . S
C431 O427 1.246 . S
C431 O428 1.259 . S
C432 O429 1.252 . S
C432 O430 1.273 . S
O433 Mg420 2.010 . S
O433 C425 1.249 . S
Mg434 O435 2.028 . S
Mg434 O441 1.986 . S
Mg434 O443 2.114 . S
Mg434 O444 2.251 . S
Mg434 O447 2.010 . S
O435 Mg434 2.028 . S
O435 C438 1.250 . S
O436 Mg437 2.028 . S
O436 C438 1.248 . S
Mg437 O436 2.028 . S
Mg437 O442 2.032 . S
Mg437 O444 2.079 . S
C438 O435 1.250 . S
C438 O436 1.248 . S
C439 O440 1.264 . S
C439 O447 1.249 . S
O440 C439 1.264 . S
O441 Mg434 1.986 . S
O441 C445 1.246 . S
O442 Mg437 2.032 . S
O442 C445 1.259 . S
O443 Mg434 2.114 . S
O443 C446 1.252 . S
O444 Mg434 2.251 . S
O444 Mg437 2.079 . S
O444 C446 1.273 . S
C445 O441 1.246 . S
C445 O442 1.259 . S
C446 O443 1.252 . S
C446 O444 1.273 . S
O447 Mg434 2.010 . S
O447 C439 1.249 . S
H448 C460 0.930 . S
H449 C462 0.930 . S
H450 C463 0.930 . S
H451 C467 0.959 . S
H452 C467 0.959 . S
H453 C467 0.961 . S
H454 C468 0.960 . S
H455 C468 0.961 . S
H456 C468 0.959 . S
H457 C471 0.929 . S
H458 C472 0.931 . S
H459 C474 0.930 . S
C460 H448 0.930 . S
C460 C461 1.399 . S
C460 C465 1.399 . S
C461 C460 1.399 . S
C461 C462 1.376 . S
C462 H449 0.930 . S
C462 C461 1.376 . S
C462 C463 1.388 . S
C463 H450 0.930 . S
C463 C462 1.388 . S
C463 C464 1.390 . S
C464 C463 1.390 . S
C464 C465 1.394 . S
C464 C470 1.465 . S
C465 C460 1.399 . S
C465 C464 1.394 . S
C465 C466 1.516 . S
C466 C465 1.516 . S
C466 C467 1.502 . S
C466 C468 1.561 . S
C466 C469 1.526 . S
C467 H451 0.959 . S
C467 H452 0.959 . S
C467 H453 0.961 . S
C467 C466 1.502 . S
C468 H454 0.960 . S
C468 H455 0.961 . S
C468 H456 0.959 . S
C468 C466 1.561 . S
C469 C466 1.526 . S
C469 C470 1.396 . S
C469 C474 1.390 . S
C470 C464 1.465 . S
C470 C469 1.396 . S
C470 C471 1.399 . S
C471 H457 0.929 . S
C471 C470 1.399 . S
C471 C472 1.385 . S
C472 H458 0.931 . S
C472 C471 1.385 . S
C472 C473 1.389 . S
C473 C472 1.389 . S
C473 C474 1.387 . S
C474 H459 0.930 . S
C474 C469 1.390 . S
C474 C473 1.387 . S
H475 C487 0.930 . S
H476 C489 0.930 . S
H477 C490 0.930 . S
H478 C494 0.959 . S
H479 C494 0.959 . S
H480 C494 0.961 . S
H481 C495 0.960 . S
H482 C495 0.961 . S
H483 C495 0.959 . S
H484 C498 0.929 . S
H485 C499 0.931 . S
H486 C501 0.930 . S
C487 H475 0.930 . S
C487 C488 1.399 . S
C487 C492 1.399 . S
C488 C487 1.399 . S
C488 C489 1.376 . S
C489 H476 0.930 . S
C489 C488 1.376 . S
C489 C490 1.388 . S
C490 H477 0.930 . S
C490 C489 1.388 . S
C490 C491 1.390 . S
C491 C490 1.390 . S
C491 C492 1.394 . S
C491 C497 1.465 . S
C492 C487 1.399 . S
C492 C491 1.394 . S
C492 C493 1.516 . S
C493 C492 1.516 . S
C493 C494 1.502 . S
C493 C495 1.561 . S
C493 C496 1.526 . S
C494 H478 0.959 . S
C494 H479 0.959 . S
C494 H480 0.961 . S
C494 C493 1.502 . S
C495 H481 0.960 . S
C495 H482 0.961 . S
C495 H483 0.959 . S
C495 C493 1.561 . S
C496 C493 1.526 . S
C496 C497 1.396 . S
C496 C501 1.390 . S
C497 C491 1.465 . S
C497 C496 1.396 . S
C497 C498 1.399 . S
C498 H484 0.929 . S
C498 C497 1.399 . S
C498 C499 1.385 . S
C499 H485 0.931 . S
C499 C498 1.385 . S
C499 C500 1.389 . S
C500 C499 1.389 . S
C500 C501 1.387 . S
C501 H486 0.930 . S
C501 C496 1.390 . S
C501 C500 1.387 . S
H502 C514 0.930 . S
H503 C516 0.930 . S
H504 C517 0.930 . S
H505 C521 0.959 . S
H506 C521 0.959 . S
H507 C521 0.961 . S
H508 C522 0.960 . S
H509 C522 0.961 . S
H510 C522 0.959 . S
H511 C525 0.929 . S
H512 C526 0.931 . S
H513 C528 0.930 . S
C514 H502 0.930 . S
C514 C515 1.399 . S
C514 C519 1.399 . S
C515 C514 1.399 . S
C515 C516 1.376 . S
C516 H503 0.930 . S
C516 C515 1.376 . S
C516 C517 1.388 . S
C517 H504 0.930 . S
C517 C516 1.388 . S
C517 C518 1.390 . S
C518 C517 1.390 . S
C518 C519 1.394 . S
C518 C524 1.465 . S
C519 C514 1.399 . S
C519 C518 1.394 . S
C519 C520 1.516 . S
C520 C519 1.516 . S
C520 C521 1.502 . S
C520 C522 1.561 . S
C520 C523 1.526 . S
C521 H505 0.959 . S
C521 H506 0.959 . S
C521 H507 0.961 . S
C521 C520 1.502 . S
C522 H508 0.960 . S
C522 H509 0.961 . S
C522 H510 0.959 . S
C522 C520 1.561 . S
C523 C520 1.526 . S
C523 C524 1.396 . S
C523 C528 1.390 . S
C524 C518 1.465 . S
C524 C523 1.396 . S
C524 C525 1.399 . S
C525 H511 0.929 . S
C525 C524 1.399 . S
C525 C526 1.385 . S
C526 H512 0.931 . S
C526 C525 1.385 . S
C526 C527 1.389 . S
C527 C526 1.389 . S
C527 C528 1.387 . S
C528 H513 0.930 . S
C528 C523 1.390 . S
C528 C527 1.387 . S
H529 C541 0.930 . S
H530 C543 0.930 . S
H531 C544 0.930 . S
H532 C548 0.959 . S
H533 C548 0.959 . S
H534 C548 0.961 . S
H535 C549 0.960 . S
H536 C549 0.961 . S
H537 C549 0.959 . S
H538 C552 0.929 . S
H539 C553 0.931 . S
H540 C555 0.930 . S
C541 H529 0.930 . S
C541 C542 1.399 . S
C541 C546 1.399 . S
C542 C541 1.399 . S
C542 C543 1.376 . S
C543 H530 0.930 . S
C543 C542 1.376 . S
C543 C544 1.388 . S
C544 H531 0.930 . S
C544 C543 1.388 . S
C544 C545 1.390 . S
C545 C544 1.390 . S
C545 C546 1.394 . S
C545 C551 1.465 . S
C546 C541 1.399 . S
C546 C545 1.394 . S
C546 C547 1.516 . S
C547 C546 1.516 . S
C547 C548 1.502 . S
C547 C549 1.561 . S
C547 C550 1.526 . S
C548 H532 0.959 . S
C548 H533 0.959 . S
C548 H534 0.961 . S
C548 C547 1.502 . S
C549 H535 0.960 . S
C549 H536 0.961 . S
C549 H537 0.959 . S
C549 C547 1.561 . S
C550 C547 1.526 . S
C550 C551 1.396 . S
C550 C555 1.390 . S
C551 C545 1.465 . S
C551 C550 1.396 . S
C551 C552 1.399 . S
C552 H538 0.929 . S
C552 C551 1.399 . S
C552 C553 1.385 . S
C553 H539 0.931 . S
C553 C552 1.385 . S
C553 C554 1.389 . S
C554 C553 1.389 . S
C554 C555 1.387 . S
C555 H540 0.930 . S
C555 C550 1.390 . S
C555 C554 1.387 . S
H556 C568 0.930 . S
H557 C570 0.930 . S
H558 C571 0.930 . S
H559 C575 0.959 . S
H560 C575 0.959 . S
H561 C575 0.961 . S
H562 C576 0.960 . S
H563 C576 0.961 . S
H564 C576 0.959 . S
H565 C579 0.929 . S
H566 C580 0.931 . S
H567 C582 0.930 . S
C568 H556 0.930 . S
C568 C569 1.399 . S
C568 C573 1.399 . S
C569 C568 1.399 . S
C569 C570 1.376 . S
C570 H557 0.930 . S
C570 C569 1.376 . S
C570 C571 1.388 . S
C571 H558 0.930 . S
C571 C570 1.388 . S
C571 C572 1.390 . S
C572 C571 1.390 . S
C572 C573 1.394 . S
C572 C578 1.465 . S
C573 C568 1.399 . S
C573 C572 1.394 . S
C573 C574 1.516 . S
C574 C573 1.516 . S
C574 C575 1.502 . S
C574 C576 1.561 . S
C574 C577 1.526 . S
C575 H559 0.959 . S
C575 H560 0.959 . S
C575 H561 0.961 . S
C575 C574 1.502 . S
C576 H562 0.960 . S
C576 H563 0.961 . S
C576 H564 0.959 . S
C576 C574 1.561 . S
C577 C574 1.526 . S
C577 C578 1.396 . S
C577 C582 1.390 . S
C578 C572 1.465 . S
C578 C577 1.396 . S
C578 C579 1.399 . S
C579 H565 0.929 . S
C579 C578 1.399 . S
C579 C580 1.385 . S
C580 H566 0.931 . S
C580 C579 1.385 . S
C580 C581 1.389 . S
C581 C580 1.389 . S
C581 C582 1.387 . S
C582 H567 0.930 . S
C582 C577 1.390 . S
C582 C581 1.387 . S
H583 C595 0.930 . S
H584 C597 0.930 . S
H585 C598 0.930 . S
H586 C602 0.959 . S
H587 C602 0.959 . S
H588 C602 0.961 . S
H589 C603 0.960 . S
H590 C603 0.961 . S
H591 C603 0.959 . S
H592 C606 0.929 . S
H593 C607 0.931 . S
H594 C609 0.930 . S
C595 H583 0.930 . S
C595 C596 1.399 . S
C595 C600 1.399 . S
C596 C595 1.399 . S
C596 C597 1.376 . S
C597 H584 0.930 . S
C597 C596 1.376 . S
C597 C598 1.388 . S
C598 H585 0.930 . S
C598 C597 1.388 . S
C598 C599 1.390 . S
C599 C598 1.390 . S
C599 C600 1.394 . S
C599 C605 1.465 . S
C600 C595 1.399 . S
C600 C599 1.394 . S
C600 C601 1.516 . S
C601 C600 1.516 . S
C601 C602 1.502 . S
C601 C603 1.561 . S
C601 C604 1.526 . S
C602 H586 0.959 . S
C602 H587 0.959 . S
C602 H588 0.961 . S
C602 C601 1.502 . S
C603 H589 0.960 . S
C603 H590 0.961 . S
C603 H591 0.959 . S
C603 C601 1.561 . S
C604 C601 1.526 . S
C604 C605 1.396 . S
C604 C609 1.390 . S
C605 C599 1.465 . S
C605 C604 1.396 . S
C605 C606 1.399 . S
C606 H592 0.929 . S
C606 C605 1.399 . S
C606 C607 1.385 . S
C607 H593 0.931 . S
C607 C606 1.385 . S
C607 C608 1.389 . S
C608 C607 1.389 . S
C608 C609 1.387 . S
C609 H594 0.930 . S
C609 C604 1.390 . S
C609 C608 1.387 . S
H610 C622 0.930 . S
H611 C624 0.930 . S
H612 C625 0.930 . S
H613 C629 0.959 . S
H614 C629 0.959 . S
H615 C629 0.961 . S
H616 C630 0.960 . S
H617 C630 0.961 . S
H618 C630 0.959 . S
H619 C633 0.929 . S
H620 C634 0.931 . S
H621 C636 0.930 . S
C622 H610 0.930 . S
C622 C623 1.399 . S
C622 C627 1.399 . S
C623 C622 1.399 . S
C623 C624 1.376 . S
C624 H611 0.930 . S
C624 C623 1.376 . S
C624 C625 1.388 . S
C625 H612 0.930 . S
C625 C624 1.388 . S
C625 C626 1.390 . S
C626 C625 1.390 . S
C626 C627 1.394 . S
C626 C632 1.465 . S
C627 C622 1.399 . S
C627 C626 1.394 . S
C627 C628 1.516 . S
C628 C627 1.516 . S
C628 C629 1.502 . S
C628 C630 1.561 . S
C628 C631 1.526 . S
C629 H613 0.959 . S
C629 H614 0.959 . S
C629 H615 0.961 . S
C629 C628 1.502 . S
C630 H616 0.960 . S
C630 H617 0.961 . S
C630 H618 0.959 . S
C630 C628 1.561 . S
C631 C628 1.526 . S
C631 C632 1.396 . S
C631 C636 1.390 . S
C632 C626 1.465 . S
C632 C631 1.396 . S
C632 C633 1.399 . S
C633 H619 0.929 . S
C633 C632 1.399 . S
C633 C634 1.385 . S
C634 H620 0.931 . S
C634 C633 1.385 . S
C634 C635 1.389 . S
C635 C634 1.389 . S
C635 C636 1.387 . S
C636 H621 0.930 . S
C636 C631 1.390 . S
C636 C635 1.387 . S
H637 C649 0.930 . S
H638 C651 0.930 . S
H639 C652 0.930 . S
H640 C656 0.959 . S
H641 C656 0.959 . S
H642 C656 0.961 . S
H643 C657 0.960 . S
H644 C657 0.961 . S
H645 C657 0.959 . S
H646 C660 0.929 . S
H647 C661 0.931 . S
H648 C663 0.930 . S
C649 H637 0.930 . S
C649 C650 1.399 . S
C649 C654 1.399 . S
C650 C649 1.399 . S
C650 C651 1.376 . S
C651 H638 0.930 . S
C651 C650 1.376 . S
C651 C652 1.388 . S
C652 H639 0.930 . S
C652 C651 1.388 . S
C652 C653 1.390 . S
C653 C652 1.390 . S
C653 C654 1.394 . S
C653 C659 1.465 . S
C654 C649 1.399 . S
C654 C653 1.394 . S
C654 C655 1.516 . S
C655 C654 1.516 . S
C655 C656 1.502 . S
C655 C657 1.561 . S
C655 C658 1.526 . S
C656 H640 0.959 . S
C656 H641 0.959 . S
C656 H642 0.961 . S
C656 C655 1.502 . S
C657 H643 0.960 . S
C657 H644 0.961 . S
C657 H645 0.959 . S
C657 C655 1.561 . S
C658 C655 1.526 . S
C658 C659 1.396 . S
C658 C663 1.390 . S
C659 C653 1.465 . S
C659 C658 1.396 . S
C659 C660 1.399 . S
C660 H646 0.929 . S
C660 C659 1.399 . S
C660 C661 1.385 . S
C661 H647 0.931 . S
C661 C660 1.385 . S
C661 C662 1.389 . S
C662 C661 1.389 . S
C662 C663 1.387 . S
C663 H648 0.930 . S
C663 C658 1.390 . S
C663 C662 1.387 . S
H664 C676 0.930 . S
H665 C678 0.930 . S
H666 C679 0.930 . S
H667 C683 0.959 . S
H668 C683 0.959 . S
H669 C683 0.961 . S
H670 C684 0.960 . S
H671 C684 0.961 . S
H672 C684 0.959 . S
H673 C687 0.929 . S
H674 C688 0.931 . S
H675 C690 0.930 . S
C676 H664 0.930 . S
C676 C677 1.399 . S
C676 C681 1.399 . S
C677 C676 1.399 . S
C677 C678 1.376 . S
C678 H665 0.930 . S
C678 C677 1.376 . S
C678 C679 1.388 . S
C679 H666 0.930 . S
C679 C678 1.388 . S
C679 C680 1.390 . S
C680 C679 1.390 . S
C680 C681 1.394 . S
C680 C686 1.465 . S
C681 C676 1.399 . S
C681 C680 1.394 . S
C681 C682 1.516 . S
C682 C681 1.516 . S
C682 C683 1.502 . S
C682 C684 1.561 . S
C682 C685 1.526 . S
C683 H667 0.959 . S
C683 H668 0.959 . S
C683 H669 0.961 . S
C683 C682 1.502 . S
C684 H670 0.960 . S
C684 H671 0.961 . S
C684 H672 0.959 . S
C684 C682 1.561 . S
C685 C682 1.526 . S
C685 C686 1.396 . S
C685 C690 1.390 . S
C686 C680 1.465 . S
C686 C685 1.396 . S
C686 C687 1.399 . S
C687 H673 0.929 . S
C687 C686 1.399 . S
C687 C688 1.385 . S
C688 H674 0.931 . S
C688 C687 1.385 . S
C688 C689 1.389 . S
C689 C688 1.389 . S
C689 C690 1.387 . S
C690 H675 0.930 . S
C690 C685 1.390 . S
C690 C689 1.387 . S
H691 C703 0.930 . S
H692 C705 0.930 . S
H693 C706 0.930 . S
H694 C710 0.959 . S
H695 C710 0.959 . S
H696 C710 0.961 . S
H697 C711 0.960 . S
H698 C711 0.961 . S
H699 C711 0.959 . S
H700 C714 0.929 . S
H701 C715 0.931 . S
H702 C717 0.930 . S
C703 H691 0.930 . S
C703 C704 1.399 . S
C703 C708 1.399 . S
C704 C703 1.399 . S
C704 C705 1.376 . S
C705 H692 0.930 . S
C705 C704 1.376 . S
C705 C706 1.388 . S
C706 H693 0.930 . S
C706 C705 1.388 . S
C706 C707 1.390 . S
C707 C706 1.390 . S
C707 C708 1.394 . S
C707 C713 1.465 . S
C708 C703 1.399 . S
C708 C707 1.394 . S
C708 C709 1.516 . S
C709 C708 1.516 . S
C709 C710 1.502 . S
C709 C711 1.561 . S
C709 C712 1.526 . S
C710 H694 0.959 . S
C710 H695 0.959 . S
C710 H696 0.961 . S
C710 C709 1.502 . S
C711 H697 0.960 . S
C711 H698 0.961 . S
C711 H699 0.959 . S
C711 C709 1.561 . S
C712 C709 1.526 . S
C712 C713 1.396 . S
C712 C717 1.390 . S
C713 C707 1.465 . S
C713 C712 1.396 . S
C713 C714 1.399 . S
C714 H700 0.929 . S
C714 C713 1.399 . S
C714 C715 1.385 . S
C715 H701 0.931 . S
C715 C714 1.385 . S
C715 C716 1.389 . S
C716 C715 1.389 . S
C716 C717 1.387 . S
C717 H702 0.930 . S
C717 C712 1.390 . S
C717 C716 1.387 . S
H718 C730 0.930 . S
H719 C732 0.930 . S
H720 C733 0.930 . S
H721 C737 0.959 . S
H722 C737 0.959 . S
H723 C737 0.961 . S
H724 C738 0.960 . S
H725 C738 0.961 . S
H726 C738 0.959 . S
H727 C741 0.929 . S
H728 C742 0.931 . S
H729 C744 0.930 . S
C730 H718 0.930 . S
C730 C731 1.399 . S
C730 C735 1.399 . S
C731 C730 1.399 . S
C731 C732 1.376 . S
C732 H719 0.930 . S
C732 C731 1.376 . S
C732 C733 1.388 . S
C733 H720 0.930 . S
C733 C732 1.388 . S
C733 C734 1.390 . S
C734 C733 1.390 . S
C734 C735 1.394 . S
C734 C740 1.465 . S
C735 C730 1.399 . S
C735 C734 1.394 . S
C735 C736 1.516 . S
C736 C735 1.516 . S
C736 C737 1.502 . S
C736 C738 1.561 . S
C736 C739 1.526 . S
C737 H721 0.959 . S
C737 H722 0.959 . S
C737 H723 0.961 . S
C737 C736 1.502 . S
C738 H724 0.960 . S
C738 H725 0.961 . S
C738 H726 0.959 . S
C738 C736 1.561 . S
C739 C736 1.526 . S
C739 C740 1.396 . S
C739 C744 1.390 . S
C740 C734 1.465 . S
C740 C739 1.396 . S
C740 C741 1.399 . S
C741 H727 0.929 . S
C741 C740 1.399 . S
C741 C742 1.385 . S
C742 H728 0.931 . S
C742 C741 1.385 . S
C742 C743 1.389 . S
C743 C742 1.389 . S
C743 C744 1.387 . S
C744 H729 0.930 . S
C744 C739 1.390 . S
C744 C743 1.387 . S
H745 C757 0.930 . S
H746 C759 0.930 . S
H747 C760 0.930 . S
H748 C764 0.959 . S
H749 C764 0.959 . S
H750 C764 0.961 . S
H751 C765 0.960 . S
H752 C765 0.961 . S
H753 C765 0.959 . S
H754 C768 0.929 . S
H755 C769 0.931 . S
H756 C771 0.930 . S
C757 H745 0.930 . S
C757 C758 1.399 . S
C757 C762 1.399 . S
C758 C757 1.399 . S
C758 C759 1.376 . S
C759 H746 0.930 . S
C759 C758 1.376 . S
C759 C760 1.388 . S
C760 H747 0.930 . S
C760 C759 1.388 . S
C760 C761 1.390 . S
C761 C760 1.390 . S
C761 C762 1.394 . S
C761 C767 1.465 . S
C762 C757 1.399 . S
C762 C761 1.394 . S
C762 C763 1.516 . S
C763 C762 1.516 . S
C763 C764 1.502 . S
C763 C765 1.561 . S
C763 C766 1.526 . S
C764 H748 0.959 . S
C764 H749 0.959 . S
C764 H750 0.961 . S
C764 C763 1.502 . S
C765 H751 0.960 . S
C765 H752 0.961 . S
C765 H753 0.959 . S
C765 C763 1.561 . S
C766 C763 1.526 . S
C766 C767 1.396 . S
C766 C771 1.390 . S
C767 C761 1.465 . S
C767 C766 1.396 . S
C767 C768 1.399 . S
C768 H754 0.929 . S
C768 C767 1.399 . S
C768 C769 1.385 . S
C769 H755 0.931 . S
C769 C768 1.385 . S
C769 C770 1.389 . S
C770 C769 1.389 . S
C770 C771 1.387 . S
C771 H756 0.930 . S
C771 C766 1.390 . S
C771 C770 1.387 . S
H772 C784 0.930 . S
H773 C786 0.930 . S
H774 C787 0.930 . S
H775 C791 0.959 . S
H776 C791 0.959 . S
H777 C791 0.961 . S
H778 C792 0.960 . S
H779 C792 0.961 . S
H780 C792 0.959 . S
H781 C795 0.929 . S
H782 C796 0.931 . S
H783 C798 0.930 . S
C784 H772 0.930 . S
C784 C785 1.399 . S
C784 C789 1.399 . S
C785 C784 1.399 . S
C785 C786 1.376 . S
C786 H773 0.930 . S
C786 C785 1.376 . S
C786 C787 1.388 . S
C787 H774 0.930 . S
C787 C786 1.388 . S
C787 C788 1.390 . S
C788 C787 1.390 . S
C788 C789 1.394 . S
C788 C794 1.465 . S
C789 C784 1.399 . S
C789 C788 1.394 . S
C789 C790 1.516 . S
C790 C789 1.516 . S
C790 C791 1.502 . S
C790 C792 1.561 . S
C790 C793 1.526 . S
C791 H775 0.959 . S
C791 H776 0.959 . S
C791 H777 0.961 . S
C791 C790 1.502 . S
C792 H778 0.960 . S
C792 H779 0.961 . S
C792 H780 0.959 . S
C792 C790 1.561 . S
C793 C790 1.526 . S
C793 C794 1.396 . S
C793 C798 1.390 . S
C794 C788 1.465 . S
C794 C793 1.396 . S
C794 C795 1.399 . S
C795 H781 0.929 . S
C795 C794 1.399 . S
C795 C796 1.385 . S
C796 H782 0.931 . S
C796 C795 1.385 . S
C796 C797 1.389 . S
C797 C796 1.389 . S
C797 C798 1.387 . S
C798 H783 0.930 . S
C798 C793 1.390 . S
C798 C797 1.387 . S
H799 C811 0.930 . S
H800 C813 0.930 . S
H801 C814 0.930 . S
H802 C818 0.959 . S
H803 C818 0.959 . S
H804 C818 0.961 . S
H805 C819 0.960 . S
H806 C819 0.961 . S
H807 C819 0.959 . S
H808 C822 0.929 . S
H809 C823 0.931 . S
H810 C825 0.930 . S
C811 H799 0.930 . S
C811 C812 1.399 . S
C811 C816 1.399 . S
C812 C811 1.399 . S
C812 C813 1.376 . S
C813 H800 0.930 . S
C813 C812 1.376 . S
C813 C814 1.388 . S
C814 H801 0.930 . S
C814 C813 1.388 . S
C814 C815 1.390 . S
C815 C814 1.390 . S
C815 C816 1.394 . S
C815 C821 1.465 . S
C816 C811 1.399 . S
C816 C815 1.394 . S
C816 C817 1.516 . S
C817 C816 1.516 . S
C817 C818 1.502 . S
C817 C819 1.561 . S
C817 C820 1.526 . S
C818 H802 0.959 . S
C818 H803 0.959 . S
C818 H804 0.961 . S
C818 C817 1.502 . S
C819 H805 0.960 . S
C819 H806 0.961 . S
C819 H807 0.959 . S
C819 C817 1.561 . S
C820 C817 1.526 . S
C820 C821 1.396 . S
C820 C825 1.390 . S
C821 C815 1.465 . S
C821 C820 1.396 . S
C821 C822 1.399 . S
C822 H808 0.929 . S
C822 C821 1.399 . S
C822 C823 1.385 . S
C823 H809 0.931 . S
C823 C822 1.385 . S
C823 C824 1.389 . S
C824 C823 1.389 . S
C824 C825 1.387 . S
C825 H810 0.930 . S
C825 C820 1.390 . S
C825 C824 1.387 . S
H826 C838 0.930 . S
H827 C840 0.930 . S
H828 C841 0.930 . S
H829 C845 0.959 . S
H830 C845 0.959 . S
H831 C845 0.961 . S
H832 C846 0.960 . S
H833 C846 0.961 . S
H834 C846 0.959 . S
H835 C849 0.929 . S
H836 C850 0.931 . S
H837 C852 0.930 . S
C838 H826 0.930 . S
C838 C839 1.399 . S
C838 C843 1.399 . S
C839 C838 1.399 . S
C839 C840 1.376 . S
C840 H827 0.930 . S
C840 C839 1.376 . S
C840 C841 1.388 . S
C841 H828 0.930 . S
C841 C840 1.388 . S
C841 C842 1.390 . S
C842 C841 1.390 . S
C842 C843 1.394 . S
C842 C848 1.465 . S
C843 C838 1.399 . S
C843 C842 1.394 . S
C843 C844 1.516 . S
C844 C843 1.516 . S
C844 C845 1.502 . S
C844 C846 1.561 . S
C844 C847 1.526 . S
C845 H829 0.959 . S
C845 H830 0.959 . S
C845 H831 0.961 . S
C845 C844 1.502 . S
C846 H832 0.960 . S
C846 H833 0.961 . S
C846 H834 0.959 . S
C846 C844 1.561 . S
C847 C844 1.526 . S
C847 C848 1.396 . S
C847 C852 1.390 . S
C848 C842 1.465 . S
C848 C847 1.396 . S
C848 C849 1.399 . S
C849 H835 0.929 . S
C849 C848 1.399 . S
C849 C850 1.385 . S
C850 H836 0.931 . S
C850 C849 1.385 . S
C850 C851 1.389 . S
C851 C850 1.389 . S
C851 C852 1.387 . S
C852 H837 0.930 . S
C852 C847 1.390 . S
C852 C851 1.387 . S
H853 C865 0.930 . S
H854 C867 0.930 . S
H855 C868 0.930 . S
H856 C872 0.959 . S
H857 C872 0.959 . S
H858 C872 0.961 . S
H859 C873 0.960 . S
H860 C873 0.961 . S
H861 C873 0.959 . S
H862 C876 0.929 . S
H863 C877 0.931 . S
H864 C879 0.930 . S
C865 H853 0.930 . S
C865 C866 1.399 . S
C865 C870 1.399 . S
C866 C865 1.399 . S
C866 C867 1.376 . S
C867 H854 0.930 . S
C867 C866 1.376 . S
C867 C868 1.388 . S
C868 H855 0.930 . S
C868 C867 1.388 . S
C868 C869 1.390 . S
C869 C868 1.390 . S
C869 C870 1.394 . S
C869 C875 1.465 . S
C870 C865 1.399 . S
C870 C869 1.394 . S
C870 C871 1.516 . S
C871 C870 1.516 . S
C871 C872 1.502 . S
C871 C873 1.561 . S
C871 C874 1.526 . S
C872 H856 0.959 . S
C872 H857 0.959 . S
C872 H858 0.961 . S
C872 C871 1.502 . S
C873 H859 0.960 . S
C873 H860 0.961 . S
C873 H861 0.959 . S
C873 C871 1.561 . S
C874 C871 1.526 . S
C874 C875 1.396 . S
C874 C879 1.390 . S
C875 C869 1.465 . S
C875 C874 1.396 . S
C875 C876 1.399 . S
C876 H862 0.929 . S
C876 C875 1.399 . S
C876 C877 1.385 . S
C877 H863 0.931 . S
C877 C876 1.385 . S
C877 C878 1.389 . S
C878 C877 1.389 . S
C878 C879 1.387 . S
C879 H864 0.930 . S
C879 C874 1.390 . S
C879 C878 1.387 . S
H880 C892 0.930 . S
H881 C894 0.930 . S
H882 C895 0.930 . S
H883 C899 0.959 . S
H884 C899 0.959 . S
H885 C899 0.961 . S
H886 C900 0.960 . S
H887 C900 0.961 . S
H888 C900 0.959 . S
H889 C903 0.929 . S
H890 C904 0.931 . S
H891 C906 0.930 . S
C892 H880 0.930 . S
C892 C893 1.399 . S
C892 C897 1.399 . S
C893 C892 1.399 . S
C893 C894 1.376 . S
C894 H881 0.930 . S
C894 C893 1.376 . S
C894 C895 1.388 . S
C895 H882 0.930 . S
C895 C894 1.388 . S
C895 C896 1.390 . S
C896 C895 1.390 . S
C896 C897 1.394 . S
C896 C902 1.465 . S
C897 C892 1.399 . S
C897 C896 1.394 . S
C897 C898 1.516 . S
C898 C897 1.516 . S
C898 C899 1.502 . S
C898 C900 1.561 . S
C898 C901 1.526 . S
C899 H883 0.959 . S
C899 H884 0.959 . S
C899 H885 0.961 . S
C899 C898 1.502 . S
C900 H886 0.960 . S
C900 H887 0.961 . S
C900 H888 0.959 . S
C900 C898 1.561 . S
C901 C898 1.526 . S
C901 C902 1.396 . S
C901 C906 1.390 . S
C902 C896 1.465 . S
C902 C901 1.396 . S
C902 C903 1.399 . S
C903 H889 0.929 . S
C903 C902 1.399 . S
C903 C904 1.385 . S
C904 H890 0.931 . S
C904 C903 1.385 . S
C904 C905 1.389 . S
C905 C904 1.389 . S
C905 C906 1.387 . S
C906 H891 0.930 . S
C906 C901 1.390 . S
C906 C905 1.387 . S
H907 C919 0.930 . S
H908 C921 0.930 . S
H909 C922 0.930 . S
H910 C926 0.959 . S
H911 C926 0.959 . S
H912 C926 0.961 . S
H913 C927 0.960 . S
H914 C927 0.961 . S
H915 C927 0.959 . S
H916 C930 0.929 . S
H917 C931 0.931 . S
H918 C933 0.930 . S
C919 H907 0.930 . S
C919 C920 1.399 . S
C919 C924 1.399 . S
C920 C919 1.399 . S
C920 C921 1.376 . S
C921 H908 0.930 . S
C921 C920 1.376 . S
C921 C922 1.388 . S
C922 H909 0.930 . S
C922 C921 1.388 . S
C922 C923 1.390 . S
C923 C922 1.390 . S
C923 C924 1.394 . S
C923 C929 1.465 . S
C924 C919 1.399 . S
C924 C923 1.394 . S
C924 C925 1.516 . S
C925 C924 1.516 . S
C925 C926 1.502 . S
C925 C927 1.561 . S
C925 C928 1.526 . S
C926 H910 0.959 . S
C926 H911 0.959 . S
C926 H912 0.961 . S
C926 C925 1.502 . S
C927 H913 0.960 . S
C927 H914 0.961 . S
C927 H915 0.959 . S
C927 C925 1.561 . S
C928 C925 1.526 . S
C928 C929 1.396 . S
C928 C933 1.390 . S
C929 C923 1.465 . S
C929 C928 1.396 . S
C929 C930 1.399 . S
C930 H916 0.929 . S
C930 C929 1.399 . S
C930 C931 1.385 . S
C931 H917 0.931 . S
C931 C930 1.385 . S
C931 C932 1.389 . S
C932 C931 1.389 . S
C932 C933 1.387 . S
C933 H918 0.930 . S
C933 C928 1.390 . S
C933 C932 1.387 . S
H934 C946 0.930 . S
H935 C948 0.930 . S
H936 C949 0.930 . S
H937 C953 0.959 . S
H938 C953 0.959 . S
H939 C953 0.961 . S
H940 C954 0.960 . S
H941 C954 0.961 . S
H942 C954 0.959 . S
H943 C957 0.929 . S
H944 C958 0.931 . S
H945 C960 0.930 . S
C946 H934 0.930 . S
C946 C947 1.399 . S
C946 C951 1.399 . S
C947 C946 1.399 . S
C947 C948 1.376 . S
C948 H935 0.930 . S
C948 C947 1.376 . S
C948 C949 1.388 . S
C949 H936 0.930 . S
C949 C948 1.388 . S
C949 C950 1.390 . S
C950 C949 1.390 . S
C950 C951 1.394 . S
C950 C956 1.465 . S
C951 C946 1.399 . S
C951 C950 1.394 . S
C951 C952 1.516 . S
C952 C951 1.516 . S
C952 C953 1.502 . S
C952 C954 1.561 . S
C952 C955 1.526 . S
C953 H937 0.959 . S
C953 H938 0.959 . S
C953 H939 0.961 . S
C953 C952 1.502 . S
C954 H940 0.960 . S
C954 H941 0.961 . S
C954 H942 0.959 . S
C954 C952 1.561 . S
C955 C952 1.526 . S
C955 C956 1.396 . S
C955 C960 1.390 . S
C956 C950 1.465 . S
C956 C955 1.396 . S
C956 C957 1.399 . S
C957 H943 0.929 . S
C957 C956 1.399 . S
C957 C958 1.385 . S
C958 H944 0.931 . S
C958 C957 1.385 . S
C958 C959 1.389 . S
C959 C958 1.389 . S
C959 C960 1.387 . S
C960 H945 0.930 . S
C960 C955 1.390 . S
C960 C959 1.387 . S
H961 C973 0.930 . S
H962 C975 0.930 . S
H963 C976 0.930 . S
H964 C980 0.959 . S
H965 C980 0.959 . S
H966 C980 0.961 . S
H967 C981 0.960 . S
H968 C981 0.961 . S
H969 C981 0.959 . S
H970 C984 0.929 . S
H971 C985 0.931 . S
H972 C987 0.930 . S
C973 H961 0.930 . S
C973 C974 1.399 . S
C973 C978 1.399 . S
C974 C973 1.399 . S
C974 C975 1.376 . S
C975 H962 0.930 . S
C975 C974 1.376 . S
C975 C976 1.388 . S
C976 H963 0.930 . S
C976 C975 1.388 . S
C976 C977 1.390 . S
C977 C976 1.390 . S
C977 C978 1.394 . S
C977 C983 1.465 . S
C978 C973 1.399 . S
C978 C977 1.394 . S
C978 C979 1.516 . S
C979 C978 1.516 . S
C979 C980 1.502 . S
C979 C981 1.561 . S
C979 C982 1.526 . S
C980 H964 0.959 . S
C980 H965 0.959 . S
C980 H966 0.961 . S
C980 C979 1.502 . S
C981 H967 0.960 . S
C981 H968 0.961 . S
C981 H969 0.959 . S
C981 C979 1.561 . S
C982 C979 1.526 . S
C982 C983 1.396 . S
C982 C987 1.390 . S
C983 C977 1.465 . S
C983 C982 1.396 . S
C983 C984 1.399 . S
C984 H970 0.929 . S
C984 C983 1.399 . S
C984 C985 1.385 . S
C985 H971 0.931 . S
C985 C984 1.385 . S
C985 C986 1.389 . S
C986 C985 1.389 . S
C986 C987 1.387 . S
C987 H972 0.930 . S
C987 C982 1.390 . S
C987 C986 1.387 . S
H988 C1000 0.930 . S
H989 C1002 0.930 . S
H990 C1003 0.930 . S
H991 C1007 0.959 . S
H992 C1007 0.959 . S
H993 C1007 0.961 . S
H994 C1008 0.960 . S
H995 C1008 0.961 . S
H996 C1008 0.959 . S
H997 C1011 0.929 . S
H998 C1012 0.931 . S
H999 C1014 0.930 . S
C1000 H988 0.930 . S
C1000 C1001 1.399 . S
C1000 C1005 1.399 . S
C1001 C1000 1.399 . S
C1001 C1002 1.376 . S
C1002 H989 0.930 . S
C1002 C1001 1.376 . S
C1002 C1003 1.388 . S
C1003 H990 0.930 . S
C1003 C1002 1.388 . S
C1003 C1004 1.390 . S
C1004 C1003 1.390 . S
C1004 C1005 1.394 . S
C1004 C1010 1.465 . S
C1005 C1000 1.399 . S
C1005 C1004 1.394 . S
C1005 C1006 1.516 . S
C1006 C1005 1.516 . S
C1006 C1007 1.502 . S
C1006 C1008 1.561 . S
C1006 C1009 1.526 . S
C1007 H991 0.959 . S
C1007 H992 0.959 . S
C1007 H993 0.961 . S
C1007 C1006 1.502 . S
C1008 H994 0.960 . S
C1008 H995 0.961 . S
C1008 H996 0.959 . S
C1008 C1006 1.561 . S
C1009 C1006 1.526 . S
C1009 C1010 1.396 . S
C1009 C1014 1.390 . S
C1010 C1004 1.465 . S
C1010 C1009 1.396 . S
C1010 C1011 1.399 . S
C1011 H997 0.929 . S
C1011 C1010 1.399 . S
C1011 C1012 1.385 . S
C1012 H998 0.931 . S
C1012 C1011 1.385 . S
C1012 C1013 1.389 . S
C1013 C1012 1.389 . S
C1013 C1014 1.387 . S
C1014 H999 0.930 . S
C1014 C1009 1.390 . S
C1014 C1013 1.387 . S
H1015 C1027 0.930 . S
H1016 C1029 0.930 . S
H1017 C1030 0.930 . S
H1018 C1034 0.959 . S
H1019 C1034 0.959 . S
H1020 C1034 0.961 . S
H1021 C1035 0.960 . S
H1022 C1035 0.961 . S
H1023 C1035 0.959 . S
H1024 C1038 0.929 . S
H1025 C1039 0.931 . S
H1026 C1041 0.930 . S
C1027 H1015 0.930 . S
C1027 C1028 1.399 . S
C1027 C1032 1.399 . S
C1028 C1027 1.399 . S
C1028 C1029 1.376 . S
C1029 H1016 0.930 . S
C1029 C1028 1.376 . S
C1029 C1030 1.388 . S
C1030 H1017 0.930 . S
C1030 C1029 1.388 . S
C1030 C1031 1.390 . S
C1031 C1030 1.390 . S
C1031 C1032 1.394 . S
C1031 C1037 1.465 . S
C1032 C1027 1.399 . S
C1032 C1031 1.394 . S
C1032 C1033 1.516 . S
C1033 C1032 1.516 . S
C1033 C1034 1.502 . S
C1033 C1035 1.561 . S
C1033 C1036 1.526 . S
C1034 H1018 0.959 . S
C1034 H1019 0.959 . S
C1034 H1020 0.961 . S
C1034 C1033 1.502 . S
C1035 H1021 0.960 . S
C1035 H1022 0.961 . S
C1035 H1023 0.959 . S
C1035 C1033 1.561 . S
C1036 C1033 1.526 . S
C1036 C1037 1.396 . S
C1036 C1041 1.390 . S
C1037 C1031 1.465 . S
C1037 C1036 1.396 . S
C1037 C1038 1.399 . S
C1038 H1024 0.929 . S
C1038 C1037 1.399 . S
C1038 C1039 1.385 . S
C1039 H1025 0.931 . S
C1039 C1038 1.385 . S
C1039 C1040 1.389 . S
C1040 C1039 1.389 . S
C1040 C1041 1.387 . S
C1041 H1026 0.930 . S
C1041 C1036 1.390 . S
C1041 C1040 1.387 . S
H1042 C1054 0.930 . S
H1043 C1056 0.930 . S
H1044 C1057 0.930 . S
H1045 C1061 0.959 . S
H1046 C1061 0.959 . S
H1047 C1061 0.961 . S
H1048 C1062 0.960 . S
H1049 C1062 0.961 . S
H1050 C1062 0.959 . S
H1051 C1065 0.929 . S
H1052 C1066 0.931 . S
H1053 C1068 0.930 . S
C1054 H1042 0.930 . S
C1054 C1055 1.399 . S
C1054 C1059 1.399 . S
C1055 C1054 1.399 . S
C1055 C1056 1.376 . S
C1056 H1043 0.930 . S
C1056 C1055 1.376 . S
C1056 C1057 1.388 . S
C1057 H1044 0.930 . S
C1057 C1056 1.388 . S
C1057 C1058 1.390 . S
C1058 C1057 1.390 . S
C1058 C1059 1.394 . S
C1058 C1064 1.465 . S
C1059 C1054 1.399 . S
C1059 C1058 1.394 . S
C1059 C1060 1.516 . S
C1060 C1059 1.516 . S
C1060 C1061 1.502 . S
C1060 C1062 1.561 . S
C1060 C1063 1.526 . S
C1061 H1045 0.959 . S
C1061 H1046 0.959 . S
C1061 H1047 0.961 . S
C1061 C1060 1.502 . S
C1062 H1048 0.960 . S
C1062 H1049 0.961 . S
C1062 H1050 0.959 . S
C1062 C1060 1.561 . S
C1063 C1060 1.526 . S
C1063 C1064 1.396 . S
C1063 C1068 1.390 . S
C1064 C1058 1.465 . S
C1064 C1063 1.396 . S
C1064 C1065 1.399 . S
C1065 H1051 0.929 . S
C1065 C1064 1.399 . S
C1065 C1066 1.385 . S
C1066 H1052 0.931 . S
C1066 C1065 1.385 . S
C1066 C1067 1.389 . S
C1067 C1066 1.389 . S
C1067 C1068 1.387 . S
C1068 H1053 0.930 . S
C1068 C1063 1.390 . S
C1068 C1067 1.387 . S
H1069 C1081 0.930 . S
H1070 C1083 0.930 . S
H1071 C1084 0.930 . S
H1072 C1088 0.959 . S
H1073 C1088 0.959 . S
H1074 C1088 0.961 . S
H1075 C1089 0.960 . S
H1076 C1089 0.961 . S
H1077 C1089 0.959 . S
H1078 C1092 0.929 . S
H1079 C1093 0.931 . S
H1080 C1095 0.930 . S
C1081 H1069 0.930 . S
C1081 C1082 1.399 . S
C1081 C1086 1.399 . S
C1082 C1081 1.399 . S
C1082 C1083 1.376 . S
C1083 H1070 0.930 . S
C1083 C1082 1.376 . S
C1083 C1084 1.388 . S
C1084 H1071 0.930 . S
C1084 C1083 1.388 . S
C1084 C1085 1.390 . S
C1085 C1084 1.390 . S
C1085 C1086 1.394 . S
C1085 C1091 1.465 . S
C1086 C1081 1.399 . S
C1086 C1085 1.394 . S
C1086 C1087 1.516 . S
C1087 C1086 1.516 . S
C1087 C1088 1.502 . S
C1087 C1089 1.561 . S
C1087 C1090 1.526 . S
C1088 H1072 0.959 . S
C1088 H1073 0.959 . S
C1088 H1074 0.961 . S
C1088 C1087 1.502 . S
C1089 H1075 0.960 . S
C1089 H1076 0.961 . S
C1089 H1077 0.959 . S
C1089 C1087 1.561 . S
C1090 C1087 1.526 . S
C1090 C1091 1.396 . S
C1090 C1095 1.390 . S
C1091 C1085 1.465 . S
C1091 C1090 1.396 . S
C1091 C1092 1.399 . S
C1092 H1078 0.929 . S
C1092 C1091 1.399 . S
C1092 C1093 1.385 . S
C1093 H1079 0.931 . S
C1093 C1092 1.385 . S
C1093 C1094 1.389 . S
C1094 C1093 1.389 . S
C1094 C1095 1.387 . S
C1095 H1080 0.930 . S
C1095 C1090 1.390 . S
C1095 C1094 1.387 . S
H1096 C1108 0.930 . S
H1097 C1110 0.930 . S
H1098 C1111 0.930 . S
H1099 C1115 0.959 . S
H1100 C1115 0.959 . S
H1101 C1115 0.961 . S
H1102 C1116 0.960 . S
H1103 C1116 0.961 . S
H1104 C1116 0.959 . S
H1105 C1119 0.929 . S
H1106 C1120 0.931 . S
H1107 C1122 0.930 . S
C1108 H1096 0.930 . S
C1108 C1109 1.399 . S
C1108 C1113 1.399 . S
C1109 C1108 1.399 . S
C1109 C1110 1.376 . S
C1110 H1097 0.930 . S
C1110 C1109 1.376 . S
C1110 C1111 1.388 . S
C1111 H1098 0.930 . S
C1111 C1110 1.388 . S
C1111 C1112 1.390 . S
C1112 C1111 1.390 . S
C1112 C1113 1.394 . S
C1112 C1118 1.465 . S
C1113 C1108 1.399 . S
C1113 C1112 1.394 . S
C1113 C1114 1.516 . S
C1114 C1113 1.516 . S
C1114 C1115 1.502 . S
C1114 C1116 1.561 . S
C1114 C1117 1.526 . S
C1115 H1099 0.959 . S
C1115 H1100 0.959 . S
C1115 H1101 0.961 . S
C1115 C1114 1.502 . S
C1116 H1102 0.960 . S
C1116 H1103 0.961 . S
C1116 H1104 0.959 . S
C1116 C1114 1.561 . S
C1117 C1114 1.526 . S
C1117 C1118 1.396 . S
C1117 C1122 1.390 . S
C1118 C1112 1.465 . S
C1118 C1117 1.396 . S
C1118 C1119 1.399 . S
C1119 H1105 0.929 . S
C1119 C1118 1.399 . S
C1119 C1120 1.385 . S
C1120 H1106 0.931 . S
C1120 C1119 1.385 . S
C1120 C1121 1.389 . S
C1121 C1120 1.389 . S
C1121 C1122 1.387 . S
C1122 H1107 0.930 . S
C1122 C1117 1.390 . S
C1122 C1121 1.387 . S
H1123 C1135 0.930 . S
H1124 C1137 0.930 . S
H1125 C1138 0.930 . S
H1126 C1142 0.959 . S
H1127 C1142 0.959 . S
H1128 C1142 0.961 . S
H1129 C1143 0.960 . S
H1130 C1143 0.961 . S
H1131 C1143 0.959 . S
H1132 C1146 0.929 . S
H1133 C1147 0.931 . S
H1134 C1149 0.930 . S
C1135 H1123 0.930 . S
C1135 C1136 1.399 . S
C1135 C1140 1.399 . S
C1136 C1135 1.399 . S
C1136 C1137 1.376 . S
C1137 H1124 0.930 . S
C1137 C1136 1.376 . S
C1137 C1138 1.388 . S
C1138 H1125 0.930 . S
C1138 C1137 1.388 . S
C1138 C1139 1.390 . S
C1139 C1138 1.390 . S
C1139 C1140 1.394 . S
C1139 C1145 1.465 . S
C1140 C1135 1.399 . S
C1140 C1139 1.394 . S
C1140 C1141 1.516 . S
C1141 C1140 1.516 . S
C1141 C1142 1.502 . S
C1141 C1143 1.561 . S
C1141 C1144 1.526 . S
C1142 H1126 0.959 . S
C1142 H1127 0.959 . S
C1142 H1128 0.961 . S
C1142 C1141 1.502 . S
C1143 H1129 0.960 . S
C1143 H1130 0.961 . S
C1143 H1131 0.959 . S
C1143 C1141 1.561 . S
C1144 C1141 1.526 . S
C1144 C1145 1.396 . S
C1144 C1149 1.390 . S
C1145 C1139 1.465 . S
C1145 C1144 1.396 . S
C1145 C1146 1.399 . S
C1146 H1132 0.929 . S
C1146 C1145 1.399 . S
C1146 C1147 1.385 . S
C1147 H1133 0.931 . S
C1147 C1146 1.385 . S
C1147 C1148 1.389 . S
C1148 C1147 1.389 . S
C1148 C1149 1.387 . S
C1149 H1134 0.930 . S
C1149 C1144 1.390 . S
C1149 C1148 1.387 . S
H1150 C1162 0.930 . S
H1151 C1164 0.930 . S
H1152 C1165 0.930 . S
H1153 C1169 0.959 . S
H1154 C1169 0.959 . S
H1155 C1169 0.961 . S
H1156 C1170 0.960 . S
H1157 C1170 0.961 . S
H1158 C1170 0.959 . S
H1159 C1173 0.929 . S
H1160 C1174 0.931 . S
H1161 C1176 0.930 . S
C1162 H1150 0.930 . S
C1162 C1163 1.399 . S
C1162 C1167 1.399 . S
C1163 C1162 1.399 . S
C1163 C1164 1.376 . S
C1164 H1151 0.930 . S
C1164 C1163 1.376 . S
C1164 C1165 1.388 . S
C1165 H1152 0.930 . S
C1165 C1164 1.388 . S
C1165 C1166 1.390 . S
C1166 C1165 1.390 . S
C1166 C1167 1.394 . S
C1166 C1172 1.465 . S
C1167 C1162 1.399 . S
C1167 C1166 1.394 . S
C1167 C1168 1.516 . S
C1168 C1167 1.516 . S
C1168 C1169 1.502 . S
C1168 C1170 1.561 . S
C1168 C1171 1.526 . S
C1169 H1153 0.959 . S
C1169 H1154 0.959 . S
C1169 H1155 0.961 . S
C1169 C1168 1.502 . S
C1170 H1156 0.960 . S
C1170 H1157 0.961 . S
C1170 H1158 0.959 . S
C1170 C1168 1.561 . S
C1171 C1168 1.526 . S
C1171 C1172 1.396 . S
C1171 C1176 1.390 . S
C1172 C1166 1.465 . S
C1172 C1171 1.396 . S
C1172 C1173 1.399 . S
C1173 H1159 0.929 . S
C1173 C1172 1.399 . S
C1173 C1174 1.385 . S
C1174 H1160 0.931 . S
C1174 C1173 1.385 . S
C1174 C1175 1.389 . S
C1175 C1174 1.389 . S
C1175 C1176 1.387 . S
C1176 H1161 0.930 . S
C1176 C1171 1.390 . S
C1176 C1175 1.387 . S
H1177 C1189 0.930 . S
H1178 C1191 0.930 . S
H1179 C1192 0.930 . S
H1180 C1196 0.959 . S
H1181 C1196 0.959 . S
H1182 C1196 0.961 . S
H1183 C1197 0.960 . S
H1184 C1197 0.961 . S
H1185 C1197 0.959 . S
H1186 C1200 0.929 . S
H1187 C1201 0.931 . S
H1188 C1203 0.930 . S
C1189 H1177 0.930 . S
C1189 C1190 1.399 . S
C1189 C1194 1.399 . S
C1190 C1189 1.399 . S
C1190 C1191 1.376 . S
C1191 H1178 0.930 . S
C1191 C1190 1.376 . S
C1191 C1192 1.388 . S
C1192 H1179 0.930 . S
C1192 C1191 1.388 . S
C1192 C1193 1.390 . S
C1193 C1192 1.390 . S
C1193 C1194 1.394 . S
C1193 C1199 1.465 . S
C1194 C1189 1.399 . S
C1194 C1193 1.394 . S
C1194 C1195 1.516 . S
C1195 C1194 1.516 . S
C1195 C1196 1.502 . S
C1195 C1197 1.561 . S
C1195 C1198 1.526 . S
C1196 H1180 0.959 . S
C1196 H1181 0.959 . S
C1196 H1182 0.961 . S
C1196 C1195 1.502 . S
C1197 H1183 0.960 . S
C1197 H1184 0.961 . S
C1197 H1185 0.959 . S
C1197 C1195 1.561 . S
C1198 C1195 1.526 . S
C1198 C1199 1.396 . S
C1198 C1203 1.390 . S
C1199 C1193 1.465 . S
C1199 C1198 1.396 . S
C1199 C1200 1.399 . S
C1200 H1186 0.929 . S
C1200 C1199 1.399 . S
C1200 C1201 1.385 . S
C1201 H1187 0.931 . S
C1201 C1200 1.385 . S
C1201 C1202 1.389 . S
C1202 C1201 1.389 . S
C1202 C1203 1.387 . S
C1203 H1188 0.930 . S
C1203 C1198 1.390 . S
C1203 C1202 1.387 . S
H1204 C1216 0.930 . S
H1205 C1218 0.930 . S
H1206 C1219 0.930 . S
H1207 C1223 0.959 . S
H1208 C1223 0.959 . S
H1209 C1223 0.961 . S
H1210 C1224 0.960 . S
H1211 C1224 0.961 . S
H1212 C1224 0.959 . S
H1213 C1227 0.929 . S
H1214 C1228 0.931 . S
H1215 C1230 0.930 . S
C1216 H1204 0.930 . S
C1216 C1217 1.399 . S
C1216 C1221 1.399 . S
C1217 C1216 1.399 . S
C1217 C1218 1.376 . S
C1218 H1205 0.930 . S
C1218 C1217 1.376 . S
C1218 C1219 1.388 . S
C1219 H1206 0.930 . S
C1219 C1218 1.388 . S
C1219 C1220 1.390 . S
C1220 C1219 1.390 . S
C1220 C1221 1.394 . S
C1220 C1226 1.465 . S
C1221 C1216 1.399 . S
C1221 C1220 1.394 . S
C1221 C1222 1.516 . S
C1222 C1221 1.516 . S
C1222 C1223 1.502 . S
C1222 C1224 1.561 . S
C1222 C1225 1.526 . S
C1223 H1207 0.959 . S
C1223 H1208 0.959 . S
C1223 H1209 0.961 . S
C1223 C1222 1.502 . S
C1224 H1210 0.960 . S
C1224 H1211 0.961 . S
C1224 H1212 0.959 . S
C1224 C1222 1.561 . S
C1225 C1222 1.526 . S
C1225 C1226 1.396 . S
C1225 C1230 1.390 . S
C1226 C1220 1.465 . S
C1226 C1225 1.396 . S
C1226 C1227 1.399 . S
C1227 H1213 0.929 . S
C1227 C1226 1.399 . S
C1227 C1228 1.385 . S
C1228 H1214 0.931 . S
C1228 C1227 1.385 . S
C1228 C1229 1.389 . S
C1229 C1228 1.389 . S
C1229 C1230 1.387 . S
C1230 H1215 0.930 . S
C1230 C1225 1.390 . S
C1230 C1229 1.387 . S
H1231 C1243 0.930 . S
H1232 C1245 0.930 . S
H1233 C1246 0.930 . S
H1234 C1250 0.959 . S
H1235 C1250 0.959 . S
H1236 C1250 0.961 . S
H1237 C1251 0.960 . S
H1238 C1251 0.961 . S
H1239 C1251 0.959 . S
H1240 C1254 0.929 . S
H1241 C1255 0.931 . S
H1242 C1257 0.930 . S
C1243 H1231 0.930 . S
C1243 C1244 1.399 . S
C1243 C1248 1.399 . S
C1244 C1243 1.399 . S
C1244 C1245 1.376 . S
C1245 H1232 0.930 . S
C1245 C1244 1.376 . S
C1245 C1246 1.388 . S
C1246 H1233 0.930 . S
C1246 C1245 1.388 . S
C1246 C1247 1.390 . S
C1247 C1246 1.390 . S
C1247 C1248 1.394 . S
C1247 C1253 1.465 . S
C1248 C1243 1.399 . S
C1248 C1247 1.394 . S
C1248 C1249 1.516 . S
C1249 C1248 1.516 . S
C1249 C1250 1.502 . S
C1249 C1251 1.561 . S
C1249 C1252 1.526 . S
C1250 H1234 0.959 . S
C1250 H1235 0.959 . S
C1250 H1236 0.961 . S
C1250 C1249 1.502 . S
C1251 H1237 0.960 . S
C1251 H1238 0.961 . S
C1251 H1239 0.959 . S
C1251 C1249 1.561 . S
C1252 C1249 1.526 . S
C1252 C1253 1.396 . S
C1252 C1257 1.390 . S
C1253 C1247 1.465 . S
C1253 C1252 1.396 . S
C1253 C1254 1.399 . S
C1254 H1240 0.929 . S
C1254 C1253 1.399 . S
C1254 C1255 1.385 . S
C1255 H1241 0.931 . S
C1255 C1254 1.385 . S
C1255 C1256 1.389 . S
C1256 C1255 1.389 . S
C1256 C1257 1.387 . S
C1257 H1242 0.930 . S
C1257 C1252 1.390 . S
C1257 C1256 1.387 . S
H1258 C1270 0.930 . S
H1259 C1272 0.930 . S
H1260 C1273 0.930 . S
H1261 C1277 0.959 . S
H1262 C1277 0.959 . S
H1263 C1277 0.961 . S
H1264 C1278 0.960 . S
H1265 C1278 0.961 . S
H1266 C1278 0.959 . S
H1267 C1281 0.929 . S
H1268 C1282 0.931 . S
H1269 C1284 0.930 . S
C1270 H1258 0.930 . S
C1270 C1271 1.399 . S
C1270 C1275 1.399 . S
C1271 C1270 1.399 . S
C1271 C1272 1.376 . S
C1272 H1259 0.930 . S
C1272 C1271 1.376 . S
C1272 C1273 1.388 . S
C1273 H1260 0.930 . S
C1273 C1272 1.388 . S
C1273 C1274 1.390 . S
C1274 C1273 1.390 . S
C1274 C1275 1.394 . S
C1274 C1280 1.465 . S
C1275 C1270 1.399 . S
C1275 C1274 1.394 . S
C1275 C1276 1.516 . S
C1276 C1275 1.516 . S
C1276 C1277 1.502 . S
C1276 C1278 1.561 . S
C1276 C1279 1.526 . S
C1277 H1261 0.959 . S
C1277 H1262 0.959 . S
C1277 H1263 0.961 . S
C1277 C1276 1.502 . S
C1278 H1264 0.960 . S
C1278 H1265 0.961 . S
C1278 H1266 0.959 . S
C1278 C1276 1.561 . S
C1279 C1276 1.526 . S
C1279 C1280 1.396 . S
C1279 C1284 1.390 . S
C1280 C1274 1.465 . S
C1280 C1279 1.396 . S
C1280 C1281 1.399 . S
C1281 H1267 0.929 . S
C1281 C1280 1.399 . S
C1281 C1282 1.385 . S
C1282 H1268 0.931 . S
C1282 C1281 1.385 . S
C1282 C1283 1.389 . S
C1283 C1282 1.389 . S
C1283 C1284 1.387 . S
C1284 H1269 0.930 . S
C1284 C1279 1.390 . S
C1284 C1283 1.387 . S
H1285 C1297 0.930 . S
H1286 C1299 0.930 . S
H1287 C1300 0.930 . S
H1288 C1304 0.959 . S
H1289 C1304 0.959 . S
H1290 C1304 0.961 . S
H1291 C1305 0.960 . S
H1292 C1305 0.961 . S
H1293 C1305 0.959 . S
H1294 C1308 0.929 . S
H1295 C1309 0.931 . S
H1296 C1311 0.930 . S
C1297 H1285 0.930 . S
C1297 C1298 1.399 . S
C1297 C1302 1.399 . S
C1298 C1297 1.399 . S
C1298 C1299 1.376 . S
C1299 H1286 0.930 . S
C1299 C1298 1.376 . S
C1299 C1300 1.388 . S
C1300 H1287 0.930 . S
C1300 C1299 1.388 . S
C1300 C1301 1.390 . S
C1301 C1300 1.390 . S
C1301 C1302 1.394 . S
C1301 C1307 1.465 . S
C1302 C1297 1.399 . S
C1302 C1301 1.394 . S
C1302 C1303 1.516 . S
C1303 C1302 1.516 . S
C1303 C1304 1.502 . S
C1303 C1305 1.561 . S
C1303 C1306 1.526 . S
C1304 H1288 0.959 . S
C1304 H1289 0.959 . S
C1304 H1290 0.961 . S
C1304 C1303 1.502 . S
C1305 H1291 0.960 . S
C1305 H1292 0.961 . S
C1305 H1293 0.959 . S
C1305 C1303 1.561 . S
C1306 C1303 1.526 . S
C1306 C1307 1.396 . S
C1306 C1311 1.390 . S
C1307 C1301 1.465 . S
C1307 C1306 1.396 . S
C1307 C1308 1.399 . S
C1308 H1294 0.929 . S
C1308 C1307 1.399 . S
C1308 C1309 1.385 . S
C1309 H1295 0.931 . S
C1309 C1308 1.385 . S
C1309 C1310 1.389 . S
C1310 C1309 1.389 . S
C1310 C1311 1.387 . S
C1311 H1296 0.930 . S
C1311 C1306 1.390 . S
C1311 C1310 1.387 . S
H1312 C1324 0.930 . S
H1313 C1326 0.930 . S
H1314 C1327 0.930 . S
H1315 C1331 0.959 . S
H1316 C1331 0.959 . S
H1317 C1331 0.961 . S
H1318 C1332 0.960 . S
H1319 C1332 0.961 . S
H1320 C1332 0.959 . S
H1321 C1335 0.929 . S
H1322 C1336 0.931 . S
H1323 C1338 0.930 . S
C1324 H1312 0.930 . S
C1324 C1325 1.399 . S
C1324 C1329 1.399 . S
C1325 C1324 1.399 . S
C1325 C1326 1.376 . S
C1326 H1313 0.930 . S
C1326 C1325 1.376 . S
C1326 C1327 1.388 . S
C1327 H1314 0.930 . S
C1327 C1326 1.388 . S
C1327 C1328 1.390 . S
C1328 C1327 1.390 . S
C1328 C1329 1.394 . S
C1328 C1334 1.465 . S
C1329 C1324 1.399 . S
C1329 C1328 1.394 . S
C1329 C1330 1.516 . S
C1330 C1329 1.516 . S
C1330 C1331 1.502 . S
C1330 C1332 1.561 . S
C1330 C1333 1.526 . S
C1331 H1315 0.959 . S
C1331 H1316 0.959 . S
C1331 H1317 0.961 . S
C1331 C1330 1.502 . S
C1332 H1318 0.960 . S
C1332 H1319 0.961 . S
C1332 H1320 0.959 . S
C1332 C1330 1.561 . S
C1333 C1330 1.526 . S
C1333 C1334 1.396 . S
C1333 C1338 1.390 . S
C1334 C1328 1.465 . S
C1334 C1333 1.396 . S
C1334 C1335 1.399 . S
C1335 H1321 0.929 . S
C1335 C1334 1.399 . S
C1335 C1336 1.385 . S
C1336 H1322 0.931 . S
C1336 C1335 1.385 . S
C1336 C1337 1.389 . S
C1337 C1336 1.389 . S
C1337 C1338 1.387 . S
C1338 H1323 0.930 . S
C1338 C1333 1.390 . S
C1338 C1337 1.387 . S
H1339 C1351 0.930 . S
H1340 C1353 0.930 . S
H1341 C1354 0.930 . S
H1342 C1358 0.959 . S
H1343 C1358 0.959 1_545 S
H1344 C1358 0.961 . S
H1345 C1359 0.960 1_565 S
H1346 C1359 0.961 . S
H1347 C1359 0.959 . S
H1348 C1362 0.929 . S
H1349 C1363 0.931 . S
H1350 C1365 0.928 1_655 S
C1351 H1339 0.930 . S
C1351 C1352 1.399 1_655 S
C1351 C1356 1.399 . S
C1352 C1351 1.399 1_455 S
C1352 C1353 1.376 . S
C1353 H1340 0.930 . S
C1353 C1352 1.376 . S
C1353 C1354 1.388 . S
C1354 H1341 0.930 . S
C1354 C1353 1.388 . S
C1354 C1355 1.390 . S
C1355 C1354 1.390 . S
C1355 C1356 1.394 1_455 S
C1355 C1361 1.465 1_565 S
C1356 C1351 1.399 . S
C1356 C1355 1.394 1_655 S
C1356 C1357 1.503 1_565 S
C1357 C1356 1.503 1_545 S
C1357 C1358 1.499 1_545 S
C1357 C1359 1.566 . S
C1357 C1360 1.508 1_655 S
C1358 H1342 0.959 . S
C1358 H1343 0.959 1_565 S
C1358 H1344 0.961 . S
C1358 C1357 1.499 1_565 S
C1359 H1345 0.960 1_545 S
C1359 H1346 0.961 . S
C1359 H1347 0.959 . S
C1359 C1357 1.566 . S
C1360 C1357 1.508 1_455 S
C1360 C1361 1.432 . S
C1360 C1365 1.389 . S
C1361 C1355 1.465 1_545 S
C1361 C1360 1.432 . S
C1361 C1362 1.399 . S
C1362 H1348 0.929 . S
C1362 C1361 1.399 . S
C1362 C1363 1.385 . S
C1363 H1349 0.931 . S
C1363 C1362 1.385 . S
C1363 C1364 1.389 . S
C1364 C1363 1.389 . S
C1364 C1365 1.389 . S
C1365 H1350 0.928 1_455 S
C1365 C1360 1.389 . S
C1365 C1364 1.389 . S
H1366 C1378 0.930 . S
H1367 C1380 0.930 . S
H1368 C1381 0.930 . S
H1369 C1385 0.959 . S
H1370 C1385 0.959 . S
H1371 C1385 0.961 . S
H1372 C1386 0.960 . S
H1373 C1386 0.961 . S
H1374 C1386 0.959 . S
H1375 C1389 0.929 . S
H1376 C1390 0.931 . S
H1377 C1392 0.930 . S
C1378 H1366 0.930 . S
C1378 C1379 1.399 . S
C1378 C1383 1.399 . S
C1379 C1378 1.399 . S
C1379 C1380 1.376 . S
C1380 H1367 0.930 . S
C1380 C1379 1.376 . S
C1380 C1381 1.388 . S
C1381 H1368 0.930 . S
C1381 C1380 1.388 . S
C1381 C1382 1.390 . S
C1382 C1381 1.390 . S
C1382 C1383 1.394 . S
C1382 C1388 1.465 . S
C1383 C1378 1.399 . S
C1383 C1382 1.394 . S
C1383 C1384 1.516 . S
C1384 C1383 1.516 . S
C1384 C1385 1.502 . S
C1384 C1386 1.561 . S
C1384 C1387 1.526 . S
C1385 H1369 0.959 . S
C1385 H1370 0.959 . S
C1385 H1371 0.961 . S
C1385 C1384 1.502 . S
C1386 H1372 0.960 . S
C1386 H1373 0.961 . S
C1386 H1374 0.959 . S
C1386 C1384 1.561 . S
C1387 C1384 1.526 . S
C1387 C1388 1.396 . S
C1387 C1392 1.390 . S
C1388 C1382 1.465 . S
C1388 C1387 1.396 . S
C1388 C1389 1.399 . S
C1389 H1375 0.929 . S
C1389 C1388 1.399 . S
C1389 C1390 1.385 . S
C1390 H1376 0.931 . S
C1390 C1389 1.385 . S
C1390 C1391 1.389 . S
C1391 C1390 1.389 . S
C1391 C1392 1.387 . S
C1392 H1377 0.930 . S
C1392 C1387 1.390 . S
C1392 C1391 1.387 . S
H1393 C1405 0.930 . S
H1394 C1407 0.930 . S
H1395 C1408 0.930 . S
H1396 C1412 0.959 . S
H1397 C1412 0.959 . S
H1398 C1412 0.961 . S
H1399 C1413 0.960 . S
H1400 C1413 0.961 . S
H1401 C1413 0.959 . S
H1402 C1416 0.929 . S
H1403 C1417 0.931 . S
H1404 C1419 0.930 . S
C1405 H1393 0.930 . S
C1405 C1406 1.399 1_556 S
C1405 C1410 1.399 . S
C1406 C1405 1.399 1_554 S
C1406 C1407 1.376 . S
C1407 H1394 0.930 . S
C1407 C1406 1.376 . S
C1407 C1408 1.388 . S
C1408 H1395 0.930 . S
C1408 C1407 1.388 . S
C1408 C1409 1.390 . S
C1409 C1408 1.390 . S
C1409 C1410 1.394 1_554 S
C1409 C1415 1.465 1_545 S
C1410 C1405 1.399 . S
C1410 C1409 1.394 1_556 S
C1410 C1411 1.516 . S
C1411 C1410 1.516 . S
C1411 C1412 1.502 . S
C1411 C1413 1.561 . S
C1411 C1414 1.526 1_545 S
C1412 H1396 0.959 . S
C1412 H1397 0.959 . S
C1412 H1398 0.961 . S
C1412 C1411 1.502 . S
C1413 H1399 0.960 . S
C1413 H1400 0.961 . S
C1413 H1401 0.959 . S
C1413 C1411 1.561 . S
C1414 C1411 1.526 1_565 S
C1414 C1415 1.396 1_556 S
C1414 C1419 1.390 . S
C1415 C1409 1.465 1_565 S
C1415 C1414 1.396 1_554 S
C1415 C1416 1.399 . S
C1416 H1402 0.929 . S
C1416 C1415 1.399 . S
C1416 C1417 1.385 . S
C1417 H1403 0.931 . S
C1417 C1416 1.385 . S
C1417 C1418 1.389 1_554 S
C1418 C1417 1.389 1_556 S
C1418 C1419 1.387 . S
C1419 H1404 0.930 . S
C1419 C1414 1.390 . S
C1419 C1418 1.387 . S
H1420 C1432 0.930 . S
H1421 C1434 0.930 . S
H1422 C1435 0.930 . S
H1423 C1439 0.959 . S
H1424 C1439 0.959 . S
H1425 C1439 0.961 . S
H1426 C1440 0.960 . S
H1427 C1440 0.961 . S
H1428 C1440 0.959 . S
H1429 C1443 0.929 . S
H1430 C1444 0.931 . S
H1431 C1446 0.930 . S
C1432 H1420 0.930 . S
C1432 C1433 1.399 . S
C1432 C1437 1.399 . S
C1433 C1432 1.399 . S
C1433 C1434 1.376 . S
C1434 H1421 0.930 . S
C1434 C1433 1.376 . S
C1434 C1435 1.388 . S
C1435 H1422 0.930 . S
C1435 C1434 1.388 . S
C1435 C1436 1.390 . S
C1436 C1435 1.390 . S
C1436 C1437 1.394 . S
C1436 C1442 1.465 . S
C1437 C1432 1.399 . S
C1437 C1436 1.394 . S
C1437 C1438 1.516 . S
C1438 C1437 1.516 . S
C1438 C1439 1.502 . S
C1438 C1440 1.561 . S
C1438 C1441 1.526 . S
C1439 H1423 0.959 . S
C1439 H1424 0.959 . S
C1439 H1425 0.961 . S
C1439 C1438 1.502 . S
C1440 H1426 0.960 . S
C1440 H1427 0.961 . S
C1440 H1428 0.959 . S
C1440 C1438 1.561 . S
C1441 C1438 1.526 . S
C1441 C1442 1.396 . S
C1441 C1446 1.390 . S
C1442 C1436 1.465 . S
C1442 C1441 1.396 . S
C1442 C1443 1.399 . S
C1443 H1429 0.929 . S
C1443 C1442 1.399 . S
C1443 C1444 1.385 . S
C1444 H1430 0.931 . S
C1444 C1443 1.385 . S
C1444 C1445 1.389 . S
C1445 C1444 1.389 . S
C1445 C1446 1.387 . S
C1446 H1431 0.930 . S
C1446 C1441 1.390 . S
C1446 C1445 1.387 . S
H1447 C1459 0.930 . S
H1448 C1461 0.930 . S
H1449 C1462 0.930 . S
H1450 C1466 0.959 . S
H1451 C1466 0.959 . S
H1452 C1466 0.961 . S
H1453 C1467 0.962 1_565 S
H1454 C1467 0.961 . S
H1455 C1467 0.959 . S
H1456 C1470 0.929 . S
H1457 C1471 0.931 . S
H1458 C1473 0.930 . S
C1459 H1447 0.930 . S
C1459 C1460 1.399 . S
C1459 C1464 1.399 . S
C1460 C1459 1.399 . S
C1460 C1461 1.376 . S
C1461 H1448 0.930 . S
C1461 C1460 1.376 . S
C1461 C1462 1.388 . S
C1462 H1449 0.930 . S
C1462 C1461 1.388 . S
C1462 C1463 1.390 . S
C1463 C1462 1.390 . S
C1463 C1464 1.394 . S
C1463 C1469 1.465 1_565 S
C1464 C1459 1.399 . S
C1464 C1463 1.394 . S
C1464 C1465 1.516 1_565 S
C1465 C1464 1.516 1_545 S
C1465 C1466 1.502 . S
C1465 C1467 1.561 . S
C1465 C1468 1.526 . S
C1466 H1450 0.959 . S
C1466 H1451 0.959 . S
C1466 H1452 0.961 . S
C1466 C1465 1.502 . S
C1467 H1453 0.962 1_545 S
C1467 H1454 0.961 . S
C1467 H1455 0.959 . S
C1467 C1465 1.561 . S
C1468 C1465 1.526 . S
C1468 C1469 1.396 . S
C1468 C1473 1.390 . S
C1469 C1463 1.465 1_545 S
C1469 C1468 1.396 . S
C1469 C1470 1.399 . S
C1470 H1456 0.929 . S
C1470 C1469 1.399 . S
C1470 C1471 1.385 . S
C1471 H1457 0.931 . S
C1471 C1470 1.385 . S
C1471 C1472 1.389 . S
C1472 C1471 1.389 . S
C1472 C1473 1.387 . S
C1473 H1458 0.930 . S
C1473 C1468 1.390 . S
C1473 C1472 1.387 . S
H1474 C1486 0.930 . S
H1475 C1488 0.930 . S
H1476 C1489 0.930 . S
H1477 C1493 0.959 . S
H1478 C1493 0.959 . S
H1479 C1493 0.961 . S
H1480 C1494 0.960 . S
H1481 C1494 0.961 . S
H1482 C1494 0.959 . S
H1483 C1497 0.929 . S
H1484 C1498 0.931 . S
H1485 C1500 0.930 . S
C1486 H1474 0.930 . S
C1486 C1487 1.399 . S
C1486 C1491 1.399 . S
C1487 C1486 1.399 . S
C1487 C1488 1.376 . S
C1488 H1475 0.930 . S
C1488 C1487 1.376 . S
C1488 C1489 1.388 . S
C1489 H1476 0.930 . S
C1489 C1488 1.388 . S
C1489 C1490 1.390 . S
C1490 C1489 1.390 . S
C1490 C1491 1.394 . S
C1490 C1496 1.465 . S
C1491 C1486 1.399 . S
C1491 C1490 1.394 . S
C1491 C1492 1.516 . S
C1492 C1491 1.516 . S
C1492 C1493 1.502 . S
C1492 C1494 1.561 . S
C1492 C1495 1.526 . S
C1493 H1477 0.959 . S
C1493 H1478 0.959 . S
C1493 H1479 0.961 . S
C1493 C1492 1.502 . S
C1494 H1480 0.960 . S
C1494 H1481 0.961 . S
C1494 H1482 0.959 . S
C1494 C1492 1.561 . S
C1495 C1492 1.526 . S
C1495 C1496 1.396 . S
C1495 C1500 1.390 . S
C1496 C1490 1.465 . S
C1496 C1495 1.396 . S
C1496 C1497 1.399 . S
C1497 H1483 0.929 . S
C1497 C1496 1.399 . S
C1497 C1498 1.385 . S
C1498 H1484 0.931 . S
C1498 C1497 1.385 . S
C1498 C1499 1.389 . S
C1499 C1498 1.389 . S
C1499 C1500 1.387 . S
C1500 H1485 0.930 . S
C1500 C1495 1.390 . S
C1500 C1499 1.387 . S
H1501 C1513 0.930 . S
H1502 C1515 0.930 . S
H1503 C1516 0.930 . S
H1504 C1520 0.959 . S
H1505 C1520 0.959 . S
H1506 C1520 0.961 . S
H1507 C1521 0.960 . S
H1508 C1521 0.961 . S
H1509 C1521 0.959 . S
H1510 C1524 0.930 1_655 S
H1511 C1525 0.931 . S
H1512 C1527 0.930 . S
C1513 H1501 0.930 . S
C1513 C1514 1.388 1_454 S
C1513 C1518 1.399 . S
C1514 C1513 1.388 1_656 S
C1514 C1515 1.387 . S
C1515 H1502 0.930 . S
C1515 C1514 1.387 . S
C1515 C1516 1.388 . S
C1516 H1503 0.930 . S
C1516 C1515 1.388 . S
C1516 C1517 1.390 1_655 S
C1517 C1516 1.390 1_455 S
C1517 C1518 1.394 1_556 S
C1517 C1523 1.465 1_545 S
C1518 C1513 1.399 . S
C1518 C1517 1.394 1_554 S
C1518 C1519 1.516 . S
C1519 C1518 1.516 . S
C1519 C1520 1.502 . S
C1519 C1521 1.561 1_455 S
C1519 C1522 1.526 1_545 S
C1520 H1504 0.959 . S
C1520 H1505 0.959 . S
C1520 H1506 0.961 . S
C1520 C1519 1.502 . S
C1521 H1507 0.960 . S
C1521 H1508 0.961 . S
C1521 H1509 0.959 . S
C1521 C1519 1.561 1_655 S
C1522 C1519 1.526 1_565 S
C1522 C1523 1.396 1_554 S
C1522 C1527 1.390 . S
C1523 C1517 1.465 1_565 S
C1523 C1522 1.396 1_556 S
C1523 C1524 1.399 . S
C1524 H1510 0.930 1_455 S
C1524 C1523 1.399 . S
C1524 C1525 1.385 . S
C1525 H1511 0.931 . S
C1525 C1524 1.385 . S
C1525 C1526 1.389 1_556 S
C1526 C1525 1.389 1_554 S
C1526 C1527 1.387 . S
C1527 H1512 0.930 . S
C1527 C1522 1.390 . S
C1527 C1526 1.387 . S
H1528 C1540 0.930 . S
H1529 C1542 0.930 . S
H1530 C1543 0.930 . S
H1531 C1547 0.959 . S
H1532 C1547 0.959 . S
H1533 C1547 0.961 . S
H1534 C1548 0.960 . S
H1535 C1548 0.961 . S
H1536 C1548 0.959 . S
H1537 C1551 0.929 . S
H1538 C1552 0.931 . S
H1539 C1554 0.930 . S
C1540 H1528 0.930 . S
C1540 C1541 1.399 . S
C1540 C1545 1.399 . S
C1541 C1540 1.399 . S
C1541 C1542 1.376 . S
C1542 H1529 0.930 . S
C1542 C1541 1.376 . S
C1542 C1543 1.388 . S
C1543 H1530 0.930 . S
C1543 C1542 1.388 . S
C1543 C1544 1.390 . S
C1544 C1543 1.390 . S
C1544 C1545 1.394 . S
C1544 C1550 1.465 . S
C1545 C1540 1.399 . S
C1545 C1544 1.394 . S
C1545 C1546 1.516 . S
C1546 C1545 1.516 . S
C1546 C1547 1.502 . S
C1546 C1548 1.561 . S
C1546 C1549 1.526 . S
C1547 H1531 0.959 . S
C1547 H1532 0.959 . S
C1547 H1533 0.961 . S
C1547 C1546 1.502 . S
C1548 H1534 0.960 . S
C1548 H1535 0.961 . S
C1548 H1536 0.959 . S
C1548 C1546 1.561 . S
C1549 C1546 1.526 . S
C1549 C1550 1.396 . S
C1549 C1554 1.390 . S
C1550 C1544 1.465 . S
C1550 C1549 1.396 . S
C1550 C1551 1.399 . S
C1551 H1537 0.929 . S
C1551 C1550 1.399 . S
C1551 C1552 1.385 . S
C1552 H1538 0.931 . S
C1552 C1551 1.385 . S
C1552 C1553 1.389 . S
C1553 C1552 1.389 . S
C1553 C1554 1.387 . S
C1554 H1539 0.930 . S
C1554 C1549 1.390 . S
C1554 C1553 1.387 . S
H1555 C1567 0.930 . S
H1556 C1569 0.930 . S
H1557 C1570 0.930 . S
H1558 C1574 0.959 . S
H1559 C1574 0.959 . S
H1560 C1574 0.961 . S
H1561 C1575 0.960 . S
H1562 C1575 0.961 . S
H1563 C1575 0.959 . S
H1564 C1578 0.929 . S
H1565 C1579 0.931 . S
H1566 C1581 0.930 . S
C1567 H1555 0.930 . S
C1567 C1568 1.399 . S
C1567 C1572 1.399 . S
C1568 C1567 1.399 . S
C1568 C1569 1.376 . S
C1569 H1556 0.930 . S
C1569 C1568 1.376 . S
C1569 C1570 1.388 . S
C1570 H1557 0.930 . S
C1570 C1569 1.388 . S
C1570 C1571 1.390 . S
C1571 C1570 1.390 . S
C1571 C1572 1.394 . S
C1571 C1577 1.465 . S
C1572 C1567 1.399 . S
C1572 C1571 1.394 . S
C1572 C1573 1.516 . S
C1573 C1572 1.516 . S
C1573 C1574 1.502 . S
C1573 C1575 1.561 . S
C1573 C1576 1.526 . S
C1574 H1558 0.959 . S
C1574 H1559 0.959 . S
C1574 H1560 0.961 . S
C1574 C1573 1.502 . S
C1575 H1561 0.960 . S
C1575 H1562 0.961 . S
C1575 H1563 0.959 . S
C1575 C1573 1.561 . S
C1576 C1573 1.526 . S
C1576 C1577 1.396 . S
C1576 C1581 1.390 . S
C1577 C1571 1.465 . S
C1577 C1576 1.396 . S
C1577 C1578 1.399 . S
C1578 H1564 0.929 . S
C1578 C1577 1.399 . S
C1578 C1579 1.385 . S
C1579 H1565 0.931 . S
C1579 C1578 1.385 . S
C1579 C1580 1.389 . S
C1580 C1579 1.389 . S
C1580 C1581 1.387 . S
C1581 H1566 0.930 . S
C1581 C1576 1.390 . S
C1581 C1580 1.387 . S
H1582 C1594 0.930 . S
H1583 C1596 0.930 . S
H1584 C1597 0.930 . S
H1585 C1601 0.959 . S
H1586 C1601 0.959 . S
H1587 C1601 0.961 . S
H1588 C1602 0.960 . S
H1589 C1602 0.961 . S
H1590 C1602 0.959 . S
H1591 C1605 0.929 . S
H1592 C1606 0.931 . S
H1593 C1608 0.930 . S
C1594 H1582 0.930 . S
C1594 C1595 1.399 . S
C1594 C1599 1.399 . S
C1595 C1594 1.399 . S
C1595 C1596 1.376 . S
C1596 H1583 0.930 . S
C1596 C1595 1.376 . S
C1596 C1597 1.388 . S
C1597 H1584 0.930 . S
C1597 C1596 1.388 . S
C1597 C1598 1.390 . S
C1598 C1597 1.390 . S
C1598 C1599 1.394 . S
C1598 C1604 1.465 . S
C1599 C1594 1.399 . S
C1599 C1598 1.394 . S
C1599 C1600 1.516 . S
C1600 C1599 1.516 . S
C1600 C1601 1.502 . S
C1600 C1602 1.561 . S
C1600 C1603 1.526 . S
C1601 H1585 0.959 . S
C1601 H1586 0.959 . S
C1601 H1587 0.961 . S
C1601 C1600 1.502 . S
C1602 H1588 0.960 . S
C1602 H1589 0.961 . S
C1602 H1590 0.959 . S
C1602 C1600 1.561 . S
C1603 C1600 1.526 . S
C1603 C1604 1.396 . S
C1603 C1608 1.390 . S
C1604 C1598 1.465 . S
C1604 C1603 1.396 . S
C1604 C1605 1.399 . S
C1605 H1591 0.929 . S
C1605 C1604 1.399 . S
C1605 C1606 1.385 . S
C1606 H1592 0.931 . S
C1606 C1605 1.385 . S
C1606 C1607 1.389 . S
C1607 C1606 1.389 . S
C1607 C1608 1.387 . S
C1608 H1593 0.930 . S
C1608 C1603 1.390 . S
C1608 C1607 1.387 . S
H1609 C1621 0.930 . S
H1610 C1623 0.930 . S
H1611 C1624 0.930 . S
H1612 C1628 0.959 . S
H1613 C1628 0.959 . S
H1614 C1628 0.961 . S
H1615 C1629 0.960 . S
H1616 C1629 0.961 . S
H1617 C1629 0.959 . S
H1618 C1632 0.929 . S
H1619 C1633 0.931 . S
H1620 C1635 0.930 . S
C1621 H1609 0.930 . S
C1621 C1622 1.399 . S
C1621 C1626 1.399 . S
C1622 C1621 1.399 . S
C1622 C1623 1.376 . S
C1623 H1610 0.930 . S
C1623 C1622 1.376 . S
C1623 C1624 1.388 . S
C1624 H1611 0.930 . S
C1624 C1623 1.388 . S
C1624 C1625 1.390 . S
C1625 C1624 1.390 . S
C1625 C1626 1.394 . S
C1625 C1631 1.465 . S
C1626 C1621 1.399 . S
C1626 C1625 1.394 . S
C1626 C1627 1.516 . S
C1627 C1626 1.516 . S
C1627 C1628 1.502 . S
C1627 C1629 1.561 . S
C1627 C1630 1.526 . S
C1628 H1612 0.959 . S
C1628 H1613 0.959 . S
C1628 H1614 0.961 . S
C1628 C1627 1.502 . S
C1629 H1615 0.960 . S
C1629 H1616 0.961 . S
C1629 H1617 0.959 . S
C1629 C1627 1.561 . S
C1630 C1627 1.526 . S
C1630 C1631 1.396 . S
C1630 C1635 1.390 . S
C1631 C1625 1.465 . S
C1631 C1630 1.396 . S
C1631 C1632 1.399 . S
C1632 H1618 0.929 . S
C1632 C1631 1.399 . S
C1632 C1633 1.385 . S
C1633 H1619 0.931 . S
C1633 C1632 1.385 . S
C1633 C1634 1.389 . S
C1634 C1633 1.389 . S
C1634 C1635 1.387 . S
C1635 H1620 0.930 . S
C1635 C1630 1.390 . S
C1635 C1634 1.387 . S
H1636 C1648 0.930 . S
H1637 C1650 0.930 . S
H1638 C1651 0.930 . S
H1639 C1655 0.959 . S
H1640 C1655 0.959 . S
H1641 C1655 0.961 . S
H1642 C1656 0.960 . S
H1643 C1656 0.961 . S
H1644 C1656 0.959 . S
H1645 C1659 0.929 . S
H1646 C1660 0.931 . S
H1647 C1662 0.930 . S
C1648 H1636 0.930 . S
C1648 C1649 1.399 . S
C1648 C1653 1.399 . S
C1649 C1648 1.399 . S
C1649 C1650 1.376 1_554 S
C1650 H1637 0.930 . S
C1650 C1649 1.376 1_556 S
C1650 C1651 1.388 . S
C1651 H1638 0.930 . S
C1651 C1650 1.388 . S
C1651 C1652 1.390 . S
C1652 C1651 1.390 . S
C1652 C1653 1.394 1_556 S
C1652 C1658 1.465 . S
C1653 C1648 1.399 . S
C1653 C1652 1.394 1_554 S
C1653 C1654 1.516 . S
C1654 C1653 1.516 . S
C1654 C1655 1.502 . S
C1654 C1656 1.561 . S
C1654 C1657 1.526 . S
C1655 H1639 0.959 . S
C1655 H1640 0.959 . S
C1655 H1641 0.961 . S
C1655 C1654 1.502 . S
C1656 H1642 0.960 . S
C1656 H1643 0.961 . S
C1656 H1644 0.959 . S
C1656 C1654 1.561 . S
C1657 C1654 1.526 . S
C1657 C1658 1.396 1_554 S
C1657 C1662 1.390 . S
C1658 C1652 1.465 . S
C1658 C1657 1.396 1_556 S
C1658 C1659 1.399 . S
C1659 H1645 0.929 . S
C1659 C1658 1.399 . S
C1659 C1660 1.385 . S
C1660 H1646 0.931 . S
C1660 C1659 1.385 . S
C1660 C1661 1.389 . S
C1661 C1660 1.389 . S
C1661 C1662 1.387 1_556 S
C1662 H1647 0.930 . S
C1662 C1657 1.390 . S
C1662 C1661 1.387 1_554 S
H1663 C1675 0.930 . S
H1664 C1677 0.930 . S
H1665 C1678 0.930 . S
H1666 C1682 0.959 . S
H1667 C1682 0.959 . S
H1668 C1682 0.961 . S
H1669 C1683 0.960 . S
H1670 C1683 0.961 . S
H1671 C1683 0.959 . S
H1672 C1686 0.929 . S
H1673 C1687 0.931 . S
H1674 C1689 0.930 . S
C1675 H1663 0.930 . S
C1675 C1676 1.399 . S
C1675 C1680 1.399 . S
C1676 C1675 1.399 . S
C1676 C1677 1.376 . S
C1677 H1664 0.930 . S
C1677 C1676 1.376 . S
C1677 C1678 1.388 . S
C1678 H1665 0.930 . S
C1678 C1677 1.388 . S
C1678 C1679 1.390 . S
C1679 C1678 1.390 . S
C1679 C1680 1.394 . S
C1679 C1685 1.465 . S
C1680 C1675 1.399 . S
C1680 C1679 1.394 . S
C1680 C1681 1.516 . S
C1681 C1680 1.516 . S
C1681 C1682 1.502 1_655 S
C1681 C1683 1.561 . S
C1681 C1684 1.526 . S
C1682 H1666 0.959 . S
C1682 H1667 0.959 . S
C1682 H1668 0.961 . S
C1682 C1681 1.502 1_455 S
C1683 H1669 0.960 . S
C1683 H1670 0.961 . S
C1683 H1671 0.959 . S
C1683 C1681 1.561 . S
C1684 C1681 1.526 . S
C1684 C1685 1.396 . S
C1684 C1689 1.390 . S
C1685 C1679 1.465 . S
C1685 C1684 1.396 . S
C1685 C1686 1.399 . S
C1686 H1672 0.929 . S
C1686 C1685 1.399 . S
C1686 C1687 1.385 . S
C1687 H1673 0.931 . S
C1687 C1686 1.385 . S
C1687 C1688 1.389 . S
C1688 C1687 1.389 . S
C1688 C1689 1.387 . S
C1689 H1674 0.930 . S
C1689 C1684 1.390 . S
C1689 C1688 1.387 . S
H1690 C1702 0.930 . S
H1691 C1704 0.930 . S
H1692 C1705 0.930 . S
H1693 C1709 0.959 . S
H1694 C1709 0.959 . S
H1695 C1709 0.961 . S
H1696 C1710 0.960 . S
H1697 C1710 0.969 . S
H1698 C1710 0.959 . S
H1699 C1713 0.929 1_455 S
H1700 C1714 0.931 . S
H1701 C1716 0.930 . S
C1702 H1690 0.930 . S
C1702 C1703 1.399 1_654 S
C1702 C1707 1.399 . S
C1703 C1702 1.399 1_456 S
C1703 C1704 1.376 . S
C1704 H1691 0.930 . S
C1704 C1703 1.376 . S
C1704 C1705 1.388 . S
C1705 H1692 0.930 . S
C1705 C1704 1.388 . S
C1705 C1706 1.390 1_455 S
C1706 C1705 1.390 1_655 S
C1706 C1707 1.394 1_556 S
C1706 C1712 1.465 . S
C1707 C1702 1.399 . S
C1707 C1706 1.394 1_554 S
C1707 C1708 1.516 . S
C1708 C1707 1.516 . S
C1708 C1709 1.502 . S
C1708 C1710 1.561 1_655 S
C1708 C1711 1.526 . S
C1709 H1693 0.959 . S
C1709 H1694 0.959 . S
C1709 H1695 0.961 . S
C1709 C1708 1.502 . S
C1710 H1696 0.960 . S
C1710 H1697 0.969 . S
C1710 H1698 0.959 . S
C1710 C1708 1.561 1_455 S
C1711 C1708 1.526 . S
C1711 C1712 1.396 1_554 S
C1711 C1716 1.390 . S
C1712 C1706 1.465 . S
C1712 C1711 1.396 1_556 S
C1712 C1713 1.399 . S
C1713 H1699 0.929 1_655 S
C1713 C1712 1.399 . S
C1713 C1714 1.385 . S
C1714 H1700 0.931 . S
C1714 C1713 1.385 . S
C1714 C1715 1.389 1_556 S
C1715 C1714 1.389 1_554 S
C1715 C1716 1.387 . S
C1716 H1701 0.930 . S
C1716 C1711 1.390 . S
C1716 C1715 1.387 . S
H1717 C1729 0.930 . S
H1718 C1731 0.930 . S
H1719 C1732 0.930 . S
H1720 C1736 0.959 . S
H1721 C1736 0.959 . S
H1722 C1736 0.961 . S
H1723 C1737 0.960 . S
H1724 C1737 0.961 . S
H1725 C1737 0.959 . S
H1726 C1740 0.929 . S
H1727 C1741 0.931 . S
H1728 C1743 0.930 . S
C1729 H1717 0.930 . S
C1729 C1730 1.399 . S
C1729 C1734 1.399 . S
C1730 C1729 1.399 . S
C1730 C1731 1.376 . S
C1731 H1718 0.930 . S
C1731 C1730 1.376 . S
C1731 C1732 1.388 . S
C1732 H1719 0.930 . S
C1732 C1731 1.388 . S
C1732 C1733 1.390 . S
C1733 C1732 1.390 . S
C1733 C1734 1.394 . S
C1733 C1739 1.465 . S
C1734 C1729 1.399 . S
C1734 C1733 1.394 . S
C1734 C1735 1.516 . S
C1735 C1734 1.516 . S
C1735 C1736 1.502 . S
C1735 C1737 1.561 . S
C1735 C1738 1.526 . S
C1736 H1720 0.959 . S
C1736 H1721 0.959 . S
C1736 H1722 0.961 . S
C1736 C1735 1.502 . S
C1737 H1723 0.960 . S
C1737 H1724 0.961 . S
C1737 H1725 0.959 . S
C1737 C1735 1.561 . S
C1738 C1735 1.526 . S
C1738 C1739 1.396 . S
C1738 C1743 1.390 . S
C1739 C1733 1.465 . S
C1739 C1738 1.396 . S
C1739 C1740 1.399 . S
C1740 H1726 0.929 . S
C1740 C1739 1.399 . S
C1740 C1741 1.385 . S
C1741 H1727 0.931 . S
C1741 C1740 1.385 . S
C1741 C1742 1.389 . S
C1742 C1741 1.389 . S
C1742 C1743 1.387 . S
C1743 H1728 0.930 . S
C1743 C1738 1.390 . S
C1743 C1742 1.387 . S
H1744 C1756 0.930 . S
H1745 C1758 0.930 . S
H1746 C1759 0.930 . S
H1747 C1763 0.959 . S
H1748 C1763 0.959 . S
H1749 C1763 0.961 . S
H1750 C1764 0.960 . S
H1751 C1764 0.961 . S
H1752 C1764 0.959 . S
H1753 C1767 0.929 . S
H1754 C1768 0.931 . S
H1755 C1770 0.930 . S
C1756 H1744 0.930 . S
C1756 C1757 1.399 . S
C1756 C1761 1.399 . S
C1757 C1756 1.399 . S
C1757 C1758 1.376 . S
C1758 H1745 0.930 . S
C1758 C1757 1.376 . S
C1758 C1759 1.388 . S
C1759 H1746 0.930 . S
C1759 C1758 1.388 . S
C1759 C1760 1.390 . S
C1760 C1759 1.390 . S
C1760 C1761 1.394 . S
C1760 C1766 1.465 . S
C1761 C1756 1.399 . S
C1761 C1760 1.394 . S
C1761 C1762 1.516 . S
C1762 C1761 1.516 . S
C1762 C1763 1.502 . S
C1762 C1764 1.561 . S
C1762 C1765 1.526 . S
C1763 H1747 0.959 . S
C1763 H1748 0.959 . S
C1763 H1749 0.961 . S
C1763 C1762 1.502 . S
C1764 H1750 0.960 . S
C1764 H1751 0.961 . S
C1764 H1752 0.959 . S
C1764 C1762 1.561 . S
C1765 C1762 1.526 . S
C1765 C1766 1.396 . S
C1765 C1770 1.390 . S
C1766 C1760 1.465 . S
C1766 C1765 1.396 . S
C1766 C1767 1.399 . S
C1767 H1753 0.929 . S
C1767 C1766 1.399 . S
C1767 C1768 1.385 . S
C1768 H1754 0.931 . S
C1768 C1767 1.385 . S
C1768 C1769 1.389 . S
C1769 C1768 1.389 . S
C1769 C1770 1.387 . S
C1770 H1755 0.930 . S
C1770 C1765 1.390 . S
C1770 C1769 1.387 . S
H1771 C1783 0.930 . S
H1772 C1785 0.930 . S
H1773 C1786 0.930 . S
H1774 C1790 0.959 . S
H1775 C1790 0.959 . S
H1776 C1790 0.961 . S
H1777 C1791 0.960 . S
H1778 C1791 0.961 . S
H1779 C1791 0.959 . S
H1780 C1794 0.929 . S
H1781 C1795 0.931 . S
H1782 C1797 0.930 . S
C1783 H1771 0.930 . S
C1783 C1784 1.399 . S
C1783 C1788 1.399 . S
C1784 C1783 1.399 . S
C1784 C1785 1.376 . S
C1785 H1772 0.930 . S
C1785 C1784 1.376 . S
C1785 C1786 1.388 . S
C1786 H1773 0.930 . S
C1786 C1785 1.388 . S
C1786 C1787 1.390 . S
C1787 C1786 1.390 . S
C1787 C1788 1.394 . S
C1787 C1793 1.465 . S
C1788 C1783 1.399 . S
C1788 C1787 1.394 . S
C1788 C1789 1.516 . S
C1789 C1788 1.516 . S
C1789 C1790 1.502 . S
C1789 C1791 1.561 . S
C1789 C1792 1.526 . S
C1790 H1774 0.959 . S
C1790 H1775 0.959 . S
C1790 H1776 0.961 . S
C1790 C1789 1.502 . S
C1791 H1777 0.960 . S
C1791 H1778 0.961 . S
C1791 H1779 0.959 . S
C1791 C1789 1.561 . S
C1792 C1789 1.526 . S
C1792 C1793 1.396 . S
C1792 C1797 1.390 . S
C1793 C1787 1.465 . S
C1793 C1792 1.396 . S
C1793 C1794 1.399 . S
C1794 H1780 0.929 . S
C1794 C1793 1.399 . S
C1794 C1795 1.385 . S
C1795 H1781 0.931 . S
C1795 C1794 1.385 . S
C1795 C1796 1.389 . S
C1796 C1795 1.389 . S
C1796 C1797 1.387 . S
C1797 H1782 0.930 . S
C1797 C1792 1.390 . S
C1797 C1796 1.387 . S
H1798 C1810 0.930 . S
H1799 C1812 0.930 . S
H1800 C1813 0.930 . S
H1801 C1817 0.959 . S
H1802 C1817 0.959 . S
H1803 C1817 0.961 . S
H1804 C1818 0.960 . S
H1805 C1818 0.961 . S
H1806 C1818 0.959 . S
H1807 C1821 0.929 . S
H1808 C1822 0.931 . S
H1809 C1824 0.930 . S
C1810 H1798 0.930 . S
C1810 C1811 1.399 . S
C1810 C1815 1.399 . S
C1811 C1810 1.399 . S
C1811 C1812 1.376 . S
C1812 H1799 0.930 . S
C1812 C1811 1.376 . S
C1812 C1813 1.388 . S
C1813 H1800 0.930 . S
C1813 C1812 1.388 . S
C1813 C1814 1.390 . S
C1814 C1813 1.390 . S
C1814 C1815 1.394 . S
C1814 C1820 1.465 . S
C1815 C1810 1.399 . S
C1815 C1814 1.394 . S
C1815 C1816 1.516 . S
C1816 C1815 1.516 . S
C1816 C1817 1.502 . S
C1816 C1818 1.561 . S
C1816 C1819 1.526 . S
C1817 H1801 0.959 . S
C1817 H1802 0.959 . S
C1817 H1803 0.961 . S
C1817 C1816 1.502 . S
C1818 H1804 0.960 . S
C1818 H1805 0.961 . S
C1818 H1806 0.959 . S
C1818 C1816 1.561 . S
C1819 C1816 1.526 . S
C1819 C1820 1.396 . S
C1819 C1824 1.390 . S
C1820 C1814 1.465 . S
C1820 C1819 1.396 . S
C1820 C1821 1.399 . S
C1821 H1807 0.929 . S
C1821 C1820 1.399 . S
C1821 C1822 1.385 . S
C1822 H1808 0.931 . S
C1822 C1821 1.385 . S
C1822 C1823 1.389 . S
C1823 C1822 1.389 . S
C1823 C1824 1.387 . S
C1824 H1809 0.930 . S
C1824 C1819 1.390 . S
C1824 C1823 1.387 . S
H1825 C1837 0.930 . S
H1826 C1839 0.930 . S
H1827 C1840 0.930 . S
H1828 C1844 0.959 . S
H1829 C1844 0.959 . S
H1830 C1844 0.961 . S
H1831 C1845 0.960 . S
H1832 C1845 0.961 . S
H1833 C1845 0.959 . S
H1834 C1848 0.929 . S
H1835 C1849 0.931 . S
H1836 C1851 0.930 . S
C1837 H1825 0.930 . S
C1837 C1838 1.399 . S
C1837 C1842 1.399 . S
C1838 C1837 1.399 . S
C1838 C1839 1.376 . S
C1839 H1826 0.930 . S
C1839 C1838 1.376 . S
C1839 C1840 1.388 . S
C1840 H1827 0.930 . S
C1840 C1839 1.388 . S
C1840 C1841 1.390 . S
C1841 C1840 1.390 . S
C1841 C1842 1.394 . S
C1841 C1847 1.465 . S
C1842 C1837 1.399 . S
C1842 C1841 1.394 . S
C1842 C1843 1.516 . S
C1843 C1842 1.516 . S
C1843 C1844 1.502 . S
C1843 C1845 1.561 . S
C1843 C1846 1.526 . S
C1844 H1828 0.959 . S
C1844 H1829 0.959 . S
C1844 H1830 0.961 . S
C1844 C1843 1.502 . S
C1845 H1831 0.960 . S
C1845 H1832 0.961 . S
C1845 H1833 0.959 . S
C1845 C1843 1.561 . S
C1846 C1843 1.526 . S
C1846 C1847 1.396 . S
C1846 C1851 1.390 . S
C1847 C1841 1.465 . S
C1847 C1846 1.396 . S
C1847 C1848 1.399 . S
C1848 H1834 0.929 . S
C1848 C1847 1.399 . S
C1848 C1849 1.385 . S
C1849 H1835 0.931 . S
C1849 C1848 1.385 . S
C1849 C1850 1.389 . S
C1850 C1849 1.389 . S
C1850 C1851 1.387 . S
C1851 H1836 0.930 . S
C1851 C1846 1.390 . S
C1851 C1850 1.387 . S
H1852 C1864 0.930 . S
H1853 C1866 0.930 . S
H1854 C1867 0.930 . S
H1855 C1871 0.959 . S
H1856 C1871 0.959 . S
H1857 C1871 0.961 . S
H1858 C1872 0.960 . S
H1859 C1872 0.961 . S
H1860 C1872 0.959 . S
H1861 C1875 0.929 . S
H1862 C1876 0.931 . S
H1863 C1878 0.930 . S
C1864 H1852 0.930 . S
C1864 C1865 1.399 . S
C1864 C1869 1.399 . S
C1865 C1864 1.399 . S
C1865 C1866 1.376 . S
C1866 H1853 0.930 . S
C1866 C1865 1.376 . S
C1866 C1867 1.388 . S
C1867 H1854 0.930 . S
C1867 C1866 1.388 . S
C1867 C1868 1.390 . S
C1868 C1867 1.390 . S
C1868 C1869 1.394 . S
C1868 C1874 1.465 . S
C1869 C1864 1.399 . S
C1869 C1868 1.394 . S
C1869 C1870 1.516 . S
C1870 C1869 1.516 . S
C1870 C1871 1.502 . S
C1870 C1872 1.561 . S
C1870 C1873 1.526 . S
C1871 H1855 0.959 . S
C1871 H1856 0.959 . S
C1871 H1857 0.961 . S
C1871 C1870 1.502 . S
C1872 H1858 0.960 . S
C1872 H1859 0.961 . S
C1872 H1860 0.959 . S
C1872 C1870 1.561 . S
C1873 C1870 1.526 . S
C1873 C1874 1.396 . S
C1873 C1878 1.390 . S
C1874 C1868 1.465 . S
C1874 C1873 1.396 . S
C1874 C1875 1.399 . S
C1875 H1861 0.929 . S
C1875 C1874 1.399 . S
C1875 C1876 1.385 . S
C1876 H1862 0.931 . S
C1876 C1875 1.385 . S
C1876 C1877 1.389 . S
C1877 C1876 1.389 . S
C1877 C1878 1.387 . S
C1878 H1863 0.930 . S
C1878 C1873 1.390 . S
C1878 C1877 1.387 . S
H1879 C1891 0.930 . S
H1880 C1893 0.930 . S
H1881 C1894 0.930 . S
H1882 C1898 0.959 . S
H1883 C1898 0.959 . S
H1884 C1898 0.961 . S
H1885 C1899 0.960 . S
H1886 C1899 0.961 . S
H1887 C1899 0.959 . S
H1888 C1902 0.929 . S
H1889 C1903 0.931 . S
H1890 C1905 0.930 . S
C1891 H1879 0.930 . S
C1891 C1892 1.399 . S
C1891 C1896 1.399 . S
C1892 C1891 1.399 . S
C1892 C1893 1.376 . S
C1893 H1880 0.930 . S
C1893 C1892 1.376 . S
C1893 C1894 1.388 . S
C1894 H1881 0.930 . S
C1894 C1893 1.388 . S
C1894 C1895 1.390 . S
C1895 C1894 1.390 . S
C1895 C1896 1.394 . S
C1895 C1901 1.465 . S
C1896 C1891 1.399 . S
C1896 C1895 1.394 . S
C1896 C1897 1.516 . S
C1897 C1896 1.516 . S
C1897 C1898 1.502 . S
C1897 C1899 1.561 . S
C1897 C1900 1.526 . S
C1898 H1882 0.959 . S
C1898 H1883 0.959 . S
C1898 H1884 0.961 . S
C1898 C1897 1.502 . S
C1899 H1885 0.960 . S
C1899 H1886 0.961 . S
C1899 H1887 0.959 . S
C1899 C1897 1.561 . S
C1900 C1897 1.526 . S
C1900 C1901 1.396 . S
C1900 C1905 1.390 . S
C1901 C1895 1.465 . S
C1901 C1900 1.396 . S
C1901 C1902 1.399 . S
C1902 H1888 0.929 . S
C1902 C1901 1.399 . S
C1902 C1903 1.385 . S
C1903 H1889 0.931 . S
C1903 C1902 1.385 . S
C1903 C1904 1.389 . S
C1904 C1903 1.389 . S
C1904 C1905 1.387 . S
C1905 H1890 0.930 . S
C1905 C1900 1.390 . S
C1905 C1904 1.387 . S
H1906 C1918 0.930 . S
H1907 C1920 0.930 . S
H1908 C1921 0.930 . S
H1909 C1925 0.959 . S
H1910 C1925 0.959 . S
H1911 C1925 0.961 . S
H1912 C1926 0.960 . S
H1913 C1926 0.961 . S
H1914 C1926 0.959 . S
H1915 C1929 0.929 . S
H1916 C1930 0.931 . S
H1917 C1932 0.930 . S
C1918 H1906 0.930 . S
C1918 C1919 1.399 . S
C1918 C1923 1.399 . S
C1919 C1918 1.399 . S
C1919 C1920 1.376 . S
C1920 H1907 0.930 . S
C1920 C1919 1.376 . S
C1920 C1921 1.388 . S
C1921 H1908 0.930 . S
C1921 C1920 1.388 . S
C1921 C1922 1.390 . S
C1922 C1921 1.390 . S
C1922 C1923 1.394 . S
C1922 C1928 1.465 . S
C1923 C1918 1.399 . S
C1923 C1922 1.394 . S
C1923 C1924 1.516 . S
C1924 C1923 1.516 . S
C1924 C1925 1.502 . S
C1924 C1926 1.561 . S
C1924 C1927 1.526 . S
C1925 H1909 0.959 . S
C1925 H1910 0.959 . S
C1925 H1911 0.961 . S
C1925 C1924 1.502 . S
C1926 H1912 0.960 . S
C1926 H1913 0.961 . S
C1926 H1914 0.959 . S
C1926 C1924 1.561 . S
C1927 C1924 1.526 . S
C1927 C1928 1.396 . S
C1927 C1932 1.390 . S
C1928 C1922 1.465 . S
C1928 C1927 1.396 . S
C1928 C1929 1.399 . S
C1929 H1915 0.929 . S
C1929 C1928 1.399 . S
C1929 C1930 1.385 . S
C1930 H1916 0.931 . S
C1930 C1929 1.385 . S
C1930 C1931 1.389 . S
C1931 C1930 1.389 . S
C1931 C1932 1.387 . S
C1932 H1917 0.930 . S
C1932 C1927 1.390 . S
C1932 C1931 1.387 . S
H1933 C1945 0.930 . S
H1934 C1947 0.930 . S
H1935 C1948 0.930 . S
H1936 C1952 0.959 . S
H1937 C1952 0.959 . S
H1938 C1952 0.961 . S
H1939 C1953 0.960 . S
H1940 C1953 0.961 . S
H1941 C1953 0.959 . S
H1942 C1956 0.929 . S
H1943 C1957 0.931 . S
H1944 C1959 0.930 . S
C1945 H1933 0.930 . S
C1945 C1946 1.399 . S
C1945 C1950 1.399 . S
C1946 C1945 1.399 . S
C1946 C1947 1.376 . S
C1947 H1934 0.930 . S
C1947 C1946 1.376 . S
C1947 C1948 1.388 . S
C1948 H1935 0.930 . S
C1948 C1947 1.388 . S
C1948 C1949 1.390 . S
C1949 C1948 1.390 . S
C1949 C1950 1.394 . S
C1949 C1955 1.465 . S
C1950 C1945 1.399 . S
C1950 C1949 1.394 . S
C1950 C1951 1.516 . S
C1951 C1950 1.516 . S
C1951 C1952 1.502 . S
C1951 C1953 1.561 . S
C1951 C1954 1.526 . S
C1952 H1936 0.959 . S
C1952 H1937 0.959 . S
C1952 H1938 0.961 . S
C1952 C1951 1.502 . S
C1953 H1939 0.960 . S
C1953 H1940 0.961 . S
C1953 H1941 0.959 . S
C1953 C1951 1.561 . S
C1954 C1951 1.526 . S
C1954 C1955 1.396 . S
C1954 C1959 1.390 . S
C1955 C1949 1.465 . S
C1955 C1954 1.396 . S
C1955 C1956 1.399 . S
C1956 H1942 0.929 . S
C1956 C1955 1.399 . S
C1956 C1957 1.385 . S
C1957 H1943 0.931 . S
C1957 C1956 1.385 . S
C1957 C1958 1.389 . S
C1958 C1957 1.389 . S
C1958 C1959 1.387 . S
C1959 H1944 0.930 . S
C1959 C1954 1.390 . S
C1959 C1958 1.387 . S
H1960 C1972 0.930 . S
H1961 C1974 0.930 . S
H1962 C1975 0.930 . S
H1963 C1979 0.959 . S
H1964 C1979 0.959 . S
H1965 C1979 0.961 . S
H1966 C1980 0.960 . S
H1967 C1980 0.961 . S
H1968 C1980 0.959 . S
H1969 C1983 0.929 . S
H1970 C1984 0.931 . S
H1971 C1986 0.930 . S
C1972 H1960 0.930 . S
C1972 C1973 1.399 . S
C1972 C1977 1.399 . S
C1973 C1972 1.399 . S
C1973 C1974 1.376 . S
C1974 H1961 0.930 . S
C1974 C1973 1.376 . S
C1974 C1975 1.388 . S
C1975 H1962 0.930 . S
C1975 C1974 1.388 . S
C1975 C1976 1.390 . S
C1976 C1975 1.390 . S
C1976 C1977 1.394 . S
C1976 C1982 1.465 . S
C1977 C1972 1.399 . S
C1977 C1976 1.394 . S
C1977 C1978 1.516 . S
C1978 C1977 1.516 . S
C1978 C1979 1.502 . S
C1978 C1980 1.561 . S
C1978 C1981 1.526 . S
C1979 H1963 0.959 . S
C1979 H1964 0.959 . S
C1979 H1965 0.961 . S
C1979 C1978 1.502 . S
C1980 H1966 0.960 . S
C1980 H1967 0.961 . S
C1980 H1968 0.959 . S
C1980 C1978 1.561 . S
C1981 C1978 1.526 . S
C1981 C1982 1.396 . S
C1981 C1986 1.390 . S
C1982 C1976 1.465 . S
C1982 C1981 1.396 . S
C1982 C1983 1.399 . S
C1983 H1969 0.929 . S
C1983 C1982 1.399 . S
C1983 C1984 1.385 . S
C1984 H1970 0.931 . S
C1984 C1983 1.385 . S
C1984 C1985 1.389 . S
C1985 C1984 1.389 . S
C1985 C1986 1.387 . S
C1986 H1971 0.930 . S
C1986 C1981 1.390 . S
C1986 C1985 1.387 . S
H1987 C1999 0.930 . S
H1988 C2001 0.930 . S
H1989 C2002 0.930 . S
H1990 C2006 0.959 . S
H1991 C2006 0.959 . S
H1992 C2006 0.961 . S
H1993 C2007 0.960 . S
H1994 C2007 0.961 . S
H1995 C2007 0.959 . S
H1996 C2010 0.929 . S
H1997 C2011 0.931 . S
H1998 C2013 0.930 . S
C1999 H1987 0.930 . S
C1999 C2000 1.399 . S
C1999 C2004 1.399 . S
C2000 C1999 1.399 . S
C2000 C2001 1.376 . S
C2001 H1988 0.930 . S
C2001 C2000 1.376 . S
C2001 C2002 1.388 . S
C2002 H1989 0.930 . S
C2002 C2001 1.388 . S
C2002 C2003 1.390 . S
C2003 C2002 1.390 . S
C2003 C2004 1.394 . S
C2003 C2009 1.465 . S
C2004 C1999 1.399 . S
C2004 C2003 1.394 . S
C2004 C2005 1.516 . S
C2005 C2004 1.516 . S
C2005 C2006 1.502 . S
C2005 C2007 1.561 . S
C2005 C2008 1.526 . S
C2006 H1990 0.959 . S
C2006 H1991 0.959 . S
C2006 H1992 0.961 . S
C2006 C2005 1.502 . S
C2007 H1993 0.960 . S
C2007 H1994 0.961 . S
C2007 H1995 0.959 . S
C2007 C2005 1.561 . S
C2008 C2005 1.526 . S
C2008 C2009 1.396 . S
C2008 C2013 1.390 . S
C2009 C2003 1.465 . S
C2009 C2008 1.396 . S
C2009 C2010 1.399 . S
C2010 H1996 0.929 . S
C2010 C2009 1.399 . S
C2010 C2011 1.385 . S
C2011 H1997 0.931 . S
C2011 C2010 1.385 . S
C2011 C2012 1.389 . S
C2012 C2011 1.389 . S
C2012 C2013 1.387 . S
C2013 H1998 0.930 . S
C2013 C2008 1.390 . S
C2013 C2012 1.387 . S
H2014 C2026 0.930 . S
H2015 C2028 0.930 . S
H2016 C2029 0.930 . S
H2017 C2033 0.959 . S
H2018 C2033 0.959 . S
H2019 C2033 0.961 . S
H2020 C2034 0.960 . S
H2021 C2034 0.961 . S
H2022 C2034 0.959 . S
H2023 C2037 0.929 . S
H2024 C2038 0.931 . S
H2025 C2040 0.930 . S
C2026 H2014 0.930 . S
C2026 C2027 1.399 . S
C2026 C2031 1.399 . S
C2027 C2026 1.399 . S
C2027 C2028 1.376 . S
C2028 H2015 0.930 . S
C2028 C2027 1.376 . S
C2028 C2029 1.388 . S
C2029 H2016 0.930 . S
C2029 C2028 1.388 . S
C2029 C2030 1.390 . S
C2030 C2029 1.390 . S
C2030 C2031 1.394 . S
C2030 C2036 1.465 . S
C2031 C2026 1.399 . S
C2031 C2030 1.394 . S
C2031 C2032 1.516 . S
C2032 C2031 1.516 . S
C2032 C2033 1.502 . S
C2032 C2034 1.561 . S
C2032 C2035 1.526 . S
C2033 H2017 0.959 . S
C2033 H2018 0.959 . S
C2033 H2019 0.961 . S
C2033 C2032 1.502 . S
C2034 H2020 0.960 . S
C2034 H2021 0.961 . S
C2034 H2022 0.959 . S
C2034 C2032 1.561 . S
C2035 C2032 1.526 . S
C2035 C2036 1.396 . S
C2035 C2040 1.390 . S
C2036 C2030 1.465 . S
C2036 C2035 1.396 . S
C2036 C2037 1.399 . S
C2037 H2023 0.929 . S
C2037 C2036 1.399 . S
C2037 C2038 1.385 . S
C2038 H2024 0.931 . S
C2038 C2037 1.385 . S
C2038 C2039 1.389 . S
C2039 C2038 1.389 . S
C2039 C2040 1.387 . S
C2040 H2025 0.930 . S
C2040 C2035 1.390 . S
C2040 C2039 1.387 . S
H2041 C2053 0.930 . S
H2042 C2055 0.930 . S
H2043 C2056 0.930 . S
H2044 C2060 0.959 . S
H2045 C2060 0.959 . S
H2046 C2060 0.961 . S
H2047 C2061 0.960 . S
H2048 C2061 0.961 . S
H2049 C2061 0.959 . S
H2050 C2064 0.929 . S
H2051 C2065 0.931 . S
H2052 C2067 0.930 . S
C2053 H2041 0.930 . S
C2053 C2054 1.399 . S
C2053 C2058 1.399 . S
C2054 C2053 1.399 . S
C2054 C2055 1.376 . S
C2055 H2042 0.930 . S
C2055 C2054 1.376 . S
C2055 C2056 1.388 . S
C2056 H2043 0.930 . S
C2056 C2055 1.388 . S
C2056 C2057 1.390 . S
C2057 C2056 1.390 . S
C2057 C2058 1.394 . S
C2057 C2063 1.465 . S
C2058 C2053 1.399 . S
C2058 C2057 1.394 . S
C2058 C2059 1.516 . S
C2059 C2058 1.516 . S
C2059 C2060 1.502 . S
C2059 C2061 1.561 . S
C2059 C2062 1.526 . S
C2060 H2044 0.959 . S
C2060 H2045 0.959 . S
C2060 H2046 0.961 . S
C2060 C2059 1.502 . S
C2061 H2047 0.960 . S
C2061 H2048 0.961 . S
C2061 H2049 0.959 . S
C2061 C2059 1.561 . S
C2062 C2059 1.526 . S
C2062 C2063 1.396 . S
C2062 C2067 1.390 . S
C2063 C2057 1.465 . S
C2063 C2062 1.396 . S
C2063 C2064 1.399 . S
C2064 H2050 0.929 . S
C2064 C2063 1.399 . S
C2064 C2065 1.385 . S
C2065 H2051 0.931 . S
C2065 C2064 1.385 . S
C2065 C2066 1.389 . S
C2066 C2065 1.389 . S
C2066 C2067 1.387 . S
C2067 H2052 0.930 . S
C2067 C2062 1.390 . S
C2067 C2066 1.387 . S
H2068 C2080 0.930 . S
H2069 C2082 0.930 . S
H2070 C2083 0.930 . S
H2071 C2087 0.959 . S
H2072 C2087 0.959 . S
H2073 C2087 0.961 . S
H2074 C2088 0.960 . S
H2075 C2088 0.961 . S
H2076 C2088 0.959 . S
H2077 C2091 0.929 . S
H2078 C2092 0.931 . S
H2079 C2094 0.930 . S
C2080 H2068 0.930 . S
C2080 C2081 1.399 . S
C2080 C2085 1.399 . S
C2081 C2080 1.399 . S
C2081 C2082 1.376 . S
C2082 H2069 0.930 . S
C2082 C2081 1.376 . S
C2082 C2083 1.388 . S
C2083 H2070 0.930 . S
C2083 C2082 1.388 . S
C2083 C2084 1.390 . S
C2084 C2083 1.390 . S
C2084 C2085 1.394 . S
C2084 C2090 1.465 . S
C2085 C2080 1.399 . S
C2085 C2084 1.394 . S
C2085 C2086 1.516 . S
C2086 C2085 1.516 . S
C2086 C2087 1.502 . S
C2086 C2088 1.561 . S
C2086 C2089 1.526 . S
C2087 H2071 0.959 . S
C2087 H2072 0.959 . S
C2087 H2073 0.961 . S
C2087 C2086 1.502 . S
C2088 H2074 0.960 . S
C2088 H2075 0.961 . S
C2088 H2076 0.959 . S
C2088 C2086 1.561 . S
C2089 C2086 1.526 . S
C2089 C2090 1.396 . S
C2089 C2094 1.390 . S
C2090 C2084 1.465 . S
C2090 C2089 1.396 . S
C2090 C2091 1.399 . S
C2091 H2077 0.929 . S
C2091 C2090 1.399 . S
C2091 C2092 1.385 . S
C2092 H2078 0.931 . S
C2092 C2091 1.385 . S
C2092 C2093 1.389 . S
C2093 C2092 1.389 . S
C2093 C2094 1.387 . S
C2094 H2079 0.930 . S
C2094 C2089 1.390 . S
C2094 C2093 1.387 . S
H2095 C2107 0.930 . S
H2096 C2109 0.930 . S
H2097 C2110 0.930 . S
H2098 C2114 0.959 . S
H2099 C2114 0.959 . S
H2100 C2114 0.961 . S
H2101 C2115 0.960 . S
H2102 C2115 0.961 . S
H2103 C2115 0.959 . S
H2104 C2118 0.929 . S
H2105 C2119 0.931 . S
H2106 C2121 0.930 . S
C2107 H2095 0.930 . S
C2107 C2108 1.399 . S
C2107 C2112 1.399 . S
C2108 C2107 1.399 . S
C2108 C2109 1.376 . S
C2109 H2096 0.930 . S
C2109 C2108 1.376 . S
C2109 C2110 1.388 . S
C2110 H2097 0.930 . S
C2110 C2109 1.388 . S
C2110 C2111 1.390 . S
C2111 C2110 1.390 . S
C2111 C2112 1.394 . S
C2111 C2117 1.465 . S
C2112 C2107 1.399 . S
C2112 C2111 1.394 . S
C2112 C2113 1.516 . S
C2113 C2112 1.516 . S
C2113 C2114 1.502 . S
C2113 C2115 1.561 . S
C2113 C2116 1.526 . S
C2114 H2098 0.959 . S
C2114 H2099 0.959 . S
C2114 H2100 0.961 . S
C2114 C2113 1.502 . S
C2115 H2101 0.960 . S
C2115 H2102 0.961 . S
C2115 H2103 0.959 . S
C2115 C2113 1.561 . S
C2116 C2113 1.526 . S
C2116 C2117 1.396 . S
C2116 C2121 1.390 . S
C2117 C2111 1.465 . S
C2117 C2116 1.396 . S
C2117 C2118 1.399 . S
C2118 H2104 0.929 . S
C2118 C2117 1.399 . S
C2118 C2119 1.385 . S
C2119 H2105 0.931 . S
C2119 C2118 1.385 . S
C2119 C2120 1.389 . S
C2120 C2119 1.389 . S
C2120 C2121 1.387 . S
C2121 H2106 0.930 . S
C2121 C2116 1.390 . S
C2121 C2120 1.387 . S
H2122 C2134 0.930 . S
H2123 C2136 0.930 . S
H2124 C2137 0.930 . S
H2125 C2141 0.959 . S
H2126 C2141 0.959 . S
H2127 C2141 0.961 . S
H2128 C2142 0.960 . S
H2129 C2142 0.961 . S
H2130 C2142 0.959 . S
H2131 C2145 0.929 . S
H2132 C2146 0.931 . S
H2133 C2148 0.930 . S
C2134 H2122 0.930 . S
C2134 C2135 1.399 . S
C2134 C2139 1.399 . S
C2135 C2134 1.399 . S
C2135 C2136 1.376 . S
C2136 H2123 0.930 . S
C2136 C2135 1.376 . S
C2136 C2137 1.388 . S
C2137 H2124 0.930 . S
C2137 C2136 1.388 . S
C2137 C2138 1.390 . S
C2138 C2137 1.390 . S
C2138 C2139 1.394 . S
C2138 C2144 1.465 . S
C2139 C2134 1.399 . S
C2139 C2138 1.394 . S
C2139 C2140 1.516 . S
C2140 C2139 1.516 . S
C2140 C2141 1.502 . S
C2140 C2142 1.561 . S
C2140 C2143 1.526 . S
C2141 H2125 0.959 . S
C2141 H2126 0.959 . S
C2141 H2127 0.961 . S
C2141 C2140 1.502 . S
C2142 H2128 0.960 . S
C2142 H2129 0.961 . S
C2142 H2130 0.959 . S
C2142 C2140 1.561 . S
C2143 C2140 1.526 . S
C2143 C2144 1.396 . S
C2143 C2148 1.390 . S
C2144 C2138 1.465 . S
C2144 C2143 1.396 . S
C2144 C2145 1.399 . S
C2145 H2131 0.929 . S
C2145 C2144 1.399 . S
C2145 C2146 1.385 . S
C2146 H2132 0.931 . S
C2146 C2145 1.385 . S
C2146 C2147 1.389 . S
C2147 C2146 1.389 . S
C2147 C2148 1.387 . S
C2148 H2133 0.930 . S
C2148 C2143 1.390 . S
C2148 C2147 1.387 . S
H2149 C2161 0.930 . S
H2150 C2163 0.930 . S
H2151 C2164 0.930 . S
H2152 C2168 0.959 . S
H2153 C2168 0.959 . S
H2154 C2168 0.961 . S
H2155 C2169 0.960 . S
H2156 C2169 0.961 . S
H2157 C2169 0.959 . S
H2158 C2172 0.929 . S
H2159 C2173 0.931 . S
H2160 C2175 0.930 . S
C2161 H2149 0.930 . S
C2161 C2162 1.399 . S
C2161 C2166 1.399 . S
C2162 C2161 1.399 . S
C2162 C2163 1.376 . S
C2163 H2150 0.930 . S
C2163 C2162 1.376 . S
C2163 C2164 1.388 . S
C2164 H2151 0.930 . S
C2164 C2163 1.388 . S
C2164 C2165 1.390 . S
C2165 C2164 1.390 . S
C2165 C2166 1.394 . S
C2165 C2171 1.465 . S
C2166 C2161 1.399 . S
C2166 C2165 1.394 . S
C2166 C2167 1.516 . S
C2167 C2166 1.516 . S
C2167 C2168 1.502 . S
C2167 C2169 1.561 . S
C2167 C2170 1.526 . S
C2168 H2152 0.959 . S
C2168 H2153 0.959 . S
C2168 H2154 0.961 . S
C2168 C2167 1.502 . S
C2169 H2155 0.960 . S
C2169 H2156 0.961 . S
C2169 H2157 0.959 . S
C2169 C2167 1.561 . S
C2170 C2167 1.526 . S
C2170 C2171 1.396 . S
C2170 C2175 1.390 . S
C2171 C2165 1.465 . S
C2171 C2170 1.396 . S
C2171 C2172 1.399 . S
C2172 H2158 0.929 . S
C2172 C2171 1.399 . S
C2172 C2173 1.385 . S
C2173 H2159 0.931 . S
C2173 C2172 1.385 . S
C2173 C2174 1.389 . S
C2174 C2173 1.389 . S
C2174 C2175 1.387 . S
C2175 H2160 0.930 . S
C2175 C2170 1.390 . S
C2175 C2174 1.387 . S
C461 C130 1.017 . S
C473 C4 1.050 . S
C488 C26 1.102 . S
C500 C368 1.035 . S
C515 C158 1.044 . S
C527 C32 1.057 . S
C542 C340 0.991 . S
C554 C54 1.088 . S
C569 C60 1.038 . S
C581 C214 0.998 . S
C596 C396 1.070 . S
C608 C82 1.095 . S
C623 C88 0.945 . S
C635 C186 1.041 . S
C650 C424 1.083 . S
C662 C110 1.031 . S
C677 C18 0.864 . S
C689 C124 0.979 . S
C704 C138 0.937 . S
C716 C264 0.985 . S
C731 C46 0.880 . S
C743 C152 0.986 . S
C758 C166 0.990 . S
C770 C236 0.951 . S
C785 C180 0.892 . S
C797 C102 0.896 . S
C812 C292 0.934 . S
C824 C194 0.965 . S
C839 C208 0.896 . S
C851 C74 0.891 . S
C866 C320 0.993 . S
C878 C222 0.994 . S
C893 C354 0.972 . S
C905 C228 0.892 . S
C920 C144 0.983 . S
C932 C250 1.081 . S
C947 C256 0.961 . S
C959 C382 1.050 . S
C974 C116 1.089 . S
C986 C278 1.036 . S
C1001 C438 0.941 . S
C1013 C284 0.911 . S
C1028 C306 1.095 . S
C1040 C172 1.071 . S
C1055 C410 1.063 . S
C1067 C312 1.050 . S
C1082 C200 0.986 . S
C1094 C334 1.084 . S
C1109 C242 0.862 . S
C1121 C348 0.931 . S
C1136 C362 0.999 . S
C1148 C40 0.963 . S
C1163 C376 0.884 . S
C1175 C270 0.905 . S
C1190 C390 0.985 . S
C1202 C12 0.946 . S
C1217 C326 0.981 . S
C1229 C404 0.873 . S
C1244 C418 0.924 . S
C1256 C68 0.972 . S
C1271 C432 0.882 . S
C1283 C298 0.985 . S
C1298 C446 0.988 . S
C1310 C96 0.948 . S
C1325 C347 1.243 . S
C1337 C5 0.959 . S
C1352 C25 1.249 1_455 S
C1364 C137 1.283 . S
C1379 C33 1.111 . S
C1391 C375 1.240 . S
C1406 C53 1.275 . S
C1418 C165 1.262 . S
C1433 C61 1.111 . S
C1445 C403 1.240 . S
C1460 C81 1.265 . S
C1472 C193 1.266 . S
C1487 C431 1.239 . S
C1499 C89 0.930 . S
C1514 C109 1.267 . S
C1526 C221 1.270 . S
C1541 C123 1.247 . S
C1553 C229 1.041 . S
C1568 C151 1.240 . S
C1580 C257 0.936 . S
C1595 C285 1.103 . S
C1607 C179 1.242 . S
C1622 C313 0.920 . S
C1634 C207 1.226 . S
C1649 C249 1.271 . S
C1661 C361 1.261 . S
C1676 C389 1.281 . S
C1688 C277 1.255 1_655 S
C1703 C305 1.269 . S
C1715 C417 1.269 . S
C1730 C445 1.283 . S
C1742 C333 1.254 . S
C1757 C299 1.414 . S
C1769 C11 1.460 . S
C1784 C319 1.457 . S
C1796 C19 1.422 . S
C1811 C39 1.406 . S
C1823 C327 1.322 . S
C1838 C291 1.426 . S
C1850 C47 1.343 . S
C1865 C271 1.414 . S
C1877 C67 1.430 . S
C1892 C235 1.371 . S
C1904 C75 1.337 . S
C1919 C95 1.374 . S
C1931 C243 1.306 . S
C1946 C263 1.369 . S
C1958 C103 1.331 . S
C1973 C411 1.201 . S
C1985 C117 1.339 . S
C2000 C425 1.232 . S
C2012 C131 1.335 . S
C2027 C439 1.333 . S
C2039 C145 1.228 . S
C2054 C159 1.334 . S
C2066 C397 1.229 . S
C2081 C383 1.264 . S
C2093 C173 1.270 . S
C2108 C341 1.276 . S
C2120 C187 1.257 . S
C2135 C355 1.214 . S
C2147 C201 1.349 . S
C2162 C369 1.275 . S
C2174 C215 1.258 . S
