# Generated by pormake.
# Topology wnm, (7)-cn, num edge types: 1
# Building blocks:
#     Node 0, Type 0, BuildingBlock: HICVOG_clean_sbu_0, # of connection points: 7
#     Node 1, Type 0, BuildingBlock: HICVOG_clean_sbu_0, # of connection points: 7
#     Node 2, Type 0, BuildingBlock: HICVOG_clean_sbu_0, # of connection points: 7
#     Node 3, Type 0, BuildingBlock: HICVOG_clean_sbu_0, # of connection points: 7
#     Node 4, Type 0, BuildingBlock: HICVOG_clean_sbu_0, # of connection points: 7
#     Node 5, Type 0, BuildingBlock: HICVOG_clean_sbu_0, # of connection points: 7
#     Node 6, Type 0, BuildingBlock: HICVOG_clean_sbu_0, # of connection points: 7
#     Node 7, Type 0, BuildingBlock: HICVOG_clean_sbu_0, # of connection points: 7
#     Node 8, Type 0, BuildingBlock: HICVOG_clean_sbu_0, # of connection points: 7
#     Node 9, Type 0, BuildingBlock: HICVOG_clean_sbu_0, # of connection points: 7
#     Node 10, Type 0, BuildingBlock: HICVOG_clean_sbu_0, # of connection points: 7
#     Node 11, Type 0, BuildingBlock: HICVOG_clean_sbu_0, # of connection points: 7
#     Node 12, Type 0, BuildingBlock: HICVOG_clean_sbu_0, # of connection points: 7
#     Node 13, Type 0, BuildingBlock: HICVOG_clean_sbu_0, # of connection points: 7
#     Node 14, Type 0, BuildingBlock: HICVOG_clean_sbu_0, # of connection points: 7
#     Node 15, Type 0, BuildingBlock: HICVOG_clean_sbu_0, # of connection points: 7
#     Node 16, Type 0, BuildingBlock: HICVOG_clean_sbu_0, # of connection points: 7
#     Node 17, Type 0, BuildingBlock: HICVOG_clean_sbu_0, # of connection points: 7
#     Edge 18, Type (0, 0), BuildingBlock: AJUNOK_clean_linker_0, # of connection points: 2
#     Edge 19, Type (0, 0), BuildingBlock: AJUNOK_clean_linker_0, # of connection points: 2
#     Edge 20, Type (0, 0), BuildingBlock: AJUNOK_clean_linker_0, # of connection points: 2
#     Edge 21, Type (0, 0), BuildingBlock: AJUNOK_clean_linker_0, # of connection points: 2
#     Edge 22, Type (0, 0), BuildingBlock: AJUNOK_clean_linker_0, # of connection points: 2
#     Edge 23, Type (0, 0), BuildingBlock: AJUNOK_clean_linker_0, # of connection points: 2
#     Edge 24, Type (0, 0), BuildingBlock: AJUNOK_clean_linker_0, # of connection points: 2
#     Edge 25, Type (0, 0), BuildingBlock: AJUNOK_clean_linker_0, # of connection points: 2
#     Edge 26, Type (0, 0), BuildingBlock: AJUNOK_clean_linker_0, # of connection points: 2
#     Edge 27, Type (0, 0), BuildingBlock: AJUNOK_clean_linker_0, # of connection points: 2
#     Edge 28, Type (0, 0), BuildingBlock: AJUNOK_clean_linker_0, # of connection points: 2
#     Edge 29, Type (0, 0), BuildingBlock: AJUNOK_clean_linker_0, # of connection points: 2
#     Edge 30, Type (0, 0), BuildingBlock: AJUNOK_clean_linker_0, # of connection points: 2
#     Edge 31, Type (0, 0), BuildingBlock: AJUNOK_clean_linker_0, # of connection points: 2
#     Edge 32, Type (0, 0), BuildingBlock: AJUNOK_clean_linker_0, # of connection points: 2
#     Edge 33, Type (0, 0), BuildingBlock: AJUNOK_clean_linker_0, # of connection points: 2
#     Edge 34, Type (0, 0), BuildingBlock: AJUNOK_clean_linker_0, # of connection points: 2
#     Edge 35, Type (0, 0), BuildingBlock: AJUNOK_clean_linker_0, # of connection points: 2
#     Edge 36, Type (0, 0), BuildingBlock: AJUNOK_clean_linker_0, # of connection points: 2
#     Edge 37, Type (0, 0), BuildingBlock: AJUNOK_clean_linker_0, # of connection points: 2
#     Edge 38, Type (0, 0), BuildingBlock: AJUNOK_clean_linker_0, # of connection points: 2
#     Edge 39, Type (0, 0), BuildingBlock: AJUNOK_clean_linker_0, # of connection points: 2
#     Edge 40, Type (0, 0), BuildingBlock: AJUNOK_clean_linker_0, # of connection points: 2
#     Edge 41, Type (0, 0), BuildingBlock: AJUNOK_clean_linker_0, # of connection points: 2
#     Edge 42, Type (0, 0), BuildingBlock: AJUNOK_clean_linker_0, # of connection points: 2
#     Edge 43, Type (0, 0), BuildingBlock: AJUNOK_clean_linker_0, # of connection points: 2
#     Edge 44, Type (0, 0), BuildingBlock: AJUNOK_clean_linker_0, # of connection points: 2
#     Edge 45, Type (0, 0), BuildingBlock: AJUNOK_clean_linker_0, # of connection points: 2
#     Edge 46, Type (0, 0), BuildingBlock: AJUNOK_clean_linker_0, # of connection points: 2
#     Edge 47, Type (0, 0), BuildingBlock: AJUNOK_clean_linker_0, # of connection points: 2
#     Edge 48, Type (0, 0), BuildingBlock: AJUNOK_clean_linker_0, # of connection points: 2
#     Edge 49, Type (0, 0), BuildingBlock: AJUNOK_clean_linker_0, # of connection points: 2
#     Edge 50, Type (0, 0), BuildingBlock: AJUNOK_clean_linker_0, # of connection points: 2
#     Edge 51, Type (0, 0), BuildingBlock: AJUNOK_clean_linker_0, # of connection points: 2
#     Edge 52, Type (0, 0), BuildingBlock: AJUNOK_clean_linker_0, # of connection points: 2
#     Edge 53, Type (0, 0), BuildingBlock: AJUNOK_clean_linker_0, # of connection points: 2
#     Edge 54, Type (0, 0), BuildingBlock: AJUNOK_clean_linker_0, # of connection points: 2
#     Edge 55, Type (0, 0), BuildingBlock: AJUNOK_clean_linker_0, # of connection points: 2
#     Edge 56, Type (0, 0), BuildingBlock: AJUNOK_clean_linker_0, # of connection points: 2
#     Edge 57, Type (0, 0), BuildingBlock: AJUNOK_clean_linker_0, # of connection points: 2
#     Edge 58, Type (0, 0), BuildingBlock: AJUNOK_clean_linker_0, # of connection points: 2
#     Edge 59, Type (0, 0), BuildingBlock: AJUNOK_clean_linker_0, # of connection points: 2
#     Edge 60, Type (0, 0), BuildingBlock: AJUNOK_clean_linker_0, # of connection points: 2
#     Edge 61, Type (0, 0), BuildingBlock: AJUNOK_clean_linker_0, # of connection points: 2
#     Edge 62, Type (0, 0), BuildingBlock: AJUNOK_clean_linker_0, # of connection points: 2
#     Edge 63, Type (0, 0), BuildingBlock: AJUNOK_clean_linker_0, # of connection points: 2
#     Edge 64, Type (0, 0), BuildingBlock: AJUNOK_clean_linker_0, # of connection points: 2
#     Edge 65, Type (0, 0), BuildingBlock: AJUNOK_clean_linker_0, # of connection points: 2
#     Edge 66, Type (0, 0), BuildingBlock: AJUNOK_clean_linker_0, # of connection points: 2
#     Edge 67, Type (0, 0), BuildingBlock: AJUNOK_clean_linker_0, # of connection points: 2
#     Edge 68, Type (0, 0), BuildingBlock: AJUNOK_clean_linker_0, # of connection points: 2
#     Edge 69, Type (0, 0), BuildingBlock: AJUNOK_clean_linker_0, # of connection points: 2
#     Edge 70, Type (0, 0), BuildingBlock: AJUNOK_clean_linker_0, # of connection points: 2
#     Edge 71, Type (0, 0), BuildingBlock: AJUNOK_clean_linker_0, # of connection points: 2
#     Edge 72, Type (0, 0), BuildingBlock: AJUNOK_clean_linker_0, # of connection points: 2
#     Edge 73, Type (0, 0), BuildingBlock: AJUNOK_clean_linker_0, # of connection points: 2
#     Edge 74, Type (0, 0), BuildingBlock: AJUNOK_clean_linker_0, # of connection points: 2
#     Edge 75, Type (0, 0), BuildingBlock: AJUNOK_clean_linker_0, # of connection points: 2
#     Edge 76, Type (0, 0), BuildingBlock: AJUNOK_clean_linker_0, # of connection points: 2
#     Edge 77, Type (0, 0), BuildingBlock: AJUNOK_clean_linker_0, # of connection points: 2
#     Edge 78, Type (0, 0), BuildingBlock: AJUNOK_clean_linker_0, # of connection points: 2
#     Edge 79, Type (0, 0), BuildingBlock: AJUNOK_clean_linker_0, # of connection points: 2
#     Edge 80, Type (0, 0), BuildingBlock: AJUNOK_clean_linker_0, # of connection points: 2
# Relax obj value: 0.142
# Max RMSD: 0.208
# Mean RMSD: 0.208
data_MOF--net-wnm--node1-HICVOG_clean_sbu_0--edge1-AJUNOK_clean_linker_0
_symmetry_space_group_name_H-M    P1
_symmetry_Int_Tables_number       1
_symmetry_cell_setting            triclinic
loop_
_symmetry_equiv_pos_as_xyz
'x, y, z'
_cell_length_a     51.433824
_cell_length_b     51.502128
_cell_length_c     16.604853
_cell_angle_alpha  89.969528
_cell_angle_beta   89.961156
_cell_angle_gamma 120.01086
loop_
_atom_site_label
_atom_site_type_symbol
_atom_site_fract_x
_atom_site_fract_y
_atom_site_fract_z
_atom_type_partial_charge
Zn0 Zn 0.14889 0.46004 0.12872 0.0
C1 C 0.0933 0.38512 0.26146 0.0
N2 N 0.07352 0.38049 0.20331 0.0
C3 C 0.08735 0.40565 0.15891 0.0
N4 N 0.11534 0.42517 0.18745 0.0
N5 N 0.11838 0.41249 0.25405 0.0
C6 C 0.15878 0.38088 0.32191 0.0
O7 O 0.15305 0.38462 0.24706 0.0
O8 O 0.1437 0.49718 0.12468 0.0
Zn9 Zn 0.15234 0.43002 0.32742 0.0
N10 N 0.14849 0.44469 0.02179 0.0
C11 C 0.15242 0.40568 0.95639 0.0
C12 C 0.15008 0.41916 0.02631 0.0
C13 C 0.14947 0.45766 0.94924 0.0
N14 N 0.15347 0.41846 0.88429 0.0
C15 C 0.15201 0.44405 0.87806 0.0
O16 O 0.19184 0.4508 0.27396 0.0
C17 C 0.20611 0.46623 0.21349 0.0
O18 O 0.19294 0.47252 0.15835 0.0
H19 H 0.1499 0.40957 0.08443 0.0
H20 H 0.14908 0.47846 0.9472 0.0
C21 C 0.15643 0.45678 0.48416 0.0
C22 C 0.15007 0.47331 0.54072 0.0
C23 C 0.13365 0.49221 0.43356 0.0
C24 C 0.13843 0.4745 0.37877 0.0
N25 N 0.14948 0.45697 0.4051 0.0
N26 N 0.13906 0.49082 0.51305 0.0
H27 H 0.16455 0.44201 0.5031 0.0
C28 C 0.15666 0.52023 0.17024 0.0
O29 O 0.17457 0.52087 0.22752 0.0
O30 O 0.15681 0.39709 0.37666 0.0
H31 H 0.13279 0.47419 0.31594 0.0
H32 H 0.15373 0.38538 0.95933 0.0
H33 H 0.12482 0.50625 0.41341 0.0
Zn34 Zn 0.59323 0.69387 0.13669 0.0
C35 C 0.66002 0.70479 0.29206 0.0
N36 N 0.65944 0.68208 0.25294 0.0
C37 C 0.63652 0.67262 0.20115 0.0
N38 N 0.62252 0.6894 0.20914 0.0
N39 N 0.63711 0.70872 0.26884 0.0
C40 C 0.67426 0.78947 0.30834 0.0
O41 O 0.66854 0.77905 0.23434 0.0
O42 O 0.5526 0.65365 0.13147 0.0
Zn43 Zn 0.62503 0.73256 0.33067 0.0
N44 N 0.61483 0.7077 0.03456 0.0
C45 C 0.66314 0.73799 0.97564 0.0
C46 C 0.64516 0.72477 0.04286 0.0
C47 C 0.60166 0.70382 0.96092 0.0
N48 N 0.65013 0.73395 0.90237 0.0
C49 C 0.61987 0.71722 0.89278 0.0
O50 O 0.60376 0.74853 0.27087 0.0
C51 C 0.58905 0.74773 0.20958 0.0
O52 O 0.58276 0.72781 0.15583 0.0
H53 H 0.65539 0.72869 0.10165 0.0
H54 H 0.57746 0.69084 0.95571 0.0
C55 C 0.60554 0.71663 0.49654 0.0
C56 C 0.58496 0.6987 0.55663 0.0
C57 C 0.55266 0.66618 0.45475 0.0
C58 C 0.57315 0.684 0.39589 0.0
N59 N 0.59903 0.70888 0.4178 0.0
N60 N 0.55908 0.67383 0.53342 0.0
H61 H 0.62681 0.73606 0.5115 0.0
C62 C 0.52912 0.64656 0.17348 0.0
O63 O 0.52916 0.66658 0.22248 0.0
O64 O 0.6597 0.77181 0.36581 0.0
H65 H 0.56864 0.67814 0.33302 0.0
H66 H 0.68726 0.75159 0.98167 0.0
H67 H 0.53192 0.64629 0.43816 0.0
Zn68 Zn 0.34687 0.90272 0.11 0.0
C69 C 0.33274 0.95476 0.27087 0.0
N70 N 0.35053 0.97759 0.22352 0.0
C71 C 0.36149 0.96598 0.16998 0.0
N72 N 0.34973 0.9357 0.18302 0.0
N73 N 0.33295 0.92954 0.24948 0.0
C74 C 0.25731 0.88261 0.3009 0.0
O75 O 0.26823 0.88959 0.22752 0.0
O76 O 0.38677 0.9014 0.10707 0.0
Zn77 Zn 0.31394 0.89296 0.31308 0.0
N78 N 0.33621 0.91102 0.0043 0.0
C79 C 0.30688 0.92768 0.93387 0.0
C80 C 0.31823 0.9234 0.00556 0.0
C81 C 0.34301 0.90232 0.93355 0.0
N82 N 0.3135 0.91894 0.86352 0.0
C83 C 0.33127 0.90635 0.86114 0.0
O84 O 0.2958 0.85516 0.25281 0.0
C85 C 0.29368 0.8434 0.18479 0.0
O86 O 0.31096 0.85893 0.12724 0.0
H87 H 0.31213 0.92926 0.06216 0.0
H88 H 0.3567 0.89179 0.93391 0.0
C89 C 0.33252 0.88608 0.47183 0.0
C90 C 0.35338 0.88816 0.53017 0.0
C91 C 0.38888 0.89849 0.42559 0.0
C92 C 0.36859 0.89788 0.36895 0.0
N93 N 0.34093 0.89191 0.39321 0.0
N94 N 0.38106 0.89423 0.50468 0.0
H95 H 0.3106 0.88229 0.48858 0.0
C96 C 0.39284 0.88395 0.14748 0.0
O97 O 0.37227 0.8641 0.1958 0.0
O98 O 0.2753 0.8871 0.35885 0.0
H99 H 0.37492 0.90262 0.3063 0.0
H100 H 0.29253 0.93746 0.93418 0.0
H101 H 0.41103 0.90326 0.4072 0.0
Zn102 Zn 0.90258 0.60786 0.68079 0.0
C103 C 0.97185 0.61314 0.80172 0.0
N104 N 0.9869 0.63744 0.75531 0.0
C105 C 0.96589 0.64143 0.72089 0.0
N106 N 0.93818 0.61949 0.74286 0.0
N107 N 0.94161 0.60238 0.79753 0.0
C108 C 0.8931 0.5116 0.91873 0.0
O109 O 0.87177 0.51144 0.96267 0.0
O110 O 0.89755 0.64258 0.64998 0.0
Zn111 Zn 0.90969 0.57474 0.87491 0.0
N112 N 0.90108 0.58254 0.59248 0.0
C113 C 0.89423 0.53487 0.55522 0.0
C114 C 0.89565 0.55481 0.61414 0.0
C115 C 0.90528 0.59123 0.5139 0.0
N116 N 0.89881 0.54363 0.4769 0.0
C117 C 0.90468 0.57146 0.45447 0.0
O118 O 0.86516 0.56339 0.85563 0.0
C119 C 0.85139 0.56965 0.80206 0.0
O120 O 0.86534 0.58515 0.74149 0.0
H121 H 0.89238 0.54829 0.67693 0.0
H122 H 0.90879 0.61309 0.49769 0.0
C123 C 0.91539 0.58688 0.05113 0.0
C124 C 0.92367 0.60678 0.11709 0.0
C125 C 0.93745 0.64724 0.0262 0.0
C126 C 0.92929 0.62759 0.96155 0.0
N127 N 0.91876 0.59791 0.97474 0.0
N128 N 0.93446 0.63642 0.10202 0.0
H129 H 0.90711 0.56321 0.06001 0.0
C130 C 0.8931 0.6546 0.71145 0.0
O131 O 0.89789 0.64702 0.78313 0.0
O132 O 0.91152 0.53559 0.88175 0.0
H133 H 0.93144 0.63602 0.9009 0.0
H134 H 0.88976 0.51267 0.57165 0.0
H135 H 0.94605 0.67092 0.01633 0.0
Zn136 Zn 0.42678 0.30257 0.66895 0.0
C137 C 0.4197 0.35591 0.83283 0.0
N138 N 0.39523 0.34956 0.79022 0.0
C139 C 0.39274 0.32886 0.73793 0.0
N140 N 0.41577 0.32327 0.74643 0.0
N141 N 0.43242 0.33945 0.80868 0.0
C142 C 0.5266 0.38897 0.83143 0.0
O143 O 0.52565 0.37374 0.76696 0.0
O144 O 0.39133 0.26411 0.63397 0.0
Zn145 Zn 0.46636 0.33641 0.86131 0.0
N146 N 0.44912 0.33015 0.58276 0.0
C147 C 0.48671 0.37968 0.54697 0.0
C148 C 0.46946 0.35857 0.60529 0.0
C149 C 0.44535 0.32187 0.50396 0.0
N150 N 0.48291 0.37153 0.46825 0.0
C151 C 0.46266 0.34316 0.44453 0.0
O152 O 0.47946 0.30707 0.81593 0.0
C153 C 0.46966 0.2868 0.76192 0.0
O154 O 0.45075 0.28526 0.71097 0.0
H155 H 0.47231 0.3647 0.66829 0.0
H156 H 0.42935 0.2989 0.48836 0.0
C157 C 0.45987 0.32755 0.03869 0.0
C158 C 0.44627 0.30868 0.10597 0.0
C159 C 0.4176 0.26789 0.01769 0.0
C160 C 0.43053 0.28662 0.95183 0.0
N161 N 0.45115 0.31601 0.96317 0.0
N162 N 0.42554 0.27936 0.09279 0.0
H163 H 0.47585 0.35117 0.0457 0.0
C164 C 0.37991 0.24621 0.69304 0.0
O165 O 0.38862 0.25654 0.76625 0.0
O166 O 0.50392 0.37787 0.87862 0.0
H167 H 0.42428 0.27784 0.89155 0.0
H168 H 0.50301 0.40237 0.56406 0.0
H169 H 0.40112 0.24447 0.00935 0.0
Zn170 Zn 0.7292 0.13922 0.67693 0.0
C171 C 0.69166 0.06502 0.81643 0.0
N172 N 0.70271 0.05526 0.75787 0.0
C173 C 0.71818 0.07933 0.7116 0.0
N174 N 0.71613 0.10294 0.73818 0.0
N175 N 0.70073 0.09478 0.80661 0.0
C176 C 0.65862 0.14906 0.8666 0.0
O177 O 0.68206 0.17622 0.86374 0.0
O178 O 0.76912 0.15034 0.62947 0.0
Zn179 Zn 0.70239 0.12549 0.88106 0.0
N180 N 0.69971 0.13269 0.59622 0.0
C181 C 0.65418 0.13142 0.56188 0.0
C182 C 0.67534 0.13454 0.61931 0.0
C183 C 0.70364 0.12738 0.5183 0.0
N184 N 0.6583 0.12663 0.48366 0.0
C185 C 0.68245 0.12436 0.46024 0.0
O186 O 0.7395 0.16787 0.86407 0.0
C187 C 0.75032 0.1861 0.80506 0.0
O188 O 0.73995 0.17774 0.73467 0.0
H189 H 0.67261 0.13875 0.68172 0.0
H190 H 0.72342 0.1263 0.50159 0.0
C191 C 0.69949 0.11697 0.05732 0.0
C192 C 0.70983 0.11056 0.12925 0.0
C193 C 0.74276 0.10039 0.05262 0.0
C194 C 0.73274 0.10702 0.9822 0.0
N195 N 0.71118 0.1149 0.98558 0.0
N196 N 0.73113 0.10229 0.12404 0.0
H197 H 0.68232 0.1232 0.05752 0.0
C198 C 0.78814 0.1563 0.68551 0.0
O199 O 0.77856 0.14984 0.76014 0.0
O200 O 0.66273 0.12672 0.87529 0.0
H201 H 0.74237 0.10629 0.92493 0.0
H202 H 0.63476 0.13305 0.5792 0.0
H203 H 0.76 0.09422 0.05081 0.0
Zn204 Zn 0.8164 0.79815 0.48925 0.0
C205 C 0.7557 0.72236 0.61648 0.0
N206 N 0.73659 0.72047 0.55959 0.0
C207 C 0.75248 0.74547 0.51626 0.0
N208 N 0.7812 0.76247 0.54376 0.0
N209 N 0.78253 0.74816 0.60941 0.0
C210 C 0.82462 0.71552 0.67138 0.0
O211 O 0.82076 0.72175 0.59711 0.0
O212 O 0.80993 0.83479 0.47755 0.0
Zn213 Zn 0.81545 0.7627 0.68526 0.0
N214 N 0.8213 0.7842 0.38481 0.0
C215 C 0.83558 0.75074 0.32793 0.0
C216 C 0.82842 0.76227 0.39447 0.0
C217 C 0.82145 0.79554 0.31028 0.0
N218 N 0.83546 0.76166 0.25384 0.0
C219 C 0.82863 0.78375 0.24238 0.0
O220 O 0.85536 0.78446 0.635 0.0
C221 C 0.87148 0.80202 0.57996 0.0
O222 O 0.85994 0.81135 0.52753 0.0
H223 H 0.82873 0.75398 0.45409 0.0
H224 H 0.81641 0.81348 0.30416 0.0
C225 C 0.82044 0.78738 0.84507 0.0
C226 C 0.81595 0.80445 0.90404 0.0
C227 C 0.79666 0.82283 0.80286 0.0
C228 C 0.80064 0.80545 0.74521 0.0
N229 N 0.8123 0.78799 0.76739 0.0
N230 N 0.80404 0.82167 0.88077 0.0
H231 H 0.82868 0.77242 0.86096 0.0
C232 C 0.81854 0.8557 0.5299 0.0
O233 O 0.8323 0.85414 0.59472 0.0
O234 O 0.81937 0.7286 0.72878 0.0
H235 H 0.79406 0.80546 0.68339 0.0
H236 H 0.84123 0.73327 0.33499 0.0
H237 H 0.78727 0.83675 0.78609 0.0
Zn238 Zn 0.25264 0.02792 0.45087 0.0
C239 C 0.32382 0.04364 0.59252 0.0
N240 N 0.32586 0.02426 0.54365 0.0
C241 C 0.30062 1.01261 0.50002 0.0
N242 N 0.28384 0.02565 0.51852 0.0
N243 N 0.29779 0.04377 0.58062 0.0
C244 C 0.32587 0.11882 0.63616 0.0
O245 O 0.32062 0.1082 0.56239 0.0
O246 O 0.21508 0.98661 0.43772 0.0
Zn247 Zn 0.28122 0.06205 0.65078 0.0
N248 N 0.27181 0.04438 0.34809 0.0
C249 C 0.31552 0.08389 0.28631 0.0
C250 C 0.30008 0.0682 0.35486 0.0
C251 C 0.25817 0.03551 0.27486 0.0
N252 N 0.302 0.07525 0.21346 0.0
C253 C 0.27374 0.05145 0.20544 0.0
O254 O 0.25903 0.07896 0.59647 0.0
C255 C 0.2449 0.07841 0.53389 0.0
O256 O 0.24044 0.05976 0.47784 0.0
H257 H 0.31034 0.07525 0.41355 0.0
H258 H 0.23546 1.01679 0.27099 0.0
C259 C 0.25745 0.04318 0.81097 0.0
C260 C 0.23972 0.02225 0.87053 0.0
C261 C 0.21653 0.98528 0.76853 0.0
C262 C 0.23482 1.00592 0.71039 0.0
N263 N 0.25512 0.03433 0.73286 0.0
N264 N 0.21971 0.99375 0.84703 0.0
H265 H 0.27434 0.06581 0.82639 0.0
C266 C 0.1911 0.97755 0.47892 0.0
O267 O 0.19019 0.99542 0.53386 0.0
O268 O 0.31399 0.10063 0.69455 0.0
H269 H 0.23316 0.99933 0.64792 0.0
H270 H 0.33797 0.10296 0.29096 0.0
H271 H 0.20036 0.96251 0.75166 0.0
Zn272 Zn 1.01122 0.23358 0.44633 0.0
C273 C 0.99858 0.29212 0.58579 0.0
N274 N 1.02076 0.31277 0.5412 0.0
C275 C 0.03082 0.2976 0.49846 0.0
N276 N 1.01455 0.26753 0.5142 0.0
N277 N 0.99526 0.26461 0.57238 0.0
C278 C 0.91562 0.21878 0.61847 0.0
O279 O 0.9249 0.21934 0.54443 0.0
O280 O 0.0525 0.23602 0.43178 0.0
Zn281 Zn 0.97346 0.23 0.64106 0.0
N282 N 0.99362 0.23736 0.3466 0.0
C283 C 0.95543 0.24627 0.2966 0.0
C284 C 0.97029 0.24211 0.36068 0.0
C285 C 1.00232 0.23582 0.26998 0.0
N286 N 0.96456 0.24566 0.22052 0.0
C287 C 0.98772 0.24074 0.20478 0.0
O288 O 0.95817 0.1907 0.58877 0.0
C289 C 0.96008 0.17617 0.53008 0.0
O290 O 0.97964 0.18961 0.47523 0.0
H291 H 0.96345 0.24287 0.4217 0.0
H292 H 1.02108 0.23219 0.26043 0.0
C293 C 0.99299 0.23322 0.80728 0.0
C294 C 1.01338 0.23518 0.86667 0.0
C295 C 0.0448 0.23342 0.76491 0.0
C296 C 1.02495 0.23235 0.70611 0.0
N297 N 0.99941 0.23212 0.72832 0.0
N298 N 0.03861 0.23485 0.84374 0.0
H299 H 0.97225 0.23245 0.82363 0.0
C300 C 0.05963 0.2202 0.4761 0.0
O301 O 0.04011 0.20222 0.52963 0.0
O302 O 0.93413 0.22521 0.67601 0.0
H303 H 0.02973 0.23165 0.64305 0.0
H304 H 0.93692 0.25021 0.30715 0.0
H305 H 0.06508 0.23334 0.74802 0.0
Zn306 Zn 0.56846 0.93645 0.00444 0.0
C307 C 0.63322 0.95696 0.16773 0.0
N308 N 0.64812 0.98151 0.12158 0.0
C309 C 0.62744 0.97878 0.06847 0.0
N310 N 0.60115 0.95306 0.07963 0.0
N311 N 0.60418 0.93959 0.14416 0.0
C312 C 0.56207 0.8455 0.17236 0.0
O313 O 0.54092 0.84236 0.12229 0.0
O314 O 0.56324 0.96951 0.96005 0.0
Zn315 Zn 0.57088 0.90664 0.20486 0.0
N316 N 0.5753 0.91347 0.92434 0.0
C317 C 0.5824 0.87222 0.89496 0.0
C318 C 0.57823 0.89009 0.95062 0.0
C319 C 0.57692 0.92016 0.84471 0.0
N320 N 0.5836 0.87858 0.81519 0.0
C321 C 0.58113 0.90222 0.78829 0.0
O322 O 0.52721 0.89486 0.17368 0.0
C323 C 0.51342 0.89847 0.11477 0.0
O324 O 0.52762 0.91227 0.05206 0.0
H325 H 0.57719 0.88537 0.01435 0.0
H326 H 0.57435 0.93886 0.82569 0.0
C327 C 0.57641 0.9142 0.38207 0.0
C328 C 0.57807 0.93068 0.45173 0.0
C329 C 0.5737 0.96622 0.37016 0.0
C330 C 0.57186 0.94985 0.30191 0.0
N331 N 0.57347 0.9244 0.30885 0.0
N332 N 0.57679 0.95631 0.44306 0.0
H333 H 0.57826 0.89421 0.38529 0.0
C334 C 0.55595 0.98067 0.0183 0.0
O335 O 0.55799 0.97278 0.09222 0.0
O336 O 0.57647 0.86993 0.21193 0.0
H337 H 0.56938 0.95744 0.2432 0.0
H338 H 0.58456 0.8534 0.91495 0.0
H339 H 0.57268 0.98664 0.3654 0.0
Zn340 Zn 0.12662 0.6727 0.19687 0.0
C341 C 0.05725 0.64936 0.03999 0.0
N342 N 0.04954 0.66494 0.0883 0.0
C343 C 0.07296 0.67925 0.13851 0.0
N344 N 0.09426 0.67115 0.12409 0.0
N345 N 0.08489 0.65402 0.05829 0.0
C346 C 0.06308 0.58105 0.00756 0.0
O347 O 0.06778 0.59184 0.08114 0.0
O348 O 0.16486 0.71504 0.19689 0.0
Zn349 Zn 0.10637 0.63954 0.99356 0.0
N350 N 0.10861 0.66098 0.30381 0.0
C351 C 0.06438 0.62711 0.37587 0.0
C352 C 0.07902 0.63963 0.30359 0.0
C353 C 0.12432 0.67026 0.37419 0.0
N354 N 0.08004 0.63592 0.44574 0.0
C355 C 0.10965 0.65712 0.4472 0.0
O356 O 0.12932 0.62558 0.05378 0.0
C357 C 0.13917 0.62379 0.12159 0.0
O358 O 0.13876 0.63957 0.18032 0.0
H359 H 0.06703 0.63184 0.24733 0.0
H360 H 0.14802 0.68673 0.37303 0.0
C361 C 0.13308 0.66093 0.83633 0.0
C362 C 0.14946 0.68326 0.7782 0.0
C363 C 0.16816 0.71963 0.88288 0.0
C364 C 0.15023 0.69772 0.93877 0.0
N365 N 0.13291 0.66887 0.9144 0.0
N366 N 0.16681 0.71206 0.80404 0.0
H367 H 0.11827 0.63785 0.8196 0.0
C368 C 0.18785 0.72267 0.15212 0.0
O369 O 0.18791 0.70259 0.10352 0.0
O370 O 0.07617 0.5991 0.94923 0.0
H371 H 0.14957 0.70369 0.00081 0.0
H372 H 0.04087 0.61008 0.37637 0.0
H373 H 0.18211 0.74272 0.90143 0.0
Zn374 Zn 0.41147 0.47214 0.02596 0.0
C375 C 0.34987 0.40083 0.15207 0.0
N376 N 0.35881 0.38703 0.10006 0.0
C377 C 0.38244 0.40876 0.06259 0.0
N378 N 0.38739 0.4359 0.08684 0.0
N379 N 0.36798 0.43154 0.14612 0.0
C380 C 0.32851 0.48629 0.2004 0.0
O381 O 0.35074 0.51149 0.17223 0.0
O382 O 0.45071 0.47657 0.99477 0.0
Zn383 Zn 0.37361 0.46534 0.21965 0.0
N384 N 0.38842 0.47487 0.93789 0.0
C385 C 0.34744 0.48126 0.89961 0.0
C386 C 0.36459 0.47791 0.95916 0.0
C387 C 0.39597 0.47513 0.85926 0.0
N388 N 0.35488 0.48149 0.82107 0.0
C389 C 0.37887 0.47873 0.79859 0.0
O390 O 0.40756 0.50963 0.20046 0.0
C391 C 0.42697 0.52365 0.14573 0.0
O392 O 0.42769 0.50995 0.08385 0.0
H393 H 0.35912 0.47788 0.02212 0.0
H394 H 0.41471 0.47206 0.84478 0.0
C395 C 0.3841 0.46685 0.39465 0.0
C396 C 0.39718 0.46154 0.46256 0.0
C397 C 0.41683 0.43809 0.37918 0.0
C398 C 0.40379 0.44322 0.31224 0.0
N399 N 0.38746 0.45723 0.32096 0.0
N400 N 0.41323 0.44732 0.45258 0.0
H401 H 0.37165 0.4786 0.4001 0.0
C402 C 0.46742 0.48059 0.05532 0.0
O403 O 0.45571 0.4763 0.12781 0.0
O404 O 0.33377 0.46585 0.22501 0.0
H405 H 0.40722 0.43656 0.25334 0.0
H406 H 0.32834 0.48363 0.91559 0.0
H407 H 0.42987 0.427 0.37287 0.0
Zn408 Zn 0.47927 0.12231 0.77221 0.0
C409 C 0.424 0.04873 0.9085 0.0
N410 N 0.40277 0.04539 0.85657 0.0
C411 C 0.41656 0.07036 0.81122 0.0
N412 N 0.44572 0.08856 0.83366 0.0
N413 N 0.44951 0.07518 0.8974 0.0
C414 C 0.49142 0.04432 0.96452 0.0
O415 O 0.48799 0.04964 0.88903 0.0
O416 O 0.47369 0.15931 0.76001 0.0
Zn417 Zn 0.48206 0.09144 0.97244 0.0
N418 N 0.47838 0.10441 0.66904 0.0
C419 C 0.4777 0.06169 0.6122 0.0
C420 C 0.47956 0.07881 0.67881 0.0
C421 C 0.47632 0.11423 0.59427 0.0
N422 N 0.47456 0.07074 0.53811 0.0
C423 C 0.47361 0.09644 0.52667 0.0
O424 O 0.52249 0.11455 0.92321 0.0
C425 C 0.53665 0.13013 0.86269 0.0
O426 O 0.52313 0.13508 0.80553 0.0
H427 H 0.48159 0.07163 0.73853 0.0
H428 H 0.47526 0.1346 0.58814 0.0
C429 C 0.47377 0.10716 0.13216 0.0
C430 C 0.47019 0.12497 0.19034 0.0
C431 C 0.47182 0.15749 0.08671 0.0
C432 C 0.47511 0.1396 0.02921 0.0
N433 N 0.47623 0.11496 0.05316 0.0
N434 N 0.46962 0.14991 0.16583 0.0
H435 H 0.47527 0.08768 0.14935 0.0
C436 C 0.49002 0.18439 0.79544 0.0
O437 O 0.51143 0.187 0.8437 0.0
O438 O 0.48599 0.05807 0.01967 0.0
H439 H 0.47701 0.14535 0.96599 0.0
H440 H 0.47841 0.04117 0.61928 0.0
H441 H 0.47115 0.17734 0.06867 0.0
Zn442 Zn 0.91666 0.35929 0.80871 0.0
C443 C 0.99312 0.37553 0.93384 0.0
N444 N 0.99483 0.35829 0.87625 0.0
C445 C 0.96962 0.34911 0.83366 0.0
N446 N 0.95268 0.36067 0.86228 0.0
N447 N 0.96714 0.37645 0.92755 0.0
C448 C 0.99642 0.45124 0.97484 0.0
O449 O 0.98698 0.43856 0.90426 0.0
O450 O 0.87997 0.31625 0.79833 0.0
Zn451 Zn 0.95192 0.39435 0.00468 0.0
N452 N 0.9299 0.37795 0.70395 0.0
C453 C 0.96098 0.42592 0.6448 0.0
C454 C 0.95067 0.40748 0.71213 0.0
C455 C 0.91875 0.36592 0.6301 0.0
N456 N 0.95009 0.41411 0.57137 0.0
C457 C 0.92927 0.38463 0.56149 0.0
O458 O 0.92577 0.40914 0.96281 0.0
C459 C 0.90822 0.40671 0.90663 0.0
O460 O 0.90261 0.38832 0.84915 0.0
H461 H 0.95878 0.41668 0.7712 0.0
H462 H 0.90181 0.34248 0.62505 0.0
C463 C 0.92733 0.37331 0.16596 0.0
C464 C 0.9118 0.3509 0.2245 0.0
C465 C 0.8986 0.31372 0.12364 0.0
C466 C 0.91455 0.33594 0.06653 0.0
N467 N 0.92885 0.36525 0.08878 0.0
N468 N 0.89794 0.32165 0.20121 0.0
H469 H 0.93962 0.3968 0.18194 0.0
C470 C 0.8599 0.30331 0.85275 0.0
O471 O 0.86305 0.3174 0.92112 0.0
O472 O 0.98613 0.43491 0.03763 0.0
H473 H 0.91583 0.32989 0.00492 0.0
H474 H 0.97741 0.44947 0.6508 0.0
H475 H 0.88728 0.2903 0.10678 0.0
Zn476 Zn 0.6816 0.56519 0.79626 0.0
C477 C 0.66072 0.61629 0.93616 0.0
N478 N 0.67537 0.63784 0.88156 0.0
C479 C 0.68825 0.62625 0.83403 0.0
N480 N 0.68112 0.59807 0.8578 0.0
N481 N 0.66517 0.5929 0.92465 0.0
C482 C 0.59547 0.54633 0.99628 0.0
O483 O 0.60409 0.54873 0.92081 0.0
O484 O 0.72308 0.56841 0.7935 0.0
Zn485 Zn 0.65303 0.56063 0.00041 0.0
N486 N 0.66722 0.56711 0.69071 0.0
C487 C 0.62548 0.56584 0.62546 0.0
C488 C 0.63978 0.56486 0.69524 0.0
C489 C 0.68093 0.56972 0.61848 0.0
N490 N 0.63915 0.56888 0.55359 0.0
C491 C 0.66648 0.5708 0.54737 0.0
O492 O 0.63661 0.5196 0.95531 0.0
C493 C 0.63335 0.50708 0.88764 0.0
O494 O 0.64849 0.52219 0.8268 0.0
H495 H 0.62923 0.56252 0.75324 0.0
H496 H 0.70299 0.57199 0.61718 0.0
C497 C 0.67876 0.56976 0.15719 0.0
C498 C 0.70133 0.57543 0.21356 0.0
C499 C 0.73387 0.57958 0.10692 0.0
C500 C 0.71148 0.57434 0.05111 0.0
N501 N 0.68431 0.56923 0.07748 0.0
N502 N 0.7283 0.57995 0.18681 0.0
H503 H 0.65685 0.56555 0.17629 0.0
C504 C 0.73001 0.55208 0.83606 0.0
O505 O 0.70973 0.53198 0.88452 0.0
O506 O 0.61514 0.55413 0.05146 0.0
H507 H 0.71561 0.57427 0.98734 0.0
H508 H 0.60373 0.56428 0.62822 0.0
H509 H 0.75553 0.58338 0.08689 0.0
Zn510 Zn 0.23648 0.24204 0.53893 0.0
C511 C 0.29113 0.31664 0.40697 0.0
N512 N 0.31179 0.32241 0.46343 0.0
C513 C 0.2985 0.29767 0.50975 0.0
N514 N 0.27029 0.27747 0.48373 0.0
N515 N 0.2667 0.28929 0.41662 0.0
C516 C 0.22322 0.31667 0.35757 0.0
O517 O 0.22576 0.30842 0.43059 0.0
O518 O 0.24195 0.20499 0.54397 0.0
Zn519 Zn 0.23479 0.27194 0.33924 0.0
N520 N 0.23352 0.25606 0.6441 0.0
C521 C 0.21818 0.28775 0.70673 0.0
C522 C 0.22345 0.27587 0.63783 0.0
C523 C 0.23848 0.24735 0.71726 0.0
N524 N 0.22341 0.2795 0.77956 0.0
C525 C 0.23344 0.25965 0.78747 0.0
O526 O 0.19359 0.24705 0.38084 0.0
C527 C 0.1793 0.23288 0.44279 0.0
O528 O 0.19312 0.22951 0.50195 0.0
H529 H 0.2195 0.28234 0.5792 0.0
H530 H 0.24694 0.23192 0.72023 0.0
C531 C 0.24106 0.25436 0.18001 0.0
C532 C 0.24804 0.23857 0.12302 0.0
C533 C 0.25857 0.21446 0.22946 0.0
C534 C 0.25214 0.23062 0.28559 0.0
N535 N 0.2434 0.2501 0.25967 0.0
N536 N 0.25643 0.21882 0.1496 0.0
H537 H 0.23377 0.26988 0.16172 0.0
C538 C 0.22817 0.18268 0.49636 0.0
O539 O 0.21018 0.1836 0.44177 0.0
O540 O 0.22911 0.3051 0.29738 0.0
H541 H 0.25415 0.22777 0.34937 0.0
H542 H 0.21019 0.30354 0.70253 0.0
H543 H 0.26538 0.19873 0.24916 0.0
Zn544 Zn 0.79142 1.01016 0.53463 0.0
C545 C 0.73278 0.99755 0.35459 0.0
N546 N 0.73103 0.02014 0.38799 0.0
C547 C 0.75102 0.0299 0.44811 0.0
N548 N 0.76584 1.01395 0.45049 0.0
N549 N 0.75488 0.99447 0.38971 0.0
C550 C 0.73401 0.91851 0.35423 0.0
O551 O 0.73669 0.93024 0.42607 0.0
O552 O 0.83362 0.04822 0.53914 0.0
Zn553 Zn 0.77647 0.97753 0.33329 0.0
N554 N 0.76975 1.00334 0.6363 0.0
C555 C 0.72174 0.98355 0.69802 0.0
C556 C 0.73938 0.98983 0.62942 0.0
C557 C 0.7832 1.0099 0.71014 0.0
N558 N 0.73506 0.99036 0.77128 0.0
C559 C 0.76535 1.00334 0.78016 0.0
O560 O 0.80374 0.96756 0.39669 0.0
C561 C 0.80319 0.96011 0.46981 0.0
O562 O 0.79628 0.97266 0.52544 0.0
H563 H 0.72885 0.98381 0.5709 0.0
H564 H 0.80738 0.02039 0.71388 0.0
C565 C 0.79503 0.99822 0.16703 0.0
C566 C 0.81003 0.0209 0.10929 0.0
C567 C 0.83767 0.05501 0.21349 0.0
C568 C 0.82131 0.03297 0.27086 0.0
N569 N 0.80016 1.00504 0.24683 0.0
N570 N 0.83112 0.04873 0.13419 0.0
H571 H 0.77858 0.97581 0.14857 0.0
C572 C 0.8572 0.05422 0.49913 0.0
O573 O 0.85651 0.03399 0.4497 0.0
O574 O 0.74735 0.936 0.29534 0.0
H575 H 0.82487 0.03823 0.33425 0.0
H576 H 0.69759 0.97309 0.69325 0.0
H577 H 0.85451 0.07732 0.23203 0.0
Zn578 Zn 0.07217 0.79999 0.33888 0.0
C579 C 1.02618 0.73596 0.50201 0.0
N580 N 0.03461 0.72054 0.4535 0.0
C581 C 0.05254 0.74121 0.40027 0.0
N582 N 0.05414 0.76779 0.41383 0.0
N583 N 0.03853 0.76534 0.47999 0.0
C584 C 0.98887 0.81159 0.51897 0.0
O585 O 1.00613 0.8298 0.46206 0.0
O586 O 0.11029 0.80338 0.29725 0.0
Zn587 Zn 0.03979 0.80034 0.53893 0.0
N588 N 0.04393 0.79476 0.25637 0.0
C589 C 0.99481 0.78307 0.21715 0.0
C590 C 1.01571 0.78806 0.27733 0.0
C591 C 0.05232 0.79707 0.17816 0.0
N592 N 1.00292 0.78457 0.13864 0.0
C593 C 0.03112 0.79109 0.11722 0.0
O594 O 0.06959 0.84372 0.49977 0.0
C595 C 0.08816 0.85584 0.44203 0.0
O596 O 0.08877 0.84004 0.385 0.0
H597 H 1.00953 0.7864 0.34021 0.0
H598 H 0.07531 0.80348 0.16432 0.0
C599 C 0.04839 0.79952 0.71518 0.0
C600 C 0.06707 0.80305 0.7814 0.0
C601 C 0.10747 0.81481 0.69173 0.0
C602 C 0.08887 0.81073 0.62669 0.0
N603 N 0.05976 0.80299 0.63931 0.0
N604 N 0.09615 0.81077 0.76722 0.0
H605 H 1.0251 0.79325 0.7234 0.0
C606 C 0.12888 0.81014 0.35492 0.0
O607 O 0.11902 0.8079 0.429 0.0
O608 O 0.99798 0.79617 0.55775 0.0
H609 H 0.09753 0.81382 0.56607 0.0
H610 H 0.97224 0.77774 0.23265 0.0
H611 H 0.13068 0.82098 0.68243 0.0
C612 C 0.04806 0.39935 0.96325 0.0
C613 C 1.01908 0.39207 0.99058 0.0
C614 C 0.07225 0.40781 0.01658 0.0
C615 C 0.06916 0.41117 0.09921 0.0
H616 H 0.05157 0.39608 0.90058 0.0
H617 H 0.09222 0.4086 0.99367 0.0
S618 S 0.99948 0.39651 0.20316 0.0
N619 N 0.98949 0.38843 0.10794 0.0
N620 N 0.03581 0.40881 0.20539 0.0
C621 C 0.04134 0.40695 0.1261 0.0
C622 C 1.01613 0.39631 0.07281 0.0
C623 C 0.66212 0.62676 0.08147 0.0
C624 C 0.64732 0.6217 0.0081 0.0
C625 C 0.65564 0.6404 0.14489 0.0
C626 C 0.63479 0.65083 0.1374 0.0
H627 H 0.68045 0.62227 0.08812 0.0
H628 H 0.66903 0.64451 0.19868 0.0
S629 S 0.58222 0.63153 0.96563 0.0
N630 N 0.60576 0.62041 0.93632 0.0
N631 N 0.59335 0.64607 0.05637 0.0
C632 C 0.61713 0.64211 0.06725 0.0
C633 C 0.62368 0.62783 0.00223 0.0
C634 C 0.38641 1.01635 0.10446 0.0
C635 C 0.38176 0.9867 0.1048 0.0
C636 C 0.40302 0.03726 0.04489 0.0
C637 C 0.41574 0.02981 0.98135 0.0
H638 H 0.37637 0.02379 0.14953 0.0
H639 H 0.40424 0.0589 0.04588 0.0
S640 S 0.41659 0.9587 0.95857 0.0
N641 N 0.39693 0.9538 0.04169 0.0
N642 N 0.42562 0.99227 0.92413 0.0
C643 C 0.41304 1.00122 0.9817 0.0
C644 C 0.39682 0.97997 0.04479 0.0
C645 C 0.98259 0.59967 0.9393 0.0
C646 C 0.99003 0.60587 0.85779 0.0
C647 C 1.00513 0.61135 0.99883 0.0
C648 C 0.03584 0.62904 0.97822 0.0
H649 H 0.95953 0.58788 0.95749 0.0
H650 H 0.99833 0.60854 0.06148 0.0
S651 S 0.06651 0.64375 0.77112 0.0
N652 N 0.03005 0.6223 0.75902 0.0
N653 N 0.07187 0.64822 0.86936 0.0
C654 C 0.04341 0.63132 0.89672 0.0
C655 C 1.02056 0.61791 0.83693 0.0
C656 C 0.4282 0.40336 0.88916 0.0
C657 C 0.42591 0.37524 0.9039 0.0
C658 C 0.41542 0.41532 0.94188 0.0
C659 C 0.40248 0.40126 0.01505 0.0
H660 H 0.4356 0.41379 0.83054 0.0
H661 H 0.41296 0.4338 0.92132 0.0
S662 S 0.39164 0.328 0.08445 0.0
N663 N 0.40753 0.33315 0.99516 0.0
N664 N 0.39063 0.35889 0.10296 0.0
C665 C 0.40334 0.37497 0.03476 0.0
C666 C 0.41368 0.36139 0.97777 0.0
C667 C 0.67138 1.01538 0.88318 0.0
C668 C 0.6722 0.04326 0.87998 0.0
C669 C 0.65406 0.99333 0.93959 0.0
C670 C 0.63671 0.99793 0.99627 0.0
H671 H 0.68489 1.01045 0.84284 0.0
H672 H 0.65568 0.97314 0.94184 0.0
S673 S 0.62647 0.06406 0.00869 0.0
N674 N 0.64981 0.07167 0.93222 0.0
N675 N 0.61969 0.03135 0.04468 0.0
C676 C 0.63614 0.02492 0.99297 0.0
C677 C 0.65318 0.04724 0.93319 0.0
C678 C 0.68503 0.7362 0.41531 0.0
C679 C 0.6871 0.7256 0.33937 0.0
C680 C 0.70999 0.74969 0.4671 0.0
C681 C 0.73719 0.75051 0.44802 0.0
H682 H 0.6635 0.73166 0.43784 0.0
H683 H 0.70649 0.75533 0.52751 0.0
S684 S 0.75346 0.72435 0.25674 0.0
N685 N 0.71969 0.71982 0.24372 0.0
N686 N 0.76358 0.73823 0.34821 0.0
C687 C 0.73967 0.74075 0.3712 0.0
C688 C 0.71527 0.72967 0.31567 0.0
C689 C 0.28919 0.98815 0.36281 0.0
C690 C 0.29419 0.98709 0.44534 0.0
C691 C 0.29835 0.97387 0.3065 0.0
C692 C 0.31324 0.95835 0.33062 0.0
H693 H 0.28118 1.00237 0.34053 0.0
H694 H 0.29644 0.97754 0.24303 0.0
S695 S 0.32741 0.94527 0.5409 0.0
N696 N 0.30946 0.96416 0.54917 0.0
N697 N 0.33015 0.94101 0.44327 0.0
C698 C 0.31549 0.95456 0.41307 0.0
C699 C 0.30478 0.96776 0.47031 0.0
C700 C 0.0696 0.33123 0.30257 0.0
C701 C 0.08612 0.36182 0.32448 0.0
C702 C 0.05499 0.30843 0.36065 0.0
C703 C 0.05654 0.31529 0.44269 0.0
H704 H 0.06598 0.325 0.23952 0.0
H705 H 0.04052 0.28603 0.34041 0.0
S706 S 0.10027 0.39082 0.53331 0.0
N707 N 0.10422 0.39697 0.43528 0.0
N708 N 0.08085 0.35415 0.54385 0.0
C709 C 0.07667 0.34522 0.46552 0.0
C710 C 0.09004 0.36855 0.40671 0.0
C711 C 0.67725 0.96727 0.35187 0.0
C712 C 0.70482 0.97334 0.31663 0.0
C713 C 0.65095 0.95657 0.30596 0.0
C714 C 0.6506 0.94946 0.22449 0.0
H715 H 0.67688 0.97473 0.41269 0.0
H716 H 0.63246 0.95804 0.33164 0.0
S717 S 0.71384 0.95297 0.10901 0.0
N718 N 0.72842 0.96715 0.19789 0.0
N719 N 0.67796 0.9427 0.11536 0.0
C720 C 0.67637 0.95008 0.19309 0.0
C721 C 0.70379 0.96313 0.238 0.0
C722 C 0.09241 0.7124 0.2648 0.0
C723 C 0.07229 0.7005 0.19975 0.0
C724 C 0.08724 0.7275 0.32859 0.0
C725 C 0.06282 0.73275 0.32684 0.0
H726 H 0.11166 0.70938 0.26788 0.0
H727 H 0.10185 0.73427 0.38068 0.0
S728 S 1.00738 0.71273 0.16322 0.0
N729 N 0.02951 0.70007 0.1329 0.0
N730 N 1.02059 0.72813 0.25173 0.0
C731 C 0.04447 0.72377 0.25903 0.0
C732 C 0.04918 0.70804 0.19535 0.0
C733 C 0.31363 0.34925 0.19995 0.0
C734 C 0.32676 0.38068 0.21327 0.0
C735 C 0.29994 0.32819 0.26147 0.0
C736 C 0.2972 0.33719 0.33846 0.0
H737 H 0.31592 0.34052 0.14271 0.0
H738 H 0.29364 0.3051 0.25 0.0
S739 S 0.31268 0.41291 0.39649 0.0
N740 N 0.32604 0.4173 0.30385 0.0
N741 N 0.29975 0.37738 0.41989 0.0
C742 C 0.30542 0.36737 0.35015 0.0
C743 C 0.32 0.38917 0.28728 0.0
C744 C 0.37833 0.07149 0.62027 0.0
C745 C 0.34898 0.06192 0.64851 0.0
C746 C 0.40206 0.07807 0.67336 0.0
C747 C 0.39798 0.07726 0.75675 0.0
H748 H 0.38226 0.07049 0.55648 0.0
H749 H 0.42218 0.07991 0.6488 0.0
S750 S 0.32686 0.05673 0.86272 0.0
N751 N 0.31779 0.0526 0.7663 0.0
N752 N 0.36335 0.06971 0.8655 0.0
C753 C 0.36974 0.07142 0.78551 0.0
C754 C 0.34501 0.06265 0.73171 0.0
C755 C 0.96256 0.30182 0.77633 0.0
C756 C 0.96442 0.32976 0.76275 0.0
C757 C 0.97204 0.28847 0.71793 0.0
C758 C 0.98175 0.30134 0.64153 0.0
H759 H 0.9571 0.29196 0.83595 0.0
H760 H 0.9745 0.26976 0.73568 0.0
S761 S 0.99181 0.37478 0.57576 0.0
N762 N 0.97996 0.37102 0.66963 0.0
N763 N 0.99126 0.34328 0.55435 0.0
C764 C 0.98131 0.3281 0.62513 0.0
C765 C 0.97411 0.34285 0.68673 0.0
C766 C 0.70971 0.64344 0.69571 0.0
C767 C 0.71287 0.64678 0.77933 0.0
C768 C 0.72681 0.66763 0.64377 0.0
C769 C 0.74655 0.69677 0.67323 0.0
H770 H 0.69184 0.62325 0.67007 0.0
H771 H 0.72235 0.66401 0.57975 0.0
S772 S 0.76215 0.71746 0.88855 0.0
N773 N 0.73881 0.68095 0.8897 0.0
N774 N 0.7675 0.72717 0.79257 0.0
C775 C 0.75059 0.70021 0.75673 0.0
C776 C 0.73452 0.67509 0.80945 0.0
C777 C 0.36679 0.30376 0.6069 0.0
C778 C 0.36564 0.31357 0.68495 0.0
C779 C 0.34217 0.29365 0.55405 0.0
C780 C 0.31602 0.29449 0.57547 0.0
H781 H 0.38753 0.30627 0.58385 0.0
H782 H 0.3449 0.28814 0.49279 0.0
S783 S 0.30351 0.32276 0.7678 0.0
N784 N 0.33565 0.32353 0.78056 0.0
N785 N 0.29236 0.30961 0.67615 0.0
C786 C 0.31479 0.30466 0.65255 0.0
C787 C 0.33889 0.31311 0.70817 0.0
C788 C 0.71394 0.06506 0.56969 0.0
C789 C 0.73233 0.07724 0.63685 0.0
C790 C 0.72149 0.05143 0.50855 0.0
C791 C 0.7478 0.04899 0.51153 0.0
H792 H 0.6923 0.06388 0.56733 0.0
H793 H 0.70519 0.04118 0.46068 0.0
S794 S 0.80689 0.08425 0.66757 0.0
N795 N 0.7798 0.09001 0.69969 0.0
N796 N 0.79507 0.06607 0.58125 0.0
C797 C 0.76786 0.06392 0.57498 0.0
C798 C 0.7598 0.0775 0.63852 0.0
C799 C 0.97722 0.69511 0.54952 0.0
C800 C 1.00547 0.71997 0.56911 0.0
C801 C 0.96253 0.67021 0.60145 0.0
C802 C 0.97491 0.66983 0.67627 0.0
H803 H 0.9682 0.69326 0.48946 0.0
H804 H 0.94327 0.65021 0.57931 0.0
S805 S 0.0481 0.729 0.75615 0.0
N806 N 0.04558 0.74143 0.66666 0.0
N807 N 1.01606 0.69767 0.76986 0.0
C808 C 1.0017 0.69588 0.69953 0.0
C809 C 1.01743 0.72022 0.64479 0.0
C810 C 0.29159 0.50526 0.19217 0.0
C811 C 0.29719 0.48114 0.20015 0.0
C812 C 0.26206 0.5006 0.19323 0.0
C813 C 0.23714 0.47165 0.20226 0.0
H814 H 0.31015 0.52799 0.18656 0.0
H815 H 0.25879 0.51977 0.18944 0.0
S816 S 0.23917 0.4007 0.21364 0.0
N817 N 0.27478 0.42706 0.20948 0.0
N818 N 0.21988 0.41841 0.21147 0.0
C819 C 0.24243 0.44738 0.207 0.0
C820 C 0.27225 0.45207 0.20598 0.0
C821 C 0.55421 0.7943 0.13563 0.0
C822 C 0.56915 0.82078 0.18217 0.0
C823 C 0.56063 0.77077 0.14397 0.0
C824 C 0.58204 0.77257 0.19984 0.0
H825 H 0.5374 0.79166 0.09207 0.0
H826 H 0.54854 0.75097 0.10687 0.0
S827 S 0.62843 0.83766 0.33433 0.0
N828 N 0.60704 0.84755 0.28447 0.0
N829 N 0.61892 0.80392 0.30095 0.0
C830 C 0.59728 0.79913 0.24632 0.0
C831 C 0.5909 0.82301 0.23732 0.0
C832 C 0.21912 0.77152 0.22466 0.0
C833 C 0.21488 0.75349 0.15698 0.0
C834 C 0.24476 0.79998 0.23272 0.0
C835 C 0.26748 0.81227 0.173 0.0
H836 H 0.20265 0.76349 0.27272 0.0
H837 H 0.24645 0.81259 0.28658 0.0
S838 S 0.26638 0.77502 0.98086 0.0
N839 N 0.23519 0.75044 0.02703 0.0
N840 N 0.28307 0.80418 0.0418 0.0
C841 C 0.26325 0.79475 0.10399 0.0
C842 C 0.23714 0.76541 0.09616 0.0
C843 C 0.80718 0.57336 0.75367 0.0
C844 C 0.81951 0.56253 0.81193 0.0
C845 C 0.77853 0.56992 0.76235 0.0
C846 C 0.76041 0.55517 0.82928 0.0
H847 H 0.81995 0.58524 0.70079 0.0
H848 H 0.77054 0.57894 0.71574 0.0
S849 S 0.78132 0.52234 -0.00041 0.0
N850 N 0.81088 0.53628 0.93948 0.0
N851 N 0.75674 0.5294 0.95544 0.0
C852 C 0.77205 0.54377 0.88776 0.0
C853 C 0.80156 0.54753 0.8792 0.0
C854 C 0.49682 0.2616 0.82165 0.0
C855 C 0.47657 0.26165 0.76467 0.0
C856 C 0.50118 0.23678 0.83037 0.0
C857 C 0.48528 0.21063 0.78317 0.0
H858 H 0.50913 0.28071 0.86095 0.0
H859 H 0.51689 0.23803 0.8757 0.0
S860 S 0.42982 0.19899 0.62386 0.0
N861 N 0.44078 0.23293 0.65855 0.0
N862 N 0.44875 0.18667 0.6761 0.0
C863 C 0.46521 0.21044 0.72531 0.0
C864 C 0.46095 0.23578 0.71576 0.0
C865 C 0.78649 0.22967 0.89247 0.0
C866 C 0.77777 0.21649 0.81571 0.0
C867 C 0.81296 0.25752 0.90364 0.0
C868 C 0.83236 0.27329 0.83891 0.0
H869 H 0.77269 0.21845 0.94453 0.0
H870 H 0.81831 0.26665 0.964 0.0
S871 S 0.82109 0.24789 0.62604 0.0
N872 N 0.79151 0.22141 0.67367 0.0
N873 N 0.84128 0.27283 0.69537 0.0
C874 C 0.82423 0.26012 0.76206 0.0
C875 C 0.797 0.23208 0.75032 0.0
C876 C 0.92053 0.82261 0.50295 0.0
C877 C 0.9028 0.80707 0.57015 0.0
C878 C 0.94823 0.8241 0.48752 0.0
C879 C 0.95948 0.80986 0.53799 0.0
H880 H 0.91267 0.83318 0.46065 0.0
H881 H 0.96067 0.83614 0.43444 0.0
S882 S 0.92271 0.76708 0.72401 0.0
N883 N 0.89956 0.77796 0.68979 0.0
N884 N 0.95092 0.78044 0.65962 0.0
C885 C 0.9423 0.79468 0.60614 0.0
C886 C 0.91428 0.79341 0.62248 0.0
C887 C 0.24723 0.12566 0.58363 0.0
C888 C 0.23796 0.10329 0.52354 0.0
C889 C 0.24419 0.15111 0.57399 0.0
C890 C 0.23144 0.15547 0.50412 0.0
H891 H 0.2576 0.12398 0.63863 0.0
H892 H 0.25192 0.16748 0.62211 0.0
S893 S 0.20375 0.10422 0.32757 0.0
N894 N 0.21567 0.08767 0.39076 0.0
N895 N 0.20957 0.13521 0.3729 0.0
C896 C 0.22178 0.13326 0.44359 0.0
C897 C 0.22511 0.10732 0.45321 0.0
C898 C 0.9135 0.1311 0.58244 0.0
C899 C 0.93612 0.14383 0.52276 0.0
C900 C 0.88855 0.1022 0.57458 0.0
C901 C 0.88494 0.08426 0.50707 0.0
H902 H 0.91451 0.14382 0.63545 0.0
H903 H 0.8718 0.09397 0.62191 0.0
S904 S 0.93773 0.10598 0.33408 0.0
N905 N 0.95329 0.13552 0.39399 0.0
N906 N 0.90658 0.08104 0.37966 0.0
C907 C 0.9077 0.09617 0.44776 0.0
C908 C 0.93315 0.12589 0.45547 0.0
C909 C 0.44104 0.89991 0.07216 0.0
C910 C 0.42283 0.88591 0.13971 0.0
C911 C 0.46944 0.90249 0.06356 0.0
C912 C 0.48143 0.89158 0.12258 0.0
H913 H 0.43334 0.90906 0.0252 0.0
H914 H 0.48242 0.914 0.01059 0.0
S915 S 0.44286 0.85308 0.31184 0.0
N916 N 0.41877 0.86066 0.26695 0.0
N917 N 0.47226 0.86597 0.25137 0.0
C918 C 0.46332 0.87726 0.19029 0.0
C919 C 0.43411 0.87432 0.19866 0.0
C920 C 0.16109 0.56922 0.21648 0.0
C921 C 0.1526 0.54676 0.15701 0.0
C922 C 0.15737 0.59437 0.20484 0.0
C923 C 0.14554 0.59846 0.13255 0.0
H924 H 0.17029 0.56717 0.2732 0.0
H925 H 0.16361 0.61057 0.25304 0.0
S926 S 0.12032 0.54617 0.95667 0.0
N927 N 0.13194 0.53044 0.02314 0.0
N928 N 0.12567 0.5773 -0.00039 0.0
C929 C 0.13745 0.5762 0.07205 0.0
C930 C 0.14075 0.55052 0.08467 0.0
C931 C 0.47566 0.56737 0.0987 0.0
C932 C 0.45168 0.55561 0.1547 0.0
C933 C 0.50023 0.59653 0.10533 0.0
C934 C 0.50218 0.61576 0.16794 0.0
H935 H 0.47588 0.55379 0.0492 0.0
H936 H 0.5179 0.60399 0.06064 0.0
S937 S 0.44584 0.59649 0.3313 0.0
N938 N 0.43178 0.56585 0.27565 0.0
N939 N 0.47782 0.62084 0.28802 0.0
C940 C 0.47836 0.60455 0.22438 0.0
C941 C 0.45326 0.57454 0.21787 0.0
C942 C 0.59296 0.16466 0.86512 0.0
C943 C 0.56789 0.1361 0.85234 0.0
C944 C 0.62227 0.1688 0.86813 0.0
C945 C 0.62755 0.14449 0.85938 0.0
H946 H 0.58983 0.18368 0.87551 0.0
H947 H 0.64083 0.19113 0.87962 0.0
S948 S 0.56922 0.06559 0.81814 0.0
N949 N 0.55028 0.08356 0.82613 0.0
N950 N 0.60478 0.09111 0.83199 0.0
C951 C 0.60254 0.11602 0.84407 0.0
C952 C 0.57292 0.11191 0.84062 0.0
C953 C 0.88739 0.43658 0.97049 0.0
C954 C 0.89949 0.43021 0.90226 0.0
C955 C 0.8847 0.46246 0.97432 0.0
C956 C 0.89512 0.48372 0.91141 0.0
H957 H 0.88063 0.42178 0.02223 0.0
H958 H 0.87539 0.46638 0.02841 0.0
S959 S 0.92902 0.47778 0.71971 0.0
N960 N 0.92159 0.44711 0.76984 0.0
N961 N 0.91765 0.49617 0.77796 0.0
C962 C 0.90708 0.47748 0.84254 0.0
C963 C 0.90898 0.45067 0.83776 0.0
C964 C 0.60339 0.45991 0.80512 0.0
C965 C 0.60743 0.47574 0.87749 0.0
C966 C 0.57747 0.43191 0.79132 0.0
C967 C 0.55411 0.41853 0.84873 0.0
H968 H 0.62019 0.46941 0.75804 0.0
H969 H 0.57557 0.4209 0.7343 0.0
S970 S 0.55316 0.45036 0.04866 0.0
N971 N 0.58545 0.4753 0.00826 0.0
N972 N 0.53701 0.42334 0.9814 0.0
C973 C 0.55791 0.43394 0.92164 0.0
C974 C 0.58442 0.46226 0.93623 0.0
C975 C 0.13485 0.23552 0.38907 0.0
C976 C 0.1473 0.2259 0.45026 0.0
C977 C 0.10675 0.23363 0.39785 0.0
C978 C 0.08937 0.22167 0.46782 0.0
H979 H 0.14728 0.24554 0.33422 0.0
H980 H 0.09866 0.24177 0.34927 0.0
S981 S 0.11086 0.19272 0.64604 0.0
N982 N 0.13942 0.20361 0.58346 0.0
N983 N 0.08655 0.19958 0.59957 0.0
C984 C 0.10109 0.21128 0.5289 0.0
C985 C 0.12995 0.21349 0.52023 0.0
C986 C 0.80725 0.88844 0.43995 0.0
C987 C 0.81423 0.8822 0.51694 0.0
C988 C 0.80428 0.91379 0.42564 0.0
C989 C 0.80776 0.93406 0.48775 0.0
H990 H 0.80436 0.8738 0.38978 0.0
H991 H 0.79878 0.91725 0.36509 0.0
S992 S 0.82472 0.92738 0.70146 0.0
N993 N 0.82375 0.89823 0.65703 0.0
N994 N 0.81775 0.94541 0.63012 0.0
C995 C 0.81419 0.92781 0.56538 0.0
C996 C 0.81756 0.90212 0.57989 0.0
C997 C 0.11439 0.9069 0.50884 0.0
C998 C 0.1131 0.88785 0.44626 0.0
C999 C 0.13939 0.9359 0.51816 0.0
C1000 C 0.16441 0.94707 0.46592 0.0
H1001 H 0.09619 0.8992 0.55194 0.0
H1002 H 0.13928 0.94945 0.56787 0.0
S1003 S 0.17254 0.90661 0.29134 0.0
N1004 N 0.13936 0.88296 0.32967 0.0
N1005 N 0.18597 0.93678 0.3484 0.0
C1006 C 0.16328 0.92846 0.40249 0.0
C1007 C 0.13778 0.89912 0.39234 0.0
C1008 C 0.17041 0.3416 0.27953 0.0
C1009 C 0.17328 0.36293 0.33715 0.0
C1010 C 0.18758 0.3275 0.2846 0.0
C1011 C 0.20806 0.33417 0.34774 0.0
H1012 H 0.15517 0.33614 0.22915 0.0
H1013 H 0.18441 0.31095 0.23959 0.0
S1014 S 0.22433 0.38836 0.51361 0.0
N1015 N 0.1984 0.39009 0.45913 0.0
N1016 N 0.2304 0.36323 0.46911 0.0
C1017 C 0.2109 0.35508 0.40637 0.0
C1018 C 0.19348 0.3695 0.40118 0.0
C1019 C 0.71417 0.87301 0.2669 0.0
C1020 C 0.71921 0.88556 0.3444 0.0
C1021 C 0.70086 0.84199 0.25601 0.0
C1022 C 0.69203 0.82224 0.32219 0.0
H1023 H 0.72022 0.8872 0.214 0.0
H1024 H 0.69676 0.83346 0.19497 0.0
S1025 S 0.70257 0.84385 0.53801 0.0
N1026 N 0.71596 0.87587 0.48885 0.0
N1027 N 0.69094 0.81763 0.46812 0.0
C1028 C 0.6978 0.83454 0.40011 0.0
C1029 C 0.7113 0.86615 0.41127 0.0
C1030 C 0.21208 0.86207 0.38947 0.0
C1031 C 0.2245 0.86422 0.31286 0.0
C1032 C 0.18123 0.84372 0.40278 0.0
C1033 C 0.16162 0.82668 0.34004 0.0
H1034 H 0.22623 0.87486 0.43944 0.0
H1035 H 0.17269 0.84347 0.4626 0.0
S1036 S 0.18335 0.82197 0.13001 0.0
N1037 N 0.2151 0.84612 0.17426 0.0
N1038 N 0.15713 0.81167 0.19978 0.0
C1039 C 0.17384 0.82801 0.26359 0.0
C1040 C 0.20527 0.84679 0.24985 0.0
C1041 C 0.84879 0.68751 0.61847 0.0
C1042 C 0.84069 0.69881 0.68521 0.0
C1043 C 0.86657 0.67423 0.62732 0.0
C1044 C 0.87694 0.67152 0.70338 0.0
H1045 H 0.84163 0.68915 0.55828 0.0
H1046 H 0.87188 0.6657 0.57392 0.0
S1047 S 0.86249 0.69788 0.89776 0.0
N1048 N 0.84464 0.70665 0.83018 0.0
N1049 N 0.8781 0.68163 0.84712 0.0
C1050 C 0.86911 0.68278 0.77088 0.0
C1051 C 0.8509 0.69632 0.76179 0.0
C1052 C 0.35201 0.16373 0.7244 0.0
C1053 C 0.33937 0.1513 0.64943 0.0
C1054 C 0.36397 0.19436 0.73904 0.0
C1055 C 0.36359 0.21359 0.67924 0.0
H1056 H 0.35305 0.14979 0.77174 0.0
H1057 H 0.37439 0.20311 0.79691 0.0
S1058 S 0.32948 0.19139 0.47642 0.0
N1059 N 0.32471 0.16004 0.51699 0.0
N1060 N 0.34734 0.21766 0.54483 0.0
C1061 C 0.35006 0.20127 0.60502 0.0
C1062 C 0.33794 0.1701 0.58997 0.0
C1063 C 0.86226 0.18759 0.57575 0.0
C1064 C 0.88324 0.2054 0.63497 0.0
C1065 C 0.83146 0.17181 0.59237 0.0
C1066 C 0.82061 0.17314 0.66887 0.0
H1067 H 0.86966 0.18508 0.51665 0.0
H1068 H 0.81613 0.15797 0.54552 0.0
S1069 S 0.86588 0.21952 0.84164 0.0
N1070 N 0.89079 0.2256 0.77068 0.0
N1071 N 0.83292 0.19566 0.80249 0.0
C1072 C 0.84124 0.19166 0.72785 0.0
C1073 C 0.87256 0.20791 0.71069 0.0
C1074 C 0.50769 1.00831 0.9224 0.0
C1075 C 0.50639 0.02693 0.98238 0.0
C1076 C 0.52474 0.99428 0.93309 0.0
C1077 C 0.54091 0.99821 0.00445 0.0
H1078 H 0.4957 1.00478 0.86616 0.0
H1079 H 0.52475 0.97983 0.88574 0.0
S1080 S 0.54571 0.04528 0.17927 0.0
N1081 N 0.52326 0.04898 0.11516 0.0
N1082 N 0.55509 0.02236 0.1356 0.0
C1083 C 0.53978 1.01668 0.06506 0.0
C1084 C 0.52247 0.03103 0.05411 0.0
C1085 C 0.04033 0.5293 0.06344 0.0
C1086 C 0.04619 0.54816 0.99614 0.0
C1087 C 1.02502 0.49807 0.05573 0.0
C1088 C 1.01487 0.48435 0.98039 0.0
H1089 H 0.04775 0.53867 0.123 0.0
H1090 H 1.02087 0.48462 0.1095 0.0
S1091 S 1.02452 0.52369 0.78494 0.0
N1092 N 0.04083 0.55093 0.85162 0.0
N1093 N 1.01198 0.49222 0.83637 0.0
C1094 C 1.02089 0.50297 0.91217 0.0
C1095 C 0.03654 0.53485 0.92023 0.0
C1096 C 0.51189 0.49779 0.96665 0.0
C1097 C 0.50023 0.49557 0.04438 0.0
C1098 C 0.54266 0.5147 0.95209 0.0
C1099 C 0.5631 0.53004 0.0147 0.0
H1100 H 0.49711 0.48667 0.91615 0.0
H1101 H 0.55037 0.51549 0.89094 0.0
S1102 S 0.5442 0.53137 0.22959 0.0
N1103 N 0.51153 0.50999 0.18542 0.0
N1104 N 0.56965 0.54177 0.15761 0.0
C1105 C 0.55189 0.52774 0.09306 0.0
C1106 C 0.5204 0.51044 0.10805 0.0
C1107 C 0.17495 0.4571 0.74149 0.0
C1108 C 0.15378 0.45646 0.79634 0.0
C1109 C 0.1745 0.46386 0.65993 0.0
C1110 C 0.1525 0.46983 0.62929 0.0
H1111 H 0.19166 0.45159 0.7615 0.0
H1112 H 0.19125 0.46383 0.6205 0.0
S1113 S 0.09213 0.47147 0.74882 0.0
N1114 N 0.1107 0.46314 0.81533 0.0
N1115 N 0.10941 0.47556 0.66187 0.0
C1116 C 0.13182 0.47038 0.68437 0.0
C1117 C 0.1325 0.4637 0.76782 0.0
C1118 C 0.58898 0.68443 0.77946 0.0
C1119 C 0.60748 0.71328 0.81064 0.0
C1120 C 0.58122 0.68019 0.69768 0.0
C1121 C 0.59155 0.70466 0.64411 0.0
H1122 H 0.58164 0.66491 0.81748 0.0
H1123 H 0.56795 0.65742 0.67577 0.0
S1124 S 0.6362 0.78513 0.70059 0.0
N1125 N 0.6334 0.76683 0.78479 0.0
N1126 N 0.61768 0.75914 0.63195 0.0
C1127 C 0.60842 0.73379 0.67617 0.0
C1128 C 0.61668 0.738 0.75919 0.0
C1129 C 0.36637 0.91242 0.74951 0.0
C1130 C 0.33735 0.8973 0.78232 0.0
C1131 C 0.37142 0.90804 0.66884 0.0
C1132 C 0.34763 0.88834 0.61819 0.0
H1133 H 0.38497 0.92893 0.78502 0.0
H1134 H 0.39393 0.92142 0.645 0.0
S1135 S 0.2683 0.83948 0.68158 0.0
N1136 N 0.28513 0.85969 0.76222 0.0
N1137 N 0.29463 0.85022 0.61188 0.0
C1138 C 0.31885 0.87144 0.65272 0.0
C1139 C 0.31372 0.8763 0.73443 0.0
C1140 C 0.89132 0.56094 0.30875 0.0
C1141 C 0.91053 0.58032 0.36869 0.0
C1142 C 0.89607 0.56908 0.22705 0.0
C1143 C 0.92052 0.59673 0.20233 0.0
H1144 H 0.87201 0.53967 0.32537 0.0
H1145 H 0.8799 0.554 0.18354 0.0
S1146 S 0.9799 0.6533 0.33551 0.0
N1147 N 0.95642 0.62691 0.39762 0.0
N1148 N 0.9658 0.64209 0.24449 0.0
C1149 C 0.94064 0.61565 0.26179 0.0
C1150 C 0.93558 0.60748 0.34481 0.0
C1151 C 0.43085 0.31503 0.32596 0.0
C1152 C 0.45922 0.33548 0.35741 0.0
C1153 C 0.42716 0.30717 0.24448 0.0
C1154 C 0.45156 0.3196 0.19043 0.0
H1155 H 0.41115 0.3051 0.36426 0.0
H1156 H 0.40481 0.29117 0.22362 0.0
S1157 S 0.53069 0.37413 0.24213 0.0
N1158 N 0.5123 0.36818 0.32796 0.0
N1159 N 0.50526 0.35323 0.17448 0.0
C1160 C 0.48003 0.34045 0.22052 0.0
C1161 C 0.48384 0.34846 0.30395 0.0
C1162 C 0.69901 0.09373 0.27211 0.0
C1163 C 0.69916 0.11279 0.21084 0.0
C1164 C 0.69303 0.09723 0.35235 0.0
C1165 C 0.68658 0.11969 0.37452 0.0
H1166 H 0.70419 0.07625 0.2583 0.0
H1167 H 0.69373 0.0824 0.39754 0.0
S1168 S 0.68412 0.17568 0.23943 0.0
N1169 N 0.69266 0.15547 0.17947 0.0
N1170 N 0.68013 0.16099 0.33013 0.0
C1171 C 0.6856 0.13828 0.31419 0.0
C1172 C 0.6922 0.13511 0.23236 0.0
C1173 C 0.80117 0.80167 0.04905 0.0
C1174 C 0.82155 0.80232 0.9911 0.0
C1175 C 0.80434 0.79729 0.13122 0.0
C1176 C 0.82811 0.7935 0.15849 0.0
H1177 H 0.78189 0.80338 0.03044 0.0
H1178 H 0.78727 0.79542 0.1729 0.0
S1179 S 0.89015 0.79803 0.03356 0.0
N1180 N 0.86833 0.8024 0.96867 0.0
N1181 N 0.87399 0.79364 0.12235 0.0
C1182 C 0.84946 0.79564 0.10179 0.0
C1183 C 0.8463 0.8002 0.01836 0.0
C1184 C 0.24259 1.00742 0.01248 0.0
C1185 C 0.24466 0.02944 0.95809 0.0
C1186 C 0.25041 1.01413 0.09392 0.0
C1187 C 0.26068 0.04315 0.12382 0.0
H1188 H 0.23614 0.9851 0.99133 0.0
H1189 H 0.24985 0.99693 0.1327 0.0
S1190 S 0.2652 0.10747 0.0114 0.0
N1191 N 0.25361 0.08037 0.94398 0.0
N1192 N 0.2695 0.09318 0.096 0.0
C1193 C 0.26131 0.06491 0.0716 0.0
C1194 C 0.25296 0.05802 0.98904 0.0
C1195 C 1.00502 0.22048 0.09173 0.0
C1196 C 0.99673 0.24112 0.11976 0.0
C1197 C 1.01076 0.21898 0.00969 0.0
C1198 C 1.00805 0.23778 0.95296 0.0
H1199 H 1.00616 0.20475 0.13282 0.0
H1200 H 1.01657 0.20245 0.99018 0.0
S1201 S 0.99137 0.29855 0.99684 0.0
N1202 N 0.9892 0.28284 0.08515 0.0
N1203 N 0.99967 0.27969 0.93127 0.0
C1204 C 1.00095 0.25926 0.98051 0.0
C1205 C 0.99534 0.26097 0.06384 0.0
C1206 C 0.59881 0.93789 0.6722 0.0
C1207 C 0.58226 0.90832 0.70088 0.0
C1208 C 0.59839 0.94444 0.59063 0.0
C1209 C 0.58134 0.92174 0.53437 0.0
H1210 H 0.61194 0.95619 0.71327 0.0
H1211 H 0.61107 0.96767 0.57175 0.0
S1212 S 0.53443 0.84049 0.57928 0.0
N1213 N 0.54913 0.85594 0.66699 0.0
N1214 N 0.54768 0.8683 0.51357 0.0
C1215 C 0.56542 0.89189 0.56188 0.0
C1216 C 0.56607 0.8852 0.64516 0.0
C1217 C 0.14472 0.69957 0.63944 0.0
C1218 C 0.14439 0.67729 0.68986 0.0
C1219 C 0.13535 0.69359 0.55882 0.0
C1220 C 0.12522 0.66509 0.52566 0.0
H1221 H 0.15071 0.72141 0.66346 0.0
H1222 H 0.13441 0.71084 0.52366 0.0
S1223 S 0.12487 0.60054 0.62526 0.0
N1224 N 0.13738 0.62685 0.69513 0.0
N1225 N 0.11829 0.61536 0.54509 0.0
C1226 C 0.12645 0.64319 0.57318 0.0
C1227 C 0.13647 0.64935 0.65483 0.0
C1228 C 0.36474 0.46094 0.57557 0.0
C1229 C 0.39348 0.47008 0.54487 0.0
C1230 C 0.36051 0.46458 0.65729 0.0
C1231 C 0.38489 0.47767 0.71132 0.0
H1232 H 0.34522 0.44966 0.53719 0.0
H1233 H 0.33777 0.45604 0.67876 0.0
S1234 S 0.46535 0.51041 0.65625 0.0
N1235 N 0.447 0.49561 0.57171 0.0
N1236 N 0.43941 0.50391 0.72446 0.0
C1237 C 0.41402 0.48877 0.67979 0.0
C1238 C 0.4182 0.48458 0.59682 0.0
C1239 C 0.48656 0.13387 0.41473 0.0
C1240 C 0.46955 0.10431 0.44353 0.0
C1241 C 0.48587 0.14051 0.33295 0.0
C1242 C 0.46835 0.1178 0.27728 0.0
H1243 H 0.5015 0.15176 0.45472 0.0
H1244 H 0.50008 0.16338 0.31258 0.0
S1245 S 0.41583 0.0378 0.32488 0.0
N1246 N 0.43191 0.05284 0.41176 0.0
N1247 N 0.43073 0.06537 0.25852 0.0
C1248 C 0.44995 0.08851 0.30621 0.0
C1249 C 0.45055 0.08177 0.38922 0.0
C1250 C 0.91939 0.34751 0.45143 0.0
C1251 C 0.91968 0.3735 0.47845 0.0
C1252 C 0.91583 0.33995 0.36935 0.0
C1253 C 0.91249 0.35811 0.31143 0.0
H1254 H 0.92352 0.33379 0.49317 0.0
H1255 H 0.91701 0.3204 0.35078 0.0
S1256 S 0.90664 0.42574 0.35392 0.0
N1257 N 0.91306 0.41558 0.44265 0.0
N1258 N 0.90568 0.40102 0.28896 0.0
C1259 C 0.91085 0.3831 0.33862 0.0
C1260 C 0.91463 0.39086 0.42196 0.0
C1261 C 0.68183 0.59218 0.32774 0.0
C1262 C 0.69592 0.57645 0.30065 0.0
C1263 C 0.67394 0.59132 0.40862 0.0
C1264 C 0.67966 0.57458 0.46578 0.0
H1265 H 0.67642 0.60492 0.28581 0.0
H1266 H 0.66256 0.60335 0.42616 0.0
S1267 S 0.71688 0.53001 0.42517 0.0
N1268 N 0.71646 0.54463 0.33696 0.0
N1269 N 0.70089 0.54227 0.4893 0.0
C1270 C 0.69474 0.55957 0.43999 0.0
C1271 C 0.70306 0.56071 0.35731 0.0
C1272 C 0.25548 0.27226 0.00662 0.0
C1273 C 0.24656 0.24336 0.03557 0.0
C1274 C 0.25204 0.27713 0.92567 0.0
C1275 C 0.24 0.25345 0.86975 0.0
H1276 H 0.2649 0.29135 0.04694 0.0
H1277 H 0.25844 0.29972 0.90708 0.0
S1278 S 0.21442 0.17362 0.91413 0.0
N1279 N 0.22624 0.19076 0.0017 0.0
N1280 N 0.21981 0.20001 0.84862 0.0
C1281 C 0.23212 0.22457 0.89696 0.0
C1282 C 0.23551 0.21954 0.98004 0.0
C1283 C 0.80328 1.00684 0.88324 0.0
C1284 C 0.7781 1.00962 0.86322 0.0
C1285 C 0.81372 1.01042 0.96315 0.0
C1286 C 0.7992 1.0167 0.02545 0.0
H1287 H 0.81456 1.00109 0.83754 0.0
H1288 H 0.83299 1.00796 0.97643 0.0
S1289 S 0.73384 0.02797 0.00576 0.0
N1290 N 0.74003 0.0205 0.91338 0.0
N1291 N 0.75966 0.02696 0.06247 0.0
C1292 C 0.77457 0.02012 0.00638 0.0
C1293 C 0.76397 1.01658 0.92561 0.0
C1294 C 0.03605 0.80692 0.89279 0.0
C1295 C 0.05613 0.79776 0.86567 0.0
C1296 C 0.02762 0.8041 0.97411 0.0
C1297 C 0.03894 0.79202 0.03101 0.0
H1298 H 0.0276 0.8173 0.85169 0.0
H1299 H 1.01281 0.81225 0.99295 0.0
S1300 S 0.08861 0.76054 0.98832 0.0
N1301 N 0.0852 0.7739 0.90109 0.0
N1302 N 0.06827 0.76737 0.05244 0.0
C1303 C 0.05779 0.78135 0.00379 0.0
C1304 C 0.06671 0.78462 0.92155 0.0
loop_
_geom_bond_atom_site_label_1
_geom_bond_atom_site_label_2
_geom_bond_distance
_geom_bond_site_symmetry_2
_ccdc_geom_bond_type
Zn0 N4 2.020 . S
Zn0 O8 2.019 . S
Zn0 N10 2.119 . S
Zn0 O18 1.975 . S
C1 N2 1.334 . S
C1 N5 1.336 . S
N2 C1 1.334 . S
N2 C3 1.334 . S
C3 N2 1.334 . S
C3 N4 1.336 . S
N4 Zn0 2.020 . S
N4 C3 1.336 . S
N4 N5 1.354 . S
N5 C1 1.336 . S
N5 N4 1.354 . S
N5 Zn9 2.020 . S
C6 O7 1.244 . S
C6 O30 1.257 . S
O7 C6 1.244 . S
O8 Zn0 2.019 . S
O8 C28 1.257 . S
Zn9 N5 2.020 . S
Zn9 O16 1.975 . S
Zn9 N25 2.119 . S
Zn9 O30 2.019 . S
N10 Zn0 2.119 . S
N10 C12 1.334 . S
N10 C13 1.328 1_554 S
C11 C12 1.391 1_556 S
C11 N14 1.329 . S
C11 H32 0.930 . S
C12 N10 1.334 . S
C12 C11 1.391 1_554 S
C12 H19 0.930 . S
C13 N10 1.328 1_556 S
C13 C15 1.392 . S
C13 H20 0.930 . S
N14 C11 1.329 . S
N14 C15 1.331 . S
C15 C13 1.392 . S
C15 N14 1.331 . S
O16 Zn9 1.975 . S
O16 C17 1.252 . S
C17 O16 1.252 . S
C17 O18 1.252 . S
O18 Zn0 1.975 . S
O18 C17 1.252 . S
H19 C12 0.930 . S
H20 C13 0.930 . S
C21 C22 1.392 . S
C21 N25 1.328 . S
C21 H27 0.930 . S
C22 C21 1.392 . S
C22 N26 1.331 . S
C23 C24 1.391 . S
C23 N26 1.329 . S
C23 H33 0.930 . S
C24 C23 1.391 . S
C24 N25 1.334 . S
C24 H31 0.930 . S
N25 Zn9 2.119 . S
N25 C21 1.328 . S
N25 C24 1.334 . S
N26 C22 1.331 . S
N26 C23 1.329 . S
H27 C21 0.930 . S
C28 O8 1.257 . S
C28 O29 1.244 . S
O29 C28 1.244 . S
O30 C6 1.257 . S
O30 Zn9 2.019 . S
H31 C24 0.930 . S
H32 C11 0.930 . S
H33 C23 0.930 . S
Zn34 N38 2.020 . S
Zn34 O42 2.019 . S
Zn34 N44 2.119 . S
Zn34 O52 1.975 . S
C35 N36 1.334 . S
C35 N39 1.336 . S
N36 C35 1.334 . S
N36 C37 1.334 . S
C37 N36 1.334 . S
C37 N38 1.336 . S
N38 Zn34 2.020 . S
N38 C37 1.336 . S
N38 N39 1.354 . S
N39 C35 1.336 . S
N39 N38 1.354 . S
N39 Zn43 2.020 . S
C40 O41 1.244 . S
C40 O64 1.257 . S
O41 C40 1.244 . S
O42 Zn34 2.019 . S
O42 C62 1.257 . S
Zn43 N39 2.020 . S
Zn43 O50 1.975 . S
Zn43 N59 2.119 . S
Zn43 O64 2.019 . S
N44 Zn34 2.119 . S
N44 C46 1.334 . S
N44 C47 1.328 1_554 S
C45 C46 1.391 1_556 S
C45 N48 1.329 . S
C45 H66 0.930 . S
C46 N44 1.334 . S
C46 C45 1.391 1_554 S
C46 H53 0.930 . S
C47 N44 1.328 1_556 S
C47 C49 1.392 . S
C47 H54 0.930 . S
N48 C45 1.329 . S
N48 C49 1.331 . S
C49 C47 1.392 . S
C49 N48 1.331 . S
O50 Zn43 1.975 . S
O50 C51 1.252 . S
C51 O50 1.252 . S
C51 O52 1.252 . S
O52 Zn34 1.975 . S
O52 C51 1.252 . S
H53 C46 0.930 . S
H54 C47 0.930 . S
C55 C56 1.392 . S
C55 N59 1.328 . S
C55 H61 0.930 . S
C56 C55 1.392 . S
C56 N60 1.331 . S
C57 C58 1.391 . S
C57 N60 1.329 . S
C57 H67 0.930 . S
C58 C57 1.391 . S
C58 N59 1.334 . S
C58 H65 0.930 . S
N59 Zn43 2.119 . S
N59 C55 1.328 . S
N59 C58 1.334 . S
N60 C56 1.331 . S
N60 C57 1.329 . S
H61 C55 0.930 . S
C62 O42 1.257 . S
C62 O63 1.244 . S
O63 C62 1.244 . S
O64 C40 1.257 . S
O64 Zn43 2.019 . S
H65 C58 0.930 . S
H66 C45 0.930 . S
H67 C57 0.930 . S
Zn68 N72 2.020 . S
Zn68 O76 2.019 . S
Zn68 N78 2.119 . S
Zn68 O86 1.975 . S
C69 N70 1.334 . S
C69 N73 1.336 . S
N70 C69 1.334 . S
N70 C71 1.334 . S
C71 N70 1.334 . S
C71 N72 1.336 . S
N72 Zn68 2.020 . S
N72 C71 1.336 . S
N72 N73 1.354 . S
N73 C69 1.336 . S
N73 N72 1.354 . S
N73 Zn77 2.020 . S
C74 O75 1.244 . S
C74 O98 1.257 . S
O75 C74 1.244 . S
O76 Zn68 2.019 . S
O76 C96 1.257 . S
Zn77 N73 2.020 . S
Zn77 O84 1.975 . S
Zn77 N93 2.119 . S
Zn77 O98 2.019 . S
N78 Zn68 2.119 . S
N78 C80 1.334 . S
N78 C81 1.328 1_554 S
C79 C80 1.391 1_556 S
C79 N82 1.329 . S
C79 H100 0.930 . S
C80 N78 1.334 . S
C80 C79 1.391 1_554 S
C80 H87 0.930 . S
C81 N78 1.328 1_556 S
C81 C83 1.392 . S
C81 H88 0.930 . S
N82 C79 1.329 . S
N82 C83 1.331 . S
C83 C81 1.392 . S
C83 N82 1.331 . S
O84 Zn77 1.975 . S
O84 C85 1.252 . S
C85 O84 1.252 . S
C85 O86 1.252 . S
O86 Zn68 1.975 . S
O86 C85 1.252 . S
H87 C80 0.930 . S
H88 C81 0.930 . S
C89 C90 1.392 . S
C89 N93 1.328 . S
C89 H95 0.930 . S
C90 C89 1.392 . S
C90 N94 1.331 . S
C91 C92 1.391 . S
C91 N94 1.329 . S
C91 H101 0.930 . S
C92 C91 1.391 . S
C92 N93 1.334 . S
C92 H99 0.930 . S
N93 Zn77 2.119 . S
N93 C89 1.328 . S
N93 C92 1.334 . S
N94 C90 1.331 . S
N94 C91 1.329 . S
H95 C89 0.930 . S
C96 O76 1.257 . S
C96 O97 1.244 . S
O97 C96 1.244 . S
O98 C74 1.257 . S
O98 Zn77 2.019 . S
H99 C92 0.930 . S
H100 C79 0.930 . S
H101 C91 0.930 . S
Zn102 N106 2.020 . S
Zn102 O110 2.019 . S
Zn102 N112 2.119 . S
Zn102 O120 1.975 . S
C103 N104 1.334 . S
C103 N107 1.336 . S
N104 C103 1.334 . S
N104 C105 1.334 . S
C105 N104 1.334 . S
C105 N106 1.336 . S
N106 Zn102 2.020 . S
N106 C105 1.336 . S
N106 N107 1.354 . S
N107 C103 1.336 . S
N107 N106 1.354 . S
N107 Zn111 2.020 . S
C108 O109 1.244 . S
C108 O132 1.257 . S
O109 C108 1.244 . S
O110 Zn102 2.019 . S
O110 C130 1.257 . S
Zn111 N107 2.020 . S
Zn111 O118 1.975 . S
Zn111 N127 2.119 . S
Zn111 O132 2.019 . S
N112 Zn102 2.119 . S
N112 C114 1.334 . S
N112 C115 1.328 . S
C113 C114 1.391 . S
C113 N116 1.329 . S
C113 H134 0.930 . S
C114 N112 1.334 . S
C114 C113 1.391 . S
C114 H121 0.930 . S
C115 N112 1.328 . S
C115 C117 1.392 . S
C115 H122 0.930 . S
N116 C113 1.329 . S
N116 C117 1.331 . S
C117 C115 1.392 . S
C117 N116 1.331 . S
O118 Zn111 1.975 . S
O118 C119 1.252 . S
C119 O118 1.252 . S
C119 O120 1.252 . S
O120 Zn102 1.975 . S
O120 C119 1.252 . S
H121 C114 0.930 . S
H122 C115 0.930 . S
C123 C124 1.392 . S
C123 N127 1.328 1_554 S
C123 H129 0.930 . S
C124 C123 1.392 . S
C124 N128 1.331 . S
C125 C126 1.391 1_554 S
C125 N128 1.329 . S
C125 H135 0.930 . S
C126 C125 1.391 1_556 S
C126 N127 1.334 . S
C126 H133 0.930 . S
N127 Zn111 2.119 . S
N127 C123 1.328 1_556 S
N127 C126 1.334 . S
N128 C124 1.331 . S
N128 C125 1.329 . S
H129 C123 0.930 . S
C130 O110 1.257 . S
C130 O131 1.244 . S
O131 C130 1.244 . S
O132 C108 1.257 . S
O132 Zn111 2.019 . S
H133 C126 0.930 . S
H134 C113 0.930 . S
H135 C125 0.930 . S
Zn136 N140 2.020 . S
Zn136 O144 2.019 . S
Zn136 N146 2.119 . S
Zn136 O154 1.975 . S
C137 N138 1.334 . S
C137 N141 1.336 . S
N138 C137 1.334 . S
N138 C139 1.334 . S
C139 N138 1.334 . S
C139 N140 1.336 . S
N140 Zn136 2.020 . S
N140 C139 1.336 . S
N140 N141 1.354 . S
N141 C137 1.336 . S
N141 N140 1.354 . S
N141 Zn145 2.020 . S
C142 O143 1.244 . S
C142 O166 1.257 . S
O143 C142 1.244 . S
O144 Zn136 2.019 . S
O144 C164 1.257 . S
Zn145 N141 2.020 . S
Zn145 O152 1.975 . S
Zn145 N161 2.119 . S
Zn145 O166 2.019 . S
N146 Zn136 2.119 . S
N146 C148 1.334 . S
N146 C149 1.328 . S
C147 C148 1.391 . S
C147 N150 1.329 . S
C147 H168 0.930 . S
C148 N146 1.334 . S
C148 C147 1.391 . S
C148 H155 0.930 . S
C149 N146 1.328 . S
C149 C151 1.392 . S
C149 H156 0.930 . S
N150 C147 1.329 . S
N150 C151 1.331 . S
C151 C149 1.392 . S
C151 N150 1.331 . S
O152 Zn145 1.975 . S
O152 C153 1.252 . S
C153 O152 1.252 . S
C153 O154 1.252 . S
O154 Zn136 1.975 . S
O154 C153 1.252 . S
H155 C148 0.930 . S
H156 C149 0.930 . S
C157 C158 1.392 . S
C157 N161 1.328 1_554 S
C157 H163 0.930 . S
C158 C157 1.392 . S
C158 N162 1.331 . S
C159 C160 1.391 1_554 S
C159 N162 1.329 . S
C159 H169 0.930 . S
C160 C159 1.391 1_556 S
C160 N161 1.334 . S
C160 H167 0.930 . S
N161 Zn145 2.119 . S
N161 C157 1.328 1_556 S
N161 C160 1.334 . S
N162 C158 1.331 . S
N162 C159 1.329 . S
H163 C157 0.930 . S
C164 O144 1.257 . S
C164 O165 1.244 . S
O165 C164 1.244 . S
O166 C142 1.257 . S
O166 Zn145 2.019 . S
H167 C160 0.930 . S
H168 C147 0.930 . S
H169 C159 0.930 . S
Zn170 N174 2.020 . S
Zn170 O178 2.019 . S
Zn170 N180 2.119 . S
Zn170 O188 1.975 . S
C171 N172 1.334 . S
C171 N175 1.336 . S
N172 C171 1.334 . S
N172 C173 1.334 . S
C173 N172 1.334 . S
C173 N174 1.336 . S
N174 Zn170 2.020 . S
N174 C173 1.336 . S
N174 N175 1.354 . S
N175 C171 1.336 . S
N175 N174 1.354 . S
N175 Zn179 2.020 . S
C176 O177 1.244 . S
C176 O200 1.257 . S
O177 C176 1.244 . S
O178 Zn170 2.019 . S
O178 C198 1.257 . S
Zn179 N175 2.020 . S
Zn179 O186 1.975 . S
Zn179 N195 2.119 . S
Zn179 O200 2.019 . S
N180 Zn170 2.119 . S
N180 C182 1.334 . S
N180 C183 1.328 . S
C181 C182 1.391 . S
C181 N184 1.329 . S
C181 H202 0.930 . S
C182 N180 1.334 . S
C182 C181 1.391 . S
C182 H189 0.930 . S
C183 N180 1.328 . S
C183 C185 1.392 . S
C183 H190 0.930 . S
N184 C181 1.329 . S
N184 C185 1.331 . S
C185 C183 1.392 . S
C185 N184 1.331 . S
O186 Zn179 1.975 . S
O186 C187 1.252 . S
C187 O186 1.252 . S
C187 O188 1.252 . S
O188 Zn170 1.975 . S
O188 C187 1.252 . S
H189 C182 0.930 . S
H190 C183 0.930 . S
C191 C192 1.392 . S
C191 N195 1.328 1_554 S
C191 H197 0.930 . S
C192 C191 1.392 . S
C192 N196 1.331 . S
C193 C194 1.391 1_554 S
C193 N196 1.329 . S
C193 H203 0.930 . S
C194 C193 1.391 1_556 S
C194 N195 1.334 . S
C194 H201 0.930 . S
N195 Zn179 2.119 . S
N195 C191 1.328 1_556 S
N195 C194 1.334 . S
N196 C192 1.331 . S
N196 C193 1.329 . S
H197 C191 0.930 . S
C198 O178 1.257 . S
C198 O199 1.244 . S
O199 C198 1.244 . S
O200 C176 1.257 . S
O200 Zn179 2.019 . S
H201 C194 0.930 . S
H202 C181 0.930 . S
H203 C193 0.930 . S
Zn204 N208 2.020 . S
Zn204 O212 2.019 . S
Zn204 N214 2.119 . S
Zn204 O222 1.975 . S
C205 N206 1.334 . S
C205 N209 1.336 . S
N206 C205 1.334 . S
N206 C207 1.334 . S
C207 N206 1.334 . S
C207 N208 1.336 . S
N208 Zn204 2.020 . S
N208 C207 1.336 . S
N208 N209 1.354 . S
N209 C205 1.336 . S
N209 N208 1.354 . S
N209 Zn213 2.020 . S
C210 O211 1.244 . S
C210 O234 1.257 . S
O211 C210 1.244 . S
O212 Zn204 2.019 . S
O212 C232 1.257 . S
Zn213 N209 2.020 . S
Zn213 O220 1.975 . S
Zn213 N229 2.119 . S
Zn213 O234 2.019 . S
N214 Zn204 2.119 . S
N214 C216 1.334 . S
N214 C217 1.328 . S
C215 C216 1.391 . S
C215 N218 1.329 . S
C215 H236 0.930 . S
C216 N214 1.334 . S
C216 C215 1.391 . S
C216 H223 0.930 . S
C217 N214 1.328 . S
C217 C219 1.392 . S
C217 H224 0.930 . S
N218 C215 1.329 . S
N218 C219 1.331 . S
C219 C217 1.392 . S
C219 N218 1.331 . S
O220 Zn213 1.975 . S
O220 C221 1.252 . S
C221 O220 1.252 . S
C221 O222 1.252 . S
O222 Zn204 1.975 . S
O222 C221 1.252 . S
H223 C216 0.930 . S
H224 C217 0.930 . S
C225 C226 1.392 . S
C225 N229 1.328 . S
C225 H231 0.930 . S
C226 C225 1.392 . S
C226 N230 1.331 . S
C227 C228 1.391 . S
C227 N230 1.329 . S
C227 H237 0.930 . S
C228 C227 1.391 . S
C228 N229 1.334 . S
C228 H235 0.930 . S
N229 Zn213 2.119 . S
N229 C225 1.328 . S
N229 C228 1.334 . S
N230 C226 1.331 . S
N230 C227 1.329 . S
H231 C225 0.930 . S
C232 O212 1.257 . S
C232 O233 1.244 . S
O233 C232 1.244 . S
O234 C210 1.257 . S
O234 Zn213 2.019 . S
H235 C228 0.930 . S
H236 C215 0.930 . S
H237 C227 0.930 . S
Zn238 N242 2.020 . S
Zn238 O246 2.019 1_545 S
Zn238 N248 2.119 . S
Zn238 O256 1.975 . S
C239 N240 1.334 . S
C239 N243 1.336 . S
N240 C239 1.334 . S
N240 C241 1.336 1_545 S
C241 N240 1.336 1_565 S
C241 N242 1.326 1_565 S
N242 Zn238 2.020 . S
N242 C241 1.326 1_545 S
N242 N243 1.354 . S
N243 C239 1.336 . S
N243 N242 1.354 . S
N243 Zn247 2.020 . S
C244 O245 1.244 . S
C244 O268 1.257 . S
O245 C244 1.244 . S
O246 Zn238 2.019 1_565 S
O246 C266 1.257 . S
Zn247 N243 2.020 . S
Zn247 O254 1.975 . S
Zn247 N263 2.119 . S
Zn247 O268 2.019 . S
N248 Zn238 2.119 . S
N248 C250 1.334 . S
N248 C251 1.328 . S
C249 C250 1.391 . S
C249 N252 1.329 . S
C249 H270 0.930 . S
C250 N248 1.334 . S
C250 C249 1.391 . S
C250 H257 0.930 . S
C251 N248 1.328 . S
C251 C253 1.392 . S
C251 H258 0.930 . S
N252 C249 1.329 . S
N252 C253 1.331 . S
C253 C251 1.392 . S
C253 N252 1.331 . S
O254 Zn247 1.975 . S
O254 C255 1.252 . S
C255 O254 1.252 . S
C255 O256 1.252 . S
O256 Zn238 1.975 . S
O256 C255 1.252 . S
H257 C250 0.930 . S
H258 C251 0.930 . S
C259 C260 1.392 . S
C259 N263 1.328 . S
C259 H265 0.930 . S
C260 C259 1.392 . S
C260 N264 1.331 . S
C261 C262 1.391 . S
C261 N264 1.329 . S
C261 H271 0.930 1_545 S
C262 C261 1.391 . S
C262 N263 1.334 . S
C262 H269 0.930 . S
N263 Zn247 2.119 . S
N263 C259 1.328 . S
N263 C262 1.334 . S
N264 C260 1.331 . S
N264 C261 1.329 . S
H265 C259 0.930 . S
C266 O246 1.257 . S
C266 O267 1.244 . S
O267 C266 1.244 . S
O268 C244 1.257 . S
O268 Zn247 2.019 . S
H269 C262 0.930 . S
H270 C249 0.930 . S
H271 C261 0.930 1_565 S
Zn272 N276 2.020 . S
Zn272 O280 2.019 1_655 S
Zn272 N282 2.119 . S
Zn272 O290 1.975 . S
C273 N274 1.334 . S
C273 N277 1.336 . S
N274 C273 1.334 . S
N274 C275 1.328 1_655 S
C275 N274 1.328 1_455 S
C275 N276 1.334 1_455 S
N276 Zn272 2.020 . S
N276 C275 1.334 1_655 S
N276 N277 1.354 . S
N277 C273 1.336 . S
N277 N276 1.354 . S
N277 Zn281 2.020 . S
C278 O279 1.244 . S
C278 O302 1.257 . S
O279 C278 1.244 . S
O280 Zn272 2.019 1_455 S
O280 C300 1.257 . S
Zn281 N277 2.020 . S
Zn281 O288 1.975 . S
Zn281 N297 2.119 . S
Zn281 O302 2.019 . S
N282 Zn272 2.119 . S
N282 C284 1.334 . S
N282 C285 1.328 . S
C283 C284 1.391 . S
C283 N286 1.329 . S
C283 H304 0.930 . S
C284 N282 1.334 . S
C284 C283 1.391 . S
C284 H291 0.930 . S
C285 N282 1.328 . S
C285 C287 1.392 . S
C285 H292 0.930 . S
N286 C283 1.329 . S
N286 C287 1.331 . S
C287 C285 1.392 . S
C287 N286 1.331 . S
O288 Zn281 1.975 . S
O288 C289 1.252 . S
C289 O288 1.252 . S
C289 O290 1.252 . S
O290 Zn272 1.975 . S
O290 C289 1.252 . S
H291 C284 0.930 . S
H292 C285 0.930 . S
C293 C294 1.392 . S
C293 N297 1.328 . S
C293 H299 0.930 . S
C294 C293 1.392 . S
C294 N298 1.331 . S
C295 C296 1.391 . S
C295 N298 1.329 . S
C295 H305 0.930 1_655 S
C296 C295 1.391 . S
C296 N297 1.334 . S
C296 H303 0.930 . S
N297 Zn281 2.119 . S
N297 C293 1.328 . S
N297 C296 1.334 . S
N298 C294 1.331 . S
N298 C295 1.329 . S
H299 C293 0.930 . S
C300 O280 1.257 . S
C300 O301 1.244 . S
O301 C300 1.244 . S
O302 C278 1.257 . S
O302 Zn281 2.019 . S
H303 C296 0.930 . S
H304 C283 0.930 . S
H305 C295 0.930 1_455 S
Zn306 N310 2.020 . S
Zn306 O314 2.019 1_554 S
Zn306 N316 2.119 1_554 S
Zn306 O324 1.975 . S
C307 N308 1.334 . S
C307 N311 1.336 . S
N308 C307 1.334 . S
N308 C309 1.334 . S
C309 N308 1.334 . S
C309 N310 1.336 . S
N310 Zn306 2.020 . S
N310 C309 1.336 . S
N310 N311 1.354 . S
N311 C307 1.336 . S
N311 N310 1.354 . S
N311 Zn315 2.020 . S
C312 O313 1.244 . S
C312 O336 1.257 . S
O313 C312 1.244 . S
O314 Zn306 2.019 1_556 S
O314 C334 1.257 1_556 S
Zn315 N311 2.020 . S
Zn315 O322 1.975 . S
Zn315 N331 2.119 . S
Zn315 O336 2.019 . S
N316 Zn306 2.119 1_556 S
N316 C318 1.334 . S
N316 C319 1.328 . S
C317 C318 1.391 . S
C317 N320 1.329 . S
C317 H338 0.930 . S
C318 N316 1.334 . S
C318 C317 1.391 . S
C318 H325 0.930 . S
C319 N316 1.328 . S
C319 C321 1.392 . S
C319 H326 0.930 . S
N320 C317 1.329 . S
N320 C321 1.331 . S
C321 C319 1.392 . S
C321 N320 1.331 . S
O322 Zn315 1.975 . S
O322 C323 1.252 . S
C323 O322 1.252 . S
C323 O324 1.252 . S
O324 Zn306 1.975 . S
O324 C323 1.252 . S
H325 C318 0.930 . S
H326 C319 0.930 . S
C327 C328 1.392 . S
C327 N331 1.328 . S
C327 H333 0.930 . S
C328 C327 1.392 . S
C328 N332 1.331 . S
C329 C330 1.391 . S
C329 N332 1.329 . S
C329 H339 0.930 . S
C330 C329 1.391 . S
C330 N331 1.334 . S
C330 H337 0.930 . S
N331 Zn315 2.119 . S
N331 C327 1.328 . S
N331 C330 1.334 . S
N332 C328 1.331 . S
N332 C329 1.329 . S
H333 C327 0.930 . S
C334 O314 1.257 1_554 S
C334 O335 1.244 . S
O335 C334 1.244 . S
O336 C312 1.257 . S
O336 Zn315 2.019 . S
H337 C330 0.930 . S
H338 C317 0.930 . S
H339 C329 0.930 . S
Zn340 N344 2.020 . S
Zn340 O348 2.019 . S
Zn340 N350 2.119 . S
Zn340 O358 1.975 . S
C341 N342 1.334 . S
C341 N345 1.336 . S
N342 C341 1.334 . S
N342 C343 1.334 . S
C343 N342 1.334 . S
C343 N344 1.336 . S
N344 Zn340 2.020 . S
N344 C343 1.336 . S
N344 N345 1.354 . S
N345 C341 1.336 . S
N345 N344 1.354 . S
N345 Zn349 2.020 . S
C346 O347 1.244 . S
C346 O370 1.257 1_554 S
O347 C346 1.244 . S
O348 Zn340 2.019 . S
O348 C368 1.257 . S
Zn349 N345 2.020 . S
Zn349 O356 1.975 . S
Zn349 N365 2.119 1_554 S
Zn349 O370 2.019 1_554 S
N350 Zn340 2.119 . S
N350 C352 1.334 . S
N350 C353 1.328 . S
C351 C352 1.391 . S
C351 N354 1.329 . S
C351 H372 0.930 . S
C352 N350 1.334 . S
C352 C351 1.391 . S
C352 H359 0.930 . S
C353 N350 1.328 . S
C353 C355 1.392 . S
C353 H360 0.930 . S
N354 C351 1.329 . S
N354 C355 1.331 . S
C355 C353 1.392 . S
C355 N354 1.331 . S
O356 Zn349 1.975 . S
O356 C357 1.252 . S
C357 O356 1.252 . S
C357 O358 1.252 . S
O358 Zn340 1.975 . S
O358 C357 1.252 . S
H359 C352 0.930 . S
H360 C353 0.930 . S
C361 C362 1.392 . S
C361 N365 1.328 . S
C361 H367 0.930 . S
C362 C361 1.392 . S
C362 N366 1.331 . S
C363 C364 1.391 . S
C363 N366 1.329 . S
C363 H373 0.930 . S
C364 C363 1.391 . S
C364 N365 1.334 . S
C364 H371 0.930 . S
N365 Zn349 2.119 1_556 S
N365 C361 1.328 . S
N365 C364 1.334 . S
N366 C362 1.331 . S
N366 C363 1.329 . S
H367 C361 0.930 . S
C368 O348 1.257 . S
C368 O369 1.244 . S
O369 C368 1.244 . S
O370 C346 1.257 1_556 S
O370 Zn349 2.019 1_556 S
H371 C364 0.930 . S
H372 C351 0.930 . S
H373 C363 0.930 . S
Zn374 N378 2.020 . S
Zn374 O382 2.019 1_554 S
Zn374 N384 2.119 1_554 S
Zn374 O392 1.975 . S
C375 N376 1.334 . S
C375 N379 1.336 . S
N376 C375 1.334 . S
N376 C377 1.334 . S
C377 N376 1.334 . S
C377 N378 1.336 . S
N378 Zn374 2.020 . S
N378 C377 1.336 . S
N378 N379 1.354 . S
N379 C375 1.336 . S
N379 N378 1.354 . S
N379 Zn383 2.020 . S
C380 O381 1.244 . S
C380 O404 1.257 . S
O381 C380 1.244 . S
O382 Zn374 2.019 1_556 S
O382 C402 1.257 1_556 S
Zn383 N379 2.020 . S
Zn383 O390 1.975 . S
Zn383 N399 2.119 . S
Zn383 O404 2.019 . S
N384 Zn374 2.119 1_556 S
N384 C386 1.334 . S
N384 C387 1.328 . S
C385 C386 1.391 . S
C385 N388 1.329 . S
C385 H406 0.930 . S
C386 N384 1.334 . S
C386 C385 1.391 . S
C386 H393 0.930 . S
C387 N384 1.328 . S
C387 C389 1.392 . S
C387 H394 0.930 . S
N388 C385 1.329 . S
N388 C389 1.331 . S
C389 C387 1.392 . S
C389 N388 1.331 . S
O390 Zn383 1.975 . S
O390 C391 1.252 . S
C391 O390 1.252 . S
C391 O392 1.252 . S
O392 Zn374 1.975 . S
O392 C391 1.252 . S
H393 C386 0.930 . S
H394 C387 0.930 . S
C395 C396 1.392 . S
C395 N399 1.328 . S
C395 H401 0.930 . S
C396 C395 1.392 . S
C396 N400 1.331 . S
C397 C398 1.391 . S
C397 N400 1.329 . S
C397 H407 0.930 . S
C398 C397 1.391 . S
C398 N399 1.334 . S
C398 H405 0.930 . S
N399 Zn383 2.119 . S
N399 C395 1.328 . S
N399 C398 1.334 . S
N400 C396 1.331 . S
N400 C397 1.329 . S
H401 C395 0.930 . S
C402 O382 1.257 1_554 S
C402 O403 1.244 . S
O403 C402 1.244 . S
O404 C380 1.257 . S
O404 Zn383 2.019 . S
H405 C398 0.930 . S
H406 C385 0.930 . S
H407 C397 0.930 . S
Zn408 N412 2.020 . S
Zn408 O416 2.019 . S
Zn408 N418 2.119 . S
Zn408 O426 1.975 . S
C409 N410 1.334 . S
C409 N413 1.336 . S
N410 C409 1.334 . S
N410 C411 1.334 . S
C411 N410 1.334 . S
C411 N412 1.336 . S
N412 Zn408 2.020 . S
N412 C411 1.336 . S
N412 N413 1.354 . S
N413 C409 1.336 . S
N413 N412 1.354 . S
N413 Zn417 2.020 . S
C414 O415 1.244 . S
C414 O438 1.257 1_556 S
O415 C414 1.244 . S
O416 Zn408 2.019 . S
O416 C436 1.257 . S
Zn417 N413 2.020 . S
Zn417 O424 1.975 . S
Zn417 N433 2.119 1_556 S
Zn417 O438 2.019 1_556 S
N418 Zn408 2.119 . S
N418 C420 1.334 . S
N418 C421 1.328 . S
C419 C420 1.391 . S
C419 N422 1.329 . S
C419 H440 0.930 . S
C420 N418 1.334 . S
C420 C419 1.391 . S
C420 H427 0.930 . S
C421 N418 1.328 . S
C421 C423 1.392 . S
C421 H428 0.930 . S
N422 C419 1.329 . S
N422 C423 1.331 . S
C423 C421 1.392 . S
C423 N422 1.331 . S
O424 Zn417 1.975 . S
O424 C425 1.252 . S
C425 O424 1.252 . S
C425 O426 1.252 . S
O426 Zn408 1.975 . S
O426 C425 1.252 . S
H427 C420 0.930 . S
H428 C421 0.930 . S
C429 C430 1.392 . S
C429 N433 1.328 . S
C429 H435 0.930 . S
C430 C429 1.392 . S
C430 N434 1.331 . S
C431 C432 1.391 . S
C431 N434 1.329 . S
C431 H441 0.930 . S
C432 C431 1.391 . S
C432 N433 1.334 . S
C432 H439 0.930 . S
N433 Zn417 2.119 1_554 S
N433 C429 1.328 . S
N433 C432 1.334 . S
N434 C430 1.331 . S
N434 C431 1.329 . S
H435 C429 0.930 . S
C436 O416 1.257 . S
C436 O437 1.244 . S
O437 C436 1.244 . S
O438 C414 1.257 1_554 S
O438 Zn417 2.019 1_554 S
H439 C432 0.930 . S
H440 C419 0.930 . S
H441 C431 0.930 . S
Zn442 N446 2.020 . S
Zn442 O450 2.019 . S
Zn442 N452 2.119 . S
Zn442 O460 1.975 . S
C443 N444 1.334 . S
C443 N447 1.336 . S
N444 C443 1.334 . S
N444 C445 1.334 . S
C445 N444 1.334 . S
C445 N446 1.336 . S
N446 Zn442 2.020 . S
N446 C445 1.336 . S
N446 N447 1.354 . S
N447 C443 1.336 . S
N447 N446 1.354 . S
N447 Zn451 2.020 . S
C448 O449 1.244 . S
C448 O472 1.257 1_556 S
O449 C448 1.244 . S
O450 Zn442 2.019 . S
O450 C470 1.257 . S
Zn451 N447 2.020 . S
Zn451 O458 1.975 . S
Zn451 N467 2.119 1_556 S
Zn451 O472 2.019 1_556 S
N452 Zn442 2.119 . S
N452 C454 1.334 . S
N452 C455 1.328 . S
C453 C454 1.391 . S
C453 N456 1.329 . S
C453 H474 0.930 . S
C454 N452 1.334 . S
C454 C453 1.391 . S
C454 H461 0.930 . S
C455 N452 1.328 . S
C455 C457 1.392 . S
C455 H462 0.930 . S
N456 C453 1.329 . S
N456 C457 1.331 . S
C457 C455 1.392 . S
C457 N456 1.331 . S
O458 Zn451 1.975 . S
O458 C459 1.252 . S
C459 O458 1.252 . S
C459 O460 1.252 . S
O460 Zn442 1.975 . S
O460 C459 1.252 . S
H461 C454 0.930 . S
H462 C455 0.930 . S
C463 C464 1.392 . S
C463 N467 1.328 . S
C463 H469 0.930 . S
C464 C463 1.392 . S
C464 N468 1.331 . S
C465 C466 1.391 . S
C465 N468 1.329 . S
C465 H475 0.930 . S
C466 C465 1.391 . S
C466 N467 1.334 . S
C466 H473 0.930 . S
N467 Zn451 2.119 1_554 S
N467 C463 1.328 . S
N467 C466 1.334 . S
N468 C464 1.331 . S
N468 C465 1.329 . S
H469 C463 0.930 . S
C470 O450 1.257 . S
C470 O471 1.244 . S
O471 C470 1.244 . S
O472 C448 1.257 1_554 S
O472 Zn451 2.019 1_554 S
H473 C466 0.930 . S
H474 C453 0.930 . S
H475 C465 0.930 . S
Zn476 N480 2.020 . S
Zn476 O484 2.019 . S
Zn476 N486 2.119 . S
Zn476 O494 1.975 . S
C477 N478 1.334 . S
C477 N481 1.336 . S
N478 C477 1.334 . S
N478 C479 1.334 . S
C479 N478 1.334 . S
C479 N480 1.336 . S
N480 Zn476 2.020 . S
N480 C479 1.336 . S
N480 N481 1.354 . S
N481 C477 1.336 . S
N481 N480 1.354 . S
N481 Zn485 2.020 . S
C482 O483 1.244 . S
C482 O506 1.257 1_556 S
O483 C482 1.244 . S
O484 Zn476 2.019 . S
O484 C504 1.257 . S
Zn485 N481 2.020 . S
Zn485 O492 1.975 . S
Zn485 N501 2.119 1_556 S
Zn485 O506 2.019 1_556 S
N486 Zn476 2.119 . S
N486 C488 1.334 . S
N486 C489 1.328 . S
C487 C488 1.391 . S
C487 N490 1.329 . S
C487 H508 0.930 . S
C488 N486 1.334 . S
C488 C487 1.391 . S
C488 H495 0.930 . S
C489 N486 1.328 . S
C489 C491 1.392 . S
C489 H496 0.930 . S
N490 C487 1.329 . S
N490 C491 1.331 . S
C491 C489 1.392 . S
C491 N490 1.331 . S
O492 Zn485 1.975 . S
O492 C493 1.252 . S
C493 O492 1.252 . S
C493 O494 1.252 . S
O494 Zn476 1.975 . S
O494 C493 1.252 . S
H495 C488 0.930 . S
H496 C489 0.930 . S
C497 C498 1.392 . S
C497 N501 1.328 . S
C497 H503 0.930 . S
C498 C497 1.392 . S
C498 N502 1.331 . S
C499 C500 1.391 . S
C499 N502 1.329 . S
C499 H509 0.930 . S
C500 C499 1.391 . S
C500 N501 1.334 . S
C500 H507 0.930 . S
N501 Zn485 2.119 1_554 S
N501 C497 1.328 . S
N501 C500 1.334 . S
N502 C498 1.331 . S
N502 C499 1.329 . S
H503 C497 0.930 . S
C504 O484 1.257 . S
C504 O505 1.244 . S
O505 C504 1.244 . S
O506 C482 1.257 1_554 S
O506 Zn485 2.019 1_554 S
H507 C500 0.930 . S
H508 C487 0.930 . S
H509 C499 0.930 . S
Zn510 N514 2.020 . S
Zn510 O518 2.019 . S
Zn510 N520 2.119 . S
Zn510 O528 1.975 . S
C511 N512 1.334 . S
C511 N515 1.336 . S
N512 C511 1.334 . S
N512 C513 1.334 . S
C513 N512 1.334 . S
C513 N514 1.336 . S
N514 Zn510 2.020 . S
N514 C513 1.336 . S
N514 N515 1.354 . S
N515 C511 1.336 . S
N515 N514 1.354 . S
N515 Zn519 2.020 . S
C516 O517 1.244 . S
C516 O540 1.257 . S
O517 C516 1.244 . S
O518 Zn510 2.019 . S
O518 C538 1.257 . S
Zn519 N515 2.020 . S
Zn519 O526 1.975 . S
Zn519 N535 2.119 . S
Zn519 O540 2.019 . S
N520 Zn510 2.119 . S
N520 C522 1.334 . S
N520 C523 1.328 . S
C521 C522 1.391 . S
C521 N524 1.329 . S
C521 H542 0.930 . S
C522 N520 1.334 . S
C522 C521 1.391 . S
C522 H529 0.930 . S
C523 N520 1.328 . S
C523 C525 1.392 . S
C523 H530 0.930 . S
N524 C521 1.329 . S
N524 C525 1.331 . S
C525 C523 1.392 . S
C525 N524 1.331 . S
O526 Zn519 1.975 . S
O526 C527 1.252 . S
C527 O526 1.252 . S
C527 O528 1.252 . S
O528 Zn510 1.975 . S
O528 C527 1.252 . S
H529 C522 0.930 . S
H530 C523 0.930 . S
C531 C532 1.392 . S
C531 N535 1.328 . S
C531 H537 0.930 . S
C532 C531 1.392 . S
C532 N536 1.331 . S
C533 C534 1.391 . S
C533 N536 1.329 . S
C533 H543 0.930 . S
C534 C533 1.391 . S
C534 N535 1.334 . S
C534 H541 0.930 . S
N535 Zn519 2.119 . S
N535 C531 1.328 . S
N535 C534 1.334 . S
N536 C532 1.331 . S
N536 C533 1.329 . S
H537 C531 0.930 . S
C538 O518 1.257 . S
C538 O539 1.244 . S
O539 C538 1.244 . S
O540 C516 1.257 . S
O540 Zn519 2.019 . S
H541 C534 0.930 . S
H542 C521 0.930 . S
H543 C533 0.930 . S
Zn544 N548 2.020 . S
Zn544 O552 2.019 1_565 S
Zn544 N554 2.119 . S
Zn544 O562 1.975 . S
C545 N546 1.334 . S
C545 N549 1.336 . S
N546 C545 1.334 . S
N546 C547 1.336 1_565 S
C547 N546 1.336 1_545 S
C547 N548 1.326 1_545 S
N548 Zn544 2.020 . S
N548 C547 1.326 1_565 S
N548 N549 1.354 . S
N549 C545 1.336 . S
N549 N548 1.354 . S
N549 Zn553 2.020 . S
C550 O551 1.244 . S
C550 O574 1.257 . S
O551 C550 1.244 . S
O552 Zn544 2.019 1_545 S
O552 C572 1.257 . S
Zn553 N549 2.020 . S
Zn553 O560 1.975 . S
Zn553 N569 2.119 . S
Zn553 O574 2.019 . S
N554 Zn544 2.119 . S
N554 C556 1.334 . S
N554 C557 1.328 . S
C555 C556 1.391 . S
C555 N558 1.329 . S
C555 H576 0.930 . S
C556 N554 1.334 . S
C556 C555 1.391 . S
C556 H563 0.930 . S
C557 N554 1.328 . S
C557 C559 1.392 . S
C557 H564 0.930 . S
N558 C555 1.329 . S
N558 C559 1.331 . S
C559 C557 1.392 . S
C559 N558 1.331 . S
O560 Zn553 1.975 . S
O560 C561 1.252 . S
C561 O560 1.252 . S
C561 O562 1.252 . S
O562 Zn544 1.975 . S
O562 C561 1.252 . S
H563 C556 0.930 . S
H564 C557 0.930 . S
C565 C566 1.392 . S
C565 N569 1.328 . S
C565 H571 0.930 . S
C566 C565 1.392 . S
C566 N570 1.331 . S
C567 C568 1.391 . S
C567 N570 1.329 . S
C567 H577 0.930 1_565 S
C568 C567 1.391 . S
C568 N569 1.334 . S
C568 H575 0.930 . S
N569 Zn553 2.119 . S
N569 C565 1.328 . S
N569 C568 1.334 . S
N570 C566 1.331 . S
N570 C567 1.329 . S
H571 C565 0.930 . S
C572 O552 1.257 . S
C572 O573 1.244 . S
O573 C572 1.244 . S
O574 C550 1.257 . S
O574 Zn553 2.019 . S
H575 C568 0.930 . S
H576 C555 0.930 . S
H577 C567 0.930 1_545 S
Zn578 N582 2.020 . S
Zn578 O586 2.019 . S
Zn578 N588 2.119 . S
Zn578 O596 1.975 . S
C579 N580 1.328 1_655 S
C579 N583 1.334 1_655 S
N580 C579 1.328 1_455 S
N580 C581 1.334 . S
C581 N580 1.334 . S
C581 N582 1.336 . S
N582 Zn578 2.020 . S
N582 C581 1.336 . S
N582 N583 1.354 . S
N583 C579 1.334 1_455 S
N583 N582 1.354 . S
N583 Zn587 2.020 . S
C584 O585 1.244 . S
C584 O608 1.257 . S
O585 C584 1.244 . S
O586 Zn578 2.019 . S
O586 C606 1.257 . S
Zn587 N583 2.020 . S
Zn587 O594 1.975 . S
Zn587 N603 2.119 . S
Zn587 O608 2.019 1_455 S
N588 Zn578 2.119 . S
N588 C590 1.334 . S
N588 C591 1.328 . S
C589 C590 1.391 . S
C589 N592 1.329 . S
C589 H610 0.930 1_455 S
C590 N588 1.334 . S
C590 C589 1.391 . S
C590 H597 0.930 . S
C591 N588 1.328 . S
C591 C593 1.392 . S
C591 H598 0.930 . S
N592 C589 1.329 . S
N592 C593 1.331 . S
C593 C591 1.392 . S
C593 N592 1.331 . S
O594 Zn587 1.975 . S
O594 C595 1.252 . S
C595 O594 1.252 . S
C595 O596 1.252 . S
O596 Zn578 1.975 . S
O596 C595 1.252 . S
H597 C590 0.930 . S
H598 C591 0.930 . S
C599 C600 1.392 . S
C599 N603 1.328 . S
C599 H605 0.930 . S
C600 C599 1.392 . S
C600 N604 1.331 . S
C601 C602 1.391 . S
C601 N604 1.329 . S
C601 H611 0.930 . S
C602 C601 1.391 . S
C602 N603 1.334 . S
C602 H609 0.930 . S
N603 Zn587 2.119 . S
N603 C599 1.328 . S
N603 C602 1.334 . S
N604 C600 1.331 . S
N604 C601 1.329 . S
H605 C599 0.930 . S
C606 O586 1.257 . S
C606 O607 1.244 . S
O607 C606 1.244 . S
O608 C584 1.257 . S
O608 Zn587 2.019 1_655 S
H609 C602 0.930 . S
H610 C589 0.930 1_655 S
H611 C601 0.930 . S
C612 C613 1.369 1_455 S
C612 C614 1.419 . S
C612 H616 0.930 1_554 S
C613 C612 1.369 1_655 S
C613 C622 1.429 . S
C614 C612 1.419 . S
C614 C615 1.363 . S
C614 H617 0.929 . S
C615 C614 1.363 . S
C615 C621 1.428 . S
H616 C612 0.930 1_556 S
H617 C614 0.929 . S
S618 N619 1.613 . S
S618 N620 1.610 1_655 S
N619 S618 1.613 . S
N619 C622 1.350 . S
N620 S618 1.610 1_455 S
N620 C621 1.351 . S
C621 C615 1.428 . S
C621 N620 1.351 . S
C621 C622 1.434 1_455 S
C622 C613 1.429 . S
C622 N619 1.350 . S
C622 C621 1.434 1_655 S
C623 C624 1.369 . S
C623 C625 1.419 . S
C623 H627 0.930 . S
C624 C623 1.369 . S
C624 C633 1.430 . S
C625 C623 1.419 . S
C625 C626 1.363 . S
C625 H628 0.929 . S
C626 C625 1.363 . S
C626 C632 1.428 . S
H627 C623 0.930 . S
H628 C625 0.929 . S
S629 N630 1.613 . S
S629 N631 1.610 1_556 S
N630 S629 1.613 . S
N630 C633 1.347 1_556 S
N631 S629 1.610 1_554 S
N631 C632 1.351 . S
C632 C626 1.428 . S
C632 N631 1.351 . S
C632 C633 1.436 . S
C633 C624 1.430 . S
C633 N630 1.347 1_554 S
C633 C632 1.436 . S
C634 C635 1.369 . S
C634 C636 1.419 1_565 S
C634 H638 0.930 . S
C635 C634 1.369 . S
C635 C644 1.429 . S
C636 C634 1.419 1_545 S
C636 C637 1.363 . S
C636 H639 0.929 . S
C637 C636 1.363 . S
C637 C643 1.428 1_545 S
H638 C634 0.930 . S
H639 C636 0.929 . S
S640 N641 1.613 1_556 S
S640 N642 1.610 . S
N641 S640 1.613 1_554 S
N641 C644 1.350 . S
N642 S640 1.610 . S
N642 C643 1.351 1_556 S
C643 C637 1.428 1_565 S
C643 N642 1.351 1_554 S
C643 C644 1.434 . S
C644 C635 1.429 . S
C644 N641 1.350 . S
C644 C643 1.434 . S
C645 C646 1.369 . S
C645 C647 1.419 1_556 S
C645 H649 0.930 . S
C646 C645 1.369 . S
C646 C655 1.429 . S
C647 C645 1.419 1_554 S
C647 C648 1.363 1_654 S
C647 H650 0.929 . S
C648 C647 1.363 1_456 S
C648 C654 1.428 . S
H649 C645 0.930 . S
H650 C647 0.929 . S
S651 N652 1.613 1_455 S
S651 N653 1.610 . S
N652 S651 1.613 1_655 S
N652 C655 1.350 . S
N653 S651 1.610 . S
N653 C654 1.351 . S
C654 C648 1.428 . S
C654 N653 1.351 . S
C654 C655 1.434 1_455 S
C655 C646 1.429 . S
C655 N652 1.350 . S
C655 C654 1.434 1_655 S
C656 C657 1.369 . S
C656 C658 1.419 . S
C656 H660 0.930 . S
C657 C656 1.369 . S
C657 C666 1.429 . S
C658 C656 1.419 . S
C658 C659 1.363 . S
C658 H661 0.929 . S
C659 C658 1.363 . S
C659 C665 1.428 1_556 S
H660 C656 0.930 . S
H661 C658 0.929 . S
S662 N663 1.613 . S
S662 N664 1.610 . S
N663 S662 1.613 . S
N663 C666 1.350 1_554 S
N664 S662 1.610 . S
N664 C665 1.351 . S
C665 C659 1.428 1_554 S
C665 N664 1.351 . S
C665 C666 1.434 1_554 S
C666 C657 1.429 . S
C666 N663 1.350 1_556 S
C666 C665 1.434 1_556 S
C667 C668 1.369 . S
C667 C669 1.419 1_545 S
C667 H671 0.930 . S
C668 C667 1.369 . S
C668 C677 1.429 . S
C669 C667 1.419 1_565 S
C669 C670 1.363 . S
C669 H672 0.929 . S
C670 C669 1.363 . S
C670 C676 1.428 1_566 S
H671 C667 0.930 . S
H672 C669 0.929 . S
S673 N674 1.613 1_554 S
S673 N675 1.610 . S
N674 S673 1.613 1_556 S
N674 C677 1.350 . S
N675 S673 1.610 . S
N675 C676 1.351 . S
C676 C670 1.428 1_544 S
C676 N675 1.351 . S
C676 C677 1.434 1_554 S
C677 C668 1.429 . S
C677 N674 1.350 . S
C677 C676 1.434 1_556 S
C678 C679 1.369 . S
C678 C680 1.419 . S
C678 H682 0.930 . S
C679 C678 1.369 . S
C679 C688 1.429 . S
C680 C678 1.419 . S
C680 C681 1.363 . S
C680 H683 0.929 . S
C681 C680 1.363 . S
C681 C687 1.428 . S
H682 C678 0.930 . S
H683 C680 0.929 . S
S684 N685 1.613 . S
S684 N686 1.610 . S
N685 S684 1.613 . S
N685 C688 1.350 . S
N686 S684 1.610 . S
N686 C687 1.351 . S
C687 C681 1.428 . S
C687 N686 1.351 . S
C687 C688 1.434 . S
C688 C679 1.429 . S
C688 N685 1.350 . S
C688 C687 1.434 . S
C689 C690 1.369 . S
C689 C691 1.419 . S
C689 H693 0.930 . S
C690 C689 1.369 . S
C690 C699 1.429 . S
C691 C689 1.419 . S
C691 C692 1.363 . S
C691 H694 0.929 . S
C692 C691 1.363 . S
C692 C698 1.428 . S
H693 C689 0.930 . S
H694 C691 0.929 . S
S695 N696 1.613 . S
S695 N697 1.610 . S
N696 S695 1.613 . S
N696 C699 1.350 . S
N697 S695 1.610 . S
N697 C698 1.351 . S
C698 C692 1.428 . S
C698 N697 1.351 . S
C698 C699 1.434 . S
C699 C690 1.429 . S
C699 N696 1.350 . S
C699 C698 1.434 . S
C700 C701 1.369 . S
C700 C702 1.419 . S
C700 H704 0.930 . S
C701 C700 1.369 . S
C701 C710 1.429 . S
C702 C700 1.419 . S
C702 C703 1.363 . S
C702 H705 0.929 . S
C703 C702 1.363 . S
C703 C709 1.428 . S
H704 C700 0.930 . S
H705 C702 0.929 . S
S706 N707 1.613 . S
S706 N708 1.610 . S
N707 S706 1.613 . S
N707 C710 1.350 . S
N708 S706 1.610 . S
N708 C709 1.351 . S
C709 C703 1.428 . S
C709 N708 1.351 . S
C709 C710 1.434 . S
C710 C701 1.429 . S
C710 N707 1.350 . S
C710 C709 1.434 . S
C711 C712 1.369 . S
C711 C713 1.419 . S
C711 H715 0.930 . S
C712 C711 1.369 . S
C712 C721 1.429 . S
C713 C711 1.419 . S
C713 C714 1.363 . S
C713 H716 0.929 . S
C714 C713 1.363 . S
C714 C720 1.428 . S
H715 C711 0.930 . S
H716 C713 0.929 . S
S717 N718 1.613 . S
S717 N719 1.610 . S
N718 S717 1.613 . S
N718 C721 1.350 . S
N719 S717 1.610 . S
N719 C720 1.351 . S
C720 C714 1.428 . S
C720 N719 1.351 . S
C720 C721 1.434 . S
C721 C712 1.429 . S
C721 N718 1.350 . S
C721 C720 1.434 . S
C722 C723 1.369 . S
C722 C724 1.419 . S
C722 H726 0.930 . S
C723 C722 1.369 . S
C723 C732 1.429 . S
C724 C722 1.419 . S
C724 C725 1.363 . S
C724 H727 0.929 . S
C725 C724 1.363 . S
C725 C731 1.428 . S
H726 C722 0.930 . S
H727 C724 0.929 . S
S728 N729 1.613 . S
S728 N730 1.610 . S
N729 S728 1.613 . S
N729 C732 1.350 . S
N730 S728 1.610 . S
N730 C731 1.351 . S
C731 C725 1.428 . S
C731 N730 1.351 . S
C731 C732 1.434 . S
C732 C723 1.429 . S
C732 N729 1.350 . S
C732 C731 1.434 . S
C733 C734 1.369 . S
C733 C735 1.419 . S
C733 H737 0.930 . S
C734 C733 1.369 . S
C734 C743 1.429 . S
C735 C733 1.419 . S
C735 C736 1.363 . S
C735 H738 0.929 . S
C736 C735 1.363 . S
C736 C742 1.428 . S
H737 C733 0.930 . S
H738 C735 0.929 . S
S739 N740 1.613 . S
S739 N741 1.610 . S
N740 S739 1.613 . S
N740 C743 1.350 . S
N741 S739 1.610 . S
N741 C742 1.351 . S
C742 C736 1.428 . S
C742 N741 1.351 . S
C742 C743 1.434 . S
C743 C734 1.429 . S
C743 N740 1.350 . S
C743 C742 1.434 . S
C744 C745 1.369 . S
C744 C746 1.419 . S
C744 H748 0.930 . S
C745 C744 1.369 . S
C745 C754 1.429 . S
C746 C744 1.419 . S
C746 C747 1.363 . S
C746 H749 0.929 . S
C747 C746 1.363 . S
C747 C753 1.428 . S
H748 C744 0.930 . S
H749 C746 0.929 . S
S750 N751 1.613 . S
S750 N752 1.610 . S
N751 S750 1.613 . S
N751 C754 1.350 . S
N752 S750 1.610 . S
N752 C753 1.351 . S
C753 C747 1.428 . S
C753 N752 1.351 . S
C753 C754 1.434 . S
C754 C745 1.429 . S
C754 N751 1.350 . S
C754 C753 1.434 . S
C755 C756 1.369 . S
C755 C757 1.419 . S
C755 H759 0.930 . S
C756 C755 1.369 . S
C756 C765 1.429 . S
C757 C755 1.419 . S
C757 C758 1.363 . S
C757 H760 0.929 . S
C758 C757 1.363 . S
C758 C764 1.428 . S
H759 C755 0.930 . S
H760 C757 0.929 . S
S761 N762 1.613 . S
S761 N763 1.610 . S
N762 S761 1.613 . S
N762 C765 1.350 . S
N763 S761 1.610 . S
N763 C764 1.351 . S
C764 C758 1.428 . S
C764 N763 1.351 . S
C764 C765 1.434 . S
C765 C756 1.429 . S
C765 N762 1.350 . S
C765 C764 1.434 . S
C766 C767 1.369 . S
C766 C768 1.419 . S
C766 H770 0.930 . S
C767 C766 1.369 . S
C767 C776 1.429 . S
C768 C766 1.419 . S
C768 C769 1.363 . S
C768 H771 0.929 . S
C769 C768 1.363 . S
C769 C775 1.428 . S
H770 C766 0.930 . S
H771 C768 0.929 . S
S772 N773 1.613 . S
S772 N774 1.610 . S
N773 S772 1.613 . S
N773 C776 1.350 . S
N774 S772 1.610 . S
N774 C775 1.351 . S
C775 C769 1.428 . S
C775 N774 1.351 . S
C775 C776 1.434 . S
C776 C767 1.429 . S
C776 N773 1.350 . S
C776 C775 1.434 . S
C777 C778 1.369 . S
C777 C779 1.419 . S
C777 H781 0.930 . S
C778 C777 1.369 . S
C778 C787 1.429 . S
C779 C777 1.419 . S
C779 C780 1.363 . S
C779 H782 0.929 . S
C780 C779 1.363 . S
C780 C786 1.428 . S
H781 C777 0.930 . S
H782 C779 0.929 . S
S783 N784 1.613 . S
S783 N785 1.610 . S
N784 S783 1.613 . S
N784 C787 1.350 . S
N785 S783 1.610 . S
N785 C786 1.351 . S
C786 C780 1.428 . S
C786 N785 1.351 . S
C786 C787 1.434 . S
C787 C778 1.429 . S
C787 N784 1.350 . S
C787 C786 1.434 . S
C788 C789 1.369 . S
C788 C790 1.419 . S
C788 H792 0.930 . S
C789 C788 1.369 . S
C789 C798 1.429 . S
C790 C788 1.419 . S
C790 C791 1.363 . S
C790 H793 0.929 . S
C791 C790 1.363 . S
C791 C797 1.428 . S
H792 C788 0.930 . S
H793 C790 0.929 . S
S794 N795 1.613 . S
S794 N796 1.610 . S
N795 S794 1.613 . S
N795 C798 1.350 . S
N796 S794 1.610 . S
N796 C797 1.351 . S
C797 C791 1.428 . S
C797 N796 1.351 . S
C797 C798 1.434 . S
C798 C789 1.429 . S
C798 N795 1.350 . S
C798 C797 1.434 . S
C799 C800 1.369 . S
C799 C801 1.419 . S
C799 H803 0.930 . S
C800 C799 1.369 . S
C800 C809 1.429 . S
C801 C799 1.419 . S
C801 C802 1.363 . S
C801 H804 0.929 . S
C802 C801 1.363 . S
C802 C808 1.428 . S
H803 C799 0.930 . S
H804 C801 0.929 . S
S805 N806 1.613 . S
S805 N807 1.610 . S
N806 S805 1.613 . S
N806 C809 1.350 . S
N807 S805 1.610 . S
N807 C808 1.351 . S
C808 C802 1.428 . S
C808 N807 1.351 . S
C808 C809 1.434 . S
C809 C800 1.429 . S
C809 N806 1.350 . S
C809 C808 1.434 . S
C810 C811 1.369 . S
C810 C812 1.419 . S
C810 H814 0.930 . S
C811 C810 1.369 . S
C811 C820 1.429 . S
C812 C810 1.419 . S
C812 C813 1.363 . S
C812 H815 0.929 . S
C813 C812 1.363 . S
C813 C819 1.428 . S
H814 C810 0.930 . S
H815 C812 0.929 . S
S816 N817 1.613 . S
S816 N818 1.610 . S
N817 S816 1.613 . S
N817 C820 1.350 . S
N818 S816 1.610 . S
N818 C819 1.351 . S
C819 C813 1.428 . S
C819 N818 1.351 . S
C819 C820 1.434 . S
C820 C811 1.429 . S
C820 N817 1.350 . S
C820 C819 1.434 . S
C821 C822 1.369 . S
C821 C823 1.419 . S
C821 H825 0.930 . S
C822 C821 1.369 . S
C822 C831 1.429 . S
C823 C821 1.419 . S
C823 C824 1.363 . S
C823 H826 0.929 . S
C824 C823 1.363 . S
C824 C830 1.428 . S
H825 C821 0.930 . S
H826 C823 0.929 . S
S827 N828 1.613 . S
S827 N829 1.610 . S
N828 S827 1.613 . S
N828 C831 1.350 . S
N829 S827 1.610 . S
N829 C830 1.351 . S
C830 C824 1.428 . S
C830 N829 1.351 . S
C830 C831 1.434 . S
C831 C822 1.429 . S
C831 N828 1.350 . S
C831 C830 1.434 . S
C832 C833 1.369 . S
C832 C834 1.419 . S
C832 H836 0.930 . S
C833 C832 1.369 . S
C833 C842 1.429 . S
C834 C832 1.419 . S
C834 C835 1.363 . S
C834 H837 0.929 . S
C835 C834 1.363 . S
C835 C841 1.428 . S
H836 C832 0.930 . S
H837 C834 0.929 . S
S838 N839 1.613 . S
S838 N840 1.610 . S
N839 S838 1.613 . S
N839 C842 1.350 . S
N840 S838 1.610 . S
N840 C841 1.351 . S
C841 C835 1.428 . S
C841 N840 1.351 . S
C841 C842 1.434 . S
C842 C833 1.429 . S
C842 N839 1.350 . S
C842 C841 1.434 . S
C843 C844 1.369 . S
C843 C845 1.419 . S
C843 H847 0.930 . S
C844 C843 1.369 . S
C844 C853 1.429 . S
C845 C843 1.419 . S
C845 C846 1.363 . S
C845 H848 0.929 . S
C846 C845 1.363 . S
C846 C852 1.428 . S
H847 C843 0.930 . S
H848 C845 0.929 . S
S849 N850 1.613 . S
S849 N851 1.610 . S
N850 S849 1.613 . S
N850 C853 1.350 . S
N851 S849 1.610 . S
N851 C852 1.351 . S
C852 C846 1.428 . S
C852 N851 1.351 . S
C852 C853 1.434 . S
C853 C844 1.429 . S
C853 N850 1.350 . S
C853 C852 1.434 . S
C854 C855 1.369 . S
C854 C856 1.419 . S
C854 H858 0.930 . S
C855 C854 1.369 . S
C855 C864 1.429 . S
C856 C854 1.419 . S
C856 C857 1.363 . S
C856 H859 0.929 . S
C857 C856 1.363 . S
C857 C863 1.428 . S
H858 C854 0.930 . S
H859 C856 0.929 . S
S860 N861 1.613 . S
S860 N862 1.610 . S
N861 S860 1.613 . S
N861 C864 1.350 . S
N862 S860 1.610 . S
N862 C863 1.351 . S
C863 C857 1.428 . S
C863 N862 1.351 . S
C863 C864 1.434 . S
C864 C855 1.429 . S
C864 N861 1.350 . S
C864 C863 1.434 . S
C865 C866 1.369 . S
C865 C867 1.419 . S
C865 H869 0.930 . S
C866 C865 1.369 . S
C866 C875 1.429 . S
C867 C865 1.419 . S
C867 C868 1.363 . S
C867 H870 0.929 . S
C868 C867 1.363 . S
C868 C874 1.428 . S
H869 C865 0.930 . S
H870 C867 0.929 . S
S871 N872 1.613 . S
S871 N873 1.610 . S
N872 S871 1.613 . S
N872 C875 1.350 . S
N873 S871 1.610 . S
N873 C874 1.351 . S
C874 C868 1.428 . S
C874 N873 1.351 . S
C874 C875 1.434 . S
C875 C866 1.429 . S
C875 N872 1.350 . S
C875 C874 1.434 . S
C876 C877 1.369 . S
C876 C878 1.419 . S
C876 H880 0.930 . S
C877 C876 1.369 . S
C877 C886 1.429 . S
C878 C876 1.419 . S
C878 C879 1.363 . S
C878 H881 0.929 . S
C879 C878 1.363 . S
C879 C885 1.428 . S
H880 C876 0.930 . S
H881 C878 0.929 . S
S882 N883 1.613 . S
S882 N884 1.610 . S
N883 S882 1.613 . S
N883 C886 1.350 . S
N884 S882 1.610 . S
N884 C885 1.351 . S
C885 C879 1.428 . S
C885 N884 1.351 . S
C885 C886 1.434 . S
C886 C877 1.429 . S
C886 N883 1.350 . S
C886 C885 1.434 . S
C887 C888 1.369 . S
C887 C889 1.419 . S
C887 H891 0.930 . S
C888 C887 1.369 . S
C888 C897 1.429 . S
C889 C887 1.419 . S
C889 C890 1.363 . S
C889 H892 0.929 . S
C890 C889 1.363 . S
C890 C896 1.428 . S
H891 C887 0.930 . S
H892 C889 0.929 . S
S893 N894 1.613 . S
S893 N895 1.610 . S
N894 S893 1.613 . S
N894 C897 1.350 . S
N895 S893 1.610 . S
N895 C896 1.351 . S
C896 C890 1.428 . S
C896 N895 1.351 . S
C896 C897 1.434 . S
C897 C888 1.429 . S
C897 N894 1.350 . S
C897 C896 1.434 . S
C898 C899 1.369 . S
C898 C900 1.419 . S
C898 H902 0.930 . S
C899 C898 1.369 . S
C899 C908 1.429 . S
C900 C898 1.419 . S
C900 C901 1.363 . S
C900 H903 0.929 . S
C901 C900 1.363 . S
C901 C907 1.428 . S
H902 C898 0.930 . S
H903 C900 0.929 . S
S904 N905 1.613 . S
S904 N906 1.610 . S
N905 S904 1.613 . S
N905 C908 1.350 . S
N906 S904 1.610 . S
N906 C907 1.351 . S
C907 C901 1.428 . S
C907 N906 1.351 . S
C907 C908 1.434 . S
C908 C899 1.429 . S
C908 N905 1.350 . S
C908 C907 1.434 . S
C909 C910 1.369 . S
C909 C911 1.419 . S
C909 H913 0.930 . S
C910 C909 1.369 . S
C910 C919 1.429 . S
C911 C909 1.419 . S
C911 C912 1.363 . S
C911 H914 0.929 . S
C912 C911 1.363 . S
C912 C918 1.428 . S
H913 C909 0.930 . S
H914 C911 0.929 . S
S915 N916 1.613 . S
S915 N917 1.610 . S
N916 S915 1.613 . S
N916 C919 1.350 . S
N917 S915 1.610 . S
N917 C918 1.351 . S
C918 C912 1.428 . S
C918 N917 1.351 . S
C918 C919 1.434 . S
C919 C910 1.429 . S
C919 N916 1.350 . S
C919 C918 1.434 . S
C920 C921 1.369 . S
C920 C922 1.419 . S
C920 H924 0.930 . S
C921 C920 1.369 . S
C921 C930 1.429 . S
C922 C920 1.419 . S
C922 C923 1.363 . S
C922 H925 0.929 . S
C923 C922 1.363 . S
C923 C929 1.428 . S
H924 C920 0.930 . S
H925 C922 0.929 . S
S926 N927 1.613 1_556 S
S926 N928 1.610 1_556 S
N927 S926 1.613 1_554 S
N927 C930 1.350 . S
N928 S926 1.610 1_554 S
N928 C929 1.351 . S
C929 C923 1.428 . S
C929 N928 1.351 . S
C929 C930 1.434 . S
C930 C921 1.429 . S
C930 N927 1.350 . S
C930 C929 1.434 . S
C931 C932 1.369 . S
C931 C933 1.419 . S
C931 H935 0.930 . S
C932 C931 1.369 . S
C932 C941 1.429 . S
C933 C931 1.419 . S
C933 C934 1.363 . S
C933 H936 0.929 . S
C934 C933 1.363 . S
C934 C940 1.428 . S
H935 C931 0.930 . S
H936 C933 0.929 . S
S937 N938 1.613 . S
S937 N939 1.610 . S
N938 S937 1.613 . S
N938 C941 1.350 . S
N939 S937 1.610 . S
N939 C940 1.351 . S
C940 C934 1.428 . S
C940 N939 1.351 . S
C940 C941 1.434 . S
C941 C932 1.429 . S
C941 N938 1.350 . S
C941 C940 1.434 . S
C942 C943 1.369 . S
C942 C944 1.419 . S
C942 H946 0.930 . S
C943 C942 1.369 . S
C943 C952 1.429 . S
C944 C942 1.419 . S
C944 C945 1.363 . S
C944 H947 0.929 . S
C945 C944 1.363 . S
C945 C951 1.428 . S
H946 C942 0.930 . S
H947 C944 0.929 . S
S948 N949 1.613 . S
S948 N950 1.610 . S
N949 S948 1.613 . S
N949 C952 1.350 . S
N950 S948 1.610 . S
N950 C951 1.351 . S
C951 C945 1.428 . S
C951 N950 1.351 . S
C951 C952 1.434 . S
C952 C943 1.429 . S
C952 N949 1.350 . S
C952 C951 1.434 . S
C953 C954 1.369 . S
C953 C955 1.419 . S
C953 H957 0.930 . S
C954 C953 1.369 . S
C954 C963 1.429 . S
C955 C953 1.419 . S
C955 C956 1.363 . S
C955 H958 0.929 . S
C956 C955 1.363 . S
C956 C962 1.428 . S
H957 C953 0.930 . S
H958 C955 0.929 . S
S959 N960 1.613 . S
S959 N961 1.610 . S
N960 S959 1.613 . S
N960 C963 1.350 . S
N961 S959 1.610 . S
N961 C962 1.351 . S
C962 C956 1.428 . S
C962 N961 1.351 . S
C962 C963 1.434 . S
C963 C954 1.429 . S
C963 N960 1.350 . S
C963 C962 1.434 . S
C964 C965 1.369 . S
C964 C966 1.419 . S
C964 H968 0.930 . S
C965 C964 1.369 . S
C965 C974 1.429 . S
C966 C964 1.419 . S
C966 C967 1.363 . S
C966 H969 0.929 . S
C967 C966 1.363 . S
C967 C973 1.428 . S
H968 C964 0.930 . S
H969 C966 0.929 . S
S970 N971 1.613 1_554 S
S970 N972 1.610 1_554 S
N971 S970 1.613 1_556 S
N971 C974 1.350 . S
N972 S970 1.610 1_556 S
N972 C973 1.351 . S
C973 C967 1.428 . S
C973 N972 1.351 . S
C973 C974 1.434 . S
C974 C965 1.429 . S
C974 N971 1.350 . S
C974 C973 1.434 . S
C975 C976 1.369 . S
C975 C977 1.419 . S
C975 H979 0.930 . S
C976 C975 1.369 . S
C976 C985 1.429 . S
C977 C975 1.419 . S
C977 C978 1.363 . S
C977 H980 0.929 . S
C978 C977 1.363 . S
C978 C984 1.428 . S
H979 C975 0.930 . S
H980 C977 0.929 . S
S981 N982 1.613 . S
S981 N983 1.610 . S
N982 S981 1.613 . S
N982 C985 1.350 . S
N983 S981 1.610 . S
N983 C984 1.351 . S
C984 C978 1.428 . S
C984 N983 1.351 . S
C984 C985 1.434 . S
C985 C976 1.429 . S
C985 N982 1.350 . S
C985 C984 1.434 . S
C986 C987 1.369 . S
C986 C988 1.419 . S
C986 H990 0.930 . S
C987 C986 1.369 . S
C987 C996 1.429 . S
C988 C986 1.419 . S
C988 C989 1.363 . S
C988 H991 0.929 . S
C989 C988 1.363 . S
C989 C995 1.428 . S
H990 C986 0.930 . S
H991 C988 0.929 . S
S992 N993 1.613 . S
S992 N994 1.610 . S
N993 S992 1.613 . S
N993 C996 1.350 . S
N994 S992 1.610 . S
N994 C995 1.351 . S
C995 C989 1.428 . S
C995 N994 1.351 . S
C995 C996 1.434 . S
C996 C987 1.429 . S
C996 N993 1.350 . S
C996 C995 1.434 . S
C997 C998 1.369 . S
C997 C999 1.419 . S
C997 H1001 0.930 . S
C998 C997 1.369 . S
C998 C1007 1.429 . S
C999 C997 1.419 . S
C999 C1000 1.363 . S
C999 H1002 0.929 . S
C1000 C999 1.363 . S
C1000 C1006 1.428 . S
H1001 C997 0.930 . S
H1002 C999 0.929 . S
S1003 N1004 1.613 . S
S1003 N1005 1.610 . S
N1004 S1003 1.613 . S
N1004 C1007 1.350 . S
N1005 S1003 1.610 . S
N1005 C1006 1.351 . S
C1006 C1000 1.428 . S
C1006 N1005 1.351 . S
C1006 C1007 1.434 . S
C1007 C998 1.429 . S
C1007 N1004 1.350 . S
C1007 C1006 1.434 . S
C1008 C1009 1.369 . S
C1008 C1010 1.419 . S
C1008 H1012 0.930 . S
C1009 C1008 1.369 . S
C1009 C1018 1.429 . S
C1010 C1008 1.419 . S
C1010 C1011 1.363 . S
C1010 H1013 0.929 . S
C1011 C1010 1.363 . S
C1011 C1017 1.428 . S
H1012 C1008 0.930 . S
H1013 C1010 0.929 . S
S1014 N1015 1.613 . S
S1014 N1016 1.610 . S
N1015 S1014 1.613 . S
N1015 C1018 1.350 . S
N1016 S1014 1.610 . S
N1016 C1017 1.351 . S
C1017 C1011 1.428 . S
C1017 N1016 1.351 . S
C1017 C1018 1.434 . S
C1018 C1009 1.429 . S
C1018 N1015 1.350 . S
C1018 C1017 1.434 . S
C1019 C1020 1.369 . S
C1019 C1021 1.419 . S
C1019 H1023 0.930 . S
C1020 C1019 1.369 . S
C1020 C1029 1.429 . S
C1021 C1019 1.419 . S
C1021 C1022 1.363 . S
C1021 H1024 0.929 . S
C1022 C1021 1.363 . S
C1022 C1028 1.428 . S
H1023 C1019 0.930 . S
H1024 C1021 0.929 . S
S1025 N1026 1.613 . S
S1025 N1027 1.610 . S
N1026 S1025 1.613 . S
N1026 C1029 1.350 . S
N1027 S1025 1.610 . S
N1027 C1028 1.351 . S
C1028 C1022 1.428 . S
C1028 N1027 1.351 . S
C1028 C1029 1.434 . S
C1029 C1020 1.429 . S
C1029 N1026 1.350 . S
C1029 C1028 1.434 . S
C1030 C1031 1.369 . S
C1030 C1032 1.419 . S
C1030 H1034 0.930 . S
C1031 C1030 1.369 . S
C1031 C1040 1.429 . S
C1032 C1030 1.419 . S
C1032 C1033 1.363 . S
C1032 H1035 0.929 . S
C1033 C1032 1.363 . S
C1033 C1039 1.428 . S
H1034 C1030 0.930 . S
H1035 C1032 0.929 . S
S1036 N1037 1.613 . S
S1036 N1038 1.610 . S
N1037 S1036 1.613 . S
N1037 C1040 1.350 . S
N1038 S1036 1.610 . S
N1038 C1039 1.351 . S
C1039 C1033 1.428 . S
C1039 N1038 1.351 . S
C1039 C1040 1.434 . S
C1040 C1031 1.429 . S
C1040 N1037 1.350 . S
C1040 C1039 1.434 . S
C1041 C1042 1.369 . S
C1041 C1043 1.419 . S
C1041 H1045 0.930 . S
C1042 C1041 1.369 . S
C1042 C1051 1.429 . S
C1043 C1041 1.419 . S
C1043 C1044 1.363 . S
C1043 H1046 0.929 . S
C1044 C1043 1.363 . S
C1044 C1050 1.428 . S
H1045 C1041 0.930 . S
H1046 C1043 0.929 . S
S1047 N1048 1.613 . S
S1047 N1049 1.610 . S
N1048 S1047 1.613 . S
N1048 C1051 1.350 . S
N1049 S1047 1.610 . S
N1049 C1050 1.351 . S
C1050 C1044 1.428 . S
C1050 N1049 1.351 . S
C1050 C1051 1.434 . S
C1051 C1042 1.429 . S
C1051 N1048 1.350 . S
C1051 C1050 1.434 . S
C1052 C1053 1.369 . S
C1052 C1054 1.419 . S
C1052 H1056 0.930 . S
C1053 C1052 1.369 . S
C1053 C1062 1.429 . S
C1054 C1052 1.419 . S
C1054 C1055 1.363 . S
C1054 H1057 0.929 . S
C1055 C1054 1.363 . S
C1055 C1061 1.428 . S
H1056 C1052 0.930 . S
H1057 C1054 0.929 . S
S1058 N1059 1.613 . S
S1058 N1060 1.610 . S
N1059 S1058 1.613 . S
N1059 C1062 1.350 . S
N1060 S1058 1.610 . S
N1060 C1061 1.351 . S
C1061 C1055 1.428 . S
C1061 N1060 1.351 . S
C1061 C1062 1.434 . S
C1062 C1053 1.429 . S
C1062 N1059 1.350 . S
C1062 C1061 1.434 . S
C1063 C1064 1.369 . S
C1063 C1065 1.419 . S
C1063 H1067 0.930 . S
C1064 C1063 1.369 . S
C1064 C1073 1.429 . S
C1065 C1063 1.419 . S
C1065 C1066 1.363 . S
C1065 H1068 0.929 . S
C1066 C1065 1.363 . S
C1066 C1072 1.428 . S
H1067 C1063 0.930 . S
H1068 C1065 0.929 . S
S1069 N1070 1.613 . S
S1069 N1071 1.610 . S
N1070 S1069 1.613 . S
N1070 C1073 1.350 . S
N1071 S1069 1.610 . S
N1071 C1072 1.351 . S
C1072 C1066 1.428 . S
C1072 N1071 1.351 . S
C1072 C1073 1.434 . S
C1073 C1064 1.429 . S
C1073 N1070 1.350 . S
C1073 C1072 1.434 . S
C1074 C1075 1.369 . S
C1074 C1076 1.419 1_545 S
C1074 H1078 0.930 . S
C1075 C1074 1.369 . S
C1075 C1084 1.429 1_556 S
C1076 C1074 1.419 1_565 S
C1076 C1077 1.363 1_556 S
C1076 H1079 0.929 . S
C1077 C1076 1.363 1_554 S
C1077 C1083 1.428 . S
H1078 C1074 0.930 . S
H1079 C1076 0.929 . S
S1080 N1081 1.613 . S
S1080 N1082 1.610 1_545 S
N1081 S1080 1.613 . S
N1081 C1084 1.350 . S
N1082 S1080 1.610 1_565 S
N1082 C1083 1.351 . S
C1083 C1077 1.428 . S
C1083 N1082 1.351 . S
C1083 C1084 1.434 1_565 S
C1084 C1075 1.429 1_554 S
C1084 N1081 1.350 . S
C1084 C1083 1.434 1_545 S
C1085 C1086 1.369 . S
C1085 C1087 1.419 . S
C1085 H1089 0.930 . S
C1086 C1085 1.369 . S
C1086 C1095 1.429 1_454 S
C1087 C1085 1.419 . S
C1087 C1088 1.363 1_454 S
C1087 H1090 0.929 . S
C1088 C1087 1.363 1_656 S
C1088 C1094 1.428 . S
H1089 C1085 0.930 . S
H1090 C1087 0.929 . S
S1091 N1092 1.613 . S
S1091 N1093 1.610 . S
N1092 S1091 1.613 . S
N1092 C1095 1.350 . S
N1093 S1091 1.610 . S
N1093 C1094 1.351 . S
C1094 C1088 1.428 . S
C1094 N1093 1.351 . S
C1094 C1095 1.434 . S
C1095 C1086 1.429 1_656 S
C1095 N1092 1.350 . S
C1095 C1094 1.434 . S
C1096 C1097 1.369 1_556 S
C1096 C1098 1.419 . S
C1096 H1100 0.930 . S
C1097 C1096 1.369 1_554 S
C1097 C1106 1.429 . S
C1098 C1096 1.419 . S
C1098 C1099 1.363 . S
C1098 H1101 0.929 . S
C1099 C1098 1.363 . S
C1099 C1105 1.428 1_556 S
H1100 C1096 0.930 . S
H1101 C1098 0.929 . S
S1102 N1103 1.613 . S
S1102 N1104 1.610 . S
N1103 S1102 1.613 . S
N1103 C1106 1.350 . S
N1104 S1102 1.610 . S
N1104 C1105 1.351 . S
C1105 C1099 1.428 1_554 S
C1105 N1104 1.351 . S
C1105 C1106 1.434 . S
C1106 C1097 1.429 . S
C1106 N1103 1.350 . S
C1106 C1105 1.434 . S
C1107 C1108 1.369 . S
C1107 C1109 1.419 . S
C1107 H1111 0.930 . S
C1108 C1107 1.369 . S
C1108 C1117 1.429 . S
C1109 C1107 1.419 . S
C1109 C1110 1.363 . S
C1109 H1112 0.929 . S
C1110 C1109 1.363 . S
C1110 C1116 1.428 . S
H1111 C1107 0.930 . S
H1112 C1109 0.929 . S
S1113 N1114 1.613 . S
S1113 N1115 1.610 . S
N1114 S1113 1.613 . S
N1114 C1117 1.350 . S
N1115 S1113 1.610 . S
N1115 C1116 1.351 . S
C1116 C1110 1.428 . S
C1116 N1115 1.351 . S
C1116 C1117 1.434 . S
C1117 C1108 1.429 . S
C1117 N1114 1.350 . S
C1117 C1116 1.434 . S
C1118 C1119 1.369 . S
C1118 C1120 1.419 . S
C1118 H1122 0.930 . S
C1119 C1118 1.369 . S
C1119 C1128 1.429 . S
C1120 C1118 1.419 . S
C1120 C1121 1.363 . S
C1120 H1123 0.929 . S
C1121 C1120 1.363 . S
C1121 C1127 1.428 . S
H1122 C1118 0.930 . S
H1123 C1120 0.929 . S
S1124 N1125 1.613 . S
S1124 N1126 1.610 . S
N1125 S1124 1.613 . S
N1125 C1128 1.350 . S
N1126 S1124 1.610 . S
N1126 C1127 1.351 . S
C1127 C1121 1.428 . S
C1127 N1126 1.351 . S
C1127 C1128 1.434 . S
C1128 C1119 1.429 . S
C1128 N1125 1.350 . S
C1128 C1127 1.434 . S
C1129 C1130 1.369 . S
C1129 C1131 1.419 . S
C1129 H1133 0.930 . S
C1130 C1129 1.369 . S
C1130 C1139 1.429 . S
C1131 C1129 1.419 . S
C1131 C1132 1.363 . S
C1131 H1134 0.929 . S
C1132 C1131 1.363 . S
C1132 C1138 1.428 . S
H1133 C1129 0.930 . S
H1134 C1131 0.929 . S
S1135 N1136 1.613 . S
S1135 N1137 1.610 . S
N1136 S1135 1.613 . S
N1136 C1139 1.350 . S
N1137 S1135 1.610 . S
N1137 C1138 1.351 . S
C1138 C1132 1.428 . S
C1138 N1137 1.351 . S
C1138 C1139 1.434 . S
C1139 C1130 1.429 . S
C1139 N1136 1.350 . S
C1139 C1138 1.434 . S
C1140 C1141 1.369 . S
C1140 C1142 1.419 . S
C1140 H1144 0.930 . S
C1141 C1140 1.369 . S
C1141 C1150 1.429 . S
C1142 C1140 1.419 . S
C1142 C1143 1.363 . S
C1142 H1145 0.929 . S
C1143 C1142 1.363 . S
C1143 C1149 1.428 . S
H1144 C1140 0.930 . S
H1145 C1142 0.929 . S
S1146 N1147 1.613 . S
S1146 N1148 1.610 . S
N1147 S1146 1.613 . S
N1147 C1150 1.350 . S
N1148 S1146 1.610 . S
N1148 C1149 1.351 . S
C1149 C1143 1.428 . S
C1149 N1148 1.351 . S
C1149 C1150 1.434 . S
C1150 C1141 1.429 . S
C1150 N1147 1.350 . S
C1150 C1149 1.434 . S
C1151 C1152 1.369 . S
C1151 C1153 1.419 . S
C1151 H1155 0.930 . S
C1152 C1151 1.369 . S
C1152 C1161 1.429 . S
C1153 C1151 1.419 . S
C1153 C1154 1.363 . S
C1153 H1156 0.929 . S
C1154 C1153 1.363 . S
C1154 C1160 1.428 . S
H1155 C1151 0.930 . S
H1156 C1153 0.929 . S
S1157 N1158 1.613 . S
S1157 N1159 1.610 . S
N1158 S1157 1.613 . S
N1158 C1161 1.350 . S
N1159 S1157 1.610 . S
N1159 C1160 1.351 . S
C1160 C1154 1.428 . S
C1160 N1159 1.351 . S
C1160 C1161 1.434 . S
C1161 C1152 1.429 . S
C1161 N1158 1.350 . S
C1161 C1160 1.434 . S
C1162 C1163 1.369 . S
C1162 C1164 1.419 . S
C1162 H1166 0.930 . S
C1163 C1162 1.369 . S
C1163 C1172 1.429 . S
C1164 C1162 1.419 . S
C1164 C1165 1.363 . S
C1164 H1167 0.929 . S
C1165 C1164 1.363 . S
C1165 C1171 1.428 . S
H1166 C1162 0.930 . S
H1167 C1164 0.929 . S
S1168 N1169 1.613 . S
S1168 N1170 1.610 . S
N1169 S1168 1.613 . S
N1169 C1172 1.350 . S
N1170 S1168 1.610 . S
N1170 C1171 1.351 . S
C1171 C1165 1.428 . S
C1171 N1170 1.351 . S
C1171 C1172 1.434 . S
C1172 C1163 1.429 . S
C1172 N1169 1.350 . S
C1172 C1171 1.434 . S
C1173 C1174 1.369 . S
C1173 C1175 1.419 1_556 S
C1173 H1177 0.930 . S
C1174 C1173 1.369 . S
C1174 C1183 1.429 1_556 S
C1175 C1173 1.419 1_554 S
C1175 C1176 1.363 . S
C1175 H1178 0.929 . S
C1176 C1175 1.363 . S
C1176 C1182 1.428 . S
H1177 C1173 0.930 . S
H1178 C1175 0.929 . S
S1179 N1180 1.613 . S
S1179 N1181 1.610 . S
N1180 S1179 1.613 . S
N1180 C1183 1.350 . S
N1181 S1179 1.610 . S
N1181 C1182 1.351 . S
C1182 C1176 1.428 . S
C1182 N1181 1.351 . S
C1182 C1183 1.434 . S
C1183 C1174 1.429 1_554 S
C1183 N1180 1.350 . S
C1183 C1182 1.434 . S
C1184 C1185 1.369 . S
C1184 C1186 1.419 1_556 S
C1184 H1188 0.930 . S
C1185 C1184 1.369 . S
C1185 C1194 1.429 1_556 S
C1186 C1184 1.419 1_554 S
C1186 C1187 1.363 . S
C1186 H1189 0.935 . S
C1187 C1186 1.363 . S
C1187 C1193 1.428 . S
H1188 C1184 0.930 . S
H1189 C1186 0.935 . S
S1190 N1191 1.613 . S
S1190 N1192 1.610 . S
N1191 S1190 1.613 . S
N1191 C1194 1.350 . S
N1192 S1190 1.610 . S
N1192 C1193 1.351 . S
C1193 C1187 1.428 . S
C1193 N1192 1.351 . S
C1193 C1194 1.434 . S
C1194 C1185 1.429 1_554 S
C1194 N1191 1.350 . S
C1194 C1193 1.434 . S
C1195 C1196 1.369 . S
C1195 C1197 1.419 . S
C1195 H1199 0.930 . S
C1196 C1195 1.369 . S
C1196 C1205 1.429 . S
C1197 C1195 1.419 . S
C1197 C1198 1.363 1_554 S
C1197 H1200 0.929 . S
C1198 C1197 1.363 1_556 S
C1198 C1204 1.428 . S
H1199 C1195 0.930 . S
H1200 C1197 0.929 . S
S1201 N1202 1.613 . S
S1201 N1203 1.610 1_554 S
N1202 S1201 1.613 . S
N1202 C1205 1.350 . S
N1203 S1201 1.610 1_556 S
N1203 C1204 1.351 . S
C1204 C1198 1.428 . S
C1204 N1203 1.351 . S
C1204 C1205 1.434 1_556 S
C1205 C1196 1.429 . S
C1205 N1202 1.350 . S
C1205 C1204 1.434 1_554 S
C1206 C1207 1.369 . S
C1206 C1208 1.419 . S
C1206 H1210 0.930 . S
C1207 C1206 1.369 . S
C1207 C1216 1.429 . S
C1208 C1206 1.419 . S
C1208 C1209 1.363 . S
C1208 H1211 0.929 . S
C1209 C1208 1.363 . S
C1209 C1215 1.428 . S
H1210 C1206 0.930 . S
H1211 C1208 0.929 . S
S1212 N1213 1.613 . S
S1212 N1214 1.610 . S
N1213 S1212 1.613 . S
N1213 C1216 1.350 . S
N1214 S1212 1.610 . S
N1214 C1215 1.351 . S
C1215 C1209 1.428 . S
C1215 N1214 1.351 . S
C1215 C1216 1.434 . S
C1216 C1207 1.429 . S
C1216 N1213 1.350 . S
C1216 C1215 1.434 . S
C1217 C1218 1.369 . S
C1217 C1219 1.419 . S
C1217 H1221 0.930 . S
C1218 C1217 1.369 . S
C1218 C1227 1.429 . S
C1219 C1217 1.419 . S
C1219 C1220 1.363 . S
C1219 H1222 0.929 . S
C1220 C1219 1.363 . S
C1220 C1226 1.428 . S
H1221 C1217 0.930 . S
H1222 C1219 0.929 . S
S1223 N1224 1.613 . S
S1223 N1225 1.610 . S
N1224 S1223 1.613 . S
N1224 C1227 1.350 . S
N1225 S1223 1.610 . S
N1225 C1226 1.351 . S
C1226 C1220 1.428 . S
C1226 N1225 1.351 . S
C1226 C1227 1.434 . S
C1227 C1218 1.429 . S
C1227 N1224 1.350 . S
C1227 C1226 1.434 . S
C1228 C1229 1.369 . S
C1228 C1230 1.419 . S
C1228 H1232 0.930 . S
C1229 C1228 1.369 . S
C1229 C1238 1.429 . S
C1230 C1228 1.419 . S
C1230 C1231 1.363 . S
C1230 H1233 0.929 . S
C1231 C1230 1.363 . S
C1231 C1237 1.428 . S
H1232 C1228 0.930 . S
H1233 C1230 0.929 . S
S1234 N1235 1.613 . S
S1234 N1236 1.610 . S
N1235 S1234 1.613 . S
N1235 C1238 1.350 . S
N1236 S1234 1.610 . S
N1236 C1237 1.351 . S
C1237 C1231 1.428 . S
C1237 N1236 1.351 . S
C1237 C1238 1.434 . S
C1238 C1229 1.429 . S
C1238 N1235 1.350 . S
C1238 C1237 1.434 . S
C1239 C1240 1.369 . S
C1239 C1241 1.419 . S
C1239 H1243 0.930 . S
C1240 C1239 1.369 . S
C1240 C1249 1.429 . S
C1241 C1239 1.419 . S
C1241 C1242 1.363 . S
C1241 H1244 0.929 . S
C1242 C1241 1.363 . S
C1242 C1248 1.428 . S
H1243 C1239 0.930 . S
H1244 C1241 0.929 . S
S1245 N1246 1.613 . S
S1245 N1247 1.610 . S
N1246 S1245 1.613 . S
N1246 C1249 1.350 . S
N1247 S1245 1.610 . S
N1247 C1248 1.351 . S
C1248 C1242 1.428 . S
C1248 N1247 1.351 . S
C1248 C1249 1.434 . S
C1249 C1240 1.429 . S
C1249 N1246 1.350 . S
C1249 C1248 1.434 . S
C1250 C1251 1.369 . S
C1250 C1252 1.419 . S
C1250 H1254 0.930 . S
C1251 C1250 1.369 . S
C1251 C1260 1.429 . S
C1252 C1250 1.419 . S
C1252 C1253 1.363 . S
C1252 H1255 0.929 . S
C1253 C1252 1.363 . S
C1253 C1259 1.428 . S
H1254 C1250 0.930 . S
H1255 C1252 0.929 . S
S1256 N1257 1.613 . S
S1256 N1258 1.610 . S
N1257 S1256 1.613 . S
N1257 C1260 1.350 . S
N1258 S1256 1.610 . S
N1258 C1259 1.351 . S
C1259 C1253 1.428 . S
C1259 N1258 1.351 . S
C1259 C1260 1.434 . S
C1260 C1251 1.429 . S
C1260 N1257 1.350 . S
C1260 C1259 1.434 . S
C1261 C1262 1.369 . S
C1261 C1263 1.419 . S
C1261 H1265 0.930 . S
C1262 C1261 1.369 . S
C1262 C1271 1.429 . S
C1263 C1261 1.419 . S
C1263 C1264 1.363 . S
C1263 H1266 0.929 . S
C1264 C1263 1.363 . S
C1264 C1270 1.428 . S
H1265 C1261 0.930 . S
H1266 C1263 0.929 . S
S1267 N1268 1.613 . S
S1267 N1269 1.610 . S
N1268 S1267 1.613 . S
N1268 C1271 1.350 . S
N1269 S1267 1.610 . S
N1269 C1270 1.351 . S
C1270 C1264 1.428 . S
C1270 N1269 1.351 . S
C1270 C1271 1.434 . S
C1271 C1262 1.429 . S
C1271 N1268 1.350 . S
C1271 C1270 1.434 . S
C1272 C1273 1.369 1_556 S
C1272 C1274 1.419 . S
C1272 H1276 0.930 1_556 S
C1273 C1272 1.369 1_554 S
C1273 C1282 1.429 1_554 S
C1274 C1272 1.419 . S
C1274 C1275 1.363 . S
C1274 H1277 0.929 . S
C1275 C1274 1.363 . S
C1275 C1281 1.428 . S
H1276 C1272 0.930 1_554 S
H1277 C1274 0.929 . S
S1278 N1279 1.613 1_556 S
S1278 N1280 1.610 . S
N1279 S1278 1.613 1_554 S
N1279 C1282 1.350 1_554 S
N1280 S1278 1.610 . S
N1280 C1281 1.351 . S
C1281 C1275 1.428 . S
C1281 N1280 1.351 . S
C1281 C1282 1.434 . S
C1282 C1273 1.429 1_556 S
C1282 N1279 1.350 1_556 S
C1282 C1281 1.434 . S
C1283 C1284 1.369 . S
C1283 C1285 1.419 . S
C1283 H1287 0.930 . S
C1284 C1283 1.369 . S
C1284 C1293 1.429 . S
C1285 C1283 1.419 . S
C1285 C1286 1.363 1_556 S
C1285 H1288 0.929 . S
C1286 C1285 1.363 1_554 S
C1286 C1292 1.427 1_554 S
H1287 C1283 0.930 . S
H1288 C1285 0.929 . S
S1289 N1290 1.613 . S
S1289 N1291 1.610 1_556 S
N1290 S1289 1.613 . S
N1290 C1293 1.350 . S
N1291 S1289 1.610 1_554 S
N1291 C1292 1.349 1_554 S
C1292 C1286 1.427 1_556 S
C1292 N1291 1.349 1_556 S
C1292 C1293 1.438 . S
C1293 C1284 1.429 . S
C1293 N1290 1.350 . S
C1293 C1292 1.438 . S
C1294 C1295 1.369 . S
C1294 C1296 1.419 . S
C1294 H1298 0.930 . S
C1295 C1294 1.369 . S
C1295 C1304 1.429 . S
C1296 C1294 1.419 . S
C1296 C1297 1.363 1_556 S
C1296 H1299 0.929 1_556 S
C1297 C1296 1.363 1_554 S
C1297 C1303 1.428 1_554 S
H1298 C1294 0.930 . S
H1299 C1296 0.929 1_554 S
S1300 N1301 1.613 . S
S1300 N1302 1.610 1_556 S
N1301 S1300 1.613 . S
N1301 C1304 1.350 . S
N1302 S1300 1.610 1_554 S
N1302 C1303 1.351 1_554 S
C1303 C1297 1.428 1_556 S
C1303 N1302 1.351 1_556 S
C1303 C1304 1.434 . S
C1304 C1295 1.429 . S
C1304 N1301 1.350 . S
C1304 C1303 1.434 . S
C613 C443 2.155 1_554 S
C615 C3 2.043 . S
C624 C477 2.153 1_554 S
C626 C37 2.044 . S
C635 C71 2.045 . S
C637 C409 2.154 1_554 S
C646 C103 2.043 . S
C648 C341 2.154 1_556 S
C657 C137 2.042 . S
C659 C377 2.152 1_556 S
C668 C171 2.044 . S
C670 C309 2.153 1_556 S
C679 C35 2.151 . S
C681 C207 2.039 . S
C690 C241 2.046 . S
C692 C69 2.154 . S
C701 C1 2.155 . S
C703 C275 2.046 . S
C712 C545 2.154 . S
C714 C307 2.041 . S
C723 C343 2.038 . S
C725 C581 2.153 . S
C734 C375 2.044 . S
C736 C511 2.153 . S
C745 C239 2.155 . S
C747 C411 2.042 . S
C756 C445 2.041 . S
C758 C273 2.152 . S
C767 C479 2.039 . S
C769 C205 2.154 . S
C778 C139 2.152 . S
C780 C513 2.043 . S
C789 C173 2.154 . S
C791 C547 2.053 . S
C800 C579 2.047 . S
C802 C105 2.153 . S
C811 C380 1.497 . S
C813 C17 1.450 . S
C822 C312 1.497 . S
C824 C51 1.449 . S
C833 C368 1.500 . S
C835 C85 1.455 . S
C844 C119 1.454 . S
C846 C504 1.498 . S
C855 C153 1.452 . S
C857 C436 1.501 . S
C866 C187 1.451 . S
C868 C470 1.501 . S
C877 C221 1.446 . S
C879 C584 1.499 . S
C888 C255 1.456 . S
C890 C538 1.499 . S
C899 C289 1.456 . S
C901 C572 1.500 . S
C910 C96 1.498 . S
C912 C323 1.454 . S
C921 C28 1.501 . S
C923 C357 1.454 . S
C932 C391 1.454 . S
C934 C62 1.501 . S
C943 C425 1.446 . S
C945 C176 1.499 . S
C954 C459 1.447 . S
C956 C108 1.500 . S
C965 C493 1.449 . S
C967 C142 1.501 . S
C976 C527 1.454 . S
C978 C300 1.501 . S
C987 C232 1.498 . S
C989 C561 1.455 . S
C998 C595 1.446 . S
C1000 C266 1.499 . S
C1009 C6 0.660 . S
C1011 C516 0.654 . S
C1020 C550 0.652 . S
C1022 C40 0.660 . S
C1031 C74 0.654 . S
C1033 C606 0.659 . S
C1042 C210 0.661 . S
C1044 C130 0.654 . S
C1053 C244 0.655 . S
C1055 C164 0.658 . S
C1064 C278 0.660 . S
C1066 C198 0.654 . S
C1075 C414 0.657 . S
C1077 C334 0.656 . S
C1086 C346 0.661 . S
C1088 C448 0.654 . S
C1097 C402 0.653 . S
C1099 C482 0.659 . S
C1108 C15 1.463 . S
C1110 C22 1.465 . S
C1119 C49 1.463 . S
C1121 C56 1.466 . S
C1130 C83 1.464 . S
C1132 C90 1.464 . S
C1141 C117 1.464 . S
C1143 C124 1.465 . S
C1152 C151 1.456 . S
C1154 C158 1.472 . S
C1163 C192 1.469 . S
C1165 C185 1.460 . S
C1174 C226 1.467 . S
C1176 C219 1.463 . S
C1185 C260 1.468 . S
C1187 C253 1.463 . S
C1196 C287 1.468 . S
C1198 C294 1.460 . S
C1207 C321 1.462 . S
C1209 C328 1.467 . S
C1218 C362 1.467 . S
C1220 C355 1.463 . S
C1229 C396 1.462 . S
C1231 C389 1.465 . S
C1240 C423 1.463 . S
C1242 C430 1.464 . S
C1251 C457 1.468 . S
C1253 C464 1.462 . S
C1262 C498 1.462 . S
C1264 C491 1.467 . S
C1273 C532 1.459 . S
C1275 C525 1.470 . S
C1284 C559 1.471 . S
C1286 C566 1.459 . S
C1295 C600 1.465 . S
C1297 C593 1.463 . S
