# Generated by pormake.
# Topology vmd, (6)-cn, num edge types: 1
# Building blocks:
#     Node 0, Type 0, BuildingBlock: IZENUY_clean_sbu_0, # of connection points: 6
#     Node 1, Type 0, BuildingBlock: IZENUY_clean_sbu_0, # of connection points: 6
#     Node 2, Type 0, BuildingBlock: IZENUY_clean_sbu_0, # of connection points: 6
#     Node 3, Type 0, BuildingBlock: IZENUY_clean_sbu_0, # of connection points: 6
#     Node 4, Type 0, BuildingBlock: IZENUY_clean_sbu_0, # of connection points: 6
#     Node 5, Type 0, BuildingBlock: IZENUY_clean_sbu_0, # of connection points: 6
#     Node 6, Type 0, BuildingBlock: IZENUY_clean_sbu_0, # of connection points: 6
#     Node 7, Type 0, BuildingBlock: IZENUY_clean_sbu_0, # of connection points: 6
#     Edge 8, Type (0, 0), BuildingBlock: XUDNAN_clean_linker_2, # of connection points: 2
#     Edge 9, Type (0, 0), BuildingBlock: XUDNAN_clean_linker_2, # of connection points: 2
#     Edge 10, Type (0, 0), BuildingBlock: XUDNAN_clean_linker_2, # of connection points: 2
#     Edge 11, Type (0, 0), BuildingBlock: XUDNAN_clean_linker_2, # of connection points: 2
#     Edge 12, Type (0, 0), BuildingBlock: XUDNAN_clean_linker_2, # of connection points: 2
#     Edge 13, Type (0, 0), BuildingBlock: XUDNAN_clean_linker_2, # of connection points: 2
#     Edge 14, Type (0, 0), BuildingBlock: XUDNAN_clean_linker_2, # of connection points: 2
#     Edge 15, Type (0, 0), BuildingBlock: XUDNAN_clean_linker_2, # of connection points: 2
#     Edge 16, Type (0, 0), BuildingBlock: XUDNAN_clean_linker_2, # of connection points: 2
#     Edge 17, Type (0, 0), BuildingBlock: XUDNAN_clean_linker_2, # of connection points: 2
#     Edge 18, Type (0, 0), BuildingBlock: XUDNAN_clean_linker_2, # of connection points: 2
#     Edge 19, Type (0, 0), BuildingBlock: XUDNAN_clean_linker_2, # of connection points: 2
#     Edge 20, Type (0, 0), BuildingBlock: XUDNAN_clean_linker_2, # of connection points: 2
#     Edge 21, Type (0, 0), BuildingBlock: XUDNAN_clean_linker_2, # of connection points: 2
#     Edge 22, Type (0, 0), BuildingBlock: XUDNAN_clean_linker_2, # of connection points: 2
#     Edge 23, Type (0, 0), BuildingBlock: XUDNAN_clean_linker_2, # of connection points: 2
#     Edge 24, Type (0, 0), BuildingBlock: XUDNAN_clean_linker_2, # of connection points: 2
#     Edge 25, Type (0, 0), BuildingBlock: XUDNAN_clean_linker_2, # of connection points: 2
#     Edge 26, Type (0, 0), BuildingBlock: XUDNAN_clean_linker_2, # of connection points: 2
#     Edge 27, Type (0, 0), BuildingBlock: XUDNAN_clean_linker_2, # of connection points: 2
#     Edge 28, Type (0, 0), BuildingBlock: XUDNAN_clean_linker_2, # of connection points: 2
#     Edge 29, Type (0, 0), BuildingBlock: XUDNAN_clean_linker_2, # of connection points: 2
#     Edge 30, Type (0, 0), BuildingBlock: XUDNAN_clean_linker_2, # of connection points: 2
#     Edge 31, Type (0, 0), BuildingBlock: XUDNAN_clean_linker_2, # of connection points: 2
# Relax obj value: 0.251
# Max RMSD: 0.249
# Mean RMSD: 0.249
data_MOF--net-vmd--node1-IZENUY_clean_sbu_0--edge1-XUDNAN_clean_linker_2
_symmetry_space_group_name_H-M    P1
_symmetry_Int_Tables_number       1
_symmetry_cell_setting            triclinic
loop_
_symmetry_equiv_pos_as_xyz
'x, y, z'
_cell_length_a     46.837468
_cell_length_b     26.382076
_cell_length_c     28.574581
_cell_angle_alpha  89.595211
_cell_angle_beta   97.651362
_cell_angle_gamma 89.98848
loop_
_atom_site_label
_atom_site_type_symbol
_atom_site_fract_x
_atom_site_fract_y
_atom_site_fract_z
_atom_type_partial_charge
Fe0 Fe 0.17176 0.46275 0.2718 0.0
Fe1 Fe 0.17598 0.36607 0.33131 0.0
O2 O 0.18911 0.4049 0.28849 0.0
Fe3 Fe 0.21937 0.38574 0.26222 0.0
O4 O 0.23959 0.44138 0.28314 0.0
O5 O 0.20487 0.49534 0.25901 0.0
O6 O 0.17967 0.48651 0.33072 0.0
C7 C 0.17209 0.46511 0.3665 0.0
C8 C 0.18143 0.42835 0.18623 0.0
O9 O 0.16339 0.4195 0.36467 0.0
C10 C 0.19334 0.29494 0.26555 0.0
O11 O 0.13542 0.44085 0.28152 0.0
O12 O 0.14156 0.35936 0.29522 0.0
O13 O 0.20682 0.41589 0.20415 0.0
O14 O 0.16309 0.44157 0.21214 0.0
C15 C 0.23281 0.35367 0.35894 0.0
O16 O 0.18688 0.30549 0.30613 0.0
O17 O 0.20099 0.32943 0.23935 0.0
C18 C 0.12529 0.39622 0.28204 0.0
O19 O 0.2096 0.37107 0.36968 0.0
O20 O 0.23683 0.35127 0.31576 0.0
C21 C 0.23131 0.48598 0.27258 0.0
Fe22 Fe 0.86655 0.46798 0.22876 0.0
Fe23 Fe 0.86498 0.3718 0.17075 0.0
O24 O 0.84933 0.41088 0.21007 0.0
Fe25 Fe 0.81668 0.39323 0.23055 0.0
O26 O 0.79878 0.44991 0.20639 0.0
O27 O 0.83284 0.50215 0.23593 0.0
O28 O 0.86216 0.49227 0.16942 0.0
C29 C 0.87096 0.47034 0.13511 0.0
C30 C 0.85038 0.43781 0.31127 0.0
O31 O 0.88025 0.42503 0.1395 0.0
C32 C 0.84147 0.3009 0.23157 0.0
O33 O 0.90351 0.44484 0.22494 0.0
O34 O 0.89723 0.36353 0.21219 0.0
O35 O 0.82619 0.42334 0.28968 0.0
O36 O 0.8713 0.44559 0.28877 0.0
C37 C 0.80875 0.36658 0.13322 0.0
O38 O 0.85145 0.31173 0.19353 0.0
O39 O 0.8323 0.33528 0.25598 0.0
C40 C 0.91332 0.39988 0.22681 0.0
O41 O 0.834 0.37855 0.1277 0.0
O42 O 0.80156 0.36108 0.17444 0.0
C43 C 0.80687 0.49387 0.2186 0.0
Fe44 Fe 0.81652 0.62764 0.7215 0.0
Fe45 Fe 0.86977 0.66358 0.67856 0.0
O46 O 0.8518 0.61701 0.70841 0.0
Fe47 Fe 0.86949 0.55853 0.72402 0.0
O48 O 0.8365 0.52054 0.72335 0.0
O49 O 0.80269 0.57114 0.69026 0.0
O50 O 0.80429 0.66329 0.66595 0.0
C51 C 0.81585 0.66677 0.6282 0.0
C52 C 0.84718 0.58133 0.80419 0.0
O53 O 0.84252 0.66239 0.62862 0.0
C54 C 0.91553 0.62969 0.73761 0.0
O55 O 0.82701 0.68444 0.75396 0.0
O56 O 0.85301 0.71903 0.70388 0.0
O57 O 0.86965 0.57126 0.78588 0.0
O58 O 0.82364 0.59442 0.77923 0.0
C59 C 0.87954 0.57268 0.63341 0.0
O60 O 0.89893 0.66686 0.72697 0.0
O61 O 0.90642 0.58494 0.7289 0.0
C62 C 0.83896 0.7226 0.73872 0.0
O63 O 0.88862 0.61641 0.64651 0.0
O64 O 0.86909 0.54364 0.66204 0.0
C65 C 0.81143 0.52722 0.70184 0.0
Fe66 Fe 0.17373 0.5571 0.77391 0.0
Fe67 Fe 0.22487 0.62809 0.76899 0.0
O68 O 0.19185 0.6146 0.78958 0.0
Fe69 Fe 0.17702 0.658 0.82647 0.0
O70 O 0.16054 0.60852 0.86012 0.0
O71 O 0.17757 0.53733 0.83505 0.0
O72 O 0.2067 0.52035 0.76837 0.0
C73 C 0.23247 0.52739 0.787 0.0
C74 C 0.12783 0.62857 0.77302 0.0
O75 O 0.24158 0.57144 0.7969 0.0
C76 C 0.20123 0.72222 0.76092 0.0
O77 O 0.16949 0.57406 0.7122 0.0
O78 O 0.21493 0.59635 0.71213 0.0
O79 O 0.14472 0.66499 0.78446 0.0
O80 O 0.13716 0.58323 0.7762 0.0
C81 C 0.23319 0.6643 0.86344 0.0
O82 O 0.21048 0.68528 0.73973 0.0
O83 O 0.19156 0.71552 0.8 0.0
C84 C 0.19031 0.58544 0.69039 0.0
O85 O 0.24009 0.6632 0.82201 0.0
O86 O 0.2081 0.65302 0.87077 0.0
C87 C 0.16818 0.56266 0.86689 0.0
Fe88 Fe 0.67085 0.96651 0.26487 0.0
Fe89 Fe 0.67606 0.87005 0.32468 0.0
O90 O 0.6886 0.90887 0.28132 0.0
Fe91 Fe 0.71874 0.89013 0.25451 0.0
O92 O 0.7386 0.94617 0.27473 0.0
O93 O 0.70361 0.99968 0.25109 0.0
O94 O 0.67924 0.99053 0.32371 0.0
C95 C 0.67226 0.96899 0.35988 0.0
C96 C 0.67995 0.93167 0.17913 0.0
O97 O 0.6635 0.92341 0.35818 0.0
C98 C 0.69362 0.79868 0.25922 0.0
O99 O 0.63478 0.94402 0.27564 0.0
O100 O 0.64152 0.86266 0.28933 0.0
O101 O 0.70547 0.91956 0.1966 0.0
O102 O 0.66178 0.94506 0.20532 0.0
C103 C 0.73312 0.85913 0.35109 0.0
O104 O 0.6871 0.80956 0.29968 0.0
O105 O 0.70084 0.83303 0.23246 0.0
C106 C 0.62491 0.89921 0.27677 0.0
O107 O 0.70982 0.87568 0.36225 0.0
O108 O 0.73692 0.85678 0.30786 0.0
C109 C 0.73013 0.9906 0.2642 0.0
Fe110 Fe 0.36576 0.96642 0.23167 0.0
Fe111 Fe 0.36679 0.86856 0.17644 0.0
O112 O 0.34932 0.9084 0.213 0.0
Fe113 Fe 0.31579 0.8909 0.2302 0.0
O114 O 0.29849 0.94796 0.20556 0.0
O115 O 0.33186 1.0003 0.23675 0.0
O116 O 0.36265 0.989 0.17106 0.0
C117 C 0.37365 0.96586 0.13942 0.0
C118 C 0.34834 0.93107 0.31287 0.0
O119 O 0.38344 0.92125 0.14676 0.0
C120 C 0.34041 0.79786 0.23367 0.0
O121 O 0.40312 0.94344 0.23104 0.0
O122 O 0.39747 0.86151 0.2214 0.0
O123 O 0.32417 0.91892 0.28981 0.0
O124 O 0.36909 0.94604 0.29243 0.0
C125 C 0.31152 0.86426 0.13326 0.0
O126 O 0.35241 0.80843 0.1976 0.0
O127 O 0.33009 0.83239 0.25634 0.0
C128 C 0.41313 0.89862 0.23556 0.0
O129 O 0.3374 0.87438 0.13027 0.0
O130 O 0.30241 0.85997 0.17312 0.0
C131 C 0.30615 0.9918 0.21862 0.0
Fe132 Fe 0.31908 0.12965 0.735 0.0
Fe133 Fe 0.36463 0.15732 0.67133 0.0
O134 O 0.35133 0.11539 0.71171 0.0
Fe135 Fe 0.37039 0.05888 0.72875 0.0
O136 O 0.33809 0.02191 0.73853 0.0
O137 O 0.30208 0.07194 0.71135 0.0
O138 O 0.30148 0.16235 0.68024 0.0
C139 C 0.30751 0.15976 0.63813 0.0
C140 C 0.35667 0.08958 0.81348 0.0
O141 O 0.33264 0.15032 0.63022 0.0
C142 C 0.4154 0.13028 0.72257 0.0
O143 O 0.33386 0.18812 0.76022 0.0
O144 O 0.35073 0.21566 0.69661 0.0
O145 O 0.37637 0.07925 0.78907 0.0
O146 O 0.33124 0.09978 0.79372 0.0
C147 C 0.37274 0.06005 0.63437 0.0
O148 O 0.39818 0.16616 0.71007 0.0
O149 O 0.40632 0.08493 0.72217 0.0
C150 C 0.34249 0.22392 0.73647 0.0
O151 O 0.3797 0.10656 0.63771 0.0
O152 O 0.36534 0.03593 0.66895 0.0
C153 C 0.31194 0.02829 0.72137 0.0
Fe154 Fe 0.676 0.15999 0.82057 0.0
Fe155 Fe 0.67448 0.05927 0.76788 0.0
O156 O 0.69196 0.11712 0.78443 0.0
Fe157 Fe 0.72532 0.13186 0.76535 0.0
O158 O 0.73927 0.16709 0.81934 0.0
O159 O 0.70643 0.15545 0.86642 0.0
O160 O 0.65899 0.11018 0.85297 0.0
C161 C 0.66672 0.06444 0.85994 0.0
C162 C 0.70033 0.22504 0.75626 0.0
O163 O 0.67709 0.03955 0.82884 0.0
C164 C 0.69266 0.08764 0.68536 0.0
O165 O 0.64439 0.1666 0.77698 0.0
O166 O 0.63753 0.08473 0.76777 0.0
O167 O 0.7107 0.18883 0.73563 0.0
O168 O 0.6907 0.21782 0.79524 0.0
C169 C 0.73347 0.03111 0.78412 0.0
O170 O 0.67147 0.07587 0.70616 0.0
O171 O 0.71674 0.10011 0.70812 0.0
C172 C 0.62799 0.12993 0.76407 0.0
O173 O 0.70793 0.02318 0.76483 0.0
O174 O 0.74235 0.07548 0.79335 0.0
C175 C 0.73164 0.16765 0.86041 0.0
H176 H 0.27886 0.25066 0.62166 0.0
H177 H 0.29427 0.10606 0.55902 0.0
H178 H 0.27917 0.14205 0.47943 0.0
H179 H 0.21417 0.28612 0.53143 0.0
H180 H 0.22443 0.35197 0.5338 0.0
H181 H 0.23239 0.3122 0.58537 0.0
H182 H 0.28688 0.33667 0.58929 0.0
H183 H 0.27792 0.37633 0.53791 0.0
H184 H 0.30481 0.32731 0.53817 0.0
H185 H 0.2713 0.19683 0.40711 0.0
H186 H 0.25712 0.26169 0.34564 0.0
H187 H 0.24338 0.36979 0.45413 0.0
C188 C 0.27747 0.22599 0.59136 0.0
C189 C 0.28748 0.17546 0.5963 0.0
C190 C 0.28642 0.1447 0.55571 0.0
C191 C 0.27822 0.16489 0.51046 0.0
C192 C 0.27052 0.21577 0.50639 0.0
C193 C 0.26883 0.24548 0.54566 0.0
C194 C 0.26035 0.2994 0.53091 0.0
C195 C 0.23111 0.31323 0.5463 0.0
C196 C 0.28389 0.33721 0.55019 0.0
C197 C 0.25827 0.2954 0.47763 0.0
C198 C 0.26472 0.24701 0.46427 0.0
C199 C 0.26563 0.23465 0.41708 0.0
C200 C 0.25805 0.272 0.38239 0.0
C201 C 0.24926 0.3208 0.39506 0.0
C202 C 0.25018 0.33286 0.44344 0.0
H203 H 0.73045 0.1613 0.9567 0.0
H204 H 0.77062 0.24148 0.84958 0.0
H205 H 0.78751 0.30738 0.90746 0.0
H206 H 0.70881 0.26491 0.02093 0.0
H207 H 0.71959 0.2385 0.07896 0.0
H208 H 0.7096 0.19713 0.02957 0.0
H209 H 0.75866 0.15084 0.04598 0.0
H210 H 0.76844 0.19101 0.09627 0.0
H211 H 0.7915 0.1872 0.05072 0.0
H212 H 0.79383 0.36937 0.97177 0.0
H213 H 0.80737 0.41051 0.04819 0.0
H214 H 0.77123 0.28463 0.11948 0.0
C215 C 0.74328 0.19228 0.94577 0.0
C216 C 0.74837 0.19748 0.89814 0.0
C217 C 0.76582 0.23765 0.88542 0.0
C218 C 0.77529 0.27539 0.91792 0.0
C219 C 0.76825 0.27105 0.96358 0.0
C220 C 0.75412 0.22925 0.97845 0.0
C221 C 0.75218 0.23193 0.03112 0.0
C222 C 0.72066 0.23319 0.04068 0.0
C223 C 0.76869 0.18763 0.05759 0.0
C224 C 0.76701 0.28233 0.04308 0.0
C225 C 0.77506 0.30471 0.00291 0.0
C226 C 0.78825 0.35184 0.00369 0.0
C227 C 0.79553 0.37513 0.04726 0.0
C228 C 0.79058 0.35052 0.08974 0.0
C229 C 0.77494 0.30454 0.08757 0.0
H230 H 0.73248 0.8614 0.44648 0.0
H231 H 0.77292 0.78605 0.33768 0.0
H232 H 0.79419 0.72302 0.39666 0.0
H233 H 0.78976 0.84254 0.544 0.0
H234 H 0.76414 0.83233 0.58501 0.0
H235 H 0.75468 0.87206 0.53397 0.0
H236 H 0.70942 0.81552 0.51326 0.0
H237 H 0.72047 0.7745 0.56306 0.0
H238 H 0.71387 0.74852 0.50446 0.0
H239 H 0.80861 0.66609 0.46595 0.0
H240 H 0.82332 0.62766 0.54416 0.0
H241 H 0.77377 0.74022 0.60866 0.0
C242 C 0.74629 0.83225 0.43514 0.0
C243 C 0.75113 0.82873 0.38739 0.0
C244 C 0.76919 0.78985 0.37406 0.0
C245 C 0.78099 0.75349 0.40719 0.0
C246 C 0.77453 0.75671 0.45337 0.0
C247 C 0.75809 0.79564 0.46758 0.0
C248 C 0.75443 0.79062 0.51933 0.0
C249 C 0.76655 0.83721 0.54717 0.0
C250 C 0.72266 0.78176 0.52534 0.0
C251 C 0.77234 0.7436 0.53267 0.0
C252 C 0.78304 0.72401 0.49363 0.0
C253 C 0.80046 0.68119 0.49672 0.0
C254 C 0.80855 0.6595 0.54126 0.0
C255 C 0.79959 0.68099 0.58227 0.0
C256 C 0.78039 0.72247 0.57777 0.0
H257 H 0.272 0.78623 0.11892 0.0
H258 H 0.31477 0.9042 0.04763 0.0
H259 H 0.30184 0.86136 0.97183 0.0
H260 H 0.29162 0.68393 0.05593 0.0
H261 H 0.25771 0.65071 0.05001 0.0
H262 H 0.26735 0.6924 0.09922 0.0
H263 H 0.22049 0.74418 0.07707 0.0
H264 H 0.21018 0.70152 0.0288 0.0
H265 H 0.21185 0.76876 0.01782 0.0
H266 H 0.2944 0.79794 0.90908 0.0
H267 H 0.27391 0.73495 0.85084 0.0
H268 H 0.23164 0.66043 0.95909 0.0
C269 C 0.27741 0.80408 0.087 0.0
C270 C 0.29456 0.84821 0.08896 0.0
C271 C 0.3017 0.87025 0.04666 0.0
C272 C 0.2948 0.84592 0.00357 0.0
C273 C 0.28008 0.80028 0.00326 0.0
C274 C 0.27009 0.7807 0.04309 0.0
C275 C 0.254 0.73144 0.03184 0.0
C276 C 0.26855 0.68701 0.061 0.0
C277 C 0.22224 0.73682 0.0393 0.0
C278 C 0.2572 0.72634 0.97991 0.0
C279 C 0.27308 0.76577 0.96481 0.0
C280 C 0.28071 0.76802 0.91945 0.0
C281 C 0.26951 0.73144 0.88699 0.0
C282 C 0.25088 0.69331 0.90032 0.0
C283 C 0.24557 0.68962 0.94787 0.0
H284 H 0.31352 0.09457 0.22546 0.0
H285 H 0.24819 0.9772 0.21765 0.0
H286 H 0.21141 0.04155 0.22866 0.0
H287 H 0.287 0.16931 0.31373 0.0
H288 H 0.29541 0.22893 0.28764 0.0
H289 H 0.31637 0.1734 0.279 0.0
H290 H 0.30521 0.18562 0.18811 0.0
H291 H 0.28425 0.24121 0.19667 0.0
H292 H 0.26825 0.18991 0.16098 0.0
H293 H 0.1824 0.11917 0.2477 0.0
H294 H 0.16317 0.20481 0.26273 0.0
H295 H 0.24681 0.26988 0.25064 0.0
C296 C 0.29144 0.08246 0.22567 0.0
C297 C 0.28376 0.03094 0.22074 0.0
C298 C 0.25458 0.0166 0.22105 0.0
C299 C 0.23353 0.0528 0.22758 0.0
C300 C 0.24192 0.10327 0.23304 0.0
C301 C 0.27011 0.11814 0.23133 0.0
C302 C 0.27354 0.17472 0.23725 0.0
C303 C 0.29431 0.1873 0.28206 0.0
C304 C 0.28338 0.1993 0.19312 0.0
C305 C 0.24295 0.18935 0.24251 0.0
C306 C 0.225 0.14773 0.24092 0.0
C307 C 0.19614 0.15218 0.24814 0.0
C308 C 0.18539 0.20065 0.2567 0.0
C309 C 0.2034 0.24357 0.25673 0.0
C310 C 0.23242 0.23762 0.24956 0.0
H311 H 0.72215 0.0938 0.26305 0.0
H312 H 0.78754 0.97809 0.25813 0.0
H313 H 0.82374 0.04443 0.25004 0.0
H314 H 0.74726 0.17925 0.17904 0.0
H315 H 0.7393 0.23549 0.21032 0.0
H316 H 0.71845 0.17878 0.21507 0.0
H317 H 0.73073 0.18073 0.3063 0.0
H318 H 0.75158 0.2375 0.30185 0.0
H319 H 0.76791 0.18267 0.33253 0.0
H320 H 0.85235 0.1243 0.2372 0.0
H321 H 0.87139 0.21141 0.2283 0.0
H322 H 0.78825 0.27346 0.24834 0.0
C323 C 0.74408 0.08243 0.26031 0.0
C324 C 0.75195 0.03075 0.26109 0.0
C325 C 0.78097 0.01746 0.25779 0.0
C326 C 0.80171 0.05487 0.25299 0.0
C327 C 0.79322 0.10548 0.25216 0.0
C328 C 0.76516 0.11928 0.25625 0.0
C329 C 0.7617 0.17629 0.25533 0.0
C330 C 0.74042 0.19344 0.21239 0.0
C331 C 0.75244 0.19541 0.30177 0.0
C332 C 0.79217 0.19236 0.25033 0.0
C333 C 0.81001 0.1511 0.24773 0.0
C334 C 0.8387 0.15693 0.24005 0.0
C335 C 0.84936 0.2063 0.23507 0.0
C336 C 0.83152 0.24883 0.23903 0.0
C337 C 0.80263 0.24153 0.24677 0.0
H338 H 0.82898 0.81352 0.69122 0.0
H339 H 0.83084 0.74282 0.82899 0.0
H340 H 0.80884 0.81922 0.85834 0.0
H341 H 0.84045 0.94899 0.73595 0.0
H342 H 0.81614 0.97367 0.68686 0.0
H343 H 0.83738 0.91798 0.6795 0.0
H344 H 0.79119 0.86961 0.64939 0.0
H345 H 0.76927 0.92399 0.65733 0.0
H346 H 0.76246 0.86457 0.68543 0.0
H347 H 0.78046 0.89755 0.86985 0.0
H348 H 0.74868 0.97325 0.86247 0.0
H349 H 0.76363 0.99282 0.71713 0.0
C350 C 0.82592 0.81514 0.72808 0.0
C351 C 0.83204 0.77252 0.75805 0.0
C352 C 0.82661 0.77523 0.80559 0.0
C353 C 0.81412 0.81852 0.82261 0.0
C354 C 0.80717 0.85909 0.79174 0.0
C355 C 0.81319 0.85816 0.74562 0.0
C356 C 0.80087 0.90471 0.71855 0.0
C357 C 0.82516 0.93833 0.70439 0.0
C358 C 0.77962 0.88981 0.67513 0.0
C359 C 0.78566 0.93027 0.75574 0.0
C360 C 0.79016 0.90398 0.79809 0.0
C361 C 0.77721 0.91893 0.83711 0.0
C362 C 0.75919 0.96176 0.83267 0.0
C363 C 0.7541 0.98868 0.78948 0.0
C364 C 0.7676 0.97296 0.75068 0.0
H365 H 0.29046 0.97834 0.79312 0.0
H366 H 0.28807 0.98228 0.64111 0.0
H367 H 0.2542 0.90961 0.63389 0.0
H368 H 0.28833 0.84551 0.8097 0.0
H369 H 0.26462 0.84882 0.85444 0.0
H370 H 0.28793 0.90119 0.84598 0.0
H371 H 0.24268 0.95924 0.83551 0.0
H372 H 0.2198 0.90548 0.84233 0.0
H373 H 0.2132 0.94496 0.79028 0.0
H374 H 0.22456 0.83211 0.64407 0.0
H375 H 0.20163 0.75464 0.67054 0.0
H376 H 0.22049 0.80346 0.81592 0.0
C377 C 0.28264 0.96376 0.75843 0.0
C378 C 0.2919 0.98512 0.71759 0.0
C379 C 0.28118 0.96593 0.67265 0.0
C380 C 0.26188 0.92497 0.66829 0.0
C381 C 0.25306 0.90453 0.7092 0.0
C382 C 0.26289 0.92353 0.7534 0.0
C383 C 0.25038 0.89413 0.7917 0.0
C384 C 0.27432 0.87102 0.82751 0.0
C385 C 0.23032 0.92798 0.8164 0.0
C386 C 0.23343 0.85362 0.7625 0.0
C387 C 0.23487 0.86095 0.71488 0.0
C388 C 0.22281 0.82651 0.68113 0.0
C389 C 0.20976 0.78268 0.69647 0.0
C390 C 0.20874 0.77356 0.74513 0.0
C391 C 0.22007 0.81027 0.7784 0.0
H392 H 0.81438 0.59698 0.22306 0.0
H393 H 0.74913 0.47979 0.21984 0.0
H394 H 0.71245 0.54463 0.22943 0.0
H395 H 0.7882 0.6761 0.30925 0.0
H396 H 0.79668 0.7341 0.28037 0.0
H397 H 0.8173 0.67768 0.27383 0.0
H398 H 0.80544 0.68683 0.18257 0.0
H399 H 0.78436 0.7427 0.18959 0.0
H400 H 0.76833 0.68992 0.15606 0.0
H401 H 0.68341 0.62255 0.24582 0.0
H402 H 0.6639 0.70848 0.25845 0.0
H403 H 0.74725 0.77363 0.24426 0.0
C404 C 0.79234 0.58503 0.22409 0.0
C405 C 0.78467 0.53337 0.22079 0.0
C406 C 0.75554 0.51924 0.22203 0.0
C407 C 0.73453 0.55575 0.22772 0.0
C408 C 0.74286 0.60634 0.2314 0.0
C409 C 0.77099 0.62104 0.22891 0.0
C410 C 0.77426 0.67789 0.2328 0.0
C411 C 0.79535 0.69226 0.27669 0.0
C412 C 0.78364 0.70066 0.18755 0.0
C413 C 0.74368 0.69278 0.23818 0.0
C414 C 0.72587 0.65106 0.23798 0.0
C415 C 0.69702 0.65562 0.24519 0.0
C416 C 0.68611 0.70428 0.25236 0.0
C417 C 0.70393 0.74728 0.25111 0.0
C418 C 0.73299 0.74127 0.24405 0.0
H419 H 0.2874 0.76921 0.25071 0.0
H420 H 0.37103 0.70867 0.23148 0.0
H421 H 0.35283 0.62134 0.24257 0.0
H422 H 0.26856 0.6808 0.33741 0.0
H423 H 0.23128 0.67746 0.31193 0.0
H424 H 0.25165 0.73438 0.30539 0.0
H425 H 0.23896 0.72956 0.21434 0.0
H426 H 0.2185 0.67271 0.22059 0.0
H427 H 0.24713 0.67263 0.18423 0.0
H428 H 0.32483 0.54076 0.25779 0.0
H429 H 0.28903 0.47397 0.26746 0.0
H430 H 0.22302 0.58894 0.27031 0.0
C431 C 0.30207 0.73762 0.24964 0.0
C432 C 0.33084 0.74549 0.24149 0.0
C433 C 0.34905 0.70324 0.2384 0.0
C434 C 0.33888 0.65371 0.24469 0.0
C435 C 0.3103 0.64736 0.25286 0.0
C436 C 0.2921 0.68829 0.25457 0.0
C437 C 0.26184 0.6717 0.26047 0.0
C438 C 0.25282 0.69231 0.30655 0.0
C439 C 0.24035 0.68759 0.21735 0.0
C440 C 0.26582 0.61484 0.26282 0.0
C441 C 0.29394 0.60144 0.25876 0.0
C442 C 0.30275 0.55093 0.26072 0.0
C443 C 0.28226 0.51326 0.26644 0.0
C444 C 0.25316 0.52619 0.26951 0.0
C445 C 0.24502 0.57777 0.26782 0.0
H446 H 0.31331 0.29723 0.68178 0.0
H447 H 0.35352 0.2648 0.82418 0.0
H448 H 0.33276 0.34361 0.85206 0.0
H449 H 0.31571 0.44183 0.68929 0.0
H450 H 0.28122 0.44452 0.65287 0.0
H451 H 0.30606 0.39373 0.64597 0.0
H452 H 0.26358 0.3303 0.65964 0.0
H453 H 0.241 0.38359 0.66838 0.0
H454 H 0.24786 0.33534 0.7135 0.0
H455 H 0.30447 0.42321 0.86526 0.0
H456 H 0.26926 0.49391 0.86306 0.0
H457 H 0.24326 0.46788 0.71398 0.0
C458 C 0.31869 0.30796 0.7184 0.0
C459 C 0.33569 0.27586 0.75067 0.0
C460 C 0.34113 0.28966 0.79881 0.0
C461 C 0.32934 0.33423 0.81493 0.0
C462 C 0.31175 0.3642 0.78257 0.0
C463 C 0.30644 0.35165 0.73526 0.0
C464 C 0.28416 0.38683 0.70885 0.0
C465 C 0.29754 0.41858 0.67203 0.0
C466 C 0.25758 0.35728 0.68626 0.0
C467 C 0.27698 0.4198 0.74883 0.0
C468 C 0.29372 0.40723 0.79085 0.0
C469 C 0.29126 0.43328 0.83252 0.0
C470 C 0.27123 0.47319 0.83105 0.0
C471 C 0.25342 0.48551 0.78858 0.0
C472 C 0.25637 0.45847 0.74706 0.0
H473 H 0.80464 0.46129 0.77276 0.0
H474 H 0.77019 0.50066 0.62882 0.0
H475 H 0.73461 0.43068 0.62823 0.0
H476 H 0.79782 0.32804 0.76216 0.0
H477 H 0.78786 0.31906 0.82033 0.0
H478 H 0.80992 0.37208 0.80859 0.0
H479 H 0.77318 0.43314 0.83857 0.0
H480 H 0.75079 0.3802 0.85012 0.0
H481 H 0.73598 0.43142 0.81236 0.0
H482 H 0.70639 0.35004 0.64187 0.0
H483 H 0.68584 0.27051 0.67019 0.0
H484 H 0.73413 0.29274 0.80838 0.0
C485 C 0.78961 0.45503 0.74108 0.0
C486 C 0.79031 0.48558 0.70051 0.0
C487 C 0.77002 0.47719 0.66004 0.0
C488 C 0.74976 0.43772 0.65952 0.0
C489 C 0.74962 0.40816 0.70025 0.0
C490 C 0.76877 0.41702 0.7405 0.0
C491 C 0.76434 0.38018 0.7797 0.0
C492 C 0.79159 0.34793 0.79347 0.0
C493 C 0.75553 0.40792 0.82272 0.0
C494 C 0.73977 0.34875 0.75528 0.0
C495 C 0.73183 0.36489 0.70921 0.0
C496 C 0.71184 0.33802 0.67824 0.0
C497 C 0.70015 0.29315 0.69459 0.0
C498 C 0.7078 0.2766 0.74179 0.0
C499 C 0.72731 0.30549 0.77263 0.0
H500 H 0.08159 0.46725 0.26706 0.0
H501 H 0.09756 0.30502 0.27742 0.0
H502 H 0.04535 0.28924 0.26687 0.0
H503 H 0.02011 0.46766 0.33023 0.0
H504 H 1.00076 0.51536 0.29321 0.0
H505 H 0.03957 0.51463 0.30104 0.0
H506 H 0.03928 0.51028 0.21041 0.0
H507 H 1.00048 0.51141 0.20229 0.0
H508 H 0.01933 0.46068 0.17757 0.0
H509 H 0.99189 0.29028 0.25599 0.0
H510 H 0.93985 0.30803 0.24186 0.0
H511 H 0.95767 0.46956 0.23862 0.0
C512 C 0.07411 0.42841 0.26688 0.0
C513 C 0.09378 0.38741 0.27324 0.0
C514 C 0.08302 0.33714 0.27282 0.0
C515 C 0.05336 0.32771 0.2669 0.0
C516 C 0.03463 0.36888 0.26141 0.0
C517 C 0.04447 0.41822 0.26108 0.0
C518 C 0.01953 0.45545 0.25426 0.0
C519 C 0.02003 0.49033 0.29725 0.0
C520 C 0.01967 0.48626 0.2084 0.0
C521 C 0.99421 0.4192 0.25073 0.0
C522 C 1.0035 0.36949 0.25509 0.0
C523 C 0.9843 0.32905 0.25249 0.0
C524 C 0.95476 0.33958 0.24446 0.0
C525 C 0.9446 0.39019 0.23907 0.0
C526 C 0.96469 0.43049 0.24286 0.0
H527 H 0.08327 0.55923 0.76127 0.0
H528 H 0.10077 0.7209 0.76824 0.0
H529 H 0.04877 0.73814 0.76355 0.0
H530 H 1.01754 0.56818 0.67811 0.0
H531 H 0.99995 0.51747 0.70571 0.0
H532 H 0.03861 0.51795 0.70878 0.0
H533 H 0.04319 0.51253 0.80006 0.0
H534 H 1.00453 0.51276 0.79729 0.0
H535 H 0.02575 0.55965 0.83185 0.0
H536 H 0.995 0.73816 0.7607 0.0
H537 H 0.94281 0.72126 0.7525 0.0
H538 H 0.95976 0.55969 0.74664 0.0
C539 C 0.07619 0.5983 0.7613 0.0
C540 C 0.09629 0.63866 0.76522 0.0
C541 C 0.08595 0.68922 0.76531 0.0
C542 C 0.0564 0.69946 0.76284 0.0
C543 C 0.03729 0.65883 0.76012 0.0
C544 C 0.04669 0.60928 0.75878 0.0
C545 C 0.02153 0.57264 0.75534 0.0
C546 C 0.01928 0.54228 0.70924 0.0
C547 C 0.0239 0.53731 0.79872 0.0
C548 C 0.99656 0.60937 0.75493 0.0
C549 C 1.00618 0.65887 0.75805 0.0
C550 C 0.9872 0.69954 0.75808 0.0
C551 C 0.95754 0.68949 0.75358 0.0
C552 C 0.94701 0.63913 0.74886 0.0
C553 C 0.96699 0.59861 0.7504 0.0
H554 H 0.45686 0.96924 0.24211 0.0
H555 H 0.44035 0.80812 0.25569 0.0
H556 H 0.49256 0.79152 0.26748 0.0
H557 H 0.51582 0.95698 0.17713 0.0
H558 H 0.5363 1.00869 0.20553 0.0
H559 H 0.49758 1.00904 0.20102 0.0
H560 H 0.50067 0.01842 0.29177 0.0
H561 H 0.53942 0.01872 0.29651 0.0
H562 H 0.52147 0.97334 0.32991 0.0
H563 H 0.54585 0.79127 0.27323 0.0
H564 H 0.5978 0.80776 0.27824 0.0
H565 H 0.58066 0.96925 0.26139 0.0
C566 C 0.46423 0.93057 0.24838 0.0
C567 C 0.44446 0.88996 0.24797 0.0
C568 C 0.45503 0.83984 0.25575 0.0
C569 C 0.48466 0.82999 0.26244 0.0
C570 C 0.5035 0.87063 0.26138 0.0
C571 C 0.49382 0.91997 0.25502 0.0
C572 C 0.51881 0.95647 0.2544 0.0
C573 C 0.51701 0.98443 0.20668 0.0
C574 C 0.52017 0.99395 0.29561 0.0
C575 C 0.54398 0.91979 0.26109 0.0
C576 C 0.53456 0.8705 0.26494 0.0
C577 C 0.55355 0.82973 0.27065 0.0
C578 C 0.58307 0.83958 0.27334 0.0
C579 C 0.59343 0.88987 0.27045 0.0
C580 C 0.57348 0.93041 0.26376 0.0
H581 H 0.58357 0.06034 0.75654 0.0
H582 H 0.60089 0.22165 0.74827 0.0
H583 H 0.5487 0.2391 0.7379 0.0
H584 H 0.5191 0.0598 0.66953 0.0
H585 H 0.50098 0.01327 0.70144 0.0
H586 H 0.53972 0.01337 0.70633 0.0
H587 H 0.54276 0.01955 0.79732 0.0
H588 H 0.50403 0.02002 0.79267 0.0
H589 H 0.52459 0.07069 0.82274 0.0
H590 H 0.49463 0.23957 0.73119 0.0
H591 H 0.44245 0.22263 0.72435 0.0
H592 H 0.45995 0.06109 0.73735 0.0
C593 C 0.57642 0.0993 0.75188 0.0
C594 C 0.59649 0.1396 0.75316 0.0
C595 C 0.58607 0.19006 0.74743 0.0
C596 C 0.55642 0.20042 0.7416 0.0
C597 C 0.53729 0.15997 0.74152 0.0
C598 C 0.54683 0.11039 0.74615 0.0
C599 C 0.5217 0.07397 0.74553 0.0
C600 C 0.5203 0.03798 0.70318 0.0
C601 C 0.52338 0.04432 0.79235 0.0
C602 C 0.49659 0.11084 0.73991 0.0
C603 C 0.50608 0.16026 0.73775 0.0
C604 C 0.48694 0.20099 0.73266 0.0
C605 C 0.45729 0.19095 0.72892 0.0
C606 C 0.44693 0.14052 0.73025 0.0
C607 C 0.46704 0.10009 0.73632 0.0
H608 H 0.2093 0.51908 0.92993 0.0
H609 H 0.11783 0.55109 0.90297 0.0
H610 H 0.1109 0.50888 0.97841 0.0
H611 H 0.20586 0.39717 0.99196 0.0
H612 H 0.23673 0.4111 0.03463 0.0
H613 H 0.23403 0.43773 0.97593 0.0
H614 H 0.23996 0.52814 0.01087 0.0
H615 H 0.24289 0.50182 0.06958 0.0
H616 H 0.21593 0.54922 0.05107 0.0
H617 H 0.11419 0.46698 0.05662 0.0
H618 H 0.12759 0.43829 0.13853 0.0
H619 H 0.21791 0.43861 0.11833 0.0
C620 C 0.18781 0.51623 0.93982 0.0
C621 C 0.16393 0.53723 0.91096 0.0
C622 C 0.13619 0.53463 0.92494 0.0
C623 C 0.1321 0.51052 0.96735 0.0
C624 C 0.1561 0.49012 0.99531 0.0
C625 C 0.18349 0.49343 0.98258 0.0
C626 C 0.20597 0.47368 0.02151 0.0
C627 C 0.22157 0.42715 0.00501 0.0
C628 C 0.22744 0.51571 0.03931 0.0
C629 C 0.18695 0.45923 0.05838 0.0
C630 C 0.15824 0.46811 0.04197 0.0
C631 C 0.13656 0.45974 0.06988 0.0
C632 C 0.14446 0.4435 0.11641 0.0
C633 C 0.17384 0.43649 0.13491 0.0
C634 C 0.19529 0.44312 0.10504 0.0
H635 H 0.84028 0.40338 0.40029 0.0
H636 H 0.86447 0.53529 0.32287 0.0
H637 H 0.87484 0.58257 0.39674 0.0
H638 H 0.80665 0.47746 0.48986 0.0
H639 H 0.8194 0.43449 0.5374 0.0
H640 H 0.81164 0.41126 0.4779 0.0
H641 H 0.86337 0.3747 0.48412 0.0
H642 H 0.87142 0.39859 0.54331 0.0
H643 H 0.89374 0.41622 0.49909 0.0
H644 H 0.88715 0.61342 0.47706 0.0
H645 H 0.89467 0.63138 0.56196 0.0
H646 H 0.86132 0.48223 0.59091 0.0
C647 C 0.84713 0.44251 0.39912 0.0
C648 C 0.85175 0.46569 0.35603 0.0
C649 C 0.86101 0.51681 0.35564 0.0
C650 C 0.867 0.54402 0.39737 0.0
C651 C 0.86342 0.51985 0.43945 0.0
C652 C 0.85319 0.47073 0.44097 0.0
C653 C 0.85178 0.45441 0.49175 0.0
C654 C 0.82051 0.44378 0.49969 0.0
C655 C 0.87124 0.40824 0.50535 0.0
C656 C 0.86344 0.50159 0.518 0.0
C657 C 0.87006 0.53859 0.48686 0.0
C658 C 0.8818 0.58503 0.50198 0.0
C659 C 0.88623 0.59468 0.5504 0.0
C660 C 0.87868 0.55826 0.58327 0.0
C661 C 0.86744 0.5108 0.56673 0.0
H662 H 0.8703 0.50087 0.8563 0.0
H663 H 0.82529 0.6432 0.86626 0.0
H664 H 0.82894 0.632 0.95305 0.0
H665 H 0.83459 0.43605 0.94533 0.0
H666 H 0.86592 0.39909 0.9674 0.0
H667 H 0.86035 0.4192 0.90649 0.0
H668 H 0.9107 0.4618 0.91725 0.0
H669 H 0.91629 0.44232 0.97833 0.0
H670 H 0.91911 0.50834 0.96291 0.0
H671 H 0.83932 0.60708 0.03802 0.0
H672 H 0.84971 0.56547 0.11557 0.0
H673 H 0.88533 0.43578 0.0502 0.0
C674 C 0.86127 0.5296 0.87694 0.0
C675 C 0.84778 0.57317 0.85517 0.0
C676 C 0.83567 0.60964 0.88269 0.0
C677 C 0.8378 0.60369 0.93183 0.0
C678 C 0.85156 0.56056 0.95241 0.0
C679 C 0.86255 0.52359 0.92581 0.0
C680 C 0.87484 0.47955 0.95643 0.0
C681 C 0.85792 0.43058 0.94312 0.0
C682 C 0.90716 0.47262 0.95355 0.0
C683 C 0.8697 0.49811 0.00463 0.0
C684 C 0.85644 0.54507 0.00141 0.0
C685 C 0.84955 0.5702 0.04099 0.0
C686 C 0.85572 0.54622 0.08497 0.0
C687 C 0.86844 0.49727 0.08913 0.0
C688 C 0.87581 0.47328 0.04833 0.0
H689 H 0.15543 0.43433 0.45082 0.0
H690 H 0.19221 0.56137 0.38186 0.0
H691 H 0.1984 0.60784 0.45677 0.0
H692 H 0.11685 0.51005 0.52942 0.0
H693 H 0.12437 0.46586 0.57791 0.0
H694 H 0.12108 0.44353 0.51798 0.0
H695 H 0.17178 0.4024 0.535 0.0
H696 H 0.17523 0.42471 0.59486 0.0
H697 H 0.20216 0.44101 0.55781 0.0
H698 H 0.20557 0.63673 0.53996 0.0
H699 H 0.20932 0.64908 0.62642 0.0
H700 H 0.16533 0.50629 0.64042 0.0
C701 C 0.16434 0.47223 0.45129 0.0
C702 C 0.17324 0.49422 0.41048 0.0
C703 C 0.18509 0.54376 0.41264 0.0
C704 C 0.18874 0.57052 0.45502 0.0
C705 C 0.1802 0.54745 0.49474 0.0
C706 C 0.16795 0.49971 0.49325 0.0
C707 C 0.16153 0.483 0.54149 0.0
C708 C 0.12902 0.47517 0.54169 0.0
C709 C 0.1787 0.43495 0.55826 0.0
C710 C 0.17235 0.52864 0.57026 0.0
C711 C 0.18326 0.5652 0.54267 0.0
C712 C 0.19659 0.60895 0.56189 0.0
C713 C 0.19873 0.61556 0.61078 0.0
C714 C 0.18716 0.579 0.63928 0.0
C715 C 0.17364 0.53528 0.61885 0.0
H716 H 0.70773 0.02174 0.9233 0.0
H717 H 0.61611 0.05199 0.89522 0.0
H718 H 0.6091 1.00964 0.9706 0.0
H719 H 0.70511 0.90003 0.98547 0.0
H720 H 0.73569 0.91497 0.02838 0.0
H721 H 0.73297 0.94141 0.96961 0.0
H722 H 0.73788 0.03205 0.00428 0.0
H723 H 0.7408 1.00592 0.06305 0.0
H724 H 0.71345 0.05248 0.04408 0.0
H725 H 0.61244 0.96836 0.04927 0.0
H726 H 0.62595 0.94059 0.13154 0.0
H727 H 0.71626 0.94203 0.11139 0.0
C728 C 0.68619 0.01845 0.93291 0.0
C729 C 0.6623 0.03899 0.90383 0.0
C730 C 0.63448 0.03588 0.91743 0.0
C731 C 0.63035 1.01169 0.95978 0.0
C732 C 0.65439 0.99177 0.98801 0.0
C733 C 0.68183 0.99562 0.97557 0.0
C734 C 0.70434 0.97659 0.01471 0.0
C735 C 0.72047 0.9305 0.99856 0.0
C736 C 0.72534 0.0193 0.03259 0.0
C737 C 0.68527 0.96171 0.05133 0.0
C738 C 0.65652 0.96997 0.03474 0.0
C739 C 0.63484 0.96152 0.06265 0.0
C740 C 0.64277 0.94582 0.10935 0.0
C741 C 0.67218 0.93935 0.12788 0.0
C742 C 0.69362 0.94604 0.09804 0.0
H743 H 0.34406 0.08557 0.54867 0.0
H744 H 0.40169 0.97312 0.6207 0.0
H745 H 0.39993 0.92464 0.54628 0.0
H746 H 0.29913 0.99071 0.47844 0.0
H747 H 0.29153 0.03385 0.42912 0.0
H748 H 0.29831 0.05781 0.48839 0.0
H749 H 0.33896 0.11477 0.46185 0.0
H750 H 0.33249 0.08873 0.40337 0.0
H751 H 0.368 0.08516 0.43649 0.0
H752 H 0.39349 0.89123 0.46306 0.0
H753 H 0.38165 0.87382 0.37749 0.0
H754 H 0.32413 1.00311 0.36225 0.0
C755 C 0.35645 0.05095 0.54844 0.0
C756 C 0.37345 0.03325 0.58973 0.0
C757 C 0.38889 0.98731 0.58894 0.0
C758 C 0.38788 0.95956 0.54704 0.0
C759 C 0.37057 0.97763 0.50688 0.0
C760 C 0.35481 0.02189 0.50742 0.0
C761 C 0.33688 0.03179 0.46011 0.0
C762 C 0.30454 0.02835 0.46425 0.0
C763 C 0.34457 0.08315 0.43923 0.0
C764 C 0.3462 0.98774 0.43213 0.0
C765 C 0.36544 0.95662 0.45985 0.0
C766 C 0.37804 0.91474 0.44125 0.0
C767 C 0.37112 0.90494 0.39289 0.0
C768 C 0.35144 0.93634 0.36421 0.0
C769 C 0.33854 0.97777 0.38409 0.0
H770 H 0.33037 0.99657 0.07204 0.0
H771 H 0.42329 0.99074 0.10551 0.0
H772 H 0.42827 0.03076 0.02829 0.0
H773 H 0.3293 0.9602 0.95286 0.0
H774 H 0.29925 0.99955 0.92928 0.0
H775 H 0.30218 0.977 0.98928 0.0
H776 H 0.29986 0.06844 0.01993 0.0
H777 H 0.2963 0.09197 0.96005 0.0
H778 H 0.3247 0.11534 0.0033 0.0
H779 H 0.42333 0.06795 0.94778 0.0
H780 H 0.40965 0.09208 0.86468 0.0
H781 H 0.31943 0.06911 0.87935 0.0
C782 C 0.35169 1.0047 0.06318 0.0
C783 C 0.37654 0.99173 0.09462 0.0
C784 C 0.40414 1.00115 0.08182 0.0
C785 C 0.40709 0.02393 0.03824 0.0
C786 C 0.3822 0.03614 0.00774 0.0
C787 C 0.355 0.0263 0.01924 0.0
C788 C 0.33195 0.03869 0.97809 0.0
C789 C 0.31467 0.99102 0.9614 0.0
C790 C 0.31202 0.08115 0.99113 0.0
C791 C 0.35048 0.05676 0.94155 0.0
C792 C 0.37934 0.05563 0.9599 0.0
C793 C 0.40083 0.06906 0.93302 0.0
C794 C 0.39277 0.08268 0.88575 0.0
C795 C 0.36345 0.08239 0.86533 0.0
C796 C 0.34196 0.0703 0.89402 0.0
H797 H 0.66664 1.0098 0.63447 0.0
H798 H 0.71444 0.1489 0.62206 0.0
H799 H 0.71126 0.13639 0.53567 0.0
H800 H 0.70231 0.94107 0.55189 0.0
H801 H 0.67088 0.90521 0.52882 0.0
H802 H 0.67485 0.92741 0.58876 0.0
H803 H 0.62538 0.97294 0.57197 0.0
H804 H 0.62133 0.95101 0.51188 0.0
H805 H 0.61914 0.0178 0.5238 0.0
H806 H 0.70332 0.10837 0.4519 0.0
H807 H 0.69533 0.06315 0.37631 0.0
H808 H 0.65511 0.93917 0.4442 0.0
C809 C 0.67605 0.03789 0.61331 0.0
C810 C 0.69042 0.08066 0.63425 0.0
C811 C 0.70326 0.11605 0.60616 0.0
C812 C 0.70143 0.10936 0.55727 0.0
C813 C 0.68715 0.06666 0.53759 0.0
C814 C 0.67503 0.03113 0.56475 0.0
C815 C 0.66294 0.9866 0.53544 0.0
C816 C 0.67869 0.93717 0.55223 0.0
C817 C 0.63026 0.98184 0.5358 0.0
C818 C 0.66994 1.00286 0.48742 0.0
C819 C 0.68362 0.04936 0.48943 0.0
C820 C 0.69259 0.07197 0.4498 0.0
C821 C 0.68786 0.04597 0.40701 0.0
C822 C 0.67451 0.99762 0.40433 0.0
C823 C 0.66522 0.97613 0.44507 0.0
loop_
_geom_bond_atom_site_label_1
_geom_bond_atom_site_label_2
_geom_bond_distance
_geom_bond_site_symmetry_2
_ccdc_geom_bond_type
Fe0 O2 1.918 . S
Fe0 O5 1.997 . S
Fe0 O6 2.002 . S
Fe0 O11 1.976 . S
Fe0 O14 1.996 . S
Fe1 O2 1.918 . S
Fe1 O9 1.997 . S
Fe1 O12 1.996 . S
Fe1 O16 1.976 . S
Fe1 O19 2.002 . S
O2 Fe0 1.918 . S
O2 Fe1 1.918 . S
O2 Fe3 1.918 . S
Fe3 O2 1.918 . S
Fe3 O4 2.002 . S
Fe3 O13 1.976 . S
Fe3 O17 1.996 . S
Fe3 O20 1.997 . S
O4 Fe3 2.002 . S
O4 C21 1.295 . S
O5 Fe0 1.997 . S
O5 C21 1.235 . S
O6 Fe0 2.002 . S
O6 C7 1.295 . S
C7 O6 1.295 . S
C7 O9 1.235 . S
C8 O13 1.287 . S
C8 O14 1.255 . S
O9 Fe1 1.997 . S
O9 C7 1.235 . S
C10 O16 1.287 . S
C10 O17 1.255 . S
O11 Fe0 1.976 . S
O11 C18 1.287 . S
O12 Fe1 1.996 . S
O12 C18 1.255 . S
O13 Fe3 1.976 . S
O13 C8 1.287 . S
O14 Fe0 1.996 . S
O14 C8 1.255 . S
C15 O19 1.295 . S
C15 O20 1.235 . S
O16 Fe1 1.976 . S
O16 C10 1.287 . S
O17 Fe3 1.996 . S
O17 C10 1.255 . S
C18 O11 1.287 . S
C18 O12 1.255 . S
O19 Fe1 2.002 . S
O19 C15 1.295 . S
O20 Fe3 1.997 . S
O20 C15 1.235 . S
C21 O4 1.295 . S
C21 O5 1.235 . S
Fe22 O24 1.918 . S
Fe22 O27 1.997 . S
Fe22 O28 2.002 . S
Fe22 O33 1.976 . S
Fe22 O36 1.996 . S
Fe23 O24 1.918 . S
Fe23 O31 1.997 . S
Fe23 O34 1.996 . S
Fe23 O38 1.976 . S
Fe23 O41 2.002 . S
O24 Fe22 1.918 . S
O24 Fe23 1.918 . S
O24 Fe25 1.918 . S
Fe25 O24 1.918 . S
Fe25 O26 2.002 . S
Fe25 O35 1.976 . S
Fe25 O39 1.996 . S
Fe25 O42 1.997 . S
O26 Fe25 2.002 . S
O26 C43 1.295 . S
O27 Fe22 1.997 . S
O27 C43 1.235 . S
O28 Fe22 2.002 . S
O28 C29 1.295 . S
C29 O28 1.295 . S
C29 O31 1.235 . S
C30 O35 1.287 . S
C30 O36 1.255 . S
O31 Fe23 1.997 . S
O31 C29 1.235 . S
C32 O38 1.287 . S
C32 O39 1.255 . S
O33 Fe22 1.976 . S
O33 C40 1.287 . S
O34 Fe23 1.996 . S
O34 C40 1.255 . S
O35 Fe25 1.976 . S
O35 C30 1.287 . S
O36 Fe22 1.996 . S
O36 C30 1.255 . S
C37 O41 1.295 . S
C37 O42 1.235 . S
O38 Fe23 1.976 . S
O38 C32 1.287 . S
O39 Fe25 1.996 . S
O39 C32 1.255 . S
C40 O33 1.287 . S
C40 O34 1.255 . S
O41 Fe23 2.002 . S
O41 C37 1.295 . S
O42 Fe25 1.997 . S
O42 C37 1.235 . S
C43 O26 1.295 . S
C43 O27 1.235 . S
Fe44 O46 1.918 . S
Fe44 O49 1.997 . S
Fe44 O50 2.002 . S
Fe44 O55 1.976 . S
Fe44 O58 1.996 . S
Fe45 O46 1.918 . S
Fe45 O53 1.997 . S
Fe45 O56 1.996 . S
Fe45 O60 1.976 . S
Fe45 O63 2.002 . S
O46 Fe44 1.918 . S
O46 Fe45 1.918 . S
O46 Fe47 1.918 . S
Fe47 O46 1.918 . S
Fe47 O48 2.002 . S
Fe47 O57 1.976 . S
Fe47 O61 1.996 . S
Fe47 O64 1.997 . S
O48 Fe47 2.002 . S
O48 C65 1.295 . S
O49 Fe44 1.997 . S
O49 C65 1.235 . S
O50 Fe44 2.002 . S
O50 C51 1.295 . S
C51 O50 1.295 . S
C51 O53 1.235 . S
C52 O57 1.287 . S
C52 O58 1.255 . S
O53 Fe45 1.997 . S
O53 C51 1.235 . S
C54 O60 1.287 . S
C54 O61 1.255 . S
O55 Fe44 1.976 . S
O55 C62 1.287 . S
O56 Fe45 1.996 . S
O56 C62 1.255 . S
O57 Fe47 1.976 . S
O57 C52 1.287 . S
O58 Fe44 1.996 . S
O58 C52 1.255 . S
C59 O63 1.295 . S
C59 O64 1.235 . S
O60 Fe45 1.976 . S
O60 C54 1.287 . S
O61 Fe47 1.996 . S
O61 C54 1.255 . S
C62 O55 1.287 . S
C62 O56 1.255 . S
O63 Fe45 2.002 . S
O63 C59 1.295 . S
O64 Fe47 1.997 . S
O64 C59 1.235 . S
C65 O48 1.295 . S
C65 O49 1.235 . S
Fe66 O68 1.918 . S
Fe66 O71 1.997 . S
Fe66 O72 2.002 . S
Fe66 O77 1.976 . S
Fe66 O80 1.996 . S
Fe67 O68 1.918 . S
Fe67 O75 1.997 . S
Fe67 O78 1.996 . S
Fe67 O82 1.976 . S
Fe67 O85 2.002 . S
O68 Fe66 1.918 . S
O68 Fe67 1.918 . S
O68 Fe69 1.918 . S
Fe69 O68 1.918 . S
Fe69 O70 2.002 . S
Fe69 O79 1.976 . S
Fe69 O83 1.996 . S
Fe69 O86 1.997 . S
O70 Fe69 2.002 . S
O70 C87 1.295 . S
O71 Fe66 1.997 . S
O71 C87 1.235 . S
O72 Fe66 2.002 . S
O72 C73 1.295 . S
C73 O72 1.295 . S
C73 O75 1.235 . S
C74 O79 1.287 . S
C74 O80 1.255 . S
O75 Fe67 1.997 . S
O75 C73 1.235 . S
C76 O82 1.287 . S
C76 O83 1.255 . S
O77 Fe66 1.976 . S
O77 C84 1.287 . S
O78 Fe67 1.996 . S
O78 C84 1.255 . S
O79 Fe69 1.976 . S
O79 C74 1.287 . S
O80 Fe66 1.996 . S
O80 C74 1.255 . S
C81 O85 1.295 . S
C81 O86 1.235 . S
O82 Fe67 1.976 . S
O82 C76 1.287 . S
O83 Fe69 1.996 . S
O83 C76 1.255 . S
C84 O77 1.287 . S
C84 O78 1.255 . S
O85 Fe67 2.002 . S
O85 C81 1.295 . S
O86 Fe69 1.997 . S
O86 C81 1.235 . S
C87 O70 1.295 . S
C87 O71 1.235 . S
Fe88 O90 1.918 . S
Fe88 O93 1.997 . S
Fe88 O94 2.002 . S
Fe88 O99 1.976 . S
Fe88 O102 1.996 . S
Fe89 O90 1.918 . S
Fe89 O97 1.997 . S
Fe89 O100 1.996 . S
Fe89 O104 1.976 . S
Fe89 O107 2.002 . S
O90 Fe88 1.918 . S
O90 Fe89 1.918 . S
O90 Fe91 1.918 . S
Fe91 O90 1.918 . S
Fe91 O92 2.002 . S
Fe91 O101 1.976 . S
Fe91 O105 1.996 . S
Fe91 O108 1.997 . S
O92 Fe91 2.002 . S
O92 C109 1.295 . S
O93 Fe88 1.997 . S
O93 C109 1.235 . S
O94 Fe88 2.002 . S
O94 C95 1.295 . S
C95 O94 1.295 . S
C95 O97 1.235 . S
C96 O101 1.287 . S
C96 O102 1.255 . S
O97 Fe89 1.997 . S
O97 C95 1.235 . S
C98 O104 1.287 . S
C98 O105 1.255 . S
O99 Fe88 1.976 . S
O99 C106 1.287 . S
O100 Fe89 1.996 . S
O100 C106 1.255 . S
O101 Fe91 1.976 . S
O101 C96 1.287 . S
O102 Fe88 1.996 . S
O102 C96 1.255 . S
C103 O107 1.295 . S
C103 O108 1.235 . S
O104 Fe89 1.976 . S
O104 C98 1.287 . S
O105 Fe91 1.996 . S
O105 C98 1.255 . S
C106 O99 1.287 . S
C106 O100 1.255 . S
O107 Fe89 2.002 . S
O107 C103 1.295 . S
O108 Fe91 1.997 . S
O108 C103 1.235 . S
C109 O92 1.295 . S
C109 O93 1.235 . S
Fe110 O112 1.918 . S
Fe110 O115 1.997 . S
Fe110 O116 2.002 . S
Fe110 O121 1.976 . S
Fe110 O124 1.996 . S
Fe111 O112 1.918 . S
Fe111 O119 1.997 . S
Fe111 O122 1.996 . S
Fe111 O126 1.976 . S
Fe111 O129 2.002 . S
O112 Fe110 1.918 . S
O112 Fe111 1.918 . S
O112 Fe113 1.918 . S
Fe113 O112 1.918 . S
Fe113 O114 2.002 . S
Fe113 O123 1.976 . S
Fe113 O127 1.996 . S
Fe113 O130 1.997 . S
O114 Fe113 2.002 . S
O114 C131 1.295 . S
O115 Fe110 1.997 . S
O115 C131 1.235 . S
O116 Fe110 2.002 . S
O116 C117 1.295 . S
C117 O116 1.295 . S
C117 O119 1.235 . S
C118 O123 1.287 . S
C118 O124 1.255 . S
O119 Fe111 1.997 . S
O119 C117 1.235 . S
C120 O126 1.287 . S
C120 O127 1.255 . S
O121 Fe110 1.976 . S
O121 C128 1.287 . S
O122 Fe111 1.996 . S
O122 C128 1.255 . S
O123 Fe113 1.976 . S
O123 C118 1.287 . S
O124 Fe110 1.996 . S
O124 C118 1.255 . S
C125 O129 1.295 . S
C125 O130 1.235 . S
O126 Fe111 1.976 . S
O126 C120 1.287 . S
O127 Fe113 1.996 . S
O127 C120 1.255 . S
C128 O121 1.287 . S
C128 O122 1.255 . S
O129 Fe111 2.002 . S
O129 C125 1.295 . S
O130 Fe113 1.997 . S
O130 C125 1.235 . S
C131 O114 1.295 . S
C131 O115 1.235 . S
Fe132 O134 1.918 . S
Fe132 O137 1.997 . S
Fe132 O138 2.002 . S
Fe132 O143 1.976 . S
Fe132 O146 1.996 . S
Fe133 O134 1.918 . S
Fe133 O141 1.997 . S
Fe133 O144 1.996 . S
Fe133 O148 1.976 . S
Fe133 O151 2.002 . S
O134 Fe132 1.918 . S
O134 Fe133 1.918 . S
O134 Fe135 1.918 . S
Fe135 O134 1.918 . S
Fe135 O136 2.002 . S
Fe135 O145 1.976 . S
Fe135 O149 1.996 . S
Fe135 O152 1.997 . S
O136 Fe135 2.002 . S
O136 C153 1.295 . S
O137 Fe132 1.997 . S
O137 C153 1.235 . S
O138 Fe132 2.002 . S
O138 C139 1.295 . S
C139 O138 1.295 . S
C139 O141 1.235 . S
C140 O145 1.287 . S
C140 O146 1.255 . S
O141 Fe133 1.997 . S
O141 C139 1.235 . S
C142 O148 1.287 . S
C142 O149 1.255 . S
O143 Fe132 1.976 . S
O143 C150 1.287 . S
O144 Fe133 1.996 . S
O144 C150 1.255 . S
O145 Fe135 1.976 . S
O145 C140 1.287 . S
O146 Fe132 1.996 . S
O146 C140 1.255 . S
C147 O151 1.295 . S
C147 O152 1.235 . S
O148 Fe133 1.976 . S
O148 C142 1.287 . S
O149 Fe135 1.996 . S
O149 C142 1.255 . S
C150 O143 1.287 . S
C150 O144 1.255 . S
O151 Fe133 2.002 . S
O151 C147 1.295 . S
O152 Fe135 1.997 . S
O152 C147 1.235 . S
C153 O136 1.295 . S
C153 O137 1.235 . S
Fe154 O156 1.918 . S
Fe154 O159 1.997 . S
Fe154 O160 2.002 . S
Fe154 O165 1.976 . S
Fe154 O168 1.996 . S
Fe155 O156 1.918 . S
Fe155 O163 1.997 . S
Fe155 O166 1.996 . S
Fe155 O170 1.976 . S
Fe155 O173 2.002 . S
O156 Fe154 1.918 . S
O156 Fe155 1.918 . S
O156 Fe157 1.918 . S
Fe157 O156 1.918 . S
Fe157 O158 2.002 . S
Fe157 O167 1.976 . S
Fe157 O171 1.996 . S
Fe157 O174 1.997 . S
O158 Fe157 2.002 . S
O158 C175 1.295 . S
O159 Fe154 1.997 . S
O159 C175 1.235 . S
O160 Fe154 2.002 . S
O160 C161 1.295 . S
C161 O160 1.295 . S
C161 O163 1.235 . S
C162 O167 1.287 . S
C162 O168 1.255 . S
O163 Fe155 1.997 . S
O163 C161 1.235 . S
C164 O170 1.287 . S
C164 O171 1.255 . S
O165 Fe154 1.976 . S
O165 C172 1.287 . S
O166 Fe155 1.996 . S
O166 C172 1.255 . S
O167 Fe157 1.976 . S
O167 C162 1.287 . S
O168 Fe154 1.996 . S
O168 C162 1.255 . S
C169 O173 1.295 . S
C169 O174 1.235 . S
O170 Fe155 1.976 . S
O170 C164 1.287 . S
O171 Fe157 1.996 . S
O171 C164 1.255 . S
C172 O165 1.287 . S
C172 O166 1.255 . S
O173 Fe155 2.002 . S
O173 C169 1.295 . S
O174 Fe157 1.997 . S
O174 C169 1.235 . S
C175 O158 1.295 . S
C175 O159 1.235 . S
H176 C188 0.930 . S
H177 C190 0.930 . S
H178 C191 0.930 . S
H179 C195 0.959 . S
H180 C195 0.959 . S
H181 C195 0.961 . S
H182 C196 0.960 . S
H183 C196 0.961 . S
H184 C196 0.959 . S
H185 C199 0.929 . S
H186 C200 0.931 . S
H187 C202 0.930 . S
C188 H176 0.930 . S
C188 C189 1.399 . S
C188 C193 1.399 . S
C189 C188 1.399 . S
C189 C190 1.376 . S
C190 H177 0.930 . S
C190 C189 1.376 . S
C190 C191 1.388 . S
C191 H178 0.930 . S
C191 C190 1.388 . S
C191 C192 1.390 . S
C192 C191 1.390 . S
C192 C193 1.394 . S
C192 C198 1.465 . S
C193 C188 1.399 . S
C193 C192 1.394 . S
C193 C194 1.516 . S
C194 C193 1.516 . S
C194 C195 1.502 . S
C194 C196 1.561 . S
C194 C197 1.526 . S
C195 H179 0.959 . S
C195 H180 0.959 . S
C195 H181 0.961 . S
C195 C194 1.502 . S
C196 H182 0.960 . S
C196 H183 0.961 . S
C196 H184 0.959 . S
C196 C194 1.561 . S
C197 C194 1.526 . S
C197 C198 1.396 . S
C197 C202 1.390 . S
C198 C192 1.465 . S
C198 C197 1.396 . S
C198 C199 1.399 . S
C199 H185 0.929 . S
C199 C198 1.399 . S
C199 C200 1.385 . S
C200 H186 0.931 . S
C200 C199 1.385 . S
C200 C201 1.389 . S
C201 C200 1.389 . S
C201 C202 1.387 . S
C202 H187 0.930 . S
C202 C197 1.390 . S
C202 C201 1.387 . S
H203 C215 0.930 . S
H204 C217 0.930 . S
H205 C218 0.930 . S
H206 C222 0.959 . S
H207 C222 0.959 . S
H208 C222 0.961 . S
H209 C223 0.960 . S
H210 C223 0.961 . S
H211 C223 0.959 . S
H212 C226 0.929 1_556 S
H213 C227 0.931 . S
H214 C229 0.930 . S
C215 H203 0.930 . S
C215 C216 1.399 . S
C215 C220 1.399 . S
C216 C215 1.399 . S
C216 C217 1.376 . S
C217 H204 0.930 . S
C217 C216 1.376 . S
C217 C218 1.388 . S
C218 H205 0.930 . S
C218 C217 1.388 . S
C218 C219 1.390 . S
C219 C218 1.390 . S
C219 C220 1.394 . S
C219 C225 1.465 1_556 S
C220 C215 1.399 . S
C220 C219 1.394 . S
C220 C221 1.516 1_556 S
C221 C220 1.516 1_554 S
C221 C222 1.502 . S
C221 C223 1.561 . S
C221 C224 1.526 . S
C222 H206 0.959 . S
C222 H207 0.959 . S
C222 H208 0.961 . S
C222 C221 1.502 . S
C223 H209 0.960 . S
C223 H210 0.961 . S
C223 H211 0.959 . S
C223 C221 1.561 . S
C224 C221 1.526 . S
C224 C225 1.396 . S
C224 C229 1.390 . S
C225 C219 1.465 1_554 S
C225 C224 1.396 . S
C225 C226 1.399 . S
C226 H212 0.929 1_554 S
C226 C225 1.399 . S
C226 C227 1.385 . S
C227 H213 0.931 . S
C227 C226 1.385 . S
C227 C228 1.389 . S
C228 C227 1.389 . S
C228 C229 1.387 . S
C229 H214 0.930 . S
C229 C224 1.390 . S
C229 C228 1.387 . S
H230 C242 0.930 . S
H231 C244 0.930 . S
H232 C245 0.930 . S
H233 C249 0.959 . S
H234 C249 0.959 . S
H235 C249 0.961 . S
H236 C250 0.960 . S
H237 C250 0.961 . S
H238 C250 0.959 . S
H239 C253 0.929 . S
H240 C254 0.931 . S
H241 C256 0.930 . S
C242 H230 0.930 . S
C242 C243 1.399 . S
C242 C247 1.399 . S
C243 C242 1.399 . S
C243 C244 1.376 . S
C244 H231 0.930 . S
C244 C243 1.376 . S
C244 C245 1.388 . S
C245 H232 0.930 . S
C245 C244 1.388 . S
C245 C246 1.390 . S
C246 C245 1.390 . S
C246 C247 1.394 . S
C246 C252 1.465 . S
C247 C242 1.399 . S
C247 C246 1.394 . S
C247 C248 1.516 . S
C248 C247 1.516 . S
C248 C249 1.502 . S
C248 C250 1.561 . S
C248 C251 1.526 . S
C249 H233 0.959 . S
C249 H234 0.959 . S
C249 H235 0.961 . S
C249 C248 1.502 . S
C250 H236 0.960 . S
C250 H237 0.961 . S
C250 H238 0.959 . S
C250 C248 1.561 . S
C251 C248 1.526 . S
C251 C252 1.396 . S
C251 C256 1.390 . S
C252 C246 1.465 . S
C252 C251 1.396 . S
C252 C253 1.399 . S
C253 H239 0.929 . S
C253 C252 1.399 . S
C253 C254 1.385 . S
C254 H240 0.931 . S
C254 C253 1.385 . S
C254 C255 1.389 . S
C255 C254 1.389 . S
C255 C256 1.387 . S
C256 H241 0.930 . S
C256 C251 1.390 . S
C256 C255 1.387 . S
H257 C269 0.930 . S
H258 C271 0.930 . S
H259 C272 0.930 . S
H260 C276 0.959 . S
H261 C276 0.959 . S
H262 C276 0.961 . S
H263 C277 0.960 . S
H264 C277 0.961 . S
H265 C277 0.959 . S
H266 C280 0.929 . S
H267 C281 0.931 . S
H268 C283 0.930 . S
C269 H257 0.930 . S
C269 C270 1.399 . S
C269 C274 1.399 . S
C270 C269 1.399 . S
C270 C271 1.376 . S
C271 H258 0.930 . S
C271 C270 1.376 . S
C271 C272 1.388 . S
C272 H259 0.930 . S
C272 C271 1.388 . S
C272 C273 1.390 . S
C273 C272 1.390 . S
C273 C274 1.394 . S
C273 C279 1.465 1_554 S
C274 C269 1.399 . S
C274 C273 1.394 . S
C274 C275 1.516 . S
C275 C274 1.516 . S
C275 C276 1.502 . S
C275 C277 1.561 . S
C275 C278 1.526 1_554 S
C276 H260 0.959 . S
C276 H261 0.959 . S
C276 H262 0.961 . S
C276 C275 1.502 . S
C277 H263 0.960 . S
C277 H264 0.961 . S
C277 H265 0.959 . S
C277 C275 1.561 . S
C278 C275 1.526 1_556 S
C278 C279 1.396 . S
C278 C283 1.390 . S
C279 C273 1.465 1_556 S
C279 C278 1.396 . S
C279 C280 1.399 . S
C280 H266 0.929 . S
C280 C279 1.399 . S
C280 C281 1.385 . S
C281 H267 0.931 . S
C281 C280 1.385 . S
C281 C282 1.389 . S
C282 C281 1.389 . S
C282 C283 1.387 . S
C283 H268 0.930 . S
C283 C278 1.390 . S
C283 C282 1.387 . S
H284 C296 0.930 . S
H285 C298 0.930 1_565 S
H286 C299 0.930 . S
H287 C303 0.959 . S
H288 C303 0.959 . S
H289 C303 0.961 . S
H290 C304 0.960 . S
H291 C304 0.961 . S
H292 C304 0.959 . S
H293 C307 0.929 . S
H294 C308 0.931 . S
H295 C310 0.930 . S
C296 H284 0.930 . S
C296 C297 1.399 . S
C296 C301 1.399 . S
C297 C296 1.399 . S
C297 C298 1.376 . S
C298 H285 0.930 1_545 S
C298 C297 1.376 . S
C298 C299 1.388 . S
C299 H286 0.930 . S
C299 C298 1.388 . S
C299 C300 1.390 . S
C300 C299 1.390 . S
C300 C301 1.394 . S
C300 C306 1.465 . S
C301 C296 1.399 . S
C301 C300 1.394 . S
C301 C302 1.516 . S
C302 C301 1.516 . S
C302 C303 1.502 . S
C302 C304 1.561 . S
C302 C305 1.526 . S
C303 H287 0.959 . S
C303 H288 0.959 . S
C303 H289 0.961 . S
C303 C302 1.502 . S
C304 H290 0.960 . S
C304 H291 0.961 . S
C304 H292 0.959 . S
C304 C302 1.561 . S
C305 C302 1.526 . S
C305 C306 1.396 . S
C305 C310 1.390 . S
C306 C300 1.465 . S
C306 C305 1.396 . S
C306 C307 1.399 . S
C307 H293 0.929 . S
C307 C306 1.399 . S
C307 C308 1.385 . S
C308 H294 0.931 . S
C308 C307 1.385 . S
C308 C309 1.389 . S
C309 C308 1.389 . S
C309 C310 1.387 . S
C310 H295 0.930 . S
C310 C305 1.390 . S
C310 C309 1.387 . S
H311 C323 0.930 . S
H312 C325 0.933 1_565 S
H313 C326 0.930 . S
H314 C330 0.959 . S
H315 C330 0.959 . S
H316 C330 0.961 . S
H317 C331 0.960 . S
H318 C331 0.961 . S
H319 C331 0.959 . S
H320 C334 0.929 . S
H321 C335 0.931 . S
H322 C337 0.930 . S
C323 H311 0.930 . S
C323 C324 1.399 . S
C323 C328 1.399 . S
C324 C323 1.399 . S
C324 C325 1.376 . S
C325 H312 0.933 1_545 S
C325 C324 1.376 . S
C325 C326 1.387 . S
C326 H313 0.930 . S
C326 C325 1.387 . S
C326 C327 1.390 . S
C327 C326 1.390 . S
C327 C328 1.394 . S
C327 C333 1.465 . S
C328 C323 1.399 . S
C328 C327 1.394 . S
C328 C329 1.516 . S
C329 C328 1.516 . S
C329 C330 1.502 . S
C329 C331 1.561 . S
C329 C332 1.526 . S
C330 H314 0.959 . S
C330 H315 0.959 . S
C330 H316 0.961 . S
C330 C329 1.502 . S
C331 H317 0.960 . S
C331 H318 0.961 . S
C331 H319 0.959 . S
C331 C329 1.561 . S
C332 C329 1.526 . S
C332 C333 1.396 . S
C332 C337 1.390 . S
C333 C327 1.465 . S
C333 C332 1.396 . S
C333 C334 1.399 . S
C334 H320 0.929 . S
C334 C333 1.399 . S
C334 C335 1.385 . S
C335 H321 0.931 . S
C335 C334 1.385 . S
C335 C336 1.389 . S
C336 C335 1.389 . S
C336 C337 1.387 . S
C337 H322 0.930 . S
C337 C332 1.390 . S
C337 C336 1.387 . S
H338 C350 0.930 . S
H339 C352 0.930 . S
H340 C353 0.930 . S
H341 C357 0.959 . S
H342 C357 0.959 . S
H343 C357 0.961 . S
H344 C358 0.960 . S
H345 C358 0.961 . S
H346 C358 0.959 . S
H347 C361 0.929 . S
H348 C362 0.931 . S
H349 C364 0.930 1_545 S
C350 H338 0.930 . S
C350 C351 1.399 . S
C350 C355 1.399 . S
C351 C350 1.399 . S
C351 C352 1.376 . S
C352 H339 0.930 . S
C352 C351 1.376 . S
C352 C353 1.388 . S
C353 H340 0.930 . S
C353 C352 1.388 . S
C353 C354 1.390 . S
C354 C353 1.390 . S
C354 C355 1.394 . S
C354 C360 1.465 . S
C355 C350 1.399 . S
C355 C354 1.394 . S
C355 C356 1.516 . S
C356 C355 1.516 . S
C356 C357 1.502 . S
C356 C358 1.561 . S
C356 C359 1.526 . S
C357 H341 0.959 . S
C357 H342 0.959 . S
C357 H343 0.961 . S
C357 C356 1.502 . S
C358 H344 0.960 . S
C358 H345 0.961 . S
C358 H346 0.959 . S
C358 C356 1.561 . S
C359 C356 1.526 . S
C359 C360 1.396 . S
C359 C364 1.390 . S
C360 C354 1.465 . S
C360 C359 1.396 . S
C360 C361 1.399 . S
C361 H347 0.929 . S
C361 C360 1.399 . S
C361 C362 1.385 . S
C362 H348 0.931 . S
C362 C361 1.385 . S
C362 C363 1.389 . S
C363 C362 1.389 . S
C363 C364 1.387 . S
C364 H349 0.930 1_565 S
C364 C359 1.390 . S
C364 C363 1.387 . S
H365 C377 0.930 . S
H366 C379 0.930 . S
H367 C380 0.930 . S
H368 C384 0.959 . S
H369 C384 0.959 . S
H370 C384 0.961 . S
H371 C385 0.960 . S
H372 C385 0.961 . S
H373 C385 0.959 . S
H374 C388 0.929 . S
H375 C389 0.931 . S
H376 C391 0.930 . S
C377 H365 0.930 . S
C377 C378 1.399 . S
C377 C382 1.399 . S
C378 C377 1.399 . S
C378 C379 1.376 . S
C379 H366 0.930 . S
C379 C378 1.376 . S
C379 C380 1.388 . S
C380 H367 0.930 . S
C380 C379 1.388 . S
C380 C381 1.390 . S
C381 C380 1.390 . S
C381 C382 1.394 . S
C381 C387 1.465 . S
C382 C377 1.399 . S
C382 C381 1.394 . S
C382 C383 1.516 . S
C383 C382 1.516 . S
C383 C384 1.502 . S
C383 C385 1.561 . S
C383 C386 1.526 . S
C384 H368 0.959 . S
C384 H369 0.959 . S
C384 H370 0.961 . S
C384 C383 1.502 . S
C385 H371 0.960 . S
C385 H372 0.961 . S
C385 H373 0.959 . S
C385 C383 1.561 . S
C386 C383 1.526 . S
C386 C387 1.396 . S
C386 C391 1.390 . S
C387 C381 1.465 . S
C387 C386 1.396 . S
C387 C388 1.399 . S
C388 H374 0.929 . S
C388 C387 1.399 . S
C388 C389 1.385 . S
C389 H375 0.931 . S
C389 C388 1.385 . S
C389 C390 1.389 . S
C390 C389 1.389 . S
C390 C391 1.387 . S
C391 H376 0.930 . S
C391 C386 1.390 . S
C391 C390 1.387 . S
H392 C404 0.930 . S
H393 C406 0.930 . S
H394 C407 0.930 . S
H395 C411 0.959 . S
H396 C411 0.959 . S
H397 C411 0.961 . S
H398 C412 0.960 . S
H399 C412 0.961 . S
H400 C412 0.959 . S
H401 C415 0.929 . S
H402 C416 0.931 . S
H403 C418 0.930 . S
C404 H392 0.930 . S
C404 C405 1.399 . S
C404 C409 1.399 . S
C405 C404 1.399 . S
C405 C406 1.376 . S
C406 H393 0.930 . S
C406 C405 1.376 . S
C406 C407 1.388 . S
C407 H394 0.930 . S
C407 C406 1.388 . S
C407 C408 1.390 . S
C408 C407 1.390 . S
C408 C409 1.394 . S
C408 C414 1.465 . S
C409 C404 1.399 . S
C409 C408 1.394 . S
C409 C410 1.516 . S
C410 C409 1.516 . S
C410 C411 1.502 . S
C410 C412 1.561 . S
C410 C413 1.526 . S
C411 H395 0.959 . S
C411 H396 0.959 . S
C411 H397 0.961 . S
C411 C410 1.502 . S
C412 H398 0.960 . S
C412 H399 0.961 . S
C412 H400 0.959 . S
C412 C410 1.561 . S
C413 C410 1.526 . S
C413 C414 1.396 . S
C413 C418 1.390 . S
C414 C408 1.465 . S
C414 C413 1.396 . S
C414 C415 1.399 . S
C415 H401 0.929 . S
C415 C414 1.399 . S
C415 C416 1.385 . S
C416 H402 0.931 . S
C416 C415 1.385 . S
C416 C417 1.389 . S
C417 C416 1.389 . S
C417 C418 1.387 . S
C418 H403 0.930 . S
C418 C413 1.390 . S
C418 C417 1.387 . S
H419 C431 0.930 . S
H420 C433 0.930 . S
H421 C434 0.930 . S
H422 C438 0.959 . S
H423 C438 0.959 . S
H424 C438 0.961 . S
H425 C439 0.960 . S
H426 C439 0.961 . S
H427 C439 0.959 . S
H428 C442 0.929 . S
H429 C443 0.931 . S
H430 C445 0.930 . S
C431 H419 0.930 . S
C431 C432 1.399 . S
C431 C436 1.399 . S
C432 C431 1.399 . S
C432 C433 1.376 . S
C433 H420 0.930 . S
C433 C432 1.376 . S
C433 C434 1.388 . S
C434 H421 0.930 . S
C434 C433 1.388 . S
C434 C435 1.390 . S
C435 C434 1.390 . S
C435 C436 1.394 . S
C435 C441 1.465 . S
C436 C431 1.399 . S
C436 C435 1.394 . S
C436 C437 1.516 . S
C437 C436 1.516 . S
C437 C438 1.502 . S
C437 C439 1.561 . S
C437 C440 1.526 . S
C438 H422 0.959 . S
C438 H423 0.959 . S
C438 H424 0.961 . S
C438 C437 1.502 . S
C439 H425 0.960 . S
C439 H426 0.961 . S
C439 H427 0.959 . S
C439 C437 1.561 . S
C440 C437 1.526 . S
C440 C441 1.396 . S
C440 C445 1.390 . S
C441 C435 1.465 . S
C441 C440 1.396 . S
C441 C442 1.399 . S
C442 H428 0.929 . S
C442 C441 1.399 . S
C442 C443 1.385 . S
C443 H429 0.931 . S
C443 C442 1.385 . S
C443 C444 1.389 . S
C444 C443 1.389 . S
C444 C445 1.387 . S
C445 H430 0.930 . S
C445 C440 1.390 . S
C445 C444 1.387 . S
H446 C458 0.930 . S
H447 C460 0.930 . S
H448 C461 0.930 . S
H449 C465 0.959 . S
H450 C465 0.959 . S
H451 C465 0.961 . S
H452 C466 0.960 . S
H453 C466 0.961 . S
H454 C466 0.959 . S
H455 C469 0.929 . S
H456 C470 0.931 . S
H457 C472 0.930 . S
C458 H446 0.930 . S
C458 C459 1.399 . S
C458 C463 1.399 . S
C459 C458 1.399 . S
C459 C460 1.376 . S
C460 H447 0.930 . S
C460 C459 1.376 . S
C460 C461 1.388 . S
C461 H448 0.930 . S
C461 C460 1.388 . S
C461 C462 1.390 . S
C462 C461 1.390 . S
C462 C463 1.394 . S
C462 C468 1.465 . S
C463 C458 1.399 . S
C463 C462 1.394 . S
C463 C464 1.516 . S
C464 C463 1.516 . S
C464 C465 1.502 . S
C464 C466 1.561 . S
C464 C467 1.526 . S
C465 H449 0.959 . S
C465 H450 0.959 . S
C465 H451 0.961 . S
C465 C464 1.502 . S
C466 H452 0.960 . S
C466 H453 0.961 . S
C466 H454 0.959 . S
C466 C464 1.561 . S
C467 C464 1.526 . S
C467 C468 1.396 . S
C467 C472 1.390 . S
C468 C462 1.465 . S
C468 C467 1.396 . S
C468 C469 1.399 . S
C469 H455 0.929 . S
C469 C468 1.399 . S
C469 C470 1.385 . S
C470 H456 0.931 . S
C470 C469 1.385 . S
C470 C471 1.389 . S
C471 C470 1.389 . S
C471 C472 1.387 . S
C472 H457 0.930 . S
C472 C467 1.390 . S
C472 C471 1.387 . S
H473 C485 0.930 . S
H474 C487 0.930 . S
H475 C488 0.930 . S
H476 C492 0.959 . S
H477 C492 0.959 . S
H478 C492 0.961 . S
H479 C493 0.960 . S
H480 C493 0.961 . S
H481 C493 0.959 . S
H482 C496 0.929 . S
H483 C497 0.931 . S
H484 C499 0.930 . S
C485 H473 0.930 . S
C485 C486 1.399 . S
C485 C490 1.399 . S
C486 C485 1.399 . S
C486 C487 1.376 . S
C487 H474 0.930 . S
C487 C486 1.376 . S
C487 C488 1.388 . S
C488 H475 0.930 . S
C488 C487 1.388 . S
C488 C489 1.390 . S
C489 C488 1.390 . S
C489 C490 1.394 . S
C489 C495 1.465 . S
C490 C485 1.399 . S
C490 C489 1.394 . S
C490 C491 1.516 . S
C491 C490 1.516 . S
C491 C492 1.502 . S
C491 C493 1.561 . S
C491 C494 1.526 . S
C492 H476 0.959 . S
C492 H477 0.959 . S
C492 H478 0.961 . S
C492 C491 1.502 . S
C493 H479 0.960 . S
C493 H480 0.961 . S
C493 H481 0.959 . S
C493 C491 1.561 . S
C494 C491 1.526 . S
C494 C495 1.396 . S
C494 C499 1.390 . S
C495 C489 1.465 . S
C495 C494 1.396 . S
C495 C496 1.399 . S
C496 H482 0.929 . S
C496 C495 1.399 . S
C496 C497 1.385 . S
C497 H483 0.931 . S
C497 C496 1.385 . S
C497 C498 1.389 . S
C498 C497 1.389 . S
C498 C499 1.387 . S
C499 H484 0.930 . S
C499 C494 1.390 . S
C499 C498 1.387 . S
H500 C512 0.930 . S
H501 C514 0.930 . S
H502 C515 0.930 . S
H503 C519 0.968 . S
H504 C519 0.988 . S
H505 C519 0.931 1_455 S
H506 C520 0.963 1_455 S
H507 C520 0.958 . S
H508 C520 0.959 . S
H509 C523 0.929 . S
H510 C524 0.931 . S
H511 C526 0.930 . S
C512 H500 0.930 . S
C512 C513 1.399 . S
C512 C517 1.399 . S
C513 C512 1.399 . S
C513 C514 1.376 . S
C514 H501 0.930 . S
C514 C513 1.376 . S
C514 C515 1.388 . S
C515 H502 0.930 . S
C515 C514 1.388 . S
C515 C516 1.390 . S
C516 C515 1.390 . S
C516 C517 1.394 . S
C516 C522 1.465 1_455 S
C517 C512 1.399 . S
C517 C516 1.394 . S
C517 C518 1.515 1_455 S
C518 C517 1.515 1_655 S
C518 C519 1.497 . S
C518 C520 1.561 . S
C518 C521 1.527 . S
C519 H503 0.968 . S
C519 H504 0.988 . S
C519 H505 0.931 1_655 S
C519 C518 1.497 . S
C520 H506 0.963 1_655 S
C520 H507 0.958 . S
C520 H508 0.959 . S
C520 C518 1.561 . S
C521 C518 1.527 . S
C521 C522 1.396 . S
C521 C526 1.390 . S
C522 C516 1.465 1_655 S
C522 C521 1.396 . S
C522 C523 1.399 . S
C523 H509 0.929 . S
C523 C522 1.399 . S
C523 C524 1.385 . S
C524 H510 0.931 . S
C524 C523 1.385 . S
C524 C525 1.389 . S
C525 C524 1.389 . S
C525 C526 1.387 . S
C526 H511 0.930 . S
C526 C521 1.390 . S
C526 C525 1.387 . S
H527 C539 0.930 . S
H528 C541 0.930 . S
H529 C542 0.930 . S
H530 C546 0.960 . S
H531 C546 0.973 . S
H532 C546 0.945 1_455 S
H533 C547 0.957 1_455 S
H534 C547 0.964 . S
H535 C547 0.960 . S
H536 C550 0.929 . S
H537 C551 0.931 . S
H538 C553 0.930 . S
C539 H527 0.930 . S
C539 C540 1.399 . S
C539 C544 1.399 . S
C540 C539 1.399 . S
C540 C541 1.376 . S
C541 H528 0.930 . S
C541 C540 1.376 . S
C541 C542 1.388 . S
C542 H529 0.930 . S
C542 C541 1.388 . S
C542 C543 1.390 . S
C543 C542 1.390 . S
C543 C544 1.394 . S
C543 C549 1.465 1_455 S
C544 C539 1.399 . S
C544 C543 1.394 . S
C544 C545 1.518 1_455 S
C545 C544 1.518 1_655 S
C545 C546 1.505 . S
C545 C547 1.561 . S
C545 C548 1.523 . S
C546 H530 0.960 . S
C546 H531 0.973 . S
C546 H532 0.945 1_655 S
C546 C545 1.505 . S
C547 H533 0.957 1_655 S
C547 H534 0.964 . S
C547 H535 0.960 . S
C547 C545 1.561 . S
C548 C545 1.523 . S
C548 C549 1.396 . S
C548 C553 1.390 . S
C549 C543 1.465 1_655 S
C549 C548 1.396 . S
C549 C550 1.399 . S
C550 H536 0.929 . S
C550 C549 1.399 . S
C550 C551 1.385 . S
C551 H537 0.931 . S
C551 C550 1.385 . S
C551 C552 1.389 . S
C552 C551 1.389 . S
C552 C553 1.387 . S
C553 H538 0.930 . S
C553 C548 1.390 . S
C553 C552 1.387 . S
H554 C566 0.930 . S
H555 C568 0.930 . S
H556 C569 0.930 . S
H557 C573 0.959 . S
H558 C573 0.959 . S
H559 C573 0.961 . S
H560 C574 0.960 . S
H561 C574 0.961 . S
H562 C574 0.959 . S
H563 C577 0.929 . S
H564 C578 0.931 . S
H565 C580 0.930 . S
C566 H554 0.930 . S
C566 C567 1.399 . S
C566 C571 1.399 . S
C567 C566 1.399 . S
C567 C568 1.376 . S
C568 H555 0.930 . S
C568 C567 1.376 . S
C568 C569 1.388 . S
C569 H556 0.930 . S
C569 C568 1.388 . S
C569 C570 1.390 . S
C570 C569 1.390 . S
C570 C571 1.394 . S
C570 C576 1.465 . S
C571 C566 1.399 . S
C571 C570 1.394 . S
C571 C572 1.516 . S
C572 C571 1.516 . S
C572 C573 1.502 . S
C572 C574 1.561 . S
C572 C575 1.526 . S
C573 H557 0.959 . S
C573 H558 0.959 . S
C573 H559 0.961 . S
C573 C572 1.502 . S
C574 H560 0.960 . S
C574 H561 0.961 . S
C574 H562 0.959 . S
C574 C572 1.561 . S
C575 C572 1.526 . S
C575 C576 1.396 . S
C575 C580 1.390 . S
C576 C570 1.465 . S
C576 C575 1.396 . S
C576 C577 1.399 . S
C577 H563 0.929 . S
C577 C576 1.399 . S
C577 C578 1.385 . S
C578 H564 0.931 . S
C578 C577 1.385 . S
C578 C579 1.389 . S
C579 C578 1.389 . S
C579 C580 1.387 . S
C580 H565 0.930 . S
C580 C575 1.390 . S
C580 C579 1.387 . S
H581 C593 0.930 . S
H582 C595 0.930 . S
H583 C596 0.930 . S
H584 C600 0.959 . S
H585 C600 0.959 . S
H586 C600 0.961 . S
H587 C601 0.960 . S
H588 C601 0.961 . S
H589 C601 0.959 . S
H590 C604 0.929 . S
H591 C605 0.931 . S
H592 C607 0.930 . S
C593 H581 0.930 . S
C593 C594 1.399 . S
C593 C598 1.399 . S
C594 C593 1.399 . S
C594 C595 1.376 . S
C595 H582 0.930 . S
C595 C594 1.376 . S
C595 C596 1.388 . S
C596 H583 0.930 . S
C596 C595 1.388 . S
C596 C597 1.390 . S
C597 C596 1.390 . S
C597 C598 1.394 . S
C597 C603 1.465 . S
C598 C593 1.399 . S
C598 C597 1.394 . S
C598 C599 1.516 . S
C599 C598 1.516 . S
C599 C600 1.502 . S
C599 C601 1.561 . S
C599 C602 1.526 . S
C600 H584 0.959 . S
C600 H585 0.959 . S
C600 H586 0.961 . S
C600 C599 1.502 . S
C601 H587 0.960 . S
C601 H588 0.961 . S
C601 H589 0.959 . S
C601 C599 1.561 . S
C602 C599 1.526 . S
C602 C603 1.396 . S
C602 C607 1.390 . S
C603 C597 1.465 . S
C603 C602 1.396 . S
C603 C604 1.399 . S
C604 H590 0.929 . S
C604 C603 1.399 . S
C604 C605 1.385 . S
C605 H591 0.931 . S
C605 C604 1.385 . S
C605 C606 1.389 . S
C606 C605 1.389 . S
C606 C607 1.387 . S
C607 H592 0.930 . S
C607 C602 1.390 . S
C607 C606 1.387 . S
H608 C620 0.930 . S
H609 C622 0.930 . S
H610 C623 0.930 . S
H611 C627 0.959 . S
H612 C627 0.960 1_554 S
H613 C627 0.961 . S
H614 C628 0.960 . S
H615 C628 0.961 1_554 S
H616 C628 0.959 1_554 S
H617 C631 0.929 . S
H618 C632 0.931 . S
H619 C634 0.930 . S
C620 H608 0.930 . S
C620 C621 1.399 . S
C620 C625 1.399 . S
C621 C620 1.399 . S
C621 C622 1.376 . S
C622 H609 0.930 . S
C622 C621 1.376 . S
C622 C623 1.388 1_556 S
C623 H610 0.930 . S
C623 C622 1.388 1_554 S
C623 C624 1.390 . S
C624 C623 1.390 . S
C624 C625 1.394 1_554 S
C624 C630 1.465 . S
C625 C620 1.399 . S
C625 C624 1.394 1_556 S
C625 C626 1.516 1_556 S
C626 C625 1.516 1_554 S
C626 C627 1.502 1_554 S
C626 C628 1.561 1_554 S
C626 C629 1.526 . S
C627 H611 0.959 . S
C627 H612 0.960 1_556 S
C627 H613 0.961 . S
C627 C626 1.502 1_556 S
C628 H614 0.960 . S
C628 H615 0.961 1_556 S
C628 H616 0.959 1_556 S
C628 C626 1.561 1_556 S
C629 C626 1.526 . S
C629 C630 1.396 . S
C629 C634 1.390 . S
C630 C624 1.465 . S
C630 C629 1.396 . S
C630 C631 1.399 . S
C631 H617 0.929 . S
C631 C630 1.399 . S
C631 C632 1.385 . S
C632 H618 0.931 . S
C632 C631 1.385 . S
C632 C633 1.389 . S
C633 C632 1.389 . S
C633 C634 1.387 . S
C634 H619 0.930 . S
C634 C629 1.390 . S
C634 C633 1.387 . S
H635 C647 0.930 . S
H636 C649 0.930 . S
H637 C650 0.930 . S
H638 C654 0.959 . S
H639 C654 0.959 . S
H640 C654 0.961 . S
H641 C655 0.960 . S
H642 C655 0.961 . S
H643 C655 0.959 . S
H644 C658 0.929 . S
H645 C659 0.931 . S
H646 C661 0.930 . S
C647 H635 0.930 . S
C647 C648 1.399 . S
C647 C652 1.399 . S
C648 C647 1.399 . S
C648 C649 1.376 . S
C649 H636 0.930 . S
C649 C648 1.376 . S
C649 C650 1.388 . S
C650 H637 0.930 . S
C650 C649 1.388 . S
C650 C651 1.390 . S
C651 C650 1.390 . S
C651 C652 1.394 . S
C651 C657 1.465 . S
C652 C647 1.399 . S
C652 C651 1.394 . S
C652 C653 1.516 . S
C653 C652 1.516 . S
C653 C654 1.502 . S
C653 C655 1.561 . S
C653 C656 1.526 . S
C654 H638 0.959 . S
C654 H639 0.959 . S
C654 H640 0.961 . S
C654 C653 1.502 . S
C655 H641 0.960 . S
C655 H642 0.961 . S
C655 H643 0.959 . S
C655 C653 1.561 . S
C656 C653 1.526 . S
C656 C657 1.396 . S
C656 C661 1.390 . S
C657 C651 1.465 . S
C657 C656 1.396 . S
C657 C658 1.399 . S
C658 H644 0.929 . S
C658 C657 1.399 . S
C658 C659 1.385 . S
C659 H645 0.931 . S
C659 C658 1.385 . S
C659 C660 1.389 . S
C660 C659 1.389 . S
C660 C661 1.387 . S
C661 H646 0.930 . S
C661 C656 1.390 . S
C661 C660 1.387 . S
H662 C674 0.930 . S
H663 C676 0.930 . S
H664 C677 0.930 . S
H665 C681 0.959 . S
H666 C681 0.959 . S
H667 C681 0.961 . S
H668 C682 0.960 . S
H669 C682 0.961 . S
H670 C682 0.959 . S
H671 C685 0.929 . S
H672 C686 0.931 . S
H673 C688 0.930 . S
C674 H662 0.930 . S
C674 C675 1.399 . S
C674 C679 1.399 . S
C675 C674 1.399 . S
C675 C676 1.376 . S
C676 H663 0.930 . S
C676 C675 1.376 . S
C676 C677 1.388 . S
C677 H664 0.930 . S
C677 C676 1.388 . S
C677 C678 1.390 . S
C678 C677 1.390 . S
C678 C679 1.394 . S
C678 C684 1.465 1_556 S
C679 C674 1.399 . S
C679 C678 1.394 . S
C679 C680 1.516 . S
C680 C679 1.516 . S
C680 C681 1.502 . S
C680 C682 1.561 . S
C680 C683 1.526 . S
C681 H665 0.959 . S
C681 H666 0.959 . S
C681 H667 0.961 . S
C681 C680 1.502 . S
C682 H668 0.960 . S
C682 H669 0.961 . S
C682 H670 0.959 . S
C682 C680 1.561 . S
C683 C680 1.526 . S
C683 C684 1.396 1_556 S
C683 C688 1.390 1_556 S
C684 C678 1.465 1_554 S
C684 C683 1.396 1_554 S
C684 C685 1.399 . S
C685 H671 0.929 . S
C685 C684 1.399 . S
C685 C686 1.385 . S
C686 H672 0.931 . S
C686 C685 1.385 . S
C686 C687 1.389 . S
C687 C686 1.389 . S
C687 C688 1.387 . S
C688 H673 0.930 . S
C688 C683 1.390 1_554 S
C688 C687 1.387 . S
H689 C701 0.930 . S
H690 C703 0.930 . S
H691 C704 0.930 . S
H692 C708 0.959 . S
H693 C708 0.959 . S
H694 C708 0.961 . S
H695 C709 0.960 . S
H696 C709 0.961 . S
H697 C709 0.959 . S
H698 C712 0.929 . S
H699 C713 0.931 . S
H700 C715 0.930 . S
C701 H689 0.930 . S
C701 C702 1.399 . S
C701 C706 1.399 . S
C702 C701 1.399 . S
C702 C703 1.376 . S
C703 H690 0.930 . S
C703 C702 1.376 . S
C703 C704 1.388 . S
C704 H691 0.930 . S
C704 C703 1.388 . S
C704 C705 1.390 . S
C705 C704 1.390 . S
C705 C706 1.394 . S
C705 C711 1.465 . S
C706 C701 1.399 . S
C706 C705 1.394 . S
C706 C707 1.516 . S
C707 C706 1.516 . S
C707 C708 1.502 . S
C707 C709 1.561 . S
C707 C710 1.526 . S
C708 H692 0.959 . S
C708 H693 0.959 . S
C708 H694 0.961 . S
C708 C707 1.502 . S
C709 H695 0.960 . S
C709 H696 0.961 . S
C709 H697 0.959 . S
C709 C707 1.561 . S
C710 C707 1.526 . S
C710 C711 1.396 . S
C710 C715 1.390 . S
C711 C705 1.465 . S
C711 C710 1.396 . S
C711 C712 1.399 . S
C712 H698 0.929 . S
C712 C711 1.399 . S
C712 C713 1.385 . S
C713 H699 0.931 . S
C713 C712 1.385 . S
C713 C714 1.389 . S
C714 C713 1.389 . S
C714 C715 1.387 . S
C715 H700 0.930 . S
C715 C710 1.390 . S
C715 C714 1.387 . S
H716 C728 0.930 1_565 S
H717 C730 0.930 . S
H718 C731 0.930 . S
H719 C735 0.959 . S
H720 C735 0.965 . S
H721 C735 0.961 . S
H722 C736 0.960 . S
H723 C736 0.961 1_554 S
H724 C736 0.959 1_554 S
H725 C739 0.929 . S
H726 C740 0.931 . S
H727 C742 0.930 . S
C728 H716 0.930 1_545 S
C728 C729 1.399 . S
C728 C733 1.399 1_545 S
C729 C728 1.399 . S
C729 C730 1.376 . S
C730 H717 0.930 . S
C730 C729 1.376 . S
C730 C731 1.388 1_556 S
C731 H718 0.930 . S
C731 C730 1.388 1_554 S
C731 C732 1.390 . S
C732 C731 1.390 . S
C732 C733 1.394 1_544 S
C732 C738 1.466 1_545 S
C733 C728 1.399 1_565 S
C733 C732 1.394 1_566 S
C733 C734 1.516 1_556 S
C734 C733 1.516 1_554 S
C734 C735 1.502 1_554 S
C734 C736 1.561 1_554 S
C734 C737 1.526 . S
C735 H719 0.959 . S
C735 H720 0.965 . S
C735 H721 0.961 . S
C735 C734 1.502 1_556 S
C736 H722 0.960 . S
C736 H723 0.961 1_556 S
C736 H724 0.959 1_556 S
C736 C734 1.561 1_556 S
C737 C734 1.526 . S
C737 C738 1.394 . S
C737 C742 1.390 . S
C738 C732 1.466 1_565 S
C738 C737 1.394 . S
C738 C739 1.399 1_565 S
C739 H725 0.929 . S
C739 C738 1.399 1_545 S
C739 C740 1.385 1_545 S
C740 H726 0.931 . S
C740 C739 1.385 1_565 S
C740 C741 1.389 . S
C741 C740 1.389 . S
C741 C742 1.387 . S
C742 H727 0.930 . S
C742 C737 1.390 . S
C742 C741 1.387 . S
H743 C755 0.930 . S
H744 C757 0.930 1_565 S
H745 C758 0.930 . S
H746 C762 0.959 . S
H747 C762 0.959 . S
H748 C762 0.961 . S
H749 C763 0.960 . S
H750 C763 0.961 . S
H751 C763 0.959 . S
H752 C766 0.929 . S
H753 C767 0.931 . S
H754 C769 0.930 . S
C755 H743 0.930 . S
C755 C756 1.399 . S
C755 C760 1.399 . S
C756 C755 1.399 . S
C756 C757 1.376 . S
C757 H744 0.930 1_545 S
C757 C756 1.376 . S
C757 C758 1.388 1_545 S
C758 H745 0.930 . S
C758 C757 1.388 1_565 S
C758 C759 1.390 . S
C759 C758 1.390 . S
C759 C760 1.394 1_565 S
C759 C765 1.465 . S
C760 C755 1.399 . S
C760 C759 1.394 1_545 S
C760 C761 1.516 . S
C761 C760 1.516 . S
C761 C762 1.502 . S
C761 C763 1.561 . S
C761 C764 1.526 1_545 S
C762 H746 0.959 . S
C762 H747 0.959 . S
C762 H748 0.961 . S
C762 C761 1.502 . S
C763 H749 0.960 . S
C763 H750 0.961 . S
C763 H751 0.959 . S
C763 C761 1.561 . S
C764 C761 1.526 1_565 S
C764 C765 1.396 . S
C764 C769 1.390 . S
C765 C759 1.465 . S
C765 C764 1.396 . S
C765 C766 1.399 . S
C766 H752 0.929 . S
C766 C765 1.399 . S
C766 C767 1.385 . S
C767 H753 0.931 . S
C767 C766 1.385 . S
C767 C768 1.389 . S
C768 C767 1.389 . S
C768 C769 1.387 . S
C769 H754 0.930 . S
C769 C764 1.390 . S
C769 C768 1.387 . S
H770 C782 0.930 1_545 S
H771 C784 0.930 . S
H772 C785 0.930 . S
H773 C789 0.958 1_556 S
H774 C789 0.957 1_556 S
H775 C789 0.966 . S
H776 C790 0.960 . S
H777 C790 0.961 . S
H778 C790 0.959 . S
H779 C793 0.929 . S
H780 C794 0.931 . S
H781 C796 0.930 . S
C782 H770 0.930 1_565 S
C782 C783 1.399 . S
C782 C787 1.399 1_565 S
C783 C782 1.399 . S
C783 C784 1.376 . S
C784 H771 0.930 . S
C784 C783 1.376 . S
C784 C785 1.388 1_554 S
C785 H772 0.930 . S
C785 C784 1.388 1_556 S
C785 C786 1.390 . S
C786 C785 1.390 . S
C786 C787 1.394 1_566 S
C786 C792 1.465 1_565 S
C787 C782 1.399 1_545 S
C787 C786 1.394 1_544 S
C787 C788 1.516 1_554 S
C788 C787 1.516 1_556 S
C788 C789 1.500 1_556 S
C788 C790 1.561 1_556 S
C788 C791 1.526 . S
C789 H773 0.958 1_554 S
C789 H774 0.957 1_554 S
C789 H775 0.966 . S
C789 C788 1.500 1_554 S
C790 H776 0.960 . S
C790 H777 0.961 . S
C790 H778 0.959 . S
C790 C788 1.561 1_554 S
C791 C788 1.526 . S
C791 C792 1.396 . S
C791 C796 1.390 . S
C792 C786 1.465 1_545 S
C792 C791 1.396 . S
C792 C793 1.399 1_545 S
C793 H779 0.929 . S
C793 C792 1.399 1_565 S
C793 C794 1.385 1_565 S
C794 H780 0.931 . S
C794 C793 1.385 1_545 S
C794 C795 1.389 . S
C795 C794 1.389 . S
C795 C796 1.387 . S
C796 H781 0.930 . S
C796 C791 1.390 . S
C796 C795 1.387 . S
H797 C809 0.930 . S
H798 C811 0.930 . S
H799 C812 0.930 . S
H800 C816 0.959 . S
H801 C816 0.959 . S
H802 C816 0.961 . S
H803 C817 0.960 . S
H804 C817 0.961 . S
H805 C817 0.959 . S
H806 C820 0.929 . S
H807 C821 0.931 . S
H808 C823 0.930 . S
C809 H797 0.930 . S
C809 C810 1.399 . S
C809 C814 1.399 . S
C810 C809 1.399 . S
C810 C811 1.376 . S
C811 H798 0.930 . S
C811 C810 1.376 . S
C811 C812 1.388 . S
C812 H799 0.930 . S
C812 C811 1.388 . S
C812 C813 1.390 . S
C813 C812 1.390 . S
C813 C814 1.394 . S
C813 C819 1.465 . S
C814 C809 1.399 . S
C814 C813 1.394 . S
C814 C815 1.516 1_545 S
C815 C814 1.516 1_565 S
C815 C816 1.502 . S
C815 C817 1.561 . S
C815 C818 1.526 . S
C816 H800 0.959 . S
C816 H801 0.959 . S
C816 H802 0.961 . S
C816 C815 1.502 . S
C817 H803 0.960 . S
C817 H804 0.961 . S
C817 H805 0.959 . S
C817 C815 1.561 . S
C818 C815 1.526 . S
C818 C819 1.396 1_565 S
C818 C823 1.390 . S
C819 C813 1.465 . S
C819 C818 1.396 1_545 S
C819 C820 1.399 . S
C820 H806 0.929 . S
C820 C819 1.399 . S
C820 C821 1.385 . S
C821 H807 0.931 . S
C821 C820 1.385 . S
C821 C822 1.389 1_545 S
C822 C821 1.389 1_565 S
C822 C823 1.387 . S
C823 H808 0.930 . S
C823 C818 1.390 . S
C823 C822 1.387 . S
C189 C139 0.991 . S
C201 C15 1.051 . S
C216 C175 1.026 . S
C228 C37 1.046 . S
C243 C103 0.968 . S
C255 C51 1.069 . S
C270 C125 1.085 . S
C282 C81 0.979 . S
C297 C131 1.576 1_545 S
C309 C10 1.563 . S
C324 C109 1.579 1_545 S
C336 C32 1.569 . S
C351 C62 1.519 . S
C363 C169 1.604 1_565 S
C378 C153 1.621 1_565 S
C390 C76 1.576 . S
C405 C43 1.568 . S
C417 C98 1.546 . S
C432 C120 1.535 . S
C444 C21 1.566 . S
C459 C150 1.518 . S
C471 C73 1.601 . S
C486 C65 1.622 . S
C498 C162 1.575 . S
C513 C18 1.443 . S
C525 C40 1.436 . S
C540 C74 1.431 . S
C552 C54 1.445 . S
C567 C128 1.442 . S
C579 C106 1.434 . S
C594 C172 1.413 . S
C606 C142 1.431 . S
C621 C87 1.407 . S
C633 C8 1.376 . S
C648 C30 1.383 . S
C660 C59 1.423 . S
C675 C52 1.429 . S
C687 C29 1.403 . S
C702 C7 1.400 . S
C714 C84 1.427 . S
C729 C161 1.408 . S
C741 C96 1.376 . S
C756 C147 1.428 . S
C768 C118 1.422 . S
C783 C117 1.429 . S
C795 C140 1.388 . S
C810 C164 1.427 . S
C822 C95 1.413 . S
