# Generated by pormake.
# Topology sxc, (6)-cn, num edge types: 1
# Building blocks:
#     Node 0, Type 0, BuildingBlock: UKALOJ_clean_sbu_0, # of connection points: 6
#     Node 1, Type 0, BuildingBlock: UKALOJ_clean_sbu_0, # of connection points: 6
#     Node 2, Type 0, BuildingBlock: UKALOJ_clean_sbu_0, # of connection points: 6
#     Edge 3, Type (0, 0), BuildingBlock: KIFKEQ_clean_linker_1, # of connection points: 2
#     Edge 4, Type (0, 0), BuildingBlock: KIFKEQ_clean_linker_1, # of connection points: 2
#     Edge 5, Type (0, 0), BuildingBlock: KIFKEQ_clean_linker_1, # of connection points: 2
#     Edge 6, Type (0, 0), BuildingBlock: KIFKEQ_clean_linker_1, # of connection points: 2
#     Edge 7, Type (0, 0), BuildingBlock: KIFKEQ_clean_linker_1, # of connection points: 2
#     Edge 8, Type (0, 0), BuildingBlock: KIFKEQ_clean_linker_1, # of connection points: 2
#     Edge 9, Type (0, 0), BuildingBlock: KIFKEQ_clean_linker_1, # of connection points: 2
#     Edge 10, Type (0, 0), BuildingBlock: KIFKEQ_clean_linker_1, # of connection points: 2
#     Edge 11, Type (0, 0), BuildingBlock: KIFKEQ_clean_linker_1, # of connection points: 2
# Relax obj value: 0.117
# Max RMSD: 0.183
# Mean RMSD: 0.183
data_MOF--net-sxc--node1-UKALOJ_clean_sbu_0--edge1-KIFKEQ_clean_linker_1
_symmetry_space_group_name_H-M    P1
_symmetry_Int_Tables_number       1
_symmetry_cell_setting            triclinic
loop_
_symmetry_equiv_pos_as_xyz
'x, y, z'
_cell_length_a     15.268378
_cell_length_b     15.300621
_cell_length_c     61.36156
_cell_angle_alpha  90.465176
_cell_angle_beta   89.760781
_cell_angle_gamma 119.87667
loop_
_atom_site_label
_atom_site_type_symbol
_atom_site_fract_x
_atom_site_fract_y
_atom_site_fract_z
_atom_type_partial_charge
Zn0 Zn -0.03846 0.11059 1.00853 0.0
O1 O 0.0006 -0.00186 1.00868 0.0
C2 C 0.76289 0.96036 0.02425 0.0
Zn3 Zn 0.95974 0.112 0.04501 0.0
C4 C 0.00768 0.96035 0.02652 0.0
O5 O -0.00152 -0.00331 0.04456 0.0
C6 C 0.91377 0.26229 0.02664 0.0
O7 O 0.11337 0.22746 0.04685 0.0
O8 O 0.11262 0.22324 1.01106 0.0
N9 N 0.94405 0.10497 0.07831 0.0
C10 C 0.00371 0.11131 0.09514 0.0
C11 C 0.86287 0.08279 0.10851 0.0
N12 N 0.85689 0.08765 0.08673 0.0
N13 N 0.95436 0.09778 0.1143 0.0
C14 C 0.95206 0.05957 0.95809 0.0
C15 C 0.01446 0.20736 0.94506 0.0
N16 N -0.02542 0.12395 0.97511 0.0
N17 N 0.01344 0.21553 0.96687 0.0
N18 N -0.02345 0.11031 0.93896 0.0
H19 H -0.03897 0.925 0.95944 0.0
H20 H 0.84744 0.9092 0.94694 0.0
H21 H 0.86375 0.9227 0.97623 0.0
C22 C 0.90243 0.94754 0.96033 0.0
C23 C 0.10751 0.1253 0.09263 0.0
H24 H 0.11727 0.10006 0.07628 0.0
H25 H 0.12217 0.08314 0.10537 0.0
H26 H 0.1638 0.20655 0.09446 0.0
O27 O 0.92068 0.22647 0.04474 0.0
O28 O 0.92282 0.22366 1.00901 0.0
C29 C 0.15821 0.26261 0.02882 0.0
O30 O 0.80991 -0.0022 1.00657 0.0
O31 O 0.80627 -0.00282 0.04236 0.0
Zn32 Zn 0.13271 0.08369 0.33964 0.0
O33 O -0.01907 0.04305 0.33832 0.0
C34 C 0.17907 0.28179 0.35487 0.0
Zn35 Zn 0.13369 0.0861 0.37612 0.0
C36 C 0.93491 0.03623 0.35606 0.0
O37 O -0.0203 0.04656 0.37412 0.0
C38 C 0.33108 0.13267 0.3593 0.0
O39 O 0.09445 0.93259 0.37838 0.0
O40 O 0.09559 0.93338 0.34261 0.0
N41 N 0.1267 0.1011 0.40928 0.0
C42 C 0.14326 0.05961 0.42703 0.0
C43 C 0.08705 0.15461 0.43826 0.0
N44 N 0.09245 0.16046 0.4164 0.0
N45 N 0.1189 0.09224 0.44539 0.0
C46 C 0.11104 0.10171 0.28883 0.0
C47 C 0.1677 0.00797 0.27706 0.0
N48 N 0.13929 0.06885 0.30638 0.0
N49 N 0.17492 0.01117 0.29892 0.0
N50 N 0.12822 0.06444 0.27022 0.0
H51 H 0.03053 0.16273 0.30643 0.0
H52 H 0.00182 0.14102 0.27761 0.0
H53 H 0.11998 0.24507 0.28668 0.0
C54 C 0.06228 0.16569 0.29005 0.0
C55 C 0.17568 -0.0179 0.42619 0.0
H56 H 0.10772 0.90638 0.42448 0.0
H57 H 0.21546 -0.01656 0.44137 0.0
H58 H 0.22543 -0.00505 0.41192 0.0
O59 O 0.28721 0.12532 0.37742 0.0
O60 O 0.28442 0.12377 0.3416 0.0
C61 C 0.08698 0.88773 0.36035 0.0
O62 O 0.16951 0.23401 0.33721 0.0
O63 O 0.17287 0.23948 0.37301 0.0
Zn64 Zn 0.04396 -0.00541 0.71147 0.0
O65 O 0.9317 0.03376 0.71375 0.0
C66 C 0.89305 0.79708 0.69496 0.0
Zn67 Zn 0.04379 -0.00556 0.67499 0.0
C68 C 0.89375 0.04247 0.69609 0.0
O69 O 0.92964 0.03434 0.67795 0.0
C70 C 0.19424 0.94691 0.69079 0.0
O71 O 0.158 0.14796 0.67386 0.0
O72 O 0.15708 0.14564 0.70965 0.0
N73 N 0.02375 -0.01305 0.6418 0.0
C74 C 0.0839 0.01348 0.624 0.0
C75 C 0.93278 0.95571 0.61288 0.0
N76 N 0.93007 0.95067 0.63473 0.0
N77 N 0.0283 -0.00537 0.60562 0.0
C78 C 0.00127 -0.01819 0.76215 0.0
C79 C 0.15006 0.03672 0.77442 0.0
N80 N 0.06313 0.00234 0.74479 0.0
N81 N 0.15536 0.03635 0.75254 0.0
N82 N 0.05428 0.00315 0.78102 0.0
H83 H 0.86069 0.89416 0.74497 0.0
H84 H 0.87055 -0.00182 0.76057 0.0
H85 H 0.85056 0.88595 0.77434 0.0
C86 C 0.88914 0.93674 0.76042 0.0
C87 C 0.19654 0.06153 0.62476 0.0
H88 H 0.22629 0.09665 0.64089 0.0
H89 H 0.23158 0.11894 0.61178 0.0
H90 H 0.2177 0.00274 0.6219 0.0
O91 O 0.15806 0.95494 0.67276 0.0
O92 O 0.1561 0.9553 0.70857 0.0
C93 C 0.19482 0.19191 0.69196 0.0
O94 O 0.93131 0.84361 0.71271 0.0
O95 O 0.92909 0.84077 0.6769 0.0
H96 H 0.86716 0.35508 0.05942 0.0
H97 H -0.03019 0.39076 0.99264 0.0
H98 H 0.89432 0.52652 0.05932 0.0
H99 H 0.00306 0.56239 0.99292 0.0
H100 H -0.03853 0.83264 0.99216 0.0
H101 H 0.93004 0.6619 0.99236 0.0
H102 H 0.02278 0.69715 0.0599 0.0
H103 H 0.04813 0.86795 0.05999 0.0
C104 C 0.89462 0.39926 0.0447 0.0
C105 C 0.91522 0.35918 0.02599 0.0
C106 C 0.91179 0.49798 0.04472 0.0
C107 C 0.95169 0.55894 0.02616 0.0
C108 C -0.02953 0.51758 1.00738 0.0
C109 C 0.9513 0.41869 1.00722 0.0
C110 C -0.02312 0.80492 1.00699 0.0
C111 C 0.0077 0.86405 0.02604 0.0
C112 C 0.95883 0.70645 1.00711 0.0
C113 C -0.0265 0.66505 0.02617 0.0
C114 C 0.00852 0.72572 0.04505 0.0
C115 C 0.0246 0.82408 0.04504 0.0
H116 H 0.4656 0.16936 0.39248 0.0
H117 H 0.41013 0.0882 0.32424 0.0
H118 H 0.61068 0.14278 0.39143 0.0
H119 H 0.54857 0.05497 0.32353 0.0
H120 H 0.85831 0.09073 0.32244 0.0
H121 H 0.72002 0.1247 0.32356 0.0
H122 H 0.65299 0.01492 0.38977 0.0
H123 H 0.79754 -0.01222 0.38905 0.0
C124 C 0.48495 0.14679 0.37725 0.0
C125 C 0.42711 0.13185 0.35843 0.0
C126 C 0.56697 0.12991 0.3767 0.0
C127 C 0.59119 0.09585 0.35742 0.0
C128 C 0.53403 0.08304 0.33857 0.0
C129 C 0.45405 0.10206 0.33899 0.0
C130 C 0.81321 0.07225 0.33714 0.0
C131 C 0.83858 0.03629 0.35565 0.0
C132 C 0.73345 0.09175 0.3378 0.0
C133 C 0.67511 0.0731 0.3568 0.0
C134 C 0.69769 0.03256 0.37503 0.0
C135 C 0.77937 0.01533 0.37453 0.0
H136 H 0.80526 0.65906 0.66194 0.0
H137 H 0.7601 0.72235 0.72848 0.0
H138 H 0.63417 0.51459 0.66124 0.0
H139 H 0.58841 0.58385 0.7274 0.0
H140 H 0.31757 0.27306 0.72694 0.0
H141 H 0.48829 0.41243 0.72757 0.0
H142 H 0.46339 0.47039 0.65961 0.0
H143 H 0.2928 0.32466 0.65866 0.0
C144 C 0.75901 0.64152 0.67645 0.0
C145 C 0.7964 0.70134 0.69532 0.0
C146 C 0.6604 0.55981 0.67596 0.0
C147 C 0.59662 0.53765 0.69419 0.0
C148 C 0.63532 0.59687 0.71315 0.0
C149 C 0.73426 0.67674 0.7138 0.0
C150 C 0.34761 0.31622 0.71215 0.0
C151 C 0.29135 0.28796 0.69274 0.0
C152 C 0.44607 0.39677 0.71253 0.0
C153 C 0.49042 0.45314 0.69364 0.0
C154 C 0.43262 0.42743 0.67437 0.0
C155 C 0.33429 0.34496 0.67388 0.0
H156 H 0.81298 0.10538 0.66435 0.0
H157 H 0.75338 0.97 0.72811 0.0
H158 H 0.641 0.07731 0.66297 0.0
H159 H 0.58112 0.93578 0.72624 0.0
H160 H 0.30836 -0.02634 0.72657 0.0
H161 H 0.47933 0.00568 0.72792 0.0
H162 H 0.47156 0.95034 0.65849 0.0
H163 H 0.30048 0.92498 0.65692 0.0
C164 C 0.76334 0.07065 0.67815 0.0
C165 C 0.79686 0.04129 0.69647 0.0
C166 C 0.66434 0.05291 0.67722 0.0
C167 C 0.59646 0.00344 0.69441 0.0
C168 C 0.63128 -0.02413 0.71287 0.0
C169 C 0.73054 -0.00426 0.71399 0.0
C170 C 0.34216 0.96678 0.71156 0.0
C171 C 0.29057 0.94655 0.69161 0.0
C172 C 0.44078 -0.015 0.71237 0.0
C173 C 0.49 -0.01902 0.69332 0.0
C174 C 0.43685 0.95627 0.67343 0.0
C175 C 0.33825 0.94006 0.67255 0.0
H176 H 0.6231 0.87678 0.05685 0.0
H177 H 0.69001 0.82321 0.99127 0.0
H178 H 0.47929 0.70568 0.05799 0.0
H179 H 0.55207 0.65142 0.99284 0.0
H180 H 0.24122 0.37996 0.99339 0.0
H181 H 0.38058 0.55019 0.99226 0.0
H182 H 0.43574 0.5359 0.06091 0.0
H183 H 0.28985 0.36558 0.0623 0.0
C184 C 0.60645 0.82864 0.04263 0.0
C185 C 0.66712 0.86368 0.0239 0.0
C186 C 0.52514 0.73001 0.04339 0.0
C187 C 0.50418 0.66382 0.0256 0.0
C188 C 0.56417 0.70016 1.00675 0.0
C189 C 0.64368 0.79915 1.00581 0.0
C190 C 0.28371 0.41219 1.00825 0.0
C191 C 0.25448 0.35897 0.02796 0.0
C192 C 0.36433 0.5104 1.00758 0.0
C193 C 0.4199 0.55766 0.02649 0.0
C194 C 0.39338 0.50287 0.0461 0.0
C195 C 0.31079 0.40471 0.04687 0.0
H196 H 0.24118 0.42598 0.38682 0.0
H197 H 0.10646 0.34855 0.32276 0.0
H198 H 0.21325 0.56972 0.38825 0.0
H199 H 0.07232 0.48674 0.32467 0.0
H200 H 0.11339 0.79845 0.3246 0.0
H201 H 0.14319 0.65816 0.32321 0.0
H202 H 0.08701 0.61381 0.39253 0.0
H203 H 0.06363 0.7606 0.39413 0.0
C204 C 0.20649 0.44041 0.37298 0.0
C205 C 0.17732 0.37708 0.35456 0.0
C206 C 0.18882 0.52164 0.37393 0.0
C207 C 0.13965 0.53975 0.35666 0.0
C208 C 0.11212 0.47684 0.33812 0.0
C209 C 0.13189 0.39736 0.33698 0.0
C210 C 0.10592 0.75826 0.33957 0.0
C211 C 0.08608 0.79085 0.35952 0.0
C212 C 0.12281 0.67704 0.33874 0.0
C213 C 0.11795 0.62428 0.35775 0.0
C214 C 0.0936 0.65401 0.37762 0.0
C215 C 0.07863 0.73712 0.37853 0.0
H216 H 0.16263 0.23301 0.24851 0.0
H217 H 0.0414 0.91265 0.24132 0.0
H218 H 0.12368 0.24301 0.21013 0.0
H219 H 0.00408 0.92225 0.20306 0.0
H220 H 0.84219 0.96101 0.14435 0.0
H221 H 0.88556 0.95593 0.18238 0.0
H222 H 0.17712 0.22061 0.17233 0.0
H223 H 0.13227 0.22603 0.13416 0.0
C224 C 0.12644 0.16471 0.23879 0.0
C225 C 0.10307 0.07169 0.24795 0.0
C226 C 0.10556 0.17054 0.21677 0.0
C227 C 0.0604 0.08331 0.20358 0.0
C228 C 0.03768 -0.00939 0.21282 0.0
C229 C 0.05931 -0.01493 0.23468 0.0
C230 C 0.91576 0.01761 0.15027 0.0
C231 C -0.01548 0.09278 0.13626 0.0
C232 C 0.9408 0.01461 0.172 0.0
C233 C 0.03497 0.08762 0.18036 0.0
C234 C 0.10384 0.1635 0.16638 0.0
C235 C 0.07893 0.16585 0.14448 0.0
H236 H 0.94971 -0.00278 0.46875 0.0
H237 H 0.27162 0.12072 0.47216 0.0
H238 H 0.93645 0.97132 0.50808 0.0
H239 H 0.25972 0.09679 0.51197 0.0
H240 H 0.15992 0.95616 0.58305 0.0
H241 H 0.1889 0.97202 0.54342 0.0
H242 H -0.01181 0.09353 0.53792 0.0
H243 H 0.95962 0.07716 0.57707 0.0
C244 C 0.01734 0.01687 0.47802 0.0
C245 C 0.11136 0.06018 0.46758 0.0
C246 C 0.01021 0.00316 0.50052 0.0
C247 C 0.09735 0.03392 0.51324 0.0
C248 C 0.19124 0.07222 0.50263 0.0
C249 C 0.19818 0.08556 0.47992 0.0
C250 C 0.1242 -0.01162 0.57334 0.0
C251 C 0.05771 0.01577 0.58308 0.0
C252 C 0.14017 -0.00314 0.55068 0.0
C253 C 0.08926 0.03215 0.53746 0.0
C254 C 0.02654 0.06354 0.5475 0.0
C255 C 0.01068 0.05497 0.56994 0.0
H256 H 0.13369 0.95971 0.81545 0.0
H257 H 0.91016 0.04073 0.79797 0.0
H258 H 0.10174 0.97285 0.85381 0.0
H259 H 0.87142 0.04542 0.83624 0.0
H260 H 0.93614 0.19007 0.90425 0.0
H261 H 0.94211 0.15098 0.86607 0.0
H262 H -0.00011 0.91207 0.88446 0.0
H263 H 0.0023 0.95751 0.92259 0.0
C264 C 0.07557 -0.02241 0.81982 0.0
C265 C 0.02348 -0.00257 0.80352 0.0
C266 C 0.05631 -0.01588 0.84189 0.0
C267 C -0.01633 0.01016 0.84837 0.0
C268 C 0.92885 0.02641 0.83201 0.0
C269 C 0.94937 0.02139 0.8099 0.0
C270 C 0.94931 0.12861 0.90012 0.0
C271 C -0.03291 0.07608 0.91661 0.0
C272 C 0.95163 0.10523 0.87815 0.0
C273 C -0.02883 0.02785 0.87193 0.0
C274 C -0.01433 -0.02709 0.88849 0.0
C275 C -0.01522 -0.00255 0.91052 0.0
loop_
_geom_bond_atom_site_label_1
_geom_bond_atom_site_label_2
_geom_bond_distance
_geom_bond_site_symmetry_2
_ccdc_geom_bond_type
Zn0 O1 2.055 1_545 S
Zn0 O8 2.046 . S
Zn0 N16 2.036 . S
Zn0 O28 2.053 1_455 S
Zn0 O30 2.066 1_445 S
O1 Zn0 2.055 1_565 S
O1 C4 1.259 1_556 S
C2 O30 1.256 1_554 S
C2 O31 1.244 . S
Zn3 O5 2.046 1_545 S
Zn3 O7 2.055 . S
Zn3 N9 2.035 1_455 S
Zn3 O27 2.066 1_455 S
Zn3 O31 2.053 1_445 S
C4 O1 1.259 1_554 S
C4 O5 1.254 . S
O5 Zn3 2.046 1_565 S
O5 C4 1.254 . S
C6 O27 1.256 . S
C6 O28 1.244 1_554 S
O7 Zn3 2.055 . S
O7 C29 1.259 . S
O8 Zn0 2.046 . S
O8 C29 1.254 1_556 S
N9 Zn3 2.035 1_655 S
N9 C10 1.297 1_655 S
N9 N12 1.403 1_545 S
C10 N9 1.297 1_455 S
C10 N13 1.367 1_455 S
C10 C23 1.481 . S
C11 N12 1.299 1_545 S
C11 N13 1.379 . S
N12 N9 1.403 1_565 S
N12 C11 1.299 1_565 S
N13 C10 1.367 1_655 S
N13 C11 1.379 . S
C14 N16 1.298 1_655 S
C14 N18 1.367 . S
C14 C22 1.481 1_545 S
C15 N17 1.299 1_655 S
C15 N18 1.379 . S
N16 Zn0 2.036 . S
N16 C14 1.298 1_455 S
N16 N17 1.398 . S
N17 C15 1.299 1_455 S
N17 N16 1.398 . S
N18 C14 1.367 . S
N18 C15 1.379 . S
H19 C22 0.980 1_455 S
H20 C22 0.981 . S
H21 C22 0.981 . S
C22 C14 1.481 1_565 S
C22 H19 0.980 1_655 S
C22 H20 0.981 . S
C22 H21 0.981 . S
C23 C10 1.481 . S
C23 H24 0.980 . S
C23 H25 0.981 . S
C23 H26 0.981 . S
H24 C23 0.980 . S
H25 C23 0.981 . S
H26 C23 0.981 . S
O27 Zn3 2.066 1_655 S
O27 C6 1.256 . S
O28 Zn0 2.053 1_655 S
O28 C6 1.244 1_556 S
C29 O7 1.259 . S
C29 O8 1.254 1_554 S
O30 Zn0 2.066 1_665 S
O30 C2 1.256 1_556 S
O31 C2 1.244 . S
O31 Zn3 2.053 1_665 S
Zn32 O33 2.055 . S
Zn32 O40 2.046 1_545 S
Zn32 N48 2.036 . S
Zn32 O60 2.053 . S
Zn32 O62 2.066 . S
O33 Zn32 2.055 . S
O33 C36 1.259 1_455 S
C34 O62 1.256 . S
C34 O63 1.244 . S
Zn35 O37 2.046 1_455 S
Zn35 O39 2.055 . S
Zn35 N41 2.036 . S
Zn35 O59 2.066 . S
Zn35 O63 2.053 . S
C36 O33 1.259 1_655 S
C36 O37 1.254 . S
O37 Zn35 2.046 1_655 S
O37 C36 1.254 . S
C38 O59 1.256 . S
C38 O60 1.244 . S
O39 Zn35 2.055 . S
O39 C61 1.259 1_545 S
O40 Zn32 2.046 1_565 S
O40 C61 1.254 . S
N41 Zn35 2.036 . S
N41 C42 1.298 . S
N41 N44 1.398 . S
C42 N41 1.298 . S
C42 N45 1.367 . S
C42 C55 1.481 . S
C43 N44 1.299 . S
C43 N45 1.379 . S
N44 N41 1.398 . S
N44 C43 1.299 . S
N45 C42 1.367 . S
N45 C43 1.379 . S
C46 N48 1.298 . S
C46 N50 1.367 . S
C46 C54 1.481 . S
C47 N49 1.299 . S
C47 N50 1.379 . S
N48 Zn32 2.036 . S
N48 C46 1.298 . S
N48 N49 1.398 . S
N49 C47 1.299 . S
N49 N48 1.398 . S
N50 C46 1.367 . S
N50 C47 1.379 . S
H51 C54 0.980 1_655 S
H52 C54 0.981 1_655 S
H53 C54 0.981 . S
C54 C46 1.481 . S
C54 H51 0.980 1_455 S
C54 H52 0.981 1_455 S
C54 H53 0.981 . S
C55 C42 1.481 . S
C55 H56 0.980 1_545 S
C55 H57 0.981 1_545 S
C55 H58 0.981 . S
H56 C55 0.980 1_565 S
H57 C55 0.981 1_565 S
H58 C55 0.981 . S
O59 Zn35 2.066 . S
O59 C38 1.256 . S
O60 Zn32 2.053 . S
O60 C38 1.244 . S
C61 O39 1.259 1_565 S
C61 O40 1.254 . S
O62 Zn32 2.066 . S
O62 C34 1.256 . S
O63 C34 1.244 . S
O63 Zn35 2.053 . S
Zn64 O65 2.055 1_455 S
Zn64 O72 2.046 . S
Zn64 N80 2.036 . S
Zn64 O92 2.053 1_545 S
Zn64 O94 2.066 1_445 S
O65 Zn64 2.055 1_655 S
O65 C68 1.259 . S
C66 O94 1.256 . S
C66 O95 1.244 . S
Zn67 O69 2.046 1_455 S
Zn67 O71 2.055 . S
Zn67 N73 2.035 1_545 S
Zn67 O91 2.066 1_545 S
Zn67 O95 2.053 1_445 S
C68 O65 1.259 . S
C68 O69 1.254 . S
O69 Zn67 2.046 1_655 S
O69 C68 1.254 . S
C70 O91 1.256 . S
C70 O92 1.244 . S
O71 Zn67 2.055 . S
O71 C93 1.259 . S
O72 Zn64 2.046 . S
O72 C93 1.254 . S
N73 Zn67 2.035 1_565 S
N73 C74 1.297 1_565 S
N73 N76 1.403 1_455 S
C74 N73 1.297 1_545 S
C74 N77 1.367 1_545 S
C74 C87 1.481 . S
C75 N76 1.299 1_455 S
C75 N77 1.379 . S
N76 N73 1.403 1_655 S
N76 C75 1.299 1_655 S
N77 C74 1.367 1_565 S
N77 C75 1.379 . S
C78 N80 1.298 1_565 S
C78 N82 1.367 . S
C78 C86 1.481 1_455 S
C79 N81 1.299 1_565 S
C79 N82 1.379 . S
N80 Zn64 2.036 . S
N80 C78 1.298 1_545 S
N80 N81 1.398 . S
N81 C79 1.299 1_545 S
N81 N80 1.398 . S
N82 C78 1.367 . S
N82 C79 1.379 . S
H83 C86 0.980 1_545 S
H84 C86 0.981 . S
H85 C86 0.981 . S
C86 C78 1.481 1_655 S
C86 H83 0.980 1_565 S
C86 H84 0.981 . S
C86 H85 0.981 . S
C87 C74 1.481 . S
C87 H88 0.980 . S
C87 H89 0.981 . S
C87 H90 0.981 . S
H88 C87 0.980 . S
H89 C87 0.981 . S
H90 C87 0.981 . S
O91 Zn67 2.066 1_565 S
O91 C70 1.256 . S
O92 Zn64 2.053 1_565 S
O92 C70 1.244 . S
C93 O71 1.259 . S
C93 O72 1.254 . S
O94 Zn64 2.066 1_665 S
O94 C66 1.256 . S
O95 C66 1.244 . S
O95 Zn67 2.053 1_665 S
H96 C104 0.950 . S
H97 C109 0.950 . S
H98 C106 0.950 . S
H99 C108 0.950 . S
H100 C110 0.950 1_655 S
H101 C112 0.950 . S
H102 C114 0.950 . S
H103 C115 0.950 . S
C104 H96 0.950 . S
C104 C105 1.386 1_455 S
C104 C106 1.391 . S
C105 C104 1.386 1_655 S
C105 C109 1.393 1_554 S
C106 H98 0.950 . S
C106 C104 1.391 . S
C106 C107 1.400 . S
C107 C106 1.400 . S
C107 C108 1.398 1_454 S
C107 C113 1.491 . S
C108 H99 0.950 . S
C108 C107 1.398 1_656 S
C108 C109 1.391 . S
C109 H97 0.950 . S
C109 C105 1.393 1_556 S
C109 C108 1.391 . S
C110 H100 0.950 1_455 S
C110 C111 1.386 1_556 S
C110 C112 1.391 1_455 S
C111 C110 1.386 1_554 S
C111 C115 1.393 . S
C112 H101 0.950 . S
C112 C110 1.391 1_655 S
C112 C113 1.400 1_656 S
C113 C107 1.491 . S
C113 C112 1.400 1_454 S
C113 C114 1.398 . S
C114 H102 0.950 . S
C114 C113 1.398 . S
C114 C115 1.391 . S
C115 H103 0.950 . S
C115 C111 1.393 . S
C115 C114 1.391 . S
H116 C124 0.950 . S
H117 C129 0.950 . S
H118 C126 0.950 . S
H119 C128 0.950 . S
H120 C130 0.950 . S
H121 C132 0.950 . S
H122 C134 0.950 . S
H123 C135 0.950 . S
C124 H116 0.950 . S
C124 C125 1.386 . S
C124 C126 1.391 . S
C125 C124 1.386 . S
C125 C129 1.393 . S
C126 H118 0.950 . S
C126 C124 1.391 . S
C126 C127 1.400 . S
C127 C126 1.400 . S
C127 C128 1.398 . S
C127 C133 1.491 . S
C128 H119 0.950 . S
C128 C127 1.398 . S
C128 C129 1.391 . S
C129 H117 0.950 . S
C129 C125 1.393 . S
C129 C128 1.391 . S
C130 H120 0.950 . S
C130 C131 1.386 . S
C130 C132 1.391 . S
C131 C130 1.386 . S
C131 C135 1.393 . S
C132 H121 0.950 . S
C132 C130 1.391 . S
C132 C133 1.400 . S
C133 C127 1.491 . S
C133 C132 1.400 . S
C133 C134 1.398 . S
C134 H122 0.950 . S
C134 C133 1.398 . S
C134 C135 1.391 . S
C135 H123 0.950 . S
C135 C131 1.393 . S
C135 C134 1.391 . S
H136 C144 0.950 . S
H137 C149 0.950 . S
H138 C146 0.950 . S
H139 C148 0.950 . S
H140 C150 0.950 . S
H141 C152 0.950 . S
H142 C154 0.950 . S
H143 C155 0.950 . S
C144 H136 0.950 . S
C144 C145 1.386 . S
C144 C146 1.391 . S
C145 C144 1.386 . S
C145 C149 1.393 . S
C146 H138 0.950 . S
C146 C144 1.391 . S
C146 C147 1.400 . S
C147 C146 1.400 . S
C147 C148 1.398 . S
C147 C153 1.491 . S
C148 H139 0.950 . S
C148 C147 1.398 . S
C148 C149 1.391 . S
C149 H137 0.950 . S
C149 C145 1.393 . S
C149 C148 1.391 . S
C150 H140 0.950 . S
C150 C151 1.386 . S
C150 C152 1.391 . S
C151 C150 1.386 . S
C151 C155 1.393 . S
C152 H141 0.950 . S
C152 C150 1.391 . S
C152 C153 1.400 . S
C153 C147 1.491 . S
C153 C152 1.400 . S
C153 C154 1.398 . S
C154 H142 0.950 . S
C154 C153 1.398 . S
C154 C155 1.391 . S
C155 H143 0.950 . S
C155 C151 1.393 . S
C155 C154 1.391 . S
H156 C164 0.950 . S
H157 C169 0.950 . S
H158 C166 0.950 . S
H159 C168 0.950 . S
H160 C170 0.950 . S
H161 C172 0.950 . S
H162 C174 0.950 . S
H163 C175 0.950 . S
C164 H156 0.950 . S
C164 C165 1.386 . S
C164 C166 1.391 . S
C165 C164 1.386 . S
C165 C169 1.393 1_545 S
C166 H158 0.950 . S
C166 C164 1.391 . S
C166 C167 1.400 . S
C167 C166 1.400 . S
C167 C168 1.398 1_545 S
C167 C173 1.491 . S
C168 H159 0.950 . S
C168 C167 1.398 1_565 S
C168 C169 1.391 . S
C169 H157 0.950 . S
C169 C165 1.393 1_565 S
C169 C168 1.391 . S
C170 H160 0.950 . S
C170 C171 1.386 . S
C170 C172 1.391 . S
C171 C170 1.386 . S
C171 C175 1.393 1_565 S
C172 H161 0.950 . S
C172 C170 1.391 . S
C172 C173 1.400 1_565 S
C173 C167 1.491 . S
C173 C172 1.400 1_545 S
C173 C174 1.398 . S
C174 H162 0.950 . S
C174 C173 1.398 . S
C174 C175 1.391 . S
C175 H163 0.950 . S
C175 C171 1.393 1_545 S
C175 C174 1.391 . S
H176 C184 0.950 . S
H177 C189 0.950 . S
H178 C186 0.950 . S
H179 C188 0.950 . S
H180 C190 0.950 1_556 S
H181 C192 0.950 1_556 S
H182 C194 0.950 . S
H183 C195 0.950 . S
C184 H176 0.950 . S
C184 C185 1.386 . S
C184 C186 1.391 . S
C185 C184 1.386 . S
C185 C189 1.393 1_554 S
C186 H178 0.950 . S
C186 C184 1.391 . S
C186 C187 1.400 . S
C187 C186 1.400 . S
C187 C188 1.398 1_554 S
C187 C193 1.491 . S
C188 H179 0.950 . S
C188 C187 1.398 1_556 S
C188 C189 1.391 . S
C189 H177 0.950 . S
C189 C185 1.393 1_556 S
C189 C188 1.391 . S
C190 H180 0.950 1_554 S
C190 C191 1.386 . S
C190 C192 1.391 . S
C191 C190 1.386 . S
C191 C195 1.393 . S
C192 H181 0.950 1_554 S
C192 C190 1.391 . S
C192 C193 1.400 . S
C193 C187 1.491 . S
C193 C192 1.400 . S
C193 C194 1.398 . S
C194 H182 0.950 . S
C194 C193 1.398 . S
C194 C195 1.391 . S
C195 H183 0.950 . S
C195 C191 1.393 . S
C195 C194 1.391 . S
H196 C204 0.950 . S
H197 C209 0.950 . S
H198 C206 0.950 . S
H199 C208 0.950 . S
H200 C210 0.950 . S
H201 C212 0.950 . S
H202 C214 0.950 . S
H203 C215 0.950 . S
C204 H196 0.950 . S
C204 C205 1.386 . S
C204 C206 1.391 . S
C205 C204 1.386 . S
C205 C209 1.393 . S
C206 H198 0.950 . S
C206 C204 1.391 . S
C206 C207 1.400 . S
C207 C206 1.400 . S
C207 C208 1.398 . S
C207 C213 1.491 . S
C208 H199 0.950 . S
C208 C207 1.398 . S
C208 C209 1.391 . S
C209 H197 0.950 . S
C209 C205 1.393 . S
C209 C208 1.391 . S
C210 H200 0.950 . S
C210 C211 1.386 . S
C210 C212 1.391 . S
C211 C210 1.386 . S
C211 C215 1.393 . S
C212 H201 0.950 . S
C212 C210 1.391 . S
C212 C213 1.400 . S
C213 C207 1.491 . S
C213 C212 1.400 . S
C213 C214 1.398 . S
C214 H202 0.950 . S
C214 C213 1.398 . S
C214 C215 1.391 . S
C215 H203 0.950 . S
C215 C211 1.393 . S
C215 C214 1.391 . S
H216 C224 0.950 . S
H217 C229 0.950 . S
H218 C226 0.950 . S
H219 C228 0.950 . S
H220 C230 0.950 1_565 S
H221 C232 0.950 . S
H222 C234 0.950 . S
H223 C235 0.950 . S
C224 H216 0.950 . S
C224 C225 1.386 . S
C224 C226 1.391 . S
C225 C224 1.386 . S
C225 C229 1.393 . S
C226 H218 0.950 . S
C226 C224 1.391 . S
C226 C227 1.400 . S
C227 C226 1.400 . S
C227 C228 1.398 . S
C227 C233 1.491 . S
C228 H219 0.950 . S
C228 C227 1.398 . S
C228 C229 1.391 . S
C229 H217 0.950 . S
C229 C225 1.393 . S
C229 C228 1.391 . S
C230 H220 0.950 1_545 S
C230 C231 1.386 1_655 S
C230 C232 1.391 1_655 S
C231 C230 1.386 1_455 S
C231 C235 1.393 . S
C232 H221 0.950 . S
C232 C230 1.391 1_455 S
C232 C233 1.400 . S
C233 C227 1.491 . S
C233 C232 1.400 . S
C233 C234 1.398 . S
C234 H222 0.950 . S
C234 C233 1.398 . S
C234 C235 1.391 . S
C235 H223 0.950 . S
C235 C231 1.393 . S
C235 C234 1.391 . S
H236 C244 0.950 . S
H237 C249 0.950 . S
H238 C246 0.950 . S
H239 C248 0.950 . S
H240 C250 0.950 . S
H241 C252 0.950 . S
H242 C254 0.950 . S
H243 C255 0.950 . S
C244 H236 0.950 . S
C244 C245 1.386 . S
C244 C246 1.391 . S
C245 C244 1.386 . S
C245 C249 1.393 . S
C246 H238 0.950 . S
C246 C244 1.391 . S
C246 C247 1.400 . S
C247 C246 1.400 . S
C247 C248 1.398 . S
C247 C253 1.491 . S
C248 H239 0.950 . S
C248 C247 1.398 . S
C248 C249 1.391 . S
C249 H237 0.950 . S
C249 C245 1.393 . S
C249 C248 1.391 . S
C250 H240 0.950 . S
C250 C251 1.386 . S
C250 C252 1.391 . S
C251 C250 1.386 . S
C251 C255 1.393 . S
C252 H241 0.950 . S
C252 C250 1.391 . S
C252 C253 1.400 . S
C253 C247 1.491 . S
C253 C252 1.400 . S
C253 C254 1.398 . S
C254 H242 0.950 . S
C254 C253 1.398 . S
C254 C255 1.391 . S
C255 H243 0.950 . S
C255 C251 1.393 . S
C255 C254 1.391 . S
H256 C264 0.950 . S
H257 C269 0.950 . S
H258 C266 0.950 . S
H259 C268 0.950 . S
H260 C270 0.946 . S
H261 C272 0.950 . S
H262 C274 0.951 . S
H263 C275 0.950 . S
C264 H256 0.950 . S
C264 C265 1.386 . S
C264 C266 1.391 . S
C265 C264 1.386 . S
C265 C269 1.393 1_455 S
C266 H258 0.950 . S
C266 C264 1.391 . S
C266 C267 1.400 1_455 S
C267 C266 1.400 1_655 S
C267 C268 1.398 . S
C267 C273 1.491 . S
C268 H259 0.950 . S
C268 C267 1.398 . S
C268 C269 1.391 . S
C269 H257 0.950 . S
C269 C265 1.393 1_655 S
C269 C268 1.391 . S
C270 H260 0.946 . S
C270 C271 1.386 . S
C270 C272 1.391 1_545 S
C271 C270 1.386 . S
C271 C275 1.393 1_655 S
C272 H261 0.950 . S
C272 C270 1.391 1_565 S
C272 C273 1.400 . S
C273 C267 1.491 . S
C273 C272 1.400 . S
C273 C274 1.398 1_655 S
C274 H262 0.951 . S
C274 C273 1.398 1_455 S
C274 C275 1.390 1_565 S
C275 H263 0.950 . S
C275 C271 1.393 1_455 S
C275 C274 1.390 1_545 S
C105 C6 1.204 . S
C111 C4 1.212 . S
C125 C38 1.206 . S
C131 C36 1.215 . S
C145 C66 1.220 . S
C151 C93 1.223 . S
C165 C68 1.213 . S
C171 C70 1.206 . S
C185 C2 1.214 . S
C191 C29 1.221 . S
C205 C34 1.220 . S
C211 C61 1.224 . S
C225 N50 1.574 . S
C231 N13 1.586 1_455 S
C245 N45 1.582 . S
C251 N77 1.576 1_545 S
C265 N82 1.570 . S
C271 N18 1.588 . S
