# Generated by pormake.
# Topology hjm, (4)-cn, num edge types: 1
# Building blocks:
#     Node 0, Type 0, BuildingBlock: KUFVIS_clean_sbu_0, # of connection points: 4
#     Node 1, Type 0, BuildingBlock: KUFVIS_clean_sbu_0, # of connection points: 4
#     Node 2, Type 0, BuildingBlock: KUFVIS_clean_sbu_0, # of connection points: 4
#     Node 3, Type 0, BuildingBlock: KUFVIS_clean_sbu_0, # of connection points: 4
#     Node 4, Type 0, BuildingBlock: KUFVIS_clean_sbu_0, # of connection points: 4
#     Node 5, Type 0, BuildingBlock: KUFVIS_clean_sbu_0, # of connection points: 4
#     Node 6, Type 0, BuildingBlock: KUFVIS_clean_sbu_0, # of connection points: 4
#     Node 7, Type 0, BuildingBlock: KUFVIS_clean_sbu_0, # of connection points: 4
#     Edge 8, Type (0, 0), BuildingBlock: XUDNAN_clean_linker_2, # of connection points: 2
#     Edge 9, Type (0, 0), BuildingBlock: XUDNAN_clean_linker_2, # of connection points: 2
#     Edge 10, Type (0, 0), BuildingBlock: XUDNAN_clean_linker_2, # of connection points: 2
#     Edge 11, Type (0, 0), BuildingBlock: XUDNAN_clean_linker_2, # of connection points: 2
#     Edge 12, Type (0, 0), BuildingBlock: XUDNAN_clean_linker_2, # of connection points: 2
#     Edge 13, Type (0, 0), BuildingBlock: XUDNAN_clean_linker_2, # of connection points: 2
#     Edge 14, Type (0, 0), BuildingBlock: XUDNAN_clean_linker_2, # of connection points: 2
#     Edge 15, Type (0, 0), BuildingBlock: XUDNAN_clean_linker_2, # of connection points: 2
#     Edge 16, Type (0, 0), BuildingBlock: XUDNAN_clean_linker_2, # of connection points: 2
#     Edge 17, Type (0, 0), BuildingBlock: XUDNAN_clean_linker_2, # of connection points: 2
#     Edge 18, Type (0, 0), BuildingBlock: XUDNAN_clean_linker_2, # of connection points: 2
#     Edge 19, Type (0, 0), BuildingBlock: XUDNAN_clean_linker_2, # of connection points: 2
#     Edge 20, Type (0, 0), BuildingBlock: XUDNAN_clean_linker_2, # of connection points: 2
#     Edge 21, Type (0, 0), BuildingBlock: XUDNAN_clean_linker_2, # of connection points: 2
#     Edge 22, Type (0, 0), BuildingBlock: XUDNAN_clean_linker_2, # of connection points: 2
#     Edge 23, Type (0, 0), BuildingBlock: XUDNAN_clean_linker_2, # of connection points: 2
# Relax obj value: 0.063
# Max RMSD: 0.109
# Mean RMSD: 0.108
data_MOF--net-hjm--node1-KUFVIS_clean_sbu_0--edge1-XUDNAN_clean_linker_2
_symmetry_space_group_name_H-M    P1
_symmetry_Int_Tables_number       1
_symmetry_cell_setting            triclinic
loop_
_symmetry_equiv_pos_as_xyz
'x, y, z'
_cell_length_a     26.584031
_cell_length_b     22.987955
_cell_length_c     25.679548
_cell_angle_alpha  90.113145
_cell_angle_beta   57.160894
_cell_angle_gamma 89.886346
loop_
_atom_site_label
_atom_site_type_symbol
_atom_site_fract_x
_atom_site_fract_y
_atom_site_fract_z
_atom_type_partial_charge
Mn0 Mn 0.21697 0.24584 0.31126 0.0
Mn1 Mn 0.2475 0.38441 0.25794 0.0
C2 C 0.16218 0.32555 0.37481 0.0
C3 C 0.16425 0.15682 0.33932 0.0
C4 C 0.32506 0.31759 0.29044 0.0
O5 O 0.25885 0.23276 0.21672 0.0
O6 O 0.2826 0.32689 0.1905 0.0
C7 C 0.1782 0.38376 0.19812 0.0
N8 N 0.19046 0.40829 0.23841 0.0
C9 C 0.12141 0.48683 0.26076 0.0
C10 C 0.1085 0.46259 0.21916 0.0
C11 C 0.13674 0.41063 0.18802 0.0
C12 C 0.16282 0.45782 0.26929 0.0
H13 H 0.19992 0.3441 0.17364 0.0
C14 C 0.2835 0.2734 0.17628 0.0
O15 O 0.21709 0.16115 0.33002 0.0
O16 O 0.14346 0.20328 0.32848 0.0
N17 N 0.21485 0.44599 0.31794 0.0
C18 C 0.23244 0.46404 0.35618 0.0
C19 C 0.20995 0.51645 0.38908 0.0
C20 C 0.16881 0.54945 0.38314 0.0
C21 C 0.1511 0.53003 0.34372 0.0
C22 C 0.17638 0.47823 0.31075 0.0
H23 H 0.26385 0.43896 0.361 0.0
O24 O 0.16781 0.27831 0.39888 0.0
O25 O 0.19091 0.32607 0.31506 0.0
O26 O 0.29716 0.26955 0.30102 0.0
O27 O 0.30815 0.3645 0.27758 0.0
C28 C 0.10987 0.56035 0.33536 0.0
C29 C 0.09473 0.53855 0.2942 0.0
H30 H 0.07702 0.48344 0.21074 0.0
H31 H 0.12687 0.39154 0.15598 0.0
H32 H 0.22436 0.5314 0.41895 0.0
H33 H 0.1512 0.58969 0.40898 0.0
H34 H 0.08938 0.60035 0.36051 0.0
H35 H 0.06264 0.56199 0.2885 0.0
Mn36 Mn 0.83775 0.26218 0.19366 0.0
Mn37 Mn 0.7968 0.38358 0.2827 0.0
C38 C 0.8699 0.35445 0.14905 0.0
C39 C 0.90463 0.18488 0.13892 0.0
C40 C 0.70993 0.3098 0.26756 0.0
O41 O 0.81767 0.23178 0.27867 0.0
O42 O 0.80781 0.31856 0.32618 0.0
C43 C 0.89578 0.414 0.29925 0.0
N44 N 0.86213 0.42673 0.27544 0.0
C45 C 0.90762 0.52144 0.2434 0.0
C46 C 0.94476 0.5078 0.26478 0.0
C47 C 0.9385 0.45395 0.29325 0.0
C48 C 0.86619 0.47952 0.25021 0.0
H49 H 0.88866 0.37465 0.32446 0.0
C50 C 0.81462 0.26296 0.32199 0.0
O51 O 0.8486 0.18234 0.15746 0.0
O52 O 0.92147 0.23145 0.15404 0.0
N53 N 0.78852 0.44812 0.24046 0.0
C54 C 0.74962 0.45502 0.22184 0.0
C55 C 0.74893 0.50742 0.19434 0.0
C56 C 0.78822 0.55227 0.18617 0.0
C57 C 0.8286 0.54404 0.20456 0.0
C58 C 0.82731 0.49078 0.23166 0.0
H59 H 0.71931 0.42094 0.2277 0.0
O60 O 0.86675 0.31211 0.1173 0.0
O61 O 0.85114 0.34211 0.2056 0.0
O62 O 0.74865 0.27648 0.22462 0.0
O63 O 0.72401 0.34622 0.29515 0.0
C64 C 0.87017 0.58658 0.19686 0.0
C65 C 0.90975 0.57524 0.21614 0.0
H66 H 0.97729 0.53883 0.26076 0.0
H67 H 0.96567 0.44372 0.3117 0.0
H68 H 0.71807 0.51329 0.1796 0.0
H69 H 0.78748 0.59263 0.16509 0.0
H70 H 0.87208 0.6282 0.17615 0.0
H71 H 0.94153 0.60827 0.20996 0.0
Mn72 Mn 0.82505 0.75025 0.69116 0.0
Mn73 Mn 0.95146 0.74121 0.69236 0.0
C74 C 0.826 0.77844 0.7787 0.0
C75 C 0.73262 0.71584 0.71033 0.0
C76 C 0.9353 0.82784 0.61309 0.0
O77 O 0.87628 0.6888 0.62326 0.0
O78 O 0.95244 0.67925 0.63842 0.0
C79 C 0.93297 0.62795 0.75518 0.0
N80 N 0.94268 0.68631 0.75261 0.0
C81 C 0.94657 0.68296 0.84403 0.0
C82 C 0.93723 0.62277 0.84722 0.0
C83 C 0.93019 0.59517 0.80274 0.0
C84 C 0.94862 0.7134 0.79575 0.0
H85 H 0.92647 0.60676 0.72181 0.0
C86 C 0.92369 0.66301 0.61381 0.0
O87 O 0.76306 0.75601 0.67011 0.0
O88 O 0.75709 0.693 0.73776 0.0
N89 N 0.95321 0.79898 0.74521 0.0
C90 C 0.95756 0.85785 0.73821 0.0
C91 C 0.96378 0.8921 0.77972 0.0
C92 C 0.96586 0.86548 0.82767 0.0
C93 C 0.96051 0.8049 0.83447 0.0
C94 C 0.95447 0.77302 0.79167 0.0
H95 H 0.9571 0.87853 0.70079 0.0
O96 O 0.78665 0.8004 0.7691 0.0
O97 O 0.86438 0.74412 0.73546 0.0
O98 O 0.88029 0.81619 0.63617 0.0
O99 O 0.96692 0.80043 0.62875 0.0
C100 C 0.96063 0.77491 0.8822 0.0
C101 C 0.95291 0.7141 0.88742 0.0
H102 H 0.93446 0.59748 0.88412 0.0
H103 H 0.92241 0.54878 0.80525 0.0
H104 H 0.96771 0.93886 0.7743 0.0
H105 H 0.97132 0.89201 0.85916 0.0
H106 H 0.96571 0.79829 0.91573 0.0
H107 H 0.95142 0.69181 0.9253 0.0
Mn108 Mn 0.23004 0.75322 0.82083 0.0
Mn109 Mn 0.10606 0.74866 0.81373 0.0
C110 C 0.23617 0.76626 0.72733 0.0
C111 C 0.3171 0.71622 0.81257 0.0
C112 C 0.13183 0.84799 0.87353 0.0
O113 O 0.17079 0.70532 0.89854 0.0
O114 O 0.09391 0.70334 0.88428 0.0
C115 C 0.10225 0.62354 0.78832 0.0
N116 N 0.10515 0.68027 0.77177 0.0
C117 C 0.09534 0.6539 0.68693 0.0
C118 C 0.09192 0.59524 0.70335 0.0
C119 C 0.09565 0.58 0.75408 0.0
C120 C 0.10201 0.69536 0.72276 0.0
H121 H 0.10472 0.61157 0.82746 0.0
C122 C 0.11865 0.68796 0.91321 0.0
O123 O 0.28996 0.76254 0.8442 0.0
O124 O 0.29192 0.68864 0.78828 0.0
N125 N 0.11408 0.79045 0.74526 0.0
C126 C 0.11929 0.84885 0.73488 0.0
C127 C 0.11678 0.87129 0.68552 0.0
C128 C 0.1084 0.83351 0.6478 0.0
C129 C 0.10411 0.77352 0.65875 0.0
C130 C 0.10678 0.75371 0.70869 0.0
H131 H 0.12432 0.87815 0.76467 0.0
O132 O 0.27606 0.78924 0.73543 0.0
O133 O 0.19283 0.73961 0.7746 0.0
O134 O 0.18215 0.82836 0.86072 0.0
O135 O 0.0997 0.8214 0.85826 0.0
C136 C 0.09666 0.73267 0.62248 0.0
C137 C 0.09244 0.67286 0.63645 0.0
H138 H 0.0864 0.56152 0.67744 0.0
H139 H 0.09298 0.53481 0.76707 0.0
H140 H 0.12031 0.91766 0.67715 0.0
H141 H 0.10522 0.85107 0.61058 0.0
H142 H 0.0943 0.74679 0.58363 0.0
H143 H 0.08699 0.64184 0.60808 0.0
Mn144 Mn 0.6708 0.75678 0.3414 0.0
Mn145 Mn 0.72319 0.89134 0.28313 0.0
C146 C 0.63065 0.83916 0.40542 0.0
C147 C 0.60848 0.67363 0.37355 0.0
C148 C 0.79157 0.80566 0.311 0.0
O149 O 0.70739 0.74374 0.24851 0.0
O150 O 0.74158 0.83484 0.2165 0.0
C151 C 0.65345 0.92165 0.2279 0.0
N152 N 0.67278 0.93505 0.26589 0.0
C153 C 0.65108 0.03666 0.26531 0.0
C154 C 0.63085 0.02402 0.22619 0.0
C155 C 0.63113 0.9661 0.20825 0.0
C156 C 0.67018 0.99018 0.28561 0.0
H157 H 0.6562 0.87763 0.21179 0.0
C158 C 0.7334 0.78233 0.206 0.0
O159 O 0.66285 0.67198 0.35999 0.0
O160 O 0.59055 0.72326 0.36467 0.0
N161 N 0.70831 0.95165 0.341 0.0
C162 C 0.72551 0.95527 0.38211 0.0
C163 C 0.72208 1.00916 0.40982 0.0
C164 C 0.70354 0.059 0.39284 0.0
C165 C 0.68706 0.05419 0.34954 0.0
C166 C 0.68829 0.99885 0.32618 0.0
H167 H 0.74258 0.91749 0.39274 0.0
O168 O 0.63219 0.78843 0.4268 0.0
O169 O 0.65559 0.84202 0.34556 0.0
O170 O 0.75417 0.76468 0.32701 0.0
O171 O 0.78308 0.85546 0.29594 0.0
C172 C 0.6703 0.10212 0.32789 0.0
C173 C 0.65279 0.09342 0.2854 0.0
H174 H 0.61486 0.05835 0.20984 0.0
H175 H 0.61572 0.95601 0.17796 0.0
H176 H 0.73534 0.01264 0.4428 0.0
H177 H 0.70231 0.10068 0.41315 0.0
H178 H 0.67005 0.14572 0.34413 0.0
H179 H 0.63935 0.13044 0.26973 0.0
Mn180 Mn 0.31922 0.77046 0.19165 0.0
Mn181 Mn 0.26591 0.89623 0.27329 0.0
C182 C 0.34709 0.86164 0.14273 0.0
C183 C 0.38948 0.69444 0.1426 0.0
C184 C 0.18934 0.81233 0.25388 0.0
O185 O 0.29354 0.74602 0.28034 0.0
O186 O 0.26888 0.83531 0.32514 0.0
C187 C 0.36705 0.92232 0.28769 0.0
N188 N 0.32908 0.93908 0.27031 0.0
C189 C 0.37373 0.03415 0.24175 0.0
C190 C 0.41178 0.01858 0.26155 0.0
C191 C 0.40886 0.96218 0.28398 0.0
C192 C 0.33311 0.99248 0.24644 0.0
H193 H 0.36642 0.87849 0.30276 0.0
C194 C 0.2786 0.78083 0.32589 0.0
O195 O 0.33418 0.68912 0.15948 0.0
O196 O 0.40394 0.74321 0.1569 0.0
N197 N 0.26239 0.95919 0.22671 0.0
C198 C 0.2256 0.96588 0.20546 0.0
C199 C 0.22378 0.01947 0.18044 0.0
C200 C 0.25967 0.06562 0.17764 0.0
C201 C 0.2981 0.0574 0.1986 0.0
C202 C 0.29732 1.00331 0.22392 0.0
H203 H 0.19728 0.93086 0.20829 0.0
O204 O 0.34946 0.8157 0.11191 0.0
O205 O 0.32604 0.85282 0.20043 0.0
O206 O 0.23185 0.77787 0.21801 0.0
O207 O 0.19665 0.85699 0.27866 0.0
C208 C 0.33732 0.10064 0.19514 0.0
C209 C 0.37547 0.08887 0.21621 0.0
H210 H 0.44424 0.04914 0.2585 0.0
H211 H 0.43906 0.94933 0.29793 0.0
H212 H 0.19442 0.02537 0.16381 0.0
H213 H 0.25787 0.10697 0.1586 0.0
H214 H 0.33928 0.14277 0.17535 0.0
H215 H 0.40631 0.12205 0.21212 0.0
Mn216 Mn 0.2817 0.25583 0.71557 0.0
Mn217 Mn 0.41336 0.25227 0.70627 0.0
C218 C 0.28871 0.2958 0.79567 0.0
C219 C 0.18954 0.21548 0.74234 0.0
C220 C 0.39062 0.32891 0.6246 0.0
O221 O 0.32898 0.18987 0.65264 0.0
O222 O 0.40576 0.18157 0.66659 0.0
C223 C 0.39778 0.15038 0.7838 0.0
N224 N 0.40897 0.20805 0.77148 0.0
C225 C 0.4327 0.21844 0.84898 0.0
C226 C 0.4229 0.1589 0.86114 0.0
C227 C 0.4044 0.12478 0.82923 0.0
C228 C 0.42489 0.24154 0.80352 0.0
H229 H 0.38513 0.12413 0.75831 0.0
C230 C 0.37437 0.16275 0.64593 0.0
O231 O 0.21728 0.25314 0.69825 0.0
O232 O 0.21583 0.19997 0.77057 0.0
N233 N 0.4254 0.3181 0.74433 0.0
C234 C 0.43414 0.37494 0.72642 0.0
C235 C 0.45228 0.41485 0.75455 0.0
C236 C 0.46221 0.39588 0.80018 0.0
C237 C 0.45336 0.33723 0.81762 0.0
C238 C 0.43465 0.29957 0.7884 0.0
H239 H 0.42734 0.38996 0.69103 0.0
O240 O 0.24648 0.31255 0.78795 0.0
O241 O 0.32572 0.25825 0.75562 0.0
O242 O 0.33459 0.31919 0.65321 0.0
O243 O 0.42469 0.3015 0.63702 0.0
C244 C 0.46168 0.31477 0.86338 0.0
C245 C 0.45106 0.25546 0.87932 0.0
H246 H 0.42944 0.13901 0.89488 0.0
H247 H 0.39642 0.07873 0.83879 0.0
H248 H 0.45918 0.46004 0.74063 0.0
H249 H 0.47652 0.42669 0.82156 0.0
H250 H 0.47549 0.34286 0.88719 0.0
H251 H 0.45694 0.23883 0.9151 0.0
Mn252 Mn 0.71089 0.25891 0.82467 0.0
Mn253 Mn 0.59402 0.26952 0.80732 0.0
C254 C 0.72801 0.28309 0.728 0.0
C255 C 0.78971 0.21179 0.82369 0.0
C256 C 0.61953 0.35926 0.87689 0.0
O257 O 0.64724 0.20973 0.89619 0.0
O258 O 0.57341 0.21784 0.87817 0.0
C259 C 0.579 0.14892 0.77748 0.0
N260 N 0.58776 0.20646 0.76275 0.0
C261 C 0.55833 0.19468 0.68975 0.0
C262 C 0.54915 0.13522 0.70397 0.0
C263 C 0.56049 0.11208 0.74728 0.0
C264 C 0.5795 0.2286 0.71918 0.0
H265 H 0.58479 0.13159 0.81295 0.0
C266 C 0.59516 0.19699 0.9082 0.0
O267 O 0.76312 0.25693 0.85799 0.0
O268 O 0.76966 0.19221 0.79076 0.0
N269 N 0.60802 0.31682 0.73965 0.0
C270 C 0.62174 0.3744 0.72946 0.0
C271 C 0.61876 0.40314 0.68295 0.0
C272 C 0.59976 0.37281 0.64901 0.0
C273 C 0.58513 0.3137 0.66102 0.0
C274 C 0.59159 0.28686 0.70593 0.0
H275 H 0.63387 0.39828 0.75734 0.0
O276 O 0.76325 0.30072 0.74531 0.0
O277 O 0.68077 0.25449 0.76961 0.0
O278 O 0.66601 0.33427 0.86849 0.0
O279 O 0.59023 0.33864 0.85522 0.0
C280 C 0.56282 0.28072 0.63151 0.0
C281 C 0.54885 0.22137 0.64632 0.0
H282 H 0.53358 0.10694 0.6818 0.0
H283 H 0.55314 0.06633 0.7588 0.0
H284 H 0.62944 0.44893 0.67447 0.0
H285 H 0.5958 0.3955 0.61446 0.0
H286 H 0.55631 0.30052 0.59734 0.0
H287 H 0.53225 0.19631 0.62297 0.0
H288 H 0.18522 0.06368 0.39306 0.0
H289 H 0.05683 0.13142 0.35364 0.0
H290 H 0.98784 0.05118 0.41368 0.0
H291 H 0.15159 0.90643 0.39163 0.0
H292 H 0.16094 0.89001 0.45449 0.0
H293 H 0.20282 0.94842 0.40187 0.0
H294 H 0.16053 0.0188 0.49577 0.0
H295 H 0.11765 0.96065 0.54798 0.0
H296 H 0.08059 0.02642 0.54798 0.0
H297 H 0.92858 0.96974 0.48609 0.0
H298 H 0.8846 0.89017 0.56185 0.0
H299 H 0.04988 0.87438 0.55717 0.0
C300 C 0.14315 0.06089 0.39587 0.0
C301 C 0.12666 0.10395 0.36816 0.0
C302 C 0.07071 0.09907 0.37402 0.0
C303 C 0.03113 0.05357 0.40817 0.0
C304 C 0.04788 0.01302 0.43649 0.0
C305 C 0.10277 0.01587 0.43038 0.0
C306 C 0.10812 0.96863 0.46869 0.0
C307 C 0.15889 0.92584 0.42667 0.0
C308 C 0.11724 0.99524 0.51803 0.0
C309 C 0.04714 0.93971 0.49834 0.0
C310 C 0.01341 0.96586 0.47867 0.0
C311 C 0.95488 0.94852 0.50121 0.0
C312 C 0.93013 0.90324 0.54466 0.0
C313 C 0.96344 0.87546 0.56596 0.0
C314 C 0.02305 0.89416 0.54191 0.0
H315 H 0.01762 0.89437 0.93095 0.0
H316 H 0.19316 0.92697 0.89893 0.0
H317 H 0.15429 0.01622 0.96241 0.0
H318 H 0.97905 0.04448 0.92702 0.0
H319 H 0.90138 0.03658 0.98825 0.0
H320 H 0.94235 0.97545 0.93931 0.0
H321 H 0.91589 0.91384 0.03473 0.0
H322 H 0.87374 0.97401 0.08467 0.0
H323 H 0.93277 0.94121 0.08943 0.0
H324 H 0.09624 0.10154 0.03085 0.0
H325 H 0.02314 0.17657 0.09898 0.0
H326 H 0.88446 0.08813 0.08894 0.0
C327 C 0.04812 0.92046 0.93677 0.0
C328 C 0.10873 0.90336 0.90955 0.0
C329 C 0.14668 0.93879 0.91911 0.0
C330 C 0.12499 0.98971 0.95516 0.0
C331 C 0.06503 1.00484 0.98182 0.0
C332 C 0.02707 0.97129 0.97311 0.0
C333 C 0.96417 0.99674 1.00807 0.0
C334 C 0.94566 0.01439 0.96298 0.0
C335 C 0.919 0.9539 0.05713 0.0
C336 C 0.97272 0.04969 0.038 0.0
C337 C 0.03132 0.05362 0.02201 0.0
C338 C 0.05021 0.09883 0.04372 0.0
C339 C 1.00828 0.14126 0.08257 0.0
C340 C 0.9479 0.13827 0.09974 0.0
C341 C 0.93013 0.09158 0.07709 0.0
H342 H 0.49843 0.38479 0.57892 0.0
H343 H 0.34182 0.38479 0.56682 0.0
H344 H 0.38164 0.47042 0.49769 0.0
H345 H 0.50244 0.54084 0.58872 0.0
H346 H 0.58296 0.54332 0.54738 0.0
H347 H 0.54342 0.48007 0.59217 0.0
H348 H 0.60727 0.41572 0.49534 0.0
H349 H 0.64639 0.47865 0.44942 0.0
H350 H 0.60864 0.43088 0.42591 0.0
H351 H 0.43651 0.56211 0.43483 0.0
H352 H 0.50283 0.64687 0.38175 0.0
H353 H 0.62234 0.58551 0.43589 0.0
C354 C 0.47264 0.40212 0.56125 0.0
C355 C 0.41685 0.37743 0.57844 0.0
C356 C 0.38462 0.40253 0.55451 0.0
C357 C 0.4069 0.45136 0.51518 0.0
C358 C 0.46128 0.47539 0.50053 0.0
C359 C 0.49357 0.45151 0.5231 0.0
C360 C 0.54872 0.48746 0.50414 0.0
C361 C 0.54409 0.51452 0.56149 0.0
C362 C 0.60617 0.45101 0.46644 0.0
C363 C 0.54408 0.53384 0.46487 0.0
C364 C 0.49277 0.52703 0.46425 0.0
C365 C 0.4772 0.56726 0.43439 0.0
C366 C 0.51505 0.61537 0.40437 0.0
C367 C 0.56838 0.62246 0.40354 0.0
C368 C 0.5827 0.58078 0.43424 0.0
H369 H 0.3833 0.61419 0.06773 0.0
H370 H 0.49697 0.6711 0.13086 0.0
H371 H 0.57007 0.59321 0.06774 0.0
H372 H 0.40801 0.46133 0.06347 0.0
H373 H 0.40918 0.4508 0.99324 0.0
H374 H 0.36695 0.51 0.04448 0.0
H375 H 0.42568 0.58087 0.95154 0.0
H376 H 0.46865 0.52104 0.90142 0.0
H377 H 0.50628 0.5822 0.90941 0.0
H378 H 0.62864 0.50506 1.00016 0.0
H379 H 0.66883 0.41831 0.93234 0.0
H380 H 0.51859 0.42358 0.90949 0.0
C381 C 0.42346 0.61016 0.06854 0.0
C382 C 0.4341 0.64828 0.10492 0.0
C383 C 0.48779 0.64225 0.10361 0.0
C384 C 0.52952 0.59814 0.06785 0.0
C385 C 0.51751 0.56118 0.03259 0.0
C386 C 0.46605 0.56737 0.03211 0.0
C387 C 0.46412 0.52322 0.98923 0.0
C388 C 0.40875 0.48402 0.02485 0.0
C389 C 0.46632 0.55366 0.93469 0.0
C390 C 0.5214 0.48957 0.96736 0.0
C391 C 0.55185 0.51225 0.9925 0.0
C392 C 0.60526 0.48733 0.97997 0.0
C393 C 0.62778 0.43791 0.94128 0.0
C394 C 0.59711 0.41359 0.91524 0.0
C395 C 0.54343 0.4406 0.92833 0.0
H396 H 0.87742 0.43499 0.06553 0.0
H397 H 0.96217 0.37868 0.1611 0.0
H398 H 0.03296 0.46068 0.11649 0.0
H399 H 0.01841 0.47382 0.9274 0.0
H400 H 0.99061 0.53529 0.90725 0.0
H401 H 0.94181 0.47492 0.94821 0.0
H402 H 0.86347 0.54005 0.04149 0.0
H403 H 0.90844 0.60028 0.99498 0.0
H404 H 0.89125 0.59249 0.07239 0.0
H405 H 0.09439 0.55134 0.06177 0.0
H406 H 0.14558 0.6367 0.99383 0.0
H407 H 0.01888 0.63125 0.93658 0.0
C408 C 0.91079 0.44028 0.07701 0.0
C409 C 0.91329 0.402 0.1182 0.0
C410 C 0.95866 0.40887 0.13086 0.0
C411 C 0.99911 0.45518 0.10574 0.0
C412 C 0.99418 0.49385 0.06719 0.0
C413 C 0.95175 0.48636 0.05211 0.0
C414 C 0.95911 0.53136 1.00574 0.0
C415 C 0.97856 0.50212 0.94352 0.0
C416 C 0.9021 0.56807 0.03022 0.0
C417 C 1.00938 0.56709 1.00044 0.0
C418 C 0.03001 0.54463 0.03515 0.0
C419 C 0.07837 0.56958 0.0345 0.0
C420 C 0.10697 0.61822 0.99618 0.0
C421 C 0.08629 0.64157 0.96007 0.0
C422 C 0.03602 0.61575 0.9638 0.0
H423 H 0.13138 0.38114 0.48408 0.0
H424 H 0.08131 0.36364 0.34996 0.0
H425 H 1.00793 0.44344 0.40084 0.0
H426 H 0.97194 0.41618 0.61418 0.0
H427 H 0.99575 0.46411 0.65231 0.0
H428 H 0.04121 0.40215 0.60913 0.0
H429 H 0.13558 0.47009 0.53542 0.0
H430 H 0.08776 0.52503 0.58995 0.0
H431 H 0.11977 0.53664 0.50939 0.0
H432 H 0.95085 0.53528 0.45698 0.0
H433 H 0.90695 0.62418 0.5218 0.0
H434 H 0.99261 0.57883 0.61994 0.0
C435 C 0.1043 0.39382 0.46621 0.0
C436 C 0.11338 0.36796 0.41186 0.0
C437 C 0.07616 0.38434 0.39053 0.0
C438 C 0.03411 0.42938 0.4193 0.0
C439 C 0.02856 0.45666 0.47057 0.0
C440 C 0.06155 0.43863 0.49488 0.0
C441 C 0.04557 0.47453 0.55147 0.0
C442 C 0.01159 0.43701 0.61024 0.0
C443 C 0.10062 0.50299 0.54591 0.0
C444 C 1.00436 0.51943 0.55023 0.0
C445 C 0.99339 0.50752 0.50464 0.0
C446 C 0.95827 0.54454 0.49364 0.0
C447 C 0.93377 0.59507 0.53035 0.0
C448 C 0.94602 0.60876 0.57614 0.0
C449 C 0.98162 0.56989 0.58589 0.0
H450 H 0.49592 0.14074 0.92712 0.0
H451 H 0.61614 0.14721 0.9923 0.0
H452 H 0.56387 0.06294 0.06006 0.0
H453 H 0.36472 0.10099 0.06977 0.0
H454 H 0.33577 0.05039 0.03832 0.0
H455 H 0.37995 0.11173 0.99391 0.0
H456 H 0.45995 0.04614 0.90297 0.0
H457 H 0.4127 0.9851 0.94416 0.0
H458 H 0.49006 0.98487 0.92072 0.0
H459 H 0.50528 0.97351 0.11268 0.0
H460 H 0.43726 0.88965 0.15586 0.0
H461 H 0.35262 0.94169 0.05879 0.0
C462 C 0.51078 0.12521 0.95628 0.0
C463 C 0.56011 0.15098 0.95444 0.0
C464 C 0.57847 0.1285 0.99292 0.0
C465 C 0.54916 0.08052 0.03139 0.0
C466 C 0.50186 0.05539 0.03055 0.0
C467 C 0.48257 0.07706 0.99424 0.0
C468 C 0.4317 0.04105 1.00061 0.0
C469 C 0.3746 0.07802 0.02721 0.0
C470 C 0.44963 0.01269 0.93847 0.0
C471 C 0.42518 0.99558 0.04647 0.0
C472 C 0.46664 1.00454 0.0625 0.0
C473 C 0.47204 0.9667 0.1013 0.0
C474 C 0.4332 0.91928 0.12557 0.0
C475 C 0.38894 0.9103 0.11175 0.0
C476 C 0.38557 0.94821 0.07066 0.0
H477 H 0.57569 0.93128 0.38374 0.0
H478 H 0.58419 0.84484 0.52889 0.0
H479 H 0.50222 0.90699 0.60695 0.0
H480 H 0.55901 0.07288 0.44392 0.0
H481 H 0.50708 0.09966 0.42469 0.0
H482 H 0.55723 0.04171 0.38017 0.0
H483 H 0.47308 0.97492 0.39873 0.0
H484 H 0.42132 0.03326 0.44192 0.0
H485 H 0.41124 0.96317 0.47724 0.0
H486 H 0.4172 0.97528 0.67001 0.0
H487 H 0.35872 0.06558 0.71166 0.0
H488 H 0.42004 0.12295 0.52608 0.0
C489 C 0.56161 0.92655 0.43159 0.0
C490 C 0.5875 0.8835 0.44969 0.0
C491 C 0.56555 0.8774 0.5135 0.0
C492 C 0.51833 0.91202 0.55842 0.0
C493 C 0.49341 0.95329 0.53916 0.0
C494 C 0.51526 0.96211 0.47727 0.0
C495 C 0.48445 0.01433 0.4695 0.0
C496 C 0.52979 0.06015 0.4272 0.0
C497 C 0.44523 0.99523 0.44538 0.0
C498 C 0.44615 0.03606 0.53574 0.0
C499 C 0.44896 0.99758 0.57539 0.0
C500 C 0.41629 1.00654 0.63907 0.0
C501 C 0.38399 0.05844 0.66223 0.0
C502 C 0.38781 0.10248 0.62182 0.0
C503 C 0.41672 0.09008 0.55793 0.0
H504 H 0.29929 0.84765 0.399 0.0
H505 H 0.25373 0.67094 0.38027 0.0
H506 H 0.24554 0.64556 0.47891 0.0
H507 H 0.39007 0.80283 0.46414 0.0
H508 H 0.36854 0.86733 0.51149 0.0
H509 H 0.37721 0.86984 0.43677 0.0
H510 H 0.27352 0.9118 0.48739 0.0
H511 H 0.25568 0.90598 0.56545 0.0
H512 H 0.20958 0.87072 0.54303 0.0
H513 H 0.23946 0.6427 0.58194 0.0
H514 H 0.22816 0.66271 0.68234 0.0
H515 H 0.27631 0.84284 0.63057 0.0
C516 C 0.28931 0.80297 0.41397 0.0
C517 C 0.27756 0.76112 0.38139 0.0
C518 C 0.26336 0.70356 0.40415 0.0
C519 C 0.25887 0.68888 0.4599 0.0
C520 C 0.2706 0.7319 0.49067 0.0
C521 C 0.28664 0.78749 0.46756 0.0
C522 C 0.29525 0.82689 0.5094 0.0
C523 C 0.36171 0.84267 0.47857 0.0
C524 C 0.25612 0.88201 0.5276 0.0
C525 C 0.27554 0.78655 0.56337 0.0
C526 C 0.26421 0.73122 0.5505 0.0
C527 C 0.24774 0.68589 0.59244 0.0
C528 C 0.241 0.69782 0.64944 0.0
C529 C 0.24885 0.75489 0.6648 0.0
C530 C 0.26848 0.79929 0.62039 0.0
H531 H 0.8076 0.86137 0.86689 0.0
H532 H 0.80956 0.67588 0.83499 0.0
H533 H 0.78991 0.65598 0.93861 0.0
H534 H 0.87498 0.86038 0.96045 0.0
H535 H 0.82504 0.91654 1.01026 0.0
H536 H 0.84506 0.91217 0.9312 0.0
H537 H 0.72929 0.91019 0.97747 0.0
H538 H 0.7131 0.90912 0.05529 0.0
H539 H 0.68501 0.85224 0.02946 0.0
H540 H 0.76899 0.65513 0.04609 0.0
H541 H 0.74438 0.67511 0.15231 0.0
H542 H 0.75836 0.86032 0.1144 0.0
C543 C 0.80397 0.81677 0.88199 0.0
C544 C 0.81163 0.77002 0.84248 0.0
C545 C 0.80531 0.71218 0.86409 0.0
C546 C 0.79399 0.7004 0.92292 0.0
C547 C 0.78834 0.747 0.96029 0.0
C548 C 0.7926 0.80413 0.94113 0.0
C549 C 0.78113 0.84586 0.99243 0.0
C550 C 0.8348 0.88606 0.9722 0.0
C551 C 0.72372 0.88143 0.01499 0.0
C552 C 0.77264 0.80316 0.04162 0.0
C553 C 0.77603 0.74639 0.02261 0.0
C554 C 0.76678 0.6995 0.06138 0.0
C555 C 0.75323 0.7111 0.12148 0.0
C556 C 0.75049 0.76897 0.14167 0.0
C557 C 0.76088 0.81535 0.10056 0.0
H558 H 0.75186 0.18636 0.42004 0.0
H559 H 0.91614 0.28386 0.31789 0.0
H560 H 0.91589 0.29768 0.4134 0.0
H561 H 0.67513 0.23219 0.55232 0.0
H562 H 0.66138 0.16761 0.59901 0.0
H563 H 0.68112 0.15998 0.52122 0.0
H564 H 0.7664 0.09224 0.50538 0.0
H565 H 0.74454 0.10451 0.58443 0.0
H566 H 0.82017 0.11908 0.52164 0.0
H567 H 0.87238 0.33098 0.52351 0.0
H568 H 0.81777 0.34743 0.63628 0.0
H569 H 0.69987 0.20365 0.6654 0.0
C570 C 0.79016 0.20643 0.41684 0.0
C571 C 0.83141 0.23809 0.36353 0.0
C572 C 0.88152 0.2634 0.36026 0.0
C573 C 0.88238 0.2706 0.41388 0.0
C574 C 0.83676 0.2452 0.46824 0.0
C575 C 0.79583 0.20803 0.46839 0.0
C576 C 0.7541 0.18405 0.53294 0.0
C577 C 0.68883 0.18657 0.5524 0.0
C578 C 0.77241 0.12127 0.53628 0.0
C579 C 0.76755 0.22476 0.57072 0.0
C580 C 0.8173 0.25809 0.53188 0.0
C581 C 0.83516 0.30321 0.5546 0.0
C582 C 0.80307 0.31293 0.6188 0.0
C583 C 0.75345 0.2778 0.6602 0.0
C584 C 0.7359 0.23278 0.63543 0.0
H585 H 0.23931 0.2005 0.12226 0.0
H586 H 0.37398 0.33122 0.08016 0.0
H587 H 0.37488 0.35948 0.98772 0.0
H588 H 0.31207 0.15421 0.95967 0.0
H589 H 0.24443 0.14135 0.96131 0.0
H590 H 0.24586 0.13117 0.03011 0.0
H591 H 0.1593 0.20174 0.09251 0.0
H592 H 0.15373 0.21238 0.02629 0.0
H593 H 0.16271 0.2741 0.06392 0.0
H594 H 0.33728 0.39308 0.92103 0.0
H595 H 0.32065 0.39087 0.83491 0.0
H596 H 0.24042 0.22039 0.89397 0.0
C597 C 0.2715 0.2327 0.09181 0.0
C598 C 0.30516 0.2649 0.10992 0.0
C599 C 0.34671 0.30677 0.06828 0.0
C600 C 0.3467 0.32422 0.01632 0.0
C601 C 0.30855 0.29631 1.00334 0.0
C602 C 0.27553 0.24828 0.03644 0.0
C603 C 0.24439 0.22232 1.00649 0.0
C604 C 0.2628 0.1585 0.98816 0.0
C605 C 0.17599 0.22799 0.0499 0.0
C606 C 0.2678 0.26209 0.95035 0.0
C607 C 0.29977 0.30748 0.9535 0.0
C608 C 0.31607 0.35587 0.91495 0.0
C609 C 0.30642 0.35444 0.8664 0.0
C610 C 0.28374 0.30382 0.85538 0.0
C611 C 0.26114 0.25827 0.89971 0.0
H612 H 0.42059 0.23987 0.24798 0.0
H613 H 0.34919 0.40306 0.34673 0.0
H614 H 0.43489 0.41236 0.35768 0.0
H615 H 0.48936 0.18922 0.33309 0.0
H616 H 0.55442 0.15973 0.26435 0.0
H617 H 0.48385 0.16269 0.27022 0.0
H618 H 0.53522 0.22007 0.16697 0.0
H619 H 0.60528 0.21817 0.16234 0.0
H620 H 0.57362 0.28693 0.16037 0.0
H621 H 0.5272 0.40711 0.35676 0.0
H622 H 0.62751 0.39314 0.33567 0.0
H623 H 0.64897 0.23563 0.2317 0.0
C624 C 0.42287 0.27711 0.27251 0.0
C625 C 0.37746 0.32065 0.29705 0.0
C626 C 0.38284 0.36926 0.32759 0.0
C627 C 0.43146 0.37478 0.33434 0.0
C628 C 0.47548 0.33176 0.30941 0.0
C629 C 0.47245 0.28411 0.27841 0.0
C630 C 0.52889 0.24681 0.25231 0.0
C631 C 0.51317 0.18602 0.28178 0.0
C632 C 0.56275 0.24278 0.18127 0.0
C633 C 0.56419 0.28171 0.27279 0.0
C634 C 0.53135 0.32979 0.30674 0.0
C635 C 0.55323 0.36944 0.33054 0.0
C636 C 0.61055 0.36064 0.31869 0.0
C637 C 0.64675 0.31273 0.28284 0.0
C638 C 0.62271 0.2724 0.25977 0.0
H639 H 0.65238 0.78855 0.70891 0.0
H640 H 0.67225 0.61132 0.7523 0.0
H641 H 0.56886 0.58949 0.7802 0.0
H642 H 0.50059 0.8051 0.83728 0.0
H643 H 0.47937 0.85092 0.79534 0.0
H644 H 0.55565 0.85036 0.77515 0.0
H645 H 0.59214 0.82422 0.66165 0.0
H646 H 0.51593 0.8246 0.68157 0.0
H647 H 0.56215 0.76103 0.64618 0.0
H648 H 0.46207 0.58748 0.79859 0.0
H649 H 0.36118 0.60886 0.81839 0.0
H650 H 0.41009 0.78994 0.77425 0.0
C651 C 0.63527 0.74491 0.72368 0.0
C652 C 0.67083 0.70129 0.72736 0.0
C653 C 0.64603 0.64525 0.74862 0.0
C654 C 0.58738 0.63251 0.76439 0.0
C655 C 0.55352 0.67667 0.76004 0.0
C656 C 0.57652 0.73206 0.74118 0.0
C657 C 0.53035 0.7732 0.74421 0.0
C658 C 0.51563 0.82281 0.79077 0.0
C659 C 0.55141 0.79715 0.67956 0.0
C660 C 0.4777 0.73248 0.76721 0.0
C661 C 0.4919 0.67663 0.77507 0.0
C662 C 0.45054 0.63129 0.79327 0.0
C663 C 0.39341 0.64366 0.80427 0.0
C664 C 0.37764 0.70113 0.7987 0.0
C665 C 0.42059 0.74576 0.77988 0.0
H666 H 0.09704 0.88932 0.28538 0.0
H667 H 0.14453 0.70618 0.25161 0.0
H668 H 0.04569 0.68406 0.26911 0.0
H669 H 0.93824 0.87116 0.40337 0.0
H670 H 0.91523 0.93055 0.37505 0.0
H671 H 0.98781 0.9317 0.36492 0.0
H672 H 0.03844 0.94453 0.24676 0.0
H673 H 0.96623 0.94368 0.25615 0.0
H674 H 0.02342 0.89287 0.20395 0.0
H675 H 0.94255 0.68188 0.28769 0.0
H676 H 0.84546 0.70043 0.29919 0.0
H677 H 0.86681 0.88566 0.31463 0.0
C678 C 0.08644 0.84451 0.28224 0.0
C679 C 0.12868 0.79948 0.2671 0.0
C680 C 0.11313 0.74148 0.26283 0.0
C681 C 0.05693 0.72842 0.27297 0.0
C682 C 0.01674 0.77387 0.28676 0.0
C683 C 0.03088 0.83082 0.29097 0.0
C684 C 0.98108 0.87195 0.30243 0.0
C685 C 0.95397 0.90316 0.36518 0.0
C686 C 1.00366 0.91583 0.24914 0.0
C687 C 0.93707 0.82929 0.30331 0.0
C688 C 0.95815 0.77286 0.29515 0.0
C689 C 0.92558 0.72589 0.2941 0.0
C690 C 0.87033 0.73687 0.30087 0.0
C691 C 0.84838 0.79449 0.30773 0.0
C692 C 0.88236 0.84115 0.30923 0.0
H693 H 0.13786 0.21825 0.67484 0.0
H694 H 0.10355 0.16845 0.8541 0.0
H695 H 0.99791 0.14828 0.89081 0.0
H696 H 1.00713 0.29231 0.72618 0.0
H697 H 0.99658 0.26855 0.66582 0.0
H698 H 0.07064 0.27118 0.6514 0.0
H699 H 0.08656 0.16231 0.61969 0.0
H700 H 0.0123 0.15935 0.634 0.0
H701 H 0.03384 0.10908 0.67238 0.0
H702 H 0.89308 0.15 0.91283 0.0
H703 H 0.79939 0.16897 0.91651 0.0
H704 H 0.90265 0.20955 0.72086 0.0
C705 C 0.10849 0.20161 0.72132 0.0
C706 C 0.12894 0.19485 0.76163 0.0
C707 C 0.08904 0.17343 0.82224 0.0
C708 C 0.02894 0.16178 0.84344 0.0
C709 C 1.00983 0.17025 0.80293 0.0
C710 C 0.04879 0.18869 0.7427 0.0
C711 C 0.01643 0.19802 0.70958 0.0
C712 C 0.02308 0.26125 0.68697 0.0
C713 C 0.0386 0.15459 0.65573 0.0
C714 C 0.95256 0.18492 0.76148 0.0
C715 C 0.94971 0.16851 0.81487 0.0
C716 C 0.89494 0.16098 0.87085 0.0
C717 C 0.84197 0.17169 0.87257 0.0
C718 C 0.84406 0.18862 0.81852 0.0
C719 C 0.9 0.19406 0.76209 0.0
loop_
_geom_bond_atom_site_label_1
_geom_bond_atom_site_label_2
_geom_bond_distance
_geom_bond_site_symmetry_2
_ccdc_geom_bond_type
Mn0 O5 2.095 . S
Mn0 O15 2.162 . S
Mn0 O16 2.297 . S
Mn0 O24 2.385 . S
Mn0 O25 2.209 . S
Mn0 O26 2.094 . S
Mn1 O6 2.121 . S
Mn1 N8 2.257 . S
Mn1 N17 2.282 . S
Mn1 O25 2.215 . S
Mn1 O27 2.117 . S
C2 O24 1.234 . S
C2 O25 1.283 . S
C3 O15 1.281 . S
C3 O16 1.236 . S
C4 O26 1.240 . S
C4 O27 1.264 . S
O5 Mn0 2.095 . S
O5 C14 1.250 . S
O6 Mn1 2.121 . S
O6 C14 1.258 . S
C7 N8 1.326 . S
C7 C11 1.460 . S
C7 H13 0.929 . S
N8 Mn1 2.257 . S
N8 C7 1.326 . S
N8 C12 1.362 . S
C9 C10 1.258 . S
C9 C12 1.431 . S
C9 C29 1.449 . S
C10 C9 1.258 . S
C10 C11 1.477 . S
C10 H30 0.931 . S
C11 C7 1.460 . S
C11 C10 1.477 . S
C11 H31 0.930 . S
C12 N8 1.362 . S
C12 C9 1.431 . S
C12 C22 1.476 . S
H13 C7 0.929 . S
C14 O5 1.250 . S
C14 O6 1.258 . S
O15 Mn0 2.162 . S
O15 C3 1.281 . S
O16 Mn0 2.297 . S
O16 C3 1.236 . S
N17 Mn1 2.282 . S
N17 C18 1.328 . S
N17 C22 1.318 . S
C18 N17 1.328 . S
C18 C19 1.457 . S
C18 H23 0.929 . S
C19 C18 1.457 . S
C19 C20 1.291 . S
C19 H32 0.931 . S
C20 C19 1.291 . S
C20 C21 1.373 . S
C20 H33 0.929 . S
C21 C20 1.373 . S
C21 C22 1.396 . S
C21 C28 1.403 . S
C22 C12 1.476 . S
C22 N17 1.318 . S
C22 C21 1.396 . S
H23 C18 0.929 . S
O24 Mn0 2.385 . S
O24 C2 1.234 . S
O25 Mn0 2.209 . S
O25 Mn1 2.215 . S
O25 C2 1.283 . S
O26 Mn0 2.094 . S
O26 C4 1.240 . S
O27 Mn1 2.117 . S
O27 C4 1.264 . S
C28 C21 1.403 . S
C28 C29 1.399 . S
C28 H34 0.929 . S
C29 C9 1.449 . S
C29 C28 1.399 . S
C29 H35 0.930 . S
H30 C10 0.931 . S
H31 C11 0.930 . S
H32 C19 0.931 . S
H33 C20 0.929 . S
H34 C28 0.929 . S
H35 C29 0.930 . S
Mn36 O41 2.095 . S
Mn36 O51 2.162 . S
Mn36 O52 2.297 . S
Mn36 O60 2.385 . S
Mn36 O61 2.209 . S
Mn36 O62 2.094 . S
Mn37 O42 2.121 . S
Mn37 N44 2.257 . S
Mn37 N53 2.282 . S
Mn37 O61 2.215 . S
Mn37 O63 2.117 . S
C38 O60 1.234 . S
C38 O61 1.283 . S
C39 O51 1.281 . S
C39 O52 1.236 . S
C40 O62 1.240 . S
C40 O63 1.264 . S
O41 Mn36 2.095 . S
O41 C50 1.250 . S
O42 Mn37 2.121 . S
O42 C50 1.258 . S
C43 N44 1.326 . S
C43 C47 1.460 . S
C43 H49 0.929 . S
N44 Mn37 2.257 . S
N44 C43 1.326 . S
N44 C48 1.362 . S
C45 C46 1.258 . S
C45 C48 1.431 . S
C45 C65 1.449 . S
C46 C45 1.258 . S
C46 C47 1.477 . S
C46 H66 0.931 . S
C47 C43 1.460 . S
C47 C46 1.477 . S
C47 H67 0.930 . S
C48 N44 1.362 . S
C48 C45 1.431 . S
C48 C58 1.476 . S
H49 C43 0.929 . S
C50 O41 1.250 . S
C50 O42 1.258 . S
O51 Mn36 2.162 . S
O51 C39 1.281 . S
O52 Mn36 2.297 . S
O52 C39 1.236 . S
N53 Mn37 2.282 . S
N53 C54 1.328 . S
N53 C58 1.318 . S
C54 N53 1.328 . S
C54 C55 1.457 . S
C54 H59 0.929 . S
C55 C54 1.457 . S
C55 C56 1.291 . S
C55 H68 0.931 . S
C56 C55 1.291 . S
C56 C57 1.373 . S
C56 H69 0.929 . S
C57 C56 1.373 . S
C57 C58 1.396 . S
C57 C64 1.403 . S
C58 C48 1.476 . S
C58 N53 1.318 . S
C58 C57 1.396 . S
H59 C54 0.929 . S
O60 Mn36 2.385 . S
O60 C38 1.234 . S
O61 Mn36 2.209 . S
O61 Mn37 2.215 . S
O61 C38 1.283 . S
O62 Mn36 2.094 . S
O62 C40 1.240 . S
O63 Mn37 2.117 . S
O63 C40 1.264 . S
C64 C57 1.403 . S
C64 C65 1.399 . S
C64 H70 0.929 . S
C65 C45 1.449 . S
C65 C64 1.399 . S
C65 H71 0.930 . S
H66 C46 0.931 . S
H67 C47 0.930 . S
H68 C55 0.931 . S
H69 C56 0.929 . S
H70 C64 0.929 . S
H71 C65 0.930 . S
Mn72 O77 2.095 . S
Mn72 O87 2.162 . S
Mn72 O88 2.297 . S
Mn72 O96 2.385 . S
Mn72 O97 2.209 . S
Mn72 O98 2.094 . S
Mn73 O78 2.121 . S
Mn73 N80 2.257 . S
Mn73 N89 2.282 . S
Mn73 O97 2.215 . S
Mn73 O99 2.117 . S
C74 O96 1.234 . S
C74 O97 1.283 . S
C75 O87 1.281 . S
C75 O88 1.236 . S
C76 O98 1.240 . S
C76 O99 1.264 . S
O77 Mn72 2.095 . S
O77 C86 1.250 . S
O78 Mn73 2.121 . S
O78 C86 1.258 . S
C79 N80 1.326 . S
C79 C83 1.460 . S
C79 H85 0.929 . S
N80 Mn73 2.257 . S
N80 C79 1.326 . S
N80 C84 1.362 . S
C81 C82 1.258 . S
C81 C84 1.431 . S
C81 C101 1.449 . S
C82 C81 1.258 . S
C82 C83 1.477 . S
C82 H102 0.931 . S
C83 C79 1.460 . S
C83 C82 1.477 . S
C83 H103 0.930 . S
C84 N80 1.362 . S
C84 C81 1.431 . S
C84 C94 1.476 . S
H85 C79 0.929 . S
C86 O77 1.250 . S
C86 O78 1.258 . S
O87 Mn72 2.162 . S
O87 C75 1.281 . S
O88 Mn72 2.297 . S
O88 C75 1.236 . S
N89 Mn73 2.282 . S
N89 C90 1.328 . S
N89 C94 1.318 . S
C90 N89 1.328 . S
C90 C91 1.457 . S
C90 H95 0.929 . S
C91 C90 1.457 . S
C91 C92 1.291 . S
C91 H104 0.931 . S
C92 C91 1.291 . S
C92 C93 1.373 . S
C92 H105 0.929 . S
C93 C92 1.373 . S
C93 C94 1.396 . S
C93 C100 1.403 . S
C94 C84 1.476 . S
C94 N89 1.318 . S
C94 C93 1.396 . S
H95 C90 0.929 . S
O96 Mn72 2.385 . S
O96 C74 1.234 . S
O97 Mn72 2.209 . S
O97 Mn73 2.215 . S
O97 C74 1.283 . S
O98 Mn72 2.094 . S
O98 C76 1.240 . S
O99 Mn73 2.117 . S
O99 C76 1.264 . S
C100 C93 1.403 . S
C100 C101 1.399 . S
C100 H106 0.929 . S
C101 C81 1.449 . S
C101 C100 1.399 . S
C101 H107 0.930 . S
H102 C82 0.931 . S
H103 C83 0.930 . S
H104 C91 0.931 . S
H105 C92 0.929 . S
H106 C100 0.929 . S
H107 C101 0.930 . S
Mn108 O113 2.095 . S
Mn108 O123 2.162 . S
Mn108 O124 2.297 . S
Mn108 O132 2.385 . S
Mn108 O133 2.209 . S
Mn108 O134 2.094 . S
Mn109 O114 2.121 . S
Mn109 N116 2.257 . S
Mn109 N125 2.282 . S
Mn109 O133 2.215 . S
Mn109 O135 2.117 . S
C110 O132 1.234 . S
C110 O133 1.283 . S
C111 O123 1.281 . S
C111 O124 1.236 . S
C112 O134 1.240 . S
C112 O135 1.264 . S
O113 Mn108 2.095 . S
O113 C122 1.250 . S
O114 Mn109 2.121 . S
O114 C122 1.258 . S
C115 N116 1.326 . S
C115 C119 1.460 . S
C115 H121 0.929 . S
N116 Mn109 2.257 . S
N116 C115 1.326 . S
N116 C120 1.362 . S
C117 C118 1.258 . S
C117 C120 1.431 . S
C117 C137 1.449 . S
C118 C117 1.258 . S
C118 C119 1.477 . S
C118 H138 0.931 . S
C119 C115 1.460 . S
C119 C118 1.477 . S
C119 H139 0.930 . S
C120 N116 1.362 . S
C120 C117 1.431 . S
C120 C130 1.476 . S
H121 C115 0.929 . S
C122 O113 1.250 . S
C122 O114 1.258 . S
O123 Mn108 2.162 . S
O123 C111 1.281 . S
O124 Mn108 2.297 . S
O124 C111 1.236 . S
N125 Mn109 2.282 . S
N125 C126 1.328 . S
N125 C130 1.318 . S
C126 N125 1.328 . S
C126 C127 1.457 . S
C126 H131 0.929 . S
C127 C126 1.457 . S
C127 C128 1.291 . S
C127 H140 0.931 . S
C128 C127 1.291 . S
C128 C129 1.373 . S
C128 H141 0.929 . S
C129 C128 1.373 . S
C129 C130 1.396 . S
C129 C136 1.403 . S
C130 C120 1.476 . S
C130 N125 1.318 . S
C130 C129 1.396 . S
H131 C126 0.929 . S
O132 Mn108 2.385 . S
O132 C110 1.234 . S
O133 Mn108 2.209 . S
O133 Mn109 2.215 . S
O133 C110 1.283 . S
O134 Mn108 2.094 . S
O134 C112 1.240 . S
O135 Mn109 2.117 . S
O135 C112 1.264 . S
C136 C129 1.403 . S
C136 C137 1.399 . S
C136 H142 0.929 . S
C137 C117 1.449 . S
C137 C136 1.399 . S
C137 H143 0.930 . S
H138 C118 0.931 . S
H139 C119 0.930 . S
H140 C127 0.931 . S
H141 C128 0.929 . S
H142 C136 0.929 . S
H143 C137 0.930 . S
Mn144 O149 2.095 . S
Mn144 O159 2.162 . S
Mn144 O160 2.297 . S
Mn144 O168 2.385 . S
Mn144 O169 2.209 . S
Mn144 O170 2.094 . S
Mn145 O150 2.121 . S
Mn145 N152 2.257 . S
Mn145 N161 2.282 . S
Mn145 O169 2.215 . S
Mn145 O171 2.117 . S
C146 O168 1.234 . S
C146 O169 1.283 . S
C147 O159 1.281 . S
C147 O160 1.236 . S
C148 O170 1.240 . S
C148 O171 1.264 . S
O149 Mn144 2.095 . S
O149 C158 1.250 . S
O150 Mn145 2.121 . S
O150 C158 1.258 . S
C151 N152 1.326 . S
C151 C155 1.460 . S
C151 H157 0.929 . S
N152 Mn145 2.257 . S
N152 C151 1.326 . S
N152 C156 1.346 1_565 S
C153 C154 1.258 . S
C153 C156 1.446 . S
C153 C173 1.449 . S
C154 C153 1.258 . S
C154 C155 1.477 1_545 S
C154 H174 0.931 . S
C155 C151 1.460 . S
C155 C154 1.477 1_565 S
C155 H175 0.930 . S
C156 N152 1.346 1_545 S
C156 C153 1.446 . S
C156 C166 1.477 . S
H157 C151 0.929 . S
C158 O149 1.250 . S
C158 O150 1.258 . S
O159 Mn144 2.162 . S
O159 C147 1.281 . S
O160 Mn144 2.297 . S
O160 C147 1.236 . S
N161 Mn145 2.282 . S
N161 C162 1.328 . S
N161 C166 1.318 1_565 S
C162 N161 1.328 . S
C162 C163 1.457 1_565 S
C162 H167 0.929 . S
C163 C162 1.457 1_545 S
C163 C164 1.291 . S
C163 H176 0.931 . S
C164 C163 1.291 . S
C164 C165 1.373 . S
C164 H177 0.929 . S
C165 C164 1.373 . S
C165 C166 1.396 . S
C165 C172 1.403 . S
C166 C156 1.477 . S
C166 N161 1.318 1_545 S
C166 C165 1.396 . S
H167 C162 0.929 . S
O168 Mn144 2.385 . S
O168 C146 1.234 . S
O169 Mn144 2.209 . S
O169 Mn145 2.215 . S
O169 C146 1.283 . S
O170 Mn144 2.094 . S
O170 C148 1.240 . S
O171 Mn145 2.117 . S
O171 C148 1.264 . S
C172 C165 1.403 . S
C172 C173 1.399 . S
C172 H178 0.929 . S
C173 C153 1.449 . S
C173 C172 1.399 . S
C173 H179 0.930 . S
H174 C154 0.931 . S
H175 C155 0.930 . S
H176 C163 0.931 . S
H177 C164 0.929 . S
H178 C172 0.929 . S
H179 C173 0.930 . S
Mn180 O185 2.095 . S
Mn180 O195 2.162 . S
Mn180 O196 2.297 . S
Mn180 O204 2.385 . S
Mn180 O205 2.209 . S
Mn180 O206 2.094 . S
Mn181 O186 2.121 . S
Mn181 N188 2.257 . S
Mn181 N197 2.282 . S
Mn181 O205 2.215 . S
Mn181 O207 2.117 . S
C182 O204 1.234 . S
C182 O205 1.283 . S
C183 O195 1.281 . S
C183 O196 1.236 . S
C184 O206 1.240 . S
C184 O207 1.264 . S
O185 Mn180 2.095 . S
O185 C194 1.250 . S
O186 Mn181 2.121 . S
O186 C194 1.258 . S
C187 N188 1.326 . S
C187 C191 1.460 . S
C187 H193 0.929 . S
N188 Mn181 2.257 . S
N188 C187 1.326 . S
N188 C192 1.346 1_565 S
C189 C190 1.258 . S
C189 C192 1.446 . S
C189 C209 1.449 . S
C190 C189 1.258 . S
C190 C191 1.477 1_545 S
C190 H210 0.931 . S
C191 C187 1.460 . S
C191 C190 1.477 1_565 S
C191 H211 0.930 . S
C192 N188 1.346 1_545 S
C192 C189 1.446 . S
C192 C202 1.477 . S
H193 C187 0.929 . S
C194 O185 1.250 . S
C194 O186 1.258 . S
O195 Mn180 2.162 . S
O195 C183 1.281 . S
O196 Mn180 2.297 . S
O196 C183 1.236 . S
N197 Mn181 2.282 . S
N197 C198 1.328 . S
N197 C202 1.318 1_565 S
C198 N197 1.328 . S
C198 C199 1.457 1_565 S
C198 H203 0.929 . S
C199 C198 1.457 1_545 S
C199 C200 1.291 . S
C199 H212 0.931 . S
C200 C199 1.291 . S
C200 C201 1.373 . S
C200 H213 0.929 . S
C201 C200 1.373 . S
C201 C202 1.396 . S
C201 C208 1.403 . S
C202 C192 1.477 . S
C202 N197 1.318 1_545 S
C202 C201 1.396 . S
H203 C198 0.929 . S
O204 Mn180 2.385 . S
O204 C182 1.234 . S
O205 Mn180 2.209 . S
O205 Mn181 2.215 . S
O205 C182 1.283 . S
O206 Mn180 2.094 . S
O206 C184 1.240 . S
O207 Mn181 2.117 . S
O207 C184 1.264 . S
C208 C201 1.403 . S
C208 C209 1.399 . S
C208 H214 0.929 . S
C209 C189 1.449 . S
C209 C208 1.399 . S
C209 H215 0.930 . S
H210 C190 0.931 . S
H211 C191 0.930 . S
H212 C199 0.931 . S
H213 C200 0.929 . S
H214 C208 0.929 . S
H215 C209 0.930 . S
Mn216 O221 2.095 . S
Mn216 O231 2.162 . S
Mn216 O232 2.297 . S
Mn216 O240 2.385 . S
Mn216 O241 2.209 . S
Mn216 O242 2.094 . S
Mn217 O222 2.121 . S
Mn217 N224 2.257 . S
Mn217 N233 2.282 . S
Mn217 O241 2.215 . S
Mn217 O243 2.117 . S
C218 O240 1.234 . S
C218 O241 1.283 . S
C219 O231 1.281 . S
C219 O232 1.236 . S
C220 O242 1.240 . S
C220 O243 1.264 . S
O221 Mn216 2.095 . S
O221 C230 1.250 . S
O222 Mn217 2.121 . S
O222 C230 1.258 . S
C223 N224 1.326 . S
C223 C227 1.460 . S
C223 H229 0.929 . S
N224 Mn217 2.257 . S
N224 C223 1.326 . S
N224 C228 1.362 . S
C225 C226 1.258 . S
C225 C228 1.431 . S
C225 C245 1.449 . S
C226 C225 1.258 . S
C226 C227 1.477 . S
C226 H246 0.931 . S
C227 C223 1.460 . S
C227 C226 1.477 . S
C227 H247 0.930 . S
C228 N224 1.362 . S
C228 C225 1.431 . S
C228 C238 1.476 . S
H229 C223 0.929 . S
C230 O221 1.250 . S
C230 O222 1.258 . S
O231 Mn216 2.162 . S
O231 C219 1.281 . S
O232 Mn216 2.297 . S
O232 C219 1.236 . S
N233 Mn217 2.282 . S
N233 C234 1.328 . S
N233 C238 1.318 . S
C234 N233 1.328 . S
C234 C235 1.457 . S
C234 H239 0.929 . S
C235 C234 1.457 . S
C235 C236 1.291 . S
C235 H248 0.931 . S
C236 C235 1.291 . S
C236 C237 1.373 . S
C236 H249 0.929 . S
C237 C236 1.373 . S
C237 C238 1.396 . S
C237 C244 1.403 . S
C238 C228 1.476 . S
C238 N233 1.318 . S
C238 C237 1.396 . S
H239 C234 0.929 . S
O240 Mn216 2.385 . S
O240 C218 1.234 . S
O241 Mn216 2.209 . S
O241 Mn217 2.215 . S
O241 C218 1.283 . S
O242 Mn216 2.094 . S
O242 C220 1.240 . S
O243 Mn217 2.117 . S
O243 C220 1.264 . S
C244 C237 1.403 . S
C244 C245 1.399 . S
C244 H250 0.929 . S
C245 C225 1.449 . S
C245 C244 1.399 . S
C245 H251 0.930 . S
H246 C226 0.931 . S
H247 C227 0.930 . S
H248 C235 0.931 . S
H249 C236 0.929 . S
H250 C244 0.929 . S
H251 C245 0.930 . S
Mn252 O257 2.095 . S
Mn252 O267 2.162 . S
Mn252 O268 2.297 . S
Mn252 O276 2.385 . S
Mn252 O277 2.209 . S
Mn252 O278 2.094 . S
Mn253 O258 2.121 . S
Mn253 N260 2.257 . S
Mn253 N269 2.282 . S
Mn253 O277 2.215 . S
Mn253 O279 2.117 . S
C254 O276 1.234 . S
C254 O277 1.283 . S
C255 O267 1.281 . S
C255 O268 1.236 . S
C256 O278 1.240 . S
C256 O279 1.264 . S
O257 Mn252 2.095 . S
O257 C266 1.250 . S
O258 Mn253 2.121 . S
O258 C266 1.258 . S
C259 N260 1.326 . S
C259 C263 1.460 . S
C259 H265 0.929 . S
N260 Mn253 2.257 . S
N260 C259 1.326 . S
N260 C264 1.362 . S
C261 C262 1.258 . S
C261 C264 1.431 . S
C261 C281 1.449 . S
C262 C261 1.258 . S
C262 C263 1.477 . S
C262 H282 0.931 . S
C263 C259 1.460 . S
C263 C262 1.477 . S
C263 H283 0.930 . S
C264 N260 1.362 . S
C264 C261 1.431 . S
C264 C274 1.476 . S
H265 C259 0.929 . S
C266 O257 1.250 . S
C266 O258 1.258 . S
O267 Mn252 2.162 . S
O267 C255 1.281 . S
O268 Mn252 2.297 . S
O268 C255 1.236 . S
N269 Mn253 2.282 . S
N269 C270 1.328 . S
N269 C274 1.318 . S
C270 N269 1.328 . S
C270 C271 1.457 . S
C270 H275 0.929 . S
C271 C270 1.457 . S
C271 C272 1.291 . S
C271 H284 0.931 . S
C272 C271 1.291 . S
C272 C273 1.373 . S
C272 H285 0.929 . S
C273 C272 1.373 . S
C273 C274 1.396 . S
C273 C280 1.403 . S
C274 C264 1.476 . S
C274 N269 1.318 . S
C274 C273 1.396 . S
H275 C270 0.929 . S
O276 Mn252 2.385 . S
O276 C254 1.234 . S
O277 Mn252 2.209 . S
O277 Mn253 2.215 . S
O277 C254 1.283 . S
O278 Mn252 2.094 . S
O278 C256 1.240 . S
O279 Mn253 2.117 . S
O279 C256 1.264 . S
C280 C273 1.403 . S
C280 C281 1.399 . S
C280 H286 0.929 . S
C281 C261 1.449 . S
C281 C280 1.399 . S
C281 H287 0.930 . S
H282 C262 0.931 . S
H283 C263 0.930 . S
H284 C271 0.931 . S
H285 C272 0.929 . S
H286 C280 0.929 . S
H287 C281 0.930 . S
H288 C300 0.930 . S
H289 C302 0.930 . S
H290 C303 0.930 . S
H291 C307 0.959 1_565 S
H292 C307 0.959 . S
H293 C307 0.961 . S
H294 C308 0.960 . S
H295 C308 0.961 . S
H296 C308 0.959 . S
H297 C311 0.929 . S
H298 C312 0.931 . S
H299 C314 0.930 . S
C300 H288 0.930 . S
C300 C301 1.399 . S
C300 C305 1.399 . S
C301 C300 1.399 . S
C301 C302 1.376 . S
C302 H289 0.930 . S
C302 C301 1.376 . S
C302 C303 1.388 . S
C303 H290 0.930 . S
C303 C302 1.388 . S
C303 C304 1.390 . S
C304 C303 1.390 . S
C304 C305 1.394 . S
C304 C310 1.465 1_445 S
C305 C300 1.399 . S
C305 C304 1.394 . S
C305 C306 1.519 1_455 S
C306 C305 1.519 1_655 S
C306 C307 1.484 1_655 S
C306 C308 1.569 . S
C306 C309 1.535 1_545 S
C307 H291 0.959 1_545 S
C307 H292 0.959 . S
C307 H293 0.961 . S
C307 C306 1.484 1_455 S
C308 H294 0.960 . S
C308 H295 0.961 . S
C308 H296 0.959 . S
C308 C306 1.569 . S
C309 C306 1.535 1_565 S
C309 C310 1.396 . S
C309 C314 1.390 . S
C310 C304 1.465 1_665 S
C310 C309 1.396 . S
C310 C311 1.399 . S
C311 H297 0.929 . S
C311 C310 1.399 . S
C311 C312 1.385 . S
C312 H298 0.931 . S
C312 C311 1.385 . S
C312 C313 1.389 . S
C313 C312 1.389 . S
C313 C314 1.387 . S
C314 H299 0.930 . S
C314 C309 1.390 . S
C314 C313 1.387 . S
H315 C327 0.930 . S
H316 C329 0.930 . S
H317 C330 0.930 . S
H318 C334 0.959 . S
H319 C334 0.959 . S
H320 C334 0.961 . S
H321 C335 0.960 1_565 S
H322 C335 0.961 . S
H323 C335 0.959 1_565 S
H324 C338 0.929 1_565 S
H325 C339 0.931 . S
H326 C341 0.930 . S
C327 H315 0.930 . S
C327 C328 1.399 . S
C327 C332 1.399 . S
C328 C327 1.399 . S
C328 C329 1.376 . S
C329 H316 0.930 . S
C329 C328 1.376 . S
C329 C330 1.388 1_556 S
C330 H317 0.930 . S
C330 C329 1.388 1_554 S
C330 C331 1.390 . S
C331 C330 1.390 . S
C331 C332 1.394 1_554 S
C331 C337 1.465 1_465 S
C332 C327 1.399 . S
C332 C331 1.394 1_556 S
C332 C333 1.516 1_565 S
C333 C332 1.516 1_545 S
C333 C334 1.502 . S
C333 C335 1.561 1_455 S
C333 C336 1.526 1_456 S
C334 H318 0.959 . S
C334 H319 0.959 . S
C334 H320 0.961 . S
C334 C333 1.502 . S
C335 H321 0.960 1_545 S
C335 H322 0.961 . S
C335 H323 0.959 1_545 S
C335 C333 1.561 1_655 S
C336 C333 1.526 1_654 S
C336 C337 1.396 . S
C336 C341 1.390 . S
C337 C331 1.465 1_645 S
C337 C336 1.396 . S
C337 C338 1.399 . S
C338 H324 0.929 1_545 S
C338 C337 1.399 . S
C338 C339 1.385 . S
C339 H325 0.931 . S
C339 C338 1.385 . S
C339 C340 1.389 . S
C340 C339 1.389 . S
C340 C341 1.387 . S
C341 H326 0.930 . S
C341 C336 1.390 . S
C341 C340 1.387 . S
H342 C354 0.930 . S
H343 C356 0.930 . S
H344 C357 0.930 . S
H345 C361 0.959 . S
H346 C361 0.959 . S
H347 C361 0.961 . S
H348 C362 0.960 . S
H349 C362 0.961 . S
H350 C362 0.959 . S
H351 C365 0.929 . S
H352 C366 0.931 . S
H353 C368 0.930 . S
C354 H342 0.930 . S
C354 C355 1.399 . S
C354 C359 1.399 . S
C355 C354 1.399 . S
C355 C356 1.376 . S
C356 H343 0.930 . S
C356 C355 1.376 . S
C356 C357 1.388 . S
C357 H344 0.930 . S
C357 C356 1.388 . S
C357 C358 1.390 . S
C358 C357 1.390 . S
C358 C359 1.394 . S
C358 C364 1.465 . S
C359 C354 1.399 . S
C359 C358 1.394 . S
C359 C360 1.516 . S
C360 C359 1.516 . S
C360 C361 1.502 . S
C360 C362 1.561 . S
C360 C363 1.526 . S
C361 H345 0.959 . S
C361 H346 0.959 . S
C361 H347 0.961 . S
C361 C360 1.502 . S
C362 H348 0.960 . S
C362 H349 0.961 . S
C362 H350 0.959 . S
C362 C360 1.561 . S
C363 C360 1.526 . S
C363 C364 1.396 . S
C363 C368 1.390 . S
C364 C358 1.465 . S
C364 C363 1.396 . S
C364 C365 1.399 . S
C365 H351 0.929 . S
C365 C364 1.399 . S
C365 C366 1.385 . S
C366 H352 0.931 . S
C366 C365 1.385 . S
C366 C367 1.389 . S
C367 C366 1.389 . S
C367 C368 1.387 . S
C368 H353 0.930 . S
C368 C363 1.390 . S
C368 C367 1.387 . S
H369 C381 0.930 . S
H370 C383 0.930 . S
H371 C384 0.930 . S
H372 C388 0.959 . S
H373 C388 0.959 . S
H374 C388 0.961 . S
H375 C389 0.960 . S
H376 C389 0.961 . S
H377 C389 0.959 . S
H378 C392 0.929 . S
H379 C393 0.934 . S
H380 C395 0.930 . S
C381 H369 0.930 . S
C381 C382 1.399 . S
C381 C386 1.399 . S
C382 C381 1.399 . S
C382 C383 1.376 . S
C383 H370 0.930 . S
C383 C382 1.376 . S
C383 C384 1.388 . S
C384 H371 0.930 . S
C384 C383 1.388 . S
C384 C385 1.390 . S
C385 C384 1.390 . S
C385 C386 1.394 . S
C385 C391 1.465 . S
C386 C381 1.399 . S
C386 C385 1.394 . S
C386 C387 1.516 1_554 S
C387 C386 1.516 1_556 S
C387 C388 1.502 . S
C387 C389 1.561 . S
C387 C390 1.526 . S
C388 H372 0.959 . S
C388 H373 0.959 . S
C388 H374 0.961 . S
C388 C387 1.502 . S
C389 H375 0.960 . S
C389 H376 0.961 . S
C389 H377 0.959 . S
C389 C387 1.561 . S
C390 C387 1.526 . S
C390 C391 1.396 1_556 S
C390 C395 1.390 . S
C391 C385 1.465 . S
C391 C390 1.396 1_554 S
C391 C392 1.399 . S
C392 H378 0.929 . S
C392 C391 1.399 . S
C392 C393 1.385 1_554 S
C393 H379 0.934 . S
C393 C392 1.385 1_556 S
C393 C394 1.389 . S
C394 C393 1.389 . S
C394 C395 1.387 . S
C395 H380 0.930 . S
C395 C390 1.390 . S
C395 C394 1.387 . S
H396 C408 0.930 . S
H397 C410 0.930 . S
H398 C411 0.930 . S
H399 C415 0.959 . S
H400 C415 0.959 . S
H401 C415 0.961 . S
H402 C416 0.960 . S
H403 C416 0.961 1_455 S
H404 C416 0.959 . S
H405 C419 0.929 1_655 S
H406 C420 0.931 . S
H407 C422 0.930 . S
C408 H396 0.930 . S
C408 C409 1.399 . S
C408 C413 1.399 . S
C409 C408 1.399 . S
C409 C410 1.376 . S
C410 H397 0.930 . S
C410 C409 1.376 . S
C410 C411 1.388 . S
C411 H398 0.930 . S
C411 C410 1.388 . S
C411 C412 1.390 . S
C412 C411 1.390 . S
C412 C413 1.394 . S
C412 C418 1.465 1_655 S
C413 C408 1.399 . S
C413 C412 1.394 . S
C413 C414 1.516 1_654 S
C414 C413 1.516 1_456 S
C414 C415 1.502 . S
C414 C416 1.561 1_455 S
C414 C417 1.526 . S
C415 H399 0.959 . S
C415 H400 0.959 . S
C415 H401 0.961 . S
C415 C414 1.502 . S
C416 H402 0.960 . S
C416 H403 0.961 1_655 S
C416 H404 0.959 . S
C416 C414 1.561 1_655 S
C417 C414 1.526 . S
C417 C418 1.396 1_556 S
C417 C422 1.390 . S
C418 C412 1.465 1_455 S
C418 C417 1.396 1_554 S
C418 C419 1.399 . S
C419 H405 0.929 1_455 S
C419 C418 1.399 . S
C419 C420 1.385 1_554 S
C420 H406 0.931 . S
C420 C419 1.385 1_556 S
C420 C421 1.389 . S
C421 C420 1.389 . S
C421 C422 1.387 . S
C422 H407 0.930 . S
C422 C417 1.390 . S
C422 C421 1.387 . S
H423 C435 0.930 . S
H424 C437 0.930 . S
H425 C438 0.930 . S
H426 C442 0.959 . S
H427 C442 0.959 . S
H428 C442 0.961 . S
H429 C443 0.960 . S
H430 C443 0.961 . S
H431 C443 0.959 . S
H432 C446 0.929 . S
H433 C447 0.931 . S
H434 C449 0.930 . S
C435 H423 0.930 . S
C435 C436 1.399 . S
C435 C440 1.399 . S
C436 C435 1.399 . S
C436 C437 1.376 . S
C437 H424 0.930 . S
C437 C436 1.376 . S
C437 C438 1.388 . S
C438 H425 0.930 . S
C438 C437 1.388 . S
C438 C439 1.390 . S
C439 C438 1.390 . S
C439 C440 1.394 . S
C439 C445 1.465 . S
C440 C435 1.399 . S
C440 C439 1.394 . S
C440 C441 1.516 1_455 S
C441 C440 1.516 1_655 S
C441 C442 1.502 . S
C441 C443 1.561 . S
C441 C444 1.526 . S
C442 H426 0.959 . S
C442 H427 0.959 . S
C442 H428 0.961 . S
C442 C441 1.502 . S
C443 H429 0.960 . S
C443 H430 0.961 . S
C443 H431 0.959 . S
C443 C441 1.561 . S
C444 C441 1.526 . S
C444 C445 1.396 1_655 S
C444 C449 1.390 . S
C445 C439 1.465 . S
C445 C444 1.396 1_455 S
C445 C446 1.399 . S
C446 H432 0.929 . S
C446 C445 1.399 . S
C446 C447 1.385 1_455 S
C447 H433 0.931 . S
C447 C446 1.385 1_655 S
C447 C448 1.389 . S
C448 C447 1.389 . S
C448 C449 1.387 . S
C449 H434 0.930 . S
C449 C444 1.390 . S
C449 C448 1.387 . S
H450 C462 0.930 . S
H451 C464 0.930 . S
H452 C465 0.930 . S
H453 C469 0.959 1_545 S
H454 C469 0.959 . S
H455 C469 0.961 1_545 S
H456 C470 0.960 . S
H457 C470 0.961 . S
H458 C470 0.959 . S
H459 C473 0.929 . S
H460 C474 0.931 . S
H461 C476 0.930 . S
C462 H450 0.930 . S
C462 C463 1.399 . S
C462 C467 1.399 . S
C463 C462 1.399 . S
C463 C464 1.376 . S
C464 H451 0.930 . S
C464 C463 1.376 . S
C464 C465 1.388 1_556 S
C465 H452 0.930 . S
C465 C464 1.388 1_554 S
C465 C466 1.390 . S
C466 C465 1.390 . S
C466 C467 1.394 1_554 S
C466 C472 1.465 1_545 S
C467 C462 1.399 . S
C467 C466 1.394 1_556 S
C467 C468 1.516 1_545 S
C468 C467 1.516 1_565 S
C468 C469 1.502 . S
C468 C470 1.561 . S
C468 C471 1.526 1_556 S
C469 H453 0.959 1_565 S
C469 H454 0.959 . S
C469 H455 0.961 1_565 S
C469 C468 1.502 . S
C470 H456 0.960 . S
C470 H457 0.961 . S
C470 H458 0.959 . S
C470 C468 1.561 . S
C471 C468 1.526 1_554 S
C471 C472 1.396 . S
C471 C476 1.390 . S
C472 C466 1.465 1_565 S
C472 C471 1.396 . S
C472 C473 1.399 . S
C473 H459 0.929 . S
C473 C472 1.399 . S
C473 C474 1.385 . S
C474 H460 0.931 . S
C474 C473 1.385 . S
C474 C475 1.389 . S
C475 C474 1.389 . S
C475 C476 1.387 . S
C476 H461 0.930 . S
C476 C471 1.390 . S
C476 C475 1.387 . S
H477 C489 0.930 . S
H478 C491 0.930 . S
H479 C492 0.930 . S
H480 C496 0.959 . S
H481 C496 0.959 . S
H482 C496 0.961 . S
H483 C497 0.960 1_565 S
H484 C497 0.961 . S
H485 C497 0.959 1_565 S
H486 C500 0.929 1_565 S
H487 C501 0.931 . S
H488 C503 0.930 . S
C489 H477 0.930 . S
C489 C490 1.399 . S
C489 C494 1.399 . S
C490 C489 1.399 . S
C490 C491 1.376 . S
C491 H478 0.930 . S
C491 C490 1.376 . S
C491 C492 1.388 . S
C492 H479 0.930 . S
C492 C491 1.388 . S
C492 C493 1.390 . S
C493 C492 1.390 . S
C493 C494 1.394 . S
C493 C499 1.465 1_565 S
C494 C489 1.399 . S
C494 C493 1.394 . S
C494 C495 1.516 1_565 S
C495 C494 1.516 1_545 S
C495 C496 1.502 . S
C495 C497 1.561 . S
C495 C498 1.526 . S
C496 H480 0.959 . S
C496 H481 0.959 . S
C496 H482 0.961 . S
C496 C495 1.502 . S
C497 H483 0.960 1_545 S
C497 H484 0.961 . S
C497 H485 0.959 1_545 S
C497 C495 1.561 . S
C498 C495 1.526 . S
C498 C499 1.396 . S
C498 C503 1.390 . S
C499 C493 1.465 1_545 S
C499 C498 1.396 . S
C499 C500 1.399 . S
C500 H486 0.929 1_545 S
C500 C499 1.399 . S
C500 C501 1.385 . S
C501 H487 0.931 . S
C501 C500 1.385 . S
C501 C502 1.389 . S
C502 C501 1.389 . S
C502 C503 1.387 . S
C503 H488 0.930 . S
C503 C498 1.390 . S
C503 C502 1.387 . S
H504 C516 0.930 . S
H505 C518 0.930 . S
H506 C519 0.930 . S
H507 C523 0.959 . S
H508 C523 0.959 . S
H509 C523 0.961 . S
H510 C524 0.960 . S
H511 C524 0.961 . S
H512 C524 0.959 . S
H513 C527 0.929 . S
H514 C528 0.931 . S
H515 C530 0.930 . S
C516 H504 0.930 . S
C516 C517 1.399 . S
C516 C521 1.399 . S
C517 C516 1.399 . S
C517 C518 1.376 . S
C518 H505 0.930 . S
C518 C517 1.376 . S
C518 C519 1.388 . S
C519 H506 0.930 . S
C519 C518 1.388 . S
C519 C520 1.390 . S
C520 C519 1.390 . S
C520 C521 1.394 . S
C520 C526 1.465 . S
C521 C516 1.399 . S
C521 C520 1.394 . S
C521 C522 1.516 . S
C522 C521 1.516 . S
C522 C523 1.502 . S
C522 C524 1.561 . S
C522 C525 1.526 . S
C523 H507 0.959 . S
C523 H508 0.959 . S
C523 H509 0.961 . S
C523 C522 1.502 . S
C524 H510 0.960 . S
C524 H511 0.961 . S
C524 H512 0.959 . S
C524 C522 1.561 . S
C525 C522 1.526 . S
C525 C526 1.396 . S
C525 C530 1.390 . S
C526 C520 1.465 . S
C526 C525 1.396 . S
C526 C527 1.399 . S
C527 H513 0.929 . S
C527 C526 1.399 . S
C527 C528 1.385 . S
C528 H514 0.931 . S
C528 C527 1.385 . S
C528 C529 1.389 . S
C529 C528 1.389 . S
C529 C530 1.387 . S
C530 H515 0.930 . S
C530 C525 1.390 . S
C530 C529 1.387 . S
H531 C543 0.930 . S
H532 C545 0.930 . S
H533 C546 0.930 . S
H534 C550 0.959 . S
H535 C550 0.959 . S
H536 C550 0.961 . S
H537 C551 0.960 . S
H538 C551 0.961 1_554 S
H539 C551 0.959 . S
H540 C554 0.929 . S
H541 C555 0.931 . S
H542 C557 0.930 . S
C543 H531 0.930 . S
C543 C544 1.399 . S
C543 C548 1.399 . S
C544 C543 1.399 . S
C544 C545 1.376 . S
C545 H532 0.930 . S
C545 C544 1.376 . S
C545 C546 1.388 . S
C546 H533 0.930 . S
C546 C545 1.388 . S
C546 C547 1.390 . S
C547 C546 1.390 . S
C547 C548 1.394 . S
C547 C553 1.465 1_556 S
C548 C543 1.399 . S
C548 C547 1.394 . S
C548 C549 1.516 . S
C549 C548 1.516 . S
C549 C550 1.502 . S
C549 C551 1.561 . S
C549 C552 1.526 1_556 S
C550 H534 0.959 . S
C550 H535 0.959 . S
C550 H536 0.961 . S
C550 C549 1.502 . S
C551 H537 0.960 . S
C551 H538 0.961 1_556 S
C551 H539 0.959 . S
C551 C549 1.561 . S
C552 C549 1.526 1_554 S
C552 C553 1.396 . S
C552 C557 1.390 . S
C553 C547 1.465 1_554 S
C553 C552 1.396 . S
C553 C554 1.399 . S
C554 H540 0.929 . S
C554 C553 1.399 . S
C554 C555 1.385 . S
C555 H541 0.931 . S
C555 C554 1.385 . S
C555 C556 1.389 . S
C556 C555 1.389 . S
C556 C557 1.387 . S
C557 H542 0.930 . S
C557 C552 1.390 . S
C557 C556 1.387 . S
H558 C570 0.930 . S
H559 C572 0.930 . S
H560 C573 0.930 . S
H561 C577 0.959 . S
H562 C577 0.959 . S
H563 C577 0.961 . S
H564 C578 0.960 . S
H565 C578 0.961 . S
H566 C578 0.959 . S
H567 C581 0.929 . S
H568 C582 0.931 . S
H569 C584 0.930 . S
C570 H558 0.930 . S
C570 C571 1.399 . S
C570 C575 1.399 . S
C571 C570 1.399 . S
C571 C572 1.376 . S
C572 H559 0.930 . S
C572 C571 1.376 . S
C572 C573 1.388 . S
C573 H560 0.930 . S
C573 C572 1.388 . S
C573 C574 1.390 . S
C574 C573 1.390 . S
C574 C575 1.394 . S
C574 C580 1.465 . S
C575 C570 1.399 . S
C575 C574 1.394 . S
C575 C576 1.516 . S
C576 C575 1.516 . S
C576 C577 1.502 . S
C576 C578 1.561 . S
C576 C579 1.526 . S
C577 H561 0.959 . S
C577 H562 0.959 . S
C577 H563 0.961 . S
C577 C576 1.502 . S
C578 H564 0.960 . S
C578 H565 0.961 . S
C578 H566 0.959 . S
C578 C576 1.561 . S
C579 C576 1.526 . S
C579 C580 1.396 . S
C579 C584 1.390 . S
C580 C574 1.465 . S
C580 C579 1.396 . S
C580 C581 1.399 . S
C581 H567 0.929 . S
C581 C580 1.399 . S
C581 C582 1.385 . S
C582 H568 0.931 . S
C582 C581 1.385 . S
C582 C583 1.389 . S
C583 C582 1.389 . S
C583 C584 1.387 . S
C584 H569 0.930 . S
C584 C579 1.390 . S
C584 C583 1.387 . S
H585 C597 0.930 . S
H586 C599 0.930 . S
H587 C600 0.930 . S
H588 C604 0.959 . S
H589 C604 0.959 . S
H590 C604 0.961 1_554 S
H591 C605 0.960 . S
H592 C605 0.961 1_556 S
H593 C605 0.959 . S
H594 C608 0.929 . S
H595 C609 0.931 . S
H596 C611 0.930 . S
C597 H585 0.930 . S
C597 C598 1.399 . S
C597 C602 1.399 . S
C598 C597 1.399 . S
C598 C599 1.376 . S
C599 H586 0.930 . S
C599 C598 1.376 . S
C599 C600 1.388 . S
C600 H587 0.930 . S
C600 C599 1.388 . S
C600 C601 1.390 . S
C601 C600 1.390 . S
C601 C602 1.394 . S
C601 C607 1.465 1_554 S
C602 C597 1.399 . S
C602 C601 1.394 . S
C602 C603 1.516 1_554 S
C603 C602 1.516 1_556 S
C603 C604 1.502 . S
C603 C605 1.561 1_556 S
C603 C606 1.526 . S
C604 H588 0.959 . S
C604 H589 0.959 . S
C604 H590 0.961 1_556 S
C604 C603 1.502 . S
C605 H591 0.960 . S
C605 H592 0.961 1_554 S
C605 H593 0.959 . S
C605 C603 1.561 1_554 S
C606 C603 1.526 . S
C606 C607 1.396 . S
C606 C611 1.390 . S
C607 C601 1.465 1_556 S
C607 C606 1.396 . S
C607 C608 1.399 . S
C608 H594 0.929 . S
C608 C607 1.399 . S
C608 C609 1.385 . S
C609 H595 0.931 . S
C609 C608 1.385 . S
C609 C610 1.389 . S
C610 C609 1.389 . S
C610 C611 1.387 . S
C611 H596 0.930 . S
C611 C606 1.390 . S
C611 C610 1.387 . S
H612 C624 0.930 . S
H613 C626 0.930 . S
H614 C627 0.930 . S
H615 C631 0.959 . S
H616 C631 0.959 . S
H617 C631 0.961 . S
H618 C632 0.960 . S
H619 C632 0.961 . S
H620 C632 0.959 . S
H621 C635 0.929 . S
H622 C636 0.931 . S
H623 C638 0.930 . S
C624 H612 0.930 . S
C624 C625 1.399 . S
C624 C629 1.399 . S
C625 C624 1.399 . S
C625 C626 1.376 . S
C626 H613 0.930 . S
C626 C625 1.376 . S
C626 C627 1.388 . S
C627 H614 0.930 . S
C627 C626 1.388 . S
C627 C628 1.390 . S
C628 C627 1.390 . S
C628 C629 1.394 . S
C628 C634 1.465 . S
C629 C624 1.399 . S
C629 C628 1.394 . S
C629 C630 1.516 . S
C630 C629 1.516 . S
C630 C631 1.502 . S
C630 C632 1.561 . S
C630 C633 1.526 . S
C631 H615 0.959 . S
C631 H616 0.959 . S
C631 H617 0.961 . S
C631 C630 1.502 . S
C632 H618 0.960 . S
C632 H619 0.961 . S
C632 H620 0.959 . S
C632 C630 1.561 . S
C633 C630 1.526 . S
C633 C634 1.396 . S
C633 C638 1.390 . S
C634 C628 1.465 . S
C634 C633 1.396 . S
C634 C635 1.399 . S
C635 H621 0.929 . S
C635 C634 1.399 . S
C635 C636 1.385 . S
C636 H622 0.931 . S
C636 C635 1.385 . S
C636 C637 1.389 . S
C637 C636 1.389 . S
C637 C638 1.387 . S
C638 H623 0.930 . S
C638 C633 1.390 . S
C638 C637 1.387 . S
H639 C651 0.930 . S
H640 C653 0.930 . S
H641 C654 0.930 . S
H642 C658 0.959 . S
H643 C658 0.959 . S
H644 C658 0.961 . S
H645 C659 0.960 . S
H646 C659 0.961 . S
H647 C659 0.959 . S
H648 C662 0.929 . S
H649 C663 0.931 . S
H650 C665 0.930 . S
C651 H639 0.930 . S
C651 C652 1.399 . S
C651 C656 1.399 . S
C652 C651 1.399 . S
C652 C653 1.376 . S
C653 H640 0.930 . S
C653 C652 1.376 . S
C653 C654 1.388 . S
C654 H641 0.930 . S
C654 C653 1.388 . S
C654 C655 1.390 . S
C655 C654 1.390 . S
C655 C656 1.394 . S
C655 C661 1.465 . S
C656 C651 1.399 . S
C656 C655 1.394 . S
C656 C657 1.516 . S
C657 C656 1.516 . S
C657 C658 1.502 . S
C657 C659 1.561 . S
C657 C660 1.526 . S
C658 H642 0.959 . S
C658 H643 0.959 . S
C658 H644 0.961 . S
C658 C657 1.502 . S
C659 H645 0.960 . S
C659 H646 0.961 . S
C659 H647 0.959 . S
C659 C657 1.561 . S
C660 C657 1.526 . S
C660 C661 1.396 . S
C660 C665 1.390 . S
C661 C655 1.465 . S
C661 C660 1.396 . S
C661 C662 1.399 . S
C662 H648 0.929 . S
C662 C661 1.399 . S
C662 C663 1.385 . S
C663 H649 0.931 . S
C663 C662 1.385 . S
C663 C664 1.389 . S
C664 C663 1.389 . S
C664 C665 1.387 . S
C665 H650 0.930 . S
C665 C660 1.390 . S
C665 C664 1.387 . S
H666 C678 0.930 . S
H667 C680 0.930 . S
H668 C681 0.930 . S
H669 C685 0.959 . S
H670 C685 0.959 . S
H671 C685 0.961 1_455 S
H672 C686 0.960 . S
H673 C686 0.961 1_655 S
H674 C686 0.959 . S
H675 C689 0.929 . S
H676 C690 0.931 . S
H677 C692 0.930 . S
C678 H666 0.930 . S
C678 C679 1.399 . S
C678 C683 1.399 . S
C679 C678 1.399 . S
C679 C680 1.376 . S
C680 H667 0.930 . S
C680 C679 1.376 . S
C680 C681 1.388 . S
C681 H668 0.930 . S
C681 C680 1.388 . S
C681 C682 1.390 . S
C682 C681 1.390 . S
C682 C683 1.394 . S
C682 C688 1.465 1_455 S
C683 C678 1.399 . S
C683 C682 1.394 . S
C683 C684 1.516 1_455 S
C684 C683 1.516 1_655 S
C684 C685 1.502 . S
C684 C686 1.561 1_655 S
C684 C687 1.526 . S
C685 H669 0.959 . S
C685 H670 0.959 . S
C685 H671 0.961 1_655 S
C685 C684 1.502 . S
C686 H672 0.960 . S
C686 H673 0.961 1_455 S
C686 H674 0.959 . S
C686 C684 1.561 1_455 S
C687 C684 1.526 . S
C687 C688 1.396 . S
C687 C692 1.390 . S
C688 C682 1.465 1_655 S
C688 C687 1.396 . S
C688 C689 1.399 . S
C689 H675 0.929 . S
C689 C688 1.399 . S
C689 C690 1.385 . S
C690 H676 0.931 . S
C690 C689 1.385 . S
C690 C691 1.389 . S
C691 C690 1.389 . S
C691 C692 1.387 . S
C692 H677 0.930 . S
C692 C687 1.390 . S
C692 C691 1.387 . S
H693 C705 0.930 . S
H694 C707 0.930 . S
H695 C708 0.930 . S
H696 C712 0.959 . S
H697 C712 0.959 1_655 S
H698 C712 0.961 . S
H699 C713 0.960 1_455 S
H700 C713 0.961 . S
H701 C713 0.959 . S
H702 C716 0.929 . S
H703 C717 0.931 . S
H704 C719 0.930 . S
C705 H693 0.930 . S
C705 C706 1.399 . S
C705 C710 1.399 . S
C706 C705 1.399 . S
C706 C707 1.376 . S
C707 H694 0.930 . S
C707 C706 1.376 . S
C707 C708 1.388 . S
C708 H695 0.930 . S
C708 C707 1.388 . S
C708 C709 1.390 . S
C709 C708 1.390 . S
C709 C710 1.394 . S
C709 C715 1.465 1_455 S
C710 C705 1.399 . S
C710 C709 1.394 . S
C710 C711 1.516 . S
C711 C710 1.516 . S
C711 C712 1.502 . S
C711 C713 1.561 1_455 S
C711 C714 1.526 1_455 S
C712 H696 0.959 . S
C712 H697 0.959 1_455 S
C712 H698 0.961 . S
C712 C711 1.502 . S
C713 H699 0.960 1_655 S
C713 H700 0.961 . S
C713 H701 0.959 . S
C713 C711 1.561 1_655 S
C714 C711 1.526 1_655 S
C714 C715 1.396 . S
C714 C719 1.390 . S
C715 C709 1.465 1_655 S
C715 C714 1.396 . S
C715 C716 1.399 . S
C716 H702 0.929 . S
C716 C715 1.399 . S
C716 C717 1.385 . S
C717 H703 0.931 . S
C717 C716 1.385 . S
C717 C718 1.389 . S
C718 C717 1.389 . S
C718 C719 1.387 . S
C719 H704 0.930 . S
C719 C714 1.390 . S
C719 C718 1.387 . S
C301 C3 1.719 . S
C313 C76 1.722 . S
C328 C112 1.723 . S
C340 C39 1.707 . S
C355 C220 1.720 . S
C367 C147 1.723 . S
C382 C183 1.710 . S
C394 C256 1.723 . S
C409 C38 1.353 . S
C421 C122 1.250 . S
C436 C2 1.352 . S
C448 C86 1.228 . S
C463 C266 1.305 . S
C475 C182 1.346 . S
C490 C146 1.326 . S
C502 C230 1.256 . S
C517 C194 1.464 . S
C529 C110 1.508 . S
C544 C74 1.494 . S
C556 C158 1.481 . S
C571 C50 1.434 . S
C583 C254 1.486 . S
C598 C14 1.429 . S
C610 C218 1.486 . S
C625 C4 1.553 . S
C637 C40 1.555 . S
C652 C75 1.541 . S
C664 C111 1.553 . S
C679 C184 1.558 . S
C691 C148 1.556 . S
C706 C219 1.534 . S
C718 C255 1.526 . S
