# Generated by pormake.
# Topology uma, (4)-cn, num edge types: 1
# Building blocks:
#     Node 0, Type 0, BuildingBlock: QUQFOY_clean_sbu_1, # of connection points: 4
#     Node 1, Type 0, BuildingBlock: QUQFOY_clean_sbu_1, # of connection points: 4
#     Node 2, Type 0, BuildingBlock: QUQFOY_clean_sbu_1, # of connection points: 4
#     Node 3, Type 0, BuildingBlock: QUQFOY_clean_sbu_1, # of connection points: 4
#     Node 4, Type 0, BuildingBlock: QUQFOY_clean_sbu_1, # of connection points: 4
#     Node 5, Type 0, BuildingBlock: QUQFOY_clean_sbu_1, # of connection points: 4
#     Node 6, Type 0, BuildingBlock: QUQFOY_clean_sbu_1, # of connection points: 4
#     Node 7, Type 0, BuildingBlock: QUQFOY_clean_sbu_1, # of connection points: 4
#     Node 8, Type 0, BuildingBlock: QUQFOY_clean_sbu_1, # of connection points: 4
#     Node 9, Type 0, BuildingBlock: QUQFOY_clean_sbu_1, # of connection points: 4
#     Node 10, Type 0, BuildingBlock: QUQFOY_clean_sbu_1, # of connection points: 4
#     Node 11, Type 0, BuildingBlock: QUQFOY_clean_sbu_1, # of connection points: 4
#     Node 12, Type 0, BuildingBlock: QUQFOY_clean_sbu_1, # of connection points: 4
#     Node 13, Type 0, BuildingBlock: QUQFOY_clean_sbu_1, # of connection points: 4
#     Node 14, Type 0, BuildingBlock: QUQFOY_clean_sbu_1, # of connection points: 4
#     Node 15, Type 0, BuildingBlock: QUQFOY_clean_sbu_1, # of connection points: 4
#     Node 16, Type 0, BuildingBlock: QUQFOY_clean_sbu_1, # of connection points: 4
#     Node 17, Type 0, BuildingBlock: QUQFOY_clean_sbu_1, # of connection points: 4
#     Node 18, Type 0, BuildingBlock: QUQFOY_clean_sbu_1, # of connection points: 4
#     Node 19, Type 0, BuildingBlock: QUQFOY_clean_sbu_1, # of connection points: 4
#     Node 20, Type 0, BuildingBlock: QUQFOY_clean_sbu_1, # of connection points: 4
#     Node 21, Type 0, BuildingBlock: QUQFOY_clean_sbu_1, # of connection points: 4
#     Node 22, Type 0, BuildingBlock: QUQFOY_clean_sbu_1, # of connection points: 4
#     Node 23, Type 0, BuildingBlock: QUQFOY_clean_sbu_1, # of connection points: 4
#     Node 24, Type 0, BuildingBlock: QUQFOY_clean_sbu_1, # of connection points: 4
#     Node 25, Type 0, BuildingBlock: QUQFOY_clean_sbu_1, # of connection points: 4
#     Node 26, Type 0, BuildingBlock: QUQFOY_clean_sbu_1, # of connection points: 4
#     Node 27, Type 0, BuildingBlock: QUQFOY_clean_sbu_1, # of connection points: 4
#     Node 28, Type 0, BuildingBlock: QUQFOY_clean_sbu_1, # of connection points: 4
#     Node 29, Type 0, BuildingBlock: QUQFOY_clean_sbu_1, # of connection points: 4
#     Node 30, Type 0, BuildingBlock: QUQFOY_clean_sbu_1, # of connection points: 4
#     Node 31, Type 0, BuildingBlock: QUQFOY_clean_sbu_1, # of connection points: 4
#     Node 32, Type 0, BuildingBlock: QUQFOY_clean_sbu_1, # of connection points: 4
#     Node 33, Type 0, BuildingBlock: QUQFOY_clean_sbu_1, # of connection points: 4
#     Node 34, Type 0, BuildingBlock: QUQFOY_clean_sbu_1, # of connection points: 4
#     Node 35, Type 0, BuildingBlock: QUQFOY_clean_sbu_1, # of connection points: 4
#     Edge 36, Type (0, 0), BuildingBlock: OJICUG_clean_linker_0, # of connection points: 2
#     Edge 37, Type (0, 0), BuildingBlock: OJICUG_clean_linker_0, # of connection points: 2
#     Edge 38, Type (0, 0), BuildingBlock: OJICUG_clean_linker_0, # of connection points: 2
#     Edge 39, Type (0, 0), BuildingBlock: OJICUG_clean_linker_0, # of connection points: 2
#     Edge 40, Type (0, 0), BuildingBlock: OJICUG_clean_linker_0, # of connection points: 2
#     Edge 41, Type (0, 0), BuildingBlock: OJICUG_clean_linker_0, # of connection points: 2
#     Edge 42, Type (0, 0), BuildingBlock: OJICUG_clean_linker_0, # of connection points: 2
#     Edge 43, Type (0, 0), BuildingBlock: OJICUG_clean_linker_0, # of connection points: 2
#     Edge 44, Type (0, 0), BuildingBlock: OJICUG_clean_linker_0, # of connection points: 2
#     Edge 45, Type (0, 0), BuildingBlock: OJICUG_clean_linker_0, # of connection points: 2
#     Edge 46, Type (0, 0), BuildingBlock: OJICUG_clean_linker_0, # of connection points: 2
#     Edge 47, Type (0, 0), BuildingBlock: OJICUG_clean_linker_0, # of connection points: 2
#     Edge 48, Type (0, 0), BuildingBlock: OJICUG_clean_linker_0, # of connection points: 2
#     Edge 49, Type (0, 0), BuildingBlock: OJICUG_clean_linker_0, # of connection points: 2
#     Edge 50, Type (0, 0), BuildingBlock: OJICUG_clean_linker_0, # of connection points: 2
#     Edge 51, Type (0, 0), BuildingBlock: OJICUG_clean_linker_0, # of connection points: 2
#     Edge 52, Type (0, 0), BuildingBlock: OJICUG_clean_linker_0, # of connection points: 2
#     Edge 53, Type (0, 0), BuildingBlock: OJICUG_clean_linker_0, # of connection points: 2
#     Edge 54, Type (0, 0), BuildingBlock: OJICUG_clean_linker_0, # of connection points: 2
#     Edge 55, Type (0, 0), BuildingBlock: OJICUG_clean_linker_0, # of connection points: 2
#     Edge 56, Type (0, 0), BuildingBlock: OJICUG_clean_linker_0, # of connection points: 2
#     Edge 57, Type (0, 0), BuildingBlock: OJICUG_clean_linker_0, # of connection points: 2
#     Edge 58, Type (0, 0), BuildingBlock: OJICUG_clean_linker_0, # of connection points: 2
#     Edge 59, Type (0, 0), BuildingBlock: OJICUG_clean_linker_0, # of connection points: 2
#     Edge 60, Type (0, 0), BuildingBlock: OJICUG_clean_linker_0, # of connection points: 2
#     Edge 61, Type (0, 0), BuildingBlock: OJICUG_clean_linker_0, # of connection points: 2
#     Edge 62, Type (0, 0), BuildingBlock: OJICUG_clean_linker_0, # of connection points: 2
#     Edge 63, Type (0, 0), BuildingBlock: OJICUG_clean_linker_0, # of connection points: 2
#     Edge 64, Type (0, 0), BuildingBlock: OJICUG_clean_linker_0, # of connection points: 2
#     Edge 65, Type (0, 0), BuildingBlock: OJICUG_clean_linker_0, # of connection points: 2
#     Edge 66, Type (0, 0), BuildingBlock: OJICUG_clean_linker_0, # of connection points: 2
#     Edge 67, Type (0, 0), BuildingBlock: OJICUG_clean_linker_0, # of connection points: 2
#     Edge 68, Type (0, 0), BuildingBlock: OJICUG_clean_linker_0, # of connection points: 2
#     Edge 69, Type (0, 0), BuildingBlock: OJICUG_clean_linker_0, # of connection points: 2
#     Edge 70, Type (0, 0), BuildingBlock: OJICUG_clean_linker_0, # of connection points: 2
#     Edge 71, Type (0, 0), BuildingBlock: OJICUG_clean_linker_0, # of connection points: 2
#     Edge 72, Type (0, 0), BuildingBlock: OJICUG_clean_linker_0, # of connection points: 2
#     Edge 73, Type (0, 0), BuildingBlock: OJICUG_clean_linker_0, # of connection points: 2
#     Edge 74, Type (0, 0), BuildingBlock: OJICUG_clean_linker_0, # of connection points: 2
#     Edge 75, Type (0, 0), BuildingBlock: OJICUG_clean_linker_0, # of connection points: 2
#     Edge 76, Type (0, 0), BuildingBlock: OJICUG_clean_linker_0, # of connection points: 2
#     Edge 77, Type (0, 0), BuildingBlock: OJICUG_clean_linker_0, # of connection points: 2
#     Edge 78, Type (0, 0), BuildingBlock: OJICUG_clean_linker_0, # of connection points: 2
#     Edge 79, Type (0, 0), BuildingBlock: OJICUG_clean_linker_0, # of connection points: 2
#     Edge 80, Type (0, 0), BuildingBlock: OJICUG_clean_linker_0, # of connection points: 2
#     Edge 81, Type (0, 0), BuildingBlock: OJICUG_clean_linker_0, # of connection points: 2
#     Edge 82, Type (0, 0), BuildingBlock: OJICUG_clean_linker_0, # of connection points: 2
#     Edge 83, Type (0, 0), BuildingBlock: OJICUG_clean_linker_0, # of connection points: 2
#     Edge 84, Type (0, 0), BuildingBlock: OJICUG_clean_linker_0, # of connection points: 2
#     Edge 85, Type (0, 0), BuildingBlock: OJICUG_clean_linker_0, # of connection points: 2
#     Edge 86, Type (0, 0), BuildingBlock: OJICUG_clean_linker_0, # of connection points: 2
#     Edge 87, Type (0, 0), BuildingBlock: OJICUG_clean_linker_0, # of connection points: 2
#     Edge 88, Type (0, 0), BuildingBlock: OJICUG_clean_linker_0, # of connection points: 2
#     Edge 89, Type (0, 0), BuildingBlock: OJICUG_clean_linker_0, # of connection points: 2
#     Edge 90, Type (0, 0), BuildingBlock: OJICUG_clean_linker_0, # of connection points: 2
#     Edge 91, Type (0, 0), BuildingBlock: OJICUG_clean_linker_0, # of connection points: 2
#     Edge 92, Type (0, 0), BuildingBlock: OJICUG_clean_linker_0, # of connection points: 2
#     Edge 93, Type (0, 0), BuildingBlock: OJICUG_clean_linker_0, # of connection points: 2
#     Edge 94, Type (0, 0), BuildingBlock: OJICUG_clean_linker_0, # of connection points: 2
#     Edge 95, Type (0, 0), BuildingBlock: OJICUG_clean_linker_0, # of connection points: 2
#     Edge 96, Type (0, 0), BuildingBlock: OJICUG_clean_linker_0, # of connection points: 2
#     Edge 97, Type (0, 0), BuildingBlock: OJICUG_clean_linker_0, # of connection points: 2
#     Edge 98, Type (0, 0), BuildingBlock: OJICUG_clean_linker_0, # of connection points: 2
#     Edge 99, Type (0, 0), BuildingBlock: OJICUG_clean_linker_0, # of connection points: 2
#     Edge 100, Type (0, 0), BuildingBlock: OJICUG_clean_linker_0, # of connection points: 2
#     Edge 101, Type (0, 0), BuildingBlock: OJICUG_clean_linker_0, # of connection points: 2
#     Edge 102, Type (0, 0), BuildingBlock: OJICUG_clean_linker_0, # of connection points: 2
#     Edge 103, Type (0, 0), BuildingBlock: OJICUG_clean_linker_0, # of connection points: 2
#     Edge 104, Type (0, 0), BuildingBlock: OJICUG_clean_linker_0, # of connection points: 2
#     Edge 105, Type (0, 0), BuildingBlock: OJICUG_clean_linker_0, # of connection points: 2
#     Edge 106, Type (0, 0), BuildingBlock: OJICUG_clean_linker_0, # of connection points: 2
#     Edge 107, Type (0, 0), BuildingBlock: OJICUG_clean_linker_0, # of connection points: 2
# Relax obj value: 0.074
# Max RMSD: 0.224
# Mean RMSD: 0.223
data_MOF--net-uma--node1-QUQFOY_clean_sbu_1--edge1-OJICUG_clean_linker_0
_symmetry_space_group_name_H-M    P1
_symmetry_Int_Tables_number       1
_symmetry_cell_setting            triclinic
loop_
_symmetry_equiv_pos_as_xyz
'x, y, z'
_cell_length_a     66.476455
_cell_length_b     65.705806
_cell_length_c     28.989753
_cell_angle_alpha  90.355638
_cell_angle_beta   90.328857
_cell_angle_gamma 120.00953
loop_
_atom_site_label
_atom_site_type_symbol
_atom_site_fract_x
_atom_site_fract_y
_atom_site_fract_z
_atom_type_partial_charge
O0 O 0.09165 0.33549 0.97538 0.0
Cd1 Cd 0.0894 0.31326 0.02701 0.0
Cd2 Cd 0.05773 0.32736 0.0641 0.0
O3 O 0.06003 0.33672 0.99419 0.0
O4 O 0.10902 0.30071 1.00301 0.0
O5 O 0.11603 0.31884 0.07034 0.0
C6 C 0.12118 0.30764 0.04034 0.0
C7 C 0.05022 0.34861 0.12154 0.0
C8 C 0.07562 0.33991 0.96495 0.0
C9 C 0.04106 0.27655 0.0503 0.0
O10 O 0.04032 0.29172 0.07645 0.0
O11 O 0.05842 0.28236 1.0247 0.0
O12 O 0.03488 0.33563 0.09115 0.0
O13 O 0.07052 0.35067 0.11825 0.0
O14 O 0.61747 0.71601 0.98065 0.0
Cd15 Cd 0.6319 0.7397 0.03423 0.0
Cd16 Cd 0.63649 0.70159 0.06895 0.0
O17 O 0.63401 0.69506 0.99722 0.0
O18 O 0.63164 0.76625 1.00225 0.0
O19 O 0.61582 0.75444 0.07025 0.0
C20 C 0.62088 0.76876 0.03639 0.0
C21 C 0.61765 0.67303 0.12697 0.0
C22 C 0.62508 0.70261 0.96769 0.0
C23 C 0.679 0.74783 0.064 0.0
O24 O 0.66889 0.72884 0.08667 0.0
O25 O 0.66731 0.75397 0.03888 0.0
O26 O 0.63304 0.67268 0.10067 0.0
O27 O 0.61199 0.68888 0.11916 0.0
O28 O 0.24719 0.94118 0.94644 0.0
Cd29 Cd 0.23938 0.94758 1.0117 0.0
Cd30 Cd 0.28592 0.96839 1.01488 0.0
O31 O 0.28358 0.94961 0.9552 0.0
O32 O 0.20505 0.92814 1.00873 0.0
O33 O 0.22628 0.92013 0.05586 0.0
C34 C 0.20619 0.91416 0.03813 0.0
C35 C 0.30575 0.97263 0.08504 0.0
C36 C 0.26521 0.94175 0.93048 0.0
C37 C 0.2638 -0.0016 1.00903 0.0
O38 O 0.28129 0.99613 1.0005 0.0
O39 O 0.24497 0.98114 1.02313 0.0
O40 O 0.31687 0.98184 0.04744 0.0
O41 O 0.28341 0.95937 0.08202 0.0
O42 O 0.35107 0.08273 0.11149 0.0
Cd43 Cd 0.3516 0.11069 0.07652 0.0
Cd44 Cd 0.33909 0.06643 1.00024 0.0
O45 O 0.32995 0.05148 0.06559 0.0
O46 O 0.35889 0.13568 0.12298 0.0
O47 O 0.37927 0.14156 0.05933 0.0
C48 C 0.37506 0.15006 0.09599 0.0
C49 C 0.34859 0.05024 0.9377 0.0
C50 C 0.33774 0.06057 0.10548 0.0
C51 C 0.31674 0.09312 1.01064 0.0
O52 O 0.33473 0.0949 0.99172 0.0
O53 O 0.32009 0.10351 0.04905 0.0
O54 O 0.32723 0.04357 0.94735 0.0
O55 O 0.36464 0.06577 0.96456 0.0
O56 O 0.90532 0.24774 0.08648 0.0
Cd57 Cd 0.90463 0.22983 0.02775 0.0
Cd58 Cd 0.93765 0.27629 1.00065 0.0
O59 O 0.935 0.28288 0.07078 0.0
O60 O 0.88254 0.19714 0.04613 0.0
O61 O 0.87641 0.21299 0.9848 0.0
C62 C 0.86992 0.19491 1.01069 0.0
C63 C 0.94241 0.30296 0.94147 0.0
C64 C 0.92023 0.2685 0.09925 0.0
C65 C 0.95218 0.2396 1.00349 0.0
O66 O 0.95622 0.25946 0.9889 0.0
O67 O 0.93306 0.2257 1.02227 0.0
O68 O 0.95846 0.30754 0.97163 0.0
O69 O 0.92285 0.28372 0.94634 0.0
O70 O 0.75786 0.68965 0.09419 0.0
Cd71 Cd 0.76576 0.70118 0.02776 0.0
Cd72 Cd 0.71792 0.67309 1.02122 0.0
O73 O 0.72072 0.66269 0.08844 0.0
O74 O 0.80006 0.71698 0.03167 0.0
O75 O 0.77946 0.68616 0.98657 0.0
C76 C 0.7994 0.70136 1.00382 0.0
C77 C 0.69501 0.64999 0.95798 0.0
C78 C 0.7393 0.67401 0.1126 0.0
C79 C 0.74055 0.7265 1.01669 0.0
O80 O 0.72261 0.70635 1.02111 0.0
O81 O 0.76065 0.72892 1.01411 0.0
O82 O 0.68561 0.65208 0.99521 0.0
O83 O 0.71737 0.65944 0.95787 0.0
O84 O 0.91011 0.66588 0.08545 0.0
Cd85 Cd 0.91116 0.68491 0.02878 0.0
Cd86 Cd 0.94215 0.66921 0.99807 0.0
O87 O 0.93892 0.65954 0.06792 0.0
O88 O 0.89097 0.69745 0.04883 0.0
O89 O 0.88364 0.67614 0.98542 0.0
C90 C 0.87838 0.68837 1.01254 0.0
C91 C 0.94671 0.6471 0.93827 0.0
C92 C 0.92442 0.65926 0.09699 0.0
C93 C 0.95964 0.72116 1.00504 0.0
O94 O 0.96207 0.70479 0.98744 0.0
O95 O 0.94118 0.71664 1.02566 0.0
O96 O 0.96254 0.65826 0.96917 0.0
O97 O 0.9274 0.64712 0.9427 0.0
O98 O 0.34704 0.27435 0.11692 0.0
Cd99 Cd 0.3478 0.24699 0.08154 0.0
Cd100 Cd 0.33436 0.27729 1.0058 0.0
O101 O 0.32566 0.28367 0.07118 0.0
O102 O 0.35657 0.23021 0.12662 0.0
O103 O 0.37578 0.24517 0.06194 0.0
C104 C 0.37259 0.23272 0.09843 0.0
C105 C 0.34276 0.3024 0.94313 0.0
C106 C 0.33372 0.28298 0.11093 0.0
C107 C 0.31244 0.22816 1.01683 0.0
O108 O 0.33022 0.24446 0.99732 0.0
O109 O 0.31615 0.22169 0.05528 0.0
O110 O 0.3216 0.28732 0.95373 0.0
O111 O 0.35926 0.30357 0.96901 0.0
O112 O 0.74219 0.07348 0.08377 0.0
Cd113 Cd 0.75081 0.07175 1.01676 0.0
Cd114 Cd 0.70143 0.04744 1.01242 0.0
O115 O 0.7041 0.05842 0.08209 0.0
O116 O 0.785 0.0897 1.02494 0.0
O117 O 0.76676 0.10194 0.97935 0.0
C118 C 0.78594 0.10559 0.99809 0.0
C119 C 0.67703 0.04704 0.95177 0.0
C120 C 0.72334 0.06763 0.10455 0.0
C121 C 0.72788 0.02078 1.00067 0.0
O122 O 0.70895 0.02085 1.00615 0.0
O123 O 0.74724 0.03973 1.00004 0.0
O124 O 0.66859 0.03391 0.98754 0.0
O125 O 0.69912 0.06183 0.95206 0.0
O126 O 0.61188 0.90225 0.97815 0.0
Cd127 Cd 0.62809 0.89462 0.03016 0.0
Cd128 Cd 0.63247 0.93762 0.06375 0.0
O129 O 0.63046 0.94033 0.99172 0.0
O130 O 0.62818 0.86769 0.99868 0.0
O131 O 0.61394 0.86446 0.06814 0.0
C132 C 0.61869 0.85493 0.03407 0.0
C133 C 0.6132 0.94794 0.11988 0.0
C134 C 0.62078 0.92314 0.96331 0.0
C135 C 0.67502 0.93562 0.05623 0.0
O136 O 0.66472 0.94306 0.08234 0.0
O137 O 0.66327 0.91758 0.03098 0.0
O138 O 0.62889 0.96351 0.09367 0.0
O139 O 0.60758 0.92626 0.11305 0.0
O140 O 0.0991 0.7612 0.97162 0.0
Cd141 Cd 0.09768 0.78143 1.02428 0.0
Cd142 Cd 0.0655 0.73507 0.06061 0.0
O143 O 0.06741 0.72807 0.99022 0.0
O144 O 0.11708 0.81361 0.99963 0.0
O145 O 0.12493 0.80318 0.06636 0.0
C146 C 0.12968 0.81934 0.03637 0.0
C147 C 0.05773 0.70616 0.11742 0.0
C148 C 0.08287 0.74063 0.96088 0.0
C149 C 0.04967 0.76986 0.04959 0.0
O150 O 0.04853 0.75345 0.07432 0.0
O151 O 0.06699 0.78154 1.02399 0.0
O152 O 0.04242 0.70378 0.08724 0.0
O153 O 0.07815 0.72444 0.11414 0.0
O154 O 0.23997 0.3071 0.951 0.0
Cd155 Cd 0.2323 0.29291 1.01613 0.0
Cd156 Cd 0.27864 0.32031 1.0203 0.0
O157 O 0.27592 0.33629 0.96093 0.0
O158 O 0.19792 0.27683 1.0132 0.0
O159 O 0.21866 0.30673 0.06038 0.0
C160 C 0.19868 0.29192 0.04268 0.0
C161 C 0.29802 0.33715 0.0904 0.0
C162 C 0.25778 0.32515 0.93572 0.0
C163 C 0.25812 0.26812 1.01463 0.0
O164 O 0.27527 0.28827 1.00617 0.0
O165 O 0.23894 0.2658 0.02803 0.0
O166 O 0.30938 0.33936 0.05297 0.0
O167 O 0.27562 0.32693 0.08726 0.0
O168 O 0.75817 0.65799 0.32302 0.0
Cd169 Cd 0.75535 0.63767 0.3788 0.0
Cd170 Cd 0.72325 0.65405 0.40763 0.0
O171 O 0.72998 0.66559 0.33896 0.0
O172 O 0.77411 0.62373 0.35636 0.0
O173 O 0.78258 0.64377 0.42142 0.0
C174 C 0.78702 0.63159 0.39254 0.0
C175 C 0.71753 0.67497 0.46886 0.0
C176 C 0.74461 0.66544 0.31079 0.0
C177 C 0.70459 0.60231 0.39278 0.0
O178 O 0.70143 0.61833 0.40999 0.0
O179 O 0.72422 0.60684 0.37775 0.0
O180 O 0.70399 0.66751 0.43325 0.0
O181 O 0.73513 0.6717 0.46908 0.0
O182 O 0.278 0.04393 0.27379 0.0
Cd183 Cd 0.28298 0.07183 0.31544 0.0
Cd184 Cd 0.29996 0.05143 0.37817 0.0
O185 O 0.30432 0.0403 0.31384 0.0
O186 O 0.27208 0.08958 0.27696 0.0
O187 O 0.2612 0.07999 0.34899 0.0
C188 C 0.26148 0.09129 0.31248 0.0
C189 C 0.29106 0.02507 0.44026 0.0
C190 C 0.29326 0.0376 0.2762 0.0
C191 C 0.33117 0.09987 0.35446 0.0
O192 O 0.32366 0.08666 0.38957 0.0
O193 O 0.31766 0.09568 0.32022 0.0
O194 O 0.31135 0.0358 0.42211 0.0
O195 O 0.27549 0.02924 0.42339 0.0
O196 O 0.9046 0.27997 0.31427 0.0
Cd197 Cd 0.89347 0.28225 0.37882 0.0
Cd198 Cd 0.94303 0.30688 0.3888 0.0
O199 O 0.94246 0.29434 0.32168 0.0
O200 O 0.85945 0.26163 0.36901 0.0
O201 O 0.87916 0.25284 0.41838 0.0
C202 C 0.85975 0.2469 0.39756 0.0
C203 C 0.96733 0.30982 0.45156 0.0
C204 C 0.924 0.28497 0.29686 0.0
C205 C 0.9157 0.33325 0.39243 0.0
O206 O 0.93462 0.33292 0.38984 0.0
O207 O 0.89618 0.31439 0.39241 0.0
O208 O 0.97565 0.32238 0.4151 0.0
O209 O 0.94546 0.29427 0.45107 0.0
O210 O 0.03084 0.41772 0.44255 0.0
Cd211 Cd 0.0253 0.43936 0.39923 0.0
Cd212 Cd 0.01105 0.40125 0.33804 0.0
O213 O 0.00576 0.38623 0.40318 0.0
O214 O 0.03441 0.46786 0.43817 0.0
O215 O 0.04754 0.46996 0.36774 0.0
C216 C 0.04613 0.48062 0.40406 0.0
C217 C 0.02395 0.3869 0.27635 0.0
C218 C 0.01613 0.39577 0.44104 0.0
C219 C 0.97769 0.41615 0.35655 0.0
O220 O 0.98645 0.41078 0.32295 0.0
O221 O 0.99037 0.42666 0.3914 0.0
O222 O 0.00327 0.37502 0.29257 0.0
O223 O 0.03774 0.40696 0.29565 0.0
O224 O 0.57258 0.55371 0.43022 0.0
Cd225 Cd 0.56796 0.53914 0.3652 0.0
Cd226 Cd 0.59511 0.5888 0.34595 0.0
O227 O 0.59202 0.59201 0.4176 0.0
O228 O 0.54961 0.50512 0.381 0.0
O229 O 0.53681 0.52094 0.33073 0.0
C230 C 0.53374 0.5025 0.35222 0.0
C231 C 0.59445 0.61335 0.2869 0.0
C232 C 0.58339 0.57476 0.44552 0.0
C233 C 0.61671 0.55769 0.33526 0.0
O234 O 0.61861 0.5779 0.33352 0.0
O235 O 0.59756 0.53959 0.34478 0.0
O236 O 0.60993 0.62152 0.31931 0.0
O237 O 0.57829 0.5916 0.28949 0.0
O238 O 0.412 0.05027 0.4013 0.0
Cd239 Cd 0.42191 0.06051 0.33482 0.0
Cd240 Cd 0.37506 0.03172 0.32431 0.0
O241 O 0.37584 0.02145 0.39252 0.0
O242 O 0.4561 0.0749 0.34094 0.0
O243 O 0.43481 0.04333 0.29799 0.0
C244 C 0.45482 0.05813 0.3156 0.0
C245 C 0.35466 0.00782 0.26005 0.0
C246 C 0.39339 0.03404 0.41854 0.0
C247 C 0.39704 0.08517 0.31616 0.0
O248 O 0.37934 0.06487 0.3209 0.0
O249 O 0.41737 0.08804 0.31584 0.0
O250 O 0.34389 0.01064 0.29421 0.0
O251 O 0.37695 0.0171 0.26395 0.0
O252 O 0.55618 0.01503 0.41898 0.0
Cd253 Cd 0.5599 0.03184 0.35745 0.0
Cd254 Cd 0.5863 0.00905 0.33656 0.0
O255 O 0.57898 -4e-05 0.40648 0.0
O256 O 0.54296 0.04898 0.37099 0.0
O257 O 0.53315 0.02426 0.31248 0.0
C258 C 0.52983 0.0391 0.3357 0.0
C259 C 0.58708 0.98475 0.27631 0.0
C260 C 0.56686 0.00479 0.43374 0.0
C261 C 0.61108 0.06193 0.34153 0.0
O262 O 0.61182 0.04352 0.33099 0.0
O263 O 0.59224 0.06088 0.35301 0.0
O264 O 0.60083 0.99057 0.31154 0.0
O265 O 0.57181 0.99143 0.27631 0.0
O266 O 0.036 0.6178 0.43904 0.0
Cd267 Cd 0.03015 0.59016 0.39582 0.0
Cd268 Cd 0.01731 0.61466 0.33355 0.0
O269 O 0.01175 0.62455 0.39869 0.0
O270 O 0.03764 0.57024 0.43595 0.0
O271 O 0.05178 0.58054 0.36604 0.0
C272 C 0.0493 0.56839 0.40256 0.0
C273 C 0.03064 0.64194 0.27212 0.0
C274 C 0.02171 0.62537 0.4369 0.0
C275 C 0.98316 0.56617 0.35061 0.0
O276 O -0.0074 0.58033 0.31741 0.0
O277 O -0.00478 0.56834 0.38627 0.0
O278 O 0.00993 0.6331 0.28809 0.0
O279 O 0.04425 0.63575 0.29159 0.0
O280 O 0.40348 0.37126 0.4102 0.0
Cd281 Cd 0.41733 0.37421 0.34606 0.0
Cd282 Cd 0.36915 0.35283 0.32822 0.0
O283 O 0.36682 0.36099 0.39739 0.0
O284 O 0.45102 0.39384 0.36131 0.0
O285 O 0.43318 0.40595 0.31415 0.0
C286 C 0.45187 0.41029 0.33612 0.0
C287 C 0.34753 0.3545 0.26486 0.0
C288 C 0.38367 0.36631 0.42536 0.0
C289 C 0.39484 0.32481 0.31975 0.0
O290 O 0.37632 0.32594 0.3219 0.0
O291 O 0.41466 0.34308 0.32442 0.0
O292 O 0.33769 0.33976 0.29781 0.0
O293 O 0.36943 0.36956 0.26951 0.0
O294 O 0.27619 0.241 0.28089 0.0
Cd295 Cd 0.28272 0.21895 0.32106 0.0
Cd296 Cd 0.29904 0.25686 0.38399 0.0
O297 O 0.30237 0.27195 0.31999 0.0
O298 O 0.27249 0.19049 0.28123 0.0
O299 O 0.26157 0.18829 0.35351 0.0
C300 C 0.26197 0.17768 0.3162 0.0
C301 C 0.2894 0.27356 0.44659 0.0
C302 C 0.29098 0.26292 0.28283 0.0
C303 C 0.33149 0.24184 0.35834 0.0
O304 O 0.32383 0.24702 0.39404 0.0
O305 O 0.31776 0.2316 0.32463 0.0
O306 O 0.30967 0.28398 0.42831 0.0
O307 O 0.2743 0.25335 0.42962 0.0
O308 O 0.74737 0.09778 0.31824 0.0
Cd309 Cd 0.74837 0.11471 0.37886 0.0
Cd310 Cd 0.71521 0.06472 0.40338 0.0
O311 O 0.71993 0.0611 0.33247 0.0
O312 O 0.76689 0.14779 0.35741 0.0
O313 O 0.77787 0.13538 0.4173 0.0
C314 C 0.7814 0.15245 0.39063 0.0
C315 C 0.71006 0.03732 0.46217 0.0
C316 C 0.73348 0.07688 0.30434 0.0
C317 C 0.69858 0.09991 0.4015 0.0
O318 O 0.69469 0.07955 0.41232 0.0
O319 O 0.71832 0.11557 0.38761 0.0
O320 O 0.69577 0.03163 0.4279 0.0
O321 O 0.72816 0.05809 0.46195 0.0
O322 O 0.90889 0.62922 0.31028 0.0
Cd323 Cd 0.89833 0.61508 0.37446 0.0
Cd324 Cd 0.94774 0.64099 0.38399 0.0
O325 O 0.94671 0.65343 0.31789 0.0
O326 O 0.86423 0.60096 0.36619 0.0
O327 O 0.88418 0.62939 0.41661 0.0
C328 C 0.86463 0.61566 0.39617 0.0
C329 C 0.97204 0.66247 0.44726 0.0
C330 C 0.9282 0.64421 0.2932 0.0
C331 C 0.92108 0.58699 0.38466 0.0
O332 O 0.93988 0.6066 0.38265 0.0
O333 O 0.90147 0.58584 0.38563 0.0
O334 O 0.9804 0.65881 0.4101 0.0
O335 O 0.95007 0.65546 0.44733 0.0
O336 O 0.41531 0.02569 0.63119 0.0
Cd337 Cd 0.41715 0.00349 0.67817 0.0
Cd338 Cd 0.37835 -0.0016 0.70744 0.0
O339 O 0.37759 0.00951 0.64012 0.0
O340 O 0.44954 0.0099 0.675 0.0
O341 O 0.43298 0.01087 0.74054 0.0
C342 C 0.45069 0.01243 0.7192 0.0
C343 C 0.37058 0.01478 0.77262 0.0
C344 C 0.39563 0.0215 0.61594 0.0
C345 C 0.37845 0.95517 0.68237 0.0
O346 O 0.37054 0.96389 0.71144 0.0
O347 O 0.39655 0.96867 0.65991 0.0
O348 O 0.35421 0.00059 0.7449 0.0
O349 O 0.39162 0.02028 0.76261 0.0
O350 O 0.95621 0.38186 0.60966 0.0
Cd351 Cd 0.96114 0.41031 0.6491 0.0
Cd352 Cd 0.97423 0.3876 0.71607 0.0
O353 O 0.98165 0.37796 0.65228 0.0
O354 O 0.95247 0.42888 0.60789 0.0
O355 O 0.93864 0.41873 0.67823 0.0
C356 C 0.94056 0.4304 0.64122 0.0
C357 C 0.96332 0.36178 0.77952 0.0
C358 C 0.97147 0.37562 0.61357 0.0
C359 C 0.00628 0.43611 0.6981 0.0
O360 O -0.0049 0.42293 0.73152 0.0
O361 O -0.00417 0.43291 0.65975 0.0
O362 O 0.9842 0.3724 0.76399 0.0
O363 O 0.94817 0.3652 0.75823 0.0
O364 O 0.59555 0.56642 0.66546 0.0
Cd365 Cd 0.56941 0.5637 0.70661 0.0
Cd366 Cd 0.60859 0.60748 0.73377 0.0
O367 O 0.61353 0.60472 0.66291 0.0
O368 O 0.54399 0.53676 0.67301 0.0
O369 O 0.54956 0.53562 0.74763 0.0
C370 C 0.53777 0.52532 0.71084 0.0
C371 C 0.63585 0.61671 0.7945 0.0
C372 C 0.60615 0.58511 0.64217 0.0
C373 C 0.56616 0.60783 0.71321 0.0
O374 O 0.58281 0.61583 0.74242 0.0
O375 O 0.55984 0.58838 0.69285 0.0
O376 O 0.63822 0.63226 0.76464 0.0
O377 O 0.61853 0.59561 0.7889 0.0
O378 O 0.63952 0.72686 0.75275 0.0
Cd379 Cd 0.63724 0.73652 0.68644 0.0
Cd380 Cd 0.65588 0.70472 0.67728 0.0
O381 O 0.65786 0.70659 0.75004 0.0
O382 O 0.6233 0.75636 0.70202 0.0
O383 O 0.65573 0.77049 0.66334 0.0
C384 C 0.64006 0.77388 0.68184 0.0
C385 C 0.6819 0.70252 0.62458 0.0
C386 C 0.64739 0.71513 0.77301 0.0
C387 C 0.60574 0.6895 0.64748 0.0
O388 O 0.62188 0.68497 0.65598 0.0
O389 O 0.60894 0.71008 0.65287 0.0
O390 O 0.67104 0.68642 0.6548 0.0
O391 O 0.67946 0.72083 0.62644 0.0
O392 O 0.24489 0.89575 0.72576 0.0
Cd393 Cd 0.24529 0.87883 0.66611 0.0
Cd394 Cd 0.27135 0.92803 0.63514 0.0
O395 O 0.26981 0.93249 0.70639 0.0
O396 O 0.22862 0.84547 0.68589 0.0
O397 O 0.21607 0.85785 0.62811 0.0
C398 C 0.21355 0.84075 0.65365 0.0
C399 C 0.27422 0.95761 0.58453 0.0
C400 C 0.25768 0.91732 0.73664 0.0
C401 C 0.29364 0.89767 0.6303 0.0
O402 O 0.2927 0.9153 0.61531 0.0
O403 O 0.27704 0.88195 0.6533 0.0
O404 O 0.29067 0.96114 0.61271 0.0
O405 O 0.25535 0.93751 0.58627 0.0
O406 O 0.08706 0.37457 0.75406 0.0
Cd407 Cd 0.09506 0.38802 0.68861 0.0
Cd408 Cd 0.04702 0.35984 0.68348 0.0
O409 O 0.05025 0.34681 0.74715 0.0
O410 O 0.12944 0.40386 0.69188 0.0
O411 O 0.10865 0.37389 0.64493 0.0
C412 C 0.12867 0.3888 0.66235 0.0
C413 C 0.02413 0.33874 0.61864 0.0
C414 C 0.06884 0.35776 0.77132 0.0
C415 C 0.06945 0.41317 0.68311 0.0
O416 O 0.05171 0.39303 0.68898 0.0
O417 O 0.08934 0.41559 0.6762 0.0
O418 O 0.01476 0.33998 0.65665 0.0
O419 O 0.04647 0.34796 0.61847 0.0
O420 O 0.23835 0.35193 0.73254 0.0
Cd421 Cd 0.23975 0.37041 0.67452 0.0
Cd422 Cd 0.26693 0.34934 0.64226 0.0
O423 O 0.26498 0.34268 0.71307 0.0
O424 O 0.22233 0.38611 0.69474 0.0
O425 O 0.21133 0.36223 0.63448 0.0
C426 C 0.20806 0.37614 0.66094 0.0
C427 C 0.27069 0.32317 0.59102 0.0
C428 C 0.25181 0.34413 0.74313 0.0
C429 C 0.28832 0.40199 0.64168 0.0
O430 O 0.28769 0.38396 0.62392 0.0
O431 O 0.27151 0.39998 0.66549 0.0
O432 O 0.28693 0.33654 0.61953 0.0
O433 O 0.2516 0.32378 0.59254 0.0
O434 O 0.64 0.90969 0.75209 0.0
Cd435 Cd 0.63652 0.89631 0.68652 0.0
Cd436 Cd 0.65196 0.94601 0.67322 0.0
O437 O 0.65539 0.94818 0.74582 0.0
O438 O 0.6239 0.86295 0.705 0.0
O439 O 0.65471 0.88085 0.66169 0.0
C440 C 0.63996 0.86204 0.68255 0.0
C441 C 0.67612 0.97409 0.6178 0.0
C442 C 0.64668 0.9297 0.77054 0.0
C443 C 0.60153 0.90794 0.65291 0.0
O444 O 0.6172 0.92945 0.65677 0.0
O445 O 0.60631 0.89167 0.65787 0.0
O446 O 0.66536 0.9791 0.64869 0.0
O447 O 0.67448 0.95368 0.61995 0.0
O448 O 0.09325 0.71875 0.74787 0.0
Cd449 Cd 0.1012 0.71372 0.68194 0.0
Cd450 Cd 0.0529 0.69322 0.67723 0.0
O451 O 0.05633 0.70901 0.74212 0.0
O452 O 0.1356 0.73303 0.68477 0.0
O453 O 0.11438 0.74171 0.63908 0.0
C454 C 0.13452 0.74728 0.65599 0.0
C455 C 0.02952 0.6912 0.6135 0.0
C456 C 0.07503 0.71685 0.76591 0.0
C457 C 0.07553 0.66264 0.67414 0.0
O458 O 0.0578 0.66486 0.6802 0.0
O459 O 0.09552 0.68039 0.66838 0.0
O460 O 0.02044 0.68027 0.65132 0.0
O461 O 0.05183 0.7048 0.61303 0.0
O462 O 0.96075 0.5818 0.60556 0.0
Cd463 Cd 0.96491 0.55838 0.64595 0.0
Cd464 Cd 0.97923 0.59478 0.71153 0.0
O465 O 0.98666 0.61156 0.6477 0.0
O466 O 0.9549 0.53018 0.60577 0.0
O467 O 0.94177 0.52799 0.67638 0.0
C468 C 0.94288 0.51738 0.63965 0.0
C469 C 0.96802 0.60956 0.77521 0.0
C470 C 0.97641 0.60338 0.60906 0.0
C471 C 0.01075 0.57784 0.69277 0.0
O472 O 0.00067 0.58127 0.72659 0.0
O473 O -0.00051 0.5698 0.65532 0.0
O474 O 0.98888 0.62024 0.75963 0.0
O475 O 0.95302 0.59063 0.75383 0.0
O476 O 0.40247 0.38977 0.63774 0.0
Cd477 Cd 0.40902 0.41652 0.68297 0.0
Cd478 Cd 0.36846 0.38381 0.71564 0.0
O479 O 0.3647 0.3717 0.64737 0.0
O480 O 0.43896 0.4406 0.65734 0.0
O481 O 0.43534 0.43028 0.73038 0.0
C482 C 0.44833 0.4431 0.69735 0.0
C483 C 0.36175 0.35948 0.77938 0.0
C484 C 0.38209 0.37575 0.62285 0.0
C485 C 0.37191 0.42868 0.69533 0.0
O486 O 0.36357 0.41209 0.72428 0.0
O487 O 0.38913 0.43207 0.67118 0.0
O488 O 0.34483 0.3581 0.75485 0.0
O489 O 0.38269 0.37433 0.76684 0.0
O490 O 0.55406 0.99213 0.65371 0.0
Cd491 Cd 0.54679 0.98273 0.72131 0.0
Cd492 Cd 0.59297 -0.00029 0.72453 0.0
O493 O 0.59241 0.01076 0.65648 0.0
O494 O 0.51426 0.9759 0.72647 0.0
O495 O 0.54341 0.00534 0.76406 0.0
C496 C 0.52164 0.994 0.75307 0.0
C497 C 0.61833 0.02064 0.78724 0.0
C498 C 0.57347 0.00336 0.63357 0.0
C499 C 0.56004 0.94686 0.72698 0.0
O500 O 0.58063 0.96415 0.724 0.0
O501 O 0.54294 0.95016 0.73162 0.0
O502 O 0.62574 0.01525 0.75067 0.0
O503 O 0.59685 0.01557 0.78709 0.0
C504 C 0.97813 0.2352 0.05769 0.0
C505 C 0.97228 0.23658 1.01162 0.0
H506 H 0.00593 0.24749 0.10715 0.0
C507 C 0.98927 0.24348 0.97762 0.0
H508 H 0.96522 0.22993 0.08452 0.0
C509 C 0.01249 0.25259 0.99047 0.0
C510 C 0.01879 0.25585 0.03748 0.0
H511 H 0.98506 0.24464 0.94192 0.0
H512 H 0.02557 0.26055 0.96404 0.0
C513 C 0.00144 0.24525 0.07076 0.0
C514 C 0.73546 0.75081 0.07325 0.0
C515 C 0.73755 0.74662 0.02643 0.0
H516 H 0.71397 0.75463 0.1232 0.0
C517 C 0.72635 0.75286 0.99312 0.0
H518 H 0.74402 0.74606 0.09948 0.0
C519 C 0.70973 0.75868 1.00675 0.0
C520 C 0.70367 0.75717 0.05357 0.0
H521 H 0.72769 0.74967 0.95685 0.0
H522 H 0.69892 0.76005 0.98023 0.0
C523 C 0.71817 0.75563 0.08693 0.0
C524 C 0.29064 0.05814 0.96326 0.0
C525 C 0.29484 0.07059 1.00494 0.0
H526 H 0.27633 0.02414 0.93189 0.0
C527 C 0.28123 0.05897 0.04361 0.0
H528 H 0.30044 0.06679 0.9327 0.0
C529 C 0.26707 0.03452 0.04282 0.0
C530 C 0.26672 0.02181 1.00364 0.0
H531 H 0.28366 0.06819 0.0761 0.0
H532 H 0.25911 0.02552 0.07452 0.0
C533 C 0.27673 0.03377 0.96271 0.0
C534 C 0.0108 0.76256 0.07259 0.0
C535 C 0.02773 0.76905 0.03848 0.0
H536 H 0.97459 0.74279 0.08742 0.0
C537 C 0.02104 0.76666 0.99175 0.0
H538 H 0.01561 0.76431 0.10879 0.0
C539 C -0.0024 0.75349 0.97951 0.0
C540 C 0.98081 0.74365 1.01396 0.0
H541 H 0.03381 0.77159 0.96473 0.0
H542 H -0.00712 0.74858 0.94364 0.0
C543 C 0.98732 0.75026 0.06024 0.0
C544 C 0.2858 0.23581 0.96969 0.0
C545 C 0.29042 0.22831 1.01153 0.0
H546 H 0.27087 0.25452 0.93793 0.0
C547 C 0.27708 0.22663 0.05049 0.0
H548 H 0.29542 0.23674 0.93896 0.0
C549 C 0.26268 0.23646 0.04959 0.0
C550 C 0.26176 0.24805 1.00998 0.0
H551 H 0.27987 0.22045 0.08314 0.0
H552 H 0.25486 0.23776 0.08135 0.0
C553 C 0.27166 0.24585 0.96902 0.0
C554 C 0.71358 0.9706 0.07168 0.0
C555 C 0.69839 0.95305 0.04078 0.0
H556 H 0.73724 0.00732 0.08083 0.0
C557 C 0.70144 0.95726 0.99303 0.0
H558 H 0.71168 0.96771 0.10855 0.0
C559 C 0.71531 0.98015 0.97732 0.0
C560 C 0.72704 -0.00148 1.0092 0.0
H561 H 0.69007 0.94398 0.96827 0.0
H562 H 0.71408 0.98389 0.94138 0.0
C563 C 0.72827 0.99327 0.05567 0.0
C564 C 0.6793 0.57968 0.32826 0.0
C565 C 0.68396 0.58113 0.3759 0.0
H566 H 0.65285 0.5705 0.27667 0.0
C567 C 0.66602 0.56747 0.40628 0.0
H568 H 0.69298 0.59037 0.30436 0.0
C569 C 0.64318 0.55501 0.38987 0.0
C570 C 0.63819 0.55734 0.34364 0.0
H571 H 0.6693 0.56861 0.44312 0.0
H572 H 0.62931 0.5469 0.41476 0.0
C573 C 0.65637 0.56825 0.31225 0.0
C574 C 0.38146 0.10948 0.28749 0.0
C575 C 0.39322 0.10504 0.32262 0.0
H576 H 0.35251 0.11359 0.27079 0.0
C577 C 0.39042 0.1101 0.36851 0.0
H578 H 0.38349 0.10588 0.25181 0.0
C579 C 0.37176 0.11326 0.3799 0.0
C580 C 0.3564 0.11199 0.34507 0.0
H581 H 0.39958 0.10702 0.39619 0.0
H582 H 0.3673 0.11278 0.41592 0.0
C583 C 0.36342 0.11362 0.29873 0.0
C584 C 0.92758 0.37283 0.42066 0.0
C585 C 0.91742 0.35607 0.38524 0.0
H586 H 0.95464 0.40726 0.43852 0.0
C587 C 0.92048 0.3637 0.33933 0.0
H588 H 0.92531 0.36738 0.45637 0.0
C589 C 0.93821 0.38634 0.3287 0.0
C590 C 0.95238 0.4014 0.36424 0.0
H591 H 0.91254 0.35102 0.3114 0.0
H592 H 0.94316 0.39046 0.29295 0.0
C593 C 0.94469 0.39573 0.41011 0.0
C594 C 0.65141 0.0926 0.3253 0.0
C595 C 0.63294 0.08232 0.35615 0.0
H596 H 0.68808 0.10839 0.31732 0.0
C597 C 0.63742 0.08535 0.40388 0.0
H598 H 0.64822 0.09014 0.28843 0.0
C599 C 0.66009 0.09465 0.42046 0.0
C600 C 0.67836 0.10198 0.38928 0.0
H601 H 0.62327 0.07722 0.42819 0.0
H602 H 0.663 0.0935 0.45693 0.0
C603 C 0.67417 0.10302 0.34199 0.0
C604 C 0.93234 0.55896 0.41211 0.0
C605 C 0.923 0.56606 0.37651 0.0
H606 H 0.95866 0.55107 0.43085 0.0
C607 C 0.92677 0.56201 0.33059 0.0
H608 H 0.92951 0.56175 0.44781 0.0
C609 C 0.94436 0.55697 0.32057 0.0
C610 C 0.95777 0.55558 0.3567 0.0
H611 H 0.91947 0.56716 0.30253 0.0
H612 H 0.94988 0.55815 0.28511 0.0
C613 C 0.94934 0.55308 0.40209 0.0
C614 C 0.38016 0.28487 0.28993 0.0
C615 C 0.39195 0.30138 0.3251 0.0
H616 H 0.35184 0.25093 0.27344 0.0
C617 C 0.38995 0.29355 0.37074 0.0
H618 H 0.38155 0.29048 0.25444 0.0
C619 C 0.37197 0.27117 0.38224 0.0
C620 C 0.35652 0.25647 0.34774 0.0
H621 H 0.39911 0.30603 0.39846 0.0
H622 H 0.36803 0.26702 0.41835 0.0
C623 C 0.36283 0.26218 0.3012 0.0
C624 C 0.32411 0.89858 0.67993 0.0
C625 C 0.31694 0.90047 0.63521 0.0
H626 H 0.35074 0.91571 0.73136 0.0
C627 C 0.33388 0.91394 0.60262 0.0
H628 H 0.31145 0.88804 0.70566 0.0
C629 C 0.35669 0.92924 0.61716 0.0
C630 C 0.36228 0.9315 0.66444 0.0
H631 H 0.32882 0.91542 0.56776 0.0
H632 H 0.36854 0.94202 0.59284 0.0
C633 C 0.34667 0.91448 0.69484 0.0
C634 C 0.04289 0.44367 0.73648 0.0
C635 C 0.03168 0.44547 0.69681 0.0
H636 H 0.06561 0.43214 0.76257 0.0
C637 C 0.04208 0.44728 0.6536 0.0
H638 H 0.03583 0.443 0.77039 0.0
C639 C 0.05898 0.44072 0.64913 0.0
C640 C 0.06611 0.43341 0.68805 0.0
H641 H 0.03445 0.44953 0.62231 0.0
H642 H 0.06355 0.43778 0.61488 0.0
C643 C 0.06007 0.43752 0.73202 0.0
C644 C 0.57652 0.64986 0.62224 0.0
C645 C 0.58217 0.66943 0.65036 0.0
H646 H 0.56515 0.61326 0.62115 0.0
C647 C 0.57218 0.66586 0.69434 0.0
H648 H 0.58387 0.6522 0.58809 0.0
C649 C 0.5628 0.64376 0.71458 0.0
C650 C 0.56193 0.62505 0.68945 0.0
H651 H 0.57608 0.68077 0.71651 0.0
H652 H 0.5595 0.6422 0.75131 0.0
C653 C 0.56597 0.62752 0.64163 0.0
C654 C 0.34058 0.43781 0.70927 0.0
C655 C 0.35644 0.43707 0.67858 0.0
H656 H 0.30523 0.42829 0.71964 0.0
C657 C 0.3514 0.43492 0.63102 0.0
H658 H 0.34425 0.43989 0.74601 0.0
C659 C 0.32874 0.42741 0.616 0.0
C660 C 0.31144 0.42285 0.64844 0.0
H661 H 0.36351 0.43471 0.60639 0.0
H662 H 0.32407 0.4216 0.5805 0.0
C663 C 0.31815 0.43114 0.69396 0.0
C664 C 0.56806 0.91323 0.63746 0.0
C665 C 0.57814 0.90303 0.66437 0.0
H666 H 0.55202 0.93439 0.63837 0.0
C667 C 0.5726 0.89913 0.71152 0.0
H668 H 0.57219 0.91651 0.60119 0.0
C669 C 0.56243 0.91071 0.73341 0.0
C670 C 0.5563 0.92467 0.70744 0.0
H671 H 0.58028 0.89131 0.733 0.0
H672 H 0.56249 0.91147 0.77076 0.0
C673 C 0.55663 0.92358 0.659 0.0
C674 C 0.0636 0.62402 0.64017 0.0
C675 C 0.07209 0.63899 0.6787 0.0
H676 H 0.0374 0.59061 0.61489 0.0
C677 C 0.0667 0.62927 0.72298 0.0
H678 H 0.06765 0.63116 0.60568 0.0
C679 C 0.04876 0.60616 0.72854 0.0
C680 C 0.0363 0.59288 0.68966 0.0
H681 H 0.0733 0.64058 0.75323 0.0
H682 H 0.04222 0.60031 0.76295 0.0
C683 C 0.04602 0.60073 0.64571 0.0
C684 C 0.15708 0.27837 0.02668 0.0
C685 C 0.17772 0.29391 0.05029 0.0
H686 H 0.12327 0.27075 1.005 0.0
C687 C 0.17872 0.31283 0.07535 0.0
H688 H 0.15557 0.26351 1.00731 0.0
C689 C 0.15987 0.31686 0.07435 0.0
C690 C 0.14 0.30223 0.04771 0.0
H691 H 0.19441 0.32512 0.09386 0.0
H692 H 0.16132 0.33205 0.09231 0.0
C693 C 0.13856 0.2826 1.02511 0.0
C694 C 0.61709 0.79952 0.99469 0.0
C695 C 0.61599 0.78837 0.03651 0.0
H696 H 0.61836 0.82892 0.96129 0.0
C697 C 0.61268 0.79773 0.07766 0.0
H698 H 0.61929 0.79257 0.9623 0.0
C699 C 0.61217 0.81887 0.0771 0.0
C700 C 0.61495 0.83078 0.03537 0.0
H701 H 0.61175 0.78946 0.1104 0.0
H702 H 0.61086 0.82646 0.10941 0.0
C703 C 0.61656 0.8204 0.99412 0.0
C704 C 0.1465 0.86179 1.02083 0.0
C705 C 0.14836 0.84394 0.04328 0.0
H706 H 0.16289 0.89796 1.00311 0.0
C707 C 0.16841 0.84989 0.0696 0.0
H708 H 0.13107 0.8578 1.00099 0.0
C709 C 0.187 0.87316 0.07052 0.0
C710 C 0.18555 0.89075 0.04569 0.0
H711 H 0.17018 0.83643 0.08746 0.0
H712 H 0.20282 0.87714 0.08882 0.0
C713 C 0.16475 0.88489 1.02231 0.0
C714 C 0.39115 0.21128 0.06411 0.0
C715 C 0.38305 0.2176 0.10329 0.0
H716 H 0.39547 0.18446 0.03126 0.0
C717 C 0.37948 0.20484 0.14406 0.0
H718 H 0.39431 0.22094 0.03229 0.0
C719 C 0.38015 0.18395 0.14347 0.0
C720 C 0.38441 0.17557 0.10211 0.0
H721 H 0.37371 0.20957 0.17511 0.0
H722 H 0.37485 0.17317 0.17406 0.0
C723 C 0.39184 0.19034 0.06353 0.0
C724 C 0.84836 0.15167 1.0178 0.0
C725 C 0.84913 0.17196 1.00069 0.0
H726 H 0.82813 0.11487 0.02901 0.0
C727 C 0.82964 0.1699 0.97712 0.0
H728 H 0.86326 0.15264 0.03535 0.0
C729 C 0.80913 0.14798 0.97374 0.0
C730 C 0.80809 0.12794 0.99342 0.0
H731 H 0.82989 0.18532 0.96343 0.0
H732 H 0.79389 0.14693 0.95766 0.0
C733 C 0.82819 0.12996 1.01398 0.0
C734 C 0.83883 0.67632 0.97914 0.0
C735 C 0.85904 0.6927 1.00296 0.0
H736 H 0.80365 0.66616 0.96052 0.0
C737 C 0.86037 0.71322 1.02089 0.0
H738 H 0.83747 0.66042 0.96481 0.0
C739 C 0.84143 0.7167 1.01779 0.0
C740 C 0.82051 0.69958 0.99727 0.0
H741 H 0.87591 0.72638 0.03864 0.0
H742 H 0.8429 0.73237 0.03363 0.0
C743 C 0.81957 0.67967 0.97657 0.0
C744 C 0.82571 0.64075 0.42681 0.0
C745 C 0.80598 0.62631 0.39959 0.0
H746 H 0.86009 0.64876 0.44726 0.0
C747 C 0.80482 0.60698 0.37618 0.0
H748 H 0.82699 0.65572 0.44535 0.0
C749 C 0.82338 0.60282 0.37776 0.0
C750 C 0.84379 0.61804 0.40237 0.0
H751 H 0.7897 0.59528 0.35554 0.0
H752 H 0.82203 0.58814 0.35796 0.0
C753 C 0.84458 0.63672 0.42797 0.0
C754 C 0.25185 0.13996 0.35618 0.0
C755 C 0.25433 0.15225 0.31509 0.0
H756 H 0.25181 0.11047 0.38766 0.0
C757 C 0.25385 0.14138 0.27287 0.0
H758 H 0.25211 0.14783 0.38927 0.0
C759 C 0.25366 0.12003 0.27194 0.0
C760 C 0.25395 0.10906 0.31321 0.0
H761 H 0.25543 0.15022 0.24055 0.0
H762 H 0.25512 0.11308 0.23893 0.0
C763 C 0.25166 0.11851 0.35525 0.0
C764 C 0.79999 0.19518 0.37494 0.0
C765 C 0.80093 0.17676 0.39726 0.0
H766 H 0.81738 0.23158 0.35864 0.0
C767 C 0.82071 0.18197 0.42393 0.0
H768 H 0.78488 0.19188 0.35471 0.0
C769 C 0.83967 0.20505 0.42607 0.0
C770 C 0.83897 0.22323 0.40195 0.0
H771 H 0.82186 0.16813 0.4417 0.0
H772 H 0.85511 0.20847 0.44521 0.0
C773 C 0.81865 0.21806 0.37742 0.0
C774 C 0.05369 0.51702 0.44615 0.0
C775 C 0.0542 0.50613 0.40464 0.0
H776 H 0.05232 0.54569 0.47808 0.0
C777 C 0.05825 0.51862 0.36327 0.0
H778 H 0.0509 0.50802 0.4787 0.0
C779 C 0.05909 0.54039 0.36292 0.0
C780 C 0.05588 0.54993 0.40394 0.0
H781 H 0.05878 0.51073 0.33072 0.0
H782 H 0.06022 0.54867 0.3301 0.0
C783 C 0.05451 0.53866 0.4458 0.0
C784 C 0.51249 0.45929 0.36494 0.0
C785 C 0.51303 0.47894 0.34473 0.0
H786 H 0.49314 0.42246 0.37734 0.0
C787 C 0.4937 0.47563 0.31863 0.0
H788 H 0.52713 0.46109 0.38488 0.0
C789 C 0.47392 0.45318 0.31427 0.0
C790 C 0.47326 0.4337 0.33576 0.0
H791 H 0.49364 0.49043 0.3025 0.0
H792 H 0.459 0.45119 0.2951 0.0
C793 C 0.49294 0.43703 0.36044 0.0
C794 C 0.49614 0.07113 0.33369 0.0
C795 C 0.47515 0.05469 0.31231 0.0
H796 H 0.52968 0.07897 0.35769 0.0
C797 C 0.4732 0.03392 0.29366 0.0
H798 H 0.49837 0.08739 0.34809 0.0
C799 C 0.49144 0.02914 0.29897 0.0
C800 C 0.5117 0.04493 0.32343 0.0
H801 H 0.45722 0.0209 0.27702 0.0
H802 H 0.48922 0.01261 0.28612 0.0
C803 C 0.5141 0.06625 0.33941 0.0
C804 C 0.51107 0.02453 0.74068 0.0
C805 C 0.50622 0.00349 0.76213 0.0
H806 H 0.49656 0.0439 0.70949 0.0
C807 C 0.48387 0.98861 0.77913 0.0
H808 H 0.52809 0.03598 0.72645 0.0
C809 C 0.46604 0.99359 0.77087 0.0
C810 C 0.47026 0.01299 0.744 0.0
H811 H 0.47972 0.97209 0.79501 0.0
H812 H 0.44847 0.98078 0.78059 0.0
C813 C 0.49306 0.02903 0.73084 0.0
C814 C 0.92965 0.4576 0.68037 0.0
C815 C 0.93323 0.44828 0.63946 0.0
H816 H 0.92957 0.48705 0.71256 0.0
C817 C 0.9345 0.45948 0.59756 0.0
H818 H 0.92854 0.44935 0.71321 0.0
C819 C 0.93509 0.48102 0.59718 0.0
C820 C 0.93443 0.49181 0.6387 0.0
H821 H 0.93695 0.45259 0.56535 0.0
H822 H 0.93796 0.49008 0.56468 0.0
C823 C 0.93025 0.47924 0.68 0.0
C824 C 0.50356 0.49234 0.75075 0.0
C825 C 0.51698 0.50173 0.71096 0.0
H826 H 0.47081 0.4659 0.77781 0.0
C827 C 0.509 0.48954 0.66885 0.0
H828 H 0.50941 0.50141 0.78365 0.0
C829 C 0.48722 0.46952 0.66555 0.0
C830 C 0.47289 0.46115 0.70429 0.0
H831 H 0.51915 0.49611 0.63776 0.0
H832 H 0.48118 0.4612 0.63202 0.0
C833 C 0.48155 0.47208 0.74742 0.0
C834 C 0.62336 0.82013 0.70395 0.0
C835 C 0.64078 0.83989 0.68133 0.0
H836 H 0.60955 0.78423 0.72168 0.0
C837 C 0.65834 0.83793 0.65833 0.0
H838 H 0.60953 0.8209 0.72202 0.0
C839 C 0.65836 0.81652 0.65819 0.0
C840 C 0.6408 0.79681 0.68094 0.0
H841 H 0.672 0.85287 0.64059 0.0
H842 H 0.67205 0.8154 0.64032 0.0
C843 C 0.62336 0.79897 0.70372 0.0
C844 C 0.17675 0.77519 0.66734 0.0
C845 C 0.15546 0.77035 0.64753 0.0
H846 H 0.21161 0.8011 0.68462 0.0
C847 C 0.15407 0.78855 0.62506 0.0
H848 H 0.17855 0.7616 0.6846 0.0
C849 C 0.1733 0.81144 0.62491 0.0
C850 C 0.19405 0.81643 0.64757 0.0
H851 H 0.13788 0.78536 0.60953 0.0
H852 H 0.17157 0.82538 0.60906 0.0
C853 C 0.19574 0.79792 0.66754 0.0
C854 C 0.19002 0.40079 0.67441 0.0
C855 C 0.18859 0.38064 0.65417 0.0
H856 H 0.17248 0.41945 0.69154 0.0
C857 C 0.16805 0.36455 0.63083 0.0
H858 H 0.20574 0.41373 0.69197 0.0
C859 C 0.14871 0.36778 0.63078 0.0
C860 C 0.14979 0.38726 0.6537 0.0
H861 H 0.16655 0.34891 0.61476 0.0
H862 H 0.13264 0.35448 0.61486 0.0
C863 C 0.17093 0.40412 0.67397 0.0
C864 C 0.01415 0.35972 0.20836 0.0
C865 C 0.03114 0.37776 0.23633 0.0
H866 H 0.00684 0.33682 0.15016 0.0
C867 C 0.05469 0.38669 0.22558 0.0
H868 H -0.00415 0.35248 0.21543 0.0
C869 C 0.06107 0.3774 0.18824 0.0
C870 C 0.044 0.35936 0.16028 0.0
H871 H 0.0682 0.40058 0.24647 0.0
H872 H 0.07933 0.38435 0.18122 0.0
C873 C 0.02048 0.35081 0.17067 0.0
C874 C 0.59517 0.61849 0.20113 0.0
C875 C 0.59691 0.62782 0.24574 0.0
H876 H 0.60094 0.62564 0.12859 0.0
C877 C 0.60373 0.65173 0.25045 0.0
H878 H 0.5903 0.60022 0.19646 0.0
C879 C 0.60895 0.66607 0.21144 0.0
C880 C 0.60843 0.65702 0.16708 0.0
H881 H 0.60544 0.65945 0.28441 0.0
H882 H 0.61465 0.68454 0.21621 0.0
C883 C 0.60133 0.63304 0.16231 0.0
C884 C 0.30579 0.97578 0.17174 0.0
C885 C 0.31809 0.97894 0.13058 0.0
H886 H 0.30757 0.98245 0.24463 0.0
C887 C 0.3425 0.99022 0.13308 0.0
H888 H 0.28702 0.96746 0.17112 0.0
C889 C 0.3543 -0.00143 0.1754 0.0
C890 C 0.34204 0.99619 0.2163 0.0
H891 H 0.35256 0.99308 0.10209 0.0
H892 H 0.37311 0.00769 0.17573 0.0
C893 C 0.31761 0.98444 0.21396 0.0
C894 C 0.37763 0.04868 0.88435 0.0
C895 C 0.35439 0.04083 0.89618 0.0
H896 H 0.40101 0.04673 0.83614 0.0
C897 C 0.33663 0.02429 0.86711 0.0
H898 H 0.39175 0.06142 0.9059 0.0
C899 C 0.34193 0.01598 0.82707 0.0
C900 C 0.36516 0.02393 0.81502 0.0
H901 H 0.31854 0.01781 0.87511 0.0
H902 H 0.32776 0.00325 0.80559 0.0
C903 C 0.38295 0.0403 0.84427 0.0
C904 C 0.9292 0.3166 0.8721 0.0
C905 C 0.94717 0.31851 0.90099 0.0
H906 H 0.92009 0.32897 0.8113 0.0
C907 C 0.97026 0.33484 0.88963 0.0
H908 H 0.91123 0.30415 0.87979 0.0
C909 C 0.97532 0.34862 0.85016 0.0
C910 C 0.95744 0.34681 0.82121 0.0
H911 H 0.98457 0.33668 0.91078 0.0
H912 H -0.00665 0.36083 0.84245 0.0
C913 C 0.93427 0.3308 0.83287 0.0
C914 C 0.6575 0.62109 0.91815 0.0
C915 C 0.68072 0.63936 0.91544 0.0
H916 H 0.62539 0.59906 0.88185 0.0
C917 C 0.68945 0.64911 0.87198 0.0
H918 H 0.65021 0.61334 0.95114 0.0
C919 C 0.67501 0.64151 0.83259 0.0
C920 C 0.65172 0.62339 0.83537 0.0
H921 H 0.70715 0.66343 0.8688 0.0
H922 H 0.68201 0.65 0.79998 0.0
C923 C 0.6433 0.6129 0.87844 0.0
C924 C 0.93364 0.62028 0.86797 0.0
C925 C 0.95153 0.63637 0.89745 0.0
H926 H 0.9247 0.59884 0.80648 0.0
C927 C 0.97463 0.64325 0.88642 0.0
H928 H 0.91567 0.61468 0.8754 0.0
C929 C 0.9798 0.63464 0.84668 0.0
C930 C 0.962 0.61853 0.81716 0.0
H931 H 0.98889 0.65576 0.90802 0.0
H932 H -0.00216 0.64057 0.83923 0.0
C933 C 0.93881 0.61124 0.82849 0.0
C934 C 0.32954 0.31611 0.87486 0.0
C935 C 0.34782 0.31739 0.90176 0.0
H936 H 0.31957 0.32824 0.81538 0.0
C937 C 0.37081 0.33265 0.88802 0.0
H938 H 0.31161 0.30458 0.88439 0.0
C939 C 0.37539 0.34624 0.84819 0.0
C940 C 0.35709 0.34486 0.82121 0.0
H941 H 0.3853 0.33403 0.90789 0.0
H942 H 0.39329 0.35782 0.83858 0.0
C943 C 0.33411 0.32967 0.83513 0.0
C944 C 0.63785 0.03232 0.91339 0.0
C945 C 0.66219 0.04336 0.91002 0.0
H946 H 0.60502 0.01717 0.87756 0.0
C947 C 0.67202 0.04859 0.86574 0.0
H948 H 0.62966 0.02794 0.94686 0.0
C949 C 0.65785 0.04188 0.82594 0.0
C950 C 0.63348 0.03033 0.82929 0.0
H951 H 0.69066 0.05685 0.86173 0.0
H952 H 0.66598 0.04531 0.79243 0.0
C953 C 0.62371 0.02619 0.8736 0.0
C954 C 0.60177 0.94576 0.20297 0.0
C955 C 0.60348 0.95513 0.15872 0.0
H956 H 0.59576 0.94817 0.27514 0.0
C957 C 0.5979 0.97299 0.15306 0.0
H958 H 0.60622 0.93219 0.20848 0.0
C959 C 0.59102 0.98147 0.19089 0.0
C960 C 0.5905 0.97296 0.23554 0.0
H961 H 0.59919 0.98063 0.11944 0.0
H962 H 0.58733 0.99559 0.18561 0.0
C963 C 0.59582 0.95493 0.24112 0.0
C964 C 0.02122 0.65916 0.20415 0.0
C965 C 0.03805 0.65817 0.23213 0.0
H966 H 0.01421 0.67459 0.14597 0.0
C967 C 0.06165 0.67276 0.22136 0.0
H968 H 0.00289 0.64814 0.21123 0.0
C969 C 0.06822 0.68832 0.18401 0.0
C970 C 0.0513 0.68922 0.15605 0.0
H971 H 0.07505 0.67243 0.24224 0.0
H972 H 0.08652 0.69962 0.17701 0.0
C973 C 0.02774 0.67428 0.16646 0.0
C974 C 0.34644 0.36347 0.18082 0.0
C975 C 0.33452 0.35258 0.22143 0.0
H976 H 0.34434 0.36711 0.1077 0.0
C977 C 0.31022 0.338 0.21899 0.0
H978 H 0.36516 0.37462 0.18128 0.0
C979 C 0.29823 0.33397 0.17687 0.0
C980 C 0.31027 0.34409 0.13594 0.0
H981 H 0.30049 0.32917 0.24946 0.0
H982 H 0.27963 0.32208 0.17608 0.0
C983 C 0.3345 0.35911 0.13856 0.0
C984 C 0.70531 0.68522 0.5923 0.0
C985 C 0.69436 0.69862 0.58598 0.0
H986 H 0.72204 0.66803 0.56037 0.0
C987 C 0.693 0.70592 0.54112 0.0
H988 H 0.70648 0.67919 0.62637 0.0
C989 C 0.70118 0.69884 0.50319 0.0
C990 C 0.71169 0.68504 0.50938 0.0
H991 H 0.68442 0.71599 0.53498 0.0
H992 H 0.69883 0.70376 0.46883 0.0
C993 C 0.71427 0.67888 0.55452 0.0
C994 C 0.26333 0.9909 0.48926 0.0
C995 C 0.28614 0.00846 0.47882 0.0
H996 H 0.24157 0.96075 0.53053 0.0
C997 C 0.30464 0.00964 0.5047 0.0
H998 H 0.24872 0.9895 0.46982 0.0
C999 C 0.30053 0.99357 0.53981 0.0
C1000 C 0.27784 0.97555 0.54948 0.0
H1001 H 0.32241 0.02297 0.49772 0.0
H1002 H 0.31529 0.99495 0.55861 0.0
C1003 C 0.25924 0.97442 0.52393 0.0
C1004 C 0.02013 0.33503 0.532 0.0
C1005 C 0.00981 0.32891 0.57574 0.0
H1006 H 0.01489 0.33403 0.45867 0.0
C1007 C 0.98546 0.31504 0.57795 0.0
H1008 H 0.03879 0.34594 0.52894 0.0
C1009 C 0.97177 0.30785 0.53756 0.0
C1010 C 0.98202 0.31473 0.49389 0.0
H1011 H 0.9769 0.31013 0.61101 0.0
H1012 H 0.95305 0.29771 0.54069 0.0
C1013 C 0.0064 0.32824 0.49165 0.0
C1014 C 0.26103 0.27935 0.49452 0.0
C1015 C 0.28396 0.28484 0.48535 0.0
H1016 H 0.23875 0.2874 0.53474 0.0
C1017 C 0.3021 0.3021 0.51257 0.0
H1018 H 0.2467 0.26617 0.47401 0.0
C1019 C 0.29753 0.3138 0.54776 0.0
C1020 C 0.27475 0.30901 0.55602 0.0
H1021 H 0.31995 0.30668 0.50659 0.0
H1022 H 0.312 0.32706 0.56781 0.0
C1023 C 0.25649 0.29153 0.5292 0.0
C1024 C 0.69943 0.01488 0.58538 0.0
C1025 C 0.68787 0.99036 0.57872 0.0
H1026 H 0.71637 0.04894 0.55387 0.0
C1027 C 0.68545 0.98151 0.53346 0.0
H1028 H 0.70144 0.02225 0.61976 0.0
C1029 C 0.69326 0.99677 0.49561 0.0
C1030 C 0.70449 0.02128 0.50221 0.0
H1031 H 0.67638 0.96272 0.5271 0.0
H1032 H 0.69012 0.98937 0.46105 0.0
C1033 C 0.70805 0.03017 0.54764 0.0
C1034 C 0.99059 0.67532 0.57365 0.0
C1035 C 0.01497 0.6865 0.57099 0.0
H1036 H 0.95802 0.65949 0.53694 0.0
C1037 C 0.02511 0.69114 0.52703 0.0
H1038 H 0.98216 0.67129 0.60687 0.0
C1039 C 0.01123 0.68398 0.48688 0.0
C1040 C 0.98684 0.67243 0.48956 0.0
H1041 H 0.04378 0.69942 0.52359 0.0
H1042 H 0.01961 0.68706 0.4537 0.0
C1043 C 0.97673 0.6686 0.53348 0.0
C1044 C 0.09331 0.35505 0.88791 0.0
C1045 C 0.07372 0.34586 0.91633 0.0
H1046 H 0.107 0.3657 0.82027 0.0
C1047 C 0.05206 0.33997 0.89636 0.0
H1048 H 0.1102 0.35959 0.90198 0.0
C1049 C 0.05009 0.34296 0.84885 0.0
C1050 C 0.06981 0.35225 0.82064 0.0
H1051 H 0.03654 0.33248 0.91717 0.0
H1052 H 0.03327 0.3384 0.83442 0.0
C1053 C 0.09142 0.35838 0.84091 0.0
C1054 C 0.64585 0.69705 0.89948 0.0
C1055 C 0.62816 0.70079 0.91711 0.0
H1056 H 0.66613 0.6987 0.84013 0.0
C1057 C 0.61617 0.70739 0.88621 0.0
H1058 H 0.65564 0.69217 0.92238 0.0
C1059 C 0.62253 0.71167 0.84003 0.0
C1060 C 0.64103 0.70933 0.82257 0.0
H1061 H 0.60242 0.71035 0.89817 0.0
H1062 H 0.61295 0.71721 0.81804 0.0
C1063 C 0.65212 0.70113 0.8525 0.0
C1064 C 0.24371 0.91605 0.86338 0.0
C1065 C 0.26448 0.93458 0.88175 0.0
H1066 H 0.22532 0.89614 0.80337 0.0
C1067 C 0.28303 0.94783 0.85189 0.0
H1068 H 0.22905 0.90574 0.88555 0.0
C1069 C 0.28061 0.94281 0.80433 0.0
C1070 C 0.25979 0.92416 0.78607 0.0
H1071 H 0.29906 0.96251 0.86503 0.0
H1072 H 0.29514 0.95329 0.78199 0.0
C1073 C 0.2415 0.9107 0.81627 0.0
C1074 C 0.3395 0.05171 0.18844 0.0
C1075 C 0.32668 0.04666 0.1472 0.0
H1076 H 0.3387 0.05167 0.26199 0.0
C1077 C 0.3023 0.03313 0.14898 0.0
H1078 H 0.35829 0.06207 0.18811 0.0
C1079 C 0.29091 0.02795 0.1915 0.0
C1080 C 0.30379 0.03532 0.23286 0.0
H1081 H 0.29203 0.02888 0.11766 0.0
H1082 H 0.27216 0.01983 0.19192 0.0
C1083 C 0.32816 0.04571 0.23084 0.0
C1084 C 0.9034 0.26413 0.22459 0.0
C1085 C 0.92424 0.28066 0.24649 0.0
H1086 H 0.88573 0.24783 0.16161 0.0
C1087 C 0.94384 0.29419 0.21907 0.0
H1088 H 0.88789 0.25346 0.24446 0.0
C1089 C 0.94245 0.29119 0.17075 0.0
C1090 C 0.92151 0.27444 0.14918 0.0
H1091 H 0.96005 0.30733 0.23481 0.0
H1092 H 0.95786 0.30156 0.15046 0.0
C1093 C 0.90208 0.26101 0.17685 0.0
C1094 C 0.76286 0.67624 0.233 0.0
C1095 C 0.74342 0.66985 0.26086 0.0
H1096 H 0.77662 0.68216 0.16484 0.0
C1097 C 0.72213 0.66409 0.23933 0.0
H1098 H 0.77942 0.68044 0.24832 0.0
C1099 C 0.72031 0.66439 0.19096 0.0
C1100 C 0.73986 0.67081 0.16327 0.0
H1101 H 0.70668 0.65857 0.25974 0.0
H1102 H 0.70377 0.66001 0.17533 0.0
C1103 C 0.76115 0.67692 0.18504 0.0
C1104 C 0.94782 0.6556 0.21537 0.0
C1105 C 0.92836 0.64934 0.24326 0.0
H1106 H 0.96171 0.66291 0.14669 0.0
C1107 C 0.9076 0.6454 0.22209 0.0
H1108 H 0.96395 0.65836 0.23051 0.0
C1109 C 0.90627 0.6478 0.17458 0.0
C1110 C 0.92556 0.65396 0.14644 0.0
H1111 H 0.89221 0.64042 0.24238 0.0
H1112 H 0.89003 0.64496 0.15987 0.0
C1113 C 0.94639 0.65774 0.1673 0.0
C1114 C 0.32521 0.29003 0.23618 0.0
C1115 C 0.30091 0.2755 0.23913 0.0
H1116 H 0.35495 0.30386 0.19238 0.0
C1117 C 0.28762 0.26907 0.19826 0.0
H1118 H 0.33604 0.29531 0.26694 0.0
C1119 C 0.2986 0.27489 0.15532 0.0
C1120 C 0.32297 0.28628 0.1527 0.0
H1121 H 0.26891 0.25798 0.19941 0.0
H1122 H 0.28805 0.2681 0.12442 0.0
C1123 C 0.33615 0.29501 0.19339 0.0
C1124 C 0.70953 0.05606 0.23297 0.0
C1125 C 0.73093 0.07257 0.25346 0.0
H1126 H 0.6899 0.04192 0.16981 0.0
C1127 C 0.74907 0.08772 0.22445 0.0
H1128 H 0.69501 0.04445 0.25431 0.0
C1129 C 0.74606 0.08648 0.17659 0.0
C1130 C 0.72471 0.07021 0.15585 0.0
H1131 H 0.76568 0.10085 0.23884 0.0
H1132 H 0.76064 0.09839 0.15566 0.0
C1133 C 0.70642 0.05496 0.18463 0.0
C1134 C 0.65001 0.94982 0.84849 0.0
C1135 C 0.6398 0.92978 0.81958 0.0
H1136 H 0.65193 0.96366 0.91701 0.0
C1137 C 0.62134 0.90883 0.83724 0.0
H1138 H 0.66395 0.96633 0.83587 0.0
C1139 C 0.61405 0.90746 0.88267 0.0
C1140 C 0.62506 0.9269 0.91268 0.0
H1141 H 0.6124 0.89314 0.81591 0.0
H1142 H 0.60029 0.8907 0.8948 0.0
C1143 C 0.64285 0.94833 0.89478 0.0
C1144 C 0.09793 0.73862 0.83585 0.0
C1145 C 0.0762 0.72307 0.81565 0.0
H1146 H 0.11708 0.756 0.89708 0.0
C1147 C 0.05662 0.71232 0.84421 0.0
H1148 H 0.11342 0.74713 0.81498 0.0
C1149 C 0.05886 0.71706 0.89197 0.0
C1150 C 0.08064 0.7329 0.91187 0.0
H1151 H 0.03971 0.69999 0.82984 0.0
H1152 H 0.04344 0.70882 0.91307 0.0
C1153 C 0.10009 0.74359 0.8831 0.0
C1154 C 0.23442 0.33199 0.82136 0.0
C1155 C 0.25346 0.33873 0.79211 0.0
H1156 H 0.22101 0.32249 0.88964 0.0
C1157 C 0.27449 0.3421 0.81103 0.0
H1158 H 0.21806 0.32941 0.80791 0.0
C1159 C 0.2764 0.33889 0.85836 0.0
C1160 C 0.25717 0.33174 0.88727 0.0
H1161 H 0.28956 0.34763 0.78945 0.0
H1162 H 0.29266 0.3413 0.87203 0.0
C1163 C 0.23617 0.32823 0.86821 0.0
C1164 C 0.01832 0.39032 0.52628 0.0
C1165 C 0.00541 0.38381 0.48493 0.0
H1166 H 0.01749 0.39165 0.6 0.0
C1167 C 0.98103 0.36984 0.48721 0.0
H1168 H 0.03708 0.40109 0.52567 0.0
C1169 C 0.96972 0.36508 0.52974 0.0
C1170 C 0.98259 0.37349 0.57092 0.0
H1171 H 0.9705 0.36464 0.45603 0.0
H1172 H 0.95092 0.35633 0.53015 0.0
C1173 C 0.00702 0.38483 0.5689 0.0
C1174 C 0.58994 0.56105 0.56998 0.0
C1175 C 0.60267 0.58336 0.59093 0.0
H1176 H 0.5733 0.54094 0.50951 0.0
C1177 C 0.60872 0.60327 0.56355 0.0
H1178 H 0.58467 0.54523 0.58965 0.0
C1179 C 0.6021 0.60079 0.51658 0.0
C1180 C 0.58895 0.57833 0.49611 0.0
H1181 H 0.6182 0.62076 0.57857 0.0
H1182 H 0.60727 0.61642 0.49638 0.0
C1183 C 0.58308 0.55858 0.52372 0.0
C1184 C 0.37278 0.01381 0.54156 0.0
C1185 C 0.39367 0.02681 0.56689 0.0
H1186 H 0.35616 0.00548 0.47462 0.0
C1187 C 0.41379 0.04253 0.54319 0.0
H1188 H 0.357 0.00129 0.55872 0.0
C1189 C 0.41338 0.04466 0.49544 0.0
C1190 C 0.39282 0.03111 0.46956 0.0
H1191 H 0.43018 0.05277 0.56142 0.0
H1192 H 0.4295 0.05679 0.47876 0.0
C1193 C 0.37236 0.01591 0.49329 0.0
C1194 C 0.55083 0.00228 0.51274 0.0
C1195 C 0.56802 0.00235 0.48463 0.0
H1196 H 0.53937 0.00306 0.58113 0.0
C1197 C 0.58779 0.00379 0.50609 0.0
H1198 H 0.53554 0.00152 0.49753 0.0
C1199 C 0.59031 0.00532 0.55449 0.0
C1200 C 0.57299 0.00516 0.58241 0.0
H1201 H 0.60161 0.0044 0.48546 0.0
H1202 H 0.60554 0.00611 0.57003 0.0
C1203 C 0.55319 0.00349 0.56078 0.0
C1204 C 0.97519 0.61119 0.52473 0.0
C1205 C 0.98787 0.61607 0.56618 0.0
H1206 H 0.97622 0.61144 0.451 0.0
C1207 C 0.01233 0.62886 0.56441 0.0
H1208 H 0.95637 0.60135 0.52494 0.0
C1209 C 0.02376 0.63398 0.52194 0.0
C1210 C 0.01099 0.6272 0.48043 0.0
H1211 H 0.02267 0.6328 0.5957 0.0
H1212 H 0.04248 0.64175 0.52164 0.0
C1213 C 0.98665 0.61706 0.48232 0.0
C1214 C 0.3616 0.36494 0.49785 0.0
C1215 C 0.38088 0.36569 0.47636 0.0
H1216 H 0.34669 0.36736 0.56193 0.0
C1217 C 0.39848 0.36612 0.50441 0.0
H1218 H 0.34762 0.36429 0.47734 0.0
C1219 C 0.39772 0.36739 0.55225 0.0
C1220 C 0.37935 0.36824 0.5738 0.0
H1221 H 0.41336 0.36611 0.48942 0.0
H1222 H 0.41216 0.3688 0.57238 0.0
C1223 C 0.3609 0.36631 0.54628 0.0
loop_
_geom_bond_atom_site_label_1
_geom_bond_atom_site_label_2
_geom_bond_distance
_geom_bond_site_symmetry_2
_ccdc_geom_bond_type
O0 Cd1 2.223 . S
O0 C8 1.315 . S
Cd1 O0 2.223 . S
Cd1 O4 2.297 . S
Cd1 O5 2.439 1_556 S
Cd1 O11 2.240 1_556 S
Cd2 O3 2.240 . S
Cd2 O10 2.223 . S
Cd2 O12 2.297 1_556 S
Cd2 O13 2.439 1_556 S
O3 Cd2 2.240 . S
O3 C8 1.279 . S
O4 Cd1 2.297 . S
O4 C6 1.247 1_556 S
O5 Cd1 2.439 1_554 S
O5 C6 1.208 . S
C6 O4 1.247 1_554 S
C6 O5 1.208 . S
C7 O12 1.247 . S
C7 O13 1.208 . S
C8 O0 1.315 . S
C8 O3 1.279 . S
C9 O10 1.326 . S
C9 O11 1.267 1_556 S
O10 Cd2 2.223 . S
O10 C9 1.326 . S
O11 Cd1 2.240 1_554 S
O11 C9 1.267 1_554 S
O12 Cd2 2.297 1_554 S
O12 C7 1.247 . S
O13 Cd2 2.439 1_554 S
O13 C7 1.208 . S
O14 Cd15 2.223 . S
O14 C22 1.315 . S
Cd15 O14 2.223 . S
Cd15 O18 2.297 . S
Cd15 O19 2.439 1_556 S
Cd15 O25 2.240 1_556 S
Cd16 O17 2.240 . S
Cd16 O24 2.223 . S
Cd16 O26 2.297 1_556 S
Cd16 O27 2.439 1_556 S
O17 Cd16 2.240 . S
O17 C22 1.279 . S
O18 Cd15 2.297 . S
O18 C20 1.247 1_556 S
O19 Cd15 2.439 1_554 S
O19 C20 1.208 . S
C20 O18 1.247 1_554 S
C20 O19 1.208 . S
C21 O26 1.247 . S
C21 O27 1.208 . S
C22 O14 1.315 . S
C22 O17 1.279 . S
C23 O24 1.326 . S
C23 O25 1.266 1_556 S
O24 Cd16 2.223 . S
O24 C23 1.326 . S
O25 Cd15 2.240 1_554 S
O25 C23 1.266 1_554 S
O26 Cd16 2.297 1_554 S
O26 C21 1.247 . S
O27 Cd16 2.439 1_554 S
O27 C21 1.208 . S
O28 Cd29 2.223 . S
O28 C36 1.315 . S
Cd29 O28 2.223 . S
Cd29 O32 2.297 . S
Cd29 O33 2.439 1_556 S
Cd29 O39 2.240 1_556 S
Cd30 O31 2.240 . S
Cd30 O38 2.223 . S
Cd30 O40 2.297 1_556 S
Cd30 O41 2.439 1_556 S
O31 Cd30 2.240 . S
O31 C36 1.279 . S
O32 Cd29 2.297 . S
O32 C34 1.247 1_556 S
O33 Cd29 2.439 1_554 S
O33 C34 1.208 . S
C34 O32 1.247 1_554 S
C34 O33 1.208 . S
C35 O40 1.247 . S
C35 O41 1.208 . S
C36 O28 1.315 . S
C36 O31 1.279 . S
C37 O38 1.326 . S
C37 O39 1.267 1_556 S
O38 Cd30 2.223 . S
O38 C37 1.326 . S
O39 Cd29 2.240 1_554 S
O39 C37 1.267 1_554 S
O40 Cd30 2.297 1_554 S
O40 C35 1.247 . S
O41 Cd30 2.439 1_554 S
O41 C35 1.208 . S
O42 Cd43 2.223 . S
O42 C50 1.315 . S
Cd43 O42 2.223 . S
Cd43 O46 2.297 . S
Cd43 O47 2.439 1_554 S
Cd43 O53 2.240 1_554 S
Cd44 O45 2.240 . S
Cd44 O52 2.223 . S
Cd44 O54 2.297 1_554 S
Cd44 O55 2.439 1_554 S
O45 Cd44 2.240 . S
O45 C50 1.279 . S
O46 Cd43 2.297 . S
O46 C48 1.247 1_554 S
O47 Cd43 2.439 1_556 S
O47 C48 1.208 . S
C48 O46 1.247 1_556 S
C48 O47 1.208 . S
C49 O54 1.247 . S
C49 O55 1.208 . S
C50 O42 1.315 . S
C50 O45 1.279 . S
C51 O52 1.326 . S
C51 O53 1.267 1_554 S
O52 Cd44 2.223 . S
O52 C51 1.326 . S
O53 Cd43 2.240 1_556 S
O53 C51 1.267 1_556 S
O54 Cd44 2.297 1_556 S
O54 C49 1.247 . S
O55 Cd44 2.439 1_556 S
O55 C49 1.208 . S
O56 Cd57 2.223 . S
O56 C64 1.315 . S
Cd57 O56 2.223 . S
Cd57 O60 2.297 . S
Cd57 O61 2.439 1_554 S
Cd57 O67 2.240 1_554 S
Cd58 O59 2.240 . S
Cd58 O66 2.223 . S
Cd58 O68 2.297 1_554 S
Cd58 O69 2.439 1_554 S
O59 Cd58 2.240 . S
O59 C64 1.279 . S
O60 Cd57 2.297 . S
O60 C62 1.247 1_554 S
O61 Cd57 2.439 1_556 S
O61 C62 1.208 . S
C62 O60 1.247 1_556 S
C62 O61 1.208 . S
C63 O68 1.247 . S
C63 O69 1.208 . S
C64 O56 1.315 . S
C64 O59 1.279 . S
C65 O66 1.326 . S
C65 O67 1.266 1_554 S
O66 Cd58 2.223 . S
O66 C65 1.326 . S
O67 Cd57 2.240 1_556 S
O67 C65 1.266 1_556 S
O68 Cd58 2.297 1_556 S
O68 C63 1.247 . S
O69 Cd58 2.439 1_556 S
O69 C63 1.208 . S
O70 Cd71 2.223 . S
O70 C78 1.315 . S
Cd71 O70 2.223 . S
Cd71 O74 2.297 . S
Cd71 O75 2.439 1_554 S
Cd71 O81 2.240 1_554 S
Cd72 O73 2.240 . S
Cd72 O80 2.223 . S
Cd72 O82 2.297 1_554 S
Cd72 O83 2.439 1_554 S
O73 Cd72 2.240 . S
O73 C78 1.279 . S
O74 Cd71 2.297 . S
O74 C76 1.247 1_554 S
O75 Cd71 2.439 1_556 S
O75 C76 1.208 . S
C76 O74 1.247 1_556 S
C76 O75 1.208 . S
C77 O82 1.247 . S
C77 O83 1.208 . S
C78 O70 1.315 . S
C78 O73 1.279 . S
C79 O80 1.326 . S
C79 O81 1.266 1_554 S
O80 Cd72 2.223 . S
O80 C79 1.326 . S
O81 Cd71 2.240 1_556 S
O81 C79 1.266 1_556 S
O82 Cd72 2.297 1_556 S
O82 C77 1.247 . S
O83 Cd72 2.439 1_556 S
O83 C77 1.208 . S
O84 Cd85 2.223 . S
O84 C92 1.315 . S
Cd85 O84 2.223 . S
Cd85 O88 2.297 . S
Cd85 O89 2.439 1_554 S
Cd85 O95 2.240 1_554 S
Cd86 O87 2.240 . S
Cd86 O94 2.223 . S
Cd86 O96 2.297 1_554 S
Cd86 O97 2.439 1_554 S
O87 Cd86 2.240 . S
O87 C92 1.279 . S
O88 Cd85 2.297 . S
O88 C90 1.247 1_554 S
O89 Cd85 2.439 1_556 S
O89 C90 1.208 . S
C90 O88 1.247 1_556 S
C90 O89 1.208 . S
C91 O96 1.247 . S
C91 O97 1.208 . S
C92 O84 1.315 . S
C92 O87 1.279 . S
C93 O94 1.326 . S
C93 O95 1.267 1_554 S
O94 Cd86 2.223 . S
O94 C93 1.326 . S
O95 Cd85 2.240 1_556 S
O95 C93 1.267 1_556 S
O96 Cd86 2.297 1_556 S
O96 C91 1.247 . S
O97 Cd86 2.439 1_556 S
O97 C91 1.208 . S
O98 Cd99 2.223 . S
O98 C106 1.315 . S
Cd99 O98 2.223 . S
Cd99 O102 2.297 . S
Cd99 O103 2.439 1_554 S
Cd99 O109 2.240 1_554 S
Cd100 O101 2.240 . S
Cd100 O108 2.223 . S
Cd100 O110 2.297 1_554 S
Cd100 O111 2.439 1_554 S
O101 Cd100 2.240 . S
O101 C106 1.279 . S
O102 Cd99 2.297 . S
O102 C104 1.247 1_554 S
O103 Cd99 2.439 1_556 S
O103 C104 1.208 . S
C104 O102 1.247 1_556 S
C104 O103 1.208 . S
C105 O110 1.247 . S
C105 O111 1.208 . S
C106 O98 1.315 . S
C106 O101 1.279 . S
C107 O108 1.326 . S
C107 O109 1.266 1_554 S
O108 Cd100 2.223 . S
O108 C107 1.326 . S
O109 Cd99 2.240 1_556 S
O109 C107 1.266 1_556 S
O110 Cd100 2.297 1_556 S
O110 C105 1.247 . S
O111 Cd100 2.439 1_556 S
O111 C105 1.208 . S
O112 Cd113 2.223 . S
O112 C120 1.315 . S
Cd113 O112 2.223 . S
Cd113 O116 2.297 . S
Cd113 O117 2.439 1_554 S
Cd113 O123 2.240 1_554 S
Cd114 O115 2.240 . S
Cd114 O122 2.223 . S
Cd114 O124 2.297 1_554 S
Cd114 O125 2.439 1_554 S
O115 Cd114 2.240 . S
O115 C120 1.279 . S
O116 Cd113 2.297 . S
O116 C118 1.247 1_554 S
O117 Cd113 2.439 1_556 S
O117 C118 1.208 . S
C118 O116 1.247 1_556 S
C118 O117 1.208 . S
C119 O124 1.247 . S
C119 O125 1.208 . S
C120 O112 1.315 . S
C120 O115 1.279 . S
C121 O122 1.326 . S
C121 O123 1.266 1_554 S
O122 Cd114 2.223 . S
O122 C121 1.326 . S
O123 Cd113 2.240 1_556 S
O123 C121 1.266 1_556 S
O124 Cd114 2.297 1_556 S
O124 C119 1.247 . S
O125 Cd114 2.439 1_556 S
O125 C119 1.208 . S
O126 Cd127 2.223 . S
O126 C134 1.315 . S
Cd127 O126 2.223 . S
Cd127 O130 2.297 . S
Cd127 O131 2.439 1_556 S
Cd127 O137 2.240 1_556 S
Cd128 O129 2.240 . S
Cd128 O136 2.223 . S
Cd128 O138 2.297 1_556 S
Cd128 O139 2.439 1_556 S
O129 Cd128 2.240 . S
O129 C134 1.279 . S
O130 Cd127 2.297 . S
O130 C132 1.247 1_556 S
O131 Cd127 2.439 1_554 S
O131 C132 1.208 . S
C132 O130 1.247 1_554 S
C132 O131 1.208 . S
C133 O138 1.247 . S
C133 O139 1.208 . S
C134 O126 1.315 . S
C134 O129 1.279 . S
C135 O136 1.326 . S
C135 O137 1.267 1_556 S
O136 Cd128 2.223 . S
O136 C135 1.326 . S
O137 Cd127 2.240 1_554 S
O137 C135 1.267 1_554 S
O138 Cd128 2.297 1_554 S
O138 C133 1.247 . S
O139 Cd128 2.439 1_554 S
O139 C133 1.208 . S
O140 Cd141 2.223 . S
O140 C148 1.315 . S
Cd141 O140 2.223 . S
Cd141 O144 2.297 . S
Cd141 O145 2.439 1_556 S
Cd141 O151 2.240 1_556 S
Cd142 O143 2.240 . S
Cd142 O150 2.223 . S
Cd142 O152 2.297 1_556 S
Cd142 O153 2.439 1_556 S
O143 Cd142 2.240 . S
O143 C148 1.279 . S
O144 Cd141 2.297 . S
O144 C146 1.247 1_556 S
O145 Cd141 2.439 1_554 S
O145 C146 1.208 . S
C146 O144 1.247 1_554 S
C146 O145 1.208 . S
C147 O152 1.247 . S
C147 O153 1.208 . S
C148 O140 1.315 . S
C148 O143 1.279 . S
C149 O150 1.326 . S
C149 O151 1.266 1_556 S
O150 Cd142 2.223 . S
O150 C149 1.326 . S
O151 Cd141 2.240 1_554 S
O151 C149 1.266 1_554 S
O152 Cd142 2.297 1_554 S
O152 C147 1.247 . S
O153 Cd142 2.439 1_554 S
O153 C147 1.208 . S
O154 Cd155 2.223 . S
O154 C162 1.315 . S
Cd155 O154 2.223 . S
Cd155 O158 2.297 . S
Cd155 O159 2.439 1_556 S
Cd155 O165 2.240 1_556 S
Cd156 O157 2.240 . S
Cd156 O164 2.223 . S
Cd156 O166 2.297 1_556 S
Cd156 O167 2.439 1_556 S
O157 Cd156 2.240 . S
O157 C162 1.279 . S
O158 Cd155 2.297 . S
O158 C160 1.247 1_556 S
O159 Cd155 2.439 1_554 S
O159 C160 1.208 . S
C160 O158 1.247 1_554 S
C160 O159 1.208 . S
C161 O166 1.247 . S
C161 O167 1.208 . S
C162 O154 1.315 . S
C162 O157 1.279 . S
C163 O164 1.326 . S
C163 O165 1.266 1_556 S
O164 Cd156 2.223 . S
O164 C163 1.326 . S
O165 Cd155 2.240 1_554 S
O165 C163 1.266 1_554 S
O166 Cd156 2.297 1_554 S
O166 C161 1.247 . S
O167 Cd156 2.439 1_554 S
O167 C161 1.208 . S
O168 Cd169 2.223 . S
O168 C176 1.315 . S
Cd169 O168 2.223 . S
Cd169 O172 2.297 . S
Cd169 O173 2.439 . S
Cd169 O179 2.240 . S
Cd170 O171 2.240 . S
Cd170 O178 2.223 . S
Cd170 O180 2.297 . S
Cd170 O181 2.439 . S
O171 Cd170 2.240 . S
O171 C176 1.279 . S
O172 Cd169 2.297 . S
O172 C174 1.247 . S
O173 Cd169 2.439 . S
O173 C174 1.208 . S
C174 O172 1.247 . S
C174 O173 1.208 . S
C175 O180 1.247 . S
C175 O181 1.208 . S
C176 O168 1.315 . S
C176 O171 1.279 . S
C177 O178 1.315 . S
C177 O179 1.279 . S
O178 Cd170 2.223 . S
O178 C177 1.315 . S
O179 Cd169 2.240 . S
O179 C177 1.279 . S
O180 Cd170 2.297 . S
O180 C175 1.247 . S
O181 Cd170 2.439 . S
O181 C175 1.208 . S
O182 Cd183 2.223 . S
O182 C190 1.315 . S
Cd183 O182 2.223 . S
Cd183 O186 2.297 . S
Cd183 O187 2.439 . S
Cd183 O193 2.240 . S
Cd184 O185 2.240 . S
Cd184 O192 2.223 . S
Cd184 O194 2.297 1_545 S
Cd184 O195 2.439 . S
O185 Cd184 2.240 . S
O185 C190 1.279 . S
O186 Cd183 2.297 . S
O186 C188 1.247 . S
O187 Cd183 2.439 . S
O187 C188 1.208 . S
C188 O186 1.247 . S
C188 O187 1.208 . S
C189 O194 1.247 1_545 S
C189 O195 1.208 . S
C190 O182 1.315 . S
C190 O185 1.279 . S
C191 O192 1.315 . S
C191 O193 1.279 . S
O192 Cd184 2.223 . S
O192 C191 1.315 . S
O193 Cd183 2.240 . S
O193 C191 1.279 . S
O194 Cd184 2.297 1_565 S
O194 C189 1.247 1_565 S
O195 Cd184 2.439 . S
O195 C189 1.208 . S
O196 Cd197 2.223 . S
O196 C204 1.315 . S
Cd197 O196 2.223 . S
Cd197 O200 2.297 . S
Cd197 O201 2.439 . S
Cd197 O207 2.240 . S
Cd198 O199 2.240 . S
Cd198 O206 2.223 . S
Cd198 O208 2.297 1_655 S
Cd198 O209 2.439 . S
O199 Cd198 2.240 . S
O199 C204 1.279 . S
O200 Cd197 2.297 . S
O200 C202 1.247 . S
O201 Cd197 2.439 . S
O201 C202 1.208 . S
C202 O200 1.247 . S
C202 O201 1.208 . S
C203 O208 1.247 1_655 S
C203 O209 1.208 . S
C204 O196 1.315 . S
C204 O199 1.279 . S
C205 O206 1.315 . S
C205 O207 1.279 . S
O206 Cd198 2.223 . S
O206 C205 1.315 . S
O207 Cd197 2.240 . S
O207 C205 1.279 . S
O208 Cd198 2.297 1_455 S
O208 C203 1.247 1_455 S
O209 Cd198 2.439 . S
O209 C203 1.208 . S
O210 Cd211 2.223 . S
O210 C218 1.315 . S
Cd211 O210 2.223 . S
Cd211 O214 2.297 . S
Cd211 O215 2.439 . S
Cd211 O221 2.240 . S
Cd212 O213 2.240 . S
Cd212 O220 2.223 . S
Cd212 O222 2.297 . S
Cd212 O223 2.439 . S
O213 Cd212 2.240 . S
O213 C218 1.279 . S
O214 Cd211 2.297 . S
O214 C216 1.247 . S
O215 Cd211 2.439 . S
O215 C216 1.208 . S
C216 O214 1.247 . S
C216 O215 1.208 . S
C217 O222 1.247 . S
C217 O223 1.208 . S
C218 O210 1.315 . S
C218 O213 1.279 . S
C219 O220 1.315 . S
C219 O221 1.279 . S
O220 Cd212 2.223 . S
O220 C219 1.315 . S
O221 Cd211 2.240 . S
O221 C219 1.279 . S
O222 Cd212 2.297 . S
O222 C217 1.247 . S
O223 Cd212 2.439 . S
O223 C217 1.208 . S
O224 Cd225 2.223 . S
O224 C232 1.315 . S
Cd225 O224 2.223 . S
Cd225 O228 2.297 . S
Cd225 O229 2.439 . S
Cd225 O235 2.240 . S
Cd226 O227 2.240 . S
Cd226 O234 2.223 . S
Cd226 O236 2.297 . S
Cd226 O237 2.439 . S
O227 Cd226 2.240 . S
O227 C232 1.279 . S
O228 Cd225 2.297 . S
O228 C230 1.247 . S
O229 Cd225 2.439 . S
O229 C230 1.208 . S
C230 O228 1.247 . S
C230 O229 1.208 . S
C231 O236 1.247 . S
C231 O237 1.208 . S
C232 O224 1.315 . S
C232 O227 1.279 . S
C233 O234 1.315 . S
C233 O235 1.279 . S
O234 Cd226 2.223 . S
O234 C233 1.315 . S
O235 Cd225 2.240 . S
O235 C233 1.279 . S
O236 Cd226 2.297 . S
O236 C231 1.247 . S
O237 Cd226 2.439 . S
O237 C231 1.208 . S
O238 Cd239 2.223 . S
O238 C246 1.315 . S
Cd239 O238 2.223 . S
Cd239 O242 2.297 . S
Cd239 O243 2.439 . S
Cd239 O249 2.240 . S
Cd240 O241 2.240 . S
Cd240 O248 2.223 . S
Cd240 O250 2.297 . S
Cd240 O251 2.439 . S
O241 Cd240 2.240 . S
O241 C246 1.279 . S
O242 Cd239 2.297 . S
O242 C244 1.247 . S
O243 Cd239 2.439 . S
O243 C244 1.208 . S
C244 O242 1.247 . S
C244 O243 1.208 . S
C245 O250 1.247 . S
C245 O251 1.208 . S
C246 O238 1.315 . S
C246 O241 1.279 . S
C247 O248 1.315 . S
C247 O249 1.279 . S
O248 Cd240 2.223 . S
O248 C247 1.315 . S
O249 Cd239 2.240 . S
O249 C247 1.279 . S
O250 Cd240 2.297 . S
O250 C245 1.247 . S
O251 Cd240 2.439 . S
O251 C245 1.208 . S
O252 Cd253 2.223 . S
O252 C260 1.315 . S
Cd253 O252 2.223 . S
Cd253 O256 2.297 . S
Cd253 O257 2.439 . S
Cd253 O263 2.240 . S
Cd254 O255 2.240 . S
Cd254 O262 2.223 . S
Cd254 O264 2.297 . S
Cd254 O265 2.439 . S
O255 Cd254 2.240 . S
O255 C260 1.279 . S
O256 Cd253 2.297 . S
O256 C258 1.247 . S
O257 Cd253 2.439 . S
O257 C258 1.208 . S
C258 O256 1.247 . S
C258 O257 1.208 . S
C259 O264 1.247 . S
C259 O265 1.208 . S
C260 O252 1.315 . S
C260 O255 1.279 . S
C261 O262 1.315 . S
C261 O263 1.279 . S
O262 Cd254 2.223 . S
O262 C261 1.315 . S
O263 Cd253 2.240 . S
O263 C261 1.279 . S
O264 Cd254 2.297 . S
O264 C259 1.247 . S
O265 Cd254 2.439 . S
O265 C259 1.208 . S
O266 Cd267 2.223 . S
O266 C274 1.315 . S
Cd267 O266 2.223 . S
Cd267 O270 2.297 . S
Cd267 O271 2.439 . S
Cd267 O277 2.240 . S
Cd268 O269 2.240 . S
Cd268 O276 2.223 . S
Cd268 O278 2.297 . S
Cd268 O279 2.439 . S
O269 Cd268 2.240 . S
O269 C274 1.279 . S
O270 Cd267 2.297 . S
O270 C272 1.247 . S
O271 Cd267 2.439 . S
O271 C272 1.208 . S
C272 O270 1.247 . S
C272 O271 1.208 . S
C273 O278 1.247 . S
C273 O279 1.208 . S
C274 O266 1.315 . S
C274 O269 1.279 . S
C275 O276 1.315 . S
C275 O277 1.279 . S
O276 Cd268 2.223 . S
O276 C275 1.315 . S
O277 Cd267 2.240 . S
O277 C275 1.279 . S
O278 Cd268 2.297 . S
O278 C273 1.247 . S
O279 Cd268 2.439 . S
O279 C273 1.208 . S
O280 Cd281 2.223 . S
O280 C288 1.315 . S
Cd281 O280 2.223 . S
Cd281 O284 2.297 . S
Cd281 O285 2.439 . S
Cd281 O291 2.240 . S
Cd282 O283 2.240 . S
Cd282 O290 2.223 . S
Cd282 O292 2.297 . S
Cd282 O293 2.439 . S
O283 Cd282 2.240 . S
O283 C288 1.279 . S
O284 Cd281 2.297 . S
O284 C286 1.247 . S
O285 Cd281 2.439 . S
O285 C286 1.208 . S
C286 O284 1.247 . S
C286 O285 1.208 . S
C287 O292 1.247 . S
C287 O293 1.208 . S
C288 O280 1.315 . S
C288 O283 1.279 . S
C289 O290 1.315 . S
C289 O291 1.279 . S
O290 Cd282 2.223 . S
O290 C289 1.315 . S
O291 Cd281 2.240 . S
O291 C289 1.279 . S
O292 Cd282 2.297 . S
O292 C287 1.247 . S
O293 Cd282 2.439 . S
O293 C287 1.208 . S
O294 Cd295 2.223 . S
O294 C302 1.315 . S
Cd295 O294 2.223 . S
Cd295 O298 2.297 . S
Cd295 O299 2.439 . S
Cd295 O305 2.240 . S
Cd296 O297 2.240 . S
Cd296 O304 2.223 . S
Cd296 O306 2.297 . S
Cd296 O307 2.439 . S
O297 Cd296 2.240 . S
O297 C302 1.279 . S
O298 Cd295 2.297 . S
O298 C300 1.247 . S
O299 Cd295 2.439 . S
O299 C300 1.208 . S
C300 O298 1.247 . S
C300 O299 1.208 . S
C301 O306 1.247 . S
C301 O307 1.208 . S
C302 O294 1.315 . S
C302 O297 1.279 . S
C303 O304 1.315 . S
C303 O305 1.279 . S
O304 Cd296 2.223 . S
O304 C303 1.315 . S
O305 Cd295 2.240 . S
O305 C303 1.279 . S
O306 Cd296 2.297 . S
O306 C301 1.247 . S
O307 Cd296 2.439 . S
O307 C301 1.208 . S
O308 Cd309 2.223 . S
O308 C316 1.315 . S
Cd309 O308 2.223 . S
Cd309 O312 2.297 . S
Cd309 O313 2.439 . S
Cd309 O319 2.240 . S
Cd310 O311 2.240 . S
Cd310 O318 2.223 . S
Cd310 O320 2.297 1_545 S
Cd310 O321 2.439 . S
O311 Cd310 2.240 . S
O311 C316 1.279 . S
O312 Cd309 2.297 . S
O312 C314 1.247 . S
O313 Cd309 2.439 . S
O313 C314 1.208 . S
C314 O312 1.247 . S
C314 O313 1.208 . S
C315 O320 1.247 1_545 S
C315 O321 1.208 . S
C316 O308 1.315 . S
C316 O311 1.279 . S
C317 O318 1.315 . S
C317 O319 1.279 . S
O318 Cd310 2.223 . S
O318 C317 1.315 . S
O319 Cd309 2.240 . S
O319 C317 1.279 . S
O320 Cd310 2.297 1_565 S
O320 C315 1.247 1_565 S
O321 Cd310 2.439 . S
O321 C315 1.208 . S
O322 Cd323 2.223 . S
O322 C330 1.315 . S
Cd323 O322 2.223 . S
Cd323 O326 2.297 . S
Cd323 O327 2.439 . S
Cd323 O333 2.240 . S
Cd324 O325 2.240 . S
Cd324 O332 2.223 . S
Cd324 O334 2.297 1_655 S
Cd324 O335 2.439 . S
O325 Cd324 2.240 . S
O325 C330 1.279 . S
O326 Cd323 2.297 . S
O326 C328 1.247 . S
O327 Cd323 2.439 . S
O327 C328 1.208 . S
C328 O326 1.247 . S
C328 O327 1.208 . S
C329 O334 1.247 1_655 S
C329 O335 1.208 . S
C330 O322 1.315 . S
C330 O325 1.279 . S
C331 O332 1.315 . S
C331 O333 1.279 . S
O332 Cd324 2.223 . S
O332 C331 1.315 . S
O333 Cd323 2.240 . S
O333 C331 1.279 . S
O334 Cd324 2.297 1_455 S
O334 C329 1.247 1_455 S
O335 Cd324 2.439 . S
O335 C329 1.208 . S
O336 Cd337 2.223 . S
O336 C344 1.315 . S
Cd337 O336 2.223 . S
Cd337 O340 2.297 . S
Cd337 O341 2.439 . S
Cd337 O347 2.240 . S
Cd338 O339 2.240 . S
Cd338 O346 2.223 . S
Cd338 O348 2.297 . S
Cd338 O349 2.439 . S
O339 Cd338 2.240 . S
O339 C344 1.279 . S
O340 Cd337 2.297 . S
O340 C342 1.247 . S
O341 Cd337 2.439 . S
O341 C342 1.208 . S
C342 O340 1.247 . S
C342 O341 1.208 . S
C343 O348 1.247 . S
C343 O349 1.208 . S
C344 O336 1.315 . S
C344 O339 1.279 . S
C345 O346 1.315 . S
C345 O347 1.279 . S
O346 Cd338 2.223 . S
O346 C345 1.315 . S
O347 Cd337 2.240 . S
O347 C345 1.279 . S
O348 Cd338 2.297 . S
O348 C343 1.247 . S
O349 Cd338 2.439 . S
O349 C343 1.208 . S
O350 Cd351 2.223 . S
O350 C358 1.315 . S
Cd351 O350 2.223 . S
Cd351 O354 2.297 . S
Cd351 O355 2.439 . S
Cd351 O361 2.240 . S
Cd352 O353 2.240 . S
Cd352 O360 2.223 . S
Cd352 O362 2.297 . S
Cd352 O363 2.439 . S
O353 Cd352 2.240 . S
O353 C358 1.279 . S
O354 Cd351 2.297 . S
O354 C356 1.247 . S
O355 Cd351 2.439 . S
O355 C356 1.208 . S
C356 O354 1.247 . S
C356 O355 1.208 . S
C357 O362 1.247 . S
C357 O363 1.208 . S
C358 O350 1.315 . S
C358 O353 1.279 . S
C359 O360 1.315 . S
C359 O361 1.279 . S
O360 Cd352 2.223 . S
O360 C359 1.315 . S
O361 Cd351 2.240 . S
O361 C359 1.279 . S
O362 Cd352 2.297 . S
O362 C357 1.247 . S
O363 Cd352 2.439 . S
O363 C357 1.208 . S
O364 Cd365 2.223 . S
O364 C372 1.315 . S
Cd365 O364 2.223 . S
Cd365 O368 2.297 . S
Cd365 O369 2.439 . S
Cd365 O375 2.240 . S
Cd366 O367 2.240 . S
Cd366 O374 2.223 . S
Cd366 O376 2.297 . S
Cd366 O377 2.439 . S
O367 Cd366 2.240 . S
O367 C372 1.279 . S
O368 Cd365 2.297 . S
O368 C370 1.247 . S
O369 Cd365 2.439 . S
O369 C370 1.208 . S
C370 O368 1.247 . S
C370 O369 1.208 . S
C371 O376 1.247 . S
C371 O377 1.208 . S
C372 O364 1.315 . S
C372 O367 1.279 . S
C373 O374 1.315 . S
C373 O375 1.279 . S
O374 Cd366 2.223 . S
O374 C373 1.315 . S
O375 Cd365 2.240 . S
O375 C373 1.279 . S
O376 Cd366 2.297 . S
O376 C371 1.247 . S
O377 Cd366 2.439 . S
O377 C371 1.208 . S
O378 Cd379 2.223 . S
O378 C386 1.315 . S
Cd379 O378 2.223 . S
Cd379 O382 2.297 . S
Cd379 O383 2.439 . S
Cd379 O389 2.240 . S
Cd380 O381 2.240 . S
Cd380 O388 2.223 . S
Cd380 O390 2.297 . S
Cd380 O391 2.439 . S
O381 Cd380 2.240 . S
O381 C386 1.279 . S
O382 Cd379 2.297 . S
O382 C384 1.247 . S
O383 Cd379 2.439 . S
O383 C384 1.208 . S
C384 O382 1.247 . S
C384 O383 1.208 . S
C385 O390 1.247 . S
C385 O391 1.208 . S
C386 O378 1.315 . S
C386 O381 1.279 . S
C387 O388 1.315 . S
C387 O389 1.279 . S
O388 Cd380 2.223 . S
O388 C387 1.315 . S
O389 Cd379 2.240 . S
O389 C387 1.279 . S
O390 Cd380 2.297 . S
O390 C385 1.247 . S
O391 Cd380 2.439 . S
O391 C385 1.208 . S
O392 Cd393 2.223 . S
O392 C400 1.315 . S
Cd393 O392 2.223 . S
Cd393 O396 2.297 . S
Cd393 O397 2.439 . S
Cd393 O403 2.240 . S
Cd394 O395 2.240 . S
Cd394 O402 2.223 . S
Cd394 O404 2.297 1_565 S
Cd394 O405 2.439 . S
O395 Cd394 2.240 . S
O395 C400 1.279 . S
O396 Cd393 2.297 . S
O396 C398 1.247 . S
O397 Cd393 2.439 . S
O397 C398 1.208 . S
C398 O396 1.247 . S
C398 O397 1.208 . S
C399 O404 1.247 1_565 S
C399 O405 1.208 . S
C400 O392 1.315 . S
C400 O395 1.279 . S
C401 O402 1.315 . S
C401 O403 1.279 . S
O402 Cd394 2.223 . S
O402 C401 1.315 . S
O403 Cd393 2.240 . S
O403 C401 1.279 . S
O404 Cd394 2.297 1_545 S
O404 C399 1.247 1_545 S
O405 Cd394 2.439 . S
O405 C399 1.208 . S
O406 Cd407 2.223 . S
O406 C414 1.315 . S
Cd407 O406 2.223 . S
Cd407 O410 2.297 . S
Cd407 O411 2.439 . S
Cd407 O417 2.240 . S
Cd408 O409 2.240 . S
Cd408 O416 2.223 . S
Cd408 O418 2.297 1_455 S
Cd408 O419 2.439 . S
O409 Cd408 2.240 . S
O409 C414 1.279 . S
O410 Cd407 2.297 . S
O410 C412 1.247 . S
O411 Cd407 2.439 . S
O411 C412 1.208 . S
C412 O410 1.247 . S
C412 O411 1.208 . S
C413 O418 1.247 1_455 S
C413 O419 1.208 . S
C414 O406 1.315 . S
C414 O409 1.279 . S
C415 O416 1.315 . S
C415 O417 1.279 . S
O416 Cd408 2.223 . S
O416 C415 1.315 . S
O417 Cd407 2.240 . S
O417 C415 1.279 . S
O418 Cd408 2.297 1_655 S
O418 C413 1.247 1_655 S
O419 Cd408 2.439 . S
O419 C413 1.208 . S
O420 Cd421 2.223 . S
O420 C428 1.315 . S
Cd421 O420 2.223 . S
Cd421 O424 2.297 . S
Cd421 O425 2.439 . S
Cd421 O431 2.240 . S
Cd422 O423 2.240 . S
Cd422 O430 2.223 . S
Cd422 O432 2.297 . S
Cd422 O433 2.439 . S
O423 Cd422 2.240 . S
O423 C428 1.279 . S
O424 Cd421 2.297 . S
O424 C426 1.247 . S
O425 Cd421 2.439 . S
O425 C426 1.208 . S
C426 O424 1.247 . S
C426 O425 1.208 . S
C427 O432 1.247 . S
C427 O433 1.208 . S
C428 O420 1.315 . S
C428 O423 1.279 . S
C429 O430 1.315 . S
C429 O431 1.279 . S
O430 Cd422 2.223 . S
O430 C429 1.315 . S
O431 Cd421 2.240 . S
O431 C429 1.279 . S
O432 Cd422 2.297 . S
O432 C427 1.247 . S
O433 Cd422 2.439 . S
O433 C427 1.208 . S
O434 Cd435 2.223 . S
O434 C442 1.315 . S
Cd435 O434 2.223 . S
Cd435 O438 2.297 . S
Cd435 O439 2.439 . S
Cd435 O445 2.240 . S
Cd436 O437 2.240 . S
Cd436 O444 2.223 . S
Cd436 O446 2.297 1_565 S
Cd436 O447 2.439 . S
O437 Cd436 2.240 . S
O437 C442 1.279 . S
O438 Cd435 2.297 . S
O438 C440 1.247 . S
O439 Cd435 2.439 . S
O439 C440 1.208 . S
C440 O438 1.247 . S
C440 O439 1.208 . S
C441 O446 1.247 1_565 S
C441 O447 1.208 . S
C442 O434 1.315 . S
C442 O437 1.279 . S
C443 O444 1.315 . S
C443 O445 1.279 . S
O444 Cd436 2.223 . S
O444 C443 1.315 . S
O445 Cd435 2.240 . S
O445 C443 1.279 . S
O446 Cd436 2.297 1_545 S
O446 C441 1.247 1_545 S
O447 Cd436 2.439 . S
O447 C441 1.208 . S
O448 Cd449 2.223 . S
O448 C456 1.315 . S
Cd449 O448 2.223 . S
Cd449 O452 2.297 . S
Cd449 O453 2.439 . S
Cd449 O459 2.240 . S
Cd450 O451 2.240 . S
Cd450 O458 2.223 . S
Cd450 O460 2.297 1_455 S
Cd450 O461 2.439 . S
O451 Cd450 2.240 . S
O451 C456 1.279 . S
O452 Cd449 2.297 . S
O452 C454 1.247 . S
O453 Cd449 2.439 . S
O453 C454 1.208 . S
C454 O452 1.247 . S
C454 O453 1.208 . S
C455 O460 1.247 1_455 S
C455 O461 1.208 . S
C456 O448 1.315 . S
C456 O451 1.279 . S
C457 O458 1.315 . S
C457 O459 1.279 . S
O458 Cd450 2.223 . S
O458 C457 1.315 . S
O459 Cd449 2.240 . S
O459 C457 1.279 . S
O460 Cd450 2.297 1_655 S
O460 C455 1.247 1_655 S
O461 Cd450 2.439 . S
O461 C455 1.208 . S
O462 Cd463 2.223 . S
O462 C470 1.315 . S
Cd463 O462 2.223 . S
Cd463 O466 2.297 . S
Cd463 O467 2.439 . S
Cd463 O473 2.240 . S
Cd464 O465 2.240 . S
Cd464 O472 2.223 . S
Cd464 O474 2.297 . S
Cd464 O475 2.439 . S
O465 Cd464 2.240 . S
O465 C470 1.279 . S
O466 Cd463 2.297 . S
O466 C468 1.247 . S
O467 Cd463 2.439 . S
O467 C468 1.208 . S
C468 O466 1.247 . S
C468 O467 1.208 . S
C469 O474 1.247 . S
C469 O475 1.208 . S
C470 O462 1.315 . S
C470 O465 1.279 . S
C471 O472 1.315 . S
C471 O473 1.279 . S
O472 Cd464 2.223 . S
O472 C471 1.315 . S
O473 Cd463 2.240 . S
O473 C471 1.279 . S
O474 Cd464 2.297 . S
O474 C469 1.247 . S
O475 Cd464 2.439 . S
O475 C469 1.208 . S
O476 Cd477 2.223 . S
O476 C484 1.315 . S
Cd477 O476 2.223 . S
Cd477 O480 2.297 . S
Cd477 O481 2.439 . S
Cd477 O487 2.240 . S
Cd478 O479 2.240 . S
Cd478 O486 2.223 . S
Cd478 O488 2.297 . S
Cd478 O489 2.439 . S
O479 Cd478 2.240 . S
O479 C484 1.279 . S
O480 Cd477 2.297 . S
O480 C482 1.247 . S
O481 Cd477 2.439 . S
O481 C482 1.208 . S
C482 O480 1.247 . S
C482 O481 1.208 . S
C483 O488 1.247 . S
C483 O489 1.208 . S
C484 O476 1.315 . S
C484 O479 1.279 . S
C485 O486 1.315 . S
C485 O487 1.279 . S
O486 Cd478 2.223 . S
O486 C485 1.315 . S
O487 Cd477 2.240 . S
O487 C485 1.279 . S
O488 Cd478 2.297 . S
O488 C483 1.247 . S
O489 Cd478 2.439 . S
O489 C483 1.208 . S
O490 Cd491 2.223 . S
O490 C498 1.315 . S
Cd491 O490 2.223 . S
Cd491 O494 2.297 . S
Cd491 O495 2.439 . S
Cd491 O501 2.240 . S
Cd492 O493 2.240 . S
Cd492 O500 2.223 . S
Cd492 O502 2.297 . S
Cd492 O503 2.439 . S
O493 Cd492 2.240 . S
O493 C498 1.279 . S
O494 Cd491 2.297 . S
O494 C496 1.247 . S
O495 Cd491 2.439 . S
O495 C496 1.208 . S
C496 O494 1.247 . S
C496 O495 1.208 . S
C497 O502 1.247 . S
C497 O503 1.208 . S
C498 O490 1.315 . S
C498 O493 1.279 . S
C499 O500 1.315 . S
C499 O501 1.279 . S
O500 Cd492 2.223 . S
O500 C499 1.315 . S
O501 Cd491 2.240 . S
O501 C499 1.279 . S
O502 Cd492 2.297 . S
O502 C497 1.247 . S
O503 Cd492 2.439 . S
O503 C497 1.208 . S
C504 C505 1.387 . S
C504 H508 0.950 . S
C504 C513 1.390 1_655 S
C505 C504 1.387 . S
C505 C507 1.387 1_554 S
H506 C513 0.950 . S
C507 C505 1.387 1_556 S
C507 C509 1.390 1_655 S
C507 H511 0.950 . S
H508 C504 0.950 . S
C509 C507 1.390 1_455 S
C509 C510 1.387 . S
C509 H512 0.950 . S
C510 C509 1.387 . S
C510 C513 1.387 1_556 S
H511 C507 0.950 . S
H512 C509 0.950 . S
C513 C504 1.390 1_455 S
C513 H506 0.950 . S
C513 C510 1.387 1_554 S
C514 C515 1.387 . S
C514 H518 0.950 . S
C514 C523 1.390 . S
C515 C514 1.387 . S
C515 C517 1.387 1_554 S
H516 C523 0.950 . S
C517 C515 1.387 1_556 S
C517 C519 1.390 . S
C517 H521 0.950 . S
H518 C514 0.950 . S
C519 C517 1.390 . S
C519 C520 1.387 . S
C519 H522 0.950 . S
C520 C519 1.387 . S
C520 C523 1.387 1_556 S
H521 C517 0.950 . S
H522 C519 0.950 . S
C523 C514 1.390 . S
C523 H516 0.950 . S
C523 C520 1.387 1_554 S
C524 C525 1.388 . S
C524 H528 0.950 . S
C524 C533 1.390 1_544 S
C525 C524 1.388 . S
C525 C527 1.387 . S
H526 C533 0.950 . S
C527 C525 1.387 . S
C527 C529 1.390 1_544 S
C527 H531 0.950 . S
H528 C524 0.950 . S
C529 C527 1.390 1_566 S
C529 C530 1.388 . S
C529 H532 0.950 . S
C530 C529 1.388 . S
C530 C533 1.387 . S
H531 C527 0.950 . S
H532 C529 0.950 . S
C533 C524 1.390 1_566 S
C533 H526 0.950 . S
C533 C530 1.387 . S
C534 C535 1.387 1_554 S
C534 H538 0.950 . S
C534 C543 1.390 1_455 S
C535 C534 1.387 1_556 S
C535 C537 1.387 . S
H536 C543 0.950 . S
C537 C535 1.387 . S
C537 C539 1.390 1_455 S
C537 H541 0.950 . S
H538 C534 0.950 . S
C539 C537 1.390 1_655 S
C539 C540 1.387 1_556 S
C539 H542 0.950 . S
C540 C539 1.387 1_554 S
C540 C543 1.387 . S
H541 C537 0.950 . S
H542 C539 0.950 . S
C543 C534 1.390 1_655 S
C543 H536 0.950 . S
C543 C540 1.387 . S
C544 C545 1.387 1_556 S
C544 H548 0.950 . S
C544 C553 1.390 . S
C545 C544 1.387 1_554 S
C545 C547 1.387 . S
H546 C553 0.950 . S
C547 C545 1.387 . S
C547 C549 1.390 . S
C547 H551 0.950 . S
H548 C544 0.950 . S
C549 C547 1.390 . S
C549 C550 1.387 1_554 S
C549 H552 0.950 . S
C550 C549 1.387 1_556 S
C550 C553 1.387 . S
H551 C547 0.950 . S
H552 C549 0.950 . S
C553 C544 1.390 . S
C553 H546 0.950 . S
C553 C550 1.387 . S
C554 C555 1.388 . S
C554 H558 0.950 . S
C554 C563 1.390 1_566 S
C555 C554 1.388 . S
C555 C557 1.387 . S
H556 C563 0.950 . S
C557 C555 1.387 . S
C557 C559 1.390 1_566 S
C557 H561 0.950 . S
H558 C554 0.950 . S
C559 C557 1.390 1_544 S
C559 C560 1.388 . S
C559 H562 0.950 . S
C560 C559 1.388 . S
C560 C563 1.387 . S
H561 C557 0.950 . S
H562 C559 0.950 . S
C563 C554 1.390 1_544 S
C563 H556 0.950 . S
C563 C560 1.387 . S
C564 C565 1.387 . S
C564 H568 0.950 . S
C564 C573 1.390 . S
C565 C564 1.387 . S
C565 C567 1.387 . S
H566 C573 0.950 . S
C567 C565 1.387 . S
C567 C569 1.390 . S
C567 H571 0.950 . S
H568 C564 0.950 . S
C569 C567 1.390 . S
C569 C570 1.387 . S
C569 H572 0.950 . S
C570 C569 1.387 . S
C570 C573 1.387 . S
H571 C567 0.950 . S
H572 C569 0.950 . S
C573 C564 1.390 . S
C573 H566 0.950 . S
C573 C570 1.387 . S
C574 C575 1.387 . S
C574 H578 0.950 . S
C574 C583 1.390 . S
C575 C574 1.387 . S
C575 C577 1.387 . S
H576 C583 0.950 . S
C577 C575 1.387 . S
C577 C579 1.390 . S
C577 H581 0.950 . S
H578 C574 0.950 . S
C579 C577 1.390 . S
C579 C580 1.387 . S
C579 H582 0.950 . S
C580 C579 1.387 . S
C580 C583 1.387 . S
H581 C577 0.950 . S
H582 C579 0.950 . S
C583 C574 1.390 . S
C583 H576 0.950 . S
C583 C580 1.387 . S
C584 C585 1.387 . S
C584 H588 0.953 1_655 S
C584 C593 1.390 1_655 S
C585 C584 1.387 . S
C585 C587 1.387 . S
H586 C593 0.950 . S
C587 C585 1.387 . S
C587 C589 1.390 . S
C587 H591 0.950 . S
H588 C584 0.953 1_455 S
C589 C587 1.390 . S
C589 C590 1.387 . S
C589 H592 0.950 . S
C590 C589 1.387 . S
C590 C593 1.387 1_655 S
H591 C587 0.950 . S
H592 C589 0.950 . S
C593 C584 1.390 1_455 S
C593 H586 0.950 . S
C593 C590 1.387 1_455 S
C594 C595 1.387 . S
C594 H598 0.950 . S
C594 C603 1.390 . S
C595 C594 1.387 . S
C595 C597 1.387 . S
H596 C603 0.950 . S
C597 C595 1.387 . S
C597 C599 1.390 . S
C597 H601 0.950 . S
H598 C594 0.950 . S
C599 C597 1.390 . S
C599 C600 1.387 . S
C599 H602 0.950 . S
C600 C599 1.387 . S
C600 C603 1.387 . S
H601 C597 0.950 . S
H602 C599 0.950 . S
C603 C594 1.390 . S
C603 H596 0.950 . S
C603 C600 1.387 . S
C604 C605 1.387 . S
C604 H608 0.950 . S
C604 C613 1.390 . S
C605 C604 1.387 . S
C605 C607 1.387 . S
H606 C613 0.950 . S
C607 C605 1.387 . S
C607 C609 1.390 . S
C607 H611 0.950 . S
H608 C604 0.950 . S
C609 C607 1.390 . S
C609 C610 1.387 . S
C609 H612 0.950 . S
C610 C609 1.387 . S
C610 C613 1.387 . S
H611 C607 0.950 . S
H612 C609 0.950 . S
C613 C604 1.390 . S
C613 H606 0.950 . S
C613 C610 1.387 . S
C614 C615 1.387 . S
C614 H618 0.950 . S
C614 C623 1.390 . S
C615 C614 1.387 . S
C615 C617 1.387 . S
H616 C623 0.950 . S
C617 C615 1.387 . S
C617 C619 1.390 . S
C617 H621 0.950 . S
H618 C614 0.950 . S
C619 C617 1.390 . S
C619 C620 1.387 . S
C619 H622 0.950 . S
C620 C619 1.387 . S
C620 C623 1.387 . S
H621 C617 0.950 . S
H622 C619 0.950 . S
C623 C614 1.390 . S
C623 H616 0.950 . S
C623 C620 1.387 . S
C624 C625 1.387 . S
C624 H628 0.950 . S
C624 C633 1.390 . S
C625 C624 1.387 . S
C625 C627 1.387 . S
H626 C633 0.950 . S
C627 C625 1.387 . S
C627 C629 1.390 . S
C627 H631 0.950 . S
H628 C624 0.950 . S
C629 C627 1.390 . S
C629 C630 1.387 . S
C629 H632 0.950 . S
C630 C629 1.387 . S
C630 C633 1.387 . S
H631 C627 0.950 . S
H632 C629 0.950 . S
C633 C624 1.390 . S
C633 H626 0.950 . S
C633 C630 1.387 . S
C634 C635 1.387 . S
C634 H638 0.950 . S
C634 C643 1.390 . S
C635 C634 1.387 . S
C635 C637 1.387 . S
H636 C643 0.950 . S
C637 C635 1.387 . S
C637 C639 1.390 . S
C637 H641 0.950 . S
H638 C634 0.950 . S
C639 C637 1.390 . S
C639 C640 1.387 . S
C639 H642 0.950 . S
C640 C639 1.387 . S
C640 C643 1.387 . S
H641 C637 0.950 . S
H642 C639 0.950 . S
C643 C634 1.390 . S
C643 H636 0.950 . S
C643 C640 1.387 . S
C644 C645 1.387 . S
C644 H648 0.950 . S
C644 C653 1.390 . S
C645 C644 1.387 . S
C645 C647 1.387 . S
H646 C653 0.950 . S
C647 C645 1.387 . S
C647 C649 1.390 . S
C647 H651 0.950 . S
H648 C644 0.950 . S
C649 C647 1.390 . S
C649 C650 1.387 . S
C649 H652 0.950 . S
C650 C649 1.387 . S
C650 C653 1.387 . S
H651 C647 0.950 . S
H652 C649 0.950 . S
C653 C644 1.390 . S
C653 H646 0.950 . S
C653 C650 1.387 . S
C654 C655 1.387 . S
C654 H658 0.950 . S
C654 C663 1.390 . S
C655 C654 1.387 . S
C655 C657 1.387 . S
H656 C663 0.950 . S
C657 C655 1.387 . S
C657 C659 1.390 . S
C657 H661 0.950 . S
H658 C654 0.950 . S
C659 C657 1.390 . S
C659 C660 1.387 . S
C659 H662 0.950 . S
C660 C659 1.387 . S
C660 C663 1.387 . S
H661 C657 0.950 . S
H662 C659 0.950 . S
C663 C654 1.390 . S
C663 H656 0.950 . S
C663 C660 1.387 . S
C664 C665 1.387 . S
C664 H668 0.950 . S
C664 C673 1.390 . S
C665 C664 1.387 . S
C665 C667 1.387 . S
H666 C673 0.950 . S
C667 C665 1.387 . S
C667 C669 1.390 . S
C667 H671 0.950 . S
H668 C664 0.950 . S
C669 C667 1.390 . S
C669 C670 1.387 . S
C669 H672 0.950 . S
C670 C669 1.387 . S
C670 C673 1.387 . S
H671 C667 0.950 . S
H672 C669 0.950 . S
C673 C664 1.390 . S
C673 H666 0.950 . S
C673 C670 1.387 . S
C674 C675 1.387 . S
C674 H678 0.907 1_455 S
C674 C683 1.390 1_455 S
C675 C674 1.387 . S
C675 C677 1.387 . S
H676 C683 0.950 . S
C677 C675 1.387 . S
C677 C679 1.390 . S
C677 H681 0.950 . S
H678 C674 0.907 1_655 S
C679 C677 1.390 . S
C679 C680 1.387 . S
C679 H682 0.950 . S
C680 C679 1.387 . S
C680 C683 1.387 1_455 S
H681 C677 0.950 . S
H682 C679 0.950 . S
C683 C674 1.390 1_655 S
C683 H676 0.950 . S
C683 C680 1.387 1_655 S
C684 C685 1.387 . S
C684 H688 0.950 . S
C684 C693 1.390 . S
C685 C684 1.387 . S
C685 C687 1.387 1_554 S
H686 C693 0.950 . S
C687 C685 1.387 1_556 S
C687 C689 1.390 . S
C687 H691 0.950 . S
H688 C684 0.950 . S
C689 C687 1.390 . S
C689 C690 1.387 1_556 S
C689 H692 0.950 . S
C690 C689 1.387 1_554 S
C690 C693 1.387 . S
H691 C687 0.950 . S
H692 C689 0.950 . S
C693 C684 1.390 . S
C693 H686 0.950 . S
C693 C690 1.387 . S
C694 C695 1.387 1_556 S
C694 H698 0.950 . S
C694 C703 1.390 . S
C695 C694 1.387 1_554 S
C695 C697 1.387 . S
H696 C703 0.950 . S
C697 C695 1.387 . S
C697 C699 1.390 . S
C697 H701 0.950 . S
H698 C694 0.950 . S
C699 C697 1.390 . S
C699 C700 1.387 . S
C699 H702 0.950 . S
C700 C699 1.387 . S
C700 C703 1.387 1_554 S
H701 C697 0.950 . S
H702 C699 0.950 . S
C703 C694 1.390 . S
C703 H696 0.950 . S
C703 C700 1.387 1_556 S
C704 C705 1.387 1_556 S
C704 H708 0.950 . S
C704 C713 1.390 . S
C705 C704 1.387 1_554 S
C705 C707 1.387 . S
H706 C713 0.950 . S
C707 C705 1.387 . S
C707 C709 1.390 . S
C707 H711 0.950 . S
H708 C704 0.950 . S
C709 C707 1.390 . S
C709 C710 1.387 . S
C709 H712 0.950 . S
C710 C709 1.387 . S
C710 C713 1.387 1_554 S
H711 C707 0.950 . S
H712 C709 0.950 . S
C713 C704 1.390 . S
C713 H706 0.950 . S
C713 C710 1.387 1_556 S
C714 C715 1.387 . S
C714 H718 0.950 . S
C714 C723 1.390 . S
C715 C714 1.387 . S
C715 C717 1.387 1_556 S
H716 C723 0.950 . S
C717 C715 1.387 1_554 S
C717 C719 1.390 . S
C717 H721 0.950 . S
H718 C714 0.950 . S
C719 C717 1.390 . S
C719 C720 1.387 1_554 S
C719 H722 0.950 . S
C720 C719 1.387 1_556 S
C720 C723 1.387 . S
H721 C717 0.950 . S
H722 C719 0.950 . S
C723 C714 1.390 . S
C723 H716 0.950 . S
C723 C720 1.387 . S
C724 C725 1.387 1_554 S
C724 H728 0.950 . S
C724 C733 1.390 . S
C725 C724 1.387 1_556 S
C725 C727 1.387 . S
H726 C733 0.950 . S
C727 C725 1.387 . S
C727 C729 1.390 . S
C727 H731 0.950 . S
H728 C724 0.950 . S
C729 C727 1.390 . S
C729 C730 1.387 . S
C729 H732 0.950 . S
C730 C729 1.387 . S
C730 C733 1.387 1_556 S
H731 C727 0.950 . S
H732 C729 0.950 . S
C733 C724 1.390 . S
C733 H726 0.950 . S
C733 C730 1.387 1_554 S
C734 C735 1.387 . S
C734 H738 0.950 . S
C734 C743 1.390 . S
C735 C734 1.387 . S
C735 C737 1.387 1_556 S
H736 C743 0.950 . S
C737 C735 1.387 1_554 S
C737 C739 1.390 . S
C737 H741 0.950 . S
H738 C734 0.950 . S
C739 C737 1.390 . S
C739 C740 1.387 1_554 S
C739 H742 0.950 . S
C740 C739 1.387 1_556 S
C740 C743 1.387 . S
H741 C737 0.950 . S
H742 C739 0.950 . S
C743 C734 1.390 . S
C743 H736 0.950 . S
C743 C740 1.387 . S
C744 C745 1.387 . S
C744 H748 0.950 . S
C744 C753 1.390 . S
C745 C744 1.387 . S
C745 C747 1.387 . S
H746 C753 0.950 . S
C747 C745 1.387 . S
C747 C749 1.390 . S
C747 H751 0.950 . S
H748 C744 0.950 . S
C749 C747 1.390 . S
C749 C750 1.387 . S
C749 H752 0.950 . S
C750 C749 1.387 . S
C750 C753 1.387 . S
H751 C747 0.950 . S
H752 C749 0.950 . S
C753 C744 1.390 . S
C753 H746 0.950 . S
C753 C750 1.387 . S
C754 C755 1.387 . S
C754 H758 0.950 . S
C754 C763 1.390 . S
C755 C754 1.387 . S
C755 C757 1.387 . S
H756 C763 0.950 . S
C757 C755 1.387 . S
C757 C759 1.390 . S
C757 H761 0.950 . S
H758 C754 0.950 . S
C759 C757 1.390 . S
C759 C760 1.387 . S
C759 H762 0.950 . S
C760 C759 1.387 . S
C760 C763 1.387 . S
H761 C757 0.950 . S
H762 C759 0.950 . S
C763 C754 1.390 . S
C763 H756 0.950 . S
C763 C760 1.387 . S
C764 C765 1.387 . S
C764 H768 0.950 . S
C764 C773 1.390 . S
C765 C764 1.387 . S
C765 C767 1.387 . S
H766 C773 0.950 . S
C767 C765 1.387 . S
C767 C769 1.390 . S
C767 H771 0.950 . S
H768 C764 0.950 . S
C769 C767 1.390 . S
C769 C770 1.387 . S
C769 H772 0.950 . S
C770 C769 1.387 . S
C770 C773 1.387 . S
H771 C767 0.950 . S
H772 C769 0.950 . S
C773 C764 1.390 . S
C773 H766 0.950 . S
C773 C770 1.387 . S
C774 C775 1.387 . S
C774 H778 0.950 . S
C774 C783 1.390 . S
C775 C774 1.387 . S
C775 C777 1.387 . S
H776 C783 0.950 . S
C777 C775 1.387 . S
C777 C779 1.390 . S
C777 H781 0.950 . S
H778 C774 0.950 . S
C779 C777 1.390 . S
C779 C780 1.387 . S
C779 H782 0.950 . S
C780 C779 1.387 . S
C780 C783 1.387 . S
H781 C777 0.950 . S
H782 C779 0.950 . S
C783 C774 1.390 . S
C783 H776 0.950 . S
C783 C780 1.387 . S
C784 C785 1.387 . S
C784 H788 0.950 . S
C784 C793 1.390 . S
C785 C784 1.387 . S
C785 C787 1.387 . S
H786 C793 0.950 . S
C787 C785 1.387 . S
C787 C789 1.390 . S
C787 H791 0.950 . S
H788 C784 0.950 . S
C789 C787 1.390 . S
C789 C790 1.387 . S
C789 H792 0.950 . S
C790 C789 1.387 . S
C790 C793 1.387 . S
H791 C787 0.950 . S
H792 C789 0.950 . S
C793 C784 1.390 . S
C793 H786 0.950 . S
C793 C790 1.387 . S
C794 C795 1.387 . S
C794 H798 0.950 1_565 S
C794 C803 1.390 . S
C795 C794 1.387 . S
C795 C797 1.387 . S
H796 C803 0.950 1_545 S
C797 C795 1.387 . S
C797 C799 1.390 . S
C797 H801 0.950 . S
H798 C794 0.950 1_545 S
C799 C797 1.390 . S
C799 C800 1.387 . S
C799 H802 0.950 . S
C800 C799 1.387 . S
C800 C803 1.387 . S
H801 C797 0.950 . S
H802 C799 0.950 . S
C803 C794 1.390 . S
C803 H796 0.950 1_565 S
C803 C800 1.387 . S
C804 C805 1.387 . S
C804 H808 0.950 . S
C804 C813 1.390 . S
C805 C804 1.387 . S
C805 C807 1.387 . S
H806 C813 0.950 . S
C807 C805 1.387 . S
C807 C809 1.390 . S
C807 H811 0.950 1_545 S
H808 C804 0.950 . S
C809 C807 1.390 . S
C809 C810 1.387 . S
C809 H812 0.950 1_545 S
C810 C809 1.387 . S
C810 C813 1.387 . S
H811 C807 0.950 1_565 S
H812 C809 0.950 1_565 S
C813 C804 1.390 . S
C813 H806 0.950 . S
C813 C810 1.387 . S
C814 C815 1.387 . S
C814 H818 0.950 . S
C814 C823 1.390 . S
C815 C814 1.387 . S
C815 C817 1.387 . S
H816 C823 0.950 . S
C817 C815 1.387 . S
C817 C819 1.390 . S
C817 H821 0.950 . S
H818 C814 0.950 . S
C819 C817 1.390 . S
C819 C820 1.387 . S
C819 H822 0.950 . S
C820 C819 1.387 . S
C820 C823 1.387 . S
H821 C817 0.950 . S
H822 C819 0.950 . S
C823 C814 1.390 . S
C823 H816 0.950 . S
C823 C820 1.387 . S
C824 C825 1.387 . S
C824 H828 0.950 . S
C824 C833 1.390 . S
C825 C824 1.387 . S
C825 C827 1.387 . S
H826 C833 0.950 . S
C827 C825 1.387 . S
C827 C829 1.390 . S
C827 H831 0.950 . S
H828 C824 0.950 . S
C829 C827 1.390 . S
C829 C830 1.387 . S
C829 H832 0.950 . S
C830 C829 1.387 . S
C830 C833 1.387 . S
H831 C827 0.950 . S
H832 C829 0.950 . S
C833 C824 1.390 . S
C833 H826 0.950 . S
C833 C830 1.387 . S
C834 C835 1.387 . S
C834 H838 0.950 . S
C834 C843 1.390 . S
C835 C834 1.387 . S
C835 C837 1.387 . S
H836 C843 0.950 . S
C837 C835 1.387 . S
C837 C839 1.390 . S
C837 H841 0.950 . S
H838 C834 0.950 . S
C839 C837 1.390 . S
C839 C840 1.387 . S
C839 H842 0.950 . S
C840 C839 1.387 . S
C840 C843 1.387 . S
H841 C837 0.950 . S
H842 C839 0.950 . S
C843 C834 1.390 . S
C843 H836 0.950 . S
C843 C840 1.387 . S
C844 C845 1.387 . S
C844 H848 0.950 . S
C844 C853 1.390 . S
C845 C844 1.387 . S
C845 C847 1.387 . S
H846 C853 0.950 . S
C847 C845 1.387 . S
C847 C849 1.390 . S
C847 H851 0.950 . S
H848 C844 0.950 . S
C849 C847 1.390 . S
C849 C850 1.387 . S
C849 H852 0.950 . S
C850 C849 1.387 . S
C850 C853 1.387 . S
H851 C847 0.950 . S
H852 C849 0.950 . S
C853 C844 1.390 . S
C853 H846 0.950 . S
C853 C850 1.387 . S
C854 C855 1.387 . S
C854 H858 0.950 . S
C854 C863 1.390 . S
C855 C854 1.387 . S
C855 C857 1.387 . S
H856 C863 0.950 . S
C857 C855 1.387 . S
C857 C859 1.390 . S
C857 H861 0.950 . S
H858 C854 0.950 . S
C859 C857 1.390 . S
C859 C860 1.387 . S
C859 H862 0.950 . S
C860 C859 1.387 . S
C860 C863 1.387 . S
H861 C857 0.950 . S
H862 C859 0.950 . S
C863 C854 1.390 . S
C863 H856 0.950 . S
C863 C860 1.387 . S
C864 C865 1.387 . S
C864 H868 0.950 . S
C864 C873 1.390 . S
C865 C864 1.387 . S
C865 C867 1.387 . S
H866 C873 0.950 . S
C867 C865 1.387 . S
C867 C869 1.390 . S
C867 H871 0.950 . S
H868 C864 0.950 . S
C869 C867 1.390 . S
C869 C870 1.387 . S
C869 H872 0.950 . S
C870 C869 1.387 . S
C870 C873 1.387 . S
H871 C867 0.950 . S
H872 C869 0.950 . S
C873 C864 1.390 . S
C873 H866 0.950 . S
C873 C870 1.387 . S
C874 C875 1.387 . S
C874 H878 0.950 . S
C874 C883 1.390 . S
C875 C874 1.387 . S
C875 C877 1.387 . S
H876 C883 0.950 . S
C877 C875 1.387 . S
C877 C879 1.390 . S
C877 H881 0.950 . S
H878 C874 0.950 . S
C879 C877 1.390 . S
C879 C880 1.387 . S
C879 H882 0.950 . S
C880 C879 1.387 . S
C880 C883 1.387 . S
H881 C877 0.950 . S
H882 C879 0.950 . S
C883 C874 1.390 . S
C883 H876 0.950 . S
C883 C880 1.387 . S
C884 C885 1.387 . S
C884 H888 0.950 . S
C884 C893 1.390 . S
C885 C884 1.387 . S
C885 C887 1.387 . S
H886 C893 0.950 . S
C887 C885 1.387 . S
C887 C889 1.390 . S
C887 H891 0.950 . S
H888 C884 0.950 . S
C889 C887 1.390 . S
C889 C890 1.387 . S
C889 H892 0.950 . S
C890 C889 1.387 . S
C890 C893 1.387 . S
H891 C887 0.950 . S
H892 C889 0.950 . S
C893 C884 1.390 . S
C893 H886 0.950 . S
C893 C890 1.387 . S
C894 C895 1.387 . S
C894 H898 0.950 . S
C894 C903 1.390 . S
C895 C894 1.387 . S
C895 C897 1.387 . S
H896 C903 0.950 . S
C897 C895 1.387 . S
C897 C899 1.390 . S
C897 H901 0.950 . S
H898 C894 0.950 . S
C899 C897 1.390 . S
C899 C900 1.387 . S
C899 H902 0.950 . S
C900 C899 1.387 . S
C900 C903 1.387 . S
H901 C897 0.950 . S
H902 C899 0.950 . S
C903 C894 1.390 . S
C903 H896 0.950 . S
C903 C900 1.387 . S
C904 C905 1.387 . S
C904 H908 0.950 . S
C904 C913 1.390 . S
C905 C904 1.387 . S
C905 C907 1.387 . S
H906 C913 0.950 . S
C907 C905 1.387 . S
C907 C909 1.390 . S
C907 H911 0.950 . S
H908 C904 0.950 . S
C909 C907 1.390 . S
C909 C910 1.387 . S
C909 H912 0.950 . S
C910 C909 1.387 . S
C910 C913 1.387 . S
H911 C907 0.950 . S
H912 C909 0.950 . S
C913 C904 1.390 . S
C913 H906 0.950 . S
C913 C910 1.387 . S
C914 C915 1.387 . S
C914 H918 0.950 . S
C914 C923 1.390 . S
C915 C914 1.387 . S
C915 C917 1.387 . S
H916 C923 0.950 . S
C917 C915 1.387 . S
C917 C919 1.390 . S
C917 H921 0.950 . S
H918 C914 0.950 . S
C919 C917 1.390 . S
C919 C920 1.387 . S
C919 H922 0.950 . S
C920 C919 1.387 . S
C920 C923 1.387 . S
H921 C917 0.950 . S
H922 C919 0.950 . S
C923 C914 1.390 . S
C923 H916 0.950 . S
C923 C920 1.387 . S
C924 C925 1.387 . S
C924 H928 0.950 . S
C924 C933 1.390 . S
C925 C924 1.387 . S
C925 C927 1.387 . S
H926 C933 0.950 . S
C927 C925 1.387 . S
C927 C929 1.390 . S
C927 H931 0.950 . S
H928 C924 0.950 . S
C929 C927 1.390 . S
C929 C930 1.387 . S
C929 H932 0.950 . S
C930 C929 1.387 . S
C930 C933 1.387 . S
H931 C927 0.950 . S
H932 C929 0.950 . S
C933 C924 1.390 . S
C933 H926 0.950 . S
C933 C930 1.387 . S
C934 C935 1.387 . S
C934 H938 0.950 . S
C934 C943 1.390 . S
C935 C934 1.387 . S
C935 C937 1.387 . S
H936 C943 0.950 . S
C937 C935 1.387 . S
C937 C939 1.390 . S
C937 H941 0.950 . S
H938 C934 0.950 . S
C939 C937 1.390 . S
C939 C940 1.387 . S
C939 H942 0.950 . S
C940 C939 1.387 . S
C940 C943 1.387 . S
H941 C937 0.950 . S
H942 C939 0.950 . S
C943 C934 1.390 . S
C943 H936 0.950 . S
C943 C940 1.387 . S
C944 C945 1.387 . S
C944 H948 0.950 . S
C944 C953 1.390 . S
C945 C944 1.387 . S
C945 C947 1.387 . S
H946 C953 0.950 . S
C947 C945 1.387 . S
C947 C949 1.390 . S
C947 H951 0.950 . S
H948 C944 0.950 . S
C949 C947 1.390 . S
C949 C950 1.387 . S
C949 H952 0.950 . S
C950 C949 1.387 . S
C950 C953 1.387 . S
H951 C947 0.950 . S
H952 C949 0.950 . S
C953 C944 1.390 . S
C953 H946 0.950 . S
C953 C950 1.387 . S
C954 C955 1.387 . S
C954 H958 0.950 . S
C954 C963 1.390 . S
C955 C954 1.387 . S
C955 C957 1.387 . S
H956 C963 0.950 . S
C957 C955 1.387 . S
C957 C959 1.390 . S
C957 H961 0.950 . S
H958 C954 0.950 . S
C959 C957 1.390 . S
C959 C960 1.387 . S
C959 H962 0.950 . S
C960 C959 1.387 . S
C960 C963 1.387 . S
H961 C957 0.950 . S
H962 C959 0.950 . S
C963 C954 1.390 . S
C963 H956 0.950 . S
C963 C960 1.387 . S
C964 C965 1.387 . S
C964 H968 0.950 . S
C964 C973 1.390 . S
C965 C964 1.387 . S
C965 C967 1.387 . S
H966 C973 0.950 . S
C967 C965 1.387 . S
C967 C969 1.390 . S
C967 H971 0.950 . S
H968 C964 0.950 . S
C969 C967 1.390 . S
C969 C970 1.387 . S
C969 H972 0.950 . S
C970 C969 1.387 . S
C970 C973 1.387 . S
H971 C967 0.950 . S
H972 C969 0.950 . S
C973 C964 1.390 . S
C973 H966 0.950 . S
C973 C970 1.387 . S
C974 C975 1.387 . S
C974 H978 0.950 . S
C974 C983 1.390 . S
C975 C974 1.387 . S
C975 C977 1.387 . S
H976 C983 0.950 . S
C977 C975 1.387 . S
C977 C979 1.390 . S
C977 H981 0.950 . S
H978 C974 0.950 . S
C979 C977 1.390 . S
C979 C980 1.387 . S
C979 H982 0.950 . S
C980 C979 1.387 . S
C980 C983 1.387 . S
H981 C977 0.950 . S
H982 C979 0.950 . S
C983 C974 1.390 . S
C983 H976 0.950 . S
C983 C980 1.387 . S
C984 C985 1.387 . S
C984 H988 0.950 . S
C984 C993 1.390 . S
C985 C984 1.387 . S
C985 C987 1.387 . S
H986 C993 0.950 . S
C987 C985 1.387 . S
C987 C989 1.390 . S
C987 H991 0.950 . S
H988 C984 0.950 . S
C989 C987 1.390 . S
C989 C990 1.387 . S
C989 H992 0.950 . S
C990 C989 1.387 . S
C990 C993 1.387 . S
H991 C987 0.950 . S
H992 C989 0.950 . S
C993 C984 1.390 . S
C993 H986 0.950 . S
C993 C990 1.387 . S
C994 C995 1.387 . S
C994 H998 0.950 . S
C994 C1003 1.390 1_545 S
C995 C994 1.387 . S
C995 C997 1.387 . S
H996 C1003 0.950 . S
C997 C995 1.387 . S
C997 C999 1.390 1_545 S
C997 H1001 0.950 . S
H998 C994 0.950 . S
C999 C997 1.390 1_565 S
C999 C1000 1.387 . S
C999 H1002 0.950 . S
C1000 C999 1.387 . S
C1000 C1003 1.387 . S
H1001 C997 0.950 . S
H1002 C999 0.950 . S
C1003 C994 1.390 1_565 S
C1003 H996 0.950 . S
C1003 C1000 1.387 . S
C1004 C1005 1.387 . S
C1004 H1008 0.950 . S
C1004 C1013 1.390 . S
C1005 C1004 1.387 . S
C1005 C1007 1.387 1_455 S
H1006 C1013 0.950 . S
C1007 C1005 1.387 1_655 S
C1007 C1009 1.390 . S
C1007 H1011 0.950 . S
H1008 C1004 0.950 . S
C1009 C1007 1.390 . S
C1009 C1010 1.387 . S
C1009 H1012 0.950 . S
C1010 C1009 1.387 . S
C1010 C1013 1.387 1_655 S
H1011 C1007 0.950 . S
H1012 C1009 0.950 . S
C1013 C1004 1.390 . S
C1013 H1006 0.950 . S
C1013 C1010 1.387 1_455 S
C1014 C1015 1.387 . S
C1014 H1018 0.950 . S
C1014 C1023 1.390 . S
C1015 C1014 1.387 . S
C1015 C1017 1.387 . S
H1016 C1023 0.950 . S
C1017 C1015 1.387 . S
C1017 C1019 1.390 . S
C1017 H1021 0.950 . S
H1018 C1014 0.950 . S
C1019 C1017 1.390 . S
C1019 C1020 1.387 . S
C1019 H1022 0.950 . S
C1020 C1019 1.387 . S
C1020 C1023 1.387 . S
H1021 C1017 0.950 . S
H1022 C1019 0.950 . S
C1023 C1014 1.390 . S
C1023 H1016 0.950 . S
C1023 C1020 1.387 . S
C1024 C1025 1.387 . S
C1024 H1028 0.950 . S
C1024 C1033 1.390 1_565 S
C1025 C1024 1.387 . S
C1025 C1027 1.387 . S
H1026 C1033 0.950 . S
C1027 C1025 1.387 . S
C1027 C1029 1.390 1_565 S
C1027 H1031 0.950 . S
H1028 C1024 0.950 . S
C1029 C1027 1.390 1_545 S
C1029 C1030 1.387 . S
C1029 H1032 0.950 . S
C1030 C1029 1.387 . S
C1030 C1033 1.387 . S
H1031 C1027 0.950 . S
H1032 C1029 0.950 . S
C1033 C1024 1.390 1_545 S
C1033 H1026 0.950 . S
C1033 C1030 1.387 . S
C1034 C1035 1.387 1_655 S
C1034 H1038 0.950 . S
C1034 C1043 1.390 . S
C1035 C1034 1.387 1_455 S
C1035 C1037 1.387 . S
H1036 C1043 0.950 . S
C1037 C1035 1.387 . S
C1037 C1039 1.390 . S
C1037 H1041 0.950 . S
H1038 C1034 0.950 . S
C1039 C1037 1.390 . S
C1039 C1040 1.387 1_455 S
C1039 H1042 0.950 . S
C1040 C1039 1.387 1_655 S
C1040 C1043 1.387 . S
H1041 C1037 0.950 . S
H1042 C1039 0.950 . S
C1043 C1034 1.390 . S
C1043 H1036 0.950 . S
C1043 C1040 1.387 . S
C1044 C1045 1.387 . S
C1044 H1048 0.950 . S
C1044 C1053 1.390 . S
C1045 C1044 1.387 . S
C1045 C1047 1.387 . S
H1046 C1053 0.950 . S
C1047 C1045 1.387 . S
C1047 C1049 1.390 . S
C1047 H1051 0.950 . S
H1048 C1044 0.950 . S
C1049 C1047 1.390 . S
C1049 C1050 1.387 . S
C1049 H1052 0.950 . S
C1050 C1049 1.387 . S
C1050 C1053 1.387 . S
H1051 C1047 0.950 . S
H1052 C1049 0.950 . S
C1053 C1044 1.390 . S
C1053 H1046 0.950 . S
C1053 C1050 1.387 . S
C1054 C1055 1.387 . S
C1054 H1058 0.950 . S
C1054 C1063 1.390 . S
C1055 C1054 1.387 . S
C1055 C1057 1.387 . S
H1056 C1063 0.950 . S
C1057 C1055 1.387 . S
C1057 C1059 1.390 . S
C1057 H1061 0.950 . S
H1058 C1054 0.950 . S
C1059 C1057 1.390 . S
C1059 C1060 1.387 . S
C1059 H1062 0.950 . S
C1060 C1059 1.387 . S
C1060 C1063 1.387 . S
H1061 C1057 0.950 . S
H1062 C1059 0.950 . S
C1063 C1054 1.390 . S
C1063 H1056 0.950 . S
C1063 C1060 1.387 . S
C1064 C1065 1.387 . S
C1064 H1068 0.950 . S
C1064 C1073 1.390 . S
C1065 C1064 1.387 . S
C1065 C1067 1.387 . S
H1066 C1073 0.950 . S
C1067 C1065 1.387 . S
C1067 C1069 1.390 . S
C1067 H1071 0.950 . S
H1068 C1064 0.950 . S
C1069 C1067 1.390 . S
C1069 C1070 1.387 . S
C1069 H1072 0.950 . S
C1070 C1069 1.387 . S
C1070 C1073 1.387 . S
H1071 C1067 0.950 . S
H1072 C1069 0.950 . S
C1073 C1064 1.390 . S
C1073 H1066 0.950 . S
C1073 C1070 1.387 . S
C1074 C1075 1.387 . S
C1074 H1078 0.950 . S
C1074 C1083 1.390 . S
C1075 C1074 1.387 . S
C1075 C1077 1.387 . S
H1076 C1083 0.950 . S
C1077 C1075 1.387 . S
C1077 C1079 1.390 . S
C1077 H1081 0.950 . S
H1078 C1074 0.950 . S
C1079 C1077 1.390 . S
C1079 C1080 1.387 . S
C1079 H1082 0.950 . S
C1080 C1079 1.387 . S
C1080 C1083 1.387 . S
H1081 C1077 0.950 . S
H1082 C1079 0.950 . S
C1083 C1074 1.390 . S
C1083 H1076 0.950 . S
C1083 C1080 1.387 . S
C1084 C1085 1.387 . S
C1084 H1088 0.950 . S
C1084 C1093 1.390 . S
C1085 C1084 1.387 . S
C1085 C1087 1.387 . S
H1086 C1093 0.950 . S
C1087 C1085 1.387 . S
C1087 C1089 1.390 . S
C1087 H1091 0.950 . S
H1088 C1084 0.950 . S
C1089 C1087 1.390 . S
C1089 C1090 1.387 . S
C1089 H1092 0.950 . S
C1090 C1089 1.387 . S
C1090 C1093 1.387 . S
H1091 C1087 0.950 . S
H1092 C1089 0.950 . S
C1093 C1084 1.390 . S
C1093 H1086 0.950 . S
C1093 C1090 1.387 . S
C1094 C1095 1.387 . S
C1094 H1098 0.950 . S
C1094 C1103 1.390 . S
C1095 C1094 1.387 . S
C1095 C1097 1.387 . S
H1096 C1103 0.950 . S
C1097 C1095 1.387 . S
C1097 C1099 1.390 . S
C1097 H1101 0.950 . S
H1098 C1094 0.950 . S
C1099 C1097 1.390 . S
C1099 C1100 1.387 . S
C1099 H1102 0.950 . S
C1100 C1099 1.387 . S
C1100 C1103 1.387 . S
H1101 C1097 0.950 . S
H1102 C1099 0.950 . S
C1103 C1094 1.390 . S
C1103 H1096 0.950 . S
C1103 C1100 1.387 . S
C1104 C1105 1.387 . S
C1104 H1108 0.950 . S
C1104 C1113 1.390 . S
C1105 C1104 1.387 . S
C1105 C1107 1.387 . S
H1106 C1113 0.950 . S
C1107 C1105 1.387 . S
C1107 C1109 1.390 . S
C1107 H1111 0.950 . S
H1108 C1104 0.950 . S
C1109 C1107 1.390 . S
C1109 C1110 1.387 . S
C1109 H1112 0.950 . S
C1110 C1109 1.387 . S
C1110 C1113 1.387 . S
H1111 C1107 0.950 . S
H1112 C1109 0.950 . S
C1113 C1104 1.390 . S
C1113 H1106 0.950 . S
C1113 C1110 1.387 . S
C1114 C1115 1.387 . S
C1114 H1118 0.950 . S
C1114 C1123 1.390 . S
C1115 C1114 1.387 . S
C1115 C1117 1.387 . S
H1116 C1123 0.950 . S
C1117 C1115 1.387 . S
C1117 C1119 1.390 . S
C1117 H1121 0.950 . S
H1118 C1114 0.950 . S
C1119 C1117 1.390 . S
C1119 C1120 1.387 . S
C1119 H1122 0.950 . S
C1120 C1119 1.387 . S
C1120 C1123 1.387 . S
H1121 C1117 0.950 . S
H1122 C1119 0.950 . S
C1123 C1114 1.390 . S
C1123 H1116 0.950 . S
C1123 C1120 1.387 . S
C1124 C1125 1.387 . S
C1124 H1128 0.950 . S
C1124 C1133 1.390 . S
C1125 C1124 1.387 . S
C1125 C1127 1.387 . S
H1126 C1133 0.950 . S
C1127 C1125 1.387 . S
C1127 C1129 1.390 . S
C1127 H1131 0.950 . S
H1128 C1124 0.950 . S
C1129 C1127 1.390 . S
C1129 C1130 1.387 . S
C1129 H1132 0.950 . S
C1130 C1129 1.387 . S
C1130 C1133 1.387 . S
H1131 C1127 0.950 . S
H1132 C1129 0.950 . S
C1133 C1124 1.390 . S
C1133 H1126 0.950 . S
C1133 C1130 1.387 . S
C1134 C1135 1.387 . S
C1134 H1138 0.950 . S
C1134 C1143 1.390 . S
C1135 C1134 1.387 . S
C1135 C1137 1.387 . S
H1136 C1143 0.950 . S
C1137 C1135 1.387 . S
C1137 C1139 1.390 . S
C1137 H1141 0.950 . S
H1138 C1134 0.950 . S
C1139 C1137 1.390 . S
C1139 C1140 1.387 . S
C1139 H1142 0.950 . S
C1140 C1139 1.387 . S
C1140 C1143 1.387 . S
H1141 C1137 0.950 . S
H1142 C1139 0.950 . S
C1143 C1134 1.390 . S
C1143 H1136 0.950 . S
C1143 C1140 1.387 . S
C1144 C1145 1.387 . S
C1144 H1148 0.950 . S
C1144 C1153 1.390 . S
C1145 C1144 1.387 . S
C1145 C1147 1.387 . S
H1146 C1153 0.950 . S
C1147 C1145 1.387 . S
C1147 C1149 1.390 . S
C1147 H1151 0.950 . S
H1148 C1144 0.950 . S
C1149 C1147 1.390 . S
C1149 C1150 1.387 . S
C1149 H1152 0.950 . S
C1150 C1149 1.387 . S
C1150 C1153 1.387 . S
H1151 C1147 0.950 . S
H1152 C1149 0.950 . S
C1153 C1144 1.390 . S
C1153 H1146 0.950 . S
C1153 C1150 1.387 . S
C1154 C1155 1.387 . S
C1154 H1158 0.950 . S
C1154 C1163 1.390 . S
C1155 C1154 1.387 . S
C1155 C1157 1.387 . S
H1156 C1163 0.950 . S
C1157 C1155 1.387 . S
C1157 C1159 1.390 . S
C1157 H1161 0.950 . S
H1158 C1154 0.950 . S
C1159 C1157 1.390 . S
C1159 C1160 1.387 . S
C1159 H1162 0.950 . S
C1160 C1159 1.387 . S
C1160 C1163 1.387 . S
H1161 C1157 0.950 . S
H1162 C1159 0.950 . S
C1163 C1154 1.390 . S
C1163 H1156 0.950 . S
C1163 C1160 1.387 . S
C1164 C1165 1.387 . S
C1164 H1168 0.950 . S
C1164 C1173 1.390 . S
C1165 C1164 1.387 . S
C1165 C1167 1.387 1_455 S
H1166 C1173 0.950 . S
C1167 C1165 1.387 1_655 S
C1167 C1169 1.390 . S
C1167 H1171 0.950 . S
H1168 C1164 0.950 . S
C1169 C1167 1.390 . S
C1169 C1170 1.387 . S
C1169 H1172 0.950 . S
C1170 C1169 1.387 . S
C1170 C1173 1.387 1_655 S
H1171 C1167 0.950 . S
H1172 C1169 0.950 . S
C1173 C1164 1.390 . S
C1173 H1166 0.950 . S
C1173 C1170 1.387 1_455 S
C1174 C1175 1.387 . S
C1174 H1178 0.950 . S
C1174 C1183 1.390 . S
C1175 C1174 1.387 . S
C1175 C1177 1.387 . S
H1176 C1183 0.950 . S
C1177 C1175 1.387 . S
C1177 C1179 1.390 . S
C1177 H1181 0.950 . S
H1178 C1174 0.950 . S
C1179 C1177 1.390 . S
C1179 C1180 1.387 . S
C1179 H1182 0.950 . S
C1180 C1179 1.387 . S
C1180 C1183 1.387 . S
H1181 C1177 0.950 . S
H1182 C1179 0.950 . S
C1183 C1174 1.390 . S
C1183 H1176 0.950 . S
C1183 C1180 1.387 . S
C1184 C1185 1.387 . S
C1184 H1188 0.950 . S
C1184 C1193 1.390 1_545 S
C1185 C1184 1.387 . S
C1185 C1187 1.387 . S
H1186 C1193 0.950 . S
C1187 C1185 1.387 . S
C1187 C1189 1.390 1_545 S
C1187 H1191 0.950 . S
H1188 C1184 0.950 . S
C1189 C1187 1.390 1_565 S
C1189 C1190 1.387 . S
C1189 H1192 0.950 . S
C1190 C1189 1.387 . S
C1190 C1193 1.387 . S
H1191 C1187 0.950 . S
H1192 C1189 0.950 . S
C1193 C1184 1.390 1_565 S
C1193 H1186 0.950 . S
C1193 C1190 1.387 . S
C1194 C1195 1.387 . S
C1194 H1198 0.950 . S
C1194 C1203 1.390 1_565 S
C1195 C1194 1.387 . S
C1195 C1197 1.387 . S
H1196 C1203 0.950 . S
C1197 C1195 1.387 . S
C1197 C1199 1.390 1_565 S
C1197 H1201 0.950 . S
H1198 C1194 0.950 . S
C1199 C1197 1.390 1_545 S
C1199 C1200 1.387 . S
C1199 H1202 0.950 . S
C1200 C1199 1.387 . S
C1200 C1203 1.387 . S
H1201 C1197 0.950 . S
H1202 C1199 0.950 . S
C1203 C1194 1.390 1_545 S
C1203 H1196 0.950 . S
C1203 C1200 1.387 . S
C1204 C1205 1.387 . S
C1204 H1208 0.950 . S
C1204 C1213 1.390 1_655 S
C1205 C1204 1.387 . S
C1205 C1207 1.387 . S
H1206 C1213 0.950 . S
C1207 C1205 1.387 . S
C1207 C1209 1.390 1_655 S
C1207 H1211 0.950 . S
H1208 C1204 0.950 . S
C1209 C1207 1.390 1_455 S
C1209 C1210 1.387 . S
C1209 H1212 0.950 . S
C1210 C1209 1.387 . S
C1210 C1213 1.387 . S
H1211 C1207 0.950 . S
H1212 C1209 0.950 . S
C1213 C1204 1.390 1_455 S
C1213 H1206 0.950 . S
C1213 C1210 1.387 . S
C1214 C1215 1.387 . S
C1214 H1218 0.950 . S
C1214 C1223 1.390 . S
C1215 C1214 1.387 . S
C1215 C1217 1.387 . S
H1216 C1223 0.950 . S
C1217 C1215 1.387 . S
C1217 C1219 1.390 . S
C1217 H1221 0.950 . S
H1218 C1214 0.950 . S
C1219 C1217 1.390 . S
C1219 C1220 1.387 . S
C1219 H1222 0.950 . S
C1220 C1219 1.387 . S
C1220 C1223 1.387 . S
H1221 C1217 0.950 . S
H1222 C1219 0.950 . S
C1223 C1214 1.390 . S
C1223 H1216 0.950 . S
C1223 C1220 1.387 . S
C505 C65 1.090 . S
C510 C9 1.094 . S
C515 C79 1.089 . S
C520 C23 1.094 . S
C525 C51 1.092 . S
C530 C37 1.092 . S
C535 C149 1.089 . S
C540 C93 1.094 . S
C545 C107 1.089 . S
C550 C163 1.094 . S
C555 C135 1.092 . S
C560 C121 1.092 . S
C565 C177 1.092 . S
C570 C233 1.096 . S
C575 C247 1.096 1_545 S
C580 C191 1.093 . S
C585 C205 1.095 . S
C590 C219 1.093 1_655 S
C595 C261 1.092 1_545 S
C600 C317 1.097 . S
C605 C331 1.093 . S
C610 C275 1.096 1_655 S
C615 C289 1.094 . S
C620 C303 1.095 . S
C625 C401 1.092 . S
C630 C345 1.096 1_565 S
C635 C359 1.096 1_455 S
C640 C415 1.092 . S
C645 C387 1.095 . S
C650 C373 1.094 . S
C655 C485 1.092 . S
C660 C429 1.096 . S
C665 C443 1.092 . S
C670 C499 1.096 1_565 S
C675 C457 1.095 . S
C680 C471 1.094 1_455 S
C685 C160 1.408 . S
C690 C6 1.410 . S
C695 C20 1.408 . S
C700 C132 1.410 . S
C705 C146 1.410 . S
C710 C34 1.408 . S
C715 C104 1.408 . S
C720 C48 1.410 . S
C725 C62 1.408 . S
C730 C118 1.410 . S
C735 C90 1.409 . S
C740 C76 1.409 . S
C745 C174 1.413 . S
C750 C328 1.412 . S
C755 C300 1.412 . S
C760 C188 1.414 . S
C765 C314 1.414 . S
C770 C202 1.412 . S
C775 C216 1.409 . S
C780 C272 1.411 . S
C785 C230 1.409 . S
C790 C286 1.411 . S
C795 C244 1.410 . S
C800 C258 1.409 . S
C805 C496 1.410 . S
C810 C342 1.409 . S
C815 C356 1.411 . S
C820 C468 1.409 . S
C825 C370 1.411 . S
C830 C482 1.409 . S
C835 C440 1.414 . S
C840 C384 1.412 . S
C845 C454 1.414 . S
C850 C398 1.412 . S
C855 C426 1.413 . S
C860 C412 1.412 . S
C865 C217 1.461 . S
C870 C7 1.460 . S
C875 C231 1.462 . S
C880 C21 1.460 . S
C885 C35 1.463 . S
C890 C245 1.459 . S
C895 C49 1.463 . S
C900 C343 1.458 . S
C905 C63 1.463 . S
C910 C357 1.459 . S
C915 C77 1.463 . S
C920 C371 1.458 . S
C925 C91 1.463 . S
C930 C469 1.458 . S
C935 C105 1.462 . S
C940 C483 1.459 . S
C945 C119 1.462 . S
C950 C497 1.460 . S
C955 C133 1.463 . S
C960 C259 1.458 . S
C965 C273 1.462 . S
C970 C147 1.460 . S
C975 C287 1.462 . S
C980 C161 1.459 . S
C985 C385 1.485 . S
C990 C175 1.484 . S
C995 C189 1.485 . S
C1000 C399 1.485 . S
C1005 C413 1.485 . S
C1010 C203 1.485 . S
C1015 C301 1.485 . S
C1020 C427 1.484 . S
C1025 C441 1.485 . S
C1030 C315 1.485 . S
C1035 C455 1.484 . S
C1040 C329 1.486 . S
C1045 C8 1.659 . S
C1050 C414 1.661 . S
C1055 C22 1.654 . S
C1060 C386 1.657 . S
C1065 C36 1.659 . S
C1070 C400 1.660 . S
C1075 C50 1.659 . S
C1080 C190 1.660 . S
C1085 C204 1.657 . S
C1090 C64 1.659 . S
C1095 C176 1.658 . S
C1100 C78 1.662 . S
C1105 C330 1.658 . S
C1110 C92 1.662 . S
C1115 C302 1.658 . S
C1120 C106 1.661 . S
C1125 C316 1.658 . S
C1130 C120 1.662 . S
C1135 C442 1.657 . S
C1140 C134 1.661 . S
C1145 C456 1.654 . S
C1150 C148 1.658 . S
C1155 C428 1.654 . S
C1160 C162 1.657 . S
C1165 C218 1.636 . S
C1170 C358 1.635 . S
C1175 C372 1.637 . S
C1180 C232 1.636 . S
C1185 C344 1.632 . S
C1190 C246 1.632 . S
C1195 C260 1.632 . S
C1200 C498 1.632 . S
C1205 C470 1.632 . S
C1210 C274 1.632 . S
C1215 C288 1.637 . S
C1220 C484 1.636 . S
