# Generated by pormake.
# Topology umq, (4)-cn, num edge types: 1
# Building blocks:
#     Node 0, Type 0, BuildingBlock: GALJAG_clean_sbu_0, # of connection points: 4
#     Node 1, Type 0, BuildingBlock: GALJAG_clean_sbu_0, # of connection points: 4
#     Node 2, Type 0, BuildingBlock: GALJAG_clean_sbu_0, # of connection points: 4
#     Node 3, Type 0, BuildingBlock: GALJAG_clean_sbu_0, # of connection points: 4
#     Node 4, Type 0, BuildingBlock: GALJAG_clean_sbu_0, # of connection points: 4
#     Node 5, Type 0, BuildingBlock: GALJAG_clean_sbu_0, # of connection points: 4
#     Node 6, Type 0, BuildingBlock: GALJAG_clean_sbu_0, # of connection points: 4
#     Node 7, Type 0, BuildingBlock: GALJAG_clean_sbu_0, # of connection points: 4
#     Node 8, Type 0, BuildingBlock: GALJAG_clean_sbu_0, # of connection points: 4
#     Node 9, Type 0, BuildingBlock: GALJAG_clean_sbu_0, # of connection points: 4
#     Node 10, Type 0, BuildingBlock: GALJAG_clean_sbu_0, # of connection points: 4
#     Node 11, Type 0, BuildingBlock: GALJAG_clean_sbu_0, # of connection points: 4
#     Node 12, Type 0, BuildingBlock: GALJAG_clean_sbu_0, # of connection points: 4
#     Node 13, Type 0, BuildingBlock: GALJAG_clean_sbu_0, # of connection points: 4
#     Node 14, Type 0, BuildingBlock: GALJAG_clean_sbu_0, # of connection points: 4
#     Node 15, Type 0, BuildingBlock: GALJAG_clean_sbu_0, # of connection points: 4
#     Node 16, Type 0, BuildingBlock: GALJAG_clean_sbu_0, # of connection points: 4
#     Node 17, Type 0, BuildingBlock: GALJAG_clean_sbu_0, # of connection points: 4
#     Node 18, Type 0, BuildingBlock: GALJAG_clean_sbu_0, # of connection points: 4
#     Node 19, Type 0, BuildingBlock: GALJAG_clean_sbu_0, # of connection points: 4
#     Node 20, Type 0, BuildingBlock: GALJAG_clean_sbu_0, # of connection points: 4
#     Node 21, Type 0, BuildingBlock: GALJAG_clean_sbu_0, # of connection points: 4
#     Node 22, Type 0, BuildingBlock: GALJAG_clean_sbu_0, # of connection points: 4
#     Node 23, Type 0, BuildingBlock: GALJAG_clean_sbu_0, # of connection points: 4
#     Node 24, Type 0, BuildingBlock: GALJAG_clean_sbu_0, # of connection points: 4
#     Node 25, Type 0, BuildingBlock: GALJAG_clean_sbu_0, # of connection points: 4
#     Node 26, Type 0, BuildingBlock: GALJAG_clean_sbu_0, # of connection points: 4
#     Node 27, Type 0, BuildingBlock: GALJAG_clean_sbu_0, # of connection points: 4
#     Node 28, Type 0, BuildingBlock: GALJAG_clean_sbu_0, # of connection points: 4
#     Node 29, Type 0, BuildingBlock: GALJAG_clean_sbu_0, # of connection points: 4
#     Node 30, Type 0, BuildingBlock: GALJAG_clean_sbu_0, # of connection points: 4
#     Node 31, Type 0, BuildingBlock: GALJAG_clean_sbu_0, # of connection points: 4
#     Edge 32, Type (0, 0), BuildingBlock: KIFKEQ_clean_linker_1, # of connection points: 2
#     Edge 33, Type (0, 0), BuildingBlock: KIFKEQ_clean_linker_1, # of connection points: 2
#     Edge 34, Type (0, 0), BuildingBlock: KIFKEQ_clean_linker_1, # of connection points: 2
#     Edge 35, Type (0, 0), BuildingBlock: KIFKEQ_clean_linker_1, # of connection points: 2
#     Edge 36, Type (0, 0), BuildingBlock: KIFKEQ_clean_linker_1, # of connection points: 2
#     Edge 37, Type (0, 0), BuildingBlock: KIFKEQ_clean_linker_1, # of connection points: 2
#     Edge 38, Type (0, 0), BuildingBlock: KIFKEQ_clean_linker_1, # of connection points: 2
#     Edge 39, Type (0, 0), BuildingBlock: KIFKEQ_clean_linker_1, # of connection points: 2
#     Edge 40, Type (0, 0), BuildingBlock: KIFKEQ_clean_linker_1, # of connection points: 2
#     Edge 41, Type (0, 0), BuildingBlock: KIFKEQ_clean_linker_1, # of connection points: 2
#     Edge 42, Type (0, 0), BuildingBlock: KIFKEQ_clean_linker_1, # of connection points: 2
#     Edge 43, Type (0, 0), BuildingBlock: KIFKEQ_clean_linker_1, # of connection points: 2
#     Edge 44, Type (0, 0), BuildingBlock: KIFKEQ_clean_linker_1, # of connection points: 2
#     Edge 45, Type (0, 0), BuildingBlock: KIFKEQ_clean_linker_1, # of connection points: 2
#     Edge 46, Type (0, 0), BuildingBlock: KIFKEQ_clean_linker_1, # of connection points: 2
#     Edge 47, Type (0, 0), BuildingBlock: KIFKEQ_clean_linker_1, # of connection points: 2
#     Edge 48, Type (0, 0), BuildingBlock: KIFKEQ_clean_linker_1, # of connection points: 2
#     Edge 49, Type (0, 0), BuildingBlock: KIFKEQ_clean_linker_1, # of connection points: 2
#     Edge 50, Type (0, 0), BuildingBlock: KIFKEQ_clean_linker_1, # of connection points: 2
#     Edge 51, Type (0, 0), BuildingBlock: KIFKEQ_clean_linker_1, # of connection points: 2
#     Edge 52, Type (0, 0), BuildingBlock: KIFKEQ_clean_linker_1, # of connection points: 2
#     Edge 53, Type (0, 0), BuildingBlock: KIFKEQ_clean_linker_1, # of connection points: 2
#     Edge 54, Type (0, 0), BuildingBlock: KIFKEQ_clean_linker_1, # of connection points: 2
#     Edge 55, Type (0, 0), BuildingBlock: KIFKEQ_clean_linker_1, # of connection points: 2
#     Edge 56, Type (0, 0), BuildingBlock: KIFKEQ_clean_linker_1, # of connection points: 2
#     Edge 57, Type (0, 0), BuildingBlock: KIFKEQ_clean_linker_1, # of connection points: 2
#     Edge 58, Type (0, 0), BuildingBlock: KIFKEQ_clean_linker_1, # of connection points: 2
#     Edge 59, Type (0, 0), BuildingBlock: KIFKEQ_clean_linker_1, # of connection points: 2
#     Edge 60, Type (0, 0), BuildingBlock: KIFKEQ_clean_linker_1, # of connection points: 2
#     Edge 61, Type (0, 0), BuildingBlock: KIFKEQ_clean_linker_1, # of connection points: 2
#     Edge 62, Type (0, 0), BuildingBlock: KIFKEQ_clean_linker_1, # of connection points: 2
#     Edge 63, Type (0, 0), BuildingBlock: KIFKEQ_clean_linker_1, # of connection points: 2
#     Edge 64, Type (0, 0), BuildingBlock: KIFKEQ_clean_linker_1, # of connection points: 2
#     Edge 65, Type (0, 0), BuildingBlock: KIFKEQ_clean_linker_1, # of connection points: 2
#     Edge 66, Type (0, 0), BuildingBlock: KIFKEQ_clean_linker_1, # of connection points: 2
#     Edge 67, Type (0, 0), BuildingBlock: KIFKEQ_clean_linker_1, # of connection points: 2
#     Edge 68, Type (0, 0), BuildingBlock: KIFKEQ_clean_linker_1, # of connection points: 2
#     Edge 69, Type (0, 0), BuildingBlock: KIFKEQ_clean_linker_1, # of connection points: 2
#     Edge 70, Type (0, 0), BuildingBlock: KIFKEQ_clean_linker_1, # of connection points: 2
#     Edge 71, Type (0, 0), BuildingBlock: KIFKEQ_clean_linker_1, # of connection points: 2
#     Edge 72, Type (0, 0), BuildingBlock: KIFKEQ_clean_linker_1, # of connection points: 2
#     Edge 73, Type (0, 0), BuildingBlock: KIFKEQ_clean_linker_1, # of connection points: 2
#     Edge 74, Type (0, 0), BuildingBlock: KIFKEQ_clean_linker_1, # of connection points: 2
#     Edge 75, Type (0, 0), BuildingBlock: KIFKEQ_clean_linker_1, # of connection points: 2
#     Edge 76, Type (0, 0), BuildingBlock: KIFKEQ_clean_linker_1, # of connection points: 2
#     Edge 77, Type (0, 0), BuildingBlock: KIFKEQ_clean_linker_1, # of connection points: 2
#     Edge 78, Type (0, 0), BuildingBlock: KIFKEQ_clean_linker_1, # of connection points: 2
#     Edge 79, Type (0, 0), BuildingBlock: KIFKEQ_clean_linker_1, # of connection points: 2
#     Edge 80, Type (0, 0), BuildingBlock: KIFKEQ_clean_linker_1, # of connection points: 2
#     Edge 81, Type (0, 0), BuildingBlock: KIFKEQ_clean_linker_1, # of connection points: 2
#     Edge 82, Type (0, 0), BuildingBlock: KIFKEQ_clean_linker_1, # of connection points: 2
#     Edge 83, Type (0, 0), BuildingBlock: KIFKEQ_clean_linker_1, # of connection points: 2
#     Edge 84, Type (0, 0), BuildingBlock: KIFKEQ_clean_linker_1, # of connection points: 2
#     Edge 85, Type (0, 0), BuildingBlock: KIFKEQ_clean_linker_1, # of connection points: 2
#     Edge 86, Type (0, 0), BuildingBlock: KIFKEQ_clean_linker_1, # of connection points: 2
#     Edge 87, Type (0, 0), BuildingBlock: KIFKEQ_clean_linker_1, # of connection points: 2
#     Edge 88, Type (0, 0), BuildingBlock: KIFKEQ_clean_linker_1, # of connection points: 2
#     Edge 89, Type (0, 0), BuildingBlock: KIFKEQ_clean_linker_1, # of connection points: 2
#     Edge 90, Type (0, 0), BuildingBlock: KIFKEQ_clean_linker_1, # of connection points: 2
#     Edge 91, Type (0, 0), BuildingBlock: KIFKEQ_clean_linker_1, # of connection points: 2
#     Edge 92, Type (0, 0), BuildingBlock: KIFKEQ_clean_linker_1, # of connection points: 2
#     Edge 93, Type (0, 0), BuildingBlock: KIFKEQ_clean_linker_1, # of connection points: 2
#     Edge 94, Type (0, 0), BuildingBlock: KIFKEQ_clean_linker_1, # of connection points: 2
#     Edge 95, Type (0, 0), BuildingBlock: KIFKEQ_clean_linker_1, # of connection points: 2
# Relax obj value: 0.107
# Max RMSD: 0.085
# Mean RMSD: 0.085
data_MOF--net-umq--node1-GALJAG_clean_sbu_0--edge1-KIFKEQ_clean_linker_1
_symmetry_space_group_name_H-M    P1
_symmetry_Int_Tables_number       1
_symmetry_cell_setting            triclinic
loop_
_symmetry_equiv_pos_as_xyz
'x, y, z'
_cell_length_a     64.230152
_cell_length_b     64.28941
_cell_length_c     48.6709
_cell_angle_alpha  90.001232
_cell_angle_beta   90.011646
_cell_angle_gamma 89.983473
loop_
_atom_site_label
_atom_site_type_symbol
_atom_site_fract_x
_atom_site_fract_y
_atom_site_fract_z
_atom_type_partial_charge
In0 In 0.23393 0.09686 0.15784 0.0
O1 O 0.20334 0.11439 0.16509 0.0
O2 O 0.22428 0.11134 0.19856 0.0
C3 C 0.22819 0.08614 0.10461 0.0
C4 C 0.23608 0.06015 0.18462 0.0
C5 C 0.26513 0.12492 0.15484 0.0
O6 O 0.21395 0.09399 0.11915 0.0
O7 O 0.24516 0.08326 0.11708 0.0
O8 O 0.26686 0.10794 0.1676 0.0
O9 O 0.24773 0.12769 0.1434 0.0
C10 C 0.2071 0.11822 0.19003 0.0
O11 O 0.25167 0.07176 0.18113 0.0
O12 O 0.21949 0.06671 0.17376 0.0
In13 In 0.90062 0.23233 0.15891 0.0
O14 O 0.88974 0.20025 0.17374 0.0
O15 O 0.87508 0.22686 0.19061 0.0
C16 C 0.91056 0.22309 0.10633 0.0
C17 C 0.93593 0.23425 0.18893 0.0
C18 C 0.87742 0.26683 0.1512 0.0
O19 O 0.89551 0.21477 0.11882 0.0
O20 O 0.92098 0.23577 0.12056 0.0
O21 O 0.89139 0.26575 0.16941 0.0
O22 O 0.87533 0.25063 0.13684 0.0
C23 C 0.87633 0.20733 0.19018 0.0
O24 O 0.92553 0.25021 0.18268 0.0
O25 O 0.92884 0.21744 0.17942 0.0
In26 In 0.76455 0.89914 0.16062 0.0
O27 O 0.74679 0.92266 0.18663 0.0
O28 O 0.77757 0.9305 0.17467 0.0
C29 C 0.73376 0.87074 0.1561 0.0
C30 C 0.79181 0.87858 0.1932 0.0
C31 C 0.7701 0.90971 0.10727 0.0
O32 O 0.73106 0.88836 0.16693 0.0
O33 O 0.75198 0.86745 0.14746 0.0
O34 O 0.78448 0.90215 0.12184 0.0
O35 O 0.75311 0.91238 0.11977 0.0
C36 C 0.76146 0.93564 0.18787 0.0
O37 O 0.79591 0.88319 0.16858 0.0
O38 O 0.77405 0.88425 0.20122 0.0
In39 In 0.09751 0.76118 0.16058 0.0
O40 O 0.10366 0.79461 0.17583 0.0
O41 O 0.1252 0.77085 0.18622 0.0
C42 C 0.08797 0.76868 0.1074 0.0
C43 C 0.0639 0.75655 0.19366 0.0
C44 C 0.12248 0.72796 0.15313 0.0
O45 O 0.09648 0.78221 0.12252 0.0
O46 O 0.08384 0.75177 0.11933 0.0
O47 O 0.10465 0.72629 0.16391 0.0
O48 O 0.12736 0.74617 0.14594 0.0
C49 C 0.12024 0.78972 0.18824 0.0
O50 O 0.08196 0.75106 0.20066 0.0
O51 O 0.06265 0.76398 0.16976 0.0
In52 In 0.23362 0.90256 0.34379 0.0
O53 O 0.20153 0.89006 0.33105 0.0
O54 O 0.22759 0.88241 0.30627 0.0
C55 C 0.22631 0.91245 0.3969 0.0
C56 C 0.23625 0.93845 0.31514 0.0
C57 C 0.26546 0.87585 0.35149 0.0
O58 O 0.21389 0.90161 0.38281 0.0
O59 O 0.24212 0.91879 0.38399 0.0
O60 O 0.26754 0.89278 0.33863 0.0
O61 O 0.24736 0.87245 0.36052 0.0
C62 C 0.20825 0.88082 0.30997 0.0
O63 O 0.25137 0.9261 0.31773 0.0
O64 O 0.21999 0.93307 0.3278 0.0
In65 In 0.09511 0.23247 0.34557 0.0
O66 O 0.07144 0.24983 0.31933 0.0
O67 O 0.06384 0.21909 0.33168 0.0
C68 C 0.12305 0.26358 0.35072 0.0
C69 C 0.1163 0.20618 0.31244 0.0
C70 C 0.08501 0.22602 0.39884 0.0
O71 O 0.10511 0.26635 0.34082 0.0
O72 O 0.12683 0.24517 0.35819 0.0
O73 O 0.09282 0.21201 0.38389 0.0
O74 O 0.0818 0.24307 0.38674 0.0
C75 C 0.05858 0.23504 0.31827 0.0
O76 O 0.11174 0.20162 0.33693 0.0
O77 O 0.11015 0.22387 0.30478 0.0
In78 In 0.76151 0.09491 0.34471 0.0
O79 O 0.7935 0.10803 0.33286 0.0
O80 O 0.76735 0.11704 0.30906 0.0
C81 C 0.76874 0.08442 0.39765 0.0
C82 C 0.75989 0.05904 0.31573 0.0
C83 C 0.72921 0.12117 0.35146 0.0
O84 O 0.7813 0.09516 0.38367 0.0
O85 O 0.75273 0.07855 0.38476 0.0
O86 O 0.72834 0.10557 0.33573 0.0
O87 O 0.74631 0.1234 0.36394 0.0
C88 C 0.78669 0.11845 0.31282 0.0
O89 O 0.74398 0.06992 0.32055 0.0
O90 O 0.77646 0.06591 0.32619 0.0
In91 In 0.90322 0.76257 0.34685 0.0
O92 O 0.88651 0.79374 0.33985 0.0
O93 O 0.89019 0.77346 0.30585 0.0
C94 C 0.91348 0.76808 0.40026 0.0
C95 C 0.93955 0.75794 0.31943 0.0
C96 C 0.87436 0.73223 0.35154 0.0
O97 O 0.90803 0.78296 0.38492 0.0
O98 O 0.91429 0.75063 0.38845 0.0
O99 O 0.89266 0.72876 0.34331 0.0
O100 O 0.87067 0.75095 0.35758 0.0
C101 C 0.88327 0.79053 0.31462 0.0
O102 O 0.92446 0.74557 0.31692 0.0
O103 O 0.93661 0.77249 0.3364 0.0
In104 In 0.76817 0.90497 0.84722 0.0
O105 O 0.80045 0.89324 0.83376 0.0
O106 O 0.77448 0.88685 0.80815 0.0
C107 C 0.77495 0.91309 0.90107 0.0
C108 C 0.76566 0.94155 0.82037 0.0
C109 C 0.73618 0.87797 0.85155 0.0
O110 O 0.78566 0.90015 0.88766 0.0
O111 O 0.76123 0.92236 0.88715 0.0
O112 O 0.73415 0.89576 0.84092 0.0
O113 O 0.75422 0.87397 0.8603 0.0
C114 C 0.7938 0.88505 0.81186 0.0
O115 O 0.75016 0.92982 0.8239 0.0
O116 O 0.78233 0.93519 0.83126 0.0
In117 In 0.09646 0.7685 0.84749 0.0
O118 O 0.07523 0.75161 0.81754 0.0
O119 O 0.06354 0.77916 0.83612 0.0
C120 C 0.12411 0.73705 0.85285 0.0
C121 C 0.1149 0.79672 0.81424 0.0
C122 C 0.08785 0.7747 0.90125 0.0
O123 O 0.10567 0.73416 0.84481 0.0
O124 O 0.1285 0.75568 0.8584 0.0
O125 O 0.10064 0.78576 0.88808 0.0
O126 O 0.07899 0.7608 0.88714 0.0
C127 C 0.06044 0.76443 0.81945 0.0
O128 O 0.10749 0.80162 0.83737 0.0
O129 O 0.11299 0.77779 0.80811 0.0
In130 In 0.23562 0.09646 0.84625 0.0
O131 O 0.20296 0.10702 0.83371 0.0
O132 O 0.2288 0.12452 0.8192 0.0
C133 C 0.22599 0.0868 0.89896 0.0
C134 C 0.23558 0.06199 0.81441 0.0
C135 C 0.27168 0.11806 0.84826 0.0
O136 O 0.21858 0.1024 0.8867 0.0
O137 O 0.23777 0.07565 0.88439 0.0
O138 O 0.26751 0.10557 0.82902 0.0
O139 O 0.25781 0.11943 0.86649 0.0
C140 C 0.20931 0.12215 0.81942 0.0
O141 O 0.25054 0.06631 0.83023 0.0
O142 O 0.22067 0.07469 0.81525 0.0
In143 In 0.90438 0.23067 0.84755 0.0
O144 O 0.89066 0.1992 0.83521 0.0
O145 O 0.88468 0.22534 0.80953 0.0
C146 C 0.91428 0.22337 0.90076 0.0
C147 C 0.94013 0.23156 0.81839 0.0
C148 C 0.87686 0.26206 0.85282 0.0
O149 O 0.90363 0.21083 0.88664 0.0
O150 O 0.92035 0.23924 0.88786 0.0
O151 O 0.89478 0.26469 0.8427 0.0
O152 O 0.873 0.24372 0.86052 0.0
C153 C 0.88204 0.20616 0.81374 0.0
O154 O 0.93086 0.24793 0.82577 0.0
O155 O 0.93175 0.21493 0.82646 0.0
In156 In 0.76702 0.09647 0.65638 0.0
O157 O 0.79961 0.10635 0.67084 0.0
O158 O 0.7734 0.12089 0.68908 0.0
C159 C 0.77427 0.08627 0.60333 0.0
C160 C 0.76469 0.06175 0.68741 0.0
C161 C 0.73386 0.12147 0.6489 0.0
O162 O 0.78429 0.10027 0.61577 0.0
O163 O 0.76096 0.07694 0.61787 0.0
O164 O 0.73286 0.10499 0.66298 0.0
O165 O 0.75144 0.1251 0.63839 0.0
C166 C 0.79292 0.1194 0.68807 0.0
O167 O 0.7495 0.07397 0.6843 0.0
O168 O 0.78085 0.06672 0.67422 0.0
In169 In 0.90314 0.76681 0.65932 0.0
O170 O 0.91844 0.75762 0.69987 0.0
O171 O 0.93791 0.76993 0.66862 0.0
C172 C 0.87954 0.73237 0.65318 0.0
C173 C 0.88026 0.79601 0.68569 0.0
C174 C 0.91353 0.7738 0.60632 0.0
O175 O 0.89569 0.73249 0.668 0.0
O176 O 0.87573 0.74934 0.64126 0.0
O177 O 0.90192 0.786 0.61972 0.0
O178 O 0.92038 0.75855 0.61992 0.0
C179 C 0.93654 0.76297 0.69278 0.0
O180 O 0.898 0.80006 0.67589 0.0
O181 O 0.87413 0.77771 0.68148 0.0
In182 In 0.23077 0.90338 0.6569 0.0
O183 O 0.1983 0.89061 0.66616 0.0
O184 O 0.22113 0.88951 0.69786 0.0
C185 C 0.2232 0.91099 0.60301 0.0
C186 C 0.2335 0.93938 0.68497 0.0
C187 C 0.26255 0.87583 0.65408 0.0
O188 O 0.21488 0.89618 0.61591 0.0
O189 O 0.23496 0.92228 0.61739 0.0
O190 O 0.26555 0.89521 0.65421 0.0
O191 O 0.24372 0.87051 0.65533 0.0
C192 C 0.20269 0.88553 0.69058 0.0
O193 O 0.24886 0.92732 0.68195 0.0
O194 O 0.217 0.93356 0.67313 0.0
In195 In 0.0971 0.23072 0.65736 0.0
O196 O 0.1106 0.19955 0.67149 0.0
O197 O 0.11726 0.22657 0.6952 0.0
C198 C 0.08719 0.22181 0.60453 0.0
C199 C 0.0618 0.2314 0.68723 0.0
C200 C 0.123 0.26331 0.65064 0.0
O201 O 0.10142 0.21242 0.61737 0.0
O202 O 0.07758 0.23519 0.61856 0.0
O203 O 0.10488 0.26541 0.66031 0.0
O204 O 0.1278 0.24495 0.64408 0.0
C205 C 0.11961 0.20722 0.69226 0.0
O206 O 0.07053 0.24784 0.67895 0.0
O207 O 0.0705 0.21476 0.67972 0.0
In208 In 0.73564 0.5957 0.66056 0.0
O209 O 0.70721 0.61673 0.66692 0.0
O210 O 0.72203 0.60417 0.70223 0.0
C211 C 0.72924 0.58647 0.60689 0.0
C212 C 0.73868 0.55917 0.68747 0.0
C213 C 0.76749 0.62316 0.65887 0.0
O214 O 0.71469 0.59216 0.6226 0.0
O215 O 0.74675 0.58497 0.6184 0.0
O216 O 0.7703 0.60391 0.66211 0.0
O217 O 0.74869 0.62851 0.65658 0.0
C218 C 0.70759 0.61536 0.69281 0.0
O219 O 0.75222 0.57332 0.68931 0.0
O220 O 0.72382 0.56317 0.67131 0.0
In221 In 0.40297 0.73564 0.66137 0.0
O222 O 0.39008 0.70296 0.67028 0.0
O223 O 0.3858 0.72646 0.70032 0.0
C224 C 0.41259 0.72936 0.60797 0.0
C225 C 0.43868 0.73996 0.69029 0.0
C226 C 0.37511 0.76664 0.65453 0.0
O227 O 0.40457 0.71539 0.62282 0.0
O228 O 0.41627 0.74627 0.62026 0.0
O229 O 0.39343 0.76983 0.6629 0.0
O230 O 0.37093 0.74787 0.64939 0.0
C231 C 0.38289 0.70779 0.69355 0.0
O232 O 0.42295 0.7513 0.69397 0.0
O233 O 0.43671 0.72666 0.67143 0.0
In234 In 0.2633 0.40323 0.66044 0.0
O235 O 0.24564 0.42892 0.6828 0.0
O236 O 0.27823 0.43273 0.67747 0.0
C237 C 0.23184 0.37585 0.65455 0.0
C238 C 0.28831 0.38114 0.69423 0.0
C239 C 0.26992 0.4138 0.60742 0.0
O240 O 0.23013 0.39221 0.66869 0.0
O241 O 0.2494 0.37331 0.64341 0.0
O242 O 0.2837 0.40514 0.62196 0.0
O243 O 0.25313 0.41765 0.61986 0.0
C244 C 0.26155 0.43989 0.68735 0.0
O245 O 0.29392 0.38645 0.67037 0.0
O246 O 0.27021 0.38682 0.70075 0.0
In247 In 0.5956 0.26374 0.65653 0.0
O248 O 0.57236 0.24646 0.68355 0.0
O249 O 0.56426 0.27689 0.67037 0.0
C250 C 0.62341 0.2325 0.65118 0.0
C251 C 0.61651 0.28994 0.68993 0.0
C252 C 0.5857 0.27108 0.60334 0.0
O253 O 0.60449 0.22931 0.6567 0.0
O254 O 0.62823 0.25137 0.64824 0.0
O255 O 0.59338 0.28487 0.61874 0.0
O256 O 0.58262 0.25382 0.61492 0.0
C257 C 0.55929 0.26108 0.68425 0.0
O258 O 0.61299 0.29409 0.66499 0.0
O259 O 0.60946 0.27266 0.69792 0.0
In260 In 0.73398 0.40006 0.8439 0.0
O261 O 0.70315 0.38291 0.83671 0.0
O262 O 0.72512 0.38373 0.80416 0.0
C263 C 0.72835 0.41181 0.89673 0.0
C264 C 0.73606 0.43632 0.81604 0.0
C265 C 0.76531 0.3723 0.84856 0.0
O266 O 0.71414 0.4034 0.88269 0.0
O267 O 0.74515 0.41479 0.88391 0.0
O268 O 0.76654 0.38826 0.83358 0.0
O269 O 0.74829 0.37033 0.8612 0.0
C270 C 0.70751 0.37774 0.81236 0.0
O271 O 0.75187 0.42535 0.82113 0.0
O272 O 0.71926 0.42937 0.82581 0.0
In273 In 0.59883 0.73428 0.84401 0.0
O274 O 0.62275 0.70792 0.84038 0.0
O275 O 0.60249 0.71323 0.80667 0.0
C276 C 0.5889 0.72851 0.89758 0.0
C277 C 0.56375 0.7403 0.81465 0.0
C278 C 0.62671 0.76585 0.84365 0.0
O279 O 0.59268 0.71349 0.88163 0.0
O280 O 0.58972 0.74614 0.88637 0.0
O281 O 0.60733 0.76894 0.84352 0.0
O282 O 0.63194 0.74697 0.84361 0.0
C283 C 0.61745 0.70288 0.81631 0.0
O284 O 0.58092 0.74859 0.80843 0.0
O285 O 0.56411 0.72927 0.83614 0.0
In286 In 0.26576 0.59749 0.8462 0.0
O287 O 0.24857 0.57601 0.81672 0.0
O288 O 0.27715 0.56523 0.83341 0.0
C289 C 0.23523 0.62626 0.85025 0.0
C290 C 0.29395 0.61709 0.81428 0.0
C291 C 0.2718 0.58703 0.89951 0.0
O292 O 0.2315 0.60715 0.84716 0.0
O293 O 0.25429 0.63083 0.8514 0.0
O294 O 0.28626 0.59391 0.88451 0.0
O295 O 0.25454 0.58506 0.88748 0.0
C296 C 0.26204 0.56175 0.8175 0.0
O297 O 0.2965 0.61484 0.83986 0.0
O298 O 0.27729 0.60947 0.80499 0.0
In299 In 0.40199 0.265 0.84419 0.0
O300 O 0.39746 0.29478 0.8192 0.0
O301 O 0.37042 0.279 0.83286 0.0
C302 C 0.40967 0.27436 0.89748 0.0
C303 C 0.43702 0.26174 0.81379 0.0
C304 C 0.38164 0.22825 0.84321 0.0
O305 O 0.39421 0.28151 0.88458 0.0
O306 O 0.42143 0.26285 0.88336 0.0
O307 O 0.38294 0.23997 0.82249 0.0
O308 O 0.39098 0.23485 0.86428 0.0
C309 C 0.37787 0.294 0.81939 0.0
O310 O 0.42366 0.24741 0.81507 0.0
O311 O 0.43297 0.27745 0.82835 0.0
In312 In 0.26649 0.40145 0.34825 0.0
O313 O 0.29603 0.38197 0.34265 0.0
O314 O 0.28091 0.39351 0.30689 0.0
C315 C 0.27345 0.41147 0.40156 0.0
C316 C 0.26342 0.43712 0.31952 0.0
C317 C 0.23497 0.37342 0.35025 0.0
O318 O 0.28552 0.3999 0.38802 0.0
O319 O 0.25817 0.41833 0.38809 0.0
O320 O 0.23181 0.39275 0.35086 0.0
O321 O 0.25384 0.36835 0.34863 0.0
C322 C 0.29573 0.38304 0.31674 0.0
O323 O 0.24982 0.42295 0.31842 0.0
O324 O 0.2784 0.43351 0.3357 0.0
In325 In 0.59706 0.26894 0.34516 0.0
O326 O 0.57024 0.25184 0.32384 0.0
O327 O 0.5718 0.28472 0.31989 0.0
C328 C 0.62231 0.23568 0.35133 0.0
C329 C 0.62027 0.29372 0.31273 0.0
C330 C 0.58681 0.27777 0.39795 0.0
O331 O 0.60461 0.23429 0.34018 0.0
O332 O 0.62706 0.25369 0.35944 0.0
O333 O 0.60159 0.28657 0.38556 0.0
O334 O 0.57674 0.26502 0.38348 0.0
C335 C 0.56251 0.26814 0.31356 0.0
O336 O 0.60914 0.30085 0.33197 0.0
O337 O 0.61969 0.27421 0.31001 0.0
In338 In 0.72984 0.59557 0.34694 0.0
O339 O 0.6969 0.60748 0.33812 0.0
O340 O 0.71963 0.6098 0.30648 0.0
C341 C 0.72308 0.58727 0.40081 0.0
C342 C 0.73378 0.55993 0.31817 0.0
C343 C 0.76112 0.62361 0.3507 0.0
O344 O 0.71325 0.60118 0.38793 0.0
O345 O 0.73591 0.57723 0.38638 0.0
O346 O 0.76438 0.60427 0.35012 0.0
O347 O 0.74222 0.6287 0.34951 0.0
C348 C 0.7011 0.61309 0.31385 0.0
O349 O 0.74786 0.5736 0.31898 0.0
O350 O 0.71791 0.56396 0.33253 0.0
In351 In 0.40192 0.73211 0.34836 0.0
O352 O 0.38138 0.72586 0.31143 0.0
O353 O 0.39083 0.69969 0.33506 0.0
C354 C 0.41111 0.72462 0.4018 0.0
C355 C 0.43694 0.73446 0.31784 0.0
C356 C 0.37529 0.76413 0.35523 0.0
O357 O 0.39742 0.71454 0.38884 0.0
O358 O 0.42057 0.73803 0.38762 0.0
O359 O 0.39413 0.7669 0.34873 0.0
O360 O 0.37013 0.74538 0.35856 0.0
C361 C 0.38069 0.70642 0.31464 0.0
O362 O 0.42453 0.74955 0.32045 0.0
O363 O 0.432 0.71841 0.33127 0.0
In364 In 0.26739 0.5937 0.15836 0.0
O365 O 0.24936 0.56836 0.18108 0.0
O366 O 0.28224 0.56549 0.17894 0.0
C367 C 0.23311 0.61748 0.1521 0.0
C368 C 0.29275 0.61745 0.18989 0.0
C369 C 0.27578 0.58438 0.10528 0.0
O370 O 0.23426 0.60326 0.16994 0.0
O371 O 0.24916 0.61959 0.13743 0.0
O372 O 0.28495 0.59872 0.11816 0.0
O373 O 0.26278 0.57428 0.11941 0.0
C374 C 0.26533 0.55814 0.1878 0.0
O375 O 0.2997 0.60429 0.17301 0.0
O376 O 0.2732 0.61874 0.19057 0.0
In377 In 0.40326 0.26814 0.15723 0.0
O378 O 0.38229 0.29631 0.16442 0.0
O379 O 0.394 0.28024 0.19941 0.0
C380 C 0.41232 0.27408 0.1034 0.0
C381 C 0.44039 0.26708 0.18302 0.0
C382 C 0.37503 0.23694 0.15709 0.0
O383 O 0.40564 0.2885 0.1186 0.0
O384 O 0.41489 0.25696 0.1155 0.0
O385 O 0.39397 0.23395 0.16274 0.0
O386 O 0.37044 0.25553 0.15163 0.0
C387 C 0.38309 0.29504 0.1903 0.0
O388 O 0.42926 0.25106 0.17993 0.0
O389 O 0.43312 0.28342 0.17231 0.0
In390 In 0.73508 0.40395 0.15586 0.0
O391 O 0.70275 0.39299 0.16963 0.0
O392 O 0.72914 0.38208 0.19163 0.0
C393 C 0.72714 0.4131 0.10257 0.0
C394 C 0.73695 0.43902 0.18629 0.0
C395 C 0.76774 0.37819 0.14855 0.0
O396 O 0.71716 0.39948 0.11576 0.0
O397 O 0.74077 0.42252 0.11644 0.0
O398 O 0.76994 0.39653 0.15741 0.0
O399 O 0.74922 0.3731 0.14314 0.0
C400 C 0.70963 0.38194 0.18906 0.0
O401 O 0.75225 0.42686 0.18367 0.0
O402 O 0.72095 0.43379 0.17295 0.0
In403 In 0.59388 0.72928 0.15755 0.0
O404 O 0.6061 0.69657 0.16682 0.0
O405 O 0.60805 0.71948 0.19826 0.0
C406 C 0.58563 0.72285 0.10359 0.0
C407 C 0.55786 0.73292 0.18569 0.0
C408 C 0.62255 0.76 0.15401 0.0
O409 O 0.59829 0.7118 0.11697 0.0
O410 O 0.57676 0.73678 0.11757 0.0
O411 O 0.60333 0.76367 0.15621 0.0
O412 O 0.6272 0.74098 0.15342 0.0
C413 C 0.61158 0.70096 0.19108 0.0
O414 O 0.57139 0.74713 0.18502 0.0
O415 O 0.5622 0.71707 0.17146 0.0
H416 H 0.33306 0.241 0.15239 0.0
H417 H 0.38168 0.19502 0.16077 0.0
H418 H 0.30701 0.21356 0.15158 0.0
H419 H 0.35564 0.16737 0.15892 0.0
H420 H 0.30127 0.12514 0.18428 0.0
H421 H 0.32811 0.15196 0.18476 0.0
H422 H 0.29394 0.18653 0.12331 0.0
H423 H 0.26679 0.16009 0.12368 0.0
C424 C 0.33818 0.22498 0.15386 0.0
C425 C 0.35939 0.22013 0.15665 0.0
C426 C 0.32326 0.20922 0.15319 0.0
C427 C 0.3292 0.1882 0.155 0.0
C428 C 0.35047 0.18338 0.15781 0.0
C429 C 0.36541 0.1992 0.15873 0.0
C430 C 0.29957 0.13846 0.17083 0.0
C431 C 0.28191 0.1406 0.15405 0.0
C432 C 0.315 0.15378 0.17098 0.0
C433 C 0.31318 0.17149 0.15417 0.0
C434 C 0.29568 0.17333 0.13693 0.0
C435 C 0.28017 0.15811 0.13699 0.0
H436 H 0.84931 0.27396 0.11042 0.0
H437 H 0.87433 0.30074 0.1848 0.0
H438 H 0.82442 0.30243 0.10701 0.0
H439 H 0.84897 0.32894 0.18194 0.0
H440 H 0.80908 0.3849 0.15921 0.0
H441 H 0.83737 0.35946 0.15718 0.0
H442 H 0.79359 0.31235 0.13113 0.0
H443 H 0.76565 0.33779 0.13244 0.0
C444 C 0.84953 0.28599 0.12599 0.0
C445 C 0.86364 0.28505 0.14799 0.0
C446 C 0.83519 0.30226 0.12414 0.0
C447 C 0.83451 0.31786 0.14437 0.0
C448 C 0.84917 0.3173 0.16585 0.0
C449 C 0.86363 0.30108 0.1676 0.0
C450 C 0.80561 0.36915 0.15279 0.0
C451 C 0.78517 0.36332 0.14599 0.0
C452 C 0.82177 0.35455 0.15179 0.0
C453 C 0.81777 0.33385 0.14398 0.0
C454 C 0.79734 0.32821 0.13677 0.0
C455 C 0.78126 0.34278 0.1377 0.0
H456 H 0.61646 0.80199 0.15 0.0
H457 H 0.66462 0.75529 0.15549 0.0
H458 H 0.64299 0.82918 0.14865 0.0
H459 H 0.69107 0.78235 0.15513 0.0
H460 H 0.73469 0.8337 0.12884 0.0
H461 H 0.70736 0.80747 0.1265 0.0
H462 H 0.66796 0.84592 0.17757 0.0
H463 H 0.69505 0.87243 0.17904 0.0
C464 C 0.63272 0.79756 0.151 0.0
C465 C 0.63848 0.77654 0.15282 0.0
C466 C 0.64792 0.81313 0.1504 0.0
C467 C 0.6692 0.80799 0.15179 0.0
C468 C 0.67488 0.7869 0.15353 0.0
C469 C 0.6597 0.77136 0.15393 0.0
C470 C 0.72014 0.83656 0.13945 0.0
C471 C 0.71701 0.85507 0.15418 0.0
C472 C 0.70451 0.82148 0.13825 0.0
C473 C 0.68546 0.82449 0.15197 0.0
C474 C 0.68229 0.84317 0.16645 0.0
C475 C 0.69788 0.85832 0.16745 0.0
H476 H 0.19983 0.62072 0.18679 0.0
H477 H 0.22548 0.6458 0.11177 0.0
H478 H 0.17174 0.64624 0.18497 0.0
H479 H 0.19705 0.6708 0.10933 0.0
H480 H 0.16248 0.72958 0.13536 0.0
H481 H 0.18767 0.70152 0.13333 0.0
H482 H 0.14088 0.65828 0.16186 0.0
H483 H 0.1157 0.68678 0.16477 0.0
C484 C 0.19925 0.63148 0.16967 0.0
C485 C 0.21495 0.63144 0.14959 0.0
C486 C 0.18308 0.64603 0.16852 0.0
C487 C 0.18222 0.66073 0.14713 0.0
C488 C 0.19747 0.66001 0.12641 0.0
C489 C 0.21371 0.64561 0.12771 0.0
C490 C 0.15749 0.71407 0.14102 0.0
C491 C 0.13713 0.71038 0.15029 0.0
C492 C 0.17192 0.6979 0.13967 0.0
C493 C 0.16632 0.67757 0.14733 0.0
C494 C 0.14578 0.6738 0.15611 0.0
C495 C 0.13133 0.69007 0.15763 0.0
H496 H 0.26654 0.84194 0.38499 0.0
H497 H 0.30307 0.87576 0.32544 0.0
H498 H 0.29406 0.81603 0.38884 0.0
H499 H 0.33029 0.8494 0.32832 0.0
H500 H 0.38269 0.80606 0.35355 0.0
H501 H 0.35702 0.8341 0.3555 0.0
H502 H 0.30779 0.78853 0.36246 0.0
H503 H 0.33342 0.76079 0.36162 0.0
C504 C 0.28047 0.8438 0.37269 0.0
C505 C 0.28263 0.86078 0.3548 0.0
C506 C 0.29621 0.82889 0.37475 0.0
C507 C 0.31436 0.83047 0.35869 0.0
C508 C 0.31668 0.84778 0.34126 0.0
C509 C 0.30102 0.86283 0.33945 0.0
C510 C 0.36638 0.80213 0.35575 0.0
C511 C 0.36006 0.78126 0.35746 0.0
C512 C 0.35165 0.81816 0.35668 0.0
C513 C 0.33028 0.81362 0.35913 0.0
C514 C 0.32409 0.79269 0.3611 0.0
C515 C 0.3388 0.77673 0.36042 0.0
H516 H 0.23866 0.33153 0.34469 0.0
H517 H 0.1933 0.38011 0.35799 0.0
H518 H 0.21115 0.30558 0.3458 0.0
H519 H 0.16568 0.354 0.35995 0.0
H520 H 0.12027 0.30302 0.33028 0.0
H521 H 0.14699 0.32999 0.33096 0.0
H522 H 0.18756 0.28906 0.37681 0.0
H523 H 0.1611 0.26194 0.37532 0.0
C524 C 0.22279 0.33664 0.34806 0.0
C525 C 0.21812 0.35784 0.35125 0.0
C526 C 0.20702 0.32174 0.3489 0.0
C527 C 0.18619 0.32767 0.35314 0.0
C528 C 0.18152 0.34892 0.35636 0.0
C529 C 0.19733 0.36387 0.35537 0.0
C530 C 0.13488 0.29986 0.3406 0.0
C531 C 0.13867 0.28035 0.35259 0.0
C532 C 0.15015 0.31535 0.34113 0.0
C533 C 0.16949 0.31166 0.3538 0.0
C534 C 0.17301 0.29229 0.36641 0.0
C535 C 0.1578 0.27678 0.36571 0.0
H536 H 0.6948 0.12464 0.31893 0.0
H537 H 0.72498 0.15194 0.38952 0.0
H538 H 0.66811 0.15156 0.32054 0.0
H539 H 0.69784 0.17835 0.392 0.0
H540 H 0.66304 0.23694 0.36627 0.0
H541 H 0.68774 0.20837 0.36782 0.0
H542 H 0.639 0.16557 0.34411 0.0
H543 H 0.61443 0.19453 0.34145 0.0
C544 C 0.69551 0.13622 0.33508 0.0
C545 C 0.71204 0.13632 0.35396 0.0
C546 C 0.68014 0.1516 0.33613 0.0
C547 C 0.68085 0.16728 0.35629 0.0
C548 C 0.69702 0.16682 0.3758 0.0
C549 C 0.71252 0.15161 0.37453 0.0
C550 C 0.65757 0.22141 0.36152 0.0
C551 C 0.63683 0.21796 0.35367 0.0
C552 C 0.67171 0.20496 0.3626 0.0
C553 C 0.66541 0.18458 0.35618 0.0
C554 C 0.6445 0.18109 0.3488 0.0
C555 C 0.63038 0.19764 0.34744 0.0
H556 H 0.80263 0.61677 0.35932 0.0
H557 H 0.75765 0.66556 0.34524 0.0
H558 H 0.83039 0.64268 0.36148 0.0
H559 H 0.78533 0.69134 0.34636 0.0
H560 H 0.83583 0.73502 0.37463 0.0
H561 H 0.80893 0.70835 0.37628 0.0
H562 H 0.84961 0.66595 0.33297 0.0
H563 H 0.87676 0.69244 0.33232 0.0
C564 C 0.79871 0.63303 0.35658 0.0
C565 C 0.778 0.63916 0.35216 0.0
C566 C 0.81461 0.64788 0.35765 0.0
C567 C 0.81013 0.66914 0.35412 0.0
C568 C 0.78934 0.67518 0.34969 0.0
C569 C 0.77347 0.66038 0.34885 0.0
C570 C 0.83904 0.71995 0.36561 0.0
C571 C 0.85835 0.71582 0.35328 0.0
C572 C 0.82358 0.70469 0.36639 0.0
C573 C 0.82701 0.685 0.35458 0.0
C574 C 0.8465 0.68081 0.34258 0.0
C575 C 0.86203 0.69604 0.34204 0.0
H576 H 0.69783 0.88076 0.82755 0.0
H577 H 0.73622 0.84031 0.87709 0.0
H578 H 0.67089 0.85402 0.82578 0.0
H579 H 0.70911 0.81384 0.87607 0.0
H580 H 0.66884 0.76239 0.84071 0.0
H581 H 0.69458 0.79007 0.84341 0.0
H582 H 0.6453 0.83536 0.85251 0.0
H583 H 0.61947 0.80758 0.849 0.0
C584 C 0.70038 0.86625 0.83836 0.0
C585 C 0.71916 0.86255 0.85231 0.0
C586 C 0.68491 0.85096 0.83745 0.0
C587 C 0.6879 0.8317 0.85058 0.0
C588 C 0.70647 0.82832 0.86523 0.0
C589 C 0.72196 0.84354 0.866 0.0
C590 C 0.6635 0.77827 0.8432 0.0
C591 C 0.64215 0.78283 0.84465 0.0
C592 C 0.67826 0.79413 0.84498 0.0
C593 C 0.67203 0.81494 0.84841 0.0
C594 C 0.65063 0.81952 0.84962 0.0
C595 C 0.63583 0.80362 0.84772 0.0
H596 H 0.1211 0.69772 0.83216 0.0
H597 H 0.16216 0.73838 0.87739 0.0
H598 H 0.14775 0.6707 0.83231 0.0
H599 H 0.18849 0.71115 0.87868 0.0
H600 H 0.23964 0.6683 0.8477 0.0
H601 H 0.21239 0.69456 0.84927 0.0
H602 H 0.16615 0.64628 0.85943 0.0
H603 H 0.19347 0.61997 0.85665 0.0
C604 C 0.13573 0.70075 0.84247 0.0
C605 C 0.13962 0.72017 0.85462 0.0
C606 C 0.15099 0.68523 0.84271 0.0
C607 C 0.17038 0.68873 0.85538 0.0
C608 C 0.17395 0.70802 0.8682 0.0
C609 C 0.1588 0.7236 0.86766 0.0
C610 C 0.22365 0.66332 0.85031 0.0
C611 C 0.21866 0.64211 0.85201 0.0
C612 C 0.20801 0.67838 0.85141 0.0
C613 C 0.18701 0.6726 0.85459 0.0
C614 C 0.18209 0.65132 0.85656 0.0
C615 C 0.19774 0.63623 0.85513 0.0
H616 H 0.37477 0.20184 0.88616 0.0
H617 H 0.35936 0.21178 0.80077 0.0
H618 H 0.35068 0.17249 0.88776 0.0
H619 H 0.33505 0.18269 0.80246 0.0
H620 H 0.30197 0.12078 0.80896 0.0
H621 H 0.33136 0.14494 0.80777 0.0
H622 H 0.31279 0.16955 0.88667 0.0
H623 H 0.28373 0.14528 0.88801 0.0
C624 C 0.3664 0.19761 0.86767 0.0
C625 C 0.36883 0.20918 0.84339 0.0
C626 C 0.35253 0.18088 0.86862 0.0
C627 C 0.34084 0.17536 0.8453 0.0
C628 C 0.34396 0.18641 0.82071 0.0
C629 C 0.3578 0.20315 0.81978 0.0
C630 C 0.30436 0.13118 0.82618 0.0
C631 C 0.29052 0.13123 0.84852 0.0
C632 C 0.32111 0.14507 0.82544 0.0
C633 C 0.32437 0.15921 0.84708 0.0
C634 C 0.31089 0.1587 0.86982 0.0
C635 C 0.29414 0.14488 0.87052 0.0
H636 H 0.83572 0.25826 0.865 0.0
H637 H 0.88261 0.30361 0.84379 0.0
H638 H 0.8093 0.28535 0.86485 0.0
H639 H 0.85632 0.33101 0.84476 0.0
H640 H 0.80015 0.36952 0.8168 0.0
H641 H 0.82749 0.34331 0.81909 0.0
H642 H 0.7966 0.31477 0.88846 0.0
H643 H 0.76884 0.34051 0.88529 0.0
C644 C 0.84042 0.27411 0.86068 0.0
C645 C 0.8612 0.27883 0.85434 0.0
C646 C 0.82528 0.28969 0.86076 0.0
C647 C 0.83062 0.31043 0.8548 0.0
C648 C 0.85156 0.31518 0.84899 0.0
C649 C 0.86667 0.29952 0.84862 0.0
C650 C 0.79926 0.35766 0.83255 0.0
C651 C 0.78233 0.35696 0.85076 0.0
C652 C 0.81501 0.3427 0.83402 0.0
C653 C 0.81429 0.32685 0.85394 0.0
C654 C 0.7975 0.32649 0.87252 0.0
C655 C 0.78163 0.34131 0.87083 0.0
H656 H 0.66533 0.23622 0.64492 0.0
H657 H 0.61631 0.19059 0.65239 0.0
H658 H 0.69106 0.20851 0.64272 0.0
H659 H 0.64204 0.16271 0.64929 0.0
H660 H 0.69692 0.1209 0.67669 0.0
H661 H 0.66956 0.14723 0.67575 0.0
H662 H 0.70376 0.18133 0.61393 0.0
H663 H 0.73136 0.15539 0.61561 0.0
C664 C 0.66004 0.22023 0.6458 0.0
C665 C 0.63883 0.21556 0.64887 0.0
C666 C 0.67478 0.20432 0.64434 0.0
C667 C 0.66864 0.18334 0.64571 0.0
C668 C 0.64734 0.17868 0.64851 0.0
C669 C 0.63259 0.19464 0.65013 0.0
C670 C 0.69846 0.13394 0.66274 0.0
C671 C 0.71632 0.13619 0.64638 0.0
C672 C 0.68275 0.14899 0.6621 0.0
C673 C 0.68452 0.16651 0.64493 0.0
C674 C 0.70208 0.16828 0.62782 0.0
C675 C 0.71784 0.15334 0.62863 0.0
H676 H 0.80934 0.61528 0.66076 0.0
H677 H 0.76459 0.66519 0.65399 0.0
H678 H 0.83776 0.6405 0.65762 0.0
H679 H 0.79282 0.69033 0.65146 0.0
H680 H 0.84593 0.72843 0.61975 0.0
H681 H 0.81985 0.70101 0.61999 0.0
H682 H 0.85393 0.66888 0.68372 0.0
H683 H 0.8804 0.69624 0.68301 0.0
C684 C 0.80559 0.63164 0.65871 0.0
C685 C 0.78476 0.63828 0.65753 0.0
C686 C 0.82185 0.64607 0.65703 0.0
C687 C 0.81756 0.66741 0.65409 0.0
C688 C 0.79668 0.67398 0.65316 0.0
C689 C 0.78048 0.65959 0.65481 0.0
C690 C 0.84799 0.7154 0.63361 0.0
C691 C 0.86512 0.71454 0.65151 0.0
C692 C 0.83296 0.69976 0.63389 0.0
C693 C 0.83463 0.68292 0.65217 0.0
C694 C 0.85223 0.68161 0.66931 0.0
C695 C 0.86736 0.69728 0.66896 0.0
H696 H 0.25934 0.83397 0.66011 0.0
H697 H 0.30408 0.88284 0.64537 0.0
H698 H 0.28705 0.80827 0.65888 0.0
H699 H 0.33192 0.85695 0.64312 0.0
H700 H 0.37817 0.80668 0.67274 0.0
H701 H 0.35135 0.83354 0.67153 0.0
H702 H 0.31033 0.79136 0.62844 0.0
H703 H 0.33686 0.76435 0.63064 0.0
C704 C 0.27512 0.8392 0.65635 0.0
C705 C 0.27956 0.86041 0.65284 0.0
C706 C 0.29101 0.82443 0.65542 0.0
C707 C 0.31174 0.83048 0.6507 0.0
C708 C 0.31617 0.85176 0.64709 0.0
C709 C 0.30024 0.86659 0.64824 0.0
C710 C 0.36344 0.80323 0.66289 0.0
C711 C 0.35952 0.78339 0.65198 0.0
C712 C 0.34811 0.81865 0.66205 0.0
C713 C 0.32859 0.8146 0.65007 0.0
C714 C 0.32499 0.7949 0.63836 0.0
C715 C 0.34024 0.77945 0.63945 0.0
H716 H 0.1643 0.26072 0.63924 0.0
H717 H 0.1156 0.30488 0.65769 0.0
H718 H 0.18974 0.28863 0.63882 0.0
H719 H 0.14097 0.33316 0.6561 0.0
H720 H 0.1961 0.3735 0.6846 0.0
H721 H 0.16908 0.34696 0.68189 0.0
H722 H 0.20185 0.31779 0.6145 0.0
H723 H 0.22926 0.34381 0.61816 0.0
C724 C 0.15898 0.27649 0.64279 0.0
C725 C 0.13798 0.28063 0.64857 0.0
C726 C 0.17356 0.29255 0.64237 0.0
C727 C 0.16746 0.31322 0.64738 0.0
C728 C 0.1463 0.3174 0.65257 0.0
C729 C 0.13172 0.30124 0.6533 0.0
C730 C 0.19744 0.36144 0.66916 0.0
C731 C 0.21484 0.36058 0.65175 0.0
C732 C 0.18188 0.3463 0.66745 0.0
C733 C 0.18329 0.33012 0.64806 0.0
C734 C 0.20045 0.32973 0.63008 0.0
C735 C 0.21611 0.34471 0.63204 0.0
H736 H 0.25768 0.07254 0.06853 0.0
H737 H 0.19318 0.09117 0.07341 0.0
H738 H 0.2548 0.06994 0.01875 0.0
H739 H 0.1901 0.08805 0.02358 0.0
H740 H 0.24156 0.05514 0.93035 0.0
H741 H 0.23986 0.05168 0.98027 0.0
H742 H 0.20246 0.10748 0.98462 0.0
H743 H 0.20374 0.11059 0.93482 0.0
C744 C 0.24278 0.07572 0.05899 0.0
C745 C 0.22571 0.08222 0.07485 0.0
C746 C 0.24107 0.0741 0.03044 0.0
C747 C 0.22224 0.07889 0.01709 0.0
C748 C 0.20492 0.08457 0.03314 0.0
C749 C 0.20665 0.08624 0.0617 0.0
C750 C 0.2327 0.06645 0.94197 0.0
C751 C 0.22288 0.0832 0.92869 0.0
C752 C 0.23184 0.06456 0.97059 0.0
C753 C 0.22117 0.07939 0.98653 0.0
C754 C 0.21062 0.09563 0.97304 0.0
C755 C 0.21144 0.09749 0.94446 0.0
H756 H 0.90551 0.18933 0.93234 0.0
H757 H 0.93059 0.25155 0.93653 0.0
H758 H 0.90792 0.18643 0.98224 0.0
H759 H 0.93221 0.24909 0.98632 0.0
H760 H 0.94334 0.23692 0.07552 0.0
H761 H 0.94763 0.23424 0.0258 0.0
H762 H 0.88989 0.19988 0.02061 0.0
H763 H 0.88616 0.20186 0.07022 0.0
C764 C 0.91166 0.20233 0.94394 0.0
C765 C 0.91775 0.2207 0.93057 0.0
C766 C 0.91292 0.20075 0.97256 0.0
C767 C 0.92007 0.21759 0.98845 0.0
C768 C 0.92689 0.23567 0.97485 0.0
C769 C 0.92583 0.23716 0.94625 0.0
C770 C 0.93177 0.22853 0.06373 0.0
C771 C 0.91437 0.2197 0.07672 0.0
C772 C 0.93413 0.2271 0.03521 0.0
C773 C 0.91902 0.217 0.01904 0.0
C774 C 0.90201 0.20753 0.0323 0.0
C775 C 0.89978 0.20878 0.0608 0.0
H776 H 0.75545 0.94166 0.93364 0.0
H777 H 0.79885 0.89041 0.93644 0.0
H778 H 0.75614 0.94385 0.98367 0.0
H779 H 0.79902 0.89205 0.98643 0.0
H780 H 0.80553 0.90696 0.07637 0.0
H781 H 0.80876 0.91077 0.02664 0.0
H782 H 0.74294 0.92426 0.02121 0.0
H783 H 0.73996 0.92115 0.07087 0.0
C784 C 0.76524 0.93095 0.94496 0.0
C785 C 0.77702 0.91581 0.93113 0.0
C786 C 0.76553 0.93209 0.97366 0.0
C787 C 0.77748 0.918 0.9892 0.0
C788 C 0.78983 0.90333 0.97522 0.0
C789 C 0.78965 0.9023 0.94652 0.0
C790 C 0.79183 0.911 0.06453 0.0
C791 C 0.77248 0.91369 0.0775 0.0
C792 C 0.79364 0.91305 0.036 0.0
C793 C 0.77609 0.9177 0.01979 0.0
C794 C 0.75686 0.92097 0.03298 0.0
C795 C 0.7551 0.91905 0.06148 0.0
H796 H 0.05811 0.75618 0.93297 0.0
H797 H 0.11086 0.79765 0.93726 0.0
H798 H 0.05508 0.75703 0.9829 0.0
H799 H 0.1085 0.79784 0.98716 0.0
H800 H 0.09331 0.80417 0.07704 0.0
H801 H 0.09029 0.80794 0.02724 0.0
H802 H 0.07304 0.74311 0.02078 0.0
H803 H 0.07524 0.73969 0.07036 0.0
C804 C 0.069 0.76555 0.94461 0.0
C805 C 0.08478 0.77675 0.93123 0.0
C806 C 0.06738 0.76593 0.97326 0.0
C807 C 0.08168 0.77732 0.98923 0.0
C808 C 0.09702 0.7891 0.97566 0.0
C809 C 0.09848 0.7889 0.947 0.0
C810 C 0.0886 0.79084 0.06493 0.0
C811 C 0.08456 0.77164 0.07759 0.0
C812 C 0.087 0.79294 0.03636 0.0
C813 C 0.08151 0.77581 0.01983 0.0
C814 C 0.07696 0.75676 0.03273 0.0
C815 C 0.07837 0.75474 0.06123 0.0
H816 H 0.25412 0.92924 0.43293 0.0
H817 H 0.19236 0.90298 0.42825 0.0
H818 H 0.25131 0.93093 0.48274 0.0
H819 H 0.18914 0.90538 0.47809 0.0
H820 H 0.20375 0.88512 0.56685 0.0
H821 H 0.20276 0.88789 0.51702 0.0
H822 H 0.23549 0.94656 0.52162 0.0
H823 H 0.23713 0.9433 0.57153 0.0
C824 C 0.23976 0.92422 0.44254 0.0
C825 C 0.22352 0.91584 0.42672 0.0
C826 C 0.23808 0.92529 0.47114 0.0
C827 C 0.22003 0.91817 0.48457 0.0
C828 C 0.20343 0.91063 0.46854 0.0
C829 C 0.20519 0.90939 0.43994 0.0
C830 C 0.21054 0.89871 0.55722 0.0
C831 C 0.22064 0.91391 0.57307 0.0
C832 C 0.20987 0.90039 0.52861 0.0
C833 C 0.21913 0.91742 0.51516 0.0
C834 C 0.22853 0.93304 0.5312 0.0
C835 C 0.22935 0.93126 0.55982 0.0
H836 H 0.05607 0.23863 0.57351 0.0
H837 H 0.11011 0.19886 0.56834 0.0
H838 H 0.05233 0.23734 0.52367 0.0
H839 H 0.10684 0.19808 0.51848 0.0
H840 H 0.09006 0.19063 0.42929 0.0
H841 H 0.08744 0.18705 0.47912 0.0
H842 H 0.07039 0.25192 0.48548 0.0
H843 H 0.07238 0.25526 0.43577 0.0
C844 C 0.06704 0.22946 0.56172 0.0
C845 C 0.08346 0.21895 0.5748 0.0
C846 C 0.06499 0.22883 0.53313 0.0
C847 C 0.07941 0.2178 0.51696 0.0
C848 C 0.09531 0.20656 0.53023 0.0
C849 C 0.09726 0.20708 0.55884 0.0
C850 C 0.08547 0.20403 0.44136 0.0
C851 C 0.0815 0.22325 0.42865 0.0
C852 C 0.0841 0.20202 0.46993 0.0
C853 C 0.07882 0.21922 0.48641 0.0
C854 C 0.0742 0.23825 0.47349 0.0
C855 C 0.07547 0.24022 0.44496 0.0
H856 H 0.75709 0.05505 0.57266 0.0
H857 H 0.79628 0.1094 0.56661 0.0
H858 H 0.75806 0.05115 0.52279 0.0
H859 H 0.79655 0.10616 0.51689 0.0
H860 H 0.80383 0.09079 0.42811 0.0
H861 H 0.80763 0.0878 0.4778 0.0
H862 H 0.74357 0.06763 0.48396 0.0
H863 H 0.74019 0.06973 0.43424 0.0
C864 C 0.76601 0.06608 0.56066 0.0
C865 C 0.77654 0.08257 0.57351 0.0
C866 C 0.76645 0.06396 0.53205 0.0
C867 C 0.77723 0.07843 0.51565 0.0
C868 C 0.78833 0.09451 0.52873 0.0
C869 C 0.78808 0.09647 0.55731 0.0
C870 C 0.79068 0.08542 0.4401 0.0
C871 C 0.77169 0.0806 0.42734 0.0
C872 C 0.79279 0.08385 0.46862 0.0
C873 C 0.77585 0.07769 0.48507 0.0
C874 C 0.75707 0.07215 0.47206 0.0
C875 C 0.75506 0.07348 0.44351 0.0
H876 H 0.94096 0.75202 0.57471 0.0
H877 H 0.89411 0.80008 0.57039 0.0
H878 H 0.94416 0.75248 0.52482 0.0
H879 H 0.89668 0.80005 0.52041 0.0
H880 H 0.91347 0.80404 0.43042 0.0
H881 H 0.91669 0.80749 0.48025 0.0
H882 H 0.92382 0.74083 0.48724 0.0
H883 H 0.92132 0.73755 0.43761 0.0
C884 C 0.93145 0.7628 0.56308 0.0
C885 C 0.9172 0.77593 0.57644 0.0
C886 C 0.93316 0.76297 0.53445 0.0
C887 C 0.92049 0.7761 0.51846 0.0
C888 C 0.90685 0.78987 0.53199 0.0
C889 C 0.90529 0.78983 0.56067 0.0
C890 C 0.91601 0.79018 0.44264 0.0
C891 C 0.91711 0.77052 0.43011 0.0
C892 C 0.91771 0.79213 0.47121 0.0
C893 C 0.92045 0.77444 0.48789 0.0
C894 C 0.92207 0.75486 0.47514 0.0
C895 C 0.9205 0.75294 0.44663 0.0
H896 H 0.75893 0.57601 0.56948 0.0
H897 H 0.69339 0.58997 0.57675 0.0
H898 H 0.75541 0.57396 0.51982 0.0
H899 H 0.68969 0.58739 0.52686 0.0
H900 H 0.69995 0.61003 0.43704 0.0
H901 H 0.69981 0.60737 0.48702 0.0
H902 H 0.74119 0.55447 0.48226 0.0
H903 H 0.74175 0.55753 0.43232 0.0
C904 C 0.74368 0.57831 0.56047 0.0
C905 C 0.72646 0.58324 0.57702 0.0
C906 C 0.74162 0.57701 0.53196 0.0
C907 C 0.72226 0.58053 0.51926 0.0
C908 C 0.70488 0.58486 0.53593 0.0
C909 C 0.70696 0.5862 0.56451 0.0
C910 C 0.70881 0.59769 0.44668 0.0
C911 C 0.721 0.58411 0.43078 0.0
C912 C 0.70865 0.59608 0.47534 0.0
C913 C 0.72062 0.5808 0.48873 0.0
C914 C 0.73209 0.56666 0.47267 0.0
C915 C 0.73232 0.56833 0.44404 0.0
H916 H 0.44144 0.74251 0.4332 0.0
H917 H 0.38816 0.70174 0.43801 0.0
H918 H 0.4448 0.74156 0.48311 0.0
H919 H 0.39099 0.70134 0.4879 0.0
H920 H 0.40747 0.69411 0.57726 0.0
H921 H 0.41006 0.69069 0.52741 0.0
H922 H 0.42679 0.75566 0.52139 0.0
H923 H 0.4249 0.7588 0.57112 0.0
C924 C 0.43053 0.73323 0.44494 0.0
C925 C 0.41448 0.72228 0.43171 0.0
C926 C 0.43235 0.7328 0.47357 0.0
C927 C 0.41805 0.72155 0.48966 0.0
C928 C 0.40245 0.70998 0.47625 0.0
C929 C 0.40074 0.71029 0.44761 0.0
C930 C 0.41197 0.70756 0.56526 0.0
C931 C 0.41592 0.72674 0.57809 0.0
C932 C 0.41332 0.70566 0.53667 0.0
C933 C 0.41852 0.72292 0.52025 0.0
C934 C 0.42305 0.74193 0.53328 0.0
C935 C 0.42184 0.74379 0.56185 0.0
H936 H 0.2538 0.44069 0.43277 0.0
H937 H 0.2985 0.39068 0.4375 0.0
H938 H 0.25523 0.44475 0.48252 0.0
H939 H 0.29925 0.39394 0.48733 0.0
H940 H 0.30538 0.41017 0.57664 0.0
H941 H 0.30857 0.41296 0.52678 0.0
H942 H 0.24284 0.427 0.52115 0.0
H943 H 0.24 0.42514 0.57082 0.0
C944 C 0.264 0.43062 0.44449 0.0
C945 C 0.27594 0.41529 0.43131 0.0
C946 C 0.26472 0.43282 0.47304 0.0
C947 C 0.27715 0.41951 0.48914 0.0
C948 C 0.28968 0.40467 0.47572 0.0
C949 C 0.28918 0.40269 0.44712 0.0
C950 C 0.29173 0.41417 0.56469 0.0
C951 C 0.27244 0.41739 0.5776 0.0
C952 C 0.29349 0.41561 0.53609 0.0
C953 C 0.27594 0.42007 0.51975 0.0
C954 C 0.2568 0.42388 0.53291 0.0
C955 C 0.25511 0.42268 0.56147 0.0
H956 H 0.57265 0.24248 0.56584 0.0
H957 H 0.59076 0.30689 0.57375 0.0
H958 H 0.5702 0.24658 0.51628 0.0
H959 H 0.58771 0.31123 0.52405 0.0
H960 H 0.60997 0.30015 0.43442 0.0
H961 H 0.60685 0.30046 0.48427 0.0
H962 H 0.55188 0.26192 0.47866 0.0
H963 H 0.55545 0.2611 0.42876 0.0
C964 C 0.57575 0.25764 0.55701 0.0
C965 C 0.58204 0.27433 0.57366 0.0
C966 C 0.57421 0.26004 0.52856 0.0
C967 C 0.57881 0.27924 0.51608 0.0
C968 C 0.58435 0.29615 0.53291 0.0
C969 C 0.58598 0.29371 0.5614 0.0
C970 C 0.59704 0.292 0.44382 0.0
C971 C 0.58306 0.28045 0.42771 0.0
C972 C 0.59518 0.29226 0.47243 0.0
C973 C 0.57921 0.28106 0.48557 0.0
C974 C 0.5646 0.27039 0.46928 0.0
C975 C 0.56654 0.27003 0.44066 0.0
H976 H 0.75855 0.42458 0.93223 0.0
H977 H 0.69337 0.40839 0.92841 0.0
H978 H 0.75623 0.42752 0.98194 0.0
H979 H 0.69078 0.41206 0.97821 0.0
H980 H 0.70314 0.3905 0.06735 0.0
H981 H 0.70182 0.39309 0.01751 0.0
H982 H 0.74321 0.44608 0.02045 0.0
H983 H 0.74508 0.44292 0.07036 0.0
C984 C 0.7436 0.42205 0.94199 0.0
C985 C 0.72618 0.4161 0.92644 0.0
C986 C 0.74223 0.42387 0.97054 0.0
C987 C 0.72333 0.41992 0.98422 0.0
C988 C 0.70567 0.41484 0.96845 0.0
C989 C 0.7071 0.41288 0.93989 0.0
C990 C 0.71176 0.40286 0.05737 0.0
C991 C 0.72435 0.4164 0.07274 0.0
C992 C 0.71091 0.40444 0.02875 0.0
C993 C 0.72251 0.41973 0.01483 0.0
C994 C 0.73438 0.43387 0.03041 0.0
C995 C 0.73535 0.43217 0.05903 0.0
H996 H 0.55823 0.74395 0.07107 0.0
H997 H 0.60666 0.69741 0.06824 0.0
H998 H 0.55597 0.7434 0.02105 0.0
H999 H 0.60486 0.69724 0.01818 0.0
H1000 H 0.5885 0.69245 0.92768 0.0
H1001 H 0.58472 0.68901 0.97751 0.0
H1002 H 0.57764 0.75566 0.98437 0.0
H1003 H 0.58091 0.75898 0.93484 0.0
C1004 C 0.56828 0.73348 0.05975 0.0
C1005 C 0.58273 0.72084 0.07356 0.0
C1006 C 0.56709 0.73325 0.03108 0.0
C1007 C 0.58039 0.72044 0.01553 0.0
C1008 C 0.59423 0.70715 0.02946 0.0
C1009 C 0.59536 0.70732 0.05817 0.0
C1010 C 0.58588 0.7063 0.93987 0.0
C1011 C 0.58505 0.72598 0.92737 0.0
C1012 C 0.58384 0.70436 0.96842 0.0
C1013 C 0.5809 0.72206 0.98501 0.0
C1014 C 0.57955 0.74165 0.97228 0.0
C1015 C 0.58158 0.74358 0.94384 0.0
H1016 H 0.29952 0.6072 0.06998 0.0
H1017 H 0.25778 0.55461 0.073 0.0
H1018 H 0.30026 0.60505 0.02006 0.0
H1019 H 0.25899 0.552 0.02299 0.0
H1020 H 0.24195 0.57509 0.93594 0.0
H1021 H 0.24512 0.57174 0.98553 0.0
H1022 H 0.31074 0.58603 0.97998 0.0
H1023 H 0.30736 0.58998 0.93025 0.0
C1024 C 0.29083 0.5949 0.05998 0.0
C1025 C 0.27845 0.58118 0.07539 0.0
C1026 C 0.29134 0.59359 0.03133 0.0
C1027 C 0.27955 0.57845 0.01741 0.0
C1028 C 0.26795 0.56409 0.03298 0.0
C1029 C 0.26737 0.56548 0.06166 0.0
C1030 C 0.25711 0.5773 0.94527 0.0
C1031 C 0.27438 0.58294 0.92922 0.0
C1032 C 0.25897 0.57524 0.97373 0.0
C1033 C 0.27818 0.57866 0.98685 0.0
C1034 C 0.29564 0.58358 0.97062 0.0
C1035 C 0.29375 0.58573 0.94211 0.0
H1036 H 0.38448 0.29545 0.93307 0.0
H1037 H 0.44187 0.26055 0.92916 0.0
H1038 H 0.38762 0.29741 0.98295 0.0
H1039 H 0.44529 0.26291 0.97898 0.0
H1040 H 0.42597 0.2448 0.06728 0.0
H1041 H 0.4275 0.24725 0.01745 0.0
H1042 H 0.40706 0.31122 0.02176 0.0
H1043 H 0.40513 0.30858 0.07183 0.0
C1044 C 0.39796 0.28852 0.94284 0.0
C1045 C 0.41283 0.27769 0.92724 0.0
C1046 C 0.39983 0.28974 0.97143 0.0
C1047 C 0.41664 0.28018 0.98501 0.0
C1048 C 0.43197 0.27013 0.96922 0.0
C1049 C 0.43008 0.26888 0.94066 0.0
C1050 C 0.42203 0.25947 0.05763 0.0
C1051 C 0.41534 0.27646 0.07345 0.0
C1052 C 0.42303 0.26092 0.02904 0.0
C1053 C 0.41736 0.27943 0.01556 0.0
C1054 C 0.41129 0.29666 0.03148 0.0
C1055 C 0.41031 0.2952 0.06015 0.0
H1056 H 0.26904 0.04556 0.21415 0.0
H1057 H 0.2047 0.0326 0.19481 0.0
H1058 H 0.26943 0.01649 0.24627 0.0
H1059 H 0.20523 0.00312 0.22637 0.0
H1060 H 0.20603 0.96768 0.30731 0.0
H1061 H 0.20645 0.99677 0.27516 0.0
H1062 H 0.2683 0.9792 0.24895 0.0
H1063 H 0.26807 0.95049 0.28167 0.0
C1064 C 0.25506 0.0363 0.21648 0.0
C1065 C 0.23683 0.04136 0.20202 0.0
C1066 C 0.2553 0.0196 0.23484 0.0
C1067 C 0.23732 0.00754 0.23905 0.0
C1068 C 0.21923 0.01232 0.22401 0.0
C1069 C 0.21898 0.02908 0.20574 0.0
C1070 C 0.21977 0.97016 0.29483 0.0
C1071 C 0.23702 0.95685 0.29702 0.0
C1072 C 0.21995 0.9867 0.27622 0.0
C1073 C 0.23735 0.99023 0.2593 0.0
C1074 C 0.25473 0.97707 0.26185 0.0
C1075 C 0.25458 0.96058 0.28055 0.0
H1076 H 0.95123 0.26777 0.2168 0.0
H1077 H 0.96176 0.20228 0.20273 0.0
H1078 H 0.9801 0.26841 0.24935 0.0
H1079 H 0.99102 0.203 0.2346 0.0
H1080 H 0.02802 0.20574 0.3138 0.0
H1081 H 0.99814 0.20606 0.28285 0.0
H1082 H 0.0173 0.26607 0.2518 0.0
H1083 H 0.04676 0.26599 0.28333 0.0
C1084 C 0.95987 0.25356 0.22045 0.0
C1085 C 0.95425 0.23497 0.20725 0.0
C1086 C 0.97646 0.25393 0.23904 0.0
C1087 C 0.98783 0.23573 0.24473 0.0
C1088 C 0.98236 0.21721 0.23113 0.0
C1089 C 0.96571 0.21683 0.21267 0.0
C1090 C 0.02571 0.21907 0.30054 0.0
C1091 C 0.03971 0.23583 0.30097 0.0
C1092 C 0.0087 0.21919 0.28262 0.0
C1093 C 0.0054 0.23602 0.26465 0.0
C1094 C 0.01922 0.25296 0.26554 0.0
C1095 C 0.03616 0.25288 0.28355 0.0
H1096 H 0.72695 0.04376 0.28661 0.0
H1097 H 0.79194 0.03269 0.30411 0.0
H1098 H 0.72691 0.01459 0.25455 0.0
H1099 H 0.79181 0.00318 0.27266 0.0
H1100 H 0.79082 0.96605 0.19337 0.0
H1101 H 0.78993 0.996 0.22415 0.0
H1102 H 0.72909 0.97724 0.25286 0.0
H1103 H 0.72978 0.94767 0.22156 0.0
C1104 C 0.74116 0.03493 0.28383 0.0
C1105 C 0.75945 0.0405 0.29783 0.0
C1106 C 0.74114 0.01818 0.26551 0.0
C1107 C 0.75939 0.0066 0.2609 0.0
C1108 C 0.77758 0.012 0.27533 0.0
C1109 C 0.77762 0.02879 0.29354 0.0
C1110 C 0.77719 0.96846 0.20609 0.0
C1111 C 0.76038 0.95453 0.20507 0.0
C1112 C 0.77674 0.98551 0.2239 0.0
C1113 C 0.7595 0.98894 0.24115 0.0
C1114 C 0.74252 0.9752 0.23968 0.0
C1115 C 0.74294 0.9582 0.2218 0.0
H1116 H 0.02281 0.76078 0.18072 0.0
H1117 H 0.06437 0.74968 0.24895 0.0
H1118 H 0.99307 0.76 0.2121 0.0
H1119 H 0.03461 0.74919 0.28036 0.0
H1120 H 0.97664 0.77818 0.32625 0.0
H1121 H 0.0072 0.77666 0.29617 0.0
H1122 H 0.97543 0.73278 0.24375 0.0
H1123 H 0.94506 0.73403 0.27391 0.0
C1124 C 0.02556 0.7581 0.20239 0.0
C1125 C 0.04587 0.75525 0.2124 0.0
C1126 C 0.00857 0.75759 0.22031 0.0
C1127 C 0.0116 0.75455 0.24862 0.0
C1128 C 0.0319 0.75168 0.25864 0.0
C1129 C 0.04887 0.75185 0.24065 0.0
C1130 C 0.97629 0.76808 0.30844 0.0
C1131 C 0.9585 0.75623 0.30241 0.0
C1132 C 0.99376 0.76717 0.29131 0.0
C1133 C 0.99359 0.75466 0.26762 0.0
C1134 C 0.97588 0.74266 0.26178 0.0
C1135 C 0.95858 0.7433 0.27912 0.0
H1136 H 0.73253 0.95591 0.79094 0.0
H1137 H 0.79685 0.96927 0.8099 0.0
H1138 H 0.73192 0.98483 0.75859 0.0
H1139 H 0.79612 0.99857 0.77808 0.0
H1140 H 0.79504 0.03286 0.6962 0.0
H1141 H 0.79478 0.00431 0.72916 0.0
H1142 H 0.73299 0.02219 0.75522 0.0
H1143 H 0.73307 0.05039 0.7217 0.0
C1144 C 0.74645 0.96523 0.78848 0.0
C1145 C 0.76475 0.9603 0.80289 0.0
C1146 C 0.74609 0.98185 0.77 0.0
C1147 C 0.76402 0.99395 0.76558 0.0
C1148 C 0.78215 0.98933 0.7806 0.0
C1149 C 0.78253 0.97266 0.79902 0.0
C1150 C 0.78136 0.03059 0.70885 0.0
C1151 C 0.76407 0.04382 0.70635 0.0
C1152 C 0.78127 0.01435 0.72792 0.0
C1153 C 0.76393 0.01105 0.74501 0.0
C1154 C 0.74652 0.02416 0.74222 0.0
C1155 C 0.74658 0.04035 0.72306 0.0
H1156 H 0.97769 0.76686 0.67995 0.0
H1157 H 0.9359 0.75693 0.74822 0.0
H1158 H 0.00735 0.76624 0.71148 0.0
H1159 H 0.96559 0.75659 0.77977 0.0
H1160 H 0.02366 0.78536 0.82547 0.0
H1161 H 0.99323 0.78399 0.79514 0.0
H1162 H 0.02464 0.73914 0.74376 0.0
H1163 H 0.05488 0.74025 0.77418 0.0
C1164 C 0.97487 0.76449 0.70166 0.0
C1165 C 0.95452 0.76191 0.71164 0.0
C1166 C 0.99182 0.76407 0.71966 0.0
C1167 C 0.98871 0.76139 0.74802 0.0
C1168 C 0.96837 0.75881 0.75801 0.0
C1169 C 0.95143 0.75889 0.73995 0.0
C1170 C 0.02397 0.7751 0.80782 0.0
C1171 C 0.0416 0.76291 0.80217 0.0
C1172 C 0.00657 0.77427 0.79055 0.0
C1173 C 0.00667 0.76151 0.7671 0.0
C1174 C 0.02424 0.74921 0.7616 0.0
C1175 C 0.04147 0.74977 0.7791 0.0
H1176 H 0.26789 0.95844 0.70638 0.0
H1177 H 0.20081 0.96214 0.70374 0.0
H1178 H 0.26887 0.98844 0.7371 0.0
H1179 H 0.2016 0.99137 0.73537 0.0
H1180 H 0.20957 0.05533 0.77139 0.0
H1181 H 0.20987 0.0266 0.73901 0.0
H1182 H 0.26164 0.999 0.78266 0.0
H1183 H 0.2619 0.02849 0.81433 0.0
C1184 C 0.25336 0.96568 0.71242 0.0
C1185 C 0.23429 0.95805 0.70257 0.0
C1186 C 0.25389 0.98275 0.73023 0.0
C1187 C 0.23532 0.99239 0.73884 0.0
C1188 C 0.21626 0.98468 0.72883 0.0
C1189 C 0.21577 0.96783 0.71076 0.0
C1190 C 0.221 0.04311 0.77408 0.0
C1191 C 0.23566 0.04409 0.79543 0.0
C1192 C 0.22112 0.02654 0.75558 0.0
C1193 C 0.23569 0.01032 0.75823 0.0
C1194 C 0.25037 0.01133 0.7797 0.0
C1195 C 0.25044 0.02812 0.79801 0.0
H1196 H 0.96614 0.26405 0.8068 0.0
H1197 H 0.95503 0.19934 0.78827 0.0
H1198 H 0.99576 0.26413 0.77538 0.0
H1199 H 0.98368 0.1996 0.75577 0.0
H1200 H 0.04807 0.1997 0.71924 0.0
H1201 H 0.01952 0.20009 0.75193 0.0
H1202 H 0.0054 0.26359 0.72902 0.0
H1203 H 0.03491 0.26344 0.69742 0.0
C1204 C 0.97002 0.24987 0.7959 0.0
C1205 C 0.95843 0.23165 0.80009 0.0
C1206 C 0.98686 0.24994 0.77767 0.0
C1207 C 0.99222 0.23187 0.76289 0.0
C1208 C 0.98042 0.2137 0.76714 0.0
C1209 C 0.96388 0.21355 0.78571 0.0
C1210 C 0.0388 0.21371 0.72114 0.0
C1211 C 0.04363 0.23152 0.70576 0.0
C1212 C 0.02232 0.21393 0.73981 0.0
C1213 C 0.00998 0.23185 0.74317 0.0
C1214 C 0.01473 0.24961 0.72743 0.0
C1215 C 0.03151 0.2495 0.7091 0.0
H1216 H 0.76802 0.54872 0.72545 0.0
H1217 H 0.71054 0.52734 0.68905 0.0
H1218 H 0.76755 0.51935 0.75706 0.0
H1219 H 0.71028 0.49764 0.72031 0.0
H1220 H 0.70391 0.46159 0.80081 0.0
H1221 H 0.70505 0.49097 0.7691 0.0
H1222 H 0.77124 0.48186 0.75863 0.0
H1223 H 0.77015 0.45279 0.79076 0.0
C1224 C 0.75542 0.53758 0.72397 0.0
C1225 C 0.7393 0.54033 0.7048 0.0
C1226 C 0.75518 0.52071 0.74204 0.0
C1227 C 0.73882 0.50621 0.74132 0.0
C1228 C 0.72293 0.50873 0.7217 0.0
C1229 C 0.72316 0.52563 0.70363 0.0
C1230 C 0.71872 0.46599 0.79189 0.0
C1231 C 0.73695 0.45493 0.79829 0.0
C1232 C 0.71935 0.48269 0.77353 0.0
C1233 C 0.73821 0.48867 0.76118 0.0
C1234 C 0.75649 0.47778 0.76797 0.0
C1235 C 0.75586 0.46109 0.78633 0.0
H1236 H 0.52359 0.73017 0.82731 0.0
H1237 H 0.56217 0.75397 0.76177 0.0
H1238 H 0.49329 0.7312 0.79676 0.0
H1239 H 0.53196 0.75462 0.73119 0.0
H1240 H 0.47732 0.72376 0.68058 0.0
H1241 H 0.50775 0.72512 0.71093 0.0
H1242 H 0.47226 0.76022 0.77027 0.0
H1243 H 0.442 0.75923 0.73982 0.0
C1244 C 0.52556 0.73571 0.80646 0.0
C1245 C 0.54519 0.74202 0.79691 0.0
C1246 C 0.50825 0.73634 0.78904 0.0
C1247 C 0.51038 0.74292 0.76165 0.0
C1248 C 0.52998 0.74935 0.75217 0.0
C1249 C 0.5472 0.74909 0.76971 0.0
C1250 C 0.4761 0.73188 0.70001 0.0
C1251 C 0.45735 0.74142 0.70785 0.0
C1252 C 0.49348 0.73271 0.71729 0.0
C1253 C 0.49226 0.74274 0.7429 0.0
C1254 C 0.47353 0.7523 0.75069 0.0
C1255 C 0.45629 0.75182 0.73321 0.0
H1256 H 0.29398 0.46513 0.7013 0.0
H1257 H 0.22789 0.45669 0.71334 0.0
H1258 H 0.29355 0.49449 0.73304 0.0
H1259 H 0.22752 0.48578 0.74553 0.0
H1260 H 0.23199 0.55229 0.77998 0.0
H1261 H 0.2316 0.52332 0.74763 0.0
H1262 H 0.28924 0.5005 0.78214 0.0
H1263 H 0.28983 0.52974 0.81412 0.0
C1264 C 0.27935 0.46962 0.71063 0.0
C1265 C 0.26097 0.45864 0.70484 0.0
C1266 C 0.27913 0.48631 0.72901 0.0
C1267 C 0.26053 0.49236 0.742 0.0
C1268 C 0.24207 0.48163 0.73571 0.0
C1269 C 0.24229 0.46494 0.71732 0.0
C1270 C 0.2445 0.54099 0.78078 0.0
C1271 C 0.26096 0.54328 0.79954 0.0
C1272 C 0.24424 0.52437 0.76229 0.0
C1273 C 0.26046 0.50968 0.76219 0.0
C1274 C 0.27671 0.51176 0.78137 0.0
C1275 C 0.27696 0.52839 0.79986 0.0
H1276 H 0.46624 0.29178 0.80539 0.0
H1277 H 0.44883 0.22969 0.78042 0.0
H1278 H 0.49535 0.29105 0.77324 0.0
H1279 H 0.47783 0.22906 0.74796 0.0
H1280 H 0.54575 0.2288 0.7159 0.0
H1281 H 0.51619 0.22848 0.74739 0.0
H1282 H 0.50073 0.29127 0.7232 0.0
H1283 H 0.53046 0.29169 0.69198 0.0
C1284 C 0.46868 0.27795 0.79309 0.0
C1285 C 0.45528 0.26079 0.79541 0.0
C1286 C 0.48524 0.2776 0.77452 0.0
C1287 C 0.48879 0.26006 0.75792 0.0
C1288 C 0.47558 0.24275 0.7606 0.0
C1289 C 0.45896 0.24313 0.77913 0.0
C1290 C 0.53593 0.24247 0.71716 0.0
C1291 C 0.54043 0.26029 0.70155 0.0
C1292 C 0.51897 0.24226 0.73513 0.0
C1293 C 0.50622 0.2599 0.73791 0.0
C1294 C 0.51047 0.27756 0.72182 0.0
C1295 C 0.52739 0.27774 0.70379 0.0
H1296 H 0.29761 0.5336 0.20432 0.0
H1297 H 0.23117 0.54161 0.21298 0.0
H1298 H 0.29657 0.50464 0.23663 0.0
H1299 H 0.23016 0.51295 0.24583 0.0
H1300 H 0.23406 0.44666 0.28108 0.0
H1301 H 0.23426 0.47562 0.24877 0.0
H1302 H 0.29121 0.49845 0.28521 0.0
H1303 H 0.29125 0.46916 0.3171 0.0
C1304 C 0.28278 0.52913 0.2131 0.0
C1305 C 0.26447 0.53984 0.20611 0.0
C1306 C 0.2822 0.51266 0.23181 0.0
C1307 C 0.26331 0.50657 0.244 0.0
C1308 C 0.24494 0.51711 0.23664 0.0
C1309 C 0.24552 0.53356 0.21787 0.0
C1310 C 0.24654 0.45795 0.28231 0.0
C1311 C 0.26267 0.45563 0.30158 0.0
C1312 C 0.24661 0.47459 0.26385 0.0
C1313 C 0.26281 0.4893 0.26428 0.0
C1314 C 0.27869 0.4872 0.284 0.0
C1315 C 0.27863 0.47053 0.30244 0.0
H1316 H 0.55172 0.29806 0.27693 0.0
H1317 H 0.53354 0.23747 0.30657 0.0
H1318 H 0.52353 0.29737 0.24369 0.0
H1319 H 0.50435 0.2372 0.27449 0.0
H1320 H 0.4642 0.23384 0.19828 0.0
H1321 H 0.49432 0.2339 0.22883 0.0
H1322 H 0.48806 0.30051 0.2387 0.0
H1323 H 0.45894 0.30044 0.2069 0.0
C1324 C 0.54143 0.28471 0.27658 0.0
C1325 C 0.54474 0.26785 0.29437 0.0
C1326 C 0.52515 0.28433 0.2576 0.0
C1327 C 0.51145 0.26727 0.25632 0.0
C1328 C 0.51473 0.25045 0.2744 0.0
C1329 C 0.53134 0.25066 0.29301 0.0
C1330 C 0.46951 0.24848 0.20678 0.0
C1331 C 0.45935 0.26714 0.20012 0.0
C1332 C 0.48664 0.24853 0.22454 0.0
C1333 C 0.4937 0.2672 0.2365 0.0
C1334 C 0.48348 0.28586 0.22957 0.0
C1335 C 0.46666 0.28585 0.21139 0.0
H1336 H 0.70458 0.5296 0.31084 0.0
H1337 H 0.76599 0.54861 0.28483 0.0
H1338 H 0.70592 0.50033 0.27897 0.0
H1339 H 0.7672 0.51954 0.25262 0.0
H1340 H 0.76922 0.45277 0.21803 0.0
H1341 H 0.76895 0.48149 0.25088 0.0
H1342 H 0.70513 0.49503 0.22921 0.0
H1343 H 0.70531 0.46615 0.19673 0.0
C1344 C 0.7184 0.52746 0.29841 0.0
C1345 C 0.73517 0.5414 0.30031 0.0
C1346 C 0.7191 0.5108 0.27999 0.0
C1347 C 0.7366 0.5077 0.2631 0.0
C1348 C 0.75357 0.52139 0.26549 0.0
C1349 C 0.75285 0.53808 0.28387 0.0
C1350 C 0.75518 0.46197 0.22019 0.0
C1351 C 0.73728 0.45722 0.20483 0.0
C1352 C 0.75504 0.47845 0.23895 0.0
C1353 C 0.73697 0.49046 0.24278 0.0
C1354 C 0.71918 0.48586 0.22708 0.0
C1355 C 0.71934 0.46943 0.2083 0.0
H1356 H 0.46458 0.70327 0.30732 0.0
H1357 H 0.45006 0.76683 0.28588 0.0
H1358 H 0.49337 0.70348 0.27465 0.0
H1359 H 0.47868 0.76696 0.25284 0.0
H1360 H 0.54588 0.76507 0.21871 0.0
H1361 H 0.51675 0.76589 0.25089 0.0
H1362 H 0.4986 0.70424 0.22489 0.0
H1363 H 0.52793 0.70331 0.19304 0.0
C1364 C 0.46759 0.71731 0.29568 0.0
C1365 C 0.45508 0.73504 0.29917 0.0
C1366 C 0.48396 0.71738 0.27678 0.0
C1367 C 0.48822 0.73519 0.26099 0.0
C1368 C 0.47591 0.75305 0.26484 0.0
C1369 C 0.45949 0.75296 0.28371 0.0
C1370 C 0.53556 0.75177 0.21972 0.0
C1371 C 0.53921 0.7341 0.2034 0.0
C1372 C 0.51884 0.75226 0.23809 0.0
C1373 C 0.50544 0.73507 0.24059 0.0
C1374 C 0.50884 0.7176 0.22379 0.0
C1375 C 0.52553 0.71713 0.20538 0.0
H1376 H 0.21162 0.12654 0.24454 0.0
H1377 H 0.17019 0.13652 0.17586 0.0
H1378 H 0.18861 0.14688 0.27394 0.0
H1379 H 0.14698 0.1567 0.20542 0.0
H1380 H 0.12662 0.21266 0.25885 0.0
H1381 H 0.14762 0.19046 0.22918 0.0
H1382 H 0.15388 0.14586 0.29507 0.0
H1383 H 0.13306 0.16826 0.32493 0.0
C1384 C 0.19752 0.13299 0.23577 0.0
C1385 C 0.19273 0.13001 0.20788 0.0
C1386 C 0.18427 0.14452 0.25266 0.0
C1387 C 0.16597 0.15339 0.24202 0.0
C1388 C 0.16108 0.15023 0.21415 0.0
C1389 C 0.17431 0.13862 0.19726 0.0
C1390 C 0.1324 0.19807 0.26697 0.0
C1391 C 0.12828 0.19223 0.29424 0.0
C1392 C 0.14432 0.18529 0.2499 0.0
C1393 C 0.15242 0.16641 0.25978 0.0
C1394 C 0.14804 0.16043 0.28697 0.0
C1395 C 0.13605 0.1732 0.30402 0.0
H1396 H 0.84294 0.219 0.22087 0.0
H1397 H 0.88048 0.16561 0.1996 0.0
H1398 H 0.82157 0.19722 0.2507 0.0
H1399 H 0.85906 0.14379 0.22964 0.0
H1400 H 0.82925 0.11942 0.3112 0.0
H1401 H 0.85126 0.14065 0.28114 0.0
H1402 H 0.79634 0.16746 0.2442 0.0
H1403 H 0.7744 0.14629 0.27404 0.0
C1404 C 0.8466 0.2026 0.22256 0.0
C1405 C 0.86333 0.19397 0.20787 0.0
C1406 C 0.83433 0.19014 0.23955 0.0
C1407 C 0.83867 0.16884 0.24245 0.0
C1408 C 0.85549 0.16021 0.22792 0.0
C1409 C 0.86764 0.17265 0.21063 0.0
C1410 C 0.82193 0.12987 0.29665 0.0
C1411 C 0.80014 0.13125 0.29497 0.0
C1412 C 0.8345 0.1419 0.27938 0.0
C1413 C 0.82548 0.1557 0.2604 0.0
C1414 C 0.80369 0.15709 0.25882 0.0
C1415 C 0.79115 0.14492 0.27582 0.0
H1416 H 0.86419 0.82698 0.32921 0.0
H1417 H 0.87586 0.78675 0.25982 0.0
H1418 H 0.84336 0.84983 0.29989 0.0
H1419 H 0.85488 0.80932 0.2307 0.0
H1420 H 0.83038 0.86352 0.18022 0.0
H1421 H 0.85401 0.84387 0.20983 0.0
H1422 H 0.80966 0.84814 0.27632 0.0
H1423 H 0.78624 0.86802 0.24691 0.0
C1424 C 0.86238 0.82308 0.30769 0.0
C1425 C 0.87159 0.80506 0.29683 0.0
C1426 C 0.85037 0.83609 0.29093 0.0
C1427 C 0.84742 0.83137 0.26297 0.0
C1428 C 0.85704 0.81356 0.25205 0.0
C1429 C 0.86897 0.80055 0.26879 0.0
C1430 C 0.82576 0.86034 0.20121 0.0
C1431 C 0.80644 0.86722 0.21122 0.0
C1432 C 0.83924 0.84903 0.21813 0.0
C1433 C 0.8337 0.84441 0.24542 0.0
C1434 C 0.81451 0.85165 0.25552 0.0
C1435 C 0.80103 0.8629 0.2386 0.0
H1436 H 0.22034 0.85835 0.26549 0.0
H1437 H 0.16579 0.87661 0.31149 0.0
H1438 H 0.19863 0.83789 0.23467 0.0
H1439 H 0.14397 0.85586 0.28058 0.0
H1440 H 0.111 0.83011 0.20222 0.0
H1441 H 0.1319 0.85355 0.23096 0.0
H1442 H 0.17841 0.8055 0.2401 0.0
H1443 H 0.15782 0.78235 0.21153 0.0
C1444 C 0.20369 0.85802 0.26899 0.0
C1445 C 0.19477 0.86895 0.29102 0.0
C1446 C 0.19126 0.84625 0.25137 0.0
C1447 C 0.16962 0.84518 0.25531 0.0
C1448 C 0.1606 0.85653 0.27694 0.0
C1449 C 0.17308 0.86826 0.29472 0.0
C1450 C 0.12576 0.82468 0.21028 0.0
C1451 C 0.13281 0.80444 0.20458 0.0
C1452 C 0.13763 0.83802 0.22683 0.0
C1453 C 0.15682 0.83137 0.23767 0.0
C1454 C 0.16384 0.81118 0.23174 0.0
C1455 C 0.15198 0.79788 0.21545 0.0
H1456 H 0.84101 0.79047 0.70471 0.0
H1457 H 0.89162 0.83471 0.70437 0.0
H1458 H 0.82095 0.81332 0.73431 0.0
H1459 H 0.87124 0.85792 0.73405 0.0
H1460 H 0.83598 0.87848 0.81464 0.0
H1461 H 0.85747 0.85845 0.78249 0.0
H1462 H 0.80328 0.84697 0.73216 0.0
H1463 H 0.7819 0.86658 0.76424 0.0
C1464 C 0.84778 0.80521 0.71075 0.0
C1465 C 0.86787 0.81083 0.70215 0.0
C1466 C 0.83623 0.81836 0.72764 0.0
C1467 C 0.84447 0.83747 0.73644 0.0
C1468 C 0.86455 0.84322 0.72773 0.0
C1469 C 0.87613 0.83004 0.71061 0.0
C1470 C 0.82874 0.87173 0.79663 0.0
C1471 C 0.80724 0.87392 0.79209 0.0
C1472 C 0.84105 0.8604 0.77814 0.0
C1473 C 0.83202 0.85102 0.7549 0.0
C1474 C 0.81063 0.85373 0.75009 0.0
C1475 C 0.7984 0.86503 0.76845 0.0
H1476 H 0.16489 0.86884 0.67733 0.0
H1477 H 0.20697 0.87839 0.74542 0.0
H1478 H 0.14155 0.84915 0.70738 0.0
H1479 H 0.18365 0.85879 0.77538 0.0
H1480 H 0.12799 0.8362 0.82622 0.0
H1481 H 0.14746 0.85984 0.79623 0.0
H1482 H 0.14506 0.81435 0.73103 0.0
H1483 H 0.12576 0.79079 0.76087 0.0
C1484 C 0.16903 0.86691 0.69875 0.0
C1485 C 0.18779 0.87501 0.70901 0.0
C1486 C 0.15573 0.8556 0.7159 0.0
C1487 C 0.16083 0.85242 0.74368 0.0
C1488 C 0.17924 0.86116 0.75412 0.0
C1489 C 0.19264 0.87225 0.73693 0.0
C1490 C 0.13149 0.83137 0.80541 0.0
C1491 C 0.12547 0.81164 0.7959 0.0
C1492 C 0.14267 0.84484 0.78831 0.0
C1493 C 0.14774 0.83892 0.76131 0.0
C1494 C 0.14117 0.81942 0.75163 0.0
C1495 C 0.13025 0.80588 0.76878 0.0
H1496 H 0.14388 0.22142 0.73402 0.0
H1497 H 0.12327 0.16485 0.69459 0.0
H1498 H 0.16473 0.20107 0.76614 0.0
H1499 H 0.14422 0.14443 0.72686 0.0
H1500 H 0.16815 0.1156 0.80812 0.0
H1501 H 0.1457 0.13622 0.77792 0.0
H1502 H 0.19656 0.17859 0.76265 0.0
H1503 H 0.21896 0.15805 0.79271 0.0
C1504 C 0.14378 0.20462 0.73225 0.0
C1505 C 0.13201 0.19471 0.71174 0.0
C1506 C 0.15578 0.19299 0.75058 0.0
C1507 C 0.15611 0.17119 0.74896 0.0
C1508 C 0.1441 0.16123 0.72871 0.0
C1509 C 0.13223 0.17289 0.71016 0.0
C1510 C 0.17445 0.12942 0.79847 0.0
C1511 C 0.19528 0.13525 0.80276 0.0
C1512 C 0.16166 0.1411 0.78106 0.0
C1513 C 0.16941 0.15896 0.76791 0.0
C1514 C 0.19012 0.165 0.77269 0.0
C1515 C 0.20295 0.15321 0.78982 0.0
H1516 H 0.85651 0.21918 0.77269 0.0
H1517 H 0.87971 0.16368 0.81232 0.0
H1518 H 0.83556 0.19784 0.74179 0.0
H1519 H 0.85878 0.14228 0.78107 0.0
H1520 H 0.83452 0.1139 0.69794 0.0
H1521 H 0.85678 0.13458 0.72846 0.0
H1522 H 0.80433 0.17366 0.74879 0.0
H1523 H 0.78212 0.15301 0.71866 0.0
C1524 C 0.85718 0.20241 0.77473 0.0
C1525 C 0.86966 0.19307 0.79496 0.0
C1526 C 0.84515 0.19023 0.75711 0.0
C1527 C 0.84556 0.16845 0.75911 0.0
C1528 C 0.85831 0.15905 0.77902 0.0
C1529 C 0.87015 0.17127 0.79696 0.0
C1530 C 0.82781 0.12693 0.70892 0.0
C1531 C 0.80663 0.1319 0.70592 0.0
C1532 C 0.84049 0.13865 0.72645 0.0
C1533 C 0.83225 0.1557 0.74088 0.0
C1534 C 0.81111 0.1607 0.73771 0.0
C1535 C 0.7984 0.14884 0.72055 0.0
H1536 H 0.68036 0.64624 0.67886 0.0
H1537 H 0.70152 0.6094 0.74758 0.0
H1538 H 0.65757 0.66586 0.70941 0.0
H1539 H 0.67816 0.62838 0.77801 0.0
H1540 H 0.65431 0.68387 0.82856 0.0
H1541 H 0.67507 0.66158 0.79874 0.0
H1542 H 0.62697 0.66453 0.73668 0.0
H1543 H 0.60663 0.68744 0.76618 0.0
C1544 C 0.67991 0.64216 0.70044 0.0
C1545 C 0.69279 0.6264 0.71087 0.0
C1546 C 0.66675 0.65331 0.71797 0.0
C1547 C 0.66602 0.64877 0.74627 0.0
C1548 C 0.67858 0.63259 0.75648 0.0
C1549 C 0.69188 0.62162 0.739 0.0
C1550 C 0.6481 0.67956 0.80866 0.0
C1551 C 0.62891 0.68746 0.79965 0.0
C1552 C 0.65995 0.6667 0.79156 0.0
C1553 C 0.65278 0.66132 0.76516 0.0
C1554 C 0.63319 0.66867 0.75662 0.0
C1555 C 0.62144 0.68166 0.77363 0.0
H1556 H 0.29247 0.62159 0.75867 0.0
H1557 H 0.32892 0.63821 0.82995 0.0
H1558 H 0.31558 0.64212 0.72963 0.0
H1559 H 0.35222 0.65862 0.80081 0.0
H1560 H 0.36887 0.71474 0.74543 0.0
H1561 H 0.349 0.6913 0.77466 0.0
H1562 H 0.35161 0.64401 0.7117 0.0
H1563 H 0.37142 0.66766 0.6822 0.0
C1564 C 0.30554 0.62948 0.76809 0.0
C1565 C 0.30882 0.62842 0.79661 0.0
C1566 C 0.31887 0.64113 0.75142 0.0
C1567 C 0.33569 0.65204 0.76293 0.0
C1568 C 0.33924 0.65057 0.79139 0.0
C1569 C 0.32597 0.63882 0.80805 0.0
C1570 C 0.36531 0.69931 0.73785 0.0
C1571 C 0.37162 0.69306 0.71148 0.0
C1572 C 0.35405 0.68582 0.7547 0.0
C1573 C 0.34876 0.66579 0.74551 0.0
C1574 C 0.35531 0.65942 0.71924 0.0
C1575 C 0.36671 0.67291 0.70241 0.0
H1576 H 0.39057 0.32683 0.78802 0.0
H1577 H 0.33564 0.29342 0.81395 0.0
H1578 H 0.36913 0.34891 0.75857 0.0
H1579 H 0.31429 0.31512 0.7841 0.0
H1580 H 0.27952 0.36971 0.74678 0.0
H1581 H 0.30139 0.35012 0.77842 0.0
H1582 H 0.34922 0.34586 0.71623 0.0
H1583 H 0.32745 0.36594 0.68473 0.0
C1584 C 0.3739 0.32429 0.78754 0.0
C1585 C 0.36477 0.30842 0.80329 0.0
C1586 C 0.36165 0.33681 0.7705 0.0
C1587 C 0.34001 0.33371 0.76885 0.0
C1588 C 0.33086 0.3181 0.7851 0.0
C1589 C 0.34311 0.30561 0.80215 0.0
C1590 C 0.29473 0.36463 0.73988 0.0
C1591 C 0.30176 0.3693 0.71325 0.0
C1592 C 0.30722 0.35331 0.75798 0.0
C1593 C 0.32704 0.34637 0.74986 0.0
C1594 C 0.33414 0.35121 0.72326 0.0
C1595 C 0.32163 0.36258 0.70514 0.0
H1596 H 0.62466 0.28458 0.74443 0.0
H1597 H 0.63539 0.32667 0.67672 0.0
H1598 H 0.64579 0.30661 0.77423 0.0
H1599 H 0.65632 0.34887 0.70664 0.0
H1600 H 0.71335 0.36689 0.75889 0.0
H1601 H 0.69033 0.34654 0.72958 0.0
H1602 H 0.64628 0.34117 0.79627 0.0
H1603 H 0.66952 0.3614 0.8258 0.0
C1604 C 0.63141 0.29863 0.73598 0.0
C1605 C 0.62846 0.30386 0.70822 0.0
C1606 C 0.6434 0.31131 0.75309 0.0
C1607 C 0.65277 0.32945 0.74278 0.0
C1608 C 0.64952 0.33485 0.7151 0.0
C1609 C 0.63745 0.3222 0.69801 0.0
C1610 C 0.69874 0.36141 0.76729 0.0
C1611 C 0.69326 0.36568 0.79466 0.0
C1612 C 0.68548 0.34987 0.75043 0.0
C1613 C 0.66646 0.34229 0.76058 0.0
C1614 C 0.66093 0.34665 0.78795 0.0
C1615 C 0.67418 0.35828 0.80481 0.0
H1616 H 0.34955 0.31914 0.17779 0.0
H1617 H 0.39119 0.30315 0.2441 0.0
H1618 H 0.32959 0.34118 0.20874 0.0
H1619 H 0.37213 0.3262 0.27483 0.0
H1620 H 0.31953 0.34943 0.33002 0.0
H1621 H 0.34142 0.32896 0.29942 0.0
H1622 H 0.32826 0.37196 0.23322 0.0
H1623 H 0.30536 0.39153 0.26355 0.0
C1624 C 0.35461 0.32065 0.19893 0.0
C1625 C 0.3718 0.30939 0.20862 0.0
C1626 C 0.34328 0.33343 0.21671 0.0
C1627 C 0.34916 0.33558 0.24446 0.0
C1628 C 0.36679 0.32465 0.25384 0.0
C1629 C 0.37783 0.31154 0.23619 0.0
C1630 C 0.32149 0.35453 0.30896 0.0
C1631 C 0.31069 0.37195 0.29907 0.0
C1632 C 0.33414 0.34287 0.29138 0.0
C1633 C 0.33661 0.34865 0.26363 0.0
C1634 C 0.32637 0.36665 0.25417 0.0
C1635 C 0.31339 0.37802 0.27161 0.0
H1636 H 0.61876 0.33605 0.30753 0.0
H1637 H 0.65033 0.2814 0.27695 0.0
H1638 H 0.63996 0.35791 0.27721 0.0
H1639 H 0.67154 0.30322 0.24695 0.0
H1640 H 0.72157 0.35186 0.22494 0.0
H1641 H 0.69951 0.33089 0.25487 0.0
H1642 H 0.64512 0.36305 0.22462 0.0
H1643 H 0.66725 0.38403 0.19433 0.0
C1644 C 0.63024 0.32874 0.29437 0.0
C1645 C 0.63296 0.30706 0.29462 0.0
C1646 C 0.64225 0.34122 0.27695 0.0
C1647 C 0.65739 0.33223 0.25983 0.0
C1648 C 0.66009 0.31055 0.26013 0.0
C1649 C 0.64791 0.29808 0.27722 0.0
C1650 C 0.70491 0.35449 0.22467 0.0
C1651 C 0.6961 0.36954 0.20728 0.0
C1652 C 0.6923 0.34242 0.24171 0.0
C1653 C 0.67064 0.34534 0.24198 0.0
C1654 C 0.66181 0.3606 0.22489 0.0
C1655 C 0.67443 0.37249 0.2075 0.0
H1656 H 0.70552 0.62171 0.25946 0.0
H1657 H 0.66248 0.62795 0.32714 0.0
H1658 H 0.68171 0.64097 0.22989 0.0
H1659 H 0.63855 0.64727 0.29742 0.0
H1660 H 0.62027 0.7058 0.24542 0.0
H1661 H 0.63994 0.68241 0.27513 0.0
H1662 H 0.64646 0.63895 0.20801 0.0
H1663 H 0.62676 0.66244 0.17816 0.0
C1664 C 0.69086 0.62704 0.26794 0.0
C1665 C 0.68589 0.62344 0.29564 0.0
C1666 C 0.67717 0.63794 0.25095 0.0
C1667 C 0.65829 0.64564 0.26135 0.0
C1668 C 0.65309 0.64164 0.28892 0.0
C1669 C 0.66672 0.63054 0.30588 0.0
C1670 C 0.62573 0.69116 0.23707 0.0
C1671 C 0.6221 0.68598 0.20944 0.0
C1672 C 0.63687 0.67771 0.25414 0.0
C1673 C 0.64476 0.65887 0.24387 0.0
C1674 C 0.6407 0.65345 0.2164 0.0
C1675 C 0.62937 0.66684 0.19936 0.0
H1676 H 0.28115 0.65013 0.2218 0.0
H1677 H 0.33465 0.61335 0.19868 0.0
H1678 H 0.30302 0.67111 0.25193 0.0
H1679 H 0.35661 0.63442 0.22908 0.0
H1680 H 0.38087 0.66383 0.3118 0.0
H1681 H 0.36012 0.6418 0.28106 0.0
H1682 H 0.33251 0.69664 0.24505 0.0
H1683 H 0.35317 0.71855 0.27546 0.0
C1684 C 0.2976 0.64655 0.22315 0.0
C1685 C 0.30622 0.63017 0.20782 0.0
C1686 C 0.31012 0.6586 0.24033 0.0
C1687 C 0.3315 0.65441 0.24278 0.0
C1688 C 0.34013 0.63789 0.22768 0.0
C1689 C 0.32762 0.62595 0.21019 0.0
C1690 C 0.37039 0.67112 0.29726 0.0
C1691 C 0.36858 0.69288 0.29606 0.0
C1692 C 0.35863 0.65854 0.27961 0.0
C1693 C 0.34467 0.66754 0.26078 0.0
C1694 C 0.34299 0.68929 0.25956 0.0
C1695 C 0.35488 0.70182 0.2769 0.0
loop_
_geom_bond_atom_site_label_1
_geom_bond_atom_site_label_2
_geom_bond_distance
_geom_bond_site_symmetry_2
_ccdc_geom_bond_type
In0 O1 2.294 . S
In0 O2 2.326 . S
In0 O6 2.266 . S
In0 O7 2.326 . S
In0 O8 2.266 . S
In0 O9 2.326 . S
In0 O11 2.294 . S
In0 O12 2.326 . S
O1 In0 2.294 . S
O1 C10 1.240 . S
O2 In0 2.326 . S
O2 C10 1.252 . S
C3 O6 1.252 . S
C3 O7 1.260 . S
C4 O11 1.240 . S
C4 O12 1.252 . S
C5 O8 1.252 . S
C5 O9 1.260 . S
O6 In0 2.266 . S
O6 C3 1.252 . S
O7 In0 2.326 . S
O7 C3 1.260 . S
O8 In0 2.266 . S
O8 C5 1.252 . S
O9 In0 2.326 . S
O9 C5 1.260 . S
C10 O1 1.240 . S
C10 O2 1.252 . S
O11 In0 2.294 . S
O11 C4 1.240 . S
O12 In0 2.326 . S
O12 C4 1.252 . S
In13 O14 2.294 . S
In13 O15 2.326 . S
In13 O19 2.266 . S
In13 O20 2.326 . S
In13 O21 2.266 . S
In13 O22 2.326 . S
In13 O24 2.294 . S
In13 O25 2.326 . S
O14 In13 2.294 . S
O14 C23 1.240 . S
O15 In13 2.326 . S
O15 C23 1.252 . S
C16 O19 1.252 . S
C16 O20 1.260 . S
C17 O24 1.240 . S
C17 O25 1.252 . S
C18 O21 1.252 . S
C18 O22 1.260 . S
O19 In13 2.266 . S
O19 C16 1.252 . S
O20 In13 2.326 . S
O20 C16 1.260 . S
O21 In13 2.266 . S
O21 C18 1.252 . S
O22 In13 2.326 . S
O22 C18 1.260 . S
C23 O14 1.240 . S
C23 O15 1.252 . S
O24 In13 2.294 . S
O24 C17 1.240 . S
O25 In13 2.326 . S
O25 C17 1.252 . S
In26 O27 2.294 . S
In26 O28 2.326 . S
In26 O32 2.266 . S
In26 O33 2.326 . S
In26 O34 2.266 . S
In26 O35 2.326 . S
In26 O37 2.294 . S
In26 O38 2.326 . S
O27 In26 2.294 . S
O27 C36 1.240 . S
O28 In26 2.326 . S
O28 C36 1.252 . S
C29 O32 1.252 . S
C29 O33 1.260 . S
C30 O37 1.240 . S
C30 O38 1.252 . S
C31 O34 1.252 . S
C31 O35 1.260 . S
O32 In26 2.266 . S
O32 C29 1.252 . S
O33 In26 2.326 . S
O33 C29 1.260 . S
O34 In26 2.266 . S
O34 C31 1.252 . S
O35 In26 2.326 . S
O35 C31 1.260 . S
C36 O27 1.240 . S
C36 O28 1.252 . S
O37 In26 2.294 . S
O37 C30 1.240 . S
O38 In26 2.326 . S
O38 C30 1.252 . S
In39 O40 2.294 . S
In39 O41 2.326 . S
In39 O45 2.266 . S
In39 O46 2.326 . S
In39 O47 2.266 . S
In39 O48 2.326 . S
In39 O50 2.294 . S
In39 O51 2.326 . S
O40 In39 2.294 . S
O40 C49 1.240 . S
O41 In39 2.326 . S
O41 C49 1.252 . S
C42 O45 1.252 . S
C42 O46 1.260 . S
C43 O50 1.240 . S
C43 O51 1.252 . S
C44 O47 1.252 . S
C44 O48 1.260 . S
O45 In39 2.266 . S
O45 C42 1.252 . S
O46 In39 2.326 . S
O46 C42 1.260 . S
O47 In39 2.266 . S
O47 C44 1.252 . S
O48 In39 2.326 . S
O48 C44 1.260 . S
C49 O40 1.240 . S
C49 O41 1.252 . S
O50 In39 2.294 . S
O50 C43 1.240 . S
O51 In39 2.326 . S
O51 C43 1.252 . S
In52 O53 2.294 . S
In52 O54 2.326 . S
In52 O58 2.266 . S
In52 O59 2.326 . S
In52 O60 2.266 . S
In52 O61 2.326 . S
In52 O63 2.294 . S
In52 O64 2.326 . S
O53 In52 2.294 . S
O53 C62 1.240 . S
O54 In52 2.326 . S
O54 C62 1.252 . S
C55 O58 1.252 . S
C55 O59 1.260 . S
C56 O63 1.240 . S
C56 O64 1.252 . S
C57 O60 1.252 . S
C57 O61 1.260 . S
O58 In52 2.266 . S
O58 C55 1.252 . S
O59 In52 2.326 . S
O59 C55 1.260 . S
O60 In52 2.266 . S
O60 C57 1.252 . S
O61 In52 2.326 . S
O61 C57 1.260 . S
C62 O53 1.240 . S
C62 O54 1.252 . S
O63 In52 2.294 . S
O63 C56 1.240 . S
O64 In52 2.326 . S
O64 C56 1.252 . S
In65 O66 2.294 . S
In65 O67 2.326 . S
In65 O71 2.266 . S
In65 O72 2.326 . S
In65 O73 2.266 . S
In65 O74 2.326 . S
In65 O76 2.294 . S
In65 O77 2.326 . S
O66 In65 2.294 . S
O66 C75 1.240 . S
O67 In65 2.326 . S
O67 C75 1.252 . S
C68 O71 1.252 . S
C68 O72 1.260 . S
C69 O76 1.240 . S
C69 O77 1.252 . S
C70 O73 1.252 . S
C70 O74 1.260 . S
O71 In65 2.266 . S
O71 C68 1.252 . S
O72 In65 2.326 . S
O72 C68 1.260 . S
O73 In65 2.266 . S
O73 C70 1.252 . S
O74 In65 2.326 . S
O74 C70 1.260 . S
C75 O66 1.240 . S
C75 O67 1.252 . S
O76 In65 2.294 . S
O76 C69 1.240 . S
O77 In65 2.326 . S
O77 C69 1.252 . S
In78 O79 2.294 . S
In78 O80 2.326 . S
In78 O84 2.266 . S
In78 O85 2.326 . S
In78 O86 2.266 . S
In78 O87 2.326 . S
In78 O89 2.294 . S
In78 O90 2.326 . S
O79 In78 2.294 . S
O79 C88 1.240 . S
O80 In78 2.326 . S
O80 C88 1.252 . S
C81 O84 1.252 . S
C81 O85 1.260 . S
C82 O89 1.240 . S
C82 O90 1.252 . S
C83 O86 1.252 . S
C83 O87 1.260 . S
O84 In78 2.266 . S
O84 C81 1.252 . S
O85 In78 2.326 . S
O85 C81 1.260 . S
O86 In78 2.266 . S
O86 C83 1.252 . S
O87 In78 2.326 . S
O87 C83 1.260 . S
C88 O79 1.240 . S
C88 O80 1.252 . S
O89 In78 2.294 . S
O89 C82 1.240 . S
O90 In78 2.326 . S
O90 C82 1.252 . S
In91 O92 2.294 . S
In91 O93 2.326 . S
In91 O97 2.266 . S
In91 O98 2.326 . S
In91 O99 2.266 . S
In91 O100 2.326 . S
In91 O102 2.294 . S
In91 O103 2.326 . S
O92 In91 2.294 . S
O92 C101 1.240 . S
O93 In91 2.326 . S
O93 C101 1.252 . S
C94 O97 1.252 . S
C94 O98 1.260 . S
C95 O102 1.240 . S
C95 O103 1.252 . S
C96 O99 1.252 . S
C96 O100 1.260 . S
O97 In91 2.266 . S
O97 C94 1.252 . S
O98 In91 2.326 . S
O98 C94 1.260 . S
O99 In91 2.266 . S
O99 C96 1.252 . S
O100 In91 2.326 . S
O100 C96 1.260 . S
C101 O92 1.240 . S
C101 O93 1.252 . S
O102 In91 2.294 . S
O102 C95 1.240 . S
O103 In91 2.326 . S
O103 C95 1.252 . S
In104 O105 2.294 . S
In104 O106 2.326 . S
In104 O110 2.266 . S
In104 O111 2.326 . S
In104 O112 2.266 . S
In104 O113 2.326 . S
In104 O115 2.294 . S
In104 O116 2.326 . S
O105 In104 2.294 . S
O105 C114 1.240 . S
O106 In104 2.326 . S
O106 C114 1.252 . S
C107 O110 1.252 . S
C107 O111 1.260 . S
C108 O115 1.240 . S
C108 O116 1.252 . S
C109 O112 1.252 . S
C109 O113 1.260 . S
O110 In104 2.266 . S
O110 C107 1.252 . S
O111 In104 2.326 . S
O111 C107 1.260 . S
O112 In104 2.266 . S
O112 C109 1.252 . S
O113 In104 2.326 . S
O113 C109 1.260 . S
C114 O105 1.240 . S
C114 O106 1.252 . S
O115 In104 2.294 . S
O115 C108 1.240 . S
O116 In104 2.326 . S
O116 C108 1.252 . S
In117 O118 2.294 . S
In117 O119 2.326 . S
In117 O123 2.266 . S
In117 O124 2.326 . S
In117 O125 2.266 . S
In117 O126 2.326 . S
In117 O128 2.294 . S
In117 O129 2.326 . S
O118 In117 2.294 . S
O118 C127 1.240 . S
O119 In117 2.326 . S
O119 C127 1.252 . S
C120 O123 1.252 . S
C120 O124 1.260 . S
C121 O128 1.240 . S
C121 O129 1.252 . S
C122 O125 1.252 . S
C122 O126 1.260 . S
O123 In117 2.266 . S
O123 C120 1.252 . S
O124 In117 2.326 . S
O124 C120 1.260 . S
O125 In117 2.266 . S
O125 C122 1.252 . S
O126 In117 2.326 . S
O126 C122 1.260 . S
C127 O118 1.240 . S
C127 O119 1.252 . S
O128 In117 2.294 . S
O128 C121 1.240 . S
O129 In117 2.326 . S
O129 C121 1.252 . S
In130 O131 2.294 . S
In130 O132 2.326 . S
In130 O136 2.266 . S
In130 O137 2.326 . S
In130 O138 2.266 . S
In130 O139 2.326 . S
In130 O141 2.294 . S
In130 O142 2.326 . S
O131 In130 2.294 . S
O131 C140 1.240 . S
O132 In130 2.326 . S
O132 C140 1.252 . S
C133 O136 1.252 . S
C133 O137 1.260 . S
C134 O141 1.240 . S
C134 O142 1.252 . S
C135 O138 1.252 . S
C135 O139 1.260 . S
O136 In130 2.266 . S
O136 C133 1.252 . S
O137 In130 2.326 . S
O137 C133 1.260 . S
O138 In130 2.266 . S
O138 C135 1.252 . S
O139 In130 2.326 . S
O139 C135 1.260 . S
C140 O131 1.240 . S
C140 O132 1.252 . S
O141 In130 2.294 . S
O141 C134 1.240 . S
O142 In130 2.326 . S
O142 C134 1.252 . S
In143 O144 2.294 . S
In143 O145 2.326 . S
In143 O149 2.266 . S
In143 O150 2.326 . S
In143 O151 2.266 . S
In143 O152 2.326 . S
In143 O154 2.294 . S
In143 O155 2.326 . S
O144 In143 2.294 . S
O144 C153 1.240 . S
O145 In143 2.326 . S
O145 C153 1.252 . S
C146 O149 1.252 . S
C146 O150 1.260 . S
C147 O154 1.240 . S
C147 O155 1.252 . S
C148 O151 1.252 . S
C148 O152 1.260 . S
O149 In143 2.266 . S
O149 C146 1.252 . S
O150 In143 2.326 . S
O150 C146 1.260 . S
O151 In143 2.266 . S
O151 C148 1.252 . S
O152 In143 2.326 . S
O152 C148 1.260 . S
C153 O144 1.240 . S
C153 O145 1.252 . S
O154 In143 2.294 . S
O154 C147 1.240 . S
O155 In143 2.326 . S
O155 C147 1.252 . S
In156 O157 2.294 . S
In156 O158 2.326 . S
In156 O162 2.266 . S
In156 O163 2.326 . S
In156 O164 2.266 . S
In156 O165 2.326 . S
In156 O167 2.294 . S
In156 O168 2.326 . S
O157 In156 2.294 . S
O157 C166 1.240 . S
O158 In156 2.326 . S
O158 C166 1.252 . S
C159 O162 1.252 . S
C159 O163 1.260 . S
C160 O167 1.240 . S
C160 O168 1.252 . S
C161 O164 1.252 . S
C161 O165 1.260 . S
O162 In156 2.266 . S
O162 C159 1.252 . S
O163 In156 2.326 . S
O163 C159 1.260 . S
O164 In156 2.266 . S
O164 C161 1.252 . S
O165 In156 2.326 . S
O165 C161 1.260 . S
C166 O157 1.240 . S
C166 O158 1.252 . S
O167 In156 2.294 . S
O167 C160 1.240 . S
O168 In156 2.326 . S
O168 C160 1.252 . S
In169 O170 2.294 . S
In169 O171 2.326 . S
In169 O175 2.266 . S
In169 O176 2.326 . S
In169 O177 2.266 . S
In169 O178 2.326 . S
In169 O180 2.294 . S
In169 O181 2.326 . S
O170 In169 2.294 . S
O170 C179 1.240 . S
O171 In169 2.326 . S
O171 C179 1.252 . S
C172 O175 1.252 . S
C172 O176 1.260 . S
C173 O180 1.240 . S
C173 O181 1.252 . S
C174 O177 1.252 . S
C174 O178 1.260 . S
O175 In169 2.266 . S
O175 C172 1.252 . S
O176 In169 2.326 . S
O176 C172 1.260 . S
O177 In169 2.266 . S
O177 C174 1.252 . S
O178 In169 2.326 . S
O178 C174 1.260 . S
C179 O170 1.240 . S
C179 O171 1.252 . S
O180 In169 2.294 . S
O180 C173 1.240 . S
O181 In169 2.326 . S
O181 C173 1.252 . S
In182 O183 2.294 . S
In182 O184 2.326 . S
In182 O188 2.266 . S
In182 O189 2.326 . S
In182 O190 2.266 . S
In182 O191 2.326 . S
In182 O193 2.294 . S
In182 O194 2.326 . S
O183 In182 2.294 . S
O183 C192 1.240 . S
O184 In182 2.326 . S
O184 C192 1.252 . S
C185 O188 1.252 . S
C185 O189 1.260 . S
C186 O193 1.240 . S
C186 O194 1.252 . S
C187 O190 1.252 . S
C187 O191 1.260 . S
O188 In182 2.266 . S
O188 C185 1.252 . S
O189 In182 2.326 . S
O189 C185 1.260 . S
O190 In182 2.266 . S
O190 C187 1.252 . S
O191 In182 2.326 . S
O191 C187 1.260 . S
C192 O183 1.240 . S
C192 O184 1.252 . S
O193 In182 2.294 . S
O193 C186 1.240 . S
O194 In182 2.326 . S
O194 C186 1.252 . S
In195 O196 2.294 . S
In195 O197 2.326 . S
In195 O201 2.266 . S
In195 O202 2.326 . S
In195 O203 2.266 . S
In195 O204 2.326 . S
In195 O206 2.294 . S
In195 O207 2.326 . S
O196 In195 2.294 . S
O196 C205 1.240 . S
O197 In195 2.326 . S
O197 C205 1.252 . S
C198 O201 1.252 . S
C198 O202 1.260 . S
C199 O206 1.240 . S
C199 O207 1.252 . S
C200 O203 1.252 . S
C200 O204 1.260 . S
O201 In195 2.266 . S
O201 C198 1.252 . S
O202 In195 2.326 . S
O202 C198 1.260 . S
O203 In195 2.266 . S
O203 C200 1.252 . S
O204 In195 2.326 . S
O204 C200 1.260 . S
C205 O196 1.240 . S
C205 O197 1.252 . S
O206 In195 2.294 . S
O206 C199 1.240 . S
O207 In195 2.326 . S
O207 C199 1.252 . S
In208 O209 2.294 . S
In208 O210 2.326 . S
In208 O214 2.266 . S
In208 O215 2.326 . S
In208 O216 2.266 . S
In208 O217 2.326 . S
In208 O219 2.294 . S
In208 O220 2.326 . S
O209 In208 2.294 . S
O209 C218 1.240 . S
O210 In208 2.326 . S
O210 C218 1.252 . S
C211 O214 1.252 . S
C211 O215 1.260 . S
C212 O219 1.240 . S
C212 O220 1.252 . S
C213 O216 1.252 . S
C213 O217 1.260 . S
O214 In208 2.266 . S
O214 C211 1.252 . S
O215 In208 2.326 . S
O215 C211 1.260 . S
O216 In208 2.266 . S
O216 C213 1.252 . S
O217 In208 2.326 . S
O217 C213 1.260 . S
C218 O209 1.240 . S
C218 O210 1.252 . S
O219 In208 2.294 . S
O219 C212 1.240 . S
O220 In208 2.326 . S
O220 C212 1.252 . S
In221 O222 2.294 . S
In221 O223 2.326 . S
In221 O227 2.266 . S
In221 O228 2.326 . S
In221 O229 2.266 . S
In221 O230 2.326 . S
In221 O232 2.294 . S
In221 O233 2.326 . S
O222 In221 2.294 . S
O222 C231 1.240 . S
O223 In221 2.326 . S
O223 C231 1.252 . S
C224 O227 1.252 . S
C224 O228 1.260 . S
C225 O232 1.240 . S
C225 O233 1.252 . S
C226 O229 1.252 . S
C226 O230 1.260 . S
O227 In221 2.266 . S
O227 C224 1.252 . S
O228 In221 2.326 . S
O228 C224 1.260 . S
O229 In221 2.266 . S
O229 C226 1.252 . S
O230 In221 2.326 . S
O230 C226 1.260 . S
C231 O222 1.240 . S
C231 O223 1.252 . S
O232 In221 2.294 . S
O232 C225 1.240 . S
O233 In221 2.326 . S
O233 C225 1.252 . S
In234 O235 2.294 . S
In234 O236 2.326 . S
In234 O240 2.266 . S
In234 O241 2.326 . S
In234 O242 2.266 . S
In234 O243 2.326 . S
In234 O245 2.294 . S
In234 O246 2.326 . S
O235 In234 2.294 . S
O235 C244 1.240 . S
O236 In234 2.326 . S
O236 C244 1.252 . S
C237 O240 1.252 . S
C237 O241 1.260 . S
C238 O245 1.240 . S
C238 O246 1.252 . S
C239 O242 1.252 . S
C239 O243 1.260 . S
O240 In234 2.266 . S
O240 C237 1.252 . S
O241 In234 2.326 . S
O241 C237 1.260 . S
O242 In234 2.266 . S
O242 C239 1.252 . S
O243 In234 2.326 . S
O243 C239 1.260 . S
C244 O235 1.240 . S
C244 O236 1.252 . S
O245 In234 2.294 . S
O245 C238 1.240 . S
O246 In234 2.326 . S
O246 C238 1.252 . S
In247 O248 2.294 . S
In247 O249 2.326 . S
In247 O253 2.266 . S
In247 O254 2.326 . S
In247 O255 2.266 . S
In247 O256 2.326 . S
In247 O258 2.294 . S
In247 O259 2.326 . S
O248 In247 2.294 . S
O248 C257 1.240 . S
O249 In247 2.326 . S
O249 C257 1.252 . S
C250 O253 1.252 . S
C250 O254 1.260 . S
C251 O258 1.240 . S
C251 O259 1.252 . S
C252 O255 1.252 . S
C252 O256 1.260 . S
O253 In247 2.266 . S
O253 C250 1.252 . S
O254 In247 2.326 . S
O254 C250 1.260 . S
O255 In247 2.266 . S
O255 C252 1.252 . S
O256 In247 2.326 . S
O256 C252 1.260 . S
C257 O248 1.240 . S
C257 O249 1.252 . S
O258 In247 2.294 . S
O258 C251 1.240 . S
O259 In247 2.326 . S
O259 C251 1.252 . S
In260 O261 2.294 . S
In260 O262 2.326 . S
In260 O266 2.266 . S
In260 O267 2.326 . S
In260 O268 2.266 . S
In260 O269 2.326 . S
In260 O271 2.294 . S
In260 O272 2.326 . S
O261 In260 2.294 . S
O261 C270 1.240 . S
O262 In260 2.326 . S
O262 C270 1.252 . S
C263 O266 1.252 . S
C263 O267 1.260 . S
C264 O271 1.240 . S
C264 O272 1.252 . S
C265 O268 1.252 . S
C265 O269 1.260 . S
O266 In260 2.266 . S
O266 C263 1.252 . S
O267 In260 2.326 . S
O267 C263 1.260 . S
O268 In260 2.266 . S
O268 C265 1.252 . S
O269 In260 2.326 . S
O269 C265 1.260 . S
C270 O261 1.240 . S
C270 O262 1.252 . S
O271 In260 2.294 . S
O271 C264 1.240 . S
O272 In260 2.326 . S
O272 C264 1.252 . S
In273 O274 2.294 . S
In273 O275 2.326 . S
In273 O279 2.266 . S
In273 O280 2.326 . S
In273 O281 2.266 . S
In273 O282 2.326 . S
In273 O284 2.294 . S
In273 O285 2.326 . S
O274 In273 2.294 . S
O274 C283 1.240 . S
O275 In273 2.326 . S
O275 C283 1.252 . S
C276 O279 1.252 . S
C276 O280 1.260 . S
C277 O284 1.240 . S
C277 O285 1.252 . S
C278 O281 1.252 . S
C278 O282 1.260 . S
O279 In273 2.266 . S
O279 C276 1.252 . S
O280 In273 2.326 . S
O280 C276 1.260 . S
O281 In273 2.266 . S
O281 C278 1.252 . S
O282 In273 2.326 . S
O282 C278 1.260 . S
C283 O274 1.240 . S
C283 O275 1.252 . S
O284 In273 2.294 . S
O284 C277 1.240 . S
O285 In273 2.326 . S
O285 C277 1.252 . S
In286 O287 2.294 . S
In286 O288 2.326 . S
In286 O292 2.266 . S
In286 O293 2.326 . S
In286 O294 2.266 . S
In286 O295 2.326 . S
In286 O297 2.294 . S
In286 O298 2.326 . S
O287 In286 2.294 . S
O287 C296 1.240 . S
O288 In286 2.326 . S
O288 C296 1.252 . S
C289 O292 1.252 . S
C289 O293 1.260 . S
C290 O297 1.240 . S
C290 O298 1.252 . S
C291 O294 1.252 . S
C291 O295 1.260 . S
O292 In286 2.266 . S
O292 C289 1.252 . S
O293 In286 2.326 . S
O293 C289 1.260 . S
O294 In286 2.266 . S
O294 C291 1.252 . S
O295 In286 2.326 . S
O295 C291 1.260 . S
C296 O287 1.240 . S
C296 O288 1.252 . S
O297 In286 2.294 . S
O297 C290 1.240 . S
O298 In286 2.326 . S
O298 C290 1.252 . S
In299 O300 2.294 . S
In299 O301 2.326 . S
In299 O305 2.266 . S
In299 O306 2.326 . S
In299 O307 2.266 . S
In299 O308 2.326 . S
In299 O310 2.294 . S
In299 O311 2.326 . S
O300 In299 2.294 . S
O300 C309 1.240 . S
O301 In299 2.326 . S
O301 C309 1.252 . S
C302 O305 1.252 . S
C302 O306 1.260 . S
C303 O310 1.240 . S
C303 O311 1.252 . S
C304 O307 1.252 . S
C304 O308 1.260 . S
O305 In299 2.266 . S
O305 C302 1.252 . S
O306 In299 2.326 . S
O306 C302 1.260 . S
O307 In299 2.266 . S
O307 C304 1.252 . S
O308 In299 2.326 . S
O308 C304 1.260 . S
C309 O300 1.240 . S
C309 O301 1.252 . S
O310 In299 2.294 . S
O310 C303 1.240 . S
O311 In299 2.326 . S
O311 C303 1.252 . S
In312 O313 2.294 . S
In312 O314 2.326 . S
In312 O318 2.266 . S
In312 O319 2.326 . S
In312 O320 2.266 . S
In312 O321 2.326 . S
In312 O323 2.294 . S
In312 O324 2.326 . S
O313 In312 2.294 . S
O313 C322 1.240 . S
O314 In312 2.326 . S
O314 C322 1.252 . S
C315 O318 1.252 . S
C315 O319 1.260 . S
C316 O323 1.240 . S
C316 O324 1.252 . S
C317 O320 1.252 . S
C317 O321 1.260 . S
O318 In312 2.266 . S
O318 C315 1.252 . S
O319 In312 2.326 . S
O319 C315 1.260 . S
O320 In312 2.266 . S
O320 C317 1.252 . S
O321 In312 2.326 . S
O321 C317 1.260 . S
C322 O313 1.240 . S
C322 O314 1.252 . S
O323 In312 2.294 . S
O323 C316 1.240 . S
O324 In312 2.326 . S
O324 C316 1.252 . S
In325 O326 2.294 . S
In325 O327 2.326 . S
In325 O331 2.266 . S
In325 O332 2.326 . S
In325 O333 2.266 . S
In325 O334 2.326 . S
In325 O336 2.294 . S
In325 O337 2.326 . S
O326 In325 2.294 . S
O326 C335 1.240 . S
O327 In325 2.326 . S
O327 C335 1.252 . S
C328 O331 1.252 . S
C328 O332 1.260 . S
C329 O336 1.240 . S
C329 O337 1.252 . S
C330 O333 1.252 . S
C330 O334 1.260 . S
O331 In325 2.266 . S
O331 C328 1.252 . S
O332 In325 2.326 . S
O332 C328 1.260 . S
O333 In325 2.266 . S
O333 C330 1.252 . S
O334 In325 2.326 . S
O334 C330 1.260 . S
C335 O326 1.240 . S
C335 O327 1.252 . S
O336 In325 2.294 . S
O336 C329 1.240 . S
O337 In325 2.326 . S
O337 C329 1.252 . S
In338 O339 2.294 . S
In338 O340 2.326 . S
In338 O344 2.266 . S
In338 O345 2.326 . S
In338 O346 2.266 . S
In338 O347 2.326 . S
In338 O349 2.294 . S
In338 O350 2.326 . S
O339 In338 2.294 . S
O339 C348 1.240 . S
O340 In338 2.326 . S
O340 C348 1.252 . S
C341 O344 1.252 . S
C341 O345 1.260 . S
C342 O349 1.240 . S
C342 O350 1.252 . S
C343 O346 1.252 . S
C343 O347 1.260 . S
O344 In338 2.266 . S
O344 C341 1.252 . S
O345 In338 2.326 . S
O345 C341 1.260 . S
O346 In338 2.266 . S
O346 C343 1.252 . S
O347 In338 2.326 . S
O347 C343 1.260 . S
C348 O339 1.240 . S
C348 O340 1.252 . S
O349 In338 2.294 . S
O349 C342 1.240 . S
O350 In338 2.326 . S
O350 C342 1.252 . S
In351 O352 2.294 . S
In351 O353 2.326 . S
In351 O357 2.266 . S
In351 O358 2.326 . S
In351 O359 2.266 . S
In351 O360 2.326 . S
In351 O362 2.294 . S
In351 O363 2.326 . S
O352 In351 2.294 . S
O352 C361 1.240 . S
O353 In351 2.326 . S
O353 C361 1.252 . S
C354 O357 1.252 . S
C354 O358 1.260 . S
C355 O362 1.240 . S
C355 O363 1.252 . S
C356 O359 1.252 . S
C356 O360 1.260 . S
O357 In351 2.266 . S
O357 C354 1.252 . S
O358 In351 2.326 . S
O358 C354 1.260 . S
O359 In351 2.266 . S
O359 C356 1.252 . S
O360 In351 2.326 . S
O360 C356 1.260 . S
C361 O352 1.240 . S
C361 O353 1.252 . S
O362 In351 2.294 . S
O362 C355 1.240 . S
O363 In351 2.326 . S
O363 C355 1.252 . S
In364 O365 2.294 . S
In364 O366 2.326 . S
In364 O370 2.266 . S
In364 O371 2.326 . S
In364 O372 2.266 . S
In364 O373 2.326 . S
In364 O375 2.294 . S
In364 O376 2.326 . S
O365 In364 2.294 . S
O365 C374 1.240 . S
O366 In364 2.326 . S
O366 C374 1.252 . S
C367 O370 1.252 . S
C367 O371 1.260 . S
C368 O375 1.240 . S
C368 O376 1.252 . S
C369 O372 1.252 . S
C369 O373 1.260 . S
O370 In364 2.266 . S
O370 C367 1.252 . S
O371 In364 2.326 . S
O371 C367 1.260 . S
O372 In364 2.266 . S
O372 C369 1.252 . S
O373 In364 2.326 . S
O373 C369 1.260 . S
C374 O365 1.240 . S
C374 O366 1.252 . S
O375 In364 2.294 . S
O375 C368 1.240 . S
O376 In364 2.326 . S
O376 C368 1.252 . S
In377 O378 2.294 . S
In377 O379 2.326 . S
In377 O383 2.266 . S
In377 O384 2.326 . S
In377 O385 2.266 . S
In377 O386 2.326 . S
In377 O388 2.294 . S
In377 O389 2.326 . S
O378 In377 2.294 . S
O378 C387 1.240 . S
O379 In377 2.326 . S
O379 C387 1.252 . S
C380 O383 1.252 . S
C380 O384 1.260 . S
C381 O388 1.240 . S
C381 O389 1.252 . S
C382 O385 1.252 . S
C382 O386 1.260 . S
O383 In377 2.266 . S
O383 C380 1.252 . S
O384 In377 2.326 . S
O384 C380 1.260 . S
O385 In377 2.266 . S
O385 C382 1.252 . S
O386 In377 2.326 . S
O386 C382 1.260 . S
C387 O378 1.240 . S
C387 O379 1.252 . S
O388 In377 2.294 . S
O388 C381 1.240 . S
O389 In377 2.326 . S
O389 C381 1.252 . S
In390 O391 2.294 . S
In390 O392 2.326 . S
In390 O396 2.266 . S
In390 O397 2.326 . S
In390 O398 2.266 . S
In390 O399 2.326 . S
In390 O401 2.294 . S
In390 O402 2.326 . S
O391 In390 2.294 . S
O391 C400 1.240 . S
O392 In390 2.326 . S
O392 C400 1.252 . S
C393 O396 1.252 . S
C393 O397 1.260 . S
C394 O401 1.240 . S
C394 O402 1.252 . S
C395 O398 1.252 . S
C395 O399 1.260 . S
O396 In390 2.266 . S
O396 C393 1.252 . S
O397 In390 2.326 . S
O397 C393 1.260 . S
O398 In390 2.266 . S
O398 C395 1.252 . S
O399 In390 2.326 . S
O399 C395 1.260 . S
C400 O391 1.240 . S
C400 O392 1.252 . S
O401 In390 2.294 . S
O401 C394 1.240 . S
O402 In390 2.326 . S
O402 C394 1.252 . S
In403 O404 2.294 . S
In403 O405 2.326 . S
In403 O409 2.266 . S
In403 O410 2.326 . S
In403 O411 2.266 . S
In403 O412 2.326 . S
In403 O414 2.294 . S
In403 O415 2.326 . S
O404 In403 2.294 . S
O404 C413 1.240 . S
O405 In403 2.326 . S
O405 C413 1.252 . S
C406 O409 1.252 . S
C406 O410 1.260 . S
C407 O414 1.240 . S
C407 O415 1.252 . S
C408 O411 1.252 . S
C408 O412 1.260 . S
O409 In403 2.266 . S
O409 C406 1.252 . S
O410 In403 2.326 . S
O410 C406 1.260 . S
O411 In403 2.266 . S
O411 C408 1.252 . S
O412 In403 2.326 . S
O412 C408 1.260 . S
C413 O404 1.240 . S
C413 O405 1.252 . S
O414 In403 2.294 . S
O414 C407 1.240 . S
O415 In403 2.326 . S
O415 C407 1.252 . S
H416 C424 0.950 . S
H417 C429 0.950 . S
H418 C426 0.950 . S
H419 C428 0.950 . S
H420 C430 0.950 . S
H421 C432 0.950 . S
H422 C434 0.950 . S
H423 C435 0.950 . S
C424 H416 0.950 . S
C424 C425 1.386 . S
C424 C426 1.391 . S
C425 C424 1.386 . S
C425 C429 1.393 . S
C426 H418 0.950 . S
C426 C424 1.391 . S
C426 C427 1.400 . S
C427 C426 1.400 . S
C427 C428 1.398 . S
C427 C433 1.491 . S
C428 H419 0.950 . S
C428 C427 1.398 . S
C428 C429 1.391 . S
C429 H417 0.950 . S
C429 C425 1.393 . S
C429 C428 1.391 . S
C430 H420 0.950 . S
C430 C431 1.386 . S
C430 C432 1.391 . S
C431 C430 1.386 . S
C431 C435 1.393 . S
C432 H421 0.950 . S
C432 C430 1.391 . S
C432 C433 1.400 . S
C433 C427 1.491 . S
C433 C432 1.400 . S
C433 C434 1.398 . S
C434 H422 0.950 . S
C434 C433 1.398 . S
C434 C435 1.391 . S
C435 H423 0.950 . S
C435 C431 1.393 . S
C435 C434 1.391 . S
H436 C444 0.950 . S
H437 C449 0.950 . S
H438 C446 0.950 . S
H439 C448 0.950 . S
H440 C450 0.950 . S
H441 C452 0.950 . S
H442 C454 0.950 . S
H443 C455 0.950 . S
C444 H436 0.950 . S
C444 C445 1.386 . S
C444 C446 1.391 . S
C445 C444 1.386 . S
C445 C449 1.393 . S
C446 H438 0.950 . S
C446 C444 1.391 . S
C446 C447 1.400 . S
C447 C446 1.400 . S
C447 C448 1.398 . S
C447 C453 1.491 . S
C448 H439 0.950 . S
C448 C447 1.398 . S
C448 C449 1.391 . S
C449 H437 0.950 . S
C449 C445 1.393 . S
C449 C448 1.391 . S
C450 H440 0.950 . S
C450 C451 1.386 . S
C450 C452 1.391 . S
C451 C450 1.386 . S
C451 C455 1.393 . S
C452 H441 0.950 . S
C452 C450 1.391 . S
C452 C453 1.400 . S
C453 C447 1.491 . S
C453 C452 1.400 . S
C453 C454 1.398 . S
C454 H442 0.950 . S
C454 C453 1.398 . S
C454 C455 1.391 . S
C455 H443 0.950 . S
C455 C451 1.393 . S
C455 C454 1.391 . S
H456 C464 0.950 . S
H457 C469 0.950 . S
H458 C466 0.950 . S
H459 C468 0.950 . S
H460 C470 0.950 . S
H461 C472 0.950 . S
H462 C474 0.950 . S
H463 C475 0.950 . S
C464 H456 0.950 . S
C464 C465 1.386 . S
C464 C466 1.391 . S
C465 C464 1.386 . S
C465 C469 1.393 . S
C466 H458 0.950 . S
C466 C464 1.391 . S
C466 C467 1.400 . S
C467 C466 1.400 . S
C467 C468 1.398 . S
C467 C473 1.491 . S
C468 H459 0.950 . S
C468 C467 1.398 . S
C468 C469 1.391 . S
C469 H457 0.950 . S
C469 C465 1.393 . S
C469 C468 1.391 . S
C470 H460 0.950 . S
C470 C471 1.386 . S
C470 C472 1.391 . S
C471 C470 1.386 . S
C471 C475 1.393 . S
C472 H461 0.950 . S
C472 C470 1.391 . S
C472 C473 1.400 . S
C473 C467 1.491 . S
C473 C472 1.400 . S
C473 C474 1.398 . S
C474 H462 0.950 . S
C474 C473 1.398 . S
C474 C475 1.391 . S
C475 H463 0.950 . S
C475 C471 1.393 . S
C475 C474 1.391 . S
H476 C484 0.950 . S
H477 C489 0.950 . S
H478 C486 0.950 . S
H479 C488 0.950 . S
H480 C490 0.950 . S
H481 C492 0.950 . S
H482 C494 0.950 . S
H483 C495 0.950 . S
C484 H476 0.950 . S
C484 C485 1.386 . S
C484 C486 1.391 . S
C485 C484 1.386 . S
C485 C489 1.393 . S
C486 H478 0.950 . S
C486 C484 1.391 . S
C486 C487 1.400 . S
C487 C486 1.400 . S
C487 C488 1.398 . S
C487 C493 1.491 . S
C488 H479 0.950 . S
C488 C487 1.398 . S
C488 C489 1.391 . S
C489 H477 0.950 . S
C489 C485 1.393 . S
C489 C488 1.391 . S
C490 H480 0.950 . S
C490 C491 1.386 . S
C490 C492 1.391 . S
C491 C490 1.386 . S
C491 C495 1.393 . S
C492 H481 0.950 . S
C492 C490 1.391 . S
C492 C493 1.400 . S
C493 C487 1.491 . S
C493 C492 1.400 . S
C493 C494 1.398 . S
C494 H482 0.950 . S
C494 C493 1.398 . S
C494 C495 1.391 . S
C495 H483 0.950 . S
C495 C491 1.393 . S
C495 C494 1.391 . S
H496 C504 0.950 . S
H497 C509 0.950 . S
H498 C506 0.950 . S
H499 C508 0.950 . S
H500 C510 0.950 . S
H501 C512 0.950 . S
H502 C514 0.950 . S
H503 C515 0.950 . S
C504 H496 0.950 . S
C504 C505 1.386 . S
C504 C506 1.391 . S
C505 C504 1.386 . S
C505 C509 1.393 . S
C506 H498 0.950 . S
C506 C504 1.391 . S
C506 C507 1.400 . S
C507 C506 1.400 . S
C507 C508 1.398 . S
C507 C513 1.491 . S
C508 H499 0.950 . S
C508 C507 1.398 . S
C508 C509 1.391 . S
C509 H497 0.950 . S
C509 C505 1.393 . S
C509 C508 1.391 . S
C510 H500 0.950 . S
C510 C511 1.386 . S
C510 C512 1.391 . S
C511 C510 1.386 . S
C511 C515 1.393 . S
C512 H501 0.950 . S
C512 C510 1.391 . S
C512 C513 1.400 . S
C513 C507 1.491 . S
C513 C512 1.400 . S
C513 C514 1.398 . S
C514 H502 0.950 . S
C514 C513 1.398 . S
C514 C515 1.391 . S
C515 H503 0.950 . S
C515 C511 1.393 . S
C515 C514 1.391 . S
H516 C524 0.950 . S
H517 C529 0.950 . S
H518 C526 0.950 . S
H519 C528 0.950 . S
H520 C530 0.950 . S
H521 C532 0.950 . S
H522 C534 0.950 . S
H523 C535 0.950 . S
C524 H516 0.950 . S
C524 C525 1.386 . S
C524 C526 1.391 . S
C525 C524 1.386 . S
C525 C529 1.393 . S
C526 H518 0.950 . S
C526 C524 1.391 . S
C526 C527 1.400 . S
C527 C526 1.400 . S
C527 C528 1.398 . S
C527 C533 1.491 . S
C528 H519 0.950 . S
C528 C527 1.398 . S
C528 C529 1.391 . S
C529 H517 0.950 . S
C529 C525 1.393 . S
C529 C528 1.391 . S
C530 H520 0.950 . S
C530 C531 1.386 . S
C530 C532 1.391 . S
C531 C530 1.386 . S
C531 C535 1.393 . S
C532 H521 0.950 . S
C532 C530 1.391 . S
C532 C533 1.400 . S
C533 C527 1.491 . S
C533 C532 1.400 . S
C533 C534 1.398 . S
C534 H522 0.950 . S
C534 C533 1.398 . S
C534 C535 1.391 . S
C535 H523 0.950 . S
C535 C531 1.393 . S
C535 C534 1.391 . S
H536 C544 0.950 . S
H537 C549 0.950 . S
H538 C546 0.950 . S
H539 C548 0.950 . S
H540 C550 0.950 . S
H541 C552 0.950 . S
H542 C554 0.950 . S
H543 C555 0.950 . S
C544 H536 0.950 . S
C544 C545 1.386 . S
C544 C546 1.391 . S
C545 C544 1.386 . S
C545 C549 1.393 . S
C546 H538 0.950 . S
C546 C544 1.391 . S
C546 C547 1.400 . S
C547 C546 1.400 . S
C547 C548 1.398 . S
C547 C553 1.491 . S
C548 H539 0.950 . S
C548 C547 1.398 . S
C548 C549 1.391 . S
C549 H537 0.950 . S
C549 C545 1.393 . S
C549 C548 1.391 . S
C550 H540 0.950 . S
C550 C551 1.386 . S
C550 C552 1.391 . S
C551 C550 1.386 . S
C551 C555 1.393 . S
C552 H541 0.950 . S
C552 C550 1.391 . S
C552 C553 1.400 . S
C553 C547 1.491 . S
C553 C552 1.400 . S
C553 C554 1.398 . S
C554 H542 0.950 . S
C554 C553 1.398 . S
C554 C555 1.391 . S
C555 H543 0.950 . S
C555 C551 1.393 . S
C555 C554 1.391 . S
H556 C564 0.950 . S
H557 C569 0.950 . S
H558 C566 0.950 . S
H559 C568 0.950 . S
H560 C570 0.950 . S
H561 C572 0.950 . S
H562 C574 0.950 . S
H563 C575 0.950 . S
C564 H556 0.950 . S
C564 C565 1.386 . S
C564 C566 1.391 . S
C565 C564 1.386 . S
C565 C569 1.393 . S
C566 H558 0.950 . S
C566 C564 1.391 . S
C566 C567 1.400 . S
C567 C566 1.400 . S
C567 C568 1.398 . S
C567 C573 1.491 . S
C568 H559 0.950 . S
C568 C567 1.398 . S
C568 C569 1.391 . S
C569 H557 0.950 . S
C569 C565 1.393 . S
C569 C568 1.391 . S
C570 H560 0.950 . S
C570 C571 1.386 . S
C570 C572 1.391 . S
C571 C570 1.386 . S
C571 C575 1.393 . S
C572 H561 0.950 . S
C572 C570 1.391 . S
C572 C573 1.400 . S
C573 C567 1.491 . S
C573 C572 1.400 . S
C573 C574 1.398 . S
C574 H562 0.950 . S
C574 C573 1.398 . S
C574 C575 1.391 . S
C575 H563 0.950 . S
C575 C571 1.393 . S
C575 C574 1.391 . S
H576 C584 0.950 . S
H577 C589 0.950 . S
H578 C586 0.950 . S
H579 C588 0.950 . S
H580 C590 0.950 . S
H581 C592 0.950 . S
H582 C594 0.950 . S
H583 C595 0.950 . S
C584 H576 0.950 . S
C584 C585 1.386 . S
C584 C586 1.391 . S
C585 C584 1.386 . S
C585 C589 1.393 . S
C586 H578 0.950 . S
C586 C584 1.391 . S
C586 C587 1.400 . S
C587 C586 1.400 . S
C587 C588 1.398 . S
C587 C593 1.491 . S
C588 H579 0.950 . S
C588 C587 1.398 . S
C588 C589 1.391 . S
C589 H577 0.950 . S
C589 C585 1.393 . S
C589 C588 1.391 . S
C590 H580 0.950 . S
C590 C591 1.386 . S
C590 C592 1.391 . S
C591 C590 1.386 . S
C591 C595 1.393 . S
C592 H581 0.950 . S
C592 C590 1.391 . S
C592 C593 1.400 . S
C593 C587 1.491 . S
C593 C592 1.400 . S
C593 C594 1.398 . S
C594 H582 0.950 . S
C594 C593 1.398 . S
C594 C595 1.391 . S
C595 H583 0.950 . S
C595 C591 1.393 . S
C595 C594 1.391 . S
H596 C604 0.950 . S
H597 C609 0.950 . S
H598 C606 0.950 . S
H599 C608 0.950 . S
H600 C610 0.950 . S
H601 C612 0.950 . S
H602 C614 0.950 . S
H603 C615 0.950 . S
C604 H596 0.950 . S
C604 C605 1.386 . S
C604 C606 1.391 . S
C605 C604 1.386 . S
C605 C609 1.393 . S
C606 H598 0.950 . S
C606 C604 1.391 . S
C606 C607 1.400 . S
C607 C606 1.400 . S
C607 C608 1.398 . S
C607 C613 1.491 . S
C608 H599 0.950 . S
C608 C607 1.398 . S
C608 C609 1.391 . S
C609 H597 0.950 . S
C609 C605 1.393 . S
C609 C608 1.391 . S
C610 H600 0.950 . S
C610 C611 1.386 . S
C610 C612 1.391 . S
C611 C610 1.386 . S
C611 C615 1.393 . S
C612 H601 0.950 . S
C612 C610 1.391 . S
C612 C613 1.400 . S
C613 C607 1.491 . S
C613 C612 1.400 . S
C613 C614 1.398 . S
C614 H602 0.950 . S
C614 C613 1.398 . S
C614 C615 1.391 . S
C615 H603 0.950 . S
C615 C611 1.393 . S
C615 C614 1.391 . S
H616 C624 0.950 . S
H617 C629 0.950 . S
H618 C626 0.950 . S
H619 C628 0.950 . S
H620 C630 0.950 . S
H621 C632 0.950 . S
H622 C634 0.950 . S
H623 C635 0.950 . S
C624 H616 0.950 . S
C624 C625 1.386 . S
C624 C626 1.391 . S
C625 C624 1.386 . S
C625 C629 1.393 . S
C626 H618 0.950 . S
C626 C624 1.391 . S
C626 C627 1.400 . S
C627 C626 1.400 . S
C627 C628 1.398 . S
C627 C633 1.491 . S
C628 H619 0.950 . S
C628 C627 1.398 . S
C628 C629 1.391 . S
C629 H617 0.950 . S
C629 C625 1.393 . S
C629 C628 1.391 . S
C630 H620 0.950 . S
C630 C631 1.386 . S
C630 C632 1.391 . S
C631 C630 1.386 . S
C631 C635 1.393 . S
C632 H621 0.950 . S
C632 C630 1.391 . S
C632 C633 1.400 . S
C633 C627 1.491 . S
C633 C632 1.400 . S
C633 C634 1.398 . S
C634 H622 0.950 . S
C634 C633 1.398 . S
C634 C635 1.391 . S
C635 H623 0.950 . S
C635 C631 1.393 . S
C635 C634 1.391 . S
H636 C644 0.950 . S
H637 C649 0.950 . S
H638 C646 0.950 . S
H639 C648 0.950 . S
H640 C650 0.950 . S
H641 C652 0.950 . S
H642 C654 0.950 . S
H643 C655 0.950 . S
C644 H636 0.950 . S
C644 C645 1.386 . S
C644 C646 1.391 . S
C645 C644 1.386 . S
C645 C649 1.393 . S
C646 H638 0.950 . S
C646 C644 1.391 . S
C646 C647 1.400 . S
C647 C646 1.400 . S
C647 C648 1.398 . S
C647 C653 1.491 . S
C648 H639 0.950 . S
C648 C647 1.398 . S
C648 C649 1.391 . S
C649 H637 0.950 . S
C649 C645 1.393 . S
C649 C648 1.391 . S
C650 H640 0.950 . S
C650 C651 1.386 . S
C650 C652 1.391 . S
C651 C650 1.386 . S
C651 C655 1.393 . S
C652 H641 0.950 . S
C652 C650 1.391 . S
C652 C653 1.400 . S
C653 C647 1.491 . S
C653 C652 1.400 . S
C653 C654 1.398 . S
C654 H642 0.950 . S
C654 C653 1.398 . S
C654 C655 1.391 . S
C655 H643 0.950 . S
C655 C651 1.393 . S
C655 C654 1.391 . S
H656 C664 0.950 . S
H657 C669 0.950 . S
H658 C666 0.950 . S
H659 C668 0.950 . S
H660 C670 0.950 . S
H661 C672 0.950 . S
H662 C674 0.950 . S
H663 C675 0.950 . S
C664 H656 0.950 . S
C664 C665 1.386 . S
C664 C666 1.391 . S
C665 C664 1.386 . S
C665 C669 1.393 . S
C666 H658 0.950 . S
C666 C664 1.391 . S
C666 C667 1.400 . S
C667 C666 1.400 . S
C667 C668 1.398 . S
C667 C673 1.491 . S
C668 H659 0.950 . S
C668 C667 1.398 . S
C668 C669 1.391 . S
C669 H657 0.950 . S
C669 C665 1.393 . S
C669 C668 1.391 . S
C670 H660 0.950 . S
C670 C671 1.386 . S
C670 C672 1.391 . S
C671 C670 1.386 . S
C671 C675 1.393 . S
C672 H661 0.950 . S
C672 C670 1.391 . S
C672 C673 1.400 . S
C673 C667 1.491 . S
C673 C672 1.400 . S
C673 C674 1.398 . S
C674 H662 0.950 . S
C674 C673 1.398 . S
C674 C675 1.391 . S
C675 H663 0.950 . S
C675 C671 1.393 . S
C675 C674 1.391 . S
H676 C684 0.950 . S
H677 C689 0.950 . S
H678 C686 0.950 . S
H679 C688 0.950 . S
H680 C690 0.950 . S
H681 C692 0.950 . S
H682 C694 0.950 . S
H683 C695 0.950 . S
C684 H676 0.950 . S
C684 C685 1.386 . S
C684 C686 1.391 . S
C685 C684 1.386 . S
C685 C689 1.393 . S
C686 H678 0.950 . S
C686 C684 1.391 . S
C686 C687 1.400 . S
C687 C686 1.400 . S
C687 C688 1.398 . S
C687 C693 1.491 . S
C688 H679 0.950 . S
C688 C687 1.398 . S
C688 C689 1.391 . S
C689 H677 0.950 . S
C689 C685 1.393 . S
C689 C688 1.391 . S
C690 H680 0.950 . S
C690 C691 1.386 . S
C690 C692 1.391 . S
C691 C690 1.386 . S
C691 C695 1.393 . S
C692 H681 0.950 . S
C692 C690 1.391 . S
C692 C693 1.400 . S
C693 C687 1.491 . S
C693 C692 1.400 . S
C693 C694 1.398 . S
C694 H682 0.950 . S
C694 C693 1.398 . S
C694 C695 1.391 . S
C695 H683 0.950 . S
C695 C691 1.393 . S
C695 C694 1.391 . S
H696 C704 0.950 . S
H697 C709 0.950 . S
H698 C706 0.950 . S
H699 C708 0.950 . S
H700 C710 0.950 . S
H701 C712 0.950 . S
H702 C714 0.950 . S
H703 C715 0.950 . S
C704 H696 0.950 . S
C704 C705 1.386 . S
C704 C706 1.391 . S
C705 C704 1.386 . S
C705 C709 1.393 . S
C706 H698 0.950 . S
C706 C704 1.391 . S
C706 C707 1.400 . S
C707 C706 1.400 . S
C707 C708 1.398 . S
C707 C713 1.491 . S
C708 H699 0.950 . S
C708 C707 1.398 . S
C708 C709 1.391 . S
C709 H697 0.950 . S
C709 C705 1.393 . S
C709 C708 1.391 . S
C710 H700 0.950 . S
C710 C711 1.386 . S
C710 C712 1.391 . S
C711 C710 1.386 . S
C711 C715 1.393 . S
C712 H701 0.950 . S
C712 C710 1.391 . S
C712 C713 1.400 . S
C713 C707 1.491 . S
C713 C712 1.400 . S
C713 C714 1.398 . S
C714 H702 0.950 . S
C714 C713 1.398 . S
C714 C715 1.391 . S
C715 H703 0.950 . S
C715 C711 1.393 . S
C715 C714 1.391 . S
H716 C724 0.950 . S
H717 C729 0.950 . S
H718 C726 0.950 . S
H719 C728 0.950 . S
H720 C730 0.950 . S
H721 C732 0.950 . S
H722 C734 0.950 . S
H723 C735 0.950 . S
C724 H716 0.950 . S
C724 C725 1.386 . S
C724 C726 1.391 . S
C725 C724 1.386 . S
C725 C729 1.393 . S
C726 H718 0.950 . S
C726 C724 1.391 . S
C726 C727 1.400 . S
C727 C726 1.400 . S
C727 C728 1.398 . S
C727 C733 1.491 . S
C728 H719 0.950 . S
C728 C727 1.398 . S
C728 C729 1.391 . S
C729 H717 0.950 . S
C729 C725 1.393 . S
C729 C728 1.391 . S
C730 H720 0.950 . S
C730 C731 1.386 . S
C730 C732 1.391 . S
C731 C730 1.386 . S
C731 C735 1.393 . S
C732 H721 0.950 . S
C732 C730 1.391 . S
C732 C733 1.400 . S
C733 C727 1.491 . S
C733 C732 1.400 . S
C733 C734 1.398 . S
C734 H722 0.950 . S
C734 C733 1.398 . S
C734 C735 1.391 . S
C735 H723 0.950 . S
C735 C731 1.393 . S
C735 C734 1.391 . S
H736 C744 0.950 . S
H737 C749 0.950 . S
H738 C746 0.950 . S
H739 C748 0.950 . S
H740 C750 0.950 . S
H741 C752 0.950 . S
H742 C754 0.950 . S
H743 C755 0.950 . S
C744 H736 0.950 . S
C744 C745 1.386 . S
C744 C746 1.391 . S
C745 C744 1.386 . S
C745 C749 1.393 . S
C746 H738 0.950 . S
C746 C744 1.391 . S
C746 C747 1.400 . S
C747 C746 1.400 . S
C747 C748 1.398 . S
C747 C753 1.491 1_554 S
C748 H739 0.950 . S
C748 C747 1.398 . S
C748 C749 1.391 . S
C749 H737 0.950 . S
C749 C745 1.393 . S
C749 C748 1.391 . S
C750 H740 0.950 . S
C750 C751 1.386 . S
C750 C752 1.391 . S
C751 C750 1.386 . S
C751 C755 1.393 . S
C752 H741 0.950 . S
C752 C750 1.391 . S
C752 C753 1.400 . S
C753 C747 1.491 1_556 S
C753 C752 1.400 . S
C753 C754 1.398 . S
C754 H742 0.950 . S
C754 C753 1.398 . S
C754 C755 1.391 . S
C755 H743 0.950 . S
C755 C751 1.393 . S
C755 C754 1.391 . S
H756 C764 0.950 . S
H757 C769 0.950 . S
H758 C766 0.950 . S
H759 C768 0.950 . S
H760 C770 0.950 . S
H761 C772 0.950 . S
H762 C774 0.950 . S
H763 C775 0.950 . S
C764 H756 0.950 . S
C764 C765 1.386 . S
C764 C766 1.391 . S
C765 C764 1.386 . S
C765 C769 1.393 . S
C766 H758 0.950 . S
C766 C764 1.391 . S
C766 C767 1.400 . S
C767 C766 1.400 . S
C767 C768 1.398 . S
C767 C773 1.491 1_556 S
C768 H759 0.950 . S
C768 C767 1.398 . S
C768 C769 1.391 . S
C769 H757 0.950 . S
C769 C765 1.393 . S
C769 C768 1.391 . S
C770 H760 0.950 . S
C770 C771 1.386 . S
C770 C772 1.391 . S
C771 C770 1.386 . S
C771 C775 1.393 . S
C772 H761 0.950 . S
C772 C770 1.391 . S
C772 C773 1.400 . S
C773 C767 1.491 1_554 S
C773 C772 1.400 . S
C773 C774 1.398 . S
C774 H762 0.950 . S
C774 C773 1.398 . S
C774 C775 1.391 . S
C775 H763 0.950 . S
C775 C771 1.393 . S
C775 C774 1.391 . S
H776 C784 0.950 . S
H777 C789 0.950 . S
H778 C786 0.950 . S
H779 C788 0.950 . S
H780 C790 0.950 . S
H781 C792 0.950 . S
H782 C794 0.950 . S
H783 C795 0.950 . S
C784 H776 0.950 . S
C784 C785 1.386 . S
C784 C786 1.391 . S
C785 C784 1.386 . S
C785 C789 1.393 . S
C786 H778 0.950 . S
C786 C784 1.391 . S
C786 C787 1.400 . S
C787 C786 1.400 . S
C787 C788 1.398 . S
C787 C793 1.491 1_556 S
C788 H779 0.950 . S
C788 C787 1.398 . S
C788 C789 1.391 . S
C789 H777 0.950 . S
C789 C785 1.393 . S
C789 C788 1.391 . S
C790 H780 0.950 . S
C790 C791 1.386 . S
C790 C792 1.391 . S
C791 C790 1.386 . S
C791 C795 1.393 . S
C792 H781 0.950 . S
C792 C790 1.391 . S
C792 C793 1.400 . S
C793 C787 1.491 1_554 S
C793 C792 1.400 . S
C793 C794 1.398 . S
C794 H782 0.950 . S
C794 C793 1.398 . S
C794 C795 1.391 . S
C795 H783 0.950 . S
C795 C791 1.393 . S
C795 C794 1.391 . S
H796 C804 0.950 . S
H797 C809 0.950 . S
H798 C806 0.950 . S
H799 C808 0.950 . S
H800 C810 0.950 . S
H801 C812 0.950 . S
H802 C814 0.950 . S
H803 C815 0.950 . S
C804 H796 0.950 . S
C804 C805 1.386 . S
C804 C806 1.391 . S
C805 C804 1.386 . S
C805 C809 1.393 . S
C806 H798 0.950 . S
C806 C804 1.391 . S
C806 C807 1.400 . S
C807 C806 1.400 . S
C807 C808 1.398 . S
C807 C813 1.491 1_556 S
C808 H799 0.950 . S
C808 C807 1.398 . S
C808 C809 1.391 . S
C809 H797 0.950 . S
C809 C805 1.393 . S
C809 C808 1.391 . S
C810 H800 0.950 . S
C810 C811 1.386 . S
C810 C812 1.391 . S
C811 C810 1.386 . S
C811 C815 1.393 . S
C812 H801 0.950 . S
C812 C810 1.391 . S
C812 C813 1.400 . S
C813 C807 1.491 1_554 S
C813 C812 1.400 . S
C813 C814 1.398 . S
C814 H802 0.950 . S
C814 C813 1.398 . S
C814 C815 1.391 . S
C815 H803 0.950 . S
C815 C811 1.393 . S
C815 C814 1.391 . S
H816 C824 0.950 . S
H817 C829 0.950 . S
H818 C826 0.950 . S
H819 C828 0.950 . S
H820 C830 0.950 . S
H821 C832 0.950 . S
H822 C834 0.950 . S
H823 C835 0.950 . S
C824 H816 0.950 . S
C824 C825 1.386 . S
C824 C826 1.391 . S
C825 C824 1.386 . S
C825 C829 1.393 . S
C826 H818 0.950 . S
C826 C824 1.391 . S
C826 C827 1.400 . S
C827 C826 1.400 . S
C827 C828 1.398 . S
C827 C833 1.491 . S
C828 H819 0.950 . S
C828 C827 1.398 . S
C828 C829 1.391 . S
C829 H817 0.950 . S
C829 C825 1.393 . S
C829 C828 1.391 . S
C830 H820 0.950 . S
C830 C831 1.386 . S
C830 C832 1.391 . S
C831 C830 1.386 . S
C831 C835 1.393 . S
C832 H821 0.950 . S
C832 C830 1.391 . S
C832 C833 1.400 . S
C833 C827 1.491 . S
C833 C832 1.400 . S
C833 C834 1.398 . S
C834 H822 0.950 . S
C834 C833 1.398 . S
C834 C835 1.391 . S
C835 H823 0.950 . S
C835 C831 1.393 . S
C835 C834 1.391 . S
H836 C844 0.950 . S
H837 C849 0.950 . S
H838 C846 0.950 . S
H839 C848 0.950 . S
H840 C850 0.950 . S
H841 C852 0.950 . S
H842 C854 0.950 . S
H843 C855 0.950 . S
C844 H836 0.950 . S
C844 C845 1.386 . S
C844 C846 1.391 . S
C845 C844 1.386 . S
C845 C849 1.393 . S
C846 H838 0.950 . S
C846 C844 1.391 . S
C846 C847 1.400 . S
C847 C846 1.400 . S
C847 C848 1.398 . S
C847 C853 1.491 . S
C848 H839 0.950 . S
C848 C847 1.398 . S
C848 C849 1.391 . S
C849 H837 0.950 . S
C849 C845 1.393 . S
C849 C848 1.391 . S
C850 H840 0.950 . S
C850 C851 1.386 . S
C850 C852 1.391 . S
C851 C850 1.386 . S
C851 C855 1.393 . S
C852 H841 0.950 . S
C852 C850 1.391 . S
C852 C853 1.400 . S
C853 C847 1.491 . S
C853 C852 1.400 . S
C853 C854 1.398 . S
C854 H842 0.950 . S
C854 C853 1.398 . S
C854 C855 1.391 . S
C855 H843 0.950 . S
C855 C851 1.393 . S
C855 C854 1.391 . S
H856 C864 0.950 . S
H857 C869 0.950 . S
H858 C866 0.950 . S
H859 C868 0.950 . S
H860 C870 0.950 . S
H861 C872 0.950 . S
H862 C874 0.950 . S
H863 C875 0.950 . S
C864 H856 0.950 . S
C864 C865 1.386 . S
C864 C866 1.391 . S
C865 C864 1.386 . S
C865 C869 1.393 . S
C866 H858 0.950 . S
C866 C864 1.391 . S
C866 C867 1.400 . S
C867 C866 1.400 . S
C867 C868 1.398 . S
C867 C873 1.491 . S
C868 H859 0.950 . S
C868 C867 1.398 . S
C868 C869 1.391 . S
C869 H857 0.950 . S
C869 C865 1.393 . S
C869 C868 1.391 . S
C870 H860 0.950 . S
C870 C871 1.386 . S
C870 C872 1.391 . S
C871 C870 1.386 . S
C871 C875 1.393 . S
C872 H861 0.950 . S
C872 C870 1.391 . S
C872 C873 1.400 . S
C873 C867 1.491 . S
C873 C872 1.400 . S
C873 C874 1.398 . S
C874 H862 0.950 . S
C874 C873 1.398 . S
C874 C875 1.391 . S
C875 H863 0.950 . S
C875 C871 1.393 . S
C875 C874 1.391 . S
H876 C884 0.950 . S
H877 C889 0.950 . S
H878 C886 0.950 . S
H879 C888 0.950 . S
H880 C890 0.950 . S
H881 C892 0.950 . S
H882 C894 0.950 . S
H883 C895 0.950 . S
C884 H876 0.950 . S
C884 C885 1.386 . S
C884 C886 1.391 . S
C885 C884 1.386 . S
C885 C889 1.393 . S
C886 H878 0.950 . S
C886 C884 1.391 . S
C886 C887 1.400 . S
C887 C886 1.400 . S
C887 C888 1.398 . S
C887 C893 1.491 . S
C888 H879 0.950 . S
C888 C887 1.398 . S
C888 C889 1.391 . S
C889 H877 0.950 . S
C889 C885 1.393 . S
C889 C888 1.391 . S
C890 H880 0.950 . S
C890 C891 1.386 . S
C890 C892 1.391 . S
C891 C890 1.386 . S
C891 C895 1.393 . S
C892 H881 0.950 . S
C892 C890 1.391 . S
C892 C893 1.400 . S
C893 C887 1.491 . S
C893 C892 1.400 . S
C893 C894 1.398 . S
C894 H882 0.950 . S
C894 C893 1.398 . S
C894 C895 1.391 . S
C895 H883 0.950 . S
C895 C891 1.393 . S
C895 C894 1.391 . S
H896 C904 0.950 . S
H897 C909 0.950 . S
H898 C906 0.950 . S
H899 C908 0.950 . S
H900 C910 0.950 . S
H901 C912 0.950 . S
H902 C914 0.950 . S
H903 C915 0.950 . S
C904 H896 0.950 . S
C904 C905 1.386 . S
C904 C906 1.391 . S
C905 C904 1.386 . S
C905 C909 1.393 . S
C906 H898 0.950 . S
C906 C904 1.391 . S
C906 C907 1.400 . S
C907 C906 1.400 . S
C907 C908 1.398 . S
C907 C913 1.491 . S
C908 H899 0.950 . S
C908 C907 1.398 . S
C908 C909 1.391 . S
C909 H897 0.950 . S
C909 C905 1.393 . S
C909 C908 1.391 . S
C910 H900 0.950 . S
C910 C911 1.386 . S
C910 C912 1.391 . S
C911 C910 1.386 . S
C911 C915 1.393 . S
C912 H901 0.950 . S
C912 C910 1.391 . S
C912 C913 1.400 . S
C913 C907 1.491 . S
C913 C912 1.400 . S
C913 C914 1.398 . S
C914 H902 0.950 . S
C914 C913 1.398 . S
C914 C915 1.391 . S
C915 H903 0.950 . S
C915 C911 1.393 . S
C915 C914 1.391 . S
H916 C924 0.950 . S
H917 C929 0.950 . S
H918 C926 0.950 . S
H919 C928 0.950 . S
H920 C930 0.950 . S
H921 C932 0.950 . S
H922 C934 0.950 . S
H923 C935 0.950 . S
C924 H916 0.950 . S
C924 C925 1.386 . S
C924 C926 1.391 . S
C925 C924 1.386 . S
C925 C929 1.393 . S
C926 H918 0.950 . S
C926 C924 1.391 . S
C926 C927 1.400 . S
C927 C926 1.400 . S
C927 C928 1.398 . S
C927 C933 1.491 . S
C928 H919 0.950 . S
C928 C927 1.398 . S
C928 C929 1.391 . S
C929 H917 0.950 . S
C929 C925 1.393 . S
C929 C928 1.391 . S
C930 H920 0.950 . S
C930 C931 1.386 . S
C930 C932 1.391 . S
C931 C930 1.386 . S
C931 C935 1.393 . S
C932 H921 0.950 . S
C932 C930 1.391 . S
C932 C933 1.400 . S
C933 C927 1.491 . S
C933 C932 1.400 . S
C933 C934 1.398 . S
C934 H922 0.950 . S
C934 C933 1.398 . S
C934 C935 1.391 . S
C935 H923 0.950 . S
C935 C931 1.393 . S
C935 C934 1.391 . S
H936 C944 0.950 . S
H937 C949 0.950 . S
H938 C946 0.950 . S
H939 C948 0.950 . S
H940 C950 0.950 . S
H941 C952 0.950 . S
H942 C954 0.950 . S
H943 C955 0.950 . S
C944 H936 0.950 . S
C944 C945 1.386 . S
C944 C946 1.391 . S
C945 C944 1.386 . S
C945 C949 1.393 . S
C946 H938 0.950 . S
C946 C944 1.391 . S
C946 C947 1.400 . S
C947 C946 1.400 . S
C947 C948 1.398 . S
C947 C953 1.491 . S
C948 H939 0.950 . S
C948 C947 1.398 . S
C948 C949 1.391 . S
C949 H937 0.950 . S
C949 C945 1.393 . S
C949 C948 1.391 . S
C950 H940 0.950 . S
C950 C951 1.386 . S
C950 C952 1.391 . S
C951 C950 1.386 . S
C951 C955 1.393 . S
C952 H941 0.950 . S
C952 C950 1.391 . S
C952 C953 1.400 . S
C953 C947 1.491 . S
C953 C952 1.400 . S
C953 C954 1.398 . S
C954 H942 0.950 . S
C954 C953 1.398 . S
C954 C955 1.391 . S
C955 H943 0.950 . S
C955 C951 1.393 . S
C955 C954 1.391 . S
H956 C964 0.950 . S
H957 C969 0.950 . S
H958 C966 0.950 . S
H959 C968 0.950 . S
H960 C970 0.950 . S
H961 C972 0.950 . S
H962 C974 0.950 . S
H963 C975 0.950 . S
C964 H956 0.950 . S
C964 C965 1.386 . S
C964 C966 1.391 . S
C965 C964 1.386 . S
C965 C969 1.393 . S
C966 H958 0.950 . S
C966 C964 1.391 . S
C966 C967 1.400 . S
C967 C966 1.400 . S
C967 C968 1.398 . S
C967 C973 1.491 . S
C968 H959 0.950 . S
C968 C967 1.398 . S
C968 C969 1.391 . S
C969 H957 0.950 . S
C969 C965 1.393 . S
C969 C968 1.391 . S
C970 H960 0.950 . S
C970 C971 1.386 . S
C970 C972 1.391 . S
C971 C970 1.386 . S
C971 C975 1.393 . S
C972 H961 0.950 . S
C972 C970 1.391 . S
C972 C973 1.400 . S
C973 C967 1.491 . S
C973 C972 1.400 . S
C973 C974 1.398 . S
C974 H962 0.950 . S
C974 C973 1.398 . S
C974 C975 1.391 . S
C975 H963 0.950 . S
C975 C971 1.393 . S
C975 C974 1.391 . S
H976 C984 0.950 . S
H977 C989 0.950 . S
H978 C986 0.950 . S
H979 C988 0.950 . S
H980 C990 0.950 . S
H981 C992 0.950 . S
H982 C994 0.950 . S
H983 C995 0.950 . S
C984 H976 0.950 . S
C984 C985 1.386 . S
C984 C986 1.391 . S
C985 C984 1.386 . S
C985 C989 1.393 . S
C986 H978 0.950 . S
C986 C984 1.391 . S
C986 C987 1.400 . S
C987 C986 1.400 . S
C987 C988 1.398 . S
C987 C993 1.491 1_556 S
C988 H979 0.950 . S
C988 C987 1.398 . S
C988 C989 1.391 . S
C989 H977 0.950 . S
C989 C985 1.393 . S
C989 C988 1.391 . S
C990 H980 0.950 . S
C990 C991 1.386 . S
C990 C992 1.391 . S
C991 C990 1.386 . S
C991 C995 1.393 . S
C992 H981 0.950 . S
C992 C990 1.391 . S
C992 C993 1.400 . S
C993 C987 1.491 1_554 S
C993 C992 1.400 . S
C993 C994 1.398 . S
C994 H982 0.950 . S
C994 C993 1.398 . S
C994 C995 1.391 . S
C995 H983 0.950 . S
C995 C991 1.393 . S
C995 C994 1.391 . S
H996 C1004 0.950 . S
H997 C1009 0.950 . S
H998 C1006 0.950 . S
H999 C1008 0.950 . S
H1000 C1010 0.950 . S
H1001 C1012 0.950 . S
H1002 C1014 0.950 . S
H1003 C1015 0.950 . S
C1004 H996 0.950 . S
C1004 C1005 1.386 . S
C1004 C1006 1.391 . S
C1005 C1004 1.386 . S
C1005 C1009 1.393 . S
C1006 H998 0.950 . S
C1006 C1004 1.391 . S
C1006 C1007 1.400 . S
C1007 C1006 1.400 . S
C1007 C1008 1.398 . S
C1007 C1013 1.491 1_554 S
C1008 H999 0.950 . S
C1008 C1007 1.398 . S
C1008 C1009 1.391 . S
C1009 H997 0.950 . S
C1009 C1005 1.393 . S
C1009 C1008 1.391 . S
C1010 H1000 0.950 . S
C1010 C1011 1.386 . S
C1010 C1012 1.391 . S
C1011 C1010 1.386 . S
C1011 C1015 1.393 . S
C1012 H1001 0.950 . S
C1012 C1010 1.391 . S
C1012 C1013 1.400 . S
C1013 C1007 1.491 1_556 S
C1013 C1012 1.400 . S
C1013 C1014 1.398 . S
C1014 H1002 0.950 . S
C1014 C1013 1.398 . S
C1014 C1015 1.391 . S
C1015 H1003 0.950 . S
C1015 C1011 1.393 . S
C1015 C1014 1.391 . S
H1016 C1024 0.950 . S
H1017 C1029 0.950 . S
H1018 C1026 0.950 . S
H1019 C1028 0.950 . S
H1020 C1030 0.950 . S
H1021 C1032 0.950 . S
H1022 C1034 0.950 . S
H1023 C1035 0.950 . S
C1024 H1016 0.950 . S
C1024 C1025 1.386 . S
C1024 C1026 1.391 . S
C1025 C1024 1.386 . S
C1025 C1029 1.393 . S
C1026 H1018 0.950 . S
C1026 C1024 1.391 . S
C1026 C1027 1.400 . S
C1027 C1026 1.400 . S
C1027 C1028 1.398 . S
C1027 C1033 1.491 1_554 S
C1028 H1019 0.950 . S
C1028 C1027 1.398 . S
C1028 C1029 1.391 . S
C1029 H1017 0.950 . S
C1029 C1025 1.393 . S
C1029 C1028 1.391 . S
C1030 H1020 0.950 . S
C1030 C1031 1.386 . S
C1030 C1032 1.391 . S
C1031 C1030 1.386 . S
C1031 C1035 1.393 . S
C1032 H1021 0.950 . S
C1032 C1030 1.391 . S
C1032 C1033 1.400 . S
C1033 C1027 1.491 1_556 S
C1033 C1032 1.400 . S
C1033 C1034 1.398 . S
C1034 H1022 0.950 . S
C1034 C1033 1.398 . S
C1034 C1035 1.391 . S
C1035 H1023 0.950 . S
C1035 C1031 1.393 . S
C1035 C1034 1.391 . S
H1036 C1044 0.950 . S
H1037 C1049 0.950 . S
H1038 C1046 0.950 . S
H1039 C1048 0.950 . S
H1040 C1050 0.950 . S
H1041 C1052 0.950 . S
H1042 C1054 0.950 . S
H1043 C1055 0.950 . S
C1044 H1036 0.950 . S
C1044 C1045 1.386 . S
C1044 C1046 1.391 . S
C1045 C1044 1.386 . S
C1045 C1049 1.393 . S
C1046 H1038 0.950 . S
C1046 C1044 1.391 . S
C1046 C1047 1.400 . S
C1047 C1046 1.400 . S
C1047 C1048 1.398 . S
C1047 C1053 1.491 1_556 S
C1048 H1039 0.950 . S
C1048 C1047 1.398 . S
C1048 C1049 1.391 . S
C1049 H1037 0.950 . S
C1049 C1045 1.393 . S
C1049 C1048 1.391 . S
C1050 H1040 0.950 . S
C1050 C1051 1.386 . S
C1050 C1052 1.391 . S
C1051 C1050 1.386 . S
C1051 C1055 1.393 . S
C1052 H1041 0.950 . S
C1052 C1050 1.391 . S
C1052 C1053 1.400 . S
C1053 C1047 1.491 1_554 S
C1053 C1052 1.400 . S
C1053 C1054 1.398 . S
C1054 H1042 0.950 . S
C1054 C1053 1.398 . S
C1054 C1055 1.391 . S
C1055 H1043 0.950 . S
C1055 C1051 1.393 . S
C1055 C1054 1.391 . S
H1056 C1064 0.950 . S
H1057 C1069 0.950 . S
H1058 C1066 0.950 1_565 S
H1059 C1068 0.950 . S
H1060 C1070 0.950 . S
H1061 C1072 0.950 1_545 S
H1062 C1074 0.950 . S
H1063 C1075 0.950 . S
C1064 H1056 0.950 . S
C1064 C1065 1.386 . S
C1064 C1066 1.391 . S
C1065 C1064 1.386 . S
C1065 C1069 1.393 . S
C1066 H1058 0.950 1_545 S
C1066 C1064 1.391 . S
C1066 C1067 1.400 . S
C1067 C1066 1.400 . S
C1067 C1068 1.398 . S
C1067 C1073 1.491 1_545 S
C1068 H1059 0.950 . S
C1068 C1067 1.398 . S
C1068 C1069 1.391 . S
C1069 H1057 0.950 . S
C1069 C1065 1.393 . S
C1069 C1068 1.391 . S
C1070 H1060 0.950 . S
C1070 C1071 1.386 . S
C1070 C1072 1.391 . S
C1071 C1070 1.386 . S
C1071 C1075 1.393 . S
C1072 H1061 0.950 1_565 S
C1072 C1070 1.391 . S
C1072 C1073 1.400 . S
C1073 C1067 1.491 1_565 S
C1073 C1072 1.400 . S
C1073 C1074 1.398 . S
C1074 H1062 0.950 . S
C1074 C1073 1.398 . S
C1074 C1075 1.391 . S
C1075 H1063 0.950 . S
C1075 C1071 1.393 . S
C1075 C1074 1.391 . S
H1076 C1084 0.950 . S
H1077 C1089 0.950 . S
H1078 C1086 0.950 . S
H1079 C1088 0.950 . S
H1080 C1090 0.950 . S
H1081 C1092 0.950 . S
H1082 C1094 0.950 . S
H1083 C1095 0.950 . S
C1084 H1076 0.950 . S
C1084 C1085 1.386 . S
C1084 C1086 1.391 . S
C1085 C1084 1.386 . S
C1085 C1089 1.393 . S
C1086 H1078 0.950 . S
C1086 C1084 1.391 . S
C1086 C1087 1.400 . S
C1087 C1086 1.400 . S
C1087 C1088 1.398 . S
C1087 C1093 1.491 1_655 S
C1088 H1079 0.950 . S
C1088 C1087 1.398 . S
C1088 C1089 1.391 . S
C1089 H1077 0.950 . S
C1089 C1085 1.393 . S
C1089 C1088 1.391 . S
C1090 H1080 0.950 . S
C1090 C1091 1.386 . S
C1090 C1092 1.391 . S
C1091 C1090 1.386 . S
C1091 C1095 1.393 . S
C1092 H1081 0.950 . S
C1092 C1090 1.391 . S
C1092 C1093 1.400 . S
C1093 C1087 1.491 1_455 S
C1093 C1092 1.400 . S
C1093 C1094 1.398 . S
C1094 H1082 0.950 . S
C1094 C1093 1.398 . S
C1094 C1095 1.391 . S
C1095 H1083 0.950 . S
C1095 C1091 1.393 . S
C1095 C1094 1.391 . S
H1096 C1104 0.950 . S
H1097 C1109 0.950 . S
H1098 C1106 0.911 1_565 S
H1099 C1108 0.950 . S
H1100 C1110 0.950 . S
H1101 C1112 0.911 1_545 S
H1102 C1114 0.950 . S
H1103 C1115 0.950 . S
C1104 H1096 0.950 . S
C1104 C1105 1.386 . S
C1104 C1106 1.391 . S
C1105 C1104 1.386 . S
C1105 C1109 1.393 . S
C1106 H1098 0.911 1_545 S
C1106 C1104 1.391 . S
C1106 C1107 1.400 . S
C1107 C1106 1.400 . S
C1107 C1108 1.398 . S
C1107 C1113 1.491 1_545 S
C1108 H1099 0.950 . S
C1108 C1107 1.398 . S
C1108 C1109 1.391 . S
C1109 H1097 0.950 . S
C1109 C1105 1.393 . S
C1109 C1108 1.391 . S
C1110 H1100 0.950 . S
C1110 C1111 1.386 . S
C1110 C1112 1.391 . S
C1111 C1110 1.386 . S
C1111 C1115 1.393 . S
C1112 H1101 0.911 1_565 S
C1112 C1110 1.391 . S
C1112 C1113 1.400 . S
C1113 C1107 1.491 1_565 S
C1113 C1112 1.400 . S
C1113 C1114 1.398 . S
C1114 H1102 0.950 . S
C1114 C1113 1.398 . S
C1114 C1115 1.391 . S
C1115 H1103 0.950 . S
C1115 C1111 1.393 . S
C1115 C1114 1.391 . S
H1116 C1124 0.950 . S
H1117 C1129 0.950 . S
H1118 C1126 0.950 1_655 S
H1119 C1128 0.950 . S
H1120 C1130 0.950 . S
H1121 C1132 0.950 1_455 S
H1122 C1134 0.950 . S
H1123 C1135 0.950 . S
C1124 H1116 0.950 . S
C1124 C1125 1.386 . S
C1124 C1126 1.391 . S
C1125 C1124 1.386 . S
C1125 C1129 1.393 . S
C1126 H1118 0.950 1_455 S
C1126 C1124 1.391 . S
C1126 C1127 1.400 . S
C1127 C1126 1.400 . S
C1127 C1128 1.398 . S
C1127 C1133 1.491 1_455 S
C1128 H1119 0.950 . S
C1128 C1127 1.398 . S
C1128 C1129 1.391 . S
C1129 H1117 0.950 . S
C1129 C1125 1.393 . S
C1129 C1128 1.391 . S
C1130 H1120 0.950 . S
C1130 C1131 1.386 . S
C1130 C1132 1.391 . S
C1131 C1130 1.386 . S
C1131 C1135 1.393 . S
C1132 H1121 0.950 1_655 S
C1132 C1130 1.391 . S
C1132 C1133 1.400 . S
C1133 C1127 1.491 1_655 S
C1133 C1132 1.400 . S
C1133 C1134 1.398 . S
C1134 H1122 0.950 . S
C1134 C1133 1.398 . S
C1134 C1135 1.391 . S
C1135 H1123 0.950 . S
C1135 C1131 1.393 . S
C1135 C1134 1.391 . S
H1136 C1144 0.950 . S
H1137 C1149 0.950 . S
H1138 C1146 0.950 1_545 S
H1139 C1148 0.950 . S
H1140 C1150 0.950 . S
H1141 C1152 0.950 1_565 S
H1142 C1154 0.950 . S
H1143 C1155 0.950 . S
C1144 H1136 0.950 . S
C1144 C1145 1.386 . S
C1144 C1146 1.391 . S
C1145 C1144 1.386 . S
C1145 C1149 1.393 . S
C1146 H1138 0.950 1_565 S
C1146 C1144 1.391 . S
C1146 C1147 1.400 . S
C1147 C1146 1.400 . S
C1147 C1148 1.398 . S
C1147 C1153 1.491 1_565 S
C1148 H1139 0.950 . S
C1148 C1147 1.398 . S
C1148 C1149 1.391 . S
C1149 H1137 0.950 . S
C1149 C1145 1.393 . S
C1149 C1148 1.391 . S
C1150 H1140 0.950 . S
C1150 C1151 1.386 . S
C1150 C1152 1.391 . S
C1151 C1150 1.386 . S
C1151 C1155 1.393 . S
C1152 H1141 0.950 1_545 S
C1152 C1150 1.391 . S
C1152 C1153 1.400 . S
C1153 C1147 1.491 1_545 S
C1153 C1152 1.400 . S
C1153 C1154 1.398 . S
C1154 H1142 0.950 . S
C1154 C1153 1.398 . S
C1154 C1155 1.391 . S
C1155 H1143 0.950 . S
C1155 C1151 1.393 . S
C1155 C1154 1.391 . S
H1156 C1164 0.950 . S
H1157 C1169 0.950 . S
H1158 C1166 0.950 1_455 S
H1159 C1168 0.950 . S
H1160 C1170 0.950 . S
H1161 C1172 0.950 1_655 S
H1162 C1174 0.950 . S
H1163 C1175 0.950 . S
C1164 H1156 0.950 . S
C1164 C1165 1.386 . S
C1164 C1166 1.391 . S
C1165 C1164 1.386 . S
C1165 C1169 1.393 . S
C1166 H1158 0.950 1_655 S
C1166 C1164 1.391 . S
C1166 C1167 1.400 . S
C1167 C1166 1.400 . S
C1167 C1168 1.398 . S
C1167 C1173 1.491 1_655 S
C1168 H1159 0.950 . S
C1168 C1167 1.398 . S
C1168 C1169 1.391 . S
C1169 H1157 0.950 . S
C1169 C1165 1.393 . S
C1169 C1168 1.391 . S
C1170 H1160 0.950 . S
C1170 C1171 1.386 . S
C1170 C1172 1.391 . S
C1171 C1170 1.386 . S
C1171 C1175 1.393 . S
C1172 H1161 0.950 1_455 S
C1172 C1170 1.391 . S
C1172 C1173 1.400 . S
C1173 C1167 1.491 1_455 S
C1173 C1172 1.400 . S
C1173 C1174 1.398 . S
C1174 H1162 0.950 . S
C1174 C1173 1.398 . S
C1174 C1175 1.391 . S
C1175 H1163 0.950 . S
C1175 C1171 1.393 . S
C1175 C1174 1.391 . S
H1176 C1184 0.950 . S
H1177 C1189 0.950 . S
H1178 C1186 0.950 . S
H1179 C1188 0.950 1_545 S
H1180 C1190 0.950 . S
H1181 C1192 0.950 . S
H1182 C1194 0.950 1_565 S
H1183 C1195 0.950 . S
C1184 H1176 0.950 . S
C1184 C1185 1.386 . S
C1184 C1186 1.391 . S
C1185 C1184 1.386 . S
C1185 C1189 1.393 . S
C1186 H1178 0.950 . S
C1186 C1184 1.391 . S
C1186 C1187 1.400 . S
C1187 C1186 1.400 . S
C1187 C1188 1.398 . S
C1187 C1193 1.491 1_565 S
C1188 H1179 0.950 1_565 S
C1188 C1187 1.398 . S
C1188 C1189 1.391 . S
C1189 H1177 0.950 . S
C1189 C1185 1.393 . S
C1189 C1188 1.391 . S
C1190 H1180 0.950 . S
C1190 C1191 1.386 . S
C1190 C1192 1.391 . S
C1191 C1190 1.386 . S
C1191 C1195 1.393 . S
C1192 H1181 0.950 . S
C1192 C1190 1.391 . S
C1192 C1193 1.400 . S
C1193 C1187 1.491 1_545 S
C1193 C1192 1.400 . S
C1193 C1194 1.398 . S
C1194 H1182 0.950 1_545 S
C1194 C1193 1.398 . S
C1194 C1195 1.391 . S
C1195 H1183 0.950 . S
C1195 C1191 1.393 . S
C1195 C1194 1.391 . S
H1196 C1204 0.950 . S
H1197 C1209 0.950 . S
H1198 C1206 0.950 . S
H1199 C1208 0.950 1_455 S
H1200 C1210 0.950 . S
H1201 C1212 0.950 . S
H1202 C1214 0.950 1_655 S
H1203 C1215 0.950 . S
C1204 H1196 0.950 . S
C1204 C1205 1.386 . S
C1204 C1206 1.391 . S
C1205 C1204 1.386 . S
C1205 C1209 1.393 . S
C1206 H1198 0.950 . S
C1206 C1204 1.391 . S
C1206 C1207 1.400 . S
C1207 C1206 1.400 . S
C1207 C1208 1.398 . S
C1207 C1213 1.491 1_655 S
C1208 H1199 0.950 1_655 S
C1208 C1207 1.398 . S
C1208 C1209 1.391 . S
C1209 H1197 0.950 . S
C1209 C1205 1.393 . S
C1209 C1208 1.391 . S
C1210 H1200 0.950 . S
C1210 C1211 1.386 . S
C1210 C1212 1.391 . S
C1211 C1210 1.386 . S
C1211 C1215 1.393 . S
C1212 H1201 0.950 . S
C1212 C1210 1.391 . S
C1212 C1213 1.400 . S
C1213 C1207 1.491 1_455 S
C1213 C1212 1.400 . S
C1213 C1214 1.398 . S
C1214 H1202 0.950 1_455 S
C1214 C1213 1.398 . S
C1214 C1215 1.391 . S
C1215 H1203 0.950 . S
C1215 C1211 1.393 . S
C1215 C1214 1.391 . S
H1216 C1224 0.950 . S
H1217 C1229 0.950 . S
H1218 C1226 0.950 . S
H1219 C1228 0.950 . S
H1220 C1230 0.950 . S
H1221 C1232 0.950 . S
H1222 C1234 0.950 . S
H1223 C1235 0.950 . S
C1224 H1216 0.950 . S
C1224 C1225 1.386 . S
C1224 C1226 1.391 . S
C1225 C1224 1.386 . S
C1225 C1229 1.393 . S
C1226 H1218 0.950 . S
C1226 C1224 1.391 . S
C1226 C1227 1.400 . S
C1227 C1226 1.400 . S
C1227 C1228 1.398 . S
C1227 C1233 1.491 . S
C1228 H1219 0.950 . S
C1228 C1227 1.398 . S
C1228 C1229 1.391 . S
C1229 H1217 0.950 . S
C1229 C1225 1.393 . S
C1229 C1228 1.391 . S
C1230 H1220 0.950 . S
C1230 C1231 1.386 . S
C1230 C1232 1.391 . S
C1231 C1230 1.386 . S
C1231 C1235 1.393 . S
C1232 H1221 0.950 . S
C1232 C1230 1.391 . S
C1232 C1233 1.400 . S
C1233 C1227 1.491 . S
C1233 C1232 1.400 . S
C1233 C1234 1.398 . S
C1234 H1222 0.950 . S
C1234 C1233 1.398 . S
C1234 C1235 1.391 . S
C1235 H1223 0.950 . S
C1235 C1231 1.393 . S
C1235 C1234 1.391 . S
H1236 C1244 0.950 . S
H1237 C1249 0.950 . S
H1238 C1246 0.950 . S
H1239 C1248 0.950 . S
H1240 C1250 0.950 . S
H1241 C1252 0.950 . S
H1242 C1254 0.950 . S
H1243 C1255 0.950 . S
C1244 H1236 0.950 . S
C1244 C1245 1.386 . S
C1244 C1246 1.391 . S
C1245 C1244 1.386 . S
C1245 C1249 1.393 . S
C1246 H1238 0.950 . S
C1246 C1244 1.391 . S
C1246 C1247 1.400 . S
C1247 C1246 1.400 . S
C1247 C1248 1.398 . S
C1247 C1253 1.491 . S
C1248 H1239 0.950 . S
C1248 C1247 1.398 . S
C1248 C1249 1.391 . S
C1249 H1237 0.950 . S
C1249 C1245 1.393 . S
C1249 C1248 1.391 . S
C1250 H1240 0.950 . S
C1250 C1251 1.386 . S
C1250 C1252 1.391 . S
C1251 C1250 1.386 . S
C1251 C1255 1.393 . S
C1252 H1241 0.950 . S
C1252 C1250 1.391 . S
C1252 C1253 1.400 . S
C1253 C1247 1.491 . S
C1253 C1252 1.400 . S
C1253 C1254 1.398 . S
C1254 H1242 0.950 . S
C1254 C1253 1.398 . S
C1254 C1255 1.391 . S
C1255 H1243 0.950 . S
C1255 C1251 1.393 . S
C1255 C1254 1.391 . S
H1256 C1264 0.950 . S
H1257 C1269 0.950 . S
H1258 C1266 0.950 . S
H1259 C1268 0.950 . S
H1260 C1270 0.950 . S
H1261 C1272 0.950 . S
H1262 C1274 0.950 . S
H1263 C1275 0.950 . S
C1264 H1256 0.950 . S
C1264 C1265 1.386 . S
C1264 C1266 1.391 . S
C1265 C1264 1.386 . S
C1265 C1269 1.393 . S
C1266 H1258 0.950 . S
C1266 C1264 1.391 . S
C1266 C1267 1.400 . S
C1267 C1266 1.400 . S
C1267 C1268 1.398 . S
C1267 C1273 1.491 . S
C1268 H1259 0.950 . S
C1268 C1267 1.398 . S
C1268 C1269 1.391 . S
C1269 H1257 0.950 . S
C1269 C1265 1.393 . S
C1269 C1268 1.391 . S
C1270 H1260 0.950 . S
C1270 C1271 1.386 . S
C1270 C1272 1.391 . S
C1271 C1270 1.386 . S
C1271 C1275 1.393 . S
C1272 H1261 0.950 . S
C1272 C1270 1.391 . S
C1272 C1273 1.400 . S
C1273 C1267 1.491 . S
C1273 C1272 1.400 . S
C1273 C1274 1.398 . S
C1274 H1262 0.950 . S
C1274 C1273 1.398 . S
C1274 C1275 1.391 . S
C1275 H1263 0.950 . S
C1275 C1271 1.393 . S
C1275 C1274 1.391 . S
H1276 C1284 0.950 . S
H1277 C1289 0.950 . S
H1278 C1286 0.950 . S
H1279 C1288 0.950 . S
H1280 C1290 0.950 . S
H1281 C1292 0.950 . S
H1282 C1294 0.950 . S
H1283 C1295 0.950 . S
C1284 H1276 0.950 . S
C1284 C1285 1.386 . S
C1284 C1286 1.391 . S
C1285 C1284 1.386 . S
C1285 C1289 1.393 . S
C1286 H1278 0.950 . S
C1286 C1284 1.391 . S
C1286 C1287 1.400 . S
C1287 C1286 1.400 . S
C1287 C1288 1.398 . S
C1287 C1293 1.491 . S
C1288 H1279 0.950 . S
C1288 C1287 1.398 . S
C1288 C1289 1.391 . S
C1289 H1277 0.950 . S
C1289 C1285 1.393 . S
C1289 C1288 1.391 . S
C1290 H1280 0.950 . S
C1290 C1291 1.386 . S
C1290 C1292 1.391 . S
C1291 C1290 1.386 . S
C1291 C1295 1.393 . S
C1292 H1281 0.950 . S
C1292 C1290 1.391 . S
C1292 C1293 1.400 . S
C1293 C1287 1.491 . S
C1293 C1292 1.400 . S
C1293 C1294 1.398 . S
C1294 H1282 0.950 . S
C1294 C1293 1.398 . S
C1294 C1295 1.391 . S
C1295 H1283 0.950 . S
C1295 C1291 1.393 . S
C1295 C1294 1.391 . S
H1296 C1304 0.950 . S
H1297 C1309 0.950 . S
H1298 C1306 0.950 . S
H1299 C1308 0.950 . S
H1300 C1310 0.950 . S
H1301 C1312 0.950 . S
H1302 C1314 0.950 . S
H1303 C1315 0.950 . S
C1304 H1296 0.950 . S
C1304 C1305 1.386 . S
C1304 C1306 1.391 . S
C1305 C1304 1.386 . S
C1305 C1309 1.393 . S
C1306 H1298 0.950 . S
C1306 C1304 1.391 . S
C1306 C1307 1.400 . S
C1307 C1306 1.400 . S
C1307 C1308 1.398 . S
C1307 C1313 1.491 . S
C1308 H1299 0.950 . S
C1308 C1307 1.398 . S
C1308 C1309 1.391 . S
C1309 H1297 0.950 . S
C1309 C1305 1.393 . S
C1309 C1308 1.391 . S
C1310 H1300 0.950 . S
C1310 C1311 1.386 . S
C1310 C1312 1.391 . S
C1311 C1310 1.386 . S
C1311 C1315 1.393 . S
C1312 H1301 0.950 . S
C1312 C1310 1.391 . S
C1312 C1313 1.400 . S
C1313 C1307 1.491 . S
C1313 C1312 1.400 . S
C1313 C1314 1.398 . S
C1314 H1302 0.950 . S
C1314 C1313 1.398 . S
C1314 C1315 1.391 . S
C1315 H1303 0.950 . S
C1315 C1311 1.393 . S
C1315 C1314 1.391 . S
H1316 C1324 0.950 . S
H1317 C1329 0.950 . S
H1318 C1326 0.950 . S
H1319 C1328 0.950 . S
H1320 C1330 0.950 . S
H1321 C1332 0.950 . S
H1322 C1334 0.950 . S
H1323 C1335 0.950 . S
C1324 H1316 0.950 . S
C1324 C1325 1.386 . S
C1324 C1326 1.391 . S
C1325 C1324 1.386 . S
C1325 C1329 1.393 . S
C1326 H1318 0.950 . S
C1326 C1324 1.391 . S
C1326 C1327 1.400 . S
C1327 C1326 1.400 . S
C1327 C1328 1.398 . S
C1327 C1333 1.491 . S
C1328 H1319 0.950 . S
C1328 C1327 1.398 . S
C1328 C1329 1.391 . S
C1329 H1317 0.950 . S
C1329 C1325 1.393 . S
C1329 C1328 1.391 . S
C1330 H1320 0.950 . S
C1330 C1331 1.386 . S
C1330 C1332 1.391 . S
C1331 C1330 1.386 . S
C1331 C1335 1.393 . S
C1332 H1321 0.950 . S
C1332 C1330 1.391 . S
C1332 C1333 1.400 . S
C1333 C1327 1.491 . S
C1333 C1332 1.400 . S
C1333 C1334 1.398 . S
C1334 H1322 0.950 . S
C1334 C1333 1.398 . S
C1334 C1335 1.391 . S
C1335 H1323 0.950 . S
C1335 C1331 1.393 . S
C1335 C1334 1.391 . S
H1336 C1344 0.950 . S
H1337 C1349 0.950 . S
H1338 C1346 0.950 . S
H1339 C1348 0.950 . S
H1340 C1350 0.950 . S
H1341 C1352 0.950 . S
H1342 C1354 0.950 . S
H1343 C1355 0.950 . S
C1344 H1336 0.950 . S
C1344 C1345 1.386 . S
C1344 C1346 1.391 . S
C1345 C1344 1.386 . S
C1345 C1349 1.393 . S
C1346 H1338 0.950 . S
C1346 C1344 1.391 . S
C1346 C1347 1.400 . S
C1347 C1346 1.400 . S
C1347 C1348 1.398 . S
C1347 C1353 1.491 . S
C1348 H1339 0.950 . S
C1348 C1347 1.398 . S
C1348 C1349 1.391 . S
C1349 H1337 0.950 . S
C1349 C1345 1.393 . S
C1349 C1348 1.391 . S
C1350 H1340 0.950 . S
C1350 C1351 1.386 . S
C1350 C1352 1.391 . S
C1351 C1350 1.386 . S
C1351 C1355 1.393 . S
C1352 H1341 0.950 . S
C1352 C1350 1.391 . S
C1352 C1353 1.400 . S
C1353 C1347 1.491 . S
C1353 C1352 1.400 . S
C1353 C1354 1.398 . S
C1354 H1342 0.950 . S
C1354 C1353 1.398 . S
C1354 C1355 1.391 . S
C1355 H1343 0.950 . S
C1355 C1351 1.393 . S
C1355 C1354 1.391 . S
H1356 C1364 0.950 . S
H1357 C1369 0.950 . S
H1358 C1366 0.950 . S
H1359 C1368 0.950 . S
H1360 C1370 0.950 . S
H1361 C1372 0.950 . S
H1362 C1374 0.950 . S
H1363 C1375 0.950 . S
C1364 H1356 0.950 . S
C1364 C1365 1.386 . S
C1364 C1366 1.391 . S
C1365 C1364 1.386 . S
C1365 C1369 1.393 . S
C1366 H1358 0.950 . S
C1366 C1364 1.391 . S
C1366 C1367 1.400 . S
C1367 C1366 1.400 . S
C1367 C1368 1.398 . S
C1367 C1373 1.491 . S
C1368 H1359 0.950 . S
C1368 C1367 1.398 . S
C1368 C1369 1.391 . S
C1369 H1357 0.950 . S
C1369 C1365 1.393 . S
C1369 C1368 1.391 . S
C1370 H1360 0.950 . S
C1370 C1371 1.386 . S
C1370 C1372 1.391 . S
C1371 C1370 1.386 . S
C1371 C1375 1.393 . S
C1372 H1361 0.950 . S
C1372 C1370 1.391 . S
C1372 C1373 1.400 . S
C1373 C1367 1.491 . S
C1373 C1372 1.400 . S
C1373 C1374 1.398 . S
C1374 H1362 0.950 . S
C1374 C1373 1.398 . S
C1374 C1375 1.391 . S
C1375 H1363 0.950 . S
C1375 C1371 1.393 . S
C1375 C1374 1.391 . S
H1376 C1384 0.950 . S
H1377 C1389 0.950 . S
H1378 C1386 0.950 . S
H1379 C1388 0.950 . S
H1380 C1390 0.950 . S
H1381 C1392 0.950 . S
H1382 C1394 0.950 . S
H1383 C1395 0.950 . S
C1384 H1376 0.950 . S
C1384 C1385 1.386 . S
C1384 C1386 1.391 . S
C1385 C1384 1.386 . S
C1385 C1389 1.393 . S
C1386 H1378 0.950 . S
C1386 C1384 1.391 . S
C1386 C1387 1.400 . S
C1387 C1386 1.400 . S
C1387 C1388 1.398 . S
C1387 C1393 1.491 . S
C1388 H1379 0.950 . S
C1388 C1387 1.398 . S
C1388 C1389 1.391 . S
C1389 H1377 0.950 . S
C1389 C1385 1.393 . S
C1389 C1388 1.391 . S
C1390 H1380 0.950 . S
C1390 C1391 1.386 . S
C1390 C1392 1.391 . S
C1391 C1390 1.386 . S
C1391 C1395 1.393 . S
C1392 H1381 0.950 . S
C1392 C1390 1.391 . S
C1392 C1393 1.400 . S
C1393 C1387 1.491 . S
C1393 C1392 1.400 . S
C1393 C1394 1.398 . S
C1394 H1382 0.950 . S
C1394 C1393 1.398 . S
C1394 C1395 1.391 . S
C1395 H1383 0.950 . S
C1395 C1391 1.393 . S
C1395 C1394 1.391 . S
H1396 C1404 0.950 . S
H1397 C1409 0.950 . S
H1398 C1406 0.950 . S
H1399 C1408 0.950 . S
H1400 C1410 0.950 . S
H1401 C1412 0.950 . S
H1402 C1414 0.950 . S
H1403 C1415 0.950 . S
C1404 H1396 0.950 . S
C1404 C1405 1.386 . S
C1404 C1406 1.391 . S
C1405 C1404 1.386 . S
C1405 C1409 1.393 . S
C1406 H1398 0.950 . S
C1406 C1404 1.391 . S
C1406 C1407 1.400 . S
C1407 C1406 1.400 . S
C1407 C1408 1.398 . S
C1407 C1413 1.491 . S
C1408 H1399 0.950 . S
C1408 C1407 1.398 . S
C1408 C1409 1.391 . S
C1409 H1397 0.950 . S
C1409 C1405 1.393 . S
C1409 C1408 1.391 . S
C1410 H1400 0.950 . S
C1410 C1411 1.386 . S
C1410 C1412 1.391 . S
C1411 C1410 1.386 . S
C1411 C1415 1.393 . S
C1412 H1401 0.950 . S
C1412 C1410 1.391 . S
C1412 C1413 1.400 . S
C1413 C1407 1.491 . S
C1413 C1412 1.400 . S
C1413 C1414 1.398 . S
C1414 H1402 0.950 . S
C1414 C1413 1.398 . S
C1414 C1415 1.391 . S
C1415 H1403 0.950 . S
C1415 C1411 1.393 . S
C1415 C1414 1.391 . S
H1416 C1424 0.950 . S
H1417 C1429 0.950 . S
H1418 C1426 0.950 . S
H1419 C1428 0.950 . S
H1420 C1430 0.950 . S
H1421 C1432 0.950 . S
H1422 C1434 0.950 . S
H1423 C1435 0.950 . S
C1424 H1416 0.950 . S
C1424 C1425 1.386 . S
C1424 C1426 1.391 . S
C1425 C1424 1.386 . S
C1425 C1429 1.393 . S
C1426 H1418 0.950 . S
C1426 C1424 1.391 . S
C1426 C1427 1.400 . S
C1427 C1426 1.400 . S
C1427 C1428 1.398 . S
C1427 C1433 1.491 . S
C1428 H1419 0.950 . S
C1428 C1427 1.398 . S
C1428 C1429 1.391 . S
C1429 H1417 0.950 . S
C1429 C1425 1.393 . S
C1429 C1428 1.391 . S
C1430 H1420 0.950 . S
C1430 C1431 1.386 . S
C1430 C1432 1.391 . S
C1431 C1430 1.386 . S
C1431 C1435 1.393 . S
C1432 H1421 0.950 . S
C1432 C1430 1.391 . S
C1432 C1433 1.400 . S
C1433 C1427 1.491 . S
C1433 C1432 1.400 . S
C1433 C1434 1.398 . S
C1434 H1422 0.950 . S
C1434 C1433 1.398 . S
C1434 C1435 1.391 . S
C1435 H1423 0.950 . S
C1435 C1431 1.393 . S
C1435 C1434 1.391 . S
H1436 C1444 0.950 . S
H1437 C1449 0.950 . S
H1438 C1446 0.950 . S
H1439 C1448 0.950 . S
H1440 C1450 0.950 . S
H1441 C1452 0.950 . S
H1442 C1454 0.950 . S
H1443 C1455 0.950 . S
C1444 H1436 0.950 . S
C1444 C1445 1.386 . S
C1444 C1446 1.391 . S
C1445 C1444 1.386 . S
C1445 C1449 1.393 . S
C1446 H1438 0.950 . S
C1446 C1444 1.391 . S
C1446 C1447 1.400 . S
C1447 C1446 1.400 . S
C1447 C1448 1.398 . S
C1447 C1453 1.491 . S
C1448 H1439 0.950 . S
C1448 C1447 1.398 . S
C1448 C1449 1.391 . S
C1449 H1437 0.950 . S
C1449 C1445 1.393 . S
C1449 C1448 1.391 . S
C1450 H1440 0.950 . S
C1450 C1451 1.386 . S
C1450 C1452 1.391 . S
C1451 C1450 1.386 . S
C1451 C1455 1.393 . S
C1452 H1441 0.950 . S
C1452 C1450 1.391 . S
C1452 C1453 1.400 . S
C1453 C1447 1.491 . S
C1453 C1452 1.400 . S
C1453 C1454 1.398 . S
C1454 H1442 0.950 . S
C1454 C1453 1.398 . S
C1454 C1455 1.391 . S
C1455 H1443 0.950 . S
C1455 C1451 1.393 . S
C1455 C1454 1.391 . S
H1456 C1464 0.950 . S
H1457 C1469 0.950 . S
H1458 C1466 0.950 . S
H1459 C1468 0.950 . S
H1460 C1470 0.950 . S
H1461 C1472 0.950 . S
H1462 C1474 0.950 . S
H1463 C1475 0.950 . S
C1464 H1456 0.950 . S
C1464 C1465 1.386 . S
C1464 C1466 1.391 . S
C1465 C1464 1.386 . S
C1465 C1469 1.393 . S
C1466 H1458 0.950 . S
C1466 C1464 1.391 . S
C1466 C1467 1.400 . S
C1467 C1466 1.400 . S
C1467 C1468 1.398 . S
C1467 C1473 1.491 . S
C1468 H1459 0.950 . S
C1468 C1467 1.398 . S
C1468 C1469 1.391 . S
C1469 H1457 0.950 . S
C1469 C1465 1.393 . S
C1469 C1468 1.391 . S
C1470 H1460 0.950 . S
C1470 C1471 1.386 . S
C1470 C1472 1.391 . S
C1471 C1470 1.386 . S
C1471 C1475 1.393 . S
C1472 H1461 0.950 . S
C1472 C1470 1.391 . S
C1472 C1473 1.400 . S
C1473 C1467 1.491 . S
C1473 C1472 1.400 . S
C1473 C1474 1.398 . S
C1474 H1462 0.950 . S
C1474 C1473 1.398 . S
C1474 C1475 1.391 . S
C1475 H1463 0.950 . S
C1475 C1471 1.393 . S
C1475 C1474 1.391 . S
H1476 C1484 0.950 . S
H1477 C1489 0.950 . S
H1478 C1486 0.950 . S
H1479 C1488 0.950 . S
H1480 C1490 0.950 . S
H1481 C1492 0.950 . S
H1482 C1494 0.950 . S
H1483 C1495 0.950 . S
C1484 H1476 0.950 . S
C1484 C1485 1.386 . S
C1484 C1486 1.391 . S
C1485 C1484 1.386 . S
C1485 C1489 1.393 . S
C1486 H1478 0.950 . S
C1486 C1484 1.391 . S
C1486 C1487 1.400 . S
C1487 C1486 1.400 . S
C1487 C1488 1.398 . S
C1487 C1493 1.491 . S
C1488 H1479 0.950 . S
C1488 C1487 1.398 . S
C1488 C1489 1.391 . S
C1489 H1477 0.950 . S
C1489 C1485 1.393 . S
C1489 C1488 1.391 . S
C1490 H1480 0.950 . S
C1490 C1491 1.386 . S
C1490 C1492 1.391 . S
C1491 C1490 1.386 . S
C1491 C1495 1.393 . S
C1492 H1481 0.950 . S
C1492 C1490 1.391 . S
C1492 C1493 1.400 . S
C1493 C1487 1.491 . S
C1493 C1492 1.400 . S
C1493 C1494 1.398 . S
C1494 H1482 0.950 . S
C1494 C1493 1.398 . S
C1494 C1495 1.391 . S
C1495 H1483 0.950 . S
C1495 C1491 1.393 . S
C1495 C1494 1.391 . S
H1496 C1504 0.950 . S
H1497 C1509 0.950 . S
H1498 C1506 0.950 . S
H1499 C1508 0.950 . S
H1500 C1510 0.950 . S
H1501 C1512 0.950 . S
H1502 C1514 0.950 . S
H1503 C1515 0.950 . S
C1504 H1496 0.950 . S
C1504 C1505 1.386 . S
C1504 C1506 1.391 . S
C1505 C1504 1.386 . S
C1505 C1509 1.393 . S
C1506 H1498 0.950 . S
C1506 C1504 1.391 . S
C1506 C1507 1.400 . S
C1507 C1506 1.400 . S
C1507 C1508 1.398 . S
C1507 C1513 1.491 . S
C1508 H1499 0.950 . S
C1508 C1507 1.398 . S
C1508 C1509 1.391 . S
C1509 H1497 0.950 . S
C1509 C1505 1.393 . S
C1509 C1508 1.391 . S
C1510 H1500 0.950 . S
C1510 C1511 1.386 . S
C1510 C1512 1.391 . S
C1511 C1510 1.386 . S
C1511 C1515 1.393 . S
C1512 H1501 0.950 . S
C1512 C1510 1.391 . S
C1512 C1513 1.400 . S
C1513 C1507 1.491 . S
C1513 C1512 1.400 . S
C1513 C1514 1.398 . S
C1514 H1502 0.950 . S
C1514 C1513 1.398 . S
C1514 C1515 1.391 . S
C1515 H1503 0.950 . S
C1515 C1511 1.393 . S
C1515 C1514 1.391 . S
H1516 C1524 0.950 . S
H1517 C1529 0.950 . S
H1518 C1526 0.950 . S
H1519 C1528 0.950 . S
H1520 C1530 0.950 . S
H1521 C1532 0.950 . S
H1522 C1534 0.950 . S
H1523 C1535 0.950 . S
C1524 H1516 0.950 . S
C1524 C1525 1.386 . S
C1524 C1526 1.391 . S
C1525 C1524 1.386 . S
C1525 C1529 1.393 . S
C1526 H1518 0.950 . S
C1526 C1524 1.391 . S
C1526 C1527 1.400 . S
C1527 C1526 1.400 . S
C1527 C1528 1.398 . S
C1527 C1533 1.491 . S
C1528 H1519 0.950 . S
C1528 C1527 1.398 . S
C1528 C1529 1.391 . S
C1529 H1517 0.950 . S
C1529 C1525 1.393 . S
C1529 C1528 1.391 . S
C1530 H1520 0.950 . S
C1530 C1531 1.386 . S
C1530 C1532 1.391 . S
C1531 C1530 1.386 . S
C1531 C1535 1.393 . S
C1532 H1521 0.950 . S
C1532 C1530 1.391 . S
C1532 C1533 1.400 . S
C1533 C1527 1.491 . S
C1533 C1532 1.400 . S
C1533 C1534 1.398 . S
C1534 H1522 0.950 . S
C1534 C1533 1.398 . S
C1534 C1535 1.391 . S
C1535 H1523 0.950 . S
C1535 C1531 1.393 . S
C1535 C1534 1.391 . S
H1536 C1544 0.950 . S
H1537 C1549 0.950 . S
H1538 C1546 0.950 . S
H1539 C1548 0.950 . S
H1540 C1550 0.950 . S
H1541 C1552 0.950 . S
H1542 C1554 0.950 . S
H1543 C1555 0.950 . S
C1544 H1536 0.950 . S
C1544 C1545 1.386 . S
C1544 C1546 1.391 . S
C1545 C1544 1.386 . S
C1545 C1549 1.393 . S
C1546 H1538 0.950 . S
C1546 C1544 1.391 . S
C1546 C1547 1.400 . S
C1547 C1546 1.400 . S
C1547 C1548 1.398 . S
C1547 C1553 1.491 . S
C1548 H1539 0.950 . S
C1548 C1547 1.398 . S
C1548 C1549 1.391 . S
C1549 H1537 0.950 . S
C1549 C1545 1.393 . S
C1549 C1548 1.391 . S
C1550 H1540 0.950 . S
C1550 C1551 1.386 . S
C1550 C1552 1.391 . S
C1551 C1550 1.386 . S
C1551 C1555 1.393 . S
C1552 H1541 0.950 . S
C1552 C1550 1.391 . S
C1552 C1553 1.400 . S
C1553 C1547 1.491 . S
C1553 C1552 1.400 . S
C1553 C1554 1.398 . S
C1554 H1542 0.950 . S
C1554 C1553 1.398 . S
C1554 C1555 1.391 . S
C1555 H1543 0.950 . S
C1555 C1551 1.393 . S
C1555 C1554 1.391 . S
H1556 C1564 0.950 . S
H1557 C1569 0.950 . S
H1558 C1566 0.950 . S
H1559 C1568 0.950 . S
H1560 C1570 0.950 . S
H1561 C1572 0.950 . S
H1562 C1574 0.950 . S
H1563 C1575 0.950 . S
C1564 H1556 0.950 . S
C1564 C1565 1.386 . S
C1564 C1566 1.391 . S
C1565 C1564 1.386 . S
C1565 C1569 1.393 . S
C1566 H1558 0.950 . S
C1566 C1564 1.391 . S
C1566 C1567 1.400 . S
C1567 C1566 1.400 . S
C1567 C1568 1.398 . S
C1567 C1573 1.491 . S
C1568 H1559 0.950 . S
C1568 C1567 1.398 . S
C1568 C1569 1.391 . S
C1569 H1557 0.950 . S
C1569 C1565 1.393 . S
C1569 C1568 1.391 . S
C1570 H1560 0.950 . S
C1570 C1571 1.386 . S
C1570 C1572 1.391 . S
C1571 C1570 1.386 . S
C1571 C1575 1.393 . S
C1572 H1561 0.950 . S
C1572 C1570 1.391 . S
C1572 C1573 1.400 . S
C1573 C1567 1.491 . S
C1573 C1572 1.400 . S
C1573 C1574 1.398 . S
C1574 H1562 0.950 . S
C1574 C1573 1.398 . S
C1574 C1575 1.391 . S
C1575 H1563 0.950 . S
C1575 C1571 1.393 . S
C1575 C1574 1.391 . S
H1576 C1584 0.950 . S
H1577 C1589 0.950 . S
H1578 C1586 0.950 . S
H1579 C1588 0.950 . S
H1580 C1590 0.950 . S
H1581 C1592 0.950 . S
H1582 C1594 0.950 . S
H1583 C1595 0.950 . S
C1584 H1576 0.950 . S
C1584 C1585 1.386 . S
C1584 C1586 1.391 . S
C1585 C1584 1.386 . S
C1585 C1589 1.393 . S
C1586 H1578 0.950 . S
C1586 C1584 1.391 . S
C1586 C1587 1.400 . S
C1587 C1586 1.400 . S
C1587 C1588 1.398 . S
C1587 C1593 1.491 . S
C1588 H1579 0.950 . S
C1588 C1587 1.398 . S
C1588 C1589 1.391 . S
C1589 H1577 0.950 . S
C1589 C1585 1.393 . S
C1589 C1588 1.391 . S
C1590 H1580 0.950 . S
C1590 C1591 1.386 . S
C1590 C1592 1.391 . S
C1591 C1590 1.386 . S
C1591 C1595 1.393 . S
C1592 H1581 0.950 . S
C1592 C1590 1.391 . S
C1592 C1593 1.400 . S
C1593 C1587 1.491 . S
C1593 C1592 1.400 . S
C1593 C1594 1.398 . S
C1594 H1582 0.950 . S
C1594 C1593 1.398 . S
C1594 C1595 1.391 . S
C1595 H1583 0.950 . S
C1595 C1591 1.393 . S
C1595 C1594 1.391 . S
H1596 C1604 0.950 . S
H1597 C1609 0.950 . S
H1598 C1606 0.950 . S
H1599 C1608 0.950 . S
H1600 C1610 0.950 . S
H1601 C1612 0.950 . S
H1602 C1614 0.950 . S
H1603 C1615 0.950 . S
C1604 H1596 0.950 . S
C1604 C1605 1.386 . S
C1604 C1606 1.391 . S
C1605 C1604 1.386 . S
C1605 C1609 1.393 . S
C1606 H1598 0.950 . S
C1606 C1604 1.391 . S
C1606 C1607 1.400 . S
C1607 C1606 1.400 . S
C1607 C1608 1.398 . S
C1607 C1613 1.491 . S
C1608 H1599 0.950 . S
C1608 C1607 1.398 . S
C1608 C1609 1.391 . S
C1609 H1597 0.950 . S
C1609 C1605 1.393 . S
C1609 C1608 1.391 . S
C1610 H1600 0.950 . S
C1610 C1611 1.386 . S
C1610 C1612 1.391 . S
C1611 C1610 1.386 . S
C1611 C1615 1.393 . S
C1612 H1601 0.950 . S
C1612 C1610 1.391 . S
C1612 C1613 1.400 . S
C1613 C1607 1.491 . S
C1613 C1612 1.400 . S
C1613 C1614 1.398 . S
C1614 H1602 0.950 . S
C1614 C1613 1.398 . S
C1614 C1615 1.391 . S
C1615 H1603 0.950 . S
C1615 C1611 1.393 . S
C1615 C1614 1.391 . S
H1616 C1624 0.950 . S
H1617 C1629 0.950 . S
H1618 C1626 0.950 . S
H1619 C1628 0.950 . S
H1620 C1630 0.950 . S
H1621 C1632 0.950 . S
H1622 C1634 0.950 . S
H1623 C1635 0.950 . S
C1624 H1616 0.950 . S
C1624 C1625 1.386 . S
C1624 C1626 1.391 . S
C1625 C1624 1.386 . S
C1625 C1629 1.393 . S
C1626 H1618 0.950 . S
C1626 C1624 1.391 . S
C1626 C1627 1.400 . S
C1627 C1626 1.400 . S
C1627 C1628 1.398 . S
C1627 C1633 1.491 . S
C1628 H1619 0.950 . S
C1628 C1627 1.398 . S
C1628 C1629 1.391 . S
C1629 H1617 0.950 . S
C1629 C1625 1.393 . S
C1629 C1628 1.391 . S
C1630 H1620 0.950 . S
C1630 C1631 1.386 . S
C1630 C1632 1.391 . S
C1631 C1630 1.386 . S
C1631 C1635 1.393 . S
C1632 H1621 0.950 . S
C1632 C1630 1.391 . S
C1632 C1633 1.400 . S
C1633 C1627 1.491 . S
C1633 C1632 1.400 . S
C1633 C1634 1.398 . S
C1634 H1622 0.950 . S
C1634 C1633 1.398 . S
C1634 C1635 1.391 . S
C1635 H1623 0.950 . S
C1635 C1631 1.393 . S
C1635 C1634 1.391 . S
H1636 C1644 0.950 . S
H1637 C1649 0.950 . S
H1638 C1646 0.950 . S
H1639 C1648 0.950 . S
H1640 C1650 0.950 . S
H1641 C1652 0.950 . S
H1642 C1654 0.950 . S
H1643 C1655 0.950 . S
C1644 H1636 0.950 . S
C1644 C1645 1.386 . S
C1644 C1646 1.391 . S
C1645 C1644 1.386 . S
C1645 C1649 1.393 . S
C1646 H1638 0.950 . S
C1646 C1644 1.391 . S
C1646 C1647 1.400 . S
C1647 C1646 1.400 . S
C1647 C1648 1.398 . S
C1647 C1653 1.491 . S
C1648 H1639 0.950 . S
C1648 C1647 1.398 . S
C1648 C1649 1.391 . S
C1649 H1637 0.950 . S
C1649 C1645 1.393 . S
C1649 C1648 1.391 . S
C1650 H1640 0.950 . S
C1650 C1651 1.386 . S
C1650 C1652 1.391 . S
C1651 C1650 1.386 . S
C1651 C1655 1.393 . S
C1652 H1641 0.950 . S
C1652 C1650 1.391 . S
C1652 C1653 1.400 . S
C1653 C1647 1.491 . S
C1653 C1652 1.400 . S
C1653 C1654 1.398 . S
C1654 H1642 0.950 . S
C1654 C1653 1.398 . S
C1654 C1655 1.391 . S
C1655 H1643 0.950 . S
C1655 C1651 1.393 . S
C1655 C1654 1.391 . S
H1656 C1664 0.950 . S
H1657 C1669 0.950 . S
H1658 C1666 0.950 . S
H1659 C1668 0.950 . S
H1660 C1670 0.950 . S
H1661 C1672 0.950 . S
H1662 C1674 0.950 . S
H1663 C1675 0.950 . S
C1664 H1656 0.950 . S
C1664 C1665 1.386 . S
C1664 C1666 1.391 . S
C1665 C1664 1.386 . S
C1665 C1669 1.393 . S
C1666 H1658 0.950 . S
C1666 C1664 1.391 . S
C1666 C1667 1.400 . S
C1667 C1666 1.400 . S
C1667 C1668 1.398 . S
C1667 C1673 1.491 . S
C1668 H1659 0.950 . S
C1668 C1667 1.398 . S
C1668 C1669 1.391 . S
C1669 H1657 0.950 . S
C1669 C1665 1.393 . S
C1669 C1668 1.391 . S
C1670 H1660 0.950 . S
C1670 C1671 1.386 . S
C1670 C1672 1.391 . S
C1671 C1670 1.386 . S
C1671 C1675 1.393 . S
C1672 H1661 0.950 . S
C1672 C1670 1.391 . S
C1672 C1673 1.400 . S
C1673 C1667 1.491 . S
C1673 C1672 1.400 . S
C1673 C1674 1.398 . S
C1674 H1662 0.950 . S
C1674 C1673 1.398 . S
C1674 C1675 1.391 . S
C1675 H1663 0.950 . S
C1675 C1671 1.393 . S
C1675 C1674 1.391 . S
H1676 C1684 0.950 . S
H1677 C1689 0.950 . S
H1678 C1686 0.950 . S
H1679 C1688 0.950 . S
H1680 C1690 0.950 . S
H1681 C1692 0.950 . S
H1682 C1694 0.950 . S
H1683 C1695 0.950 . S
C1684 H1676 0.950 . S
C1684 C1685 1.386 . S
C1684 C1686 1.391 . S
C1685 C1684 1.386 . S
C1685 C1689 1.393 . S
C1686 H1678 0.950 . S
C1686 C1684 1.391 . S
C1686 C1687 1.400 . S
C1687 C1686 1.400 . S
C1687 C1688 1.398 . S
C1687 C1693 1.491 . S
C1688 H1679 0.950 . S
C1688 C1687 1.398 . S
C1688 C1689 1.391 . S
C1689 H1677 0.950 . S
C1689 C1685 1.393 . S
C1689 C1688 1.391 . S
C1690 H1680 0.950 . S
C1690 C1691 1.386 . S
C1690 C1692 1.391 . S
C1691 C1690 1.386 . S
C1691 C1695 1.393 . S
C1692 H1681 0.950 . S
C1692 C1690 1.391 . S
C1692 C1693 1.400 . S
C1693 C1687 1.491 . S
C1693 C1692 1.400 . S
C1693 C1694 1.398 . S
C1694 H1682 0.950 . S
C1694 C1693 1.398 . S
C1694 C1695 1.391 . S
C1695 H1683 0.950 . S
C1695 C1691 1.393 . S
C1695 C1694 1.391 . S
C425 C382 1.686 . S
C431 C5 1.682 . S
C445 C18 1.683 . S
C451 C395 1.686 . S
C465 C408 1.682 . S
C471 C29 1.687 . S
C485 C367 1.682 . S
C491 C44 1.686 . S
C505 C57 1.682 . S
C511 C356 1.686 . S
C525 C317 1.687 . S
C531 C68 1.681 . S
C545 C83 1.685 . S
C551 C328 1.683 . S
C565 C343 1.682 . S
C571 C96 1.686 . S
C585 C109 1.681 . S
C591 C278 1.687 . S
C605 C120 1.681 . S
C611 C289 1.687 . S
C625 C304 1.682 . S
C631 C135 1.686 . S
C645 C148 1.687 . S
C651 C265 1.681 . S
C665 C250 1.685 . S
C671 C161 1.683 . S
C685 C213 1.687 . S
C691 C172 1.681 . S
C705 C187 1.686 . S
C711 C226 1.682 . S
C725 C200 1.687 . S
C731 C237 1.681 . S
C745 C3 1.367 . S
C751 C133 1.362 . S
C765 C146 1.369 . S
C771 C16 1.360 . S
C785 C107 1.360 . S
C791 C31 1.368 . S
C805 C122 1.362 . S
C811 C42 1.366 . S
C825 C55 1.364 . S
C831 C185 1.365 . S
C845 C198 1.364 . S
C851 C70 1.365 . S
C865 C159 1.360 . S
C871 C81 1.369 . S
C885 C174 1.364 . S
C891 C94 1.365 . S
C905 C211 1.368 . S
C911 C341 1.361 . S
C925 C354 1.360 . S
C931 C224 1.369 . S
C945 C315 1.360 . S
C951 C239 1.369 . S
C965 C252 1.367 . S
C971 C330 1.362 . S
C985 C263 1.369 . S
C991 C393 1.360 . S
C1005 C406 1.360 . S
C1011 C276 1.369 . S
C1025 C369 1.368 . S
C1031 C291 1.361 . S
C1045 C302 1.364 . S
C1051 C380 1.365 . S
C1065 C4 1.654 . S
C1071 C56 1.656 . S
C1085 C17 1.653 . S
C1091 C75 1.655 . S
C1105 C82 1.654 . S
C1111 C36 1.655 . S
C1125 C43 1.657 . S
C1131 C95 1.660 . S
C1145 C108 1.666 . S
C1151 C160 1.663 . S
C1165 C179 1.660 . S
C1171 C127 1.657 . S
C1185 C186 1.663 . S
C1191 C134 1.665 . S
C1205 C147 1.666 . S
C1211 C199 1.667 . S
C1225 C212 1.654 . S
C1231 C264 1.653 . S
C1245 C277 1.656 . S
C1251 C225 1.658 . S
C1265 C244 1.666 . S
C1271 C296 1.664 . S
C1285 C303 1.666 . S
C1291 C257 1.664 . S
C1305 C374 1.654 . S
C1311 C316 1.656 . S
C1325 C335 1.653 . S
C1331 C381 1.654 . S
C1345 C342 1.656 . S
C1351 C394 1.654 . S
C1365 C355 1.655 . S
C1371 C407 1.653 . S
C1385 C10 1.405 . S
C1391 C69 1.412 . S
C1405 C23 1.407 . S
C1411 C88 1.408 . S
C1425 C101 1.412 . S
C1431 C30 1.405 . S
C1445 C62 1.406 . S
C1451 C49 1.409 . S
C1465 C173 1.413 . S
C1471 C114 1.409 . S
C1485 C192 1.405 . S
C1491 C121 1.411 . S
C1505 C205 1.413 . S
C1511 C140 1.408 . S
C1525 C153 1.411 . S
C1531 C166 1.411 . S
C1545 C218 1.410 . S
C1551 C283 1.406 . S
C1565 C290 1.407 . S
C1571 C231 1.413 . S
C1585 C309 1.408 . S
C1591 C238 1.413 . S
C1605 C251 1.406 . S
C1611 C270 1.413 . S
C1625 C387 1.409 . S
C1631 C322 1.413 . S
C1645 C329 1.408 . S
C1651 C400 1.407 . S
C1665 C348 1.413 . S
C1671 C413 1.407 . S
C1685 C368 1.413 . S
C1691 C361 1.408 . S
