# Generated by pormake.
# Topology snp, (6)-cn, num edge types: 1
# Building blocks:
#     Node 0, Type 0, BuildingBlock: CUKXOW_clean_sbu_0, # of connection points: 6
#     Node 1, Type 0, BuildingBlock: CUKXOW_clean_sbu_0, # of connection points: 6
#     Node 2, Type 0, BuildingBlock: CUKXOW_clean_sbu_0, # of connection points: 6
#     Node 3, Type 0, BuildingBlock: CUKXOW_clean_sbu_0, # of connection points: 6
#     Edge 4, Type (0, 0), BuildingBlock: FUNLAD_clean_linker_1, # of connection points: 2
#     Edge 5, Type (0, 0), BuildingBlock: FUNLAD_clean_linker_1, # of connection points: 2
#     Edge 6, Type (0, 0), BuildingBlock: FUNLAD_clean_linker_1, # of connection points: 2
#     Edge 7, Type (0, 0), BuildingBlock: FUNLAD_clean_linker_1, # of connection points: 2
#     Edge 8, Type (0, 0), BuildingBlock: FUNLAD_clean_linker_1, # of connection points: 2
#     Edge 9, Type (0, 0), BuildingBlock: FUNLAD_clean_linker_1, # of connection points: 2
#     Edge 10, Type (0, 0), BuildingBlock: FUNLAD_clean_linker_1, # of connection points: 2
#     Edge 11, Type (0, 0), BuildingBlock: FUNLAD_clean_linker_1, # of connection points: 2
#     Edge 12, Type (0, 0), BuildingBlock: FUNLAD_clean_linker_1, # of connection points: 2
#     Edge 13, Type (0, 0), BuildingBlock: FUNLAD_clean_linker_1, # of connection points: 2
#     Edge 14, Type (0, 0), BuildingBlock: FUNLAD_clean_linker_1, # of connection points: 2
#     Edge 15, Type (0, 0), BuildingBlock: FUNLAD_clean_linker_1, # of connection points: 2
# Relax obj value: 0.225
# Max RMSD: 0.184
# Mean RMSD: 0.180
data_MOF--net-snp--node1-CUKXOW_clean_sbu_0--edge1-FUNLAD_clean_linker_1
_symmetry_space_group_name_H-M    P1
_symmetry_Int_Tables_number       1
_symmetry_cell_setting            triclinic
loop_
_symmetry_equiv_pos_as_xyz
'x, y, z'
_cell_length_a     24.997244
_cell_length_b     25.55643
_cell_length_c     28.556058
_cell_angle_alpha  100.55884
_cell_angle_beta   98.341959
_cell_angle_gamma 101.72896
loop_
_atom_site_label
_atom_site_type_symbol
_atom_site_fract_x
_atom_site_fract_y
_atom_site_fract_z
_atom_type_partial_charge
Tb0 Tb 0.26435 0.09538 0.10876 0.0
C1 C 0.38489 0.11536 0.08249 0.0
Tb2 Tb 0.31453 0.20708 0.08122 0.0
O3 O 0.22688 0.04642 0.03439 0.0
O4 O 0.26636 0.12777 0.04661 0.0
O5 O 0.34663 0.08359 0.09955 0.0
C6 C 0.34107 0.27979 0.02835 0.0
O7 O 0.37916 0.16209 0.0702 0.0
C8 C 0.31604 0.21212 0.17477 0.0
C9 C 0.19797 0.18989 0.10928 0.0
O10 O 0.37643 0.26939 0.06152 0.0
O11 O 0.29203 0.24882 1.02483 0.0
O12 O 0.32105 0.25498 0.1556 0.0
O13 O 0.31849 0.17221 0.14249 0.0
O14 O 0.23089 0.2154 0.08416 0.0
O15 O 0.20658 0.14675 0.12655 0.0
C16 C 0.23604 0.02614 0.16495 0.0
O17 O 0.20231 0.03593 0.13046 0.0
O18 O 0.28604 0.05458 0.16729 0.0
C19 C 0.23983 0.0871 1.01331 0.0
Tb20 Tb 0.18936 0.3338 0.60609 0.0
C21 C 0.10123 0.39858 0.57141 0.0
Tb22 Tb 0.08641 0.27166 0.52304 0.0
O23 O 0.24929 0.3571 0.55865 0.0
O24 O 0.16938 0.31238 0.53114 0.0
O25 O 0.14747 0.40019 0.60188 0.0
C26 C 0.02331 0.25689 0.43598 0.0
O27 O 0.07037 0.35341 0.54065 0.0
C28 C 0.0754 0.25664 0.61057 0.0
C29 C 0.18512 0.21459 0.54815 0.0
O30 O 0.06746 0.29551 0.45448 0.0
O31 O 1.01448 0.22492 0.46615 0.0
O32 O 0.04613 0.22389 0.57052 0.0
O33 O 0.10271 0.29903 0.59983 0.0
O34 O 0.14153 0.2154 0.51549 0.0
O35 O 0.20591 0.25283 0.58843 0.0
C36 C 0.24669 0.35719 0.69565 0.0
O37 O 0.2174 0.30917 0.67221 0.0
O38 O 0.24342 0.39301 0.66897 0.0
C39 C 0.21416 0.33169 0.51859 0.0
Tb40 Tb 0.8614 0.99315 0.05615 0.0
C41 C 0.94584 0.97127 0.98798 0.0
Tb42 Tb 0.88914 0.07328 0.9825 0.0
O43 O 0.82207 0.9223 0.9958 0.0
O44 O 0.83052 1.00244 0.98642 0.0
O45 O 0.92587 0.96082 0.02662 0.0
C46 C 0.90975 0.11766 0.90533 0.0
O47 O 0.9355 0.01021 0.96521 0.0
C48 C 0.92843 0.11132 0.07584 0.0
C49 C 0.78597 0.07744 0.03625 0.0
O50 O 0.94687 0.11573 0.94159 0.0
O51 O 0.86104 0.09507 0.91296 0.0
O52 O 0.92112 0.14298 0.04574 0.0
O53 O 0.91972 0.06335 0.05168 0.0
O54 O 0.81039 0.08946 0.99952 0.0
O55 O 0.80268 0.04616 0.06565 0.0
C56 C 0.88076 0.96219 0.14136 0.0
O57 O 0.91675 0.99174 0.12253 0.0
O58 O 0.83229 0.9502 0.11234 0.0
C59 C 0.81698 0.95311 0.96424 0.0
Tb60 Tb 0.05481 0.91204 0.53659 0.0
C61 C 0.04155 0.78586 0.54465 0.0
Tb62 Tb 0.95552 0.85232 0.57755 0.0
O63 O 0.10802 0.95857 0.60767 0.0
O64 O 0.03428 0.90501 0.60358 0.0
O65 O 0.06874 0.82855 0.52987 0.0
C66 C 0.89903 0.80995 0.63935 0.0
O67 O 0.99594 0.78573 0.56319 0.0
C68 C 0.93056 0.85512 0.48517 0.0
C69 C 0.96472 0.97343 0.56943 0.0
O70 O 0.95214 0.81676 0.64128 0.0
O71 O 0.87751 0.82663 0.60231 0.0
O72 O 0.89445 0.84655 0.51301 0.0
O73 O 0.97774 0.85278 0.5075 0.0
O74 O 0.95022 0.93707 0.5957 0.0
O75 O 0.99981 0.96826 0.53893 0.0
C76 C 0.12295 0.94412 0.47844 0.0
O77 O 0.07181 0.94885 0.47515 0.0
O78 O 0.13582 0.92226 0.51468 0.0
C79 C 0.07493 0.93667 0.63359 0.0
H80 H 0.97066 0.89873 0.95085 0.0
C81 C 0.98584 0.94048 0.97188 0.0
H82 H 0.06968 0.93692 0.97707 0.0
H83 H 0.10294 0.204 1.02344 0.0
H84 H 0.10202 0.18942 0.93707 0.0
H85 H 0.07734 0.09576 0.88567 0.0
H86 H 0.05316 0.01693 0.92105 0.0
C87 C 0.04064 0.96153 0.9865 0.0
C88 C 0.06214 0.01742 1.01755 0.0
C89 C 0.07046 0.06326 0.99591 0.0
C90 C 0.08314 0.1169 1.02527 0.0
C91 C 0.0933 0.16216 1.00293 0.0
C92 C 0.09252 0.15439 0.95326 0.0
C93 C 0.07879 0.10178 0.92441 0.0
C94 C 0.06612 0.05673 0.94517 0.0
H95 H 0.15654 0.25454 0.13686 0.0
C96 C 0.14985 0.21161 0.11959 0.0
H97 H 0.0634 0.19781 0.11487 0.0
H98 H 0.05357 0.93796 0.07033 0.0
H99 H 0.06992 0.95272 0.1583 0.0
H100 H 0.09816 0.04651 0.20935 0.0
H101 H 0.10266 0.12558 0.17302 0.0
C102 C 0.09794 0.1804 0.10652 0.0
C103 C 0.08601 0.12426 0.07604 0.0
C104 C 0.08172 0.07863 0.09797 0.0
C105 C 0.06914 0.02494 0.06858 0.0
C106 C 0.06381 0.97974 0.09115 0.0
C107 C 0.07322 0.98765 0.14151 0.0
C108 C 0.08848 0.0404 0.17027 0.0
C109 C 0.09154 0.08548 0.14899 0.0
H110 H 0.89561 0.01268 0.58088 0.0
C111 C 0.93681 0.01918 0.57189 0.0
H112 H 0.93517 0.0987 0.56344 0.0
H113 H 0.20432 0.13765 0.62859 0.0
H114 H 0.18265 0.15215 0.70924 0.0
H115 H 0.08508 0.13017 0.72095 0.0
H116 H 1.00942 0.09572 0.65193 0.0
C117 C 0.95933 0.06791 0.56318 0.0
C118 C 0.01768 0.0826 0.55622 0.0
C119 C 0.06168 0.09919 0.59701 0.0
C120 C 0.11762 0.11019 0.59027 0.0
C121 C 0.16092 0.12876 0.63161 0.0
C122 C 0.14906 0.137 0.67817 0.0
C123 C 0.0943 0.12493 0.68476 0.0
C124 C 0.05107 0.10542 0.64479 0.0
H125 H 0.25751 0.17958 0.53781 0.0
C126 C 0.21344 0.16971 0.53888 0.0
H127 H 0.20989 0.08557 0.52992 0.0
H128 H 0.9428 0.05185 0.47085 0.0
H129 H 0.96461 0.04005 0.39 0.0
H130 H 0.06188 0.06243 0.37826 0.0
H131 H 0.13759 0.09363 0.44735 0.0
C132 C 0.18743 0.11764 0.53563 0.0
C133 C 0.12916 0.10333 0.54271 0.0
C134 C 0.08524 0.08784 0.50205 0.0
C135 C 0.02932 0.07723 0.50881 0.0
C136 C 0.9861 0.06046 0.46759 0.0
C137 C 0.99802 0.05416 0.42105 0.0
C138 C 0.0527 0.06635 0.41443 0.0
C139 C 0.09594 0.08356 0.45439 0.0
H140 H 0.72522 0.12722 1.02194 0.0
C141 C 0.73435 0.09623 0.04128 0.0
H142 H 0.70441 0.04105 0.08351 0.0
H143 H 0.52276 0.15616 0.15763 0.0
H144 H 0.58967 0.17104 0.23214 0.0
H145 H 0.68068 0.14803 0.23079 0.0
H146 H 0.70541 0.11 0.15495 0.0
C147 C 0.6959 0.07222 0.06416 0.0
C148 C 0.64086 0.08693 0.06433 0.0
C149 C 0.62676 0.10887 0.10901 0.0
C150 C 0.57414 0.12215 0.10982 0.0
C151 C 0.56178 0.14483 0.15493 0.0
C152 C 0.59989 0.15375 0.19799 0.0
C153 C 0.65114 0.14078 0.19723 0.0
C154 C 0.66472 0.11879 0.1534 0.0
H155 H 0.44211 0.06025 0.08919 0.0
C156 C 0.4378 0.09839 0.07908 0.0
H157 H 0.47776 0.16757 0.05567 0.0
H158 H 0.64995 0.03776 0.97276 0.0
H159 H 0.58325 0.02387 0.89856 0.0
H160 H 0.49439 0.05145 0.8998 0.0
H161 H 0.47139 0.0924 0.9756 0.0
C162 C 0.48127 0.12957 0.06637 0.0
C163 C 0.53545 0.11344 0.06595 0.0
C164 C 0.54929 0.09126 1.02132 0.0
C165 C 0.60147 0.07698 1.02051 0.0
C166 C 0.6123 0.05173 0.97554 0.0
C167 C 0.57404 0.04297 0.93259 0.0
C168 C 0.52396 0.05838 0.93329 0.0
C169 C 0.51136 0.08198 0.97704 0.0
H170 H 0.0413 0.44687 0.55095 0.0
C171 C 0.08337 0.44993 0.5695 0.0
H172 H 0.1613 0.50325 0.60283 0.0
H173 H 0.03371 0.64669 0.46823 0.0
H174 H 0.0414 0.57967 0.39907 0.0
H175 H 0.07936 0.50007 0.41053 0.0
H176 H 0.10881 0.48643 0.49117 0.0
C177 C 0.11895 0.49946 0.58461 0.0
C178 C 0.10184 0.55052 0.57729 0.0
C179 C 0.08731 0.55929 0.52982 0.0
C180 C 0.06775 0.60657 0.52321 0.0
C181 C 0.05048 0.61255 0.47542 0.0
C182 C 0.0545 0.57426 0.43535 0.0
C183 C 0.07571 0.52935 0.4418 0.0
C184 C 0.09207 0.5218 0.48835 0.0
H185 H 0.10299 0.73636 0.52907 0.0
C186 C 0.06414 0.73627 0.54193 0.0
H187 H 1.00163 0.69365 0.57282 0.0
H188 H 0.12983 0.54823 0.67306 0.0
H189 H 0.12716 0.61789 0.74231 0.0
H190 H 0.09699 0.70155 0.73096 0.0
H191 H 0.06904 0.71599 0.6503 0.0
C192 C 0.03938 0.69297 0.55828 0.0
C193 C 0.065 0.64616 0.56411 0.0
C194 C 0.08225 0.6387 0.61154 0.0
C195 C 0.10049 0.59084 0.61812 0.0
C196 C 0.11624 0.58407 0.66593 0.0
C197 C 0.11484 0.62371 0.70605 0.0
C198 C 0.09777 0.67077 0.69966 0.0
C199 C 0.08163 0.67841 0.6531 0.0
H200 H 0.26319 0.35314 0.4637 0.0
C201 C 0.22848 0.32321 0.46933 0.0
H202 H 0.17194 0.24699 0.43998 0.0
H203 H 0.18194 0.22366 0.21846 0.0
H204 H 0.08372 0.21779 0.21886 0.0
H205 H 0.05049 0.23522 0.2959 0.0
H206 H 0.11431 0.25719 0.37306 0.0
C207 C 0.20613 0.27737 0.43427 0.0
C208 C 0.22681 0.26614 0.38701 0.0
C209 C 0.18888 0.25352 0.34201 0.0
C210 C 0.20834 0.245 0.29719 0.0
C211 C 0.16934 0.23174 0.25316 0.0
C212 C 0.11297 0.22795 0.25293 0.0
C213 C 0.09418 0.2375 0.29639 0.0
C214 C 0.13138 0.25011 0.34046 0.0
H215 H 0.2948 0.17038 0.23391 0.0
C216 C 0.29916 0.209 0.22239 0.0
H217 H 0.28945 0.29006 0.23769 0.0
H218 H 0.30904 0.27245 0.46428 0.0
H219 H 0.40656 0.2779 0.46284 0.0
H220 H 0.4411 0.27221 0.38587 0.0
H221 H 0.37777 0.25945 0.30954 0.0
C222 C 0.28696 0.25215 0.25024 0.0
C223 C 0.26583 0.25013 0.29679 0.0
C224 C 0.30335 0.25978 0.34145 0.0
C225 C 0.28374 0.26612 0.38634 0.0
C226 C 0.32192 0.27127 0.42966 0.0
C227 C 0.37802 0.27367 0.42927 0.0
C228 C 0.39744 0.27025 0.3859 0.0
C229 C 0.36069 0.2631 0.34237 0.0
H230 H 0.10756 0.2449 0.68379 0.0
C231 C 0.07041 0.24765 0.66041 0.0
H232 H 0.98507 0.24247 0.64998 0.0
H233 H 0.89946 0.0802 0.77737 0.0
H234 H 0.84258 0.04047 0.69832 0.0
H235 H 0.85778 0.08225 0.62875 0.0
H236 H 0.93251 0.16114 0.63711 0.0
C237 C 0.02031 0.23795 0.67468 0.0
C238 C 1.00811 0.21701 0.71986 0.0
C239 C 0.9618 0.17183 0.71533 0.0
C240 C 0.95009 0.14974 0.75654 0.0
C241 C 0.90775 0.10118 0.74878 0.0
C242 C 0.87502 0.07733 0.70322 0.0
C243 C 0.88382 0.10062 0.66403 0.0
C244 C 0.92687 0.14668 0.66962 0.0
H245 H 0.88427 0.14951 0.84039 0.0
C246 C 0.91996 0.14187 0.86228 0.0
H247 H 1.0052 0.14479 0.87079 0.0
H248 H 0.09212 0.31041 0.74607 0.0
H249 H 0.14676 0.35173 0.82598 0.0
H250 H 0.12587 0.31449 0.8967 0.0
H251 H 0.04988 0.23581 0.88782 0.0
C252 C 0.97011 0.15222 0.84828 0.0
C253 C 0.98141 0.17513 0.80389 0.0
C254 C 0.02646 0.22141 0.80877 0.0
C255 C 0.03953 0.24241 0.76728 0.0
C256 C 0.08252 0.29043 0.775 0.0
C257 C 0.11362 0.31545 0.82108 0.0
C258 C 0.10179 0.29455 0.86092 0.0
C259 C 0.0584 0.24872 0.85515 0.0
H260 H 0.86831 0.85213 0.42161 0.0
C261 C 0.91301 0.86062 0.43426 0.0
H262 H 0.99081 0.88694 0.41549 0.0
H263 H 0.90739 0.84183 0.18808 0.0
H264 H 0.96027 0.77314 0.19454 0.0
H265 H 0.9961 0.75678 0.27427 0.0
H266 H 0.981 0.81021 0.3483 0.0
C267 C 0.94613 0.87982 0.40484 0.0
C268 C 0.92259 0.88965 0.35591 0.0
C269 C 0.93425 0.86048 0.31265 0.0
C270 C 0.9136 0.87024 0.26627 0.0
C271 C 0.92347 0.83773 0.22411 0.0
C272 C 0.95338 0.7977 0.22725 0.0
C273 C 0.97373 0.78861 0.27217 0.0
C274 C 0.9647 0.81962 0.31443 0.0
H275 H 0.94073 0.94757 0.19899 0.0
C276 C 0.89662 0.94309 0.1867 0.0
H277 H 0.81719 0.91966 0.20331 0.0
H278 H 0.89065 0.95381 0.42996 0.0
H279 H 0.83605 0.02062 0.42307 0.0
H280 H 0.80438 0.0402 0.34371 0.0
H281 H 0.8255 0.99143 0.27041 0.0
C282 C 0.8614 0.92267 0.21406 0.0
C283 C 0.88239 0.91062 0.26267 0.0
C284 C 0.87027 0.93948 0.30585 0.0
C285 C 0.88957 0.92867 0.35211 0.0
C286 C 0.87624 0.95869 0.39389 0.0
C287 C 0.84535 0.99792 0.39057 0.0
C288 C 0.8276 1.00902 0.34591 0.0
C289 C 0.83989 0.98045 0.30403 0.0
H290 H 0.08214 0.9064 0.70144 0.0
C291 C 0.0877 0.94338 0.68737 0.0
H292 H 0.11437 0.02807 0.7007 0.0
H293 H 0.12838 0.95254 0.91914 0.0
H294 H 0.0402 0.88753 0.88675 0.0
H295 H 0.98934 0.88249 0.80488 0.0
H296 H 0.02891 0.9389 0.75349 0.0
C297 C 0.11052 0.99317 0.71748 0.0
C298 C 0.13496 1.00402 0.77151 0.0
C299 C 0.108 0.97654 0.80385 0.0
C300 C 0.13457 0.98453 0.85346 0.0
C301 C 0.10976 0.95026 0.88209 0.0
C302 C 0.05868 0.9129 0.8641 0.0
C303 C 0.03021 0.90974 0.81789 0.0
C304 C 0.05405 0.9416 0.78828 0.0
H305 H 0.21909 0.12205 0.94876 0.0
C306 C 0.22289 0.08455 0.96027 0.0
H307 H 0.21487 0.9999 0.94066 0.0
H308 H 0.20323 0.06163 0.72163 0.0
H309 H 0.28746 0.13132 0.75504 0.0
H310 H 0.32697 0.15297 0.8424 0.0
H311 H 0.28266 0.10433 0.89647 0.0
C312 C 0.20943 0.03595 0.92726 0.0
C313 C 0.18399 0.0266 0.87374 0.0
C314 C 0.21002 0.05581 0.84198 0.0
C315 C 0.18645 0.04366 0.79111 0.0
C316 C 0.21647 0.0709 0.76051 0.0
C317 C 0.26583 0.11054 0.77912 0.0
C318 C 0.28807 0.12272 0.82828 0.0
C319 C 0.26139 0.09503 0.85922 0.0
H320 H 0.80058 0.96356 0.88917 0.0
C321 C 0.80952 0.93499 0.9114 0.0
H322 H 0.82915 0.85893 0.91326 0.0
H323 H 0.74724 0.74289 0.69386 0.0
H324 H 0.6843 0.68628 0.7322 0.0
H325 H 0.68175 0.71477 0.81907 0.0
H326 H 0.74232 0.7995 0.86829 0.0
C327 C 0.81993 0.88741 0.89101 0.0
C328 C 0.81952 0.87203 0.83802 0.0
C329 C 0.78306 0.82276 0.80973 0.0
C330 C 0.78391 0.80653 0.75954 0.0
C331 C 0.74801 0.75681 0.73217 0.0
C332 C 0.71168 0.72413 0.75367 0.0
C333 C 0.71026 0.74018 0.8026 0.0
C334 C 0.74538 0.78888 0.83048 0.0
H335 H 0.89693 0.79103 0.71075 0.0
C336 C 0.87242 0.80141 0.68061 0.0
H337 H 0.80451 0.83457 0.65869 0.0
H338 H 0.90178 0.96423 0.88176 0.0
H339 H 0.96032 0.02283 0.84255 0.0
H340 H 0.9531 1.00003 0.75372 0.0
H341 H 0.88855 0.91781 0.70461 0.0
C342 C 0.82744 0.82064 0.6874 0.0
C343 C 0.82038 0.84001 0.73773 0.0
C344 C 0.85483 0.89057 0.76521 0.0
C345 C 0.85626 0.90549 0.81578 0.0
C346 C 0.89602 0.95293 0.84305 0.0
C347 C 0.9304 0.98664 0.82087 0.0
C348 C 0.92652 0.9737 0.77098 0.0
C349 C 0.88948 0.92617 0.7433 0.0
H350 H 0.1734 0.9828 0.19956 0.0
C351 C 0.21777 0.99786 0.20214 0.0
H352 H 0.29743 0.01437 0.24546 0.0
H353 H 0.21281 0.05773 0.44248 0.0
H354 H 0.27839 0.14332 0.44667 0.0
H355 H 0.32329 0.1579 0.37717 0.0
H356 H 0.30242 0.08806 0.30343 0.0
C357 C 0.2531 0.99783 0.24221 0.0
C358 C 0.23125 0.98617 0.28593 0.0
C359 C 0.24356 0.02821 0.32866 0.0
C360 C 0.2165 0.02037 0.36819 0.0
C361 C 0.2304 0.06243 0.41078 0.0
C362 C 0.26842 0.11156 0.41381 0.0
C363 C 0.29365 0.11984 0.37473 0.0
C364 C 0.28145 0.07899 0.33254 0.0
H365 H 0.20261 0.95369 0.45278 0.0
C366 C 0.15957 0.95626 0.44406 0.0
H367 H 0.09629 0.96551 0.39108 0.0
H368 H 0.20873 0.89303 0.21452 0.0
H369 H 0.14422 0.80688 0.21132 0.0
H370 H 0.09338 0.79525 0.27784 0.0
H371 H 0.10549 0.86995 0.34762 0.0
C372 C 0.14015 0.96642 0.40126 0.0
C373 C 0.17546 0.97158 0.36397 0.0
C374 C 0.16581 0.92833 0.32258 0.0
C375 C 0.19466 0.93521 0.28395 0.0
C376 C 0.18638 0.8905 0.24407 0.0
C377 C 0.14984 0.84074 0.24197 0.0
C378 C 0.12101 0.83426 0.27938 0.0
C379 C 0.12846 0.87745 0.31921 0.0
H380 H 0.27541 0.40786 0.76993 0.0
C381 C 0.27405 0.36879 0.74652 0.0
H382 H 0.28846 0.28988 0.74009 0.0
H383 H 0.39068 0.41663 0.9735 0.0
H384 H 0.45438 0.48309 0.94449 0.0
H385 H 0.4489 0.47839 0.85678 0.0
H386 H 0.37906 0.408 0.79763 0.0
C387 C 0.2902 0.32845 0.76459 0.0
C388 C 0.29803 0.32948 0.81719 0.0
C389 C 0.34059 0.3697 0.85098 0.0
C390 C 0.34536 0.371 0.9014 0.0
C391 C 0.38636 0.41298 0.93471 0.0
C392 C 0.42304 0.45141 0.91855 0.0
C393 C 0.41983 0.44887 0.86917 0.0
C394 C 0.37926 0.4085 0.8356 0.0
H395 H 0.39277 0.31233 0.97933 0.0
C396 C 0.35443 0.31275 0.99294 0.0
H397 H 0.27541 0.32974 0.98405 0.0
H398 H 0.21017 0.24749 0.76209 0.0
H399 H 0.15267 0.17657 0.79087 0.0
H400 H 0.16691 0.17373 0.87718 0.0
H401 H 0.2372 0.24302 0.93588 0.0
C402 C 0.31344 0.33033 0.96957 0.0
C403 C 0.30927 0.33063 0.91744 0.0
C404 C 0.2683 0.28891 0.88347 0.0
C405 C 0.26193 0.28897 0.83336 0.0
C406 C 0.2188 0.24832 0.80044 0.0
C407 C 0.18504 0.20743 0.81639 0.0
C408 C 0.1928 0.20604 0.86511 0.0
C409 C 0.2335 0.2463 0.89844 0.0
H410 H 0.89844 0.09052 0.13985 0.0
C411 C 0.92243 0.12338 0.12677 0.0
H412 H 0.97211 0.20392 0.14553 0.0
H413 H 0.8984 0.2818 0.34333 0.0
H414 H 0.87276 0.34661 0.29658 0.0
H415 H 0.87828 0.33394 0.20978 0.0
H416 H 0.90999 0.25711 0.16928 0.0
C417 C 0.94837 0.17052 0.15818 0.0
C418 C 0.94447 0.17798 0.21068 0.0
C419 C 0.92502 0.22277 0.23348 0.0
C420 C 0.92158 0.2301 0.28351 0.0
C421 C 0.90261 0.27526 0.30563 0.0
C422 C 0.88739 0.31234 0.27914 0.0
C423 C 0.89045 0.30516 0.23025 0.0
C424 C 0.90887 0.26092 0.20745 0.0
H425 H 1.0129 0.27562 0.36435 0.0
C426 C 0.99397 0.24876 0.38591 0.0
H427 H 0.93164 0.17966 0.38565 0.0
H428 H 0.99396 0.09315 0.18311 0.0
H429 H 1.01 0.02467 0.22846 0.0
H430 H 0.98573 0.02784 0.30871 0.0
H431 H 0.95115 0.10414 0.34729 0.0
C432 C 0.95014 0.2073 0.36456 0.0
C433 C 0.93651 0.1922 0.31046 0.0
C434 C 0.95055 0.14481 0.28658 0.0
C435 C 0.95844 0.13957 0.23784 0.0
C436 C 0.98237 0.09679 0.21826 0.0
C437 C 0.99259 0.05755 0.24411 0.0
C438 C 0.97954 0.05973 0.28976 0.0
C439 C 0.95974 0.10341 0.31133 0.0
loop_
_geom_bond_atom_site_label_1
_geom_bond_atom_site_label_2
_geom_bond_distance
_geom_bond_site_symmetry_2
_ccdc_geom_bond_type
Tb0 O3 2.453 1_554 S
Tb0 O4 2.596 . S
Tb0 O5 2.374 . S
Tb0 O13 2.343 . S
Tb0 O15 2.353 . S
Tb0 O17 2.427 . S
Tb0 O18 2.513 . S
C1 O5 1.251 . S
C1 O7 1.263 . S
Tb2 O4 2.343 . S
Tb2 O7 2.353 . S
Tb2 O10 2.427 1_554 S
Tb2 O11 2.513 1_554 S
Tb2 O12 2.453 . S
Tb2 O13 2.596 . S
Tb2 O14 2.374 . S
O3 Tb0 2.453 1_556 S
O3 C19 1.245 . S
O4 Tb0 2.596 . S
O4 Tb2 2.343 . S
O4 C19 1.259 1_554 S
O5 Tb0 2.374 . S
O5 C1 1.251 . S
C6 O10 1.275 . S
C6 O11 1.246 . S
O7 C1 1.263 . S
O7 Tb2 2.353 . S
C8 O12 1.245 . S
C8 O13 1.259 . S
C9 O14 1.250 . S
C9 O15 1.263 . S
O10 Tb2 2.427 1_556 S
O10 C6 1.275 . S
O11 Tb2 2.513 1_556 S
O11 C6 1.246 . S
O12 Tb2 2.453 . S
O12 C8 1.245 . S
O13 Tb0 2.343 . S
O13 Tb2 2.596 . S
O13 C8 1.259 . S
O14 Tb2 2.374 . S
O14 C9 1.250 . S
O15 Tb0 2.353 . S
O15 C9 1.263 . S
C16 O17 1.275 . S
C16 O18 1.246 . S
O17 Tb0 2.427 . S
O17 C16 1.275 . S
O18 Tb0 2.513 . S
O18 C16 1.246 . S
C19 O3 1.245 . S
C19 O4 1.259 1_556 S
Tb20 O23 2.453 . S
Tb20 O24 2.596 . S
Tb20 O25 2.374 . S
Tb20 O33 2.343 . S
Tb20 O35 2.353 . S
Tb20 O37 2.427 . S
Tb20 O38 2.513 . S
C21 O25 1.251 . S
C21 O27 1.263 . S
Tb22 O24 2.343 1_655 S
Tb22 O27 2.353 1_655 S
Tb22 O30 2.427 . S
Tb22 O31 2.513 . S
Tb22 O32 2.453 . S
Tb22 O33 2.596 1_655 S
Tb22 O34 2.374 1_655 S
O23 Tb20 2.453 . S
O23 C39 1.245 . S
O24 Tb20 2.596 . S
O24 Tb22 2.343 1_455 S
O24 C39 1.259 . S
O25 Tb20 2.374 . S
O25 C21 1.251 . S
C26 O30 1.275 . S
C26 O31 1.246 . S
O27 C21 1.263 . S
O27 Tb22 2.353 1_455 S
C28 O32 1.245 . S
C28 O33 1.259 1_655 S
C29 O34 1.250 . S
C29 O35 1.263 . S
O30 Tb22 2.427 . S
O30 C26 1.275 . S
O31 Tb22 2.513 . S
O31 C26 1.246 . S
O32 Tb22 2.453 . S
O32 C28 1.245 . S
O33 Tb20 2.343 . S
O33 Tb22 2.596 1_455 S
O33 C28 1.259 1_455 S
O34 Tb22 2.374 1_455 S
O34 C29 1.250 . S
O35 Tb20 2.353 . S
O35 C29 1.263 . S
C36 O37 1.275 . S
C36 O38 1.246 . S
O37 Tb20 2.427 . S
O37 C36 1.275 . S
O38 Tb20 2.513 . S
O38 C36 1.246 . S
C39 O23 1.245 . S
C39 O24 1.259 . S
Tb40 O43 2.453 1_554 S
Tb40 O44 2.596 1_564 S
Tb40 O45 2.374 . S
Tb40 O53 2.343 1_565 S
Tb40 O55 2.353 1_554 S
Tb40 O57 2.427 . S
Tb40 O58 2.513 . S
C41 O45 1.251 1_545 S
C41 O47 1.263 . S
Tb42 O44 2.343 . S
Tb42 O47 2.353 1_556 S
Tb42 O50 2.427 . S
Tb42 O51 2.513 . S
Tb42 O52 2.453 1_556 S
Tb42 O53 2.596 1_556 S
Tb42 O54 2.374 . S
O43 Tb40 2.453 1_556 S
O43 C59 1.245 . S
O44 Tb40 2.596 1_546 S
O44 Tb42 2.343 . S
O44 C59 1.259 1_545 S
O45 Tb40 2.374 . S
O45 C41 1.251 1_565 S
C46 O50 1.275 . S
C46 O51 1.246 . S
O47 C41 1.263 . S
O47 Tb42 2.353 1_554 S
C48 O52 1.245 . S
C48 O53 1.259 . S
C49 O54 1.252 1_554 S
C49 O55 1.263 1_544 S
O50 Tb42 2.427 . S
O50 C46 1.275 . S
O51 Tb42 2.513 . S
O51 C46 1.246 . S
O52 Tb42 2.453 1_554 S
O52 C48 1.245 . S
O53 Tb40 2.343 1_545 S
O53 Tb42 2.596 1_554 S
O53 C48 1.259 . S
O54 Tb42 2.374 . S
O54 C49 1.252 1_556 S
O55 Tb40 2.353 1_556 S
O55 C49 1.263 1_566 S
C56 O57 1.275 . S
C56 O58 1.246 . S
O57 Tb40 2.427 . S
O57 C56 1.275 . S
O58 Tb40 2.513 . S
O58 C56 1.246 . S
C59 O43 1.245 . S
C59 O44 1.259 1_565 S
Tb60 O63 2.453 . S
Tb60 O64 2.596 . S
Tb60 O65 2.374 . S
Tb60 O73 2.343 . S
Tb60 O75 2.353 . S
Tb60 O77 2.427 . S
Tb60 O78 2.513 . S
C61 O65 1.251 . S
C61 O67 1.263 . S
Tb62 O64 2.343 1_655 S
Tb62 O67 2.353 1_655 S
Tb62 O70 2.427 . S
Tb62 O71 2.513 . S
Tb62 O72 2.453 . S
Tb62 O73 2.596 1_655 S
Tb62 O74 2.374 1_655 S
O63 Tb60 2.453 . S
O63 C79 1.245 . S
O64 Tb60 2.596 . S
O64 Tb62 2.343 1_455 S
O64 C79 1.259 . S
O65 Tb60 2.374 . S
O65 C61 1.251 . S
C66 O70 1.275 . S
C66 O71 1.246 . S
O67 C61 1.263 . S
O67 Tb62 2.353 1_455 S
C68 O72 1.245 1_455 S
C68 O73 1.259 . S
C69 O74 1.250 . S
C69 O75 1.263 . S
O70 Tb62 2.427 . S
O70 C66 1.275 . S
O71 Tb62 2.513 . S
O71 C66 1.246 . S
O72 Tb62 2.453 . S
O72 C68 1.245 1_655 S
O73 Tb60 2.343 . S
O73 Tb62 2.596 1_455 S
O73 C68 1.259 . S
O74 Tb62 2.374 1_455 S
O74 C69 1.250 . S
O75 Tb60 2.353 . S
O75 C69 1.263 . S
C76 O77 1.275 . S
C76 O78 1.246 . S
O77 Tb60 2.427 . S
O77 C76 1.275 . S
O78 Tb60 2.513 . S
O78 C76 1.246 . S
C79 O63 1.245 . S
C79 O64 1.259 . S
H80 C81 0.951 1_554 S
C81 H80 0.951 1_556 S
C81 C87 1.264 . S
H82 C87 0.951 1_565 S
H83 C91 0.949 . S
H84 C92 0.950 . S
H85 C93 0.951 . S
H86 C94 0.951 1_655 S
C87 C81 1.264 . S
C87 H82 0.951 1_545 S
C87 C88 1.477 1_656 S
C88 C87 1.477 1_454 S
C88 C89 1.397 1_554 S
C88 C105 1.394 . S
C89 C88 1.397 1_556 S
C89 C90 1.438 1_556 S
C89 C94 1.429 . S
C90 C89 1.438 1_554 S
C90 C91 1.428 1_554 S
C90 C103 1.394 . S
C91 H83 0.949 . S
C91 C90 1.428 1_556 S
C91 C92 1.345 . S
C92 H84 0.950 . S
C92 C91 1.345 . S
C92 C93 1.424 . S
C93 H85 0.951 . S
C93 C92 1.424 . S
C93 C94 1.347 . S
C94 H86 0.951 1_455 S
C94 C89 1.429 . S
C94 C93 1.347 . S
H95 C96 0.951 . S
C96 H95 0.951 . S
C96 C102 1.265 . S
H97 C102 0.950 . S
H98 C106 0.949 . S
H99 C107 0.955 . S
H100 C108 0.951 . S
H101 C109 0.951 . S
C102 C96 1.265 . S
C102 H97 0.950 . S
C102 C103 1.478 . S
C103 C90 1.394 . S
C103 C102 1.478 . S
C103 C104 1.397 . S
C104 C103 1.397 . S
C104 C105 1.438 . S
C104 C109 1.429 . S
C105 C88 1.394 . S
C105 C104 1.438 . S
C105 C106 1.428 1_455 S
C106 H98 0.949 . S
C106 C105 1.428 1_655 S
C106 C107 1.345 . S
C107 H99 0.955 . S
C107 C106 1.345 . S
C107 C108 1.419 1_655 S
C108 H100 0.951 . S
C108 C107 1.419 1_455 S
C108 C109 1.347 . S
C109 H101 0.951 . S
C109 C104 1.429 . S
C109 C108 1.347 . S
H110 C111 0.951 . S
C111 H110 0.951 . S
C111 C117 1.265 . S
H112 C117 0.936 1_655 S
H113 C121 0.949 . S
H114 C122 0.950 . S
H115 C123 0.951 1_655 S
H116 C124 0.951 . S
C117 C111 1.265 . S
C117 H112 0.936 1_455 S
C117 C118 1.478 1_565 S
C118 C117 1.478 1_545 S
C118 C119 1.397 . S
C118 C135 1.394 . S
C119 C118 1.397 . S
C119 C120 1.438 . S
C119 C124 1.429 . S
C120 C119 1.438 . S
C120 C121 1.428 . S
C120 C133 1.394 . S
C121 H113 0.949 . S
C121 C120 1.428 . S
C121 C122 1.345 . S
C122 H114 0.950 . S
C122 C121 1.345 . S
C122 C123 1.424 . S
C123 H115 0.951 1_455 S
C123 C122 1.424 . S
C123 C124 1.347 . S
C124 H116 0.951 . S
C124 C119 1.429 . S
C124 C123 1.347 . S
H125 C126 0.951 1_655 S
C126 H125 0.951 1_455 S
C126 C132 1.265 . S
H127 C132 0.950 . S
H128 C136 0.949 1_565 S
H129 C137 0.953 . S
H130 C138 0.951 . S
H131 C139 0.951 . S
C132 C126 1.265 . S
C132 H127 0.950 . S
C132 C133 1.478 . S
C133 C120 1.394 . S
C133 C132 1.478 . S
C133 C134 1.397 . S
C134 C133 1.397 . S
C134 C135 1.438 . S
C134 C139 1.429 . S
C135 C118 1.394 . S
C135 C134 1.438 . S
C135 C136 1.428 . S
C136 H128 0.949 1_545 S
C136 C135 1.428 . S
C136 C137 1.345 . S
C137 H129 0.953 . S
C137 C136 1.345 . S
C137 C138 1.424 . S
C138 H130 0.951 . S
C138 C137 1.424 . S
C138 C139 1.347 . S
C139 H131 0.951 . S
C139 C134 1.429 . S
C139 C138 1.347 . S
H140 C141 0.951 . S
C141 H140 0.951 . S
C141 C147 1.265 . S
H142 C147 0.950 1_565 S
H143 C151 0.949 . S
H144 C152 0.950 . S
H145 C153 0.951 1_565 S
H146 C154 0.955 . S
C147 C141 1.265 . S
C147 H142 0.950 1_545 S
C147 C148 1.478 . S
C148 C147 1.478 . S
C148 C149 1.397 . S
C148 C165 1.394 1_554 S
C149 C148 1.397 . S
C149 C150 1.438 . S
C149 C154 1.429 . S
C150 C149 1.438 . S
C150 C151 1.428 . S
C150 C163 1.394 . S
C151 H143 0.949 . S
C151 C150 1.428 . S
C151 C152 1.345 . S
C152 H144 0.950 . S
C152 C151 1.345 . S
C152 C153 1.424 . S
C153 H145 0.951 1_545 S
C153 C152 1.424 . S
C153 C154 1.347 . S
C154 H146 0.955 . S
C154 C149 1.429 . S
C154 C153 1.347 . S
H155 C156 0.951 . S
C156 H155 0.951 . S
C156 C162 1.265 . S
H157 C162 0.950 . S
H158 C166 0.949 . S
H159 C167 0.950 . S
H160 C168 0.951 . S
H161 C169 0.951 . S
C162 C156 1.265 . S
C162 H157 0.950 . S
C162 C163 1.478 . S
C163 C150 1.394 . S
C163 C162 1.478 . S
C163 C164 1.397 . S
C164 C163 1.397 . S
C164 C165 1.438 1_554 S
C164 C169 1.429 1_554 S
C165 C148 1.394 1_556 S
C165 C164 1.438 1_556 S
C165 C166 1.428 . S
C166 H158 0.949 . S
C166 C165 1.428 . S
C166 C167 1.345 . S
C167 H159 0.950 . S
C167 C166 1.345 . S
C167 C168 1.424 . S
C168 H160 0.951 . S
C168 C167 1.424 . S
C168 C169 1.347 . S
C169 H161 0.951 . S
C169 C164 1.429 1_556 S
C169 C168 1.347 . S
H170 C171 0.951 . S
C171 H170 0.951 . S
C171 C177 1.265 . S
H172 C177 0.950 . S
H173 C181 0.949 . S
H174 C182 0.950 . S
H175 C183 0.951 . S
H176 C184 0.951 . S
C177 C171 1.265 . S
C177 H172 0.950 . S
C177 C178 1.478 . S
C178 C177 1.478 . S
C178 C179 1.397 . S
C178 C195 1.394 . S
C179 C178 1.397 . S
C179 C180 1.438 . S
C179 C184 1.429 . S
C180 C179 1.438 . S
C180 C181 1.428 . S
C180 C193 1.394 . S
C181 H173 0.949 . S
C181 C180 1.428 . S
C181 C182 1.345 . S
C182 H174 0.950 . S
C182 C181 1.345 . S
C182 C183 1.424 . S
C183 H175 0.951 . S
C183 C182 1.424 . S
C183 C184 1.347 . S
C184 H176 0.951 . S
C184 C179 1.429 . S
C184 C183 1.347 . S
H185 C186 0.951 . S
C186 H185 0.951 . S
C186 C192 1.265 . S
H187 C192 0.950 . S
H188 C196 0.949 . S
H189 C197 0.950 . S
H190 C198 0.951 . S
H191 C199 0.951 . S
C192 C186 1.265 . S
C192 H187 0.950 . S
C192 C193 1.478 . S
C193 C180 1.394 . S
C193 C192 1.478 . S
C193 C194 1.397 . S
C194 C193 1.397 . S
C194 C195 1.438 . S
C194 C199 1.429 . S
C195 C178 1.394 . S
C195 C194 1.438 . S
C195 C196 1.428 . S
C196 H188 0.949 . S
C196 C195 1.428 . S
C196 C197 1.345 . S
C197 H189 0.950 . S
C197 C196 1.345 . S
C197 C198 1.424 . S
C198 H190 0.951 . S
C198 C197 1.424 . S
C198 C199 1.347 . S
C199 H191 0.951 . S
C199 C194 1.429 . S
C199 C198 1.347 . S
H200 C201 0.951 . S
C201 H200 0.951 . S
C201 C207 1.265 . S
H202 C207 0.950 . S
H203 C211 0.949 . S
H204 C212 0.950 . S
H205 C213 0.951 . S
H206 C214 0.951 . S
C207 C201 1.265 . S
C207 H202 0.950 . S
C207 C208 1.478 . S
C208 C207 1.478 . S
C208 C209 1.397 . S
C208 C225 1.394 . S
C209 C208 1.397 . S
C209 C210 1.438 . S
C209 C214 1.429 . S
C210 C209 1.438 . S
C210 C211 1.428 . S
C210 C223 1.394 . S
C211 H203 0.949 . S
C211 C210 1.428 . S
C211 C212 1.345 . S
C212 H204 0.950 . S
C212 C211 1.345 . S
C212 C213 1.424 . S
C213 H205 0.951 . S
C213 C212 1.424 . S
C213 C214 1.347 . S
C214 H206 0.951 . S
C214 C209 1.429 . S
C214 C213 1.347 . S
H215 C216 0.951 . S
C216 H215 0.951 . S
C216 C222 1.265 . S
H217 C222 0.950 . S
H218 C226 0.949 . S
H219 C227 0.950 . S
H220 C228 0.951 . S
H221 C229 0.951 . S
C222 C216 1.265 . S
C222 H217 0.950 . S
C222 C223 1.478 . S
C223 C210 1.394 . S
C223 C222 1.478 . S
C223 C224 1.397 . S
C224 C223 1.397 . S
C224 C225 1.438 . S
C224 C229 1.429 . S
C225 C208 1.394 . S
C225 C224 1.438 . S
C225 C226 1.428 . S
C226 H218 0.949 . S
C226 C225 1.428 . S
C226 C227 1.345 . S
C227 H219 0.950 . S
C227 C226 1.345 . S
C227 C228 1.424 . S
C228 H220 0.951 . S
C228 C227 1.424 . S
C228 C229 1.347 . S
C229 H221 0.951 . S
C229 C224 1.429 . S
C229 C228 1.347 . S
H230 C231 0.951 1_455 S
C231 H230 0.951 1_655 S
C231 C237 1.265 . S
H232 C237 0.950 . S
H233 C241 0.949 . S
H234 C242 0.950 1_565 S
H235 C243 0.951 . S
H236 C244 0.951 . S
C237 C231 1.265 . S
C237 H232 0.950 . S
C237 C238 1.478 . S
C238 C237 1.478 . S
C238 C239 1.397 . S
C238 C255 1.394 . S
C239 C238 1.397 . S
C239 C240 1.438 . S
C239 C244 1.429 . S
C240 C239 1.438 . S
C240 C241 1.428 . S
C240 C253 1.394 . S
C241 H233 0.949 . S
C241 C240 1.428 . S
C241 C242 1.345 . S
C242 H234 0.950 1_545 S
C242 C241 1.345 . S
C242 C243 1.424 . S
C243 H235 0.951 . S
C243 C242 1.424 . S
C243 C244 1.347 . S
C244 H236 0.951 . S
C244 C239 1.429 . S
C244 C243 1.347 . S
H245 C246 0.951 . S
C246 H245 0.951 . S
C246 C252 1.265 . S
H247 C252 0.950 . S
H248 C256 0.949 . S
H249 C257 0.950 . S
H250 C258 0.951 . S
H251 C259 0.951 . S
C252 C246 1.265 . S
C252 H247 0.950 . S
C252 C253 1.478 . S
C253 C240 1.394 . S
C253 C252 1.478 . S
C253 C254 1.397 . S
C254 C253 1.397 . S
C254 C255 1.438 . S
C254 C259 1.429 . S
C255 C238 1.394 . S
C255 C254 1.438 . S
C255 C256 1.428 . S
C256 H248 0.949 . S
C256 C255 1.428 . S
C256 C257 1.345 . S
C257 H249 0.950 . S
C257 C256 1.345 . S
C257 C258 1.424 . S
C258 H250 0.951 . S
C258 C257 1.424 . S
C258 C259 1.347 . S
C259 H251 0.951 . S
C259 C254 1.429 . S
C259 C258 1.347 . S
H260 C261 0.951 . S
C261 H260 0.951 . S
C261 C267 1.265 . S
H262 C267 0.950 1_455 S
H263 C271 0.949 . S
H264 C272 0.950 . S
H265 C273 0.951 . S
H266 C274 0.951 . S
C267 C261 1.265 . S
C267 H262 0.950 1_655 S
C267 C268 1.478 . S
C268 C267 1.478 . S
C268 C269 1.397 . S
C268 C285 1.394 . S
C269 C268 1.397 . S
C269 C270 1.438 . S
C269 C274 1.429 . S
C270 C269 1.438 . S
C270 C271 1.428 . S
C270 C283 1.394 . S
C271 H263 0.949 . S
C271 C270 1.428 . S
C271 C272 1.345 . S
C272 H264 0.950 . S
C272 C271 1.345 . S
C272 C273 1.424 . S
C273 H265 0.951 . S
C273 C272 1.424 . S
C273 C274 1.347 . S
C274 H266 0.951 . S
C274 C269 1.429 . S
C274 C273 1.347 . S
H275 C276 0.951 . S
C276 H275 0.951 . S
C276 C282 1.265 . S
H277 C282 0.950 . S
H278 C286 0.949 . S
H279 C287 0.950 . S
H280 C288 0.951 . S
H281 C289 0.951 . S
C282 C276 1.265 . S
C282 H277 0.950 . S
C282 C283 1.478 . S
C283 C270 1.394 . S
C283 C282 1.478 . S
C283 C284 1.397 . S
C284 C283 1.397 . S
C284 C285 1.438 . S
C284 C289 1.429 1_565 S
C285 C268 1.394 . S
C285 C284 1.438 . S
C285 C286 1.428 . S
C286 H278 0.949 . S
C286 C285 1.428 . S
C286 C287 1.345 1_565 S
C287 H279 0.950 . S
C287 C286 1.345 1_545 S
C287 C288 1.424 . S
C288 H280 0.951 . S
C288 C287 1.424 . S
C288 C289 1.347 . S
C289 H281 0.951 . S
C289 C284 1.429 1_545 S
C289 C288 1.347 . S
H290 C291 0.951 . S
C291 H290 0.951 . S
C291 C297 1.265 . S
H292 C297 0.950 . S
H293 C301 0.949 . S
H294 C302 0.950 . S
H295 C303 0.951 . S
H296 C304 0.951 . S
C297 C291 1.265 . S
C297 H292 0.950 . S
C297 C298 1.478 . S
C298 C297 1.478 . S
C298 C299 1.397 . S
C298 C315 1.394 1_565 S
C299 C298 1.397 . S
C299 C300 1.438 . S
C299 C304 1.429 . S
C300 C299 1.438 . S
C300 C301 1.428 . S
C300 C313 1.394 1_565 S
C301 H293 0.949 . S
C301 C300 1.428 . S
C301 C302 1.345 . S
C302 H294 0.950 . S
C302 C301 1.345 . S
C302 C303 1.424 . S
C303 H295 0.951 . S
C303 C302 1.424 . S
C303 C304 1.347 . S
C304 H296 0.951 . S
C304 C299 1.429 . S
C304 C303 1.347 . S
H305 C306 0.951 . S
C306 H305 0.951 . S
C306 C312 1.265 . S
H307 C312 0.950 . S
H308 C316 0.949 . S
H309 C317 0.950 . S
H310 C318 0.951 . S
H311 C319 0.951 . S
C312 C306 1.265 . S
C312 H307 0.950 . S
C312 C313 1.478 . S
C313 C300 1.394 1_545 S
C313 C312 1.478 . S
C313 C314 1.397 . S
C314 C313 1.397 . S
C314 C315 1.438 . S
C314 C319 1.429 . S
C315 C298 1.394 1_545 S
C315 C314 1.438 . S
C315 C316 1.428 . S
C316 H308 0.949 . S
C316 C315 1.428 . S
C316 C317 1.345 . S
C317 H309 0.950 . S
C317 C316 1.345 . S
C317 C318 1.424 . S
C318 H310 0.951 . S
C318 C317 1.424 . S
C318 C319 1.347 . S
C319 H311 0.951 . S
C319 C314 1.429 . S
C319 C318 1.347 . S
H320 C321 0.951 . S
C321 H320 0.951 . S
C321 C327 1.265 . S
H322 C327 0.950 . S
H323 C331 0.949 . S
H324 C332 0.950 . S
H325 C333 0.951 . S
H326 C334 0.951 . S
C327 C321 1.265 . S
C327 H322 0.950 . S
C327 C328 1.478 . S
C328 C327 1.478 . S
C328 C329 1.397 . S
C328 C345 1.394 . S
C329 C328 1.397 . S
C329 C330 1.438 . S
C329 C334 1.429 . S
C330 C329 1.438 . S
C330 C331 1.428 . S
C330 C343 1.394 . S
C331 H323 0.949 . S
C331 C330 1.428 . S
C331 C332 1.345 . S
C332 H324 0.950 . S
C332 C331 1.345 . S
C332 C333 1.424 . S
C333 H325 0.951 . S
C333 C332 1.424 . S
C333 C334 1.347 . S
C334 H326 0.951 . S
C334 C329 1.429 . S
C334 C333 1.347 . S
H335 C336 0.951 . S
C336 H335 0.951 . S
C336 C342 1.265 . S
H337 C342 0.950 . S
H338 C346 0.949 . S
H339 C347 0.950 . S
H340 C348 0.951 1_455 S
H341 C349 0.951 1_565 S
C342 C336 1.265 . S
C342 H337 0.950 . S
C342 C343 1.478 . S
C343 C330 1.394 . S
C343 C342 1.478 . S
C343 C344 1.397 . S
C344 C343 1.397 . S
C344 C345 1.438 . S
C344 C349 1.429 1_565 S
C345 C328 1.394 . S
C345 C344 1.438 . S
C345 C346 1.428 1_565 S
C346 H338 0.949 . S
C346 C345 1.428 1_545 S
C346 C347 1.345 . S
C347 H339 0.950 . S
C347 C346 1.345 . S
C347 C348 1.424 . S
C348 H340 0.951 1_655 S
C348 C347 1.424 . S
C348 C349 1.347 . S
C349 H341 0.951 1_545 S
C349 C344 1.429 1_545 S
C349 C348 1.347 . S
H350 C351 0.951 . S
C351 H350 0.951 . S
C351 C357 1.265 . S
H352 C357 0.950 1_565 S
H353 C361 0.949 . S
H354 C362 0.950 . S
H355 C363 0.951 . S
H356 C364 0.951 . S
C357 C351 1.265 . S
C357 H352 0.950 1_545 S
C357 C358 1.478 1_545 S
C358 C357 1.478 1_565 S
C358 C359 1.397 . S
C358 C375 1.394 . S
C359 C358 1.397 . S
C359 C360 1.438 . S
C359 C364 1.429 1_565 S
C360 C359 1.438 . S
C360 C361 1.428 . S
C360 C373 1.394 . S
C361 H353 0.949 . S
C361 C360 1.428 . S
C361 C362 1.345 1_565 S
C362 H354 0.950 . S
C362 C361 1.345 1_545 S
C362 C363 1.424 . S
C363 H355 0.951 . S
C363 C362 1.424 . S
C363 C364 1.347 . S
C364 H356 0.951 . S
C364 C359 1.429 1_545 S
C364 C363 1.347 . S
H365 C366 0.951 . S
C366 H365 0.951 . S
C366 C372 1.265 . S
H367 C372 0.950 . S
H368 C376 0.949 . S
H369 C377 0.950 . S
H370 C378 0.951 . S
H371 C379 0.951 . S
C372 C366 1.265 . S
C372 H367 0.950 . S
C372 C373 1.478 . S
C373 C360 1.394 . S
C373 C372 1.478 . S
C373 C374 1.397 . S
C374 C373 1.397 . S
C374 C375 1.438 . S
C374 C379 1.429 . S
C375 C358 1.394 . S
C375 C374 1.438 . S
C375 C376 1.428 . S
C376 H368 0.949 . S
C376 C375 1.428 . S
C376 C377 1.345 . S
C377 H369 0.950 . S
C377 C376 1.345 . S
C377 C378 1.424 . S
C378 H370 0.951 . S
C378 C377 1.424 . S
C378 C379 1.347 . S
C379 H371 0.951 . S
C379 C374 1.429 . S
C379 C378 1.347 . S
H380 C381 0.951 . S
C381 H380 0.951 . S
C381 C387 1.265 . S
H382 C387 0.950 . S
H383 C391 0.949 . S
H384 C392 0.950 . S
H385 C393 0.951 . S
H386 C394 0.951 . S
C387 C381 1.265 . S
C387 H382 0.950 . S
C387 C388 1.478 . S
C388 C387 1.478 . S
C388 C389 1.397 . S
C388 C405 1.394 . S
C389 C388 1.397 . S
C389 C390 1.438 . S
C389 C394 1.429 . S
C390 C389 1.438 . S
C390 C391 1.428 . S
C390 C403 1.394 . S
C391 H383 0.949 . S
C391 C390 1.428 . S
C391 C392 1.345 . S
C392 H384 0.950 . S
C392 C391 1.345 . S
C392 C393 1.424 . S
C393 H385 0.951 . S
C393 C392 1.424 . S
C393 C394 1.347 . S
C394 H386 0.951 . S
C394 C389 1.429 . S
C394 C393 1.347 . S
H395 C396 0.951 . S
C396 H395 0.951 . S
C396 C402 1.265 . S
H397 C402 0.950 . S
H398 C406 0.949 . S
H399 C407 0.950 . S
H400 C408 0.951 . S
H401 C409 0.951 . S
C402 C396 1.265 . S
C402 H397 0.950 . S
C402 C403 1.478 . S
C403 C390 1.394 . S
C403 C402 1.478 . S
C403 C404 1.397 . S
C404 C403 1.397 . S
C404 C405 1.438 . S
C404 C409 1.429 . S
C405 C388 1.394 . S
C405 C404 1.438 . S
C405 C406 1.428 . S
C406 H398 0.949 . S
C406 C405 1.428 . S
C406 C407 1.345 . S
C407 H399 0.950 . S
C407 C406 1.345 . S
C407 C408 1.424 . S
C408 H400 0.951 . S
C408 C407 1.424 . S
C408 C409 1.347 . S
C409 H401 0.951 . S
C409 C404 1.429 . S
C409 C408 1.347 . S
H410 C411 0.951 . S
C411 H410 0.951 . S
C411 C417 1.265 . S
H412 C417 0.950 . S
H413 C421 0.949 . S
H414 C422 0.950 . S
H415 C423 0.951 . S
H416 C424 0.951 . S
C417 C411 1.265 . S
C417 H412 0.950 . S
C417 C418 1.478 . S
C418 C417 1.478 . S
C418 C419 1.397 . S
C418 C435 1.394 . S
C419 C418 1.397 . S
C419 C420 1.438 . S
C419 C424 1.429 . S
C420 C419 1.438 . S
C420 C421 1.428 . S
C420 C433 1.394 . S
C421 H413 0.949 . S
C421 C420 1.428 . S
C421 C422 1.345 . S
C422 H414 0.950 . S
C422 C421 1.345 . S
C422 C423 1.424 . S
C423 H415 0.951 . S
C423 C422 1.424 . S
C423 C424 1.347 . S
C424 H416 0.951 . S
C424 C419 1.429 . S
C424 C423 1.347 . S
H425 C426 0.951 . S
C426 H425 0.951 . S
C426 C432 1.265 . S
H427 C432 0.950 . S
H428 C436 0.949 . S
H429 C437 0.950 . S
H430 C438 0.951 . S
H431 C439 0.951 . S
C432 C426 1.265 . S
C432 H427 0.950 . S
C432 C433 1.478 . S
C433 C420 1.394 . S
C433 C432 1.478 . S
C433 C434 1.397 . S
C434 C433 1.397 . S
C434 C435 1.438 . S
C434 C439 1.429 . S
C435 C418 1.394 . S
C435 C434 1.438 . S
C435 C436 1.428 . S
C436 H428 0.949 . S
C436 C435 1.428 . S
C436 C437 1.345 . S
C437 H429 0.950 . S
C437 C436 1.345 . S
C437 C438 1.424 . S
C438 H430 0.951 . S
C438 C437 1.424 . S
C438 C439 1.347 . S
C439 H431 0.951 . S
C439 C434 1.429 . S
C439 C438 1.347 . S
C81 C41 1.102 1_556 S
C96 C9 1.102 . S
C111 C69 1.222 . S
C126 C29 1.271 . S
C141 C49 1.292 . S
C156 C1 1.293 . S
C171 C21 1.110 . S
C186 C61 1.134 . S
C201 C39 2.074 . S
C216 C8 2.199 . S
C231 C28 2.202 . S
C246 C46 2.208 . S
C261 C68 1.941 1_655 S
C276 C56 1.935 . S
C291 C79 1.681 . S
C306 C19 1.673 . S
C321 C59 1.383 . S
C336 C66 1.381 . S
C351 C16 1.497 . S
C366 C76 1.506 . S
C381 C36 1.311 . S
C396 C6 1.326 . S
C411 C48 1.018 . S
C426 C26 1.014 . S
