# Generated by pormake.
# Topology sow, (4)-cn, num edge types: 1
# Building blocks:
#     Node 0, Type 0, BuildingBlock: ICAMEG_clean_sbu_1, # of connection points: 4
#     Node 1, Type 0, BuildingBlock: ICAMEG_clean_sbu_1, # of connection points: 4
#     Node 2, Type 0, BuildingBlock: ICAMEG_clean_sbu_1, # of connection points: 4
#     Node 3, Type 0, BuildingBlock: ICAMEG_clean_sbu_1, # of connection points: 4
#     Node 4, Type 0, BuildingBlock: ICAMEG_clean_sbu_1, # of connection points: 4
#     Node 5, Type 0, BuildingBlock: ICAMEG_clean_sbu_1, # of connection points: 4
#     Node 6, Type 0, BuildingBlock: ICAMEG_clean_sbu_1, # of connection points: 4
#     Node 7, Type 0, BuildingBlock: ICAMEG_clean_sbu_1, # of connection points: 4
#     Edge 8, Type (0, 0), BuildingBlock: ZUJKAS_clean_linker_0, # of connection points: 2
#     Edge 9, Type (0, 0), BuildingBlock: ZUJKAS_clean_linker_0, # of connection points: 2
#     Edge 10, Type (0, 0), BuildingBlock: ZUJKAS_clean_linker_0, # of connection points: 2
#     Edge 11, Type (0, 0), BuildingBlock: ZUJKAS_clean_linker_0, # of connection points: 2
#     Edge 12, Type (0, 0), BuildingBlock: ZUJKAS_clean_linker_0, # of connection points: 2
#     Edge 13, Type (0, 0), BuildingBlock: ZUJKAS_clean_linker_0, # of connection points: 2
#     Edge 14, Type (0, 0), BuildingBlock: ZUJKAS_clean_linker_0, # of connection points: 2
#     Edge 15, Type (0, 0), BuildingBlock: ZUJKAS_clean_linker_0, # of connection points: 2
#     Edge 16, Type (0, 0), BuildingBlock: ZUJKAS_clean_linker_0, # of connection points: 2
#     Edge 17, Type (0, 0), BuildingBlock: ZUJKAS_clean_linker_0, # of connection points: 2
#     Edge 18, Type (0, 0), BuildingBlock: ZUJKAS_clean_linker_0, # of connection points: 2
#     Edge 19, Type (0, 0), BuildingBlock: ZUJKAS_clean_linker_0, # of connection points: 2
#     Edge 20, Type (0, 0), BuildingBlock: ZUJKAS_clean_linker_0, # of connection points: 2
#     Edge 21, Type (0, 0), BuildingBlock: ZUJKAS_clean_linker_0, # of connection points: 2
#     Edge 22, Type (0, 0), BuildingBlock: ZUJKAS_clean_linker_0, # of connection points: 2
#     Edge 23, Type (0, 0), BuildingBlock: ZUJKAS_clean_linker_0, # of connection points: 2
# Relax obj value: 0.056
# Max RMSD: 0.146
# Mean RMSD: 0.145
data_MOF--net-sow--node1-ICAMEG_clean_sbu_1--edge1-ZUJKAS_clean_linker_0
_symmetry_space_group_name_H-M    P1
_symmetry_Int_Tables_number       1
_symmetry_cell_setting            triclinic
loop_
_symmetry_equiv_pos_as_xyz
'x, y, z'
_cell_length_a     54.675027
_cell_length_b     24.592871
_cell_length_c     33.852067
_cell_angle_alpha  89.997172
_cell_angle_beta   89.995208
_cell_angle_gamma 89.995459
loop_
_atom_site_label
_atom_site_type_symbol
_atom_site_fract_x
_atom_site_fract_y
_atom_site_fract_z
_atom_type_partial_charge
Co0 Co 0.13016 0.25878 0.05027 0.0
Co1 Co 0.14388 0.15974 0.11944 0.0
O2 O 0.15328 0.2146 0.0806 0.0
C3 C 0.15953 0.20224 0.98992 0.0
O4 O 0.15563 0.15748 0.01007 0.0
C5 C 0.17656 0.23423 0.16328 0.0
O6 O 0.16686 0.2749 0.14369 0.0
O7 O 0.12059 0.21073 0.14488 0.0
O8 O 0.10933 0.27068 0.0981 0.0
H9 H 0.0844 0.05062 0.20017 0.0
H10 H 0.18307 0.28536 0.04719 0.0
O11 O 0.15049 0.24716 0.00174 0.0
H12 H 0.14305 0.44898 0.10117 0.0
H13 H 0.10772 0.3997 0.9487 0.0
H14 H 0.07611 0.26744 0.04557 0.0
H15 H 0.11863 0.36857 0.08268 0.0
H16 H 0.13608 0.34396 0.98839 0.0
O17 O 0.16997 0.1855 0.1564 0.0
H18 H 0.09663 0.11893 0.15061 0.0
H19 H 0.17159 0.08452 0.17212 0.0
H20 H 0.04711 0.32264 0.00675 0.0
H21 H 0.20815 0.36507 0.06492 0.0
H22 H 0.06289 0.38935 0.9579 0.0
H23 H 0.18814 0.44757 0.09225 0.0
O24 O 0.11002 0.19403 0.03647 0.0
H25 H 0.22469 0.10611 0.06066 0.0
H26 H 0.14088 0.04501 0.09113 0.0
H27 H 0.16935 0.98233 0.05763 0.0
H28 H 0.21161 0.0128 0.0422 0.0
H29 H 0.19555 0.16759 0.0939 0.0
H30 H 0.16017 0.01613 0.22214 0.0
H31 H 0.11629 0.99868 0.23633 0.0
O32 O 0.11727 0.13282 0.08428 0.0
C33 C 0.10769 0.2506 0.13278 0.0
C34 C 0.10357 0.05771 0.19414 0.0
C35 C 0.1461 0.0384 0.20651 0.0
N36 N 0.13479 0.10532 0.15822 0.0
C37 C 0.11061 0.09621 0.16603 0.0
C38 C 0.15246 0.07722 0.1782 0.0
C39 C 0.12148 0.02862 0.21445 0.0
C40 C 0.1742 0.32132 0.05868 0.0
N41 N 0.14941 0.32239 0.06374 0.0
C42 C 0.18851 0.36623 0.06884 0.0
C43 C 0.17727 0.41248 0.08423 0.0
C44 C 0.15198 0.41327 0.08928 0.0
C45 C 0.13826 0.36757 0.07886 0.0
C46 C 0.10063 0.37088 0.96997 0.0
C47 C 0.08312 0.29669 0.02459 0.0
C48 C 0.11659 0.33916 0.99248 0.0
N49 N 0.10775 0.30291 0.01955 0.0
C50 C 0.06661 0.32769 0.00259 0.0
C51 C 0.07547 0.36506 0.97515 0.0
C52 C 0.10592 0.14865 0.05347 0.0
C53 C 0.20636 0.09231 0.06733 0.0
C54 C 0.15923 0.05857 0.08447 0.0
C55 C 0.17528 0.02287 0.06556 0.0
C56 C 0.19899 0.03998 0.05693 0.0
N57 N 0.16661 0.10979 0.09462 0.0
C58 C 0.18982 0.12685 0.08629 0.0
Co59 Co 0.37174 0.24053 0.55168 0.0
Co60 Co 0.35487 0.33644 0.62122 0.0
O61 O 0.34727 0.28108 0.5818 0.0
C62 C 0.3405 0.2931 0.49211 0.0
O63 O 0.34157 0.33707 0.51398 0.0
C64 C 0.32465 0.25749 0.66523 0.0
O65 O 0.3384 0.21902 0.65008 0.0
O66 O 0.37896 0.28775 0.64725 0.0
O67 O 0.39245 0.23102 0.59987 0.0
H68 H 0.41031 0.45082 0.70553 0.0
H69 H 0.31966 0.20728 0.54816 0.0
O70 O 0.35166 0.24998 0.50262 0.0
H71 H 0.36375 0.04844 0.6014 0.0
H72 H 0.39891 0.10425 0.44979 0.0
H73 H 0.42595 0.23945 0.5481 0.0
H74 H 0.38608 0.13198 0.58335 0.0
H75 H 0.36872 0.1554 0.48923 0.0
O76 O 0.32847 0.30705 0.65621 0.0
H77 H 0.40055 0.38201 0.65493 0.0
H78 H 0.32455 0.40747 0.67317 0.0
H79 H 0.45676 0.18893 0.50954 0.0
H80 H 0.29662 0.1244 0.56553 0.0
H81 H 0.44329 0.12075 0.45997 0.0
H82 H 0.3187 0.04428 0.59246 0.0
O83 O 0.39002 0.30801 0.53861 0.0
H84 H 0.27373 0.38314 0.56036 0.0
H85 H 0.35598 0.4516 0.59357 0.0
H86 H 0.32668 0.51206 0.55979 0.0
H87 H 0.28521 0.4779 0.54301 0.0
H88 H 0.30368 0.32391 0.59382 0.0
H89 H 0.33348 0.47629 0.7242 0.0
H90 H 0.37663 0.49849 0.74056 0.0
O91 O 0.38157 0.36682 0.58751 0.0
C92 C 0.39316 0.25026 0.63488 0.0
C93 C 0.39143 0.44165 0.69856 0.0
C94 C 0.34831 0.45589 0.70907 0.0
N95 N 0.36201 0.39112 0.66085 0.0
C96 C 0.3858 0.40285 0.66985 0.0
C97 C 0.34337 0.41684 0.6802 0.0
C98 C 0.37253 0.46834 0.71823 0.0
C99 C 0.32941 0.17239 0.55951 0.0
N100 N 0.35419 0.17433 0.56451 0.0
C101 C 0.31626 0.12566 0.56945 0.0
C102 C 0.32865 0.08075 0.58461 0.0
C103 C 0.35393 0.08306 0.58965 0.0
C104 C 0.36647 0.13051 0.57945 0.0
C105 C 0.40501 0.13373 0.47138 0.0
C106 C 0.41996 0.20954 0.5268 0.0
C107 C 0.38801 0.16286 0.49376 0.0
N108 N 0.39559 0.19993 0.52122 0.0
C109 C 0.43748 0.1812 0.50496 0.0
C110 C 0.42991 0.143 0.47711 0.0
C111 C 0.39326 0.35308 0.55646 0.0
C112 C 0.29172 0.39855 0.56764 0.0
C113 C 0.33799 0.43639 0.58626 0.0
C114 C 0.32146 0.47085 0.56722 0.0
C115 C 0.29819 0.45168 0.55785 0.0
N116 N 0.3315 0.38435 0.5958 0.0
C117 C 0.30871 0.36528 0.58674 0.0
Co118 Co 0.63069 0.24049 0.94714 0.0
Co119 Co 0.64563 0.34062 0.8798 0.0
O120 O 0.65425 0.28452 0.91796 0.0
C121 C 0.66 0.29423 0.00862 0.0
O122 O 0.65597 0.3397 0.98938 0.0
C123 C 0.67701 0.26593 0.83423 0.0
O124 O 0.66375 0.22601 0.84856 0.0
O125 O 0.62228 0.29108 0.85281 0.0
O126 O 0.60995 0.23124 0.89897 0.0
H127 H 0.58817 0.45357 0.79803 0.0
H128 H 0.68339 0.2119 0.94943 0.0
O129 O 0.651 0.24971 0.99597 0.0
H130 H 0.64204 0.05161 0.89286 0.0
H131 H 0.60668 0.09744 0.04613 0.0
H132 H 0.57655 0.23374 0.951 0.0
H133 H 0.61826 0.1322 0.91306 0.0
H134 H 0.63565 0.15328 0.00768 0.0
O135 O 0.67248 0.31486 0.8442 0.0
H136 H 0.59915 0.38366 0.84716 0.0
H137 H 0.67464 0.41624 0.8294 0.0
H138 H 0.54694 0.17851 0.98859 0.0
H139 H 0.70785 0.13201 0.92992 0.0
H140 H 0.56197 0.10976 0.03656 0.0
H141 H 0.68717 0.05118 0.90131 0.0
O142 O 0.61104 0.30565 0.96176 0.0
H143 H 0.72567 0.39095 0.94285 0.0
H144 H 0.64262 0.45452 0.90968 0.0
H145 H 0.67074 0.51569 0.94533 0.0
H146 H 0.71261 0.48397 0.96213 0.0
H147 H 0.69688 0.33098 0.90745 0.0
H148 H 0.66449 0.48629 0.77986 0.0
H149 H 0.62097 0.50545 0.764 0.0
O150 O 0.6185 0.36719 0.9142 0.0
C151 C 0.60871 0.25202 0.86446 0.0
C152 C 0.60719 0.44574 0.80479 0.0
C153 C 0.65003 0.46405 0.79456 0.0
N154 N 0.6375 0.39626 0.84139 0.0
C155 C 0.61352 0.40632 0.83267 0.0
C156 C 0.65567 0.42429 0.82258 0.0
C157 C 0.62561 0.47479 0.78568 0.0
C158 C 0.67424 0.17668 0.93735 0.0
N159 N 0.64942 0.17658 0.93261 0.0
C160 C 0.68819 0.13165 0.92621 0.0
C161 C 0.67658 0.08634 0.9101 0.0
C162 C 0.65126 0.08657 0.90533 0.0
C163 C 0.6379 0.13235 0.91675 0.0
C164 C 0.5999 0.12716 0.02525 0.0
C165 C 0.58323 0.20364 0.97162 0.0
C166 C 0.61621 0.15895 0.00345 0.0
N167 N 0.60778 0.19635 0.97687 0.0
C168 C 0.56638 0.17261 0.99291 0.0
C169 C 0.57482 0.13409 0.01985 0.0
C170 C 0.60701 0.35116 0.94486 0.0
C171 C 0.7075 0.40529 0.93559 0.0
C172 C 0.6608 0.44042 0.91692 0.0
C173 C 0.67665 0.47526 0.93705 0.0
C174 C 0.70015 0.45745 0.94645 0.0
N175 N 0.66816 0.38935 0.90633 0.0
C176 C 0.69116 0.37161 0.91541 0.0
Co177 Co 0.87164 0.26977 0.44702 0.0
Co178 Co 0.8566 0.16941 0.37995 0.0
O179 O 0.84804 0.22547 0.41815 0.0
C180 C 0.84256 0.21585 0.50873 0.0
O181 O 0.84668 0.17041 0.48952 0.0
C182 C 0.82486 0.24377 0.33484 0.0
O183 O 0.83809 0.28376 0.34908 0.0
O184 O 0.87968 0.2192 0.35262 0.0
O185 O 0.8922 0.27911 0.39861 0.0
H186 H 0.91393 0.05715 0.29742 0.0
H187 H 0.81889 0.29793 0.44979 0.0
O188 O 0.85148 0.26045 0.49604 0.0
H189 H 0.85976 0.45845 0.39267 0.0
H190 H 0.89574 0.41313 0.5457 0.0
H191 H 0.92577 0.27688 0.45045 0.0
H192 H 0.88375 0.37809 0.41271 0.0
H193 H 0.86673 0.35707 0.5075 0.0
O194 O 0.82952 0.19485 0.34468 0.0
H195 H 0.90302 0.12689 0.34673 0.0
H196 H 0.82752 0.09343 0.32995 0.0
H197 H 0.95541 0.33232 0.48779 0.0
H198 H 0.79422 0.37759 0.43045 0.0
H199 H 0.94043 0.40104 0.53582 0.0
H200 H 0.81467 0.45853 0.40156 0.0
O201 O 0.89144 0.20483 0.46151 0.0
H202 H 0.77701 0.11821 0.4441 0.0
H203 H 0.86003 0.05557 0.40982 0.0
H204 H 0.83223 0.9941 0.44587 0.0
H205 H 0.79038 0.02535 0.46324 0.0
H206 H 0.80547 0.17847 0.40828 0.0
H207 H 0.8376 0.02354 0.28025 0.0
H208 H 0.88108 0.00491 0.26381 0.0
O209 O 0.88398 0.14319 0.41402 0.0
C210 C 0.89325 0.25836 0.36406 0.0
C211 C 0.89492 0.06474 0.30444 0.0
C212 C 0.85208 0.04593 0.29477 0.0
N213 N 0.86468 0.11384 0.34147 0.0
C214 C 0.88863 0.10407 0.33242 0.0
C215 C 0.84648 0.08559 0.32289 0.0
C216 C 0.87648 0.03549 0.28557 0.0
C217 C 0.82794 0.33321 0.43759 0.0
N218 N 0.85274 0.3335 0.4326 0.0
C219 C 0.81387 0.3781 0.42654 0.0
C220 C 0.82535 0.42348 0.41028 0.0
C221 C 0.85065 0.42344 0.40526 0.0
C222 C 0.86413 0.37779 0.41659 0.0
C223 C 0.90249 0.38343 0.52478 0.0
C224 C 0.91911 0.30699 0.47108 0.0
C225 C 0.88616 0.35153 0.50312 0.0
N226 N 0.89456 0.31415 0.4765 0.0
C227 C 0.93598 0.33812 0.49224 0.0
C228 C 0.92756 0.37663 0.51921 0.0
C229 C 0.89553 0.15939 0.44457 0.0
C230 C 0.79517 0.10407 0.43659 0.0
C231 C 0.84185 0.06947 0.41731 0.0
C232 C 0.82618 0.03445 0.43766 0.0
C233 C 0.8027 0.052 0.44738 0.0
N234 N 0.83432 0.12045 0.4068 0.0
C235 C 0.81132 0.13792 0.41618 0.0
Co236 Co 0.85486 0.83234 0.87802 0.0
Co237 Co 0.86933 0.72976 0.94383 0.0
O238 O 0.84604 0.77563 0.9156 0.0
C239 C 0.82345 0.75847 0.83183 0.0
O240 O 0.83638 0.71818 0.84635 0.0
C241 C 0.84149 0.78539 0.00628 0.0
O242 O 0.84555 0.83053 0.98666 0.0
O243 O 0.89027 0.79332 0.95777 0.0
O244 O 0.88179 0.85808 0.91297 0.0
H245 H 0.95266 0.66052 0.98114 0.0
H246 H 0.80348 0.82229 0.90503 0.0
O247 O 0.82818 0.80727 0.84187 0.0
H248 H 0.82949 0.00632 0.9448 0.0
H249 H 0.83645 0.97958 0.77908 0.0
H250 H 0.90151 0.87657 0.84678 0.0
H251 H 0.85776 0.94568 0.90896 0.0
H252 H 0.82608 0.90856 0.82775 0.0
O253 O 0.84997 0.74043 0.99351 0.0
H254 H 0.92335 0.71818 0.94491 0.0
H255 H 0.864 0.64319 0.00481 0.0
H256 H 0.9127 0.9475 0.79856 0.0
H257 H 0.77455 0.88171 0.94061 0.0
H258 H 0.88004 0.99956 0.76432 0.0
H259 H 0.78754 0.9744 0.96084 0.0
O260 O 0.87837 0.78333 0.85077 0.0
H261 H 0.79018 0.62773 0.92957 0.0
H262 H 0.87946 0.62042 0.90951 0.0
H263 H 0.85408 0.54185 0.89027 0.0
H264 H 0.8091 0.54519 0.90032 0.0
H265 H 0.81623 0.70555 0.94809 0.0
H266 H 0.89269 0.58501 0.04194 0.0
H267 H 0.93737 0.59336 0.03007 0.0
O268 O 0.88903 0.71896 0.8948 0.0
C269 C 0.89393 0.83996 0.94232 0.0
C270 C 0.93324 0.65638 0.98648 0.0
C271 C 0.89958 0.61406 0.02065 0.0
N272 N 0.89199 0.68374 0.97253 0.0
C273 C 0.91654 0.6888 0.96597 0.0
C274 C 0.88342 0.64718 0.9996 0.0
C275 C 0.92464 0.61874 0.01396 0.0
C276 C 0.80917 0.86276 0.91341 0.0
N277 N 0.83222 0.88062 0.90474 0.0
C278 C 0.79276 0.89614 0.93369 0.0
C279 C 0.80007 0.94811 0.94508 0.0
C280 C 0.82361 0.96604 0.93611 0.0
C281 C 0.83955 0.9315 0.91586 0.0
C282 C 0.85085 0.95724 0.79386 0.0
C283 C 0.88719 0.89929 0.83219 0.0
C284 C 0.84508 0.91691 0.82138 0.0
N285 N 0.86317 0.88872 0.84028 0.0
C286 C 0.89364 0.9393 0.80483 0.0
C287 C 0.87531 0.96845 0.7856 0.0
C288 C 0.89091 0.7419 0.86111 0.0
C289 C 0.80977 0.62573 0.92514 0.0
C290 C 0.85989 0.62222 0.91389 0.0
C291 C 0.84562 0.57757 0.90301 0.0
C292 C 0.82039 0.57946 0.90868 0.0
N293 N 0.84935 0.66741 0.93008 0.0
C294 C 0.82462 0.66958 0.93572 0.0
Co295 Co 0.64364 0.66901 0.37734 0.0
Co296 Co 0.6298 0.77079 0.444 0.0
O297 O 0.65284 0.72502 0.41516 0.0
C298 C 0.67567 0.74198 0.33165 0.0
O299 O 0.66292 0.78248 0.34629 0.0
C300 C 0.6583 0.71532 0.50562 0.0
O301 O 0.6537 0.67014 0.48637 0.0
O302 O 0.60923 0.70711 0.45868 0.0
O303 O 0.6163 0.64412 0.41196 0.0
H304 H 0.54684 0.83857 0.48478 0.0
H305 H 0.69502 0.67644 0.40475 0.0
O306 O 0.67067 0.69323 0.3415 0.0
H307 H 0.66716 0.49339 0.44365 0.0
H308 H 0.661 0.52154 0.2781 0.0
H309 H 0.59672 0.62777 0.34513 0.0
H310 H 0.63957 0.55558 0.40782 0.0
H311 H 0.67188 0.59165 0.32719 0.0
O312 O 0.64985 0.7604 0.49299 0.0
H313 H 0.57577 0.78116 0.44753 0.0
H314 H 0.6358 0.85798 0.50428 0.0
H315 H 0.58503 0.55779 0.29648 0.0
H316 H 0.72327 0.61544 0.44034 0.0
H317 H 0.61729 0.5041 0.26259 0.0
H318 H 0.70935 0.52324 0.46013 0.0
O319 O 0.62078 0.71942 0.35015 0.0
H320 H 0.70847 0.87382 0.427 0.0
H321 H 0.61897 0.87965 0.40946 0.0
H322 H 0.64391 0.9584 0.38911 0.0
H323 H 0.689 0.9558 0.39789 0.0
H324 H 0.68287 0.79581 0.44664 0.0
H325 H 0.60752 0.91596 0.5424 0.0
H326 H 0.56269 0.90657 0.53262 0.0
O327 O 0.60933 0.78117 0.3956 0.0
C328 C 0.60483 0.66143 0.44228 0.0
C329 C 0.56633 0.8432 0.48918 0.0
C330 C 0.60039 0.88658 0.52156 0.0
N331 N 0.60744 0.81664 0.47343 0.0
C332 C 0.5828 0.81094 0.46808 0.0
C333 C 0.61631 0.8536 0.49995 0.0
C334 C 0.57524 0.8813 0.51605 0.0
C335 C 0.68892 0.63618 0.41293 0.0
N336 N 0.66574 0.61947 0.40403 0.0
C337 C 0.70496 0.60191 0.43322 0.0
C338 C 0.69712 0.55021 0.44437 0.0
C339 C 0.67345 0.53345 0.43515 0.0
C340 C 0.6579 0.56886 0.41491 0.0
C341 C 0.64677 0.54457 0.29274 0.0
C342 C 0.61086 0.60432 0.3307 0.0
C343 C 0.65282 0.58437 0.3205 0.0
N344 N 0.63494 0.61341 0.33924 0.0
C345 C 0.60413 0.56486 0.30309 0.0
C346 C 0.62225 0.5348 0.28406 0.0
C347 C 0.60783 0.75978 0.36131 0.0
C348 C 0.68884 0.87551 0.42313 0.0
C349 C 0.63858 0.87818 0.41331 0.0
C350 C 0.6526 0.92293 0.4018 0.0
C351 C 0.6779 0.92146 0.40675 0.0
N352 N 0.64944 0.83331 0.42942 0.0
C353 C 0.67423 0.83155 0.43436 0.0
Co354 Co 0.35661 0.66538 0.12553 0.0
Co355 Co 0.36823 0.76289 0.05441 0.0
O356 O 0.346 0.71816 0.08599 0.0
C357 C 0.32279 0.73787 0.16871 0.0
O358 O 0.33234 0.77899 0.14943 0.0
C359 C 0.33843 0.70443 0.99555 0.0
O360 O 0.3431 0.65992 0.01558 0.0
O361 O 0.38864 0.6987 0.04029 0.0
O362 O 0.38371 0.64016 0.09059 0.0
H363 H 0.44999 0.82904 0.00654 0.0
H364 H 0.30478 0.66708 0.10014 0.0
O365 O 0.32999 0.6895 0.16208 0.0
H366 H 0.3348 0.48363 0.06683 0.0
H367 H 0.34355 0.52356 0.23073 0.0
H368 H 0.40471 0.63055 0.15706 0.0
H369 H 0.36198 0.55027 0.09904 0.0
H370 H 0.3306 0.58894 0.17956 0.0
O371 O 0.34721 0.74981 0.0069 0.0
H372 H 0.42211 0.77345 0.04714 0.0
H373 H 0.36059 0.847 0.99225 0.0
H374 H 0.41847 0.5654 0.2078 0.0
H375 H 0.2769 0.60157 0.06819 0.0
H376 H 0.38778 0.51135 0.24504 0.0
H377 H 0.29191 0.50915 0.05123 0.0
O378 O 0.37885 0.7194 0.15001 0.0
H379 H 0.28964 0.86616 0.07183 0.0
H380 H 0.37939 0.87364 0.08543 0.0
H381 H 0.35462 0.95329 0.10443 0.0
H382 H 0.30941 0.94988 0.09761 0.0
H383 H 0.31508 0.78725 0.05354 0.0
H384 H 0.38781 0.90312 0.95081 0.0
H385 H 0.43286 0.89446 0.95794 0.0
O386 O 0.3898 0.77637 0.10118 0.0
C387 C 0.39405 0.65498 0.05859 0.0
C388 C 0.43039 0.83336 0.00327 0.0
C389 C 0.39549 0.87488 0.97196 0.0
N390 N 0.38976 0.80742 0.02238 0.0
C391 C 0.41451 0.80213 0.02629 0.0
C392 C 0.38017 0.84295 0.99546 0.0
C393 C 0.42077 0.87001 0.97598 0.0
C394 C 0.31135 0.62676 0.09317 0.0
N395 N 0.33492 0.61241 0.10161 0.0
C396 C 0.29552 0.58992 0.07495 0.0
C397 C 0.30397 0.5381 0.06538 0.0
C398 C 0.32804 0.52376 0.07411 0.0
C399 C 0.34336 0.5617 0.09227 0.0
C400 C 0.3571 0.54676 0.21462 0.0
C401 C 0.39125 0.60689 0.17294 0.0
C402 C 0.34988 0.58388 0.18565 0.0
N403 N 0.3669 0.61314 0.16509 0.0
C404 C 0.39915 0.57018 0.20172 0.0
C405 C 0.38192 0.53992 0.22263 0.0
C406 C 0.39163 0.75853 0.13647 0.0
C407 C 0.30933 0.8682 0.07482 0.0
C408 C 0.35972 0.87176 0.08252 0.0
C409 C 0.34579 0.91705 0.09322 0.0
C410 C 0.32043 0.91513 0.08935 0.0
N411 N 0.34869 0.82591 0.06825 0.0
C412 C 0.32384 0.82374 0.06434 0.0
Co413 Co 0.14375 0.83331 0.62428 0.0
Co414 Co 0.12871 0.73398 0.55598 0.0
O415 O 0.15232 0.77709 0.58599 0.0
C416 C 0.17304 0.75512 0.67069 0.0
O417 O 0.15993 0.71627 0.6546 0.0
C418 C 0.15888 0.78966 0.49629 0.0
O419 O 0.15782 0.83299 0.51881 0.0
O420 O 0.10878 0.79933 0.54311 0.0
O421 O 0.11802 0.86282 0.58843 0.0
H422 H 0.04477 0.672 0.51568 0.0
H423 H 0.19556 0.81979 0.60037 0.0
O424 O 0.16919 0.80459 0.66138 0.0
H425 H 0.17372 0.0073 0.56266 0.0
H426 H 0.16267 0.97528 0.72697 0.0
H427 H 0.0973 0.88049 0.65396 0.0
H428 H 0.14351 0.9478 0.59524 0.0
H429 H 0.17279 0.9051 0.67753 0.0
O430 O 0.14824 0.74581 0.50658 0.0
H431 H 0.07459 0.72601 0.55374 0.0
H432 H 0.13333 0.64981 0.49307 0.0
H433 H 0.08637 0.95068 0.7029 0.0
H434 H 0.2264 0.87804 0.56812 0.0
H435 H 0.11918 0.99861 0.73981 0.0
H436 H 0.21551 0.97247 0.54894 0.0
O437 O 0.11884 0.7855 0.64934 0.0
H438 H 0.20656 0.6269 0.56906 0.0
H439 H 0.11709 0.62368 0.58738 0.0
H440 H 0.14145 0.54286 0.60513 0.0
H441 H 0.18652 0.54415 0.59594 0.0
H442 H 0.1815 0.70696 0.55199 0.0
H443 H 0.10413 0.59527 0.4541 0.0
H444 H 0.0595 0.60608 0.46542 0.0
O445 O 0.10859 0.72205 0.60441 0.0
C446 C 0.10585 0.84611 0.55867 0.0
C447 C 0.06417 0.66679 0.51057 0.0
C448 C 0.09749 0.62379 0.47597 0.0
N449 N 0.10567 0.69072 0.52586 0.0
C450 C 0.08115 0.69713 0.53212 0.0
C451 C 0.11393 0.65484 0.49806 0.0
C452 C 0.07245 0.62985 0.48235 0.0
C453 C 0.19078 0.86102 0.59247 0.0
N454 N 0.16782 0.88047 0.59985 0.0
C455 C 0.20827 0.89374 0.57406 0.0
C456 C 0.20214 0.94669 0.56325 0.0
C457 C 0.17869 0.96624 0.57091 0.0
C458 C 0.16164 0.93233 0.58929 0.0
C459 C 0.14821 0.95476 0.71102 0.0
C460 C 0.11169 0.90141 0.66971 0.0
C461 C 0.15383 0.91491 0.68306 0.0
N462 N 0.13566 0.88902 0.66268 0.0
C463 C 0.10538 0.94101 0.69748 0.0
C464 C 0.12381 0.96784 0.7182 0.0
C465 C 0.10626 0.7446 0.63814 0.0
C466 C 0.18693 0.62579 0.57309 0.0
C467 C 0.13669 0.62457 0.58337 0.0
C468 C 0.15039 0.57866 0.5934 0.0
C469 C 0.17568 0.5794 0.58822 0.0
N470 N 0.14786 0.66987 0.56847 0.0
C471 C 0.17264 0.67092 0.56333 0.0
H472 H 0.29286 0.32732 0.70117 0.0
H473 H 0.26321 0.3067 0.75292 0.0
H474 H 0.28314 0.13721 0.74775 0.0
H475 H 0.31315 0.15746 0.69598 0.0
H476 H 0.2228 0.23323 0.75278 0.0
H477 H 0.2931 0.17908 0.86511 0.0
H478 H 0.30062 0.21488 0.82017 0.0
H479 H 0.29459 0.14315 0.81892 0.0
C480 C 0.29093 0.28556 0.71086 0.0
C481 C 0.30555 0.24408 0.69467 0.0
C482 C 0.27393 0.27387 0.7404 0.0
C483 C 0.27125 0.22061 0.7545 0.0
C484 C 0.28525 0.17875 0.73768 0.0
H485 H 0.1841 0.11541 0.9583 0.0
H486 H 0.20988 0.11451 0.89909 0.0
C487 C 0.30229 0.19037 0.708 0.0
C488 C 0.25408 0.20968 0.78741 0.0
H489 H 0.25195 0.1757 0.88515 0.0
C490 C 0.22912 0.22025 0.78166 0.0
C491 C 0.26241 0.19257 0.82497 0.0
C492 C 0.28915 0.18206 0.83299 0.0
C493 C 0.21227 0.21499 0.8127 0.0
C494 C 0.22072 0.19977 0.85061 0.0
C495 C 0.24555 0.18744 0.85604 0.0
C496 C 0.20438 0.19961 0.88555 0.0
C497 C 0.18557 0.2259 0.80463 0.0
C498 C 0.193 0.24789 0.89776 0.0
C499 C 0.1783 0.2486 0.93148 0.0
C500 C 0.1748 0.20102 0.95382 0.0
C501 C 0.18631 0.15268 0.94162 0.0
C502 C 0.20106 0.15207 0.90784 0.0
H503 H 0.18113 0.22076 0.77282 0.0
H504 H 0.17367 0.19844 0.8222 0.0
H505 H 0.18124 0.26848 0.81293 0.0
H506 H 0.19579 0.28533 0.88152 0.0
H507 H 0.16984 0.28659 0.94015 0.0
H508 H 0.17877 0.18207 0.23343 0.0
H509 H 0.20691 0.19884 0.28797 0.0
H510 H 0.2429 0.3234 0.21926 0.0
H511 H 0.21327 0.30949 0.16578 0.0
H512 H 0.25168 0.18439 0.29475 0.0
H513 H 0.23716 0.40463 0.31834 0.0
H514 H 0.21806 0.36535 0.28571 0.0
H515 H 0.24724 0.39072 0.26903 0.0
C516 C 0.19256 0.21343 0.23022 0.0
C517 C 0.19388 0.24471 0.19564 0.0
C518 C 0.20868 0.22299 0.26136 0.0
C519 C 0.22692 0.26304 0.25822 0.0
C520 C 0.22853 0.29363 0.22317 0.0
H521 H 0.34998 0.24111 0.42298 0.0
H522 H 0.32402 0.23737 0.36418 0.0
C523 C 0.21179 0.28531 0.19244 0.0
C524 C 0.24468 0.27052 0.29113 0.0
H525 H 0.2713 0.36508 0.35125 0.0
C526 C 0.25576 0.22397 0.30725 0.0
C527 C 0.24993 0.32199 0.30794 0.0
C528 C 0.23726 0.37337 0.29463 0.0
C529 C 0.27151 0.22713 0.33985 0.0
C530 C 0.27771 0.27881 0.35542 0.0
C531 C 0.26684 0.32549 0.3391 0.0
C532 C 0.29462 0.28514 0.38956 0.0
C533 C 0.28036 0.17464 0.35811 0.0
C534 C 0.28761 0.31635 0.42249 0.0
C535 C 0.30294 0.32046 0.4554 0.0
C536 C 0.32528 0.29244 0.45629 0.0
C537 C 0.33261 0.26234 0.42313 0.0
C538 C 0.31767 0.25976 0.38972 0.0
H539 H 0.26771 0.14044 0.35155 0.0
H540 H 0.29846 0.16397 0.34549 0.0
H541 H 0.28214 0.17818 0.39067 0.0
H542 H 0.27002 0.33661 0.42312 0.0
H543 H 0.29692 0.34392 0.48069 0.0
H544 H 0.81204 0.34176 0.30229 0.0
H545 H 0.78154 0.35836 0.25066 0.0
H546 H 0.76363 0.18763 0.24904 0.0
H547 H 0.79382 0.17063 0.30064 0.0
H548 H 0.78171 0.31129 0.17488 0.0
H549 H 0.69638 0.26106 0.25542 0.0
H550 H 0.72488 0.27518 0.28037 0.0
H551 H 0.71943 0.20931 0.25904 0.0
C552 C 0.80141 0.30784 0.29127 0.0
C553 C 0.80538 0.25486 0.30557 0.0
C554 C 0.78401 0.31742 0.26178 0.0
C555 C 0.77013 0.27434 0.24642 0.0
C556 C 0.7738 0.22161 0.26104 0.0
H557 H 0.672 0.2077 0.05544 0.0
H558 H 0.69842 0.20755 0.11365 0.0
C559 C 0.7912 0.21195 0.29039 0.0
C560 C 0.75293 0.28355 0.2133 0.0
H561 H 0.69356 0.26544 0.185 0.0
C562 C 0.76236 0.30202 0.17716 0.0
C563 C 0.72774 0.27126 0.21645 0.0
C564 C 0.71642 0.25359 0.25501 0.0
C565 C 0.74746 0.30637 0.14355 0.0
C566 C 0.72238 0.29278 0.14645 0.0
C567 C 0.71282 0.27564 0.18286 0.0
C568 C 0.70598 0.29386 0.11164 0.0
C569 C 0.75888 0.32331 0.10486 0.0
C570 C 0.70124 0.34261 0.09152 0.0
C571 C 0.68619 0.34286 0.05812 0.0
C572 C 0.6755 0.29435 0.04444 0.0
C573 C 0.67999 0.24575 0.06511 0.0
C574 C 0.69504 0.24558 0.09844 0.0
H575 H 0.77915 0.32048 0.10567 0.0
H576 H 0.75202 0.29773 0.08021 0.0
H577 H 0.7539 0.36617 0.0985 0.0
H578 H 0.70917 0.38048 0.10165 0.0
H579 H 0.68304 0.38102 0.04297 0.0
H580 H 0.68957 0.16796 0.80134 0.0
H581 H 0.72006 0.15129 0.74968 0.0
H582 H 0.7383 0.32187 0.74846 0.0
H583 H 0.70813 0.33892 0.80008 0.0
H584 H 0.72025 0.19863 0.67391 0.0
H585 H 0.80538 0.24777 0.75531 0.0
H586 H 0.77676 0.2338 0.77998 0.0
H587 H 0.78241 0.29972 0.75887 0.0
C588 C 0.70026 0.20183 0.79039 0.0
C589 C 0.69641 0.25478 0.80483 0.0
C590 C 0.71765 0.19221 0.76087 0.0
C591 C 0.73164 0.23522 0.74565 0.0
C592 C 0.72804 0.28793 0.76037 0.0
H593 H 0.83047 0.30223 0.55566 0.0
H594 H 0.80383 0.30222 0.61363 0.0
C595 C 0.71066 0.29762 0.78973 0.0
C596 C 0.74894 0.22599 0.71265 0.0
H597 H 0.80842 0.24385 0.6849 0.0
C598 C 0.7396 0.20776 0.67638 0.0
C599 C 0.77413 0.23807 0.71604 0.0
C600 C 0.78535 0.25544 0.75475 0.0
C601 C 0.75461 0.20349 0.64288 0.0
C602 C 0.7797 0.21692 0.64603 0.0
C603 C 0.78916 0.23379 0.68257 0.0
C604 C 0.79622 0.21595 0.61136 0.0
C605 C 0.74331 0.18679 0.60405 0.0
C606 C 0.80101 0.16726 0.59118 0.0
C607 C 0.81619 0.1671 0.55794 0.0
C608 C 0.82697 0.21563 0.54446 0.0
C609 C 0.82243 0.26416 0.56519 0.0
C610 C 0.80725 0.26425 0.59837 0.0
H611 H 0.72303 0.18968 0.6047 0.0
H612 H 0.75027 0.21251 0.57954 0.0
H613 H 0.74829 0.14397 0.5976 0.0
H614 H 0.79301 0.12938 0.60115 0.0
H615 H 0.81937 0.129 0.54273 0.0
H616 H 0.81837 0.8727 0.03979 0.0
H617 H 0.79268 0.8733 0.09903 0.0
H618 H 0.80428 0.70096 0.1133 0.0
H619 H 0.8302 0.7 0.05459 0.0
H620 H 0.74983 0.81518 0.11142 0.0
H621 H 0.81951 0.76001 0.22331 0.0
H622 H 0.82749 0.78331 0.17439 0.0
H623 H 0.81855 0.71376 0.18233 0.0
C624 C 0.81566 0.83501 0.05576 0.0
C625 C 0.82645 0.78634 0.0426 0.0
C626 C 0.80096 0.83546 0.08956 0.0
C627 C 0.79693 0.78738 0.11091 0.0
C628 C 0.80762 0.73876 0.0978 0.0
H629 H 0.70515 0.6675 0.29538 0.0
H630 H 0.73517 0.68381 0.2433 0.0
C631 C 0.82231 0.73824 0.06405 0.0
C632 C 0.78051 0.78722 0.14572 0.0
H633 H 0.77765 0.75191 0.24315 0.0
C634 C 0.75595 0.80208 0.14038 0.0
C635 C 0.7886 0.77017 0.18343 0.0
C636 C 0.81503 0.75641 0.1914 0.0
C637 C 0.73899 0.79809 0.17137 0.0
C638 C 0.74694 0.7795 0.20876 0.0
C639 C 0.77163 0.76602 0.21439 0.0
C640 C 0.72962 0.77087 0.24177 0.0
C641 C 0.71251 0.81165 0.16346 0.0
C642 C 0.71693 0.81465 0.25869 0.0
C643 C 0.69971 0.80551 0.28853 0.0
C644 C 0.69496 0.7524 0.30194 0.0
C645 C 0.70826 0.70888 0.28564 0.0
C646 C 0.72546 0.71809 0.2559 0.0
H647 H 0.70859 0.81505 0.13135 0.0
H648 H 0.7003 0.78023 0.17635 0.0
H649 H 0.70802 0.85116 0.17751 0.0
H650 H 0.7202 0.8558 0.24859 0.0
H651 H 0.6899 0.83995 0.30064 0.0
H652 H 0.6713 0.80093 0.55262 0.0
H653 H 0.69785 0.79935 0.61068 0.0
H654 H 0.70678 0.62599 0.59806 0.0
H655 H 0.68051 0.62716 0.53954 0.0
H656 H 0.69235 0.74084 0.68183 0.0
H657 H 0.77741 0.68262 0.60213 0.0
H658 H 0.75051 0.70702 0.57681 0.0
H659 H 0.75166 0.63835 0.59478 0.0
C660 C 0.67891 0.76242 0.56213 0.0
C661 C 0.67386 0.71419 0.54136 0.0
C662 C 0.69403 0.7616 0.59536 0.0
C663 C 0.70449 0.71268 0.60834 0.0
C664 C 0.69921 0.66431 0.5881 0.0
H665 H 0.81035 0.66078 0.79906 0.0
H666 H 0.77987 0.6449 0.74723 0.0
C667 C 0.68409 0.66505 0.5548 0.0
C668 C 0.72092 0.71268 0.64312 0.0
H669 H 0.78013 0.6918 0.67131 0.0
C670 C 0.71152 0.72992 0.67961 0.0
C671 C 0.74588 0.6981 0.6401 0.0
C672 C 0.7571 0.68087 0.60134 0.0
C673 C 0.7265 0.73355 0.71315 0.0
C674 C 0.7516 0.72043 0.70988 0.0
C675 C 0.76086 0.70174 0.67367 0.0
C676 C 0.76891 0.72921 0.7429 0.0
C677 C 0.71535 0.75141 0.7518 0.0
C678 C 0.77285 0.78187 0.75746 0.0
C679 C 0.79022 0.79111 0.78691 0.0
C680 C 0.80411 0.74785 0.80224 0.0
C681 C 0.79993 0.69496 0.78792 0.0
C682 C 0.78255 0.68579 0.75832 0.0
H683 H 0.69528 0.74443 0.75229 0.0
H684 H 0.72375 0.72955 0.77709 0.0
H685 H 0.71859 0.7956 0.75586 0.0
H686 H 0.76287 0.8161 0.74539 0.0
H687 H 0.793 0.83237 0.79716 0.0
H688 H 0.3142 0.61644 0.96479 0.0
H689 H 0.28793 0.61426 0.90613 0.0
H690 H 0.30038 0.7856 0.88805 0.0
H691 H 0.32677 0.78816 0.94608 0.0
H692 H 0.24514 0.67413 0.89217 0.0
H693 H 0.31559 0.72052 0.77954 0.0
H694 H 0.32321 0.69853 0.82893 0.0
H695 H 0.31533 0.76838 0.81956 0.0
C696 C 0.3115 0.65356 0.94813 0.0
C697 C 0.32272 0.70241 0.95998 0.0
C698 C 0.29647 0.65222 0.91467 0.0
C699 C 0.29258 0.69954 0.89236 0.0
C700 C 0.3036 0.74835 0.90431 0.0
H701 H 0.20375 0.82567 0.70827 0.0
H702 H 0.23302 0.80542 0.76066 0.0
C703 C 0.31856 0.74978 0.93769 0.0
C704 C 0.2762 0.6989 0.8575 0.0
H705 H 0.27384 0.73239 0.75971 0.0
C706 C 0.25143 0.686 0.86303 0.0
C707 C 0.28454 0.71424 0.81954 0.0
C708 C 0.31117 0.72569 0.81136 0.0
C709 C 0.23451 0.69081 0.83201 0.0
C710 C 0.2427 0.70825 0.79446 0.0
C711 C 0.26762 0.71923 0.7886 0.0
C712 C 0.22547 0.7191 0.76165 0.0
C713 C 0.20783 0.67967 0.84008 0.0
C714 C 0.21182 0.67702 0.74439 0.0
C715 C 0.19502 0.68843 0.71431 0.0
C716 C 0.19164 0.74213 0.70104 0.0
C717 C 0.20579 0.7839 0.71787 0.0
C718 C 0.22257 0.77243 0.74779 0.0
H719 H 0.20394 0.67601 0.87218 0.0
H720 H 0.19622 0.71253 0.82762 0.0
H721 H 0.2025 0.64095 0.82562 0.0
H722 H 0.2141 0.63545 0.7543 0.0
H723 H 0.1845 0.6553 0.70183 0.0
H724 H 0.31737 0.68171 0.23689 0.0
H725 H 0.28724 0.69659 0.28887 0.0
H726 H 0.25571 0.82829 0.22161 0.0
H727 H 0.28719 0.81588 0.17066 0.0
H728 H 0.25579 0.85591 0.29376 0.0
H729 H 0.21909 0.6475 0.29032 0.0
H730 H 0.25112 0.64484 0.3009 0.0
H731 H 0.24069 0.67128 0.25405 0.0
C732 C 0.30395 0.71376 0.23319 0.0
C733 C 0.30437 0.74733 0.19968 0.0
C734 C 0.28657 0.72192 0.26274 0.0
C735 C 0.26857 0.7623 0.25865 0.0
C736 C 0.26922 0.79648 0.22533 0.0
H737 H 0.14748 0.74181 0.42643 0.0
H738 H 0.17167 0.74186 0.36563 0.0
C739 C 0.28715 0.78938 0.19624 0.0
C740 C 0.24961 0.7695 0.28975 0.0
H741 H 0.211 0.6985 0.3497 0.0
C742 C 0.2457 0.8216 0.30557 0.0
C743 C 0.23583 0.72521 0.30458 0.0
C744 C 0.23671 0.6693 0.28618 0.0
C745 C 0.22917 0.83018 0.33675 0.0
C746 C 0.21716 0.78496 0.35402 0.0
C747 C 0.22043 0.73325 0.33716 0.0
C748 C 0.20146 0.78963 0.38984 0.0
C749 C 0.22456 0.88782 0.35012 0.0
C750 C 0.20989 0.81679 0.4238 0.0
C751 C 0.19561 0.81844 0.45804 0.0
C752 C 0.17316 0.79096 0.4595 0.0
C753 C 0.1648 0.76322 0.42592 0.0
C754 C 0.17865 0.7632 0.39125 0.0
H755 H 0.22717 0.917 0.32541 0.0
H756 H 0.20577 0.893 0.36194 0.0
H757 H 0.23791 0.89866 0.37352 0.0
H758 H 0.22777 0.83561 0.42427 0.0
H759 H 0.20256 0.83941 0.48386 0.0
H760 H 0.06849 0.31495 0.11368 0.0
H761 H 0.03261 0.33317 0.15446 0.0
H762 H 0.06674 0.25109 0.25264 0.0
H763 H 0.10239 0.23122 0.21181 0.0
H764 H 0.02312 0.20899 0.2357 0.0
H765 H 0.01453 0.43314 0.24471 0.0
H766 H 0.01735 0.4087 0.19497 0.0
H767 H 0.04233 0.39989 0.22896 0.0
C768 C 0.06864 0.30183 0.14421 0.0
C769 C 0.0882 0.27098 0.15931 0.0
C770 C 0.04813 0.31267 0.1676 0.0
C771 C 0.04703 0.29376 0.20668 0.0
C772 C 0.06721 0.26604 0.22254 0.0
H773 H 0.93183 0.32578 0.38097 0.0
H774 H 0.96833 0.34025 0.34068 0.0
C775 C 0.08757 0.25468 0.19912 0.0
C776 C 0.02381 0.29613 0.22923 0.0
H777 H 0.97925 0.38136 0.2636 0.0
C778 C 0.01365 0.24678 0.24203 0.0
C779 C 0.0115 0.34544 0.23758 0.0
C780 C 0.02209 0.39985 0.22618 0.0
C781 C 0.99146 0.24518 0.26258 0.0
C782 C 0.97867 0.29422 0.26963 0.0
C783 C 0.98894 0.3438 0.2575 0.0
C784 C 0.95498 0.29412 0.29076 0.0
C785 C 0.98211 0.19094 0.2771 0.0
C786 C 0.93496 0.26561 0.27521 0.0
C787 C 0.91417 0.25672 0.29824 0.0
C788 C 0.91294 0.27673 0.33713 0.0
C789 C 0.93221 0.30933 0.3513 0.0
C790 C 0.9531 0.3178 0.3283 0.0
H791 H 0.99682 0.1598 0.27796 0.0
H792 H 0.9741 0.19464 0.30712 0.0
H793 H 0.96762 0.17615 0.25681 0.0
H794 H 0.93591 0.24794 0.24593 0.0
H795 H 0.89955 0.23209 0.28614 0.0
H796 H 0.43366 0.1901 0.61591 0.0
H797 H 0.46952 0.17415 0.65708 0.0
H798 H 0.4334 0.25151 0.75547 0.0
H799 H 0.39772 0.26928 0.71417 0.0
H800 H 0.47637 0.29677 0.74078 0.0
H801 H 0.48854 0.07339 0.74569 0.0
H802 H 0.4859 0.09874 0.69619 0.0
H803 H 0.46042 0.10489 0.72957 0.0
C804 C 0.43308 0.20271 0.64654 0.0
C805 C 0.41289 0.23158 0.66158 0.0
C806 C 0.45359 0.19312 0.67017 0.0
C807 C 0.4541 0.21126 0.70947 0.0
C808 C 0.43339 0.23713 0.72521 0.0
H809 H 0.57127 0.18147 0.88129 0.0
H810 H 0.5344 0.16618 0.84209 0.0
C811 C 0.413 0.24729 0.70153 0.0
C812 C 0.47719 0.20993 0.73241 0.0
H813 H 0.52332 0.12726 0.76456 0.0
C814 C 0.48649 0.25957 0.74627 0.0
C815 C 0.49034 0.16138 0.73971 0.0
C816 C 0.48067 0.10653 0.72735 0.0
C817 C 0.50872 0.26224 0.76663 0.0
C818 C 0.52242 0.21412 0.77239 0.0
C819 C 0.51295 0.16418 0.75941 0.0
C820 C 0.54633 0.21545 0.79281 0.0
C821 C 0.51721 0.31662 0.78221 0.0
C822 C 0.56568 0.24612 0.77721 0.0
C823 C 0.58669 0.25541 0.7996 0.0
C824 C 0.58881 0.23373 0.83792 0.0
C825 C 0.57019 0.19925 0.85208 0.0
C826 C 0.54909 0.19031 0.8297 0.0
H827 H 0.50193 0.34631 0.78415 0.0
H828 H 0.52557 0.31234 0.81194 0.0
H829 H 0.53121 0.33363 0.76195 0.0
H830 H 0.56403 0.26496 0.7484 0.0
H831 H 0.60077 0.28157 0.78752 0.0
H832 H 0.07917 0.65099 0.63157 0.0
H833 H 0.04303 0.62588 0.67008 0.0
H834 H 0.05172 0.77023 0.74112 0.0
H835 H 0.08824 0.79446 0.70408 0.0
H836 H 0.03748 0.68589 0.78525 0.0
H837 H 0.97865 0.70068 0.65154 0.0
H838 H 0.00249 0.65063 0.64916 0.0
H839 H 0.01023 0.72163 0.65143 0.0
C840 C 0.0736 0.67696 0.65579 0.0
C841 C 0.08647 0.72512 0.66442 0.0
C842 C 0.05282 0.66273 0.67756 0.0
C843 C 0.04431 0.69691 0.70779 0.0
C844 C 0.05788 0.74335 0.71778 0.0
H845 H 0.90798 0.79213 0.79464 0.0
H846 H 0.94424 0.76863 0.7567 0.0
C847 C 0.07879 0.75721 0.69647 0.0
C848 C 0.02063 0.68684 0.72784 0.0
H849 H 0.95896 0.68522 0.71194 0.0
C850 C 0.02029 0.68502 0.76927 0.0
C851 C 0.99824 0.68603 0.7068 0.0
C852 C 0.99726 0.69027 0.66232 0.0
C853 C 0.99821 0.6855 0.79038 0.0
C854 C 0.97581 0.6859 0.76936 0.0
C855 C 0.97616 0.68463 0.72791 0.0
C856 C 0.95209 0.69509 0.78952 0.0
C857 C 0.99918 0.68929 0.83489 0.0
C858 C 0.94385 0.66044 0.81966 0.0
C859 C 0.92324 0.67426 0.84196 0.0
C860 C 0.91025 0.72247 0.83395 0.0
C861 C 0.91755 0.75486 0.80182 0.0
C862 C 0.93831 0.74142 0.77999 0.0
H863 H 0.01774 0.7001 0.84571 0.0
H864 H 0.98605 0.72018 0.84596 0.0
H865 H 0.99418 0.64937 0.84783 0.0
H866 H 0.95381 0.62366 0.82678 0.0
H867 H 0.91794 0.64803 0.8662 0.0
H868 H 0.4306 0.82181 0.11438 0.0
H869 H 0.46765 0.83897 0.15277 0.0
H870 H 0.43491 0.76155 0.25406 0.0
H871 H 0.39802 0.74292 0.21579 0.0
H872 H 0.48039 0.88816 0.22669 0.0
H873 H 0.49365 0.66421 0.22584 0.0
H874 H 0.47115 0.69756 0.19533 0.0
H875 H 0.4651 0.68579 0.24684 0.0
C876 C 0.43103 0.80937 0.14505 0.0
C877 C 0.41154 0.77983 0.16174 0.0
C878 C 0.45224 0.81936 0.16696 0.0
C879 C 0.45417 0.80036 0.20588 0.0
C880 C 0.43391 0.7755 0.22374 0.0
H881 H 0.57 0.82935 0.3779 0.0
H882 H 0.53408 0.8468 0.3371 0.0
C883 C 0.41282 0.76499 0.20182 0.0
C884 C 0.47812 0.80076 0.22619 0.0
H885 H 0.52146 0.71569 0.26388 0.0
C886 C 0.48946 0.85057 0.23481 0.0
C887 C 0.4901 0.75155 0.23589 0.0
C888 C 0.47954 0.69672 0.2252 0.0
C889 C 0.51232 0.85239 0.25385 0.0
C890 C 0.52382 0.80311 0.26482 0.0
C891 C 0.5126 0.75345 0.25551 0.0
C892 C 0.54726 0.80117 0.28674 0.0
C893 C 0.52406 0.90684 0.26155 0.0
C894 C 0.56678 0.77029 0.27184 0.0
C895 C 0.58719 0.75947 0.2953 0.0
C896 C 0.58849 0.77938 0.33419 0.0
C897 C 0.56963 0.81331 0.34811 0.0
C898 C 0.5491 0.82372 0.32469 0.0
H899 H 0.51673 0.9387 0.24151 0.0
H900 H 0.52012 0.91944 0.29238 0.0
H901 H 0.54422 0.90468 0.25784 0.0
H902 H 0.56572 0.75247 0.24261 0.0
H903 H 0.60144 0.73353 0.28348 0.0
H904 H 0.09269 0.04738 0.07935 0.0
H905 H 0.05719 0.99405 0.05936 0.0
H906 H 0.03751 0.11776 0.97487 0.0
H907 H 0.07319 0.17134 0.99423 0.0
H908 H 0.0088 0.02738 0.06536 0.0
H909 H 0.03259 0.97791 0.91003 0.0
H910 H 0.05491 0.00226 0.94515 0.0
H911 H 0.03422 0.04905 0.92173 0.0
C912 C 0.08107 0.06305 0.05606 0.0
C913 C 0.08588 0.11375 0.03836 0.0
C914 C 0.06073 0.03247 0.04477 0.0
C915 C 0.04484 0.05172 0.01544 0.0
C916 C 0.0498 0.10169 0.99708 0.0
H917 H 0.9073 0.94194 0.91812 0.0
H918 H 0.94327 0.99372 0.93806 0.0
C919 C 0.07019 0.13234 0.00829 0.0
C920 C 0.02234 0.02093 0.00579 0.0
H921 H 0.99204 0.95778 0.93054 0.0
C922 C 0.00517 0.01186 0.03594 0.0
C923 C 0.01767 0.00091 0.96737 0.0
C924 C 0.0359 0.00751 0.93425 0.0
C925 C 0.98322 0.98408 0.02855 0.0
C926 C 0.97852 0.96425 0.99011 0.0
C927 C 0.9957 0.97321 0.95997 0.0
C928 C 0.95587 0.93412 0.98038 0.0
C929 C 0.96501 0.97723 0.06166 0.0
C930 C 0.95093 0.88356 0.99787 0.0
C931 C 0.9303 0.85371 0.98663 0.0
C932 C 0.91432 0.8738 0.95748 0.0
C933 C 0.91912 0.9251 0.94069 0.0
C934 C 0.93973 0.9548 0.95194 0.0
H935 H 0.96862 0.00579 0.08641 0.0
H936 H 0.94604 0.98377 0.05092 0.0
H937 H 0.96626 0.93517 0.07336 0.0
H938 H 0.96339 0.8665 0.01943 0.0
H939 H 0.92731 0.81424 -2e-05 0.0
H940 H 0.58939 0.56199 0.41574 0.0
H941 H 0.55296 0.51196 0.43598 0.0
H942 H 0.53675 0.6352 0.52267 0.0
H943 H 0.57329 0.68572 0.5029 0.0
H944 H 0.53123 0.52534 0.54977 0.0
H945 H 0.48289 0.56262 0.40801 0.0
H946 H 0.51289 0.53356 0.40301 0.0
H947 H 0.50953 0.60089 0.4229 0.0
C948 C 0.57825 0.57843 0.43935 0.0
C949 C 0.58424 0.62821 0.45748 0.0
C950 C 0.55733 0.54986 0.45069 0.0
C951 C 0.54195 0.57049 0.48023 0.0
C952 C 0.54833 0.61889 0.49956 0.0
H953 H 0.40656 0.45257 0.5861 0.0
H954 H 0.44189 0.50756 0.5673 0.0
C955 C 0.56926 0.64762 0.48824 0.0
C956 C 0.51902 0.54181 0.49054 0.0
H957 H 0.46422 0.50068 0.45251 0.0
C958 C 0.51649 0.52019 0.52866 0.0
C959 C 0.49987 0.53531 0.46285 0.0
C960 C 0.50123 0.55969 0.42199 0.0
C961 C 0.49551 0.49086 0.53953 0.0
C962 C 0.47643 0.48399 0.51172 0.0
C963 C 0.47889 0.50605 0.47372 0.0
C964 C 0.45402 0.45284 0.52126 0.0
C965 C 0.49426 0.46612 0.58028 0.0
C966 C 0.44856 0.40507 0.50043 0.0
C967 C 0.42826 0.37366 0.51084 0.0
C968 C 0.41298 0.38958 0.54225 0.0
C969 C 0.41797 0.4388 0.56193 0.0
C970 C 0.43827 0.47016 0.55144 0.0
H971 H 0.51256 0.4641 0.59448 0.0
H972 H 0.48223 0.49141 0.59923 0.0
H973 H 0.48646 0.42446 0.57911 0.0
H974 H 0.46041 0.39126 0.47683 0.0
H975 H 0.42501 0.33611 0.49496 0.0
H976 H 0.42488 0.67656 0.99649 0.0
H977 H 0.46083 0.62432 0.97614 0.0
H978 H 0.44598 0.50588 0.06692 0.0
H979 H 0.40998 0.55713 0.08728 0.0
H980 H 0.50133 0.59962 0.02489 0.0
H981 H 0.45705 0.41202 0.96834 0.0
H982 H 0.44049 0.47477 0.97556 0.0
H983 H 0.44737 0.43167 0.01698 0.0
C984 C 0.429 0.63894 0.01174 0.0
C985 C 0.41443 0.62105 0.04347 0.0
C986 C 0.44961 0.60928 0.00015 0.0
C987 C 0.4559 0.561 0.01977 0.0
C988 C 0.44119 0.54251 0.05091 0.0
H989 H 0.57537 0.32971 0.00586 0.0
H990 H 0.53965 0.38293 0.02574 0.0
C991 C 0.42064 0.5721 0.06259 0.0
C992 C 0.47859 0.53146 0.00925 0.0
H993 H 0.50012 0.40881 0.97738 0.0
C994 C 0.5011 0.55802 0.01424 0.0
C995 C 0.47818 0.47711 0.99565 0.0
C996 C 0.45448 0.44727 0.98844 0.0
C997 C 0.5233 0.5313 0.00665 0.0
C998 C 0.5229 0.47691 0.99308 0.0
C999 C 0.50037 0.45042 0.988 0.0
C1000 C 0.54558 0.44701 0.98302 0.0
C1001 C 0.54698 0.5611 0.01408 0.0
C1002 C 0.56084 0.46563 0.9526 0.0
C1003 C 0.58132 0.43552 0.94125 0.0
C1004 C 0.58686 0.38583 0.95989 0.0
C1005 C 0.57176 0.36784 0.99095 0.0
C1006 C 0.55128 0.39809 0.00228 0.0
H1007 H 0.54438 0.59606 0.03445 0.0
H1008 H 0.561 0.53349 0.02679 0.0
H1009 H 0.55407 0.57716 0.98568 0.0
H1010 H 0.55652 0.50273 0.93682 0.0
H1011 H 0.5924 0.45058 0.91708 0.0
H1012 H 0.09253 0.94744 0.58471 0.0
H1013 H 0.05681 0.00036 0.56487 0.0
H1014 H 0.03833 0.87842 0.47839 0.0
H1015 H 0.0738 0.82457 0.4983 0.0
H1016 H 0.04247 0.04333 0.49144 0.0
H1017 H 0.97624 0.88951 0.54622 0.0
H1018 H 0.00828 0.88793 0.55901 0.0
H1019 H 0.99828 0.86391 0.51154 0.0
C1020 C 0.08103 0.93191 0.56123 0.0
C1021 C 0.08598 0.88137 0.54337 0.0
C1022 C 0.0606 0.96229 0.54997 0.0
C1023 C 0.04468 0.94273 0.52077 0.0
C1024 C 0.05011 0.89361 0.50162 0.0
H1025 H 0.90989 0.05934 0.41756 0.0
H1026 H 0.94595 0.00747 0.4372 0.0
C1027 C 0.07053 0.8631 0.51286 0.0
C1028 C 0.02215 0.97335 0.51093 0.0
H1029 H 0.95981 0.96461 0.51131 0.0
C1030 C 0.02439 0.02627 0.49589 0.0
C1031 C 0.99861 0.95092 0.51691 0.0
C1032 C 0.99509 0.89514 0.53463 0.0
C1033 C 0.00367 0.05706 0.4859 0.0
C1034 C 0.98013 0.03458 0.4918 0.0
C1035 C 0.9779 0.98169 0.50688 0.0
C1036 C 0.95759 0.06497 0.48172 0.0
C1037 C 0.00715 0.11289 0.46825 0.0
C1038 C 0.95182 0.11375 0.50109 0.0
C1039 C 0.93118 0.14362 0.49001 0.0
C1040 C 0.91586 0.12508 0.45941 0.0
C1041 C 0.92126 0.07504 0.44115 0.0
C1042 C 0.94189 0.04527 0.45229 0.0
H1043 H 0.02606 0.11887 0.45707 0.0
H1044 H 0.99412 0.11984 0.44359 0.0
H1045 H 0.00362 0.14407 0.49125 0.0
H1046 H 0.96347 0.12906 0.52446 0.0
H1047 H 0.92758 0.18184 0.50482 0.0
loop_
_geom_bond_atom_site_label_1
_geom_bond_atom_site_label_2
_geom_bond_distance
_geom_bond_site_symmetry_2
_ccdc_geom_bond_type
Co0 O2 2.143 . S
Co0 O8 2.074 . S
Co0 O11 2.093 . S
Co0 O24 2.097 . S
Co0 N41 2.151 . S
Co0 N49 2.214 . S
Co1 O2 2.160 . S
Co1 O7 2.058 . S
Co1 O17 2.057 . S
Co1 O32 2.037 . S
Co1 N36 2.145 . S
Co1 N57 2.257 . S
O2 Co0 2.143 . S
O2 Co1 2.160 . S
C3 O4 1.278 . S
C3 O11 1.224 . S
O4 C3 1.278 . S
C5 O6 1.245 . S
C5 O17 1.232 . S
O6 C5 1.245 . S
O7 Co1 2.058 . S
O7 C33 1.269 . S
O8 Co0 2.074 . S
O8 C33 1.257 . S
H9 C34 0.930 . S
H10 C40 0.930 . S
O11 Co0 2.093 . S
O11 C3 1.224 . S
H12 C44 0.929 . S
H13 C46 0.930 . S
H14 C47 0.930 . S
H15 C45 0.929 . S
H16 C48 0.932 . S
O17 Co1 2.057 . S
O17 C5 1.232 . S
H18 C37 0.929 . S
H19 C38 0.929 . S
H20 C50 0.931 . S
H21 C42 0.929 . S
H22 C51 0.930 . S
H23 C43 0.931 . S
O24 Co0 2.097 . S
O24 C52 1.214 . S
H25 C53 0.929 . S
H26 C54 0.929 . S
H27 C55 0.930 . S
H28 C56 0.929 . S
H29 C58 0.930 . S
H30 C35 0.930 . S
H31 C39 0.930 . S
O32 Co1 2.037 . S
O32 C52 1.234 . S
C33 O7 1.269 . S
C33 O8 1.257 . S
C34 H9 0.930 . S
C34 C37 1.388 . S
C34 C39 1.418 . S
C35 H30 0.930 . S
C35 C38 1.404 . S
C35 C39 1.353 . S
N36 Co1 2.145 . S
N36 C37 1.397 . S
N36 C38 1.334 . S
C37 H18 0.929 . S
C37 C34 1.388 . S
C37 N36 1.397 . S
C38 H19 0.929 . S
C38 C35 1.404 . S
C38 N36 1.334 . S
C39 H31 0.930 . S
C39 C34 1.418 . S
C39 C35 1.353 . S
C40 H10 0.930 . S
C40 N41 1.330 . S
C40 C42 1.446 . S
N41 Co0 2.151 . S
N41 C40 1.330 . S
N41 C45 1.418 . S
C42 H21 0.929 . S
C42 C40 1.446 . S
C42 C43 1.332 . S
C43 H23 0.931 . S
C43 C42 1.332 . S
C43 C44 1.267 . S
C44 H12 0.929 . S
C44 C43 1.267 . S
C44 C45 1.251 . S
C45 H15 0.929 . S
C45 N41 1.418 . S
C45 C44 1.251 . S
C46 H13 0.930 . S
C46 C48 1.419 . S
C46 C51 1.261 . S
C47 H14 0.930 . S
C47 N49 1.325 . S
C47 C50 1.357 . S
C48 H16 0.932 . S
C48 C46 1.419 . S
C48 N49 1.245 1_556 S
N49 Co0 2.214 . S
N49 C47 1.325 . S
N49 C48 1.245 1_554 S
C50 H20 0.931 . S
C50 C47 1.357 . S
C50 C51 1.312 1_554 S
C51 H22 0.930 . S
C51 C46 1.261 . S
C51 C50 1.312 1_556 S
C52 O24 1.214 . S
C52 O32 1.234 . S
C53 H25 0.929 . S
C53 C56 1.391 . S
C53 C58 1.391 . S
C54 H26 0.929 . S
C54 C55 1.390 . S
C54 N57 1.391 . S
C55 H27 0.930 . S
C55 C54 1.390 . S
C55 C56 1.392 . S
C56 H28 0.929 . S
C56 C53 1.391 . S
C56 C55 1.392 . S
N57 Co1 2.257 . S
N57 C54 1.391 . S
N57 C58 1.388 . S
C58 H29 0.930 . S
C58 C53 1.391 . S
C58 N57 1.388 . S
Co59 O61 2.143 . S
Co59 O67 2.074 . S
Co59 O70 2.093 . S
Co59 O83 2.097 . S
Co59 N100 2.151 . S
Co59 N108 2.214 . S
Co60 O61 2.160 . S
Co60 O66 2.058 . S
Co60 O76 2.057 . S
Co60 O91 2.037 . S
Co60 N95 2.145 . S
Co60 N116 2.257 . S
O61 Co59 2.143 . S
O61 Co60 2.160 . S
C62 O63 1.278 . S
C62 O70 1.224 . S
O63 C62 1.278 . S
C64 O65 1.245 . S
C64 O76 1.232 . S
O65 C64 1.245 . S
O66 Co60 2.058 . S
O66 C92 1.269 . S
O67 Co59 2.074 . S
O67 C92 1.257 . S
H68 C93 0.930 . S
H69 C99 0.930 . S
O70 Co59 2.093 . S
O70 C62 1.224 . S
H71 C103 0.929 . S
H72 C105 0.930 . S
H73 C106 0.930 . S
H74 C104 0.929 . S
H75 C107 0.928 . S
O76 Co60 2.057 . S
O76 C64 1.232 . S
H77 C96 0.929 . S
H78 C97 0.929 . S
H79 C109 0.931 . S
H80 C101 0.929 . S
H81 C110 0.930 . S
H82 C102 0.931 1_565 S
O83 Co59 2.097 . S
O83 C111 1.214 . S
H84 C112 0.929 . S
H85 C113 0.929 . S
H86 C114 0.930 . S
H87 C115 0.929 . S
H88 C117 0.930 . S
H89 C94 0.930 . S
H90 C98 0.930 . S
O91 Co60 2.037 . S
O91 C111 1.234 . S
C92 O66 1.269 . S
C92 O67 1.257 . S
C93 H68 0.930 . S
C93 C96 1.388 . S
C93 C98 1.418 . S
C94 H89 0.930 . S
C94 C97 1.404 . S
C94 C98 1.353 . S
N95 Co60 2.145 . S
N95 C96 1.397 . S
N95 C97 1.334 . S
C96 H77 0.929 . S
C96 C93 1.388 . S
C96 N95 1.397 . S
C97 H78 0.929 . S
C97 C94 1.404 . S
C97 N95 1.334 . S
C98 H90 0.930 . S
C98 C93 1.418 . S
C98 C94 1.353 . S
C99 H69 0.930 . S
C99 N100 1.330 . S
C99 C101 1.446 . S
N100 Co59 2.151 . S
N100 C99 1.330 . S
N100 C104 1.418 . S
C101 H80 0.929 . S
C101 C99 1.446 . S
C101 C102 1.332 . S
C102 H82 0.931 1_545 S
C102 C101 1.332 . S
C102 C103 1.267 . S
C103 H71 0.929 . S
C103 C102 1.267 . S
C103 C104 1.251 . S
C104 H74 0.929 . S
C104 N100 1.418 . S
C104 C103 1.251 . S
C105 H72 0.930 . S
C105 C107 1.406 . S
C105 C110 1.261 . S
C106 H73 0.930 . S
C106 N108 1.325 . S
C106 C109 1.357 . S
C107 H75 0.928 . S
C107 C105 1.406 . S
C107 N108 1.261 . S
N108 Co59 2.214 . S
N108 C106 1.325 . S
N108 C107 1.261 . S
C109 H79 0.931 . S
C109 C106 1.357 . S
C109 C110 1.312 . S
C110 H81 0.930 . S
C110 C105 1.261 . S
C110 C109 1.312 . S
C111 O83 1.214 . S
C111 O91 1.234 . S
C112 H84 0.929 . S
C112 C115 1.391 . S
C112 C117 1.391 . S
C113 H85 0.929 . S
C113 C114 1.390 . S
C113 N116 1.391 . S
C114 H86 0.930 . S
C114 C113 1.390 . S
C114 C115 1.392 . S
C115 H87 0.929 . S
C115 C112 1.391 . S
C115 C114 1.392 . S
N116 Co60 2.257 . S
N116 C113 1.391 . S
N116 C117 1.388 . S
C117 H88 0.930 . S
C117 C112 1.391 . S
C117 N116 1.388 . S
Co118 O120 2.143 . S
Co118 O126 2.074 . S
Co118 O129 2.093 . S
Co118 O142 2.097 . S
Co118 N159 2.151 . S
Co118 N167 2.214 . S
Co119 O120 2.160 . S
Co119 O125 2.058 . S
Co119 O135 2.057 . S
Co119 O150 2.037 . S
Co119 N154 2.145 . S
Co119 N175 2.257 . S
O120 Co118 2.143 . S
O120 Co119 2.160 . S
C121 O122 1.278 . S
C121 O129 1.224 . S
O122 C121 1.278 . S
C123 O124 1.245 . S
C123 O135 1.232 . S
O124 C123 1.245 . S
O125 Co119 2.058 . S
O125 C151 1.269 . S
O126 Co118 2.074 . S
O126 C151 1.257 . S
H127 C152 0.930 . S
H128 C158 0.930 . S
O129 Co118 2.093 . S
O129 C121 1.224 . S
H130 C162 0.929 . S
H131 C164 0.930 . S
H132 C165 0.930 . S
H133 C163 0.929 . S
H134 C166 0.932 . S
O135 Co119 2.057 . S
O135 C123 1.232 . S
H136 C155 0.929 . S
H137 C156 0.929 . S
H138 C168 0.931 . S
H139 C160 0.929 . S
H140 C169 0.930 . S
H141 C161 0.931 1_565 S
O142 Co118 2.097 . S
O142 C170 1.214 . S
H143 C171 0.929 . S
H144 C172 0.929 . S
H145 C173 0.930 . S
H146 C174 0.929 . S
H147 C176 0.930 . S
H148 C153 0.930 . S
H149 C157 0.930 . S
O150 Co119 2.037 . S
O150 C170 1.234 . S
C151 O125 1.269 . S
C151 O126 1.257 . S
C152 H127 0.930 . S
C152 C155 1.388 . S
C152 C157 1.418 . S
C153 H148 0.930 . S
C153 C156 1.404 . S
C153 C157 1.353 . S
N154 Co119 2.145 . S
N154 C155 1.397 . S
N154 C156 1.334 . S
C155 H136 0.929 . S
C155 C152 1.388 . S
C155 N154 1.397 . S
C156 H137 0.929 . S
C156 C153 1.404 . S
C156 N154 1.334 . S
C157 H149 0.930 . S
C157 C152 1.418 . S
C157 C153 1.353 . S
C158 H128 0.930 . S
C158 N159 1.330 . S
C158 C160 1.446 . S
N159 Co118 2.151 . S
N159 C158 1.330 . S
N159 C163 1.418 . S
C160 H139 0.929 . S
C160 C158 1.446 . S
C160 C161 1.332 . S
C161 H141 0.931 1_545 S
C161 C160 1.332 . S
C161 C162 1.267 . S
C162 H130 0.929 . S
C162 C161 1.267 . S
C162 C163 1.251 . S
C163 H133 0.929 . S
C163 N159 1.418 . S
C163 C162 1.251 . S
C164 H131 0.930 . S
C164 C166 1.419 . S
C164 C169 1.261 . S
C165 H132 0.930 . S
C165 N167 1.325 . S
C165 C168 1.357 . S
C166 H134 0.932 . S
C166 C164 1.419 . S
C166 N167 1.245 1_554 S
N167 Co118 2.214 . S
N167 C165 1.325 . S
N167 C166 1.245 1_556 S
C168 H138 0.931 . S
C168 C165 1.357 . S
C168 C169 1.312 1_556 S
C169 H140 0.930 . S
C169 C164 1.261 . S
C169 C168 1.312 1_554 S
C170 O142 1.214 . S
C170 O150 1.234 . S
C171 H143 0.929 . S
C171 C174 1.391 . S
C171 C176 1.391 . S
C172 H144 0.929 . S
C172 C173 1.390 . S
C172 N175 1.391 . S
C173 H145 0.930 . S
C173 C172 1.390 . S
C173 C174 1.392 . S
C174 H146 0.929 . S
C174 C171 1.391 . S
C174 C173 1.392 . S
N175 Co119 2.257 . S
N175 C172 1.391 . S
N175 C176 1.388 . S
C176 H147 0.930 . S
C176 C171 1.391 . S
C176 N175 1.388 . S
Co177 O179 2.143 . S
Co177 O185 2.074 . S
Co177 O188 2.093 . S
Co177 O201 2.097 . S
Co177 N218 2.151 . S
Co177 N226 2.214 . S
Co178 O179 2.160 . S
Co178 O184 2.058 . S
Co178 O194 2.057 . S
Co178 O209 2.037 . S
Co178 N213 2.145 . S
Co178 N234 2.257 . S
O179 Co177 2.143 . S
O179 Co178 2.160 . S
C180 O181 1.278 . S
C180 O188 1.224 . S
O181 C180 1.278 . S
C182 O183 1.245 . S
C182 O194 1.232 . S
O183 C182 1.245 . S
O184 Co178 2.058 . S
O184 C210 1.269 . S
O185 Co177 2.074 . S
O185 C210 1.257 . S
H186 C211 0.930 . S
H187 C217 0.930 . S
O188 Co177 2.093 . S
O188 C180 1.224 . S
H189 C221 0.929 . S
H190 C223 0.930 . S
H191 C224 0.930 . S
H192 C222 0.929 . S
H193 C225 0.928 . S
O194 Co178 2.057 . S
O194 C182 1.232 . S
H195 C214 0.929 . S
H196 C215 0.929 . S
H197 C227 0.931 . S
H198 C219 0.929 . S
H199 C228 0.930 . S
H200 C220 0.931 . S
O201 Co177 2.097 . S
O201 C229 1.214 . S
H202 C230 0.929 . S
H203 C231 0.929 . S
H204 C232 0.930 . S
H205 C233 0.929 . S
H206 C235 0.930 . S
H207 C212 0.930 . S
H208 C216 0.930 . S
O209 Co178 2.037 . S
O209 C229 1.234 . S
C210 O184 1.269 . S
C210 O185 1.257 . S
C211 H186 0.930 . S
C211 C214 1.388 . S
C211 C216 1.418 . S
C212 H207 0.930 . S
C212 C215 1.404 . S
C212 C216 1.353 . S
N213 Co178 2.145 . S
N213 C214 1.397 . S
N213 C215 1.334 . S
C214 H195 0.929 . S
C214 C211 1.388 . S
C214 N213 1.397 . S
C215 H196 0.929 . S
C215 C212 1.404 . S
C215 N213 1.334 . S
C216 H208 0.930 . S
C216 C211 1.418 . S
C216 C212 1.353 . S
C217 H187 0.930 . S
C217 N218 1.330 . S
C217 C219 1.446 . S
N218 Co177 2.151 . S
N218 C217 1.330 . S
N218 C222 1.418 . S
C219 H198 0.929 . S
C219 C217 1.446 . S
C219 C220 1.332 . S
C220 H200 0.931 . S
C220 C219 1.332 . S
C220 C221 1.267 . S
C221 H189 0.929 . S
C221 C220 1.267 . S
C221 C222 1.251 . S
C222 H192 0.929 . S
C222 N218 1.418 . S
C222 C221 1.251 . S
C223 H190 0.930 . S
C223 C225 1.406 . S
C223 C228 1.261 . S
C224 H191 0.930 . S
C224 N226 1.325 . S
C224 C227 1.357 . S
C225 H193 0.928 . S
C225 C223 1.406 . S
C225 N226 1.261 . S
N226 Co177 2.214 . S
N226 C224 1.325 . S
N226 C225 1.261 . S
C227 H197 0.931 . S
C227 C224 1.357 . S
C227 C228 1.312 . S
C228 H199 0.930 . S
C228 C223 1.261 . S
C228 C227 1.312 . S
C229 O201 1.214 . S
C229 O209 1.234 . S
C230 H202 0.929 . S
C230 C233 1.391 . S
C230 C235 1.391 . S
C231 H203 0.929 . S
C231 C232 1.390 . S
C231 N234 1.391 . S
C232 H204 0.930 . S
C232 C231 1.390 . S
C232 C233 1.392 . S
C233 H205 0.929 . S
C233 C230 1.391 . S
C233 C232 1.392 . S
N234 Co178 2.257 . S
N234 C231 1.391 . S
N234 C235 1.388 . S
C235 H206 0.930 . S
C235 C230 1.391 . S
C235 N234 1.388 . S
Co236 O238 2.143 . S
Co236 O244 2.074 . S
Co236 O247 2.093 . S
Co236 O260 2.097 . S
Co236 N277 2.151 . S
Co236 N285 2.214 . S
Co237 O238 2.160 . S
Co237 O243 2.058 . S
Co237 O253 2.057 . S
Co237 O268 2.037 . S
Co237 N272 2.145 . S
Co237 N293 2.257 . S
O238 Co236 2.143 . S
O238 Co237 2.160 . S
C239 O240 1.278 . S
C239 O247 1.224 . S
O240 C239 1.278 . S
C241 O242 1.245 . S
C241 O253 1.232 . S
O242 C241 1.245 . S
O243 Co237 2.058 . S
O243 C269 1.269 . S
O244 Co236 2.074 . S
O244 C269 1.257 . S
H245 C270 0.930 . S
H246 C276 0.930 . S
O247 Co236 2.093 . S
O247 C239 1.224 . S
H248 C280 0.929 1_545 S
H249 C282 0.930 . S
H250 C283 0.930 . S
H251 C281 0.929 . S
H252 C284 0.928 . S
O253 Co237 2.057 . S
O253 C241 1.232 . S
H254 C273 0.929 . S
H255 C274 0.929 . S
H256 C286 0.931 . S
H257 C278 0.929 . S
H258 C287 0.930 . S
H259 C279 0.932 1_545 S
O260 Co236 2.097 . S
O260 C288 1.214 . S
H261 C289 0.929 . S
H262 C290 0.929 . S
H263 C291 0.930 . S
H264 C292 0.929 . S
H265 C294 0.930 . S
H266 C271 0.930 . S
H267 C275 0.930 . S
O268 Co237 2.037 . S
O268 C288 1.234 . S
C269 O243 1.269 . S
C269 O244 1.257 . S
C270 H245 0.930 . S
C270 C273 1.388 . S
C270 C275 1.418 1_556 S
C271 H266 0.930 . S
C271 C274 1.404 . S
C271 C275 1.353 . S
N272 Co237 2.145 . S
N272 C273 1.397 . S
N272 C274 1.334 1_556 S
C273 H254 0.929 . S
C273 C270 1.388 . S
C273 N272 1.397 . S
C274 H255 0.929 . S
C274 C271 1.404 . S
C274 N272 1.334 1_554 S
C275 H267 0.930 . S
C275 C270 1.418 1_554 S
C275 C271 1.353 . S
C276 H246 0.930 . S
C276 N277 1.330 . S
C276 C278 1.446 . S
N277 Co236 2.151 . S
N277 C276 1.330 . S
N277 C281 1.418 . S
C278 H257 0.929 . S
C278 C276 1.446 . S
C278 C279 1.332 . S
C279 H259 0.932 1_565 S
C279 C278 1.332 . S
C279 C280 1.267 . S
C280 H248 0.929 1_565 S
C280 C279 1.267 . S
C280 C281 1.251 . S
C281 H251 0.929 . S
C281 N277 1.418 . S
C281 C280 1.251 . S
C282 H249 0.930 . S
C282 C284 1.406 . S
C282 C287 1.261 . S
C283 H250 0.930 . S
C283 N285 1.325 . S
C283 C286 1.357 . S
C284 H252 0.928 . S
C284 C282 1.406 . S
C284 N285 1.261 . S
N285 Co236 2.214 . S
N285 C283 1.325 . S
N285 C284 1.261 . S
C286 H256 0.931 . S
C286 C283 1.357 . S
C286 C287 1.312 . S
C287 H258 0.930 . S
C287 C282 1.261 . S
C287 C286 1.312 . S
C288 O260 1.214 . S
C288 O268 1.234 . S
C289 H261 0.929 . S
C289 C292 1.391 . S
C289 C294 1.391 . S
C290 H262 0.929 . S
C290 C291 1.390 . S
C290 N293 1.391 . S
C291 H263 0.930 . S
C291 C290 1.390 . S
C291 C292 1.392 . S
C292 H264 0.929 . S
C292 C289 1.391 . S
C292 C291 1.392 . S
N293 Co237 2.257 . S
N293 C290 1.391 . S
N293 C294 1.388 . S
C294 H265 0.930 . S
C294 C289 1.391 . S
C294 N293 1.388 . S
Co295 O297 2.143 . S
Co295 O303 2.074 . S
Co295 O306 2.093 . S
Co295 O319 2.097 . S
Co295 N336 2.151 . S
Co295 N344 2.214 . S
Co296 O297 2.160 . S
Co296 O302 2.058 . S
Co296 O312 2.057 . S
Co296 O327 2.037 . S
Co296 N331 2.145 . S
Co296 N352 2.257 . S
O297 Co295 2.143 . S
O297 Co296 2.160 . S
C298 O299 1.278 . S
C298 O306 1.224 . S
O299 C298 1.278 . S
C300 O301 1.245 . S
C300 O312 1.232 . S
O301 C300 1.245 . S
O302 Co296 2.058 . S
O302 C328 1.269 . S
O303 Co295 2.074 . S
O303 C328 1.257 . S
H304 C329 0.930 . S
H305 C335 0.930 . S
O306 Co295 2.093 . S
O306 C298 1.224 . S
H307 C339 0.929 . S
H308 C341 0.930 . S
H309 C342 0.930 . S
H310 C340 0.929 . S
H311 C343 0.928 . S
O312 Co296 2.057 . S
O312 C300 1.232 . S
H313 C332 0.929 . S
H314 C333 0.929 . S
H315 C345 0.931 . S
H316 C337 0.929 . S
H317 C346 0.930 . S
H318 C338 0.931 . S
O319 Co295 2.097 . S
O319 C347 1.214 . S
H320 C348 0.929 . S
H321 C349 0.929 . S
H322 C350 0.930 . S
H323 C351 0.929 . S
H324 C353 0.930 . S
H325 C330 0.930 . S
H326 C334 0.930 . S
O327 Co296 2.037 . S
O327 C347 1.234 . S
C328 O302 1.269 . S
C328 O303 1.257 . S
C329 H304 0.930 . S
C329 C332 1.388 . S
C329 C334 1.418 . S
C330 H325 0.930 . S
C330 C333 1.404 . S
C330 C334 1.353 . S
N331 Co296 2.145 . S
N331 C332 1.397 . S
N331 C333 1.334 . S
C332 H313 0.929 . S
C332 C329 1.388 . S
C332 N331 1.397 . S
C333 H314 0.929 . S
C333 C330 1.404 . S
C333 N331 1.334 . S
C334 H326 0.930 . S
C334 C329 1.418 . S
C334 C330 1.353 . S
C335 H305 0.930 . S
C335 N336 1.330 . S
C335 C337 1.446 . S
N336 Co295 2.151 . S
N336 C335 1.330 . S
N336 C340 1.418 . S
C337 H316 0.929 . S
C337 C335 1.446 . S
C337 C338 1.332 . S
C338 H318 0.931 . S
C338 C337 1.332 . S
C338 C339 1.267 . S
C339 H307 0.929 . S
C339 C338 1.267 . S
C339 C340 1.251 . S
C340 H310 0.929 . S
C340 N336 1.418 . S
C340 C339 1.251 . S
C341 H308 0.930 . S
C341 C343 1.406 . S
C341 C346 1.261 . S
C342 H309 0.930 . S
C342 N344 1.325 . S
C342 C345 1.357 . S
C343 H311 0.928 . S
C343 C341 1.406 . S
C343 N344 1.261 . S
N344 Co295 2.214 . S
N344 C342 1.325 . S
N344 C343 1.261 . S
C345 H315 0.931 . S
C345 C342 1.357 . S
C345 C346 1.312 . S
C346 H317 0.930 . S
C346 C341 1.261 . S
C346 C345 1.312 . S
C347 O319 1.214 . S
C347 O327 1.234 . S
C348 H320 0.929 . S
C348 C351 1.391 . S
C348 C353 1.391 . S
C349 H321 0.929 . S
C349 C350 1.390 . S
C349 N352 1.391 . S
C350 H322 0.930 . S
C350 C349 1.390 . S
C350 C351 1.392 . S
C351 H323 0.929 . S
C351 C348 1.391 . S
C351 C350 1.392 . S
N352 Co296 2.257 . S
N352 C349 1.391 . S
N352 C353 1.388 . S
C353 H324 0.930 . S
C353 C348 1.391 . S
C353 N352 1.388 . S
Co354 O356 2.143 . S
Co354 O362 2.074 . S
Co354 O365 2.093 . S
Co354 O378 2.097 . S
Co354 N395 2.151 . S
Co354 N403 2.214 . S
Co355 O356 2.160 . S
Co355 O361 2.058 . S
Co355 O371 2.057 . S
Co355 O386 2.037 . S
Co355 N390 2.145 . S
Co355 N411 2.257 . S
O356 Co354 2.143 . S
O356 Co355 2.160 . S
C357 O358 1.278 . S
C357 O365 1.224 . S
O358 C357 1.278 . S
C359 O360 1.245 . S
C359 O371 1.232 . S
O360 C359 1.245 . S
O361 Co355 2.058 . S
O361 C387 1.269 . S
O362 Co354 2.074 . S
O362 C387 1.257 . S
H363 C388 0.930 . S
H364 C394 0.930 . S
O365 Co354 2.093 . S
O365 C357 1.224 . S
H366 C398 0.929 . S
H367 C400 0.930 . S
H368 C401 0.930 . S
H369 C399 0.929 . S
H370 C402 0.928 . S
O371 Co355 2.057 . S
O371 C359 1.232 . S
H372 C391 0.929 . S
H373 C392 0.929 . S
H374 C404 0.931 . S
H375 C396 0.929 . S
H376 C405 0.930 . S
H377 C397 0.931 . S
O378 Co354 2.097 . S
O378 C406 1.214 . S
H379 C407 0.929 . S
H380 C408 0.929 . S
H381 C409 0.930 . S
H382 C410 0.929 . S
H383 C412 0.930 . S
H384 C389 0.930 . S
H385 C393 0.930 . S
O386 Co355 2.037 . S
O386 C406 1.234 . S
C387 O361 1.269 . S
C387 O362 1.257 . S
C388 H363 0.930 . S
C388 C391 1.388 . S
C388 C393 1.418 1_554 S
C389 H384 0.930 . S
C389 C392 1.404 . S
C389 C393 1.353 . S
N390 Co355 2.145 . S
N390 C391 1.397 . S
N390 C392 1.334 1_554 S
C391 H372 0.929 . S
C391 C388 1.388 . S
C391 N390 1.397 . S
C392 H373 0.929 . S
C392 C389 1.404 . S
C392 N390 1.334 1_556 S
C393 H385 0.930 . S
C393 C388 1.418 1_556 S
C393 C389 1.353 . S
C394 H364 0.930 . S
C394 N395 1.330 . S
C394 C396 1.446 . S
N395 Co354 2.151 . S
N395 C394 1.330 . S
N395 C399 1.418 . S
C396 H375 0.929 . S
C396 C394 1.446 . S
C396 C397 1.332 . S
C397 H377 0.931 . S
C397 C396 1.332 . S
C397 C398 1.267 . S
C398 H366 0.929 . S
C398 C397 1.267 . S
C398 C399 1.251 . S
C399 H369 0.929 . S
C399 N395 1.418 . S
C399 C398 1.251 . S
C400 H367 0.930 . S
C400 C402 1.406 . S
C400 C405 1.261 . S
C401 H368 0.930 . S
C401 N403 1.325 . S
C401 C404 1.357 . S
C402 H370 0.928 . S
C402 C400 1.406 . S
C402 N403 1.261 . S
N403 Co354 2.214 . S
N403 C401 1.325 . S
N403 C402 1.261 . S
C404 H374 0.931 . S
C404 C401 1.357 . S
C404 C405 1.312 . S
C405 H376 0.930 . S
C405 C400 1.261 . S
C405 C404 1.312 . S
C406 O378 1.214 . S
C406 O386 1.234 . S
C407 H379 0.929 . S
C407 C410 1.391 . S
C407 C412 1.391 . S
C408 H380 0.929 . S
C408 C409 1.390 . S
C408 N411 1.391 . S
C409 H381 0.930 . S
C409 C408 1.390 . S
C409 C410 1.392 . S
C410 H382 0.929 . S
C410 C407 1.391 . S
C410 C409 1.392 . S
N411 Co355 2.257 . S
N411 C408 1.391 . S
N411 C412 1.388 . S
C412 H383 0.930 . S
C412 C407 1.391 . S
C412 N411 1.388 . S
Co413 O415 2.143 . S
Co413 O421 2.074 . S
Co413 O424 2.093 . S
Co413 O437 2.097 . S
Co413 N454 2.151 . S
Co413 N462 2.214 . S
Co414 O415 2.160 . S
Co414 O420 2.058 . S
Co414 O430 2.057 . S
Co414 O445 2.037 . S
Co414 N449 2.145 . S
Co414 N470 2.257 . S
O415 Co413 2.143 . S
O415 Co414 2.160 . S
C416 O417 1.278 . S
C416 O424 1.224 . S
O417 C416 1.278 . S
C418 O419 1.245 . S
C418 O430 1.232 . S
O419 C418 1.245 . S
O420 Co414 2.058 . S
O420 C446 1.269 . S
O421 Co413 2.074 . S
O421 C446 1.257 . S
H422 C447 0.930 . S
H423 C453 0.930 . S
O424 Co413 2.093 . S
O424 C416 1.224 . S
H425 C457 0.929 1_545 S
H426 C459 0.930 . S
H427 C460 0.930 . S
H428 C458 0.929 . S
H429 C461 0.928 . S
O430 Co414 2.057 . S
O430 C418 1.232 . S
H431 C450 0.929 . S
H432 C451 0.929 . S
H433 C463 0.931 . S
H434 C455 0.929 . S
H435 C464 0.930 . S
H436 C456 0.928 1_545 S
O437 Co413 2.097 . S
O437 C465 1.214 . S
H438 C466 0.929 . S
H439 C467 0.929 . S
H440 C468 0.930 . S
H441 C469 0.929 . S
H442 C471 0.930 . S
H443 C448 0.930 . S
H444 C452 0.930 . S
O445 Co414 2.037 . S
O445 C465 1.234 . S
C446 O420 1.269 . S
C446 O421 1.257 . S
C447 H422 0.930 . S
C447 C450 1.388 . S
C447 C452 1.418 . S
C448 H443 0.930 . S
C448 C451 1.404 . S
C448 C452 1.353 . S
N449 Co414 2.145 . S
N449 C450 1.397 . S
N449 C451 1.334 . S
C450 H431 0.929 . S
C450 C447 1.388 . S
C450 N449 1.397 . S
C451 H432 0.929 . S
C451 C448 1.404 . S
C451 N449 1.334 . S
C452 H444 0.930 . S
C452 C447 1.418 . S
C452 C448 1.353 . S
C453 H423 0.930 . S
C453 N454 1.330 . S
C453 C455 1.446 . S
N454 Co413 2.151 . S
N454 C453 1.330 . S
N454 C458 1.418 . S
C455 H434 0.929 . S
C455 C453 1.446 . S
C455 C456 1.332 . S
C456 H436 0.928 1_565 S
C456 C455 1.332 . S
C456 C457 1.267 . S
C457 H425 0.929 1_565 S
C457 C456 1.267 . S
C457 C458 1.251 . S
C458 H428 0.929 . S
C458 N454 1.418 . S
C458 C457 1.251 . S
C459 H426 0.930 . S
C459 C461 1.406 . S
C459 C464 1.261 . S
C460 H427 0.930 . S
C460 N462 1.325 . S
C460 C463 1.357 . S
C461 H429 0.928 . S
C461 C459 1.406 . S
C461 N462 1.261 . S
N462 Co413 2.214 . S
N462 C460 1.325 . S
N462 C461 1.261 . S
C463 H433 0.931 . S
C463 C460 1.357 . S
C463 C464 1.312 . S
C464 H435 0.930 . S
C464 C459 1.261 . S
C464 C463 1.312 . S
C465 O437 1.214 . S
C465 O445 1.234 . S
C466 H438 0.929 . S
C466 C469 1.391 . S
C466 C471 1.391 . S
C467 H439 0.929 . S
C467 C468 1.390 . S
C467 N470 1.391 . S
C468 H440 0.930 . S
C468 C467 1.390 . S
C468 C469 1.392 . S
C469 H441 0.929 . S
C469 C466 1.391 . S
C469 C468 1.392 . S
N470 Co414 2.257 . S
N470 C467 1.391 . S
N470 C471 1.388 . S
C471 H442 0.930 . S
C471 C466 1.391 . S
C471 N470 1.388 . S
H472 C480 0.929 . S
H473 C482 0.930 . S
H474 C484 0.930 . S
H475 C487 0.929 . S
H476 C490 0.930 . S
H477 C492 0.960 . S
H478 C492 0.960 . S
H479 C492 0.960 . S
C480 H472 0.929 . S
C480 C481 1.377 . S
C480 C482 1.384 . S
C481 C480 1.377 . S
C481 C487 1.390 . S
C482 H473 0.930 . S
C482 C480 1.384 . S
C482 C483 1.372 . S
C483 C482 1.372 . S
C483 C484 1.400 . S
C483 C488 1.490 . S
C484 H474 0.930 . S
C484 C483 1.400 . S
C484 C487 1.386 . S
H485 C501 0.910 1_554 S
H486 C502 0.931 . S
C487 H475 0.929 . S
C487 C481 1.390 . S
C487 C484 1.386 . S
C488 C483 1.490 . S
C488 C490 1.395 . S
C488 C491 1.403 . S
H489 C495 0.930 . S
C490 H476 0.930 . S
C490 C488 1.395 . S
C490 C493 1.403 . S
C491 C488 1.403 . S
C491 C492 1.524 . S
C491 C495 1.400 . S
C492 H477 0.960 . S
C492 H478 0.960 . S
C492 H479 0.960 . S
C492 C491 1.524 . S
C493 C490 1.403 . S
C493 C494 1.392 . S
C493 C497 1.495 . S
C494 C493 1.392 . S
C494 C495 1.385 . S
C494 C496 1.478 . S
C495 H489 0.930 . S
C495 C491 1.400 . S
C495 C494 1.385 . S
C496 C494 1.478 . S
C496 C498 1.381 . S
C496 C502 1.383 . S
C497 C493 1.495 . S
C497 H503 0.959 . S
C497 H504 0.961 . S
C497 H505 0.960 . S
C498 C496 1.381 . S
C498 C499 1.394 . S
C498 H506 0.930 . S
C499 C498 1.394 . S
C499 C500 1.383 . S
C499 H507 0.929 . S
C500 C499 1.383 . S
C500 C501 1.377 . S
C501 H485 0.910 1_556 S
C501 C500 1.377 . S
C501 C502 1.379 . S
C502 H486 0.931 . S
C502 C496 1.383 . S
C502 C501 1.379 . S
H503 C497 0.959 . S
H504 C497 0.961 . S
H505 C497 0.960 . S
H506 C498 0.930 . S
H507 C499 0.929 . S
H508 C516 0.929 . S
H509 C518 0.930 . S
H510 C520 0.930 . S
H511 C523 0.929 . S
H512 C526 0.930 . S
H513 C528 0.960 . S
H514 C528 0.960 . S
H515 C528 0.960 . S
C516 H508 0.929 . S
C516 C517 1.377 . S
C516 C518 1.384 . S
C517 C516 1.377 . S
C517 C523 1.390 . S
C518 H509 0.930 . S
C518 C516 1.384 . S
C518 C519 1.372 . S
C519 C518 1.372 . S
C519 C520 1.400 . S
C519 C524 1.490 . S
C520 H510 0.930 . S
C520 C519 1.400 . S
C520 C523 1.386 . S
H521 C537 0.930 . S
H522 C538 0.931 . S
C523 H511 0.929 . S
C523 C517 1.390 . S
C523 C520 1.386 . S
C524 C519 1.490 . S
C524 C526 1.395 . S
C524 C527 1.403 . S
H525 C531 0.930 . S
C526 H512 0.930 . S
C526 C524 1.395 . S
C526 C529 1.403 . S
C527 C524 1.403 . S
C527 C528 1.524 . S
C527 C531 1.400 . S
C528 H513 0.960 . S
C528 H514 0.960 . S
C528 H515 0.960 . S
C528 C527 1.524 . S
C529 C526 1.403 . S
C529 C530 1.392 . S
C529 C533 1.495 . S
C530 C529 1.392 . S
C530 C531 1.385 . S
C530 C532 1.478 . S
C531 H525 0.930 . S
C531 C527 1.400 . S
C531 C530 1.385 . S
C532 C530 1.478 . S
C532 C534 1.381 . S
C532 C538 1.383 . S
C533 C529 1.495 . S
C533 H539 0.959 . S
C533 H540 0.961 . S
C533 H541 0.960 . S
C534 C532 1.381 . S
C534 C535 1.394 . S
C534 H542 0.930 . S
C535 C534 1.394 . S
C535 C536 1.383 . S
C535 H543 0.929 . S
C536 C535 1.383 . S
C536 C537 1.377 . S
C537 H521 0.930 . S
C537 C536 1.377 . S
C537 C538 1.379 . S
C538 H522 0.931 . S
C538 C532 1.383 . S
C538 C537 1.379 . S
H539 C533 0.959 . S
H540 C533 0.961 . S
H541 C533 0.960 . S
H542 C534 0.930 . S
H543 C535 0.929 . S
H544 C552 0.929 . S
H545 C554 0.930 . S
H546 C556 0.930 . S
H547 C559 0.929 . S
H548 C562 0.930 . S
H549 C564 0.960 . S
H550 C564 0.960 . S
H551 C564 0.960 . S
C552 H544 0.929 . S
C552 C553 1.377 . S
C552 C554 1.384 . S
C553 C552 1.377 . S
C553 C559 1.390 . S
C554 H545 0.930 . S
C554 C552 1.384 . S
C554 C555 1.372 . S
C555 C554 1.372 . S
C555 C556 1.400 . S
C555 C560 1.490 . S
C556 H546 0.930 . S
C556 C555 1.400 . S
C556 C559 1.386 . S
H557 C573 0.930 . S
H558 C574 0.931 . S
C559 H547 0.929 . S
C559 C553 1.390 . S
C559 C556 1.386 . S
C560 C555 1.490 . S
C560 C562 1.395 . S
C560 C563 1.403 . S
H561 C567 0.930 . S
C562 H548 0.930 . S
C562 C560 1.395 . S
C562 C565 1.403 . S
C563 C560 1.403 . S
C563 C564 1.524 . S
C563 C567 1.400 . S
C564 H549 0.960 . S
C564 H550 0.960 . S
C564 H551 0.960 . S
C564 C563 1.524 . S
C565 C562 1.403 . S
C565 C566 1.392 . S
C565 C569 1.495 . S
C566 C565 1.392 . S
C566 C567 1.385 . S
C566 C568 1.478 . S
C567 H561 0.930 . S
C567 C563 1.400 . S
C567 C566 1.385 . S
C568 C566 1.478 . S
C568 C570 1.381 . S
C568 C574 1.383 . S
C569 C565 1.495 . S
C569 H575 0.959 . S
C569 H576 0.961 . S
C569 H577 0.960 . S
C570 C568 1.381 . S
C570 C571 1.394 . S
C570 H578 0.930 . S
C571 C570 1.394 . S
C571 C572 1.383 . S
C571 H579 0.929 1_554 S
C572 C571 1.383 . S
C572 C573 1.377 . S
C573 H557 0.930 . S
C573 C572 1.377 . S
C573 C574 1.379 . S
C574 H558 0.931 . S
C574 C568 1.383 . S
C574 C573 1.379 . S
H575 C569 0.959 . S
H576 C569 0.961 . S
H577 C569 0.960 . S
H578 C570 0.930 . S
H579 C571 0.929 1_556 S
H580 C588 0.929 . S
H581 C590 0.930 . S
H582 C592 0.930 . S
H583 C595 0.929 . S
H584 C598 0.930 . S
H585 C600 0.960 . S
H586 C600 0.960 . S
H587 C600 0.960 . S
C588 H580 0.929 . S
C588 C589 1.377 . S
C588 C590 1.384 . S
C589 C588 1.377 . S
C589 C595 1.390 . S
C590 H581 0.930 . S
C590 C588 1.384 . S
C590 C591 1.372 . S
C591 C590 1.372 . S
C591 C592 1.400 . S
C591 C596 1.490 . S
C592 H582 0.930 . S
C592 C591 1.400 . S
C592 C595 1.386 . S
H593 C609 0.930 . S
H594 C610 0.931 . S
C595 H583 0.929 . S
C595 C589 1.390 . S
C595 C592 1.386 . S
C596 C591 1.490 . S
C596 C598 1.395 . S
C596 C599 1.403 . S
H597 C603 0.930 . S
C598 H584 0.930 . S
C598 C596 1.395 . S
C598 C601 1.403 . S
C599 C596 1.403 . S
C599 C600 1.524 . S
C599 C603 1.400 . S
C600 H585 0.960 . S
C600 H586 0.960 . S
C600 H587 0.960 . S
C600 C599 1.524 . S
C601 C598 1.403 . S
C601 C602 1.392 . S
C601 C605 1.495 . S
C602 C601 1.392 . S
C602 C603 1.385 . S
C602 C604 1.478 . S
C603 H597 0.930 . S
C603 C599 1.400 . S
C603 C602 1.385 . S
C604 C602 1.478 . S
C604 C606 1.381 . S
C604 C610 1.383 . S
C605 C601 1.495 . S
C605 H611 0.959 . S
C605 H612 0.961 . S
C605 H613 0.960 . S
C606 C604 1.381 . S
C606 C607 1.394 . S
C606 H614 0.930 . S
C607 C606 1.394 . S
C607 C608 1.383 . S
C607 H615 0.929 . S
C608 C607 1.383 . S
C608 C609 1.377 . S
C609 H593 0.930 . S
C609 C608 1.377 . S
C609 C610 1.379 . S
C610 H594 0.931 . S
C610 C604 1.383 . S
C610 C609 1.379 . S
H611 C605 0.959 . S
H612 C605 0.961 . S
H613 C605 0.960 . S
H614 C606 0.930 . S
H615 C607 0.929 . S
H616 C624 0.930 1_556 S
H617 C626 0.930 . S
H618 C628 0.930 . S
H619 C631 0.929 . S
H620 C634 0.930 . S
H621 C636 0.960 . S
H622 C636 0.960 . S
H623 C636 0.960 . S
C624 H616 0.930 1_554 S
C624 C625 1.377 . S
C624 C626 1.384 . S
C625 C624 1.377 . S
C625 C631 1.390 . S
C626 H617 0.930 . S
C626 C624 1.384 . S
C626 C627 1.372 . S
C627 C626 1.372 . S
C627 C628 1.400 . S
C627 C632 1.490 . S
C628 H618 0.930 . S
C628 C627 1.400 . S
C628 C631 1.386 . S
H629 C645 0.930 . S
H630 C646 0.931 . S
C631 H619 0.929 . S
C631 C625 1.390 . S
C631 C628 1.386 . S
C632 C627 1.490 . S
C632 C634 1.395 . S
C632 C635 1.403 . S
H633 C639 0.930 . S
C634 H620 0.930 . S
C634 C632 1.395 . S
C634 C637 1.403 . S
C635 C632 1.403 . S
C635 C636 1.524 . S
C635 C639 1.400 . S
C636 H621 0.960 . S
C636 H622 0.960 . S
C636 H623 0.960 . S
C636 C635 1.524 . S
C637 C634 1.403 . S
C637 C638 1.392 . S
C637 C641 1.495 . S
C638 C637 1.392 . S
C638 C639 1.385 . S
C638 C640 1.478 . S
C639 H633 0.930 . S
C639 C635 1.400 . S
C639 C638 1.385 . S
C640 C638 1.478 . S
C640 C642 1.381 . S
C640 C646 1.383 . S
C641 C637 1.495 . S
C641 H647 0.959 . S
C641 H648 0.961 . S
C641 H649 0.960 . S
C642 C640 1.381 . S
C642 C643 1.394 . S
C642 H650 0.930 . S
C643 C642 1.394 . S
C643 C644 1.383 . S
C643 H651 0.929 . S
C644 C643 1.383 . S
C644 C645 1.377 . S
C645 H629 0.930 . S
C645 C644 1.377 . S
C645 C646 1.379 . S
C646 H630 0.931 . S
C646 C640 1.383 . S
C646 C645 1.379 . S
H647 C641 0.959 . S
H648 C641 0.961 . S
H649 C641 0.960 . S
H650 C642 0.930 . S
H651 C643 0.929 . S
H652 C660 0.929 . S
H653 C662 0.930 . S
H654 C664 0.930 . S
H655 C667 0.929 . S
H656 C670 0.930 . S
H657 C672 0.960 . S
H658 C672 0.960 . S
H659 C672 0.960 . S
C660 H652 0.929 . S
C660 C661 1.377 . S
C660 C662 1.384 . S
C661 C660 1.377 . S
C661 C667 1.390 . S
C662 H653 0.930 . S
C662 C660 1.384 . S
C662 C663 1.372 . S
C663 C662 1.372 . S
C663 C664 1.400 . S
C663 C668 1.490 . S
C664 H654 0.930 . S
C664 C663 1.400 . S
C664 C667 1.386 . S
H665 C681 0.930 . S
H666 C682 0.931 . S
C667 H655 0.929 . S
C667 C661 1.390 . S
C667 C664 1.386 . S
C668 C663 1.490 . S
C668 C670 1.395 . S
C668 C671 1.403 . S
H669 C675 0.930 . S
C670 H656 0.930 . S
C670 C668 1.395 . S
C670 C673 1.403 . S
C671 C668 1.403 . S
C671 C672 1.524 . S
C671 C675 1.400 . S
C672 H657 0.960 . S
C672 H658 0.960 . S
C672 H659 0.960 . S
C672 C671 1.524 . S
C673 C670 1.403 . S
C673 C674 1.392 . S
C673 C677 1.495 . S
C674 C673 1.392 . S
C674 C675 1.385 . S
C674 C676 1.478 . S
C675 H669 0.930 . S
C675 C671 1.400 . S
C675 C674 1.385 . S
C676 C674 1.478 . S
C676 C678 1.381 . S
C676 C682 1.383 . S
C677 C673 1.495 . S
C677 H683 0.959 . S
C677 H684 0.961 . S
C677 H685 0.960 . S
C678 C676 1.381 . S
C678 C679 1.394 . S
C678 H686 0.930 . S
C679 C678 1.394 . S
C679 C680 1.383 . S
C679 H687 0.929 . S
C680 C679 1.383 . S
C680 C681 1.377 . S
C681 H665 0.930 . S
C681 C680 1.377 . S
C681 C682 1.379 . S
C682 H666 0.931 . S
C682 C676 1.383 . S
C682 C681 1.379 . S
H683 C677 0.959 . S
H684 C677 0.961 . S
H685 C677 0.960 . S
H686 C678 0.930 . S
H687 C679 0.929 . S
H688 C696 0.929 . S
H689 C698 0.930 . S
H690 C700 0.930 . S
H691 C703 0.929 . S
H692 C706 0.930 . S
H693 C708 0.960 . S
H694 C708 0.960 . S
H695 C708 0.960 . S
C696 H688 0.929 . S
C696 C697 1.377 . S
C696 C698 1.384 . S
C697 C696 1.377 . S
C697 C703 1.390 . S
C698 H689 0.930 . S
C698 C696 1.384 . S
C698 C699 1.372 . S
C699 C698 1.372 . S
C699 C700 1.400 . S
C699 C704 1.490 . S
C700 H690 0.930 . S
C700 C699 1.400 . S
C700 C703 1.386 . S
H701 C717 0.930 . S
H702 C718 0.931 . S
C703 H691 0.929 . S
C703 C697 1.390 . S
C703 C700 1.386 . S
C704 C699 1.490 . S
C704 C706 1.395 . S
C704 C707 1.403 . S
H705 C711 0.930 . S
C706 H692 0.930 . S
C706 C704 1.395 . S
C706 C709 1.403 . S
C707 C704 1.403 . S
C707 C708 1.524 . S
C707 C711 1.400 . S
C708 H693 0.960 . S
C708 H694 0.960 . S
C708 H695 0.960 . S
C708 C707 1.524 . S
C709 C706 1.403 . S
C709 C710 1.392 . S
C709 C713 1.495 . S
C710 C709 1.392 . S
C710 C711 1.385 . S
C710 C712 1.478 . S
C711 H705 0.930 . S
C711 C707 1.400 . S
C711 C710 1.385 . S
C712 C710 1.478 . S
C712 C714 1.381 . S
C712 C718 1.383 . S
C713 C709 1.495 . S
C713 H719 0.959 . S
C713 H720 0.961 . S
C713 H721 0.960 . S
C714 C712 1.381 . S
C714 C715 1.394 . S
C714 H722 0.930 . S
C715 C714 1.394 . S
C715 C716 1.383 . S
C715 H723 0.929 . S
C716 C715 1.383 . S
C716 C717 1.377 . S
C717 H701 0.930 . S
C717 C716 1.377 . S
C717 C718 1.379 . S
C718 H702 0.931 . S
C718 C712 1.383 . S
C718 C717 1.379 . S
H719 C713 0.959 . S
H720 C713 0.961 . S
H721 C713 0.960 . S
H722 C714 0.930 . S
H723 C715 0.929 . S
H724 C732 0.929 . S
H725 C734 0.930 . S
H726 C736 0.930 . S
H727 C739 0.929 . S
H728 C742 0.930 . S
H729 C744 0.960 . S
H730 C744 0.960 . S
H731 C744 0.960 . S
C732 H724 0.929 . S
C732 C733 1.377 . S
C732 C734 1.384 . S
C733 C732 1.377 . S
C733 C739 1.390 . S
C734 H725 0.930 . S
C734 C732 1.384 . S
C734 C735 1.372 . S
C735 C734 1.372 . S
C735 C736 1.400 . S
C735 C740 1.490 . S
C736 H726 0.930 . S
C736 C735 1.400 . S
C736 C739 1.386 . S
H737 C753 0.930 . S
H738 C754 0.931 . S
C739 H727 0.929 . S
C739 C733 1.390 . S
C739 C736 1.386 . S
C740 C735 1.490 . S
C740 C742 1.395 . S
C740 C743 1.403 . S
H741 C747 0.930 . S
C742 H728 0.930 . S
C742 C740 1.395 . S
C742 C745 1.403 . S
C743 C740 1.403 . S
C743 C744 1.524 . S
C743 C747 1.400 . S
C744 H729 0.960 . S
C744 H730 0.960 . S
C744 H731 0.960 . S
C744 C743 1.524 . S
C745 C742 1.403 . S
C745 C746 1.392 . S
C745 C749 1.495 . S
C746 C745 1.392 . S
C746 C747 1.385 . S
C746 C748 1.478 . S
C747 H741 0.930 . S
C747 C743 1.400 . S
C747 C746 1.385 . S
C748 C746 1.478 . S
C748 C750 1.381 . S
C748 C754 1.383 . S
C749 C745 1.495 . S
C749 H755 0.959 . S
C749 H756 0.961 . S
C749 H757 0.960 . S
C750 C748 1.381 . S
C750 C751 1.394 . S
C750 H758 0.930 . S
C751 C750 1.394 . S
C751 C752 1.383 . S
C751 H759 0.929 . S
C752 C751 1.383 . S
C752 C753 1.377 . S
C753 H737 0.930 . S
C753 C752 1.377 . S
C753 C754 1.379 . S
C754 H738 0.931 . S
C754 C748 1.383 . S
C754 C753 1.379 . S
H755 C749 0.959 . S
H756 C749 0.961 . S
H757 C749 0.960 . S
H758 C750 0.930 . S
H759 C751 0.929 . S
H760 C768 0.929 . S
H761 C770 0.930 . S
H762 C772 0.930 . S
H763 C775 0.929 . S
H764 C778 0.930 . S
H765 C780 0.960 . S
H766 C780 0.960 . S
H767 C780 0.960 . S
C768 H760 0.929 . S
C768 C769 1.377 . S
C768 C770 1.384 . S
C769 C768 1.377 . S
C769 C775 1.390 . S
C770 H761 0.930 . S
C770 C768 1.384 . S
C770 C771 1.372 . S
C771 C770 1.372 . S
C771 C772 1.400 . S
C771 C776 1.490 . S
C772 H762 0.930 . S
C772 C771 1.400 . S
C772 C775 1.386 . S
H773 C789 0.930 . S
H774 C790 0.931 . S
C775 H763 0.929 . S
C775 C769 1.390 . S
C775 C772 1.386 . S
C776 C771 1.490 . S
C776 C778 1.395 . S
C776 C779 1.403 . S
H777 C783 0.930 . S
C778 H764 0.930 . S
C778 C776 1.395 . S
C778 C781 1.403 1_455 S
C779 C776 1.403 . S
C779 C780 1.524 . S
C779 C783 1.400 1_455 S
C780 H765 0.960 . S
C780 H766 0.960 . S
C780 H767 0.960 . S
C780 C779 1.524 . S
C781 C778 1.403 1_655 S
C781 C782 1.392 . S
C781 C785 1.495 . S
C782 C781 1.392 . S
C782 C783 1.385 . S
C782 C784 1.478 . S
C783 H777 0.930 . S
C783 C779 1.400 1_655 S
C783 C782 1.385 . S
C784 C782 1.478 . S
C784 C786 1.381 . S
C784 C790 1.383 . S
C785 C781 1.495 . S
C785 H791 0.959 . S
C785 H792 0.961 . S
C785 H793 0.960 . S
C786 C784 1.381 . S
C786 C787 1.394 . S
C786 H794 0.930 . S
C787 C786 1.394 . S
C787 C788 1.383 . S
C787 H795 0.929 . S
C788 C787 1.383 . S
C788 C789 1.377 . S
C789 H773 0.930 . S
C789 C788 1.377 . S
C789 C790 1.379 . S
C790 H774 0.931 . S
C790 C784 1.383 . S
C790 C789 1.379 . S
H791 C785 0.959 . S
H792 C785 0.961 . S
H793 C785 0.960 . S
H794 C786 0.930 . S
H795 C787 0.929 . S
H796 C804 0.929 . S
H797 C806 0.930 . S
H798 C808 0.930 . S
H799 C811 0.929 . S
H800 C814 0.930 . S
H801 C816 0.960 . S
H802 C816 0.960 . S
H803 C816 0.960 . S
C804 H796 0.929 . S
C804 C805 1.377 . S
C804 C806 1.384 . S
C805 C804 1.377 . S
C805 C811 1.390 . S
C806 H797 0.930 . S
C806 C804 1.384 . S
C806 C807 1.372 . S
C807 C806 1.372 . S
C807 C808 1.400 . S
C807 C812 1.490 . S
C808 H798 0.930 . S
C808 C807 1.400 . S
C808 C811 1.386 . S
H809 C825 0.930 . S
H810 C826 0.931 . S
C811 H799 0.929 . S
C811 C805 1.390 . S
C811 C808 1.386 . S
C812 C807 1.490 . S
C812 C814 1.395 . S
C812 C815 1.403 . S
H813 C819 0.930 . S
C814 H800 0.930 . S
C814 C812 1.395 . S
C814 C817 1.403 . S
C815 C812 1.403 . S
C815 C816 1.524 . S
C815 C819 1.400 . S
C816 H801 0.960 . S
C816 H802 0.960 . S
C816 H803 0.960 . S
C816 C815 1.524 . S
C817 C814 1.403 . S
C817 C818 1.392 . S
C817 C821 1.495 . S
C818 C817 1.392 . S
C818 C819 1.385 . S
C818 C820 1.478 . S
C819 H813 0.930 . S
C819 C815 1.400 . S
C819 C818 1.385 . S
C820 C818 1.478 . S
C820 C822 1.381 . S
C820 C826 1.383 . S
C821 C817 1.495 . S
C821 H827 0.959 . S
C821 H828 0.961 . S
C821 H829 0.960 . S
C822 C820 1.381 . S
C822 C823 1.394 . S
C822 H830 0.930 . S
C823 C822 1.394 . S
C823 C824 1.383 . S
C823 H831 0.929 . S
C824 C823 1.383 . S
C824 C825 1.377 . S
C825 H809 0.930 . S
C825 C824 1.377 . S
C825 C826 1.379 . S
C826 H810 0.931 . S
C826 C820 1.383 . S
C826 C825 1.379 . S
H827 C821 0.959 . S
H828 C821 0.961 . S
H829 C821 0.960 . S
H830 C822 0.930 . S
H831 C823 0.929 . S
H832 C840 0.929 . S
H833 C842 0.930 . S
H834 C844 0.930 . S
H835 C847 0.929 . S
H836 C850 0.930 . S
H837 C852 0.960 . S
H838 C852 0.960 . S
H839 C852 0.960 1_455 S
C840 H832 0.929 . S
C840 C841 1.377 . S
C840 C842 1.384 . S
C841 C840 1.377 . S
C841 C847 1.390 . S
C842 H833 0.930 . S
C842 C840 1.384 . S
C842 C843 1.372 . S
C843 C842 1.372 . S
C843 C844 1.400 . S
C843 C848 1.490 . S
C844 H834 0.930 . S
C844 C843 1.400 . S
C844 C847 1.386 . S
H845 C861 0.930 . S
H846 C862 0.931 . S
C847 H835 0.929 . S
C847 C841 1.390 . S
C847 C844 1.386 . S
C848 C843 1.490 . S
C848 C850 1.395 . S
C848 C851 1.403 1_455 S
H849 C855 0.930 . S
C850 H836 0.930 . S
C850 C848 1.395 . S
C850 C853 1.403 . S
C851 C848 1.403 1_655 S
C851 C852 1.524 . S
C851 C855 1.400 . S
C852 H837 0.960 . S
C852 H838 0.960 . S
C852 H839 0.960 1_655 S
C852 C851 1.524 . S
C853 C850 1.403 . S
C853 C854 1.392 1_455 S
C853 C857 1.495 . S
C854 C853 1.392 1_655 S
C854 C855 1.385 . S
C854 C856 1.478 . S
C855 H849 0.930 . S
C855 C851 1.400 . S
C855 C854 1.385 . S
C856 C854 1.478 . S
C856 C858 1.381 . S
C856 C862 1.383 . S
C857 C853 1.495 . S
C857 H863 0.959 . S
C857 H864 0.961 . S
C857 H865 0.955 1_455 S
C858 C856 1.381 . S
C858 C859 1.394 . S
C858 H866 0.930 . S
C859 C858 1.394 . S
C859 C860 1.383 . S
C859 H867 0.929 . S
C860 C859 1.383 . S
C860 C861 1.377 . S
C861 H845 0.930 . S
C861 C860 1.377 . S
C861 C862 1.379 . S
C862 H846 0.931 . S
C862 C856 1.383 . S
C862 C861 1.379 . S
H863 C857 0.959 . S
H864 C857 0.961 . S
H865 C857 0.955 1_655 S
H866 C858 0.930 . S
H867 C859 0.929 . S
H868 C876 0.929 . S
H869 C878 0.930 . S
H870 C880 0.930 . S
H871 C883 0.929 . S
H872 C886 0.930 . S
H873 C888 0.960 . S
H874 C888 0.960 . S
H875 C888 0.960 . S
C876 H868 0.929 . S
C876 C877 1.377 . S
C876 C878 1.384 . S
C877 C876 1.377 . S
C877 C883 1.390 . S
C878 H869 0.930 . S
C878 C876 1.384 . S
C878 C879 1.372 . S
C879 C878 1.372 . S
C879 C880 1.400 . S
C879 C884 1.490 . S
C880 H870 0.930 . S
C880 C879 1.400 . S
C880 C883 1.386 . S
H881 C897 0.930 . S
H882 C898 0.931 . S
C883 H871 0.929 . S
C883 C877 1.390 . S
C883 C880 1.386 . S
C884 C879 1.490 . S
C884 C886 1.395 . S
C884 C887 1.403 . S
H885 C891 0.930 . S
C886 H872 0.930 . S
C886 C884 1.395 . S
C886 C889 1.403 . S
C887 C884 1.403 . S
C887 C888 1.524 . S
C887 C891 1.400 . S
C888 H873 0.960 . S
C888 H874 0.960 . S
C888 H875 0.960 . S
C888 C887 1.524 . S
C889 C886 1.403 . S
C889 C890 1.392 . S
C889 C893 1.495 . S
C890 C889 1.392 . S
C890 C891 1.385 . S
C890 C892 1.478 . S
C891 H885 0.930 . S
C891 C887 1.400 . S
C891 C890 1.385 . S
C892 C890 1.478 . S
C892 C894 1.381 . S
C892 C898 1.383 . S
C893 C889 1.495 . S
C893 H899 0.959 . S
C893 H900 0.961 . S
C893 H901 0.960 . S
C894 C892 1.381 . S
C894 C895 1.394 . S
C894 H902 0.930 . S
C895 C894 1.394 . S
C895 C896 1.383 . S
C895 H903 0.929 . S
C896 C895 1.383 . S
C896 C897 1.377 . S
C897 H881 0.930 . S
C897 C896 1.377 . S
C897 C898 1.379 . S
C898 H882 0.931 . S
C898 C892 1.383 . S
C898 C897 1.379 . S
H899 C893 0.959 . S
H900 C893 0.961 . S
H901 C893 0.960 . S
H902 C894 0.930 . S
H903 C895 0.929 . S
H904 C912 0.929 . S
H905 C914 0.930 . S
H906 C916 0.930 1_556 S
H907 C919 0.929 1_556 S
H908 C922 0.930 . S
H909 C924 0.960 . S
H910 C924 0.960 . S
H911 C924 0.960 1_545 S
C912 H904 0.929 . S
C912 C913 1.377 . S
C912 C914 1.384 . S
C913 C912 1.377 . S
C913 C919 1.390 . S
C914 H905 0.930 . S
C914 C912 1.384 . S
C914 C915 1.372 . S
C915 C914 1.372 . S
C915 C916 1.400 . S
C915 C920 1.490 . S
C916 H906 0.930 1_554 S
C916 C915 1.400 . S
C916 C919 1.386 . S
H917 C933 0.930 . S
H918 C934 0.931 . S
C919 H907 0.929 1_554 S
C919 C913 1.390 . S
C919 C916 1.386 . S
C920 C915 1.490 . S
C920 C922 1.395 1_455 S
C920 C923 1.403 1_544 S
H921 C927 0.929 1_455 S
C922 H908 0.930 . S
C922 C920 1.395 1_655 S
C922 C925 1.403 . S
C923 C920 1.403 1_566 S
C923 C924 1.524 . S
C923 C927 1.392 1_455 S
C924 H909 0.960 . S
C924 H910 0.960 . S
C924 H911 0.960 1_565 S
C924 C923 1.524 . S
C925 C922 1.403 . S
C925 C926 1.392 1_544 S
C925 C929 1.495 . S
C926 C925 1.392 1_566 S
C926 C927 1.394 . S
C926 C928 1.478 . S
C927 H921 0.929 1_655 S
C927 C923 1.392 1_655 S
C927 C926 1.394 . S
C928 C926 1.478 . S
C928 C930 1.381 1_556 S
C928 C934 1.383 . S
C929 C925 1.495 . S
C929 H935 0.959 . S
C929 H936 0.961 . S
C929 H937 0.960 1_545 S
C930 C928 1.381 1_554 S
C930 C931 1.394 1_554 S
C930 H938 0.930 . S
C931 C930 1.394 1_556 S
C931 C932 1.383 . S
C931 H939 0.929 1_556 S
C932 C931 1.383 . S
C932 C933 1.377 . S
C933 H917 0.930 . S
C933 C932 1.377 . S
C933 C934 1.379 . S
C934 H918 0.931 . S
C934 C928 1.383 . S
C934 C933 1.379 . S
H935 C929 0.959 . S
H936 C929 0.961 . S
H937 C929 0.960 1_565 S
H938 C930 0.930 . S
H939 C931 0.929 1_554 S
H940 C948 0.929 . S
H941 C950 0.930 . S
H942 C952 0.930 . S
H943 C955 0.929 . S
H944 C958 0.930 . S
H945 C960 0.960 . S
H946 C960 0.960 . S
H947 C960 0.960 . S
C948 H940 0.929 . S
C948 C949 1.377 . S
C948 C950 1.384 . S
C949 C948 1.377 . S
C949 C955 1.390 . S
C950 H941 0.930 . S
C950 C948 1.384 . S
C950 C951 1.372 . S
C951 C950 1.372 . S
C951 C952 1.400 . S
C951 C956 1.490 . S
C952 H942 0.930 . S
C952 C951 1.400 . S
C952 C955 1.386 . S
H953 C969 0.930 . S
H954 C970 0.931 . S
C955 H943 0.929 . S
C955 C949 1.390 . S
C955 C952 1.386 . S
C956 C951 1.490 . S
C956 C958 1.395 . S
C956 C959 1.403 . S
H957 C963 0.930 . S
C958 H944 0.930 . S
C958 C956 1.395 . S
C958 C961 1.403 . S
C959 C956 1.403 . S
C959 C960 1.524 . S
C959 C963 1.400 . S
C960 H945 0.960 . S
C960 H946 0.960 . S
C960 H947 0.960 . S
C960 C959 1.524 . S
C961 C958 1.403 . S
C961 C962 1.392 . S
C961 C965 1.495 . S
C962 C961 1.392 . S
C962 C963 1.385 . S
C962 C964 1.478 . S
C963 H957 0.930 . S
C963 C959 1.400 . S
C963 C962 1.385 . S
C964 C962 1.478 . S
C964 C966 1.381 . S
C964 C970 1.383 . S
C965 C961 1.495 . S
C965 H971 0.959 . S
C965 H972 0.961 . S
C965 H973 0.960 . S
C966 C964 1.381 . S
C966 C967 1.394 . S
C966 H974 0.930 . S
C967 C966 1.394 . S
C967 C968 1.383 . S
C967 H975 0.929 . S
C968 C967 1.383 . S
C968 C969 1.377 . S
C969 H953 0.930 . S
C969 C968 1.377 . S
C969 C970 1.379 . S
C970 H954 0.931 . S
C970 C964 1.383 . S
C970 C969 1.379 . S
H971 C965 0.959 . S
H972 C965 0.961 . S
H973 C965 0.960 . S
H974 C966 0.930 . S
H975 C967 0.929 . S
H976 C984 0.929 . S
H977 C986 0.930 1_556 S
H978 C988 0.930 . S
H979 C991 0.929 . S
H980 C994 0.930 . S
H981 C996 0.960 . S
H982 C996 0.960 . S
H983 C996 0.960 . S
C984 H976 0.929 . S
C984 C985 1.377 . S
C984 C986 1.384 . S
C985 C984 1.377 . S
C985 C991 1.390 . S
C986 H977 0.930 1_554 S
C986 C984 1.384 . S
C986 C987 1.372 . S
C987 C986 1.372 . S
C987 C988 1.400 . S
C987 C992 1.490 . S
C988 H978 0.930 . S
C988 C987 1.400 . S
C988 C991 1.386 . S
H989 C1005 0.930 . S
H990 C1006 0.931 1_554 S
C991 H979 0.929 . S
C991 C985 1.390 . S
C991 C988 1.386 . S
C992 C987 1.490 . S
C992 C994 1.395 . S
C992 C995 1.403 1_554 S
H993 C999 0.930 . S
C994 H980 0.930 . S
C994 C992 1.395 . S
C994 C997 1.403 . S
C995 C992 1.403 1_556 S
C995 C996 1.524 . S
C995 C999 1.400 . S
C996 H981 0.960 . S
C996 H982 0.960 . S
C996 H983 0.960 . S
C996 C995 1.524 . S
C997 C994 1.403 . S
C997 C998 1.392 1_554 S
C997 C1001 1.495 . S
C998 C997 1.392 1_556 S
C998 C999 1.385 . S
C998 C1000 1.478 . S
C999 H993 0.930 . S
C999 C995 1.400 . S
C999 C998 1.385 . S
C1000 C998 1.478 . S
C1000 C1002 1.381 . S
C1000 C1006 1.383 . S
C1001 C997 1.495 . S
C1001 H1007 0.959 . S
C1001 H1008 0.961 . S
C1001 H1009 0.960 . S
C1002 C1000 1.381 . S
C1002 C1003 1.394 . S
C1002 H1010 0.930 . S
C1003 C1002 1.394 . S
C1003 C1004 1.383 . S
C1003 H1011 0.929 . S
C1004 C1003 1.383 . S
C1004 C1005 1.377 . S
C1005 H989 0.930 . S
C1005 C1004 1.377 . S
C1005 C1006 1.379 . S
C1006 H990 0.931 1_556 S
C1006 C1000 1.383 . S
C1006 C1005 1.379 . S
H1007 C1001 0.959 . S
H1008 C1001 0.961 . S
H1009 C1001 0.960 . S
H1010 C1002 0.930 . S
H1011 C1003 0.929 . S
H1012 C1020 0.929 . S
H1013 C1022 0.930 . S
H1014 C1024 0.930 . S
H1015 C1027 0.929 . S
H1016 C1030 0.930 . S
H1017 C1032 0.960 . S
H1018 C1032 0.960 . S
H1019 C1032 0.960 . S
C1020 H1012 0.929 . S
C1020 C1021 1.377 . S
C1020 C1022 1.384 . S
C1021 C1020 1.377 . S
C1021 C1027 1.390 . S
C1022 H1013 0.930 . S
C1022 C1020 1.384 . S
C1022 C1023 1.372 . S
C1023 C1022 1.372 . S
C1023 C1024 1.400 . S
C1023 C1028 1.490 . S
C1024 H1014 0.930 . S
C1024 C1023 1.400 . S
C1024 C1027 1.386 . S
H1025 C1041 0.930 . S
H1026 C1042 0.931 . S
C1027 H1015 0.929 . S
C1027 C1021 1.390 . S
C1027 C1024 1.386 . S
C1028 C1023 1.490 . S
C1028 C1030 1.395 1_565 S
C1028 C1031 1.403 . S
H1029 C1035 0.930 . S
C1030 H1016 0.930 . S
C1030 C1028 1.395 1_545 S
C1030 C1033 1.403 1_455 S
C1031 C1028 1.403 . S
C1031 C1032 1.524 . S
C1031 C1035 1.400 1_455 S
C1032 H1017 0.960 . S
C1032 H1018 0.960 . S
C1032 H1019 0.960 . S
C1032 C1031 1.524 . S
C1033 C1030 1.403 1_655 S
C1033 C1034 1.392 . S
C1033 C1037 1.495 . S
C1034 C1033 1.392 . S
C1034 C1035 1.385 1_545 S
C1034 C1036 1.478 . S
C1035 H1029 0.930 . S
C1035 C1031 1.400 1_655 S
C1035 C1034 1.385 1_565 S
C1036 C1034 1.478 . S
C1036 C1038 1.381 . S
C1036 C1042 1.383 . S
C1037 C1033 1.495 . S
C1037 H1043 0.959 . S
C1037 H1044 0.961 . S
C1037 H1045 0.960 . S
C1038 C1036 1.381 . S
C1038 C1039 1.394 . S
C1038 H1046 0.930 . S
C1039 C1038 1.394 . S
C1039 C1040 1.383 . S
C1039 H1047 0.929 . S
C1040 C1039 1.383 . S
C1040 C1041 1.377 . S
C1041 H1025 0.930 . S
C1041 C1040 1.377 . S
C1041 C1042 1.379 . S
C1042 H1026 0.931 . S
C1042 C1036 1.383 . S
C1042 C1041 1.379 . S
H1043 C1037 0.959 . S
H1044 C1037 0.961 . S
H1045 C1037 0.960 . S
H1046 C1038 0.930 . S
H1047 C1039 0.929 . S
C481 C64 1.655 . S
C500 C3 1.607 1_556 S
C517 C5 1.654 . S
C536 C62 1.638 . S
C553 C182 1.656 . S
C572 C121 1.632 1_554 S
C589 C123 1.656 . S
C608 C180 1.624 . S
C625 C241 1.634 1_554 S
C644 C298 1.625 . S
C661 C300 1.637 . S
C680 C239 1.647 . S
C697 C359 1.634 1_556 S
C716 C416 1.625 . S
C733 C357 1.640 . S
C752 C418 1.619 . S
C769 C33 0.486 . S
C788 C210 0.415 . S
C805 C92 0.472 . S
C824 C151 0.442 . S
C841 C465 0.479 . S
C860 C288 0.503 . S
C877 C406 0.458 . S
C896 C347 0.461 . S
C913 C52 1.534 . S
C932 C269 1.534 . S
C949 C328 1.525 . S
C968 C111 1.523 . S
C985 C387 1.527 . S
C1004 C170 1.536 . S
C1021 C446 1.524 . S
C1040 C229 1.531 . S
