# Generated by pormake.
# Topology zfv, (5)-cn, num edge types: 1
# Building blocks:
#     Node 0, Type 0, BuildingBlock: BEQFEK_clean_sbu_0, # of connection points: 5
#     Node 1, Type 0, BuildingBlock: BEQFEK_clean_sbu_0, # of connection points: 5
#     Node 2, Type 0, BuildingBlock: BEQFEK_clean_sbu_0, # of connection points: 5
#     Node 3, Type 0, BuildingBlock: BEQFEK_clean_sbu_0, # of connection points: 5
#     Node 4, Type 0, BuildingBlock: BEQFEK_clean_sbu_0, # of connection points: 5
#     Node 5, Type 0, BuildingBlock: BEQFEK_clean_sbu_0, # of connection points: 5
#     Node 6, Type 0, BuildingBlock: BEQFEK_clean_sbu_0, # of connection points: 5
#     Node 7, Type 0, BuildingBlock: BEQFEK_clean_sbu_0, # of connection points: 5
#     Node 8, Type 0, BuildingBlock: BEQFEK_clean_sbu_0, # of connection points: 5
#     Node 9, Type 0, BuildingBlock: BEQFEK_clean_sbu_0, # of connection points: 5
#     Node 10, Type 0, BuildingBlock: BEQFEK_clean_sbu_0, # of connection points: 5
#     Node 11, Type 0, BuildingBlock: BEQFEK_clean_sbu_0, # of connection points: 5
#     Node 12, Type 0, BuildingBlock: BEQFEK_clean_sbu_0, # of connection points: 5
#     Node 13, Type 0, BuildingBlock: BEQFEK_clean_sbu_0, # of connection points: 5
#     Node 14, Type 0, BuildingBlock: BEQFEK_clean_sbu_0, # of connection points: 5
#     Node 15, Type 0, BuildingBlock: BEQFEK_clean_sbu_0, # of connection points: 5
#     Edge 16, Type (0, 0), BuildingBlock: AJUNOK_clean_linker_0, # of connection points: 2
#     Edge 17, Type (0, 0), BuildingBlock: AJUNOK_clean_linker_0, # of connection points: 2
#     Edge 18, Type (0, 0), BuildingBlock: AJUNOK_clean_linker_0, # of connection points: 2
#     Edge 19, Type (0, 0), BuildingBlock: AJUNOK_clean_linker_0, # of connection points: 2
#     Edge 20, Type (0, 0), BuildingBlock: AJUNOK_clean_linker_0, # of connection points: 2
#     Edge 21, Type (0, 0), BuildingBlock: AJUNOK_clean_linker_0, # of connection points: 2
#     Edge 22, Type (0, 0), BuildingBlock: AJUNOK_clean_linker_0, # of connection points: 2
#     Edge 23, Type (0, 0), BuildingBlock: AJUNOK_clean_linker_0, # of connection points: 2
#     Edge 24, Type (0, 0), BuildingBlock: AJUNOK_clean_linker_0, # of connection points: 2
#     Edge 25, Type (0, 0), BuildingBlock: AJUNOK_clean_linker_0, # of connection points: 2
#     Edge 26, Type (0, 0), BuildingBlock: AJUNOK_clean_linker_0, # of connection points: 2
#     Edge 27, Type (0, 0), BuildingBlock: AJUNOK_clean_linker_0, # of connection points: 2
#     Edge 28, Type (0, 0), BuildingBlock: AJUNOK_clean_linker_0, # of connection points: 2
#     Edge 29, Type (0, 0), BuildingBlock: AJUNOK_clean_linker_0, # of connection points: 2
#     Edge 30, Type (0, 0), BuildingBlock: AJUNOK_clean_linker_0, # of connection points: 2
#     Edge 31, Type (0, 0), BuildingBlock: AJUNOK_clean_linker_0, # of connection points: 2
#     Edge 32, Type (0, 0), BuildingBlock: AJUNOK_clean_linker_0, # of connection points: 2
#     Edge 33, Type (0, 0), BuildingBlock: AJUNOK_clean_linker_0, # of connection points: 2
#     Edge 34, Type (0, 0), BuildingBlock: AJUNOK_clean_linker_0, # of connection points: 2
#     Edge 35, Type (0, 0), BuildingBlock: AJUNOK_clean_linker_0, # of connection points: 2
#     Edge 36, Type (0, 0), BuildingBlock: AJUNOK_clean_linker_0, # of connection points: 2
#     Edge 37, Type (0, 0), BuildingBlock: AJUNOK_clean_linker_0, # of connection points: 2
#     Edge 38, Type (0, 0), BuildingBlock: AJUNOK_clean_linker_0, # of connection points: 2
#     Edge 39, Type (0, 0), BuildingBlock: AJUNOK_clean_linker_0, # of connection points: 2
#     Edge 40, Type (0, 0), BuildingBlock: AJUNOK_clean_linker_0, # of connection points: 2
#     Edge 41, Type (0, 0), BuildingBlock: AJUNOK_clean_linker_0, # of connection points: 2
#     Edge 42, Type (0, 0), BuildingBlock: AJUNOK_clean_linker_0, # of connection points: 2
#     Edge 43, Type (0, 0), BuildingBlock: AJUNOK_clean_linker_0, # of connection points: 2
#     Edge 44, Type (0, 0), BuildingBlock: AJUNOK_clean_linker_0, # of connection points: 2
#     Edge 45, Type (0, 0), BuildingBlock: AJUNOK_clean_linker_0, # of connection points: 2
#     Edge 46, Type (0, 0), BuildingBlock: AJUNOK_clean_linker_0, # of connection points: 2
#     Edge 47, Type (0, 0), BuildingBlock: AJUNOK_clean_linker_0, # of connection points: 2
#     Edge 48, Type (0, 0), BuildingBlock: AJUNOK_clean_linker_0, # of connection points: 2
#     Edge 49, Type (0, 0), BuildingBlock: AJUNOK_clean_linker_0, # of connection points: 2
#     Edge 50, Type (0, 0), BuildingBlock: AJUNOK_clean_linker_0, # of connection points: 2
#     Edge 51, Type (0, 0), BuildingBlock: AJUNOK_clean_linker_0, # of connection points: 2
#     Edge 52, Type (0, 0), BuildingBlock: AJUNOK_clean_linker_0, # of connection points: 2
#     Edge 53, Type (0, 0), BuildingBlock: AJUNOK_clean_linker_0, # of connection points: 2
#     Edge 54, Type (0, 0), BuildingBlock: AJUNOK_clean_linker_0, # of connection points: 2
#     Edge 55, Type (0, 0), BuildingBlock: AJUNOK_clean_linker_0, # of connection points: 2
# Relax obj value: 0.071
# Max RMSD: 0.135
# Mean RMSD: 0.135
data_MOF--net-zfv--node1-BEQFEK_clean_sbu_0--edge1-AJUNOK_clean_linker_0
_symmetry_space_group_name_H-M    P1
_symmetry_Int_Tables_number       1
_symmetry_cell_setting            triclinic
loop_
_symmetry_equiv_pos_as_xyz
'x, y, z'
_cell_length_a     56.680115
_cell_length_b     56.682258
_cell_length_c     15.481938
_cell_angle_alpha  90.007954
_cell_angle_beta   89.973336
_cell_angle_gamma 90.002793
loop_
_atom_site_label
_atom_site_type_symbol
_atom_site_fract_x
_atom_site_fract_y
_atom_site_fract_z
_atom_type_partial_charge
Co0 Co 0.00696 0.61086 0.18207 0.0
Co1 Co 0.00737 0.62041 0.98334 0.0
C2 C 0.96945 0.64024 0.09582 0.0
O3 O 0.9791 0.63109 0.16205 0.0
O4 O 0.97806 0.63727 0.02028 0.0
C5 C 0.99021 0.60417 0.35648 0.0
O6 O 0.96889 0.60746 0.3257 0.0
C7 C 0.99786 0.62 0.79293 0.0
C8 C 0.03475 0.62021 0.74661 0.0
C9 C 0.01161 0.6194 0.71835 0.0
N10 N 0.01241 0.62097 0.86164 0.0
N11 N 0.03437 0.62126 0.83307 0.0
C12 C 0.97154 0.6201 0.79916 0.0
H13 H 0.96587 0.62815 0.86086 0.0
H14 H 0.96493 0.60169 0.79749 0.0
H15 H 0.96372 0.62988 0.74403 0.0
C16 C 0.00682 0.56101 0.12006 0.0
N17 N 0.00708 0.5845 0.10656 0.0
N18 N 0.00746 0.5886 0.02288 0.0
C19 C 0.00765 0.56782 0.98047 0.0
C20 C 0.00716 0.54965 0.04042 0.0
C21 C 0.00535 0.5499 0.20751 0.0
H22 H 0.99162 0.55895 0.24635 0.0
H23 H 0.0012 0.53081 0.20316 0.0
H24 H 0.02247 0.55226 0.24119 0.0
O25 O 0.03565 0.63036 0.16818 0.0
O26 O 0.03481 0.63806 0.02857 0.0
H27 H 0.01189 0.54673 0.86418 0.0
H28 H 0.99349 0.57254 0.85378 0.0
C29 C 0.0096 0.56534 0.88444 0.0
H30 H 0.02502 0.57549 0.86112 0.0
H31 H 0.0492 0.62153 0.87291 0.0
O32 O 0.00762 0.6024 0.30517 0.0
C33 C 0.04437 0.64043 0.10218 0.0
Co34 Co 0.64506 0.74966 0.42113 0.0
Co35 Co 0.63537 0.75223 0.22345 0.0
C36 C 0.61622 0.71252 0.32835 0.0
O37 O 0.62582 0.72136 0.39546 0.0
O38 O 0.6185 0.72231 0.25436 0.0
C39 C 0.64919 0.73439 0.59838 0.0
O40 O 0.64105 0.71389 0.57248 0.0
C41 C 0.6338 0.74584 0.03222 0.0
C42 C 0.64615 0.7813 0.99383 0.0
C43 C 0.64012 0.7594 0.9608 0.0
N44 N 0.63656 0.7591 0.10356 0.0
N45 N 0.64355 0.78035 0.07981 0.0
C46 C 0.62476 0.72109 0.03363 0.0
H47 H 0.61222 0.71896 0.08779 0.0
H48 H 0.63972 0.70878 0.04385 0.0
H49 H 0.61571 0.71661 0.97224 0.0
C50 C 0.69471 0.7516 0.36122 0.0
N51 N 0.67126 0.7516 0.34715 0.0
N52 N 0.66721 0.75149 0.26358 0.0
C53 C 0.68807 0.75078 0.22162 0.0
C54 C 0.70617 0.75109 0.28186 0.0
C55 C 0.70566 0.7526 0.44903 0.0
H56 H 0.69629 0.76583 0.48919 0.0
H57 H 0.70365 0.73517 0.48083 0.0
H58 H 0.72467 0.7572 0.44544 0.0
O59 O 0.62469 0.77744 0.41127 0.0
O60 O 0.61702 0.7792 0.27181 0.0
H61 H 0.68867 0.76467 0.09334 0.0
H62 H 0.70846 0.74029 0.1097 0.0
C63 C 0.6908 0.74744 0.1262 0.0
H64 H 0.67722 0.73503 0.10216 0.0
H65 H 0.64738 0.79399 0.12289 0.0
O66 O 0.65414 0.75018 0.54323 0.0
C67 C 0.61429 0.78709 0.34802 0.0
Co68 Co 0.50317 0.38824 0.68421 0.0
Co69 Co 0.5086 0.38032 0.48835 0.0
C70 C 0.54304 0.35869 0.60102 0.0
O71 O 0.53153 0.36774 0.66375 0.0
O72 O 0.53672 0.3622 0.5229 0.0
C73 C 0.51951 0.39514 0.85835 0.0
O74 O 0.54091 0.39253 0.82725 0.0
C75 C 0.51573 0.38061 0.2959 0.0
C76 C 0.4809 0.39552 0.26134 0.0
C77 C 0.50194 0.38773 0.22626 0.0
N78 N 0.50319 0.3841 0.3686 0.0
N79 N 0.48246 0.39297 0.3471 0.0
C80 C 0.53997 0.37024 0.29371 0.0
H81 H 0.54284 0.35876 0.35077 0.0
H82 H 0.55313 0.38472 0.29564 0.0
H83 H 0.54269 0.35998 0.23343 0.0
C84 C 0.49858 0.43797 0.62419 0.0
N85 N 0.50324 0.41493 0.61281 0.0
N86 N 0.51032 0.41138 0.53371 0.0
C87 C 0.51337 0.43227 0.49435 0.0
C88 C 0.50548 0.4504 0.5492 0.0
C89 C 0.48389 0.44609 0.69895 0.0
H90 H 0.47286 0.43127 0.72295 0.0
H91 H 0.49556 0.45142 0.75306 0.0
H92 H 0.47209 0.46082 0.68 0.0
O93 O 0.47501 0.36988 0.6649 0.0
O94 O 0.47949 0.36238 0.52616 0.0
H95 H 0.51309 0.43427 0.35601 0.0
H96 H 0.53673 0.45069 0.40692 0.0
C97 C 0.52604 0.4343 0.40966 0.0
H98 H 0.53793 0.41894 0.40058 0.0
H99 H 0.46939 0.39752 0.39159 0.0
O100 O 0.50208 0.39623 0.80707 0.0
C101 C 0.46793 0.36006 0.59627 0.0
Co102 Co 0.86818 0.25028 0.92372 0.0
Co103 Co 0.87786 0.24967 0.72468 0.0
C104 C 0.89769 0.28764 0.83739 0.0
O105 O 0.88825 0.27815 0.90341 0.0
O106 O 0.89491 0.27885 0.76209 0.0
C107 C 0.86056 0.26743 0.09785 0.0
O108 O 0.86234 0.2888 0.06579 0.0
C109 C 0.87643 0.26014 0.53502 0.0
C110 C 0.87985 0.22371 0.48558 0.0
C111 C 0.87709 0.24688 0.45933 0.0
N112 N 0.8786 0.24528 0.60253 0.0
N113 N 0.88076 0.22361 0.5721 0.0
C114 C 0.87447 0.28636 0.54319 0.0
H115 H 0.88071 0.29225 0.60746 0.0
H116 H 0.85575 0.29169 0.53612 0.0
H117 H 0.88479 0.29515 0.49143 0.0
C118 C 0.81841 0.25046 0.86197 0.0
N119 N 0.84189 0.25011 0.84828 0.0
N120 N 0.84598 0.24952 0.76456 0.0
C121 C 0.82517 0.2492 0.72239 0.0
C122 C 0.80704 0.25006 0.78249 0.0
C123 C 0.80733 0.25191 0.94948 0.0
H124 H 0.8159 0.26618 0.98718 0.0
H125 H 0.78808 0.2553 0.94533 0.0
H126 H 0.81043 0.23509 0.98431 0.0
O127 O 0.88763 0.22162 0.90881 0.0
O128 O 0.89547 0.22206 0.76924 0.0
H129 H 0.80404 0.2429 0.60786 0.0
H130 H 0.82832 0.26312 0.59475 0.0
C131 C 0.82255 0.24662 0.62663 0.0
H132 H 0.83378 0.23194 0.60345 0.0
H133 H 0.88245 0.2086 0.61064 0.0
O134 O 0.86004 0.24972 0.04754 0.0
C135 C 0.89773 0.21268 0.84327 0.0
Co136 Co 0.00758 0.38899 0.81446 0.0
Co137 Co 0.00656 0.37895 0.01296 0.0
C138 C 0.96932 0.35947 0.89857 0.0
O139 O 0.9796 0.36903 0.83441 0.0
O140 O 0.97731 0.36201 0.97526 0.0
C141 C 0.99062 0.39837 0.64081 0.0
O142 O 0.96923 0.39853 0.67346 0.0
C143 C 0.99666 0.37881 0.20305 0.0
C144 C 0.03307 0.38469 0.24975 0.0
C145 C 0.00995 0.3827 0.27743 0.0
N146 N 0.01139 0.37926 0.13474 0.0
N147 N 0.03309 0.38245 0.16353 0.0
C148 C 0.97081 0.37385 0.19638 0.0
H149 H 0.96761 0.36032 0.14598 0.0
H150 H 0.96144 0.39015 0.17647 0.0
H151 H 0.96358 0.36764 0.25903 0.0
C152 C 0.00816 0.43872 0.87683 0.0
N153 N 0.00765 0.4152 0.88964 0.0
N154 N 0.00674 0.41089 0.97313 0.0
C155 C 0.00641 0.4316 0.01603 0.0
C156 C 0.0076 0.44987 0.95673 0.0
C157 C 0.00956 0.45007 0.78982 0.0
H158 H 0.02243 0.44044 0.7489 0.0
H159 H 0.99205 0.44884 0.75809 0.0
H160 H 0.01474 0.46891 0.79482 0.0
O161 O 0.03594 0.36954 0.83044 0.0
O162 O 0.03436 0.36108 0.96937 0.0
H163 H 0.01971 0.42863 0.14479 0.0
H164 H 0.99901 0.45244 0.13044 0.0
C165 C 0.00325 0.43404 0.11162 0.0
H166 H 0.98868 0.42247 0.13323 0.0
H167 H 0.04791 0.38379 0.12378 0.0
O168 O 0.00835 0.39695 0.69071 0.0
C169 C 0.04426 0.35904 0.89605 0.0
Co170 Co 0.86683 0.74824 0.05706 0.0
Co171 Co 0.87698 0.75008 0.25752 0.0
C172 C 0.89668 0.71148 0.14527 0.0
O173 O 0.88697 0.72041 0.07874 0.0
O174 O 0.89414 0.72088 0.21974 0.0
C175 C 0.85787 0.72984 0.88534 0.0
O176 O 0.86132 0.70919 0.9214 0.0
C177 C 0.87272 0.73819 0.44426 0.0
C178 C 0.88026 0.77305 0.50208 0.0
C179 C 0.87363 0.75023 0.52281 0.0
N180 N 0.87827 0.75344 0.38066 0.0
N181 N 0.88307 0.7741 0.41606 0.0
C182 C 0.86462 0.71346 0.42806 0.0
H183 H 0.85705 0.71191 0.36217 0.0
H184 H 0.85142 0.70795 0.47708 0.0
H185 H 0.88002 0.70143 0.43161 0.0
C186 C 0.81737 0.74822 0.12153 0.0
N187 N 0.84086 0.74869 0.13471 0.0
N188 N 0.84505 0.75019 0.2183 0.0
C189 C 0.82426 0.75138 0.26056 0.0
C190 C 0.8061 0.74971 0.20101 0.0
C191 C 0.80618 0.74577 0.03455 0.0
H192 H 0.80949 0.76205 0.99665 0.0
H193 H 0.81448 0.73087 -0.00061 0.0
H194 H 0.78689 0.74273 0.03955 0.0
O195 O 0.88662 0.77693 0.07049 0.0
O196 O 0.8938 0.77791 0.21112 0.0
H197 H 0.83501 0.76926 0.37634 0.0
H198 H 0.8038 0.76368 0.3696 0.0
C199 C 0.82153 0.75639 0.35504 0.0
H200 H 0.82365 0.73982 0.39207 0.0
H201 H 0.88742 0.78922 0.38114 0.0
O202 O 0.85738 0.74817 0.93282 0.0
C203 C 0.89616 0.78661 0.13591 0.0
Co204 Co 0.50348 0.61227 0.30864 0.0
Co205 Co 0.5092 0.62148 0.50524 0.0
C206 C 0.54416 0.64128 0.39077 0.0
O207 O 0.53249 0.63212 0.3286 0.0
O208 O 0.53764 0.63853 0.46906 0.0
C209 C 0.52081 0.60321 0.13646 0.0
O210 O 0.54193 0.60448 0.17095 0.0
C211 C 0.51758 0.62078 0.69719 0.0
C212 C 0.48265 0.6068 0.73565 0.0
C213 C 0.50439 0.61335 0.76825 0.0
N214 N 0.50414 0.61823 0.62606 0.0
N215 N 0.48333 0.61001 0.64996 0.0
C216 C 0.54194 0.63089 0.69634 0.0
H217 H 0.54337 0.64458 0.6454 0.0
H218 H 0.55474 0.61671 0.68072 0.0
H219 H 0.54649 0.63859 0.76011 0.0
C220 C 0.49858 0.56255 0.3769 0.0
N221 N 0.50275 0.58589 0.38369 0.0
N222 N 0.51009 0.59042 0.46191 0.0
C223 C 0.51365 0.5702 0.50481 0.0
C224 C 0.50513 0.55142 0.45483 0.0
C225 C 0.48739 0.55196 0.29845 0.0
H226 H 0.47853 0.56585 0.25967 0.0
H227 H 0.50123 0.54375 0.2576 0.0
H228 H 0.47426 0.53836 0.3171 0.0
O229 O 0.4759 0.63209 0.32679 0.0
O230 O 0.48069 0.6396 0.46578 0.0
H231 H 0.52045 0.5725 0.64129 0.0
H232 H 0.53938 0.55194 0.58393 0.0
C233 C 0.53019 0.5692 0.58044 0.0
H234 H 0.54361 0.58338 0.57448 0.0
H235 H 0.46966 0.60617 0.60708 0.0
O236 O 0.50273 0.60397 0.18499 0.0
C237 C 0.46928 0.64226 0.39559 0.0
Co238 Co 0.64464 0.25029 0.57227 0.0
Co239 Co 0.63631 0.24953 0.77138 0.0
C240 C 0.61526 0.28735 0.66209 0.0
O241 O 0.6245 0.2781 0.59515 0.0
O242 O 0.61856 0.27843 0.73683 0.0
C243 C 0.65154 0.2676 0.39795 0.0
O244 O 0.64982 0.28902 0.42958 0.0
C245 C 0.63719 0.25954 0.96121 0.0
C246 C 0.63861 0.2228 0.00892 0.0
C247 C 0.63842 0.24605 0.036 0.0
N248 N 0.63681 0.24476 0.89304 0.0
N249 N 0.63758 0.22288 0.92239 0.0
C250 C 0.63595 0.28584 0.95483 0.0
H251 H 0.62911 0.2913 0.89097 0.0
H252 H 0.65388 0.29335 0.96279 0.0
H253 H 0.6246 0.29304 0.00701 0.0
C254 C 0.69484 0.24993 0.62914 0.0
N255 N 0.67146 0.25 0.64481 0.0
N256 N 0.66789 0.24995 0.7288 0.0
C257 C 0.68894 0.24995 0.76932 0.0
C258 C 0.70672 0.24988 0.70772 0.0
C259 C 0.70537 0.24909 0.54059 0.0
H260 H 0.69575 0.23599 0.50065 0.0
H261 H 0.70324 0.2666 0.50949 0.0
H262 H 0.72438 0.24446 0.54276 0.0
O263 O 0.62556 0.22151 0.5876 0.0
O264 O 0.61872 0.22167 0.72786 0.0
H265 H 0.68541 0.2349 0.8953 0.0
H266 H 0.71065 0.25412 0.88395 0.0
C267 C 0.69198 0.25139 0.8652 0.0
H268 H 0.68148 0.26634 0.89032 0.0
H269 H 0.63769 0.20794 0.88303 0.0
O270 O 0.65213 0.24995 0.44843 0.0
C271 C 0.61604 0.21237 0.65382 0.0
Co272 Co 0.36694 0.24875 0.55784 0.0
Co273 Co 0.37715 0.25258 0.75783 0.0
C274 C 0.39745 0.21347 0.65077 0.0
O275 O 0.38762 0.22149 0.58299 0.0
O276 O 0.39463 0.22357 0.72369 0.0
C277 C 0.3631 0.22995 0.3852 0.0
O278 O 0.37227 0.21101 0.42047 0.0
C279 C 0.37461 0.24093 0.94418 0.0
C280 C 0.37947 0.27628 0.00182 0.0
C281 C 0.37493 0.25296 0.02264 0.0
N282 N 0.37854 0.2566 0.88042 0.0
N283 N 0.38175 0.2776 0.91556 0.0
C284 C 0.36846 0.21562 0.92845 0.0
H285 H 0.36037 0.21352 0.86362 0.0
H286 H 0.35629 0.20896 0.97908 0.0
H287 H 0.38485 0.20492 0.92967 0.0
C288 C 0.31735 0.24856 0.62438 0.0
N289 N 0.34091 0.24956 0.63622 0.0
N290 N 0.3453 0.25163 0.71951 0.0
C291 C 0.32467 0.25248 0.76283 0.0
C292 C 0.30634 0.25016 0.70445 0.0
C293 C 0.30584 0.24554 0.53823 0.0
H294 H 0.31483 0.23125 0.50192 0.0
H295 H 0.28679 0.24138 0.54484 0.0
H296 H 0.30791 0.26208 0.5006 0.0
O297 O 0.38649 0.27785 0.56701 0.0
O298 O 0.39337 0.28014 0.70773 0.0
H299 H 0.30414 0.26331 0.874 0.0
H300 H 0.32606 0.24113 0.89447 0.0
C301 C 0.32225 0.2574 0.85748 0.0
H302 H 0.33482 0.27136 0.87703 0.0
H303 H 0.38467 0.29302 0.88038 0.0
O304 O 0.35743 0.24722 0.43363 0.0
C305 C 0.39579 0.28819 0.63156 0.0
Co306 Co 0.14632 0.75061 0.0717 0.0
Co307 Co 0.13373 0.75021 0.2709 0.0
C308 C 0.11465 0.78738 0.15294 0.0
O309 O 0.12527 0.77771 0.08982 0.0
O310 O 0.11675 0.77929 0.22969 0.0
C311 C 0.15399 0.76831 0.898 0.0
O312 O 0.14771 0.7887 0.93096 0.0
C313 C 0.13692 0.76092 0.4599 0.0
C314 C 0.12991 0.72535 0.51234 0.0
C315 C 0.13665 0.7479 0.53626 0.0
N316 N 0.13137 0.74638 0.39397 0.0
N317 N 0.12672 0.72532 0.4264 0.0
C318 C 0.14437 0.78604 0.44844 0.0
H319 H 0.14959 0.78937 0.38039 0.0
H320 H 0.15915 0.79037 0.49269 0.0
H321 H 0.1293 0.79772 0.4646 0.0
C322 C 0.19498 0.75125 0.14298 0.0
N323 N 0.17136 0.75094 0.15282 0.0
N324 N 0.16621 0.74994 0.23584 0.0
C325 C 0.18655 0.74892 0.28107 0.0
C326 C 0.20536 0.7502 0.22409 0.0
C327 C 0.20713 0.7529 0.05743 0.0
H328 H 0.19853 0.7667 0.01754 0.0
H329 H 0.22615 0.75704 0.06493 0.0
H330 H 0.2052 0.73584 0.02296 0.0
O331 O 0.12707 0.72171 0.08431 0.0
O332 O 0.11706 0.72244 0.22239 0.0
H333 H 0.20595 0.73724 0.39357 0.0
H334 H 0.18555 0.7609 0.41192 0.0
C335 C 0.18831 0.74424 0.37603 0.0
H336 H 0.17483 0.73119 0.39581 0.0
H337 H 0.12247 0.71054 0.38931 0.0
O338 O 0.15654 0.75067 0.9481 0.0
C339 C 0.11599 0.71292 0.14808 0.0
Co340 Co 0.14587 0.24942 0.93765 0.0
Co341 Co 0.13621 0.24951 0.738 0.0
C342 C 0.11604 0.21203 0.8478 0.0
O343 O 0.12521 0.22199 0.91338 0.0
O344 O 0.11917 0.22021 0.77184 0.0
C345 C 0.14881 0.23133 0.111 0.0
O346 O 0.13744 0.2132 0.07855 0.0
C347 C 0.13718 0.2401 0.54874 0.0
C348 C 0.14081 0.27673 0.50137 0.0
C349 C 0.14067 0.25345 0.47442 0.0
N350 N 0.13605 0.25494 0.61654 0.0
N351 N 0.1378 0.27677 0.58735 0.0
C352 C 0.13728 0.21379 0.55666 0.0
H353 H 0.14209 0.20842 0.62327 0.0
H354 H 0.14978 0.20588 0.50963 0.0
H355 H 0.11934 0.207 0.54243 0.0
C356 C 0.19565 0.25043 0.87464 0.0
N357 N 0.17214 0.24987 0.86143 0.0
N358 N 0.168 0.24925 0.7778 0.0
C359 C 0.18876 0.24915 0.73522 0.0
C360 C 0.20697 0.25002 0.79486 0.0
C361 C 0.20681 0.25219 0.96194 0.0
H362 H 0.19719 0.26538 0.00153 0.0
H363 H 0.20532 0.23488 0.99503 0.0
H364 H 0.22569 0.25722 0.95726 0.0
O365 O 0.12663 0.27837 0.92564 0.0
O366 O 0.11883 0.27693 0.78577 0.0
H367 H 0.18467 0.26288 0.60741 0.0
H368 H 0.20977 0.2436 0.61944 0.0
C369 C 0.19124 0.24667 0.63938 0.0
H370 H 0.18063 0.23147 0.6173 0.0
H371 H 0.13801 0.2917 0.62676 0.0
O372 O 0.15534 0.24793 0.06107 0.0
C373 C 0.11654 0.28679 0.85907 0.0
Co374 Co 0.36603 0.7505 0.45551 0.0
Co375 Co 0.37525 0.75158 0.25666 0.0
C376 C 0.39448 0.78921 0.36934 0.0
O377 O 0.3855 0.77893 0.43466 0.0
O378 O 0.39161 0.781 0.29324 0.0
C379 C 0.3579 0.76746 0.62976 0.0
O380 O 0.35796 0.78892 0.59789 0.0
C381 C 0.37525 0.76141 0.0662 0.0
C382 C 0.37304 0.72459 0.01976 0.0
C383 C 0.37366 0.74776 0.99188 0.0
N384 N 0.3753 0.7468 0.1349 0.0
N385 N 0.37415 0.72488 0.10625 0.0
C386 C 0.37712 0.7877 0.07167 0.0
H387 H 0.386 0.79302 0.13235 0.0
H388 H 0.35917 0.79549 0.07112 0.0
H389 H 0.38695 0.79473 0.01524 0.0
C390 C 0.31605 0.74898 0.39474 0.0
N391 N 0.33952 0.74979 0.38109 0.0
N392 N 0.34356 0.75069 0.29743 0.0
C393 C 0.32278 0.75066 0.25521 0.0
C394 C 0.30465 0.74945 0.31516 0.0
C395 C 0.305 0.74725 0.48223 0.0
H396 H 0.31499 0.7345 0.52242 0.0
H397 H 0.306 0.76472 0.51436 0.0
H398 H 0.28625 0.7417 0.47791 0.0
O399 O 0.3861 0.72234 0.44002 0.0
O400 O 0.3937 0.72436 0.30048 0.0
H401 H 0.32645 0.73719 0.12689 0.0
H402 H 0.30175 0.75697 0.14019 0.0
C403 C 0.32025 0.75346 0.15953 0.0
H404 H 0.33125 0.76843 0.13774 0.0
H405 H 0.37368 0.71004 0.14613 0.0
O406 O 0.35826 0.74978 0.57932 0.0
C407 C 0.39642 0.71439 0.37334 0.0
Co408 Co 0.5066 0.11068 0.69257 0.0
Co409 Co 0.50695 0.12084 0.49236 0.0
C410 C 0.46967 0.14127 0.60465 0.0
O411 O 0.47923 0.13145 0.66979 0.0
O412 O 0.47797 0.13832 0.52863 0.0
C413 C 0.48809 0.10423 0.86536 0.0
O414 O 0.46817 0.11177 0.83223 0.0
C415 C 0.49692 0.11923 0.30273 0.0
C416 C 0.53353 0.11731 0.254 0.0
C417 C 0.51021 0.11619 0.22781 0.0
N418 N 0.51187 0.12126 0.37001 0.0
N419 N 0.53366 0.12056 0.33985 0.0
C420 C 0.47067 0.11794 0.31171 0.0
H421 H 0.46568 0.11382 0.37938 0.0
H422 H 0.46332 0.10442 0.26733 0.0
H423 H 0.46295 0.13528 0.29426 0.0
C424 C 0.50784 0.06121 0.62863 0.0
N425 N 0.50703 0.08471 0.61552 0.0
N426 N 0.50667 0.08893 0.53187 0.0
C427 C 0.50711 0.06818 0.48921 0.0
C428 C 0.5081 0.04997 0.54888 0.0
C429 C 0.50914 0.05001 0.71595 0.0
H430 H 0.52266 0.05915 0.75549 0.0
H431 H 0.49189 0.05217 0.74901 0.0
H432 H 0.51348 0.03096 0.71153 0.0
O433 O 0.53541 0.12997 0.68001 0.0
O434 O 0.53475 0.13781 0.53991 0.0
H435 H 0.52097 0.0732 0.36195 0.0
H436 H 0.50311 0.04701 0.37303 0.0
C437 C 0.50508 0.06567 0.39325 0.0
H438 H 0.48935 0.0754 0.37075 0.0
H439 H 0.54871 0.12115 0.37856 0.0
O440 O 0.50578 0.10103 0.81608 0.0
C441 C 0.54426 0.13994 0.61395 0.0
Co442 Co 0.00505 0.88835 0.17602 0.0
Co443 Co 0.00505 0.87929 0.97745 0.0
C444 C 0.04261 0.85883 0.089 0.0
O445 O 0.033 0.86813 0.15516 0.0
O446 O 0.03404 0.86199 0.01358 0.0
C447 C 0.0218 0.89484 0.3505 0.0
O448 O 0.04317 0.89183 0.31971 0.0
C449 C 0.01429 0.87932 0.78681 0.0
C450 C 0.97742 0.88281 0.74212 0.0
C451 C 0.00046 0.88147 0.71306 0.0
N452 N 0.99991 0.87959 0.85611 0.0
N453 N 0.97794 0.88152 0.82853 0.0
C454 C 0.04052 0.87679 0.79149 0.0
H455 H 0.04576 0.86838 0.85305 0.0
H456 H 0.0488 0.8945 0.78859 0.0
H457 H 0.04713 0.86624 0.73611 0.0
C458 C 0.00456 0.93838 0.11623 0.0
N459 N 0.00487 0.91491 0.10211 0.0
N460 N 0.00516 0.91097 0.01837 0.0
C461 C 0.00519 0.93182 0.97652 0.0
C462 C 0.00456 0.94986 0.03689 0.0
C463 C 0.00373 0.94937 0.20398 0.0
H464 H 0.99027 0.94027 0.244 0.0
H465 H 0.02108 0.94693 0.23593 0.0
H466 H 0.99961 0.96848 0.20037 0.0
O467 O 0.97633 0.86907 0.16082 0.0
O468 O 0.97741 0.86153 0.02111 0.0
H469 H 0.99086 0.92856 0.84934 0.0
H470 H 0.01094 0.95304 0.86171 0.0
C471 C 0.0074 0.93451 0.88068 0.0
H472 H 0.02211 0.9234 0.85719 0.0
H473 H 0.96326 0.88242 0.8691 0.0
O474 O 0.00439 0.89645 0.29923 0.0
C475 C 0.9677 0.85911 0.09452 0.0
Co476 Co 0.50437 0.88899 0.32481 0.0
Co477 Co 0.50617 0.87962 0.52503 0.0
C478 C 0.46697 0.86063 0.41799 0.0
O479 O 0.47632 0.86939 0.35048 0.0
O480 O 0.47627 0.86361 0.49217 0.0
C481 C 0.48553 0.89345 0.15274 0.0
O482 O 0.46617 0.88534 0.18853 0.0
C483 C 0.49508 0.88262 0.7116 0.0
C484 C 0.53059 0.87745 0.76758 0.0
C485 C 0.50737 0.88216 0.78942 0.0
N486 N 0.5105 0.87856 0.64718 0.0
N487 N 0.53159 0.87519 0.68128 0.0
C488 C 0.46976 0.88893 0.69712 0.0
H489 H 0.46747 0.89703 0.63238 0.0
H490 H 0.46336 0.90115 0.74805 0.0
H491 H 0.45895 0.87262 0.69897 0.0
C492 C 0.50611 0.93877 0.38695 0.0
N493 N 0.50588 0.9153 0.40094 0.0
N494 N 0.50701 0.91132 0.48471 0.0
C495 C 0.50838 0.93217 0.52642 0.0
C496 C 0.50764 0.9502 0.46618 0.0
C497 C 0.50402 0.94981 0.29958 0.0
H498 H 0.52053 0.94656 0.26287 0.0
H499 H 0.48936 0.94138 0.26353 0.0
H500 H 0.50087 0.9691 0.30411 0.0
O501 O 0.53281 0.86869 0.33616 0.0
O502 O 0.53268 0.86139 0.47641 0.0
H503 H 0.52538 0.92229 0.64469 0.0
H504 H 0.5178 0.95303 0.63853 0.0
C505 C 0.5119 0.93494 0.62174 0.0
H506 H 0.49505 0.93141 0.65557 0.0
H507 H 0.54687 0.87212 0.64532 0.0
O508 O 0.50322 0.89811 0.2005 0.0
C509 C 0.54162 0.85849 0.40187 0.0
Co510 Co 0.0076 0.11063 0.81322 0.0
Co511 Co 0.0055 0.12074 0.01104 0.0
C512 C 0.04466 0.13993 0.90512 0.0
O513 O 0.03544 0.13023 0.83928 0.0
O514 O 0.03527 0.13778 0.97974 0.0
C515 C 0.01648 0.11758 0.63997 0.0
O516 O 0.02147 0.13843 0.67219 0.0
C517 C 0.01376 0.12038 0.20002 0.0
C518 C 0.97684 0.11795 0.24566 0.0
C519 C 1.0 0.11788 0.27353 0.0
N520 N 0.99928 0.12134 0.1314 0.0
N521 N 0.97727 0.12025 0.15939 0.0
C522 C 0.04008 0.11979 0.19416 0.0
H523 H 0.0457 0.1132 0.12984 0.0
H524 H 0.0476 0.10852 0.24594 0.0
H525 H 0.04699 0.13796 0.20253 0.0
C526 C 0.00643 0.06101 0.87605 0.0
N527 N 0.00639 0.08451 0.88919 0.0
N528 N 0.00593 0.08875 0.97276 0.0
C529 C 0.00562 0.06801 0.01552 0.0
C530 C 0.00595 0.04977 0.95583 0.0
C531 C 0.00788 0.04978 0.78878 0.0
H532 H 0.02246 0.05795 0.75146 0.0
H533 H 0.01085 0.03046 0.79343 0.0
H534 H 0.99124 0.0532 0.7532 0.0
O535 O 0.97882 0.13038 0.82105 0.0
O536 O 0.97843 0.13799 0.96106 0.0
H537 H 0.98791 0.07501 0.13468 0.0
H538 H 0.00242 0.04695 0.13235 0.0
C539 C 0.00381 0.06561 0.11162 0.0
H540 H 0.01957 0.07363 0.14212 0.0
H541 H 0.96252 0.12006 0.11912 0.0
O542 O 0.01013 0.10119 0.69099 0.0
C543 C 0.96952 0.14034 0.88629 0.0
C544 C 0.98568 0.60262 0.60112 0.0
C545 C 0.00463 0.61715 0.62651 0.0
C546 C 0.98074 0.59863 0.51335 0.0
C547 C 0.99501 0.60852 0.44859 0.0
H548 H 0.97509 0.59358 0.64884 0.0
H549 H 0.96616 0.58721 0.49611 0.0
S550 S 0.04526 0.64955 0.48042 0.0
N551 N 0.03646 0.64288 0.57905 0.0
N552 N 0.02768 0.63476 0.41504 0.0
C553 C 0.01362 0.62345 0.47302 0.0
C554 C 0.01834 0.62786 0.56175 0.0
C555 C 0.64823 0.7298 0.84279 0.0
C556 C 0.64195 0.75283 0.86832 0.0
C557 C 0.65071 0.72389 0.75524 0.0
C558 C 0.64785 0.74098 0.69044 0.0
H559 H 0.65179 0.7163 0.89029 0.0
H560 H 0.65523 0.7059 0.73824 0.0
S561 S 0.63206 0.80397 0.72288 0.0
N562 N 0.63295 0.79277 0.82109 0.0
N563 N 0.63867 0.78197 0.6575 0.0
C564 C 0.64214 0.76419 0.7151 0.0
C565 C 0.63902 0.77004 0.80375 0.0
C566 C 0.52915 0.39537 0.10127 0.0
C567 C 0.50715 0.38779 0.13286 0.0
C568 C 0.53312 0.39775 0.01215 0.0
C569 C 0.51511 0.39297 0.95209 0.0
H570 H 0.54313 0.40019 0.14546 0.0
H571 H 0.55024 0.40379 0.99028 0.0
S572 S 0.455 0.37061 0.00247 0.0
N573 N 0.46772 0.37404 0.09744 0.0
N574 N 0.47491 0.37882 0.93081 0.0
C575 C 0.49319 0.38491 0.98319 0.0
C576 C 0.48929 0.38228 0.07338 0.0
C577 C 0.8578 0.27123 0.34274 0.0
C578 C 0.87461 0.25426 0.36801 0.0
C579 C 0.85349 0.2759 0.25488 0.0
C580 C 0.86547 0.26334 0.19006 0.0
H581 H 0.84723 0.28027 0.39057 0.0
H582 H 0.8402 0.28879 0.2376 0.0
S583 S 0.91312 0.21938 0.22215 0.0
N584 N 0.90481 0.22666 0.32076 0.0
N585 N 0.89625 0.23494 0.15658 0.0
C586 C 0.88282 0.24698 0.21454 0.0
C587 C 0.88746 0.24253 0.30331 0.0
C588 C 0.01736 0.37595 0.43296 0.0
C589 C 0.00271 0.38551 0.36868 0.0
C590 C 0.01328 0.38043 0.52036 0.0
C591 C 0.99427 0.39456 0.54737 0.0
H592 H 0.03237 0.36511 0.41551 0.0
H593 H 0.02511 0.37257 0.56719 0.0
S594 S 0.95139 0.42495 0.40522 0.0
N595 N 0.96914 0.41093 0.33791 0.0
N596 N 0.96077 0.4184 0.50335 0.0
C597 C 0.97924 0.40404 0.48419 0.0
C598 C 0.98363 0.39977 0.39452 0.0
C599 C 0.85436 0.7583 0.66431 0.0
C600 C 0.86698 0.74256 0.61119 0.0
C601 C 0.85038 0.75343 0.75181 0.0
C602 C 0.85878 0.73255 0.78995 0.0
H603 H 0.84803 0.77491 0.63856 0.0
H604 H 0.84125 0.76649 0.79046 0.0
S605 S 0.89273 0.68536 0.67898 0.0
N606 N 0.88792 0.70525 0.60316 0.0
N607 N 0.87974 0.69559 0.76679 0.0
C608 C 0.87057 0.71615 0.7367 0.0
C609 C 0.87487 0.72128 0.64755 0.0
C610 C 0.49308 0.61839 0.92149 0.0
C611 C 0.51043 0.61199 0.86101 0.0
C612 C 0.49659 0.61513 0.00992 0.0
C613 C 0.51766 0.60539 0.0419 0.0
H614 H 0.47647 0.62587 0.90021 0.0
H615 H 0.48265 0.62056 0.05354 0.0
S616 S 0.5681 0.58418 0.9104 0.0
N617 N 0.54894 0.59409 0.83871 0.0
N618 N 0.55599 0.58879 0.00601 0.0
C619 C 0.53527 0.59894 0.98232 0.0
C620 C 0.53155 0.60203 0.89161 0.0
C621 C 0.65865 0.2767 0.24157 0.0
C622 C 0.64723 0.26332 0.3055 0.0
C623 C 0.65519 0.27172 0.1535 0.0
C624 C 0.63985 0.25353 0.12723 0.0
H625 H 0.6709 0.29051 0.25976 0.0
H626 H 0.66529 0.28151 0.10627 0.0
S627 S 0.60305 0.21603 0.26979 0.0
N628 N 0.61831 0.23279 0.33667 0.0
N629 N 0.61148 0.22382 0.17186 0.0
C630 C 0.6275 0.24091 0.19077 0.0
C631 C 0.63123 0.24574 0.27979 0.0
C632 C 0.35225 0.25276 0.25264 0.0
C633 C 0.36345 0.23307 0.28979 0.0
C634 C 0.35535 0.25836 0.16524 0.0
C635 C 0.36967 0.24448 0.11112 0.0
H636 H 0.3416 0.26444 0.29198 0.0
H637 H 0.34689 0.27409 0.14026 0.0
S638 S 0.40265 0.19078 0.17507 0.0
N639 N 0.38891 0.19911 0.26405 0.0
N640 N 0.39503 0.2101 0.10037 0.0
C641 C 0.38032 0.22429 0.14622 0.0
C642 C 0.3771 0.21846 0.23536 0.0
C643 C 0.13663 0.77595 0.66224 0.0
C644 C 0.1442 0.75469 0.62466 0.0
C645 C 0.14109 0.78087 0.74974 0.0
C646 C 0.15323 0.76468 0.80288 0.0
H647 H 0.12617 0.78832 0.62522 0.0
H648 H 0.13392 0.79697 0.77678 0.0
S649 S 0.17979 0.7081 0.73151 0.0
N650 N 0.16666 0.71855 0.6444 0.0
N651 N 0.17494 0.72771 0.80831 0.0
C652 C 0.1621 0.74403 0.76441 0.0
C653 C 0.15756 0.73905 0.67557 0.0
C654 C 0.13184 0.2275 0.34746 0.0
C655 C 0.14532 0.24559 0.38492 0.0
C656 C 0.1341 0.22204 0.25949 0.0
C657 C 0.14979 0.2346 0.20583 0.0
H658 H 0.11862 0.2183 0.38504 0.0
H659 H 0.12257 0.20868 0.23268 0.0
S660 S 0.19152 0.28123 0.27603 0.0
N661 N 0.17672 0.27429 0.3643 0.0
N662 N 0.18081 0.26418 0.19898 0.0
C663 C 0.16432 0.2518 0.24381 0.0
C664 C 0.16207 0.25729 0.33329 0.0
C665 C 0.35205 0.77743 0.78637 0.0
C666 C 0.36285 0.76358 0.7222 0.0
C667 C 0.35628 0.77302 0.87445 0.0
C668 C 0.37177 0.75494 0.90045 0.0
H669 H 0.3397 0.79117 0.76849 0.0
H670 H 0.34665 0.78315 0.9221 0.0
S671 S 0.40738 0.71656 0.7572 0.0
N672 N 0.39159 0.73289 0.69058 0.0
N673 N 0.39973 0.72496 0.85528 0.0
C674 C 0.38357 0.74194 0.83664 0.0
C675 C 0.3791 0.74619 0.74766 0.0
C676 C 0.47783 0.11909 0.01301 0.0
C677 C 0.49146 0.10409 0.96022 0.0
C678 C 0.4833 0.12231 0.10071 0.0
C679 C 0.50245 0.11048 0.13875 0.0
H680 H 0.46361 0.12942 0.98549 0.0
H681 H 0.4732 0.13503 0.13749 0.0
S682 S 0.54127 0.06649 0.03187 0.0
N683 N 0.52332 0.07547 0.95462 0.0
N684 N 0.53338 0.08119 0.1193 0.0
C685 C 0.51527 0.09436 0.08786 0.0
C686 C 0.5098 0.0912 0.99872 0.0
C687 C 0.02699 0.89663 0.59493 0.0
C688 C 0.00741 0.88309 0.62121 0.0
C689 C 0.03189 0.90021 0.50689 0.0
C690 C 0.01704 0.89083 0.44287 0.0
H691 H 0.03809 0.90521 0.64222 0.0
H692 H 0.04694 0.91092 0.48888 0.0
S693 S 0.96519 0.85202 0.47796 0.0
N694 N 0.97443 0.85866 0.576 0.0
N695 N 0.98322 0.86586 0.41135 0.0
C696 C 0.99785 0.87676 0.46841 0.0
C697 C 0.99312 0.87283 0.5574 0.0
C698 C 0.50798 0.90443 0.01968 0.0
C699 C 0.48837 0.8932 0.05736 0.0
C700 C 0.51328 0.90149 0.932 0.0
C701 C 0.49918 0.8873 0.87826 0.0
H702 H 0.5198 0.91499 0.05878 0.0
H703 H 0.52894 0.90996 0.90648 0.0
S704 S 0.4457 0.8542 0.94398 0.0
N705 N 0.45433 0.86779 0.03284 0.0
N706 N 0.46475 0.86196 0.8685 0.0
C707 C 0.47909 0.8766 0.914 0.0
C708 C 0.47356 0.87966 0.00342 0.0
C709 C 0.02263 0.13142 0.40207 0.0
C710 C 0.00741 0.11495 0.36391 0.0
C711 C 0.02644 0.13134 0.49144 0.0
C712 C 0.01535 0.11462 0.54525 0.0
H713 H 0.03056 0.14525 0.36348 0.0
H714 H 0.03748 0.14503 0.51886 0.0
S715 S 0.97638 0.06579 0.47354 0.0
N716 N 0.98297 0.08019 0.38402 0.0
N717 N 0.99037 0.07972 0.55197 0.0
C718 C 0.00141 0.09703 0.50662 0.0
C719 C 0.99731 0.09733 0.41585 0.0
C720 C 0.98994 0.51431 0.96727 0.0
C721 C 0.00725 0.52405 0.0218 0.0
C722 C 0.99043 0.49035 0.94461 0.0
C723 C 0.00817 0.47539 0.97624 0.0
H724 H 0.97596 0.52534 0.94189 0.0
H725 H 0.97666 0.4834 0.90328 0.0
S726 S 0.0581 0.49247 0.11754 0.0
N727 N 0.04302 0.51714 0.10415 0.0
N728 N 0.04382 0.47202 0.06239 0.0
C729 C 0.02563 0.48494 0.0303 0.0
C730 C 0.02517 0.50931 0.05311 0.0
C731 C 0.7656 0.76655 0.18455 0.0
C732 C 0.78056 0.74936 0.22004 0.0
C733 C 0.74157 0.76716 0.20602 0.0
C734 C 0.73177 0.7506 0.2635 0.0
H735 H 0.7726 0.77978 0.14103 0.0
H736 H 0.73056 0.78074 0.17773 0.0
S737 S 0.76332 0.70113 0.36884 0.0
N738 N 0.78387 0.71488 0.31236 0.0
N739 N 0.73861 0.71587 0.35185 0.0
C740 C 0.74651 0.73316 0.29839 0.0
C741 C 0.77095 0.73258 0.27677 0.0
C742 C 0.50352 0.5078 0.4183 0.0
C743 C 0.50326 0.52581 0.48067 0.0
C744 C 0.50247 0.48392 0.44153 0.0
C745 C 0.50413 0.47641 0.52827 0.0
H746 H 0.50476 0.51176 0.35043 0.0
H747 H 0.50049 0.47144 0.38962 0.0
S748 S 0.50197 0.51641 0.71842 0.0
N749 N 0.49886 0.53395 0.63441 0.0
N750 N 0.50607 0.48991 0.67744 0.0
C751 C 0.50431 0.4943 0.59159 0.0
C752 C 0.50184 0.51862 0.56795 0.0
C753 C 0.76668 0.23273 0.79657 0.0
C754 C 0.78144 0.25058 0.76438 0.0
C755 C 0.74255 0.23238 0.77646 0.0
C756 C 0.73244 0.24993 0.72389 0.0
H757 H 0.7739 0.21881 0.83657 0.0
H758 H 0.73169 0.21832 0.80227 0.0
S759 S 0.76342 0.30109 0.62751 0.0
N760 N 0.78425 0.28655 0.67977 0.0
N761 N 0.73883 0.286 0.64264 0.0
C762 C 0.747 0.26793 0.69189 0.0
C763 C 0.77153 0.26825 0.71218 0.0
C764 C 0.24177 0.26712 0.71785 0.0
C765 C 0.23255 0.25023 0.77537 0.0
C766 C 0.26557 0.26665 0.69299 0.0
C767 C 0.28092 0.24938 0.72547 0.0
H768 H 0.23043 0.28073 0.69157 0.0
H769 H 0.27211 0.28008 0.64932 0.0
S770 S 0.26538 0.20077 0.87522 0.0
N771 N 0.24044 0.21538 0.86181 0.0
N772 N 0.2853 0.21474 0.81644 0.0
C773 C 0.27194 0.23241 0.78291 0.0
C774 C 0.24771 0.23281 0.80778 0.0
C775 C 0.24593 0.73306 0.21429 0.0
C776 C 0.23069 0.75044 0.24685 0.0
C777 C 0.26974 0.73247 0.23879 0.0
C778 C 0.27907 0.74931 0.29625 0.0
H779 H 0.23932 0.7197 0.17046 0.0
H780 H 0.28102 0.71885 0.21219 0.0
S781 S 0.24662 0.79905 0.39605 0.0
N782 N 0.22659 0.78518 0.33751 0.0
N783 N 0.27144 0.78422 0.38272 0.0
C784 C 0.26401 0.7668 0.32894 0.0
C785 C 0.23979 0.76735 0.30425 0.0
C786 C 0.49117 0.00945 0.56215 0.0
C787 C 0.50886 0.02441 0.53004 0.0
C788 C 0.49071 0.98547 0.53993 0.0
C789 C 0.50787 0.97576 0.48467 0.0
H790 H 0.47741 0.01642 0.60352 0.0
H791 H 0.47681 0.97443 0.56587 0.0
S792 S 0.55876 0.00718 0.38851 0.0
N793 N 0.54461 0.02765 0.4441 0.0
N794 N 0.54355 0.98257 0.4017 0.0
C795 C 0.52579 0.99045 0.45312 0.0
C796 C 0.52637 0.0148 0.47616 0.0
C797 C 0.02229 0.99009 0.04932 0.0
C798 C 0.00413 0.97546 0.01882 0.0
C799 C 0.02299 0.0141 0.02736 0.0
C800 C 0.00549 0.02419 0.97458 0.0
H801 H 0.03625 0.98284 0.08906 0.0
H802 H 0.03731 0.02487 0.05171 0.0
S803 S 0.95352 0.9936 0.8826 0.0
N804 N 0.96783 0.97283 0.93601 0.0
N805 N 0.96908 0.018 0.89525 0.0
C806 C 0.98712 0.0098 0.9446 0.0
C807 C 0.98642 0.9854 0.96682 0.0
C808 C 0.0884 0.68219 0.2061 0.0
C809 C 0.10003 0.69238 0.13482 0.0
C810 C 0.0712 0.66469 0.19513 0.0
C811 C 0.06475 0.6567 0.11235 0.0
H812 H 0.0921 0.68819 0.27113 0.0
H813 H 0.06229 0.65804 0.25209 0.0
S814 S 0.09158 0.67572 0.90464 0.0
N815 N 0.10515 0.6917 0.97857 0.0
N816 N 0.0728 0.65894 0.9581 0.0
C817 C 0.07703 0.66589 0.0407 0.0
C818 C 0.09466 0.68365 0.05187 0.0
C819 C 0.57124 0.83749 0.30837 0.0
C820 C 0.56165 0.84174 0.39093 0.0
C821 C 0.58868 0.82027 0.29534 0.0
C822 C 0.59738 0.80665 0.36438 0.0
H823 H 0.56488 0.84717 0.25273 0.0
H824 H 0.59512 0.81739 0.2303 0.0
S825 S 0.57857 0.81105 0.59393 0.0
N826 N 0.56268 0.83109 0.54334 0.0
N827 N 0.59529 0.7989 0.51894 0.0
C828 C 0.58842 0.81114 0.44771 0.0
C829 C 0.57063 0.82861 0.46094 0.0
C830 C 0.44217 0.32834 0.53298 0.0
C831 C 0.44704 0.34422 0.60068 0.0
C832 C 0.42461 0.311 0.54139 0.0
C833 C 0.41138 0.30884 0.61796 0.0
H834 H 0.45264 0.32861 0.47444 0.0
H835 H 0.42223 0.29849 0.48924 0.0
S836 S 0.41436 0.3484 0.80856 0.0
N837 N 0.43496 0.3584 0.74273 0.0
N838 N 0.4023 0.32575 0.75825 0.0
C839 C 0.41499 0.32553 0.68372 0.0
C840 C 0.43271 0.34323 0.67514 0.0
C841 C 0.94499 0.16701 0.7938 0.0
C842 C 0.94913 0.15646 0.87459 0.0
C843 C 0.92774 0.18452 0.78368 0.0
C844 C 0.91383 0.19215 0.85387 0.0
H845 H 0.95578 0.16242 0.73851 0.0
H846 H 0.92588 0.19264 0.72071 0.0
S847 S 0.91532 0.16743 0.07612 0.0
N848 N 0.93623 0.15305 0.02391 0.0
N849 N 0.90379 0.18582 0.00512 0.0
C850 C 0.91688 0.18072 0.93392 0.0
C851 C 0.93452 0.16295 0.94421 0.0
C852 C 0.09125 0.3134 0.94945 0.0
C853 C 0.10034 0.30726 0.86785 0.0
C854 C 0.07376 0.33073 0.95824 0.0
C855 C 0.06469 0.34277 0.88588 0.0
H856 H 0.09702 0.30414 0.00689 0.0
H857 H 0.06685 0.3342 0.02225 0.0
S858 S 0.08465 0.33528 0.65866 0.0
N859 N 0.10044 0.31607 0.71401 0.0
N860 N 0.06773 0.34863 0.7303 0.0
C861 C 0.07456 0.33768 0.80434 0.0
C862 C 0.09229 0.31994 0.7954 0.0
C863 C 0.94126 0.82763 0.03504 0.0
C864 C 0.94726 0.84285 0.10362 0.0
C865 C 0.92395 0.81018 0.0448 0.0
C866 C 0.91197 0.80717 0.12359 0.0
H867 H 0.95058 0.82857 0.97404 0.0
H868 H 0.92067 0.79832 0.99123 0.0
S869 S 0.91805 0.84482 0.31835 0.0
N870 N 0.93768 0.85547 0.24988 0.0
N871 N 0.90521 0.82263 0.2679 0.0
C872 C 0.91675 0.82311 0.19098 0.0
C873 C 0.93434 0.84095 0.18108 0.0
C874 C 0.44282 0.66905 0.31203 0.0
C875 C 0.44911 0.65888 0.39165 0.0
C876 C 0.4253 0.68639 0.30671 0.0
C877 C 0.41316 0.69425 0.38071 0.0
H878 H 0.45202 0.66418 0.25334 0.0
H879 H 0.4217 0.69405 0.24398 0.0
S880 S 0.42089 0.67085 0.60323 0.0
N881 N 0.44045 0.6563 0.54502 0.0
N882 N 0.40732 0.68879 0.53545 0.0
C883 C 0.41848 0.68336 0.46032 0.0
C884 C 0.4365 0.66576 0.46569 0.0
C885 C 0.58635 0.1841 0.71469 0.0
C886 C 0.60003 0.19174 0.64397 0.0
C887 C 0.5691 0.16658 0.70522 0.0
C888 C 0.56471 0.15602 0.62457 0.0
H889 H 0.58837 0.19226 0.77754 0.0
H890 H 0.55847 0.16202 0.76095 0.0
S891 S 0.598 0.16682 0.42199 0.0
N892 N 0.60971 0.18528 0.49242 0.0
N893 N 0.57719 0.1525 0.47493 0.0
C894 C 0.57911 0.16247 0.55445 0.0
C895 C 0.59678 0.18025 0.56406 0.0
C896 C 0.93825 0.33126 0.95047 0.0
C897 C 0.94898 0.34345 0.88178 0.0
C898 C 0.92102 0.314 0.93541 0.0
C899 C 0.91382 0.30803 0.85094 0.0
H900 H 0.94365 0.33453 0.0165 0.0
H901 H 0.91393 0.3047 0.99076 0.0
S902 S 0.93441 0.33649 0.64857 0.0
N903 N 0.94955 0.34964 0.72576 0.0
N904 N 0.91737 0.31716 0.69807 0.0
C905 C 0.92354 0.32085 0.78184 0.0
C906 C 0.94102 0.33855 0.79709 0.0
C907 C 0.43713 0.16707 0.54838 0.0
C908 C 0.44966 0.15785 0.61909 0.0
C909 C 0.41969 0.18433 0.55973 0.0
C910 C 0.41402 0.19322 0.64231 0.0
H911 H 0.44113 0.1613 0.48328 0.0
H912 H 0.4111 0.19122 0.5026 0.0
S913 S 0.44064 0.17405 0.84991 0.0
N914 N 0.45445 0.1584 0.77566 0.0
N915 N 0.42153 0.19046 0.79667 0.0
C916 C 0.42578 0.18354 0.714 0.0
C917 C 0.4436 0.16598 0.70249 0.0
C918 C 0.59491 0.68402 0.42425 0.0
C919 C 0.60017 0.69193 0.34002 0.0
C920 C 0.57751 0.667 0.43952 0.0
C921 C 0.56456 0.65697 0.37131 0.0
H922 H 0.60366 0.69164 0.47979 0.0
H923 H 0.57376 0.66224 0.50588 0.0
S924 S 0.57338 0.66922 0.13747 0.0
N925 N 0.59243 0.68663 0.18673 0.0
N926 N 0.55969 0.65471 0.2151 0.0
C927 C 0.57052 0.66366 0.28624 0.0
C928 C 0.5883 0.68109 0.27072 0.0
C929 C 0.07083 0.83748 0.18665 0.0
C930 C 0.06286 0.84246 0.1022 0.0
C931 C 0.08802 0.82018 0.20244 0.0
C932 C 0.0981 0.80718 0.13447 0.0
H933 H 0.0633 0.84653 0.24176 0.0
H934 H 0.09307 0.8167 0.26869 0.0
S935 S 0.08438 0.81419 0.90057 0.0
N936 N 0.06731 0.83362 0.94935 0.0
N937 N 0.09932 0.80116 0.97847 0.0
C938 C 0.09088 0.81256 0.04932 0.0
C939 C 0.07338 0.83016 0.03335 0.0
C940 C 0.92784 0.68409 0.20215 0.0
C941 C 0.91299 0.69107 0.13394 0.0
C942 C 0.94543 0.667 0.18994 0.0
C943 C 0.94901 0.65623 0.1089 0.0
H944 H 0.92648 0.69244 0.2649 0.0
H945 H 0.95689 0.6629 0.24387 0.0
S946 S 0.91282 0.6655 0.91254 0.0
N947 N 0.90157 0.68381 0.98447 0.0
N948 N 0.93466 0.65189 0.96215 0.0
C949 C 0.93353 0.66207 0.0415 0.0
C950 C 0.91554 0.67939 0.05387 0.0
C951 C 0.08973 0.18836 0.94455 0.0
C952 C 0.09995 0.19173 0.86239 0.0
C953 C 0.0727 0.17085 0.95895 0.0
C954 C 0.06524 0.15588 0.89191 0.0
H955 H 0.09418 0.19993 0.99777 0.0
H956 H 0.06474 0.16969 0.02243 0.0
S957 S 0.08904 0.15522 0.66767 0.0
N958 N 0.10302 0.17721 0.71521 0.0
N959 N 0.07144 0.14401 0.74205 0.0
C960 C 0.07639 0.15816 0.8106 0.0
C961 C 0.09357 0.17616 0.79586 0.0
C962 C 0.59365 0.3157 0.56634 0.0
C963 C 0.59878 0.30757 0.65037 0.0
C964 C 0.57622 0.33274 0.55142 0.0
C965 C 0.56313 0.34253 0.61981 0.0
H966 H 0.60267 0.30837 0.51078 0.0
H967 H 0.57264 0.33781 0.48525 0.0
S968 S 0.57104 0.32896 0.85322 0.0
N969 N 0.59036 0.31191 0.80367 0.0
N970 N 0.55764 0.34386 0.77596 0.0
C971 C 0.56879 0.33537 0.70469 0.0
C972 C 0.58657 0.31795 0.71985 0.0
C973 C 0.43942 0.83736 0.32452 0.0
C974 C 0.44618 0.84486 0.40776 0.0
C975 C 0.42196 0.82019 0.31259 0.0
C976 C 0.41041 0.80975 0.38335 0.0
H977 H 0.4483 0.84409 0.26769 0.0
H978 H 0.41813 0.81451 0.24727 0.0
S979 S 0.41939 0.82531 0.61462 0.0
N980 N 0.43833 0.84209 0.56188 0.0
N981 N 0.40553 0.80986 0.53992 0.0
C982 C 0.41602 0.81807 0.46688 0.0
C983 C 0.43388 0.83557 0.47896 0.0
loop_
_geom_bond_atom_site_label_1
_geom_bond_atom_site_label_2
_geom_bond_distance
_geom_bond_site_symmetry_2
_ccdc_geom_bond_type
Co0 O3 1.970 1_455 S
Co0 N17 1.989 . S
Co0 O25 1.967 . S
Co0 O32 1.920 . S
Co1 O4 1.966 1_456 S
Co1 N10 2.022 . S
Co1 N18 1.993 1_556 S
Co1 O26 1.941 1_556 S
C2 O3 1.258 . S
C2 O4 1.263 . S
O3 Co0 1.970 1_655 S
O3 C2 1.258 . S
O4 Co1 1.966 1_654 S
O4 C2 1.263 . S
C5 O6 1.235 . S
C5 O32 1.289 1_655 S
O6 C5 1.235 . S
C7 C9 1.402 1_655 S
C7 N10 1.351 1_655 S
C7 C12 1.501 . S
C8 C9 1.383 . S
C8 N11 1.341 . S
C9 C7 1.402 1_455 S
C9 C8 1.383 . S
N10 Co1 2.022 . S
N10 C7 1.351 1_455 S
N10 N11 1.365 . S
N11 C8 1.341 . S
N11 N10 1.365 . S
N11 H31 0.862 . S
C12 C7 1.501 . S
C12 H13 0.961 . S
C12 H14 0.961 . S
C12 H15 0.960 . S
H13 C12 0.961 . S
H14 C12 0.961 . S
H15 C12 0.960 . S
C16 N17 1.342 . S
C16 C20 1.401 . S
C16 C21 1.499 . S
N17 Co0 1.989 . S
N17 C16 1.342 . S
N17 N18 1.388 . S
N18 Co1 1.993 1_554 S
N18 N17 1.388 . S
N18 C19 1.346 1_554 S
C19 N18 1.346 1_556 S
C19 C20 1.396 1_556 S
C19 C29 1.510 . S
C20 C16 1.401 . S
C20 C19 1.396 1_554 S
C21 C16 1.499 . S
C21 H22 0.959 . S
C21 H23 0.960 . S
C21 H24 0.961 . S
H22 C21 0.959 . S
H23 C21 0.960 . S
H24 C21 0.961 . S
O25 Co0 1.967 . S
O25 C33 1.258 . S
O26 Co1 1.941 1_554 S
O26 C33 1.266 . S
H27 C29 0.959 . S
H28 C29 0.927 1_655 S
C29 C19 1.510 . S
C29 H27 0.959 . S
C29 H28 0.927 1_455 S
C29 H30 0.960 . S
H30 C29 0.960 . S
H31 N11 0.862 . S
O32 Co0 1.920 . S
O32 C5 1.289 1_455 S
C33 O25 1.258 . S
C33 O26 1.266 . S
Co34 O37 1.970 . S
Co34 N51 1.989 . S
Co34 O59 1.967 . S
Co34 O66 1.920 . S
Co35 O38 1.966 . S
Co35 N44 2.022 . S
Co35 N52 1.993 . S
Co35 O60 1.941 . S
C36 O37 1.258 . S
C36 O38 1.263 . S
O37 Co34 1.970 . S
O37 C36 1.258 . S
O38 Co35 1.966 . S
O38 C36 1.263 . S
C39 O40 1.235 . S
C39 O66 1.289 . S
O40 C39 1.235 . S
C41 C43 1.400 1_554 S
C41 N44 1.351 . S
C41 C46 1.501 . S
C42 C43 1.387 . S
C42 N45 1.341 1_556 S
C43 C41 1.400 1_556 S
C43 C42 1.387 . S
N44 Co35 2.022 . S
N44 C41 1.351 . S
N44 N45 1.365 . S
N45 C42 1.341 1_554 S
N45 N44 1.365 . S
N45 H65 0.862 . S
C46 C41 1.501 . S
C46 H47 0.961 . S
C46 H48 0.961 . S
C46 H49 0.960 . S
H47 C46 0.961 . S
H48 C46 0.961 . S
H49 C46 0.960 . S
C50 N51 1.342 . S
C50 C54 1.401 . S
C50 C55 1.499 . S
N51 Co34 1.989 . S
N51 C50 1.342 . S
N51 N52 1.388 . S
N52 Co35 1.993 . S
N52 N51 1.388 . S
N52 C53 1.346 . S
C53 N52 1.346 . S
C53 C54 1.396 . S
C53 C63 1.510 . S
C54 C50 1.401 . S
C54 C53 1.396 . S
C55 C50 1.499 . S
C55 H56 0.959 . S
C55 H57 0.960 . S
C55 H58 0.961 . S
H56 C55 0.959 . S
H57 C55 0.960 . S
H58 C55 0.961 . S
O59 Co34 1.967 . S
O59 C67 1.258 . S
O60 Co35 1.941 . S
O60 C67 1.266 . S
H61 C63 0.959 . S
H62 C63 0.961 . S
C63 C53 1.510 . S
C63 H61 0.959 . S
C63 H62 0.961 . S
C63 H64 0.960 . S
H64 C63 0.960 . S
H65 N45 0.862 . S
O66 Co34 1.920 . S
O66 C39 1.289 . S
C67 O59 1.258 . S
C67 O60 1.266 . S
Co68 O71 1.970 . S
Co68 N85 1.989 . S
Co68 O93 1.967 . S
Co68 O100 1.920 . S
Co69 O72 1.966 . S
Co69 N78 2.022 . S
Co69 N86 1.993 . S
Co69 O94 1.941 . S
C70 O71 1.258 . S
C70 O72 1.263 . S
O71 Co68 1.970 . S
O71 C70 1.258 . S
O72 Co69 1.966 . S
O72 C70 1.263 . S
C73 O74 1.235 . S
C73 O100 1.289 . S
O74 C73 1.235 . S
C75 C77 1.400 . S
C75 N78 1.351 . S
C75 C80 1.501 . S
C76 C77 1.387 . S
C76 N79 1.341 . S
C77 C75 1.400 . S
C77 C76 1.387 . S
N78 Co69 2.022 . S
N78 C75 1.351 . S
N78 N79 1.365 . S
N79 C76 1.341 . S
N79 N78 1.365 . S
N79 H99 0.862 . S
C80 C75 1.501 . S
C80 H81 0.961 . S
C80 H82 0.961 . S
C80 H83 0.960 . S
H81 C80 0.961 . S
H82 C80 0.961 . S
H83 C80 0.960 . S
C84 N85 1.342 . S
C84 C88 1.401 . S
C84 C89 1.499 . S
N85 Co68 1.989 . S
N85 C84 1.342 . S
N85 N86 1.388 . S
N86 Co69 1.993 . S
N86 N85 1.388 . S
N86 C87 1.346 . S
C87 N86 1.346 . S
C87 C88 1.396 . S
C87 C97 1.510 . S
C88 C84 1.401 . S
C88 C87 1.396 . S
C89 C84 1.499 . S
C89 H90 0.959 . S
C89 H91 0.960 . S
C89 H92 0.961 . S
H90 C89 0.959 . S
H91 C89 0.960 . S
H92 C89 0.961 . S
O93 Co68 1.967 . S
O93 C101 1.258 . S
O94 Co69 1.941 . S
O94 C101 1.266 . S
H95 C97 0.959 . S
H96 C97 0.961 . S
C97 C87 1.510 . S
C97 H95 0.959 . S
C97 H96 0.961 . S
C97 H98 0.960 . S
H98 C97 0.960 . S
H99 N79 0.862 . S
O100 Co68 1.920 . S
O100 C73 1.289 . S
C101 O93 1.258 . S
C101 O94 1.266 . S
Co102 O105 1.970 . S
Co102 N119 1.989 . S
Co102 O127 1.967 . S
Co102 O134 1.920 1_556 S
Co103 O106 1.966 . S
Co103 N112 2.022 . S
Co103 N120 1.993 . S
Co103 O128 1.941 . S
C104 O105 1.258 . S
C104 O106 1.263 . S
O105 Co102 1.970 . S
O105 C104 1.258 . S
O106 Co103 1.966 . S
O106 C104 1.263 . S
C107 O108 1.235 . S
C107 O134 1.289 . S
O108 C107 1.235 . S
C109 C111 1.400 . S
C109 N112 1.351 . S
C109 C114 1.501 . S
C110 C111 1.387 . S
C110 N113 1.341 . S
C111 C109 1.400 . S
C111 C110 1.387 . S
N112 Co103 2.022 . S
N112 C109 1.351 . S
N112 N113 1.365 . S
N113 C110 1.341 . S
N113 N112 1.365 . S
N113 H133 0.862 . S
C114 C109 1.501 . S
C114 H115 0.961 . S
C114 H116 0.961 . S
C114 H117 0.960 . S
H115 C114 0.961 . S
H116 C114 0.961 . S
H117 C114 0.960 . S
C118 N119 1.342 . S
C118 C122 1.401 . S
C118 C123 1.499 . S
N119 Co102 1.989 . S
N119 C118 1.342 . S
N119 N120 1.388 . S
N120 Co103 1.993 . S
N120 N119 1.388 . S
N120 C121 1.346 . S
C121 N120 1.346 . S
C121 C122 1.396 . S
C121 C131 1.510 . S
C122 C118 1.401 . S
C122 C121 1.396 . S
C123 C118 1.499 . S
C123 H124 0.959 1_556 S
C123 H125 0.960 . S
C123 H126 0.961 . S
H124 C123 0.959 1_554 S
H125 C123 0.960 . S
H126 C123 0.961 . S
O127 Co102 1.967 . S
O127 C135 1.258 . S
O128 Co103 1.941 . S
O128 C135 1.266 . S
H129 C131 0.959 . S
H130 C131 0.961 . S
C131 C121 1.510 . S
C131 H129 0.959 . S
C131 H130 0.961 . S
C131 H132 0.960 . S
H132 C131 0.960 . S
H133 N113 0.862 . S
O134 Co102 1.920 1_554 S
O134 C107 1.289 . S
C135 O127 1.258 . S
C135 O128 1.266 . S
Co136 O139 1.970 1_455 S
Co136 N153 1.989 . S
Co136 O161 1.967 . S
Co136 O168 1.920 . S
Co137 O140 1.966 1_454 S
Co137 N146 2.022 . S
Co137 N154 1.993 1_554 S
Co137 O162 1.941 1_554 S
C138 O139 1.258 . S
C138 O140 1.263 . S
O139 Co136 1.970 1_655 S
O139 C138 1.258 . S
O140 Co137 1.966 1_656 S
O140 C138 1.263 . S
C141 O142 1.235 . S
C141 O168 1.289 1_655 S
O142 C141 1.235 . S
C143 C145 1.402 1_655 S
C143 N146 1.351 1_655 S
C143 C148 1.501 . S
C144 C145 1.383 . S
C144 N147 1.341 . S
C145 C143 1.402 1_455 S
C145 C144 1.383 . S
N146 Co137 2.022 . S
N146 C143 1.351 1_455 S
N146 N147 1.365 . S
N147 C144 1.341 . S
N147 N146 1.365 . S
N147 H167 0.862 . S
C148 C143 1.501 . S
C148 H149 0.961 . S
C148 H150 0.961 . S
C148 H151 0.960 . S
H149 C148 0.961 . S
H150 C148 0.961 . S
H151 C148 0.960 . S
C152 N153 1.342 . S
C152 C156 1.401 . S
C152 C157 1.499 . S
N153 Co136 1.989 . S
N153 C152 1.342 . S
N153 N154 1.388 . S
N154 Co137 1.993 1_556 S
N154 N153 1.388 . S
N154 C155 1.346 1_556 S
C155 N154 1.346 1_554 S
C155 C156 1.396 1_554 S
C155 C165 1.510 . S
C156 C152 1.401 . S
C156 C155 1.396 1_556 S
C157 C152 1.499 . S
C157 H158 0.959 . S
C157 H159 0.960 . S
C157 H160 0.961 . S
H158 C157 0.959 . S
H159 C157 0.960 . S
H160 C157 0.961 . S
O161 Co136 1.967 . S
O161 C169 1.258 . S
O162 Co137 1.941 1_556 S
O162 C169 1.266 . S
H163 C165 0.959 . S
H164 C165 0.927 1_655 S
C165 C155 1.510 . S
C165 H163 0.959 . S
C165 H164 0.927 1_455 S
C165 H166 0.960 . S
H166 C165 0.960 . S
H167 N147 0.862 . S
O168 Co136 1.920 . S
O168 C141 1.289 1_455 S
C169 O161 1.258 . S
C169 O162 1.266 . S
Co170 O173 1.970 . S
Co170 N187 1.989 . S
Co170 O195 1.967 . S
Co170 O202 1.920 1_554 S
Co171 O174 1.966 . S
Co171 N180 2.022 . S
Co171 N188 1.993 . S
Co171 O196 1.941 . S
C172 O173 1.258 . S
C172 O174 1.263 . S
O173 Co170 1.970 . S
O173 C172 1.258 . S
O174 Co171 1.966 . S
O174 C172 1.263 . S
C175 O176 1.235 . S
C175 O202 1.289 . S
O176 C175 1.235 . S
C177 C179 1.400 . S
C177 N180 1.351 . S
C177 C182 1.501 . S
C178 C179 1.387 . S
C178 N181 1.341 . S
C179 C177 1.400 . S
C179 C178 1.387 . S
N180 Co171 2.022 . S
N180 C177 1.351 . S
N180 N181 1.365 . S
N181 C178 1.341 . S
N181 N180 1.365 . S
N181 H201 0.862 . S
C182 C177 1.501 . S
C182 H183 0.961 . S
C182 H184 0.961 . S
C182 H185 0.960 . S
H183 C182 0.961 . S
H184 C182 0.961 . S
H185 C182 0.960 . S
C186 N187 1.342 . S
C186 C190 1.401 . S
C186 C191 1.499 . S
N187 Co170 1.989 . S
N187 C186 1.342 . S
N187 N188 1.388 . S
N188 Co171 1.993 . S
N188 N187 1.388 . S
N188 C189 1.346 . S
C189 N188 1.346 . S
C189 C190 1.396 . S
C189 C199 1.510 . S
C190 C186 1.401 . S
C190 C189 1.396 . S
C191 C186 1.499 . S
C191 H192 0.959 1_554 S
C191 H193 0.960 . S
C191 H194 0.961 . S
H192 C191 0.959 1_556 S
H193 C191 0.960 . S
H194 C191 0.961 . S
O195 Co170 1.967 . S
O195 C203 1.258 . S
O196 Co171 1.941 . S
O196 C203 1.266 . S
H197 C199 0.959 . S
H198 C199 0.961 . S
C199 C189 1.510 . S
C199 H197 0.959 . S
C199 H198 0.961 . S
C199 H200 0.960 . S
H200 C199 0.960 . S
H201 N181 0.862 . S
O202 Co170 1.920 1_556 S
O202 C175 1.289 . S
C203 O195 1.258 . S
C203 O196 1.266 . S
Co204 O207 1.970 . S
Co204 N221 1.989 . S
Co204 O229 1.967 . S
Co204 O236 1.920 . S
Co205 O208 1.966 . S
Co205 N214 2.022 . S
Co205 N222 1.993 . S
Co205 O230 1.941 . S
C206 O207 1.258 . S
C206 O208 1.263 . S
O207 Co204 1.970 . S
O207 C206 1.258 . S
O208 Co205 1.966 . S
O208 C206 1.263 . S
C209 O210 1.235 . S
C209 O236 1.289 . S
O210 C209 1.235 . S
C211 C213 1.400 . S
C211 N214 1.351 . S
C211 C216 1.501 . S
C212 C213 1.387 . S
C212 N215 1.341 . S
C213 C211 1.400 . S
C213 C212 1.387 . S
N214 Co205 2.022 . S
N214 C211 1.351 . S
N214 N215 1.365 . S
N215 C212 1.341 . S
N215 N214 1.365 . S
N215 H235 0.862 . S
C216 C211 1.501 . S
C216 H217 0.961 . S
C216 H218 0.961 . S
C216 H219 0.960 . S
H217 C216 0.961 . S
H218 C216 0.961 . S
H219 C216 0.960 . S
C220 N221 1.342 . S
C220 C224 1.401 . S
C220 C225 1.499 . S
N221 Co204 1.989 . S
N221 C220 1.342 . S
N221 N222 1.388 . S
N222 Co205 1.993 . S
N222 N221 1.388 . S
N222 C223 1.346 . S
C223 N222 1.346 . S
C223 C224 1.396 . S
C223 C233 1.510 . S
C224 C220 1.401 . S
C224 C223 1.396 . S
C225 C220 1.499 . S
C225 H226 0.959 . S
C225 H227 0.960 . S
C225 H228 0.961 . S
H226 C225 0.959 . S
H227 C225 0.960 . S
H228 C225 0.961 . S
O229 Co204 1.967 . S
O229 C237 1.258 . S
O230 Co205 1.941 . S
O230 C237 1.266 . S
H231 C233 0.959 . S
H232 C233 0.961 . S
C233 C223 1.510 . S
C233 H231 0.959 . S
C233 H232 0.961 . S
C233 H234 0.960 . S
H234 C233 0.960 . S
H235 N215 0.862 . S
O236 Co204 1.920 . S
O236 C209 1.289 . S
C237 O229 1.258 . S
C237 O230 1.266 . S
Co238 O241 1.970 . S
Co238 N255 1.989 . S
Co238 O263 1.967 . S
Co238 O270 1.920 . S
Co239 O242 1.966 . S
Co239 N248 2.022 . S
Co239 N256 1.993 . S
Co239 O264 1.941 . S
C240 O241 1.258 . S
C240 O242 1.263 . S
O241 Co238 1.970 . S
O241 C240 1.258 . S
O242 Co239 1.966 . S
O242 C240 1.263 . S
C243 O244 1.235 . S
C243 O270 1.289 . S
O244 C243 1.235 . S
C245 C247 1.400 1_556 S
C245 N248 1.351 . S
C245 C250 1.501 . S
C246 C247 1.387 . S
C246 N249 1.341 1_554 S
C247 C245 1.400 1_554 S
C247 C246 1.387 . S
N248 Co239 2.022 . S
N248 C245 1.351 . S
N248 N249 1.365 . S
N249 C246 1.341 1_556 S
N249 N248 1.365 . S
N249 H269 0.862 . S
C250 C245 1.501 . S
C250 H251 0.961 . S
C250 H252 0.961 . S
C250 H253 0.960 . S
H251 C250 0.961 . S
H252 C250 0.961 . S
H253 C250 0.960 . S
C254 N255 1.342 . S
C254 C258 1.401 . S
C254 C259 1.499 . S
N255 Co238 1.989 . S
N255 C254 1.342 . S
N255 N256 1.388 . S
N256 Co239 1.993 . S
N256 N255 1.388 . S
N256 C257 1.346 . S
C257 N256 1.346 . S
C257 C258 1.396 . S
C257 C267 1.510 . S
C258 C254 1.401 . S
C258 C257 1.396 . S
C259 C254 1.499 . S
C259 H260 0.959 . S
C259 H261 0.960 . S
C259 H262 0.961 . S
H260 C259 0.959 . S
H261 C259 0.960 . S
H262 C259 0.961 . S
O263 Co238 1.967 . S
O263 C271 1.258 . S
O264 Co239 1.941 . S
O264 C271 1.266 . S
H265 C267 0.959 . S
H266 C267 0.961 . S
C267 C257 1.510 . S
C267 H265 0.959 . S
C267 H266 0.961 . S
C267 H268 0.960 . S
H268 C267 0.960 . S
H269 N249 0.862 . S
O270 Co238 1.920 . S
O270 C243 1.289 . S
C271 O263 1.258 . S
C271 O264 1.266 . S
Co272 O275 1.970 . S
Co272 N289 1.989 . S
Co272 O297 1.967 . S
Co272 O304 1.920 . S
Co273 O276 1.966 . S
Co273 N282 2.022 . S
Co273 N290 1.993 . S
Co273 O298 1.941 . S
C274 O275 1.258 . S
C274 O276 1.263 . S
O275 Co272 1.970 . S
O275 C274 1.258 . S
O276 Co273 1.966 . S
O276 C274 1.263 . S
C277 O278 1.235 . S
C277 O304 1.289 . S
O278 C277 1.235 . S
C279 C281 1.400 1_556 S
C279 N282 1.351 . S
C279 C284 1.501 . S
C280 C281 1.387 . S
C280 N283 1.341 1_554 S
C281 C279 1.400 1_554 S
C281 C280 1.387 . S
N282 Co273 2.022 . S
N282 C279 1.351 . S
N282 N283 1.365 . S
N283 C280 1.341 1_556 S
N283 N282 1.365 . S
N283 H303 0.862 . S
C284 C279 1.501 . S
C284 H285 0.961 . S
C284 H286 0.961 . S
C284 H287 0.960 . S
H285 C284 0.961 . S
H286 C284 0.961 . S
H287 C284 0.960 . S
C288 N289 1.342 . S
C288 C292 1.401 . S
C288 C293 1.499 . S
N289 Co272 1.989 . S
N289 C288 1.342 . S
N289 N290 1.388 . S
N290 Co273 1.993 . S
N290 N289 1.388 . S
N290 C291 1.346 . S
C291 N290 1.346 . S
C291 C292 1.396 . S
C291 C301 1.510 . S
C292 C288 1.401 . S
C292 C291 1.396 . S
C293 C288 1.499 . S
C293 H294 0.959 . S
C293 H295 0.960 . S
C293 H296 0.961 . S
H294 C293 0.959 . S
H295 C293 0.960 . S
H296 C293 0.961 . S
O297 Co272 1.967 . S
O297 C305 1.258 . S
O298 Co273 1.941 . S
O298 C305 1.266 . S
H299 C301 0.959 . S
H300 C301 0.961 . S
C301 C291 1.510 . S
C301 H299 0.959 . S
C301 H300 0.961 . S
C301 H302 0.960 . S
H302 C301 0.960 . S
H303 N283 0.862 . S
O304 Co272 1.920 . S
O304 C277 1.289 . S
C305 O297 1.258 . S
C305 O298 1.266 . S
Co306 O309 1.970 . S
Co306 N323 1.989 . S
Co306 O331 1.967 . S
Co306 O338 1.920 1_554 S
Co307 O310 1.966 . S
Co307 N316 2.022 . S
Co307 N324 1.993 . S
Co307 O332 1.941 . S
C308 O309 1.258 . S
C308 O310 1.263 . S
O309 Co306 1.970 . S
O309 C308 1.258 . S
O310 Co307 1.966 . S
O310 C308 1.263 . S
C311 O312 1.235 . S
C311 O338 1.289 . S
O312 C311 1.235 . S
C313 C315 1.400 . S
C313 N316 1.351 . S
C313 C318 1.501 . S
C314 C315 1.387 . S
C314 N317 1.341 . S
C315 C313 1.400 . S
C315 C314 1.387 . S
N316 Co307 2.022 . S
N316 C313 1.351 . S
N316 N317 1.365 . S
N317 C314 1.341 . S
N317 N316 1.365 . S
N317 H337 0.862 . S
C318 C313 1.501 . S
C318 H319 0.961 . S
C318 H320 0.961 . S
C318 H321 0.960 . S
H319 C318 0.961 . S
H320 C318 0.961 . S
H321 C318 0.960 . S
C322 N323 1.342 . S
C322 C326 1.401 . S
C322 C327 1.499 . S
N323 Co306 1.989 . S
N323 C322 1.342 . S
N323 N324 1.388 . S
N324 Co307 1.993 . S
N324 N323 1.388 . S
N324 C325 1.346 . S
C325 N324 1.346 . S
C325 C326 1.396 . S
C325 C335 1.510 . S
C326 C322 1.401 . S
C326 C325 1.396 . S
C327 C322 1.499 . S
C327 H328 0.959 1_554 S
C327 H329 0.960 . S
C327 H330 0.961 . S
H328 C327 0.959 1_556 S
H329 C327 0.960 . S
H330 C327 0.961 . S
O331 Co306 1.967 . S
O331 C339 1.258 . S
O332 Co307 1.941 . S
O332 C339 1.266 . S
H333 C335 0.959 . S
H334 C335 0.961 . S
C335 C325 1.510 . S
C335 H333 0.959 . S
C335 H334 0.961 . S
C335 H336 0.960 . S
H336 C335 0.960 . S
H337 N317 0.862 . S
O338 Co306 1.920 1_556 S
O338 C311 1.289 . S
C339 O331 1.258 . S
C339 O332 1.266 . S
Co340 O343 1.970 . S
Co340 N357 1.989 . S
Co340 O365 1.967 . S
Co340 O372 1.920 1_556 S
Co341 O344 1.966 . S
Co341 N350 2.022 . S
Co341 N358 1.993 . S
Co341 O366 1.941 . S
C342 O343 1.258 . S
C342 O344 1.263 . S
O343 Co340 1.970 . S
O343 C342 1.258 . S
O344 Co341 1.966 . S
O344 C342 1.263 . S
C345 O346 1.235 . S
C345 O372 1.289 . S
O346 C345 1.235 . S
C347 C349 1.400 . S
C347 N350 1.351 . S
C347 C352 1.501 . S
C348 C349 1.387 . S
C348 N351 1.341 . S
C349 C347 1.400 . S
C349 C348 1.387 . S
N350 Co341 2.022 . S
N350 C347 1.351 . S
N350 N351 1.365 . S
N351 C348 1.341 . S
N351 N350 1.365 . S
N351 H371 0.862 . S
C352 C347 1.501 . S
C352 H353 0.961 . S
C352 H354 0.961 . S
C352 H355 0.960 . S
H353 C352 0.961 . S
H354 C352 0.961 . S
H355 C352 0.960 . S
C356 N357 1.342 . S
C356 C360 1.401 . S
C356 C361 1.499 . S
N357 Co340 1.989 . S
N357 C356 1.342 . S
N357 N358 1.388 . S
N358 Co341 1.993 . S
N358 N357 1.388 . S
N358 C359 1.346 . S
C359 N358 1.346 . S
C359 C360 1.396 . S
C359 C369 1.510 . S
C360 C356 1.401 . S
C360 C359 1.396 . S
C361 C356 1.499 . S
C361 H362 0.959 1_556 S
C361 H363 0.960 . S
C361 H364 0.961 . S
H362 C361 0.959 1_554 S
H363 C361 0.960 . S
H364 C361 0.961 . S
O365 Co340 1.967 . S
O365 C373 1.258 . S
O366 Co341 1.941 . S
O366 C373 1.266 . S
H367 C369 0.959 . S
H368 C369 0.961 . S
C369 C359 1.510 . S
C369 H367 0.959 . S
C369 H368 0.961 . S
C369 H370 0.960 . S
H370 C369 0.960 . S
H371 N351 0.862 . S
O372 Co340 1.920 1_554 S
O372 C345 1.289 . S
C373 O365 1.258 . S
C373 O366 1.266 . S
Co374 O377 1.970 . S
Co374 N391 1.989 . S
Co374 O399 1.967 . S
Co374 O406 1.920 . S
Co375 O378 1.966 . S
Co375 N384 2.022 . S
Co375 N392 1.993 . S
Co375 O400 1.941 . S
C376 O377 1.258 . S
C376 O378 1.263 . S
O377 Co374 1.970 . S
O377 C376 1.258 . S
O378 Co375 1.966 . S
O378 C376 1.263 . S
C379 O380 1.235 . S
C379 O406 1.289 . S
O380 C379 1.235 . S
C381 C383 1.400 1_554 S
C381 N384 1.351 . S
C381 C386 1.501 . S
C382 C383 1.387 . S
C382 N385 1.341 1_556 S
C383 C381 1.400 1_556 S
C383 C382 1.387 . S
N384 Co375 2.022 . S
N384 C381 1.351 . S
N384 N385 1.365 . S
N385 C382 1.341 1_554 S
N385 N384 1.365 . S
N385 H405 0.862 . S
C386 C381 1.501 . S
C386 H387 0.961 . S
C386 H388 0.961 . S
C386 H389 0.960 . S
H387 C386 0.961 . S
H388 C386 0.961 . S
H389 C386 0.960 . S
C390 N391 1.342 . S
C390 C394 1.401 . S
C390 C395 1.499 . S
N391 Co374 1.989 . S
N391 C390 1.342 . S
N391 N392 1.388 . S
N392 Co375 1.993 . S
N392 N391 1.388 . S
N392 C393 1.346 . S
C393 N392 1.346 . S
C393 C394 1.396 . S
C393 C403 1.510 . S
C394 C390 1.401 . S
C394 C393 1.396 . S
C395 C390 1.499 . S
C395 H396 0.959 . S
C395 H397 0.960 . S
C395 H398 0.961 . S
H396 C395 0.959 . S
H397 C395 0.960 . S
H398 C395 0.961 . S
O399 Co374 1.967 . S
O399 C407 1.258 . S
O400 Co375 1.941 . S
O400 C407 1.266 . S
H401 C403 0.959 . S
H402 C403 0.961 . S
C403 C393 1.510 . S
C403 H401 0.959 . S
C403 H402 0.961 . S
C403 H404 0.960 . S
H404 C403 0.960 . S
H405 N385 0.862 . S
O406 Co374 1.920 . S
O406 C379 1.289 . S
C407 O399 1.258 . S
C407 O400 1.266 . S
Co408 O411 1.970 . S
Co408 N425 1.989 . S
Co408 O433 1.967 . S
Co408 O440 1.920 . S
Co409 O412 1.966 . S
Co409 N418 2.022 . S
Co409 N426 1.993 . S
Co409 O434 1.941 . S
C410 O411 1.258 . S
C410 O412 1.263 . S
O411 Co408 1.970 . S
O411 C410 1.258 . S
O412 Co409 1.966 . S
O412 C410 1.263 . S
C413 O414 1.235 . S
C413 O440 1.289 . S
O414 C413 1.235 . S
C415 C417 1.400 . S
C415 N418 1.351 . S
C415 C420 1.501 . S
C416 C417 1.387 . S
C416 N419 1.341 . S
C417 C415 1.400 . S
C417 C416 1.387 . S
N418 Co409 2.022 . S
N418 C415 1.351 . S
N418 N419 1.365 . S
N419 C416 1.341 . S
N419 N418 1.365 . S
N419 H439 0.862 . S
C420 C415 1.501 . S
C420 H421 0.961 . S
C420 H422 0.961 . S
C420 H423 0.960 . S
H421 C420 0.961 . S
H422 C420 0.961 . S
H423 C420 0.960 . S
C424 N425 1.342 . S
C424 C428 1.401 . S
C424 C429 1.499 . S
N425 Co408 1.989 . S
N425 C424 1.342 . S
N425 N426 1.388 . S
N426 Co409 1.993 . S
N426 N425 1.388 . S
N426 C427 1.346 . S
C427 N426 1.346 . S
C427 C428 1.396 . S
C427 C437 1.510 . S
C428 C424 1.401 . S
C428 C427 1.396 . S
C429 C424 1.499 . S
C429 H430 0.959 . S
C429 H431 0.960 . S
C429 H432 0.961 . S
H430 C429 0.959 . S
H431 C429 0.960 . S
H432 C429 0.961 . S
O433 Co408 1.967 . S
O433 C441 1.258 . S
O434 Co409 1.941 . S
O434 C441 1.266 . S
H435 C437 0.959 . S
H436 C437 0.961 . S
C437 C427 1.510 . S
C437 H435 0.959 . S
C437 H436 0.961 . S
C437 H438 0.960 . S
H438 C437 0.960 . S
H439 N419 0.862 . S
O440 Co408 1.920 . S
O440 C413 1.289 . S
C441 O433 1.258 . S
C441 O434 1.266 . S
Co442 O445 1.970 . S
Co442 N459 1.989 . S
Co442 O467 1.967 1_455 S
Co442 O474 1.916 1_455 S
Co443 O446 1.966 1_656 S
Co443 N452 2.024 . S
Co443 N460 1.993 1_656 S
Co443 O468 1.941 1_556 S
C444 O445 1.258 . S
C444 O446 1.263 . S
O445 Co442 1.970 . S
O445 C444 1.258 . S
O446 Co443 1.966 1_454 S
O446 C444 1.263 . S
C447 O448 1.235 . S
C447 O474 1.260 1_455 S
O448 C447 1.235 . S
C449 C451 1.400 . S
C449 N452 1.311 1_455 S
C449 C454 1.501 . S
C450 C451 1.387 1_655 S
C450 N453 1.341 . S
C451 C449 1.400 . S
C451 C450 1.387 1_455 S
N452 Co443 2.024 . S
N452 C449 1.311 1_655 S
N452 N453 1.403 . S
N453 C450 1.341 . S
N453 N452 1.403 . S
N453 H473 0.862 . S
C454 C449 1.501 . S
C454 H455 0.961 . S
C454 H456 0.961 . S
C454 H457 0.960 . S
H455 C454 0.961 . S
H456 C454 0.961 . S
H457 C454 0.960 . S
C458 N459 1.342 1_655 S
C458 C462 1.401 . S
C458 C463 1.499 . S
N459 Co442 1.989 . S
N459 C458 1.342 1_455 S
N459 N460 1.388 . S
N460 Co443 1.993 1_454 S
N460 N459 1.388 . S
N460 C461 1.346 1_454 S
C461 N460 1.346 1_656 S
C461 C462 1.396 1_556 S
C461 C471 1.511 . S
C462 C458 1.401 . S
C462 C461 1.396 1_554 S
C463 C458 1.499 . S
C463 H464 0.959 . S
C463 H465 0.960 1_655 S
C463 H466 0.961 . S
H464 C463 0.959 . S
H465 C463 0.960 1_455 S
H466 C463 0.961 . S
O467 Co442 1.967 1_655 S
O467 C475 1.258 . S
O468 Co443 1.941 1_554 S
O468 C475 1.266 . S
H469 C471 0.970 . S
H470 C471 0.951 1_455 S
C471 C461 1.511 . S
C471 H469 0.970 . S
C471 H470 0.951 1_655 S
C471 H472 0.958 1_655 S
H472 C471 0.958 1_455 S
H473 N453 0.862 . S
O474 Co442 1.916 1_655 S
O474 C447 1.260 1_655 S
C475 O467 1.258 . S
C475 O468 1.266 . S
Co476 O479 1.970 . S
Co476 N493 1.989 . S
Co476 O501 1.967 . S
Co476 O508 1.920 . S
Co477 O480 1.966 . S
Co477 N486 2.022 . S
Co477 N494 1.993 . S
Co477 O502 1.941 . S
C478 O479 1.258 . S
C478 O480 1.263 . S
O479 Co476 1.970 . S
O479 C478 1.258 . S
O480 Co477 1.966 . S
O480 C478 1.263 . S
C481 O482 1.235 . S
C481 O508 1.289 . S
O482 C481 1.235 . S
C483 C485 1.400 . S
C483 N486 1.351 . S
C483 C488 1.501 . S
C484 C485 1.387 . S
C484 N487 1.341 . S
C485 C483 1.400 . S
C485 C484 1.387 . S
N486 Co477 2.022 . S
N486 C483 1.351 . S
N486 N487 1.365 . S
N487 C484 1.341 . S
N487 N486 1.365 . S
N487 H507 0.862 . S
C488 C483 1.501 . S
C488 H489 0.961 . S
C488 H490 0.961 . S
C488 H491 0.960 . S
H489 C488 0.961 . S
H490 C488 0.961 . S
H491 C488 0.960 . S
C492 N493 1.342 . S
C492 C496 1.401 . S
C492 C497 1.499 . S
N493 Co476 1.989 . S
N493 C492 1.342 . S
N493 N494 1.388 . S
N494 Co477 1.993 . S
N494 N493 1.388 . S
N494 C495 1.346 . S
C495 N494 1.346 . S
C495 C496 1.396 . S
C495 C505 1.510 . S
C496 C492 1.401 . S
C496 C495 1.396 . S
C497 C492 1.499 . S
C497 H498 0.959 . S
C497 H499 0.960 . S
C497 H500 0.961 . S
H498 C497 0.959 . S
H499 C497 0.960 . S
H500 C497 0.961 . S
O501 Co476 1.967 . S
O501 C509 1.258 . S
O502 Co477 1.941 . S
O502 C509 1.266 . S
H503 C505 0.959 . S
H504 C505 0.961 . S
C505 C495 1.510 . S
C505 H503 0.959 . S
C505 H504 0.961 . S
C505 H506 0.960 . S
H506 C505 0.960 . S
H507 N487 0.862 . S
O508 Co476 1.920 . S
O508 C481 1.289 . S
C509 O501 1.258 . S
C509 O502 1.266 . S
Co510 O513 1.970 . S
Co510 N527 1.989 . S
Co510 O535 1.967 1_455 S
Co510 O542 1.916 1_455 S
Co511 O514 1.966 1_654 S
Co511 N520 2.024 . S
Co511 N528 1.993 1_654 S
Co511 O536 1.941 1_554 S
C512 O513 1.258 . S
C512 O514 1.263 . S
O513 Co510 1.970 . S
O513 C512 1.258 . S
O514 Co511 1.966 1_456 S
O514 C512 1.263 . S
C515 O516 1.235 . S
C515 O542 1.260 1_455 S
O516 C515 1.235 . S
C517 C519 1.400 . S
C517 N520 1.311 1_455 S
C517 C522 1.501 . S
C518 C519 1.387 1_655 S
C518 N521 1.341 . S
C519 C517 1.400 . S
C519 C518 1.387 1_455 S
N520 Co511 2.024 . S
N520 C517 1.311 1_655 S
N520 N521 1.403 . S
N521 C518 1.341 . S
N521 N520 1.403 . S
N521 H541 0.862 . S
C522 C517 1.501 . S
C522 H523 0.961 . S
C522 H524 0.961 . S
C522 H525 0.960 . S
H523 C522 0.961 . S
H524 C522 0.961 . S
H525 C522 0.960 . S
C526 N527 1.342 1_655 S
C526 C530 1.401 . S
C526 C531 1.499 . S
N527 Co510 1.989 . S
N527 C526 1.342 1_455 S
N527 N528 1.388 . S
N528 Co511 1.993 1_456 S
N528 N527 1.388 . S
N528 C529 1.346 1_456 S
C529 N528 1.346 1_654 S
C529 C530 1.396 1_554 S
C529 C539 1.511 . S
C530 C526 1.401 . S
C530 C529 1.396 1_556 S
C531 C526 1.499 . S
C531 H532 0.959 . S
C531 H533 0.960 1_655 S
C531 H534 0.961 . S
H532 C531 0.959 . S
H533 C531 0.960 1_455 S
H534 C531 0.961 . S
O535 Co510 1.967 1_655 S
O535 C543 1.258 . S
O536 Co511 1.941 1_556 S
O536 C543 1.266 . S
H537 C539 0.970 . S
H538 C539 0.951 1_455 S
C539 C529 1.511 . S
C539 H537 0.970 . S
C539 H538 0.951 1_655 S
C539 H540 0.958 1_655 S
H540 C539 0.958 1_455 S
H541 N521 0.862 . S
O542 Co510 1.916 1_655 S
O542 C515 1.260 1_655 S
C543 O535 1.258 . S
C543 O536 1.266 . S
C544 C545 1.369 . S
C544 C546 1.419 . S
C544 H548 0.930 . S
C545 C544 1.369 . S
C545 C554 1.429 . S
C546 C544 1.419 . S
C546 C547 1.363 . S
C546 H549 0.929 . S
C547 C546 1.363 . S
C547 C553 1.425 1_655 S
H548 C544 0.930 . S
H549 C546 0.929 . S
S550 N551 1.613 . S
S550 N552 1.610 . S
N551 S550 1.613 . S
N551 C554 1.350 1_455 S
N552 S550 1.610 . S
N552 C553 1.356 . S
C553 C547 1.425 1_455 S
C553 N552 1.356 . S
C553 C554 1.432 1_455 S
C554 C545 1.429 . S
C554 N551 1.350 1_655 S
C554 C553 1.432 1_655 S
C555 C556 1.369 . S
C555 C557 1.419 . S
C555 H559 0.930 . S
C556 C555 1.369 . S
C556 C565 1.429 . S
C557 C555 1.419 . S
C557 C558 1.363 . S
C557 H560 0.929 . S
C558 C557 1.363 . S
C558 C564 1.428 . S
H559 C555 0.930 . S
H560 C557 0.929 . S
S561 N562 1.613 . S
S561 N563 1.610 . S
N562 S561 1.613 . S
N562 C565 1.350 . S
N563 S561 1.610 . S
N563 C564 1.351 . S
C564 C558 1.428 . S
C564 N563 1.351 . S
C564 C565 1.434 . S
C565 C556 1.429 . S
C565 N562 1.350 . S
C565 C564 1.434 . S
C566 C567 1.369 . S
C566 C568 1.419 1_554 S
C566 H570 0.930 . S
C567 C566 1.369 . S
C567 C576 1.429 . S
C568 C566 1.419 1_556 S
C568 C569 1.363 . S
C568 H571 0.929 . S
C569 C568 1.363 . S
C569 C575 1.428 . S
H570 C566 0.930 . S
H571 C568 0.929 . S
S572 N573 1.613 . S
S572 N574 1.610 1_554 S
N573 S572 1.613 . S
N573 C576 1.350 . S
N574 S572 1.610 1_556 S
N574 C575 1.351 . S
C575 C569 1.428 . S
C575 N574 1.351 . S
C575 C576 1.434 1_556 S
C576 C567 1.429 . S
C576 N573 1.350 . S
C576 C575 1.434 1_554 S
C577 C578 1.369 . S
C577 C579 1.419 . S
C577 H581 0.930 . S
C578 C577 1.369 . S
C578 C587 1.429 . S
C579 C577 1.419 . S
C579 C580 1.363 . S
C579 H582 0.929 . S
C580 C579 1.363 . S
C580 C586 1.428 . S
H581 C577 0.930 . S
H582 C579 0.929 . S
S583 N584 1.613 . S
S583 N585 1.610 . S
N584 S583 1.613 . S
N584 C587 1.350 . S
N585 S583 1.610 . S
N585 C586 1.351 . S
C586 C580 1.428 . S
C586 N585 1.351 . S
C586 C587 1.434 . S
C587 C578 1.429 . S
C587 N584 1.350 . S
C587 C586 1.434 . S
C588 C589 1.369 1_455 S
C588 C590 1.419 . S
C588 H592 0.930 . S
C589 C588 1.369 1_655 S
C589 C598 1.429 . S
C590 C588 1.419 . S
C590 C591 1.363 1_455 S
C590 H593 0.929 . S
C591 C590 1.363 1_655 S
C591 C597 1.428 . S
H592 C588 0.930 . S
H593 C590 0.929 . S
S594 N595 1.613 . S
S594 N596 1.610 . S
N595 S594 1.613 . S
N595 C598 1.350 . S
N596 S594 1.610 . S
N596 C597 1.351 . S
C597 C591 1.428 . S
C597 N596 1.351 . S
C597 C598 1.434 . S
C598 C589 1.429 . S
C598 N595 1.350 . S
C598 C597 1.434 . S
C599 C600 1.369 . S
C599 C601 1.419 . S
C599 H603 0.930 . S
C600 C599 1.369 . S
C600 C609 1.429 . S
C601 C599 1.419 . S
C601 C602 1.363 . S
C601 H604 0.929 . S
C602 C601 1.363 . S
C602 C608 1.428 . S
H603 C599 0.930 . S
H604 C601 0.929 . S
S605 N606 1.613 . S
S605 N607 1.610 . S
N606 S605 1.613 . S
N606 C609 1.350 . S
N607 S605 1.610 . S
N607 C608 1.351 . S
C608 C602 1.428 . S
C608 N607 1.351 . S
C608 C609 1.434 . S
C609 C600 1.429 . S
C609 N606 1.350 . S
C609 C608 1.434 . S
C610 C611 1.369 . S
C610 C612 1.419 1_556 S
C610 H614 0.930 . S
C611 C610 1.369 . S
C611 C620 1.429 . S
C612 C610 1.419 1_554 S
C612 C613 1.363 . S
C612 H615 0.929 . S
C613 C612 1.363 . S
C613 C619 1.428 . S
H614 C610 0.930 . S
H615 C612 0.929 . S
S616 N617 1.613 . S
S616 N618 1.610 1_556 S
N617 S616 1.613 . S
N617 C620 1.350 . S
N618 S616 1.610 1_554 S
N618 C619 1.351 . S
C619 C613 1.428 . S
C619 N618 1.351 . S
C619 C620 1.434 1_554 S
C620 C611 1.429 . S
C620 N617 1.350 . S
C620 C619 1.434 1_556 S
C621 C622 1.369 . S
C621 C623 1.419 . S
C621 H625 0.930 . S
C622 C621 1.369 . S
C622 C631 1.429 . S
C623 C621 1.419 . S
C623 C624 1.363 . S
C623 H626 0.929 . S
C624 C623 1.363 . S
C624 C630 1.428 . S
H625 C621 0.930 . S
H626 C623 0.929 . S
S627 N628 1.613 . S
S627 N629 1.610 . S
N628 S627 1.613 . S
N628 C631 1.350 . S
N629 S627 1.610 . S
N629 C630 1.351 . S
C630 C624 1.428 . S
C630 N629 1.351 . S
C630 C631 1.434 . S
C631 C622 1.429 . S
C631 N628 1.350 . S
C631 C630 1.434 . S
C632 C633 1.369 . S
C632 C634 1.419 . S
C632 H636 0.930 . S
C633 C632 1.369 . S
C633 C642 1.429 . S
C634 C632 1.419 . S
C634 C635 1.363 . S
C634 H637 0.929 . S
C635 C634 1.363 . S
C635 C641 1.428 . S
H636 C632 0.930 . S
H637 C634 0.929 . S
S638 N639 1.613 . S
S638 N640 1.610 . S
N639 S638 1.613 . S
N639 C642 1.350 . S
N640 S638 1.610 . S
N640 C641 1.351 . S
C641 C635 1.428 . S
C641 N640 1.351 . S
C641 C642 1.434 . S
C642 C633 1.429 . S
C642 N639 1.350 . S
C642 C641 1.434 . S
C643 C644 1.369 . S
C643 C645 1.419 . S
C643 H647 0.930 . S
C644 C643 1.369 . S
C644 C653 1.429 . S
C645 C643 1.419 . S
C645 C646 1.363 . S
C645 H648 0.929 . S
C646 C645 1.363 . S
C646 C652 1.428 . S
H647 C643 0.930 . S
H648 C645 0.929 . S
S649 N650 1.613 . S
S649 N651 1.610 . S
N650 S649 1.613 . S
N650 C653 1.350 . S
N651 S649 1.610 . S
N651 C652 1.351 . S
C652 C646 1.428 . S
C652 N651 1.351 . S
C652 C653 1.434 . S
C653 C644 1.429 . S
C653 N650 1.350 . S
C653 C652 1.434 . S
C654 C655 1.369 . S
C654 C656 1.419 . S
C654 H658 0.930 . S
C655 C654 1.369 . S
C655 C664 1.429 . S
C656 C654 1.419 . S
C656 C657 1.363 . S
C656 H659 0.929 . S
C657 C656 1.363 . S
C657 C663 1.428 . S
H658 C654 0.930 . S
H659 C656 0.929 . S
S660 N661 1.613 . S
S660 N662 1.610 . S
N661 S660 1.613 . S
N661 C664 1.350 . S
N662 S660 1.610 . S
N662 C663 1.351 . S
C663 C657 1.428 . S
C663 N662 1.351 . S
C663 C664 1.434 . S
C664 C655 1.429 . S
C664 N661 1.350 . S
C664 C663 1.434 . S
C665 C666 1.369 . S
C665 C667 1.419 . S
C665 H669 0.930 . S
C666 C665 1.369 . S
C666 C675 1.429 . S
C667 C665 1.419 . S
C667 C668 1.363 . S
C667 H670 0.929 . S
C668 C667 1.363 . S
C668 C674 1.428 . S
H669 C665 0.930 . S
H670 C667 0.929 . S
S671 N672 1.613 . S
S671 N673 1.610 . S
N672 S671 1.613 . S
N672 C675 1.350 . S
N673 S671 1.610 . S
N673 C674 1.351 . S
C674 C668 1.428 . S
C674 N673 1.351 . S
C674 C675 1.434 . S
C675 C666 1.429 . S
C675 N672 1.350 . S
C675 C674 1.434 . S
C676 C677 1.369 . S
C676 C678 1.419 1_556 S
C676 H680 0.930 . S
C677 C676 1.369 . S
C677 C686 1.429 . S
C678 C676 1.419 1_554 S
C678 C679 1.363 . S
C678 H681 0.929 . S
C679 C678 1.363 . S
C679 C685 1.428 . S
H680 C676 0.930 . S
H681 C678 0.929 . S
S682 N683 1.613 1_554 S
S682 N684 1.610 . S
N683 S682 1.613 1_556 S
N683 C686 1.350 . S
N684 S682 1.610 . S
N684 C685 1.351 . S
C685 C679 1.428 . S
C685 N684 1.351 . S
C685 C686 1.434 1_554 S
C686 C677 1.429 . S
C686 N683 1.350 . S
C686 C685 1.434 1_556 S
C687 C688 1.369 . S
C687 C689 1.419 . S
C687 H691 0.930 . S
C688 C687 1.369 . S
C688 C697 1.429 . S
C689 C687 1.419 . S
C689 C690 1.363 . S
C689 H692 0.929 . S
C690 C689 1.363 . S
C690 C696 1.428 . S
H691 C687 0.930 . S
H692 C689 0.929 . S
S693 N694 1.613 . S
S693 N695 1.610 . S
N694 S693 1.613 . S
N694 C697 1.350 1_655 S
N695 S693 1.610 . S
N695 C696 1.351 1_655 S
C696 C690 1.428 . S
C696 N695 1.351 1_455 S
C696 C697 1.434 . S
C697 C688 1.429 . S
C697 N694 1.350 1_455 S
C697 C696 1.434 . S
C698 C699 1.377 . S
C698 C700 1.406 1_554 S
C698 H702 0.934 . S
C699 C698 1.377 . S
C699 C708 1.429 . S
C700 C698 1.406 1_556 S
C700 C701 1.363 . S
C700 H703 0.929 . S
C701 C700 1.363 . S
C701 C707 1.428 . S
H702 C698 0.934 . S
H703 C700 0.929 . S
S704 N705 1.613 . S
S704 N706 1.610 1_554 S
N705 S704 1.613 . S
N705 C708 1.350 . S
N706 S704 1.610 1_556 S
N706 C707 1.351 . S
C707 C701 1.428 . S
C707 N706 1.351 . S
C707 C708 1.434 1_556 S
C708 C699 1.429 . S
C708 N705 1.350 . S
C708 C707 1.434 1_554 S
C709 C710 1.369 . S
C709 C711 1.419 . S
C709 H713 0.930 . S
C710 C709 1.369 . S
C710 C719 1.429 . S
C711 C709 1.419 . S
C711 C712 1.363 . S
C711 H714 0.929 . S
C712 C711 1.363 . S
C712 C718 1.428 . S
H713 C709 0.930 . S
H714 C711 0.929 . S
S715 N716 1.610 1_655 S
S715 N717 1.610 . S
N716 S715 1.610 1_455 S
N716 C719 1.353 . S
N717 S715 1.610 . S
N717 C718 1.351 1_655 S
C718 C712 1.428 . S
C718 N717 1.351 1_455 S
C718 C719 1.434 . S
C719 C710 1.429 . S
C719 N716 1.353 . S
C719 C718 1.434 . S
C720 C721 1.369 1_556 S
C720 C722 1.419 . S
C720 H724 0.930 . S
C721 C720 1.369 1_554 S
C721 C730 1.429 . S
C722 C720 1.419 . S
C722 C723 1.363 . S
C722 H725 0.929 . S
C723 C722 1.363 . S
C723 C729 1.428 1_556 S
H724 C720 0.930 . S
H725 C722 0.929 . S
S726 N727 1.613 . S
S726 N728 1.610 . S
N727 S726 1.613 . S
N727 C730 1.350 . S
N728 S726 1.610 . S
N728 C729 1.351 . S
C729 C723 1.428 1_554 S
C729 N728 1.351 . S
C729 C730 1.434 . S
C730 C721 1.429 . S
C730 N727 1.350 . S
C730 C729 1.434 . S
C731 C732 1.369 . S
C731 C733 1.419 . S
C731 H735 0.930 . S
C732 C731 1.369 . S
C732 C741 1.429 . S
C733 C731 1.419 . S
C733 C734 1.363 . S
C733 H736 0.929 . S
C734 C733 1.363 . S
C734 C740 1.428 . S
H735 C731 0.930 . S
H736 C733 0.929 . S
S737 N738 1.613 . S
S737 N739 1.610 . S
N738 S737 1.613 . S
N738 C741 1.350 . S
N739 S737 1.610 . S
N739 C740 1.351 . S
C740 C734 1.428 . S
C740 N739 1.351 . S
C740 C741 1.434 . S
C741 C732 1.429 . S
C741 N738 1.350 . S
C741 C740 1.434 . S
C742 C743 1.369 . S
C742 C744 1.419 . S
C742 H746 0.930 . S
C743 C742 1.369 . S
C743 C752 1.429 . S
C744 C742 1.419 . S
C744 C745 1.363 . S
C744 H747 0.929 . S
C745 C744 1.363 . S
C745 C751 1.428 . S
H746 C742 0.930 . S
H747 C744 0.929 . S
S748 N749 1.613 . S
S748 N750 1.610 . S
N749 S748 1.613 . S
N749 C752 1.350 . S
N750 S748 1.610 . S
N750 C751 1.351 . S
C751 C745 1.428 . S
C751 N750 1.351 . S
C751 C752 1.434 . S
C752 C743 1.429 . S
C752 N749 1.350 . S
C752 C751 1.434 . S
C753 C754 1.369 . S
C753 C755 1.419 . S
C753 H757 0.930 . S
C754 C753 1.369 . S
C754 C763 1.429 . S
C755 C753 1.419 . S
C755 C756 1.363 . S
C755 H758 0.929 . S
C756 C755 1.363 . S
C756 C762 1.428 . S
H757 C753 0.930 . S
H758 C755 0.929 . S
S759 N760 1.613 . S
S759 N761 1.610 . S
N760 S759 1.613 . S
N760 C763 1.350 . S
N761 S759 1.610 . S
N761 C762 1.351 . S
C762 C756 1.428 . S
C762 N761 1.351 . S
C762 C763 1.434 . S
C763 C754 1.429 . S
C763 N760 1.350 . S
C763 C762 1.434 . S
C764 C765 1.369 . S
C764 C766 1.419 . S
C764 H768 0.930 . S
C765 C764 1.369 . S
C765 C774 1.429 . S
C766 C764 1.419 . S
C766 C767 1.363 . S
C766 H769 0.929 . S
C767 C766 1.363 . S
C767 C773 1.428 . S
H768 C764 0.930 . S
H769 C766 0.929 . S
S770 N771 1.613 . S
S770 N772 1.610 . S
N771 S770 1.613 . S
N771 C774 1.350 . S
N772 S770 1.610 . S
N772 C773 1.351 . S
C773 C767 1.428 . S
C773 N772 1.351 . S
C773 C774 1.434 . S
C774 C765 1.429 . S
C774 N771 1.350 . S
C774 C773 1.434 . S
C775 C776 1.369 . S
C775 C777 1.419 . S
C775 H779 0.930 . S
C776 C775 1.369 . S
C776 C785 1.429 . S
C777 C775 1.419 . S
C777 C778 1.363 . S
C777 H780 0.929 . S
C778 C777 1.363 . S
C778 C784 1.428 . S
H779 C775 0.930 . S
H780 C777 0.929 . S
S781 N782 1.613 . S
S781 N783 1.610 . S
N782 S781 1.613 . S
N782 C785 1.350 . S
N783 S781 1.610 . S
N783 C784 1.351 . S
C784 C778 1.428 . S
C784 N783 1.351 . S
C784 C785 1.434 . S
C785 C776 1.429 . S
C785 N782 1.350 . S
C785 C784 1.434 . S
C786 C787 1.369 . S
C786 C788 1.419 1_545 S
C786 H790 0.930 . S
C787 C786 1.369 . S
C787 C796 1.429 . S
C788 C786 1.419 1_565 S
C788 C789 1.363 . S
C788 H791 0.929 . S
C789 C788 1.363 . S
C789 C795 1.428 . S
H790 C786 0.930 . S
H791 C788 0.929 . S
S792 N793 1.613 . S
S792 N794 1.610 1_545 S
N793 S792 1.613 . S
N793 C796 1.350 . S
N794 S792 1.610 1_565 S
N794 C795 1.351 . S
C795 C789 1.428 . S
C795 N794 1.351 . S
C795 C796 1.434 1_565 S
C796 C787 1.429 . S
C796 N793 1.350 . S
C796 C795 1.434 1_545 S
C797 C798 1.369 1_455 S
C797 C799 1.419 1_565 S
C797 H801 0.930 . S
C798 C797 1.369 1_655 S
C798 C807 1.429 1_554 S
C799 C797 1.419 1_545 S
C799 C800 1.363 1_454 S
C799 H802 0.929 . S
C800 C799 1.363 1_656 S
C800 C806 1.428 . S
H801 C797 0.930 . S
H802 C799 0.929 . S
S803 N804 1.613 . S
S803 N805 1.610 1_565 S
N804 S803 1.613 . S
N804 C807 1.350 . S
N805 S803 1.610 1_545 S
N805 C806 1.351 . S
C806 C800 1.428 . S
C806 N805 1.351 . S
C806 C807 1.434 1_545 S
C807 C798 1.429 1_556 S
C807 N804 1.350 . S
C807 C806 1.434 1_565 S
C808 C809 1.369 . S
C808 C810 1.419 . S
C808 H812 0.930 . S
C809 C808 1.369 . S
C809 C818 1.429 . S
C810 C808 1.419 . S
C810 C811 1.363 . S
C810 H813 0.929 . S
C811 C810 1.363 . S
C811 C817 1.428 . S
H812 C808 0.930 . S
H813 C810 0.929 . S
S814 N815 1.613 1_556 S
S814 N816 1.610 . S
N815 S814 1.613 1_554 S
N815 C818 1.350 . S
N816 S814 1.610 . S
N816 C817 1.351 1_556 S
C817 C811 1.428 . S
C817 N816 1.351 1_554 S
C817 C818 1.434 . S
C818 C809 1.429 . S
C818 N815 1.350 . S
C818 C817 1.434 . S
C819 C820 1.369 . S
C819 C821 1.419 . S
C819 H823 0.930 . S
C820 C819 1.369 . S
C820 C829 1.429 . S
C821 C819 1.419 . S
C821 C822 1.363 . S
C821 H824 0.929 . S
C822 C821 1.363 . S
C822 C828 1.428 . S
H823 C819 0.930 . S
H824 C821 0.929 . S
S825 N826 1.613 . S
S825 N827 1.610 . S
N826 S825 1.613 . S
N826 C829 1.350 . S
N827 S825 1.610 . S
N827 C828 1.351 . S
C828 C822 1.428 . S
C828 N827 1.351 . S
C828 C829 1.434 . S
C829 C820 1.429 . S
C829 N826 1.350 . S
C829 C828 1.434 . S
C830 C831 1.369 . S
C830 C832 1.419 . S
C830 H834 0.930 . S
C831 C830 1.369 . S
C831 C840 1.429 . S
C832 C830 1.419 . S
C832 C833 1.363 . S
C832 H835 0.929 . S
C833 C832 1.363 . S
C833 C839 1.428 . S
H834 C830 0.930 . S
H835 C832 0.929 . S
S836 N837 1.613 . S
S836 N838 1.610 . S
N837 S836 1.613 . S
N837 C840 1.350 . S
N838 S836 1.610 . S
N838 C839 1.351 . S
C839 C833 1.428 . S
C839 N838 1.351 . S
C839 C840 1.434 . S
C840 C831 1.429 . S
C840 N837 1.350 . S
C840 C839 1.434 . S
C841 C842 1.369 . S
C841 C843 1.419 . S
C841 H845 0.930 . S
C842 C841 1.369 . S
C842 C851 1.429 . S
C843 C841 1.419 . S
C843 C844 1.363 . S
C843 H846 0.929 . S
C844 C843 1.363 . S
C844 C850 1.428 . S
H845 C841 0.930 . S
H846 C843 0.929 . S
S847 N848 1.613 . S
S847 N849 1.610 . S
N848 S847 1.613 . S
N848 C851 1.350 1_554 S
N849 S847 1.610 . S
N849 C850 1.351 1_554 S
C850 C844 1.428 . S
C850 N849 1.351 1_556 S
C850 C851 1.434 . S
C851 C842 1.429 . S
C851 N848 1.350 1_556 S
C851 C850 1.434 . S
C852 C853 1.369 . S
C852 C854 1.419 . S
C852 H856 0.930 . S
C853 C852 1.369 . S
C853 C862 1.429 . S
C854 C852 1.419 . S
C854 C855 1.363 . S
C854 H857 0.929 1_556 S
C855 C854 1.363 . S
C855 C861 1.428 . S
H856 C852 0.930 . S
H857 C854 0.929 1_554 S
S858 N859 1.613 . S
S858 N860 1.610 . S
N859 S858 1.613 . S
N859 C862 1.350 . S
N860 S858 1.610 . S
N860 C861 1.351 . S
C861 C855 1.428 . S
C861 N860 1.351 . S
C861 C862 1.434 . S
C862 C853 1.429 . S
C862 N859 1.350 . S
C862 C861 1.434 . S
C863 C864 1.369 . S
C863 C865 1.419 . S
C863 H867 0.930 . S
C864 C863 1.369 . S
C864 C873 1.429 . S
C865 C863 1.419 . S
C865 C866 1.363 . S
C865 H868 0.929 . S
C866 C865 1.363 . S
C866 C872 1.428 . S
H867 C863 0.930 . S
H868 C865 0.929 . S
S869 N870 1.613 . S
S869 N871 1.610 . S
N870 S869 1.613 . S
N870 C873 1.350 . S
N871 S869 1.610 . S
N871 C872 1.351 . S
C872 C866 1.428 . S
C872 N871 1.351 . S
C872 C873 1.434 . S
C873 C864 1.429 . S
C873 N870 1.350 . S
C873 C872 1.434 . S
C874 C875 1.369 . S
C874 C876 1.419 . S
C874 H878 0.930 . S
C875 C874 1.369 . S
C875 C884 1.429 . S
C876 C874 1.419 . S
C876 C877 1.363 . S
C876 H879 0.929 . S
C877 C876 1.363 . S
C877 C883 1.428 . S
H878 C874 0.930 . S
H879 C876 0.929 . S
S880 N881 1.613 . S
S880 N882 1.610 . S
N881 S880 1.613 . S
N881 C884 1.350 . S
N882 S880 1.610 . S
N882 C883 1.351 . S
C883 C877 1.428 . S
C883 N882 1.351 . S
C883 C884 1.434 . S
C884 C875 1.429 . S
C884 N881 1.350 . S
C884 C883 1.434 . S
C885 C886 1.369 . S
C885 C887 1.419 . S
C885 H889 0.930 . S
C886 C885 1.369 . S
C886 C895 1.429 . S
C887 C885 1.419 . S
C887 C888 1.363 . S
C887 H890 0.929 . S
C888 C887 1.363 . S
C888 C894 1.428 . S
H889 C885 0.930 . S
H890 C887 0.929 . S
S891 N892 1.613 . S
S891 N893 1.610 . S
N892 S891 1.613 . S
N892 C895 1.350 . S
N893 S891 1.610 . S
N893 C894 1.351 . S
C894 C888 1.428 . S
C894 N893 1.351 . S
C894 C895 1.434 . S
C895 C886 1.429 . S
C895 N892 1.350 . S
C895 C894 1.434 . S
C896 C897 1.369 . S
C896 C898 1.419 . S
C896 H900 0.930 . S
C897 C896 1.369 . S
C897 C906 1.429 . S
C898 C896 1.419 . S
C898 C899 1.363 . S
C898 H901 0.929 . S
C899 C898 1.363 . S
C899 C905 1.428 . S
H900 C896 0.930 . S
H901 C898 0.929 . S
S902 N903 1.613 . S
S902 N904 1.610 . S
N903 S902 1.613 . S
N903 C906 1.350 . S
N904 S902 1.610 . S
N904 C905 1.351 . S
C905 C899 1.428 . S
C905 N904 1.351 . S
C905 C906 1.434 . S
C906 C897 1.429 . S
C906 N903 1.350 . S
C906 C905 1.434 . S
C907 C908 1.369 . S
C907 C909 1.419 . S
C907 H911 0.930 . S
C908 C907 1.369 . S
C908 C917 1.429 . S
C909 C907 1.419 . S
C909 C910 1.363 . S
C909 H912 0.929 . S
C910 C909 1.363 . S
C910 C916 1.428 . S
H911 C907 0.930 . S
H912 C909 0.929 . S
S913 N914 1.613 . S
S913 N915 1.610 . S
N914 S913 1.613 . S
N914 C917 1.350 . S
N915 S913 1.610 . S
N915 C916 1.351 . S
C916 C910 1.428 . S
C916 N915 1.351 . S
C916 C917 1.434 . S
C917 C908 1.429 . S
C917 N914 1.350 . S
C917 C916 1.434 . S
C918 C919 1.369 . S
C918 C920 1.419 . S
C918 H922 0.930 . S
C919 C918 1.369 . S
C919 C928 1.429 . S
C920 C918 1.419 . S
C920 C921 1.363 . S
C920 H923 0.929 . S
C921 C920 1.363 . S
C921 C927 1.428 . S
H922 C918 0.930 . S
H923 C920 0.929 . S
S924 N925 1.613 . S
S924 N926 1.610 . S
N925 S924 1.613 . S
N925 C928 1.350 . S
N926 S924 1.610 . S
N926 C927 1.351 . S
C927 C921 1.428 . S
C927 N926 1.351 . S
C927 C928 1.434 . S
C928 C919 1.429 . S
C928 N925 1.350 . S
C928 C927 1.434 . S
C929 C930 1.369 . S
C929 C931 1.419 . S
C929 H933 0.930 . S
C930 C929 1.369 . S
C930 C939 1.429 . S
C931 C929 1.419 . S
C931 C932 1.363 . S
C931 H934 0.929 . S
C932 C931 1.363 . S
C932 C938 1.428 . S
H933 C929 0.930 . S
H934 C931 0.929 . S
S935 N936 1.613 . S
S935 N937 1.610 . S
N936 S935 1.613 . S
N936 C939 1.350 . S
N937 S935 1.610 . S
N937 C938 1.351 . S
C938 C932 1.428 . S
C938 N937 1.351 . S
C938 C939 1.434 . S
C939 C930 1.429 . S
C939 N936 1.350 . S
C939 C938 1.434 . S
C940 C941 1.369 . S
C940 C942 1.419 . S
C940 H944 0.930 . S
C941 C940 1.369 . S
C941 C950 1.429 . S
C942 C940 1.419 . S
C942 C943 1.363 . S
C942 H945 0.929 . S
C943 C942 1.363 . S
C943 C949 1.428 . S
H944 C940 0.930 . S
H945 C942 0.929 . S
S946 N947 1.613 . S
S946 N948 1.610 . S
N947 S946 1.613 . S
N947 C950 1.350 . S
N948 S946 1.610 . S
N948 C949 1.351 . S
C949 C943 1.428 . S
C949 N948 1.351 . S
C949 C950 1.434 . S
C950 C941 1.429 . S
C950 N947 1.350 . S
C950 C949 1.434 . S
C951 C952 1.369 . S
C951 C953 1.419 . S
C951 H955 0.930 . S
C952 C951 1.369 . S
C952 C961 1.429 . S
C953 C951 1.419 . S
C953 C954 1.363 . S
C953 H956 0.929 . S
C954 C953 1.363 . S
C954 C960 1.428 . S
H955 C951 0.930 . S
H956 C953 0.929 . S
S957 N958 1.613 . S
S957 N959 1.610 . S
N958 S957 1.613 . S
N958 C961 1.350 . S
N959 S957 1.610 . S
N959 C960 1.351 . S
C960 C954 1.428 . S
C960 N959 1.351 . S
C960 C961 1.434 . S
C961 C952 1.429 . S
C961 N958 1.350 . S
C961 C960 1.434 . S
C962 C963 1.369 . S
C962 C964 1.419 . S
C962 H966 0.930 . S
C963 C962 1.369 . S
C963 C972 1.429 . S
C964 C962 1.419 . S
C964 C965 1.363 . S
C964 H967 0.929 . S
C965 C964 1.363 . S
C965 C971 1.428 . S
H966 C962 0.930 . S
H967 C964 0.929 . S
S968 N969 1.613 . S
S968 N970 1.610 . S
N969 S968 1.613 . S
N969 C972 1.350 . S
N970 S968 1.610 . S
N970 C971 1.351 . S
C971 C965 1.428 . S
C971 N970 1.351 . S
C971 C972 1.434 . S
C972 C963 1.429 . S
C972 N969 1.350 . S
C972 C971 1.434 . S
C973 C974 1.369 . S
C973 C975 1.419 . S
C973 H977 0.930 . S
C974 C973 1.369 . S
C974 C983 1.429 . S
C975 C973 1.419 . S
C975 C976 1.363 . S
C975 H978 0.929 . S
C976 C975 1.363 . S
C976 C982 1.428 . S
H977 C973 0.930 . S
H978 C975 0.929 . S
S979 N980 1.613 . S
S979 N981 1.610 . S
N980 S979 1.613 . S
N980 C983 1.350 . S
N981 S979 1.610 . S
N981 C982 1.351 . S
C982 C976 1.428 . S
C982 N981 1.351 . S
C982 C983 1.434 . S
C983 C974 1.429 . S
C983 N980 1.350 . S
C983 C982 1.434 . S
C545 C9 1.367 1_655 S
C547 C5 1.449 . S
C556 C43 1.362 . S
C558 C39 1.450 . S
C567 C77 1.358 . S
C569 C73 1.451 . S
C578 C111 1.362 . S
C580 C107 1.450 . S
C589 C145 1.369 1_655 S
C591 C141 1.450 . S
C600 C179 1.370 . S
C602 C175 1.448 . S
C611 C213 1.370 . S
C613 C209 1.449 . S
C622 C243 1.450 . S
C624 C247 1.362 . S
C633 C277 1.448 . S
C635 C281 1.367 . S
C644 C315 1.358 . S
C646 C311 1.452 . S
C655 C349 1.358 . S
C657 C345 1.452 . S
C666 C379 1.451 . S
C668 C383 1.361 . S
C677 C413 1.451 . S
C679 C417 1.365 . S
C688 C451 1.363 . S
C690 C447 1.449 . S
C699 C481 1.449 . S
C701 C485 1.364 . S
C710 C519 1.359 . S
C712 C515 1.452 . S
C721 C20 1.517 . S
C723 C156 1.514 . S
C732 C190 1.514 . S
C734 C54 1.514 . S
C743 C224 1.513 . S
C745 C88 1.515 . S
C754 C122 1.513 . S
C756 C258 1.515 . S
C765 C360 1.516 . S
C767 C292 1.514 . S
C776 C326 1.513 . S
C778 C394 1.516 . S
C787 C428 1.516 . S
C789 C496 1.517 . S
C798 C462 1.515 . S
C800 C530 1.517 . S
C809 C339 1.265 . S
C811 C33 1.265 . S
C820 C509 1.267 . S
C822 C67 1.266 . S
C831 C101 1.267 . S
C833 C305 1.267 . S
C842 C543 1.267 . S
C844 C135 1.266 . S
C853 C373 1.267 . S
C855 C169 1.266 . S
C864 C475 1.268 . S
C866 C203 1.268 . S
C875 C237 1.268 . S
C877 C407 1.268 . S
C886 C271 1.265 . S
C888 C441 1.266 . S
C897 C138 1.653 . S
C899 C104 1.657 . S
C908 C410 1.653 . S
C910 C274 1.657 . S
C919 C36 1.657 . S
C921 C206 1.654 . S
C930 C444 1.655 . S
C932 C308 1.655 . S
C941 C172 1.656 . S
C943 C2 1.655 . S
C952 C342 1.657 . S
C954 C512 1.654 . S
C963 C240 1.656 . S
C965 C70 1.654 . S
C974 C478 1.657 . S
C976 C376 1.654 . S
