# Generated by pormake.
# Topology neb, (4)-cn, num edge types: 1
# Building blocks:
#     Node 0, Type 0, BuildingBlock: NAHDIM_clean_sbu_0, # of connection points: 4
#     Node 1, Type 0, BuildingBlock: NAHDIM_clean_sbu_0, # of connection points: 4
#     Node 2, Type 0, BuildingBlock: NAHDIM_clean_sbu_0, # of connection points: 4
#     Node 3, Type 0, BuildingBlock: NAHDIM_clean_sbu_0, # of connection points: 4
#     Node 4, Type 0, BuildingBlock: NAHDIM_clean_sbu_0, # of connection points: 4
#     Node 5, Type 0, BuildingBlock: NAHDIM_clean_sbu_0, # of connection points: 4
#     Node 6, Type 0, BuildingBlock: NAHDIM_clean_sbu_0, # of connection points: 4
#     Node 7, Type 0, BuildingBlock: NAHDIM_clean_sbu_0, # of connection points: 4
#     Node 8, Type 0, BuildingBlock: NAHDIM_clean_sbu_0, # of connection points: 4
#     Node 9, Type 0, BuildingBlock: NAHDIM_clean_sbu_0, # of connection points: 4
#     Node 10, Type 0, BuildingBlock: NAHDIM_clean_sbu_0, # of connection points: 4
#     Node 11, Type 0, BuildingBlock: NAHDIM_clean_sbu_0, # of connection points: 4
#     Node 12, Type 0, BuildingBlock: NAHDIM_clean_sbu_0, # of connection points: 4
#     Node 13, Type 0, BuildingBlock: NAHDIM_clean_sbu_0, # of connection points: 4
#     Node 14, Type 0, BuildingBlock: NAHDIM_clean_sbu_0, # of connection points: 4
#     Node 15, Type 0, BuildingBlock: NAHDIM_clean_sbu_0, # of connection points: 4
#     Edge 16, Type (0, 0), BuildingBlock: ZUJKAS_clean_linker_0, # of connection points: 2
#     Edge 17, Type (0, 0), BuildingBlock: ZUJKAS_clean_linker_0, # of connection points: 2
#     Edge 18, Type (0, 0), BuildingBlock: ZUJKAS_clean_linker_0, # of connection points: 2
#     Edge 19, Type (0, 0), BuildingBlock: ZUJKAS_clean_linker_0, # of connection points: 2
#     Edge 20, Type (0, 0), BuildingBlock: ZUJKAS_clean_linker_0, # of connection points: 2
#     Edge 21, Type (0, 0), BuildingBlock: ZUJKAS_clean_linker_0, # of connection points: 2
#     Edge 22, Type (0, 0), BuildingBlock: ZUJKAS_clean_linker_0, # of connection points: 2
#     Edge 23, Type (0, 0), BuildingBlock: ZUJKAS_clean_linker_0, # of connection points: 2
#     Edge 24, Type (0, 0), BuildingBlock: ZUJKAS_clean_linker_0, # of connection points: 2
#     Edge 25, Type (0, 0), BuildingBlock: ZUJKAS_clean_linker_0, # of connection points: 2
#     Edge 26, Type (0, 0), BuildingBlock: ZUJKAS_clean_linker_0, # of connection points: 2
#     Edge 27, Type (0, 0), BuildingBlock: ZUJKAS_clean_linker_0, # of connection points: 2
#     Edge 28, Type (0, 0), BuildingBlock: ZUJKAS_clean_linker_0, # of connection points: 2
#     Edge 29, Type (0, 0), BuildingBlock: ZUJKAS_clean_linker_0, # of connection points: 2
#     Edge 30, Type (0, 0), BuildingBlock: ZUJKAS_clean_linker_0, # of connection points: 2
#     Edge 31, Type (0, 0), BuildingBlock: ZUJKAS_clean_linker_0, # of connection points: 2
#     Edge 32, Type (0, 0), BuildingBlock: ZUJKAS_clean_linker_0, # of connection points: 2
#     Edge 33, Type (0, 0), BuildingBlock: ZUJKAS_clean_linker_0, # of connection points: 2
#     Edge 34, Type (0, 0), BuildingBlock: ZUJKAS_clean_linker_0, # of connection points: 2
#     Edge 35, Type (0, 0), BuildingBlock: ZUJKAS_clean_linker_0, # of connection points: 2
#     Edge 36, Type (0, 0), BuildingBlock: ZUJKAS_clean_linker_0, # of connection points: 2
#     Edge 37, Type (0, 0), BuildingBlock: ZUJKAS_clean_linker_0, # of connection points: 2
#     Edge 38, Type (0, 0), BuildingBlock: ZUJKAS_clean_linker_0, # of connection points: 2
#     Edge 39, Type (0, 0), BuildingBlock: ZUJKAS_clean_linker_0, # of connection points: 2
#     Edge 40, Type (0, 0), BuildingBlock: ZUJKAS_clean_linker_0, # of connection points: 2
#     Edge 41, Type (0, 0), BuildingBlock: ZUJKAS_clean_linker_0, # of connection points: 2
#     Edge 42, Type (0, 0), BuildingBlock: ZUJKAS_clean_linker_0, # of connection points: 2
#     Edge 43, Type (0, 0), BuildingBlock: ZUJKAS_clean_linker_0, # of connection points: 2
#     Edge 44, Type (0, 0), BuildingBlock: ZUJKAS_clean_linker_0, # of connection points: 2
#     Edge 45, Type (0, 0), BuildingBlock: ZUJKAS_clean_linker_0, # of connection points: 2
#     Edge 46, Type (0, 0), BuildingBlock: ZUJKAS_clean_linker_0, # of connection points: 2
#     Edge 47, Type (0, 0), BuildingBlock: ZUJKAS_clean_linker_0, # of connection points: 2
# Relax obj value: 0.079
# Max RMSD: 0.134
# Mean RMSD: 0.134
data_MOF--net-neb--node1-NAHDIM_clean_sbu_0--edge1-ZUJKAS_clean_linker_0
_symmetry_space_group_name_H-M    P1
_symmetry_Int_Tables_number       1
_symmetry_cell_setting            triclinic
loop_
_symmetry_equiv_pos_as_xyz
'x, y, z'
_cell_length_a     59.511709
_cell_length_b     28.600814
_cell_length_c     93.317312
_cell_angle_alpha  89.985888
_cell_angle_beta   93.68024
_cell_angle_gamma 89.967811
loop_
_atom_site_label
_atom_site_type_symbol
_atom_site_fract_x
_atom_site_fract_y
_atom_site_fract_z
_atom_type_partial_charge
C0 C 0.08985 0.10935 0.46565 0.0
O1 O 0.10903 0.08686 0.46504 0.0
O2 O 0.13847 0.18999 0.45825 0.0
Zn3 Zn 0.11136 0.16796 0.44616 0.0
O4 O 0.12007 0.11326 0.43416 0.0
C5 C 0.106 0.22245 0.42024 0.0
O6 O 0.11871 0.18904 0.41549 0.0
O7 O 0.0869 0.14704 0.45857 0.0
C8 C 0.10473 0.09211 0.42661 0.0
O9 O 0.08374 0.10589 0.42722 0.0
C10 C 0.15619 0.19964 0.45194 0.0
O11 O 0.15613 0.19415 0.43796 0.0
O12 O 0.10033 0.22087 0.43315 0.0
C13 C 0.15776 0.08911 0.78993 0.0
O14 O 0.14044 0.06426 0.79353 0.0
O15 O 0.10796 0.17823 0.79136 0.0
Zn16 Zn 0.13397 0.15802 0.80478 0.0
O17 O 0.12479 0.10888 0.81875 0.0
C18 C 0.12836 0.23729 0.82161 0.0
O19 O 0.10758 0.22242 0.81922 0.0
O20 O 0.15892 0.13195 0.79355 0.0
C21 C 0.10518 0.1028 0.82309 0.0
O22 O 0.08856 0.12975 0.81816 0.0
C23 C 0.09358 0.1515 0.78492 0.0
O24 O 0.0954 0.10602 0.78659 0.0
O25 O 0.14418 0.2147 0.81623 0.0
C26 C 0.90706 0.89378 0.53428 0.0
O27 O 0.88756 0.91522 0.5346 0.0
O28 O 0.85939 0.80723 0.53868 0.0
Zn29 Zn 0.88473 0.83051 0.55206 0.0
O30 O 0.87341 0.88277 0.56414 0.0
C31 C 0.89852 0.73688 0.56046 0.0
O32 O 0.89508 0.72825 0.54667 0.0
O33 O 0.90994 0.85524 0.54093 0.0
C34 C 0.86715 0.87573 0.57673 0.0
O35 O 0.86775 0.8331 0.58198 0.0
C36 C 0.8429 0.78686 0.54402 0.0
O37 O 0.84305 0.78169 0.55802 0.0
O38 O 0.89576 0.77818 0.56503 0.0
C39 C 0.82903 0.84767 0.21472 0.0
O40 O 0.84297 0.81712 0.22095 0.0
O41 O 0.88469 0.8211 0.20436 0.0
Zn42 Zn 0.8587 0.84235 0.19115 0.0
O43 O 0.86797 0.89711 0.17952 0.0
C44 C 0.85252 0.74778 0.18112 0.0
O45 O 0.85842 0.73772 0.19458 0.0
O46 O 0.83236 0.86193 0.20214 0.0
C47 C 0.88376 0.89374 0.17104 0.0
O48 O 0.89463 0.85393 0.17022 0.0
C49 C 0.89974 0.84868 0.20966 0.0
O50 O 0.89813 0.89361 0.20684 0.0
O51 O 0.85056 0.79036 0.17737 0.0
C52 C 0.08947 0.5981 0.95973 0.0
O53 O 0.1087 0.5758 0.95913 0.0
O54 O 0.13847 0.67936 0.95638 0.0
Zn55 Zn 0.11231 0.66254 0.94254 0.0
O56 O 0.12187 0.61244 0.92902 0.0
C57 C 0.10787 0.7599 0.93337 0.0
O58 O 0.12156 0.76856 0.94466 0.0
O59 O 0.08697 0.63732 0.95343 0.0
C60 C 0.12895 0.62236 0.91681 0.0
O61 O 0.13024 0.66638 0.91293 0.0
C62 C 0.15794 0.68575 0.95187 0.0
O63 O 0.16071 0.68194 0.93808 0.0
O64 O 0.10154 0.71817 0.93079 0.0
C65 C 0.16045 0.63633 0.28259 0.0
O66 O 0.14253 0.65148 0.27503 0.0
O67 O 0.10898 0.68302 0.29381 0.0
Zn68 Zn 0.13462 0.65983 0.30703 0.0
O69 O 0.12392 0.60616 0.31862 0.0
C70 C 0.14036 0.75381 0.31768 0.0
O71 O 0.13252 0.76461 0.30462 0.0
O72 O 0.16088 0.63788 0.29622 0.0
C73 C 0.10963 0.6129 0.32796 0.0
O74 O 0.10166 0.65523 0.32971 0.0
C75 C 0.09324 0.65647 0.28884 0.0
O76 O 0.09396 0.61169 0.29198 0.0
O77 O 0.14368 0.71112 0.32092 0.0
C78 C 0.9071 0.3986 0.03289 0.0
O79 O 0.8883 0.42239 0.03358 0.0
O80 O 0.85707 0.31972 0.03802 0.0
Zn81 Zn 0.88374 0.33877 0.05104 0.0
O82 O 0.87557 0.39108 0.06413 0.0
C83 C 0.87994 0.27418 0.07331 0.0
O84 O 0.86176 0.29966 0.07445 0.0
O85 O 0.9092 0.35988 0.03952 0.0
C86 C 0.88986 0.40277 0.07418 0.0
O87 O 0.90944 0.38137 0.07531 0.0
C88 C 0.83851 0.34184 0.03743 0.0
O89 O 0.83662 0.3796 0.04527 0.0
O90 O 0.89298 0.28379 0.06346 0.0
C91 C 0.83437 0.40382 0.70551 0.0
O92 O 0.8525 0.42922 0.70416 0.0
O93 O 0.88516 0.32483 0.70265 0.0
Zn94 Zn 0.85916 0.34164 0.68876 0.0
O95 O 0.86818 0.39217 0.67533 0.0
C96 C 0.86381 0.25039 0.67644 0.0
O97 O 0.88251 0.25096 0.68471 0.0
O98 O 0.8331 0.36373 0.69964 0.0
C99 C 0.88481 0.38621 0.66764 0.0
O100 O 0.89649 0.34728 0.66895 0.0
C101 C 0.90122 0.35194 0.70672 0.0
O102 O 0.90101 0.3955 0.70224 0.0
O103 O 0.85051 0.28518 0.67661 0.0
C104 C 0.58475 0.09306 0.95794 0.0
O105 O 0.60502 0.07466 0.95856 0.0
O106 O 0.63144 0.17463 0.95137 0.0
Zn107 Zn 0.60541 0.15247 0.93827 0.0
O108 O 0.61534 0.10174 0.92523 0.0
C109 C 0.59026 0.2461 0.9308 0.0
O110 O 0.59137 0.25232 0.94478 0.0
O111 O 0.5806 0.12812 0.94983 0.0
C112 C 0.62933 0.11086 0.91588 0.0
O113 O 0.63754 0.15338 0.91517 0.0
C114 C 0.64921 0.15058 0.95393 0.0
O115 O 0.6507 0.10893 0.94814 0.0
O116 O 0.59479 0.20614 0.9258 0.0
C117 C 0.65787 0.08463 0.28855 0.0
O118 O 0.63949 0.0633 0.2921 0.0
O119 O 0.60951 0.17276 0.28821 0.0
Zn120 Zn 0.63584 0.15818 0.30212 0.0
O121 O 0.62698 0.11336 0.31739 0.0
C122 C 0.63205 0.25059 0.31298 0.0
O123 O 0.6114 0.24431 0.30751 0.0
O124 O 0.66044 0.1277 0.29161 0.0
C125 C 0.61164 0.12035 0.32601 0.0
O126 O 0.59998 0.15937 0.32514 0.0
C127 C 0.59177 0.14819 0.28644 0.0
O128 O 0.59034 0.10861 0.29347 0.0
O129 O 0.64643 0.21812 0.31181 0.0
C130 C 0.41053 0.89129 0.0379 0.0
O131 O 0.39014 0.90915 0.03682 0.0
O132 O 0.36302 0.81854 0.04538 0.0
Zn133 Zn 0.3898 0.83638 0.05855 0.0
O134 O 0.38156 0.88904 0.07151 0.0
C135 C 0.40519 0.7425 0.06577 0.0
O136 O 0.40468 0.7371 0.05177 0.0
O137 O 0.41478 0.85813 0.04673 0.0
C138 C 0.36203 0.89386 0.07609 0.0
O139 O 0.34617 0.86376 0.07213 0.0
C140 C 0.34943 0.78631 0.04847 0.0
O141 O 0.35283 0.76359 0.06065 0.0
O142 O 0.39991 0.78185 0.0709 0.0
C143 C 0.33302 0.86679 0.71557 0.0
O144 O 0.34384 0.8306 0.72129 0.0
O145 O 0.39024 0.83969 0.70874 0.0
Zn146 Zn 0.36523 0.85633 0.69407 0.0
O147 O 0.37597 0.90336 0.67992 0.0
C148 C 0.37237 0.77364 0.67882 0.0
O149 O 0.39313 0.78828 0.68159 0.0
O150 O 0.33907 0.88342 0.70379 0.0
C151 C 0.36898 0.90147 0.66677 0.0
O152 O 0.35452 0.86881 0.66254 0.0
C153 C 0.40897 0.86108 0.70992 0.0
O154 O 0.41218 0.8974 0.70168 0.0
O155 O 0.35629 0.79741 0.68342 0.0
C156 C 0.58565 0.58506 0.45093 0.0
O157 O 0.60397 0.56296 0.4476 0.0
O158 O 0.63508 0.6674 0.45174 0.0
Zn159 Zn 0.60865 0.65736 0.43747 0.0
O160 O 0.61688 0.61333 0.42185 0.0
C161 C 0.61368 0.75117 0.42759 0.0
O162 O 0.63411 0.74436 0.43339 0.0
O163 O 0.58342 0.62803 0.44765 0.0
C164 C 0.63216 0.62107 0.41324 0.0
O165 O 0.64376 0.66011 0.41436 0.0
C166 C 0.65216 0.64063 0.45285 0.0
O167 O 0.6528 0.60353 0.4446 0.0
O168 O 0.59916 0.71878 0.4283 0.0
C169 C 0.65996 0.58618 0.78933 0.0
O170 O 0.64081 0.56398 0.7904 0.0
O171 O 0.61285 0.67366 0.79453 0.0
Zn172 Zn 0.63881 0.65075 0.80754 0.0
O173 O 0.62827 0.60157 0.82096 0.0
C174 C 0.65152 0.74573 0.8142 0.0
O175 O 0.6463 0.75189 0.80043 0.0
O176 O 0.66308 0.62486 0.79585 0.0
C177 C 0.61677 0.61385 0.83134 0.0
O178 O 0.61191 0.65829 0.83293 0.0
C179 C 0.59435 0.65167 0.79264 0.0
O180 O 0.59198 0.61122 0.79904 0.0
O181 O 0.65043 0.70492 0.81947 0.0
C182 C 0.41855 0.36 0.53126 0.0
O183 O 0.40613 0.32484 0.52634 0.0
O184 O 0.36272 0.33729 0.54282 0.0
Zn185 Zn 0.38996 0.35591 0.55529 0.0
O186 O 0.38178 0.40823 0.56823 0.0
C187 C 0.39614 0.25961 0.56364 0.0
O188 O 0.38673 0.25199 0.55073 0.0
O189 O 0.41477 0.37782 0.54334 0.0
C190 C 0.36711 0.40232 0.57737 0.0
O191 O 0.35692 0.3617 0.57801 0.0
C192 C 0.35351 0.36427 0.53336 0.0
O193 O 0.36205 0.40604 0.53154 0.0
O194 O 0.39993 0.30141 0.56771 0.0
C195 C 0.33295 0.38132 0.21523 0.0
O196 O 0.35039 0.36529 0.22307 0.0
O197 O 0.38341 0.32883 0.20525 0.0
Zn198 Zn 0.35771 0.34796 0.19137 0.0
O199 O 0.36832 0.39507 0.17738 0.0
C200 C 0.35621 0.25205 0.18169 0.0
O201 O 0.37208 0.24697 0.19201 0.0
O202 O 0.33236 0.37675 0.20166 0.0
C203 C 0.38412 0.38559 0.16931 0.0
O204 O 0.39415 0.3447 0.1705 0.0
C205 C 0.40074 0.3536 0.20838 0.0
O206 O 0.40215 0.39562 0.20283 0.0
O207 O 0.34691 0.2918 0.17977 0.0
H208 H 0.33124 0.28126 0.5352 0.0
H209 H 0.298 0.2551 0.52073 0.0
H210 H 0.29702 0.38466 0.49705 0.0
H211 H 0.33019 0.41157 0.51164 0.0
H212 H 0.25494 0.3586 0.50585 0.0
H213 H 0.29594 0.21134 0.47897 0.0
H214 H 0.2997 0.20956 0.4982 0.0
H215 H 0.31177 0.2567 0.48852 0.0
C216 C 0.32403 0.30421 0.52689 0.0
C217 C 0.33342 0.34846 0.52453 0.0
C218 C 0.3051 0.28905 0.51858 0.0
C219 C 0.2953 0.31762 0.50767 0.0
C220 C 0.30445 0.362 0.50537 0.0
H221 H 0.19597 0.22618 0.44138 0.0
H222 H 0.22941 0.25672 0.45477 0.0
C223 C 0.3234 0.37728 0.5137 0.0
C224 C 0.27518 0.3015 0.49891 0.0
H225 H 0.25589 0.21425 0.47642 0.0
C226 C 0.25515 0.3272 0.49935 0.0
C227 C 0.27562 0.26084 0.49031 0.0
C228 C 0.29696 0.23322 0.48883 0.0
C229 C 0.23534 0.31271 0.49164 0.0
C230 C 0.23556 0.27102 0.4835 0.0
C231 C 0.25573 0.24592 0.48281 0.0
C232 C 0.21511 0.25302 0.47548 0.0
C233 C 0.21445 0.34242 0.49215 0.0
C234 C 0.19608 0.2403 0.48272 0.0
C235 C 0.1769 0.22289 0.4751 0.0
C236 C 0.1765 0.21759 0.4601 0.0
C237 C 0.1957 0.22988 0.45291 0.0
C238 C 0.21484 0.24734 0.46054 0.0
H239 H 0.21855 0.37875 0.49564 0.0
H240 H 0.20504 0.34369 0.48149 0.0
H241 H 0.20325 0.32707 0.49996 0.0
H242 H 0.19614 0.24348 0.49429 0.0
H243 H 0.16244 0.21349 0.48096 0.0
H244 H 0.90662 0.97664 0.51967 0.0
H245 H 0.93775 0.01319 0.50796 0.0
H246 H 0.98079 0.89699 0.52057 0.0
H247 H 0.94973 0.85984 0.53217 0.0
H248 H 0.97991 0.03956 0.52073 0.0
H249 H 0.98869 0.90916 0.47736 0.0
H250 H 0.96409 0.91218 0.48769 0.0
H251 H 0.98941 0.88475 0.49512 0.0
C252 C 0.92265 0.95864 0.51987 0.0
C253 C 0.92567 0.91523 0.52681 0.0
C254 C 0.94042 0.97965 0.51319 0.0
C255 C 0.96146 0.95752 0.51325 0.0
C256 C 0.96455 0.91421 0.52017 0.0
H257 H 0.09037 0.02801 0.48102 0.0
H258 H 0.05934 0.99285 0.49316 0.0
C259 C 0.9468 0.89316 0.52685 0.0
C260 C 0.98037 0.98045 0.50647 0.0
H261 H 0.01722 0.96693 0.48022 0.0
C262 C 0.98802 0.02386 0.51183 0.0
C263 C 0.99089 0.95975 0.49488 0.0
C264 C 0.98277 0.91409 0.48831 0.0
C265 C 0.00623 0.04678 0.50607 0.0
C266 C 0.01679 0.026 0.4945 0.0
C267 C 0.00911 0.98265 0.48913 0.0
C268 C 0.03579 0.04871 0.48774 0.0
C269 C 0.01433 0.09251 0.51259 0.0
C270 C 0.03278 0.09177 0.48067 0.0
C271 C 0.05048 0.11202 0.47372 0.0
C272 C 0.07147 0.08938 0.47367 0.0
C273 C 0.07445 0.04642 0.48088 0.0
C274 C 0.05674 0.02622 0.48781 0.0
H275 H 0.00828 0.0977 0.52349 0.0
H276 H 0.03301 0.09433 0.51329 0.0
H277 H 0.00781 0.12175 0.50569 0.0
H278 H 0.01661 0.10926 0.48027 0.0
H279 H 0.0476 0.14501 0.46821 0.0
H280 H 0.31623 0.84102 0.74101 0.0
H281 H 0.28592 0.87862 0.7533 0.0
H282 H 0.27781 0.98043 0.71927 0.0
H283 H 0.30787 0.94286 0.70682 0.0
H284 H 0.28396 0.97122 0.76301 0.0
H285 H 0.2136 0.93149 0.7229 0.0
H286 H 0.24046 0.90205 0.72305 0.0
H287 H 0.23726 0.95982 0.71561 0.0
C288 C 0.30791 0.87123 0.73609 0.0
C289 C 0.31441 0.88882 0.7229 0.0
C290 C 0.29064 0.8927 0.74314 0.0
C291 C 0.27947 0.93191 0.7371 0.0
C292 C 0.28595 0.94967 0.72397 0.0
H293 H 0.19617 0.12962 0.78096 0.0
H294 H 0.22594 0.09206 0.76812 0.0
C295 C 0.30321 0.92825 0.71691 0.0
C296 C 0.26143 0.95498 0.74471 0.0
H297 H 0.2057 0.98405 0.74161 0.0
C298 C 0.26682 0.97397 0.75837 0.0
C299 C 0.23908 0.95807 0.73865 0.0
C300 C 0.23213 0.93643 0.7243 0.0
C301 C 0.25048 0.9965 0.76608 0.0
C302 C 0.22827 0.00066 0.75986 0.0
C303 C 0.22282 0.98119 0.74628 0.0
C304 C 0.21023 0.02381 0.76746 0.0
C305 C 0.257 0.01486 0.78093 0.0
C306 C 0.19132 -0.00188 0.77102 0.0
C307 C 0.17426 0.01947 0.77826 0.0
C308 C 0.17574 0.06703 0.78203 0.0
C309 C 0.19459 0.09288 0.77828 0.0
C310 C 0.21166 0.07144 0.77101 0.0
H311 H 0.27302 -0.0008 0.78544 0.0
H312 H 0.25934 0.05329 0.78039 0.0
H313 H 0.2436 0.00763 0.78837 0.0
H314 H 0.18987 0.96136 0.7683 0.0
H315 H 0.15996 -0.00144 0.78095 0.0
H316 H 0.08582 0.24375 0.77892 0.0
H317 H 0.05304 0.27825 0.76582 0.0
H318 H 0.02478 0.14091 0.75846 0.0
H319 H 0.05751 0.10588 0.77164 0.0
H320 H 0.03579 0.26014 0.73688 0.0
H321 H 0.97471 0.21591 0.77744 0.0
H322 H 0.0048 0.21495 0.78145 0.0
H323 H 0.99128 0.1679 0.77152 0.0
C324 C 0.07268 0.22077 0.7745 0.0
C325 C 0.07422 0.17203 0.77639 0.0
C326 C 0.05398 0.2406 0.76702 0.0
C327 C 0.03641 0.21215 0.76137 0.0
C328 C 0.03805 0.16346 0.76296 0.0
H329 H 0.90857 0.26159 0.71518 0.0
H330 H 0.94167 0.22952 0.72849 0.0
C331 C 0.0568 0.14352 0.77042 0.0
C332 C 0.01641 0.2336 0.75379 0.0
H333 H 0.95982 0.24912 0.75563 0.0
C334 C 0.01917 0.25793 0.74097 0.0
C335 C 0.99483 0.23062 0.75922 0.0
C336 C 0.99113 0.20629 0.77322 0.0
C337 C 0.00075 0.27854 0.73322 0.0
C338 C 0.97913 0.27553 0.73864 0.0
C339 C 0.97643 0.25141 0.75152 0.0
C340 C 0.95894 0.29587 0.73089 0.0
C341 C 0.00451 0.30216 0.71911 0.0
C342 C 0.95749 0.34403 0.72807 0.0
C343 C 0.93859 0.36255 0.72038 0.0
C344 C 0.92074 0.33322 0.71553 0.0
C345 C 0.92202 0.28519 0.71874 0.0
C346 C 0.94093 0.26674 0.72635 0.0
H347 H 0.02064 0.29114 0.71476 0.0
H348 H 0.99055 0.29434 0.71099 0.0
H349 H 0.00516 0.34057 0.72074 0.0
H350 H 0.97099 0.36728 0.73178 0.0
H351 H 0.93804 0.39972 0.71816 0.0
H352 H 0.83851 0.78615 0.51465 0.0
H353 H 0.80628 0.75887 0.49933 0.0
H354 H 0.77144 0.72238 0.53688 0.0
H355 H 0.80373 0.74863 0.55228 0.0
H356 H 0.76812 0.65412 0.51621 0.0
H357 H 0.74673 0.82783 0.49259 0.0
H358 H 0.77521 0.80995 0.49034 0.0
H359 H 0.76619 0.82072 0.50807 0.0
C360 C 0.82398 0.77235 0.51965 0.0
C361 C 0.82362 0.76984 0.53469 0.0
C362 C 0.80554 0.757 0.51088 0.0
C363 C 0.78633 0.73939 0.51699 0.0
C364 C 0.78607 0.73608 0.53197 0.0
H365 H 0.65434 0.70853 0.47346 0.0
H366 H 0.68677 0.73003 0.48948 0.0
C367 C 0.80453 0.75118 0.54075 0.0
C368 C 0.76648 0.72422 0.50778 0.0
H369 H 0.72706 0.76262 0.4823 0.0
C370 C 0.75909 0.67781 0.50881 0.0
C371 C 0.75456 0.75543 0.4983 0.0
C372 C 0.76091 0.80638 0.49733 0.0
C373 C 0.7402 0.6616 0.5005 0.0
C374 C 0.72873 0.69243 0.49068 0.0
C375 C 0.736 0.73894 0.48976 0.0
C376 C 0.7089 0.67754 0.48139 0.0
C377 C 0.73244 0.61195 0.50254 0.0
C378 C 0.71059 0.6409 0.47151 0.0
C379 C 0.69202 0.62823 0.46242 0.0
C380 C 0.67152 0.65247 0.46291 0.0
C381 C 0.66989 0.68916 0.47281 0.0
C382 C 0.68841 0.70153 0.48196 0.0
H383 H 0.7389 0.59756 0.51308 0.0
H384 H 0.71378 0.60966 0.50181 0.0
H385 H 0.73892 0.58959 0.494 0.0
H386 H 0.7264 0.62265 0.47064 0.0
H387 H 0.69387 0.60008 0.45482 0.0
H388 H 0.65869 0.99119 0.28274 0.0
H389 H 0.68772 0.94737 0.27115 0.0
H390 H 0.72543 0.07448 0.26625 0.0
H391 H 0.69666 0.11858 0.27811 0.0
H392 H 0.70201 0.95684 0.2442 0.0
H393 H 0.77283 0.98705 0.28468 0.0
H394 H 0.74395 -0.00043 0.28815 0.0
H395 H 0.7598 0.04009 0.27804 0.0
C396 C 0.6732 0.00988 0.27926 0.0
C397 C 0.67541 0.05838 0.2814 0.0
C398 C 0.68977 0.98473 0.27264 0.0
C399 C 0.70889 0.00752 0.26805 0.0
C400 C 0.71106 0.05602 0.27001 0.0
H401 H 0.79888 0.91463 0.2053 0.0
H402 H 0.76923 0.95028 0.21849 0.0
C403 C 0.69452 0.08122 0.2767 0.0
C404 C 0.72616 0.98068 0.26078 0.0
H405 H 0.78221 0.95428 0.26233 0.0
C406 C 0.71952 0.95603 0.24821 0.0
C407 C 0.74892 0.97902 0.26616 0.0
C408 C 0.7568 0.00245 0.28008 0.0
C409 C 0.73515 0.93077 0.24065 0.0
C410 C 0.75809 0.93099 0.24566 0.0
C411 C 0.76464 0.95454 0.25844 0.0
C412 C 0.77568 0.90812 0.23757 0.0
C413 C 0.7269 0.90381 0.22745 0.0
C414 C 0.78946 0.87317 0.24403 0.0
C415 C 0.8066 0.85289 0.23655 0.0
C416 C 0.81031 0.86743 0.2225 0.0
C417 C 0.7964 0.90236 0.21607 0.0
C418 C 0.77933 0.92264 0.22356 0.0
H419 H 0.70865 0.89573 0.22754 0.0
H420 H 0.72945 0.92521 0.21777 0.0
H421 H 0.73632 0.87052 0.22653 0.0
H422 H 0.78697 0.86169 0.25488 0.0
H423 H 0.81706 0.82618 0.24182 0.0
H424 H 0.93644 0.89654 0.22116 0.0
H425 H 0.96974 0.86411 0.23439 0.0
H426 H 0.94076 0.7261 0.23098 0.0
H427 H 0.90758 0.75793 0.21762 0.0
H428 H 0.97286 0.81293 0.26022 0.0
H429 H 0.00281 0.70892 0.21497 0.0
H430 H 0.98188 0.75438 0.21243 0.0
H431 H 0.97412 0.69767 0.21879 0.0
C432 C 0.93713 0.85929 0.22323 0.0
C433 C 0.91943 0.82977 0.21825 0.0
C434 C 0.95617 0.84085 0.23079 0.0
C435 C 0.95785 0.79264 0.23342 0.0
C436 C 0.93999 0.76327 0.22877 0.0
H437 H 0.05603 0.61051 0.27732 0.0
H438 H 0.02326 0.64445 0.26393 0.0
C439 C 0.92098 0.78161 0.22122 0.0
C440 C 0.97818 0.77303 0.24118 0.0
H441 H 0.02134 0.69583 0.23792 0.0
C442 C 0.98356 0.78754 0.25534 0.0
C443 C 0.99204 0.73989 0.23475 0.0
C444 C 0.98759 0.72454 0.21935 0.0
C445 C 0.00221 0.76899 0.26338 0.0
C446 C 0.01599 0.73568 0.25697 0.0
C447 C 0.01067 0.72131 0.24279 0.0
C448 C 0.03604 0.71526 0.26483 0.0
C449 C 0.0067 0.78437 0.27877 0.0
C450 C 0.05421 0.74377 0.26951 0.0
C451 C 0.07293 0.72455 0.27716 0.0
C452 C 0.07385 0.67638 0.28019 0.0
C453 C 0.05581 0.64774 0.2752 0.0
C454 C 0.03709 0.66704 0.26755 0.0
H455 H 0.99165 0.80093 0.28309 0.0
H456 H 0.01197 0.75431 0.28573 0.0
H457 H 0.02054 0.81042 0.27936 0.0
H458 H 0.0539 0.78093 0.26726 0.0
H459 H 0.08659 0.74755 0.28078 0.0
H460 H 0.31803 0.71771 0.0513 0.0
H461 H 0.28522 0.70034 0.03502 0.0
H462 H 0.30333 0.81252 0.00713 0.0
H463 H 0.33611 0.83041 0.02335 0.0
H464 H 0.25702 0.81121 0.01386 0.0
H465 H 0.28659 0.63903 0.99476 0.0
H466 H 0.28725 0.64598 0.01393 0.0
H467 H 0.30534 0.68111 0.00364 0.0
C468 C 0.31509 0.73863 0.04168 0.0
C469 C 0.32972 0.77535 0.03859 0.0
C470 C 0.29639 0.72851 0.03238 0.0
C471 C 0.29204 0.75485 0.01982 0.0
C472 C 0.30649 0.79172 0.01675 0.0
H473 H 0.20189 0.69654 0.94578 0.0
H474 H 0.23401 0.71427 0.96253 0.0
C475 C 0.32522 0.8018 0.02602 0.0
C476 C 0.27223 0.74447 0.00997 0.0
H477 H 0.24933 0.66123 0.98728 0.0
C478 C 0.2553 0.77845 0.00803 0.0
C479 C 0.27023 0.70186 0.00233 0.0
C480 C 0.28837 0.66495 0.00363 0.0
C481 C 0.23622 0.77074 -0.00129 0.0
C482 C 0.23402 0.72778 0.99127 0.0
C483 C 0.25105 0.69398 0.99311 0.0
C484 C 0.2144 0.71764 0.98123 0.0
C485 C 0.21876 0.80886 0.99668 0.0
C486 C 0.19278 0.71338 0.98626 0.0
C487 C 0.17436 0.70317 0.97672 0.0
C488 C 0.1773 0.69699 0.962 0.0
C489 C 0.19902 0.70121 0.95704 0.0
C490 C 0.21741 0.71126 0.96659 0.0
H491 H 0.22524 0.84312 0.00075 0.0
H492 H 0.21311 0.81262 0.98517 0.0
H493 H 0.20387 0.79955 0.00267 0.0
H494 H 0.1902 0.71752 -0.00243 0.0
H495 H 0.15786 0.7 0.98089 0.0
H496 H 0.08927 0.51462 0.974 0.0
H497 H 0.05811 0.47944 0.98604 0.0
H498 H 0.01653 0.59915 0.97485 0.0
H499 H 0.04747 0.63444 0.96264 0.0
H500 H 0.03484 0.51557 0.00895 0.0
H501 H 0.97772 0.48803 0.96027 0.0
H502 H 0.00735 0.50036 0.95937 0.0
H503 H 0.98793 0.54682 0.96254 0.0
C504 C 0.07349 0.53346 0.97407 0.0
C505 C 0.07082 0.57723 0.9673 0.0
C506 C 0.05572 0.5133 0.98096 0.0
C507 C 0.03494 0.53638 0.98113 0.0
C508 C 0.0323 0.58036 0.97457 0.0
H509 H 0.90811 0.48078 0.01802 0.0
H510 H 0.9395 0.51327 0.00559 0.0
C511 C 0.05005 0.60057 0.96768 0.0
C512 C 0.01616 0.51486 0.98842 0.0
H513 H 0.9623 0.47483 0.98276 0.0
C514 C 0.01901 0.50638 0.00323 0.0
C515 C 0.99557 0.503 0.98089 0.0
C516 C 0.99194 0.50958 0.96487 0.0
C517 C 0.00159 0.48725 0.01081 0.0
C518 C 0.98096 0.4756 0.00329 0.0
C519 C 0.97815 0.48388 0.98847 0.0
C520 C 0.96196 0.45527 0.01066 0.0
C521 C 0.00521 0.48076 0.02684 0.0
C522 C 0.96412 0.41153 0.01742 0.0
C523 C 0.94622 0.39285 0.02455 0.0
C524 C 0.92582 0.41752 0.02496 0.0
C525 C 0.92361 0.46094 0.01794 0.0
C526 C 0.94151 0.47957 0.01082 0.0
H527 H 0.01968 0.50167 0.03141 0.0
H528 H 0.98992 0.49083 0.03234 0.0
H529 H 0.00878 0.44337 0.02921 0.0
H530 H 0.97964 0.39183 0.01718 0.0
H531 H 0.94844 0.35921 0.02979 0.0
H532 H 0.32899 0.39748 0.24384 0.0
H533 H 0.29948 0.44165 0.25495 0.0
H534 H 0.26657 0.46753 0.21317 0.0
H535 H 0.29578 0.42295 0.20198 0.0
H536 H 0.28757 0.53544 0.25012 0.0
H537 H 0.21551 0.41709 0.23615 0.0
H538 H 0.24444 0.39912 0.23503 0.0
H539 H 0.23092 0.43475 0.22114 0.0
C540 C 0.31538 0.41223 0.23702 0.0
C541 C 0.31469 0.40653 0.22203 0.0
C542 C 0.29856 0.43752 0.24338 0.0
C543 C 0.28072 0.45734 0.23489 0.0
C544 C 0.27996 0.45173 0.21994 0.0
H545 H 0.16434 0.62456 0.25376 0.0
H546 H 0.19433 0.5839 0.24202 0.0
C547 C 0.29674 0.4264 0.21356 0.0
C548 C 0.26328 0.48516 0.24166 0.0
H549 H 0.2069 0.49053 0.24622 0.0
C550 C 0.26993 0.52558 0.24933 0.0
C551 C 0.2403 0.47224 0.24053 0.0
C552 C 0.23232 0.42822 0.23288 0.0
C553 C 0.25414 0.55382 0.25578 0.0
C554 C 0.23118 0.54079 0.2547 0.0
C555 C 0.22452 0.50048 0.24698 0.0
C556 C 0.21379 0.56782 0.26179 0.0
C557 C 0.26212 0.59775 0.26347 0.0
C558 C 0.21484 0.57224 0.27678 0.0
C559 C 0.19778 0.59551 0.28352 0.0
C560 C 0.17925 0.61448 0.27539 0.0
C561 C 0.17839 0.61043 0.26034 0.0
C562 C 0.19548 0.58716 0.25361 0.0
H563 H 0.27875 0.60933 0.26002 0.0
H564 H 0.24982 0.62666 0.26156 0.0
H565 H 0.26391 0.59085 0.27519 0.0
H566 H 0.2286 0.55675 0.28331 0.0
H567 H 0.19891 0.59778 0.29513 0.0
H568 H 0.65076 0.23321 0.96871 0.0
H569 H 0.68291 0.26664 0.98282 0.0
H570 H 0.72297 0.14602 0.97356 0.0
H571 H 0.69098 0.11226 0.95939 0.0
H572 H 0.70839 0.22535 0.00721 0.0
H573 H 0.76036 0.26042 0.96096 0.0
H574 H 0.7304 0.25001 0.95883 0.0
H575 H 0.74951 0.20196 0.96203 0.0
C576 C 0.6664 0.21374 0.96967 0.0
C577 C 0.66835 0.17016 0.96287 0.0
C578 C 0.68472 0.23289 0.97774 0.0
C579 C 0.70533 0.20904 0.97904 0.0
C580 C 0.70727 0.16524 0.97248 0.0
H581 H 0.83642 0.26308 0.02081 0.0
H582 H 0.80368 0.2318 0.00684 0.0
C583 C 0.68893 0.14594 0.96446 0.0
C584 C 0.7248 0.22982 0.98736 0.0
H585 H 0.7778 0.2724 0.9842 0.0
C586 C 0.72355 0.23588 0.0022 0.0
C587 C 0.74448 0.24338 0.98074 0.0
C588 C 0.74633 0.23905 0.96475 0.0
C589 C 0.74175 0.25429 0.0107 0.0
C590 C 0.76147 0.26783 0.00408 0.0
C591 C 0.76264 0.26197 0.98922 0.0
C592 C 0.78124 0.28749 0.01242 0.0
C593 C 0.73993 0.2579 0.02672 0.0
C594 C 0.77953 0.32961 0.01998 0.0
C595 C 0.7982 0.34759 0.028 0.0
C596 C 0.81895 0.32387 0.02851 0.0
C597 C 0.82069 0.28217 0.02067 0.0
C598 C 0.80201 0.26422 0.01268 0.0
H599 H 0.72625 0.23542 0.03045 0.0
H600 H 0.75602 0.24781 0.0326 0.0
H601 H 0.73612 0.29462 0.02954 0.0
H602 H 0.76376 0.34861 0.01967 0.0
H603 H 0.79633 0.37992 0.03385 0.0
H604 H 0.65916 0.50315 0.77477 0.0
H605 H 0.68867 0.47029 0.76069 0.0
H606 H 0.73 0.59166 0.77004 0.0
H607 H 0.70079 0.62452 0.7843 0.0
H608 H 0.70762 0.50779 0.7366 0.0
H609 H 0.77226 0.48331 0.78154 0.0
H610 H 0.743 0.49414 0.7844 0.0
H611 H 0.76119 0.54165 0.78013 0.0
C612 C 0.67457 0.5228 0.77388 0.0
C613 C 0.67768 0.56634 0.78072 0.0
C614 C 0.69139 0.50397 0.76583 0.0
C615 C 0.71164 0.52821 0.76453 0.0
C616 C 0.71469 0.57193 0.77118 0.0
H617 H 0.83242 0.48711 0.71968 0.0
H618 H 0.80199 0.51628 0.73363 0.0
C619 C 0.69791 0.59076 0.77925 0.0
C620 C 0.72939 0.50829 0.75594 0.0
H621 H 0.7844 0.47361 0.75793 0.0
C622 C 0.72437 0.49998 0.74126 0.0
C623 C 0.7512 0.49815 0.76209 0.0
C624 C 0.75724 0.50432 0.77793 0.0
C625 C 0.74079 0.48289 0.73246 0.0
C626 C 0.76265 0.47329 0.73858 0.0
C627 C 0.76761 0.48119 0.75328 0.0
C628 C 0.78077 0.45555 0.7299 0.0
C629 C 0.73479 0.4764 0.71663 0.0
C630 C 0.77895 0.41156 0.72328 0.0
C631 C 0.79632 0.39474 0.71529 0.0
C632 C 0.81584 0.42159 0.71384 0.0
C633 C 0.8176 0.46558 0.72055 0.0
C634 C 0.80025 0.48231 0.72854 0.0
H635 H 0.7191 0.49535 0.71309 0.0
H636 H 0.74864 0.48879 0.71016 0.0
H637 H 0.73211 0.43866 0.71436 0.0
H638 H 0.7642 0.39004 0.72442 0.0
H639 H 0.79447 0.36063 0.71031 0.0
H640 H 0.54054 0.11955 0.95805 0.0
H641 H 0.51113 0.08469 0.97179 0.0
H642 H 0.55908 0.98525 0.99037 0.0
H643 H 0.58863 0.01997 0.97679 0.0
H644 H 0.49629 0.98983 0.971 0.0
H645 H 0.53033 0.04266 0.02543 0.0
H646 H 0.53941 0.06934 0.00925 0.0
H647 H 0.54998 0.01288 0.01479 0.0
C648 C 0.54487 0.09042 0.96512 0.0
C649 C 0.56695 0.07264 0.96637 0.0
C650 C 0.52804 0.07053 0.97293 0.0
C651 C 0.53303 0.03283 0.98221 0.0
C652 C 0.555 0.01487 0.98345 0.0
H653 H 0.45469 0.86429 0.03813 0.0
H654 H 0.48422 0.89735 0.02411 0.0
C655 C 0.57183 0.03464 0.97562 0.0
C656 C 0.51511 0.01147 0.99033 0.0
H657 H 0.49932 0.99054 0.02426 0.0
C658 C 0.49686 0.99012 0.98264 0.0
C659 C 0.51603 0.01181 0.0055 0.0
C660 C 0.53487 0.03572 0.01427 0.0
C661 C 0.4796 0.96842 0.98975 0.0
C662 C 0.48048 0.9689 0.00493 0.0
C663 C 0.49876 0.99017 0.01262 0.0
C664 C 0.46242 0.94812 0.01307 0.0
C665 C 0.46082 0.94438 0.98097 0.0
C666 C 0.44044 0.966 0.01156 0.0
C667 C 0.42354 0.94721 0.01953 0.0
C668 C 0.42835 0.91036 0.02923 0.0
C669 C 0.45042 0.89257 0.03073 0.0
C670 C 0.46731 0.91143 0.02274 0.0
H671 H 0.46562 0.93654 0.96991 0.0
H672 H 0.45595 0.91123 0.98614 0.0
H673 H 0.44585 0.96761 0.98013 0.0
H674 H 0.43643 0.99493 0.00435 0.0
H675 H 0.40675 0.96187 0.01817 0.0
H676 H 0.40242 0.26909 0.22205 0.0
H677 H 0.43444 0.23416 0.23583 0.0
H678 H 0.4742 0.35694 0.22858 0.0
H679 H 0.44213 0.39257 0.21496 0.0
H680 H 0.47616 0.21363 0.22601 0.0
H681 H 0.48436 0.33751 0.27181 0.0
H682 H 0.45956 0.33508 0.25963 0.0
H683 H 0.48435 0.36517 0.25454 0.0
C684 C 0.41789 0.28894 0.2235 0.0
C685 C 0.41971 0.3337 0.21743 0.0
C686 C 0.43617 0.26885 0.23136 0.0
C687 C 0.45659 0.29316 0.23336 0.0
C688 C 0.45844 0.33798 0.22741 0.0
H689 H 0.589 0.23033 0.27152 0.0
H690 H 0.55605 0.26327 0.25822 0.0
C691 C 0.44013 0.35819 0.21957 0.0
C692 C 0.47623 0.27066 0.24109 0.0
H693 H 0.51426 0.2832 0.26979 0.0
C694 C 0.48442 0.22864 0.23564 0.0
C695 C 0.48693 0.29037 0.25364 0.0
C696 C 0.47825 0.33428 0.26035 0.0
C697 C 0.50338 0.2063 0.24223 0.0
C698 C 0.51419 0.22627 0.25469 0.0
C699 C 0.50593 0.26811 0.2602 0.0
C700 C 0.53431 0.20469 0.26213 0.0
C701 C 0.51201 0.16216 0.23563 0.0
C702 C 0.53298 0.16071 0.26868 0.0
C703 C 0.55182 0.14165 0.2763 0.0
C704 C 0.57225 0.16644 0.27753 0.0
C705 C 0.57355 0.21024 0.27077 0.0
C706 C 0.55473 0.22921 0.26318 0.0
H707 H 0.50505 0.15736 0.2244 0.0
H708 H 0.53068 0.16249 0.23574 0.0
H709 H 0.50693 0.13161 0.242 0.0
H710 H 0.51724 0.14158 0.26817 0.0
H711 H 0.55023 0.10797 0.28144 0.0
H712 H 0.40836 0.78421 0.72728 0.0
H713 H 0.43979 0.75056 0.74196 0.0
H714 H 0.48313 0.86142 0.72893 0.0
H715 H 0.45174 0.89566 0.71428 0.0
H716 H 0.48091 0.72007 0.73143 0.0
H717 H 0.49432 0.85805 0.77301 0.0
H718 H 0.46865 0.85354 0.76167 0.0
H719 H 0.49346 0.87851 0.75478 0.0
C720 C 0.4245 0.8018 0.72765 0.0
C721 C 0.42755 0.84266 0.71961 0.0
C722 C 0.44243 0.78245 0.73603 0.0
C723 C 0.46368 0.80375 0.73662 0.0
C724 C 0.46674 0.84491 0.7288 0.0
H725 H 0.59422 0.73309 0.77729 0.0
H726 H 0.56254 0.76875 0.76333 0.0
C727 C 0.44881 0.86429 0.72039 0.0
C728 C 0.48291 0.78144 0.74481 0.0
H729 H 0.52169 0.79782 0.7729 0.0
C730 C 0.48979 0.7369 0.74055 0.0
C731 C 0.49446 0.80371 0.75662 0.0
C732 C 0.48729 0.85093 0.76191 0.0
C733 C 0.50819 0.71423 0.74767 0.0
C734 C 0.5197 0.73638 0.75953 0.0
C735 C 0.51282 0.78097 0.76379 0.0
C736 C 0.53892 0.7139 0.76771 0.0
C737 C 0.51546 0.66727 0.74221 0.0
C738 C 0.53609 0.67133 0.77486 0.0
C739 C 0.55418 0.6507 0.78279 0.0
C740 C 0.57538 0.67254 0.78382 0.0
C741 C 0.57813 0.71528 0.77668 0.0
C742 C 0.56004 0.73578 0.76872 0.0
H743 H 0.50897 0.66115 0.73094 0.0
H744 H 0.5341 0.66421 0.7428 0.0
H745 H 0.50871 0.63928 0.74896 0.0
H746 H 0.51979 0.65437 0.77446 0.0
H747 H 0.55146 0.61797 0.78825 0.0
H748 H 0.43076 0.33191 0.50479 0.0
H749 H 0.45969 0.36636 0.49052 0.0
H750 H 0.47487 0.46804 0.52386 0.0
H751 H 0.4463 0.43365 0.53824 0.0
H752 H 0.46229 0.45806 0.48034 0.0
H753 H 0.53676 0.41379 0.51659 0.0
H754 H 0.5096 0.38679 0.51813 0.0
H755 H 0.51513 0.44416 0.52541 0.0
C756 C 0.44037 0.36139 0.50913 0.0
C757 C 0.4363 0.37988 0.52268 0.0
C758 C 0.45685 0.38106 0.50095 0.0
C759 C 0.46962 0.41929 0.50624 0.0
C760 C 0.46552 0.43794 0.51972 0.0
H761 H 0.54654 0.62065 0.46046 0.0
H762 H 0.51801 0.57897 0.47326 0.0
C763 C 0.44909 0.41834 0.52789 0.0
C764 C 0.48679 0.44072 0.49751 0.0
H765 H 0.54254 0.46893 0.49803 0.0
C766 C 0.47988 0.46019 0.48414 0.0
C767 C 0.50974 0.44289 0.50244 0.0
C768 C 0.51834 0.4204 0.51636 0.0
C769 C 0.49524 0.48293 0.47572 0.0
C770 C 0.51801 0.48687 0.48094 0.0
C771 C 0.52501 0.46631 0.49413 0.0
C772 C 0.53492 0.51199 0.47288 0.0
C773 C 0.48702 0.50212 0.46126 0.0
C774 C 0.55408 0.48837 0.4687 0.0
C775 C 0.57048 0.51213 0.4615 0.0
C776 C 0.56806 0.56006 0.4584 0.0
C777 C 0.54884 0.58369 0.46262 0.0
C778 C 0.53245 0.55987 0.46985 0.0
H779 H 0.47099 0.48541 0.45721 0.0
H780 H 0.48392 0.54021 0.46224 0.0
H781 H 0.49976 0.4969 0.45321 0.0
H782 H 0.55635 0.45147 0.471 0.0
H783 H 0.58508 0.49287 0.45841 0.0
H784 H 0.1563 0.74349 0.34567 0.0
H785 H 0.15453 0.80063 0.36505 0.0
H786 H 0.12607 0.90228 0.33494 0.0
H787 H 0.12818 0.84579 0.31543 0.0
H788 H 0.15751 0.94045 0.355 0.0
H789 H 0.09412 0.83266 0.38118 0.0
H790 H 0.12018 0.80323 0.37849 0.0
H791 H 0.10227 0.82115 0.36323 0.0
C792 C 0.14994 0.7782 0.34312 0.0
C793 C 0.14212 0.78994 0.32903 0.0
C794 C 0.14883 0.81069 0.35423 0.0
C795 C 0.1397 0.85526 0.35147 0.0
C796 C 0.13303 0.86792 0.3373 0.0
H797 H 0.07642 0.04603 0.40726 0.0
H798 H 0.08638 0.98821 0.38949 0.0
C799 C 0.13424 0.83556 0.32617 0.0
C800 C 0.13598 0.88798 0.36337 0.0
H801 H 0.10619 0.90171 0.39315 0.0
C802 C 0.14639 0.93199 0.3634 0.0
C803 C 0.12119 0.87695 0.37416 0.0
C804 C 0.10861 0.83113 0.37426 0.0
C805 C 0.14232 0.96546 0.37392 0.0
C806 C 0.12776 0.95416 0.38483 0.0
C807 C 0.11748 0.91005 0.38484 0.0
C808 C 0.12199 0.98846 0.39589 0.0
C809 C 0.15302 0.0131 0.373 0.0
C810 C 0.13867 0.00711 0.40554 0.0
C811 C 0.13304 0.04036 0.41569 0.0
C812 C 0.1106 0.05516 0.41642 0.0
C813 C 0.09387 0.03545 0.40697 0.0
C814 C 0.09952 0.0024 0.39681 0.0
H815 H 0.15928 0.01972 0.36222 0.0
H816 H 0.14088 0.0411 0.3754 0.0
H817 H 0.16756 0.0154 0.38103 0.0
H818 H 0.15603 0.99604 0.40521 0.0
H819 H 0.1463 0.05467 0.42288 0.0
H820 H 0.08309 0.30185 0.4271 0.0
H821 H 0.07518 0.37037 0.4118 0.0
H822 H 0.10712 0.30264 0.37716 0.0
H823 H 0.11479 0.23417 0.39219 0.0
H824 H 0.10723 0.42498 0.40006 0.0
H825 H 0.0497 0.35248 0.35681 0.0
H826 H 0.05533 0.32305 0.37379 0.0
H827 H 0.07461 0.31757 0.35978 0.0
C828 C 0.08811 0.30131 0.41615 0.0
C829 C 0.09959 0.26259 0.41086 0.0
C830 C 0.08356 0.34044 0.40743 0.0
C831 C 0.09022 0.34124 0.39327 0.0
C832 C 0.10131 0.30231 0.38792 0.0
H833 H 0.12174 0.5211 0.3263 0.0
H834 H 0.11322 0.45792 0.3427 0.0
C835 C 0.10587 0.26332 0.3966 0.0
C836 C 0.08763 0.38411 0.38443 0.0
H837 H 0.07001 0.42245 0.35094 0.0
C838 C 0.09866 0.42487 0.38944 0.0
C839 C 0.07641 0.38379 0.37061 0.0
C840 C 0.06315 0.34198 0.36499 0.0
C841 C 0.10004 0.46433 0.38061 0.0
C842 C 0.08987 0.46303 0.3665 0.0
C843 C 0.07788 0.42315 0.36175 0.0
C844 C 0.09331 0.50097 0.35612 0.0
C845 C 0.11344 0.50612 0.38613 0.0
C846 C 0.08453 0.54585 0.35812 0.0
C847 C 0.08939 0.58215 0.34876 0.0
C848 C 0.10311 0.57403 0.33728 0.0
C849 C 0.11125 0.52861 0.33508 0.0
C850 C 0.10634 0.49241 0.34441 0.0
H851 H 0.12308 0.49872 0.39648 0.0
H852 H 0.1254 0.51744 0.37815 0.0
H853 H 0.10182 0.53566 0.38783 0.0
H854 H 0.07421 0.55291 0.36702 0.0
H855 H 0.08277 0.61669 0.3507 0.0
H856 H 0.09789 0.28982 0.83496 0.0
H857 H 0.10482 0.35907 0.84971 0.0
H858 H 0.17579 0.35023 0.84323 0.0
H859 H 0.16904 0.27991 0.82847 0.0
H860 H 0.16644 0.36571 0.87184 0.0
H861 H 0.1194 0.49024 0.83587 0.0
H862 H 0.10282 0.43982 0.83958 0.0
H863 H 0.1279 0.43315 0.82996 0.0
C864 C 0.11499 0.30257 0.83657 0.0
C865 C 0.13291 0.27949 0.83047 0.0
C866 C 0.11889 0.34239 0.84495 0.0
C867 C 0.14073 0.3603 0.84731 0.0
C868 C 0.15877 0.33713 0.8414 0.0
H869 H 0.14751 0.63142 0.89091 0.0
H870 H 0.15531 0.56931 0.87391 0.0
C871 C 0.15489 0.29705 0.83299 0.0
C872 C 0.14447 0.40231 0.85638 0.0
H873 H 0.12498 0.51318 0.86069 0.0
C874 C 0.15773 0.3983 0.86931 0.0
C875 C 0.13347 0.44506 0.85293 0.0
C876 C 0.1203 0.45255 0.83875 0.0
C877 C 0.15907 0.43501 0.87931 0.0
C878 C 0.14645 0.47626 0.87638 0.0
C879 C 0.13441 0.48131 0.86304 0.0
C880 C 0.14411 0.51325 0.8873 0.0
C881 C 0.17372 0.42895 0.89298 0.0
C882 C 0.13526 0.50234 0.90048 0.0
C883 C 0.13087 0.53768 0.91023 0.0
C884 C 0.13495 0.58472 0.9069 0.0
C885 C 0.14413 0.59553 0.89378 0.0
C886 C 0.14864 0.5601 0.88406 0.0
H887 H 0.1878 0.40432 0.89142 0.0
H888 H 0.18083 0.46285 0.89689 0.0
H889 H 0.16347 0.41409 0.9014 0.0
H890 H 0.13104 0.46661 0.90304 0.0
H891 H 0.12371 0.5282 0.92021 0.0
H892 H 0.1239 0.84945 0.93303 0.0
H893 H 0.11683 0.90802 0.91424 0.0
H894 H 0.07072 0.81394 0.8913 0.0
H895 H 0.07808 0.7547 0.90989 0.0
H896 H 0.10138 0.84751 0.87433 0.0
H897 H 0.06485 0.99457 0.90348 0.0
H898 H 0.09096 0.97508 0.91214 0.0
H899 H 0.0671 0.93627 0.91087 0.0
C900 C 0.11196 0.84147 0.92412 0.0
C901 C 0.10163 0.79735 0.92293 0.0
C902 C 0.1078 0.87516 0.91343 0.0
C903 C 0.09301 0.8656 0.90146 0.0
C904 C 0.08211 0.82212 0.90048 0.0
H905 H 0.06577 0.08044 0.83517 0.0
H906 H 0.06016 0.02077 0.85347 0.0
C907 C 0.08636 0.78831 0.91111 0.0
C908 C 0.09071 0.89904 0.88932 0.0
H909 H 0.08064 0.01372 0.88103 0.0
C910 C 0.09651 0.88368 0.87575 0.0
C911 C 0.08403 0.94605 0.89112 0.0
C912 C 0.07615 0.96384 0.90516 0.0
C913 C 0.09687 0.91457 0.86411 0.0
C914 C 0.09177 0.96228 0.86618 0.0
C915 C 0.08485 0.97722 0.87953 0.0
C916 C 0.09484 0.9976 0.85489 0.0
C917 C 0.10294 0.89588 0.84974 0.0
C918 C 0.11623 0.00456 0.84976 0.0
C919 C 0.11948 0.03838 0.83933 0.0
C920 C 0.10143 0.06628 0.8339 0.0
C921 C 0.08 0.05943 0.8391 0.0
C922 C 0.07677 0.02544 0.84956 0.0
H923 H 0.09937 0.85785 0.84875 0.0
H924 H 0.09356 0.91445 0.84077 0.0
H925 H 0.12123 0.90099 0.84862 0.0
H926 H 0.13051 0.98417 0.85397 0.0
H927 H 0.13623 0.04289 0.83564 0.0
H928 H 0.88869 0.17122 0.67395 0.0
H929 H 0.88381 0.11043 0.6557 0.0
H930 H 0.82463 0.18054 0.63729 0.0
H931 H 0.82927 0.24177 0.65565 0.0
H932 H 0.82091 0.07959 0.63975 0.0
H933 H 0.89719 0.13599 0.61327 0.0
H934 H 0.902 0.12603 0.63223 0.0
H935 H 0.88349 0.17239 0.62591 0.0
C936 C 0.87453 0.17369 0.6661 0.0
C937 C 0.85949 0.2116 0.66616 0.0
C938 C 0.87182 0.13897 0.65566 0.0
C939 C 0.85411 0.14156 0.64503 0.0
C940 C 0.83849 0.17821 0.64537 0.0
H941 H 0.86221 0.96744 0.56882 0.0
H942 H 0.85498 0.03404 0.58429 0.0
C943 C 0.84118 0.21309 0.65585 0.0
C944 C 0.85253 0.10656 0.63337 0.0
H945 H 0.88235 0.06107 0.60667 0.0
C946 C 0.83417 0.07576 0.63238 0.0
C947 C 0.86965 0.10235 0.62363 0.0
C948 C 0.8891 0.13622 0.62368 0.0
C949 C 0.83305 0.03925 0.6223 0.0
C950 C 0.85094 0.03322 0.61318 0.0
C951 C 0.86873 0.06546 0.61375 0.0
C952 C 0.85234 0.99246 0.60349 0.0
C953 C 0.81281 0.00742 0.62155 0.0
C954 C 0.85308 0.94696 0.60913 0.0
C955 C 0.85713 0.90881 0.60031 0.0
C956 C 0.86082 0.91556 0.58573 0.0
C957 C 0.85952 0.96107 0.58002 0.0
C958 C 0.85534 -0.00084 0.58883 0.0
H959 H 0.79785 0.02517 0.62559 0.0
H960 H 0.80859 0.99531 0.6104 0.0
H961 H 0.81653 0.97633 0.62842 0.0
H962 H 0.85139 0.94105 0.62047 0.0
H963 H 0.85811 0.87425 0.60506 0.0
H964 H 0.86225 0.46743 0.66111 0.0
H965 H 0.86936 0.523 0.64205 0.0
H966 H 0.92602 0.44061 0.63032 0.0
H967 H 0.91912 0.38465 0.64944 0.0
H968 H 0.93345 0.54131 0.63185 0.0
H969 H 0.85643 0.49168 0.59864 0.0
H970 H 0.85162 0.50552 0.61698 0.0
H971 H 0.86839 0.45542 0.61304 0.0
C972 C 0.8763 0.46114 0.65454 0.0
C973 C 0.89001 0.42139 0.65671 0.0
C974 C 0.88027 0.49285 0.64362 0.0
C975 C 0.89798 0.48541 0.63467 0.0
C976 C 0.91218 0.44669 0.63708 0.0
H977 H 0.90212 0.64337 0.55474 0.0
H978 H 0.90576 0.57934 0.57215 0.0
C979 C 0.90818 0.41479 0.64799 0.0
C980 C 0.90131 0.51784 0.62266 0.0
H981 H 0.87489 0.56152 0.59202 0.0
C982 C 0.92079 0.54549 0.62305 0.0
C983 C 0.88494 0.5225 0.61109 0.0
C984 C 0.86425 0.49193 0.60978 0.0
C985 C 0.92385 0.57935 0.61245 0.0
C986 C 0.90684 0.58585 0.60132 0.0
C987 C 0.88785 0.55668 0.60061 0.0
C988 C 0.90757 0.62447 0.5908 0.0
C989 C 0.94516 0.60802 0.6133 0.0
C990 C 0.90758 0.67102 0.59552 0.0
C991 C 0.9055 0.70762 0.58563 0.0
C992 C 0.90319 0.69833 0.5708 0.0
C993 C 0.90387 0.6517 0.56608 0.0
C994 C 0.90595 0.61508 0.576 0.0
H995 H 0.95907 0.58956 0.61947 0.0
H996 H 0.95062 0.61629 0.60242 0.0
H997 H 0.94204 0.64142 0.61889 0.0
H998 H 0.90829 0.67904 0.60688 0.0
H999 H 0.90497 0.74312 0.58964 0.0
H1000 H 0.91636 0.43407 0.09714 0.0
H1001 H 0.90675 0.4916 0.1151 0.0
H1002 H 0.84123 0.51012 0.09332 0.0
H1003 H 0.85057 0.45212 0.07535 0.0
H1004 H 0.89451 0.58508 0.11069 0.0
H1005 H 0.82694 0.48442 0.13523 0.0
H1006 H 0.84669 0.45767 0.12381 0.0
H1007 H 0.82344 0.49121 0.11607 0.0
C1008 C 0.89988 0.45027 0.09616 0.0
C1009 C 0.8842 0.43843 0.08484 0.0
C1010 C 0.89443 0.48312 0.10644 0.0
C1011 C 0.87318 0.50455 0.10564 0.0
C1012 C 0.85756 0.49326 0.09428 0.0
H1013 H 0.84229 0.75742 0.15228 0.0
H1014 H 0.84521 0.69787 0.13371 0.0
C1015 C 0.86299 0.46037 0.08397 0.0
C1016 C 0.86774 0.5397 0.11652 0.0
H1017 H 0.83273 0.56236 0.14329 0.0
C1018 C 0.88098 0.5802 0.1178 0.0
C1019 C 0.85022 0.53287 0.12586 0.0
C1020 C 0.83609 0.48904 0.12531 0.0
C1021 C 0.87715 0.61425 0.12816 0.0
C1022 C 0.85937 0.60787 0.13733 0.0
C1023 C 0.84618 0.56727 0.13612 0.0
C1024 C 0.8549 0.64236 0.1486 0.0
C1025 C 0.89252 0.65622 0.12945 0.0
C1026 C 0.85841 0.63023 0.16313 0.0
C1027 C 0.85666 0.6641 0.1738 0.0
C1028 C 0.85132 0.71063 0.17007 0.0
C1029 C 0.84662 0.722 0.15552 0.0
C1030 C 0.84836 0.6881 0.14488 0.0
H1031 H 0.90822 0.65072 0.12385 0.0
H1032 H 0.88367 0.68703 0.12455 0.0
H1033 H 0.89712 0.66443 0.1409 0.0
H1034 H 0.86337 0.59497 0.16619 0.0
H1035 H 0.86028 0.65414 0.1849 0.0
H1036 H 0.86313 0.97894 0.16951 0.0
H1037 H 0.86941 0.04239 0.15278 0.0
H1038 H 0.9221 0.96263 0.13457 0.0
H1039 H 0.91568 0.89831 0.15117 0.0
H1040 H 0.90806 0.09486 0.14824 0.0
H1041 H 0.87907 0.99286 0.09967 0.0
H1042 H 0.87426 0.97343 0.11761 0.0
H1043 H 0.90168 0.96768 0.11082 0.0
C1044 C 0.87613 0.97483 0.162 0.0
C1045 C 0.88876 0.93337 0.16158 0.0
C1046 C 0.87972 0.01121 0.15246 0.0
C1047 C 0.89598 0.00688 0.14231 0.0
C1048 C 0.90918 0.96624 0.14216 0.0
H1049 H 0.91313 0.20786 0.07233 0.0
H1050 H 0.92081 0.14302 0.08918 0.0
C1051 C 0.90556 0.92966 0.15169 0.0
C1052 C 0.89847 0.04476 0.13174 0.0
H1053 H 0.88881 0.07145 0.09621 0.0
C1054 C 0.9041 0.08967 0.13684 0.0
C1055 C 0.89337 0.03776 0.11687 0.0
C1056 C 0.88659 0.99047 0.11086 0.0
C1057 C 0.90408 0.12811 0.12752 0.0
C1058 C 0.89803 0.12144 0.11277 0.0
C1059 C 0.89344 0.07626 0.10754 0.0
C1060 C 0.89421 0.1614 0.10288 0.0
C1061 C 0.91009 0.17574 0.13355 0.0
C1062 C 0.87656 0.19264 0.10496 0.0
C1063 C 0.87203 0.22931 0.09536 0.0
C1064 C 0.88508 0.23543 0.08347 0.0
C1065 C 0.90283 0.20411 0.08142 0.0
C1066 C 0.90725 0.16713 0.09101 0.0
H1067 H 0.92028 0.17312 0.14392 0.0
H1068 H 0.91962 0.19639 0.12589 0.0
H1069 H 0.8944 0.19504 0.1355 0.0
H1070 H 0.86604 0.18822 0.11392 0.0
H1071 H 0.85823 0.25276 0.09726 0.0
H1072 H 0.66175 0.74482 0.84316 0.0
H1073 H 0.66278 0.81159 0.85951 0.0
H1074 H 0.65126 0.90522 0.82357 0.0
H1075 H 0.65004 0.83859 0.80708 0.0
H1076 H 0.68872 0.89823 0.86114 0.0
H1077 H 0.5967 0.92377 0.84896 0.0
H1078 H 0.61111 0.871 0.84421 0.0
H1079 H 0.61388 0.92323 0.8338 0.0
C1080 C 0.65976 0.77964 0.83869 0.0
C1081 C 0.6555 0.78636 0.82383 0.0
C1082 C 0.66043 0.81774 0.84805 0.0
C1083 C 0.65678 0.86312 0.84273 0.0
C1084 C 0.65383 0.87029 0.82786 0.0
H1085 H 0.6586 0.11854 0.89453 0.0
H1086 H 0.66702 0.05944 0.87665 0.0
C1087 C 0.6532 0.8322 0.81847 0.0
C1088 C 0.65417 0.90216 0.85286 0.0
H1089 H 0.61476 0.9753 0.86559 0.0
C1090 C 0.67263 0.91544 0.86206 0.0
C1091 C 0.63304 0.92392 0.85412 0.0
C1092 C 0.61245 0.90968 0.84485 0.0
C1093 C 0.67046 0.94997 0.87259 0.0
C1094 C 0.64933 0.97165 0.87383 0.0
C1095 C 0.63095 0.95861 0.86454 0.0
C1096 C 0.64551 0.00654 0.8851 0.0
C1097 C 0.69054 0.96205 0.88259 0.0
C1098 C 0.63057 0.99631 0.89568 0.0
C1099 C 0.62568 0.0299 0.90587 0.0
C1100 C 0.63553 0.07453 0.90557 0.0
C1101 C 0.65076 0.08448 0.89506 0.0
C1102 C 0.65568 0.05073 0.88488 0.0
H1103 H 0.70443 0.93633 0.88191 0.0
H1104 H 0.69697 0.99702 0.87972 0.0
H1105 H 0.68566 0.96368 0.89387 0.0
H1106 H 0.62251 0.96239 0.89597 0.0
H1107 H 0.6139 0.02108 0.91382 0.0
H1108 H 0.58107 0.33706 0.9376 0.0
H1109 H 0.57855 0.40421 0.92128 0.0
H1110 H 0.58901 0.31294 0.88552 0.0
H1111 H 0.59102 0.24584 0.9016 0.0
H1112 H 0.61207 0.43439 0.90563 0.0
H1113 H 0.53822 0.39307 0.86889 0.0
H1114 H 0.5438 0.36322 0.8858 0.0
H1115 H 0.55781 0.34538 0.87015 0.0
C1116 C 0.58239 0.3312 0.92622 0.0
C1117 C 0.58628 0.28611 0.92091 0.0
C1118 C 0.58095 0.3696 0.91692 0.0
C1119 C 0.58326 0.36352 0.90215 0.0
C1120 C 0.58657 0.31838 0.8968 0.0
H1121 H 0.62078 0.5188 0.82986 0.0
H1122 H 0.61025 0.46115 0.84761 0.0
C1123 C 0.58791 0.28003 0.90605 0.0
C1124 C 0.58461 0.4045 0.89253 0.0
H1125 H 0.56497 0.4478 0.85998 0.0
C1126 C 0.60147 0.43786 0.89579 0.0
C1127 C 0.57078 0.40895 0.87968 0.0
C1128 C 0.55149 0.37597 0.876 0.0
C1129 C 0.60562 0.47416 0.88621 0.0
C1130 C 0.59247 0.47726 0.8731 0.0
C1131 C 0.57509 0.445 0.87003 0.0
C1132 C 0.59744 0.51223 0.8621 0.0
C1133 C 0.62468 0.50778 0.88986 0.0
C1134 C 0.59338 0.55986 0.86434 0.0
C1135 C 0.59932 0.59291 0.85422 0.0
C1136 C 0.6095 0.57877 0.84172 0.0
C1137 C 0.61309 0.53085 0.8394 0.0
C1138 C 0.60703 0.49786 0.84949 0.0
H1139 H 0.63519 0.49674 0.89954 0.0
H1140 H 0.63561 0.51095 0.8807 0.0
H1141 H 0.61767 0.54292 0.89192 0.0
H1142 H 0.58583 0.57146 0.87398 0.0
H1143 H 0.59627 0.62954 0.8563 0.0
H1144 H 0.67261 0.27471 0.32675 0.0
H1145 H 0.68041 0.34264 0.34232 0.0
H1146 H 0.61199 0.38993 0.33397 0.0
H1147 H 0.6042 0.32322 0.31824 0.0
H1148 H 0.64295 0.46221 0.3341 0.0
H1149 H 0.65661 0.34865 0.38238 0.0
H1150 H 0.67462 0.338 0.36799 0.0
H1151 H 0.64497 0.32648 0.3654 0.0
C1152 C 0.65931 0.29987 0.32812 0.0
C1153 C 0.63771 0.29329 0.32139 0.0
C1154 C 0.66378 0.33851 0.33706 0.0
C1155 C 0.64667 0.37085 0.33948 0.0
C1156 C 0.62542 0.36533 0.33228 0.0
H1157 H 0.61013 0.53888 0.4078 0.0
H1158 H 0.61743 0.48077 0.38959 0.0
C1159 C 0.62098 0.32701 0.32333 0.0
C1160 C 0.65009 0.40907 0.35009 0.0
H1161 H 0.65656 0.4296 0.38614 0.0
C1162 C 0.64627 0.45529 0.34547 0.0
C1163 C 0.65425 0.3997 0.36491 0.0
C1164 C 0.6577 0.35056 0.37055 0.0
C1165 C 0.64552 0.49222 0.35534 0.0
C1166 C 0.64907 0.4826 0.37018 0.0
C1167 C 0.65392 0.43674 0.37474 0.0
C1168 C 0.6453 0.51837 0.38123 0.0
C1169 C 0.63966 0.54067 0.34988 0.0
C1170 C 0.65865 0.55874 0.38261 0.0
C1171 C 0.65443 0.59235 0.39301 0.0
C1172 C 0.63688 0.58586 0.40222 0.0
C1173 C 0.62375 0.54506 0.40087 0.0
C1174 C 0.62794 0.51171 0.39049 0.0
H1175 H 0.63357 0.54053 0.33837 0.0
H1176 H 0.62648 0.55659 0.35623 0.0
H1177 H 0.65484 0.56317 0.35106 0.0
H1178 H 0.67236 0.56416 0.3757 0.0
H1179 H 0.66492 0.62328 0.39384 0.0
H1180 H 0.57341 0.77665 0.41377 0.0
H1181 H 0.56623 0.84419 0.39797 0.0
H1182 H 0.63498 0.88924 0.40628 0.0
H1183 H 0.64217 0.82276 0.42227 0.0
H1184 H 0.60459 0.96275 0.40569 0.0
H1185 H 0.59019 0.8473 0.35796 0.0
H1186 H 0.572 0.8376 0.37231 0.0
H1187 H 0.60161 0.82566 0.37507 0.0
C1188 C 0.58693 0.80123 0.41235 0.0
C1189 C 0.60844 0.79404 0.41914 0.0
C1190 C 0.58281 0.83966 0.40327 0.0
C1191 C 0.60019 0.8712 0.40076 0.0
C1192 C 0.62135 0.86522 0.40804 0.0
H1193 H 0.63392 0.03808 0.33095 0.0
H1194 H 0.62778 0.98007 0.3494 0.0
C1195 C 0.62545 0.82706 0.41714 0.0
C1196 C 0.59702 0.90902 0.38997 0.0
H1197 H 0.58948 0.9282 0.35388 0.0
C1198 C 0.60099 0.95539 0.39437 0.0
C1199 C 0.59253 0.89909 0.37521 0.0
C1200 C 0.589 0.84974 0.36977 0.0
C1201 C 0.60138 0.99196 0.38435 0.0
C1202 C 0.5973 0.98184 0.36957 0.0
C1203 C 0.59249 0.93576 0.36523 0.0
C1204 C 0.6003 0.01742 0.35833 0.0
C1205 C 0.6073 0.04062 0.38957 0.0
C1206 C 0.58672 0.05755 0.35714 0.0
C1207 C 0.59027 0.09111 0.34659 0.0
C1208 C 0.60736 0.08481 0.33703 0.0
C1209 C 0.62064 0.04414 0.33814 0.0
C1210 C 0.61713 0.01084 0.34867 0.0
H1211 H 0.61402 0.04081 0.40096 0.0
H1212 H 0.62001 0.05664 0.38287 0.0
H1213 H 0.59199 0.06283 0.38869 0.0
H1214 H 0.57338 0.06287 0.36434 0.0
H1215 H 0.57967 0.12192 0.34596 0.0
H1216 H 0.37684 0.16703 0.18097 0.0
H1217 H 0.37173 0.107 0.1625 0.0
H1218 H 0.319 0.18886 0.1408 0.0
H1219 H 0.32435 0.2499 0.15911 0.0
H1220 H 0.33546 0.05341 0.1526 0.0
H1221 H 0.3637 0.17139 0.10988 0.0
H1222 H 0.36689 0.18629 0.12868 0.0
H1223 H 0.33989 0.19156 0.11904 0.0
C1224 C 0.36401 0.17221 0.17235 0.0
C1225 C 0.35118 0.21352 0.17142 0.0
C1226 C 0.36109 0.13778 0.16181 0.0
C1227 C 0.34528 0.14389 0.15016 0.0
C1228 C 0.33164 0.18397 0.14955 0.0
H1229 H 0.32223 0.91499 0.08782 0.0
H1230 H 0.31539 0.97669 0.10521 0.0
C1231 C 0.33464 0.21866 0.16006 0.0
C1232 C 0.34401 0.10903 0.1384 0.0
H1233 H 0.3545 0.0942 0.10315 0.0
C1234 C 0.33939 0.06231 0.14174 0.0
C1235 C 0.34939 0.12083 0.1243 0.0
C1236 C 0.35544 0.17012 0.12022 0.0
C1237 C 0.34055 0.02679 0.13145 0.0
C1238 C 0.34609 0.03857 0.11738 0.0
C1239 C 0.35013 0.08544 0.11394 0.0
C1240 C 0.34965 0.00242 0.10641 0.0
C1241 C 0.33688 0.97676 0.13588 0.0
C1242 C 0.37099 0.99739 0.10103 0.0
C1243 C 0.37491 0.96252 0.09104 0.0
C1244 C 0.35753 0.93199 0.08622 0.0
C1245 C 0.33601 0.93773 0.0914 0.0
C1246 C 0.33209 0.97279 0.10138 0.0
H1247 H 0.33738 0.97278 0.14774 0.0
H1248 H 0.32012 0.96491 0.1314 0.0
H1249 H 0.34982 0.95346 0.13163 0.0
H1250 H 0.38475 0.02002 0.10475 0.0
H1251 H 0.39166 0.95918 0.08724 0.0
H1252 H 0.36368 0.46866 0.16232 0.0
H1253 H 0.37263 0.52282 0.14329 0.0
H1254 H 0.42738 0.43395 0.13217 0.0
H1255 H 0.41854 0.37913 0.15124 0.0
H1256 H 0.43665 0.53667 0.13473 0.0
H1257 H 0.36144 0.49103 0.0992 0.0
H1258 H 0.35577 0.50295 0.11754 0.0
H1259 H 0.37256 0.45309 0.11343 0.0
C1260 C 0.37768 0.46058 0.15589 0.0
C1261 C 0.39032 0.41942 0.15824 0.0
C1262 C 0.38271 0.49151 0.14499 0.0
C1263 C 0.40046 0.48196 0.13626 0.0
C1264 C 0.41353 0.44165 0.13878 0.0
H1265 H 0.41038 0.65046 0.05854 0.0
H1266 H 0.41341 0.58331 0.07486 0.0
C1267 C 0.40843 0.41043 0.14965 0.0
C1268 C 0.40506 0.51427 0.12445 0.0
H1269 H 0.38075 0.56103 0.09362 0.0
C1270 C 0.42463 0.54165 0.12562 0.0
C1271 C 0.38949 0.52003 0.11251 0.0
C1272 C 0.36871 0.48997 0.11046 0.0
C1273 C 0.42843 0.57658 0.11548 0.0
C1274 C 0.41212 0.58436 0.10402 0.0
C1275 C 0.39318 0.55518 0.10246 0.0
C1276 C 0.41328 0.62486 0.09422 0.0
C1277 C 0.44966 0.60533 0.11724 0.0
C1278 C 0.41236 0.67038 0.09973 0.0
C1279 C 0.41055 0.70871 0.09047 0.0
C1280 C 0.40951 0.70222 0.0755 0.0
C1281 C 0.41117 0.65664 0.07001 0.0
C1282 C 0.4129 0.61825 0.07931 0.0
H1283 H 0.46323 0.58622 0.12353 0.0
H1284 H 0.45582 0.61505 0.10665 0.0
H1285 H 0.44612 0.63796 0.12312 0.0
H1286 H 0.41213 0.67621 0.11119 0.0
H1287 H 0.4093 0.74333 0.09506 0.0
H1288 H 0.40328 0.7148 0.66827 0.0
H1289 H 0.39638 0.64895 0.65198 0.0
H1290 H 0.32479 0.67161 0.65249 0.0
H1291 H 0.33152 0.73819 0.66876 0.0
H1292 H 0.37065 0.56627 0.65528 0.0
H1293 H 0.33779 0.67651 0.60938 0.0
H1294 H 0.35296 0.70089 0.625 0.0
H1295 H 0.32422 0.68278 0.62594 0.0
C1296 C 0.38604 0.70578 0.66498 0.0
C1297 C 0.36795 0.73195 0.66972 0.0
C1298 C 0.38214 0.66804 0.6557 0.0
C1299 C 0.36011 0.65584 0.65092 0.0
C1300 C 0.34194 0.68098 0.65592 0.0
H1301 H 0.33874 0.39986 0.59935 0.0
H1302 H 0.33358 0.46047 0.6174 0.0
C1303 C 0.34582 0.71882 0.66525 0.0
C1304 C 0.35652 0.6175 0.6404 0.0
H1305 H 0.34115 0.59586 0.60516 0.0
C1306 C 0.36392 0.57247 0.64436 0.0
C1307 C 0.34792 0.62605 0.62616 0.0
C1308 C 0.34038 0.67417 0.62125 0.0
C1309 C 0.36357 0.53591 0.63433 0.0
C1310 C 0.35532 0.54465 0.62003 0.0
C1311 C 0.34731 0.58935 0.61617 0.0
C1312 C 0.3569 0.50911 0.60863 0.0
C1313 C 0.37303 0.48888 0.63893 0.0
C1314 C 0.37117 0.51708 0.5975 0.0
C1315 C 0.3741 0.48275 0.58717 0.0
C1316 C 0.36273 0.43978 0.58775 0.0
C1317 C 0.34785 0.43246 0.59866 0.0
C1318 C 0.34494 0.46693 0.60901 0.0
H1319 H 0.38238 0.49038 0.64962 0.0
H1320 H 0.35903 0.46353 0.63958 0.0
H1321 H 0.38453 0.47544 0.63097 0.0
H1322 H 0.38051 0.5495 0.59701 0.0
H1323 H 0.3856 0.48963 0.57888 0.0
H1324 H 0.38309 0.16854 0.56007 0.0
H1325 H 0.38434 0.10698 0.57827 0.0
H1326 H 0.41852 0.20042 0.60868 0.0
H1327 H 0.41691 0.26259 0.59065 0.0
H1328 H 0.41887 0.06362 0.59505 0.0
H1329 H 0.362 0.16445 0.62861 0.0
H1330 H 0.36678 0.18071 0.61038 0.0
H1331 H 0.38743 0.19425 0.62468 0.0
C1332 C 0.39109 0.1759 0.57058 0.0
C1333 C 0.3996 0.22066 0.57398 0.0
C1334 C 0.39181 0.14065 0.58096 0.0
C1335 C 0.40109 0.1495 0.59489 0.0
C1336 C 0.41081 0.19326 0.59808 0.0
H1337 H 0.39531 0.9787 0.67228 0.0
H1338 H 0.40618 0.03798 0.65509 0.0
C1339 C 0.40997 0.22865 0.58773 0.0
C1340 C 0.39941 0.11372 0.60624 0.0
H1341 H 0.375 0.09185 0.63768 0.0
C1342 C 0.40938 0.06982 0.60441 0.0
C1343 C 0.38697 0.12195 0.61842 0.0
C1344 C 0.375 0.1677 0.62064 0.0
C1345 C 0.40712 0.03376 0.61442 0.0
C1346 C 0.39436 0.0418 0.62645 0.0
C1347 C 0.38486 0.08599 0.62846 0.0
C1348 C 0.3894 0.00414 0.63663 0.0
C1349 C 0.41834 0.98734 0.61206 0.0
C1350 C 0.37631 0.9657 0.63192 0.0
C1351 C 0.36996 0.932 0.6417 0.0
C1352 C 0.37655 0.93621 0.65638 0.0
C1353 C 0.38997 0.97444 0.66104 0.0
C1354 C 0.39622 0.00828 0.65125 0.0
H1355 H 0.43224 0.99065 0.60472 0.0
H1356 H 0.42517 0.97213 0.62239 0.0
H1357 H 0.40574 0.96261 0.60713 0.0
H1358 H 0.37051 0.9624 0.62073 0.0
H1359 H 0.35963 0.903 0.63776 0.0
loop_
_geom_bond_atom_site_label_1
_geom_bond_atom_site_label_2
_geom_bond_distance
_geom_bond_site_symmetry_2
_ccdc_geom_bond_type
C0 O1 1.160 . S
C0 O7 1.185 . S
O1 C0 1.160 . S
O2 Zn3 1.899 . S
O2 C10 1.284 . S
Zn3 O2 1.899 . S
Zn3 O4 2.032 . S
Zn3 O7 2.086 . S
Zn3 O12 1.977 . S
O4 Zn3 2.032 . S
O4 C8 1.278 . S
C5 O6 1.203 . S
C5 O12 1.267 . S
O6 C5 1.203 . S
O7 C0 1.185 . S
O7 Zn3 2.086 . S
C8 O4 1.278 . S
C8 O9 1.211 . S
O9 C8 1.211 . S
C10 O2 1.284 . S
C10 O11 1.273 . S
O11 C10 1.273 . S
O12 Zn3 1.977 . S
O12 C5 1.267 . S
C13 O14 1.160 . S
C13 O20 1.185 . S
O14 C13 1.160 . S
O15 Zn16 1.899 . S
O15 C23 1.284 . S
Zn16 O15 1.899 . S
Zn16 O17 2.032 . S
Zn16 O20 2.086 . S
Zn16 O25 1.977 . S
O17 Zn16 2.032 . S
O17 C21 1.278 . S
C18 O19 1.203 . S
C18 O25 1.267 . S
O19 C18 1.203 . S
O20 C13 1.185 . S
O20 Zn16 2.086 . S
C21 O17 1.278 . S
C21 O22 1.211 . S
O22 C21 1.211 . S
C23 O15 1.284 . S
C23 O24 1.273 . S
O24 C23 1.273 . S
O25 Zn16 1.977 . S
O25 C18 1.267 . S
C26 O27 1.160 . S
C26 O33 1.185 . S
O27 C26 1.160 . S
O28 Zn29 1.899 . S
O28 C36 1.284 . S
Zn29 O28 1.899 . S
Zn29 O30 2.032 . S
Zn29 O33 2.086 . S
Zn29 O38 1.977 . S
O30 Zn29 2.032 . S
O30 C34 1.278 . S
C31 O32 1.203 . S
C31 O38 1.267 . S
O32 C31 1.203 . S
O33 C26 1.185 . S
O33 Zn29 2.086 . S
C34 O30 1.278 . S
C34 O35 1.211 . S
O35 C34 1.211 . S
C36 O28 1.284 . S
C36 O37 1.273 . S
O37 C36 1.273 . S
O38 Zn29 1.977 . S
O38 C31 1.267 . S
C39 O40 1.160 . S
C39 O46 1.185 . S
O40 C39 1.160 . S
O41 Zn42 1.899 . S
O41 C49 1.284 . S
Zn42 O41 1.899 . S
Zn42 O43 2.032 . S
Zn42 O46 2.086 . S
Zn42 O51 1.977 . S
O43 Zn42 2.032 . S
O43 C47 1.278 . S
C44 O45 1.203 . S
C44 O51 1.267 . S
O45 C44 1.203 . S
O46 C39 1.185 . S
O46 Zn42 2.086 . S
C47 O43 1.278 . S
C47 O48 1.211 . S
O48 C47 1.211 . S
C49 O41 1.284 . S
C49 O50 1.273 . S
O50 C49 1.273 . S
O51 Zn42 1.977 . S
O51 C44 1.267 . S
C52 O53 1.160 . S
C52 O59 1.185 . S
O53 C52 1.160 . S
O54 Zn55 1.899 . S
O54 C62 1.284 . S
Zn55 O54 1.899 . S
Zn55 O56 2.032 . S
Zn55 O59 2.086 . S
Zn55 O64 1.977 . S
O56 Zn55 2.032 . S
O56 C60 1.278 . S
C57 O58 1.203 . S
C57 O64 1.267 . S
O58 C57 1.203 . S
O59 C52 1.185 . S
O59 Zn55 2.086 . S
C60 O56 1.278 . S
C60 O61 1.211 . S
O61 C60 1.211 . S
C62 O54 1.284 . S
C62 O63 1.273 . S
O63 C62 1.273 . S
O64 Zn55 1.977 . S
O64 C57 1.267 . S
C65 O66 1.160 . S
C65 O72 1.185 . S
O66 C65 1.160 . S
O67 Zn68 1.899 . S
O67 C75 1.284 . S
Zn68 O67 1.899 . S
Zn68 O69 2.032 . S
Zn68 O72 2.086 . S
Zn68 O77 1.977 . S
O69 Zn68 2.032 . S
O69 C73 1.278 . S
C70 O71 1.203 . S
C70 O77 1.267 . S
O71 C70 1.203 . S
O72 C65 1.185 . S
O72 Zn68 2.086 . S
C73 O69 1.278 . S
C73 O74 1.211 . S
O74 C73 1.211 . S
C75 O67 1.284 . S
C75 O76 1.273 . S
O76 C75 1.273 . S
O77 Zn68 1.977 . S
O77 C70 1.267 . S
C78 O79 1.160 . S
C78 O85 1.185 . S
O79 C78 1.160 . S
O80 Zn81 1.899 . S
O80 C88 1.284 . S
Zn81 O80 1.899 . S
Zn81 O82 2.032 . S
Zn81 O85 2.086 . S
Zn81 O90 1.977 . S
O82 Zn81 2.032 . S
O82 C86 1.278 . S
C83 O84 1.203 . S
C83 O90 1.267 . S
O84 C83 1.203 . S
O85 C78 1.185 . S
O85 Zn81 2.086 . S
C86 O82 1.278 . S
C86 O87 1.211 . S
O87 C86 1.211 . S
C88 O80 1.284 . S
C88 O89 1.273 . S
O89 C88 1.273 . S
O90 Zn81 1.977 . S
O90 C83 1.267 . S
C91 O92 1.160 . S
C91 O98 1.185 . S
O92 C91 1.160 . S
O93 Zn94 1.899 . S
O93 C101 1.284 . S
Zn94 O93 1.899 . S
Zn94 O95 2.032 . S
Zn94 O98 2.086 . S
Zn94 O103 1.977 . S
O95 Zn94 2.032 . S
O95 C99 1.278 . S
C96 O97 1.203 . S
C96 O103 1.267 . S
O97 C96 1.203 . S
O98 C91 1.185 . S
O98 Zn94 2.086 . S
C99 O95 1.278 . S
C99 O100 1.211 . S
O100 C99 1.211 . S
C101 O93 1.284 . S
C101 O102 1.273 . S
O102 C101 1.273 . S
O103 Zn94 1.977 . S
O103 C96 1.267 . S
C104 O105 1.160 . S
C104 O111 1.185 . S
O105 C104 1.160 . S
O106 Zn107 1.899 . S
O106 C114 1.284 . S
Zn107 O106 1.899 . S
Zn107 O108 2.032 . S
Zn107 O111 2.086 . S
Zn107 O116 1.977 . S
O108 Zn107 2.032 . S
O108 C112 1.278 . S
C109 O110 1.203 . S
C109 O116 1.267 . S
O110 C109 1.203 . S
O111 C104 1.185 . S
O111 Zn107 2.086 . S
C112 O108 1.278 . S
C112 O113 1.211 . S
O113 C112 1.211 . S
C114 O106 1.284 . S
C114 O115 1.273 . S
O115 C114 1.273 . S
O116 Zn107 1.977 . S
O116 C109 1.267 . S
C117 O118 1.160 . S
C117 O124 1.185 . S
O118 C117 1.160 . S
O119 Zn120 1.899 . S
O119 C127 1.284 . S
Zn120 O119 1.899 . S
Zn120 O121 2.032 . S
Zn120 O124 2.086 . S
Zn120 O129 1.977 . S
O121 Zn120 2.032 . S
O121 C125 1.278 . S
C122 O123 1.203 . S
C122 O129 1.267 . S
O123 C122 1.203 . S
O124 C117 1.185 . S
O124 Zn120 2.086 . S
C125 O121 1.278 . S
C125 O126 1.211 . S
O126 C125 1.211 . S
C127 O119 1.284 . S
C127 O128 1.273 . S
O128 C127 1.273 . S
O129 Zn120 1.977 . S
O129 C122 1.267 . S
C130 O131 1.160 . S
C130 O137 1.185 . S
O131 C130 1.160 . S
O132 Zn133 1.899 . S
O132 C140 1.284 . S
Zn133 O132 1.899 . S
Zn133 O134 2.032 . S
Zn133 O137 2.086 . S
Zn133 O142 1.977 . S
O134 Zn133 2.032 . S
O134 C138 1.278 . S
C135 O136 1.203 . S
C135 O142 1.267 . S
O136 C135 1.203 . S
O137 C130 1.185 . S
O137 Zn133 2.086 . S
C138 O134 1.278 . S
C138 O139 1.211 . S
O139 C138 1.211 . S
C140 O132 1.284 . S
C140 O141 1.273 . S
O141 C140 1.273 . S
O142 Zn133 1.977 . S
O142 C135 1.267 . S
C143 O144 1.160 . S
C143 O150 1.185 . S
O144 C143 1.160 . S
O145 Zn146 1.899 . S
O145 C153 1.284 . S
Zn146 O145 1.899 . S
Zn146 O147 2.032 . S
Zn146 O150 2.086 . S
Zn146 O155 1.977 . S
O147 Zn146 2.032 . S
O147 C151 1.278 . S
C148 O149 1.203 . S
C148 O155 1.267 . S
O149 C148 1.203 . S
O150 C143 1.185 . S
O150 Zn146 2.086 . S
C151 O147 1.278 . S
C151 O152 1.211 . S
O152 C151 1.211 . S
C153 O145 1.284 . S
C153 O154 1.273 . S
O154 C153 1.273 . S
O155 Zn146 1.977 . S
O155 C148 1.267 . S
C156 O157 1.160 . S
C156 O163 1.185 . S
O157 C156 1.160 . S
O158 Zn159 1.899 . S
O158 C166 1.284 . S
Zn159 O158 1.899 . S
Zn159 O160 2.032 . S
Zn159 O163 2.086 . S
Zn159 O168 1.977 . S
O160 Zn159 2.032 . S
O160 C164 1.278 . S
C161 O162 1.203 . S
C161 O168 1.267 . S
O162 C161 1.203 . S
O163 C156 1.185 . S
O163 Zn159 2.086 . S
C164 O160 1.278 . S
C164 O165 1.211 . S
O165 C164 1.211 . S
C166 O158 1.284 . S
C166 O167 1.273 . S
O167 C166 1.273 . S
O168 Zn159 1.977 . S
O168 C161 1.267 . S
C169 O170 1.160 . S
C169 O176 1.185 . S
O170 C169 1.160 . S
O171 Zn172 1.899 . S
O171 C179 1.284 . S
Zn172 O171 1.899 . S
Zn172 O173 2.032 . S
Zn172 O176 2.086 . S
Zn172 O181 1.977 . S
O173 Zn172 2.032 . S
O173 C177 1.278 . S
C174 O175 1.203 . S
C174 O181 1.267 . S
O175 C174 1.203 . S
O176 C169 1.185 . S
O176 Zn172 2.086 . S
C177 O173 1.278 . S
C177 O178 1.211 . S
O178 C177 1.211 . S
C179 O171 1.284 . S
C179 O180 1.273 . S
O180 C179 1.273 . S
O181 Zn172 1.977 . S
O181 C174 1.267 . S
C182 O183 1.160 . S
C182 O189 1.185 . S
O183 C182 1.160 . S
O184 Zn185 1.899 . S
O184 C192 1.284 . S
Zn185 O184 1.899 . S
Zn185 O186 2.032 . S
Zn185 O189 2.086 . S
Zn185 O194 1.977 . S
O186 Zn185 2.032 . S
O186 C190 1.278 . S
C187 O188 1.203 . S
C187 O194 1.267 . S
O188 C187 1.203 . S
O189 C182 1.185 . S
O189 Zn185 2.086 . S
C190 O186 1.278 . S
C190 O191 1.211 . S
O191 C190 1.211 . S
C192 O184 1.284 . S
C192 O193 1.273 . S
O193 C192 1.273 . S
O194 Zn185 1.977 . S
O194 C187 1.267 . S
C195 O196 1.160 . S
C195 O202 1.185 . S
O196 C195 1.160 . S
O197 Zn198 1.899 . S
O197 C205 1.284 . S
Zn198 O197 1.899 . S
Zn198 O199 2.032 . S
Zn198 O202 2.086 . S
Zn198 O207 1.977 . S
O199 Zn198 2.032 . S
O199 C203 1.278 . S
C200 O201 1.203 . S
C200 O207 1.267 . S
O201 C200 1.203 . S
O202 C195 1.185 . S
O202 Zn198 2.086 . S
C203 O199 1.278 . S
C203 O204 1.211 . S
O204 C203 1.211 . S
C205 O197 1.284 . S
C205 O206 1.273 . S
O206 C205 1.273 . S
O207 Zn198 1.977 . S
O207 C200 1.267 . S
H208 C216 0.929 . S
H209 C218 0.930 . S
H210 C220 0.930 . S
H211 C223 0.929 . S
H212 C226 0.930 . S
H213 C228 0.960 . S
H214 C228 0.960 . S
H215 C228 0.960 . S
C216 H208 0.929 . S
C216 C217 1.377 . S
C216 C218 1.384 . S
C217 C216 1.377 . S
C217 C223 1.390 . S
C218 H209 0.930 . S
C218 C216 1.384 . S
C218 C219 1.372 . S
C219 C218 1.372 . S
C219 C220 1.400 . S
C219 C224 1.490 . S
C220 H210 0.930 . S
C220 C219 1.400 . S
C220 C223 1.386 . S
H221 C237 0.930 . S
H222 C238 0.931 . S
C223 H211 0.929 . S
C223 C217 1.390 . S
C223 C220 1.386 . S
C224 C219 1.490 . S
C224 C226 1.395 . S
C224 C227 1.403 . S
H225 C231 0.930 . S
C226 H212 0.930 . S
C226 C224 1.395 . S
C226 C229 1.403 . S
C227 C224 1.403 . S
C227 C228 1.524 . S
C227 C231 1.400 . S
C228 H213 0.960 . S
C228 H214 0.960 . S
C228 H215 0.960 . S
C228 C227 1.524 . S
C229 C226 1.403 . S
C229 C230 1.392 . S
C229 C233 1.495 . S
C230 C229 1.392 . S
C230 C231 1.385 . S
C230 C232 1.478 . S
C231 H225 0.930 . S
C231 C227 1.400 . S
C231 C230 1.385 . S
C232 C230 1.478 . S
C232 C234 1.381 . S
C232 C238 1.383 . S
C233 C229 1.495 . S
C233 H239 0.959 . S
C233 H240 0.961 . S
C233 H241 0.960 . S
C234 C232 1.381 . S
C234 C235 1.394 . S
C234 H242 0.930 . S
C235 C234 1.394 . S
C235 C236 1.383 . S
C235 H243 0.929 . S
C236 C235 1.383 . S
C236 C237 1.377 . S
C237 H221 0.930 . S
C237 C236 1.377 . S
C237 C238 1.379 . S
C238 H222 0.931 . S
C238 C232 1.383 . S
C238 C237 1.379 . S
H239 C233 0.959 . S
H240 C233 0.961 . S
H241 C233 0.960 . S
H242 C234 0.930 . S
H243 C235 0.929 . S
H244 C252 0.929 . S
H245 C254 0.930 1_545 S
H246 C256 0.930 . S
H247 C259 0.929 . S
H248 C262 0.930 . S
H249 C264 0.960 . S
H250 C264 0.960 . S
H251 C264 0.960 . S
C252 H244 0.929 . S
C252 C253 1.377 . S
C252 C254 1.384 . S
C253 C252 1.377 . S
C253 C259 1.390 . S
C254 H245 0.930 1_565 S
C254 C252 1.384 . S
C254 C255 1.372 . S
C255 C254 1.372 . S
C255 C256 1.400 . S
C255 C260 1.490 . S
C256 H246 0.930 . S
C256 C255 1.400 . S
C256 C259 1.386 . S
H257 C273 0.930 . S
H258 C274 0.943 . S
C259 H247 0.929 . S
C259 C253 1.390 . S
C259 C256 1.386 . S
C260 C255 1.490 . S
C260 C262 1.395 1_565 S
C260 C263 1.403 . S
H261 C267 0.930 . S
C262 H248 0.930 . S
C262 C260 1.395 1_545 S
C262 C265 1.403 1_655 S
C263 C260 1.403 . S
C263 C264 1.524 . S
C263 C267 1.400 1_655 S
C264 H249 0.960 . S
C264 H250 0.960 . S
C264 H251 0.960 . S
C264 C263 1.524 . S
C265 C262 1.403 1_455 S
C265 C266 1.392 . S
C265 C269 1.495 . S
C266 C265 1.392 . S
C266 C267 1.385 1_545 S
C266 C268 1.478 . S
C267 H261 0.930 . S
C267 C263 1.400 1_455 S
C267 C266 1.385 1_565 S
C268 C266 1.478 . S
C268 C270 1.381 . S
C268 C274 1.383 . S
C269 C265 1.495 . S
C269 H275 0.959 . S
C269 H276 0.961 . S
C269 H277 0.960 . S
C270 C268 1.381 . S
C270 C271 1.394 . S
C270 H278 0.930 . S
C271 C270 1.394 . S
C271 C272 1.383 . S
C271 H279 0.929 . S
C272 C271 1.383 . S
C272 C273 1.377 . S
C273 H257 0.930 . S
C273 C272 1.377 . S
C273 C274 1.379 . S
C274 H258 0.943 . S
C274 C268 1.383 . S
C274 C273 1.379 . S
H275 C269 0.959 . S
H276 C269 0.961 . S
H277 C269 0.960 . S
H278 C270 0.930 . S
H279 C271 0.929 . S
H280 C288 0.929 . S
H281 C290 0.930 . S
H282 C292 0.930 . S
H283 C295 0.929 . S
H284 C298 0.930 . S
H285 C300 0.960 . S
H286 C300 0.960 . S
H287 C300 0.960 . S
C288 H280 0.929 . S
C288 C289 1.377 . S
C288 C290 1.384 . S
C289 C288 1.377 . S
C289 C295 1.390 . S
C290 H281 0.930 . S
C290 C288 1.384 . S
C290 C291 1.372 . S
C291 C290 1.372 . S
C291 C292 1.400 . S
C291 C296 1.490 . S
C292 H282 0.930 . S
C292 C291 1.400 . S
C292 C295 1.386 . S
H293 C309 0.930 . S
H294 C310 0.931 . S
C295 H283 0.929 . S
C295 C289 1.390 . S
C295 C292 1.386 . S
C296 C291 1.490 . S
C296 C298 1.398 . S
C296 C299 1.403 . S
H297 C303 0.930 . S
C298 H284 0.930 . S
C298 C296 1.398 . S
C298 C301 1.399 1_565 S
C299 C296 1.403 . S
C299 C300 1.524 . S
C299 C303 1.400 1_565 S
C300 H285 0.960 . S
C300 H286 0.960 . S
C300 H287 0.960 . S
C300 C299 1.524 . S
C301 C298 1.399 1_545 S
C301 C302 1.392 . S
C301 C305 1.495 . S
C302 C301 1.392 . S
C302 C303 1.385 . S
C302 C304 1.478 . S
C303 H297 0.930 . S
C303 C299 1.400 1_545 S
C303 C302 1.385 . S
C304 C302 1.478 . S
C304 C306 1.381 . S
C304 C310 1.383 . S
C305 C301 1.495 . S
C305 H311 0.959 . S
C305 H312 0.961 . S
C305 H313 0.960 . S
C306 C304 1.381 . S
C306 C307 1.394 . S
C306 H314 0.930 . S
C307 C306 1.394 . S
C307 C308 1.383 . S
C307 H315 0.929 . S
C308 C307 1.383 . S
C308 C309 1.377 . S
C309 H293 0.930 . S
C309 C308 1.377 . S
C309 C310 1.379 . S
C310 H294 0.931 . S
C310 C304 1.383 . S
C310 C309 1.379 . S
H311 C305 0.959 . S
H312 C305 0.961 . S
H313 C305 0.960 . S
H314 C306 0.930 . S
H315 C307 0.929 . S
H316 C324 0.929 . S
H317 C326 0.930 . S
H318 C328 0.930 . S
H319 C331 0.929 . S
H320 C334 0.930 . S
H321 C336 0.960 . S
H322 C336 0.960 . S
H323 C336 0.960 . S
C324 H316 0.929 . S
C324 C325 1.377 . S
C324 C326 1.384 . S
C325 C324 1.377 . S
C325 C331 1.390 . S
C326 H317 0.930 . S
C326 C324 1.384 . S
C326 C327 1.372 . S
C327 C326 1.372 . S
C327 C328 1.400 . S
C327 C332 1.490 . S
C328 H318 0.930 . S
C328 C327 1.400 . S
C328 C331 1.386 . S
H329 C345 0.930 . S
H330 C346 0.931 . S
C331 H319 0.929 . S
C331 C325 1.390 . S
C331 C328 1.386 . S
C332 C327 1.490 . S
C332 C334 1.395 . S
C332 C335 1.403 1_455 S
H333 C339 0.930 . S
C334 H320 0.930 . S
C334 C332 1.395 . S
C334 C337 1.403 . S
C335 C332 1.403 1_655 S
C335 C336 1.524 . S
C335 C339 1.400 . S
C336 H321 0.960 . S
C336 H322 0.960 . S
C336 H323 0.960 . S
C336 C335 1.524 . S
C337 C334 1.403 . S
C337 C338 1.392 1_455 S
C337 C341 1.495 . S
C338 C337 1.392 1_655 S
C338 C339 1.385 . S
C338 C340 1.478 . S
C339 H333 0.930 . S
C339 C335 1.400 . S
C339 C338 1.385 . S
C340 C338 1.478 . S
C340 C342 1.381 . S
C340 C346 1.383 . S
C341 C337 1.495 . S
C341 H347 0.959 . S
C341 H348 0.961 . S
C341 H349 0.960 . S
C342 C340 1.381 . S
C342 C343 1.394 . S
C342 H350 0.930 . S
C343 C342 1.394 . S
C343 C344 1.383 . S
C343 H351 0.929 . S
C344 C343 1.383 . S
C344 C345 1.377 . S
C345 H329 0.930 . S
C345 C344 1.377 . S
C345 C346 1.379 . S
C346 H330 0.931 . S
C346 C340 1.383 . S
C346 C345 1.379 . S
H347 C341 0.959 . S
H348 C341 0.961 . S
H349 C341 0.960 . S
H350 C342 0.930 . S
H351 C343 0.929 . S
H352 C360 0.929 . S
H353 C362 0.930 . S
H354 C364 0.930 . S
H355 C367 0.929 . S
H356 C370 0.930 . S
H357 C372 0.960 . S
H358 C372 0.960 . S
H359 C372 0.960 . S
C360 H352 0.929 . S
C360 C361 1.377 . S
C360 C362 1.384 . S
C361 C360 1.377 . S
C361 C367 1.390 . S
C362 H353 0.930 . S
C362 C360 1.384 . S
C362 C363 1.372 . S
C363 C362 1.372 . S
C363 C364 1.400 . S
C363 C368 1.490 . S
C364 H354 0.930 . S
C364 C363 1.400 . S
C364 C367 1.386 . S
H365 C381 0.930 . S
H366 C382 0.931 . S
C367 H355 0.929 . S
C367 C361 1.390 . S
C367 C364 1.386 . S
C368 C363 1.490 . S
C368 C370 1.395 . S
C368 C371 1.403 . S
H369 C375 0.930 . S
C370 H356 0.930 . S
C370 C368 1.395 . S
C370 C373 1.403 . S
C371 C368 1.403 . S
C371 C372 1.524 . S
C371 C375 1.400 . S
C372 H357 0.960 . S
C372 H358 0.960 . S
C372 H359 0.960 . S
C372 C371 1.524 . S
C373 C370 1.403 . S
C373 C374 1.392 . S
C373 C377 1.495 . S
C374 C373 1.392 . S
C374 C375 1.385 . S
C374 C376 1.478 . S
C375 H369 0.930 . S
C375 C371 1.400 . S
C375 C374 1.385 . S
C376 C374 1.478 . S
C376 C378 1.381 . S
C376 C382 1.383 . S
C377 C373 1.495 . S
C377 H383 0.959 . S
C377 H384 0.961 . S
C377 H385 0.960 . S
C378 C376 1.381 . S
C378 C379 1.394 . S
C378 H386 0.930 . S
C379 C378 1.394 . S
C379 C380 1.383 . S
C379 H387 0.929 . S
C380 C379 1.383 . S
C380 C381 1.377 . S
C381 H365 0.930 . S
C381 C380 1.377 . S
C381 C382 1.379 . S
C382 H366 0.931 . S
C382 C376 1.383 . S
C382 C381 1.379 . S
H383 C377 0.959 . S
H384 C377 0.961 . S
H385 C377 0.960 . S
H386 C378 0.930 . S
H387 C379 0.929 . S
H388 C396 0.929 . S
H389 C398 0.920 1_565 S
H390 C400 0.930 . S
H391 C403 0.929 . S
H392 C406 0.930 . S
H393 C408 0.960 . S
H394 C408 0.960 . S
H395 C408 0.960 . S
C396 H388 0.929 . S
C396 C397 1.377 . S
C396 C398 1.384 . S
C397 C396 1.377 . S
C397 C403 1.390 . S
C398 H389 0.920 1_545 S
C398 C396 1.384 . S
C398 C399 1.372 . S
C399 C398 1.372 . S
C399 C400 1.400 . S
C399 C404 1.490 . S
C400 H390 0.930 . S
C400 C399 1.400 . S
C400 C403 1.386 . S
H401 C417 0.930 . S
H402 C418 0.931 . S
C403 H391 0.929 . S
C403 C397 1.390 . S
C403 C400 1.386 . S
C404 C399 1.490 . S
C404 C406 1.395 1_545 S
C404 C407 1.403 . S
H405 C411 0.930 . S
C406 H392 0.930 . S
C406 C404 1.395 1_565 S
C406 C409 1.403 . S
C407 C404 1.403 . S
C407 C408 1.524 . S
C407 C411 1.400 . S
C408 H393 0.960 . S
C408 H394 0.960 . S
C408 H395 0.960 . S
C408 C407 1.524 . S
C409 C406 1.403 . S
C409 C410 1.392 . S
C409 C413 1.495 . S
C410 C409 1.392 . S
C410 C411 1.385 1_565 S
C410 C412 1.478 . S
C411 H405 0.930 . S
C411 C407 1.400 . S
C411 C410 1.385 1_545 S
C412 C410 1.478 . S
C412 C414 1.381 . S
C412 C418 1.383 . S
C413 C409 1.495 . S
C413 H419 0.959 . S
C413 H420 0.961 . S
C413 H421 0.960 . S
C414 C412 1.381 . S
C414 C415 1.394 . S
C414 H422 0.930 . S
C415 C414 1.394 . S
C415 C416 1.383 . S
C415 H423 0.929 . S
C416 C415 1.383 . S
C416 C417 1.377 . S
C417 H401 0.930 . S
C417 C416 1.377 . S
C417 C418 1.379 . S
C418 H402 0.931 . S
C418 C412 1.383 . S
C418 C417 1.379 . S
H419 C413 0.959 . S
H420 C413 0.961 . S
H421 C413 0.960 . S
H422 C414 0.930 . S
H423 C415 0.929 . S
H424 C432 0.929 . S
H425 C434 0.930 . S
H426 C436 0.930 . S
H427 C439 0.929 . S
H428 C442 0.931 . S
H429 C444 0.960 . S
H430 C444 0.960 . S
H431 C444 0.960 . S
C432 H424 0.929 . S
C432 C433 1.377 . S
C432 C434 1.384 . S
C433 C432 1.377 . S
C433 C439 1.390 . S
C434 H425 0.930 . S
C434 C432 1.384 . S
C434 C435 1.372 . S
C435 C434 1.372 . S
C435 C436 1.400 . S
C435 C440 1.490 . S
C436 H426 0.930 . S
C436 C435 1.400 . S
C436 C439 1.386 . S
H437 C453 0.930 . S
H438 C454 0.931 . S
C439 H427 0.929 . S
C439 C433 1.390 . S
C439 C436 1.386 . S
C440 C435 1.490 . S
C440 C442 1.403 . S
C440 C443 1.403 . S
H441 C447 0.930 . S
C442 H428 0.931 . S
C442 C440 1.403 . S
C442 C445 1.394 1_655 S
C443 C440 1.403 . S
C443 C444 1.524 . S
C443 C447 1.400 1_655 S
C444 H429 0.960 . S
C444 H430 0.960 . S
C444 H431 0.960 . S
C444 C443 1.524 . S
C445 C442 1.394 1_455 S
C445 C446 1.392 . S
C445 C449 1.495 . S
C446 C445 1.392 . S
C446 C447 1.385 . S
C446 C448 1.478 . S
C447 H441 0.930 . S
C447 C443 1.400 1_455 S
C447 C446 1.385 . S
C448 C446 1.478 . S
C448 C450 1.381 . S
C448 C454 1.383 . S
C449 C445 1.495 . S
C449 H455 0.959 . S
C449 H456 0.961 . S
C449 H457 0.960 . S
C450 C448 1.381 . S
C450 C451 1.394 . S
C450 H458 0.930 . S
C451 C450 1.394 . S
C451 C452 1.383 . S
C451 H459 0.929 . S
C452 C451 1.383 . S
C452 C453 1.377 . S
C453 H437 0.930 . S
C453 C452 1.377 . S
C453 C454 1.379 . S
C454 H438 0.931 . S
C454 C448 1.383 . S
C454 C453 1.379 . S
H455 C449 0.959 . S
H456 C449 0.961 . S
H457 C449 0.960 . S
H458 C450 0.930 . S
H459 C451 0.929 . S
H460 C468 0.929 . S
H461 C470 0.930 . S
H462 C472 0.930 . S
H463 C475 0.929 . S
H464 C478 0.930 . S
H465 C480 0.959 . S
H466 C480 0.961 1_554 S
H467 C480 0.960 . S
C468 H460 0.929 . S
C468 C469 1.377 . S
C468 C470 1.384 . S
C469 C468 1.377 . S
C469 C475 1.390 . S
C470 H461 0.930 . S
C470 C468 1.384 . S
C470 C471 1.372 . S
C471 C470 1.372 . S
C471 C472 1.400 . S
C471 C476 1.490 . S
C472 H462 0.930 . S
C472 C471 1.400 . S
C472 C475 1.386 . S
H473 C489 0.930 . S
H474 C490 0.931 . S
C475 H463 0.929 . S
C475 C469 1.390 . S
C475 C472 1.386 . S
C476 C471 1.490 . S
C476 C478 1.395 . S
C476 C479 1.425 . S
H477 C483 0.930 . S
C478 H464 0.930 . S
C478 C476 1.395 . S
C478 C481 1.403 . S
C479 C476 1.425 . S
C479 C480 1.521 1_554 S
C479 C483 1.381 1_554 S
C480 H465 0.959 . S
C480 H466 0.961 1_556 S
C480 H467 0.960 . S
C480 C479 1.521 1_556 S
C481 C478 1.403 . S
C481 C482 1.392 1_554 S
C481 C485 1.495 . S
C482 C481 1.392 1_556 S
C482 C483 1.385 . S
C482 C484 1.478 . S
C483 H477 0.930 . S
C483 C479 1.381 1_556 S
C483 C482 1.385 . S
C484 C482 1.478 . S
C484 C486 1.381 . S
C484 C490 1.383 . S
C485 C481 1.495 . S
C485 H491 0.959 . S
C485 H492 0.961 1_554 S
C485 H493 0.960 . S
C486 C484 1.381 . S
C486 C487 1.394 . S
C486 H494 0.990 . S
C487 C486 1.394 . S
C487 C488 1.383 . S
C487 H495 0.929 . S
C488 C487 1.383 . S
C488 C489 1.377 . S
C489 H473 0.930 . S
C489 C488 1.377 . S
C489 C490 1.379 . S
C490 H474 0.931 . S
C490 C484 1.383 . S
C490 C489 1.379 . S
H491 C485 0.959 . S
H492 C485 0.961 1_556 S
H493 C485 0.960 . S
H494 C486 0.990 . S
H495 C487 0.929 . S
H496 C504 0.929 . S
H497 C506 0.930 . S
H498 C508 0.930 . S
H499 C511 0.929 . S
H500 C514 0.930 . S
H501 C516 0.960 . S
H502 C516 0.960 . S
H503 C516 0.960 . S
C504 H496 0.929 . S
C504 C505 1.377 . S
C504 C506 1.384 . S
C505 C504 1.377 . S
C505 C511 1.390 . S
C506 H497 0.930 . S
C506 C504 1.384 . S
C506 C507 1.372 . S
C507 C506 1.372 . S
C507 C508 1.400 . S
C507 C512 1.490 . S
C508 H498 0.930 . S
C508 C507 1.400 . S
C508 C511 1.386 . S
H509 C525 0.930 . S
H510 C526 0.931 . S
C511 H499 0.929 . S
C511 C505 1.390 . S
C511 C508 1.386 . S
C512 C507 1.490 . S
C512 C514 1.395 1_556 S
C512 C515 1.403 1_455 S
H513 C519 0.930 . S
C514 H500 0.930 . S
C514 C512 1.395 1_554 S
C514 C517 1.403 . S
C515 C512 1.403 1_655 S
C515 C516 1.524 . S
C515 C519 1.400 . S
C516 H501 0.960 . S
C516 H502 0.960 . S
C516 H503 0.960 . S
C516 C515 1.524 . S
C517 C514 1.403 . S
C517 C518 1.392 1_455 S
C517 C521 1.495 . S
C518 C517 1.392 1_655 S
C518 C519 1.385 1_554 S
C518 C520 1.478 . S
C519 H513 0.930 . S
C519 C515 1.400 . S
C519 C518 1.385 1_556 S
C520 C518 1.478 . S
C520 C522 1.381 . S
C520 C526 1.383 . S
C521 C517 1.495 . S
C521 H527 0.959 . S
C521 H528 0.961 . S
C521 H529 0.960 . S
C522 C520 1.381 . S
C522 C523 1.394 . S
C522 H530 0.930 . S
C523 C522 1.394 . S
C523 C524 1.383 . S
C523 H531 0.929 . S
C524 C523 1.383 . S
C524 C525 1.377 . S
C525 H509 0.930 . S
C525 C524 1.377 . S
C525 C526 1.379 . S
C526 H510 0.931 . S
C526 C520 1.383 . S
C526 C525 1.379 . S
H527 C521 0.959 . S
H528 C521 0.961 . S
H529 C521 0.960 . S
H530 C522 0.930 . S
H531 C523 0.929 . S
H532 C540 0.929 . S
H533 C542 0.930 . S
H534 C544 0.930 . S
H535 C547 0.929 . S
H536 C550 0.930 . S
H537 C552 0.960 . S
H538 C552 0.960 . S
H539 C552 0.960 . S
C540 H532 0.929 . S
C540 C541 1.377 . S
C540 C542 1.384 . S
C541 C540 1.377 . S
C541 C547 1.390 . S
C542 H533 0.930 . S
C542 C540 1.384 . S
C542 C543 1.372 . S
C543 C542 1.372 . S
C543 C544 1.400 . S
C543 C548 1.490 . S
C544 H534 0.930 . S
C544 C543 1.400 . S
C544 C547 1.386 . S
H545 C561 0.930 . S
H546 C562 0.931 . S
C547 H535 0.929 . S
C547 C541 1.390 . S
C547 C544 1.386 . S
C548 C543 1.490 . S
C548 C550 1.395 . S
C548 C551 1.403 . S
H549 C555 0.930 . S
C550 H536 0.930 . S
C550 C548 1.395 . S
C550 C553 1.403 . S
C551 C548 1.403 . S
C551 C552 1.524 . S
C551 C555 1.400 . S
C552 H537 0.960 . S
C552 H538 0.960 . S
C552 H539 0.960 . S
C552 C551 1.524 . S
C553 C550 1.403 . S
C553 C554 1.392 . S
C553 C557 1.495 . S
C554 C553 1.392 . S
C554 C555 1.385 . S
C554 C556 1.478 . S
C555 H549 0.930 . S
C555 C551 1.400 . S
C555 C554 1.385 . S
C556 C554 1.478 . S
C556 C558 1.381 . S
C556 C562 1.383 . S
C557 C553 1.495 . S
C557 H563 0.959 . S
C557 H564 0.961 . S
C557 H565 0.960 . S
C558 C556 1.381 . S
C558 C559 1.394 . S
C558 H566 0.930 . S
C559 C558 1.394 . S
C559 C560 1.383 . S
C559 H567 0.929 . S
C560 C559 1.383 . S
C560 C561 1.377 . S
C561 H545 0.930 . S
C561 C560 1.377 . S
C561 C562 1.379 . S
C562 H546 0.931 . S
C562 C556 1.383 . S
C562 C561 1.379 . S
H563 C557 0.959 . S
H564 C557 0.961 . S
H565 C557 0.960 . S
H566 C558 0.930 . S
H567 C559 0.929 . S
H568 C576 0.929 . S
H569 C578 0.930 . S
H570 C580 0.930 . S
H571 C583 0.929 . S
H572 C586 0.930 . S
H573 C588 0.960 . S
H574 C588 0.960 . S
H575 C588 0.960 . S
C576 H568 0.929 . S
C576 C577 1.377 . S
C576 C578 1.384 . S
C577 C576 1.377 . S
C577 C583 1.390 . S
C578 H569 0.930 . S
C578 C576 1.384 . S
C578 C579 1.372 . S
C579 C578 1.372 . S
C579 C580 1.400 . S
C579 C584 1.490 . S
C580 H570 0.930 . S
C580 C579 1.400 . S
C580 C583 1.386 . S
H581 C597 0.930 . S
H582 C598 0.931 . S
C583 H571 0.929 . S
C583 C577 1.390 . S
C583 C580 1.386 . S
C584 C579 1.490 . S
C584 C586 1.395 1_556 S
C584 C587 1.403 . S
H585 C591 0.930 . S
C586 H572 0.930 . S
C586 C584 1.395 1_554 S
C586 C589 1.403 . S
C587 C584 1.403 . S
C587 C588 1.524 . S
C587 C591 1.400 . S
C588 H573 0.960 . S
C588 H574 0.960 . S
C588 H575 0.960 . S
C588 C587 1.524 . S
C589 C586 1.403 . S
C589 C590 1.392 . S
C589 C593 1.495 . S
C590 C589 1.392 . S
C590 C591 1.385 1_554 S
C590 C592 1.478 . S
C591 H585 0.930 . S
C591 C587 1.400 . S
C591 C590 1.385 1_556 S
C592 C590 1.478 . S
C592 C594 1.381 . S
C592 C598 1.383 . S
C593 C589 1.495 . S
C593 H599 0.959 . S
C593 H600 0.961 . S
C593 H601 0.960 . S
C594 C592 1.381 . S
C594 C595 1.394 . S
C594 H602 0.930 . S
C595 C594 1.394 . S
C595 C596 1.383 . S
C595 H603 0.929 . S
C596 C595 1.383 . S
C596 C597 1.377 . S
C597 H581 0.930 . S
C597 C596 1.377 . S
C597 C598 1.379 . S
C598 H582 0.931 . S
C598 C592 1.383 . S
C598 C597 1.379 . S
H599 C593 0.959 . S
H600 C593 0.961 . S
H601 C593 0.960 . S
H602 C594 0.930 . S
H603 C595 0.929 . S
H604 C612 0.929 . S
H605 C614 0.930 . S
H606 C616 0.930 . S
H607 C619 0.929 . S
H608 C622 0.930 . S
H609 C624 0.960 . S
H610 C624 0.960 . S
H611 C624 0.960 . S
C612 H604 0.929 . S
C612 C613 1.377 . S
C612 C614 1.384 . S
C613 C612 1.377 . S
C613 C619 1.390 . S
C614 H605 0.930 . S
C614 C612 1.384 . S
C614 C615 1.372 . S
C615 C614 1.372 . S
C615 C616 1.400 . S
C615 C620 1.490 . S
C616 H606 0.930 . S
C616 C615 1.400 . S
C616 C619 1.386 . S
H617 C633 0.930 . S
H618 C634 0.931 . S
C619 H607 0.929 . S
C619 C613 1.390 . S
C619 C616 1.386 . S
C620 C615 1.490 . S
C620 C622 1.395 . S
C620 C623 1.403 . S
H621 C627 0.930 . S
C622 H608 0.930 . S
C622 C620 1.395 . S
C622 C625 1.403 . S
C623 C620 1.403 . S
C623 C624 1.524 . S
C623 C627 1.400 . S
C624 H609 0.960 . S
C624 H610 0.960 . S
C624 H611 0.960 . S
C624 C623 1.524 . S
C625 C622 1.403 . S
C625 C626 1.392 . S
C625 C629 1.495 . S
C626 C625 1.392 . S
C626 C627 1.385 . S
C626 C628 1.478 . S
C627 H621 0.930 . S
C627 C623 1.400 . S
C627 C626 1.385 . S
C628 C626 1.478 . S
C628 C630 1.381 . S
C628 C634 1.383 . S
C629 C625 1.495 . S
C629 H635 0.959 . S
C629 H636 0.961 . S
C629 H637 0.960 . S
C630 C628 1.381 . S
C630 C631 1.394 . S
C630 H638 0.930 . S
C631 C630 1.394 . S
C631 C632 1.383 . S
C631 H639 0.929 . S
C632 C631 1.383 . S
C632 C633 1.377 . S
C633 H617 0.930 . S
C633 C632 1.377 . S
C633 C634 1.379 . S
C634 H618 0.931 . S
C634 C628 1.383 . S
C634 C633 1.379 . S
H635 C629 0.959 . S
H636 C629 0.961 . S
H637 C629 0.960 . S
H638 C630 0.930 . S
H639 C631 0.929 . S
H640 C648 0.929 . S
H641 C650 0.930 . S
H642 C652 0.930 . S
H643 C655 0.929 . S
H644 C658 0.930 . S
H645 C660 0.960 . S
H646 C660 0.960 . S
H647 C660 0.960 . S
C648 H640 0.929 . S
C648 C649 1.377 . S
C648 C650 1.384 . S
C649 C648 1.377 . S
C649 C655 1.390 . S
C650 H641 0.930 . S
C650 C648 1.384 . S
C650 C651 1.372 . S
C651 C650 1.372 . S
C651 C652 1.400 . S
C651 C656 1.490 . S
C652 H642 0.930 . S
C652 C651 1.400 . S
C652 C655 1.386 . S
H653 C669 0.930 . S
H654 C670 0.931 . S
C655 H643 0.929 . S
C655 C649 1.390 . S
C655 C652 1.386 . S
C656 C651 1.490 . S
C656 C658 1.395 1_545 S
C656 C659 1.403 1_556 S
H657 C663 0.930 . S
C658 H644 0.930 . S
C658 C656 1.395 1_565 S
C658 C661 1.403 . S
C659 C656 1.403 1_554 S
C659 C660 1.524 . S
C659 C663 1.400 . S
C660 H645 0.960 . S
C660 H646 0.960 . S
C660 H647 0.960 . S
C660 C659 1.524 . S
C661 C658 1.403 . S
C661 C662 1.392 1_556 S
C661 C665 1.495 . S
C662 C661 1.392 1_554 S
C662 C663 1.385 1_565 S
C662 C664 1.478 . S
C663 H657 0.930 . S
C663 C659 1.400 . S
C663 C662 1.385 1_545 S
C664 C662 1.478 . S
C664 C666 1.381 . S
C664 C670 1.383 . S
C665 C661 1.495 . S
C665 H671 0.959 . S
C665 H672 0.961 . S
C665 H673 0.960 . S
C666 C664 1.381 . S
C666 C667 1.394 . S
C666 H674 0.954 . S
C667 C666 1.394 . S
C667 C668 1.383 . S
C667 H675 0.929 . S
C668 C667 1.383 . S
C668 C669 1.377 . S
C669 H653 0.930 . S
C669 C668 1.377 . S
C669 C670 1.379 . S
C670 H654 0.931 . S
C670 C664 1.383 . S
C670 C669 1.379 . S
H671 C665 0.959 . S
H672 C665 0.961 . S
H673 C665 0.960 . S
H674 C666 0.954 . S
H675 C667 0.929 . S
H676 C684 0.929 . S
H677 C686 0.930 . S
H678 C688 0.930 . S
H679 C691 0.929 . S
H680 C694 0.930 . S
H681 C696 0.960 . S
H682 C696 0.960 . S
H683 C696 0.960 . S
C684 H676 0.929 . S
C684 C685 1.377 . S
C684 C686 1.384 . S
C685 C684 1.377 . S
C685 C691 1.390 . S
C686 H677 0.930 . S
C686 C684 1.384 . S
C686 C687 1.372 . S
C687 C686 1.372 . S
C687 C688 1.400 . S
C687 C692 1.490 . S
C688 H678 0.930 . S
C688 C687 1.400 . S
C688 C691 1.386 . S
H689 C705 0.930 . S
H690 C706 0.931 . S
C691 H679 0.929 . S
C691 C685 1.390 . S
C691 C688 1.386 . S
C692 C687 1.490 . S
C692 C694 1.395 . S
C692 C695 1.403 . S
H693 C699 0.930 . S
C694 H680 0.930 . S
C694 C692 1.395 . S
C694 C697 1.403 . S
C695 C692 1.403 . S
C695 C696 1.524 . S
C695 C699 1.400 . S
C696 H681 0.960 . S
C696 H682 0.960 . S
C696 H683 0.960 . S
C696 C695 1.524 . S
C697 C694 1.403 . S
C697 C698 1.392 . S
C697 C701 1.495 . S
C698 C697 1.392 . S
C698 C699 1.385 . S
C698 C700 1.478 . S
C699 H693 0.930 . S
C699 C695 1.400 . S
C699 C698 1.385 . S
C700 C698 1.478 . S
C700 C702 1.381 . S
C700 C706 1.383 . S
C701 C697 1.495 . S
C701 H707 0.959 . S
C701 H708 0.961 . S
C701 H709 0.960 . S
C702 C700 1.381 . S
C702 C703 1.394 . S
C702 H710 0.930 . S
C703 C702 1.394 . S
C703 C704 1.383 . S
C703 H711 0.929 . S
C704 C703 1.383 . S
C704 C705 1.377 . S
C705 H689 0.930 . S
C705 C704 1.377 . S
C705 C706 1.379 . S
C706 H690 0.931 . S
C706 C700 1.383 . S
C706 C705 1.379 . S
H707 C701 0.959 . S
H708 C701 0.961 . S
H709 C701 0.960 . S
H710 C702 0.930 . S
H711 C703 0.929 . S
H712 C720 0.929 . S
H713 C722 0.930 . S
H714 C724 0.930 . S
H715 C727 0.929 . S
H716 C730 0.930 . S
H717 C732 0.960 . S
H718 C732 0.960 . S
H719 C732 0.960 . S
C720 H712 0.929 . S
C720 C721 1.377 . S
C720 C722 1.384 . S
C721 C720 1.377 . S
C721 C727 1.390 . S
C722 H713 0.930 . S
C722 C720 1.384 . S
C722 C723 1.372 . S
C723 C722 1.372 . S
C723 C724 1.400 . S
C723 C728 1.490 . S
C724 H714 0.930 . S
C724 C723 1.400 . S
C724 C727 1.386 . S
H725 C741 0.930 . S
H726 C742 0.931 . S
C727 H715 0.929 . S
C727 C721 1.390 . S
C727 C724 1.386 . S
C728 C723 1.490 . S
C728 C730 1.395 . S
C728 C731 1.403 . S
H729 C735 0.930 . S
C730 H716 0.930 . S
C730 C728 1.395 . S
C730 C733 1.403 . S
C731 C728 1.403 . S
C731 C732 1.524 . S
C731 C735 1.400 . S
C732 H717 0.960 . S
C732 H718 0.960 . S
C732 H719 0.960 . S
C732 C731 1.524 . S
C733 C730 1.403 . S
C733 C734 1.392 . S
C733 C737 1.495 . S
C734 C733 1.392 . S
C734 C735 1.385 . S
C734 C736 1.478 . S
C735 H729 0.930 . S
C735 C731 1.400 . S
C735 C734 1.385 . S
C736 C734 1.478 . S
C736 C738 1.381 . S
C736 C742 1.383 . S
C737 C733 1.495 . S
C737 H743 0.959 . S
C737 H744 0.961 . S
C737 H745 0.960 . S
C738 C736 1.381 . S
C738 C739 1.394 . S
C738 H746 0.930 . S
C739 C738 1.394 . S
C739 C740 1.383 . S
C739 H747 0.929 . S
C740 C739 1.383 . S
C740 C741 1.377 . S
C741 H725 0.930 . S
C741 C740 1.377 . S
C741 C742 1.379 . S
C742 H726 0.931 . S
C742 C736 1.383 . S
C742 C741 1.379 . S
H743 C737 0.959 . S
H744 C737 0.961 . S
H745 C737 0.960 . S
H746 C738 0.930 . S
H747 C739 0.929 . S
H748 C756 0.929 . S
H749 C758 0.930 . S
H750 C760 0.930 . S
H751 C763 0.929 . S
H752 C766 0.930 . S
H753 C768 0.960 . S
H754 C768 0.960 . S
H755 C768 0.960 . S
C756 H748 0.929 . S
C756 C757 1.377 . S
C756 C758 1.384 . S
C757 C756 1.377 . S
C757 C763 1.390 . S
C758 H749 0.930 . S
C758 C756 1.384 . S
C758 C759 1.372 . S
C759 C758 1.372 . S
C759 C760 1.400 . S
C759 C764 1.490 . S
C760 H750 0.930 . S
C760 C759 1.400 . S
C760 C763 1.386 . S
H761 C777 0.930 . S
H762 C778 0.931 . S
C763 H751 0.929 . S
C763 C757 1.390 . S
C763 C760 1.386 . S
C764 C759 1.490 . S
C764 C766 1.395 . S
C764 C767 1.403 . S
H765 C771 0.930 . S
C766 H752 0.930 . S
C766 C764 1.395 . S
C766 C769 1.403 . S
C767 C764 1.403 . S
C767 C768 1.524 . S
C767 C771 1.400 . S
C768 H753 0.960 . S
C768 H754 0.960 . S
C768 H755 0.960 . S
C768 C767 1.524 . S
C769 C766 1.403 . S
C769 C770 1.392 . S
C769 C773 1.495 . S
C770 C769 1.392 . S
C770 C771 1.385 . S
C770 C772 1.478 . S
C771 H765 0.930 . S
C771 C767 1.400 . S
C771 C770 1.385 . S
C772 C770 1.478 . S
C772 C774 1.381 . S
C772 C778 1.383 . S
C773 C769 1.495 . S
C773 H779 0.959 . S
C773 H780 0.961 . S
C773 H781 0.960 . S
C774 C772 1.381 . S
C774 C775 1.394 . S
C774 H782 0.930 . S
C775 C774 1.394 . S
C775 C776 1.383 . S
C775 H783 0.929 . S
C776 C775 1.383 . S
C776 C777 1.377 . S
C777 H761 0.930 . S
C777 C776 1.377 . S
C777 C778 1.379 . S
C778 H762 0.931 . S
C778 C772 1.383 . S
C778 C777 1.379 . S
H779 C773 0.959 . S
H780 C773 0.961 . S
H781 C773 0.960 . S
H782 C774 0.930 . S
H783 C775 0.929 . S
H784 C792 0.929 . S
H785 C794 0.930 . S
H786 C796 0.930 . S
H787 C799 0.929 . S
H788 C802 0.930 . S
H789 C804 0.960 . S
H790 C804 0.960 . S
H791 C804 0.960 . S
C792 H784 0.929 . S
C792 C793 1.377 . S
C792 C794 1.384 . S
C793 C792 1.377 . S
C793 C799 1.390 . S
C794 H785 0.930 . S
C794 C792 1.384 . S
C794 C795 1.372 . S
C795 C794 1.372 . S
C795 C796 1.400 . S
C795 C800 1.490 . S
C796 H786 0.930 . S
C796 C795 1.400 . S
C796 C799 1.386 . S
H797 C813 0.930 . S
H798 C814 0.931 . S
C799 H787 0.929 . S
C799 C793 1.390 . S
C799 C796 1.386 . S
C800 C795 1.490 . S
C800 C802 1.395 . S
C800 C803 1.403 . S
H801 C807 0.930 . S
C802 H788 0.930 . S
C802 C800 1.395 . S
C802 C805 1.403 . S
C803 C800 1.403 . S
C803 C804 1.524 . S
C803 C807 1.400 . S
C804 H789 0.960 . S
C804 H790 0.960 . S
C804 H791 0.960 . S
C804 C803 1.524 . S
C805 C802 1.403 . S
C805 C806 1.392 . S
C805 C809 1.495 . S
C806 C805 1.392 . S
C806 C807 1.385 . S
C806 C808 1.478 . S
C807 H801 0.930 . S
C807 C803 1.400 . S
C807 C806 1.385 . S
C808 C806 1.478 . S
C808 C810 1.381 . S
C808 C814 1.383 1_565 S
C809 C805 1.495 . S
C809 H815 0.959 . S
C809 H816 0.961 . S
C809 H817 0.960 . S
C810 C808 1.381 . S
C810 C811 1.394 1_565 S
C810 H818 0.930 . S
C811 C810 1.394 1_545 S
C811 C812 1.383 . S
C811 H819 0.929 . S
C812 C811 1.383 . S
C812 C813 1.377 . S
C813 H797 0.930 . S
C813 C812 1.377 . S
C813 C814 1.379 . S
C814 H798 0.931 . S
C814 C808 1.383 1_545 S
C814 C813 1.379 . S
H815 C809 0.959 . S
H816 C809 0.961 . S
H817 C809 0.960 . S
H818 C810 0.930 . S
H819 C811 0.929 . S
H820 C828 0.929 . S
H821 C830 0.930 . S
H822 C832 0.930 . S
H823 C835 0.929 . S
H824 C838 0.930 . S
H825 C840 0.960 . S
H826 C840 0.960 . S
H827 C840 0.960 . S
C828 H820 0.929 . S
C828 C829 1.377 . S
C828 C830 1.384 . S
C829 C828 1.377 . S
C829 C835 1.390 . S
C830 H821 0.930 . S
C830 C828 1.384 . S
C830 C831 1.372 . S
C831 C830 1.372 . S
C831 C832 1.400 . S
C831 C836 1.490 . S
C832 H822 0.930 . S
C832 C831 1.400 . S
C832 C835 1.386 . S
H833 C849 0.930 . S
H834 C850 0.931 . S
C835 H823 0.929 . S
C835 C829 1.390 . S
C835 C832 1.386 . S
C836 C831 1.490 . S
C836 C838 1.395 . S
C836 C839 1.403 . S
H837 C843 0.930 . S
C838 H824 0.930 . S
C838 C836 1.395 . S
C838 C841 1.403 . S
C839 C836 1.403 . S
C839 C840 1.524 . S
C839 C843 1.400 . S
C840 H825 0.960 . S
C840 H826 0.960 . S
C840 H827 0.960 . S
C840 C839 1.524 . S
C841 C838 1.403 . S
C841 C842 1.392 . S
C841 C845 1.495 . S
C842 C841 1.392 . S
C842 C843 1.385 . S
C842 C844 1.478 . S
C843 H837 0.930 . S
C843 C839 1.400 . S
C843 C842 1.385 . S
C844 C842 1.478 . S
C844 C846 1.381 . S
C844 C850 1.383 . S
C845 C841 1.495 . S
C845 H851 0.959 . S
C845 H852 0.961 . S
C845 H853 0.960 . S
C846 C844 1.381 . S
C846 C847 1.394 . S
C846 H854 0.930 . S
C847 C846 1.394 . S
C847 C848 1.383 . S
C847 H855 0.929 . S
C848 C847 1.383 . S
C848 C849 1.377 . S
C849 H833 0.930 . S
C849 C848 1.377 . S
C849 C850 1.379 . S
C850 H834 0.931 . S
C850 C844 1.383 . S
C850 C849 1.379 . S
H851 C845 0.959 . S
H852 C845 0.961 . S
H853 C845 0.960 . S
H854 C846 0.930 . S
H855 C847 0.929 . S
H856 C864 0.929 . S
H857 C866 0.930 . S
H858 C868 0.930 . S
H859 C871 0.929 . S
H860 C874 0.930 . S
H861 C876 0.960 . S
H862 C876 0.960 . S
H863 C876 0.960 . S
C864 H856 0.929 . S
C864 C865 1.377 . S
C864 C866 1.384 . S
C865 C864 1.377 . S
C865 C871 1.390 . S
C866 H857 0.930 . S
C866 C864 1.384 . S
C866 C867 1.372 . S
C867 C866 1.372 . S
C867 C868 1.400 . S
C867 C872 1.490 . S
C868 H858 0.930 . S
C868 C867 1.400 . S
C868 C871 1.386 . S
H869 C885 0.930 . S
H870 C886 0.931 . S
C871 H859 0.929 . S
C871 C865 1.390 . S
C871 C868 1.386 . S
C872 C867 1.490 . S
C872 C874 1.395 . S
C872 C875 1.403 . S
H873 C879 0.930 . S
C874 H860 0.930 . S
C874 C872 1.395 . S
C874 C877 1.403 . S
C875 C872 1.403 . S
C875 C876 1.524 . S
C875 C879 1.400 . S
C876 H861 0.960 . S
C876 H862 0.960 . S
C876 H863 0.960 . S
C876 C875 1.524 . S
C877 C874 1.403 . S
C877 C878 1.392 . S
C877 C881 1.495 . S
C878 C877 1.392 . S
C878 C879 1.385 . S
C878 C880 1.478 . S
C879 H873 0.930 . S
C879 C875 1.400 . S
C879 C878 1.385 . S
C880 C878 1.478 . S
C880 C882 1.381 . S
C880 C886 1.383 . S
C881 C877 1.495 . S
C881 H887 0.959 . S
C881 H888 0.961 . S
C881 H889 0.960 . S
C882 C880 1.381 . S
C882 C883 1.394 . S
C882 H890 0.930 . S
C883 C882 1.394 . S
C883 C884 1.383 . S
C883 H891 0.929 . S
C884 C883 1.383 . S
C884 C885 1.377 . S
C885 H869 0.930 . S
C885 C884 1.377 . S
C885 C886 1.379 . S
C886 H870 0.931 . S
C886 C880 1.383 . S
C886 C885 1.379 . S
H887 C881 0.959 . S
H888 C881 0.961 . S
H889 C881 0.960 . S
H890 C882 0.930 . S
H891 C883 0.929 . S
H892 C900 0.929 . S
H893 C902 0.930 . S
H894 C904 0.930 . S
H895 C907 0.929 . S
H896 C910 0.930 . S
H897 C912 0.960 . S
H898 C912 0.960 . S
H899 C912 0.960 . S
C900 H892 0.929 . S
C900 C901 1.377 . S
C900 C902 1.384 . S
C901 C900 1.377 . S
C901 C907 1.390 . S
C902 H893 0.930 . S
C902 C900 1.384 . S
C902 C903 1.372 . S
C903 C902 1.372 . S
C903 C904 1.400 . S
C903 C908 1.490 . S
C904 H894 0.930 . S
C904 C903 1.400 . S
C904 C907 1.386 . S
H905 C921 0.930 . S
H906 C922 0.931 . S
C907 H895 0.929 . S
C907 C901 1.390 . S
C907 C904 1.386 . S
C908 C903 1.490 . S
C908 C910 1.395 . S
C908 C911 1.403 . S
H909 C915 0.930 . S
C910 H896 0.930 . S
C910 C908 1.395 . S
C910 C913 1.403 . S
C911 C908 1.403 . S
C911 C912 1.524 . S
C911 C915 1.400 . S
C912 H897 0.960 . S
C912 H898 0.960 . S
C912 H899 0.960 . S
C912 C911 1.524 . S
C913 C910 1.403 . S
C913 C914 1.392 . S
C913 C917 1.495 . S
C914 C913 1.392 . S
C914 C915 1.385 . S
C914 C916 1.478 . S
C915 H909 0.930 . S
C915 C911 1.400 . S
C915 C914 1.385 . S
C916 C914 1.478 . S
C916 C918 1.381 . S
C916 C922 1.383 . S
C917 C913 1.495 . S
C917 H923 0.959 . S
C917 H924 0.961 . S
C917 H925 0.960 . S
C918 C916 1.381 . S
C918 C919 1.394 1_565 S
C918 H926 0.930 . S
C919 C918 1.394 1_545 S
C919 C920 1.383 . S
C919 H927 0.929 . S
C920 C919 1.383 . S
C920 C921 1.377 . S
C921 H905 0.930 . S
C921 C920 1.377 . S
C921 C922 1.379 1_545 S
C922 H906 0.931 . S
C922 C916 1.383 . S
C922 C921 1.379 1_565 S
H923 C917 0.959 . S
H924 C917 0.961 . S
H925 C917 0.960 . S
H926 C918 0.930 . S
H927 C919 0.929 . S
H928 C936 0.929 . S
H929 C938 0.930 . S
H930 C940 0.930 . S
H931 C943 0.929 . S
H932 C946 0.930 . S
H933 C948 0.960 . S
H934 C948 0.960 . S
H935 C948 0.960 . S
C936 H928 0.929 . S
C936 C937 1.377 . S
C936 C938 1.384 . S
C937 C936 1.377 . S
C937 C943 1.390 . S
C938 H929 0.930 . S
C938 C936 1.384 . S
C938 C939 1.372 . S
C939 C938 1.372 . S
C939 C940 1.400 . S
C939 C944 1.490 . S
C940 H930 0.930 . S
C940 C939 1.400 . S
C940 C943 1.386 . S
H941 C957 0.928 1_545 S
H942 C958 0.931 . S
C943 H931 0.929 . S
C943 C937 1.390 . S
C943 C940 1.386 . S
C944 C939 1.490 . S
C944 C946 1.395 . S
C944 C947 1.403 . S
H945 C951 0.930 . S
C946 H932 0.930 . S
C946 C944 1.395 . S
C946 C949 1.403 . S
C947 C944 1.403 . S
C947 C948 1.524 . S
C947 C951 1.400 . S
C948 H933 0.960 . S
C948 H934 0.960 . S
C948 H935 0.960 . S
C948 C947 1.524 . S
C949 C946 1.403 . S
C949 C950 1.392 . S
C949 C953 1.495 . S
C950 C949 1.392 . S
C950 C951 1.385 . S
C950 C952 1.478 . S
C951 H945 0.930 . S
C951 C947 1.400 . S
C951 C950 1.385 . S
C952 C950 1.478 . S
C952 C954 1.381 1_545 S
C952 C958 1.383 . S
C953 C949 1.495 . S
C953 H959 0.959 . S
C953 H960 0.961 . S
C953 H961 0.960 1_545 S
C954 C952 1.381 1_565 S
C954 C955 1.394 . S
C954 H962 0.930 . S
C955 C954 1.394 . S
C955 C956 1.383 . S
C955 H963 0.929 . S
C956 C955 1.383 . S
C956 C957 1.377 . S
C957 H941 0.928 1_565 S
C957 C956 1.377 . S
C957 C958 1.379 1_565 S
C958 H942 0.931 . S
C958 C952 1.383 . S
C958 C957 1.379 1_545 S
H959 C953 0.959 . S
H960 C953 0.961 . S
H961 C953 0.960 1_565 S
H962 C954 0.930 . S
H963 C955 0.929 . S
H964 C972 0.929 . S
H965 C974 0.930 . S
H966 C976 0.930 . S
H967 C979 0.929 . S
H968 C982 0.930 . S
H969 C984 0.960 . S
H970 C984 0.960 . S
H971 C984 0.960 . S
C972 H964 0.929 . S
C972 C973 1.377 . S
C972 C974 1.384 . S
C973 C972 1.377 . S
C973 C979 1.390 . S
C974 H965 0.930 . S
C974 C972 1.384 . S
C974 C975 1.372 . S
C975 C974 1.372 . S
C975 C976 1.400 . S
C975 C980 1.490 . S
C976 H966 0.930 . S
C976 C975 1.400 . S
C976 C979 1.386 . S
H977 C993 0.930 . S
H978 C994 0.931 . S
C979 H967 0.929 . S
C979 C973 1.390 . S
C979 C976 1.386 . S
C980 C975 1.490 . S
C980 C982 1.395 . S
C980 C983 1.403 . S
H981 C987 0.930 . S
C982 H968 0.930 . S
C982 C980 1.395 . S
C982 C985 1.403 . S
C983 C980 1.403 . S
C983 C984 1.524 . S
C983 C987 1.400 . S
C984 H969 0.960 . S
C984 H970 0.960 . S
C984 H971 0.960 . S
C984 C983 1.524 . S
C985 C982 1.403 . S
C985 C986 1.392 . S
C985 C989 1.495 . S
C986 C985 1.392 . S
C986 C987 1.385 . S
C986 C988 1.478 . S
C987 H981 0.930 . S
C987 C983 1.400 . S
C987 C986 1.385 . S
C988 C986 1.478 . S
C988 C990 1.381 . S
C988 C994 1.383 . S
C989 C985 1.495 . S
C989 H995 0.959 . S
C989 H996 0.961 . S
C989 H997 0.960 . S
C990 C988 1.381 . S
C990 C991 1.394 . S
C990 H998 0.930 . S
C991 C990 1.394 . S
C991 C992 1.383 . S
C991 H999 0.929 . S
C992 C991 1.383 . S
C992 C993 1.377 . S
C993 H977 0.930 . S
C993 C992 1.377 . S
C993 C994 1.379 . S
C994 H978 0.931 . S
C994 C988 1.383 . S
C994 C993 1.379 . S
H995 C989 0.959 . S
H996 C989 0.961 . S
H997 C989 0.960 . S
H998 C990 0.930 . S
H999 C991 0.929 . S
H1000 C1008 0.929 . S
H1001 C1010 0.930 . S
H1002 C1012 0.930 . S
H1003 C1015 0.929 . S
H1004 C1018 0.930 . S
H1005 C1020 0.960 . S
H1006 C1020 0.960 . S
H1007 C1020 0.960 . S
C1008 H1000 0.929 . S
C1008 C1009 1.377 . S
C1008 C1010 1.384 . S
C1009 C1008 1.377 . S
C1009 C1015 1.390 . S
C1010 H1001 0.930 . S
C1010 C1008 1.384 . S
C1010 C1011 1.372 . S
C1011 C1010 1.372 . S
C1011 C1012 1.400 . S
C1011 C1016 1.490 . S
C1012 H1002 0.930 . S
C1012 C1011 1.400 . S
C1012 C1015 1.386 . S
H1013 C1029 0.930 . S
H1014 C1030 0.931 . S
C1015 H1003 0.929 . S
C1015 C1009 1.390 . S
C1015 C1012 1.386 . S
C1016 C1011 1.490 . S
C1016 C1018 1.395 . S
C1016 C1019 1.403 . S
H1017 C1023 0.930 . S
C1018 H1004 0.930 . S
C1018 C1016 1.395 . S
C1018 C1021 1.403 . S
C1019 C1016 1.403 . S
C1019 C1020 1.524 . S
C1019 C1023 1.400 . S
C1020 H1005 0.960 . S
C1020 H1006 0.960 . S
C1020 H1007 0.960 . S
C1020 C1019 1.524 . S
C1021 C1018 1.403 . S
C1021 C1022 1.392 . S
C1021 C1025 1.495 . S
C1022 C1021 1.392 . S
C1022 C1023 1.385 . S
C1022 C1024 1.478 . S
C1023 H1017 0.930 . S
C1023 C1019 1.400 . S
C1023 C1022 1.385 . S
C1024 C1022 1.478 . S
C1024 C1026 1.381 . S
C1024 C1030 1.383 . S
C1025 C1021 1.495 . S
C1025 H1031 0.959 . S
C1025 H1032 0.961 . S
C1025 H1033 0.960 . S
C1026 C1024 1.381 . S
C1026 C1027 1.394 . S
C1026 H1034 0.930 . S
C1027 C1026 1.394 . S
C1027 C1028 1.383 . S
C1027 H1035 0.929 . S
C1028 C1027 1.383 . S
C1028 C1029 1.377 . S
C1029 H1013 0.930 . S
C1029 C1028 1.377 . S
C1029 C1030 1.379 . S
C1030 H1014 0.931 . S
C1030 C1024 1.383 . S
C1030 C1029 1.379 . S
H1031 C1025 0.959 . S
H1032 C1025 0.961 . S
H1033 C1025 0.960 . S
H1034 C1026 0.930 . S
H1035 C1027 0.929 . S
H1036 C1044 0.930 . S
H1037 C1046 0.930 . S
H1038 C1048 0.930 . S
H1039 C1051 0.929 . S
H1040 C1054 0.930 . S
H1041 C1056 0.960 . S
H1042 C1056 0.960 . S
H1043 C1056 0.960 1_565 S
C1044 H1036 0.930 . S
C1044 C1045 1.368 1_545 S
C1044 C1046 1.393 . S
C1045 C1044 1.368 1_565 S
C1045 C1051 1.390 . S
C1046 H1037 0.930 . S
C1046 C1044 1.393 . S
C1046 C1047 1.372 . S
C1047 C1046 1.372 . S
C1047 C1048 1.400 1_545 S
C1047 C1052 1.490 . S
C1048 H1038 0.930 . S
C1048 C1047 1.400 1_565 S
C1048 C1051 1.386 . S
H1049 C1065 0.930 . S
H1050 C1066 0.931 . S
C1051 H1039 0.929 . S
C1051 C1045 1.390 . S
C1051 C1048 1.386 . S
C1052 C1047 1.490 . S
C1052 C1054 1.395 . S
C1052 C1055 1.403 . S
H1053 C1059 0.930 . S
C1054 H1040 0.930 . S
C1054 C1052 1.395 . S
C1054 C1057 1.403 . S
C1055 C1052 1.403 . S
C1055 C1056 1.524 . S
C1055 C1059 1.400 . S
C1056 H1041 0.960 . S
C1056 H1042 0.960 . S
C1056 H1043 0.960 1_545 S
C1056 C1055 1.524 . S
C1057 C1054 1.403 . S
C1057 C1058 1.392 . S
C1057 C1061 1.495 . S
C1058 C1057 1.392 . S
C1058 C1059 1.385 . S
C1058 C1060 1.478 . S
C1059 H1053 0.930 . S
C1059 C1055 1.400 . S
C1059 C1058 1.385 . S
C1060 C1058 1.478 . S
C1060 C1062 1.381 . S
C1060 C1066 1.383 . S
C1061 C1057 1.495 . S
C1061 H1067 0.959 . S
C1061 H1068 0.961 . S
C1061 H1069 0.960 . S
C1062 C1060 1.381 . S
C1062 C1063 1.394 . S
C1062 H1070 0.930 . S
C1063 C1062 1.394 . S
C1063 C1064 1.383 . S
C1063 H1071 0.929 . S
C1064 C1063 1.383 . S
C1064 C1065 1.377 . S
C1065 H1049 0.930 . S
C1065 C1064 1.377 . S
C1065 C1066 1.379 . S
C1066 H1050 0.931 . S
C1066 C1060 1.383 . S
C1066 C1065 1.379 . S
H1067 C1061 0.959 . S
H1068 C1061 0.961 . S
H1069 C1061 0.960 . S
H1070 C1062 0.930 . S
H1071 C1063 0.929 . S
H1072 C1080 0.929 . S
H1073 C1082 0.930 . S
H1074 C1084 0.930 . S
H1075 C1087 0.929 . S
H1076 C1090 0.930 . S
H1077 C1092 0.960 . S
H1078 C1092 0.960 . S
H1079 C1092 0.960 . S
C1080 H1072 0.929 . S
C1080 C1081 1.377 . S
C1080 C1082 1.384 . S
C1081 C1080 1.377 . S
C1081 C1087 1.390 . S
C1082 H1073 0.930 . S
C1082 C1080 1.384 . S
C1082 C1083 1.372 . S
C1083 C1082 1.372 . S
C1083 C1084 1.400 . S
C1083 C1088 1.490 . S
C1084 H1074 0.930 . S
C1084 C1083 1.400 . S
C1084 C1087 1.386 . S
H1085 C1101 0.930 . S
H1086 C1102 0.931 . S
C1087 H1075 0.929 . S
C1087 C1081 1.390 . S
C1087 C1084 1.386 . S
C1088 C1083 1.490 . S
C1088 C1090 1.395 . S
C1088 C1091 1.403 . S
H1089 C1095 0.930 . S
C1090 H1076 0.930 . S
C1090 C1088 1.395 . S
C1090 C1093 1.403 . S
C1091 C1088 1.403 . S
C1091 C1092 1.524 . S
C1091 C1095 1.400 . S
C1092 H1077 0.960 . S
C1092 H1078 0.960 . S
C1092 H1079 0.960 . S
C1092 C1091 1.524 . S
C1093 C1090 1.403 . S
C1093 C1094 1.392 . S
C1093 C1097 1.495 . S
C1094 C1093 1.392 . S
C1094 C1095 1.385 . S
C1094 C1096 1.478 . S
C1095 H1089 0.930 . S
C1095 C1091 1.400 . S
C1095 C1094 1.385 . S
C1096 C1094 1.478 . S
C1096 C1098 1.381 . S
C1096 C1102 1.383 1_565 S
C1097 C1093 1.495 . S
C1097 H1103 0.959 . S
C1097 H1104 0.961 . S
C1097 H1105 0.960 . S
C1098 C1096 1.381 . S
C1098 C1099 1.394 . S
C1098 H1106 0.930 . S
C1099 C1098 1.394 . S
C1099 C1100 1.383 1_565 S
C1099 H1107 0.929 . S
C1100 C1099 1.383 1_545 S
C1100 C1101 1.377 . S
C1101 H1085 0.930 . S
C1101 C1100 1.377 . S
C1101 C1102 1.379 . S
C1102 H1086 0.931 . S
C1102 C1096 1.383 1_545 S
C1102 C1101 1.379 . S
H1103 C1097 0.959 . S
H1104 C1097 0.961 . S
H1105 C1097 0.960 . S
H1106 C1098 0.930 . S
H1107 C1099 0.929 . S
H1108 C1116 0.929 . S
H1109 C1118 0.930 . S
H1110 C1120 0.930 . S
H1111 C1123 0.929 . S
H1112 C1126 0.930 . S
H1113 C1128 0.960 . S
H1114 C1128 0.960 . S
H1115 C1128 0.960 . S
C1116 H1108 0.929 . S
C1116 C1117 1.377 . S
C1116 C1118 1.384 . S
C1117 C1116 1.377 . S
C1117 C1123 1.390 . S
C1118 H1109 0.930 . S
C1118 C1116 1.384 . S
C1118 C1119 1.372 . S
C1119 C1118 1.372 . S
C1119 C1120 1.400 . S
C1119 C1124 1.490 . S
C1120 H1110 0.930 . S
C1120 C1119 1.400 . S
C1120 C1123 1.386 . S
H1121 C1137 0.930 . S
H1122 C1138 0.931 . S
C1123 H1111 0.929 . S
C1123 C1117 1.390 . S
C1123 C1120 1.386 . S
C1124 C1119 1.490 . S
C1124 C1126 1.395 . S
C1124 C1127 1.403 . S
H1125 C1131 0.930 . S
C1126 H1112 0.930 . S
C1126 C1124 1.395 . S
C1126 C1129 1.403 . S
C1127 C1124 1.403 . S
C1127 C1128 1.524 . S
C1127 C1131 1.400 . S
C1128 H1113 0.960 . S
C1128 H1114 0.960 . S
C1128 H1115 0.960 . S
C1128 C1127 1.524 . S
C1129 C1126 1.403 . S
C1129 C1130 1.392 . S
C1129 C1133 1.495 . S
C1130 C1129 1.392 . S
C1130 C1131 1.385 . S
C1130 C1132 1.478 . S
C1131 H1125 0.930 . S
C1131 C1127 1.400 . S
C1131 C1130 1.385 . S
C1132 C1130 1.478 . S
C1132 C1134 1.381 . S
C1132 C1138 1.383 . S
C1133 C1129 1.495 . S
C1133 H1139 0.959 . S
C1133 H1140 0.961 . S
C1133 H1141 0.960 . S
C1134 C1132 1.381 . S
C1134 C1135 1.394 . S
C1134 H1142 0.930 . S
C1135 C1134 1.394 . S
C1135 C1136 1.383 . S
C1135 H1143 0.929 . S
C1136 C1135 1.383 . S
C1136 C1137 1.377 . S
C1137 H1121 0.930 . S
C1137 C1136 1.377 . S
C1137 C1138 1.379 . S
C1138 H1122 0.931 . S
C1138 C1132 1.383 . S
C1138 C1137 1.379 . S
H1139 C1133 0.959 . S
H1140 C1133 0.961 . S
H1141 C1133 0.960 . S
H1142 C1134 0.930 . S
H1143 C1135 0.929 . S
H1144 C1152 0.929 . S
H1145 C1154 0.930 . S
H1146 C1156 0.930 . S
H1147 C1159 0.929 . S
H1148 C1162 0.930 . S
H1149 C1164 0.960 . S
H1150 C1164 0.960 . S
H1151 C1164 0.960 . S
C1152 H1144 0.929 . S
C1152 C1153 1.377 . S
C1152 C1154 1.384 . S
C1153 C1152 1.377 . S
C1153 C1159 1.390 . S
C1154 H1145 0.930 . S
C1154 C1152 1.384 . S
C1154 C1155 1.372 . S
C1155 C1154 1.372 . S
C1155 C1156 1.400 . S
C1155 C1160 1.490 . S
C1156 H1146 0.930 . S
C1156 C1155 1.400 . S
C1156 C1159 1.386 . S
H1157 C1173 0.930 . S
H1158 C1174 0.931 . S
C1159 H1147 0.929 . S
C1159 C1153 1.390 . S
C1159 C1156 1.386 . S
C1160 C1155 1.490 . S
C1160 C1162 1.395 . S
C1160 C1163 1.403 . S
H1161 C1167 0.930 . S
C1162 H1148 0.930 . S
C1162 C1160 1.395 . S
C1162 C1165 1.403 . S
C1163 C1160 1.403 . S
C1163 C1164 1.524 . S
C1163 C1167 1.400 . S
C1164 H1149 0.960 . S
C1164 H1150 0.960 . S
C1164 H1151 0.960 . S
C1164 C1163 1.524 . S
C1165 C1162 1.403 . S
C1165 C1166 1.392 . S
C1165 C1169 1.495 . S
C1166 C1165 1.392 . S
C1166 C1167 1.385 . S
C1166 C1168 1.478 . S
C1167 H1161 0.930 . S
C1167 C1163 1.400 . S
C1167 C1166 1.385 . S
C1168 C1166 1.478 . S
C1168 C1170 1.381 . S
C1168 C1174 1.383 . S
C1169 C1165 1.495 . S
C1169 H1175 0.959 . S
C1169 H1176 0.961 . S
C1169 H1177 0.960 . S
C1170 C1168 1.381 . S
C1170 C1171 1.394 . S
C1170 H1178 0.930 . S
C1171 C1170 1.394 . S
C1171 C1172 1.383 . S
C1171 H1179 0.929 . S
C1172 C1171 1.383 . S
C1172 C1173 1.377 . S
C1173 H1157 0.930 . S
C1173 C1172 1.377 . S
C1173 C1174 1.379 . S
C1174 H1158 0.931 . S
C1174 C1168 1.383 . S
C1174 C1173 1.379 . S
H1175 C1169 0.959 . S
H1176 C1169 0.961 . S
H1177 C1169 0.960 . S
H1178 C1170 0.930 . S
H1179 C1171 0.929 . S
H1180 C1188 0.929 . S
H1181 C1190 0.930 . S
H1182 C1192 0.930 . S
H1183 C1195 0.929 . S
H1184 C1198 0.930 . S
H1185 C1200 0.960 . S
H1186 C1200 0.960 . S
H1187 C1200 0.960 . S
C1188 H1180 0.929 . S
C1188 C1189 1.377 . S
C1188 C1190 1.384 . S
C1189 C1188 1.377 . S
C1189 C1195 1.390 . S
C1190 H1181 0.930 . S
C1190 C1188 1.384 . S
C1190 C1191 1.372 . S
C1191 C1190 1.372 . S
C1191 C1192 1.400 . S
C1191 C1196 1.490 . S
C1192 H1182 0.930 . S
C1192 C1191 1.400 . S
C1192 C1195 1.386 . S
H1193 C1209 0.930 . S
H1194 C1210 0.931 . S
C1195 H1183 0.929 . S
C1195 C1189 1.390 . S
C1195 C1192 1.386 . S
C1196 C1191 1.490 . S
C1196 C1198 1.395 . S
C1196 C1199 1.403 . S
H1197 C1203 0.930 . S
C1198 H1184 0.930 . S
C1198 C1196 1.395 . S
C1198 C1201 1.403 . S
C1199 C1196 1.403 . S
C1199 C1200 1.524 . S
C1199 C1203 1.400 . S
C1200 H1185 0.960 . S
C1200 H1186 0.960 . S
C1200 H1187 0.960 . S
C1200 C1199 1.524 . S
C1201 C1198 1.403 . S
C1201 C1202 1.392 . S
C1201 C1205 1.495 . S
C1202 C1201 1.392 . S
C1202 C1203 1.385 . S
C1202 C1204 1.478 . S
C1203 H1197 0.930 . S
C1203 C1199 1.400 . S
C1203 C1202 1.385 . S
C1204 C1202 1.478 . S
C1204 C1206 1.381 1_565 S
C1204 C1210 1.383 . S
C1205 C1201 1.495 . S
C1205 H1211 0.959 . S
C1205 H1212 0.961 . S
C1205 H1213 0.960 1_565 S
C1206 C1204 1.381 1_545 S
C1206 C1207 1.394 . S
C1206 H1214 0.930 . S
C1207 C1206 1.394 . S
C1207 C1208 1.383 . S
C1207 H1215 0.929 . S
C1208 C1207 1.383 . S
C1208 C1209 1.377 1_545 S
C1209 H1193 0.930 . S
C1209 C1208 1.377 1_565 S
C1209 C1210 1.379 . S
C1210 H1194 0.931 . S
C1210 C1204 1.383 . S
C1210 C1209 1.379 . S
H1211 C1205 0.959 . S
H1212 C1205 0.961 . S
H1213 C1205 0.960 1_545 S
H1214 C1206 0.930 . S
H1215 C1207 0.929 . S
H1216 C1224 0.929 . S
H1217 C1226 0.930 . S
H1218 C1228 0.930 . S
H1219 C1231 0.929 . S
H1220 C1234 0.930 . S
H1221 C1236 0.960 . S
H1222 C1236 0.960 . S
H1223 C1236 0.960 . S
C1224 H1216 0.929 . S
C1224 C1225 1.377 . S
C1224 C1226 1.384 . S
C1225 C1224 1.377 . S
C1225 C1231 1.390 . S
C1226 H1217 0.930 . S
C1226 C1224 1.384 . S
C1226 C1227 1.372 . S
C1227 C1226 1.372 . S
C1227 C1228 1.400 . S
C1227 C1232 1.490 . S
C1228 H1218 0.930 . S
C1228 C1227 1.400 . S
C1228 C1231 1.386 . S
H1229 C1245 0.930 . S
H1230 C1246 0.931 . S
C1231 H1219 0.929 . S
C1231 C1225 1.390 . S
C1231 C1228 1.386 . S
C1232 C1227 1.490 . S
C1232 C1234 1.395 . S
C1232 C1235 1.403 . S
H1233 C1239 0.930 . S
C1234 H1220 0.930 . S
C1234 C1232 1.395 . S
C1234 C1237 1.403 . S
C1235 C1232 1.403 . S
C1235 C1236 1.524 . S
C1235 C1239 1.400 . S
C1236 H1221 0.960 . S
C1236 H1222 0.960 . S
C1236 H1223 0.960 . S
C1236 C1235 1.524 . S
C1237 C1234 1.403 . S
C1237 C1238 1.392 . S
C1237 C1241 1.495 . S
C1238 C1237 1.392 . S
C1238 C1239 1.385 . S
C1238 C1240 1.478 . S
C1239 H1233 0.930 . S
C1239 C1235 1.400 . S
C1239 C1238 1.385 . S
C1240 C1238 1.478 . S
C1240 C1242 1.381 1_545 S
C1240 C1246 1.383 . S
C1241 C1237 1.495 . S
C1241 H1247 0.959 . S
C1241 H1248 0.961 1_545 S
C1241 H1249 0.960 1_545 S
C1242 C1240 1.381 1_565 S
C1242 C1243 1.394 . S
C1242 H1250 0.929 1_565 S
C1243 C1242 1.394 . S
C1243 C1244 1.383 . S
C1243 H1251 0.929 . S
C1244 C1243 1.383 . S
C1244 C1245 1.377 . S
C1245 H1229 0.930 . S
C1245 C1244 1.377 . S
C1245 C1246 1.379 1_565 S
C1246 H1230 0.931 . S
C1246 C1240 1.383 . S
C1246 C1245 1.379 1_545 S
H1247 C1241 0.959 . S
H1248 C1241 0.961 1_565 S
H1249 C1241 0.960 1_565 S
H1250 C1242 0.929 1_545 S
H1251 C1243 0.929 . S
H1252 C1260 0.929 . S
H1253 C1262 0.930 . S
H1254 C1264 0.930 . S
H1255 C1267 0.929 . S
H1256 C1270 0.930 . S
H1257 C1272 0.960 . S
H1258 C1272 0.960 . S
H1259 C1272 0.960 . S
C1260 H1252 0.929 . S
C1260 C1261 1.377 . S
C1260 C1262 1.384 . S
C1261 C1260 1.377 . S
C1261 C1267 1.390 . S
C1262 H1253 0.930 . S
C1262 C1260 1.384 . S
C1262 C1263 1.372 . S
C1263 C1262 1.372 . S
C1263 C1264 1.400 . S
C1263 C1268 1.490 . S
C1264 H1254 0.930 . S
C1264 C1263 1.400 . S
C1264 C1267 1.386 . S
H1265 C1281 0.930 . S
H1266 C1282 0.931 . S
C1267 H1255 0.929 . S
C1267 C1261 1.390 . S
C1267 C1264 1.386 . S
C1268 C1263 1.490 . S
C1268 C1270 1.395 . S
C1268 C1271 1.403 . S
H1269 C1275 0.930 . S
C1270 H1256 0.930 . S
C1270 C1268 1.395 . S
C1270 C1273 1.403 . S
C1271 C1268 1.403 . S
C1271 C1272 1.524 . S
C1271 C1275 1.400 . S
C1272 H1257 0.960 . S
C1272 H1258 0.960 . S
C1272 H1259 0.960 . S
C1272 C1271 1.524 . S
C1273 C1270 1.403 . S
C1273 C1274 1.392 . S
C1273 C1277 1.495 . S
C1274 C1273 1.392 . S
C1274 C1275 1.385 . S
C1274 C1276 1.478 . S
C1275 H1269 0.930 . S
C1275 C1271 1.400 . S
C1275 C1274 1.385 . S
C1276 C1274 1.478 . S
C1276 C1278 1.381 . S
C1276 C1282 1.383 . S
C1277 C1273 1.495 . S
C1277 H1283 0.959 . S
C1277 H1284 0.961 . S
C1277 H1285 0.960 . S
C1278 C1276 1.381 . S
C1278 C1279 1.394 . S
C1278 H1286 0.930 . S
C1279 C1278 1.394 . S
C1279 C1280 1.383 . S
C1279 H1287 0.929 . S
C1280 C1279 1.383 . S
C1280 C1281 1.377 . S
C1281 H1265 0.930 . S
C1281 C1280 1.377 . S
C1281 C1282 1.379 . S
C1282 H1266 0.931 . S
C1282 C1276 1.383 . S
C1282 C1281 1.379 . S
H1283 C1277 0.959 . S
H1284 C1277 0.961 . S
H1285 C1277 0.960 . S
H1286 C1278 0.930 . S
H1287 C1279 0.929 . S
H1288 C1296 0.929 . S
H1289 C1298 0.930 . S
H1290 C1300 0.930 . S
H1291 C1303 0.929 . S
H1292 C1306 0.930 . S
H1293 C1308 0.960 . S
H1294 C1308 0.960 . S
H1295 C1308 0.960 . S
C1296 H1288 0.929 . S
C1296 C1297 1.377 . S
C1296 C1298 1.384 . S
C1297 C1296 1.377 . S
C1297 C1303 1.390 . S
C1298 H1289 0.930 . S
C1298 C1296 1.384 . S
C1298 C1299 1.372 . S
C1299 C1298 1.372 . S
C1299 C1300 1.400 . S
C1299 C1304 1.490 . S
C1300 H1290 0.930 . S
C1300 C1299 1.400 . S
C1300 C1303 1.386 . S
H1301 C1317 0.930 . S
H1302 C1318 0.931 . S
C1303 H1291 0.929 . S
C1303 C1297 1.390 . S
C1303 C1300 1.386 . S
C1304 C1299 1.490 . S
C1304 C1306 1.395 . S
C1304 C1307 1.403 . S
H1305 C1311 0.930 . S
C1306 H1292 0.930 . S
C1306 C1304 1.395 . S
C1306 C1309 1.403 . S
C1307 C1304 1.403 . S
C1307 C1308 1.524 . S
C1307 C1311 1.400 . S
C1308 H1293 0.960 . S
C1308 H1294 0.960 . S
C1308 H1295 0.960 . S
C1308 C1307 1.524 . S
C1309 C1306 1.403 . S
C1309 C1310 1.392 . S
C1309 C1313 1.495 . S
C1310 C1309 1.392 . S
C1310 C1311 1.385 . S
C1310 C1312 1.478 . S
C1311 H1305 0.930 . S
C1311 C1307 1.400 . S
C1311 C1310 1.385 . S
C1312 C1310 1.478 . S
C1312 C1314 1.381 . S
C1312 C1318 1.383 . S
C1313 C1309 1.495 . S
C1313 H1319 0.959 . S
C1313 H1320 0.961 . S
C1313 H1321 0.960 . S
C1314 C1312 1.381 . S
C1314 C1315 1.394 . S
C1314 H1322 0.930 . S
C1315 C1314 1.394 . S
C1315 C1316 1.383 . S
C1315 H1323 0.929 . S
C1316 C1315 1.383 . S
C1316 C1317 1.377 . S
C1317 H1301 0.930 . S
C1317 C1316 1.377 . S
C1317 C1318 1.379 . S
C1318 H1302 0.931 . S
C1318 C1312 1.383 . S
C1318 C1317 1.379 . S
H1319 C1313 0.959 . S
H1320 C1313 0.961 . S
H1321 C1313 0.960 . S
H1322 C1314 0.930 . S
H1323 C1315 0.929 . S
H1324 C1332 0.929 . S
H1325 C1334 0.930 . S
H1326 C1336 0.930 . S
H1327 C1339 0.929 . S
H1328 C1342 0.930 . S
H1329 C1344 0.960 . S
H1330 C1344 0.960 . S
H1331 C1344 0.960 . S
C1332 H1324 0.929 . S
C1332 C1333 1.377 . S
C1332 C1334 1.384 . S
C1333 C1332 1.377 . S
C1333 C1339 1.390 . S
C1334 H1325 0.930 . S
C1334 C1332 1.384 . S
C1334 C1335 1.372 . S
C1335 C1334 1.372 . S
C1335 C1336 1.400 . S
C1335 C1340 1.490 . S
C1336 H1326 0.930 . S
C1336 C1335 1.400 . S
C1336 C1339 1.386 . S
H1337 C1353 0.930 1_545 S
H1338 C1354 0.931 . S
C1339 H1327 0.929 . S
C1339 C1333 1.390 . S
C1339 C1336 1.386 . S
C1340 C1335 1.490 . S
C1340 C1342 1.395 . S
C1340 C1343 1.403 . S
H1341 C1347 0.930 . S
C1342 H1328 0.930 . S
C1342 C1340 1.395 . S
C1342 C1345 1.403 . S
C1343 C1340 1.403 . S
C1343 C1344 1.524 . S
C1343 C1347 1.400 . S
C1344 H1329 0.960 . S
C1344 H1330 0.960 . S
C1344 H1331 0.960 . S
C1344 C1343 1.524 . S
C1345 C1342 1.403 . S
C1345 C1346 1.392 . S
C1345 C1349 1.495 . S
C1346 C1345 1.392 . S
C1346 C1347 1.385 . S
C1346 C1348 1.478 . S
C1347 H1341 0.930 . S
C1347 C1343 1.400 . S
C1347 C1346 1.385 . S
C1348 C1346 1.478 . S
C1348 C1350 1.381 1_545 S
C1348 C1354 1.383 . S
C1349 C1345 1.495 . S
C1349 H1355 0.959 . S
C1349 H1356 0.961 . S
C1349 H1357 0.960 1_545 S
C1350 C1348 1.381 1_565 S
C1350 C1351 1.394 . S
C1350 H1358 0.930 . S
C1351 C1350 1.394 . S
C1351 C1352 1.383 . S
C1351 H1359 0.929 . S
C1352 C1351 1.383 . S
C1352 C1353 1.377 . S
C1353 H1337 0.930 1_565 S
C1353 C1352 1.377 . S
C1353 C1354 1.379 1_565 S
C1354 H1338 0.931 . S
C1354 C1348 1.383 . S
C1354 C1353 1.379 1_545 S
H1355 C1349 0.959 . S
H1356 C1349 0.961 . S
H1357 C1349 0.960 1_565 S
H1358 C1350 0.930 . S
H1359 C1351 0.929 . S
C217 C192 1.506 . S
C236 C10 1.510 . S
C253 C26 1.476 . S
C272 C0 1.467 . S
C289 C143 1.482 . S
C308 C13 1.498 . S
C325 C23 1.505 . S
C344 C101 1.496 . S
C361 C36 1.507 . S
C380 C166 1.498 . S
C397 C117 1.484 . S
C416 C39 1.492 . S
C433 C49 1.505 . S
C452 C75 1.503 . S
C469 C140 1.505 . S
C488 C62 1.507 . S
C505 C52 1.482 . S
C524 C78 1.498 . S
C541 C195 1.480 . S
C560 C65 1.495 . S
C577 C114 1.506 . S
C596 C88 1.497 . S
C613 C169 1.483 . S
C632 C91 1.497 . S
C649 C104 1.484 . S
C668 C130 1.474 . S
C685 C205 1.507 . S
C704 C127 1.503 . S
C721 C153 1.507 . S
C740 C179 1.503 . S
C757 C182 1.482 . S
C776 C156 1.498 . S
C793 C70 1.051 . S
C812 C8 1.046 . S
C829 C5 1.060 . S
C848 C73 1.030 . S
C865 C18 1.046 . S
C884 C60 1.072 . S
C901 C57 1.049 . S
C920 C21 1.082 . S
C937 C96 1.045 . S
C956 C34 1.028 . S
C973 C99 1.060 . S
C992 C31 1.083 . S
C1009 C86 1.050 . S
C1028 C44 1.015 . S
C1045 C47 1.054 . S
C1064 C83 1.060 . S
C1081 C174 1.046 . S
C1100 C112 1.072 . S
C1117 C109 1.059 . S
C1136 C177 1.041 . S
C1153 C122 1.060 . S
C1172 C164 1.021 . S
C1189 C161 1.060 . S
C1208 C125 1.025 . S
C1225 C200 1.045 . S
C1244 C138 1.022 . S
C1261 C203 1.059 . S
C1280 C135 1.080 . S
C1297 C148 1.048 . S
C1316 C190 1.023 . S
C1333 C187 1.045 . S
C1352 C151 1.028 . S
