# Generated by pormake.
# Topology sml, (6)-cn, num edge types: 1
# Building blocks:
#     Node 0, Type 0, BuildingBlock: MIDCAF_clean_sbu_0, # of connection points: 6
#     Node 1, Type 0, BuildingBlock: MIDCAF_clean_sbu_0, # of connection points: 6
#     Node 2, Type 0, BuildingBlock: MIDCAF_clean_sbu_0, # of connection points: 6
#     Node 3, Type 0, BuildingBlock: MIDCAF_clean_sbu_0, # of connection points: 6
#     Node 4, Type 0, BuildingBlock: MIDCAF_clean_sbu_0, # of connection points: 6
#     Node 5, Type 0, BuildingBlock: MIDCAF_clean_sbu_0, # of connection points: 6
#     Edge 6, Type (0, 0), BuildingBlock: AJUNOK_clean_linker_0, # of connection points: 2
#     Edge 7, Type (0, 0), BuildingBlock: AJUNOK_clean_linker_0, # of connection points: 2
#     Edge 8, Type (0, 0), BuildingBlock: AJUNOK_clean_linker_0, # of connection points: 2
#     Edge 9, Type (0, 0), BuildingBlock: AJUNOK_clean_linker_0, # of connection points: 2
#     Edge 10, Type (0, 0), BuildingBlock: AJUNOK_clean_linker_0, # of connection points: 2
#     Edge 11, Type (0, 0), BuildingBlock: AJUNOK_clean_linker_0, # of connection points: 2
#     Edge 12, Type (0, 0), BuildingBlock: AJUNOK_clean_linker_0, # of connection points: 2
#     Edge 13, Type (0, 0), BuildingBlock: AJUNOK_clean_linker_0, # of connection points: 2
#     Edge 14, Type (0, 0), BuildingBlock: AJUNOK_clean_linker_0, # of connection points: 2
#     Edge 15, Type (0, 0), BuildingBlock: AJUNOK_clean_linker_0, # of connection points: 2
#     Edge 16, Type (0, 0), BuildingBlock: AJUNOK_clean_linker_0, # of connection points: 2
#     Edge 17, Type (0, 0), BuildingBlock: AJUNOK_clean_linker_0, # of connection points: 2
#     Edge 18, Type (0, 0), BuildingBlock: AJUNOK_clean_linker_0, # of connection points: 2
#     Edge 19, Type (0, 0), BuildingBlock: AJUNOK_clean_linker_0, # of connection points: 2
#     Edge 20, Type (0, 0), BuildingBlock: AJUNOK_clean_linker_0, # of connection points: 2
#     Edge 21, Type (0, 0), BuildingBlock: AJUNOK_clean_linker_0, # of connection points: 2
#     Edge 22, Type (0, 0), BuildingBlock: AJUNOK_clean_linker_0, # of connection points: 2
#     Edge 23, Type (0, 0), BuildingBlock: AJUNOK_clean_linker_0, # of connection points: 2
# Relax obj value: 0.361
# Max RMSD: 0.206
# Mean RMSD: 0.206
data_MOF--net-sml--node1-MIDCAF_clean_sbu_0--edge1-AJUNOK_clean_linker_0
_symmetry_space_group_name_H-M    P1
_symmetry_Int_Tables_number       1
_symmetry_cell_setting            triclinic
loop_
_symmetry_equiv_pos_as_xyz
'x, y, z'
_cell_length_a     29.96679
_cell_length_b     29.808038
_cell_length_c     10.258514
_cell_angle_alpha  89.843444
_cell_angle_beta   90.152014
_cell_angle_gamma 120.50164
loop_
_atom_site_label
_atom_site_type_symbol
_atom_site_fract_x
_atom_site_fract_y
_atom_site_fract_z
_atom_type_partial_charge
Zn0 Zn 0.25166 0.44212 0.79074 0.0
Zn1 Zn 0.12826 0.36835 0.2695 0.0
Zn2 Zn 0.21053 0.41604 0.98081 0.0
C3 C 0.09753 0.34143 0.02042 0.0
C4 C 0.20775 0.35146 0.20375 0.0
O5 O 0.26213 0.50242 0.98261 0.0
O6 O 0.31824 0.4956 0.85968 0.0
C7 C 0.17358 0.41587 0.70475 0.0
O8 O 0.12583 0.37712 0.9394 0.0
O9 O 0.12158 0.32842 0.09828 0.0
O10 O 0.16133 0.33134 0.16646 0.0
O11 O 0.24094 0.38028 0.11821 0.0
O12 O 0.20114 0.46396 0.72761 0.0
O13 O 0.16174 0.38551 0.80408 0.0
O14 O 0.25904 0.37983 0.96366 0.0
O15 O 0.24395 0.3727 0.75334 0.0
C16 C 0.26119 0.36121 0.85196 0.0
O17 O 0.21937 0.48114 0.08554 0.0
O18 O 0.16363 0.45148 0.25457 0.0
C19 C 0.3076 0.52297 0.93194 0.0
C20 C 0.1977 0.48891 0.18436 0.0
Zn21 Zn 0.69855 0.15405 0.57378 0.0
Zn22 Zn 0.87536 0.31592 0.08524 0.0
Zn23 Zn 0.80368 0.22537 0.30341 0.0
C24 C 0.91669 0.31162 0.30543 0.0
C25 C 0.82332 0.19222 0.07166 0.0
O26 O 0.75325 0.25587 0.36039 0.0
O27 O 0.74994 0.23399 0.56576 0.0
C28 C 0.8191 0.20041 0.54597 0.0
O29 O 0.88604 0.26519 0.34715 0.0
O30 O 0.89634 0.3378 0.27052 0.0
O31 O 0.84364 0.24062 0.07721 0.0
O32 O 0.78962 0.16581 0.15861 0.0
O33 O 0.77411 0.1909 0.51965 0.0
O34 O 0.85393 0.22947 0.46426 0.0
O35 O 0.7545 0.14014 0.28259 0.0
O36 O 0.68603 0.13304 0.38131 0.0
C37 C 0.71069 0.11161 0.34018 0.0
O38 O 0.78266 0.28474 0.24169 0.0
O39 O 0.81261 0.31922 0.04498 0.0
C40 C 0.73722 0.25522 0.47715 0.0
C41 C 0.78559 0.31417 0.1449 0.0
Zn42 Zn 0.61373 0.74769 0.97151 0.0
Zn43 Zn 0.5552 0.8196 0.45871 0.0
Zn44 Zn 0.5838 0.79404 0.63927 0.0
C45 C 0.64201 0.90546 0.52798 0.0
C46 C 0.58168 0.76511 0.36141 0.0
O47 O 0.51623 0.73509 0.75877 0.0
O48 O 0.53363 0.7102 0.95275 0.0
C49 C 0.64767 0.84934 0.86302 0.0
O50 O 0.6249 0.881 0.63715 0.0
O51 O 0.62426 0.88109 0.42271 0.0
O52 O 0.53476 0.74878 0.38611 0.0
O53 O 0.61207 0.7786 0.46011 0.0
O54 O 0.65192 0.81015 0.8406 0.0
O55 O 0.62674 0.86142 0.77125 0.0
O56 O 0.62401 0.75048 0.57357 0.0
O57 O 0.62058 0.75632 0.77887 0.0
C58 C 0.63095 0.73625 0.68483 0.0
O59 O 0.49881 0.75904 0.63756 0.0
O60 O 0.50524 0.83054 0.5611 0.0
C61 C 0.50154 0.70789 0.86589 0.0
C62 C 0.47734 0.7858 0.6089 0.0
Zn63 Zn 0.85436 0.61484 0.25875 0.0
Zn64 Zn 0.67751 0.53126 0.66277 0.0
Zn65 Zn 0.77975 0.58813 0.02977 0.0
C66 C 0.69789 0.60296 0.91379 0.0
C67 C 0.79263 0.60241 0.75867 0.0
O68 O 0.7695 0.51649 0.11749 0.0
O69 O 0.81249 0.5377 0.3058 0.0
C70 C 0.78502 0.65305 0.23105 0.0
O71 O 0.72461 0.61637 0.01913 0.0
O72 O 0.69756 0.5662 0.84954 0.0
O73 O 0.7465 0.56723 0.78632 0.0
O74 O 0.82466 0.62344 0.85282 0.0
O75 O 0.82865 0.6636 0.19159 0.0
O76 O 0.74814 0.62363 0.15463 0.0
O77 O 0.86438 0.64421 -0.01542 0.0
O78 O 0.89636 0.60944 0.11668 0.0
C79 C 0.90389 0.64406 0.03439 0.0
O80 O 0.73314 0.50098 0.01643 0.0
O81 O 0.70806 0.51952 0.83733 0.0
C82 C 0.78322 0.50356 0.22373 0.0
C83 C 0.70319 0.48438 0.91728 0.0
Zn84 Zn 0.2821 0.84832 0.33908 0.0
Zn85 Zn 0.14973 0.73044 0.14957 0.0
Zn86 Zn 0.20858 0.78736 0.28261 0.0
C87 C 0.08725 0.72956 0.28945 0.0
C88 C 0.20786 0.82862 0.0461 0.0
O89 O 0.25871 0.75918 0.38127 0.0
O90 O 0.33486 0.82758 0.32974 0.0
C91 C 0.1951 0.80061 0.52644 0.0
O92 O 0.12803 0.77365 0.31324 0.0
O93 O 0.09333 0.69094 0.27847 0.0
O94 O 0.16168 0.80108 0.0823 0.0
O95 O 0.24202 0.82662 0.11367 0.0
O96 O 0.24347 0.81952 0.5134 0.0
O97 O 0.16911 0.80139 0.42859 0.0
O98 O 0.20716 0.86014 0.3438 0.0
O99 O 0.28699 0.91527 0.28445 0.0
C100 C 0.24394 0.90728 0.32773 0.0
O101 O 0.21236 0.7158 0.30882 0.0
O102 O 0.18863 0.69504 0.10482 0.0
C103 C 0.30874 0.78278 0.3813 0.0
C104 C 0.20542 0.68652 0.20958 0.0
Zn105 Zn 0.39912 0.27985 0.90316 0.0
Zn106 Zn 0.44256 0.14984 0.60171 0.0
Zn107 Zn 0.42533 0.21755 0.63906 0.0
C108 C 0.34986 0.08514 0.61205 0.0
C109 C 0.41963 0.20319 0.37504 0.0
O110 O 0.49774 0.26286 0.74368 0.0
O111 O 0.47757 0.30165 0.89938 0.0
C112 C 0.34967 0.17699 0.84464 0.0
O113 O 0.35789 0.13201 0.61788 0.0
O114 O 0.38715 0.07769 0.63232 0.0
O115 O 0.43361 0.1717 0.41483 0.0
O116 O 0.41239 0.23136 0.45539 0.0
O117 O 0.34462 0.21458 0.80875 0.0
O118 O 0.37021 0.16086 0.7636 0.0
O119 O 0.40035 0.27295 0.58631 0.0
O120 O 0.4463 0.31899 0.74932 0.0
C121 C 0.41322 0.31141 0.66338 0.0
O122 O 0.51072 0.23849 0.62346 0.0
O123 O 0.51212 0.16523 0.63942 0.0
C124 C 0.5108 0.29381 0.84188 0.0
C125 C 0.53605 0.21381 0.62339 0.0
C126 C 0.32205 0.29645 0.66645 0.0
C127 C 0.37434 0.32593 0.70423 0.0
C128 C 0.28435 0.30505 0.72352 0.0
C129 C 0.29714 0.34243 0.82281 0.0
H130 H 0.31001 0.26619 0.59368 0.0
H131 H 0.24494 0.28316 0.68737 0.0
S132 S 0.42861 0.43295 0.94947 0.0
N133 N 0.43715 0.39718 0.84109 0.0
N134 N 0.3658 0.41094 0.95073 0.0
C135 C 0.34901 0.37216 0.861 0.0
C136 C 0.38764 0.36478 0.80054 0.0
C137 C 0.01672 0.28791 0.14344 0.0
C138 C 0.04819 0.33415 0.07293 0.0
C139 C 0.97585 0.28176 0.22178 0.0
C140 C 0.964 0.3215 0.23294 0.0
H141 H 0.02479 0.25635 0.14095 0.0
H142 H 0.95315 0.24515 0.27287 0.0
S143 S 0.03605 0.45178 0.07377 0.0
N144 N 0.06603 0.42137 0.02335 0.0
N145 N 0.98846 0.41003 0.1687 0.0
C146 C 0.99524 0.36831 0.16298 0.0
C147 C 0.03724 0.37452 0.08305 0.0
C148 C 0.65974 0.03796 0.49719 0.0
C149 C 0.69948 0.06161 0.40283 0.0
C150 C 0.64592 0.98959 0.55309 0.0
C151 C 0.67081 0.96255 0.51602 0.0
H152 H 0.63757 0.0559 0.52515 0.0
H153 H 0.61254 0.97124 0.61694 0.0
S154 S 0.78011 0.00826 0.28406 0.0
N155 N 0.76651 0.05545 0.28479 0.0
N156 N 0.73903 0.96373 0.38676 0.0
C157 C 0.71233 0.9867 0.4279 0.0
C158 C 0.72697 0.0363 0.37195 0.0
C159 C 0.62657 0.64995 0.69396 0.0
C160 C 0.65452 0.70411 0.71373 0.0
C161 C 0.64077 0.61718 0.75879 0.0
C162 C 0.68229 0.63741 0.84853 0.0
H163 H 0.59204 0.6326 0.63385 0.0
H164 H 0.61808 0.5756 0.74193 0.0
S165 S 0.77119 0.77706 0.92193 0.0
N166 N 0.72845 0.77668 0.8194 0.0
N167 N 0.75422 0.71548 0.94221 0.0
C168 C 0.71171 0.69161 0.86411 0.0
C169 C 0.69799 0.72478 0.79659 0.0
C170 C 0.04285 0.70876 0.07291 0.0
C171 C 0.04747 0.72848 0.20066 0.0
C172 C 0.99743 0.6912 -0.00056 0.0
C173 C 0.9548 0.69241 0.051 0.0
H174 H 0.07241 0.70195 0.03389 0.0
H175 H 0.99306 0.66968 0.91071 0.0
S176 S 0.95462 0.75702 0.36099 0.0
N177 N 0.01104 0.75974 0.36163 0.0
N178 N 0.92674 0.72944 0.22139 0.0
C179 C 0.96325 0.72135 0.16731 0.0
C180 C 0.00914 0.73822 0.24367 0.0
C181 C 0.28222 0.99226 0.61724 0.0
C182 C 0.30139 0.0414 0.55968 0.0
C183 C 0.25498 0.94682 0.54322 0.0
C184 C 0.24619 0.94892 0.40919 0.0
H185 H 0.29383 0.98915 0.71544 0.0
H186 H 0.24785 0.91081 0.58696 0.0
S187 S 0.27855 0.06687 0.21898 0.0
N188 N 0.30172 0.089 0.36626 0.0
N189 N 0.25102 1.00291 0.2272 0.0
C190 C 0.25916 0.9971 0.35482 0.0
C191 C 0.28648 0.04361 0.4305 0.0
C192 C 0.22222 0.43468 0.49184 0.0
C193 C 0.18399 0.39799 0.5778 0.0
C194 C 0.23676 0.41937 0.37751 0.0
C195 C 0.21354 0.36664 0.34344 0.0
H196 H 0.241 0.47599 0.51176 0.0
H197 H 0.26308 0.44922 0.31051 0.0
S198 S 0.11741 0.25459 0.54168 0.0
N199 N 0.12732 0.30615 0.625 0.0
N200 N 0.15528 0.27737 0.41241 0.0
C201 C 0.17865 0.32949 0.43357 0.0
C202 C 0.16312 0.34505 0.54858 0.0
C203 C 0.78637 0.13725 0.87543 0.0
C204 C 0.83028 0.17223 0.94656 0.0
C205 C 0.78559 0.1422 0.7395 0.0
C206 C 0.82841 0.18252 0.67225 0.0
H207 H 0.75047 0.11124 0.92527 0.0
H208 H 0.74929 0.11805 0.68904 0.0
S209 S 0.95801 0.27075 0.81134 0.0
N210 N 0.92215 0.23721 0.93711 0.0
N211 N 0.91966 0.24809 0.68271 0.0
C212 C 0.87525 0.21067 0.73938 0.0
C213 C 0.87645 0.20465 0.87698 0.0
C214 C 0.56772 0.80105 0.1535 0.0
C215 C 0.60204 0.79579 0.23874 0.0
C216 C 0.58503 0.8298 0.03762 0.0
C217 C 0.63716 0.85341 0.00081 0.0
H218 H 0.52655 0.78113 0.17326 0.0
H219 H 0.55641 0.82773 0.96926 0.0
S220 S 0.74467 0.86225 0.20044 0.0
N221 N 0.69223 0.82502 0.28732 0.0
N222 N 0.72445 0.87859 0.06847 0.0
C223 C 0.67274 0.85431 0.09224 0.0
C224 C 0.65521 0.82481 0.2101 0.0
C225 C 0.77449 0.58033 0.53044 0.0
C226 C 0.80089 0.6198 0.62351 0.0
C227 C 0.76135 0.59105 0.40904 0.0
C228 C 0.77864 0.64227 0.37069 0.0
H229 H 0.76075 0.53996 0.55502 0.0
H230 H 0.74031 0.55925 0.3414 0.0
S231 S 0.84638 0.75963 0.57929 0.0
N232 N 0.83919 0.71153 0.67436 0.0
N233 N 0.82172 0.7332 0.43598 0.0
C234 C 0.80572 0.68253 0.46167 0.0
C235 C 0.81603 0.67108 0.58965 0.0
C236 C 0.16779 0.83016 0.71058 0.0
C237 C 0.17635 0.79211 0.65687 0.0
C238 C 0.1857 0.84867 0.83566 0.0
C239 C 0.21239 0.82936 0.90737 0.0
H240 H 0.152 0.84909 0.65166 0.0
H241 H 0.17747 0.87693 0.87825 0.0
S242 S 0.23715 0.72419 0.80927 0.0
N243 N 0.20333 0.72887 0.68855 0.0
N244 N 0.24494 0.76918 0.91527 0.0
C245 C 0.21926 0.78998 0.85407 0.0
C246 C 0.19665 0.76803 0.73344 0.0
C247 C 0.42567 0.18324 0.14354 0.0
C248 C 0.40312 0.19914 0.23924 0.0
C249 C 0.40627 0.17283 0.01656 0.0
C250 C 0.36342 0.17763 0.98194 0.0
H251 H 0.45862 0.17896 0.16688 0.0
H252 H 0.42611 0.16273 0.94462 0.0
S253 S 0.28644 0.21087 0.20144 0.0
N254 N 0.33329 0.21473 0.29434 0.0
N255 N 0.29632 0.19458 0.05522 0.0
C256 C 0.3394 0.19149 0.07803 0.0
C257 C 0.35959 0.20276 0.20666 0.0
C258 C 0.21489 0.57261 0.08936 0.0
C259 C 0.20701 0.54244 0.2018 0.0
C260 C 0.21794 0.62074 0.09549 0.0
C261 C 0.21336 0.64136 0.21434 0.0
H262 H 0.21603 0.55789 -0.00621 0.0
H263 H 0.2217 0.64089 0.00461 0.0
S264 S 0.19997 0.58188 0.5407 0.0
N265 N 0.19978 0.53897 0.43845 0.0
N266 N 0.20617 0.63065 0.45 0.0
C267 C 0.20898 0.61355 0.32939 0.0
C268 C 0.20527 0.56366 0.32303 0.0
C269 C 0.68129 0.274 0.6195 0.0
C270 C 0.68892 0.25619 0.49891 0.0
C271 C 0.63212 0.2645 0.65711 0.0
C272 C 0.58935 0.23762 0.57408 0.0
H273 H 0.71296 0.29267 0.68852 0.0
H274 H 0.62696 0.27527 0.75427 0.0
S275 S 0.5881 0.18302 0.24904 0.0
N276 N 0.64883 0.2098 0.2982 0.0
N277 N 0.55747 0.19462 0.36571 0.0
C278 C 0.59695 0.22196 0.45108 0.0
C279 C 0.64649 0.23057 0.41403 0.0
C280 C 0.3791 0.60289 0.0332 0.0
C281 C 0.34499 0.5792 0.92857 0.0
C282 C 0.42842 0.64693 0.01298 0.0
C283 C 0.44567 0.66831 0.88712 0.0
H284 H 0.36957 0.58469 0.12856 0.0
H285 H 0.45442 0.66224 0.09571 0.0
S286 S 0.36883 0.61857 0.5816 0.0
N287 N 0.32935 0.58133 0.69759 0.0
N288 N 0.42294 0.66021 0.65678 0.0
C289 C 0.41034 0.64588 0.78314 0.0
C290 C 0.35969 0.60251 0.80494 0.0
C291 C 0.82766 0.40826 0.17853 0.0
C292 C 0.78133 0.35994 0.17398 0.0
C293 C 0.82745 0.454 0.20392 0.0
C294 C 0.7809 0.45321 0.22565 0.0
H295 H 0.86454 0.41084 0.16055 0.0
H296 H 0.86393 0.4906 0.20104 0.0
S297 S 0.64962 0.33642 0.23324 0.0
N298 N 0.68796 0.31362 0.19558 0.0
N299 N 0.68768 0.40007 0.2504 0.0
C300 C 0.73439 0.40511 0.22549 0.0
C301 C 0.73457 0.35821 0.1982 0.0
C302 C 0.34939 0.777 0.58619 0.0
C303 C 0.33683 0.76241 0.45481 0.0
C304 C 0.3914 0.77658 0.64639 0.0
C305 C 0.42181 0.76128 0.57696 0.0
H306 H 0.3303 0.79419 0.63813 0.0
H307 H 0.40352 0.79367 0.74238 0.0
S308 S 0.40124 0.71542 0.23436 0.0
N309 N 0.35484 0.7286 0.26104 0.0
N310 N 0.43323 0.72699 0.37318 0.0
C311 C 0.4061 0.74182 0.44967 0.0
C312 C 0.36378 0.74275 0.38851 0.0
C313 C 0.62718 0.4046 0.00558 0.0
C314 C 0.66077 0.43013 0.90123 0.0
C315 C 0.58094 0.3571 -0.01226 0.0
C316 C 0.56575 0.33409 0.86361 0.0
H317 H 0.63463 0.42346 0.09959 0.0
H318 H 0.55508 0.34015 0.07018 0.0
S319 S 0.63778 0.38961 0.55503 0.0
N320 N 0.67535 0.43058 0.66865 0.0
N321 N 0.58681 0.34356 0.63246 0.0
C322 C 0.59916 0.35965 0.75792 0.0
C323 C 0.64684 0.40734 0.77714 0.0
loop_
_geom_bond_atom_site_label_1
_geom_bond_atom_site_label_2
_geom_bond_distance
_geom_bond_site_symmetry_2
_ccdc_geom_bond_type
Zn0 O6 1.920 . S
Zn0 O12 1.898 . S
Zn0 O15 1.905 . S
Zn1 O9 1.905 . S
Zn1 O10 1.898 . S
Zn1 O18 1.920 . S
Zn2 O5 2.080 1_554 S
Zn2 O8 2.114 . S
Zn2 O11 2.120 . S
Zn2 O13 2.120 1_554 S
Zn2 O14 2.114 1_554 S
Zn2 O17 2.080 . S
C3 O8 1.166 . S
C3 O9 1.182 . S
C4 O10 1.167 . S
C4 O11 1.299 . S
O5 Zn2 2.080 1_556 S
O5 C19 1.305 . S
O6 Zn0 1.920 . S
O6 C19 1.234 . S
C7 O12 1.167 . S
C7 O13 1.299 . S
O8 Zn2 2.114 . S
O8 C3 1.166 . S
O9 Zn1 1.905 . S
O9 C3 1.182 . S
O10 Zn1 1.898 . S
O10 C4 1.167 . S
O11 Zn2 2.120 . S
O11 C4 1.299 . S
O12 Zn0 1.898 . S
O12 C7 1.167 . S
O13 Zn2 2.120 1_556 S
O13 C7 1.299 . S
O14 Zn2 2.114 1_556 S
O14 C16 1.166 . S
O15 Zn0 1.905 . S
O15 C16 1.182 . S
C16 O14 1.166 . S
C16 O15 1.182 . S
O17 Zn2 2.080 . S
O17 C20 1.305 . S
O18 Zn1 1.920 . S
O18 C20 1.234 . S
C19 O5 1.305 . S
C19 O6 1.234 . S
C20 O17 1.305 . S
C20 O18 1.234 . S
Zn21 O27 1.920 . S
Zn21 O33 1.898 . S
Zn21 O36 1.905 . S
Zn22 O30 1.905 . S
Zn22 O31 1.898 1_554 S
Zn22 O39 1.920 . S
Zn23 O26 2.080 . S
Zn23 O29 2.114 . S
Zn23 O32 2.120 . S
Zn23 O34 2.120 . S
Zn23 O35 2.114 . S
Zn23 O38 2.080 . S
C24 O29 1.166 . S
C24 O30 1.182 . S
C25 O31 1.167 1_554 S
C25 O32 1.299 . S
O26 Zn23 2.080 . S
O26 C40 1.305 . S
O27 Zn21 1.920 . S
O27 C40 1.234 . S
C28 O33 1.167 . S
C28 O34 1.299 . S
O29 Zn23 2.114 . S
O29 C24 1.166 . S
O30 Zn22 1.905 . S
O30 C24 1.182 . S
O31 Zn22 1.898 1_556 S
O31 C25 1.167 1_556 S
O32 Zn23 2.120 . S
O32 C25 1.299 . S
O33 Zn21 1.898 . S
O33 C28 1.167 . S
O34 Zn23 2.120 . S
O34 C28 1.299 . S
O35 Zn23 2.114 . S
O35 C37 1.166 . S
O36 Zn21 1.905 . S
O36 C37 1.182 . S
C37 O35 1.166 . S
C37 O36 1.182 . S
O38 Zn23 2.080 . S
O38 C41 1.305 . S
O39 Zn22 1.920 . S
O39 C41 1.234 . S
C40 O26 1.305 . S
C40 O27 1.234 . S
C41 O38 1.305 . S
C41 O39 1.234 . S
Zn42 O48 1.920 . S
Zn42 O54 1.898 1_556 S
Zn42 O57 1.905 . S
Zn43 O51 1.905 . S
Zn43 O52 1.898 . S
Zn43 O60 1.920 . S
Zn44 O47 2.080 . S
Zn44 O50 2.114 . S
Zn44 O53 2.120 . S
Zn44 O55 2.120 . S
Zn44 O56 2.114 . S
Zn44 O59 2.080 . S
C45 O50 1.166 . S
C45 O51 1.182 . S
C46 O52 1.167 . S
C46 O53 1.299 . S
O47 Zn44 2.080 . S
O47 C61 1.305 . S
O48 Zn42 1.920 . S
O48 C61 1.234 . S
C49 O54 1.167 1_556 S
C49 O55 1.299 . S
O50 Zn44 2.114 . S
O50 C45 1.166 . S
O51 Zn43 1.905 . S
O51 C45 1.182 . S
O52 Zn43 1.898 . S
O52 C46 1.167 . S
O53 Zn44 2.120 . S
O53 C46 1.299 . S
O54 Zn42 1.898 1_554 S
O54 C49 1.167 1_554 S
O55 Zn44 2.120 . S
O55 C49 1.299 . S
O56 Zn44 2.114 . S
O56 C58 1.166 . S
O57 Zn42 1.905 . S
O57 C58 1.182 . S
C58 O56 1.166 . S
C58 O57 1.182 . S
O59 Zn44 2.080 . S
O59 C62 1.305 . S
O60 Zn43 1.920 . S
O60 C62 1.234 . S
C61 O47 1.305 . S
C61 O48 1.234 . S
C62 O59 1.305 . S
C62 O60 1.234 . S
Zn63 O69 1.920 . S
Zn63 O75 1.898 . S
Zn63 O78 1.905 . S
Zn64 O72 1.905 . S
Zn64 O73 1.898 . S
Zn64 O81 1.920 . S
Zn65 O68 2.080 . S
Zn65 O71 2.114 1_554 S
Zn65 O74 2.120 1_554 S
Zn65 O76 2.120 . S
Zn65 O77 2.114 . S
Zn65 O80 2.080 1_554 S
C66 O71 1.166 . S
C66 O72 1.182 . S
C67 O73 1.167 . S
C67 O74 1.299 . S
O68 Zn65 2.080 . S
O68 C82 1.305 . S
O69 Zn63 1.920 . S
O69 C82 1.234 . S
C70 O75 1.167 . S
C70 O76 1.299 . S
O71 Zn65 2.114 1_556 S
O71 C66 1.166 . S
O72 Zn64 1.905 . S
O72 C66 1.182 . S
O73 Zn64 1.898 . S
O73 C67 1.167 . S
O74 Zn65 2.120 1_556 S
O74 C67 1.299 . S
O75 Zn63 1.898 . S
O75 C70 1.167 . S
O76 Zn65 2.120 . S
O76 C70 1.299 . S
O77 Zn65 2.114 . S
O77 C79 1.166 . S
O78 Zn63 1.905 . S
O78 C79 1.182 . S
C79 O77 1.166 . S
C79 O78 1.182 . S
O80 Zn65 2.080 1_556 S
O80 C83 1.305 . S
O81 Zn64 1.920 . S
O81 C83 1.234 . S
C82 O68 1.305 . S
C82 O69 1.234 . S
C83 O80 1.305 . S
C83 O81 1.234 . S
Zn84 O90 1.920 . S
Zn84 O96 1.898 . S
Zn84 O99 1.905 . S
Zn85 O93 1.905 . S
Zn85 O94 1.898 1_554 S
Zn85 O102 1.920 . S
Zn86 O89 2.080 . S
Zn86 O92 2.114 . S
Zn86 O95 2.120 . S
Zn86 O97 2.120 . S
Zn86 O98 2.114 . S
Zn86 O101 2.080 . S
C87 O92 1.166 . S
C87 O93 1.182 . S
C88 O94 1.167 1_554 S
C88 O95 1.299 . S
O89 Zn86 2.080 . S
O89 C103 1.305 . S
O90 Zn84 1.920 . S
O90 C103 1.234 . S
C91 O96 1.167 . S
C91 O97 1.299 . S
O92 Zn86 2.114 . S
O92 C87 1.166 . S
O93 Zn85 1.905 . S
O93 C87 1.182 . S
O94 Zn85 1.898 1_556 S
O94 C88 1.167 1_556 S
O95 Zn86 2.120 . S
O95 C88 1.299 . S
O96 Zn84 1.898 . S
O96 C91 1.167 . S
O97 Zn86 2.120 . S
O97 C91 1.299 . S
O98 Zn86 2.114 . S
O98 C100 1.166 . S
O99 Zn84 1.905 . S
O99 C100 1.182 . S
C100 O98 1.166 . S
C100 O99 1.182 . S
O101 Zn86 2.080 . S
O101 C104 1.305 . S
O102 Zn85 1.920 . S
O102 C104 1.234 . S
C103 O89 1.305 . S
C103 O90 1.234 . S
C104 O101 1.305 . S
C104 O102 1.234 . S
Zn105 O111 1.920 . S
Zn105 O117 1.898 1_556 S
Zn105 O120 1.905 . S
Zn106 O114 1.905 . S
Zn106 O115 1.898 . S
Zn106 O123 1.920 . S
Zn107 O110 2.080 . S
Zn107 O113 2.114 . S
Zn107 O116 2.120 . S
Zn107 O118 2.120 . S
Zn107 O119 2.114 . S
Zn107 O122 2.080 . S
C108 O113 1.166 . S
C108 O114 1.182 . S
C109 O115 1.167 . S
C109 O116 1.299 . S
O110 Zn107 2.080 . S
O110 C124 1.305 . S
O111 Zn105 1.920 . S
O111 C124 1.234 . S
C112 O117 1.167 1_556 S
C112 O118 1.299 . S
O113 Zn107 2.114 . S
O113 C108 1.166 . S
O114 Zn106 1.905 . S
O114 C108 1.182 . S
O115 Zn106 1.898 . S
O115 C109 1.167 . S
O116 Zn107 2.120 . S
O116 C109 1.299 . S
O117 Zn105 1.898 1_554 S
O117 C112 1.167 1_554 S
O118 Zn107 2.120 . S
O118 C112 1.299 . S
O119 Zn107 2.114 . S
O119 C121 1.166 . S
O120 Zn105 1.905 . S
O120 C121 1.182 . S
C121 O119 1.166 . S
C121 O120 1.182 . S
O122 Zn107 2.080 . S
O122 C125 1.305 . S
O123 Zn106 1.920 . S
O123 C125 1.234 . S
C124 O110 1.305 . S
C124 O111 1.234 . S
C125 O122 1.305 . S
C125 O123 1.234 . S
C126 C127 1.369 . S
C126 C128 1.419 . S
C126 H130 0.930 . S
C127 C126 1.369 . S
C127 C136 1.429 . S
C128 C126 1.419 . S
C128 C129 1.363 . S
C128 H131 0.929 . S
C129 C128 1.363 . S
C129 C135 1.428 . S
H130 C126 0.930 . S
H131 C128 0.929 . S
S132 N133 1.613 . S
S132 N134 1.610 . S
N133 S132 1.613 . S
N133 C136 1.350 . S
N134 S132 1.610 . S
N134 C135 1.351 . S
C135 C129 1.428 . S
C135 N134 1.351 . S
C135 C136 1.434 . S
C136 C127 1.429 . S
C136 N133 1.350 . S
C136 C135 1.434 . S
C137 C138 1.369 . S
C137 C139 1.419 1_455 S
C137 H141 0.930 . S
C138 C137 1.369 . S
C138 C147 1.429 . S
C139 C137 1.419 1_655 S
C139 C140 1.363 . S
C139 H142 0.929 . S
C140 C139 1.363 . S
C140 C146 1.428 . S
H141 C137 0.930 . S
H142 C139 0.929 . S
S143 N144 1.613 1_655 S
S143 N145 1.610 . S
N144 S143 1.613 1_455 S
N144 C147 1.350 . S
N145 S143 1.610 . S
N145 C146 1.351 . S
C146 C140 1.428 . S
C146 N145 1.351 . S
C146 C147 1.434 1_655 S
C147 C138 1.429 . S
C147 N144 1.350 . S
C147 C146 1.434 1_455 S
C148 C149 1.369 . S
C148 C150 1.419 . S
C148 H152 0.930 . S
C149 C148 1.369 . S
C149 C158 1.429 1_545 S
C150 C148 1.419 . S
C150 C151 1.363 1_545 S
C150 H153 0.929 . S
C151 C150 1.363 1_565 S
C151 C157 1.428 . S
H152 C148 0.930 . S
H153 C150 0.929 . S
S154 N155 1.613 . S
S154 N156 1.610 . S
N155 S154 1.613 . S
N155 C158 1.350 . S
N156 S154 1.610 . S
N156 C157 1.351 . S
C157 C151 1.428 . S
C157 N156 1.351 . S
C157 C158 1.434 . S
C158 C149 1.429 1_565 S
C158 N155 1.350 . S
C158 C157 1.434 . S
C159 C160 1.369 . S
C159 C161 1.419 . S
C159 H163 0.930 . S
C160 C159 1.369 . S
C160 C169 1.429 . S
C161 C159 1.419 . S
C161 C162 1.363 . S
C161 H164 0.929 . S
C162 C161 1.363 . S
C162 C168 1.428 . S
H163 C159 0.930 . S
H164 C161 0.929 . S
S165 N166 1.613 . S
S165 N167 1.610 . S
N166 S165 1.613 . S
N166 C169 1.350 . S
N167 S165 1.610 . S
N167 C168 1.351 . S
C168 C162 1.428 . S
C168 N167 1.351 . S
C168 C169 1.434 . S
C169 C160 1.429 . S
C169 N166 1.350 . S
C169 C168 1.434 . S
C170 C171 1.369 . S
C170 C172 1.419 . S
C170 H174 0.930 . S
C171 C170 1.369 . S
C171 C180 1.429 1_455 S
C172 C170 1.419 . S
C172 C173 1.363 1_455 S
C172 H175 0.929 1_554 S
C173 C172 1.363 1_655 S
C173 C179 1.428 . S
H174 C170 0.930 . S
H175 C172 0.929 1_556 S
S176 N177 1.613 . S
S176 N178 1.610 . S
N177 S176 1.613 . S
N177 C180 1.350 . S
N178 S176 1.610 . S
N178 C179 1.351 . S
C179 C173 1.428 . S
C179 N178 1.351 . S
C179 C180 1.434 . S
C180 C171 1.429 1_655 S
C180 N177 1.350 . S
C180 C179 1.434 . S
C181 C182 1.369 1_565 S
C181 C183 1.419 . S
C181 H185 0.930 . S
C182 C181 1.369 1_545 S
C182 C191 1.429 . S
C183 C181 1.419 . S
C183 C184 1.363 . S
C183 H186 0.929 . S
C184 C183 1.363 . S
C184 C190 1.428 1_565 S
H185 C181 0.930 . S
H186 C183 0.929 . S
S187 N188 1.613 . S
S187 N189 1.610 . S
N188 S187 1.613 . S
N188 C191 1.350 . S
N189 S187 1.610 . S
N189 C190 1.351 . S
C190 C184 1.428 1_545 S
C190 N189 1.351 . S
C190 C191 1.434 . S
C191 C182 1.429 . S
C191 N188 1.350 . S
C191 C190 1.434 . S
C192 C193 1.369 . S
C192 C194 1.419 . S
C192 H196 0.930 . S
C193 C192 1.369 . S
C193 C202 1.429 . S
C194 C192 1.419 . S
C194 C195 1.363 . S
C194 H197 0.929 . S
C195 C194 1.363 . S
C195 C201 1.428 . S
H196 C192 0.930 . S
H197 C194 0.929 . S
S198 N199 1.613 . S
S198 N200 1.610 . S
N199 S198 1.613 . S
N199 C202 1.350 . S
N200 S198 1.610 . S
N200 C201 1.351 . S
C201 C195 1.428 . S
C201 N200 1.351 . S
C201 C202 1.434 . S
C202 C193 1.429 . S
C202 N199 1.350 . S
C202 C201 1.434 . S
C203 C204 1.369 . S
C203 C205 1.419 . S
C203 H207 0.930 . S
C204 C203 1.369 . S
C204 C213 1.429 . S
C205 C203 1.419 . S
C205 C206 1.363 . S
C205 H208 0.929 . S
C206 C205 1.363 . S
C206 C212 1.428 . S
H207 C203 0.930 . S
H208 C205 0.929 . S
S209 N210 1.613 . S
S209 N211 1.610 1_554 S
N210 S209 1.613 . S
N210 C213 1.350 1_554 S
N211 S209 1.610 1_556 S
N211 C212 1.351 . S
C212 C206 1.428 . S
C212 N211 1.351 . S
C212 C213 1.434 . S
C213 C204 1.429 . S
C213 N210 1.350 1_556 S
C213 C212 1.434 . S
C214 C215 1.369 . S
C214 C216 1.419 . S
C214 H218 0.930 . S
C215 C214 1.369 . S
C215 C224 1.429 . S
C216 C214 1.419 . S
C216 C217 1.363 . S
C216 H219 0.923 1_554 S
C217 C216 1.363 . S
C217 C223 1.428 . S
H218 C214 0.930 . S
H219 C216 0.923 1_556 S
S220 N221 1.613 . S
S220 N222 1.610 . S
N221 S220 1.613 . S
N221 C224 1.350 . S
N222 S220 1.610 . S
N222 C223 1.351 . S
C223 C217 1.428 . S
C223 N222 1.351 . S
C223 C224 1.434 . S
C224 C215 1.429 . S
C224 N221 1.350 . S
C224 C223 1.434 . S
C225 C226 1.369 . S
C225 C227 1.419 . S
C225 H229 0.930 . S
C226 C225 1.369 . S
C226 C235 1.429 . S
C227 C225 1.419 . S
C227 C228 1.363 . S
C227 H230 0.929 . S
C228 C227 1.363 . S
C228 C234 1.428 . S
H229 C225 0.930 . S
H230 C227 0.929 . S
S231 N232 1.613 . S
S231 N233 1.610 . S
N232 S231 1.613 . S
N232 C235 1.350 . S
N233 S231 1.610 . S
N233 C234 1.351 . S
C234 C228 1.428 . S
C234 N233 1.351 . S
C234 C235 1.434 . S
C235 C226 1.429 . S
C235 N232 1.350 . S
C235 C234 1.434 . S
C236 C237 1.369 . S
C236 C238 1.419 . S
C236 H240 0.930 . S
C237 C236 1.369 . S
C237 C246 1.429 . S
C238 C236 1.419 . S
C238 C239 1.363 . S
C238 H241 0.929 . S
C239 C238 1.363 . S
C239 C245 1.428 . S
H240 C236 0.930 . S
H241 C238 0.929 . S
S242 N243 1.613 . S
S242 N244 1.610 1_556 S
N243 S242 1.613 . S
N243 C246 1.350 . S
N244 S242 1.610 1_554 S
N244 C245 1.351 1_554 S
C245 C239 1.428 . S
C245 N244 1.351 1_556 S
C245 C246 1.434 . S
C246 C237 1.429 . S
C246 N243 1.350 . S
C246 C245 1.434 . S
C247 C248 1.369 . S
C247 C249 1.419 . S
C247 H251 0.930 . S
C248 C247 1.369 . S
C248 C257 1.429 . S
C249 C247 1.419 . S
C249 C250 1.363 . S
C249 H252 0.929 . S
C250 C249 1.363 . S
C250 C256 1.428 . S
H251 C247 0.930 . S
H252 C249 0.929 . S
S253 N254 1.613 . S
S253 N255 1.610 . S
N254 S253 1.613 . S
N254 C257 1.350 . S
N255 S253 1.610 . S
N255 C256 1.351 . S
C256 C250 1.428 . S
C256 N255 1.351 . S
C256 C257 1.434 . S
C257 C248 1.429 . S
C257 N254 1.350 . S
C257 C256 1.434 . S
C258 C259 1.369 . S
C258 C260 1.419 . S
C258 H262 0.930 1_554 S
C259 C258 1.369 . S
C259 C268 1.429 . S
C260 C258 1.419 . S
C260 C261 1.363 . S
C260 H263 0.929 . S
C261 C260 1.363 . S
C261 C267 1.428 . S
H262 C258 0.930 1_556 S
H263 C260 0.929 . S
S264 N265 1.613 . S
S264 N266 1.610 . S
N265 S264 1.613 . S
N265 C268 1.350 . S
N266 S264 1.610 . S
N266 C267 1.351 . S
C267 C261 1.428 . S
C267 N266 1.351 . S
C267 C268 1.434 . S
C268 C259 1.429 . S
C268 N265 1.350 . S
C268 C267 1.434 . S
C269 C270 1.369 . S
C269 C271 1.419 . S
C269 H273 0.930 . S
C270 C269 1.369 . S
C270 C279 1.429 . S
C271 C269 1.419 . S
C271 C272 1.363 . S
C271 H274 0.929 . S
C272 C271 1.363 . S
C272 C278 1.428 . S
H273 C269 0.930 . S
H274 C271 0.929 . S
S275 N276 1.613 . S
S275 N277 1.610 . S
N276 S275 1.613 . S
N276 C279 1.350 . S
N277 S275 1.610 . S
N277 C278 1.351 . S
C278 C272 1.428 . S
C278 N277 1.351 . S
C278 C279 1.434 . S
C279 C270 1.429 . S
C279 N276 1.350 . S
C279 C278 1.434 . S
C280 C281 1.369 . S
C280 C282 1.419 . S
C280 H284 0.930 1_556 S
C281 C280 1.369 . S
C281 C290 1.429 . S
C282 C280 1.419 . S
C282 C283 1.363 . S
C282 H285 0.929 . S
C283 C282 1.363 . S
C283 C289 1.428 . S
H284 C280 0.930 1_554 S
H285 C282 0.929 . S
S286 N287 1.613 . S
S286 N288 1.610 . S
N287 S286 1.613 . S
N287 C290 1.350 . S
N288 S286 1.610 . S
N288 C289 1.351 . S
C289 C283 1.428 . S
C289 N288 1.351 . S
C289 C290 1.434 . S
C290 C281 1.429 . S
C290 N287 1.350 . S
C290 C289 1.434 . S
C291 C292 1.369 . S
C291 C293 1.419 . S
C291 H295 0.930 . S
C292 C291 1.369 . S
C292 C301 1.429 . S
C293 C291 1.419 . S
C293 C294 1.363 . S
C293 H296 0.929 . S
C294 C293 1.363 . S
C294 C300 1.428 . S
H295 C291 0.930 . S
H296 C293 0.929 . S
S297 N298 1.613 . S
S297 N299 1.610 . S
N298 S297 1.613 . S
N298 C301 1.350 . S
N299 S297 1.610 . S
N299 C300 1.351 . S
C300 C294 1.428 . S
C300 N299 1.351 . S
C300 C301 1.434 . S
C301 C292 1.429 . S
C301 N298 1.350 . S
C301 C300 1.434 . S
C302 C303 1.369 . S
C302 C304 1.419 . S
C302 H306 0.930 . S
C303 C302 1.369 . S
C303 C312 1.429 . S
C304 C302 1.419 . S
C304 C305 1.363 . S
C304 H307 0.929 . S
C305 C304 1.363 . S
C305 C311 1.428 . S
H306 C302 0.930 . S
H307 C304 0.929 . S
S308 N309 1.613 . S
S308 N310 1.610 . S
N309 S308 1.613 . S
N309 C312 1.350 . S
N310 S308 1.610 . S
N310 C311 1.351 . S
C311 C305 1.428 . S
C311 N310 1.351 . S
C311 C312 1.434 . S
C312 C303 1.429 . S
C312 N309 1.350 . S
C312 C311 1.434 . S
C313 C314 1.369 . S
C313 C315 1.419 . S
C313 H317 0.930 1_556 S
C314 C313 1.369 . S
C314 C323 1.429 . S
C315 C313 1.419 . S
C315 C316 1.363 . S
C315 H318 0.929 . S
C316 C315 1.363 . S
C316 C322 1.428 . S
H317 C313 0.930 1_554 S
H318 C315 0.929 . S
S319 N320 1.613 . S
S319 N321 1.610 . S
N320 S319 1.613 . S
N320 C323 1.350 . S
N321 S319 1.610 . S
N321 C322 1.351 . S
C322 C316 1.428 . S
C322 N321 1.351 . S
C322 C323 1.434 . S
C323 C314 1.429 . S
C323 N320 1.350 . S
C323 C322 1.434 . S
C127 C121 1.281 . S
C129 C16 1.293 . S
C138 C3 1.285 . S
C140 C24 1.288 . S
C149 C37 1.300 . S
C151 C45 1.284 . S
C160 C58 1.298 . S
C162 C66 1.291 . S
C171 C87 1.299 . S
C173 C79 1.283 . S
C182 C108 1.287 . S
C184 C100 1.298 . S
C193 C7 0.780 . S
C195 C4 0.804 . S
C204 C25 0.775 1_556 S
C206 C28 0.803 . S
C215 C46 0.778 . S
C217 C49 0.804 1_554 S
C226 C67 0.778 . S
C228 C70 0.804 . S
C237 C91 0.804 . S
C239 C88 0.779 1_556 S
C248 C109 0.789 . S
C250 C112 0.800 1_554 S
C259 C20 1.379 . S
C261 C104 1.389 . S
C270 C40 1.392 . S
C272 C125 1.384 . S
C281 C19 1.381 . S
C283 C61 1.390 . S
C292 C41 1.387 . S
C294 C82 1.390 . S
C303 C103 1.392 . S
C305 C62 1.383 . S
C314 C83 1.379 . S
C316 C124 1.390 . S
