# Generated by pormake.
# Topology wjd, (6)-cn, num edge types: 1
# Building blocks:
#     Node 0, Type 0, BuildingBlock: INOVEN_clean_sbu_0, # of connection points: 6
#     Node 1, Type 0, BuildingBlock: INOVEN_clean_sbu_0, # of connection points: 6
#     Node 2, Type 0, BuildingBlock: INOVEN_clean_sbu_0, # of connection points: 6
#     Node 3, Type 0, BuildingBlock: INOVEN_clean_sbu_0, # of connection points: 6
#     Node 4, Type 0, BuildingBlock: INOVEN_clean_sbu_0, # of connection points: 6
#     Node 5, Type 0, BuildingBlock: INOVEN_clean_sbu_0, # of connection points: 6
#     Node 6, Type 0, BuildingBlock: INOVEN_clean_sbu_0, # of connection points: 6
#     Node 7, Type 0, BuildingBlock: INOVEN_clean_sbu_0, # of connection points: 6
#     Node 8, Type 0, BuildingBlock: INOVEN_clean_sbu_0, # of connection points: 6
#     Node 9, Type 0, BuildingBlock: INOVEN_clean_sbu_0, # of connection points: 6
#     Node 10, Type 0, BuildingBlock: INOVEN_clean_sbu_0, # of connection points: 6
#     Node 11, Type 0, BuildingBlock: INOVEN_clean_sbu_0, # of connection points: 6
#     Edge 12, Type (0, 0), None
#     Edge 13, Type (0, 0), None
#     Edge 14, Type (0, 0), None
#     Edge 15, Type (0, 0), None
#     Edge 16, Type (0, 0), None
#     Edge 17, Type (0, 0), None
#     Edge 18, Type (0, 0), None
#     Edge 19, Type (0, 0), None
#     Edge 20, Type (0, 0), None
#     Edge 21, Type (0, 0), None
#     Edge 22, Type (0, 0), None
#     Edge 23, Type (0, 0), None
#     Edge 24, Type (0, 0), None
#     Edge 25, Type (0, 0), None
#     Edge 26, Type (0, 0), None
#     Edge 27, Type (0, 0), None
#     Edge 28, Type (0, 0), None
#     Edge 29, Type (0, 0), None
#     Edge 30, Type (0, 0), None
#     Edge 31, Type (0, 0), None
#     Edge 32, Type (0, 0), None
#     Edge 33, Type (0, 0), None
#     Edge 34, Type (0, 0), None
#     Edge 35, Type (0, 0), None
#     Edge 36, Type (0, 0), None
#     Edge 37, Type (0, 0), None
#     Edge 38, Type (0, 0), None
#     Edge 39, Type (0, 0), None
#     Edge 40, Type (0, 0), None
#     Edge 41, Type (0, 0), None
#     Edge 42, Type (0, 0), None
#     Edge 43, Type (0, 0), None
#     Edge 44, Type (0, 0), None
#     Edge 45, Type (0, 0), None
#     Edge 46, Type (0, 0), None
#     Edge 47, Type (0, 0), None
# Relax obj value: 0.121
# Max RMSD: 0.290
# Mean RMSD: 0.290
data_MOF--net-wjd--node1-INOVEN_clean_sbu_0--edge1-none
_symmetry_space_group_name_H-M    P1
_symmetry_Int_Tables_number       1
_symmetry_cell_setting            triclinic
loop_
_symmetry_equiv_pos_as_xyz
'x, y, z'
_cell_length_a     22.357925
_cell_length_b     22.410024
_cell_length_c     23.517905
_cell_angle_alpha  88.385435
_cell_angle_beta   90.137232
_cell_angle_gamma 120.19118
loop_
_atom_site_label
_atom_site_type_symbol
_atom_site_fract_x
_atom_site_fract_y
_atom_site_fract_z
_atom_type_partial_charge
Gd0 Gd 0.46791 0.23404 0.04374 0.0
Gd1 Gd 0.39425 0.11398 0.0923 0.0
C2 C 0.55041 0.16049 0.05937 0.0
C3 C 0.52777 0.35009 -0.01491 0.0
C4 C 0.56705 0.42424 -0.00062 0.0
C5 C 0.60575 0.47413 0.95689 0.0
C6 C 0.57227 0.44515 0.05594 0.0
C7 C 0.66135 0.56282 0.02797 0.0
C8 C 0.61916 0.51382 0.0701 0.0
C9 C 0.6528 0.5424 -0.0289 0.0
C10 C 0.41458 0.10818 0.96258 0.0
C11 C 0.3408 0.22268 0.09762 0.0
C12 C 0.29826 0.9924 0.12719 0.0
C13 C 0.22363 0.94971 0.11922 0.0
C14 C 0.19239 0.87822 0.12711 0.0
C15 C 0.18316 0.97939 0.10418 0.0
C16 C 1.08055 0.86568 0.10449 0.0
C17 C 0.11188 0.93755 0.0969 0.0
C18 C 0.1214 0.8365 0.12007 0.0
C19 C 0.47573 0.19665 0.17567 0.0
O20 O 0.55815 0.22202 0.0625 0.0
O21 O 0.48751 0.10573 0.06272 0.0
O22 O 0.46169 0.31631 -0.00224 0.0
O23 O 0.55787 0.31425 -0.0023 0.0
O24 O 0.39404 0.13655 -0.00038 0.0
O25 O 0.39604 0.13757 -0.00062 0.0
O26 O 0.31947 0.15706 0.08841 0.0
O27 O 0.40695 0.26629 0.09395 0.0
O28 O 0.31803 1.04829 0.15531 0.0
O29 O 0.33733 1.00264 0.08271 0.0
O30 O 0.47285 0.14022 0.16077 0.0
O31 O 0.44706 0.21414 0.1375 0.0
H32 H 0.60293 0.45936 0.91306 0.0
H33 H 0.54332 0.40747 0.0896 0.0
H34 H 0.62676 0.527 0.11452 0.0
H35 H 0.68651 0.57813 0.93803 0.0
H36 H 0.22292 0.85464 0.1388 0.0
H37 H 0.20659 1.03471 0.09781 0.0
H38 H 1.08167 0.96126 0.08464 0.0
H39 H 1.09874 0.78118 0.12634 0.0
Gd40 Gd 0.83927 0.76176 0.32005 0.0
Gd41 Gd 0.88529 0.68604 0.36761 0.0
C42 C 1.00488 0.82728 0.32988 0.0
C43 C 0.80776 0.85623 0.29754 0.0
C44 C 0.84531 0.93051 0.30579 0.0
C45 C 0.82567 0.97209 0.27539 0.0
C46 C 0.90255 0.96061 0.34202 0.0
C47 C 0.91717 0.07331 0.32019 0.0
C48 C 0.93875 1.03198 0.34892 0.0
C49 C 0.86122 1.04306 0.28265 0.0
C50 C 0.86158 0.69802 0.23458 0.0
C51 C 0.73811 0.60005 0.32917 0.0
C52 C 0.92583 0.6121 0.42433 0.0
C53 C 0.96477 0.57671 0.41014 0.0
C54 C 0.98643 0.54837 0.4539 0.0
C55 C 0.97206 0.56256 0.35341 0.0
C56 C 1.01196 0.48393 0.38531 0.0
C57 C 0.99519 0.51634 0.34115 0.0
C58 C 1.00929 0.50211 0.44161 0.0
C59 C 0.85197 0.77991 0.449 0.0
O60 O 0.95505 0.84269 0.32995 0.0
O61 O 0.98893 0.76339 0.33775 0.0
O62 O 0.83621 0.83541 0.26114 0.0
O63 O 0.78668 0.81705 0.3435 0.0
O64 O 0.80703 0.70381 0.23977 0.0
O65 O 0.90164 0.72226 0.27656 0.0
O66 O 0.79655 0.60018 0.326 0.0
O67 O 0.73937 0.65913 0.33469 0.0
O68 O 0.96 0.6798 0.4237 0.0
O69 O 0.8649 0.58668 0.40103 0.0
O70 O 0.8293 0.73104 0.41228 0.0
O71 O 0.83147 0.7319 0.4126 0.0
H72 H 0.78226 0.94959 0.24673 0.0
H73 H 0.91835 0.92888 0.36575 0.0
H74 H 0.98117 1.05425 0.37853 0.0
H75 H 0.8439 0.07419 0.2598 0.0
H76 H 0.9809 0.55797 0.49793 0.0
H77 H 0.95525 0.58342 0.31886 0.0
H78 H 0.99403 0.50131 0.29759 0.0
H79 H 1.01882 0.4756 0.47657 0.0
Gd80 Gd 0.9353 0.27977 0.06308 0.0
Gd81 Gd 1.05023 0.32175 0.11124 0.0
C82 C 0.99599 0.42828 0.09187 0.0
C83 C 0.82596 0.23998 0.00219 0.0
C84 C 0.75133 0.20122 0.01643 0.0
C85 C 0.70256 0.18678 -0.02634 0.0
C86 C 0.7291 0.1881 0.07366 0.0
C87 C 0.61242 0.15664 0.0453 0.0
C88 C 0.66019 0.16645 0.088 0.0
C89 C 0.63363 0.16493 -0.01197 0.0
C90 C 1.07045 0.31144 -0.0131 0.0
C91 C 0.94543 0.15574 0.10047 0.0
C92 C 0.17133 0.34367 0.14189 0.0
C93 C 0.21274 0.31066 0.13101 0.0
C94 C 0.28319 0.34639 0.14327 0.0
C95 C 0.18285 0.24354 0.10985 0.0
C96 C 0.29446 0.24961 0.11181 0.0
C97 C 0.2234 0.21302 0.10053 0.0
C98 C 0.32362 0.31631 0.13382 0.0
C99 C 0.96286 0.30529 0.1969 0.0
O100 O 0.93649 0.37096 0.09725 0.0
O101 O 1.05321 0.42438 0.09018 0.0
O102 O 0.85938 0.2059 0.00553 0.0
O103 O 0.85985 0.30084 0.02469 0.0
O104 O 1.03912 0.33415 0.01886 0.0
O105 O 1.03796 0.33154 0.01857 0.0
O106 O 1.01139 0.20502 0.098 0.0
O107 O 0.89979 0.17481 0.09593 0.0
O108 O 0.11473 0.30648 0.1712 0.0
O109 O 0.16251 0.37665 0.09922 0.0
O110 O 1.01924 0.36231 0.18404 0.0
O111 O 0.9482 0.26387 0.15627 0.0
H112 H 0.71871 0.19711 0.92935 0.0
H113 H 0.76614 0.19953 0.10736 0.0
H114 H 0.64561 0.16269 0.13243 0.0
H115 H 0.59827 0.16009 0.95449 0.0
H116 H 0.30712 0.39782 0.16003 0.0
H117 H 0.12845 0.21486 0.10017 0.0
H118 H 0.19964 0.16186 0.08331 0.0
H119 H 0.37821 0.34589 0.14343 0.0
Gd120 Gd 0.3931 0.10483 0.32637 0.0
Gd121 Gd 0.47284 0.21822 0.36563 0.0
C122 C 0.34325 0.21273 0.32698 0.0
C123 C 0.29883 0.97868 0.30692 0.0
C124 C 0.22301 0.94731 0.30593 0.0
C125 C 0.18381 0.88813 0.27483 0.0
C126 C 0.18898 0.9738 0.33833 0.0
C127 C 1.07757 0.87652 0.31432 0.0
C128 C 0.11645 0.93851 0.34252 0.0
C129 C 0.1118 0.85325 0.27875 0.0
C130 C 0.45238 0.19391 0.23457 0.0
C131 C 0.55434 0.14708 0.34688 0.0
C132 C 0.5373 0.33418 0.4156 0.0
C133 C 0.58421 0.40279 0.3904 0.0
C134 C 0.58663 0.4617 0.41184 0.0
C135 C 0.62402 0.4091 0.34214 0.0
C136 C 0.67583 0.53348 0.342 0.0
C137 C 0.66993 0.474 0.31846 0.0
C138 C 0.6322 0.52693 0.38758 0.0
C139 C 0.43322 0.09588 0.4484 0.0
O140 O 0.32169 0.14841 0.34347 0.0
O141 O 0.40931 0.2523 0.31851 0.0
O142 O 0.33371 1.02383 0.2667 0.0
O143 O 0.32689 0.99871 0.35619 0.0
O144 O 0.38678 0.15497 0.24445 0.0
O145 O 0.4847 0.1901 0.27739 0.0
O146 O 0.56425 0.20939 0.34899 0.0
O147 O 0.49037 0.09431 0.34089 0.0
O148 O 0.47329 0.30737 0.39924 0.0
O149 O 0.55964 0.29017 0.41543 0.0
O150 O 0.40379 0.12426 0.41937 0.0
O151 O 0.4061 0.12527 0.41901 0.0
H152 H 0.20891 0.86705 0.24964 0.0
H153 H 0.21846 1.01974 0.36267 0.0
H154 H 1.09136 0.95688 0.37074 0.0
H155 H 1.08278 0.80542 0.25645 0.0
H156 H 0.55482 0.45744 0.44815 0.0
H157 H 0.62114 0.36395 0.32372 0.0
H158 H 0.70346 0.47799 0.28357 0.0
H159 H 0.63691 0.5723 0.40703 0.0
Gd160 Gd 0.8879 0.69776 0.04262 0.0
Gd161 Gd 0.84894 0.76648 0.08585 0.0
C162 C 0.72913 0.62168 0.04379 0.0
C163 C 0.94382 0.63503 -0.00521 0.0
C164 C 0.96239 0.58645 0.02199 0.0
C165 C 1.01596 0.57803 3e-05 0.0
C166 C 0.92783 0.54995 0.07218 0.0
C167 C 0.99441 0.49127 0.07453 0.0
C168 C 0.94318 0.50235 0.0978 0.0
C169 C 1.03186 0.53065 0.02619 0.0
C170 C 0.82972 0.76584 0.95713 0.0
C171 C 1.00649 0.81985 0.09378 0.0
C172 C 0.83292 0.85887 0.13621 0.0
C173 C 0.86365 0.93495 0.12627 0.0
C174 C 0.82002 0.96261 0.12085 0.0
C175 C 0.93605 0.98081 0.12289 0.0
C176 C 0.91962 0.08006 0.10894 0.0
C177 C 0.96373 1.05258 0.11434 0.0
C178 C 0.84741 1.03375 0.11235 0.0
C179 C 0.88524 0.68883 0.17916 0.0
O180 O 0.78075 0.61012 0.04278 0.0
O181 O 0.74119 0.68472 0.05469 0.0
O182 O 0.97966 0.69834 0.01173 0.0
O183 O 0.87753 0.61356 -0.00793 0.0
O184 O 0.87819 0.7808 -0.00565 0.0
O185 O 0.87673 0.77883 -0.00593 0.0
O186 O 0.96475 0.84223 0.07824 0.0
O187 O 0.98129 0.75371 0.09461 0.0
O188 O 0.87542 0.83842 0.15319 0.0
O189 O 0.78874 0.81766 0.09899 0.0
O190 O 0.84774 0.67876 0.13433 0.0
O191 O 0.84864 0.68026 0.13447 0.0
H192 H 1.04409 0.60658 0.96191 0.0
H193 H 0.8875 0.55688 0.09076 0.0
H194 H 0.91291 0.47198 0.13455 0.0
H195 H 1.06996 0.52133 0.00645 0.0
H196 H 0.76436 0.92908 0.12354 0.0
H197 H 0.97149 0.96136 0.12699 0.0
H198 H 1.01934 0.08631 0.11208 0.0
H199 H 0.81122 1.05237 0.10867 0.0
Gd200 Gd 1.05175 0.30319 0.34311 0.0
Gd201 Gd 0.93422 0.25931 0.38627 0.0
C202 C 0.94518 0.14567 0.33424 0.0
C203 C 0.18137 0.34713 0.32045 0.0
C204 C 0.22042 0.3105 0.31979 0.0
C205 C 0.28626 0.34252 0.29467 0.0
C206 C 0.19236 0.2435 0.34413 0.0
C207 C 0.29793 0.24289 0.32122 0.0
C208 C 0.23084 0.20977 0.34475 0.0
C209 C 0.32468 0.30909 0.29533 0.0
C210 C 0.96458 0.27932 0.25423 0.0
C211 C 1.00619 0.41622 0.37603 0.0
C212 C 0.81247 0.19489 0.43385 0.0
C213 C 0.7433 0.17231 0.41003 0.0
C214 C 0.68527 0.1474 0.44599 0.0
C215 C 0.73525 0.17781 0.35108 0.0
C216 C 0.61299 0.13898 0.3651 0.0
C217 C 0.67072 0.16181 0.32887 0.0
C218 C 0.62088 0.13151 0.42373 0.0
C219 C 1.05786 0.31968 0.47064 0.0
O220 O 1.00929 0.1866 0.35038 0.0
O221 O 0.90424 0.17104 0.33158 0.0
O222 O 0.13443 0.32988 0.28196 0.0
O223 O 0.159 0.35225 0.36993 0.0
O224 O 1.00689 0.25627 0.26008 0.0
O225 O 0.9651 0.30977 0.29915 0.0
O226 O 0.94575 0.36224 0.3865 0.0
O227 O 1.05835 0.40811 0.35933 0.0
O228 O 0.84363 0.16359 0.41422 0.0
O229 O 0.85409 0.26165 0.43688 0.0
O230 O 1.02589 0.27055 0.43468 0.0
O231 O 1.02513 0.27199 0.43474 0.0
H232 H 0.30839 0.3938 0.27523 0.0
H233 H 0.14127 0.21785 0.36357 0.0
H234 H 0.20904 0.15899 0.36507 0.0
H235 H 0.37608 0.33585 0.27634 0.0
H236 H 0.69029 0.143 0.49153 0.0
H237 H 0.77956 0.19731 0.32253 0.0
H238 H 0.6669 0.17135 0.28395 0.0
H239 H 0.5783 0.11821 0.45294 0.0
Gd240 Gd 0.14133 0.36076 0.61927 0.0
Gd241 Gd 0.25956 0.4383 0.56844 0.0
C242 C 0.24476 0.30122 0.60587 0.0
C243 C 1.0173 0.26225 0.64644 0.0
C244 C 0.97492 0.189 0.63427 0.0
C245 C 0.90571 0.15302 0.65207 0.0
C246 C 1.00475 0.15314 0.61024 0.0
C247 C 0.896 1.04572 0.62168 0.0
C248 C 0.96563 0.08176 0.60434 0.0
C249 C 0.8664 0.08188 0.64571 0.0
C250 C 0.23091 0.43114 0.70173 0.0
C251 C 0.19829 0.52245 0.6079 0.0
C252 C 0.37144 0.51101 0.50844 0.0
C253 C 0.44574 0.54702 0.52337 0.0
C254 C 0.49678 0.57613 0.48045 0.0
C255 C 0.46593 0.5603 0.58051 0.0
C256 C 0.58532 0.63971 0.55083 0.0
C257 C 0.53509 0.60661 0.59409 0.0
C258 C 0.5659 0.62228 0.49408 0.0
C259 C 0.12779 0.33807 0.49239 0.0
O260 O 0.17895 0.28359 0.60309 0.0
O261 O 0.29101 0.36614 0.60117 0.0
O262 O 1.07243 0.27719 0.6749 0.0
O263 O 1.0296 0.30688 0.60492 0.0
O264 O 0.16859 0.42086 0.69883 0.0
O265 O 0.24598 0.40628 0.66011 0.0
O266 O 0.25768 0.52446 0.60906 0.0
O267 O 0.1407 0.46195 0.60453 0.0
O268 O 0.33807 0.44328 0.51057 0.0
O269 O 0.33588 0.53659 0.53085 0.0
O270 O 0.15574 0.38942 0.5268 0.0
O271 O 0.15704 0.38833 0.52643 0.0
H272 H 0.88228 0.1798 0.67144 0.0
H273 H 1.0583 0.18012 0.59645 0.0
H274 H 0.98927 1.05519 0.58499 0.0
H275 H 0.81264 1.05519 0.65942 0.0
H276 H 0.48253 0.56694 0.43616 0.0
H277 H 0.42737 0.53861 0.6144 0.0
H278 H 0.54809 0.62089 0.63794 0.0
H279 H 0.60313 0.64891 0.45983 0.0
Gd280 Gd 0.29779 0.90495 0.87516 0.0
Gd281 Gd 0.34753 1.02452 0.8243 0.0
C282 C 0.45317 0.97457 0.85779 0.0
C283 C 0.24772 0.79201 0.93781 0.0
C284 C 0.21883 0.71714 0.92858 0.0
C285 C 0.22203 0.67541 -0.02735 0.0
C286 C 0.19474 0.68813 0.87511 0.0
C287 C 0.18524 0.57939 0.90868 0.0
C288 C 0.1779 0.61968 0.86531 0.0
C289 C 0.20618 0.60768 0.96265 0.0
C290 C 0.37485 1.03162 0.95446 0.0
C291 C 0.18245 0.91938 0.8218 0.0
C292 C 0.37743 0.14658 0.78722 0.0
C293 C 0.34654 0.19027 0.79351 0.0
C294 C 0.38899 0.26195 0.78884 0.0
C295 C 0.27551 0.16141 0.80534 0.0
C296 C 0.29054 0.27612 0.81033 0.0
C297 C 0.24761 0.2041 0.81364 0.0
C298 C 0.36126 0.30458 0.79696 0.0
C299 C 0.34246 0.93773 0.74331 0.0
O300 O 0.39793 0.91415 0.85232 0.0
O301 O 0.44713 1.03025 0.85602 0.0
O302 O 0.21101 0.81967 0.92095 0.0
O303 O 0.31364 0.83175 0.92588 0.0
O304 O 0.3253 1.00423 0.91753 0.0
O305 O 0.32622 1.00315 0.91769 0.0
O306 O 0.23034 0.98504 0.82696 0.0
O307 O 0.20039 0.87278 0.82989 0.0
O308 O 0.34126 0.09065 0.75895 0.0
O309 O 0.40445 0.13599 0.83285 0.0
O310 O 0.39714 0.99456 0.75671 0.0
O311 O 0.29647 0.92276 0.78119 0.0
H312 H 0.24065 0.69651 0.01412 0.0
H313 H 0.19249 0.71949 0.84019 0.0
H314 H 0.16446 0.60024 0.82274 0.0
H315 H 0.21415 0.57855 -0.00361 0.0
H316 H 0.44379 0.285 0.77951 0.0
H317 H 0.24182 0.10603 0.80903 0.0
H318 H 0.19306 0.18081 0.824 0.0
H319 H 0.39574 0.35998 0.79391 0.0
Gd320 Gd 0.8038 0.81512 0.59938 0.0
Gd321 Gd 0.73509 0.86499 0.54307 0.0
C322 C 0.85163 0.97233 0.60968 0.0
C323 C 0.89984 0.78624 0.62254 0.0
C324 C 0.97325 0.81578 0.60769 0.0
C325 C 1.007 0.78064 0.62576 0.0
C326 C 1.012 0.88269 0.583 0.0
C327 C 0.11812 0.87936 0.59628 0.0
C328 C 1.08414 0.9144 0.5774 0.0
C329 C 1.07861 0.81194 0.62001 0.0
C330 C 0.72873 0.82471 0.68536 0.0
C331 C 0.64793 0.70657 0.56168 0.0
C332 C 0.68366 0.92915 0.48686 0.0
C333 C 0.63917 0.95608 0.50747 0.0
C334 C 0.59725 0.96737 0.46948 0.0
C335 C 0.63281 0.96377 0.56607 0.0
C336 C 0.53946 0.98815 0.54838 0.0
C337 C 0.58315 0.97928 0.58634 0.0
C338 C 0.54757 0.98256 0.48979 0.0
C339 C 0.80049 0.79874 0.46964 0.0
O340 O 0.87616 0.93169 0.59767 0.0
O341 O 0.78581 0.94853 0.60366 0.0
O342 O 0.88685 0.82682 0.6517 0.0
O343 O 0.85387 0.75453 0.58327 0.0
O344 O 0.76594 0.79593 0.69013 0.0
O345 O 0.72629 0.84345 0.6347 0.0
O346 O 0.64284 0.76141 0.55157 0.0
O347 O 0.70777 0.71248 0.57695 0.0
O348 O 0.74732 0.96008 0.50517 0.0
O349 O 0.65504 0.86173 0.48843 0.0
O350 O 0.81663 0.84675 0.50633 0.0
O351 O 0.81449 0.84568 0.50614 0.0
H352 H 0.97818 0.72967 0.64589 0.0
H353 H 0.98667 0.911 0.5695 0.0
H354 H 0.11314 0.96609 0.55868 0.0
H355 H 0.10306 0.78333 0.63503 0.0
H356 H 0.60042 0.96098 0.4243 0.0
H357 H 0.66368 0.95414 0.59647 0.0
H358 H 0.57587 0.97982 0.63181 0.0
H359 H 0.51229 0.98558 0.45976 0.0
Gd360 Gd 0.27212 0.43945 0.88791 0.0
Gd361 Gd 0.1628 0.37753 0.844 0.0
C362 C 0.19244 0.51923 0.89459 0.0
C363 C 0.39099 0.49495 0.9384 0.0
C364 C 0.46262 0.54451 0.9186 0.0
C365 C 0.51512 0.57953 0.95811 0.0
C366 C 0.47833 0.56013 0.86023 0.0
C367 C 0.59634 0.64925 0.88168 0.0
C368 C 0.54452 0.61225 0.84198 0.0
C369 C 0.58104 0.63191 0.93983 0.0
C370 C 0.14241 0.3647 -0.0306 0.0
C371 C 0.26418 0.32232 0.82477 0.0
C372 C 1.04852 0.2937 0.79466 0.0
C373 C 1.00057 0.21813 0.8026 0.0
C374 C 0.92903 0.1903 0.79753 0.0
C375 C 1.02599 0.17289 0.8143 0.0
C376 C 0.90914 0.07362 0.81631 0.0
C377 C 0.98086 0.10152 0.82096 0.0
C378 C 0.8838 0.11889 0.8043 0.0
C379 C 0.2758 0.46081 0.75082 0.0
O380 O 0.25471 0.5279 0.89717 0.0
O381 O 0.14043 0.45886 0.87917 0.0
O382 O 0.362 0.43426 0.91592 0.0
O383 O 0.34868 0.51914 0.94139 0.0
O384 O 0.17812 0.35199 0.9328 0.0
O385 O 0.17841 0.35428 0.93317 0.0
O386 O 0.19989 0.29985 0.84037 0.0
O387 O 0.30728 0.38781 0.82909 0.0
O388 O 0.11004 0.31128 0.77562 0.0
O389 O 1.05076 0.33346 0.8353 0.0
O390 O 0.25131 0.46703 0.79882 0.0
O391 O 0.2507 0.46583 0.79862 0.0
H392 H 0.50431 0.56856 0.00327 0.0
H393 H 0.43849 0.53416 0.82891 0.0
H394 H 0.55381 0.62672 0.79715 0.0
H395 H 0.61901 0.66175 -0.02856 0.0
H396 H 0.90808 0.22375 0.78816 0.0
H397 H 1.0809 0.1925 0.81835 0.0
H398 H 1.00217 0.06839 0.83031 0.0
H399 H 0.82878 0.09923 0.80024 0.0
Gd400 Gd 0.35273 1.02079 0.58866 0.0
Gd401 Gd 0.31837 0.90378 0.55476 0.0
C402 C 0.19386 0.91008 0.59031 0.0
C403 C 0.38514 0.14763 0.60383 0.0
C404 C 0.34181 0.17897 0.61319 0.0
C405 C 0.36926 0.24047 0.6423 0.0
C406 C 0.27556 0.15147 0.58899 0.0
C407 C 0.27021 0.25248 0.61567 0.0
C408 C 0.23982 0.18807 0.59027 0.0
C409 C 0.33375 0.27672 0.64372 0.0
C410 C 0.32211 0.93694 0.68381 0.0
C411 C 0.47285 0.97973 0.56847 0.0
C412 C 0.26498 0.78376 0.51126 0.0
C413 C 0.24183 0.71648 0.53991 0.0
C414 C 0.18495 0.65638 0.5197 0.0
C415 C 0.27456 0.71259 0.58973 0.0
C416 C 0.20103 0.58791 0.59365 0.0
C417 C 0.25467 0.64876 0.61609 0.0
C418 C 0.16453 0.59229 0.54657 0.0
C419 C 0.39614 1.02156 0.46611 0.0
O420 O 0.23646 0.97446 0.57337 0.0
O421 O 0.22081 0.87151 0.60095 0.0
O422 O 0.38699 0.10803 0.64446 0.0
O423 O 0.37968 0.12184 0.55411 0.0
O424 O 0.29555 0.97513 0.67102 0.0
O425 O 0.35861 0.93845 0.64212 0.0
O426 O 0.42082 0.91671 0.56981 0.0
O427 O 0.46077 1.03198 0.57206 0.0
O428 O 0.22854 0.81224 0.52431 0.0
O429 O 0.33179 0.82745 0.51094 0.0
O430 O 0.33979 0.99373 0.49711 0.0
O431 O 0.34131 0.99278 0.49757 0.0
H432 H 0.41976 0.26223 0.66158 0.0
H433 H 0.2531 0.10359 0.5665 0.0
H434 H 0.1912 0.16843 0.56821 0.0
H435 H 0.35802 0.32598 0.66434 0.0
H436 H 0.15796 0.65874 0.48214 0.0
H437 H 0.31717 0.75869 0.60714 0.0
H438 H 0.28407 0.6465 0.65198 0.0
H439 H 0.12417 0.5459 0.52782 0.0
Gd440 Gd 0.73119 0.87643 0.87691 0.0
Gd441 Gd 0.80471 0.83896 0.82515 0.0
C442 C 0.65498 0.71816 0.86555 0.0
C443 C 0.66792 0.92555 0.93384 0.0
C444 C 0.61869 0.94598 0.91237 0.0
C445 C 0.6004 0.9865 0.94433 0.0
C446 C 0.58914 0.92398 0.85878 0.0
C447 C 0.51807 0.97629 0.87177 0.0
C448 C 0.53874 0.93835 0.83898 0.0
C449 C 0.55014 1.00152 0.92409 0.0
C450 C 0.79238 0.80521 0.95449 0.0
C451 C 0.8603 0.99835 0.82569 0.0
C452 C 0.89486 0.82227 0.77098 0.0
C453 C 0.96919 0.84853 0.78169 0.0
C454 C 0.99559 0.80376 0.77956 0.0
C455 C 1.01415 0.91811 0.7952 0.0
C456 C 0.10988 0.89666 0.80637 0.0
C457 C 1.08387 0.94199 0.8072 0.0
C458 C 1.06507 0.82745 0.79186 0.0
C459 C 0.69945 0.84382 0.73274 0.0
O460 O 0.64347 0.76967 0.86965 0.0
O461 O 0.71839 0.73033 0.8536 0.0
O462 O 0.73125 0.96377 0.91458 0.0
O463 O 0.6464 0.8594 0.93239 0.0
O464 O 0.81086 0.85675 0.91829 0.0
O465 O 0.80938 0.85571 0.91855 0.0
O466 O 0.88111 0.95365 0.83653 0.0
O467 O 0.79385 0.97499 0.82714 0.0
O468 O 0.87877 0.86911 0.75665 0.0
O469 O 0.85016 0.77511 0.8068 0.0
O470 O 0.72154 0.85149 0.78432 0.0
O471 O 0.72327 0.85088 0.78398 0.0
H472 H 0.62309 1.00439 -0.01443 0.0
H473 H 0.60331 0.89345 0.83311 0.0
H474 H 0.51369 0.91729 0.79905 0.0
H475 H 0.53288 1.02856 0.95093 0.0
H476 H 0.9623 0.75022 0.76892 0.0
H477 H 0.99545 0.95414 0.79706 0.0
H478 H 0.11692 0.99544 0.81814 0.0
H479 H 1.08351 0.79113 0.79028 0.0
loop_
_geom_bond_atom_site_label_1
_geom_bond_atom_site_label_2
_geom_bond_distance
_geom_bond_site_symmetry_2
_ccdc_geom_bond_type
Gd0 C3 2.818 . S
Gd0 O20 2.377 . S
Gd0 O22 2.448 . S
Gd0 O23 2.506 . S
Gd0 O24 2.435 1_554 S
Gd0 O25 2.717 . S
Gd0 O27 2.395 . S
Gd0 O31 2.327 . S
Gd1 C12 2.818 1_545 S
Gd1 O21 2.395 . S
Gd1 O25 2.327 . S
Gd1 O26 2.377 . S
Gd1 O28 2.448 1_545 S
Gd1 O29 2.506 1_545 S
Gd1 O30 2.435 . S
Gd1 O31 2.717 . S
C2 O20 1.240 . S
C2 O21 1.240 . S
C3 Gd0 2.818 . S
C3 C4 1.510 . S
C3 O22 1.249 . S
C3 O23 1.252 . S
C4 C3 1.510 . S
C4 C5 1.404 1_554 S
C4 C6 1.352 . S
C5 C4 1.404 1_556 S
C5 C9 1.389 . S
C5 H32 0.930 . S
C6 C4 1.352 . S
C6 C8 1.374 . S
C6 H33 0.931 . S
C7 C8 1.359 . S
C7 C9 1.364 1_554 S
C8 C6 1.374 . S
C8 C7 1.359 . S
C8 H34 0.931 . S
C9 C5 1.389 . S
C9 C7 1.364 1_556 S
C9 H35 0.931 . S
C10 O24 1.256 . S
C10 O25 1.257 1_556 S
C11 O26 1.240 . S
C11 O27 1.240 . S
C12 Gd1 2.818 1_565 S
C12 C13 1.510 . S
C12 O28 1.249 . S
C12 O29 1.252 . S
C13 C12 1.510 . S
C13 C14 1.404 . S
C13 C15 1.352 . S
C14 C13 1.404 . S
C14 C18 1.389 . S
C14 H36 0.930 . S
C15 C13 1.352 . S
C15 C17 1.381 . S
C15 H37 0.931 . S
C16 C17 1.357 1_655 S
C16 C18 1.364 1_655 S
C17 C15 1.381 . S
C17 C16 1.357 1_455 S
C17 H38 0.926 1_455 S
C18 C14 1.389 . S
C18 C16 1.364 1_455 S
C18 H39 0.931 1_455 S
C19 O30 1.256 . S
C19 O31 1.257 . S
O20 Gd0 2.377 . S
O20 C2 1.240 . S
O21 Gd1 2.395 . S
O21 C2 1.240 . S
O22 Gd0 2.448 . S
O22 C3 1.249 . S
O23 Gd0 2.506 . S
O23 C3 1.252 . S
O24 Gd0 2.435 1_556 S
O24 C10 1.256 . S
O25 Gd0 2.717 . S
O25 Gd1 2.327 . S
O25 C10 1.257 1_554 S
O26 Gd1 2.377 . S
O26 C11 1.240 . S
O27 Gd0 2.395 . S
O27 C11 1.240 . S
O28 Gd1 2.448 1_565 S
O28 C12 1.249 . S
O29 Gd1 2.506 1_565 S
O29 C12 1.252 . S
O30 Gd1 2.435 . S
O30 C19 1.256 . S
O31 Gd0 2.327 . S
O31 Gd1 2.717 . S
O31 C19 1.257 . S
H32 C5 0.930 . S
H33 C6 0.931 . S
H34 C8 0.931 . S
H35 C9 0.931 . S
H36 C14 0.930 . S
H37 C15 0.931 . S
H38 C17 0.926 1_655 S
H39 C18 0.931 1_655 S
Gd40 C43 2.818 . S
Gd40 O60 2.377 . S
Gd40 O62 2.448 . S
Gd40 O63 2.506 . S
Gd40 O64 2.435 . S
Gd40 O65 2.717 . S
Gd40 O67 2.395 . S
Gd40 O71 2.327 . S
Gd41 C52 2.818 . S
Gd41 O61 2.395 . S
Gd41 O65 2.327 . S
Gd41 O66 2.377 . S
Gd41 O68 2.448 . S
Gd41 O69 2.506 . S
Gd41 O70 2.435 . S
Gd41 O71 2.717 . S
C42 O60 1.240 . S
C42 O61 1.240 . S
C43 Gd40 2.818 . S
C43 C44 1.510 . S
C43 O62 1.249 . S
C43 O63 1.252 . S
C44 C43 1.510 . S
C44 C45 1.404 . S
C44 C46 1.352 . S
C45 C44 1.404 . S
C45 C49 1.389 . S
C45 H72 0.930 . S
C46 C44 1.352 . S
C46 C48 1.384 . S
C46 H73 0.931 . S
C47 C48 1.354 1_545 S
C47 C49 1.364 1_545 S
C48 C46 1.384 . S
C48 C47 1.354 1_565 S
C48 H74 0.926 1_565 S
C49 C45 1.389 . S
C49 C47 1.364 1_565 S
C49 H75 0.931 1_565 S
C50 O64 1.256 . S
C50 O65 1.257 . S
C51 O66 1.240 . S
C51 O67 1.240 . S
C52 Gd41 2.818 . S
C52 C53 1.510 . S
C52 O68 1.249 . S
C52 O69 1.252 . S
C53 C52 1.510 . S
C53 C54 1.404 . S
C53 C55 1.352 . S
C54 C53 1.404 . S
C54 C58 1.389 . S
C54 H76 0.930 . S
C55 C53 1.352 . S
C55 C57 1.374 . S
C55 H77 0.931 . S
C56 C57 1.359 . S
C56 C58 1.364 . S
C57 C55 1.374 . S
C57 C56 1.359 . S
C57 H78 0.931 . S
C58 C54 1.389 . S
C58 C56 1.364 . S
C58 H79 0.931 . S
C59 O70 1.256 . S
C59 O71 1.257 . S
O60 Gd40 2.377 . S
O60 C42 1.240 . S
O61 Gd41 2.395 . S
O61 C42 1.240 . S
O62 Gd40 2.448 . S
O62 C43 1.249 . S
O63 Gd40 2.506 . S
O63 C43 1.252 . S
O64 Gd40 2.435 . S
O64 C50 1.256 . S
O65 Gd40 2.717 . S
O65 Gd41 2.327 . S
O65 C50 1.257 . S
O66 Gd41 2.377 . S
O66 C51 1.240 . S
O67 Gd40 2.395 . S
O67 C51 1.240 . S
O68 Gd41 2.448 . S
O68 C52 1.249 . S
O69 Gd41 2.506 . S
O69 C52 1.252 . S
O70 Gd41 2.435 . S
O70 C59 1.256 . S
O71 Gd40 2.327 . S
O71 Gd41 2.717 . S
O71 C59 1.257 . S
H72 C45 0.930 . S
H73 C46 0.931 . S
H74 C48 0.926 1_545 S
H75 C49 0.931 1_545 S
H76 C54 0.930 . S
H77 C55 0.931 . S
H78 C57 0.931 . S
H79 C58 0.931 . S
Gd80 C83 2.818 . S
Gd80 O100 2.377 . S
Gd80 O102 2.448 . S
Gd80 O103 2.506 . S
Gd80 O104 2.435 1_554 S
Gd80 O105 2.717 . S
Gd80 O107 2.395 . S
Gd80 O111 2.327 . S
Gd81 C92 2.818 1_655 S
Gd81 O101 2.395 . S
Gd81 O105 2.327 . S
Gd81 O106 2.377 . S
Gd81 O108 2.448 1_655 S
Gd81 O109 2.506 1_655 S
Gd81 O110 2.435 . S
Gd81 O111 2.717 . S
C82 O100 1.240 . S
C82 O101 1.240 . S
C83 Gd80 2.818 . S
C83 C84 1.510 . S
C83 O102 1.249 . S
C83 O103 1.252 . S
C84 C83 1.510 . S
C84 C85 1.404 1_554 S
C84 C86 1.352 . S
C85 C84 1.404 1_556 S
C85 C89 1.389 . S
C85 H112 0.930 . S
C86 C84 1.352 . S
C86 C88 1.374 . S
C86 H113 0.931 . S
C87 C88 1.359 . S
C87 C89 1.364 1_554 S
C88 C86 1.374 . S
C88 C87 1.359 . S
C88 H114 0.931 . S
C89 C85 1.389 . S
C89 C87 1.364 1_556 S
C89 H115 0.931 . S
C90 O104 1.256 . S
C90 O105 1.257 1_556 S
C91 O106 1.240 . S
C91 O107 1.240 . S
C92 Gd81 2.818 1_455 S
C92 C93 1.510 . S
C92 O108 1.249 . S
C92 O109 1.252 . S
C93 C92 1.510 . S
C93 C94 1.404 . S
C93 C95 1.352 . S
C94 C93 1.404 . S
C94 C98 1.389 . S
C94 H116 0.930 . S
C95 C93 1.352 . S
C95 C97 1.374 . S
C95 H117 0.931 . S
C96 C97 1.359 . S
C96 C98 1.364 . S
C97 C95 1.374 . S
C97 C96 1.359 . S
C97 H118 0.931 . S
C98 C94 1.389 . S
C98 C96 1.364 . S
C98 H119 0.931 . S
C99 O110 1.256 . S
C99 O111 1.257 . S
O100 Gd80 2.377 . S
O100 C82 1.240 . S
O101 Gd81 2.395 . S
O101 C82 1.240 . S
O102 Gd80 2.448 . S
O102 C83 1.249 . S
O103 Gd80 2.506 . S
O103 C83 1.252 . S
O104 Gd80 2.435 1_556 S
O104 C90 1.256 . S
O105 Gd80 2.717 . S
O105 Gd81 2.327 . S
O105 C90 1.257 1_554 S
O106 Gd81 2.377 . S
O106 C91 1.240 . S
O107 Gd80 2.395 . S
O107 C91 1.240 . S
O108 Gd81 2.448 1_455 S
O108 C92 1.249 . S
O109 Gd81 2.506 1_455 S
O109 C92 1.252 . S
O110 Gd81 2.435 . S
O110 C99 1.256 . S
O111 Gd80 2.327 . S
O111 Gd81 2.717 . S
O111 C99 1.257 . S
H112 C85 0.930 . S
H113 C86 0.931 . S
H114 C88 0.931 . S
H115 C89 0.931 . S
H116 C94 0.930 . S
H117 C95 0.931 . S
H118 C97 0.931 . S
H119 C98 0.931 . S
Gd120 C123 2.818 1_545 S
Gd120 O140 2.377 . S
Gd120 O142 2.448 1_545 S
Gd120 O143 2.506 1_545 S
Gd120 O144 2.435 . S
Gd120 O145 2.717 . S
Gd120 O147 2.395 . S
Gd120 O151 2.327 . S
Gd121 C132 2.818 . S
Gd121 O141 2.395 . S
Gd121 O145 2.327 . S
Gd121 O146 2.377 . S
Gd121 O148 2.448 . S
Gd121 O149 2.506 . S
Gd121 O150 2.435 . S
Gd121 O151 2.717 . S
C122 O140 1.240 . S
C122 O141 1.240 . S
C123 Gd120 2.818 1_565 S
C123 C124 1.510 . S
C123 O142 1.249 . S
C123 O143 1.252 . S
C124 C123 1.510 . S
C124 C125 1.404 . S
C124 C126 1.352 . S
C125 C124 1.404 . S
C125 C129 1.389 . S
C125 H152 0.930 . S
C126 C124 1.352 . S
C126 C128 1.381 . S
C126 H153 0.931 . S
C127 C128 1.357 1_655 S
C127 C129 1.364 1_655 S
C128 C126 1.381 . S
C128 C127 1.357 1_455 S
C128 H154 0.926 1_455 S
C129 C125 1.389 . S
C129 C127 1.364 1_455 S
C129 H155 0.931 1_455 S
C130 O144 1.256 . S
C130 O145 1.257 . S
C131 O146 1.240 . S
C131 O147 1.240 . S
C132 Gd121 2.818 . S
C132 C133 1.510 . S
C132 O148 1.249 . S
C132 O149 1.252 . S
C133 C132 1.510 . S
C133 C134 1.404 . S
C133 C135 1.352 . S
C134 C133 1.404 . S
C134 C138 1.389 . S
C134 H156 0.930 . S
C135 C133 1.352 . S
C135 C137 1.374 . S
C135 H157 0.931 . S
C136 C137 1.359 . S
C136 C138 1.364 . S
C137 C135 1.374 . S
C137 C136 1.359 . S
C137 H158 0.931 . S
C138 C134 1.389 . S
C138 C136 1.364 . S
C138 H159 0.931 . S
C139 O150 1.256 . S
C139 O151 1.257 . S
O140 Gd120 2.377 . S
O140 C122 1.240 . S
O141 Gd121 2.395 . S
O141 C122 1.240 . S
O142 Gd120 2.448 1_565 S
O142 C123 1.249 . S
O143 Gd120 2.506 1_565 S
O143 C123 1.252 . S
O144 Gd120 2.435 . S
O144 C130 1.256 . S
O145 Gd120 2.717 . S
O145 Gd121 2.327 . S
O145 C130 1.257 . S
O146 Gd121 2.377 . S
O146 C131 1.240 . S
O147 Gd120 2.395 . S
O147 C131 1.240 . S
O148 Gd121 2.448 . S
O148 C132 1.249 . S
O149 Gd121 2.506 . S
O149 C132 1.252 . S
O150 Gd121 2.435 . S
O150 C139 1.256 . S
O151 Gd120 2.327 . S
O151 Gd121 2.717 . S
O151 C139 1.257 . S
H152 C125 0.930 . S
H153 C126 0.931 . S
H154 C128 0.926 1_655 S
H155 C129 0.931 1_655 S
H156 C134 0.930 . S
H157 C135 0.931 . S
H158 C137 0.931 . S
H159 C138 0.931 . S
Gd160 C163 2.818 . S
Gd160 O180 2.377 . S
Gd160 O182 2.448 . S
Gd160 O183 2.506 . S
Gd160 O184 2.435 1_554 S
Gd160 O185 2.717 . S
Gd160 O187 2.395 . S
Gd160 O191 2.327 . S
Gd161 C172 2.818 . S
Gd161 O181 2.395 . S
Gd161 O185 2.327 . S
Gd161 O186 2.377 . S
Gd161 O188 2.448 . S
Gd161 O189 2.506 . S
Gd161 O190 2.435 . S
Gd161 O191 2.717 . S
C162 O180 1.240 . S
C162 O181 1.240 . S
C163 Gd160 2.818 . S
C163 C164 1.510 . S
C163 O182 1.249 . S
C163 O183 1.252 . S
C164 C163 1.510 . S
C164 C165 1.404 1_554 S
C164 C166 1.352 . S
C165 C164 1.404 1_556 S
C165 C169 1.389 . S
C165 H192 0.930 . S
C166 C164 1.352 . S
C166 C168 1.374 . S
C166 H193 0.931 . S
C167 C168 1.359 . S
C167 C169 1.364 1_554 S
C168 C166 1.374 . S
C168 C167 1.359 . S
C168 H194 0.931 . S
C169 C165 1.389 . S
C169 C167 1.364 1_556 S
C169 H195 0.931 . S
C170 O184 1.256 . S
C170 O185 1.257 1_556 S
C171 O186 1.240 . S
C171 O187 1.240 . S
C172 Gd161 2.818 . S
C172 C173 1.510 . S
C172 O188 1.249 . S
C172 O189 1.252 . S
C173 C172 1.510 . S
C173 C174 1.404 . S
C173 C175 1.352 . S
C174 C173 1.404 . S
C174 C178 1.389 . S
C174 H196 0.930 . S
C175 C173 1.352 . S
C175 C177 1.384 . S
C175 H197 0.931 . S
C176 C177 1.354 1_545 S
C176 C178 1.364 1_545 S
C177 C175 1.384 . S
C177 C176 1.354 1_565 S
C177 H198 0.926 1_565 S
C178 C174 1.389 . S
C178 C176 1.364 1_565 S
C178 H199 0.931 1_565 S
C179 O190 1.256 . S
C179 O191 1.257 . S
O180 Gd160 2.377 . S
O180 C162 1.240 . S
O181 Gd161 2.395 . S
O181 C162 1.240 . S
O182 Gd160 2.448 . S
O182 C163 1.249 . S
O183 Gd160 2.506 . S
O183 C163 1.252 . S
O184 Gd160 2.435 1_556 S
O184 C170 1.256 . S
O185 Gd160 2.717 . S
O185 Gd161 2.327 . S
O185 C170 1.257 1_554 S
O186 Gd161 2.377 . S
O186 C171 1.240 . S
O187 Gd160 2.395 . S
O187 C171 1.240 . S
O188 Gd161 2.448 . S
O188 C172 1.249 . S
O189 Gd161 2.506 . S
O189 C172 1.252 . S
O190 Gd161 2.435 . S
O190 C179 1.256 . S
O191 Gd160 2.327 . S
O191 Gd161 2.717 . S
O191 C179 1.257 . S
H192 C165 0.930 . S
H193 C166 0.931 . S
H194 C168 0.931 . S
H195 C169 0.931 . S
H196 C174 0.930 . S
H197 C175 0.931 . S
H198 C177 0.926 1_545 S
H199 C178 0.931 1_545 S
Gd200 C203 2.818 1_655 S
Gd200 O220 2.377 . S
Gd200 O222 2.448 1_655 S
Gd200 O223 2.506 1_655 S
Gd200 O224 2.435 . S
Gd200 O225 2.717 . S
Gd200 O227 2.395 . S
Gd200 O231 2.327 . S
Gd201 C212 2.818 . S
Gd201 O221 2.395 . S
Gd201 O225 2.327 . S
Gd201 O226 2.377 . S
Gd201 O228 2.448 . S
Gd201 O229 2.506 . S
Gd201 O230 2.435 . S
Gd201 O231 2.717 . S
C202 O220 1.240 . S
C202 O221 1.240 . S
C203 Gd200 2.818 1_455 S
C203 C204 1.510 . S
C203 O222 1.249 . S
C203 O223 1.252 . S
C204 C203 1.510 . S
C204 C205 1.404 . S
C204 C206 1.352 . S
C205 C204 1.404 . S
C205 C209 1.389 . S
C205 H232 0.930 . S
C206 C204 1.352 . S
C206 C208 1.374 . S
C206 H233 0.931 . S
C207 C208 1.359 . S
C207 C209 1.364 . S
C208 C206 1.374 . S
C208 C207 1.359 . S
C208 H234 0.931 . S
C209 C205 1.389 . S
C209 C207 1.364 . S
C209 H235 0.931 . S
C210 O224 1.256 . S
C210 O225 1.257 . S
C211 O226 1.240 . S
C211 O227 1.240 . S
C212 Gd201 2.818 . S
C212 C213 1.510 . S
C212 O228 1.249 . S
C212 O229 1.252 . S
C213 C212 1.510 . S
C213 C214 1.404 . S
C213 C215 1.352 . S
C214 C213 1.404 . S
C214 C218 1.389 . S
C214 H236 0.930 . S
C215 C213 1.352 . S
C215 C217 1.374 . S
C215 H237 0.931 . S
C216 C217 1.359 . S
C216 C218 1.364 . S
C217 C215 1.374 . S
C217 C216 1.359 . S
C217 H238 0.931 . S
C218 C214 1.389 . S
C218 C216 1.364 . S
C218 H239 0.931 . S
C219 O230 1.256 . S
C219 O231 1.257 . S
O220 Gd200 2.377 . S
O220 C202 1.240 . S
O221 Gd201 2.395 . S
O221 C202 1.240 . S
O222 Gd200 2.448 1_455 S
O222 C203 1.249 . S
O223 Gd200 2.506 1_455 S
O223 C203 1.252 . S
O224 Gd200 2.435 . S
O224 C210 1.256 . S
O225 Gd200 2.717 . S
O225 Gd201 2.327 . S
O225 C210 1.257 . S
O226 Gd201 2.377 . S
O226 C211 1.240 . S
O227 Gd200 2.395 . S
O227 C211 1.240 . S
O228 Gd201 2.448 . S
O228 C212 1.249 . S
O229 Gd201 2.506 . S
O229 C212 1.252 . S
O230 Gd201 2.435 . S
O230 C219 1.256 . S
O231 Gd200 2.327 . S
O231 Gd201 2.717 . S
O231 C219 1.257 . S
H232 C205 0.930 . S
H233 C206 0.931 . S
H234 C208 0.931 . S
H235 C209 0.931 . S
H236 C214 0.930 . S
H237 C215 0.931 . S
H238 C217 0.931 . S
H239 C218 0.931 . S
Gd240 C243 2.818 1_455 S
Gd240 O260 2.377 . S
Gd240 O262 2.448 1_455 S
Gd240 O263 2.506 1_455 S
Gd240 O264 2.435 . S
Gd240 O265 2.717 . S
Gd240 O267 2.395 . S
Gd240 O271 2.327 . S
Gd241 C252 2.818 . S
Gd241 O261 2.395 . S
Gd241 O265 2.327 . S
Gd241 O266 2.377 . S
Gd241 O268 2.448 . S
Gd241 O269 2.506 . S
Gd241 O270 2.435 . S
Gd241 O271 2.717 . S
C242 O260 1.240 . S
C242 O261 1.240 . S
C243 Gd240 2.818 1_655 S
C243 C244 1.510 . S
C243 O262 1.249 . S
C243 O263 1.252 . S
C244 C243 1.510 . S
C244 C245 1.404 . S
C244 C246 1.352 . S
C245 C244 1.404 . S
C245 C249 1.389 . S
C245 H272 0.930 . S
C246 C244 1.352 . S
C246 C248 1.381 . S
C246 H273 0.931 . S
C247 C248 1.357 1_565 S
C247 C249 1.364 1_565 S
C248 C246 1.381 . S
C248 C247 1.357 1_545 S
C248 H274 0.926 1_545 S
C249 C245 1.389 . S
C249 C247 1.364 1_545 S
C249 H275 0.931 1_545 S
C250 O264 1.256 . S
C250 O265 1.257 . S
C251 O266 1.240 . S
C251 O267 1.240 . S
C252 Gd241 2.818 . S
C252 C253 1.510 . S
C252 O268 1.249 . S
C252 O269 1.252 . S
C253 C252 1.510 . S
C253 C254 1.404 . S
C253 C255 1.352 . S
C254 C253 1.404 . S
C254 C258 1.389 . S
C254 H276 0.930 . S
C255 C253 1.352 . S
C255 C257 1.374 . S
C255 H277 0.931 . S
C256 C257 1.359 . S
C256 C258 1.364 . S
C257 C255 1.374 . S
C257 C256 1.359 . S
C257 H278 0.931 . S
C258 C254 1.389 . S
C258 C256 1.364 . S
C258 H279 0.931 . S
C259 O270 1.256 . S
C259 O271 1.257 . S
O260 Gd240 2.377 . S
O260 C242 1.240 . S
O261 Gd241 2.395 . S
O261 C242 1.240 . S
O262 Gd240 2.448 1_655 S
O262 C243 1.249 . S
O263 Gd240 2.506 1_655 S
O263 C243 1.252 . S
O264 Gd240 2.435 . S
O264 C250 1.256 . S
O265 Gd240 2.717 . S
O265 Gd241 2.327 . S
O265 C250 1.257 . S
O266 Gd241 2.377 . S
O266 C251 1.240 . S
O267 Gd240 2.395 . S
O267 C251 1.240 . S
O268 Gd241 2.448 . S
O268 C252 1.249 . S
O269 Gd241 2.506 . S
O269 C252 1.252 . S
O270 Gd241 2.435 . S
O270 C259 1.256 . S
O271 Gd240 2.327 . S
O271 Gd241 2.717 . S
O271 C259 1.257 . S
H272 C245 0.930 . S
H273 C246 0.931 . S
H274 C248 0.926 1_565 S
H275 C249 0.931 1_565 S
H276 C254 0.930 . S
H277 C255 0.931 . S
H278 C257 0.931 . S
H279 C258 0.931 . S
Gd280 C283 2.818 . S
Gd280 O300 2.377 . S
Gd280 O302 2.448 . S
Gd280 O303 2.506 . S
Gd280 O304 2.435 1_556 S
Gd280 O305 2.717 . S
Gd280 O307 2.395 . S
Gd280 O311 2.327 . S
Gd281 C292 2.818 1_565 S
Gd281 O301 2.395 . S
Gd281 O305 2.327 . S
Gd281 O306 2.377 . S
Gd281 O308 2.448 1_565 S
Gd281 O309 2.506 1_565 S
Gd281 O310 2.435 . S
Gd281 O311 2.717 . S
C282 O300 1.240 . S
C282 O301 1.240 . S
C283 Gd280 2.818 . S
C283 C284 1.510 . S
C283 O302 1.249 . S
C283 O303 1.252 . S
C284 C283 1.510 . S
C284 C285 1.404 1_556 S
C284 C286 1.352 . S
C285 C284 1.404 1_554 S
C285 C289 1.389 . S
C285 H312 0.930 . S
C286 C284 1.352 . S
C286 C288 1.374 . S
C286 H313 0.931 . S
C287 C288 1.359 . S
C287 C289 1.364 1_556 S
C288 C286 1.374 . S
C288 C287 1.359 . S
C288 H314 0.931 . S
C289 C285 1.389 . S
C289 C287 1.364 1_554 S
C289 H315 0.931 . S
C290 O304 1.256 . S
C290 O305 1.257 1_554 S
C291 O306 1.240 . S
C291 O307 1.240 . S
C292 Gd281 2.818 1_545 S
C292 C293 1.510 . S
C292 O308 1.249 . S
C292 O309 1.252 . S
C293 C292 1.510 . S
C293 C294 1.404 . S
C293 C295 1.352 . S
C294 C293 1.404 . S
C294 C298 1.389 . S
C294 H316 0.930 . S
C295 C293 1.352 . S
C295 C297 1.374 . S
C295 H317 0.931 . S
C296 C297 1.359 . S
C296 C298 1.364 . S
C297 C295 1.374 . S
C297 C296 1.359 . S
C297 H318 0.931 . S
C298 C294 1.389 . S
C298 C296 1.364 . S
C298 H319 0.931 . S
C299 O310 1.256 . S
C299 O311 1.257 . S
O300 Gd280 2.377 . S
O300 C282 1.240 . S
O301 Gd281 2.395 . S
O301 C282 1.240 . S
O302 Gd280 2.448 . S
O302 C283 1.249 . S
O303 Gd280 2.506 . S
O303 C283 1.252 . S
O304 Gd280 2.435 1_554 S
O304 C290 1.256 . S
O305 Gd280 2.717 . S
O305 Gd281 2.327 . S
O305 C290 1.257 1_556 S
O306 Gd281 2.377 . S
O306 C291 1.240 . S
O307 Gd280 2.395 . S
O307 C291 1.240 . S
O308 Gd281 2.448 1_545 S
O308 C292 1.249 . S
O309 Gd281 2.506 1_545 S
O309 C292 1.252 . S
O310 Gd281 2.435 . S
O310 C299 1.256 . S
O311 Gd280 2.327 . S
O311 Gd281 2.717 . S
O311 C299 1.257 . S
H312 C285 0.930 . S
H313 C286 0.931 . S
H314 C288 0.931 . S
H315 C289 0.931 . S
H316 C294 0.930 . S
H317 C295 0.931 . S
H318 C297 0.931 . S
H319 C298 0.931 . S
Gd320 C323 2.818 . S
Gd320 O340 2.377 . S
Gd320 O342 2.448 . S
Gd320 O343 2.506 . S
Gd320 O344 2.435 . S
Gd320 O345 2.717 . S
Gd320 O347 2.395 . S
Gd320 O351 2.327 . S
Gd321 C332 2.818 . S
Gd321 O341 2.395 . S
Gd321 O345 2.327 . S
Gd321 O346 2.377 . S
Gd321 O348 2.448 . S
Gd321 O349 2.506 . S
Gd321 O350 2.435 . S
Gd321 O351 2.717 . S
C322 O340 1.240 . S
C322 O341 1.240 . S
C323 Gd320 2.818 . S
C323 C324 1.510 . S
C323 O342 1.249 . S
C323 O343 1.252 . S
C324 C323 1.510 . S
C324 C325 1.404 . S
C324 C326 1.352 . S
C325 C324 1.404 . S
C325 C329 1.389 . S
C325 H352 0.930 . S
C326 C324 1.352 . S
C326 C328 1.384 . S
C326 H353 0.931 . S
C327 C328 1.354 1_455 S
C327 C329 1.364 1_455 S
C328 C326 1.384 . S
C328 C327 1.354 1_655 S
C328 H354 0.926 1_655 S
C329 C325 1.389 . S
C329 C327 1.364 1_655 S
C329 H355 0.931 1_655 S
C330 O344 1.256 . S
C330 O345 1.257 . S
C331 O346 1.240 . S
C331 O347 1.240 . S
C332 Gd321 2.818 . S
C332 C333 1.510 . S
C332 O348 1.249 . S
C332 O349 1.252 . S
C333 C332 1.510 . S
C333 C334 1.404 . S
C333 C335 1.352 . S
C334 C333 1.404 . S
C334 C338 1.389 . S
C334 H356 0.930 . S
C335 C333 1.352 . S
C335 C337 1.374 . S
C335 H357 0.931 . S
C336 C337 1.359 . S
C336 C338 1.364 . S
C337 C335 1.374 . S
C337 C336 1.359 . S
C337 H358 0.931 . S
C338 C334 1.389 . S
C338 C336 1.364 . S
C338 H359 0.931 . S
C339 O350 1.256 . S
C339 O351 1.257 . S
O340 Gd320 2.377 . S
O340 C322 1.240 . S
O341 Gd321 2.395 . S
O341 C322 1.240 . S
O342 Gd320 2.448 . S
O342 C323 1.249 . S
O343 Gd320 2.506 . S
O343 C323 1.252 . S
O344 Gd320 2.435 . S
O344 C330 1.256 . S
O345 Gd320 2.717 . S
O345 Gd321 2.327 . S
O345 C330 1.257 . S
O346 Gd321 2.377 . S
O346 C331 1.240 . S
O347 Gd320 2.395 . S
O347 C331 1.240 . S
O348 Gd321 2.448 . S
O348 C332 1.249 . S
O349 Gd321 2.506 . S
O349 C332 1.252 . S
O350 Gd321 2.435 . S
O350 C339 1.256 . S
O351 Gd320 2.327 . S
O351 Gd321 2.717 . S
O351 C339 1.257 . S
H352 C325 0.930 . S
H353 C326 0.931 . S
H354 C328 0.926 1_455 S
H355 C329 0.931 1_455 S
H356 C334 0.930 . S
H357 C335 0.931 . S
H358 C337 0.931 . S
H359 C338 0.931 . S
Gd360 C363 2.818 . S
Gd360 O380 2.377 . S
Gd360 O382 2.448 . S
Gd360 O383 2.506 . S
Gd360 O384 2.435 1_556 S
Gd360 O385 2.717 . S
Gd360 O387 2.395 . S
Gd360 O391 2.327 . S
Gd361 C372 2.818 1_455 S
Gd361 O381 2.395 . S
Gd361 O385 2.327 . S
Gd361 O386 2.377 . S
Gd361 O388 2.448 1_455 S
Gd361 O389 2.506 1_455 S
Gd361 O390 2.435 . S
Gd361 O391 2.717 . S
C362 O380 1.240 . S
C362 O381 1.240 . S
C363 Gd360 2.818 . S
C363 C364 1.510 . S
C363 O382 1.249 . S
C363 O383 1.252 . S
C364 C363 1.510 . S
C364 C365 1.404 1_556 S
C364 C366 1.352 . S
C365 C364 1.404 1_554 S
C365 C369 1.389 . S
C365 H392 0.930 . S
C366 C364 1.352 . S
C366 C368 1.374 . S
C366 H393 0.931 . S
C367 C368 1.359 . S
C367 C369 1.364 1_556 S
C368 C366 1.374 . S
C368 C367 1.359 . S
C368 H394 0.931 . S
C369 C365 1.389 . S
C369 C367 1.364 1_554 S
C369 H395 0.931 . S
C370 O384 1.256 . S
C370 O385 1.257 1_554 S
C371 O386 1.240 . S
C371 O387 1.240 . S
C372 Gd361 2.818 1_655 S
C372 C373 1.510 . S
C372 O388 1.249 . S
C372 O389 1.252 . S
C373 C372 1.510 . S
C373 C374 1.404 . S
C373 C375 1.352 . S
C374 C373 1.404 . S
C374 C378 1.389 . S
C374 H396 0.930 . S
C375 C373 1.352 . S
C375 C377 1.381 . S
C375 H397 0.931 . S
C376 C377 1.357 1_565 S
C376 C378 1.364 1_565 S
C377 C375 1.381 . S
C377 C376 1.357 1_545 S
C377 H398 0.926 1_545 S
C378 C374 1.389 . S
C378 C376 1.364 1_545 S
C378 H399 0.931 1_545 S
C379 O390 1.256 . S
C379 O391 1.257 . S
O380 Gd360 2.377 . S
O380 C362 1.240 . S
O381 Gd361 2.395 . S
O381 C362 1.240 . S
O382 Gd360 2.448 . S
O382 C363 1.249 . S
O383 Gd360 2.506 . S
O383 C363 1.252 . S
O384 Gd360 2.435 1_554 S
O384 C370 1.256 . S
O385 Gd360 2.717 . S
O385 Gd361 2.327 . S
O385 C370 1.257 1_556 S
O386 Gd361 2.377 . S
O386 C371 1.240 . S
O387 Gd360 2.395 . S
O387 C371 1.240 . S
O388 Gd361 2.448 1_655 S
O388 C372 1.249 . S
O389 Gd361 2.506 1_655 S
O389 C372 1.252 . S
O390 Gd361 2.435 . S
O390 C379 1.256 . S
O391 Gd360 2.327 . S
O391 Gd361 2.717 . S
O391 C379 1.257 . S
H392 C365 0.930 . S
H393 C366 0.931 . S
H394 C368 0.931 . S
H395 C369 0.931 . S
H396 C374 0.930 . S
H397 C375 0.931 . S
H398 C377 0.926 1_565 S
H399 C378 0.931 1_565 S
Gd400 C403 2.818 1_565 S
Gd400 O420 2.377 . S
Gd400 O422 2.448 1_565 S
Gd400 O423 2.506 1_565 S
Gd400 O424 2.435 . S
Gd400 O425 2.717 . S
Gd400 O427 2.395 . S
Gd400 O431 2.327 . S
Gd401 C412 2.818 . S
Gd401 O421 2.395 . S
Gd401 O425 2.327 . S
Gd401 O426 2.377 . S
Gd401 O428 2.448 . S
Gd401 O429 2.506 . S
Gd401 O430 2.435 . S
Gd401 O431 2.717 . S
C402 O420 1.240 . S
C402 O421 1.240 . S
C403 Gd400 2.818 1_545 S
C403 C404 1.510 . S
C403 O422 1.249 . S
C403 O423 1.252 . S
C404 C403 1.510 . S
C404 C405 1.404 . S
C404 C406 1.352 . S
C405 C404 1.404 . S
C405 C409 1.389 . S
C405 H432 0.930 . S
C406 C404 1.352 . S
C406 C408 1.374 . S
C406 H433 0.931 . S
C407 C408 1.359 . S
C407 C409 1.364 . S
C408 C406 1.374 . S
C408 C407 1.359 . S
C408 H434 0.931 . S
C409 C405 1.389 . S
C409 C407 1.364 . S
C409 H435 0.931 . S
C410 O424 1.256 . S
C410 O425 1.257 . S
C411 O426 1.240 . S
C411 O427 1.240 . S
C412 Gd401 2.818 . S
C412 C413 1.510 . S
C412 O428 1.249 . S
C412 O429 1.252 . S
C413 C412 1.510 . S
C413 C414 1.404 . S
C413 C415 1.352 . S
C414 C413 1.404 . S
C414 C418 1.389 . S
C414 H436 0.930 . S
C415 C413 1.352 . S
C415 C417 1.374 . S
C415 H437 0.931 . S
C416 C417 1.359 . S
C416 C418 1.364 . S
C417 C415 1.374 . S
C417 C416 1.359 . S
C417 H438 0.931 . S
C418 C414 1.389 . S
C418 C416 1.364 . S
C418 H439 0.931 . S
C419 O430 1.256 . S
C419 O431 1.257 . S
O420 Gd400 2.377 . S
O420 C402 1.240 . S
O421 Gd401 2.395 . S
O421 C402 1.240 . S
O422 Gd400 2.448 1_545 S
O422 C403 1.249 . S
O423 Gd400 2.506 1_545 S
O423 C403 1.252 . S
O424 Gd400 2.435 . S
O424 C410 1.256 . S
O425 Gd400 2.717 . S
O425 Gd401 2.327 . S
O425 C410 1.257 . S
O426 Gd401 2.377 . S
O426 C411 1.240 . S
O427 Gd400 2.395 . S
O427 C411 1.240 . S
O428 Gd401 2.448 . S
O428 C412 1.249 . S
O429 Gd401 2.506 . S
O429 C412 1.252 . S
O430 Gd401 2.435 . S
O430 C419 1.256 . S
O431 Gd400 2.327 . S
O431 Gd401 2.717 . S
O431 C419 1.257 . S
H432 C405 0.930 . S
H433 C406 0.931 . S
H434 C408 0.931 . S
H435 C409 0.931 . S
H436 C414 0.930 . S
H437 C415 0.931 . S
H438 C417 0.931 . S
H439 C418 0.931 . S
Gd440 C443 2.818 . S
Gd440 O460 2.377 . S
Gd440 O462 2.448 . S
Gd440 O463 2.506 . S
Gd440 O464 2.435 1_556 S
Gd440 O465 2.717 . S
Gd440 O467 2.395 . S
Gd440 O471 2.327 . S
Gd441 C452 2.818 . S
Gd441 O461 2.395 . S
Gd441 O465 2.327 . S
Gd441 O466 2.377 . S
Gd441 O468 2.448 . S
Gd441 O469 2.506 . S
Gd441 O470 2.435 . S
Gd441 O471 2.717 . S
C442 O460 1.240 . S
C442 O461 1.240 . S
C443 Gd440 2.818 . S
C443 C444 1.510 . S
C443 O462 1.249 . S
C443 O463 1.252 . S
C444 C443 1.510 . S
C444 C445 1.404 1_556 S
C444 C446 1.352 . S
C445 C444 1.404 1_554 S
C445 C449 1.389 . S
C445 H472 0.930 . S
C446 C444 1.352 . S
C446 C448 1.374 . S
C446 H473 0.931 . S
C447 C448 1.359 . S
C447 C449 1.364 1_556 S
C448 C446 1.374 . S
C448 C447 1.359 . S
C448 H474 0.931 . S
C449 C445 1.389 . S
C449 C447 1.364 1_554 S
C449 H475 0.931 . S
C450 O464 1.256 . S
C450 O465 1.257 1_554 S
C451 O466 1.240 . S
C451 O467 1.240 . S
C452 Gd441 2.818 . S
C452 C453 1.510 . S
C452 O468 1.249 . S
C452 O469 1.252 . S
C453 C452 1.510 . S
C453 C454 1.404 . S
C453 C455 1.352 . S
C454 C453 1.404 . S
C454 C458 1.389 . S
C454 H476 0.930 . S
C455 C453 1.352 . S
C455 C457 1.384 . S
C455 H477 0.931 . S
C456 C457 1.354 1_455 S
C456 C458 1.364 1_455 S
C457 C455 1.384 . S
C457 C456 1.354 1_655 S
C457 H478 0.926 1_655 S
C458 C454 1.389 . S
C458 C456 1.364 1_655 S
C458 H479 0.931 1_655 S
C459 O470 1.256 . S
C459 O471 1.257 . S
O460 Gd440 2.377 . S
O460 C442 1.240 . S
O461 Gd441 2.395 . S
O461 C442 1.240 . S
O462 Gd440 2.448 . S
O462 C443 1.249 . S
O463 Gd440 2.506 . S
O463 C443 1.252 . S
O464 Gd440 2.435 1_554 S
O464 C450 1.256 . S
O465 Gd440 2.717 . S
O465 Gd441 2.327 . S
O465 C450 1.257 1_556 S
O466 Gd441 2.377 . S
O466 C451 1.240 . S
O467 Gd440 2.395 . S
O467 C451 1.240 . S
O468 Gd441 2.448 . S
O468 C452 1.249 . S
O469 Gd441 2.506 . S
O469 C452 1.252 . S
O470 Gd441 2.435 . S
O470 C459 1.256 . S
O471 Gd440 2.327 . S
O471 Gd441 2.717 . S
O471 C459 1.257 . S
H472 C445 0.930 . S
H473 C446 0.931 . S
H474 C448 0.931 . S
H475 C449 0.931 . S
H476 C454 0.930 . S
H477 C455 0.931 . S
H478 C457 0.926 1_455 S
H479 C458 0.931 1_455 S
C96 C11 1.937 . S
C127 C42 1.937 . S
C91 C176 1.937 . S
C122 C207 1.937 . S
C16 C171 1.937 . S
C47 C202 1.937 . S
C407 C242 1.937 . S
C291 C456 1.937 . S
C322 C247 1.937 . S
C371 C296 1.937 . S
C402 C327 1.937 . S
C376 C451 1.937 . S
C130 C19 1.703 . S
C50 C179 1.703 . S
C99 C210 1.703 . S
C250 C379 1.703 . S
C299 C410 1.703 . S
C330 C459 1.703 . S
C290 C10 4.975 1_564 S
C59 C339 4.975 . S
C370 C90 4.975 1_454 S
C139 C419 4.975 1_545 S
C170 C450 4.975 1_556 S
C259 C219 4.975 1_455 S
C87 C2 2.746 . S
C51 C136 2.746 . S
C82 C167 2.746 . S
C131 C216 2.746 . S
C7 C162 2.746 . S
C56 C211 2.746 . S
C416 C251 2.746 . S
C282 C447 2.746 . S
C331 C256 2.746 . S
C287 C362 2.746 . S
C411 C336 2.746 . S
C442 C367 2.746 . S
