# Generated by pormake.
# Topology srs, (3)-cn, num edge types: 1
# Building blocks:
#     Node 0, Type 0, BuildingBlock: WUSLED_clean_sbu_0, # of connection points: 3
#     Node 1, Type 0, BuildingBlock: WUSLED_clean_sbu_0, # of connection points: 3
#     Node 2, Type 0, BuildingBlock: WUSLED_clean_sbu_0, # of connection points: 3
#     Node 3, Type 0, BuildingBlock: WUSLED_clean_sbu_0, # of connection points: 3
#     Node 4, Type 0, BuildingBlock: WUSLED_clean_sbu_0, # of connection points: 3
#     Node 5, Type 0, BuildingBlock: WUSLED_clean_sbu_0, # of connection points: 3
#     Node 6, Type 0, BuildingBlock: WUSLED_clean_sbu_0, # of connection points: 3
#     Node 7, Type 0, BuildingBlock: WUSLED_clean_sbu_0, # of connection points: 3
#     Edge 8, Type (0, 0), BuildingBlock: CIFDUS_clean_linker_0, # of connection points: 2
#     Edge 9, Type (0, 0), BuildingBlock: CIFDUS_clean_linker_0, # of connection points: 2
#     Edge 10, Type (0, 0), BuildingBlock: CIFDUS_clean_linker_0, # of connection points: 2
#     Edge 11, Type (0, 0), BuildingBlock: CIFDUS_clean_linker_0, # of connection points: 2
#     Edge 12, Type (0, 0), BuildingBlock: CIFDUS_clean_linker_0, # of connection points: 2
#     Edge 13, Type (0, 0), BuildingBlock: CIFDUS_clean_linker_0, # of connection points: 2
#     Edge 14, Type (0, 0), BuildingBlock: CIFDUS_clean_linker_0, # of connection points: 2
#     Edge 15, Type (0, 0), BuildingBlock: CIFDUS_clean_linker_0, # of connection points: 2
#     Edge 16, Type (0, 0), BuildingBlock: CIFDUS_clean_linker_0, # of connection points: 2
#     Edge 17, Type (0, 0), BuildingBlock: CIFDUS_clean_linker_0, # of connection points: 2
#     Edge 18, Type (0, 0), BuildingBlock: CIFDUS_clean_linker_0, # of connection points: 2
#     Edge 19, Type (0, 0), BuildingBlock: CIFDUS_clean_linker_0, # of connection points: 2
# Relax obj value: 0.000
# Max RMSD: 0.008
# Mean RMSD: 0.008
data_MOF--net-srs--node1-WUSLED_clean_sbu_0--edge1-CIFDUS_clean_linker_0
_symmetry_space_group_name_H-M    P1
_symmetry_Int_Tables_number       1
_symmetry_cell_setting            triclinic
loop_
_symmetry_equiv_pos_as_xyz
'x, y, z'
_cell_length_a     59.342821
_cell_length_b     59.467327
_cell_length_c     59.166932
_cell_angle_alpha  89.950921
_cell_angle_beta   89.858685
_cell_angle_gamma 89.656596
loop_
_atom_site_label
_atom_site_type_symbol
_atom_site_fract_x
_atom_site_fract_y
_atom_site_fract_z
_atom_type_partial_charge
C0 C 0.12896 0.11341 0.20504 0.0
C1 C 0.14322 0.09574 0.19826 0.0
C2 C 0.13346 0.07452 0.23224 0.0
C3 C 0.14541 0.07643 0.21172 0.0
C4 C 0.11938 0.09244 0.23898 0.0
C5 C 0.11717 0.11166 0.22551 0.0
U6 U 0.14555 0.1523 0.15582 0.0
O7 O 0.12392 0.17105 0.13214 0.0
O8 O 0.14665 0.18933 0.15476 0.0
C9 C 0.13024 0.19074 0.13993 0.0
C10 C 0.12596 0.13371 0.19104 0.0
C11 C 0.11222 0.20728 0.14509 0.0
C12 C 0.07303 0.21709 0.15295 0.0
C13 C 0.08975 0.20082 0.14886 0.0
C14 C 0.10099 0.24641 0.14986 0.0
C15 C 0.07846 0.2401 0.15353 0.0
C16 C 0.11762 0.2302 0.14564 0.0
C17 C 0.19635 0.13767 0.11818 0.0
C18 C 0.20821 0.16071 0.08637 0.0
C19 C 0.23058 0.12836 0.09748 0.0
C20 C 0.21524 0.12381 0.11486 0.0
C21 C 0.22733 0.14692 0.08303 0.0
C22 C 0.19287 0.15614 0.10381 0.0
C23 C 0.18079 0.13284 0.13699 0.0
O24 O 0.14189 0.14886 0.19272 0.0
O25 O 0.11943 0.13032 0.17011 0.0
O26 O 0.15991 0.12829 0.13131 0.0
O27 O 0.18218 0.14644 0.15441 0.0
H28 H 0.15257 0.09685 0.18255 0.0
H29 H 0.15657 0.06306 0.20613 0.0
H30 H 0.10968 0.09144 0.25448 0.0
H31 H 0.10606 0.12512 0.231 0.0
H32 H 0.05589 0.21166 0.15594 0.0
H33 H 0.08508 0.18325 0.1486 0.0
H34 H 0.10573 0.26397 0.14989 0.0
H35 H 0.13478 0.2356 0.14263 0.0
H36 H 0.20502 0.17498 0.07543 0.0
H37 H 0.24525 0.11759 0.09569 0.0
H38 H 0.21825 0.10955 0.12588 0.0
H39 H 0.17835 0.16704 0.10613 0.0
C40 C 0.12864 0.93708 0.35222 0.0
C41 C 0.14386 0.95404 0.35815 0.0
C42 C 0.13374 0.97536 0.32432 0.0
C43 C 0.14637 0.97303 0.34434 0.0
C44 C 0.11879 0.95808 0.31835 0.0
C45 C 0.11628 0.93916 0.33218 0.0
U46 U 0.14447 0.89909 0.40237 0.0
O47 O 0.1224 0.8829 0.4275 0.0
O48 O 0.1436 0.86223 0.4052 0.0
C49 C 0.1276 0.86252 0.4206 0.0
C50 C 0.12503 0.91738 0.36688 0.0
C51 C 0.10842 0.84738 0.41663 0.0
C52 C 0.07959 0.83166 0.39221 0.0
C53 C 0.09744 0.8466 0.39566 0.0
C54 C 0.08329 0.81842 0.43075 0.0
C55 C 0.07236 0.81727 0.40969 0.0
C56 C 0.10113 0.8333 0.43414 0.0
C57 C 0.19638 0.91286 0.4384 0.0
C58 C 0.23005 0.92294 0.45931 0.0
C59 C 0.20894 0.88985 0.47002 0.0
C60 C 0.19353 0.89418 0.4526 0.0
C61 C 0.22747 0.90414 0.47354 0.0
C62 C 0.21466 0.92722 0.44193 0.0
C63 C 0.18078 0.91747 0.41962 0.0
O64 O 0.14029 0.90133 0.36543 0.0
O65 O 0.11898 0.92181 0.3878 0.0
O66 O 0.1602 0.92344 0.4254 0.0
O67 O 0.18133 0.9029 0.40293 0.0
H68 H 0.15365 0.95267 0.37354 0.0
H69 H 0.15821 0.98588 0.34933 0.0
H70 H 0.10859 0.95942 0.30325 0.0
H71 H 0.10441 0.92625 0.32735 0.0
H72 H 0.07173 0.83111 0.37572 0.0
H73 H 0.1028 0.8574 0.38192 0.0
H74 H 0.07797 0.80792 0.44471 0.0
H75 H 0.10931 0.83376 0.45049 0.0
H76 H 0.24427 0.9341 0.46125 0.0
H77 H 0.20627 0.87538 0.48079 0.0
H78 H 0.17947 0.88291 0.45014 0.0
H79 H 0.21717 0.94168 0.43108 0.0
C80 C 0.38263 0.95327 0.68848 0.0
C81 C 0.375 0.94767 0.7103 0.0
C82 C 0.38711 0.98406 0.7248 0.0
C83 C 0.37726 0.96286 0.72823 0.0
C84 C 0.39497 0.98953 0.70304 0.0
C85 C 0.39267 0.97438 0.68511 0.0
U86 U 0.39696 0.90241 0.65002 0.0
O87 O 0.37427 0.87826 0.63368 0.0
O88 O 0.3957 0.9 0.6129 0.0
C89 C 0.37945 0.88509 0.61319 0.0
C90 C 0.37863 0.93815 0.6689 0.0
C91 C 0.3603 0.88976 0.59807 0.0
C92 C 0.34085 0.88238 0.56277 0.0
C93 C 0.35879 0.87822 0.57751 0.0
C94 C 0.32557 0.90974 0.58904 0.0
C95 C 0.32398 0.8982 0.56831 0.0
C96 C 0.34359 0.90557 0.60379 0.0
C97 C 0.44874 0.86528 0.66272 0.0
C98 C 0.46814 0.84078 0.63599 0.0
C99 C 0.47643 0.83799 0.67596 0.0
C100 C 0.46073 0.85509 0.6804 0.0
C101 C 0.48054 0.83081 0.65366 0.0
C102 C 0.45232 0.8578 0.64048 0.0
C103 C 0.43329 0.88416 0.66778 0.0
O104 O 0.39328 0.9392 0.65222 0.0
O105 O 0.37218 0.91748 0.67336 0.0
O106 O 0.41276 0.87871 0.67401 0.0
O107 O 0.4338 0.90114 0.65354 0.0
H108 H 0.36697 0.93168 0.71352 0.0
H109 H 0.37122 0.95799 0.74481 0.0
H110 H 0.40233 1.00582 0.69968 0.0
H111 H 0.39836 0.97942 0.66846 0.0
H112 H 0.34042 0.87346 0.54683 0.0
H113 H 0.37159 0.86603 0.57277 0.0
H114 H 0.3128 0.92186 0.59398 0.0
H115 H 0.34447 0.91465 0.61963 0.0
H116 H 0.47069 0.83544 0.61867 0.0
H117 H 0.48583 0.83086 0.68992 0.0
H118 H 0.45822 0.86064 0.69767 0.0
H119 H 0.44313 0.86533 0.62657 0.0
C120 C 0.37339 0.10193 0.8643 0.0
C121 C 0.3931 0.08976 0.85897 0.0
C122 C 0.37368 0.07061 0.82821 0.0
C123 C 0.39324 0.07427 0.8411 0.0
C124 C 0.35424 0.08336 0.83321 0.0
C125 C 0.3541 0.09874 0.85106 0.0
U126 U 0.39228 0.15143 0.90247 0.0
O127 O 0.37104 0.17594 0.92064 0.0
O128 O 0.39313 0.15314 0.93964 0.0
C129 C 0.37705 0.1684 0.94063 0.0
C130 C 0.37183 0.11676 0.88436 0.0
C131 C 0.35845 0.16349 0.95638 0.0
C132 C 0.32482 0.14259 0.96661 0.0
C133 C 0.34233 0.14707 0.95136 0.0
C134 C 0.33934 0.17091 0.99202 0.0
C135 C 0.3231 0.15444 0.98717 0.0
C136 C 0.35682 0.17537 0.97676 0.0
C137 C 0.44331 0.18783 0.88652 0.0
C138 C 0.46123 0.2148 0.91152 0.0
C139 C 0.47179 0.21331 0.87198 0.0
C140 C 0.45634 0.19597 0.86854 0.0
C141 C 0.47457 0.22288 0.89355 0.0
C142 C 0.44573 0.19745 0.90803 0.0
C143 C 0.42756 0.16919 0.88244 0.0
O144 O 0.38781 0.11486 0.89962 0.0
O145 O 0.36566 0.1377 0.88061 0.0
O146 O 0.40671 0.17505 0.87771 0.0
O147 O 0.42888 0.15215 0.89657 0.0
H148 H 0.40826 0.09181 0.86889 0.0
H149 H 0.40846 0.06466 0.83786 0.0
H150 H 0.339 0.08133 0.82341 0.0
H151 H 0.33869 0.10789 0.85481 0.0
H152 H 0.3125 0.12998 0.96219 0.0
H153 H 0.34331 0.13774 0.93566 0.0
H154 H 0.3388 0.18011 1.0078 0.0
H155 H 0.36916 0.18805 0.98095 0.0
H156 H 0.46305 0.22159 0.92839 0.0
H157 H 0.48143 0.21933 0.85767 0.0
H158 H 0.45462 0.18885 0.85179 0.0
H159 H 0.43578 0.19141 0.92214 0.0
C160 C 0.6314 0.43348 0.84839 0.0
C161 C 0.6347 0.45515 0.85722 0.0
C162 C 0.63586 0.47091 0.81907 0.0
C163 C 0.63687 0.47367 0.84271 0.0
C164 C 0.63302 0.44908 0.81038 0.0
C165 C 0.63076 0.43064 0.82488 0.0
U166 U 0.6459 0.3954 0.89933 0.0
O167 O 0.62334 0.37744 0.92265 0.0
O168 O 0.64679 0.35838 0.90113 0.0
C169 C 0.62985 0.35751 0.91545 0.0
C170 C 0.62785 0.4137 0.86314 0.0
C171 C 0.61198 0.34108 0.91013 0.0
C172 C 0.57288 0.33153 0.90219 0.0
C173 C 0.5895 0.34769 0.90629 0.0
C174 C 0.60097 0.30202 0.90539 0.0
C175 C 0.57844 0.30848 0.90168 0.0
C176 C 0.6175 0.31812 0.90962 0.0
C177 C 0.69577 0.40975 0.93801 0.0
C178 C 0.7142 0.38346 0.96362 0.0
C179 C 0.72387 0.42296 0.96467 0.0
C180 C 0.70833 0.42728 0.94742 0.0
C181 C 0.72722 0.40095 0.9728 0.0
C182 C 0.69857 0.38784 0.94642 0.0
C183 C 0.68063 0.41452 0.91884 0.0
O184 O 0.64354 0.39803 0.86225 0.0
O185 O 0.62049 0.41758 0.88377 0.0
O186 O 0.65962 0.4195 0.92399 0.0
O187 O 0.68242 0.40077 0.90154 0.0
H188 H 0.63531 0.45785 0.87531 0.0
H189 H 0.63881 0.49022 0.85004 0.0
H190 H 0.63259 0.4462 0.79232 0.0
H191 H 0.62831 0.41408 0.81768 0.0
H192 H 0.55574 0.33708 0.89917 0.0
H193 H 0.58473 0.36529 0.90654 0.0
H194 H 0.6058 0.28442 0.90542 0.0
H195 H 0.63466 0.3126 0.91269 0.0
H196 H 0.71614 0.36638 0.96968 0.0
H197 H 0.73375 0.43677 0.97115 0.0
H198 H 0.70643 0.4443 0.94111 0.0
H199 H 0.68894 0.37407 0.93947 0.0
C200 C 0.87787 0.45128 0.19063 0.0
C201 C 0.8643 0.47046 0.19328 0.0
C202 C 0.88358 0.47983 0.22835 0.0
C203 C 0.86711 0.48461 0.21192 0.0
C204 C 0.89733 0.46063 0.22549 0.0
C205 C 0.89451 0.44649 0.20677 0.0
U206 U 0.89251 0.40002 0.15363 0.0
O207 O 0.86958 0.3756 0.13787 0.0
O208 O 0.89149 0.39646 0.11665 0.0
C209 C 0.8748 0.38202 0.11726 0.0
C210 C 0.87403 0.43634 0.17119 0.0
C211 C 0.85557 0.38665 0.10208 0.0
C212 C 0.8316 0.41251 0.08096 0.0
C213 C 0.84947 0.40868 0.09595 0.0
C214 C 0.82536 0.3724 0.07843 0.0
C215 C 0.81934 0.39441 0.07191 0.0
C216 C 0.84329 0.3686 0.09329 0.0
C217 C 0.94349 0.36248 0.16864 0.0
C218 C 0.96128 0.33502 0.14376 0.0
C219 C 0.97144 0.33627 0.18335 0.0
C220 C 0.95619 0.35399 0.1867 0.0
C221 C 0.97437 0.32667 0.1618 0.0
C222 C 0.94596 0.35275 0.14716 0.0
C223 C 0.92827 0.38179 0.17256 0.0
O224 O 0.88937 0.43692 0.15514 0.0
O225 O 0.8675 0.41584 0.17614 0.0
O226 O 0.90755 0.37691 0.17863 0.0
O227 O 0.92929 0.39813 0.15761 0.0
H228 H 0.85132 0.47438 0.18102 0.0
H229 H 0.856 0.49901 0.21372 0.0
H230 H 0.91032 0.45657 0.23768 0.0
H231 H 0.90519 0.43175 0.20496 0.0
H232 H 0.82768 0.42967 0.07617 0.0
H233 H 0.85862 0.42293 0.10255 0.0
H234 H 0.8161 0.35806 0.07219 0.0
H235 H 0.84764 0.35147 0.09789 0.0
H236 H 0.96322 0.3282 0.1269 0.0
H237 H 0.98089 0.33004 0.19771 0.0
H238 H 0.95443 0.3612 0.20343 0.0
H239 H 0.93628 0.35905 0.13298 0.0
C240 C 0.87907 0.60154 0.36427 0.0
C241 C 0.86884 0.58036 0.36381 0.0
C242 C 0.88355 0.57349 0.32591 0.0
C243 C 0.87107 0.56646 0.34486 0.0
C244 C 0.89408 0.59465 0.32658 0.0
C245 C 0.89191 0.60853 0.34561 0.0
U246 U 0.89618 0.65009 0.40352 0.0
O247 O 0.87482 0.67571 0.42005 0.0
O248 O 0.89456 0.65208 0.4406 0.0
C249 C 0.87924 0.66814 0.44045 0.0
C250 C 0.87566 0.61614 0.38413 0.0
C251 C 0.85958 0.66458 0.45527 0.0
C252 C 0.82847 0.64166 0.46873 0.0
C253 C 0.8467 0.6449 0.45399 0.0
C254 C 0.83562 0.67786 0.48591 0.0
C255 C 0.82278 0.65805 0.485 0.0
C256 C 0.85382 0.68106 0.47121 0.0
C257 C 0.95088 0.68303 0.39139 0.0
C258 C 0.96148 0.72134 0.40121 0.0
C259 C 0.9904 0.69332 0.39413 0.0
C260 C 0.97379 0.67729 0.38993 0.0
C261 C 0.98448 0.71555 0.39981 0.0
C262 C 0.94482 0.70521 0.39714 0.0
C263 C 0.9339 0.66563 0.38633 0.0
O264 O 0.8903 0.61365 0.40059 0.0
O265 O 0.87075 0.63732 0.37988 0.0
O266 O 0.91383 0.67264 0.37995 0.0
O267 O 0.93316 0.64856 0.40042 0.0
H268 H 0.85885 0.57467 0.37804 0.0
H269 H 0.8625 0.55043 0.34485 0.0
H270 H 0.90403 0.60048 0.31239 0.0
H271 H 0.90008 0.62477 0.34569 0.0
H272 H 0.81912 0.62612 0.46767 0.0
H273 H 0.85089 0.63198 0.44176 0.0
H274 H 0.83152 0.69101 0.49792 0.0
H275 H 0.86349 0.69641 0.47237 0.0
H276 H 0.95636 0.73825 0.40576 0.0
H277 H 1.00792 0.68835 0.39259 0.0
H278 H 0.97888 0.66035 0.3854 0.0
H279 H 0.92725 0.71009 0.39846 0.0
C280 C 0.62419 0.60788 0.69858 0.0
C281 C 0.64494 0.59914 0.70607 0.0
C282 C 0.62553 0.5691 0.72631 0.0
C283 C 0.64559 0.57996 0.71989 0.0
C284 C 0.60487 0.57792 0.71862 0.0
C285 C 0.60424 0.59708 0.70495 0.0
U286 U 0.64485 0.64874 0.65205 0.0
O287 O 0.62454 0.66709 0.6268 0.0
O288 O 0.64432 0.68571 0.65177 0.0
C289 C 0.62908 0.68678 0.6357 0.0
C290 C 0.62264 0.62845 0.68464 0.0
C291 C 0.60949 0.70171 0.6399 0.0
C292 C 0.58406 0.72162 0.66543 0.0
C293 C 0.60216 0.7068 0.66192 0.0
C294 C 0.57996 0.72609 0.62498 0.0
C295 C 0.57274 0.73156 0.647 0.0
C296 C 0.59815 0.71139 0.6215 0.0
C297 C 0.69977 0.63647 0.61898 0.0
C298 C 0.71128 0.64953 0.58166 0.0
C299 C 0.73939 0.63664 0.60836 0.0
C300 C 0.72244 0.63224 0.62417 0.0
C301 C 0.73406 0.64531 0.58688 0.0
C302 C 0.69429 0.64524 0.59759 0.0
C303 C 0.68236 0.63114 0.63605 0.0
O304 O 0.63783 0.64404 0.68827 0.0
O305 O 0.61827 0.62541 0.6631 0.0
O306 O 0.66225 0.62587 0.62847 0.0
O307 O 0.6817 0.64433 0.65386 0.0
H308 H 0.66059 0.60716 0.7013 0.0
H309 H 0.66178 0.57348 0.72534 0.0
H310 H 0.58909 0.57021 0.72347 0.0
H311 H 0.58806 0.6036 0.69946 0.0
H312 H 0.57922 0.7256 0.68263 0.0
H313 H 0.61055 0.69951 0.67644 0.0
H314 H 0.57146 0.73304 0.61036 0.0
H315 H 0.60344 0.70763 0.60436 0.0
H316 H 0.70663 0.65641 0.56536 0.0
H317 H 0.7567 0.63292 0.61286 0.0
H318 H 0.72705 0.62539 0.64051 0.0
H319 H 0.67691 0.64874 0.59318 0.0
H320 H 0.13495 0.97827 0.27821 0.0
H321 H 0.13635 1.01905 0.33849 0.0
H322 H 0.13738 0.05309 0.31544 0.0
H323 H 0.1365 0.07145 0.2782 0.0
H324 H 0.13404 0.03075 0.21792 0.0
H325 H 0.1349 0.99663 0.24091 0.0
C326 C 0.1354 0.9946 0.28632 0.0
C327 C 0.13551 0.99602 0.3101 0.0
C328 C 0.13579 1.01419 0.27295 0.0
C329 C 0.1365 1.01737 0.32026 0.0
C330 C 0.13693 0.0369 0.30708 0.0
C331 C 0.13605 0.05512 0.27008 0.0
C332 C 0.13511 0.05374 0.24632 0.0
C333 C 0.13636 0.03552 0.28342 0.0
C334 C 0.13499 0.03238 0.23612 0.0
C335 C 0.13533 1.01282 0.24928 0.0
H336 H 0.24826 0.93389 0.50176 0.0
H337 H 0.24494 0.86319 0.48578 0.0
H338 H 0.27363 0.85506 0.51416 0.0
H339 H 0.30052 0.86807 0.54277 0.0
H340 H 0.30492 0.93894 0.55771 0.0
H341 H 0.27497 0.94688 0.5306 0.0
C342 C 0.25389 0.91671 0.50437 0.0
C343 C 0.2444 0.89921 0.49154 0.0
C344 C 0.27063 0.91215 0.52058 0.0
C345 C 0.25167 0.87699 0.49553 0.0
C346 C 0.26823 0.87233 0.51168 0.0
C347 C 0.29506 0.88529 0.54001 0.0
C348 C 0.3051 0.90286 0.5523 0.0
C349 C 0.27796 0.88979 0.52417 0.0
C350 C 0.2974 0.92501 0.54875 0.0
C351 C 0.28034 0.9296 0.5331 0.0
H352 H 0.35524 0.9938 0.75666 0.0
H353 H 0.42223 1.01197 0.73514 0.0
H354 H 0.42409 0.04021 0.76505 0.0
H355 H 0.40641 0.06025 0.79705 0.0
H356 H 0.33973 0.04122 0.8189 0.0
H357 H 0.3381 1.01292 0.7892 0.0
C358 C 0.37038 1.00372 0.75867 0.0
C359 C 0.38856 1.0007 0.74361 0.0
C360 C 0.37136 1.01993 0.77593 0.0
C361 C 0.40787 1.01406 0.74628 0.0
C362 C 0.40899 0.03017 0.76347 0.0
C363 C 0.3916 0.04978 0.79546 0.0
C364 C 0.37316 0.05308 0.81017 0.0
C365 C 0.39079 0.03334 0.77834 0.0
C366 C 0.35402 0.03944 0.80762 0.0
C367 C 0.35312 1.02309 0.7907 0.0
H368 H 0.24955 0.1174 0.05528 0.0
H369 H 0.24307 0.18821 0.07011 0.0
H370 H 0.27136 0.19678 0.04141 0.0
H371 H 0.29866 0.1842 1.0127 0.0
H372 H 0.30619 0.11328 0.99892 0.0
H373 H 0.27681 0.10482 1.02654 0.0
C374 C 0.25442 0.13471 0.05237 0.0
C375 C 0.24413 0.1521 0.06495 0.0
C376 C 0.27092 0.13954 0.03598 0.0
C377 C 0.25042 0.17446 0.06055 0.0
C378 C 0.26675 0.1794 0.04422 0.0
C379 C 0.29402 0.16686 1.01583 0.0
C380 C 0.30474 0.14942 1.00369 0.0
C381 C 0.27723 0.16206 0.03194 0.0
C382 C 0.29811 0.1271 1.00775 0.0
C383 C 0.28138 0.12221 1.02368 0.0
H384 H 1.01652 0.32303 0.17979 0.0
H385 H 0.97032 0.28891 0.13546 0.0
H386 H 0.99815 0.25909 0.12921 0.0
H387 H 0.03587 0.24277 0.1361 0.0
H388 H 0.08157 0.2768 0.181 0.0
H389 H 0.0536 0.30637 0.18741 0.0
C390 C 1.01238 0.30895 0.16897 0.0
C391 C 0.99126 0.3083 0.15815 0.0
C392 C 0.02842 0.29178 0.16553 0.0
C393 C 0.98648 0.29007 0.14382 0.0
C394 C 1.00236 0.2729 0.14034 0.0
C395 C 0.03961 0.25654 0.14747 0.0
C396 C 0.06087 0.25756 0.15798 0.0
C397 C 0.02341 0.27358 0.15108 0.0
C398 C 0.0655 0.27571 0.17244 0.0
C399 C 0.04947 0.29261 0.1762 0.0
H400 H 0.5169 0.22594 0.87572 0.0
H401 H 0.47031 0.26073 0.91978 0.0
H402 H 0.49804 0.29029 0.92598 0.0
H403 H 0.53574 0.30624 0.91907 0.0
H404 H 0.58185 0.27158 0.87441 0.0
H405 H 0.55402 0.24222 0.86812 0.0
C406 C 0.51266 0.24011 0.88648 0.0
C407 C 0.49146 0.24103 0.89724 0.0
C408 C 0.52864 0.25714 0.88988 0.0
C409 C 0.48655 0.25936 0.91148 0.0
C410 C 0.50236 0.27639 0.91493 0.0
C411 C 0.53961 0.29238 0.90778 0.0
C412 C 0.56093 0.29113 0.8973 0.0
C413 C 0.52349 0.27546 0.90423 0.0
C414 C 0.56572 0.27286 0.88295 0.0
C415 C 0.54977 0.25608 0.87925 0.0
H416 H 0.06963 0.77397 0.4247 0.0
H417 H 0.03297 0.82381 0.38626 0.0
H418 H 1.00254 0.79702 0.38004 0.0
H419 H 0.98636 0.75922 0.38532 0.0
H420 H 1.02295 0.70985 0.4244 0.0
H421 H 0.05317 0.73673 0.43075 0.0
C422 C 0.05488 0.77911 0.41518 0.0
C423 C 0.05368 0.80095 0.406 0.0
C424 C 0.03736 0.76367 0.41177 0.0
C425 C 0.03456 0.80706 0.39332 0.0
C426 C 1.01705 0.79178 0.38987 0.0
C427 C 1.00084 0.75443 0.39542 0.0
C428 C 1.00238 0.73247 0.40429 0.0
C429 C 1.01826 0.77002 0.399 0.0
C430 C 1.02143 0.7265 0.4171 0.0
C431 C 0.03871 0.7419 0.42083 0.0
H432 H 0.56292 0.76985 0.62321 0.0
H433 H 0.53951 0.72972 0.67931 0.0
H434 H 0.50912 0.75666 0.68626 0.0
H435 H 0.48912 0.79176 0.67656 0.0
H436 H 0.51208 0.83134 0.61995 0.0
H437 H 0.5422 0.80413 0.61269 0.0
C438 C 0.55101 0.76676 0.63678 0.0
C439 C 0.5537 0.74772 0.65076 0.0
C440 C 0.53334 0.7822 0.64054 0.0
C441 C 0.53822 0.74436 0.66849 0.0
C442 C 0.52068 0.75971 0.6724 0.0
C443 C 0.50076 0.79446 0.66268 0.0
C444 C 0.4983 0.81361 0.64884 0.0
C445 C 0.51814 0.77875 0.65862 0.0
C446 C 0.51337 0.81665 0.63072 0.0
C447 C 0.53072 0.80116 0.62664 0.0
H448 H 0.65111 0.56123 0.76398 0.0
H449 H 0.60067 0.53092 0.72153 0.0
H450 H 0.59946 0.49816 0.74631 0.0
H451 H 0.61185 0.47849 0.78051 0.0
H452 H 0.66297 0.50804 0.82269 0.0
H453 H 0.66462 0.5407 0.79767 0.0
C454 C 0.64005 0.54734 0.76001 0.0
C455 C 0.62591 0.54866 0.74095 0.0
C456 C 0.63941 0.52845 0.77439 0.0
C457 C 0.61149 0.53057 0.73625 0.0
C458 C 0.61085 0.51175 0.75037 0.0
C459 C 0.62361 0.49189 0.78412 0.0
C460 C 0.63726 0.49069 0.80354 0.0
C461 C 0.6246 0.51057 0.76957 0.0
C462 C 0.65203 0.50855 0.80808 0.0
C463 C 0.6531 0.52721 0.79368 0.0
H464 H 0.80845 0.36964 0.03461 0.0
H465 H 0.78773 0.42832 0.07242 0.0
H466 H 0.75758 0.43546 0.04533 0.0
H467 H 0.73697 0.42511 1.01081 0.0
H468 H 0.75735 0.36603 0.97352 0.0
H469 H 0.78723 0.35866 1.00087 0.0
C470 C 0.79718 0.38383 0.03716 0.0
C471 C 0.80054 0.39843 0.05559 0.0
C472 C 0.77965 0.38772 1.02164 0.0
C473 C 0.7859 0.41697 0.05825 0.0
C474 C 0.7685 0.421 0.04282 0.0
C475 C 0.748 0.41066 1.00862 0.0
C476 C 0.74486 0.39615 0.99009 0.0
C477 C 0.76527 0.40655 1.0244 0.0
C478 C 0.75915 0.37733 0.98774 0.0
C479 C 0.77637 0.37318 1.0033 0.0
H480 H 0.88177 0.52572 0.23032 0.0
H481 H 0.89034 0.46689 0.27225 0.0
H482 H 0.89211 0.4906 0.30586 0.0
H483 H 0.88974 0.52796 0.32361 0.0
H484 H 0.88012 0.58668 0.28174 0.0
H485 H 0.88029 0.56313 0.24796 0.0
C486 C 0.88394 0.51806 0.24682 0.0
C487 C 0.88583 0.49449 0.24868 0.0
C488 C 0.88473 0.5318 0.26615 0.0
C489 C 0.88906 0.48495 0.27021 0.0
C490 C 0.88992 0.4985 0.28949 0.0
C491 C 0.88761 0.53561 0.3071 0.0
C492 C 0.88486 0.5591 0.30529 0.0
C493 C 0.88754 0.52193 0.2877 0.0
C494 C 0.88252 0.56871 0.28368 0.0
C495 C 0.88246 0.55523 0.26433 0.0
H496 H 0.82129 0.66834 0.52991 0.0
H497 H 0.78138 0.63955 0.47649 0.0
H498 H 0.7504 0.63338 0.50303 0.0
H499 H 0.73468 0.63585 0.54163 0.0
H500 H 0.77462 0.66525 0.59467 0.0
H501 H 0.80536 0.67167 0.56803 0.0
C502 C 0.80573 0.66096 0.52396 0.0
C503 C 0.80375 0.65446 0.50116 0.0
C504 C 0.78792 0.65754 0.53929 0.0
C505 C 0.78355 0.64449 0.49396 0.0
C506 C 0.76574 0.64107 0.50911 0.0
C507 C 0.75002 0.64387 0.54729 0.0
C508 C 0.75232 0.64996 0.57018 0.0
C509 C 0.76773 0.6475 0.53184 0.0
C510 C 0.77246 0.6601 0.57726 0.0
C511 C 0.79005 0.66387 0.562 0.0
loop_
_geom_bond_atom_site_label_1
_geom_bond_atom_site_label_2
_geom_bond_distance
_geom_bond_site_symmetry_2
_ccdc_geom_bond_type
C0 C1 1.264 . S
C0 C5 1.479 . S
C0 C10 1.465 . S
C1 C0 1.264 . S
C1 C3 1.339 . S
C1 H28 0.931 . S
C2 C3 1.395 . S
C2 C4 1.320 . S
C3 C1 1.339 . S
C3 C2 1.395 . S
C3 H29 0.929 . S
C4 C2 1.320 . S
C4 C5 1.405 . S
C4 H30 0.930 . S
C5 C0 1.479 . S
C5 C4 1.405 . S
C5 H31 0.931 . S
U6 O7 2.454 . S
U6 O8 2.458 . S
U6 C9 2.984 . S
U6 C10 2.847 . S
U6 C23 2.882 . S
U6 O24 2.441 . S
U6 O25 2.420 . S
U6 O26 2.455 . S
U6 O27 2.449 . S
O7 U6 2.454 . S
O7 C9 1.353 . S
O8 U6 2.458 . S
O8 C9 1.286 . S
C9 U6 2.984 . S
C9 O7 1.353 . S
C9 O8 1.286 . S
C9 C11 1.363 . S
C10 C0 1.465 . S
C10 U6 2.847 . S
C10 O24 1.249 . S
C10 O25 1.202 . S
C11 C9 1.363 . S
C11 C13 1.408 . S
C11 C16 1.342 . S
C12 C13 1.310 . S
C12 C15 1.461 . S
C12 H32 0.932 . S
C13 C11 1.408 . S
C13 C12 1.310 . S
C13 H33 0.930 . S
C14 C15 1.474 . S
C14 C16 1.285 . S
C14 H34 0.929 . S
C15 C12 1.461 . S
C15 C14 1.474 . S
C16 C11 1.342 . S
C16 C14 1.285 . S
C16 H35 0.930 . S
C17 C20 1.424 . S
C17 C22 1.245 . S
C17 C23 1.428 . S
C18 C21 1.260 . S
C18 C22 1.477 . S
C18 H36 0.932 . S
C19 C20 1.384 . S
C19 C21 1.479 . S
C19 H37 0.929 . S
C20 C17 1.424 . S
C20 C19 1.384 . S
C20 H38 0.928 . S
C21 C18 1.260 . S
C21 C19 1.479 . S
C22 C17 1.245 . S
C22 C18 1.477 . S
C22 H39 0.932 . S
C23 U6 2.882 . S
C23 C17 1.428 . S
C23 O26 1.301 . S
C23 O27 1.282 . S
O24 U6 2.441 . S
O24 C10 1.249 . S
O25 U6 2.420 . S
O25 C10 1.202 . S
O26 U6 2.455 . S
O26 C23 1.301 . S
O27 U6 2.449 . S
O27 C23 1.282 . S
H28 C1 0.931 . S
H29 C3 0.929 . S
H30 C4 0.930 . S
H31 C5 0.931 . S
H32 C12 0.932 . S
H33 C13 0.930 . S
H34 C14 0.929 . S
H35 C16 0.930 . S
H36 C18 0.932 . S
H37 C19 0.929 . S
H38 C20 0.928 . S
H39 C22 0.932 . S
C40 C41 1.264 . S
C40 C45 1.479 . S
C40 C50 1.465 . S
C41 C40 1.264 . S
C41 C43 1.339 . S
C41 H68 0.931 . S
C42 C43 1.395 . S
C42 C44 1.320 . S
C43 C41 1.339 . S
C43 C42 1.395 . S
C43 H69 0.929 . S
C44 C42 1.320 . S
C44 C45 1.405 . S
C44 H70 0.930 . S
C45 C40 1.479 . S
C45 C44 1.405 . S
C45 H71 0.931 . S
U46 O47 2.454 . S
U46 O48 2.458 . S
U46 C49 2.984 . S
U46 C50 2.847 . S
U46 C63 2.882 . S
U46 O64 2.441 . S
U46 O65 2.420 . S
U46 O66 2.455 . S
U46 O67 2.449 . S
O47 U46 2.454 . S
O47 C49 1.353 . S
O48 U46 2.458 . S
O48 C49 1.286 . S
C49 U46 2.984 . S
C49 O47 1.353 . S
C49 O48 1.286 . S
C49 C51 1.363 . S
C50 C40 1.465 . S
C50 U46 2.847 . S
C50 O64 1.249 . S
C50 O65 1.202 . S
C51 C49 1.363 . S
C51 C53 1.408 . S
C51 C56 1.342 . S
C52 C53 1.310 . S
C52 C55 1.461 . S
C52 H72 0.932 . S
C53 C51 1.408 . S
C53 C52 1.310 . S
C53 H73 0.930 . S
C54 C55 1.474 . S
C54 C56 1.285 . S
C54 H74 0.929 . S
C55 C52 1.461 . S
C55 C54 1.474 . S
C56 C51 1.342 . S
C56 C54 1.285 . S
C56 H75 0.930 . S
C57 C60 1.424 . S
C57 C62 1.245 . S
C57 C63 1.428 . S
C58 C61 1.260 . S
C58 C62 1.477 . S
C58 H76 0.932 . S
C59 C60 1.384 . S
C59 C61 1.479 . S
C59 H77 0.929 . S
C60 C57 1.424 . S
C60 C59 1.384 . S
C60 H78 0.928 . S
C61 C58 1.260 . S
C61 C59 1.479 . S
C62 C57 1.245 . S
C62 C58 1.477 . S
C62 H79 0.932 . S
C63 U46 2.882 . S
C63 C57 1.428 . S
C63 O66 1.301 . S
C63 O67 1.282 . S
O64 U46 2.441 . S
O64 C50 1.249 . S
O65 U46 2.420 . S
O65 C50 1.202 . S
O66 U46 2.455 . S
O66 C63 1.301 . S
O67 U46 2.449 . S
O67 C63 1.282 . S
H68 C41 0.931 . S
H69 C43 0.929 . S
H70 C44 0.930 . S
H71 C45 0.931 . S
H72 C52 0.932 . S
H73 C53 0.930 . S
H74 C54 0.929 . S
H75 C56 0.930 . S
H76 C58 0.932 . S
H77 C59 0.929 . S
H78 C60 0.928 . S
H79 C62 0.932 . S
C80 C81 1.264 . S
C80 C85 1.479 . S
C80 C90 1.465 . S
C81 C80 1.264 . S
C81 C83 1.339 . S
C81 H108 0.931 . S
C82 C83 1.395 . S
C82 C84 1.320 . S
C83 C81 1.339 . S
C83 C82 1.395 . S
C83 H109 0.929 . S
C84 C82 1.320 . S
C84 C85 1.405 . S
C84 H110 0.930 . S
C85 C80 1.479 . S
C85 C84 1.405 . S
C85 H111 0.931 . S
U86 O87 2.454 . S
U86 O88 2.458 . S
U86 C89 2.984 . S
U86 C90 2.847 . S
U86 C103 2.882 . S
U86 O104 2.441 . S
U86 O105 2.420 . S
U86 O106 2.455 . S
U86 O107 2.449 . S
O87 U86 2.454 . S
O87 C89 1.353 . S
O88 U86 2.458 . S
O88 C89 1.286 . S
C89 U86 2.984 . S
C89 O87 1.353 . S
C89 O88 1.286 . S
C89 C91 1.363 . S
C90 C80 1.465 . S
C90 U86 2.847 . S
C90 O104 1.249 . S
C90 O105 1.202 . S
C91 C89 1.363 . S
C91 C93 1.408 . S
C91 C96 1.342 . S
C92 C93 1.310 . S
C92 C95 1.461 . S
C92 H112 0.932 . S
C93 C91 1.408 . S
C93 C92 1.310 . S
C93 H113 0.930 . S
C94 C95 1.474 . S
C94 C96 1.285 . S
C94 H114 0.929 . S
C95 C92 1.461 . S
C95 C94 1.474 . S
C96 C91 1.342 . S
C96 C94 1.285 . S
C96 H115 0.930 . S
C97 C100 1.424 . S
C97 C102 1.245 . S
C97 C103 1.428 . S
C98 C101 1.260 . S
C98 C102 1.477 . S
C98 H116 0.932 . S
C99 C100 1.384 . S
C99 C101 1.479 . S
C99 H117 0.929 . S
C100 C97 1.424 . S
C100 C99 1.384 . S
C100 H118 0.928 . S
C101 C98 1.260 . S
C101 C99 1.479 . S
C102 C97 1.245 . S
C102 C98 1.477 . S
C102 H119 0.932 . S
C103 U86 2.882 . S
C103 C97 1.428 . S
C103 O106 1.301 . S
C103 O107 1.282 . S
O104 U86 2.441 . S
O104 C90 1.249 . S
O105 U86 2.420 . S
O105 C90 1.202 . S
O106 U86 2.455 . S
O106 C103 1.301 . S
O107 U86 2.449 . S
O107 C103 1.282 . S
H108 C81 0.931 . S
H109 C83 0.929 . S
H110 C84 0.930 . S
H111 C85 0.931 . S
H112 C92 0.932 . S
H113 C93 0.930 . S
H114 C94 0.929 . S
H115 C96 0.930 . S
H116 C98 0.932 . S
H117 C99 0.929 . S
H118 C100 0.928 . S
H119 C102 0.932 . S
C120 C121 1.264 . S
C120 C125 1.479 . S
C120 C130 1.465 . S
C121 C120 1.264 . S
C121 C123 1.339 . S
C121 H148 0.931 . S
C122 C123 1.395 . S
C122 C124 1.320 . S
C123 C121 1.339 . S
C123 C122 1.395 . S
C123 H149 0.929 . S
C124 C122 1.320 . S
C124 C125 1.405 . S
C124 H150 0.930 . S
C125 C120 1.479 . S
C125 C124 1.405 . S
C125 H151 0.931 . S
U126 O127 2.454 . S
U126 O128 2.458 . S
U126 C129 2.984 . S
U126 C130 2.847 . S
U126 C143 2.882 . S
U126 O144 2.441 . S
U126 O145 2.420 . S
U126 O146 2.455 . S
U126 O147 2.449 . S
O127 U126 2.454 . S
O127 C129 1.353 . S
O128 U126 2.458 . S
O128 C129 1.286 . S
C129 U126 2.984 . S
C129 O127 1.353 . S
C129 O128 1.286 . S
C129 C131 1.363 . S
C130 C120 1.465 . S
C130 U126 2.847 . S
C130 O144 1.249 . S
C130 O145 1.202 . S
C131 C129 1.363 . S
C131 C133 1.408 . S
C131 C136 1.342 . S
C132 C133 1.310 . S
C132 C135 1.461 . S
C132 H152 0.932 . S
C133 C131 1.408 . S
C133 C132 1.310 . S
C133 H153 0.930 . S
C134 C135 1.474 . S
C134 C136 1.285 . S
C134 H154 0.929 . S
C135 C132 1.461 . S
C135 C134 1.474 . S
C136 C131 1.342 . S
C136 C134 1.285 . S
C136 H155 0.930 . S
C137 C140 1.424 . S
C137 C142 1.245 . S
C137 C143 1.428 . S
C138 C141 1.260 . S
C138 C142 1.477 . S
C138 H156 0.932 . S
C139 C140 1.384 . S
C139 C141 1.479 . S
C139 H157 0.929 . S
C140 C137 1.424 . S
C140 C139 1.384 . S
C140 H158 0.928 . S
C141 C138 1.260 . S
C141 C139 1.479 . S
C142 C137 1.245 . S
C142 C138 1.477 . S
C142 H159 0.932 . S
C143 U126 2.882 . S
C143 C137 1.428 . S
C143 O146 1.301 . S
C143 O147 1.282 . S
O144 U126 2.441 . S
O144 C130 1.249 . S
O145 U126 2.420 . S
O145 C130 1.202 . S
O146 U126 2.455 . S
O146 C143 1.301 . S
O147 U126 2.449 . S
O147 C143 1.282 . S
H148 C121 0.931 . S
H149 C123 0.929 . S
H150 C124 0.930 . S
H151 C125 0.931 . S
H152 C132 0.932 . S
H153 C133 0.930 . S
H154 C134 0.929 . S
H155 C136 0.930 . S
H156 C138 0.932 . S
H157 C139 0.929 . S
H158 C140 0.928 . S
H159 C142 0.932 . S
C160 C161 1.264 . S
C160 C165 1.479 . S
C160 C170 1.465 . S
C161 C160 1.264 . S
C161 C163 1.339 . S
C161 H188 0.931 . S
C162 C163 1.395 . S
C162 C164 1.320 . S
C163 C161 1.339 . S
C163 C162 1.395 . S
C163 H189 0.929 . S
C164 C162 1.320 . S
C164 C165 1.405 . S
C164 H190 0.930 . S
C165 C160 1.479 . S
C165 C164 1.405 . S
C165 H191 0.931 . S
U166 O167 2.454 . S
U166 O168 2.458 . S
U166 C169 2.984 . S
U166 C170 2.847 . S
U166 C183 2.882 . S
U166 O184 2.441 . S
U166 O185 2.420 . S
U166 O186 2.455 . S
U166 O187 2.449 . S
O167 U166 2.454 . S
O167 C169 1.353 . S
O168 U166 2.458 . S
O168 C169 1.286 . S
C169 U166 2.984 . S
C169 O167 1.353 . S
C169 O168 1.286 . S
C169 C171 1.363 . S
C170 C160 1.465 . S
C170 U166 2.847 . S
C170 O184 1.249 . S
C170 O185 1.202 . S
C171 C169 1.363 . S
C171 C173 1.408 . S
C171 C176 1.342 . S
C172 C173 1.310 . S
C172 C175 1.461 . S
C172 H192 0.932 . S
C173 C171 1.408 . S
C173 C172 1.310 . S
C173 H193 0.930 . S
C174 C175 1.474 . S
C174 C176 1.285 . S
C174 H194 0.929 . S
C175 C172 1.461 . S
C175 C174 1.474 . S
C176 C171 1.342 . S
C176 C174 1.285 . S
C176 H195 0.930 . S
C177 C180 1.424 . S
C177 C182 1.245 . S
C177 C183 1.428 . S
C178 C181 1.260 . S
C178 C182 1.477 . S
C178 H196 0.932 . S
C179 C180 1.384 . S
C179 C181 1.479 . S
C179 H197 0.929 . S
C180 C177 1.424 . S
C180 C179 1.384 . S
C180 H198 0.928 . S
C181 C178 1.260 . S
C181 C179 1.479 . S
C182 C177 1.245 . S
C182 C178 1.477 . S
C182 H199 0.932 . S
C183 U166 2.882 . S
C183 C177 1.428 . S
C183 O186 1.301 . S
C183 O187 1.282 . S
O184 U166 2.441 . S
O184 C170 1.249 . S
O185 U166 2.420 . S
O185 C170 1.202 . S
O186 U166 2.455 . S
O186 C183 1.301 . S
O187 U166 2.449 . S
O187 C183 1.282 . S
H188 C161 0.931 . S
H189 C163 0.929 . S
H190 C164 0.930 . S
H191 C165 0.931 . S
H192 C172 0.932 . S
H193 C173 0.930 . S
H194 C174 0.929 . S
H195 C176 0.930 . S
H196 C178 0.932 . S
H197 C179 0.929 . S
H198 C180 0.928 . S
H199 C182 0.932 . S
C200 C201 1.264 . S
C200 C205 1.479 . S
C200 C210 1.465 . S
C201 C200 1.264 . S
C201 C203 1.339 . S
C201 H228 0.931 . S
C202 C203 1.395 . S
C202 C204 1.320 . S
C203 C201 1.339 . S
C203 C202 1.395 . S
C203 H229 0.929 . S
C204 C202 1.320 . S
C204 C205 1.405 . S
C204 H230 0.930 . S
C205 C200 1.479 . S
C205 C204 1.405 . S
C205 H231 0.931 . S
U206 O207 2.454 . S
U206 O208 2.458 . S
U206 C209 2.984 . S
U206 C210 2.847 . S
U206 C223 2.882 . S
U206 O224 2.441 . S
U206 O225 2.420 . S
U206 O226 2.455 . S
U206 O227 2.449 . S
O207 U206 2.454 . S
O207 C209 1.353 . S
O208 U206 2.458 . S
O208 C209 1.286 . S
C209 U206 2.984 . S
C209 O207 1.353 . S
C209 O208 1.286 . S
C209 C211 1.363 . S
C210 C200 1.465 . S
C210 U206 2.847 . S
C210 O224 1.249 . S
C210 O225 1.202 . S
C211 C209 1.363 . S
C211 C213 1.408 . S
C211 C216 1.342 . S
C212 C213 1.310 . S
C212 C215 1.461 . S
C212 H232 0.932 . S
C213 C211 1.408 . S
C213 C212 1.310 . S
C213 H233 0.930 . S
C214 C215 1.474 . S
C214 C216 1.285 . S
C214 H234 0.929 . S
C215 C212 1.461 . S
C215 C214 1.474 . S
C216 C211 1.342 . S
C216 C214 1.285 . S
C216 H235 0.930 . S
C217 C220 1.424 . S
C217 C222 1.245 . S
C217 C223 1.428 . S
C218 C221 1.260 . S
C218 C222 1.477 . S
C218 H236 0.932 . S
C219 C220 1.384 . S
C219 C221 1.479 . S
C219 H237 0.929 . S
C220 C217 1.424 . S
C220 C219 1.384 . S
C220 H238 0.928 . S
C221 C218 1.260 . S
C221 C219 1.479 . S
C222 C217 1.245 . S
C222 C218 1.477 . S
C222 H239 0.932 . S
C223 U206 2.882 . S
C223 C217 1.428 . S
C223 O226 1.301 . S
C223 O227 1.282 . S
O224 U206 2.441 . S
O224 C210 1.249 . S
O225 U206 2.420 . S
O225 C210 1.202 . S
O226 U206 2.455 . S
O226 C223 1.301 . S
O227 U206 2.449 . S
O227 C223 1.282 . S
H228 C201 0.931 . S
H229 C203 0.929 . S
H230 C204 0.930 . S
H231 C205 0.931 . S
H232 C212 0.932 . S
H233 C213 0.930 . S
H234 C214 0.929 . S
H235 C216 0.930 . S
H236 C218 0.932 . S
H237 C219 0.929 . S
H238 C220 0.928 . S
H239 C222 0.932 . S
C240 C241 1.264 . S
C240 C245 1.479 . S
C240 C250 1.465 . S
C241 C240 1.264 . S
C241 C243 1.339 . S
C241 H268 0.931 . S
C242 C243 1.395 . S
C242 C244 1.320 . S
C243 C241 1.339 . S
C243 C242 1.395 . S
C243 H269 0.929 . S
C244 C242 1.320 . S
C244 C245 1.405 . S
C244 H270 0.930 . S
C245 C240 1.479 . S
C245 C244 1.405 . S
C245 H271 0.931 . S
U246 O247 2.454 . S
U246 O248 2.458 . S
U246 C249 2.984 . S
U246 C250 2.847 . S
U246 C263 2.882 . S
U246 O264 2.441 . S
U246 O265 2.420 . S
U246 O266 2.455 . S
U246 O267 2.449 . S
O247 U246 2.454 . S
O247 C249 1.353 . S
O248 U246 2.458 . S
O248 C249 1.286 . S
C249 U246 2.984 . S
C249 O247 1.353 . S
C249 O248 1.286 . S
C249 C251 1.363 . S
C250 C240 1.465 . S
C250 U246 2.847 . S
C250 O264 1.249 . S
C250 O265 1.202 . S
C251 C249 1.363 . S
C251 C253 1.408 . S
C251 C256 1.342 . S
C252 C253 1.310 . S
C252 C255 1.461 . S
C252 H272 0.932 . S
C253 C251 1.408 . S
C253 C252 1.310 . S
C253 H273 0.930 . S
C254 C255 1.474 . S
C254 C256 1.285 . S
C254 H274 0.929 . S
C255 C252 1.461 . S
C255 C254 1.474 . S
C256 C251 1.342 . S
C256 C254 1.285 . S
C256 H275 0.930 . S
C257 C260 1.424 . S
C257 C262 1.245 . S
C257 C263 1.428 . S
C258 C261 1.260 . S
C258 C262 1.477 . S
C258 H276 0.932 . S
C259 C260 1.384 . S
C259 C261 1.479 . S
C259 H277 0.929 . S
C260 C257 1.424 . S
C260 C259 1.384 . S
C260 H278 0.928 . S
C261 C258 1.260 . S
C261 C259 1.479 . S
C262 C257 1.245 . S
C262 C258 1.477 . S
C262 H279 0.932 . S
C263 U246 2.882 . S
C263 C257 1.428 . S
C263 O266 1.301 . S
C263 O267 1.282 . S
O264 U246 2.441 . S
O264 C250 1.249 . S
O265 U246 2.420 . S
O265 C250 1.202 . S
O266 U246 2.455 . S
O266 C263 1.301 . S
O267 U246 2.449 . S
O267 C263 1.282 . S
H268 C241 0.931 . S
H269 C243 0.929 . S
H270 C244 0.930 . S
H271 C245 0.931 . S
H272 C252 0.932 . S
H273 C253 0.930 . S
H274 C254 0.929 . S
H275 C256 0.930 . S
H276 C258 0.932 . S
H277 C259 0.929 . S
H278 C260 0.928 . S
H279 C262 0.932 . S
C280 C281 1.264 . S
C280 C285 1.479 . S
C280 C290 1.465 . S
C281 C280 1.264 . S
C281 C283 1.339 . S
C281 H308 0.931 . S
C282 C283 1.395 . S
C282 C284 1.320 . S
C283 C281 1.339 . S
C283 C282 1.395 . S
C283 H309 0.929 . S
C284 C282 1.320 . S
C284 C285 1.405 . S
C284 H310 0.930 . S
C285 C280 1.479 . S
C285 C284 1.405 . S
C285 H311 0.931 . S
U286 O287 2.454 . S
U286 O288 2.458 . S
U286 C289 2.984 . S
U286 C290 2.847 . S
U286 C303 2.882 . S
U286 O304 2.441 . S
U286 O305 2.420 . S
U286 O306 2.455 . S
U286 O307 2.449 . S
O287 U286 2.454 . S
O287 C289 1.353 . S
O288 U286 2.458 . S
O288 C289 1.286 . S
C289 U286 2.984 . S
C289 O287 1.353 . S
C289 O288 1.286 . S
C289 C291 1.363 . S
C290 C280 1.465 . S
C290 U286 2.847 . S
C290 O304 1.249 . S
C290 O305 1.202 . S
C291 C289 1.363 . S
C291 C293 1.408 . S
C291 C296 1.342 . S
C292 C293 1.310 . S
C292 C295 1.461 . S
C292 H312 0.932 . S
C293 C291 1.408 . S
C293 C292 1.310 . S
C293 H313 0.930 . S
C294 C295 1.474 . S
C294 C296 1.285 . S
C294 H314 0.929 . S
C295 C292 1.461 . S
C295 C294 1.474 . S
C296 C291 1.342 . S
C296 C294 1.285 . S
C296 H315 0.930 . S
C297 C300 1.424 . S
C297 C302 1.245 . S
C297 C303 1.428 . S
C298 C301 1.260 . S
C298 C302 1.477 . S
C298 H316 0.932 . S
C299 C300 1.384 . S
C299 C301 1.479 . S
C299 H317 0.929 . S
C300 C297 1.424 . S
C300 C299 1.384 . S
C300 H318 0.928 . S
C301 C298 1.260 . S
C301 C299 1.479 . S
C302 C297 1.245 . S
C302 C298 1.477 . S
C302 H319 0.932 . S
C303 U286 2.882 . S
C303 C297 1.428 . S
C303 O306 1.301 . S
C303 O307 1.282 . S
O304 U286 2.441 . S
O304 C290 1.249 . S
O305 U286 2.420 . S
O305 C290 1.202 . S
O306 U286 2.455 . S
O306 C303 1.301 . S
O307 U286 2.449 . S
O307 C303 1.282 . S
H308 C281 0.931 . S
H309 C283 0.929 . S
H310 C284 0.930 . S
H311 C285 0.931 . S
H312 C292 0.932 . S
H313 C293 0.930 . S
H314 C294 0.929 . S
H315 C296 0.930 . S
H316 C298 0.932 . S
H317 C299 0.929 . S
H318 C300 0.928 . S
H319 C302 0.932 . S
H320 C326 0.930 . S
H321 C329 0.930 . S
H322 C330 0.930 . S
H323 C331 0.930 . S
H324 C334 0.930 . S
H325 C335 0.930 . S
C326 H320 0.930 . S
C326 C327 1.355 . S
C326 C328 1.415 . S
C327 C326 1.355 . S
C327 C329 1.419 . S
C328 C326 1.415 . S
C328 C333 1.425 1_565 S
C328 C335 1.409 . S
C329 H321 0.930 . S
C329 C327 1.419 . S
C329 C330 1.362 1_565 S
C330 H322 0.930 . S
C330 C329 1.362 1_545 S
C330 C333 1.409 . S
C331 H323 0.930 . S
C331 C332 1.355 . S
C331 C333 1.415 . S
C332 C331 1.355 . S
C332 C334 1.419 . S
C333 C328 1.425 1_545 S
C333 C330 1.409 . S
C333 C331 1.415 . S
C334 H324 0.930 . S
C334 C332 1.419 . S
C334 C335 1.362 1_545 S
C335 H325 0.930 . S
C335 C328 1.409 . S
C335 C334 1.362 1_565 S
H336 C342 0.930 . S
H337 C345 0.930 . S
H338 C346 0.930 . S
H339 C347 0.930 . S
H340 C350 0.930 . S
H341 C351 0.930 . S
C342 H336 0.930 . S
C342 C343 1.355 . S
C342 C344 1.415 . S
C343 C342 1.355 . S
C343 C345 1.419 . S
C344 C342 1.415 . S
C344 C349 1.425 . S
C344 C351 1.409 . S
C345 H337 0.930 . S
C345 C343 1.419 . S
C345 C346 1.362 . S
C346 H338 0.930 . S
C346 C345 1.362 . S
C346 C349 1.409 . S
C347 H339 0.930 . S
C347 C348 1.355 . S
C347 C349 1.415 . S
C348 C347 1.355 . S
C348 C350 1.419 . S
C349 C344 1.425 . S
C349 C346 1.409 . S
C349 C347 1.415 . S
C350 H340 0.930 . S
C350 C348 1.419 . S
C350 C351 1.362 . S
C351 H341 0.930 . S
C351 C344 1.409 . S
C351 C350 1.362 . S
H352 C358 0.930 . S
H353 C361 0.930 . S
H354 C362 0.930 . S
H355 C363 0.930 . S
H356 C366 0.930 . S
H357 C367 0.930 . S
C358 H352 0.930 . S
C358 C359 1.355 . S
C358 C360 1.415 . S
C359 C358 1.355 . S
C359 C361 1.419 . S
C360 C358 1.415 . S
C360 C365 1.425 1_565 S
C360 C367 1.409 . S
C361 H353 0.930 . S
C361 C359 1.419 . S
C361 C362 1.362 1_565 S
C362 H354 0.930 . S
C362 C361 1.362 1_545 S
C362 C365 1.409 . S
C363 H355 0.930 . S
C363 C364 1.355 . S
C363 C365 1.415 . S
C364 C363 1.355 . S
C364 C366 1.419 . S
C365 C360 1.425 1_545 S
C365 C362 1.409 . S
C365 C363 1.415 . S
C366 H356 0.930 . S
C366 C364 1.419 . S
C366 C367 1.362 1_545 S
C367 H357 0.930 . S
C367 C360 1.409 . S
C367 C366 1.362 1_565 S
H368 C374 0.930 . S
H369 C377 0.930 . S
H370 C378 0.930 . S
H371 C379 0.930 . S
H372 C382 0.930 . S
H373 C383 0.938 . S
C374 H368 0.930 . S
C374 C375 1.355 . S
C374 C376 1.415 . S
C375 C374 1.355 . S
C375 C377 1.419 . S
C376 C374 1.415 . S
C376 C381 1.425 . S
C376 C383 1.409 1_554 S
C377 H369 0.930 . S
C377 C375 1.419 . S
C377 C378 1.362 . S
C378 H370 0.930 . S
C378 C377 1.362 . S
C378 C381 1.409 . S
C379 H371 0.930 . S
C379 C380 1.355 . S
C379 C381 1.415 1_556 S
C380 C379 1.355 . S
C380 C382 1.419 . S
C381 C376 1.425 . S
C381 C378 1.409 . S
C381 C379 1.415 1_554 S
C382 H372 0.930 . S
C382 C380 1.419 . S
C382 C383 1.362 . S
C383 H373 0.938 . S
C383 C376 1.409 1_556 S
C383 C382 1.362 . S
H384 C390 0.930 . S
H385 C393 0.930 . S
H386 C394 0.930 . S
H387 C395 0.930 . S
H388 C398 0.930 . S
H389 C399 0.930 . S
C390 H384 0.930 . S
C390 C391 1.355 . S
C390 C392 1.415 1_655 S
C391 C390 1.355 . S
C391 C393 1.419 . S
C392 C390 1.415 1_455 S
C392 C397 1.425 1_455 S
C392 C399 1.409 . S
C393 H385 0.930 . S
C393 C391 1.419 . S
C393 C394 1.362 . S
C394 H386 0.930 . S
C394 C393 1.362 . S
C394 C397 1.409 . S
C395 H387 0.930 . S
C395 C396 1.355 . S
C395 C397 1.415 1_455 S
C396 C395 1.355 . S
C396 C398 1.419 . S
C397 C392 1.425 1_655 S
C397 C394 1.409 . S
C397 C395 1.415 1_655 S
C398 H388 0.930 . S
C398 C396 1.419 . S
C398 C399 1.362 . S
C399 H389 0.930 . S
C399 C392 1.409 . S
C399 C398 1.362 . S
H400 C406 0.930 . S
H401 C409 0.930 . S
H402 C410 0.930 . S
H403 C411 0.930 . S
H404 C414 0.930 . S
H405 C415 0.930 . S
C406 H400 0.930 . S
C406 C407 1.355 . S
C406 C408 1.415 . S
C407 C406 1.355 . S
C407 C409 1.419 . S
C408 C406 1.415 . S
C408 C413 1.425 . S
C408 C415 1.409 . S
C409 H401 0.930 . S
C409 C407 1.419 . S
C409 C410 1.362 . S
C410 H402 0.930 . S
C410 C409 1.362 . S
C410 C413 1.409 . S
C411 H403 0.930 . S
C411 C412 1.355 . S
C411 C413 1.415 . S
C412 C411 1.355 . S
C412 C414 1.419 . S
C413 C408 1.425 . S
C413 C410 1.409 . S
C413 C411 1.415 . S
C414 H404 0.930 . S
C414 C412 1.419 . S
C414 C415 1.362 . S
C415 H405 0.930 . S
C415 C408 1.409 . S
C415 C414 1.362 . S
H416 C422 0.930 . S
H417 C425 0.930 . S
H418 C426 0.930 . S
H419 C427 0.930 . S
H420 C430 0.930 . S
H421 C431 0.930 . S
C422 H416 0.930 . S
C422 C423 1.355 . S
C422 C424 1.415 . S
C423 C422 1.355 . S
C423 C425 1.419 . S
C424 C422 1.415 . S
C424 C429 1.425 1_455 S
C424 C431 1.409 . S
C425 H417 0.930 . S
C425 C423 1.419 . S
C425 C426 1.362 1_455 S
C426 H418 0.930 . S
C426 C425 1.362 1_655 S
C426 C429 1.409 . S
C427 H419 0.930 . S
C427 C428 1.355 . S
C427 C429 1.415 . S
C428 C427 1.355 . S
C428 C430 1.419 . S
C429 C424 1.425 1_655 S
C429 C426 1.409 . S
C429 C427 1.415 . S
C430 H420 0.930 . S
C430 C428 1.419 . S
C430 C431 1.362 1_655 S
C431 H421 0.930 . S
C431 C424 1.409 . S
C431 C430 1.362 1_455 S
H432 C438 0.930 . S
H433 C441 0.930 . S
H434 C442 0.930 . S
H435 C443 0.930 . S
H436 C446 0.930 . S
H437 C447 0.930 . S
C438 H432 0.930 . S
C438 C439 1.355 . S
C438 C440 1.415 . S
C439 C438 1.355 . S
C439 C441 1.419 . S
C440 C438 1.415 . S
C440 C445 1.425 . S
C440 C447 1.409 . S
C441 H433 0.930 . S
C441 C439 1.419 . S
C441 C442 1.362 . S
C442 H434 0.930 . S
C442 C441 1.362 . S
C442 C445 1.409 . S
C443 H435 0.930 . S
C443 C444 1.355 . S
C443 C445 1.415 . S
C444 C443 1.355 . S
C444 C446 1.419 . S
C445 C440 1.425 . S
C445 C442 1.409 . S
C445 C443 1.415 . S
C446 H436 0.930 . S
C446 C444 1.419 . S
C446 C447 1.362 . S
C447 H437 0.930 . S
C447 C440 1.409 . S
C447 C446 1.362 . S
H448 C454 0.930 . S
H449 C457 0.930 . S
H450 C458 0.930 . S
H451 C459 0.930 . S
H452 C462 0.930 . S
H453 C463 0.930 . S
C454 H448 0.930 . S
C454 C455 1.355 . S
C454 C456 1.415 . S
C455 C454 1.355 . S
C455 C457 1.419 . S
C456 C454 1.415 . S
C456 C461 1.425 . S
C456 C463 1.409 . S
C457 H449 0.930 . S
C457 C455 1.419 . S
C457 C458 1.362 . S
C458 H450 0.930 . S
C458 C457 1.362 . S
C458 C461 1.409 . S
C459 H451 0.930 . S
C459 C460 1.355 . S
C459 C461 1.415 . S
C460 C459 1.355 . S
C460 C462 1.419 . S
C461 C456 1.425 . S
C461 C458 1.409 . S
C461 C459 1.415 . S
C462 H452 0.930 . S
C462 C460 1.419 . S
C462 C463 1.362 . S
C463 H453 0.930 . S
C463 C456 1.409 . S
C463 C462 1.362 . S
H464 C470 0.930 . S
H465 C473 0.930 . S
H466 C474 0.930 . S
H467 C475 0.930 . S
H468 C478 0.930 . S
H469 C479 0.930 . S
C470 H464 0.930 . S
C470 C471 1.355 . S
C470 C472 1.415 1_554 S
C471 C470 1.355 . S
C471 C473 1.419 . S
C472 C470 1.415 1_556 S
C472 C477 1.425 . S
C472 C479 1.409 . S
C473 H465 0.930 . S
C473 C471 1.419 . S
C473 C474 1.362 . S
C474 H466 0.930 . S
C474 C473 1.362 . S
C474 C477 1.409 1_554 S
C475 H467 0.930 . S
C475 C476 1.355 . S
C475 C477 1.415 . S
C476 C475 1.355 . S
C476 C478 1.419 . S
C477 C472 1.425 . S
C477 C474 1.409 1_556 S
C477 C475 1.415 . S
C478 H468 0.930 . S
C478 C476 1.419 . S
C478 C479 1.362 . S
C479 H469 0.930 . S
C479 C472 1.409 . S
C479 C478 1.362 . S
H480 C486 0.930 . S
H481 C489 0.930 . S
H482 C490 0.930 . S
H483 C491 0.930 . S
H484 C494 0.930 . S
H485 C495 0.930 . S
C486 H480 0.930 . S
C486 C487 1.355 . S
C486 C488 1.415 . S
C487 C486 1.355 . S
C487 C489 1.419 . S
C488 C486 1.415 . S
C488 C493 1.425 . S
C488 C495 1.409 . S
C489 H481 0.930 . S
C489 C487 1.419 . S
C489 C490 1.362 . S
C490 H482 0.930 . S
C490 C489 1.362 . S
C490 C493 1.409 . S
C491 H483 0.930 . S
C491 C492 1.355 . S
C491 C493 1.415 . S
C492 C491 1.355 . S
C492 C494 1.419 . S
C493 C488 1.425 . S
C493 C490 1.409 . S
C493 C491 1.415 . S
C494 H484 0.930 . S
C494 C492 1.419 . S
C494 C495 1.362 . S
C495 H485 0.930 . S
C495 C488 1.409 . S
C495 C494 1.362 . S
H496 C502 0.930 . S
H497 C505 0.930 . S
H498 C506 0.930 . S
H499 C507 0.930 . S
H500 C510 0.930 . S
H501 C511 0.930 . S
C502 H496 0.930 . S
C502 C503 1.355 . S
C502 C504 1.415 . S
C503 C502 1.355 . S
C503 C505 1.419 . S
C504 C502 1.415 . S
C504 C509 1.425 . S
C504 C511 1.409 . S
C505 H497 0.930 . S
C505 C503 1.419 . S
C505 C506 1.362 . S
C506 H498 0.930 . S
C506 C505 1.362 . S
C506 C509 1.409 . S
C507 H499 0.930 . S
C507 C508 1.355 . S
C507 C509 1.415 . S
C508 C507 1.355 . S
C508 C510 1.419 . S
C509 C504 1.425 . S
C509 C506 1.409 . S
C509 C507 1.415 . S
C510 H500 0.930 . S
C510 C508 1.419 . S
C510 C511 1.362 . S
C511 H501 0.930 . S
C511 C504 1.409 . S
C511 C510 1.362 . S
C327 C42 1.467 . S
C332 C2 1.475 . S
C343 C61 1.468 . S
C348 C95 1.493 . S
C359 C82 1.491 . S
C364 C122 1.492 . S
C375 C21 1.500 . S
C380 C135 1.497 . S
C391 C221 1.475 . S
C396 C15 1.499 . S
C407 C141 1.476 . S
C412 C175 1.499 . S
C423 C55 1.494 . S
C428 C261 1.496 . S
C439 C295 1.497 . S
C444 C101 1.500 . S
C455 C282 1.462 . S
C460 C162 1.486 . S
C471 C215 1.497 . S
C476 C181 1.500 . S
C487 C202 1.497 . S
C492 C242 1.484 . S
C503 C255 1.493 . S
C508 C301 1.487 . S
