# Generated by pormake.
# Topology ske, (6)-cn, num edge types: 1
# Building blocks:
#     Node 0, Type 0, BuildingBlock: PAMTUU_clean_sbu_0, # of connection points: 6
#     Node 1, Type 0, BuildingBlock: PAMTUU_clean_sbu_0, # of connection points: 6
#     Node 2, Type 0, BuildingBlock: PAMTUU_clean_sbu_0, # of connection points: 6
#     Node 3, Type 0, BuildingBlock: PAMTUU_clean_sbu_0, # of connection points: 6
#     Node 4, Type 0, BuildingBlock: PAMTUU_clean_sbu_0, # of connection points: 6
#     Node 5, Type 0, BuildingBlock: PAMTUU_clean_sbu_0, # of connection points: 6
#     Node 6, Type 0, BuildingBlock: PAMTUU_clean_sbu_0, # of connection points: 6
#     Node 7, Type 0, BuildingBlock: PAMTUU_clean_sbu_0, # of connection points: 6
#     Edge 8, Type (0, 0), None
#     Edge 9, Type (0, 0), None
#     Edge 10, Type (0, 0), None
#     Edge 11, Type (0, 0), None
#     Edge 12, Type (0, 0), None
#     Edge 13, Type (0, 0), None
#     Edge 14, Type (0, 0), None
#     Edge 15, Type (0, 0), None
#     Edge 16, Type (0, 0), None
#     Edge 17, Type (0, 0), None
#     Edge 18, Type (0, 0), None
#     Edge 19, Type (0, 0), None
#     Edge 20, Type (0, 0), None
#     Edge 21, Type (0, 0), None
#     Edge 22, Type (0, 0), None
#     Edge 23, Type (0, 0), None
#     Edge 24, Type (0, 0), None
#     Edge 25, Type (0, 0), None
#     Edge 26, Type (0, 0), None
#     Edge 27, Type (0, 0), None
#     Edge 28, Type (0, 0), None
#     Edge 29, Type (0, 0), None
#     Edge 30, Type (0, 0), None
#     Edge 31, Type (0, 0), None
# Relax obj value: 0.123
# Max RMSD: 0.185
# Mean RMSD: 0.177
data_MOF--net-ske--node1-PAMTUU_clean_sbu_0--edge1-none
_symmetry_space_group_name_H-M    P1
_symmetry_Int_Tables_number       1
_symmetry_cell_setting            triclinic
loop_
_symmetry_equiv_pos_as_xyz
'x, y, z'
_cell_length_a     70.227135
_cell_length_b     13.518071
_cell_length_c     6.7984004
_cell_angle_alpha  90.003013
_cell_angle_beta   89.984063
_cell_angle_gamma 98.035697
loop_
_atom_site_label
_atom_site_type_symbol
_atom_site_fract_x
_atom_site_fract_y
_atom_site_fract_z
_atom_type_partial_charge
Tb0 Tb 0.18588 0.32166 0.52265 0.0
Tb1 Tb 0.13742 0.28541 0.5229 0.0
C2 C 0.16172 0.50055 0.51357 0.0
C3 C 0.23971 0.33137 0.60018 0.0
C4 C 0.27443 0.28816 0.76436 0.0
C5 C 0.27413 0.37365 0.64738 0.0
C6 C 0.25692 0.39496 0.56613 0.0
C7 C 0.23979 0.24664 0.71901 0.0
C8 C 0.25704 0.22519 0.80057 0.0
C9 C 0.22217 0.35334 0.5023 0.0
O10 O 0.17775 0.33509 0.82917 0.0
O11 O 0.14544 0.26808 0.82737 0.0
O12 O 0.14725 0.1411 0.49897 0.0
O13 O 0.17793 0.16916 0.62637 0.0
O14 O 0.11082 0.31332 0.63567 0.0
O15 O 0.11227 0.20231 0.40922 0.0
O16 O 0.14583 0.32695 0.22392 0.0
O17 O 0.17647 0.28373 0.22492 0.0
O18 O 0.17689 0.46444 0.4477 0.0
O19 O 0.14596 0.44379 0.57019 0.0
C20 C 0.1614 0.30374 0.91855 0.0
O21 O 0.21154 0.27879 0.41689 0.0
O22 O 0.21187 0.41131 0.59553 0.0
C23 C 0.16231 0.10909 0.57711 0.0
C24 C 0.08257 0.26755 0.43987 0.0
C25 C 0.04331 0.28139 0.37399 0.0
C26 C 0.05109 0.19482 0.32025 0.0
C27 C 0.07048 0.1881 0.35315 0.0
C28 C 0.07529 0.35736 0.47828 0.0
C29 C 0.05585 0.36434 0.44447 0.0
C30 C 0.10112 0.24724 0.52125 0.0
C31 C 0.16118 0.30504 0.13285 0.0
H32 H 0.28721 0.42432 0.61905 0.0
H33 H 0.25708 0.46076 0.47465 0.0
H34 H 0.22661 0.19653 0.74615 0.0
H35 H 0.25683 0.15816 0.8883 0.0
H36 H 0.04195 0.12889 0.26828 0.0
H37 H 0.07567 0.11763 0.32422 0.0
H38 H 0.08427 0.41999 0.5452 0.0
H39 H 0.0504 0.43275 0.4845 0.0
Tb40 Tb 0.87901 0.11557 0.53884 0.0
Tb41 Tb 0.92769 0.15165 0.54103 0.0
C42 C 0.90343 0.93868 0.54822 0.0
C43 C 0.82541 0.10817 0.62478 0.0
C44 C 0.79092 0.1569 0.78493 0.0
C45 C 0.79124 0.06523 0.68829 0.0
C46 C 0.80835 0.0412 0.60894 0.0
C47 C 0.82531 0.19894 0.72449 0.0
C48 C 0.80817 0.22313 0.80398 0.0
C49 C 0.84271 0.08378 0.52532 0.0
O50 O 0.88651 0.11203 0.84696 0.0
O51 O 0.91968 0.15727 0.84583 0.0
O52 O 0.91815 0.29425 0.47278 0.0
O53 O 0.88811 0.27132 0.61695 0.0
O54 O 0.95395 0.10595 0.45824 0.0
O55 O 0.9531 0.23488 0.64665 0.0
O56 O 0.91983 0.12821 0.23534 0.0
O57 O 0.88728 0.14273 0.23682 0.0
O58 O 0.88896 0.97463 0.46619 0.0
O59 O 0.91817 -0.00303 0.62268 0.0
C60 C 0.90317 0.13478 0.93502 0.0
O61 O 0.85323 0.15661 0.43339 0.0
O62 O 0.85315 0.02685 0.62002 0.0
C63 C 0.90324 0.32961 0.54857 0.0
C64 C 0.9826 0.22599 0.47772 0.0
C65 C 1.02204 0.27736 0.3894 0.0
C66 C 1.01408 0.31553 0.55845 0.0
C67 C 0.9946 0.28998 0.60187 0.0
C68 C 0.99006 0.19496 0.29975 0.0
C69 C 1.00961 0.22104 0.25546 0.0
C70 C 0.96395 0.17838 0.55658 0.0
C71 C 0.90346 0.13515 0.14706 0.0
H72 H 0.77826 0.01208 0.67379 0.0
H73 H 0.8082 0.97078 0.53224 0.0
H74 H 0.83835 0.25178 0.73746 0.0
H75 H 0.80834 0.29477 0.87586 0.0
H76 H 1.02313 0.35805 0.66648 0.0
H77 H 0.98927 0.31415 0.74103 0.0
H78 H 0.98115 0.14565 0.20083 0.0
H79 H 1.0152 0.19198 0.12202 0.0
Tb80 Tb 0.13742 0.78548 0.58569 0.0
Tb81 Tb 0.18588 0.8216 0.58567 0.0
C82 C 0.16228 0.60906 0.53132 0.0
C83 C 0.08255 0.76836 0.66784 0.0
C84 C 0.04327 0.7825 0.73144 0.0
C85 C 0.05104 0.69631 0.78776 0.0
C86 C 0.07044 0.68943 0.75599 0.0
C87 C 0.07528 0.85791 0.62693 0.0
C88 C 0.05582 0.86506 0.65961 0.0
C89 C 0.10112 0.74754 0.58747 0.0
O90 O 0.14584 0.82706 0.8846 0.0
O91 O 0.17647 0.78369 0.88345 0.0
O92 O 0.17691 0.96445 0.66063 0.0
O93 O 0.14597 0.94385 0.53848 0.0
O94 O 0.21154 0.77861 0.69124 0.0
O95 O 0.21188 0.91116 0.5127 0.0
O96 O 0.17776 0.8351 0.27921 0.0
O97 O 0.14544 0.76807 0.28119 0.0
O98 O 0.14722 0.64109 0.60944 0.0
O99 O 0.17791 0.66911 0.48202 0.0
C100 C 0.16118 0.80506 0.97561 0.0
O101 O 0.11084 0.81299 0.47191 0.0
O102 O 0.11224 0.70311 0.70065 0.0
C103 C 0.16174 0.00058 0.59493 0.0
C104 C 0.23971 0.83111 0.50783 0.0
C105 C 0.27442 0.78785 0.3434 0.0
C106 C 0.27413 0.8734 0.46024 0.0
C107 C 0.25692 0.89473 0.54161 0.0
C108 C 0.23979 0.74632 0.38917 0.0
C109 C 0.25703 0.72483 0.30748 0.0
C110 C 0.22218 0.85312 0.60582 0.0
C111 C 0.1614 0.80376 0.18991 0.0
H112 H 0.04188 0.63066 0.84091 0.0
H113 H 0.07562 0.61916 0.78687 0.0
H114 H 0.08428 0.92016 0.55888 0.0
H115 H 0.05039 0.9332 0.61763 0.0
H116 H 0.2872 0.9241 0.48835 0.0
H117 H 0.25708 0.96058 0.63296 0.0
H118 H 0.22661 0.69617 0.36224 0.0
H119 H 0.25682 0.65776 0.21986 0.0
Tb120 Tb 0.9277 0.65172 0.56257 0.0
Tb121 Tb 0.87901 0.61554 0.56502 0.0
C122 C 0.90323 0.8296 0.55513 0.0
C123 C 0.98259 0.72647 0.6255 0.0
C124 C 1.022 0.77831 0.71482 0.0
C125 C 1.01412 0.81549 0.54443 0.0
C126 C 0.99466 0.78972 0.50049 0.0
C127 C 0.98998 0.69642 0.80457 0.0
C128 C 1.00951 0.72272 0.84936 0.0
C129 C 0.96395 0.67866 0.54679 0.0
O130 O 0.91983 0.62817 0.86827 0.0
O131 O 0.88729 0.64278 0.86697 0.0
O132 O 0.88897 0.47463 0.63754 0.0
O133 O 0.9182 0.49699 0.48109 0.0
O134 O 0.85323 0.6565 0.67073 0.0
O135 O 0.85316 0.52678 0.48395 0.0
O136 O 0.88651 0.61211 0.25684 0.0
O137 O 0.91969 0.65714 0.25779 0.0
O138 O 0.91813 0.79427 0.63088 0.0
O139 O 0.8881 0.77129 0.48682 0.0
C140 C 0.90346 0.63514 0.95665 0.0
O141 O 0.95398 0.60626 0.64538 0.0
O142 O 0.95309 0.73501 0.4566 0.0
C143 C 0.90345 0.43869 0.55551 0.0
C144 C 0.82541 0.60804 0.4795 0.0
C145 C 0.79091 0.65677 0.31965 0.0
C146 C 0.79124 0.56513 0.41638 0.0
C147 C 0.80835 0.5411 0.49558 0.0
C148 C 0.82531 0.69878 0.37969 0.0
C149 C 0.80817 0.72297 0.30036 0.0
C150 C 0.84272 0.58366 0.5788 0.0
C151 C 0.90317 0.63476 0.1687 0.0
H152 H 1.02321 0.85739 0.4359 0.0
H153 H 0.98938 0.81312 0.36052 0.0
H154 H 0.98101 0.64771 0.90417 0.0
H155 H 1.01503 0.69444 0.98378 0.0
H156 H 0.77826 0.512 0.43107 0.0
H157 H 0.8082 0.4707 0.57236 0.0
H158 H 0.83835 0.7516 0.36653 0.0
H159 H 0.80834 0.79458 0.2284 0.0
Tb160 Tb 0.68435 0.74649 1.0426 0.0
Tb161 Tb 0.63585 0.70985 1.04459 0.0
C162 C 0.65966 0.92413 1.02007 0.0
C163 C 0.73808 0.74155 0.10056 0.0
C164 C 0.77257 0.68399 0.24239 0.0
C165 C 0.77203 0.73034 0.05782 0.0
C166 C 0.75492 0.75881 0.98774 0.0
C167 C 0.7384 0.69387 0.28349 0.0
C168 C 0.75554 0.66532 0.35396 0.0
C169 C 0.72071 0.77798 1.02643 0.0
O170 O 0.67643 0.71207 0.34667 0.0
O171 O 0.64475 0.7425 0.34589 0.0
O172 O 0.64484 0.57073 0.14191 0.0
O173 O 0.67543 0.58724 1.01229 0.0
O174 O 0.60972 0.75204 0.13818 0.0
O175 O 0.61028 0.61715 0.96723 0.0
O176 O 0.64445 0.69043 0.74134 0.0
O177 O 0.67555 0.77308 0.74426 0.0
O178 O 0.67497 0.89012 0.08702 0.0
O179 O 0.64414 0.86563 0.96121 0.0
C180 C 0.6606 0.7284 0.4372 0.0
O181 O 0.71001 0.71985 0.90546 0.0
O182 O 0.71045 0.82003 0.15291 0.0
C183 C 0.65998 0.53264 0.08215 0.0
C184 C 0.58095 0.68687 0.97003 0.0
C185 C 0.5429 0.71736 0.88396 0.0
C186 C 0.54689 0.62426 0.95277 0.0
C187 C 0.5657 0.60927 0.9948 0.0
C188 C 0.57736 0.77769 0.88804 0.0
C189 C 0.55847 0.79255 0.84398 0.0
C190 C 0.5996 0.67429 0.05747 0.0
C191 C 0.66029 0.72953 0.65166 0.0
H192 H 0.78482 0.74445 0.96731 0.0
H193 H 0.75489 0.79542 0.84587 0.0
H194 H 0.72552 0.68014 0.37278 0.0
H195 H 0.75556 0.63075 0.49769 0.0
H196 H 0.53539 0.565 0.98822 0.0
H197 H 0.56819 0.53873 0.05883 0.0
H198 H 0.58897 0.83851 0.86702 0.0
H199 H 0.55601 0.86456 0.78741 0.0
Tb200 Tb 0.38124 0.71039 1.04401 0.0
Tb201 Tb 0.42975 0.74706 1.04559 0.0
C202 C 0.40597 0.53284 1.02052 0.0
C203 C 0.32749 0.71281 0.10953 0.0
C204 C 0.29283 0.76385 0.26159 0.0
C205 C 0.2937 0.72838 0.06791 0.0
C206 C 0.31088 0.70306 0.99283 0.0
C207 C 0.32685 0.74986 0.30181 0.0
C208 C 0.30964 0.77515 0.3773 0.0
C209 C 0.34487 0.67872 1.02952 0.0
O210 O 0.38915 0.74492 0.3479 0.0
O211 O 0.42082 0.71432 0.34685 0.0
O212 O 0.42077 0.88625 0.14268 0.0
O213 O 0.39018 0.86964 1.01335 0.0
O214 O 0.45588 0.70494 0.1392 0.0
O215 O 0.45531 0.83978 0.9681 0.0
O216 O 0.42115 0.76615 0.74228 0.0
O217 O 0.38996 0.68443 0.74516 0.0
O218 O 0.39067 0.56685 0.08802 0.0
O219 O 0.42148 0.59136 0.96171 0.0
C220 C 0.40498 0.72857 0.43827 0.0
O221 O 0.35546 0.73972 0.91255 0.0
O222 O 0.35524 0.63386 0.15026 0.0
C223 C 0.40564 0.92431 0.08291 0.0
C224 C 0.48464 0.77008 0.97078 0.0
C225 C 0.52268 0.7396 0.88415 0.0
C226 C 0.51871 0.83268 0.95314 0.0
C227 C 0.49989 0.84767 0.99545 0.0
C228 C 0.48823 0.67928 0.88863 0.0
C229 C 0.50711 0.66442 0.84429 0.0
C230 C 0.466 0.78267 0.05836 0.0
C231 C 0.40528 0.72743 0.65267 0.0
H232 H 0.28111 0.72031 0.97415 0.0
H233 H 0.31114 0.67454 0.84396 0.0
H234 H 0.33953 0.75765 0.3944 0.0
H235 H 0.30938 0.80138 0.5277 0.0
H236 H 0.5302 0.89194 0.9885 0.0
H237 H 0.49741 0.9182 0.05958 0.0
H238 H 0.47661 0.61847 0.86766 0.0
H239 H 0.50957 0.59242 0.78757 0.0
Tb240 Tb 0.63585 0.20985 0.06121 0.0
Tb241 Tb 0.68435 0.2465 0.06293 0.0
C242 C 0.65998 0.03264 1.02351 0.0
C243 C 0.58095 0.18687 0.13602 0.0
C244 C 0.5429 0.21736 0.22213 0.0
C245 C 0.54689 0.12425 0.1534 0.0
C246 C 0.56571 0.10925 0.11134 0.0
C247 C 0.57736 0.2777 0.21794 0.0
C248 C 0.55847 0.29257 0.26202 0.0
C249 C 0.5996 0.17428 1.04851 0.0
O250 O 0.64445 0.19044 0.36442 0.0
O251 O 0.67555 0.27307 0.36133 0.0
O252 O 0.67497 0.39012 1.01858 0.0
O253 O 0.64414 0.36563 0.14456 0.0
O254 O 0.71002 0.21984 0.19984 0.0
O255 O 0.71045 0.32008 0.95252 0.0
O256 O 0.67643 0.21207 0.7589 0.0
O257 O 0.64475 0.2425 0.75987 0.0
O258 O 0.64484 0.07072 0.96384 0.0
O259 O 0.67543 0.08725 0.09328 0.0
C260 C 0.6603 0.22953 0.45401 0.0
O261 O 0.60972 0.25202 0.96772 0.0
O262 O 0.61028 0.11716 0.13874 0.0
C263 C 0.65966 0.42413 0.08564 0.0
C264 C 0.73809 0.24162 1.00457 0.0
C265 C 0.77258 0.18411 0.86237 0.0
C266 C 0.77204 0.23052 1.0469 0.0
C267 C 0.75493 0.25896 0.11717 0.0
C268 C 0.7384 0.19389 0.82167 0.0
C269 C 0.75554 0.16537 0.75102 0.0
C270 C 0.72072 0.27801 0.07888 0.0
C271 C 0.6606 0.2284 0.66847 0.0
H272 H 0.5354 0.06497 0.11801 0.0
H273 H 0.5682 0.0387 1.04737 0.0
H274 H 0.58896 0.33853 0.23889 0.0
H275 H 0.556 0.36459 0.31854 0.0
H276 H 0.78484 0.24469 0.13725 0.0
H277 H 0.75491 0.29561 0.259 0.0
H278 H 0.72551 0.18009 0.73255 0.0
H279 H 0.75555 0.13075 0.60732 0.0
Tb280 Tb 0.42975 0.24706 0.06077 0.0
Tb281 Tb 0.38124 0.21041 0.06264 0.0
C282 C 0.40564 0.42431 1.02358 0.0
C283 C 0.48464 0.27008 0.13535 0.0
C284 C 0.52268 0.23961 0.22193 0.0
C285 C 0.51871 0.33267 0.15287 0.0
C286 C 0.4999 0.34765 0.11057 0.0
C287 C 0.48822 0.17929 0.21756 0.0
C288 C 0.5071 0.16443 0.26188 0.0
C289 C 0.466 0.28266 1.04782 0.0
O290 O 0.42115 0.26615 0.36414 0.0
O291 O 0.38996 0.18442 0.36142 0.0
O292 O 0.39067 0.06685 1.01858 0.0
O293 O 0.42148 0.09136 0.14467 0.0
O294 O 0.35547 0.2397 0.19439 0.0
O295 O 0.35524 0.13397 0.95642 0.0
O296 O 0.38915 0.24492 0.75871 0.0
O297 O 0.42082 0.21431 0.75956 0.0
O298 O 0.42078 0.38625 0.96374 0.0
O299 O 0.39019 0.36965 0.09328 0.0
C300 C 0.40528 0.22743 0.45383 0.0
O301 O 0.45589 0.20491 0.96706 0.0
O302 O 0.45531 0.33978 0.13809 0.0
C303 C 0.40596 0.03284 0.086 0.0
C304 C 0.3275 0.21298 0.99757 0.0
C305 C 0.29284 0.26415 0.84597 0.0
C306 C 0.29372 0.22874 1.03967 0.0
C307 C 0.3109 0.20336 0.11453 0.0
C308 C 0.32685 0.24999 0.80529 0.0
C309 C 0.30964 0.27534 0.73002 0.0
C310 C 0.34487 0.17879 0.07735 0.0
C311 C 0.40498 0.22857 0.66824 0.0
H312 H 0.5302 0.39191 0.11743 0.0
H313 H 0.49741 0.41817 1.04639 0.0
H314 H 0.47661 0.11849 0.2386 0.0
H315 H 0.50956 0.09245 0.31865 0.0
H316 H 0.28114 0.22076 0.13361 0.0
H317 H 0.31117 0.17487 0.26341 0.0
H318 H 0.33952 0.25768 0.71251 0.0
H319 H 0.30937 0.30153 0.5796 0.0
loop_
_geom_bond_atom_site_label_1
_geom_bond_atom_site_label_2
_geom_bond_distance
_geom_bond_site_symmetry_2
_ccdc_geom_bond_type
Tb0 C9 2.764 . S
Tb0 O10 2.325 . S
Tb0 O13 2.303 . S
Tb0 O17 2.322 . S
Tb0 O18 2.349 . S
Tb0 O21 2.415 . S
Tb0 O22 2.399 . S
Tb1 O11 2.322 . S
Tb1 O12 2.349 . S
Tb1 O14 2.415 . S
Tb1 O15 2.399 . S
Tb1 O16 2.325 . S
Tb1 O19 2.303 . S
Tb1 C30 2.764 . S
C2 O18 1.261 . S
C2 O19 1.257 . S
C3 C6 1.358 . S
C3 C7 1.332 . S
C3 C9 1.504 . S
C4 C5 1.373 . S
C4 C8 1.308 . S
C5 C4 1.373 . S
C5 C6 1.429 . S
C5 H32 0.932 . S
C6 C3 1.358 . S
C6 C5 1.429 . S
C6 H33 0.930 . S
C7 C3 1.332 . S
C7 C8 1.394 . S
C7 H34 0.932 . S
C8 C4 1.308 . S
C8 C7 1.394 . S
C8 H35 0.929 . S
C9 Tb0 2.764 . S
C9 C3 1.504 . S
C9 O21 1.239 . S
C9 O22 1.263 . S
O10 Tb0 2.325 . S
O10 C20 1.236 . S
O11 Tb1 2.322 . S
O11 C20 1.257 . S
O12 Tb1 2.349 . S
O12 C23 1.261 . S
O13 Tb0 2.303 . S
O13 C23 1.257 . S
O14 Tb1 2.415 . S
O14 C30 1.239 . S
O15 Tb1 2.399 . S
O15 C30 1.263 . S
O16 Tb1 2.325 . S
O16 C31 1.236 . S
O17 Tb0 2.322 . S
O17 C31 1.257 . S
O18 Tb0 2.349 . S
O18 C2 1.261 . S
O19 Tb1 2.303 . S
O19 C2 1.257 . S
C20 O10 1.236 . S
C20 O11 1.257 . S
O21 Tb0 2.415 . S
O21 C9 1.239 . S
O22 Tb0 2.399 . S
O22 C9 1.263 . S
C23 O12 1.261 . S
C23 O13 1.257 . S
C24 C27 1.358 . S
C24 C28 1.332 . S
C24 C30 1.504 . S
C25 C26 1.373 . S
C25 C29 1.308 . S
C26 C25 1.373 . S
C26 C27 1.429 . S
C26 H36 0.932 . S
C27 C24 1.358 . S
C27 C26 1.429 . S
C27 H37 0.930 . S
C28 C24 1.332 . S
C28 C29 1.394 . S
C28 H38 0.932 . S
C29 C25 1.308 . S
C29 C28 1.394 . S
C29 H39 0.929 1_554 S
C30 Tb1 2.764 . S
C30 O14 1.239 . S
C30 O15 1.263 . S
C30 C24 1.504 . S
C31 O16 1.236 . S
C31 O17 1.257 . S
H32 C5 0.932 . S
H33 C6 0.930 . S
H34 C7 0.932 . S
H35 C8 0.929 . S
H36 C26 0.932 . S
H37 C27 0.930 . S
H38 C28 0.932 . S
H39 C29 0.929 1_556 S
Tb40 C49 2.764 . S
Tb40 O50 2.325 . S
Tb40 O53 2.303 . S
Tb40 O57 2.322 . S
Tb40 O58 2.349 . S
Tb40 O61 2.415 . S
Tb40 O62 2.399 . S
Tb41 O51 2.322 . S
Tb41 O52 2.349 . S
Tb41 O54 2.415 . S
Tb41 O55 2.399 . S
Tb41 O56 2.325 . S
Tb41 O59 2.303 . S
Tb41 C70 2.764 . S
C42 O58 1.261 . S
C42 O59 1.257 . S
C43 C46 1.358 . S
C43 C47 1.332 . S
C43 C49 1.504 . S
C44 C45 1.373 . S
C44 C48 1.308 . S
C45 C44 1.373 . S
C45 C46 1.429 . S
C45 H72 0.932 . S
C46 C43 1.358 . S
C46 C45 1.429 . S
C46 H73 0.930 . S
C47 C43 1.332 . S
C47 C48 1.394 . S
C47 H74 0.932 . S
C48 C44 1.308 . S
C48 C47 1.394 . S
C48 H75 0.929 . S
C49 Tb40 2.764 . S
C49 C43 1.504 . S
C49 O61 1.239 . S
C49 O62 1.263 . S
O50 Tb40 2.325 . S
O50 C60 1.236 . S
O51 Tb41 2.322 . S
O51 C60 1.257 . S
O52 Tb41 2.349 . S
O52 C63 1.261 . S
O53 Tb40 2.303 . S
O53 C63 1.257 . S
O54 Tb41 2.415 . S
O54 C70 1.239 . S
O55 Tb41 2.399 . S
O55 C70 1.263 . S
O56 Tb41 2.325 . S
O56 C71 1.236 . S
O57 Tb40 2.322 . S
O57 C71 1.257 . S
O58 Tb40 2.349 . S
O58 C42 1.261 . S
O59 Tb41 2.303 . S
O59 C42 1.257 . S
C60 O50 1.236 . S
C60 O51 1.257 . S
O61 Tb40 2.415 . S
O61 C49 1.239 . S
O62 Tb40 2.399 . S
O62 C49 1.263 . S
C63 O52 1.261 . S
C63 O53 1.257 . S
C64 C67 1.358 . S
C64 C68 1.332 . S
C64 C70 1.504 . S
C65 C66 1.373 . S
C65 C69 1.308 . S
C66 C65 1.373 . S
C66 C67 1.429 . S
C66 H76 0.932 . S
C67 C64 1.358 . S
C67 C66 1.429 . S
C67 H77 0.930 . S
C68 C64 1.332 . S
C68 C69 1.394 . S
C68 H78 0.932 . S
C69 C65 1.308 . S
C69 C68 1.394 . S
C69 H79 0.929 1_554 S
C70 Tb41 2.764 . S
C70 O54 1.239 . S
C70 O55 1.263 . S
C70 C64 1.504 . S
C71 O56 1.236 . S
C71 O57 1.257 . S
H72 C45 0.932 . S
H73 C46 0.930 . S
H74 C47 0.932 . S
H75 C48 0.929 . S
H76 C66 0.932 . S
H77 C67 0.930 . S
H78 C68 0.932 . S
H79 C69 0.929 1_556 S
Tb80 C89 2.764 . S
Tb80 O90 2.325 . S
Tb80 O93 2.303 . S
Tb80 O97 2.322 . S
Tb80 O98 2.349 . S
Tb80 O101 2.415 . S
Tb80 O102 2.399 . S
Tb81 O91 2.322 . S
Tb81 O92 2.349 . S
Tb81 O94 2.415 . S
Tb81 O95 2.399 . S
Tb81 O96 2.325 . S
Tb81 O99 2.303 . S
Tb81 C110 2.764 . S
C82 O98 1.261 . S
C82 O99 1.257 . S
C83 C86 1.358 . S
C83 C87 1.332 . S
C83 C89 1.504 . S
C84 C85 1.373 . S
C84 C88 1.308 . S
C85 C84 1.373 . S
C85 C86 1.429 . S
C85 H112 0.932 . S
C86 C83 1.358 . S
C86 C85 1.429 . S
C86 H113 0.930 . S
C87 C83 1.332 . S
C87 C88 1.394 . S
C87 H114 0.932 . S
C88 C84 1.308 . S
C88 C87 1.394 . S
C88 H115 0.929 1_556 S
C89 Tb80 2.764 . S
C89 C83 1.504 . S
C89 O101 1.239 . S
C89 O102 1.263 . S
O90 Tb80 2.325 . S
O90 C100 1.236 . S
O91 Tb81 2.322 . S
O91 C100 1.257 . S
O92 Tb81 2.349 . S
O92 C103 1.261 . S
O93 Tb80 2.303 . S
O93 C103 1.257 . S
O94 Tb81 2.415 . S
O94 C110 1.239 . S
O95 Tb81 2.399 . S
O95 C110 1.263 . S
O96 Tb81 2.325 . S
O96 C111 1.236 . S
O97 Tb80 2.322 . S
O97 C111 1.257 . S
O98 Tb80 2.349 . S
O98 C82 1.261 . S
O99 Tb81 2.303 . S
O99 C82 1.257 . S
C100 O90 1.236 . S
C100 O91 1.257 . S
O101 Tb80 2.415 . S
O101 C89 1.239 . S
O102 Tb80 2.399 . S
O102 C89 1.263 . S
C103 O92 1.261 . S
C103 O93 1.257 . S
C104 C107 1.358 . S
C104 C108 1.332 . S
C104 C110 1.504 . S
C105 C106 1.373 . S
C105 C109 1.308 . S
C106 C105 1.373 . S
C106 C107 1.429 . S
C106 H116 0.932 . S
C107 C104 1.358 . S
C107 C106 1.429 . S
C107 H117 0.930 . S
C108 C104 1.332 . S
C108 C109 1.394 . S
C108 H118 0.932 . S
C109 C105 1.308 . S
C109 C108 1.394 . S
C109 H119 0.929 . S
C110 Tb81 2.764 . S
C110 O94 1.239 . S
C110 O95 1.263 . S
C110 C104 1.504 . S
C111 O96 1.236 . S
C111 O97 1.257 . S
H112 C85 0.932 . S
H113 C86 0.930 . S
H114 C87 0.932 . S
H115 C88 0.929 1_554 S
H116 C106 0.932 . S
H117 C107 0.930 . S
H118 C108 0.932 . S
H119 C109 0.929 . S
Tb120 C129 2.764 . S
Tb120 O130 2.325 . S
Tb120 O133 2.303 . S
Tb120 O137 2.322 . S
Tb120 O138 2.349 . S
Tb120 O141 2.415 . S
Tb120 O142 2.399 . S
Tb121 O131 2.322 . S
Tb121 O132 2.349 . S
Tb121 O134 2.415 . S
Tb121 O135 2.399 . S
Tb121 O136 2.325 . S
Tb121 O139 2.303 . S
Tb121 C150 2.764 . S
C122 O138 1.261 . S
C122 O139 1.257 . S
C123 C126 1.358 . S
C123 C127 1.332 . S
C123 C129 1.504 . S
C124 C125 1.373 . S
C124 C128 1.308 . S
C125 C124 1.373 . S
C125 C126 1.429 . S
C125 H152 0.932 . S
C126 C123 1.358 . S
C126 C125 1.429 . S
C126 H153 0.930 . S
C127 C123 1.332 . S
C127 C128 1.394 . S
C127 H154 0.932 . S
C128 C124 1.308 . S
C128 C127 1.394 . S
C128 H155 0.929 1_556 S
C129 Tb120 2.764 . S
C129 C123 1.504 . S
C129 O141 1.239 . S
C129 O142 1.263 . S
O130 Tb120 2.325 . S
O130 C140 1.236 . S
O131 Tb121 2.322 . S
O131 C140 1.257 . S
O132 Tb121 2.349 . S
O132 C143 1.261 . S
O133 Tb120 2.303 . S
O133 C143 1.257 . S
O134 Tb121 2.415 . S
O134 C150 1.239 . S
O135 Tb121 2.399 . S
O135 C150 1.263 . S
O136 Tb121 2.325 . S
O136 C151 1.236 . S
O137 Tb120 2.322 . S
O137 C151 1.257 . S
O138 Tb120 2.349 . S
O138 C122 1.261 . S
O139 Tb121 2.303 . S
O139 C122 1.257 . S
C140 O130 1.236 . S
C140 O131 1.257 . S
O141 Tb120 2.415 . S
O141 C129 1.239 . S
O142 Tb120 2.399 . S
O142 C129 1.263 . S
C143 O132 1.261 . S
C143 O133 1.257 . S
C144 C147 1.358 . S
C144 C148 1.332 . S
C144 C150 1.504 . S
C145 C146 1.373 . S
C145 C149 1.308 . S
C146 C145 1.373 . S
C146 C147 1.429 . S
C146 H156 0.932 . S
C147 C144 1.358 . S
C147 C146 1.429 . S
C147 H157 0.930 . S
C148 C144 1.332 . S
C148 C149 1.394 . S
C148 H158 0.932 . S
C149 C145 1.308 . S
C149 C148 1.394 . S
C149 H159 0.929 . S
C150 Tb121 2.764 . S
C150 O134 1.239 . S
C150 O135 1.263 . S
C150 C144 1.504 . S
C151 O136 1.236 . S
C151 O137 1.257 . S
H152 C125 0.932 . S
H153 C126 0.930 . S
H154 C127 0.932 . S
H155 C128 0.929 1_554 S
H156 C146 0.932 . S
H157 C147 0.930 . S
H158 C148 0.932 . S
H159 C149 0.929 . S
Tb160 C169 2.764 1_556 S
Tb160 O170 2.325 1_556 S
Tb160 O173 2.303 . S
Tb160 O177 2.322 . S
Tb160 O178 2.349 . S
Tb160 O181 2.415 1_556 S
Tb160 O182 2.399 1_556 S
Tb161 O171 2.322 . S
Tb161 O172 2.349 . S
Tb161 O174 2.415 1_554 S
Tb161 O175 2.399 1_554 S
Tb161 O176 2.325 1_554 S
Tb161 O179 2.303 . S
Tb161 C190 2.764 1_554 S
C162 O178 1.261 . S
C162 O179 1.257 1_556 S
C163 C166 1.358 . S
C163 C167 1.332 . S
C163 C169 1.504 . S
C164 C165 1.373 . S
C164 C168 1.308 . S
C165 C164 1.373 . S
C165 C166 1.429 . S
C165 H192 0.932 . S
C166 C163 1.358 . S
C166 C165 1.429 . S
C166 H193 0.930 . S
C167 C163 1.332 . S
C167 C168 1.394 . S
C167 H194 0.932 . S
C168 C164 1.308 . S
C168 C167 1.394 . S
C168 H195 0.929 . S
C169 Tb160 2.764 1_554 S
C169 C163 1.504 . S
C169 O181 1.239 . S
C169 O182 1.263 . S
O170 Tb160 2.325 1_554 S
O170 C180 1.236 . S
O171 Tb161 2.322 . S
O171 C180 1.257 . S
O172 Tb161 2.349 . S
O172 C183 1.261 . S
O173 Tb160 2.303 . S
O173 C183 1.257 1_556 S
O174 Tb161 2.415 1_556 S
O174 C190 1.239 . S
O175 Tb161 2.399 1_556 S
O175 C190 1.263 . S
O176 Tb161 2.325 1_556 S
O176 C191 1.236 . S
O177 Tb160 2.322 . S
O177 C191 1.257 . S
O178 Tb160 2.349 . S
O178 C162 1.261 . S
O179 Tb161 2.303 . S
O179 C162 1.257 1_554 S
C180 O170 1.236 . S
C180 O171 1.257 . S
O181 Tb160 2.415 1_554 S
O181 C169 1.239 . S
O182 Tb160 2.399 1_554 S
O182 C169 1.263 . S
C183 O172 1.261 . S
C183 O173 1.257 1_554 S
C184 C187 1.358 . S
C184 C188 1.332 . S
C184 C190 1.504 . S
C185 C186 1.373 . S
C185 C189 1.308 . S
C186 C185 1.373 . S
C186 C187 1.429 . S
C186 H196 0.932 . S
C187 C184 1.358 . S
C187 C186 1.429 . S
C187 H197 0.930 . S
C188 C184 1.332 . S
C188 C189 1.394 . S
C188 H198 0.932 . S
C189 C185 1.308 . S
C189 C188 1.394 . S
C189 H199 0.929 . S
C190 Tb161 2.764 1_556 S
C190 O174 1.239 . S
C190 O175 1.263 . S
C190 C184 1.504 . S
C191 O176 1.236 . S
C191 O177 1.257 . S
H192 C165 0.932 . S
H193 C166 0.930 . S
H194 C167 0.932 . S
H195 C168 0.929 . S
H196 C186 0.932 . S
H197 C187 0.930 . S
H198 C188 0.932 . S
H199 C189 0.929 . S
Tb200 C209 2.764 1_556 S
Tb200 O210 2.325 1_556 S
Tb200 O213 2.303 . S
Tb200 O217 2.322 . S
Tb200 O218 2.349 . S
Tb200 O221 2.415 1_556 S
Tb200 O222 2.399 1_556 S
Tb201 O211 2.322 . S
Tb201 O212 2.349 . S
Tb201 O214 2.415 1_554 S
Tb201 O215 2.399 1_554 S
Tb201 O216 2.325 1_554 S
Tb201 O219 2.303 . S
Tb201 C230 2.764 1_554 S
C202 O218 1.261 . S
C202 O219 1.257 1_556 S
C203 C206 1.358 . S
C203 C207 1.332 . S
C203 C209 1.504 . S
C204 C205 1.373 . S
C204 C208 1.308 . S
C205 C204 1.373 . S
C205 C206 1.429 . S
C205 H232 0.932 . S
C206 C203 1.358 . S
C206 C205 1.429 . S
C206 H233 0.930 . S
C207 C203 1.332 . S
C207 C208 1.394 . S
C207 H234 0.932 . S
C208 C204 1.308 . S
C208 C207 1.394 . S
C208 H235 0.929 . S
C209 Tb200 2.764 1_554 S
C209 C203 1.504 . S
C209 O221 1.239 . S
C209 O222 1.263 . S
O210 Tb200 2.325 1_554 S
O210 C220 1.236 . S
O211 Tb201 2.322 . S
O211 C220 1.257 . S
O212 Tb201 2.349 . S
O212 C223 1.261 . S
O213 Tb200 2.303 . S
O213 C223 1.257 1_556 S
O214 Tb201 2.415 1_556 S
O214 C230 1.239 . S
O215 Tb201 2.399 1_556 S
O215 C230 1.263 . S
O216 Tb201 2.325 1_556 S
O216 C231 1.236 . S
O217 Tb200 2.322 . S
O217 C231 1.257 . S
O218 Tb200 2.349 . S
O218 C202 1.261 . S
O219 Tb201 2.303 . S
O219 C202 1.257 1_554 S
C220 O210 1.236 . S
C220 O211 1.257 . S
O221 Tb200 2.415 1_554 S
O221 C209 1.239 . S
O222 Tb200 2.399 1_554 S
O222 C209 1.263 . S
C223 O212 1.261 . S
C223 O213 1.257 1_554 S
C224 C227 1.358 . S
C224 C228 1.332 . S
C224 C230 1.504 . S
C225 C226 1.373 . S
C225 C229 1.308 . S
C226 C225 1.373 . S
C226 C227 1.429 . S
C226 H236 0.932 . S
C227 C224 1.358 . S
C227 C226 1.429 . S
C227 H237 0.930 . S
C228 C224 1.332 . S
C228 C229 1.394 . S
C228 H238 0.932 . S
C229 C225 1.308 . S
C229 C228 1.394 . S
C229 H239 0.929 . S
C230 Tb201 2.764 1_556 S
C230 O214 1.239 . S
C230 O215 1.263 . S
C230 C224 1.504 . S
C231 O216 1.236 . S
C231 O217 1.257 . S
H232 C205 0.932 . S
H233 C206 0.930 . S
H234 C207 0.932 . S
H235 C208 0.929 . S
H236 C226 0.932 . S
H237 C227 0.930 . S
H238 C228 0.932 . S
H239 C229 0.929 . S
Tb240 C249 2.764 1_556 S
Tb240 O250 2.325 1_556 S
Tb240 O253 2.303 . S
Tb240 O257 2.322 . S
Tb240 O258 2.349 . S
Tb240 O261 2.415 1_556 S
Tb240 O262 2.399 1_556 S
Tb241 O251 2.322 . S
Tb241 O252 2.349 . S
Tb241 O254 2.415 1_554 S
Tb241 O255 2.399 1_554 S
Tb241 O256 2.325 1_554 S
Tb241 O259 2.303 . S
Tb241 C270 2.764 1_554 S
C242 O258 1.261 . S
C242 O259 1.257 1_556 S
C243 C246 1.358 . S
C243 C247 1.332 . S
C243 C249 1.504 . S
C244 C245 1.373 . S
C244 C248 1.308 . S
C245 C244 1.373 . S
C245 C246 1.429 . S
C245 H272 0.932 . S
C246 C243 1.358 . S
C246 C245 1.429 . S
C246 H273 0.930 . S
C247 C243 1.332 . S
C247 C248 1.394 . S
C247 H274 0.932 . S
C248 C244 1.308 . S
C248 C247 1.394 . S
C248 H275 0.929 . S
C249 Tb240 2.764 1_554 S
C249 C243 1.504 . S
C249 O261 1.239 . S
C249 O262 1.263 . S
O250 Tb240 2.325 1_554 S
O250 C260 1.236 . S
O251 Tb241 2.322 . S
O251 C260 1.257 . S
O252 Tb241 2.349 . S
O252 C263 1.261 . S
O253 Tb240 2.303 . S
O253 C263 1.257 1_556 S
O254 Tb241 2.415 1_556 S
O254 C270 1.239 . S
O255 Tb241 2.399 1_556 S
O255 C270 1.263 . S
O256 Tb241 2.325 1_556 S
O256 C271 1.236 . S
O257 Tb240 2.322 . S
O257 C271 1.257 . S
O258 Tb240 2.349 . S
O258 C242 1.261 . S
O259 Tb241 2.303 . S
O259 C242 1.257 1_554 S
C260 O250 1.236 . S
C260 O251 1.257 . S
O261 Tb240 2.415 1_554 S
O261 C249 1.239 . S
O262 Tb240 2.399 1_554 S
O262 C249 1.263 . S
C263 O252 1.261 . S
C263 O253 1.257 1_554 S
C264 C267 1.358 . S
C264 C268 1.332 . S
C264 C270 1.504 . S
C265 C266 1.373 . S
C265 C269 1.308 . S
C266 C265 1.373 . S
C266 C267 1.429 . S
C266 H276 0.932 . S
C267 C264 1.358 . S
C267 C266 1.429 . S
C267 H277 0.930 . S
C268 C264 1.332 . S
C268 C269 1.394 . S
C268 H278 0.932 . S
C269 C265 1.308 . S
C269 C268 1.394 . S
C269 H279 0.929 . S
C270 Tb241 2.764 1_556 S
C270 O254 1.239 . S
C270 O255 1.263 . S
C270 C264 1.504 . S
C271 O256 1.236 . S
C271 O257 1.257 . S
H272 C245 0.932 . S
H273 C246 0.930 . S
H274 C247 0.932 . S
H275 C248 0.929 . S
H276 C266 0.932 . S
H277 C267 0.930 . S
H278 C268 0.932 . S
H279 C269 0.929 . S
Tb280 C289 2.764 1_556 S
Tb280 O290 2.325 1_556 S
Tb280 O293 2.303 . S
Tb280 O297 2.322 . S
Tb280 O298 2.349 . S
Tb280 O301 2.415 1_556 S
Tb280 O302 2.399 1_556 S
Tb281 O291 2.322 . S
Tb281 O292 2.349 . S
Tb281 O294 2.415 1_554 S
Tb281 O295 2.399 1_554 S
Tb281 O296 2.325 1_554 S
Tb281 O299 2.303 . S
Tb281 C310 2.764 1_554 S
C282 O298 1.261 . S
C282 O299 1.257 1_556 S
C283 C286 1.358 . S
C283 C287 1.332 . S
C283 C289 1.504 . S
C284 C285 1.373 . S
C284 C288 1.308 . S
C285 C284 1.373 . S
C285 C286 1.429 . S
C285 H312 0.932 . S
C286 C283 1.358 . S
C286 C285 1.429 . S
C286 H313 0.930 . S
C287 C283 1.332 . S
C287 C288 1.394 . S
C287 H314 0.932 . S
C288 C284 1.308 . S
C288 C287 1.394 . S
C288 H315 0.929 . S
C289 Tb280 2.764 1_554 S
C289 C283 1.504 . S
C289 O301 1.239 . S
C289 O302 1.263 . S
O290 Tb280 2.325 1_554 S
O290 C300 1.236 . S
O291 Tb281 2.322 . S
O291 C300 1.257 . S
O292 Tb281 2.349 . S
O292 C303 1.261 . S
O293 Tb280 2.303 . S
O293 C303 1.257 1_556 S
O294 Tb281 2.415 1_556 S
O294 C310 1.239 . S
O295 Tb281 2.399 1_556 S
O295 C310 1.263 . S
O296 Tb281 2.325 1_556 S
O296 C311 1.236 . S
O297 Tb280 2.322 . S
O297 C311 1.257 . S
O298 Tb280 2.349 . S
O298 C282 1.261 . S
O299 Tb281 2.303 . S
O299 C282 1.257 1_554 S
C300 O290 1.236 . S
C300 O291 1.257 . S
O301 Tb280 2.415 1_554 S
O301 C289 1.239 . S
O302 Tb280 2.399 1_554 S
O302 C289 1.263 . S
C303 O292 1.261 . S
C303 O293 1.257 1_554 S
C304 C307 1.358 . S
C304 C308 1.332 . S
C304 C310 1.504 . S
C305 C306 1.373 . S
C305 C309 1.308 . S
C306 C305 1.373 . S
C306 C307 1.429 . S
C306 H316 0.932 . S
C307 C304 1.358 . S
C307 C306 1.429 . S
C307 H317 0.930 . S
C308 C304 1.332 . S
C308 C309 1.394 . S
C308 H318 0.932 . S
C309 C305 1.308 . S
C309 C308 1.394 . S
C309 H319 0.929 . S
C310 Tb281 2.764 1_556 S
C310 O294 1.239 . S
C310 O295 1.263 . S
C310 C304 1.504 . S
C311 O296 1.236 . S
C311 O297 1.257 . S
H312 C285 0.932 . S
H313 C286 0.930 . S
H314 C287 0.932 . S
H315 C288 0.929 . S
H316 C306 0.932 . S
H317 C307 0.930 . S
H318 C308 0.932 . S
H319 C309 0.929 . S
C4 C305 2.125 . S
C265 C44 2.125 . S
C204 C105 2.125 . S
C164 C145 2.125 . S
C103 C23 2.088 1_565 S
C63 C143 2.088 . S
C122 C42 2.088 1_565 S
C82 C2 2.088 . S
C183 C263 1.493 . S
C223 C303 1.493 1_565 S
C282 C202 1.492 . S
C242 C162 1.492 1_545 S
C31 C20 2.492 1_554 S
C71 C60 2.492 1_554 S
C111 C100 2.492 1_554 S
C140 C151 2.492 1_556 S
C180 C191 2.490 . S
C231 C220 2.490 . S
C260 C271 2.490 . S
C300 C311 2.490 . S
C25 C65 2.446 1_455 S
C124 C84 2.446 1_655 S
C185 C225 2.448 . S
C284 C244 2.448 . S
