# Generated by pormake.
# Topology gan, (5)-cn, num edge types: 1
# Building blocks:
#     Node 0, Type 0, BuildingBlock: XOMCOT_clean_sbu_0, # of connection points: 5
#     Node 1, Type 0, BuildingBlock: XOMCOT_clean_sbu_0, # of connection points: 5
#     Node 2, Type 0, BuildingBlock: XOMCOT_clean_sbu_0, # of connection points: 5
#     Node 3, Type 0, BuildingBlock: XOMCOT_clean_sbu_0, # of connection points: 5
#     Node 4, Type 0, BuildingBlock: XOMCOT_clean_sbu_0, # of connection points: 5
#     Node 5, Type 0, BuildingBlock: XOMCOT_clean_sbu_0, # of connection points: 5
#     Node 6, Type 0, BuildingBlock: XOMCOT_clean_sbu_0, # of connection points: 5
#     Node 7, Type 0, BuildingBlock: XOMCOT_clean_sbu_0, # of connection points: 5
#     Node 8, Type 0, BuildingBlock: XOMCOT_clean_sbu_0, # of connection points: 5
#     Node 9, Type 0, BuildingBlock: XOMCOT_clean_sbu_0, # of connection points: 5
#     Node 10, Type 0, BuildingBlock: XOMCOT_clean_sbu_0, # of connection points: 5
#     Node 11, Type 0, BuildingBlock: XOMCOT_clean_sbu_0, # of connection points: 5
#     Node 12, Type 0, BuildingBlock: XOMCOT_clean_sbu_0, # of connection points: 5
#     Node 13, Type 0, BuildingBlock: XOMCOT_clean_sbu_0, # of connection points: 5
#     Node 14, Type 0, BuildingBlock: XOMCOT_clean_sbu_0, # of connection points: 5
#     Node 15, Type 0, BuildingBlock: XOMCOT_clean_sbu_0, # of connection points: 5
#     Edge 16, Type (0, 0), BuildingBlock: ZUJKAS_clean_linker_0, # of connection points: 2
#     Edge 17, Type (0, 0), BuildingBlock: ZUJKAS_clean_linker_0, # of connection points: 2
#     Edge 18, Type (0, 0), BuildingBlock: ZUJKAS_clean_linker_0, # of connection points: 2
#     Edge 19, Type (0, 0), BuildingBlock: ZUJKAS_clean_linker_0, # of connection points: 2
#     Edge 20, Type (0, 0), BuildingBlock: ZUJKAS_clean_linker_0, # of connection points: 2
#     Edge 21, Type (0, 0), BuildingBlock: ZUJKAS_clean_linker_0, # of connection points: 2
#     Edge 22, Type (0, 0), BuildingBlock: ZUJKAS_clean_linker_0, # of connection points: 2
#     Edge 23, Type (0, 0), BuildingBlock: ZUJKAS_clean_linker_0, # of connection points: 2
#     Edge 24, Type (0, 0), BuildingBlock: ZUJKAS_clean_linker_0, # of connection points: 2
#     Edge 25, Type (0, 0), BuildingBlock: ZUJKAS_clean_linker_0, # of connection points: 2
#     Edge 26, Type (0, 0), BuildingBlock: ZUJKAS_clean_linker_0, # of connection points: 2
#     Edge 27, Type (0, 0), BuildingBlock: ZUJKAS_clean_linker_0, # of connection points: 2
#     Edge 28, Type (0, 0), BuildingBlock: ZUJKAS_clean_linker_0, # of connection points: 2
#     Edge 29, Type (0, 0), BuildingBlock: ZUJKAS_clean_linker_0, # of connection points: 2
#     Edge 30, Type (0, 0), BuildingBlock: ZUJKAS_clean_linker_0, # of connection points: 2
#     Edge 31, Type (0, 0), BuildingBlock: ZUJKAS_clean_linker_0, # of connection points: 2
#     Edge 32, Type (0, 0), BuildingBlock: ZUJKAS_clean_linker_0, # of connection points: 2
#     Edge 33, Type (0, 0), BuildingBlock: ZUJKAS_clean_linker_0, # of connection points: 2
#     Edge 34, Type (0, 0), BuildingBlock: ZUJKAS_clean_linker_0, # of connection points: 2
#     Edge 35, Type (0, 0), BuildingBlock: ZUJKAS_clean_linker_0, # of connection points: 2
#     Edge 36, Type (0, 0), BuildingBlock: ZUJKAS_clean_linker_0, # of connection points: 2
#     Edge 37, Type (0, 0), BuildingBlock: ZUJKAS_clean_linker_0, # of connection points: 2
#     Edge 38, Type (0, 0), BuildingBlock: ZUJKAS_clean_linker_0, # of connection points: 2
#     Edge 39, Type (0, 0), BuildingBlock: ZUJKAS_clean_linker_0, # of connection points: 2
#     Edge 40, Type (0, 0), BuildingBlock: ZUJKAS_clean_linker_0, # of connection points: 2
#     Edge 41, Type (0, 0), BuildingBlock: ZUJKAS_clean_linker_0, # of connection points: 2
#     Edge 42, Type (0, 0), BuildingBlock: ZUJKAS_clean_linker_0, # of connection points: 2
#     Edge 43, Type (0, 0), BuildingBlock: ZUJKAS_clean_linker_0, # of connection points: 2
#     Edge 44, Type (0, 0), BuildingBlock: ZUJKAS_clean_linker_0, # of connection points: 2
#     Edge 45, Type (0, 0), BuildingBlock: ZUJKAS_clean_linker_0, # of connection points: 2
#     Edge 46, Type (0, 0), BuildingBlock: ZUJKAS_clean_linker_0, # of connection points: 2
#     Edge 47, Type (0, 0), BuildingBlock: ZUJKAS_clean_linker_0, # of connection points: 2
#     Edge 48, Type (0, 0), BuildingBlock: ZUJKAS_clean_linker_0, # of connection points: 2
#     Edge 49, Type (0, 0), BuildingBlock: ZUJKAS_clean_linker_0, # of connection points: 2
#     Edge 50, Type (0, 0), BuildingBlock: ZUJKAS_clean_linker_0, # of connection points: 2
#     Edge 51, Type (0, 0), BuildingBlock: ZUJKAS_clean_linker_0, # of connection points: 2
#     Edge 52, Type (0, 0), BuildingBlock: ZUJKAS_clean_linker_0, # of connection points: 2
#     Edge 53, Type (0, 0), BuildingBlock: ZUJKAS_clean_linker_0, # of connection points: 2
#     Edge 54, Type (0, 0), BuildingBlock: ZUJKAS_clean_linker_0, # of connection points: 2
#     Edge 55, Type (0, 0), BuildingBlock: ZUJKAS_clean_linker_0, # of connection points: 2
# Relax obj value: 0.100
# Max RMSD: 0.110
# Mean RMSD: 0.099
data_MOF--net-gan--node1-XOMCOT_clean_sbu_0--edge1-ZUJKAS_clean_linker_0
_symmetry_space_group_name_H-M    P1
_symmetry_Int_Tables_number       1
_symmetry_cell_setting            triclinic
loop_
_symmetry_equiv_pos_as_xyz
'x, y, z'
_cell_length_a     52.752487
_cell_length_b     53.68799
_cell_length_c     52.937699
_cell_angle_alpha  90.896063
_cell_angle_beta   90.861141
_cell_angle_gamma 91.603403
loop_
_atom_site_label
_atom_site_type_symbol
_atom_site_fract_x
_atom_site_fract_y
_atom_site_fract_z
_atom_type_partial_charge
Co0 Co 0.1434 0.15338 0.15014 0.0
C1 C 0.17904 0.18366 0.18463 0.0
C2 C 0.19723 0.16977 0.15148 0.0
C3 C 0.21475 0.18364 0.16575 0.0
N4 N 0.17478 0.16971 0.16318 0.0
N5 N 0.20347 0.19251 0.18668 0.0
H6 H 0.1645 0.18757 0.19822 0.0
H7 H 0.20063 0.16041 0.13365 0.0
C8 C 0.15713 0.09994 0.14119 0.0
O9 O 0.13662 0.09219 0.15285 0.0
N10 N 0.11157 0.13718 0.13658 0.0
C11 C 0.0879 0.14168 0.1445 0.0
C12 C 0.07065 0.1265 0.13151 0.0
C13 C 0.10779 0.12007 0.11736 0.0
N14 N 0.083 0.11256 0.11457 0.0
C15 C 0.11742 0.15159 0.1972 0.0
C16 C 0.1464 0.11541 0.21884 0.0
C17 C 0.12447 0.12306 0.23107 0.0
C18 C 0.11047 0.14211 0.2205 0.0
C19 C 0.15252 0.12535 0.19547 0.0
N20 N 0.13681 0.14163 0.18398 0.0
H21 H 0.10707 0.16695 0.18985 0.0
H22 H 0.1697 0.11963 0.18653 0.0
H23 H 0.08295 0.15552 0.15835 0.0
H24 H 0.12282 0.11286 0.10594 0.0
O25 O 0.12696 0.18487 0.15213 0.0
O26 O 0.14701 0.17038 0.11859 0.0
O27 O 0.16298 0.12317 0.14041 0.0
C28 C 0.13417 0.18803 0.12897 0.0
H29 H 0.23449 0.18669 0.16111 0.0
H30 H 0.05033 0.12602 0.13416 0.0
H31 H 0.15818 0.10117 0.22671 0.0
H32 H 0.09415 0.1494 0.23 0.0
Co33 Co 0.15687 0.89533 0.40296 0.0
C34 C 0.12088 0.9259 0.43741 0.0
C35 C 0.16042 0.93193 0.44579 0.0
C36 C 0.14677 0.94758 0.46094 0.0
N37 N 0.14459 0.91791 0.43081 0.0
N38 N 0.12172 0.94429 0.45591 0.0
H39 H 0.10351 0.91912 0.42824 0.0
H40 H 0.18087 0.93155 0.44537 0.0
C41 C 0.20279 0.87704 0.43195 0.0
O42 O 0.19371 0.85407 0.43325 0.0
N43 N 0.16984 0.87383 0.37414 0.0
C44 C 0.1585 0.87222 0.35104 0.0
C45 C 0.17235 0.85788 0.33479 0.0
C46 C 0.19118 0.85974 0.3709 0.0
N47 N 0.19311 0.84979 0.34687 0.0
C48 C 0.12953 0.8491 0.40523 0.0
C49 C 0.1259 0.8479 0.45729 0.0
C50 C 0.11182 0.83057 0.44242 0.0
C51 C 0.11445 0.83073 0.4162 0.0
C52 C 0.14158 0.86555 0.44553 0.0
N53 N 0.14263 0.86643 0.41975 0.0
H54 H 0.12913 0.85035 0.38496 0.0
H55 H 0.1519 0.87924 0.45713 0.0
H56 H 0.141 0.88089 0.34584 0.0
H57 H 0.20553 0.85738 0.38532 0.0
O58 O 0.12729 0.90381 0.38357 0.0
O59 O 0.16453 0.92443 0.3839 0.0
O60 O 0.1905 0.8937 0.42059 0.0
C61 C 0.14096 0.92289 0.37623 0.0
H62 H 0.15498 0.96074 0.47465 0.0
H63 H 0.16734 0.85367 0.31525 0.0
H64 H 0.12402 0.8484 0.47764 0.0
H65 H 0.10328 0.81801 0.40412 0.0
Co66 Co 0.46437 0.91796 0.59484 0.0
C67 C 0.43132 0.8844 0.62935 0.0
C68 C 0.41546 0.88914 0.59232 0.0
C69 C 0.40004 0.87284 0.60525 0.0
N70 N 0.43526 0.89684 0.60715 0.0
N71 N 0.4098 0.86935 0.62861 0.0
H72 H 0.44436 0.8856 0.64533 0.0
H73 H 0.41247 0.89437 0.57292 0.0
C74 C 0.43361 0.94912 0.55885 0.0
O75 O 0.43961 0.97016 0.57076 0.0
N76 N 0.49401 0.93818 0.58164 0.0
C77 C 0.51769 0.93797 0.59177 0.0
C78 C 0.5343 0.95157 0.57724 0.0
C79 C 0.4972 0.95224 0.56028 0.0
N80 N 0.52175 0.96073 0.55727 0.0
C81 C 0.47198 0.95651 0.63238 0.0
C82 C 0.42133 0.96688 0.6381 0.0
C83 C 0.43934 0.97848 0.65447 0.0
C84 C 0.465 0.97341 0.65114 0.0
C85 C 0.42915 0.95016 0.6195 0.0
N86 N 0.45423 0.94519 0.61674 0.0
H87 H 0.49159 0.9516 0.63138 0.0
H88 H 0.4149 0.94078 0.60765 0.0
H89 H 0.52304 0.92826 0.60867 0.0
H90 H 0.48235 0.9554 0.54657 0.0
O91 O 0.48604 0.9016 0.61842 0.0
O92 O 0.47711 0.88866 0.57896 0.0
O93 O 0.4427 0.92858 0.56586 0.0
C94 C 0.48808 0.88474 0.60068 0.0
H95 H 0.3828 0.86404 0.59766 0.0
H96 H 0.55438 0.95443 0.58116 0.0
H97 H 0.40131 0.9703 0.63996 0.0
H98 H 0.47948 0.98144 0.66376 0.0
Co99 Co 0.30612 0.12491 0.90138 0.0
C100 C 0.27419 0.16114 0.86903 0.0
C101 C 0.27618 0.12417 0.85351 0.0
C102 C 0.26233 0.13849 0.83715 0.0
N103 N 0.28398 0.13803 0.87369 0.0
N104 N 0.26091 0.16202 0.84645 0.0
H105 H 0.27725 0.17709 0.88156 0.0
H106 H 0.28047 0.10475 0.8507 0.0
C107 C 0.35245 0.10939 0.87341 0.0
O108 O 0.36701 0.12056 0.89074 0.0
N109 N 0.3281 0.11139 0.92972 0.0
C110 C 0.32688 0.1196 0.95392 0.0
C111 C 0.34294 0.10666 0.96926 0.0
C112 C 0.34474 0.09194 0.93158 0.0
N113 N 0.3547 0.08917 0.95561 0.0
C114 C 0.32492 0.1713 0.92263 0.0
C115 C 0.35227 0.18614 0.88114 0.0
C116 C 0.35464 0.20014 0.90369 0.0
C117 C 0.33982 0.19308 0.92424 0.0
C118 C 0.33689 0.16459 0.88034 0.0
N119 N 0.32514 0.15636 0.90158 0.0
H120 H 0.31314 0.16662 0.93833 0.0
H121 H 0.33487 0.15427 0.86272 0.0
H122 H 0.31419 0.13346 0.96078 0.0
H123 H 0.34949 0.08 0.91581 0.0
O124 O 0.28058 0.13306 0.92552 0.0
O125 O 0.28329 0.09664 0.90545 0.0
O126 O 0.32834 0.10968 0.87509 0.0
C127 C 0.27196 0.11028 0.92213 0.0
H128 H 0.25373 0.13175 0.81956 0.0
H129 H 0.34511 0.10952 0.98947 0.0
H130 H 0.36288 0.19117 0.86455 0.0
H131 H 0.33999 0.2041 0.94156 0.0
Co132 Co 0.65946 0.39391 0.90796 0.0
C133 C 0.62434 0.42728 0.94116 0.0
C134 C 0.66215 0.44189 0.93736 0.0
C135 C 0.64889 0.45788 0.95256 0.0
N136 N 0.64711 0.42242 0.92963 0.0
N137 N 0.62489 0.44902 0.95536 0.0
H138 H 0.60781 0.41498 0.9399 0.0
H139 H 0.68189 0.44444 0.93258 0.0
C140 C 0.69024 0.36284 0.94321 0.0
O141 O 0.69079 0.34399 0.92718 0.0
N142 N 0.6717 0.36567 0.88578 0.0
C143 C 0.65637 0.34754 0.87546 0.0
C144 C 0.67004 0.33184 0.86039 0.0
C145 C 0.69501 0.36064 0.87546 0.0
N146 N 0.69456 0.3396 0.86013 0.0
C147 C 0.60697 0.38477 0.89979 0.0
C148 C 0.60146 0.34342 0.92987 0.0
C149 C 0.58054 0.3515 0.91586 0.0
C150 C 0.58343 0.37274 0.90111 0.0
C151 C 0.62481 0.35624 0.92823 0.0
N152 N 0.62737 0.37644 0.91301 0.0
H153 H 0.60863 0.40113 0.88833 0.0
H154 H 0.64078 0.34931 0.93856 0.0
H155 H 0.63615 0.34578 0.87795 0.0
H156 H 0.71199 0.37192 0.87933 0.0
O157 O 0.65108 0.41145 0.87772 0.0
O158 O 0.68829 0.41388 0.89787 0.0
O159 O 0.67549 0.38087 0.93947 0.0
C160 C 0.67403 0.42089 0.87923 0.0
H161 H 0.65665 0.47505 0.96082 0.0
H162 H 0.6621 0.31602 0.84976 0.0
H163 H 0.60003 0.32695 0.94137 0.0
H164 H 0.56762 0.38004 0.89054 0.0
Co165 Co 0.9675 0.41698 0.0954 0.0
C166 C 0.94015 0.38165 0.13341 0.0
C167 C 0.93599 0.3712 0.09434 0.0
C168 C 0.92083 0.35549 0.10824 0.0
N169 N 0.94831 0.38793 0.10969 0.0
N170 N 0.9231 0.3618 0.13292 0.0
H171 H 0.94548 0.39203 0.15044 0.0
H172 H 0.93692 0.37115 0.07394 0.0
C173 C 0.92998 0.42735 0.05624 0.0
O174 O 0.94833 0.4255 0.03989 0.0
N175 N 0.98551 0.44621 0.07996 0.0
C176 C 0.97759 0.46974 0.08259 0.0
C177 C 0.99272 0.48569 0.06887 0.0
C178 C 1.00556 0.44847 0.06371 0.0
N179 N 1.01056 0.47266 0.05683 0.0
C180 C 0.98197 0.44583 0.13891 0.0
C181 C 0.93371 0.45703 0.15437 0.0
C182 C 0.95472 0.46698 0.16813 0.0
C183 C 0.97908 0.46095 0.16025 0.0
C184 C 0.93744 0.44188 0.13311 0.0
N185 N 0.96137 0.43673 0.12551 0.0
H186 H 1.00088 0.44179 0.13276 0.0
H187 H 0.92106 0.43427 0.12286 0.0
H188 H 0.96135 0.47507 0.09345 0.0
H189 H 1.01625 0.43287 0.05697 0.0
O190 O 0.99914 0.40317 0.10557 0.0
O191 O 0.97958 0.39554 0.06873 0.0
O192 O 0.93494 0.42702 0.07978 0.0
C193 C 0.99867 0.39153 0.08386 0.0
H194 H 0.90844 0.34073 0.10057 0.0
H195 H 0.99016 0.50555 0.06737 0.0
H196 H 0.91454 0.46128 0.15965 0.0
H197 H 0.99585 0.46784 0.17047 0.0
Co198 Co 0.82476 0.635 0.39219 0.0
C199 C 0.79443 0.6726 0.35956 0.0
C200 C 0.80518 0.63944 0.33999 0.0
C201 C 0.79139 0.65377 0.32368 0.0
N202 N 0.80753 0.65091 0.36269 0.0
N203 N 0.78441 0.675 0.33549 0.0
H204 H 0.7922 0.68623 0.37458 0.0
H205 H 0.8125 0.62129 0.33563 0.0
C206 C 0.87578 0.62299 0.37012 0.0
O207 O 0.88809 0.63318 0.38961 0.0
N208 N 0.84142 0.6182 0.42232 0.0
C209 C 0.8332 0.6213 0.44622 0.0
C210 C 0.84723 0.60773 0.46288 0.0
C211 C 0.86033 0.601 0.42543 0.0
N212 N 0.86475 0.59487 0.45033 0.0
C213 C 0.84236 0.67628 0.42327 0.0
C214 C 0.87561 0.69602 0.38856 0.0
C215 C 0.87756 0.70409 0.41387 0.0
C216 C 0.8597 0.69502 0.43099 0.0
C217 C 0.85796 0.67712 0.38171 0.0
N218 N 0.8433 0.66603 0.3996 0.0
H219 H 0.82885 0.66941 0.43666 0.0
H220 H 0.85731 0.67024 0.36241 0.0
H221 H 0.81738 0.63239 0.45168 0.0
H222 H 0.87056 0.59287 0.40999 0.0
O223 O 0.79478 0.64023 0.41169 0.0
O224 O 0.80223 0.60652 0.38834 0.0
O225 O 0.8516 0.62278 0.36894 0.0
C226 C 0.78738 0.61805 0.4037 0.0
H227 H 0.78635 0.64822 0.30451 0.0
H228 H 0.84414 0.60699 0.48303 0.0
H229 H 0.8887 0.70294 0.37457 0.0
H230 H 0.85982 0.70162 0.45044 0.0
Co231 Co 0.88231 0.88751 0.92599 0.0
C232 C 0.92081 0.92156 0.95401 0.0
C233 C 0.90767 0.93653 0.91898 0.0
C234 C 0.92481 0.9533 0.93002 0.0
N235 N 0.90523 0.91636 0.93368 0.0
N236 N 0.93319 0.94409 0.95209 0.0
H237 H 0.92311 0.90915 0.96975 0.0
H238 H 0.89742 0.9392 0.90144 0.0
C239 C 0.89052 0.88352 0.86978 0.0
O240 O 0.89752 0.86029 0.87124 0.0
N241 N 0.85821 0.85911 0.91796 0.0
C242 C 0.84881 0.84259 0.93464 0.0
C243 C 0.83262 0.82566 0.92237 0.0
C244 C 0.84608 0.85237 0.89576 0.0
N245 N 0.83095 0.83154 0.89774 0.0
C246 C 0.91082 0.84394 0.93541 0.0
C247 C 0.95083 0.85649 0.90456 0.0
C248 C 0.94854 0.83217 0.91366 0.0
C249 C 0.92899 0.82635 0.93031 0.0
C250 C 0.9321 0.87348 0.9101 0.0
N251 N 0.91132 0.86629 0.92356 0.0
H252 H 0.89598 0.83925 0.94834 0.0
H253 H 0.93329 0.89175 0.90184 0.0
H254 H 0.85319 0.84269 0.95465 0.0
H255 H 0.84773 0.86254 0.87848 0.0
O256 O 0.87625 0.8844 0.96147 0.0
O257 O 0.85402 0.9074 0.93494 0.0
O258 O 0.88361 0.89576 0.88925 0.0
C259 C 0.85798 0.89982 0.95789 0.0
H260 H 0.9302 0.97133 0.92261 0.0
H261 H 0.8225 0.8104 0.93121 0.0
H262 H 0.96597 0.86185 0.89197 0.0
H263 H 0.92733 0.8081 0.93869 0.0
Co264 Co 0.90272 0.14664 0.64765 0.0
C265 C 0.86904 0.17928 0.68259 0.0
C266 C 0.90479 0.19615 0.67294 0.0
C267 C 0.89202 0.21247 0.68819 0.0
N268 N 0.89077 0.17507 0.66912 0.0
N269 N 0.86923 0.20237 0.69446 0.0
H270 H 0.85338 0.16589 0.68346 0.0
H271 H 0.92335 0.19958 0.66509 0.0
C272 C 0.95458 0.13958 0.67065 0.0
O273 O 0.95 0.11566 0.6737 0.0
N274 N 0.91508 0.11847 0.62522 0.0
C275 C 0.89934 0.10289 0.61168 0.0
C276 C 0.91293 0.08669 0.59717 0.0
C277 C 0.93877 0.11154 0.61718 0.0
N278 N 0.93798 0.09158 0.60043 0.0
C279 C 0.88005 0.10366 0.67 0.0
C280 C 0.90349 0.10995 0.71679 0.0
C281 C 0.89078 0.08734 0.71072 0.0
C282 C 0.87775 0.08483 0.68758 0.0
C283 C 0.90483 0.12854 0.69869 0.0
N284 N 0.8953 0.1241 0.67487 0.0
H285 H 0.87015 0.10138 0.65219 0.0
H286 H 0.91501 0.14582 0.70324 0.0
H287 H 0.87891 0.10352 0.61138 0.0
H288 H 0.95627 0.12099 0.62307 0.0
O289 O 0.87029 0.14499 0.6308 0.0
O290 O 0.90361 0.16784 0.61866 0.0
O291 O 0.93817 0.15351 0.66055 0.0
C292 C 0.88027 0.16009 0.61448 0.0
H293 H 0.89948 0.23054 0.69443 0.0
H294 H 0.90463 0.07274 0.58435 0.0
H295 H 0.91306 0.11282 0.73489 0.0
H296 H 0.86717 0.06787 0.68246 0.0
Co297 Co 0.71642 0.16207 0.34011 0.0
C298 C 0.7505 0.19626 0.30639 0.0
C299 C 0.7667 0.16171 0.3167 0.0
C300 C 0.78425 0.17524 0.30309 0.0
N301 N 0.74531 0.17461 0.31922 0.0
N302 N 0.77436 0.19715 0.29646 0.0
H303 H 0.73766 0.21142 0.30472 0.0
H304 H 0.76963 0.14357 0.32465 0.0
C305 C 0.75141 0.13973 0.37722 0.0
O306 O 0.74656 0.11767 0.36692 0.0
N307 N 0.68765 0.14941 0.36101 0.0
C308 C 0.6644 0.15899 0.35913 0.0
C309 C 0.64784 0.14627 0.3744 0.0
C310 C 0.68447 0.13025 0.37777 0.0
N311 N 0.66008 0.12808 0.38655 0.0
C312 C 0.69841 0.2115 0.3348 0.0
C313 C 0.70121 0.22403 0.38563 0.0
C314 C 0.68935 0.24023 0.36897 0.0
C315 C 0.68889 0.23413 0.34308 0.0
C316 C 0.71091 0.20183 0.37652 0.0
N317 N 0.70922 0.19563 0.3514 0.0
H318 H 0.69597 0.20618 0.31514 0.0
H319 H 0.71788 0.18891 0.39019 0.0
H320 H 0.65953 0.17413 0.3469 0.0
H321 H 0.6995 0.11816 0.38341 0.0
O322 O 0.69426 0.15965 0.31094 0.0
O323 O 0.71853 0.12938 0.32452 0.0
O324 O 0.74082 0.15892 0.36875 0.0
C325 C 0.70118 0.13669 0.30878 0.0
H326 H 0.80304 0.16924 0.29837 0.0
H327 H 0.62786 0.14997 0.37578 0.0
H328 H 0.70133 0.2274 0.40585 0.0
H329 H 0.68005 0.24608 0.32944 0.0
Co330 Co 0.57793 0.89218 0.14861 0.0
C331 C 0.6149 0.86093 0.18125 0.0
C332 C 0.59233 0.886 0.20254 0.0
C333 C 0.60681 0.8725 0.21904 0.0
N334 N 0.59721 0.87924 0.17858 0.0
N335 N 0.62139 0.8565 0.2061 0.0
H336 H 0.62262 0.8509 0.16538 0.0
H337 H 0.57845 0.89946 0.20791 0.0
C338 C 0.57807 0.94638 0.15792 0.0
O339 O 0.58399 0.94816 0.13397 0.0
N340 N 0.55707 0.90419 0.11865 0.0
C341 C 0.55515 0.89194 0.09618 0.0
C342 C 0.53852 0.90353 0.08018 0.0
C343 C 0.53977 0.92294 0.11572 0.0
N344 N 0.52855 0.92329 0.09205 0.0
C345 C 0.61642 0.8995 0.1111 0.0
C346 C 0.64984 0.92654 0.14244 0.0
C347 C 0.65649 0.92185 0.11739 0.0
C348 C 0.63952 0.90806 0.10166 0.0
C349 C 0.6265 0.91773 0.15108 0.0
N350 N 0.60974 0.90503 0.13526 0.0
H351 H 0.60441 0.88778 0.09914 0.0
H352 H 0.62184 0.92124 0.17059 0.0
H353 H 0.56468 0.87498 0.09149 0.0
H354 H 0.53488 0.93573 0.13074 0.0
O355 O 0.57867 0.85957 0.13401 0.0
O356 O 0.54867 0.87303 0.15953 0.0
O357 O 0.57298 0.92493 0.16713 0.0
C358 C 0.5583 0.85469 0.14668 0.0
H359 H 0.60578 0.87406 0.23938 0.0
H360 H 0.53418 0.89755 0.06095 0.0
H361 H 0.66259 0.93683 0.15529 0.0
H362 H 0.64444 0.90313 0.08246 0.0
Co363 Co 0.3964 0.63804 0.14952 0.0
C364 C 0.36192 0.6717 0.18241 0.0
C365 C 0.39232 0.69123 0.16419 0.0
C366 C 0.3787 0.70813 0.17801 0.0
N367 N 0.38203 0.66815 0.16648 0.0
N368 N 0.3594 0.69622 0.18972 0.0
H369 H 0.34924 0.6568 0.18834 0.0
H370 H 0.40894 0.69558 0.1532 0.0
C371 C 0.44646 0.63089 0.17548 0.0
O372 O 0.44409 0.60658 0.17298 0.0
N373 N 0.4114 0.60827 0.1318 0.0
C374 C 0.4001 0.58552 0.12875 0.0
C375 C 0.41467 0.57044 0.11386 0.0
C376 C 0.43325 0.60622 0.11786 0.0
N377 N 0.43573 0.58307 0.10668 0.0
C378 C 0.36137 0.60425 0.17258 0.0
C379 C 0.38019 0.60971 0.22135 0.0
C380 C 0.35868 0.59436 0.21673 0.0
C381 C 0.3492 0.5918 0.19202 0.0
C382 C 0.39195 0.62169 0.20127 0.0
N383 N 0.38311 0.61817 0.17701 0.0
H384 H 0.35279 0.60305 0.15398 0.0
H385 H 0.40735 0.63469 0.20567 0.0
H386 H 0.38202 0.57983 0.1361 0.0
H387 H 0.44675 0.62153 0.11549 0.0
O388 O 0.36748 0.63578 0.12709 0.0
O389 O 0.40319 0.65698 0.11949 0.0
O390 O 0.4293 0.64527 0.16759 0.0
C391 C 0.38058 0.64963 0.11187 0.0
H392 H 0.38307 0.72792 0.17961 0.0
H393 H 0.40986 0.5513 0.10863 0.0
H394 H 0.38787 0.61248 0.24031 0.0
H395 H 0.33215 0.58069 0.18781 0.0
Co396 Co 0.22502 0.65479 0.84234 0.0
C397 C 0.19054 0.62218 0.87594 0.0
C398 C 0.21494 0.60132 0.85205 0.0
C399 C 0.20046 0.58491 0.86598 0.0
N400 N 0.20884 0.62485 0.85791 0.0
N401 N 0.18479 0.59769 0.88112 0.0
H402 H 0.18139 0.63779 0.88478 0.0
H403 H 0.2292 0.59633 0.83856 0.0
C404 C 0.21565 0.64423 0.78758 0.0
O405 O 0.20874 0.66743 0.78534 0.0
N406 N 0.24237 0.68504 0.82739 0.0
C407 C 0.24602 0.70685 0.84023 0.0
C408 C 0.26092 0.72308 0.82678 0.0
C409 C 0.25664 0.68861 0.80603 0.0
N410 N 0.26794 0.71197 0.80512 0.0
C411 C 0.18546 0.69046 0.84478 0.0
C412 C 0.14813 0.6601 0.82217 0.0
C413 C 0.14212 0.68407 0.83034 0.0
C414 C 0.16111 0.69933 0.84174 0.0
C415 C 0.17287 0.65205 0.82532 0.0
N416 N 0.19138 0.6674 0.83598 0.0
H417 H 0.19909 0.70179 0.85527 0.0
H418 H 0.177 0.63319 0.81967 0.0
H419 H 0.23948 0.71076 0.85906 0.0
H420 H 0.25967 0.67419 0.792 0.0
O421 O 0.23091 0.66845 0.87569 0.0
O422 O 0.25765 0.64474 0.85473 0.0
O423 O 0.22439 0.63675 0.8087 0.0
C424 C 0.25257 0.65744 0.87513 0.0
H425 H 0.20186 0.56486 0.86518 0.0
H426 H 0.26651 0.74178 0.83291 0.0
H427 H 0.13378 0.64757 0.8138 0.0
H428 H 0.15689 0.71757 0.84938 0.0
Co429 Co 0.0716 0.39096 0.65552 0.0
C430 C 0.10499 0.35565 0.68754 0.0
C431 C 0.09881 0.39101 0.70531 0.0
C432 C 0.11263 0.37664 0.72161 0.0
N433 N 0.09385 0.37829 0.6836 0.0
N434 N 0.11665 0.35406 0.71094 0.0
H435 H 0.10394 0.34043 0.67389 0.0
H436 H 0.09237 0.40955 0.70944 0.0
C437 C 0.08907 0.44407 0.65246 0.0
O438 O 0.09116 0.44045 0.62797 0.0
N439 N 0.04796 0.40303 0.62763 0.0
C440 C 0.03623 0.38731 0.6107 0.0
C441 C 1.02134 0.40015 0.59413 0.0
C442 C 0.03823 0.42584 0.6211 0.0
N443 N 0.02246 0.42466 0.60003 0.0
C444 C 0.09842 0.37976 0.60969 0.0
C445 C 0.14437 0.40063 0.62626 0.0
C446 C 0.14211 0.39125 0.6015 0.0
C447 C 0.11892 0.38037 0.59333 0.0
C448 C 0.1234 0.39984 0.64186 0.0
N449 N 0.10047 0.39047 0.6332 0.0
H450 H 0.08109 0.3705 0.60342 0.0
H451 H 0.12542 0.40758 0.66077 0.0
H452 H 0.03811 0.36733 0.61014 0.0
H453 H 0.04238 0.44301 0.63144 0.0
O454 O 0.05941 0.35748 0.64999 0.0
O455 O 0.04275 0.38474 0.67674 0.0
O456 O 0.08036 0.42653 0.66627 0.0
C457 C 0.04292 0.36215 0.66733 0.0
H458 H 0.1192 0.38271 0.74021 0.0
H459 H 1.01002 0.39166 0.57893 0.0
H460 H 0.16201 0.4091 0.63333 0.0
H461 H 0.11674 0.37219 0.57456 0.0
Co462 Co 0.64034 0.63509 0.67101 0.0
C463 C 0.60554 0.60039 0.64008 0.0
C464 C 0.60145 0.59569 0.68002 0.0
C465 C 0.58517 0.57901 0.66745 0.0
N466 N 0.61442 0.60905 0.66298 0.0
N467 N 0.58766 0.58175 0.64224 0.0
H468 H 0.61239 0.6073 0.62226 0.0
H469 H 0.60364 0.59793 0.70028 0.0
C470 C 0.67571 0.61218 0.7064 0.0
O471 O 0.69372 0.62118 0.69196 0.0
N472 N 0.66552 0.66222 0.67976 0.0
C473 C 0.67403 0.68041 0.66444 0.0
C474 C 0.68825 0.69783 0.67825 0.0
C475 C 0.67394 0.67 0.70323 0.0
N476 N 0.68835 0.69144 0.70278 0.0
C477 C 0.67234 0.62865 0.628 0.0
C478 C 0.67662 0.57769 0.63307 0.0
C479 C 0.68579 0.58911 0.61142 0.0
C480 C 0.68419 0.61496 0.60924 0.0
C481 C 0.66546 0.59217 0.65171 0.0
N482 N 0.66325 0.61738 0.64904 0.0
H483 H 0.66871 0.64782 0.62441 0.0
H484 H 0.65693 0.58274 0.66746 0.0
H485 H 0.66892 0.68231 0.6448 0.0
H486 H 0.66872 0.66077 0.72048 0.0
O487 O 0.62528 0.65574 0.64627 0.0
O488 O 0.61485 0.65486 0.68687 0.0
O489 O 0.65242 0.61597 0.701 0.0
C490 C 0.61152 0.66417 0.6645 0.0
H491 H 0.57218 0.56606 0.67639 0.0
H492 H 0.69734 0.71434 0.67066 0.0
H493 H 0.67709 0.55765 0.63506 0.0
H494 H 0.69026 0.62425 0.59225 0.0
Co495 Co 0.39335 0.38336 0.41898 0.0
C496 C 0.4225 0.42056 0.4533 0.0
C497 C 0.42812 0.42626 0.41374 0.0
C498 C 0.4429 0.44349 0.42721 0.0
N499 N 0.41512 0.41186 0.42989 0.0
N500 N 0.43953 0.4401 0.45219 0.0
H501 H 0.41574 0.41269 0.47072 0.0
H502 H 0.42747 0.42395 0.39343 0.0
C503 C 0.37197 0.41271 0.37917 0.0
O504 O 0.38999 0.40193 0.36647 0.0
N505 N 0.37185 0.35478 0.40752 0.0
C506 C 0.36495 0.33542 0.422 0.0
C507 C 0.34922 0.31926 0.40813 0.0
C508 C 0.36028 0.34982 0.38471 0.0
N509 N 0.34609 0.32821 0.38461 0.0
C510 C 0.42925 0.35907 0.45077 0.0
C511 C 0.45621 0.34068 0.41042 0.0
C512 C 0.46653 0.3394 0.43494 0.0
C513 C 0.45246 0.34806 0.45535 0.0
C514 C 0.43309 0.35208 0.40667 0.0
N515 N 0.42045 0.36163 0.42662 0.0
H516 H 0.41921 0.36684 0.46651 0.0
H517 H 0.42588 0.3547 0.38769 0.0
H518 H 0.37092 0.33318 0.44145 0.0
H519 H 0.36181 0.36184 0.36862 0.0
O520 O 0.37783 0.3817 0.45331 0.0
O521 O 0.36213 0.40344 0.42426 0.0
O522 O 0.36882 0.40723 0.4026 0.0
C523 C 0.36029 0.39607 0.44716 0.0
H524 H 0.45586 0.45699 0.41905 0.0
H525 H 0.34096 0.30199 0.4149 0.0
H526 H 0.46667 0.33446 0.39415 0.0
H527 H 0.45981 0.34725 0.47452 0.0
H528 H 0.19143 0.19569 0.23679 0.0
H529 H 0.21402 0.22024 0.27024 0.0
H530 H 0.26629 0.24881 0.21532 0.0
H531 H 0.24378 0.22482 0.18205 0.0
H532 H 0.26523 0.21801 0.28625 0.0
H533 H 0.2465 0.31267 0.25171 0.0
H534 H 0.22881 0.28538 0.24032 0.0
H535 H 0.25987 0.2925 0.22838 0.0
C536 C 0.2075 0.20746 0.23177 0.0
C537 C 0.21565 0.20807 0.20653 0.0
C538 C 0.22056 0.22145 0.25099 0.0
C539 C 0.24186 0.23679 0.24548 0.0
C540 C 0.24977 0.2376 0.22026 0.0
H541 H 0.35177 0.33225 0.33338 0.0
H542 H 0.32674 0.31034 0.29982 0.0
C543 C 0.23692 0.22354 0.20115 0.0
C544 C 0.25646 0.25117 0.26603 0.0
H545 H 0.27767 0.30987 0.2844 0.0
C546 C 0.26773 0.23812 0.2859 0.0
C547 C 0.26019 0.27747 0.26569 0.0
C548 C 0.24804 0.2929 0.24552 0.0
C549 C 0.28284 0.25035 0.3049 0.0
C550 C 0.28643 0.27671 0.30472 0.0
C551 C 0.27514 0.28976 0.28481 0.0
C552 C 0.3014 0.29096 0.32517 0.0
C553 C 0.29552 0.23465 0.32453 0.0
C554 C 0.29534 0.28825 0.35079 0.0
C555 C 0.30969 0.30068 0.36998 0.0
C556 C 0.33051 0.31663 0.36433 0.0
C557 C 0.33599 0.32019 0.33861 0.0
C558 C 0.32165 0.30754 0.31934 0.0
H559 H 0.2978 0.21521 0.31759 0.0
H560 H 0.3145 0.24257 0.33009 0.0
H561 H 0.28357 0.23388 0.34159 0.0
H562 H 0.27937 0.27646 0.35608 0.0
H563 H 0.30429 0.29785 0.38938 0.0
H564 H 0.93535 0.04321 0.58333 0.0
H565 H 0.96591 0.02011 0.55909 0.0
H566 H 1.01794 0.08332 0.56303 0.0
H567 H 0.98692 0.10688 0.58763 0.0
H568 H 0.98537 0.02456 0.51419 0.0
H569 H 0.0671 0.03108 0.58079 0.0
H570 H 0.03589 0.04053 0.58965 0.0
H571 H 0.05598 0.06091 0.57152 0.0
C572 C 0.95319 0.05255 0.57913 0.0
C573 C 0.95805 0.07744 0.58767 0.0
C574 C 0.97096 0.03901 0.56507 0.0
C575 C 0.99488 0.04935 0.55885 0.0
C576 C 1.00011 0.07416 0.56765 0.0
H577 H 0.12553 0.99245 0.47338 0.0
H578 H 0.09499 1.01635 0.49695 0.0
C579 C 0.98215 0.08787 0.58185 0.0
C580 C 1.01347 0.03413 0.54286 0.0
H581 H 0.07463 1.01307 0.54062 0.0
C582 C 1.00486 0.0221 0.52019 0.0
C583 C 0.03922 0.03037 0.55 0.0
C584 C 0.05011 0.04117 0.57441 0.0
C585 C 1.02082 1.00737 0.50471 0.0
C586 C 0.04655 1.0035 0.5119 0.0
C587 C 0.05516 1.01556 0.53457 0.0
C588 C 0.06507 0.98799 0.49608 0.0
C589 C 1.00993 0.9968 0.48019 0.0
C590 C 0.05931 0.96343 0.48684 0.0
C591 C 0.07717 0.94936 0.47289 0.0
C592 C 0.10173 0.95911 0.46787 0.0
C593 C 0.10721 0.98373 0.47688 0.0
C594 C 0.08947 0.99768 0.49059 0.0
H595 H 0.99331 1.00736 0.47364 0.0
H596 H 0.0243 0.99703 0.46509 0.0
H597 H 1.00341 0.97723 0.48307 0.0
H598 H 0.04115 0.95469 0.49095 0.0
H599 H 0.072 0.93054 0.4668 0.0
H600 H 0.30634 0.74599 0.81456 0.0
H601 H 0.33064 0.77053 0.78465 0.0
H602 H 0.29388 0.72996 0.72286 0.0
H603 H 0.26847 0.70572 0.75318 0.0
H604 H 0.36487 0.76328 0.75106 0.0
H605 H 0.28226 0.79836 0.69826 0.0
H606 H 0.27878 0.78118 0.72705 0.0
H607 H 0.28365 0.76502 0.69753 0.0
C608 C 0.30313 0.74221 0.79462 0.0
C609 C 0.28482 0.72384 0.78661 0.0
C610 C 0.31736 0.75637 0.77731 0.0
C611 C 0.31406 0.75302 0.75102 0.0
C612 C 0.29658 0.73387 0.74284 0.0
H613 H 0.38038 0.82746 0.61911 0.0
H614 H 0.3587 0.80053 0.64882 0.0
C615 C 0.2822 0.71956 0.76031 0.0
C616 C 0.32895 0.76967 0.73279 0.0
H617 H 0.32274 0.80887 0.68229 0.0
C618 C 0.35547 0.77324 0.7361 0.0
C619 C 0.31727 0.78317 0.71304 0.0
C620 C 0.28892 0.782 0.70884 0.0
C621 C 0.37029 0.78906 0.72036 0.0
C622 C 0.3586 0.80247 0.70059 0.0
C623 C 0.33211 0.79888 0.69725 0.0
C624 C 0.37332 0.81941 0.68254 0.0
C625 C 0.3986 0.79065 0.72473 0.0
C626 C 0.38944 0.83958 0.6909 0.0
C627 C 0.40209 0.85551 0.67355 0.0
C628 C 0.39892 0.852 0.64717 0.0
C629 C 0.38317 0.83151 0.63904 0.0
C630 C 0.37063 0.81577 0.65624 0.0
H631 H 0.40543 0.77453 0.73556 0.0
H632 H 0.40881 0.79143 0.70655 0.0
H633 H 0.40357 0.80787 0.7358 0.0
H634 H 0.39181 0.84348 0.71092 0.0
H635 H 0.41374 0.871 0.68082 0.0
H636 H 0.38812 0.09915 0.99451 0.0
H637 H 0.41639 0.07126 1.0163 0.0
H638 H 0.39334 1.01166 0.96487 0.0
H639 H 0.36484 0.04004 0.94259 0.0
H640 H 0.41041 0.03256 0.04373 0.0
H641 H 0.46692 0.99953 0.96348 0.0
H642 H 0.44538 0.02484 0.96047 0.0
H643 H 0.43361 0.99302 0.95907 0.0
C644 C 0.38894 0.08014 0.98754 0.0
C645 C 0.37367 0.07227 0.96645 0.0
C646 C 0.40539 0.06395 1.00026 0.0
C647 C 0.4078 0.03883 0.99268 0.0
C648 C 0.39284 0.03086 0.97129 0.0
H649 H 0.49475 0.91266 0.05318 0.0
H650 H 0.46683 0.9404 0.03079 0.0
C651 C 0.37626 0.04724 0.95836 0.0
C652 C 0.4253 0.02149 1.00775 0.0
H653 H 0.47327 0.97931 1.00245 0.0
C654 C 0.42419 0.02107 0.03447 0.0
C655 C 0.44373 1.00605 0.99648 0.0
C656 C 0.44774 1.00599 0.96835 0.0
C657 C 0.44 1.00588 0.04967 0.0
C658 C 0.45842 0.99046 0.0384 0.0
C659 C 0.45951 0.99082 1.01168 0.0
C660 C 0.47597 0.97328 0.05356 0.0
C661 C 0.43605 1.006 0.07781 0.0
C662 C 0.49121 0.98161 0.07459 0.0
C663 C 0.50769 0.96538 0.0878 0.0
C664 C 0.5099 0.94008 0.08043 0.0
C665 C 0.49438 0.93186 0.05963 0.0
C666 C 0.47806 0.94796 0.04656 0.0
H667 H 0.41692 1.01253 0.08273 0.0
H668 H 0.43838 0.98715 0.0857 0.0
H669 H 0.45027 1.01892 0.08703 0.0
H670 H 0.49093 1.00096 0.08055 0.0
H671 H 0.51928 0.97289 0.10332 0.0
H672 H 0.33635 0.67929 0.23323 0.0
H673 H 0.30872 0.70281 0.26197 0.0
H674 H 0.31307 0.76566 0.21262 0.0
H675 H 0.34034 0.74254 0.18428 0.0
H676 H 0.3173 0.75096 0.28905 0.0
H677 H 0.23613 0.75747 0.2224 0.0
H678 H 0.26086 0.73532 0.21791 0.0
H679 H 0.26596 0.76735 0.20947 0.0
C680 C 0.33115 0.69798 0.22829 0.0
C681 C 0.34084 0.70868 0.20602 0.0
C682 C 0.31539 0.71166 0.24497 0.0
C683 C 0.30823 0.73638 0.23982 0.0
C684 C 0.31766 0.74676 0.21739 0.0
H685 H 0.21141 0.85453 0.29938 0.0
H686 H 0.23916 0.82708 0.2761 0.0
C687 C 0.33357 0.73336 0.20104 0.0
C688 C 0.29127 0.75157 0.25747 0.0
H689 H 0.23557 0.78363 0.2588 0.0
C690 C 0.2993 0.75786 0.28242 0.0
C691 C 0.26766 0.76116 0.24939 0.0
C692 C 0.25694 0.75486 0.22343 0.0
C693 C 0.28525 0.77377 0.2987 0.0
C694 C 0.26161 0.78353 0.29053 0.0
C695 C 0.25346 0.77673 0.26569 0.0
C696 C 0.24547 0.80141 0.30654 0.0
C697 C 0.29672 0.78083 0.32414 0.0
C698 C 0.23922 0.7973 0.33223 0.0
C699 C 0.22334 0.81366 0.34602 0.0
C700 C 0.21259 0.83462 0.3346 0.0
C701 C 0.21907 0.83877 0.30912 0.0
C702 C 0.23507 0.82275 0.29556 0.0
H703 H 0.31761 0.77863 0.32446 0.0
H704 H 0.29271 0.8004 0.32941 0.0
H705 H 0.28858 0.76838 0.33865 0.0
H706 H 0.2459 0.78092 0.34158 0.0
H707 H 0.21858 0.80926 0.36529 0.0
H708 H 0.50363 1.00166 0.53268 0.0
H709 H 0.52696 0.02908 0.50332 0.0
H710 H 0.59117 0.98151 0.50778 0.0
H711 H 0.56817 0.95446 0.53688 0.0
H712 H 0.57488 0.05599 0.51174 0.0
H713 H 0.58378 0.99009 0.43106 0.0
H714 H 0.56106 0.98509 0.45579 0.0
H715 H 0.59384 0.97819 0.461 0.0
C716 C 0.52252 0.99678 0.52703 0.0
C717 C 0.53375 0.97554 0.5373 0.0
C718 C 0.53605 1.01265 0.51029 0.0
C719 C 0.56108 1.00757 0.50277 0.0
C720 C 0.57195 0.98603 0.51262 0.0
H721 H 0.67524 0.08142 0.40176 0.0
H722 H 0.65276 0.0525 0.43022 0.0
C723 C 0.55867 0.97048 0.52953 0.0
C724 C 0.5763 0.02503 0.48567 0.0
H725 H 0.6083 0.02773 0.4294 0.0
C726 C 0.58195 0.04975 0.49365 0.0
C727 C 0.58631 1.01724 0.46209 0.0
C728 C 0.58083 0.99129 0.45178 0.0
C729 C 0.59724 0.06642 0.4793 0.0
C730 C 0.60682 0.05887 0.45536 0.0
C731 C 0.60128 0.03402 0.44748 0.0
C732 C 0.6215 0.07668 0.43802 0.0
C733 C 0.60371 0.09179 0.49066 0.0
C734 C 0.61196 0.10018 0.43222 0.0
C735 C 0.62496 0.11683 0.41626 0.0
C736 C 0.64805 0.11078 0.40458 0.0
C737 C 0.65777 0.08718 0.41025 0.0
C738 C 0.64467 0.07042 0.42654 0.0
H739 H 0.60352 0.09139 0.51164 0.0
H740 H 0.62267 0.09879 0.48473 0.0
H741 H 0.58924 0.10513 0.48452 0.0
H742 H 0.594 0.10574 0.43979 0.0
H743 H 0.61657 0.13468 0.41313 0.0
H744 H 0.23939 0.20453 0.86666 0.0
H745 H 0.21512 0.23628 0.84403 0.0
H746 H 0.22912 0.19872 0.77342 0.0
H747 H 0.25279 0.16736 0.79559 0.0
H748 H 0.22323 0.27096 0.80881 0.0
H749 H 0.15508 0.20389 0.76349 0.0
H750 H 0.17696 0.19474 0.78788 0.0
H751 H 0.18706 0.19703 0.75559 0.0
C752 C 0.23738 0.203 0.84632 0.0
C753 C 0.24803 0.18258 0.83341 0.0
C754 C 0.22326 0.22131 0.83319 0.0
C755 C 0.21905 0.22002 0.80661 0.0
C756 C 0.23064 0.2002 0.7938 0.0
H757 H 0.14028 0.31306 0.68985 0.0
H758 H 0.16482 0.28118 0.71201 0.0
C759 C 0.24456 0.18201 0.80677 0.0
C760 C 0.20321 0.23924 0.79214 0.0
H761 H 0.1553 0.24508 0.74738 0.0
C762 C 0.20828 0.26508 0.79558 0.0
C763 C 0.18342 0.23242 0.77438 0.0
C764 C 0.1751 0.20554 0.77027 0.0
C765 C 0.19507 0.28359 0.78186 0.0
C766 C 0.17535 0.27676 0.76406 0.0
C767 C 0.17027 0.25094 0.7606 0.0
C768 C 0.15941 0.296 0.7498 0.0
C769 C 0.2031 0.31052 0.78616 0.0
C770 C 0.14695 0.31502 0.76296 0.0
C771 C 0.13277 0.3332 0.75029 0.0
C772 C 0.13004 0.33354 0.72357 0.0
C773 C 0.1417 0.31394 0.71026 0.0
C774 C 0.15597 0.29555 0.72311 0.0
H775 H 0.22298 0.31234 0.79332 0.0
H776 H 0.20144 0.32132 0.76853 0.0
H777 H 0.19074 0.31891 0.80058 0.0
H778 H 0.14798 0.31583 0.78339 0.0
H779 H 0.12374 0.34707 0.76183 0.0
H780 H 0.04342 0.08194 0.12614 0.0
H781 H 1.0212 0.05113 0.09906 0.0
H782 H 0.07275 0.06786 0.03877 0.0
H783 H 0.09569 0.09842 0.06647 0.0
H784 H 0.99457 0.05582 0.05872 0.0
H785 H 0.07274 0.9943 0.03257 0.0
H786 H 0.07648 1.0181 0.05685 0.0
H787 H 0.07884 0.02606 0.02402 0.0
C788 C 0.0502 0.07903 0.10716 0.0
C789 C 0.07135 0.09293 0.09855 0.0
C790 C 0.0374 0.06126 0.09157 0.0
C791 C 0.04511 0.05668 0.06665 0.0
C792 C 0.06652 0.07032 0.05801 0.0
H793 H 0.97336 0.97378 0.93987 0.0
H794 H 1.00055 0.99957 0.96822 0.0
C795 C 0.07965 0.08799 0.07385 0.0
C796 C 0.0298 0.03856 0.04982 0.0
H797 H 0.03358 0.98762 1.01008 0.0
C798 C 1.00324 0.04081 0.04831 0.0
C799 C 0.0407 1.01876 0.03598 0.0
C800 C 0.06871 1.01395 0.03759 0.0
C801 C 0.9876 0.02437 0.03341 0.0
C802 C 0.99852 1.00476 0.01947 0.0
C803 C 0.02504 1.0025 0.02078 0.0
C804 C 0.9828 0.98728 1.00254 0.0
C805 C 0.95944 0.02852 0.03221 0.0
C806 C 0.96395 0.971 1.01218 0.0
C807 C 0.94835 0.95592 0.99585 0.0
C808 C 0.95104 0.95695 0.96945 0.0
C809 C 0.97048 0.97266 0.96002 0.0
C810 C 0.98618 0.98742 0.97628 0.0
H811 H 0.95458 0.04712 0.03992 0.0
H812 H 0.95222 0.02681 1.01243 0.0
H813 H 0.94948 1.01411 0.04346 0.0
H814 H 0.96105 0.97019 0.03236 0.0
H815 H 0.93357 0.9442 1.00381 0.0
H816 H 0.86512 0.25259 0.70378 0.0
H817 H 0.8371 0.27408 0.73214 0.0
H818 H 0.79997 0.20422 0.74978 0.0
H819 H 0.82922 0.18212 0.72188 0.0
H820 H 0.79043 0.28369 0.73479 0.0
H821 H 0.80762 0.22845 0.82021 0.0
H822 H 0.82615 0.22476 0.79214 0.0
H823 H 0.79529 0.20975 0.79424 0.0
C824 C 0.85141 0.24136 0.71384 0.0
C825 C 0.85036 0.21506 0.71039 0.0
C826 C 0.8349 0.25402 0.73021 0.0
C827 C 0.81621 0.24129 0.74423 0.0
C828 C 0.81445 0.21501 0.74026 0.0
H829 H 0.69753 0.28972 0.85033 0.0
H830 H 0.72662 0.26778 0.82305 0.0
C831 C 0.83115 0.20219 0.72379 0.0
C832 C 0.79881 0.25583 0.76226 0.0
H833 H 0.77502 0.25782 0.82271 0.0
C834 C 0.78733 0.2779 0.75405 0.0
C835 C 0.79418 0.24905 0.78778 0.0
C836 C 0.80663 0.22688 0.79926 0.0
C837 C 0.7715 0.29254 0.76979 0.0
C838 C 0.7668 0.28569 0.79525 0.0
C839 C 0.77823 0.26362 0.80347 0.0
C840 C 0.74929 0.30021 0.81312 0.0
C841 C 0.75926 0.31492 0.7585 0.0
C842 C 0.75188 0.3263 0.81801 0.0
C843 C 0.73486 0.33925 0.83404 0.0
C844 C 0.71444 0.32666 0.84586 0.0
C845 C 0.71251 0.30052 0.84154 0.0
C846 C 0.72947 0.2877 0.82578 0.0
H847 H 0.75879 0.31385 0.73752 0.0
H848 H 0.73957 0.3168 0.76524 0.0
H849 H 0.77038 0.33198 0.76424 0.0
H850 H 0.76715 0.33684 0.80941 0.0
H851 H 0.73731 0.35921 0.8366 0.0
H852 H 0.1631 0.61813 0.92377 0.0
H853 H 0.13444 0.59714 0.95371 0.0
H854 H 0.13514 0.53017 0.908 0.0
H855 H 0.16323 0.55071 0.8784 0.0
H856 H 0.08666 0.5751 0.95071 0.0
H857 H 0.15264 0.50073 0.97493 0.0
H858 H 0.16258 0.52784 0.95755 0.0
H859 H 0.14628 0.50204 0.94162 0.0
C860 C 0.15714 0.59897 0.92 0.0
C861 C 0.16632 0.58629 0.89852 0.0
C862 C 0.14068 0.58681 0.93732 0.0
C863 C 0.13285 0.56148 0.93395 0.0
C864 C 0.1413 0.54924 0.91204 0.0
H865 H 0.03404 0.45154 1.01558 0.0
H866 H 0.06317 0.47246 0.98596 0.0
C867 C 0.1576 0.56126 0.89484 0.0
C868 C 0.11567 0.54786 0.95271 0.0
H869 H 0.11008 0.49481 0.98843 0.0
C870 C 0.09202 0.55766 0.95904 0.0
C871 C 0.12199 0.52477 0.96384 0.0
C872 C 0.14734 0.51332 0.95937 0.0
C873 C 0.07472 0.54512 0.97527 0.0
C874 C 0.08106 0.52205 0.98645 0.0
C875 C 0.10472 0.51226 0.98011 0.0
C876 C 0.06383 0.50841 1.00518 0.0
C877 C 0.04929 0.55651 0.97952 0.0
C878 C 0.05478 0.52082 0.02674 0.0
C879 C 0.03816 0.50885 0.04368 0.0
C880 C 0.02985 0.48372 0.04014 0.0
C881 C 0.03976 0.4708 0.01919 0.0
C882 C 0.05646 0.48293 1.00206 0.0
H883 H 0.04396 0.56885 0.96376 0.0
H884 H 0.0341 0.54196 0.9815 0.0
H885 H 0.05027 0.56806 0.99709 0.0
H886 H 0.06059 0.54 0.03064 0.0
H887 H 0.03178 0.51953 0.05975 0.0
H888 H 0.75827 0.71394 0.35773 0.0
H889 H 0.73147 0.74467 0.33651 0.0
H890 H 0.74867 0.71207 0.2643 0.0
H891 H 0.77546 0.68231 0.28474 0.0
H892 H 0.74086 0.78165 0.29843 0.0
H893 H 0.67149 0.71176 0.25911 0.0
H894 H 0.69386 0.70447 0.28387 0.0
H895 H 0.70376 0.70545 0.25152 0.0
C896 C 0.75649 0.71325 0.33734 0.0
C897 C 0.76915 0.69465 0.32349 0.0
C898 C 0.74091 0.73099 0.32505 0.0
C899 C 0.73703 0.73076 0.29843 0.0
C900 C 0.75022 0.71268 0.28472 0.0
H901 H 0.64389 0.81468 0.18522 0.0
H902 H 0.67198 0.78518 0.20648 0.0
C903 C 0.76583 0.69528 0.2968 0.0
C904 C 0.71985 0.74926 0.28469 0.0
H905 H 0.66879 0.75274 0.24329 0.0
C906 C 0.72498 0.77517 0.28661 0.0
C907 C 0.69909 0.74151 0.26856 0.0
C908 C 0.69149 0.71432 0.26573 0.0
C909 C 0.71077 0.79297 0.2729 0.0
C910 C 0.68968 0.78528 0.25703 0.0
C911 C 0.68462 0.7593 0.25511 0.0
C912 C 0.67241 0.80373 0.24315 0.0
C913 C 0.71945 0.81994 0.27493 0.0
C914 C 0.66238 0.82439 0.25597 0.0
C915 C 0.64654 0.84148 0.24372 0.0
C916 C 0.63911 0.8388 0.21789 0.0
C917 C 0.64892 0.81797 0.20491 0.0
C918 C 0.66507 0.8008 0.21729 0.0
H919 H 0.74008 0.82171 0.27937 0.0
H920 H 0.71564 0.83 0.25718 0.0
H921 H 0.70931 0.82914 0.29058 0.0
H922 H 0.6665 0.82732 0.27589 0.0
H923 H 0.64017 0.85699 0.25496 0.0
H924 H 0.88538 0.60074 0.49774 0.0
H925 H 0.91252 0.57315 0.52122 0.0
H926 H 0.91468 0.52363 0.45658 0.0
H927 H 0.88718 0.5517 0.43265 0.0
H928 H 0.90737 0.52857 0.53858 0.0
H929 H 0.9882 0.52345 0.47371 0.0
H930 H 0.96327 0.54535 0.46934 0.0
H931 H 0.95868 0.51336 0.45916 0.0
C932 C 0.89148 0.58403 0.48821 0.0
C933 C 0.88347 0.57883 0.46291 0.0
C934 C 0.90731 0.56801 0.50193 0.0
C935 C 0.91639 0.54581 0.49123 0.0
C936 C 0.90882 0.54064 0.46571 0.0
H937 H 1.00889 0.42304 0.5499 0.0
H938 H 0.98397 0.45195 0.52571 0.0
C939 C 0.89284 0.55685 0.45181 0.0
C940 C 0.93289 0.52836 0.50726 0.0
H941 H 0.98877 0.49631 0.50857 0.0
C942 C 0.92522 0.52172 0.53185 0.0
C943 C 0.95651 0.51889 0.49927 0.0
C944 C 0.96735 0.52578 0.47406 0.0
C945 C 0.93961 0.50601 0.54788 0.0
C946 C 0.96325 0.49655 0.53991 0.0
C947 C 0.97093 0.5032 0.51532 0.0
C948 C 0.97954 0.47891 0.55595 0.0
C949 C 0.92865 0.49901 0.57301 0.0
C950 C 0.98666 0.48375 0.58165 0.0
C951 C 1.00118 0.46668 0.59604 0.0
C952 C 1.00926 0.44396 0.58538 0.0
C953 C 1.00282 0.43972 0.5595 0.0
C954 C 0.98848 0.45665 0.54527 0.0
H955 H 0.9078 0.50143 0.57331 0.0
H956 H 0.93258 0.47938 0.57761 0.0
H957 H 0.93732 0.51129 0.58802 0.0
H958 H 0.98109 0.50088 0.59074 0.0
H959 H 1.0056 0.47109 0.61566 0.0
H960 H 0.57229 0.44364 0.9525 0.0
H961 H 0.54066 0.46661 0.97697 0.0
H962 H 0.60089 0.50515 0.01858 0.0
H963 H 0.63207 0.48261 0.9947 0.0
H964 H 0.52751 0.4712 0.02658 0.0
H965 H 0.56211 0.56481 0.99943 0.0
H966 H 0.57285 0.53688 0.98409 0.0
H967 H 0.58655 0.54719 1.01397 0.0
C968 C 0.5789 0.45694 0.96687 0.0
C969 C 0.6053 0.46119 0.97081 0.0
C970 C 0.56061 0.47032 0.98099 0.0
C971 C 0.56783 0.48867 0.99955 0.0
C972 C 0.59414 0.49215 1.00399 0.0
H973 H 0.48799 0.59144 0.10697 0.0
H974 H 0.51965 0.56916 0.08175 0.0
C975 C 0.61229 0.4789 0.99006 0.0
C976 C 0.54837 0.50375 1.0146 0.0
H977 H 0.53288 0.56341 0.03324 0.0
C978 C 0.52873 0.49137 0.02773 0.0
C979 C 0.54938 0.53032 1.01688 0.0
C980 C 0.56868 0.54562 1.00266 0.0
C981 C 0.51105 0.50427 0.04303 0.0
C982 C 0.51198 0.53086 0.04522 0.0
C983 C 0.53164 0.54324 0.03209 0.0
C984 C 0.4925 0.54591 0.06034 0.0
C985 C 0.49204 0.48886 0.05751 0.0
C986 C 0.46616 0.54166 0.05669 0.0
C987 C 0.44806 0.55442 0.07114 0.0
C988 C 0.45512 0.57254 0.0899 0.0
C989 C 0.48144 0.57784 0.09285 0.0
C990 C 0.49971 0.56483 0.07835 0.0
H991 H 0.499 0.46986 0.06103 0.0
H992 H 0.48774 0.49775 0.07596 0.0
H993 H 0.4742 0.48676 0.04622 0.0
H994 H 0.45934 0.52827 0.0425 0.0
H995 H 0.4282 0.54989 0.06758 0.0
H996 H 0.70435 0.67411 0.7486 0.0
H997 H 0.72731 0.69774 0.78241 0.0
H998 H 0.72458 0.76409 0.73783 0.0
H999 H 0.70118 0.74105 0.70468 0.0
H1000 H 0.77352 0.72244 0.78239 0.0
H1001 H 0.70046 0.79113 0.80411 0.0
H1002 H 0.69361 0.76351 0.7851 0.0
H1003 H 0.70841 0.79059 0.7713 0.0
C1004 C 0.70825 0.69381 0.74615 0.0
C1005 C 0.70075 0.70545 0.72364 0.0
C1006 C 0.7216 0.70735 0.7655 0.0
C1007 C 0.72754 0.73299 0.76308 0.0
C1008 C 0.71993 0.74457 0.74068 0.0
H1009 H 0.81377 0.84831 0.85194 0.0
H1010 H 0.78946 0.8245 0.8193 0.0
C1011 C 0.7067 0.73113 0.72142 0.0
C1012 C 0.74243 0.7475 0.78333 0.0
H1013 H 0.74199 0.80028 0.82084 0.0
C1014 C 0.76646 0.73933 0.79091 0.0
C1015 C 0.73356 0.76977 0.79458 0.0
C1016 C 0.7075 0.77916 0.78856 0.0
C1017 C 0.78189 0.75289 0.80873 0.0
C1018 C 0.77307 0.77521 0.81988 0.0
C1019 C 0.74902 0.78335 0.81235 0.0
C1020 C 0.78818 0.78993 0.83979 0.0
C1021 C 0.80789 0.74346 0.81491 0.0
C1022 C 0.79551 0.77882 0.86253 0.0
C1023 C 0.80945 0.79238 0.88123 0.0
C1024 C 0.8165 0.81771 0.87802 0.0
C1025 C 0.80904 0.82891 0.85524 0.0
C1026 C 0.79494 0.81526 0.83651 0.0
H1027 H 0.81473 0.73086 0.79978 0.0
H1028 H 0.82191 0.75911 0.81771 0.0
H1029 H 0.80703 0.73274 0.83264 0.0
H1030 H 0.79026 0.75954 0.86599 0.0
H1031 H 0.81491 0.78277 0.89818 0.0
H1032 H 0.82483 0.20937 0.29856 0.0
H1033 H 0.84858 0.23942 0.2734 0.0
H1034 H 0.77934 0.25934 0.23552 0.0
H1035 H 0.75531 0.22968 0.26163 0.0
H1036 H 0.85995 0.24303 0.22777 0.0
H1037 H 0.80547 0.32767 0.24552 0.0
H1038 H 0.79986 0.29951 0.26289 0.0
H1039 H 0.78582 0.30307 0.23191 0.0
C1040 C 0.81447 0.22025 0.28505 0.0
C1041 C 0.78787 0.21683 0.28245 0.0
C1042 C 0.82825 0.23763 0.27044 0.0
C1043 C 0.81624 0.25247 0.2523 0.0
C1044 C 0.78953 0.24911 0.24967 0.0
H1045 H 0.87284 0.34968 0.13114 0.0
H1046 H 0.84815 0.32452 0.16072 0.0
C1047 C 0.7756 0.23187 0.26465 0.0
C1048 C 0.83195 0.27037 0.23588 0.0
H1049 H 0.83548 0.32994 0.21235 0.0
C1050 C 0.85452 0.26209 0.22477 0.0
C1051 C 0.82555 0.29559 0.23142 0.0
C1052 C 0.80302 0.30709 0.24377 0.0
C1053 C 0.87009 0.27759 0.20944 0.0
C1054 C 0.86346 0.30259 0.20472 0.0
C1055 C 0.84094 0.31095 0.21572 0.0
C1056 C 0.87887 0.31978 0.18752 0.0
C1057 C 0.8933 0.26674 0.19776 0.0
C1058 C 0.90463 0.32667 0.19252 0.0
C1059 C 0.9189 0.34164 0.17555 0.0
C1060 C 0.90798 0.35003 0.15283 0.0
C1061 C 0.88207 0.34369 0.14832 0.0
C1062 C 0.86781 0.32915 0.16536 0.0
H1063 H 0.89303 0.24607 0.19862 0.0
H1064 H 0.89493 0.27228 0.17771 0.0
H1065 H 0.91046 0.274 0.20814 0.0
H1066 H 0.91387 0.32025 0.20952 0.0
H1067 H 0.93874 0.34577 0.17969 0.0
H1068 H 0.45958 0.48734 0.45037 0.0
H1069 H 0.48455 0.51006 0.48268 0.0
H1070 H 0.47395 0.449 0.53367 0.0
H1071 H 0.44951 0.42557 0.50079 0.0
H1072 H 0.47449 0.52784 0.52842 0.0
H1073 H 0.54971 0.45864 0.53917 0.0
H1074 H 0.52639 0.45658 0.5139 0.0
H1075 H 0.51844 0.44627 0.54505 0.0
C1076 C 0.46269 0.47844 0.4683 0.0
C1077 C 0.45266 0.45422 0.47256 0.0
C1078 C 0.47695 0.49168 0.48698 0.0
C1079 C 0.48186 0.48128 0.5107 0.0
C1080 C 0.47119 0.4574 0.51541 0.0
H1081 H 0.56582 0.5353 0.64581 0.0
H1082 H 0.54053 0.51208 0.61401 0.0
C1083 C 0.45684 0.44405 0.49662 0.0
C1084 C 0.49789 0.4957 0.53022 0.0
H1085 H 0.55141 0.4931 0.56771 0.0
C1086 C 0.49134 0.52018 0.5369 0.0
C1087 C 0.52009 0.48604 0.54148 0.0
C1088 C 0.52928 0.46055 0.53441 0.0
C1089 C 0.50585 0.53488 0.55457 0.0
C1090 C 0.52803 0.52523 0.56582 0.0
C1091 C 0.53455 0.50073 0.55921 0.0
C1092 C 0.5442 0.53983 0.58505 0.0
C1093 C 0.49682 0.56047 0.56153 0.0
C1094 C 0.55545 0.56327 0.57962 0.0
C1095 C 0.57005 0.57685 0.59803 0.0
C1096 C 0.57382 0.56741 0.62249 0.0
C1097 C 0.56306 0.54365 0.62755 0.0
C1098 C 0.54862 0.53012 0.60918 0.0
H1099 H 0.47644 0.56255 0.5566 0.0
H1100 H 0.49959 0.56443 0.58204 0.0
H1101 H 0.50789 0.57465 0.55097 0.0
H1102 H 0.553 0.57113 0.56106 0.0
H1103 H 0.57795 0.59495 0.59323 0.0
H1104 H 0.07621 0.1067 0.24015 0.0
H1105 H 0.06272 0.0774 0.27254 0.0
H1106 H 0.13869 0.07926 0.30403 0.0
H1107 H 0.1521 0.10891 0.27215 0.0
H1108 H 0.08374 0.03219 0.27245 0.0
H1109 H 0.09695 0.07451 0.36727 0.0
H1110 H 0.09347 0.09305 0.33926 0.0
H1111 H 0.12406 0.08166 0.34843 0.0
C1112 C 0.08977 0.10161 0.25462 0.0
C1113 C 0.11528 0.10983 0.25355 0.0
C1114 C 0.08202 0.08486 0.27306 0.0
C1115 C 0.09961 0.07636 0.29081 0.0
C1116 C 0.12464 0.086 0.29087 0.0
H1117 H 0.16584 0.9626 0.35625 0.0
H1118 H 0.14729 0.99908 0.33734 0.0
C1119 C 0.1324 0.10266 0.27243 0.0
C1120 C 0.09374 0.05406 0.30583 0.0
H1121 H 0.1072 0.02992 0.36341 0.0
C1122 C 0.08784 0.03172 0.29258 0.0
C1123 C 0.09887 0.05355 0.33206 0.0
C1124 C 0.10341 0.07708 0.34757 0.0
C1125 C 0.09007 1.00865 0.30427 0.0
C1126 C 0.0982 1.00816 0.32975 0.0
C1127 C 0.10126 0.03049 0.34371 0.0
C1128 C 0.10851 0.98545 0.34056 0.0
C1129 C 0.08627 0.98499 0.28877 0.0
C1130 C 0.09272 0.96557 0.34804 0.0
C1131 C 0.10331 0.94452 0.35873 0.0
C1132 C 0.12976 0.94328 0.36207 0.0
C1133 C 0.14542 0.96302 0.35391 0.0
C1134 C 0.13487 0.98392 0.34327 0.0
H1135 H 0.0798 0.98864 0.26914 0.0
H1136 H 0.10434 0.97488 0.28803 0.0
H1137 H 0.07199 0.97261 0.29781 0.0
H1138 H 0.07231 0.96655 0.34602 0.0
H1139 H 0.09081 0.92962 0.36506 0.0
H1140 H 0.22754 0.92195 0.42841 0.0
H1141 H 0.26813 0.93503 0.44713 0.0
H1142 H 0.2761 0.86233 0.4793 0.0
H1143 H 0.23488 0.84889 0.46067 0.0
H1144 H 0.28581 0.90313 0.51353 0.0
H1145 H 0.33891 0.91464 0.42461 0.0
H1146 H 0.30935 0.93043 0.42501 0.0
H1147 H 0.30934 0.89697 0.42609 0.0
C1148 C 0.23784 0.90856 0.43935 0.0
C1149 C 0.22792 0.88427 0.443 0.0
C1150 C 0.26119 0.9161 0.44991 0.0
C1151 C 0.27526 0.89955 0.46422 0.0
C1152 C 0.26552 0.8753 0.46809 0.0
H1153 H 0.42801 0.91522 0.52069 0.0
H1154 H 0.38946 0.90557 0.49601 0.0
C1155 C 0.24203 0.86765 0.45744 0.0
C1156 C 0.29967 0.90816 0.47587 0.0
H1157 H 0.35834 0.9322 0.46197 0.0
C1158 C 0.30173 0.90938 0.5023 0.0
C1159 C 0.32038 0.91622 0.4611 0.0
C1160 C 0.31955 0.91432 0.43263 0.0
C1161 C 0.3239 0.9188 0.5144 0.0
C1162 C 0.34432 0.92756 0.49962 0.0
C1163 C 0.34241 0.92596 0.47319 0.0
C1164 C 0.36862 0.93628 0.51139 0.0
C1165 C 0.32552 0.91881 0.5429 0.0
C1166 C 0.37004 0.95754 0.52723 0.0
C1167 C 0.3922 0.96324 0.5413 0.0
C1168 C 0.41305 0.94762 0.5397 0.0
C1169 C 0.41214 0.92751 0.52235 0.0
C1170 C 0.39014 0.92194 0.50827 0.0
H1171 H 0.31016 0.90714 0.55122 0.0
H1172 H 0.34409 0.91186 0.54943 0.0
H1173 H 0.32382 0.93817 0.55022 0.0
H1174 H 0.35365 0.96903 0.52956 0.0
H1175 H 0.39236 0.97875 0.55464 0.0
H1176 H 0.40002 0.96966 0.68635 0.0
H1177 H 0.38813 0.99445 0.72323 0.0
H1178 H 0.44921 0.04716 0.70905 0.0
H1179 H 0.46104 0.02265 0.67176 0.0
H1180 H 0.42142 1.00741 0.76623 0.0
H1181 H 0.38431 0.08987 0.71665 0.0
H1182 H 0.3876 0.06003 0.70097 0.0
H1183 H 0.41511 0.07956 0.70763 0.0
C1184 C 0.41067 0.98675 0.69079 0.0
C1185 C 0.43137 0.9943 0.67603 0.0
C1186 C 0.40398 1.00076 0.71199 0.0
C1187 C 0.41771 0.02266 0.71873 0.0
C1188 C 0.43825 0.03041 0.70398 0.0
H1189 H 0.40272 0.10127 0.86451 0.0
H1190 H 0.4208 0.08117 0.8272 0.0
C1191 C 0.44506 1.01633 0.68281 0.0
C1192 C 0.41074 0.03696 0.74157 0.0
H1193 H 0.38429 0.09111 0.76119 0.0
C1194 C 0.41348 0.02579 0.76521 0.0
C1195 C 0.4003 0.06086 0.74004 0.0
C1196 C 0.39644 0.07334 0.71499 0.0
C1197 C 0.40572 0.03779 0.78742 0.0
C1198 C 0.39509 0.0616 0.78586 0.0
C1199 C 0.39264 0.07291 0.76226 0.0
C1200 C 0.3846 0.07422 0.80827 0.0
C1201 C 0.40812 0.02462 0.81227 0.0
C1202 C 0.35836 0.0772 0.80975 0.0
C1203 C 0.348 0.08855 0.83095 0.0
C1204 C 0.36373 0.09736 0.85105 0.0
C1205 C 0.3901 0.09463 0.84939 0.0
C1206 C 0.40045 0.08311 0.82815 0.0
H1207 H 0.41305 1.00477 0.80969 0.0
H1208 H 0.42324 0.03406 0.82401 0.0
H1209 H 0.39013 0.0255 0.82283 0.0
H1210 H 0.34585 0.07047 0.79456 0.0
H1211 H 0.32763 0.09046 0.8315 0.0
H1212 H 0.2593 0.06105 0.92843 0.0
H1213 H 0.23337 0.04324 0.96209 0.0
H1214 H 0.21638 0.11731 0.9883 0.0
H1215 H 0.24209 0.13515 0.95487 0.0
H1216 H 0.24507 0.05156 1.01275 0.0
H1217 H 0.14763 0.08097 0.99242 0.0
H1218 H 0.17171 0.08014 0.96849 0.0
H1219 H 0.16985 0.10664 0.98963 0.0
C1220 C 0.24942 0.07351 0.94093 0.0
C1221 C 0.25272 0.09951 0.93906 0.0
C1222 C 0.23469 0.06329 0.96017 0.0
C1223 C 0.22272 0.07893 0.9775 0.0
C1224 C 0.22499 0.10487 0.97481 0.0
H1225 H 0.20555 0.10353 0.12505 0.0
H1226 H 0.22097 0.08702 0.08527 0.0
C1227 C 0.23983 0.11507 0.95577 0.0
C1228 C 0.21067 0.06876 1.00037 0.0
H1229 H 0.15896 0.07679 0.03704 0.0
C1230 C 0.22594 0.05637 1.01783 0.0
C1231 C 0.18558 0.07446 1.00681 0.0
C1232 C 0.16767 0.08604 0.98819 0.0
C1233 C 0.2177 0.05204 0.0425 0.0
C1234 C 0.19379 0.06063 0.04986 0.0
C1235 C 0.17747 0.07046 0.03156 0.0
C1236 C 0.18727 0.06424 0.07679 0.0
C1237 C 0.23523 0.03954 0.0608 0.0
C1238 C 0.16353 0.05627 0.08581 0.0
C1239 C 0.15469 0.0657 0.10875 0.0
C1240 C 0.16932 0.08358 0.12265 0.0
C1241 C 0.19395 0.08971 0.11473 0.0
C1242 C 0.20284 0.08014 0.09201 0.0
H1243 H 0.24686 0.02562 0.05085 0.0
H1244 H 0.24846 0.05375 0.06952 0.0
H1245 H 0.22457 0.0301 0.07603 0.0
H1246 H 0.15113 0.0442 0.07426 0.0
H1247 H 0.13549 0.06088 0.11425 0.0
H1248 H 0.13213 0.1936 0.0778 0.0
H1249 H 0.11686 0.22981 0.05475 0.0
H1250 H 0.10595 0.26865 0.1255 0.0
H1251 H 0.12056 0.23256 0.14857 0.0
H1252 H 0.06426 0.25059 0.06864 0.0
H1253 H 0.14527 0.31857 0.07466 0.0
H1254 H 0.14917 0.28518 0.07447 0.0
H1255 H 0.13987 0.30102 0.10285 0.0
C1256 C 0.12681 0.21004 0.08836 0.0
C1257 C 0.12736 0.21034 0.11493 0.0
C1258 C 0.11818 0.23062 0.07519 0.0
C1259 C 0.11065 0.25185 0.0885 0.0
C1260 C 0.11206 0.25247 0.11497 0.0
H1261 H 0.03736 0.37712 0.11401 0.0
H1262 H 0.06702 0.34427 0.1058 0.0
C1263 C 0.12022 0.23183 0.1281 0.0
C1264 C 0.09846 0.27249 0.0755 0.0
H1265 H 0.10365 0.33558 0.07097 0.0
C1266 C 0.07294 0.26914 0.06823 0.0
C1267 C 0.11007 0.29643 0.07502 0.0
C1268 C 0.1377 0.3006 0.08196 0.0
C1269 C 0.05785 0.28965 0.06329 0.0
C1270 C 0.06895 0.31396 0.06511 0.0
C1271 C 0.09517 0.31695 0.06969 0.0
C1272 C 0.05312 0.33611 0.06777 0.0
C1273 C 0.02974 0.28522 0.05875 0.0
C1274 C 0.03585 0.34294 0.04884 0.0
C1275 C 1.01846 0.36158 0.05368 0.0
C1276 C 1.01844 0.3738 0.07737 0.0
C1277 C 0.03678 0.36794 0.09563 0.0
C1278 C 0.05388 0.34924 0.0909 0.0
H1279 H 0.02382 0.26538 0.06114 0.0
H1280 H 1.01872 0.2968 0.07197 0.0
H1281 H 0.02471 0.29056 0.03919 0.0
H1282 H 0.0353 0.33336 0.03068 0.0
H1283 H 1.00468 0.36597 0.03916 0.0
H1284 H 0.54946 0.34117 0.87534 0.0
H1285 H 0.50825 0.31957 0.87483 0.0
H1286 H 0.51521 0.30741 0.95497 0.0
H1287 H 0.55618 0.33015 0.95589 0.0
H1288 H 0.49845 0.27153 0.88736 0.0
H1289 H 0.4444 0.33554 0.94839 0.0
H1290 H 0.47469 0.34429 0.93523 0.0
H1291 H 0.4732 0.32491 0.96258 0.0
C1292 C 0.54206 0.33432 0.89298 0.0
C1293 C 0.55592 0.33762 0.91574 0.0
C1294 C 0.51858 0.32186 0.8926 0.0
C1295 C 0.50854 0.31234 0.91492 0.0
C1296 C 0.52243 0.31517 0.93765 0.0
H1297 H 0.38518 0.21104 0.94454 0.0
H1298 H 0.42054 0.24123 0.94732 0.0
C1299 C 0.54595 0.32782 0.93808 0.0
C1300 C 0.48411 0.2983 0.9139 0.0
H1301 H 0.42401 0.29675 0.93692 0.0
C1302 C 0.48211 0.27714 0.89805 0.0
C1303 C 0.4629 0.30577 0.92787 0.0
C1304 C 0.46374 0.329 0.94431 0.0
C1305 C 0.45952 0.26294 0.89608 0.0
C1306 C 0.43842 0.27027 0.9102 0.0
C1307 C 0.44031 0.29141 0.92605 0.0
C1308 C 0.41475 0.25516 0.90966 0.0
C1309 C 0.4585 0.23988 0.87936 0.0
C1310 C 0.39944 0.25374 0.88779 0.0
C1311 C 0.37904 0.23664 0.88616 0.0
C1312 C 0.37378 0.22073 0.90639 0.0
C1313 C 0.38848 0.22322 0.92874 0.0
C1314 C 0.40876 0.24037 0.93036 0.0
H1315 H 0.47759 0.23474 0.87277 0.0
H1316 H 0.44999 0.22387 0.88958 0.0
H1317 H 0.44635 0.24323 0.86253 0.0
H1318 H 0.40381 0.26526 0.87172 0.0
H1319 H 0.3678 0.23546 0.86888 0.0
H1320 H 0.89857 0.74596 0.39259 0.0
H1321 H 0.93848 0.76755 0.40512 0.0
H1322 H 0.94696 0.71748 0.46744 0.0
H1323 H 0.90695 0.69628 0.45541 0.0
H1324 H 0.96244 0.76446 0.48072 0.0
H1325 H 1.00534 0.73601 0.39016 0.0
H1326 H 0.97772 0.75429 0.38579 0.0
H1327 H 0.97481 0.7241 0.39996 0.0
C1328 C 0.90884 0.7398 0.40912 0.0
C1329 C 0.89974 0.7194 0.42295 0.0
C1330 C 0.93164 0.75204 0.4162 0.0
C1331 C 0.94595 0.74372 0.43687 0.0
C1332 C 0.93626 0.72416 0.45141 0.0
H1333 H 0.10659 0.78004 0.44078 0.0
H1334 H 0.0669 0.75606 0.44599 0.0
C1335 C 0.91335 0.71212 0.44453 0.0
C1336 C 0.97168 0.75433 0.44246 0.0
H1337 H 0.02938 0.76469 0.41596 0.0
C1338 C 0.97718 0.76442 0.46664 0.0
C1339 C 0.99106 0.75358 0.42432 0.0
C1340 C 0.98707 0.74118 0.39871 0.0
C1341 C 1.00137 0.77451 0.47289 0.0
C1342 C 1.02032 0.77502 0.45425 0.0
C1343 C 1.01491 0.76434 0.43031 0.0
C1344 C 0.04542 0.78777 0.45819 0.0
C1345 C 1.0064 0.78423 0.49943 0.0
C1346 C 0.04692 0.81323 0.46472 0.0
C1347 C 0.06976 0.82674 0.46241 0.0
C1348 C 0.09123 0.81508 0.45301 0.0
C1349 C 0.09028 0.78929 0.44831 0.0
C1350 C 0.06759 0.77568 0.45112 0.0
H1351 H 0.99407 0.77446 0.51317 0.0
H1352 H 0.02651 0.78205 0.50526 0.0
H1353 H 1.00204 0.80432 0.50038 0.0
H1354 H 0.03005 0.82316 0.46959 0.0
H1355 H 0.06999 0.84673 0.46562 0.0
H1356 H 0.56896 0.67588 0.69075 0.0
H1357 H 0.53953 0.70933 0.68106 0.0
H1358 H 0.58672 0.73181 0.619 0.0
H1359 H 0.61508 0.69806 0.62775 0.0
H1360 H 0.54523 0.7576 0.68125 0.0
H1361 H 0.51989 0.72883 0.58395 0.0
H1362 H 0.53633 0.70854 0.60509 0.0
H1363 H 0.55373 0.73099 0.58654 0.0
C1364 C 0.57276 0.68791 0.67493 0.0
C1365 C 0.59396 0.68429 0.65974 0.0
C1366 C 0.556 0.7069 0.66939 0.0
C1367 C 0.56051 0.72253 0.64878 0.0
C1368 C 0.58223 0.71932 0.63427 0.0
H1369 H 0.52949 0.87509 0.62967 0.0
H1370 H 0.5437 0.83404 0.64244 0.0
C1371 C 0.59856 0.70016 0.63944 0.0
C1372 C 0.54368 0.74328 0.64296 0.0
H1373 H 0.51901 0.77373 0.59278 0.0
C1374 C 0.53894 0.7609 0.66202 0.0
C1375 C 0.53462 0.7472 0.6181 0.0
C1376 C 0.53617 0.72766 0.5974 0.0
C1377 C 0.52722 0.78331 0.65641 0.0
C1378 C 0.52132 0.78863 0.6309 0.0
C1379 C 0.52421 0.77009 0.61225 0.0
C1380 C 0.51311 0.81348 0.62287 0.0
C1381 C 0.52146 0.80094 0.67792 0.0
C1382 C 0.49228 0.81551 0.60628 0.0
C1383 C 0.48507 0.8388 0.59795 0.0
C1384 C 0.49824 0.86043 0.60651 0.0
C1385 C 0.51917 0.85853 0.62287 0.0
C1386 C 0.52693 0.83515 0.63053 0.0
H1387 H 0.51747 0.79053 0.69547 0.0
H1388 H 0.53825 0.81338 0.68186 0.0
H1389 H 0.50491 0.81252 0.67348 0.0
H1390 H 0.48137 0.79911 0.6 0.0
H1391 H 0.46852 0.83996 0.58568 0.0
H1392 H 0.93427 0.0694 0.73034 0.0
H1393 H 0.93957 0.0294 0.75109 0.0
H1394 H 0.85855 1.01581 0.74762 0.0
H1395 H 0.85324 0.05552 0.72636 0.0
H1396 H 0.92214 1.01188 0.79445 0.0
H1397 H 0.88369 0.95248 0.71594 0.0
H1398 H 0.89175 0.98511 0.71213 0.0
H1399 H 0.86158 0.97564 0.72493 0.0
C1400 C 0.91759 0.058 0.73439 0.0
C1401 C 0.89334 0.0654 0.7268 0.0
C1402 C 0.92066 0.0351 0.74595 0.0
C1403 C 0.89953 1.01935 0.7501 0.0
C1404 C 0.87518 0.02731 0.7437 0.0
H1405 H 0.85657 0.91624 0.85324 0.0
H1406 H 0.86204 0.94522 0.81855 0.0
C1407 C 0.87212 0.05008 0.73191 0.0
C1408 C 0.9027 0.99502 0.76214 0.0
H1409 H 0.88376 0.93378 0.7575 0.0
C1410 C 0.91436 0.99469 0.78609 0.0
C1411 C 0.89286 0.97255 0.751 0.0
C1412 C 0.88204 0.9714 0.72445 0.0
C1413 C 0.91466 0.9728 0.80004 0.0
C1414 C 0.90284 0.95092 0.78978 0.0
C1415 C 0.8927 0.95074 0.76521 0.0
C1416 C 0.89723 0.92975 0.80612 0.0
C1417 C 0.92605 0.97349 0.82638 0.0
C1418 C 0.91475 0.9109 0.80964 0.0
C1419 C 0.9115 0.89409 0.82933 0.0
C1420 C 0.89097 0.89646 0.84569 0.0
C1421 C 0.8726 0.91423 0.84088 0.0
C1422 C 0.87564 0.93067 0.8211 0.0
H1423 H 0.93713 0.99104 0.83041 0.0
H1424 H 0.91067 0.97183 0.84039 0.0
H1425 H 0.93865 0.95747 0.829 0.0
H1426 H 0.93159 0.91019 0.79822 0.0
H1427 H 0.92595 0.88059 0.83294 0.0
H1428 H 0.89927 0.18267 0.57261 0.0
H1429 H 0.87894 0.18403 0.53074 0.0
H1430 H 0.81132 0.14895 0.56031 0.0
H1431 H 0.83129 0.14774 0.60209 0.0
H1432 H 0.86228 0.14095 0.50401 0.0
H1433 H 0.78355 0.2057 0.51825 0.0
H1434 H 0.81037 0.2045 0.53976 0.0
H1435 H 0.78476 0.1818 0.54155 0.0
C1436 C 0.87984 0.17585 0.57031 0.0
C1437 C 0.86685 0.16508 0.59058 0.0
C1438 C 0.86833 0.17652 0.54639 0.0
C1439 C 0.84362 0.16672 0.54254 0.0
C1440 C 0.83025 0.15698 0.563 0.0
H1441 H 0.76835 0.10382 0.40924 0.0
H1442 H 0.79309 0.11062 0.44849 0.0
C1443 C 0.84174 0.15623 0.58685 0.0
C1444 C 0.83251 0.16452 0.51681 0.0
H1445 H 0.78054 0.17905 0.48163 0.0
C1446 C 0.84456 0.14951 0.49895 0.0
C1447 C 0.8095 0.17582 0.51034 0.0
C1448 C 0.7964 0.19305 0.5284 0.0
C1449 C 0.83377 0.1449 0.4749 0.0
C1450 C 0.81017 0.15529 0.46883 0.0
C1451 C 0.79851 0.17088 0.48647 0.0
C1452 C 0.79722 0.15058 0.44421 0.0
C1453 C 0.84774 0.12908 0.45619 0.0
C1454 C 0.79135 0.17076 0.42896 0.0
C1455 C 0.77711 0.16697 0.40683 0.0
C1456 C 0.76841 0.14289 0.39948 0.0
C1457 C 0.77494 0.12254 0.41436 0.0
C1458 C 0.78913 0.12639 0.4367 0.0
H1459 H 0.86821 0.12812 0.46121 0.0
H1460 H 0.83951 0.10983 0.45613 0.0
H1461 H 0.84587 0.13644 0.43678 0.0
H1462 H 0.79743 0.18955 0.43444 0.0
H1463 H 0.77256 0.18305 0.39569 0.0
H1464 H 0.65197 0.13933 0.2944 0.0
H1465 H 0.62591 0.10757 0.27221 0.0
H1466 H 0.6917 0.06234 0.2632 0.0
H1467 H 0.71748 0.09348 0.28719 0.0
H1468 H 0.62388 0.08989 0.22853 0.0
H1469 H 0.64539 1.01108 0.29014 0.0
H1470 H 0.65566 0.04257 0.29803 0.0
H1471 H 0.67407 0.02359 0.27713 0.0
C1472 C 0.66091 0.12266 0.28754 0.0
C1473 C 0.68672 0.1188 0.29244 0.0
C1474 C 0.64595 0.10443 0.27495 0.0
C1475 C 0.6566 0.08217 0.26652 0.0
C1476 C 0.68275 0.07886 0.27036 0.0
H1477 H 0.6009 0.99029 0.14546 0.0
H1478 H 0.616 0.02356 0.17358 0.0
C1479 C 0.69758 0.0968 0.28369 0.0
C1480 C 0.64039 0.06287 0.25315 0.0
H1481 H 0.62736 1.00029 0.24919 0.0
C1482 C 0.62442 0.07034 0.23336 0.0
C1483 C 0.64027 0.03741 0.25983 0.0
C1484 C 0.65454 0.02827 0.28265 0.0
C1485 C 0.60931 0.05303 0.2194 0.0
C1486 C 0.61119 0.02732 0.22442 0.0
C1487 C 0.62617 1.01993 0.24498 0.0
C1488 C 0.59972 1.00778 0.20729 0.0
C1489 C 0.59141 0.06266 0.19953 0.0
C1490 C 0.58596 0.98724 0.21682 0.0
C1491 C 0.57781 0.96756 0.20069 0.0
C1492 C 0.58314 0.96824 0.17477 0.0
C1493 C 0.59612 0.98922 0.16525 0.0
C1494 C 0.60464 1.00851 0.18135 0.0
H1495 H 0.58439 0.08123 0.20513 0.0
H1496 H 0.6017 0.06498 0.18155 0.0
H1497 H 0.57483 0.04978 0.19617 0.0
H1498 H 0.58207 0.98615 0.23681 0.0
H1499 H 0.56799 0.95158 0.20861 0.0
H1500 H 0.70239 0.91731 0.14105 0.0
H1501 H 0.74426 0.92351 0.1225 0.0
H1502 H 0.70915 0.9489 0.05379 0.0
H1503 H 0.66735 0.94325 0.07238 0.0
H1504 H 0.7548 0.89542 0.08038 0.0
H1505 H 0.77171 0.99523 0.06058 0.0
H1506 H 0.74913 0.98448 0.08365 0.0
H1507 H 0.74059 0.98445 0.05059 0.0
C1508 C 0.70368 0.92505 0.12233 0.0
C1509 C 0.68168 0.92959 0.10801 0.0
C1510 C 0.72757 0.92856 0.11178 0.0
C1511 C 0.72977 0.93691 0.08691 0.0
C1512 C 0.70789 0.94296 0.07321 0.0
H1513 H 0.81333 0.92395 0.95525 0.0
H1514 H 0.78627 0.9355 0.9904 0.0
C1515 C 0.68403 0.93938 0.08369 0.0
C1516 C 0.75397 0.93482 0.07356 0.0
H1517 H 0.79321 0.96591 0.0335 0.0
C1518 C 0.76369 0.91092 0.07064 0.0
C1519 C 0.76531 0.95508 0.06085 0.0
C1520 C 0.75628 0.9813 0.06427 0.0
C1521 C 0.78323 0.90633 0.05376 0.0
C1522 C 0.79371 0.92639 0.03998 0.0
C1523 C 0.78504 0.95059 0.04407 0.0
C1524 C 0.81164 0.92205 0.01936 0.0
C1525 C 0.79117 0.87979 0.04953 0.0
C1526 C 0.83505 0.91119 0.02412 0.0
C1527 C 0.8503 0.90417 1.00407 0.0
C1528 C 0.84251 0.90833 0.97902 0.0
C1529 C 0.81968 0.92039 0.97438 0.0
C1530 C 0.80431 0.92712 0.99442 0.0
H1531 H 0.77767 0.86609 0.05791 0.0
H1532 H 0.79263 0.87544 0.02904 0.0
H1533 H 0.81007 0.87729 0.05846 0.0
H1534 H 0.84123 0.90759 0.04329 0.0
H1535 H 0.86805 0.89528 1.00817 0.0
H1536 H 0.09971 0.65878 0.84557 0.0
H1537 H 0.05819 0.67641 0.85344 0.0
H1538 H 0.08424 0.74636 0.82266 0.0
H1539 H 0.12552 0.72875 0.81443 0.0
H1540 H 0.05734 0.71611 0.8871 0.0
H1541 H 1.01084 0.74112 0.79699 0.0
H1542 H 0.03523 0.71817 0.79875 0.0
H1543 H 0.04365 0.75088 0.79835 0.0
C1544 C 0.09619 0.67759 0.83957 0.0
C1545 C 0.11578 0.69254 0.8296 0.0
C1546 C 0.07254 0.68762 0.84412 0.0
C1547 C 0.06815 0.71259 0.83847 0.0
C1548 C 0.08708 0.72691 0.82671 0.0
H1549 H 1.00003 0.83431 0.90834 0.0
H1550 H 0.02658 0.80202 0.89009 0.0
C1551 C 0.11072 0.71694 0.82227 0.0
C1552 C 0.04612 0.72516 0.84906 0.0
H1553 H 0.99959 0.76544 0.83402 0.0
C1554 C 0.04428 0.7264 0.87548 0.0
C1555 C 0.0292 0.73856 0.83384 0.0
C1556 C 0.02965 0.73693 0.80539 0.0
C1557 C 0.027 0.742 0.88711 0.0
C1558 C 1.01134 0.75665 0.87191 0.0
C1559 C 1.01198 0.7543 0.84552 0.0
C1560 C 0.99537 0.77567 0.8832 0.0
C1561 C 0.02623 0.74359 0.91556 0.0
C1562 C 0.96925 0.77123 0.8853 0.0
C1563 C 0.95416 0.78947 0.89583 0.0
C1564 C 0.96501 0.81244 0.90417 0.0
C1565 C 0.99125 0.81678 0.90203 0.0
C1566 C 1.00636 0.79842 0.89168 0.0
H1567 H 0.03674 0.72833 0.92456 0.0
H1568 H 0.03489 0.76168 0.92211 0.0
H1569 H 1.00629 0.74282 0.92203 0.0
H1570 H 0.96058 0.75373 0.87873 0.0
H1571 H 0.9339 0.78584 0.89687 0.0
H1572 H 0.49396 0.62321 0.15869 0.0
H1573 H 0.52799 0.65525 0.16019 0.0
H1574 H 0.48493 0.69842 0.21299 0.0
H1575 H 0.45121 0.66665 0.21142 0.0
H1576 H 0.50954 0.69751 0.14056 0.0
H1577 H 0.55634 0.72162 0.23182 0.0
H1578 H 0.54243 0.69103 0.22506 0.0
H1579 H 0.52301 0.71602 0.2359 0.0
C1580 C 0.49263 0.63878 0.17183 0.0
C1581 C 0.4701 0.64278 0.18481 0.0
C1582 C 0.51201 0.6571 0.17263 0.0
C1583 C 0.50894 0.67927 0.18661 0.0
C1584 C 0.48796 0.68136 0.2024 0.0
H1585 H 0.52186 0.83613 0.17818 0.0
H1586 H 0.51269 0.79204 0.18682 0.0
C1587 C 0.46859 0.66325 0.2014 0.0
C1588 C 0.5224 0.70245 0.17922 0.0
H1589 H 0.54799 0.75666 0.204 0.0
C1590 C 0.51869 0.71019 0.15425 0.0
C1591 C 0.53391 0.71906 0.19717 0.0
C1592 C 0.53936 0.71136 0.22392 0.0
C1593 C 0.52435 0.7347 0.14721 0.0
C1594 C 0.53457 0.75172 0.16553 0.0
C1595 C 0.53977 0.74361 0.19012 0.0
C1596 C 0.53936 0.77818 0.15964 0.0
C1597 C 0.51783 0.74255 0.12067 0.0
C1598 C 0.55697 0.78478 0.14124 0.0
C1599 C 0.56186 0.80975 0.13599 0.0
C1600 C 0.5495 0.82862 0.14934 0.0
C1601 C 0.53144 0.82199 0.16742 0.0
C1602 C 0.52643 0.79688 0.17256 0.0
H1603 H 0.50462 0.72895 0.11091 0.0
H1604 H 0.50904 0.76111 0.12075 0.0
H1605 H 0.53543 0.74386 0.1095 0.0
H1606 H 0.56736 0.77062 0.13131 0.0
H1607 H 0.57605 0.81426 0.12207 0.0
H1608 H 0.99372 0.16432 0.64966 0.0
H1609 H 1.01651 0.19967 0.6696 0.0
H1610 H 0.98295 0.18165 0.7411 0.0
H1611 H 0.96066 0.14563 0.72112 0.0
H1612 H 0.96688 0.22606 0.71949 0.0
H1613 H 0.07139 0.22471 0.72047 0.0
H1614 H 0.05844 0.21081 0.69188 0.0
H1615 H 0.05176 0.19657 0.72175 0.0
C1616 C 0.99261 0.16695 0.66995 0.0
C1617 C 0.97573 0.15234 0.68397 0.0
C1618 C 1.00561 0.18715 0.6814 0.0
C1619 C 1.00146 0.19325 0.70688 0.0
C1620 C 0.98664 0.17706 0.72152 0.0
H1621 H 0.03181 0.35599 0.71699 0.0
H1622 H 1.01982 0.31619 0.73667 0.0
C1623 C 0.97402 0.15647 0.71013 0.0
C1624 C 1.00673 0.21924 0.71534 0.0
H1625 H 0.05245 0.26459 0.70887 0.0
C1626 C 0.98574 0.23452 0.71841 0.0
C1627 C 0.03128 0.23022 0.71396 0.0
C1628 C 0.05451 0.21464 0.71209 0.0
C1629 C 0.98836 0.26048 0.71666 0.0
C1630 C 1.0125 0.27116 0.71203 0.0
C1631 C 0.03388 0.25619 0.71223 0.0
C1632 C 1.01522 0.2961 0.70112 0.0
C1633 C 0.96509 0.27612 0.71696 0.0
C1634 C 1.01557 0.2979 0.67475 0.0
C1635 C 0.02244 0.32032 0.66357 0.0
C1636 C 0.02879 0.34134 0.67863 0.0
C1637 C 0.02653 0.34008 0.70502 0.0
C1638 C 1.01996 0.31741 0.71627 0.0
H1639 H 0.94842 0.26579 0.7246 0.0
H1640 H 0.96875 0.29335 0.72847 0.0
H1641 H 0.96045 0.28179 0.69738 0.0
H1642 H 1.01191 0.28154 0.66284 0.0
H1643 H 0.02424 0.32086 0.64322 0.0
H1644 H 0.50393 0.36351 0.46261 0.0
H1645 H 0.54932 0.35475 0.46274 0.0
H1646 H 0.53413 0.29002 0.41507 0.0
H1647 H 0.4888 0.29856 0.41493 0.0
H1648 H 0.57282 0.28654 0.45896 0.0
H1649 H 0.58705 0.36485 0.39205 0.0
H1650 H 0.56996 0.36967 0.42088 0.0
H1651 H 0.55608 0.35042 0.39609 0.0
C1652 C 0.51023 0.34701 0.45276 0.0
C1653 C 0.49296 0.33172 0.43864 0.0
C1654 C 0.5361 0.34216 0.45276 0.0
C1655 C 0.5449 0.32189 0.43879 0.0
C1656 C 0.52755 0.30576 0.42597 0.0
H1657 H 0.64356 0.25544 0.35122 0.0
H1658 H 0.6144 0.28259 0.37237 0.0
C1659 C 0.50176 0.31068 0.4258 0.0
C1660 C 0.57219 0.31854 0.43508 0.0
H1661 H 0.61907 0.33549 0.39463 0.0
C1662 C 0.58341 0.29768 0.4456 0.0
C1663 C 0.5857 0.33322 0.41759 0.0
C1664 C 0.57423 0.35582 0.40586 0.0
C1665 C 0.60713 0.28992 0.43749 0.0
C1666 C 0.61966 0.30339 0.41839 0.0
C1667 C 0.60938 0.3254 0.4094 0.0
C1668 C 0.63983 0.29181 0.40375 0.0
C1669 C 0.61756 0.26609 0.44761 0.0
C1670 C 0.66422 0.28901 0.41392 0.0
C1671 C 0.68132 0.27373 0.40156 0.0
C1672 C 0.67404 0.26083 0.37908 0.0
C1673 C 0.65012 0.26525 0.36821 0.0
C1674 C 0.63327 0.28068 0.38038 0.0
H1675 H 0.60531 0.25775 0.46232 0.0
H1676 H 0.61942 0.25228 0.43196 0.0
H1677 H 0.63675 0.26984 0.45592 0.0
H1678 H 0.66957 0.29766 0.43191 0.0
H1679 H 0.69976 0.27111 0.41021 0.0
H1680 H 0.71755 0.44956 0.88244 0.0
H1681 H 0.72976 0.48413 0.85495 0.0
H1682 H 0.66275 0.46936 0.80886 0.0
H1683 H 0.6504 0.43495 0.83608 0.0
H1684 H 0.71215 0.47961 0.78253 0.0
H1685 H 0.68533 0.54934 0.85603 0.0
H1686 H 0.70642 0.52484 0.86437 0.0
H1687 H 0.67381 0.51739 0.85691 0.0
C1688 C 0.70563 0.4535 0.86622 0.0
C1689 C 0.68292 0.43979 0.86144 0.0
C1690 C 0.71262 0.4732 0.85065 0.0
C1691 C 0.69702 0.47921 0.83013 0.0
C1692 C 0.67497 0.46485 0.82469 0.0
H1693 H 0.64365 0.58876 0.73894 0.0
H1694 H 0.65489 0.55893 0.77135 0.0
C1695 C 0.66791 0.44531 0.84027 0.0
C1696 C 0.70224 0.50148 0.81511 0.0
H1697 H 0.69146 0.56377 0.81491 0.0
C1698 C 0.70835 0.49817 0.78965 0.0
C1699 C 0.69706 0.52548 0.82469 0.0
C1700 C 0.69021 0.5297 0.85197 0.0
C1701 C 0.70785 0.51815 0.773 0.0
C1702 C 0.70117 0.54186 0.78228 0.0
C1703 C 0.69662 0.54548 0.80806 0.0
C1704 C 0.69526 0.56203 0.7649 0.0
C1705 C 0.71265 0.51345 0.74531 0.0
C1706 C 0.71439 0.57392 0.75115 0.0
C1707 C 0.70805 0.59092 0.73261 0.0
C1708 C 0.68249 0.59618 0.72762 0.0
C1709 C 0.66348 0.585 0.74227 0.0
C1710 C 0.66986 0.56805 0.76081 0.0
H1711 H 0.71531 0.49341 0.74089 0.0
H1712 H 0.69657 0.52008 0.73369 0.0
H1713 H 0.72998 0.52405 0.73972 0.0
H1714 H 0.7341 0.56954 0.75429 0.0
H1715 H 0.72314 0.59941 0.72176 0.0
H1716 H 0.70217 0.4052 0.97029 0.0
H1717 H 0.7413 0.41473 0.99347 0.0
H1718 H 0.76374 0.33849 0.98419 0.0
H1719 H 0.72498 0.32907 0.95935 0.0
H1720 H 0.76511 0.40207 0.03349 0.0
H1721 H 0.82158 0.37296 0.95109 0.0
H1722 H 0.78752 0.37419 0.9497 0.0
H1723 H 0.80268 0.34794 0.96364 0.0
C1724 C 0.71517 0.39025 0.97342 0.0
C1725 C 0.71068 0.36645 0.96246 0.0
C1726 C 0.73763 0.39579 0.98676 0.0
C1727 C 0.75592 0.37758 0.98983 0.0
C1728 C 0.75036 0.35311 0.98117 0.0
H1729 H 0.89104 0.40737 0.08283 0.0
H1730 H 0.84864 0.39594 0.06739 0.0
C1731 C 0.72806 0.34766 0.96725 0.0
C1732 C 0.78125 0.38495 1.00058 0.0
H1733 H 0.84448 0.38586 0.9878 0.0
C1734 C 0.78248 0.39853 0.02349 0.0
C1735 C 0.80388 0.38093 0.98722 0.0
C1736 C 0.8039 0.36845 0.96144 0.0
C1737 C 0.80559 0.40832 0.03331 0.0
C1738 C 0.82832 0.40336 0.02049 0.0
C1739 C 0.8271 0.38963 0.99769 0.0
C1740 C 0.85366 0.41186 0.03039 0.0
C1741 C 0.80511 0.42462 0.05679 0.0
C1742 C 0.87106 0.42409 1.01457 0.0
C1743 C 0.89576 0.42994 0.02312 0.0
C1744 C 0.90331 0.42409 0.0478 0.0
C1745 C 0.88565 0.41258 0.06384 0.0
C1746 C 0.86126 0.40614 0.05509 0.0
H1747 H 0.78658 0.43375 0.05868 0.0
H1748 H 0.8078 0.41292 0.07367 0.0
H1749 H 0.82033 0.43933 0.05674 0.0
H1750 H 0.86568 0.42863 0.99539 0.0
H1751 H 0.90904 0.43867 1.01035 0.0
H1752 H 0.91885 0.46344 0.20496 0.0
H1753 H 0.91229 0.49241 0.2402 0.0
H1754 H 0.97695 0.53708 0.21742 0.0
H1755 H 0.98301 0.50886 0.1815 0.0
H1756 H 0.94419 0.50749 0.28055 0.0
H1757 H 0.92028 0.58724 0.2196 0.0
H1758 H 0.92172 0.55575 0.20743 0.0
H1759 H 0.95043 0.5737 0.21379 0.0
C1760 C 0.93153 0.47955 0.20728 0.0
C1761 C 0.95132 0.48391 0.19025 0.0
C1762 C 0.92791 0.49595 0.22757 0.0
C1763 C 0.94395 0.51704 0.23123 0.0
C1764 C 0.96412 0.52112 0.21471 0.0
H1765 H 0.92605 0.6105 0.36899 0.0
H1766 H 0.94705 0.58657 0.33572 0.0
C1767 C 0.9677 0.5048 0.19434 0.0
C1768 C 0.93898 0.53502 0.25195 0.0
H1769 H 0.92003 0.59433 0.26353 0.0
C1770 C 0.93916 0.52656 0.27691 0.0
C1771 C 0.93235 0.55986 0.24705 0.0
C1772 C 0.93094 0.56972 0.22053 0.0
C1773 C 0.93209 0.54207 0.29707 0.0
C1774 C 0.92503 0.56675 0.29209 0.0
C1775 C 0.9257 0.57545 0.26725 0.0
C1776 C 0.91356 0.58266 0.31169 0.0
C1777 C 0.93096 0.53155 0.32332 0.0
C1778 C 0.88812 0.58898 0.30878 0.0
C1779 C 0.87621 0.60262 0.32752 0.0
C1780 C 0.8895 0.61035 0.34964 0.0
C1781 C 0.9153 0.60475 0.35221 0.0
C1782 C 0.92726 0.59097 0.33333 0.0
H1783 H 0.9333 0.51105 0.32328 0.0
H1784 H 0.94635 0.54031 0.33522 0.0
H1785 H 0.9126 0.5358 0.33219 0.0
H1786 H 0.87724 0.58282 0.2922 0.0
H1787 H 0.8564 0.60676 0.32477 0.0
H1788 H 0.65875 0.55227 0.58659 0.0
H1789 H 0.66731 0.53551 0.54426 0.0
H1790 H 0.73859 0.57699 0.54434 0.0
H1791 H 0.73002 0.59372 0.58633 0.0
H1792 H 0.6709 0.56876 0.50572 0.0
H1793 H 0.75692 0.5134 0.50708 0.0
H1794 H 0.73753 0.51731 0.53469 0.0
H1795 H 0.76181 0.54026 0.52726 0.0
C1796 C 0.6767 0.55689 0.57791 0.0
C1797 C 0.6938 0.57423 0.58951 0.0
C1798 C 0.68153 0.54735 0.55378 0.0
C1799 C 0.70371 0.55473 0.54131 0.0
C1800 C 0.72166 0.57052 0.55385 0.0
H1801 H 0.75306 0.63693 0.4362 0.0
H1802 H 0.72372 0.61306 0.46202 0.0
C1803 C 0.7167 0.58026 0.57773 0.0
C1804 C 0.70613 0.55076 0.5138 0.0
H1805 H 0.75345 0.54326 0.47176 0.0
C1806 C 0.68848 0.56221 0.49796 0.0
C1807 C 0.7286 0.54159 0.50346 0.0
C1808 C 0.74712 0.52719 0.51906 0.0
C1809 C 0.69466 0.56829 0.47312 0.0
C1810 C 0.71906 0.56296 0.46428 0.0
C1811 C 0.73491 0.54792 0.47873 0.0
C1812 C 0.73088 0.5775 0.44389 0.0
C1813 C 0.67592 0.58227 0.45738 0.0
C1814 C 0.74421 0.5656 0.42467 0.0
C1815 C 0.76117 0.57929 0.40993 0.0
C1816 C 0.76526 0.60499 0.41451 0.0
C1817 C 0.75035 0.61716 0.4323 0.0
C1818 C 0.73334 0.60351 0.44691 0.0
H1819 H 0.6562 0.57583 0.46136 0.0
H1820 H 0.6775 0.60241 0.46241 0.0
H1821 H 0.67944 0.57991 0.43686 0.0
H1822 H 0.74276 0.54553 0.4222 0.0
H1823 H 0.77236 0.5694 0.39625 0.0
H1824 H 0.34382 0.54564 0.21628 0.0
H1825 H 0.32852 0.52128 0.25149 0.0
H1826 H 0.33062 0.58728 0.29921 0.0
H1827 H 0.34665 0.6118 0.26383 0.0
H1828 H 0.35609 0.55272 0.31995 0.0
H1829 H 0.26567 0.50825 0.28974 0.0
H1830 H 0.28772 0.50382 0.26484 0.0
H1831 H 0.27889 0.53499 0.27373 0.0
C1832 C 0.34036 0.5551 0.23407 0.0
C1833 C 0.34654 0.58053 0.23742 0.0
C1834 C 0.3313 0.54121 0.25416 0.0
C1835 C 0.32781 0.55253 0.2779 0.0
C1836 C 0.3329 0.57822 0.28099 0.0
H1837 H 0.34285 0.4472 0.40273 0.0
H1838 H 0.32328 0.4833 0.38342 0.0
C1839 C 0.34226 0.59213 0.26089 0.0
C1840 C 0.32353 0.53653 0.30004 0.0
H1841 H 0.29439 0.48133 0.31497 0.0
C1842 C 0.3419 0.5377 0.31951 0.0
C1843 C 0.30484 0.5171 0.29974 0.0
C1844 C 0.28303 0.51622 0.28098 0.0
C1845 C 0.3441 0.51824 0.33662 0.0
C1846 C 0.32748 0.49724 0.33408 0.0
C1847 C 0.30731 0.49737 0.31656 0.0
C1848 C 0.33427 0.47346 0.34545 0.0
C1849 C 0.36579 0.51902 0.35558 0.0
C1850 C 0.34616 0.45578 0.33027 0.0
C1851 C 0.35752 0.43538 0.34117 0.0
C1852 C 0.35698 0.43227 0.36742 0.0
C1853 C 0.34357 0.44914 0.38243 0.0
C1854 C 0.33236 0.46972 0.37148 0.0
H1855 H 0.37713 0.53675 0.35498 0.0
H1856 H 0.35831 0.51686 0.37493 0.0
H1857 H 0.37854 0.50331 0.35186 0.0
H1858 H 0.34789 0.45853 0.31013 0.0
H1859 H 0.36749 0.42255 0.32914 0.0
H1860 H 0.29999 0.63829 0.8791 0.0
H1861 H 0.3285 0.64027 0.91615 0.0
H1862 H 0.27367 0.68259 0.957 0.0
H1863 H 0.24539 0.68114 0.9201 0.0
H1864 H 0.32385 0.70055 0.96426 0.0
H1865 H 0.31392 0.59819 0.97857 0.0
H1866 H 0.32529 0.60772 0.94829 0.0
H1867 H 0.29349 0.61453 0.95724 0.0
C1868 C 0.29411 0.64812 0.89595 0.0
C1869 C 0.27037 0.65934 0.89683 0.0
C1870 C 0.31037 0.6492 0.91706 0.0
C1871 C 0.30301 0.66132 0.93934 0.0
C1872 C 0.27968 0.67316 0.93995 0.0
H1873 H 0.33268 0.64082 0.09398 0.0
H1874 H 0.31694 0.6457 0.05087 0.0
C1875 C 0.2635 0.67219 0.91889 0.0
C1876 C 0.31871 0.66062 0.96265 0.0
H1877 H 0.33805 0.62136 1.00867 0.0
C1878 C 0.32729 0.68325 0.97388 0.0
C1879 C 0.32291 0.63798 0.97513 0.0
C1880 C 0.3133 0.6132 0.96437 0.0
C1881 C 0.33926 0.68389 0.99775 0.0
C1882 C 0.34291 0.66128 1.01043 0.0
C1883 C 0.3352 0.63863 0.99877 0.0
C1884 C 0.35242 0.66065 0.03677 0.0
C1885 C 0.3468 0.70871 1.00978 0.0
C1886 C 0.3775 0.66788 0.04315 0.0
C1887 C 0.38656 0.66523 0.06792 0.0
C1888 C 0.37067 0.65513 0.08647 0.0
C1889 C 0.3454 0.64858 0.08009 0.0
C1890 C 0.33638 0.65131 0.05547 0.0
H1891 H 0.33911 0.72457 0.99915 0.0
H1892 H 0.34004 0.70974 0.02952 0.0
H1893 H 0.36779 0.71078 1.01037 0.0
H1894 H 0.39023 0.67484 0.02886 0.0
H1895 H 0.40617 0.67029 0.07232 0.0
H1896 H 0.22457 0.59427 0.78697 0.0
H1897 H 0.20416 0.56235 0.75965 0.0
H1898 H 0.16695 0.61926 0.71748 0.0
H1899 H 0.18714 0.6514 0.74482 0.0
H1900 H 0.13386 0.58214 0.7363 0.0
H1901 H 0.21416 0.54059 0.68568 0.0
H1902 H 0.2188 0.54307 0.71932 0.0
H1903 H 0.21656 0.57087 0.70103 0.0
C1904 C 0.21253 0.60009 0.77152 0.0
C1905 C 0.20744 0.62542 0.76815 0.0
C1906 C 0.20092 0.58178 0.75587 0.0
C1907 C 0.18413 0.58845 0.73649 0.0
C1908 C 0.1799 0.61375 0.73232 0.0
H1909 H 0.1128 0.48295 0.62895 0.0
H1910 H 0.13442 0.51928 0.6486 0.0
C1911 C 0.19157 0.6321 0.74791 0.0
C1912 C 0.16925 0.56897 0.72219 0.0
H1913 H 0.17483 0.51749 0.68427 0.0
C1914 C 0.14278 0.56813 0.72472 0.0
C1915 C 0.18092 0.55082 0.70703 0.0
C1916 C 0.20916 0.55143 0.70286 0.0
C1917 C 0.12771 0.5492 0.713 0.0
C1918 C 0.13948 0.53051 0.69861 0.0
C1919 C 0.16588 0.53174 0.6955 0.0
C1920 C 0.12482 0.50936 0.68679 0.0
C1921 C 0.09933 0.54936 0.71604 0.0
C1922 C 0.11208 0.49183 0.70177 0.0
C1923 C 0.09966 0.47099 0.69061 0.0
C1924 C 0.09987 0.46729 0.66425 0.0
C1925 C 0.11219 0.48522 0.6493 0.0
C1926 C 0.12464 0.50598 0.66048 0.0
H1927 H 0.09284 0.56797 0.7222 0.0
H1928 H 0.08939 0.54391 0.69807 0.0
H1929 H 0.09372 0.5357 0.7306 0.0
H1930 H 0.11231 0.49393 0.72216 0.0
H1931 H 0.09044 0.45752 0.70269 0.0
H1932 H 0.31725 0.41981 0.43414 0.0
H1933 H 0.27941 0.42463 0.45985 0.0
H1934 H 0.31693 0.38926 0.52214 0.0
H1935 H 0.35479 0.38435 0.49658 0.0
H1936 H 0.25342 0.38163 0.48097 0.0
H1937 H 0.28403 0.452 0.554 0.0
H1938 H 0.2996 0.44892 0.52397 0.0
H1939 H 0.30588 0.4274 0.54878 0.0
C1940 C 0.31758 0.41352 0.45348 0.0
C1941 C 0.33884 0.40168 0.46344 0.0
C1942 C 0.29599 0.41626 0.46808 0.0
C1943 C 0.29558 0.4075 0.49287 0.0
C1944 C 0.31712 0.39648 0.50314 0.0
H1945 H 0.19131 0.38027 0.61163 0.0
H1946 H 0.22759 0.38533 0.58375 0.0
C1947 C 0.33863 0.39358 0.48852 0.0
C1948 C 0.27188 0.40751 0.50722 0.0
H1949 H 0.24614 0.42841 0.56198 0.0
C1950 C 0.2516 0.39209 0.49852 0.0
C1951 C 0.26984 0.4211 0.53009 0.0
C1952 C 0.2909 0.43848 0.53974 0.0
C1953 C 0.22956 0.38905 0.51272 0.0
C1954 C 0.22768 0.40228 0.5359 0.0
C1955 C 0.24773 0.41825 0.54422 0.0
C1956 C 0.20554 0.39902 0.55235 0.0
C1957 C 0.20902 0.37092 0.50333 0.0
C1958 C 0.18119 0.40506 0.54385 0.0
C1959 C 0.16043 0.402 0.55966 0.0
C1960 C 0.16382 0.39319 0.5843 0.0
C1961 C 0.18823 0.38723 0.59276 0.0
C1962 C 0.20892 0.39011 0.5769 0.0
H1963 H 0.21605 0.35794 0.48864 0.0
H1964 H 0.20125 0.3598 0.51909 0.0
H1965 H 0.1933 0.38144 0.49484 0.0
H1966 H 0.1783 0.41246 0.52514 0.0
H1967 H 0.14185 0.40711 0.55286 0.0
loop_
_geom_bond_atom_site_label_1
_geom_bond_atom_site_label_2
_geom_bond_distance
_geom_bond_site_symmetry_2
_ccdc_geom_bond_type
Co0 N4 2.148 . S
Co0 N10 2.128 . S
Co0 N20 2.194 . S
Co0 O25 2.351 . S
Co0 O26 2.155 . S
Co0 O27 2.096 . S
C1 N4 1.301 . S
C1 N5 1.328 . S
C1 H6 0.930 . S
C2 C3 1.333 . S
C2 N4 1.317 . S
C2 H7 0.930 . S
C3 C2 1.333 . S
C3 N5 1.350 . S
C3 H29 0.931 . S
N4 Co0 2.148 . S
N4 C1 1.301 . S
N4 C2 1.317 . S
N5 C1 1.328 . S
N5 C3 1.350 . S
H6 C1 0.930 . S
H7 C2 0.930 . S
C8 O9 1.224 . S
C8 O27 1.247 . S
O9 C8 1.224 . S
N10 Co0 2.128 . S
N10 C11 1.355 . S
N10 C13 1.311 . S
C11 N10 1.355 . S
C11 C12 1.363 . S
C11 H23 0.929 . S
C12 C11 1.363 . S
C12 N14 1.375 . S
C12 H30 0.931 . S
C13 N10 1.311 . S
C13 N14 1.347 . S
C13 H24 0.929 . S
N14 C12 1.375 . S
N14 C13 1.347 . S
C15 C18 1.365 . S
C15 N20 1.328 . S
C15 H21 0.929 . S
C16 C17 1.362 . S
C16 C19 1.378 . S
C16 H31 0.929 . S
C17 C16 1.362 . S
C17 C18 1.366 . S
C18 C15 1.365 . S
C18 C17 1.366 . S
C18 H32 0.930 . S
C19 C16 1.378 . S
C19 N20 1.315 . S
C19 H22 0.930 . S
N20 Co0 2.194 . S
N20 C15 1.328 . S
N20 C19 1.315 . S
H21 C15 0.929 . S
H22 C19 0.930 . S
H23 C11 0.929 . S
H24 C13 0.929 . S
O25 Co0 2.351 . S
O25 C28 1.244 . S
O26 Co0 2.155 . S
O26 C28 1.240 . S
O27 Co0 2.096 . S
O27 C8 1.247 . S
C28 O25 1.244 . S
C28 O26 1.240 . S
H29 C3 0.931 . S
H30 C12 0.931 . S
H31 C16 0.929 . S
H32 C18 0.930 . S
Co33 N37 2.148 . S
Co33 N43 2.128 . S
Co33 N53 2.194 . S
Co33 O58 2.351 . S
Co33 O59 2.155 . S
Co33 O60 2.096 . S
C34 N37 1.301 . S
C34 N38 1.328 . S
C34 H39 0.930 . S
C35 C36 1.333 . S
C35 N37 1.317 . S
C35 H40 0.930 . S
C36 C35 1.333 . S
C36 N38 1.350 . S
C36 H62 0.931 . S
N37 Co33 2.148 . S
N37 C34 1.301 . S
N37 C35 1.317 . S
N38 C34 1.328 . S
N38 C36 1.350 . S
H39 C34 0.930 . S
H40 C35 0.930 . S
C41 O42 1.224 . S
C41 O60 1.247 . S
O42 C41 1.224 . S
N43 Co33 2.128 . S
N43 C44 1.355 . S
N43 C46 1.311 . S
C44 N43 1.355 . S
C44 C45 1.363 . S
C44 H56 0.929 . S
C45 C44 1.363 . S
C45 N47 1.375 . S
C45 H63 0.931 . S
C46 N43 1.311 . S
C46 N47 1.347 . S
C46 H57 0.929 . S
N47 C45 1.375 . S
N47 C46 1.347 . S
C48 C51 1.365 . S
C48 N53 1.328 . S
C48 H54 0.929 . S
C49 C50 1.362 . S
C49 C52 1.378 . S
C49 H64 0.929 . S
C50 C49 1.362 . S
C50 C51 1.366 . S
C51 C48 1.365 . S
C51 C50 1.366 . S
C51 H65 0.930 . S
C52 C49 1.378 . S
C52 N53 1.315 . S
C52 H55 0.930 . S
N53 Co33 2.194 . S
N53 C48 1.328 . S
N53 C52 1.315 . S
H54 C48 0.929 . S
H55 C52 0.930 . S
H56 C44 0.929 . S
H57 C46 0.929 . S
O58 Co33 2.351 . S
O58 C61 1.244 . S
O59 Co33 2.155 . S
O59 C61 1.240 . S
O60 Co33 2.096 . S
O60 C41 1.247 . S
C61 O58 1.244 . S
C61 O59 1.240 . S
H62 C36 0.931 . S
H63 C45 0.931 . S
H64 C49 0.929 . S
H65 C51 0.930 . S
Co66 N70 2.148 . S
Co66 N76 2.128 . S
Co66 N86 2.194 . S
Co66 O91 2.351 . S
Co66 O92 2.155 . S
Co66 O93 2.096 . S
C67 N70 1.301 . S
C67 N71 1.328 . S
C67 H72 0.930 . S
C68 C69 1.333 . S
C68 N70 1.317 . S
C68 H73 0.930 . S
C69 C68 1.333 . S
C69 N71 1.350 . S
C69 H95 0.931 . S
N70 Co66 2.148 . S
N70 C67 1.301 . S
N70 C68 1.317 . S
N71 C67 1.328 . S
N71 C69 1.350 . S
H72 C67 0.930 . S
H73 C68 0.930 . S
C74 O75 1.224 . S
C74 O93 1.247 . S
O75 C74 1.224 . S
N76 Co66 2.128 . S
N76 C77 1.355 . S
N76 C79 1.311 . S
C77 N76 1.355 . S
C77 C78 1.363 . S
C77 H89 0.929 . S
C78 C77 1.363 . S
C78 N80 1.375 . S
C78 H96 0.931 . S
C79 N76 1.311 . S
C79 N80 1.347 . S
C79 H90 0.929 . S
N80 C78 1.375 . S
N80 C79 1.347 . S
C81 C84 1.365 . S
C81 N86 1.328 . S
C81 H87 0.929 . S
C82 C83 1.362 . S
C82 C85 1.378 . S
C82 H97 0.929 . S
C83 C82 1.362 . S
C83 C84 1.366 . S
C84 C81 1.365 . S
C84 C83 1.366 . S
C84 H98 0.930 . S
C85 C82 1.378 . S
C85 N86 1.315 . S
C85 H88 0.930 . S
N86 Co66 2.194 . S
N86 C81 1.328 . S
N86 C85 1.315 . S
H87 C81 0.929 . S
H88 C85 0.930 . S
H89 C77 0.929 . S
H90 C79 0.929 . S
O91 Co66 2.351 . S
O91 C94 1.244 . S
O92 Co66 2.155 . S
O92 C94 1.240 . S
O93 Co66 2.096 . S
O93 C74 1.247 . S
C94 O91 1.244 . S
C94 O92 1.240 . S
H95 C69 0.931 . S
H96 C78 0.931 . S
H97 C82 0.929 . S
H98 C84 0.930 . S
Co99 N103 2.148 . S
Co99 N109 2.128 . S
Co99 N119 2.194 . S
Co99 O124 2.351 . S
Co99 O125 2.155 . S
Co99 O126 2.096 . S
C100 N103 1.301 . S
C100 N104 1.328 . S
C100 H105 0.930 . S
C101 C102 1.333 . S
C101 N103 1.317 . S
C101 H106 0.930 . S
C102 C101 1.333 . S
C102 N104 1.350 . S
C102 H128 0.931 . S
N103 Co99 2.148 . S
N103 C100 1.301 . S
N103 C101 1.317 . S
N104 C100 1.328 . S
N104 C102 1.350 . S
H105 C100 0.930 . S
H106 C101 0.930 . S
C107 O108 1.224 . S
C107 O126 1.247 . S
O108 C107 1.224 . S
N109 Co99 2.128 . S
N109 C110 1.355 . S
N109 C112 1.311 . S
C110 N109 1.355 . S
C110 C111 1.363 . S
C110 H122 0.929 . S
C111 C110 1.363 . S
C111 N113 1.375 . S
C111 H129 0.931 . S
C112 N109 1.311 . S
C112 N113 1.347 . S
C112 H123 0.929 . S
N113 C111 1.375 . S
N113 C112 1.347 . S
C114 C117 1.365 . S
C114 N119 1.328 . S
C114 H120 0.929 . S
C115 C116 1.362 . S
C115 C118 1.378 . S
C115 H130 0.929 . S
C116 C115 1.362 . S
C116 C117 1.366 . S
C117 C114 1.365 . S
C117 C116 1.366 . S
C117 H131 0.930 . S
C118 C115 1.378 . S
C118 N119 1.315 . S
C118 H121 0.930 . S
N119 Co99 2.194 . S
N119 C114 1.328 . S
N119 C118 1.315 . S
H120 C114 0.929 . S
H121 C118 0.930 . S
H122 C110 0.929 . S
H123 C112 0.929 . S
O124 Co99 2.351 . S
O124 C127 1.244 . S
O125 Co99 2.155 . S
O125 C127 1.240 . S
O126 Co99 2.096 . S
O126 C107 1.247 . S
C127 O124 1.244 . S
C127 O125 1.240 . S
H128 C102 0.931 . S
H129 C111 0.931 . S
H130 C115 0.929 . S
H131 C117 0.930 . S
Co132 N136 2.148 . S
Co132 N142 2.128 . S
Co132 N152 2.194 . S
Co132 O157 2.351 . S
Co132 O158 2.155 . S
Co132 O159 2.096 . S
C133 N136 1.301 . S
C133 N137 1.328 . S
C133 H138 0.930 . S
C134 C135 1.333 . S
C134 N136 1.317 . S
C134 H139 0.930 . S
C135 C134 1.333 . S
C135 N137 1.350 . S
C135 H161 0.931 . S
N136 Co132 2.148 . S
N136 C133 1.301 . S
N136 C134 1.317 . S
N137 C133 1.328 . S
N137 C135 1.350 . S
H138 C133 0.930 . S
H139 C134 0.930 . S
C140 O141 1.224 . S
C140 O159 1.247 . S
O141 C140 1.224 . S
N142 Co132 2.128 . S
N142 C143 1.355 . S
N142 C145 1.311 . S
C143 N142 1.355 . S
C143 C144 1.363 . S
C143 H155 0.929 . S
C144 C143 1.363 . S
C144 N146 1.375 . S
C144 H162 0.931 . S
C145 N142 1.311 . S
C145 N146 1.347 . S
C145 H156 0.929 . S
N146 C144 1.375 . S
N146 C145 1.347 . S
C147 C150 1.365 . S
C147 N152 1.328 . S
C147 H153 0.929 . S
C148 C149 1.362 . S
C148 C151 1.378 . S
C148 H163 0.929 . S
C149 C148 1.362 . S
C149 C150 1.366 . S
C150 C147 1.365 . S
C150 C149 1.366 . S
C150 H164 0.930 . S
C151 C148 1.378 . S
C151 N152 1.315 . S
C151 H154 0.930 . S
N152 Co132 2.194 . S
N152 C147 1.328 . S
N152 C151 1.315 . S
H153 C147 0.929 . S
H154 C151 0.930 . S
H155 C143 0.929 . S
H156 C145 0.929 . S
O157 Co132 2.351 . S
O157 C160 1.244 . S
O158 Co132 2.155 . S
O158 C160 1.240 . S
O159 Co132 2.096 . S
O159 C140 1.247 . S
C160 O157 1.244 . S
C160 O158 1.240 . S
H161 C135 0.931 . S
H162 C144 0.931 . S
H163 C148 0.929 . S
H164 C150 0.930 . S
Co165 N169 2.148 . S
Co165 N175 2.128 . S
Co165 N185 2.194 . S
Co165 O190 2.351 . S
Co165 O191 2.155 . S
Co165 O192 2.096 . S
C166 N169 1.301 . S
C166 N170 1.328 . S
C166 H171 0.930 . S
C167 C168 1.333 . S
C167 N169 1.317 . S
C167 H172 0.930 . S
C168 C167 1.333 . S
C168 N170 1.350 . S
C168 H194 0.931 . S
N169 Co165 2.148 . S
N169 C166 1.301 . S
N169 C167 1.317 . S
N170 C166 1.328 . S
N170 C168 1.350 . S
H171 C166 0.930 . S
H172 C167 0.930 . S
C173 O174 1.224 . S
C173 O192 1.247 . S
O174 C173 1.224 . S
N175 Co165 2.128 . S
N175 C176 1.355 . S
N175 C178 1.311 . S
C176 N175 1.355 . S
C176 C177 1.363 . S
C176 H188 0.929 . S
C177 C176 1.363 . S
C177 N179 1.375 . S
C177 H195 0.931 . S
C178 N175 1.311 . S
C178 N179 1.347 . S
C178 H189 0.929 . S
N179 C177 1.375 . S
N179 C178 1.347 . S
C180 C183 1.365 . S
C180 N185 1.328 . S
C180 H186 0.929 . S
C181 C182 1.362 . S
C181 C184 1.378 . S
C181 H196 0.929 . S
C182 C181 1.362 . S
C182 C183 1.366 . S
C183 C180 1.365 . S
C183 C182 1.366 . S
C183 H197 0.930 . S
C184 C181 1.378 . S
C184 N185 1.315 . S
C184 H187 0.930 . S
N185 Co165 2.194 . S
N185 C180 1.328 . S
N185 C184 1.315 . S
H186 C180 0.929 . S
H187 C184 0.930 . S
H188 C176 0.929 . S
H189 C178 0.929 . S
O190 Co165 2.351 . S
O190 C193 1.244 . S
O191 Co165 2.155 . S
O191 C193 1.240 . S
O192 Co165 2.096 . S
O192 C173 1.247 . S
C193 O190 1.244 . S
C193 O191 1.240 . S
H194 C168 0.931 . S
H195 C177 0.931 . S
H196 C181 0.929 . S
H197 C183 0.930 . S
Co198 N202 2.148 . S
Co198 N208 2.128 . S
Co198 N218 2.194 . S
Co198 O223 2.351 . S
Co198 O224 2.155 . S
Co198 O225 2.096 . S
C199 N202 1.301 . S
C199 N203 1.328 . S
C199 H204 0.930 . S
C200 C201 1.333 . S
C200 N202 1.317 . S
C200 H205 0.930 . S
C201 C200 1.333 . S
C201 N203 1.350 . S
C201 H227 0.931 . S
N202 Co198 2.148 . S
N202 C199 1.301 . S
N202 C200 1.317 . S
N203 C199 1.328 . S
N203 C201 1.350 . S
H204 C199 0.930 . S
H205 C200 0.930 . S
C206 O207 1.224 . S
C206 O225 1.247 . S
O207 C206 1.224 . S
N208 Co198 2.128 . S
N208 C209 1.355 . S
N208 C211 1.311 . S
C209 N208 1.355 . S
C209 C210 1.363 . S
C209 H221 0.929 . S
C210 C209 1.363 . S
C210 N212 1.375 . S
C210 H228 0.931 . S
C211 N208 1.311 . S
C211 N212 1.347 . S
C211 H222 0.929 . S
N212 C210 1.375 . S
N212 C211 1.347 . S
C213 C216 1.365 . S
C213 N218 1.328 . S
C213 H219 0.929 . S
C214 C215 1.362 . S
C214 C217 1.378 . S
C214 H229 0.929 . S
C215 C214 1.362 . S
C215 C216 1.366 . S
C216 C213 1.365 . S
C216 C215 1.366 . S
C216 H230 0.930 . S
C217 C214 1.378 . S
C217 N218 1.315 . S
C217 H220 0.930 . S
N218 Co198 2.194 . S
N218 C213 1.328 . S
N218 C217 1.315 . S
H219 C213 0.929 . S
H220 C217 0.930 . S
H221 C209 0.929 . S
H222 C211 0.929 . S
O223 Co198 2.351 . S
O223 C226 1.244 . S
O224 Co198 2.155 . S
O224 C226 1.240 . S
O225 Co198 2.096 . S
O225 C206 1.247 . S
C226 O223 1.244 . S
C226 O224 1.240 . S
H227 C201 0.931 . S
H228 C210 0.931 . S
H229 C214 0.929 . S
H230 C216 0.930 . S
Co231 N235 2.148 . S
Co231 N241 2.128 . S
Co231 N251 2.194 . S
Co231 O256 2.351 . S
Co231 O257 2.155 . S
Co231 O258 2.096 . S
C232 N235 1.301 . S
C232 N236 1.328 . S
C232 H237 0.930 . S
C233 C234 1.333 . S
C233 N235 1.317 . S
C233 H238 0.930 . S
C234 C233 1.333 . S
C234 N236 1.350 . S
C234 H260 0.931 . S
N235 Co231 2.148 . S
N235 C232 1.301 . S
N235 C233 1.317 . S
N236 C232 1.328 . S
N236 C234 1.350 . S
H237 C232 0.930 . S
H238 C233 0.930 . S
C239 O240 1.224 . S
C239 O258 1.247 . S
O240 C239 1.224 . S
N241 Co231 2.128 . S
N241 C242 1.355 . S
N241 C244 1.311 . S
C242 N241 1.355 . S
C242 C243 1.363 . S
C242 H254 0.929 . S
C243 C242 1.363 . S
C243 N245 1.375 . S
C243 H261 0.931 . S
C244 N241 1.311 . S
C244 N245 1.347 . S
C244 H255 0.929 . S
N245 C243 1.375 . S
N245 C244 1.347 . S
C246 C249 1.365 . S
C246 N251 1.328 . S
C246 H252 0.929 . S
C247 C248 1.362 . S
C247 C250 1.378 . S
C247 H262 0.929 . S
C248 C247 1.362 . S
C248 C249 1.366 . S
C249 C246 1.365 . S
C249 C248 1.366 . S
C249 H263 0.930 . S
C250 C247 1.378 . S
C250 N251 1.315 . S
C250 H253 0.930 . S
N251 Co231 2.194 . S
N251 C246 1.328 . S
N251 C250 1.315 . S
H252 C246 0.929 . S
H253 C250 0.930 . S
H254 C242 0.929 . S
H255 C244 0.929 . S
O256 Co231 2.351 . S
O256 C259 1.244 . S
O257 Co231 2.155 . S
O257 C259 1.240 . S
O258 Co231 2.096 . S
O258 C239 1.247 . S
C259 O256 1.244 . S
C259 O257 1.240 . S
H260 C234 0.931 . S
H261 C243 0.931 . S
H262 C247 0.929 . S
H263 C249 0.930 . S
Co264 N268 2.148 . S
Co264 N274 2.128 . S
Co264 N284 2.194 . S
Co264 O289 2.351 . S
Co264 O290 2.155 . S
Co264 O291 2.096 . S
C265 N268 1.301 . S
C265 N269 1.328 . S
C265 H270 0.930 . S
C266 C267 1.333 . S
C266 N268 1.317 . S
C266 H271 0.930 . S
C267 C266 1.333 . S
C267 N269 1.350 . S
C267 H293 0.931 . S
N268 Co264 2.148 . S
N268 C265 1.301 . S
N268 C266 1.317 . S
N269 C265 1.328 . S
N269 C267 1.350 . S
H270 C265 0.930 . S
H271 C266 0.930 . S
C272 O273 1.224 . S
C272 O291 1.247 . S
O273 C272 1.224 . S
N274 Co264 2.128 . S
N274 C275 1.355 . S
N274 C277 1.311 . S
C275 N274 1.355 . S
C275 C276 1.363 . S
C275 H287 0.929 . S
C276 C275 1.363 . S
C276 N278 1.375 . S
C276 H294 0.931 . S
C277 N274 1.311 . S
C277 N278 1.347 . S
C277 H288 0.929 . S
N278 C276 1.375 . S
N278 C277 1.347 . S
C279 C282 1.365 . S
C279 N284 1.328 . S
C279 H285 0.929 . S
C280 C281 1.362 . S
C280 C283 1.378 . S
C280 H295 0.929 . S
C281 C280 1.362 . S
C281 C282 1.366 . S
C282 C279 1.365 . S
C282 C281 1.366 . S
C282 H296 0.930 . S
C283 C280 1.378 . S
C283 N284 1.315 . S
C283 H286 0.930 . S
N284 Co264 2.194 . S
N284 C279 1.328 . S
N284 C283 1.315 . S
H285 C279 0.929 . S
H286 C283 0.930 . S
H287 C275 0.929 . S
H288 C277 0.929 . S
O289 Co264 2.351 . S
O289 C292 1.244 . S
O290 Co264 2.155 . S
O290 C292 1.240 . S
O291 Co264 2.096 . S
O291 C272 1.247 . S
C292 O289 1.244 . S
C292 O290 1.240 . S
H293 C267 0.931 . S
H294 C276 0.931 . S
H295 C280 0.929 . S
H296 C282 0.930 . S
Co297 N301 2.148 . S
Co297 N307 2.128 . S
Co297 N317 2.194 . S
Co297 O322 2.351 . S
Co297 O323 2.155 . S
Co297 O324 2.096 . S
C298 N301 1.301 . S
C298 N302 1.328 . S
C298 H303 0.930 . S
C299 C300 1.333 . S
C299 N301 1.317 . S
C299 H304 0.930 . S
C300 C299 1.333 . S
C300 N302 1.350 . S
C300 H326 0.931 . S
N301 Co297 2.148 . S
N301 C298 1.301 . S
N301 C299 1.317 . S
N302 C298 1.328 . S
N302 C300 1.350 . S
H303 C298 0.930 . S
H304 C299 0.930 . S
C305 O306 1.224 . S
C305 O324 1.247 . S
O306 C305 1.224 . S
N307 Co297 2.128 . S
N307 C308 1.355 . S
N307 C310 1.311 . S
C308 N307 1.355 . S
C308 C309 1.363 . S
C308 H320 0.929 . S
C309 C308 1.363 . S
C309 N311 1.375 . S
C309 H327 0.931 . S
C310 N307 1.311 . S
C310 N311 1.347 . S
C310 H321 0.929 . S
N311 C309 1.375 . S
N311 C310 1.347 . S
C312 C315 1.365 . S
C312 N317 1.328 . S
C312 H318 0.929 . S
C313 C314 1.362 . S
C313 C316 1.378 . S
C313 H328 0.929 . S
C314 C313 1.362 . S
C314 C315 1.366 . S
C315 C312 1.365 . S
C315 C314 1.366 . S
C315 H329 0.930 . S
C316 C313 1.378 . S
C316 N317 1.315 . S
C316 H319 0.930 . S
N317 Co297 2.194 . S
N317 C312 1.328 . S
N317 C316 1.315 . S
H318 C312 0.929 . S
H319 C316 0.930 . S
H320 C308 0.929 . S
H321 C310 0.929 . S
O322 Co297 2.351 . S
O322 C325 1.244 . S
O323 Co297 2.155 . S
O323 C325 1.240 . S
O324 Co297 2.096 . S
O324 C305 1.247 . S
C325 O322 1.244 . S
C325 O323 1.240 . S
H326 C300 0.931 . S
H327 C309 0.931 . S
H328 C313 0.929 . S
H329 C315 0.930 . S
Co330 N334 2.148 . S
Co330 N340 2.128 . S
Co330 N350 2.194 . S
Co330 O355 2.351 . S
Co330 O356 2.155 . S
Co330 O357 2.096 . S
C331 N334 1.301 . S
C331 N335 1.328 . S
C331 H336 0.930 . S
C332 C333 1.333 . S
C332 N334 1.317 . S
C332 H337 0.930 . S
C333 C332 1.333 . S
C333 N335 1.350 . S
C333 H359 0.931 . S
N334 Co330 2.148 . S
N334 C331 1.301 . S
N334 C332 1.317 . S
N335 C331 1.328 . S
N335 C333 1.350 . S
H336 C331 0.930 . S
H337 C332 0.930 . S
C338 O339 1.224 . S
C338 O357 1.247 . S
O339 C338 1.224 . S
N340 Co330 2.128 . S
N340 C341 1.355 . S
N340 C343 1.311 . S
C341 N340 1.355 . S
C341 C342 1.363 . S
C341 H353 0.929 . S
C342 C341 1.363 . S
C342 N344 1.375 . S
C342 H360 0.931 . S
C343 N340 1.311 . S
C343 N344 1.347 . S
C343 H354 0.929 . S
N344 C342 1.375 . S
N344 C343 1.347 . S
C345 C348 1.365 . S
C345 N350 1.328 . S
C345 H351 0.929 . S
C346 C347 1.362 . S
C346 C349 1.378 . S
C346 H361 0.929 . S
C347 C346 1.362 . S
C347 C348 1.366 . S
C348 C345 1.365 . S
C348 C347 1.366 . S
C348 H362 0.930 . S
C349 C346 1.378 . S
C349 N350 1.315 . S
C349 H352 0.930 . S
N350 Co330 2.194 . S
N350 C345 1.328 . S
N350 C349 1.315 . S
H351 C345 0.929 . S
H352 C349 0.930 . S
H353 C341 0.929 . S
H354 C343 0.929 . S
O355 Co330 2.351 . S
O355 C358 1.244 . S
O356 Co330 2.155 . S
O356 C358 1.240 . S
O357 Co330 2.096 . S
O357 C338 1.247 . S
C358 O355 1.244 . S
C358 O356 1.240 . S
H359 C333 0.931 . S
H360 C342 0.931 . S
H361 C346 0.929 . S
H362 C348 0.930 . S
Co363 N367 2.148 . S
Co363 N373 2.128 . S
Co363 N383 2.194 . S
Co363 O388 2.351 . S
Co363 O389 2.155 . S
Co363 O390 2.096 . S
C364 N367 1.301 . S
C364 N368 1.328 . S
C364 H369 0.930 . S
C365 C366 1.333 . S
C365 N367 1.317 . S
C365 H370 0.930 . S
C366 C365 1.333 . S
C366 N368 1.350 . S
C366 H392 0.931 . S
N367 Co363 2.148 . S
N367 C364 1.301 . S
N367 C365 1.317 . S
N368 C364 1.328 . S
N368 C366 1.350 . S
H369 C364 0.930 . S
H370 C365 0.930 . S
C371 O372 1.224 . S
C371 O390 1.247 . S
O372 C371 1.224 . S
N373 Co363 2.128 . S
N373 C374 1.355 . S
N373 C376 1.311 . S
C374 N373 1.355 . S
C374 C375 1.363 . S
C374 H386 0.929 . S
C375 C374 1.363 . S
C375 N377 1.375 . S
C375 H393 0.931 . S
C376 N373 1.311 . S
C376 N377 1.347 . S
C376 H387 0.929 . S
N377 C375 1.375 . S
N377 C376 1.347 . S
C378 C381 1.365 . S
C378 N383 1.328 . S
C378 H384 0.929 . S
C379 C380 1.362 . S
C379 C382 1.378 . S
C379 H394 0.929 . S
C380 C379 1.362 . S
C380 C381 1.366 . S
C381 C378 1.365 . S
C381 C380 1.366 . S
C381 H395 0.930 . S
C382 C379 1.378 . S
C382 N383 1.315 . S
C382 H385 0.930 . S
N383 Co363 2.194 . S
N383 C378 1.328 . S
N383 C382 1.315 . S
H384 C378 0.929 . S
H385 C382 0.930 . S
H386 C374 0.929 . S
H387 C376 0.929 . S
O388 Co363 2.351 . S
O388 C391 1.244 . S
O389 Co363 2.155 . S
O389 C391 1.240 . S
O390 Co363 2.096 . S
O390 C371 1.247 . S
C391 O388 1.244 . S
C391 O389 1.240 . S
H392 C366 0.931 . S
H393 C375 0.931 . S
H394 C379 0.929 . S
H395 C381 0.930 . S
Co396 N400 2.148 . S
Co396 N406 2.128 . S
Co396 N416 2.194 . S
Co396 O421 2.351 . S
Co396 O422 2.155 . S
Co396 O423 2.096 . S
C397 N400 1.301 . S
C397 N401 1.328 . S
C397 H402 0.930 . S
C398 C399 1.333 . S
C398 N400 1.317 . S
C398 H403 0.930 . S
C399 C398 1.333 . S
C399 N401 1.350 . S
C399 H425 0.931 . S
N400 Co396 2.148 . S
N400 C397 1.301 . S
N400 C398 1.317 . S
N401 C397 1.328 . S
N401 C399 1.350 . S
H402 C397 0.930 . S
H403 C398 0.930 . S
C404 O405 1.224 . S
C404 O423 1.247 . S
O405 C404 1.224 . S
N406 Co396 2.128 . S
N406 C407 1.355 . S
N406 C409 1.311 . S
C407 N406 1.355 . S
C407 C408 1.363 . S
C407 H419 0.929 . S
C408 C407 1.363 . S
C408 N410 1.375 . S
C408 H426 0.931 . S
C409 N406 1.311 . S
C409 N410 1.347 . S
C409 H420 0.929 . S
N410 C408 1.375 . S
N410 C409 1.347 . S
C411 C414 1.365 . S
C411 N416 1.328 . S
C411 H417 0.929 . S
C412 C413 1.362 . S
C412 C415 1.378 . S
C412 H427 0.929 . S
C413 C412 1.362 . S
C413 C414 1.366 . S
C414 C411 1.365 . S
C414 C413 1.366 . S
C414 H428 0.930 . S
C415 C412 1.378 . S
C415 N416 1.315 . S
C415 H418 0.930 . S
N416 Co396 2.194 . S
N416 C411 1.328 . S
N416 C415 1.315 . S
H417 C411 0.929 . S
H418 C415 0.930 . S
H419 C407 0.929 . S
H420 C409 0.929 . S
O421 Co396 2.351 . S
O421 C424 1.244 . S
O422 Co396 2.155 . S
O422 C424 1.240 . S
O423 Co396 2.096 . S
O423 C404 1.247 . S
C424 O421 1.244 . S
C424 O422 1.240 . S
H425 C399 0.931 . S
H426 C408 0.931 . S
H427 C412 0.929 . S
H428 C414 0.930 . S
Co429 N433 2.148 . S
Co429 N439 2.128 . S
Co429 N449 2.194 . S
Co429 O454 2.351 . S
Co429 O455 2.155 . S
Co429 O456 2.096 . S
C430 N433 1.301 . S
C430 N434 1.328 . S
C430 H435 0.930 . S
C431 C432 1.333 . S
C431 N433 1.317 . S
C431 H436 0.930 . S
C432 C431 1.333 . S
C432 N434 1.350 . S
C432 H458 0.931 . S
N433 Co429 2.148 . S
N433 C430 1.301 . S
N433 C431 1.317 . S
N434 C430 1.328 . S
N434 C432 1.350 . S
H435 C430 0.930 . S
H436 C431 0.930 . S
C437 O438 1.224 . S
C437 O456 1.247 . S
O438 C437 1.224 . S
N439 Co429 2.128 . S
N439 C440 1.355 . S
N439 C442 1.311 . S
C440 N439 1.355 . S
C440 C441 1.363 . S
C440 H452 0.929 . S
C441 C440 1.363 . S
C441 N443 1.375 . S
C441 H459 0.931 . S
C442 N439 1.311 . S
C442 N443 1.347 . S
C442 H453 0.929 . S
N443 C441 1.375 . S
N443 C442 1.347 . S
C444 C447 1.365 . S
C444 N449 1.328 . S
C444 H450 0.929 . S
C445 C446 1.362 . S
C445 C448 1.378 . S
C445 H460 0.929 . S
C446 C445 1.362 . S
C446 C447 1.366 . S
C447 C444 1.365 . S
C447 C446 1.366 . S
C447 H461 0.930 . S
C448 C445 1.378 . S
C448 N449 1.315 . S
C448 H451 0.930 . S
N449 Co429 2.194 . S
N449 C444 1.328 . S
N449 C448 1.315 . S
H450 C444 0.929 . S
H451 C448 0.930 . S
H452 C440 0.929 . S
H453 C442 0.929 . S
O454 Co429 2.351 . S
O454 C457 1.244 . S
O455 Co429 2.155 . S
O455 C457 1.240 . S
O456 Co429 2.096 . S
O456 C437 1.247 . S
C457 O454 1.244 . S
C457 O455 1.240 . S
H458 C432 0.931 . S
H459 C441 0.931 . S
H460 C445 0.929 . S
H461 C447 0.930 . S
Co462 N466 2.148 . S
Co462 N472 2.128 . S
Co462 N482 2.194 . S
Co462 O487 2.351 . S
Co462 O488 2.155 . S
Co462 O489 2.096 . S
C463 N466 1.301 . S
C463 N467 1.328 . S
C463 H468 0.930 . S
C464 C465 1.333 . S
C464 N466 1.317 . S
C464 H469 0.930 . S
C465 C464 1.333 . S
C465 N467 1.350 . S
C465 H491 0.931 . S
N466 Co462 2.148 . S
N466 C463 1.301 . S
N466 C464 1.317 . S
N467 C463 1.328 . S
N467 C465 1.350 . S
H468 C463 0.930 . S
H469 C464 0.930 . S
C470 O471 1.224 . S
C470 O489 1.247 . S
O471 C470 1.224 . S
N472 Co462 2.128 . S
N472 C473 1.355 . S
N472 C475 1.311 . S
C473 N472 1.355 . S
C473 C474 1.363 . S
C473 H485 0.929 . S
C474 C473 1.363 . S
C474 N476 1.375 . S
C474 H492 0.931 . S
C475 N472 1.311 . S
C475 N476 1.347 . S
C475 H486 0.929 . S
N476 C474 1.375 . S
N476 C475 1.347 . S
C477 C480 1.365 . S
C477 N482 1.328 . S
C477 H483 0.929 . S
C478 C479 1.362 . S
C478 C481 1.378 . S
C478 H493 0.929 . S
C479 C478 1.362 . S
C479 C480 1.366 . S
C480 C477 1.365 . S
C480 C479 1.366 . S
C480 H494 0.930 . S
C481 C478 1.378 . S
C481 N482 1.315 . S
C481 H484 0.930 . S
N482 Co462 2.194 . S
N482 C477 1.328 . S
N482 C481 1.315 . S
H483 C477 0.929 . S
H484 C481 0.930 . S
H485 C473 0.929 . S
H486 C475 0.929 . S
O487 Co462 2.351 . S
O487 C490 1.244 . S
O488 Co462 2.155 . S
O488 C490 1.240 . S
O489 Co462 2.096 . S
O489 C470 1.247 . S
C490 O487 1.244 . S
C490 O488 1.240 . S
H491 C465 0.931 . S
H492 C474 0.931 . S
H493 C478 0.929 . S
H494 C480 0.930 . S
Co495 N499 2.148 . S
Co495 N505 2.128 . S
Co495 N515 2.194 . S
Co495 O520 2.351 . S
Co495 O521 2.155 . S
Co495 O522 2.096 . S
C496 N499 1.301 . S
C496 N500 1.328 . S
C496 H501 0.930 . S
C497 C498 1.333 . S
C497 N499 1.317 . S
C497 H502 0.930 . S
C498 C497 1.333 . S
C498 N500 1.350 . S
C498 H524 0.931 . S
N499 Co495 2.148 . S
N499 C496 1.301 . S
N499 C497 1.317 . S
N500 C496 1.328 . S
N500 C498 1.350 . S
H501 C496 0.930 . S
H502 C497 0.930 . S
C503 O504 1.224 . S
C503 O522 1.247 . S
O504 C503 1.224 . S
N505 Co495 2.128 . S
N505 C506 1.355 . S
N505 C508 1.311 . S
C506 N505 1.355 . S
C506 C507 1.363 . S
C506 H518 0.929 . S
C507 C506 1.363 . S
C507 N509 1.375 . S
C507 H525 0.931 . S
C508 N505 1.311 . S
C508 N509 1.347 . S
C508 H519 0.929 . S
N509 C507 1.375 . S
N509 C508 1.347 . S
C510 C513 1.365 . S
C510 N515 1.328 . S
C510 H516 0.929 . S
C511 C512 1.362 . S
C511 C514 1.378 . S
C511 H526 0.929 . S
C512 C511 1.362 . S
C512 C513 1.366 . S
C513 C510 1.365 . S
C513 C512 1.366 . S
C513 H527 0.930 . S
C514 C511 1.378 . S
C514 N515 1.315 . S
C514 H517 0.930 . S
N515 Co495 2.194 . S
N515 C510 1.328 . S
N515 C514 1.315 . S
H516 C510 0.929 . S
H517 C514 0.930 . S
H518 C506 0.929 . S
H519 C508 0.929 . S
O520 Co495 2.351 . S
O520 C523 1.244 . S
O521 Co495 2.155 . S
O521 C523 1.240 . S
O522 Co495 2.096 . S
O522 C503 1.247 . S
C523 O520 1.244 . S
C523 O521 1.240 . S
H524 C498 0.931 . S
H525 C507 0.931 . S
H526 C511 0.929 . S
H527 C513 0.930 . S
H528 C536 0.929 . S
H529 C538 0.930 . S
H530 C540 0.930 . S
H531 C543 0.929 . S
H532 C546 0.930 . S
H533 C548 0.960 . S
H534 C548 0.960 . S
H535 C548 0.960 . S
C536 H528 0.929 . S
C536 C537 1.377 . S
C536 C538 1.384 . S
C537 C536 1.377 . S
C537 C543 1.390 . S
C538 H529 0.930 . S
C538 C536 1.384 . S
C538 C539 1.372 . S
C539 C538 1.372 . S
C539 C540 1.400 . S
C539 C544 1.490 . S
C540 H530 0.930 . S
C540 C539 1.400 . S
C540 C543 1.386 . S
H541 C557 0.930 . S
H542 C558 0.931 . S
C543 H531 0.929 . S
C543 C537 1.390 . S
C543 C540 1.386 . S
C544 C539 1.490 . S
C544 C546 1.395 . S
C544 C547 1.403 . S
H545 C551 0.930 . S
C546 H532 0.930 . S
C546 C544 1.395 . S
C546 C549 1.403 . S
C547 C544 1.403 . S
C547 C548 1.524 . S
C547 C551 1.400 . S
C548 H533 0.960 . S
C548 H534 0.960 . S
C548 H535 0.960 . S
C548 C547 1.524 . S
C549 C546 1.403 . S
C549 C550 1.392 . S
C549 C553 1.495 . S
C550 C549 1.392 . S
C550 C551 1.385 . S
C550 C552 1.478 . S
C551 H545 0.930 . S
C551 C547 1.400 . S
C551 C550 1.385 . S
C552 C550 1.478 . S
C552 C554 1.381 . S
C552 C558 1.383 . S
C553 C549 1.495 . S
C553 H559 0.959 . S
C553 H560 0.961 . S
C553 H561 0.960 . S
C554 C552 1.381 . S
C554 C555 1.394 . S
C554 H562 0.930 . S
C555 C554 1.394 . S
C555 C556 1.383 . S
C555 H563 0.929 . S
C556 C555 1.383 . S
C556 C557 1.377 . S
C557 H541 0.930 . S
C557 C556 1.377 . S
C557 C558 1.379 . S
C558 H542 0.931 . S
C558 C552 1.383 . S
C558 C557 1.379 . S
H559 C553 0.959 . S
H560 C553 0.961 . S
H561 C553 0.960 . S
H562 C554 0.930 . S
H563 C555 0.929 . S
H564 C572 0.929 . S
H565 C574 0.930 . S
H566 C576 0.930 1_455 S
H567 C579 0.929 . S
H568 C582 0.930 . S
H569 C584 0.960 . S
H570 C584 0.960 . S
H571 C584 0.960 . S
C572 H564 0.929 . S
C572 C573 1.377 . S
C572 C574 1.384 . S
C573 C572 1.377 . S
C573 C579 1.390 . S
C574 H565 0.930 . S
C574 C572 1.384 . S
C574 C575 1.372 . S
C575 C574 1.372 . S
C575 C576 1.400 . S
C575 C580 1.490 . S
C576 H566 0.930 1_655 S
C576 C575 1.400 . S
C576 C579 1.386 . S
H577 C593 0.930 . S
H578 C594 0.931 1_545 S
C579 H567 0.929 . S
C579 C573 1.390 . S
C579 C576 1.386 . S
C580 C575 1.490 . S
C580 C582 1.395 . S
C580 C583 1.403 1_655 S
H581 C587 0.930 1_565 S
C582 H568 0.930 . S
C582 C580 1.395 . S
C582 C585 1.403 1_655 S
C583 C580 1.403 1_455 S
C583 C584 1.524 . S
C583 C587 1.400 . S
C584 H569 0.960 . S
C584 H570 0.960 . S
C584 H571 0.960 . S
C584 C583 1.524 . S
C585 C582 1.403 1_455 S
C585 C586 1.397 . S
C585 C589 1.495 1_455 S
C586 C585 1.397 . S
C586 C587 1.385 . S
C586 C588 1.473 1_545 S
C587 H581 0.930 1_545 S
C587 C583 1.400 . S
C587 C586 1.385 . S
C588 C586 1.473 1_565 S
C588 C590 1.381 . S
C588 C594 1.383 . S
C589 C585 1.495 1_655 S
C589 H595 0.959 . S
C589 H596 0.961 1_655 S
C589 H597 0.960 1_545 S
C590 C588 1.381 . S
C590 C591 1.394 . S
C590 H598 0.930 . S
C591 C590 1.394 . S
C591 C592 1.383 . S
C591 H599 0.929 . S
C592 C591 1.383 . S
C592 C593 1.377 . S
C593 H577 0.930 . S
C593 C592 1.377 . S
C593 C594 1.379 . S
C594 H578 0.931 1_565 S
C594 C588 1.383 . S
C594 C593 1.379 . S
H595 C589 0.959 . S
H596 C589 0.961 1_455 S
H597 C589 0.960 1_565 S
H598 C590 0.930 . S
H599 C591 0.929 . S
H600 C608 0.929 . S
H601 C610 0.930 . S
H602 C612 0.930 . S
H603 C615 0.929 . S
H604 C618 0.930 . S
H605 C620 0.960 . S
H606 C620 0.960 . S
H607 C620 0.960 . S
C608 H600 0.929 . S
C608 C609 1.377 . S
C608 C610 1.384 . S
C609 C608 1.377 . S
C609 C615 1.390 . S
C610 H601 0.930 . S
C610 C608 1.384 . S
C610 C611 1.372 . S
C611 C610 1.372 . S
C611 C612 1.400 . S
C611 C616 1.490 . S
C612 H602 0.930 . S
C612 C611 1.400 . S
C612 C615 1.386 . S
H613 C629 0.930 . S
H614 C630 0.931 . S
C615 H603 0.929 . S
C615 C609 1.390 . S
C615 C612 1.386 . S
C616 C611 1.490 . S
C616 C618 1.395 . S
C616 C619 1.403 . S
H617 C623 0.930 . S
C618 H604 0.930 . S
C618 C616 1.395 . S
C618 C621 1.403 . S
C619 C616 1.403 . S
C619 C620 1.524 . S
C619 C623 1.400 . S
C620 H605 0.960 . S
C620 H606 0.960 . S
C620 H607 0.960 . S
C620 C619 1.524 . S
C621 C618 1.403 . S
C621 C622 1.392 . S
C621 C625 1.495 . S
C622 C621 1.392 . S
C622 C623 1.385 . S
C622 C624 1.478 . S
C623 H617 0.930 . S
C623 C619 1.400 . S
C623 C622 1.385 . S
C624 C622 1.478 . S
C624 C626 1.381 . S
C624 C630 1.383 . S
C625 C621 1.495 . S
C625 H631 0.959 . S
C625 H632 0.961 . S
C625 H633 0.960 . S
C626 C624 1.381 . S
C626 C627 1.394 . S
C626 H634 0.930 . S
C627 C626 1.394 . S
C627 C628 1.383 . S
C627 H635 0.929 . S
C628 C627 1.383 . S
C628 C629 1.377 . S
C629 H613 0.930 . S
C629 C628 1.377 . S
C629 C630 1.379 . S
C630 H614 0.931 . S
C630 C624 1.383 . S
C630 C629 1.379 . S
H631 C625 0.959 . S
H632 C625 0.961 . S
H633 C625 0.960 . S
H634 C626 0.930 . S
H635 C627 0.929 . S
H636 C644 0.929 . S
H637 C646 0.930 . S
H638 C648 0.930 . S
H639 C651 0.929 . S
H640 C654 0.934 . S
H641 C656 0.960 . S
H642 C656 0.960 . S
H643 C656 0.960 . S
C644 H636 0.929 . S
C644 C645 1.377 . S
C644 C646 1.384 . S
C645 C644 1.377 . S
C645 C651 1.390 . S
C646 H637 0.930 . S
C646 C644 1.384 . S
C646 C647 1.372 . S
C647 C646 1.372 . S
C647 C648 1.400 . S
C647 C652 1.490 . S
C648 H638 0.930 . S
C648 C647 1.400 . S
C648 C651 1.386 . S
H649 C665 0.930 . S
H650 C666 0.931 . S
C651 H639 0.929 . S
C651 C645 1.390 . S
C651 C648 1.386 . S
C652 C647 1.490 . S
C652 C654 1.395 1_556 S
C652 C655 1.403 1_545 S
H653 C659 0.930 . S
C654 H640 0.934 . S
C654 C652 1.395 1_554 S
C654 C657 1.403 . S
C655 C652 1.403 1_565 S
C655 C656 1.524 . S
C655 C659 1.400 1_556 S
C656 H641 0.960 . S
C656 H642 0.960 . S
C656 H643 0.960 . S
C656 C655 1.524 . S
C657 C654 1.403 . S
C657 C658 1.392 1_545 S
C657 C661 1.495 . S
C658 C657 1.392 1_565 S
C658 C659 1.385 . S
C658 C660 1.478 . S
C659 H653 0.930 . S
C659 C655 1.400 1_554 S
C659 C658 1.385 . S
C660 C658 1.478 . S
C660 C662 1.381 . S
C660 C666 1.383 . S
C661 C657 1.495 . S
C661 H667 0.959 . S
C661 H668 0.961 . S
C661 H669 0.960 . S
C662 C660 1.381 . S
C662 C663 1.394 . S
C662 H670 0.930 . S
C663 C662 1.394 . S
C663 C664 1.383 . S
C663 H671 0.929 . S
C664 C663 1.383 . S
C664 C665 1.377 . S
C665 H649 0.930 . S
C665 C664 1.377 . S
C665 C666 1.379 . S
C666 H650 0.931 . S
C666 C660 1.383 . S
C666 C665 1.379 . S
H667 C661 0.959 . S
H668 C661 0.961 . S
H669 C661 0.960 . S
H670 C662 0.930 . S
H671 C663 0.929 . S
H672 C680 0.929 . S
H673 C682 0.930 . S
H674 C684 0.930 . S
H675 C687 0.929 . S
H676 C690 0.930 . S
H677 C692 0.960 . S
H678 C692 0.960 . S
H679 C692 0.960 . S
C680 H672 0.929 . S
C680 C681 1.377 . S
C680 C682 1.384 . S
C681 C680 1.377 . S
C681 C687 1.390 . S
C682 H673 0.930 . S
C682 C680 1.384 . S
C682 C683 1.372 . S
C683 C682 1.372 . S
C683 C684 1.400 . S
C683 C688 1.490 . S
C684 H674 0.930 . S
C684 C683 1.400 . S
C684 C687 1.386 . S
H685 C701 0.930 . S
H686 C702 0.931 . S
C687 H675 0.929 . S
C687 C681 1.390 . S
C687 C684 1.386 . S
C688 C683 1.490 . S
C688 C690 1.395 . S
C688 C691 1.403 . S
H689 C695 0.930 . S
C690 H676 0.930 . S
C690 C688 1.395 . S
C690 C693 1.403 . S
C691 C688 1.403 . S
C691 C692 1.524 . S
C691 C695 1.400 . S
C692 H677 0.960 . S
C692 H678 0.960 . S
C692 H679 0.960 . S
C692 C691 1.524 . S
C693 C690 1.403 . S
C693 C694 1.392 . S
C693 C697 1.495 . S
C694 C693 1.392 . S
C694 C695 1.385 . S
C694 C696 1.478 . S
C695 H689 0.930 . S
C695 C691 1.400 . S
C695 C694 1.385 . S
C696 C694 1.478 . S
C696 C698 1.381 . S
C696 C702 1.383 . S
C697 C693 1.495 . S
C697 H703 0.959 . S
C697 H704 0.961 . S
C697 H705 0.960 . S
C698 C696 1.381 . S
C698 C699 1.394 . S
C698 H706 0.930 . S
C699 C698 1.394 . S
C699 C700 1.383 . S
C699 H707 0.929 . S
C700 C699 1.383 . S
C700 C701 1.377 . S
C701 H685 0.930 . S
C701 C700 1.377 . S
C701 C702 1.379 . S
C702 H686 0.931 . S
C702 C696 1.383 . S
C702 C701 1.379 . S
H703 C697 0.959 . S
H704 C697 0.961 . S
H705 C697 0.960 . S
H706 C698 0.930 . S
H707 C699 0.929 . S
H708 C716 0.929 . S
H709 C718 0.930 . S
H710 C720 0.930 . S
H711 C723 0.929 . S
H712 C726 0.930 . S
H713 C728 0.960 . S
H714 C728 0.960 . S
H715 C728 0.960 . S
C716 H708 0.929 . S
C716 C717 1.377 . S
C716 C718 1.384 . S
C717 C716 1.377 . S
C717 C723 1.390 . S
C718 H709 0.930 . S
C718 C716 1.384 . S
C718 C719 1.372 . S
C719 C718 1.372 . S
C719 C720 1.400 . S
C719 C724 1.490 . S
C720 H710 0.930 . S
C720 C719 1.400 . S
C720 C723 1.386 . S
H721 C737 0.930 . S
H722 C738 0.931 1_565 S
C723 H711 0.929 . S
C723 C717 1.390 . S
C723 C720 1.386 . S
C724 C719 1.490 . S
C724 C726 1.395 . S
C724 C727 1.403 . S
H725 C731 0.930 . S
C726 H712 0.930 . S
C726 C724 1.395 . S
C726 C729 1.403 1_565 S
C727 C724 1.403 . S
C727 C728 1.524 . S
C727 C731 1.400 . S
C728 H713 0.960 . S
C728 H714 0.960 . S
C728 H715 0.960 . S
C728 C727 1.524 . S
C729 C726 1.403 1_545 S
C729 C730 1.392 . S
C729 C733 1.495 . S
C730 C729 1.392 . S
C730 C731 1.385 1_545 S
C730 C732 1.478 . S
C731 H725 0.930 . S
C731 C727 1.400 . S
C731 C730 1.385 1_565 S
C732 C730 1.478 . S
C732 C734 1.381 . S
C732 C738 1.383 . S
C733 C729 1.495 . S
C733 H739 0.959 . S
C733 H740 0.961 . S
C733 H741 0.960 . S
C734 C732 1.381 . S
C734 C735 1.394 . S
C734 H742 0.930 . S
C735 C734 1.394 . S
C735 C736 1.383 . S
C735 H743 0.929 . S
C736 C735 1.383 . S
C736 C737 1.377 . S
C737 H721 0.930 . S
C737 C736 1.377 . S
C737 C738 1.379 . S
C738 H722 0.931 1_545 S
C738 C732 1.383 . S
C738 C737 1.379 . S
H739 C733 0.959 . S
H740 C733 0.961 . S
H741 C733 0.960 . S
H742 C734 0.930 . S
H743 C735 0.929 . S
H744 C752 0.929 . S
H745 C754 0.930 . S
H746 C756 0.930 . S
H747 C759 0.929 . S
H748 C762 0.930 . S
H749 C764 0.960 . S
H750 C764 0.960 . S
H751 C764 0.960 . S
C752 H744 0.929 . S
C752 C753 1.377 . S
C752 C754 1.384 . S
C753 C752 1.377 . S
C753 C759 1.390 . S
C754 H745 0.930 . S
C754 C752 1.384 . S
C754 C755 1.372 . S
C755 C754 1.372 . S
C755 C756 1.400 . S
C755 C760 1.490 . S
C756 H746 0.930 . S
C756 C755 1.400 . S
C756 C759 1.386 . S
H757 C773 0.930 . S
H758 C774 0.931 . S
C759 H747 0.929 . S
C759 C753 1.390 . S
C759 C756 1.386 . S
C760 C755 1.490 . S
C760 C762 1.395 . S
C760 C763 1.403 . S
H761 C767 0.930 . S
C762 H748 0.930 . S
C762 C760 1.395 . S
C762 C765 1.403 . S
C763 C760 1.403 . S
C763 C764 1.524 . S
C763 C767 1.400 . S
C764 H749 0.960 . S
C764 H750 0.960 . S
C764 H751 0.960 . S
C764 C763 1.524 . S
C765 C762 1.403 . S
C765 C766 1.392 . S
C765 C769 1.495 . S
C766 C765 1.392 . S
C766 C767 1.385 . S
C766 C768 1.478 . S
C767 H761 0.930 . S
C767 C763 1.400 . S
C767 C766 1.385 . S
C768 C766 1.478 . S
C768 C770 1.381 . S
C768 C774 1.383 . S
C769 C765 1.495 . S
C769 H775 0.959 . S
C769 H776 0.961 . S
C769 H777 0.960 . S
C770 C768 1.381 . S
C770 C771 1.394 . S
C770 H778 0.930 . S
C771 C770 1.394 . S
C771 C772 1.383 . S
C771 H779 0.929 . S
C772 C771 1.383 . S
C772 C773 1.377 . S
C773 H757 0.930 . S
C773 C772 1.377 . S
C773 C774 1.379 . S
C774 H758 0.931 . S
C774 C768 1.383 . S
C774 C773 1.379 . S
H775 C769 0.959 . S
H776 C769 0.961 . S
H777 C769 0.960 . S
H778 C770 0.930 . S
H779 C771 0.929 . S
H780 C788 0.929 . S
H781 C790 0.930 . S
H782 C792 0.930 . S
H783 C795 0.929 . S
H784 C798 0.930 . S
H785 C800 0.960 . S
H786 C800 0.950 1_554 S
H787 C800 0.960 . S
C788 H780 0.929 . S
C788 C789 1.377 . S
C788 C790 1.384 . S
C789 C788 1.377 . S
C789 C795 1.390 . S
C790 H781 0.930 . S
C790 C788 1.384 . S
C790 C791 1.372 . S
C791 C790 1.372 . S
C791 C792 1.400 . S
C791 C796 1.490 . S
C792 H782 0.930 . S
C792 C791 1.400 . S
C792 C795 1.386 . S
H793 C809 0.930 . S
H794 C810 0.931 . S
C795 H783 0.929 . S
C795 C789 1.390 . S
C795 C792 1.386 . S
C796 C791 1.490 . S
C796 C798 1.395 1_455 S
C796 C799 1.403 1_554 S
H797 C803 0.930 1_455 S
C798 H784 0.930 . S
C798 C796 1.395 1_655 S
C798 C801 1.409 . S
C799 C796 1.403 1_556 S
C799 C800 1.524 . S
C799 C803 1.400 1_445 S
C800 H785 0.960 . S
C800 H786 0.950 1_556 S
C800 H787 0.960 . S
C800 C799 1.524 . S
C801 C798 1.409 . S
C801 C802 1.388 1_544 S
C801 C805 1.495 1_545 S
C802 C801 1.388 1_566 S
C802 C803 1.385 . S
C802 C804 1.478 . S
C803 H797 0.930 1_655 S
C803 C799 1.400 1_665 S
C803 C802 1.385 . S
C804 C802 1.478 . S
C804 C806 1.381 . S
C804 C810 1.383 . S
C805 C801 1.495 1_565 S
C805 H811 0.959 1_565 S
C805 H812 0.949 1_565 S
C805 H813 0.960 . S
C806 C804 1.381 . S
C806 C807 1.394 . S
C806 H814 0.930 1_556 S
C807 C806 1.394 . S
C807 C808 1.383 . S
C807 H815 0.929 . S
C808 C807 1.383 . S
C808 C809 1.377 . S
C809 H793 0.930 . S
C809 C808 1.377 . S
C809 C810 1.379 . S
C810 H794 0.931 . S
C810 C804 1.383 . S
C810 C809 1.379 . S
H811 C805 0.959 1_545 S
H812 C805 0.949 1_545 S
H813 C805 0.960 . S
H814 C806 0.930 1_554 S
H815 C807 0.929 . S
H816 C824 0.929 . S
H817 C826 0.930 . S
H818 C828 0.930 . S
H819 C831 0.929 . S
H820 C834 0.930 . S
H821 C836 0.960 . S
H822 C836 0.960 . S
H823 C836 0.960 . S
C824 H816 0.929 . S
C824 C825 1.377 . S
C824 C826 1.384 . S
C825 C824 1.377 . S
C825 C831 1.390 . S
C826 H817 0.930 . S
C826 C824 1.384 . S
C826 C827 1.372 . S
C827 C826 1.372 . S
C827 C828 1.400 . S
C827 C832 1.490 . S
C828 H818 0.930 . S
C828 C827 1.400 . S
C828 C831 1.386 . S
H829 C845 0.930 . S
H830 C846 0.931 . S
C831 H819 0.929 . S
C831 C825 1.390 . S
C831 C828 1.386 . S
C832 C827 1.490 . S
C832 C834 1.395 . S
C832 C835 1.403 . S
H833 C839 0.930 . S
C834 H820 0.930 . S
C834 C832 1.395 . S
C834 C837 1.403 . S
C835 C832 1.403 . S
C835 C836 1.524 . S
C835 C839 1.400 . S
C836 H821 0.960 . S
C836 H822 0.960 . S
C836 H823 0.960 . S
C836 C835 1.524 . S
C837 C834 1.403 . S
C837 C838 1.392 . S
C837 C841 1.495 . S
C838 C837 1.392 . S
C838 C839 1.385 . S
C838 C840 1.478 . S
C839 H833 0.930 . S
C839 C835 1.400 . S
C839 C838 1.385 . S
C840 C838 1.478 . S
C840 C842 1.381 . S
C840 C846 1.383 . S
C841 C837 1.495 . S
C841 H847 0.959 . S
C841 H848 0.961 . S
C841 H849 0.960 . S
C842 C840 1.381 . S
C842 C843 1.394 . S
C842 H850 0.930 . S
C843 C842 1.394 . S
C843 C844 1.383 . S
C843 H851 0.929 . S
C844 C843 1.383 . S
C844 C845 1.377 . S
C845 H829 0.930 . S
C845 C844 1.377 . S
C845 C846 1.379 . S
C846 H830 0.931 . S
C846 C840 1.383 . S
C846 C845 1.379 . S
H847 C841 0.959 . S
H848 C841 0.961 . S
H849 C841 0.960 . S
H850 C842 0.930 . S
H851 C843 0.929 . S
H852 C860 0.929 . S
H853 C862 0.930 . S
H854 C864 0.930 . S
H855 C867 0.929 . S
H856 C870 0.930 . S
H857 C872 0.960 . S
H858 C872 0.960 . S
H859 C872 0.960 . S
C860 H852 0.929 . S
C860 C861 1.377 . S
C860 C862 1.384 . S
C861 C860 1.377 . S
C861 C867 1.390 . S
C862 H853 0.930 . S
C862 C860 1.384 . S
C862 C863 1.372 . S
C863 C862 1.372 . S
C863 C864 1.400 . S
C863 C868 1.490 . S
C864 H854 0.930 . S
C864 C863 1.400 . S
C864 C867 1.386 . S
H865 C881 0.930 . S
H866 C882 0.970 . S
C867 H855 0.929 . S
C867 C861 1.390 . S
C867 C864 1.386 . S
C868 C863 1.490 . S
C868 C870 1.395 . S
C868 C871 1.403 . S
H869 C875 0.930 . S
C870 H856 0.930 . S
C870 C868 1.395 . S
C870 C873 1.403 1_456 S
C871 C868 1.403 . S
C871 C872 1.524 . S
C871 C875 1.400 1_556 S
C872 H857 0.960 . S
C872 H858 0.960 . S
C872 H859 0.960 . S
C872 C871 1.524 . S
C873 C870 1.403 1_654 S
C873 C874 1.392 . S
C873 C877 1.495 . S
C874 C873 1.392 . S
C874 C875 1.385 1_655 S
C874 C876 1.478 . S
C875 H869 0.930 . S
C875 C871 1.400 1_554 S
C875 C874 1.385 1_455 S
C876 C874 1.478 . S
C876 C878 1.381 . S
C876 C882 1.383 . S
C877 C873 1.495 . S
C877 H883 0.959 . S
C877 H884 0.961 . S
C877 H885 0.960 . S
C878 C876 1.381 . S
C878 C879 1.394 . S
C878 H886 0.930 . S
C879 C878 1.394 . S
C879 C880 1.383 . S
C879 H887 0.929 . S
C880 C879 1.383 . S
C880 C881 1.377 . S
C881 H865 0.930 . S
C881 C880 1.377 . S
C881 C882 1.379 . S
C882 H866 0.970 . S
C882 C876 1.383 . S
C882 C881 1.379 . S
H883 C877 0.959 . S
H884 C877 0.961 . S
H885 C877 0.960 . S
H886 C878 0.930 . S
H887 C879 0.929 . S
H888 C896 0.929 . S
H889 C898 0.930 . S
H890 C900 0.930 . S
H891 C903 0.929 . S
H892 C906 0.930 . S
H893 C908 0.960 . S
H894 C908 0.960 . S
H895 C908 0.960 . S
C896 H888 0.929 . S
C896 C897 1.377 . S
C896 C898 1.384 . S
C897 C896 1.377 . S
C897 C903 1.390 . S
C898 H889 0.930 . S
C898 C896 1.384 . S
C898 C899 1.372 . S
C899 C898 1.372 . S
C899 C900 1.400 . S
C899 C904 1.490 . S
C900 H890 0.930 . S
C900 C899 1.400 . S
C900 C903 1.386 . S
H901 C917 0.930 . S
H902 C918 0.931 . S
C903 H891 0.929 . S
C903 C897 1.390 . S
C903 C900 1.386 . S
C904 C899 1.490 . S
C904 C906 1.395 . S
C904 C907 1.403 . S
H905 C911 0.930 . S
C906 H892 0.930 . S
C906 C904 1.395 . S
C906 C909 1.403 . S
C907 C904 1.403 . S
C907 C908 1.524 . S
C907 C911 1.400 . S
C908 H893 0.960 . S
C908 H894 0.960 . S
C908 H895 0.960 . S
C908 C907 1.524 . S
C909 C906 1.403 . S
C909 C910 1.392 . S
C909 C913 1.495 . S
C910 C909 1.392 . S
C910 C911 1.385 . S
C910 C912 1.478 . S
C911 H905 0.930 . S
C911 C907 1.400 . S
C911 C910 1.385 . S
C912 C910 1.478 . S
C912 C914 1.381 . S
C912 C918 1.383 . S
C913 C909 1.495 . S
C913 H919 0.959 . S
C913 H920 0.961 . S
C913 H921 0.960 . S
C914 C912 1.381 . S
C914 C915 1.394 . S
C914 H922 0.930 . S
C915 C914 1.394 . S
C915 C916 1.383 . S
C915 H923 0.929 . S
C916 C915 1.383 . S
C916 C917 1.377 . S
C917 H901 0.930 . S
C917 C916 1.377 . S
C917 C918 1.379 . S
C918 H902 0.931 . S
C918 C912 1.383 . S
C918 C917 1.379 . S
H919 C913 0.959 . S
H920 C913 0.961 . S
H921 C913 0.960 . S
H922 C914 0.930 . S
H923 C915 0.929 . S
H924 C932 0.929 . S
H925 C934 0.930 . S
H926 C936 0.930 . S
H927 C939 0.929 . S
H928 C942 0.930 . S
H929 C944 0.960 . S
H930 C944 0.960 1_655 S
H931 C944 0.960 . S
C932 H924 0.929 . S
C932 C933 1.377 . S
C932 C934 1.384 . S
C933 C932 1.377 . S
C933 C939 1.390 . S
C934 H925 0.930 . S
C934 C932 1.384 . S
C934 C935 1.372 . S
C935 C934 1.372 . S
C935 C936 1.400 . S
C935 C940 1.490 . S
C936 H926 0.930 . S
C936 C935 1.400 . S
C936 C939 1.386 . S
H937 C953 0.930 . S
H938 C954 0.931 . S
C939 H927 0.929 . S
C939 C933 1.390 . S
C939 C936 1.386 . S
C940 C935 1.490 . S
C940 C942 1.395 . S
C940 C943 1.381 1_655 S
H941 C947 0.930 . S
C942 H928 0.930 . S
C942 C940 1.395 . S
C942 C945 1.403 . S
C943 C940 1.381 1_455 S
C943 C944 1.530 . S
C943 C947 1.415 . S
C944 H929 0.960 . S
C944 H930 0.960 1_455 S
C944 H931 0.960 . S
C944 C943 1.530 . S
C945 C942 1.403 . S
C945 C946 1.392 1_655 S
C945 C949 1.495 . S
C946 C945 1.392 1_455 S
C946 C947 1.385 . S
C946 C948 1.478 . S
C947 H941 0.930 . S
C947 C943 1.415 . S
C947 C946 1.385 . S
C948 C946 1.478 . S
C948 C950 1.381 . S
C948 C954 1.383 . S
C949 C945 1.495 . S
C949 H955 0.959 . S
C949 H956 0.961 . S
C949 H957 0.960 . S
C950 C948 1.381 . S
C950 C951 1.394 . S
C950 H958 0.930 . S
C951 C950 1.394 . S
C951 C952 1.383 . S
C951 H959 0.929 . S
C952 C951 1.383 . S
C952 C953 1.377 . S
C953 H937 0.930 . S
C953 C952 1.377 . S
C953 C954 1.379 . S
C954 H938 0.931 . S
C954 C948 1.383 . S
C954 C953 1.379 . S
H955 C949 0.959 . S
H956 C949 0.961 . S
H957 C949 0.960 . S
H958 C950 0.930 . S
H959 C951 0.929 . S
H960 C968 0.929 . S
H961 C970 0.930 . S
H962 C972 0.930 . S
H963 C975 0.929 . S
H964 C978 0.930 . S
H965 C980 0.960 . S
H966 C980 0.960 . S
H967 C980 0.960 . S
C968 H960 0.929 . S
C968 C969 1.377 . S
C968 C970 1.384 . S
C969 C968 1.377 . S
C969 C975 1.390 . S
C970 H961 0.930 . S
C970 C968 1.384 . S
C970 C971 1.372 . S
C971 C970 1.372 . S
C971 C972 1.400 . S
C971 C976 1.490 . S
C972 H962 0.930 . S
C972 C971 1.400 . S
C972 C975 1.386 . S
H973 C989 0.930 . S
H974 C990 0.931 . S
C975 H963 0.929 . S
C975 C969 1.390 . S
C975 C972 1.386 . S
C976 C971 1.490 . S
C976 C978 1.395 . S
C976 C979 1.403 . S
H977 C983 0.930 . S
C978 H964 0.930 . S
C978 C976 1.395 . S
C978 C981 1.403 1_556 S
C979 C976 1.403 . S
C979 C980 1.524 . S
C979 C983 1.400 1_556 S
C980 H965 0.960 . S
C980 H966 0.960 . S
C980 H967 0.960 . S
C980 C979 1.524 . S
C981 C978 1.403 1_554 S
C981 C982 1.392 . S
C981 C985 1.495 . S
C982 C981 1.392 . S
C982 C983 1.385 . S
C982 C984 1.478 . S
C983 H977 0.930 . S
C983 C979 1.400 1_554 S
C983 C982 1.385 . S
C984 C982 1.478 . S
C984 C986 1.381 . S
C984 C990 1.383 . S
C985 C981 1.495 . S
C985 H991 0.959 . S
C985 H992 0.961 . S
C985 H993 0.960 . S
C986 C984 1.381 . S
C986 C987 1.394 . S
C986 H994 0.930 . S
C987 C986 1.394 . S
C987 C988 1.383 . S
C987 H995 0.929 . S
C988 C987 1.383 . S
C988 C989 1.377 . S
C989 H973 0.930 . S
C989 C988 1.377 . S
C989 C990 1.379 . S
C990 H974 0.931 . S
C990 C984 1.383 . S
C990 C989 1.379 . S
H991 C985 0.959 . S
H992 C985 0.961 . S
H993 C985 0.960 . S
H994 C986 0.930 . S
H995 C987 0.929 . S
H996 C1004 0.929 . S
H997 C1006 0.930 . S
H998 C1008 0.930 . S
H999 C1011 0.929 . S
H1000 C1014 0.930 . S
H1001 C1016 0.960 . S
H1002 C1016 0.960 . S
H1003 C1016 0.960 . S
C1004 H996 0.929 . S
C1004 C1005 1.377 . S
C1004 C1006 1.384 . S
C1005 C1004 1.377 . S
C1005 C1011 1.390 . S
C1006 H997 0.930 . S
C1006 C1004 1.384 . S
C1006 C1007 1.372 . S
C1007 C1006 1.372 . S
C1007 C1008 1.400 . S
C1007 C1012 1.490 . S
C1008 H998 0.930 . S
C1008 C1007 1.400 . S
C1008 C1011 1.386 . S
H1009 C1025 0.930 . S
H1010 C1026 0.931 . S
C1011 H999 0.929 . S
C1011 C1005 1.390 . S
C1011 C1008 1.386 . S
C1012 C1007 1.490 . S
C1012 C1014 1.395 . S
C1012 C1015 1.403 . S
H1013 C1019 0.930 . S
C1014 H1000 0.930 . S
C1014 C1012 1.395 . S
C1014 C1017 1.403 . S
C1015 C1012 1.403 . S
C1015 C1016 1.524 . S
C1015 C1019 1.400 . S
C1016 H1001 0.960 . S
C1016 H1002 0.960 . S
C1016 H1003 0.960 . S
C1016 C1015 1.524 . S
C1017 C1014 1.403 . S
C1017 C1018 1.392 . S
C1017 C1021 1.495 . S
C1018 C1017 1.392 . S
C1018 C1019 1.385 . S
C1018 C1020 1.478 . S
C1019 H1013 0.930 . S
C1019 C1015 1.400 . S
C1019 C1018 1.385 . S
C1020 C1018 1.478 . S
C1020 C1022 1.381 . S
C1020 C1026 1.383 . S
C1021 C1017 1.495 . S
C1021 H1027 0.959 . S
C1021 H1028 0.961 . S
C1021 H1029 0.960 . S
C1022 C1020 1.381 . S
C1022 C1023 1.394 . S
C1022 H1030 0.930 . S
C1023 C1022 1.394 . S
C1023 C1024 1.383 . S
C1023 H1031 0.929 . S
C1024 C1023 1.383 . S
C1024 C1025 1.377 . S
C1025 H1009 0.930 . S
C1025 C1024 1.377 . S
C1025 C1026 1.379 . S
C1026 H1010 0.931 . S
C1026 C1020 1.383 . S
C1026 C1025 1.379 . S
H1027 C1021 0.959 . S
H1028 C1021 0.961 . S
H1029 C1021 0.960 . S
H1030 C1022 0.930 . S
H1031 C1023 0.929 . S
H1032 C1040 0.929 . S
H1033 C1042 0.930 . S
H1034 C1044 0.930 . S
H1035 C1047 0.929 . S
H1036 C1050 0.930 . S
H1037 C1052 0.960 . S
H1038 C1052 0.960 . S
H1039 C1052 0.960 . S
C1040 H1032 0.929 . S
C1040 C1041 1.377 . S
C1040 C1042 1.384 . S
C1041 C1040 1.377 . S
C1041 C1047 1.390 . S
C1042 H1033 0.930 . S
C1042 C1040 1.384 . S
C1042 C1043 1.372 . S
C1043 C1042 1.372 . S
C1043 C1044 1.400 . S
C1043 C1048 1.490 . S
C1044 H1034 0.930 . S
C1044 C1043 1.400 . S
C1044 C1047 1.386 . S
H1045 C1061 0.930 . S
H1046 C1062 0.931 . S
C1047 H1035 0.929 . S
C1047 C1041 1.390 . S
C1047 C1044 1.386 . S
C1048 C1043 1.490 . S
C1048 C1050 1.395 . S
C1048 C1051 1.403 . S
H1049 C1055 0.930 . S
C1050 H1036 0.930 . S
C1050 C1048 1.395 . S
C1050 C1053 1.403 . S
C1051 C1048 1.403 . S
C1051 C1052 1.524 . S
C1051 C1055 1.400 . S
C1052 H1037 0.960 . S
C1052 H1038 0.960 . S
C1052 H1039 0.960 . S
C1052 C1051 1.524 . S
C1053 C1050 1.403 . S
C1053 C1054 1.392 . S
C1053 C1057 1.495 . S
C1054 C1053 1.392 . S
C1054 C1055 1.385 . S
C1054 C1056 1.478 . S
C1055 H1049 0.930 . S
C1055 C1051 1.400 . S
C1055 C1054 1.385 . S
C1056 C1054 1.478 . S
C1056 C1058 1.381 . S
C1056 C1062 1.383 . S
C1057 C1053 1.495 . S
C1057 H1063 0.959 . S
C1057 H1064 0.961 . S
C1057 H1065 0.960 . S
C1058 C1056 1.381 . S
C1058 C1059 1.394 . S
C1058 H1066 0.930 . S
C1059 C1058 1.394 . S
C1059 C1060 1.383 . S
C1059 H1067 0.929 . S
C1060 C1059 1.383 . S
C1060 C1061 1.377 . S
C1061 H1045 0.930 . S
C1061 C1060 1.377 . S
C1061 C1062 1.379 . S
C1062 H1046 0.931 . S
C1062 C1056 1.383 . S
C1062 C1061 1.379 . S
H1063 C1057 0.959 . S
H1064 C1057 0.961 . S
H1065 C1057 0.960 . S
H1066 C1058 0.930 . S
H1067 C1059 0.929 . S
H1068 C1076 0.929 . S
H1069 C1078 0.930 . S
H1070 C1080 0.930 . S
H1071 C1083 0.929 . S
H1072 C1086 0.930 . S
H1073 C1088 0.960 . S
H1074 C1088 0.960 . S
H1075 C1088 0.960 . S
C1076 H1068 0.929 . S
C1076 C1077 1.377 . S
C1076 C1078 1.384 . S
C1077 C1076 1.377 . S
C1077 C1083 1.390 . S
C1078 H1069 0.930 . S
C1078 C1076 1.384 . S
C1078 C1079 1.372 . S
C1079 C1078 1.372 . S
C1079 C1080 1.400 . S
C1079 C1084 1.490 . S
C1080 H1070 0.930 . S
C1080 C1079 1.400 . S
C1080 C1083 1.386 . S
H1081 C1097 0.930 . S
H1082 C1098 0.931 . S
C1083 H1071 0.929 . S
C1083 C1077 1.390 . S
C1083 C1080 1.386 . S
C1084 C1079 1.490 . S
C1084 C1086 1.395 . S
C1084 C1087 1.403 . S
H1085 C1091 0.930 . S
C1086 H1072 0.930 . S
C1086 C1084 1.395 . S
C1086 C1089 1.403 . S
C1087 C1084 1.403 . S
C1087 C1088 1.524 . S
C1087 C1091 1.400 . S
C1088 H1073 0.960 . S
C1088 H1074 0.960 . S
C1088 H1075 0.960 . S
C1088 C1087 1.524 . S
C1089 C1086 1.403 . S
C1089 C1090 1.392 . S
C1089 C1093 1.495 . S
C1090 C1089 1.392 . S
C1090 C1091 1.385 . S
C1090 C1092 1.478 . S
C1091 H1085 0.930 . S
C1091 C1087 1.400 . S
C1091 C1090 1.385 . S
C1092 C1090 1.478 . S
C1092 C1094 1.381 . S
C1092 C1098 1.383 . S
C1093 C1089 1.495 . S
C1093 H1099 0.959 . S
C1093 H1100 0.961 . S
C1093 H1101 0.960 . S
C1094 C1092 1.381 . S
C1094 C1095 1.394 . S
C1094 H1102 0.930 . S
C1095 C1094 1.394 . S
C1095 C1096 1.383 . S
C1095 H1103 0.929 . S
C1096 C1095 1.383 . S
C1096 C1097 1.377 . S
C1097 H1081 0.930 . S
C1097 C1096 1.377 . S
C1097 C1098 1.379 . S
C1098 H1082 0.931 . S
C1098 C1092 1.383 . S
C1098 C1097 1.379 . S
H1099 C1093 0.959 . S
H1100 C1093 0.961 . S
H1101 C1093 0.960 . S
H1102 C1094 0.930 . S
H1103 C1095 0.929 . S
H1104 C1112 0.929 . S
H1105 C1114 0.930 . S
H1106 C1116 0.930 . S
H1107 C1119 0.929 . S
H1108 C1122 0.930 . S
H1109 C1124 0.960 . S
H1110 C1124 0.960 . S
H1111 C1124 0.960 . S
C1112 H1104 0.929 . S
C1112 C1113 1.377 . S
C1112 C1114 1.384 . S
C1113 C1112 1.377 . S
C1113 C1119 1.390 . S
C1114 H1105 0.930 . S
C1114 C1112 1.384 . S
C1114 C1115 1.372 . S
C1115 C1114 1.372 . S
C1115 C1116 1.400 . S
C1115 C1120 1.490 . S
C1116 H1106 0.930 . S
C1116 C1115 1.400 . S
C1116 C1119 1.386 . S
H1117 C1133 0.930 . S
H1118 C1134 0.931 . S
C1119 H1107 0.929 . S
C1119 C1113 1.390 . S
C1119 C1116 1.386 . S
C1120 C1115 1.490 . S
C1120 C1122 1.395 . S
C1120 C1123 1.403 . S
H1121 C1127 0.930 . S
C1122 H1108 0.930 . S
C1122 C1120 1.395 . S
C1122 C1125 1.403 1_545 S
C1123 C1120 1.403 . S
C1123 C1124 1.524 . S
C1123 C1127 1.400 . S
C1124 H1109 0.960 . S
C1124 H1110 0.960 . S
C1124 H1111 0.960 . S
C1124 C1123 1.524 . S
C1125 C1122 1.403 1_565 S
C1125 C1126 1.392 . S
C1125 C1129 1.495 . S
C1126 C1125 1.392 . S
C1126 C1127 1.385 1_565 S
C1126 C1128 1.478 . S
C1127 H1121 0.930 . S
C1127 C1123 1.400 . S
C1127 C1126 1.385 1_545 S
C1128 C1126 1.478 . S
C1128 C1130 1.381 . S
C1128 C1134 1.383 . S
C1129 C1125 1.495 . S
C1129 H1135 0.959 . S
C1129 H1136 0.961 . S
C1129 H1137 0.960 . S
C1130 C1128 1.381 . S
C1130 C1131 1.394 . S
C1130 H1138 0.930 . S
C1131 C1130 1.394 . S
C1131 C1132 1.383 . S
C1131 H1139 0.929 . S
C1132 C1131 1.383 . S
C1132 C1133 1.377 . S
C1133 H1117 0.930 . S
C1133 C1132 1.377 . S
C1133 C1134 1.379 . S
C1134 H1118 0.931 . S
C1134 C1128 1.383 . S
C1134 C1133 1.379 . S
H1135 C1129 0.959 . S
H1136 C1129 0.961 . S
H1137 C1129 0.960 . S
H1138 C1130 0.930 . S
H1139 C1131 0.929 . S
H1140 C1148 0.929 . S
H1141 C1150 0.930 . S
H1142 C1152 0.930 . S
H1143 C1155 0.929 . S
H1144 C1158 0.930 . S
H1145 C1160 0.960 . S
H1146 C1160 0.960 . S
H1147 C1160 0.960 . S
C1148 H1140 0.929 . S
C1148 C1149 1.377 . S
C1148 C1150 1.384 . S
C1149 C1148 1.377 . S
C1149 C1155 1.390 . S
C1150 H1141 0.930 . S
C1150 C1148 1.384 . S
C1150 C1151 1.372 . S
C1151 C1150 1.372 . S
C1151 C1152 1.400 . S
C1151 C1156 1.490 . S
C1152 H1142 0.930 . S
C1152 C1151 1.400 . S
C1152 C1155 1.386 . S
H1153 C1169 0.930 . S
H1154 C1170 0.931 . S
C1155 H1143 0.929 . S
C1155 C1149 1.390 . S
C1155 C1152 1.386 . S
C1156 C1151 1.490 . S
C1156 C1158 1.395 . S
C1156 C1159 1.403 . S
H1157 C1163 0.930 . S
C1158 H1144 0.930 . S
C1158 C1156 1.395 . S
C1158 C1161 1.403 . S
C1159 C1156 1.403 . S
C1159 C1160 1.524 . S
C1159 C1163 1.400 . S
C1160 H1145 0.960 . S
C1160 H1146 0.960 . S
C1160 H1147 0.960 . S
C1160 C1159 1.524 . S
C1161 C1158 1.403 . S
C1161 C1162 1.392 . S
C1161 C1165 1.495 . S
C1162 C1161 1.392 . S
C1162 C1163 1.385 . S
C1162 C1164 1.478 . S
C1163 H1157 0.930 . S
C1163 C1159 1.400 . S
C1163 C1162 1.385 . S
C1164 C1162 1.478 . S
C1164 C1166 1.381 . S
C1164 C1170 1.383 . S
C1165 C1161 1.495 . S
C1165 H1171 0.959 . S
C1165 H1172 0.961 . S
C1165 H1173 0.960 . S
C1166 C1164 1.381 . S
C1166 C1167 1.394 . S
C1166 H1174 0.930 . S
C1167 C1166 1.394 . S
C1167 C1168 1.383 . S
C1167 H1175 0.929 . S
C1168 C1167 1.383 . S
C1168 C1169 1.377 . S
C1169 H1153 0.930 . S
C1169 C1168 1.377 . S
C1169 C1170 1.379 . S
C1170 H1154 0.931 . S
C1170 C1164 1.383 . S
C1170 C1169 1.379 . S
H1171 C1165 0.959 . S
H1172 C1165 0.961 . S
H1173 C1165 0.960 . S
H1174 C1166 0.930 . S
H1175 C1167 0.929 . S
H1176 C1184 0.929 . S
H1177 C1186 0.930 . S
H1178 C1188 0.930 . S
H1179 C1191 0.929 . S
H1180 C1194 0.930 . S
H1181 C1196 0.960 1_545 S
H1182 C1196 0.960 1_545 S
H1183 C1196 0.960 . S
C1184 H1176 0.929 . S
C1184 C1185 1.377 . S
C1184 C1186 1.384 . S
C1185 C1184 1.377 . S
C1185 C1191 1.390 . S
C1186 H1177 0.930 . S
C1186 C1184 1.384 . S
C1186 C1187 1.372 . S
C1187 C1186 1.372 . S
C1187 C1188 1.400 . S
C1187 C1192 1.490 . S
C1188 H1178 0.930 . S
C1188 C1187 1.400 . S
C1188 C1191 1.386 . S
H1189 C1205 0.930 . S
H1190 C1206 0.931 . S
C1191 H1179 0.929 . S
C1191 C1185 1.390 . S
C1191 C1188 1.386 . S
C1192 C1187 1.490 . S
C1192 C1194 1.395 . S
C1192 C1195 1.403 . S
H1193 C1199 0.930 . S
C1194 H1180 0.930 . S
C1194 C1192 1.395 . S
C1194 C1197 1.403 . S
C1195 C1192 1.403 . S
C1195 C1196 1.524 . S
C1195 C1199 1.400 1_565 S
C1196 H1181 0.960 1_565 S
C1196 H1182 0.960 1_565 S
C1196 H1183 0.960 . S
C1196 C1195 1.524 . S
C1197 C1194 1.403 . S
C1197 C1198 1.392 1_565 S
C1197 C1201 1.495 . S
C1198 C1197 1.392 1_545 S
C1198 C1199 1.385 . S
C1198 C1200 1.478 . S
C1199 H1193 0.930 . S
C1199 C1195 1.400 1_545 S
C1199 C1198 1.385 . S
C1200 C1198 1.478 . S
C1200 C1202 1.381 . S
C1200 C1206 1.383 . S
C1201 C1197 1.495 . S
C1201 H1207 0.959 . S
C1201 H1208 0.961 . S
C1201 H1209 0.960 1_565 S
C1202 C1200 1.381 . S
C1202 C1203 1.394 . S
C1202 H1210 0.930 . S
C1203 C1202 1.394 . S
C1203 C1204 1.383 . S
C1203 H1211 0.929 . S
C1204 C1203 1.383 . S
C1204 C1205 1.377 . S
C1205 H1189 0.930 . S
C1205 C1204 1.377 . S
C1205 C1206 1.379 . S
C1206 H1190 0.931 . S
C1206 C1200 1.383 . S
C1206 C1205 1.379 . S
H1207 C1201 0.959 . S
H1208 C1201 0.961 . S
H1209 C1201 0.960 1_545 S
H1210 C1202 0.930 . S
H1211 C1203 0.929 . S
H1212 C1220 0.929 . S
H1213 C1222 0.930 . S
H1214 C1224 0.930 . S
H1215 C1227 0.929 . S
H1216 C1230 0.930 . S
H1217 C1232 0.960 . S
H1218 C1232 0.960 . S
H1219 C1232 0.960 . S
C1220 H1212 0.929 . S
C1220 C1221 1.377 . S
C1220 C1222 1.384 . S
C1221 C1220 1.377 . S
C1221 C1227 1.390 . S
C1222 H1213 0.930 . S
C1222 C1220 1.384 . S
C1222 C1223 1.372 . S
C1223 C1222 1.372 . S
C1223 C1224 1.400 . S
C1223 C1228 1.490 . S
C1224 H1214 0.930 . S
C1224 C1223 1.400 . S
C1224 C1227 1.386 . S
H1225 C1241 0.930 . S
H1226 C1242 0.931 . S
C1227 H1215 0.929 . S
C1227 C1221 1.390 . S
C1227 C1224 1.386 . S
C1228 C1223 1.490 . S
C1228 C1230 1.395 1_556 S
C1228 C1231 1.403 . S
H1229 C1235 0.930 . S
C1230 H1216 0.930 . S
C1230 C1228 1.395 1_554 S
C1230 C1233 1.403 . S
C1231 C1228 1.403 . S
C1231 C1232 1.524 . S
C1231 C1235 1.400 . S
C1232 H1217 0.960 . S
C1232 H1218 0.960 . S
C1232 H1219 0.960 . S
C1232 C1231 1.524 . S
C1233 C1230 1.403 . S
C1233 C1234 1.392 . S
C1233 C1237 1.495 . S
C1234 C1233 1.392 . S
C1234 C1235 1.385 1_554 S
C1234 C1236 1.478 . S
C1235 H1229 0.930 . S
C1235 C1231 1.400 . S
C1235 C1234 1.385 1_556 S
C1236 C1234 1.478 . S
C1236 C1238 1.381 . S
C1236 C1242 1.383 . S
C1237 C1233 1.495 . S
C1237 H1243 0.959 . S
C1237 H1244 0.961 . S
C1237 H1245 0.960 . S
C1238 C1236 1.381 . S
C1238 C1239 1.394 . S
C1238 H1246 0.930 . S
C1239 C1238 1.394 . S
C1239 C1240 1.383 . S
C1239 H1247 0.929 . S
C1240 C1239 1.383 . S
C1240 C1241 1.377 . S
C1241 H1225 0.930 . S
C1241 C1240 1.377 . S
C1241 C1242 1.379 . S
C1242 H1226 0.931 . S
C1242 C1236 1.383 . S
C1242 C1241 1.379 . S
H1243 C1237 0.959 . S
H1244 C1237 0.961 . S
H1245 C1237 0.960 . S
H1246 C1238 0.930 . S
H1247 C1239 0.929 . S
H1248 C1256 0.929 . S
H1249 C1258 0.930 . S
H1250 C1260 0.930 . S
H1251 C1263 0.929 . S
H1252 C1266 0.930 . S
H1253 C1268 0.960 . S
H1254 C1268 0.960 . S
H1255 C1268 0.960 . S
C1256 H1248 0.929 . S
C1256 C1257 1.377 . S
C1256 C1258 1.384 . S
C1257 C1256 1.377 . S
C1257 C1263 1.390 . S
C1258 H1249 0.930 . S
C1258 C1256 1.384 . S
C1258 C1259 1.372 . S
C1259 C1258 1.372 . S
C1259 C1260 1.400 . S
C1259 C1264 1.490 . S
C1260 H1250 0.930 . S
C1260 C1259 1.400 . S
C1260 C1263 1.386 . S
H1261 C1277 0.930 . S
H1262 C1278 0.931 . S
C1263 H1251 0.929 . S
C1263 C1257 1.390 . S
C1263 C1260 1.386 . S
C1264 C1259 1.490 . S
C1264 C1266 1.395 . S
C1264 C1267 1.403 . S
H1265 C1271 0.930 . S
C1266 H1252 0.930 . S
C1266 C1264 1.395 . S
C1266 C1269 1.403 1_455 S
C1267 C1264 1.403 . S
C1267 C1268 1.524 . S
C1267 C1271 1.400 1_455 S
C1268 H1253 0.960 . S
C1268 H1254 0.960 . S
C1268 H1255 0.960 . S
C1268 C1267 1.524 . S
C1269 C1266 1.403 1_655 S
C1269 C1270 1.392 . S
C1269 C1273 1.495 . S
C1270 C1269 1.392 . S
C1270 C1271 1.385 . S
C1270 C1272 1.478 . S
C1271 H1265 0.930 . S
C1271 C1267 1.400 1_655 S
C1271 C1270 1.385 . S
C1272 C1270 1.478 . S
C1272 C1274 1.381 . S
C1272 C1278 1.383 . S
C1273 C1269 1.495 . S
C1273 H1279 0.959 . S
C1273 H1280 0.961 . S
C1273 H1281 0.960 . S
C1274 C1272 1.381 . S
C1274 C1275 1.394 . S
C1274 H1282 0.930 . S
C1275 C1274 1.394 . S
C1275 C1276 1.383 . S
C1275 H1283 0.929 . S
C1276 C1275 1.383 . S
C1276 C1277 1.377 . S
C1277 H1261 0.930 . S
C1277 C1276 1.377 . S
C1277 C1278 1.379 . S
C1278 H1262 0.931 . S
C1278 C1272 1.383 . S
C1278 C1277 1.379 . S
H1279 C1273 0.959 . S
H1280 C1273 0.961 . S
H1281 C1273 0.960 . S
H1282 C1274 0.930 . S
H1283 C1275 0.929 . S
H1284 C1292 0.929 . S
H1285 C1294 0.930 . S
H1286 C1296 0.930 . S
H1287 C1299 0.929 . S
H1288 C1302 0.930 . S
H1289 C1304 0.960 . S
H1290 C1304 0.960 . S
H1291 C1304 0.960 . S
C1292 H1284 0.929 . S
C1292 C1293 1.377 . S
C1292 C1294 1.384 . S
C1293 C1292 1.377 . S
C1293 C1299 1.390 . S
C1294 H1285 0.930 . S
C1294 C1292 1.384 . S
C1294 C1295 1.372 . S
C1295 C1294 1.372 . S
C1295 C1296 1.400 . S
C1295 C1300 1.490 . S
C1296 H1286 0.930 . S
C1296 C1295 1.400 . S
C1296 C1299 1.386 . S
H1297 C1313 0.930 . S
H1298 C1314 0.931 . S
C1299 H1287 0.929 . S
C1299 C1293 1.390 . S
C1299 C1296 1.386 . S
C1300 C1295 1.490 . S
C1300 C1302 1.395 . S
C1300 C1303 1.403 . S
H1301 C1307 0.930 . S
C1302 H1288 0.930 . S
C1302 C1300 1.395 . S
C1302 C1305 1.403 . S
C1303 C1300 1.403 . S
C1303 C1304 1.524 . S
C1303 C1307 1.400 . S
C1304 H1289 0.960 . S
C1304 H1290 0.960 . S
C1304 H1291 0.960 . S
C1304 C1303 1.524 . S
C1305 C1302 1.403 . S
C1305 C1306 1.392 . S
C1305 C1309 1.495 . S
C1306 C1305 1.392 . S
C1306 C1307 1.385 . S
C1306 C1308 1.478 . S
C1307 H1301 0.930 . S
C1307 C1303 1.400 . S
C1307 C1306 1.385 . S
C1308 C1306 1.478 . S
C1308 C1310 1.381 . S
C1308 C1314 1.383 . S
C1309 C1305 1.495 . S
C1309 H1315 0.959 . S
C1309 H1316 0.961 . S
C1309 H1317 0.960 . S
C1310 C1308 1.381 . S
C1310 C1311 1.394 . S
C1310 H1318 0.930 . S
C1311 C1310 1.394 . S
C1311 C1312 1.383 . S
C1311 H1319 0.929 . S
C1312 C1311 1.383 . S
C1312 C1313 1.377 . S
C1313 H1297 0.930 . S
C1313 C1312 1.377 . S
C1313 C1314 1.379 . S
C1314 H1298 0.931 . S
C1314 C1308 1.383 . S
C1314 C1313 1.379 . S
H1315 C1309 0.959 . S
H1316 C1309 0.961 . S
H1317 C1309 0.960 . S
H1318 C1310 0.930 . S
H1319 C1311 0.929 . S
H1320 C1328 0.929 . S
H1321 C1330 0.930 . S
H1322 C1332 0.930 . S
H1323 C1335 0.929 . S
H1324 C1338 0.930 . S
H1325 C1340 0.960 . S
H1326 C1340 0.960 1_655 S
H1327 C1340 0.960 . S
C1328 H1320 0.929 . S
C1328 C1329 1.377 . S
C1328 C1330 1.384 . S
C1329 C1328 1.377 . S
C1329 C1335 1.390 . S
C1330 H1321 0.930 . S
C1330 C1328 1.384 . S
C1330 C1331 1.372 . S
C1331 C1330 1.372 . S
C1331 C1332 1.400 . S
C1331 C1336 1.490 . S
C1332 H1322 0.930 . S
C1332 C1331 1.400 . S
C1332 C1335 1.386 . S
H1333 C1349 0.930 . S
H1334 C1350 0.931 . S
C1335 H1323 0.929 . S
C1335 C1329 1.390 . S
C1335 C1332 1.386 . S
C1336 C1331 1.490 . S
C1336 C1338 1.395 . S
C1336 C1339 1.403 1_655 S
H1337 C1343 0.930 . S
C1338 H1324 0.930 . S
C1338 C1336 1.395 . S
C1338 C1341 1.403 1_655 S
C1339 C1336 1.403 1_455 S
C1339 C1340 1.524 . S
C1339 C1343 1.400 . S
C1340 H1325 0.960 . S
C1340 H1326 0.960 1_455 S
C1340 H1327 0.960 . S
C1340 C1339 1.524 . S
C1341 C1338 1.403 1_455 S
C1341 C1342 1.392 . S
C1341 C1345 1.495 1_455 S
C1342 C1341 1.392 . S
C1342 C1343 1.385 . S
C1342 C1344 1.478 . S
C1343 H1337 0.930 . S
C1343 C1339 1.400 . S
C1343 C1342 1.385 . S
C1344 C1342 1.478 . S
C1344 C1346 1.381 . S
C1344 C1350 1.383 . S
C1345 C1341 1.495 1_655 S
C1345 H1351 0.959 . S
C1345 H1352 0.961 1_655 S
C1345 H1353 0.960 . S
C1346 C1344 1.381 . S
C1346 C1347 1.394 . S
C1346 H1354 0.930 . S
C1347 C1346 1.394 . S
C1347 C1348 1.383 . S
C1347 H1355 0.929 . S
C1348 C1347 1.383 . S
C1348 C1349 1.377 . S
C1349 H1333 0.930 . S
C1349 C1348 1.377 . S
C1349 C1350 1.379 . S
C1350 H1334 0.931 . S
C1350 C1344 1.383 . S
C1350 C1349 1.379 . S
H1351 C1345 0.959 . S
H1352 C1345 0.961 1_455 S
H1353 C1345 0.960 . S
H1354 C1346 0.930 . S
H1355 C1347 0.929 . S
H1356 C1364 0.929 . S
H1357 C1366 0.930 . S
H1358 C1368 0.930 . S
H1359 C1371 0.929 . S
H1360 C1374 0.930 . S
H1361 C1376 0.960 . S
H1362 C1376 0.960 . S
H1363 C1376 0.960 . S
C1364 H1356 0.929 . S
C1364 C1365 1.377 . S
C1364 C1366 1.384 . S
C1365 C1364 1.377 . S
C1365 C1371 1.390 . S
C1366 H1357 0.930 . S
C1366 C1364 1.384 . S
C1366 C1367 1.372 . S
C1367 C1366 1.372 . S
C1367 C1368 1.400 . S
C1367 C1372 1.490 . S
C1368 H1358 0.930 . S
C1368 C1367 1.400 . S
C1368 C1371 1.386 . S
H1369 C1385 0.930 . S
H1370 C1386 0.931 . S
C1371 H1359 0.929 . S
C1371 C1365 1.390 . S
C1371 C1368 1.386 . S
C1372 C1367 1.490 . S
C1372 C1374 1.395 . S
C1372 C1375 1.403 . S
H1373 C1379 0.930 . S
C1374 H1360 0.930 . S
C1374 C1372 1.395 . S
C1374 C1377 1.403 . S
C1375 C1372 1.403 . S
C1375 C1376 1.524 . S
C1375 C1379 1.400 . S
C1376 H1361 0.960 . S
C1376 H1362 0.960 . S
C1376 H1363 0.960 . S
C1376 C1375 1.524 . S
C1377 C1374 1.403 . S
C1377 C1378 1.392 . S
C1377 C1381 1.495 . S
C1378 C1377 1.392 . S
C1378 C1379 1.385 . S
C1378 C1380 1.478 . S
C1379 H1373 0.930 . S
C1379 C1375 1.400 . S
C1379 C1378 1.385 . S
C1380 C1378 1.478 . S
C1380 C1382 1.381 . S
C1380 C1386 1.383 . S
C1381 C1377 1.495 . S
C1381 H1387 0.959 . S
C1381 H1388 0.961 . S
C1381 H1389 0.960 . S
C1382 C1380 1.381 . S
C1382 C1383 1.394 . S
C1382 H1390 0.930 . S
C1383 C1382 1.394 . S
C1383 C1384 1.383 . S
C1383 H1391 0.929 . S
C1384 C1383 1.383 . S
C1384 C1385 1.377 . S
C1385 H1369 0.930 . S
C1385 C1384 1.377 . S
C1385 C1386 1.379 . S
C1386 H1370 0.931 . S
C1386 C1380 1.383 . S
C1386 C1385 1.379 . S
H1387 C1381 0.959 . S
H1388 C1381 0.961 . S
H1389 C1381 0.960 . S
H1390 C1382 0.930 . S
H1391 C1383 0.929 . S
H1392 C1400 0.929 . S
H1393 C1402 0.930 . S
H1394 C1404 0.930 . S
H1395 C1407 0.929 . S
H1396 C1410 0.930 . S
H1397 C1412 0.960 . S
H1398 C1412 0.960 . S
H1399 C1412 0.960 . S
C1400 H1392 0.929 . S
C1400 C1401 1.377 . S
C1400 C1402 1.384 . S
C1401 C1400 1.377 . S
C1401 C1407 1.390 . S
C1402 H1393 0.930 . S
C1402 C1400 1.384 . S
C1402 C1403 1.372 . S
C1403 C1402 1.372 . S
C1403 C1404 1.400 . S
C1403 C1408 1.490 . S
C1404 H1394 0.930 . S
C1404 C1403 1.400 . S
C1404 C1407 1.386 . S
H1405 C1421 0.930 . S
H1406 C1422 0.931 . S
C1407 H1395 0.929 . S
C1407 C1401 1.390 . S
C1407 C1404 1.386 . S
C1408 C1403 1.490 . S
C1408 C1410 1.395 . S
C1408 C1411 1.403 1_545 S
H1409 C1415 0.930 . S
C1410 H1396 0.930 . S
C1410 C1408 1.395 . S
C1410 C1413 1.403 1_545 S
C1411 C1408 1.403 1_565 S
C1411 C1412 1.524 . S
C1411 C1415 1.400 . S
C1412 H1397 0.960 . S
C1412 H1398 0.960 . S
C1412 H1399 0.960 . S
C1412 C1411 1.524 . S
C1413 C1410 1.403 1_565 S
C1413 C1414 1.392 . S
C1413 C1417 1.495 . S
C1414 C1413 1.392 . S
C1414 C1415 1.385 . S
C1414 C1416 1.478 . S
C1415 H1409 0.930 . S
C1415 C1411 1.400 . S
C1415 C1414 1.385 . S
C1416 C1414 1.478 . S
C1416 C1418 1.381 . S
C1416 C1422 1.383 . S
C1417 C1413 1.495 . S
C1417 H1423 0.959 1_565 S
C1417 H1424 0.961 . S
C1417 H1425 0.960 . S
C1418 C1416 1.381 . S
C1418 C1419 1.394 . S
C1418 H1426 0.930 . S
C1419 C1418 1.394 . S
C1419 C1420 1.383 . S
C1419 H1427 0.929 . S
C1420 C1419 1.383 . S
C1420 C1421 1.377 . S
C1421 H1405 0.930 . S
C1421 C1420 1.377 . S
C1421 C1422 1.379 . S
C1422 H1406 0.931 . S
C1422 C1416 1.383 . S
C1422 C1421 1.379 . S
H1423 C1417 0.959 1_545 S
H1424 C1417 0.961 . S
H1425 C1417 0.960 . S
H1426 C1418 0.930 . S
H1427 C1419 0.929 . S
H1428 C1436 0.929 . S
H1429 C1438 0.930 . S
H1430 C1440 0.930 . S
H1431 C1443 0.929 . S
H1432 C1446 0.930 . S
H1433 C1448 0.960 . S
H1434 C1448 0.960 . S
H1435 C1448 0.960 . S
C1436 H1428 0.929 . S
C1436 C1437 1.377 . S
C1436 C1438 1.384 . S
C1437 C1436 1.377 . S
C1437 C1443 1.390 . S
C1438 H1429 0.930 . S
C1438 C1436 1.384 . S
C1438 C1439 1.372 . S
C1439 C1438 1.372 . S
C1439 C1440 1.400 . S
C1439 C1444 1.490 . S
C1440 H1430 0.930 . S
C1440 C1439 1.400 . S
C1440 C1443 1.386 . S
H1441 C1457 0.930 . S
H1442 C1458 0.931 . S
C1443 H1431 0.929 . S
C1443 C1437 1.390 . S
C1443 C1440 1.386 . S
C1444 C1439 1.490 . S
C1444 C1446 1.395 . S
C1444 C1447 1.403 . S
H1445 C1451 0.930 . S
C1446 H1432 0.930 . S
C1446 C1444 1.395 . S
C1446 C1449 1.403 . S
C1447 C1444 1.403 . S
C1447 C1448 1.524 . S
C1447 C1451 1.400 . S
C1448 H1433 0.960 . S
C1448 H1434 0.960 . S
C1448 H1435 0.960 . S
C1448 C1447 1.524 . S
C1449 C1446 1.403 . S
C1449 C1450 1.392 . S
C1449 C1453 1.495 . S
C1450 C1449 1.392 . S
C1450 C1451 1.385 . S
C1450 C1452 1.478 . S
C1451 H1445 0.930 . S
C1451 C1447 1.400 . S
C1451 C1450 1.385 . S
C1452 C1450 1.478 . S
C1452 C1454 1.381 . S
C1452 C1458 1.383 . S
C1453 C1449 1.495 . S
C1453 H1459 0.959 . S
C1453 H1460 0.961 . S
C1453 H1461 0.960 . S
C1454 C1452 1.381 . S
C1454 C1455 1.394 . S
C1454 H1462 0.930 . S
C1455 C1454 1.394 . S
C1455 C1456 1.383 . S
C1455 H1463 0.929 . S
C1456 C1455 1.383 . S
C1456 C1457 1.377 . S
C1457 H1441 0.930 . S
C1457 C1456 1.377 . S
C1457 C1458 1.379 . S
C1458 H1442 0.931 . S
C1458 C1452 1.383 . S
C1458 C1457 1.379 . S
H1459 C1453 0.959 . S
H1460 C1453 0.961 . S
H1461 C1453 0.960 . S
H1462 C1454 0.930 . S
H1463 C1455 0.929 . S
H1464 C1472 0.929 . S
H1465 C1474 0.930 . S
H1466 C1476 0.930 . S
H1467 C1479 0.929 . S
H1468 C1482 0.930 . S
H1469 C1484 0.960 1_565 S
H1470 C1484 0.955 1_565 S
H1471 C1484 0.960 . S
C1472 H1464 0.929 . S
C1472 C1473 1.377 . S
C1472 C1474 1.384 . S
C1473 C1472 1.377 . S
C1473 C1479 1.390 . S
C1474 H1465 0.930 . S
C1474 C1472 1.384 . S
C1474 C1475 1.372 . S
C1475 C1474 1.372 . S
C1475 C1476 1.400 . S
C1475 C1480 1.490 . S
C1476 H1466 0.930 . S
C1476 C1475 1.400 . S
C1476 C1479 1.386 . S
H1477 C1493 0.930 . S
H1478 C1494 0.931 . S
C1479 H1467 0.929 . S
C1479 C1473 1.390 . S
C1479 C1476 1.386 . S
C1480 C1475 1.490 . S
C1480 C1482 1.395 . S
C1480 C1483 1.403 . S
H1481 C1487 0.930 . S
C1482 H1468 0.930 . S
C1482 C1480 1.395 . S
C1482 C1485 1.403 1_545 S
C1483 C1480 1.403 . S
C1483 C1484 1.524 . S
C1483 C1487 1.400 1_545 S
C1484 H1469 0.960 1_545 S
C1484 H1470 0.955 1_545 S
C1484 H1471 0.960 . S
C1484 C1483 1.524 . S
C1485 C1482 1.403 1_565 S
C1485 C1486 1.392 . S
C1485 C1489 1.495 . S
C1486 C1485 1.392 . S
C1486 C1487 1.385 . S
C1486 C1488 1.478 . S
C1487 H1481 0.930 . S
C1487 C1483 1.400 1_565 S
C1487 C1486 1.385 . S
C1488 C1486 1.478 . S
C1488 C1490 1.381 . S
C1488 C1494 1.383 . S
C1489 C1485 1.495 . S
C1489 H1495 0.959 1_565 S
C1489 H1496 0.957 1_565 S
C1489 H1497 0.960 . S
C1490 C1488 1.381 . S
C1490 C1491 1.394 . S
C1490 H1498 0.930 . S
C1491 C1490 1.394 . S
C1491 C1492 1.383 . S
C1491 H1499 0.929 . S
C1492 C1491 1.383 . S
C1492 C1493 1.377 . S
C1493 H1477 0.930 . S
C1493 C1492 1.377 . S
C1493 C1494 1.379 . S
C1494 H1478 0.931 . S
C1494 C1488 1.383 . S
C1494 C1493 1.379 . S
H1495 C1489 0.959 1_545 S
H1496 C1489 0.957 1_545 S
H1497 C1489 0.960 . S
H1498 C1490 0.930 . S
H1499 C1491 0.929 . S
H1500 C1508 0.929 . S
H1501 C1510 0.930 . S
H1502 C1512 0.930 . S
H1503 C1515 0.929 . S
H1504 C1518 0.930 . S
H1505 C1520 0.960 . S
H1506 C1520 0.960 1_554 S
H1507 C1520 0.960 . S
C1508 H1500 0.929 . S
C1508 C1509 1.377 . S
C1508 C1510 1.384 . S
C1509 C1508 1.377 . S
C1509 C1515 1.390 . S
C1510 H1501 0.930 . S
C1510 C1508 1.384 . S
C1510 C1511 1.372 . S
C1511 C1510 1.372 . S
C1511 C1512 1.400 . S
C1511 C1516 1.490 . S
C1512 H1502 0.930 . S
C1512 C1511 1.400 . S
C1512 C1515 1.386 . S
H1513 C1529 0.930 . S
H1514 C1530 0.931 . S
C1515 H1503 0.929 . S
C1515 C1509 1.390 . S
C1515 C1512 1.386 . S
C1516 C1511 1.490 . S
C1516 C1518 1.395 . S
C1516 C1519 1.403 1_554 S
H1517 C1523 0.930 . S
C1518 H1504 0.930 . S
C1518 C1516 1.395 . S
C1518 C1521 1.403 1_554 S
C1519 C1516 1.403 1_556 S
C1519 C1520 1.524 . S
C1519 C1523 1.400 . S
C1520 H1505 0.960 . S
C1520 H1506 0.960 1_556 S
C1520 H1507 0.960 . S
C1520 C1519 1.524 . S
C1521 C1518 1.403 1_556 S
C1521 C1522 1.392 . S
C1521 C1525 1.495 . S
C1522 C1521 1.392 . S
C1522 C1523 1.385 . S
C1522 C1524 1.478 . S
C1523 H1517 0.930 . S
C1523 C1519 1.400 . S
C1523 C1522 1.385 . S
C1524 C1522 1.478 . S
C1524 C1526 1.381 . S
C1524 C1530 1.383 . S
C1525 C1521 1.495 . S
C1525 H1531 0.959 1_556 S
C1525 H1532 0.961 . S
C1525 H1533 0.960 1_556 S
C1526 C1524 1.381 . S
C1526 C1527 1.394 . S
C1526 H1534 0.930 . S
C1527 C1526 1.394 . S
C1527 C1528 1.383 . S
C1527 H1535 0.929 . S
C1528 C1527 1.383 . S
C1528 C1529 1.377 . S
C1529 H1513 0.930 . S
C1529 C1528 1.377 . S
C1529 C1530 1.379 . S
C1530 H1514 0.931 . S
C1530 C1524 1.383 . S
C1530 C1529 1.379 . S
H1531 C1525 0.959 1_554 S
H1532 C1525 0.961 . S
H1533 C1525 0.960 1_554 S
H1534 C1526 0.930 . S
H1535 C1527 0.929 . S
H1536 C1544 0.929 . S
H1537 C1546 0.930 . S
H1538 C1548 0.930 . S
H1539 C1551 0.929 . S
H1540 C1554 0.930 . S
H1541 C1556 0.960 . S
H1542 C1556 0.960 . S
H1543 C1556 0.960 1_455 S
C1544 H1536 0.929 . S
C1544 C1545 1.377 . S
C1544 C1546 1.384 . S
C1545 C1544 1.377 . S
C1545 C1551 1.390 . S
C1546 H1537 0.930 . S
C1546 C1544 1.384 . S
C1546 C1547 1.372 . S
C1547 C1546 1.372 . S
C1547 C1548 1.400 . S
C1547 C1552 1.490 . S
C1548 H1538 0.930 . S
C1548 C1547 1.400 . S
C1548 C1551 1.386 . S
H1549 C1565 0.930 . S
H1550 C1566 0.931 . S
C1551 H1539 0.929 . S
C1551 C1545 1.390 . S
C1551 C1548 1.386 . S
C1552 C1547 1.490 . S
C1552 C1554 1.395 . S
C1552 C1555 1.418 . S
H1553 C1559 0.930 . S
C1554 H1540 0.930 . S
C1554 C1552 1.395 . S
C1554 C1557 1.403 . S
C1555 C1552 1.418 . S
C1555 C1556 1.522 1_455 S
C1555 C1559 1.385 1_455 S
C1556 H1541 0.960 . S
C1556 H1542 0.960 . S
C1556 H1543 0.960 1_655 S
C1556 C1555 1.522 1_655 S
C1557 C1554 1.403 . S
C1557 C1558 1.392 1_455 S
C1557 C1561 1.495 . S
C1558 C1557 1.392 1_655 S
C1558 C1559 1.385 . S
C1558 C1560 1.478 . S
C1559 H1553 0.930 . S
C1559 C1555 1.385 1_655 S
C1559 C1558 1.385 . S
C1560 C1558 1.478 . S
C1560 C1562 1.381 . S
C1560 C1566 1.383 . S
C1561 C1557 1.495 . S
C1561 H1567 0.959 . S
C1561 H1568 0.961 . S
C1561 H1569 0.960 1_455 S
C1562 C1560 1.381 . S
C1562 C1563 1.394 . S
C1562 H1570 0.930 . S
C1563 C1562 1.394 . S
C1563 C1564 1.383 . S
C1563 H1571 0.929 . S
C1564 C1563 1.383 . S
C1564 C1565 1.377 . S
C1565 H1549 0.930 . S
C1565 C1564 1.377 . S
C1565 C1566 1.379 . S
C1566 H1550 0.931 . S
C1566 C1560 1.383 . S
C1566 C1565 1.379 . S
H1567 C1561 0.959 . S
H1568 C1561 0.961 . S
H1569 C1561 0.960 1_655 S
H1570 C1562 0.930 . S
H1571 C1563 0.929 . S
H1572 C1580 0.929 . S
H1573 C1582 0.930 . S
H1574 C1584 0.930 . S
H1575 C1587 0.929 . S
H1576 C1590 0.930 . S
H1577 C1592 0.960 . S
H1578 C1592 0.960 . S
H1579 C1592 0.960 . S
C1580 H1572 0.929 . S
C1580 C1581 1.377 . S
C1580 C1582 1.384 . S
C1581 C1580 1.377 . S
C1581 C1587 1.390 . S
C1582 H1573 0.930 . S
C1582 C1580 1.384 . S
C1582 C1583 1.372 . S
C1583 C1582 1.372 . S
C1583 C1584 1.400 . S
C1583 C1588 1.490 . S
C1584 H1574 0.930 . S
C1584 C1583 1.400 . S
C1584 C1587 1.386 . S
H1585 C1601 0.930 . S
H1586 C1602 0.931 . S
C1587 H1575 0.929 . S
C1587 C1581 1.390 . S
C1587 C1584 1.386 . S
C1588 C1583 1.490 . S
C1588 C1590 1.395 . S
C1588 C1591 1.403 . S
H1589 C1595 0.930 . S
C1590 H1576 0.930 . S
C1590 C1588 1.395 . S
C1590 C1593 1.403 . S
C1591 C1588 1.403 . S
C1591 C1592 1.524 . S
C1591 C1595 1.400 . S
C1592 H1577 0.960 . S
C1592 H1578 0.960 . S
C1592 H1579 0.960 . S
C1592 C1591 1.524 . S
C1593 C1590 1.403 . S
C1593 C1594 1.392 . S
C1593 C1597 1.495 . S
C1594 C1593 1.392 . S
C1594 C1595 1.385 . S
C1594 C1596 1.478 . S
C1595 H1589 0.930 . S
C1595 C1591 1.400 . S
C1595 C1594 1.385 . S
C1596 C1594 1.478 . S
C1596 C1598 1.381 . S
C1596 C1602 1.383 . S
C1597 C1593 1.495 . S
C1597 H1603 0.959 . S
C1597 H1604 0.961 . S
C1597 H1605 0.960 . S
C1598 C1596 1.381 . S
C1598 C1599 1.394 . S
C1598 H1606 0.930 . S
C1599 C1598 1.394 . S
C1599 C1600 1.383 . S
C1599 H1607 0.929 . S
C1600 C1599 1.383 . S
C1600 C1601 1.377 . S
C1601 H1585 0.930 . S
C1601 C1600 1.377 . S
C1601 C1602 1.379 . S
C1602 H1586 0.931 . S
C1602 C1596 1.383 . S
C1602 C1601 1.379 . S
H1603 C1597 0.959 . S
H1604 C1597 0.961 . S
H1605 C1597 0.960 . S
H1606 C1598 0.930 . S
H1607 C1599 0.929 . S
H1608 C1616 0.929 . S
H1609 C1618 0.930 . S
H1610 C1620 0.930 . S
H1611 C1623 0.929 . S
H1612 C1626 0.930 . S
H1613 C1628 0.960 . S
H1614 C1628 0.960 . S
H1615 C1628 0.950 1_655 S
C1616 H1608 0.929 . S
C1616 C1617 1.377 . S
C1616 C1618 1.384 . S
C1617 C1616 1.377 . S
C1617 C1623 1.390 . S
C1618 H1609 0.930 . S
C1618 C1616 1.384 . S
C1618 C1619 1.372 . S
C1619 C1618 1.372 . S
C1619 C1620 1.400 . S
C1619 C1624 1.490 . S
C1620 H1610 0.930 . S
C1620 C1619 1.400 . S
C1620 C1623 1.386 . S
H1621 C1637 0.930 . S
H1622 C1638 0.931 . S
C1623 H1611 0.929 . S
C1623 C1617 1.390 . S
C1623 C1620 1.386 . S
C1624 C1619 1.490 . S
C1624 C1626 1.395 . S
C1624 C1627 1.403 1_655 S
H1625 C1631 0.930 . S
C1626 H1612 0.930 . S
C1626 C1624 1.395 . S
C1626 C1629 1.403 1_655 S
C1627 C1624 1.403 1_455 S
C1627 C1628 1.524 . S
C1627 C1631 1.400 . S
C1628 H1613 0.960 . S
C1628 H1614 0.960 . S
C1628 H1615 0.950 1_455 S
C1628 C1627 1.524 . S
C1629 C1626 1.403 1_455 S
C1629 C1630 1.392 . S
C1629 C1633 1.495 1_455 S
C1630 C1629 1.392 . S
C1630 C1631 1.385 . S
C1630 C1632 1.478 . S
C1631 H1625 0.930 . S
C1631 C1627 1.400 . S
C1631 C1630 1.385 . S
C1632 C1630 1.478 . S
C1632 C1634 1.381 . S
C1632 C1638 1.383 . S
C1633 C1629 1.495 1_655 S
C1633 H1639 0.959 . S
C1633 H1640 0.961 . S
C1633 H1641 0.960 1_655 S
C1634 C1632 1.381 . S
C1634 C1635 1.394 . S
C1634 H1642 0.930 . S
C1635 C1634 1.394 . S
C1635 C1636 1.383 . S
C1635 H1643 0.929 . S
C1636 C1635 1.383 . S
C1636 C1637 1.377 . S
C1637 H1621 0.930 . S
C1637 C1636 1.377 . S
C1637 C1638 1.379 . S
C1638 H1622 0.931 . S
C1638 C1632 1.383 . S
C1638 C1637 1.379 . S
H1639 C1633 0.959 . S
H1640 C1633 0.961 . S
H1641 C1633 0.960 1_455 S
H1642 C1634 0.930 . S
H1643 C1635 0.929 . S
H1644 C1652 0.929 . S
H1645 C1654 0.930 . S
H1646 C1656 0.930 . S
H1647 C1659 0.929 . S
H1648 C1662 0.930 . S
H1649 C1664 0.960 . S
H1650 C1664 0.960 . S
H1651 C1664 0.960 . S
C1652 H1644 0.929 . S
C1652 C1653 1.377 . S
C1652 C1654 1.384 . S
C1653 C1652 1.377 . S
C1653 C1659 1.390 . S
C1654 H1645 0.930 . S
C1654 C1652 1.384 . S
C1654 C1655 1.372 . S
C1655 C1654 1.372 . S
C1655 C1656 1.400 . S
C1655 C1660 1.490 . S
C1656 H1646 0.930 . S
C1656 C1655 1.400 . S
C1656 C1659 1.386 . S
H1657 C1673 0.930 . S
H1658 C1674 0.931 . S
C1659 H1647 0.929 . S
C1659 C1653 1.390 . S
C1659 C1656 1.386 . S
C1660 C1655 1.490 . S
C1660 C1662 1.395 . S
C1660 C1663 1.403 . S
H1661 C1667 0.930 . S
C1662 H1648 0.930 . S
C1662 C1660 1.395 . S
C1662 C1665 1.403 . S
C1663 C1660 1.403 . S
C1663 C1664 1.524 . S
C1663 C1667 1.400 . S
C1664 H1649 0.960 . S
C1664 H1650 0.960 . S
C1664 H1651 0.960 . S
C1664 C1663 1.524 . S
C1665 C1662 1.403 . S
C1665 C1666 1.392 . S
C1665 C1669 1.495 . S
C1666 C1665 1.392 . S
C1666 C1667 1.385 . S
C1666 C1668 1.478 . S
C1667 H1661 0.930 . S
C1667 C1663 1.400 . S
C1667 C1666 1.385 . S
C1668 C1666 1.478 . S
C1668 C1670 1.381 . S
C1668 C1674 1.383 . S
C1669 C1665 1.495 . S
C1669 H1675 0.959 . S
C1669 H1676 0.961 . S
C1669 H1677 0.960 . S
C1670 C1668 1.381 . S
C1670 C1671 1.394 . S
C1670 H1678 0.930 . S
C1671 C1670 1.394 . S
C1671 C1672 1.383 . S
C1671 H1679 0.929 . S
C1672 C1671 1.383 . S
C1672 C1673 1.377 . S
C1673 H1657 0.930 . S
C1673 C1672 1.377 . S
C1673 C1674 1.379 . S
C1674 H1658 0.931 . S
C1674 C1668 1.383 . S
C1674 C1673 1.379 . S
H1675 C1669 0.959 . S
H1676 C1669 0.961 . S
H1677 C1669 0.960 . S
H1678 C1670 0.930 . S
H1679 C1671 0.929 . S
H1680 C1688 0.929 . S
H1681 C1690 0.930 . S
H1682 C1692 0.930 . S
H1683 C1695 0.929 . S
H1684 C1698 0.930 . S
H1685 C1700 0.960 . S
H1686 C1700 0.960 . S
H1687 C1700 0.960 . S
C1688 H1680 0.929 . S
C1688 C1689 1.377 . S
C1688 C1690 1.384 . S
C1689 C1688 1.377 . S
C1689 C1695 1.390 . S
C1690 H1681 0.930 . S
C1690 C1688 1.384 . S
C1690 C1691 1.372 . S
C1691 C1690 1.372 . S
C1691 C1692 1.400 . S
C1691 C1696 1.490 . S
C1692 H1682 0.930 . S
C1692 C1691 1.400 . S
C1692 C1695 1.386 . S
H1693 C1709 0.930 . S
H1694 C1710 0.931 . S
C1695 H1683 0.929 . S
C1695 C1689 1.390 . S
C1695 C1692 1.386 . S
C1696 C1691 1.490 . S
C1696 C1698 1.395 . S
C1696 C1699 1.403 . S
H1697 C1703 0.930 . S
C1698 H1684 0.930 . S
C1698 C1696 1.395 . S
C1698 C1701 1.403 . S
C1699 C1696 1.403 . S
C1699 C1700 1.524 . S
C1699 C1703 1.400 . S
C1700 H1685 0.960 . S
C1700 H1686 0.960 . S
C1700 H1687 0.960 . S
C1700 C1699 1.524 . S
C1701 C1698 1.403 . S
C1701 C1702 1.392 . S
C1701 C1705 1.495 . S
C1702 C1701 1.392 . S
C1702 C1703 1.385 . S
C1702 C1704 1.478 . S
C1703 H1697 0.930 . S
C1703 C1699 1.400 . S
C1703 C1702 1.385 . S
C1704 C1702 1.478 . S
C1704 C1706 1.381 . S
C1704 C1710 1.383 . S
C1705 C1701 1.495 . S
C1705 H1711 0.959 . S
C1705 H1712 0.961 . S
C1705 H1713 0.960 . S
C1706 C1704 1.381 . S
C1706 C1707 1.394 . S
C1706 H1714 0.930 . S
C1707 C1706 1.394 . S
C1707 C1708 1.383 . S
C1707 H1715 0.929 . S
C1708 C1707 1.383 . S
C1708 C1709 1.377 . S
C1709 H1693 0.930 . S
C1709 C1708 1.377 . S
C1709 C1710 1.379 . S
C1710 H1694 0.931 . S
C1710 C1704 1.383 . S
C1710 C1709 1.379 . S
H1711 C1705 0.959 . S
H1712 C1705 0.961 . S
H1713 C1705 0.960 . S
H1714 C1706 0.930 . S
H1715 C1707 0.929 . S
H1716 C1724 0.929 . S
H1717 C1726 0.930 . S
H1718 C1728 0.930 . S
H1719 C1731 0.929 . S
H1720 C1734 0.930 . S
H1721 C1736 0.960 . S
H1722 C1736 0.960 . S
H1723 C1736 0.960 . S
C1724 H1716 0.929 . S
C1724 C1725 1.377 . S
C1724 C1726 1.384 . S
C1725 C1724 1.377 . S
C1725 C1731 1.390 . S
C1726 H1717 0.930 . S
C1726 C1724 1.384 . S
C1726 C1727 1.372 . S
C1727 C1726 1.372 . S
C1727 C1728 1.400 . S
C1727 C1732 1.490 . S
C1728 H1718 0.930 . S
C1728 C1727 1.400 . S
C1728 C1731 1.386 . S
H1729 C1745 0.930 . S
H1730 C1746 0.931 . S
C1731 H1719 0.929 . S
C1731 C1725 1.390 . S
C1731 C1728 1.386 . S
C1732 C1727 1.490 . S
C1732 C1734 1.395 . S
C1732 C1735 1.403 . S
H1733 C1739 0.934 . S
C1734 H1720 0.930 . S
C1734 C1732 1.395 . S
C1734 C1737 1.403 1_556 S
C1735 C1732 1.403 . S
C1735 C1736 1.524 . S
C1735 C1739 1.400 . S
C1736 H1721 0.960 . S
C1736 H1722 0.960 . S
C1736 H1723 0.960 . S
C1736 C1735 1.524 . S
C1737 C1734 1.403 1_554 S
C1737 C1738 1.392 . S
C1737 C1741 1.495 . S
C1738 C1737 1.392 . S
C1738 C1739 1.385 1_554 S
C1738 C1740 1.478 . S
C1739 H1733 0.934 . S
C1739 C1735 1.400 . S
C1739 C1738 1.385 1_556 S
C1740 C1738 1.478 . S
C1740 C1742 1.381 . S
C1740 C1746 1.383 . S
C1741 C1737 1.495 . S
C1741 H1747 0.959 . S
C1741 H1748 0.961 . S
C1741 H1749 0.960 . S
C1742 C1740 1.381 . S
C1742 C1743 1.394 . S
C1742 H1750 0.930 . S
C1743 C1742 1.394 . S
C1743 C1744 1.383 . S
C1743 H1751 0.929 . S
C1744 C1743 1.383 . S
C1744 C1745 1.377 . S
C1745 H1729 0.930 . S
C1745 C1744 1.377 . S
C1745 C1746 1.379 . S
C1746 H1730 0.931 . S
C1746 C1740 1.383 . S
C1746 C1745 1.379 . S
H1747 C1741 0.959 . S
H1748 C1741 0.961 . S
H1749 C1741 0.960 . S
H1750 C1742 0.930 . S
H1751 C1743 0.929 . S
H1752 C1760 0.929 . S
H1753 C1762 0.930 . S
H1754 C1764 0.930 . S
H1755 C1767 0.929 . S
H1756 C1770 0.930 . S
H1757 C1772 0.960 . S
H1758 C1772 0.960 . S
H1759 C1772 0.960 . S
C1760 H1752 0.929 . S
C1760 C1761 1.377 . S
C1760 C1762 1.384 . S
C1761 C1760 1.377 . S
C1761 C1767 1.390 . S
C1762 H1753 0.930 . S
C1762 C1760 1.384 . S
C1762 C1763 1.372 . S
C1763 C1762 1.372 . S
C1763 C1764 1.400 . S
C1763 C1768 1.490 . S
C1764 H1754 0.930 . S
C1764 C1763 1.400 . S
C1764 C1767 1.386 . S
H1765 C1781 0.930 . S
H1766 C1782 0.931 . S
C1767 H1755 0.929 . S
C1767 C1761 1.390 . S
C1767 C1764 1.386 . S
C1768 C1763 1.490 . S
C1768 C1770 1.395 . S
C1768 C1771 1.403 . S
H1769 C1775 0.930 . S
C1770 H1756 0.930 . S
C1770 C1768 1.395 . S
C1770 C1773 1.403 . S
C1771 C1768 1.403 . S
C1771 C1772 1.524 . S
C1771 C1775 1.400 . S
C1772 H1757 0.960 . S
C1772 H1758 0.960 . S
C1772 H1759 0.960 . S
C1772 C1771 1.524 . S
C1773 C1770 1.403 . S
C1773 C1774 1.392 . S
C1773 C1777 1.495 . S
C1774 C1773 1.392 . S
C1774 C1775 1.385 . S
C1774 C1776 1.478 . S
C1775 H1769 0.930 . S
C1775 C1771 1.400 . S
C1775 C1774 1.385 . S
C1776 C1774 1.478 . S
C1776 C1778 1.381 . S
C1776 C1782 1.383 . S
C1777 C1773 1.495 . S
C1777 H1783 0.959 . S
C1777 H1784 0.961 . S
C1777 H1785 0.960 . S
C1778 C1776 1.381 . S
C1778 C1779 1.394 . S
C1778 H1786 0.930 . S
C1779 C1778 1.394 . S
C1779 C1780 1.383 . S
C1779 H1787 0.929 . S
C1780 C1779 1.383 . S
C1780 C1781 1.377 . S
C1781 H1765 0.930 . S
C1781 C1780 1.377 . S
C1781 C1782 1.379 . S
C1782 H1766 0.931 . S
C1782 C1776 1.383 . S
C1782 C1781 1.379 . S
H1783 C1777 0.959 . S
H1784 C1777 0.961 . S
H1785 C1777 0.960 . S
H1786 C1778 0.930 . S
H1787 C1779 0.929 . S
H1788 C1796 0.929 . S
H1789 C1798 0.930 . S
H1790 C1800 0.930 . S
H1791 C1803 0.929 . S
H1792 C1806 0.930 . S
H1793 C1808 0.960 . S
H1794 C1808 0.960 . S
H1795 C1808 0.960 . S
C1796 H1788 0.929 . S
C1796 C1797 1.377 . S
C1796 C1798 1.384 . S
C1797 C1796 1.377 . S
C1797 C1803 1.390 . S
C1798 H1789 0.930 . S
C1798 C1796 1.384 . S
C1798 C1799 1.372 . S
C1799 C1798 1.372 . S
C1799 C1800 1.400 . S
C1799 C1804 1.490 . S
C1800 H1790 0.930 . S
C1800 C1799 1.400 . S
C1800 C1803 1.386 . S
H1801 C1817 0.930 . S
H1802 C1818 0.931 . S
C1803 H1791 0.929 . S
C1803 C1797 1.390 . S
C1803 C1800 1.386 . S
C1804 C1799 1.490 . S
C1804 C1806 1.395 . S
C1804 C1807 1.403 . S
H1805 C1811 0.930 . S
C1806 H1792 0.930 . S
C1806 C1804 1.395 . S
C1806 C1809 1.403 . S
C1807 C1804 1.403 . S
C1807 C1808 1.524 . S
C1807 C1811 1.400 . S
C1808 H1793 0.960 . S
C1808 H1794 0.960 . S
C1808 H1795 0.960 . S
C1808 C1807 1.524 . S
C1809 C1806 1.403 . S
C1809 C1810 1.392 . S
C1809 C1813 1.495 . S
C1810 C1809 1.392 . S
C1810 C1811 1.385 . S
C1810 C1812 1.478 . S
C1811 H1805 0.930 . S
C1811 C1807 1.400 . S
C1811 C1810 1.385 . S
C1812 C1810 1.478 . S
C1812 C1814 1.381 . S
C1812 C1818 1.383 . S
C1813 C1809 1.495 . S
C1813 H1819 0.959 . S
C1813 H1820 0.961 . S
C1813 H1821 0.960 . S
C1814 C1812 1.381 . S
C1814 C1815 1.394 . S
C1814 H1822 0.930 . S
C1815 C1814 1.394 . S
C1815 C1816 1.383 . S
C1815 H1823 0.929 . S
C1816 C1815 1.383 . S
C1816 C1817 1.377 . S
C1817 H1801 0.930 . S
C1817 C1816 1.377 . S
C1817 C1818 1.379 . S
C1818 H1802 0.931 . S
C1818 C1812 1.383 . S
C1818 C1817 1.379 . S
H1819 C1813 0.959 . S
H1820 C1813 0.961 . S
H1821 C1813 0.960 . S
H1822 C1814 0.930 . S
H1823 C1815 0.929 . S
H1824 C1832 0.929 . S
H1825 C1834 0.930 . S
H1826 C1836 0.930 . S
H1827 C1839 0.929 . S
H1828 C1842 0.930 . S
H1829 C1844 0.960 . S
H1830 C1844 0.960 . S
H1831 C1844 0.960 . S
C1832 H1824 0.929 . S
C1832 C1833 1.377 . S
C1832 C1834 1.384 . S
C1833 C1832 1.377 . S
C1833 C1839 1.390 . S
C1834 H1825 0.930 . S
C1834 C1832 1.384 . S
C1834 C1835 1.372 . S
C1835 C1834 1.372 . S
C1835 C1836 1.400 . S
C1835 C1840 1.490 . S
C1836 H1826 0.930 . S
C1836 C1835 1.400 . S
C1836 C1839 1.386 . S
H1837 C1853 0.930 . S
H1838 C1854 0.931 . S
C1839 H1827 0.929 . S
C1839 C1833 1.390 . S
C1839 C1836 1.386 . S
C1840 C1835 1.490 . S
C1840 C1842 1.395 . S
C1840 C1843 1.403 . S
H1841 C1847 0.930 . S
C1842 H1828 0.930 . S
C1842 C1840 1.395 . S
C1842 C1845 1.403 . S
C1843 C1840 1.403 . S
C1843 C1844 1.524 . S
C1843 C1847 1.400 . S
C1844 H1829 0.960 . S
C1844 H1830 0.960 . S
C1844 H1831 0.960 . S
C1844 C1843 1.524 . S
C1845 C1842 1.403 . S
C1845 C1846 1.392 . S
C1845 C1849 1.495 . S
C1846 C1845 1.392 . S
C1846 C1847 1.385 . S
C1846 C1848 1.478 . S
C1847 H1841 0.930 . S
C1847 C1843 1.400 . S
C1847 C1846 1.385 . S
C1848 C1846 1.478 . S
C1848 C1850 1.381 . S
C1848 C1854 1.383 . S
C1849 C1845 1.495 . S
C1849 H1855 0.959 . S
C1849 H1856 0.961 . S
C1849 H1857 0.960 . S
C1850 C1848 1.381 . S
C1850 C1851 1.394 . S
C1850 H1858 0.930 . S
C1851 C1850 1.394 . S
C1851 C1852 1.383 . S
C1851 H1859 0.929 . S
C1852 C1851 1.383 . S
C1852 C1853 1.377 . S
C1853 H1837 0.930 . S
C1853 C1852 1.377 . S
C1853 C1854 1.379 . S
C1854 H1838 0.931 . S
C1854 C1848 1.383 . S
C1854 C1853 1.379 . S
H1855 C1849 0.959 . S
H1856 C1849 0.961 . S
H1857 C1849 0.960 . S
H1858 C1850 0.930 . S
H1859 C1851 0.929 . S
H1860 C1868 0.929 . S
H1861 C1870 0.930 . S
H1862 C1872 0.930 . S
H1863 C1875 0.929 . S
H1864 C1878 0.930 . S
H1865 C1880 0.960 . S
H1866 C1880 0.960 . S
H1867 C1880 0.960 . S
C1868 H1860 0.929 . S
C1868 C1869 1.377 . S
C1868 C1870 1.384 . S
C1869 C1868 1.377 . S
C1869 C1875 1.390 . S
C1870 H1861 0.930 . S
C1870 C1868 1.384 . S
C1870 C1871 1.372 . S
C1871 C1870 1.372 . S
C1871 C1872 1.400 . S
C1871 C1876 1.490 . S
C1872 H1862 0.930 . S
C1872 C1871 1.400 . S
C1872 C1875 1.386 . S
H1873 C1889 0.930 . S
H1874 C1890 0.931 . S
C1875 H1863 0.929 . S
C1875 C1869 1.390 . S
C1875 C1872 1.386 . S
C1876 C1871 1.490 . S
C1876 C1878 1.395 . S
C1876 C1879 1.403 1_556 S
H1877 C1883 0.930 . S
C1878 H1864 0.930 . S
C1878 C1876 1.395 . S
C1878 C1881 1.403 . S
C1879 C1876 1.403 1_554 S
C1879 C1880 1.524 . S
C1879 C1883 1.400 . S
C1880 H1865 0.960 . S
C1880 H1866 0.960 . S
C1880 H1867 0.960 . S
C1880 C1879 1.524 . S
C1881 C1878 1.403 . S
C1881 C1882 1.392 1_556 S
C1881 C1885 1.495 . S
C1882 C1881 1.392 1_554 S
C1882 C1883 1.385 . S
C1882 C1884 1.478 . S
C1883 H1877 0.930 . S
C1883 C1879 1.400 . S
C1883 C1882 1.385 . S
C1884 C1882 1.478 . S
C1884 C1886 1.381 . S
C1884 C1890 1.383 . S
C1885 C1881 1.495 . S
C1885 H1891 0.959 . S
C1885 H1892 0.961 . S
C1885 H1893 0.960 . S
C1886 C1884 1.381 . S
C1886 C1887 1.394 . S
C1886 H1894 0.930 . S
C1887 C1886 1.394 . S
C1887 C1888 1.383 . S
C1887 H1895 0.929 . S
C1888 C1887 1.383 . S
C1888 C1889 1.377 . S
C1889 H1873 0.930 . S
C1889 C1888 1.377 . S
C1889 C1890 1.379 . S
C1890 H1874 0.931 . S
C1890 C1884 1.383 . S
C1890 C1889 1.379 . S
H1891 C1885 0.959 . S
H1892 C1885 0.961 . S
H1893 C1885 0.960 . S
H1894 C1886 0.930 . S
H1895 C1887 0.929 . S
H1896 C1904 0.929 . S
H1897 C1906 0.930 . S
H1898 C1908 0.930 . S
H1899 C1911 0.929 . S
H1900 C1914 0.930 . S
H1901 C1916 0.960 . S
H1902 C1916 0.960 . S
H1903 C1916 0.960 . S
C1904 H1896 0.929 . S
C1904 C1905 1.377 . S
C1904 C1906 1.384 . S
C1905 C1904 1.377 . S
C1905 C1911 1.390 . S
C1906 H1897 0.930 . S
C1906 C1904 1.384 . S
C1906 C1907 1.372 . S
C1907 C1906 1.372 . S
C1907 C1908 1.400 . S
C1907 C1912 1.490 . S
C1908 H1898 0.930 . S
C1908 C1907 1.400 . S
C1908 C1911 1.386 . S
H1909 C1925 0.930 . S
H1910 C1926 0.931 . S
C1911 H1899 0.929 . S
C1911 C1905 1.390 . S
C1911 C1908 1.386 . S
C1912 C1907 1.490 . S
C1912 C1914 1.395 . S
C1912 C1915 1.403 . S
H1913 C1919 0.930 . S
C1914 H1900 0.930 . S
C1914 C1912 1.395 . S
C1914 C1917 1.403 . S
C1915 C1912 1.403 . S
C1915 C1916 1.524 . S
C1915 C1919 1.400 . S
C1916 H1901 0.960 . S
C1916 H1902 0.960 . S
C1916 H1903 0.960 . S
C1916 C1915 1.524 . S
C1917 C1914 1.403 . S
C1917 C1918 1.392 . S
C1917 C1921 1.495 . S
C1918 C1917 1.392 . S
C1918 C1919 1.385 . S
C1918 C1920 1.478 . S
C1919 H1913 0.930 . S
C1919 C1915 1.400 . S
C1919 C1918 1.385 . S
C1920 C1918 1.478 . S
C1920 C1922 1.381 . S
C1920 C1926 1.383 . S
C1921 C1917 1.495 . S
C1921 H1927 0.959 . S
C1921 H1928 0.961 . S
C1921 H1929 0.960 . S
C1922 C1920 1.381 . S
C1922 C1923 1.394 . S
C1922 H1930 0.930 . S
C1923 C1922 1.394 . S
C1923 C1924 1.383 . S
C1923 H1931 0.929 . S
C1924 C1923 1.383 . S
C1924 C1925 1.377 . S
C1925 H1909 0.930 . S
C1925 C1924 1.377 . S
C1925 C1926 1.379 . S
C1926 H1910 0.931 . S
C1926 C1920 1.383 . S
C1926 C1925 1.379 . S
H1927 C1921 0.959 . S
H1928 C1921 0.961 . S
H1929 C1921 0.960 . S
H1930 C1922 0.930 . S
H1931 C1923 0.929 . S
H1932 C1940 0.929 . S
H1933 C1942 0.930 . S
H1934 C1944 0.930 . S
H1935 C1947 0.929 . S
H1936 C1950 0.930 . S
H1937 C1952 0.960 . S
H1938 C1952 0.960 . S
H1939 C1952 0.960 . S
C1940 H1932 0.929 . S
C1940 C1941 1.377 . S
C1940 C1942 1.384 . S
C1941 C1940 1.377 . S
C1941 C1947 1.390 . S
C1942 H1933 0.930 . S
C1942 C1940 1.384 . S
C1942 C1943 1.372 . S
C1943 C1942 1.372 . S
C1943 C1944 1.400 . S
C1943 C1948 1.490 . S
C1944 H1934 0.930 . S
C1944 C1943 1.400 . S
C1944 C1947 1.386 . S
H1945 C1961 0.930 . S
H1946 C1962 0.931 . S
C1947 H1935 0.929 . S
C1947 C1941 1.390 . S
C1947 C1944 1.386 . S
C1948 C1943 1.490 . S
C1948 C1950 1.395 . S
C1948 C1951 1.403 . S
H1949 C1955 0.930 . S
C1950 H1936 0.930 . S
C1950 C1948 1.395 . S
C1950 C1953 1.403 . S
C1951 C1948 1.403 . S
C1951 C1952 1.524 . S
C1951 C1955 1.400 . S
C1952 H1937 0.960 . S
C1952 H1938 0.960 . S
C1952 H1939 0.960 . S
C1952 C1951 1.524 . S
C1953 C1950 1.403 . S
C1953 C1954 1.392 . S
C1953 C1957 1.495 . S
C1954 C1953 1.392 . S
C1954 C1955 1.385 . S
C1954 C1956 1.478 . S
C1955 H1949 0.930 . S
C1955 C1951 1.400 . S
C1955 C1954 1.385 . S
C1956 C1954 1.478 . S
C1956 C1958 1.381 . S
C1956 C1962 1.383 . S
C1957 C1953 1.495 . S
C1957 H1963 0.959 . S
C1957 H1964 0.961 . S
C1957 H1965 0.960 . S
C1958 C1956 1.381 . S
C1958 C1959 1.394 . S
C1958 H1966 0.930 . S
C1959 C1958 1.394 . S
C1959 C1960 1.383 . S
C1959 H1967 0.929 . S
C1960 C1959 1.383 . S
C1960 C1961 1.377 . S
C1961 H1945 0.930 . S
C1961 C1960 1.377 . S
C1961 C1962 1.379 . S
C1962 H1946 0.931 . S
C1962 C1956 1.383 . S
C1962 C1961 1.379 . S
H1963 C1957 0.959 . S
H1964 C1957 0.961 . S
H1965 C1957 0.960 . S
H1966 C1958 0.930 . S
H1967 C1959 0.929 . S
C537 N5 1.562 . S
C556 N509 1.553 . S
C573 N278 2.341 . S
C592 N38 2.351 . S
C609 N410 1.927 . S
C628 N71 1.945 . S
C645 N113 2.456 . S
C664 N344 2.460 . S
C681 N368 2.323 . S
C700 N47 2.339 . S
C717 N80 2.128 . S
C736 N311 2.134 . S
C753 N104 2.244 . S
C772 N434 2.225 . S
C789 N14 1.538 . S
C808 N236 1.535 . S
C825 N269 2.411 . S
C844 N146 2.406 . S
C861 N401 1.934 . S
C880 N179 1.938 . S
C897 N203 2.295 . S
C916 N335 2.278 . S
C933 N212 2.340 . S
C952 N443 2.319 . S
C969 N137 2.259 . S
C988 N377 2.244 . S
C1005 N476 1.578 . S
C1024 N245 1.568 . S
C1041 N302 2.032 . S
C1060 N170 2.045 . S
C1077 N500 1.482 . S
C1096 N467 1.502 . S
C1113 C17 0.515 . S
C1132 C61 0.507 . S
C1149 C41 0.969 . S
C1168 C74 0.976 . S
C1185 C83 0.873 . S
C1204 C107 0.885 . S
C1221 C127 1.281 . S
C1240 C8 1.270 . S
C1257 C28 0.490 . S
C1276 C193 0.478 . S
C1293 C149 0.548 . S
C1312 C116 0.560 . S
C1329 C215 0.114 . S
C1348 C50 0.072 . S
C1365 C490 0.430 . S
C1384 C94 0.449 . S
C1401 C281 0.600 . S
C1420 C239 0.585 . S
C1437 C292 1.141 . S
C1456 C305 1.137 . S
C1473 C325 0.987 . S
C1492 C338 0.997 . S
C1509 C347 0.293 . S
C1528 C259 0.330 . S
C1545 C413 0.234 . S
C1564 C248 0.226 . S
C1581 C371 0.954 . S
C1600 C358 0.955 . S
C1617 C272 1.043 . S
C1636 C457 1.031 . S
C1653 C512 0.553 . S
C1672 C314 0.572 . S
C1689 C160 1.054 . S
C1708 C470 1.037 . S
C1725 C140 1.175 . S
C1744 C173 1.164 . S
C1761 C182 0.606 . S
C1780 C206 0.610 . S
C1797 C479 0.691 . S
C1816 C226 0.708 . S
C1833 C380 0.388 . S
C1852 C503 0.394 . S
C1869 C424 1.023 . S
C1888 C391 1.009 . S
C1905 C404 0.955 . S
C1924 C437 0.948 . S
C1941 C523 0.183 . S
C1960 C446 0.175 . S
