# Generated by pormake.
# Topology uoa, (4)-cn, num edge types: 1
# Building blocks:
#     Node 0, Type 0, BuildingBlock: NAWXER_clean_sbu_0, # of connection points: 4
#     Node 1, Type 0, BuildingBlock: NAWXER_clean_sbu_0, # of connection points: 4
#     Node 2, Type 0, BuildingBlock: NAWXER_clean_sbu_0, # of connection points: 4
#     Node 3, Type 0, BuildingBlock: NAWXER_clean_sbu_0, # of connection points: 4
#     Node 4, Type 0, BuildingBlock: NAWXER_clean_sbu_0, # of connection points: 4
#     Node 5, Type 0, BuildingBlock: NAWXER_clean_sbu_0, # of connection points: 4
#     Node 6, Type 0, BuildingBlock: NAWXER_clean_sbu_0, # of connection points: 4
#     Node 7, Type 0, BuildingBlock: NAWXER_clean_sbu_0, # of connection points: 4
#     Node 8, Type 0, BuildingBlock: NAWXER_clean_sbu_0, # of connection points: 4
#     Node 9, Type 0, BuildingBlock: NAWXER_clean_sbu_0, # of connection points: 4
#     Node 10, Type 0, BuildingBlock: NAWXER_clean_sbu_0, # of connection points: 4
#     Node 11, Type 0, BuildingBlock: NAWXER_clean_sbu_0, # of connection points: 4
#     Node 12, Type 0, BuildingBlock: NAWXER_clean_sbu_0, # of connection points: 4
#     Node 13, Type 0, BuildingBlock: NAWXER_clean_sbu_0, # of connection points: 4
#     Node 14, Type 0, BuildingBlock: NAWXER_clean_sbu_0, # of connection points: 4
#     Node 15, Type 0, BuildingBlock: NAWXER_clean_sbu_0, # of connection points: 4
#     Node 16, Type 0, BuildingBlock: NAWXER_clean_sbu_0, # of connection points: 4
#     Node 17, Type 0, BuildingBlock: NAWXER_clean_sbu_0, # of connection points: 4
#     Node 18, Type 0, BuildingBlock: NAWXER_clean_sbu_0, # of connection points: 4
#     Node 19, Type 0, BuildingBlock: NAWXER_clean_sbu_0, # of connection points: 4
#     Node 20, Type 0, BuildingBlock: NAWXER_clean_sbu_0, # of connection points: 4
#     Node 21, Type 0, BuildingBlock: NAWXER_clean_sbu_0, # of connection points: 4
#     Node 22, Type 0, BuildingBlock: NAWXER_clean_sbu_0, # of connection points: 4
#     Node 23, Type 0, BuildingBlock: NAWXER_clean_sbu_0, # of connection points: 4
#     Node 24, Type 0, BuildingBlock: NAWXER_clean_sbu_0, # of connection points: 4
#     Node 25, Type 0, BuildingBlock: NAWXER_clean_sbu_0, # of connection points: 4
#     Node 26, Type 0, BuildingBlock: NAWXER_clean_sbu_0, # of connection points: 4
#     Node 27, Type 0, BuildingBlock: NAWXER_clean_sbu_0, # of connection points: 4
#     Node 28, Type 0, BuildingBlock: NAWXER_clean_sbu_0, # of connection points: 4
#     Node 29, Type 0, BuildingBlock: NAWXER_clean_sbu_0, # of connection points: 4
#     Node 30, Type 0, BuildingBlock: NAWXER_clean_sbu_0, # of connection points: 4
#     Node 31, Type 0, BuildingBlock: NAWXER_clean_sbu_0, # of connection points: 4
#     Edge 32, Type (0, 0), BuildingBlock: EZIPEK_clean_linker_0, # of connection points: 2
#     Edge 33, Type (0, 0), BuildingBlock: EZIPEK_clean_linker_0, # of connection points: 2
#     Edge 34, Type (0, 0), BuildingBlock: EZIPEK_clean_linker_0, # of connection points: 2
#     Edge 35, Type (0, 0), BuildingBlock: EZIPEK_clean_linker_0, # of connection points: 2
#     Edge 36, Type (0, 0), BuildingBlock: EZIPEK_clean_linker_0, # of connection points: 2
#     Edge 37, Type (0, 0), BuildingBlock: EZIPEK_clean_linker_0, # of connection points: 2
#     Edge 38, Type (0, 0), BuildingBlock: EZIPEK_clean_linker_0, # of connection points: 2
#     Edge 39, Type (0, 0), BuildingBlock: EZIPEK_clean_linker_0, # of connection points: 2
#     Edge 40, Type (0, 0), BuildingBlock: EZIPEK_clean_linker_0, # of connection points: 2
#     Edge 41, Type (0, 0), BuildingBlock: EZIPEK_clean_linker_0, # of connection points: 2
#     Edge 42, Type (0, 0), BuildingBlock: EZIPEK_clean_linker_0, # of connection points: 2
#     Edge 43, Type (0, 0), BuildingBlock: EZIPEK_clean_linker_0, # of connection points: 2
#     Edge 44, Type (0, 0), BuildingBlock: EZIPEK_clean_linker_0, # of connection points: 2
#     Edge 45, Type (0, 0), BuildingBlock: EZIPEK_clean_linker_0, # of connection points: 2
#     Edge 46, Type (0, 0), BuildingBlock: EZIPEK_clean_linker_0, # of connection points: 2
#     Edge 47, Type (0, 0), BuildingBlock: EZIPEK_clean_linker_0, # of connection points: 2
#     Edge 48, Type (0, 0), BuildingBlock: EZIPEK_clean_linker_0, # of connection points: 2
#     Edge 49, Type (0, 0), BuildingBlock: EZIPEK_clean_linker_0, # of connection points: 2
#     Edge 50, Type (0, 0), BuildingBlock: EZIPEK_clean_linker_0, # of connection points: 2
#     Edge 51, Type (0, 0), BuildingBlock: EZIPEK_clean_linker_0, # of connection points: 2
#     Edge 52, Type (0, 0), BuildingBlock: EZIPEK_clean_linker_0, # of connection points: 2
#     Edge 53, Type (0, 0), BuildingBlock: EZIPEK_clean_linker_0, # of connection points: 2
#     Edge 54, Type (0, 0), BuildingBlock: EZIPEK_clean_linker_0, # of connection points: 2
#     Edge 55, Type (0, 0), BuildingBlock: EZIPEK_clean_linker_0, # of connection points: 2
#     Edge 56, Type (0, 0), BuildingBlock: EZIPEK_clean_linker_0, # of connection points: 2
#     Edge 57, Type (0, 0), BuildingBlock: EZIPEK_clean_linker_0, # of connection points: 2
#     Edge 58, Type (0, 0), BuildingBlock: EZIPEK_clean_linker_0, # of connection points: 2
#     Edge 59, Type (0, 0), BuildingBlock: EZIPEK_clean_linker_0, # of connection points: 2
#     Edge 60, Type (0, 0), BuildingBlock: EZIPEK_clean_linker_0, # of connection points: 2
#     Edge 61, Type (0, 0), BuildingBlock: EZIPEK_clean_linker_0, # of connection points: 2
#     Edge 62, Type (0, 0), BuildingBlock: EZIPEK_clean_linker_0, # of connection points: 2
#     Edge 63, Type (0, 0), BuildingBlock: EZIPEK_clean_linker_0, # of connection points: 2
#     Edge 64, Type (0, 0), BuildingBlock: EZIPEK_clean_linker_0, # of connection points: 2
#     Edge 65, Type (0, 0), BuildingBlock: EZIPEK_clean_linker_0, # of connection points: 2
#     Edge 66, Type (0, 0), BuildingBlock: EZIPEK_clean_linker_0, # of connection points: 2
#     Edge 67, Type (0, 0), BuildingBlock: EZIPEK_clean_linker_0, # of connection points: 2
#     Edge 68, Type (0, 0), BuildingBlock: EZIPEK_clean_linker_0, # of connection points: 2
#     Edge 69, Type (0, 0), BuildingBlock: EZIPEK_clean_linker_0, # of connection points: 2
#     Edge 70, Type (0, 0), BuildingBlock: EZIPEK_clean_linker_0, # of connection points: 2
#     Edge 71, Type (0, 0), BuildingBlock: EZIPEK_clean_linker_0, # of connection points: 2
#     Edge 72, Type (0, 0), BuildingBlock: EZIPEK_clean_linker_0, # of connection points: 2
#     Edge 73, Type (0, 0), BuildingBlock: EZIPEK_clean_linker_0, # of connection points: 2
#     Edge 74, Type (0, 0), BuildingBlock: EZIPEK_clean_linker_0, # of connection points: 2
#     Edge 75, Type (0, 0), BuildingBlock: EZIPEK_clean_linker_0, # of connection points: 2
#     Edge 76, Type (0, 0), BuildingBlock: EZIPEK_clean_linker_0, # of connection points: 2
#     Edge 77, Type (0, 0), BuildingBlock: EZIPEK_clean_linker_0, # of connection points: 2
#     Edge 78, Type (0, 0), BuildingBlock: EZIPEK_clean_linker_0, # of connection points: 2
#     Edge 79, Type (0, 0), BuildingBlock: EZIPEK_clean_linker_0, # of connection points: 2
#     Edge 80, Type (0, 0), BuildingBlock: EZIPEK_clean_linker_0, # of connection points: 2
#     Edge 81, Type (0, 0), BuildingBlock: EZIPEK_clean_linker_0, # of connection points: 2
#     Edge 82, Type (0, 0), BuildingBlock: EZIPEK_clean_linker_0, # of connection points: 2
#     Edge 83, Type (0, 0), BuildingBlock: EZIPEK_clean_linker_0, # of connection points: 2
#     Edge 84, Type (0, 0), BuildingBlock: EZIPEK_clean_linker_0, # of connection points: 2
#     Edge 85, Type (0, 0), BuildingBlock: EZIPEK_clean_linker_0, # of connection points: 2
#     Edge 86, Type (0, 0), BuildingBlock: EZIPEK_clean_linker_0, # of connection points: 2
#     Edge 87, Type (0, 0), BuildingBlock: EZIPEK_clean_linker_0, # of connection points: 2
#     Edge 88, Type (0, 0), BuildingBlock: EZIPEK_clean_linker_0, # of connection points: 2
#     Edge 89, Type (0, 0), BuildingBlock: EZIPEK_clean_linker_0, # of connection points: 2
#     Edge 90, Type (0, 0), BuildingBlock: EZIPEK_clean_linker_0, # of connection points: 2
#     Edge 91, Type (0, 0), BuildingBlock: EZIPEK_clean_linker_0, # of connection points: 2
#     Edge 92, Type (0, 0), BuildingBlock: EZIPEK_clean_linker_0, # of connection points: 2
#     Edge 93, Type (0, 0), BuildingBlock: EZIPEK_clean_linker_0, # of connection points: 2
#     Edge 94, Type (0, 0), BuildingBlock: EZIPEK_clean_linker_0, # of connection points: 2
#     Edge 95, Type (0, 0), BuildingBlock: EZIPEK_clean_linker_0, # of connection points: 2
# Relax obj value: 0.037
# Max RMSD: 0.224
# Mean RMSD: 0.224
data_MOF--net-uoa--node1-NAWXER_clean_sbu_0--edge1-EZIPEK_clean_linker_0
_symmetry_space_group_name_H-M    P1
_symmetry_Int_Tables_number       1
_symmetry_cell_setting            triclinic
loop_
_symmetry_equiv_pos_as_xyz
'x, y, z'
_cell_length_a     55.381155
_cell_length_b     55.332252
_cell_length_c     21.076779
_cell_angle_alpha  89.952913
_cell_angle_beta   90.007805
_cell_angle_gamma 90.088631
loop_
_atom_site_label
_atom_site_type_symbol
_atom_site_fract_x
_atom_site_fract_y
_atom_site_fract_z
_atom_type_partial_charge
C0 C 0.01525 0.10207 0.94341 0.0
C1 C -0.0033 0.09859 0.17139 0.0
O2 O 0.03156 0.09118 0.97546 0.0
Zn3 Zn 0.03673 0.07985 0.07138 0.0
O4 O -0.00265 0.11119 0.97254 0.0
Zn5 Zn 0.00523 0.10067 0.05825 0.0
O6 O 0.03728 0.12046 0.08556 0.0
O7 O 0.06699 0.09386 0.09377 0.0
O8 O 0.98415 0.10888 0.12859 0.0
O9 O 0.0159 0.08701 0.15614 0.0
O10 O 0.03566 0.04553 0.0627 0.0
O11 O -0.00011 0.06239 0.05058 0.0
C12 C 0.05935 0.1154 0.09869 0.0
C13 C 0.01328 0.04354 0.0509 0.0
C14 C 0.1985 0.76417 0.30155 0.0
C15 C 0.1268 0.80957 0.35593 0.0
O16 O 0.17969 0.75064 0.30171 0.0
Zn17 Zn 0.14191 0.75497 0.32246 0.0
O18 O 0.19669 0.78635 0.31597 0.0
Zn19 Zn 0.16243 0.78694 0.32791 0.0
O20 O 0.15716 0.76842 0.4165 0.0
O21 O 0.13675 0.73496 0.39667 0.0
O22 O 0.14802 0.81752 0.34654 0.0
O23 O 0.12199 0.7871 0.34802 0.0
O24 O 0.12747 0.74551 0.24338 0.0
O25 O 0.14868 0.77875 0.23467 0.0
C26 C 0.14678 0.74911 0.43622 0.0
C27 C 0.13513 0.76273 0.20886 0.0
C28 C 0.49701 0.89324 0.69073 0.0
C29 C 0.48388 0.89178 0.46137 0.0
O30 O 0.4771 0.90363 0.67582 0.0
Zn31 Zn 0.45798 0.91187 0.58851 0.0
O32 O 0.51077 0.88531 0.64738 0.0
Zn33 Zn 0.49016 0.89273 0.57607 0.0
O34 O 0.49283 0.93166 0.56512 0.0
O35 O 0.45666 0.9464 0.58664 0.0
O36 O 0.50047 0.88167 0.49332 0.0
O37 O 0.46706 0.90337 0.49022 0.0
O38 O 0.42779 0.896 0.60201 0.0
O39 O 0.45864 0.87082 0.59598 0.0
C40 C 0.47838 0.94969 0.56969 0.0
C41 C 0.43608 0.87469 0.60539 0.0
C42 C 0.28692 0.22814 0.80383 0.0
C43 C 0.36251 0.18594 0.83749 0.0
O44 O 0.30499 0.24262 0.80118 0.0
Zn45 Zn 0.34363 0.23989 0.81141 0.0
O46 O 0.29005 0.206 0.81714 0.0
Zn47 Zn 0.32454 0.20733 0.8236 0.0
O48 O 0.33112 0.22636 0.91061 0.0
O49 O 0.35176 0.25904 0.88581 0.0
O50 O 0.34113 0.17767 0.84016 0.0
O51 O 0.36591 0.20838 0.82537 0.0
O52 O 0.35395 0.25045 0.72814 0.0
O53 O 0.33515 0.21559 0.72694 0.0
C54 C 0.34254 0.24539 0.92789 0.0
C55 C 0.34635 0.2323 0.69679 0.0
C56 C 0.05759 0.87764 0.45256 0.0
C57 C 0.01275 0.95041 0.49239 0.0
O58 O 0.03537 0.87256 0.46331 0.0
Zn59 Zn 0.00334 0.89281 0.48772 0.0
O60 O 0.06503 0.89923 0.45708 0.0
Zn61 Zn 0.03454 0.91357 0.47443 0.0
O62 O 0.02697 0.90438 0.57244 0.0
O63 O 0.99454 0.88118 0.57094 0.0
O64 O 0.03471 0.94793 0.47687 0.0
O65 O -0.00108 0.93181 0.4971 0.0
O66 O 0.98233 0.8842 0.41819 0.0
O67 O 0.01429 0.90546 0.38887 0.0
C68 C 0.01097 0.89193 0.60202 0.0
C69 C 0.99496 0.89384 0.37471 0.0
C70 C 0.34827 0.75137 0.80685 0.0
C71 C 0.34381 0.74399 0.57668 0.0
O72 O 0.33753 0.76946 0.78119 0.0
Zn73 Zn 0.32819 0.78105 0.68553 0.0
O74 O 0.357 0.7347 0.7724 0.0
Zn75 Zn 0.34632 0.7479 0.69271 0.0
O76 O 0.36973 0.77871 0.68234 0.0
O77 O 0.34597 0.81039 0.67352 0.0
O78 O 0.35286 0.72955 0.61692 0.0
O79 O 0.33334 0.76325 0.59602 0.0
O80 O 0.29382 0.78382 0.69318 0.0
O81 O 0.30746 0.74657 0.70614 0.0
C82 C 0.36706 0.80147 0.67375 0.0
C83 C 0.28997 0.76178 0.70665 0.0
C84 C 0.4785 0.09561 0.0533 0.0
C85 C 0.49214 0.09524 0.82336 0.0
O86 O 0.46186 0.08401 0.02366 0.0
Zn87 Zn 0.45317 0.0758 0.92495 0.0
O88 O 0.49511 0.10604 0.02196 0.0
Zn89 Zn 0.48519 0.09523 0.93838 0.0
O90 O 0.45352 0.11679 0.91822 0.0
O91 O 0.42286 0.09129 0.91178 0.0
O92 O 0.50583 0.10311 0.86705 0.0
O93 O 0.47229 0.08463 0.83799 0.0
O94 O 0.45217 0.04131 0.92532 0.0
O95 O 0.4881 0.05635 0.94853 0.0
C96 C 0.431 0.11269 0.90855 0.0
C97 C 0.47383 0.03817 0.94296 0.0
C98 C 0.14238 0.24792 0.10924 0.0
C99 C 0.13862 0.23572 0.33947 0.0
O100 O 0.15531 0.23034 0.12925 0.0
Zn101 Zn 0.16111 0.21105 0.21595 0.0
O102 O 0.13026 0.26026 0.14895 0.0
Zn103 Zn 0.13969 0.24242 0.2242 0.0
O104 O 0.17803 0.24836 0.23063 0.0
O105 O 0.19539 0.21248 0.22632 0.0
O106 O 0.12968 0.25304 0.30747 0.0
O107 O 0.14938 0.21853 0.31045 0.0
O108 O 0.14653 0.1806 0.19578 0.0
O109 O 0.11977 0.20973 0.208 0.0
C110 C 0.19705 0.23523 0.23322 0.0
C111 C 0.12473 0.1877 0.19492 0.0
C112 C 0.98212 0.88882 0.10273 0.0
C113 C -0.001 0.89312 0.87442 0.0
O114 O 0.00023 0.8806 0.07264 0.0
Zn115 Zn 0.99089 0.89014 0.98738 0.0
O116 O 0.9649 0.89851 0.07135 0.0
Zn117 Zn 0.95845 0.90943 0.97564 0.0
O118 O 0.92885 0.894 0.95496 0.0
O119 O 0.95956 0.86852 0.9624 0.0
O120 O 0.97928 0.90365 0.89036 0.0
O121 O 0.01209 0.88317 0.91658 0.0
O122 O 0.99431 0.92867 0.99511 0.0
O123 O 0.95769 0.94379 0.9846 0.0
C124 C 0.93721 0.87274 0.95054 0.0
C125 C 0.98002 0.94684 0.99553 0.0
C126 C 0.86044 0.24188 0.84135 0.0
C127 C 0.85548 0.25693 0.61387 0.0
O128 O 0.86993 0.25884 0.80939 0.0
Zn129 Zn 0.8591 0.2484 0.72636 0.0
O130 O 0.84926 0.22476 0.81266 0.0
Zn131 Zn 0.8412 0.21544 0.7151 0.0
O132 O 0.85833 0.18653 0.69794 0.0
O133 O 0.88232 0.21841 0.70169 0.0
O134 O 0.84583 0.23664 0.62915 0.0
O135 O 0.865 0.27017 0.65626 0.0
O136 O 0.81958 0.24891 0.73514 0.0
O137 O 0.80722 0.21134 0.71801 0.0
C138 C 0.8791 0.19575 0.69187 0.0
C139 C 0.80251 0.2332 0.73077 0.0
C140 C 0.48883 0.09108 0.32716 0.0
C141 C 0.50648 0.10389 0.55359 0.0
O142 O 0.47524 0.10067 0.36868 0.0
Zn143 Zn 0.49681 0.09645 0.44067 0.0
O144 O 0.50886 0.08139 0.34421 0.0
Zn145 Zn 0.52961 0.07775 0.43097 0.0
O146 O 0.53187 0.04371 0.44676 0.0
O147 O 0.49525 0.05832 0.46313 0.0
O148 O 0.52264 0.09145 0.52498 0.0
O149 O 0.48815 0.11057 0.52176 0.0
O150 O 0.52724 0.11806 0.41001 0.0
O151 O 0.5589 0.09378 0.40759 0.0
C152 C 0.51021 0.04064 0.46449 0.0
C153 C 0.54974 0.11454 0.3989 0.0
C154 C 0.62836 0.80723 0.17113 0.0
C155 C 0.70386 0.7644 0.20025 0.0
O156 O 0.64977 0.81543 0.16878 0.0
Zn157 Zn 0.66644 0.78537 0.18048 0.0
O158 O 0.62493 0.78464 0.18071 0.0
Zn159 Zn 0.64692 0.75293 0.18966 0.0
O160 O 0.63626 0.74059 0.27034 0.0
O161 O 0.65718 0.77465 0.27692 0.0
O162 O 0.68568 0.75 0.20137 0.0
O163 O 0.70098 0.7865 0.18588 0.0
O164 O 0.65959 0.76773 0.09178 0.0
O165 O 0.63867 0.73498 0.11397 0.0
C166 C 0.64584 0.75715 0.30373 0.0
C167 C 0.64794 0.74905 0.07307 0.0
C168 C 0.94364 0.12379 0.59659 0.0
C169 C 0.97971 0.04608 0.55705 0.0
O170 O 0.93376 0.10314 0.59412 0.0
Zn171 Zn 0.96208 0.08511 0.57429 0.0
O172 O 0.96611 0.12624 0.5836 0.0
Zn173 Zn 0.99532 0.10239 0.55842 0.0
O174 O 0.00445 0.1122 0.47357 0.0
O175 O 0.96963 0.09279 0.47551 0.0
O176 O 0.99535 0.06314 0.55141 0.0
O177 O 0.95814 0.05086 0.57284 0.0
O178 O 0.98404 0.09097 0.65795 0.0
O179 O 0.0177 0.109 0.62702 0.0
C180 C 0.98662 0.10311 0.44415 0.0
C181 C 0.00451 0.10058 0.67116 0.0
C182 C 0.64481 0.24218 0.40258 0.0
C183 C 0.64127 0.23237 0.1735 0.0
O184 O 0.6365 0.25658 0.36115 0.0
Zn185 Zn 0.64201 0.23651 0.28781 0.0
O186 O 0.6533 0.22165 0.38552 0.0
Zn187 Zn 0.65764 0.20225 0.29758 0.0
O188 O 0.69182 0.1968 0.29482 0.0
O189 O 0.6812 0.23496 0.27994 0.0
O190 O 0.65049 0.21376 0.20062 0.0
O191 O 0.63335 0.24977 0.20668 0.0
O192 O 0.6163 0.20755 0.29997 0.0
O193 O 0.6378 0.1744 0.30995 0.0
C194 C 0.69756 0.21859 0.28345 0.0
C195 C 0.61735 0.18467 0.30898 0.0
C196 C 0.4951 0.89658 0.1876 0.0
C197 C 0.5115 0.88537 0.9601 0.0
O198 O 0.48181 0.88612 0.14681 0.0
Zn199 Zn 0.50209 0.89199 0.07286 0.0
O200 O 0.51418 0.90773 0.16922 0.0
Zn201 Zn 0.53305 0.91397 0.08148 0.0
O202 O 0.53113 0.94814 0.06697 0.0
O203 O 0.49661 0.92933 0.04875 0.0
O204 O 0.52654 0.8995 0.98776 0.0
O205 O 0.49405 0.87699 0.99269 0.0
O206 O 0.53509 0.87355 0.09809 0.0
O207 O 0.56418 0.90103 0.10116 0.0
C208 C 0.50935 0.94869 0.04839 0.0
C209 C 0.55728 0.87925 0.1074 0.0
C210 C 0.84556 0.74689 0.94112 0.0
C211 C 0.8504 0.75737 0.71244 0.0
O212 O 0.85377 0.73196 0.90077 0.0
Zn213 Zn 0.84807 0.75193 0.82694 0.0
O214 O 0.83586 0.76664 0.92229 0.0
Zn215 Zn 0.82922 0.78488 0.83432 0.0
O216 O 0.79474 0.78625 0.83003 0.0
O217 O 0.8094 0.74969 0.81332 0.0
O218 O 0.83881 0.77462 0.73916 0.0
O219 O 0.85991 0.74084 0.74592 0.0
O220 O 0.87016 0.78314 0.8482 0.0
O221 O 0.8457 0.81473 0.84766 0.0
C222 C 0.7914 0.76425 0.81548 0.0
C223 C 0.86663 0.80589 0.85513 0.0
C224 C 0.5031 0.60233 0.44605 0.0
C225 C 0.49663 0.59761 0.67605 0.0
O226 O 0.52118 0.59139 0.47104 0.0
Zn227 Zn 0.53318 0.58195 0.566 0.0
O228 O 0.48679 0.61136 0.48109 0.0
Zn229 Zn 0.50025 0.60055 0.56037 0.0
O230 O 0.53135 0.62347 0.5707 0.0
O231 O 0.56273 0.59925 0.57766 0.0
O232 O 0.48226 0.60717 0.63647 0.0
O233 O 0.51567 0.58692 0.65604 0.0
O234 O 0.53562 0.54767 0.55769 0.0
O235 O 0.49837 0.56168 0.54788 0.0
C236 C 0.55407 0.62046 0.57868 0.0
C237 C 0.5134 0.54406 0.54619 0.0
C238 C 0.6295 0.30473 0.82107 0.0
C239 C 0.70542 0.26459 0.78249 0.0
O240 O 0.62617 0.28215 0.80982 0.0
Zn241 Zn 0.64926 0.25137 0.78799 0.0
O242 O 0.65051 0.31384 0.81855 0.0
Zn243 Zn 0.66694 0.2847 0.79959 0.0
O244 O 0.65582 0.27742 0.70364 0.0
O245 O 0.63986 0.24118 0.70423 0.0
O246 O 0.70154 0.28674 0.79367 0.0
O247 O 0.68778 0.24964 0.7801 0.0
O248 O 0.64269 0.23018 0.85926 0.0
O249 O 0.66017 0.26462 0.8856 0.0
C250 C 0.64648 0.25974 0.67318 0.0
C251 C 0.6505 0.24445 0.90184 0.0
C252 C 0.972 0.38937 0.94285 0.0
C253 C 0.9913 0.38729 0.17108 0.0
O254 O 0.95791 0.40253 0.97635 0.0
Zn255 Zn 0.95522 0.41413 0.07373 0.0
O256 O 0.98825 0.37714 0.97088 0.0
Zn257 Zn 0.98246 0.38847 0.05701 0.0
O258 O 0.94721 0.3742 0.08223 0.0
O259 O 0.92285 0.40556 0.0953 0.0
O260 O 0.00188 0.37605 0.12647 0.0
O261 O 0.97418 0.40207 0.15809 0.0
O262 O 0.96231 0.44797 0.06632 0.0
O263 O 0.99422 0.4253 0.04786 0.0
C264 C 0.92644 0.38291 0.09658 0.0
C265 C 0.98432 0.44618 0.05034 0.0
C266 C 0.84585 0.74821 0.44014 0.0
C267 C 0.8536 0.73793 0.21293 0.0
O268 O 0.83586 0.72855 0.42127 0.0
Zn269 Zn 0.83097 0.70985 0.33241 0.0
O270 O 0.85505 0.76272 0.4002 0.0
Zn271 Zn 0.84961 0.74293 0.32664 0.0
O272 O 0.81085 0.74456 0.3097 0.0
O273 O 0.79669 0.70741 0.32123 0.0
O274 O 0.86228 0.75466 0.24724 0.0
O275 O 0.84193 0.72044 0.23839 0.0
O276 O 0.8476 0.68026 0.34731 0.0
O277 O 0.8719 0.712 0.34766 0.0
C278 C 0.79324 0.72946 0.30748 0.0
C279 C 0.8685 0.68922 0.35436 0.0
C280 C 0.51486 0.3873 0.05411 0.0
C281 C 0.4996 0.39649 0.827 0.0
O282 O 0.53152 0.39941 0.02621 0.0
Zn283 Zn 0.5396 0.4114 0.93096 0.0
O284 O 0.49696 0.38037 0.02113 0.0
Zn285 Zn 0.50681 0.3927 0.93997 0.0
O286 O 0.53759 0.37062 0.91567 0.0
O287 O 0.56904 0.39529 0.9113 0.0
O288 O 0.48592 0.38682 0.86822 0.0
O289 O 0.51943 0.4066 0.84407 0.0
O290 O 0.54177 0.44563 0.94065 0.0
O291 O 0.5048 0.43134 0.95459 0.0
C292 C 0.56014 0.37428 0.90565 0.0
C293 C 0.5197 0.44911 0.95361 0.0
C294 C 0.84992 0.25103 0.11411 0.0
C295 C 0.84981 0.26826 0.34278 0.0
O296 O 0.83603 0.26854 0.13014 0.0
Zn297 Zn 0.82459 0.2869 0.21534 0.0
O298 O 0.86063 0.23894 0.15709 0.0
Zn299 Zn 0.84936 0.25836 0.22827 0.0
O300 O 0.81219 0.24758 0.23506 0.0
O301 O 0.7905 0.28052 0.22137 0.0
O302 O 0.86102 0.25167 0.31333 0.0
O303 O 0.8366 0.28296 0.31132 0.0
O304 O 0.83431 0.31913 0.19516 0.0
O305 O 0.86476 0.29336 0.20408 0.0
C306 C 0.7916 0.25804 0.2328 0.0
C307 C 0.85676 0.31465 0.19201 0.0
C308 C 0.93609 0.61661 0.42846 0.0
C309 C 0.96794 0.53594 0.45053 0.0
O310 O 0.95921 0.61723 0.43248 0.0
Zn311 Zn 0.98755 0.59065 0.44523 0.0
O312 O 0.92487 0.59673 0.43389 0.0
Zn313 Zn 0.95242 0.57646 0.44016 0.0
O314 O 0.9656 0.58259 0.53531 0.0
O315 O 0.00183 0.59899 0.52561 0.0
O316 O 0.94635 0.54243 0.43991 0.0
O317 O 0.98481 0.55181 0.45335 0.0
O318 O 0.0068 0.59494 0.36964 0.0
O319 O 0.96969 0.58251 0.35013 0.0
C320 C 0.98486 0.59115 0.56056 0.0
C321 C 0.99039 0.58952 0.32999 0.0
C322 C 0.64942 0.74716 0.5769 0.0
C323 C 0.63626 0.73446 0.80406 0.0
O324 O 0.65905 0.72755 0.59702 0.0
Zn325 Zn 0.66349 0.7092 0.68618 0.0
O326 O 0.63976 0.76165 0.6161 0.0
Zn327 Zn 0.64384 0.74171 0.6909 0.0
O328 O 0.6814 0.74507 0.71438 0.0
O329 O 0.6977 0.70908 0.70019 0.0
O330 O 0.62921 0.75176 0.76901 0.0
O331 O 0.6494 0.71795 0.77893 0.0
O332 O 0.64834 0.67893 0.66746 0.0
O333 O 0.6232 0.71001 0.66618 0.0
C334 C 0.69985 0.73113 0.71576 0.0
C335 C 0.62731 0.6874 0.65844 0.0
C336 C 0.48966 0.39459 0.55446 0.0
C337 C 0.49949 0.39732 0.32381 0.0
O338 O 0.50693 0.38592 0.5219 0.0
Zn339 Zn 0.49477 0.39592 0.4403 0.0
O340 O 0.47187 0.40501 0.5266 0.0
Zn341 Zn 0.46155 0.41375 0.42954 0.0
O342 O 0.43246 0.39582 0.41712 0.0
O343 O 0.46417 0.3723 0.42955 0.0
O344 O 0.47995 0.40764 0.3416 0.0
O345 O 0.51381 0.38893 0.36534 0.0
O346 O 0.49568 0.43477 0.4519 0.0
O347 O 0.45869 0.44817 0.43373 0.0
C348 C 0.4415 0.37477 0.41963 0.0
C349 C 0.48045 0.45221 0.44944 0.0
C350 C 0.29015 0.72743 0.21324 0.0
C351 C 0.36022 0.67875 0.16515 0.0
O352 O 0.29127 0.70516 0.1994 0.0
Zn353 Zn 0.32547 0.70329 0.18867 0.0
O354 O 0.30941 0.74032 0.21324 0.0
Zn355 Zn 0.34712 0.73436 0.19358 0.0
O356 O 0.35349 0.75367 0.11889 0.0
O357 O 0.33189 0.72096 0.09934 0.0
O358 O 0.36597 0.70107 0.17201 0.0
O359 O 0.33849 0.67197 0.17244 0.0
O360 O 0.3391 0.71173 0.28231 0.0
O361 O 0.36148 0.74415 0.27216 0.0
C362 C 0.34305 0.73982 0.07943 0.0
C363 C 0.35309 0.72755 0.30751 0.0
C364 C 0.05528 0.61622 0.91845 0.0
C365 C 0.0205 0.53834 0.96766 0.0
O366 O 0.06571 0.59626 0.92925 0.0
Zn367 Zn 0.03728 0.57747 0.9437 0.0
O368 O 0.03227 0.61786 0.92344 0.0
Zn369 Zn 0.00304 0.59342 0.94537 0.0
O370 O 0.98927 0.60598 0.0221 0.0
O371 O 0.02446 0.58807 0.0368 0.0
O372 O 0.00413 0.55472 0.96484 0.0
O373 O 0.04233 0.54356 0.95565 0.0
O374 O 0.01919 0.57955 0.85269 0.0
O375 O 0.98356 0.59619 0.8705 0.0
C376 C 0.00568 0.59857 0.05927 0.0
C377 C -0.00112 0.58746 0.83213 0.0
C378 C 0.12126 0.31165 0.69086 0.0
C379 C 0.1936 0.26559 0.73343 0.0
O380 O 0.14271 0.31929 0.69753 0.0
Zn381 Zn 0.15739 0.28853 0.71396 0.0
O382 O 0.11637 0.28928 0.69946 0.0
Zn383 Zn 0.13603 0.2573 0.7231 0.0
O384 O 0.12335 0.24805 0.80399 0.0
O385 O 0.14759 0.27963 0.81001 0.0
O386 O 0.1747 0.25213 0.7353 0.0
O387 O 0.1918 0.28793 0.72051 0.0
O388 O 0.15067 0.26879 0.62704 0.0
O389 O 0.1282 0.23704 0.6522 0.0
C390 C 0.13465 0.26346 0.83729 0.0
C391 C 0.13899 0.24973 0.61075 0.0
C392 C 0.49154 0.5941 0.17387 0.0
C393 C 0.48081 0.60439 0.94561 0.0
O394 O 0.50571 0.6044 0.13491 0.0
Zn395 Zn 0.4873 0.59765 0.05916 0.0
O396 O 0.4731 0.58252 0.15299 0.0
Zn397 Zn 0.45679 0.57517 0.06207 0.0
O398 O 0.45992 0.54099 0.04971 0.0
O399 O 0.49462 0.56027 0.03901 0.0
O400 O 0.46526 0.58982 0.96966 0.0
O401 O 0.49717 0.61278 0.98164 0.0
O402 O 0.45324 0.61543 0.07907 0.0
O403 O 0.42494 0.58709 0.07631 0.0
C404 C 0.48229 0.54067 0.03713 0.0
C405 C 0.43105 0.60901 0.0843 0.0
C406 C 0.14422 0.7477 0.9393 0.0
C407 C 0.14084 0.73956 0.70908 0.0
O408 O 0.13556 0.76217 0.89852 0.0
Zn409 Zn 0.14244 0.74365 0.82309 0.0
O410 O 0.15469 0.72834 0.92063 0.0
Zn411 Zn 0.16045 0.71042 0.83166 0.0
O412 O 0.19488 0.70769 0.82502 0.0
O413 O 0.18129 0.74487 0.81056 0.0
O414 O 0.15143 0.72159 0.73563 0.0
O415 O 0.1321 0.75649 0.74265 0.0
O416 O 0.11897 0.7129 0.83309 0.0
O417 O 0.14255 0.68116 0.84338 0.0
C418 C 0.19878 0.72967 0.81094 0.0
C419 C 0.12149 0.69016 0.84207 0.0
C420 C 0.04736 0.37485 0.59473 0.0
C421 C -0.00364 0.44118 0.53283 0.0
O422 O 0.05293 0.39688 0.58694 0.0
Zn423 Zn 0.02145 0.4076 0.56463 0.0
O424 O 0.02573 0.3675 0.58424 0.0
Zn425 Zn 0.99201 0.38393 0.55476 0.0
O426 O 0.9857 0.36863 0.47327 0.0
O427 O 0.01667 0.39313 0.47029 0.0
O428 O 0.98448 0.42127 0.53163 0.0
O429 O 0.01818 0.44135 0.55102 0.0
O430 O 0.00174 0.40111 0.65109 0.0
O431 O 0.97127 0.37703 0.62764 0.0
C432 C 0.00279 0.37815 0.44155 0.0
C433 C 0.98315 0.38899 0.66865 0.0
C434 C 0.35428 0.26176 0.19735 0.0
C435 C 0.34414 0.2484 0.42577 0.0
O436 O 0.36073 0.24402 0.23159 0.0
Zn437 Zn 0.34834 0.25474 0.31184 0.0
O438 O 0.34259 0.27896 0.22414 0.0
Zn439 Zn 0.33075 0.28805 0.31923 0.0
O440 O 0.34751 0.31735 0.33691 0.0
O441 O 0.37111 0.28513 0.33565 0.0
O442 O 0.33513 0.26869 0.40831 0.0
O443 O 0.35296 0.23416 0.38467 0.0
O444 O 0.30999 0.25352 0.29579 0.0
O445 O 0.29668 0.29082 0.30913 0.0
C446 C 0.36818 0.30788 0.3442 0.0
C447 C 0.29266 0.26884 0.29586 0.0
C448 C 0.0223 0.0827 0.76923 0.0
C449 C 0.01184 0.10278 0.73853 0.0
C450 C 0.01057 0.1245 0.83994 0.0
C451 C 0.01656 0.10279 0.87245 0.0
N452 N 0.02625 0.0599 0.86601 0.0
N453 N 0.99519 0.14293 0.7436 0.0
C454 C 0.0223 0.08158 0.83665 0.0
C455 C 0.00587 0.12381 0.77352 0.0
N456 N 0.03247 0.06473 0.73375 0.0
N457 N 0.01033 0.14595 0.87203 0.0
H458 H 0.99246 0.14347 0.69463 0.0
H459 H 0.98767 0.1575 0.76775 0.0
H460 H 0.01499 0.14733 0.91986 0.0
H461 H 0.00819 0.16264 0.84988 0.0
H462 H 0.04262 0.05072 0.75319 0.0
H463 H 0.03291 0.06528 0.68426 0.0
H464 H 0.02716 0.04358 0.84155 0.0
H465 H 0.02656 0.05743 0.9148 0.0
C466 C 0.1269 0.73589 0.04564 0.0
C467 C 0.14058 0.7524 1.00817 0.0
C468 C 0.14266 0.78019 0.0989 0.0
C469 C 0.1317 0.76233 0.13797 0.0
N470 N 0.10166 0.73085 0.13829 0.0
N471 N 0.16389 0.78916 1.00107 0.0
C472 C 0.1204 0.74229 0.10857 0.0
C473 C 0.14887 0.77441 0.03513 0.0
N474 N 0.12044 0.7138 0.02214 0.0
N475 N 0.14504 0.8033 0.12079 0.0
H476 H 0.16937 0.78526 0.95486 0.0
H477 H 0.17279 0.80398 0.02062 0.0
H478 H 0.13736 0.80891 0.16345 0.0
H479 H 0.15117 0.81762 0.09302 0.0
H480 H 0.11316 0.70011 0.05024 0.0
H481 H 0.12404 0.70823 0.97606 0.0
H482 H 0.09129 0.71739 0.11699 0.0
H483 H 0.09399 0.73748 0.17995 0.0
C484 C 0.49011 0.9166 0.2936 0.0
C485 C 0.4897 0.89513 0.25686 0.0
C486 C 0.48226 0.87155 0.35414 0.0
C487 C 0.48552 0.89273 0.39096 0.0
N488 N 0.49847 0.93434 0.39585 0.0
N489 N 0.49004 0.8514 0.25427 0.0
C490 C 0.49098 0.915 0.36074 0.0
C491 C 0.48683 0.87234 0.28755 0.0
N492 N 0.48913 0.93865 0.26449 0.0
N493 N 0.47459 0.85072 0.38263 0.0
H494 H 0.49432 0.85097 0.20616 0.0
H495 H 0.49076 0.83444 0.27565 0.0
H496 H 0.47161 0.84941 0.43138 0.0
H497 H 0.46933 0.83542 0.35736 0.0
H498 H 0.48688 0.95479 0.28921 0.0
H499 H 0.48805 0.94059 0.21543 0.0
H500 H 0.50515 0.95021 0.37578 0.0
H501 H 0.50043 0.93361 0.44493 0.0
C502 C 0.32943 0.22592 0.52176 0.0
C503 C 0.34597 0.24239 0.49422 0.0
C504 C 0.36717 0.24602 0.59621 0.0
C505 C 0.34908 0.23157 0.62553 0.0
N506 N 0.32143 0.19815 0.60752 0.0
N507 N 0.3801 0.2692 0.50455 0.0
C508 C 0.33252 0.21868 0.58611 0.0
C509 C 0.3648 0.25264 0.53119 0.0
N510 N 0.31023 0.21776 0.48701 0.0
N511 N 0.38775 0.25143 0.62911 0.0
H512 H 0.37978 0.27359 0.45647 0.0
H513 H 0.39206 0.2798 0.53063 0.0
H514 H 0.39131 0.24428 0.67394 0.0
H515 H 0.40263 0.26016 0.60939 0.0
H516 H 0.2958 0.2083 0.50679 0.0
H517 H 0.30761 0.2223 0.43944 0.0
H518 H 0.31041 0.18736 0.57922 0.0
H519 H 0.32631 0.18938 0.64917 0.0
C520 C 0.00777 0.87012 0.77349 0.0
C521 C 0.00573 0.89249 0.80626 0.0
C522 C 0.00623 0.9142 0.70504 0.0
C523 C 0.0102 0.8921 0.67247 0.0
N524 N 0.01944 0.84959 0.6765 0.0
N525 N 0.00895 0.93593 0.80442 0.0
C526 C 0.01245 0.87021 0.70701 0.0
C527 C 0.0069 0.91457 0.77231 0.0
N528 N 0.00383 0.84884 0.8048 0.0
N529 N 0.00022 0.93459 0.67206 0.0
H530 H 0.00999 0.93682 0.85381 0.0
H531 H 0.01215 0.95242 0.782 0.0
H532 H -0.0017 0.93486 0.62293 0.0
H533 H 0.99468 0.95055 0.6938 0.0
H534 H 0.0023 0.83226 0.78179 0.0
H535 H 2e-05 0.84788 0.85316 0.0
H536 H 0.02379 0.83365 0.70021 0.0
H537 H 0.02301 0.84905 0.62791 0.0
C538 C 0.3685 0.75189 0.91368 0.0
C539 C 0.34747 0.74848 0.87656 0.0
C540 C 0.32332 0.74337 0.97283 0.0
C541 C 0.34465 0.7443 0.01005 0.0
N542 N 0.38835 0.74395 0.01382 0.0
N543 N 0.30613 0.7349 0.87002 0.0
C544 C 0.36753 0.7472 0.98006 0.0
C545 C 0.32521 0.74254 0.90589 0.0
N546 N 0.3893 0.75986 0.88574 0.0
N547 N 0.30115 0.74393 1.0012 0.0
H548 H 0.3071 0.73305 0.82096 0.0
H549 H 0.29024 0.728 0.88941 0.0
H550 H 0.29891 0.74475 0.05015 0.0
H551 H 0.28509 0.74599 0.97597 0.0
H552 H 0.40447 0.76516 0.91147 0.0
H553 H 0.39071 0.763 0.83705 0.0
H554 H 0.40536 0.74335 0.9928 0.0
H555 H 0.38862 0.73938 0.06178 0.0
C556 C 0.48277 0.07224 0.15516 0.0
C557 C 0.47961 0.09478 0.12395 0.0
C558 C 0.48206 0.11543 0.22698 0.0
C559 C 0.48295 0.09263 0.25825 0.0
N560 N 0.47798 0.04951 0.25248 0.0
N561 N 0.47201 0.13756 0.13099 0.0
C562 C 0.48139 0.07109 0.22234 0.0
C563 C 0.47795 0.11632 0.16016 0.0
N564 N 0.48864 0.05212 0.12108 0.0
N565 N 0.48644 0.13617 0.26024 0.0
H566 H 0.46904 0.13886 0.08223 0.0
H567 H 0.46802 0.15334 0.15573 0.0
H568 H 0.48975 0.13641 0.30891 0.0
H569 H 0.48876 0.15296 0.2387 0.0
H570 H 0.49352 0.03578 0.14205 0.0
H571 H 0.49115 0.05245 0.07214 0.0
H572 H 0.4746 0.03339 0.22849 0.0
H573 H 0.47575 0.04838 0.3015 0.0
C574 C 0.15752 0.23163 0.51429 0.0
C575 C 0.13762 0.24314 0.54309 0.0
C576 C 0.11635 0.24363 0.44131 0.0
C577 C 0.13782 0.23607 0.41025 0.0
N578 N 0.18043 0.22541 0.41874 0.0
N579 N 0.09878 0.26246 0.53416 0.0
C580 C 0.1588 0.23043 0.44707 0.0
C581 C 0.11716 0.24974 0.50673 0.0
N582 N 0.17517 0.22165 0.55133 0.0
N583 N 0.09493 0.24396 0.40907 0.0
H584 H 0.09846 0.26679 0.58233 0.0
H585 H 0.0848 0.27026 0.5082 0.0
H586 H 0.09331 0.23817 0.36218 0.0
H587 H 0.07838 0.24727 0.43085 0.0
H588 H 0.18882 0.21066 0.53343 0.0
H589 H 0.17482 0.22239 0.6008 0.0
H590 H 0.19665 0.2245 0.44366 0.0
H591 H 0.18308 0.22427 0.37012 0.0
C592 C 0.97435 0.90858 0.2767 0.0
C593 C 0.98831 0.89071 0.30721 0.0
C594 C 0.9915 0.86853 0.20696 0.0
C595 C 0.98172 0.88869 0.17386 0.0
N596 N 0.9662 0.92995 0.17968 0.0
N597 N 0.01194 0.85423 0.30141 0.0
C598 C 0.97344 0.90918 0.20928 0.0
C599 C -0.00264 0.87079 0.27239 0.0
N600 N 0.96186 0.925 0.31222 0.0
N601 N 0.99416 0.84687 0.17669 0.0
H602 H 0.01588 0.85474 0.34979 0.0
H603 H 0.02143 0.84102 0.27659 0.0
H604 H 0.98846 0.84401 0.13013 0.0
H605 H -0.00073 0.83106 0.19995 0.0
H606 H 0.94929 0.93693 0.29298 0.0
H607 H 0.96218 0.92496 0.36173 0.0
H608 H 0.96323 0.94608 0.20393 0.0
H609 H 0.96526 0.93233 0.13095 0.0
C610 C 0.87652 0.24179 0.0179 0.0
C611 C 0.85326 0.24582 0.04509 0.0
C612 C 0.83666 0.25133 0.93861 0.0
C613 C 0.85873 0.24383 0.91138 0.0
N614 N 0.89907 0.22859 0.92523 0.0
N615 N 0.81011 0.24691 0.02827 0.0
C616 C 0.87849 0.23788 0.9511 0.0
C617 C 0.833 0.24831 1.00445 0.0
N618 N 0.89687 0.2433 0.05433 0.0
N619 N 0.81953 0.26241 0.90234 0.0
H620 H 0.80668 0.2424 0.07548 0.0
H621 H 0.79479 0.24713 0.99951 0.0
H622 H 0.82184 0.26569 0.85399 0.0
H623 H 0.80417 0.27037 0.92184 0.0
H624 H 0.91422 0.24286 0.03531 0.0
H625 H 0.89664 0.2475 0.10244 0.0
H626 H 0.91313 0.22162 0.95252 0.0
H627 H 0.90121 0.22613 0.87645 0.0
C628 C 0.5179 0.08836 0.72663 0.0
C629 C 0.49805 0.10012 0.75565 0.0
C630 C 0.48976 0.12165 0.65568 0.0
C631 C 0.5074 0.10729 0.6247 0.0
N632 N 0.5464 0.0886 0.63983 0.0
N633 N 0.46531 0.12876 0.74931 0.0
C634 C 0.52396 0.09395 0.66265 0.0
C635 C 0.48412 0.11713 0.72065 0.0
N636 N 0.5304 0.07106 0.75922 0.0
N637 N 0.48019 0.14111 0.62465 0.0
H638 H 0.46184 0.12752 0.79776 0.0
H639 H 0.45239 0.13872 0.72478 0.0
H640 H 0.4866 0.14679 0.58055 0.0
H641 H 0.46852 0.15351 0.64542 0.0
H642 H 0.54305 0.05976 0.73789 0.0
H643 H 0.52668 0.06658 0.80631 0.0
H644 H 0.55975 0.0803 0.66693 0.0
H645 H 0.55307 0.09603 0.5979 0.0
C646 C 0.66984 0.74942 0.47096 0.0
C647 C 0.64843 0.75169 0.50744 0.0
C648 C 0.62545 0.75989 0.40998 0.0
C649 C 0.64638 0.75501 0.37365 0.0
N650 N 0.68712 0.73979 0.36886 0.0
N651 N 0.60477 0.75397 0.50991 0.0
C652 C 0.66822 0.74832 0.40392 0.0
C653 C 0.62589 0.7557 0.47662 0.0
N654 N 0.69186 0.74893 0.50018 0.0
N655 N 0.60525 0.76879 0.381 0.0
H656 H 0.60402 0.7499 0.55813 0.0
H657 H 0.58783 0.75418 0.48842 0.0
H658 H 0.60421 0.77162 0.33212 0.0
H659 H 0.59034 0.77518 0.40597 0.0
H660 H 0.70815 0.74991 0.47559 0.0
H661 H 0.69386 0.74998 0.5492 0.0
H662 H 0.70259 0.73228 0.38892 0.0
H663 H 0.68637 0.73796 0.31974 0.0
C664 C 0.98833 0.07957 0.34223 0.0
C665 C 0.98665 0.10223 0.37362 0.0
C666 C 0.99009 0.12306 0.27109 0.0
C667 C 0.99017 0.10032 0.23962 0.0
N668 N 0.98355 0.05732 0.24404 0.0
N669 N 0.98097 0.14531 0.36741 0.0
C670 C 0.98738 0.0787 0.27494 0.0
C671 C 0.98596 0.12393 0.33782 0.0
N672 N 0.99239 0.05897 0.37636 0.0
N673 N 0.99538 0.1437 0.23819 0.0
H674 H 0.97787 0.14654 0.41614 0.0
H675 H 0.97776 0.16136 0.34301 0.0
H676 H -0.00126 0.14394 0.18955 0.0
H677 H -0.00163 0.16032 0.25998 0.0
H678 H -0.00365 0.04236 0.35559 0.0
H679 H 0.99421 0.05888 0.42551 0.0
H680 H 0.97908 0.04131 0.26734 0.0
H681 H 0.98239 0.05613 0.19471 0.0
C682 C 0.66406 0.24547 0.07743 0.0
C683 C 0.64304 0.23494 0.10385 0.0
C684 C 0.62577 0.231 0.99731 0.0
C685 C 0.64815 0.23871 0.97063 0.0
N686 N 0.69061 0.24645 0.98676 0.0
N687 N 0.60525 0.21411 0.08908 0.0
C688 C 0.6679 0.24395 0.01121 0.0
C689 C 0.62436 0.22641 0.06377 0.0
N690 N 0.68012 0.25751 0.11516 0.0
N691 N 0.60548 0.22964 0.9606 0.0
H692 H 0.60335 0.21115 0.13775 0.0
H693 H 0.59237 0.2053 0.06141 0.0
H694 H 0.60518 0.23408 0.9126 0.0
H695 H 0.58834 0.22648 0.97926 0.0
H696 H 0.69445 0.26758 0.09691 0.0
H697 H 0.67799 0.25908 0.16415 0.0
H698 H 0.70593 0.24851 0.01498 0.0
H699 H 0.69438 0.2434 0.93896 0.0
C700 C 0.48964 0.87114 0.79329 0.0
C701 C 0.50297 0.88868 0.75842 0.0
C702 C 0.52866 0.89577 0.8513 0.0
C703 C 0.51254 0.88184 0.88915 0.0
N704 N 0.48674 0.84683 0.88894 0.0
N705 N 0.53443 0.91881 0.75468 0.0
C706 C 0.49548 0.86676 0.85816 0.0
C707 C 0.52245 0.90113 0.78735 0.0
N708 N 0.47121 0.85885 0.76462 0.0
N709 N 0.55089 0.90191 0.8743 0.0
H710 H 0.53056 0.92314 0.70758 0.0
H711 H 0.54677 0.93051 0.77593 0.0
H712 H 0.5577 0.89475 0.91641 0.0
H713 H 0.56401 0.91067 0.84732 0.0
H714 H 0.45868 0.84836 0.78915 0.0
H715 H 0.46761 0.8601 0.71623 0.0
H716 H 0.47554 0.834 0.86804 0.0
H717 H 0.49351 0.84126 0.93275 0.0
C718 C 0.82735 0.75211 0.61165 0.0
C719 C 0.84989 0.75533 0.64251 0.0
C720 C 0.87043 0.75359 0.53971 0.0
C721 C 0.84757 0.75303 0.50897 0.0
N722 N 0.80447 0.75789 0.5153 0.0
N723 N 0.89268 0.76291 0.63591 0.0
C724 C 0.82608 0.75417 0.5449 0.0
C725 C 0.87143 0.7572 0.60654 0.0
N726 N 0.80734 0.74572 0.64563 0.0
N727 N 0.89106 0.74951 0.50583 0.0
H728 H 0.89404 0.76545 0.68483 0.0
H729 H 0.90846 0.76703 0.61127 0.0
H730 H 0.89114 0.74657 0.45699 0.0
H731 H 0.90789 0.74708 0.52693 0.0
H732 H 0.79101 0.7409 0.62456 0.0
H733 H 0.80783 0.7426 0.6943 0.0
H734 H 0.78842 0.76098 0.53976 0.0
H735 H 0.80326 0.7607 0.46649 0.0
C736 C 0.49308 0.57576 0.28295 0.0
C737 C 0.49521 0.59648 0.24352 0.0
C738 C 0.50394 0.62128 0.33759 0.0
C739 C 0.49955 0.60095 0.37668 0.0
N740 N 0.48359 0.56057 0.38738 0.0
N741 N 0.49661 0.64016 0.23587 0.0
C742 C 0.49228 0.57868 0.34962 0.0
C743 C 0.49909 0.61963 0.2714 0.0
N744 N 0.49265 0.55314 0.25713 0.0
N745 N 0.51294 0.64205 0.36346 0.0
H746 H 0.49159 0.64003 0.18823 0.0
H747 H 0.49692 0.65746 0.25534 0.0
H748 H 0.51612 0.64399 0.412 0.0
H749 H 0.51898 0.65658 0.33623 0.0
H750 H 0.49386 0.53741 0.28418 0.0
H751 H 0.49354 0.55007 0.20857 0.0
H752 H 0.47581 0.54482 0.36956 0.0
H753 H 0.48177 0.56238 0.4363 0.0
C754 C 0.62737 0.23772 0.51175 0.0
C755 C 0.64431 0.24882 0.47071 0.0
C756 C 0.66163 0.27092 0.56101 0.0
C757 C 0.64401 0.26009 0.60213 0.0
N758 N 0.60447 0.24182 0.60852 0.0
N759 N 0.6742 0.27974 0.45296 0.0
C760 C 0.62513 0.24614 0.5749 0.0
C761 C 0.66023 0.26674 0.49428 0.0
N762 N 0.61365 0.21879 0.49107 0.0
N763 N 0.68044 0.28421 0.58452 0.0
H764 H 0.67493 0.27617 0.40442 0.0
H765 H 0.68373 0.29521 0.46598 0.0
H766 H 0.68199 0.2902 0.63089 0.0
H767 H 0.69565 0.28857 0.5578 0.0
H768 H 0.60267 0.20861 0.52112 0.0
H769 H 0.61507 0.21181 0.44539 0.0
H770 H 0.58937 0.23338 0.58897 0.0
H771 H 0.6013 0.24951 0.65294 0.0
C772 C 0.97737 0.36677 0.77234 0.0
C773 C 0.97634 0.38869 0.73726 0.0
C774 C 0.96813 0.41121 0.83602 0.0
C775 C 0.97038 0.38927 0.87159 0.0
N776 N 0.96844 0.34578 0.87057 0.0
N777 N 0.97174 0.43192 0.73475 0.0
C778 C 0.97248 0.36695 0.83874 0.0
C779 C 0.9716 0.41086 0.76886 0.0
N780 N 0.98478 0.34597 0.74329 0.0
N781 N 0.96215 0.43242 0.86542 0.0
H782 H 0.97231 0.43233 0.68544 0.0
H783 H 0.97259 0.44909 0.75468 0.0
H784 H 0.96162 0.43502 0.91407 0.0
H785 H 0.95635 0.44779 0.84146 0.0
H786 H 0.98901 0.33022 0.76795 0.0
H787 H 0.98883 0.3449 0.69509 0.0
H788 H 0.96719 0.32904 0.84826 0.0
H789 H 0.96346 0.34521 0.91828 0.0
C790 C 0.87247 0.73426 0.10486 0.0
C791 C 0.85264 0.74082 0.14346 0.0
C792 C 0.82756 0.74678 0.04958 0.0
C793 C 0.84791 0.74262 0.01027 0.0
N794 N 0.89125 0.73763 1.00157 0.0
N795 N 0.81358 0.75973 0.15237 0.0
C796 C 0.87083 0.73761 0.03802 0.0
C797 C 0.83083 0.74894 0.11578 0.0
N798 N 0.89279 0.72483 0.13195 0.0
N799 N 0.80493 0.74803 0.02396 0.0
H800 H 0.81582 0.76271 0.20079 0.0
H801 H 0.7983 0.76806 0.13359 0.0
H802 H 0.80167 0.74594 0.97566 0.0
H803 H 0.78927 0.7486 0.05131 0.0
H804 H 0.90675 0.71715 0.10575 0.0
H805 H 0.89491 0.72328 0.18096 0.0
H806 H 0.90858 0.73658 0.02055 0.0
H807 H 0.89119 0.74106 0.95298 0.0
C808 C 0.53219 0.39611 0.16409 0.0
C809 C 0.51465 0.3845 0.12529 0.0
C810 C 0.48831 0.37938 0.21774 0.0
C811 C 0.50447 0.39349 0.25506 0.0
N812 N 0.5406 0.41772 0.26178 0.0
N813 N 0.484 0.35363 0.12593 0.0
C814 C 0.52625 0.40229 0.22789 0.0
C815 C 0.49493 0.37278 0.1551 0.0
N816 N 0.55522 0.39908 0.14221 0.0
N817 N 0.46627 0.37268 0.24098 0.0
H818 H 0.49076 0.34606 0.08426 0.0
H819 H 0.47087 0.34294 0.14764 0.0
H820 H 0.46045 0.37651 0.28672 0.0
H821 H 0.45282 0.36501 0.21284 0.0
H822 H 0.5693 0.40581 0.16979 0.0
H823 H 0.5612 0.39123 0.10014 0.0
H824 H 0.55514 0.42704 0.24212 0.0
H825 H 0.53661 0.42307 0.30805 0.0
C826 C 0.83039 0.2718 0.45187 0.0
C827 C 0.85157 0.27014 0.41339 0.0
C828 C 0.87621 0.26381 0.50903 0.0
C829 C 0.85501 0.26476 0.54663 0.0
N830 N 0.81369 0.27715 0.55744 0.0
N831 N 0.89498 0.27263 0.40759 0.0
C832 C 0.83265 0.27115 0.51906 0.0
C833 C 0.87463 0.26858 0.44275 0.0
N834 N 0.80794 0.27272 0.42502 0.0
N835 N 0.89773 0.25761 0.53623 0.0
H836 H 0.89438 0.27731 0.35965 0.0
H837 H 0.9122 0.27395 0.42713 0.0
H838 H 0.89976 0.25496 0.58495 0.0
H839 H 0.91319 0.2536 0.51021 0.0
H840 H 0.79206 0.27027 0.45073 0.0
H841 H 0.80477 0.27431 0.37667 0.0
H842 H 0.7976 0.28451 0.54071 0.0
H843 H 0.81495 0.27708 0.60686 0.0
C844 C 0.99459 0.61108 0.73136 0.0
C845 C 0.99433 0.58842 0.76307 0.0
C846 C 0.98973 0.56754 0.66142 0.0
C847 C 0.98792 0.59028 0.63031 0.0
N848 N 0.98458 0.63364 0.63624 0.0
N849 N 0.98791 0.54537 0.7607 0.0
C850 C 0.98922 0.61207 0.66545 0.0
C851 C 0.99081 0.56671 0.72877 0.0
N852 N 0.00096 0.63156 0.76364 0.0
N853 N 0.99156 0.54681 0.62651 0.0
H854 H 0.98866 0.54415 0.81007 0.0
H855 H 0.98274 0.5293 0.73888 0.0
H856 H 0.99137 0.5467 0.57711 0.0
H857 H 0.99541 0.52997 0.64608 0.0
H858 H 0.00419 0.6481 0.74157 0.0
H859 H 0.00502 0.63166 0.81195 0.0
H860 H 0.98264 0.64987 0.66069 0.0
H861 H 0.98059 0.63504 0.58799 0.0
C862 C 0.64944 0.72182 0.97738 0.0
C863 C 0.64374 0.74469 1.00412 0.0
C864 C 0.6241 0.75647 0.90423 0.0
C865 C 0.633 0.73529 0.87492 0.0
N866 N 0.64239 0.69333 0.89198 0.0
N867 N 0.62842 0.78542 0.98857 0.0
C868 C 0.64233 0.71656 0.91389 0.0
C869 C 0.63187 0.76249 0.96639 0.0
N870 N 0.66303 0.70571 0.01117 0.0
N871 N 0.60637 0.76961 0.87531 0.0
H872 H 0.63312 0.79109 0.03385 0.0
H873 H 0.62261 0.79957 0.95973 0.0
H874 H 0.59761 0.76358 0.83447 0.0
H875 H 0.59764 0.78411 0.89691 0.0
H876 H 0.6701 0.68994 0.99174 0.0
H877 H 0.66935 0.70923 0.05686 0.0
H878 H 0.64713 0.67849 0.91965 0.0
H879 H 0.63425 0.68854 0.84914 0.0
C880 C 0.4943 0.37285 0.72582 0.0
C881 C 0.49367 0.39529 0.75857 0.0
C882 C 0.49211 0.41694 0.65762 0.0
C883 C 0.49089 0.39459 0.62474 0.0
N884 N 0.48627 0.35128 0.62779 0.0
N885 N 0.48562 0.43799 0.75675 0.0
C886 C 0.49061 0.3725 0.65894 0.0
C887 C 0.49057 0.41713 0.72471 0.0
N888 N 0.49952 0.35204 0.75796 0.0
N889 N 0.4962 0.43792 0.62515 0.0
H890 H 0.48344 0.43837 0.80592 0.0
H891 H 0.48106 0.45412 0.73422 0.0
H892 H 0.49871 0.43841 0.57623 0.0
H893 H 0.49965 0.45439 0.64736 0.0
H894 H 0.50306 0.33567 0.7355 0.0
H895 H 0.50219 0.35146 0.80691 0.0
H896 H 0.48335 0.33491 0.65101 0.0
H897 H 0.48352 0.35039 0.57887 0.0
C898 C 0.3453 0.71084 0.41811 0.0
C899 C 0.35622 0.72853 0.37844 0.0
C900 C 0.36015 0.75582 0.46928 0.0
C901 C 0.34693 0.73925 0.50765 0.0
N902 N 0.32422 0.70218 0.5164 0.0
N903 N 0.38587 0.76042 0.37759 0.0
C904 C 0.339 0.71693 0.48164 0.0
C905 C 0.36709 0.74898 0.40707 0.0
N906 N 0.34309 0.68761 0.39701 0.0
N907 N 0.36575 0.77839 0.49111 0.0
H908 H 0.39403 0.75348 0.33693 0.0
H909 H 0.39588 0.77421 0.39865 0.0
H910 H 0.36161 0.78449 0.53639 0.0
H911 H 0.37275 0.79193 0.46202 0.0
H912 H 0.33703 0.67338 0.42518 0.0
H913 H 0.3508 0.68186 0.3545 0.0
H914 H 0.31558 0.68706 0.49765 0.0
H915 H 0.31861 0.70636 0.56234 0.0
C916 C 0.98733 0.57769 0.15224 0.0
C917 C 0.00095 0.59738 0.12817 0.0
C918 C 0.00499 0.61365 0.2356 0.0
C919 C 0.99448 0.59214 0.26056 0.0
N920 N 0.97948 0.55166 0.24172 0.0
N921 N 0.02515 0.63284 0.14665 0.0
C922 C 0.9866 0.57363 0.21861 0.0
C923 C 0.01063 0.61493 0.16983 0.0
N924 N 0.97485 0.56293 0.11181 0.0
N925 N 0.00808 0.63346 0.27349 0.0
H926 H 0.02869 0.63486 0.09837 0.0
H927 H 0.03493 0.64455 0.17563 0.0
H928 H 0.00268 0.634 0.32082 0.0
H929 H 0.01349 0.65026 0.25621 0.0
H930 H 0.96248 0.55 0.12725 0.0
H931 H 0.97523 0.56487 0.06265 0.0
H932 H 0.976 0.53678 0.21294 0.0
H933 H 0.9793 0.54744 0.28977 0.0
C934 C 0.14294 0.23704 0.9307 0.0
C935 C 0.13651 0.26006 0.90684 0.0
C936 C 0.13847 0.27627 0.01494 0.0
C937 C 0.14049 0.25236 0.0395 0.0
N938 N 0.13834 0.20915 0.01676 0.0
N939 N 0.12468 0.30124 0.92768 0.0
C940 C 0.1409 0.23248 0.99638 0.0
C941 C 0.13322 0.27963 0.94937 0.0
N942 N 0.15222 0.21972 0.89142 0.0
N943 N 0.14294 0.29579 0.05282 0.0
H944 H 0.12036 0.30425 0.88018 0.0
H945 H 0.11974 0.31532 0.95782 0.0
H946 H 0.14879 0.29425 0.09963 0.0
H947 H 0.14374 0.31342 0.03549 0.0
H948 H 0.15931 0.2035 0.90838 0.0
H949 H 0.1557 0.22264 0.84341 0.0
H950 H 0.1361 0.19473 0.98548 0.0
H951 H 0.13553 0.20419 0.06367 0.0
C952 C 0.50871 0.61307 0.78395 0.0
C953 C 0.49201 0.60024 0.74518 0.0
C954 C 0.46384 0.5979 0.83499 0.0
C955 C 0.48168 0.60831 0.87501 0.0
N956 N 0.5137 0.63783 0.87732 0.0
N957 N 0.45486 0.57775 0.73563 0.0
C958 C 0.50209 0.6194 0.84677 0.0
C959 C 0.46974 0.59216 0.77102 0.0
N960 N 0.53117 0.61888 0.76184 0.0
N961 N 0.44067 0.59559 0.8564 0.0
H962 H 0.45889 0.57256 0.68926 0.0
H963 H 0.43975 0.569 0.75412 0.0
H964 H 0.43508 0.60281 0.89965 0.0
H965 H 0.42634 0.58993 0.82806 0.0
H966 H 0.54484 0.62559 0.79095 0.0
H967 H 0.53705 0.61519 0.71607 0.0
H968 H 0.52749 0.64798 0.85672 0.0
H969 H 0.5069 0.64564 0.9186 0.0
C970 C 0.16622 0.74668 0.54338 0.0
C971 C 0.14507 0.74481 0.50566 0.0
C972 C 0.12102 0.73762 0.6019 0.0
C973 C 0.14181 0.74193 0.6393 0.0
N974 N 0.18285 0.75636 0.64617 0.0
N975 N 0.10137 0.74413 0.50084 0.0
C976 C 0.16405 0.74807 0.61021 0.0
C977 C 0.12215 0.74166 0.53526 0.0
N978 N 0.18849 0.74657 0.51557 0.0
N979 N 0.1003 0.72945 0.62985 0.0
H980 H 0.10115 0.74824 0.4526 0.0
H981 H 0.08428 0.74457 0.52146 0.0
H982 H 0.09876 0.72682 0.67873 0.0
H983 H 0.08538 0.72349 0.60411 0.0
H984 H 0.20452 0.74516 0.54121 0.0
H985 H 0.1909 0.74551 0.46673 0.0
H986 H 0.19867 0.76344 0.62686 0.0
H987 H 0.18168 0.75852 0.69513 0.0
C988 C 0.98316 0.36438 0.27198 0.0
C989 C -0.0029 0.38181 0.23848 0.0
C990 C 0.02131 0.38891 0.33421 0.0
C991 C 0.00468 0.37486 0.37037 0.0
N992 N 0.97899 0.33973 0.36658 0.0
N993 N 0.02887 0.41155 0.2376 0.0
C994 C 0.98813 0.35979 0.3373 0.0
C995 C 0.01617 0.39416 0.26943 0.0
N996 N 0.96471 0.35266 0.24177 0.0
N997 N 0.04307 0.39525 0.35978 0.0
H998 H 0.02608 0.41542 0.18969 0.0
H999 H 0.04089 0.42332 0.25985 0.0
H1000 H 0.04915 0.38827 0.40284 0.0
H1001 H 0.05661 0.40406 0.33439 0.0
H1002 H 0.95179 0.34229 0.26527 0.0
H1003 H 0.96136 0.35449 0.19334 0.0
H1004 H 0.96815 0.32698 0.34402 0.0
H1005 H 0.98518 0.33388 0.41071 0.0
C1006 C 0.34687 0.27897 0.08642 0.0
C1007 C 0.35687 0.26074 0.12609 0.0
C1008 C 0.35894 0.23321 0.0353 0.0
C1009 C 0.34666 0.25043 0.99672 0.0
N1010 N 0.32627 0.28875 0.98802 0.0
N1011 N 0.3848 0.22746 0.12625 0.0
C1012 C 0.34016 0.27321 0.02276 0.0
C1013 C 0.36652 0.2398 0.0972 0.0
N1014 N 0.34599 0.3023 0.10745 0.0
N1015 N 0.36298 0.21023 0.01423 0.0
H1016 H 0.39335 0.23395 0.16691 0.0
H1017 H 0.39404 0.21324 0.10484 0.0
H1018 H 0.35839 0.20413 0.96927 0.0
H1019 H 0.36916 0.19644 0.04378 0.0
H1020 H 0.34064 0.3168 0.07932 0.0
H1021 H 0.35419 0.30772 0.14965 0.0
H1022 H 0.31856 0.30435 1.00672 0.0
H1023 H 0.32042 0.2849 0.94208 0.0
C1024 C 0.99034 0.01445 0.98087 0.0
C1025 C 0.00289 0.01932 0.03844 0.0
C1026 C 0.00165 0.97635 0.06682 0.0
C1027 C 0.98934 0.97141 0.00894 0.0
N1028 N 0.97706 0.98442 0.90473 0.0
N1029 N 0.01446 0.00646 0.14325 0.0
C1030 C 0.98484 0.99015 0.96455 0.0
C1031 C 0.00704 0.00065 0.08317 0.0
N1032 N 0.98304 0.03297 0.94238 0.0
N1033 N 0.0089 0.95789 0.10557 0.0
H1034 H 0.01755 0.02419 0.15795 0.0
H1035 H 0.01504 0.99419 0.18067 0.0
H1036 H 0.00488 0.9398 0.0976 0.0
H1037 H 0.02068 0.96019 0.14358 0.0
H1038 H 0.97117 0.03074 0.90454 0.0
H1039 H 0.98706 0.05105 0.95049 0.0
H1040 H 0.97628 -0.00328 0.86742 0.0
H1041 H 0.97372 0.96673 0.89003 0.0
C1042 C 0.23238 0.76455 0.22314 0.0
C1043 C 0.22187 0.75455 0.2788 0.0
C1044 C 0.25677 0.72784 0.29271 0.0
C1045 C 0.26716 0.73764 0.23672 0.0
N1046 N 0.26752 0.76829 0.15526 0.0
N1047 N 0.22163 0.72378 0.36011 0.0
C1048 C 0.25576 0.7569 0.20387 0.0
C1049 C 0.23336 0.73535 0.31174 0.0
N1050 N 0.21922 0.78004 0.18612 0.0
N1051 N 0.27006 0.7126 0.33015 0.0
H1052 H 0.20471 0.72895 0.37648 0.0
H1053 H 0.22766 0.7078 0.38078 0.0
H1054 H 0.28762 0.70727 0.31915 0.0
H1055 H 0.2648 0.70705 0.37527 0.0
H1056 H 0.22456 0.78583 0.14128 0.0
H1057 H 0.2017 0.78547 0.19724 0.0
H1058 H 0.26156 0.78423 0.13428 0.0
H1059 H 0.2844 0.76296 0.13892 0.0
C1060 C 0.50936 0.01091 0.5543 0.0
C1061 C 0.50259 0.01718 0.49136 0.0
C1062 C 0.47757 0.98086 0.48393 0.0
C1063 C 0.48595 0.97348 0.54471 0.0
N1064 N 0.51177 0.97973 0.63525 0.0
N1065 N 0.48461 0.00606 0.39173 0.0
C1066 C 0.5025 0.98798 0.57914 0.0
C1067 C 0.48781 0.00163 0.45496 0.0
N1068 N 0.52164 0.02721 0.59092 0.0
N1069 N 0.45987 0.96802 0.45363 0.0
H1070 H 0.49275 0.02064 0.36879 0.0
H1071 H 0.4761 0.99409 0.36085 0.0
H1072 H 0.45275 0.95189 0.471 0.0
H1073 H 0.45114 0.97415 0.41293 0.0
H1074 H 0.52474 0.02489 0.63926 0.0
H1075 H 0.52733 0.044 0.574 0.0
H1076 H 0.52592 0.98814 0.65915 0.0
H1077 H 0.50625 0.96354 0.65619 0.0
C1078 C 0.24847 0.24908 0.83236 0.0
C1079 C 0.26268 0.23697 0.78651 0.0
C1080 C 0.23209 0.24467 0.70474 0.0
C1081 C 0.21726 0.25548 0.75151 0.0
N1082 N 0.20925 0.2651 0.86115 0.0
N1083 N 0.2675 0.22046 0.68137 0.0
C1084 C 0.22485 0.25687 0.81578 0.0
C1085 C 0.2543 0.23389 0.72331 0.0
N1086 N 0.25779 0.25359 0.89131 0.0
N1087 N 0.2252 0.24535 0.64242 0.0
H1088 H 0.28419 0.2129 0.69279 0.0
H1089 H 0.26135 0.21537 0.63668 0.0
H1090 H 0.20888 0.25283 0.62749 0.0
H1091 H 0.23622 0.24008 0.60495 0.0
H1092 H 0.24953 0.26475 0.92455 0.0
H1093 H 0.27471 0.24742 0.90577 0.0
H1094 H 0.21259 0.26396 0.90967 0.0
H1095 H 0.19204 0.27156 0.85065 0.0
C1096 C 0.98655 0.98625 0.46991 0.0
C1097 C 0.00358 0.97458 0.50973 0.0
C1098 C 0.00314 0.00893 0.58337 0.0
C1099 C 0.98677 0.02095 0.54257 0.0
N1100 N 0.95998 0.02049 0.4522 0.0
N1101 N 0.03032 0.97527 0.60038 0.0
C1102 C 0.97753 0.00939 0.4874 0.0
C1103 C 0.0125 0.98605 0.5654 0.0
N1104 N 0.9803 0.97582 0.41336 0.0
N1105 N 0.00853 0.01883 0.64116 0.0
H1106 H 0.03669 0.95789 0.59147 0.0
H1107 H 0.03979 0.98391 0.63648 0.0
H1108 H 0.00131 0.03522 0.65647 0.0
H1109 H 0.01828 0.01003 0.67643 0.0
H1110 H 0.96989 0.98416 0.37863 0.0
H1111 H 0.98699 0.95914 0.39866 0.0
H1112 H 0.95049 0.01219 0.41566 0.0
H1113 H 0.95386 0.03796 0.46126 0.0
C1114 C 0.23624 0.75496 0.81829 0.0
C1115 C 0.22261 0.73717 0.78574 0.0
C1116 C 0.25255 0.73639 0.69944 0.0
C1117 C 0.26619 0.75418 0.73202 0.0
N1118 N 0.2735 0.77782 0.82651 0.0
N1119 N 0.21533 0.71343 0.6914 0.0
C1120 C 0.25857 0.763 0.79226 0.0
C1121 C 0.23024 0.72831 0.72554 0.0
N1122 N 0.22755 0.76443 0.87376 0.0
N1123 N 0.26119 0.72699 0.64384 0.0
H1124 H 0.19879 0.70713 0.70818 0.0
H1125 H 0.21824 0.70864 0.64433 0.0
H1126 H 0.27648 0.73373 0.62089 0.0
H1127 H 0.25404 0.71182 0.62158 0.0
H1128 H 0.2347 0.77963 0.89592 0.0
H1129 H 0.21223 0.75775 0.89662 0.0
H1130 H 0.27058 0.78257 0.87361 0.0
H1131 H 0.2901 0.78404 0.80988 0.0
C1132 C 0.5097 0.98004 0.96267 0.0
C1133 C 0.49943 0.97102 0.01986 0.0
C1134 C 0.47062 0.00461 0.02217 0.0
C1135 C 0.48159 0.01422 0.96647 0.0
N1136 N 0.51208 0.01249 0.88514 0.0
N1137 N 0.46763 0.97172 0.09793 0.0
C1138 C 0.50126 0.00228 0.93705 0.0
C1139 C 0.47908 0.98238 0.04763 0.0
N1140 N 0.52639 0.96646 0.93071 0.0
N1141 N 0.45329 0.01763 0.05346 0.0
H1142 H 0.47404 0.95623 0.12028 0.0
H1143 H 0.45092 0.97715 0.11531 0.0
H1144 H 0.44668 0.03417 0.03757 0.0
H1145 H 0.44676 0.01331 0.09831 0.0
H1146 H 0.53277 0.97054 0.88554 0.0
H1147 H 0.53258 0.94977 0.9469 0.0
H1148 H 0.52837 0.00662 0.86609 0.0
H1149 H 0.50526 0.02775 0.86227 0.0
C1150 C 0.24016 0.24258 0.20231 0.0
C1151 C 0.22091 0.24638 0.24571 0.0
C1152 C 0.24908 0.26387 0.32271 0.0
C1153 C 0.26806 0.26108 0.27845 0.0
N1154 N 0.28118 0.25263 0.17156 0.0
N1155 N 0.20618 0.2668 0.34003 0.0
C1156 C 0.26352 0.25172 0.21691 0.0
C1157 C 0.22503 0.25905 0.3035 0.0
N1158 N 0.23607 0.23047 0.14679 0.0
N1159 N 0.25412 0.26992 0.38424 0.0
H1160 H 0.18813 0.26369 0.32926 0.0
H1161 H 0.20836 0.27838 0.37855 0.0
H1162 H 0.2716 0.27318 0.40067 0.0
H1163 H 0.24132 0.26934 0.42042 0.0
H1164 H 0.24981 0.22425 0.11737 0.0
H1165 H 0.21883 0.2258 0.13104 0.0
H1166 H 0.27828 0.24847 0.124 0.0
H1167 H 0.29837 0.25959 0.18008 0.0
C1168 C 0.76157 0.24534 0.69229 0.0
C1169 C 0.77735 0.24024 0.74335 0.0
C1170 C 0.7465 0.25229 0.81966 0.0
C1171 C 0.73013 0.25609 0.76904 0.0
N1172 N 0.72018 0.25086 0.65832 0.0
N1173 N 0.78207 0.23077 0.85424 0.0
C1174 C 0.73707 0.25098 0.70555 0.0
C1175 C 0.76905 0.24135 0.80676 0.0
N1176 N 0.76999 0.24491 0.63135 0.0
N1177 N 0.74071 0.25933 0.87985 0.0
H1178 H 0.79846 0.22201 0.84618 0.0
H1179 H 0.7755 0.22876 0.90028 0.0
H1180 H 0.72436 0.26761 0.89106 0.0
H1181 H 0.75301 0.25892 0.91728 0.0
H1182 H 0.7601 0.25118 0.59267 0.0
H1183 H 0.78755 0.23968 0.61991 0.0
H1184 H 0.7237 0.24506 0.61225 0.0
H1185 H 0.70201 0.25442 0.6666 0.0
C1186 C 0.73438 0.76356 0.28772 0.0
C1187 C 0.72723 0.75597 0.22601 0.0
C1188 C 0.76337 0.73061 0.21796 0.0
C1189 C 0.76976 0.73726 0.28096 0.0
N1190 N 0.7589 0.75527 0.38053 0.0
N1191 N 0.73285 0.73023 0.1351 0.0
C1192 C 0.75463 0.75251 0.31709 0.0
C1193 C 0.74109 0.7388 0.192 0.0
N1194 N 0.7217 0.78117 0.31868 0.0
N1195 N 0.77898 0.71716 0.18224 0.0
H1196 H 0.71734 0.73685 0.11304 0.0
H1197 H 0.74053 0.71566 0.11132 0.0
H1198 H 0.79522 0.71041 0.19978 0.0
H1199 H 0.77679 0.71406 0.13389 0.0
H1200 H 0.72771 0.78945 0.36014 0.0
H1201 H 0.70577 0.78866 0.30133 0.0
H1202 H 0.74726 0.7642 0.41137 0.0
H1203 H 0.77289 0.74629 0.40367 0.0
C1204 C 0.72971 0.22984 0.20617 0.0
C1205 C 0.7229 0.22499 0.26959 0.0
C1206 C 0.764 0.23419 0.30442 0.0
C1207 C 0.76906 0.2441 0.24352 0.0
N1208 N 0.75617 0.25201 0.13588 0.0
N1209 N 0.73298 0.22347 0.38069 0.0
C1210 C 0.75176 0.24207 0.19411 0.0
C1211 C 0.73993 0.22722 0.31925 0.0
N1212 N 0.71558 0.22184 0.15739 0.0
N1213 N 0.78206 0.23103 0.34771 0.0
H1214 H 0.7156 0.21786 0.39306 0.0
H1215 H 0.74389 0.2276 0.41947 0.0
H1216 H 0.80004 0.23512 0.33825 0.0
H1217 H 0.77964 0.22197 0.39058 0.0
H1218 H 0.72095 0.22257 0.11004 0.0
H1219 H 0.69953 0.21236 0.16482 0.0
H1220 H 0.74304 0.25335 0.10063 0.0
H1221 H 0.77248 0.26029 0.12412 0.0
C1222 C 0.73513 0.75971 0.71229 0.0
C1223 C 0.72297 0.74013 0.74191 0.0
C1224 C 0.75521 0.73683 0.8214 0.0
C1225 C 0.76754 0.75626 0.79153 0.0
N1226 N 0.77177 0.78337 0.70212 0.0
N1227 N 0.71803 0.71409 0.83291 0.0
C1228 C 0.75803 0.76719 0.73569 0.0
C1229 C 0.73216 0.72965 0.79851 0.0
N1230 N 0.72458 0.77148 0.66242 0.0
N1231 N 0.76579 0.72482 0.87079 0.0
H1232 H 0.7007 0.70892 0.81909 0.0
H1233 H 0.72236 0.70803 0.87825 0.0
H1234 H 0.78212 0.73012 0.89081 0.0
H1235 H 0.75934 0.70859 0.8892 0.0
H1236 H 0.73074 0.78783 0.64407 0.0
H1237 H 0.70849 0.76586 0.64164 0.0
H1238 H 0.76736 0.78968 0.65709 0.0
H1239 H 0.78895 0.78894 0.716 0.0
C1240 C 0.51344 0.51233 0.46165 0.0
C1241 C 0.50525 0.52038 0.52198 0.0
C1242 C 0.47815 0.4855 0.52985 0.0
C1243 C 0.48785 0.4764 0.47204 0.0
N1244 N 0.51607 0.47967 0.38532 0.0
N1245 N 0.48247 0.51361 0.61757 0.0
C1246 C 0.50597 0.48935 0.43878 0.0
C1247 C 0.48818 0.50678 0.55701 0.0
N1248 N 0.52737 0.52717 0.42471 0.0
N1249 N 0.45951 0.47371 0.55923 0.0
H1250 H 0.48956 0.52908 0.63895 0.0
H1251 H 0.47236 0.50305 0.64867 0.0
H1252 H 0.45289 0.45699 0.54456 0.0
H1253 H 0.44969 0.48102 0.59665 0.0
H1254 H 0.53142 0.52365 0.3774 0.0
H1255 H 0.53323 0.5442 0.43925 0.0
H1256 H 0.53148 0.48661 0.36365 0.0
H1257 H 0.5098 0.46381 0.36419 0.0
C1258 C 0.00036 0.48741 0.0761 0.0
C1259 C -0.00205 0.46821 0.03195 0.0
C1260 C 0.01204 0.49466 0.946 0.0
C1261 C 0.01421 0.51383 0.99 0.0
N1262 N 0.01714 0.527 0.09865 0.0
N1263 N 0.00857 0.4516 0.92931 0.0
C1264 C 0.01037 0.50978 0.0557 0.0
C1265 C 0.00612 0.47115 0.96833 0.0
N1266 N 0.99307 0.48421 0.13751 0.0
N1267 N 0.01471 0.49912 0.88255 0.0
H1268 H 0.00451 0.43401 0.94297 0.0
H1269 H 0.01677 0.45246 0.8849 0.0
H1270 H 0.01973 0.51598 0.86463 0.0
H1271 H 0.01027 0.48664 0.84744 0.0
H1272 H 0.99153 0.49824 0.17009 0.0
H1273 H 0.98769 0.46747 0.15551 0.0
H1274 H 0.01703 0.52434 0.14754 0.0
H1275 H 0.02491 0.5434 0.08524 0.0
C1276 C 0.51459 0.48034 0.03776 0.0
C1277 C 0.51162 0.47327 0.97358 0.0
C1278 C 0.48985 0.51071 0.95061 0.0
C1279 C 0.49359 0.51815 0.01433 0.0
N1280 N 0.51459 0.51319 0.11353 0.0
N1281 N 0.50161 0.48352 0.86577 0.0
C1282 C 0.50754 0.50391 0.05645 0.0
C1283 C 0.50074 0.489 0.92895 0.0
N1284 N 0.52361 0.46432 0.08116 0.0
N1285 N 0.47578 0.52433 0.91102 0.0
H1286 H 0.51014 0.46805 0.84865 0.0
H1287 H 0.49597 0.49522 0.83005 0.0
H1288 H 0.46855 0.54099 0.92411 0.0
H1289 H 0.47013 0.51853 0.86644 0.0
H1290 H 0.52355 0.46743 0.12988 0.0
H1291 H 0.52962 0.44708 0.069 0.0
H1292 H 0.52662 0.50456 0.14401 0.0
H1293 H 0.51037 0.53072 0.12735 0.0
C1294 C -0.00308 0.47352 0.45059 0.0
C1295 C 0.98605 0.46348 0.50555 0.0
C1296 C 0.96179 0.49988 0.52051 0.0
C1297 C 0.97329 0.51049 0.46689 0.0
N1298 N 0.00258 0.50839 0.38229 0.0
N1299 N 0.95327 0.46355 0.58061 0.0
C1300 C 0.99097 0.4975 0.43195 0.0
C1301 C 0.96689 0.47552 0.53659 0.0
N1302 N 0.01201 0.45951 0.41465 0.0
N1303 N 0.94757 0.51365 0.55939 0.0
H1304 H 0.9562 0.44554 0.59251 0.0
H1305 H 0.93749 0.47051 0.60016 0.0
H1306 H 0.944 0.53188 0.55147 0.0
H1307 H 0.94126 0.50777 0.6033 0.0
H1308 H 0.01904 0.46461 0.3709 0.0
H1309 H 0.01602 0.44161 0.42602 0.0
H1310 H 0.01754 0.50123 0.35921 0.0
H1311 H -0.00199 0.52546 0.36553 0.0
C1312 C 0.08562 0.13121 0.1861 0.0
C1313 C 0.07517 0.13437 0.12511 0.0
C1314 C 0.09132 0.17545 0.12039 0.0
C1315 C 0.10534 0.17071 0.17569 0.0
N1316 N 0.1159 0.144 0.26193 0.0
N1317 N 0.07082 0.15811 0.02982 0.0
C1318 C 0.10257 0.14849 0.20863 0.0
C1319 C 0.07862 0.15617 0.0912 0.0
N1320 N 0.07836 0.11247 0.22396 0.0
N1321 N 0.0897 0.19825 0.09576 0.0
H1322 H 0.0619 0.14419 1.00605 0.0
H1323 H 0.07534 0.17258 1.00044 0.0
H1324 H 0.09853 0.21321 0.11446 0.0
H1325 H 0.07763 0.20284 0.05979 0.0
H1326 H 0.08346 0.11068 0.27129 0.0
H1327 H 0.06529 0.09992 0.21033 0.0
H1328 H 0.1171 0.127 0.28294 0.0
H1329 H 0.1266 0.1571 0.28384 0.0
C1330 C 0.10166 0.82535 0.44525 0.0
C1331 C 0.10792 0.82593 0.37987 0.0
C1332 C 0.08038 0.85977 0.36194 0.0
C1333 C 0.07389 0.85899 0.42717 0.0
N1334 N 0.07467 0.83897 0.52867 0.0
N1335 N 0.10061 0.84015 0.27367 0.0
C1336 C 0.08331 0.84103 0.4681 0.0
C1337 C 0.09653 0.84216 0.33748 0.0
N1338 N 0.11399 0.81055 0.48588 0.0
N1339 N 0.07123 0.8775 0.32359 0.0
H1340 H 0.11247 0.82751 0.25438 0.0
H1341 H 0.09102 0.84964 0.23929 0.0
H1342 H 0.05806 0.88969 0.33841 0.0
H1343 H 0.07739 0.88096 0.27783 0.0
H1344 H 0.1122 0.81105 0.535 0.0
H1345 H 0.12742 0.79871 0.47088 0.0
H1346 H 0.07875 0.82463 0.55879 0.0
H1347 H 0.06195 0.8508 0.54772 0.0
C1348 C 0.40406 0.8139 0.61179 0.0
C1349 C 0.3882 0.81762 0.66396 0.0
C1350 C 0.40808 0.85641 0.68553 0.0
C1351 C 0.42023 0.85469 0.62635 0.0
N1352 N 0.42776 0.83295 0.52925 0.0
N1353 N 0.37601 0.84173 0.75368 0.0
C1354 C 0.4179 0.83364 0.58869 0.0
C1355 C 0.39052 0.83871 0.70181 0.0
N1356 N 0.40635 0.79162 0.58461 0.0
N1357 N 0.41413 0.87431 0.72741 0.0
H1358 H 0.36496 0.82802 0.77145 0.0
H1359 H 0.37435 0.85804 0.77789 0.0
H1360 H 0.42741 0.88721 0.71812 0.0
H1361 H 0.40777 0.87504 0.77384 0.0
H1362 H 0.41943 0.78766 0.55067 0.0
H1363 H 0.39708 0.77637 0.60006 0.0
H1364 H 0.42424 0.81915 0.49689 0.0
H1365 H 0.43753 0.84728 0.50983 0.0
C1366 C 0.40236 0.13016 0.82881 0.0
C1367 C 0.41507 0.13249 0.88705 0.0
C1368 C 0.39976 0.17368 0.89852 0.0
C1369 C 0.38323 0.16941 0.84805 0.0
N1370 N 0.36954 0.14402 0.76217 0.0
N1371 N 0.42363 0.15543 0.98176 0.0
C1372 C 0.38475 0.14772 0.81235 0.0
C1373 C 0.41336 0.15405 0.92287 0.0
N1374 N 0.40799 0.1119 0.78768 0.0
N1375 N 0.40294 0.19634 0.92275 0.0
H1376 H 0.43317 0.1412 1.0023 0.0
H1377 H 0.4206 0.16977 0.01277 0.0
H1378 H 0.39394 0.21154 0.90608 0.0
H1379 H 0.41649 0.20053 0.95528 0.0
H1380 H 0.40112 0.11073 0.7418 0.0
H1381 H 0.42149 0.09924 0.79662 0.0
H1382 H 0.36743 0.12734 0.73999 0.0
H1383 H 0.35838 0.15752 0.74392 0.0
C1384 C 0.9058 0.82795 0.84156 0.0
C1385 C 0.88613 0.82121 0.88076 0.0
C1386 C 0.90332 0.84407 0.96969 0.0
C1387 C 0.92125 0.85318 0.92826 0.0
N1388 N 0.93951 0.85524 0.82445 0.0
N1389 N 0.86556 0.82233 0.98183 0.0
C1390 C 0.9227 0.84528 0.86425 0.0
C1391 C 0.88476 0.82906 0.9449 0.0
N1392 N 0.90824 0.81782 0.78273 0.0
N1393 N 0.90453 0.84929 0.03307 0.0
H1394 H 0.85246 0.81002 0.9671 0.0
H1395 H 0.86187 0.82973 0.02614 0.0
H1396 H 0.91804 0.86018 0.05252 0.0
H1397 H 0.89352 0.84139 0.06728 0.0
H1398 H 0.9235 0.81988 0.75446 0.0
H1399 H 0.89559 0.80589 0.76357 0.0
H1400 H 0.93985 0.85243 0.77565 0.0
H1401 H 0.95248 0.8676 0.83962 0.0
C1402 C 0.92578 0.14589 0.68812 0.0
C1403 C 0.92987 0.14442 0.62172 0.0
C1404 C 0.90529 0.18053 0.60417 0.0
C1405 C 0.89903 0.18032 0.66955 0.0
N1406 N 0.90266 0.16346 0.77441 0.0
N1407 N 0.92421 0.15959 0.51575 0.0
C1408 C 0.9093 0.16331 0.71187 0.0
C1409 C 0.92012 0.16178 0.57953 0.0
N1410 N 0.93801 0.13084 0.72836 0.0
N1411 N 0.89671 0.1985 0.56574 0.0
H1412 H 0.93547 0.14637 0.49656 0.0
H1413 H 0.91575 0.17 0.48122 0.0
H1414 H 0.88483 0.21174 0.58163 0.0
H1415 H 0.90226 0.20127 0.51916 0.0
H1416 H 0.93793 0.13254 0.77751 0.0
H1417 H 0.94985 0.11753 0.71251 0.0
H1418 H 0.90701 0.14986 0.80653 0.0
H1419 H 0.89179 0.17691 0.79402 0.0
C1420 C 0.57912 0.17574 0.36993 0.0
C1421 C 0.59527 0.16986 0.31995 0.0
C1422 C 0.57593 0.13008 0.31097 0.0
C1423 C 0.56441 0.13405 0.37024 0.0
N1424 N 0.55653 0.16029 0.45936 0.0
N1425 N 0.6071 0.14242 0.23687 0.0
C1426 C 0.56615 0.15688 0.40031 0.0
C1427 C 0.59299 0.14729 0.28848 0.0
N1428 N 0.57551 0.19919 0.38753 0.0
N1429 N 0.5698 0.11044 0.27501 0.0
H1430 H 0.61764 0.15562 0.21475 0.0
H1431 H 0.6088 0.12527 0.21709 0.0
H1432 H 0.55669 0.09795 0.28885 0.0
H1433 H 0.57587 0.10774 0.22882 0.0
H1434 H 0.56237 0.20431 0.42023 0.0
H1435 H 0.58335 0.2138 0.36428 0.0
H1436 H 0.55969 0.1758 0.48615 0.0
H1437 H 0.54736 0.14679 0.48417 0.0
C1438 C 0.58774 0.86251 0.18387 0.0
C1439 C 0.57463 0.86031 0.12628 0.0
C1440 C 0.59122 0.81985 0.11047 0.0
C1441 C 0.60763 0.82382 0.1614 0.0
N1442 N 0.62118 0.84868 0.24853 0.0
N1443 N 0.56696 0.83864 0.02898 0.0
C1444 C 0.60583 0.84516 0.19858 0.0
C1445 C 0.57708 0.83941 0.08818 0.0
N1446 N 0.58207 0.88043 0.22595 0.0
N1447 N 0.58864 0.79753 0.08362 0.0
H1448 H 0.55708 0.8529 0.00968 0.0
H1449 H 0.57054 0.82493 0.99645 0.0
H1450 H 0.59821 0.78233 0.09782 0.0
H1451 H 0.57508 0.79349 0.05101 0.0
H1452 H 0.58923 0.8815 0.27153 0.0
H1453 H 0.56845 0.89305 0.21773 0.0
H1454 H 0.62301 0.86516 0.2719 0.0
H1455 H 0.63275 0.83528 0.2654 0.0
C1456 C 0.5922 0.64326 0.55562 0.0
C1457 C 0.57042 0.64125 0.59089 0.0
C1458 C 0.58606 0.66962 0.66998 0.0
C1459 C 0.60775 0.67167 0.63488 0.0
N1460 N 0.62905 0.66584 0.53619 0.0
N1461 N 0.5437 0.65965 0.66836 0.0
C1462 C 0.61018 0.66003 0.57525 0.0
C1463 C 0.56632 0.65673 0.64368 0.0
N1464 N 0.59558 0.62924 0.50299 0.0
N1465 N 0.58466 0.67896 0.72994 0.0
H1466 H 0.52838 0.65114 0.65076 0.0
H1467 H 0.53966 0.6726 0.70259 0.0
H1468 H 0.59888 0.6882 0.75158 0.0
H1469 H 0.57028 0.67548 0.76052 0.0
H1470 H 0.61219 0.62729 0.48041 0.0
H1471 H 0.58179 0.61893 0.4828 0.0
H1472 H 0.63049 0.65987 0.48952 0.0
H1473 H 0.64227 0.67846 0.54828 0.0
C1474 C 0.5768 0.34844 0.81914 0.0
C1475 C 0.57565 0.35425 0.88468 0.0
C1476 C 0.60591 0.32343 0.90867 0.0
C1477 C 0.60927 0.31987 0.84261 0.0
N1478 N 0.59888 0.32869 0.73415 0.0
N1479 N 0.58909 0.3484 0.9923 0.0
C1480 C 0.59478 0.33209 0.79752 0.0
C1481 C 0.59008 0.34192 0.92972 0.0
N1482 N 0.56065 0.35852 0.77783 0.0
N1483 N 0.61756 0.30881 0.9511 0.0
H1484 H 0.57689 0.36112 0.00973 0.0
H1485 H 0.60114 0.34221 0.02652 0.0
H1486 H 0.62935 0.29515 0.93719 0.0
H1487 H 0.61412 0.30877 0.99964 0.0
H1488 H 0.55877 0.35322 0.73073 0.0
H1489 H 0.5478 0.3712 0.79177 0.0
H1490 H 0.59094 0.33902 0.69857 0.0
H1491 H 0.61131 0.31615 0.71693 0.0
C1492 C 0.88705 0.3474 0.21084 0.0
C1493 C 0.87353 0.33317 0.16775 0.0
C1494 C 0.8949 0.35136 0.0776 0.0
C1495 C 0.90745 0.36656 0.12049 0.0
N1496 N 0.91389 0.38152 0.22681 0.0
N1497 N 0.86185 0.32328 0.06053 0.0
C1498 C 0.90297 0.36538 0.18684 0.0
C1499 C 0.87663 0.33567 0.10116 0.0
N1500 N 0.88518 0.34315 0.27462 0.0
N1501 N 0.90081 0.35163 0.01457 0.0
H1502 H 0.84862 0.31121 0.07594 0.0
H1503 H 0.86141 0.32613 0.01174 0.0
H1504 H 0.9133 0.3637 0.99522 0.0
H1505 H 0.89448 0.33904 0.98187 0.0
H1506 H 0.89659 0.35079 0.30835 0.0
H1507 H 0.87311 0.33063 0.29384 0.0
H1508 H 0.9094 0.3834 0.27449 0.0
H1509 H 0.92659 0.3942 0.21168 0.0
C1510 C 0.92274 0.64771 0.34964 0.0
C1511 C 0.92234 0.63861 0.41272 0.0
C1512 C 0.88859 0.66518 0.43951 0.0
C1513 C 0.88844 0.67363 0.37587 0.0
N1514 N 0.90791 0.67737 0.27417 0.0
N1515 N 0.90939 0.64214 0.52115 0.0
C1516 C 0.90649 0.66642 0.33226 0.0
C1517 C 0.90662 0.64847 0.45882 0.0
N1518 N 0.93767 0.63749 0.30552 0.0
N1519 N 0.87121 0.67284 0.48098 0.0
H1520 H 0.92272 0.63014 0.53639 0.0
H1521 H 0.90002 0.65012 0.55838 0.0
H1522 H 0.85868 0.68623 0.4697 0.0
H1523 H 0.86847 0.66536 0.52571 0.0
H1524 H 0.93678 0.64109 0.25712 0.0
H1525 H 0.95034 0.62428 0.31671 0.0
H1526 H 0.92216 0.6749 0.24266 0.0
H1527 H 0.89559 0.69038 0.25901 0.0
C1528 C 0.41038 0.3238 0.33429 0.0
C1529 C 0.38838 0.32264 0.36836 0.0
C1530 C 0.4037 0.35199 0.4454 0.0
C1531 C 0.42556 0.35348 0.41044 0.0
N1532 N 0.45287 0.33328 0.33787 0.0
N1533 N 0.36692 0.32957 0.46636 0.0
C1534 C 0.43002 0.33693 0.36025 0.0
C1535 C 0.38584 0.33494 0.42704 0.0
N1536 N 0.41218 0.31351 0.27551 0.0
N1537 N 0.40011 0.36683 0.49632 0.0
H1538 H 0.35389 0.3166 0.45542 0.0
H1539 H 0.36537 0.33616 0.51243 0.0
H1540 H 0.41381 0.37754 0.5155 0.0
H1541 H 0.38343 0.36904 0.51836 0.0
H1542 H 0.42692 0.31628 0.24563 0.0
H1543 H 0.39805 0.30412 0.25398 0.0
H1544 H 0.45709 0.31974 0.30539 0.0
H1545 H 0.46807 0.34176 0.35631 0.0
C1546 C 0.38597 0.64261 0.18732 0.0
C1547 C 0.37869 0.66116 0.14494 0.0
C1548 C 0.40597 0.64562 0.06271 0.0
C1549 C 0.41292 0.62686 0.10474 0.0
N1550 N 0.41318 0.60927 0.20948 0.0
N1551 N 0.37892 0.67904 0.04045 0.0
C1552 C 0.40376 0.6257 0.16763 0.0
C1553 C 0.38812 0.66249 0.08227 0.0
N1554 N 0.37555 0.64106 0.24609 0.0
N1555 N 0.41676 0.64744 1.00447 0.0
H1556 H 0.36568 0.69153 0.0527 0.0
H1557 H 0.38303 0.67958 0.99234 0.0
H1558 H 0.42892 0.63466 0.98721 0.0
H1559 H 0.41483 0.66216 0.9742 0.0
H1560 H 0.37769 0.62648 0.27673 0.0
H1561 H 0.36364 0.654 0.26365 0.0
H1562 H 0.40938 0.60897 0.25778 0.0
H1563 H 0.42631 0.59666 0.19699 0.0
C1564 C 0.0703 0.6589 0.92731 0.0
C1565 C 0.0694 0.63681 0.89354 0.0
C1566 C 0.09869 0.65229 0.81645 0.0
C1567 C 0.10024 0.67412 0.85163 0.0
N1568 N 0.08028 0.70134 0.92499 0.0
N1569 N 0.07671 0.61513 0.79624 0.0
C1570 C 0.08368 0.67854 0.90192 0.0
C1571 C 0.0818 0.63428 0.83503 0.0
N1572 N 0.05946 0.66076 0.98535 0.0
N1573 N 0.11339 0.64886 0.76513 0.0
H1574 H 0.06394 0.60194 0.80764 0.0
H1575 H 0.08336 0.61342 0.75028 0.0
H1576 H 0.1239 0.66269 0.74576 0.0
H1577 H 0.11564 0.63225 0.74279 0.0
H1578 H 0.06208 0.67539 0.01569 0.0
H1579 H 0.04952 0.64675 1.00562 0.0
H1580 H 0.06671 0.70563 0.9573 0.0
H1581 H 0.08905 0.71655 0.9075 0.0
C1582 C 0.08359 0.34906 0.57704 0.0
C1583 C 0.06565 0.35789 0.61883 0.0
C1584 C 0.08312 0.33496 0.70706 0.0
C1585 C 0.10228 0.32783 0.66661 0.0
N1586 N 0.12183 0.32833 0.56415 0.0
N1587 N 0.04893 0.36153 0.72408 0.0
C1588 C 0.10286 0.33501 0.60185 0.0
C1589 C 0.06546 0.35135 0.68396 0.0
N1590 N 0.08163 0.35343 0.51332 0.0
N1591 N 0.08173 0.32585 0.76731 0.0
H1592 H 0.03545 0.37328 0.7087 0.0
H1593 H 0.0494 0.35968 0.77319 0.0
H1594 H 0.09498 0.31473 0.78686 0.0
H1595 H 0.06682 0.328 0.79677 0.0
H1596 H 0.09257 0.34548 0.4791 0.0
H1597 H 0.06773 0.36372 0.49375 0.0
H1598 H 0.12487 0.33523 0.51892 0.0
H1599 H 0.13546 0.31666 0.5791 0.0
loop_
_geom_bond_atom_site_label_1
_geom_bond_atom_site_label_2
_geom_bond_distance
_geom_bond_site_symmetry_2
_ccdc_geom_bond_type
C0 O2 1.247 . S
C0 O4 1.258 1_455 S
C1 O8 1.247 1_455 S
C1 O9 1.258 . S
O2 C0 1.247 . S
O2 Zn3 2.028 1_556 S
Zn3 O2 2.028 1_554 S
Zn3 O7 2.035 . S
Zn3 O9 2.035 . S
Zn3 O10 2.028 . S
O4 C0 1.258 1_655 S
O4 Zn5 2.035 1_556 S
Zn5 O4 2.035 1_554 S
Zn5 O6 2.028 1_655 S
Zn5 O8 2.028 . S
Zn5 O11 2.035 . S
O6 Zn5 2.028 1_455 S
O6 C12 1.247 . S
O7 Zn3 2.035 . S
O7 C12 1.258 . S
O8 C1 1.247 1_655 S
O8 Zn5 2.028 . S
O9 C1 1.258 . S
O9 Zn3 2.035 . S
O10 Zn3 2.028 . S
O10 C13 1.247 1_455 S
O11 Zn5 2.035 . S
O11 C13 1.258 . S
C12 O6 1.247 . S
C12 O7 1.258 . S
C13 O10 1.247 1_655 S
C13 O11 1.258 . S
C14 O16 1.247 . S
C14 O18 1.258 . S
C15 O22 1.247 . S
C15 O23 1.258 . S
O16 C14 1.247 . S
O16 Zn17 2.028 . S
Zn17 O16 2.028 . S
Zn17 O21 2.035 . S
Zn17 O23 2.035 . S
Zn17 O24 2.028 . S
O18 C14 1.258 . S
O18 Zn19 2.035 . S
Zn19 O18 2.035 . S
Zn19 O20 2.028 . S
Zn19 O22 2.028 . S
Zn19 O25 2.035 . S
O20 Zn19 2.028 . S
O20 C26 1.247 . S
O21 Zn17 2.035 . S
O21 C26 1.258 . S
O22 C15 1.247 . S
O22 Zn19 2.028 . S
O23 C15 1.258 . S
O23 Zn17 2.035 . S
O24 Zn17 2.028 . S
O24 C27 1.247 . S
O25 Zn19 2.035 . S
O25 C27 1.258 . S
C26 O20 1.247 . S
C26 O21 1.258 . S
C27 O24 1.247 . S
C27 O25 1.258 . S
C28 O30 1.247 . S
C28 O32 1.258 . S
C29 O36 1.247 . S
C29 O37 1.258 . S
O30 C28 1.247 . S
O30 Zn31 2.028 . S
Zn31 O30 2.028 . S
Zn31 O35 2.035 . S
Zn31 O37 2.035 . S
Zn31 O38 2.028 . S
O32 C28 1.258 . S
O32 Zn33 2.035 . S
Zn33 O32 2.035 . S
Zn33 O34 2.028 . S
Zn33 O36 2.028 . S
Zn33 O39 2.035 . S
O34 Zn33 2.028 . S
O34 C40 1.247 . S
O35 Zn31 2.035 . S
O35 C40 1.258 . S
O36 C29 1.247 . S
O36 Zn33 2.028 . S
O37 C29 1.258 . S
O37 Zn31 2.035 . S
O38 Zn31 2.028 . S
O38 C41 1.247 . S
O39 Zn33 2.035 . S
O39 C41 1.258 . S
C40 O34 1.247 . S
C40 O35 1.258 . S
C41 O38 1.247 . S
C41 O39 1.258 . S
C42 O44 1.247 . S
C42 O46 1.258 . S
C43 O50 1.247 . S
C43 O51 1.258 . S
O44 C42 1.247 . S
O44 Zn45 2.028 . S
Zn45 O44 2.028 . S
Zn45 O49 2.035 . S
Zn45 O51 2.035 . S
Zn45 O52 2.028 . S
O46 C42 1.258 . S
O46 Zn47 2.035 . S
Zn47 O46 2.035 . S
Zn47 O48 2.028 . S
Zn47 O50 2.028 . S
Zn47 O53 2.035 . S
O48 Zn47 2.028 . S
O48 C54 1.247 . S
O49 Zn45 2.035 . S
O49 C54 1.258 . S
O50 C43 1.247 . S
O50 Zn47 2.028 . S
O51 C43 1.258 . S
O51 Zn45 2.035 . S
O52 Zn45 2.028 . S
O52 C55 1.247 . S
O53 Zn47 2.035 . S
O53 C55 1.258 . S
C54 O48 1.247 . S
C54 O49 1.258 . S
C55 O52 1.247 . S
C55 O53 1.258 . S
C56 O58 1.247 . S
C56 O60 1.258 . S
C57 O64 1.247 1_655 S
C57 O65 1.258 . S
O58 C56 1.247 . S
O58 Zn59 2.028 1_455 S
Zn59 O58 2.028 1_655 S
Zn59 O63 2.035 . S
Zn59 O65 2.035 . S
Zn59 O66 2.028 . S
O60 C56 1.258 . S
O60 Zn61 2.035 . S
Zn61 O60 2.035 . S
Zn61 O62 2.028 . S
Zn61 O64 2.028 . S
Zn61 O67 2.035 . S
O62 Zn61 2.028 . S
O62 C68 1.247 . S
O63 Zn59 2.035 . S
O63 C68 1.258 1_655 S
O64 C57 1.247 1_455 S
O64 Zn61 2.028 . S
O65 C57 1.258 . S
O65 Zn59 2.035 . S
O66 Zn59 2.028 . S
O66 C69 1.247 1_655 S
O67 Zn61 2.035 . S
O67 C69 1.258 . S
C68 O62 1.247 . S
C68 O63 1.258 1_455 S
C69 O66 1.247 1_455 S
C69 O67 1.258 . S
C70 O72 1.247 . S
C70 O74 1.258 . S
C71 O78 1.247 . S
C71 O79 1.258 . S
O72 C70 1.247 . S
O72 Zn73 2.028 . S
Zn73 O72 2.028 . S
Zn73 O77 2.035 . S
Zn73 O79 2.035 . S
Zn73 O80 2.028 . S
O74 C70 1.258 . S
O74 Zn75 2.035 . S
Zn75 O74 2.035 . S
Zn75 O76 2.028 . S
Zn75 O78 2.028 . S
Zn75 O81 2.035 . S
O76 Zn75 2.028 . S
O76 C82 1.247 . S
O77 Zn73 2.035 . S
O77 C82 1.258 . S
O78 C71 1.247 . S
O78 Zn75 2.028 . S
O79 C71 1.258 . S
O79 Zn73 2.035 . S
O80 Zn73 2.028 . S
O80 C83 1.247 . S
O81 Zn75 2.035 . S
O81 C83 1.258 . S
C82 O76 1.247 . S
C82 O77 1.258 . S
C83 O80 1.247 . S
C83 O81 1.258 . S
C84 O86 1.247 . S
C84 O88 1.258 . S
C85 O92 1.247 . S
C85 O93 1.258 . S
O86 C84 1.247 . S
O86 Zn87 2.028 1_554 S
Zn87 O86 2.028 1_556 S
Zn87 O91 2.035 . S
Zn87 O93 2.035 . S
Zn87 O94 2.028 . S
O88 C84 1.258 . S
O88 Zn89 2.035 1_554 S
Zn89 O88 2.035 1_556 S
Zn89 O90 2.028 . S
Zn89 O92 2.028 . S
Zn89 O95 2.035 . S
O90 Zn89 2.028 . S
O90 C96 1.247 . S
O91 Zn87 2.035 . S
O91 C96 1.258 . S
O92 C85 1.247 . S
O92 Zn89 2.028 . S
O93 C85 1.258 . S
O93 Zn87 2.035 . S
O94 Zn87 2.028 . S
O94 C97 1.247 . S
O95 Zn89 2.035 . S
O95 C97 1.258 . S
C96 O90 1.247 . S
C96 O91 1.258 . S
C97 O94 1.247 . S
C97 O95 1.258 . S
C98 O100 1.247 . S
C98 O102 1.258 . S
C99 O106 1.247 . S
C99 O107 1.258 . S
O100 C98 1.247 . S
O100 Zn101 2.028 . S
Zn101 O100 2.028 . S
Zn101 O105 2.035 . S
Zn101 O107 2.035 . S
Zn101 O108 2.028 . S
O102 C98 1.258 . S
O102 Zn103 2.035 . S
Zn103 O102 2.035 . S
Zn103 O104 2.028 . S
Zn103 O106 2.028 . S
Zn103 O109 2.035 . S
O104 Zn103 2.028 . S
O104 C110 1.247 . S
O105 Zn101 2.035 . S
O105 C110 1.258 . S
O106 C99 1.247 . S
O106 Zn103 2.028 . S
O107 C99 1.258 . S
O107 Zn101 2.035 . S
O108 Zn101 2.028 . S
O108 C111 1.247 . S
O109 Zn103 2.035 . S
O109 C111 1.258 . S
C110 O104 1.247 . S
C110 O105 1.258 . S
C111 O108 1.247 . S
C111 O109 1.258 . S
C112 O114 1.247 1_655 S
C112 O116 1.258 . S
C113 O120 1.247 . S
C113 O121 1.258 1_655 S
O114 C112 1.247 1_455 S
O114 Zn115 2.028 1_554 S
Zn115 O114 2.028 1_556 S
Zn115 O119 2.035 1_455 S
Zn115 O121 2.035 . S
Zn115 O122 2.028 . S
O116 C112 1.258 . S
O116 Zn117 2.035 1_554 S
Zn117 O116 2.035 1_556 S
Zn117 O118 2.028 . S
Zn117 O120 2.028 . S
Zn117 O123 2.035 . S
O118 Zn117 2.028 . S
O118 C124 1.247 . S
O119 Zn115 2.035 1_655 S
O119 C124 1.258 . S
O120 C113 1.247 . S
O120 Zn117 2.028 . S
O121 C113 1.258 1_455 S
O121 Zn115 2.035 . S
O122 Zn115 2.028 . S
O122 C125 1.247 . S
O123 Zn117 2.035 . S
O123 C125 1.258 1_655 S
C124 O118 1.247 . S
C124 O119 1.258 . S
C125 O122 1.247 . S
C125 O123 1.258 1_455 S
C126 O128 1.247 . S
C126 O130 1.258 . S
C127 O134 1.247 . S
C127 O135 1.258 . S
O128 C126 1.247 . S
O128 Zn129 2.028 . S
Zn129 O128 2.028 . S
Zn129 O133 2.035 . S
Zn129 O135 2.035 . S
Zn129 O136 2.028 . S
O130 C126 1.258 . S
O130 Zn131 2.035 . S
Zn131 O130 2.035 . S
Zn131 O132 2.028 . S
Zn131 O134 2.028 . S
Zn131 O137 2.035 . S
O132 Zn131 2.028 . S
O132 C138 1.247 . S
O133 Zn129 2.035 . S
O133 C138 1.258 . S
O134 C127 1.247 . S
O134 Zn131 2.028 . S
O135 C127 1.258 . S
O135 Zn129 2.035 . S
O136 Zn129 2.028 . S
O136 C139 1.247 . S
O137 Zn131 2.035 . S
O137 C139 1.258 . S
C138 O132 1.247 . S
C138 O133 1.258 . S
C139 O136 1.247 . S
C139 O137 1.258 . S
C140 O142 1.247 . S
C140 O144 1.258 . S
C141 O148 1.247 . S
C141 O149 1.258 . S
O142 C140 1.247 . S
O142 Zn143 2.028 . S
Zn143 O142 2.028 . S
Zn143 O147 2.035 . S
Zn143 O149 2.035 . S
Zn143 O150 2.028 . S
O144 C140 1.258 . S
O144 Zn145 2.035 . S
Zn145 O144 2.035 . S
Zn145 O146 2.028 . S
Zn145 O148 2.028 . S
Zn145 O151 2.035 . S
O146 Zn145 2.028 . S
O146 C152 1.247 . S
O147 Zn143 2.035 . S
O147 C152 1.258 . S
O148 C141 1.247 . S
O148 Zn145 2.028 . S
O149 C141 1.258 . S
O149 Zn143 2.035 . S
O150 Zn143 2.028 . S
O150 C153 1.247 . S
O151 Zn145 2.035 . S
O151 C153 1.258 . S
C152 O146 1.247 . S
C152 O147 1.258 . S
C153 O150 1.247 . S
C153 O151 1.258 . S
C154 O156 1.247 . S
C154 O158 1.258 . S
C155 O162 1.247 . S
C155 O163 1.258 . S
O156 C154 1.247 . S
O156 Zn157 2.028 . S
Zn157 O156 2.028 . S
Zn157 O161 2.035 . S
Zn157 O163 2.035 . S
Zn157 O164 2.028 . S
O158 C154 1.258 . S
O158 Zn159 2.035 . S
Zn159 O158 2.035 . S
Zn159 O160 2.028 . S
Zn159 O162 2.028 . S
Zn159 O165 2.035 . S
O160 Zn159 2.028 . S
O160 C166 1.247 . S
O161 Zn157 2.035 . S
O161 C166 1.258 . S
O162 C155 1.247 . S
O162 Zn159 2.028 . S
O163 C155 1.258 . S
O163 Zn157 2.035 . S
O164 Zn157 2.028 . S
O164 C167 1.247 . S
O165 Zn159 2.035 . S
O165 C167 1.258 . S
C166 O160 1.247 . S
C166 O161 1.258 . S
C167 O164 1.247 . S
C167 O165 1.258 . S
C168 O170 1.247 . S
C168 O172 1.258 . S
C169 O176 1.247 . S
C169 O177 1.258 1_455 S
O170 C168 1.247 . S
O170 Zn171 2.028 . S
Zn171 O170 2.028 . S
Zn171 O175 2.035 . S
Zn171 O177 2.035 . S
Zn171 O178 2.028 . S
O172 C168 1.258 . S
O172 Zn173 2.035 1_655 S
Zn173 O172 2.035 1_455 S
Zn173 O174 2.028 . S
Zn173 O176 2.028 . S
Zn173 O179 2.035 . S
O174 Zn173 2.028 . S
O174 C180 1.247 1_455 S
O175 Zn171 2.035 . S
O175 C180 1.258 . S
O176 C169 1.247 . S
O176 Zn173 2.028 . S
O177 C169 1.258 1_655 S
O177 Zn171 2.035 . S
O178 Zn171 2.028 . S
O178 C181 1.247 . S
O179 Zn173 2.035 . S
O179 C181 1.258 1_455 S
C180 O174 1.247 1_655 S
C180 O175 1.258 . S
C181 O178 1.247 . S
C181 O179 1.258 1_655 S
C182 O184 1.247 . S
C182 O186 1.258 . S
C183 O190 1.247 . S
C183 O191 1.258 . S
O184 C182 1.247 . S
O184 Zn185 2.028 . S
Zn185 O184 2.028 . S
Zn185 O189 2.035 . S
Zn185 O191 2.035 . S
Zn185 O192 2.028 . S
O186 C182 1.258 . S
O186 Zn187 2.035 . S
Zn187 O186 2.035 . S
Zn187 O188 2.028 . S
Zn187 O190 2.028 . S
Zn187 O193 2.035 . S
O188 Zn187 2.028 . S
O188 C194 1.247 . S
O189 Zn185 2.035 . S
O189 C194 1.258 . S
O190 C183 1.247 . S
O190 Zn187 2.028 . S
O191 C183 1.258 . S
O191 Zn185 2.035 . S
O192 Zn185 2.028 . S
O192 C195 1.247 . S
O193 Zn187 2.035 . S
O193 C195 1.258 . S
C194 O188 1.247 . S
C194 O189 1.258 . S
C195 O192 1.247 . S
C195 O193 1.258 . S
C196 O198 1.247 . S
C196 O200 1.258 . S
C197 O204 1.247 . S
C197 O205 1.258 . S
O198 C196 1.247 . S
O198 Zn199 2.028 . S
Zn199 O198 2.028 . S
Zn199 O203 2.035 . S
Zn199 O205 2.035 1_554 S
Zn199 O206 2.028 . S
O200 C196 1.258 . S
O200 Zn201 2.035 . S
Zn201 O200 2.035 . S
Zn201 O202 2.028 . S
Zn201 O204 2.028 1_554 S
Zn201 O207 2.035 . S
O202 Zn201 2.028 . S
O202 C208 1.247 . S
O203 Zn199 2.035 . S
O203 C208 1.258 . S
O204 C197 1.247 . S
O204 Zn201 2.028 1_556 S
O205 C197 1.258 . S
O205 Zn199 2.035 1_556 S
O206 Zn199 2.028 . S
O206 C209 1.247 . S
O207 Zn201 2.035 . S
O207 C209 1.258 . S
C208 O202 1.247 . S
C208 O203 1.258 . S
C209 O206 1.247 . S
C209 O207 1.258 . S
C210 O212 1.247 . S
C210 O214 1.258 . S
C211 O218 1.247 . S
C211 O219 1.258 . S
O212 C210 1.247 . S
O212 Zn213 2.028 . S
Zn213 O212 2.028 . S
Zn213 O217 2.035 . S
Zn213 O219 2.035 . S
Zn213 O220 2.028 . S
O214 C210 1.258 . S
O214 Zn215 2.035 . S
Zn215 O214 2.035 . S
Zn215 O216 2.028 . S
Zn215 O218 2.028 . S
Zn215 O221 2.035 . S
O216 Zn215 2.028 . S
O216 C222 1.247 . S
O217 Zn213 2.035 . S
O217 C222 1.258 . S
O218 C211 1.247 . S
O218 Zn215 2.028 . S
O219 C211 1.258 . S
O219 Zn213 2.035 . S
O220 Zn213 2.028 . S
O220 C223 1.247 . S
O221 Zn215 2.035 . S
O221 C223 1.258 . S
C222 O216 1.247 . S
C222 O217 1.258 . S
C223 O220 1.247 . S
C223 O221 1.258 . S
C224 O226 1.247 . S
C224 O228 1.258 . S
C225 O232 1.247 . S
C225 O233 1.258 . S
O226 C224 1.247 . S
O226 Zn227 2.028 . S
Zn227 O226 2.028 . S
Zn227 O231 2.035 . S
Zn227 O233 2.035 . S
Zn227 O234 2.028 . S
O228 C224 1.258 . S
O228 Zn229 2.035 . S
Zn229 O228 2.035 . S
Zn229 O230 2.028 . S
Zn229 O232 2.028 . S
Zn229 O235 2.035 . S
O230 Zn229 2.028 . S
O230 C236 1.247 . S
O231 Zn227 2.035 . S
O231 C236 1.258 . S
O232 C225 1.247 . S
O232 Zn229 2.028 . S
O233 C225 1.258 . S
O233 Zn227 2.035 . S
O234 Zn227 2.028 . S
O234 C237 1.247 . S
O235 Zn229 2.035 . S
O235 C237 1.258 . S
C236 O230 1.247 . S
C236 O231 1.258 . S
C237 O234 1.247 . S
C237 O235 1.258 . S
C238 O240 1.247 . S
C238 O242 1.258 . S
C239 O246 1.247 . S
C239 O247 1.258 . S
O240 C238 1.247 . S
O240 Zn241 2.028 . S
Zn241 O240 2.028 . S
Zn241 O245 2.035 . S
Zn241 O247 2.035 . S
Zn241 O248 2.028 . S
O242 C238 1.258 . S
O242 Zn243 2.035 . S
Zn243 O242 2.035 . S
Zn243 O244 2.028 . S
Zn243 O246 2.028 . S
Zn243 O249 2.035 . S
O244 Zn243 2.028 . S
O244 C250 1.247 . S
O245 Zn241 2.035 . S
O245 C250 1.258 . S
O246 C239 1.247 . S
O246 Zn243 2.028 . S
O247 C239 1.258 . S
O247 Zn241 2.035 . S
O248 Zn241 2.028 . S
O248 C251 1.247 . S
O249 Zn243 2.035 . S
O249 C251 1.258 . S
C250 O244 1.247 . S
C250 O245 1.258 . S
C251 O248 1.247 . S
C251 O249 1.258 . S
C252 O254 1.247 . S
C252 O256 1.258 1_655 S
C253 O260 1.247 1_655 S
C253 O261 1.258 . S
O254 C252 1.247 . S
O254 Zn255 2.028 1_556 S
Zn255 O254 2.028 1_554 S
Zn255 O259 2.035 . S
Zn255 O261 2.035 . S
Zn255 O262 2.028 . S
O256 C252 1.258 1_455 S
O256 Zn257 2.035 1_556 S
Zn257 O256 2.035 1_554 S
Zn257 O258 2.028 1_455 S
Zn257 O260 2.028 . S
Zn257 O263 2.035 . S
O258 Zn257 2.028 1_655 S
O258 C264 1.247 . S
O259 Zn255 2.035 . S
O259 C264 1.258 . S
O260 C253 1.247 1_455 S
O260 Zn257 2.028 . S
O261 C253 1.258 . S
O261 Zn255 2.035 . S
O262 Zn255 2.028 . S
O262 C265 1.247 1_655 S
O263 Zn257 2.035 . S
O263 C265 1.258 . S
C264 O258 1.247 . S
C264 O259 1.258 . S
C265 O262 1.247 1_455 S
C265 O263 1.258 . S
C266 O268 1.247 . S
C266 O270 1.258 . S
C267 O274 1.247 . S
C267 O275 1.258 . S
O268 C266 1.247 . S
O268 Zn269 2.028 . S
Zn269 O268 2.028 . S
Zn269 O273 2.035 . S
Zn269 O275 2.035 . S
Zn269 O276 2.028 . S
O270 C266 1.258 . S
O270 Zn271 2.035 . S
Zn271 O270 2.035 . S
Zn271 O272 2.028 . S
Zn271 O274 2.028 . S
Zn271 O277 2.035 . S
O272 Zn271 2.028 . S
O272 C278 1.247 . S
O273 Zn269 2.035 . S
O273 C278 1.258 . S
O274 C267 1.247 . S
O274 Zn271 2.028 . S
O275 C267 1.258 . S
O275 Zn269 2.035 . S
O276 Zn269 2.028 . S
O276 C279 1.247 . S
O277 Zn271 2.035 . S
O277 C279 1.258 . S
C278 O272 1.247 . S
C278 O273 1.258 . S
C279 O276 1.247 . S
C279 O277 1.258 . S
C280 O282 1.247 . S
C280 O284 1.258 . S
C281 O288 1.247 . S
C281 O289 1.258 . S
O282 C280 1.247 . S
O282 Zn283 2.028 1_554 S
Zn283 O282 2.028 1_556 S
Zn283 O287 2.035 . S
Zn283 O289 2.035 . S
Zn283 O290 2.028 . S
O284 C280 1.258 . S
O284 Zn285 2.035 1_554 S
Zn285 O284 2.035 1_556 S
Zn285 O286 2.028 . S
Zn285 O288 2.028 . S
Zn285 O291 2.035 . S
O286 Zn285 2.028 . S
O286 C292 1.247 . S
O287 Zn283 2.035 . S
O287 C292 1.258 . S
O288 C281 1.247 . S
O288 Zn285 2.028 . S
O289 C281 1.258 . S
O289 Zn283 2.035 . S
O290 Zn283 2.028 . S
O290 C293 1.247 . S
O291 Zn285 2.035 . S
O291 C293 1.258 . S
C292 O286 1.247 . S
C292 O287 1.258 . S
C293 O290 1.247 . S
C293 O291 1.258 . S
C294 O296 1.247 . S
C294 O298 1.258 . S
C295 O302 1.247 . S
C295 O303 1.258 . S
O296 C294 1.247 . S
O296 Zn297 2.028 . S
Zn297 O296 2.028 . S
Zn297 O301 2.035 . S
Zn297 O303 2.035 . S
Zn297 O304 2.028 . S
O298 C294 1.258 . S
O298 Zn299 2.035 . S
Zn299 O298 2.035 . S
Zn299 O300 2.028 . S
Zn299 O302 2.028 . S
Zn299 O305 2.035 . S
O300 Zn299 2.028 . S
O300 C306 1.247 . S
O301 Zn297 2.035 . S
O301 C306 1.258 . S
O302 C295 1.247 . S
O302 Zn299 2.028 . S
O303 C295 1.258 . S
O303 Zn297 2.035 . S
O304 Zn297 2.028 . S
O304 C307 1.247 . S
O305 Zn299 2.035 . S
O305 C307 1.258 . S
C306 O300 1.247 . S
C306 O301 1.258 . S
C307 O304 1.247 . S
C307 O305 1.258 . S
C308 O310 1.247 . S
C308 O312 1.258 . S
C309 O316 1.247 1_455 S
C309 O317 1.258 . S
O310 C308 1.247 . S
O310 Zn311 2.028 1_655 S
Zn311 O310 2.028 1_455 S
Zn311 O315 2.035 . S
Zn311 O317 2.035 . S
Zn311 O318 2.028 . S
O312 C308 1.258 . S
O312 Zn313 2.035 . S
Zn313 O312 2.035 . S
Zn313 O314 2.028 . S
Zn313 O316 2.028 . S
Zn313 O319 2.035 . S
O314 Zn313 2.028 . S
O314 C320 1.247 . S
O315 Zn311 2.035 . S
O315 C320 1.258 1_455 S
O316 C309 1.247 1_655 S
O316 Zn313 2.028 . S
O317 C309 1.258 . S
O317 Zn311 2.035 . S
O318 Zn311 2.028 . S
O318 C321 1.247 1_455 S
O319 Zn313 2.035 . S
O319 C321 1.258 . S
C320 O314 1.247 . S
C320 O315 1.258 1_655 S
C321 O318 1.247 1_655 S
C321 O319 1.258 . S
C322 O324 1.247 . S
C322 O326 1.258 . S
C323 O330 1.247 . S
C323 O331 1.258 . S
O324 C322 1.247 . S
O324 Zn325 2.028 . S
Zn325 O324 2.028 . S
Zn325 O329 2.035 . S
Zn325 O331 2.035 . S
Zn325 O332 2.028 . S
O326 C322 1.258 . S
O326 Zn327 2.035 . S
Zn327 O326 2.035 . S
Zn327 O328 2.028 . S
Zn327 O330 2.028 . S
Zn327 O333 2.035 . S
O328 Zn327 2.028 . S
O328 C334 1.247 . S
O329 Zn325 2.035 . S
O329 C334 1.258 . S
O330 C323 1.247 . S
O330 Zn327 2.028 . S
O331 C323 1.258 . S
O331 Zn325 2.035 . S
O332 Zn325 2.028 . S
O332 C335 1.247 . S
O333 Zn327 2.035 . S
O333 C335 1.258 . S
C334 O328 1.247 . S
C334 O329 1.258 . S
C335 O332 1.247 . S
C335 O333 1.258 . S
C336 O338 1.247 . S
C336 O340 1.258 . S
C337 O344 1.247 . S
C337 O345 1.258 . S
O338 C336 1.247 . S
O338 Zn339 2.028 . S
Zn339 O338 2.028 . S
Zn339 O343 2.035 . S
Zn339 O345 2.035 . S
Zn339 O346 2.028 . S
O340 C336 1.258 . S
O340 Zn341 2.035 . S
Zn341 O340 2.035 . S
Zn341 O342 2.028 . S
Zn341 O344 2.028 . S
Zn341 O347 2.035 . S
O342 Zn341 2.028 . S
O342 C348 1.247 . S
O343 Zn339 2.035 . S
O343 C348 1.258 . S
O344 C337 1.247 . S
O344 Zn341 2.028 . S
O345 C337 1.258 . S
O345 Zn339 2.035 . S
O346 Zn339 2.028 . S
O346 C349 1.247 . S
O347 Zn341 2.035 . S
O347 C349 1.258 . S
C348 O342 1.247 . S
C348 O343 1.258 . S
C349 O346 1.247 . S
C349 O347 1.258 . S
C350 O352 1.247 . S
C350 O354 1.258 . S
C351 O358 1.247 . S
C351 O359 1.258 . S
O352 C350 1.247 . S
O352 Zn353 2.028 . S
Zn353 O352 2.028 . S
Zn353 O357 2.035 . S
Zn353 O359 2.035 . S
Zn353 O360 2.028 . S
O354 C350 1.258 . S
O354 Zn355 2.035 . S
Zn355 O354 2.035 . S
Zn355 O356 2.028 . S
Zn355 O358 2.028 . S
Zn355 O361 2.035 . S
O356 Zn355 2.028 . S
O356 C362 1.247 . S
O357 Zn353 2.035 . S
O357 C362 1.258 . S
O358 C351 1.247 . S
O358 Zn355 2.028 . S
O359 C351 1.258 . S
O359 Zn353 2.035 . S
O360 Zn353 2.028 . S
O360 C363 1.247 . S
O361 Zn355 2.035 . S
O361 C363 1.258 . S
C362 O356 1.247 . S
C362 O357 1.258 . S
C363 O360 1.247 . S
C363 O361 1.258 . S
C364 O366 1.247 . S
C364 O368 1.258 . S
C365 O372 1.247 . S
C365 O373 1.258 1_655 S
O366 C364 1.247 . S
O366 Zn367 2.028 . S
Zn367 O366 2.028 . S
Zn367 O371 2.035 1_556 S
Zn367 O373 2.035 . S
Zn367 O374 2.028 . S
O368 C364 1.258 . S
O368 Zn369 2.035 1_455 S
Zn369 O368 2.035 1_655 S
Zn369 O370 2.028 1_556 S
Zn369 O372 2.028 . S
Zn369 O375 2.035 . S
O370 Zn369 2.028 1_554 S
O370 C376 1.247 1_655 S
O371 Zn367 2.035 1_554 S
O371 C376 1.258 . S
O372 C365 1.247 . S
O372 Zn369 2.028 . S
O373 C365 1.258 1_455 S
O373 Zn367 2.035 . S
O374 Zn367 2.028 . S
O374 C377 1.247 . S
O375 Zn369 2.035 . S
O375 C377 1.258 1_655 S
C376 O370 1.247 1_455 S
C376 O371 1.258 . S
C377 O374 1.247 . S
C377 O375 1.258 1_455 S
C378 O380 1.247 . S
C378 O382 1.258 . S
C379 O386 1.247 . S
C379 O387 1.258 . S
O380 C378 1.247 . S
O380 Zn381 2.028 . S
Zn381 O380 2.028 . S
Zn381 O385 2.035 . S
Zn381 O387 2.035 . S
Zn381 O388 2.028 . S
O382 C378 1.258 . S
O382 Zn383 2.035 . S
Zn383 O382 2.035 . S
Zn383 O384 2.028 . S
Zn383 O386 2.028 . S
Zn383 O389 2.035 . S
O384 Zn383 2.028 . S
O384 C390 1.247 . S
O385 Zn381 2.035 . S
O385 C390 1.258 . S
O386 C379 1.247 . S
O386 Zn383 2.028 . S
O387 C379 1.258 . S
O387 Zn381 2.035 . S
O388 Zn381 2.028 . S
O388 C391 1.247 . S
O389 Zn383 2.035 . S
O389 C391 1.258 . S
C390 O384 1.247 . S
C390 O385 1.258 . S
C391 O388 1.247 . S
C391 O389 1.258 . S
C392 O394 1.247 . S
C392 O396 1.258 . S
C393 O400 1.247 . S
C393 O401 1.258 . S
O394 C392 1.247 . S
O394 Zn395 2.028 . S
Zn395 O394 2.028 . S
Zn395 O399 2.035 . S
Zn395 O401 2.035 1_554 S
Zn395 O402 2.028 . S
O396 C392 1.258 . S
O396 Zn397 2.035 . S
Zn397 O396 2.035 . S
Zn397 O398 2.028 . S
Zn397 O400 2.028 1_554 S
Zn397 O403 2.035 . S
O398 Zn397 2.028 . S
O398 C404 1.247 . S
O399 Zn395 2.035 . S
O399 C404 1.258 . S
O400 C393 1.247 . S
O400 Zn397 2.028 1_556 S
O401 C393 1.258 . S
O401 Zn395 2.035 1_556 S
O402 Zn395 2.028 . S
O402 C405 1.247 . S
O403 Zn397 2.035 . S
O403 C405 1.258 . S
C404 O398 1.247 . S
C404 O399 1.258 . S
C405 O402 1.247 . S
C405 O403 1.258 . S
C406 O408 1.247 . S
C406 O410 1.258 . S
C407 O414 1.247 . S
C407 O415 1.258 . S
O408 C406 1.247 . S
O408 Zn409 2.028 . S
Zn409 O408 2.028 . S
Zn409 O413 2.035 . S
Zn409 O415 2.035 . S
Zn409 O416 2.028 . S
O410 C406 1.258 . S
O410 Zn411 2.035 . S
Zn411 O410 2.035 . S
Zn411 O412 2.028 . S
Zn411 O414 2.028 . S
Zn411 O417 2.035 . S
O412 Zn411 2.028 . S
O412 C418 1.247 . S
O413 Zn409 2.035 . S
O413 C418 1.258 . S
O414 C407 1.247 . S
O414 Zn411 2.028 . S
O415 C407 1.258 . S
O415 Zn409 2.035 . S
O416 Zn409 2.028 . S
O416 C419 1.247 . S
O417 Zn411 2.035 . S
O417 C419 1.258 . S
C418 O412 1.247 . S
C418 O413 1.258 . S
C419 O416 1.247 . S
C419 O417 1.258 . S
C420 O422 1.247 . S
C420 O424 1.258 . S
C421 O428 1.247 . S
C421 O429 1.258 1_655 S
O422 C420 1.247 . S
O422 Zn423 2.028 . S
Zn423 O422 2.028 . S
Zn423 O427 2.035 . S
Zn423 O429 2.035 . S
Zn423 O430 2.028 . S
O424 C420 1.258 . S
O424 Zn425 2.035 1_455 S
Zn425 O424 2.035 1_655 S
Zn425 O426 2.028 . S
Zn425 O428 2.028 . S
Zn425 O431 2.035 . S
O426 Zn425 2.028 . S
O426 C432 1.247 1_655 S
O427 Zn423 2.035 . S
O427 C432 1.258 . S
O428 C421 1.247 . S
O428 Zn425 2.028 . S
O429 C421 1.258 1_455 S
O429 Zn423 2.035 . S
O430 Zn423 2.028 . S
O430 C433 1.247 . S
O431 Zn425 2.035 . S
O431 C433 1.258 1_655 S
C432 O426 1.247 1_455 S
C432 O427 1.258 . S
C433 O430 1.247 . S
C433 O431 1.258 1_455 S
C434 O436 1.247 . S
C434 O438 1.258 . S
C435 O442 1.247 . S
C435 O443 1.258 . S
O436 C434 1.247 . S
O436 Zn437 2.028 . S
Zn437 O436 2.028 . S
Zn437 O441 2.035 . S
Zn437 O443 2.035 . S
Zn437 O444 2.028 . S
O438 C434 1.258 . S
O438 Zn439 2.035 . S
Zn439 O438 2.035 . S
Zn439 O440 2.028 . S
Zn439 O442 2.028 . S
Zn439 O445 2.035 . S
O440 Zn439 2.028 . S
O440 C446 1.247 . S
O441 Zn437 2.035 . S
O441 C446 1.258 . S
O442 C435 1.247 . S
O442 Zn439 2.028 . S
O443 C435 1.258 . S
O443 Zn437 2.035 . S
O444 Zn437 2.028 . S
O444 C447 1.247 . S
O445 Zn439 2.035 . S
O445 C447 1.258 . S
C446 O440 1.247 . S
C446 O441 1.258 . S
C447 O444 1.247 . S
C447 O445 1.258 . S
C448 C449 1.363 . S
C448 C454 1.379 . S
C448 N456 1.356 . S
C449 C448 1.363 . S
C449 C455 1.363 1_655 S
C450 C451 1.363 . S
C450 C455 1.379 . S
C450 N457 1.356 . S
C451 C450 1.363 . S
C451 C454 1.363 1_455 S
N452 C454 1.356 . S
N452 H464 0.984 . S
N452 H465 0.985 . S
N453 C455 1.356 . S
N453 H458 0.984 . S
N453 H459 0.985 . S
C454 C448 1.379 . S
C454 C451 1.363 1_655 S
C454 N452 1.356 . S
C455 C449 1.363 1_455 S
C455 C450 1.379 . S
C455 N453 1.356 . S
N456 C448 1.356 . S
N456 H462 0.984 . S
N456 H463 0.984 . S
N457 C450 1.356 . S
N457 H460 0.984 . S
N457 H461 0.985 . S
H458 N453 0.984 . S
H459 N453 0.985 . S
H460 N457 0.984 . S
H461 N457 0.985 . S
H462 N456 0.984 . S
H463 N456 0.984 . S
H464 N452 0.984 . S
H465 N452 0.985 . S
C466 C467 1.357 1_554 S
C466 C472 1.379 . S
C466 N474 1.356 . S
C467 C466 1.357 1_556 S
C467 C473 1.360 1_556 S
C468 C469 1.363 . S
C468 C473 1.379 . S
C468 N475 1.356 . S
C469 C468 1.363 . S
C469 C472 1.363 . S
N470 C472 1.356 . S
N470 H482 0.984 . S
N470 H483 0.985 . S
N471 C473 1.356 1_556 S
N471 H476 0.984 . S
N471 H477 0.985 . S
C472 C466 1.379 . S
C472 C469 1.363 . S
C472 N470 1.356 . S
C473 C467 1.360 1_554 S
C473 C468 1.379 . S
C473 N471 1.356 1_554 S
N474 C466 1.356 . S
N474 H480 0.984 . S
N474 H481 0.984 1_554 S
N475 C468 1.356 . S
N475 H478 0.984 . S
N475 H479 0.985 . S
H476 N471 0.984 . S
H477 N471 0.985 . S
H478 N475 0.984 . S
H479 N475 0.985 . S
H480 N474 0.984 . S
H481 N474 0.984 1_556 S
H482 N470 0.984 . S
H483 N470 0.985 . S
C484 C485 1.363 . S
C484 C490 1.379 . S
C484 N492 1.356 . S
C485 C484 1.363 . S
C485 C491 1.363 . S
C486 C487 1.363 . S
C486 C491 1.379 . S
C486 N493 1.356 . S
C487 C486 1.363 . S
C487 C490 1.363 . S
N488 C490 1.356 . S
N488 H500 0.984 . S
N488 H501 0.985 . S
N489 C491 1.356 . S
N489 H494 0.984 . S
N489 H495 0.985 . S
C490 C484 1.379 . S
C490 C487 1.363 . S
C490 N488 1.356 . S
C491 C485 1.363 . S
C491 C486 1.379 . S
C491 N489 1.356 . S
N492 C484 1.356 . S
N492 H498 0.984 . S
N492 H499 0.984 . S
N493 C486 1.356 . S
N493 H496 0.984 . S
N493 H497 0.985 . S
H494 N489 0.984 . S
H495 N489 0.985 . S
H496 N493 0.984 . S
H497 N493 0.985 . S
H498 N492 0.984 . S
H499 N492 0.984 . S
H500 N488 0.984 . S
H501 N488 0.985 . S
C502 C503 1.363 . S
C502 C508 1.379 . S
C502 N510 1.356 . S
C503 C502 1.363 . S
C503 C509 1.363 . S
C504 C505 1.363 . S
C504 C509 1.379 . S
C504 N511 1.356 . S
C505 C504 1.363 . S
C505 C508 1.363 . S
N506 C508 1.356 . S
N506 H518 0.984 . S
N506 H519 0.985 . S
N507 C509 1.356 . S
N507 H512 0.984 . S
N507 H513 0.985 . S
C508 C502 1.379 . S
C508 C505 1.363 . S
C508 N506 1.356 . S
C509 C503 1.363 . S
C509 C504 1.379 . S
C509 N507 1.356 . S
N510 C502 1.356 . S
N510 H516 0.984 . S
N510 H517 0.984 . S
N511 C504 1.356 . S
N511 H514 0.984 . S
N511 H515 0.985 . S
H512 N507 0.984 . S
H513 N507 0.985 . S
H514 N511 0.984 . S
H515 N511 0.985 . S
H516 N510 0.984 . S
H517 N510 0.984 . S
H518 N506 0.984 . S
H519 N506 0.985 . S
C520 C521 1.363 1_455 S
C520 C526 1.379 . S
C520 N528 1.356 . S
C521 C520 1.363 1_655 S
C521 C527 1.363 . S
C522 C523 1.363 1_655 S
C522 C527 1.379 . S
C522 N529 1.356 . S
C523 C522 1.363 1_455 S
C523 C526 1.363 . S
N524 C526 1.356 . S
N524 H536 0.984 . S
N524 H537 0.985 . S
N525 C527 1.356 . S
N525 H530 0.984 . S
N525 H531 0.985 . S
C526 C520 1.379 . S
C526 C523 1.363 . S
C526 N524 1.356 . S
C527 C521 1.363 . S
C527 C522 1.379 . S
C527 N525 1.356 . S
N528 C520 1.356 . S
N528 H534 0.984 . S
N528 H535 0.984 . S
N529 C522 1.356 . S
N529 H532 0.984 . S
N529 H533 0.985 . S
H530 N525 0.984 . S
H531 N525 0.985 . S
H532 N529 0.984 . S
H533 N529 0.985 . S
H534 N528 0.984 . S
H535 N528 0.984 . S
H536 N524 0.984 . S
H537 N524 0.985 . S
C538 C539 1.363 . S
C538 C544 1.379 . S
C538 N546 1.356 . S
C539 C538 1.363 . S
C539 C545 1.363 . S
C540 C541 1.356 1_556 S
C540 C545 1.379 . S
C540 N547 1.356 . S
C541 C540 1.356 1_554 S
C541 C544 1.360 1_554 S
N542 C544 1.356 1_554 S
N542 H554 0.984 . S
N542 H555 0.985 . S
N543 C545 1.356 . S
N543 H548 0.984 . S
N543 H549 0.985 . S
C544 C538 1.379 . S
C544 C541 1.360 1_556 S
C544 N542 1.356 1_556 S
C545 C539 1.363 . S
C545 C540 1.379 . S
C545 N543 1.356 . S
N546 C538 1.356 . S
N546 H552 0.984 . S
N546 H553 0.984 . S
N547 C540 1.356 . S
N547 H550 0.984 1_556 S
N547 H551 0.985 . S
H548 N543 0.984 . S
H549 N543 0.985 . S
H550 N547 0.984 1_554 S
H551 N547 0.985 . S
H552 N546 0.984 . S
H553 N546 0.984 . S
H554 N542 0.984 . S
H555 N542 0.985 . S
C556 C557 1.363 . S
C556 C562 1.379 . S
C556 N564 1.356 . S
C557 C556 1.363 . S
C557 C563 1.363 . S
C558 C559 1.363 . S
C558 C563 1.379 . S
C558 N565 1.356 . S
C559 C558 1.363 . S
C559 C562 1.363 . S
N560 C562 1.356 . S
N560 H572 0.984 . S
N560 H573 0.985 . S
N561 C563 1.356 . S
N561 H566 0.984 . S
N561 H567 0.985 . S
C562 C556 1.379 . S
C562 C559 1.363 . S
C562 N560 1.356 . S
C563 C557 1.363 . S
C563 C558 1.379 . S
C563 N561 1.356 . S
N564 C556 1.356 . S
N564 H570 0.984 . S
N564 H571 0.984 . S
N565 C558 1.356 . S
N565 H568 0.984 . S
N565 H569 0.985 . S
H566 N561 0.984 . S
H567 N561 0.985 . S
H568 N565 0.984 . S
H569 N565 0.985 . S
H570 N564 0.984 . S
H571 N564 0.984 . S
H572 N560 0.984 . S
H573 N560 0.985 . S
C574 C575 1.363 . S
C574 C580 1.379 . S
C574 N582 1.356 . S
C575 C574 1.363 . S
C575 C581 1.363 . S
C576 C577 1.363 . S
C576 C581 1.379 . S
C576 N583 1.356 . S
C577 C576 1.363 . S
C577 C580 1.363 . S
N578 C580 1.356 . S
N578 H590 0.984 . S
N578 H591 0.985 . S
N579 C581 1.356 . S
N579 H584 0.984 . S
N579 H585 0.985 . S
C580 C574 1.379 . S
C580 C577 1.363 . S
C580 N578 1.356 . S
C581 C575 1.363 . S
C581 C576 1.379 . S
C581 N579 1.356 . S
N582 C574 1.356 . S
N582 H588 0.984 . S
N582 H589 0.984 . S
N583 C576 1.356 . S
N583 H586 0.984 . S
N583 H587 0.985 . S
H584 N579 0.984 . S
H585 N579 0.985 . S
H586 N583 0.984 . S
H587 N583 0.985 . S
H588 N582 0.984 . S
H589 N582 0.984 . S
H590 N578 0.984 . S
H591 N578 0.985 . S
C592 C593 1.363 1_655 S
C592 C598 1.379 . S
C592 N600 1.356 . S
C593 C592 1.363 1_455 S
C593 C599 1.363 . S
C594 C595 1.363 1_455 S
C594 C599 1.379 . S
C594 N601 1.356 . S
C595 C594 1.363 1_655 S
C595 C598 1.363 . S
N596 C598 1.356 . S
N596 H608 0.984 . S
N596 H609 0.985 . S
N597 C599 1.356 . S
N597 H602 0.984 . S
N597 H603 0.985 . S
C598 C592 1.379 . S
C598 C595 1.363 . S
C598 N596 1.356 . S
C599 C593 1.363 . S
C599 C594 1.379 . S
C599 N597 1.356 . S
N600 C592 1.356 . S
N600 H606 0.984 . S
N600 H607 0.984 . S
N601 C594 1.356 . S
N601 H604 0.984 . S
N601 H605 0.985 . S
H602 N597 0.984 . S
H603 N597 0.985 . S
H604 N601 0.984 . S
H605 N601 0.985 . S
H606 N600 0.984 . S
H607 N600 0.984 . S
H608 N596 0.984 . S
H609 N596 0.985 . S
C610 C611 1.360 1_556 S
C610 C616 1.379 . S
C610 N618 1.356 1_556 S
C611 C610 1.360 1_554 S
C611 C617 1.356 1_554 S
C612 C613 1.363 . S
C612 C617 1.379 . S
C612 N619 1.356 . S
C613 C612 1.363 . S
C613 C616 1.363 . S
N614 C616 1.356 . S
N614 H626 0.984 . S
N614 H627 0.985 . S
N615 C617 1.356 . S
N615 H620 0.984 1_556 S
N615 H621 0.985 . S
C616 C610 1.379 . S
C616 C613 1.363 . S
C616 N614 1.356 . S
C617 C611 1.356 1_556 S
C617 C612 1.379 . S
C617 N615 1.356 . S
N618 C610 1.356 1_554 S
N618 H624 0.984 . S
N618 H625 0.984 . S
N619 C612 1.356 . S
N619 H622 0.984 . S
N619 H623 0.985 . S
H620 N615 0.984 1_554 S
H621 N615 0.985 . S
H622 N619 0.984 . S
H623 N619 0.985 . S
H624 N618 0.984 . S
H625 N618 0.984 . S
H626 N614 0.984 . S
H627 N614 0.985 . S
C628 C629 1.363 . S
C628 C634 1.379 . S
C628 N636 1.356 . S
C629 C628 1.363 . S
C629 C635 1.363 . S
C630 C631 1.363 . S
C630 C635 1.379 . S
C630 N637 1.356 . S
C631 C630 1.363 . S
C631 C634 1.363 . S
N632 C634 1.356 . S
N632 H644 0.984 . S
N632 H645 0.985 . S
N633 C635 1.356 . S
N633 H638 0.984 . S
N633 H639 0.985 . S
C634 C628 1.379 . S
C634 C631 1.363 . S
C634 N632 1.356 . S
C635 C629 1.363 . S
C635 C630 1.379 . S
C635 N633 1.356 . S
N636 C628 1.356 . S
N636 H642 0.984 . S
N636 H643 0.984 . S
N637 C630 1.356 . S
N637 H640 0.984 . S
N637 H641 0.985 . S
H638 N633 0.984 . S
H639 N633 0.985 . S
H640 N637 0.984 . S
H641 N637 0.985 . S
H642 N636 0.984 . S
H643 N636 0.984 . S
H644 N632 0.984 . S
H645 N632 0.985 . S
C646 C647 1.363 . S
C646 C652 1.379 . S
C646 N654 1.356 . S
C647 C646 1.363 . S
C647 C653 1.363 . S
C648 C649 1.363 . S
C648 C653 1.379 . S
C648 N655 1.356 . S
C649 C648 1.363 . S
C649 C652 1.363 . S
N650 C652 1.356 . S
N650 H662 0.984 . S
N650 H663 0.985 . S
N651 C653 1.356 . S
N651 H656 0.984 . S
N651 H657 0.985 . S
C652 C646 1.379 . S
C652 C649 1.363 . S
C652 N650 1.356 . S
C653 C647 1.363 . S
C653 C648 1.379 . S
C653 N651 1.356 . S
N654 C646 1.356 . S
N654 H660 0.984 . S
N654 H661 0.984 . S
N655 C648 1.356 . S
N655 H658 0.984 . S
N655 H659 0.985 . S
H656 N651 0.984 . S
H657 N651 0.985 . S
H658 N655 0.984 . S
H659 N655 0.985 . S
H660 N654 0.984 . S
H661 N654 0.984 . S
H662 N650 0.984 . S
H663 N650 0.985 . S
C664 C665 1.363 1_455 S
C664 C670 1.379 . S
C664 N672 1.356 . S
C665 C664 1.363 1_655 S
C665 C671 1.363 . S
C666 C667 1.363 1_655 S
C666 C671 1.379 . S
C666 N673 1.356 . S
C667 C666 1.363 1_455 S
C667 C670 1.363 . S
N668 C670 1.356 . S
N668 H680 0.984 . S
N668 H681 0.985 . S
N669 C671 1.356 . S
N669 H674 0.984 . S
N669 H675 0.985 . S
C670 C664 1.379 . S
C670 C667 1.363 . S
C670 N668 1.356 . S
C671 C665 1.363 . S
C671 C666 1.379 . S
C671 N669 1.356 . S
N672 C664 1.356 . S
N672 H678 0.984 . S
N672 H679 0.984 . S
N673 C666 1.356 . S
N673 H676 0.984 . S
N673 H677 0.985 . S
H674 N669 0.984 . S
H675 N669 0.985 . S
H676 N673 0.984 . S
H677 N673 0.985 . S
H678 N672 0.984 . S
H679 N672 0.984 . S
H680 N668 0.984 . S
H681 N668 0.985 . S
C682 C683 1.363 . S
C682 C688 1.379 . S
C682 N690 1.356 . S
C683 C682 1.363 . S
C683 C689 1.363 . S
C684 C685 1.360 1_554 S
C684 C689 1.379 . S
C684 N691 1.356 1_554 S
C685 C684 1.360 1_556 S
C685 C688 1.357 1_556 S
N686 C688 1.356 . S
N686 H698 0.984 . S
N686 H699 0.985 1_554 S
N687 C689 1.356 . S
N687 H692 0.984 . S
N687 H693 0.985 . S
C688 C682 1.379 . S
C688 C685 1.357 1_554 S
C688 N686 1.356 . S
C689 C683 1.363 . S
C689 C684 1.379 . S
C689 N687 1.356 . S
N690 C682 1.356 . S
N690 H696 0.984 . S
N690 H697 0.984 . S
N691 C684 1.356 1_556 S
N691 H694 0.984 . S
N691 H695 0.985 . S
H692 N687 0.984 . S
H693 N687 0.985 . S
H694 N691 0.984 . S
H695 N691 0.985 . S
H696 N690 0.984 . S
H697 N690 0.984 . S
H698 N686 0.984 . S
H699 N686 0.985 1_556 S
C700 C701 1.363 . S
C700 C706 1.379 . S
C700 N708 1.356 . S
C701 C700 1.363 . S
C701 C707 1.363 . S
C702 C703 1.363 . S
C702 C707 1.379 . S
C702 N709 1.356 . S
C703 C702 1.363 . S
C703 C706 1.363 . S
N704 C706 1.356 . S
N704 H716 0.984 . S
N704 H717 0.985 . S
N705 C707 1.356 . S
N705 H710 0.984 . S
N705 H711 0.985 . S
C706 C700 1.379 . S
C706 C703 1.363 . S
C706 N704 1.356 . S
C707 C701 1.363 . S
C707 C702 1.379 . S
C707 N705 1.356 . S
N708 C700 1.356 . S
N708 H714 0.984 . S
N708 H715 0.984 . S
N709 C702 1.356 . S
N709 H712 0.984 . S
N709 H713 0.985 . S
H710 N705 0.984 . S
H711 N705 0.985 . S
H712 N709 0.984 . S
H713 N709 0.985 . S
H714 N708 0.984 . S
H715 N708 0.984 . S
H716 N704 0.984 . S
H717 N704 0.985 . S
C718 C719 1.363 . S
C718 C724 1.379 . S
C718 N726 1.356 . S
C719 C718 1.363 . S
C719 C725 1.363 . S
C720 C721 1.363 . S
C720 C725 1.379 . S
C720 N727 1.356 . S
C721 C720 1.363 . S
C721 C724 1.363 . S
N722 C724 1.356 . S
N722 H734 0.984 . S
N722 H735 0.985 . S
N723 C725 1.356 . S
N723 H728 0.984 . S
N723 H729 0.985 . S
C724 C718 1.379 . S
C724 C721 1.363 . S
C724 N722 1.356 . S
C725 C719 1.363 . S
C725 C720 1.379 . S
C725 N723 1.356 . S
N726 C718 1.356 . S
N726 H732 0.984 . S
N726 H733 0.984 . S
N727 C720 1.356 . S
N727 H730 0.984 . S
N727 H731 0.985 . S
H728 N723 0.984 . S
H729 N723 0.985 . S
H730 N727 0.984 . S
H731 N727 0.985 . S
H732 N726 0.984 . S
H733 N726 0.984 . S
H734 N722 0.984 . S
H735 N722 0.985 . S
C736 C737 1.363 . S
C736 C742 1.379 . S
C736 N744 1.356 . S
C737 C736 1.363 . S
C737 C743 1.363 . S
C738 C739 1.363 . S
C738 C743 1.379 . S
C738 N745 1.356 . S
C739 C738 1.363 . S
C739 C742 1.363 . S
N740 C742 1.356 . S
N740 H752 0.984 . S
N740 H753 0.985 . S
N741 C743 1.356 . S
N741 H746 0.984 . S
N741 H747 0.985 . S
C742 C736 1.379 . S
C742 C739 1.363 . S
C742 N740 1.356 . S
C743 C737 1.363 . S
C743 C738 1.379 . S
C743 N741 1.356 . S
N744 C736 1.356 . S
N744 H750 0.984 . S
N744 H751 0.984 . S
N745 C738 1.356 . S
N745 H748 0.984 . S
N745 H749 0.985 . S
H746 N741 0.984 . S
H747 N741 0.985 . S
H748 N745 0.984 . S
H749 N745 0.985 . S
H750 N744 0.984 . S
H751 N744 0.984 . S
H752 N740 0.984 . S
H753 N740 0.985 . S
C754 C755 1.363 . S
C754 C760 1.379 . S
C754 N762 1.356 . S
C755 C754 1.363 . S
C755 C761 1.363 . S
C756 C757 1.363 . S
C756 C761 1.379 . S
C756 N763 1.356 . S
C757 C756 1.363 . S
C757 C760 1.363 . S
N758 C760 1.356 . S
N758 H770 0.984 . S
N758 H771 0.985 . S
N759 C761 1.356 . S
N759 H764 0.984 . S
N759 H765 0.985 . S
C760 C754 1.379 . S
C760 C757 1.363 . S
C760 N758 1.356 . S
C761 C755 1.363 . S
C761 C756 1.379 . S
C761 N759 1.356 . S
N762 C754 1.356 . S
N762 H768 0.984 . S
N762 H769 0.984 . S
N763 C756 1.356 . S
N763 H766 0.984 . S
N763 H767 0.985 . S
H764 N759 0.984 . S
H765 N759 0.985 . S
H766 N763 0.984 . S
H767 N763 0.985 . S
H768 N762 0.984 . S
H769 N762 0.984 . S
H770 N758 0.984 . S
H771 N758 0.985 . S
C772 C773 1.363 1_655 S
C772 C778 1.379 . S
C772 N780 1.358 . S
C773 C772 1.363 1_455 S
C773 C779 1.363 . S
C774 C775 1.377 . S
C774 C779 1.367 1_655 S
C774 N781 1.360 . S
C775 C774 1.377 . S
C775 C778 1.363 . S
N776 C778 1.356 . S
N776 H788 0.984 . S
N776 H789 0.985 . S
N777 C779 1.356 . S
N777 H782 0.984 . S
N777 H783 0.985 . S
C778 C772 1.379 . S
C778 C775 1.363 . S
C778 N776 1.356 . S
C779 C773 1.363 . S
C779 C774 1.367 1_455 S
C779 N777 1.356 . S
N780 C772 1.358 . S
N780 H786 0.990 . S
N780 H787 0.978 1_655 S
N781 C774 1.360 . S
N781 H784 0.984 . S
N781 H785 0.985 1_655 S
H782 N777 0.984 . S
H783 N777 0.985 . S
H784 N781 0.984 . S
H785 N781 0.985 1_455 S
H786 N780 0.990 . S
H787 N780 0.978 1_455 S
H788 N776 0.984 . S
H789 N776 0.985 . S
C790 C791 1.363 . S
C790 C796 1.379 . S
C790 N798 1.356 . S
C791 C790 1.363 . S
C791 C797 1.363 . S
C792 C793 1.356 1_554 S
C792 C797 1.379 . S
C792 N799 1.356 . S
C793 C792 1.356 1_556 S
C793 C796 1.360 1_556 S
N794 C796 1.356 1_556 S
N794 H806 0.984 . S
N794 H807 0.985 . S
N795 C797 1.356 . S
N795 H800 0.984 . S
N795 H801 0.985 . S
C796 C790 1.379 . S
C796 C793 1.360 1_554 S
C796 N794 1.356 1_554 S
C797 C791 1.363 . S
C797 C792 1.379 . S
C797 N795 1.356 . S
N798 C790 1.356 . S
N798 H804 0.984 . S
N798 H805 0.984 . S
N799 C792 1.356 . S
N799 H802 0.984 1_554 S
N799 H803 0.985 . S
H800 N795 0.984 . S
H801 N795 0.985 . S
H802 N799 0.984 1_556 S
H803 N799 0.985 . S
H804 N798 0.984 . S
H805 N798 0.984 . S
H806 N794 0.984 . S
H807 N794 0.985 . S
C808 C809 1.363 . S
C808 C814 1.379 . S
C808 N816 1.356 . S
C809 C808 1.363 . S
C809 C815 1.363 . S
C810 C811 1.363 . S
C810 C815 1.379 . S
C810 N817 1.356 . S
C811 C810 1.363 . S
C811 C814 1.363 . S
N812 C814 1.356 . S
N812 H824 0.984 . S
N812 H825 0.985 . S
N813 C815 1.356 . S
N813 H818 0.984 . S
N813 H819 0.985 . S
C814 C808 1.379 . S
C814 C811 1.363 . S
C814 N812 1.356 . S
C815 C809 1.363 . S
C815 C810 1.379 . S
C815 N813 1.356 . S
N816 C808 1.356 . S
N816 H822 0.984 . S
N816 H823 0.984 . S
N817 C810 1.356 . S
N817 H820 0.984 . S
N817 H821 0.985 . S
H818 N813 0.984 . S
H819 N813 0.985 . S
H820 N817 0.984 . S
H821 N817 0.985 . S
H822 N816 0.984 . S
H823 N816 0.984 . S
H824 N812 0.984 . S
H825 N812 0.985 . S
C826 C827 1.363 . S
C826 C832 1.379 . S
C826 N834 1.356 . S
C827 C826 1.363 . S
C827 C833 1.363 . S
C828 C829 1.363 . S
C828 C833 1.379 . S
C828 N835 1.356 . S
C829 C828 1.363 . S
C829 C832 1.363 . S
N830 C832 1.356 . S
N830 H842 0.984 . S
N830 H843 0.985 . S
N831 C833 1.356 . S
N831 H836 0.984 . S
N831 H837 0.985 . S
C832 C826 1.379 . S
C832 C829 1.363 . S
C832 N830 1.356 . S
C833 C827 1.363 . S
C833 C828 1.379 . S
C833 N831 1.356 . S
N834 C826 1.356 . S
N834 H840 0.984 . S
N834 H841 0.984 . S
N835 C828 1.356 . S
N835 H838 0.984 . S
N835 H839 0.985 . S
H836 N831 0.984 . S
H837 N831 0.985 . S
H838 N835 0.984 . S
H839 N835 0.985 . S
H840 N834 0.984 . S
H841 N834 0.984 . S
H842 N830 0.984 . S
H843 N830 0.985 . S
C844 C845 1.363 1_655 S
C844 C850 1.379 . S
C844 N852 1.356 1_655 S
C845 C844 1.363 1_455 S
C845 C851 1.363 . S
C846 C847 1.363 . S
C846 C851 1.379 1_655 S
C846 N853 1.356 . S
C847 C846 1.363 . S
C847 C850 1.363 . S
N848 C850 1.356 . S
N848 H860 0.984 . S
N848 H861 0.985 . S
N849 C851 1.356 . S
N849 H854 0.984 . S
N849 H855 0.985 . S
C850 C844 1.379 . S
C850 C847 1.363 . S
C850 N848 1.356 . S
C851 C845 1.363 . S
C851 C846 1.379 1_455 S
C851 N849 1.356 . S
N852 C844 1.356 1_455 S
N852 H858 0.989 . S
N852 H859 0.984 . S
N853 C846 1.356 . S
N853 H856 0.984 . S
N853 H857 0.985 . S
H854 N849 0.984 . S
H855 N849 0.985 . S
H856 N853 0.984 . S
H857 N853 0.985 . S
H858 N852 0.989 . S
H859 N852 0.984 . S
H860 N848 0.984 . S
H861 N848 0.985 . S
C862 C863 1.359 1_556 S
C862 C868 1.379 . S
C862 N870 1.356 1_556 S
C863 C862 1.359 1_554 S
C863 C869 1.357 1_554 S
C864 C865 1.363 . S
C864 C869 1.379 . S
C864 N871 1.356 . S
C865 C864 1.363 . S
C865 C868 1.363 . S
N866 C868 1.356 . S
N866 H878 0.984 . S
N866 H879 0.985 . S
N867 C869 1.364 . S
N867 H872 0.972 1_556 S
N867 H873 0.989 . S
C868 C862 1.379 . S
C868 C865 1.363 . S
C868 N866 1.356 . S
C869 C863 1.357 1_556 S
C869 C864 1.379 . S
C869 N867 1.364 . S
N870 C862 1.356 1_554 S
N870 H876 0.984 . S
N870 H877 0.984 . S
N871 C864 1.356 . S
N871 H874 0.984 . S
N871 H875 0.985 . S
H872 N867 0.972 1_554 S
H873 N867 0.989 . S
H874 N871 0.984 . S
H875 N871 0.985 . S
H876 N870 0.984 . S
H877 N870 0.984 . S
H878 N866 0.984 . S
H879 N866 0.985 . S
C880 C881 1.363 . S
C880 C886 1.379 . S
C880 N888 1.356 . S
C881 C880 1.363 . S
C881 C887 1.363 . S
C882 C883 1.363 . S
C882 C887 1.379 . S
C882 N889 1.356 . S
C883 C882 1.363 . S
C883 C886 1.363 . S
N884 C886 1.356 . S
N884 H896 0.984 . S
N884 H897 0.985 . S
N885 C887 1.356 . S
N885 H890 0.984 . S
N885 H891 0.985 . S
C886 C880 1.379 . S
C886 C883 1.363 . S
C886 N884 1.356 . S
C887 C881 1.363 . S
C887 C882 1.379 . S
C887 N885 1.356 . S
N888 C880 1.356 . S
N888 H894 0.984 . S
N888 H895 0.984 . S
N889 C882 1.356 . S
N889 H892 0.984 . S
N889 H893 0.985 . S
H890 N885 0.984 . S
H891 N885 0.985 . S
H892 N889 0.984 . S
H893 N889 0.985 . S
H894 N888 0.984 . S
H895 N888 0.984 . S
H896 N884 0.984 . S
H897 N884 0.985 . S
C898 C899 1.363 . S
C898 C904 1.379 . S
C898 N906 1.356 . S
C899 C898 1.363 . S
C899 C905 1.363 . S
C900 C901 1.363 . S
C900 C905 1.379 . S
C900 N907 1.356 . S
C901 C900 1.363 . S
C901 C904 1.363 . S
N902 C904 1.356 . S
N902 H914 0.984 . S
N902 H915 0.985 . S
N903 C905 1.356 . S
N903 H908 0.984 . S
N903 H909 0.985 . S
C904 C898 1.379 . S
C904 C901 1.363 . S
C904 N902 1.356 . S
C905 C899 1.363 . S
C905 C900 1.379 . S
C905 N903 1.356 . S
N906 C898 1.356 . S
N906 H912 0.984 . S
N906 H913 0.984 . S
N907 C900 1.356 . S
N907 H910 0.984 . S
N907 H911 0.985 . S
H908 N903 0.984 . S
H909 N903 0.985 . S
H910 N907 0.984 . S
H911 N907 0.985 . S
H912 N906 0.984 . S
H913 N906 0.984 . S
H914 N902 0.984 . S
H915 N902 0.985 . S
C916 C917 1.363 1_655 S
C916 C922 1.379 . S
C916 N924 1.356 . S
C917 C916 1.363 1_455 S
C917 C923 1.363 . S
C918 C919 1.363 1_455 S
C918 C923 1.379 . S
C918 N925 1.356 . S
C919 C918 1.363 1_655 S
C919 C922 1.363 . S
N920 C922 1.356 . S
N920 H932 0.984 . S
N920 H933 0.985 . S
N921 C923 1.356 . S
N921 H926 0.984 . S
N921 H927 0.985 . S
C922 C916 1.379 . S
C922 C919 1.363 . S
C922 N920 1.356 . S
C923 C917 1.363 . S
C923 C918 1.379 . S
C923 N921 1.356 . S
N924 C916 1.356 . S
N924 H930 0.984 . S
N924 H931 0.984 . S
N925 C918 1.356 . S
N925 H928 0.984 . S
N925 H929 0.985 . S
H926 N921 0.984 . S
H927 N921 0.985 . S
H928 N925 0.984 . S
H929 N925 0.985 . S
H930 N924 0.984 . S
H931 N924 0.984 . S
H932 N920 0.984 . S
H933 N920 0.985 . S
C934 C935 1.363 . S
C934 C940 1.379 . S
C934 N942 1.356 . S
C935 C934 1.363 . S
C935 C941 1.363 . S
C936 C937 1.360 1_556 S
C936 C941 1.379 . S
C936 N943 1.356 1_556 S
C937 C936 1.360 1_554 S
C937 C940 1.356 1_554 S
N938 C940 1.356 . S
N938 H950 0.984 . S
N938 H951 0.985 1_556 S
N939 C941 1.356 . S
N939 H944 0.984 . S
N939 H945 0.985 . S
C940 C934 1.379 . S
C940 C937 1.356 1_556 S
C940 N938 1.356 . S
C941 C935 1.363 . S
C941 C936 1.379 . S
C941 N939 1.356 . S
N942 C934 1.356 . S
N942 H948 0.984 . S
N942 H949 0.984 . S
N943 C936 1.356 1_554 S
N943 H946 0.984 . S
N943 H947 0.985 . S
H944 N939 0.984 . S
H945 N939 0.985 . S
H946 N943 0.984 . S
H947 N943 0.985 . S
H948 N942 0.984 . S
H949 N942 0.984 . S
H950 N938 0.984 . S
H951 N938 0.985 1_554 S
C952 C953 1.363 . S
C952 C958 1.379 . S
C952 N960 1.356 . S
C953 C952 1.363 . S
C953 C959 1.363 . S
C954 C955 1.363 . S
C954 C959 1.379 . S
C954 N961 1.356 . S
C955 C954 1.363 . S
C955 C958 1.363 . S
N956 C958 1.356 . S
N956 H968 0.984 . S
N956 H969 0.985 . S
N957 C959 1.356 . S
N957 H962 0.984 . S
N957 H963 0.985 . S
C958 C952 1.379 . S
C958 C955 1.363 . S
C958 N956 1.356 . S
C959 C953 1.363 . S
C959 C954 1.379 . S
C959 N957 1.356 . S
N960 C952 1.356 . S
N960 H966 0.984 . S
N960 H967 0.984 . S
N961 C954 1.356 . S
N961 H964 0.984 . S
N961 H965 0.985 . S
H962 N957 0.984 . S
H963 N957 0.985 . S
H964 N961 0.984 . S
H965 N961 0.985 . S
H966 N960 0.984 . S
H967 N960 0.984 . S
H968 N956 0.984 . S
H969 N956 0.985 . S
C970 C971 1.363 . S
C970 C976 1.379 . S
C970 N978 1.356 . S
C971 C970 1.363 . S
C971 C977 1.363 . S
C972 C973 1.363 . S
C972 C977 1.379 . S
C972 N979 1.356 . S
C973 C972 1.363 . S
C973 C976 1.363 . S
N974 C976 1.356 . S
N974 H986 0.984 . S
N974 H987 0.985 . S
N975 C977 1.356 . S
N975 H980 0.984 . S
N975 H981 0.985 . S
C976 C970 1.379 . S
C976 C973 1.363 . S
C976 N974 1.356 . S
C977 C971 1.363 . S
C977 C972 1.379 . S
C977 N975 1.356 . S
N978 C970 1.356 . S
N978 H984 0.984 . S
N978 H985 0.984 . S
N979 C972 1.356 . S
N979 H982 0.984 . S
N979 H983 0.985 . S
H980 N975 0.984 . S
H981 N975 0.985 . S
H982 N979 0.984 . S
H983 N979 0.985 . S
H984 N978 0.984 . S
H985 N978 0.984 . S
H986 N974 0.984 . S
H987 N974 0.985 . S
C988 C989 1.363 . S
C988 C994 1.379 . S
C988 N996 1.356 . S
C989 C988 1.363 . S
C989 C995 1.363 1_655 S
C990 C991 1.363 . S
C990 C995 1.379 . S
C990 N997 1.356 . S
C991 C990 1.363 . S
C991 C994 1.363 1_455 S
N992 C994 1.356 . S
N992 H1004 0.984 . S
N992 H1005 0.985 . S
N993 C995 1.356 . S
N993 H998 0.984 . S
N993 H999 0.985 . S
C994 C988 1.379 . S
C994 C991 1.363 1_655 S
C994 N992 1.356 . S
C995 C989 1.363 1_455 S
C995 C990 1.379 . S
C995 N993 1.356 . S
N996 C988 1.356 . S
N996 H1002 0.984 . S
N996 H1003 0.984 . S
N997 C990 1.356 . S
N997 H1000 0.984 . S
N997 H1001 0.985 . S
H998 N993 0.984 . S
H999 N993 0.985 . S
H1000 N997 0.984 . S
H1001 N997 0.985 . S
H1002 N996 0.984 . S
H1003 N996 0.984 . S
H1004 N992 0.984 . S
H1005 N992 0.985 . S
C1006 C1007 1.363 . S
C1006 C1012 1.379 . S
C1006 N1014 1.356 . S
C1007 C1006 1.363 . S
C1007 C1013 1.363 . S
C1008 C1009 1.357 1_554 S
C1008 C1013 1.379 . S
C1008 N1015 1.356 . S
C1009 C1008 1.357 1_556 S
C1009 C1012 1.360 1_556 S
N1010 C1012 1.356 1_556 S
N1010 H1022 0.984 . S
N1010 H1023 0.985 . S
N1011 C1013 1.356 . S
N1011 H1016 0.984 . S
N1011 H1017 0.985 . S
C1012 C1006 1.379 . S
C1012 C1009 1.360 1_554 S
C1012 N1010 1.356 1_554 S
C1013 C1007 1.363 . S
C1013 C1008 1.379 . S
C1013 N1011 1.356 . S
N1014 C1006 1.356 . S
N1014 H1020 0.984 . S
N1014 H1021 0.984 . S
N1015 C1008 1.356 . S
N1015 H1018 0.984 1_554 S
N1015 H1019 0.985 . S
H1016 N1011 0.984 . S
H1017 N1011 0.985 . S
H1018 N1015 0.984 1_556 S
H1019 N1015 0.985 . S
H1020 N1014 0.984 . S
H1021 N1014 0.984 . S
H1022 N1010 0.984 . S
H1023 N1010 0.985 . S
C1024 C1025 1.363 1_556 S
C1024 C1030 1.379 1_545 S
C1024 N1032 1.356 . S
C1025 C1024 1.363 1_554 S
C1025 C1031 1.363 1_655 S
C1026 C1027 1.363 1_554 S
C1026 C1031 1.379 1_565 S
C1026 N1033 1.356 . S
C1027 C1026 1.363 1_556 S
C1027 C1030 1.363 1_455 S
N1028 C1030 1.356 . S
N1028 H1040 0.984 . S
N1028 H1041 0.985 . S
N1029 C1031 1.356 . S
N1029 H1034 0.984 . S
N1029 H1035 0.985 . S
C1030 C1024 1.379 1_565 S
C1030 C1027 1.363 1_655 S
C1030 N1028 1.356 . S
C1031 C1025 1.363 1_455 S
C1031 C1026 1.379 1_545 S
C1031 N1029 1.356 . S
N1032 C1024 1.356 . S
N1032 H1038 0.984 . S
N1032 H1039 0.984 . S
N1033 C1026 1.356 . S
N1033 H1036 0.984 . S
N1033 H1037 0.985 . S
H1034 N1029 0.984 . S
H1035 N1029 0.985 . S
H1036 N1033 0.984 . S
H1037 N1033 0.985 . S
H1038 N1032 0.984 . S
H1039 N1032 0.984 . S
H1040 N1028 0.984 . S
H1041 N1028 0.985 . S
C1042 C1043 1.363 . S
C1042 C1048 1.379 . S
C1042 N1050 1.356 . S
C1043 C1042 1.363 . S
C1043 C1049 1.363 . S
C1044 C1045 1.363 . S
C1044 C1049 1.379 . S
C1044 N1051 1.356 . S
C1045 C1044 1.363 . S
C1045 C1048 1.363 . S
N1046 C1048 1.356 . S
N1046 H1058 0.984 . S
N1046 H1059 0.985 . S
N1047 C1049 1.356 . S
N1047 H1052 0.984 . S
N1047 H1053 0.985 . S
C1048 C1042 1.379 . S
C1048 C1045 1.363 . S
C1048 N1046 1.356 . S
C1049 C1043 1.363 . S
C1049 C1044 1.379 . S
C1049 N1047 1.356 . S
N1050 C1042 1.356 . S
N1050 H1056 0.984 . S
N1050 H1057 0.984 . S
N1051 C1044 1.356 . S
N1051 H1054 0.984 . S
N1051 H1055 0.985 . S
H1052 N1047 0.984 . S
H1053 N1047 0.985 . S
H1054 N1051 0.984 . S
H1055 N1051 0.985 . S
H1056 N1050 0.984 . S
H1057 N1050 0.984 . S
H1058 N1046 0.984 . S
H1059 N1046 0.985 . S
C1060 C1061 1.363 . S
C1060 C1066 1.379 1_545 S
C1060 N1068 1.356 . S
C1061 C1060 1.363 . S
C1061 C1067 1.363 . S
C1062 C1063 1.363 . S
C1062 C1067 1.379 1_565 S
C1062 N1069 1.356 . S
C1063 C1062 1.363 . S
C1063 C1066 1.363 . S
N1064 C1066 1.356 . S
N1064 H1076 0.984 . S
N1064 H1077 0.985 . S
N1065 C1067 1.356 . S
N1065 H1070 0.984 . S
N1065 H1071 0.985 . S
C1066 C1060 1.379 1_565 S
C1066 C1063 1.363 . S
C1066 N1064 1.356 . S
C1067 C1061 1.363 . S
C1067 C1062 1.379 1_545 S
C1067 N1065 1.356 . S
N1068 C1060 1.356 . S
N1068 H1074 0.984 . S
N1068 H1075 0.984 . S
N1069 C1062 1.356 . S
N1069 H1072 0.984 . S
N1069 H1073 0.985 . S
H1070 N1065 0.984 . S
H1071 N1065 0.985 . S
H1072 N1069 0.984 . S
H1073 N1069 0.985 . S
H1074 N1068 0.984 . S
H1075 N1068 0.984 . S
H1076 N1064 0.984 . S
H1077 N1064 0.985 . S
C1078 C1079 1.363 . S
C1078 C1084 1.379 . S
C1078 N1086 1.356 . S
C1079 C1078 1.363 . S
C1079 C1085 1.363 . S
C1080 C1081 1.363 . S
C1080 C1085 1.379 . S
C1080 N1087 1.356 . S
C1081 C1080 1.363 . S
C1081 C1084 1.363 . S
N1082 C1084 1.356 . S
N1082 H1094 0.984 . S
N1082 H1095 0.985 . S
N1083 C1085 1.356 . S
N1083 H1088 0.984 . S
N1083 H1089 0.985 . S
C1084 C1078 1.379 . S
C1084 C1081 1.363 . S
C1084 N1082 1.356 . S
C1085 C1079 1.363 . S
C1085 C1080 1.379 . S
C1085 N1083 1.356 . S
N1086 C1078 1.356 . S
N1086 H1092 0.984 . S
N1086 H1093 0.984 . S
N1087 C1080 1.356 . S
N1087 H1090 0.984 . S
N1087 H1091 0.985 . S
H1088 N1083 0.984 . S
H1089 N1083 0.985 . S
H1090 N1087 0.984 . S
H1091 N1087 0.985 . S
H1092 N1086 0.984 . S
H1093 N1086 0.984 . S
H1094 N1082 0.984 . S
H1095 N1082 0.985 . S
C1096 C1097 1.363 1_455 S
C1096 C1102 1.379 1_565 S
C1096 N1104 1.356 . S
C1097 C1096 1.363 1_655 S
C1097 C1103 1.363 . S
C1098 C1099 1.363 1_655 S
C1098 C1103 1.379 1_545 S
C1098 N1105 1.356 . S
C1099 C1098 1.363 1_455 S
C1099 C1102 1.363 . S
N1100 C1102 1.356 . S
N1100 H1112 0.984 . S
N1100 H1113 0.985 . S
N1101 C1103 1.356 . S
N1101 H1106 0.984 . S
N1101 H1107 0.985 . S
C1102 C1096 1.379 1_545 S
C1102 C1099 1.363 . S
C1102 N1100 1.356 . S
C1103 C1097 1.363 . S
C1103 C1098 1.379 1_565 S
C1103 N1101 1.356 . S
N1104 C1096 1.356 . S
N1104 H1110 0.984 . S
N1104 H1111 0.984 1_455 S
N1105 C1098 1.356 . S
N1105 H1108 0.984 1_655 S
N1105 H1109 0.985 . S
H1106 N1101 0.984 . S
H1107 N1101 0.985 . S
H1108 N1105 0.984 1_455 S
H1109 N1105 0.985 . S
H1110 N1104 0.984 . S
H1111 N1104 0.984 1_655 S
H1112 N1100 0.984 . S
H1113 N1100 0.985 . S
C1114 C1115 1.363 . S
C1114 C1120 1.379 . S
C1114 N1122 1.356 . S
C1115 C1114 1.363 . S
C1115 C1121 1.363 . S
C1116 C1117 1.363 . S
C1116 C1121 1.379 . S
C1116 N1123 1.356 . S
C1117 C1116 1.363 . S
C1117 C1120 1.363 . S
N1118 C1120 1.356 . S
N1118 H1130 0.984 . S
N1118 H1131 0.985 . S
N1119 C1121 1.356 . S
N1119 H1124 0.984 . S
N1119 H1125 0.985 . S
C1120 C1114 1.379 . S
C1120 C1117 1.363 . S
C1120 N1118 1.356 . S
C1121 C1115 1.363 . S
C1121 C1116 1.379 . S
C1121 N1119 1.356 . S
N1122 C1114 1.356 . S
N1122 H1128 0.984 . S
N1122 H1129 0.984 . S
N1123 C1116 1.356 . S
N1123 H1126 0.984 . S
N1123 H1127 0.985 . S
H1124 N1119 0.984 . S
H1125 N1119 0.985 . S
H1126 N1123 0.984 . S
H1127 N1123 0.985 . S
H1128 N1122 0.984 . S
H1129 N1122 0.984 . S
H1130 N1118 0.984 . S
H1131 N1118 0.985 . S
C1132 C1133 1.363 1_556 S
C1132 C1138 1.379 1_565 S
C1132 N1140 1.356 . S
C1133 C1132 1.363 1_554 S
C1133 C1139 1.363 . S
C1134 C1135 1.363 1_554 S
C1134 C1139 1.379 1_545 S
C1134 N1141 1.356 . S
C1135 C1134 1.363 1_556 S
C1135 C1138 1.363 . S
N1136 C1138 1.356 . S
N1136 H1148 0.984 . S
N1136 H1149 0.985 . S
N1137 C1139 1.356 . S
N1137 H1142 0.984 . S
N1137 H1143 0.985 . S
C1138 C1132 1.379 1_545 S
C1138 C1135 1.363 . S
C1138 N1136 1.356 . S
C1139 C1133 1.363 . S
C1139 C1134 1.379 1_565 S
C1139 N1137 1.356 . S
N1140 C1132 1.356 . S
N1140 H1146 0.984 . S
N1140 H1147 0.984 1_556 S
N1141 C1134 1.356 . S
N1141 H1144 0.984 1_554 S
N1141 H1145 0.985 . S
H1142 N1137 0.984 . S
H1143 N1137 0.985 . S
H1144 N1141 0.984 1_556 S
H1145 N1141 0.985 . S
H1146 N1140 0.984 . S
H1147 N1140 0.984 1_554 S
H1148 N1136 0.984 . S
H1149 N1136 0.985 . S
C1150 C1151 1.363 . S
C1150 C1156 1.379 . S
C1150 N1158 1.356 . S
C1151 C1150 1.363 . S
C1151 C1157 1.363 . S
C1152 C1153 1.363 . S
C1152 C1157 1.379 . S
C1152 N1159 1.356 . S
C1153 C1152 1.363 . S
C1153 C1156 1.363 . S
N1154 C1156 1.356 . S
N1154 H1166 0.984 . S
N1154 H1167 0.985 . S
N1155 C1157 1.356 . S
N1155 H1160 0.984 . S
N1155 H1161 0.985 . S
C1156 C1150 1.379 . S
C1156 C1153 1.363 . S
C1156 N1154 1.356 . S
C1157 C1151 1.363 . S
C1157 C1152 1.379 . S
C1157 N1155 1.356 . S
N1158 C1150 1.356 . S
N1158 H1164 0.984 . S
N1158 H1165 0.984 . S
N1159 C1152 1.356 . S
N1159 H1162 0.984 . S
N1159 H1163 0.985 . S
H1160 N1155 0.984 . S
H1161 N1155 0.985 . S
H1162 N1159 0.984 . S
H1163 N1159 0.985 . S
H1164 N1158 0.984 . S
H1165 N1158 0.984 . S
H1166 N1154 0.984 . S
H1167 N1154 0.985 . S
C1168 C1169 1.363 . S
C1168 C1174 1.379 . S
C1168 N1176 1.356 . S
C1169 C1168 1.363 . S
C1169 C1175 1.363 . S
C1170 C1171 1.363 . S
C1170 C1175 1.379 . S
C1170 N1177 1.356 . S
C1171 C1170 1.363 . S
C1171 C1174 1.363 . S
N1172 C1174 1.356 . S
N1172 H1184 0.984 . S
N1172 H1185 0.985 . S
N1173 C1175 1.356 . S
N1173 H1178 0.984 . S
N1173 H1179 0.985 . S
C1174 C1168 1.379 . S
C1174 C1171 1.363 . S
C1174 N1172 1.356 . S
C1175 C1169 1.363 . S
C1175 C1170 1.379 . S
C1175 N1173 1.356 . S
N1176 C1168 1.356 . S
N1176 H1182 0.984 . S
N1176 H1183 0.984 . S
N1177 C1170 1.356 . S
N1177 H1180 0.984 . S
N1177 H1181 0.985 . S
H1178 N1173 0.984 . S
H1179 N1173 0.985 . S
H1180 N1177 0.984 . S
H1181 N1177 0.985 . S
H1182 N1176 0.984 . S
H1183 N1176 0.984 . S
H1184 N1172 0.984 . S
H1185 N1172 0.985 . S
C1186 C1187 1.363 . S
C1186 C1192 1.379 . S
C1186 N1194 1.356 . S
C1187 C1186 1.363 . S
C1187 C1193 1.363 . S
C1188 C1189 1.363 . S
C1188 C1193 1.379 . S
C1188 N1195 1.356 . S
C1189 C1188 1.363 . S
C1189 C1192 1.363 . S
N1190 C1192 1.356 . S
N1190 H1202 0.984 . S
N1190 H1203 0.985 . S
N1191 C1193 1.356 . S
N1191 H1196 0.984 . S
N1191 H1197 0.985 . S
C1192 C1186 1.379 . S
C1192 C1189 1.363 . S
C1192 N1190 1.356 . S
C1193 C1187 1.363 . S
C1193 C1188 1.379 . S
C1193 N1191 1.356 . S
N1194 C1186 1.356 . S
N1194 H1200 0.984 . S
N1194 H1201 0.984 . S
N1195 C1188 1.356 . S
N1195 H1198 0.984 . S
N1195 H1199 0.985 . S
H1196 N1191 0.984 . S
H1197 N1191 0.985 . S
H1198 N1195 0.984 . S
H1199 N1195 0.985 . S
H1200 N1194 0.984 . S
H1201 N1194 0.984 . S
H1202 N1190 0.984 . S
H1203 N1190 0.985 . S
C1204 C1205 1.363 . S
C1204 C1210 1.379 . S
C1204 N1212 1.356 . S
C1205 C1204 1.363 . S
C1205 C1211 1.363 . S
C1206 C1207 1.363 . S
C1206 C1211 1.379 . S
C1206 N1213 1.356 . S
C1207 C1206 1.363 . S
C1207 C1210 1.363 . S
N1208 C1210 1.356 . S
N1208 H1220 0.984 . S
N1208 H1221 0.985 . S
N1209 C1211 1.356 . S
N1209 H1214 0.984 . S
N1209 H1215 0.985 . S
C1210 C1204 1.379 . S
C1210 C1207 1.363 . S
C1210 N1208 1.356 . S
C1211 C1205 1.363 . S
C1211 C1206 1.379 . S
C1211 N1209 1.356 . S
N1212 C1204 1.356 . S
N1212 H1218 0.984 . S
N1212 H1219 0.984 . S
N1213 C1206 1.356 . S
N1213 H1216 0.984 . S
N1213 H1217 0.985 . S
H1214 N1209 0.984 . S
H1215 N1209 0.985 . S
H1216 N1213 0.984 . S
H1217 N1213 0.985 . S
H1218 N1212 0.984 . S
H1219 N1212 0.984 . S
H1220 N1208 0.984 . S
H1221 N1208 0.985 . S
C1222 C1223 1.363 . S
C1222 C1228 1.379 . S
C1222 N1230 1.356 . S
C1223 C1222 1.363 . S
C1223 C1229 1.363 . S
C1224 C1225 1.363 . S
C1224 C1229 1.379 . S
C1224 N1231 1.356 . S
C1225 C1224 1.363 . S
C1225 C1228 1.363 . S
N1226 C1228 1.356 . S
N1226 H1238 0.984 . S
N1226 H1239 0.985 . S
N1227 C1229 1.356 . S
N1227 H1232 0.984 . S
N1227 H1233 0.985 . S
C1228 C1222 1.379 . S
C1228 C1225 1.363 . S
C1228 N1226 1.356 . S
C1229 C1223 1.363 . S
C1229 C1224 1.379 . S
C1229 N1227 1.356 . S
N1230 C1222 1.356 . S
N1230 H1236 0.984 . S
N1230 H1237 0.984 . S
N1231 C1224 1.356 . S
N1231 H1234 0.984 . S
N1231 H1235 0.985 . S
H1232 N1227 0.984 . S
H1233 N1227 0.985 . S
H1234 N1231 0.984 . S
H1235 N1231 0.985 . S
H1236 N1230 0.984 . S
H1237 N1230 0.984 . S
H1238 N1226 0.984 . S
H1239 N1226 0.985 . S
C1240 C1241 1.363 . S
C1240 C1246 1.379 . S
C1240 N1248 1.356 . S
C1241 C1240 1.363 . S
C1241 C1247 1.363 . S
C1242 C1243 1.363 . S
C1242 C1247 1.379 . S
C1242 N1249 1.356 . S
C1243 C1242 1.363 . S
C1243 C1246 1.363 . S
N1244 C1246 1.356 . S
N1244 H1256 0.984 . S
N1244 H1257 0.985 . S
N1245 C1247 1.356 . S
N1245 H1250 0.984 . S
N1245 H1251 0.985 . S
C1246 C1240 1.379 . S
C1246 C1243 1.363 . S
C1246 N1244 1.356 . S
C1247 C1241 1.363 . S
C1247 C1242 1.379 . S
C1247 N1245 1.356 . S
N1248 C1240 1.356 . S
N1248 H1254 0.984 . S
N1248 H1255 0.984 . S
N1249 C1242 1.356 . S
N1249 H1252 0.984 . S
N1249 H1253 0.985 . S
H1250 N1245 0.984 . S
H1251 N1245 0.985 . S
H1252 N1249 0.984 . S
H1253 N1249 0.985 . S
H1254 N1248 0.984 . S
H1255 N1248 0.984 . S
H1256 N1244 0.984 . S
H1257 N1244 0.985 . S
C1258 C1259 1.363 1_655 S
C1258 C1264 1.379 . S
C1258 N1266 1.356 . S
C1259 C1258 1.363 1_455 S
C1259 C1265 1.363 1_554 S
C1260 C1261 1.363 1_455 S
C1260 C1265 1.379 . S
C1260 N1267 1.356 . S
C1261 C1260 1.363 1_655 S
C1261 C1264 1.363 1_556 S
N1262 C1264 1.356 . S
N1262 H1274 0.984 . S
N1262 H1275 0.985 . S
N1263 C1265 1.356 . S
N1263 H1268 0.984 . S
N1263 H1269 0.985 . S
C1264 C1258 1.379 . S
C1264 C1261 1.363 1_554 S
C1264 N1262 1.356 . S
C1265 C1259 1.363 1_556 S
C1265 C1260 1.379 . S
C1265 N1263 1.356 . S
N1266 C1258 1.356 . S
N1266 H1272 0.984 . S
N1266 H1273 0.984 . S
N1267 C1260 1.356 . S
N1267 H1270 0.984 . S
N1267 H1271 0.985 . S
H1268 N1263 0.984 . S
H1269 N1263 0.985 . S
H1270 N1267 0.984 . S
H1271 N1267 0.985 . S
H1272 N1266 0.984 . S
H1273 N1266 0.984 . S
H1274 N1262 0.984 . S
H1275 N1262 0.985 . S
C1276 C1277 1.363 1_554 S
C1276 C1282 1.379 . S
C1276 N1284 1.356 . S
C1277 C1276 1.363 1_556 S
C1277 C1283 1.363 . S
C1278 C1279 1.363 1_556 S
C1278 C1283 1.379 . S
C1278 N1285 1.356 . S
C1279 C1278 1.363 1_554 S
C1279 C1282 1.363 . S
N1280 C1282 1.356 . S
N1280 H1292 0.984 . S
N1280 H1293 0.985 . S
N1281 C1283 1.356 . S
N1281 H1286 0.984 . S
N1281 H1287 0.985 . S
C1282 C1276 1.379 . S
C1282 C1279 1.363 . S
C1282 N1280 1.356 . S
C1283 C1277 1.363 . S
C1283 C1278 1.379 . S
C1283 N1281 1.356 . S
N1284 C1276 1.356 . S
N1284 H1290 0.984 . S
N1284 H1291 0.984 . S
N1285 C1278 1.356 . S
N1285 H1288 0.984 . S
N1285 H1289 0.985 . S
H1286 N1281 0.984 . S
H1287 N1281 0.985 . S
H1288 N1285 0.984 . S
H1289 N1285 0.985 . S
H1290 N1284 0.984 . S
H1291 N1284 0.984 . S
H1292 N1280 0.984 . S
H1293 N1280 0.985 . S
C1294 C1295 1.363 1_455 S
C1294 C1300 1.379 . S
C1294 N1302 1.356 . S
C1295 C1294 1.363 1_655 S
C1295 C1301 1.363 . S
C1296 C1297 1.363 1_655 S
C1296 C1301 1.379 . S
C1296 N1303 1.356 . S
C1297 C1296 1.363 1_455 S
C1297 C1300 1.363 . S
N1298 C1300 1.356 . S
N1298 H1310 0.984 . S
N1298 H1311 0.985 . S
N1299 C1301 1.356 . S
N1299 H1304 0.984 . S
N1299 H1305 0.985 . S
C1300 C1294 1.379 . S
C1300 C1297 1.363 . S
C1300 N1298 1.356 . S
C1301 C1295 1.363 . S
C1301 C1296 1.379 . S
C1301 N1299 1.356 . S
N1302 C1294 1.356 . S
N1302 H1308 0.984 . S
N1302 H1309 0.984 . S
N1303 C1296 1.356 . S
N1303 H1306 0.984 . S
N1303 H1307 0.985 . S
H1304 N1299 0.984 . S
H1305 N1299 0.985 . S
H1306 N1303 0.984 . S
H1307 N1303 0.985 . S
H1308 N1302 0.984 . S
H1309 N1302 0.984 . S
H1310 N1298 0.984 . S
H1311 N1298 0.985 . S
C1312 C1313 1.363 . S
C1312 C1318 1.379 . S
C1312 N1320 1.356 . S
C1313 C1312 1.363 . S
C1313 C1319 1.363 . S
C1314 C1315 1.363 . S
C1314 C1319 1.379 . S
C1314 N1321 1.356 . S
C1315 C1314 1.363 . S
C1315 C1318 1.363 . S
N1316 C1318 1.356 . S
N1316 H1328 0.984 . S
N1316 H1329 0.985 . S
N1317 C1319 1.356 . S
N1317 H1322 0.984 . S
N1317 H1323 0.985 1_554 S
C1318 C1312 1.379 . S
C1318 C1315 1.363 . S
C1318 N1316 1.356 . S
C1319 C1313 1.363 . S
C1319 C1314 1.379 . S
C1319 N1317 1.356 . S
N1320 C1312 1.356 . S
N1320 H1326 0.984 . S
N1320 H1327 0.984 . S
N1321 C1314 1.356 . S
N1321 H1324 0.984 . S
N1321 H1325 0.985 . S
H1322 N1317 0.984 . S
H1323 N1317 0.985 1_556 S
H1324 N1321 0.984 . S
H1325 N1321 0.985 . S
H1326 N1320 0.984 . S
H1327 N1320 0.984 . S
H1328 N1316 0.984 . S
H1329 N1316 0.985 . S
C1330 C1331 1.363 . S
C1330 C1336 1.379 . S
C1330 N1338 1.356 . S
C1331 C1330 1.363 . S
C1331 C1337 1.363 . S
C1332 C1333 1.363 . S
C1332 C1337 1.379 . S
C1332 N1339 1.356 . S
C1333 C1332 1.363 . S
C1333 C1336 1.363 . S
N1334 C1336 1.356 . S
N1334 H1346 0.984 . S
N1334 H1347 0.985 . S
N1335 C1337 1.356 . S
N1335 H1340 0.984 . S
N1335 H1341 0.985 . S
C1336 C1330 1.379 . S
C1336 C1333 1.363 . S
C1336 N1334 1.356 . S
C1337 C1331 1.363 . S
C1337 C1332 1.379 . S
C1337 N1335 1.356 . S
N1338 C1330 1.356 . S
N1338 H1344 0.984 . S
N1338 H1345 0.984 . S
N1339 C1332 1.356 . S
N1339 H1342 0.984 . S
N1339 H1343 0.985 . S
H1340 N1335 0.984 . S
H1341 N1335 0.985 . S
H1342 N1339 0.984 . S
H1343 N1339 0.985 . S
H1344 N1338 0.984 . S
H1345 N1338 0.984 . S
H1346 N1334 0.984 . S
H1347 N1334 0.985 . S
C1348 C1349 1.363 . S
C1348 C1354 1.379 . S
C1348 N1356 1.356 . S
C1349 C1348 1.363 . S
C1349 C1355 1.363 . S
C1350 C1351 1.363 . S
C1350 C1355 1.379 . S
C1350 N1357 1.356 . S
C1351 C1350 1.363 . S
C1351 C1354 1.363 . S
N1352 C1354 1.356 . S
N1352 H1364 0.984 . S
N1352 H1365 0.985 . S
N1353 C1355 1.356 . S
N1353 H1358 0.984 . S
N1353 H1359 0.985 . S
C1354 C1348 1.379 . S
C1354 C1351 1.363 . S
C1354 N1352 1.356 . S
C1355 C1349 1.363 . S
C1355 C1350 1.379 . S
C1355 N1353 1.356 . S
N1356 C1348 1.356 . S
N1356 H1362 0.984 . S
N1356 H1363 0.984 . S
N1357 C1350 1.356 . S
N1357 H1360 0.984 . S
N1357 H1361 0.985 . S
H1358 N1353 0.984 . S
H1359 N1353 0.985 . S
H1360 N1357 0.984 . S
H1361 N1357 0.985 . S
H1362 N1356 0.984 . S
H1363 N1356 0.984 . S
H1364 N1352 0.984 . S
H1365 N1352 0.985 . S
C1366 C1367 1.363 . S
C1366 C1372 1.379 . S
C1366 N1374 1.356 . S
C1367 C1366 1.363 . S
C1367 C1373 1.363 . S
C1368 C1369 1.363 . S
C1368 C1373 1.379 . S
C1368 N1375 1.356 . S
C1369 C1368 1.363 . S
C1369 C1372 1.363 . S
N1370 C1372 1.356 . S
N1370 H1382 0.984 . S
N1370 H1383 0.985 . S
N1371 C1373 1.356 . S
N1371 H1376 0.984 . S
N1371 H1377 0.985 . S
C1372 C1366 1.379 . S
C1372 C1369 1.363 . S
C1372 N1370 1.356 . S
C1373 C1367 1.363 . S
C1373 C1368 1.379 . S
C1373 N1371 1.356 . S
N1374 C1366 1.356 . S
N1374 H1380 0.984 . S
N1374 H1381 0.984 . S
N1375 C1368 1.356 . S
N1375 H1378 0.984 . S
N1375 H1379 0.985 . S
H1376 N1371 0.984 . S
H1377 N1371 0.985 . S
H1378 N1375 0.984 . S
H1379 N1375 0.985 . S
H1380 N1374 0.984 . S
H1381 N1374 0.984 . S
H1382 N1370 0.984 . S
H1383 N1370 0.985 . S
C1384 C1385 1.363 . S
C1384 C1390 1.379 . S
C1384 N1392 1.356 . S
C1385 C1384 1.363 . S
C1385 C1391 1.363 . S
C1386 C1387 1.363 . S
C1386 C1391 1.379 . S
C1386 N1393 1.356 . S
C1387 C1386 1.363 . S
C1387 C1390 1.363 . S
N1388 C1390 1.356 . S
N1388 H1400 0.984 . S
N1388 H1401 0.985 . S
N1389 C1391 1.356 . S
N1389 H1394 0.984 . S
N1389 H1395 0.985 . S
C1390 C1384 1.379 . S
C1390 C1387 1.363 . S
C1390 N1388 1.356 . S
C1391 C1385 1.363 . S
C1391 C1386 1.379 . S
C1391 N1389 1.356 . S
N1392 C1384 1.356 . S
N1392 H1398 0.984 . S
N1392 H1399 0.984 . S
N1393 C1386 1.356 . S
N1393 H1396 0.984 . S
N1393 H1397 0.985 1_556 S
H1394 N1389 0.984 . S
H1395 N1389 0.985 . S
H1396 N1393 0.984 . S
H1397 N1393 0.985 1_554 S
H1398 N1392 0.984 . S
H1399 N1392 0.984 . S
H1400 N1388 0.984 . S
H1401 N1388 0.985 . S
C1402 C1403 1.363 . S
C1402 C1408 1.379 . S
C1402 N1410 1.356 . S
C1403 C1402 1.363 . S
C1403 C1409 1.363 . S
C1404 C1405 1.363 . S
C1404 C1409 1.379 . S
C1404 N1411 1.356 . S
C1405 C1404 1.363 . S
C1405 C1408 1.363 . S
N1406 C1408 1.356 . S
N1406 H1418 0.984 . S
N1406 H1419 0.985 . S
N1407 C1409 1.356 . S
N1407 H1412 0.984 . S
N1407 H1413 0.985 . S
C1408 C1402 1.379 . S
C1408 C1405 1.363 . S
C1408 N1406 1.356 . S
C1409 C1403 1.363 . S
C1409 C1404 1.379 . S
C1409 N1407 1.356 . S
N1410 C1402 1.356 . S
N1410 H1416 0.984 . S
N1410 H1417 0.984 . S
N1411 C1404 1.356 . S
N1411 H1414 0.984 . S
N1411 H1415 0.985 . S
H1412 N1407 0.984 . S
H1413 N1407 0.985 . S
H1414 N1411 0.984 . S
H1415 N1411 0.985 . S
H1416 N1410 0.984 . S
H1417 N1410 0.984 . S
H1418 N1406 0.984 . S
H1419 N1406 0.985 . S
C1420 C1421 1.363 . S
C1420 C1426 1.379 . S
C1420 N1428 1.356 . S
C1421 C1420 1.363 . S
C1421 C1427 1.363 . S
C1422 C1423 1.363 . S
C1422 C1427 1.379 . S
C1422 N1429 1.356 . S
C1423 C1422 1.363 . S
C1423 C1426 1.363 . S
N1424 C1426 1.356 . S
N1424 H1436 0.984 . S
N1424 H1437 0.985 . S
N1425 C1427 1.356 . S
N1425 H1430 0.984 . S
N1425 H1431 0.985 . S
C1426 C1420 1.379 . S
C1426 C1423 1.363 . S
C1426 N1424 1.356 . S
C1427 C1421 1.363 . S
C1427 C1422 1.379 . S
C1427 N1425 1.356 . S
N1428 C1420 1.356 . S
N1428 H1434 0.984 . S
N1428 H1435 0.984 . S
N1429 C1422 1.356 . S
N1429 H1432 0.984 . S
N1429 H1433 0.985 . S
H1430 N1425 0.984 . S
H1431 N1425 0.985 . S
H1432 N1429 0.984 . S
H1433 N1429 0.985 . S
H1434 N1428 0.984 . S
H1435 N1428 0.984 . S
H1436 N1424 0.984 . S
H1437 N1424 0.985 . S
C1438 C1439 1.363 . S
C1438 C1444 1.379 . S
C1438 N1446 1.356 . S
C1439 C1438 1.363 . S
C1439 C1445 1.363 . S
C1440 C1441 1.363 . S
C1440 C1445 1.379 . S
C1440 N1447 1.356 . S
C1441 C1440 1.363 . S
C1441 C1444 1.363 . S
N1442 C1444 1.356 . S
N1442 H1454 0.984 . S
N1442 H1455 0.985 . S
N1443 C1445 1.356 . S
N1443 H1448 0.984 . S
N1443 H1449 0.985 1_554 S
C1444 C1438 1.379 . S
C1444 C1441 1.363 . S
C1444 N1442 1.356 . S
C1445 C1439 1.363 . S
C1445 C1440 1.379 . S
C1445 N1443 1.356 . S
N1446 C1438 1.356 . S
N1446 H1452 0.984 . S
N1446 H1453 0.984 . S
N1447 C1440 1.356 . S
N1447 H1450 0.984 . S
N1447 H1451 0.985 . S
H1448 N1443 0.984 . S
H1449 N1443 0.985 1_556 S
H1450 N1447 0.984 . S
H1451 N1447 0.985 . S
H1452 N1446 0.984 . S
H1453 N1446 0.984 . S
H1454 N1442 0.984 . S
H1455 N1442 0.985 . S
C1456 C1457 1.363 . S
C1456 C1462 1.379 . S
C1456 N1464 1.356 . S
C1457 C1456 1.363 . S
C1457 C1463 1.363 . S
C1458 C1459 1.363 . S
C1458 C1463 1.379 . S
C1458 N1465 1.356 . S
C1459 C1458 1.363 . S
C1459 C1462 1.363 . S
N1460 C1462 1.356 . S
N1460 H1472 0.984 . S
N1460 H1473 0.985 . S
N1461 C1463 1.356 . S
N1461 H1466 0.984 . S
N1461 H1467 0.985 . S
C1462 C1456 1.379 . S
C1462 C1459 1.363 . S
C1462 N1460 1.356 . S
C1463 C1457 1.363 . S
C1463 C1458 1.379 . S
C1463 N1461 1.356 . S
N1464 C1456 1.356 . S
N1464 H1470 0.984 . S
N1464 H1471 0.984 . S
N1465 C1458 1.356 . S
N1465 H1468 0.984 . S
N1465 H1469 0.985 . S
H1466 N1461 0.984 . S
H1467 N1461 0.985 . S
H1468 N1465 0.984 . S
H1469 N1465 0.985 . S
H1470 N1464 0.984 . S
H1471 N1464 0.984 . S
H1472 N1460 0.984 . S
H1473 N1460 0.985 . S
C1474 C1475 1.363 . S
C1474 C1480 1.379 . S
C1474 N1482 1.356 . S
C1475 C1474 1.363 . S
C1475 C1481 1.363 . S
C1476 C1477 1.363 . S
C1476 C1481 1.379 . S
C1476 N1483 1.356 . S
C1477 C1476 1.363 . S
C1477 C1480 1.363 . S
N1478 C1480 1.356 . S
N1478 H1490 0.984 . S
N1478 H1491 0.985 . S
N1479 C1481 1.356 . S
N1479 H1484 0.984 . S
N1479 H1485 0.985 1_556 S
C1480 C1474 1.379 . S
C1480 C1477 1.363 . S
C1480 N1478 1.356 . S
C1481 C1475 1.363 . S
C1481 C1476 1.379 . S
C1481 N1479 1.356 . S
N1482 C1474 1.356 . S
N1482 H1488 0.984 . S
N1482 H1489 0.984 . S
N1483 C1476 1.356 . S
N1483 H1486 0.984 . S
N1483 H1487 0.985 . S
H1484 N1479 0.984 . S
H1485 N1479 0.985 1_554 S
H1486 N1483 0.984 . S
H1487 N1483 0.985 . S
H1488 N1482 0.984 . S
H1489 N1482 0.984 . S
H1490 N1478 0.984 . S
H1491 N1478 0.985 . S
C1492 C1493 1.363 . S
C1492 C1498 1.379 . S
C1492 N1500 1.356 . S
C1493 C1492 1.363 . S
C1493 C1499 1.363 . S
C1494 C1495 1.363 . S
C1494 C1499 1.379 . S
C1494 N1501 1.356 . S
C1495 C1494 1.363 . S
C1495 C1498 1.363 . S
N1496 C1498 1.356 . S
N1496 H1508 0.984 . S
N1496 H1509 0.985 . S
N1497 C1499 1.356 . S
N1497 H1502 0.984 . S
N1497 H1503 0.985 . S
C1498 C1492 1.379 . S
C1498 C1495 1.363 . S
C1498 N1496 1.356 . S
C1499 C1493 1.363 . S
C1499 C1494 1.379 . S
C1499 N1497 1.356 . S
N1500 C1492 1.356 . S
N1500 H1506 0.984 . S
N1500 H1507 0.984 . S
N1501 C1494 1.356 . S
N1501 H1504 0.984 . S
N1501 H1505 0.985 . S
H1502 N1497 0.984 . S
H1503 N1497 0.985 . S
H1504 N1501 0.984 . S
H1505 N1501 0.985 . S
H1506 N1500 0.984 . S
H1507 N1500 0.984 . S
H1508 N1496 0.984 . S
H1509 N1496 0.985 . S
C1510 C1511 1.363 . S
C1510 C1516 1.379 . S
C1510 N1518 1.356 . S
C1511 C1510 1.363 . S
C1511 C1517 1.363 . S
C1512 C1513 1.363 . S
C1512 C1517 1.379 . S
C1512 N1519 1.356 . S
C1513 C1512 1.363 . S
C1513 C1516 1.363 . S
N1514 C1516 1.356 . S
N1514 H1526 0.984 . S
N1514 H1527 0.985 . S
N1515 C1517 1.356 . S
N1515 H1520 0.984 . S
N1515 H1521 0.985 . S
C1516 C1510 1.379 . S
C1516 C1513 1.363 . S
C1516 N1514 1.356 . S
C1517 C1511 1.363 . S
C1517 C1512 1.379 . S
C1517 N1515 1.356 . S
N1518 C1510 1.356 . S
N1518 H1524 0.984 . S
N1518 H1525 0.984 . S
N1519 C1512 1.356 . S
N1519 H1522 0.984 . S
N1519 H1523 0.985 . S
H1520 N1515 0.984 . S
H1521 N1515 0.985 . S
H1522 N1519 0.984 . S
H1523 N1519 0.985 . S
H1524 N1518 0.984 . S
H1525 N1518 0.984 . S
H1526 N1514 0.984 . S
H1527 N1514 0.985 . S
C1528 C1529 1.363 . S
C1528 C1534 1.379 . S
C1528 N1536 1.356 . S
C1529 C1528 1.363 . S
C1529 C1535 1.363 . S
C1530 C1531 1.363 . S
C1530 C1535 1.379 . S
C1530 N1537 1.356 . S
C1531 C1530 1.363 . S
C1531 C1534 1.363 . S
N1532 C1534 1.356 . S
N1532 H1544 0.984 . S
N1532 H1545 0.985 . S
N1533 C1535 1.356 . S
N1533 H1538 0.984 . S
N1533 H1539 0.985 . S
C1534 C1528 1.379 . S
C1534 C1531 1.363 . S
C1534 N1532 1.356 . S
C1535 C1529 1.363 . S
C1535 C1530 1.379 . S
C1535 N1533 1.356 . S
N1536 C1528 1.356 . S
N1536 H1542 0.984 . S
N1536 H1543 0.984 . S
N1537 C1530 1.356 . S
N1537 H1540 0.984 . S
N1537 H1541 0.985 . S
H1538 N1533 0.984 . S
H1539 N1533 0.985 . S
H1540 N1537 0.984 . S
H1541 N1537 0.985 . S
H1542 N1536 0.984 . S
H1543 N1536 0.984 . S
H1544 N1532 0.984 . S
H1545 N1532 0.985 . S
C1546 C1547 1.363 . S
C1546 C1552 1.379 . S
C1546 N1554 1.356 . S
C1547 C1546 1.363 . S
C1547 C1553 1.363 . S
C1548 C1549 1.363 . S
C1548 C1553 1.379 . S
C1548 N1555 1.356 . S
C1549 C1548 1.363 . S
C1549 C1552 1.363 . S
N1550 C1552 1.356 . S
N1550 H1562 0.984 . S
N1550 H1563 0.985 . S
N1551 C1553 1.356 . S
N1551 H1556 0.984 . S
N1551 H1557 0.985 . S
C1552 C1546 1.379 . S
C1552 C1549 1.363 . S
C1552 N1550 1.356 . S
C1553 C1547 1.363 . S
C1553 C1548 1.379 . S
C1553 N1551 1.356 . S
N1554 C1546 1.356 . S
N1554 H1560 0.984 . S
N1554 H1561 0.984 . S
N1555 C1548 1.356 . S
N1555 H1558 0.984 . S
N1555 H1559 0.985 1_554 S
H1556 N1551 0.984 . S
H1557 N1551 0.985 . S
H1558 N1555 0.984 . S
H1559 N1555 0.985 1_556 S
H1560 N1554 0.984 . S
H1561 N1554 0.984 . S
H1562 N1550 0.984 . S
H1563 N1550 0.985 . S
C1564 C1565 1.363 . S
C1564 C1570 1.379 . S
C1564 N1572 1.356 . S
C1565 C1564 1.363 . S
C1565 C1571 1.363 . S
C1566 C1567 1.363 . S
C1566 C1571 1.379 . S
C1566 N1573 1.356 . S
C1567 C1566 1.363 . S
C1567 C1570 1.363 . S
N1568 C1570 1.356 . S
N1568 H1580 0.984 . S
N1568 H1581 0.985 . S
N1569 C1571 1.356 . S
N1569 H1574 0.984 . S
N1569 H1575 0.985 . S
C1570 C1564 1.379 . S
C1570 C1567 1.363 . S
C1570 N1568 1.356 . S
C1571 C1565 1.363 . S
C1571 C1566 1.379 . S
C1571 N1569 1.356 . S
N1572 C1564 1.356 . S
N1572 H1578 0.984 . S
N1572 H1579 0.984 . S
N1573 C1566 1.356 . S
N1573 H1576 0.984 . S
N1573 H1577 0.985 . S
H1574 N1569 0.984 . S
H1575 N1569 0.985 . S
H1576 N1573 0.984 . S
H1577 N1573 0.985 . S
H1578 N1572 0.984 . S
H1579 N1572 0.984 . S
H1580 N1568 0.984 . S
H1581 N1568 0.985 . S
C1582 C1583 1.363 . S
C1582 C1588 1.379 . S
C1582 N1590 1.356 . S
C1583 C1582 1.363 . S
C1583 C1589 1.363 . S
C1584 C1585 1.363 . S
C1584 C1589 1.379 . S
C1584 N1591 1.356 . S
C1585 C1584 1.363 . S
C1585 C1588 1.363 . S
N1586 C1588 1.356 . S
N1586 H1598 0.984 . S
N1586 H1599 0.985 . S
N1587 C1589 1.356 . S
N1587 H1592 0.984 . S
N1587 H1593 0.985 . S
C1588 C1582 1.379 . S
C1588 C1585 1.363 . S
C1588 N1586 1.356 . S
C1589 C1583 1.363 . S
C1589 C1584 1.379 . S
C1589 N1587 1.356 . S
N1590 C1582 1.356 . S
N1590 H1596 0.984 . S
N1590 H1597 0.984 . S
N1591 C1584 1.356 . S
N1591 H1594 0.984 . S
N1591 H1595 0.985 . S
H1592 N1587 0.984 . S
H1593 N1587 0.985 . S
H1594 N1591 0.984 . S
H1595 N1591 0.985 . S
H1596 N1590 0.984 . S
H1597 N1590 0.984 . S
H1598 N1586 0.984 . S
H1599 N1586 0.985 . S
C449 C181 1.468 . S
C451 C0 1.471 . S
C467 C406 1.476 . S
C469 C27 1.470 . S
C485 C196 1.467 . S
C487 C29 1.470 . S
C503 C435 1.468 . S
C505 C55 1.470 . S
C521 C113 1.468 . S
C523 C68 1.471 . S
C539 C70 1.471 . S
C541 C362 1.476 . S
C557 C84 1.471 . S
C559 C140 1.467 . S
C575 C391 1.468 . S
C577 C99 1.470 . S
C593 C69 1.467 . S
C595 C112 1.470 . S
C611 C294 1.478 . S
C613 C126 1.470 . S
C629 C85 1.467 . S
C631 C141 1.471 . S
C647 C322 1.468 . S
C649 C166 1.470 . S
C665 C180 1.470 . S
C667 C1 1.467 . S
C683 C183 1.471 . S
C685 C251 1.476 . S
C701 C28 1.469 . S
C703 C197 1.471 . S
C719 C211 1.471 . S
C721 C266 1.468 . S
C737 C392 1.467 . S
C739 C224 1.471 . S
C755 C182 1.467 . S
C757 C250 1.471 . S
C773 C433 1.468 . S
C775 C252 1.471 . S
C791 C267 1.470 . S
C793 C210 1.476 . S
C809 C280 1.471 . S
C811 C337 1.469 . S
C827 C295 1.470 . S
C829 C127 1.468 . S
C845 C377 1.468 . S
C847 C320 1.471 . S
C863 C167 1.478 . S
C865 C323 1.470 . S
C881 C281 1.467 . S
C883 C336 1.470 . S
C899 C363 1.471 . S
C901 C71 1.467 . S
C917 C376 1.470 . S
C919 C321 1.467 . S
C935 C390 1.470 . S
C937 C98 1.478 . S
C953 C225 1.467 . S
C955 C393 1.471 . S
C971 C26 1.468 . S
C973 C407 1.471 . S
C989 C253 1.467 . S
C991 C432 1.470 . S
C1007 C434 1.470 . S
C1009 C54 1.478 . S
C1025 C13 1.935 . S
C1027 C125 1.940 . S
C1043 C14 1.940 . S
C1045 C350 1.935 . S
C1061 C152 1.935 . S
C1063 C40 1.940 . S
C1079 C42 1.940 . S
C1081 C379 1.940 . S
C1097 C57 1.935 . S
C1099 C169 1.940 . S
C1115 C418 1.935 . S
C1117 C83 1.935 . S
C1133 C208 1.935 . S
C1135 C97 1.935 . S
C1151 C110 1.940 . S
C1153 C447 1.940 . S
C1169 C139 1.940 . S
C1171 C239 1.935 . S
C1187 C155 1.940 . S
C1189 C278 1.940 . S
C1205 C194 1.935 . S
C1207 C306 1.940 . S
C1223 C334 1.940 . S
C1225 C222 1.935 . S
C1241 C237 1.935 . S
C1243 C349 1.940 . S
C1259 C265 1.935 . S
C1261 C365 1.940 . S
C1277 C293 1.935 . S
C1279 C404 1.935 . S
C1295 C421 1.940 . S
C1297 C309 1.935 . S
C1313 C12 1.828 . S
C1315 C111 1.826 . S
C1331 C15 1.826 . S
C1333 C56 1.828 . S
C1349 C82 1.828 . S
C1351 C41 1.826 . S
C1367 C96 1.828 . S
C1369 C43 1.826 . S
C1385 C223 1.828 . S
C1387 C124 1.826 . S
C1403 C168 1.826 . S
C1405 C138 1.826 . S
C1421 C195 1.828 . S
C1423 C153 1.828 . S
C1439 C209 1.828 . S
C1441 C154 1.826 . S
C1457 C236 1.828 . S
C1459 C335 1.826 . S
C1475 C292 1.828 . S
C1477 C238 1.828 . S
C1493 C307 1.826 . S
C1495 C264 1.828 . S
C1511 C308 1.828 . S
C1513 C279 1.826 . S
C1529 C446 1.826 . S
C1531 C348 1.826 . S
C1547 C351 1.828 . S
C1549 C405 1.828 . S
C1565 C364 1.826 . S
C1567 C419 1.828 . S
C1583 C420 1.826 . S
C1585 C378 1.826 . S
