# Generated by pormake.
# Topology snz, (6)-cn, num edge types: 1
# Building blocks:
#     Node 0, Type 0, BuildingBlock: KUMBOL_clean_sbu_0, # of connection points: 6
#     Node 1, Type 0, BuildingBlock: KUMBOL_clean_sbu_0, # of connection points: 6
#     Node 2, Type 0, BuildingBlock: KUMBOL_clean_sbu_0, # of connection points: 6
#     Node 3, Type 0, BuildingBlock: KUMBOL_clean_sbu_0, # of connection points: 6
#     Node 4, Type 0, BuildingBlock: KUMBOL_clean_sbu_0, # of connection points: 6
#     Node 5, Type 0, BuildingBlock: KUMBOL_clean_sbu_0, # of connection points: 6
#     Node 6, Type 0, BuildingBlock: KUMBOL_clean_sbu_0, # of connection points: 6
#     Node 7, Type 0, BuildingBlock: KUMBOL_clean_sbu_0, # of connection points: 6
#     Node 8, Type 0, BuildingBlock: KUMBOL_clean_sbu_0, # of connection points: 6
#     Edge 9, Type (0, 0), BuildingBlock: UVAHIK_clean_linker_0, # of connection points: 2
#     Edge 10, Type (0, 0), BuildingBlock: UVAHIK_clean_linker_0, # of connection points: 2
#     Edge 11, Type (0, 0), BuildingBlock: UVAHIK_clean_linker_0, # of connection points: 2
#     Edge 12, Type (0, 0), BuildingBlock: UVAHIK_clean_linker_0, # of connection points: 2
#     Edge 13, Type (0, 0), BuildingBlock: UVAHIK_clean_linker_0, # of connection points: 2
#     Edge 14, Type (0, 0), BuildingBlock: UVAHIK_clean_linker_0, # of connection points: 2
#     Edge 15, Type (0, 0), BuildingBlock: UVAHIK_clean_linker_0, # of connection points: 2
#     Edge 16, Type (0, 0), BuildingBlock: UVAHIK_clean_linker_0, # of connection points: 2
#     Edge 17, Type (0, 0), BuildingBlock: UVAHIK_clean_linker_0, # of connection points: 2
#     Edge 18, Type (0, 0), BuildingBlock: UVAHIK_clean_linker_0, # of connection points: 2
#     Edge 19, Type (0, 0), BuildingBlock: UVAHIK_clean_linker_0, # of connection points: 2
#     Edge 20, Type (0, 0), BuildingBlock: UVAHIK_clean_linker_0, # of connection points: 2
#     Edge 21, Type (0, 0), BuildingBlock: UVAHIK_clean_linker_0, # of connection points: 2
#     Edge 22, Type (0, 0), BuildingBlock: UVAHIK_clean_linker_0, # of connection points: 2
#     Edge 23, Type (0, 0), BuildingBlock: UVAHIK_clean_linker_0, # of connection points: 2
#     Edge 24, Type (0, 0), BuildingBlock: UVAHIK_clean_linker_0, # of connection points: 2
#     Edge 25, Type (0, 0), BuildingBlock: UVAHIK_clean_linker_0, # of connection points: 2
#     Edge 26, Type (0, 0), BuildingBlock: UVAHIK_clean_linker_0, # of connection points: 2
#     Edge 27, Type (0, 0), BuildingBlock: UVAHIK_clean_linker_0, # of connection points: 2
#     Edge 28, Type (0, 0), BuildingBlock: UVAHIK_clean_linker_0, # of connection points: 2
#     Edge 29, Type (0, 0), BuildingBlock: UVAHIK_clean_linker_0, # of connection points: 2
#     Edge 30, Type (0, 0), BuildingBlock: UVAHIK_clean_linker_0, # of connection points: 2
#     Edge 31, Type (0, 0), BuildingBlock: UVAHIK_clean_linker_0, # of connection points: 2
#     Edge 32, Type (0, 0), BuildingBlock: UVAHIK_clean_linker_0, # of connection points: 2
#     Edge 33, Type (0, 0), BuildingBlock: UVAHIK_clean_linker_0, # of connection points: 2
#     Edge 34, Type (0, 0), BuildingBlock: UVAHIK_clean_linker_0, # of connection points: 2
#     Edge 35, Type (0, 0), BuildingBlock: UVAHIK_clean_linker_0, # of connection points: 2
# Relax obj value: 0.224
# Max RMSD: 0.298
# Mean RMSD: 0.201
data_MOF--net-snz--node1-KUMBOL_clean_sbu_0--edge1-UVAHIK_clean_linker_0
_symmetry_space_group_name_H-M    P1
_symmetry_Int_Tables_number       1
_symmetry_cell_setting            triclinic
loop_
_symmetry_equiv_pos_as_xyz
'x, y, z'
_cell_length_a     74.67929
_cell_length_b     70.025993
_cell_length_c     20.936348
_cell_angle_alpha  93.473477
_cell_angle_beta   94.812876
_cell_angle_gamma 120.49766
loop_
_atom_site_label
_atom_site_type_symbol
_atom_site_fract_x
_atom_site_fract_y
_atom_site_fract_z
_atom_type_partial_charge
Gd0 Gd 0.04462 0.47823 0.15667 0.0
Gd1 Gd 0.09696 0.48611 0.17682 0.0
C2 C 0.1505 0.55871 0.19007 0.0
C3 C 0.16531 0.55893 0.09092 0.0
C4 C 0.1356 0.52472 0.11657 0.0
C5 C 0.13542 0.53588 0.17276 0.0
C6 C 0.15105 0.53588 0.07614 0.0
C7 C 0.16501 0.57034 0.14782 0.0
C8 C 0.15099 0.56891 0.25029 0.0
C9 C 0.13718 0.55617 0.29236 0.0
N10 N 0.12145 0.52398 0.21284 0.0
C11 C 0.12257 0.53354 0.27301 0.0
H12 H 0.11188 0.52394 0.30573 0.0
C13 C 0.12431 0.48983 0.05748 0.0
N14 N 0.12193 0.50241 0.10488 0.0
C15 C 0.13921 0.50013 1.01553 0.0
C16 C 0.15238 0.52333 1.02409 0.0
H17 H 0.11418 0.47188 0.05088 0.0
H18 H 0.17654 0.58795 0.15982 0.0
H19 H 0.02631 0.48734 1.01806 0.0
H20 H 0.16228 0.58643 0.26536 0.0
H21 H 0.13766 0.56379 0.33951 0.0
H22 H 0.17713 0.56788 0.06 0.0
H23 H 0.03554 0.44246 0.26786 0.0
H24 H 0.97314 0.42578 0.92716 0.0
H25 H 0.99784 0.46624 0.92727 0.0
H26 H 0.96323 0.37512 0.08309 0.0
H27 H 0.14057 0.49018 0.97678 0.0
H28 H 0.16404 0.53127 0.99192 0.0
H29 H 0.96043 0.39181 0.98549 0.0
H30 H 0.00979 0.40392 0.28237 0.0
N31 N 0.01857 0.45885 0.06677 0.0
C32 C 0.9857 0.43494 0.9668 0.0
C33 C -0.00041 0.45775 0.96668 0.0
C34 C 0.98765 0.42442 1.0194 0.0
C35 C 0.00427 0.43711 0.06982 0.0
C36 C 0.01572 0.4696 1.01801 0.0
N37 N 0.02161 0.44079 0.17302 0.0
C38 C 0.0057 0.42783 0.12491 0.0
C39 C 0.00844 0.41043 0.23779 0.0
C40 C 0.99228 0.39681 0.18821 0.0
C41 C 0.02304 0.43245 0.22934 0.0
C42 C 0.99074 0.40543 0.13086 0.0
H43 H 0.9811 0.3797 0.19468 0.0
O44 O 0.02394 0.47948 0.22172 0.0
O45 O 0.07853 0.50272 0.19034 0.0
O46 O 0.08638 0.4837 0.27894 0.0
O47 O 0.05436 0.48224 0.26787 0.0
O48 O 0.06327 0.51173 0.12212 0.0
O49 O 0.03213 0.5002 0.14459 0.0
O50 O 0.10615 0.46103 0.17977 0.0
O51 O 0.06265 0.46127 0.16642 0.0
O52 O 0.05356 0.47588 0.05349 0.0
O53 O 0.08993 0.49141 0.06981 0.0
O54 O 0.08083 0.45388 0.11087 0.0
O55 O 0.11879 0.48788 0.25631 0.0
C56 C 0.08058 0.51852 0.15889 0.0
C57 C 0.9747 0.39242 0.07969 0.0
C58 C 0.97315 0.4019 1.02404 0.0
C59 C 0.01995 0.49243 0.18889 0.0
C60 C 0.99759 0.48521 0.17039 0.0
C61 C 0.98169 0.46312 0.17443 0.0
C62 C 0.99195 0.5004 0.14847 0.0
C63 C 0.97064 0.49368 0.1327 0.0
C64 C 0.96065 0.45643 0.1584 0.0
C65 C 0.95513 0.4716 0.1382 0.0
C66 C 0.07036 0.48312 0.30488 0.0
C67 C 0.06223 0.44702 0.12466 0.0
C68 C 0.11946 0.47078 0.23184 0.0
C69 C 0.14059 0.47393 0.22959 0.0
C70 C 0.15597 0.49283 0.20539 0.0
C71 C 0.1456 0.45821 0.25136 0.0
C72 C 0.1659 0.46146 0.24858 0.0
C73 C 0.17571 0.49587 0.20096 0.0
C74 C 0.18062 0.48035 0.22184 0.0
C75 C 0.07194 0.4839 1.03029 0.0
H76 H 0.98545 0.45098 0.19021 0.0
H77 H 0.00404 0.51745 0.14473 0.0
H78 H 0.94855 0.4394 0.16185 0.0
H79 H 0.93868 0.466 0.12611 0.0
H80 H 0.15275 0.50533 0.18992 0.0
H81 H 0.13389 0.44379 0.27125 0.0
H82 H 0.18733 0.51039 0.18124 0.0
H83 H 0.19604 0.48317 0.21649 0.0
Gd84 Gd 0.60546 0.47346 0.08015 0.0
Gd85 Gd 0.60071 0.52215 0.09046 0.0
C86 C 0.5325 0.50536 0.06718 0.0
C87 C 0.52902 0.51694 0.96215 0.0
C88 C 0.56238 0.522 1.00823 0.0
C89 C 0.55362 0.51225 0.06175 0.0
C90 C 0.55041 0.52533 0.95921 0.0
C91 C 0.52006 0.50693 1.01605 0.0
C92 C 0.52476 0.49812 0.12502 0.0
C93 C 0.53823 0.49886 0.17662 0.0
N94 N 0.5662 0.51136 0.1109 0.0
C95 C 0.559 0.50575 0.16899 0.0
H96 H 0.56876 0.50585 0.20983 0.0
C97 C 0.59346 0.54448 0.96335 0.0
N98 N 0.58316 0.5303 1.00734 0.0
C99 C 0.58227 0.54819 0.91368 0.0
C100 C 0.56055 0.53809 0.91061 0.0
H101 H 0.61027 0.55227 0.96546 0.0
H102 H 0.50375 0.50137 1.01903 0.0
H103 H 0.59101 0.4388 0.94426 0.0
H104 H 0.50866 0.49269 0.1311 0.0
H105 H 0.53256 0.49388 0.22225 0.0
H106 H 0.5195 0.519 0.92442 0.0
H107 H 0.6432 0.50404 0.20543 0.0
H108 H 0.6458 0.4423 0.88273 0.0
H109 H 0.60745 0.42667 0.86612 0.0
H110 H 0.70005 0.49048 0.05463 0.0
H111 H 0.59039 0.55876 0.87772 0.0
H112 H 0.55192 0.54106 0.87224 0.0
H113 H 0.68034 0.46635 0.95314 0.0
H114 H 0.68051 0.51736 0.23646 0.0
N115 N 0.61994 0.46187 1.00207 0.0
C116 C 0.63867 0.44773 0.91684 0.0
C117 C 0.61703 0.43887 0.90728 0.0
C118 C 0.65073 0.46279 0.97176 0.0
C119 C 0.64068 0.46927 1.01475 0.0
C120 C 0.6078 0.44579 0.95139 0.0
N121 N 0.64127 0.48767 0.1138 0.0
C122 C 0.65166 0.48247 0.07246 0.0
C123 C 0.67258 0.50754 0.1902 0.0
C124 C 0.6836 0.50281 0.14757 0.0
C125 C 0.65132 0.49981 0.17248 0.0
C126 C 0.67316 0.49008 0.08795 0.0
H127 H 0.70011 0.50898 0.16123 0.0
O128 O 0.60789 0.45106 0.14318 0.0
O129 O 0.58429 0.48614 0.10091 0.0
O130 O 0.60184 0.51336 0.19571 0.0
O131 O 0.60518 0.48196 0.18943 0.0
O132 O 0.5727 0.4597 1.02928 0.0
O133 O 0.58165 0.43819 0.0679 0.0
O134 O 0.60422 0.55493 0.10419 0.0
O135 O 0.62335 0.51043 0.09191 0.0
O136 O 0.60621 0.48252 0.97544 0.0
O137 O 0.5956 0.50864 0.98013 0.0
O138 O 0.62864 0.53598 1.03606 0.0
O139 O 0.62496 0.54836 0.16275 0.0
C140 C 0.56789 0.47184 0.06409 0.0
C141 C 0.68349 0.48458 0.04387 0.0
C142 C 0.67228 0.47092 0.98596 0.0
C143 C 0.59175 0.43326 0.11086 0.0
C144 C 0.59416 0.41408 0.09097 0.0
C145 C 0.61286 0.4145 0.10997 0.0
C146 C 0.57743 0.39494 0.05312 0.0
C147 C 0.57911 0.37621 1.03491 0.0
C148 C 0.6147 0.39611 0.09228 0.0
C149 C 0.59799 0.37709 0.05558 0.0
C150 C 0.60374 0.49773 0.22414 0.0
C151 C 0.63536 0.52325 0.05427 0.0
C152 C 0.61936 0.56273 0.1514 0.0
C153 C 0.61742 0.57499 0.20736 0.0
C154 C 0.60265 0.56372 0.24897 0.0
C155 C 0.62962 0.59842 0.21673 0.0
C156 C 0.62693 0.61075 0.26697 0.0
C157 C 0.60013 0.57569 0.29958 0.0
C158 C 0.61205 0.599 0.30842 0.0
C159 C 0.60029 0.49521 0.9461 0.0
H160 H 0.62605 0.42896 0.13875 0.0
H161 H 0.56317 0.39482 1.03744 0.0
H162 H 0.6291 0.39652 0.10763 0.0
H163 H 0.59986 0.36295 0.04442 0.0
H164 H 0.5929 0.54574 0.2418 0.0
H165 H 0.64108 0.60696 0.18443 0.0
H166 H 0.58861 0.56687 0.3314 0.0
H167 H 0.60919 0.60778 0.34682 0.0
Gd168 Gd 0.60213 0.0856 0.9284 0.0
Gd169 Gd 0.55934 0.02827 0.90621 0.0
C170 C 0.57121 0.97012 0.89702 0.0
C171 C 0.55911 0.95449 0.78454 0.0
C172 C 0.55652 0.98614 0.82594 0.0
C173 C 0.56616 0.98666 0.88593 0.0
C174 C 0.55211 0.96944 0.77539 0.0
C175 C 0.56861 0.95479 0.84539 0.0
C176 C 0.57735 0.96845 0.96033 0.0
C177 C 0.57721 0.98222 1.01091 0.0
N178 N 0.56817 0.00151 0.93516 0.0
C179 C 0.57215 0.99837 0.99754 0.0
H180 H 0.57197 0.00839 1.03799 0.0
C181 C 0.53544 0.99685 0.76633 0.0
N182 N 0.54923 0.00022 0.81935 0.0
C183 C 0.53078 0.9807 0.71479 0.0
C184 C 0.53962 0.96733 0.71861 0.0
H185 H 0.52849 0.00707 0.76283 0.0
H186 H 0.57284 0.94232 0.85285 0.0
H187 H 0.5862 0.10201 0.79283 0.0
H188 H 0.58128 0.95595 0.9709 0.0
H189 H 0.58109 0.98046 0.06037 0.0
H190 H 0.55618 0.94182 0.74595 0.0
H191 H 0.6324 0.10951 0.07119 0.0
H192 H 0.56946 0.14894 0.85669 0.0
H193 H 0.57233 0.12592 0.76871 0.0
H194 H 0.59623 0.16742 0.08101 0.0
H195 H 0.52042 0.97862 0.67213 0.0
H196 H 0.53585 0.9547 0.67881 0.0
H197 H 0.57791 0.16386 0.97381 0.0
H198 H 0.63817 0.13779 0.15995 0.0
N199 N 0.59062 0.10998 0.89551 0.0
C200 C 0.57559 0.13827 0.8681 0.0
C201 C 0.57727 0.12538 0.81834 0.0
C202 C 0.58309 0.13832 0.93154 0.0
C203 C 0.5909 0.12408 0.9438 0.0
C204 C 0.58519 0.1116 0.83276 0.0
N205 N 0.61025 0.11376 1.0126 0.0
C206 C 0.60112 0.12606 1.00426 0.0
C207 C 0.62756 0.13452 0.1167 0.0
C208 C 0.61687 0.14603 0.11109 0.0
C209 C 0.62429 0.11858 0.06635 0.0
C210 C 0.60389 0.14231 0.05376 0.0
H211 H 0.61945 0.15841 0.15011 0.0
O212 O 0.63293 0.11556 0.93338 0.0
O213 O 0.594 0.05014 0.92282 0.0
O214 O 0.56964 0.03875 1.01703 0.0
O215 O 0.59125 0.07746 1.03049 0.0
O216 O 0.6176 0.07276 0.9954 0.0
O217 O 0.62593 0.0859 0.87384 0.0
O218 O 0.52851 0.99869 0.90596 0.0
O219 O 0.56715 0.06372 0.91254 0.0
O220 O 0.59305 0.07492 0.81774 0.0
O221 O 0.57085 0.03623 0.8048 0.0
O222 O 0.54442 0.0414 0.83866 0.0
O223 O 0.53748 0.02868 0.96785 0.0
C224 C 0.60741 0.05235 0.96874 0.0
C225 C 0.59459 0.15514 0.04322 0.0
C226 C 0.58416 0.15311 0.98218 0.0
C227 C 0.63995 0.10657 0.89417 0.0
C228 C 0.65276 0.12038 0.84664 0.0
C229 C 0.64584 0.13172 0.80853 0.0
C230 C 0.6725 0.12277 0.8409 0.0
C231 C 0.68562 0.13687 0.79816 0.0
C232 C 0.65858 0.14565 0.76623 0.0
C233 C 0.6783 0.1484 0.76145 0.0
C234 C 0.58003 0.0582 0.0553 0.0
C235 C 0.5541 0.06173 0.86558 0.0
C236 C 0.52273 0.0083 0.94761 0.0
C237 C 0.5013 0.0041 0.93505 0.0
C238 C 0.49507 0.01201 0.8829 0.0
C239 C 0.48692 0.99219 0.97728 0.0
C240 C 0.46626 0.98795 0.96772 0.0
C241 C 0.47467 0.00805 0.87323 0.0
C242 C 0.46033 0.99608 0.91515 0.0
C243 C 0.58242 0.0554 0.77987 0.0
H244 H 0.63072 0.13002 0.81211 0.0
H245 H 0.67748 0.11355 0.86971 0.0
H246 H 0.65326 0.15461 0.73751 0.0
H247 H 0.68791 0.15993 0.72955 0.0
H248 H 0.50585 0.02119 0.84972 0.0
H249 H 0.49199 0.98649 1.01816 0.0
H250 H 0.46992 0.01418 0.83288 0.0
H251 H 0.44452 0.99293 0.90578 0.0
Gd252 Gd 0.7404 0.88376 0.33459 0.0
Gd253 Gd 0.79178 0.88784 0.35287 0.0
C254 C 0.85383 0.95429 0.36409 0.0
C255 C 0.86649 0.94988 0.26433 0.0
C256 C 0.83363 0.91992 0.29188 0.0
C257 C 0.8358 0.93286 0.34755 0.0
C258 C 0.8493 0.92795 0.25069 0.0
C259 C 0.86875 0.96305 0.32102 0.0
C260 C 0.85688 0.96573 0.42487 0.0
C261 C 0.84275 0.95526 0.46854 0.0
N262 N 0.82132 0.92361 0.38857 0.0
C263 C 0.82519 0.93393 0.44993 0.0
H264 H 0.81447 0.92617 0.4844 0.0
C265 C 0.81636 0.88389 0.23369 0.0
N266 N 0.81713 0.89868 0.28126 0.0
C267 C 0.83142 0.89107 0.19122 0.0
C268 C 0.84775 0.91333 0.19895 0.0
H269 H 0.80371 0.86668 0.22725 0.0
H270 H 0.88254 0.9796 0.33244 0.0
H271 H 0.72415 0.8491 0.19115 0.0
H272 H 0.8705 0.98222 0.43945 0.0
H273 H 0.8453 0.96364 0.51649 0.0
H274 H 0.87855 0.95647 0.23283 0.0
H275 H 0.7222 0.89519 0.46302 0.0
H276 H 0.66953 0.78779 0.21235 0.0
H277 H 0.69659 0.81169 0.14661 0.0
H278 H 0.65283 0.80119 0.41935 0.0
H279 H 0.8304 0.87945 0.15253 0.0
H280 H 0.85948 0.91883 0.16627 0.0
H281 H 0.65368 0.78381 0.31489 0.0
H282 H 0.69358 0.87564 0.52895 0.0
N283 N 0.7138 0.84753 0.28421 0.0
C284 C 0.6817 0.80452 0.2327 0.0
C285 C 0.6969 0.81798 0.19547 0.0
C286 C 0.68193 0.81313 0.29487 0.0
C287 C 0.69817 0.83506 0.31918 0.0
C288 C 0.71274 0.83952 0.22168 0.0
N289 N 0.71259 0.86632 0.39707 0.0
C290 C 0.69765 0.84474 0.37771 0.0
C291 C 0.69459 0.86667 0.48678 0.0
C292 C 0.67986 0.84405 0.46969 0.0
C293 C 0.71073 0.87768 0.44925 0.0
C294 C 0.68099 0.8329 0.41384 0.0
H295 H 0.66731 0.83555 0.49869 0.0
O296 O 0.72193 0.8999 0.3364 0.0
O297 O 0.77498 0.90651 0.34757 0.0
O298 O 0.7828 0.89074 0.45578 0.0
O299 O 0.74758 0.88054 0.44335 0.0
O300 O 0.75787 0.9162 0.39988 0.0
O301 O 0.73629 0.89936 0.25231 0.0
O302 O 0.79639 0.85955 0.35482 0.0
O303 O 0.75718 0.86555 0.34685 0.0
O304 O 0.75137 0.88327 0.23329 0.0
O305 O 0.78695 0.89481 0.2473 0.0
O306 O 0.77261 0.85498 0.28992 0.0
O307 O 0.80867 0.88455 0.43744 0.0
C308 C 0.77635 0.92179 0.38702 0.0
C309 C 0.66557 0.81064 0.39184 0.0
C310 C 0.66604 0.80076 0.33239 0.0
C311 C 0.72376 0.90457 0.27736 0.0
C312 C 0.70426 0.89845 0.23538 0.0
C313 C 0.6891 0.87591 0.2164 0.0
C314 C 0.70091 0.91509 0.21256 0.0
C315 C 0.68268 0.90913 0.1699 0.0
C316 C 0.67111 0.86994 0.17433 0.0
C317 C 0.66793 0.88637 0.15097 0.0
C318 C 0.7652 0.88555 0.48107 0.0
C319 C 0.75478 0.84966 0.30808 0.0
C320 C 0.80708 0.86622 0.41205 0.0
C321 C 0.826 0.86454 0.42034 0.0
C322 C 0.84456 0.8805 0.39903 0.0
C323 C 0.82533 0.84648 0.44881 0.0
C324 C 0.8432 0.84436 0.45632 0.0
C325 C 0.86226 0.87848 0.40585 0.0
C326 C 0.86163 0.86061 0.4341 0.0
C327 C 0.76934 0.8894 0.20894 0.0
H328 H 0.69115 0.8629 0.23392 0.0
H329 H 0.71254 0.93254 0.22715 0.0
H330 H 0.65954 0.85248 0.15987 0.0
H331 H 0.65368 0.88125 0.11896 0.0
H332 H 0.84535 0.89445 0.37697 0.0
H333 H 0.81098 0.83428 0.46571 0.0
H334 H 0.87652 0.8908 0.38894 0.0
H335 H 0.87555 0.85938 0.43774 0.0
Gd336 Gd 0.21658 0.80327 0.39311 0.0
Gd337 Gd 0.16615 0.79668 0.38912 0.0
C338 C 0.14542 0.79727 0.17783 0.0
C339 C 0.15017 0.83421 0.17799 0.0
C340 C 0.15806 0.82219 0.27791 0.0
C341 C 0.15292 0.80203 0.24453 0.0
C342 C 0.15614 0.83825 0.24509 0.0
C343 C 0.14471 0.8137 0.14447 0.0
C344 C 0.13839 0.77594 0.14687 0.0
C345 C 0.13824 0.75974 0.18272 0.0
N346 N 0.15382 0.78643 0.27794 0.0
C347 C 0.14577 0.7652 0.24862 0.0
H348 H 0.14472 0.75221 0.27567 0.0
C349 C 0.16381 0.84287 0.37858 0.0
N350 N 0.16303 0.82526 0.34311 0.0
C351 C 0.16259 0.85947 0.34818 0.0
C352 C 0.15919 0.85739 0.28102 0.0
H353 H 0.16557 0.84431 0.43077 0.0
H354 H 0.13939 0.81049 0.09307 0.0
H355 H 0.23762 0.84838 0.50333 0.0
H356 H 0.13255 0.77167 0.09578 0.0
H357 H 0.13221 0.74297 0.15972 0.0
H358 H 0.14888 0.84647 0.152 0.0
H359 H 0.21791 0.75585 0.35519 0.0
H360 H 0.25031 0.83069 0.6858 0.0
H361 H 0.25017 0.85863 0.61933 0.0
H362 H 0.2348 0.75591 0.63515 0.0
H363 H 0.16395 0.87368 0.37667 0.0
H364 H 0.15789 0.8701 0.25758 0.0
H365 H 0.24398 0.79215 0.6915 0.0
H366 H 0.21977 0.72707 0.41183 0.0
N367 N 0.22885 0.81438 0.50394 0.0
C368 C 0.24443 0.82599 0.63479 0.0
C369 C 0.2443 0.84177 0.59752 0.0
C370 C 0.23763 0.80453 0.60531 0.0
C371 C 0.23006 0.79921 0.53864 0.0
C372 C 0.23672 0.83574 0.5317 0.0
N373 N 0.22007 0.77529 0.44143 0.0
C374 C 0.2251 0.77889 0.50667 0.0
C375 C 0.22095 0.74136 0.43923 0.0
C376 C 0.22439 0.74395 0.50646 0.0
C377 C 0.21952 0.75759 0.40736 0.0
C378 C 0.22727 0.76325 0.54096 0.0
H379 H 0.22587 0.73154 0.53104 0.0
O380 O 0.24397 0.80241 0.36956 0.0
O381 O 0.19012 0.7998 0.32043 0.0
O382 O 0.16291 0.76244 0.38603 0.0
O383 O 0.19336 0.76815 0.349 0.0
O384 O 0.21398 0.79872 0.28264 0.0
O385 O 0.24514 0.83398 0.3825 0.0
O386 O 0.13949 0.79834 0.41668 0.0
O387 O 0.19257 0.80001 0.46184 0.0
O388 O 0.21944 0.83678 0.38873 0.0
O389 O 0.19038 0.83223 0.43215 0.0
O390 O 0.16825 0.80004 0.4995 0.0
O391 O 0.13685 0.76627 0.39753 0.0
C392 C 0.19729 0.79932 0.26478 0.0
C393 C 0.23332 0.76785 0.60805 0.0
C394 C 0.23861 0.78851 0.6401 0.0
C395 C 0.25534 0.82396 0.37 0.0
C396 C 0.27734 0.83517 0.39908 0.0
C397 C 0.28305 0.83347 0.46298 0.0
C398 C 0.2929 0.84806 0.36133 0.0
C399 C 0.31428 0.85919 0.3865 0.0
C400 C 0.30423 0.84459 0.48871 0.0
C401 C 0.31978 0.85737 0.45087 0.0
C402 C 0.17413 0.75485 0.36108 0.0
C403 C 0.18518 0.79998 0.51736 0.0
C404 C 0.12735 0.77679 0.41347 0.0
C405 C 0.10539 0.76707 0.38451 0.0
C406 C 0.10024 0.76712 0.31865 0.0
C407 C 0.08933 0.7576 0.42388 0.0
C408 C 0.06811 0.74803 0.39775 0.0
C409 C 0.07928 0.75768 0.29231 0.0
C410 C 0.06332 0.74818 0.33136 0.0
C411 C 0.20909 0.84505 0.41514 0.0
H412 H 0.27123 0.82359 0.49274 0.0
H413 H 0.28825 0.84957 0.3123 0.0
H414 H 0.30864 0.84323 0.53806 0.0
H415 H 0.33607 0.86551 0.4717 0.0
H416 H 0.11235 0.77445 0.28771 0.0
H417 H 0.09338 0.75744 0.47472 0.0
H418 H 0.07539 0.75779 0.24141 0.0
H419 H 0.04725 0.74124 0.30973 0.0
Gd420 Gd 0.28555 0.32255 0.411 0.0
Gd421 Gd 0.23558 0.2708 0.38859 0.0
C422 C 0.23496 0.20489 0.38053 0.0
C423 C 0.22051 0.18915 0.26903 0.0
C424 C 0.2246 0.22468 0.30962 0.0
C425 C 0.23331 0.22371 0.36956 0.0
C426 C 0.21737 0.20696 0.25956 0.0
C427 C 0.22931 0.18813 0.32942 0.0
C428 C 0.2413 0.20288 0.44318 0.0
C429 C 0.24481 0.21878 0.49356 0.0
N430 N 0.23845 0.2401 0.41842 0.0
C431 C 0.24292 0.23708 0.48057 0.0
H432 H 0.2458 0.24881 0.52111 0.0
C433 C 0.20909 0.24109 0.24842 0.0
N434 N 0.22138 0.24185 0.30207 0.0
C435 C 0.20166 0.22394 0.19759 0.0
C436 C 0.20623 0.20706 0.20255 0.0
H437 H 0.20582 0.2543 0.2435 0.0
H438 H 0.23085 0.17382 0.33686 0.0
H439 H 0.27527 0.34674 0.28657 0.0
H440 H 0.24279 0.18874 0.4535 0.0
H441 H 0.2491 0.21703 0.54262 0.0
H442 H 0.21537 0.17561 0.23081 0.0
H443 H 0.3189 0.33884 0.54865 0.0
H444 H 0.27554 0.40419 0.36747 0.0
H445 H 0.27055 0.37835 0.27276 0.0
H446 H 0.30504 0.41438 0.58706 0.0
H447 H 0.19255 0.22386 0.15444 0.0
H448 H 0.2004 0.19374 0.16314 0.0
H449 H 0.28782 0.41711 0.48557 0.0
H450 H 0.33238 0.36779 0.64254 0.0
N451 N 0.28177 0.35326 0.38956 0.0
C452 C 0.27758 0.39015 0.37417 0.0
C453 C 0.27483 0.37565 0.32061 0.0
C454 C 0.28428 0.38718 0.43514 0.0
C455 C 0.28668 0.36859 0.44119 0.0
C456 C 0.27747 0.35752 0.32899 0.0
N457 N 0.30086 0.35062 0.49983 0.0
C458 C 0.29651 0.36718 0.49824 0.0
C459 C 0.32214 0.36769 0.60259 0.0
C460 C 0.31641 0.38382 0.60404 0.0
C461 C 0.31447 0.35133 0.54935 0.0
C462 C 0.30395 0.38411 0.55073 0.0
H463 H 0.32246 0.39655 0.6452 0.0
O464 O 0.30449 0.31804 0.34499 0.0
O465 O 0.27035 0.2853 0.40171 0.0
O466 O 0.2463 0.28037 0.49925 0.0
O467 O 0.27531 0.31658 0.51422 0.0
O468 O 0.29605 0.30391 0.47215 0.0
O469 O 0.31818 0.3486 0.40865 0.0
O470 O 0.21495 0.27677 0.44418 0.0
O471 O 0.25089 0.30796 0.39926 0.0
O472 O 0.27422 0.31373 0.30056 0.0
O473 O 0.24689 0.27667 0.28631 0.0
O474 O 0.2266 0.28992 0.32421 0.0
O475 O 0.20279 0.24506 0.38856 0.0
C476 C 0.28245 0.28399 0.4456 0.0
C477 C 0.29977 0.40145 0.54684 0.0
C478 C 0.28995 0.40299 0.48906 0.0
C479 C 0.32135 0.33723 0.36446 0.0
C480 C 0.34132 0.33748 0.37338 0.0
C481 C 0.34398 0.32397 0.41532 0.0
C482 C 0.35759 0.35058 0.33722 0.0
C483 C 0.3762 0.3498 0.34201 0.0
C484 C 0.36241 0.32334 0.42084 0.0
C485 C 0.37835 0.33603 0.38437 0.0
C486 C 0.26058 0.29872 0.5382 0.0
C487 C 0.2394 0.30956 0.35417 0.0
C488 C 0.19824 0.25762 0.42341 0.0
C489 C 0.17912 0.2579 0.39864 0.0
C490 C 0.1769 0.2629 0.33561 0.0
C491 C 0.16272 0.25266 0.43668 0.0
C492 C 0.14426 0.25209 0.41081 0.0
C493 C 0.15903 0.26289 0.31069 0.0
C494 C 0.14283 0.25749 0.34772 0.0
C495 C 0.26087 0.29493 0.26186 0.0
H496 H 0.33177 0.31374 0.44336 0.0
H497 H 0.35554 0.36088 0.30425 0.0
H498 H 0.36431 0.31284 0.45327 0.0
H499 H 0.39249 0.33522 0.38974 0.0
H500 H 0.18883 0.26661 0.30492 0.0
H501 H 0.16406 0.24851 0.48518 0.0
H502 H 0.15763 0.26688 0.26205 0.0
H503 H 0.12907 0.25751 0.32687 0.0
Gd504 Gd 0.36208 0.12352 0.70552 0.0
Gd505 Gd 0.39309 0.12579 0.57474 0.0
C506 C 0.39247 0.06655 0.46859 0.0
C507 C 0.42498 0.07048 0.51805 0.0
C508 C 0.4149 0.09712 0.55254 0.0
C509 C 0.39681 0.08575 0.5085 0.0
C510 C 0.42954 0.09002 0.55611 0.0
C511 C 0.40644 0.05871 0.47457 0.0
C512 C 0.37445 0.05607 0.42294 0.0
C513 C 0.36161 0.06515 0.4166 0.0
N514 N 0.38369 0.09386 0.50349 0.0
C515 C 0.36667 0.08438 0.45674 0.0
H516 H 0.35659 0.09123 0.45191 0.0
C517 C 0.43796 0.12952 0.62473 0.0
N518 N 0.4188 0.11588 0.58899 0.0
C519 C 0.45311 0.12336 0.62905 0.0
C520 C 0.44869 0.10325 0.59585 0.0
H521 H 0.44156 0.14511 0.65071 0.0
H522 H 0.40332 0.0439 0.44463 0.0
H523 H 0.3862 0.15674 0.84363 0.0
H524 H 0.37054 0.04122 0.39156 0.0
H525 H 0.34781 0.05736 0.38079 0.0
H526 H 0.43593 0.06463 0.5207 0.0
H527 H 0.31724 0.09985 0.59757 0.0
H528 H 0.36261 0.20061 0.87181 0.0
H529 H 0.38709 0.18817 0.9075 0.0
H530 H 0.30564 0.17252 0.70016 0.0
H531 H 0.46811 0.13407 0.65837 0.0
H532 H 0.4604 0.09845 0.59968 0.0
H533 H 0.33231 0.19478 0.79372 0.0
H534 H 0.2896 0.10718 0.56241 0.0
N535 N 0.36229 0.15227 0.77104 0.0
C536 C 0.3623 0.18695 0.84346 0.0
C537 C 0.37613 0.17998 0.86378 0.0
C538 C 0.34775 0.17568 0.78801 0.0
C539 C 0.34803 0.15803 0.75279 0.0
C540 C 0.37565 0.16227 0.82742 0.0
N541 N 0.33361 0.12821 0.6696 0.0
C542 C 0.33307 0.14546 0.70071 0.0
C543 C 0.30178 0.11816 0.6013 0.0
C544 C 0.30173 0.13652 0.63068 0.0
C545 C 0.31772 0.11408 0.62183 0.0
C546 C 0.3173 0.15026 0.68169 0.0
H547 H 0.28943 0.1397 0.6144 0.0
O548 O 0.33874 0.08922 0.71722 0.0
O549 O 0.38597 0.11659 0.67268 0.0
O550 O 0.37077 0.0898 0.58895 0.0
O551 O 0.34464 0.09442 0.62477 0.0
O552 O 0.38962 0.12622 0.77001 0.0
O553 O 0.35461 0.11381 0.80064 0.0
O554 O 0.42299 0.15351 0.55848 0.0
O555 O 0.37239 0.1368 0.61317 0.0
O556 O 0.39051 0.15858 0.71642 0.0
O557 O 0.4133 0.15584 0.65049 0.0
O558 O 0.36711 0.12776 0.51564 0.0
O559 O 0.39705 0.13693 0.47985 0.0
C560 C 0.39719 0.12003 0.72564 0.0
C561 C 0.31745 0.16843 0.71463 0.0
C562 C 0.33265 0.18112 0.76777 0.0
C563 C 0.34289 0.09266 0.77977 0.0
C564 C 0.34806 0.07734 0.81098 0.0
C565 C 0.33474 0.05411 0.79716 0.0
C566 C 0.36657 0.08582 0.85403 0.0
C567 C 0.37191 0.07151 0.88279 0.0
C568 C 0.33986 0.03973 0.82645 0.0
C569 C 0.35834 0.04836 0.86952 0.0
C570 C 0.35103 0.08162 0.59824 0.0
C571 C 0.36153 0.13563 0.56202 0.0
C572 C 0.41651 0.15277 0.49812 0.0
C573 C 0.42366 0.1741 0.47272 0.0
C574 C 0.41798 0.18936 0.49455 0.0
C575 C 0.43619 0.17875 0.42342 0.0
C576 C 0.44281 0.19826 0.39381 0.0
C577 C 0.42477 0.2091 0.46593 0.0
C578 C 0.43691 0.21344 0.41509 0.0
C579 C 0.40901 0.16664 0.69534 0.0
H580 H 0.3204 0.04712 0.76383 0.0
H581 H 0.37688 0.10368 0.86636 0.0
H582 H 0.32947 0.02184 0.81577 0.0
H583 H 0.3621 0.03707 0.89203 0.0
H584 H 0.40822 0.18591 0.53281 0.0
H585 H 0.44001 0.1665 0.40588 0.0
H586 H 0.42026 0.22083 0.48231 0.0
H587 H 0.44146 0.22839 0.39198 0.0
Gd588 Gd 0.91408 0.20564 0.61774 0.0
Gd589 Gd 0.92992 0.17791 0.73429 0.0
C590 C 0.98593 0.21033 0.89499 0.0
C591 C 0.0135 0.21065 0.84033 0.0
C592 C 0.97828 0.19458 0.78329 0.0
C593 C 0.97183 0.19983 0.83764 0.0
C594 C -0.00098 0.19919 0.78447 0.0
C595 C 0.00698 0.21631 0.89552 0.0
C596 C 0.97828 0.2138 0.9505 0.0
C597 C 0.95685 0.20561 0.94881 0.0
N598 N 0.95133 0.19341 0.83537 0.0
C599 C 0.94346 0.19505 0.89081 0.0
H600 H 0.92695 0.18894 0.89 0.0
C601 C 0.96856 0.17459 0.67947 0.0
N602 N 0.96378 0.18342 0.73069 0.0
C603 C 0.98889 0.17861 0.67829 0.0
C604 C 0.00433 0.19138 0.73047 0.0
H605 H 0.95688 0.16478 0.63855 0.0
H606 H 0.01811 0.22456 0.93896 0.0
H607 H 0.86549 0.16349 0.54664 0.0
H608 H 0.98867 0.22226 0.99514 0.0
H609 H 0.95065 0.20758 0.992 0.0
H610 H 0.02958 0.2146 0.84196 0.0
H611 H 0.94092 0.26156 0.63799 0.0
H612 H 0.82019 0.17958 0.59614 0.0
H613 H 0.82897 0.15321 0.54478 0.0
H614 H 0.86193 0.25603 0.68692 0.0
H615 H 0.99267 0.172 0.63684 0.0
H616 H 0.02008 0.19454 0.72935 0.0
H617 H 0.83268 0.218 0.64953 0.0
H618 H 0.93562 0.29239 0.67404 0.0
N619 N 0.87805 0.19463 0.6057 0.0
C620 C 0.83644 0.18404 0.59868 0.0
C621 C 0.84133 0.16911 0.5698 0.0
C622 C 0.85264 0.20504 0.62728 0.0
C623 C 0.87355 0.20999 0.62954 0.0
C624 C 0.86229 0.17489 0.57249 0.0
N625 N 0.90967 0.2361 0.64473 0.0
C626 C 0.88994 0.23141 0.65021 0.0
C627 C 0.92266 0.2753 0.66844 0.0
C628 C 0.9028 0.27054 0.6805 0.0
C629 C 0.92565 0.25783 0.64838 0.0
C630 C 0.88597 0.24847 0.66907 0.0
H631 H 0.90041 0.28411 0.69512 0.0
O632 O 0.9122 0.22122 0.53247 0.0
O633 O 0.93824 0.1974 0.65056 0.0
O634 O 0.94485 0.21388 0.77906 0.0
O635 O 0.92796 0.22797 0.71445 0.0
O636 O 0.94923 0.22982 0.6319 0.0
O637 O 0.92179 0.19714 0.52628 0.0
O638 O 0.91036 0.15031 0.78719 0.0
O639 O 0.90371 0.18162 0.68904 0.0
O640 O 0.89657 0.16782 0.5915 0.0
O641 O 0.9237 0.16354 0.62956 0.0
O642 O 0.90473 0.17879 0.7861 0.0
O643 O 0.92519 0.14497 0.71042 0.0
C644 C 0.95479 0.21598 0.64899 0.0
C645 C 0.86527 0.24321 0.67179 0.0
C646 C 0.84861 0.22154 0.65059 0.0
C647 C 0.92153 0.21329 0.49997 0.0
C648 C 0.94146 0.22961 0.47778 0.0
C649 C 0.95151 0.25248 0.50007 0.0
C650 C 0.95185 0.22193 0.44072 0.0
C651 C 0.97259 0.23655 0.42882 0.0
C652 C 0.97199 0.26708 0.48874 0.0
C653 C 0.98261 0.25918 0.45442 0.0
C654 C 0.94033 0.22942 0.76646 0.0
C655 C 0.89512 0.18197 0.73797 0.0
C656 C 0.91413 0.13633 0.75637 0.0
C657 C 0.92054 0.1235 0.79502 0.0
C658 C 0.91097 0.10042 0.77831 0.0
C659 C 0.93687 0.13426 0.84643 0.0
C660 C 0.94348 0.12203 0.88205 0.0
C661 C 0.91751 0.08816 0.81327 0.0
C662 C 0.93362 0.09886 0.86511 0.0
C663 C 0.90566 0.1558 0.59279 0.0
H664 H 0.94384 0.25904 0.52776 0.0
H665 H 0.94365 0.20444 0.4218 0.0
H666 H 0.97977 0.28456 0.50749 0.0
H667 H 0.99869 0.27087 0.44817 0.0
H668 H 0.89852 0.09192 0.73806 0.0
H669 H 0.9441 0.15206 0.85951 0.0
H670 H 0.91005 0.07033 0.80025 0.0
H671 H 0.93839 0.08906 0.89188 0.0
Gd672 Gd 0.8851 0.66635 0.87552 0.0
Gd673 Gd 0.85025 0.6202 0.74928 0.0
C674 C 0.78419 0.56802 0.78399 0.0
C675 C 0.78738 0.53555 0.79569 0.0
C676 C 0.81734 0.57037 0.77404 0.0
C677 C 0.80553 0.58055 0.77499 0.0
C678 C 0.80812 0.54753 0.78201 0.0
C679 C 0.77542 0.54576 0.79654 0.0
C680 C 0.77204 0.57795 0.77774 0.0
C681 C 0.78099 0.59952 0.76049 0.0
N682 N 0.81439 0.60213 0.76237 0.0
C683 C 0.8022 0.61135 0.75228 0.0
H684 H 0.80848 0.62784 0.73822 0.0
C685 C 0.84757 0.57147 0.74321 0.0
N686 N 0.8372 0.58219 0.75925 0.0
C687 C 0.83925 0.549 0.7516 0.0
C688 C 0.81962 0.5371 0.77254 0.0
H689 H 0.86265 0.58054 0.7262 0.0
H690 H 0.75917 0.53603 0.80454 0.0
H691 H 0.88573 0.64927 1.02281 0.0
H692 H 0.75562 0.56888 0.78432 0.0
H693 H 0.77157 0.60713 0.75377 0.0
H694 H 0.78015 0.51809 0.80289 0.0
H695 H 0.91563 0.7058 0.78678 0.0
H696 H 0.94695 0.66094 0.0832 0.0
H697 H 0.91014 0.64611 0.10186 0.0
H698 H 0.98753 0.70546 0.92643 0.0
H699 H 0.8479 0.54085 0.74142 0.0
H700 H 0.81308 0.5196 0.77824 0.0
H701 H 0.97581 0.68306 1.01701 0.0
H702 H 0.95272 0.72734 0.77002 0.0
N703 N 0.90821 0.66515 0.95828 0.0
C704 C 0.93627 0.66234 0.04813 0.0
C705 C 0.91553 0.65403 0.05895 0.0
C706 C 0.94325 0.6734 0.9939 0.0
C707 C 0.92869 0.67474 0.9498 0.0
C708 C 0.90174 0.65594 1.01397 0.0
N709 N 0.92063 0.68842 0.85949 0.0
C710 C 0.93512 0.68684 0.89853 0.0
C711 C 0.94798 0.71584 0.80604 0.0
C712 C 0.9628 0.713 0.84244 0.0
C713 C 0.9269 0.70353 0.81573 0.0
C714 C 0.95653 0.69872 0.89046 0.0
H715 H 0.97909 0.72246 0.83466 0.0
O716 O 0.89126 0.70018 0.87473 0.0
O717 O 0.85164 0.64016 0.83746 0.0
O718 O 0.8445 0.64909 0.74352 0.0
O719 O 0.87794 0.67767 0.78262 0.0
O720 O 0.86 0.64518 0.93605 0.0
O721 O 0.87854 0.6824 0.95515 0.0
O722 O 0.85803 0.6325 0.65646 0.0
O723 O 0.88176 0.65044 0.77688 0.0
O724 O 0.89152 0.63847 0.8886 0.0
O725 O 0.86259 0.60697 0.82826 0.0
O726 O 0.88092 0.62257 0.73356 0.0
O727 O 0.83196 0.59956 0.65922 0.0
C728 C 0.84516 0.63317 0.88995 0.0
C729 C 0.97105 0.6967 0.93231 0.0
C730 C 0.96439 0.68397 0.98389 0.0
C731 C 0.887 0.70162 0.93282 0.0
C732 C 0.90341 0.72132 0.97619 0.0
C733 C 0.90833 0.74276 0.96343 0.0
C734 C 0.91513 0.71902 1.02783 0.0
C735 C 0.93177 0.7379 0.06664 0.0
C736 C 0.92475 0.76161 1.00183 0.0
C737 C 0.93644 0.75925 0.05317 0.0
C738 C 0.85934 0.67046 0.74958 0.0
C739 C 0.89304 0.64327 0.75697 0.0
C740 C 0.84502 0.61324 0.62367 0.0
C741 C 0.85402 0.60417 0.57898 0.0
C742 C 0.84595 0.58107 0.56683 0.0
C743 C 0.87165 0.61885 0.55069 0.0
C744 C 0.88163 0.61085 0.51233 0.0
C745 C 0.85556 0.57297 0.52795 0.0
C746 C 0.87333 0.58773 0.50096 0.0
C747 C 0.87963 0.61669 0.87178 0.0
H748 H 0.89962 0.74492 0.92335 0.0
H749 H 0.9111 0.70245 1.03827 0.0
H750 H 0.9285 0.77811 0.99155 0.0
H751 H 0.94918 0.77409 0.08195 0.0
H752 H 0.83239 0.56926 0.58789 0.0
H753 H 0.87761 0.63662 0.55867 0.0
H754 H 0.84931 0.55518 0.51919 0.0
H755 H 0.88068 0.58107 0.4718 0.0
C756 C 0.09067 0.49677 0.92763 0.0
C757 C 0.07213 0.4841 0.95599 0.0
C758 C 0.0906 0.49686 0.85915 0.0
C759 C 0.05329 0.47759 0.69586 0.0
H760 H 0.10447 0.49633 0.62119 0.0
C761 C 0.0546 0.48366 0.41145 0.0
C762 C 0.0705 0.48343 0.37941 0.0
C763 C 0.05484 0.48391 0.48002 0.0
C764 C 0.08975 0.49076 0.63986 0.0
H765 H 0.03882 0.46111 0.92933 0.0
H766 H 0.0386 0.46098 0.81305 0.0
H767 H 0.10476 0.49592 0.73711 0.0
H768 H 0.09929 0.48317 0.39941 0.0
H769 H 0.09958 0.48316 0.51594 0.0
H770 H 0.03816 0.47185 0.59854 0.0
C771 C 0.05346 0.47148 0.84315 0.0
C772 C 0.08999 0.49082 0.70837 0.0
C773 C 0.05356 0.47148 0.91147 0.0
C774 C 0.08663 0.48342 0.42037 0.0
C775 C 0.08685 0.48358 0.48882 0.0
C776 C 0.05304 0.47746 0.62737 0.0
C777 C 0.07197 0.48421 0.81425 0.0
C778 C 0.07176 0.48423 0.73905 0.0
C779 C 0.07098 0.48385 0.52138 0.0
C780 C 0.07126 0.48404 0.59665 0.0
H781 H 0.10542 0.50703 0.95857 0.0
H782 H 0.10541 0.50733 0.84183 0.0
H783 H 0.03868 0.47258 0.71466 0.0
H784 H 0.04178 0.48374 0.38339 0.0
H785 H 0.04225 0.48444 0.50039 0.0
C786 C 0.61094 0.48714 0.8372 0.0
C787 C 0.60009 0.49519 0.87178 0.0
C788 C 0.61129 0.48742 0.76912 0.0
C789 C 0.5962 0.5097 0.62005 0.0
H790 H 0.61129 0.47194 0.52546 0.0
C791 C 0.60447 0.51502 0.33879 0.0
C792 C 0.60347 0.49744 0.29828 0.0
C793 C 0.60405 0.51474 0.40691 0.0
C794 C 0.60679 0.48261 0.54979 0.0
H795 H 0.58042 0.50929 0.85661 0.0
H796 H 0.5807 0.50963 0.74009 0.0
H797 H 0.60993 0.47098 0.64051 0.0
H798 H 0.60111 0.46545 0.30238 0.0
H799 H 0.59997 0.46462 0.41842 0.0
H800 H 0.59241 0.5208 0.52892 0.0
C801 C 0.58961 0.5035 0.76545 0.0
C802 C 0.60629 0.48229 0.61789 0.0
C803 C 0.5894 0.50333 0.83374 0.0
C804 C 0.60204 0.47953 0.33026 0.0
C805 C 0.60149 0.47916 0.39837 0.0
C806 C 0.5966 0.50994 0.55187 0.0
C807 C 0.60063 0.4956 0.73055 0.0
C808 C 0.60102 0.49586 0.6557 0.0
C809 C 0.60249 0.49677 0.43933 0.0
C810 C 0.60196 0.49643 0.51412 0.0
H811 H 0.61964 0.48084 0.86305 0.0
H812 H 0.62039 0.48142 0.74722 0.0
H813 H 0.59224 0.52079 0.6447 0.0
H814 H 0.60579 0.52936 0.31796 0.0
H815 H 0.60528 0.52907 0.43407 0.0
C816 C 0.57235 0.03563 0.66131 0.0
C817 C 0.5826 0.05544 0.70544 0.0
C818 C 0.57208 0.03588 0.59287 0.0
C819 C 0.59722 0.07455 0.46023 0.0
H820 H 0.55277 0.02465 0.34445 0.0
C821 C 0.59029 0.07783 0.17409 0.0
C822 C 0.58008 0.05805 0.12983 0.0
C823 C 0.59063 0.07754 0.24253 0.0
C824 C 0.56562 0.03882 0.37507 0.0
H825 H 0.60118 0.09137 0.70704 0.0
H826 H 0.60056 0.09191 0.59055 0.0
H827 H 0.55339 0.02408 0.4607 0.0
H828 H 0.56169 0.02212 0.12814 0.0
H829 H 0.56242 0.0215 0.24467 0.0
H830 H 0.60943 0.0893 0.3746 0.0
C831 C 0.59264 0.07581 0.60826 0.0
C832 C 0.56598 0.03848 0.44349 0.0
C833 C 0.59287 0.07553 0.67662 0.0
C834 C 0.56996 0.03794 0.15861 0.0
C835 C 0.57025 0.03762 0.22699 0.0
C836 C 0.59685 0.07489 0.39182 0.0
C837 C 0.58216 0.056 0.56374 0.0
C838 C 0.58179 0.05633 0.48868 0.0
C839 C 0.58065 0.05741 0.27158 0.0
C840 C 0.58103 0.05704 0.34663 0.0
H841 H 0.56456 0.01966 0.6796 0.0
H842 H 0.56407 0.01997 0.56287 0.0
H843 H 0.61007 0.08872 0.49083 0.0
H844 H 0.59802 0.09382 0.15592 0.0
H845 H 0.59859 0.09344 0.27259 0.0
C846 C 0.74741 0.87892 0.58678 0.0
C847 C 0.76561 0.88599 0.55591 0.0
C848 C 0.74792 0.87944 0.65549 0.0
C849 C 0.78338 0.88747 0.8149 0.0
H850 H 0.7398 0.88973 0.89641 0.0
C851 C 0.78766 0.89689 0.10407 0.0
C852 C 0.76932 0.88966 0.13435 0.0
C853 C 0.78736 0.89657 1.03539 0.0
C854 C 0.75216 0.88882 0.8756 0.0
H855 H 0.79895 0.8992 0.57865 0.0
H856 H 0.79995 0.90031 0.69582 0.0
H857 H 0.73899 0.88887 0.77988 0.0
H858 H 0.73604 0.87664 0.11063 0.0
H859 H 0.7354 0.87584 0.99383 0.0
H860 H 0.79655 0.88744 0.9107 0.0
C861 C 0.7849 0.89401 0.66716 0.0
C862 C 0.75167 0.88831 0.8069 0.0
C863 C 0.78437 0.8935 0.59845 0.0
C864 C 0.75071 0.88236 0.09135 0.0
C865 C 0.75038 0.88206 1.02279 0.0
C866 C 0.78386 0.88798 0.88362 0.0
C867 C 0.76669 0.88702 0.69838 0.0
C868 C 0.76726 0.8876 0.77385 0.0
C869 C 0.76869 0.88909 0.99207 0.0
C870 C 0.76825 0.88865 0.91665 0.0
H871 H 0.73246 0.87265 0.55771 0.0
H872 H 0.73322 0.87343 0.67467 0.0
H873 H 0.79574 0.88659 0.79403 0.0
H874 H 0.80254 0.90306 0.1336 0.0
H875 H 0.80213 0.90261 1.01657 0.0
C876 C 0.18882 0.78274 0.62559 0.0
C877 C 0.19183 0.80141 0.59328 0.0
C878 C 0.18929 0.78247 0.69545 0.0
C879 C 0.19393 0.81805 0.86144 0.0
H880 H 0.18634 0.76641 0.93974 0.0
C881 C 0.19366 0.81662 0.15661 0.0
C882 C 0.19065 0.79794 0.18886 0.0
C883 C 0.19317 0.8169 0.08674 0.0
C884 C 0.18849 0.78132 0.92068 0.0
H885 H 0.19587 0.83391 0.61796 0.0
H886 H 0.19726 0.83388 0.73491 0.0
H887 H 0.18716 0.76714 0.82387 0.0
H888 H 0.18657 0.76543 0.16406 0.0
H889 H 0.18515 0.76548 0.04713 0.0
H890 H 0.19525 0.83223 0.95826 0.0
C891 C 0.19506 0.81917 0.70714 0.0
C892 C 0.18899 0.78175 0.85127 0.0
C893 C 0.19459 0.81937 0.63762 0.0
C894 C 0.18786 0.77997 0.14446 0.0
C895 C 0.18736 0.78019 0.07494 0.0
C896 C 0.19343 0.81763 0.93086 0.0
C897 C 0.19218 0.80061 0.74003 0.0
C898 C 0.19174 0.80014 0.8177 0.0
C899 C 0.19026 0.79876 1.0421 0.0
C900 C 0.19068 0.79923 0.96443 0.0
H901 H 0.18537 0.76769 0.59636 0.0
H902 H 0.18677 0.76736 0.71403 0.0
H903 H 0.19607 0.83296 0.84237 0.0
H904 H 0.19713 0.83167 0.18588 0.0
H905 H 0.1957 0.83202 0.06819 0.0
C906 C 0.27422 0.31762 0.65773 0.0
C907 C 0.26051 0.29863 0.61267 0.0
C908 C 0.27429 0.31727 0.7261 0.0
C909 C 0.24325 0.28129 0.85729 0.0
H910 H 0.29238 0.32471 0.97407 0.0
C911 C 0.24812 0.27572 0.14244 0.0
C912 C 0.26092 0.29503 0.18741 0.0
C913 C 0.24804 0.27611 0.07408 0.0
C914 C 0.27824 0.31243 0.94312 0.0
H915 H 0.23566 0.26412 0.60936 0.0
H916 H 0.23597 0.26328 0.7256 0.0
H917 H 0.29229 0.3255 0.85801 0.0
H918 H 0.2841 0.33018 0.19063 0.0
H919 H 0.28395 0.33096 0.07416 0.0
H920 H 0.22926 0.26818 0.94256 0.0
C921 C 0.24678 0.27889 0.70879 0.0
C922 C 0.27818 0.3129 0.87481 0.0
C923 C 0.2467 0.27929 0.64051 0.0
C924 C 0.27385 0.31473 0.1595 0.0
C925 C 0.27384 0.31513 0.09123 0.0
C926 C 0.24334 0.28078 0.92559 0.0
C927 C 0.2606 0.29785 0.75426 0.0
C928 C 0.26067 0.29736 0.82925 0.0
C929 C 0.26089 0.29585 0.04594 0.0
C930 C 0.26083 0.29635 0.97106 0.0
H931 H 0.28494 0.33309 0.64025 0.0
H932 H 0.28509 0.33262 0.7568 0.0
H933 H 0.22907 0.26903 0.82653 0.0
H934 H 0.23815 0.25999 0.15996 0.0
H935 H 0.23795 0.26056 0.0433 0.0
C936 C 0.44283 0.20029 0.27593 0.0
C937 C 0.45306 0.20026 0.33516 0.0
C938 C 0.44644 0.19237 0.21851 0.0
C939 C 0.45475 0.14726 0.17887 0.0
H940 H 0.44107 0.15587 1.00453 0.0
C941 C 0.41034 0.09722 0.909 0.0
C942 C 0.39132 0.08156 0.92884 0.0
C943 C 0.42729 0.11241 0.95433 0.0
C944 C 0.44541 0.15333 0.05256 0.0
H945 H 0.47754 0.19569 0.38061 0.0
H946 H 0.484 0.18202 0.28021 0.0
H947 H 0.45645 0.18719 0.08971 0.0
H948 H 0.37559 0.06766 1.01103 0.0
H949 H 0.40517 0.0941 0.09095 0.0
H950 H 0.44228 0.11302 0.14261 0.0
C951 C 0.47289 0.18765 0.27801 0.0
C952 C 0.4541 0.17128 0.1014 0.0
C953 C 0.46929 0.19559 0.33536 0.0
C954 C 0.39019 0.07952 0.99471 0.0
C955 C 0.40716 0.09471 1.04032 0.0
C956 C 0.44595 0.12929 0.13013 0.0
C957 C 0.46034 0.18434 0.21978 0.0
C958 C 0.45781 0.16812 0.16564 0.0
C959 C 0.42541 0.11211 1.02044 0.0
C960 C 0.44018 0.13188 0.06721 0.0
H961 H 0.43022 0.20375 0.27452 0.0
H962 H 0.43651 0.19008 0.17445 0.0
H963 H 0.45728 0.14417 0.22792 0.0
H964 H 0.41141 0.09881 0.8584 0.0
H965 H 0.44125 0.1254 0.93764 0.0
C966 C 0.99746 0.24233 0.34766 0.0
C967 C 0.98327 0.22834 0.38776 0.0
C968 C 0.00492 0.23374 0.30194 0.0
C969 C 0.00108 0.18066 0.23271 0.0
H970 H 0.99281 0.20156 0.07226 0.0
C971 C 0.9558 0.12454 0.9986 0.0
C972 C 0.95951 0.13345 0.93953 0.0
C973 C 0.96847 0.13739 0.05568 0.0
C974 C 0.9958 0.19579 0.11632 0.0
H975 H 0.968 0.19479 0.41584 0.0
H976 H 0.97951 0.17956 0.33321 0.0
H977 H 0.9979 0.22325 0.17266 0.0
H978 H 0.98077 0.1616 0.89249 0.0
H979 H 0.00303 0.18403 0.9923 0.0
H980 H 0.99706 0.15208 0.17474 0.0
C981 C 0.98527 0.19729 0.3376 0.0
C982 C 0.99879 0.20834 0.17456 0.0
C983 C 0.9782 0.20598 0.38433 0.0
C984 C 0.97732 0.15455 0.93768 0.0
C985 C 0.99007 0.16733 0.99471 0.0
C986 C 0.99786 0.16795 0.17404 0.0
C987 C 0.99791 0.21083 0.29371 0.0
C988 C 0.00046 0.20045 0.23364 0.0
C989 C 0.98512 0.15934 0.05465 0.0
C990 C 0.99422 0.17494 0.11532 0.0
H991 H 0.0019 0.25965 0.3484 0.0
H992 H 0.01516 0.24486 0.2703 0.0
H993 H 0.00287 0.17435 0.27726 0.0
H994 H 0.94215 0.10836 1.00147 0.0
H995 H 0.96407 0.13077 0.10098 0.0
C996 C 0.91519 0.64751 0.51869 0.0
C997 C 0.90032 0.62686 0.48341 0.0
C998 C 0.93042 0.66448 0.48851 0.0
C999 C 0.95547 0.67949 0.34051 0.0
H1000 H 0.93906 0.72383 0.34549 0.0
C1001 C 0.94717 0.71721 0.1181 0.0
C1002 C 0.94329 0.73483 0.12262 0.0
C1003 C 0.95295 0.71047 0.17343 0.0
C1004 C 0.94467 0.71231 0.34435 0.0
H1005 H 0.89123 0.60694 0.39018 0.0
H1006 H 0.91823 0.63645 0.33764 0.0
H1007 H 0.92923 0.69817 0.4253 0.0
H1008 H 0.94583 0.7616 0.18789 0.0
H1009 H 0.95747 0.75097 0.28409 0.0
H1010 H 0.97073 0.69342 0.25896 0.0
C1011 C 0.91794 0.63955 0.38877 0.0
C1012 C 0.93885 0.69741 0.39039 0.0
C1013 C 0.90243 0.62267 0.4188 0.0
C1014 C 0.94827 0.74763 0.18274 0.0
C1015 C 0.95466 0.74128 0.23817 0.0
C1016 C 0.96184 0.69485 0.29528 0.0
C1017 C 0.93142 0.66089 0.42268 0.0
C1018 C 0.94311 0.68007 0.38652 0.0
C1019 C 0.95559 0.72162 0.23486 0.0
C1020 C 0.95525 0.71049 0.29384 0.0
H1021 H 0.91427 0.65081 0.56892 0.0
H1022 H 0.94062 0.68081 0.51552 0.0
H1023 H 0.95922 0.66644 0.33734 0.0
H1024 H 0.94439 0.70772 0.07197 0.0
H1025 H 0.9536 0.6954 0.1678 0.0
C1026 C 0.23332 0.33883 0.4077 0.0
C1027 C 0.23366 0.32696 0.35162 0.0
C1028 C 0.22579 0.35358 0.40327 0.0
C1029 C 0.22087 0.39061 0.30028 0.0
H1030 H 0.17089 0.37977 0.37328 0.0
C1031 C 0.193 0.45388 0.30118 0.0
C1032 C 0.17223 0.44563 0.2726 0.0
C1033 C 0.20005 0.43942 0.31652 0.0
C1034 C 0.18487 0.383 0.35273 0.0
H1035 H 0.22606 0.32082 0.24756 0.0
H1036 H 0.2139 0.34725 0.23972 0.0
H1037 H 0.18505 0.35521 0.39094 0.0
H1038 H 0.14229 0.41524 0.24187 0.0
H1039 H 0.15453 0.38992 0.27098 0.0
H1040 H 0.22095 0.41845 0.2626 0.0
C1041 C 0.21929 0.3451 0.28691 0.0
C1042 C 0.19305 0.36908 0.36327 0.0
C1043 C 0.22628 0.33003 0.29142 0.0
C1044 C 0.15835 0.42232 0.26381 0.0
C1045 C 0.16538 0.40777 0.28027 0.0
C1046 C 0.213 0.40478 0.29099 0.0
C1047 C 0.21881 0.35692 0.34268 0.0
C1048 C 0.21102 0.37263 0.33657 0.0
C1049 C 0.18648 0.41619 0.30524 0.0
C1050 C 0.19479 0.40106 0.31656 0.0
H1051 H 0.2385 0.3364 0.45478 0.0
H1052 H 0.22559 0.36252 0.447 0.0
H1053 H 0.23468 0.39367 0.27897 0.0
H1054 H 0.20407 0.47167 0.31093 0.0
H1055 H 0.21628 0.44646 0.33682 0.0
C1056 C 0.64541 0.64803 0.33654 0.0
C1057 C 0.63905 0.63571 0.27488 0.0
C1058 C 0.65618 0.6714 0.34367 0.0
C1059 C 0.66879 0.71958 0.24998 0.0
H1060 H 0.71273 0.7533 0.39396 0.0
C1061 C 0.73497 0.81086 0.25332 0.0
C1062 C 0.73873 0.82589 0.30734 0.0
C1063 C 0.72087 0.78806 0.25249 0.0
C1064 C 0.7003 0.74407 0.35403 0.0
H1065 H 0.63915 0.6387 0.17226 0.0
H1066 H 0.65884 0.67916 0.18478 0.0
H1067 H 0.69244 0.71261 0.3858 0.0
H1068 H 0.73167 0.82889 0.40441 0.0
H1069 H 0.7072 0.78859 0.40364 0.0
H1070 H 0.67754 0.75119 0.21681 0.0
C1071 C 0.65501 0.67082 0.22781 0.0
C1072 C 0.6886 0.72073 0.34928 0.0
C1073 C 0.64401 0.64748 0.22064 0.0
C1074 C 0.72863 0.81764 0.36161 0.0
C1075 C 0.71478 0.79467 0.3613 0.0
C1076 C 0.68071 0.74287 0.25425 0.0
C1077 C 0.66114 0.68315 0.28939 0.0
C1078 C 0.67285 0.70811 0.29667 0.0
C1079 C 0.71075 0.77971 0.30655 0.0
C1080 C 0.69673 0.7553 0.30587 0.0
H1081 H 0.64218 0.63967 0.37962 0.0
H1082 H 0.6604 0.68019 0.39188 0.0
H1083 H 0.65647 0.7106 0.2097 0.0
H1084 H 0.74288 0.81682 0.2114 0.0
H1085 H 0.71827 0.77685 0.21008 0.0
C1086 C 0.43661 0.9809 1.03089 0.0
C1087 C 0.45098 0.97498 1.01223 0.0
C1088 C 0.42225 0.96863 0.07249 0.0
C1089 C 0.39688 0.91351 0.13458 0.0
H1090 H 0.38264 0.94355 0.26462 0.0
C1091 C 0.32825 0.8648 0.2797 0.0
C1092 C 0.33063 0.87248 0.34528 0.0
C1093 C 0.34322 0.87743 0.24031 0.0
C1094 C 0.38658 0.9349 0.22902 0.0
H1095 H 0.46129 0.95127 1.02257 0.0
H1096 H 0.43676 0.93037 0.0964 0.0
H1097 H 0.40841 0.96541 0.19476 0.0
H1098 H 0.35081 0.8996 0.42073 0.0
H1099 H 0.37727 0.92137 0.3524 0.0
H1100 H 0.37548 0.88307 0.16979 0.0
C1101 C 0.43636 0.94431 0.0782 0.0
C1102 C 0.40117 0.94743 0.18831 0.0
C1103 C 0.45065 0.95651 1.03644 0.0
C1104 C 0.34855 0.89306 0.37061 0.0
C1105 C 0.36359 0.90569 0.33118 0.0
C1106 C 0.38236 0.90101 0.17539 0.0
C1107 C 0.42192 0.95016 0.09666 0.0
C1108 C 0.40648 0.93689 0.14043 0.0
C1109 C 0.36109 0.89806 0.26543 0.0
C1110 C 0.37694 0.91151 0.22299 0.0
H1111 H 0.43655 0.99516 1.01381 0.0
H1112 H 0.41122 0.97349 0.08503 0.0
H1113 H 0.40036 0.90477 0.09783 0.0
H1114 H 0.31481 0.8489 0.25866 0.0
H1115 H 0.34061 0.87111 0.18981 0.0
C1116 C 0.53711 0.08179 0.91279 0.0
C1117 C 0.54309 0.07436 0.85922 0.0
C1118 C 0.52258 0.08893 0.90385 0.0
C1119 C 0.50134 0.11386 0.80088 0.0
H1120 H 0.44505 0.07242 0.83659 0.0
C1121 C 0.43332 0.13245 0.77787 0.0
C1122 C 0.41472 0.11602 0.73951 0.0
C1123 C 0.44952 0.12838 0.7957 0.0
C1124 C 0.4607 0.08417 0.82651 0.0
H1125 H 0.53884 0.06889 0.75482 0.0
H1126 H 0.51457 0.0825 0.73942 0.0
H1127 H 0.47353 0.0652 0.86532 0.0
H1128 H 0.39781 0.08188 0.69376 0.0
H1129 H 0.42593 0.07445 0.72668 0.0
H1130 H 0.48864 0.13292 0.76242 0.0
C1131 C 0.52087 0.08262 0.78808 0.0
C1132 C 0.47701 0.08014 0.84351 0.0
C1133 C 0.53483 0.07494 0.79695 0.0
C1134 C 0.41223 0.09503 0.72177 0.0
C1135 C 0.42822 0.09073 0.74127 0.0
C1136 C 0.48515 0.11816 0.78527 0.0
C1137 C 0.51415 0.08916 0.84127 0.0
C1138 C 0.49746 0.09483 0.83025 0.0
C1139 C 0.44717 0.10743 0.77798 0.0
C1140 C 0.46454 0.10321 0.797 0.0
H1141 H 0.54275 0.08094 0.96129 0.0
H1142 H 0.51758 0.09383 0.9457 0.0
H1143 H 0.5169 0.12531 0.78949 0.0
H1144 H 0.43539 0.14855 0.79365 0.0
H1145 H 0.46376 0.14149 0.82454 0.0
C1146 C 0.95159 0.25125 0.8773 0.0
C1147 C 0.95111 0.25076 0.80996 0.0
C1148 C 0.96142 0.27172 0.91727 0.0
C1149 C 0.9773 0.33089 0.91444 0.0
H1150 H 0.01833 0.34327 0.06142 0.0
C1151 C 0.03721 0.4208 1.03071 0.0
C1152 C 0.04449 0.42485 0.0969 0.0
C1153 C 0.02329 0.39903 1.00099 0.0
C1154 C 0.0066 0.34005 1.02145 0.0
H1155 H 0.96204 0.27129 0.73259 0.0
H1156 H 0.97811 0.30677 0.80112 0.0
H1157 H 0.99881 0.30607 1.00078 0.0
H1158 H 0.04422 0.40924 0.18303 0.0
H1159 H 0.01927 0.3712 0.1322 0.0
H1160 H 0.98483 0.36467 0.93492 0.0
C1161 C 0.97056 0.29144 0.8232 0.0
C1162 C 0.99547 0.31868 0.98651 0.0
C1163 C 0.96109 0.27108 0.7837 0.0
C1164 C 0.038 0.40664 0.13256 0.0
C1165 C 0.02403 0.38481 0.10298 0.0
C1166 C 0.98819 0.35215 0.94982 0.0
C1167 C 0.97075 0.29206 0.89045 0.0
C1168 C 0.98103 0.314 0.93173 0.0
C1169 C 0.01667 0.38062 1.03643 0.0
C1170 C 0.00339 0.35724 1.003 0.0
H1171 H 0.94396 0.23587 0.8989 0.0
H1172 H 0.96135 0.27165 0.96896 0.0
H1173 H 0.96602 0.3277 0.87304 0.0
H1174 H 0.04277 0.43441 1.00139 0.0
H1175 H 0.01853 0.39663 0.94946 0.0
C1176 C 0.81 0.62809 0.90014 0.0
C1177 C 0.82321 0.61929 0.90235 0.0
C1178 C 0.78996 0.61613 0.9191 0.0
C1179 C 0.74816 0.55932 0.9441 0.0
H1180 H 0.72834 0.59147 0.04471 0.0
C1181 C 0.67373 0.5431 0.09121 0.0
C1182 C 0.6567 0.52843 0.04465 0.0
C1183 C 0.69437 0.55222 0.07737 0.0
C1184 C 0.73365 0.58214 1.01716 0.0
H1185 H 0.82656 0.59192 0.93019 0.0
H1186 H 0.79125 0.57059 0.9618 0.0
H1187 H 0.76349 0.61147 1.01379 0.0
H1188 H 0.64784 0.51238 0.94637 0.0
H1189 H 0.68386 0.52784 0.92225 0.0
H1190 H 0.71813 0.52996 0.94733 0.0
C1191 C 0.79615 0.58651 0.94416 0.0
C1192 C 0.75377 0.5937 0.99872 0.0
C1193 C 0.81633 0.59866 0.92598 0.0
C1194 C 0.6607 0.52299 0.98391 0.0
C1195 C 0.68136 0.53193 0.97014 0.0
C1196 C 0.72788 0.54775 0.96206 0.0
C1197 C 0.78269 0.59512 0.94115 0.0
C1198 C 0.76131 0.5825 0.96171 0.0
C1199 C 0.69848 0.54714 1.01615 0.0
C1200 C 0.72034 0.55903 0.99882 0.0
H1201 H 0.81526 0.64432 0.88412 0.0
H1202 H 0.78005 0.62326 0.91583 0.0
H1203 H 0.75338 0.55016 0.91536 0.0
H1204 H 0.67104 0.54819 0.1376 0.0
H1205 H 0.70712 0.56372 0.11417 0.0
C1206 C 0.89651 0.59404 0.85858 0.0
C1207 C 0.88738 0.60273 0.89798 0.0
C1208 C 0.90599 0.58283 0.88463 0.0
C1209 C 0.90646 0.55136 1.01803 0.0
H1210 H 0.9626 0.56859 0.98361 0.0
C1211 C 0.95061 0.51322 0.14445 0.0
C1212 C 0.96409 0.50928 0.11058 0.0
C1213 C 0.94232 0.52574 0.1203 0.0
C1214 C 0.9468 0.56323 0.99308 0.0
H1215 H 0.88068 0.60638 0.9949 0.0
H1216 H 0.89677 0.58624 1.04046 0.0
H1217 H 0.94533 0.58708 0.93642 0.0
H1218 H 0.97964 0.51549 1.02508 0.0
H1219 H 0.96462 0.53667 0.98121 0.0
H1220 H 0.90736 0.52697 0.07249 0.0
C1221 C 0.8967 0.58816 0.9895 0.0
C1222 C 0.93693 0.57397 0.96612 0.0
C1223 C 0.88753 0.5997 0.96359 0.0
C1224 C 0.96948 0.51853 0.05255 0.0
C1225 C 0.96085 0.53073 1.02758 0.0
C1226 C 0.91614 0.54034 0.04406 0.0
C1227 C 0.90627 0.57982 0.95049 0.0
C1228 C 0.91668 0.56823 0.97851 0.0
C1229 C 0.94686 0.53428 0.06061 0.0
C1230 C 0.93655 0.54616 1.03243 0.0
H1231 H 0.89685 0.5965 0.808 0.0
H1232 H 0.9131 0.57649 0.85325 0.0
H1233 H 0.89075 0.54636 1.02786 0.0
H1234 H 0.94627 0.50633 0.18947 0.0
H1235 H 0.93218 0.52854 0.14848 0.0
C1236 C 0.56502 0.3424 0.95185 0.0
C1237 C 0.56125 0.3557 0.99542 0.0
C1238 C 0.54844 0.32267 0.91727 0.0
C1239 C 0.49117 0.28149 0.91549 0.0
H1240 H 0.49728 0.25952 0.74934 0.0
C1241 C 0.4303 0.19264 0.79462 0.0
C1242 C 0.42634 0.18847 0.72709 0.0
C1243 C 0.44666 0.21324 0.82535 0.0
C1244 C 0.49506 0.26546 0.7952 0.0
H1245 H 0.53656 0.35841 1.0351 0.0
H1246 H 0.50783 0.32508 0.97189 0.0
H1247 H 0.52505 0.29539 0.80356 0.0
H1248 H 0.43641 0.20234 0.63835 0.0
H1249 H 0.46432 0.23883 0.69143 0.0
H1250 H 0.46071 0.25225 0.9055 0.0
C1251 C 0.52367 0.3294 0.96609 0.0
C1252 C 0.51128 0.28601 0.82714 0.0
C1253 C 0.54028 0.34892 1.00171 0.0
C1254 C 0.43915 0.20522 0.6906 0.0
C1255 C 0.45526 0.22608 0.72127 0.0
C1256 C 0.47479 0.2612 0.88298 0.0
C1257 C 0.52746 0.31577 0.92391 0.0
C1258 C 0.50973 0.29426 0.88822 0.0
C1259 C 0.45928 0.23045 0.78928 0.0
C1260 C 0.47654 0.25266 0.82266 0.0
H1261 H 0.58084 0.34715 0.94424 0.0
H1262 H 0.55222 0.31265 0.88622 0.0
H1263 H 0.4893 0.2869 0.96269 0.0
H1264 H 0.4211 0.17974 0.82383 0.0
H1265 H 0.44953 0.21546 0.87756 0.0
C1266 C 0.85623 0.15737 0.71385 0.0
C1267 C 0.87379 0.17819 0.7388 0.0
C1268 C 0.83594 0.15256 0.72193 0.0
C1269 C 0.80481 0.17868 0.74842 0.0
H1270 H 0.76544 0.12295 0.80887 0.0
C1271 C 0.71549 0.14494 0.73357 0.0
C1272 C 0.70691 0.14 0.79217 0.0
C1273 C 0.7358 0.14932 0.72866 0.0
C1274 C 0.77628 0.13858 0.79198 0.0
H1275 H 0.88415 0.20996 0.79393 0.0
H1276 H 0.8486 0.20201 0.80563 0.0
H1277 H 0.80105 0.13132 0.7966 0.0
H1278 H 0.71351 0.13537 0.8913 0.0
H1279 H 0.74851 0.14189 0.88126 0.0
H1280 H 0.77989 0.18567 0.74204 0.0
C1281 C 0.85047 0.18941 0.77966 0.0
C1282 C 0.79661 0.14332 0.7846 0.0
C1283 C 0.87078 0.19401 0.77278 0.0
C1284 C 0.7192 0.13878 0.84501 0.0
C1285 C 0.73939 0.14268 0.83954 0.0
C1286 C 0.78435 0.1737 0.75422 0.0
C1287 C 0.83279 0.16854 0.75474 0.0
C1288 C 0.81115 0.16346 0.76282 0.0
C1289 C 0.74804 0.14835 0.78158 0.0
C1290 C 0.76985 0.15362 0.77621 0.0
H1291 H 0.85823 0.14468 0.68903 0.0
H1292 H 0.82268 0.13639 0.70195 0.0
H1293 H 0.81559 0.19432 0.73169 0.0
H1294 H 0.70653 0.1454 0.69092 0.0
H1295 H 0.74192 0.15331 0.68306 0.0
C1296 C 0.61663 0.0234 0.93658 0.0
C1297 C 0.61449 0.03676 0.98449 0.0
C1298 C 0.625 0.01011 0.95369 0.0
C1299 C 0.63508 0.9856 0.09633 0.0
H1300 H 0.6712 0.9764 0.99221 0.0
C1301 C 0.67995 0.94337 0.18879 0.0
C1302 C 0.67844 0.92624 0.14583 0.0
C1303 C 0.67335 0.95766 0.1672 0.0
C1304 C 0.66105 0.97874 1.02166 0.0
H1305 H 0.62059 0.04791 0.08684 0.0
H1306 H 0.63508 0.025 0.11673 0.0
H1307 H 0.65686 -0.00079 0.95703 0.0
H1308 H 0.66989 0.91148 0.04589 0.0
H1309 H 0.65862 0.93656 1.00815 0.0
H1310 H 0.63949 0.96542 0.16131 0.0
C1311 C 0.62976 0.02401 0.06626 0.0
C1312 C 0.65273 0.99173 1.00132 0.0
C1313 C 0.62154 0.03726 0.04917 0.0
C1314 C 0.6711 0.92441 0.08028 0.0
C1315 C 0.66475 0.93886 0.05856 0.0
C1316 C 0.64355 0.97285 0.11689 0.0
C1317 C 0.63142 0.01003 1.019 0.0
C1318 C 0.63973 0.99548 1.03866 0.0
C1319 C 0.66535 0.95535 0.102 0.0
C1320 C 0.65672 0.96932 0.08004 0.0
H1321 H 0.61189 0.02329 0.88615 0.0
H1322 H 0.62597 -0.00045 0.9159 0.0
H1323 H 0.62471 0.98755 0.12564 0.0
H1324 H 0.68542 0.94513 0.23958 0.0
H1325 H 0.67426 0.97037 0.20177 0.0
C1326 C 0.17187 0.72277 0.293 0.0
C1327 C 0.16449 0.73043 0.34219 0.0
C1328 C 0.16311 0.69989 0.27468 0.0
C1329 C 0.13498 0.64489 0.33201 0.0
H1330 H 0.11912 0.62219 0.1502 0.0
C1331 C 0.09007 0.54974 0.24458 0.0
C1332 C 0.09304 0.54246 0.18459 0.0
C1333 C 0.09942 0.57259 0.26529 0.0
C1334 C 0.12381 0.62816 0.20117 0.0
H1335 H 0.14205 0.71991 0.41075 0.0
H1336 H 0.12699 0.67976 0.37961 0.0
H1337 H 0.13386 0.66178 0.18342 0.0
H1338 H 0.10765 0.55318 0.09853 0.0
H1339 H 0.12501 0.59305 0.13562 0.0
H1340 H 0.12562 0.61153 0.35006 0.0
C1341 C 0.13955 0.69159 0.35512 0.0
C1342 C 0.13214 0.65094 0.22021 0.0
C1343 C 0.14809 0.71457 0.3727 0.0
C1344 C 0.10547 0.55842 0.14554 0.0
C1345 C 0.11515 0.5813 0.16664 0.0
C1346 C 0.12697 0.62213 0.31296 0.0
C1347 C 0.14691 0.68399 0.30564 0.0
C1348 C 0.13777 0.65961 0.28584 0.0
C1349 C 0.11202 0.58882 0.22647 0.0
C1350 C 0.12117 0.61332 0.24714 0.0
H1351 H 0.18435 0.73449 0.26801 0.0
H1352 H 0.16922 0.69463 0.23668 0.0
H1353 H 0.13941 0.65109 0.38293 0.0
H1354 H 0.07998 0.5377 0.27467 0.0
H1355 H 0.09614 0.57744 0.31088 0.0
C1356 C 0.52856 0.45315 0.04432 0.0
C1357 C 0.54702 0.46067 0.08688 0.0
C1358 C 0.50888 0.44195 0.06647 0.0
C1359 C 0.48378 0.43423 0.21546 0.0
H1360 H 0.43833 0.37884 0.12142 0.0
C1361 C 0.40149 0.38596 0.30108 0.0
C1362 C 0.39344 0.36301 0.30312 0.0
C1363 C 0.41903 0.39862 0.26953 0.0
C1364 C 0.45085 0.39433 0.14819 0.0
H1365 H 0.55932 0.46095 0.18461 0.0
H1366 H 0.52522 0.44184 0.22342 0.0
H1367 H 0.47139 0.3996 0.0766 0.0
H1368 H 0.39696 0.33522 0.27106 0.0
H1369 H 0.42726 0.35716 0.21556 0.0
H1370 H 0.46341 0.42884 0.28749 0.0
C1371 C 0.52585 0.44504 0.17344 0.0
C1372 C 0.46973 0.4063 0.12224 0.0
C1373 C 0.5454 0.456 0.15121 0.0
C1374 C 0.40285 0.35289 0.2708 0.0
C1375 C 0.42015 0.36545 0.23856 0.0
C1376 C 0.46481 0.42242 0.24098 0.0
C1377 C 0.50733 0.43798 0.13156 0.0
C1378 C 0.48658 0.4262 0.15613 0.0
C1379 C 0.42871 0.38856 0.23833 0.0
C1380 C 0.4482 0.40211 0.20824 0.0
H1381 H 0.52938 0.45615 0.99421 0.0
H1382 H 0.4949 0.43665 1.03293 0.0
H1383 H 0.49637 0.4496 0.24252 0.0
H1384 H 0.39466 0.39426 0.32573 0.0
H1385 H 0.42512 0.41635 0.2699 0.0
C1386 C 0.87196 0.70941 0.72341 0.0
C1387 C 0.85586 0.68682 0.71661 0.0
C1388 C 0.86921 0.7251 0.69288 0.0
C1389 C 0.82903 0.73612 0.61793 0.0
H1390 H 0.87662 0.7824 0.54801 0.0
C1391 C 0.82535 0.80356 0.47443 0.0
C1392 C 0.84288 0.82542 0.48696 0.0
C1393 C 0.82571 0.78575 0.50074 0.0
C1394 C 0.86321 0.76975 0.56781 0.0
H1395 H 0.82405 0.66319 0.67218 0.0
H1396 H 0.81928 0.69072 0.61817 0.0
H1397 H 0.87933 0.75291 0.59498 0.0
H1398 H 0.87415 0.84562 0.53993 0.0
H1399 H 0.87481 0.81478 0.58516 0.0
H1400 H 0.81295 0.75315 0.59049 0.0
C1401 C 0.83403 0.69624 0.6478 0.0
C1402 C 0.86476 0.75277 0.59483 0.0
C1403 C 0.8368 0.68042 0.67852 0.0
C1404 C 0.86054 0.829 0.5278 0.0
C1405 C 0.86092 0.81126 0.55385 0.0
C1406 C 0.82745 0.75314 0.59064 0.0
C1407 C 0.85029 0.7188 0.65427 0.0
C1408 C 0.84784 0.7359 0.6213 0.0
C1409 C 0.84364 0.78932 0.5401 0.0
C1410 C 0.84466 0.7704 0.56614 0.0
H1411 H 0.88684 0.71513 0.75257 0.0
H1412 H 0.88195 0.74234 0.70025 0.0
H1413 H 0.81571 0.72352 0.63818 0.0
H1414 H 0.81154 0.80008 0.4428 0.0
H1415 H 0.81216 0.76908 0.48877 0.0
C1416 C 0.3421 0.04189 0.57217 0.0
C1417 C 0.33553 0.05745 0.57838 0.0
C1418 C 0.32742 0.01903 0.55535 0.0
C1419 C 0.27583 0.97962 0.4677 0.0
H1420 H 0.27478 0.93626 0.57665 0.0
C1421 C 0.23383 0.88366 0.38989 0.0
C1422 C 0.22024 0.86971 0.43124 0.0
C1423 C 0.24635 0.90677 0.40765 0.0
C1424 C 0.27484 0.9482 0.54593 0.0
H1425 H 0.3083 0.06107 0.57037 0.0
H1426 H 0.28282 0.02133 0.53875 0.0
H1427 H 0.30042 0.97619 0.60731 0.0
H1428 H 0.2091 0.86908 0.52373 0.0
H1429 H 0.23163 0.90957 0.55591 0.0
H1430 H 0.25079 0.95156 0.40507 0.0
C1431 C 0.29932 0.02683 0.54794 0.0
C1432 C 0.28959 0.97101 0.56323 0.0
C1433 C 0.31394 0.0496 0.56627 0.0
C1434 C 0.21922 0.87945 0.49053 0.0
C1435 C 0.23223 0.90256 0.50914 0.0
C1436 C 0.26144 0.95677 0.44957 0.0
C1437 C 0.30586 0.01125 0.54281 0.0
C1438 C 0.29023 0.98699 0.52438 0.0
C1439 C 0.24604 0.91645 0.46801 0.0
C1440 C 0.26073 0.9408 0.48857 0.0
H1441 H 0.35859 0.04732 0.58125 0.0
H1442 H 0.33294 0.00744 0.5514 0.0
H1443 H 0.27599 0.99154 0.43673 0.0
H1444 H 0.23501 0.87663 0.34402 0.0
H1445 H 0.25688 0.91701 0.37509 0.0
C1446 C 0.99397 0.23437 0.66855 0.0
C1447 C 0.9747 0.21858 0.63228 0.0
C1448 C 0.01289 0.23779 0.64939 0.0
C1449 C 0.03518 0.22996 0.50456 0.0
H1450 H 0.08077 0.23761 0.62778 0.0
C1451 C 0.1057 0.22946 0.41648 0.0
C1452 C 0.12592 0.24551 0.44686 0.0
C1453 C 0.08787 0.22573 0.44361 0.0
C1454 C 0.06828 0.23572 0.59276 0.0
H1455 H 0.95998 0.19473 0.54633 0.0
H1456 H 0.99279 0.20028 0.51355 0.0
H1457 H 0.04862 0.23251 0.6657 0.0
H1458 H 0.14325 0.26951 0.5314 0.0
H1459 H 0.11196 0.26303 0.57931 0.0
H1460 H 0.05462 0.23319 0.43167 0.0
C1461 C 0.99347 0.21014 0.55653 0.0
C1462 C 0.04983 0.23281 0.61455 0.0
C1463 C 0.97464 0.20671 0.57573 0.0
C1464 C 0.12789 0.25691 0.5071 0.0
C1465 C 0.10993 0.25322 0.53436 0.0
C1466 C 0.05354 0.23285 0.48289 0.0
C1467 C 0.0129 0.2258 0.59279 0.0
C1468 C 0.03294 0.22968 0.57062 0.0
C1469 C 0.08963 0.23802 0.50194 0.0
C1470 C 0.07032 0.23554 0.52646 0.0
H1471 H 0.99438 0.24405 0.71162 0.0
H1472 H 0.02751 0.25015 0.67817 0.0
H1473 H 0.02277 0.22814 0.46932 0.0
H1474 H 0.10365 0.22023 0.37032 0.0
H1475 H 0.07261 0.21343 0.418 0.0
C1476 C 0.35857 0.16944 0.59093 0.0
C1477 C 0.35212 0.14973 0.55034 0.0
C1478 C 0.35012 0.18297 0.578 0.0
C1479 C 0.30619 0.18359 0.47485 0.0
H1480 H 0.34018 0.24713 0.53026 0.0
C1481 C 0.28477 0.25067 0.40126 0.0
C1482 C 0.28693 0.26571 0.45328 0.0
C1483 C 0.29166 0.23548 0.41041 0.0
C1484 C 0.33043 0.2294 0.51456 0.0
H1485 H 0.3327 0.12957 0.46197 0.0
H1486 H 0.31848 0.15333 0.43794 0.0
H1487 H 0.35447 0.22337 0.55125 0.0
H1488 H 0.29844 0.27692 0.55489 0.0
H1489 H 0.31058 0.25092 0.57046 0.0
H1490 H 0.28238 0.19011 0.43647 0.0
C1491 C 0.32933 0.15801 0.48162 0.0
C1492 C 0.33857 0.21561 0.52714 0.0
C1493 C 0.33764 0.14438 0.49506 0.0
C1494 C 0.29629 0.26536 0.514 0.0
C1495 C 0.30337 0.25052 0.5229 0.0
C1496 C 0.29817 0.19751 0.46131 0.0
C1497 C 0.33534 0.17756 0.52293 0.0
C1498 C 0.32657 0.19237 0.50819 0.0
C1499 C 0.30136 0.23548 0.4713 0.0
C1500 C 0.31011 0.22058 0.48164 0.0
H1501 H 0.37012 0.17439 0.63301 0.0
H1502 H 0.35507 0.19756 0.61196 0.0
H1503 H 0.29616 0.16584 0.46013 0.0
H1504 H 0.2782 0.25098 0.35348 0.0
H1505 H 0.28998 0.2242 0.36949 0.0
C1506 C 0.80579 0.95715 0.35468 0.0
C1507 C 0.79373 0.94517 0.40191 0.0
C1508 C 0.82027 0.9802 0.36848 0.0
C1509 C 0.83676 0.03089 0.40444 0.0
H1510 H 0.87329 0.05401 0.56784 0.0
C1511 C 0.87444 0.12229 0.52627 0.0
C1512 C 0.89504 0.13273 0.55835 0.0
C1513 C 0.86395 0.09983 0.49955 0.0
C1514 C 0.86337 0.04788 0.52169 0.0
H1515 H 0.78701 0.94769 0.49957 0.0
H1516 H 0.81259 0.98754 0.52425 0.0
H1517 H 0.85232 0.01377 0.53567 0.0
H1518 H 0.92108 0.12782 0.58436 0.0
H1519 H 0.90276 0.08882 0.53868 0.0
H1520 H 0.84741 0.06506 0.39138 0.0
C1521 C 0.81107 0.97929 0.47691 0.0
C1522 C 0.85128 0.02481 0.50347 0.0
C1523 C 0.79641 0.95651 0.4628 0.0
C1524 C 0.90513 0.12035 0.56088 0.0
C1525 C 0.89461 0.09791 0.53473 0.0
C1526 C 0.84871 0.05403 0.42307 0.0
C1527 C 0.82302 0.99149 0.42985 0.0
C1528 C 0.83761 0.01603 0.44511 0.0
C1529 C 0.87377 0.08723 0.50466 0.0
C1530 C 0.86199 0.06279 0.4823 0.0
H1531 H 0.80362 0.94883 0.30688 0.0
H1532 H 0.82928 0.98919 0.33129 0.0
H1533 H 0.82626 0.0246 0.3594 0.0
H1534 H 0.86614 0.13119 0.52328 0.0
H1535 H 0.84785 0.09208 0.47709 0.0
C1536 C 0.91575 0.6733 0.69286 0.0
C1537 C 0.91329 0.65705 0.73316 0.0
C1538 C 0.93408 0.68482 0.66425 0.0
C1539 C 0.97887 0.71296 0.63129 0.0
H1540 H 0.99466 0.67531 0.53834 0.0
C1541 C 0.0533 0.74855 0.50141 0.0
C1542 C 0.05102 0.738 0.43938 0.0
C1543 C 0.03712 0.73927 0.54001 0.0
C1544 C 0.99044 0.68606 0.56395 0.0
H1545 H 0.92727 0.63902 0.77215 0.0
H1546 H 0.95914 0.65859 0.72012 0.0
H1547 H 0.96604 0.65873 0.60395 0.0
H1548 H 0.02988 0.70921 0.3698 0.0
H1549 H 0.00169 0.69313 0.43697 0.0
H1550 H 0.0031 0.74025 0.59052 0.0
C1551 C 0.94725 0.66305 0.71266 0.0
C1552 C 0.97422 0.6766 0.60221 0.0
C1553 C 0.92912 0.65193 0.74261 0.0
C1554 C 0.03215 0.71789 0.41709 0.0
C1555 C 0.01605 0.70854 0.45585 0.0
C1556 C 0.99528 0.72247 0.59363 0.0
C1557 C 0.94985 0.67949 0.67265 0.0
C1558 C 0.96814 0.68991 0.63597 0.0
C1559 C 0.01832 0.71912 0.51781 0.0
C1560 C 0.00117 0.70911 0.55909 0.0
H1561 H 0.90335 0.67688 0.6828 0.0
H1562 H 0.93539 0.69705 0.63274 0.0
H1563 H 0.97455 0.72364 0.65674 0.0
H1564 H 0.0675 0.76417 0.51987 0.0
H1565 H 0.03944 0.74778 0.58764 0.0
loop_
_geom_bond_atom_site_label_1
_geom_bond_atom_site_label_2
_geom_bond_distance
_geom_bond_site_symmetry_2
_ccdc_geom_bond_type
Gd0 N31 2.661 1_455 S
Gd0 N37 2.601 1_455 S
Gd0 O44 2.545 1_455 S
Gd0 O45 2.606 . S
Gd0 O47 2.429 . S
Gd0 O48 2.545 . S
Gd0 O49 2.412 1_455 S
Gd0 O51 2.362 . S
Gd0 O52 2.324 . S
Gd0 C59 2.828 1_455 S
Gd1 N10 2.661 . S
Gd1 N14 2.601 . S
Gd1 O45 2.362 . S
Gd1 O46 2.324 . S
Gd1 O50 2.545 . S
Gd1 O51 2.606 . S
Gd1 O53 2.429 . S
Gd1 O54 2.545 . S
Gd1 O55 2.412 . S
Gd1 C68 2.828 . S
C2 C5 1.417 . S
C2 C7 1.431 . S
C2 C8 1.412 . S
C3 C6 1.437 . S
C3 C7 1.317 . S
C3 H22 0.929 . S
C4 C5 1.426 . S
C4 C6 1.413 . S
C4 N14 1.359 . S
C5 C2 1.417 . S
C5 C4 1.426 . S
C5 N10 1.350 . S
C6 C3 1.437 . S
C6 C4 1.413 . S
C6 C16 1.391 . S
C7 C2 1.431 . S
C7 C3 1.317 . S
C7 H18 0.930 . S
C8 C2 1.412 . S
C8 C9 1.355 . S
C8 H20 0.930 . S
C9 C8 1.355 . S
C9 C11 1.402 . S
C9 H21 0.930 . S
N10 Gd1 2.661 . S
N10 C5 1.350 . S
N10 C11 1.307 . S
C11 C9 1.402 . S
C11 N10 1.307 . S
C11 H12 0.930 . S
H12 C11 0.930 . S
C13 N14 1.334 . S
C13 C15 1.394 . S
C13 H17 0.930 . S
N14 Gd1 2.601 . S
N14 C4 1.359 . S
N14 C13 1.334 . S
C15 C13 1.394 . S
C15 C16 1.359 . S
C15 H27 0.930 . S
C16 C6 1.391 . S
C16 C15 1.359 . S
C16 H28 0.929 . S
H17 C13 0.930 . S
H18 C7 0.930 . S
H19 C36 0.930 . S
H20 C8 0.930 . S
H21 C9 0.930 . S
H22 C3 0.929 . S
H23 C41 0.930 . S
H24 C32 0.930 . S
H25 C33 0.930 1_556 S
H26 C57 0.929 . S
H27 C15 0.930 . S
H28 C16 0.929 . S
H29 C58 0.930 . S
H30 C39 0.930 . S
N31 Gd0 2.661 1_655 S
N31 C35 1.350 . S
N31 C36 1.307 . S
C32 H24 0.930 . S
C32 C33 1.355 . S
C32 C34 1.412 . S
C33 H25 0.930 1_554 S
C33 C32 1.355 . S
C33 C36 1.402 . S
C34 C32 1.412 . S
C34 C35 1.417 . S
C34 C58 1.431 . S
C35 N31 1.350 . S
C35 C34 1.417 . S
C35 C38 1.426 . S
C36 H19 0.930 . S
C36 N31 1.307 . S
C36 C33 1.402 . S
N37 Gd0 2.601 1_655 S
N37 C38 1.359 . S
N37 C41 1.334 . S
C38 C35 1.426 . S
C38 N37 1.359 . S
C38 C42 1.413 . S
C39 H30 0.930 . S
C39 C40 1.359 . S
C39 C41 1.394 . S
C40 C39 1.359 . S
C40 C42 1.391 . S
C40 H43 0.929 . S
C41 H23 0.930 . S
C41 N37 1.334 . S
C41 C39 1.394 . S
C42 C38 1.413 . S
C42 C40 1.391 . S
C42 C57 1.437 . S
H43 C40 0.929 . S
O44 Gd0 2.545 1_655 S
O44 C59 1.258 . S
O45 Gd0 2.606 . S
O45 Gd1 2.362 . S
O45 C56 1.284 . S
O46 Gd1 2.324 . S
O46 C66 1.254 . S
O47 Gd0 2.429 . S
O47 C66 1.268 . S
O48 Gd0 2.545 . S
O48 C56 1.250 . S
O49 Gd0 2.412 1_655 S
O49 C59 1.252 . S
O50 Gd1 2.545 . S
O50 C68 1.258 . S
O51 Gd0 2.362 . S
O51 Gd1 2.606 . S
O51 C67 1.284 . S
O52 Gd0 2.324 . S
O52 C75 1.254 . S
O53 Gd1 2.429 . S
O53 C75 1.268 . S
O54 Gd1 2.545 . S
O54 C67 1.250 . S
O55 Gd1 2.412 . S
O55 C68 1.252 . S
C56 O45 1.284 . S
C56 O48 1.250 . S
C57 H26 0.929 . S
C57 C42 1.437 . S
C57 C58 1.317 . S
C58 H29 0.930 . S
C58 C34 1.431 . S
C58 C57 1.317 . S
C59 Gd0 2.828 1_655 S
C59 O44 1.258 . S
C59 O49 1.252 . S
C59 C60 1.497 . S
C60 C59 1.497 . S
C60 C61 1.395 . S
C60 C62 1.380 . S
C61 C60 1.395 . S
C61 C64 1.398 . S
C61 H76 0.930 . S
C62 C60 1.380 . S
C62 C63 1.391 . S
C62 H77 0.930 . S
C63 C62 1.391 . S
C63 C65 1.387 . S
C64 C61 1.398 . S
C64 C65 1.380 . S
C64 H78 0.930 . S
C65 C63 1.387 . S
C65 C64 1.380 . S
C65 H79 0.930 . S
C66 O46 1.254 . S
C66 O47 1.268 . S
C67 O51 1.284 . S
C67 O54 1.250 . S
C68 Gd1 2.828 . S
C68 O50 1.258 . S
C68 O55 1.252 . S
C68 C69 1.497 . S
C69 C68 1.497 . S
C69 C70 1.395 . S
C69 C71 1.380 . S
C70 C69 1.395 . S
C70 C73 1.398 . S
C70 H80 0.930 . S
C71 C69 1.380 . S
C71 C72 1.391 . S
C71 H81 0.930 . S
C72 C71 1.391 . S
C72 C74 1.387 . S
C73 C70 1.398 . S
C73 C74 1.380 . S
C73 H82 0.930 . S
C74 C72 1.387 . S
C74 C73 1.380 . S
C74 H83 0.930 . S
C75 O52 1.254 . S
C75 O53 1.268 . S
H76 C61 0.930 . S
H77 C62 0.930 . S
H78 C64 0.930 . S
H79 C65 0.930 . S
H80 C70 0.930 . S
H81 C71 0.930 . S
H82 C73 0.930 . S
H83 C74 0.930 . S
Gd84 N115 2.661 . S
Gd84 N121 2.601 . S
Gd84 O128 2.545 . S
Gd84 O129 2.606 . S
Gd84 O131 2.429 . S
Gd84 O132 2.545 . S
Gd84 O133 2.412 . S
Gd84 O135 2.362 . S
Gd84 O136 2.324 . S
Gd84 C143 2.828 . S
Gd85 N94 2.661 . S
Gd85 N98 2.601 . S
Gd85 O129 2.362 . S
Gd85 O130 2.324 . S
Gd85 O134 2.545 . S
Gd85 O135 2.606 . S
Gd85 O137 2.429 . S
Gd85 O138 2.545 . S
Gd85 O139 2.412 . S
Gd85 C152 2.828 . S
C86 C89 1.417 . S
C86 C91 1.431 . S
C86 C92 1.412 . S
C87 C90 1.437 . S
C87 C91 1.317 . S
C87 H106 0.929 . S
C88 C89 1.426 . S
C88 C90 1.413 . S
C88 N98 1.359 . S
C89 C86 1.417 . S
C89 C88 1.426 . S
C89 N94 1.350 . S
C90 C87 1.437 . S
C90 C88 1.413 . S
C90 C100 1.391 . S
C91 C86 1.431 . S
C91 C87 1.317 . S
C91 H102 0.930 . S
C92 C86 1.412 . S
C92 C93 1.355 . S
C92 H104 0.930 . S
C93 C92 1.355 . S
C93 C95 1.402 . S
C93 H105 0.930 . S
N94 Gd85 2.661 . S
N94 C89 1.350 . S
N94 C95 1.307 . S
C95 C93 1.402 . S
C95 N94 1.307 . S
C95 H96 0.930 . S
H96 C95 0.930 . S
C97 N98 1.334 . S
C97 C99 1.394 1_554 S
C97 H101 0.930 1_554 S
N98 Gd85 2.601 . S
N98 C88 1.359 . S
N98 C97 1.334 . S
C99 C97 1.394 1_556 S
C99 C100 1.359 1_556 S
C99 H111 0.930 . S
C100 C90 1.391 . S
C100 C99 1.359 1_554 S
C100 H112 0.929 1_554 S
H101 C97 0.930 1_556 S
H102 C91 0.930 . S
H103 C120 0.930 1_556 S
H104 C92 0.930 . S
H105 C93 0.930 . S
H106 C87 0.929 . S
H107 C125 0.930 . S
H108 C116 0.930 1_556 S
H109 C117 0.930 . S
H110 C141 0.929 . S
H111 C99 0.930 . S
H112 C100 0.929 1_556 S
H113 C142 0.930 . S
H114 C123 0.930 . S
N115 Gd84 2.661 . S
N115 C119 1.350 . S
N115 C120 1.307 . S
C116 H108 0.930 1_554 S
C116 C117 1.355 1_554 S
C116 C118 1.412 . S
C117 H109 0.930 . S
C117 C116 1.355 1_556 S
C117 C120 1.402 1_556 S
C118 C116 1.412 . S
C118 C119 1.417 . S
C118 C142 1.431 . S
C119 N115 1.350 . S
C119 C118 1.417 . S
C119 C122 1.426 . S
C120 H103 0.930 1_554 S
C120 N115 1.307 . S
C120 C117 1.402 1_554 S
N121 Gd84 2.601 . S
N121 C122 1.359 . S
N121 C125 1.334 . S
C122 C119 1.426 . S
C122 N121 1.359 . S
C122 C126 1.413 . S
C123 H114 0.930 . S
C123 C124 1.359 . S
C123 C125 1.394 . S
C124 C123 1.359 . S
C124 C126 1.391 . S
C124 H127 0.929 . S
C125 H107 0.930 . S
C125 N121 1.334 . S
C125 C123 1.394 . S
C126 C122 1.413 . S
C126 C124 1.391 . S
C126 C141 1.437 . S
H127 C124 0.929 . S
O128 Gd84 2.545 . S
O128 C143 1.258 . S
O129 Gd84 2.606 . S
O129 Gd85 2.362 . S
O129 C140 1.284 . S
O130 Gd85 2.324 . S
O130 C150 1.254 . S
O131 Gd84 2.429 . S
O131 C150 1.268 . S
O132 Gd84 2.545 . S
O132 C140 1.250 . S
O133 Gd84 2.412 . S
O133 C143 1.252 . S
O134 Gd85 2.545 . S
O134 C152 1.258 . S
O135 Gd84 2.362 . S
O135 Gd85 2.606 . S
O135 C151 1.284 . S
O136 Gd84 2.324 . S
O136 C159 1.251 1_554 S
O137 Gd85 2.429 . S
O137 C159 1.267 1_554 S
O138 Gd85 2.545 . S
O138 C151 1.250 . S
O139 Gd85 2.412 . S
O139 C152 1.252 . S
C140 O129 1.284 . S
C140 O132 1.250 . S
C141 H110 0.929 . S
C141 C126 1.437 . S
C141 C142 1.317 . S
C142 H113 0.930 . S
C142 C118 1.431 . S
C142 C141 1.317 . S
C143 Gd84 2.828 . S
C143 O128 1.258 . S
C143 O133 1.252 . S
C143 C144 1.497 . S
C144 C143 1.497 . S
C144 C145 1.395 . S
C144 C146 1.380 . S
C145 C144 1.395 . S
C145 C148 1.398 . S
C145 H160 0.930 . S
C146 C144 1.380 . S
C146 C147 1.391 . S
C146 H161 0.930 1_554 S
C147 C146 1.391 . S
C147 C149 1.387 . S
C148 C145 1.398 . S
C148 C149 1.380 . S
C148 H162 0.930 . S
C149 C147 1.387 . S
C149 C148 1.380 . S
C149 H163 0.930 . S
C150 O130 1.254 . S
C150 O131 1.268 . S
C151 O135 1.284 . S
C151 O138 1.250 . S
C152 Gd85 2.828 . S
C152 O134 1.258 . S
C152 O139 1.252 . S
C152 C153 1.497 . S
C153 C152 1.497 . S
C153 C154 1.395 . S
C153 C155 1.380 . S
C154 C153 1.395 . S
C154 C157 1.398 . S
C154 H164 0.930 . S
C155 C153 1.380 . S
C155 C156 1.391 . S
C155 H165 0.930 . S
C156 C155 1.391 . S
C156 C158 1.387 . S
C157 C154 1.398 . S
C157 C158 1.380 . S
C157 H166 0.930 . S
C158 C156 1.387 . S
C158 C157 1.380 . S
C158 H167 0.930 . S
C159 O136 1.251 1_556 S
C159 O137 1.267 1_556 S
H160 C145 0.930 . S
H161 C146 0.930 1_556 S
H162 C148 0.930 . S
H163 C149 0.930 . S
H164 C154 0.930 . S
H165 C155 0.930 . S
H166 C157 0.930 . S
H167 C158 0.930 . S
Gd168 N199 2.661 1_554 S
Gd168 N205 2.601 . S
Gd168 O212 2.545 . S
Gd168 O213 2.606 . S
Gd168 O215 2.429 . S
Gd168 O216 2.545 . S
Gd168 O217 2.412 1_554 S
Gd168 O219 2.362 1_554 S
Gd168 O220 2.324 1_554 S
Gd168 C227 2.828 . S
Gd169 N178 2.661 1_556 S
Gd169 N182 2.601 . S
Gd169 O213 2.362 1_556 S
Gd169 O214 2.324 1_556 S
Gd169 O218 2.545 . S
Gd169 O219 2.606 . S
Gd169 O221 2.429 . S
Gd169 O222 2.545 . S
Gd169 O223 2.412 1_556 S
Gd169 C236 2.828 . S
C170 C173 1.417 1_565 S
C170 C175 1.431 . S
C170 C176 1.413 . S
C171 C174 1.437 . S
C171 C175 1.317 1_556 S
C171 H190 0.929 . S
C172 C173 1.427 1_556 S
C172 C174 1.392 1_545 S
C172 N182 1.381 . S
C173 C170 1.417 1_545 S
C173 C172 1.427 1_554 S
C173 N178 1.350 . S
C174 C171 1.437 . S
C174 C172 1.392 1_565 S
C174 C184 1.391 . S
C175 C170 1.431 . S
C175 C171 1.317 1_554 S
C175 H186 0.930 . S
C176 C170 1.413 . S
C176 C177 1.323 1_565 S
C176 H188 0.960 . S
C177 C176 1.323 1_545 S
C177 C179 1.402 . S
C177 H189 0.930 . S
N178 Gd169 2.661 1_554 S
N178 C173 1.350 . S
N178 C179 1.307 . S
C179 C177 1.402 . S
C179 N178 1.307 . S
C179 H180 0.930 . S
H180 C179 0.930 . S
C181 N182 1.334 . S
C181 C183 1.394 1_545 S
C181 H185 0.930 . S
N182 Gd169 2.601 . S
N182 C172 1.381 . S
N182 C181 1.334 . S
C183 C181 1.394 1_565 S
C183 C184 1.359 . S
C183 H195 0.930 . S
C184 C174 1.391 . S
C184 C183 1.359 . S
C184 H196 0.929 . S
H185 C181 0.930 . S
H186 C175 0.930 . S
H187 C204 0.930 . S
H188 C176 0.960 . S
H189 C177 0.930 . S
H190 C171 0.929 . S
H191 C209 0.930 . S
H192 C200 0.930 . S
H193 C201 0.930 . S
H194 C225 0.929 . S
H195 C183 0.930 . S
H196 C184 0.929 . S
H197 C226 0.930 . S
H198 C207 0.930 . S
N199 Gd168 2.661 1_556 S
N199 C203 1.350 . S
N199 C204 1.307 . S
C200 H192 0.930 . S
C200 C201 1.355 . S
C200 C202 1.412 . S
C201 H193 0.930 . S
C201 C200 1.355 . S
C201 C204 1.402 . S
C202 C200 1.412 . S
C202 C203 1.417 . S
C202 C226 1.431 . S
C203 N199 1.350 . S
C203 C202 1.417 . S
C203 C206 1.426 1_556 S
C204 H187 0.930 . S
C204 N199 1.307 . S
C204 C201 1.402 . S
N205 Gd168 2.601 . S
N205 C206 1.359 . S
N205 C209 1.334 . S
C206 C203 1.426 1_554 S
C206 N205 1.359 . S
C206 C210 1.413 . S
C207 H198 0.930 . S
C207 C208 1.359 . S
C207 C209 1.394 . S
C208 C207 1.359 . S
C208 C210 1.391 . S
C208 H211 0.929 . S
C209 H191 0.930 . S
C209 N205 1.334 . S
C209 C207 1.394 . S
C210 C206 1.413 . S
C210 C208 1.391 . S
C210 C225 1.437 . S
H211 C208 0.929 . S
O212 Gd168 2.545 . S
O212 C227 1.258 . S
O213 Gd168 2.606 . S
O213 Gd169 2.362 1_554 S
O213 C224 1.284 . S
O214 Gd169 2.324 1_554 S
O214 C234 1.254 . S
O215 Gd168 2.429 . S
O215 C234 1.268 . S
O216 Gd168 2.545 . S
O216 C224 1.250 . S
O217 Gd168 2.412 1_556 S
O217 C227 1.252 1_556 S
O218 Gd169 2.545 . S
O218 C236 1.258 . S
O219 Gd168 2.362 1_556 S
O219 Gd169 2.606 . S
O219 C235 1.284 . S
O220 Gd168 2.324 1_556 S
O220 C243 1.254 . S
O221 Gd169 2.429 . S
O221 C243 1.268 . S
O222 Gd169 2.545 . S
O222 C235 1.250 . S
O223 Gd169 2.412 1_554 S
O223 C236 1.252 1_554 S
C224 O213 1.284 . S
C224 O216 1.250 . S
C225 H194 0.929 . S
C225 C210 1.437 . S
C225 C226 1.317 1_554 S
C226 H197 0.930 . S
C226 C202 1.431 . S
C226 C225 1.317 1_556 S
C227 Gd168 2.828 . S
C227 O212 1.258 . S
C227 O217 1.252 1_554 S
C227 C228 1.497 . S
C228 C227 1.497 . S
C228 C229 1.395 . S
C228 C230 1.380 1_554 S
C229 C228 1.395 . S
C229 C232 1.398 . S
C229 H244 0.930 . S
C230 C228 1.380 1_556 S
C230 C231 1.391 . S
C230 H245 0.930 . S
C231 C230 1.391 . S
C231 C233 1.387 . S
C232 C229 1.398 . S
C232 C233 1.380 1_554 S
C232 H246 0.930 . S
C233 C231 1.387 . S
C233 C232 1.380 1_556 S
C233 H247 0.930 . S
C234 O214 1.254 . S
C234 O215 1.268 . S
C235 O219 1.284 . S
C235 O222 1.250 . S
C236 Gd169 2.828 . S
C236 O218 1.258 . S
C236 O223 1.252 1_556 S
C236 C237 1.497 . S
C237 C236 1.497 . S
C237 C238 1.395 1_545 S
C237 C239 1.380 1_556 S
C238 C237 1.395 1_565 S
C238 C241 1.398 . S
C238 H248 0.930 . S
C239 C237 1.380 1_554 S
C239 C240 1.391 . S
C239 H249 0.930 . S
C240 C239 1.391 . S
C240 C242 1.387 1_545 S
C241 C238 1.398 . S
C241 C242 1.380 1_556 S
C241 H250 0.930 . S
C242 C240 1.387 1_565 S
C242 C241 1.380 1_554 S
C242 H251 0.930 . S
C243 O220 1.254 . S
C243 O221 1.268 . S
H244 C229 0.930 . S
H245 C230 0.930 . S
H246 C232 0.930 . S
H247 C233 0.930 . S
H248 C238 0.930 . S
H249 C239 0.930 . S
H250 C241 0.930 . S
H251 C242 0.930 . S
Gd252 N283 2.661 . S
Gd252 N289 2.601 . S
Gd252 O296 2.545 . S
Gd252 O297 2.606 . S
Gd252 O299 2.429 . S
Gd252 O300 2.545 . S
Gd252 O301 2.412 . S
Gd252 O303 2.362 . S
Gd252 O304 2.324 . S
Gd252 C311 2.828 . S
Gd253 N262 2.661 . S
Gd253 N266 2.601 . S
Gd253 O297 2.362 . S
Gd253 O298 2.324 . S
Gd253 O302 2.545 . S
Gd253 O303 2.606 . S
Gd253 O305 2.429 . S
Gd253 O306 2.545 . S
Gd253 O307 2.412 . S
Gd253 C320 2.828 . S
C254 C257 1.417 . S
C254 C259 1.431 . S
C254 C260 1.412 . S
C255 C258 1.437 . S
C255 C259 1.317 . S
C255 H274 0.929 . S
C256 C257 1.426 . S
C256 C258 1.413 . S
C256 N266 1.359 . S
C257 C254 1.417 . S
C257 C256 1.426 . S
C257 N262 1.350 . S
C258 C255 1.437 . S
C258 C256 1.413 . S
C258 C268 1.391 . S
C259 C254 1.431 . S
C259 C255 1.317 . S
C259 H270 0.964 . S
C260 C254 1.412 . S
C260 C261 1.355 . S
C260 H272 0.930 . S
C261 C260 1.355 . S
C261 C263 1.402 . S
C261 H273 0.930 . S
N262 Gd253 2.661 . S
N262 C257 1.350 . S
N262 C263 1.307 . S
C263 C261 1.402 . S
C263 N262 1.307 . S
C263 H264 0.930 . S
H264 C263 0.930 . S
C265 N266 1.334 . S
C265 C267 1.394 . S
C265 H269 0.930 . S
N266 Gd253 2.601 . S
N266 C256 1.359 . S
N266 C265 1.334 . S
C267 C265 1.394 . S
C267 C268 1.359 . S
C267 H279 0.930 . S
C268 C258 1.391 . S
C268 C267 1.359 . S
C268 H280 0.929 . S
H269 C265 0.930 . S
H270 C259 0.964 . S
H271 C288 0.930 . S
H272 C260 0.930 . S
H273 C261 0.930 . S
H274 C255 0.929 . S
H275 C293 0.930 . S
H276 C284 0.930 . S
H277 C285 0.930 . S
H278 C309 0.929 . S
H279 C267 0.930 . S
H280 C268 0.929 . S
H281 C310 0.930 . S
H282 C291 0.930 . S
N283 Gd252 2.661 . S
N283 C287 1.350 . S
N283 C288 1.307 . S
C284 H276 0.930 . S
C284 C285 1.355 . S
C284 C286 1.412 . S
C285 H277 0.930 . S
C285 C284 1.355 . S
C285 C288 1.402 . S
C286 C284 1.412 . S
C286 C287 1.417 . S
C286 C310 1.431 . S
C287 N283 1.350 . S
C287 C286 1.417 . S
C287 C290 1.426 . S
C288 H271 0.930 . S
C288 N283 1.307 . S
C288 C285 1.402 . S
N289 Gd252 2.601 . S
N289 C290 1.359 . S
N289 C293 1.334 . S
C290 C287 1.426 . S
C290 N289 1.359 . S
C290 C294 1.413 . S
C291 H282 0.930 . S
C291 C292 1.359 . S
C291 C293 1.394 . S
C292 C291 1.359 . S
C292 C294 1.391 . S
C292 H295 0.929 . S
C293 H275 0.930 . S
C293 N289 1.334 . S
C293 C291 1.394 . S
C294 C290 1.413 . S
C294 C292 1.391 . S
C294 C309 1.437 . S
H295 C292 0.929 . S
O296 Gd252 2.545 . S
O296 C311 1.258 . S
O297 Gd252 2.606 . S
O297 Gd253 2.362 . S
O297 C308 1.284 . S
O298 Gd253 2.324 . S
O298 C318 1.254 . S
O299 Gd252 2.429 . S
O299 C318 1.268 . S
O300 Gd252 2.545 . S
O300 C308 1.250 . S
O301 Gd252 2.412 . S
O301 C311 1.252 . S
O302 Gd253 2.545 . S
O302 C320 1.258 . S
O303 Gd252 2.362 . S
O303 Gd253 2.606 . S
O303 C319 1.284 . S
O304 Gd252 2.324 . S
O304 C327 1.254 . S
O305 Gd253 2.429 . S
O305 C327 1.268 . S
O306 Gd253 2.545 . S
O306 C319 1.250 . S
O307 Gd253 2.412 . S
O307 C320 1.252 . S
C308 O297 1.284 . S
C308 O300 1.250 . S
C309 H278 0.929 . S
C309 C294 1.437 . S
C309 C310 1.317 . S
C310 H281 0.930 . S
C310 C286 1.431 . S
C310 C309 1.317 . S
C311 Gd252 2.828 . S
C311 O296 1.258 . S
C311 O301 1.252 . S
C311 C312 1.497 . S
C312 C311 1.497 . S
C312 C313 1.395 . S
C312 C314 1.380 . S
C313 C312 1.395 . S
C313 C316 1.398 . S
C313 H328 0.930 . S
C314 C312 1.380 . S
C314 C315 1.391 . S
C314 H329 0.930 . S
C315 C314 1.391 . S
C315 C317 1.387 . S
C316 C313 1.398 . S
C316 C317 1.380 . S
C316 H330 0.930 . S
C317 C315 1.387 . S
C317 C316 1.380 . S
C317 H331 0.930 . S
C318 O298 1.254 . S
C318 O299 1.268 . S
C319 O303 1.284 . S
C319 O306 1.250 . S
C320 Gd253 2.828 . S
C320 O302 1.258 . S
C320 O307 1.252 . S
C320 C321 1.497 . S
C321 C320 1.497 . S
C321 C322 1.395 . S
C321 C323 1.380 . S
C322 C321 1.395 . S
C322 C325 1.398 . S
C322 H332 0.930 . S
C323 C321 1.380 . S
C323 C324 1.391 . S
C323 H333 0.930 . S
C324 C323 1.391 . S
C324 C326 1.387 . S
C325 C322 1.398 . S
C325 C326 1.380 . S
C325 H334 0.930 . S
C326 C324 1.387 . S
C326 C325 1.380 . S
C326 H335 0.930 . S
C327 O304 1.254 . S
C327 O305 1.268 . S
H328 C313 0.930 . S
H329 C314 0.930 . S
H330 C316 0.930 . S
H331 C317 0.930 . S
H332 C322 0.930 . S
H333 C323 0.930 . S
H334 C325 0.930 . S
H335 C326 0.930 . S
Gd336 N367 2.661 . S
Gd336 N373 2.601 . S
Gd336 O380 2.545 . S
Gd336 O381 2.606 . S
Gd336 O383 2.429 . S
Gd336 O384 2.545 . S
Gd336 O385 2.412 . S
Gd336 O387 2.362 . S
Gd336 O388 2.324 . S
Gd336 C395 2.828 . S
Gd337 N346 2.661 . S
Gd337 N350 2.601 . S
Gd337 O381 2.362 . S
Gd337 O382 2.324 . S
Gd337 O386 2.545 . S
Gd337 O387 2.606 . S
Gd337 O389 2.429 . S
Gd337 O390 2.545 . S
Gd337 O391 2.412 . S
Gd337 C404 2.828 . S
C338 C341 1.417 . S
C338 C343 1.431 . S
C338 C344 1.412 . S
C339 C342 1.437 . S
C339 C343 1.317 . S
C339 H358 0.929 . S
C340 C341 1.426 . S
C340 C342 1.413 . S
C340 N350 1.359 . S
C341 C338 1.417 . S
C341 C340 1.426 . S
C341 N346 1.350 . S
C342 C339 1.437 . S
C342 C340 1.413 . S
C342 C352 1.391 . S
C343 C338 1.431 . S
C343 C339 1.317 . S
C343 H354 0.930 1_554 S
C344 C338 1.412 . S
C344 C345 1.355 . S
C344 H356 0.930 1_554 S
C345 C344 1.355 . S
C345 C347 1.402 . S
C345 H357 0.930 . S
N346 Gd337 2.661 . S
N346 C341 1.350 . S
N346 C347 1.307 . S
C347 C345 1.402 . S
C347 N346 1.307 . S
C347 H348 0.930 . S
H348 C347 0.930 . S
C349 N350 1.334 . S
C349 C351 1.394 . S
C349 H353 0.930 . S
N350 Gd337 2.601 . S
N350 C340 1.359 . S
N350 C349 1.334 . S
C351 C349 1.394 . S
C351 C352 1.359 . S
C351 H363 0.930 . S
C352 C342 1.391 . S
C352 C351 1.359 . S
C352 H364 0.929 . S
H353 C349 0.930 . S
H354 C343 0.930 1_556 S
H355 C372 0.930 . S
H356 C344 0.930 1_556 S
H357 C345 0.930 . S
H358 C339 0.929 . S
H359 C377 0.930 . S
H360 C368 0.930 . S
H361 C369 0.930 . S
H362 C393 0.929 . S
H363 C351 0.930 . S
H364 C352 0.929 . S
H365 C394 0.930 . S
H366 C375 0.930 . S
N367 Gd336 2.661 . S
N367 C371 1.350 . S
N367 C372 1.307 . S
C368 H360 0.930 . S
C368 C369 1.355 . S
C368 C370 1.412 . S
C369 H361 0.930 . S
C369 C368 1.355 . S
C369 C372 1.402 . S
C370 C368 1.412 . S
C370 C371 1.417 . S
C370 C394 1.431 . S
C371 N367 1.350 . S
C371 C370 1.417 . S
C371 C374 1.426 . S
C372 H355 0.930 . S
C372 N367 1.307 . S
C372 C369 1.402 . S
N373 Gd336 2.601 . S
N373 C374 1.359 . S
N373 C377 1.334 . S
C374 C371 1.426 . S
C374 N373 1.359 . S
C374 C378 1.413 . S
C375 H366 0.930 . S
C375 C376 1.359 . S
C375 C377 1.394 . S
C376 C375 1.359 . S
C376 C378 1.391 . S
C376 H379 0.929 . S
C377 H359 0.930 . S
C377 N373 1.334 . S
C377 C375 1.394 . S
C378 C374 1.413 . S
C378 C376 1.391 . S
C378 C393 1.437 . S
H379 C376 0.929 . S
O380 Gd336 2.545 . S
O380 C395 1.258 . S
O381 Gd336 2.606 . S
O381 Gd337 2.362 . S
O381 C392 1.284 . S
O382 Gd337 2.324 . S
O382 C402 1.254 . S
O383 Gd336 2.429 . S
O383 C402 1.268 . S
O384 Gd336 2.545 . S
O384 C392 1.250 . S
O385 Gd336 2.412 . S
O385 C395 1.252 . S
O386 Gd337 2.545 . S
O386 C404 1.258 . S
O387 Gd336 2.362 . S
O387 Gd337 2.606 . S
O387 C403 1.284 . S
O388 Gd336 2.324 . S
O388 C411 1.254 . S
O389 Gd337 2.429 . S
O389 C411 1.268 . S
O390 Gd337 2.545 . S
O390 C403 1.250 . S
O391 Gd337 2.412 . S
O391 C404 1.252 . S
C392 O381 1.284 . S
C392 O384 1.250 . S
C393 H362 0.929 . S
C393 C378 1.437 . S
C393 C394 1.317 . S
C394 H365 0.930 . S
C394 C370 1.431 . S
C394 C393 1.317 . S
C395 Gd336 2.828 . S
C395 O380 1.258 . S
C395 O385 1.252 . S
C395 C396 1.497 . S
C396 C395 1.497 . S
C396 C397 1.395 . S
C396 C398 1.380 . S
C397 C396 1.395 . S
C397 C400 1.398 . S
C397 H412 0.930 . S
C398 C396 1.380 . S
C398 C399 1.391 . S
C398 H413 0.930 . S
C399 C398 1.391 . S
C399 C401 1.387 . S
C400 C397 1.398 . S
C400 C401 1.380 . S
C400 H414 0.930 . S
C401 C399 1.387 . S
C401 C400 1.380 . S
C401 H415 0.930 . S
C402 O382 1.254 . S
C402 O383 1.268 . S
C403 O387 1.284 . S
C403 O390 1.250 . S
C404 Gd337 2.828 . S
C404 O386 1.258 . S
C404 O391 1.252 . S
C404 C405 1.497 . S
C405 C404 1.497 . S
C405 C406 1.395 . S
C405 C407 1.380 . S
C406 C405 1.395 . S
C406 C409 1.398 . S
C406 H416 0.930 . S
C407 C405 1.380 . S
C407 C408 1.391 . S
C407 H417 0.930 . S
C408 C407 1.391 . S
C408 C410 1.387 . S
C409 C406 1.398 . S
C409 C410 1.380 . S
C409 H418 0.930 . S
C410 C408 1.387 . S
C410 C409 1.380 . S
C410 H419 0.930 . S
C411 O388 1.254 . S
C411 O389 1.268 . S
H412 C397 0.930 . S
H413 C398 0.930 . S
H414 C400 0.930 . S
H415 C401 0.930 . S
H416 C406 0.930 . S
H417 C407 0.930 . S
H418 C409 0.930 . S
H419 C410 0.930 . S
Gd420 N451 2.661 . S
Gd420 N457 2.601 . S
Gd420 O464 2.545 . S
Gd420 O465 2.606 . S
Gd420 O467 2.429 . S
Gd420 O468 2.545 . S
Gd420 O469 2.412 . S
Gd420 O471 2.362 . S
Gd420 O472 2.324 . S
Gd420 C479 2.828 . S
Gd421 N430 2.661 . S
Gd421 N434 2.601 . S
Gd421 O465 2.362 . S
Gd421 O466 2.324 . S
Gd421 O470 2.545 . S
Gd421 O471 2.606 . S
Gd421 O473 2.429 . S
Gd421 O474 2.545 . S
Gd421 O475 2.412 . S
Gd421 C488 2.828 . S
C422 C425 1.417 . S
C422 C427 1.431 . S
C422 C428 1.412 . S
C423 C426 1.437 . S
C423 C427 1.317 . S
C423 H442 0.929 . S
C424 C425 1.426 . S
C424 C426 1.413 . S
C424 N434 1.359 . S
C425 C422 1.417 . S
C425 C424 1.426 . S
C425 N430 1.350 . S
C426 C423 1.437 . S
C426 C424 1.413 . S
C426 C436 1.391 . S
C427 C422 1.431 . S
C427 C423 1.317 . S
C427 H438 0.930 . S
C428 C422 1.412 . S
C428 C429 1.355 . S
C428 H440 0.930 . S
C429 C428 1.355 . S
C429 C431 1.402 . S
C429 H441 0.930 . S
N430 Gd421 2.661 . S
N430 C425 1.350 . S
N430 C431 1.307 . S
C431 C429 1.402 . S
C431 N430 1.307 . S
C431 H432 0.930 . S
H432 C431 0.930 . S
C433 N434 1.334 . S
C433 C435 1.394 . S
C433 H437 0.930 . S
N434 Gd421 2.601 . S
N434 C424 1.359 . S
N434 C433 1.334 . S
C435 C433 1.394 . S
C435 C436 1.359 . S
C435 H447 0.926 1_554 S
C436 C426 1.391 . S
C436 C435 1.359 . S
C436 H448 0.929 . S
H437 C433 0.930 . S
H438 C427 0.930 . S
H439 C456 0.930 . S
H440 C428 0.930 . S
H441 C429 0.930 . S
H442 C423 0.929 . S
H443 C461 0.930 . S
H444 C452 0.930 . S
H445 C453 0.930 . S
H446 C477 0.929 . S
H447 C435 0.926 1_556 S
H448 C436 0.929 . S
H449 C478 0.930 . S
H450 C459 0.930 . S
N451 Gd420 2.661 . S
N451 C455 1.350 . S
N451 C456 1.307 . S
C452 H444 0.930 . S
C452 C453 1.355 . S
C452 C454 1.412 . S
C453 H445 0.930 . S
C453 C452 1.355 . S
C453 C456 1.402 . S
C454 C452 1.412 . S
C454 C455 1.417 . S
C454 C478 1.431 . S
C455 N451 1.350 . S
C455 C454 1.417 . S
C455 C458 1.426 . S
C456 H439 0.930 . S
C456 N451 1.307 . S
C456 C453 1.402 . S
N457 Gd420 2.601 . S
N457 C458 1.359 . S
N457 C461 1.334 . S
C458 C455 1.426 . S
C458 N457 1.359 . S
C458 C462 1.413 . S
C459 H450 0.930 . S
C459 C460 1.359 . S
C459 C461 1.394 . S
C460 C459 1.359 . S
C460 C462 1.391 . S
C460 H463 0.929 . S
C461 H443 0.930 . S
C461 N457 1.334 . S
C461 C459 1.394 . S
C462 C458 1.413 . S
C462 C460 1.391 . S
C462 C477 1.437 . S
H463 C460 0.929 . S
O464 Gd420 2.545 . S
O464 C479 1.258 . S
O465 Gd420 2.606 . S
O465 Gd421 2.362 . S
O465 C476 1.284 . S
O466 Gd421 2.324 . S
O466 C486 1.254 . S
O467 Gd420 2.429 . S
O467 C486 1.268 . S
O468 Gd420 2.545 . S
O468 C476 1.250 . S
O469 Gd420 2.412 . S
O469 C479 1.252 . S
O470 Gd421 2.545 . S
O470 C488 1.258 . S
O471 Gd420 2.362 . S
O471 Gd421 2.606 . S
O471 C487 1.284 . S
O472 Gd420 2.324 . S
O472 C495 1.254 . S
O473 Gd421 2.429 . S
O473 C495 1.268 . S
O474 Gd421 2.545 . S
O474 C487 1.250 . S
O475 Gd421 2.412 . S
O475 C488 1.252 . S
C476 O465 1.284 . S
C476 O468 1.250 . S
C477 H446 0.929 . S
C477 C462 1.437 . S
C477 C478 1.317 . S
C478 H449 0.930 . S
C478 C454 1.431 . S
C478 C477 1.317 . S
C479 Gd420 2.828 . S
C479 O464 1.258 . S
C479 O469 1.252 . S
C479 C480 1.497 . S
C480 C479 1.497 . S
C480 C481 1.395 . S
C480 C482 1.380 . S
C481 C480 1.395 . S
C481 C484 1.398 . S
C481 H496 0.930 . S
C482 C480 1.380 . S
C482 C483 1.391 . S
C482 H497 0.930 . S
C483 C482 1.391 . S
C483 C485 1.387 . S
C484 C481 1.398 . S
C484 C485 1.380 . S
C484 H498 0.930 . S
C485 C483 1.387 . S
C485 C484 1.380 . S
C485 H499 0.930 . S
C486 O466 1.254 . S
C486 O467 1.268 . S
C487 O471 1.284 . S
C487 O474 1.250 . S
C488 Gd421 2.828 . S
C488 O470 1.258 . S
C488 O475 1.252 . S
C488 C489 1.497 . S
C489 C488 1.497 . S
C489 C490 1.395 . S
C489 C491 1.380 . S
C490 C489 1.395 . S
C490 C493 1.398 . S
C490 H500 0.930 . S
C491 C489 1.380 . S
C491 C492 1.391 . S
C491 H501 0.930 . S
C492 C491 1.391 . S
C492 C494 1.387 . S
C493 C490 1.398 . S
C493 C494 1.380 . S
C493 H502 0.930 . S
C494 C492 1.387 . S
C494 C493 1.380 . S
C494 H503 0.930 . S
C495 O472 1.254 . S
C495 O473 1.268 . S
H496 C481 0.930 . S
H497 C482 0.930 . S
H498 C484 0.930 . S
H499 C485 0.930 . S
H500 C490 0.930 . S
H501 C491 0.930 . S
H502 C493 0.930 . S
H503 C494 0.930 . S
Gd504 N535 2.661 . S
Gd504 N541 2.601 . S
Gd504 O548 2.545 . S
Gd504 O549 2.606 . S
Gd504 O551 2.429 . S
Gd504 O552 2.545 . S
Gd504 O553 2.412 . S
Gd504 O555 2.362 . S
Gd504 O556 2.324 . S
Gd504 C563 2.828 . S
Gd505 N514 2.661 . S
Gd505 N518 2.601 . S
Gd505 O549 2.362 . S
Gd505 O550 2.324 . S
Gd505 O554 2.545 . S
Gd505 O555 2.606 . S
Gd505 O557 2.429 . S
Gd505 O558 2.545 . S
Gd505 O559 2.412 . S
Gd505 C572 2.828 . S
C506 C509 1.417 . S
C506 C511 1.431 . S
C506 C512 1.412 . S
C507 C510 1.437 . S
C507 C511 1.317 . S
C507 H526 0.929 . S
C508 C509 1.426 . S
C508 C510 1.413 . S
C508 N518 1.359 . S
C509 C506 1.417 . S
C509 C508 1.426 . S
C509 N514 1.350 . S
C510 C507 1.437 . S
C510 C508 1.413 . S
C510 C520 1.391 . S
C511 C506 1.431 . S
C511 C507 1.317 . S
C511 H522 0.930 . S
C512 C506 1.412 . S
C512 C513 1.355 . S
C512 H524 0.930 . S
C513 C512 1.355 . S
C513 C515 1.402 . S
C513 H525 0.930 . S
N514 Gd505 2.661 . S
N514 C509 1.350 . S
N514 C515 1.307 . S
C515 C513 1.402 . S
C515 N514 1.307 . S
C515 H516 0.930 . S
H516 C515 0.930 . S
C517 N518 1.334 . S
C517 C519 1.394 . S
C517 H521 0.930 . S
N518 Gd505 2.601 . S
N518 C508 1.359 . S
N518 C517 1.334 . S
C519 C517 1.394 . S
C519 C520 1.359 . S
C519 H531 0.930 . S
C520 C510 1.391 . S
C520 C519 1.359 . S
C520 H532 0.929 . S
H521 C517 0.930 . S
H522 C511 0.930 . S
H523 C540 0.930 . S
H524 C512 0.930 . S
H525 C513 0.930 . S
H526 C507 0.929 . S
H527 C545 0.930 . S
H528 C536 0.930 . S
H529 C537 0.930 . S
H530 C561 0.929 . S
H531 C519 0.930 . S
H532 C520 0.929 . S
H533 C562 0.930 . S
H534 C543 0.930 . S
N535 Gd504 2.661 . S
N535 C539 1.350 . S
N535 C540 1.307 . S
C536 H528 0.930 . S
C536 C537 1.355 . S
C536 C538 1.412 . S
C537 H529 0.930 . S
C537 C536 1.355 . S
C537 C540 1.402 . S
C538 C536 1.412 . S
C538 C539 1.417 . S
C538 C562 1.431 . S
C539 N535 1.350 . S
C539 C538 1.417 . S
C539 C542 1.426 . S
C540 H523 0.930 . S
C540 N535 1.307 . S
C540 C537 1.402 . S
N541 Gd504 2.601 . S
N541 C542 1.359 . S
N541 C545 1.334 . S
C542 C539 1.426 . S
C542 N541 1.359 . S
C542 C546 1.413 . S
C543 H534 0.930 . S
C543 C544 1.359 . S
C543 C545 1.394 . S
C544 C543 1.359 . S
C544 C546 1.391 . S
C544 H547 0.929 . S
C545 H527 0.930 . S
C545 N541 1.334 . S
C545 C543 1.394 . S
C546 C542 1.413 . S
C546 C544 1.391 . S
C546 C561 1.437 . S
H547 C544 0.929 . S
O548 Gd504 2.545 . S
O548 C563 1.258 . S
O549 Gd504 2.606 . S
O549 Gd505 2.362 . S
O549 C560 1.284 . S
O550 Gd505 2.324 . S
O550 C570 1.254 . S
O551 Gd504 2.429 . S
O551 C570 1.268 . S
O552 Gd504 2.545 . S
O552 C560 1.250 . S
O553 Gd504 2.412 . S
O553 C563 1.252 . S
O554 Gd505 2.545 . S
O554 C572 1.258 . S
O555 Gd504 2.362 . S
O555 Gd505 2.606 . S
O555 C571 1.284 . S
O556 Gd504 2.324 . S
O556 C579 1.254 . S
O557 Gd505 2.429 . S
O557 C579 1.268 . S
O558 Gd505 2.545 . S
O558 C571 1.250 . S
O559 Gd505 2.412 . S
O559 C572 1.252 . S
C560 O549 1.284 . S
C560 O552 1.250 . S
C561 H530 0.929 . S
C561 C546 1.437 . S
C561 C562 1.317 . S
C562 H533 0.930 . S
C562 C538 1.431 . S
C562 C561 1.317 . S
C563 Gd504 2.828 . S
C563 O548 1.258 . S
C563 O553 1.252 . S
C563 C564 1.497 . S
C564 C563 1.497 . S
C564 C565 1.395 . S
C564 C566 1.380 . S
C565 C564 1.395 . S
C565 C568 1.398 . S
C565 H580 0.930 . S
C566 C564 1.380 . S
C566 C567 1.391 . S
C566 H581 0.930 . S
C567 C566 1.391 . S
C567 C569 1.387 . S
C568 C565 1.398 . S
C568 C569 1.380 . S
C568 H582 0.930 . S
C569 C567 1.387 . S
C569 C568 1.380 . S
C569 H583 0.930 . S
C570 O550 1.254 . S
C570 O551 1.268 . S
C571 O555 1.284 . S
C571 O558 1.250 . S
C572 Gd505 2.828 . S
C572 O554 1.258 . S
C572 O559 1.252 . S
C572 C573 1.497 . S
C573 C572 1.497 . S
C573 C574 1.395 . S
C573 C575 1.380 . S
C574 C573 1.395 . S
C574 C577 1.398 . S
C574 H584 0.930 . S
C575 C573 1.380 . S
C575 C576 1.391 . S
C575 H585 0.930 . S
C576 C575 1.391 . S
C576 C578 1.387 . S
C577 C574 1.398 . S
C577 C578 1.380 . S
C577 H586 0.930 . S
C578 C576 1.387 . S
C578 C577 1.380 . S
C578 H587 0.930 . S
C579 O556 1.254 . S
C579 O557 1.268 . S
H580 C565 0.930 . S
H581 C566 0.930 . S
H582 C568 0.930 . S
H583 C569 0.930 . S
H584 C574 0.930 . S
H585 C575 0.930 . S
H586 C577 0.930 . S
H587 C578 0.930 . S
Gd588 N619 2.661 . S
Gd588 N625 2.601 . S
Gd588 O632 2.545 . S
Gd588 O633 2.606 . S
Gd588 O635 2.429 . S
Gd588 O636 2.545 . S
Gd588 O637 2.412 . S
Gd588 O639 2.362 . S
Gd588 O640 2.324 . S
Gd588 C647 2.828 . S
Gd589 N598 2.661 . S
Gd589 N602 2.601 . S
Gd589 O633 2.362 . S
Gd589 O634 2.324 . S
Gd589 O638 2.545 . S
Gd589 O639 2.606 . S
Gd589 O641 2.429 . S
Gd589 O642 2.545 . S
Gd589 O643 2.412 . S
Gd589 C656 2.828 . S
C590 C593 1.417 1_455 S
C590 C595 1.431 . S
C590 C596 1.412 . S
C591 C594 1.437 1_455 S
C591 C595 1.317 . S
C591 H610 0.929 . S
C592 C593 1.426 . S
C592 C594 1.413 . S
C592 N602 1.359 . S
C593 C590 1.417 1_655 S
C593 C592 1.426 . S
C593 N598 1.350 . S
C594 C591 1.437 1_655 S
C594 C592 1.413 . S
C594 C604 1.391 . S
C595 C590 1.431 . S
C595 C591 1.317 . S
C595 H606 0.930 . S
C596 C590 1.412 . S
C596 C597 1.355 . S
C596 H608 0.930 . S
C597 C596 1.355 . S
C597 C599 1.402 1_455 S
C597 H609 0.930 . S
N598 Gd589 2.661 . S
N598 C593 1.350 . S
N598 C599 1.307 . S
C599 C597 1.402 1_655 S
C599 N598 1.307 . S
C599 H600 0.930 . S
H600 C599 0.930 . S
C601 N602 1.334 . S
C601 C603 1.394 . S
C601 H605 0.930 . S
N602 Gd589 2.601 . S
N602 C592 1.359 . S
N602 C601 1.334 . S
C603 C601 1.394 . S
C603 C604 1.359 . S
C603 H615 0.930 . S
C604 C594 1.391 . S
C604 C603 1.359 . S
C604 H616 0.929 . S
H605 C601 0.930 . S
H606 C595 0.930 . S
H607 C624 0.930 . S
H608 C596 0.930 . S
H609 C597 0.930 . S
H610 C591 0.929 . S
H611 C629 0.930 . S
H612 C620 0.930 . S
H613 C621 0.930 . S
H614 C645 0.929 . S
H615 C603 0.930 . S
H616 C604 0.929 . S
H617 C646 0.930 . S
H618 C627 0.930 . S
N619 Gd588 2.661 . S
N619 C623 1.350 . S
N619 C624 1.307 . S
C620 H612 0.930 . S
C620 C621 1.355 . S
C620 C622 1.412 . S
C621 H613 0.930 . S
C621 C620 1.355 . S
C621 C624 1.402 . S
C622 C620 1.412 . S
C622 C623 1.417 . S
C622 C646 1.431 . S
C623 N619 1.350 . S
C623 C622 1.417 . S
C623 C626 1.426 . S
C624 H607 0.930 . S
C624 N619 1.307 . S
C624 C621 1.402 . S
N625 Gd588 2.601 . S
N625 C626 1.359 . S
N625 C629 1.334 . S
C626 C623 1.426 . S
C626 N625 1.359 . S
C626 C630 1.413 . S
C627 H618 0.930 . S
C627 C628 1.359 . S
C627 C629 1.394 . S
C628 C627 1.359 . S
C628 C630 1.391 . S
C628 H631 0.929 . S
C629 H611 0.930 . S
C629 N625 1.334 . S
C629 C627 1.394 . S
C630 C626 1.413 . S
C630 C628 1.391 . S
C630 C645 1.437 . S
H631 C628 0.929 . S
O632 Gd588 2.545 . S
O632 C647 1.258 . S
O633 Gd588 2.606 . S
O633 Gd589 2.362 . S
O633 C644 1.284 . S
O634 Gd589 2.324 . S
O634 C654 1.254 . S
O635 Gd588 2.429 . S
O635 C654 1.268 . S
O636 Gd588 2.545 . S
O636 C644 1.250 . S
O637 Gd588 2.412 . S
O637 C647 1.252 . S
O638 Gd589 2.545 . S
O638 C656 1.258 . S
O639 Gd588 2.362 . S
O639 Gd589 2.606 . S
O639 C655 1.284 . S
O640 Gd588 2.324 . S
O640 C663 1.254 . S
O641 Gd589 2.429 . S
O641 C663 1.268 . S
O642 Gd589 2.545 . S
O642 C655 1.250 . S
O643 Gd589 2.412 . S
O643 C656 1.252 . S
C644 O633 1.284 . S
C644 O636 1.250 . S
C645 H614 0.929 . S
C645 C630 1.437 . S
C645 C646 1.317 . S
C646 H617 0.930 . S
C646 C622 1.431 . S
C646 C645 1.317 . S
C647 Gd588 2.828 . S
C647 O632 1.258 . S
C647 O637 1.252 . S
C647 C648 1.497 . S
C648 C647 1.497 . S
C648 C649 1.395 . S
C648 C650 1.380 . S
C649 C648 1.395 . S
C649 C652 1.398 . S
C649 H664 0.930 . S
C650 C648 1.380 . S
C650 C651 1.391 . S
C650 H665 0.930 . S
C651 C650 1.391 . S
C651 C653 1.387 . S
C652 C649 1.398 . S
C652 C653 1.380 . S
C652 H666 0.930 . S
C653 C651 1.387 . S
C653 C652 1.380 . S
C653 H667 0.930 . S
C654 O634 1.254 . S
C654 O635 1.268 . S
C655 O639 1.284 . S
C655 O642 1.250 . S
C656 Gd589 2.828 . S
C656 O638 1.258 . S
C656 O643 1.252 . S
C656 C657 1.497 . S
C657 C656 1.497 . S
C657 C658 1.395 . S
C657 C659 1.380 . S
C658 C657 1.395 . S
C658 C661 1.398 1_556 S
C658 H668 0.930 . S
C659 C657 1.380 . S
C659 C660 1.391 1_556 S
C659 H669 0.930 . S
C660 C659 1.391 1_554 S
C660 C662 1.387 . S
C661 C658 1.398 1_554 S
C661 C662 1.380 . S
C661 H670 0.930 . S
C662 C660 1.387 . S
C662 C661 1.380 . S
C662 H671 0.930 . S
C663 O640 1.254 . S
C663 O641 1.268 . S
H664 C649 0.930 . S
H665 C650 0.930 . S
H666 C652 0.930 . S
H667 C653 0.930 . S
H668 C658 0.930 . S
H669 C659 0.930 . S
H670 C661 0.930 . S
H671 C662 0.930 . S
Gd672 N703 2.661 . S
Gd672 N709 2.601 . S
Gd672 O716 2.545 . S
Gd672 O717 2.606 . S
Gd672 O719 2.429 . S
Gd672 O720 2.545 . S
Gd672 O721 2.412 . S
Gd672 O723 2.362 . S
Gd672 O724 2.324 . S
Gd672 C731 2.818 1_556 S
Gd673 N682 2.661 . S
Gd673 N686 2.601 . S
Gd673 O717 2.362 . S
Gd673 O718 2.324 . S
Gd673 O722 2.545 . S
Gd673 O723 2.606 . S
Gd673 O725 2.429 . S
Gd673 O726 2.545 . S
Gd673 O727 2.412 . S
Gd673 C740 2.828 . S
C674 C677 1.417 . S
C674 C679 1.431 . S
C674 C680 1.412 . S
C675 C678 1.437 . S
C675 C679 1.317 . S
C675 H694 0.929 . S
C676 C677 1.426 . S
C676 C678 1.413 . S
C676 N686 1.359 . S
C677 C674 1.417 . S
C677 C676 1.426 . S
C677 N682 1.350 . S
C678 C675 1.437 . S
C678 C676 1.413 . S
C678 C688 1.391 . S
C679 C674 1.431 . S
C679 C675 1.317 . S
C679 H690 0.930 . S
C680 C674 1.412 . S
C680 C681 1.355 . S
C680 H692 0.930 . S
C681 C680 1.355 . S
C681 C683 1.402 . S
C681 H693 0.930 . S
N682 Gd673 2.661 . S
N682 C677 1.350 . S
N682 C683 1.307 . S
C683 C681 1.402 . S
C683 N682 1.307 . S
C683 H684 0.930 . S
H684 C683 0.930 . S
C685 N686 1.334 . S
C685 C687 1.394 . S
C685 H689 0.930 . S
N686 Gd673 2.601 . S
N686 C676 1.359 . S
N686 C685 1.334 . S
C687 C685 1.394 . S
C687 C688 1.359 . S
C687 H699 0.930 . S
C688 C678 1.391 . S
C688 C687 1.359 . S
C688 H700 0.929 . S
H689 C685 0.930 . S
H690 C679 0.930 . S
H691 C708 0.930 . S
H692 C680 0.930 . S
H693 C681 0.930 . S
H694 C675 0.929 . S
H695 C713 0.930 . S
H696 C704 0.930 . S
H697 C705 0.930 . S
H698 C729 0.929 . S
H699 C687 0.930 . S
H700 C688 0.929 . S
H701 C730 0.934 1_455 S
H702 C711 0.930 . S
N703 Gd672 2.661 . S
N703 C707 1.350 . S
N703 C708 1.307 . S
C704 H696 0.930 . S
C704 C705 1.355 . S
C704 C706 1.412 . S
C705 H697 0.930 . S
C705 C704 1.355 . S
C705 C708 1.402 . S
C706 C704 1.412 . S
C706 C707 1.417 . S
C706 C730 1.431 . S
C707 N703 1.350 . S
C707 C706 1.417 . S
C707 C710 1.426 . S
C708 H691 0.930 . S
C708 N703 1.307 . S
C708 C705 1.402 . S
N709 Gd672 2.601 . S
N709 C710 1.359 . S
N709 C713 1.334 . S
C710 C707 1.426 . S
C710 N709 1.359 . S
C710 C714 1.413 . S
C711 H702 0.930 . S
C711 C712 1.359 . S
C711 C713 1.394 . S
C712 C711 1.359 . S
C712 C714 1.391 . S
C712 H715 0.929 . S
C713 H695 0.930 . S
C713 N709 1.334 . S
C713 C711 1.394 . S
C714 C710 1.413 . S
C714 C712 1.391 . S
C714 C729 1.437 . S
H715 C712 0.929 . S
O716 Gd672 2.545 . S
O716 C731 1.251 1_556 S
O717 Gd672 2.606 . S
O717 Gd673 2.362 . S
O717 C728 1.284 . S
O718 Gd673 2.324 . S
O718 C738 1.254 . S
O719 Gd672 2.429 . S
O719 C738 1.268 . S
O720 Gd672 2.545 . S
O720 C728 1.250 . S
O721 Gd672 2.412 . S
O721 C731 1.248 1_556 S
O722 Gd673 2.545 . S
O722 C740 1.258 . S
O723 Gd672 2.362 . S
O723 Gd673 2.606 . S
O723 C739 1.284 . S
O724 Gd672 2.324 . S
O724 C747 1.254 . S
O725 Gd673 2.429 . S
O725 C747 1.268 . S
O726 Gd673 2.545 . S
O726 C739 1.250 . S
O727 Gd673 2.412 . S
O727 C740 1.252 . S
C728 O717 1.284 . S
C728 O720 1.250 . S
C729 H698 0.929 . S
C729 C714 1.437 . S
C729 C730 1.317 . S
C730 H701 0.934 1_655 S
C730 C706 1.431 . S
C730 C729 1.317 . S
C731 Gd672 2.818 1_554 S
C731 O716 1.251 1_554 S
C731 O721 1.248 1_554 S
C731 C732 1.508 . S
C732 C731 1.508 . S
C732 C733 1.395 . S
C732 C734 1.380 . S
C733 C732 1.395 . S
C733 C736 1.398 . S
C733 H748 0.930 . S
C734 C732 1.380 . S
C734 C735 1.391 . S
C734 H749 0.930 . S
C735 C734 1.391 . S
C735 C737 1.387 . S
C736 C733 1.398 . S
C736 C737 1.380 . S
C736 H750 0.930 . S
C737 C735 1.387 . S
C737 C736 1.380 . S
C737 H751 0.930 . S
C738 O718 1.254 . S
C738 O719 1.268 . S
C739 O723 1.284 . S
C739 O726 1.250 . S
C740 Gd673 2.828 . S
C740 O722 1.258 . S
C740 O727 1.252 . S
C740 C741 1.497 . S
C741 C740 1.497 . S
C741 C742 1.395 . S
C741 C743 1.380 . S
C742 C741 1.395 . S
C742 C745 1.398 . S
C742 H752 0.930 . S
C743 C741 1.380 . S
C743 C744 1.391 . S
C743 H753 0.930 . S
C744 C743 1.391 . S
C744 C746 1.387 . S
C745 C742 1.398 . S
C745 C746 1.380 . S
C745 H754 0.930 . S
C746 C744 1.387 . S
C746 C745 1.380 . S
C746 H755 0.930 . S
C747 O724 1.254 . S
C747 O725 1.268 . S
H748 C733 0.930 . S
H749 C734 0.930 . S
H750 C736 0.930 . S
H751 C737 0.930 . S
H752 C742 0.930 . S
H753 C743 0.930 . S
H754 C745 0.930 . S
H755 C746 0.930 . S
C756 C757 1.349 . S
C756 C758 1.327 . S
C756 H781 0.950 . S
C757 C756 1.349 . S
C757 C773 1.349 . S
C758 C756 1.327 . S
C758 C777 1.429 . S
C758 H782 0.950 . S
C759 C776 1.574 . S
C759 C778 1.368 . S
C759 H783 0.949 . S
H760 C764 0.949 . S
C761 C762 1.349 . S
C761 C763 1.327 . S
C761 H784 0.951 . S
C762 C761 1.349 . S
C762 C774 1.349 . S
C763 C761 1.327 . S
C763 C779 1.429 . S
C763 H785 0.965 . S
C764 H760 0.949 . S
C764 C772 1.574 . S
C764 C780 1.368 . S
H765 C773 0.950 . S
H766 C771 0.950 . S
H767 C772 0.949 . S
H768 C774 0.950 . S
H769 C775 0.950 . S
H770 C776 0.949 . S
C771 H766 0.950 . S
C771 C773 1.327 . S
C771 C777 1.429 . S
C772 C764 1.574 . S
C772 H767 0.949 . S
C772 C778 1.368 . S
C773 C757 1.349 . S
C773 H765 0.950 . S
C773 C771 1.327 . S
C774 C762 1.349 . S
C774 H768 0.950 . S
C774 C775 1.327 . S
C775 H769 0.950 . S
C775 C774 1.327 . S
C775 C779 1.429 . S
C776 C759 1.574 . S
C776 H770 0.949 . S
C776 C780 1.368 . S
C777 C758 1.429 . S
C777 C771 1.429 . S
C777 C778 1.523 . S
C778 C759 1.368 . S
C778 C772 1.368 . S
C778 C777 1.523 . S
C779 C763 1.429 . S
C779 C775 1.429 . S
C779 C780 1.523 . S
C780 C764 1.368 . S
C780 C776 1.368 . S
C780 C779 1.523 . S
H781 C756 0.950 . S
H782 C758 0.950 . S
H783 C759 0.949 . S
H784 C761 0.951 . S
H785 C763 0.965 . S
C786 C787 1.349 . S
C786 C788 1.327 . S
C786 H811 0.950 . S
C787 C786 1.349 . S
C787 C803 1.349 . S
C788 C786 1.327 . S
C788 C807 1.429 . S
C788 H812 0.950 . S
C789 C806 1.574 . S
C789 C808 1.368 . S
C789 H813 0.949 . S
H790 C794 0.949 . S
C791 C792 1.349 . S
C791 C793 1.327 . S
C791 H814 0.950 . S
C792 C791 1.349 . S
C792 C804 1.349 . S
C793 C791 1.327 . S
C793 C809 1.429 . S
C793 H815 0.950 . S
C794 H790 0.949 . S
C794 C802 1.574 . S
C794 C810 1.368 . S
H795 C803 0.950 . S
H796 C801 0.950 . S
H797 C802 0.949 . S
H798 C804 0.950 . S
H799 C805 0.950 . S
H800 C806 0.949 . S
C801 H796 0.950 . S
C801 C803 1.327 . S
C801 C807 1.429 . S
C802 C794 1.574 . S
C802 H797 0.949 . S
C802 C808 1.368 . S
C803 C787 1.349 . S
C803 H795 0.950 . S
C803 C801 1.327 . S
C804 C792 1.349 . S
C804 H798 0.950 . S
C804 C805 1.327 . S
C805 H799 0.950 . S
C805 C804 1.327 . S
C805 C809 1.429 . S
C806 C789 1.574 . S
C806 H800 0.949 . S
C806 C810 1.368 . S
C807 C788 1.429 . S
C807 C801 1.429 . S
C807 C808 1.523 . S
C808 C789 1.368 . S
C808 C802 1.368 . S
C808 C807 1.523 . S
C809 C793 1.429 . S
C809 C805 1.429 . S
C809 C810 1.523 . S
C810 C794 1.368 . S
C810 C806 1.368 . S
C810 C809 1.523 . S
H811 C786 0.950 . S
H812 C788 0.950 . S
H813 C789 0.949 . S
H814 C791 0.950 . S
H815 C793 0.950 . S
C816 C817 1.349 . S
C816 C818 1.327 . S
C816 H841 0.950 . S
C817 C816 1.349 . S
C817 C833 1.349 . S
C818 C816 1.327 . S
C818 C837 1.429 . S
C818 H842 0.950 . S
C819 C836 1.574 . S
C819 C838 1.368 . S
C819 H843 0.949 . S
H820 C824 0.949 . S
C821 C822 1.349 . S
C821 C823 1.327 . S
C821 H844 0.950 . S
C822 C821 1.349 . S
C822 C834 1.349 . S
C823 C821 1.327 . S
C823 C839 1.429 . S
C823 H845 0.950 . S
C824 H820 0.949 . S
C824 C832 1.574 . S
C824 C840 1.368 . S
H825 C833 0.950 . S
H826 C831 0.950 . S
H827 C832 0.949 . S
H828 C834 0.950 . S
H829 C835 0.950 . S
H830 C836 0.949 . S
C831 H826 0.950 . S
C831 C833 1.327 . S
C831 C837 1.429 . S
C832 C824 1.574 . S
C832 H827 0.949 . S
C832 C838 1.368 . S
C833 C817 1.349 . S
C833 H825 0.950 . S
C833 C831 1.327 . S
C834 C822 1.349 . S
C834 H828 0.950 . S
C834 C835 1.327 . S
C835 H829 0.950 . S
C835 C834 1.327 . S
C835 C839 1.429 . S
C836 C819 1.574 . S
C836 H830 0.949 . S
C836 C840 1.368 . S
C837 C818 1.429 . S
C837 C831 1.429 . S
C837 C838 1.523 . S
C838 C819 1.368 . S
C838 C832 1.368 . S
C838 C837 1.523 . S
C839 C823 1.429 . S
C839 C835 1.429 . S
C839 C840 1.523 . S
C840 C824 1.368 . S
C840 C836 1.368 . S
C840 C839 1.523 . S
H841 C816 0.950 . S
H842 C818 0.950 . S
H843 C819 0.949 . S
H844 C821 0.950 . S
H845 C823 0.950 . S
C846 C847 1.349 . S
C846 C848 1.327 . S
C846 H871 0.950 . S
C847 C846 1.349 . S
C847 C863 1.349 . S
C848 C846 1.327 . S
C848 C867 1.429 . S
C848 H872 0.950 . S
C849 C866 1.574 . S
C849 C868 1.368 . S
C849 H873 0.949 . S
H850 C854 0.949 . S
C851 C852 1.349 1_556 S
C851 C853 1.327 . S
C851 H874 0.950 1_556 S
C852 C851 1.349 1_554 S
C852 C864 1.349 1_554 S
C853 C851 1.327 . S
C853 C869 1.429 . S
C853 H875 0.950 . S
C854 H850 0.949 . S
C854 C862 1.574 . S
C854 C870 1.368 . S
H855 C863 0.950 . S
H856 C861 0.950 . S
H857 C862 0.949 . S
H858 C864 0.950 1_554 S
H859 C865 0.950 . S
H860 C866 0.949 . S
C861 H856 0.950 . S
C861 C863 1.327 . S
C861 C867 1.429 . S
C862 C854 1.574 . S
C862 H857 0.949 . S
C862 C868 1.368 . S
C863 C847 1.349 . S
C863 H855 0.950 . S
C863 C861 1.327 . S
C864 C852 1.349 1_556 S
C864 H858 0.950 1_556 S
C864 C865 1.327 . S
C865 H859 0.950 . S
C865 C864 1.327 . S
C865 C869 1.429 . S
C866 C849 1.574 . S
C866 H860 0.949 . S
C866 C870 1.368 . S
C867 C848 1.429 . S
C867 C861 1.429 . S
C867 C868 1.523 . S
C868 C849 1.368 . S
C868 C862 1.368 . S
C868 C867 1.523 . S
C869 C853 1.429 . S
C869 C865 1.429 . S
C869 C870 1.523 . S
C870 C854 1.368 . S
C870 C866 1.368 . S
C870 C869 1.523 . S
H871 C846 0.950 . S
H872 C848 0.950 . S
H873 C849 0.949 . S
H874 C851 0.950 1_554 S
H875 C853 0.950 . S
C876 C877 1.349 . S
C876 C878 1.327 . S
C876 H901 0.950 . S
C877 C876 1.349 . S
C877 C893 1.349 . S
C878 C876 1.327 . S
C878 C897 1.429 . S
C878 H902 0.950 . S
C879 C896 1.574 . S
C879 C898 1.368 . S
C879 H903 0.949 . S
H880 C884 0.949 . S
C881 C882 1.349 . S
C881 C883 1.327 . S
C881 H904 0.950 . S
C882 C881 1.349 . S
C882 C894 1.349 . S
C883 C881 1.327 . S
C883 C899 1.429 . S
C883 H905 0.950 . S
C884 H880 0.949 . S
C884 C892 1.574 . S
C884 C900 1.368 . S
H885 C893 0.950 . S
H886 C891 0.950 . S
H887 C892 0.949 . S
H888 C894 0.950 . S
H889 C895 0.950 . S
H890 C896 0.949 . S
C891 H886 0.950 . S
C891 C893 1.327 . S
C891 C897 1.429 . S
C892 C884 1.574 . S
C892 H887 0.949 . S
C892 C898 1.368 . S
C893 C877 1.349 . S
C893 H885 0.950 . S
C893 C891 1.327 . S
C894 C882 1.349 . S
C894 H888 0.950 . S
C894 C895 1.327 . S
C895 H889 0.950 . S
C895 C894 1.327 . S
C895 C899 1.429 . S
C896 C879 1.574 . S
C896 H890 0.949 . S
C896 C900 1.368 . S
C897 C878 1.429 . S
C897 C891 1.429 . S
C897 C898 1.523 . S
C898 C879 1.368 . S
C898 C892 1.368 . S
C898 C897 1.523 . S
C899 C883 1.429 . S
C899 C895 1.429 . S
C899 C900 1.523 . S
C900 C884 1.368 . S
C900 C896 1.368 . S
C900 C899 1.523 . S
H901 C876 0.950 . S
H902 C878 0.950 . S
H903 C879 0.949 . S
H904 C881 0.950 . S
H905 C883 0.950 . S
C906 C907 1.349 . S
C906 C908 1.327 . S
C906 H931 0.950 . S
C907 C906 1.349 . S
C907 C923 1.349 . S
C908 C906 1.327 . S
C908 C927 1.429 . S
C908 H932 0.950 . S
C909 C926 1.574 . S
C909 C928 1.368 . S
C909 H933 0.949 . S
H910 C914 0.949 . S
C911 C912 1.349 . S
C911 C913 1.327 . S
C911 H934 0.950 . S
C912 C911 1.349 . S
C912 C924 1.349 . S
C913 C911 1.327 . S
C913 C929 1.429 . S
C913 H935 0.950 . S
C914 H910 0.949 . S
C914 C922 1.574 . S
C914 C930 1.368 . S
H915 C923 0.950 . S
H916 C921 0.950 . S
H917 C922 0.949 . S
H918 C924 0.950 . S
H919 C925 0.950 . S
H920 C926 0.949 . S
C921 H916 0.950 . S
C921 C923 1.327 . S
C921 C927 1.429 . S
C922 C914 1.574 . S
C922 H917 0.949 . S
C922 C928 1.368 . S
C923 C907 1.349 . S
C923 H915 0.950 . S
C923 C921 1.327 . S
C924 C912 1.349 . S
C924 H918 0.950 . S
C924 C925 1.327 . S
C925 H919 0.950 . S
C925 C924 1.327 . S
C925 C929 1.429 . S
C926 C909 1.574 . S
C926 H920 0.949 . S
C926 C930 1.368 . S
C927 C908 1.429 . S
C927 C921 1.429 . S
C927 C928 1.523 . S
C928 C909 1.368 . S
C928 C922 1.368 . S
C928 C927 1.523 . S
C929 C913 1.429 . S
C929 C925 1.429 . S
C929 C930 1.523 . S
C930 C914 1.368 . S
C930 C926 1.368 . S
C930 C929 1.523 . S
H931 C906 0.950 . S
H932 C908 0.950 . S
H933 C909 0.949 . S
H934 C911 0.950 . S
H935 C913 0.950 . S
C936 C937 1.349 . S
C936 C938 1.327 . S
C936 H961 0.950 . S
C937 C936 1.349 . S
C937 C953 1.349 . S
C938 C936 1.327 . S
C938 C957 1.429 . S
C938 H962 0.950 . S
C939 C956 1.574 1_554 S
C939 C958 1.368 . S
C939 H963 0.949 . S
H940 C944 0.949 . S
C941 C942 1.349 . S
C941 C943 1.327 . S
C941 H964 0.950 . S
C942 C941 1.349 . S
C942 C954 1.349 . S
C943 C941 1.327 . S
C943 C959 1.429 . S
C943 H965 0.950 . S
C944 H940 0.949 . S
C944 C952 1.574 . S
C944 C960 1.368 1_554 S
H945 C953 0.950 . S
H946 C951 0.950 . S
H947 C952 0.949 . S
H948 C954 0.950 . S
H949 C955 0.950 . S
H950 C956 0.949 . S
C951 H946 0.950 . S
C951 C953 1.327 . S
C951 C957 1.429 . S
C952 C944 1.574 . S
C952 H947 0.949 . S
C952 C958 1.368 . S
C953 C937 1.349 . S
C953 H945 0.950 . S
C953 C951 1.327 . S
C954 C942 1.349 . S
C954 H948 0.950 . S
C954 C955 1.327 . S
C955 H949 0.950 . S
C955 C954 1.327 . S
C955 C959 1.429 . S
C956 C939 1.574 1_556 S
C956 H950 0.949 . S
C956 C960 1.368 . S
C957 C938 1.429 . S
C957 C951 1.429 . S
C957 C958 1.523 . S
C958 C939 1.368 . S
C958 C952 1.368 . S
C958 C957 1.523 . S
C959 C943 1.429 . S
C959 C955 1.429 . S
C959 C960 1.523 . S
C960 C944 1.368 1_556 S
C960 C956 1.368 . S
C960 C959 1.523 . S
H961 C936 0.950 . S
H962 C938 0.950 . S
H963 C939 0.949 . S
H964 C941 0.950 . S
H965 C943 0.950 . S
C966 C967 1.349 . S
C966 C968 1.327 . S
C966 H991 0.950 . S
C967 C966 1.349 . S
C967 C983 1.349 . S
C968 C966 1.327 . S
C968 C987 1.429 . S
C968 H992 0.950 . S
C969 C986 1.574 . S
C969 C988 1.368 . S
C969 H993 0.949 . S
H970 C974 0.949 . S
C971 C972 1.349 . S
C971 C973 1.327 1_556 S
C971 H994 0.950 . S
C972 C971 1.349 . S
C972 C984 1.349 . S
C973 C971 1.327 1_554 S
C973 C989 1.429 . S
C973 H995 0.950 . S
C974 H970 0.949 . S
C974 C982 1.574 . S
C974 C990 1.368 . S
H975 C983 0.950 . S
H976 C981 0.950 . S
H977 C982 0.949 . S
H978 C984 0.950 . S
H979 C985 0.950 . S
H980 C986 0.949 . S
C981 H976 0.950 . S
C981 C983 1.327 . S
C981 C987 1.429 . S
C982 C974 1.574 . S
C982 H977 0.949 . S
C982 C988 1.368 . S
C983 C967 1.349 . S
C983 H975 0.950 . S
C983 C981 1.327 . S
C984 C972 1.349 . S
C984 H978 0.950 . S
C984 C985 1.327 1_556 S
C985 H979 0.950 . S
C985 C984 1.327 1_554 S
C985 C989 1.429 . S
C986 C969 1.574 . S
C986 H980 0.949 . S
C986 C990 1.368 . S
C987 C968 1.429 . S
C987 C981 1.429 . S
C987 C988 1.523 . S
C988 C969 1.368 . S
C988 C982 1.368 . S
C988 C987 1.523 . S
C989 C973 1.429 . S
C989 C985 1.429 . S
C989 C990 1.523 . S
C990 C974 1.368 . S
C990 C986 1.368 . S
C990 C989 1.523 . S
H991 C966 0.950 . S
H992 C968 0.950 . S
H993 C969 0.949 . S
H994 C971 0.950 . S
H995 C973 0.950 . S
C996 C997 1.349 . S
C996 C998 1.327 . S
C996 H1021 0.950 . S
C997 C996 1.349 . S
C997 C1013 1.349 . S
C998 C996 1.327 . S
C998 C1017 1.429 . S
C998 H1022 0.950 . S
C999 C1016 1.574 . S
C999 C1018 1.368 . S
C999 H1023 0.949 . S
H1000 C1004 0.949 . S
C1001 C1002 1.349 . S
C1001 C1003 1.327 . S
C1001 H1024 0.950 . S
C1002 C1001 1.349 . S
C1002 C1014 1.349 . S
C1003 C1001 1.327 . S
C1003 C1019 1.429 . S
C1003 H1025 0.950 . S
C1004 H1000 0.949 . S
C1004 C1012 1.574 . S
C1004 C1020 1.368 . S
H1005 C1013 0.950 . S
H1006 C1011 0.950 . S
H1007 C1012 0.949 . S
H1008 C1014 0.950 . S
H1009 C1015 0.950 . S
H1010 C1016 0.949 . S
C1011 H1006 0.950 . S
C1011 C1013 1.327 . S
C1011 C1017 1.429 . S
C1012 C1004 1.574 . S
C1012 H1007 0.949 . S
C1012 C1018 1.368 . S
C1013 C997 1.349 . S
C1013 H1005 0.950 . S
C1013 C1011 1.327 . S
C1014 C1002 1.349 . S
C1014 H1008 0.950 . S
C1014 C1015 1.327 . S
C1015 H1009 0.950 . S
C1015 C1014 1.327 . S
C1015 C1019 1.429 . S
C1016 C999 1.574 . S
C1016 H1010 0.949 . S
C1016 C1020 1.368 . S
C1017 C998 1.429 . S
C1017 C1011 1.429 . S
C1017 C1018 1.523 . S
C1018 C999 1.368 . S
C1018 C1012 1.368 . S
C1018 C1017 1.523 . S
C1019 C1003 1.429 . S
C1019 C1015 1.429 . S
C1019 C1020 1.523 . S
C1020 C1004 1.368 . S
C1020 C1016 1.368 . S
C1020 C1019 1.523 . S
H1021 C996 0.950 . S
H1022 C998 0.950 . S
H1023 C999 0.949 . S
H1024 C1001 0.950 . S
H1025 C1003 0.950 . S
C1026 C1027 1.349 . S
C1026 C1028 1.327 . S
C1026 H1051 0.950 . S
C1027 C1026 1.349 . S
C1027 C1043 1.349 . S
C1028 C1026 1.327 . S
C1028 C1047 1.429 . S
C1028 H1052 0.950 . S
C1029 C1046 1.574 . S
C1029 C1048 1.368 . S
C1029 H1053 0.949 . S
H1030 C1034 0.949 . S
C1031 C1032 1.349 . S
C1031 C1033 1.327 . S
C1031 H1054 0.950 . S
C1032 C1031 1.349 . S
C1032 C1044 1.349 . S
C1033 C1031 1.327 . S
C1033 C1049 1.429 . S
C1033 H1055 0.950 . S
C1034 H1030 0.949 . S
C1034 C1042 1.574 . S
C1034 C1050 1.368 . S
H1035 C1043 0.950 . S
H1036 C1041 0.950 . S
H1037 C1042 0.949 . S
H1038 C1044 0.950 . S
H1039 C1045 0.950 . S
H1040 C1046 0.949 . S
C1041 H1036 0.950 . S
C1041 C1043 1.327 . S
C1041 C1047 1.429 . S
C1042 C1034 1.574 . S
C1042 H1037 0.949 . S
C1042 C1048 1.368 . S
C1043 C1027 1.349 . S
C1043 H1035 0.950 . S
C1043 C1041 1.327 . S
C1044 C1032 1.349 . S
C1044 H1038 0.950 . S
C1044 C1045 1.327 . S
C1045 H1039 0.950 . S
C1045 C1044 1.327 . S
C1045 C1049 1.429 . S
C1046 C1029 1.574 . S
C1046 H1040 0.949 . S
C1046 C1050 1.368 . S
C1047 C1028 1.429 . S
C1047 C1041 1.429 . S
C1047 C1048 1.523 . S
C1048 C1029 1.368 . S
C1048 C1042 1.368 . S
C1048 C1047 1.523 . S
C1049 C1033 1.429 . S
C1049 C1045 1.429 . S
C1049 C1050 1.523 . S
C1050 C1034 1.368 . S
C1050 C1046 1.368 . S
C1050 C1049 1.523 . S
H1051 C1026 0.950 . S
H1052 C1028 0.950 . S
H1053 C1029 0.949 . S
H1054 C1031 0.950 . S
H1055 C1033 0.950 . S
C1056 C1057 1.349 . S
C1056 C1058 1.327 . S
C1056 H1081 0.950 . S
C1057 C1056 1.349 . S
C1057 C1073 1.349 . S
C1058 C1056 1.327 . S
C1058 C1077 1.429 . S
C1058 H1082 0.950 . S
C1059 C1076 1.574 . S
C1059 C1078 1.368 . S
C1059 H1083 0.949 . S
H1060 C1064 0.949 . S
C1061 C1062 1.349 . S
C1061 C1063 1.327 . S
C1061 H1084 0.950 . S
C1062 C1061 1.349 . S
C1062 C1074 1.349 . S
C1063 C1061 1.327 . S
C1063 C1079 1.429 . S
C1063 H1085 0.950 . S
C1064 H1060 0.949 . S
C1064 C1072 1.574 . S
C1064 C1080 1.368 . S
H1065 C1073 0.950 . S
H1066 C1071 0.950 . S
H1067 C1072 0.949 . S
H1068 C1074 0.950 . S
H1069 C1075 0.950 . S
H1070 C1076 0.949 . S
C1071 H1066 0.950 . S
C1071 C1073 1.327 . S
C1071 C1077 1.429 . S
C1072 C1064 1.574 . S
C1072 H1067 0.949 . S
C1072 C1078 1.368 . S
C1073 C1057 1.349 . S
C1073 H1065 0.950 . S
C1073 C1071 1.327 . S
C1074 C1062 1.349 . S
C1074 H1068 0.950 . S
C1074 C1075 1.327 . S
C1075 H1069 0.950 . S
C1075 C1074 1.327 . S
C1075 C1079 1.429 . S
C1076 C1059 1.574 . S
C1076 H1070 0.949 . S
C1076 C1080 1.368 . S
C1077 C1058 1.429 . S
C1077 C1071 1.429 . S
C1077 C1078 1.523 . S
C1078 C1059 1.368 . S
C1078 C1072 1.368 . S
C1078 C1077 1.523 . S
C1079 C1063 1.429 . S
C1079 C1075 1.429 . S
C1079 C1080 1.523 . S
C1080 C1064 1.368 . S
C1080 C1076 1.368 . S
C1080 C1079 1.523 . S
H1081 C1056 0.950 . S
H1082 C1058 0.950 . S
H1083 C1059 0.949 . S
H1084 C1061 0.950 . S
H1085 C1063 0.950 . S
C1086 C1087 1.349 . S
C1086 C1088 1.327 1_545 S
C1086 H1111 0.950 . S
C1087 C1086 1.349 . S
C1087 C1103 1.349 1_545 S
C1088 C1086 1.327 1_565 S
C1088 C1107 1.429 . S
C1088 H1112 0.954 . S
C1089 C1106 1.574 . S
C1089 C1108 1.368 . S
C1089 H1113 0.949 . S
H1090 C1094 0.949 . S
C1091 C1092 1.349 . S
C1091 C1093 1.327 . S
C1091 H1114 0.950 . S
C1092 C1091 1.349 . S
C1092 C1104 1.349 . S
C1093 C1091 1.327 . S
C1093 C1109 1.429 . S
C1093 H1115 0.950 . S
C1094 H1090 0.949 . S
C1094 C1102 1.574 . S
C1094 C1110 1.368 . S
H1095 C1103 0.950 . S
H1096 C1101 0.950 . S
H1097 C1102 0.949 . S
H1098 C1104 0.950 . S
H1099 C1105 0.950 . S
H1100 C1106 0.949 . S
C1101 H1096 0.950 . S
C1101 C1103 1.327 . S
C1101 C1107 1.429 . S
C1102 C1094 1.574 . S
C1102 H1097 0.949 . S
C1102 C1108 1.368 . S
C1103 C1087 1.349 1_565 S
C1103 H1095 0.950 . S
C1103 C1101 1.327 . S
C1104 C1092 1.349 . S
C1104 H1098 0.950 . S
C1104 C1105 1.327 . S
C1105 H1099 0.950 . S
C1105 C1104 1.327 . S
C1105 C1109 1.429 . S
C1106 C1089 1.574 . S
C1106 H1100 0.949 . S
C1106 C1110 1.368 . S
C1107 C1088 1.429 . S
C1107 C1101 1.429 . S
C1107 C1108 1.523 . S
C1108 C1089 1.368 . S
C1108 C1102 1.368 . S
C1108 C1107 1.523 . S
C1109 C1093 1.429 . S
C1109 C1105 1.429 . S
C1109 C1110 1.523 . S
C1110 C1094 1.368 . S
C1110 C1106 1.368 . S
C1110 C1109 1.523 . S
H1111 C1086 0.950 . S
H1112 C1088 0.954 . S
H1113 C1089 0.949 . S
H1114 C1091 0.950 . S
H1115 C1093 0.950 . S
C1116 C1117 1.349 . S
C1116 C1118 1.327 . S
C1116 H1141 0.950 . S
C1117 C1116 1.349 . S
C1117 C1133 1.349 . S
C1118 C1116 1.327 . S
C1118 C1137 1.429 . S
C1118 H1142 0.950 . S
C1119 C1136 1.574 . S
C1119 C1138 1.368 . S
C1119 H1143 0.949 . S
H1120 C1124 0.949 . S
C1121 C1122 1.349 . S
C1121 C1123 1.327 . S
C1121 H1144 0.950 . S
C1122 C1121 1.349 . S
C1122 C1134 1.349 . S
C1123 C1121 1.327 . S
C1123 C1139 1.429 . S
C1123 H1145 0.950 . S
C1124 H1120 0.949 . S
C1124 C1132 1.574 . S
C1124 C1140 1.368 . S
H1125 C1133 0.950 . S
H1126 C1131 0.950 . S
H1127 C1132 0.949 . S
H1128 C1134 0.950 . S
H1129 C1135 0.950 . S
H1130 C1136 0.949 . S
C1131 H1126 0.950 . S
C1131 C1133 1.327 . S
C1131 C1137 1.429 . S
C1132 C1124 1.574 . S
C1132 H1127 0.949 . S
C1132 C1138 1.368 . S
C1133 C1117 1.349 . S
C1133 H1125 0.950 . S
C1133 C1131 1.327 . S
C1134 C1122 1.349 . S
C1134 H1128 0.950 . S
C1134 C1135 1.327 . S
C1135 H1129 0.950 . S
C1135 C1134 1.327 . S
C1135 C1139 1.429 . S
C1136 C1119 1.574 . S
C1136 H1130 0.949 . S
C1136 C1140 1.368 . S
C1137 C1118 1.429 . S
C1137 C1131 1.429 . S
C1137 C1138 1.523 . S
C1138 C1119 1.368 . S
C1138 C1132 1.368 . S
C1138 C1137 1.523 . S
C1139 C1123 1.429 . S
C1139 C1135 1.429 . S
C1139 C1140 1.523 . S
C1140 C1124 1.368 . S
C1140 C1136 1.368 . S
C1140 C1139 1.523 . S
H1141 C1116 0.950 . S
H1142 C1118 0.950 . S
H1143 C1119 0.949 . S
H1144 C1121 0.950 . S
H1145 C1123 0.950 . S
C1146 C1147 1.349 . S
C1146 C1148 1.327 . S
C1146 H1171 0.950 . S
C1147 C1146 1.349 . S
C1147 C1163 1.349 . S
C1148 C1146 1.327 . S
C1148 C1167 1.429 . S
C1148 H1172 0.950 . S
C1149 C1166 1.574 . S
C1149 C1168 1.368 . S
C1149 H1173 0.949 . S
H1150 C1154 0.949 . S
C1151 C1152 1.349 1_655 S
C1151 C1153 1.327 . S
C1151 H1174 0.950 . S
C1152 C1151 1.349 1_455 S
C1152 C1164 1.349 . S
C1153 C1151 1.327 . S
C1153 C1169 1.429 . S
C1153 H1175 0.950 . S
C1154 H1150 0.949 . S
C1154 C1162 1.574 1_554 S
C1154 C1170 1.368 . S
H1155 C1163 0.950 . S
H1156 C1161 0.950 . S
H1157 C1162 0.949 . S
H1158 C1164 0.950 . S
H1159 C1165 0.950 . S
H1160 C1166 0.949 . S
C1161 H1156 0.950 . S
C1161 C1163 1.327 . S
C1161 C1167 1.429 . S
C1162 C1154 1.574 1_556 S
C1162 H1157 0.949 . S
C1162 C1168 1.368 . S
C1163 C1147 1.349 . S
C1163 H1155 0.950 . S
C1163 C1161 1.327 . S
C1164 C1152 1.349 . S
C1164 H1158 0.950 . S
C1164 C1165 1.327 . S
C1165 H1159 0.950 . S
C1165 C1164 1.327 . S
C1165 C1169 1.429 1_455 S
C1166 C1149 1.574 . S
C1166 H1160 0.949 . S
C1166 C1170 1.368 1_556 S
C1167 C1148 1.429 . S
C1167 C1161 1.429 . S
C1167 C1168 1.523 . S
C1168 C1149 1.368 . S
C1168 C1162 1.368 . S
C1168 C1167 1.523 . S
C1169 C1153 1.429 . S
C1169 C1165 1.429 1_655 S
C1169 C1170 1.523 . S
C1170 C1154 1.368 . S
C1170 C1166 1.368 1_554 S
C1170 C1169 1.523 . S
H1171 C1146 0.950 . S
H1172 C1148 0.950 . S
H1173 C1149 0.949 . S
H1174 C1151 0.950 . S
H1175 C1153 0.950 . S
C1176 C1177 1.349 . S
C1176 C1178 1.327 . S
C1176 H1201 0.950 . S
C1177 C1176 1.349 . S
C1177 C1193 1.349 . S
C1178 C1176 1.327 . S
C1178 C1197 1.429 . S
C1178 H1202 0.950 . S
C1179 C1196 1.574 . S
C1179 C1198 1.368 . S
C1179 H1203 0.949 . S
H1180 C1184 0.949 . S
C1181 C1182 1.349 . S
C1181 C1183 1.327 . S
C1181 H1204 0.950 . S
C1182 C1181 1.349 . S
C1182 C1194 1.349 . S
C1183 C1181 1.327 . S
C1183 C1199 1.429 . S
C1183 H1205 0.950 . S
C1184 H1180 0.949 . S
C1184 C1192 1.574 . S
C1184 C1200 1.368 . S
H1185 C1193 0.950 . S
H1186 C1191 0.950 . S
H1187 C1192 0.949 . S
H1188 C1194 0.950 . S
H1189 C1195 0.950 . S
H1190 C1196 0.949 . S
C1191 H1186 0.950 . S
C1191 C1193 1.327 . S
C1191 C1197 1.429 . S
C1192 C1184 1.574 . S
C1192 H1187 0.949 . S
C1192 C1198 1.368 1_554 S
C1193 C1177 1.349 . S
C1193 H1185 0.950 . S
C1193 C1191 1.327 . S
C1194 C1182 1.349 . S
C1194 H1188 0.950 . S
C1194 C1195 1.327 . S
C1195 H1189 0.950 . S
C1195 C1194 1.327 . S
C1195 C1199 1.429 . S
C1196 C1179 1.574 . S
C1196 H1190 0.949 . S
C1196 C1200 1.368 1_556 S
C1197 C1178 1.429 . S
C1197 C1191 1.429 . S
C1197 C1198 1.523 . S
C1198 C1179 1.368 . S
C1198 C1192 1.368 1_556 S
C1198 C1197 1.523 . S
C1199 C1183 1.429 . S
C1199 C1195 1.429 . S
C1199 C1200 1.523 . S
C1200 C1184 1.368 . S
C1200 C1196 1.368 1_554 S
C1200 C1199 1.523 . S
H1201 C1176 0.950 . S
H1202 C1178 0.950 . S
H1203 C1179 0.949 . S
H1204 C1181 0.950 . S
H1205 C1183 0.950 . S
C1206 C1207 1.349 . S
C1206 C1208 1.327 . S
C1206 H1231 0.950 . S
C1207 C1206 1.349 . S
C1207 C1223 1.349 . S
C1208 C1206 1.327 . S
C1208 C1227 1.429 . S
C1208 H1232 0.950 . S
C1209 C1226 1.574 . S
C1209 C1228 1.368 1_554 S
C1209 H1233 0.949 . S
H1210 C1214 0.949 . S
C1211 C1212 1.349 . S
C1211 C1213 1.327 . S
C1211 H1234 0.950 . S
C1212 C1211 1.349 . S
C1212 C1224 1.349 . S
C1213 C1211 1.327 . S
C1213 C1229 1.429 . S
C1213 H1235 0.950 . S
C1214 H1210 0.949 . S
C1214 C1222 1.574 . S
C1214 C1230 1.368 . S
H1215 C1223 0.950 . S
H1216 C1221 0.950 . S
H1217 C1222 0.949 . S
H1218 C1224 0.954 . S
H1219 C1225 0.950 . S
H1220 C1226 0.949 . S
C1221 H1216 0.950 . S
C1221 C1223 1.327 . S
C1221 C1227 1.429 . S
C1222 C1214 1.574 . S
C1222 H1217 0.949 . S
C1222 C1228 1.368 . S
C1223 C1207 1.349 . S
C1223 H1215 0.950 . S
C1223 C1221 1.327 . S
C1224 C1212 1.349 . S
C1224 H1218 0.954 . S
C1224 C1225 1.327 1_554 S
C1225 H1219 0.950 . S
C1225 C1224 1.327 1_556 S
C1225 C1229 1.429 1_556 S
C1226 C1209 1.574 . S
C1226 H1220 0.949 . S
C1226 C1230 1.368 1_554 S
C1227 C1208 1.429 . S
C1227 C1221 1.429 . S
C1227 C1228 1.523 . S
C1228 C1209 1.368 1_556 S
C1228 C1222 1.368 . S
C1228 C1227 1.523 . S
C1229 C1213 1.429 . S
C1229 C1225 1.429 1_554 S
C1229 C1230 1.523 1_554 S
C1230 C1214 1.368 . S
C1230 C1226 1.368 1_556 S
C1230 C1229 1.523 1_556 S
H1231 C1206 0.950 . S
H1232 C1208 0.950 . S
H1233 C1209 0.949 . S
H1234 C1211 0.950 . S
H1235 C1213 0.950 . S
C1236 C1237 1.349 . S
C1236 C1238 1.327 . S
C1236 H1261 0.950 . S
C1237 C1236 1.349 . S
C1237 C1253 1.349 . S
C1238 C1236 1.327 . S
C1238 C1257 1.429 . S
C1238 H1262 0.950 . S
C1239 C1256 1.574 . S
C1239 C1258 1.368 . S
C1239 H1263 0.949 . S
H1240 C1244 0.949 . S
C1241 C1242 1.349 . S
C1241 C1243 1.327 . S
C1241 H1264 0.950 . S
C1242 C1241 1.349 . S
C1242 C1254 1.349 . S
C1243 C1241 1.327 . S
C1243 C1259 1.429 . S
C1243 H1265 0.950 . S
C1244 H1240 0.949 . S
C1244 C1252 1.574 . S
C1244 C1260 1.368 . S
H1245 C1253 0.950 1_554 S
H1246 C1251 0.950 . S
H1247 C1252 0.949 . S
H1248 C1254 0.950 . S
H1249 C1255 0.950 . S
H1250 C1256 0.949 . S
C1251 H1246 0.950 . S
C1251 C1253 1.327 . S
C1251 C1257 1.429 . S
C1252 C1244 1.574 . S
C1252 H1247 0.949 . S
C1252 C1258 1.368 . S
C1253 C1237 1.349 . S
C1253 H1245 0.950 1_556 S
C1253 C1251 1.327 . S
C1254 C1242 1.349 . S
C1254 H1248 0.950 . S
C1254 C1255 1.327 . S
C1255 H1249 0.950 . S
C1255 C1254 1.327 . S
C1255 C1259 1.429 . S
C1256 C1239 1.574 . S
C1256 H1250 0.949 . S
C1256 C1260 1.368 . S
C1257 C1238 1.429 . S
C1257 C1251 1.429 . S
C1257 C1258 1.523 . S
C1258 C1239 1.368 . S
C1258 C1252 1.368 . S
C1258 C1257 1.523 . S
C1259 C1243 1.429 . S
C1259 C1255 1.429 . S
C1259 C1260 1.523 . S
C1260 C1244 1.368 . S
C1260 C1256 1.368 . S
C1260 C1259 1.523 . S
H1261 C1236 0.950 . S
H1262 C1238 0.950 . S
H1263 C1239 0.949 . S
H1264 C1241 0.950 . S
H1265 C1243 0.950 . S
C1266 C1267 1.349 . S
C1266 C1268 1.327 . S
C1266 H1291 0.950 . S
C1267 C1266 1.349 . S
C1267 C1283 1.349 . S
C1268 C1266 1.327 . S
C1268 C1287 1.429 . S
C1268 H1292 0.950 . S
C1269 C1286 1.574 . S
C1269 C1288 1.368 . S
C1269 H1293 0.949 . S
H1270 C1274 0.949 . S
C1271 C1272 1.349 . S
C1271 C1273 1.327 . S
C1271 H1294 0.950 . S
C1272 C1271 1.349 . S
C1272 C1284 1.349 . S
C1273 C1271 1.327 . S
C1273 C1289 1.429 . S
C1273 H1295 0.950 . S
C1274 H1270 0.949 . S
C1274 C1282 1.574 . S
C1274 C1290 1.368 . S
H1275 C1283 0.950 . S
H1276 C1281 0.950 . S
H1277 C1282 0.949 . S
H1278 C1284 0.950 . S
H1279 C1285 0.950 . S
H1280 C1286 0.949 . S
C1281 H1276 0.950 . S
C1281 C1283 1.327 . S
C1281 C1287 1.429 . S
C1282 C1274 1.574 . S
C1282 H1277 0.949 . S
C1282 C1288 1.368 . S
C1283 C1267 1.349 . S
C1283 H1275 0.950 . S
C1283 C1281 1.327 . S
C1284 C1272 1.349 . S
C1284 H1278 0.950 . S
C1284 C1285 1.327 . S
C1285 H1279 0.950 . S
C1285 C1284 1.327 . S
C1285 C1289 1.429 . S
C1286 C1269 1.574 . S
C1286 H1280 0.949 . S
C1286 C1290 1.368 . S
C1287 C1268 1.429 . S
C1287 C1281 1.429 . S
C1287 C1288 1.523 . S
C1288 C1269 1.368 . S
C1288 C1282 1.368 . S
C1288 C1287 1.523 . S
C1289 C1273 1.429 . S
C1289 C1285 1.429 . S
C1289 C1290 1.523 . S
C1290 C1274 1.368 . S
C1290 C1286 1.368 . S
C1290 C1289 1.523 . S
H1291 C1266 0.950 . S
H1292 C1268 0.950 . S
H1293 C1269 0.949 . S
H1294 C1271 0.950 . S
H1295 C1273 0.950 . S
C1296 C1297 1.349 1_556 S
C1296 C1298 1.327 . S
C1296 H1321 0.950 . S
C1297 C1296 1.349 1_554 S
C1297 C1313 1.349 . S
C1298 C1296 1.327 . S
C1298 C1317 1.429 1_556 S
C1298 H1322 0.950 . S
C1299 C1316 1.574 . S
C1299 C1318 1.368 . S
C1299 H1323 0.949 . S
H1300 C1304 0.949 . S
C1301 C1302 1.349 . S
C1301 C1303 1.327 . S
C1301 H1324 0.950 . S
C1302 C1301 1.349 . S
C1302 C1314 1.349 . S
C1303 C1301 1.327 . S
C1303 C1319 1.429 . S
C1303 H1325 0.950 . S
C1304 H1300 0.949 . S
C1304 C1312 1.574 . S
C1304 C1320 1.368 . S
H1305 C1313 0.950 . S
H1306 C1311 0.950 . S
H1307 C1312 0.949 1_556 S
H1308 C1314 0.950 . S
H1309 C1315 0.950 1_545 S
H1310 C1316 0.923 1_565 S
C1311 H1306 0.950 . S
C1311 C1313 1.327 . S
C1311 C1317 1.429 . S
C1312 C1304 1.574 . S
C1312 H1307 0.949 1_554 S
C1312 C1318 1.368 . S
C1313 C1297 1.349 . S
C1313 H1305 0.950 . S
C1313 C1311 1.327 . S
C1314 C1302 1.349 . S
C1314 H1308 0.950 . S
C1314 C1315 1.327 . S
C1315 H1309 0.950 1_565 S
C1315 C1314 1.327 . S
C1315 C1319 1.429 . S
C1316 C1299 1.574 . S
C1316 H1310 0.923 1_545 S
C1316 C1320 1.368 . S
C1317 C1298 1.429 1_554 S
C1317 C1311 1.429 . S
C1317 C1318 1.523 . S
C1318 C1299 1.368 . S
C1318 C1312 1.368 . S
C1318 C1317 1.523 . S
C1319 C1303 1.429 . S
C1319 C1315 1.429 . S
C1319 C1320 1.523 1_565 S
C1320 C1304 1.368 . S
C1320 C1316 1.368 . S
C1320 C1319 1.523 1_545 S
H1321 C1296 0.950 . S
H1322 C1298 0.950 . S
H1323 C1299 0.949 . S
H1324 C1301 0.950 . S
H1325 C1303 0.950 . S
C1326 C1327 1.349 . S
C1326 C1328 1.327 . S
C1326 H1351 0.950 . S
C1327 C1326 1.349 . S
C1327 C1343 1.349 . S
C1328 C1326 1.327 . S
C1328 C1347 1.429 . S
C1328 H1352 0.950 . S
C1329 C1346 1.574 . S
C1329 C1348 1.368 . S
C1329 H1353 0.949 . S
H1330 C1334 0.949 . S
C1331 C1332 1.349 . S
C1331 C1333 1.327 . S
C1331 H1354 0.950 . S
C1332 C1331 1.349 . S
C1332 C1344 1.349 . S
C1333 C1331 1.327 . S
C1333 C1349 1.429 . S
C1333 H1355 0.950 . S
C1334 H1330 0.949 . S
C1334 C1342 1.574 . S
C1334 C1350 1.368 . S
H1335 C1343 0.950 . S
H1336 C1341 0.950 . S
H1337 C1342 0.949 . S
H1338 C1344 0.950 . S
H1339 C1345 0.950 . S
H1340 C1346 0.949 . S
C1341 H1336 0.950 . S
C1341 C1343 1.327 . S
C1341 C1347 1.429 . S
C1342 C1334 1.574 . S
C1342 H1337 0.949 . S
C1342 C1348 1.368 . S
C1343 C1327 1.349 . S
C1343 H1335 0.950 . S
C1343 C1341 1.327 . S
C1344 C1332 1.349 . S
C1344 H1338 0.950 . S
C1344 C1345 1.327 . S
C1345 H1339 0.950 . S
C1345 C1344 1.327 . S
C1345 C1349 1.429 . S
C1346 C1329 1.574 . S
C1346 H1340 0.949 . S
C1346 C1350 1.368 . S
C1347 C1328 1.429 . S
C1347 C1341 1.429 . S
C1347 C1348 1.523 . S
C1348 C1329 1.368 . S
C1348 C1342 1.368 . S
C1348 C1347 1.523 . S
C1349 C1333 1.429 . S
C1349 C1345 1.429 . S
C1349 C1350 1.523 . S
C1350 C1334 1.368 . S
C1350 C1346 1.368 . S
C1350 C1349 1.523 . S
H1351 C1326 0.950 . S
H1352 C1328 0.950 . S
H1353 C1329 0.949 . S
H1354 C1331 0.950 . S
H1355 C1333 0.950 . S
C1356 C1357 1.349 . S
C1356 C1358 1.327 . S
C1356 H1381 0.950 . S
C1357 C1356 1.349 . S
C1357 C1373 1.349 . S
C1358 C1356 1.327 . S
C1358 C1377 1.429 . S
C1358 H1382 0.950 . S
C1359 C1376 1.574 . S
C1359 C1378 1.368 . S
C1359 H1383 0.949 . S
H1360 C1364 0.949 . S
C1361 C1362 1.349 . S
C1361 C1363 1.327 . S
C1361 H1384 0.950 . S
C1362 C1361 1.349 . S
C1362 C1374 1.349 . S
C1363 C1361 1.327 . S
C1363 C1379 1.429 . S
C1363 H1385 0.950 . S
C1364 H1360 0.949 . S
C1364 C1372 1.574 . S
C1364 C1380 1.368 . S
H1365 C1373 0.950 . S
H1366 C1371 0.950 . S
H1367 C1372 0.949 . S
H1368 C1374 0.950 . S
H1369 C1375 0.950 . S
H1370 C1376 0.949 . S
C1371 H1366 0.950 . S
C1371 C1373 1.327 . S
C1371 C1377 1.429 . S
C1372 C1364 1.574 . S
C1372 H1367 0.949 . S
C1372 C1378 1.368 . S
C1373 C1357 1.349 . S
C1373 H1365 0.950 . S
C1373 C1371 1.327 . S
C1374 C1362 1.349 . S
C1374 H1368 0.950 . S
C1374 C1375 1.327 . S
C1375 H1369 0.950 . S
C1375 C1374 1.327 . S
C1375 C1379 1.429 . S
C1376 C1359 1.574 . S
C1376 H1370 0.949 . S
C1376 C1380 1.368 . S
C1377 C1358 1.429 . S
C1377 C1371 1.429 . S
C1377 C1378 1.523 . S
C1378 C1359 1.368 . S
C1378 C1372 1.368 . S
C1378 C1377 1.523 . S
C1379 C1363 1.429 . S
C1379 C1375 1.429 . S
C1379 C1380 1.523 . S
C1380 C1364 1.368 . S
C1380 C1376 1.368 . S
C1380 C1379 1.523 . S
H1381 C1356 0.950 . S
H1382 C1358 0.950 . S
H1383 C1359 0.949 . S
H1384 C1361 0.950 . S
H1385 C1363 0.950 . S
C1386 C1387 1.349 . S
C1386 C1388 1.327 . S
C1386 H1411 0.950 . S
C1387 C1386 1.349 . S
C1387 C1403 1.349 . S
C1388 C1386 1.327 . S
C1388 C1407 1.429 . S
C1388 H1412 0.950 . S
C1389 C1406 1.574 . S
C1389 C1408 1.368 . S
C1389 H1413 0.949 . S
H1390 C1394 0.949 . S
C1391 C1392 1.349 . S
C1391 C1393 1.327 . S
C1391 H1414 0.950 . S
C1392 C1391 1.349 . S
C1392 C1404 1.349 . S
C1393 C1391 1.327 . S
C1393 C1409 1.429 . S
C1393 H1415 0.950 . S
C1394 H1390 0.949 . S
C1394 C1402 1.574 . S
C1394 C1410 1.368 . S
H1395 C1403 0.950 . S
H1396 C1401 0.950 . S
H1397 C1402 0.949 . S
H1398 C1404 0.950 . S
H1399 C1405 0.950 . S
H1400 C1406 0.949 . S
C1401 H1396 0.950 . S
C1401 C1403 1.327 . S
C1401 C1407 1.429 . S
C1402 C1394 1.574 . S
C1402 H1397 0.949 . S
C1402 C1408 1.368 . S
C1403 C1387 1.349 . S
C1403 H1395 0.950 . S
C1403 C1401 1.327 . S
C1404 C1392 1.349 . S
C1404 H1398 0.950 . S
C1404 C1405 1.327 . S
C1405 H1399 0.950 . S
C1405 C1404 1.327 . S
C1405 C1409 1.429 . S
C1406 C1389 1.574 . S
C1406 H1400 0.949 . S
C1406 C1410 1.368 . S
C1407 C1388 1.429 . S
C1407 C1401 1.429 . S
C1407 C1408 1.523 . S
C1408 C1389 1.368 . S
C1408 C1402 1.368 . S
C1408 C1407 1.523 . S
C1409 C1393 1.429 . S
C1409 C1405 1.429 . S
C1409 C1410 1.523 . S
C1410 C1394 1.368 . S
C1410 C1406 1.368 . S
C1410 C1409 1.523 . S
H1411 C1386 0.950 . S
H1412 C1388 0.950 . S
H1413 C1389 0.949 . S
H1414 C1391 0.950 . S
H1415 C1393 0.950 . S
C1416 C1417 1.349 . S
C1416 C1418 1.327 . S
C1416 H1441 0.950 . S
C1417 C1416 1.349 . S
C1417 C1433 1.349 . S
C1418 C1416 1.327 . S
C1418 C1437 1.429 . S
C1418 H1442 0.950 . S
C1419 C1436 1.574 . S
C1419 C1438 1.368 . S
C1419 H1443 0.940 1_565 S
H1420 C1424 0.949 . S
C1421 C1422 1.349 . S
C1421 C1423 1.327 . S
C1421 H1444 0.950 . S
C1422 C1421 1.349 . S
C1422 C1434 1.349 . S
C1423 C1421 1.327 . S
C1423 C1439 1.429 . S
C1423 H1445 0.950 . S
C1424 H1420 0.949 . S
C1424 C1432 1.574 . S
C1424 C1440 1.368 . S
H1425 C1433 0.950 . S
H1426 C1431 0.950 . S
H1427 C1432 0.949 . S
H1428 C1434 0.950 . S
H1429 C1435 0.950 . S
H1430 C1436 0.949 . S
C1431 H1426 0.950 . S
C1431 C1433 1.327 . S
C1431 C1437 1.429 . S
C1432 C1424 1.574 . S
C1432 H1427 0.949 . S
C1432 C1438 1.368 . S
C1433 C1417 1.349 . S
C1433 H1425 0.950 . S
C1433 C1431 1.327 . S
C1434 C1422 1.349 . S
C1434 H1428 0.950 . S
C1434 C1435 1.327 . S
C1435 H1429 0.950 . S
C1435 C1434 1.327 . S
C1435 C1439 1.429 . S
C1436 C1419 1.574 . S
C1436 H1430 0.949 . S
C1436 C1440 1.368 . S
C1437 C1418 1.429 . S
C1437 C1431 1.429 . S
C1437 C1438 1.523 1_545 S
C1438 C1419 1.368 . S
C1438 C1432 1.368 . S
C1438 C1437 1.523 1_565 S
C1439 C1423 1.429 . S
C1439 C1435 1.429 . S
C1439 C1440 1.523 . S
C1440 C1424 1.368 . S
C1440 C1436 1.368 . S
C1440 C1439 1.523 . S
H1441 C1416 0.950 . S
H1442 C1418 0.950 . S
H1443 C1419 0.940 1_545 S
H1444 C1421 0.950 . S
H1445 C1423 0.950 . S
C1446 C1447 1.349 1_455 S
C1446 C1448 1.327 . S
C1446 H1471 0.950 . S
C1447 C1446 1.349 1_655 S
C1447 C1463 1.349 . S
C1448 C1446 1.327 . S
C1448 C1467 1.429 . S
C1448 H1472 0.950 . S
C1449 C1466 1.574 . S
C1449 C1468 1.368 . S
C1449 H1473 0.949 . S
H1450 C1454 0.949 . S
C1451 C1452 1.349 . S
C1451 C1453 1.327 . S
C1451 H1474 0.950 . S
C1452 C1451 1.349 . S
C1452 C1464 1.349 . S
C1453 C1451 1.327 . S
C1453 C1469 1.429 . S
C1453 H1475 0.950 . S
C1454 H1450 0.949 . S
C1454 C1462 1.574 . S
C1454 C1470 1.368 . S
H1455 C1463 0.950 . S
H1456 C1461 0.950 . S
H1457 C1462 0.949 . S
H1458 C1464 0.950 . S
H1459 C1465 0.950 . S
H1460 C1466 0.949 . S
C1461 H1456 0.950 . S
C1461 C1463 1.327 . S
C1461 C1467 1.429 1_655 S
C1462 C1454 1.574 . S
C1462 H1457 0.949 . S
C1462 C1468 1.368 . S
C1463 C1447 1.349 . S
C1463 H1455 0.950 . S
C1463 C1461 1.327 . S
C1464 C1452 1.349 . S
C1464 H1458 0.950 . S
C1464 C1465 1.327 . S
C1465 H1459 0.950 . S
C1465 C1464 1.327 . S
C1465 C1469 1.429 . S
C1466 C1449 1.574 . S
C1466 H1460 0.949 . S
C1466 C1470 1.368 . S
C1467 C1448 1.429 . S
C1467 C1461 1.429 1_455 S
C1467 C1468 1.523 . S
C1468 C1449 1.368 . S
C1468 C1462 1.368 . S
C1468 C1467 1.523 . S
C1469 C1453 1.429 . S
C1469 C1465 1.429 . S
C1469 C1470 1.523 . S
C1470 C1454 1.368 . S
C1470 C1466 1.368 . S
C1470 C1469 1.523 . S
H1471 C1446 0.950 . S
H1472 C1448 0.950 . S
H1473 C1449 0.949 . S
H1474 C1451 0.950 . S
H1475 C1453 0.950 . S
C1476 C1477 1.349 . S
C1476 C1478 1.327 . S
C1476 H1501 0.950 . S
C1477 C1476 1.349 . S
C1477 C1493 1.349 . S
C1478 C1476 1.327 . S
C1478 C1497 1.429 . S
C1478 H1502 0.950 . S
C1479 C1496 1.574 . S
C1479 C1498 1.368 . S
C1479 H1503 0.949 . S
H1480 C1484 0.949 . S
C1481 C1482 1.349 . S
C1481 C1483 1.327 . S
C1481 H1504 0.950 . S
C1482 C1481 1.349 . S
C1482 C1494 1.349 . S
C1483 C1481 1.327 . S
C1483 C1499 1.429 . S
C1483 H1505 0.950 . S
C1484 H1480 0.949 . S
C1484 C1492 1.574 . S
C1484 C1500 1.368 . S
H1485 C1493 0.950 . S
H1486 C1491 0.950 . S
H1487 C1492 0.949 . S
H1488 C1494 0.950 . S
H1489 C1495 0.950 . S
H1490 C1496 0.949 . S
C1491 H1486 0.950 . S
C1491 C1493 1.327 . S
C1491 C1497 1.429 . S
C1492 C1484 1.574 . S
C1492 H1487 0.949 . S
C1492 C1498 1.368 . S
C1493 C1477 1.349 . S
C1493 H1485 0.950 . S
C1493 C1491 1.327 . S
C1494 C1482 1.349 . S
C1494 H1488 0.950 . S
C1494 C1495 1.327 . S
C1495 H1489 0.950 . S
C1495 C1494 1.327 . S
C1495 C1499 1.429 . S
C1496 C1479 1.574 . S
C1496 H1490 0.949 . S
C1496 C1500 1.368 . S
C1497 C1478 1.429 . S
C1497 C1491 1.429 . S
C1497 C1498 1.523 . S
C1498 C1479 1.368 . S
C1498 C1492 1.368 . S
C1498 C1497 1.523 . S
C1499 C1483 1.429 . S
C1499 C1495 1.429 . S
C1499 C1500 1.523 . S
C1500 C1484 1.368 . S
C1500 C1496 1.368 . S
C1500 C1499 1.523 . S
H1501 C1476 0.950 . S
H1502 C1478 0.950 . S
H1503 C1479 0.949 . S
H1504 C1481 0.950 . S
H1505 C1483 0.950 . S
C1506 C1507 1.349 . S
C1506 C1508 1.327 . S
C1506 H1531 0.950 . S
C1507 C1506 1.349 . S
C1507 C1523 1.349 . S
C1508 C1506 1.327 . S
C1508 C1527 1.429 1_565 S
C1508 H1532 0.950 . S
C1509 C1526 1.574 . S
C1509 C1528 1.368 . S
C1509 H1533 0.949 . S
H1510 C1514 0.949 . S
C1511 C1512 1.349 . S
C1511 C1513 1.327 . S
C1511 H1534 0.950 . S
C1512 C1511 1.349 . S
C1512 C1524 1.349 . S
C1513 C1511 1.327 . S
C1513 C1529 1.429 . S
C1513 H1535 0.950 . S
C1514 H1510 0.949 . S
C1514 C1522 1.574 . S
C1514 C1530 1.368 . S
H1515 C1523 0.950 . S
H1516 C1521 0.950 1_545 S
H1517 C1522 0.949 . S
H1518 C1524 0.950 . S
H1519 C1525 0.950 . S
H1520 C1526 0.949 . S
C1521 H1516 0.950 1_565 S
C1521 C1523 1.327 . S
C1521 C1527 1.429 1_565 S
C1522 C1514 1.574 . S
C1522 H1517 0.949 . S
C1522 C1528 1.368 . S
C1523 C1507 1.349 . S
C1523 H1515 0.950 . S
C1523 C1521 1.327 . S
C1524 C1512 1.349 . S
C1524 H1518 0.950 . S
C1524 C1525 1.327 . S
C1525 H1519 0.950 . S
C1525 C1524 1.327 . S
C1525 C1529 1.429 . S
C1526 C1509 1.574 . S
C1526 H1520 0.949 . S
C1526 C1530 1.368 . S
C1527 C1508 1.429 1_545 S
C1527 C1521 1.429 1_545 S
C1527 C1528 1.523 . S
C1528 C1509 1.368 . S
C1528 C1522 1.368 . S
C1528 C1527 1.523 . S
C1529 C1513 1.429 . S
C1529 C1525 1.429 . S
C1529 C1530 1.523 . S
C1530 C1514 1.368 . S
C1530 C1526 1.368 . S
C1530 C1529 1.523 . S
H1531 C1506 0.950 . S
H1532 C1508 0.950 . S
H1533 C1509 0.949 . S
H1534 C1511 0.950 . S
H1535 C1513 0.950 . S
C1536 C1537 1.349 . S
C1536 C1538 1.327 . S
C1536 H1561 0.950 . S
C1537 C1536 1.349 . S
C1537 C1553 1.349 . S
C1538 C1536 1.327 . S
C1538 C1557 1.429 . S
C1538 H1562 0.950 . S
C1539 C1556 1.574 1_655 S
C1539 C1558 1.368 . S
C1539 H1563 0.949 . S
H1540 C1544 0.949 . S
C1541 C1542 1.349 . S
C1541 C1543 1.327 . S
C1541 H1564 0.950 . S
C1542 C1541 1.349 . S
C1542 C1554 1.349 . S
C1543 C1541 1.327 . S
C1543 C1559 1.429 . S
C1543 H1565 0.950 . S
C1544 H1540 0.949 . S
C1544 C1552 1.574 . S
C1544 C1560 1.368 . S
H1545 C1553 0.950 . S
H1546 C1551 0.950 . S
H1547 C1552 0.949 . S
H1548 C1554 0.950 . S
H1549 C1555 0.950 1_655 S
H1550 C1556 0.949 . S
C1551 H1546 0.950 . S
C1551 C1553 1.327 . S
C1551 C1557 1.429 . S
C1552 C1544 1.574 . S
C1552 H1547 0.949 . S
C1552 C1558 1.368 . S
C1553 C1537 1.349 . S
C1553 H1545 0.950 . S
C1553 C1551 1.327 . S
C1554 C1542 1.349 . S
C1554 H1548 0.950 . S
C1554 C1555 1.327 . S
C1555 H1549 0.950 1_455 S
C1555 C1554 1.327 . S
C1555 C1559 1.429 . S
C1556 C1539 1.574 1_455 S
C1556 H1550 0.949 . S
C1556 C1560 1.368 1_455 S
C1557 C1538 1.429 . S
C1557 C1551 1.429 . S
C1557 C1558 1.523 . S
C1558 C1539 1.368 . S
C1558 C1552 1.368 . S
C1558 C1557 1.523 . S
C1559 C1543 1.429 . S
C1559 C1555 1.429 . S
C1559 C1560 1.523 1_455 S
C1560 C1544 1.368 . S
C1560 C1556 1.368 1_655 S
C1560 C1559 1.523 1_655 S
H1561 C1536 0.950 . S
H1562 C1538 0.950 . S
H1563 C1539 0.949 . S
H1564 C1541 0.950 . S
H1565 C1543 0.950 . S
C757 C75 3.171 1_556 S
C762 C66 3.171 . S
C787 C159 3.231 . S
C792 C150 3.226 . S
C817 C243 3.210 . S
C822 C234 3.210 . S
C847 C318 3.140 . S
C852 C327 3.140 . S
C877 C403 3.287 . S
C882 C392 3.287 1_556 S
C907 C486 3.144 . S
C912 C495 3.144 1_556 S
C937 C576 2.483 . S
C942 C567 2.483 . S
C967 C651 2.280 . S
C972 C660 2.280 1_556 S
C997 C744 1.998 . S
C1002 C735 1.998 . S
C1027 C487 2.066 . S
C1032 C72 1.773 . S
C1057 C156 1.590 . S
C1062 C319 1.896 . S
C1087 C240 1.312 . S
C1092 C399 1.399 . S
C1117 C235 1.872 . S
C1122 C560 2.061 . S
C1147 C654 1.644 . S
C1152 C67 1.461 . S
C1177 C728 1.720 . S
C1182 C151 1.586 . S
C1207 C747 0.883 . S
C1212 C63 0.867 . S
C1237 C147 1.250 1_556 S
C1242 C579 1.284 . S
C1267 C655 1.363 . S
C1272 C231 1.353 . S
C1297 C224 1.977 . S
C1302 C315 1.736 . S
C1327 C402 2.571 . S
C1332 C56 2.503 . S
C1357 C140 2.166 . S
C1362 C483 1.940 . S
C1387 C738 1.342 . S
C1392 C324 1.313 . S
C1417 C570 1.519 . S
C1422 C411 1.449 . S
C1447 C644 1.576 . S
C1452 C492 1.625 . S
C1477 C571 1.897 . S
C1482 C476 1.845 . S
C1507 C308 1.160 . S
C1512 C663 1.251 . S
C1537 C739 1.291 . S
C1542 C408 1.312 . S
