# Generated by pormake.
# Topology ecf, (8)-cn, num edge types: 1
# Building blocks:
#     Node 0, Type 0, BuildingBlock: TAGTUT_clean_sbu_3, # of connection points: 8
#     Node 1, Type 0, BuildingBlock: TAGTUT_clean_sbu_3, # of connection points: 8
#     Node 2, Type 0, BuildingBlock: TAGTUT_clean_sbu_3, # of connection points: 8
#     Node 3, Type 0, BuildingBlock: TAGTUT_clean_sbu_3, # of connection points: 8
#     Node 4, Type 0, BuildingBlock: TAGTUT_clean_sbu_3, # of connection points: 8
#     Node 5, Type 0, BuildingBlock: TAGTUT_clean_sbu_3, # of connection points: 8
#     Edge 6, Type (0, 0), BuildingBlock: OJICUG_clean_linker_0, # of connection points: 2
#     Edge 7, Type (0, 0), BuildingBlock: OJICUG_clean_linker_0, # of connection points: 2
#     Edge 8, Type (0, 0), BuildingBlock: OJICUG_clean_linker_0, # of connection points: 2
#     Edge 9, Type (0, 0), BuildingBlock: OJICUG_clean_linker_0, # of connection points: 2
#     Edge 10, Type (0, 0), BuildingBlock: OJICUG_clean_linker_0, # of connection points: 2
#     Edge 11, Type (0, 0), BuildingBlock: OJICUG_clean_linker_0, # of connection points: 2
#     Edge 12, Type (0, 0), BuildingBlock: OJICUG_clean_linker_0, # of connection points: 2
#     Edge 13, Type (0, 0), BuildingBlock: OJICUG_clean_linker_0, # of connection points: 2
#     Edge 14, Type (0, 0), BuildingBlock: OJICUG_clean_linker_0, # of connection points: 2
#     Edge 15, Type (0, 0), BuildingBlock: OJICUG_clean_linker_0, # of connection points: 2
#     Edge 16, Type (0, 0), BuildingBlock: OJICUG_clean_linker_0, # of connection points: 2
#     Edge 17, Type (0, 0), BuildingBlock: OJICUG_clean_linker_0, # of connection points: 2
#     Edge 18, Type (0, 0), BuildingBlock: OJICUG_clean_linker_0, # of connection points: 2
#     Edge 19, Type (0, 0), BuildingBlock: OJICUG_clean_linker_0, # of connection points: 2
#     Edge 20, Type (0, 0), BuildingBlock: OJICUG_clean_linker_0, # of connection points: 2
#     Edge 21, Type (0, 0), BuildingBlock: OJICUG_clean_linker_0, # of connection points: 2
#     Edge 22, Type (0, 0), BuildingBlock: OJICUG_clean_linker_0, # of connection points: 2
#     Edge 23, Type (0, 0), BuildingBlock: OJICUG_clean_linker_0, # of connection points: 2
#     Edge 24, Type (0, 0), BuildingBlock: OJICUG_clean_linker_0, # of connection points: 2
#     Edge 25, Type (0, 0), BuildingBlock: OJICUG_clean_linker_0, # of connection points: 2
#     Edge 26, Type (0, 0), BuildingBlock: OJICUG_clean_linker_0, # of connection points: 2
#     Edge 27, Type (0, 0), BuildingBlock: OJICUG_clean_linker_0, # of connection points: 2
#     Edge 28, Type (0, 0), BuildingBlock: OJICUG_clean_linker_0, # of connection points: 2
#     Edge 29, Type (0, 0), BuildingBlock: OJICUG_clean_linker_0, # of connection points: 2
# Relax obj value: 0.257
# Max RMSD: 0.185
# Mean RMSD: 0.185
data_MOF--net-ecf--node1-TAGTUT_clean_sbu_3--edge1-OJICUG_clean_linker_0
_symmetry_space_group_name_H-M    P1
_symmetry_Int_Tables_number       1
_symmetry_cell_setting            triclinic
loop_
_symmetry_equiv_pos_as_xyz
'x, y, z'
_cell_length_a     26.200128
_cell_length_b     26.191816
_cell_length_c     20.174901
_cell_angle_alpha  89.989114
_cell_angle_beta   89.991095
_cell_angle_gamma 119.973
loop_
_atom_site_label
_atom_site_type_symbol
_atom_site_fract_x
_atom_site_fract_y
_atom_site_fract_z
_atom_type_partial_charge
C0 C 0.1129 0.30759 0.12959 0.0
C1 C 0.96858 0.20565 0.33219 0.0
C2 C 0.12147 0.33387 0.44073 0.0
Mg3 Mg 0.26663 0.38988 0.15276 0.0
Mg4 Mg 0.34267 0.37433 0.27844 0.0
O5 O 0.27151 0.36559 0.24533 0.0
Mg6 Mg 0.18981 0.3083 0.26398 0.0
O7 O 0.10414 0.25834 0.282 0.0
Mg8 Mg 0.08438 0.32514 0.28316 0.0
Mg9 Mg 0.0931 0.22534 0.36609 0.0
C10 C 0.2709 0.29531 0.39976 0.0
O11 O 0.19717 0.22543 0.25652 0.0
O12 O 0.35965 0.47351 0.17296 0.0
O13 O 0.13982 0.17966 0.34559 0.0
O14 O 0.31058 0.33527 0.12331 0.0
O15 O 0.39706 0.46697 0.27088 0.0
O16 O 0.36717 0.33373 0.20654 0.0
O17 O 0.17837 0.39049 0.27233 0.0
O18 O 0.22852 0.44406 0.18583 0.0
C19 C 0.19266 0.43392 0.23293 0.0
C20 C 0.39739 0.49668 0.22047 0.0
O21 O 0.22314 0.29465 0.37869 0.0
O22 O -0.00985 0.25296 0.29795 0.0
O23 O 0.31935 0.32399 0.36814 0.0
O24 O 0.09703 0.34363 0.39186 0.0
O25 O 3e-05 0.18868 0.36363 0.0
O26 O 0.13137 0.29124 0.44029 0.0
O27 O 0.16231 0.30871 0.14663 0.0
O28 O 0.07994 0.31174 0.17342 0.0
C29 C 0.34722 0.32135 0.14801 0.0
C30 C 0.17692 0.1847 0.30086 0.0
C31 C 0.74366 0.20047 0.73296 0.0
C32 C 0.88564 0.4052 0.72055 0.0
C33 C 0.01068 0.35488 0.64802 0.0
Mg34 Mg 0.74399 0.09218 0.78337 0.0
Mg35 Mg 0.85228 0.10074 0.86636 0.0
O36 O 0.83043 0.11171 0.7822 0.0
Mg37 Mg 0.86628 0.19742 0.76403 0.0
O38 O 0.89082 0.27918 0.74532 0.0
Mg39 Mg 0.86165 0.2744 0.65279 0.0
Mg40 Mg 0.95316 0.35037 0.77846 0.0
C41 C 0.97674 0.1842 0.80103 0.0
O42 O 0.91333 0.23079 0.87872 0.0
O43 O 0.72175 -0.00213 0.79833 0.0
O44 O -0.01982 0.32701 0.8681 0.0
O45 O 0.7381 0.10496 0.89203 0.0
O46 O 0.79578 0.00765 0.86406 0.0
O47 O 0.82477 0.13926 0.94045 0.0
O48 O 0.83838 0.17003 0.64648 0.0
O49 O 0.75316 0.08758 0.67376 0.0
C50 C 0.7902 0.12038 0.62982 0.0
C51 C 0.74739 0.97623 0.83262 0.0
O52 O 0.95637 0.20451 0.75662 0.0
O53 O 0.87112 0.36749 0.67302 0.0
O54 O 0.94464 0.14721 0.84582 0.0
O55 O 0.96015 0.31824 0.62335 0.0
O56 O 0.91493 0.40481 0.77099 0.0
O57 O 0.01824 0.37488 0.70654 0.0
O58 O 0.77286 0.18627 0.77235 0.0
O59 O 0.76934 0.23634 0.68584 0.0
C60 C 0.77228 0.12941 0.9409 0.0
C61 C 0.96045 0.27855 0.89973 0.0
C62 C 0.65456 0.79768 0.12997 0.0
C63 C 0.75645 0.75545 0.33288 0.0
C64 C 0.62783 0.7799 0.44108 0.0
Mg65 Mg 0.5722 0.86914 0.15296 0.0
Mg66 Mg 0.58753 0.9607 0.2786 0.0
O67 O 0.59633 0.89826 0.24556 0.0
Mg68 Mg 0.65363 0.87385 0.2643 0.0
O69 O 0.70363 0.83817 0.28244 0.0
Mg70 Mg 0.63695 0.75162 0.28356 0.0
Mg71 Mg 0.7364 0.86013 0.36661 0.0
C72 C 0.66647 0.96796 0.39999 0.0
O73 O 0.73643 0.96405 0.25684 0.0
O74 O 0.48853 0.87855 0.173 0.0
O75 O 0.78207 0.95253 0.34606 0.0
O76 O 0.62681 0.96768 0.12351 0.0
O77 O 0.4949 0.92241 0.27094 0.0
O78 O 0.62815 0.02579 0.20667 0.0
O79 O 0.5715 0.7802 0.27259 0.0
O80 O 0.51805 0.77689 0.18604 0.0
C81 C 0.52815 0.75112 0.23313 0.0
C82 C 0.46528 0.89305 0.22051 0.0
O83 O 0.66713 0.92083 0.37897 0.0
O84 O 0.70924 0.7297 0.29853 0.0
O85 O 0.6378 -0.01226 0.36833 0.0
O86 O 0.61826 0.74573 0.39223 0.0
O87 O 0.77322 0.80382 0.36434 0.0
O88 O 0.67036 0.83245 0.44067 0.0
O89 O 0.65337 0.84595 0.147 0.0
O90 O 0.65049 0.76061 0.17381 0.0
C91 C 0.64065 0.01823 0.14818 0.0
C92 C 0.77708 0.98454 0.30122 0.0
C93 C 0.76176 0.5358 0.73297 0.0
C94 C 0.55692 0.47285 0.72075 0.0
C95 C 0.60693 0.64816 0.64834 0.0
Mg96 Mg 0.86989 0.64447 0.78332 0.0
Mg97 Mg 0.86116 0.74421 0.86624 0.0
O98 O 0.85018 0.71129 0.78213 0.0
Mg99 Mg 0.76452 0.66134 0.76407 0.0
O100 O 0.68282 0.60406 0.74549 0.0
Mg101 Mg 0.68762 0.57972 0.65293 0.0
Mg102 Mg 0.61161 0.59516 0.77874 0.0
C103 C 0.77738 0.78491 0.80103 0.0
O104 O 0.73119 0.67494 0.87881 0.0
O105 O 0.96412 0.7166 0.7982 0.0
O106 O 0.63494 0.64549 0.86841 0.0
O107 O 0.85714 0.62582 0.89199 0.0
O108 O 0.95423 0.7809 0.86381 0.0
O109 O 0.82287 0.67826 0.94045 0.0
O110 O 0.7919 0.66088 0.6465 0.0
O111 O 0.87443 0.6582 0.67373 0.0
C112 C 0.8416 0.66241 0.6298 0.0
C113 C -0.0143 0.76392 0.8324 0.0
O114 O 0.75716 0.74423 0.75666 0.0
O115 O 0.59464 0.49608 0.67322 0.0
O116 O 0.81444 0.78991 0.84576 0.0
O117 O 0.6436 0.63429 0.62359 0.0
O118 O 0.55726 0.50249 0.77122 0.0
O119 O 0.587 0.63573 0.70689 0.0
O120 O 0.77589 0.57918 0.77236 0.0
O121 O 0.72586 0.52558 0.6859 0.0
C122 C 0.83274 0.63561 0.9409 0.0
C123 C 0.68341 0.67423 0.89995 0.0
C124 C 0.1645 0.84929 0.12988 0.0
C125 C 0.20715 -0.00644 0.3326 0.0
C126 C 0.18232 0.84041 0.44101 0.0
Mg127 Mg 0.09292 0.69553 0.15293 0.0
Mg128 Mg 0.00134 0.61942 0.2786 0.0
O129 O 0.06376 0.6906 0.24552 0.0
Mg130 Mg 0.08829 0.77234 0.26428 0.0
O131 O 0.12413 0.85804 0.28238 0.0
Mg132 Mg 0.21061 0.87764 0.28343 0.0
Mg133 Mg 0.10229 0.86904 0.36654 0.0
C134 C -0.0059 0.69117 0.39996 0.0
O135 O -0.0018 0.76525 0.25693 0.0
O136 O 0.08341 0.6024 0.17299 0.0
O137 O 0.00992 0.82254 0.34609 0.0
O138 O -0.00557 0.65177 0.12351 0.0
O139 O 0.03956 0.56497 0.27097 0.0
O140 O 0.93631 0.59505 0.20669 0.0
O141 O 0.18182 0.78357 0.27255 0.0
O142 O 0.18516 0.73346 0.18597 0.0
C143 C 0.21089 0.76925 0.2331 0.0
C144 C 0.06888 0.56464 0.2205 0.0
O145 O 0.04126 0.73892 0.37897 0.0
O146 O 0.23279 0.97193 0.29826 0.0
O147 O 0.97432 0.64274 0.3683 0.0
O148 O 0.21649 0.8649 0.39212 0.0
O149 O 0.15879 0.96212 0.36412 0.0
O150 O 0.12982 0.83052 0.44061 0.0
O151 O 0.1162 0.79992 0.14695 0.0
O152 O 0.20162 0.8822 0.17368 0.0
C153 C 0.94389 0.61511 0.14819 0.0
C154 C -0.02217 0.78554 0.30134 0.0
C155 C 0.42623 0.2184 0.73285 0.0
C156 C 0.4893 0.07657 0.7206 0.0
C157 C 0.31407 0.95129 0.64818 0.0
Mg158 Mg 0.3175 0.21786 0.78325 0.0
Mg159 Mg 0.21803 0.10943 0.86637 0.0
O160 O 0.25078 0.13135 0.78216 0.0
Mg161 Mg 0.30077 0.09564 0.76402 0.0
O162 O 0.35808 0.07122 0.74537 0.0
Mg163 Mg 0.3824 0.10038 0.6528 0.0
Mg164 Mg 0.367 0.00889 0.77857 0.0
C165 C 0.1773 -0.01502 0.80112 0.0
O166 O 0.28722 0.04871 0.87875 0.0
O167 O 0.24528 0.23989 0.79823 0.0
O168 O 0.31665 0.98186 0.86826 0.0
O169 O 0.33622 0.22382 0.89189 0.0
O170 O 0.18123 0.16577 0.86406 0.0
O171 O 0.28407 0.13713 0.94042 0.0
O172 O 0.3012 0.12349 0.64646 0.0
O173 O 0.30373 0.20864 0.67367 0.0
C174 C 0.2996 0.17162 0.62975 0.0
C175 C 0.19804 0.21415 0.83257 0.0
O176 O 0.21794 0.00543 0.75668 0.0
O177 O 0.46607 0.09105 0.67306 0.0
O178 O 0.17234 0.01703 0.84591 0.0
O179 O 0.32791 0.00183 0.62345 0.0
O180 O 0.45965 0.04723 0.77106 0.0
O181 O 0.3265 0.94375 0.70672 0.0
O182 O 0.38285 0.18916 0.77225 0.0
O183 O 0.43647 0.19274 0.68576 0.0
C184 C 0.32661 0.18967 0.94078 0.0
C185 C 0.28792 0.00161 0.89985 0.0
C186 C 0.16011 0.49574 0.17238 0.0
C187 C 0.15818 0.4647 0.23028 0.0
H188 H 0.13253 0.54995 0.12318 0.0
C189 C 0.12238 0.4627 0.28305 0.0
H190 H 0.18633 0.4975 0.12999 0.0
C191 C 0.09076 0.49273 0.27875 0.0
C192 C 0.09444 0.52536 0.22151 0.0
H193 H 0.1199 0.43926 0.32813 0.0
H194 H 0.06506 0.49194 0.32119 0.0
C195 C 0.12865 0.52551 0.16802 0.0
C196 C 0.58306 0.0987 0.77898 0.0
C197 C 0.55411 0.10217 0.72164 0.0
H198 H 0.66563 0.12804 0.8284 0.0
C199 C 0.58815 0.1362 0.66805 0.0
H200 H 0.55817 0.07315 0.82151 0.0
C201 C 0.64934 0.16767 0.67237 0.0
C202 C 0.67845 0.16595 0.73035 0.0
H203 H 0.56758 0.13991 0.62313 0.0
H204 H 0.67377 0.19373 0.62988 0.0
C205 C 0.64468 0.13034 0.78325 0.0
C206 C 0.46933 0.59036 0.27875 0.0
C207 C 0.43665 0.56149 0.22154 0.0
H208 H 0.52288 0.67288 0.32816 0.0
C209 C 0.43646 0.59564 0.16815 0.0
H210 H 0.47016 0.56539 0.32112 0.0
C211 C 0.46625 0.65685 0.17257 0.0
C212 C 0.49736 0.68587 0.23044 0.0
H213 H 0.41198 0.57515 0.12333 0.0
H214 H 0.46445 0.68135 0.13024 0.0
C215 C 0.49939 0.652 0.28312 0.0
C216 C 0.82613 0.44459 0.66798 0.0
C217 C 0.86011 0.4445 0.72158 0.0
H218 H 0.76864 0.47277 0.62984 0.0
C219 C 0.86356 0.47692 0.77892 0.0
H220 H 0.82245 0.42034 0.62306 0.0
C221 C 0.83193 0.50694 0.78321 0.0
C222 C 0.79634 0.50515 0.73032 0.0
H223 H 0.88907 0.47753 0.82145 0.0
H224 H 0.8342 0.53018 0.82836 0.0
C225 C 0.79467 0.47436 0.67232 0.0
C226 C 0.30992 0.8395 0.28315 0.0
C227 C 0.27612 0.80365 0.23044 0.0
H228 H 0.39643 0.89688 0.3212 0.0
C229 C 0.30521 0.80165 0.17256 0.0
H230 H 0.28898 0.84202 0.32822 0.0
C231 C 0.3664 0.83312 0.16815 0.0
C232 C 0.40047 0.86742 0.22157 0.0
H233 H 0.28077 0.77538 0.13022 0.0
H234 H 0.38696 0.8292 0.12333 0.0
C235 C 0.37153 0.87113 0.2788 0.0
C236 C 0.4551 0.31739 0.78322 0.0
C237 C 0.45691 0.28364 0.73028 0.0
H238 H 0.48453 0.4039 0.82159 0.0
C239 C 0.48777 0.3128 0.67232 0.0
H240 H 0.43182 0.29639 0.82834 0.0
C241 C 0.51758 0.37402 0.66807 0.0
C242 C 0.51764 0.40804 0.72172 0.0
H243 H 0.48938 0.28839 0.62981 0.0
H244 H 0.54188 0.39462 0.62318 0.0
C245 C 0.48516 0.37904 0.77902 0.0
C246 C 0.21689 0.12397 0.25298 0.0
C247 C 0.2019 0.1463 0.30796 0.0
H248 H 0.2335 0.05632 0.21864 0.0
C249 C 0.206 0.12775 0.37202 0.0
H250 H 0.21322 0.13737 0.20328 0.0
C251 C 0.21931 0.08353 0.38103 0.0
C252 C 0.22598 0.05546 0.32581 0.0
H253 H 0.19402 0.1438 0.41516 0.0
H254 H 0.21655 0.06613 0.43052 0.0
C255 C 0.22916 0.07835 0.26193 0.0
C256 C 0.07737 0.224 0.75312 0.0
C257 C 0.04007 0.209 0.80811 0.0
H258 H 0.16158 0.24056 0.7187 0.0
C259 C 0.06269 0.21297 0.87215 0.0
H260 H 0.06033 0.22044 0.70343 0.0
C261 C 0.12016 0.22616 0.88111 0.0
C262 C 0.15489 0.23289 0.82586 0.0
H263 H 0.03468 0.20101 0.9153 0.0
H264 H 0.13477 0.22331 0.93057 0.0
C265 C 0.13521 0.23617 0.76202 0.0
C266 C 0.88377 0.14283 0.26172 0.0
C267 C 0.90668 0.16265 0.32553 0.0
H268 H 0.82459 0.06785 0.20333 0.0
C269 C 0.87857 0.12813 0.38088 0.0
H270 H 0.90586 0.16906 0.21834 0.0
C271 C 0.83417 0.07069 0.37208 0.0
C272 C 0.81557 0.0479 0.3081 0.0
H273 H 0.89601 0.14287 0.43031 0.0
H274 H 0.81804 0.04281 0.41533 0.0
C275 C 0.838 0.08502 0.25298 0.0
C276 C 0.73515 0.88622 0.88113 0.0
C277 C 0.72852 0.91431 0.82589 0.0
H278 H 0.76029 0.82585 0.91531 0.0
C279 C 0.7253 0.89139 0.76203 0.0
H280 H 0.73793 0.90365 0.93059 0.0
C281 C 0.73748 0.8457 0.75312 0.0
C282 C 0.75243 0.82335 0.80811 0.0
H283 H 0.72097 0.91344 0.71873 0.0
H284 H 0.74113 0.83229 0.70342 0.0
C285 C 0.74835 0.84192 0.87215 0.0
C286 C 0.83439 0.74356 0.38145 0.0
C287 C 0.79964 0.73676 0.3262 0.0
H288 H 0.91987 0.76878 0.41564 0.0
C289 C 0.81935 0.73347 0.26237 0.0
H290 H 0.81974 0.74639 0.4309 0.0
C291 C 0.8772 0.74568 0.25346 0.0
C292 C 0.9145 0.76074 0.30845 0.0
H293 H 0.79296 0.72903 0.21906 0.0
H294 H 0.89425 0.74924 0.20377 0.0
C295 C 0.89187 0.75678 0.37248 0.0
C296 C 0.11639 0.88443 0.75305 0.0
C297 C 0.13878 0.92162 0.80811 0.0
H298 H 0.04855 0.80039 0.71853 0.0
C299 C 0.12011 0.8989 0.87212 0.0
H300 H 0.12989 0.90156 0.70338 0.0
C301 C 0.07568 0.84148 0.88101 0.0
C302 C 0.0476 0.8069 0.82571 0.0
H303 H 0.13624 0.92682 0.91532 0.0
H304 H 0.0582 0.82682 0.93045 0.0
C305 C 0.07059 0.82664 0.76188 0.0
C306 C 0.40127 0.31222 0.05458 0.0
C307 C 0.3639 0.28633 0.10858 0.0
H308 H 0.42283 0.2981 0.95739 0.0
C309 C 0.33244 0.22513 0.1161 0.0
H310 H 0.42703 0.35974 0.04963 0.0
C311 C 0.3285 0.1897 0.06291 0.0
C312 C 0.35607 0.21659 1.00304 0.0
H313 H 0.30514 0.2053 0.15926 0.0
H314 H 0.29703 0.14292 0.06555 0.0
C315 C 0.39882 0.27684 1.00225 0.0
C316 C 0.09183 0.33969 0.61608 0.0
C317 C 0.06236 0.37143 0.60863 0.0
H318 H 0.13832 0.30396 0.56547 0.0
C319 C 0.07399 0.40888 0.55466 0.0
H320 H 0.08422 0.31231 0.65921 0.0
C321 C 0.1068 0.40626 0.50229 0.0
C322 C 0.12405 0.3633 0.50303 0.0
H323 H 0.05242 0.43484 0.54975 0.0
H324 H 0.10967 0.43035 0.45745 0.0
C325 C 0.12321 0.3356 0.56287 0.0
C326 C 0.73688 0.09953 0.11621 0.0
C327 C 0.6757 0.06993 0.10876 0.0
H328 H 0.81904 0.14628 0.06562 0.0
C329 C 0.64983 0.08158 0.05487 0.0
H330 H 0.75668 0.09192 0.1593 0.0
C331 C 0.6852 0.11454 1.00254 0.0
C332 C 0.74542 0.13193 1.00324 0.0
H333 H 0.60233 0.05993 0.04997 0.0
H334 H 0.66396 0.11743 0.95774 0.0
C335 C 0.77229 0.13107 0.06304 0.0
C336 C 0.55291 0.65738 0.55497 0.0
C337 C 0.59025 0.68322 0.60897 0.0
H338 H 0.5315 0.67155 0.45773 0.0
C339 C 0.62181 0.74442 0.61644 0.0
H340 H 0.52708 0.60987 0.55004 0.0
C341 C 0.62587 0.77987 0.56321 0.0
C342 C 0.59832 0.75301 0.50335 0.0
H343 H 0.64911 0.76421 0.65959 0.0
H344 H 0.65741 0.82663 0.56582 0.0
C345 C 0.55548 0.69279 0.50259 0.0
C346 C 0.84772 0.56344 1.00255 0.0
C347 C 0.83027 0.60626 1.00324 0.0
H348 H 0.90231 0.53514 0.04998 0.0
C349 C 0.83108 0.63397 0.06304 0.0
H350 H 0.84484 0.53932 0.95775 0.0
C351 C 0.86259 0.63007 0.11622 0.0
C352 C 0.89223 0.59849 0.10878 0.0
H353 H 0.8158 0.66549 0.0656 0.0
H354 H 0.87013 0.65747 0.1593 0.0
C355 C 0.88064 0.561 0.05488 0.0
C356 C 0.21781 0.87005 0.61633 0.0
C357 C 0.27899 0.89958 0.60883 0.0
H358 H 0.13562 0.8235 0.56579 0.0
C359 C 0.3048 0.88797 0.55485 0.0
H360 H 0.19804 0.87765 0.65947 0.0
C361 C 0.26939 0.85513 0.50251 0.0
C362 C 0.20919 0.83782 0.5033 0.0
H363 H 0.3523 0.90958 0.54989 0.0
H364 H 0.2906 0.85228 0.45766 0.0
C365 C 0.18236 0.83864 0.56315 0.0
C366 C 0.72497 0.73878 1.00689 0.0
C367 C 0.6819 0.71283 0.95689 0.0
H368 H 0.7516 0.78833 0.09821 0.0
C369 C 0.6349 0.72549 0.95992 0.0
H370 H 0.76205 0.73132 1.00739 0.0
C371 C 0.62964 0.75973 1.01124 0.0
C372 C 0.67134 0.78392 0.0625 0.0
H373 H 0.60059 0.70776 0.92267 0.0
H374 H 0.59055 0.76389 1.01302 0.0
C375 C 0.71949 0.77304 0.05851 0.0
C376 C 0.97114 0.73265 0.50702 0.0
C377 C 0.95397 0.6897 0.45686 0.0
H378 H 0.94824 0.75921 0.59843 0.0
C379 C 0.89425 0.64285 0.4597 0.0
H380 H 0.01572 0.76961 0.50767 0.0
C381 C 0.85474 0.63762 0.51099 0.0
C382 C 0.87231 0.6792 0.56241 0.0
H383 H 0.87765 0.60865 0.42231 0.0
H384 H 0.81143 0.59865 0.51261 0.0
C385 C 0.93139 0.72719 0.55862 0.0
C386 C 0.23663 0.90182 0.95976 0.0
C387 C 0.24932 0.9615 0.95679 0.0
H388 H 0.19822 0.81906 1.01282 0.0
C389 C 0.2234 0.97864 1.00685 0.0
H390 H 0.25433 0.88523 0.92245 0.0
C391 C 0.18916 0.9389 0.05849 0.0
C392 C 0.17825 0.87985 0.06241 0.0
H393 H 0.23087 0.02319 1.00739 0.0
H394 H 0.1739 0.95574 0.09823 0.0
C395 C 0.20239 0.86232 1.01108 0.0
C396 C 0.32454 0.20963 0.51098 0.0
C397 C 0.28288 0.18556 0.56233 0.0
H398 H 0.35358 0.26157 0.42234 0.0
C399 C 0.23483 0.19658 0.55844 0.0
H400 H 0.36355 0.20536 0.51269 0.0
C401 C 0.22937 0.23086 0.50681 0.0
C402 C 0.2724 0.2567 0.45672 0.0
H403 H 0.20275 0.18135 0.5982 0.0
H404 H 0.19235 0.2384 0.50737 0.0
C405 C 0.31932 0.24391 0.45966 0.0
C406 C 0.09979 0.33229 1.01075 0.0
C407 C 0.08229 0.2907 0.06217 0.0
H408 H 0.07683 0.36122 0.92207 0.0
C409 C 0.02326 0.24261 0.05837 0.0
H410 H 0.14304 0.37133 1.01238 0.0
C411 C -0.01651 0.23708 1.00677 0.0
C412 C 0.0006 0.28006 0.95662 0.0
H413 H 0.00645 0.21057 0.09818 0.0
H414 H 0.93895 0.20005 1.00742 0.0
C415 C 0.06027 0.32698 0.95945 0.0
C416 C 0.76522 0.03063 0.55856 0.0
C417 C 0.77623 0.08971 0.56241 0.0
H418 H 0.72341 0.94632 0.50758 0.0
C419 C 0.75211 0.10727 0.51108 0.0
H420 H 0.78047 0.01378 0.59831 0.0
C421 C 0.71782 0.06777 0.45982 0.0
C422 C 0.70506 0.00806 0.45691 0.0
H423 H 0.75637 0.15057 0.51276 0.0
H424 H 0.70014 0.08437 0.42251 0.0
C425 C 0.73094 -0.00911 0.50699 0.0
loop_
_geom_bond_atom_site_label_1
_geom_bond_atom_site_label_2
_geom_bond_distance
_geom_bond_site_symmetry_2
_ccdc_geom_bond_type
C0 O27 1.312 . S
C0 O28 1.208 . S
C1 O22 1.331 . S
C1 O25 1.244 . S
C2 O24 1.264 . S
C2 O26 1.273 . S
Mg3 O5 1.936 . S
Mg3 O12 2.081 . S
Mg3 O14 2.023 . S
Mg3 O18 2.031 . S
Mg3 O27 2.291 . S
Mg4 O5 1.963 . S
Mg4 O15 1.942 . S
Mg4 O16 1.955 . S
Mg4 O23 1.986 . S
O5 Mg3 1.936 . S
O5 Mg4 1.963 . S
O5 Mg6 1.915 . S
Mg6 O5 1.915 . S
Mg6 O7 1.915 . S
Mg6 O11 2.013 . S
Mg6 O17 2.114 . S
Mg6 O21 2.013 . S
Mg6 O27 2.114 . S
O7 Mg6 1.915 . S
O7 Mg8 1.936 . S
O7 Mg9 1.963 . S
Mg8 O7 1.936 . S
Mg8 O17 2.291 . S
Mg8 O22 2.081 1_455 S
Mg8 O24 2.023 . S
Mg8 O28 2.031 . S
Mg9 O7 1.963 . S
Mg9 O13 1.986 . S
Mg9 O25 1.942 1_455 S
Mg9 O26 1.955 . S
C10 O21 1.191 . S
C10 O23 1.307 . S
O11 Mg6 2.013 . S
O11 C30 1.191 . S
O12 Mg3 2.081 . S
O12 C20 1.331 . S
O13 Mg9 1.986 . S
O13 C30 1.307 . S
O14 Mg3 2.023 . S
O14 C29 1.264 . S
O15 Mg4 1.942 . S
O15 C20 1.244 . S
O16 Mg4 1.955 . S
O16 C29 1.273 . S
O17 Mg6 2.114 . S
O17 Mg8 2.291 . S
O17 C19 1.312 . S
O18 Mg3 2.031 . S
O18 C19 1.208 . S
C19 O17 1.312 . S
C19 O18 1.208 . S
C20 O12 1.331 . S
C20 O15 1.244 . S
O21 Mg6 2.013 . S
O21 C10 1.191 . S
O22 C1 1.331 . S
O22 Mg8 2.081 1_655 S
O23 Mg4 1.986 . S
O23 C10 1.307 . S
O24 C2 1.264 . S
O24 Mg8 2.023 . S
O25 C1 1.244 . S
O25 Mg9 1.942 1_655 S
O26 C2 1.273 . S
O26 Mg9 1.955 . S
O27 C0 1.312 . S
O27 Mg3 2.291 . S
O27 Mg6 2.114 . S
O28 C0 1.208 . S
O28 Mg8 2.031 . S
C29 O14 1.264 . S
C29 O16 1.273 . S
C30 O11 1.191 . S
C30 O13 1.307 . S
C31 O58 1.312 . S
C31 O59 1.208 . S
C32 O53 1.331 . S
C32 O56 1.244 . S
C33 O55 1.264 . S
C33 O57 1.273 . S
Mg34 O36 1.936 . S
Mg34 O43 2.081 1_545 S
Mg34 O45 2.023 . S
Mg34 O49 2.031 . S
Mg34 O58 2.291 . S
Mg35 O36 1.963 . S
Mg35 O46 1.942 1_545 S
Mg35 O47 1.955 . S
Mg35 O54 1.986 . S
O36 Mg34 1.936 . S
O36 Mg35 1.963 . S
O36 Mg37 1.915 . S
Mg37 O36 1.915 . S
Mg37 O38 1.915 . S
Mg37 O42 2.013 . S
Mg37 O48 2.114 . S
Mg37 O52 2.013 . S
Mg37 O58 2.114 . S
O38 Mg37 1.915 . S
O38 Mg39 1.936 . S
O38 Mg40 1.963 . S
Mg39 O38 1.936 . S
Mg39 O48 2.291 . S
Mg39 O53 2.081 . S
Mg39 O55 2.023 . S
Mg39 O59 2.031 . S
Mg40 O38 1.963 . S
Mg40 O44 1.986 . S
Mg40 O56 1.942 . S
Mg40 O57 1.955 . S
C41 O52 1.191 . S
C41 O54 1.307 . S
O42 Mg37 2.013 . S
O42 C61 1.191 . S
O43 Mg34 2.081 1_565 S
O43 C51 1.331 . S
O44 Mg40 1.986 . S
O44 C61 1.307 . S
O45 Mg34 2.023 . S
O45 C60 1.264 . S
O46 Mg35 1.942 1_565 S
O46 C51 1.244 . S
O47 Mg35 1.955 . S
O47 C60 1.273 . S
O48 Mg37 2.114 . S
O48 Mg39 2.291 . S
O48 C50 1.312 . S
O49 Mg34 2.031 . S
O49 C50 1.208 . S
C50 O48 1.312 . S
C50 O49 1.208 . S
C51 O43 1.331 . S
C51 O46 1.244 . S
O52 Mg37 2.013 . S
O52 C41 1.191 . S
O53 C32 1.331 . S
O53 Mg39 2.081 . S
O54 Mg35 1.986 . S
O54 C41 1.307 . S
O55 C33 1.264 . S
O55 Mg39 2.023 . S
O56 C32 1.244 . S
O56 Mg40 1.942 . S
O57 C33 1.273 . S
O57 Mg40 1.955 . S
O58 C31 1.312 . S
O58 Mg34 2.291 . S
O58 Mg37 2.114 . S
O59 C31 1.208 . S
O59 Mg39 2.031 . S
C60 O45 1.264 . S
C60 O47 1.273 . S
C61 O42 1.191 . S
C61 O44 1.307 . S
C62 O89 1.312 . S
C62 O90 1.208 . S
C63 O84 1.331 . S
C63 O87 1.244 . S
C64 O86 1.264 . S
C64 O88 1.273 . S
Mg65 O67 1.936 . S
Mg65 O74 2.081 . S
Mg65 O76 2.023 . S
Mg65 O80 2.031 . S
Mg65 O89 2.291 . S
Mg66 O67 1.963 . S
Mg66 O77 1.942 . S
Mg66 O78 1.955 . S
Mg66 O85 1.986 . S
O67 Mg65 1.936 . S
O67 Mg66 1.963 . S
O67 Mg68 1.915 . S
Mg68 O67 1.915 . S
Mg68 O69 1.915 . S
Mg68 O73 2.013 . S
Mg68 O79 2.114 . S
Mg68 O83 2.013 . S
Mg68 O89 2.114 . S
O69 Mg68 1.915 . S
O69 Mg70 1.936 . S
O69 Mg71 1.963 . S
Mg70 O69 1.936 . S
Mg70 O79 2.291 . S
Mg70 O84 2.081 . S
Mg70 O86 2.023 . S
Mg70 O90 2.031 . S
Mg71 O69 1.963 . S
Mg71 O75 1.986 . S
Mg71 O87 1.942 . S
Mg71 O88 1.955 . S
C72 O83 1.191 . S
C72 O85 1.307 . S
O73 Mg68 2.013 . S
O73 C92 1.191 . S
O74 Mg65 2.081 . S
O74 C82 1.331 . S
O75 Mg71 1.986 . S
O75 C92 1.307 . S
O76 Mg65 2.023 . S
O76 C91 1.264 . S
O77 Mg66 1.942 . S
O77 C82 1.244 . S
O78 Mg66 1.955 . S
O78 C91 1.273 . S
O79 Mg68 2.114 . S
O79 Mg70 2.291 . S
O79 C81 1.312 . S
O80 Mg65 2.031 . S
O80 C81 1.208 . S
C81 O79 1.312 . S
C81 O80 1.208 . S
C82 O74 1.331 . S
C82 O77 1.244 . S
O83 Mg68 2.013 . S
O83 C72 1.191 . S
O84 C63 1.331 . S
O84 Mg70 2.081 . S
O85 Mg66 1.986 . S
O85 C72 1.307 . S
O86 C64 1.264 . S
O86 Mg70 2.023 . S
O87 C63 1.244 . S
O87 Mg71 1.942 . S
O88 C64 1.273 . S
O88 Mg71 1.955 . S
O89 C62 1.312 . S
O89 Mg65 2.291 . S
O89 Mg68 2.114 . S
O90 C62 1.208 . S
O90 Mg70 2.031 . S
C91 O76 1.264 . S
C91 O78 1.273 . S
C92 O73 1.191 . S
C92 O75 1.307 . S
C93 O120 1.312 . S
C93 O121 1.208 . S
C94 O115 1.331 . S
C94 O118 1.244 . S
C95 O117 1.264 . S
C95 O119 1.273 . S
Mg96 O98 1.936 . S
Mg96 O105 2.081 1_655 S
Mg96 O107 2.023 . S
Mg96 O111 2.031 . S
Mg96 O120 2.291 . S
Mg97 O98 1.963 . S
Mg97 O108 1.942 1_655 S
Mg97 O109 1.955 . S
Mg97 O116 1.986 . S
O98 Mg96 1.936 . S
O98 Mg97 1.963 . S
O98 Mg99 1.915 . S
Mg99 O98 1.915 . S
Mg99 O100 1.915 . S
Mg99 O104 2.013 . S
Mg99 O110 2.114 . S
Mg99 O114 2.013 . S
Mg99 O120 2.114 . S
O100 Mg99 1.915 . S
O100 Mg101 1.936 . S
O100 Mg102 1.963 . S
Mg101 O100 1.936 . S
Mg101 O110 2.291 . S
Mg101 O115 2.081 . S
Mg101 O117 2.023 . S
Mg101 O121 2.031 . S
Mg102 O100 1.963 . S
Mg102 O106 1.986 . S
Mg102 O118 1.942 . S
Mg102 O119 1.955 . S
C103 O114 1.191 . S
C103 O116 1.307 . S
O104 Mg99 2.013 . S
O104 C123 1.191 . S
O105 Mg96 2.081 1_455 S
O105 C113 1.331 . S
O106 Mg102 1.986 . S
O106 C123 1.307 . S
O107 Mg96 2.023 . S
O107 C122 1.264 . S
O108 Mg97 1.942 1_455 S
O108 C113 1.244 . S
O109 Mg97 1.955 . S
O109 C122 1.273 . S
O110 Mg99 2.114 . S
O110 Mg101 2.291 . S
O110 C112 1.312 . S
O111 Mg96 2.031 . S
O111 C112 1.208 . S
C112 O110 1.312 . S
C112 O111 1.208 . S
C113 O105 1.331 . S
C113 O108 1.244 . S
O114 Mg99 2.013 . S
O114 C103 1.191 . S
O115 C94 1.331 . S
O115 Mg101 2.081 . S
O116 Mg97 1.986 . S
O116 C103 1.307 . S
O117 C95 1.264 . S
O117 Mg101 2.023 . S
O118 C94 1.244 . S
O118 Mg102 1.942 . S
O119 C95 1.273 . S
O119 Mg102 1.955 . S
O120 C93 1.312 . S
O120 Mg96 2.291 . S
O120 Mg99 2.114 . S
O121 C93 1.208 . S
O121 Mg101 2.031 . S
C122 O107 1.264 . S
C122 O109 1.273 . S
C123 O104 1.191 . S
C123 O106 1.307 . S
C124 O151 1.312 . S
C124 O152 1.208 . S
C125 O146 1.331 . S
C125 O149 1.244 . S
C126 O148 1.264 . S
C126 O150 1.273 . S
Mg127 O129 1.936 . S
Mg127 O136 2.081 . S
Mg127 O138 2.023 . S
Mg127 O142 2.031 . S
Mg127 O151 2.291 . S
Mg128 O129 1.963 . S
Mg128 O139 1.942 . S
Mg128 O140 1.955 . S
Mg128 O147 1.986 . S
O129 Mg127 1.936 . S
O129 Mg128 1.963 . S
O129 Mg130 1.915 . S
Mg130 O129 1.915 . S
Mg130 O131 1.915 . S
Mg130 O135 2.013 . S
Mg130 O141 2.114 . S
Mg130 O145 2.013 . S
Mg130 O151 2.114 . S
O131 Mg130 1.915 . S
O131 Mg132 1.936 . S
O131 Mg133 1.963 . S
Mg132 O131 1.936 . S
Mg132 O141 2.291 . S
Mg132 O146 2.081 1_565 S
Mg132 O148 2.023 . S
Mg132 O152 2.031 . S
Mg133 O131 1.963 . S
Mg133 O137 1.986 . S
Mg133 O149 1.942 1_565 S
Mg133 O150 1.955 . S
C134 O145 1.191 . S
C134 O147 1.307 . S
O135 Mg130 2.013 . S
O135 C154 1.191 . S
O136 Mg127 2.081 . S
O136 C144 1.331 . S
O137 Mg133 1.986 . S
O137 C154 1.307 . S
O138 Mg127 2.023 . S
O138 C153 1.264 . S
O139 Mg128 1.942 . S
O139 C144 1.244 . S
O140 Mg128 1.955 . S
O140 C153 1.273 . S
O141 Mg130 2.114 . S
O141 Mg132 2.291 . S
O141 C143 1.312 . S
O142 Mg127 2.031 . S
O142 C143 1.208 . S
C143 O141 1.312 . S
C143 O142 1.208 . S
C144 O136 1.331 . S
C144 O139 1.244 . S
O145 Mg130 2.013 . S
O145 C134 1.191 . S
O146 C125 1.331 . S
O146 Mg132 2.081 1_545 S
O147 Mg128 1.986 . S
O147 C134 1.307 . S
O148 C126 1.264 . S
O148 Mg132 2.023 . S
O149 C125 1.244 . S
O149 Mg133 1.942 1_545 S
O150 C126 1.273 . S
O150 Mg133 1.955 . S
O151 C124 1.312 . S
O151 Mg127 2.291 . S
O151 Mg130 2.114 . S
O152 C124 1.208 . S
O152 Mg132 2.031 . S
C153 O138 1.264 . S
C153 O140 1.273 . S
C154 O135 1.191 . S
C154 O137 1.307 . S
C155 O182 1.312 . S
C155 O183 1.208 . S
C156 O177 1.331 . S
C156 O180 1.244 . S
C157 O179 1.264 . S
C157 O181 1.273 . S
Mg158 O160 1.936 . S
Mg158 O167 2.081 . S
Mg158 O169 2.023 . S
Mg158 O173 2.031 . S
Mg158 O182 2.291 . S
Mg159 O160 1.963 . S
Mg159 O170 1.942 . S
Mg159 O171 1.955 . S
Mg159 O178 1.986 . S
O160 Mg158 1.936 . S
O160 Mg159 1.963 . S
O160 Mg161 1.915 . S
Mg161 O160 1.915 . S
Mg161 O162 1.915 . S
Mg161 O166 2.013 . S
Mg161 O172 2.114 . S
Mg161 O176 2.013 . S
Mg161 O182 2.114 . S
O162 Mg161 1.915 . S
O162 Mg163 1.936 . S
O162 Mg164 1.963 . S
Mg163 O162 1.936 . S
Mg163 O172 2.291 . S
Mg163 O177 2.081 . S
Mg163 O179 2.023 . S
Mg163 O183 2.031 . S
Mg164 O162 1.963 . S
Mg164 O168 1.986 . S
Mg164 O180 1.942 . S
Mg164 O181 1.955 . S
C165 O176 1.191 . S
C165 O178 1.307 . S
O166 Mg161 2.013 . S
O166 C185 1.191 . S
O167 Mg158 2.081 . S
O167 C175 1.331 . S
O168 Mg164 1.986 . S
O168 C185 1.307 . S
O169 Mg158 2.023 . S
O169 C184 1.264 . S
O170 Mg159 1.942 . S
O170 C175 1.244 . S
O171 Mg159 1.955 . S
O171 C184 1.273 . S
O172 Mg161 2.114 . S
O172 Mg163 2.291 . S
O172 C174 1.312 . S
O173 Mg158 2.031 . S
O173 C174 1.208 . S
C174 O172 1.312 . S
C174 O173 1.208 . S
C175 O167 1.331 . S
C175 O170 1.244 . S
O176 Mg161 2.013 . S
O176 C165 1.191 . S
O177 C156 1.331 . S
O177 Mg163 2.081 . S
O178 Mg159 1.986 . S
O178 C165 1.307 . S
O179 C157 1.264 . S
O179 Mg163 2.023 . S
O180 C156 1.244 . S
O180 Mg164 1.942 . S
O181 C157 1.273 . S
O181 Mg164 1.955 . S
O182 C155 1.312 . S
O182 Mg158 2.291 . S
O182 Mg161 2.114 . S
O183 C155 1.208 . S
O183 Mg163 2.031 . S
C184 O169 1.264 . S
C184 O171 1.273 . S
C185 O166 1.191 . S
C185 O168 1.307 . S
C186 C187 1.387 . S
C186 H190 0.950 . S
C186 C195 1.390 . S
C187 C186 1.387 . S
C187 C189 1.387 . S
H188 C195 0.950 . S
C189 C187 1.387 . S
C189 C191 1.390 . S
C189 H193 0.950 . S
H190 C186 0.950 . S
C191 C189 1.390 . S
C191 C192 1.387 . S
C191 H194 0.950 . S
C192 C191 1.387 . S
C192 C195 1.387 . S
H193 C189 0.950 . S
H194 C191 0.950 . S
C195 C186 1.390 . S
C195 H188 0.950 . S
C195 C192 1.387 . S
C196 C197 1.387 . S
C196 H200 0.950 . S
C196 C205 1.390 . S
C197 C196 1.387 . S
C197 C199 1.387 . S
H198 C205 0.950 . S
C199 C197 1.387 . S
C199 C201 1.390 . S
C199 H203 0.950 . S
H200 C196 0.950 . S
C201 C199 1.390 . S
C201 C202 1.387 . S
C201 H204 0.950 . S
C202 C201 1.387 . S
C202 C205 1.387 . S
H203 C199 0.950 . S
H204 C201 0.950 . S
C205 C196 1.390 . S
C205 H198 0.950 . S
C205 C202 1.387 . S
C206 C207 1.387 . S
C206 H210 0.950 . S
C206 C215 1.390 . S
C207 C206 1.387 . S
C207 C209 1.387 . S
H208 C215 0.950 . S
C209 C207 1.387 . S
C209 C211 1.390 . S
C209 H213 0.950 . S
H210 C206 0.950 . S
C211 C209 1.390 . S
C211 C212 1.387 . S
C211 H214 0.950 . S
C212 C211 1.387 . S
C212 C215 1.387 . S
H213 C209 0.950 . S
H214 C211 0.950 . S
C215 C206 1.390 . S
C215 H208 0.950 . S
C215 C212 1.387 . S
C216 C217 1.387 . S
C216 H220 0.950 . S
C216 C225 1.390 . S
C217 C216 1.387 . S
C217 C219 1.387 . S
H218 C225 0.950 . S
C219 C217 1.387 . S
C219 C221 1.390 . S
C219 H223 0.950 . S
H220 C216 0.950 . S
C221 C219 1.390 . S
C221 C222 1.387 . S
C221 H224 0.950 . S
C222 C221 1.387 . S
C222 C225 1.387 . S
H223 C219 0.950 . S
H224 C221 0.950 . S
C225 C216 1.390 . S
C225 H218 0.950 . S
C225 C222 1.387 . S
C226 C227 1.387 . S
C226 H230 0.950 . S
C226 C235 1.390 . S
C227 C226 1.387 . S
C227 C229 1.387 . S
H228 C235 0.950 . S
C229 C227 1.387 . S
C229 C231 1.390 . S
C229 H233 0.950 . S
H230 C226 0.950 . S
C231 C229 1.390 . S
C231 C232 1.387 . S
C231 H234 0.950 . S
C232 C231 1.387 . S
C232 C235 1.387 . S
H233 C229 0.950 . S
H234 C231 0.950 . S
C235 C226 1.390 . S
C235 H228 0.950 . S
C235 C232 1.387 . S
C236 C237 1.387 . S
C236 H240 0.950 . S
C236 C245 1.390 . S
C237 C236 1.387 . S
C237 C239 1.387 . S
H238 C245 0.950 . S
C239 C237 1.387 . S
C239 C241 1.390 . S
C239 H243 0.950 . S
H240 C236 0.950 . S
C241 C239 1.390 . S
C241 C242 1.387 . S
C241 H244 0.950 . S
C242 C241 1.387 . S
C242 C245 1.387 . S
H243 C239 0.950 . S
H244 C241 0.950 . S
C245 C236 1.390 . S
C245 H238 0.950 . S
C245 C242 1.387 . S
C246 C247 1.387 . S
C246 H250 0.950 . S
C246 C255 1.390 . S
C247 C246 1.387 . S
C247 C249 1.387 . S
H248 C255 0.950 . S
C249 C247 1.387 . S
C249 C251 1.390 . S
C249 H253 0.950 . S
H250 C246 0.950 . S
C251 C249 1.390 . S
C251 C252 1.387 . S
C251 H254 0.950 . S
C252 C251 1.387 . S
C252 C255 1.387 . S
H253 C249 0.950 . S
H254 C251 0.950 . S
C255 C246 1.390 . S
C255 H248 0.950 . S
C255 C252 1.387 . S
C256 C257 1.387 1_455 S
C256 H260 0.950 . S
C256 C265 1.390 . S
C257 C256 1.387 1_655 S
C257 C259 1.387 1_655 S
H258 C265 0.950 . S
C259 C257 1.387 1_455 S
C259 C261 1.390 . S
C259 H263 0.950 1_455 S
H260 C256 0.950 . S
C261 C259 1.390 . S
C261 C262 1.387 . S
C261 H264 0.950 . S
C262 C261 1.387 . S
C262 C265 1.387 . S
H263 C259 0.950 1_655 S
H264 C261 0.950 . S
C265 C256 1.390 . S
C265 H258 0.950 . S
C265 C262 1.387 . S
C266 C267 1.387 . S
C266 H270 0.950 . S
C266 C275 1.390 . S
C267 C266 1.387 . S
C267 C269 1.387 . S
H268 C275 0.950 . S
C269 C267 1.387 . S
C269 C271 1.390 . S
C269 H273 0.950 . S
H270 C266 0.950 . S
C271 C269 1.390 . S
C271 C272 1.387 1_545 S
C271 H274 0.950 1_545 S
C272 C271 1.387 1_565 S
C272 C275 1.387 1_565 S
H273 C269 0.950 . S
H274 C271 0.950 1_565 S
C275 C266 1.390 . S
C275 H268 0.950 . S
C275 C272 1.387 1_545 S
C276 C277 1.387 . S
C276 H280 0.950 . S
C276 C285 1.390 . S
C277 C276 1.387 . S
C277 C279 1.387 . S
H278 C285 0.950 . S
C279 C277 1.387 . S
C279 C281 1.390 . S
C279 H283 0.950 . S
H280 C276 0.950 . S
C281 C279 1.390 . S
C281 C282 1.387 . S
C281 H284 0.950 . S
C282 C281 1.387 . S
C282 C285 1.387 . S
H283 C279 0.950 . S
H284 C281 0.950 . S
C285 C276 1.390 . S
C285 H278 0.950 . S
C285 C282 1.387 . S
C286 C287 1.387 . S
C286 H290 0.950 . S
C286 C295 1.390 . S
C287 C286 1.387 . S
C287 C289 1.387 . S
H288 C295 0.950 1_455 S
C289 C287 1.387 . S
C289 C291 1.390 . S
C289 H293 0.950 . S
H290 C286 0.950 . S
C291 C289 1.390 . S
C291 C292 1.387 1_655 S
C291 H294 0.950 . S
C292 C291 1.387 1_455 S
C292 C295 1.387 1_455 S
H293 C289 0.950 . S
H294 C291 0.950 . S
C295 C286 1.390 . S
C295 H288 0.950 1_655 S
C295 C292 1.387 1_655 S
C296 C297 1.387 1_565 S
C296 H300 0.950 . S
C296 C305 1.390 . S
C297 C296 1.387 1_545 S
C297 C299 1.387 1_545 S
H298 C305 0.950 . S
C299 C297 1.387 1_565 S
C299 C301 1.390 . S
C299 H303 0.950 1_565 S
H300 C296 0.950 . S
C301 C299 1.390 . S
C301 C302 1.387 . S
C301 H304 0.950 . S
C302 C301 1.387 . S
C302 C305 1.387 . S
H303 C299 0.950 1_545 S
H304 C301 0.950 . S
C305 C296 1.390 . S
C305 H298 0.950 . S
C305 C302 1.387 . S
C306 C307 1.387 . S
C306 H310 0.950 . S
C306 C315 1.390 1_554 S
C307 C306 1.387 . S
C307 C309 1.387 . S
H308 C315 0.950 . S
C309 C307 1.387 . S
C309 C311 1.390 1_554 S
C309 H313 0.950 . S
H310 C306 0.950 . S
C311 C309 1.390 1_556 S
C311 C312 1.387 . S
C311 H314 0.950 . S
C312 C311 1.387 . S
C312 C315 1.387 . S
H313 C309 0.950 . S
H314 C311 0.950 . S
C315 C306 1.390 1_556 S
C315 H308 0.950 . S
C315 C312 1.387 . S
C316 C317 1.387 . S
C316 H320 0.950 . S
C316 C325 1.390 . S
C317 C316 1.387 . S
C317 C319 1.387 . S
H318 C325 0.950 . S
C319 C317 1.387 . S
C319 C321 1.390 1_655 S
C319 H323 0.950 . S
H320 C316 0.950 . S
C321 C319 1.390 1_455 S
C321 C322 1.387 . S
C321 H324 0.950 . S
C322 C321 1.387 . S
C322 C325 1.387 1_455 S
H323 C319 0.950 . S
H324 C321 0.950 . S
C325 C316 1.390 . S
C325 H318 0.950 . S
C325 C322 1.387 1_655 S
C326 C327 1.387 . S
C326 H330 0.950 . S
C326 C335 1.390 1_554 S
C327 C326 1.387 . S
C327 C329 1.387 1_565 S
H328 C335 0.950 . S
C329 C327 1.387 1_545 S
C329 C331 1.390 1_554 S
C329 H333 0.950 . S
H330 C326 0.950 . S
C331 C329 1.390 1_556 S
C331 C332 1.387 . S
C331 H334 0.950 . S
C332 C331 1.387 . S
C332 C335 1.387 1_545 S
H333 C329 0.950 . S
H334 C331 0.950 . S
C335 C326 1.390 1_556 S
C335 H328 0.950 . S
C335 C332 1.387 1_565 S
C336 C337 1.387 . S
C336 H340 0.950 . S
C336 C345 1.390 . S
C337 C336 1.387 . S
C337 C339 1.387 . S
H338 C345 0.950 . S
C339 C337 1.387 . S
C339 C341 1.390 . S
C339 H343 0.950 . S
H340 C336 0.950 . S
C341 C339 1.390 . S
C341 C342 1.387 . S
C341 H344 0.950 . S
C342 C341 1.387 . S
C342 C345 1.387 . S
H343 C339 0.950 . S
H344 C341 0.950 . S
C345 C336 1.390 . S
C345 H338 0.950 . S
C345 C342 1.387 . S
C346 C347 1.387 . S
C346 H350 0.950 . S
C346 C355 1.390 1_656 S
C347 C346 1.387 . S
C347 C349 1.387 1_655 S
H348 C355 0.950 . S
C349 C347 1.387 1_455 S
C349 C351 1.390 1_556 S
C349 H353 0.950 . S
H350 C346 0.950 . S
C351 C349 1.390 1_554 S
C351 C352 1.387 . S
C351 H354 0.950 . S
C352 C351 1.387 . S
C352 C355 1.387 . S
H353 C349 0.950 . S
H354 C351 0.950 . S
C355 C346 1.390 1_454 S
C355 H348 0.950 . S
C355 C352 1.387 . S
C356 C357 1.387 . S
C356 H360 0.950 . S
C356 C365 1.390 1_545 S
C357 C356 1.387 . S
C357 C359 1.387 . S
H358 C365 0.950 . S
C359 C357 1.387 . S
C359 C361 1.390 . S
C359 H363 0.950 . S
H360 C356 0.950 . S
C361 C359 1.390 . S
C361 C362 1.387 1_545 S
C361 H364 0.950 1_545 S
C362 C361 1.387 1_565 S
C362 C365 1.387 . S
H363 C359 0.950 . S
H364 C361 0.950 1_565 S
C365 C356 1.390 1_565 S
C365 H358 0.950 . S
C365 C362 1.387 . S
C366 C367 1.387 . S
C366 H370 0.950 . S
C366 C375 1.390 1_556 S
C367 C366 1.387 . S
C367 C369 1.387 . S
H368 C375 0.950 . S
C369 C367 1.387 . S
C369 C371 1.390 1_556 S
C369 H373 0.950 . S
H370 C366 0.950 . S
C371 C369 1.390 1_554 S
C371 C372 1.387 . S
C371 H374 0.950 . S
C372 C371 1.387 . S
C372 C375 1.387 . S
H373 C369 0.950 . S
H374 C371 0.950 . S
C375 C366 1.390 1_554 S
C375 H368 0.950 . S
C375 C372 1.387 . S
C376 C377 1.387 . S
C376 H380 0.950 . S
C376 C385 1.390 . S
C377 C376 1.387 . S
C377 C379 1.387 . S
H378 C385 0.950 . S
C379 C377 1.387 . S
C379 C381 1.390 1_455 S
C379 H383 0.950 . S
H380 C376 0.950 . S
C381 C379 1.390 1_655 S
C381 C382 1.387 . S
C381 H384 0.950 . S
C382 C381 1.387 . S
C382 C385 1.387 1_655 S
H383 C379 0.950 . S
H384 C381 0.950 . S
C385 C376 1.390 . S
C385 H378 0.950 . S
C385 C382 1.387 1_455 S
C386 C387 1.387 . S
C386 H390 0.950 . S
C386 C395 1.390 1_546 S
C387 C386 1.387 . S
C387 C389 1.387 . S
H388 C395 0.950 . S
C389 C387 1.387 . S
C389 C391 1.390 1_556 S
C389 H393 0.950 . S
H390 C386 0.950 . S
C391 C389 1.390 1_554 S
C391 C392 1.387 1_545 S
C391 H394 0.950 . S
C392 C391 1.387 1_565 S
C392 C395 1.387 . S
H393 C389 0.950 . S
H394 C391 0.950 . S
C395 C386 1.390 1_564 S
C395 H388 0.950 . S
C395 C392 1.387 . S
C396 C397 1.387 . S
C396 H400 0.950 . S
C396 C405 1.390 . S
C397 C396 1.387 . S
C397 C399 1.387 . S
H398 C405 0.950 . S
C399 C397 1.387 . S
C399 C401 1.390 . S
C399 H403 0.950 . S
H400 C396 0.950 . S
C401 C399 1.390 . S
C401 C402 1.387 . S
C401 H404 0.950 . S
C402 C401 1.387 . S
C402 C405 1.387 . S
H403 C399 0.950 . S
H404 C401 0.950 . S
C405 C396 1.390 . S
C405 H398 0.950 . S
C405 C402 1.387 . S
C406 C407 1.387 1_655 S
C406 H410 0.950 . S
C406 C415 1.390 1_554 S
C407 C406 1.387 1_455 S
C407 C409 1.387 . S
H408 C415 0.950 . S
C409 C407 1.387 . S
C409 C411 1.390 1_454 S
C409 H413 0.950 . S
H410 C406 0.950 . S
C411 C409 1.390 1_656 S
C411 C412 1.387 . S
C411 H414 0.950 . S
C412 C411 1.387 . S
C412 C415 1.387 . S
H413 C409 0.950 . S
H414 C411 0.950 . S
C415 C406 1.390 1_556 S
C415 H408 0.950 . S
C415 C412 1.387 . S
C416 C417 1.387 1_565 S
C416 H420 0.950 . S
C416 C425 1.390 . S
C417 C416 1.387 1_545 S
C417 C419 1.387 . S
H418 C425 0.950 . S
C419 C417 1.387 . S
C419 C421 1.390 1_545 S
C419 H423 0.950 . S
H420 C416 0.950 . S
C421 C419 1.390 1_565 S
C421 C422 1.387 . S
C421 H424 0.950 . S
C422 C421 1.387 . S
C422 C425 1.387 . S
H423 C419 0.950 . S
H424 C421 0.950 . S
C425 C416 1.390 . S
C425 H418 0.950 . S
C425 C422 1.387 . S
C187 C19 1.253 . S
C192 C144 1.394 . S
C197 C156 1.395 . S
C202 C31 1.251 . S
C207 C20 1.396 . S
C212 C81 1.254 . S
C217 C32 1.394 . S
C222 C93 1.252 . S
C227 C143 1.252 . S
C232 C82 1.394 . S
C237 C155 1.255 . S
C242 C94 1.396 . S
C247 C30 1.216 . S
C252 C125 1.271 . S
C257 C41 1.217 . S
C262 C175 1.270 . S
C267 C1 1.271 . S
C272 C92 1.216 . S
C277 C51 1.268 . S
C282 C103 1.215 . S
C287 C63 1.268 . S
C292 C154 1.214 . S
C297 C165 1.216 . S
C302 C113 1.271 . S
C307 C29 1.066 . S
C312 C184 1.039 . S
C317 C33 1.066 . S
C322 C2 1.036 . S
C327 C91 1.066 . S
C332 C60 1.037 . S
C337 C95 1.066 . S
C342 C64 1.039 . S
C347 C122 1.038 . S
C352 C153 1.066 . S
C357 C157 1.066 . S
C362 C126 1.035 . S
C367 C123 2.278 . S
C372 C62 2.318 . S
C377 C134 2.278 . S
C382 C112 2.318 . S
C387 C185 2.275 . S
C392 C124 2.316 . S
C397 C174 2.316 . S
C402 C10 2.276 . S
C407 C0 2.316 . S
C412 C61 2.276 . S
C417 C50 2.318 . S
C422 C72 2.278 . S
