# Generated by pormake.
# Topology umo, (4)-cn, num edge types: 1
# Building blocks:
#     Node 0, Type 0, BuildingBlock: CEKHIL_clean_sbu_0, # of connection points: 4
#     Node 1, Type 0, BuildingBlock: CEKHIL_clean_sbu_0, # of connection points: 4
#     Node 2, Type 0, BuildingBlock: CEKHIL_clean_sbu_0, # of connection points: 4
#     Node 3, Type 0, BuildingBlock: CEKHIL_clean_sbu_0, # of connection points: 4
#     Node 4, Type 0, BuildingBlock: CEKHIL_clean_sbu_0, # of connection points: 4
#     Node 5, Type 0, BuildingBlock: CEKHIL_clean_sbu_0, # of connection points: 4
#     Node 6, Type 0, BuildingBlock: CEKHIL_clean_sbu_0, # of connection points: 4
#     Node 7, Type 0, BuildingBlock: CEKHIL_clean_sbu_0, # of connection points: 4
#     Node 8, Type 0, BuildingBlock: CEKHIL_clean_sbu_0, # of connection points: 4
#     Node 9, Type 0, BuildingBlock: CEKHIL_clean_sbu_0, # of connection points: 4
#     Node 10, Type 0, BuildingBlock: CEKHIL_clean_sbu_0, # of connection points: 4
#     Node 11, Type 0, BuildingBlock: CEKHIL_clean_sbu_0, # of connection points: 4
#     Edge 12, Type (0, 0), BuildingBlock: AJUNOK_clean_linker_0, # of connection points: 2
#     Edge 13, Type (0, 0), BuildingBlock: AJUNOK_clean_linker_0, # of connection points: 2
#     Edge 14, Type (0, 0), BuildingBlock: AJUNOK_clean_linker_0, # of connection points: 2
#     Edge 15, Type (0, 0), BuildingBlock: AJUNOK_clean_linker_0, # of connection points: 2
#     Edge 16, Type (0, 0), BuildingBlock: AJUNOK_clean_linker_0, # of connection points: 2
#     Edge 17, Type (0, 0), BuildingBlock: AJUNOK_clean_linker_0, # of connection points: 2
#     Edge 18, Type (0, 0), BuildingBlock: AJUNOK_clean_linker_0, # of connection points: 2
#     Edge 19, Type (0, 0), BuildingBlock: AJUNOK_clean_linker_0, # of connection points: 2
#     Edge 20, Type (0, 0), BuildingBlock: AJUNOK_clean_linker_0, # of connection points: 2
#     Edge 21, Type (0, 0), BuildingBlock: AJUNOK_clean_linker_0, # of connection points: 2
#     Edge 22, Type (0, 0), BuildingBlock: AJUNOK_clean_linker_0, # of connection points: 2
#     Edge 23, Type (0, 0), BuildingBlock: AJUNOK_clean_linker_0, # of connection points: 2
#     Edge 24, Type (0, 0), BuildingBlock: AJUNOK_clean_linker_0, # of connection points: 2
#     Edge 25, Type (0, 0), BuildingBlock: AJUNOK_clean_linker_0, # of connection points: 2
#     Edge 26, Type (0, 0), BuildingBlock: AJUNOK_clean_linker_0, # of connection points: 2
#     Edge 27, Type (0, 0), BuildingBlock: AJUNOK_clean_linker_0, # of connection points: 2
#     Edge 28, Type (0, 0), BuildingBlock: AJUNOK_clean_linker_0, # of connection points: 2
#     Edge 29, Type (0, 0), BuildingBlock: AJUNOK_clean_linker_0, # of connection points: 2
#     Edge 30, Type (0, 0), BuildingBlock: AJUNOK_clean_linker_0, # of connection points: 2
#     Edge 31, Type (0, 0), BuildingBlock: AJUNOK_clean_linker_0, # of connection points: 2
#     Edge 32, Type (0, 0), BuildingBlock: AJUNOK_clean_linker_0, # of connection points: 2
#     Edge 33, Type (0, 0), BuildingBlock: AJUNOK_clean_linker_0, # of connection points: 2
#     Edge 34, Type (0, 0), BuildingBlock: AJUNOK_clean_linker_0, # of connection points: 2
#     Edge 35, Type (0, 0), BuildingBlock: AJUNOK_clean_linker_0, # of connection points: 2
# Relax obj value: 0.181
# Max RMSD: 0.260
# Mean RMSD: 0.260
data_MOF--net-umo--node1-CEKHIL_clean_sbu_0--edge1-AJUNOK_clean_linker_0
_symmetry_space_group_name_H-M    P1
_symmetry_Int_Tables_number       1
_symmetry_cell_setting            triclinic
loop_
_symmetry_equiv_pos_as_xyz
'x, y, z'
_cell_length_a     35.921228
_cell_length_b     35.919972
_cell_length_c     26.044143
_cell_angle_alpha  89.898871
_cell_angle_beta   90.000936
_cell_angle_gamma 119.92957
loop_
_atom_site_label
_atom_site_type_symbol
_atom_site_fract_x
_atom_site_fract_y
_atom_site_fract_z
_atom_type_partial_charge
Co0 Co 0.1352 0.53668 0.38079 0.0
O1 O 0.07767 0.4979 0.35981 0.0
O2 O 0.10399 0.56761 0.37383 0.0
C3 C 0.16904 0.51499 0.3234 0.0
O4 O 0.19306 0.58512 0.40339 0.0
Co5 Co 0.18129 0.49282 0.43191 0.0
O6 O 0.22696 0.5532 0.43986 0.0
C7 C 0.13049 0.51801 0.49721 0.0
C8 C 0.07147 0.53042 0.36166 0.0
C9 C 0.22451 0.58643 0.42853 0.0
O10 O 0.11804 0.52832 0.45599 0.0
O11 O 0.15453 0.50106 0.49625 0.0
O12 O 0.15606 0.54142 0.31013 0.0
O13 O 0.15583 0.49793 0.36852 0.0
Co14 Co 0.60636 0.14878 0.55962 0.0
O15 O 0.60494 0.09508 0.55843 0.0
O16 O 0.54886 0.10356 0.54333 0.0
C17 C 0.66662 0.18688 0.50962 0.0
O18 O 0.59716 0.19928 0.55671 0.0
Co19 Co 0.68446 0.22201 0.61719 0.0
O20 O 0.65928 0.25473 0.58615 0.0
C21 C 0.60778 0.16323 0.67735 0.0
C22 C 0.56481 0.07807 0.5457 0.0
C23 C 0.62189 0.23905 0.56664 0.0
O24 O 0.59003 0.14262 0.63563 0.0
O25 O 0.64665 0.19429 0.67897 0.0
O26 O 0.62946 0.16151 0.48945 0.0
O27 O 0.66729 0.18336 0.55922 0.0
Co28 Co 0.46329 0.61544 0.72476 0.0
O29 O 0.51592 0.61505 0.72584 0.0
O30 O 0.4524 0.5578 0.71088 0.0
C31 C 0.48514 0.67381 0.67211 0.0
O32 O 0.40338 0.60667 0.72069 0.0
Co33 Co 0.46665 0.693 0.77939 0.0
O34 O 0.41283 0.67204 0.74001 0.0
C35 C 0.44818 0.6175 0.84189 0.0
C36 C 0.49391 0.57463 0.71463 0.0
C37 C 0.38991 0.63362 0.72405 0.0
O38 O 0.45293 0.60034 0.80085 0.0
O39 O 0.45483 0.65601 0.84271 0.0
O40 O 0.47361 0.63611 0.65397 0.0
O41 O 0.48961 0.67636 0.72188 0.0
Co42 Co 0.8435 0.44044 0.88947 0.0
O43 O 0.90225 0.4834 0.88119 0.0
O44 O 0.87727 0.41295 0.87712 0.0
C45 C 0.81336 0.46884 0.83605 0.0
O46 O 0.78512 0.38784 0.89636 0.0
Co47 Co 0.7878 0.47068 0.94645 0.0
O48 O 0.74458 0.40895 0.94025 0.0
C49 C 0.83986 0.44587 1.00844 0.0
C50 C 0.90976 0.45189 0.87547 0.0
C51 C 0.75037 0.3803 0.91902 0.0
O52 O 0.85226 0.4369 0.9662 0.0
O53 O 0.81642 0.46346 1.0093 0.0
O54 O 0.8305 0.44719 0.81817 0.0
O55 O 0.82108 0.47837 0.88448 0.0
Co56 Co 0.35829 0.83147 0.05128 0.0
O57 O 0.35574 0.88328 0.05517 0.0
O58 O 0.41482 0.88032 0.03956 0.0
C59 C 0.30017 0.79339 0.99823 0.0
O60 O 0.3722 0.78408 0.04402 0.0
Co61 Co 0.28299 0.75023 0.10048 0.0
O62 O 0.30972 0.72332 0.05941 0.0
C63 C 0.3538 0.80963 0.16739 0.0
C64 C 0.3966 0.90356 0.04531 0.0
C65 C 0.34876 0.74316 0.04462 0.0
O66 O 0.37213 0.83359 0.12783 0.0
O67 O 0.31644 0.77614 0.1655 0.0
O68 O 0.33721 0.82188 0.98009 0.0
O69 O 0.29796 0.79364 0.04801 0.0
Co70 Co 0.53024 0.38397 0.22874 0.0
O71 O 0.47982 0.3886 0.23461 0.0
O72 O 0.54482 0.44324 0.21829 0.0
C73 C 0.50214 0.32597 0.17435 0.0
O74 O 0.58887 0.38961 0.22002 0.0
Co75 Co 0.52841 0.30353 0.27237 0.0
O76 O 0.57531 0.32159 0.22165 0.0
C77 C 0.55422 0.37837 0.34068 0.0
C78 C 0.504 0.4292 0.2249 0.0
C79 C 0.60026 0.36136 0.21286 0.0
O80 O 0.54322 0.39614 0.30528 0.0
O81 O 0.55066 0.34128 0.33519 0.0
O82 O 0.51602 0.36461 0.15745 0.0
O83 O 0.50048 0.32288 0.22421 0.0
Co84 Co 0.45186 0.82845 0.47346 0.0
O85 O 0.50263 0.88314 0.47466 0.0
O86 O 0.4369 0.87269 0.48517 0.0
C87 C 0.47569 0.79513 0.52872 0.0
O88 O 0.39302 0.77563 0.47505 0.0
Co89 Co 0.46025 0.75546 0.42343 0.0
O90 O 0.4049 0.72074 0.45961 0.0
C91 C 0.44198 0.81059 0.3565 0.0
C92 C 0.47817 0.89924 0.48426 0.0
C93 C 0.38053 0.73544 0.47263 0.0
O94 O 0.44417 0.83257 0.39658 0.0
O95 O 0.44991 0.77955 0.35804 0.0
O96 O 0.46048 0.81881 0.54517 0.0
O97 O 0.48136 0.79681 0.47917 0.0
Co98 Co 0.63975 0.47165 0.6399 0.0
O99 O 0.63604 0.52195 0.65291 0.0
O100 O 0.58031 0.45578 0.64892 0.0
C101 C 0.69353 0.48562 0.69791 0.0
O102 O 0.63122 0.4128 0.62817 0.0
Co103 Co 0.72453 0.48476 0.59189 0.0
O104 O 0.68947 0.42171 0.5849 0.0
C105 C 0.65277 0.47163 0.52329 0.0
C106 C 0.59486 0.49645 0.65687 0.0
C107 C 0.65145 0.39837 0.60205 0.0
O108 O 0.63272 0.47522 0.56242 0.0
O109 O 0.69047 0.47633 0.52702 0.0
O110 O 0.65389 0.46926 0.71215 0.0
O111 O 0.7004 0.49829 0.6504 0.0
Co112 Co 0.14712 0.59661 0.8081 0.0
O113 O 0.09081 0.57918 0.83254 0.0
O114 O 0.1171 0.53531 0.82097 0.0
C115 C 0.18271 0.65509 0.86069 0.0
O116 O 0.20376 0.60396 0.78423 0.0
Co117 Co 0.19267 0.68171 0.74914 0.0
O118 O 0.23824 0.66675 0.7416 0.0
C119 C 0.13761 0.60286 0.69109 0.0
C120 C 0.08531 0.54072 0.8347 0.0
C121 C 0.23535 0.6318 0.75728 0.0
O122 O 0.12632 0.58302 0.73439 0.0
O123 O 0.16264 0.64356 0.68817 0.0
O124 O 0.17086 0.61654 0.8764 0.0
O125 O 0.16789 0.65695 0.81569 0.0
Co126 Co 0.51008 0.15513 0.97731 0.0
O127 O 0.45814 0.10233 0.98925 0.0
O128 O 0.52323 0.10988 0.99128 0.0
C129 C 0.49517 0.19654 0.03118 0.0
O130 O 0.57001 0.20506 0.96752 0.0
Co131 Co 0.49936 0.22448 0.92049 0.0
O132 O 0.56271 0.25382 0.9203 0.0
C133 C 0.51267 0.16342 0.85905 0.0
C134 C 0.48196 0.08522 0.99723 0.0
C135 C 0.58543 0.23989 0.94124 0.0
O136 O 0.50981 0.14298 0.90092 0.0
O137 O 0.50706 0.19592 0.85773 0.0
O138 O 0.51007 0.17269 0.04808 0.0
O139 O 0.48401 0.19032 0.98301 0.0
Co140 Co 0.35865 0.52867 0.14145 0.0
O141 O 0.36601 0.48221 0.16392 0.0
O142 O 0.41859 0.54989 0.15821 0.0
C143 C 0.29967 0.51219 0.19173 0.0
O144 O 0.36192 0.58405 0.1197 0.0
Co145 Co 0.27545 0.50192 0.07962 0.0
O146 O 0.30558 0.56445 0.06657 0.0
C147 C 0.35431 0.52027 0.02355 0.0
C148 C 0.40625 0.5102 0.17022 0.0
C149 C 0.3413 0.59255 0.08573 0.0
O150 O 0.37252 0.52279 0.06708 0.0
O151 O 0.31474 0.50992 0.01983 0.0
O152 O 0.33829 0.53282 0.20992 0.0
O153 O 0.29731 0.4971 0.1458 0.0
Co154 Co 0.82948 0.38175 0.32183 0.0
O155 O 0.88646 0.39946 0.34519 0.0
O156 O 0.8611 0.44353 0.32949 0.0
C157 C 0.79297 0.32523 0.37773 0.0
O158 O 0.77334 0.37534 0.29731 0.0
Co159 Co 0.78016 0.29313 0.26926 0.0
O160 O 0.73983 0.31376 0.25233 0.0
C161 C 0.83735 0.36816 0.20596 0.0
C162 C 0.89307 0.43838 0.343 0.0
C163 C 0.74376 0.34943 0.26667 0.0
O164 O 0.84867 0.39087 0.2472 0.0
O165 O 0.81179 0.32748 0.20655 0.0
O166 O 0.80638 0.36457 0.39168 0.0
O167 O 0.80702 0.32179 0.33307 0.0
C168 C 0.27084 0.66625 0.42156 0.0
C169 C 0.2591 0.62775 0.44785 0.0
C170 C 0.30847 0.7041 0.43483 0.0
C171 C 0.33493 0.7041 0.4746 0.0
H172 H 0.25277 0.66646 0.38836 0.0
H173 H 0.31906 0.73218 0.41062 0.0
S174 S 0.31328 0.61449 0.5622 0.0
N175 N 0.27257 0.59421 0.5217 0.0
N176 N 0.34404 0.66512 0.54483 0.0
C177 C 0.32109 0.66725 0.50454 0.0
C178 C 0.28288 0.62899 0.49154 0.0
C179 C 0.62529 0.30071 0.52562 0.0
C180 C 0.60577 0.26855 0.56282 0.0
C181 C 0.63707 0.34287 0.53763 0.0
C182 C 0.62896 0.3534 0.58678 0.0
H183 H 0.63719 0.29452 0.49025 0.0
H184 H 0.6559 0.36779 0.50992 0.0
S185 S 0.56788 0.27783 0.69166 0.0
N186 N 0.5705 0.24746 0.64584 0.0
N187 N 0.59228 0.32732 0.66856 0.0
C188 C 0.60312 0.3204 0.62097 0.0
C189 C 0.59112 0.2774 0.60858 0.0
C190 C 0.29621 0.64623 0.70021 0.0
C191 C 0.26962 0.62309 0.74183 0.0
C192 C 0.33332 0.64469 0.68943 0.0
C193 C 0.34451 0.61924 0.71903 0.0
H194 H 0.28988 0.66784 0.67764 0.0
H195 H 0.35546 0.66658 0.66092 0.0
S196 S 0.28294 0.54762 0.82689 0.0
N197 N 0.25449 0.57002 0.80893 0.0
N198 N 0.32458 0.56683 0.78761 0.0
C199 C 0.31608 0.59238 0.75701 0.0
C200 C 0.27842 0.59438 0.76872 0.0
C201 C 0.69939 0.3188 0.97102 0.0
C202 C 0.71487 0.3365 0.92217 0.0
C203 C 0.65822 0.28339 0.97682 0.0
C204 C 0.63162 0.2659 0.93399 0.0
H205 H 0.71796 0.3344 1.0051 0.0
H206 H 0.64574 0.27231 0.01505 0.0
S207 S 0.66016 0.29628 0.79759 0.0
N208 N 0.70333 0.33053 0.83004 0.0
N209 N 0.62512 0.26433 0.84095 0.0
C210 C 0.64832 0.28066 0.88465 0.0
C211 C 0.69042 0.31612 0.8787 0.0
C212 C 0.38605 0.71153 0.08744 0.0
C213 C 0.36892 0.71699 0.04137 0.0
C214 C 0.38087 0.67143 0.10033 0.0
C215 C 0.35905 0.63659 0.06685 0.0
H216 H 0.39753 0.7362 0.11676 0.0
H217 H 0.38969 0.66667 0.13855 0.0
S218 S 0.32331 0.64008 0.9341 0.0
N219 N 0.33966 0.68856 0.95744 0.0
N220 N 0.33187 0.61345 0.98001 0.0
C221 C 0.34924 0.6442 0.01693 0.0
C222 C 0.35396 0.6847 1.00437 0.0
C223 C 0.70352 0.3894 0.27232 0.0
C224 C 0.71368 0.3619 0.24508 0.0
C225 C 0.66992 0.39567 0.25599 0.0
C226 C 0.64569 0.37441 0.21227 0.0
H227 H 0.71925 0.40344 0.3084 0.0
H228 H 0.65967 0.41295 0.28102 0.0
S229 S 0.6673 0.30923 0.12037 0.0
N230 N 0.7033 0.32139 0.16617 0.0
N231 N 0.63909 0.33216 0.13693 0.0
C232 C 0.65924 0.3517 0.1813 0.0
C233 C 0.69343 0.34544 0.19756 0.0
C234 C 0.12563 0.59447 0.59509 0.0
C235 C 0.12698 0.5767 0.6428 0.0
C236 C 0.12329 0.57341 0.54854 0.0
C237 C 0.12344 0.53413 0.54733 0.0
H238 H 0.12786 0.62566 0.59354 0.0
H239 H 0.12411 0.58954 0.51302 0.0
S240 S 0.12414 0.47258 0.66145 0.0
N241 N 0.1255 0.51567 0.68574 0.0
N242 N 0.12274 0.47729 0.59849 0.0
C243 C 0.12315 0.51522 0.59476 0.0
C244 C 0.12444 0.53611 0.64227 0.0
C245 C 0.53998 0.15265 0.71957 0.0
C246 C 0.58041 0.15524 0.72403 0.0
C247 C 0.51704 0.15357 0.76322 0.0
C248 C 0.53273 0.15528 0.81322 0.0
H249 H 0.52716 0.15259 0.6819 0.0
H250 H 0.48738 0.15402 0.75773 0.0
S251 S 0.63627 0.16142 0.84615 0.0
N252 N 0.63483 0.15959 0.78278 0.0
N253 N 0.59098 0.15879 0.86438 0.0
C254 C 0.57217 0.15594 0.81816 0.0
C255 C 0.59615 0.15656 0.7738 0.0
C256 C 0.41798 0.58241 0.9819 0.0
C257 C 0.38237 0.54049 0.97765 0.0
C258 C 0.44013 0.60669 0.93821 0.0
C259 C 0.42862 0.58962 0.88835 0.0
H260 H 0.42719 0.59769 0.01918 0.0
H261 H 0.46584 0.63946 0.94348 0.0
S262 S 0.33906 0.4806 0.85625 0.0
N263 N 0.3371 0.48291 0.91947 0.0
N264 N 0.37994 0.52713 0.83779 0.0
C265 C 0.39432 0.54694 0.88381 0.0
C266 C 0.37089 0.52282 0.92821 0.0
C267 C 0.85053 0.43185 0.15221 0.0
C268 C 0.84742 0.39113 0.15538 0.0
C269 C 0.85014 0.4504 0.10463 0.0
C270 C 0.84783 0.42967 0.05792 0.0
H271 H 0.85044 0.44843 0.18688 0.0
H272 H 0.85021 0.48059 0.10452 0.0
S273 S 0.8434 0.3245 0.0445 0.0
N274 N 0.84466 0.33203 0.10715 0.0
N275 N 0.84534 0.36724 0.01803 0.0
C276 C 0.84755 0.39025 0.06044 0.0
C277 C 0.84697 0.37093 0.10895 0.0
C278 C 0.41869 0.81765 0.21419 0.0
C279 C 0.37917 0.81717 0.21561 0.0
C280 C 0.43975 0.81682 0.25967 0.0
C281 C 0.42292 0.81704 0.30846 0.0
H282 H 0.43228 0.81626 0.17758 0.0
H283 H 0.46897 0.81518 0.25661 0.0
S284 S 0.32109 0.81705 0.33329 0.0
N285 N 0.32432 0.81699 0.27001 0.0
N286 N 0.36465 0.81779 0.35504 0.0
C287 C 0.38432 0.81833 0.31025 0.0
C288 C 0.36226 0.81774 0.26405 0.0
C289 C 0.61703 0.40573 0.39999 0.0
C290 C 0.5784 0.40426 0.38653 0.0
C291 C 0.64176 0.42983 0.44201 0.0
C292 C 0.62863 0.45287 0.47405 0.0
H293 H 0.62857 0.38816 0.3775 0.0
H294 H 0.67081 0.42893 0.45041 0.0
S295 S 0.53019 0.46059 0.45474 0.0
N296 N 0.52896 0.42967 0.40705 0.0
N297 N 0.57411 0.47315 0.48798 0.0
C298 C 0.59013 0.45212 0.46068 0.0
C299 C 0.56547 0.42842 0.41655 0.0
C300 C 0.95654 0.48478 0.39646 0.0
C301 C 0.93687 0.47456 0.34804 0.0
C302 C 0.00137 0.50888 0.40083 0.0
C303 C 0.02758 0.52262 0.35687 0.0
H304 H 0.93743 0.47129 0.43085 0.0
H305 H 0.01568 0.51307 0.43855 0.0
S306 S -0.00881 0.50636 0.2217 0.0
N307 N 0.94633 0.48265 0.25564 0.0
N308 N 0.03081 0.52678 0.26389 0.0
C309 C 0.00813 0.51514 0.30849 0.0
C310 C 0.96254 0.49128 0.30406 0.0
C311 C 0.54267 0.96836 0.5055 0.0
C312 C 0.49795 0.94508 0.49809 0.0
C313 C 0.56333 0.01091 0.52157 0.0
C314 C 0.5404 0.03248 0.53051 0.0
H315 H 0.56223 0.95356 0.49955 0.0
H316 H 0.59786 0.02703 0.52653 0.0
S317 S 0.42276 0.9866 0.51598 0.0
N318 N 0.43107 0.94671 0.50063 0.0
N319 N 0.47041 0.02776 0.53028 0.0
C320 C 0.49565 0.01 0.52279 0.0
C321 C 0.47432 0.96606 0.50674 0.0
C322 C 0.56162 0.57268 0.71029 0.0
C323 C 0.51683 0.55105 0.70332 0.0
C324 C 0.58608 0.55442 0.69517 0.0
C325 C 0.56689 0.51348 0.67282 0.0
H326 H 0.57843 0.6046 0.72675 0.0
H327 H 0.6205 0.57283 0.70108 0.0
S328 S 0.45052 0.4421 0.64833 0.0
N329 N 0.45382 0.48566 0.67406 0.0
N330 N 0.50018 0.45074 0.64606 0.0
C331 C 0.52195 0.49061 0.667 0.0
C332 C 0.49682 0.50952 0.6822 0.0
C333 C 0.0276 0.50797 0.89841 0.0
C334 C 0.0434 0.5054 0.85012 0.0
C335 C 0.98352 0.48617 0.90823 0.0
C336 C 0.9541 0.46129 0.87 0.0
H337 H 0.04914 0.52996 0.92715 0.0
H338 H 0.97221 0.49166 0.94448 0.0
S339 S 0.9797 0.44145 0.73883 0.0
N340 N 0.02699 0.47361 0.76508 0.0
N341 N 0.94354 0.4323 0.78371 0.0
C342 C 0.96959 0.45536 0.82312 0.0
C343 C 0.01464 0.47762 0.8131 0.0
C344 C 0.4817 0.01535 1.00248 0.0
C345 C 0.46223 0.03997 0.01374 0.0
C346 C 0.46098 0.97132 0.01437 0.0
C347 C 0.42032 0.95071 0.03817 0.0
H348 H 0.51237 0.0298 0.98281 0.0
H349 H 0.47632 0.95312 1.00339 0.0
S350 S 0.35905 0.00279 0.08255 0.0
N351 N 0.40229 0.04173 0.05477 0.0
N352 N 0.36365 0.9595 0.07736 0.0
C353 C 0.40176 0.97568 0.05208 0.0
C354 C 0.42265 0.0202 0.03977 0.0
C355 C 0.41796 0.45953 0.22223 0.0
C356 C 0.43546 0.49608 0.1906 0.0
C357 C 0.44179 0.44014 0.23594 0.0
C358 C 0.48407 0.45626 0.21825 0.0
H359 H 0.38491 0.44475 0.23512 0.0
H360 H 0.42612 0.41106 0.25883 0.0
S361 S 0.54638 0.5542 0.13901 0.0
N362 N 0.4988 0.55028 0.1457 0.0
N363 N 0.54395 0.51333 0.17116 0.0
C364 C 0.50315 0.4946 0.18951 0.0
C365 C 0.47871 0.51466 0.17571 0.0
C366 C 0.23223 0.50346 0.30963 0.0
C367 C 0.19833 0.50772 0.28918 0.0
C368 C 0.26391 0.5035 0.27748 0.0
C369 C 0.26241 0.50651 0.22345 0.0
H370 H 0.23559 0.5023 0.35084 0.0
H371 H 0.2904 0.50202 0.29527 0.0
S372 S 0.17852 0.51511 0.15039 0.0
N373 N 0.16424 0.51328 0.21107 0.0
N374 N 0.22273 0.51174 0.15117 0.0
C375 C 0.22751 0.50859 0.20244 0.0
C376 C 0.19584 0.50965 0.23516 0.0
C377 C 0.76145 0.29412 0.4647 0.0
C378 C 0.76354 0.28803 0.41136 0.0
C379 C 0.732 0.26075 0.49708 0.0
C380 C 0.70248 0.22008 0.47731 0.0
H381 H 0.78249 0.32522 0.48164 0.0
H382 H 0.73127 0.26749 0.53743 0.0
S383 S 0.69576 0.18641 0.34111 0.0
N384 N 0.73474 0.23703 0.3412 0.0
N385 N 0.67878 0.1751 0.40108 0.0
C386 C 0.70502 0.21326 0.42432 0.0
C387 C 0.73561 0.24692 0.39165 0.0
C388 C 0.48576 0.70155 0.5831 0.0
C389 C 0.48784 0.70819 0.63689 0.0
C390 C 0.48374 0.73049 0.54813 0.0
C391 C 0.48316 0.76721 0.56526 0.0
H392 H 0.48478 0.67312 0.56767 0.0
H393 H 0.48105 0.72313 0.50749 0.0
S394 S 0.49149 0.80177 0.70152 0.0
N395 N 0.49217 0.75621 0.70488 0.0
N396 N 0.48765 0.81013 0.63987 0.0
C397 C 0.48674 0.7751 0.61882 0.0
C398 C 0.48931 0.74582 0.65435 0.0
C399 C 0.7903 0.4794 0.74851 0.0
C400 C 0.78542 0.47863 0.80246 0.0
C401 C 0.76191 0.48378 0.71488 0.0
C402 C 0.72671 0.4866 0.73365 0.0
H403 H 0.81599 0.47581 0.73192 0.0
H404 H 0.76659 0.48315 0.67387 0.0
S405 S 0.70025 0.4881 0.87142 0.0
N406 N 0.74359 0.48322 0.87272 0.0
N407 N 0.68969 0.49021 0.8101 0.0
C408 C 0.72205 0.48695 0.78751 0.0
C409 C 0.75149 0.48336 0.82172 0.0
C410 C 0.27152 0.76393 0.90976 0.0
C411 C 0.26649 0.75992 0.96379 0.0
C412 C 0.24302 0.73121 0.87611 0.0
C413 C 0.20868 0.69269 0.89507 0.0
H414 H 0.29838 0.79227 0.89316 0.0
H415 H 0.24917 0.7353 0.83518 0.0
S416 S 0.17852 0.66701 0.03243 0.0
N417 N 0.22173 0.71519 0.03374 0.0
N418 N 0.16955 0.65352 0.97123 0.0
C419 C 0.20238 0.68885 0.94875 0.0
C420 C 0.2308 0.72244 0.98286 0.0
C421 C 0.49922 0.29784 0.08453 0.0
C422 C 0.49529 0.29049 0.13824 0.0
C423 C 0.49691 0.26673 0.04951 0.0
C424 C 0.49108 0.22707 0.06672 0.0
H425 H 0.50516 0.32839 0.06927 0.0
H426 H 0.50157 0.27455 1.00898 0.0
S427 S 0.4749 0.18978 0.20249 0.0
N428 N 0.48185 0.23873 0.20592 0.0
N429 N 0.47835 0.18097 0.14095 0.0
C430 C 0.4855 0.21869 0.12006 0.0
C431 C 0.48733 0.25009 0.15553 0.0
loop_
_geom_bond_atom_site_label_1
_geom_bond_atom_site_label_2
_geom_bond_distance
_geom_bond_site_symmetry_2
_ccdc_geom_bond_type
Co0 O1 2.216 . S
Co0 O2 2.091 . S
Co0 O4 2.004 . S
Co0 O10 2.021 . S
Co0 O12 2.137 . S
Co0 O13 2.244 . S
O1 Co0 2.216 . S
O1 C8 1.247 . S
O2 Co0 2.091 . S
O2 C8 1.261 . S
C3 O12 1.247 . S
C3 O13 1.272 . S
O4 Co0 2.004 . S
O4 C9 1.259 . S
Co5 O6 2.061 . S
Co5 O11 2.052 . S
Co5 O13 2.135 . S
O6 Co5 2.061 . S
O6 C9 1.235 . S
C7 O10 1.238 . S
C7 O11 1.241 . S
C8 O1 1.247 . S
C8 O2 1.261 . S
C9 O4 1.259 . S
C9 O6 1.235 . S
O10 Co0 2.021 . S
O10 C7 1.238 . S
O11 Co5 2.052 . S
O11 C7 1.241 . S
O12 Co0 2.137 . S
O12 C3 1.247 . S
O13 Co0 2.244 . S
O13 C3 1.272 . S
O13 Co5 2.135 . S
Co14 O15 2.216 . S
Co14 O16 2.091 . S
Co14 O18 2.004 . S
Co14 O24 2.021 . S
Co14 O26 2.137 . S
Co14 O27 2.244 . S
O15 Co14 2.216 . S
O15 C22 1.247 . S
O16 Co14 2.091 . S
O16 C22 1.261 . S
C17 O26 1.247 . S
C17 O27 1.272 . S
O18 Co14 2.004 . S
O18 C23 1.259 . S
Co19 O20 2.061 . S
Co19 O25 2.052 . S
Co19 O27 2.135 . S
O20 Co19 2.061 . S
O20 C23 1.235 . S
C21 O24 1.238 . S
C21 O25 1.241 . S
C22 O15 1.247 . S
C22 O16 1.261 . S
C23 O18 1.259 . S
C23 O20 1.235 . S
O24 Co14 2.021 . S
O24 C21 1.238 . S
O25 Co19 2.052 . S
O25 C21 1.241 . S
O26 Co14 2.137 . S
O26 C17 1.247 . S
O27 Co14 2.244 . S
O27 C17 1.272 . S
O27 Co19 2.135 . S
Co28 O29 2.216 . S
Co28 O30 2.091 . S
Co28 O32 2.004 . S
Co28 O38 2.021 . S
Co28 O40 2.137 . S
Co28 O41 2.244 . S
O29 Co28 2.216 . S
O29 C36 1.247 . S
O30 Co28 2.091 . S
O30 C36 1.261 . S
C31 O40 1.247 . S
C31 O41 1.272 . S
O32 Co28 2.004 . S
O32 C37 1.259 . S
Co33 O34 2.061 . S
Co33 O39 2.052 . S
Co33 O41 2.135 . S
O34 Co33 2.061 . S
O34 C37 1.235 . S
C35 O38 1.238 . S
C35 O39 1.241 . S
C36 O29 1.247 . S
C36 O30 1.261 . S
C37 O32 1.259 . S
C37 O34 1.235 . S
O38 Co28 2.021 . S
O38 C35 1.238 . S
O39 Co33 2.052 . S
O39 C35 1.241 . S
O40 Co28 2.137 . S
O40 C31 1.247 . S
O41 Co28 2.244 . S
O41 C31 1.272 . S
O41 Co33 2.135 . S
Co42 O43 2.216 . S
Co42 O44 2.091 . S
Co42 O46 2.004 . S
Co42 O52 2.021 . S
Co42 O54 2.137 . S
Co42 O55 2.244 . S
O43 Co42 2.216 . S
O43 C50 1.247 . S
O44 Co42 2.091 . S
O44 C50 1.261 . S
C45 O54 1.247 . S
C45 O55 1.272 . S
O46 Co42 2.004 . S
O46 C51 1.259 . S
Co47 O48 2.061 . S
Co47 O53 2.052 . S
Co47 O55 2.135 . S
O48 Co47 2.061 . S
O48 C51 1.235 . S
C49 O52 1.238 . S
C49 O53 1.241 . S
C50 O43 1.247 . S
C50 O44 1.261 . S
C51 O46 1.259 . S
C51 O48 1.235 . S
O52 Co42 2.021 . S
O52 C49 1.238 . S
O53 Co47 2.052 . S
O53 C49 1.241 . S
O54 Co42 2.137 . S
O54 C45 1.247 . S
O55 Co42 2.244 . S
O55 C45 1.272 . S
O55 Co47 2.135 . S
Co56 O57 2.216 . S
Co56 O58 2.091 . S
Co56 O60 2.004 . S
Co56 O66 2.021 . S
Co56 O68 2.137 1_554 S
Co56 O69 2.244 . S
O57 Co56 2.216 . S
O57 C64 1.247 . S
O58 Co56 2.091 . S
O58 C64 1.261 . S
C59 O68 1.247 1_554 S
C59 O69 1.272 . S
O60 Co56 2.004 . S
O60 C65 1.259 . S
Co61 O62 2.061 . S
Co61 O67 2.052 . S
Co61 O69 2.135 . S
O62 Co61 2.061 . S
O62 C65 1.235 . S
C63 O66 1.238 . S
C63 O67 1.241 . S
C64 O57 1.247 . S
C64 O58 1.261 . S
C65 O60 1.259 . S
C65 O62 1.235 . S
O66 Co56 2.021 . S
O66 C63 1.238 . S
O67 Co61 2.052 . S
O67 C63 1.241 . S
O68 Co56 2.137 1_556 S
O68 C59 1.247 1_556 S
O69 Co56 2.244 . S
O69 C59 1.272 . S
O69 Co61 2.135 . S
Co70 O71 2.216 . S
Co70 O72 2.091 . S
Co70 O74 2.004 . S
Co70 O80 2.021 . S
Co70 O82 2.137 . S
Co70 O83 2.244 . S
O71 Co70 2.216 . S
O71 C78 1.247 . S
O72 Co70 2.091 . S
O72 C78 1.261 . S
C73 O82 1.247 . S
C73 O83 1.272 . S
O74 Co70 2.004 . S
O74 C79 1.259 . S
Co75 O76 2.061 . S
Co75 O81 2.052 . S
Co75 O83 2.135 . S
O76 Co75 2.061 . S
O76 C79 1.235 . S
C77 O80 1.238 . S
C77 O81 1.241 . S
C78 O71 1.247 . S
C78 O72 1.261 . S
C79 O74 1.259 . S
C79 O76 1.235 . S
O80 Co70 2.021 . S
O80 C77 1.238 . S
O81 Co75 2.052 . S
O81 C77 1.241 . S
O82 Co70 2.137 . S
O82 C73 1.247 . S
O83 Co70 2.244 . S
O83 C73 1.272 . S
O83 Co75 2.135 . S
Co84 O85 2.216 . S
Co84 O86 2.091 . S
Co84 O88 2.004 . S
Co84 O94 2.021 . S
Co84 O96 2.137 . S
Co84 O97 2.244 . S
O85 Co84 2.216 . S
O85 C92 1.247 . S
O86 Co84 2.091 . S
O86 C92 1.261 . S
C87 O96 1.247 . S
C87 O97 1.272 . S
O88 Co84 2.004 . S
O88 C93 1.259 . S
Co89 O90 2.061 . S
Co89 O95 2.052 . S
Co89 O97 2.135 . S
O90 Co89 2.061 . S
O90 C93 1.235 . S
C91 O94 1.238 . S
C91 O95 1.241 . S
C92 O85 1.247 . S
C92 O86 1.261 . S
C93 O88 1.259 . S
C93 O90 1.235 . S
O94 Co84 2.021 . S
O94 C91 1.238 . S
O95 Co89 2.052 . S
O95 C91 1.241 . S
O96 Co84 2.137 . S
O96 C87 1.247 . S
O97 Co84 2.244 . S
O97 C87 1.272 . S
O97 Co89 2.135 . S
Co98 O99 2.216 . S
Co98 O100 2.091 . S
Co98 O102 2.004 . S
Co98 O108 2.021 . S
Co98 O110 2.137 . S
Co98 O111 2.244 . S
O99 Co98 2.216 . S
O99 C106 1.247 . S
O100 Co98 2.091 . S
O100 C106 1.261 . S
C101 O110 1.247 . S
C101 O111 1.272 . S
O102 Co98 2.004 . S
O102 C107 1.259 . S
Co103 O104 2.061 . S
Co103 O109 2.052 . S
Co103 O111 2.135 . S
O104 Co103 2.061 . S
O104 C107 1.235 . S
C105 O108 1.238 . S
C105 O109 1.241 . S
C106 O99 1.247 . S
C106 O100 1.261 . S
C107 O102 1.259 . S
C107 O104 1.235 . S
O108 Co98 2.021 . S
O108 C105 1.238 . S
O109 Co103 2.052 . S
O109 C105 1.241 . S
O110 Co98 2.137 . S
O110 C101 1.247 . S
O111 Co98 2.244 . S
O111 C101 1.272 . S
O111 Co103 2.135 . S
Co112 O113 2.216 . S
Co112 O114 2.091 . S
Co112 O116 2.004 . S
Co112 O122 2.021 . S
Co112 O124 2.137 . S
Co112 O125 2.244 . S
O113 Co112 2.216 . S
O113 C120 1.247 . S
O114 Co112 2.091 . S
O114 C120 1.261 . S
C115 O124 1.247 . S
C115 O125 1.272 . S
O116 Co112 2.004 . S
O116 C121 1.259 . S
Co117 O118 2.061 . S
Co117 O123 2.052 . S
Co117 O125 2.135 . S
O118 Co117 2.061 . S
O118 C121 1.235 . S
C119 O122 1.238 . S
C119 O123 1.241 . S
C120 O113 1.247 . S
C120 O114 1.261 . S
C121 O116 1.259 . S
C121 O118 1.235 . S
O122 Co112 2.021 . S
O122 C119 1.238 . S
O123 Co117 2.052 . S
O123 C119 1.241 . S
O124 Co112 2.137 . S
O124 C115 1.247 . S
O125 Co112 2.244 . S
O125 C115 1.272 . S
O125 Co117 2.135 . S
Co126 O127 2.216 . S
Co126 O128 2.091 . S
Co126 O130 2.004 . S
Co126 O136 2.021 . S
Co126 O138 2.137 1_556 S
Co126 O139 2.244 . S
O127 Co126 2.216 . S
O127 C134 1.247 . S
O128 Co126 2.091 . S
O128 C134 1.261 . S
C129 O138 1.247 1_556 S
C129 O139 1.272 . S
O130 Co126 2.004 . S
O130 C135 1.259 . S
Co131 O132 2.061 . S
Co131 O137 2.052 . S
Co131 O139 2.135 . S
O132 Co131 2.061 . S
O132 C135 1.235 . S
C133 O136 1.238 . S
C133 O137 1.241 . S
C134 O127 1.247 . S
C134 O128 1.261 . S
C135 O130 1.259 . S
C135 O132 1.235 . S
O136 Co126 2.021 . S
O136 C133 1.238 . S
O137 Co131 2.052 . S
O137 C133 1.241 . S
O138 Co126 2.137 1_554 S
O138 C129 1.247 1_554 S
O139 Co126 2.244 . S
O139 C129 1.272 . S
O139 Co131 2.135 . S
Co140 O141 2.216 . S
Co140 O142 2.091 . S
Co140 O144 2.004 . S
Co140 O150 2.021 . S
Co140 O152 2.137 . S
Co140 O153 2.244 . S
O141 Co140 2.216 . S
O141 C148 1.247 . S
O142 Co140 2.091 . S
O142 C148 1.261 . S
C143 O152 1.247 . S
C143 O153 1.272 . S
O144 Co140 2.004 . S
O144 C149 1.259 . S
Co145 O146 2.061 . S
Co145 O151 2.052 . S
Co145 O153 2.135 . S
O146 Co145 2.061 . S
O146 C149 1.235 . S
C147 O150 1.238 . S
C147 O151 1.241 . S
C148 O141 1.247 . S
C148 O142 1.261 . S
C149 O144 1.259 . S
C149 O146 1.235 . S
O150 Co140 2.021 . S
O150 C147 1.238 . S
O151 Co145 2.052 . S
O151 C147 1.241 . S
O152 Co140 2.137 . S
O152 C143 1.247 . S
O153 Co140 2.244 . S
O153 C143 1.272 . S
O153 Co145 2.135 . S
Co154 O155 2.216 . S
Co154 O156 2.091 . S
Co154 O158 2.004 . S
Co154 O164 2.021 . S
Co154 O166 2.137 . S
Co154 O167 2.244 . S
O155 Co154 2.216 . S
O155 C162 1.247 . S
O156 Co154 2.091 . S
O156 C162 1.261 . S
C157 O166 1.247 . S
C157 O167 1.272 . S
O158 Co154 2.004 . S
O158 C163 1.259 . S
Co159 O160 2.061 . S
Co159 O165 2.052 . S
Co159 O167 2.135 . S
O160 Co159 2.061 . S
O160 C163 1.235 . S
C161 O164 1.238 . S
C161 O165 1.241 . S
C162 O155 1.247 . S
C162 O156 1.261 . S
C163 O158 1.259 . S
C163 O160 1.235 . S
O164 Co154 2.021 . S
O164 C161 1.238 . S
O165 Co159 2.052 . S
O165 C161 1.241 . S
O166 Co154 2.137 . S
O166 C157 1.247 . S
O167 Co154 2.244 . S
O167 C157 1.272 . S
O167 Co159 2.135 . S
C168 C169 1.369 . S
C168 C170 1.419 . S
C168 H172 0.930 . S
C169 C168 1.369 . S
C169 C178 1.429 . S
C170 C168 1.419 . S
C170 C171 1.363 . S
C170 H173 0.929 . S
C171 C170 1.363 . S
C171 C177 1.428 . S
H172 C168 0.930 . S
H173 C170 0.929 . S
S174 N175 1.613 . S
S174 N176 1.610 . S
N175 S174 1.613 . S
N175 C178 1.350 . S
N176 S174 1.610 . S
N176 C177 1.351 . S
C177 C171 1.428 . S
C177 N176 1.351 . S
C177 C178 1.434 . S
C178 C169 1.429 . S
C178 N175 1.350 . S
C178 C177 1.434 . S
C179 C180 1.369 . S
C179 C181 1.419 . S
C179 H183 0.930 . S
C180 C179 1.369 . S
C180 C189 1.429 . S
C181 C179 1.419 . S
C181 C182 1.363 . S
C181 H184 0.929 . S
C182 C181 1.363 . S
C182 C188 1.428 . S
H183 C179 0.930 . S
H184 C181 0.929 . S
S185 N186 1.613 . S
S185 N187 1.610 . S
N186 S185 1.613 . S
N186 C189 1.350 . S
N187 S185 1.610 . S
N187 C188 1.351 . S
C188 C182 1.428 . S
C188 N187 1.351 . S
C188 C189 1.434 . S
C189 C180 1.429 . S
C189 N186 1.350 . S
C189 C188 1.434 . S
C190 C191 1.369 . S
C190 C192 1.419 . S
C190 H194 0.930 . S
C191 C190 1.369 . S
C191 C200 1.429 . S
C192 C190 1.419 . S
C192 C193 1.363 . S
C192 H195 0.929 . S
C193 C192 1.363 . S
C193 C199 1.428 . S
H194 C190 0.930 . S
H195 C192 0.929 . S
S196 N197 1.613 . S
S196 N198 1.610 . S
N197 S196 1.613 . S
N197 C200 1.350 . S
N198 S196 1.610 . S
N198 C199 1.351 . S
C199 C193 1.428 . S
C199 N198 1.351 . S
C199 C200 1.434 . S
C200 C191 1.429 . S
C200 N197 1.350 . S
C200 C199 1.434 . S
C201 C202 1.369 . S
C201 C203 1.419 . S
C201 H205 0.930 . S
C202 C201 1.369 . S
C202 C211 1.429 . S
C203 C201 1.419 . S
C203 C204 1.363 . S
C203 H206 0.929 . S
C204 C203 1.363 . S
C204 C210 1.428 . S
H205 C201 0.930 . S
H206 C203 0.929 . S
S207 N208 1.613 . S
S207 N209 1.610 . S
N208 S207 1.613 . S
N208 C211 1.350 . S
N209 S207 1.610 . S
N209 C210 1.351 . S
C210 C204 1.428 . S
C210 N209 1.351 . S
C210 C211 1.434 . S
C211 C202 1.429 . S
C211 N208 1.350 . S
C211 C210 1.434 . S
C212 C213 1.369 . S
C212 C214 1.419 . S
C212 H216 0.930 . S
C213 C212 1.369 . S
C213 C222 1.429 . S
C214 C212 1.419 . S
C214 C215 1.363 . S
C214 H217 0.929 . S
C215 C214 1.363 . S
C215 C221 1.428 . S
H216 C212 0.930 . S
H217 C214 0.929 . S
S218 N219 1.613 . S
S218 N220 1.610 1_556 S
N219 S218 1.613 . S
N219 C222 1.350 1_556 S
N220 S218 1.610 1_554 S
N220 C221 1.351 . S
C221 C215 1.428 . S
C221 N220 1.351 . S
C221 C222 1.434 . S
C222 C213 1.429 . S
C222 N219 1.350 1_554 S
C222 C221 1.434 . S
C223 C224 1.369 . S
C223 C225 1.419 . S
C223 H227 0.930 . S
C224 C223 1.369 . S
C224 C233 1.429 . S
C225 C223 1.419 . S
C225 C226 1.363 . S
C225 H228 0.929 . S
C226 C225 1.363 . S
C226 C232 1.428 . S
H227 C223 0.930 . S
H228 C225 0.929 . S
S229 N230 1.613 . S
S229 N231 1.610 . S
N230 S229 1.613 . S
N230 C233 1.350 . S
N231 S229 1.610 . S
N231 C232 1.351 . S
C232 C226 1.428 . S
C232 N231 1.351 . S
C232 C233 1.434 . S
C233 C224 1.429 . S
C233 N230 1.350 . S
C233 C232 1.434 . S
C234 C235 1.369 . S
C234 C236 1.419 . S
C234 H238 0.930 . S
C235 C234 1.369 . S
C235 C244 1.429 . S
C236 C234 1.419 . S
C236 C237 1.363 . S
C236 H239 0.929 . S
C237 C236 1.363 . S
C237 C243 1.428 . S
H238 C234 0.930 . S
H239 C236 0.929 . S
S240 N241 1.613 . S
S240 N242 1.610 . S
N241 S240 1.613 . S
N241 C244 1.350 . S
N242 S240 1.610 . S
N242 C243 1.351 . S
C243 C237 1.428 . S
C243 N242 1.351 . S
C243 C244 1.434 . S
C244 C235 1.429 . S
C244 N241 1.350 . S
C244 C243 1.434 . S
C245 C246 1.369 . S
C245 C247 1.419 . S
C245 H249 0.930 . S
C246 C245 1.369 . S
C246 C255 1.429 . S
C247 C245 1.419 . S
C247 C248 1.363 . S
C247 H250 0.929 . S
C248 C247 1.363 . S
C248 C254 1.428 . S
H249 C245 0.930 . S
H250 C247 0.929 . S
S251 N252 1.613 . S
S251 N253 1.610 . S
N252 S251 1.613 . S
N252 C255 1.350 . S
N253 S251 1.610 . S
N253 C254 1.351 . S
C254 C248 1.428 . S
C254 N253 1.351 . S
C254 C255 1.434 . S
C255 C246 1.429 . S
C255 N252 1.350 . S
C255 C254 1.434 . S
C256 C257 1.369 . S
C256 C258 1.419 . S
C256 H260 0.932 1_556 S
C257 C256 1.369 . S
C257 C266 1.429 . S
C258 C256 1.419 . S
C258 C259 1.363 . S
C258 H261 0.929 . S
C259 C258 1.363 . S
C259 C265 1.428 . S
H260 C256 0.932 1_554 S
H261 C258 0.929 . S
S262 N263 1.613 . S
S262 N264 1.610 . S
N263 S262 1.613 . S
N263 C266 1.350 . S
N264 S262 1.610 . S
N264 C265 1.351 . S
C265 C259 1.428 . S
C265 N264 1.351 . S
C265 C266 1.434 . S
C266 C257 1.429 . S
C266 N263 1.350 . S
C266 C265 1.434 . S
C267 C268 1.369 . S
C267 C269 1.419 . S
C267 H271 0.930 . S
C268 C267 1.369 . S
C268 C277 1.429 . S
C269 C267 1.419 . S
C269 C270 1.363 . S
C269 H272 0.929 . S
C270 C269 1.363 . S
C270 C276 1.428 . S
H271 C267 0.930 . S
H272 C269 0.929 . S
S273 N274 1.613 1_556 S
S273 N275 1.610 . S
N274 S273 1.613 1_554 S
N274 C277 1.350 . S
N275 S273 1.610 . S
N275 C276 1.351 1_556 S
C276 C270 1.428 . S
C276 N275 1.351 1_554 S
C276 C277 1.434 . S
C277 C268 1.429 . S
C277 N274 1.350 . S
C277 C276 1.434 . S
C278 C279 1.369 . S
C278 C280 1.419 . S
C278 H282 0.930 . S
C279 C278 1.369 . S
C279 C288 1.429 . S
C280 C278 1.419 . S
C280 C281 1.363 . S
C280 H283 0.929 . S
C281 C280 1.363 . S
C281 C287 1.428 . S
H282 C278 0.930 . S
H283 C280 0.929 . S
S284 N285 1.613 . S
S284 N286 1.610 . S
N285 S284 1.613 . S
N285 C288 1.350 . S
N286 S284 1.610 . S
N286 C287 1.351 . S
C287 C281 1.428 . S
C287 N286 1.351 . S
C287 C288 1.434 . S
C288 C279 1.429 . S
C288 N285 1.350 . S
C288 C287 1.434 . S
C289 C290 1.369 . S
C289 C291 1.419 . S
C289 H293 0.930 . S
C290 C289 1.369 . S
C290 C299 1.429 . S
C291 C289 1.419 . S
C291 C292 1.363 . S
C291 H294 0.929 . S
C292 C291 1.363 . S
C292 C298 1.428 . S
H293 C289 0.930 . S
H294 C291 0.929 . S
S295 N296 1.613 . S
S295 N297 1.610 . S
N296 S295 1.613 . S
N296 C299 1.350 . S
N297 S295 1.610 . S
N297 C298 1.351 . S
C298 C292 1.428 . S
C298 N297 1.351 . S
C298 C299 1.434 . S
C299 C290 1.429 . S
C299 N296 1.350 . S
C299 C298 1.434 . S
C300 C301 1.369 . S
C300 C302 1.419 1_655 S
C300 H304 0.930 . S
C301 C300 1.369 . S
C301 C310 1.429 . S
C302 C300 1.419 1_455 S
C302 C303 1.363 . S
C302 H305 0.929 . S
C303 C302 1.363 . S
C303 C309 1.428 . S
H304 C300 0.930 . S
H305 C302 0.929 . S
S306 N307 1.613 1_455 S
S306 N308 1.610 . S
N307 S306 1.613 1_655 S
N307 C310 1.350 . S
N308 S306 1.610 . S
N308 C309 1.351 . S
C309 C303 1.428 . S
C309 N308 1.351 . S
C309 C310 1.434 1_455 S
C310 C301 1.429 . S
C310 N307 1.350 . S
C310 C309 1.434 1_655 S
C311 C312 1.369 . S
C311 C313 1.419 1_565 S
C311 H315 0.930 . S
C312 C311 1.369 . S
C312 C321 1.429 . S
C313 C311 1.419 1_545 S
C313 C314 1.363 . S
C313 H316 0.929 . S
C314 C313 1.363 . S
C314 C320 1.428 . S
H315 C311 0.930 . S
H316 C313 0.929 . S
S317 N318 1.613 1_545 S
S317 N319 1.610 . S
N318 S317 1.613 1_565 S
N318 C321 1.350 . S
N319 S317 1.610 . S
N319 C320 1.351 . S
C320 C314 1.428 . S
C320 N319 1.351 . S
C320 C321 1.434 1_545 S
C321 C312 1.429 . S
C321 N318 1.350 . S
C321 C320 1.434 1_565 S
C322 C323 1.369 . S
C322 C324 1.419 . S
C322 H326 0.930 . S
C323 C322 1.369 . S
C323 C332 1.429 . S
C324 C322 1.419 . S
C324 C325 1.363 . S
C324 H327 0.929 . S
C325 C324 1.363 . S
C325 C331 1.428 . S
H326 C322 0.930 . S
H327 C324 0.929 . S
S328 N329 1.613 . S
S328 N330 1.610 . S
N329 S328 1.613 . S
N329 C332 1.350 . S
N330 S328 1.610 . S
N330 C331 1.351 . S
C331 C325 1.428 . S
C331 N330 1.351 . S
C331 C332 1.434 . S
C332 C323 1.429 . S
C332 N329 1.350 . S
C332 C331 1.434 . S
C333 C334 1.369 . S
C333 C335 1.419 1_455 S
C333 H337 0.930 . S
C334 C333 1.369 . S
C334 C343 1.429 . S
C335 C333 1.419 1_655 S
C335 C336 1.363 . S
C335 H338 0.929 . S
C336 C335 1.363 . S
C336 C342 1.428 . S
H337 C333 0.930 . S
H338 C335 0.929 . S
S339 N340 1.613 1_655 S
S339 N341 1.610 . S
N340 S339 1.613 1_455 S
N340 C343 1.350 . S
N341 S339 1.610 . S
N341 C342 1.351 . S
C342 C336 1.428 . S
C342 N341 1.351 . S
C342 C343 1.434 1_655 S
C343 C334 1.429 . S
C343 N340 1.350 . S
C343 C342 1.434 1_455 S
C344 C345 1.369 . S
C344 C346 1.419 1_545 S
C344 H348 0.930 . S
C345 C344 1.369 . S
C345 C354 1.429 1_556 S
C346 C344 1.419 1_565 S
C346 C347 1.363 1_556 S
C346 H349 0.929 . S
C347 C346 1.363 1_554 S
C347 C353 1.428 . S
H348 C344 0.930 . S
H349 C346 0.929 . S
S350 N351 1.613 . S
S350 N352 1.610 1_545 S
N351 S350 1.613 . S
N351 C354 1.350 . S
N352 S350 1.610 1_565 S
N352 C353 1.351 . S
C353 C347 1.428 . S
C353 N352 1.351 . S
C353 C354 1.434 1_565 S
C354 C345 1.429 1_554 S
C354 N351 1.350 . S
C354 C353 1.434 1_545 S
C355 C356 1.369 . S
C355 C357 1.419 . S
C355 H359 0.930 . S
C356 C355 1.369 . S
C356 C365 1.429 . S
C357 C355 1.419 . S
C357 C358 1.363 . S
C357 H360 0.929 . S
C358 C357 1.363 . S
C358 C364 1.428 . S
H359 C355 0.930 . S
H360 C357 0.929 . S
S361 N362 1.613 . S
S361 N363 1.610 . S
N362 S361 1.613 . S
N362 C365 1.350 . S
N363 S361 1.610 . S
N363 C364 1.351 . S
C364 C358 1.428 . S
C364 N363 1.351 . S
C364 C365 1.434 . S
C365 C356 1.429 . S
C365 N362 1.350 . S
C365 C364 1.434 . S
C366 C367 1.369 . S
C366 C368 1.419 . S
C366 H370 0.930 . S
C367 C366 1.369 . S
C367 C376 1.429 . S
C368 C366 1.419 . S
C368 C369 1.363 . S
C368 H371 0.929 . S
C369 C368 1.363 . S
C369 C375 1.428 . S
H370 C366 0.930 . S
H371 C368 0.929 . S
S372 N373 1.613 . S
S372 N374 1.610 . S
N373 S372 1.613 . S
N373 C376 1.350 . S
N374 S372 1.610 . S
N374 C375 1.351 . S
C375 C369 1.428 . S
C375 N374 1.351 . S
C375 C376 1.434 . S
C376 C367 1.429 . S
C376 N373 1.350 . S
C376 C375 1.434 . S
C377 C378 1.369 . S
C377 C379 1.419 . S
C377 H381 0.930 . S
C378 C377 1.369 . S
C378 C387 1.429 . S
C379 C377 1.419 . S
C379 C380 1.363 . S
C379 H382 0.929 . S
C380 C379 1.363 . S
C380 C386 1.428 . S
H381 C377 0.930 . S
H382 C379 0.929 . S
S383 N384 1.613 . S
S383 N385 1.610 . S
N384 S383 1.613 . S
N384 C387 1.350 . S
N385 S383 1.610 . S
N385 C386 1.351 . S
C386 C380 1.428 . S
C386 N385 1.351 . S
C386 C387 1.434 . S
C387 C378 1.429 . S
C387 N384 1.350 . S
C387 C386 1.434 . S
C388 C389 1.369 . S
C388 C390 1.419 . S
C388 H392 0.930 . S
C389 C388 1.369 . S
C389 C398 1.429 . S
C390 C388 1.419 . S
C390 C391 1.363 . S
C390 H393 0.929 . S
C391 C390 1.363 . S
C391 C397 1.428 . S
H392 C388 0.930 . S
H393 C390 0.929 . S
S394 N395 1.613 . S
S394 N396 1.610 . S
N395 S394 1.613 . S
N395 C398 1.350 . S
N396 S394 1.610 . S
N396 C397 1.351 . S
C397 C391 1.428 . S
C397 N396 1.351 . S
C397 C398 1.434 . S
C398 C389 1.429 . S
C398 N395 1.350 . S
C398 C397 1.434 . S
C399 C400 1.369 . S
C399 C401 1.419 . S
C399 H403 0.930 . S
C400 C399 1.369 . S
C400 C409 1.429 . S
C401 C399 1.419 . S
C401 C402 1.363 . S
C401 H404 0.929 . S
C402 C401 1.363 . S
C402 C408 1.428 . S
H403 C399 0.930 . S
H404 C401 0.929 . S
S405 N406 1.613 . S
S405 N407 1.610 . S
N406 S405 1.613 . S
N406 C409 1.350 . S
N407 S405 1.610 . S
N407 C408 1.351 . S
C408 C402 1.428 . S
C408 N407 1.351 . S
C408 C409 1.434 . S
C409 C400 1.429 . S
C409 N406 1.350 . S
C409 C408 1.434 . S
C410 C411 1.369 . S
C410 C412 1.419 . S
C410 H414 0.930 . S
C411 C410 1.369 . S
C411 C420 1.429 . S
C412 C410 1.419 . S
C412 C413 1.363 . S
C412 H415 0.929 . S
C413 C412 1.363 . S
C413 C419 1.428 . S
H414 C410 0.930 . S
H415 C412 0.929 . S
S416 N417 1.613 1_556 S
S416 N418 1.610 . S
N417 S416 1.613 1_554 S
N417 C420 1.350 1_554 S
N418 S416 1.610 . S
N418 C419 1.351 . S
C419 C413 1.428 . S
C419 N418 1.351 . S
C419 C420 1.434 . S
C420 C411 1.429 . S
C420 N417 1.350 1_556 S
C420 C419 1.434 . S
C421 C422 1.369 . S
C421 C423 1.419 . S
C421 H425 0.930 . S
C422 C421 1.369 . S
C422 C431 1.429 . S
C423 C421 1.419 . S
C423 C424 1.363 . S
C423 H426 0.929 . S
C424 C423 1.363 . S
C424 C430 1.428 . S
H425 C421 0.930 . S
H426 C423 0.929 . S
S427 N428 1.613 . S
S427 N429 1.610 . S
N428 S427 1.613 . S
N428 C431 1.350 . S
N429 S427 1.610 . S
N429 C430 1.351 . S
C430 C424 1.428 . S
C430 N429 1.351 . S
C430 C431 1.434 . S
C431 C422 1.429 . S
C431 N428 1.350 . S
C431 C430 1.434 . S
C169 C9 0.982 . S
C171 C93 0.989 . S
C180 C23 0.990 . S
C182 C107 0.993 . S
C191 C121 0.991 . S
C193 C37 0.984 . S
C202 C51 0.991 . S
C204 C135 0.984 . S
C213 C65 0.988 . S
C215 C149 0.983 . S
C224 C163 0.981 . S
C226 C79 0.988 . S
C235 C119 1.666 . S
C237 C7 1.673 . S
C246 C21 1.674 . S
C248 C133 1.665 . S
C257 C147 1.674 1_556 S
C259 C35 1.665 . S
C268 C161 1.673 . S
C270 C49 1.665 1_554 S
C279 C63 1.674 . S
C281 C91 1.667 . S
C290 C77 1.672 . S
C292 C105 1.670 . S
C301 C162 1.405 . S
C303 C8 1.405 . S
C312 C92 1.406 . S
C314 C22 1.404 . S
C323 C36 1.406 . S
C325 C106 1.404 . S
C334 C120 1.406 . S
C336 C50 1.404 . S
C345 C134 1.404 . S
C347 C64 1.405 . S
C356 C148 1.406 . S
C358 C78 1.405 . S
C367 C3 1.581 . S
C369 C143 1.580 . S
C378 C157 1.582 . S
C380 C17 1.577 . S
C389 C31 1.575 . S
C391 C87 1.574 . S
C400 C45 1.579 . S
C402 C101 1.574 . S
C411 C59 1.581 1_556 S
C413 C115 1.575 . S
C422 C73 1.576 . S
C424 C129 1.574 1_554 S
