# Generated by pormake.
# Topology smw, (6)-cn, num edge types: 1
# Building blocks:
#     Node 0, Type 0, BuildingBlock: OJICUG_clean_sbu_0, # of connection points: 6
#     Node 1, Type 0, BuildingBlock: OJICUG_clean_sbu_0, # of connection points: 6
#     Node 2, Type 0, BuildingBlock: OJICUG_clean_sbu_0, # of connection points: 6
#     Node 3, Type 0, BuildingBlock: OJICUG_clean_sbu_0, # of connection points: 6
#     Node 4, Type 0, BuildingBlock: OJICUG_clean_sbu_0, # of connection points: 6
#     Node 5, Type 0, BuildingBlock: OJICUG_clean_sbu_0, # of connection points: 6
#     Node 6, Type 0, BuildingBlock: OJICUG_clean_sbu_0, # of connection points: 6
#     Node 7, Type 0, BuildingBlock: OJICUG_clean_sbu_0, # of connection points: 6
#     Node 8, Type 0, BuildingBlock: OJICUG_clean_sbu_0, # of connection points: 6
#     Node 9, Type 0, BuildingBlock: OJICUG_clean_sbu_0, # of connection points: 6
#     Node 10, Type 0, BuildingBlock: OJICUG_clean_sbu_0, # of connection points: 6
#     Node 11, Type 0, BuildingBlock: OJICUG_clean_sbu_0, # of connection points: 6
#     Edge 12, Type (0, 0), None
#     Edge 13, Type (0, 0), None
#     Edge 14, Type (0, 0), None
#     Edge 15, Type (0, 0), None
#     Edge 16, Type (0, 0), None
#     Edge 17, Type (0, 0), None
#     Edge 18, Type (0, 0), None
#     Edge 19, Type (0, 0), None
#     Edge 20, Type (0, 0), None
#     Edge 21, Type (0, 0), None
#     Edge 22, Type (0, 0), None
#     Edge 23, Type (0, 0), None
#     Edge 24, Type (0, 0), None
#     Edge 25, Type (0, 0), None
#     Edge 26, Type (0, 0), None
#     Edge 27, Type (0, 0), None
#     Edge 28, Type (0, 0), None
#     Edge 29, Type (0, 0), None
#     Edge 30, Type (0, 0), None
#     Edge 31, Type (0, 0), None
#     Edge 32, Type (0, 0), None
#     Edge 33, Type (0, 0), None
#     Edge 34, Type (0, 0), None
#     Edge 35, Type (0, 0), None
#     Edge 36, Type (0, 0), None
#     Edge 37, Type (0, 0), None
#     Edge 38, Type (0, 0), None
#     Edge 39, Type (0, 0), None
#     Edge 40, Type (0, 0), None
#     Edge 41, Type (0, 0), None
#     Edge 42, Type (0, 0), None
#     Edge 43, Type (0, 0), None
#     Edge 44, Type (0, 0), None
#     Edge 45, Type (0, 0), None
#     Edge 46, Type (0, 0), None
#     Edge 47, Type (0, 0), None
# Relax obj value: 0.103
# Max RMSD: 0.108
# Mean RMSD: 0.108
data_MOF--net-smw--node1-OJICUG_clean_sbu_0--edge1-none
_symmetry_space_group_name_H-M    P1
_symmetry_Int_Tables_number       1
_symmetry_cell_setting            triclinic
loop_
_symmetry_equiv_pos_as_xyz
'x, y, z'
_cell_length_a     28.330585
_cell_length_b     28.330431
_cell_length_c     10.489556
_cell_angle_alpha  89.999959
_cell_angle_beta   90.000082
_cell_angle_gamma 119.99934
loop_
_atom_site_label
_atom_site_type_symbol
_atom_site_fract_x
_atom_site_fract_y
_atom_site_fract_z
_atom_type_partial_charge
Sc0 Sc 0.47629 0.161 1.01203 0.0
Sc1 Sc 0.33314 0.07906 0.01237 0.0
Sc2 Sc 0.41678 0.02185 0.01316 0.0
O3 O 0.40866 0.08804 1.01176 0.0
C4 C 0.51432 0.09712 0.8354 0.0
C5 C 0.3979 0.17585 0.81558 0.0
C6 C 0.32862 -0.0073 0.80878 0.0
C7 C 0.39921 0.17847 0.20416 0.0
C8 C 0.49989 0.09359 0.22266 0.0
C9 C 0.31673 -0.0156 0.18761 0.0
O10 O 0.50982 0.13909 0.85229 0.0
O11 O 0.35327 0.13416 0.85043 0.0
O12 O 0.37524 -0.00039 0.8377 0.0
O13 O 0.44583 0.18717 0.16817 0.0
O14 O 0.45926 0.04721 0.19319 0.0
O15 O 0.31187 0.02639 0.17865 0.0
O16 O 0.51572 0.13611 0.15391 0.0
O17 O 0.3549 0.14456 0.14925 0.0
O18 O 0.33977 0.97211 0.10185 0.0
O19 O 0.44313 0.19175 0.87219 0.0
O20 O 0.49254 0.05669 0.9102 0.0
O21 O 0.30351 0.0114 0.87455 0.0
Sc22 Sc 0.29016 0.48885 1.01203 0.0
Sc23 Sc 0.22896 0.3457 0.01237 0.0
Sc24 Sc 0.3698 0.42934 0.01316 0.0
O25 O 0.2955 0.42122 1.01176 0.0
C26 C 0.39207 0.52688 0.8354 0.0
C27 C 0.19693 0.41047 0.81558 0.0
C28 C 0.3108 0.34118 0.80878 0.0
C29 C 0.19562 0.41177 0.20416 0.0
C30 C 0.38117 0.51245 0.22266 0.0
C31 C 0.30721 0.3293 0.18761 0.0
O32 O 0.34561 0.52238 0.85229 0.0
O33 O 0.19399 0.36584 0.85043 0.0
O34 O 0.35051 0.3878 0.8377 0.0
O35 O 0.23354 0.45839 0.16817 0.0
O36 O 0.38693 0.47182 0.19319 0.0
O37 O 0.26035 0.32443 0.17866 0.0
O38 O 0.35449 0.52828 0.15392 0.0
O39 O 0.18522 0.36747 0.14925 0.0
O40 O 0.34254 0.35233 0.10185 0.0
O41 O 0.22626 0.45569 0.87219 0.0
O42 O 0.41073 0.5051 0.91021 0.0
O43 O 0.26699 0.31608 0.87455 0.0
Sc44 Sc 0.77619 0.30273 1.01203 0.0
Sc45 Sc 0.85814 0.24152 0.01237 0.0
Sc46 Sc 0.91534 0.38237 0.01316 0.0
O47 O 0.84915 0.30806 1.01176 0.0
C48 C 0.84008 0.40464 0.8354 0.0
C49 C 0.76135 0.2095 0.81558 0.0
C50 C 0.9445 0.32336 0.80878 0.0
C51 C 0.75872 0.20818 0.20416 0.0
C52 C 0.8436 0.39374 0.22266 0.0
C53 C 0.95279 0.31977 0.18762 0.0
O54 O 0.79811 0.35818 0.85229 0.0
O55 O 0.80304 0.20656 0.85043 0.0
O56 O 0.93759 0.36307 0.83771 0.0
O57 O 0.75002 0.2461 0.16817 0.0
O58 O 0.88999 0.3995 0.19319 0.0
O59 O 0.9108 0.27291 0.17866 0.0
O60 O 0.80109 0.36705 0.15392 0.0
O61 O 0.79264 0.19779 0.14925 0.0
O62 O -0.03491 0.3551 0.10185 0.0
O63 O 0.74545 0.23883 0.87219 0.0
O64 O 0.8805 0.42329 0.91021 0.0
O65 O 0.9258 0.27955 0.87455 0.0
Sc66 Sc 0.44834 0.78876 1.01203 0.0
Sc67 Sc 0.59149 0.8707 0.01237 0.0
Sc68 Sc 0.50785 0.92791 0.01316 0.0
O69 O 0.51597 0.86172 1.01176 0.0
C70 C 0.41031 0.85264 0.8354 0.0
C71 C 0.52673 0.77391 0.81558 0.0
C72 C 0.59601 0.95706 0.80879 0.0
C73 C 0.52542 0.77128 0.20416 0.0
C74 C 0.42474 0.85616 0.22266 0.0
C75 C 0.6079 0.96536 0.18762 0.0
O76 O 0.41481 0.81067 0.85229 0.0
O77 O 0.57136 0.8156 0.85043 0.0
O78 O 0.5494 0.95015 0.83771 0.0
O79 O 0.4788 0.76258 0.16817 0.0
O80 O 0.46537 0.90255 0.19319 0.0
O81 O 0.61276 0.92336 0.17866 0.0
O82 O 0.40891 0.81365 0.15391 0.0
O83 O 0.56973 0.8052 0.14925 0.0
O84 O 0.58486 -0.02235 0.10186 0.0
O85 O 0.4815 0.75801 0.87219 0.0
O86 O 0.43209 0.89307 0.9102 0.0
O87 O 0.62112 0.93836 0.87456 0.0
Sc88 Sc 0.63447 0.46091 1.01203 0.0
Sc89 Sc 0.69567 0.60406 0.01237 0.0
Sc90 Sc 0.55483 0.52042 0.01316 0.0
O91 O 0.62913 0.52853 1.01176 0.0
C92 C 0.53256 0.42288 0.83539 0.0
C93 C 0.7277 0.53929 0.81558 0.0
C94 C 0.61383 0.60858 0.80878 0.0
C95 C 0.72901 0.53798 0.20415 0.0
C96 C 0.54346 0.4373 0.22265 0.0
C97 C 0.61742 0.62046 0.18762 0.0
O98 O 0.57902 0.42738 0.85229 0.0
O99 O 0.73064 0.58392 0.85043 0.0
O100 O 0.57412 0.56196 0.8377 0.0
O101 O 0.6911 0.49136 0.16817 0.0
O102 O 0.5377 0.47793 0.19319 0.0
O103 O 0.66428 0.62533 0.17866 0.0
O104 O 0.57014 0.42147 0.15391 0.0
O105 O 0.73941 0.58229 0.14925 0.0
O106 O 0.58209 0.59743 0.10185 0.0
O107 O 0.69837 0.49407 0.87219 0.0
O108 O 0.51391 0.44466 0.9102 0.0
O109 O 0.65764 0.63368 0.87455 0.0
Sc110 Sc 0.14844 0.64703 1.01203 0.0
Sc111 Sc 0.06649 0.70824 0.01237 0.0
Sc112 Sc 0.00929 0.56739 0.01316 0.0
O113 O 0.07548 0.6417 1.01176 0.0
C114 C 0.08456 0.54512 0.83539 0.0
C115 C 0.16328 0.74026 0.81558 0.0
C116 C -0.01987 0.6264 0.80878 0.0
C117 C 0.16591 0.74158 0.20416 0.0
C118 C 0.08103 0.55602 0.22265 0.0
C119 C -0.02816 0.62999 0.18761 0.0
O120 O 0.12652 0.59159 0.85229 0.0
O121 O 0.12159 0.7432 0.85043 0.0
O122 O -0.01296 0.58669 0.8377 0.0
O123 O 0.17461 0.70366 0.16817 0.0
O124 O 0.03464 0.55026 0.19318 0.0
O125 O 0.01383 0.67684 0.17866 0.0
O126 O 0.12355 0.58271 0.15391 0.0
O127 O 0.13199 0.75197 0.14925 0.0
O128 O 0.95955 0.59466 0.10185 0.0
O129 O 0.17918 0.71093 0.87219 0.0
O130 O 0.04413 0.52647 0.9102 0.0
O131 O -0.00117 0.67021 0.87455 0.0
Sc132 Sc 0.91536 0.52041 0.51317 0.0
Sc133 Sc 0.85816 0.60405 0.51237 0.0
Sc134 Sc 0.77621 0.4609 0.51203 0.0
O135 O 0.84917 0.52853 0.51176 0.0
C136 C 0.84008 0.42286 0.3354 0.0
C137 C 0.94455 0.60858 0.30883 0.0
C138 C 0.76137 0.53929 0.31558 0.0
C139 C 0.95286 0.62052 0.68754 0.0
C140 C 0.8436 0.43729 0.72267 0.0
C141 C 0.75874 0.53798 0.70415 0.0
O142 O 0.88052 0.44465 0.41018 0.0
O143 O 0.92582 0.63368 0.37456 0.0
O144 O 0.74547 0.49406 0.37219 0.0
O145 O -0.03488 0.5974 0.60191 0.0
O146 O 0.80109 0.42146 0.65392 0.0
O147 O 0.79266 0.58229 0.64925 0.0
O148 O 0.89 0.47791 0.69319 0.0
O149 O 0.91083 0.62532 0.67864 0.0
O150 O 0.75004 0.49136 0.66817 0.0
O151 O 0.93762 0.56196 0.33772 0.0
O152 O 0.79812 0.42737 0.3523 0.0
O153 O 0.80306 0.58392 0.35043 0.0
Sc154 Sc 0.36983 0.92792 0.51317 0.0
Sc155 Sc 0.22899 0.87073 0.51236 0.0
Sc156 Sc 0.29018 0.78877 0.51203 0.0
O157 O 0.29553 0.86174 0.51176 0.0
C158 C 0.39209 0.85264 0.3354 0.0
C159 C 0.31084 0.95711 0.30883 0.0
C160 C 0.19696 0.77393 0.31558 0.0
C161 C 0.30722 0.96542 0.68754 0.0
C162 C 0.38119 0.85616 0.72267 0.0
C163 C 0.19564 0.77131 0.70415 0.0
O164 O 0.41074 0.89308 0.41018 0.0
O165 O 0.26702 0.93839 0.37456 0.0
O166 O 0.22628 0.75803 0.37219 0.0
O167 O 0.3426 -0.02231 0.60191 0.0
O168 O 0.3545 0.81365 0.65391 0.0
O169 O 0.18525 0.80523 0.64925 0.0
O170 O 0.38696 0.90256 0.69319 0.0
O171 O 0.26039 0.92339 0.67864 0.0
O172 O 0.23356 0.7626 0.66817 0.0
O173 O 0.35054 0.95018 0.33772 0.0
O174 O 0.34563 0.81068 0.3523 0.0
O175 O 0.19402 0.81563 0.35043 0.0
Sc176 Sc 0.41679 0.3824 0.51317 0.0
Sc177 Sc 0.33315 0.24156 0.51237 0.0
Sc178 Sc 0.47629 0.30274 0.51203 0.0
O179 O 0.40867 0.30809 0.51176 0.0
C180 C 0.51434 0.40466 0.33539 0.0
C181 C 0.32862 0.32341 0.30883 0.0
C182 C 0.3979 0.20952 0.31558 0.0
C183 C 0.31668 0.31979 0.68754 0.0
C184 C 0.49991 0.39375 0.72266 0.0
C185 C 0.39921 0.2082 0.70415 0.0
O186 O 0.49255 0.42331 0.41017 0.0
O187 O 0.30352 0.27959 0.37457 0.0
O188 O 0.44313 0.23884 0.37219 0.0
O189 O 0.3398 0.35517 0.60192 0.0
O190 O 0.51574 0.36707 0.65391 0.0
O191 O 0.35491 0.19782 0.64925 0.0
O192 O 0.45929 0.39953 0.69318 0.0
O193 O 0.31188 0.27296 0.67864 0.0
O194 O 0.44583 0.24612 0.66817 0.0
O195 O 0.37524 0.36311 0.33772 0.0
O196 O 0.50983 0.35819 0.35229 0.0
O197 O 0.35327 0.20659 0.35043 0.0
Sc198 Sc 0.00927 0.42936 0.51317 0.0
Sc199 Sc 0.06647 0.34571 0.51237 0.0
Sc200 Sc 0.14843 0.48886 0.51203 0.0
O201 O 0.07546 0.42123 0.51176 0.0
C202 C 0.08456 0.5269 0.33539 0.0
C203 C -0.01991 0.34118 0.30883 0.0
C204 C 0.16326 0.41047 0.31558 0.0
C205 C -0.02823 0.32924 0.68754 0.0
C206 C 0.08103 0.51247 0.72266 0.0
C207 C 0.16589 0.41178 0.70415 0.0
O208 O 0.04412 0.50511 0.41017 0.0
O209 O -0.00119 0.31608 0.37457 0.0
O210 O 0.17917 0.4557 0.37219 0.0
O211 O 0.95951 0.35236 0.60192 0.0
O212 O 0.12354 0.5283 0.65391 0.0
O213 O 0.13197 0.36747 0.64925 0.0
O214 O 0.03464 0.47185 0.69318 0.0
O215 O 0.01381 0.32444 0.67864 0.0
O216 O 0.17459 0.4584 0.66817 0.0
O217 O -0.01299 0.3878 0.33773 0.0
O218 O 0.12652 0.52239 0.35229 0.0
O219 O 0.12157 0.36584 0.35043 0.0
Sc220 Sc 0.5548 0.02184 0.51317 0.0
Sc221 Sc 0.69564 0.07903 0.51237 0.0
Sc222 Sc 0.63445 0.16099 0.51203 0.0
O223 O 0.6291 0.08802 0.51176 0.0
C224 C 0.53254 0.09712 0.3354 0.0
C225 C 0.61379 -0.00735 0.30883 0.0
C226 C 0.72767 0.17583 0.31558 0.0
C227 C 0.61741 -0.01566 0.68754 0.0
C228 C 0.54344 0.0936 0.72267 0.0
C229 C 0.72899 0.17845 0.70415 0.0
O230 O 0.51389 0.05668 0.41018 0.0
O231 O 0.65761 0.01137 0.37457 0.0
O232 O 0.69835 0.19173 0.37219 0.0
O233 O 0.58203 0.97207 0.60192 0.0
O234 O 0.57013 0.13611 0.65391 0.0
O235 O 0.73938 0.14453 0.64925 0.0
O236 O 0.53767 0.0472 0.69319 0.0
O237 O 0.66424 0.02637 0.67864 0.0
O238 O 0.69108 0.18716 0.66817 0.0
O239 O 0.57409 -0.00043 0.33773 0.0
O240 O 0.579 0.13908 0.3523 0.0
O241 O 0.73061 0.13413 0.35043 0.0
Sc242 Sc 0.50784 0.56736 0.51317 0.0
Sc243 Sc 0.59148 0.7082 0.51237 0.0
Sc244 Sc 0.44834 0.64701 0.51203 0.0
O245 O 0.51596 0.64167 0.51176 0.0
C246 C 0.41029 0.5451 0.3354 0.0
C247 C 0.59601 0.62635 0.30883 0.0
C248 C 0.52672 0.74024 0.31558 0.0
C249 C 0.60795 0.62998 0.68754 0.0
C250 C 0.42473 0.55601 0.72267 0.0
C251 C 0.52542 0.74155 0.70415 0.0
O252 O 0.43208 0.52645 0.41018 0.0
O253 O 0.62111 0.67017 0.37457 0.0
O254 O 0.4815 0.71091 0.37219 0.0
O255 O 0.58484 0.59459 0.60192 0.0
O256 O 0.4089 0.58269 0.65392 0.0
O257 O 0.56972 0.75194 0.64925 0.0
O258 O 0.46535 0.55023 0.69319 0.0
O259 O 0.61275 0.67681 0.67864 0.0
O260 O 0.4788 0.70364 0.66817 0.0
O261 O 0.54939 0.58665 0.33773 0.0
O262 O 0.4148 0.59156 0.3523 0.0
O263 O 0.57135 0.74317 0.35043 0.0
loop_
_geom_bond_atom_site_label_1
_geom_bond_atom_site_label_2
_geom_bond_distance
_geom_bond_site_symmetry_2
_ccdc_geom_bond_type
Sc0 O3 2.025 . S
Sc0 O10 2.105 1_554 S
Sc0 O13 2.105 . S
Sc0 O16 2.105 . S
Sc0 O19 2.105 1_554 S
Sc1 O3 2.025 . S
Sc1 O11 2.105 1_554 S
Sc1 O15 2.105 . S
Sc1 O17 2.105 . S
Sc1 O21 2.105 1_554 S
Sc2 O3 2.025 . S
Sc2 O12 2.105 1_554 S
Sc2 O14 2.105 . S
Sc2 O18 2.105 . S
Sc2 O20 2.105 1_554 S
O3 Sc0 2.025 . S
O3 Sc1 2.025 . S
O3 Sc2 2.025 . S
C4 O10 1.268 . S
C4 O20 1.268 . S
C5 O11 1.268 . S
C5 O19 1.268 . S
C6 O12 1.268 . S
C6 O21 1.268 . S
C7 O13 1.268 . S
C7 O17 1.268 . S
C8 O14 1.268 . S
C8 O16 1.268 . S
C9 O15 1.268 . S
C9 O18 1.268 . S
O10 Sc0 2.105 1_556 S
O10 C4 1.268 . S
O11 Sc1 2.105 1_556 S
O11 C5 1.268 . S
O12 Sc2 2.105 1_556 S
O12 C6 1.268 . S
O13 Sc0 2.105 . S
O13 C7 1.268 . S
O14 Sc2 2.105 . S
O14 C8 1.268 . S
O15 Sc1 2.105 . S
O15 C9 1.268 . S
O16 Sc0 2.105 . S
O16 C8 1.268 . S
O17 Sc1 2.105 . S
O17 C7 1.268 . S
O18 Sc2 2.105 . S
O18 C9 1.268 . S
O19 Sc0 2.105 1_556 S
O19 C5 1.268 . S
O20 Sc2 2.105 1_556 S
O20 C4 1.268 . S
O21 Sc1 2.105 1_556 S
O21 C6 1.268 . S
Sc22 O25 2.025 . S
Sc22 O32 2.105 1_554 S
Sc22 O35 2.105 . S
Sc22 O38 2.105 . S
Sc22 O41 2.105 1_554 S
Sc23 O25 2.025 . S
Sc23 O33 2.105 1_554 S
Sc23 O37 2.105 . S
Sc23 O39 2.105 . S
Sc23 O43 2.105 1_554 S
Sc24 O25 2.025 . S
Sc24 O34 2.105 1_554 S
Sc24 O36 2.105 . S
Sc24 O40 2.105 . S
Sc24 O42 2.105 1_554 S
O25 Sc22 2.025 . S
O25 Sc23 2.025 . S
O25 Sc24 2.025 . S
C26 O32 1.268 . S
C26 O42 1.268 . S
C27 O33 1.268 . S
C27 O41 1.268 . S
C28 O34 1.268 . S
C28 O43 1.268 . S
C29 O35 1.268 . S
C29 O39 1.268 . S
C30 O36 1.268 . S
C30 O38 1.268 . S
C31 O37 1.268 . S
C31 O40 1.268 . S
O32 Sc22 2.105 1_556 S
O32 C26 1.268 . S
O33 Sc23 2.105 1_556 S
O33 C27 1.268 . S
O34 Sc24 2.105 1_556 S
O34 C28 1.268 . S
O35 Sc22 2.105 . S
O35 C29 1.268 . S
O36 Sc24 2.105 . S
O36 C30 1.268 . S
O37 Sc23 2.105 . S
O37 C31 1.268 . S
O38 Sc22 2.105 . S
O38 C30 1.268 . S
O39 Sc23 2.105 . S
O39 C29 1.268 . S
O40 Sc24 2.105 . S
O40 C31 1.268 . S
O41 Sc22 2.105 1_556 S
O41 C27 1.268 . S
O42 Sc24 2.105 1_556 S
O42 C26 1.268 . S
O43 Sc23 2.105 1_556 S
O43 C28 1.268 . S
Sc44 O47 2.025 . S
Sc44 O54 2.105 1_554 S
Sc44 O57 2.105 . S
Sc44 O60 2.105 . S
Sc44 O63 2.105 1_554 S
Sc45 O47 2.025 . S
Sc45 O55 2.105 1_554 S
Sc45 O59 2.105 . S
Sc45 O61 2.105 . S
Sc45 O65 2.105 1_554 S
Sc46 O47 2.025 . S
Sc46 O56 2.105 1_554 S
Sc46 O58 2.105 . S
Sc46 O62 2.105 . S
Sc46 O64 2.105 1_554 S
O47 Sc44 2.025 . S
O47 Sc45 2.025 . S
O47 Sc46 2.025 . S
C48 O54 1.268 . S
C48 O64 1.268 . S
C49 O55 1.268 . S
C49 O63 1.268 . S
C50 O56 1.268 . S
C50 O65 1.268 . S
C51 O57 1.268 . S
C51 O61 1.268 . S
C52 O58 1.268 . S
C52 O60 1.268 . S
C53 O59 1.268 . S
C53 O62 1.268 . S
O54 Sc44 2.105 1_556 S
O54 C48 1.268 . S
O55 Sc45 2.105 1_556 S
O55 C49 1.268 . S
O56 Sc46 2.105 1_556 S
O56 C50 1.268 . S
O57 Sc44 2.105 . S
O57 C51 1.268 . S
O58 Sc46 2.105 . S
O58 C52 1.268 . S
O59 Sc45 2.105 . S
O59 C53 1.268 . S
O60 Sc44 2.105 . S
O60 C52 1.268 . S
O61 Sc45 2.105 . S
O61 C51 1.268 . S
O62 Sc46 2.105 . S
O62 C53 1.268 . S
O63 Sc44 2.105 1_556 S
O63 C49 1.268 . S
O64 Sc46 2.105 1_556 S
O64 C48 1.268 . S
O65 Sc45 2.105 1_556 S
O65 C50 1.268 . S
Sc66 O69 2.025 . S
Sc66 O76 2.105 1_554 S
Sc66 O79 2.105 . S
Sc66 O82 2.105 . S
Sc66 O85 2.105 1_554 S
Sc67 O69 2.025 . S
Sc67 O77 2.105 1_554 S
Sc67 O81 2.105 . S
Sc67 O83 2.105 . S
Sc67 O87 2.105 1_554 S
Sc68 O69 2.025 . S
Sc68 O78 2.105 1_554 S
Sc68 O80 2.105 . S
Sc68 O84 2.105 . S
Sc68 O86 2.105 1_554 S
O69 Sc66 2.025 . S
O69 Sc67 2.025 . S
O69 Sc68 2.025 . S
C70 O76 1.268 . S
C70 O86 1.268 . S
C71 O77 1.268 . S
C71 O85 1.268 . S
C72 O78 1.268 . S
C72 O87 1.268 . S
C73 O79 1.268 . S
C73 O83 1.268 . S
C74 O80 1.268 . S
C74 O82 1.268 . S
C75 O81 1.268 . S
C75 O84 1.268 . S
O76 Sc66 2.105 1_556 S
O76 C70 1.268 . S
O77 Sc67 2.105 1_556 S
O77 C71 1.268 . S
O78 Sc68 2.105 1_556 S
O78 C72 1.268 . S
O79 Sc66 2.105 . S
O79 C73 1.268 . S
O80 Sc68 2.105 . S
O80 C74 1.268 . S
O81 Sc67 2.105 . S
O81 C75 1.268 . S
O82 Sc66 2.105 . S
O82 C74 1.268 . S
O83 Sc67 2.105 . S
O83 C73 1.268 . S
O84 Sc68 2.105 . S
O84 C75 1.268 . S
O85 Sc66 2.105 1_556 S
O85 C71 1.268 . S
O86 Sc68 2.105 1_556 S
O86 C70 1.268 . S
O87 Sc67 2.105 1_556 S
O87 C72 1.268 . S
Sc88 O91 2.025 . S
Sc88 O98 2.105 1_554 S
Sc88 O101 2.105 . S
Sc88 O104 2.105 . S
Sc88 O107 2.105 1_554 S
Sc89 O91 2.025 . S
Sc89 O99 2.105 1_554 S
Sc89 O103 2.105 . S
Sc89 O105 2.105 . S
Sc89 O109 2.105 1_554 S
Sc90 O91 2.025 . S
Sc90 O100 2.105 1_554 S
Sc90 O102 2.105 . S
Sc90 O106 2.105 . S
Sc90 O108 2.105 1_554 S
O91 Sc88 2.025 . S
O91 Sc89 2.025 . S
O91 Sc90 2.025 . S
C92 O98 1.268 . S
C92 O108 1.268 . S
C93 O99 1.268 . S
C93 O107 1.268 . S
C94 O100 1.268 . S
C94 O109 1.268 . S
C95 O101 1.268 . S
C95 O105 1.268 . S
C96 O102 1.268 . S
C96 O104 1.268 . S
C97 O103 1.268 . S
C97 O106 1.268 . S
O98 Sc88 2.105 1_556 S
O98 C92 1.268 . S
O99 Sc89 2.105 1_556 S
O99 C93 1.268 . S
O100 Sc90 2.105 1_556 S
O100 C94 1.268 . S
O101 Sc88 2.105 . S
O101 C95 1.268 . S
O102 Sc90 2.105 . S
O102 C96 1.268 . S
O103 Sc89 2.105 . S
O103 C97 1.268 . S
O104 Sc88 2.105 . S
O104 C96 1.268 . S
O105 Sc89 2.105 . S
O105 C95 1.268 . S
O106 Sc90 2.105 . S
O106 C97 1.268 . S
O107 Sc88 2.105 1_556 S
O107 C93 1.268 . S
O108 Sc90 2.105 1_556 S
O108 C92 1.268 . S
O109 Sc89 2.105 1_556 S
O109 C94 1.268 . S
Sc110 O113 2.025 . S
Sc110 O120 2.105 1_554 S
Sc110 O123 2.105 . S
Sc110 O126 2.105 . S
Sc110 O129 2.105 1_554 S
Sc111 O113 2.025 . S
Sc111 O121 2.105 1_554 S
Sc111 O125 2.105 . S
Sc111 O127 2.105 . S
Sc111 O131 2.105 1_554 S
Sc112 O113 2.025 . S
Sc112 O122 2.105 1_554 S
Sc112 O124 2.105 . S
Sc112 O128 2.105 . S
Sc112 O130 2.105 1_554 S
O113 Sc110 2.025 . S
O113 Sc111 2.025 . S
O113 Sc112 2.025 . S
C114 O120 1.268 . S
C114 O130 1.268 . S
C115 O121 1.268 . S
C115 O129 1.268 . S
C116 O122 1.268 . S
C116 O131 1.268 . S
C117 O123 1.268 . S
C117 O127 1.268 . S
C118 O124 1.268 . S
C118 O126 1.268 . S
C119 O125 1.268 . S
C119 O128 1.268 . S
O120 Sc110 2.105 1_556 S
O120 C114 1.268 . S
O121 Sc111 2.105 1_556 S
O121 C115 1.268 . S
O122 Sc112 2.105 1_556 S
O122 C116 1.268 . S
O123 Sc110 2.105 . S
O123 C117 1.268 . S
O124 Sc112 2.105 . S
O124 C118 1.268 . S
O125 Sc111 2.105 . S
O125 C119 1.268 . S
O126 Sc110 2.105 . S
O126 C118 1.268 . S
O127 Sc111 2.105 . S
O127 C117 1.268 . S
O128 Sc112 2.105 . S
O128 C119 1.268 . S
O129 Sc110 2.105 1_556 S
O129 C115 1.268 . S
O130 Sc112 2.105 1_556 S
O130 C114 1.268 . S
O131 Sc111 2.105 1_556 S
O131 C116 1.268 . S
Sc132 O135 2.025 . S
Sc132 O142 2.105 . S
Sc132 O145 2.105 . S
Sc132 O148 2.105 . S
Sc132 O151 2.105 . S
Sc133 O135 2.025 . S
Sc133 O143 2.105 . S
Sc133 O147 2.105 . S
Sc133 O149 2.105 . S
Sc133 O153 2.105 . S
Sc134 O135 2.025 . S
Sc134 O144 2.105 . S
Sc134 O146 2.105 . S
Sc134 O150 2.105 . S
Sc134 O152 2.105 . S
O135 Sc132 2.025 . S
O135 Sc133 2.025 . S
O135 Sc134 2.025 . S
C136 O142 1.268 . S
C136 O152 1.268 . S
C137 O143 1.268 . S
C137 O151 1.268 . S
C138 O144 1.268 . S
C138 O153 1.268 . S
C139 O145 1.268 . S
C139 O149 1.268 . S
C140 O146 1.268 . S
C140 O148 1.268 . S
C141 O147 1.268 . S
C141 O150 1.268 . S
O142 Sc132 2.105 . S
O142 C136 1.268 . S
O143 Sc133 2.105 . S
O143 C137 1.268 . S
O144 Sc134 2.105 . S
O144 C138 1.268 . S
O145 Sc132 2.105 . S
O145 C139 1.268 . S
O146 Sc134 2.105 . S
O146 C140 1.268 . S
O147 Sc133 2.105 . S
O147 C141 1.268 . S
O148 Sc132 2.105 . S
O148 C140 1.268 . S
O149 Sc133 2.105 . S
O149 C139 1.268 . S
O150 Sc134 2.105 . S
O150 C141 1.268 . S
O151 Sc132 2.105 . S
O151 C137 1.268 . S
O152 Sc134 2.105 . S
O152 C136 1.268 . S
O153 Sc133 2.105 . S
O153 C138 1.268 . S
Sc154 O157 2.025 . S
Sc154 O164 2.105 . S
Sc154 O167 2.105 . S
Sc154 O170 2.105 . S
Sc154 O173 2.105 . S
Sc155 O157 2.025 . S
Sc155 O165 2.105 . S
Sc155 O169 2.105 . S
Sc155 O171 2.105 . S
Sc155 O175 2.105 . S
Sc156 O157 2.025 . S
Sc156 O166 2.105 . S
Sc156 O168 2.105 . S
Sc156 O172 2.105 . S
Sc156 O174 2.105 . S
O157 Sc154 2.025 . S
O157 Sc155 2.025 . S
O157 Sc156 2.025 . S
C158 O164 1.268 . S
C158 O174 1.268 . S
C159 O165 1.268 . S
C159 O173 1.268 . S
C160 O166 1.268 . S
C160 O175 1.268 . S
C161 O167 1.268 . S
C161 O171 1.268 . S
C162 O168 1.268 . S
C162 O170 1.268 . S
C163 O169 1.268 . S
C163 O172 1.268 . S
O164 Sc154 2.105 . S
O164 C158 1.268 . S
O165 Sc155 2.105 . S
O165 C159 1.268 . S
O166 Sc156 2.105 . S
O166 C160 1.268 . S
O167 Sc154 2.105 . S
O167 C161 1.268 . S
O168 Sc156 2.105 . S
O168 C162 1.268 . S
O169 Sc155 2.105 . S
O169 C163 1.268 . S
O170 Sc154 2.105 . S
O170 C162 1.268 . S
O171 Sc155 2.105 . S
O171 C161 1.268 . S
O172 Sc156 2.105 . S
O172 C163 1.268 . S
O173 Sc154 2.105 . S
O173 C159 1.268 . S
O174 Sc156 2.105 . S
O174 C158 1.268 . S
O175 Sc155 2.105 . S
O175 C160 1.268 . S
Sc176 O179 2.025 . S
Sc176 O186 2.105 . S
Sc176 O189 2.105 . S
Sc176 O192 2.105 . S
Sc176 O195 2.105 . S
Sc177 O179 2.025 . S
Sc177 O187 2.105 . S
Sc177 O191 2.105 . S
Sc177 O193 2.105 . S
Sc177 O197 2.105 . S
Sc178 O179 2.025 . S
Sc178 O188 2.105 . S
Sc178 O190 2.105 . S
Sc178 O194 2.105 . S
Sc178 O196 2.105 . S
O179 Sc176 2.025 . S
O179 Sc177 2.025 . S
O179 Sc178 2.025 . S
C180 O186 1.268 . S
C180 O196 1.268 . S
C181 O187 1.268 . S
C181 O195 1.268 . S
C182 O188 1.268 . S
C182 O197 1.268 . S
C183 O189 1.268 . S
C183 O193 1.268 . S
C184 O190 1.268 . S
C184 O192 1.268 . S
C185 O191 1.268 . S
C185 O194 1.268 . S
O186 Sc176 2.105 . S
O186 C180 1.268 . S
O187 Sc177 2.105 . S
O187 C181 1.268 . S
O188 Sc178 2.105 . S
O188 C182 1.268 . S
O189 Sc176 2.105 . S
O189 C183 1.268 . S
O190 Sc178 2.105 . S
O190 C184 1.268 . S
O191 Sc177 2.105 . S
O191 C185 1.268 . S
O192 Sc176 2.105 . S
O192 C184 1.268 . S
O193 Sc177 2.105 . S
O193 C183 1.268 . S
O194 Sc178 2.105 . S
O194 C185 1.268 . S
O195 Sc176 2.105 . S
O195 C181 1.268 . S
O196 Sc178 2.105 . S
O196 C180 1.268 . S
O197 Sc177 2.105 . S
O197 C182 1.268 . S
Sc198 O201 2.025 . S
Sc198 O208 2.105 . S
Sc198 O211 2.105 . S
Sc198 O214 2.105 . S
Sc198 O217 2.105 . S
Sc199 O201 2.025 . S
Sc199 O209 2.105 . S
Sc199 O213 2.105 . S
Sc199 O215 2.105 . S
Sc199 O219 2.105 . S
Sc200 O201 2.025 . S
Sc200 O210 2.105 . S
Sc200 O212 2.105 . S
Sc200 O216 2.105 . S
Sc200 O218 2.105 . S
O201 Sc198 2.025 . S
O201 Sc199 2.025 . S
O201 Sc200 2.025 . S
C202 O208 1.268 . S
C202 O218 1.268 . S
C203 O209 1.268 . S
C203 O217 1.268 . S
C204 O210 1.268 . S
C204 O219 1.268 . S
C205 O211 1.268 . S
C205 O215 1.268 . S
C206 O212 1.268 . S
C206 O214 1.268 . S
C207 O213 1.268 . S
C207 O216 1.268 . S
O208 Sc198 2.105 . S
O208 C202 1.268 . S
O209 Sc199 2.105 . S
O209 C203 1.268 . S
O210 Sc200 2.105 . S
O210 C204 1.268 . S
O211 Sc198 2.105 . S
O211 C205 1.268 . S
O212 Sc200 2.105 . S
O212 C206 1.268 . S
O213 Sc199 2.105 . S
O213 C207 1.268 . S
O214 Sc198 2.105 . S
O214 C206 1.268 . S
O215 Sc199 2.105 . S
O215 C205 1.268 . S
O216 Sc200 2.105 . S
O216 C207 1.268 . S
O217 Sc198 2.105 . S
O217 C203 1.268 . S
O218 Sc200 2.105 . S
O218 C202 1.268 . S
O219 Sc199 2.105 . S
O219 C204 1.268 . S
Sc220 O223 2.025 . S
Sc220 O230 2.105 . S
Sc220 O233 2.105 . S
Sc220 O236 2.105 . S
Sc220 O239 2.105 . S
Sc221 O223 2.025 . S
Sc221 O231 2.105 . S
Sc221 O235 2.105 . S
Sc221 O237 2.105 . S
Sc221 O241 2.105 . S
Sc222 O223 2.025 . S
Sc222 O232 2.105 . S
Sc222 O234 2.105 . S
Sc222 O238 2.105 . S
Sc222 O240 2.105 . S
O223 Sc220 2.025 . S
O223 Sc221 2.025 . S
O223 Sc222 2.025 . S
C224 O230 1.268 . S
C224 O240 1.268 . S
C225 O231 1.268 . S
C225 O239 1.268 . S
C226 O232 1.268 . S
C226 O241 1.268 . S
C227 O233 1.268 . S
C227 O237 1.268 . S
C228 O234 1.268 . S
C228 O236 1.268 . S
C229 O235 1.268 . S
C229 O238 1.268 . S
O230 Sc220 2.105 . S
O230 C224 1.268 . S
O231 Sc221 2.105 . S
O231 C225 1.268 . S
O232 Sc222 2.105 . S
O232 C226 1.268 . S
O233 Sc220 2.105 . S
O233 C227 1.268 . S
O234 Sc222 2.105 . S
O234 C228 1.268 . S
O235 Sc221 2.105 . S
O235 C229 1.268 . S
O236 Sc220 2.105 . S
O236 C228 1.268 . S
O237 Sc221 2.105 . S
O237 C227 1.268 . S
O238 Sc222 2.105 . S
O238 C229 1.268 . S
O239 Sc220 2.105 . S
O239 C225 1.268 . S
O240 Sc222 2.105 . S
O240 C224 1.268 . S
O241 Sc221 2.105 . S
O241 C226 1.268 . S
Sc242 O245 2.025 . S
Sc242 O252 2.105 . S
Sc242 O255 2.105 . S
Sc242 O258 2.105 . S
Sc242 O261 2.105 . S
Sc243 O245 2.025 . S
Sc243 O253 2.105 . S
Sc243 O257 2.105 . S
Sc243 O259 2.105 . S
Sc243 O263 2.105 . S
Sc244 O245 2.025 . S
Sc244 O254 2.105 . S
Sc244 O256 2.105 . S
Sc244 O260 2.105 . S
Sc244 O262 2.105 . S
O245 Sc242 2.025 . S
O245 Sc243 2.025 . S
O245 Sc244 2.025 . S
C246 O252 1.268 . S
C246 O262 1.268 . S
C247 O253 1.268 . S
C247 O261 1.268 . S
C248 O254 1.268 . S
C248 O263 1.268 . S
C249 O255 1.268 . S
C249 O259 1.268 . S
C250 O256 1.268 . S
C250 O258 1.268 . S
C251 O257 1.268 . S
C251 O260 1.268 . S
O252 Sc242 2.105 . S
O252 C246 1.268 . S
O253 Sc243 2.105 . S
O253 C247 1.268 . S
O254 Sc244 2.105 . S
O254 C248 1.268 . S
O255 Sc242 2.105 . S
O255 C249 1.268 . S
O256 Sc244 2.105 . S
O256 C250 1.268 . S
O257 Sc243 2.105 . S
O257 C251 1.268 . S
O258 Sc242 2.105 . S
O258 C250 1.268 . S
O259 Sc243 2.105 . S
O259 C249 1.268 . S
O260 Sc244 2.105 . S
O260 C251 1.268 . S
O261 Sc242 2.105 . S
O261 C247 1.268 . S
O262 Sc244 2.105 . S
O262 C246 1.268 . S
O263 Sc243 2.105 . S
O263 C248 1.268 . S
C7 C182 1.405 . S
C204 C29 1.405 . S
C51 C226 1.405 . S
C248 C73 1.405 . S
C95 C138 1.405 . S
C160 C117 1.405 . S
C251 C71 1.407 . S
C93 C141 1.407 . S
C163 C115 1.407 . S
C185 C5 1.407 . S
C207 C27 1.407 . S
C49 C229 1.407 . S
C159 C9 1.480 1_565 S
C181 C31 1.480 . S
C203 C53 1.480 1_455 S
C75 C225 1.480 1_565 S
C97 C247 1.480 . S
C137 C119 1.480 1_655 S
C227 C72 1.482 1_545 S
C94 C249 1.482 . S
C139 C116 1.482 1_655 S
C161 C6 1.482 1_565 S
C28 C183 1.482 . S
C50 C205 1.482 1_655 S
C8 C224 1.584 . S
C30 C246 1.584 . S
C136 C52 1.584 . S
C158 C74 1.584 . S
C96 C180 1.584 . S
C202 C118 1.584 . S
C70 C162 1.586 . S
C92 C184 1.586 . S
C206 C114 1.586 . S
C228 C4 1.586 . S
C250 C26 1.586 . S
C140 C48 1.586 . S
