# Generated by pormake.
# Topology snz, (6)-cn, num edge types: 1
# Building blocks:
#     Node 0, Type 0, BuildingBlock: CUWYAW_clean_sbu_0, # of connection points: 6
#     Node 1, Type 0, BuildingBlock: CUWYAW_clean_sbu_0, # of connection points: 6
#     Node 2, Type 0, BuildingBlock: CUWYAW_clean_sbu_0, # of connection points: 6
#     Node 3, Type 0, BuildingBlock: CUWYAW_clean_sbu_0, # of connection points: 6
#     Node 4, Type 0, BuildingBlock: CUWYAW_clean_sbu_0, # of connection points: 6
#     Node 5, Type 0, BuildingBlock: CUWYAW_clean_sbu_0, # of connection points: 6
#     Node 6, Type 0, BuildingBlock: CUWYAW_clean_sbu_0, # of connection points: 6
#     Node 7, Type 0, BuildingBlock: CUWYAW_clean_sbu_0, # of connection points: 6
#     Node 8, Type 0, BuildingBlock: CUWYAW_clean_sbu_0, # of connection points: 6
#     Edge 9, Type (0, 0), BuildingBlock: AJUNOK_clean_linker_0, # of connection points: 2
#     Edge 10, Type (0, 0), BuildingBlock: AJUNOK_clean_linker_0, # of connection points: 2
#     Edge 11, Type (0, 0), BuildingBlock: AJUNOK_clean_linker_0, # of connection points: 2
#     Edge 12, Type (0, 0), BuildingBlock: AJUNOK_clean_linker_0, # of connection points: 2
#     Edge 13, Type (0, 0), BuildingBlock: AJUNOK_clean_linker_0, # of connection points: 2
#     Edge 14, Type (0, 0), BuildingBlock: AJUNOK_clean_linker_0, # of connection points: 2
#     Edge 15, Type (0, 0), BuildingBlock: AJUNOK_clean_linker_0, # of connection points: 2
#     Edge 16, Type (0, 0), BuildingBlock: AJUNOK_clean_linker_0, # of connection points: 2
#     Edge 17, Type (0, 0), BuildingBlock: AJUNOK_clean_linker_0, # of connection points: 2
#     Edge 18, Type (0, 0), BuildingBlock: AJUNOK_clean_linker_0, # of connection points: 2
#     Edge 19, Type (0, 0), BuildingBlock: AJUNOK_clean_linker_0, # of connection points: 2
#     Edge 20, Type (0, 0), BuildingBlock: AJUNOK_clean_linker_0, # of connection points: 2
#     Edge 21, Type (0, 0), BuildingBlock: AJUNOK_clean_linker_0, # of connection points: 2
#     Edge 22, Type (0, 0), BuildingBlock: AJUNOK_clean_linker_0, # of connection points: 2
#     Edge 23, Type (0, 0), BuildingBlock: AJUNOK_clean_linker_0, # of connection points: 2
#     Edge 24, Type (0, 0), BuildingBlock: AJUNOK_clean_linker_0, # of connection points: 2
#     Edge 25, Type (0, 0), BuildingBlock: AJUNOK_clean_linker_0, # of connection points: 2
#     Edge 26, Type (0, 0), BuildingBlock: AJUNOK_clean_linker_0, # of connection points: 2
#     Edge 27, Type (0, 0), BuildingBlock: AJUNOK_clean_linker_0, # of connection points: 2
#     Edge 28, Type (0, 0), BuildingBlock: AJUNOK_clean_linker_0, # of connection points: 2
#     Edge 29, Type (0, 0), BuildingBlock: AJUNOK_clean_linker_0, # of connection points: 2
#     Edge 30, Type (0, 0), BuildingBlock: AJUNOK_clean_linker_0, # of connection points: 2
#     Edge 31, Type (0, 0), BuildingBlock: AJUNOK_clean_linker_0, # of connection points: 2
#     Edge 32, Type (0, 0), BuildingBlock: AJUNOK_clean_linker_0, # of connection points: 2
#     Edge 33, Type (0, 0), BuildingBlock: AJUNOK_clean_linker_0, # of connection points: 2
#     Edge 34, Type (0, 0), BuildingBlock: AJUNOK_clean_linker_0, # of connection points: 2
#     Edge 35, Type (0, 0), BuildingBlock: AJUNOK_clean_linker_0, # of connection points: 2
# Relax obj value: 0.184
# Max RMSD: 0.226
# Mean RMSD: 0.222
data_MOF--net-snz--node1-CUWYAW_clean_sbu_0--edge1-AJUNOK_clean_linker_0
_symmetry_space_group_name_H-M    P1
_symmetry_Int_Tables_number       1
_symmetry_cell_setting            triclinic
loop_
_symmetry_equiv_pos_as_xyz
'x, y, z'
_cell_length_a     53.491982
_cell_length_b     53.451638
_cell_length_c     10.793029
_cell_angle_alpha  90.083486
_cell_angle_beta   90.076541
_cell_angle_gamma 119.90195
loop_
_atom_site_label
_atom_site_type_symbol
_atom_site_fract_x
_atom_site_fract_y
_atom_site_fract_z
_atom_type_partial_charge
C0 C 0.14563 0.47753 0.91037 0.0
Eu1 Eu 0.18564 0.4693 1.00028 0.0
C2 C 0.13526 0.4979 0.9311 0.0
C3 C 0.12238 0.49877 0.04336 0.0
C4 C 0.1135 0.51906 0.06035 0.0
C5 C 0.11786 0.53886 0.96623 0.0
C6 C 0.13067 0.53791 0.85441 0.0
C7 C 0.13921 0.51754 0.83689 0.0
C8 C 0.19921 0.46584 0.24639 0.0
C9 C 0.24348 0.52692 0.07141 0.0
C10 C 0.289 0.46044 0.08797 0.0
Eu11 Eu 0.24379 0.46427 0.02158 0.0
C12 C 0.31577 0.45924 0.12305 0.0
C13 C 0.34313 0.47969 0.0767 0.0
C14 C 0.36811 0.47805 0.10474 0.0
C15 C 0.36677 0.45601 0.18097 0.0
C16 C 0.33925 0.43536 0.22604 0.0
C17 C 0.31429 0.437 0.19798 0.0
C18 C 0.23096 0.46902 0.77588 0.0
C19 C 0.17892 0.40626 0.95887 0.0
O20 O 0.17159 0.48898 0.86296 0.0
O21 O 0.14067 0.4584 0.9972 0.0
O22 O 0.17698 0.46772 0.21036 0.0
O23 O 0.21211 0.46521 0.14899 0.0
O24 O 0.21775 0.51588 0.02092 0.0
O25 O 0.25659 0.51124 0.08991 0.0
O26 O 0.26254 0.44083 0.11876 0.0
O27 O 0.29055 0.48227 0.02609 0.0
O28 O 0.25316 0.46739 0.81236 0.0
O29 O 0.21782 0.46882 0.87365 0.0
O30 O 0.20643 0.41594 0.995 0.0
O31 O 0.16829 0.42361 0.94582 0.0
H32 H 0.11917 0.48389 0.11772 0.0
H33 H 0.10329 0.51935 0.14655 0.0
H34 H 0.13353 0.55256 0.77943 0.0
H35 H 0.14899 0.51716 0.74949 0.0
H36 H 0.3453 0.49701 0.01759 0.0
H37 H 0.38863 0.49436 0.06769 0.0
H38 H 0.33682 0.41748 0.28189 0.0
H39 H 0.29372 0.4206 0.23427 0.0
C40 C 0.83072 0.60596 0.97785 0.0
Eu41 Eu 0.83692 0.65638 0.02312 0.0
C42 C 0.80882 0.57526 0.98383 0.0
C43 C 0.80411 0.55943 0.0937 0.0
C44 C 0.78583 0.52959 0.09338 0.0
C45 C 0.77233 0.51537 0.98317 0.0
C46 C 0.77572 0.53137 0.87544 0.0
C47 C 0.79403 0.56104 0.87542 0.0
C48 C 0.84287 0.67919 0.25672 0.0
C49 C 0.77406 0.64884 0.05957 0.0
C50 C 0.83992 0.76042 0.0763 0.0
Eu51 Eu 0.83518 0.71012 0.02479 0.0
C52 C 0.84261 0.78927 0.10543 0.0
C53 C 0.83645 0.8047 0.01604 0.0
C54 C 0.83872 0.83161 0.04447 0.0
C55 C 0.84671 0.84384 0.16422 0.0
C56 C 0.85238 0.82793 0.25365 0.0
C57 C 0.85059 0.80138 0.22462 0.0
C58 C 0.82724 0.68694 0.79269 0.0
C59 C 0.89793 0.71036 0.97125 0.0
O60 O 0.82661 0.62137 0.89485 0.0
O61 O 0.84099 0.61971 0.08249 0.0
O62 O 0.85789 0.66814 0.21394 0.0
O63 O 0.82569 0.67806 0.17361 0.0
O64 O 0.78853 0.63658 0.01952 0.0
O65 O 0.78784 0.67718 0.08257 0.0
O66 O 0.85165 0.74869 0.14445 0.0
O67 O 0.82621 0.74507 0.97897 0.0
O68 O 0.81305 0.69874 0.83734 0.0
O69 O 0.84519 0.6883 0.87275 0.0
O70 O 0.8852 0.72606 0.99708 0.0
O71 O 0.88257 0.68224 0.96798 0.0
H72 H 0.81519 0.56987 0.17875 0.0
H73 H 0.78313 0.51753 0.17769 0.0
H74 H 0.76474 0.52081 0.79029 0.0
H75 H 0.79722 0.5727 0.78947 0.0
H76 H 0.83023 0.79614 0.92307 0.0
H77 H 0.83492 0.84308 0.97112 0.0
H78 H 0.85821 0.83595 0.34749 0.0
H79 H 0.85522 0.79014 0.29653 0.0
C80 C 0.69841 0.15907 0.02407 0.0
Eu81 Eu 0.64697 0.11435 0.02765 0.0
C82 C 0.72834 0.16545 0.01845 0.0
C83 C 0.74677 0.18045 0.11749 0.0
C84 C 0.77573 0.1883 0.1127 0.0
C85 C 0.7867 0.18161 1.00789 0.0
C86 C 0.76805 0.16552 0.91082 0.0
C87 C 0.73896 0.15743 0.91604 0.0
C88 C 0.61936 0.09751 0.25132 0.0
C89 C 0.65355 0.05884 0.04664 0.0
C90 C 0.54137 1.01168 0.08794 0.0
Eu91 Eu 0.59047 0.05721 0.02506 0.0
C92 C 0.51321 0.98496 0.12072 0.0
C93 C 0.50266 0.95919 0.05133 0.0
C94 C 0.47547 0.93473 0.0768 0.0
C95 C 0.45785 0.93495 0.17367 0.0
C96 C 0.46891 0.96064 0.24462 0.0
C97 C 0.49588 0.98513 0.21828 0.0
C98 C 0.60622 0.07076 0.78251 0.0
C99 C 0.59444 0.12103 0.95725 0.0
O100 O 0.68248 0.14857 0.92469 0.0
O101 O 0.6847 0.14675 0.12583 0.0
O102 O 0.62984 0.12315 0.20508 0.0
O103 O 0.6221 0.08138 0.17355 0.0
O104 O 0.66464 0.085 1.00191 0.0
O105 O 0.62532 0.04384 0.07411 0.0
O106 O 0.5494 1.03773 0.13003 0.0
O107 O 0.56044 1.01056 0.01555 0.0
O108 O 0.58402 0.04718 0.8194 0.0
O109 O 0.61992 0.08542 0.87652 0.0
O110 O 0.57801 0.09431 1.00482 0.0
O111 O 0.62179 0.13095 0.93688 0.0
H112 H 0.73886 0.18655 0.19781 0.0
H113 H 0.78972 0.20021 0.18948 0.0
H114 H 0.7762 0.16017 0.82908 0.0
H115 H 0.72504 0.14553 0.83908 0.0
H116 H 0.51514 0.95813 0.97466 0.0
H117 H 0.46793 0.91602 0.01733 0.0
H118 H 0.45655 0.96201 0.32102 0.0
H119 H 0.50307 1.00437 0.27422 0.0
C120 C 0.82446 1.02711 0.25369 0.0
Eu121 Eu 0.86993 1.02427 0.32419 0.0
C122 C 0.79765 1.02804 0.21788 0.0
C123 C 0.77235 1.01404 0.29002 0.0
C124 C 0.74776 1.01635 0.26152 0.0
C125 C 0.74733 1.03234 0.15824 0.0
C126 C 0.77258 0.04569 0.08462 0.0
C127 C 0.79729 0.04383 0.11454 0.0
C128 C 0.88397 1.02171 0.56989 0.0
C129 C 0.93328 0.08485 0.38789 0.0
C130 C 0.97144 1.01648 0.43316 0.0
Eu131 Eu 0.93071 1.02406 0.346 0.0
C132 C 0.98092 0.99524 0.41468 0.0
C133 C 0.99483 0.99447 0.30545 0.0
C134 C 1.00313 0.97367 0.29065 0.0
C135 C 0.99727 0.95326 0.384 0.0
C136 C 0.98333 0.95402 0.49265 0.0
C137 C 0.97531 0.97487 0.50798 0.0
C138 C 0.91563 1.02506 0.09961 0.0
C139 C 0.87348 0.96338 0.28972 0.0
O140 O 0.85074 0.04622 0.21878 0.0
O141 O 0.82315 1.00628 0.32251 0.0
O142 O 0.86064 1.02119 0.53321 0.0
O143 O 0.8976 1.02281 0.47233 0.0
O144 O 0.90549 0.07328 0.3519 0.0
O145 O 0.94615 0.06948 0.39936 0.0
O146 O 0.94617 1.00626 0.48596 0.0
O147 O 0.97564 1.03456 0.34258 0.0
O148 O 0.93898 1.02534 0.13553 0.0
O149 O 0.9024 1.02486 0.19719 0.0
O150 O 0.89965 0.97711 0.33685 0.0
O151 O 0.85861 0.97709 0.26582 0.0
H152 H 0.77181 1.00191 0.37125 0.0
H153 H 0.72951 1.00635 0.32352 0.0
H154 H 0.77346 0.05793 1.00331 0.0
H155 H 0.81623 0.05492 0.0566 0.0
H156 H 0.99939 1.0099 0.23185 0.0
H157 H 1.01419 0.97355 0.20684 0.0
H158 H 0.97931 0.93894 0.5673 0.0
H159 H 0.96478 0.97512 0.59331 0.0
C160 C 0.27571 0.73011 0.22533 0.0
Eu161 Eu 0.27688 0.77647 0.31609 0.0
C162 C 0.27052 0.69972 0.21673 0.0
C163 C 0.26976 0.68357 0.32122 0.0
C164 C 0.26731 0.65604 0.3078 0.0
C165 C 0.26595 0.64393 0.18944 0.0
C166 C 0.26672 0.66027 0.08562 0.0
C167 C 0.26873 0.68746 0.09915 0.0
C168 C 0.28094 0.7938 0.56057 0.0
C169 C 0.21611 0.77747 0.39848 0.0
C170 C 0.27941 0.88303 0.4282 0.0
Eu171 Eu 0.27518 0.83647 0.33623 0.0
C172 C 0.29771 0.91428 0.41581 0.0
C173 C 0.30103 0.92853 0.30253 0.0
C174 C 0.31835 0.9585 0.29623 0.0
C175 C 0.33246 0.97433 0.40288 0.0
C176 C 0.33013 0.9598 0.51419 0.0
C177 C 0.31262 0.93008 0.52089 0.0
C178 C 0.2743 0.82039 0.0904 0.0
C179 C 0.33684 0.84225 0.28024 0.0
O180 O 0.25511 0.73625 0.20474 0.0
O181 O 0.29618 0.74891 0.29804 0.0
O182 O 0.28208 0.77117 0.52418 0.0
O183 O 0.27869 0.80583 0.46317 0.0
O184 O 0.22818 0.76135 0.36692 0.0
O185 O 0.2302 0.80577 0.39115 0.0
O186 O 0.29227 0.86987 0.47591 0.0
O187 O 0.26171 0.86875 0.33681 0.0
O188 O 0.27354 0.84327 0.12595 0.0
O189 O 0.27472 0.80749 0.1883 0.0
O190 O 0.32243 0.85433 0.32402 0.0
O191 O 0.32398 0.81347 0.26167 0.0
H192 H 0.27138 0.69235 0.41328 0.0
H193 H 0.26708 0.64448 0.39045 0.0
H194 H 0.26545 0.65186 0.99305 0.0
H195 H 0.26932 0.69916 0.01651 0.0
H196 H 0.29014 0.91664 0.21956 0.0
H197 H 0.32031 0.96934 0.20903 0.0
H198 H 0.34176 0.97146 0.59645 0.0
H199 H 0.31072 0.91938 0.6085 0.0
C200 C 0.5716 0.47723 0.23025 0.0
Eu201 Eu 0.52473 0.43296 0.32029 0.0
C202 C 0.60185 0.50221 0.21444 0.0
C203 C 0.61709 0.52176 0.31108 0.0
C204 C 0.64428 0.5466 0.28978 0.0
C205 C 0.65696 0.55304 0.17071 0.0
C206 C 0.64177 0.53308 0.07504 0.0
C207 C 0.61478 0.50822 0.09656 0.0
C208 C 0.50811 0.41968 0.5666 0.0
C209 C 0.51755 0.36834 0.38826 0.0
C210 C 0.41426 0.3339 0.4329 0.0
Eu211 Eu 0.46145 0.3752 0.34299 0.0
C212 C 0.38322 0.31843 0.41333 0.0
C213 C 0.37086 0.30982 0.29508 0.0
C214 C 0.34089 0.29508 0.28189 0.0
C215 C 0.3233 0.28899 0.38675 0.0
C216 C 0.33597 0.29871 0.50384 0.0
C217 C 0.36569 0.31304 0.51706 0.0
C218 C 0.47802 0.38855 0.09617 0.0
C219 C 0.46176 0.43386 0.29478 0.0
O220 O 0.56417 0.45035 0.20408 0.0
O221 O 0.5539 0.47945 0.30756 0.0
O222 O 0.53214 0.44193 0.53111 0.0
O223 O 0.49486 0.40704 0.46827 0.0
O224 O 0.53549 0.39527 0.34605 0.0
O225 O 0.49002 0.35893 0.40695 0.0
O226 O 0.42521 0.36094 0.4668 0.0
O227 O 0.43031 0.3294 0.35406 0.0
O228 O 0.45395 0.36655 0.13297 0.0
O229 O 0.49155 0.40155 0.19351 0.0
O230 O 0.44749 0.40772 0.34064 0.0
O231 O 0.49012 0.44664 0.26797 0.0
H232 H 0.60782 0.51807 0.40297 0.0
H233 H 0.65511 0.56116 0.36639 0.0
H234 H 0.65084 0.53652 0.98287 0.0
H235 H 0.60368 0.49384 0.01966 0.0
H236 H 0.38426 0.31443 0.21364 0.0
H237 H 0.33146 0.28824 0.19057 0.0
H238 H 0.32287 0.29537 0.58534 0.0
H239 H 0.37504 0.32013 0.60848 0.0
C240 C 0.48264 0.16558 0.63122 0.0
Eu241 Eu 0.52411 0.21803 0.65253 0.0
C242 C 0.46016 0.14371 0.55225 0.0
C243 C 0.43342 0.14213 0.53511 0.0
C244 C 0.41081 0.11772 0.47934 0.0
C245 C 0.41471 0.09463 0.44292 0.0
C246 C 0.44212 0.09742 0.45154 0.0
C247 C 0.46463 0.12174 0.50574 0.0
C248 C 0.52853 0.26912 0.564 0.0
C249 C 0.56845 0.24058 0.42926 0.0
C250 C 0.62937 0.32367 0.71376 0.0
Eu251 Eu 0.58827 0.27101 0.69358 0.0
C252 C 0.65066 0.34586 0.79565 0.0
C253 C 0.67751 0.34819 0.81975 0.0
C254 C 0.69894 0.37265 0.8802 0.0
C255 C 0.69371 0.39499 0.91485 0.0
C256 C 0.6662 0.39155 0.8981 0.0
C257 C 0.64492 0.36724 0.83888 0.0
C258 C 0.58377 0.21985 0.78124 0.0
C259 C 0.5451 0.24704 0.91989 0.0
O260 O 0.50904 0.17467 0.59375 0.0
O261 O 0.4789 0.18568 0.68417 0.0
O262 O 0.50512 0.244 0.56331 0.0
O263 O 0.54763 0.26514 0.61496 0.0
O264 O 0.54744 0.2177 0.48287 0.0
O265 O 0.5858 0.26454 0.48933 0.0
O266 O 0.60252 0.31465 0.74382 0.0
O267 O 0.6338 0.30335 0.66822 0.0
O268 O 0.60722 0.24496 0.78288 0.0
O269 O 0.56475 0.22393 0.73015 0.0
O270 O 0.56566 0.27045 0.86726 0.0
O271 O 0.52717 0.22373 0.85738 0.0
H272 H 0.42957 0.15892 0.56988 0.0
H273 H 0.38988 0.11614 0.47148 0.0
H274 H 0.44568 0.07986 0.42539 0.0
H275 H 0.48508 0.12245 0.51842 0.0
H276 H 0.68238 0.33191 0.78729 0.0
H277 H 0.72 0.37484 0.89379 0.0
H278 H 0.66172 0.4086 0.9224 0.0
H279 H 0.62442 0.36604 0.82048 0.0
C280 C 0.13501 0.24643 0.63827 0.0
Eu281 Eu 0.08299 0.23717 0.65121 0.0
C282 C 0.15645 0.24647 0.55438 0.0
C283 C 0.1566 0.22113 0.52197 0.0
C284 C 0.1801 0.22293 0.45782 0.0
C285 C 0.20371 0.25005 0.42794 0.0
C286 C 0.20233 0.27508 0.45234 0.0
C287 C 0.17894 0.27329 0.51498 0.0
C288 C 1.03112 0.19159 0.56657 0.0
C289 C 0.06098 0.25788 0.42119 0.0
C290 C 0.97895 0.24264 0.68581 0.0
Eu291 Eu 1.03048 0.25032 0.68483 0.0
C292 C 0.957 0.24096 0.77057 0.0
C293 C 0.94065 0.25353 0.73449 0.0
C294 C 0.91551 0.24689 0.79785 0.0
C295 C 0.90652 0.22759 0.89778 0.0
C296 C 0.92393 0.21656 0.93933 0.0
C297 C 0.94926 0.22342 0.87658 0.0
C298 C 0.0819 0.29635 0.77397 0.0
C299 C 1.05114 0.22789 0.91296 0.0
O300 O 0.12731 0.26545 0.61089 0.0
O301 O 0.11373 0.22188 0.67983 0.0
O302 O 1.05572 0.19216 0.56131 0.0
O303 O 1.03641 0.21505 0.61713 0.0
O304 O 0.08327 0.2579 0.47291 0.0
O305 O 1.03856 0.25511 0.48264 0.0
O306 O 0.98472 0.22158 0.69367 0.0
O307 O 1.00168 0.26806 0.66668 0.0
O308 O 0.0569 0.29494 0.77498 0.0
O309 O 0.07768 0.273 0.72379 0.0
O310 O 1.02894 0.22796 0.8601 0.0
O311 O 0.07469 0.23273 0.85379 0.0
H312 H 0.13933 0.20018 0.55056 0.0
H313 H 0.18061 0.20332 0.43802 0.0
H314 H 0.22031 0.2963 0.43171 0.0
H315 H 0.17929 0.29316 0.53861 0.0
H316 H 0.94632 0.26697 0.65258 0.0
H317 H 0.90208 0.25525 0.7633 0.0
H318 H 0.91723 0.20162 0.01633 0.0
H319 H 0.96176 0.21362 0.90635 0.0
C320 C 0.06506 0.82605 0.67543 0.0
Eu321 Eu 0.06565 0.77802 0.66148 0.0
C322 C 0.0611 0.84526 0.59242 0.0
C323 C 0.07162 0.87386 0.62901 0.0
C324 C 0.06359 0.8912 0.56399 0.0
C325 C 1.04482 0.87999 0.46209 0.0
C326 C 1.03595 0.85192 0.42011 0.0
C327 C 1.04413 0.8346 0.48498 0.0
C328 C 0.1091 0.76738 0.5839 0.0
C329 C 1.0393 0.73772 0.42359 0.0
C330 C 1.04686 0.66176 0.6629 0.0
Eu331 Eu 1.04587 0.70954 0.67811 0.0
C332 C 1.05211 0.64367 0.7476 0.0
C333 C 1.04134 0.61466 0.71756 0.0
C334 C 1.0498 0.59814 0.78634 0.0
C335 C 0.06915 0.61056 0.88578 0.0
C336 C 0.07832 0.63911 0.92114 0.0
C337 C 0.0699 0.65566 0.85197 0.0
C338 C 1.00321 0.72007 0.76751 0.0
C339 C 0.0712 0.74912 0.91467 0.0
O340 O 1.04224 0.80067 0.69144 0.0
O341 O 0.08894 0.82513 0.66398 0.0
O342 O 0.11185 0.79289 0.59275 0.0
O343 O 0.08377 0.74989 0.62005 0.0
O344 O 1.04438 0.7619 0.47874 0.0
O345 O 1.03891 0.71579 0.48103 0.0
O346 O 0.06927 0.6871 0.64048 0.0
O347 O 1.023 0.66249 0.67928 0.0
O348 O 1.00187 0.69511 0.76888 0.0
O349 O 1.0273 0.73743 0.71849 0.0
O350 O 0.06994 0.7271 0.85408 0.0
O351 O 0.06942 0.77031 0.86077 0.0
H352 H 0.08471 0.88228 0.71184 0.0
H353 H 0.07048 0.91274 0.59839 0.0
H354 H 1.02164 0.84303 0.34108 0.0
H355 H 1.03598 0.81248 0.4553 0.0
H356 H 1.02759 0.60521 0.63722 0.0
H357 H 1.04268 0.57621 0.75679 0.0
H358 H 0.09307 0.64897 0.99818 0.0
H359 H 0.07841 0.67814 0.87608 0.0
C360 C 0.19627 0.46556 0.60391 0.0
C361 C 0.22313 0.4692 0.64109 0.0
C362 C 0.1889 0.46448 0.47685 0.0
C363 C 0.20787 0.46668 0.38046 0.0
H364 H 0.18061 0.46312 0.67316 0.0
H365 H 0.16793 0.46167 0.45401 0.0
S366 S 0.28129 0.47746 0.42654 0.0
N367 N 0.26913 0.47577 0.56861 0.0
N368 N 0.25511 0.47353 0.33309 0.0
C369 C 0.23481 0.47052 0.41641 0.0
C370 C 0.24241 0.4718 0.54536 0.0
C371 C 0.85308 0.68078 0.60911 0.0
C372 C 0.83009 0.68371 0.65619 0.0
C373 C 0.85719 0.67967 0.48045 0.0
C374 C 0.83854 0.68147 0.39284 0.0
H375 H 0.8683 0.6797 0.67209 0.0
H376 H 0.87523 0.67744 0.44943 0.0
S377 S 0.77405 0.68769 0.46742 0.0
N378 N 0.78771 0.68719 0.60406 0.0
N379 N 0.79551 0.68536 0.36402 0.0
C380 C 0.81526 0.68403 0.43888 0.0
C381 C 0.811 0.68504 0.56975 0.0
C382 C 0.59817 0.05686 0.55822 0.0
C383 C 0.61213 0.07865 0.6486 0.0
C384 C 0.60068 0.06318 0.43077 0.0
C385 C 0.61671 0.09169 0.38763 0.0
H386 H 0.58495 1.03455 0.58617 0.0
H387 H 0.58961 0.04557 0.36548 0.0
S388 S 0.65859 0.15674 0.58477 0.0
N389 N 0.64367 0.12987 0.68479 0.0
N390 N 0.64785 0.142 0.44619 0.0
C391 C 0.63111 0.11375 0.47677 0.0
C392 C 0.629 0.10718 0.60679 0.0
C393 C 0.91907 1.0264 0.7422 0.0
C394 C 0.89188 1.02181 0.70472 0.0
C395 C 0.92635 1.02738 0.86928 0.0
C396 C 0.90693 1.0241 0.96549 0.0
H397 H 0.93505 1.02966 0.67321 0.0
H398 H 0.9476 1.03096 0.89228 0.0
S399 S 0.83262 1.01081 0.91845 0.0
N400 N 0.84519 1.01346 0.77659 0.0
N401 N 0.85896 1.0153 0.01222 0.0
C402 C 0.87968 1.01934 0.9292 0.0
C403 C 0.87219 1.01825 0.80019 0.0
C404 C 0.27419 0.82304 0.7327 0.0
C405 C 0.2807 0.80167 0.69545 0.0
C406 C 0.27207 0.82866 0.8597 0.0
C407 C 0.27643 0.81328 0.95628 0.0
H408 H 0.2701 0.83517 0.6635 0.0
H409 H 0.26671 0.84518 0.8823 0.0
S410 S 0.29738 0.75749 0.91 0.0
N411 N 0.29352 0.76645 0.76793 0.0
N412 N 0.28993 0.77735 1.00357 0.0
C413 C 0.28382 0.79253 0.92027 0.0
C414 C 0.28588 0.78672 0.79125 0.0
C415 C 0.51501 0.43093 0.79759 0.0
C416 C 0.49978 0.41114 0.70073 0.0
C417 C 0.50845 0.4237 0.92461 0.0
C418 C 0.48625 0.39624 0.96144 0.0
H419 H 0.53222 0.45242 0.7751 0.0
H420 H 0.52066 0.43988 0.99426 0.0
S421 S 0.44137 0.33553 0.74681 0.0
N422 N 0.46276 0.36212 0.65369 0.0
N423 N 0.44989 0.34871 0.88875 0.0
C424 C 0.47116 0.37615 0.86557 0.0
C425 C 0.47801 0.38349 0.73672 0.0
C426 C 0.5708 0.26836 0.24486 0.0
C427 C 0.56612 0.24222 0.29596 0.0
C428 C 0.56205 0.26935 0.12463 0.0
C429 C 0.54841 0.24426 0.05202 0.0
H430 H 0.58013 0.28801 0.29953 0.0
H431 H 0.56625 0.28994 0.08781 0.0
S432 S 0.53331 0.17088 0.14129 0.0
N433 N 0.54846 0.19107 0.2649 0.0
N434 N 0.53192 0.19273 0.03715 0.0
C435 C 0.54399 0.218 0.1015 0.0
C436 C 0.55308 0.21709 0.22382 0.0
C437 C 0.08211 0.26234 0.21588 0.0
C438 C 0.05744 0.25196 0.28956 0.0
C439 C 0.08012 0.2524 0.09557 0.0
C440 C 1.05335 0.23181 0.0458 0.0
H441 H 0.10312 0.27802 0.25195 0.0
H442 H 0.09953 0.26194 0.03985 0.0
S443 S 0.98268 0.19616 0.204 0.0
N444 N 1.00557 0.21876 0.30753 0.0
N445 N 1.00205 0.20023 0.07895 0.0
C446 C 1.02859 0.22075 0.11904 0.0
C447 C 1.03053 0.23095 0.24155 0.0
C448 C 1.05421 0.76523 0.2294 0.0
C449 C 1.04267 0.73844 0.28924 0.0
C450 C 0.06582 0.76905 0.11165 0.0
C451 C 0.06564 0.74606 0.04763 0.0
H452 H 1.05556 0.7839 0.27533 0.0
H453 H 0.07445 0.79016 0.06969 0.0
S454 S 1.036 0.67084 0.15993 0.0
N455 N 1.0303 0.68797 0.27376 0.0
N456 N 1.05216 0.69523 0.05095 0.0
C457 C 1.05367 0.71893 0.10518 0.0
C458 C 1.04176 0.71499 0.2255 0.0
C459 C 0.43865 0.45478 0.15135 0.0
C460 C 0.443 0.44714 0.27136 0.0
C461 C 0.41472 0.4586 0.12346 0.0
C462 C 0.39374 0.45452 0.21369 0.0
H463 H 0.45274 0.45604 0.0767 0.0
H464 H 0.41188 0.4634 0.02877 0.0
S465 S 0.39664 0.43696 0.54458 0.0
N466 N 0.42509 0.43754 0.48234 0.0
N467 N 0.381 0.44483 0.43118 0.0
C468 C 0.39877 0.44822 0.33492 0.0
C469 C 0.42303 0.44453 0.36314 0.0
C470 C 0.8738 0.89179 0.27591 0.0
C471 C 0.85115 0.87366 0.19569 0.0
C472 C 0.87934 0.91956 0.308 0.0
C473 C 0.86305 0.93178 0.26062 0.0
H474 H 0.88815 0.88483 0.31312 0.0
H475 H 0.89738 0.9318 0.3699 0.0
S476 S 0.8003 0.89351 0.04917 0.0
N477 N 0.81107 0.8698 0.07291 0.0
N478 N 0.82245 0.92264 0.12948 0.0
C479 C 0.84 0.91394 0.18101 0.0
C480 C 0.834 0.88504 0.14906 0.0
C481 C 0.40537 0.91578 0.2283 0.0
C482 C 0.42737 0.90981 0.19661 0.0
C483 C 0.377 0.89383 0.25308 0.0
C484 C 0.36817 0.86399 0.24794 0.0
H485 H 0.40989 0.93789 0.23295 0.0
H486 H 0.36178 0.90084 0.27639 0.0
S487 S 0.41688 0.8357 0.16579 0.0
N488 N 0.43805 0.87112 0.15953 0.0
N489 N 0.38451 0.82989 0.20432 0.0
C490 C 0.38972 0.8574 0.21375 0.0
C491 C 0.41911 0.88011 0.18853 0.0
C492 C 0.60745 0.17286 0.95474 0.0
C493 C 0.58582 0.14378 0.93452 0.0
C494 C 0.60566 0.19637 0.90717 0.0
C495 C 0.58182 0.19281 0.83789 0.0
H496 H 0.6271 0.17773 1.00351 0.0
H497 H 0.62385 0.21778 0.92299 0.0
S498 S 0.51634 0.12174 0.77613 0.0
N499 N 0.53798 0.11301 0.85021 0.0
N500 N 0.53381 0.15736 0.76658 0.0
C501 C 0.55873 0.16402 0.82519 0.0
C502 C 0.56086 0.13961 0.87221 0.0
C503 C 0.10441 0.34065 0.90748 0.0
C504 C 0.10866 0.32139 0.83326 0.0
C505 C 0.12744 0.36629 0.95557 0.0
C506 C 0.15667 0.37497 0.93199 0.0
H507 H 0.08275 0.3364 0.92654 0.0
H508 H 0.12204 0.38024 1.00799 0.0
S509 S 0.18088 0.33131 0.75619 0.0
N510 N 0.1453 0.31186 0.74995 0.0
N511 N 0.18859 0.36057 0.8371 0.0
C512 C 0.16165 0.35531 0.86437 0.0
C513 C 0.13779 0.32859 0.81585 0.0
C514 C 0.96775 0.70885 0.93949 0.0
C515 C 0.98124 0.72542 0.83326 0.0
C516 C 0.94285 0.70732 0.99147 0.0
C517 C 0.92945 0.72202 0.94024 0.0
H518 H 0.97569 0.69557 0.97987 0.0
H519 H 0.93269 0.6926 0.06811 0.0
S520 S 0.95657 0.76985 0.66519 0.0
N521 N 0.97993 0.75836 0.68205 0.0
N522 N 0.93285 0.75507 0.7785 0.0
C523 C 0.94353 0.74005 0.83788 0.0
C524 C 0.96936 0.74182 0.7849 0.0
C525 C 0.0653 0.56588 0.97436 0.0
C526 C 0.08267 0.59481 0.93851 0.0
C527 C 0.07734 0.54827 0.99437 0.0
C528 C 0.10702 0.55912 0.97824 0.0
H529 H 1.04209 0.55638 0.97933 0.0
H530 H 0.06309 0.52556 0.0132 0.0
S531 S 0.16214 0.63406 0.89914 0.0
N532 N 0.13131 0.63414 0.89803 0.0
N533 N 0.15391 0.60094 0.93766 0.0
C534 C 0.12489 0.58851 0.9521 0.0
C535 C 0.1127 0.60644 0.93183 0.0
C536 C 0.73247 0.46868 0.06107 0.0
C537 C 0.75535 0.48374 0.97825 0.0
C538 C 0.71373 0.43907 0.04641 0.0
C539 C 0.71741 0.42377 0.94864 0.0
H540 H 0.72814 0.4801 0.13332 0.0
H541 H 0.69534 0.42837 0.10774 0.0
S542 S 0.77587 0.45325 0.71462 0.0
N543 N 0.78251 0.48109 0.80326 0.0
N544 N 0.74657 0.42559 0.77222 0.0
C545 C 0.74124 0.43837 0.86977 0.0
C546 C 0.76038 0.46839 0.8853 0.0
C547 C 0.85784 0.18615 0.93758 0.0
C548 C 0.8772 0.21598 0.94574 0.0
C549 C 0.82853 0.17494 0.96164 0.0
C550 C 0.81789 0.19325 0.99531 0.0
H551 H 0.86516 0.17158 0.90655 0.0
H552 H 0.81401 0.15194 0.95097 0.0
S553 S 0.86023 0.27276 0.03416 0.0
N554 N 0.88425 0.2634 0.99449 0.0
N555 N 0.82892 0.24244 0.03843 0.0
C556 C 0.83724 0.22299 1.00796 0.0
C557 C 0.86701 0.23435 0.98332 0.0
C558 C 0.70524 0.06998 0.05867 0.0
C559 C 0.6756 0.04945 0.07504 0.0
C560 C 0.72748 0.0641 0.08616 0.0
C561 C 0.72197 1.0371 0.13092 0.0
H562 H 0.71186 0.0915 0.02544 0.0
H563 H 0.74945 0.08143 0.07379 0.0
S564 S 0.64846 0.97493 0.19043 0.0
N565 N 0.64216 1.00055 0.1412 0.0
N566 N 0.68386 0.98899 0.18918 0.0
C567 C 0.69245 1.01607 0.14821 0.0
C568 C 0.66948 1.02229 0.12105 0.0
C569 C 0.2797 0.60951 0.08312 0.0
C570 C 0.26318 0.61433 0.17278 0.0
C571 C 0.27551 0.58153 0.05824 0.0
C572 C 0.25468 0.55696 0.1222 0.0
H573 H 0.29555 0.62747 0.02902 0.0
H574 H 0.28756 0.57896 0.98361 0.0
S575 S 0.20498 0.55696 0.36244 0.0
N576 N 0.22475 0.5913 0.32396 0.0
N577 N 0.2171 0.53949 0.27801 0.0
C578 C 0.23853 0.5616 0.21362 0.0
C579 C 0.24275 0.58993 0.23895 0.0
C580 C 0.73733 0.61159 0.20396 0.0
C581 C 0.74321 0.62875 0.09678 0.0
C582 C 0.70947 0.58804 0.22909 0.0
C583 C 0.68605 0.57995 0.14689 0.0
H584 H 0.75476 0.61576 0.26712 0.0
H585 H 0.7066 0.57531 0.31132 0.0
S586 S 0.68964 0.61861 0.85505 0.0
N587 N 0.72293 0.6364 0.90968 0.0
N588 N 0.67088 0.5927 0.95587 0.0
C589 C 0.69157 0.5975 0.04077 0.0
C590 C 0.71994 0.62162 0.01597 0.0
C591 C 1.04939 0.92547 0.37983 0.0
C592 C 1.03169 0.8964 0.41276 0.0
C593 C 1.03766 0.94339 0.36065 0.0
C594 C 1.00796 0.93277 0.37505 0.0
H595 H 0.07258 0.93476 0.37567 0.0
H596 H 1.05215 0.96611 0.34305 0.0
S597 S 0.95217 0.85768 0.44894 0.0
N598 N 0.98284 0.85727 0.45041 0.0
N599 N 0.96077 0.89104 0.4128 0.0
C600 C 0.98982 0.90332 0.39977 0.0
C601 C 1.00171 0.88506 0.4189 0.0
C602 C 0.39149 0.04917 0.3193 0.0
C603 C 0.38994 0.06587 0.4167 0.0
C604 C 0.37175 1.01962 0.31096 0.0
C605 C 0.34989 1.006 0.3997 0.0
H606 H 0.40902 0.05872 0.25319 0.0
H607 H 0.37463 1.00712 0.23904 0.0
S608 S 0.33496 0.04047 0.66579 0.0
N609 N 0.36392 0.06685 0.59989 0.0
N610 N 0.32596 1.01159 0.58019 0.0
C611 C 0.34692 1.02279 0.49237 0.0
C612 C 0.36715 0.05272 0.50178 0.0
C613 C 0.24872 0.27368 0.30291 0.0
C614 C 0.23183 0.25337 0.39365 0.0
C615 C 0.2783 0.28372 0.29441 0.0
C616 C 0.2917 0.27356 0.37592 0.0
H617 H 0.23941 0.28337 0.24428 0.0
H618 H 0.29102 0.30098 0.23004 0.0
S619 S 0.25655 0.21778 0.61847 0.0
N620 N 0.23032 0.22188 0.55977 0.0
N621 N 0.28565 0.23966 0.53878 0.0
C622 C 0.27463 0.25139 0.45907 0.0
C623 C 0.24468 0.24149 0.46905 0.0
C624 C 0.50506 0.29261 0.44953 0.0
C625 C 0.53 0.29614 0.50929 0.0
C626 C 0.50294 0.31602 0.40315 0.0
C627 C 0.52537 0.34507 0.41501 0.0
H628 H 0.48632 0.27131 0.43989 0.0
H629 H 0.48258 0.31104 0.36083 0.0
S630 S 0.59737 0.36692 0.54789 0.0
N631 N 0.57952 0.3314 0.56288 0.0
N632 N 0.57484 0.37568 0.48231 0.0
C633 C 0.55123 0.34917 0.4684 0.0
C634 C 0.55365 0.32481 0.51404 0.0
C635 C 0.95193 0.1305 0.52037 0.0
C636 C 0.95352 0.11658 0.41144 0.0
C637 C 0.97633 0.15611 0.56659 0.0
C638 C 1.00353 0.16838 0.50761 0.0
H639 H 0.93242 0.12041 0.57526 0.0
H640 H 0.97438 0.16503 0.65376 0.0
S641 S 1.0188 0.14172 0.21576 0.0
N642 N 0.98441 0.11876 0.24256 0.0
N643 N 1.0296 0.16546 0.32989 0.0
C644 C 1.00484 0.15539 0.39615 0.0
C645 C 0.98013 0.13001 0.34815 0.0
C646 C 0.13419 0.74665 0.44808 0.0
C647 C 0.13392 0.7624 0.5535 0.0
C648 C 0.1603 0.74868 0.40279 0.0
C649 C 0.18714 0.76616 0.46238 0.0
H650 H 0.11455 0.73442 0.39489 0.0
H651 H 0.15974 0.73822 0.31603 0.0
S652 S 0.19776 0.81052 0.74473 0.0
N653 N 0.16286 0.7952 0.71662 0.0
N654 N 0.21068 0.79818 0.63689 0.0
C655 C 0.1864 0.78043 0.57179 0.0
C656 C 0.16029 0.77884 0.61561 0.0
loop_
_geom_bond_atom_site_label_1
_geom_bond_atom_site_label_2
_geom_bond_distance
_geom_bond_site_symmetry_2
_ccdc_geom_bond_type
C0 Eu1 2.835 . S
C0 C2 1.500 . S
C0 O20 1.257 . S
C0 O21 1.260 . S
Eu1 C0 2.835 . S
Eu1 O20 2.473 . S
Eu1 O21 2.480 . S
Eu1 O22 2.430 . S
Eu1 O23 2.670 . S
Eu1 O24 2.394 . S
Eu1 O29 2.355 1_554 S
Eu1 O31 2.374 . S
C2 C0 1.500 . S
C2 C3 1.377 . S
C2 C7 1.377 1_554 S
C3 C2 1.377 . S
C3 C4 1.395 . S
C3 H32 0.931 . S
C4 C3 1.395 . S
C4 C5 1.383 . S
C4 H33 0.931 . S
C5 C4 1.383 . S
C5 C6 1.394 1_554 S
C6 C5 1.394 1_556 S
C6 C7 1.378 . S
C6 H34 0.931 . S
C7 C2 1.377 1_556 S
C7 C6 1.378 . S
C7 H35 0.931 . S
C8 O22 1.259 . S
C8 O23 1.270 . S
C9 O24 1.251 . S
C9 O25 1.251 . S
C10 Eu11 2.835 . S
C10 C12 1.500 . S
C10 O26 1.257 . S
C10 O27 1.260 . S
Eu11 C10 2.835 . S
Eu11 O23 2.355 . S
Eu11 O25 2.374 . S
Eu11 O26 2.473 . S
Eu11 O27 2.480 . S
Eu11 O28 2.430 1_554 S
Eu11 O29 2.670 1_554 S
Eu11 O30 2.394 . S
C12 C10 1.500 . S
C12 C13 1.377 . S
C12 C17 1.377 . S
C13 C12 1.377 . S
C13 C14 1.395 . S
C13 H36 0.931 . S
C14 C13 1.395 . S
C14 C15 1.383 . S
C14 H37 0.931 . S
C15 C14 1.383 . S
C15 C16 1.394 . S
C16 C15 1.394 . S
C16 C17 1.378 . S
C16 H38 0.931 . S
C17 C12 1.377 . S
C17 C16 1.378 . S
C17 H39 0.931 . S
C18 O28 1.259 . S
C18 O29 1.270 . S
C19 O30 1.251 . S
C19 O31 1.251 . S
O20 C0 1.257 . S
O20 Eu1 2.473 . S
O21 C0 1.260 . S
O21 Eu1 2.480 . S
O22 Eu1 2.430 . S
O22 C8 1.259 . S
O23 Eu1 2.670 . S
O23 C8 1.270 . S
O23 Eu11 2.355 . S
O24 Eu1 2.394 . S
O24 C9 1.251 . S
O25 C9 1.251 . S
O25 Eu11 2.374 . S
O26 C10 1.257 . S
O26 Eu11 2.473 . S
O27 C10 1.260 . S
O27 Eu11 2.480 . S
O28 Eu11 2.430 1_556 S
O28 C18 1.259 . S
O29 Eu1 2.355 1_556 S
O29 Eu11 2.670 1_556 S
O29 C18 1.270 . S
O30 Eu11 2.394 . S
O30 C19 1.251 . S
O31 Eu1 2.374 . S
O31 C19 1.251 . S
H32 C3 0.931 . S
H33 C4 0.931 . S
H34 C6 0.931 . S
H35 C7 0.931 . S
H36 C13 0.931 . S
H37 C14 0.931 . S
H38 C16 0.931 . S
H39 C17 0.931 . S
C40 Eu41 2.835 . S
C40 C42 1.500 . S
C40 O60 1.257 . S
C40 O61 1.260 . S
Eu41 C40 2.835 . S
Eu41 O60 2.473 . S
Eu41 O61 2.480 . S
Eu41 O62 2.430 . S
Eu41 O63 2.670 . S
Eu41 O64 2.394 . S
Eu41 O69 2.355 1_554 S
Eu41 O71 2.374 . S
C42 C40 1.500 . S
C42 C43 1.377 . S
C42 C47 1.377 1_554 S
C43 C42 1.377 . S
C43 C44 1.395 . S
C43 H72 0.931 . S
C44 C43 1.395 . S
C44 C45 1.383 . S
C44 H73 0.931 . S
C45 C44 1.383 . S
C45 C46 1.394 1_554 S
C46 C45 1.394 1_556 S
C46 C47 1.378 . S
C46 H74 0.931 . S
C47 C42 1.377 1_556 S
C47 C46 1.378 . S
C47 H75 0.931 . S
C48 O62 1.259 . S
C48 O63 1.270 . S
C49 O64 1.251 . S
C49 O65 1.251 . S
C50 Eu51 2.835 . S
C50 C52 1.500 . S
C50 O66 1.257 . S
C50 O67 1.260 . S
Eu51 C50 2.835 . S
Eu51 O63 2.355 . S
Eu51 O65 2.374 . S
Eu51 O66 2.473 . S
Eu51 O67 2.480 . S
Eu51 O68 2.430 1_554 S
Eu51 O69 2.670 1_554 S
Eu51 O70 2.394 . S
C52 C50 1.500 . S
C52 C53 1.377 . S
C52 C57 1.377 . S
C53 C52 1.377 . S
C53 C54 1.395 . S
C53 H76 0.931 . S
C54 C53 1.395 . S
C54 C55 1.383 . S
C54 H77 0.931 . S
C55 C54 1.383 . S
C55 C56 1.394 . S
C56 C55 1.394 . S
C56 C57 1.378 . S
C56 H78 0.931 . S
C57 C52 1.377 . S
C57 C56 1.378 . S
C57 H79 0.931 . S
C58 O68 1.259 . S
C58 O69 1.270 . S
C59 O70 1.251 . S
C59 O71 1.251 . S
O60 C40 1.257 . S
O60 Eu41 2.473 . S
O61 C40 1.260 . S
O61 Eu41 2.480 . S
O62 Eu41 2.430 . S
O62 C48 1.259 . S
O63 Eu41 2.670 . S
O63 C48 1.270 . S
O63 Eu51 2.355 . S
O64 Eu41 2.394 . S
O64 C49 1.251 . S
O65 C49 1.251 . S
O65 Eu51 2.374 . S
O66 C50 1.257 . S
O66 Eu51 2.473 . S
O67 C50 1.260 . S
O67 Eu51 2.480 . S
O68 Eu51 2.430 1_556 S
O68 C58 1.259 . S
O69 Eu41 2.355 1_556 S
O69 Eu51 2.670 1_556 S
O69 C58 1.270 . S
O70 Eu51 2.394 . S
O70 C59 1.251 . S
O71 Eu41 2.374 . S
O71 C59 1.251 . S
H72 C43 0.931 . S
H73 C44 0.931 . S
H74 C46 0.931 . S
H75 C47 0.931 . S
H76 C53 0.931 . S
H77 C54 0.931 . S
H78 C56 0.931 . S
H79 C57 0.931 . S
C80 Eu81 2.835 . S
C80 C82 1.500 . S
C80 O100 1.257 . S
C80 O101 1.260 . S
Eu81 C80 2.835 . S
Eu81 O100 2.473 . S
Eu81 O101 2.480 . S
Eu81 O102 2.430 . S
Eu81 O103 2.670 . S
Eu81 O104 2.394 . S
Eu81 O109 2.355 1_554 S
Eu81 O111 2.374 . S
C82 C80 1.500 . S
C82 C83 1.377 . S
C82 C87 1.377 1_554 S
C83 C82 1.377 . S
C83 C84 1.395 . S
C83 H112 0.931 . S
C84 C83 1.395 . S
C84 C85 1.383 . S
C84 H113 0.931 . S
C85 C84 1.383 . S
C85 C86 1.394 1_554 S
C86 C85 1.394 1_556 S
C86 C87 1.378 . S
C86 H114 0.931 . S
C87 C82 1.377 1_556 S
C87 C86 1.378 . S
C87 H115 0.931 . S
C88 O102 1.259 . S
C88 O103 1.270 . S
C89 O104 1.251 . S
C89 O105 1.251 . S
C90 Eu91 2.835 . S
C90 C92 1.500 1_545 S
C90 O106 1.257 . S
C90 O107 1.273 . S
Eu91 C90 2.835 . S
Eu91 O103 2.355 . S
Eu91 O105 2.374 . S
Eu91 O106 2.473 . S
Eu91 O107 2.480 . S
Eu91 O108 2.430 1_554 S
Eu91 O109 2.670 1_554 S
Eu91 O110 2.394 . S
C92 C90 1.500 1_565 S
C92 C93 1.377 . S
C92 C97 1.377 . S
C93 C92 1.377 . S
C93 C94 1.395 . S
C93 H116 0.931 . S
C94 C93 1.395 . S
C94 C95 1.383 . S
C94 H117 0.931 . S
C95 C94 1.383 . S
C95 C96 1.394 . S
C96 C95 1.394 . S
C96 C97 1.378 . S
C96 H118 0.931 . S
C97 C92 1.377 . S
C97 C96 1.378 . S
C97 H119 0.931 1_565 S
C98 O108 1.259 . S
C98 O109 1.270 . S
C99 O110 1.251 . S
C99 O111 1.251 . S
O100 C80 1.257 . S
O100 Eu81 2.473 . S
O101 C80 1.260 . S
O101 Eu81 2.480 . S
O102 Eu81 2.430 . S
O102 C88 1.259 . S
O103 Eu81 2.670 . S
O103 C88 1.270 . S
O103 Eu91 2.355 . S
O104 Eu81 2.394 . S
O104 C89 1.251 . S
O105 C89 1.251 . S
O105 Eu91 2.374 . S
O106 C90 1.257 . S
O106 Eu91 2.473 . S
O107 C90 1.273 . S
O107 Eu91 2.480 . S
O108 Eu91 2.430 1_556 S
O108 C98 1.259 . S
O109 Eu81 2.355 1_556 S
O109 Eu91 2.670 1_556 S
O109 C98 1.270 . S
O110 Eu91 2.394 . S
O110 C99 1.251 . S
O111 Eu81 2.374 . S
O111 C99 1.251 . S
H112 C83 0.931 . S
H113 C84 0.931 . S
H114 C86 0.931 . S
H115 C87 0.931 . S
H116 C93 0.931 . S
H117 C94 0.931 . S
H118 C96 0.931 . S
H119 C97 0.931 1_545 S
C120 Eu121 2.835 1_545 S
C120 C122 1.500 . S
C120 O140 1.257 . S
C120 O141 1.255 1_545 S
Eu121 C120 2.835 1_565 S
Eu121 O140 2.473 1_565 S
Eu121 O141 2.489 . S
Eu121 O142 2.430 . S
Eu121 O143 2.670 . S
Eu121 O144 2.394 1_565 S
Eu121 O149 2.355 . S
Eu121 O151 2.374 . S
C122 C120 1.500 . S
C122 C123 1.377 . S
C122 C127 1.377 . S
C123 C122 1.377 . S
C123 C124 1.395 . S
C123 H152 0.931 . S
C124 C123 1.395 . S
C124 C125 1.383 . S
C124 H153 0.931 . S
C125 C124 1.383 . S
C125 C126 1.394 . S
C126 C125 1.394 . S
C126 C127 1.378 . S
C126 H154 0.931 1_554 S
C127 C122 1.377 . S
C127 C126 1.378 . S
C127 H155 0.931 1_554 S
C128 O142 1.259 . S
C128 O143 1.270 . S
C129 O144 1.251 . S
C129 O145 1.251 . S
C130 Eu131 2.835 . S
C130 C132 1.500 . S
C130 O146 1.257 . S
C130 O147 1.260 . S
Eu131 C130 2.835 . S
Eu131 O143 2.355 . S
Eu131 O145 2.374 1_565 S
Eu131 O146 2.473 . S
Eu131 O147 2.480 . S
Eu131 O148 2.430 1_554 S
Eu131 O149 2.670 . S
Eu131 O150 2.394 . S
C132 C130 1.500 . S
C132 C133 1.377 . S
C132 C137 1.377 . S
C133 C132 1.377 . S
C133 C134 1.395 . S
C133 H156 0.931 . S
C134 C133 1.395 . S
C134 C135 1.383 . S
C134 H157 0.931 . S
C135 C134 1.383 . S
C135 C136 1.394 . S
C136 C135 1.394 . S
C136 C137 1.378 . S
C136 H158 0.931 . S
C137 C132 1.377 . S
C137 C136 1.378 . S
C137 H159 0.931 . S
C138 O148 1.259 . S
C138 O149 1.270 1_556 S
C139 O150 1.251 . S
C139 O151 1.251 . S
O140 C120 1.257 . S
O140 Eu121 2.473 1_545 S
O141 C120 1.255 1_565 S
O141 Eu121 2.489 . S
O142 Eu121 2.430 . S
O142 C128 1.259 . S
O143 Eu121 2.670 . S
O143 C128 1.270 . S
O143 Eu131 2.355 . S
O144 Eu121 2.394 1_545 S
O144 C129 1.251 . S
O145 C129 1.251 . S
O145 Eu131 2.374 1_545 S
O146 C130 1.257 . S
O146 Eu131 2.473 . S
O147 C130 1.260 . S
O147 Eu131 2.480 . S
O148 Eu131 2.430 1_556 S
O148 C138 1.259 . S
O149 Eu121 2.355 . S
O149 Eu131 2.670 . S
O149 C138 1.270 1_554 S
O150 Eu131 2.394 . S
O150 C139 1.251 . S
O151 Eu121 2.374 . S
O151 C139 1.251 . S
H152 C123 0.931 . S
H153 C124 0.931 . S
H154 C126 0.931 1_556 S
H155 C127 0.931 1_556 S
H156 C133 0.931 . S
H157 C134 0.931 . S
H158 C136 0.931 . S
H159 C137 0.931 . S
C160 Eu161 2.835 . S
C160 C162 1.500 . S
C160 O180 1.257 . S
C160 O181 1.260 . S
Eu161 C160 2.835 . S
Eu161 O180 2.473 . S
Eu161 O181 2.480 . S
Eu161 O182 2.430 . S
Eu161 O183 2.670 . S
Eu161 O184 2.394 . S
Eu161 O189 2.355 . S
Eu161 O191 2.374 . S
C162 C160 1.500 . S
C162 C163 1.377 . S
C162 C167 1.377 . S
C163 C162 1.377 . S
C163 C164 1.395 . S
C163 H192 0.931 . S
C164 C163 1.395 . S
C164 C165 1.383 . S
C164 H193 0.931 . S
C165 C164 1.383 . S
C165 C166 1.394 . S
C166 C165 1.394 . S
C166 C167 1.378 . S
C166 H194 0.931 1_554 S
C167 C162 1.377 . S
C167 C166 1.378 . S
C167 H195 0.931 1_554 S
C168 O182 1.259 . S
C168 O183 1.270 . S
C169 O184 1.251 . S
C169 O185 1.251 . S
C170 Eu171 2.835 . S
C170 C172 1.500 . S
C170 O186 1.257 . S
C170 O187 1.260 . S
Eu171 C170 2.835 . S
Eu171 O183 2.355 . S
Eu171 O185 2.374 . S
Eu171 O186 2.473 . S
Eu171 O187 2.480 . S
Eu171 O188 2.430 1_554 S
Eu171 O189 2.670 . S
Eu171 O190 2.394 . S
C172 C170 1.500 . S
C172 C173 1.377 . S
C172 C177 1.377 . S
C173 C172 1.377 . S
C173 C174 1.395 . S
C173 H196 0.931 . S
C174 C173 1.395 . S
C174 C175 1.383 . S
C174 H197 0.931 . S
C175 C174 1.383 . S
C175 C176 1.394 . S
C176 C175 1.394 . S
C176 C177 1.378 . S
C176 H198 0.931 . S
C177 C172 1.377 . S
C177 C176 1.378 . S
C177 H199 0.931 . S
C178 O188 1.259 . S
C178 O189 1.270 1_556 S
C179 O190 1.251 . S
C179 O191 1.251 . S
O180 C160 1.257 . S
O180 Eu161 2.473 . S
O181 C160 1.260 . S
O181 Eu161 2.480 . S
O182 Eu161 2.430 . S
O182 C168 1.259 . S
O183 Eu161 2.670 . S
O183 C168 1.270 . S
O183 Eu171 2.355 . S
O184 Eu161 2.394 . S
O184 C169 1.251 . S
O185 C169 1.251 . S
O185 Eu171 2.374 . S
O186 C170 1.257 . S
O186 Eu171 2.473 . S
O187 C170 1.260 . S
O187 Eu171 2.480 . S
O188 Eu171 2.430 1_556 S
O188 C178 1.259 . S
O189 Eu161 2.355 . S
O189 Eu171 2.670 . S
O189 C178 1.270 1_554 S
O190 Eu171 2.394 . S
O190 C179 1.251 . S
O191 Eu161 2.374 . S
O191 C179 1.251 . S
H192 C163 0.931 . S
H193 C164 0.931 . S
H194 C166 0.931 1_556 S
H195 C167 0.931 1_556 S
H196 C173 0.931 . S
H197 C174 0.931 . S
H198 C176 0.931 . S
H199 C177 0.931 . S
C200 Eu201 2.835 . S
C200 C202 1.500 . S
C200 O220 1.257 . S
C200 O221 1.260 . S
Eu201 C200 2.835 . S
Eu201 O220 2.473 . S
Eu201 O221 2.480 . S
Eu201 O222 2.430 . S
Eu201 O223 2.670 . S
Eu201 O224 2.394 . S
Eu201 O229 2.355 . S
Eu201 O231 2.374 . S
C202 C200 1.500 . S
C202 C203 1.377 . S
C202 C207 1.377 . S
C203 C202 1.377 . S
C203 C204 1.395 . S
C203 H232 0.931 . S
C204 C203 1.395 . S
C204 C205 1.383 . S
C204 H233 0.931 . S
C205 C204 1.383 . S
C205 C206 1.394 . S
C206 C205 1.394 . S
C206 C207 1.378 . S
C206 H234 0.931 1_554 S
C207 C202 1.377 . S
C207 C206 1.378 . S
C207 H235 0.931 1_554 S
C208 O222 1.259 . S
C208 O223 1.270 . S
C209 O224 1.251 . S
C209 O225 1.251 . S
C210 Eu211 2.835 . S
C210 C212 1.500 . S
C210 O226 1.257 . S
C210 O227 1.260 . S
Eu211 C210 2.835 . S
Eu211 O223 2.355 . S
Eu211 O225 2.374 . S
Eu211 O226 2.473 . S
Eu211 O227 2.480 . S
Eu211 O228 2.430 1_554 S
Eu211 O229 2.670 . S
Eu211 O230 2.394 . S
C212 C210 1.500 . S
C212 C213 1.377 . S
C212 C217 1.377 . S
C213 C212 1.377 . S
C213 C214 1.395 . S
C213 H236 0.931 . S
C214 C213 1.395 . S
C214 C215 1.383 . S
C214 H237 0.931 . S
C215 C214 1.383 . S
C215 C216 1.394 . S
C216 C215 1.394 . S
C216 C217 1.378 . S
C216 H238 0.931 . S
C217 C212 1.377 . S
C217 C216 1.378 . S
C217 H239 0.931 . S
C218 O228 1.259 . S
C218 O229 1.270 1_556 S
C219 O230 1.251 . S
C219 O231 1.251 . S
O220 C200 1.257 . S
O220 Eu201 2.473 . S
O221 C200 1.260 . S
O221 Eu201 2.480 . S
O222 Eu201 2.430 . S
O222 C208 1.259 . S
O223 Eu201 2.670 . S
O223 C208 1.270 . S
O223 Eu211 2.355 . S
O224 Eu201 2.394 . S
O224 C209 1.251 . S
O225 C209 1.251 . S
O225 Eu211 2.374 . S
O226 C210 1.257 . S
O226 Eu211 2.473 . S
O227 C210 1.260 . S
O227 Eu211 2.480 . S
O228 Eu211 2.430 1_556 S
O228 C218 1.259 . S
O229 Eu201 2.355 . S
O229 Eu211 2.670 . S
O229 C218 1.270 1_554 S
O230 Eu211 2.394 . S
O230 C219 1.251 . S
O231 Eu201 2.374 . S
O231 C219 1.251 . S
H232 C203 0.931 . S
H233 C204 0.931 . S
H234 C206 0.931 1_556 S
H235 C207 0.931 1_556 S
H236 C213 0.931 . S
H237 C214 0.931 . S
H238 C216 0.931 . S
H239 C217 0.931 . S
C240 Eu241 2.835 . S
C240 C242 1.500 . S
C240 O260 1.257 . S
C240 O261 1.260 . S
Eu241 C240 2.835 . S
Eu241 O260 2.473 . S
Eu241 O261 2.480 . S
Eu241 O262 2.430 . S
Eu241 O263 2.670 . S
Eu241 O264 2.394 . S
Eu241 O269 2.355 . S
Eu241 O271 2.374 . S
C242 C240 1.500 . S
C242 C243 1.377 . S
C242 C247 1.377 . S
C243 C242 1.377 . S
C243 C244 1.395 . S
C243 H272 0.931 . S
C244 C243 1.395 . S
C244 C245 1.383 . S
C244 H273 0.931 . S
C245 C244 1.383 . S
C245 C246 1.394 . S
C246 C245 1.394 . S
C246 C247 1.378 . S
C246 H274 0.931 . S
C247 C242 1.377 . S
C247 C246 1.378 . S
C247 H275 0.931 . S
C248 O262 1.259 . S
C248 O263 1.270 . S
C249 O264 1.251 . S
C249 O265 1.251 . S
C250 Eu251 2.835 . S
C250 C252 1.500 . S
C250 O266 1.257 . S
C250 O267 1.260 . S
Eu251 C250 2.835 . S
Eu251 O263 2.355 . S
Eu251 O265 2.374 . S
Eu251 O266 2.473 . S
Eu251 O267 2.480 . S
Eu251 O268 2.430 . S
Eu251 O269 2.670 . S
Eu251 O270 2.394 . S
C252 C250 1.500 . S
C252 C253 1.377 . S
C252 C257 1.377 . S
C253 C252 1.377 . S
C253 C254 1.395 . S
C253 H276 0.931 . S
C254 C253 1.395 . S
C254 C255 1.383 . S
C254 H277 0.931 . S
C255 C254 1.383 . S
C255 C256 1.394 . S
C256 C255 1.394 . S
C256 C257 1.378 . S
C256 H278 0.931 . S
C257 C252 1.377 . S
C257 C256 1.378 . S
C257 H279 0.931 . S
C258 O268 1.259 . S
C258 O269 1.270 . S
C259 O270 1.251 . S
C259 O271 1.251 . S
O260 C240 1.257 . S
O260 Eu241 2.473 . S
O261 C240 1.260 . S
O261 Eu241 2.480 . S
O262 Eu241 2.430 . S
O262 C248 1.259 . S
O263 Eu241 2.670 . S
O263 C248 1.270 . S
O263 Eu251 2.355 . S
O264 Eu241 2.394 . S
O264 C249 1.251 . S
O265 C249 1.251 . S
O265 Eu251 2.374 . S
O266 C250 1.257 . S
O266 Eu251 2.473 . S
O267 C250 1.260 . S
O267 Eu251 2.480 . S
O268 Eu251 2.430 . S
O268 C258 1.259 . S
O269 Eu241 2.355 . S
O269 Eu251 2.670 . S
O269 C258 1.270 . S
O270 Eu251 2.394 . S
O270 C259 1.251 . S
O271 Eu241 2.374 . S
O271 C259 1.251 . S
H272 C243 0.931 . S
H273 C244 0.931 . S
H274 C246 0.931 . S
H275 C247 0.931 . S
H276 C253 0.931 . S
H277 C254 0.931 . S
H278 C256 0.931 . S
H279 C257 0.931 . S
C280 Eu281 2.835 . S
C280 C282 1.500 . S
C280 O300 1.257 . S
C280 O301 1.260 . S
Eu281 C280 2.835 . S
Eu281 O300 2.473 . S
Eu281 O301 2.480 . S
Eu281 O302 2.426 1_455 S
Eu281 O303 2.670 1_455 S
Eu281 O304 2.394 . S
Eu281 O309 2.355 . S
Eu281 O311 2.374 . S
C282 C280 1.500 . S
C282 C283 1.377 . S
C282 C287 1.377 . S
C283 C282 1.377 . S
C283 C284 1.395 . S
C283 H312 0.931 . S
C284 C283 1.395 . S
C284 C285 1.383 . S
C284 H313 0.931 . S
C285 C284 1.383 . S
C285 C286 1.394 . S
C286 C285 1.394 . S
C286 C287 1.378 . S
C286 H314 0.931 . S
C287 C282 1.377 . S
C287 C286 1.378 . S
C287 H315 0.931 . S
C288 O302 1.279 . S
C288 O303 1.270 . S
C289 O304 1.251 . S
C289 O305 1.251 1_455 S
C290 Eu291 2.835 . S
C290 C292 1.500 . S
C290 O306 1.257 . S
C290 O307 1.260 . S
Eu291 C290 2.835 . S
Eu291 O303 2.355 . S
Eu291 O305 2.374 . S
Eu291 O306 2.473 . S
Eu291 O307 2.480 . S
Eu291 O308 2.430 . S
Eu291 O309 2.670 1_655 S
Eu291 O310 2.394 . S
C292 C290 1.500 . S
C292 C293 1.377 . S
C292 C297 1.377 . S
C293 C292 1.377 . S
C293 C294 1.395 . S
C293 H316 0.931 . S
C294 C293 1.395 . S
C294 C295 1.383 . S
C294 H317 0.931 . S
C295 C294 1.383 . S
C295 C296 1.394 . S
C296 C295 1.394 . S
C296 C297 1.378 . S
C296 H318 0.931 . S
C297 C292 1.377 . S
C297 C296 1.378 . S
C297 H319 0.931 . S
C298 O308 1.259 1_455 S
C298 O309 1.270 . S
C299 O310 1.251 . S
C299 O311 1.251 1_655 S
O300 C280 1.257 . S
O300 Eu281 2.473 . S
O301 C280 1.260 . S
O301 Eu281 2.480 . S
O302 Eu281 2.426 1_655 S
O302 C288 1.279 . S
O303 Eu281 2.670 1_655 S
O303 C288 1.270 . S
O303 Eu291 2.355 . S
O304 Eu281 2.394 . S
O304 C289 1.251 . S
O305 C289 1.251 1_655 S
O305 Eu291 2.374 . S
O306 C290 1.257 . S
O306 Eu291 2.473 . S
O307 C290 1.260 . S
O307 Eu291 2.480 . S
O308 Eu291 2.430 . S
O308 C298 1.259 1_655 S
O309 Eu281 2.355 . S
O309 Eu291 2.670 1_455 S
O309 C298 1.270 . S
O310 Eu291 2.394 . S
O310 C299 1.251 . S
O311 Eu281 2.374 . S
O311 C299 1.251 1_455 S
H312 C283 0.931 . S
H313 C284 0.931 . S
H314 C286 0.931 . S
H315 C287 0.931 . S
H316 C293 0.931 . S
H317 C294 0.931 . S
H318 C296 0.931 . S
H319 C297 0.931 . S
C320 Eu321 2.835 1_655 S
C320 C322 1.500 . S
C320 O340 1.257 . S
C320 O341 1.260 1_655 S
Eu321 C320 2.835 1_455 S
Eu321 O340 2.473 1_455 S
Eu321 O341 2.480 . S
Eu321 O342 2.430 . S
Eu321 O343 2.670 . S
Eu321 O344 2.390 . S
Eu321 O349 2.355 1_455 S
Eu321 O351 2.374 . S
C322 C320 1.500 . S
C322 C323 1.377 . S
C322 C327 1.377 . S
C323 C322 1.377 . S
C323 C324 1.395 . S
C323 H352 0.931 1_655 S
C324 C323 1.395 . S
C324 C325 1.383 . S
C324 H353 0.931 1_655 S
C325 C324 1.383 . S
C325 C326 1.394 . S
C326 C325 1.394 . S
C326 C327 1.378 . S
C326 H354 0.931 . S
C327 C322 1.377 . S
C327 C326 1.378 . S
C327 H355 0.931 . S
C328 O342 1.259 . S
C328 O343 1.270 . S
C329 O344 1.250 1_655 S
C329 O345 1.251 . S
C330 Eu331 2.835 1_455 S
C330 C332 1.500 . S
C330 O346 1.257 . S
C330 O347 1.260 1_455 S
Eu331 C330 2.835 1_655 S
Eu331 O343 2.355 1_655 S
Eu331 O345 2.374 . S
Eu331 O346 2.473 1_655 S
Eu331 O347 2.480 . S
Eu331 O348 2.430 . S
Eu331 O349 2.670 . S
Eu331 O350 2.394 . S
C332 C330 1.500 . S
C332 C333 1.376 1_455 S
C332 C337 1.377 . S
C333 C332 1.376 1_655 S
C333 C334 1.392 1_655 S
C333 H356 0.935 . S
C334 C333 1.392 1_455 S
C334 C335 1.383 . S
C334 H357 0.931 1_455 S
C335 C334 1.383 . S
C335 C336 1.394 . S
C336 C335 1.394 . S
C336 C337 1.378 . S
C336 H358 0.931 . S
C337 C332 1.377 . S
C337 C336 1.378 . S
C337 H359 0.931 . S
C338 O348 1.259 . S
C338 O349 1.270 . S
C339 O350 1.251 1_455 S
C339 O351 1.251 . S
O340 C320 1.257 . S
O340 Eu321 2.473 1_655 S
O341 C320 1.260 1_455 S
O341 Eu321 2.480 . S
O342 Eu321 2.430 . S
O342 C328 1.259 . S
O343 Eu321 2.670 . S
O343 C328 1.270 . S
O343 Eu331 2.355 1_455 S
O344 Eu321 2.390 . S
O344 C329 1.250 1_455 S
O345 C329 1.251 . S
O345 Eu331 2.374 . S
O346 C330 1.257 . S
O346 Eu331 2.473 1_455 S
O347 C330 1.260 1_655 S
O347 Eu331 2.480 . S
O348 Eu331 2.430 . S
O348 C338 1.259 . S
O349 Eu321 2.355 1_655 S
O349 Eu331 2.670 . S
O349 C338 1.270 . S
O350 Eu331 2.394 . S
O350 C339 1.251 1_655 S
O351 Eu321 2.374 . S
O351 C339 1.251 . S
H352 C323 0.931 1_455 S
H353 C324 0.931 1_455 S
H354 C326 0.931 . S
H355 C327 0.931 . S
H356 C333 0.935 . S
H357 C334 0.931 1_655 S
H358 C336 0.931 . S
H359 C337 0.931 . S
C360 C361 1.369 . S
C360 C362 1.419 . S
C360 H364 0.930 . S
C361 C360 1.369 . S
C361 C370 1.429 . S
C362 C360 1.419 . S
C362 C363 1.363 . S
C362 H365 0.929 . S
C363 C362 1.363 . S
C363 C369 1.428 . S
H364 C360 0.930 . S
H365 C362 0.929 . S
S366 N367 1.613 . S
S366 N368 1.610 . S
N367 S366 1.613 . S
N367 C370 1.350 . S
N368 S366 1.610 . S
N368 C369 1.351 . S
C369 C363 1.428 . S
C369 N368 1.351 . S
C369 C370 1.434 . S
C370 C361 1.429 . S
C370 N367 1.350 . S
C370 C369 1.434 . S
C371 C372 1.369 . S
C371 C373 1.419 . S
C371 H375 0.930 . S
C372 C371 1.369 . S
C372 C381 1.429 . S
C373 C371 1.419 . S
C373 C374 1.363 . S
C373 H376 0.929 . S
C374 C373 1.363 . S
C374 C380 1.428 . S
H375 C371 0.930 . S
H376 C373 0.929 . S
S377 N378 1.613 . S
S377 N379 1.610 . S
N378 S377 1.613 . S
N378 C381 1.350 . S
N379 S377 1.610 . S
N379 C380 1.351 . S
C380 C374 1.428 . S
C380 N379 1.351 . S
C380 C381 1.434 . S
C381 C372 1.429 . S
C381 N378 1.350 . S
C381 C380 1.434 . S
C382 C383 1.369 . S
C382 C384 1.419 . S
C382 H386 0.930 . S
C383 C382 1.369 . S
C383 C392 1.429 . S
C384 C382 1.419 . S
C384 C385 1.363 . S
C384 H387 0.929 . S
C385 C384 1.363 . S
C385 C391 1.428 . S
H386 C382 0.930 . S
H387 C384 0.929 . S
S388 N389 1.613 . S
S388 N390 1.610 . S
N389 S388 1.613 . S
N389 C392 1.350 . S
N390 S388 1.610 . S
N390 C391 1.351 . S
C391 C385 1.428 . S
C391 N390 1.351 . S
C391 C392 1.434 . S
C392 C383 1.429 . S
C392 N389 1.350 . S
C392 C391 1.434 . S
C393 C394 1.369 . S
C393 C395 1.419 . S
C393 H397 0.930 . S
C394 C393 1.369 . S
C394 C403 1.429 . S
C395 C393 1.419 . S
C395 C396 1.363 . S
C395 H398 0.929 . S
C396 C395 1.363 . S
C396 C402 1.428 . S
H397 C393 0.930 . S
H398 C395 0.929 . S
S399 N400 1.613 . S
S399 N401 1.610 . S
N400 S399 1.613 . S
N400 C403 1.350 1_545 S
N401 S399 1.610 . S
N401 C402 1.351 1_545 S
C402 C396 1.428 . S
C402 N401 1.351 1_565 S
C402 C403 1.434 . S
C403 C394 1.429 . S
C403 N400 1.350 1_565 S
C403 C402 1.434 . S
C404 C405 1.369 . S
C404 C406 1.419 . S
C404 H408 0.930 . S
C405 C404 1.369 . S
C405 C414 1.429 . S
C406 C404 1.419 . S
C406 C407 1.363 . S
C406 H409 0.929 . S
C407 C406 1.363 . S
C407 C413 1.428 . S
H408 C404 0.930 . S
H409 C406 0.929 . S
S410 N411 1.613 . S
S410 N412 1.610 . S
N411 S410 1.613 . S
N411 C414 1.350 . S
N412 S410 1.610 . S
N412 C413 1.351 . S
C413 C407 1.428 . S
C413 N412 1.351 . S
C413 C414 1.434 . S
C414 C405 1.429 . S
C414 N411 1.350 . S
C414 C413 1.434 . S
C415 C416 1.369 . S
C415 C417 1.419 . S
C415 H419 0.930 . S
C416 C415 1.369 . S
C416 C425 1.429 . S
C417 C415 1.419 . S
C417 C418 1.363 . S
C417 H420 0.929 . S
C418 C417 1.363 . S
C418 C424 1.428 . S
H419 C415 0.930 . S
H420 C417 0.929 . S
S421 N422 1.613 . S
S421 N423 1.610 . S
N422 S421 1.613 . S
N422 C425 1.350 . S
N423 S421 1.610 . S
N423 C424 1.351 . S
C424 C418 1.428 . S
C424 N423 1.351 . S
C424 C425 1.434 . S
C425 C416 1.429 . S
C425 N422 1.350 . S
C425 C424 1.434 . S
C426 C427 1.369 . S
C426 C428 1.419 . S
C426 H430 0.930 . S
C427 C426 1.369 . S
C427 C436 1.429 . S
C428 C426 1.419 . S
C428 C429 1.363 . S
C428 H431 0.929 . S
C429 C428 1.363 . S
C429 C435 1.428 . S
H430 C426 0.930 . S
H431 C428 0.929 . S
S432 N433 1.613 . S
S432 N434 1.610 1_554 S
N433 S432 1.613 . S
N433 C436 1.350 . S
N434 S432 1.610 1_556 S
N434 C435 1.351 1_556 S
C435 C429 1.428 . S
C435 N434 1.351 1_554 S
C435 C436 1.434 . S
C436 C427 1.429 . S
C436 N433 1.350 . S
C436 C435 1.434 . S
C437 C438 1.369 . S
C437 C439 1.419 . S
C437 H441 0.930 . S
C438 C437 1.369 . S
C438 C447 1.429 1_455 S
C439 C437 1.419 . S
C439 C440 1.363 1_455 S
C439 H442 0.929 . S
C440 C439 1.363 1_655 S
C440 C446 1.428 . S
H441 C437 0.930 . S
H442 C439 0.929 . S
S443 N444 1.613 . S
S443 N445 1.610 . S
N444 S443 1.613 . S
N444 C447 1.350 . S
N445 S443 1.610 . S
N445 C446 1.351 . S
C446 C440 1.428 . S
C446 N445 1.351 . S
C446 C447 1.434 . S
C447 C438 1.429 1_655 S
C447 N444 1.350 . S
C447 C446 1.434 . S
C448 C449 1.369 1_455 S
C448 C450 1.419 . S
C448 H452 0.930 . S
C449 C448 1.369 1_655 S
C449 C458 1.429 . S
C450 C448 1.419 . S
C450 C451 1.363 . S
C450 H453 0.929 . S
C451 C450 1.363 . S
C451 C457 1.428 1_455 S
H452 C448 0.930 . S
H453 C450 0.929 . S
S454 N455 1.613 . S
S454 N456 1.610 . S
N455 S454 1.613 . S
N455 C458 1.350 . S
N456 S454 1.610 . S
N456 C457 1.351 . S
C457 C451 1.428 1_655 S
C457 N456 1.351 . S
C457 C458 1.434 . S
C458 C449 1.429 . S
C458 N455 1.350 . S
C458 C457 1.434 . S
C459 C460 1.369 . S
C459 C461 1.419 . S
C459 H463 0.930 . S
C460 C459 1.369 . S
C460 C469 1.429 . S
C461 C459 1.419 . S
C461 C462 1.363 . S
C461 H464 0.929 . S
C462 C461 1.363 . S
C462 C468 1.428 . S
H463 C459 0.930 . S
H464 C461 0.929 . S
S465 N466 1.613 . S
S465 N467 1.610 . S
N466 S465 1.613 . S
N466 C469 1.350 . S
N467 S465 1.610 . S
N467 C468 1.351 . S
C468 C462 1.428 . S
C468 N467 1.351 . S
C468 C469 1.434 . S
C469 C460 1.429 . S
C469 N466 1.350 . S
C469 C468 1.434 . S
C470 C471 1.369 . S
C470 C472 1.419 . S
C470 H474 0.930 . S
C471 C470 1.369 . S
C471 C480 1.429 . S
C472 C470 1.419 . S
C472 C473 1.363 . S
C472 H475 0.929 . S
C473 C472 1.363 . S
C473 C479 1.428 . S
H474 C470 0.930 . S
H475 C472 0.929 . S
S476 N477 1.613 . S
S476 N478 1.610 . S
N477 S476 1.613 . S
N477 C480 1.350 . S
N478 S476 1.610 . S
N478 C479 1.351 . S
C479 C473 1.428 . S
C479 N478 1.351 . S
C479 C480 1.434 . S
C480 C471 1.429 . S
C480 N477 1.350 . S
C480 C479 1.434 . S
C481 C482 1.369 . S
C481 C483 1.419 . S
C481 H485 0.930 . S
C482 C481 1.369 . S
C482 C491 1.429 . S
C483 C481 1.419 . S
C483 C484 1.363 . S
C483 H486 0.929 . S
C484 C483 1.363 . S
C484 C490 1.428 . S
H485 C481 0.930 . S
H486 C483 0.929 . S
S487 N488 1.613 . S
S487 N489 1.610 . S
N488 S487 1.613 . S
N488 C491 1.350 . S
N489 S487 1.610 . S
N489 C490 1.351 . S
C490 C484 1.428 . S
C490 N489 1.351 . S
C490 C491 1.434 . S
C491 C482 1.429 . S
C491 N488 1.350 . S
C491 C490 1.434 . S
C492 C493 1.369 1_556 S
C492 C494 1.419 . S
C492 H496 0.930 . S
C493 C492 1.369 1_554 S
C493 C502 1.429 1_554 S
C494 C492 1.419 . S
C494 C495 1.363 . S
C494 H497 0.929 . S
C495 C494 1.363 . S
C495 C501 1.428 . S
H496 C492 0.930 . S
H497 C494 0.929 . S
S498 N499 1.613 1_556 S
S498 N500 1.610 . S
N499 S498 1.613 1_554 S
N499 C502 1.350 1_554 S
N500 S498 1.610 . S
N500 C501 1.351 . S
C501 C495 1.428 . S
C501 N500 1.351 . S
C501 C502 1.434 . S
C502 C493 1.429 1_556 S
C502 N499 1.350 1_556 S
C502 C501 1.434 . S
C503 C504 1.369 . S
C503 C505 1.419 1_556 S
C503 H507 0.930 . S
C504 C503 1.369 . S
C504 C513 1.429 . S
C505 C503 1.419 1_554 S
C505 C506 1.363 . S
C505 H508 0.929 . S
C506 C505 1.363 . S
C506 C512 1.428 1_554 S
H507 C503 0.930 . S
H508 C505 0.929 . S
S509 N510 1.613 . S
S509 N511 1.610 . S
N510 S509 1.613 . S
N510 C513 1.350 . S
N511 S509 1.610 . S
N511 C512 1.351 . S
C512 C506 1.428 1_556 S
C512 N511 1.351 . S
C512 C513 1.434 . S
C513 C504 1.429 . S
C513 N510 1.350 . S
C513 C512 1.434 . S
C514 C515 1.369 . S
C514 C516 1.419 1_556 S
C514 H518 0.930 . S
C515 C514 1.369 . S
C515 C524 1.429 . S
C516 C514 1.419 1_554 S
C516 C517 1.363 . S
C516 H519 0.929 . S
C517 C516 1.363 . S
C517 C523 1.428 1_554 S
H518 C514 0.930 . S
H519 C516 0.929 . S
S520 N521 1.613 . S
S520 N522 1.610 . S
N521 S520 1.613 . S
N521 C524 1.350 . S
N522 S520 1.610 . S
N522 C523 1.351 . S
C523 C517 1.428 1_556 S
C523 N522 1.351 . S
C523 C524 1.434 . S
C524 C515 1.429 . S
C524 N521 1.350 . S
C524 C523 1.434 . S
C525 C526 1.369 . S
C525 C527 1.419 . S
C525 H529 0.930 . S
C526 C525 1.369 . S
C526 C535 1.429 1_554 S
C527 C525 1.419 . S
C527 C528 1.363 . S
C527 H530 0.929 . S
C528 C527 1.363 . S
C528 C534 1.428 1_554 S
H529 C525 0.930 . S
H530 C527 0.929 . S
S531 N532 1.613 . S
S531 N533 1.610 . S
N532 S531 1.613 . S
N532 C535 1.350 . S
N533 S531 1.610 . S
N533 C534 1.351 . S
C534 C528 1.428 1_556 S
C534 N533 1.351 . S
C534 C535 1.434 . S
C535 C526 1.429 1_556 S
C535 N532 1.350 . S
C535 C534 1.434 . S
C536 C537 1.369 . S
C536 C538 1.419 . S
C536 H540 0.930 . S
C537 C536 1.369 . S
C537 C546 1.429 1_554 S
C538 C536 1.419 . S
C538 C539 1.363 . S
C538 H541 0.929 . S
C539 C538 1.363 . S
C539 C545 1.428 1_554 S
H540 C536 0.930 . S
H541 C538 0.929 . S
S542 N543 1.613 . S
S542 N544 1.610 . S
N543 S542 1.613 . S
N543 C546 1.350 . S
N544 S542 1.610 . S
N544 C545 1.351 . S
C545 C539 1.428 1_556 S
C545 N544 1.351 . S
C545 C546 1.434 . S
C546 C537 1.429 1_556 S
C546 N543 1.350 . S
C546 C545 1.434 . S
C547 C548 1.369 . S
C547 C549 1.419 . S
C547 H551 0.930 . S
C548 C547 1.369 . S
C548 C557 1.429 . S
C549 C547 1.419 . S
C549 C550 1.363 . S
C549 H552 0.929 . S
C550 C549 1.363 . S
C550 C556 1.428 . S
H551 C547 0.930 . S
H552 C549 0.929 . S
S553 N554 1.613 . S
S553 N555 1.610 . S
N554 S553 1.613 . S
N554 C557 1.350 . S
N555 S553 1.610 . S
N555 C556 1.351 . S
C556 C550 1.428 . S
C556 N555 1.351 . S
C556 C557 1.434 . S
C557 C548 1.429 . S
C557 N554 1.350 . S
C557 C556 1.434 . S
C558 C559 1.369 . S
C558 C560 1.419 . S
C558 H562 0.930 . S
C559 C558 1.369 . S
C559 C568 1.429 . S
C560 C558 1.419 . S
C560 C561 1.363 . S
C560 H563 0.929 . S
C561 C560 1.363 . S
C561 C567 1.428 . S
H562 C558 0.930 . S
H563 C560 0.929 . S
S564 N565 1.613 . S
S564 N566 1.610 1_565 S
N565 S564 1.613 . S
N565 C568 1.350 1_565 S
N566 S564 1.610 1_545 S
N566 C567 1.351 . S
C567 C561 1.428 . S
C567 N566 1.351 . S
C567 C568 1.434 . S
C568 C559 1.429 . S
C568 N565 1.350 1_545 S
C568 C567 1.434 . S
C569 C570 1.369 . S
C569 C571 1.419 . S
C569 H573 0.930 1_554 S
C570 C569 1.369 . S
C570 C579 1.429 . S
C571 C569 1.419 . S
C571 C572 1.363 . S
C571 H574 0.929 . S
C572 C571 1.363 . S
C572 C578 1.428 . S
H573 C569 0.930 1_556 S
H574 C571 0.929 . S
S575 N576 1.613 . S
S575 N577 1.610 . S
N576 S575 1.613 . S
N576 C579 1.350 . S
N577 S575 1.610 . S
N577 C578 1.351 . S
C578 C572 1.428 . S
C578 N577 1.351 . S
C578 C579 1.434 . S
C579 C570 1.429 . S
C579 N576 1.350 . S
C579 C578 1.434 . S
C580 C581 1.369 . S
C580 C582 1.419 . S
C580 H584 0.930 . S
C581 C580 1.369 . S
C581 C590 1.429 . S
C582 C580 1.419 . S
C582 C583 1.363 . S
C582 H585 0.929 . S
C583 C582 1.363 . S
C583 C589 1.428 . S
H584 C580 0.930 . S
H585 C582 0.929 . S
S586 N587 1.613 1_556 S
S586 N588 1.610 . S
N587 S586 1.613 1_554 S
N587 C590 1.350 . S
N588 S586 1.610 . S
N588 C589 1.351 1_556 S
C589 C583 1.428 . S
C589 N588 1.351 1_554 S
C589 C590 1.434 . S
C590 C581 1.429 . S
C590 N587 1.350 . S
C590 C589 1.434 . S
C591 C592 1.369 . S
C591 C593 1.419 . S
C591 H595 0.930 . S
C592 C591 1.369 . S
C592 C601 1.429 . S
C593 C591 1.419 . S
C593 C594 1.363 . S
C593 H596 0.929 . S
C594 C593 1.363 . S
C594 C600 1.428 . S
H595 C591 0.930 . S
H596 C593 0.929 . S
S597 N598 1.613 . S
S597 N599 1.610 . S
N598 S597 1.613 . S
N598 C601 1.350 . S
N599 S597 1.610 . S
N599 C600 1.351 . S
C600 C594 1.428 . S
C600 N599 1.351 . S
C600 C601 1.434 . S
C601 C592 1.429 . S
C601 N598 1.350 . S
C601 C600 1.434 . S
C602 C603 1.369 . S
C602 C604 1.419 1_545 S
C602 H606 0.930 . S
C603 C602 1.369 . S
C603 C612 1.429 . S
C604 C602 1.419 1_565 S
C604 C605 1.363 . S
C604 H607 0.929 . S
C605 C604 1.363 . S
C605 C611 1.426 . S
H606 C602 0.930 . S
H607 C604 0.929 . S
S608 N609 1.613 . S
S608 N610 1.610 1_545 S
N609 S608 1.613 . S
N609 C612 1.350 . S
N610 S608 1.610 1_565 S
N610 C611 1.352 . S
C611 C605 1.426 . S
C611 N610 1.352 . S
C611 C612 1.436 1_565 S
C612 C603 1.429 . S
C612 N609 1.350 . S
C612 C611 1.436 1_545 S
C613 C614 1.369 . S
C613 C615 1.419 . S
C613 H617 0.930 . S
C614 C613 1.369 . S
C614 C623 1.429 . S
C615 C613 1.419 . S
C615 C616 1.363 . S
C615 H618 0.929 . S
C616 C615 1.363 . S
C616 C622 1.428 . S
H617 C613 0.930 . S
H618 C615 0.929 . S
S619 N620 1.613 . S
S619 N621 1.610 . S
N620 S619 1.613 . S
N620 C623 1.350 . S
N621 S619 1.610 . S
N621 C622 1.351 . S
C622 C616 1.428 . S
C622 N621 1.351 . S
C622 C623 1.434 . S
C623 C614 1.429 . S
C623 N620 1.350 . S
C623 C622 1.434 . S
C624 C625 1.369 . S
C624 C626 1.419 . S
C624 H628 0.930 . S
C625 C624 1.369 . S
C625 C634 1.429 . S
C626 C624 1.419 . S
C626 C627 1.363 . S
C626 H629 0.929 . S
C627 C626 1.363 . S
C627 C633 1.428 . S
H628 C624 0.930 . S
H629 C626 0.929 . S
S630 N631 1.613 . S
S630 N632 1.610 . S
N631 S630 1.613 . S
N631 C634 1.350 . S
N632 S630 1.610 . S
N632 C633 1.351 . S
C633 C627 1.428 . S
C633 N632 1.351 . S
C633 C634 1.434 . S
C634 C625 1.429 . S
C634 N631 1.350 . S
C634 C633 1.434 . S
C635 C636 1.369 . S
C635 C637 1.419 . S
C635 H639 0.930 . S
C636 C635 1.369 . S
C636 C645 1.429 . S
C637 C635 1.419 . S
C637 C638 1.363 . S
C637 H640 0.929 . S
C638 C637 1.363 . S
C638 C644 1.428 . S
H639 C635 0.930 . S
H640 C637 0.929 . S
S641 N642 1.613 . S
S641 N643 1.610 . S
N642 S641 1.613 . S
N642 C645 1.350 . S
N643 S641 1.610 . S
N643 C644 1.351 . S
C644 C638 1.428 . S
C644 N643 1.351 . S
C644 C645 1.434 . S
C645 C636 1.429 . S
C645 N642 1.350 . S
C645 C644 1.434 . S
C646 C647 1.369 . S
C646 C648 1.419 . S
C646 H650 0.930 . S
C647 C646 1.369 . S
C647 C656 1.429 . S
C648 C646 1.419 . S
C648 C649 1.363 . S
C648 H651 0.929 . S
C649 C648 1.363 . S
C649 C655 1.428 . S
H650 C646 0.930 . S
H651 C648 0.929 . S
S652 N653 1.613 . S
S652 N654 1.610 . S
N653 S652 1.613 . S
N653 C656 1.350 . S
N654 S652 1.610 . S
N654 C655 1.351 . S
C655 C649 1.428 . S
C655 N654 1.351 . S
C655 C656 1.434 . S
C656 C647 1.429 . S
C656 N653 1.350 . S
C656 C655 1.434 . S
C361 C18 1.569 . S
C363 C8 1.572 . S
C372 C58 1.570 . S
C374 C48 1.571 . S
C383 C98 1.574 . S
C385 C88 1.568 . S
C394 C128 1.568 . S
C396 C138 1.572 . S
C405 C168 1.568 . S
C407 C178 1.573 . S
C416 C208 1.574 . S
C418 C218 1.568 . S
C427 C249 1.480 . S
C429 C259 1.471 1_554 S
C438 C289 1.470 . S
C440 C299 1.478 1_554 S
C449 C329 1.471 . S
C451 C339 1.477 1_554 S
C460 C219 2.673 . S
C462 C15 2.597 . S
C471 C55 2.592 . S
C473 C139 2.674 . S
C482 C95 2.592 . S
C484 C179 2.675 . S
C493 C99 2.301 . S
C495 C258 2.525 . S
C504 C298 2.525 . S
C506 C19 2.301 . S
C515 C338 2.526 . S
C517 C59 2.300 . S
C526 C335 1.117 1_554 S
C528 C5 1.107 . S
C537 C45 1.114 . S
C539 C255 1.115 1_554 S
C548 C295 1.118 1_554 S
C550 C85 1.114 . S
C559 C89 2.675 . S
C561 C125 2.592 . S
C570 C165 2.595 . S
C572 C9 2.672 . S
C581 C49 2.676 . S
C583 C205 2.593 . S
C592 C325 1.120 . S
C594 C135 1.106 . S
C603 C245 1.114 . S
C605 C175 1.113 . S
C614 C285 1.114 . S
C616 C215 1.114 . S
C625 C248 2.525 . S
C627 C209 2.300 . S
C636 C129 2.297 . S
C638 C288 2.524 . S
C647 C328 2.523 . S
C649 C169 2.295 . S
