# Generated by pormake.
# Topology crs, (6)-cn, num edge types: 1
# Building blocks:
#     Node 0, Type 0, BuildingBlock: JUFBIX_clean_sbu_0, # of connection points: 6
#     Node 1, Type 0, BuildingBlock: JUFBIX_clean_sbu_0, # of connection points: 6
#     Node 2, Type 0, BuildingBlock: JUFBIX_clean_sbu_0, # of connection points: 6
#     Node 3, Type 0, BuildingBlock: JUFBIX_clean_sbu_0, # of connection points: 6
#     Node 4, Type 0, BuildingBlock: JUFBIX_clean_sbu_0, # of connection points: 6
#     Node 5, Type 0, BuildingBlock: JUFBIX_clean_sbu_0, # of connection points: 6
#     Node 6, Type 0, BuildingBlock: JUFBIX_clean_sbu_0, # of connection points: 6
#     Node 7, Type 0, BuildingBlock: JUFBIX_clean_sbu_0, # of connection points: 6
#     Node 8, Type 0, BuildingBlock: JUFBIX_clean_sbu_0, # of connection points: 6
#     Node 9, Type 0, BuildingBlock: JUFBIX_clean_sbu_0, # of connection points: 6
#     Node 10, Type 0, BuildingBlock: JUFBIX_clean_sbu_0, # of connection points: 6
#     Node 11, Type 0, BuildingBlock: JUFBIX_clean_sbu_0, # of connection points: 6
#     Node 12, Type 0, BuildingBlock: JUFBIX_clean_sbu_0, # of connection points: 6
#     Node 13, Type 0, BuildingBlock: JUFBIX_clean_sbu_0, # of connection points: 6
#     Node 14, Type 0, BuildingBlock: JUFBIX_clean_sbu_0, # of connection points: 6
#     Node 15, Type 0, BuildingBlock: JUFBIX_clean_sbu_0, # of connection points: 6
#     Edge 16, Type (0, 0), BuildingBlock: XIVTED_clean_linker_0, # of connection points: 2
#     Edge 17, Type (0, 0), BuildingBlock: XIVTED_clean_linker_0, # of connection points: 2
#     Edge 18, Type (0, 0), BuildingBlock: XIVTED_clean_linker_0, # of connection points: 2
#     Edge 19, Type (0, 0), BuildingBlock: XIVTED_clean_linker_0, # of connection points: 2
#     Edge 20, Type (0, 0), BuildingBlock: XIVTED_clean_linker_0, # of connection points: 2
#     Edge 21, Type (0, 0), BuildingBlock: XIVTED_clean_linker_0, # of connection points: 2
#     Edge 22, Type (0, 0), BuildingBlock: XIVTED_clean_linker_0, # of connection points: 2
#     Edge 23, Type (0, 0), BuildingBlock: XIVTED_clean_linker_0, # of connection points: 2
#     Edge 24, Type (0, 0), BuildingBlock: XIVTED_clean_linker_0, # of connection points: 2
#     Edge 25, Type (0, 0), BuildingBlock: XIVTED_clean_linker_0, # of connection points: 2
#     Edge 26, Type (0, 0), BuildingBlock: XIVTED_clean_linker_0, # of connection points: 2
#     Edge 27, Type (0, 0), BuildingBlock: XIVTED_clean_linker_0, # of connection points: 2
#     Edge 28, Type (0, 0), BuildingBlock: XIVTED_clean_linker_0, # of connection points: 2
#     Edge 29, Type (0, 0), BuildingBlock: XIVTED_clean_linker_0, # of connection points: 2
#     Edge 30, Type (0, 0), BuildingBlock: XIVTED_clean_linker_0, # of connection points: 2
#     Edge 31, Type (0, 0), BuildingBlock: XIVTED_clean_linker_0, # of connection points: 2
#     Edge 32, Type (0, 0), BuildingBlock: XIVTED_clean_linker_0, # of connection points: 2
#     Edge 33, Type (0, 0), BuildingBlock: XIVTED_clean_linker_0, # of connection points: 2
#     Edge 34, Type (0, 0), BuildingBlock: XIVTED_clean_linker_0, # of connection points: 2
#     Edge 35, Type (0, 0), BuildingBlock: XIVTED_clean_linker_0, # of connection points: 2
#     Edge 36, Type (0, 0), BuildingBlock: XIVTED_clean_linker_0, # of connection points: 2
#     Edge 37, Type (0, 0), BuildingBlock: XIVTED_clean_linker_0, # of connection points: 2
#     Edge 38, Type (0, 0), BuildingBlock: XIVTED_clean_linker_0, # of connection points: 2
#     Edge 39, Type (0, 0), BuildingBlock: XIVTED_clean_linker_0, # of connection points: 2
#     Edge 40, Type (0, 0), BuildingBlock: XIVTED_clean_linker_0, # of connection points: 2
#     Edge 41, Type (0, 0), BuildingBlock: XIVTED_clean_linker_0, # of connection points: 2
#     Edge 42, Type (0, 0), BuildingBlock: XIVTED_clean_linker_0, # of connection points: 2
#     Edge 43, Type (0, 0), BuildingBlock: XIVTED_clean_linker_0, # of connection points: 2
#     Edge 44, Type (0, 0), BuildingBlock: XIVTED_clean_linker_0, # of connection points: 2
#     Edge 45, Type (0, 0), BuildingBlock: XIVTED_clean_linker_0, # of connection points: 2
#     Edge 46, Type (0, 0), BuildingBlock: XIVTED_clean_linker_0, # of connection points: 2
#     Edge 47, Type (0, 0), BuildingBlock: XIVTED_clean_linker_0, # of connection points: 2
#     Edge 48, Type (0, 0), BuildingBlock: XIVTED_clean_linker_0, # of connection points: 2
#     Edge 49, Type (0, 0), BuildingBlock: XIVTED_clean_linker_0, # of connection points: 2
#     Edge 50, Type (0, 0), BuildingBlock: XIVTED_clean_linker_0, # of connection points: 2
#     Edge 51, Type (0, 0), BuildingBlock: XIVTED_clean_linker_0, # of connection points: 2
#     Edge 52, Type (0, 0), BuildingBlock: XIVTED_clean_linker_0, # of connection points: 2
#     Edge 53, Type (0, 0), BuildingBlock: XIVTED_clean_linker_0, # of connection points: 2
#     Edge 54, Type (0, 0), BuildingBlock: XIVTED_clean_linker_0, # of connection points: 2
#     Edge 55, Type (0, 0), BuildingBlock: XIVTED_clean_linker_0, # of connection points: 2
#     Edge 56, Type (0, 0), BuildingBlock: XIVTED_clean_linker_0, # of connection points: 2
#     Edge 57, Type (0, 0), BuildingBlock: XIVTED_clean_linker_0, # of connection points: 2
#     Edge 58, Type (0, 0), BuildingBlock: XIVTED_clean_linker_0, # of connection points: 2
#     Edge 59, Type (0, 0), BuildingBlock: XIVTED_clean_linker_0, # of connection points: 2
#     Edge 60, Type (0, 0), BuildingBlock: XIVTED_clean_linker_0, # of connection points: 2
#     Edge 61, Type (0, 0), BuildingBlock: XIVTED_clean_linker_0, # of connection points: 2
#     Edge 62, Type (0, 0), BuildingBlock: XIVTED_clean_linker_0, # of connection points: 2
#     Edge 63, Type (0, 0), BuildingBlock: XIVTED_clean_linker_0, # of connection points: 2
# Relax obj value: 0.683
# Max RMSD: 0.345
# Mean RMSD: 0.292
data_MOF--net-crs--node1-JUFBIX_clean_sbu_0--edge1-XIVTED_clean_linker_0
_symmetry_space_group_name_H-M    P1
_symmetry_Int_Tables_number       1
_symmetry_cell_setting            triclinic
loop_
_symmetry_equiv_pos_as_xyz
'x, y, z'
_cell_length_a     39.755775
_cell_length_b     40.829504
_cell_length_c     49.824665
_cell_angle_alpha  102.64177
_cell_angle_beta   90.042947
_cell_angle_gamma 90.030224
loop_
_atom_site_label
_atom_site_type_symbol
_atom_site_fract_x
_atom_site_fract_y
_atom_site_fract_z
_atom_type_partial_charge
Co0 Co -0.0006 0.97164 0.95802 0.0
C1 C 0.00649 0.00626 0.01118 0.0
Co2 Co 0.0165 0.93942 0.98543 0.0
C3 C 0.95892 0.99011 0.9168 0.0
C4 C 0.99629 0.02754 0.93133 0.0
N5 N 0.98454 -0.00229 0.93472 0.0
N6 N 0.95408 0.01389 0.90229 0.0
C7 C 0.97764 0.03751 0.9112 0.0
H8 H 0.9446 0.96704 0.91399 0.0
H9 H 0.01714 0.04101 0.94264 0.0
C10 C 0.00648 0.90497 0.93207 0.0
N11 N 0.03171 0.91347 0.00892 0.0
C12 C 0.0566 0.92187 0.02751 0.0
C13 C 0.02085 0.88319 0.01193 0.0
N14 N 0.06181 0.89819 0.04213 0.0
C15 C 0.03925 0.87378 0.03249 0.0
C16 C 0.94763 0.94295 0.98204 0.0
O17 O -0.00071 0.93416 0.92902 0.0
O18 O 0.01615 0.90098 0.95549 0.0
O19 O 0.97153 0.93017 -0.00677 0.0
O20 O 0.9543 0.96228 0.96599 0.0
O21 O 0.01548 0.97785 0.01522 0.0
H22 H 0.00069 0.86907 0.00014 0.0
H23 H 0.07003 0.94549 0.03075 0.0
O24 O -0.0009 0.00917 0.98709 0.0
O25 O 0.04405 0.98058 0.94997 0.0
O26 O 0.0619 0.94911 0.97745 0.0
C27 C 0.0682 0.96803 0.96097 0.0
H28 H 0.98105 0.0603 0.90378 0.0
H29 H 0.03623 0.85083 0.03975 0.0
Co30 Co 0.97374 0.24454 0.20504 0.0
C31 C 0.91147 0.27269 0.203 0.0
Co32 Co 0.93445 0.21827 0.22313 0.0
C33 C 0.03466 0.25228 0.17706 0.0
C34 C 0.01212 0.29992 0.19395 0.0
N35 N 0.00784 0.26661 0.19143 0.0
N36 N 0.05557 0.27521 0.17044 0.0
C37 C 0.04145 0.30529 0.18085 0.0
H38 H 0.03834 0.2254 0.17102 0.0
H39 H 0.99503 0.31901 0.20459 0.0
C40 C 0.99672 0.19092 0.22635 0.0
N41 N 0.9005 0.19587 0.23656 0.0
C42 C 0.87594 0.20938 0.25406 0.0
C43 C 0.89494 0.16248 0.23125 0.0
N44 N 0.85532 0.18578 0.26009 0.0
C45 C 0.86722 0.15617 0.24584 0.0
C46 C 0.94673 0.19263 0.16749 0.0
O47 O 0.00567 0.21438 0.21484 0.0
O48 O 0.96588 0.18765 0.23162 0.0
O49 O 0.92825 0.1897 0.18763 0.0
O50 O 0.96832 0.21595 0.17066 0.0
O51 O 0.90267 0.24956 0.21494 0.0
H52 H 0.9104 0.14392 0.218 0.0
H53 H 0.87407 0.23597 0.26304 0.0
O54 O 0.9419 0.27441 0.19575 0.0
O55 O 0.9794 0.27309 0.23911 0.0
O56 O 0.94184 0.24679 0.25888 0.0
C57 C 0.96353 0.27006 0.26042 0.0
H58 H 0.0516 0.32936 0.17915 0.0
H59 H 0.85702 0.13172 0.24633 0.0
Co60 Co 0.75925 0.26233 0.4953 0.0
C61 C 0.75053 0.25601 0.43932 0.0
Co62 Co 0.72622 0.30087 0.48465 0.0
C63 C 0.7877 0.21337 0.52312 0.0
C64 C 0.81814 0.22163 0.48983 0.0
N65 N 0.78902 0.23099 0.5032 0.0
N66 N 0.81488 0.19337 0.52266 0.0
C67 C 0.83403 0.19849 0.50168 0.0
H68 H 0.7671 0.21513 0.53756 0.0
H69 H 0.82744 0.23136 0.47271 0.0
C70 C 0.73449 0.30677 0.54065 0.0
N71 N 0.69733 0.33218 0.47608 0.0
C72 C 0.70078 0.34652 0.45442 0.0
C73 C 0.66847 0.34485 0.48838 0.0
N74 N 0.67518 0.36734 0.45236 0.0
C75 C 0.65482 0.36678 0.47384 0.0
C76 C 0.69331 0.2425 0.49021 0.0
O77 O 0.75291 0.28094 0.53325 0.0
O78 O 0.72049 0.31961 0.52247 0.0
O79 O 0.68946 0.27158 0.48541 0.0
O80 O 0.72253 0.23294 0.49554 0.0
O81 O 0.73211 0.28172 0.44665 0.0
H82 H 0.65788 0.33824 0.50648 0.0
H83 H 0.72193 0.3419 0.44043 0.0
O84 O 0.76511 0.24379 0.45751 0.0
O85 O 0.79567 0.29188 0.49486 0.0
O86 O 0.76324 0.33016 0.48372 0.0
C87 C 0.7923 0.32052 0.48919 0.0
H88 H 0.85816 0.18694 0.49568 0.0
H89 H 0.63154 0.38063 0.47832 0.0
Co90 Co 0.7401 0.96929 0.7125 0.0
C91 C 0.74262 0.0381 0.71883 0.0
Co92 Co 0.78119 0.98624 0.68906 0.0
C93 C 0.70536 0.93354 0.74823 0.0
C94 C 0.67313 0.96711 0.73275 0.0
N95 N 0.70509 0.95582 0.73188 0.0
N96 N 0.67483 0.93056 0.75935 0.0
C97 C 0.6545 0.9517 0.74967 0.0
H98 H 0.7277 0.92026 0.75227 0.0
H99 H 0.664 0.98549 0.72182 0.0
C100 C 0.77902 0.91726 0.68408 0.0
N101 N 0.81499 0.00097 0.66918 0.0
C102 C 0.81147 0.02722 0.65715 0.0
C103 C 0.84653 0.98966 0.66285 0.0
N104 N 0.83938 0.03317 0.6438 0.0
C105 C 0.8616 0.00941 0.64695 0.0
C106 C 0.79934 0.98355 0.7418 0.0
O107 O 0.75388 0.92445 0.69998 0.0
O108 O 0.79472 0.94071 0.67623 0.0
O109 O 0.80984 0.99003 0.71946 0.0
O110 O 0.7692 0.9736 0.74338 0.0
O111 O 0.76739 0.03161 0.70256 0.0
H112 H 0.85774 0.96847 0.66924 0.0
H113 H 0.78839 0.04139 0.65758 0.0
O114 O 0.72668 0.01413 0.72535 0.0
O115 O 0.71156 0.96516 0.68141 0.0
O116 O 0.75244 0.9826 0.65862 0.0
C117 C 0.72241 0.97257 0.65953 0.0
H118 H 0.628 0.95554 0.75426 0.0
H119 H 0.88684 0.00674 0.63861 0.0
Co120 Co 0.52671 0.79928 0.24645 0.0
C121 C 0.45735 0.79636 0.25229 0.0
Co122 Co 0.51015 0.77087 0.27687 0.0
C123 C 0.56373 0.81348 0.20134 0.0
C124 C 0.52765 0.85205 0.21612 0.0
N125 N 0.53988 0.82294 0.22066 0.0
N126 N 0.5669 0.83534 0.18477 0.0
C127 C 0.54415 0.85968 0.19392 0.0
H128 H 0.57777 0.79031 0.19896 0.0
H129 H 0.50773 0.8665 0.22792 0.0
C130 C 0.57945 0.77414 0.27148 0.0
N131 N 0.49752 0.74669 0.30228 0.0
C132 C 0.47214 0.75354 0.32049 0.0
C133 C 0.51121 0.71792 0.30633 0.0
N134 N 0.46932 0.73018 0.33573 0.0
C135 C 0.49396 0.70776 0.32701 0.0
C136 C 0.51543 0.73197 0.22479 0.0
O137 O 0.57262 0.79139 0.25387 0.0
O138 O 0.55565 0.76278 0.28374 0.0
O139 O 0.50812 0.73173 0.24945 0.0
O140 O 0.52562 0.75894 0.21872 0.0
O141 O 0.46452 0.77945 0.27006 0.0
H142 H 0.53216 0.70503 0.2948 0.0
H143 H 0.4562 0.77545 0.32265 0.0
O144 O 0.48094 0.80691 0.23917 0.0
O145 O 0.52655 0.83959 0.27436 0.0
O146 O 0.51117 0.81008 0.30414 0.0
C147 C 0.51743 0.83832 0.29857 0.0
H148 H 0.53966 0.88133 0.18518 0.0
H149 H 0.49873 0.68532 0.33463 0.0
Co150 Co 0.28715 0.74631 0.54262 0.0
C151 C 0.30692 0.74207 0.48922 0.0
Co152 Co 0.24713 0.76087 0.51687 0.0
C153 C 0.31378 0.71968 0.58595 0.0
C154 C 0.35313 0.74291 0.56755 0.0
N155 N 0.31999 0.73561 0.56551 0.0
N156 N 0.34133 0.71714 0.60103 0.0
C157 C 0.36645 0.7313 0.58938 0.0
H158 H 0.28928 0.71005 0.58975 0.0
H159 H 0.36653 0.75633 0.55441 0.0
C160 C 0.22769 0.76571 0.57042 0.0
N161 N 0.21294 0.77085 0.49489 0.0
C162 C 0.21468 0.78679 0.47395 0.0
C163 C 0.18027 0.7623 0.49612 0.0
N164 N 0.18438 0.78853 0.46208 0.0
C165 C 0.16262 0.77326 0.47606 0.0
C166 C 0.24863 0.6927 0.51678 0.0
O167 O 0.25733 0.75547 0.57278 0.0
O168 O 0.2176 0.76961 0.54722 0.0
O169 O 0.23377 0.71566 0.50787 0.0
O170 O 0.27285 0.70038 0.53364 0.0
O171 O 0.27713 0.75232 0.4867 0.0
H172 H 0.17001 0.74849 0.51045 0.0
H173 H 0.23776 0.79696 0.46759 0.0
O174 O 0.3168 0.73745 0.51237 0.0
O175 O 0.30138 0.7921 0.55095 0.0
O176 O 0.26101 0.80602 0.52547 0.0
C177 C 0.2864 0.81432 0.54095 0.0
H178 H 0.39224 0.73379 0.59652 0.0
H179 H 0.13607 0.76948 0.47163 0.0
Co180 Co 0.22767 0.45291 0.75844 0.0
C181 C 0.1984 0.51205 0.74916 0.0
Co182 Co 0.26202 0.4868 0.74258 0.0
C183 C 0.19956 0.39506 0.77473 0.0
C184 C 0.17068 0.43945 0.78962 0.0
N185 N 0.19731 0.4277 0.77365 0.0
N186 N 0.17598 0.38615 0.79129 0.0
C187 C 0.15752 0.41404 0.80041 0.0
H188 H 0.21925 0.37858 0.76471 0.0
H189 H 0.1627 0.46539 0.79474 0.0
C190 C 0.29163 0.42803 0.75211 0.0
N191 N 0.29281 0.51157 0.72723 0.0
C192 C 0.29493 0.54495 0.72874 0.0
C193 C 0.31796 0.49814 0.71016 0.0
N194 N 0.32055 0.55273 0.71338 0.0
C195 C 0.33506 0.52325 0.70178 0.0
C196 C 0.26015 0.50087 0.79866 0.0
O197 O 0.26263 0.4213 0.76 0.0
O198 O 0.29599 0.45508 0.74408 0.0
O199 O 0.2738 0.51017 0.77848 0.0
O200 O 0.23936 0.47664 0.79411 0.0
O201 O 0.22762 0.51861 0.74144 0.0
H202 H 0.32283 0.47158 0.70329 0.0
H203 H 0.27754 0.56305 0.74032 0.0
O204 O 0.19344 0.48472 0.75674 0.0
O205 O 0.21617 0.42925 0.72274 0.0
O206 O 0.24997 0.46302 0.70678 0.0
C207 C 0.2296 0.43841 0.70244 0.0
H208 H 0.13774 0.41677 0.81566 0.0
H209 H 0.35533 0.51982 0.68694 0.0
Co210 Co 0.0543 0.48267 0.45781 0.0
C211 C 0.06273 0.50372 0.51387 0.0
Co212 Co 0.07713 0.44454 0.47727 0.0
C213 C 0.00912 0.51439 0.42614 0.0
C214 C 0.04861 0.54736 0.44465 0.0
N215 N 0.03661 0.5159 0.44218 0.0
N216 N 0.00356 0.5436 0.41844 0.0
C217 C 0.02842 0.56441 0.42993 0.0
H218 H 0.99369 0.49215 0.41998 0.0
H219 H 0.07053 0.55734 0.45656 0.0
C220 C 0.06633 0.42348 0.42118 0.0
N221 N 0.09516 0.41169 0.49302 0.0
C222 C 0.12003 0.41582 0.51178 0.0
C223 C 0.08538 0.37942 0.48997 0.0
N224 N 0.12604 0.3876 0.52081 0.0
C225 C 0.10419 0.36458 0.50729 0.0
C226 C 0.00737 0.4423 0.47533 0.0
O227 O 0.05514 0.45306 0.42357 0.0
O228 O 0.07872 0.41464 0.44204 0.0
O229 O 0.03374 0.42883 0.48236 0.0
O230 O 0.01012 0.46724 0.46403 0.0
O231 O 0.07425 0.47437 0.51246 0.0
H232 H 0.0652 0.36779 0.47664 0.0
H233 H 0.13234 0.43964 0.51972 0.0
O234 O 0.05322 0.51231 0.49215 0.0
O235 O 0.09799 0.49757 0.45193 0.0
O236 O 0.1211 0.4611 0.47259 0.0
C237 C 0.12407 0.48558 0.46086 0.0
H238 H 0.03138 0.59023 0.42823 0.0
H239 H 0.10153 0.33919 0.51018 0.0
Co240 Co 0.2865 0.18123 -0.00098 0.0
C241 C 0.30776 0.17715 0.9455 0.0
Co242 Co 0.24999 0.20043 0.97307 0.0
C243 C 0.31236 0.14438 0.03637 0.0
C244 C 0.35079 0.1751 0.02458 0.0
N245 N 0.31813 0.1664 0.02043 0.0
N246 N 0.33993 0.13893 0.0504 0.0
C247 C 0.36425 0.15838 0.04333 0.0
H248 H 0.2879 0.13353 0.03847 0.0
H249 H 0.36374 0.19287 0.01501 0.0
C250 C 0.22868 0.20565 0.02663 0.0
N251 N 0.21772 0.21443 0.95155 0.0
C252 C 0.22191 0.23117 0.93131 0.0
C253 C 0.1845 0.20771 0.95161 0.0
N254 N 0.19263 0.23502 0.9186 0.0
C255 C 0.16899 0.2204 0.93143 0.0
C256 C 0.24369 0.13227 0.97247 0.0
O257 O 0.25649 0.19156 0.02965 0.0
O258 O 0.2211 0.21116 0.00332 0.0
O259 O 0.23178 0.15656 0.96337 0.0
O260 O 0.26845 0.13741 0.98886 0.0
O261 O 0.27922 0.18996 0.9429 0.0
H262 H 0.17245 0.19378 0.96508 0.0
H263 H 0.24606 0.24023 0.92602 0.0
O264 O 0.31619 0.17126 0.96859 0.0
O265 O 0.30427 0.22498 0.00918 0.0
O266 O 0.26846 0.24449 0.98301 0.0
C267 C 0.29271 0.24946 0.00011 0.0
H268 H 0.38966 0.16062 0.05135 0.0
H269 H 0.14255 0.21823 0.92619 0.0
Co270 Co 0.19363 0.9684 0.27259 0.0
C271 C 0.1694 0.02899 0.26367 0.0
Co272 Co 0.23019 -0.00284 0.25383 0.0
C273 C 0.17123 0.92553 0.30609 0.0
C274 C 0.12951 0.93923 0.28381 0.0
N275 N 0.16288 0.94407 0.28789 0.0
N276 N 0.14481 0.90885 0.31334 0.0
C277 C 0.11821 0.91758 0.29969 0.0
H278 H 0.19645 0.92438 0.31406 0.0
H279 H 0.11454 0.95031 0.26998 0.0
C280 C 0.25495 0.93655 0.26102 0.0
N281 N 0.26278 0.02071 0.23962 0.0
C282 C 0.26346 0.03062 0.21556 0.0
C283 C 0.29344 0.02869 0.25085 0.0
N284 N 0.29338 0.04434 0.21135 0.0
C285 C 0.31222 0.04333 0.23361 0.0
C286 C 0.23072 0.01246 0.31106 0.0
O287 O 0.2263 0.93337 0.27135 0.0
O288 O 0.26158 0.96306 0.2529 0.0
O289 O 0.24391 0.01874 0.28961 0.0
O290 O 0.20811 0.99008 0.30857 0.0
O291 O 0.1988 0.03128 0.25429 0.0
H292 H 0.30216 0.02302 0.26989 0.0
H293 H 0.24263 0.02725 0.20121 0.0
O294 O 0.16153 0.00341 0.27311 0.0
O295 O 0.17894 0.94712 0.23687 0.0
O296 O 0.21548 0.97558 0.21802 0.0
C297 C 0.19183 0.95411 0.21546 0.0
H298 H 0.09279 0.90839 0.30061 0.0
H299 H 0.3382 0.05121 0.23665 0.0
Co300 Co 0.56745 0.28392 0.75674 0.0
C301 C 0.49779 0.29049 0.76023 0.0
Co302 Co 0.5423 0.24653 0.77556 0.0
C303 C 0.61316 0.31237 0.72422 0.0
C304 C 0.58016 0.34978 0.74684 0.0
N305 N 0.58747 0.31676 0.7422 0.0
N306 N 0.62227 0.34124 0.71736 0.0
C307 C 0.60144 0.36492 0.73138 0.0
H308 H 0.6243 0.28814 0.71568 0.0
H309 H 0.56046 0.36196 0.76039 0.0
C310 C 0.61184 0.23997 0.77191 0.0
N311 N 0.52296 0.2131 0.78978 0.0
C312 C 0.49547 0.21504 0.80576 0.0
C313 C 0.533 0.18079 0.78564 0.0
N314 N 0.48797 0.18527 0.81175 0.0
C315 C 0.5116 0.16362 0.79932 0.0
C316 C 0.54824 0.22765 0.719 0.0
O317 O 0.61044 0.26533 0.76114 0.0
O318 O 0.58492 0.22822 0.77963 0.0
O319 O 0.53788 0.21931 0.74057 0.0
O320 O 0.56362 0.25536 0.72087 0.0
O321 O 0.49935 0.26546 0.77148 0.0
H322 H 0.55431 0.17027 0.77321 0.0
H323 H 0.48136 0.23794 0.81302 0.0
O324 O 0.52471 0.30206 0.75216 0.0
O325 O 0.57009 0.31241 0.79254 0.0
O326 O 0.54598 0.27387 0.81056 0.0
C327 C 0.55826 0.30308 0.81337 0.0
H328 H 0.60147 0.39114 0.73041 0.0
H329 H 0.51286 0.13723 0.79965 0.0
Co330 Co 0.97567 0.71467 0.72252 0.0
C331 C 0.91194 0.72519 0.70451 0.0
Co332 Co 0.9395 0.67627 0.72876 0.0
C333 C 0.03586 0.74539 0.70775 0.0
C334 C -0.00123 0.78157 0.72565 0.0
N335 N 0.00486 0.74826 0.71878 0.0
N336 N 0.04923 0.77558 0.70719 0.0
C337 C 0.02599 0.79845 0.71839 0.0
H338 H 0.0477 0.72155 0.69909 0.0
H339 H 0.97561 0.7928 0.73466 0.0
C340 C 0.00435 0.66564 0.74533 0.0
N341 N 0.90912 0.64383 0.73321 0.0
C342 C 0.87825 0.65056 0.74399 0.0
C343 C 0.91321 0.61052 0.73078 0.0
N344 N 0.863 0.62315 0.74912 0.0
C345 C 0.88493 0.59776 0.74092 0.0
C346 C 0.97311 0.66116 0.67876 0.0
O347 O 0.00999 0.69324 0.73834 0.0
O348 O 0.97469 0.65363 0.74322 0.0
O349 O 0.95026 0.65121 0.69298 0.0
O350 O 0.98741 0.6892 0.6878 0.0
O351 O 0.90438 0.6995 0.71377 0.0
H352 H 0.93607 0.59691 0.72387 0.0
H353 H 0.86844 0.6758 0.75047 0.0
O354 O 0.94198 0.73566 0.70637 0.0
O355 O 0.96405 0.73981 0.75711 0.0
O356 O 0.92959 0.70122 0.76516 0.0
C357 C 0.94376 0.72952 0.77296 0.0
H358 H 0.02818 0.82532 0.72052 0.0
H359 H 0.88166 0.5724 0.74373 0.0
Co360 Co 0.7576 0.54579 0.26596 0.0
C361 C 0.75594 0.61335 0.26331 0.0
Co362 Co 0.79429 0.56016 0.23762 0.0
C363 C 0.72711 0.51363 0.3059 0.0
C364 C 0.69461 0.54968 0.29391 0.0
N365 N 0.72564 0.53608 0.28978 0.0
N366 N 0.69823 0.51271 0.31992 0.0
C367 C 0.67775 0.53546 0.31256 0.0
H368 H 0.74895 0.49826 0.3073 0.0
H369 H 0.68464 0.56833 0.28364 0.0
C370 C 0.79604 0.49258 0.23974 0.0
N371 N 0.82509 0.57048 0.21321 0.0
C372 C 0.8168 0.58388 0.19179 0.0
C373 C 0.85833 0.56392 0.21028 0.0
N374 N 0.84306 0.58524 0.17514 0.0
C375 C 0.86957 0.57318 0.18675 0.0
C376 C 0.81865 0.56599 0.29038 0.0
O377 O 0.77199 0.5002 0.25677 0.0
O378 O 0.80956 0.51537 0.22964 0.0
O379 O 0.82607 0.57103 0.26677 0.0
O380 O 0.78961 0.55502 0.29442 0.0
O381 O 0.77882 0.60522 0.24538 0.0
H382 H 0.87306 0.55195 0.22369 0.0
H383 H 0.79155 0.59172 0.188 0.0
O384 O 0.74379 0.59117 0.27479 0.0
O385 O 0.72566 0.53599 0.23756 0.0
O386 O 0.76215 0.54841 0.20857 0.0
C387 C 0.7332 0.53789 0.21328 0.0
H388 H 0.65213 0.5407 0.31952 0.0
H389 H 0.89465 0.56977 0.17815 0.0
Co390 Co 0.73501 0.73111 0.97274 0.0
C391 C 0.73886 0.71348 0.91602 0.0
Co392 Co 0.69682 0.75583 0.95201 0.0
C393 C 0.76791 0.69541 0.00965 0.0
C394 C 0.8019 0.71184 0.98201 0.0
N395 N 0.76911 0.71192 0.98906 0.0
N396 N 0.79873 0.68514 0.01574 0.0
C397 C 0.82017 0.69549 -0.00158 0.0
H398 H 0.74495 0.69141 0.02016 0.0
H399 H 0.81189 0.72291 0.96585 0.0
C400 C 0.69227 0.77213 0.0089 0.0
N401 N 0.66437 0.7756 0.93434 0.0
C402 C 0.67012 0.78678 0.9113 0.0
C403 C 0.63174 0.7827 0.94042 0.0
N404 N 0.64257 0.80037 0.90248 0.0
C405 C 0.61825 0.79825 0.92084 0.0
C406 C 0.67762 0.69398 0.96209 0.0
O407 O 0.71719 0.75228 0.00747 0.0
O408 O 0.67958 0.77765 0.98685 0.0
O409 O 0.66803 0.71858 0.95208 0.0
O410 O 0.70701 0.69408 0.97209 0.0
O411 O 0.71414 0.73332 0.91721 0.0
H412 H 0.61872 0.77713 0.95795 0.0
H413 H 0.69449 0.7857 0.90146 0.0
O414 O 0.75234 0.70969 0.93816 0.0
O415 O 0.76254 0.76833 0.9738 0.0
O416 O 0.72584 0.79339 0.95246 0.0
C417 C 0.75404 0.79349 0.96441 0.0
H418 H 0.84704 0.69112 -0.00259 0.0
H419 H 0.59268 0.80708 0.92007 0.0
Co420 Co 0.43664 0.06586 0.49455 0.0
C421 C 0.46932 0.07921 0.54458 0.0
Co422 Co 0.47714 0.03009 0.49761 0.0
C423 C 0.37214 0.08544 0.48083 0.0
C424 C 0.40217 0.12911 0.49562 0.0
N425 N 0.40235 0.09537 0.49182 0.0
N426 N 0.35316 0.11127 0.47695 0.0
C427 C 0.37195 0.13896 0.48613 0.0
H428 H 0.36543 0.05933 0.47331 0.0
H429 H 0.42336 0.1452 0.50302 0.0
C430 C 0.44627 0.01783 0.44706 0.0
N431 N 0.5102 -0.00088 0.49959 0.0
C432 C 0.53929 0.00375 0.51376 0.0
C433 C 0.50835 0.96571 0.48929 0.0
N434 N 0.55535 0.97452 0.51312 0.0
C435 C 0.53603 0.9505 0.49769 0.0
C436 C 0.41535 0.01032 0.51365 0.0
O437 O 0.42918 0.04381 0.457 0.0
O438 O 0.46779 0.00722 0.46179 0.0
O439 O 0.44636 0.00327 0.51147 0.0
O440 O 0.40483 0.03659 0.5066 0.0
O441 O 0.48677 0.05384 0.53352 0.0
H442 H 0.4874 0.95303 0.47756 0.0
H443 H 0.54743 0.02782 0.52583 0.0
O444 O 0.44462 0.08807 0.53158 0.0
O445 O 0.46911 0.09466 0.483 0.0
O446 O 0.5081 0.0569 0.48416 0.0
C447 C 0.49969 0.08528 0.47983 0.0
H448 H 0.36522 0.16414 0.48453 0.0
H449 H 0.54089 0.92378 0.49374 0.0
Co450 Co 0.44602 0.51337 0.01683 0.0
C451 C 0.46306 0.53961 0.07102 0.0
Co452 Co 0.48444 0.48439 0.0333 0.0
C453 C 0.39026 0.52804 0.98448 0.0
C454 C 0.41233 0.5724 0.00909 0.0
N455 N 0.41426 0.53858 0.00349 0.0
N456 N 0.37374 0.55395 0.97773 0.0
C457 C 0.38753 0.58194 -0.00684 0.0
H458 H 0.38628 0.50193 0.97465 0.0
H459 H 0.42883 0.58909 0.02306 0.0
C460 C 0.46983 0.45824 0.97923 0.0
N461 N 0.51694 0.46046 0.04709 0.0
C462 C 0.54488 0.47392 0.06033 0.0
C463 C 0.51796 0.42768 0.04796 0.0
N464 N 0.56328 0.45111 0.06965 0.0
C465 C 0.54642 0.42189 0.06211 0.0
C466 C 0.41955 0.46234 0.03857 0.0
O467 O 0.45055 0.48356 0.98133 0.0
O468 O 0.4861 0.45385 -1e-05 0.0
O469 O 0.45005 0.45857 0.04502 0.0
O470 O 0.41204 0.48549 0.02623 0.0
O471 O 0.48323 0.5151 0.06686 0.0
H472 H 0.49886 0.40945 0.03951 0.0
H473 H 0.55079 0.50044 0.06427 0.0
O474 O 0.44264 0.54293 0.05219 0.0
O475 O 0.47975 0.54069 0.00704 0.0
O476 O 0.51862 0.51031 0.02092 0.0
C477 C 0.51056 0.53449 0.00999 0.0
H478 H 0.38086 0.6074 -0.00765 0.0
H479 H 0.5538 0.39832 0.06693 0.0
H480 H 0.00296 0.07231 0.00965 0.0
H481 H 0.92735 0.12721 0.16094 0.0
H482 H 0.9941 0.0046 0.06479 0.0
H483 H 0.97037 0.19761 0.11735 0.0
H484 H 0.94199 0.08128 0.12221 0.0
H485 H 0.98382 0.11829 0.04645 0.0
C486 C 0.99738 0.06725 0.02964 0.0
C487 C 0.00021 0.03472 0.03431 0.0
C488 C 0.94783 0.10685 0.12106 0.0
C489 C 0.97752 0.08688 0.07611 0.0
C490 C 0.93906 0.13306 0.14292 0.0
C491 C 0.94782 0.16614 0.14229 0.0
C492 C 0.96506 0.11399 0.09843 0.0
C493 C 0.96334 0.17237 0.11864 0.0
C494 C 0.9863 0.09342 0.05054 0.0
C495 C 0.99254 0.02943 0.06049 0.0
N496 N 0.97165 0.14647 0.09766 0.0
N497 N 0.98121 0.05526 0.08042 0.0
H498 H 0.77577 0.19411 0.41713 0.0
H499 H 0.81521 0.24028 0.27487 0.0
H500 H 0.73811 0.28383 0.39504 0.0
H501 H 0.83717 0.14387 0.29285 0.0
H502 H 0.77982 0.25367 0.31589 0.0
H503 H 0.79149 0.17215 0.36937 0.0
C504 C 0.77055 0.20906 0.40212 0.0
C505 C 0.75623 0.24108 0.41006 0.0
C506 C 0.79188 0.22934 0.31059 0.0
C507 C 0.77439 0.21624 0.3554 0.0
C508 C 0.81218 0.22178 0.28729 0.0
C509 C 0.82967 0.19124 0.28085 0.0
C510 C 0.78946 0.20632 0.32772 0.0
C511 C 0.82429 0.16777 0.29715 0.0
C512 C 0.77937 0.19645 0.37482 0.0
C513 C 0.74946 0.25916 0.38977 0.0
N514 N 0.80513 0.17606 0.32014 0.0
N515 N 0.75916 0.24671 0.36337 0.0
H516 H 0.81472 0.09585 0.65831 0.0
H517 H 0.85322 0.13697 0.51194 0.0
H518 H 0.87152 0.02978 0.5952 0.0
H519 H 0.79397 0.20001 0.57538 0.0
H520 H 0.86518 0.10004 0.54329 0.0
H521 H 0.81262 0.13722 0.62977 0.0
C522 C 0.82701 0.09026 0.63844 0.0
C523 C 0.84292 0.05928 0.62885 0.0
C524 C 0.84969 0.12204 0.55037 0.0
C525 C 0.84043 0.10635 0.59589 0.0
C526 C 0.84292 0.1432 0.53252 0.0
C527 C 0.82237 0.17155 0.54099 0.0
C528 C 0.83585 0.1293 0.57691 0.0
C529 C 0.80941 0.17816 0.5678 0.0
C530 C 0.82582 0.11385 0.62215 0.0
C531 C 0.85902 0.05343 0.60324 0.0
N532 N 0.81631 0.15715 0.58475 0.0
N533 N 0.857 0.07662 0.58741 0.0
H534 H 0.89243 0.98529 0.89863 0.0
H535 H 0.86241 0.01042 0.74622 0.0
H536 H 0.96055 0.03957 0.85683 0.0
H537 H 0.78735 0.96929 0.7922 0.0
H538 H 0.89899 0.02048 0.78639 0.0
H539 H 0.85357 0.97893 0.85989 0.0
C540 C 0.89914 -0.00407 0.88128 0.0
C541 C 0.92984 0.01273 0.88076 0.0
C542 C 0.8745 0.00933 0.78774 0.0
C543 C 0.88557 0.00562 0.83645 0.0
C544 C 0.85363 0.00341 0.76477 0.0
C545 C 0.8218 0.9889 0.76587 0.0
C546 C 0.86358 0.00049 0.81197 0.0
C547 C 0.81172 0.98049 0.79047 0.0
C548 C 0.8769 0.99242 0.85925 0.0
C549 C 0.93706 0.0266 0.85807 0.0
N550 N 0.83263 0.98633 0.81257 0.0
N551 N 0.91518 0.02249 0.83666 0.0
H552 H 0.12139 0.93126 0.04928 0.0
H553 H 0.14235 0.90665 0.20291 0.0
H554 H 0.05533 0.86999 0.08644 0.0
H555 H 0.20834 0.96815 0.16575 0.0
H556 H 0.11435 0.88752 0.15867 0.0
H557 H 0.15737 0.93981 0.08992 0.0
C558 C 0.11451 0.91951 0.06597 0.0
C559 C 0.08502 0.90029 0.06464 0.0
C560 C 0.13517 0.90494 0.1601 0.0
C561 C 0.12621 0.90983 0.11122 0.0
C562 C 0.15121 0.91588 0.18537 0.0
C563 C 0.17751 0.93933 0.18811 0.0
C564 C 0.14535 0.91767 0.13741 0.0
C565 C 0.18803 0.95022 0.16463 0.0
C566 C 0.13516 0.92426 0.08912 0.0
C567 C 0.0778 0.88497 0.08658 0.0
N568 N 0.17168 0.93955 0.14033 0.0
N569 N 0.09806 0.89037 0.10911 0.0
H570 H 0.05658 0.4348 0.37016 0.0
H571 H 0.97109 0.2558 0.3115 0.0
H572 H 0.05546 0.35616 0.41561 0.0
H573 H 0.97888 0.33538 0.26743 0.0
H574 H -0.0002 0.29198 0.35097 0.0
H575 H 0.02912 0.39718 0.33186 0.0
C576 C 0.05121 0.40928 0.37178 0.0
C577 C 0.05827 0.39852 0.39599 0.0
C578 C 0.99483 0.30155 0.33273 0.0
C579 C 0.02576 0.35552 0.35259 0.0
C580 C 0.97803 0.28117 0.31049 0.0
C581 C 0.97272 0.29282 0.2864 0.0
C582 C 0.00609 0.33356 0.33057 0.0
C583 C 0.98265 0.32553 0.28571 0.0
C584 C 0.03517 0.38787 0.35003 0.0
C585 C 0.05066 0.36527 0.39712 0.0
N586 N -0.00099 0.34464 0.30738 0.0
N587 N 0.03435 0.34496 0.37579 0.0
H588 H 0.69725 0.36216 0.56325 0.0
H589 H 0.67966 0.3057 0.70517 0.0
H590 H 0.75423 0.28158 0.58476 0.0
H591 H 0.62053 0.38419 0.68288 0.0
H592 H 0.7155 0.30449 0.66522 0.0
H593 H 0.67749 0.37844 0.61061 0.0
C594 C 0.70599 0.34817 0.57803 0.0
C595 C 0.72688 0.32005 0.56995 0.0
C596 C 0.695 0.32235 0.66925 0.0
C597 C 0.70416 0.33842 0.62411 0.0
C598 C 0.67448 0.32293 0.69197 0.0
C599 C 0.64671 0.34455 0.69692 0.0
C600 C 0.68744 0.34332 0.6512 0.0
C601 C 0.64158 0.36701 0.67968 0.0
C602 C 0.6947 0.35751 0.60508 0.0
C603 C 0.73777 0.30314 0.59003 0.0
N604 N 0.66142 0.36541 0.65726 0.0
N605 N 0.72585 0.3123 0.61611 0.0
H606 H 0.62605 0.94202 0.79841 0.0
H607 H 0.67584 0.77975 0.85468 0.0
H608 H 0.70323 0.87144 0.76307 0.0
H609 H 0.60623 0.85467 0.8965 0.0
H610 H 0.67999 0.80936 0.81736 0.0
H611 H 0.61281 0.90709 0.8311 0.0
C612 C 0.64 0.91902 0.79736 0.0
C613 C 0.66597 0.90973 0.77811 0.0
C614 C 0.6636 0.8193 0.83456 0.0
C615 C 0.65105 0.86978 0.81548 0.0
C616 C 0.66127 0.80242 0.85588 0.0
C617 C 0.6411 0.81515 0.87886 0.0
C618 C 0.64574 0.8493 0.83624 0.0
C619 C 0.62209 0.84412 0.87912 0.0
C620 C 0.63252 0.89918 0.81609 0.0
C621 C 0.68345 0.87986 0.77785 0.0
N622 N 0.62518 0.86053 0.85823 0.0
N623 N 0.67572 0.86102 0.7963 0.0
H624 H 0.17955 0.25222 0.02988 0.0
H625 H 0.09907 0.22355 0.16771 0.0
H626 H 0.22627 0.18692 0.07645 0.0
H627 H 0.07921 0.31087 0.13473 0.0
H628 H 0.14515 0.20834 0.13471 0.0
H629 H 0.14129 0.27229 0.06785 0.0
C630 C 0.18171 0.24203 0.04814 0.0
C631 C 0.20592 0.21764 0.04997 0.0
C632 C 0.13098 0.23105 0.13498 0.0
C633 C 0.16207 0.24064 0.09362 0.0
C634 C 0.10461 0.23962 0.15364 0.0
C635 C 0.08513 0.26828 0.15364 0.0
C636 C 0.13745 0.25107 0.11601 0.0
C637 C 0.09365 0.28863 0.13541 0.0
C638 C 0.16001 0.25373 0.06992 0.0
C639 C 0.20784 0.20566 0.07425 0.0
N640 N 0.11891 0.27937 0.11705 0.0
N641 N 0.18586 0.21705 0.09513 0.0
H642 H 0.65722 0.52587 0.36438 0.0
H643 H 0.69368 0.34747 0.39931 0.0
H644 H 0.72095 0.44961 0.31631 0.0
H645 H 0.64796 0.4293 0.45726 0.0
H646 H 0.69459 0.38184 0.36511 0.0
H647 H 0.6452 0.4883 0.39542 0.0
C648 C 0.66847 0.50114 0.3603 0.0
C649 C 0.69036 0.49085 0.33797 0.0
C650 C 0.68417 0.39231 0.38524 0.0
C651 C 0.67672 0.44797 0.3731 0.0
C652 C 0.68372 0.37273 0.40476 0.0
C653 C 0.67137 0.38592 0.43125 0.0
C654 C 0.67229 0.42542 0.39226 0.0
C655 C 0.65782 0.41838 0.43705 0.0
C656 C 0.66169 0.47981 0.378 0.0
C657 C 0.70446 0.45871 0.33359 0.0
N658 N 0.659 0.4373 0.41775 0.0
N659 N 0.69742 0.43842 0.35103 0.0
H660 H 0.56454 0.92336 0.53879 0.0
H661 H 0.73183 0.00099 0.61544 0.0
H662 H 0.60913 0.01526 0.5265 0.0
H663 H 0.66318 0.93827 0.64889 0.0
H664 H 0.69403 -0.00207 0.5762 0.0
H665 H 0.60848 0.91955 0.57235 0.0
C666 C 0.584 0.94236 0.54278 0.0
C667 C 0.58328 0.96976 0.53005 0.0
C668 C 0.6874 0.98474 0.5921 0.0
C669 C 0.63316 0.96572 0.56838 0.0
C670 C 0.7089 0.9864 0.61442 0.0
C671 C 0.7004 0.97003 0.63547 0.0
C672 C 0.65753 0.96619 0.5907 0.0
C673 C 0.67046 0.95149 0.63319 0.0
C674 C 0.6088 0.94034 0.56207 0.0
C675 C 0.60876 -0.00603 0.53617 0.0
N676 N 0.65005 0.95004 0.61113 0.0
N677 N 0.63271 0.99146 0.55503 0.0
H678 H 0.99191 0.90726 0.87949 0.0
H679 H 0.96032 0.7141 0.8218 0.0
H680 H 0.00117 0.83783 0.93323 0.0
H681 H 0.92099 0.79277 0.78561 0.0
H682 H 0.97424 0.75628 0.86376 0.0
H683 H 0.96863 0.86285 0.84418 0.0
C684 C 0.9894 0.88247 0.88378 0.0
C685 C -0.00158 0.87628 0.90941 0.0
C686 C 0.96155 0.76408 0.84697 0.0
C687 C 0.97106 0.82508 0.86891 0.0
C688 C 0.95318 0.74004 0.82328 0.0
C689 C 0.93944 0.75028 0.80053 0.0
C690 C 0.95639 0.79821 0.84734 0.0
C691 C 0.93146 0.78409 0.80289 0.0
C692 C 0.97566 0.85715 0.86366 0.0
C693 C 0.99468 0.84357 0.91366 0.0
N694 N 0.94053 0.80694 0.82572 0.0
N695 N 0.98119 0.81901 0.89352 0.0
H696 H 0.12296 0.96718 -0.00583 0.0
H697 H 0.25477 0.07759 -0.00499 0.0
H698 H 0.09162 -0.0055 0.91909 0.0
H699 H 0.19535 0.11148 0.93379 0.0
H700 H 0.22124 0.02629 0.98749 0.0
H701 H 0.17494 -0.00161 -0.00681 0.0
C702 C 0.12758 0.97888 0.97699 0.0
C703 C 0.10273 0.97897 0.95702 0.0
C704 C 0.21541 0.04487 0.97571 0.0
C705 C 0.16224 0.01467 0.95551 0.0
C706 C 0.2348 0.07409 0.97983 0.0
C707 C 0.2272 0.09919 0.96552 0.0
C708 C 0.18816 0.04103 0.95726 0.0
C709 C 0.20157 0.09314 0.94576 0.0
C710 C 0.15742 -0.00323 0.97636 0.0
C711 C 0.10988 -0.00555 0.93522 0.0
N712 N 0.18277 0.06488 0.94247 0.0
N713 N 0.13872 0.01214 0.93532 0.0
H714 H 0.75693 0.66009 0.23126 0.0
H715 H 0.60477 0.75576 0.31659 0.0
H716 H 0.72096 0.64332 0.30883 0.0
H717 H 0.63272 0.76873 0.23591 0.0
H718 H 0.65771 0.72678 0.3195 0.0
H719 H 0.72217 0.71085 0.23784 0.0
C720 C 0.74235 0.66755 0.24996 0.0
C721 C 0.74115 0.6472 0.26927 0.0
C722 C 0.65264 0.73643 0.30131 0.0
C723 C 0.70152 0.70483 0.27686 0.0
C724 C 0.62242 0.75301 0.29968 0.0
C725 C 0.61416 0.76394 0.27575 0.0
C726 C 0.67442 0.73005 0.27858 0.0
C727 C 0.63808 0.7603 0.25462 0.0
C728 C 0.72248 0.69642 0.25367 0.0
C729 C 0.72203 0.65797 0.29317 0.0
N730 N 0.66689 0.74289 0.25624 0.0
N731 N 0.70264 0.68579 0.29611 0.0
H732 H 0.34282 0.83956 0.56966 0.0
H733 H 0.3467 0.00414 0.50717 0.0
H734 H 0.26259 0.86673 0.52025 0.0
H735 H 0.43194 0.9642 0.54316 0.0
H736 H 0.31101 0.96089 0.5201 0.0
H737 H 0.3708 0.89255 0.56894 0.0
C738 C 0.33082 0.85688 0.55901 0.0
C739 C 0.30059 0.84846 0.54463 0.0
C740 C 0.33746 0.96193 0.52542 0.0
C741 C 0.33268 0.90902 0.54347 0.0
C742 C 0.35776 0.9866 0.51811 0.0
C743 C 0.39235 0.98738 0.52376 0.0
C744 C 0.35193 0.93825 0.53864 0.0
C745 C 0.40546 0.96417 0.53801 0.0
C746 C 0.34686 0.8871 0.55852 0.0
C747 C 0.28608 0.87204 0.53136 0.0
N748 N 0.3853 0.94047 0.5448 0.0
N749 N 0.30248 0.90109 0.5308 0.0
H750 H 0.00241 0.6044 0.75931 0.0
H751 H 0.20047 0.57564 0.73942 0.0
H752 H 0.07131 0.68092 0.74564 0.0
H753 H 0.13278 0.50346 0.76208 0.0
H754 H 0.15366 0.61521 0.74266 0.0
H755 H 0.05027 0.56805 0.76268 0.0
C756 C 0.02761 0.61376 0.75745 0.0
C757 C 0.03284 0.64566 0.75201 0.0
C758 C 0.14911 0.59074 0.74701 0.0
C759 C 0.08769 0.60399 0.75535 0.0
C760 C 0.17578 0.56809 0.74501 0.0
C761 C 0.17049 0.53615 0.75035 0.0
C762 C 0.11694 0.58129 0.75427 0.0
C763 C 0.13802 0.52778 0.7577 0.0
C764 C 0.05493 0.59294 0.75924 0.0
C765 C 0.06607 0.65647 0.74976 0.0
N766 N 0.11248 0.55015 0.75934 0.0
N767 N 0.09221 0.63553 0.75114 0.0
H768 H 0.7978 0.37886 0.47025 0.0
H769 H 0.99451 0.39484 0.50447 0.0
H770 H 0.85504 0.31052 0.50739 0.0
H771 H 0.945 0.45709 0.45667 0.0
H772 H 0.9412 0.36825 0.50979 0.0
H773 H 0.8492 0.41191 0.46869 0.0
C774 C 0.82107 0.37094 0.4782 0.0
C775 C 0.82221 0.34183 0.48886 0.0
C776 C 0.94181 0.38775 0.49816 0.0
C777 C 0.88069 0.37937 0.48722 0.0
C778 C 0.97233 0.40303 0.49512 0.0
C779 C 0.97429 0.42805 0.47988 0.0
C780 C 0.91278 0.39734 0.4858 0.0
C781 C 0.94458 0.43779 0.4685 0.0
C782 C 0.85033 0.38974 0.47725 0.0
C783 C 0.85296 0.33264 0.49884 0.0
N784 N 0.91495 0.42222 0.47154 0.0
N785 N 0.88088 0.35131 0.49775 0.0
H786 H 0.30318 0.92548 0.22214 0.0
H787 H 0.40314 0.79247 0.28551 0.0
H788 H 0.26347 0.88588 0.28916 0.0
H789 H 0.43243 0.82556 0.21231 0.0
H790 H 0.34878 0.82044 0.28458 0.0
H791 H 0.34748 0.88384 0.2158 0.0
C792 C 0.30383 0.90789 0.23557 0.0
C793 C 0.28004 0.90946 0.25654 0.0
C794 C 0.3669 0.82103 0.26847 0.0
C795 C 0.33109 0.86155 0.24949 0.0
C796 C 0.39788 0.805 0.26892 0.0
C797 C 0.42251 0.80721 0.24919 0.0
C798 C 0.36073 0.83932 0.24818 0.0
C799 C 0.41438 0.82367 0.22817 0.0
C800 C 0.32907 0.88391 0.23182 0.0
C801 C 0.28162 0.8856 0.27292 0.0
N802 N 0.38437 0.8394 0.22842 0.0
N803 N 0.30717 0.86283 0.26934 0.0
H804 H 0.35325 0.43311 0.73013 0.0
H805 H 0.43556 0.27845 0.78046 0.0
H806 H 0.29582 0.37099 0.77329 0.0
H807 H 0.48648 0.34045 0.73323 0.0
H808 H 0.38338 0.30961 0.77721 0.0
H809 H 0.4015 0.39722 0.73035 0.0
C810 C 0.35073 0.41181 0.73968 0.0
C811 C 0.32043 0.40517 0.75185 0.0
C812 C 0.40598 0.31615 0.76746 0.0
C813 C 0.37616 0.36365 0.75225 0.0
C814 C 0.43571 0.29839 0.76926 0.0
C815 C 0.46545 0.30703 0.75724 0.0
C816 C 0.40619 0.34259 0.75354 0.0
C817 C 0.46428 0.33303 0.74299 0.0
C818 C 0.37843 0.3912 0.73975 0.0
C819 C 0.31878 0.37703 0.76374 0.0
N820 N 0.43524 0.34989 0.74165 0.0
N821 N 0.34642 0.35731 0.76379 0.0
H822 H 0.23573 0.74667 0.61924 0.0
H823 H 0.05967 0.82368 0.67849 0.0
H824 H 0.16871 0.80055 0.57597 0.0
H825 H 0.10704 0.7402 0.70361 0.0
H826 H 0.10775 0.82734 0.64875 0.0
H827 H 0.19605 0.75548 0.65767 0.0
C828 C 0.21281 0.7606 0.61795 0.0
C829 C 0.20516 0.77254 0.59431 0.0
C830 C 0.10779 0.80854 0.66109 0.0
C831 C 0.16021 0.78295 0.6381 0.0
C832 C 0.08055 0.80662 0.67819 0.0
C833 C 0.07936 0.78132 0.69317 0.0
C834 C 0.13398 0.78515 0.6592 0.0
C835 C 0.1069 0.75964 0.69193 0.0
C836 C 0.19028 0.76559 0.63983 0.0
C837 C 0.17529 0.79055 0.59369 0.0
N838 N 0.13308 0.76186 0.67499 0.0
N839 N 0.15378 0.79512 0.61528 0.0
H840 H 0.09758 0.89926 0.35025 0.0
H841 H 0.22605 0.79231 0.42 0.0
H842 H 0.19546 0.86673 0.3179 0.0
H843 H 0.12566 0.8166 0.45077 0.0
H844 H 0.21358 0.81736 0.38105 0.0
H845 H 0.10483 0.86586 0.38538 0.0
C846 C 0.1203 0.88468 0.35034 0.0
C847 C 0.14622 0.88612 0.33158 0.0
C848 C 0.19415 0.81713 0.39622 0.0
C849 C 0.15488 0.84841 0.37149 0.0
C850 C 0.20141 0.80308 0.4186 0.0
C851 C 0.17697 0.80267 0.43875 0.0
C852 C 0.16226 0.83118 0.39404 0.0
C853 C 0.14516 0.8163 0.43559 0.0
C854 C 0.12455 0.86583 0.3704 0.0
C855 C 0.17524 0.8669 0.33246 0.0
N856 N 0.13877 0.83026 0.41374 0.0
N857 N 0.1789 0.8491 0.35221 0.0
H858 H 0.01173 0.67807 0.6387 0.0
H859 H 0.04943 0.48825 0.56348 0.0
H860 H 0.96523 0.59325 0.66271 0.0
H861 H 0.06117 0.57164 0.52395 0.0
H862 H 0.0286 0.52726 0.60479 0.0
H863 H 0.03848 0.63969 0.60011 0.0
C864 C 0.0069 0.65139 0.63567 0.0
C865 C 0.98604 0.63877 0.65372 0.0
C866 C 0.03612 0.53695 0.58713 0.0
C867 C 0.01715 0.59486 0.61018 0.0
C868 C 0.04834 0.51484 0.56377 0.0
C869 C 0.05675 0.52688 0.54038 0.0
C870 C 0.03284 0.57118 0.58702 0.0
C871 C 0.05464 0.56144 0.54158 0.0
C872 C 0.02228 0.62954 0.61376 0.0
C873 C 0.98082 0.604 0.64902 0.0
N874 N 0.04275 0.58241 0.56451 0.0
N875 N 0.99648 0.58315 0.62775 0.0
H876 H 0.37105 0.71731 0.48651 0.0
H877 H 0.40587 0.75454 0.33836 0.0
H878 H 0.29578 0.75499 0.43844 0.0
H879 H 0.4768 0.70389 0.38082 0.0
H880 H 0.36519 0.7549 0.37502 0.0
H881 H 0.41015 0.71172 0.448 0.0
C882 C 0.36269 0.72424 0.46781 0.0
C883 C 0.33018 0.73678 0.4657 0.0
C884 C 0.38959 0.74356 0.37629 0.0
C885 C 0.37478 0.7306 0.4217 0.0
C886 C 0.41289 0.74358 0.35547 0.0
C887 C 0.4448 0.72938 0.3567 0.0
C888 C 0.39835 0.72945 0.39861 0.0
C889 C 0.45238 0.7149 0.37904 0.0
C890 C 0.38501 0.72101 0.44584 0.0
C891 C 0.32064 0.74528 0.44098 0.0
N892 N 0.42937 0.7155 0.39925 0.0
N893 N 0.34294 0.74222 0.42 0.0
H894 H 0.34066 0.09131 0.20865 0.0
H895 H 0.30729 0.08088 0.04928 0.0
H896 H 0.2712 0.02217 0.15907 0.0
H897 H 0.3741 0.15299 0.0986 0.0
H898 H 0.30023 0.05368 0.08789 0.0
H899 H 0.3588 0.10964 0.16749 0.0
C900 C 0.32937 0.07984 0.18908 0.0
C901 C 0.30416 0.0554 0.1873 0.0
C902 C 0.31677 0.07521 0.09025 0.0
C903 C 0.32469 0.07627 0.14021 0.0
C904 C 0.32079 0.09067 0.06823 0.0
C905 C 0.34086 0.11943 0.07104 0.0
C906 C 0.33272 0.08884 0.11534 0.0
C907 C 0.35838 0.13086 0.09572 0.0
C908 C 0.33971 0.09034 0.16561 0.0
C909 C 0.29019 0.04157 0.16147 0.0
N910 N 0.35349 0.1158 0.11716 0.0
N911 N 0.30057 0.0523 0.13895 0.0
H912 H 0.78292 0.66116 0.90732 0.0
H913 H 0.8065 0.65967 0.74975 0.0
H914 H 0.72231 0.72082 0.86419 0.0
H915 H 0.85672 0.59119 0.79104 0.0
H916 H 0.7685 0.67569 0.78899 0.0
H917 H 0.8046 0.63002 0.86346 0.0
C918 C 0.77413 0.66769 0.88858 0.0
C919 C 0.75121 0.694 0.88941 0.0
C920 C 0.78727 0.65655 0.78924 0.0
C921 C 0.77588 0.65829 0.83902 0.0
C922 C 0.80877 0.64731 0.76681 0.0
C923 C 0.83498 0.62452 0.76745 0.0
C924 C 0.79241 0.64319 0.81259 0.0
C925 C 0.83688 0.60893 0.78981 0.0
C926 C 0.78632 0.64968 0.8635 0.0
C927 C 0.74027 0.70096 0.86447 0.0
N928 N 0.81636 0.61912 0.81181 0.0
N929 N 0.75305 0.68347 0.84027 0.0
H930 H 0.38065 0.57426 0.69831 0.0
H931 H 0.29255 0.71833 0.63889 0.0
H932 H 0.27673 0.6034 0.71202 0.0
H933 H 0.39272 0.68185 0.61687 0.0
H934 H 0.29087 0.68534 0.67416 0.0
H935 H 0.3898 0.62221 0.67723 0.0
C936 C 0.35986 0.59103 0.69721 0.0
C937 C 0.32768 0.58439 0.70636 0.0
C938 C 0.31341 0.68479 0.66188 0.0
C939 C 0.33798 0.6393 0.68232 0.0
C940 C 0.31432 0.7035 0.64166 0.0
C941 C 0.34253 0.70211 0.62454 0.0
C942 C 0.34084 0.6643 0.66491 0.0
C943 C 0.37043 0.68335 0.62952 0.0
C944 C 0.36513 0.61842 0.68524 0.0
C945 C 0.30187 0.60741 0.70512 0.0
N946 N 0.36869 0.66467 0.64899 0.0
N947 N 0.30746 0.63355 0.69287 0.0
H948 H 0.21582 0.00055 0.36193 0.0
H949 H 0.33904 0.146 0.43782 0.0
H950 H 0.26887 0.0692 0.32222 0.0
H951 H 0.30261 0.06669 0.47471 0.0
H952 H 0.30036 0.12742 0.39932 0.0
H953 H 0.23613 0.03238 0.40655 0.0
C954 C 0.23153 0.0224 0.36262 0.0
C955 C 0.24118 0.0319 0.33833 0.0
C956 C 0.30028 0.1145 0.41613 0.0
C957 C 0.26402 0.06856 0.38912 0.0
C958 C 0.32205 0.1254 0.43826 0.0
C959 C 0.32434 0.10743 0.45915 0.0
C960 C 0.28083 0.08545 0.41497 0.0
C961 C 0.30191 0.08075 0.45865 0.0
C962 C 0.24299 0.04061 0.38805 0.0
C963 C 0.26129 0.06062 0.34039 0.0
N964 N 0.28149 0.07012 0.43662 0.0
N965 N 0.2722 0.07778 0.3653 0.0
H966 H 0.75981 0.84377 0.93551 0.0
H967 H 0.92219 0.91569 0.02283 0.0
H968 H 0.79801 0.81059 0.0062 0.0
H969 H 0.8944 0.94481 0.94759 0.0
H970 H 0.86834 0.88727 0.02248 0.0
H971 H 0.80139 0.88973 0.9442 0.0
C972 C 0.77667 0.84641 0.95294 0.0
C973 C 0.77616 0.82303 0.96977 0.0
C974 C 0.87373 0.90021 0.00618 0.0
C975 C 0.82288 0.87524 0.98005 0.0
C976 C 0.90446 0.9165 0.00645 0.0
C977 C 0.9129 0.93199 0.98496 0.0
C978 C 0.85159 0.89879 0.98393 0.0
C979 C 0.88887 0.9328 0.96443 0.0
C980 C 0.80025 0.87255 0.95793 0.0
C981 C 0.79815 0.82759 -0.00772 0.0
N982 N 0.85946 0.91573 0.96408 0.0
N983 N 0.82068 0.85297 -0.00337 0.0
H984 H 0.69403 0.17568 0.49045 0.0
H985 H 0.49491 0.15277 0.48093 0.0
H986 H 0.62682 0.25667 0.48396 0.0
H987 H 0.56563 0.07058 0.46879 0.0
H988 H 0.54205 0.19173 0.48168 0.0
H989 H 0.6463 0.13724 0.48385 0.0
C990 C 0.66919 0.18542 0.48779 0.0
C991 C 0.66438 0.21942 0.48782 0.0
C992 C 0.54711 0.1651 0.4785 0.0
C993 C 0.60961 0.1755 0.48004 0.0
C994 C 0.52023 0.14286 0.47789 0.0
C995 C 0.52639 0.10844 0.47506 0.0
C996 C 0.58021 0.15273 0.47645 0.0
C997 C 0.55969 0.09696 0.47131 0.0
C998 C 0.64197 0.16341 0.4838 0.0
C999 C 0.63164 0.23061 0.4841 0.0
N1000 N 0.58534 0.11908 0.47243 0.0
N1001 N 0.60543 0.2087 0.48044 0.0
H1002 H 0.77588 0.43699 0.25834 0.0
H1003 H 0.91971 0.32203 0.17445 0.0
H1004 H 0.84399 0.46873 0.20147 0.0
H1005 H 0.85078 0.28692 0.22893 0.0
H1006 H 0.88707 0.37351 0.17976 0.0
H1007 H 0.79862 0.37998 0.24449 0.0
C1008 C 0.79547 0.43196 0.24289 0.0
C1009 C 0.80832 0.45773 0.23128 0.0
C1010 C 0.87876 0.3544 0.1903 0.0
C1011 C 0.83423 0.39273 0.21526 0.0
C1012 C 0.89734 0.32491 0.18716 0.0
C1013 C 0.88817 0.30034 0.20151 0.0
C1014 C 0.85102 0.35958 0.20818 0.0
C1015 C 0.85883 0.30532 0.21757 0.0
C1016 C 0.80835 0.39942 0.23493 0.0
C1017 C 0.83354 0.44977 0.21121 0.0
N1018 N 0.84156 0.33464 0.22083 0.0
N1019 N 0.84576 0.41808 0.20399 0.0
H1020 H 0.17264 0.49284 0.50068 0.0
H1021 H 0.21979 0.6678 0.46749 0.0
H1022 H 0.14561 0.5241 0.42627 0.0
H1023 H 0.25632 0.63751 0.53993 0.0
H1024 H 0.20077 0.61095 0.44904 0.0
H1025 H 0.21252 0.53971 0.51169 0.0
C1026 C 0.17608 0.50877 0.48613 0.0
C1027 C 0.1555 0.50501 0.46273 0.0
C1028 C 0.21311 0.61643 0.4689 0.0
C1029 C 0.20029 0.55882 0.47544 0.0
C1030 C 0.22377 0.64906 0.47957 0.0
C1031 C 0.239 0.6575 0.50554 0.0
C1032 C 0.21699 0.59192 0.48449 0.0
C1033 C 0.24428 0.63201 0.51995 0.0
C1034 C 0.19857 0.53573 0.49258 0.0
C1035 C 0.1607 0.52643 0.4447 0.0
N1036 N 0.23271 0.60036 0.50943 0.0
N1037 N 0.18215 0.55273 0.45167 0.0
H1038 H 0.75731 0.09505 0.70016 0.0
H1039 H 0.62979 0.20184 0.80773 0.0
H1040 H 0.70568 0.0603 0.76489 0.0
H1041 H 0.66383 0.23345 0.7352 0.0
H1042 H 0.67199 0.15756 0.79966 0.0
H1043 H 0.73584 0.1519 0.71898 0.0
C1044 C 0.7418 0.09949 0.71847 0.0
C1045 C 0.7326 0.07293 0.73069 0.0
C1046 C 0.67076 0.17454 0.78575 0.0
C1047 C 0.70866 0.13749 0.75244 0.0
C1048 C 0.64682 0.19992 0.79047 0.0
C1049 C 0.64304 0.22076 0.7718 0.0
C1050 C 0.6905 0.16952 0.76185 0.0
C1051 C 0.66589 0.21759 0.74994 0.0
C1052 C 0.72968 0.13185 0.72921 0.0
C1053 C 0.71277 0.07994 0.75448 0.0
N1054 N 0.68822 0.19175 0.74512 0.0
N1055 N 0.70131 0.11146 0.76444 0.0
H1056 H 0.88914 0.61973 0.15215 0.0
H1057 H 0.7595 0.64089 0.03445 0.0
H1058 H 0.79245 0.57108 0.13867 0.0
H1059 H 0.85726 0.68793 0.04409 0.0
H1060 H 0.77347 0.6117 0.07071 0.0
H1061 H 0.88105 0.64091 0.11 0.0
C1062 C 0.8665 0.6132 0.14007 0.0
C1063 C 0.84112 0.59433 0.149 0.0
C1064 C 0.792 0.62827 0.06484 0.0
C1065 C 0.83154 0.61827 0.10133 0.0
C1066 C 0.78388 0.64512 0.04429 0.0
C1067 C 0.80713 0.66704 0.03647 0.0
C1068 C 0.82353 0.6336 0.07786 0.0
C1069 C 0.83869 0.67109 0.04945 0.0
C1070 C 0.86178 0.62533 0.11619 0.0
C1071 C 0.8122 0.58634 0.13278 0.0
N1072 N 0.8459 0.65472 0.06971 0.0
N1073 N 0.80808 0.59858 0.10988 0.0
H1074 H 0.00527 0.58456 0.38242 0.0
H1075 H 0.81216 0.55132 0.34095 0.0
H1076 H 0.93999 0.51985 0.41663 0.0
H1077 H 0.88375 0.58816 0.28937 0.0
H1078 H 0.85665 0.55005 0.37435 0.0
H1079 H 0.9588 0.59562 0.35321 0.0
C1080 C 0.98107 0.57292 0.3839 0.0
C1081 C 0.97641 0.55108 0.40174 0.0
C1082 C 0.86256 0.55865 0.35582 0.0
C1083 C 0.92341 0.56368 0.36872 0.0
C1084 C 0.83715 0.55955 0.33678 0.0
C1085 C 0.84435 0.56954 0.31218 0.0
C1086 C 0.89538 0.56794 0.35033 0.0
C1087 C 0.87717 0.58006 0.30799 0.0
C1088 C 0.95469 0.57911 0.3672 0.0
C1089 C 0.9447 0.53641 0.40282 0.0
N1090 N 0.9016 0.57879 0.32683 0.0
N1091 N 0.91938 0.543 0.38653 0.0
H1092 H 0.18223 0.38943 0.68525 0.0
H1093 H 0.18659 0.4169 0.53239 0.0
H1094 H 0.25586 0.45019 0.65488 0.0
H1095 H 0.1145 0.3531 0.56056 0.0
H1096 H 0.21821 0.42128 0.57502 0.0
H1097 H 0.16273 0.36814 0.6381 0.0
C1098 C 0.19457 0.39798 0.66864 0.0
C1099 C 0.22027 0.4221 0.67402 0.0
C1100 C 0.19576 0.40588 0.57179 0.0
C1101 C 0.19809 0.39793 0.62017 0.0
C1102 C 0.17775 0.40344 0.54749 0.0
C1103 C 0.14773 0.38507 0.54327 0.0
C1104 C 0.18333 0.39024 0.59222 0.0
C1105 C 0.13753 0.36757 0.56314 0.0
C1106 C 0.18345 0.38578 0.64173 0.0
C1107 C 0.23558 0.43203 0.65173 0.0
N1108 N 0.155 0.37108 0.58706 0.0
N1109 N 0.22398 0.42021 0.62583 0.0
H1110 H 0.62734 0.80415 0.17729 0.0
H1111 H 0.63836 0.81479 0.01938 0.0
H1112 H 0.55569 0.85791 0.13815 0.0
H1113 H 0.71107 0.76332 0.05968 0.0
H1114 H 0.61046 0.8351 0.06355 0.0
H1115 H 0.66094 0.79312 0.13534 0.0
C1116 C 0.61873 0.81371 0.15986 0.0
C1117 C 0.58845 0.83162 0.16109 0.0
C1118 C 0.63268 0.8196 0.06277 0.0
C1119 C 0.62687 0.81919 0.11296 0.0
C1120 C 0.64865 0.80799 0.03755 0.0
C1121 C 0.67695 0.78708 0.03579 0.0
C1122 C 0.64501 0.81012 0.08638 0.0
C1123 C 0.68922 0.77921 0.06003 0.0
C1124 C 0.638 0.80755 0.13594 0.0
C1125 C 0.57888 0.84407 0.13811 0.0
N1126 N 0.67302 0.79053 0.08427 0.0
N1127 N 0.59786 0.83733 0.11486 0.0
H1128 H 0.73603 0.54521 0.15982 0.0
H1129 H 0.57896 0.42375 0.11284 0.0
H1130 H 0.67722 0.50015 0.21509 0.0
H1131 H 0.61257 0.49581 0.06704 0.0
H1132 H 0.62318 0.44315 0.14687 0.0
H1133 H 0.69763 0.52026 0.12227 0.0
C1134 C 0.71502 0.53021 0.16406 0.0
C1135 C 0.70961 0.52494 0.19062 0.0
C1136 C 0.62104 0.45449 0.12922 0.0
C1137 C 0.66634 0.49591 0.14788 0.0
C1138 C 0.5961 0.44318 0.10971 0.0
C1139 C 0.59205 0.45846 0.08734 0.0
C1140 C 0.6422 0.48099 0.12611 0.0
C1141 C 0.61469 0.48379 0.08429 0.0
C1142 C 0.69325 0.51594 0.14267 0.0
C1143 C 0.68215 0.50514 0.19499 0.0
N1144 N 0.63876 0.49443 0.10357 0.0
N1145 N 0.66163 0.49123 0.17382 0.0
H1146 H 0.35567 0.45524 0.01747 0.0
H1147 H 0.34194 0.26763 0.03853 0.0
H1148 H 0.42667 0.40976 0.06393 0.0
H1149 H 0.27659 0.30819 0.9846 0.0
H1150 H 0.36739 0.3227 0.05396 0.0
H1151 H 0.32015 0.40539 0.01217 0.0
C1152 C 0.36344 0.43512 0.02711 0.0
C1153 C 0.39445 0.43645 0.04084 0.0
C1154 C 0.34737 0.31968 0.03885 0.0
C1155 C 0.35414 0.37925 0.0345 0.0
C1156 C 0.33287 0.28816 0.02993 0.0
C1157 C 0.30736 0.28319 0.00995 0.0
C1158 C 0.33647 0.34654 0.02769 0.0
C1159 C 0.29641 0.31085 -0.00016 0.0
C1160 C 0.34324 0.40657 0.02389 0.0
C1161 C 0.40316 0.40967 0.05293 0.0
N1162 N 0.31123 0.34135 0.00867 0.0
N1163 N 0.38332 0.382 0.04917 0.0
H1164 H 0.98571 0.13751 0.25015 0.0
H1165 H 0.18026 0.08819 0.24839 0.0
H1166 H 0.06491 0.19199 0.21961 0.0
H1167 H 0.10167 0.02912 0.27458 0.0
H1168 H 0.13839 0.12884 0.24132 0.0
H1169 H 0.02781 0.09958 0.26218 0.0
C1170 C 0.01196 0.14152 0.246 0.0
C1171 C 0.02184 0.16789 0.23378 0.0
C1172 C 0.13024 0.1071 0.24874 0.0
C1173 C 0.07005 0.12467 0.24758 0.0
C1174 C 0.15417 0.08386 0.25285 0.0
C1175 C 0.14439 0.05508 0.26192 0.0
C1176 C 0.0962 0.10156 0.25365 0.0
C1177 C 0.11027 0.05094 0.26751 0.0
C1178 C 0.03596 0.11988 0.25291 0.0
C1179 C 0.05616 0.17195 0.22893 0.0
N1180 N 0.0873 0.07386 0.2631 0.0
N1181 N 0.07902 0.15052 0.23581 0.0
H1182 H 0.13527 0.26358 0.90494 0.0
H1183 H 0.22841 0.34404 0.79403 0.0
H1184 H 0.23855 0.24303 0.88023 0.0
H1185 H 0.12341 0.36053 0.81481 0.0
H1186 H 0.23016 0.30073 0.82045 0.0
H1187 H 0.12833 0.29346 0.86797 0.0
C1188 C 0.1564 0.26502 0.89158 0.0
C1189 C 0.18769 0.25116 0.89597 0.0
C1190 C 0.20659 0.3135 0.81896 0.0
C1191 C 0.18 0.28562 0.85372 0.0
C1192 C 0.20546 0.33817 0.80362 0.0
C1193 C 0.1758 0.35652 0.80254 0.0
C1194 C 0.17797 0.30726 0.83354 0.0
C1195 C 0.14703 0.34767 0.81566 0.0
C1196 C 0.15244 0.28217 0.87049 0.0
C1197 C 0.21424 0.25403 0.87808 0.0
N1198 N 0.14895 0.324 0.83096 0.0
N1199 N 0.20985 0.27117 0.85788 0.0
H1200 H 0.29968 0.19306 0.89553 0.0
H1201 H 0.48698 0.14196 0.84578 0.0
H1202 H 0.37008 0.14816 0.94296 0.0
H1203 H 0.42598 0.21253 0.81443 0.0
H1204 H 0.44029 0.13335 0.87564 0.0
H1205 H 0.34185 0.18918 0.85951 0.0
C1206 C 0.32389 0.18204 0.89825 0.0
C1207 C 0.33162 0.17134 0.92243 0.0
C1208 C 0.43711 0.15052 0.86206 0.0
C1209 C 0.37986 0.16694 0.88135 0.0
C1210 C 0.4636 0.1553 0.845 0.0
C1211 C 0.46028 0.17827 0.82798 0.0
C1212 C 0.40715 0.16858 0.86173 0.0
C1213 C 0.42964 0.19511 0.8277 0.0
C1214 C 0.34794 0.17992 0.8777 0.0
C1215 C 0.36327 0.15705 0.92475 0.0
N1216 N 0.40424 0.19 0.84442 0.0
N1217 N 0.38642 0.15549 0.90451 0.0
H1218 H 0.32614 0.50664 0.96152 0.0
H1219 H 0.30375 0.55315 0.81689 0.0
H1220 H 0.36881 0.5962 0.94295 0.0
H1221 H 0.23963 0.48239 0.84541 0.0
H1222 H 0.32563 0.5718 0.86365 0.0
H1223 H 0.29187 0.49917 0.91985 0.0
C1224 C 0.32794 0.52489 0.94875 0.0
C1225 C 0.35042 0.55186 0.95544 0.0
C1226 C 0.3064 0.55255 0.85971 0.0
C1227 C 0.31175 0.54347 0.90774 0.0
C1228 C 0.29397 0.54186 0.83303 0.0
C1229 C 0.27025 0.51583 0.82718 0.0
C1230 C 0.2953 0.53677 0.88049 0.0
C1231 C 0.25822 0.50226 0.84891 0.0
C1232 C 0.30833 0.52077 0.92508 0.0
C1233 C 0.35166 0.57513 0.9385 0.0
N1234 N 0.27125 0.51255 0.87452 0.0
N1235 N 0.33297 0.57011 0.91514 0.0
H1236 H 0.61167 0.68753 0.94609 0.0
H1237 H 0.57906 0.53116 0.01533 0.0
H1238 H 0.68987 0.63883 0.98327 0.0
H1239 H 0.50075 0.58462 0.98266 0.0
H1240 H 0.621 0.56678 -0.00023 0.0
H1241 H 0.5716 0.64577 0.95477 0.0
C1242 C 0.62049 0.66785 0.9558 0.0
C1243 C 0.65405 0.66683 0.9642 0.0
C1244 C 0.59463 0.57058 -0.00407 0.0
C1245 C 0.60835 0.61919 0.97442 0.0
C1246 C 0.57072 0.55031 0.00483 0.0
C1247 C 0.5364 0.55512 0.00045 0.0
C1248 C 0.58406 0.59574 0.98256 0.0
C1249 C 0.52695 0.58019 0.98665 0.0
C1250 C 0.59759 0.64407 0.96084 0.0
C1251 C 0.66414 0.6407 0.97663 0.0
N1252 N 0.55065 0.59962 0.97828 0.0
N1253 N 0.6413 0.61805 0.98157 0.0
H1254 H 0.84385 0.72966 0.7145 0.0
H1255 H 0.8327 0.89249 0.65152 0.0
H1256 H 0.92265 0.76474 0.66829 0.0
H1257 H 0.75532 0.86307 0.70231 0.0
H1258 H 0.85987 0.83824 0.64838 0.0
H1259 H 0.80538 0.77062 0.70143 0.0
C1260 C 0.85279 0.74544 0.70112 0.0
C1261 C 0.88654 0.74439 0.69289 0.0
C1262 C 0.83666 0.84342 0.65989 0.0
C1263 C 0.84309 0.7911 0.67803 0.0
C1264 C 0.82112 0.87441 0.66163 0.0
C1265 C 0.7921 0.88258 0.67765 0.0
C1266 C 0.8233 0.8206 0.67451 0.0
C1267 C 0.77797 0.85801 0.69006 0.0
C1268 C 0.83094 0.76887 0.69376 0.0
C1269 C 0.89694 0.76526 0.67554 0.0
N1270 N 0.79404 0.82833 0.68863 0.0
N1271 N 0.87544 0.78801 0.66897 0.0
H1272 H 0.58249 0.21544 0.66977 0.0
H1273 H 0.43085 0.12036 0.58315 0.0
H1274 H 0.49035 0.19335 0.70806 0.0
H1275 H 0.53302 0.08735 0.56461 0.0
H1276 H 0.45098 0.15838 0.62529 0.0
H1277 H 0.56328 0.17889 0.62616 0.0
C1278 C 0.55829 0.20303 0.6689 0.0
C1279 C 0.53807 0.20693 0.69238 0.0
C1280 C 0.46886 0.14269 0.61192 0.0
C1281 C 0.51593 0.16646 0.64323 0.0
C1282 C 0.45743 0.12106 0.58806 0.0
C1283 C 0.48029 0.1005 0.57076 0.0
C1284 C 0.50339 0.14432 0.61795 0.0
C1285 C 0.51457 0.10246 0.57777 0.0
C1286 C 0.54746 0.18225 0.64425 0.0
C1287 C 0.50686 0.19054 0.69042 0.0
N1288 N 0.52521 0.12427 0.6008 0.0
N1289 N 0.4966 0.17118 0.6662 0.0
H1290 H 0.54864 0.28996 0.86385 0.0
H1291 H 0.47468 0.47245 0.92807 0.0
H1292 H 0.55162 0.37112 0.82107 0.0
H1293 H 0.48226 0.3921 0.97136 0.0
H1294 H 0.4996 0.43538 0.88731 0.0
H1295 H 0.52429 0.32787 0.90356 0.0
C1296 C 0.54484 0.31603 0.8631 0.0
C1297 C 0.55211 0.32748 0.83924 0.0
C1298 C 0.49543 0.42584 0.90567 0.0
C1299 C 0.52324 0.37084 0.88424 0.0
C1300 C 0.48075 0.44676 0.92868 0.0
C1301 C 0.47655 0.43513 0.9529 0.0
C1302 C 0.50564 0.3933 0.90718 0.0
C1303 C 0.48528 0.40194 0.953 0.0
C1304 C 0.5306 0.33761 0.88565 0.0
C1305 C 0.54658 0.36143 0.83924 0.0
N1306 N 0.49959 0.38227 0.93056 0.0
N1307 N 0.53202 0.38192 0.86135 0.0
H1308 H 0.52345 0.90447 0.29461 0.0
H1309 H 0.40845 0.96324 0.42742 0.0
H1310 H 0.48617 0.84145 0.34737 0.0
H1311 H 0.48041 0.03044 0.40362 0.0
H1312 H 0.42241 0.92097 0.38604 0.0
H1313 H 0.49734 0.95325 0.32551 0.0
C1314 C 0.51021 0.90094 0.31276 0.0
C1315 C 0.50721 0.86889 0.31853 0.0
C1316 C 0.43439 0.94537 0.38941 0.0
C1317 C 0.47626 0.92376 0.35275 0.0
C1318 C 0.42599 0.96957 0.41269 0.0
C1319 C 0.44321 0.0001 0.41851 0.0
C1320 C 0.46056 0.95179 0.37232 0.0
C1321 C 0.46645 0.00709 0.39938 0.0
C1322 C 0.49504 0.9286 0.33008 0.0
C1323 C 0.4894 0.86562 0.34211 0.0
N1324 N 0.47506 0.98273 0.37722 0.0
N1325 N 0.47443 0.89263 0.35817 0.0
H1326 H 0.41646 0.58496 0.09751 0.0
H1327 H 0.46483 0.68788 0.22524 0.0
H1328 H 0.52079 0.556 0.09925 0.0
H1329 H 0.54695 0.70989 0.17532 0.0
H1330 H 0.44859 0.64065 0.18805 0.0
H1331 H 0.42766 0.63239 0.13659 0.0
C1332 C 0.4415 0.58844 0.10628 0.0
C1333 C 0.46764 0.56648 0.09557 0.0
C1334 C 0.47009 0.65593 0.18537 0.0
C1335 C 0.4806 0.62041 0.13895 0.0
C1336 C 0.47963 0.6825 0.20653 0.0
C1337 C 0.50735 0.70251 0.20319 0.0
C1338 C 0.48894 0.64903 0.16113 0.0
C1339 C 0.52545 0.69491 0.17853 0.0
C1340 C 0.44782 0.61529 0.12838 0.0
C1341 C 0.49983 0.57211 0.10728 0.0
N1342 N 0.51617 0.66828 0.15842 0.0
N1343 N 0.50555 0.5989 0.12815 0.0
loop_
_geom_bond_atom_site_label_1
_geom_bond_atom_site_label_2
_geom_bond_distance
_geom_bond_site_symmetry_2
_ccdc_geom_bond_type
Co0 N5 2.057 . S
Co0 O17 2.021 1_545 S
Co0 O20 2.062 1_545 S
Co0 O24 2.117 1_556 S
Co0 O25 2.020 1_655 S
C1 O21 1.259 1_655 S
C1 O24 1.258 . S
Co2 N11 2.057 . S
Co2 O18 2.117 1_554 S
Co2 O19 2.020 1_455 S
Co2 O21 2.021 1_565 S
Co2 O26 2.062 1_565 S
C3 N5 1.316 . S
C3 N6 1.347 . S
C3 H8 0.931 . S
C4 N5 1.375 . S
C4 C7 1.350 . S
C4 H9 0.930 . S
N5 Co0 2.057 . S
N5 C3 1.316 . S
N5 C4 1.375 . S
N6 C3 1.347 . S
N6 C7 1.373 . S
C7 C4 1.350 . S
C7 N6 1.373 . S
C7 H28 0.931 . S
H8 C3 0.931 . S
H9 C4 0.930 . S
C10 O17 1.259 1_455 S
C10 O18 1.258 . S
N11 Co2 2.057 . S
N11 C12 1.316 . S
N11 C13 1.375 . S
C12 N11 1.316 . S
C12 N14 1.347 . S
C12 H23 0.931 . S
C13 N11 1.375 . S
C13 C15 1.350 . S
C13 H22 0.930 . S
N14 C12 1.347 . S
N14 C15 1.373 . S
C15 C13 1.350 . S
C15 N14 1.373 . S
C15 H29 0.931 . S
C16 O19 1.256 . S
C16 O20 1.255 1_554 S
O17 Co0 2.021 1_565 S
O17 C10 1.259 1_655 S
O18 Co2 2.117 1_556 S
O18 C10 1.258 . S
O19 Co2 2.020 1_655 S
O19 C16 1.256 . S
O20 Co0 2.062 1_565 S
O20 C16 1.255 1_556 S
O21 C1 1.259 1_455 S
O21 Co2 2.021 1_545 S
H22 C13 0.930 . S
H23 C12 0.931 . S
O24 Co0 2.117 1_554 S
O24 C1 1.258 . S
O25 Co0 2.020 1_455 S
O25 C27 1.256 . S
O26 Co2 2.062 1_545 S
O26 C27 1.255 1_554 S
C27 O25 1.256 . S
C27 O26 1.255 1_556 S
H28 C7 0.931 . S
H29 C15 0.931 . S
Co30 N35 2.057 . S
Co30 O47 2.021 . S
Co30 O50 2.062 . S
Co30 O54 2.117 1_455 S
Co30 O55 2.020 . S
C31 O51 1.259 . S
C31 O54 1.258 . S
Co32 N41 2.057 . S
Co32 O48 2.117 1_655 S
Co32 O49 2.020 . S
Co32 O51 2.021 . S
Co32 O56 2.062 . S
C33 N35 1.316 . S
C33 N36 1.347 . S
C33 H38 0.931 . S
C34 N35 1.375 . S
C34 C37 1.350 . S
C34 H39 0.930 . S
N35 Co30 2.057 . S
N35 C33 1.316 . S
N35 C34 1.375 . S
N36 C33 1.347 . S
N36 C37 1.373 . S
C37 C34 1.350 . S
C37 N36 1.373 . S
C37 H58 0.931 . S
H38 C33 0.931 . S
H39 C34 0.930 . S
C40 O47 1.259 . S
C40 O48 1.258 . S
N41 Co32 2.057 . S
N41 C42 1.316 . S
N41 C43 1.375 . S
C42 N41 1.316 . S
C42 N44 1.347 . S
C42 H53 0.931 . S
C43 N41 1.375 . S
C43 C45 1.350 . S
C43 H52 0.930 . S
N44 C42 1.347 . S
N44 C45 1.373 . S
C45 C43 1.350 . S
C45 N44 1.373 . S
C45 H59 0.931 . S
C46 O49 1.256 . S
C46 O50 1.255 1_655 S
O47 Co30 2.021 . S
O47 C40 1.259 . S
O48 Co32 2.117 1_455 S
O48 C40 1.258 . S
O49 Co32 2.020 . S
O49 C46 1.256 . S
O50 Co30 2.062 . S
O50 C46 1.255 1_455 S
O51 C31 1.259 . S
O51 Co32 2.021 . S
H52 C43 0.930 . S
H53 C42 0.931 . S
O54 Co30 2.117 1_655 S
O54 C31 1.258 . S
O55 Co30 2.020 . S
O55 C57 1.256 . S
O56 Co32 2.062 . S
O56 C57 1.255 1_655 S
C57 O55 1.256 . S
C57 O56 1.255 1_455 S
H58 C37 0.931 . S
H59 C45 0.931 . S
Co60 N65 2.057 . S
Co60 O77 2.021 . S
Co60 O80 2.062 . S
Co60 O84 2.117 . S
Co60 O85 2.020 . S
C61 O81 1.259 . S
C61 O84 1.258 . S
Co62 N71 2.057 . S
Co62 O78 2.117 . S
Co62 O79 2.020 . S
Co62 O81 2.021 . S
Co62 O86 2.062 . S
C63 N65 1.316 . S
C63 N66 1.347 . S
C63 H68 0.931 . S
C64 N65 1.375 . S
C64 C67 1.350 . S
C64 H69 0.930 . S
N65 Co60 2.057 . S
N65 C63 1.316 . S
N65 C64 1.375 . S
N66 C63 1.347 . S
N66 C67 1.373 . S
C67 C64 1.350 . S
C67 N66 1.373 . S
C67 H88 0.931 . S
H68 C63 0.931 . S
H69 C64 0.930 . S
C70 O77 1.259 . S
C70 O78 1.258 . S
N71 Co62 2.057 . S
N71 C72 1.316 . S
N71 C73 1.375 . S
C72 N71 1.316 . S
C72 N74 1.347 . S
C72 H83 0.931 . S
C73 N71 1.375 . S
C73 C75 1.350 . S
C73 H82 0.930 . S
N74 C72 1.347 . S
N74 C75 1.373 . S
C75 C73 1.350 . S
C75 N74 1.373 . S
C75 H89 0.931 . S
C76 O79 1.256 . S
C76 O80 1.255 . S
O77 Co60 2.021 . S
O77 C70 1.259 . S
O78 Co62 2.117 . S
O78 C70 1.258 . S
O79 Co62 2.020 . S
O79 C76 1.256 . S
O80 Co60 2.062 . S
O80 C76 1.255 . S
O81 C61 1.259 . S
O81 Co62 2.021 . S
H82 C73 0.930 . S
H83 C72 0.931 . S
O84 Co60 2.117 . S
O84 C61 1.258 . S
O85 Co60 2.020 . S
O85 C87 1.256 . S
O86 Co62 2.062 . S
O86 C87 1.255 . S
C87 O85 1.256 . S
C87 O86 1.255 . S
H88 C67 0.931 . S
H89 C75 0.931 . S
Co90 N95 2.057 . S
Co90 O107 2.021 . S
Co90 O110 2.062 . S
Co90 O114 2.117 1_565 S
Co90 O115 2.020 . S
C91 O111 1.259 . S
C91 O114 1.258 . S
Co92 N101 2.057 . S
Co92 O108 2.117 1_545 S
Co92 O109 2.020 . S
Co92 O111 2.021 . S
Co92 O116 2.062 . S
C93 N95 1.316 . S
C93 N96 1.347 . S
C93 H98 0.931 . S
C94 N95 1.375 . S
C94 C97 1.350 . S
C94 H99 0.930 . S
N95 Co90 2.057 . S
N95 C93 1.316 . S
N95 C94 1.375 . S
N96 C93 1.347 . S
N96 C97 1.373 . S
C97 C94 1.350 . S
C97 N96 1.373 . S
C97 H118 0.931 . S
H98 C93 0.931 . S
H99 C94 0.930 . S
C100 O107 1.259 . S
C100 O108 1.258 . S
N101 Co92 2.057 . S
N101 C102 1.316 . S
N101 C103 1.375 . S
C102 N101 1.316 . S
C102 N104 1.347 . S
C102 H113 0.931 . S
C103 N101 1.375 . S
C103 C105 1.350 . S
C103 H112 0.930 . S
N104 C102 1.347 . S
N104 C105 1.373 . S
C105 C103 1.350 . S
C105 N104 1.373 . S
C105 H119 0.931 . S
C106 O109 1.256 . S
C106 O110 1.255 1_545 S
O107 Co90 2.021 . S
O107 C100 1.259 . S
O108 Co92 2.117 1_565 S
O108 C100 1.258 . S
O109 Co92 2.020 . S
O109 C106 1.256 . S
O110 Co90 2.062 . S
O110 C106 1.255 1_565 S
O111 C91 1.259 . S
O111 Co92 2.021 . S
H112 C103 0.930 . S
H113 C102 0.931 . S
O114 Co90 2.117 1_545 S
O114 C91 1.258 . S
O115 Co90 2.020 . S
O115 C117 1.256 . S
O116 Co92 2.062 . S
O116 C117 1.255 1_545 S
C117 O115 1.256 . S
C117 O116 1.255 1_565 S
H118 C97 0.931 . S
H119 C105 0.931 . S
Co120 N125 2.057 . S
Co120 O137 2.021 . S
Co120 O140 2.062 . S
Co120 O144 2.117 . S
Co120 O145 2.020 . S
C121 O141 1.259 . S
C121 O144 1.258 . S
Co122 N131 2.057 . S
Co122 O138 2.117 . S
Co122 O139 2.020 . S
Co122 O141 2.021 . S
Co122 O146 2.062 . S
C123 N125 1.316 . S
C123 N126 1.347 . S
C123 H128 0.931 . S
C124 N125 1.375 . S
C124 C127 1.350 . S
C124 H129 0.930 . S
N125 Co120 2.057 . S
N125 C123 1.316 . S
N125 C124 1.375 . S
N126 C123 1.347 . S
N126 C127 1.373 . S
C127 C124 1.350 . S
C127 N126 1.373 . S
C127 H148 0.931 . S
H128 C123 0.931 . S
H129 C124 0.930 . S
C130 O137 1.259 . S
C130 O138 1.258 . S
N131 Co122 2.057 . S
N131 C132 1.316 . S
N131 C133 1.375 . S
C132 N131 1.316 . S
C132 N134 1.347 . S
C132 H143 0.931 . S
C133 N131 1.375 . S
C133 C135 1.350 . S
C133 H142 0.930 . S
N134 C132 1.347 . S
N134 C135 1.373 . S
C135 C133 1.350 . S
C135 N134 1.373 . S
C135 H149 0.931 . S
C136 O139 1.256 . S
C136 O140 1.255 . S
O137 Co120 2.021 . S
O137 C130 1.259 . S
O138 Co122 2.117 . S
O138 C130 1.258 . S
O139 Co122 2.020 . S
O139 C136 1.256 . S
O140 Co120 2.062 . S
O140 C136 1.255 . S
O141 C121 1.259 . S
O141 Co122 2.021 . S
H142 C133 0.930 . S
H143 C132 0.931 . S
O144 Co120 2.117 . S
O144 C121 1.258 . S
O145 Co120 2.020 . S
O145 C147 1.256 . S
O146 Co122 2.062 . S
O146 C147 1.255 . S
C147 O145 1.256 . S
C147 O146 1.255 . S
H148 C127 0.931 . S
H149 C135 0.931 . S
Co150 N155 2.057 . S
Co150 O167 2.021 . S
Co150 O170 2.062 . S
Co150 O174 2.117 . S
Co150 O175 2.020 . S
C151 O171 1.259 . S
C151 O174 1.258 . S
Co152 N161 2.057 . S
Co152 O168 2.117 . S
Co152 O169 2.020 . S
Co152 O171 2.021 . S
Co152 O176 2.062 . S
C153 N155 1.316 . S
C153 N156 1.347 . S
C153 H158 0.931 . S
C154 N155 1.375 . S
C154 C157 1.350 . S
C154 H159 0.930 . S
N155 Co150 2.057 . S
N155 C153 1.316 . S
N155 C154 1.375 . S
N156 C153 1.347 . S
N156 C157 1.373 . S
C157 C154 1.350 . S
C157 N156 1.373 . S
C157 H178 0.931 . S
H158 C153 0.931 . S
H159 C154 0.930 . S
C160 O167 1.259 . S
C160 O168 1.258 . S
N161 Co152 2.057 . S
N161 C162 1.316 . S
N161 C163 1.375 . S
C162 N161 1.316 . S
C162 N164 1.347 . S
C162 H173 0.931 . S
C163 N161 1.375 . S
C163 C165 1.350 . S
C163 H172 0.930 . S
N164 C162 1.347 . S
N164 C165 1.373 . S
C165 C163 1.350 . S
C165 N164 1.373 . S
C165 H179 0.931 . S
C166 O169 1.256 . S
C166 O170 1.255 . S
O167 Co150 2.021 . S
O167 C160 1.259 . S
O168 Co152 2.117 . S
O168 C160 1.258 . S
O169 Co152 2.020 . S
O169 C166 1.256 . S
O170 Co150 2.062 . S
O170 C166 1.255 . S
O171 C151 1.259 . S
O171 Co152 2.021 . S
H172 C163 0.930 . S
H173 C162 0.931 . S
O174 Co150 2.117 . S
O174 C151 1.258 . S
O175 Co150 2.020 . S
O175 C177 1.256 . S
O176 Co152 2.062 . S
O176 C177 1.255 . S
C177 O175 1.256 . S
C177 O176 1.255 . S
H178 C157 0.931 . S
H179 C165 0.931 . S
Co180 N185 2.057 . S
Co180 O197 2.021 . S
Co180 O200 2.062 . S
Co180 O204 2.117 . S
Co180 O205 2.020 . S
C181 O201 1.259 . S
C181 O204 1.258 . S
Co182 N191 2.057 . S
Co182 O198 2.117 . S
Co182 O199 2.020 . S
Co182 O201 2.021 . S
Co182 O206 2.062 . S
C183 N185 1.316 . S
C183 N186 1.347 . S
C183 H188 0.931 . S
C184 N185 1.375 . S
C184 C187 1.350 . S
C184 H189 0.930 . S
N185 Co180 2.057 . S
N185 C183 1.316 . S
N185 C184 1.375 . S
N186 C183 1.347 . S
N186 C187 1.373 . S
C187 C184 1.350 . S
C187 N186 1.373 . S
C187 H208 0.931 . S
H188 C183 0.931 . S
H189 C184 0.930 . S
C190 O197 1.259 . S
C190 O198 1.258 . S
N191 Co182 2.057 . S
N191 C192 1.316 . S
N191 C193 1.375 . S
C192 N191 1.316 . S
C192 N194 1.347 . S
C192 H203 0.931 . S
C193 N191 1.375 . S
C193 C195 1.350 . S
C193 H202 0.930 . S
N194 C192 1.347 . S
N194 C195 1.373 . S
C195 C193 1.350 . S
C195 N194 1.373 . S
C195 H209 0.931 . S
C196 O199 1.256 . S
C196 O200 1.255 . S
O197 Co180 2.021 . S
O197 C190 1.259 . S
O198 Co182 2.117 . S
O198 C190 1.258 . S
O199 Co182 2.020 . S
O199 C196 1.256 . S
O200 Co180 2.062 . S
O200 C196 1.255 . S
O201 C181 1.259 . S
O201 Co182 2.021 . S
H202 C193 0.930 . S
H203 C192 0.931 . S
O204 Co180 2.117 . S
O204 C181 1.258 . S
O205 Co180 2.020 . S
O205 C207 1.256 . S
O206 Co182 2.062 . S
O206 C207 1.255 . S
C207 O205 1.256 . S
C207 O206 1.255 . S
H208 C187 0.931 . S
H209 C195 0.931 . S
Co210 N215 2.057 . S
Co210 O227 2.021 . S
Co210 O230 2.062 . S
Co210 O234 2.117 . S
Co210 O235 2.020 1_655 S
C211 O231 1.259 1_655 S
C211 O234 1.258 . S
Co212 N221 2.057 . S
Co212 O228 2.117 . S
Co212 O229 2.020 1_455 S
Co212 O231 2.021 . S
Co212 O236 2.062 . S
C213 N215 1.316 . S
C213 N216 1.347 . S
C213 H218 0.931 . S
C214 N215 1.375 . S
C214 C217 1.350 . S
C214 H219 0.930 . S
N215 Co210 2.057 . S
N215 C213 1.316 . S
N215 C214 1.375 . S
N216 C213 1.347 . S
N216 C217 1.373 . S
C217 C214 1.350 . S
C217 N216 1.373 . S
C217 H238 0.931 . S
H218 C213 0.931 . S
H219 C214 0.930 . S
C220 O227 1.259 1_455 S
C220 O228 1.258 . S
N221 Co212 2.057 . S
N221 C222 1.316 . S
N221 C223 1.375 . S
C222 N221 1.316 . S
C222 N224 1.347 . S
C222 H233 0.931 . S
C223 N221 1.375 . S
C223 C225 1.350 . S
C223 H232 0.930 . S
N224 C222 1.347 . S
N224 C225 1.373 . S
C225 C223 1.350 . S
C225 N224 1.373 . S
C225 H239 0.931 . S
C226 O229 1.256 . S
C226 O230 1.255 . S
O227 Co210 2.021 . S
O227 C220 1.259 1_655 S
O228 Co212 2.117 . S
O228 C220 1.258 . S
O229 Co212 2.020 1_655 S
O229 C226 1.256 . S
O230 Co210 2.062 . S
O230 C226 1.255 . S
O231 C211 1.259 1_455 S
O231 Co212 2.021 . S
H232 C223 0.930 . S
H233 C222 0.931 . S
O234 Co210 2.117 . S
O234 C211 1.258 . S
O235 Co210 2.020 1_455 S
O235 C237 1.256 . S
O236 Co212 2.062 . S
O236 C237 1.255 . S
C237 O235 1.256 . S
C237 O236 1.255 . S
H238 C217 0.931 . S
H239 C225 0.931 . S
Co240 N245 2.057 . S
Co240 O257 2.021 . S
Co240 O260 2.062 . S
Co240 O264 2.117 1_554 S
Co240 O265 2.020 . S
C241 O261 1.259 . S
C241 O264 1.258 . S
Co242 N251 2.057 . S
Co242 O258 2.117 1_556 S
Co242 O259 2.020 . S
Co242 O261 2.021 . S
Co242 O266 2.062 . S
C243 N245 1.316 . S
C243 N246 1.347 . S
C243 H248 0.931 . S
C244 N245 1.375 . S
C244 C247 1.350 . S
C244 H249 0.930 . S
N245 Co240 2.057 . S
N245 C243 1.316 . S
N245 C244 1.375 . S
N246 C243 1.347 . S
N246 C247 1.373 . S
C247 C244 1.350 . S
C247 N246 1.373 . S
C247 H268 0.931 . S
H248 C243 0.931 . S
H249 C244 0.930 . S
C250 O257 1.259 . S
C250 O258 1.258 . S
N251 Co242 2.057 . S
N251 C252 1.316 . S
N251 C253 1.375 . S
C252 N251 1.316 . S
C252 N254 1.347 . S
C252 H263 0.931 . S
C253 N251 1.375 . S
C253 C255 1.350 . S
C253 H262 0.930 . S
N254 C252 1.347 . S
N254 C255 1.373 . S
C255 C253 1.350 . S
C255 N254 1.373 . S
C255 H269 0.931 . S
C256 O259 1.256 . S
C256 O260 1.255 1_556 S
O257 Co240 2.021 . S
O257 C250 1.259 . S
O258 Co242 2.117 1_554 S
O258 C250 1.258 . S
O259 Co242 2.020 . S
O259 C256 1.256 . S
O260 Co240 2.062 . S
O260 C256 1.255 1_554 S
O261 C241 1.259 . S
O261 Co242 2.021 . S
H262 C253 0.930 . S
H263 C252 0.931 . S
O264 Co240 2.117 1_556 S
O264 C241 1.258 . S
O265 Co240 2.020 . S
O265 C267 1.256 . S
O266 Co242 2.062 . S
O266 C267 1.255 1_556 S
C267 O265 1.256 . S
C267 O266 1.255 1_554 S
H268 C247 0.931 . S
H269 C255 0.931 . S
Co270 N275 2.057 . S
Co270 O287 2.021 . S
Co270 O290 2.062 . S
Co270 O294 2.117 1_565 S
Co270 O295 2.020 . S
C271 O291 1.259 . S
C271 O294 1.258 . S
Co272 N281 2.057 . S
Co272 O288 2.117 1_545 S
Co272 O289 2.020 . S
Co272 O291 2.021 . S
Co272 O296 2.062 . S
C273 N275 1.316 . S
C273 N276 1.347 . S
C273 H278 0.931 . S
C274 N275 1.375 . S
C274 C277 1.350 . S
C274 H279 0.930 . S
N275 Co270 2.057 . S
N275 C273 1.316 . S
N275 C274 1.375 . S
N276 C273 1.347 . S
N276 C277 1.373 . S
C277 C274 1.350 . S
C277 N276 1.373 . S
C277 H298 0.931 . S
H278 C273 0.931 . S
H279 C274 0.930 . S
C280 O287 1.259 . S
C280 O288 1.258 . S
N281 Co272 2.057 . S
N281 C282 1.316 . S
N281 C283 1.375 . S
C282 N281 1.316 . S
C282 N284 1.347 . S
C282 H293 0.931 . S
C283 N281 1.375 . S
C283 C285 1.350 . S
C283 H292 0.930 . S
N284 C282 1.347 . S
N284 C285 1.373 . S
C285 C283 1.350 . S
C285 N284 1.373 . S
C285 H299 0.931 . S
C286 O289 1.256 . S
C286 O290 1.255 1_545 S
O287 Co270 2.021 . S
O287 C280 1.259 . S
O288 Co272 2.117 1_565 S
O288 C280 1.258 . S
O289 Co272 2.020 . S
O289 C286 1.256 . S
O290 Co270 2.062 . S
O290 C286 1.255 1_565 S
O291 C271 1.259 . S
O291 Co272 2.021 . S
H292 C283 0.930 . S
H293 C282 0.931 . S
O294 Co270 2.117 1_545 S
O294 C271 1.258 . S
O295 Co270 2.020 . S
O295 C297 1.256 . S
O296 Co272 2.062 . S
O296 C297 1.255 1_545 S
C297 O295 1.256 . S
C297 O296 1.255 1_565 S
H298 C277 0.931 . S
H299 C285 0.931 . S
Co300 N305 2.057 . S
Co300 O317 2.021 . S
Co300 O320 2.062 . S
Co300 O324 2.117 . S
Co300 O325 2.020 . S
C301 O321 1.259 . S
C301 O324 1.258 . S
Co302 N311 2.057 . S
Co302 O318 2.117 . S
Co302 O319 2.020 . S
Co302 O321 2.021 . S
Co302 O326 2.062 . S
C303 N305 1.316 . S
C303 N306 1.347 . S
C303 H308 0.931 . S
C304 N305 1.375 . S
C304 C307 1.350 . S
C304 H309 0.930 . S
N305 Co300 2.057 . S
N305 C303 1.316 . S
N305 C304 1.375 . S
N306 C303 1.347 . S
N306 C307 1.373 . S
C307 C304 1.350 . S
C307 N306 1.373 . S
C307 H328 0.931 . S
H308 C303 0.931 . S
H309 C304 0.930 . S
C310 O317 1.259 . S
C310 O318 1.258 . S
N311 Co302 2.057 . S
N311 C312 1.316 . S
N311 C313 1.375 . S
C312 N311 1.316 . S
C312 N314 1.347 . S
C312 H323 0.931 . S
C313 N311 1.375 . S
C313 C315 1.350 . S
C313 H322 0.930 . S
N314 C312 1.347 . S
N314 C315 1.373 . S
C315 C313 1.350 . S
C315 N314 1.373 . S
C315 H329 0.931 . S
C316 O319 1.256 . S
C316 O320 1.255 . S
O317 Co300 2.021 . S
O317 C310 1.259 . S
O318 Co302 2.117 . S
O318 C310 1.258 . S
O319 Co302 2.020 . S
O319 C316 1.256 . S
O320 Co300 2.062 . S
O320 C316 1.255 . S
O321 C301 1.259 . S
O321 Co302 2.021 . S
H322 C313 0.930 . S
H323 C312 0.931 . S
O324 Co300 2.117 . S
O324 C301 1.258 . S
O325 Co300 2.020 . S
O325 C327 1.256 . S
O326 Co302 2.062 . S
O326 C327 1.255 . S
C327 O325 1.256 . S
C327 O326 1.255 . S
H328 C307 0.931 . S
H329 C315 0.931 . S
Co330 N335 2.057 . S
Co330 O347 2.021 . S
Co330 O350 2.062 . S
Co330 O354 2.117 1_455 S
Co330 O355 2.020 . S
C331 O351 1.259 . S
C331 O354 1.258 . S
Co332 N341 2.057 . S
Co332 O348 2.117 1_655 S
Co332 O349 2.020 . S
Co332 O351 2.021 . S
Co332 O356 2.062 . S
C333 N335 1.316 . S
C333 N336 1.347 . S
C333 H338 0.931 . S
C334 N335 1.375 . S
C334 C337 1.350 . S
C334 H339 0.930 . S
N335 Co330 2.057 . S
N335 C333 1.316 . S
N335 C334 1.375 . S
N336 C333 1.347 . S
N336 C337 1.373 . S
C337 C334 1.350 . S
C337 N336 1.373 . S
C337 H358 0.931 . S
H338 C333 0.931 . S
H339 C334 0.930 . S
C340 O347 1.259 . S
C340 O348 1.258 . S
N341 Co332 2.057 . S
N341 C342 1.316 . S
N341 C343 1.375 . S
C342 N341 1.316 . S
C342 N344 1.347 . S
C342 H353 0.931 . S
C343 N341 1.375 . S
C343 C345 1.350 . S
C343 H352 0.930 . S
N344 C342 1.347 . S
N344 C345 1.373 . S
C345 C343 1.350 . S
C345 N344 1.373 . S
C345 H359 0.931 . S
C346 O349 1.256 . S
C346 O350 1.255 1_655 S
O347 Co330 2.021 . S
O347 C340 1.259 . S
O348 Co332 2.117 1_455 S
O348 C340 1.258 . S
O349 Co332 2.020 . S
O349 C346 1.256 . S
O350 Co330 2.062 . S
O350 C346 1.255 1_455 S
O351 C331 1.259 . S
O351 Co332 2.021 . S
H352 C343 0.930 . S
H353 C342 0.931 . S
O354 Co330 2.117 1_655 S
O354 C331 1.258 . S
O355 Co330 2.020 . S
O355 C357 1.256 . S
O356 Co332 2.062 . S
O356 C357 1.255 1_655 S
C357 O355 1.256 . S
C357 O356 1.255 1_455 S
H358 C337 0.931 . S
H359 C345 0.931 . S
Co360 N365 2.057 . S
Co360 O377 2.021 . S
Co360 O380 2.062 . S
Co360 O384 2.117 . S
Co360 O385 2.020 . S
C361 O381 1.259 . S
C361 O384 1.258 . S
Co362 N371 2.057 . S
Co362 O378 2.117 . S
Co362 O379 2.020 . S
Co362 O381 2.021 . S
Co362 O386 2.062 . S
C363 N365 1.316 . S
C363 N366 1.347 . S
C363 H368 0.931 . S
C364 N365 1.375 . S
C364 C367 1.350 . S
C364 H369 0.930 . S
N365 Co360 2.057 . S
N365 C363 1.316 . S
N365 C364 1.375 . S
N366 C363 1.347 . S
N366 C367 1.373 . S
C367 C364 1.350 . S
C367 N366 1.373 . S
C367 H388 0.931 . S
H368 C363 0.931 . S
H369 C364 0.930 . S
C370 O377 1.259 . S
C370 O378 1.258 . S
N371 Co362 2.057 . S
N371 C372 1.316 . S
N371 C373 1.375 . S
C372 N371 1.316 . S
C372 N374 1.347 . S
C372 H383 0.931 . S
C373 N371 1.375 . S
C373 C375 1.350 . S
C373 H382 0.930 . S
N374 C372 1.347 . S
N374 C375 1.373 . S
C375 C373 1.350 . S
C375 N374 1.373 . S
C375 H389 0.931 . S
C376 O379 1.256 . S
C376 O380 1.255 . S
O377 Co360 2.021 . S
O377 C370 1.259 . S
O378 Co362 2.117 . S
O378 C370 1.258 . S
O379 Co362 2.020 . S
O379 C376 1.256 . S
O380 Co360 2.062 . S
O380 C376 1.255 . S
O381 C361 1.259 . S
O381 Co362 2.021 . S
H382 C373 0.930 . S
H383 C372 0.931 . S
O384 Co360 2.117 . S
O384 C361 1.258 . S
O385 Co360 2.020 . S
O385 C387 1.256 . S
O386 Co362 2.062 . S
O386 C387 1.255 . S
C387 O385 1.256 . S
C387 O386 1.255 . S
H388 C367 0.931 . S
H389 C375 0.931 . S
Co390 N395 2.057 . S
Co390 O407 2.021 . S
Co390 O410 2.062 . S
Co390 O414 2.117 1_554 S
Co390 O415 2.020 . S
C391 O411 1.259 . S
C391 O414 1.258 . S
Co392 N401 2.057 . S
Co392 O408 2.117 1_556 S
Co392 O409 2.020 . S
Co392 O411 2.021 . S
Co392 O416 2.062 . S
C393 N395 1.316 . S
C393 N396 1.347 . S
C393 H398 0.931 . S
C394 N395 1.375 . S
C394 C397 1.350 . S
C394 H399 0.930 . S
N395 Co390 2.057 . S
N395 C393 1.316 . S
N395 C394 1.375 . S
N396 C393 1.347 . S
N396 C397 1.373 . S
C397 C394 1.350 . S
C397 N396 1.373 . S
C397 H418 0.931 . S
H398 C393 0.931 . S
H399 C394 0.930 . S
C400 O407 1.259 . S
C400 O408 1.258 . S
N401 Co392 2.057 . S
N401 C402 1.316 . S
N401 C403 1.375 . S
C402 N401 1.316 . S
C402 N404 1.347 . S
C402 H413 0.931 . S
C403 N401 1.375 . S
C403 C405 1.350 . S
C403 H412 0.930 . S
N404 C402 1.347 . S
N404 C405 1.373 . S
C405 C403 1.350 . S
C405 N404 1.373 . S
C405 H419 0.931 . S
C406 O409 1.256 . S
C406 O410 1.255 1_556 S
O407 Co390 2.021 . S
O407 C400 1.259 . S
O408 Co392 2.117 1_554 S
O408 C400 1.258 . S
O409 Co392 2.020 . S
O409 C406 1.256 . S
O410 Co390 2.062 . S
O410 C406 1.255 1_554 S
O411 C391 1.259 . S
O411 Co392 2.021 . S
H412 C403 0.930 . S
H413 C402 0.931 . S
O414 Co390 2.117 1_556 S
O414 C391 1.258 . S
O415 Co390 2.020 . S
O415 C417 1.256 . S
O416 Co392 2.062 . S
O416 C417 1.255 1_556 S
C417 O415 1.256 . S
C417 O416 1.255 1_554 S
H418 C397 0.931 . S
H419 C405 0.931 . S
Co420 N425 2.057 . S
Co420 O437 2.021 1_545 S
Co420 O440 2.062 1_545 S
Co420 O444 2.117 . S
Co420 O445 2.020 . S
C421 O441 1.259 . S
C421 O444 1.258 . S
Co422 N431 2.057 . S
Co422 O438 2.117 . S
Co422 O439 2.020 . S
Co422 O441 2.021 1_565 S
Co422 O446 2.062 1_565 S
C423 N425 1.316 . S
C423 N426 1.347 . S
C423 H428 0.931 . S
C424 N425 1.375 . S
C424 C427 1.350 . S
C424 H429 0.930 . S
N425 Co420 2.057 . S
N425 C423 1.316 . S
N425 C424 1.375 . S
N426 C423 1.347 . S
N426 C427 1.373 . S
C427 C424 1.350 . S
C427 N426 1.373 . S
C427 H448 0.931 . S
H428 C423 0.931 . S
H429 C424 0.930 . S
C430 O437 1.259 . S
C430 O438 1.258 . S
N431 Co422 2.057 . S
N431 C432 1.316 . S
N431 C433 1.375 . S
C432 N431 1.316 . S
C432 N434 1.347 . S
C432 H443 0.931 . S
C433 N431 1.375 . S
C433 C435 1.350 . S
C433 H442 0.930 . S
N434 C432 1.347 . S
N434 C435 1.373 . S
C435 C433 1.350 . S
C435 N434 1.373 . S
C435 H449 0.931 . S
C436 O439 1.256 . S
C436 O440 1.255 . S
O437 Co420 2.021 1_565 S
O437 C430 1.259 . S
O438 Co422 2.117 . S
O438 C430 1.258 . S
O439 Co422 2.020 . S
O439 C436 1.256 . S
O440 Co420 2.062 1_565 S
O440 C436 1.255 . S
O441 C421 1.259 . S
O441 Co422 2.021 1_545 S
H442 C433 0.930 . S
H443 C432 0.931 . S
O444 Co420 2.117 . S
O444 C421 1.258 . S
O445 Co420 2.020 . S
O445 C447 1.256 . S
O446 Co422 2.062 1_545 S
O446 C447 1.255 . S
C447 O445 1.256 . S
C447 O446 1.255 . S
H448 C427 0.931 . S
H449 C435 0.931 . S
Co450 N455 2.057 . S
Co450 O467 2.021 . S
Co450 O470 2.062 . S
Co450 O474 2.117 1_556 S
Co450 O475 2.020 . S
C451 O471 1.259 . S
C451 O474 1.258 . S
Co452 N461 2.057 . S
Co452 O468 2.117 1_554 S
Co452 O469 2.020 . S
Co452 O471 2.021 . S
Co452 O476 2.062 . S
C453 N455 1.316 . S
C453 N456 1.347 . S
C453 H458 0.931 . S
C454 N455 1.375 . S
C454 C457 1.350 . S
C454 H459 0.930 . S
N455 Co450 2.057 . S
N455 C453 1.316 . S
N455 C454 1.375 . S
N456 C453 1.347 . S
N456 C457 1.373 . S
C457 C454 1.350 . S
C457 N456 1.373 . S
C457 H478 0.931 . S
H458 C453 0.931 . S
H459 C454 0.930 . S
C460 O467 1.259 . S
C460 O468 1.258 . S
N461 Co452 2.057 . S
N461 C462 1.316 . S
N461 C463 1.375 . S
C462 N461 1.316 . S
C462 N464 1.347 . S
C462 H473 0.931 . S
C463 N461 1.375 . S
C463 C465 1.350 . S
C463 H472 0.930 . S
N464 C462 1.347 . S
N464 C465 1.373 . S
C465 C463 1.350 . S
C465 N464 1.373 . S
C465 H479 0.931 . S
C466 O469 1.256 . S
C466 O470 1.255 1_554 S
O467 Co450 2.021 . S
O467 C460 1.259 . S
O468 Co452 2.117 1_556 S
O468 C460 1.258 . S
O469 Co452 2.020 . S
O469 C466 1.256 . S
O470 Co450 2.062 . S
O470 C466 1.255 1_556 S
O471 C451 1.259 . S
O471 Co452 2.021 . S
H472 C463 0.930 . S
H473 C462 0.931 . S
O474 Co450 2.117 1_554 S
O474 C451 1.258 . S
O475 Co450 2.020 . S
O475 C477 1.256 . S
O476 Co452 2.062 . S
O476 C477 1.255 1_554 S
C477 O475 1.256 . S
C477 O476 1.255 1_556 S
H478 C457 0.931 . S
H479 C465 0.931 . S
H480 C486 0.930 . S
H481 C490 0.930 . S
H482 C495 0.929 . S
H483 C493 0.929 . S
H484 C488 0.929 . S
H485 C494 0.929 . S
C486 H480 0.930 . S
C486 C487 1.367 . S
C486 C494 1.378 . S
C487 C486 1.367 . S
C487 C495 1.433 . S
C488 H484 0.929 . S
C488 C490 1.378 . S
C488 C492 1.350 . S
C489 C492 1.463 . S
C489 C494 1.350 . S
C489 N497 1.427 . S
C490 H481 0.930 . S
C490 C488 1.378 . S
C490 C491 1.367 . S
C491 C490 1.367 . S
C491 C493 1.433 . S
C492 C488 1.350 . S
C492 C489 1.463 . S
C492 N496 1.427 . S
C493 H483 0.929 . S
C493 C491 1.433 . S
C493 N496 1.384 . S
C494 H485 0.929 . S
C494 C486 1.378 . S
C494 C489 1.350 . S
C495 H482 0.929 . S
C495 C487 1.433 . S
C495 N497 1.384 . S
N496 C492 1.427 . S
N496 C493 1.384 . S
N497 C489 1.427 . S
N497 C495 1.384 . S
H498 C504 0.930 . S
H499 C508 0.930 . S
H500 C513 0.929 . S
H501 C511 0.929 . S
H502 C506 0.929 . S
H503 C512 0.929 . S
C504 H498 0.930 . S
C504 C505 1.367 . S
C504 C512 1.378 . S
C505 C504 1.367 . S
C505 C513 1.433 . S
C506 H502 0.929 . S
C506 C508 1.378 . S
C506 C510 1.350 . S
C507 C510 1.463 . S
C507 C512 1.350 . S
C507 N515 1.427 . S
C508 H499 0.930 . S
C508 C506 1.378 . S
C508 C509 1.367 . S
C509 C508 1.367 . S
C509 C511 1.433 . S
C510 C506 1.350 . S
C510 C507 1.463 . S
C510 N514 1.427 . S
C511 H501 0.929 . S
C511 C509 1.433 . S
C511 N514 1.384 . S
C512 H503 0.929 . S
C512 C504 1.378 . S
C512 C507 1.350 . S
C513 H500 0.929 . S
C513 C505 1.433 . S
C513 N515 1.384 . S
N514 C510 1.427 . S
N514 C511 1.384 . S
N515 C507 1.427 . S
N515 C513 1.384 . S
H516 C522 0.930 . S
H517 C526 0.930 . S
H518 C531 0.929 . S
H519 C529 0.929 . S
H520 C524 0.929 . S
H521 C530 0.929 . S
C522 H516 0.930 . S
C522 C523 1.367 . S
C522 C530 1.378 . S
C523 C522 1.367 . S
C523 C531 1.433 . S
C524 H520 0.929 . S
C524 C526 1.378 . S
C524 C528 1.350 . S
C525 C528 1.463 . S
C525 C530 1.350 . S
C525 N533 1.427 . S
C526 H517 0.930 . S
C526 C524 1.378 . S
C526 C527 1.367 . S
C527 C526 1.367 . S
C527 C529 1.433 . S
C528 C524 1.350 . S
C528 C525 1.463 . S
C528 N532 1.427 . S
C529 H519 0.929 . S
C529 C527 1.433 . S
C529 N532 1.384 . S
C530 H521 0.929 . S
C530 C522 1.378 . S
C530 C525 1.350 . S
C531 H518 0.929 . S
C531 C523 1.433 . S
C531 N533 1.384 . S
N532 C528 1.427 . S
N532 C529 1.384 . S
N533 C525 1.427 . S
N533 C531 1.384 . S
H534 C540 0.930 1_565 S
H535 C544 0.930 . S
H536 C549 0.929 . S
H537 C547 0.929 1_565 S
H538 C542 0.929 . S
H539 C548 0.929 1_565 S
C540 H534 0.930 1_545 S
C540 C541 1.367 . S
C540 C548 1.378 . S
C541 C540 1.367 . S
C541 C549 1.433 . S
C542 H538 0.929 . S
C542 C544 1.378 . S
C542 C546 1.350 . S
C543 C546 1.463 . S
C543 C548 1.350 . S
C543 N551 1.427 . S
C544 H535 0.930 . S
C544 C542 1.378 . S
C544 C545 1.367 . S
C545 C544 1.367 . S
C545 C547 1.433 . S
C546 C542 1.350 . S
C546 C543 1.463 . S
C546 N550 1.427 . S
C547 H537 0.929 1_545 S
C547 C545 1.433 . S
C547 N550 1.384 . S
C548 H539 0.929 1_545 S
C548 C540 1.378 . S
C548 C543 1.350 . S
C549 H536 0.929 . S
C549 C541 1.433 . S
C549 N551 1.384 . S
N550 C546 1.427 . S
N550 C547 1.384 . S
N551 C543 1.427 . S
N551 C549 1.384 . S
H552 C558 0.930 1_545 S
H553 C562 0.930 . S
H554 C567 0.929 . S
H555 C565 0.927 1_545 S
H556 C560 0.929 . S
H557 C566 0.929 1_545 S
C558 H552 0.930 1_565 S
C558 C559 1.367 . S
C558 C566 1.378 . S
C559 C558 1.367 . S
C559 C567 1.433 . S
C560 H556 0.929 . S
C560 C562 1.378 . S
C560 C564 1.350 . S
C561 C564 1.463 . S
C561 C566 1.350 . S
C561 N569 1.427 . S
C562 H553 0.930 . S
C562 C560 1.378 . S
C562 C563 1.367 . S
C563 C562 1.367 . S
C563 C565 1.436 . S
C564 C560 1.350 . S
C564 C561 1.463 . S
C564 N568 1.427 . S
C565 H555 0.927 1_565 S
C565 C563 1.436 . S
C565 N568 1.383 . S
C566 H557 0.929 1_565 S
C566 C558 1.378 . S
C566 C561 1.350 . S
C567 H554 0.929 . S
C567 C559 1.433 . S
C567 N569 1.384 . S
N568 C564 1.427 . S
N568 C565 1.383 . S
N569 C561 1.427 . S
N569 C567 1.384 . S
H570 C576 0.930 . S
H571 C580 0.930 1_655 S
H572 C585 0.930 1_655 S
H573 C583 0.929 . S
H574 C578 0.929 1_655 S
H575 C584 0.929 . S
C576 H570 0.930 . S
C576 C577 1.367 . S
C576 C584 1.378 . S
C577 C576 1.367 . S
C577 C585 1.433 . S
C578 H574 0.929 1_455 S
C578 C580 1.378 . S
C578 C582 1.350 . S
C579 C582 1.463 . S
C579 C584 1.350 . S
C579 N587 1.427 . S
C580 H571 0.930 1_455 S
C580 C578 1.378 . S
C580 C581 1.367 . S
C581 C580 1.367 . S
C581 C583 1.433 . S
C582 C578 1.350 . S
C582 C579 1.463 . S
C582 N586 1.427 . S
C583 H573 0.929 . S
C583 C581 1.433 . S
C583 N586 1.384 . S
C584 H575 0.929 . S
C584 C576 1.378 . S
C584 C579 1.350 . S
C585 H572 0.930 1_455 S
C585 C577 1.433 . S
C585 N587 1.384 . S
N586 C582 1.427 . S
N586 C583 1.384 . S
N587 C579 1.427 . S
N587 C585 1.384 . S
H588 C594 0.930 . S
H589 C598 0.930 . S
H590 C603 0.929 . S
H591 C601 0.929 . S
H592 C596 0.929 . S
H593 C602 0.929 . S
C594 H588 0.930 . S
C594 C595 1.367 . S
C594 C602 1.378 . S
C595 C594 1.367 . S
C595 C603 1.433 . S
C596 H592 0.929 . S
C596 C598 1.378 . S
C596 C600 1.350 . S
C597 C600 1.463 . S
C597 C602 1.350 . S
C597 N605 1.427 . S
C598 H589 0.930 . S
C598 C596 1.378 . S
C598 C599 1.367 . S
C599 C598 1.367 . S
C599 C601 1.433 . S
C600 C596 1.350 . S
C600 C597 1.463 . S
C600 N604 1.427 . S
C601 H591 0.929 . S
C601 C599 1.433 . S
C601 N604 1.384 . S
C602 H593 0.929 . S
C602 C594 1.378 . S
C602 C597 1.350 . S
C603 H590 0.929 . S
C603 C595 1.433 . S
C603 N605 1.384 . S
N604 C600 1.427 . S
N604 C601 1.384 . S
N605 C597 1.427 . S
N605 C603 1.384 . S
H606 C612 0.930 . S
H607 C616 0.930 . S
H608 C621 0.929 . S
H609 C619 0.929 . S
H610 C614 0.929 . S
H611 C620 0.929 . S
C612 H606 0.930 . S
C612 C613 1.367 . S
C612 C620 1.378 . S
C613 C612 1.367 . S
C613 C621 1.433 . S
C614 H610 0.929 . S
C614 C616 1.378 . S
C614 C618 1.350 . S
C615 C618 1.463 . S
C615 C620 1.350 . S
C615 N623 1.427 . S
C616 H607 0.930 . S
C616 C614 1.378 . S
C616 C617 1.367 . S
C617 C616 1.367 . S
C617 C619 1.433 . S
C618 C614 1.350 . S
C618 C615 1.463 . S
C618 N622 1.427 . S
C619 H609 0.929 . S
C619 C617 1.433 . S
C619 N622 1.384 . S
C620 H611 0.929 . S
C620 C612 1.378 . S
C620 C615 1.350 . S
C621 H608 0.929 . S
C621 C613 1.433 . S
C621 N623 1.384 . S
N622 C618 1.427 . S
N622 C619 1.384 . S
N623 C615 1.427 . S
N623 C621 1.384 . S
H624 C630 0.930 . S
H625 C634 0.930 . S
H626 C639 0.929 . S
H627 C637 0.929 . S
H628 C632 0.929 . S
H629 C638 0.929 . S
C630 H624 0.930 . S
C630 C631 1.367 . S
C630 C638 1.378 . S
C631 C630 1.367 . S
C631 C639 1.433 . S
C632 H628 0.929 . S
C632 C634 1.378 . S
C632 C636 1.350 . S
C633 C636 1.463 . S
C633 C638 1.350 . S
C633 N641 1.427 . S
C634 H625 0.930 . S
C634 C632 1.378 . S
C634 C635 1.367 . S
C635 C634 1.367 . S
C635 C637 1.433 . S
C636 C632 1.350 . S
C636 C633 1.463 . S
C636 N640 1.427 . S
C637 H627 0.929 . S
C637 C635 1.433 . S
C637 N640 1.384 . S
C638 H629 0.929 . S
C638 C630 1.378 . S
C638 C633 1.350 . S
C639 H626 0.929 . S
C639 C631 1.433 . S
C639 N641 1.384 . S
N640 C636 1.427 . S
N640 C637 1.384 . S
N641 C633 1.427 . S
N641 C639 1.384 . S
H642 C648 0.930 . S
H643 C652 0.930 . S
H644 C657 0.929 . S
H645 C655 0.929 . S
H646 C650 0.929 . S
H647 C656 0.929 . S
C648 H642 0.930 . S
C648 C649 1.367 . S
C648 C656 1.378 . S
C649 C648 1.367 . S
C649 C657 1.433 . S
C650 H646 0.929 . S
C650 C652 1.378 . S
C650 C654 1.350 . S
C651 C654 1.463 . S
C651 C656 1.350 . S
C651 N659 1.427 . S
C652 H643 0.930 . S
C652 C650 1.378 . S
C652 C653 1.367 . S
C653 C652 1.367 . S
C653 C655 1.433 . S
C654 C650 1.350 . S
C654 C651 1.463 . S
C654 N658 1.427 . S
C655 H645 0.929 . S
C655 C653 1.433 . S
C655 N658 1.384 . S
C656 H647 0.929 . S
C656 C648 1.378 . S
C656 C651 1.350 . S
C657 H644 0.929 . S
C657 C649 1.433 . S
C657 N659 1.384 . S
N658 C654 1.427 . S
N658 C655 1.384 . S
N659 C651 1.427 . S
N659 C657 1.384 . S
H660 C666 0.930 . S
H661 C670 0.930 . S
H662 C675 0.929 . S
H663 C673 0.929 . S
H664 C668 0.929 . S
H665 C674 0.929 . S
C666 H660 0.930 . S
C666 C667 1.367 . S
C666 C674 1.378 . S
C667 C666 1.367 . S
C667 C675 1.433 . S
C668 H664 0.929 . S
C668 C670 1.378 . S
C668 C672 1.350 . S
C669 C672 1.463 . S
C669 C674 1.350 . S
C669 N677 1.427 . S
C670 H661 0.930 . S
C670 C668 1.378 . S
C670 C671 1.367 . S
C671 C670 1.367 . S
C671 C673 1.433 . S
C672 C668 1.350 . S
C672 C669 1.463 . S
C672 N676 1.427 . S
C673 H663 0.929 . S
C673 C671 1.433 . S
C673 N676 1.384 . S
C674 H665 0.929 . S
C674 C666 1.378 . S
C674 C669 1.350 . S
C675 H662 0.929 . S
C675 C667 1.433 . S
C675 N677 1.384 . S
N676 C672 1.427 . S
N676 C673 1.384 . S
N677 C669 1.427 . S
N677 C675 1.384 . S
H678 C684 0.930 . S
H679 C688 0.930 1_655 S
H680 C693 0.929 1_655 S
H681 C691 0.929 . S
H682 C686 0.929 1_655 S
H683 C692 0.929 . S
C684 H678 0.930 . S
C684 C685 1.367 . S
C684 C692 1.378 . S
C685 C684 1.367 . S
C685 C693 1.433 . S
C686 H682 0.929 1_455 S
C686 C688 1.378 . S
C686 C690 1.350 . S
C687 C690 1.463 . S
C687 C692 1.350 . S
C687 N695 1.427 . S
C688 H679 0.930 1_455 S
C688 C686 1.378 . S
C688 C689 1.367 . S
C689 C688 1.367 . S
C689 C691 1.433 . S
C690 C686 1.350 . S
C690 C687 1.463 . S
C690 N694 1.427 . S
C691 H681 0.929 . S
C691 C689 1.433 . S
C691 N694 1.384 . S
C692 H683 0.929 . S
C692 C684 1.378 . S
C692 C687 1.350 . S
C693 H680 0.929 1_455 S
C693 C685 1.433 . S
C693 N695 1.384 . S
N694 C690 1.427 . S
N694 C691 1.384 . S
N695 C687 1.427 . S
N695 C693 1.384 . S
H696 C702 0.930 . S
H697 C706 0.930 . S
H698 C711 0.929 . S
H699 C709 0.929 . S
H700 C704 0.929 . S
H701 C710 0.929 . S
C702 H696 0.930 . S
C702 C703 1.367 1_554 S
C702 C710 1.378 . S
C703 C702 1.367 1_556 S
C703 C711 1.433 . S
C704 H700 0.929 . S
C704 C706 1.378 . S
C704 C708 1.350 . S
C705 C708 1.463 . S
C705 C710 1.350 1_556 S
C705 N713 1.427 . S
C706 H697 0.930 . S
C706 C704 1.378 . S
C706 C707 1.367 . S
C707 C706 1.367 . S
C707 C709 1.433 1_556 S
C708 C704 1.350 . S
C708 C705 1.463 . S
C708 N712 1.427 1_556 S
C709 H699 0.929 . S
C709 C707 1.433 1_554 S
C709 N712 1.384 . S
C710 H701 0.929 . S
C710 C702 1.378 . S
C710 C705 1.350 1_554 S
C711 H698 0.929 . S
C711 C703 1.433 . S
C711 N713 1.384 . S
N712 C708 1.427 1_554 S
N712 C709 1.384 . S
N713 C705 1.427 . S
N713 C711 1.384 . S
H714 C720 0.930 . S
H715 C724 0.930 . S
H716 C729 0.929 . S
H717 C727 0.929 . S
H718 C722 0.929 . S
H719 C728 0.929 . S
C720 H714 0.930 . S
C720 C721 1.367 . S
C720 C728 1.378 . S
C721 C720 1.367 . S
C721 C729 1.433 . S
C722 H718 0.929 . S
C722 C724 1.378 . S
C722 C726 1.350 . S
C723 C726 1.463 . S
C723 C728 1.350 . S
C723 N731 1.427 . S
C724 H715 0.930 . S
C724 C722 1.378 . S
C724 C725 1.367 . S
C725 C724 1.367 . S
C725 C727 1.433 . S
C726 C722 1.350 . S
C726 C723 1.463 . S
C726 N730 1.427 . S
C727 H717 0.929 . S
C727 C725 1.433 . S
C727 N730 1.384 . S
C728 H719 0.929 . S
C728 C720 1.378 . S
C728 C723 1.350 . S
C729 H716 0.929 . S
C729 C721 1.433 . S
C729 N731 1.384 . S
N730 C726 1.427 . S
N730 C727 1.384 . S
N731 C723 1.427 . S
N731 C729 1.384 . S
H732 C738 0.930 . S
H733 C742 0.930 . S
H734 C747 0.929 . S
H735 C745 0.929 . S
H736 C740 0.929 . S
H737 C746 0.929 . S
C738 H732 0.930 . S
C738 C739 1.367 . S
C738 C746 1.378 . S
C739 C738 1.367 . S
C739 C747 1.433 . S
C740 H736 0.929 . S
C740 C742 1.378 . S
C740 C744 1.350 . S
C741 C744 1.463 . S
C741 C746 1.350 . S
C741 N749 1.427 . S
C742 H733 0.930 . S
C742 C740 1.378 . S
C742 C743 1.367 . S
C743 C742 1.367 . S
C743 C745 1.433 . S
C744 C740 1.350 . S
C744 C741 1.463 . S
C744 N748 1.427 . S
C745 H735 0.929 . S
C745 C743 1.433 . S
C745 N748 1.384 . S
C746 H737 0.929 . S
C746 C738 1.378 . S
C746 C741 1.350 . S
C747 H734 0.929 . S
C747 C739 1.433 . S
C747 N749 1.384 . S
N748 C744 1.427 . S
N748 C745 1.384 . S
N749 C741 1.427 . S
N749 C747 1.384 . S
H750 C756 0.930 . S
H751 C760 0.930 . S
H752 C765 0.929 . S
H753 C763 0.929 . S
H754 C758 0.929 . S
H755 C764 0.929 . S
C756 H750 0.930 . S
C756 C757 1.367 . S
C756 C764 1.378 . S
C757 C756 1.367 . S
C757 C765 1.433 . S
C758 H754 0.929 . S
C758 C760 1.378 . S
C758 C762 1.350 . S
C759 C762 1.463 . S
C759 C764 1.350 . S
C759 N767 1.427 . S
C760 H751 0.930 . S
C760 C758 1.378 . S
C760 C761 1.367 . S
C761 C760 1.367 . S
C761 C763 1.433 . S
C762 C758 1.350 . S
C762 C759 1.463 . S
C762 N766 1.427 . S
C763 H753 0.929 . S
C763 C761 1.433 . S
C763 N766 1.384 . S
C764 H755 0.929 . S
C764 C756 1.378 . S
C764 C759 1.350 . S
C765 H752 0.929 . S
C765 C757 1.433 . S
C765 N767 1.384 . S
N766 C762 1.427 . S
N766 C763 1.384 . S
N767 C759 1.427 . S
N767 C765 1.384 . S
H768 C774 0.930 . S
H769 C778 0.930 . S
H770 C783 0.929 . S
H771 C781 0.929 . S
H772 C776 0.929 . S
H773 C782 0.929 . S
C774 H768 0.930 . S
C774 C775 1.367 . S
C774 C782 1.378 . S
C775 C774 1.367 . S
C775 C783 1.433 . S
C776 H772 0.929 . S
C776 C778 1.378 . S
C776 C780 1.350 . S
C777 C780 1.463 . S
C777 C782 1.350 . S
C777 N785 1.427 . S
C778 H769 0.930 . S
C778 C776 1.378 . S
C778 C779 1.367 . S
C779 C778 1.367 . S
C779 C781 1.433 . S
C780 C776 1.350 . S
C780 C777 1.463 . S
C780 N784 1.427 . S
C781 H771 0.929 . S
C781 C779 1.433 . S
C781 N784 1.384 . S
C782 H773 0.929 . S
C782 C774 1.378 . S
C782 C777 1.350 . S
C783 H770 0.929 . S
C783 C775 1.433 . S
C783 N785 1.384 . S
N784 C780 1.427 . S
N784 C781 1.384 . S
N785 C777 1.427 . S
N785 C783 1.384 . S
H786 C792 0.930 . S
H787 C796 0.930 . S
H788 C801 0.929 . S
H789 C799 0.929 . S
H790 C794 0.929 . S
H791 C800 0.929 . S
C792 H786 0.930 . S
C792 C793 1.367 . S
C792 C800 1.378 . S
C793 C792 1.367 . S
C793 C801 1.433 . S
C794 H790 0.929 . S
C794 C796 1.378 . S
C794 C798 1.350 . S
C795 C798 1.463 . S
C795 C800 1.350 . S
C795 N803 1.427 . S
C796 H787 0.930 . S
C796 C794 1.378 . S
C796 C797 1.367 . S
C797 C796 1.367 . S
C797 C799 1.433 . S
C798 C794 1.350 . S
C798 C795 1.463 . S
C798 N802 1.427 . S
C799 H789 0.929 . S
C799 C797 1.433 . S
C799 N802 1.384 . S
C800 H791 0.929 . S
C800 C792 1.378 . S
C800 C795 1.350 . S
C801 H788 0.929 . S
C801 C793 1.433 . S
C801 N803 1.384 . S
N802 C798 1.427 . S
N802 C799 1.384 . S
N803 C795 1.427 . S
N803 C801 1.384 . S
H804 C810 0.930 . S
H805 C814 0.930 . S
H806 C819 0.929 . S
H807 C817 0.929 . S
H808 C812 0.929 . S
H809 C818 0.929 . S
C810 H804 0.930 . S
C810 C811 1.367 . S
C810 C818 1.378 . S
C811 C810 1.367 . S
C811 C819 1.433 . S
C812 H808 0.929 . S
C812 C814 1.378 . S
C812 C816 1.350 . S
C813 C816 1.463 . S
C813 C818 1.350 . S
C813 N821 1.427 . S
C814 H805 0.930 . S
C814 C812 1.378 . S
C814 C815 1.367 . S
C815 C814 1.367 . S
C815 C817 1.433 . S
C816 C812 1.350 . S
C816 C813 1.463 . S
C816 N820 1.427 . S
C817 H807 0.929 . S
C817 C815 1.433 . S
C817 N820 1.384 . S
C818 H809 0.929 . S
C818 C810 1.378 . S
C818 C813 1.350 . S
C819 H806 0.929 . S
C819 C811 1.433 . S
C819 N821 1.384 . S
N820 C816 1.427 . S
N820 C817 1.384 . S
N821 C813 1.427 . S
N821 C819 1.384 . S
H822 C828 0.930 . S
H823 C832 0.930 . S
H824 C837 0.929 . S
H825 C835 0.929 . S
H826 C830 0.929 . S
H827 C836 0.929 . S
C828 H822 0.930 . S
C828 C829 1.367 . S
C828 C836 1.378 . S
C829 C828 1.367 . S
C829 C837 1.433 . S
C830 H826 0.929 . S
C830 C832 1.378 . S
C830 C834 1.350 . S
C831 C834 1.463 . S
C831 C836 1.350 . S
C831 N839 1.427 . S
C832 H823 0.930 . S
C832 C830 1.378 . S
C832 C833 1.367 . S
C833 C832 1.367 . S
C833 C835 1.433 . S
C834 C830 1.350 . S
C834 C831 1.463 . S
C834 N838 1.427 . S
C835 H825 0.929 . S
C835 C833 1.433 . S
C835 N838 1.384 . S
C836 H827 0.929 . S
C836 C828 1.378 . S
C836 C831 1.350 . S
C837 H824 0.929 . S
C837 C829 1.433 . S
C837 N839 1.384 . S
N838 C834 1.427 . S
N838 C835 1.384 . S
N839 C831 1.427 . S
N839 C837 1.384 . S
H840 C846 0.930 . S
H841 C850 0.930 . S
H842 C855 0.929 . S
H843 C853 0.929 . S
H844 C848 0.929 . S
H845 C854 0.929 . S
C846 H840 0.930 . S
C846 C847 1.367 . S
C846 C854 1.378 . S
C847 C846 1.367 . S
C847 C855 1.433 . S
C848 H844 0.929 . S
C848 C850 1.378 . S
C848 C852 1.350 . S
C849 C852 1.463 . S
C849 C854 1.350 . S
C849 N857 1.427 . S
C850 H841 0.930 . S
C850 C848 1.378 . S
C850 C851 1.367 . S
C851 C850 1.367 . S
C851 C853 1.433 . S
C852 C848 1.350 . S
C852 C849 1.463 . S
C852 N856 1.427 . S
C853 H843 0.929 . S
C853 C851 1.433 . S
C853 N856 1.384 . S
C854 H845 0.929 . S
C854 C846 1.378 . S
C854 C849 1.350 . S
C855 H842 0.929 . S
C855 C847 1.433 . S
C855 N857 1.384 . S
N856 C852 1.427 . S
N856 C853 1.384 . S
N857 C849 1.427 . S
N857 C855 1.384 . S
H858 C864 0.930 . S
H859 C868 0.930 . S
H860 C873 0.929 . S
H861 C871 0.929 . S
H862 C866 0.929 . S
H863 C872 0.929 . S
C864 H858 0.930 . S
C864 C865 1.367 1_455 S
C864 C872 1.378 . S
C865 C864 1.367 1_655 S
C865 C873 1.433 . S
C866 H862 0.929 . S
C866 C868 1.378 . S
C866 C870 1.350 . S
C867 C870 1.463 . S
C867 C872 1.350 1_655 S
C867 N875 1.427 . S
C868 H859 0.930 . S
C868 C866 1.378 . S
C868 C869 1.367 . S
C869 C868 1.367 . S
C869 C871 1.433 1_655 S
C870 C866 1.350 . S
C870 C867 1.463 . S
C870 N874 1.427 1_655 S
C871 H861 0.929 . S
C871 C869 1.433 1_455 S
C871 N874 1.384 . S
C872 H863 0.929 . S
C872 C864 1.378 . S
C872 C867 1.350 1_455 S
C873 H860 0.929 . S
C873 C865 1.433 . S
C873 N875 1.384 . S
N874 C870 1.427 1_455 S
N874 C871 1.384 . S
N875 C867 1.427 . S
N875 C873 1.384 . S
H876 C882 0.930 . S
H877 C886 0.930 . S
H878 C891 0.929 . S
H879 C889 0.929 . S
H880 C884 0.929 . S
H881 C890 0.929 . S
C882 H876 0.930 . S
C882 C883 1.367 . S
C882 C890 1.378 . S
C883 C882 1.367 . S
C883 C891 1.433 . S
C884 H880 0.929 . S
C884 C886 1.378 . S
C884 C888 1.350 . S
C885 C888 1.463 . S
C885 C890 1.350 . S
C885 N893 1.427 . S
C886 H877 0.930 . S
C886 C884 1.378 . S
C886 C887 1.367 . S
C887 C886 1.367 . S
C887 C889 1.433 . S
C888 C884 1.350 . S
C888 C885 1.463 . S
C888 N892 1.427 . S
C889 H879 0.929 . S
C889 C887 1.433 . S
C889 N892 1.384 . S
C890 H881 0.929 . S
C890 C882 1.378 . S
C890 C885 1.350 . S
C891 H878 0.929 . S
C891 C883 1.433 . S
C891 N893 1.384 . S
N892 C888 1.427 . S
N892 C889 1.384 . S
N893 C885 1.427 . S
N893 C891 1.384 . S
H894 C900 0.930 . S
H895 C904 0.930 . S
H896 C909 0.929 . S
H897 C907 0.929 . S
H898 C902 0.929 . S
H899 C908 0.929 . S
C900 H894 0.930 . S
C900 C901 1.367 . S
C900 C908 1.378 . S
C901 C900 1.367 . S
C901 C909 1.433 . S
C902 H898 0.929 . S
C902 C904 1.378 . S
C902 C906 1.350 . S
C903 C906 1.463 . S
C903 C908 1.350 . S
C903 N911 1.427 . S
C904 H895 0.930 . S
C904 C902 1.378 . S
C904 C905 1.367 . S
C905 C904 1.367 . S
C905 C907 1.433 . S
C906 C902 1.350 . S
C906 C903 1.463 . S
C906 N910 1.427 . S
C907 H897 0.929 . S
C907 C905 1.433 . S
C907 N910 1.384 . S
C908 H899 0.929 . S
C908 C900 1.378 . S
C908 C903 1.350 . S
C909 H896 0.929 . S
C909 C901 1.433 . S
C909 N911 1.384 . S
N910 C906 1.427 . S
N910 C907 1.384 . S
N911 C903 1.427 . S
N911 C909 1.384 . S
H912 C918 0.930 . S
H913 C922 0.930 . S
H914 C927 0.929 . S
H915 C925 0.929 . S
H916 C920 0.929 . S
H917 C926 0.929 . S
C918 H912 0.930 . S
C918 C919 1.367 . S
C918 C926 1.378 . S
C919 C918 1.367 . S
C919 C927 1.433 . S
C920 H916 0.929 . S
C920 C922 1.378 . S
C920 C924 1.350 . S
C921 C924 1.463 . S
C921 C926 1.350 . S
C921 N929 1.427 . S
C922 H913 0.930 . S
C922 C920 1.378 . S
C922 C923 1.367 . S
C923 C922 1.367 . S
C923 C925 1.433 . S
C924 C920 1.350 . S
C924 C921 1.463 . S
C924 N928 1.427 . S
C925 H915 0.929 . S
C925 C923 1.433 . S
C925 N928 1.384 . S
C926 H917 0.929 . S
C926 C918 1.378 . S
C926 C921 1.350 . S
C927 H914 0.929 . S
C927 C919 1.433 . S
C927 N929 1.384 . S
N928 C924 1.427 . S
N928 C925 1.384 . S
N929 C921 1.427 . S
N929 C927 1.384 . S
H930 C936 0.930 . S
H931 C940 0.930 . S
H932 C945 0.929 . S
H933 C943 0.929 . S
H934 C938 0.929 . S
H935 C944 0.929 . S
C936 H930 0.930 . S
C936 C937 1.367 . S
C936 C944 1.378 . S
C937 C936 1.367 . S
C937 C945 1.433 . S
C938 H934 0.929 . S
C938 C940 1.378 . S
C938 C942 1.350 . S
C939 C942 1.463 . S
C939 C944 1.350 . S
C939 N947 1.427 . S
C940 H931 0.930 . S
C940 C938 1.378 . S
C940 C941 1.367 . S
C941 C940 1.367 . S
C941 C943 1.433 . S
C942 C938 1.350 . S
C942 C939 1.463 . S
C942 N946 1.427 . S
C943 H933 0.929 . S
C943 C941 1.433 . S
C943 N946 1.384 . S
C944 H935 0.929 . S
C944 C936 1.378 . S
C944 C939 1.350 . S
C945 H932 0.929 . S
C945 C937 1.433 . S
C945 N947 1.384 . S
N946 C942 1.427 . S
N946 C943 1.384 . S
N947 C939 1.427 . S
N947 C945 1.384 . S
H948 C954 0.939 . S
H949 C958 0.930 . S
H950 C963 0.929 . S
H951 C961 0.929 1_565 S
H952 C956 0.929 . S
H953 C962 0.929 1_565 S
C954 H948 0.939 . S
C954 C955 1.356 1_565 S
C954 C962 1.380 1_565 S
C955 C954 1.356 1_545 S
C955 C963 1.433 . S
C956 H952 0.929 . S
C956 C958 1.378 . S
C956 C960 1.350 . S
C957 C960 1.463 . S
C957 C962 1.350 . S
C957 N965 1.427 . S
C958 H949 0.930 . S
C958 C956 1.378 . S
C958 C959 1.367 . S
C959 C958 1.367 . S
C959 C961 1.433 . S
C960 C956 1.350 . S
C960 C957 1.463 . S
C960 N964 1.427 . S
C961 H951 0.929 1_545 S
C961 C959 1.433 . S
C961 N964 1.384 . S
C962 H953 0.929 1_545 S
C962 C954 1.380 1_545 S
C962 C957 1.350 . S
C963 H950 0.929 . S
C963 C955 1.433 . S
C963 N965 1.384 . S
N964 C960 1.427 . S
N964 C961 1.384 . S
N965 C957 1.427 . S
N965 C963 1.384 . S
H966 C972 0.930 . S
H967 C976 0.930 . S
H968 C981 0.929 . S
H969 C979 0.929 . S
H970 C974 0.929 . S
H971 C980 0.929 . S
C972 H966 0.930 . S
C972 C973 1.367 1_556 S
C972 C980 1.378 . S
C973 C972 1.367 1_554 S
C973 C981 1.433 . S
C974 H970 0.929 . S
C974 C976 1.378 . S
C974 C978 1.350 . S
C975 C978 1.463 . S
C975 C980 1.350 1_554 S
C975 N983 1.427 . S
C976 H967 0.930 . S
C976 C974 1.378 . S
C976 C977 1.367 . S
C977 C976 1.367 . S
C977 C979 1.433 1_554 S
C978 C974 1.350 . S
C978 C975 1.463 . S
C978 N982 1.427 1_554 S
C979 H969 0.929 . S
C979 C977 1.433 1_556 S
C979 N982 1.384 . S
C980 H971 0.929 . S
C980 C972 1.378 . S
C980 C975 1.350 1_556 S
C981 H968 0.929 . S
C981 C973 1.433 . S
C981 N983 1.384 . S
N982 C978 1.427 1_556 S
N982 C979 1.384 . S
N983 C975 1.427 . S
N983 C981 1.384 . S
H984 C990 0.930 . S
H985 C994 0.930 . S
H986 C999 0.929 . S
H987 C997 0.929 . S
H988 C992 0.929 . S
H989 C998 0.929 . S
C990 H984 0.930 . S
C990 C991 1.367 . S
C990 C998 1.378 . S
C991 C990 1.367 . S
C991 C999 1.433 . S
C992 H988 0.929 . S
C992 C994 1.378 . S
C992 C996 1.350 . S
C993 C996 1.463 . S
C993 C998 1.350 . S
C993 N1001 1.427 . S
C994 H985 0.930 . S
C994 C992 1.378 . S
C994 C995 1.367 . S
C995 C994 1.367 . S
C995 C997 1.433 . S
C996 C992 1.350 . S
C996 C993 1.463 . S
C996 N1000 1.427 . S
C997 H987 0.929 . S
C997 C995 1.433 . S
C997 N1000 1.384 . S
C998 H989 0.929 . S
C998 C990 1.378 . S
C998 C993 1.350 . S
C999 H986 0.929 . S
C999 C991 1.433 . S
C999 N1001 1.384 . S
N1000 C996 1.427 . S
N1000 C997 1.384 . S
N1001 C993 1.427 . S
N1001 C999 1.384 . S
H1002 C1008 0.930 . S
H1003 C1012 0.930 . S
H1004 C1017 0.929 . S
H1005 C1015 0.929 . S
H1006 C1010 0.929 . S
H1007 C1016 0.929 . S
C1008 H1002 0.930 . S
C1008 C1009 1.367 . S
C1008 C1016 1.378 . S
C1009 C1008 1.367 . S
C1009 C1017 1.433 . S
C1010 H1006 0.929 . S
C1010 C1012 1.378 . S
C1010 C1014 1.350 . S
C1011 C1014 1.463 . S
C1011 C1016 1.350 . S
C1011 N1019 1.427 . S
C1012 H1003 0.930 . S
C1012 C1010 1.378 . S
C1012 C1013 1.367 . S
C1013 C1012 1.367 . S
C1013 C1015 1.433 . S
C1014 C1010 1.350 . S
C1014 C1011 1.463 . S
C1014 N1018 1.427 . S
C1015 H1005 0.929 . S
C1015 C1013 1.433 . S
C1015 N1018 1.384 . S
C1016 H1007 0.929 . S
C1016 C1008 1.378 . S
C1016 C1011 1.350 . S
C1017 H1004 0.929 . S
C1017 C1009 1.433 . S
C1017 N1019 1.384 . S
N1018 C1014 1.427 . S
N1018 C1015 1.384 . S
N1019 C1011 1.427 . S
N1019 C1017 1.384 . S
H1020 C1026 0.930 . S
H1021 C1030 0.930 . S
H1022 C1035 0.929 . S
H1023 C1033 0.929 . S
H1024 C1028 0.929 . S
H1025 C1034 0.929 . S
C1026 H1020 0.930 . S
C1026 C1027 1.367 . S
C1026 C1034 1.378 . S
C1027 C1026 1.367 . S
C1027 C1035 1.433 . S
C1028 H1024 0.929 . S
C1028 C1030 1.378 . S
C1028 C1032 1.350 . S
C1029 C1032 1.463 . S
C1029 C1034 1.350 . S
C1029 N1037 1.427 . S
C1030 H1021 0.930 . S
C1030 C1028 1.378 . S
C1030 C1031 1.367 . S
C1031 C1030 1.367 . S
C1031 C1033 1.433 . S
C1032 C1028 1.350 . S
C1032 C1029 1.463 . S
C1032 N1036 1.427 . S
C1033 H1023 0.929 . S
C1033 C1031 1.433 . S
C1033 N1036 1.384 . S
C1034 H1025 0.929 . S
C1034 C1026 1.378 . S
C1034 C1029 1.350 . S
C1035 H1022 0.929 . S
C1035 C1027 1.433 . S
C1035 N1037 1.384 . S
N1036 C1032 1.427 . S
N1036 C1033 1.384 . S
N1037 C1029 1.427 . S
N1037 C1035 1.384 . S
H1038 C1044 0.930 . S
H1039 C1048 0.930 . S
H1040 C1053 0.929 . S
H1041 C1051 0.929 . S
H1042 C1046 0.929 . S
H1043 C1052 0.929 . S
C1044 H1038 0.930 . S
C1044 C1045 1.367 . S
C1044 C1052 1.378 . S
C1045 C1044 1.367 . S
C1045 C1053 1.433 . S
C1046 H1042 0.929 . S
C1046 C1048 1.378 . S
C1046 C1050 1.350 . S
C1047 C1050 1.463 . S
C1047 C1052 1.350 . S
C1047 N1055 1.427 . S
C1048 H1039 0.930 . S
C1048 C1046 1.378 . S
C1048 C1049 1.367 . S
C1049 C1048 1.367 . S
C1049 C1051 1.433 . S
C1050 C1046 1.350 . S
C1050 C1047 1.463 . S
C1050 N1054 1.427 . S
C1051 H1041 0.929 . S
C1051 C1049 1.433 . S
C1051 N1054 1.384 . S
C1052 H1043 0.929 . S
C1052 C1044 1.378 . S
C1052 C1047 1.350 . S
C1053 H1040 0.929 . S
C1053 C1045 1.433 . S
C1053 N1055 1.384 . S
N1054 C1050 1.427 . S
N1054 C1051 1.384 . S
N1055 C1047 1.427 . S
N1055 C1053 1.384 . S
H1056 C1062 0.930 . S
H1057 C1066 0.930 . S
H1058 C1071 0.929 . S
H1059 C1069 0.929 . S
H1060 C1064 0.929 . S
H1061 C1070 0.929 . S
C1062 H1056 0.930 . S
C1062 C1063 1.367 . S
C1062 C1070 1.378 . S
C1063 C1062 1.367 . S
C1063 C1071 1.433 . S
C1064 H1060 0.929 . S
C1064 C1066 1.378 . S
C1064 C1068 1.350 . S
C1065 C1068 1.463 . S
C1065 C1070 1.350 . S
C1065 N1073 1.427 . S
C1066 H1057 0.930 . S
C1066 C1064 1.378 . S
C1066 C1067 1.367 . S
C1067 C1066 1.367 . S
C1067 C1069 1.433 . S
C1068 C1064 1.350 . S
C1068 C1065 1.463 . S
C1068 N1072 1.427 . S
C1069 H1059 0.929 . S
C1069 C1067 1.433 . S
C1069 N1072 1.384 . S
C1070 H1061 0.929 . S
C1070 C1062 1.378 . S
C1070 C1065 1.350 . S
C1071 H1058 0.929 . S
C1071 C1063 1.433 . S
C1071 N1073 1.384 . S
N1072 C1068 1.427 . S
N1072 C1069 1.384 . S
N1073 C1065 1.427 . S
N1073 C1071 1.384 . S
H1074 C1080 0.930 . S
H1075 C1084 0.930 . S
H1076 C1089 0.929 . S
H1077 C1087 0.929 . S
H1078 C1082 0.929 . S
H1079 C1088 0.929 . S
C1080 H1074 0.930 . S
C1080 C1081 1.367 . S
C1080 C1088 1.378 . S
C1081 C1080 1.367 . S
C1081 C1089 1.433 . S
C1082 H1078 0.929 . S
C1082 C1084 1.378 . S
C1082 C1086 1.350 . S
C1083 C1086 1.463 . S
C1083 C1088 1.350 . S
C1083 N1091 1.427 . S
C1084 H1075 0.930 . S
C1084 C1082 1.378 . S
C1084 C1085 1.367 . S
C1085 C1084 1.367 . S
C1085 C1087 1.433 . S
C1086 C1082 1.350 . S
C1086 C1083 1.463 . S
C1086 N1090 1.427 . S
C1087 H1077 0.929 . S
C1087 C1085 1.433 . S
C1087 N1090 1.384 . S
C1088 H1079 0.929 . S
C1088 C1080 1.378 . S
C1088 C1083 1.350 . S
C1089 H1076 0.929 . S
C1089 C1081 1.433 . S
C1089 N1091 1.384 . S
N1090 C1086 1.427 . S
N1090 C1087 1.384 . S
N1091 C1083 1.427 . S
N1091 C1089 1.384 . S
H1092 C1098 0.930 . S
H1093 C1102 0.930 . S
H1094 C1107 0.929 . S
H1095 C1105 0.929 . S
H1096 C1100 0.929 . S
H1097 C1106 0.929 . S
C1098 H1092 0.930 . S
C1098 C1099 1.367 . S
C1098 C1106 1.378 . S
C1099 C1098 1.367 . S
C1099 C1107 1.433 . S
C1100 H1096 0.929 . S
C1100 C1102 1.378 . S
C1100 C1104 1.350 . S
C1101 C1104 1.463 . S
C1101 C1106 1.350 . S
C1101 N1109 1.427 . S
C1102 H1093 0.930 . S
C1102 C1100 1.378 . S
C1102 C1103 1.367 . S
C1103 C1102 1.367 . S
C1103 C1105 1.433 . S
C1104 C1100 1.350 . S
C1104 C1101 1.463 . S
C1104 N1108 1.427 . S
C1105 H1095 0.929 . S
C1105 C1103 1.433 . S
C1105 N1108 1.384 . S
C1106 H1097 0.929 . S
C1106 C1098 1.378 . S
C1106 C1101 1.350 . S
C1107 H1094 0.929 . S
C1107 C1099 1.433 . S
C1107 N1109 1.384 . S
N1108 C1104 1.427 . S
N1108 C1105 1.384 . S
N1109 C1101 1.427 . S
N1109 C1107 1.384 . S
H1110 C1116 0.930 . S
H1111 C1120 0.930 . S
H1112 C1125 0.929 . S
H1113 C1123 0.929 . S
H1114 C1118 0.929 . S
H1115 C1124 0.929 . S
C1116 H1110 0.930 . S
C1116 C1117 1.367 . S
C1116 C1124 1.378 . S
C1117 C1116 1.367 . S
C1117 C1125 1.433 . S
C1118 H1114 0.929 . S
C1118 C1120 1.378 . S
C1118 C1122 1.350 . S
C1119 C1122 1.463 . S
C1119 C1124 1.350 . S
C1119 N1127 1.427 . S
C1120 H1111 0.930 . S
C1120 C1118 1.378 . S
C1120 C1121 1.367 . S
C1121 C1120 1.367 . S
C1121 C1123 1.433 . S
C1122 C1118 1.350 . S
C1122 C1119 1.463 . S
C1122 N1126 1.427 . S
C1123 H1113 0.929 . S
C1123 C1121 1.433 . S
C1123 N1126 1.384 . S
C1124 H1115 0.929 . S
C1124 C1116 1.378 . S
C1124 C1119 1.350 . S
C1125 H1112 0.929 . S
C1125 C1117 1.433 . S
C1125 N1127 1.384 . S
N1126 C1122 1.427 . S
N1126 C1123 1.384 . S
N1127 C1119 1.427 . S
N1127 C1125 1.384 . S
H1128 C1134 0.930 . S
H1129 C1138 0.930 . S
H1130 C1143 0.929 . S
H1131 C1141 0.929 . S
H1132 C1136 0.929 . S
H1133 C1142 0.929 . S
C1134 H1128 0.930 . S
C1134 C1135 1.367 . S
C1134 C1142 1.378 . S
C1135 C1134 1.367 . S
C1135 C1143 1.433 . S
C1136 H1132 0.929 . S
C1136 C1138 1.378 . S
C1136 C1140 1.350 . S
C1137 C1140 1.463 . S
C1137 C1142 1.350 . S
C1137 N1145 1.427 . S
C1138 H1129 0.930 . S
C1138 C1136 1.378 . S
C1138 C1139 1.367 . S
C1139 C1138 1.367 . S
C1139 C1141 1.433 . S
C1140 C1136 1.350 . S
C1140 C1137 1.463 . S
C1140 N1144 1.427 . S
C1141 H1131 0.929 . S
C1141 C1139 1.433 . S
C1141 N1144 1.384 . S
C1142 H1133 0.929 . S
C1142 C1134 1.378 . S
C1142 C1137 1.350 . S
C1143 H1130 0.929 . S
C1143 C1135 1.433 . S
C1143 N1145 1.384 . S
N1144 C1140 1.427 . S
N1144 C1141 1.384 . S
N1145 C1137 1.427 . S
N1145 C1143 1.384 . S
H1146 C1152 0.930 . S
H1147 C1156 0.930 . S
H1148 C1161 0.929 . S
H1149 C1159 0.929 . S
H1150 C1154 0.929 . S
H1151 C1160 0.929 . S
C1152 H1146 0.930 . S
C1152 C1153 1.367 . S
C1152 C1160 1.378 . S
C1153 C1152 1.367 . S
C1153 C1161 1.433 1_554 S
C1154 H1150 0.929 . S
C1154 C1156 1.378 . S
C1154 C1158 1.350 1_556 S
C1155 C1158 1.463 . S
C1155 C1160 1.350 . S
C1155 N1163 1.427 1_554 S
C1156 H1147 0.930 . S
C1156 C1154 1.378 . S
C1156 C1157 1.367 1_556 S
C1157 C1156 1.367 1_554 S
C1157 C1159 1.433 . S
C1158 C1154 1.350 1_554 S
C1158 C1155 1.463 . S
C1158 N1162 1.427 . S
C1159 H1149 0.929 . S
C1159 C1157 1.433 . S
C1159 N1162 1.384 . S
C1160 H1151 0.929 . S
C1160 C1152 1.378 . S
C1160 C1155 1.350 . S
C1161 H1148 0.929 . S
C1161 C1153 1.433 1_556 S
C1161 N1163 1.384 . S
N1162 C1158 1.427 . S
N1162 C1159 1.384 . S
N1163 C1155 1.427 1_556 S
N1163 C1161 1.384 . S
H1164 C1170 0.930 . S
H1165 C1174 0.930 . S
H1166 C1179 0.929 . S
H1167 C1177 0.929 . S
H1168 C1172 0.929 . S
H1169 C1178 0.929 . S
C1170 H1164 0.930 . S
C1170 C1171 1.367 . S
C1170 C1178 1.378 . S
C1171 C1170 1.367 . S
C1171 C1179 1.433 . S
C1172 H1168 0.929 . S
C1172 C1174 1.378 . S
C1172 C1176 1.350 . S
C1173 C1176 1.463 . S
C1173 C1178 1.350 . S
C1173 N1181 1.427 . S
C1174 H1165 0.930 . S
C1174 C1172 1.378 . S
C1174 C1175 1.367 . S
C1175 C1174 1.367 . S
C1175 C1177 1.433 . S
C1176 C1172 1.350 . S
C1176 C1173 1.463 . S
C1176 N1180 1.427 . S
C1177 H1167 0.929 . S
C1177 C1175 1.433 . S
C1177 N1180 1.384 . S
C1178 H1169 0.929 . S
C1178 C1170 1.378 . S
C1178 C1173 1.350 . S
C1179 H1166 0.929 . S
C1179 C1171 1.433 . S
C1179 N1181 1.384 . S
N1180 C1176 1.427 . S
N1180 C1177 1.384 . S
N1181 C1173 1.427 . S
N1181 C1179 1.384 . S
H1182 C1188 0.930 . S
H1183 C1192 0.930 . S
H1184 C1197 0.929 . S
H1185 C1195 0.929 . S
H1186 C1190 0.929 . S
H1187 C1196 0.929 . S
C1188 H1182 0.930 . S
C1188 C1189 1.367 . S
C1188 C1196 1.378 . S
C1189 C1188 1.367 . S
C1189 C1197 1.433 . S
C1190 H1186 0.929 . S
C1190 C1192 1.378 . S
C1190 C1194 1.350 . S
C1191 C1194 1.463 . S
C1191 C1196 1.350 . S
C1191 N1199 1.427 . S
C1192 H1183 0.930 . S
C1192 C1190 1.378 . S
C1192 C1193 1.367 . S
C1193 C1192 1.367 . S
C1193 C1195 1.433 . S
C1194 C1190 1.350 . S
C1194 C1191 1.463 . S
C1194 N1198 1.427 . S
C1195 H1185 0.929 . S
C1195 C1193 1.433 . S
C1195 N1198 1.384 . S
C1196 H1187 0.929 . S
C1196 C1188 1.378 . S
C1196 C1191 1.350 . S
C1197 H1184 0.929 . S
C1197 C1189 1.433 . S
C1197 N1199 1.384 . S
N1198 C1194 1.427 . S
N1198 C1195 1.384 . S
N1199 C1191 1.427 . S
N1199 C1197 1.384 . S
H1200 C1206 0.930 . S
H1201 C1210 0.930 . S
H1202 C1215 0.929 . S
H1203 C1213 0.929 . S
H1204 C1208 0.929 . S
H1205 C1214 0.929 . S
C1206 H1200 0.930 . S
C1206 C1207 1.367 . S
C1206 C1214 1.378 . S
C1207 C1206 1.367 . S
C1207 C1215 1.433 . S
C1208 H1204 0.929 . S
C1208 C1210 1.378 . S
C1208 C1212 1.350 . S
C1209 C1212 1.463 . S
C1209 C1214 1.350 . S
C1209 N1217 1.427 . S
C1210 H1201 0.930 . S
C1210 C1208 1.378 . S
C1210 C1211 1.367 . S
C1211 C1210 1.367 . S
C1211 C1213 1.433 . S
C1212 C1208 1.350 . S
C1212 C1209 1.463 . S
C1212 N1216 1.427 . S
C1213 H1203 0.929 . S
C1213 C1211 1.433 . S
C1213 N1216 1.384 . S
C1214 H1205 0.929 . S
C1214 C1206 1.378 . S
C1214 C1209 1.350 . S
C1215 H1202 0.929 . S
C1215 C1207 1.433 . S
C1215 N1217 1.384 . S
N1216 C1212 1.427 . S
N1216 C1213 1.384 . S
N1217 C1209 1.427 . S
N1217 C1215 1.384 . S
H1218 C1224 0.930 . S
H1219 C1228 0.930 . S
H1220 C1233 0.929 . S
H1221 C1231 0.929 . S
H1222 C1226 0.929 . S
H1223 C1232 0.929 . S
C1224 H1218 0.930 . S
C1224 C1225 1.367 . S
C1224 C1232 1.378 . S
C1225 C1224 1.367 . S
C1225 C1233 1.433 . S
C1226 H1222 0.929 . S
C1226 C1228 1.378 . S
C1226 C1230 1.350 . S
C1227 C1230 1.463 . S
C1227 C1232 1.350 . S
C1227 N1235 1.427 . S
C1228 H1219 0.930 . S
C1228 C1226 1.378 . S
C1228 C1229 1.367 . S
C1229 C1228 1.367 . S
C1229 C1231 1.433 . S
C1230 C1226 1.350 . S
C1230 C1227 1.463 . S
C1230 N1234 1.427 . S
C1231 H1221 0.929 . S
C1231 C1229 1.433 . S
C1231 N1234 1.384 . S
C1232 H1223 0.929 . S
C1232 C1224 1.378 . S
C1232 C1227 1.350 . S
C1233 H1220 0.929 . S
C1233 C1225 1.433 . S
C1233 N1235 1.384 . S
N1234 C1230 1.427 . S
N1234 C1231 1.384 . S
N1235 C1227 1.427 . S
N1235 C1233 1.384 . S
H1236 C1242 0.930 . S
H1237 C1246 0.930 . S
H1238 C1251 0.929 . S
H1239 C1249 0.929 . S
H1240 C1244 0.929 . S
H1241 C1250 0.929 . S
C1242 H1236 0.930 . S
C1242 C1243 1.367 1_554 S
C1242 C1250 1.378 . S
C1243 C1242 1.367 1_556 S
C1243 C1251 1.433 . S
C1244 H1240 0.929 . S
C1244 C1246 1.378 . S
C1244 C1248 1.350 . S
C1245 C1248 1.463 . S
C1245 C1250 1.350 1_556 S
C1245 N1253 1.427 . S
C1246 H1237 0.930 . S
C1246 C1244 1.378 . S
C1246 C1247 1.367 . S
C1247 C1246 1.367 . S
C1247 C1249 1.433 1_556 S
C1248 C1244 1.350 . S
C1248 C1245 1.463 . S
C1248 N1252 1.427 1_556 S
C1249 H1239 0.929 . S
C1249 C1247 1.433 1_554 S
C1249 N1252 1.384 . S
C1250 H1241 0.929 . S
C1250 C1242 1.378 . S
C1250 C1245 1.350 1_554 S
C1251 H1238 0.929 . S
C1251 C1243 1.433 . S
C1251 N1253 1.384 . S
N1252 C1248 1.427 1_554 S
N1252 C1249 1.384 . S
N1253 C1245 1.427 . S
N1253 C1251 1.384 . S
H1254 C1260 0.930 . S
H1255 C1264 0.930 . S
H1256 C1269 0.929 . S
H1257 C1267 0.929 . S
H1258 C1262 0.929 . S
H1259 C1268 0.929 . S
C1260 H1254 0.930 . S
C1260 C1261 1.367 . S
C1260 C1268 1.378 . S
C1261 C1260 1.367 . S
C1261 C1269 1.433 . S
C1262 H1258 0.929 . S
C1262 C1264 1.378 . S
C1262 C1266 1.350 . S
C1263 C1266 1.463 . S
C1263 C1268 1.350 . S
C1263 N1271 1.427 . S
C1264 H1255 0.930 . S
C1264 C1262 1.378 . S
C1264 C1265 1.367 . S
C1265 C1264 1.367 . S
C1265 C1267 1.433 . S
C1266 C1262 1.350 . S
C1266 C1263 1.463 . S
C1266 N1270 1.427 . S
C1267 H1257 0.929 . S
C1267 C1265 1.433 . S
C1267 N1270 1.384 . S
C1268 H1259 0.929 . S
C1268 C1260 1.378 . S
C1268 C1263 1.350 . S
C1269 H1256 0.929 . S
C1269 C1261 1.433 . S
C1269 N1271 1.384 . S
N1270 C1266 1.427 . S
N1270 C1267 1.384 . S
N1271 C1263 1.427 . S
N1271 C1269 1.384 . S
H1272 C1278 0.930 . S
H1273 C1282 0.930 . S
H1274 C1287 0.929 . S
H1275 C1285 0.929 . S
H1276 C1280 0.929 . S
H1277 C1286 0.929 . S
C1278 H1272 0.930 . S
C1278 C1279 1.367 . S
C1278 C1286 1.378 . S
C1279 C1278 1.367 . S
C1279 C1287 1.433 . S
C1280 H1276 0.929 . S
C1280 C1282 1.378 . S
C1280 C1284 1.350 . S
C1281 C1284 1.463 . S
C1281 C1286 1.350 . S
C1281 N1289 1.427 . S
C1282 H1273 0.930 . S
C1282 C1280 1.378 . S
C1282 C1283 1.367 . S
C1283 C1282 1.367 . S
C1283 C1285 1.433 . S
C1284 C1280 1.350 . S
C1284 C1281 1.463 . S
C1284 N1288 1.427 . S
C1285 H1275 0.929 . S
C1285 C1283 1.433 . S
C1285 N1288 1.384 . S
C1286 H1277 0.929 . S
C1286 C1278 1.378 . S
C1286 C1281 1.350 . S
C1287 H1274 0.929 . S
C1287 C1279 1.433 . S
C1287 N1289 1.384 . S
N1288 C1284 1.427 . S
N1288 C1285 1.384 . S
N1289 C1281 1.427 . S
N1289 C1287 1.384 . S
H1290 C1296 0.930 . S
H1291 C1300 0.930 . S
H1292 C1305 0.929 . S
H1293 C1303 0.929 . S
H1294 C1298 0.929 . S
H1295 C1304 0.929 . S
C1296 H1290 0.930 . S
C1296 C1297 1.367 . S
C1296 C1304 1.378 . S
C1297 C1296 1.367 . S
C1297 C1305 1.433 . S
C1298 H1294 0.929 . S
C1298 C1300 1.378 . S
C1298 C1302 1.350 . S
C1299 C1302 1.463 . S
C1299 C1304 1.350 . S
C1299 N1307 1.427 . S
C1300 H1291 0.930 . S
C1300 C1298 1.378 . S
C1300 C1301 1.367 . S
C1301 C1300 1.367 . S
C1301 C1303 1.433 . S
C1302 C1298 1.350 . S
C1302 C1299 1.463 . S
C1302 N1306 1.427 . S
C1303 H1293 0.929 . S
C1303 C1301 1.433 . S
C1303 N1306 1.384 . S
C1304 H1295 0.929 . S
C1304 C1296 1.378 . S
C1304 C1299 1.350 . S
C1305 H1292 0.929 . S
C1305 C1297 1.433 . S
C1305 N1307 1.384 . S
N1306 C1302 1.427 . S
N1306 C1303 1.384 . S
N1307 C1299 1.427 . S
N1307 C1305 1.384 . S
H1308 C1314 0.930 . S
H1309 C1318 0.930 . S
H1310 C1323 0.929 . S
H1311 C1321 0.929 . S
H1312 C1316 0.929 . S
H1313 C1322 0.929 . S
C1314 H1308 0.930 . S
C1314 C1315 1.367 . S
C1314 C1322 1.378 . S
C1315 C1314 1.367 . S
C1315 C1323 1.433 . S
C1316 H1312 0.929 . S
C1316 C1318 1.378 . S
C1316 C1320 1.350 . S
C1317 C1320 1.463 . S
C1317 C1322 1.350 . S
C1317 N1325 1.427 . S
C1318 H1309 0.930 . S
C1318 C1316 1.378 . S
C1318 C1319 1.367 . S
C1319 C1318 1.367 . S
C1319 C1321 1.433 . S
C1320 C1316 1.350 . S
C1320 C1317 1.463 . S
C1320 N1324 1.427 . S
C1321 H1311 0.929 . S
C1321 C1319 1.433 . S
C1321 N1324 1.384 . S
C1322 H1313 0.929 . S
C1322 C1314 1.378 . S
C1322 C1317 1.350 . S
C1323 H1310 0.929 . S
C1323 C1315 1.433 . S
C1323 N1325 1.384 . S
N1324 C1320 1.427 . S
N1324 C1321 1.384 . S
N1325 C1317 1.427 . S
N1325 C1323 1.384 . S
H1326 C1332 0.930 . S
H1327 C1336 0.930 . S
H1328 C1341 0.929 . S
H1329 C1339 0.929 . S
H1330 C1334 0.929 . S
H1331 C1340 0.929 . S
C1332 H1326 0.930 . S
C1332 C1333 1.367 . S
C1332 C1340 1.378 . S
C1333 C1332 1.367 . S
C1333 C1341 1.433 . S
C1334 H1330 0.929 . S
C1334 C1336 1.378 . S
C1334 C1338 1.350 . S
C1335 C1338 1.463 . S
C1335 C1340 1.350 . S
C1335 N1343 1.427 . S
C1336 H1327 0.930 . S
C1336 C1334 1.378 . S
C1336 C1337 1.367 . S
C1337 C1336 1.367 . S
C1337 C1339 1.433 . S
C1338 C1334 1.350 . S
C1338 C1335 1.463 . S
C1338 N1342 1.427 . S
C1339 H1329 0.929 . S
C1339 C1337 1.433 . S
C1339 N1342 1.384 . S
C1340 H1331 0.929 . S
C1340 C1332 1.378 . S
C1340 C1335 1.350 . S
C1341 H1328 0.929 . S
C1341 C1333 1.433 . S
C1341 N1343 1.384 . S
N1342 C1338 1.427 . S
N1342 C1339 1.384 . S
N1343 C1335 1.427 . S
N1343 C1341 1.384 . S
C487 C1 1.096 . S
C491 C46 1.104 . S
C505 C61 0.620 . S
C509 N44 0.612 . S
C523 N104 0.279 . S
C527 N66 0.210 . S
C541 N6 0.632 . S
C545 C106 0.648 . S
C559 N14 0.628 . S
C563 C297 0.633 . S
C577 C220 1.090 . S
C581 C57 1.105 . S
C595 C70 0.624 . S
C599 N306 0.611 . S
C613 N96 0.239 . S
C617 N404 0.214 . S
C631 C250 0.634 . S
C635 N36 0.606 . S
C649 N366 0.237 . S
C653 N74 0.206 . S
C667 N434 0.623 . S
C671 C117 0.633 . S
C685 C10 1.091 . S
C689 C357 1.110 . S
C703 C27 1.125 . S
C707 C256 1.114 . S
C721 C361 1.142 . S
C725 C130 1.176 . S
C739 C177 1.106 . S
C743 C436 1.132 . S
C757 C340 1.176 . S
C761 C181 1.139 . S
C775 C87 1.111 . S
C779 C226 1.129 . S
C793 C280 1.158 . S
C797 C121 1.172 . S
C811 C190 1.158 . S
C815 C301 1.169 . S
C829 C160 0.625 . S
C833 N336 0.601 . S
C847 N276 0.235 . S
C851 N164 0.206 . S
C865 C346 1.104 . S
C869 C211 1.096 . S
C883 C151 0.629 . S
C887 N134 0.613 . S
C901 N284 0.273 . S
C905 N246 0.215 . S
C919 C391 0.615 . S
C923 N344 0.612 . S
C937 N194 0.268 . S
C941 N156 0.222 . S
C955 C286 0.620 . S
C959 N426 0.620 . S
C973 C417 1.106 . S
C977 C16 1.135 . S
C991 C76 1.116 . S
C995 C447 1.122 . S
C1009 C370 1.143 . S
C1013 C31 1.178 . S
C1027 C237 1.128 . S
C1031 C166 1.111 . S
C1045 C91 1.144 . S
C1049 C310 1.171 . S
C1063 N374 0.263 . S
C1067 N396 0.219 . S
C1081 N216 0.619 . S
C1085 C376 0.622 . S
C1099 C207 0.627 . S
C1103 N224 0.623 . S
C1117 N126 0.605 . S
C1121 C400 0.625 . S
C1135 C387 0.620 . S
C1139 N464 0.616 . S
C1153 C466 1.129 . S
C1157 C267 1.106 . S
C1171 C40 1.175 . S
C1175 C271 1.139 . S
C1189 N254 0.195 . S
C1193 N186 0.261 . S
C1207 C241 0.622 . S
C1211 N314 0.605 . S
C1225 N456 0.628 . S
C1229 C196 0.633 . S
C1243 C406 1.107 . S
C1247 C477 1.129 . S
C1261 C331 1.169 . S
C1265 C100 1.163 . S
C1279 C316 1.104 . S
C1283 C421 1.091 . S
C1297 C327 1.104 . S
C1301 C460 1.099 . S
C1315 C147 1.113 . S
C1319 C430 1.085 . S
C1333 C451 1.099 . S
C1337 C136 1.104 . S
