# Generated by pormake.
# Topology pem, (4)-cn, num edge types: 1
# Building blocks:
#     Node 0, Type 0, BuildingBlock: NAHDIM_clean_sbu_0, # of connection points: 4
#     Node 1, Type 0, BuildingBlock: NAHDIM_clean_sbu_0, # of connection points: 4
#     Node 2, Type 0, BuildingBlock: NAHDIM_clean_sbu_0, # of connection points: 4
#     Node 3, Type 0, BuildingBlock: NAHDIM_clean_sbu_0, # of connection points: 4
#     Node 4, Type 0, BuildingBlock: NAHDIM_clean_sbu_0, # of connection points: 4
#     Node 5, Type 0, BuildingBlock: NAHDIM_clean_sbu_0, # of connection points: 4
#     Node 6, Type 0, BuildingBlock: NAHDIM_clean_sbu_0, # of connection points: 4
#     Node 7, Type 0, BuildingBlock: NAHDIM_clean_sbu_0, # of connection points: 4
#     Node 8, Type 0, BuildingBlock: NAHDIM_clean_sbu_0, # of connection points: 4
#     Node 9, Type 0, BuildingBlock: NAHDIM_clean_sbu_0, # of connection points: 4
#     Node 10, Type 0, BuildingBlock: NAHDIM_clean_sbu_0, # of connection points: 4
#     Node 11, Type 0, BuildingBlock: NAHDIM_clean_sbu_0, # of connection points: 4
#     Node 12, Type 0, BuildingBlock: NAHDIM_clean_sbu_0, # of connection points: 4
#     Node 13, Type 0, BuildingBlock: NAHDIM_clean_sbu_0, # of connection points: 4
#     Node 14, Type 0, BuildingBlock: NAHDIM_clean_sbu_0, # of connection points: 4
#     Node 15, Type 0, BuildingBlock: NAHDIM_clean_sbu_0, # of connection points: 4
#     Node 16, Type 0, BuildingBlock: NAHDIM_clean_sbu_0, # of connection points: 4
#     Node 17, Type 0, BuildingBlock: NAHDIM_clean_sbu_0, # of connection points: 4
#     Node 18, Type 0, BuildingBlock: NAHDIM_clean_sbu_0, # of connection points: 4
#     Node 19, Type 0, BuildingBlock: NAHDIM_clean_sbu_0, # of connection points: 4
#     Node 20, Type 0, BuildingBlock: NAHDIM_clean_sbu_0, # of connection points: 4
#     Node 21, Type 0, BuildingBlock: NAHDIM_clean_sbu_0, # of connection points: 4
#     Node 22, Type 0, BuildingBlock: NAHDIM_clean_sbu_0, # of connection points: 4
#     Node 23, Type 0, BuildingBlock: NAHDIM_clean_sbu_0, # of connection points: 4
#     Node 24, Type 0, BuildingBlock: NAHDIM_clean_sbu_0, # of connection points: 4
#     Node 25, Type 0, BuildingBlock: NAHDIM_clean_sbu_0, # of connection points: 4
#     Node 26, Type 0, BuildingBlock: NAHDIM_clean_sbu_0, # of connection points: 4
#     Node 27, Type 0, BuildingBlock: NAHDIM_clean_sbu_0, # of connection points: 4
#     Node 28, Type 0, BuildingBlock: NAHDIM_clean_sbu_0, # of connection points: 4
#     Node 29, Type 0, BuildingBlock: NAHDIM_clean_sbu_0, # of connection points: 4
#     Node 30, Type 0, BuildingBlock: NAHDIM_clean_sbu_0, # of connection points: 4
#     Node 31, Type 0, BuildingBlock: NAHDIM_clean_sbu_0, # of connection points: 4
#     Edge 32, Type (0, 0), BuildingBlock: UVAHIK_clean_linker_0, # of connection points: 2
#     Edge 33, Type (0, 0), BuildingBlock: UVAHIK_clean_linker_0, # of connection points: 2
#     Edge 34, Type (0, 0), BuildingBlock: UVAHIK_clean_linker_0, # of connection points: 2
#     Edge 35, Type (0, 0), BuildingBlock: UVAHIK_clean_linker_0, # of connection points: 2
#     Edge 36, Type (0, 0), BuildingBlock: UVAHIK_clean_linker_0, # of connection points: 2
#     Edge 37, Type (0, 0), BuildingBlock: UVAHIK_clean_linker_0, # of connection points: 2
#     Edge 38, Type (0, 0), BuildingBlock: UVAHIK_clean_linker_0, # of connection points: 2
#     Edge 39, Type (0, 0), BuildingBlock: UVAHIK_clean_linker_0, # of connection points: 2
#     Edge 40, Type (0, 0), BuildingBlock: UVAHIK_clean_linker_0, # of connection points: 2
#     Edge 41, Type (0, 0), BuildingBlock: UVAHIK_clean_linker_0, # of connection points: 2
#     Edge 42, Type (0, 0), BuildingBlock: UVAHIK_clean_linker_0, # of connection points: 2
#     Edge 43, Type (0, 0), BuildingBlock: UVAHIK_clean_linker_0, # of connection points: 2
#     Edge 44, Type (0, 0), BuildingBlock: UVAHIK_clean_linker_0, # of connection points: 2
#     Edge 45, Type (0, 0), BuildingBlock: UVAHIK_clean_linker_0, # of connection points: 2
#     Edge 46, Type (0, 0), BuildingBlock: UVAHIK_clean_linker_0, # of connection points: 2
#     Edge 47, Type (0, 0), BuildingBlock: UVAHIK_clean_linker_0, # of connection points: 2
#     Edge 48, Type (0, 0), BuildingBlock: UVAHIK_clean_linker_0, # of connection points: 2
#     Edge 49, Type (0, 0), BuildingBlock: UVAHIK_clean_linker_0, # of connection points: 2
#     Edge 50, Type (0, 0), BuildingBlock: UVAHIK_clean_linker_0, # of connection points: 2
#     Edge 51, Type (0, 0), BuildingBlock: UVAHIK_clean_linker_0, # of connection points: 2
#     Edge 52, Type (0, 0), BuildingBlock: UVAHIK_clean_linker_0, # of connection points: 2
#     Edge 53, Type (0, 0), BuildingBlock: UVAHIK_clean_linker_0, # of connection points: 2
#     Edge 54, Type (0, 0), BuildingBlock: UVAHIK_clean_linker_0, # of connection points: 2
#     Edge 55, Type (0, 0), BuildingBlock: UVAHIK_clean_linker_0, # of connection points: 2
#     Edge 56, Type (0, 0), BuildingBlock: UVAHIK_clean_linker_0, # of connection points: 2
#     Edge 57, Type (0, 0), BuildingBlock: UVAHIK_clean_linker_0, # of connection points: 2
#     Edge 58, Type (0, 0), BuildingBlock: UVAHIK_clean_linker_0, # of connection points: 2
#     Edge 59, Type (0, 0), BuildingBlock: UVAHIK_clean_linker_0, # of connection points: 2
#     Edge 60, Type (0, 0), BuildingBlock: UVAHIK_clean_linker_0, # of connection points: 2
#     Edge 61, Type (0, 0), BuildingBlock: UVAHIK_clean_linker_0, # of connection points: 2
#     Edge 62, Type (0, 0), BuildingBlock: UVAHIK_clean_linker_0, # of connection points: 2
#     Edge 63, Type (0, 0), BuildingBlock: UVAHIK_clean_linker_0, # of connection points: 2
#     Edge 64, Type (0, 0), BuildingBlock: UVAHIK_clean_linker_0, # of connection points: 2
#     Edge 65, Type (0, 0), BuildingBlock: UVAHIK_clean_linker_0, # of connection points: 2
#     Edge 66, Type (0, 0), BuildingBlock: UVAHIK_clean_linker_0, # of connection points: 2
#     Edge 67, Type (0, 0), BuildingBlock: UVAHIK_clean_linker_0, # of connection points: 2
#     Edge 68, Type (0, 0), BuildingBlock: UVAHIK_clean_linker_0, # of connection points: 2
#     Edge 69, Type (0, 0), BuildingBlock: UVAHIK_clean_linker_0, # of connection points: 2
#     Edge 70, Type (0, 0), BuildingBlock: UVAHIK_clean_linker_0, # of connection points: 2
#     Edge 71, Type (0, 0), BuildingBlock: UVAHIK_clean_linker_0, # of connection points: 2
#     Edge 72, Type (0, 0), BuildingBlock: UVAHIK_clean_linker_0, # of connection points: 2
#     Edge 73, Type (0, 0), BuildingBlock: UVAHIK_clean_linker_0, # of connection points: 2
#     Edge 74, Type (0, 0), BuildingBlock: UVAHIK_clean_linker_0, # of connection points: 2
#     Edge 75, Type (0, 0), BuildingBlock: UVAHIK_clean_linker_0, # of connection points: 2
#     Edge 76, Type (0, 0), BuildingBlock: UVAHIK_clean_linker_0, # of connection points: 2
#     Edge 77, Type (0, 0), BuildingBlock: UVAHIK_clean_linker_0, # of connection points: 2
#     Edge 78, Type (0, 0), BuildingBlock: UVAHIK_clean_linker_0, # of connection points: 2
#     Edge 79, Type (0, 0), BuildingBlock: UVAHIK_clean_linker_0, # of connection points: 2
#     Edge 80, Type (0, 0), BuildingBlock: UVAHIK_clean_linker_0, # of connection points: 2
#     Edge 81, Type (0, 0), BuildingBlock: UVAHIK_clean_linker_0, # of connection points: 2
#     Edge 82, Type (0, 0), BuildingBlock: UVAHIK_clean_linker_0, # of connection points: 2
#     Edge 83, Type (0, 0), BuildingBlock: UVAHIK_clean_linker_0, # of connection points: 2
#     Edge 84, Type (0, 0), BuildingBlock: UVAHIK_clean_linker_0, # of connection points: 2
#     Edge 85, Type (0, 0), BuildingBlock: UVAHIK_clean_linker_0, # of connection points: 2
#     Edge 86, Type (0, 0), BuildingBlock: UVAHIK_clean_linker_0, # of connection points: 2
#     Edge 87, Type (0, 0), BuildingBlock: UVAHIK_clean_linker_0, # of connection points: 2
#     Edge 88, Type (0, 0), BuildingBlock: UVAHIK_clean_linker_0, # of connection points: 2
#     Edge 89, Type (0, 0), BuildingBlock: UVAHIK_clean_linker_0, # of connection points: 2
#     Edge 90, Type (0, 0), BuildingBlock: UVAHIK_clean_linker_0, # of connection points: 2
#     Edge 91, Type (0, 0), BuildingBlock: UVAHIK_clean_linker_0, # of connection points: 2
#     Edge 92, Type (0, 0), BuildingBlock: UVAHIK_clean_linker_0, # of connection points: 2
#     Edge 93, Type (0, 0), BuildingBlock: UVAHIK_clean_linker_0, # of connection points: 2
#     Edge 94, Type (0, 0), BuildingBlock: UVAHIK_clean_linker_0, # of connection points: 2
#     Edge 95, Type (0, 0), BuildingBlock: UVAHIK_clean_linker_0, # of connection points: 2
# Relax obj value: 0.112
# Max RMSD: 0.075
# Mean RMSD: 0.073
data_MOF--net-pem--node1-NAHDIM_clean_sbu_0--edge1-UVAHIK_clean_linker_0
_symmetry_space_group_name_H-M    P1
_symmetry_Int_Tables_number       1
_symmetry_cell_setting            triclinic
loop_
_symmetry_equiv_pos_as_xyz
'x, y, z'
_cell_length_a     55.924867
_cell_length_b     55.448314
_cell_length_c     54.028198
_cell_angle_alpha  89.99577
_cell_angle_beta   90.009875
_cell_angle_gamma 93.559434
loop_
_atom_site_label
_atom_site_type_symbol
_atom_site_fract_x
_atom_site_fract_y
_atom_site_fract_z
_atom_type_partial_charge
C0 C 0.04741 0.12522 0.12537 0.0
O1 O 0.04031 0.10398 0.13444 0.0
O2 O 0.08466 0.072 0.12847 0.0
Zn3 Zn 0.08204 0.09716 0.1015 0.0
O4 O 0.06011 0.08285 0.07558 0.0
C5 C 0.13099 0.09131 0.084 0.0
O6 O 0.12999 0.07213 0.09826 0.0
O7 O 0.0663 0.12712 0.11226 0.0
C8 C 0.06111 0.09094 0.05359 0.0
O9 O 0.07675 0.10877 0.04802 0.0
C10 C 0.0861 0.05029 0.12122 0.0
O11 O 0.08567 0.04557 0.09739 0.0
O12 O 0.11369 0.10516 0.08413 0.0
C13 C 0.18171 0.86972 0.36831 0.0
O14 O 0.18497 0.88102 0.34709 0.0
O15 O 0.13861 0.86729 0.31676 0.0
Zn16 Zn 0.14525 0.8409 0.34144 0.0
O17 O 0.1656 0.81727 0.32488 0.0
C18 C 0.09503 0.82064 0.34503 0.0
O19 O 0.09049 0.8341 0.32582 0.0
O20 O 0.16496 0.85329 0.37031 0.0
C21 C 0.15724 0.79826 0.31402 0.0
O22 O 0.13396 0.79364 0.31266 0.0
C23 C 0.13069 0.86185 0.29526 0.0
O24 O 0.12613 0.83907 0.28939 0.0
O25 O 0.11587 0.82196 0.3545 0.0
C26 C 0.42552 0.87505 0.62414 0.0
O27 O 0.43001 0.89613 0.6348 0.0
O28 O 0.37638 0.92004 0.62967 0.0
Zn29 Zn 0.38777 0.89998 0.60102 0.0
O30 O 0.40946 0.92052 0.57937 0.0
C31 C 0.34614 0.90568 0.57238 0.0
O32 O 0.34814 0.92697 0.58311 0.0
O33 O 0.40712 0.87186 0.61041 0.0
C34 C 0.41513 0.91138 0.55881 0.0
O35 O 0.40675 0.88938 0.55324 0.0
C36 C 0.38897 0.93901 0.63574 0.0
O37 O 0.4096 0.94378 0.6246 0.0
O38 O 0.36043 0.88976 0.57851 0.0
C39 C 0.30823 0.11878 0.8907 0.0
O40 O 0.31565 0.10041 0.87811 0.0
O41 O 0.34019 0.12037 0.83292 0.0
Zn42 Zn 0.3366 0.14911 0.85559 0.0
O43 O 0.31862 0.1733 0.83674 0.0
C44 C 0.38523 0.17051 0.85117 0.0
O45 O 0.38395 0.16048 0.82918 0.0
O46 O 0.31573 0.14014 0.88488 0.0
C47 C 0.32186 0.19589 0.84047 0.0
O48 O 0.33741 0.20388 0.85724 0.0
C49 C 0.34248 0.12429 0.80981 0.0
O50 O 0.34337 0.14662 0.80159 0.0
O51 O 0.36804 0.16636 0.8663 0.0
C52 C 0.13708 0.87195 0.43089 0.0
O53 O 0.11812 0.85673 0.43159 0.0
O54 O 0.08527 0.8694 0.38845 0.0
Zn55 Zn 0.10908 0.89799 0.39518 0.0
O56 O 0.0912 0.92134 0.41541 0.0
C57 C 0.11103 0.9114 0.34255 0.0
O58 O 0.09587 0.89264 0.33935 0.0
O59 O 0.13743 0.88971 0.416 0.0
C60 C 0.08242 0.93995 0.40618 0.0
O61 O 0.08564 0.94487 0.3826 0.0
C62 C 0.06482 0.87455 0.38032 0.0
O63 O 0.06071 0.89724 0.37612 0.0
O64 O 0.12001 0.91562 0.36385 0.0
C65 C 0.3917 0.80334 0.61936 0.0
O66 O 0.37143 0.79745 0.60795 0.0
O67 O 0.34238 0.84477 0.61126 0.0
Zn68 Zn 0.36405 0.8399 0.64103 0.0
O69 O 0.34617 0.81736 0.66412 0.0
C70 C 0.35912 0.87691 0.67744 0.0
O71 O 0.33967 0.86313 0.68201 0.0
O72 O 0.39329 0.82206 0.63299 0.0
C73 C 0.35647 0.81148 0.68398 0.0
O74 O 0.37822 0.82062 0.68877 0.0
C75 C 0.32371 0.85644 0.6144 0.0
O76 O 0.32011 0.86625 0.63606 0.0
O77 O 0.37296 0.87107 0.66 0.0
C78 C 0.36125 0.12446 0.92665 0.0
O79 O 0.37568 0.14294 0.92003 0.0
O80 O 0.41346 0.12606 0.88793 0.0
Zn81 Zn 0.39356 0.096 0.8976 0.0
O82 O 0.41461 0.07706 0.91945 0.0
C83 C 0.38672 0.07827 0.84558 0.0
O84 O 0.39316 0.10019 0.83789 0.0
O85 O 0.36492 0.10353 0.91838 0.0
C86 C 0.42715 0.06084 0.91044 0.0
O87 O 0.42611 0.05634 0.88658 0.0
C88 C 0.43212 0.12454 0.87473 0.0
O89 O 0.43731 0.10346 0.86584 0.0
O90 O 0.38449 0.07415 0.86865 0.0
C91 C 0.10515 0.17936 0.11409 0.0
O92 O 0.12211 0.18119 0.09727 0.0
O93 O 0.15919 0.1444 0.11094 0.0
Zn94 Zn 0.13548 0.14571 0.13946 0.0
O95 O 0.15098 0.16549 0.16666 0.0
C96 C 0.13798 0.09481 0.15382 0.0
O97 O 0.15751 0.09551 0.14029 0.0
O98 O 0.1066 0.1643 0.13167 0.0
C99 C 0.16009 0.15709 0.18614 0.0
O100 O 0.16098 0.13364 0.18893 0.0
C101 C 0.18127 0.14307 0.11622 0.0
O102 O 0.18758 0.14165 0.13956 0.0
O103 O 0.12552 0.11322 0.1545 0.0
C104 C 0.63296 0.37054 0.92971 0.0
O105 O 0.61494 0.35423 0.92838 0.0
O106 O 0.58242 0.36689 0.88835 0.0
Zn107 Zn 0.60496 0.39655 0.89421 0.0
O108 O 0.5863 0.42013 0.9135 0.0
C109 C 0.60558 0.41335 0.84231 0.0
O110 O 0.58661 0.39845 0.83946 0.0
O111 O 0.63291 0.38921 0.91604 0.0
C112 C 0.58075 0.44031 0.90472 0.0
O113 O 0.58753 0.44653 0.88224 0.0
C114 C 0.5606 0.37006 0.88332 0.0
O115 O 0.55383 0.39217 0.8806 0.0
O116 O 0.61672 0.41371 0.86285 0.0
C117 C 0.88458 0.31758 0.12422 0.0
O118 O 0.87654 0.32623 0.10339 0.0
O119 O 0.82915 0.35106 0.12153 0.0
Zn120 Zn 0.85131 0.34837 0.15123 0.0
O121 O 0.83304 0.3318 0.17892 0.0
C122 C 0.85314 0.39937 0.16512 0.0
O123 O 0.83351 0.39959 0.15182 0.0
O124 O 0.8772 0.32546 0.14475 0.0
C125 C 0.82215 0.34208 0.19623 0.0
O126 O 0.82094 0.36564 0.19623 0.0
C127 C 0.80722 0.35495 0.1251 0.0
O128 O 0.79964 0.35806 0.14779 0.0
O129 O 0.86468 0.38031 0.16552 0.0
C130 C 0.85036 0.62622 0.43491 0.0
O131 O 0.86315 0.64423 0.42468 0.0
O132 O 0.90758 0.62294 0.40518 0.0
Zn133 Zn 0.8833 0.5947 0.40998 0.0
O134 O 0.89863 0.56991 0.43063 0.0
C135 C 0.89159 0.56968 0.36573 0.0
O136 O 0.91323 0.57283 0.37507 0.0
O137 O 0.85506 0.60459 0.42994 0.0
C138 C 0.89389 0.54734 0.42814 0.0
O139 O 0.87784 0.53942 0.41186 0.0
C140 C 0.92994 0.62037 0.4076 0.0
O141 O 0.93738 0.59906 0.41324 0.0
O142 O 0.87433 0.57879 0.37704 0.0
C143 C 0.82166 0.61544 0.37368 0.0
O144 O 0.82479 0.59862 0.3571 0.0
O145 O 0.85447 0.62239 0.31547 0.0
Zn146 Zn 0.8455 0.6493 0.33834 0.0
O147 O 0.81957 0.66713 0.32242 0.0
C148 C 0.87689 0.6915 0.33052 0.0
O149 O 0.86405 0.69217 0.31019 0.0
O150 O 0.83035 0.63685 0.36994 0.0
C151 C 0.81241 0.68492 0.33459 0.0
O152 O 0.82231 0.69035 0.3561 0.0
C153 C 0.87186 0.62472 0.30031 0.0
O154 O 0.88549 0.64487 0.30021 0.0
O155 O 0.87302 0.67393 0.34547 0.0
C156 C 0.68526 0.37435 0.8742 0.0
O157 O 0.68994 0.38776 0.85454 0.0
O158 O 0.64666 0.37482 0.81815 0.0
Zn159 Zn 0.65205 0.34718 0.84168 0.0
O160 O 0.67407 0.32503 0.82513 0.0
C161 C 0.6007 0.329 0.84309 0.0
O162 O 0.59554 0.34783 0.82984 0.0
O163 O 0.66891 0.35743 0.87312 0.0
C164 C 0.66612 0.30674 0.81281 0.0
O165 O 0.64291 0.30244 0.81018 0.0
C166 C 0.63692 0.36999 0.7973 0.0
O167 O 0.62988 0.34755 0.79205 0.0
O168 O 0.62211 0.32674 0.85016 0.0
C169 C 0.9277 0.8617 0.89747 0.0
O170 O 0.92713 0.87193 0.91938 0.0
O171 O 0.86317 0.88007 0.91299 0.0
Zn172 Zn 0.88966 0.89235 0.89039 0.0
O173 O 0.90865 0.91797 0.90899 0.0
C174 C 0.85893 0.91502 0.85185 0.0
O175 O 0.83915 0.9066 0.86273 0.0
O176 O 0.91215 0.86675 0.88143 0.0
C177 C 0.92433 0.93117 0.89747 0.0
O178 O 0.92824 0.92699 0.87392 0.0
C179 C 0.85034 0.89562 0.92278 0.0
O180 O 0.85357 0.91836 0.91603 0.0
O181 O 0.87918 0.90968 0.86015 0.0
C182 C 0.80932 0.15172 0.6012 0.0
O183 O 0.81662 0.17319 0.60954 0.0
O184 O 0.87122 0.15768 0.62835 0.0
Zn185 Zn 0.84105 0.1383 0.63862 0.0
O186 O 0.82283 0.15755 0.66275 0.0
C187 C 0.86551 0.10158 0.66633 0.0
O188 O 0.88451 0.11668 0.66511 0.0
O189 O 0.81858 0.13317 0.60999 0.0
C190 C 0.82445 0.15612 0.68614 0.0
O191 O 0.8397 0.14191 0.69617 0.0
C192 C 0.88289 0.17003 0.64467 0.0
O193 O 0.87584 0.16854 0.66781 0.0
O194 O 0.84645 0.10667 0.65522 0.0
C195 C 0.55356 0.14318 0.39021 0.0
O196 O 0.55328 0.13423 0.41273 0.0
O197 O 0.613 0.11941 0.41025 0.0
Zn198 Zn 0.58694 0.1079 0.38618 0.0
O199 O 0.56412 0.08528 0.40455 0.0
C200 C 0.60991 0.07006 0.36112 0.0
O201 O 0.6168 0.06511 0.38368 0.0
O202 O 0.56802 0.13527 0.37447 0.0
C203 C 0.55131 0.06848 0.3942 0.0
O204 O 0.5522 0.06586 0.37006 0.0
C205 C 0.61761 0.10556 0.42819 0.0
O206 O 0.6061 0.08425 0.42988 0.0
O207 O 0.59863 0.08893 0.35735 0.0
C208 C 0.67994 0.8396 0.11668 0.0
O209 O 0.67716 0.81809 0.12685 0.0
O210 O 0.61454 0.82682 0.13788 0.0
Zn211 Zn 0.64274 0.84806 0.15046 0.0
O212 O 0.66099 0.83012 0.17588 0.0
C213 C 0.61419 0.88161 0.17784 0.0
O214 O 0.5973 0.86408 0.17765 0.0
O215 O 0.66614 0.85586 0.12313 0.0
C216 C 0.65748 0.83101 0.19909 0.0
O217 O 0.6404 0.84378 0.20789 0.0
C218 C 0.60411 0.81188 0.1528 0.0
O219 O 0.6111 0.81175 0.17598 0.0
O220 O 0.63368 0.87886 0.16641 0.0
C221 C 0.91281 0.04316 0.63717 0.0
O222 O 0.93351 0.04419 0.62561 0.0
O223 O 0.92727 0.11195 0.61674 0.0
Zn224 Zn 0.90577 0.08308 0.60556 0.0
O225 O 0.92319 0.06459 0.57991 0.0
C226 C 0.87511 0.1096 0.57433 0.0
O227 O 0.89532 0.12192 0.56916 0.0
O228 O 0.89814 0.05929 0.63286 0.0
C229 C 0.91621 0.05956 0.55804 0.0
O230 O 0.89555 0.06661 0.55019 0.0
C231 C 0.94407 0.11928 0.60216 0.0
O232 O 0.94622 0.10836 0.58079 0.0
O233 O 0.87508 0.09301 0.59053 0.0
C234 C 0.61181 0.18105 0.36683 0.0
O235 O 0.62043 0.18104 0.3442 0.0
O236 O 0.64248 0.12734 0.34493 0.0
Zn237 Zn 0.65031 0.15189 0.37164 0.0
O238 O 0.67196 0.17825 0.35683 0.0
C239 C 0.67763 0.11899 0.40288 0.0
O240 O 0.67294 0.10166 0.38671 0.0
O241 O 0.62116 0.16804 0.38311 0.0
C242 C 0.69456 0.17898 0.35957 0.0
O243 O 0.70434 0.16184 0.37209 0.0
C244 C 0.65939 0.11978 0.33187 0.0
O245 O 0.68162 0.12695 0.33718 0.0
O246 O 0.66844 0.13922 0.40025 0.0
C247 C 0.59729 0.94186 0.1458 0.0
O248 O 0.57457 0.93756 0.14014 0.0
O249 O 0.58128 0.87879 0.12076 0.0
Zn250 Zn 0.60174 0.90742 0.10766 0.0
O251 O 0.5811 0.92671 0.08557 0.0
C252 C 0.63229 0.87771 0.0773 0.0
O253 O 0.61627 0.85991 0.08172 0.0
O254 O 0.61289 0.92994 0.13493 0.0
C255 C 0.58273 0.92645 0.06211 0.0
O256 O 0.59828 0.91296 0.05151 0.0
C257 C 0.56684 0.86814 0.10554 0.0
O258 O 0.56694 0.87541 0.0824 0.0
O259 O 0.63011 0.89812 0.08748 0.0
C260 C 0.88555 0.80625 0.85516 0.0
O261 O 0.87897 0.80871 0.83199 0.0
O262 O 0.8544 0.85663 0.83383 0.0
Zn263 Zn 0.84483 0.83191 0.85995 0.0
O264 O 0.82338 0.80554 0.84532 0.0
C265 C 0.80782 0.85685 0.88352 0.0
O266 O 0.80256 0.8624 0.86061 0.0
O267 O 0.87368 0.81603 0.87205 0.0
C268 C 0.81002 0.79199 0.85918 0.0
O269 O 0.81058 0.79529 0.88325 0.0
C270 C 0.84345 0.85663 0.8132 0.0
O271 O 0.82511 0.84108 0.80954 0.0
O272 O 0.82639 0.84544 0.88784 0.0
C273 C 0.39671 0.55214 0.12275 0.0
O274 O 0.41844 0.55492 0.11353 0.0
O275 O 0.40936 0.61842 0.09941 0.0
Zn276 Zn 0.39054 0.5885 0.08724 0.0
O277 O 0.41266 0.57098 0.0653 0.0
C278 C 0.355 0.61585 0.06016 0.0
O279 O 0.36575 0.63563 0.06927 0.0
O280 O 0.38083 0.56581 0.11514 0.0
C281 C 0.41268 0.57245 0.04184 0.0
O282 O 0.39737 0.58587 0.03072 0.0
C283 C 0.41985 0.63185 0.08315 0.0
O284 O 0.41638 0.62669 0.05965 0.0
O285 O 0.36196 0.59537 0.06648 0.0
C286 C 0.10452 0.6932 0.83731 0.0
O287 O 0.10774 0.68657 0.81426 0.0
O288 O 0.12908 0.634 0.82277 0.0
Zn289 Zn 0.14152 0.66094 0.84566 0.0
O290 O 0.16742 0.68034 0.828 0.0
C291 C 0.17118 0.63161 0.87579 0.0
O292 O 0.17356 0.61958 0.85512 0.0
O293 O 0.11639 0.68371 0.8544 0.0
C294 C 0.18383 0.69224 0.83986 0.0
O295 O 0.18295 0.69294 0.86414 0.0
C296 C 0.14384 0.62607 0.80728 0.0
O297 O 0.16599 0.63543 0.80695 0.0
O298 O 0.15705 0.6487 0.87649 0.0
C299 C 0.0895 0.42382 0.64486 0.0
O300 O 0.07103 0.40846 0.64866 0.0
O301 O 0.07539 0.36895 0.60692 0.0
Zn302 Zn 0.09335 0.40006 0.59677 0.0
O303 O 0.07055 0.41768 0.57588 0.0
C304 C 0.13285 0.37602 0.57214 0.0
O305 O 0.12452 0.35582 0.5826 0.0
O306 O 0.10177 0.42225 0.62519 0.0
C307 C 0.06994 0.41665 0.5524 0.0
O308 O 0.08535 0.40397 0.5405 0.0
C309 C 0.06708 0.35544 0.5895 0.0
O310 O 0.07289 0.36102 0.56658 0.0
O311 O 0.12274 0.39549 0.57633 0.0
C312 C 0.1835 0.34512 0.61072 0.0
O313 O 0.17875 0.32328 0.61957 0.0
O314 O 0.12296 0.33185 0.63806 0.0
Zn315 Zn 0.15087 0.35449 0.6484 0.0
O316 O 0.17025 0.33609 0.67213 0.0
C317 C 0.13773 0.38349 0.68889 0.0
O318 O 0.13795 0.36241 0.69995 0.0
O319 O 0.17253 0.36254 0.61963 0.0
C320 C 0.18899 0.34593 0.68204 0.0
O321 O 0.19556 0.36848 0.67662 0.0
C322 C 0.10437 0.32774 0.65131 0.0
O323 O 0.10165 0.34058 0.6714 0.0
O324 O 0.14181 0.38483 0.66576 0.0
C325 C 0.32254 0.64893 0.11116 0.0
O326 O 0.32674 0.67081 0.12014 0.0
O327 O 0.38174 0.66356 0.14244 0.0
Zn328 Zn 0.35334 0.64075 0.15033 0.0
O329 O 0.33087 0.65827 0.17164 0.0
C330 C 0.38073 0.60101 0.17188 0.0
O331 O 0.39986 0.60888 0.15949 0.0
O332 O 0.33379 0.63175 0.1202 0.0
C333 C 0.33107 0.6587 0.19513 0.0
O334 O 0.34755 0.64772 0.20734 0.0
C335 C 0.39481 0.67182 0.16012 0.0
O336 O 0.39066 0.66361 0.1826 0.0
O337 O 0.3613 0.61147 0.1695 0.0
C338 C 0.57016 0.62675 0.61379 0.0
O339 O 0.56236 0.60465 0.61967 0.0
O340 O 0.60804 0.57464 0.6184 0.0
Zn341 Zn 0.60643 0.60032 0.59172 0.0
O342 O 0.58532 0.58667 0.56437 0.0
C343 C 0.65634 0.59524 0.57759 0.0
O344 O 0.65527 0.57703 0.59315 0.0
O345 O 0.59032 0.62998 0.60302 0.0
C346 C 0.59371 0.57855 0.54438 0.0
O347 O 0.61699 0.57853 0.54133 0.0
C348 C 0.6093 0.55274 0.61165 0.0
O349 O 0.60968 0.54767 0.58792 0.0
O350 O 0.63879 0.60873 0.57621 0.0
C351 C 0.93035 0.36045 0.12324 0.0
O352 O 0.92389 0.37093 0.14377 0.0
O353 O 0.89377 0.41597 0.12339 0.0
Zn354 Zn 0.89978 0.39345 0.09518 0.0
O355 O 0.91715 0.41336 0.06955 0.0
C356 C 0.85073 0.3937 0.07887 0.0
O357 O 0.8503 0.41223 0.09397 0.0
O358 O 0.92151 0.36667 0.1027 0.0
C359 C 0.91024 0.43386 0.06327 0.0
O360 O 0.89172 0.44244 0.07445 0.0
C361 C 0.91123 0.42796 0.13353 0.0
O362 O 0.93324 0.42347 0.12737 0.0
O363 O 0.8693 0.38159 0.07814 0.0
C364 C 0.60584 0.69988 0.63469 0.0
O365 O 0.62718 0.70568 0.62553 0.0
O366 O 0.65269 0.65811 0.62248 0.0
Zn367 Zn 0.63011 0.65935 0.65222 0.0
O368 O 0.64841 0.67496 0.6802 0.0
C369 C 0.63582 0.61214 0.67064 0.0
O370 O 0.6579 0.61827 0.66381 0.0
O371 O 0.60226 0.6799 0.64604 0.0
C372 C 0.64124 0.67289 0.70244 0.0
O373 O 0.62041 0.66155 0.70715 0.0
C374 C 0.6752 0.66034 0.62642 0.0
O375 O 0.68298 0.66296 0.64925 0.0
O376 O 0.61944 0.62626 0.66549 0.0
C377 C 0.43102 0.34948 0.40615 0.0
O378 O 0.42377 0.35679 0.42787 0.0
O379 O 0.37495 0.37866 0.41346 0.0
Zn380 Zn 0.40283 0.38728 0.39053 0.0
O381 O 0.42489 0.41299 0.40573 0.0
C382 C 0.37581 0.41264 0.35415 0.0
O383 O 0.36124 0.41559 0.3728 0.0
O384 O 0.42321 0.35919 0.38669 0.0
C385 C 0.42331 0.43559 0.40304 0.0
O386 O 0.40541 0.44379 0.39051 0.0
C387 C 0.36624 0.39476 0.42692 0.0
O388 O 0.37481 0.41725 0.42497 0.0
O389 O 0.39358 0.39975 0.35715 0.0
C390 C 0.07547 0.64899 0.90311 0.0
O391 O 0.07878 0.64 0.92527 0.0
O392 O 0.12911 0.61732 0.91737 0.0
Zn393 Zn 0.1026 0.61005 0.89282 0.0
O394 O 0.07714 0.58872 0.90904 0.0
C395 C 0.13022 0.57983 0.86073 0.0
O396 O 0.14473 0.57866 0.87973 0.0
O397 O 0.08594 0.63992 0.88476 0.0
C398 C 0.07372 0.56614 0.90551 0.0
O399 O 0.08828 0.5549 0.89105 0.0
C400 C 0.13542 0.60082 0.93187 0.0
O401 O 0.12533 0.57889 0.92976 0.0
O402 O 0.11252 0.59307 0.86199 0.0
C403 C 0.39122 0.3292 0.34585 0.0
O404 O 0.39386 0.34518 0.32798 0.0
O405 O 0.34675 0.37136 0.32557 0.0
Zn406 Zn 0.34218 0.34518 0.35121 0.0
O407 O 0.31823 0.32068 0.33757 0.0
C408 C 0.31525 0.37479 0.38459 0.0
O409 O 0.31458 0.39002 0.36603 0.0
O410 O 0.37189 0.32758 0.35827 0.0
C411 C 0.29776 0.32735 0.33141 0.0
O412 O 0.29322 0.35021 0.33364 0.0
C413 C 0.35043 0.36492 0.30339 0.0
O414 O 0.35195 0.34191 0.29826 0.0
O415 O 0.32726 0.35619 0.38258 0.0
C416 C 0.04984 0.08417 0.0092 0.0
C417 C 0.04524 0.07985 0.03444 0.0
C418 C 0.0355 0.07244 0.99114 0.0
C419 C 0.97692 0.03981 0.98143 0.0
H420 H 0.00983 0.00316 0.93225 0.0
C421 C 0.93293 0.95577 0.93541 0.0
C422 C 0.93743 0.95139 0.9103 0.0
C423 C 0.94507 0.97495 0.94764 0.0
C424 C 0.00034 0.01366 0.94551 0.0
H425 H 0.02163 0.0606 0.06062 0.0
H426 H -0.00339 0.0403 0.02917 0.0
H427 H 0.03281 0.03156 0.95892 0.0
H428 H 0.95803 0.9638 0.8782 0.0
H429 H 0.97928 -0.00253 0.89968 0.0
H430 H 0.94453 0.02151 0.96853 0.0
C431 C 0.01122 0.05275 0.02332 0.0
C432 C 0.01349 0.02991 0.96076 0.0
C433 C 0.02567 0.06421 0.04131 0.0
C434 C 0.95426 0.96667 0.89761 0.0
C435 C 0.96645 0.98591 0.90988 0.0
C436 C 0.96377 0.02368 0.96614 0.0
C437 C 0.01616 0.05652 -0.00191 0.0
C438 C 0.00196 0.04253 0.97935 0.0
C439 C 0.96195 0.99023 0.93502 0.0
C440 C 0.97543 0.00987 0.94858 0.0
H441 H 0.06483 0.09614 0.00338 0.0
H442 H 0.0396 0.07567 0.97179 0.0
H443 H 0.96759 0.04965 0.99539 0.0
H444 H 0.9201 0.94431 0.94574 0.0
H445 H 0.94156 0.97751 0.96715 0.0
C446 C 0.31603 0.6793 0.23269 0.0
C447 C 0.31233 0.67099 0.20839 0.0
C448 C 0.29836 0.69162 0.24477 0.0
C449 C 0.24378 0.72447 0.23158 0.0
H450 H 0.23481 0.71918 0.30259 0.0
C451 C 0.16601 0.76566 0.28405 0.0
C452 C 0.17375 0.78161 0.30301 0.0
C453 C 0.18206 0.75061 0.27301 0.0
C454 C 0.23718 0.72074 0.28274 0.0
H455 H 0.28703 0.66811 0.17795 0.0
H456 H 0.25587 0.68851 0.19929 0.0
H457 H 0.26438 0.69533 0.28225 0.0
H458 H 0.20402 0.79385 0.32589 0.0
H459 H 0.23189 0.7671 0.30693 0.0
H460 H 0.2161 0.74948 0.23218 0.0
C461 C 0.27267 0.68648 0.2088 0.0
C462 C 0.25421 0.70727 0.27109 0.0
C463 C 0.29049 0.67464 0.19659 0.0
C464 C 0.19761 0.78182 0.31119 0.0
C465 C 0.21351 0.76645 0.30051 0.0
C466 C 0.22648 0.73756 0.24318 0.0
C467 C 0.27648 0.69544 0.23293 0.0
C468 C 0.25787 0.70913 0.24537 0.0
C469 C 0.20592 0.75096 0.28116 0.0
C470 C 0.22321 0.73595 0.26885 0.0
H471 H 0.33278 0.6768 0.24214 0.0
H472 H 0.3021 0.69857 0.26318 0.0
H473 H 0.24641 0.72683 0.21186 0.0
H474 H 0.14771 0.76518 0.27739 0.0
H475 H 0.17588 0.73872 0.25811 0.0
C476 C 0.43357 0.91702 0.51693 0.0
C477 C 0.43041 0.92548 0.54115 0.0
C478 C 0.4475 0.93075 0.50001 0.0
C479 C 0.49519 0.979 0.4962 0.0
H480 H 0.46908 0.99133 0.43121 0.0
C481 C 0.53443 0.05558 0.43508 0.0
C482 C 0.53677 0.05125 0.40962 0.0
C483 C 0.52185 0.03884 0.45013 0.0
C484 C 0.47677 0.98775 0.44914 0.0
H485 H 0.43957 0.95473 0.5668 0.0
H486 H 0.46394 0.97863 0.53727 0.0
H487 H 0.44684 0.96396 0.4596 0.0
H488 H 0.52749 0.02616 0.37983 0.0
H489 H 0.50561 0.99664 0.40631 0.0
H490 H 0.52505 0.00277 0.48592 0.0
C491 C 0.45573 0.96135 0.53141 0.0
C492 C 0.46404 0.97212 0.46536 0.0
C493 C 0.44167 0.94775 0.54825 0.0
C494 C 0.52591 0.03 0.3994 0.0
C495 C 0.51336 0.01314 0.41453 0.0
C496 C 0.50795 0.99449 0.47997 0.0
C497 C 0.45867 0.95304 0.50712 0.0
C498 C 0.47296 0.96797 0.48919 0.0
C499 C 0.51143 0.01731 0.44009 0.0
C500 C 0.49866 -0.00061 0.45645 0.0
H501 H 0.42509 0.89992 0.51093 0.0
H502 H 0.44964 0.92389 0.48142 0.0
H503 H 0.50264 0.97575 0.51432 0.0
H504 H 0.54244 0.07188 0.4435 0.0
H505 H 0.52023 0.04282 0.46966 0.0
C506 C 0.28915 0.20426 0.81085 0.0
C507 C 0.30821 0.21293 0.826 0.0
C508 C 0.2762 0.22025 0.79709 0.0
C509 C 0.28055 0.27991 0.76854 0.0
H510 H 0.21121 0.27149 0.76665 0.0
C511 C 0.22216 0.34342 0.71293 0.0
C512 C 0.20289 0.33216 0.69975 0.0
C513 C 0.23505 0.33027 0.72987 0.0
C514 C 0.23057 0.27395 0.76681 0.0
H515 H 0.32874 0.24512 0.83854 0.0
H516 H 0.30611 0.27311 0.8142 0.0
H517 H 0.23372 0.24585 0.79353 0.0
H518 H 0.18218 0.29825 0.69377 0.0
H519 H 0.20487 0.27529 0.72284 0.0
H520 H 0.27747 0.30759 0.74133 0.0
C521 C 0.30126 0.25392 0.81307 0.0
C522 C 0.24343 0.25932 0.78225 0.0
C523 C 0.31411 0.23792 0.82706 0.0
C524 C 0.19684 0.30751 0.70374 0.0
C525 C 0.20975 0.29437 0.72055 0.0
C526 C 0.26769 0.29448 0.75295 0.0
C527 C 0.28215 0.24521 0.79803 0.0
C528 C 0.26854 0.26193 0.783 0.0
C529 C 0.22892 0.30561 0.73389 0.0
C530 C 0.24257 0.2914 0.75165 0.0
H531 H 0.28416 0.18511 0.80963 0.0
H532 H 0.26173 0.21304 0.78539 0.0
H533 H 0.29993 0.28215 0.76865 0.0
H534 H 0.2272 0.36243 0.7103 0.0
H535 H 0.2496 0.33948 0.74003 0.0
C536 C 0.05054 0.96936 0.4098 0.0
C537 C 0.06643 0.95417 0.42122 0.0
C538 C 0.03383 0.98104 0.4239 0.0
C539 C 0.00332 0.97671 0.48462 0.0
H540 H 0.98575 0.04161 0.46925 0.0
C541 C 0.95103 0.03442 0.55136 0.0
C542 C 0.93179 0.04643 0.54148 0.0
C543 C 0.96637 0.02261 0.53582 0.0
C544 C 0.99033 0.02338 0.47353 0.0
H545 H 0.0781 0.94014 0.45638 0.0
H546 H 0.04955 0.96116 0.48107 0.0
H547 H 0.01583 0.02299 0.44406 0.0
H548 H 0.91343 0.05542 0.50766 0.0
H549 H 0.94065 0.03492 0.48036 0.0
H550 H 0.97829 0.97745 0.51452 0.0
C551 C 0.0494 0.96346 0.46117 0.0
C552 C 0.00752 0.0127 0.45913 0.0
C553 C 0.0659 0.95156 0.44706 0.0
C554 C 0.92809 0.04626 0.51576 0.0
C555 C 0.94369 0.03468 0.50016 0.0
C556 C 0.98637 0.98749 0.49913 0.0
C557 C 0.03286 0.97796 0.44972 0.0
C558 C 0.01434 0.9893 0.46464 0.0
C559 C 0.96295 0.0228 0.5101 0.0
C560 C 0.97986 0.01096 0.49381 0.0
H561 H 0.05045 0.9716 0.38989 0.0
H562 H 0.0212 0.99188 0.41445 0.0
H563 H 0.0077 0.95845 0.48901 0.0
H564 H 0.9543 0.03418 0.57112 0.0
H565 H 0.98124 0.01373 0.5439 0.0
C566 C 0.32264 0.78214 0.69486 0.0
C567 C 0.34349 0.79572 0.70205 0.0
C568 C 0.30948 0.76822 0.71213 0.0
C569 C 0.29447 0.76639 0.77704 0.0
H570 H 0.26653 0.7026 0.76073 0.0
C571 C 0.22428 0.71432 0.83926 0.0
C572 C 0.20455 0.70351 0.82641 0.0
C573 C 0.24436 0.72381 0.82632 0.0
C574 C 0.27417 0.72042 0.76552 0.0
H575 H 0.36725 0.8051 0.7328 0.0
H576 H 0.34383 0.78091 0.76323 0.0
H577 H 0.29701 0.72184 0.73373 0.0
H578 H 0.19019 0.69454 0.79 0.0
H579 H 0.22488 0.71142 0.76755 0.0
H580 H 0.27084 0.76543 0.80823 0.0
C581 C 0.33785 0.78104 0.74416 0.0
C582 C 0.29165 0.73135 0.75015 0.0
C583 C 0.35123 0.79476 0.72676 0.0
C584 C 0.20514 0.70264 0.80045 0.0
C585 C 0.22513 0.71211 0.78759 0.0
C586 C 0.27686 0.75549 0.79239 0.0
C587 C 0.31679 0.76779 0.73698 0.0
C588 C 0.30142 0.7547 0.75538 0.0
C589 C 0.24502 0.7226 0.80036 0.0
C590 C 0.26601 0.73272 0.78631 0.0
H591 H 0.3163 0.78248 0.67592 0.0
H592 H 0.29313 0.75841 0.70619 0.0
H593 H 0.30165 0.7845 0.78136 0.0
H594 H 0.22436 0.71516 0.85929 0.0
H595 H 0.25948 0.73176 0.83663 0.0
C596 C 0.44319 0.05096 0.95225 0.0
C597 C 0.44302 0.04741 0.92649 0.0
C598 C 0.45836 0.0383 0.96733 0.0
C599 C 0.51385 0.00627 0.96573 0.0
H600 H 0.48963 0.97634 0.02635 0.0
C601 C 0.56744 0.9392 0.02098 0.0
C602 C 0.56696 0.94085 0.04691 0.0
C603 C 0.55241 0.95267 0.00658 0.0
C604 C 0.49674 0.98486 0.00964 0.0
H605 H 0.45859 0.02778 0.89635 0.0
H606 H 0.48501 0.0057 0.9227 0.0
H607 H 0.46313 -0.0008 0.00071 0.0
H608 H 0.55048 0.95805 0.07812 0.0
H609 H 0.5245 0.98183 0.05295 0.0
H610 H 0.54747 0.99206 0.97464 0.0
C611 C 0.47355 0.01841 0.93118 0.0
C612 C 0.48157 -0.00209 0.99497 0.0
C613 C 0.45831 0.03096 0.91613 0.0
C614 C 0.5512 0.9563 0.05816 0.0
C615 C 0.53622 0.96983 0.04376 0.0
C616 C 0.52905 0.99331 0.98043 0.0
C617 C 0.47374 0.02197 0.95692 0.0
C618 C 0.48995 0.00862 0.9728 0.0
C619 C 0.53665 0.96814 0.01781 0.0
C620 C 0.52063 0.98235 0.00248 0.0
H621 H 0.43162 0.06353 0.96079 0.0
H622 H 0.4583 0.04154 0.9871 0.0
H623 H 0.52088 0.01466 0.94891 0.0
H624 H 0.57931 0.92737 0.01175 0.0
H625 H 0.55291 0.95069 0.98665 0.0
C626 C 0.28376 0.28499 0.32081 0.0
C627 C 0.27961 0.30972 0.32116 0.0
C628 C 0.26721 0.26842 0.30988 0.0
C629 C 0.223 0.26531 0.26094 0.0
H630 H 0.20508 0.20184 0.28772 0.0
C631 C 0.16305 0.19777 0.20568 0.0
C632 C 0.16992 0.17386 0.2052 0.0
C633 C 0.17315 0.21419 0.22279 0.0
C634 C 0.21006 0.21944 0.27995 0.0
H635 H 0.2545 0.33642 0.3112 0.0
H636 H 0.22568 0.3074 0.29185 0.0
H637 H 0.22882 0.23116 0.31284 0.0
H638 H 0.19215 0.14807 0.22262 0.0
H639 H 0.21057 0.17702 0.25201 0.0
H640 H 0.20532 0.25353 0.22775 0.0
C641 C 0.24179 0.30093 0.29998 0.0
C642 C 0.22353 0.23621 0.29435 0.0
C643 C 0.25826 0.31749 0.31107 0.0
C644 C 0.18656 0.16643 0.22261 0.0
C645 C 0.19696 0.18297 0.23955 0.0
C646 C 0.20976 0.24854 0.24649 0.0
C647 C 0.24631 0.27631 0.29897 0.0
C648 C 0.2303 0.2592 0.28484 0.0
C649 C 0.19064 0.20714 0.23953 0.0
C650 C 0.20332 0.22533 0.25572 0.0
H651 H 0.3 0.27844 0.32859 0.0
H652 H 0.27122 0.24957 0.30912 0.0
H653 H 0.22835 0.28277 0.25301 0.0
H654 H 0.14993 0.20389 0.19273 0.0
H655 H 0.16747 0.23251 0.22268 0.0
C656 C 0.44426 0.54271 0.03879 0.0
C657 C 0.43046 0.55987 0.02737 0.0
C658 C 0.46141 0.53108 0.02531 0.0
C659 C 0.47894 0.51667 0.96137 0.0
H660 H 0.53898 0.50271 0.99267 0.0
C661 C 0.55605 0.47619 0.90796 0.0
C662 C 0.56562 0.45603 0.91914 0.0
C663 C 0.54067 0.49032 0.92115 0.0
C664 C 0.52224 0.50643 0.98377 0.0
H665 H 0.42388 0.57844 0.99294 0.0
H666 H 0.45421 0.5585 0.96949 0.0
H667 H 0.50978 0.52484 0.01556 0.0
H668 H 0.56713 0.43525 0.95308 0.0
H669 H 0.54032 0.46008 0.97615 0.0
H670 H 0.49157 0.49836 0.92953 0.0
C671 C 0.45145 0.55367 0.98875 0.0
C672 C 0.50549 0.51901 -0.00314 0.0
C673 C 0.43413 0.56517 0.00219 0.0
C674 C 0.55999 0.45064 0.94395 0.0
C675 C 0.54477 0.46491 0.9572 0.0
C676 C 0.49579 0.50429 0.94822 0.0
C677 C 0.46529 0.5365 0.00016 0.0
C678 C 0.48353 0.52405 0.9859 0.0
C679 C 0.53475 0.48469 0.94581 0.0
C680 C 0.51749 0.49887 0.95938 0.0
H681 H 0.44174 0.53813 0.05815 0.0
H682 H 0.47142 0.51761 0.03456 0.0
H683 H 0.46207 0.51993 0.9525 0.0
H684 H 0.56009 0.48084 0.88888 0.0
H685 H 0.53334 0.50564 0.91204 0.0
C686 C 0.79149 0.33514 0.22949 0.0
C687 C 0.8112 0.32736 0.21632 0.0
C688 C 0.7805 0.32037 0.24768 0.0
C689 C 0.77543 0.25618 0.26719 0.0
H690 H 0.74474 0.28189 0.32502 0.0
C691 C 0.73421 0.19506 0.34358 0.0
C692 C 0.70974 0.19809 0.34741 0.0
C693 C 0.74818 0.21223 0.33025 0.0
C694 C 0.75333 0.27457 0.30894 0.0
H695 H 0.83583 0.2989 0.21262 0.0
H696 H 0.8175 0.2737 0.24504 0.0
H697 H 0.76688 0.30945 0.29664 0.0
H698 H 0.68095 0.22196 0.34152 0.0
H699 H 0.70562 0.25221 0.31848 0.0
H700 H 0.76218 0.22131 0.27979 0.0
C701 C 0.80975 0.29062 0.24073 0.0
C702 C 0.76584 0.29028 0.29261 0.0
C703 C 0.82036 0.3051 0.22224 0.0
C704 C 0.69974 0.2191 0.33867 0.0
C705 C 0.71383 0.23646 0.32568 0.0
C706 C 0.76333 0.24051 0.28371 0.0
C707 C 0.78936 0.2978 0.25332 0.0
C708 C 0.77688 0.28127 0.27141 0.0
C709 C 0.738 0.23287 0.32093 0.0
C710 C 0.75203 0.24959 0.30457 0.0
H711 H 0.78411 0.35226 0.22519 0.0
H712 H 0.76467 0.32637 0.25676 0.0
H713 H 0.78314 0.24858 0.25078 0.0
H714 H 0.74239 0.17905 0.35015 0.0
H715 H 0.76685 0.2092 0.32683 0.0
C716 C 0.03857 0.44659 0.55037 0.0
C717 C 0.051 0.42844 0.53887 0.0
C718 C 0.01993 0.45711 0.5381 0.0
C719 C 0.99388 0.46514 0.4758 0.0
H720 H 0.93998 0.48521 0.51423 0.0
C721 C 0.91151 0.50726 0.43236 0.0
C722 C 0.908 0.53031 0.44196 0.0
C723 C 0.92693 0.49212 0.44427 0.0
C724 C 0.95489 0.47957 0.50332 0.0
H725 H 0.05371 0.40697 0.50557 0.0
H726 H 0.02061 0.42482 0.48436 0.0
H727 H 0.97124 0.46363 0.53451 0.0
H728 H 0.91686 0.55527 0.47195 0.0
H729 H 0.94329 0.52851 0.49312 0.0
H730 H 0.97717 0.48098 0.44457 0.0
C731 C 0.02561 0.43137 0.50263 0.0
C732 C 0.97291 0.46742 0.51491 0.0
C733 C 0.04454 0.42108 0.5148 0.0
C734 C 0.91933 0.5376 0.46415 0.0
C735 C 0.93433 0.52229 0.4763 0.0
C736 C 0.97564 0.47696 0.46416 0.0
C737 C 0.01302 0.44945 0.51419 0.0
C738 C 0.99291 0.46055 0.50141 0.0
C739 C 0.93858 0.49964 0.46621 0.0
C740 C 0.95628 0.48468 0.47794 0.0
H741 H 0.04331 0.45276 0.56886 0.0
H742 H 0.01109 0.47142 0.54735 0.0
H743 H 0.00912 0.4604 0.46487 0.0
H744 H 0.90307 0.50128 0.41519 0.0
H745 H 0.92998 0.47467 0.43624 0.0
C746 C 0.79177 0.72352 0.33336 0.0
C747 C 0.79418 0.70009 0.32418 0.0
C748 C 0.77543 0.73842 0.32265 0.0
C749 C 0.72077 0.73881 0.28603 0.0
H750 H 0.74688 0.8006 0.26109 0.0
C751 C 0.66418 0.81089 0.23972 0.0
C752 C 0.67234 0.81734 0.21589 0.0
C753 C 0.67814 0.79731 0.25525 0.0
C754 C 0.73937 0.78348 0.26815 0.0
H755 H 0.78087 0.67352 0.29725 0.0
H756 H 0.75192 0.69953 0.27881 0.0
H757 H 0.77251 0.77483 0.28481 0.0
H758 H 0.7016 0.81521 0.18977 0.0
H759 H 0.72621 0.79203 0.21719 0.0
H760 H 0.68765 0.74746 0.26915 0.0
C761 C 0.76281 0.70632 0.29418 0.0
C762 C 0.75393 0.76884 0.28176 0.0
C763 C 0.77945 0.69155 0.30461 0.0
C764 C 0.69484 0.8104 0.20802 0.0
C765 C 0.70896 0.79728 0.2237 0.0
C766 C 0.70607 0.75367 0.27278 0.0
C767 C 0.76093 0.72998 0.3029 0.0
C768 C 0.74486 0.74623 0.29043 0.0
C769 C 0.70066 0.79051 0.24735 0.0
C770 C 0.71541 0.7759 0.26338 0.0
H771 H 0.80292 0.73057 0.34842 0.0
H772 H 0.7742 0.7566 0.32968 0.0
H773 H 0.71342 0.72146 0.29264 0.0
H774 H 0.64685 0.81595 0.24618 0.0
H775 H 0.67146 0.79226 0.27347 0.0
C776 C 0.81513 0.17594 0.7263 0.0
C777 C 0.80877 0.17005 0.70178 0.0
C778 C 0.80025 0.18956 0.74078 0.0
C779 C 0.73869 0.20399 0.74914 0.0
H780 H 0.76306 0.26647 0.77369 0.0
C781 C 0.67537 0.27461 0.78266 0.0
C782 C 0.68284 0.29018 0.80199 0.0
C783 C 0.6912 0.25893 0.77235 0.0
C784 C 0.75603 0.24888 0.76746 0.0
H785 H 0.78177 0.17322 0.67331 0.0
H786 H 0.75552 0.19643 0.69889 0.0
H787 H 0.79015 0.24009 0.75308 0.0
H788 H 0.71248 0.30132 0.82612 0.0
H789 H 0.73987 0.2733 0.80882 0.0
H790 H 0.70471 0.21231 0.76373 0.0
C791 C 0.77209 0.19074 0.70674 0.0
C792 C 0.77156 0.23386 0.7556 0.0
C793 C 0.78716 0.17762 0.69212 0.0
C794 C 0.70634 0.28964 0.81104 0.0
C795 C 0.72206 0.27365 0.80103 0.0
C796 C 0.72324 0.21877 0.76139 0.0
C797 C 0.77859 0.19692 0.73109 0.0
C798 C 0.76287 0.21155 0.74595 0.0
C799 C 0.71472 0.25817 0.78147 0.0
C800 C 0.73159 0.24164 0.77023 0.0
H801 H 0.83175 0.17036 0.73412 0.0
H802 H 0.80553 0.1942 0.75956 0.0
H803 H 0.73172 0.18671 0.74197 0.0
H804 H 0.6574 0.27479 0.77521 0.0
H805 H 0.68505 0.2477 0.75694 0.0
C806 C 0.77407 0.76287 0.86189 0.0
C807 C 0.79325 0.77352 0.84808 0.0
C808 C 0.75721 0.74674 0.85063 0.0
C809 C 0.7472 0.70806 0.79558 0.0
H810 H 0.68102 0.72479 0.80036 0.0
C811 C 0.68082 0.69008 0.71736 0.0
C812 C 0.6573 0.68128 0.72274 0.0
C813 C 0.69659 0.69698 0.73634 0.0
C814 C 0.69933 0.71954 0.79924 0.0
H815 H 0.81039 0.77496 0.81205 0.0
H816 H 0.78113 0.74685 0.79252 0.0
H817 H 0.71109 0.74413 0.82795 0.0
H818 H 0.63177 0.67306 0.75225 0.0
H819 H 0.65952 0.68558 0.78564 0.0
H820 H 0.73569 0.6843 0.76617 0.0
C821 C 0.77911 0.75084 0.81201 0.0
C822 C 0.71651 0.73057 0.81503 0.0
C823 C 0.79576 0.76711 0.82313 0.0
C824 C 0.64979 0.6798 0.74756 0.0
C825 C 0.66561 0.68693 0.76663 0.0
C826 C 0.73007 0.69707 0.77985 0.0
C827 C 0.7595 0.74076 0.82553 0.0
C828 C 0.74075 0.7256 0.81264 0.0
C829 C 0.68922 0.69535 0.76115 0.0
C830 C 0.70617 0.70343 0.78088 0.0
H831 H 0.7717 0.76752 0.88117 0.0
H832 H 0.74226 0.73915 0.86144 0.0
H833 H 0.76571 0.70361 0.79369 0.0
H834 H 0.68719 0.69147 0.69845 0.0
H835 H 0.71454 0.7039 0.73155 0.0
C836 C 0.43626 0.47568 0.42118 0.0
C837 C 0.44174 0.4524 0.41388 0.0
C838 C 0.45364 0.49104 0.43266 0.0
C839 C 0.51138 0.48859 0.46611 0.0
H840 H 0.51285 0.55834 0.4596 0.0
C841 C 0.58601 0.55118 0.50831 0.0
C842 C 0.57744 0.56741 0.52566 0.0
C843 C 0.57024 0.53894 0.49198 0.0
C844 C 0.51258 0.53887 0.46145 0.0
H845 H 0.4698 0.42725 0.41141 0.0
H846 H 0.50042 0.45434 0.43018 0.0
H847 H 0.48399 0.53312 0.43541 0.0
H848 H 0.546 0.5846 0.53873 0.0
H849 H 0.51844 0.56341 0.50969 0.0
H850 H 0.54032 0.49443 0.49172 0.0
C851 C 0.48253 0.46051 0.4282 0.0
C852 C 0.496 0.52442 0.4478 0.0
C853 C 0.46504 0.44501 0.4173 0.0
C854 C 0.55302 0.57204 0.52563 0.0
C855 C 0.53732 0.56011 0.50897 0.0
C856 C 0.52819 0.50298 0.47931 0.0
C857 C 0.47694 0.48353 0.43653 0.0
C858 C 0.49509 0.49909 0.45012 0.0
C859 C 0.54576 0.5431 0.49244 0.0
C860 C 0.52879 0.52819 0.47722 0.0
H861 H 0.41835 0.48173 0.41875 0.0
H862 H 0.44856 0.50848 0.43911 0.0
H863 H 0.51086 0.46924 0.46894 0.0
H864 H 0.60475 0.54728 0.50792 0.0
H865 H 0.57706 0.52588 0.47928 0.0
C866 C 0.03534 0.56555 0.92892 0.0
C867 C 0.05346 0.55283 0.91781 0.0
C868 C 0.01657 0.55322 0.94144 0.0
C869 C 0.98643 0.49253 0.95118 0.0
H870 H 0.96978 0.5196 0.01465 0.0
C871 C 0.94085 0.43716 0.02972 0.0
C872 C 0.92306 0.44778 0.04362 0.0
C873 C 0.95362 0.45043 0.01165 0.0
C874 C 0.97392 0.51203 -0.00322 0.0
H875 H 0.06588 0.51725 0.91053 0.0
H876 H 0.0334 0.49567 0.9331 0.0
H877 H -0.00173 0.54192 0.98793 0.0
H878 H 0.90424 0.48042 0.0491 0.0
H879 H 0.92684 0.50376 0.01755 0.0
H880 H 0.96265 0.46217 0.96065 0.0
C881 C 0.03345 0.51515 0.93171 0.0
C882 C 0.99023 0.52481 0.98145 0.0
C883 C 0.05215 0.5275 0.91894 0.0
C884 C 0.91793 0.4718 0.03875 0.0
C885 C 0.93085 0.48515 0.02076 0.0
C886 C 0.97021 0.47967 0.96662 0.0
C887 C 0.01563 0.52792 0.94336 0.0
C888 C -0.00308 0.51506 0.95863 0.0
C889 C 0.94895 0.47463 0.00723 0.0
C890 C 0.96409 0.48917 0.98971 0.0
H891 H 0.03569 0.58509 0.92805 0.0
H892 H 0.00287 0.56355 0.9498 0.0
H893 H 0.99093 0.48474 0.93353 0.0
H894 H 0.94514 0.41864 0.03296 0.0
H895 H 0.96769 0.44198 0.0017 0.0
C896 C 0.10535 0.0125 0.13224 0.0
C897 C 0.09032 0.03079 0.13889 0.0
C898 C 0.10963 0.9939 0.14877 0.0
C899 C 0.08498 0.96168 0.20367 0.0
H900 H 0.15015 0.94274 0.21172 0.0
C901 C 0.10704 0.87789 0.26054 0.0
C902 C 0.12646 0.8808 0.27693 0.0
C903 C 0.10285 0.89574 0.2431 0.0
C904 C 0.13187 0.94783 0.20971 0.0
H905 H 0.06744 0.04379 0.16762 0.0
H906 H 0.07392 0.01052 0.19616 0.0
H907 H 0.14181 0.97498 0.18284 0.0
H908 H 0.15727 0.90408 0.28751 0.0
H909 H 0.15047 0.93502 0.25642 0.0
H910 H 0.07505 0.93463 0.23063 0.0
C911 C 0.0829 0.01087 0.17843 0.0
C912 C 0.12705 0.96617 0.19301 0.0
C913 C 0.07922 0.02994 0.16217 0.0
C914 C 0.14205 0.90155 0.27517 0.0
C915 C 0.13825 0.91912 0.25725 0.0
C916 C 0.08976 0.94316 0.22016 0.0
C917 C 0.09852 0.99289 0.1721 0.0
C918 C 0.10355 0.97333 0.18982 0.0
C919 C 0.11833 0.91664 0.24132 0.0
C920 C 0.11327 0.93606 0.22343 0.0
H921 H 0.11413 0.01278 0.11436 0.0
H922 H 0.12146 0.98015 0.14317 0.0
H923 H 0.06667 0.96667 0.20154 0.0
H924 H 0.09484 0.86195 0.26147 0.0
H925 H 0.08757 0.8931 0.23086 0.0
C926 C 0.33406 0.88426 0.53321 0.0
C927 C 0.3295 0.90146 0.55141 0.0
C928 C 0.31908 0.88121 0.51261 0.0
C929 C 0.2716 0.91107 0.47755 0.0
H930 H 0.25906 0.84672 0.45072 0.0
C931 C 0.21485 0.89456 0.38916 0.0
C932 C 0.19904 0.87388 0.38876 0.0
C933 C 0.2318 0.89789 0.4081 0.0
C934 C 0.26222 0.86481 0.45803 0.0
H935 H 0.30574 0.92891 0.56241 0.0
H936 H 0.27917 0.92318 0.52693 0.0
H937 H 0.28563 0.85267 0.486 0.0
H938 H 0.1889 0.84024 0.40761 0.0
H939 H 0.21831 0.84598 0.44046 0.0
H940 H 0.24715 0.92299 0.45043 0.0
C941 C 0.29456 0.91234 0.52816 0.0
C942 C 0.27781 0.8683 0.47809 0.0
C943 C 0.30968 0.91552 0.54865 0.0
C944 C 0.20072 0.85647 0.40747 0.0
C945 C 0.21784 0.85964 0.42617 0.0
C946 C 0.25582 0.90755 0.45764 0.0
C947 C 0.29902 0.89511 0.50985 0.0
C948 C 0.2827 0.89148 0.48817 0.0
C949 C 0.23346 0.88051 0.42692 0.0
C950 C 0.25088 0.88436 0.44763 0.0
H951 H 0.34945 0.87341 0.53468 0.0
H952 H 0.32342 0.86811 0.49873 0.0
H953 H 0.27512 0.92925 0.48452 0.0
H954 H 0.21413 0.90818 0.37486 0.0
H955 H 0.24381 0.91398 0.40778 0.0
C956 C 0.33027 0.08236 0.79541 0.0
C957 C 0.34384 0.10425 0.79207 0.0
C958 C 0.3304 0.0642 0.77738 0.0
C959 C 0.35274 0.05336 0.71233 0.0
H960 H 0.34183 0.9862 0.73114 0.0
C961 C 0.39457 0.97713 0.66017 0.0
C962 C 0.37998 0.95659 0.65361 0.0
C963 C 0.38601 0.99461 0.67584 0.0
C964 C 0.34495 0.0049 0.72569 0.0
H965 H 0.36895 0.12406 0.76804 0.0
H966 H 0.37111 0.09203 0.73797 0.0
H967 H 0.33598 0.01759 0.76153 0.0
H968 H 0.34495 0.93818 0.65866 0.0
H969 H 0.33019 0.96866 0.68684 0.0
H970 H 0.36375 0.04024 0.67712 0.0
C971 C 0.35891 0.08905 0.75334 0.0
C972 C 0.3413 0.02308 0.74304 0.0
C973 C 0.35806 0.10744 0.77087 0.0
C974 C 0.35667 0.95376 0.66345 0.0
C975 C 0.34819 0.97119 0.67949 0.0
C976 C 0.35732 0.03519 0.69544 0.0
C977 C 0.34475 0.06723 0.75597 0.0
C978 C 0.34586 0.04767 0.73687 0.0
C979 C 0.36272 0.99191 0.68555 0.0
C980 C 0.3542 0.0108 0.7022 0.0
H981 H 0.31897 0.07959 0.81158 0.0
H982 H 0.31895 0.048 0.78023 0.0
H983 H 0.35517 0.07188 0.7061 0.0
H984 H 0.41264 0.97989 0.65305 0.0
H985 H 0.39774 0.01021 0.68058 0.0
C986 C 0.28417 0.09174 0.91995 0.0
C987 C 0.29016 0.11497 0.91055 0.0
C988 C 0.26696 0.08836 0.93864 0.0
C989 C 0.21432 0.11416 0.96474 0.0
H990 H 0.2306 0.08269 0.02592 0.0
C991 C 0.15022 0.11373 0.04823 0.0
C992 C 0.15024 0.09468 0.06532 0.0
C993 C 0.16723 0.1157 0.02928 0.0
C994 C 0.22534 0.091 0.00881 0.0
H995 H 0.28255 0.15282 0.91316 0.0
H996 H 0.25212 0.14673 0.94523 0.0
H997 H 0.25937 0.08541 0.9922 0.0
H998 H 0.16813 0.06263 0.07583 0.0
H999 H 0.19709 0.06545 0.04254 0.0
H1000 H 0.1799 0.11857 0.98027 0.0
C1001 C 0.26089 0.13122 0.93828 0.0
C1002 C 0.24205 0.09275 0.98956 0.0
C1003 C 0.27839 0.13468 0.92 0.0
C1004 C 0.16775 0.07772 0.06313 0.0
C1005 C 0.18457 0.07948 0.044 0.0
C1006 C 0.1973 0.11172 0.98362 0.0
C1007 C 0.2551 0.10808 0.94784 0.0
C1008 C 0.23684 0.10473 0.96756 0.0
C1009 C 0.18462 0.09852 0.02672 0.0
C1010 C 0.20262 0.10043 0.00617 0.0
H1011 H 0.29297 0.07621 0.91309 0.0
H1012 H 0.26275 0.07033 0.94575 0.0
H1013 H 0.20978 0.1232 0.94775 0.0
H1014 H 0.13699 0.12715 0.0494 0.0
H1015 H 0.16688 0.13108 0.017 0.0
C1016 C 0.117 0.07749 0.19132 0.0
C1017 C 0.13301 0.07481 0.17161 0.0
C1018 C 0.11456 0.06007 0.20999 0.0
C1019 C 0.14562 0.00877 0.23725 0.0
H1020 H 0.08403 0.99452 0.26862 0.0
C1021 C 0.13442 0.94628 0.32279 0.0
C1022 C 0.11437 0.92973 0.32283 0.0
C1023 C 0.13671 0.96447 0.30485 0.0
C1024 C 0.10134 -0.00182 0.25997 0.0
H1025 H 0.15813 0.05112 0.15538 0.0
H1026 H 0.15325 0.02029 0.18741 0.0
H1027 H 0.08767 0.02459 0.23598 0.0
H1028 H 0.08075 0.91951 0.30451 0.0
H1029 H 0.08446 0.95146 0.27366 0.0
H1030 H 0.15913 0.982 0.26114 0.0
C1031 C 0.1432 0.03628 0.18901 0.0
C1032 C 0.10351 0.01562 0.24133 0.0
C1033 C 0.14581 0.05383 0.17045 0.0
C1034 C 0.09654 0.93186 0.3048 0.0
C1035 C 0.09855 0.95036 0.28726 0.0
C1036 C 0.14346 0.99138 0.25599 0.0
C1037 C 0.12783 0.03934 0.20927 0.0
C1038 C 0.12563 0.02103 0.22952 0.0
C1039 C 0.11876 0.96675 0.28689 0.0
C1040 C 0.12126 0.98578 0.26748 0.0
H1041 H 0.10694 0.09349 0.19287 0.0
H1042 H 0.10272 0.06326 0.22533 0.0
H1043 H 0.16304 0.01268 0.22895 0.0
H1044 H 0.14834 0.94514 0.3366 0.0
H1045 H 0.15236 0.97698 0.30528 0.0
C1046 C 0.3067 0.8449 0.57253 0.0
C1047 C 0.30536 0.85797 0.59471 0.0
C1048 C 0.28871 0.84599 0.55455 0.0
C1049 C 0.23843 0.8834 0.53562 0.0
H1050 H 0.21976 0.82751 0.49544 0.0
C1051 C 0.17344 0.88946 0.45315 0.0
C1052 C 0.15684 0.86982 0.44888 0.0
C1053 C 0.19148 0.88793 0.47089 0.0
C1054 C 0.22455 0.84323 0.50669 0.0
H1055 H 0.28394 0.8823 0.61543 0.0
H1056 H 0.25263 0.88379 0.58462 0.0
H1057 H 0.25074 0.82458 0.52676 0.0
H1058 H 0.14621 0.83313 0.4599 0.0
H1059 H 0.1778 0.83032 0.4907 0.0
H1060 H 0.21182 0.90185 0.51613 0.0
C1061 C 0.2677 0.87308 0.58066 0.0
C1062 C 0.24263 0.84165 0.52445 0.0
C1063 C 0.28566 0.87208 0.59851 0.0
C1064 C 0.15879 0.84855 0.46266 0.0
C1065 C 0.17701 0.84691 0.48023 0.0
C1066 C 0.22034 0.88494 0.51798 0.0
C1067 C 0.26897 0.86016 0.55835 0.0
C1068 C 0.24983 0.86173 0.5392 0.0
C1069 C 0.19362 0.86658 0.48458 0.0
C1070 C 0.21308 0.86488 0.50329 0.0
H1071 H 0.32165 0.83387 0.56901 0.0
H1072 H 0.29058 0.8361 0.53746 0.0
H1073 H 0.2436 0.89939 0.5463 0.0
H1074 H 0.17244 0.90615 0.44288 0.0
H1075 H 0.20406 0.90335 0.47342 0.0
C1076 C 0.39008 0.06101 0.80274 0.0
C1077 C 0.38536 0.05763 0.82808 0.0
C1078 C 0.3899 0.04119 0.78663 0.0
C1079 C 0.36795 0.97632 0.78325 0.0
H1080 H 0.40652 0.977 0.72363 0.0
C1081 C 0.3462 0.90782 0.70702 0.0
C1082 C 0.36465 0.89837 0.69314 0.0
C1083 C 0.351 0.927 0.72324 0.0
C1084 C 0.39591 0.97631 0.7404 0.0
H1085 H 0.37765 0.03061 0.85651 0.0
H1086 H 0.3782 0.99633 0.82892 0.0
H1087 H 0.41124 0.01058 0.75273 0.0
H1088 H 0.40261 0.90203 0.68491 0.0
H1089 H 0.41124 0.93544 0.71397 0.0
H1090 H 0.35326 0.94183 0.7716 0.0
C1091 C 0.3811 0.01422 0.82106 0.0
C1092 C 0.39833 0.9958 0.75695 0.0
C1093 C 0.38091 0.03398 0.83701 0.0
C1094 C 0.38804 0.90895 0.69544 0.0
C1095 C 0.39295 0.92811 0.71204 0.0
C1096 C 0.36586 0.95678 0.76703 0.0
C1097 C 0.3853 0.01748 0.79555 0.0
C1098 C 0.38406 0.99625 0.77843 0.0
C1099 C 0.37449 0.93709 0.72648 0.0
C1100 C 0.37924 0.95677 0.74499 0.0
H1101 H 0.394 0.07895 0.79532 0.0
H1102 H 0.393 0.04457 0.76712 0.0
H1103 H 0.3563 0.97596 0.79925 0.0
H1104 H 0.32789 0.90039 0.70534 0.0
H1105 H 0.33611 0.934 0.73318 0.0
C1106 C 0.33583 0.15068 0.95228 0.0
C1107 C 0.3422 0.12754 0.94523 0.0
C1108 C 0.31854 0.15346 0.97064 0.0
C1109 C 0.28838 0.12034 0.02292 0.0
H1110 H 0.24296 0.1701 0.01779 0.0
C1111 C 0.22297 0.13622 0.10248 0.0
C1112 C 0.19982 0.14293 0.09666 0.0
C1113 C 0.24061 0.13578 0.08423 0.0
C1114 C 0.25529 0.1559 0.01946 0.0
H1115 H 0.3352 0.08915 0.95178 0.0
H1116 H 0.30499 0.09394 0.98338 0.0
H1117 H 0.27253 0.16602 0.9853 0.0
H1118 H 0.1774 0.15564 0.06737 0.0
H1119 H 0.20781 0.15388 0.03517 0.0
H1120 H 0.27053 0.10928 0.05625 0.0
C1121 C 0.31358 0.11003 0.97514 0.0
C1122 C 0.27254 0.15381 0.00093 0.0
C1123 C 0.33078 0.10726 0.95679 0.0
C1124 C 0.1949 0.14981 0.07228 0.0
C1125 C 0.21252 0.14916 0.0539 0.0
C1126 C 0.271 0.12223 0.04124 0.0
C1127 C 0.30731 0.13315 0.98244 0.0
C1128 C 0.28926 0.13592 0.00238 0.0
C1129 C 0.23557 0.14183 0.05954 0.0
C1130 C 0.25419 0.14006 0.03986 0.0
H1131 H 0.3443 0.16668 0.94373 0.0
H1132 H 0.31435 0.17155 0.97592 0.0
H1133 H 0.3011 0.10652 0.02487 0.0
H1134 H 0.22751 0.13115 0.12118 0.0
H1135 H 0.25827 0.1308 0.08963 0.0
C1136 C 0.90202 0.28252 0.14507 0.0
C1137 C 0.90075 0.29743 0.12417 0.0
C1138 C 0.91674 0.26309 0.14518 0.0
C1139 C 0.95486 0.22683 0.10324 0.0
H1140 H 0.97971 0.20576 0.16607 0.0
C1141 C 0.03308 0.16406 0.10917 0.0
C1142 C 0.03155 0.14556 0.12697 0.0
C1143 C 0.01657 0.18198 0.10906 0.0
C1144 C 0.97267 0.21115 0.14837 0.0
H1145 H 0.91407 0.30376 0.087 0.0
H1146 H 0.94132 0.27128 0.08777 0.0
H1147 H 0.95249 0.23792 0.16527 0.0
H1148 H 0.01166 0.13146 0.15877 0.0
H1149 H 0.98294 0.1629 0.15877 0.0
H1150 H 0.97612 0.20051 0.08646 0.0
C1151 C 0.93009 0.2736 0.10378 0.0
C1152 C 0.95679 0.22964 0.14784 0.0
C1153 C 0.91464 0.29254 0.10337 0.0
C1154 C 0.0134 0.14559 0.14493 0.0
C1155 C -0.00301 0.16364 0.14495 0.0
C1156 C 0.97106 0.20861 0.10377 0.0
C1157 C 0.93132 0.25841 0.12467 0.0
C1158 C 0.94776 0.23802 0.12524 0.0
C1159 C -0.00178 0.18191 0.12684 0.0
C1160 C 0.98035 0.20071 0.12633 0.0
H1161 H 0.89118 0.28552 0.16127 0.0
H1162 H 0.91628 0.25162 0.16137 0.0
H1163 H 0.94784 0.23189 0.08546 0.0
H1164 H 0.04663 0.16433 0.09484 0.0
H1165 H 0.0182 0.19591 0.09501 0.0
C1166 C 0.52165 0.35181 0.86749 0.0
C1167 C 0.54268 0.34939 0.88122 0.0
C1168 C 0.50437 0.33259 0.86564 0.0
C1169 C 0.4831 0.27442 0.89449 0.0
H1170 H 0.45427 0.26266 0.83001 0.0
C1171 C 0.40442 0.20272 0.87878 0.0
C1172 C 0.40434 0.18954 0.85653 0.0
C1173 C 0.42111 0.22226 0.88261 0.0
C1174 C 0.46222 0.26552 0.84813 0.0
H1175 H 0.56184 0.32522 0.90441 0.0
H1176 H 0.53148 0.29163 0.90144 0.0
H1177 H 0.48378 0.29621 0.83548 0.0
H1178 H 0.42216 0.18627 0.82113 0.0
H1179 H 0.45115 0.22004 0.82782 0.0
H1180 H 0.46194 0.24324 0.90693 0.0
C1181 C 0.52835 0.30838 0.89203 0.0
C1182 C 0.47896 0.28502 0.85135 0.0
C1183 C 0.54588 0.32751 0.89352 0.0
C1184 C 0.42161 0.19605 0.83845 0.0
C1185 C 0.43814 0.21564 0.8422 0.0
C1186 C 0.46629 0.25487 0.89127 0.0
C1187 C 0.50756 0.31055 0.87771 0.0
C1188 C 0.48962 0.28976 0.87456 0.0
C1189 C 0.43807 0.22911 0.86427 0.0
C1190 C 0.45567 0.25012 0.868 0.0
H1191 H 0.51861 0.36852 0.85795 0.0
H1192 H 0.48841 0.33509 0.85483 0.0
H1193 H 0.49086 0.27758 0.91265 0.0
H1194 H 0.39129 0.19826 0.89305 0.0
H1195 H 0.42036 0.23231 0.89974 0.0
C1196 C 0.94035 0.66479 0.40495 0.0
C1197 C 0.9475 0.64101 0.40368 0.0
C1198 C 0.95692 0.68425 0.40085 0.0
C1199 C 0.0216 0.70245 0.39633 0.0
H1200 H -0.00132 0.75312 0.35506 0.0
C1201 C 0.0799 0.79017 0.3764 0.0
C1202 C 0.07735 0.80143 0.35334 0.0
C1203 C 0.06421 0.77079 0.38349 0.0
C1204 C 0.00551 0.73924 0.36652 0.0
H1205 H 0.97763 0.61894 0.39745 0.0
H1206 H 0.00632 0.653 0.38917 0.0
H1207 H 0.9719 0.71886 0.36575 0.0
H1208 H 0.05647 0.80115 0.31955 0.0
H1209 H 0.02993 0.76678 0.3312 0.0
H1210 H 0.05566 0.72224 0.39598 0.0
C1211 C 0.98808 0.6566 0.39396 0.0
C1212 C 0.98995 0.71967 0.373 0.0
C1213 C 0.9716 0.6371 0.39854 0.0
C1214 C 0.05875 0.79301 0.33755 0.0
C1215 C 0.04341 0.77329 0.34437 0.0
C1216 C 0.03729 0.72206 0.38967 0.0
C1217 C 0.98082 0.68039 0.39474 0.0
C1218 C -0.0023 0.70113 0.38813 0.0
C1219 C 0.0459 0.76185 0.36745 0.0
C1220 C 0.02939 0.74083 0.37473 0.0
H1221 H 0.922 0.66838 0.4093 0.0
H1222 H 0.95106 0.70236 0.40256 0.0
H1223 H 0.02814 0.68841 0.40799 0.0
H1224 H 0.094 0.79641 0.38904 0.0
H1225 H 0.0664 0.76297 0.40164 0.0
C1226 C 0.95728 0.33314 0.1458 0.0
C1227 C 0.94889 0.34246 0.12347 0.0
C1228 C 0.97504 0.3164 0.1457 0.0
C1229 C 0.02172 0.29158 0.10506 0.0
H1230 H 0.01688 0.23836 0.15148 0.0
C1231 C 0.0804 0.21009 0.09392 0.0
C1232 C 0.08673 0.19737 0.11514 0.0
C1233 C 0.06399 0.2281 0.09545 0.0
C1234 C 0.0188 0.25315 0.13847 0.0
H1235 H 0.95264 0.34149 0.0835 0.0
H1236 H 0.98291 0.31202 0.0833 0.0
H1237 H 0.98871 0.26969 0.15396 0.0
H1238 H 0.0811 0.19377 0.1547 0.0
H1239 H 0.05376 0.22578 0.15772 0.0
H1240 H 0.05233 0.27563 0.09008 0.0
C1241 C 0.97631 0.31797 0.10097 0.0
C1242 C 0.00246 0.27118 0.13988 0.0
C1243 C 0.95869 0.33473 0.10108 0.0
C1244 C 0.07636 0.20304 0.13792 0.0
C1245 C 0.06047 0.22142 0.13959 0.0
C1246 C 0.03827 0.2737 0.10382 0.0
C1247 C 0.9848 0.30859 0.12326 0.0
C1248 C 0.00334 0.29035 0.12287 0.0
C1249 C 0.05398 0.2343 0.1184 0.0
C1250 C 0.03682 0.25392 0.12022 0.0
H1251 H 0.95014 0.33876 0.16337 0.0
H1252 H 0.98129 0.30982 0.16327 0.0
H1253 H 0.02351 0.30649 0.09212 0.0
H1254 H 0.08802 0.206 0.07608 0.0
H1255 H 0.05906 0.23698 0.07854 0.0
C1256 C 0.58827 0.73605 0.6159 0.0
C1257 C 0.58675 0.71713 0.63321 0.0
C1258 C 0.57047 0.75263 0.61475 0.0
C1259 C 0.52142 0.77698 0.65168 0.0
H1260 H 0.50272 0.80218 0.58811 0.0
C1261 C 0.46016 0.85675 0.6448 0.0
C1262 C 0.4433 0.85642 0.62554 0.0
C1263 C 0.47766 0.8398 0.64549 0.0
C1264 C 0.50753 0.79524 0.60604 0.0
H1265 H 0.56552 0.70092 0.66315 0.0
H1266 H 0.53456 0.7299 0.66129 0.0
H1267 H 0.532 0.77163 0.58986 0.0
H1268 H 0.43191 0.83844 0.59152 0.0
H1269 H 0.46214 0.80874 0.5928 0.0
H1270 H 0.49631 0.79985 0.66782 0.0
C1271 C 0.54947 0.732 0.64855 0.0
C1272 C 0.52464 0.77791 0.60706 0.0
C1273 C 0.56716 0.71527 0.64954 0.0
C1274 C 0.4445 0.839 0.60678 0.0
C1275 C 0.46212 0.82219 0.60732 0.0
C1276 C 0.50424 0.79422 0.65066 0.0
C1277 C 0.55079 0.75082 0.63103 0.0
C1278 C 0.53197 0.76869 0.6299 0.0
C1279 C 0.47883 0.82219 0.62681 0.0
C1280 C 0.49715 0.80373 0.62784 0.0
H1281 H 0.60321 0.73802 0.60316 0.0
H1282 H 0.5724 0.76715 0.60136 0.0
H1283 H 0.5267 0.77047 0.66964 0.0
H1284 H 0.45986 0.87016 0.65936 0.0
H1285 H 0.4905 0.84077 0.66051 0.0
C1286 C 0.90692 0.71255 0.35897 0.0
C1287 C 0.89491 0.71146 0.33614 0.0
C1288 C 0.92365 0.73165 0.36421 0.0
C1289 C 0.96282 0.77887 0.33204 0.0
H1290 H 0.97589 0.80041 0.39924 0.0
C1291 C 0.02984 0.85904 0.35536 0.0
C1292 C 0.04585 0.85565 0.37489 0.0
C1293 C 0.01091 0.84206 0.35071 0.0
C1294 C 0.97252 0.79445 0.3804 0.0
H1295 H 0.89059 0.72998 0.3012 0.0
H1296 H 0.91971 0.76307 0.31027 0.0
H1297 H 0.9425 0.77118 0.39124 0.0
H1298 H 0.05467 0.83205 0.40501 0.0
H1299 H 0.02112 0.80235 0.39716 0.0
H1300 H 0.99266 0.80264 0.32129 0.0
C1301 C 0.91664 0.74904 0.32403 0.0
C1302 C 0.9534 0.77758 0.37575 0.0
C1303 C 0.89977 0.73006 0.31886 0.0
C1304 C 0.04261 0.83496 0.38975 0.0
C1305 C 0.02334 0.81814 0.38539 0.0
C1306 C 0.98166 0.79603 0.33666 0.0
C1307 C 0.92917 0.74993 0.34665 0.0
C1308 C 0.94845 0.76925 0.35153 0.0
C1309 C 0.00732 0.82153 0.36578 0.0
C1310 C 0.98691 0.80376 0.36091 0.0
H1311 H 0.9034 0.69866 0.37283 0.0
H1312 H 0.93263 0.73177 0.38189 0.0
H1313 H 0.96014 0.77261 0.31322 0.0
H1314 H 0.03195 0.87489 0.34365 0.0
H1315 H -0.00123 0.84527 0.3356 0.0
C1316 C 0.45043 0.16438 0.8888 0.0
C1317 C 0.44898 0.14574 0.87119 0.0
C1318 C 0.46731 0.18383 0.88618 0.0
C1319 C 0.50402 0.21685 0.83877 0.0
H1320 H 0.53724 0.24479 0.89589 0.0
C1321 C 0.56097 0.30744 0.83394 0.0
C1322 C 0.58258 0.30889 0.84727 0.0
C1323 C 0.54477 0.28737 0.83659 0.0
C1324 C 0.5283 0.23708 0.87969 0.0
H1325 H 0.46394 0.13272 0.83709 0.0
H1326 H 0.49305 0.16705 0.83211 0.0
H1327 H 0.5098 0.20939 0.9011 0.0
H1328 H 0.60401 0.29061 0.87405 0.0
H1329 H 0.57574 0.25585 0.87885 0.0
H1330 H 0.52284 0.24432 0.81731 0.0
C1331 C 0.4812 0.16664 0.84798 0.0
C1332 C 0.51234 0.21693 0.88273 0.0
C1333 C 0.46461 0.14696 0.85085 0.0
C1334 C 0.58747 0.29008 0.86357 0.0
C1335 C 0.57121 0.27017 0.86639 0.0
C1336 C 0.51999 0.23701 0.83573 0.0
C1337 C 0.48274 0.18534 0.8656 0.0
C1338 C 0.5 0.20656 0.86231 0.0
C1339 C 0.54967 0.26853 0.85292 0.0
C1340 C 0.53238 0.24732 0.85614 0.0
H1341 H 0.4387 0.16379 0.90478 0.0
H1342 H 0.46784 0.19799 0.89999 0.0
H1343 H 0.4946 0.20951 0.82268 0.0
H1344 H 0.5567 0.32162 0.8212 0.0
H1345 H 0.52822 0.28683 0.82616 0.0
C1346 C 0.84362 0.0663 0.68688 0.0
C1347 C 0.86493 0.08074 0.68347 0.0
C1348 C 0.84242 0.04771 0.70434 0.0
C1349 C 0.88094 0.00929 0.74145 0.0
H1350 H 0.82286 0.99627 0.77963 0.0
C1351 C 0.87899 0.94766 0.82638 0.0
C1352 C 0.85836 0.93273 0.83146 0.0
C1353 C 0.87906 0.96466 0.80745 0.0
C1354 C 0.83906 -0.00063 0.76882 0.0
H1355 H 0.90173 0.08691 0.69572 0.0
H1356 H 0.89957 0.05473 0.72644 0.0
H1357 H 0.82469 0.02859 0.74905 0.0
H1358 H 0.82167 0.92365 0.82044 0.0
H1359 H 0.82193 0.95318 0.78662 0.0
H1360 H 0.8954 0.98031 0.76134 0.0
C1361 C 0.88384 0.05751 0.71536 0.0
C1362 C 0.84015 0.01797 0.7513 0.0
C1363 C 0.88508 0.07604 0.69778 0.0
C1364 C 0.83774 0.93509 0.81705 0.0
C1365 C 0.8379 0.95202 0.79776 0.0
C1366 C 0.87983 0.99074 0.75892 0.0
C1367 C 0.86246 0.04315 0.71893 0.0
C1368 C 0.86116 0.02325 0.73747 0.0
C1369 C 0.85859 0.96706 0.79282 0.0
C1370 C 0.85898 0.98566 0.77298 0.0
H1371 H 0.82775 0.0694 0.67614 0.0
H1372 H 0.82584 0.03669 0.70612 0.0
H1373 H 0.89725 0.01245 0.73084 0.0
H1374 H 0.89514 0.94649 0.83728 0.0
H1375 H 0.89514 0.97625 0.80461 0.0
C1376 C 0.64698 0.09531 0.46046 0.0
C1377 C 0.63549 0.11301 0.44721 0.0
C1378 C 0.66365 0.10189 0.47878 0.0
C1379 C 0.70349 0.15309 0.50091 0.0
H1380 H 0.71017 0.11029 0.55675 0.0
C1381 C 0.77955 0.16941 0.57287 0.0
C1382 C 0.78888 0.14905 0.58387 0.0
C1383 C 0.75933 0.16691 0.55763 0.0
C1384 C 0.709 0.12217 0.54096 0.0
H1385 H 0.63217 0.15148 0.4428 0.0
H1386 H 0.66086 0.1631 0.47554 0.0
H1387 H 0.67703 0.10297 0.52836 0.0
H1388 H 0.7841 0.11018 0.58783 0.0
H1389 H 0.75035 0.10551 0.55976 0.0
H1390 H 0.73619 0.17152 0.5126 0.0
C1391 C 0.65735 0.1441 0.47143 0.0
C1392 C 0.68979 0.11805 0.52473 0.0
C1393 C 0.64089 0.13749 0.45271 0.0
C1394 C 0.77766 0.12618 0.57923 0.0
C1395 C 0.7579 0.12359 0.56349 0.0
C1396 C 0.72318 0.1568 0.5167 0.0
C1397 C 0.66892 0.12634 0.48473 0.0
C1398 C 0.68726 0.13294 0.50396 0.0
C1399 C 0.74818 0.14394 0.55274 0.0
C1400 C 0.72649 0.14105 0.53668 0.0
H1401 H 0.64339 0.07631 0.45636 0.0
H1402 H 0.67275 0.0877 0.48795 0.0
H1403 H 0.70184 0.16531 0.48547 0.0
H1404 H 0.78762 0.18735 0.57633 0.0
H1405 H 0.75225 0.1831 0.55013 0.0
C1406 C 0.63283 0.91808 0.19907 0.0
C1407 C 0.61253 0.90247 0.19465 0.0
C1408 C 0.63223 0.93632 0.21678 0.0
C1409 C 0.59074 0.97151 0.25392 0.0
H1410 H 0.64822 0.98626 0.29247 0.0
C1411 C 0.59769 0.05318 0.31981 0.0
C1412 C 0.61159 0.05186 0.34134 0.0
C1413 C 0.59804 0.03519 0.30176 0.0
C1414 C 0.63181 0.98218 0.28228 0.0
H1415 H 0.57546 0.89414 0.20492 0.0
H1416 H 0.5744 0.926 0.23594 0.0
H1417 H 0.64751 0.95393 0.26237 0.0
H1418 H 0.63622 0.03024 0.36123 0.0
H1419 H 0.63595 -0.00174 0.33052 0.0
H1420 H 0.57459 -0.00111 0.27464 0.0
C1421 C 0.59078 0.92426 0.22559 0.0
C1422 C 0.63156 0.96384 0.26459 0.0
C1423 C 0.59139 0.90592 0.20787 0.0
C1424 C 0.62558 0.03196 0.34464 0.0
C1425 C 0.62555 0.01368 0.32684 0.0
C1426 C 0.59084 0.98961 0.27191 0.0
C1427 C 0.61131 0.9395 0.23048 0.0
C1428 C 0.61114 0.95847 0.24994 0.0
C1429 C 0.61176 0.01502 0.30511 0.0
C1430 C 0.61147 0.99538 0.28621 0.0
H1431 H 0.6494 0.91603 0.18915 0.0
H1432 H 0.64821 0.94807 0.21954 0.0
H1433 H 0.57473 0.96802 0.2429 0.0
H1434 H 0.58643 0.06813 0.31686 0.0
H1435 H 0.58763 0.03732 0.2851 0.0
C1436 C 0.81639 0.90446 0.95072 0.0
C1437 C 0.83387 0.88883 0.94333 0.0
C1438 C 0.80175 0.89882 0.97111 0.0
C1439 C 0.77876 0.84792 0.00981 0.0
H1440 H 0.76312 0.89873 0.05504 0.0
C1441 C 0.71428 0.82696 0.09107 0.0
C1442 C 0.6996 0.84512 0.09891 0.0
C1443 C 0.73287 0.83219 0.07428 0.0
C1444 C 0.76672 0.88433 0.04233 0.0
H1445 H 0.84972 0.85499 0.95144 0.0
H1446 H 0.82433 0.84527 0.98726 0.0
H1447 H 0.79055 0.90789 0.02112 0.0
H1448 H 0.69359 0.88323 0.09618 0.0
H1449 H 0.72486 0.89217 0.06605 0.0
H1450 H 0.75395 0.82463 0.02961 0.0
C1451 C 0.82177 0.86177 0.97714 0.0
C1452 C 0.7827 0.88962 0.02293 0.0
C1453 C 0.8363 0.86733 0.95662 0.0
C1454 C 0.70427 0.86871 0.09009 0.0
C1455 C 0.72259 0.87389 0.073 0.0
C1456 C 0.76217 0.84278 0.02865 0.0
C1457 C 0.80441 0.87752 0.98469 0.0
C1458 C 0.78863 0.87155 0.00622 0.0
C1459 C 0.73701 0.85566 0.06453 0.0
C1460 C 0.75569 0.86094 0.04514 0.0
H1461 H 0.81397 0.92106 0.94071 0.0
H1462 H 0.78814 0.91102 0.97605 0.0
H1463 H 0.78318 0.83344 -0.00244 0.0
H1464 H 0.71147 0.80864 0.09792 0.0
H1465 H 0.74399 0.81772 0.06914 0.0
C1466 C 0.92204 0.00454 0.65814 0.0
C1467 C 0.9059 0.02237 0.65333 0.0
C1468 C 0.91528 0.98462 0.67296 0.0
C1469 C 0.86147 0.95378 0.70464 0.0
H1470 H 0.91096 0.92523 0.74293 0.0
C1471 C 0.8379 0.87518 0.77158 0.0
C1472 C 0.85137 0.87369 0.79339 0.0
C1473 C 0.84506 0.8916 0.75302 0.0
C1474 C 0.89679 0.93317 0.73271 0.0
H1475 H 0.86965 0.03263 0.65924 0.0
H1476 H 0.85831 -0.00081 0.68629 0.0
H1477 H 0.92189 0.95719 0.71411 0.0
H1478 H 0.88346 0.88755 0.81241 0.0
H1479 H 0.89514 0.91719 0.78097 0.0
H1480 H 0.8362 0.93147 0.72512 0.0
C1481 C 0.87608 -6e-05 0.67837 0.0
C1482 C 0.90315 0.95126 0.71553 0.0
C1483 C 0.88273 0.01958 0.6632 0.0
C1484 C 0.87246 0.88855 0.79599 0.0
C1485 C 0.87936 0.90534 0.77768 0.0
C1486 C 0.85506 0.9363 0.72241 0.0
C1487 C 0.89232 0.98222 0.68377 0.0
C1488 C 0.8856 0.96194 0.70121 0.0
C1489 C 0.86567 0.90725 0.75597 0.0
C1490 C 0.87261 0.92568 0.73672 0.0
H1491 H 0.93992 0.00586 0.65033 0.0
H1492 H 0.92815 0.97109 0.67572 0.0
H1493 H 0.84729 0.9609 0.69375 0.0
H1494 H 0.82174 0.8637 0.76879 0.0
H1495 H 0.83439 0.89186 0.73633 0.0
C1496 C 0.83277 0.09731 0.56278 0.0
C1497 C 0.85384 0.11177 0.55842 0.0
C1498 C 0.81347 0.09761 0.5464 0.0
C1499 C 0.79028 0.13385 0.49371 0.0
H1500 H 0.74593 0.07777 0.48719 0.0
C1501 C 0.70648 0.13795 0.43316 0.0
C1502 C 0.69653 0.11694 0.42173 0.0
C1503 C 0.72551 0.1369 0.44959 0.0
C1504 C 0.75836 0.09347 0.48828 0.0
H1505 H 0.87125 0.13782 0.53332 0.0
H1506 H 0.83806 0.13813 0.50467 0.0
H1507 H 0.77967 0.07628 0.5149 0.0
H1508 H 0.69876 0.07821 0.41866 0.0
H1509 H 0.73196 0.07619 0.44771 0.0
H1510 H 0.77062 0.15021 0.46539 0.0
C1511 C 0.83585 0.12699 0.52104 0.0
C1512 C 0.77758 0.09284 0.50479 0.0
C1513 C 0.85511 0.12674 0.53747 0.0
C1514 C 0.70592 0.0947 0.42738 0.0
C1515 C 0.7249 0.09359 0.44421 0.0
C1516 C 0.77173 0.13411 0.47652 0.0
C1517 C 0.81459 0.11255 0.52531 0.0
C1518 C 0.79387 0.11307 0.50782 0.0
C1519 C 0.73498 0.11475 0.45564 0.0
C1520 C 0.75529 0.11402 0.47361 0.0
H1521 H 0.83121 0.0855 0.57875 0.0
H1522 H 0.79753 0.08635 0.55071 0.0
H1523 H 0.80177 0.15014 0.4958 0.0
H1524 H 0.69985 0.15548 0.42915 0.0
H1525 H 0.73244 0.15369 0.45776 0.0
C1526 C 0.58739 0.97299 0.17708 0.0
C1527 C 0.60466 0.9614 0.16333 0.0
C1528 C 0.59428 0.99179 0.19327 0.0
C1529 C 0.64486 0.01552 0.23058 0.0
H1530 H 0.61028 0.0739 0.23296 0.0
C1531 C 0.67251 0.09116 0.29956 0.0
C1532 C 0.6542 0.10373 0.31048 0.0
C1533 C 0.66758 0.07569 0.27956 0.0
C1534 C 0.61992 0.05757 0.23293 0.0
H1535 H 0.64267 0.96065 0.15556 0.0
H1536 H 0.65468 0.99328 0.18416 0.0
H1537 H 0.59909 0.04279 0.20261 0.0
H1538 H 0.61662 0.11089 0.30826 0.0
H1539 H 0.60787 0.08383 0.27371 0.0
H1540 H 0.66477 0.02929 0.26167 0.0
C1541 C 0.63584 0.98777 0.18238 0.0
C1542 C 0.61356 0.03981 0.21537 0.0
C1543 C 0.62894 0.9691 0.16602 0.0
C1544 C 0.63106 0.10119 0.30044 0.0
C1545 C 0.62615 0.08585 0.28033 0.0
C1546 C 0.65085 0.03296 0.24854 0.0
C1547 C 0.61857 -0.00074 0.19621 0.0
C1548 C 0.62588 0.01855 0.21414 0.0
C1549 C 0.64419 0.07237 0.26997 0.0
C1550 C 0.63843 0.05425 0.25006 0.0
H1551 H 0.56854 0.96748 0.17544 0.0
H1552 H 0.58061 0.00016 0.2039 0.0
H1553 H 0.65457 -0.00078 0.23015 0.0
H1554 H 0.69065 0.09305 0.30665 0.0
H1555 H 0.68221 0.06637 0.27165 0.0
C1556 C 0.65213 0.85354 0.04487 0.0
C1557 C 0.65095 0.87515 0.05821 0.0
C1558 C 0.6688 0.8517 0.0258 0.0
C1559 C 0.71177 0.88985 0.98614 0.0
H1560 H 0.73358 0.82705 0.96921 0.0
C1561 C 0.77334 0.87748 0.90179 0.0
C1562 C 0.79032 0.85997 0.90348 0.0
C1563 C 0.75601 0.87929 0.92028 0.0
C1564 C 0.72804 0.84486 0.97382 0.0
H1565 H 0.66656 0.91174 0.06213 0.0
H1566 H 0.69632 0.90822 0.0301 0.0
H1567 H 0.70615 0.83056 0.00321 0.0
H1568 H 0.8021 0.83014 0.92532 0.0
H1569 H 0.77211 0.83301 0.95706 0.0
H1570 H 0.73547 0.90439 0.9582 0.0
C1571 C 0.68387 0.89285 0.03342 0.0
C1572 C 0.7117 0.84681 0.99315 0.0
C1573 C 0.66694 0.8948 0.05219 0.0
C1574 C 0.78948 0.84412 0.92371 0.0
C1575 C 0.77204 0.84569 0.94192 0.0
C1576 C 0.72874 0.888 0.96737 0.0
C1577 C 0.68507 0.87129 0.01981 0.0
C1578 C 0.70307 0.86931 -0.00049 0.0
C1579 C 0.75517 0.86345 0.94072 0.0
C1580 C 0.73701 0.86544 0.96077 0.0
H1581 H 0.63987 0.83813 0.04882 0.0
H1582 H 0.66846 0.83497 0.01548 0.0
H1583 H 0.7054 0.9075 0.98988 0.0
H1584 H 0.77342 0.88973 0.88616 0.0
H1585 H 0.74302 0.89282 0.91821 0.0
C1586 C 0.94854 0.83549 0.86758 0.0
C1587 C 0.94725 0.84599 0.89114 0.0
C1588 C 0.96733 0.82104 0.8616 0.0
C1589 C 0.01499 0.78669 0.89134 0.0
H1590 H 0.037 0.7818 0.82368 0.0
C1591 C 0.08986 0.72439 0.86603 0.0
C1592 C 0.08817 0.71232 0.8432 0.0
C1593 C 0.07462 0.74265 0.87157 0.0
C1594 C 0.03084 0.78264 0.84263 0.0
H1595 H 0.96511 0.85021 0.92666 0.0
H1596 H -0.00186 0.82586 0.91605 0.0
H1597 H 0.00718 0.8102 0.83383 0.0
H1598 H 0.06904 0.70971 0.80833 0.0
H1599 H 0.04166 0.74072 0.81837 0.0
H1600 H 0.03839 0.75903 0.90015 0.0
C1601 C 0.98429 0.82794 0.90236 0.0
C1602 C 0.01365 0.799 0.84849 0.0
C1603 C 0.96536 0.8421 0.90843 0.0
C1604 C 0.07088 0.71884 0.82602 0.0
C1605 C 0.05533 0.73682 0.83172 0.0
C1606 C 0.0321 0.77032 0.88548 0.0
C1607 C 0.98546 0.81697 0.87893 0.0
C1608 C 0.00508 0.80088 0.87286 0.0
C1609 C 0.05698 0.74901 0.85459 0.0
C1610 C 0.03993 0.76769 0.86097 0.0
H1611 H 0.93497 0.83829 0.85376 0.0
H1612 H 0.9673 0.81274 0.84348 0.0
H1613 H 0.00883 0.7873 0.9103 0.0
H1614 H 0.10316 0.71991 0.87958 0.0
H1615 H 0.07686 0.75187 0.88915 0.0
C1616 C 0.44583 0.6539 0.1147 0.0
C1617 C 0.43746 0.65161 0.09025 0.0
C1618 C 0.46401 0.67138 0.12073 0.0
C1619 C 0.49521 0.72815 0.09768 0.0
H1620 H 0.54448 0.7109 0.14371 0.0
C1621 C 0.5782 0.79263 0.11927 0.0
C1622 C 0.58535 0.79383 0.1442 0.0
C1623 C 0.56096 0.77488 0.1114 0.0
C1624 C 0.53077 0.71612 0.13096 0.0
H1625 H 0.44118 0.66618 0.05308 0.0
H1626 H 0.47282 0.69648 0.06353 0.0
H1627 H 0.51207 0.68141 0.13339 0.0
H1628 H 0.57992 0.77744 0.18041 0.0
H1629 H 0.54994 0.74693 0.16685 0.0
H1630 H 0.51405 0.76278 0.09511 0.0
C1631 C 0.46529 0.68498 0.07814 0.0
C1632 C 0.51211 0.6992 0.12512 0.0
C1633 C 0.44722 0.6675 0.07211 0.0
C1634 C 0.57492 0.777 0.16104 0.0
C1635 C 0.55789 0.75925 0.15318 0.0
C1636 C 0.514 0.74502 0.1034 0.0
C1637 C 0.4741 0.687 0.10245 0.0
C1638 C 0.49397 0.70507 0.10858 0.0
C1639 C 0.55063 0.75794 0.12829 0.0
C1640 C 0.5318 0.73936 0.12044 0.0
H1641 H 0.43862 0.64198 0.12912 0.0
H1642 H 0.46999 0.67279 0.13976 0.0
H1643 H 0.48136 0.73342 0.08514 0.0
H1644 H 0.58594 0.80534 0.10583 0.0
H1645 H 0.5559 0.77432 0.09205 0.0
C1646 C 0.03985 0.33144 0.61841 0.0
C1647 C 0.04886 0.33556 0.59445 0.0
C1648 C 0.02141 0.31375 0.62263 0.0
C1649 C 0.98907 0.26006 0.59285 0.0
H1650 H 0.94507 0.26829 0.64709 0.0
C1651 C 0.90839 0.19208 0.61267 0.0
C1652 C 0.90273 0.18754 0.63765 0.0
C1653 C 0.92578 0.21024 0.60626 0.0
C1654 C 0.95743 0.26552 0.63208 0.0
H1655 H 0.04541 0.32446 0.55605 0.0
H1656 H 0.01294 0.29431 0.56318 0.0
H1657 H 0.9755 0.30004 0.63792 0.0
H1658 H 0.91162 0.1977 0.67549 0.0
H1659 H 0.94216 0.22882 0.66437 0.0
H1660 H 0.97084 0.22546 0.58709 0.0
C1661 C 0.02045 0.30409 0.57897 0.0
C1662 C 0.97501 0.28377 0.62683 0.0
C1663 C 0.03907 0.32158 0.57482 0.0
C1664 C 0.91534 0.20093 0.65605 0.0
C1665 C 0.9327 0.21898 0.64967 0.0
C1666 C 0.9715 0.24178 0.59815 0.0
C1667 C 0.01131 0.29988 0.60296 0.0
C1668 C 0.9915 0.28109 0.6075 0.0
C1669 C 0.93788 0.22415 0.6247 0.0
C1670 C 0.95576 0.24408 0.61813 0.0
H1671 H 0.04692 0.342 0.63393 0.0
H1672 H 0.01533 0.31086 0.64146 0.0
H1673 H 0.00133 0.25712 0.57783 0.0
H1674 H 0.89901 0.18203 0.59806 0.0
H1675 H 0.92923 0.21378 0.58684 0.0
C1676 C 0.05081 0.67361 0.8753 0.0
C1677 C 0.05711 0.66665 0.89928 0.0
C1678 C 0.03194 0.68855 0.87162 0.0
C1679 C 0.99231 0.72957 0.9049 0.0
H1680 H 0.95431 0.72045 0.84531 0.0
C1681 C 0.90949 0.78425 0.88606 0.0
C1682 C 0.90521 0.79078 0.86141 0.0
C1683 C 0.92725 0.76848 0.89166 0.0
C1684 C 0.96495 0.72354 0.86188 0.0
H1685 H 0.0486 0.66997 0.93826 0.0
H1686 H 0.01528 0.69528 0.93185 0.0
H1687 H 0.98661 0.69436 0.85323 0.0
H1688 H 0.91672 0.78663 0.8234 0.0
H1689 H 0.94823 0.76 0.83319 0.0
H1690 H 0.97057 0.75876 0.91352 0.0
C1691 C 0.02525 0.68985 0.91583 0.0
C1692 C 0.98358 0.70854 0.86643 0.0
C1693 C 0.04433 0.67517 0.91952 0.0
C1694 C 0.91938 0.78169 0.84256 0.0
C1695 C 0.93732 0.7662 0.84817 0.0
C1696 C 0.97365 0.74457 0.90034 0.0
C1697 C 0.01866 0.6966 0.8918 0.0
C1698 C -0.0021 0.71171 0.88772 0.0
C1699 C 0.94129 0.75911 0.87276 0.0
C1700 C 0.96009 0.74212 0.8785 0.0
H1701 H 0.06016 0.66717 0.85929 0.0
H1702 H 0.02778 0.69369 0.85286 0.0
H1703 H 0.00299 0.73279 0.92141 0.0
H1704 H 0.89881 0.79094 0.901 0.0
H1705 H 0.92958 0.76327 0.91078 0.0
C1706 C 0.40848 0.29666 0.37093 0.0
C1707 C 0.40916 0.31108 0.34956 0.0
C1708 C 0.42413 0.27819 0.37361 0.0
C1709 C 0.48015 0.25491 0.34838 0.0
H1710 H 0.45629 0.19649 0.38196 0.0
C1711 C 0.53666 0.17137 0.35931 0.0
C1712 C 0.53654 0.16134 0.38321 0.0
C1713 C 0.52051 0.18866 0.35303 0.0
C1714 C 0.46326 0.21273 0.37263 0.0
H1715 H 0.42691 0.31762 0.3143 0.0
H1716 H 0.45375 0.28492 0.3186 0.0
H1717 H 0.42979 0.229 0.37548 0.0
H1718 H 0.51906 0.1612 0.41907 0.0
H1719 H 0.49092 0.19103 0.40809 0.0
H1720 H 0.51361 0.23837 0.34541 0.0
C1721 C 0.4415 0.28816 0.33357 0.0
C1722 C 0.44811 0.23146 0.36904 0.0
C1723 C 0.42607 0.30691 0.33107 0.0
C1724 C 0.51968 0.16858 0.40051 0.0
C1725 C 0.50338 0.18554 0.39414 0.0
C1726 C 0.49526 0.23603 0.35178 0.0
C1727 C 0.44055 0.2734 0.35477 0.0
C1728 C 0.45647 0.25301 0.35732 0.0
C1729 C 0.50374 0.19596 0.37043 0.0
C1730 C 0.48711 0.21495 0.36443 0.0
H1731 H 0.39583 0.29963 0.38563 0.0
H1732 H 0.4234 0.26775 0.39056 0.0
H1733 H 0.48734 0.27128 0.33947 0.0
H1734 H 0.54939 0.16607 0.34554 0.0
H1735 H 0.52111 0.19625 0.33456 0.0
C1736 C 0.95755 0.15435 0.62942 0.0
C1737 C 0.96123 0.13964 0.60877 0.0
C1738 C 0.97376 0.17392 0.63485 0.0
C1739 C 0.02155 0.2136 0.60485 0.0
H1740 H 0.03532 0.23394 0.67217 0.0
C1741 C 0.09143 0.29172 0.62553 0.0
C1742 C 0.08764 0.30665 0.64596 0.0
C1743 C 0.07672 0.2708 0.62153 0.0
C1744 C 0.0314 0.2288 0.65321 0.0
H1745 H 0.98524 0.1334 0.57819 0.0
H1746 H 0.01355 0.16682 0.58795 0.0
H1747 H 0.00858 0.19845 0.6647 0.0
H1748 H 0.06507 0.31155 0.67799 0.0
H1749 H 0.03884 0.27571 0.67052 0.0
H1750 H 0.04383 0.24407 0.59323 0.0
C1751 C -0.00212 0.16391 0.59957 0.0
C1752 C 0.01605 0.20833 0.64893 0.0
C1753 C 0.98165 0.14456 0.59405 0.0
C1754 C 0.06856 0.30039 0.66211 0.0
C1755 C 0.05368 0.27959 0.65798 0.0
C1756 C 0.03675 0.23409 0.60911 0.0
C1757 C 0.99401 0.17911 0.61981 0.0
C1758 C 0.01078 0.20055 0.62466 0.0
C1759 C 0.05762 0.26439 0.63771 0.0
C1760 C 0.04179 0.24213 0.63333 0.0
H1761 H 0.942 0.15097 0.64114 0.0
H1762 H 0.97012 0.18524 0.65054 0.0
H1763 H 0.01754 0.20861 0.58586 0.0
H1764 H 0.10608 0.29592 0.61281 0.0
H1765 H 0.08072 0.25943 0.60598 0.0
C1766 C 0.42577 0.7025 0.17598 0.0
C1767 C 0.4128 0.69212 0.15597 0.0
C1768 C 0.44167 0.72264 0.17245 0.0
C1769 C 0.45718 0.77171 0.1269 0.0
H1770 H 0.51545 0.77949 0.1656 0.0
C1771 C 0.53544 0.83564 0.09585 0.0
C1772 C 0.54934 0.84862 0.1136 0.0
C1773 C 0.51798 0.81804 0.10307 0.0
C1774 C 0.49923 0.77768 0.15471 0.0
H1775 H 0.40672 0.69447 0.11642 0.0
H1776 H 0.43517 0.72883 0.11003 0.0
H1777 H 0.48759 0.74491 0.17306 0.0
H1778 H 0.55599 0.85305 0.15291 0.0
H1779 H 0.52537 0.82214 0.16561 0.0
H1780 H 0.46944 0.80385 0.10777 0.0
C1781 C 0.4325 0.72204 0.12867 0.0
C1782 C 0.48307 0.75788 0.15912 0.0
C1783 C 0.41635 0.7021 0.13227 0.0
C1784 C 0.54564 0.84328 0.13879 0.0
C1785 C 0.52808 0.82558 0.14606 0.0
C1786 C 0.47358 0.79115 0.12214 0.0
C1787 C 0.44521 0.73277 0.14876 0.0
C1788 C 0.46198 0.75441 0.14498 0.0
C1789 C 0.51385 0.81293 0.12825 0.0
C1790 C 0.49513 0.79401 0.13552 0.0
H1791 H 0.42332 0.69538 0.19453 0.0
H1792 H 0.45076 0.73055 0.18846 0.0
H1793 H 0.44077 0.77023 0.11622 0.0
H1794 H 0.53798 0.8391 0.07627 0.0
H1795 H 0.50788 0.80821 0.08879 0.0
C1796 C 0.61535 0.38677 0.7615 0.0
C1797 C 0.63422 0.38898 0.7786 0.0
C1798 C 0.61324 0.40403 0.74295 0.0
C1799 C 0.63658 0.46611 0.72403 0.0
H1800 H 0.60486 0.44779 0.66245 0.0
C1801 C 0.60589 0.53674 0.65496 0.0
C1802 C 0.61167 0.53325 0.63 0.0
C1803 C 0.60862 0.51835 0.67223 0.0
C1804 C 0.61381 0.45314 0.67955 0.0
H1805 H 0.66586 0.41073 0.78971 0.0
H1806 H 0.66322 0.44009 0.75653 0.0
H1807 H 0.61104 0.41712 0.69367 0.0
H1808 H 0.62443 0.5076 0.60348 0.0
H1809 H 0.62966 0.47573 0.63385 0.0
H1810 H 0.6402 0.50192 0.7092 0.0
C1811 C 0.64934 0.42567 0.7578 0.0
C1812 C 0.6171 0.43562 0.69768 0.0
C1813 C 0.65101 0.40875 0.77684 0.0
C1814 C 0.61985 0.51087 0.62261 0.0
C1815 C 0.62277 0.49257 0.63995 0.0
C1816 C 0.63333 0.48355 0.70592 0.0
C1817 C 0.63039 0.4236 0.74052 0.0
C1818 C 0.62812 0.44194 0.72046 0.0
C1819 C 0.61747 0.49626 0.665 0.0
C1820 C 0.62154 0.47736 0.6837 0.0
H1821 H 0.60201 0.37179 0.76265 0.0
H1822 H 0.59792 0.40206 0.73072 0.0
H1823 H 0.64545 0.47181 0.74096 0.0
H1824 H 0.59905 0.55358 0.66109 0.0
H1825 H 0.6036 0.52128 0.69125 0.0
C1826 C 0.81122 0.40295 0.06036 0.0
C1827 C 0.83186 0.38974 0.05983 0.0
C1828 C 0.7946 0.40101 0.04101 0.0
C1829 C 0.77624 0.36215 0.98701 0.0
H1830 H 0.74458 0.41899 0.96627 0.0
C1831 C 0.70173 0.35735 0.91303 0.0
C1832 C 0.70088 0.37665 0.89626 0.0
C1833 C 0.71755 0.3587 0.93303 0.0
C1834 C 0.75349 0.403 0.97159 0.0
H1835 H 0.85109 0.36393 0.03865 0.0
H1836 H 0.82251 0.36087 0.00485 0.0
H1837 H 0.77249 0.42182 0.00077 0.0
H1838 H 0.71593 0.41254 0.88735 0.0
H1839 H 0.74334 0.41513 0.92253 0.0
H1840 H 0.75798 0.34357 0.95724 0.0
C1841 C 0.8188 0.37242 0.02035 0.0
C1842 C 0.76923 0.40451 0.99171 0.0
C1843 C 0.83529 0.37422 0.03977 0.0
C1844 C 0.71606 0.39745 0.90006 0.0
C1845 C 0.7317 0.39894 0.9203 0.0
C1846 C 0.76072 0.36071 0.96674 0.0
C1847 C 0.79826 0.38586 0.02062 0.0
C1848 C 0.78093 0.38413 -0.00037 0.0
C1849 C 0.73266 0.37956 0.93704 0.0
C1850 C 0.74919 0.38113 0.9587 0.0
H1851 H 0.80798 0.41497 0.07564 0.0
H1852 H 0.77878 0.41124 0.04219 0.0
H1853 H 0.78443 0.34591 0.99287 0.0
H1854 H 0.69034 0.341 0.91057 0.0
H1855 H 0.71749 0.34355 0.94568 0.0
C1856 C 0.8601 0.58487 0.28046 0.0
C1857 C 0.87595 0.60546 0.28206 0.0
C1858 C 0.86372 0.56691 0.26295 0.0
C1859 C 0.91071 0.54425 0.22139 0.0
H1860 H 0.85635 0.50625 0.19453 0.0
C1861 C 0.92362 0.45635 0.1677 0.0
C1862 C 0.90685 0.44868 0.14964 0.0
C1863 C 0.91983 0.4765 0.18239 0.0
C1864 C 0.87183 0.51687 0.20138 0.0
H1865 H 0.90777 0.6236 0.26607 0.0
H1866 H 0.91381 0.59264 0.23525 0.0
H1867 H 0.84965 0.53963 0.22187 0.0
H1868 H 0.87328 0.45635 0.13219 0.0
H1869 H 0.86711 0.49207 0.15688 0.0
H1870 H 0.93288 0.52223 0.20003 0.0
C1871 C 0.89891 0.58992 0.24793 0.0
C1872 C 0.86795 0.53586 0.21759 0.0
C1873 C 0.89535 0.60782 0.26554 0.0
C1874 C 0.88636 0.4617 0.14626 0.0
C1875 C 0.88281 0.48218 0.16055 0.0
C1876 C 0.91459 0.52553 0.20484 0.0
C1877 C 0.88324 0.56909 0.24649 0.0
C1878 C 0.88734 0.54961 0.22815 0.0
C1879 C 0.89942 0.48985 0.17897 0.0
C1880 C 0.89522 0.5112 0.19495 0.0
H1881 H 0.84485 0.58256 0.29277 0.0
H1882 H 0.85138 0.55109 0.26269 0.0
H1883 H 0.92618 0.55412 0.22929 0.0
H1884 H 0.93953 0.44655 0.17073 0.0
H1885 H 0.9328 0.48128 0.1967 0.0
C1886 C 0.79304 0.62985 0.40487 0.0
C1887 C 0.80502 0.6107 0.3946 0.0
C1888 C 0.77627 0.62562 0.42368 0.0
C1889 C 0.75901 0.58472 0.47421 0.0
H1890 H 0.69964 0.61687 0.47101 0.0
C1891 C 0.69113 0.57857 0.55548 0.0
C1892 C 0.67496 0.59679 0.55809 0.0
C1893 C 0.70657 0.5784 0.53511 0.0
C1894 C 0.71643 0.60836 0.47281 0.0
H1895 H 0.80906 0.57212 0.39616 0.0
H1896 H 0.77996 0.56477 0.4298 0.0
H1897 H 0.72693 0.6196 0.43632 0.0
H1898 H 0.66269 0.6294 0.54157 0.0
H1899 H 0.69105 0.63073 0.50791 0.0
H1900 H 0.74992 0.57522 0.51137 0.0
C1901 C 0.78349 0.58301 0.42299 0.0
C1902 C 0.73192 0.60963 0.45257 0.0
C1903 C 0.80007 0.5872 0.40377 0.0
C1904 C 0.67507 0.61518 0.54029 0.0
C1905 C 0.69111 0.61558 0.5205 0.0
C1906 C 0.74408 0.58441 0.49501 0.0
C1907 C 0.77124 0.60219 0.43292 0.0
C1908 C 0.75362 0.59828 0.45326 0.0
C1909 C 0.70673 0.59685 0.51713 0.0
C1910 C 0.72261 0.5965 0.49479 0.0
H1911 H 0.7964 0.64817 0.39816 0.0
H1912 H 0.76749 0.64083 0.43131 0.0
H1913 H 0.77543 0.57539 0.47505 0.0
H1914 H 0.69124 0.56384 0.56864 0.0
H1915 H 0.71777 0.5633 0.53327 0.0
C1916 C 0.62666 0.45277 0.83005 0.0
C1917 C 0.61073 0.43301 0.8241 0.0
C1918 C 0.629 0.47296 0.81454 0.0
C1919 C 0.59781 0.50266 0.7625 0.0
H1920 H 0.6589 0.53907 0.75598 0.0
C1921 C 0.60991 0.58881 0.70149 0.0
C1922 C 0.63119 0.59141 0.68761 0.0
C1923 C 0.60691 0.57074 0.71954 0.0
C1924 C 0.64169 0.52911 0.75755 0.0
H1925 H 0.58564 0.41852 0.7965 0.0
H1926 H 0.5906 0.45309 0.76883 0.0
H1927 H 0.65533 0.50465 0.78376 0.0
H1928 H 0.66564 0.57658 0.68129 0.0
H1929 H 0.66023 0.54489 0.71219 0.0
H1930 H 0.58456 0.5265 0.7353 0.0
C1931 C 0.60055 0.45354 0.78603 0.0
C1932 C 0.63952 0.5095 0.77382 0.0
C1933 C 0.59796 0.43349 0.80173 0.0
C1934 C 0.64909 0.57519 0.69175 0.0
C1935 C 0.6461 0.55717 0.70972 0.0
C1936 C 0.60001 0.52225 0.74616 0.0
C1937 C 0.61574 0.47381 0.79244 0.0
C1938 C 0.61766 0.49569 0.77623 0.0
C1939 C 0.62511 0.55487 0.7241 0.0
C1940 C 0.6221 0.53546 0.74315 0.0
H1941 H 0.63666 0.45311 0.84723 0.0
H1942 H 0.64067 0.4882 0.82037 0.0
H1943 H 0.58052 0.49291 0.7642 0.0
H1944 H 0.59584 0.60113 0.69888 0.0
H1945 H 0.59053 0.56954 0.73027 0.0
C1946 C 0.76897 0.3679 0.10727 0.0
C1947 C 0.79016 0.35591 0.10428 0.0
C1948 C 0.7525 0.36882 0.08795 0.0
C1949 C 0.73376 0.33983 0.02859 0.0
H1950 H 0.70261 0.39973 0.01938 0.0
C1951 C 0.65379 0.34674 0.96176 0.0
C1952 C 0.65198 0.36836 0.94852 0.0
C1953 C 0.67109 0.34503 0.98027 0.0
C1954 C 0.71127 0.38292 0.02145 0.0
H1955 H 0.81046 0.33489 0.0789 0.0
H1956 H 0.78154 0.33635 0.04502 0.0
H1957 H 0.73235 0.3969 0.05178 0.0
H1958 H 0.667 0.40515 0.94432 0.0
H1959 H 0.69716 0.40217 0.9764 0.0
H1960 H 0.71332 0.32618 -0.00242 0.0
C1961 C 0.77765 0.34506 0.06236 0.0
C1962 C 0.72811 0.38117 0.04035 0.0
C1963 C 0.79434 0.34442 0.08166 0.0
C1964 C 0.66788 0.38822 0.95418 0.0
C1965 C 0.68504 0.38658 0.97281 0.0
C1966 C 0.717 0.34163 0.00954 0.0
C1967 C 0.75668 0.35761 0.06516 0.0
C1968 C 0.73938 0.35953 0.04438 0.0
C1969 C 0.68696 0.36493 0.98607 0.0
C1970 C 0.70534 0.36314 0.00588 0.0
H1971 H 0.76515 0.3768 0.12455 0.0
H1972 H 0.73633 0.37819 0.091 0.0
H1973 H 0.74206 0.32288 0.03114 0.0
H1974 H 0.64174 0.33114 0.95793 0.0
H1975 H 0.67172 0.32819 0.99032 0.0
C1976 C 0.90632 0.54044 0.33501 0.0
C1977 C 0.88743 0.5534 0.34419 0.0
C1978 C 0.90261 0.52409 0.31555 0.0
C1979 C 0.85385 0.49104 0.27857 0.0
H1980 H 0.90762 0.47819 0.23638 0.0
C1981 C 0.84248 0.43669 0.18768 0.0
C1982 C 0.8588 0.41885 0.18341 0.0
C1983 C 0.84619 0.4533 0.20698 0.0
C1984 C 0.89242 0.48153 0.24801 0.0
H1985 H 0.84974 0.55933 0.34005 0.0
H1986 H 0.84333 0.53159 0.30548 0.0
H1987 H 0.91292 0.50769 0.26922 0.0
H1988 H 0.89233 0.4051 0.19555 0.0
H1989 H 0.89902 0.43443 0.22895 0.0
H1990 H 0.83312 0.46581 0.25597 0.0
C1991 C 0.86101 0.53345 0.31364 0.0
C1992 C 0.89548 0.49833 0.26719 0.0
C1993 C 0.8647 0.54967 0.33336 0.0
C1994 C 0.87937 0.41857 0.19836 0.0
C1995 C 0.88323 0.43539 0.21749 0.0
C1996 C 0.85063 0.47485 0.2588 0.0
C1997 C 0.87997 0.52046 0.30429 0.0
C1998 C 0.87633 0.50318 0.28305 0.0
C1999 C 0.86645 0.45267 0.22229 0.0
C2000 C 0.8699 0.46986 0.24333 0.0
H2001 H 0.92402 0.54253 0.34315 0.0
H2002 H 0.91758 0.51399 0.3098 0.0
H2003 H 0.8387 0.49361 0.29051 0.0
H2004 H 0.82645 0.43748 0.17655 0.0
H2005 H 0.83315 0.46665 0.20993 0.0
C2006 C 0.82292 0.65381 0.45635 0.0
C2007 C 0.83194 0.63085 0.45371 0.0
C2008 C 0.80569 0.65794 0.47445 0.0
C2009 C 0.7793 0.63101 0.53272 0.0
H2010 H 0.73076 0.67659 0.52107 0.0
C2011 C 0.7167 0.65496 0.61144 0.0
C2012 C 0.69278 0.65924 0.60601 0.0
C2013 C 0.73346 0.65312 0.59253 0.0
C2014 C 0.74396 0.66355 0.5246 0.0
H2015 H 0.83042 0.59443 0.46845 0.0
H2016 H 0.80132 0.60168 0.50019 0.0
H2017 H 0.75955 0.66902 0.4887 0.0
H2018 H 0.668 0.66643 0.57652 0.0
H2019 H 0.69738 0.66374 0.54339 0.0
H2020 H 0.76283 0.62403 0.56769 0.0
C2021 C 0.807 0.61655 0.48819 0.0
C2022 C 0.76084 0.65952 0.5061 0.0
C2023 C 0.82372 0.61229 0.46981 0.0
C2024 C 0.68622 0.66269 0.58125 0.0
C2025 C 0.70318 0.66125 0.56226 0.0
C2026 C 0.76214 0.63455 0.55087 0.0
C2027 C 0.79737 0.63929 0.4906 0.0
C2028 C 0.77898 0.64341 0.51002 0.0
C2029 C 0.72685 0.6555 0.56755 0.0
C2030 C 0.74447 0.65124 0.54738 0.0
H2031 H 0.82902 0.66854 0.44429 0.0
H2032 H 0.79925 0.67588 0.47601 0.0
H2033 H 0.793 0.61865 0.53679 0.0
H2034 H 0.7225 0.65261 0.63037 0.0
H2035 H 0.75168 0.64982 0.59766 0.0
C2036 C 0.53342 0.64405 0.63107 0.0
C2037 C 0.55409 0.64686 0.61635 0.0
C2038 C 0.51698 0.66202 0.63177 0.0
C2039 C 0.49765 0.71503 0.59645 0.0
H2040 H 0.46367 0.72722 0.65725 0.0
C2041 C 0.41434 0.77159 0.59839 0.0
C2042 C 0.41144 0.78686 0.61874 0.0
C2043 C 0.43271 0.75557 0.59818 0.0
C2044 C 0.47313 0.72426 0.64015 0.0
H2045 H 0.57383 0.6709 0.59091 0.0
H2046 H 0.54528 0.70235 0.59224 0.0
H2047 H 0.49433 0.69807 0.65706 0.0
H2048 H 0.42507 0.797 0.65509 0.0
H2049 H 0.45687 0.7689 0.65489 0.0
H2050 H 0.47685 0.74177 0.57973 0.0
C2051 C 0.54155 0.68611 0.60305 0.0
C2052 C 0.4905 0.70721 0.63994 0.0
C2053 C 0.55812 0.66821 0.60254 0.0
C2054 C 0.42701 0.78556 0.63904 0.0
C2055 C 0.44515 0.76933 0.63898 0.0
C2056 C 0.48029 0.73214 0.59667 0.0
C2057 C 0.52072 0.68326 0.61766 0.0
C2058 C 0.50284 0.70215 0.61803 0.0
C2059 C 0.44837 0.75423 0.61848 0.0
C2060 C 0.4676 0.73679 0.61846 0.0
H2061 H 0.5297 0.62774 0.64181 0.0
H2062 H 0.50099 0.65892 0.6429 0.0
H2063 H 0.50663 0.71159 0.57918 0.0
H2064 H 0.40245 0.77209 0.5826 0.0
H2065 H 0.4343 0.74388 0.58229 0.0
C2066 C 0.40148 0.56659 0.19115 0.0
C2067 C 0.38146 0.5806 0.18944 0.0
C2068 C 0.40132 0.54692 0.20746 0.0
C2069 C 0.35867 0.50667 0.24416 0.0
H2070 H 0.41588 0.49049 0.27934 0.0
C2071 C 0.35639 0.44427 0.32959 0.0
C2072 C 0.37459 0.42806 0.33192 0.0
C2073 C 0.35717 0.46135 0.31057 0.0
C2074 C 0.3998 0.49466 0.26946 0.0
H2075 H 0.34603 0.58563 0.20433 0.0
H2076 H 0.34615 0.55237 0.23311 0.0
H2077 H 0.41811 0.52368 0.24966 0.0
H2078 H 0.40719 0.41619 0.31529 0.0
H2079 H 0.40844 0.44597 0.28205 0.0
H2080 H 0.34022 0.47826 0.26459 0.0
C2081 C 0.36162 0.55571 0.22128 0.0
C2082 C 0.40108 0.51364 0.25237 0.0
C2083 C 0.36164 0.57501 0.20483 0.0
C2084 C 0.39298 0.42855 0.31414 0.0
C2085 C 0.39383 0.44574 0.29522 0.0
C2086 C 0.35733 0.48802 0.26149 0.0
C2087 C 0.38125 0.54114 0.22259 0.0
C2088 C 0.38045 0.52007 0.23971 0.0
C2089 C 0.37618 0.46261 0.29351 0.0
C2090 C 0.37783 0.48187 0.27443 0.0
H2091 H 0.41701 0.57044 0.1795 0.0
H2092 H 0.41665 0.53593 0.20773 0.0
H2093 H 0.34254 0.51051 0.23419 0.0
H2094 H 0.34193 0.44431 0.34292 0.0
H2095 H 0.34331 0.47413 0.30975 0.0
C2096 C 0.29605 0.62048 0.08562 0.0
C2097 C 0.3032 0.64419 0.09282 0.0
C2098 C 0.27708 0.61616 0.06904 0.0
C2099 C 0.24107 0.64705 0.02223 0.0
H2100 H 0.19773 0.59027 0.0301 0.0
C2101 C 0.1583 0.6301 0.95953 0.0
C2102 C 0.15344 0.60628 0.95132 0.0
C2103 C 0.17521 0.63518 0.97815 0.0
C2104 C 0.20978 0.60612 0.02752 0.0
H2105 H 0.29579 0.68192 0.08855 0.0
H2106 H 0.26243 0.67438 0.06028 0.0
H2107 H 0.23014 0.59805 0.05963 0.0
H2108 H 0.16232 0.56908 0.95612 0.0
H2109 H 0.19222 0.57795 0.98812 0.0
H2110 H 0.22077 0.6551 0.99013 0.0
C2111 C 0.27179 0.65911 0.06688 0.0
C2112 C 0.22843 0.61055 0.04442 0.0
C2113 C 0.29088 0.66344 0.08324 0.0
C2114 C 0.16565 0.58762 0.96217 0.0
C2115 C 0.18266 0.5927 0.98064 0.0
C2116 C 0.22235 0.64269 0.00542 0.0
C2117 C 0.26464 0.63544 0.05954 0.0
C2118 C 0.24446 0.63095 0.04187 0.0
C2119 C 0.18775 0.61656 0.98879 0.0
C2120 C 0.20665 0.62202 0.00767 0.0
H2121 H 0.30518 0.60525 0.09269 0.0
H2122 H 0.27242 0.59773 0.06339 0.0
H2123 H 0.25332 0.66269 0.01934 0.0
H2124 H 0.14897 0.64483 0.95164 0.0
H2125 H 0.17844 0.65372 0.98419 0.0
C2126 C 0.11138 0.55646 0.82569 0.0
C2127 C 0.13178 0.56268 0.84002 0.0
C2128 C 0.11182 0.53829 0.80792 0.0
C2129 C 0.15287 0.50332 0.77014 0.0
H2130 H 0.09704 0.45857 0.76479 0.0
C2131 C 0.14423 0.42813 0.6955 0.0
C2132 C 0.13505 0.4054 0.70382 0.0
C2133 C 0.14372 0.44836 0.71092 0.0
C2134 C 0.11284 0.47081 0.76614 0.0
H2135 H 0.16885 0.55531 0.84652 0.0
H2136 H 0.1698 0.52377 0.81501 0.0
H2137 H 0.09708 0.49144 0.79446 0.0
H2138 H 0.11766 0.38606 0.7344 0.0
H2139 H 0.11633 0.42128 0.76103 0.0
H2140 H 0.16885 0.48209 0.74226 0.0
C2141 C 0.15342 0.5329 0.81758 0.0
C2142 C 0.11276 0.48987 0.78296 0.0
C2143 C 0.15288 0.5509 0.83568 0.0
C2144 C 0.1248 0.40338 0.72748 0.0
C2145 C 0.12396 0.4236 0.7427 0.0
C2146 C 0.15297 0.48416 0.75333 0.0
C2147 C 0.13278 0.52618 0.80371 0.0
C2148 C 0.13283 0.50627 0.78531 0.0
C2149 C 0.13354 0.4463 0.7347 0.0
C2150 C 0.13304 0.46754 0.75136 0.0
H2151 H 0.0948 0.56516 0.82865 0.0
H2152 H 0.09569 0.53385 0.79738 0.0
H2153 H 0.16847 0.51585 0.77119 0.0
H2154 H 0.15233 0.43018 0.67736 0.0
H2155 H 0.15106 0.46564 0.70414 0.0
C2156 C 0.21446 0.33006 0.58224 0.0
C2157 C 0.20249 0.34948 0.59195 0.0
C2158 C 0.23292 0.3341 0.56506 0.0
C2159 C 0.27532 0.38247 0.54048 0.0
H2160 H 0.28155 0.33728 0.48652 0.0
C2161 C 0.33473 0.40648 0.45646 0.0
C2162 C 0.34753 0.38831 0.44547 0.0
C2163 C 0.3178 0.40078 0.47485 0.0
C2164 C 0.28021 0.35002 0.50153 0.0
H2165 H 0.20033 0.38839 0.59109 0.0
H2166 H 0.23212 0.39542 0.56069 0.0
H2167 H 0.24999 0.32985 0.51691 0.0
H2168 H 0.3525 0.34985 0.44492 0.0
H2169 H 0.32329 0.33991 0.47751 0.0
H2170 H 0.30507 0.40302 0.52464 0.0
C2171 C 0.22769 0.37708 0.56677 0.0
C2172 C 0.26215 0.34566 0.51911 0.0
C2173 C 0.20929 0.37304 0.58404 0.0
C2174 C 0.34287 0.36424 0.45304 0.0
C2175 C 0.32609 0.35856 0.47168 0.0
C2176 C 0.29314 0.38699 0.52269 0.0
C2177 C 0.23978 0.35766 0.5571 0.0
C2178 C 0.25937 0.36194 0.53872 0.0
C2179 C 0.31346 0.37681 0.48293 0.0
C2180 C 0.29557 0.37103 0.50276 0.0
H2181 H 0.20973 0.31168 0.58802 0.0
H2182 H 0.24204 0.31874 0.55833 0.0
H2183 H 0.27412 0.39509 0.55565 0.0
H2184 H 0.33769 0.42516 0.4508 0.0
H2185 H 0.30793 0.41521 0.48254 0.0
C2186 C 0.33907 0.40261 0.28249 0.0
C2187 C 0.35373 0.38302 0.28365 0.0
C2188 C 0.34218 0.41967 0.26354 0.0
C2189 C 0.34663 0.44564 0.21312 0.0
H2190 H 0.41137 0.47392 0.20579 0.0
C2191 C 0.36841 0.53037 0.15255 0.0
C2192 C 0.3907 0.53238 0.14048 0.0
C2193 C 0.36312 0.51161 0.1694 0.0
C2194 C 0.39327 0.46591 0.20707 0.0
H2195 H 0.38298 0.36564 0.26625 0.0
H2196 H 0.3893 0.39622 0.23382 0.0
H2197 H 0.40333 0.44119 0.23504 0.0
H2198 H 0.42456 0.51581 0.13596 0.0
H2199 H 0.41506 0.48278 0.16429 0.0
H2200 H 0.33658 0.46988 0.1847 0.0
C2201 C 0.37513 0.39813 0.24721 0.0
C2202 C 0.38867 0.44721 0.22399 0.0
C2203 C 0.37151 0.38067 0.26568 0.0
C2204 C 0.40734 0.51499 0.14519 0.0
C2205 C 0.40192 0.49608 0.16164 0.0
C2206 C 0.3513 0.46404 0.19574 0.0
C2207 C 0.36056 0.41784 0.24603 0.0
C2208 C 0.36532 0.437 0.2273 0.0
C2209 C 0.37987 0.49424 0.17423 0.0
C2210 C 0.3747 0.47449 0.19253 0.0
H2211 H 0.32514 0.40463 0.29613 0.0
H2212 H 0.33073 0.4347 0.26306 0.0
H2213 H 0.32847 0.43796 0.21527 0.0
H2214 H 0.35525 0.54356 0.14937 0.0
H2215 H 0.34614 0.51113 0.17905 0.0
C2216 C 0.32691 0.59597 0.02935 0.0
C2217 C 0.33603 0.61713 0.04123 0.0
C2218 C 0.30928 0.59694 0.0112 0.0
C2219 C 0.27984 0.64002 0.96979 0.0
H2220 H 0.23192 0.58672 0.96395 0.0
C2221 C 0.19413 0.64739 0.91253 0.0
C2222 C 0.18781 0.62813 0.89647 0.0
C2223 C 0.21219 0.6453 0.93007 0.0
C2224 C 0.24526 0.60166 0.96527 0.0
H2225 H 0.33373 0.65595 0.04339 0.0
H2226 H 0.30218 0.6576 0.01252 0.0
H2227 H 0.26308 0.58521 0.99519 0.0
H2228 H 0.19474 0.5913 0.88672 0.0
H2229 H 0.22586 0.58736 0.91804 0.0
H2230 H 0.26113 0.65693 0.94062 0.0
C2231 C 0.30918 0.64027 0.0166 0.0
C2232 C 0.2633 0.60075 0.98306 0.0
C2233 C 0.32713 0.63933 0.03452 0.0
C2234 C 0.19923 0.6064 0.89893 0.0
C2235 C 0.21701 0.60415 0.91683 0.0
C2236 C 0.26147 0.64116 0.95242 0.0
C2237 C 0.30002 0.61907 0.00466 0.0
C2238 C 0.28086 0.61994 0.98558 0.0
C2239 C 0.22401 0.62377 0.93221 0.0
C2240 C 0.2439 0.62208 0.95011 0.0
H2241 H 0.33356 0.57857 0.03387 0.0
H2242 H 0.30318 0.5803 0.00209 0.0
H2243 H 0.29331 0.65489 0.97068 0.0
H2244 H 0.18569 0.66439 0.91103 0.0
H2245 H 0.21693 0.66057 0.94198 0.0
C2246 C 0.08382 0.44545 0.6851 0.0
C2247 C 0.09426 0.44474 0.6615 0.0
C2248 C 0.08781 0.46583 0.70021 0.0
C2249 C 0.1298 0.52044 0.70694 0.0
H2250 H 0.08216 0.53988 0.75367 0.0
C2251 C 0.15422 0.59121 0.7814 0.0
C2252 C 0.13677 0.60615 0.7902 0.0
C2253 C 0.14809 0.57246 0.76499 0.0
C2254 C 0.09558 0.53502 0.74046 0.0
H2255 H 0.11656 0.46508 0.63497 0.0
H2256 H 0.12287 0.50059 0.6607 0.0
H2257 H 0.07276 0.50581 0.72639 0.0
H2258 H 0.09923 0.61347 0.78862 0.0
H2259 H 0.08851 0.58123 0.75904 0.0
H2260 H 0.15221 0.55018 0.71997 0.0
C2261 C 0.11225 0.48527 0.6681 0.0
C2262 C 0.0903 0.51512 0.72505 0.0
C2263 C 0.10854 0.46486 0.65322 0.0
C2264 C 0.113 0.60208 0.78218 0.0
C2265 C 0.10689 0.58353 0.76529 0.0
C2266 C 0.13489 0.54054 0.72195 0.0
C2267 C 0.1022 0.486 0.69194 0.0
C2268 C 0.10741 0.50744 0.70817 0.0
C2269 C 0.12437 0.56838 0.75652 0.0
C2270 C 0.11804 0.54795 0.73925 0.0
H2271 H 0.07277 0.43018 0.69201 0.0
H2272 H 0.08008 0.46547 0.71857 0.0
H2273 H 0.14371 0.5149 0.69464 0.0
H2274 H 0.17264 0.59371 0.78758 0.0
H2275 H 0.16199 0.56084 0.75947 0.0
C2276 C 0.16219 0.35449 0.54637 0.0
C2277 C 0.15285 0.37614 0.55422 0.0
C2278 C 0.18041 0.3548 0.52861 0.0
C2279 C 0.22685 0.39566 0.49823 0.0
H2280 H 0.22444 0.34557 0.44811 0.0
C2281 C 0.28884 0.39834 0.41183 0.0
C2282 C 0.29846 0.37638 0.40549 0.0
C2283 C 0.27142 0.39906 0.43039 0.0
C2284 C 0.22548 0.35959 0.46209 0.0
H2285 H 0.15543 0.41513 0.54969 0.0
H2286 H 0.18673 0.41561 0.51854 0.0
H2287 H 0.19379 0.34497 0.48005 0.0
H2288 H 0.29742 0.33797 0.4135 0.0
H2289 H 0.26679 0.33912 0.44513 0.0
H2290 H 0.25857 0.41029 0.48006 0.0
C2291 C 0.18034 0.3984 0.52632 0.0
C2292 C 0.20795 0.35919 0.48048 0.0
C2293 C 0.16224 0.3981 0.5441 0.0
C2294 C 0.2905 0.35523 0.41808 0.0
C2295 C 0.27279 0.35586 0.43613 0.0
C2296 C 0.24434 0.39612 0.47973 0.0
C2297 C 0.18958 0.37677 0.51825 0.0
C2298 C 0.20845 0.37716 0.49884 0.0
C2299 C 0.263 0.37772 0.4425 0.0
C2300 C 0.24392 0.378 0.46156 0.0
H2301 H 0.15543 0.33729 0.55389 0.0
H2302 H 0.18747 0.33784 0.52321 0.0
H2303 H 0.22805 0.40955 0.51234 0.0
H2304 H 0.29465 0.41489 0.40234 0.0
H2305 H 0.2641 0.41617 0.4348 0.0
C2306 C 0.46233 0.32937 0.38219 0.0
C2307 C 0.4498 0.33198 0.40443 0.0
C2308 C 0.48078 0.31365 0.38072 0.0
C2309 C 0.50569 0.26115 0.41197 0.0
H2310 H 0.55988 0.27854 0.36949 0.0
C2311 C 0.58532 0.19972 0.39813 0.0
C2312 C 0.59333 0.19781 0.37357 0.0
C2313 C 0.56883 0.21669 0.40444 0.0
C2314 C 0.54483 0.27336 0.38137 0.0
H2315 H 0.4468 0.32023 0.44264 0.0
H2316 H 0.47927 0.2929 0.44017 0.0
H2317 H 0.52931 0.30713 0.37585 0.0
H2318 H 0.58995 0.21189 0.33634 0.0
H2319 H 0.56118 0.24108 0.34722 0.0
H2320 H 0.52172 0.22759 0.41794 0.0
C2321 C 0.4746 0.30273 0.42373 0.0
C2322 C 0.52722 0.28972 0.38494 0.0
C2323 C 0.45609 0.3185 0.42519 0.0
C2324 C 0.58431 0.21297 0.35546 0.0
C2325 C 0.56795 0.22991 0.36175 0.0
C2326 C 0.5236 0.24492 0.40873 0.0
C2327 C 0.48725 0.30019 0.40148 0.0
C2328 C 0.50705 0.28357 0.3997 0.0
C2329 C 0.56019 0.23217 0.38634 0.0
C2330 C 0.5429 0.25049 0.39265 0.0
H2331 H 0.458 0.33959 0.36588 0.0
H2332 H 0.48975 0.31185 0.36312 0.0
H2333 H 0.49036 0.25569 0.42335 0.0
H2334 H 0.59194 0.18827 0.41251 0.0
H2335 H 0.5632 0.21798 0.42354 0.0
loop_
_geom_bond_atom_site_label_1
_geom_bond_atom_site_label_2
_geom_bond_distance
_geom_bond_site_symmetry_2
_ccdc_geom_bond_type
C0 O1 1.160 . S
C0 O7 1.185 . S
O1 C0 1.160 . S
O2 Zn3 1.899 . S
O2 C10 1.284 . S
Zn3 O2 1.899 . S
Zn3 O4 2.032 . S
Zn3 O7 2.086 . S
Zn3 O12 1.977 . S
O4 Zn3 2.032 . S
O4 C8 1.278 . S
C5 O6 1.203 . S
C5 O12 1.267 . S
O6 C5 1.203 . S
O7 C0 1.185 . S
O7 Zn3 2.086 . S
C8 O4 1.278 . S
C8 O9 1.211 . S
O9 C8 1.211 . S
C10 O2 1.284 . S
C10 O11 1.273 . S
O11 C10 1.273 . S
O12 Zn3 1.977 . S
O12 C5 1.267 . S
C13 O14 1.160 . S
C13 O20 1.185 . S
O14 C13 1.160 . S
O15 Zn16 1.899 . S
O15 C23 1.284 . S
Zn16 O15 1.899 . S
Zn16 O17 2.032 . S
Zn16 O20 2.086 . S
Zn16 O25 1.977 . S
O17 Zn16 2.032 . S
O17 C21 1.278 . S
C18 O19 1.203 . S
C18 O25 1.267 . S
O19 C18 1.203 . S
O20 C13 1.185 . S
O20 Zn16 2.086 . S
C21 O17 1.278 . S
C21 O22 1.211 . S
O22 C21 1.211 . S
C23 O15 1.284 . S
C23 O24 1.273 . S
O24 C23 1.273 . S
O25 Zn16 1.977 . S
O25 C18 1.267 . S
C26 O27 1.160 . S
C26 O33 1.185 . S
O27 C26 1.160 . S
O28 Zn29 1.899 . S
O28 C36 1.284 . S
Zn29 O28 1.899 . S
Zn29 O30 2.032 . S
Zn29 O33 2.086 . S
Zn29 O38 1.977 . S
O30 Zn29 2.032 . S
O30 C34 1.278 . S
C31 O32 1.203 . S
C31 O38 1.267 . S
O32 C31 1.203 . S
O33 C26 1.185 . S
O33 Zn29 2.086 . S
C34 O30 1.278 . S
C34 O35 1.211 . S
O35 C34 1.211 . S
C36 O28 1.284 . S
C36 O37 1.273 . S
O37 C36 1.273 . S
O38 Zn29 1.977 . S
O38 C31 1.267 . S
C39 O40 1.160 . S
C39 O46 1.185 . S
O40 C39 1.160 . S
O41 Zn42 1.899 . S
O41 C49 1.284 . S
Zn42 O41 1.899 . S
Zn42 O43 2.032 . S
Zn42 O46 2.086 . S
Zn42 O51 1.977 . S
O43 Zn42 2.032 . S
O43 C47 1.278 . S
C44 O45 1.203 . S
C44 O51 1.267 . S
O45 C44 1.203 . S
O46 C39 1.185 . S
O46 Zn42 2.086 . S
C47 O43 1.278 . S
C47 O48 1.211 . S
O48 C47 1.211 . S
C49 O41 1.284 . S
C49 O50 1.273 . S
O50 C49 1.273 . S
O51 Zn42 1.977 . S
O51 C44 1.267 . S
C52 O53 1.160 . S
C52 O59 1.185 . S
O53 C52 1.160 . S
O54 Zn55 1.899 . S
O54 C62 1.284 . S
Zn55 O54 1.899 . S
Zn55 O56 2.032 . S
Zn55 O59 2.086 . S
Zn55 O64 1.977 . S
O56 Zn55 2.032 . S
O56 C60 1.278 . S
C57 O58 1.203 . S
C57 O64 1.267 . S
O58 C57 1.203 . S
O59 C52 1.185 . S
O59 Zn55 2.086 . S
C60 O56 1.278 . S
C60 O61 1.211 . S
O61 C60 1.211 . S
C62 O54 1.284 . S
C62 O63 1.273 . S
O63 C62 1.273 . S
O64 Zn55 1.977 . S
O64 C57 1.267 . S
C65 O66 1.160 . S
C65 O72 1.185 . S
O66 C65 1.160 . S
O67 Zn68 1.899 . S
O67 C75 1.284 . S
Zn68 O67 1.899 . S
Zn68 O69 2.032 . S
Zn68 O72 2.086 . S
Zn68 O77 1.977 . S
O69 Zn68 2.032 . S
O69 C73 1.278 . S
C70 O71 1.203 . S
C70 O77 1.267 . S
O71 C70 1.203 . S
O72 C65 1.185 . S
O72 Zn68 2.086 . S
C73 O69 1.278 . S
C73 O74 1.211 . S
O74 C73 1.211 . S
C75 O67 1.284 . S
C75 O76 1.273 . S
O76 C75 1.273 . S
O77 Zn68 1.977 . S
O77 C70 1.267 . S
C78 O79 1.160 . S
C78 O85 1.185 . S
O79 C78 1.160 . S
O80 Zn81 1.899 . S
O80 C88 1.284 . S
Zn81 O80 1.899 . S
Zn81 O82 2.032 . S
Zn81 O85 2.086 . S
Zn81 O90 1.977 . S
O82 Zn81 2.032 . S
O82 C86 1.278 . S
C83 O84 1.203 . S
C83 O90 1.267 . S
O84 C83 1.203 . S
O85 C78 1.185 . S
O85 Zn81 2.086 . S
C86 O82 1.278 . S
C86 O87 1.211 . S
O87 C86 1.211 . S
C88 O80 1.284 . S
C88 O89 1.273 . S
O89 C88 1.273 . S
O90 Zn81 1.977 . S
O90 C83 1.267 . S
C91 O92 1.160 . S
C91 O98 1.185 . S
O92 C91 1.160 . S
O93 Zn94 1.899 . S
O93 C101 1.284 . S
Zn94 O93 1.899 . S
Zn94 O95 2.032 . S
Zn94 O98 2.086 . S
Zn94 O103 1.977 . S
O95 Zn94 2.032 . S
O95 C99 1.278 . S
C96 O97 1.203 . S
C96 O103 1.267 . S
O97 C96 1.203 . S
O98 C91 1.185 . S
O98 Zn94 2.086 . S
C99 O95 1.278 . S
C99 O100 1.211 . S
O100 C99 1.211 . S
C101 O93 1.284 . S
C101 O102 1.273 . S
O102 C101 1.273 . S
O103 Zn94 1.977 . S
O103 C96 1.267 . S
C104 O105 1.160 . S
C104 O111 1.185 . S
O105 C104 1.160 . S
O106 Zn107 1.899 . S
O106 C114 1.284 . S
Zn107 O106 1.899 . S
Zn107 O108 2.032 . S
Zn107 O111 2.086 . S
Zn107 O116 1.977 . S
O108 Zn107 2.032 . S
O108 C112 1.278 . S
C109 O110 1.203 . S
C109 O116 1.267 . S
O110 C109 1.203 . S
O111 C104 1.185 . S
O111 Zn107 2.086 . S
C112 O108 1.278 . S
C112 O113 1.211 . S
O113 C112 1.211 . S
C114 O106 1.284 . S
C114 O115 1.273 . S
O115 C114 1.273 . S
O116 Zn107 1.977 . S
O116 C109 1.267 . S
C117 O118 1.160 . S
C117 O124 1.185 . S
O118 C117 1.160 . S
O119 Zn120 1.899 . S
O119 C127 1.284 . S
Zn120 O119 1.899 . S
Zn120 O121 2.032 . S
Zn120 O124 2.086 . S
Zn120 O129 1.977 . S
O121 Zn120 2.032 . S
O121 C125 1.278 . S
C122 O123 1.203 . S
C122 O129 1.267 . S
O123 C122 1.203 . S
O124 C117 1.185 . S
O124 Zn120 2.086 . S
C125 O121 1.278 . S
C125 O126 1.211 . S
O126 C125 1.211 . S
C127 O119 1.284 . S
C127 O128 1.273 . S
O128 C127 1.273 . S
O129 Zn120 1.977 . S
O129 C122 1.267 . S
C130 O131 1.160 . S
C130 O137 1.185 . S
O131 C130 1.160 . S
O132 Zn133 1.899 . S
O132 C140 1.284 . S
Zn133 O132 1.899 . S
Zn133 O134 2.032 . S
Zn133 O137 2.086 . S
Zn133 O142 1.977 . S
O134 Zn133 2.032 . S
O134 C138 1.278 . S
C135 O136 1.203 . S
C135 O142 1.267 . S
O136 C135 1.203 . S
O137 C130 1.185 . S
O137 Zn133 2.086 . S
C138 O134 1.278 . S
C138 O139 1.211 . S
O139 C138 1.211 . S
C140 O132 1.284 . S
C140 O141 1.273 . S
O141 C140 1.273 . S
O142 Zn133 1.977 . S
O142 C135 1.267 . S
C143 O144 1.160 . S
C143 O150 1.185 . S
O144 C143 1.160 . S
O145 Zn146 1.899 . S
O145 C153 1.284 . S
Zn146 O145 1.899 . S
Zn146 O147 2.032 . S
Zn146 O150 2.086 . S
Zn146 O155 1.977 . S
O147 Zn146 2.032 . S
O147 C151 1.278 . S
C148 O149 1.203 . S
C148 O155 1.267 . S
O149 C148 1.203 . S
O150 C143 1.185 . S
O150 Zn146 2.086 . S
C151 O147 1.278 . S
C151 O152 1.211 . S
O152 C151 1.211 . S
C153 O145 1.284 . S
C153 O154 1.273 . S
O154 C153 1.273 . S
O155 Zn146 1.977 . S
O155 C148 1.267 . S
C156 O157 1.160 . S
C156 O163 1.185 . S
O157 C156 1.160 . S
O158 Zn159 1.899 . S
O158 C166 1.284 . S
Zn159 O158 1.899 . S
Zn159 O160 2.032 . S
Zn159 O163 2.086 . S
Zn159 O168 1.977 . S
O160 Zn159 2.032 . S
O160 C164 1.278 . S
C161 O162 1.203 . S
C161 O168 1.267 . S
O162 C161 1.203 . S
O163 C156 1.185 . S
O163 Zn159 2.086 . S
C164 O160 1.278 . S
C164 O165 1.211 . S
O165 C164 1.211 . S
C166 O158 1.284 . S
C166 O167 1.273 . S
O167 C166 1.273 . S
O168 Zn159 1.977 . S
O168 C161 1.267 . S
C169 O170 1.160 . S
C169 O176 1.185 . S
O170 C169 1.160 . S
O171 Zn172 1.899 . S
O171 C179 1.284 . S
Zn172 O171 1.899 . S
Zn172 O173 2.032 . S
Zn172 O176 2.086 . S
Zn172 O181 1.977 . S
O173 Zn172 2.032 . S
O173 C177 1.278 . S
C174 O175 1.203 . S
C174 O181 1.267 . S
O175 C174 1.203 . S
O176 C169 1.185 . S
O176 Zn172 2.086 . S
C177 O173 1.278 . S
C177 O178 1.211 . S
O178 C177 1.211 . S
C179 O171 1.284 . S
C179 O180 1.273 . S
O180 C179 1.273 . S
O181 Zn172 1.977 . S
O181 C174 1.267 . S
C182 O183 1.160 . S
C182 O189 1.185 . S
O183 C182 1.160 . S
O184 Zn185 1.899 . S
O184 C192 1.284 . S
Zn185 O184 1.899 . S
Zn185 O186 2.032 . S
Zn185 O189 2.086 . S
Zn185 O194 1.977 . S
O186 Zn185 2.032 . S
O186 C190 1.278 . S
C187 O188 1.203 . S
C187 O194 1.267 . S
O188 C187 1.203 . S
O189 C182 1.185 . S
O189 Zn185 2.086 . S
C190 O186 1.278 . S
C190 O191 1.211 . S
O191 C190 1.211 . S
C192 O184 1.284 . S
C192 O193 1.273 . S
O193 C192 1.273 . S
O194 Zn185 1.977 . S
O194 C187 1.267 . S
C195 O196 1.160 . S
C195 O202 1.185 . S
O196 C195 1.160 . S
O197 Zn198 1.899 . S
O197 C205 1.284 . S
Zn198 O197 1.899 . S
Zn198 O199 2.032 . S
Zn198 O202 2.086 . S
Zn198 O207 1.977 . S
O199 Zn198 2.032 . S
O199 C203 1.278 . S
C200 O201 1.203 . S
C200 O207 1.267 . S
O201 C200 1.203 . S
O202 C195 1.185 . S
O202 Zn198 2.086 . S
C203 O199 1.278 . S
C203 O204 1.211 . S
O204 C203 1.211 . S
C205 O197 1.284 . S
C205 O206 1.273 . S
O206 C205 1.273 . S
O207 Zn198 1.977 . S
O207 C200 1.267 . S
C208 O209 1.160 . S
C208 O215 1.185 . S
O209 C208 1.160 . S
O210 Zn211 1.899 . S
O210 C218 1.284 . S
Zn211 O210 1.899 . S
Zn211 O212 2.032 . S
Zn211 O215 2.086 . S
Zn211 O220 1.977 . S
O212 Zn211 2.032 . S
O212 C216 1.278 . S
C213 O214 1.203 . S
C213 O220 1.267 . S
O214 C213 1.203 . S
O215 C208 1.185 . S
O215 Zn211 2.086 . S
C216 O212 1.278 . S
C216 O217 1.211 . S
O217 C216 1.211 . S
C218 O210 1.284 . S
C218 O219 1.273 . S
O219 C218 1.273 . S
O220 Zn211 1.977 . S
O220 C213 1.267 . S
C221 O222 1.160 . S
C221 O228 1.185 . S
O222 C221 1.160 . S
O223 Zn224 1.899 . S
O223 C231 1.284 . S
Zn224 O223 1.899 . S
Zn224 O225 2.032 . S
Zn224 O228 2.086 . S
Zn224 O233 1.977 . S
O225 Zn224 2.032 . S
O225 C229 1.278 . S
C226 O227 1.203 . S
C226 O233 1.267 . S
O227 C226 1.203 . S
O228 C221 1.185 . S
O228 Zn224 2.086 . S
C229 O225 1.278 . S
C229 O230 1.211 . S
O230 C229 1.211 . S
C231 O223 1.284 . S
C231 O232 1.273 . S
O232 C231 1.273 . S
O233 Zn224 1.977 . S
O233 C226 1.267 . S
C234 O235 1.160 . S
C234 O241 1.185 . S
O235 C234 1.160 . S
O236 Zn237 1.899 . S
O236 C244 1.284 . S
Zn237 O236 1.899 . S
Zn237 O238 2.032 . S
Zn237 O241 2.086 . S
Zn237 O246 1.977 . S
O238 Zn237 2.032 . S
O238 C242 1.278 . S
C239 O240 1.203 . S
C239 O246 1.267 . S
O240 C239 1.203 . S
O241 C234 1.185 . S
O241 Zn237 2.086 . S
C242 O238 1.278 . S
C242 O243 1.211 . S
O243 C242 1.211 . S
C244 O236 1.284 . S
C244 O245 1.273 . S
O245 C244 1.273 . S
O246 Zn237 1.977 . S
O246 C239 1.267 . S
C247 O248 1.160 . S
C247 O254 1.185 . S
O248 C247 1.160 . S
O249 Zn250 1.899 . S
O249 C257 1.284 . S
Zn250 O249 1.899 . S
Zn250 O251 2.032 . S
Zn250 O254 2.086 . S
Zn250 O259 1.977 . S
O251 Zn250 2.032 . S
O251 C255 1.278 . S
C252 O253 1.203 . S
C252 O259 1.267 . S
O253 C252 1.203 . S
O254 C247 1.185 . S
O254 Zn250 2.086 . S
C255 O251 1.278 . S
C255 O256 1.211 . S
O256 C255 1.211 . S
C257 O249 1.284 . S
C257 O258 1.273 . S
O258 C257 1.273 . S
O259 Zn250 1.977 . S
O259 C252 1.267 . S
C260 O261 1.160 . S
C260 O267 1.185 . S
O261 C260 1.160 . S
O262 Zn263 1.899 . S
O262 C270 1.284 . S
Zn263 O262 1.899 . S
Zn263 O264 2.032 . S
Zn263 O267 2.086 . S
Zn263 O272 1.977 . S
O264 Zn263 2.032 . S
O264 C268 1.278 . S
C265 O266 1.203 . S
C265 O272 1.267 . S
O266 C265 1.203 . S
O267 C260 1.185 . S
O267 Zn263 2.086 . S
C268 O264 1.278 . S
C268 O269 1.211 . S
O269 C268 1.211 . S
C270 O262 1.284 . S
C270 O271 1.273 . S
O271 C270 1.273 . S
O272 Zn263 1.977 . S
O272 C265 1.267 . S
C273 O274 1.160 . S
C273 O280 1.185 . S
O274 C273 1.160 . S
O275 Zn276 1.899 . S
O275 C283 1.284 . S
Zn276 O275 1.899 . S
Zn276 O277 2.032 . S
Zn276 O280 2.086 . S
Zn276 O285 1.977 . S
O277 Zn276 2.032 . S
O277 C281 1.278 . S
C278 O279 1.203 . S
C278 O285 1.267 . S
O279 C278 1.203 . S
O280 C273 1.185 . S
O280 Zn276 2.086 . S
C281 O277 1.278 . S
C281 O282 1.211 . S
O282 C281 1.211 . S
C283 O275 1.284 . S
C283 O284 1.273 . S
O284 C283 1.273 . S
O285 Zn276 1.977 . S
O285 C278 1.267 . S
C286 O287 1.160 . S
C286 O293 1.185 . S
O287 C286 1.160 . S
O288 Zn289 1.899 . S
O288 C296 1.284 . S
Zn289 O288 1.899 . S
Zn289 O290 2.032 . S
Zn289 O293 2.086 . S
Zn289 O298 1.977 . S
O290 Zn289 2.032 . S
O290 C294 1.278 . S
C291 O292 1.203 . S
C291 O298 1.267 . S
O292 C291 1.203 . S
O293 C286 1.185 . S
O293 Zn289 2.086 . S
C294 O290 1.278 . S
C294 O295 1.211 . S
O295 C294 1.211 . S
C296 O288 1.284 . S
C296 O297 1.273 . S
O297 C296 1.273 . S
O298 Zn289 1.977 . S
O298 C291 1.267 . S
C299 O300 1.160 . S
C299 O306 1.185 . S
O300 C299 1.160 . S
O301 Zn302 1.899 . S
O301 C309 1.284 . S
Zn302 O301 1.899 . S
Zn302 O303 2.032 . S
Zn302 O306 2.086 . S
Zn302 O311 1.977 . S
O303 Zn302 2.032 . S
O303 C307 1.278 . S
C304 O305 1.203 . S
C304 O311 1.267 . S
O305 C304 1.203 . S
O306 C299 1.185 . S
O306 Zn302 2.086 . S
C307 O303 1.278 . S
C307 O308 1.211 . S
O308 C307 1.211 . S
C309 O301 1.284 . S
C309 O310 1.273 . S
O310 C309 1.273 . S
O311 Zn302 1.977 . S
O311 C304 1.267 . S
C312 O313 1.160 . S
C312 O319 1.185 . S
O313 C312 1.160 . S
O314 Zn315 1.899 . S
O314 C322 1.284 . S
Zn315 O314 1.899 . S
Zn315 O316 2.032 . S
Zn315 O319 2.086 . S
Zn315 O324 1.977 . S
O316 Zn315 2.032 . S
O316 C320 1.278 . S
C317 O318 1.203 . S
C317 O324 1.267 . S
O318 C317 1.203 . S
O319 C312 1.185 . S
O319 Zn315 2.086 . S
C320 O316 1.278 . S
C320 O321 1.211 . S
O321 C320 1.211 . S
C322 O314 1.284 . S
C322 O323 1.273 . S
O323 C322 1.273 . S
O324 Zn315 1.977 . S
O324 C317 1.267 . S
C325 O326 1.160 . S
C325 O332 1.185 . S
O326 C325 1.160 . S
O327 Zn328 1.899 . S
O327 C335 1.284 . S
Zn328 O327 1.899 . S
Zn328 O329 2.032 . S
Zn328 O332 2.086 . S
Zn328 O337 1.977 . S
O329 Zn328 2.032 . S
O329 C333 1.278 . S
C330 O331 1.203 . S
C330 O337 1.267 . S
O331 C330 1.203 . S
O332 C325 1.185 . S
O332 Zn328 2.086 . S
C333 O329 1.278 . S
C333 O334 1.211 . S
O334 C333 1.211 . S
C335 O327 1.284 . S
C335 O336 1.273 . S
O336 C335 1.273 . S
O337 Zn328 1.977 . S
O337 C330 1.267 . S
C338 O339 1.160 . S
C338 O345 1.185 . S
O339 C338 1.160 . S
O340 Zn341 1.899 . S
O340 C348 1.284 . S
Zn341 O340 1.899 . S
Zn341 O342 2.032 . S
Zn341 O345 2.086 . S
Zn341 O350 1.977 . S
O342 Zn341 2.032 . S
O342 C346 1.278 . S
C343 O344 1.203 . S
C343 O350 1.267 . S
O344 C343 1.203 . S
O345 C338 1.185 . S
O345 Zn341 2.086 . S
C346 O342 1.278 . S
C346 O347 1.211 . S
O347 C346 1.211 . S
C348 O340 1.284 . S
C348 O349 1.273 . S
O349 C348 1.273 . S
O350 Zn341 1.977 . S
O350 C343 1.267 . S
C351 O352 1.160 . S
C351 O358 1.185 . S
O352 C351 1.160 . S
O353 Zn354 1.899 . S
O353 C361 1.284 . S
Zn354 O353 1.899 . S
Zn354 O355 2.032 . S
Zn354 O358 2.086 . S
Zn354 O363 1.977 . S
O355 Zn354 2.032 . S
O355 C359 1.278 . S
C356 O357 1.203 . S
C356 O363 1.267 . S
O357 C356 1.203 . S
O358 C351 1.185 . S
O358 Zn354 2.086 . S
C359 O355 1.278 . S
C359 O360 1.211 . S
O360 C359 1.211 . S
C361 O353 1.284 . S
C361 O362 1.273 . S
O362 C361 1.273 . S
O363 Zn354 1.977 . S
O363 C356 1.267 . S
C364 O365 1.160 . S
C364 O371 1.185 . S
O365 C364 1.160 . S
O366 Zn367 1.899 . S
O366 C374 1.284 . S
Zn367 O366 1.899 . S
Zn367 O368 2.032 . S
Zn367 O371 2.086 . S
Zn367 O376 1.977 . S
O368 Zn367 2.032 . S
O368 C372 1.278 . S
C369 O370 1.203 . S
C369 O376 1.267 . S
O370 C369 1.203 . S
O371 C364 1.185 . S
O371 Zn367 2.086 . S
C372 O368 1.278 . S
C372 O373 1.211 . S
O373 C372 1.211 . S
C374 O366 1.284 . S
C374 O375 1.273 . S
O375 C374 1.273 . S
O376 Zn367 1.977 . S
O376 C369 1.267 . S
C377 O378 1.160 . S
C377 O384 1.185 . S
O378 C377 1.160 . S
O379 Zn380 1.899 . S
O379 C387 1.284 . S
Zn380 O379 1.899 . S
Zn380 O381 2.032 . S
Zn380 O384 2.086 . S
Zn380 O389 1.977 . S
O381 Zn380 2.032 . S
O381 C385 1.278 . S
C382 O383 1.203 . S
C382 O389 1.267 . S
O383 C382 1.203 . S
O384 C377 1.185 . S
O384 Zn380 2.086 . S
C385 O381 1.278 . S
C385 O386 1.211 . S
O386 C385 1.211 . S
C387 O379 1.284 . S
C387 O388 1.273 . S
O388 C387 1.273 . S
O389 Zn380 1.977 . S
O389 C382 1.267 . S
C390 O391 1.160 . S
C390 O397 1.185 . S
O391 C390 1.160 . S
O392 Zn393 1.899 . S
O392 C400 1.284 . S
Zn393 O392 1.899 . S
Zn393 O394 2.032 . S
Zn393 O397 2.086 . S
Zn393 O402 1.977 . S
O394 Zn393 2.032 . S
O394 C398 1.278 . S
C395 O396 1.203 . S
C395 O402 1.267 . S
O396 C395 1.203 . S
O397 C390 1.185 . S
O397 Zn393 2.086 . S
C398 O394 1.278 . S
C398 O399 1.211 . S
O399 C398 1.211 . S
C400 O392 1.284 . S
C400 O401 1.273 . S
O401 C400 1.273 . S
O402 Zn393 1.977 . S
O402 C395 1.267 . S
C403 O404 1.160 . S
C403 O410 1.185 . S
O404 C403 1.160 . S
O405 Zn406 1.899 . S
O405 C413 1.284 . S
Zn406 O405 1.899 . S
Zn406 O407 2.032 . S
Zn406 O410 2.086 . S
Zn406 O415 1.977 . S
O407 Zn406 2.032 . S
O407 C411 1.278 . S
C408 O409 1.203 . S
C408 O415 1.267 . S
O409 C408 1.203 . S
O410 C403 1.185 . S
O410 Zn406 2.086 . S
C411 O407 1.278 . S
C411 O412 1.211 . S
O412 C411 1.211 . S
C413 O405 1.284 . S
C413 O414 1.273 . S
O414 C413 1.273 . S
O415 Zn406 1.977 . S
O415 C408 1.267 . S
C416 C417 1.349 . S
C416 C418 1.327 . S
C416 H441 0.950 . S
C417 C416 1.349 . S
C417 C433 1.349 . S
C418 C416 1.327 . S
C418 C437 1.429 . S
C418 H442 0.984 . S
C419 C436 1.574 1_545 S
C419 C438 1.368 1_655 S
C419 H443 0.949 . S
H420 C424 0.949 . S
C421 C422 1.349 . S
C421 C423 1.327 . S
C421 H444 0.950 . S
C422 C421 1.349 . S
C422 C434 1.349 . S
C423 C421 1.327 . S
C423 C439 1.429 . S
C423 H445 0.950 . S
C424 H420 0.949 . S
C424 C432 1.574 1_565 S
C424 C440 1.368 1_455 S
H425 C433 0.950 . S
H426 C431 0.950 . S
H427 C432 0.949 . S
H428 C434 0.950 . S
H429 C435 0.950 . S
H430 C436 0.949 . S
C431 H426 0.950 . S
C431 C433 1.327 . S
C431 C437 1.429 . S
C432 C424 1.574 1_545 S
C432 H427 0.949 . S
C432 C438 1.368 1_556 S
C433 C417 1.349 . S
C433 H425 0.950 . S
C433 C431 1.327 . S
C434 C422 1.349 . S
C434 H428 0.950 . S
C434 C435 1.327 . S
C435 H429 0.950 . S
C435 C434 1.327 . S
C435 C439 1.429 . S
C436 C419 1.574 1_565 S
C436 H430 0.949 . S
C436 C440 1.368 1_554 S
C437 C418 1.429 . S
C437 C431 1.429 . S
C437 C438 1.523 . S
C438 C419 1.368 1_455 S
C438 C432 1.368 1_554 S
C438 C437 1.523 . S
C439 C423 1.429 . S
C439 C435 1.429 . S
C439 C440 1.523 . S
C440 C424 1.368 1_655 S
C440 C436 1.368 1_556 S
C440 C439 1.523 . S
H441 C416 0.950 . S
H442 C418 0.984 . S
H443 C419 0.949 . S
H444 C421 0.950 . S
H445 C423 0.950 . S
C446 C447 1.349 . S
C446 C448 1.327 . S
C446 H471 0.950 . S
C447 C446 1.349 . S
C447 C463 1.349 . S
C448 C446 1.327 . S
C448 C467 1.429 . S
C448 H472 0.950 . S
C449 C466 1.574 . S
C449 C468 1.368 . S
C449 H473 0.949 . S
H450 C454 0.949 . S
C451 C452 1.349 . S
C451 C453 1.327 . S
C451 H474 0.950 . S
C452 C451 1.349 . S
C452 C464 1.349 . S
C453 C451 1.327 . S
C453 C469 1.429 . S
C453 H475 0.950 . S
C454 H450 0.949 . S
C454 C462 1.574 . S
C454 C470 1.368 . S
H455 C463 0.950 . S
H456 C461 0.950 . S
H457 C462 0.949 . S
H458 C464 0.950 . S
H459 C465 0.950 . S
H460 C466 0.949 . S
C461 H456 0.950 . S
C461 C463 1.327 . S
C461 C467 1.429 . S
C462 C454 1.574 . S
C462 H457 0.949 . S
C462 C468 1.368 . S
C463 C447 1.349 . S
C463 H455 0.950 . S
C463 C461 1.327 . S
C464 C452 1.349 . S
C464 H458 0.950 . S
C464 C465 1.327 . S
C465 H459 0.950 . S
C465 C464 1.327 . S
C465 C469 1.429 . S
C466 C449 1.574 . S
C466 H460 0.949 . S
C466 C470 1.368 . S
C467 C448 1.429 . S
C467 C461 1.429 . S
C467 C468 1.523 . S
C468 C449 1.368 . S
C468 C462 1.368 . S
C468 C467 1.523 . S
C469 C453 1.429 . S
C469 C465 1.429 . S
C469 C470 1.523 . S
C470 C454 1.368 . S
C470 C466 1.368 . S
C470 C469 1.523 . S
H471 C446 0.950 . S
H472 C448 0.950 . S
H473 C449 0.949 . S
H474 C451 0.950 . S
H475 C453 0.950 . S
C476 C477 1.349 . S
C476 C478 1.327 . S
C476 H501 0.950 . S
C477 C476 1.349 . S
C477 C493 1.349 . S
C478 C476 1.327 . S
C478 C497 1.429 . S
C478 H502 0.950 . S
C479 C496 1.574 . S
C479 C498 1.368 1_545 S
C479 H503 0.949 . S
H480 C484 0.950 . S
C481 C482 1.349 . S
C481 C483 1.327 . S
C481 H504 0.950 . S
C482 C481 1.349 . S
C482 C494 1.349 . S
C483 C481 1.327 . S
C483 C499 1.429 . S
C483 H505 0.950 . S
C484 H480 0.950 . S
C484 C492 1.582 . S
C484 C500 1.359 1_565 S
H485 C493 0.950 . S
H486 C491 0.950 . S
H487 C492 0.949 . S
H488 C494 0.950 . S
H489 C495 0.950 . S
H490 C496 0.949 . S
C491 H486 0.950 . S
C491 C493 1.327 . S
C491 C497 1.429 . S
C492 C484 1.582 . S
C492 H487 0.949 . S
C492 C498 1.368 . S
C493 C477 1.349 . S
C493 H485 0.950 . S
C493 C491 1.327 . S
C494 C482 1.349 . S
C494 H488 0.950 . S
C494 C495 1.327 . S
C495 H489 0.950 . S
C495 C494 1.327 . S
C495 C499 1.429 . S
C496 C479 1.574 . S
C496 H490 0.949 . S
C496 C500 1.368 . S
C497 C478 1.429 . S
C497 C491 1.429 . S
C497 C498 1.523 . S
C498 C479 1.368 1_565 S
C498 C492 1.368 . S
C498 C497 1.523 . S
C499 C483 1.429 . S
C499 C495 1.429 . S
C499 C500 1.523 . S
C500 C484 1.359 1_545 S
C500 C496 1.368 . S
C500 C499 1.523 . S
H501 C476 0.950 . S
H502 C478 0.950 . S
H503 C479 0.949 . S
H504 C481 0.950 . S
H505 C483 0.950 . S
C506 C507 1.349 . S
C506 C508 1.327 . S
C506 H531 0.950 . S
C507 C506 1.349 . S
C507 C523 1.349 . S
C508 C506 1.327 . S
C508 C527 1.429 . S
C508 H532 0.950 . S
C509 C526 1.574 . S
C509 C528 1.368 . S
C509 H533 0.949 . S
H510 C514 0.949 . S
C511 C512 1.349 . S
C511 C513 1.327 . S
C511 H534 0.950 . S
C512 C511 1.349 . S
C512 C524 1.349 . S
C513 C511 1.327 . S
C513 C529 1.429 . S
C513 H535 0.950 . S
C514 H510 0.949 . S
C514 C522 1.574 . S
C514 C530 1.368 . S
H515 C523 0.950 . S
H516 C521 0.950 . S
H517 C522 0.949 . S
H518 C524 0.950 . S
H519 C525 0.950 . S
H520 C526 0.949 . S
C521 H516 0.950 . S
C521 C523 1.327 . S
C521 C527 1.429 . S
C522 C514 1.574 . S
C522 H517 0.949 . S
C522 C528 1.368 . S
C523 C507 1.349 . S
C523 H515 0.950 . S
C523 C521 1.327 . S
C524 C512 1.349 . S
C524 H518 0.950 . S
C524 C525 1.327 . S
C525 H519 0.950 . S
C525 C524 1.327 . S
C525 C529 1.429 . S
C526 C509 1.574 . S
C526 H520 0.949 . S
C526 C530 1.368 . S
C527 C508 1.429 . S
C527 C521 1.429 . S
C527 C528 1.523 . S
C528 C509 1.368 . S
C528 C522 1.368 . S
C528 C527 1.523 . S
C529 C513 1.429 . S
C529 C525 1.429 . S
C529 C530 1.523 . S
C530 C514 1.368 . S
C530 C526 1.368 . S
C530 C529 1.523 . S
H531 C506 0.950 . S
H532 C508 0.950 . S
H533 C509 0.949 . S
H534 C511 0.950 . S
H535 C513 0.950 . S
C536 C537 1.349 . S
C536 C538 1.327 . S
C536 H561 0.950 . S
C537 C536 1.349 . S
C537 C553 1.349 . S
C538 C536 1.327 . S
C538 C557 1.429 . S
C538 H562 0.950 . S
C539 C556 1.574 1_565 S
C539 C558 1.368 . S
C539 H563 0.949 . S
H540 C544 0.955 . S
C541 C542 1.349 . S
C541 C543 1.327 . S
C541 H564 0.950 . S
C542 C541 1.349 . S
C542 C554 1.349 . S
C543 C541 1.327 . S
C543 C559 1.429 . S
C543 H565 0.937 1_655 S
C544 H540 0.955 . S
C544 C552 1.567 1_545 S
C544 C560 1.374 . S
H545 C553 0.950 . S
H546 C551 0.950 . S
H547 C552 0.951 . S
H548 C554 0.950 . S
H549 C555 0.950 . S
H550 C556 0.949 . S
C551 H546 0.950 . S
C551 C553 1.327 . S
C551 C557 1.429 . S
C552 C544 1.567 1_565 S
C552 H547 0.951 . S
C552 C558 1.360 1_655 S
C553 C537 1.349 . S
C553 H545 0.950 . S
C553 C551 1.327 . S
C554 C542 1.349 . S
C554 H548 0.950 . S
C554 C555 1.327 . S
C555 H549 0.950 . S
C555 C554 1.327 . S
C555 C559 1.429 . S
C556 C539 1.574 1_545 S
C556 H550 0.949 . S
C556 C560 1.368 1_455 S
C557 C538 1.429 . S
C557 C551 1.429 . S
C557 C558 1.523 . S
C558 C539 1.368 . S
C558 C552 1.360 1_455 S
C558 C557 1.523 . S
C559 C543 1.429 . S
C559 C555 1.429 . S
C559 C560 1.523 . S
C560 C544 1.374 . S
C560 C556 1.368 1_655 S
C560 C559 1.523 . S
H561 C536 0.950 . S
H562 C538 0.950 . S
H563 C539 0.949 . S
H564 C541 0.950 . S
H565 C543 0.937 1_455 S
C566 C567 1.349 . S
C566 C568 1.327 . S
C566 H591 0.950 . S
C567 C566 1.349 . S
C567 C583 1.349 . S
C568 C566 1.327 . S
C568 C587 1.429 . S
C568 H592 0.950 . S
C569 C586 1.574 . S
C569 C588 1.368 . S
C569 H593 0.949 . S
H570 C574 0.949 . S
C571 C572 1.349 . S
C571 C573 1.327 . S
C571 H594 0.950 . S
C572 C571 1.349 . S
C572 C584 1.349 . S
C573 C571 1.327 . S
C573 C589 1.429 . S
C573 H595 0.950 . S
C574 H570 0.949 . S
C574 C582 1.574 . S
C574 C590 1.368 . S
H575 C583 0.950 . S
H576 C581 0.950 . S
H577 C582 0.949 . S
H578 C584 0.950 . S
H579 C585 0.950 . S
H580 C586 0.949 . S
C581 H576 0.950 . S
C581 C583 1.327 . S
C581 C587 1.429 . S
C582 C574 1.574 . S
C582 H577 0.949 . S
C582 C588 1.368 . S
C583 C567 1.349 . S
C583 H575 0.950 . S
C583 C581 1.327 . S
C584 C572 1.349 . S
C584 H578 0.950 . S
C584 C585 1.327 . S
C585 H579 0.950 . S
C585 C584 1.327 . S
C585 C589 1.429 . S
C586 C569 1.574 . S
C586 H580 0.949 . S
C586 C590 1.368 . S
C587 C568 1.429 . S
C587 C581 1.429 . S
C587 C588 1.523 . S
C588 C569 1.368 . S
C588 C582 1.368 . S
C588 C587 1.523 . S
C589 C573 1.429 . S
C589 C585 1.429 . S
C589 C590 1.523 . S
C590 C574 1.368 . S
C590 C586 1.368 . S
C590 C589 1.523 . S
H591 C566 0.950 . S
H592 C568 0.950 . S
H593 C569 0.949 . S
H594 C571 0.950 . S
H595 C573 0.950 . S
C596 C597 1.349 . S
C596 C598 1.327 . S
C596 H621 0.950 . S
C597 C596 1.349 . S
C597 C613 1.349 . S
C598 C596 1.327 . S
C598 C617 1.429 . S
C598 H622 0.950 . S
C599 C616 1.574 1_556 S
C599 C618 1.368 . S
C599 H623 0.949 . S
H600 C604 0.949 . S
C601 C602 1.349 . S
C601 C603 1.327 . S
C601 H624 0.950 . S
C602 C601 1.349 . S
C602 C614 1.349 . S
C603 C601 1.327 . S
C603 C619 1.429 . S
C603 H625 0.950 . S
C604 H600 0.949 . S
C604 C612 1.571 . S
C604 C620 1.368 . S
H605 C613 0.950 . S
H606 C611 0.950 . S
H607 C612 0.949 . S
H608 C614 0.950 . S
H609 C615 0.950 . S
H610 C616 0.949 . S
C611 H606 0.950 . S
C611 C613 1.327 . S
C611 C617 1.429 . S
C612 C604 1.571 . S
C612 H607 0.949 . S
C612 C618 1.371 1_564 S
C613 C597 1.349 . S
C613 H605 0.950 . S
C613 C611 1.327 . S
C614 C602 1.349 . S
C614 H608 0.950 . S
C614 C615 1.327 . S
C615 H609 0.950 . S
C615 C614 1.327 . S
C615 C619 1.429 . S
C616 C599 1.574 1_554 S
C616 H610 0.949 . S
C616 C620 1.368 1_545 S
C617 C598 1.429 . S
C617 C611 1.429 . S
C617 C618 1.523 . S
C618 C599 1.368 . S
C618 C612 1.371 1_546 S
C618 C617 1.523 . S
C619 C603 1.429 . S
C619 C615 1.429 . S
C619 C620 1.523 . S
C620 C604 1.368 . S
C620 C616 1.368 1_565 S
C620 C619 1.523 . S
H621 C596 0.950 . S
H622 C598 0.950 . S
H623 C599 0.949 . S
H624 C601 0.950 . S
H625 C603 0.950 . S
C626 C627 1.349 . S
C626 C628 1.327 . S
C626 H651 0.950 . S
C627 C626 1.349 . S
C627 C643 1.349 . S
C628 C626 1.327 . S
C628 C647 1.429 . S
C628 H652 0.950 . S
C629 C646 1.574 . S
C629 C648 1.368 . S
C629 H653 0.949 . S
H630 C634 0.949 . S
C631 C632 1.349 . S
C631 C633 1.327 . S
C631 H654 0.950 . S
C632 C631 1.349 . S
C632 C644 1.349 . S
C633 C631 1.327 . S
C633 C649 1.429 . S
C633 H655 0.950 . S
C634 H630 0.949 . S
C634 C642 1.574 . S
C634 C650 1.368 . S
H635 C643 0.950 . S
H636 C641 0.950 . S
H637 C642 0.949 . S
H638 C644 0.950 . S
H639 C645 0.950 . S
H640 C646 0.949 . S
C641 H636 0.950 . S
C641 C643 1.327 . S
C641 C647 1.429 . S
C642 C634 1.574 . S
C642 H637 0.949 . S
C642 C648 1.368 . S
C643 C627 1.349 . S
C643 H635 0.950 . S
C643 C641 1.327 . S
C644 C632 1.349 . S
C644 H638 0.950 . S
C644 C645 1.327 . S
C645 H639 0.950 . S
C645 C644 1.327 . S
C645 C649 1.429 . S
C646 C629 1.574 . S
C646 H640 0.949 . S
C646 C650 1.368 . S
C647 C628 1.429 . S
C647 C641 1.429 . S
C647 C648 1.523 . S
C648 C629 1.368 . S
C648 C642 1.368 . S
C648 C647 1.523 . S
C649 C633 1.429 . S
C649 C645 1.429 . S
C649 C650 1.523 . S
C650 C634 1.368 . S
C650 C646 1.368 . S
C650 C649 1.523 . S
H651 C626 0.950 . S
H652 C628 0.950 . S
H653 C629 0.949 . S
H654 C631 0.950 . S
H655 C633 0.950 . S
C656 C657 1.349 . S
C656 C658 1.327 . S
C656 H681 0.950 . S
C657 C656 1.349 . S
C657 C673 1.349 . S
C658 C656 1.327 . S
C658 C677 1.429 . S
C658 H682 0.950 . S
C659 C676 1.574 . S
C659 C678 1.368 1_556 S
C659 H683 0.949 . S
H660 C664 0.949 . S
C661 C662 1.349 . S
C661 C663 1.327 . S
C661 H684 0.950 . S
C662 C661 1.349 . S
C662 C674 1.349 . S
C663 C661 1.327 . S
C663 C679 1.429 . S
C663 H685 0.950 . S
C664 H660 0.949 . S
C664 C672 1.574 . S
C664 C680 1.368 1_554 S
H665 C673 0.950 . S
H666 C671 0.950 . S
H667 C672 0.949 . S
H668 C674 0.950 . S
H669 C675 0.950 . S
H670 C676 0.949 . S
C671 H666 0.950 . S
C671 C673 1.327 . S
C671 C677 1.429 . S
C672 C664 1.574 . S
C672 H667 0.949 . S
C672 C678 1.368 . S
C673 C657 1.349 . S
C673 H665 0.950 . S
C673 C671 1.327 . S
C674 C662 1.349 . S
C674 H668 0.950 . S
C674 C675 1.327 . S
C675 H669 0.950 . S
C675 C674 1.327 . S
C675 C679 1.429 . S
C676 C659 1.574 . S
C676 H670 0.949 . S
C676 C680 1.368 . S
C677 C658 1.429 . S
C677 C671 1.429 . S
C677 C678 1.523 . S
C678 C659 1.368 1_554 S
C678 C672 1.368 . S
C678 C677 1.523 . S
C679 C663 1.429 . S
C679 C675 1.429 . S
C679 C680 1.523 . S
C680 C664 1.368 1_556 S
C680 C676 1.368 . S
C680 C679 1.523 . S
H681 C656 0.950 . S
H682 C658 0.950 . S
H683 C659 0.949 . S
H684 C661 0.950 . S
H685 C663 0.950 . S
C686 C687 1.349 . S
C686 C688 1.327 . S
C686 H711 0.950 . S
C687 C686 1.349 . S
C687 C703 1.349 . S
C688 C686 1.327 . S
C688 C707 1.429 . S
C688 H712 0.950 . S
C689 C706 1.574 . S
C689 C708 1.368 . S
C689 H713 0.949 . S
H690 C694 0.949 . S
C691 C692 1.349 . S
C691 C693 1.327 . S
C691 H714 0.950 . S
C692 C691 1.349 . S
C692 C704 1.349 . S
C693 C691 1.327 . S
C693 C709 1.429 . S
C693 H715 0.950 . S
C694 H690 0.949 . S
C694 C702 1.574 . S
C694 C710 1.368 . S
H695 C703 0.950 . S
H696 C701 0.950 . S
H697 C702 0.949 . S
H698 C704 0.950 . S
H699 C705 0.950 . S
H700 C706 0.949 . S
C701 H696 0.950 . S
C701 C703 1.327 . S
C701 C707 1.429 . S
C702 C694 1.574 . S
C702 H697 0.949 . S
C702 C708 1.368 . S
C703 C687 1.349 . S
C703 H695 0.950 . S
C703 C701 1.327 . S
C704 C692 1.349 . S
C704 H698 0.950 . S
C704 C705 1.327 . S
C705 H699 0.950 . S
C705 C704 1.327 . S
C705 C709 1.429 . S
C706 C689 1.574 . S
C706 H700 0.949 . S
C706 C710 1.368 . S
C707 C688 1.429 . S
C707 C701 1.429 . S
C707 C708 1.523 . S
C708 C689 1.368 . S
C708 C702 1.368 . S
C708 C707 1.523 . S
C709 C693 1.429 . S
C709 C705 1.429 . S
C709 C710 1.523 . S
C710 C694 1.368 . S
C710 C706 1.368 . S
C710 C709 1.523 . S
H711 C686 0.950 . S
H712 C688 0.950 . S
H713 C689 0.949 . S
H714 C691 0.950 . S
H715 C693 0.950 . S
C716 C717 1.349 . S
C716 C718 1.327 . S
C716 H741 0.950 . S
C717 C716 1.349 . S
C717 C733 1.349 . S
C718 C716 1.327 . S
C718 C737 1.429 . S
C718 H742 0.950 . S
C719 C736 1.574 . S
C719 C738 1.368 1_655 S
C719 H743 0.949 . S
H720 C724 0.949 . S
C721 C722 1.349 . S
C721 C723 1.327 . S
C721 H744 0.950 . S
C722 C721 1.349 . S
C722 C734 1.349 . S
C723 C721 1.327 . S
C723 C739 1.429 . S
C723 H745 0.950 . S
C724 H720 0.949 . S
C724 C732 1.574 1_655 S
C724 C740 1.368 . S
H725 C733 0.950 . S
H726 C731 0.950 . S
H727 C732 0.949 . S
H728 C734 0.950 . S
H729 C735 0.950 . S
H730 C736 0.949 . S
C731 H726 0.950 . S
C731 C733 1.327 . S
C731 C737 1.429 . S
C732 C724 1.574 1_455 S
C732 H727 0.949 . S
C732 C738 1.368 . S
C733 C717 1.349 . S
C733 H725 0.950 . S
C733 C731 1.327 . S
C734 C722 1.349 . S
C734 H728 0.950 . S
C734 C735 1.327 . S
C735 H729 0.950 . S
C735 C734 1.327 . S
C735 C739 1.429 . S
C736 C719 1.574 . S
C736 H730 0.949 . S
C736 C740 1.368 . S
C737 C718 1.429 . S
C737 C731 1.429 . S
C737 C738 1.523 . S
C738 C719 1.368 1_455 S
C738 C732 1.368 . S
C738 C737 1.523 . S
C739 C723 1.429 . S
C739 C735 1.429 . S
C739 C740 1.523 . S
C740 C724 1.368 . S
C740 C736 1.368 . S
C740 C739 1.523 . S
H741 C716 0.950 . S
H742 C718 0.950 . S
H743 C719 0.949 . S
H744 C721 0.950 . S
H745 C723 0.950 . S
C746 C747 1.349 . S
C746 C748 1.327 . S
C746 H771 0.950 . S
C747 C746 1.349 . S
C747 C763 1.349 . S
C748 C746 1.327 . S
C748 C767 1.429 . S
C748 H772 0.950 . S
C749 C766 1.574 . S
C749 C768 1.368 . S
C749 H773 0.949 . S
H750 C754 0.949 . S
C751 C752 1.349 . S
C751 C753 1.327 . S
C751 H774 0.950 . S
C752 C751 1.349 . S
C752 C764 1.349 . S
C753 C751 1.327 . S
C753 C769 1.429 . S
C753 H775 0.950 . S
C754 H750 0.949 . S
C754 C762 1.574 . S
C754 C770 1.368 . S
H755 C763 0.950 . S
H756 C761 0.950 . S
H757 C762 0.949 . S
H758 C764 0.950 . S
H759 C765 0.950 . S
H760 C766 0.949 . S
C761 H756 0.950 . S
C761 C763 1.327 . S
C761 C767 1.429 . S
C762 C754 1.574 . S
C762 H757 0.949 . S
C762 C768 1.368 . S
C763 C747 1.349 . S
C763 H755 0.950 . S
C763 C761 1.327 . S
C764 C752 1.349 . S
C764 H758 0.950 . S
C764 C765 1.327 . S
C765 H759 0.950 . S
C765 C764 1.327 . S
C765 C769 1.429 . S
C766 C749 1.574 . S
C766 H760 0.949 . S
C766 C770 1.368 . S
C767 C748 1.429 . S
C767 C761 1.429 . S
C767 C768 1.523 . S
C768 C749 1.368 . S
C768 C762 1.368 . S
C768 C767 1.523 . S
C769 C753 1.429 . S
C769 C765 1.429 . S
C769 C770 1.523 . S
C770 C754 1.368 . S
C770 C766 1.368 . S
C770 C769 1.523 . S
H771 C746 0.950 . S
H772 C748 0.950 . S
H773 C749 0.949 . S
H774 C751 0.950 . S
H775 C753 0.950 . S
C776 C777 1.349 . S
C776 C778 1.327 . S
C776 H801 0.950 . S
C777 C776 1.349 . S
C777 C793 1.349 . S
C778 C776 1.327 . S
C778 C797 1.429 . S
C778 H802 0.950 . S
C779 C796 1.574 . S
C779 C798 1.368 . S
C779 H803 0.949 . S
H780 C784 0.949 . S
C781 C782 1.349 . S
C781 C783 1.327 . S
C781 H804 0.950 . S
C782 C781 1.349 . S
C782 C794 1.349 . S
C783 C781 1.327 . S
C783 C799 1.429 . S
C783 H805 0.950 . S
C784 H780 0.949 . S
C784 C792 1.574 . S
C784 C800 1.368 . S
H785 C793 0.950 . S
H786 C791 0.950 . S
H787 C792 0.949 . S
H788 C794 0.950 . S
H789 C795 0.950 . S
H790 C796 0.949 . S
C791 H786 0.950 . S
C791 C793 1.327 . S
C791 C797 1.429 . S
C792 C784 1.574 . S
C792 H787 0.949 . S
C792 C798 1.368 . S
C793 C777 1.349 . S
C793 H785 0.950 . S
C793 C791 1.327 . S
C794 C782 1.349 . S
C794 H788 0.950 . S
C794 C795 1.327 . S
C795 H789 0.950 . S
C795 C794 1.327 . S
C795 C799 1.429 . S
C796 C779 1.574 . S
C796 H790 0.949 . S
C796 C800 1.368 . S
C797 C778 1.429 . S
C797 C791 1.429 . S
C797 C798 1.523 . S
C798 C779 1.368 . S
C798 C792 1.368 . S
C798 C797 1.523 . S
C799 C783 1.429 . S
C799 C795 1.429 . S
C799 C800 1.523 . S
C800 C784 1.368 . S
C800 C796 1.368 . S
C800 C799 1.523 . S
H801 C776 0.950 . S
H802 C778 0.950 . S
H803 C779 0.949 . S
H804 C781 0.950 . S
H805 C783 0.950 . S
C806 C807 1.349 . S
C806 C808 1.327 . S
C806 H831 0.950 . S
C807 C806 1.349 . S
C807 C823 1.349 . S
C808 C806 1.327 . S
C808 C827 1.429 . S
C808 H832 0.950 . S
C809 C826 1.574 . S
C809 C828 1.368 . S
C809 H833 0.949 . S
H810 C814 0.949 . S
C811 C812 1.349 . S
C811 C813 1.327 . S
C811 H834 0.950 . S
C812 C811 1.349 . S
C812 C824 1.349 . S
C813 C811 1.327 . S
C813 C829 1.429 . S
C813 H835 0.950 . S
C814 H810 0.949 . S
C814 C822 1.574 . S
C814 C830 1.368 . S
H815 C823 0.950 . S
H816 C821 0.950 . S
H817 C822 0.949 . S
H818 C824 0.950 . S
H819 C825 0.950 . S
H820 C826 0.949 . S
C821 H816 0.950 . S
C821 C823 1.327 . S
C821 C827 1.429 . S
C822 C814 1.574 . S
C822 H817 0.949 . S
C822 C828 1.368 . S
C823 C807 1.349 . S
C823 H815 0.950 . S
C823 C821 1.327 . S
C824 C812 1.349 . S
C824 H818 0.950 . S
C824 C825 1.327 . S
C825 H819 0.950 . S
C825 C824 1.327 . S
C825 C829 1.429 . S
C826 C809 1.574 . S
C826 H820 0.949 . S
C826 C830 1.368 . S
C827 C808 1.429 . S
C827 C821 1.429 . S
C827 C828 1.523 . S
C828 C809 1.368 . S
C828 C822 1.368 . S
C828 C827 1.523 . S
C829 C813 1.429 . S
C829 C825 1.429 . S
C829 C830 1.523 . S
C830 C814 1.368 . S
C830 C826 1.368 . S
C830 C829 1.523 . S
H831 C806 0.950 . S
H832 C808 0.950 . S
H833 C809 0.949 . S
H834 C811 0.950 . S
H835 C813 0.950 . S
C836 C837 1.349 . S
C836 C838 1.327 . S
C836 H861 0.950 . S
C837 C836 1.349 . S
C837 C853 1.349 . S
C838 C836 1.327 . S
C838 C857 1.429 . S
C838 H862 0.950 . S
C839 C856 1.574 . S
C839 C858 1.368 . S
C839 H863 0.949 . S
H840 C844 0.949 . S
C841 C842 1.349 . S
C841 C843 1.327 . S
C841 H864 0.950 . S
C842 C841 1.349 . S
C842 C854 1.349 . S
C843 C841 1.327 . S
C843 C859 1.429 . S
C843 H865 0.950 . S
C844 H840 0.949 . S
C844 C852 1.574 . S
C844 C860 1.368 . S
H845 C853 0.950 . S
H846 C851 0.950 . S
H847 C852 0.949 . S
H848 C854 0.950 . S
H849 C855 0.950 . S
H850 C856 0.949 . S
C851 H846 0.950 . S
C851 C853 1.327 . S
C851 C857 1.429 . S
C852 C844 1.574 . S
C852 H847 0.949 . S
C852 C858 1.368 . S
C853 C837 1.349 . S
C853 H845 0.950 . S
C853 C851 1.327 . S
C854 C842 1.349 . S
C854 H848 0.950 . S
C854 C855 1.327 . S
C855 H849 0.950 . S
C855 C854 1.327 . S
C855 C859 1.429 . S
C856 C839 1.574 . S
C856 H850 0.949 . S
C856 C860 1.368 . S
C857 C838 1.429 . S
C857 C851 1.429 . S
C857 C858 1.523 . S
C858 C839 1.368 . S
C858 C852 1.368 . S
C858 C857 1.523 . S
C859 C843 1.429 . S
C859 C855 1.429 . S
C859 C860 1.523 . S
C860 C844 1.368 . S
C860 C856 1.368 . S
C860 C859 1.523 . S
H861 C836 0.950 . S
H862 C838 0.950 . S
H863 C839 0.949 . S
H864 C841 0.950 . S
H865 C843 0.950 . S
C866 C867 1.349 . S
C866 C868 1.327 . S
C866 H891 0.950 . S
C867 C866 1.349 . S
C867 C883 1.349 . S
C868 C866 1.327 . S
C868 C887 1.429 . S
C868 H892 0.950 . S
C869 C886 1.574 . S
C869 C888 1.368 . S
C869 H893 0.949 . S
H870 C874 0.949 . S
C871 C872 1.349 . S
C871 C873 1.327 . S
C871 H894 0.950 . S
C872 C871 1.349 . S
C872 C884 1.349 . S
C873 C871 1.327 . S
C873 C889 1.429 . S
C873 H895 0.950 . S
C874 H870 0.949 . S
C874 C882 1.574 1_554 S
C874 C890 1.368 . S
H875 C883 0.950 . S
H876 C881 0.950 . S
H877 C882 0.949 . S
H878 C884 0.950 . S
H879 C885 0.950 . S
H880 C886 0.949 . S
C881 H876 0.950 . S
C881 C883 1.327 . S
C881 C887 1.429 . S
C882 C874 1.574 1_556 S
C882 H877 0.949 . S
C882 C888 1.368 1_655 S
C883 C867 1.349 . S
C883 H875 0.950 . S
C883 C881 1.327 . S
C884 C872 1.349 . S
C884 H878 0.950 . S
C884 C885 1.327 . S
C885 H879 0.950 . S
C885 C884 1.327 . S
C885 C889 1.429 . S
C886 C869 1.574 . S
C886 H880 0.949 . S
C886 C890 1.368 1_456 S
C887 C868 1.429 . S
C887 C881 1.429 . S
C887 C888 1.523 . S
C888 C869 1.368 . S
C888 C882 1.368 1_455 S
C888 C887 1.523 . S
C889 C873 1.429 . S
C889 C885 1.429 . S
C889 C890 1.523 . S
C890 C874 1.368 . S
C890 C886 1.368 1_654 S
C890 C889 1.523 . S
H891 C866 0.950 . S
H892 C868 0.950 . S
H893 C869 0.949 . S
H894 C871 0.950 . S
H895 C873 0.950 . S
C896 C897 1.349 . S
C896 C898 1.327 . S
C896 H921 0.950 . S
C897 C896 1.349 . S
C897 C913 1.349 . S
C898 C896 1.327 . S
C898 C917 1.429 . S
C898 H922 0.950 1_545 S
C899 C916 1.574 . S
C899 C918 1.368 . S
C899 H923 0.949 1_565 S
H900 C904 0.949 . S
C901 C902 1.349 . S
C901 C903 1.327 . S
C901 H924 0.950 . S
C902 C901 1.349 . S
C902 C914 1.349 . S
C903 C901 1.327 . S
C903 C919 1.429 . S
C903 H925 0.950 . S
C904 H900 0.949 . S
C904 C912 1.574 . S
C904 C920 1.368 . S
H905 C913 0.950 . S
H906 C911 0.950 . S
H907 C912 0.949 . S
H908 C914 0.950 . S
H909 C915 0.950 . S
H910 C916 0.949 . S
C911 H906 0.950 . S
C911 C913 1.327 . S
C911 C917 1.429 . S
C912 C904 1.574 . S
C912 H907 0.949 . S
C912 C918 1.368 . S
C913 C897 1.349 . S
C913 H905 0.950 . S
C913 C911 1.327 . S
C914 C902 1.349 . S
C914 H908 0.950 . S
C914 C915 1.327 . S
C915 H909 0.950 . S
C915 C914 1.327 . S
C915 C919 1.429 . S
C916 C899 1.574 . S
C916 H910 0.949 . S
C916 C920 1.368 . S
C917 C898 1.429 . S
C917 C911 1.429 . S
C917 C918 1.523 1_545 S
C918 C899 1.368 . S
C918 C912 1.368 . S
C918 C917 1.523 1_565 S
C919 C903 1.429 . S
C919 C915 1.429 . S
C919 C920 1.523 . S
C920 C904 1.368 . S
C920 C916 1.368 . S
C920 C919 1.523 . S
H921 C896 0.950 . S
H922 C898 0.950 1_565 S
H923 C899 0.949 1_545 S
H924 C901 0.950 . S
H925 C903 0.950 . S
C926 C927 1.349 . S
C926 C928 1.327 . S
C926 H951 0.950 . S
C927 C926 1.349 . S
C927 C943 1.349 . S
C928 C926 1.327 . S
C928 C947 1.429 . S
C928 H952 0.950 . S
C929 C946 1.574 . S
C929 C948 1.368 . S
C929 H953 0.949 . S
H930 C934 0.949 . S
C931 C932 1.349 . S
C931 C933 1.327 . S
C931 H954 0.950 . S
C932 C931 1.349 . S
C932 C944 1.349 . S
C933 C931 1.327 . S
C933 C949 1.429 . S
C933 H955 0.950 . S
C934 H930 0.949 . S
C934 C942 1.574 . S
C934 C950 1.368 . S
H935 C943 0.950 . S
H936 C941 0.950 . S
H937 C942 0.949 . S
H938 C944 0.950 . S
H939 C945 0.950 . S
H940 C946 0.949 . S
C941 H936 0.950 . S
C941 C943 1.327 . S
C941 C947 1.429 . S
C942 C934 1.574 . S
C942 H937 0.949 . S
C942 C948 1.368 . S
C943 C927 1.349 . S
C943 H935 0.950 . S
C943 C941 1.327 . S
C944 C932 1.349 . S
C944 H938 0.950 . S
C944 C945 1.327 . S
C945 H939 0.950 . S
C945 C944 1.327 . S
C945 C949 1.429 . S
C946 C929 1.574 . S
C946 H940 0.949 . S
C946 C950 1.368 . S
C947 C928 1.429 . S
C947 C941 1.429 . S
C947 C948 1.523 . S
C948 C929 1.368 . S
C948 C942 1.368 . S
C948 C947 1.523 . S
C949 C933 1.429 . S
C949 C945 1.429 . S
C949 C950 1.523 . S
C950 C934 1.368 . S
C950 C946 1.368 . S
C950 C949 1.523 . S
H951 C926 0.950 . S
H952 C928 0.950 . S
H953 C929 0.949 . S
H954 C931 0.950 . S
H955 C933 0.950 . S
C956 C957 1.349 . S
C956 C958 1.327 . S
C956 H981 0.950 . S
C957 C956 1.349 . S
C957 C973 1.349 . S
C958 C956 1.327 . S
C958 C977 1.429 . S
C958 H982 0.950 . S
C959 C976 1.574 . S
C959 C978 1.368 . S
C959 H983 0.949 . S
H960 C964 0.949 . S
C961 C962 1.349 . S
C961 C963 1.327 . S
C961 H984 0.950 . S
C962 C961 1.349 . S
C962 C974 1.349 . S
C963 C961 1.327 . S
C963 C979 1.429 . S
C963 H985 0.950 1_565 S
C964 H960 0.949 . S
C964 C972 1.574 1_565 S
C964 C980 1.368 1_565 S
H965 C973 0.950 . S
H966 C971 0.950 . S
H967 C972 0.949 . S
H968 C974 0.950 . S
H969 C975 0.950 . S
H970 C976 0.949 . S
C971 H966 0.950 . S
C971 C973 1.327 . S
C971 C977 1.429 . S
C972 C964 1.574 1_545 S
C972 H967 0.949 . S
C972 C978 1.368 . S
C973 C957 1.349 . S
C973 H965 0.950 . S
C973 C971 1.327 . S
C974 C962 1.349 . S
C974 H968 0.950 . S
C974 C975 1.327 . S
C975 H969 0.950 . S
C975 C974 1.327 . S
C975 C979 1.429 . S
C976 C959 1.574 . S
C976 H970 0.949 . S
C976 C980 1.368 . S
C977 C958 1.429 . S
C977 C971 1.429 . S
C977 C978 1.523 . S
C978 C959 1.368 . S
C978 C972 1.368 . S
C978 C977 1.523 . S
C979 C963 1.429 . S
C979 C975 1.429 . S
C979 C980 1.523 1_565 S
C980 C964 1.368 1_545 S
C980 C976 1.368 . S
C980 C979 1.523 1_545 S
H981 C956 0.950 . S
H982 C958 0.950 . S
H983 C959 0.949 . S
H984 C961 0.950 . S
H985 C963 0.950 1_545 S
C986 C987 1.349 . S
C986 C988 1.327 . S
C986 H1011 0.950 . S
C987 C986 1.349 . S
C987 C1003 1.349 . S
C988 C986 1.327 . S
C988 C1007 1.429 . S
C988 H1012 0.950 . S
C989 C1006 1.574 . S
C989 C1008 1.368 . S
C989 H1013 0.949 . S
H990 C994 0.949 1_554 S
C991 C992 1.349 . S
C991 C993 1.327 . S
C991 H1014 0.950 . S
C992 C991 1.349 . S
C992 C1004 1.349 . S
C993 C991 1.327 . S
C993 C1009 1.429 . S
C993 H1015 0.950 . S
C994 H990 0.949 1_556 S
C994 C1002 1.574 . S
C994 C1010 1.368 . S
H995 C1003 0.950 . S
H996 C1001 0.950 . S
H997 C1002 0.949 . S
H998 C1004 0.950 . S
H999 C1005 0.950 . S
H1000 C1006 0.949 . S
C1001 H996 0.950 . S
C1001 C1003 1.327 . S
C1001 C1007 1.429 . S
C1002 C994 1.574 . S
C1002 H997 0.949 . S
C1002 C1008 1.368 . S
C1003 C987 1.349 . S
C1003 H995 0.950 . S
C1003 C1001 1.327 . S
C1004 C992 1.349 . S
C1004 H998 0.950 . S
C1004 C1005 1.327 . S
C1005 H999 0.950 . S
C1005 C1004 1.327 . S
C1005 C1009 1.429 . S
C1006 C989 1.574 . S
C1006 H1000 0.949 . S
C1006 C1010 1.368 . S
C1007 C988 1.429 . S
C1007 C1001 1.429 . S
C1007 C1008 1.523 . S
C1008 C989 1.368 . S
C1008 C1002 1.368 . S
C1008 C1007 1.523 . S
C1009 C993 1.429 . S
C1009 C1005 1.429 . S
C1009 C1010 1.523 1_554 S
C1010 C994 1.368 . S
C1010 C1006 1.368 . S
C1010 C1009 1.523 1_556 S
H1011 C986 0.950 . S
H1012 C988 0.950 . S
H1013 C989 0.949 . S
H1014 C991 0.950 . S
H1015 C993 0.950 . S
C1016 C1017 1.349 . S
C1016 C1018 1.327 . S
C1016 H1041 0.950 . S
C1017 C1016 1.349 . S
C1017 C1033 1.349 . S
C1018 C1016 1.327 . S
C1018 C1037 1.429 . S
C1018 H1042 0.950 . S
C1019 C1036 1.561 1_545 S
C1019 C1038 1.368 . S
C1019 H1043 0.949 . S
H1020 C1024 0.949 . S
C1021 C1022 1.349 . S
C1021 C1023 1.327 . S
C1021 H1044 0.950 . S
C1022 C1021 1.349 . S
C1022 C1034 1.349 . S
C1023 C1021 1.327 . S
C1023 C1039 1.429 . S
C1023 H1045 0.950 . S
C1024 H1020 0.949 . S
C1024 C1032 1.574 . S
C1024 C1040 1.353 1_545 S
H1025 C1033 0.950 . S
H1026 C1031 0.950 . S
H1027 C1032 0.949 . S
H1028 C1034 0.950 . S
H1029 C1035 0.950 . S
H1030 C1036 0.961 . S
C1031 H1026 0.950 . S
C1031 C1033 1.327 . S
C1031 C1037 1.429 . S
C1032 C1024 1.574 . S
C1032 H1027 0.949 . S
C1032 C1038 1.368 . S
C1033 C1017 1.349 . S
C1033 H1025 0.950 . S
C1033 C1031 1.327 . S
C1034 C1022 1.349 . S
C1034 H1028 0.950 . S
C1034 C1035 1.327 . S
C1035 H1029 0.950 . S
C1035 C1034 1.327 . S
C1035 C1039 1.429 . S
C1036 C1019 1.561 1_565 S
C1036 H1030 0.961 . S
C1036 C1040 1.369 . S
C1037 C1018 1.429 . S
C1037 C1031 1.429 . S
C1037 C1038 1.523 . S
C1038 C1019 1.368 . S
C1038 C1032 1.368 . S
C1038 C1037 1.523 . S
C1039 C1023 1.429 . S
C1039 C1035 1.429 . S
C1039 C1040 1.542 . S
C1040 C1024 1.353 1_565 S
C1040 C1036 1.369 . S
C1040 C1039 1.542 . S
H1041 C1016 0.950 . S
H1042 C1018 0.950 . S
H1043 C1019 0.949 . S
H1044 C1021 0.950 . S
H1045 C1023 0.950 . S
C1046 C1047 1.349 . S
C1046 C1048 1.327 . S
C1046 H1071 0.950 . S
C1047 C1046 1.349 . S
C1047 C1063 1.349 . S
C1048 C1046 1.327 . S
C1048 C1067 1.429 . S
C1048 H1072 0.950 . S
C1049 C1066 1.574 . S
C1049 C1068 1.368 . S
C1049 H1073 0.949 . S
H1050 C1054 0.949 . S
C1051 C1052 1.349 . S
C1051 C1053 1.327 . S
C1051 H1074 0.950 . S
C1052 C1051 1.349 . S
C1052 C1064 1.349 . S
C1053 C1051 1.327 . S
C1053 C1069 1.429 . S
C1053 H1075 0.950 . S
C1054 H1050 0.949 . S
C1054 C1062 1.574 . S
C1054 C1070 1.368 . S
H1055 C1063 0.950 . S
H1056 C1061 0.950 . S
H1057 C1062 0.949 . S
H1058 C1064 0.950 . S
H1059 C1065 0.950 . S
H1060 C1066 0.949 . S
C1061 H1056 0.950 . S
C1061 C1063 1.327 . S
C1061 C1067 1.429 . S
C1062 C1054 1.574 . S
C1062 H1057 0.949 . S
C1062 C1068 1.368 . S
C1063 C1047 1.349 . S
C1063 H1055 0.950 . S
C1063 C1061 1.327 . S
C1064 C1052 1.349 . S
C1064 H1058 0.950 . S
C1064 C1065 1.327 . S
C1065 H1059 0.950 . S
C1065 C1064 1.327 . S
C1065 C1069 1.429 . S
C1066 C1049 1.574 . S
C1066 H1060 0.949 . S
C1066 C1070 1.368 . S
C1067 C1048 1.429 . S
C1067 C1061 1.429 . S
C1067 C1068 1.523 . S
C1068 C1049 1.368 . S
C1068 C1062 1.368 . S
C1068 C1067 1.523 . S
C1069 C1053 1.429 . S
C1069 C1065 1.429 . S
C1069 C1070 1.523 . S
C1070 C1054 1.368 . S
C1070 C1066 1.368 . S
C1070 C1069 1.523 . S
H1071 C1046 0.950 . S
H1072 C1048 0.950 . S
H1073 C1049 0.949 . S
H1074 C1051 0.950 . S
H1075 C1053 0.950 . S
C1076 C1077 1.349 . S
C1076 C1078 1.327 . S
C1076 H1101 0.950 . S
C1077 C1076 1.349 . S
C1077 C1093 1.349 . S
C1078 C1076 1.327 . S
C1078 C1097 1.429 . S
C1078 H1102 0.950 . S
C1079 C1096 1.574 . S
C1079 C1098 1.350 1_565 S
C1079 H1103 0.949 . S
H1080 C1084 0.949 . S
C1081 C1082 1.349 . S
C1081 C1083 1.327 . S
C1081 H1104 0.950 . S
C1082 C1081 1.349 . S
C1082 C1094 1.349 . S
C1083 C1081 1.327 . S
C1083 C1099 1.429 . S
C1083 H1105 0.950 . S
C1084 H1080 0.949 . S
C1084 C1092 1.574 1_565 S
C1084 C1100 1.368 . S
H1085 C1093 0.950 . S
H1086 C1091 0.950 . S
H1087 C1092 0.949 . S
H1088 C1094 0.950 . S
H1089 C1095 0.950 . S
H1090 C1096 0.949 . S
C1091 H1086 0.950 . S
C1091 C1093 1.327 . S
C1091 C1097 1.429 . S
C1092 C1084 1.574 1_545 S
C1092 H1087 0.949 . S
C1092 C1098 1.373 . S
C1093 C1077 1.349 . S
C1093 H1085 0.950 . S
C1093 C1091 1.327 . S
C1094 C1082 1.349 . S
C1094 H1088 0.950 . S
C1094 C1095 1.327 . S
C1095 H1089 0.950 . S
C1095 C1094 1.327 . S
C1095 C1099 1.429 . S
C1096 C1079 1.574 . S
C1096 H1090 0.949 . S
C1096 C1100 1.368 . S
C1097 C1078 1.429 . S
C1097 C1091 1.429 . S
C1097 C1098 1.542 . S
C1098 C1079 1.350 1_545 S
C1098 C1092 1.373 . S
C1098 C1097 1.542 . S
C1099 C1083 1.429 . S
C1099 C1095 1.429 . S
C1099 C1100 1.523 . S
C1100 C1084 1.368 . S
C1100 C1096 1.368 . S
C1100 C1099 1.523 . S
H1101 C1076 0.950 . S
H1102 C1078 0.950 . S
H1103 C1079 0.949 . S
H1104 C1081 0.950 . S
H1105 C1083 0.950 . S
C1106 C1107 1.349 . S
C1106 C1108 1.327 . S
C1106 H1131 0.950 . S
C1107 C1106 1.349 . S
C1107 C1123 1.349 . S
C1108 C1106 1.327 . S
C1108 C1127 1.429 . S
C1108 H1132 0.950 . S
C1109 C1126 1.574 . S
C1109 C1128 1.368 . S
C1109 H1133 0.949 . S
H1110 C1114 0.949 . S
C1111 C1112 1.349 . S
C1111 C1113 1.327 . S
C1111 H1134 0.950 . S
C1112 C1111 1.349 . S
C1112 C1124 1.349 . S
C1113 C1111 1.327 . S
C1113 C1129 1.429 . S
C1113 H1135 0.950 . S
C1114 H1110 0.949 . S
C1114 C1122 1.574 . S
C1114 C1130 1.368 . S
H1115 C1123 0.950 . S
H1116 C1121 0.950 1_554 S
H1117 C1122 0.949 1_556 S
H1118 C1124 0.950 . S
H1119 C1125 0.950 . S
H1120 C1126 0.949 . S
C1121 H1116 0.950 1_556 S
C1121 C1123 1.327 . S
C1121 C1127 1.429 . S
C1122 C1114 1.574 . S
C1122 H1117 0.949 1_554 S
C1122 C1128 1.368 . S
C1123 C1107 1.349 . S
C1123 H1115 0.950 . S
C1123 C1121 1.327 . S
C1124 C1112 1.349 . S
C1124 H1118 0.950 . S
C1124 C1125 1.327 . S
C1125 H1119 0.950 . S
C1125 C1124 1.327 . S
C1125 C1129 1.429 . S
C1126 C1109 1.574 . S
C1126 H1120 0.949 . S
C1126 C1130 1.368 . S
C1127 C1108 1.429 . S
C1127 C1121 1.429 . S
C1127 C1128 1.523 1_556 S
C1128 C1109 1.368 . S
C1128 C1122 1.368 . S
C1128 C1127 1.523 1_554 S
C1129 C1113 1.429 . S
C1129 C1125 1.429 . S
C1129 C1130 1.523 . S
C1130 C1114 1.368 . S
C1130 C1126 1.368 . S
C1130 C1129 1.523 . S
H1131 C1106 0.950 . S
H1132 C1108 0.950 . S
H1133 C1109 0.949 . S
H1134 C1111 0.950 . S
H1135 C1113 0.950 . S
C1136 C1137 1.349 . S
C1136 C1138 1.327 . S
C1136 H1161 0.950 . S
C1137 C1136 1.349 . S
C1137 C1153 1.349 . S
C1138 C1136 1.327 . S
C1138 C1157 1.429 . S
C1138 H1162 0.950 . S
C1139 C1156 1.574 . S
C1139 C1158 1.368 . S
C1139 H1163 0.949 . S
H1140 C1144 0.949 . S
C1141 C1142 1.349 . S
C1141 C1143 1.327 . S
C1141 H1164 0.950 . S
C1142 C1141 1.349 . S
C1142 C1154 1.349 . S
C1143 C1141 1.327 . S
C1143 C1159 1.429 . S
C1143 H1165 0.950 . S
C1144 H1140 0.949 . S
C1144 C1152 1.574 . S
C1144 C1160 1.368 . S
H1145 C1153 0.950 . S
H1146 C1151 0.950 . S
H1147 C1152 0.949 . S
H1148 C1154 0.950 . S
H1149 C1155 0.950 . S
H1150 C1156 0.949 1_455 S
C1151 H1146 0.950 . S
C1151 C1153 1.327 . S
C1151 C1157 1.429 . S
C1152 C1144 1.574 . S
C1152 H1147 0.949 . S
C1152 C1158 1.368 . S
C1153 C1137 1.349 . S
C1153 H1145 0.950 . S
C1153 C1151 1.327 . S
C1154 C1142 1.349 . S
C1154 H1148 0.950 . S
C1154 C1155 1.327 . S
C1155 H1149 0.950 . S
C1155 C1154 1.327 . S
C1155 C1159 1.429 . S
C1156 C1139 1.574 . S
C1156 H1150 0.949 1_655 S
C1156 C1160 1.368 . S
C1157 C1138 1.429 . S
C1157 C1151 1.429 . S
C1157 C1158 1.523 . S
C1158 C1139 1.368 . S
C1158 C1152 1.368 . S
C1158 C1157 1.523 . S
C1159 C1143 1.429 . S
C1159 C1155 1.429 . S
C1159 C1160 1.523 1_455 S
C1160 C1144 1.368 . S
C1160 C1156 1.368 . S
C1160 C1159 1.523 1_655 S
H1161 C1136 0.950 . S
H1162 C1138 0.950 . S
H1163 C1139 0.949 . S
H1164 C1141 0.950 . S
H1165 C1143 0.950 . S
C1166 C1167 1.349 . S
C1166 C1168 1.327 . S
C1166 H1191 0.950 . S
C1167 C1166 1.349 . S
C1167 C1183 1.349 . S
C1168 C1166 1.327 . S
C1168 C1187 1.429 . S
C1168 H1192 0.950 . S
C1169 C1186 1.574 . S
C1169 C1188 1.368 . S
C1169 H1193 0.949 . S
H1170 C1174 0.949 . S
C1171 C1172 1.349 . S
C1171 C1173 1.327 . S
C1171 H1194 0.950 . S
C1172 C1171 1.349 . S
C1172 C1184 1.349 . S
C1173 C1171 1.327 . S
C1173 C1189 1.429 . S
C1173 H1195 0.950 . S
C1174 H1170 0.949 . S
C1174 C1182 1.574 . S
C1174 C1190 1.368 . S
H1175 C1183 0.950 . S
H1176 C1181 0.950 . S
H1177 C1182 0.949 . S
H1178 C1184 0.950 . S
H1179 C1185 0.950 . S
H1180 C1186 0.949 . S
C1181 H1176 0.950 . S
C1181 C1183 1.327 . S
C1181 C1187 1.429 . S
C1182 C1174 1.574 . S
C1182 H1177 0.949 . S
C1182 C1188 1.368 . S
C1183 C1167 1.349 . S
C1183 H1175 0.950 . S
C1183 C1181 1.327 . S
C1184 C1172 1.349 . S
C1184 H1178 0.950 . S
C1184 C1185 1.327 . S
C1185 H1179 0.950 . S
C1185 C1184 1.327 . S
C1185 C1189 1.429 . S
C1186 C1169 1.574 . S
C1186 H1180 0.949 . S
C1186 C1190 1.368 . S
C1187 C1168 1.429 . S
C1187 C1181 1.429 . S
C1187 C1188 1.523 . S
C1188 C1169 1.368 . S
C1188 C1182 1.368 . S
C1188 C1187 1.523 . S
C1189 C1173 1.429 . S
C1189 C1185 1.429 . S
C1189 C1190 1.523 . S
C1190 C1174 1.368 . S
C1190 C1186 1.368 . S
C1190 C1189 1.523 . S
H1191 C1166 0.950 . S
H1192 C1168 0.950 . S
H1193 C1169 0.949 . S
H1194 C1171 0.950 . S
H1195 C1173 0.950 . S
C1196 C1197 1.349 . S
C1196 C1198 1.327 . S
C1196 H1221 0.950 . S
C1197 C1196 1.349 . S
C1197 C1213 1.349 . S
C1198 C1196 1.327 . S
C1198 C1217 1.429 . S
C1198 H1222 0.950 . S
C1199 C1216 1.574 . S
C1199 C1218 1.368 1_455 S
C1199 H1223 0.949 . S
H1200 C1204 0.949 . S
C1201 C1202 1.349 . S
C1201 C1203 1.327 . S
C1201 H1224 0.950 . S
C1202 C1201 1.349 . S
C1202 C1214 1.349 . S
C1203 C1201 1.327 . S
C1203 C1219 1.429 . S
C1203 H1225 0.950 . S
C1204 H1200 0.949 . S
C1204 C1212 1.574 1_455 S
C1204 C1220 1.368 . S
H1205 C1213 0.950 . S
H1206 C1211 0.950 . S
H1207 C1212 0.949 . S
H1208 C1214 0.950 . S
H1209 C1215 0.950 . S
H1210 C1216 0.949 . S
C1211 H1206 0.950 . S
C1211 C1213 1.327 . S
C1211 C1217 1.429 . S
C1212 C1204 1.574 1_655 S
C1212 H1207 0.949 . S
C1212 C1218 1.368 . S
C1213 C1197 1.349 . S
C1213 H1205 0.950 . S
C1213 C1211 1.327 . S
C1214 C1202 1.349 . S
C1214 H1208 0.950 . S
C1214 C1215 1.327 . S
C1215 H1209 0.950 . S
C1215 C1214 1.327 . S
C1215 C1219 1.429 . S
C1216 C1199 1.574 . S
C1216 H1210 0.949 . S
C1216 C1220 1.368 . S
C1217 C1198 1.429 . S
C1217 C1211 1.429 . S
C1217 C1218 1.523 . S
C1218 C1199 1.368 1_655 S
C1218 C1212 1.368 . S
C1218 C1217 1.523 . S
C1219 C1203 1.429 . S
C1219 C1215 1.429 . S
C1219 C1220 1.523 . S
C1220 C1204 1.368 . S
C1220 C1216 1.368 . S
C1220 C1219 1.523 . S
H1221 C1196 0.950 . S
H1222 C1198 0.950 . S
H1223 C1199 0.949 . S
H1224 C1201 0.950 . S
H1225 C1203 0.950 . S
C1226 C1227 1.349 . S
C1226 C1228 1.327 . S
C1226 H1251 0.950 . S
C1227 C1226 1.349 . S
C1227 C1243 1.349 . S
C1228 C1226 1.327 . S
C1228 C1247 1.429 . S
C1228 H1252 0.950 . S
C1229 C1246 1.574 . S
C1229 C1248 1.368 . S
C1229 H1253 0.949 . S
H1230 C1234 0.949 . S
C1231 C1232 1.349 . S
C1231 C1233 1.327 . S
C1231 H1254 0.950 . S
C1232 C1231 1.349 . S
C1232 C1244 1.349 . S
C1233 C1231 1.327 . S
C1233 C1249 1.429 . S
C1233 H1255 0.950 . S
C1234 H1230 0.949 . S
C1234 C1242 1.574 . S
C1234 C1250 1.368 . S
H1235 C1243 0.950 . S
H1236 C1241 0.950 . S
H1237 C1242 0.949 1_655 S
H1238 C1244 0.950 . S
H1239 C1245 0.950 . S
H1240 C1246 0.949 . S
C1241 H1236 0.950 . S
C1241 C1243 1.327 . S
C1241 C1247 1.429 . S
C1242 C1234 1.574 . S
C1242 H1237 0.949 1_455 S
C1242 C1248 1.368 . S
C1243 C1227 1.349 . S
C1243 H1235 0.950 . S
C1243 C1241 1.327 . S
C1244 C1232 1.349 . S
C1244 H1238 0.950 . S
C1244 C1245 1.327 . S
C1245 H1239 0.950 . S
C1245 C1244 1.327 . S
C1245 C1249 1.429 . S
C1246 C1229 1.574 . S
C1246 H1240 0.949 . S
C1246 C1250 1.368 . S
C1247 C1228 1.429 . S
C1247 C1241 1.429 . S
C1247 C1248 1.523 1_655 S
C1248 C1229 1.368 . S
C1248 C1242 1.368 . S
C1248 C1247 1.523 1_455 S
C1249 C1233 1.429 . S
C1249 C1245 1.429 . S
C1249 C1250 1.523 . S
C1250 C1234 1.368 . S
C1250 C1246 1.368 . S
C1250 C1249 1.523 . S
H1251 C1226 0.950 . S
H1252 C1228 0.950 . S
H1253 C1229 0.949 . S
H1254 C1231 0.950 . S
H1255 C1233 0.950 . S
C1256 C1257 1.349 . S
C1256 C1258 1.327 . S
C1256 H1281 0.950 . S
C1257 C1256 1.349 . S
C1257 C1273 1.349 . S
C1258 C1256 1.327 . S
C1258 C1277 1.429 . S
C1258 H1282 0.950 . S
C1259 C1276 1.574 . S
C1259 C1278 1.368 . S
C1259 H1283 0.949 . S
H1260 C1264 0.949 . S
C1261 C1262 1.349 . S
C1261 C1263 1.327 . S
C1261 H1284 0.950 . S
C1262 C1261 1.349 . S
C1262 C1274 1.349 . S
C1263 C1261 1.327 . S
C1263 C1279 1.429 . S
C1263 H1285 0.950 . S
C1264 H1260 0.949 . S
C1264 C1272 1.574 . S
C1264 C1280 1.368 . S
H1265 C1273 0.950 . S
H1266 C1271 0.950 . S
H1267 C1272 0.949 . S
H1268 C1274 0.950 . S
H1269 C1275 0.950 . S
H1270 C1276 0.949 . S
C1271 H1266 0.950 . S
C1271 C1273 1.327 . S
C1271 C1277 1.429 . S
C1272 C1264 1.574 . S
C1272 H1267 0.949 . S
C1272 C1278 1.368 . S
C1273 C1257 1.349 . S
C1273 H1265 0.950 . S
C1273 C1271 1.327 . S
C1274 C1262 1.349 . S
C1274 H1268 0.950 . S
C1274 C1275 1.327 . S
C1275 H1269 0.950 . S
C1275 C1274 1.327 . S
C1275 C1279 1.429 . S
C1276 C1259 1.574 . S
C1276 H1270 0.949 . S
C1276 C1280 1.368 . S
C1277 C1258 1.429 . S
C1277 C1271 1.429 . S
C1277 C1278 1.523 . S
C1278 C1259 1.368 . S
C1278 C1272 1.368 . S
C1278 C1277 1.523 . S
C1279 C1263 1.429 . S
C1279 C1275 1.429 . S
C1279 C1280 1.523 . S
C1280 C1264 1.368 . S
C1280 C1276 1.368 . S
C1280 C1279 1.523 . S
H1281 C1256 0.950 . S
H1282 C1258 0.950 . S
H1283 C1259 0.949 . S
H1284 C1261 0.950 . S
H1285 C1263 0.950 . S
C1286 C1287 1.349 . S
C1286 C1288 1.327 . S
C1286 H1311 0.950 . S
C1287 C1286 1.349 . S
C1287 C1303 1.349 . S
C1288 C1286 1.327 . S
C1288 C1307 1.429 . S
C1288 H1312 0.950 . S
C1289 C1306 1.574 . S
C1289 C1308 1.368 . S
C1289 H1313 0.949 . S
H1290 C1294 0.949 . S
C1291 C1292 1.349 . S
C1291 C1293 1.327 . S
C1291 H1314 0.950 . S
C1292 C1291 1.349 . S
C1292 C1304 1.349 . S
C1293 C1291 1.327 . S
C1293 C1309 1.429 . S
C1293 H1315 0.950 . S
C1294 H1290 0.949 . S
C1294 C1302 1.574 1_455 S
C1294 C1310 1.368 . S
H1295 C1303 0.950 . S
H1296 C1301 0.950 . S
H1297 C1302 0.949 . S
H1298 C1304 0.950 . S
H1299 C1305 0.950 . S
H1300 C1306 0.949 . S
C1301 H1296 0.950 . S
C1301 C1303 1.327 . S
C1301 C1307 1.429 . S
C1302 C1294 1.574 1_655 S
C1302 H1297 0.949 . S
C1302 C1308 1.368 . S
C1303 C1287 1.349 . S
C1303 H1295 0.950 . S
C1303 C1301 1.327 . S
C1304 C1292 1.349 . S
C1304 H1298 0.950 . S
C1304 C1305 1.327 . S
C1305 H1299 0.950 . S
C1305 C1304 1.327 . S
C1305 C1309 1.429 . S
C1306 C1289 1.574 . S
C1306 H1300 0.949 . S
C1306 C1310 1.368 1_655 S
C1307 C1288 1.429 . S
C1307 C1301 1.429 . S
C1307 C1308 1.523 . S
C1308 C1289 1.368 . S
C1308 C1302 1.368 . S
C1308 C1307 1.523 . S
C1309 C1293 1.429 . S
C1309 C1305 1.429 . S
C1309 C1310 1.523 . S
C1310 C1294 1.368 . S
C1310 C1306 1.368 1_455 S
C1310 C1309 1.523 . S
H1311 C1286 0.950 . S
H1312 C1288 0.950 . S
H1313 C1289 0.949 . S
H1314 C1291 0.950 . S
H1315 C1293 0.950 . S
C1316 C1317 1.349 . S
C1316 C1318 1.327 . S
C1316 H1341 0.950 . S
C1317 C1316 1.349 . S
C1317 C1333 1.349 . S
C1318 C1316 1.327 . S
C1318 C1337 1.429 . S
C1318 H1342 0.950 . S
C1319 C1336 1.574 . S
C1319 C1338 1.368 . S
C1319 H1343 0.949 . S
H1320 C1324 0.949 . S
C1321 C1322 1.349 . S
C1321 C1323 1.327 . S
C1321 H1344 0.950 . S
C1322 C1321 1.349 . S
C1322 C1334 1.349 . S
C1323 C1321 1.327 . S
C1323 C1339 1.429 . S
C1323 H1345 0.950 . S
C1324 H1320 0.949 . S
C1324 C1332 1.574 . S
C1324 C1340 1.368 . S
H1325 C1333 0.950 . S
H1326 C1331 0.950 . S
H1327 C1332 0.949 . S
H1328 C1334 0.950 . S
H1329 C1335 0.950 . S
H1330 C1336 0.949 . S
C1331 H1326 0.950 . S
C1331 C1333 1.327 . S
C1331 C1337 1.429 . S
C1332 C1324 1.574 . S
C1332 H1327 0.949 . S
C1332 C1338 1.368 . S
C1333 C1317 1.349 . S
C1333 H1325 0.950 . S
C1333 C1331 1.327 . S
C1334 C1322 1.349 . S
C1334 H1328 0.950 . S
C1334 C1335 1.327 . S
C1335 H1329 0.950 . S
C1335 C1334 1.327 . S
C1335 C1339 1.429 . S
C1336 C1319 1.574 . S
C1336 H1330 0.949 . S
C1336 C1340 1.368 . S
C1337 C1318 1.429 . S
C1337 C1331 1.429 . S
C1337 C1338 1.523 . S
C1338 C1319 1.368 . S
C1338 C1332 1.368 . S
C1338 C1337 1.523 . S
C1339 C1323 1.429 . S
C1339 C1335 1.429 . S
C1339 C1340 1.523 . S
C1340 C1324 1.368 . S
C1340 C1336 1.368 . S
C1340 C1339 1.523 . S
H1341 C1316 0.950 . S
H1342 C1318 0.950 . S
H1343 C1319 0.949 . S
H1344 C1321 0.950 . S
H1345 C1323 0.950 . S
C1346 C1347 1.349 . S
C1346 C1348 1.327 . S
C1346 H1371 0.950 . S
C1347 C1346 1.349 . S
C1347 C1363 1.349 . S
C1348 C1346 1.327 . S
C1348 C1367 1.429 . S
C1348 H1372 0.950 . S
C1349 C1366 1.574 . S
C1349 C1368 1.368 . S
C1349 H1373 0.949 . S
H1350 C1354 0.949 . S
C1351 C1352 1.349 . S
C1351 C1353 1.327 . S
C1351 H1374 0.950 . S
C1352 C1351 1.349 . S
C1352 C1364 1.349 . S
C1353 C1351 1.327 . S
C1353 C1369 1.429 . S
C1353 H1375 0.950 . S
C1354 H1350 0.949 . S
C1354 C1362 1.574 . S
C1354 C1370 1.368 . S
H1355 C1363 0.950 . S
H1356 C1361 0.950 . S
H1357 C1362 0.949 . S
H1358 C1364 0.950 . S
H1359 C1365 0.950 . S
H1360 C1366 0.949 1_565 S
C1361 H1356 0.950 . S
C1361 C1363 1.327 . S
C1361 C1367 1.429 . S
C1362 C1354 1.574 . S
C1362 H1357 0.949 . S
C1362 C1368 1.368 . S
C1363 C1347 1.349 . S
C1363 H1355 0.950 . S
C1363 C1361 1.327 . S
C1364 C1352 1.349 . S
C1364 H1358 0.950 . S
C1364 C1365 1.327 . S
C1365 H1359 0.950 . S
C1365 C1364 1.327 . S
C1365 C1369 1.429 . S
C1366 C1349 1.574 . S
C1366 H1360 0.949 1_545 S
C1366 C1370 1.368 . S
C1367 C1348 1.429 . S
C1367 C1361 1.429 . S
C1367 C1368 1.523 . S
C1368 C1349 1.368 . S
C1368 C1362 1.368 . S
C1368 C1367 1.523 . S
C1369 C1353 1.429 . S
C1369 C1365 1.429 . S
C1369 C1370 1.523 1_565 S
C1370 C1354 1.368 . S
C1370 C1366 1.368 . S
C1370 C1369 1.523 1_545 S
H1371 C1346 0.950 . S
H1372 C1348 0.950 . S
H1373 C1349 0.949 . S
H1374 C1351 0.950 . S
H1375 C1353 0.950 . S
C1376 C1377 1.349 . S
C1376 C1378 1.327 . S
C1376 H1401 0.950 . S
C1377 C1376 1.349 . S
C1377 C1393 1.349 . S
C1378 C1376 1.327 . S
C1378 C1397 1.429 . S
C1378 H1402 0.950 . S
C1379 C1396 1.574 . S
C1379 C1398 1.368 . S
C1379 H1403 0.949 . S
H1380 C1384 0.949 . S
C1381 C1382 1.349 . S
C1381 C1383 1.327 . S
C1381 H1404 0.950 . S
C1382 C1381 1.349 . S
C1382 C1394 1.349 . S
C1383 C1381 1.327 . S
C1383 C1399 1.429 . S
C1383 H1405 0.950 . S
C1384 H1380 0.949 . S
C1384 C1392 1.574 . S
C1384 C1400 1.368 . S
H1385 C1393 0.950 . S
H1386 C1391 0.950 . S
H1387 C1392 0.949 . S
H1388 C1394 0.950 . S
H1389 C1395 0.950 . S
H1390 C1396 0.949 . S
C1391 H1386 0.950 . S
C1391 C1393 1.327 . S
C1391 C1397 1.429 . S
C1392 C1384 1.574 . S
C1392 H1387 0.949 . S
C1392 C1398 1.368 . S
C1393 C1377 1.349 . S
C1393 H1385 0.950 . S
C1393 C1391 1.327 . S
C1394 C1382 1.349 . S
C1394 H1388 0.950 . S
C1394 C1395 1.327 . S
C1395 H1389 0.950 . S
C1395 C1394 1.327 . S
C1395 C1399 1.429 . S
C1396 C1379 1.574 . S
C1396 H1390 0.949 . S
C1396 C1400 1.368 . S
C1397 C1378 1.429 . S
C1397 C1391 1.429 . S
C1397 C1398 1.523 . S
C1398 C1379 1.368 . S
C1398 C1392 1.368 . S
C1398 C1397 1.523 . S
C1399 C1383 1.429 . S
C1399 C1395 1.429 . S
C1399 C1400 1.523 . S
C1400 C1384 1.368 . S
C1400 C1396 1.368 . S
C1400 C1399 1.523 . S
H1401 C1376 0.950 . S
H1402 C1378 0.950 . S
H1403 C1379 0.949 . S
H1404 C1381 0.950 . S
H1405 C1383 0.950 . S
C1406 C1407 1.349 . S
C1406 C1408 1.327 . S
C1406 H1431 0.950 . S
C1407 C1406 1.349 . S
C1407 C1423 1.349 . S
C1408 C1406 1.327 . S
C1408 C1427 1.429 . S
C1408 H1432 0.950 . S
C1409 C1426 1.574 . S
C1409 C1428 1.368 . S
C1409 H1433 0.949 . S
H1410 C1414 0.949 . S
C1411 C1412 1.349 . S
C1411 C1413 1.327 . S
C1411 H1434 0.950 . S
C1412 C1411 1.349 . S
C1412 C1424 1.349 . S
C1413 C1411 1.327 . S
C1413 C1429 1.429 . S
C1413 H1435 0.950 . S
C1414 H1410 0.949 . S
C1414 C1422 1.574 . S
C1414 C1430 1.368 . S
H1415 C1423 0.950 . S
H1416 C1421 0.950 . S
H1417 C1422 0.949 . S
H1418 C1424 0.950 . S
H1419 C1425 0.950 . S
H1420 C1426 0.949 1_545 S
C1421 H1416 0.950 . S
C1421 C1423 1.327 . S
C1421 C1427 1.429 . S
C1422 C1414 1.574 . S
C1422 H1417 0.949 . S
C1422 C1428 1.368 . S
C1423 C1407 1.349 . S
C1423 H1415 0.950 . S
C1423 C1421 1.327 . S
C1424 C1412 1.349 . S
C1424 H1418 0.950 . S
C1424 C1425 1.327 . S
C1425 H1419 0.950 . S
C1425 C1424 1.327 . S
C1425 C1429 1.429 . S
C1426 C1409 1.574 . S
C1426 H1420 0.949 1_565 S
C1426 C1430 1.368 . S
C1427 C1408 1.429 . S
C1427 C1421 1.429 . S
C1427 C1428 1.523 . S
C1428 C1409 1.368 . S
C1428 C1422 1.368 . S
C1428 C1427 1.523 . S
C1429 C1413 1.429 . S
C1429 C1425 1.429 . S
C1429 C1430 1.523 1_545 S
C1430 C1414 1.368 . S
C1430 C1426 1.368 . S
C1430 C1429 1.523 1_565 S
H1431 C1406 0.950 . S
H1432 C1408 0.950 . S
H1433 C1409 0.949 . S
H1434 C1411 0.950 . S
H1435 C1413 0.950 . S
C1436 C1437 1.349 . S
C1436 C1438 1.327 . S
C1436 H1461 0.950 . S
C1437 C1436 1.349 . S
C1437 C1453 1.349 . S
C1438 C1436 1.327 . S
C1438 C1457 1.429 . S
C1438 H1462 0.950 . S
C1439 C1456 1.574 . S
C1439 C1458 1.368 1_554 S
C1439 H1463 0.949 . S
H1440 C1444 0.949 . S
C1441 C1442 1.349 . S
C1441 C1443 1.327 . S
C1441 H1464 0.950 . S
C1442 C1441 1.349 . S
C1442 C1454 1.349 . S
C1443 C1441 1.327 . S
C1443 C1459 1.429 . S
C1443 H1465 0.950 . S
C1444 H1440 0.949 . S
C1444 C1452 1.574 1_554 S
C1444 C1460 1.368 . S
H1445 C1453 0.950 . S
H1446 C1451 0.950 . S
H1447 C1452 0.949 . S
H1448 C1454 0.950 . S
H1449 C1455 0.950 . S
H1450 C1456 0.949 . S
C1451 H1446 0.950 . S
C1451 C1453 1.327 . S
C1451 C1457 1.429 . S
C1452 C1444 1.574 1_556 S
C1452 H1447 0.949 . S
C1452 C1458 1.368 . S
C1453 C1437 1.349 . S
C1453 H1445 0.950 . S
C1453 C1451 1.327 . S
C1454 C1442 1.349 . S
C1454 H1448 0.950 . S
C1454 C1455 1.327 . S
C1455 H1449 0.950 . S
C1455 C1454 1.327 . S
C1455 C1459 1.429 . S
C1456 C1439 1.574 . S
C1456 H1450 0.949 . S
C1456 C1460 1.368 . S
C1457 C1438 1.429 . S
C1457 C1451 1.429 . S
C1457 C1458 1.523 . S
C1458 C1439 1.368 1_556 S
C1458 C1452 1.368 . S
C1458 C1457 1.523 . S
C1459 C1443 1.429 . S
C1459 C1455 1.429 . S
C1459 C1460 1.523 . S
C1460 C1444 1.368 . S
C1460 C1456 1.368 . S
C1460 C1459 1.523 . S
H1461 C1436 0.950 . S
H1462 C1438 0.950 . S
H1463 C1439 0.949 . S
H1464 C1441 0.950 . S
H1465 C1443 0.950 . S
C1466 C1467 1.349 . S
C1466 C1468 1.327 . S
C1466 H1491 0.950 . S
C1467 C1466 1.349 . S
C1467 C1483 1.349 . S
C1468 C1466 1.327 . S
C1468 C1487 1.429 . S
C1468 H1492 0.950 . S
C1469 C1486 1.574 . S
C1469 C1488 1.368 . S
C1469 H1493 0.949 . S
H1470 C1474 0.949 . S
C1471 C1472 1.349 . S
C1471 C1473 1.327 . S
C1471 H1494 0.950 . S
C1472 C1471 1.349 . S
C1472 C1484 1.349 . S
C1473 C1471 1.327 . S
C1473 C1489 1.429 . S
C1473 H1495 0.950 . S
C1474 H1470 0.949 . S
C1474 C1482 1.574 . S
C1474 C1490 1.368 . S
H1475 C1483 0.950 . S
H1476 C1481 0.950 1_565 S
H1477 C1482 0.949 1_545 S
H1478 C1484 0.950 . S
H1479 C1485 0.950 . S
H1480 C1486 0.949 . S
C1481 H1476 0.950 1_545 S
C1481 C1483 1.327 . S
C1481 C1487 1.429 . S
C1482 C1474 1.574 . S
C1482 H1477 0.949 1_565 S
C1482 C1488 1.368 . S
C1483 C1467 1.349 . S
C1483 H1475 0.950 . S
C1483 C1481 1.327 . S
C1484 C1472 1.349 . S
C1484 H1478 0.950 . S
C1484 C1485 1.327 . S
C1485 H1479 0.950 . S
C1485 C1484 1.327 . S
C1485 C1489 1.429 . S
C1486 C1469 1.574 . S
C1486 H1480 0.949 . S
C1486 C1490 1.368 . S
C1487 C1468 1.429 . S
C1487 C1481 1.429 . S
C1487 C1488 1.523 1_545 S
C1488 C1469 1.368 . S
C1488 C1482 1.368 . S
C1488 C1487 1.523 1_565 S
C1489 C1473 1.429 . S
C1489 C1485 1.429 . S
C1489 C1490 1.523 . S
C1490 C1474 1.368 . S
C1490 C1486 1.368 . S
C1490 C1489 1.523 . S
H1491 C1466 0.950 . S
H1492 C1468 0.950 . S
H1493 C1469 0.949 . S
H1494 C1471 0.950 . S
H1495 C1473 0.950 . S
C1496 C1497 1.349 . S
C1496 C1498 1.327 . S
C1496 H1521 0.950 . S
C1497 C1496 1.349 . S
C1497 C1513 1.349 . S
C1498 C1496 1.327 . S
C1498 C1517 1.429 . S
C1498 H1522 0.950 . S
C1499 C1516 1.574 . S
C1499 C1518 1.368 . S
C1499 H1523 0.949 . S
H1500 C1504 0.949 . S
C1501 C1502 1.349 . S
C1501 C1503 1.327 . S
C1501 H1524 0.950 . S
C1502 C1501 1.349 . S
C1502 C1514 1.349 . S
C1503 C1501 1.327 . S
C1503 C1519 1.429 . S
C1503 H1525 0.950 . S
C1504 H1500 0.949 . S
C1504 C1512 1.574 . S
C1504 C1520 1.368 . S
H1505 C1513 0.950 . S
H1506 C1511 0.950 . S
H1507 C1512 0.949 . S
H1508 C1514 0.950 . S
H1509 C1515 0.950 . S
H1510 C1516 0.949 . S
C1511 H1506 0.950 . S
C1511 C1513 1.327 . S
C1511 C1517 1.429 . S
C1512 C1504 1.574 . S
C1512 H1507 0.949 . S
C1512 C1518 1.368 . S
C1513 C1497 1.349 . S
C1513 H1505 0.950 . S
C1513 C1511 1.327 . S
C1514 C1502 1.349 . S
C1514 H1508 0.950 . S
C1514 C1515 1.327 . S
C1515 H1509 0.950 . S
C1515 C1514 1.327 . S
C1515 C1519 1.429 . S
C1516 C1499 1.574 . S
C1516 H1510 0.949 . S
C1516 C1520 1.368 . S
C1517 C1498 1.429 . S
C1517 C1511 1.429 . S
C1517 C1518 1.523 . S
C1518 C1499 1.368 . S
C1518 C1512 1.368 . S
C1518 C1517 1.523 . S
C1519 C1503 1.429 . S
C1519 C1515 1.429 . S
C1519 C1520 1.523 . S
C1520 C1504 1.368 . S
C1520 C1516 1.368 . S
C1520 C1519 1.523 . S
H1521 C1496 0.950 . S
H1522 C1498 0.950 . S
H1523 C1499 0.949 . S
H1524 C1501 0.950 . S
H1525 C1503 0.950 . S
C1526 C1527 1.349 . S
C1526 C1528 1.327 . S
C1526 H1551 0.950 . S
C1527 C1526 1.349 . S
C1527 C1543 1.349 . S
C1528 C1526 1.327 . S
C1528 C1547 1.429 . S
C1528 H1552 0.950 . S
C1529 C1546 1.574 . S
C1529 C1548 1.368 . S
C1529 H1553 0.962 . S
H1530 C1534 0.949 . S
C1531 C1532 1.349 . S
C1531 C1533 1.327 . S
C1531 H1554 0.950 . S
C1532 C1531 1.349 . S
C1532 C1544 1.349 . S
C1533 C1531 1.327 . S
C1533 C1549 1.429 . S
C1533 H1555 0.950 . S
C1534 H1530 0.949 . S
C1534 C1542 1.574 . S
C1534 C1550 1.368 . S
H1535 C1543 0.950 . S
H1536 C1541 0.950 . S
H1537 C1542 0.949 . S
H1538 C1544 0.950 . S
H1539 C1545 0.950 . S
H1540 C1546 0.949 . S
C1541 H1536 0.950 . S
C1541 C1543 1.327 . S
C1541 C1547 1.429 . S
C1542 C1534 1.574 . S
C1542 H1537 0.949 . S
C1542 C1548 1.368 . S
C1543 C1527 1.349 . S
C1543 H1535 0.950 . S
C1543 C1541 1.327 . S
C1544 C1532 1.349 . S
C1544 H1538 0.950 . S
C1544 C1545 1.327 . S
C1545 H1539 0.950 . S
C1545 C1544 1.327 . S
C1545 C1549 1.429 . S
C1546 C1529 1.574 . S
C1546 H1540 0.949 . S
C1546 C1550 1.368 . S
C1547 C1528 1.429 . S
C1547 C1541 1.429 . S
C1547 C1548 1.523 1_565 S
C1548 C1529 1.368 . S
C1548 C1542 1.368 . S
C1548 C1547 1.523 1_545 S
C1549 C1533 1.429 . S
C1549 C1545 1.429 . S
C1549 C1550 1.523 . S
C1550 C1534 1.368 . S
C1550 C1546 1.368 . S
C1550 C1549 1.523 . S
H1551 C1526 0.950 . S
H1552 C1528 0.950 . S
H1553 C1529 0.962 . S
H1554 C1531 0.950 . S
H1555 C1533 0.950 . S
C1556 C1557 1.349 . S
C1556 C1558 1.327 . S
C1556 H1581 0.950 . S
C1557 C1556 1.349 . S
C1557 C1573 1.349 . S
C1558 C1556 1.327 . S
C1558 C1577 1.429 . S
C1558 H1582 0.950 . S
C1559 C1576 1.574 1_554 S
C1559 C1578 1.368 . S
C1559 H1583 0.949 . S
H1560 C1564 0.949 . S
C1561 C1562 1.349 . S
C1561 C1563 1.327 . S
C1561 H1584 0.950 . S
C1562 C1561 1.349 . S
C1562 C1574 1.349 . S
C1563 C1561 1.327 . S
C1563 C1579 1.429 . S
C1563 H1585 0.950 . S
C1564 H1560 0.949 . S
C1564 C1572 1.574 . S
C1564 C1580 1.368 . S
H1565 C1573 0.950 . S
H1566 C1571 0.950 . S
H1567 C1572 0.949 . S
H1568 C1574 0.950 . S
H1569 C1575 0.950 . S
H1570 C1576 0.949 . S
C1571 H1566 0.950 . S
C1571 C1573 1.327 . S
C1571 C1577 1.429 . S
C1572 C1564 1.574 . S
C1572 H1567 0.949 . S
C1572 C1578 1.368 1_556 S
C1573 C1557 1.349 . S
C1573 H1565 0.950 . S
C1573 C1571 1.327 . S
C1574 C1562 1.349 . S
C1574 H1568 0.950 . S
C1574 C1575 1.327 . S
C1575 H1569 0.950 . S
C1575 C1574 1.327 . S
C1575 C1579 1.429 . S
C1576 C1559 1.574 1_556 S
C1576 H1570 0.949 . S
C1576 C1580 1.368 . S
C1577 C1558 1.429 . S
C1577 C1571 1.429 . S
C1577 C1578 1.523 . S
C1578 C1559 1.368 . S
C1578 C1572 1.368 1_554 S
C1578 C1577 1.523 . S
C1579 C1563 1.429 . S
C1579 C1575 1.429 . S
C1579 C1580 1.523 . S
C1580 C1564 1.368 . S
C1580 C1576 1.368 . S
C1580 C1579 1.523 . S
H1581 C1556 0.950 . S
H1582 C1558 0.950 . S
H1583 C1559 0.949 . S
H1584 C1561 0.950 . S
H1585 C1563 0.950 . S
C1586 C1587 1.349 . S
C1586 C1588 1.327 . S
C1586 H1611 0.950 . S
C1587 C1586 1.349 . S
C1587 C1603 1.349 . S
C1588 C1586 1.327 . S
C1588 C1607 1.429 . S
C1588 H1612 0.950 . S
C1589 C1606 1.574 . S
C1589 C1608 1.368 . S
C1589 H1613 0.949 1_455 S
H1590 C1594 0.949 . S
C1591 C1592 1.349 . S
C1591 C1593 1.327 . S
C1591 H1614 0.950 . S
C1592 C1591 1.349 . S
C1592 C1604 1.349 . S
C1593 C1591 1.327 . S
C1593 C1609 1.429 . S
C1593 H1615 0.950 . S
C1594 H1590 0.949 . S
C1594 C1602 1.574 . S
C1594 C1610 1.368 . S
H1595 C1603 0.950 . S
H1596 C1601 0.950 . S
H1597 C1602 0.949 . S
H1598 C1604 0.950 . S
H1599 C1605 0.950 . S
H1600 C1606 0.949 . S
C1601 H1596 0.950 . S
C1601 C1603 1.327 . S
C1601 C1607 1.429 . S
C1602 C1594 1.574 . S
C1602 H1597 0.949 . S
C1602 C1608 1.368 . S
C1603 C1587 1.349 . S
C1603 H1595 0.950 . S
C1603 C1601 1.327 . S
C1604 C1592 1.349 . S
C1604 H1598 0.950 . S
C1604 C1605 1.327 . S
C1605 H1599 0.950 . S
C1605 C1604 1.327 . S
C1605 C1609 1.429 . S
C1606 C1589 1.574 . S
C1606 H1600 0.949 . S
C1606 C1610 1.368 . S
C1607 C1588 1.429 . S
C1607 C1601 1.429 . S
C1607 C1608 1.523 1_655 S
C1608 C1589 1.368 . S
C1608 C1602 1.368 . S
C1608 C1607 1.523 1_455 S
C1609 C1593 1.429 . S
C1609 C1605 1.429 . S
C1609 C1610 1.523 . S
C1610 C1594 1.368 . S
C1610 C1606 1.368 . S
C1610 C1609 1.523 . S
H1611 C1586 0.950 . S
H1612 C1588 0.950 . S
H1613 C1589 0.949 1_655 S
H1614 C1591 0.950 . S
H1615 C1593 0.950 . S
C1616 C1617 1.349 . S
C1616 C1618 1.327 . S
C1616 H1641 0.950 . S
C1617 C1616 1.349 . S
C1617 C1633 1.349 . S
C1618 C1616 1.327 . S
C1618 C1637 1.429 . S
C1618 H1642 0.950 . S
C1619 C1636 1.574 . S
C1619 C1638 1.368 . S
C1619 H1643 0.949 . S
H1620 C1624 0.949 . S
C1621 C1622 1.349 . S
C1621 C1623 1.327 . S
C1621 H1644 0.950 . S
C1622 C1621 1.349 . S
C1622 C1634 1.349 . S
C1623 C1621 1.327 . S
C1623 C1639 1.429 . S
C1623 H1645 0.950 . S
C1624 H1620 0.949 . S
C1624 C1632 1.574 . S
C1624 C1640 1.368 . S
H1625 C1633 0.950 . S
H1626 C1631 0.950 . S
H1627 C1632 0.949 . S
H1628 C1634 0.950 . S
H1629 C1635 0.950 . S
H1630 C1636 0.949 . S
C1631 H1626 0.950 . S
C1631 C1633 1.327 . S
C1631 C1637 1.429 . S
C1632 C1624 1.574 . S
C1632 H1627 0.949 . S
C1632 C1638 1.368 . S
C1633 C1617 1.349 . S
C1633 H1625 0.950 . S
C1633 C1631 1.327 . S
C1634 C1622 1.349 . S
C1634 H1628 0.950 . S
C1634 C1635 1.327 . S
C1635 H1629 0.950 . S
C1635 C1634 1.327 . S
C1635 C1639 1.429 . S
C1636 C1619 1.574 . S
C1636 H1630 0.949 . S
C1636 C1640 1.368 . S
C1637 C1618 1.429 . S
C1637 C1631 1.429 . S
C1637 C1638 1.523 . S
C1638 C1619 1.368 . S
C1638 C1632 1.368 . S
C1638 C1637 1.523 . S
C1639 C1623 1.429 . S
C1639 C1635 1.429 . S
C1639 C1640 1.523 . S
C1640 C1624 1.368 . S
C1640 C1636 1.368 . S
C1640 C1639 1.523 . S
H1641 C1616 0.950 . S
H1642 C1618 0.950 . S
H1643 C1619 0.949 . S
H1644 C1621 0.950 . S
H1645 C1623 0.950 . S
C1646 C1647 1.349 . S
C1646 C1648 1.327 . S
C1646 H1671 0.950 . S
C1647 C1646 1.349 . S
C1647 C1663 1.349 . S
C1648 C1646 1.327 . S
C1648 C1667 1.429 . S
C1648 H1672 0.950 . S
C1649 C1666 1.574 . S
C1649 C1668 1.368 . S
C1649 H1673 0.949 1_655 S
H1650 C1654 0.949 . S
C1651 C1652 1.349 . S
C1651 C1653 1.327 . S
C1651 H1674 0.950 . S
C1652 C1651 1.349 . S
C1652 C1664 1.349 . S
C1653 C1651 1.327 . S
C1653 C1669 1.429 . S
C1653 H1675 0.950 . S
C1654 H1650 0.949 . S
C1654 C1662 1.574 . S
C1654 C1670 1.368 . S
H1655 C1663 0.950 . S
H1656 C1661 0.950 . S
H1657 C1662 0.949 . S
H1658 C1664 0.950 . S
H1659 C1665 0.950 . S
H1660 C1666 0.949 . S
C1661 H1656 0.950 . S
C1661 C1663 1.327 . S
C1661 C1667 1.429 . S
C1662 C1654 1.574 . S
C1662 H1657 0.949 . S
C1662 C1668 1.368 . S
C1663 C1647 1.349 . S
C1663 H1655 0.950 . S
C1663 C1661 1.327 . S
C1664 C1652 1.349 . S
C1664 H1658 0.950 . S
C1664 C1665 1.327 . S
C1665 H1659 0.950 . S
C1665 C1664 1.327 . S
C1665 C1669 1.429 . S
C1666 C1649 1.574 . S
C1666 H1660 0.949 . S
C1666 C1670 1.368 . S
C1667 C1648 1.429 . S
C1667 C1661 1.429 . S
C1667 C1668 1.523 1_455 S
C1668 C1649 1.368 . S
C1668 C1662 1.368 . S
C1668 C1667 1.523 1_655 S
C1669 C1653 1.429 . S
C1669 C1665 1.429 . S
C1669 C1670 1.523 . S
C1670 C1654 1.368 . S
C1670 C1666 1.368 . S
C1670 C1669 1.523 . S
H1671 C1646 0.950 . S
H1672 C1648 0.950 . S
H1673 C1649 0.949 1_455 S
H1674 C1651 0.950 . S
H1675 C1653 0.950 . S
C1676 C1677 1.349 . S
C1676 C1678 1.327 . S
C1676 H1701 0.950 . S
C1677 C1676 1.349 . S
C1677 C1693 1.349 . S
C1678 C1676 1.327 . S
C1678 C1697 1.429 . S
C1678 H1702 0.950 . S
C1679 C1696 1.574 . S
C1679 C1698 1.368 . S
C1679 H1703 0.949 1_655 S
H1680 C1684 0.949 . S
C1681 C1682 1.349 . S
C1681 C1683 1.327 . S
C1681 H1704 0.950 . S
C1682 C1681 1.349 . S
C1682 C1694 1.349 . S
C1683 C1681 1.327 . S
C1683 C1699 1.429 . S
C1683 H1705 0.950 . S
C1684 H1680 0.949 . S
C1684 C1692 1.574 . S
C1684 C1700 1.368 . S
H1685 C1693 0.950 . S
H1686 C1691 0.950 . S
H1687 C1692 0.949 . S
H1688 C1694 0.950 . S
H1689 C1695 0.950 . S
H1690 C1696 0.949 . S
C1691 H1686 0.950 . S
C1691 C1693 1.327 . S
C1691 C1697 1.429 . S
C1692 C1684 1.574 . S
C1692 H1687 0.949 . S
C1692 C1698 1.368 . S
C1693 C1677 1.349 . S
C1693 H1685 0.950 . S
C1693 C1691 1.327 . S
C1694 C1682 1.349 . S
C1694 H1688 0.950 . S
C1694 C1695 1.327 . S
C1695 H1689 0.950 . S
C1695 C1694 1.327 . S
C1695 C1699 1.429 . S
C1696 C1679 1.574 . S
C1696 H1690 0.949 . S
C1696 C1700 1.368 . S
C1697 C1678 1.429 . S
C1697 C1691 1.429 . S
C1697 C1698 1.523 1_455 S
C1698 C1679 1.368 . S
C1698 C1692 1.368 . S
C1698 C1697 1.523 1_655 S
C1699 C1683 1.429 . S
C1699 C1695 1.429 . S
C1699 C1700 1.523 . S
C1700 C1684 1.368 . S
C1700 C1696 1.368 . S
C1700 C1699 1.523 . S
H1701 C1676 0.950 . S
H1702 C1678 0.950 . S
H1703 C1679 0.949 1_455 S
H1704 C1681 0.950 . S
H1705 C1683 0.950 . S
C1706 C1707 1.349 . S
C1706 C1708 1.327 . S
C1706 H1731 0.950 . S
C1707 C1706 1.349 . S
C1707 C1723 1.349 . S
C1708 C1706 1.327 . S
C1708 C1727 1.429 . S
C1708 H1732 0.950 . S
C1709 C1726 1.574 . S
C1709 C1728 1.368 . S
C1709 H1733 0.949 . S
H1710 C1714 0.949 . S
C1711 C1712 1.349 . S
C1711 C1713 1.327 . S
C1711 H1734 0.950 . S
C1712 C1711 1.349 . S
C1712 C1724 1.349 . S
C1713 C1711 1.327 . S
C1713 C1729 1.429 . S
C1713 H1735 0.950 . S
C1714 H1710 0.949 . S
C1714 C1722 1.574 . S
C1714 C1730 1.368 . S
H1715 C1723 0.950 . S
H1716 C1721 0.950 . S
H1717 C1722 0.949 . S
H1718 C1724 0.950 . S
H1719 C1725 0.950 . S
H1720 C1726 0.949 . S
C1721 H1716 0.950 . S
C1721 C1723 1.327 . S
C1721 C1727 1.429 . S
C1722 C1714 1.574 . S
C1722 H1717 0.949 . S
C1722 C1728 1.368 . S
C1723 C1707 1.349 . S
C1723 H1715 0.950 . S
C1723 C1721 1.327 . S
C1724 C1712 1.349 . S
C1724 H1718 0.950 . S
C1724 C1725 1.327 . S
C1725 H1719 0.950 . S
C1725 C1724 1.327 . S
C1725 C1729 1.429 . S
C1726 C1709 1.574 . S
C1726 H1720 0.949 . S
C1726 C1730 1.368 . S
C1727 C1708 1.429 . S
C1727 C1721 1.429 . S
C1727 C1728 1.523 . S
C1728 C1709 1.368 . S
C1728 C1722 1.368 . S
C1728 C1727 1.523 . S
C1729 C1713 1.429 . S
C1729 C1725 1.429 . S
C1729 C1730 1.523 . S
C1730 C1714 1.368 . S
C1730 C1726 1.368 . S
C1730 C1729 1.523 . S
H1731 C1706 0.950 . S
H1732 C1708 0.950 . S
H1733 C1709 0.949 . S
H1734 C1711 0.950 . S
H1735 C1713 0.950 . S
C1736 C1737 1.349 . S
C1736 C1738 1.327 . S
C1736 H1761 0.950 . S
C1737 C1736 1.349 . S
C1737 C1753 1.349 . S
C1738 C1736 1.327 . S
C1738 C1757 1.429 . S
C1738 H1762 0.950 . S
C1739 C1756 1.574 . S
C1739 C1758 1.368 . S
C1739 H1763 0.949 . S
H1740 C1744 0.949 . S
C1741 C1742 1.349 . S
C1741 C1743 1.327 . S
C1741 H1764 0.950 . S
C1742 C1741 1.349 . S
C1742 C1754 1.349 . S
C1743 C1741 1.327 . S
C1743 C1759 1.429 . S
C1743 H1765 0.950 . S
C1744 H1740 0.949 . S
C1744 C1752 1.572 1_455 S
C1744 C1760 1.368 . S
H1745 C1753 0.950 . S
H1746 C1751 0.950 1_455 S
H1747 C1752 0.951 . S
H1748 C1754 0.950 . S
H1749 C1755 0.950 . S
H1750 C1756 0.949 . S
C1751 H1746 0.950 1_655 S
C1751 C1753 1.327 . S
C1751 C1757 1.429 . S
C1752 C1744 1.572 1_655 S
C1752 H1747 0.951 . S
C1752 C1758 1.368 1_655 S
C1753 C1737 1.349 . S
C1753 H1745 0.950 . S
C1753 C1751 1.327 . S
C1754 C1742 1.349 . S
C1754 H1748 0.950 . S
C1754 C1755 1.327 . S
C1755 H1749 0.950 . S
C1755 C1754 1.327 . S
C1755 C1759 1.429 . S
C1756 C1739 1.574 . S
C1756 H1750 0.949 . S
C1756 C1760 1.368 . S
C1757 C1738 1.429 . S
C1757 C1751 1.429 . S
C1757 C1758 1.523 1_655 S
C1758 C1739 1.368 . S
C1758 C1752 1.368 1_455 S
C1758 C1757 1.523 1_455 S
C1759 C1743 1.429 . S
C1759 C1755 1.429 . S
C1759 C1760 1.523 . S
C1760 C1744 1.368 . S
C1760 C1756 1.368 . S
C1760 C1759 1.523 . S
H1761 C1736 0.950 . S
H1762 C1738 0.950 . S
H1763 C1739 0.949 . S
H1764 C1741 0.950 . S
H1765 C1743 0.950 . S
C1766 C1767 1.349 . S
C1766 C1768 1.327 . S
C1766 H1791 0.950 . S
C1767 C1766 1.349 . S
C1767 C1783 1.349 . S
C1768 C1766 1.327 . S
C1768 C1787 1.429 . S
C1768 H1792 0.950 . S
C1769 C1786 1.574 . S
C1769 C1788 1.368 . S
C1769 H1793 0.949 . S
H1770 C1774 0.949 . S
C1771 C1772 1.349 . S
C1771 C1773 1.327 . S
C1771 H1794 0.950 . S
C1772 C1771 1.349 . S
C1772 C1784 1.349 . S
C1773 C1771 1.327 . S
C1773 C1789 1.429 . S
C1773 H1795 0.950 . S
C1774 H1770 0.949 . S
C1774 C1782 1.574 . S
C1774 C1790 1.368 . S
H1775 C1783 0.950 . S
H1776 C1781 0.950 . S
H1777 C1782 0.949 . S
H1778 C1784 0.950 . S
H1779 C1785 0.950 . S
H1780 C1786 0.949 . S
C1781 H1776 0.950 . S
C1781 C1783 1.327 . S
C1781 C1787 1.429 . S
C1782 C1774 1.574 . S
C1782 H1777 0.949 . S
C1782 C1788 1.368 . S
C1783 C1767 1.349 . S
C1783 H1775 0.950 . S
C1783 C1781 1.327 . S
C1784 C1772 1.349 . S
C1784 H1778 0.950 . S
C1784 C1785 1.327 . S
C1785 H1779 0.950 . S
C1785 C1784 1.327 . S
C1785 C1789 1.429 . S
C1786 C1769 1.574 . S
C1786 H1780 0.949 . S
C1786 C1790 1.368 . S
C1787 C1768 1.429 . S
C1787 C1781 1.429 . S
C1787 C1788 1.523 . S
C1788 C1769 1.368 . S
C1788 C1782 1.368 . S
C1788 C1787 1.523 . S
C1789 C1773 1.429 . S
C1789 C1785 1.429 . S
C1789 C1790 1.523 . S
C1790 C1774 1.368 . S
C1790 C1786 1.368 . S
C1790 C1789 1.523 . S
H1791 C1766 0.950 . S
H1792 C1768 0.950 . S
H1793 C1769 0.949 . S
H1794 C1771 0.950 . S
H1795 C1773 0.950 . S
C1796 C1797 1.349 . S
C1796 C1798 1.327 . S
C1796 H1821 0.950 . S
C1797 C1796 1.349 . S
C1797 C1813 1.349 . S
C1798 C1796 1.327 . S
C1798 C1817 1.429 . S
C1798 H1822 0.950 . S
C1799 C1816 1.574 . S
C1799 C1818 1.368 . S
C1799 H1823 0.949 . S
H1800 C1804 0.949 . S
C1801 C1802 1.349 . S
C1801 C1803 1.327 . S
C1801 H1824 0.950 . S
C1802 C1801 1.349 . S
C1802 C1814 1.349 . S
C1803 C1801 1.327 . S
C1803 C1819 1.429 . S
C1803 H1825 0.950 . S
C1804 H1800 0.949 . S
C1804 C1812 1.574 . S
C1804 C1820 1.368 . S
H1805 C1813 0.950 . S
H1806 C1811 0.950 . S
H1807 C1812 0.949 . S
H1808 C1814 0.950 . S
H1809 C1815 0.950 . S
H1810 C1816 0.949 . S
C1811 H1806 0.950 . S
C1811 C1813 1.327 . S
C1811 C1817 1.429 . S
C1812 C1804 1.574 . S
C1812 H1807 0.949 . S
C1812 C1818 1.368 . S
C1813 C1797 1.349 . S
C1813 H1805 0.950 . S
C1813 C1811 1.327 . S
C1814 C1802 1.349 . S
C1814 H1808 0.950 . S
C1814 C1815 1.327 . S
C1815 H1809 0.950 . S
C1815 C1814 1.327 . S
C1815 C1819 1.429 . S
C1816 C1799 1.574 . S
C1816 H1810 0.949 . S
C1816 C1820 1.368 . S
C1817 C1798 1.429 . S
C1817 C1811 1.429 . S
C1817 C1818 1.523 . S
C1818 C1799 1.368 . S
C1818 C1812 1.368 . S
C1818 C1817 1.523 . S
C1819 C1803 1.429 . S
C1819 C1815 1.429 . S
C1819 C1820 1.523 . S
C1820 C1804 1.368 . S
C1820 C1816 1.368 . S
C1820 C1819 1.523 . S
H1821 C1796 0.950 . S
H1822 C1798 0.950 . S
H1823 C1799 0.949 . S
H1824 C1801 0.950 . S
H1825 C1803 0.950 . S
C1826 C1827 1.349 . S
C1826 C1828 1.327 . S
C1826 H1851 0.950 . S
C1827 C1826 1.349 . S
C1827 C1843 1.349 . S
C1828 C1826 1.327 . S
C1828 C1847 1.429 . S
C1828 H1852 0.922 1_554 S
C1829 C1846 1.579 . S
C1829 C1848 1.370 . S
C1829 H1853 0.943 1_556 S
H1830 C1834 0.949 . S
C1831 C1832 1.349 . S
C1831 C1833 1.327 . S
C1831 H1854 0.950 . S
C1832 C1831 1.349 . S
C1832 C1844 1.349 . S
C1833 C1831 1.327 . S
C1833 C1849 1.429 . S
C1833 H1855 0.950 . S
C1834 H1830 0.949 . S
C1834 C1842 1.574 . S
C1834 C1850 1.368 . S
H1835 C1843 0.950 . S
H1836 C1841 0.950 . S
H1837 C1842 0.949 . S
H1838 C1844 0.950 . S
H1839 C1845 0.950 . S
H1840 C1846 0.949 . S
C1841 H1836 0.950 . S
C1841 C1843 1.327 . S
C1841 C1847 1.429 . S
C1842 C1834 1.574 . S
C1842 H1837 0.949 . S
C1842 C1848 1.368 . S
C1843 C1827 1.349 . S
C1843 H1835 0.950 . S
C1843 C1841 1.327 . S
C1844 C1832 1.349 . S
C1844 H1838 0.950 . S
C1844 C1845 1.327 . S
C1845 H1839 0.950 . S
C1845 C1844 1.327 . S
C1845 C1849 1.429 . S
C1846 C1829 1.579 . S
C1846 H1840 0.949 . S
C1846 C1850 1.368 . S
C1847 C1828 1.429 . S
C1847 C1841 1.429 . S
C1847 C1848 1.523 1_554 S
C1848 C1829 1.370 . S
C1848 C1842 1.368 . S
C1848 C1847 1.523 1_556 S
C1849 C1833 1.429 . S
C1849 C1845 1.429 . S
C1849 C1850 1.523 . S
C1850 C1834 1.368 . S
C1850 C1846 1.368 . S
C1850 C1849 1.523 . S
H1851 C1826 0.950 . S
H1852 C1828 0.922 1_556 S
H1853 C1829 0.943 1_554 S
H1854 C1831 0.950 . S
H1855 C1833 0.950 . S
C1856 C1857 1.349 . S
C1856 C1858 1.327 . S
C1856 H1881 0.950 . S
C1857 C1856 1.349 . S
C1857 C1873 1.349 . S
C1858 C1856 1.327 . S
C1858 C1877 1.429 . S
C1858 H1882 0.950 . S
C1859 C1876 1.574 . S
C1859 C1878 1.368 . S
C1859 H1883 0.949 . S
H1860 C1864 0.949 . S
C1861 C1862 1.349 . S
C1861 C1863 1.327 . S
C1861 H1884 0.950 . S
C1862 C1861 1.349 . S
C1862 C1874 1.349 . S
C1863 C1861 1.327 . S
C1863 C1879 1.429 . S
C1863 H1885 0.950 . S
C1864 H1860 0.949 . S
C1864 C1872 1.574 . S
C1864 C1880 1.368 . S
H1865 C1873 0.950 . S
H1866 C1871 0.950 . S
H1867 C1872 0.949 . S
H1868 C1874 0.950 . S
H1869 C1875 0.950 . S
H1870 C1876 0.949 . S
C1871 H1866 0.950 . S
C1871 C1873 1.327 . S
C1871 C1877 1.429 . S
C1872 C1864 1.574 . S
C1872 H1867 0.949 . S
C1872 C1878 1.368 . S
C1873 C1857 1.349 . S
C1873 H1865 0.950 . S
C1873 C1871 1.327 . S
C1874 C1862 1.349 . S
C1874 H1868 0.950 . S
C1874 C1875 1.327 . S
C1875 H1869 0.950 . S
C1875 C1874 1.327 . S
C1875 C1879 1.429 . S
C1876 C1859 1.574 . S
C1876 H1870 0.949 . S
C1876 C1880 1.368 . S
C1877 C1858 1.429 . S
C1877 C1871 1.429 . S
C1877 C1878 1.523 . S
C1878 C1859 1.368 . S
C1878 C1872 1.368 . S
C1878 C1877 1.523 . S
C1879 C1863 1.429 . S
C1879 C1875 1.429 . S
C1879 C1880 1.523 . S
C1880 C1864 1.368 . S
C1880 C1876 1.368 . S
C1880 C1879 1.523 . S
H1881 C1856 0.950 . S
H1882 C1858 0.950 . S
H1883 C1859 0.949 . S
H1884 C1861 0.950 . S
H1885 C1863 0.950 . S
C1886 C1887 1.349 . S
C1886 C1888 1.327 . S
C1886 H1911 0.950 . S
C1887 C1886 1.349 . S
C1887 C1903 1.349 . S
C1888 C1886 1.327 . S
C1888 C1907 1.429 . S
C1888 H1912 0.950 . S
C1889 C1906 1.574 . S
C1889 C1908 1.368 . S
C1889 H1913 0.949 . S
H1890 C1894 0.949 . S
C1891 C1892 1.349 . S
C1891 C1893 1.327 . S
C1891 H1914 0.950 . S
C1892 C1891 1.349 . S
C1892 C1904 1.349 . S
C1893 C1891 1.327 . S
C1893 C1909 1.429 . S
C1893 H1915 0.950 . S
C1894 H1890 0.949 . S
C1894 C1902 1.574 . S
C1894 C1910 1.368 . S
H1895 C1903 0.950 . S
H1896 C1901 0.950 . S
H1897 C1902 0.949 . S
H1898 C1904 0.950 . S
H1899 C1905 0.950 . S
H1900 C1906 0.949 . S
C1901 H1896 0.950 . S
C1901 C1903 1.327 . S
C1901 C1907 1.429 . S
C1902 C1894 1.574 . S
C1902 H1897 0.949 . S
C1902 C1908 1.368 . S
C1903 C1887 1.349 . S
C1903 H1895 0.950 . S
C1903 C1901 1.327 . S
C1904 C1892 1.349 . S
C1904 H1898 0.950 . S
C1904 C1905 1.327 . S
C1905 H1899 0.950 . S
C1905 C1904 1.327 . S
C1905 C1909 1.429 . S
C1906 C1889 1.574 . S
C1906 H1900 0.949 . S
C1906 C1910 1.368 . S
C1907 C1888 1.429 . S
C1907 C1901 1.429 . S
C1907 C1908 1.523 . S
C1908 C1889 1.368 . S
C1908 C1902 1.368 . S
C1908 C1907 1.523 . S
C1909 C1893 1.429 . S
C1909 C1905 1.429 . S
C1909 C1910 1.523 . S
C1910 C1894 1.368 . S
C1910 C1906 1.368 . S
C1910 C1909 1.523 . S
H1911 C1886 0.950 . S
H1912 C1888 0.950 . S
H1913 C1889 0.949 . S
H1914 C1891 0.950 . S
H1915 C1893 0.950 . S
C1916 C1917 1.349 . S
C1916 C1918 1.327 . S
C1916 H1941 0.950 . S
C1917 C1916 1.349 . S
C1917 C1933 1.349 . S
C1918 C1916 1.327 . S
C1918 C1937 1.429 . S
C1918 H1942 0.950 . S
C1919 C1936 1.574 . S
C1919 C1938 1.368 . S
C1919 H1943 0.949 . S
H1920 C1924 0.949 . S
C1921 C1922 1.349 . S
C1921 C1923 1.327 . S
C1921 H1944 0.950 . S
C1922 C1921 1.349 . S
C1922 C1934 1.349 . S
C1923 C1921 1.327 . S
C1923 C1939 1.429 . S
C1923 H1945 0.950 . S
C1924 H1920 0.949 . S
C1924 C1932 1.574 . S
C1924 C1940 1.368 . S
H1925 C1933 0.950 . S
H1926 C1931 0.950 . S
H1927 C1932 0.949 . S
H1928 C1934 0.950 . S
H1929 C1935 0.950 . S
H1930 C1936 0.949 . S
C1931 H1926 0.950 . S
C1931 C1933 1.327 . S
C1931 C1937 1.429 . S
C1932 C1924 1.574 . S
C1932 H1927 0.949 . S
C1932 C1938 1.368 . S
C1933 C1917 1.349 . S
C1933 H1925 0.950 . S
C1933 C1931 1.327 . S
C1934 C1922 1.349 . S
C1934 H1928 0.950 . S
C1934 C1935 1.327 . S
C1935 H1929 0.950 . S
C1935 C1934 1.327 . S
C1935 C1939 1.429 . S
C1936 C1919 1.574 . S
C1936 H1930 0.949 . S
C1936 C1940 1.368 . S
C1937 C1918 1.429 . S
C1937 C1931 1.429 . S
C1937 C1938 1.523 . S
C1938 C1919 1.368 . S
C1938 C1932 1.368 . S
C1938 C1937 1.523 . S
C1939 C1923 1.429 . S
C1939 C1935 1.429 . S
C1939 C1940 1.523 . S
C1940 C1924 1.368 . S
C1940 C1936 1.368 . S
C1940 C1939 1.523 . S
H1941 C1916 0.950 . S
H1942 C1918 0.950 . S
H1943 C1919 0.949 . S
H1944 C1921 0.950 . S
H1945 C1923 0.950 . S
C1946 C1947 1.349 . S
C1946 C1948 1.327 . S
C1946 H1971 0.950 . S
C1947 C1946 1.349 . S
C1947 C1963 1.349 . S
C1948 C1946 1.327 . S
C1948 C1967 1.429 . S
C1948 H1972 0.950 . S
C1949 C1966 1.574 . S
C1949 C1968 1.368 . S
C1949 H1973 0.949 . S
H1950 C1954 0.949 . S
C1951 C1952 1.349 . S
C1951 C1953 1.327 . S
C1951 H1974 0.950 . S
C1952 C1951 1.349 . S
C1952 C1964 1.349 . S
C1953 C1951 1.327 . S
C1953 C1969 1.429 . S
C1953 H1975 0.950 . S
C1954 H1950 0.949 . S
C1954 C1962 1.574 . S
C1954 C1970 1.368 . S
H1955 C1963 0.950 . S
H1956 C1961 0.950 . S
H1957 C1962 0.949 . S
H1958 C1964 0.950 . S
H1959 C1965 0.950 . S
H1960 C1966 0.949 . S
C1961 H1956 0.950 . S
C1961 C1963 1.327 . S
C1961 C1967 1.429 . S
C1962 C1954 1.574 . S
C1962 H1957 0.949 . S
C1962 C1968 1.368 . S
C1963 C1947 1.349 . S
C1963 H1955 0.950 . S
C1963 C1961 1.327 . S
C1964 C1952 1.349 . S
C1964 H1958 0.950 . S
C1964 C1965 1.327 . S
C1965 H1959 0.950 . S
C1965 C1964 1.327 . S
C1965 C1969 1.429 . S
C1966 C1949 1.574 . S
C1966 H1960 0.949 . S
C1966 C1970 1.368 . S
C1967 C1948 1.429 . S
C1967 C1961 1.429 . S
C1967 C1968 1.523 . S
C1968 C1949 1.368 . S
C1968 C1962 1.368 . S
C1968 C1967 1.523 . S
C1969 C1953 1.429 . S
C1969 C1965 1.429 . S
C1969 C1970 1.523 1_556 S
C1970 C1954 1.368 . S
C1970 C1966 1.368 . S
C1970 C1969 1.523 1_554 S
H1971 C1946 0.950 . S
H1972 C1948 0.950 . S
H1973 C1949 0.949 . S
H1974 C1951 0.950 . S
H1975 C1953 0.950 . S
C1976 C1977 1.349 . S
C1976 C1978 1.327 . S
C1976 H2001 0.950 . S
C1977 C1976 1.349 . S
C1977 C1993 1.349 . S
C1978 C1976 1.327 . S
C1978 C1997 1.429 . S
C1978 H2002 0.950 . S
C1979 C1996 1.574 . S
C1979 C1998 1.368 . S
C1979 H2003 0.949 . S
H1980 C1984 0.949 . S
C1981 C1982 1.349 . S
C1981 C1983 1.327 . S
C1981 H2004 0.950 . S
C1982 C1981 1.349 . S
C1982 C1994 1.349 . S
C1983 C1981 1.327 . S
C1983 C1999 1.429 . S
C1983 H2005 0.950 . S
C1984 H1980 0.949 . S
C1984 C1992 1.574 . S
C1984 C2000 1.368 . S
H1985 C1993 0.950 . S
H1986 C1991 0.950 . S
H1987 C1992 0.949 . S
H1988 C1994 0.950 . S
H1989 C1995 0.950 . S
H1990 C1996 0.949 . S
C1991 H1986 0.950 . S
C1991 C1993 1.327 . S
C1991 C1997 1.429 . S
C1992 C1984 1.574 . S
C1992 H1987 0.949 . S
C1992 C1998 1.368 . S
C1993 C1977 1.349 . S
C1993 H1985 0.950 . S
C1993 C1991 1.327 . S
C1994 C1982 1.349 . S
C1994 H1988 0.950 . S
C1994 C1995 1.327 . S
C1995 H1989 0.950 . S
C1995 C1994 1.327 . S
C1995 C1999 1.429 . S
C1996 C1979 1.574 . S
C1996 H1990 0.949 . S
C1996 C2000 1.368 . S
C1997 C1978 1.429 . S
C1997 C1991 1.429 . S
C1997 C1998 1.523 . S
C1998 C1979 1.368 . S
C1998 C1992 1.368 . S
C1998 C1997 1.523 . S
C1999 C1983 1.429 . S
C1999 C1995 1.429 . S
C1999 C2000 1.523 . S
C2000 C1984 1.368 . S
C2000 C1996 1.368 . S
C2000 C1999 1.523 . S
H2001 C1976 0.950 . S
H2002 C1978 0.950 . S
H2003 C1979 0.949 . S
H2004 C1981 0.950 . S
H2005 C1983 0.950 . S
C2006 C2007 1.349 . S
C2006 C2008 1.327 . S
C2006 H2031 0.950 . S
C2007 C2006 1.349 . S
C2007 C2023 1.349 . S
C2008 C2006 1.327 . S
C2008 C2027 1.429 . S
C2008 H2032 0.950 . S
C2009 C2026 1.574 . S
C2009 C2028 1.368 . S
C2009 H2033 0.949 . S
H2010 C2014 0.949 . S
C2011 C2012 1.349 . S
C2011 C2013 1.327 . S
C2011 H2034 0.950 . S
C2012 C2011 1.349 . S
C2012 C2024 1.349 . S
C2013 C2011 1.327 . S
C2013 C2029 1.429 . S
C2013 H2035 0.950 . S
C2014 H2010 0.949 . S
C2014 C2022 1.574 . S
C2014 C2030 1.368 . S
H2015 C2023 0.950 . S
H2016 C2021 0.950 . S
H2017 C2022 0.949 . S
H2018 C2024 0.950 . S
H2019 C2025 0.950 . S
H2020 C2026 0.949 . S
C2021 H2016 0.950 . S
C2021 C2023 1.327 . S
C2021 C2027 1.429 . S
C2022 C2014 1.574 . S
C2022 H2017 0.949 . S
C2022 C2028 1.368 . S
C2023 C2007 1.349 . S
C2023 H2015 0.950 . S
C2023 C2021 1.327 . S
C2024 C2012 1.349 . S
C2024 H2018 0.950 . S
C2024 C2025 1.327 . S
C2025 H2019 0.950 . S
C2025 C2024 1.327 . S
C2025 C2029 1.429 . S
C2026 C2009 1.574 . S
C2026 H2020 0.949 . S
C2026 C2030 1.368 . S
C2027 C2008 1.429 . S
C2027 C2021 1.429 . S
C2027 C2028 1.523 . S
C2028 C2009 1.368 . S
C2028 C2022 1.368 . S
C2028 C2027 1.523 . S
C2029 C2013 1.429 . S
C2029 C2025 1.429 . S
C2029 C2030 1.523 . S
C2030 C2014 1.368 . S
C2030 C2026 1.368 . S
C2030 C2029 1.523 . S
H2031 C2006 0.950 . S
H2032 C2008 0.950 . S
H2033 C2009 0.949 . S
H2034 C2011 0.950 . S
H2035 C2013 0.950 . S
C2036 C2037 1.349 . S
C2036 C2038 1.327 . S
C2036 H2061 0.950 . S
C2037 C2036 1.349 . S
C2037 C2053 1.349 . S
C2038 C2036 1.327 . S
C2038 C2057 1.429 . S
C2038 H2062 0.950 . S
C2039 C2056 1.574 . S
C2039 C2058 1.368 . S
C2039 H2063 0.949 . S
H2040 C2044 0.949 . S
C2041 C2042 1.349 . S
C2041 C2043 1.327 . S
C2041 H2064 0.950 . S
C2042 C2041 1.349 . S
C2042 C2054 1.349 . S
C2043 C2041 1.327 . S
C2043 C2059 1.429 . S
C2043 H2065 0.950 . S
C2044 H2040 0.949 . S
C2044 C2052 1.574 . S
C2044 C2060 1.368 . S
H2045 C2053 0.950 . S
H2046 C2051 0.950 . S
H2047 C2052 0.949 . S
H2048 C2054 0.950 . S
H2049 C2055 0.950 . S
H2050 C2056 0.949 . S
C2051 H2046 0.950 . S
C2051 C2053 1.327 . S
C2051 C2057 1.429 . S
C2052 C2044 1.574 . S
C2052 H2047 0.949 . S
C2052 C2058 1.368 . S
C2053 C2037 1.349 . S
C2053 H2045 0.950 . S
C2053 C2051 1.327 . S
C2054 C2042 1.349 . S
C2054 H2048 0.950 . S
C2054 C2055 1.327 . S
C2055 H2049 0.950 . S
C2055 C2054 1.327 . S
C2055 C2059 1.429 . S
C2056 C2039 1.574 . S
C2056 H2050 0.949 . S
C2056 C2060 1.368 . S
C2057 C2038 1.429 . S
C2057 C2051 1.429 . S
C2057 C2058 1.523 . S
C2058 C2039 1.368 . S
C2058 C2052 1.368 . S
C2058 C2057 1.523 . S
C2059 C2043 1.429 . S
C2059 C2055 1.429 . S
C2059 C2060 1.523 . S
C2060 C2044 1.368 . S
C2060 C2056 1.368 . S
C2060 C2059 1.523 . S
H2061 C2036 0.950 . S
H2062 C2038 0.950 . S
H2063 C2039 0.949 . S
H2064 C2041 0.950 . S
H2065 C2043 0.950 . S
C2066 C2067 1.349 . S
C2066 C2068 1.327 . S
C2066 H2091 0.950 . S
C2067 C2066 1.349 . S
C2067 C2083 1.349 . S
C2068 C2066 1.327 . S
C2068 C2087 1.429 . S
C2068 H2092 0.950 . S
C2069 C2086 1.574 . S
C2069 C2088 1.368 . S
C2069 H2093 0.949 . S
H2070 C2074 0.949 . S
C2071 C2072 1.349 . S
C2071 C2073 1.327 . S
C2071 H2094 0.950 . S
C2072 C2071 1.349 . S
C2072 C2084 1.349 . S
C2073 C2071 1.327 . S
C2073 C2089 1.429 . S
C2073 H2095 0.950 . S
C2074 H2070 0.949 . S
C2074 C2082 1.574 . S
C2074 C2090 1.368 . S
H2075 C2083 0.950 . S
H2076 C2081 0.950 . S
H2077 C2082 0.949 . S
H2078 C2084 0.950 . S
H2079 C2085 0.950 . S
H2080 C2086 0.949 . S
C2081 H2076 0.950 . S
C2081 C2083 1.327 . S
C2081 C2087 1.429 . S
C2082 C2074 1.574 . S
C2082 H2077 0.949 . S
C2082 C2088 1.368 . S
C2083 C2067 1.349 . S
C2083 H2075 0.950 . S
C2083 C2081 1.327 . S
C2084 C2072 1.349 . S
C2084 H2078 0.950 . S
C2084 C2085 1.327 . S
C2085 H2079 0.950 . S
C2085 C2084 1.327 . S
C2085 C2089 1.429 . S
C2086 C2069 1.574 . S
C2086 H2080 0.949 . S
C2086 C2090 1.368 . S
C2087 C2068 1.429 . S
C2087 C2081 1.429 . S
C2087 C2088 1.523 . S
C2088 C2069 1.368 . S
C2088 C2082 1.368 . S
C2088 C2087 1.523 . S
C2089 C2073 1.429 . S
C2089 C2085 1.429 . S
C2089 C2090 1.523 . S
C2090 C2074 1.368 . S
C2090 C2086 1.368 . S
C2090 C2089 1.523 . S
H2091 C2066 0.950 . S
H2092 C2068 0.950 . S
H2093 C2069 0.949 . S
H2094 C2071 0.950 . S
H2095 C2073 0.950 . S
C2096 C2097 1.349 . S
C2096 C2098 1.327 . S
C2096 H2121 0.950 . S
C2097 C2096 1.349 . S
C2097 C2113 1.349 . S
C2098 C2096 1.327 . S
C2098 C2117 1.429 . S
C2098 H2122 0.950 . S
C2099 C2116 1.574 1_554 S
C2099 C2118 1.368 . S
C2099 H2123 0.949 . S
H2100 C2104 0.949 . S
C2101 C2102 1.349 . S
C2101 C2103 1.327 . S
C2101 H2124 0.950 . S
C2102 C2101 1.349 . S
C2102 C2114 1.349 . S
C2103 C2101 1.327 . S
C2103 C2119 1.429 . S
C2103 H2125 0.950 . S
C2104 H2100 0.949 . S
C2104 C2112 1.574 . S
C2104 C2120 1.368 1_554 S
H2105 C2113 0.950 . S
H2106 C2111 0.950 . S
H2107 C2112 0.949 . S
H2108 C2114 0.950 . S
H2109 C2115 0.950 . S
H2110 C2116 0.949 . S
C2111 H2106 0.950 . S
C2111 C2113 1.327 . S
C2111 C2117 1.429 . S
C2112 C2104 1.574 . S
C2112 H2107 0.949 . S
C2112 C2118 1.368 . S
C2113 C2097 1.349 . S
C2113 H2105 0.950 . S
C2113 C2111 1.327 . S
C2114 C2102 1.349 . S
C2114 H2108 0.950 . S
C2114 C2115 1.327 . S
C2115 H2109 0.950 . S
C2115 C2114 1.327 . S
C2115 C2119 1.429 . S
C2116 C2099 1.574 1_556 S
C2116 H2110 0.949 . S
C2116 C2120 1.368 . S
C2117 C2098 1.429 . S
C2117 C2111 1.429 . S
C2117 C2118 1.523 . S
C2118 C2099 1.368 . S
C2118 C2112 1.368 . S
C2118 C2117 1.523 . S
C2119 C2103 1.429 . S
C2119 C2115 1.429 . S
C2119 C2120 1.523 . S
C2120 C2104 1.368 1_556 S
C2120 C2116 1.368 . S
C2120 C2119 1.523 . S
H2121 C2096 0.950 . S
H2122 C2098 0.950 . S
H2123 C2099 0.949 . S
H2124 C2101 0.950 . S
H2125 C2103 0.950 . S
C2126 C2127 1.349 . S
C2126 C2128 1.327 . S
C2126 H2151 0.950 . S
C2127 C2126 1.349 . S
C2127 C2143 1.349 . S
C2128 C2126 1.327 . S
C2128 C2147 1.429 . S
C2128 H2152 0.950 . S
C2129 C2146 1.574 . S
C2129 C2148 1.368 . S
C2129 H2153 0.949 . S
H2130 C2134 0.949 . S
C2131 C2132 1.349 . S
C2131 C2133 1.327 . S
C2131 H2154 0.950 . S
C2132 C2131 1.349 . S
C2132 C2144 1.349 . S
C2133 C2131 1.327 . S
C2133 C2149 1.429 . S
C2133 H2155 0.950 . S
C2134 H2130 0.949 . S
C2134 C2142 1.574 . S
C2134 C2150 1.368 . S
H2135 C2143 0.950 . S
H2136 C2141 0.950 . S
H2137 C2142 0.949 . S
H2138 C2144 0.950 . S
H2139 C2145 0.950 . S
H2140 C2146 0.949 . S
C2141 H2136 0.950 . S
C2141 C2143 1.327 . S
C2141 C2147 1.429 . S
C2142 C2134 1.574 . S
C2142 H2137 0.949 . S
C2142 C2148 1.368 . S
C2143 C2127 1.349 . S
C2143 H2135 0.950 . S
C2143 C2141 1.327 . S
C2144 C2132 1.349 . S
C2144 H2138 0.950 . S
C2144 C2145 1.327 . S
C2145 H2139 0.950 . S
C2145 C2144 1.327 . S
C2145 C2149 1.429 . S
C2146 C2129 1.574 . S
C2146 H2140 0.949 . S
C2146 C2150 1.368 . S
C2147 C2128 1.429 . S
C2147 C2141 1.429 . S
C2147 C2148 1.523 . S
C2148 C2129 1.368 . S
C2148 C2142 1.368 . S
C2148 C2147 1.523 . S
C2149 C2133 1.429 . S
C2149 C2145 1.429 . S
C2149 C2150 1.523 . S
C2150 C2134 1.368 . S
C2150 C2146 1.368 . S
C2150 C2149 1.523 . S
H2151 C2126 0.950 . S
H2152 C2128 0.950 . S
H2153 C2129 0.949 . S
H2154 C2131 0.950 . S
H2155 C2133 0.950 . S
C2156 C2157 1.349 . S
C2156 C2158 1.327 . S
C2156 H2181 0.950 . S
C2157 C2156 1.349 . S
C2157 C2173 1.349 . S
C2158 C2156 1.327 . S
C2158 C2177 1.429 . S
C2158 H2182 0.950 . S
C2159 C2176 1.574 . S
C2159 C2178 1.368 . S
C2159 H2183 0.949 . S
H2160 C2164 0.949 . S
C2161 C2162 1.349 . S
C2161 C2163 1.327 . S
C2161 H2184 0.950 . S
C2162 C2161 1.349 . S
C2162 C2174 1.349 . S
C2163 C2161 1.327 . S
C2163 C2179 1.429 . S
C2163 H2185 0.950 . S
C2164 H2160 0.949 . S
C2164 C2172 1.574 . S
C2164 C2180 1.368 . S
H2165 C2173 0.950 . S
H2166 C2171 0.950 . S
H2167 C2172 0.949 . S
H2168 C2174 0.950 . S
H2169 C2175 0.950 . S
H2170 C2176 0.949 . S
C2171 H2166 0.950 . S
C2171 C2173 1.327 . S
C2171 C2177 1.429 . S
C2172 C2164 1.574 . S
C2172 H2167 0.949 . S
C2172 C2178 1.368 . S
C2173 C2157 1.349 . S
C2173 H2165 0.950 . S
C2173 C2171 1.327 . S
C2174 C2162 1.349 . S
C2174 H2168 0.950 . S
C2174 C2175 1.327 . S
C2175 H2169 0.950 . S
C2175 C2174 1.327 . S
C2175 C2179 1.429 . S
C2176 C2159 1.574 . S
C2176 H2170 0.949 . S
C2176 C2180 1.368 . S
C2177 C2158 1.429 . S
C2177 C2171 1.429 . S
C2177 C2178 1.523 . S
C2178 C2159 1.368 . S
C2178 C2172 1.368 . S
C2178 C2177 1.523 . S
C2179 C2163 1.429 . S
C2179 C2175 1.429 . S
C2179 C2180 1.523 . S
C2180 C2164 1.368 . S
C2180 C2176 1.368 . S
C2180 C2179 1.523 . S
H2181 C2156 0.950 . S
H2182 C2158 0.950 . S
H2183 C2159 0.949 . S
H2184 C2161 0.950 . S
H2185 C2163 0.950 . S
C2186 C2187 1.349 . S
C2186 C2188 1.327 . S
C2186 H2211 0.950 . S
C2187 C2186 1.349 . S
C2187 C2203 1.349 . S
C2188 C2186 1.327 . S
C2188 C2207 1.429 . S
C2188 H2212 0.950 . S
C2189 C2206 1.574 . S
C2189 C2208 1.368 . S
C2189 H2213 0.949 . S
H2190 C2194 0.949 . S
C2191 C2192 1.349 . S
C2191 C2193 1.327 . S
C2191 H2214 0.950 . S
C2192 C2191 1.349 . S
C2192 C2204 1.349 . S
C2193 C2191 1.327 . S
C2193 C2209 1.429 . S
C2193 H2215 0.950 . S
C2194 H2190 0.949 . S
C2194 C2202 1.574 . S
C2194 C2210 1.368 . S
H2195 C2203 0.950 . S
H2196 C2201 0.950 . S
H2197 C2202 0.949 . S
H2198 C2204 0.950 . S
H2199 C2205 0.950 . S
H2200 C2206 0.949 . S
C2201 H2196 0.950 . S
C2201 C2203 1.327 . S
C2201 C2207 1.429 . S
C2202 C2194 1.574 . S
C2202 H2197 0.949 . S
C2202 C2208 1.368 . S
C2203 C2187 1.349 . S
C2203 H2195 0.950 . S
C2203 C2201 1.327 . S
C2204 C2192 1.349 . S
C2204 H2198 0.950 . S
C2204 C2205 1.327 . S
C2205 H2199 0.950 . S
C2205 C2204 1.327 . S
C2205 C2209 1.429 . S
C2206 C2189 1.574 . S
C2206 H2200 0.949 . S
C2206 C2210 1.368 . S
C2207 C2188 1.429 . S
C2207 C2201 1.429 . S
C2207 C2208 1.523 . S
C2208 C2189 1.368 . S
C2208 C2202 1.368 . S
C2208 C2207 1.523 . S
C2209 C2193 1.429 . S
C2209 C2205 1.429 . S
C2209 C2210 1.523 . S
C2210 C2194 1.368 . S
C2210 C2206 1.368 . S
C2210 C2209 1.523 . S
H2211 C2186 0.950 . S
H2212 C2188 0.950 . S
H2213 C2189 0.949 . S
H2214 C2191 0.950 . S
H2215 C2193 0.950 . S
C2216 C2217 1.349 . S
C2216 C2218 1.327 . S
C2216 H2241 0.950 . S
C2217 C2216 1.349 . S
C2217 C2233 1.349 . S
C2218 C2216 1.327 . S
C2218 C2237 1.429 . S
C2218 H2242 0.950 . S
C2219 C2236 1.574 . S
C2219 C2238 1.368 1_556 S
C2219 H2243 0.949 . S
H2220 C2224 0.949 . S
C2221 C2222 1.349 . S
C2221 C2223 1.327 . S
C2221 H2244 0.950 . S
C2222 C2221 1.349 . S
C2222 C2234 1.349 . S
C2223 C2221 1.327 . S
C2223 C2239 1.429 . S
C2223 H2245 0.950 . S
C2224 H2220 0.949 . S
C2224 C2232 1.574 1_556 S
C2224 C2240 1.368 . S
H2225 C2233 0.950 . S
H2226 C2231 0.950 . S
H2227 C2232 0.949 . S
H2228 C2234 0.950 . S
H2229 C2235 0.950 . S
H2230 C2236 0.949 . S
C2231 H2226 0.950 . S
C2231 C2233 1.327 . S
C2231 C2237 1.429 . S
C2232 C2224 1.574 1_554 S
C2232 H2227 0.949 . S
C2232 C2238 1.368 . S
C2233 C2217 1.349 . S
C2233 H2225 0.950 . S
C2233 C2231 1.327 . S
C2234 C2222 1.349 . S
C2234 H2228 0.950 . S
C2234 C2235 1.327 . S
C2235 H2229 0.950 . S
C2235 C2234 1.327 . S
C2235 C2239 1.429 . S
C2236 C2219 1.574 . S
C2236 H2230 0.949 . S
C2236 C2240 1.368 . S
C2237 C2218 1.429 . S
C2237 C2231 1.429 . S
C2237 C2238 1.523 . S
C2238 C2219 1.368 1_554 S
C2238 C2232 1.368 . S
C2238 C2237 1.523 . S
C2239 C2223 1.429 . S
C2239 C2235 1.429 . S
C2239 C2240 1.523 . S
C2240 C2224 1.368 . S
C2240 C2236 1.368 . S
C2240 C2239 1.523 . S
H2241 C2216 0.950 . S
H2242 C2218 0.950 . S
H2243 C2219 0.949 . S
H2244 C2221 0.950 . S
H2245 C2223 0.950 . S
C2246 C2247 1.349 . S
C2246 C2248 1.327 . S
C2246 H2271 0.950 . S
C2247 C2246 1.349 . S
C2247 C2263 1.349 . S
C2248 C2246 1.327 . S
C2248 C2267 1.429 . S
C2248 H2272 0.950 . S
C2249 C2266 1.574 . S
C2249 C2268 1.368 . S
C2249 H2273 0.949 . S
H2250 C2254 0.949 . S
C2251 C2252 1.349 . S
C2251 C2253 1.327 . S
C2251 H2274 0.950 . S
C2252 C2251 1.349 . S
C2252 C2264 1.349 . S
C2253 C2251 1.327 . S
C2253 C2269 1.429 . S
C2253 H2275 0.950 . S
C2254 H2250 0.949 . S
C2254 C2262 1.574 . S
C2254 C2270 1.368 . S
H2255 C2263 0.950 . S
H2256 C2261 0.950 . S
H2257 C2262 0.949 . S
H2258 C2264 0.950 . S
H2259 C2265 0.950 . S
H2260 C2266 0.949 . S
C2261 H2256 0.950 . S
C2261 C2263 1.327 . S
C2261 C2267 1.429 . S
C2262 C2254 1.574 . S
C2262 H2257 0.949 . S
C2262 C2268 1.368 . S
C2263 C2247 1.349 . S
C2263 H2255 0.950 . S
C2263 C2261 1.327 . S
C2264 C2252 1.349 . S
C2264 H2258 0.950 . S
C2264 C2265 1.327 . S
C2265 H2259 0.950 . S
C2265 C2264 1.327 . S
C2265 C2269 1.429 . S
C2266 C2249 1.574 . S
C2266 H2260 0.949 . S
C2266 C2270 1.368 . S
C2267 C2248 1.429 . S
C2267 C2261 1.429 . S
C2267 C2268 1.523 . S
C2268 C2249 1.368 . S
C2268 C2262 1.368 . S
C2268 C2267 1.523 . S
C2269 C2253 1.429 . S
C2269 C2265 1.429 . S
C2269 C2270 1.523 . S
C2270 C2254 1.368 . S
C2270 C2266 1.368 . S
C2270 C2269 1.523 . S
H2271 C2246 0.950 . S
H2272 C2248 0.950 . S
H2273 C2249 0.949 . S
H2274 C2251 0.950 . S
H2275 C2253 0.950 . S
C2276 C2277 1.349 . S
C2276 C2278 1.327 . S
C2276 H2301 0.950 . S
C2277 C2276 1.349 . S
C2277 C2293 1.349 . S
C2278 C2276 1.327 . S
C2278 C2297 1.429 . S
C2278 H2302 0.950 . S
C2279 C2296 1.574 . S
C2279 C2298 1.368 . S
C2279 H2303 0.949 . S
H2280 C2284 0.949 . S
C2281 C2282 1.349 . S
C2281 C2283 1.327 . S
C2281 H2304 0.950 . S
C2282 C2281 1.349 . S
C2282 C2294 1.349 . S
C2283 C2281 1.327 . S
C2283 C2299 1.429 . S
C2283 H2305 0.950 . S
C2284 H2280 0.949 . S
C2284 C2292 1.574 . S
C2284 C2300 1.368 . S
H2285 C2293 0.950 . S
H2286 C2291 0.950 . S
H2287 C2292 0.949 . S
H2288 C2294 0.950 . S
H2289 C2295 0.950 . S
H2290 C2296 0.949 . S
C2291 H2286 0.950 . S
C2291 C2293 1.327 . S
C2291 C2297 1.429 . S
C2292 C2284 1.574 . S
C2292 H2287 0.949 . S
C2292 C2298 1.368 . S
C2293 C2277 1.349 . S
C2293 H2285 0.950 . S
C2293 C2291 1.327 . S
C2294 C2282 1.349 . S
C2294 H2288 0.950 . S
C2294 C2295 1.327 . S
C2295 H2289 0.950 . S
C2295 C2294 1.327 . S
C2295 C2299 1.429 . S
C2296 C2279 1.574 . S
C2296 H2290 0.949 . S
C2296 C2300 1.368 . S
C2297 C2278 1.429 . S
C2297 C2291 1.429 . S
C2297 C2298 1.523 . S
C2298 C2279 1.368 . S
C2298 C2292 1.368 . S
C2298 C2297 1.523 . S
C2299 C2283 1.429 . S
C2299 C2295 1.429 . S
C2299 C2300 1.523 . S
C2300 C2284 1.368 . S
C2300 C2296 1.368 . S
C2300 C2299 1.523 . S
H2301 C2276 0.950 . S
H2302 C2278 0.950 . S
H2303 C2279 0.949 . S
H2304 C2281 0.950 . S
H2305 C2283 0.950 . S
C2306 C2307 1.349 . S
C2306 C2308 1.327 . S
C2306 H2331 0.950 . S
C2307 C2306 1.349 . S
C2307 C2323 1.349 . S
C2308 C2306 1.327 . S
C2308 C2327 1.429 . S
C2308 H2332 0.950 . S
C2309 C2326 1.574 . S
C2309 C2328 1.368 . S
C2309 H2333 0.949 . S
H2310 C2314 0.949 . S
C2311 C2312 1.349 . S
C2311 C2313 1.327 . S
C2311 H2334 0.950 . S
C2312 C2311 1.349 . S
C2312 C2324 1.349 . S
C2313 C2311 1.327 . S
C2313 C2329 1.429 . S
C2313 H2335 0.950 . S
C2314 H2310 0.949 . S
C2314 C2322 1.574 . S
C2314 C2330 1.368 . S
H2315 C2323 0.950 . S
H2316 C2321 0.950 . S
H2317 C2322 0.949 . S
H2318 C2324 0.950 . S
H2319 C2325 0.950 . S
H2320 C2326 0.949 . S
C2321 H2316 0.950 . S
C2321 C2323 1.327 . S
C2321 C2327 1.429 . S
C2322 C2314 1.574 . S
C2322 H2317 0.949 . S
C2322 C2328 1.368 . S
C2323 C2307 1.349 . S
C2323 H2315 0.950 . S
C2323 C2321 1.327 . S
C2324 C2312 1.349 . S
C2324 H2318 0.950 . S
C2324 C2325 1.327 . S
C2325 H2319 0.950 . S
C2325 C2324 1.327 . S
C2325 C2329 1.429 . S
C2326 C2309 1.574 . S
C2326 H2320 0.949 . S
C2326 C2330 1.368 . S
C2327 C2308 1.429 . S
C2327 C2321 1.429 . S
C2327 C2328 1.523 . S
C2328 C2309 1.368 . S
C2328 C2322 1.368 . S
C2328 C2327 1.523 . S
C2329 C2313 1.429 . S
C2329 C2325 1.429 . S
C2329 C2330 1.523 . S
C2330 C2314 1.368 . S
C2330 C2326 1.368 . S
C2330 C2329 1.523 . S
H2331 C2306 0.950 . S
H2332 C2308 0.950 . S
H2333 C2309 0.949 . S
H2334 C2311 0.950 . S
H2335 C2313 0.950 . S
C417 C8 0.777 . S
C422 C177 0.778 . S
C447 C333 1.213 . S
C452 C21 1.209 . S
C477 C34 0.777 . S
C482 C203 0.778 . S
C507 C47 1.209 . S
C512 C320 1.213 . S
C537 C60 1.335 . S
C542 C229 1.344 . S
C567 C73 0.906 . S
C572 C294 0.908 . S
C597 C86 1.335 . S
C602 C255 1.344 . S
C627 C411 0.908 . S
C632 C99 0.906 . S
C657 C281 1.344 . S
C662 C112 1.335 . S
C687 C125 0.906 . S
C692 C242 0.908 . S
C717 C307 1.344 . S
C722 C138 1.335 . S
C747 C151 1.209 . S
C752 C216 1.213 . S
C777 C190 1.213 . S
C782 C164 1.209 . S
C807 C268 0.908 . S
C812 C372 0.906 . S
C837 C385 0.778 . S
C842 C346 0.777 . S
C867 C398 0.778 . S
C872 C359 0.777 . S
C897 C10 1.559 . S
C902 C23 1.558 . S
C927 C31 1.468 . S
C932 C13 1.495 . S
C957 C49 1.558 . S
C962 C36 1.559 . S
C987 C39 1.495 . S
C992 C5 1.468 . S
C1017 C96 1.341 . S
C1022 C57 1.343 . S
C1047 C75 1.493 . S
C1052 C52 1.543 . S
C1077 C83 1.343 . S
C1082 C70 1.341 . S
C1107 C78 1.543 . S
C1112 C101 1.493 . S
C1137 C117 1.565 . S
C1142 C0 1.569 . S
C1167 C114 1.431 . S
C1172 C44 1.455 . S
C1197 C140 1.431 . S
C1202 C18 1.455 . S
C1227 C351 1.569 . S
C1232 C91 1.565 . S
C1257 C364 1.565 . S
C1262 C26 1.569 . S
C1287 C148 1.455 . S
C1292 C62 1.431 . S
C1317 C88 1.431 . S
C1322 C161 1.455 . S
C1347 C187 1.524 . S
C1352 C174 1.512 . S
C1377 C205 1.416 . S
C1382 C182 1.454 . S
C1407 C213 1.524 . S
C1412 C200 1.512 . S
C1437 C179 1.416 . S
C1442 C208 1.454 . S
C1467 C221 1.456 . S
C1472 C270 1.419 . S
C1497 C226 1.594 . S
C1502 C239 1.579 . S
C1527 C247 1.456 . S
C1532 C244 1.419 . S
C1557 C252 1.594 . S
C1562 C265 1.579 . S
C1587 C169 1.482 . S
C1592 C286 1.478 . S
C1617 C283 1.467 . S
C1622 C218 1.465 . S
C1647 C309 1.467 . S
C1652 C192 1.465 . S
C1677 C390 1.482 . S
C1682 C260 1.478 . S
C1707 C403 1.478 . S
C1712 C195 1.482 . S
C1737 C231 1.467 . S
C1742 C322 1.465 . S
C1767 C335 1.465 . S
C1772 C257 1.467 . S
C1797 C166 1.558 . S
C1802 C348 1.559 . S
C1827 C356 1.468 . S
C1832 C156 1.495 . S
C1857 C153 1.558 . S
C1862 C361 1.559 . S
C1887 C143 1.495 . S
C1892 C343 1.468 . S
C1917 C109 1.343 . S
C1922 C369 1.341 . S
C1947 C127 1.493 . S
C1952 C104 1.543 . S
C1977 C135 1.343 . S
C1982 C122 1.341 . S
C2007 C130 1.543 . S
C2012 C374 1.493 . S
C2037 C338 1.569 . S
C2042 C65 1.565 . S
C2067 C330 1.524 . S
C2072 C382 1.512 . S
C2097 C325 1.454 . S
C2102 C400 1.416 . S
C2127 C395 1.512 . S
C2132 C317 1.524 . S
C2157 C312 1.454 . S
C2162 C387 1.416 . S
C2187 C413 1.419 . S
C2192 C273 1.456 . S
C2217 C278 1.594 . S
C2222 C291 1.579 . S
C2247 C299 1.456 . S
C2252 C296 1.419 . S
C2277 C304 1.594 . S
C2282 C408 1.579 . S
C2307 C377 1.482 . S
C2312 C234 1.478 . S
