# Generated by pormake.
# Topology dia, (4)-cn, num edge types: 1
# Building blocks:
#     Node 0, Type 0, BuildingBlock: GALJAG_clean_sbu_0, # of connection points: 4
#     Node 1, Type 0, BuildingBlock: GALJAG_clean_sbu_0, # of connection points: 4
#     Node 2, Type 0, BuildingBlock: GALJAG_clean_sbu_0, # of connection points: 4
#     Node 3, Type 0, BuildingBlock: GALJAG_clean_sbu_0, # of connection points: 4
#     Node 4, Type 0, BuildingBlock: GALJAG_clean_sbu_0, # of connection points: 4
#     Node 5, Type 0, BuildingBlock: GALJAG_clean_sbu_0, # of connection points: 4
#     Node 6, Type 0, BuildingBlock: GALJAG_clean_sbu_0, # of connection points: 4
#     Node 7, Type 0, BuildingBlock: GALJAG_clean_sbu_0, # of connection points: 4
#     Edge 8, Type (0, 0), BuildingBlock: EZIPEK_clean_linker_0, # of connection points: 2
#     Edge 9, Type (0, 0), BuildingBlock: EZIPEK_clean_linker_0, # of connection points: 2
#     Edge 10, Type (0, 0), BuildingBlock: EZIPEK_clean_linker_0, # of connection points: 2
#     Edge 11, Type (0, 0), BuildingBlock: EZIPEK_clean_linker_0, # of connection points: 2
#     Edge 12, Type (0, 0), BuildingBlock: EZIPEK_clean_linker_0, # of connection points: 2
#     Edge 13, Type (0, 0), BuildingBlock: EZIPEK_clean_linker_0, # of connection points: 2
#     Edge 14, Type (0, 0), BuildingBlock: EZIPEK_clean_linker_0, # of connection points: 2
#     Edge 15, Type (0, 0), BuildingBlock: EZIPEK_clean_linker_0, # of connection points: 2
#     Edge 16, Type (0, 0), BuildingBlock: EZIPEK_clean_linker_0, # of connection points: 2
#     Edge 17, Type (0, 0), BuildingBlock: EZIPEK_clean_linker_0, # of connection points: 2
#     Edge 18, Type (0, 0), BuildingBlock: EZIPEK_clean_linker_0, # of connection points: 2
#     Edge 19, Type (0, 0), BuildingBlock: EZIPEK_clean_linker_0, # of connection points: 2
#     Edge 20, Type (0, 0), BuildingBlock: EZIPEK_clean_linker_0, # of connection points: 2
#     Edge 21, Type (0, 0), BuildingBlock: EZIPEK_clean_linker_0, # of connection points: 2
#     Edge 22, Type (0, 0), BuildingBlock: EZIPEK_clean_linker_0, # of connection points: 2
#     Edge 23, Type (0, 0), BuildingBlock: EZIPEK_clean_linker_0, # of connection points: 2
# Relax obj value: 0.058
# Max RMSD: 0.096
# Mean RMSD: 0.096
data_MOF--net-dia--node1-GALJAG_clean_sbu_0--edge1-EZIPEK_clean_linker_0
_symmetry_space_group_name_H-M    P1
_symmetry_Int_Tables_number       1
_symmetry_cell_setting            triclinic
loop_
_symmetry_equiv_pos_as_xyz
'x, y, z'
_cell_length_a     17.390414
_cell_length_b     29.006415
_cell_length_c     29.01044
_cell_angle_alpha  90.029987
_cell_angle_beta   90.344099
_cell_angle_gamma 90.149781
loop_
_atom_site_label
_atom_site_type_symbol
_atom_site_fract_x
_atom_site_fract_y
_atom_site_fract_z
_atom_type_partial_charge
In0 In 0.10621 0.13221 0.62821 0.0
O1 O 0.2059 0.17172 0.59565 0.0
O2 O 0.09211 0.18464 0.57099 0.0
C3 C 0.17235 0.07258 0.6865 0.0
C4 C 0.04237 0.19105 0.68834 0.0
C5 C 0.04662 0.06968 0.57003 0.0
O6 O 0.21174 0.09754 0.6597 0.0
O7 O 0.10044 0.07777 0.68386 0.0
O8 O 0.00509 0.09187 0.59795 0.0
O9 O 0.11749 0.07888 0.57167 0.0
C10 C 0.16281 0.19374 0.56819 0.0
O11 O 0.00323 0.17071 0.65755 0.0
O12 O 0.11306 0.18149 0.68885 0.0
In13 In 0.84765 0.37696 0.88041 0.0
O14 O 0.95001 0.34135 0.84694 0.0
O15 O 0.83738 0.32318 0.82375 0.0
C16 C 0.9126 0.43808 0.93804 0.0
C17 C 0.78208 0.43755 0.82254 0.0
C18 C 0.7904 0.31673 0.9418 0.0
O19 O 0.95225 0.41265 0.91194 0.0
O20 O 0.84069 0.43289 0.93477 0.0
O21 O 0.74836 0.33602 0.9118 0.0
O22 O 0.86034 0.32812 0.94098 0.0
C23 C 0.90886 0.31712 0.82018 0.0
O24 O 0.74284 0.41435 0.85091 0.0
O25 O 0.85352 0.43023 0.8235 0.0
In26 In 0.60468 0.12517 0.13143 0.0
O27 O 0.49765 0.15735 0.16344 0.0
O28 O 0.60764 0.17863 0.18855 0.0
C29 C 0.5445 0.06536 0.07044 0.0
C30 C 0.66748 0.18594 0.07261 0.0
C31 C 0.67138 0.0666 0.19097 0.0
O32 O 0.50281 0.09142 0.0946 0.0
O33 O 0.61593 0.06922 0.07714 0.0
O34 O 0.70961 0.09656 0.1693 0.0
O35 O 0.60009 0.06608 0.1827 0.0
C36 C 0.53566 0.18274 0.1907 0.0
O37 O 0.70806 0.15961 0.09739 0.0
O38 O 0.5959 0.18154 0.07742 0.0
In39 In 0.8585 0.8768 0.38148 0.0
O40 O 0.75629 0.90832 0.34338 0.0
O41 O 0.86879 0.93417 0.32886 0.0
C42 C 0.79272 0.81732 0.44065 0.0
C43 C 0.91936 0.81844 0.32008 0.0
C44 C 0.92322 0.9357 0.44191 0.0
O45 O 0.75605 0.85045 0.42285 0.0
O46 O 0.86174 0.81396 0.42817 0.0
O47 O 0.96312 0.90806 0.41835 0.0
O48 O 0.85175 0.93344 0.43504 0.0
C49 C 0.79748 0.93634 0.32096 0.0
O50 O 0.96087 0.84108 0.34809 0.0
O51 O 0.84793 0.82538 0.32296 0.0
In52 In 0.10256 0.63181 0.12578 0.0
O53 O 0.20335 0.66623 0.08899 0.0
O54 O 0.08967 0.68831 0.07227 0.0
C55 C 0.16718 0.57315 0.18585 0.0
C56 C 0.03942 0.68937 0.18721 0.0
C57 C 0.04349 0.57043 0.06566 0.0
O58 O 0.20716 0.60042 0.16173 0.0
O59 O 0.09538 0.57578 0.17987 0.0
O60 O 0.00191 0.59959 0.08619 0.0
O61 O 0.11407 0.57217 0.07567 0.0
C62 C 0.1608 0.69251 0.06524 0.0
O63 O -0.00103 0.66191 0.16331 0.0
O64 O 0.11086 0.68762 0.18025 0.0
In65 In 0.35024 0.37903 0.3741 0.0
O66 O 0.4512 0.34523 0.33753 0.0
O67 O 0.33791 0.32066 0.32254 0.0
C68 C 0.41765 0.4367 0.43443 0.0
C69 C 0.2911 0.43997 0.31413 0.0
C70 C 0.28403 0.32109 0.43396 0.0
O71 O 0.45538 0.40668 0.41258 0.0
O72 O 0.3466 0.4378 0.42558 0.0
O73 O 0.24467 0.34529 0.40635 0.0
O74 O 0.35583 0.32643 0.43153 0.0
C75 C 0.4091 0.31729 0.31534 0.0
O76 O 0.2493 0.41761 0.3418 0.0
O77 O 0.3621 0.43142 0.31649 0.0
In78 In 0.35645 0.87987 0.87542 0.0
O79 O 0.45729 0.84137 0.84364 0.0
O80 O 0.34425 0.82745 0.81787 0.0
C81 C 0.42244 0.93767 0.93609 0.0
C82 C 0.29745 0.94076 0.81547 0.0
C83 C 0.28936 0.82175 0.93489 0.0
O84 O 0.46193 0.91362 0.90869 0.0
O85 O 0.35064 0.93253 0.93285 0.0
O86 O 0.2516 0.85221 0.91342 0.0
O87 O 0.36027 0.82052 0.92617 0.0
C88 C 0.41523 0.81896 0.81579 0.0
O89 O 0.25545 0.91305 0.83767 0.0
O90 O 0.36861 0.93781 0.82349 0.0
In91 In 0.59991 0.6261 0.62865 0.0
O92 O 0.49576 0.65826 0.66357 0.0
O93 O 0.60803 0.68229 0.68247 0.0
C94 C 0.54452 0.56507 0.56718 0.0
C95 C 0.65893 0.68715 0.5688 0.0
C96 C 0.65993 0.56801 0.69096 0.0
O97 O 0.50077 0.59112 0.59015 0.0
O98 O 0.61537 0.56959 0.57556 0.0
O99 O 0.7017 0.59526 0.66791 0.0
O100 O 0.58874 0.57032 0.68271 0.0
C101 C 0.53628 0.68538 0.68788 0.0
O102 O 0.70082 0.65906 0.5909 0.0
O103 O 0.58802 0.68461 0.57731 0.0
C104 C 0.20376 0.30514 0.50343 0.0
C105 C 0.24926 0.28824 0.46673 0.0
C106 C 0.23805 0.20922 0.49655 0.0
C107 C 0.19288 0.22629 0.53342 0.0
N108 N 0.12108 0.2882 0.56823 0.0
N109 N 0.31214 0.22559 0.42755 0.0
C110 C 0.17216 0.27359 0.53569 0.0
C111 C 0.26706 0.24058 0.46306 0.0
N112 N 0.19484 0.35168 0.5091 0.0
N113 N 0.24899 0.16267 0.49219 0.0
H114 H 0.32867 0.24671 0.40024 0.0
H115 H 0.33521 0.19267 0.42512 0.0
H116 H 0.22724 0.13862 0.51545 0.0
H117 H 0.27568 0.14693 0.46439 0.0
H118 H 0.17086 0.36671 0.53822 0.0
H119 H 0.2167 0.37603 0.48619 0.0
H120 H 0.09603 0.32074 0.56825 0.0
H121 H 0.09918 0.26679 0.59381 0.0
C122 C 0.67953 0.48688 0.71772 0.0
C123 C 0.6916 0.53482 0.72472 0.0
C124 C 0.764 0.51886 0.79571 0.0
C125 C 0.74766 0.47116 0.79023 0.0
N126 N 0.68243 0.40966 0.74972 0.0
N127 N 0.73348 0.5974 0.77359 0.0
C128 C 0.70269 0.45518 0.75248 0.0
C129 C 0.731 0.55113 0.76448 0.0
N130 N 0.64955 0.47153 0.67675 0.0
N131 N 0.81114 0.5333 0.83081 0.0
H132 H 0.70932 0.62209 0.7518 0.0
H133 H 0.75377 0.61129 0.80444 0.0
H134 H 0.83174 0.51131 0.85647 0.0
H135 H 0.8333 0.56659 0.83324 0.0
H136 H 0.64683 0.43692 0.66739 0.0
H137 H 0.63332 0.49356 0.65002 0.0
H138 H 0.64222 0.39687 0.72624 0.0
H139 H 0.70185 0.38482 0.77296 0.0
C140 C 0.47901 0.04996 0.99495 0.0
C141 C 0.51238 0.03281 0.03621 0.0
C142 C 0.49564 0.95338 0.00895 0.0
C143 C 0.45689 0.9704 0.96932 0.0
N144 N 0.40428 0.03401 0.92587 0.0
N145 N 0.54138 0.96913 0.08657 0.0
C146 C 0.44618 0.01848 0.96277 0.0
C147 C 0.51811 0.98473 0.04426 0.0
N148 N 0.48163 0.09619 0.9857 0.0
N149 N 0.51065 0.90729 0.0129 0.0
H150 H 0.55577 0.99124 0.11364 0.0
H151 H 0.5398 0.93464 0.09639 0.0
H152 H 0.49199 0.88295 0.98882 0.0
H153 H 0.54609 0.89338 0.03834 0.0
H154 H 0.46621 0.11043 0.95406 0.0
H155 H 0.50482 0.12034 0.00856 0.0
H156 H 0.38607 0.06798 0.92226 0.0
H157 H 0.38382 0.01239 0.89977 0.0
C158 C -0.01224 0.74478 0.30179 0.0
C159 C 0.95147 0.78572 0.28622 0.0
C160 C 0.96503 0.76073 0.20586 0.0
C161 C 0.00627 0.72145 0.2213 0.0
N162 N 0.06388 0.67744 0.28296 0.0
N163 N 0.91526 0.83664 0.22421 0.0
C164 C 0.01995 0.71399 0.26901 0.0
C165 C 0.94231 0.79469 0.23843 0.0
N166 N -0.01195 0.73424 0.34775 0.0
N167 N 0.94775 0.76559 0.16006 0.0
H168 H 0.89943 0.86265 0.24708 0.0
H169 H 0.9145 0.84738 0.19 0.0
H170 H 0.96685 0.74277 0.13484 0.0
H171 H 0.91036 0.79049 0.14721 0.0
H172 H 0.00566 0.70259 0.36093 0.0
H173 H 0.965 0.75586 0.37283 0.0
H174 H 0.08431 0.67333 0.3165 0.0
H175 H 0.08363 0.65216 0.26038 0.0
C176 C 0.22255 0.01247 0.79892 0.0
C177 C 0.26589 0.97458 0.7824 0.0
C178 C 0.24687 1.00051 0.70266 0.0
C179 C 0.20734 0.03977 0.71937 0.0
N180 N 0.16748 0.0876 0.78282 0.0
N181 N 0.32756 0.93453 0.71978 0.0
C182 C 0.19757 0.04691 0.76738 0.0
C183 C 0.28089 0.96935 0.73462 0.0
N184 N 0.20535 0.01553 0.84478 0.0
N185 N 0.24831 0.99174 0.65633 0.0
H186 H 0.34924 0.90903 0.74157 0.0
H187 H 0.34856 0.93224 0.68634 0.0
H188 H 0.22388 0.01366 0.63183 0.0
H189 H 0.26838 0.96112 0.64213 0.0
H190 H 0.16626 0.039 0.85822 0.0
H191 H 0.22681 0.99277 0.86948 0.0
H192 H 0.16613 0.09721 0.81737 0.0
H193 H 0.14939 0.11387 0.76077 0.0
C194 C 0.9309 0.46768 0.01853 0.0
C195 C 0.9476 0.4712 0.97082 0.0
C196 C 0.03511 0.53572 0.98635 0.0
C197 C 0.01173 0.53567 0.03323 0.0
N198 N 0.93422 0.50337 0.09409 0.0
N199 N 0.0044 0.51336 0.90792 0.0
C200 C 0.95821 0.50235 0.04928 0.0
C201 C -0.00302 0.50637 0.95432 0.0
N202 N 0.89252 0.42985 0.03482 0.0
N203 N 0.09416 0.56344 0.97228 0.0
H204 H 0.9764 0.49318 0.88321 0.0
H205 H 0.03237 0.54181 0.89387 0.0
H206 H 0.12297 0.58621 0.99409 0.0
H207 H 0.11917 0.56101 0.93984 0.0
H208 H 0.88567 0.4227 0.06971 0.0
H209 H 0.87335 0.40308 0.01364 0.0
H210 H 0.88801 0.48409 0.10622 0.0
H211 H 0.95793 0.52524 0.11894 0.0
C212 C 0.48236 0.24454 0.30126 0.0
C213 C 0.4406 0.28259 0.28338 0.0
C214 C 0.46089 0.25506 0.20445 0.0
C215 C 0.49923 0.21583 0.22246 0.0
N216 N 0.53582 0.16859 0.28718 0.0
N217 N 0.38114 0.3219 0.21916 0.0
C218 C 0.5073 0.20934 0.27069 0.0
C219 C 0.4268 0.28705 0.23531 0.0
N220 N 0.49813 0.24207 0.34745 0.0
N221 N 0.46055 0.26298 0.15795 0.0
H222 H 0.35932 0.34788 0.24019 0.0
H223 H 0.36099 0.32373 0.18536 0.0
H224 H 0.48436 0.24025 0.13415 0.0
H225 H 0.44181 0.29358 0.14297 0.0
H226 H 0.53589 0.21832 0.36198 0.0
H227 H 0.47686 0.26558 0.37137 0.0
H228 H 0.53634 0.15955 0.32189 0.0
H229 H 0.55321 0.14175 0.26571 0.0
C230 C 0.69241 0.75807 0.45976 0.0
C231 C 0.7575 0.78448 0.47353 0.0
C232 C 0.7509 0.75125 0.55121 0.0
C233 C 0.69078 0.7216 0.53625 0.0
N234 N 0.60805 0.69341 0.47516 0.0
N235 N 0.85521 0.80234 0.53059 0.0
C236 C 0.66192 0.72441 0.49036 0.0
C237 C 0.78894 0.77972 0.51863 0.0
N238 N 0.66006 0.76471 0.41717 0.0
N239 N 0.7685 0.75437 0.59715 0.0
H240 H 0.88285 0.82585 0.50921 0.0
H241 H 0.88598 0.79544 0.5607 0.0
H242 H 0.73979 0.73562 0.62246 0.0
H243 H 0.80577 0.77902 0.61088 0.0
H244 H 0.60646 0.7517 0.40758 0.0
H245 H 0.68486 0.78514 0.3917 0.0
H246 H 0.59242 0.68938 0.44071 0.0
H247 H 0.58199 0.66922 0.49643 0.0
C248 C 0.18921 0.49146 0.20994 0.0
C249 C 0.20146 0.53922 0.21792 0.0
C250 C 0.27699 0.52163 0.28736 0.0
C251 C 0.25957 0.47413 0.28132 0.0
N252 N 0.19404 0.41341 0.23984 0.0
N253 N 0.24739 0.60075 0.26682 0.0
C254 C 0.21383 0.45894 0.24358 0.0
C255 C 0.24329 0.55463 0.25716 0.0
N256 N 0.1573 0.47711 0.16913 0.0
N257 N 0.32569 0.53522 0.32204 0.0
H258 H 0.22366 0.62599 0.24552 0.0
H259 H 0.26907 0.61406 0.2976 0.0
H260 H 0.34733 0.51269 0.34691 0.0
H261 H 0.34834 0.56837 0.32479 0.0
H262 H 0.15414 0.44276 0.15891 0.0
H263 H 0.13967 0.49981 0.1433 0.0
H264 H 0.15322 0.401 0.21653 0.0
H265 H 0.21501 0.38799 0.26195 0.0
C266 C 0.70596 0.2983 0.00919 0.0
C267 C 0.76017 0.28348 0.97594 0.0
C268 C 0.75069 0.20422 0.00479 0.0
C269 C 0.70087 0.2196 0.04006 0.0
N270 N 0.64251 0.2823 0.08171 0.0
N271 N 0.84551 0.22431 0.94755 0.0
C272 C 0.68124 0.26693 0.04378 0.0
C273 C 0.78635 0.2371 0.97558 0.0
N274 N 0.67876 0.34249 0.00814 0.0
N275 N 0.76068 0.15803 0.99745 0.0
H276 H 0.87194 0.24664 0.92446 0.0
H277 H 0.87274 0.19244 0.94986 0.0
H278 H 0.73421 0.13266 0.0173 0.0
H279 H 0.78921 0.14469 0.96896 0.0
H280 H 0.63213 0.35358 0.02753 0.0
H281 H 0.69998 0.36773 0.98599 0.0
H282 H 0.63325 0.317 0.08889 0.0
H283 H 0.62573 0.26067 0.10855 0.0
C284 C 0.73779 0.95411 0.24436 0.0
C285 C 0.76496 0.96976 0.28785 0.0
C286 C 0.73046 0.04928 0.26792 0.0
C287 C 0.70722 0.0339 0.22357 0.0
N288 N 0.70207 0.97422 0.16592 0.0
N289 N 0.79661 0.03213 0.33976 0.0
C290 C 0.71437 0.98695 0.21077 0.0
C291 C 0.76437 0.01739 0.29919 0.0
N292 N 0.73424 0.90789 0.23521 0.0
N293 N 0.71743 0.09398 0.28068 0.0
H294 H 0.81803 0.00967 0.36477 0.0
H295 H 0.80636 0.06667 0.34765 0.0
H296 H 0.69463 0.11858 0.25827 0.0
H297 H 0.7244 0.10616 0.31421 0.0
H298 H 0.7071 0.89404 0.20626 0.0
H299 H 0.75401 0.88284 0.25813 0.0
H300 H 0.71338 0.94142 0.15312 0.0
H301 H 0.68719 0.99777 0.14024 0.0
C302 C 0.00129 0.00667 0.4581 0.0
C303 C 0.95699 0.96913 0.47482 0.0
C304 C 0.97627 0.99587 0.55429 0.0
C305 C 0.01497 0.03538 0.53732 0.0
N306 N 0.05423 0.0827 0.47324 0.0
N307 N 0.89257 0.93104 0.53783 0.0
C308 C 0.02527 0.04185 0.48925 0.0
C309 C 0.94134 0.96474 0.52263 0.0
N310 N 0.01975 0.009 0.41239 0.0
N311 N 0.97618 0.98686 0.60058 0.0
H312 H 0.86837 0.90623 0.51618 0.0
H313 H 0.8717 0.92957 0.57137 0.0
H314 H 0.00214 0.00845 0.6249 0.0
H315 H 0.95658 0.95601 0.61466 0.0
H316 H 0.05951 0.03227 0.39909 0.0
H317 H -0.00107 0.9858 0.38783 0.0
H318 H 0.05558 0.09165 0.43852 0.0
H319 H 0.07094 0.10971 0.49485 0.0
C320 C -0.00447 0.30147 0.75339 0.0
C321 C 0.94193 0.28482 0.78609 0.0
C322 C 0.94972 0.20727 0.7523 0.0
C323 C 0.00795 0.22325 0.72206 0.0
N324 N 0.09437 0.28394 0.69782 0.0
N325 N 0.87385 0.22116 0.82072 0.0
C326 C 0.03357 0.2698 0.72399 0.0
C327 C 0.92003 0.23758 0.78641 0.0
N328 N 0.0067 0.34793 0.74849 0.0
N329 N 0.92332 0.16292 0.74885 0.0
H330 H 0.84968 0.24216 0.84583 0.0
H331 H 0.86354 0.1863 0.82655 0.0
H332 H 0.94856 0.13809 0.72787 0.0
H333 H 0.87397 0.15104 0.76518 0.0
H334 H 0.03823 0.36254 0.7218 0.0
H335 H 0.97822 0.37247 0.76831 0.0
H336 H 0.12175 0.31562 0.70222 0.0
H337 H 0.12141 0.263 0.67375 0.0
C338 C 0.51543 0.76714 0.71192 0.0
C339 C 0.50275 0.71943 0.71984 0.0
C340 C 0.42858 0.73726 0.78918 0.0
C341 C 0.44635 0.7847 0.78319 0.0
N342 N 0.51193 0.84519 0.74192 0.0
N343 N 0.45754 0.65806 0.76878 0.0
C344 C 0.49169 0.79973 0.74556 0.0
C345 C 0.46157 0.70416 0.75904 0.0
N346 N 0.54698 0.78134 0.6712 0.0
N347 N 0.38028 0.72382 0.82375 0.0
H348 H 0.48127 0.63276 0.74768 0.0
H349 H 0.43609 0.64486 0.79949 0.0
H350 H 0.35929 0.74641 0.84864 0.0
H351 H 0.35733 0.69076 0.82638 0.0
H352 H 0.55044 0.81567 0.66103 0.0
H353 H 0.56403 0.75854 0.64541 0.0
H354 H 0.55246 0.85746 0.71866 0.0
H355 H 0.49169 0.87067 0.76409 0.0
C356 C 0.16954 0.72411 0.98484 0.0
C357 C 0.19177 0.72649 0.03203 0.0
C358 C 0.27776 0.79149 0.01539 0.0
C359 C 0.25379 0.79 0.96851 0.0
N360 N 0.17188 0.75872 0.90872 0.0
N361 N 0.25438 0.76741 0.09417 0.0
C362 C 0.19778 0.75762 0.95335 0.0
C363 C 0.24284 0.76137 0.04784 0.0
N364 N 0.12431 0.68846 0.96972 0.0
N365 N 0.33373 0.82193 0.02899 0.0
H366 H 0.22836 0.74683 0.1191 0.0
H367 H 0.2842 0.79519 0.10838 0.0
H368 H 0.35554 0.84762 0.00758 0.0
H369 H 0.36136 0.82052 0.06088 0.0
H370 H 0.11397 0.68105 0.93514 0.0
H371 H 0.10042 0.66406 0.99169 0.0
H372 H 0.12418 0.74037 0.89692 0.0
H373 H 0.19551 0.77995 0.88349 0.0
C374 C 0.50933 0.50056 0.45435 0.0
C375 C 0.45338 0.46798 0.46871 0.0
C376 C 0.46442 0.49562 0.5485 0.0
C377 C 0.51508 0.53086 0.53345 0.0
N378 N 0.584 0.56902 0.47233 0.0
N379 N 0.37438 0.4348 0.52836 0.0
C380 C 0.53783 0.53358 0.48653 0.0
C381 C 0.42978 0.46573 0.51547 0.0
N382 N 0.53491 0.5001 0.40982 0.0
N383 N 0.45304 0.48908 0.59469 0.0
H384 H 0.35293 0.40923 0.5065 0.0
H385 H 0.34695 0.4356 0.56013 0.0
H386 H 0.47899 0.5095 0.62 0.0
H387 H 0.42353 0.46108 0.60842 0.0
H388 H 0.58249 0.5186 0.39846 0.0
H389 H 0.51101 0.47931 0.38414 0.0
H390 H 0.5946 0.5769 0.43797 0.0
H391 H 0.60906 0.5926 0.49491 0.0
loop_
_geom_bond_atom_site_label_1
_geom_bond_atom_site_label_2
_geom_bond_distance
_geom_bond_site_symmetry_2
_ccdc_geom_bond_type
In0 O1 2.294 . S
In0 O2 2.326 . S
In0 O6 2.266 . S
In0 O7 2.326 . S
In0 O8 2.266 . S
In0 O9 2.326 . S
In0 O11 2.294 . S
In0 O12 2.326 . S
O1 In0 2.294 . S
O1 C10 1.240 . S
O2 In0 2.326 . S
O2 C10 1.252 . S
C3 O6 1.252 . S
C3 O7 1.260 . S
C4 O11 1.240 . S
C4 O12 1.252 . S
C5 O8 1.252 . S
C5 O9 1.260 . S
O6 In0 2.266 . S
O6 C3 1.252 . S
O7 In0 2.326 . S
O7 C3 1.260 . S
O8 In0 2.266 . S
O8 C5 1.252 . S
O9 In0 2.326 . S
O9 C5 1.260 . S
C10 O1 1.240 . S
C10 O2 1.252 . S
O11 In0 2.294 . S
O11 C4 1.240 . S
O12 In0 2.326 . S
O12 C4 1.252 . S
In13 O14 2.294 . S
In13 O15 2.326 . S
In13 O19 2.266 . S
In13 O20 2.326 . S
In13 O21 2.266 . S
In13 O22 2.326 . S
In13 O24 2.294 . S
In13 O25 2.326 . S
O14 In13 2.294 . S
O14 C23 1.240 . S
O15 In13 2.326 . S
O15 C23 1.252 . S
C16 O19 1.252 . S
C16 O20 1.260 . S
C17 O24 1.240 . S
C17 O25 1.252 . S
C18 O21 1.252 . S
C18 O22 1.260 . S
O19 In13 2.266 . S
O19 C16 1.252 . S
O20 In13 2.326 . S
O20 C16 1.260 . S
O21 In13 2.266 . S
O21 C18 1.252 . S
O22 In13 2.326 . S
O22 C18 1.260 . S
C23 O14 1.240 . S
C23 O15 1.252 . S
O24 In13 2.294 . S
O24 C17 1.240 . S
O25 In13 2.326 . S
O25 C17 1.252 . S
In26 O27 2.294 . S
In26 O28 2.326 . S
In26 O32 2.266 . S
In26 O33 2.326 . S
In26 O34 2.266 . S
In26 O35 2.326 . S
In26 O37 2.294 . S
In26 O38 2.326 . S
O27 In26 2.294 . S
O27 C36 1.240 . S
O28 In26 2.326 . S
O28 C36 1.252 . S
C29 O32 1.252 . S
C29 O33 1.260 . S
C30 O37 1.240 . S
C30 O38 1.252 . S
C31 O34 1.252 . S
C31 O35 1.260 . S
O32 In26 2.266 . S
O32 C29 1.252 . S
O33 In26 2.326 . S
O33 C29 1.260 . S
O34 In26 2.266 . S
O34 C31 1.252 . S
O35 In26 2.326 . S
O35 C31 1.260 . S
C36 O27 1.240 . S
C36 O28 1.252 . S
O37 In26 2.294 . S
O37 C30 1.240 . S
O38 In26 2.326 . S
O38 C30 1.252 . S
In39 O40 2.294 . S
In39 O41 2.326 . S
In39 O45 2.266 . S
In39 O46 2.326 . S
In39 O47 2.266 . S
In39 O48 2.326 . S
In39 O50 2.294 . S
In39 O51 2.326 . S
O40 In39 2.294 . S
O40 C49 1.240 . S
O41 In39 2.326 . S
O41 C49 1.252 . S
C42 O45 1.252 . S
C42 O46 1.260 . S
C43 O50 1.240 . S
C43 O51 1.252 . S
C44 O47 1.252 . S
C44 O48 1.260 . S
O45 In39 2.266 . S
O45 C42 1.252 . S
O46 In39 2.326 . S
O46 C42 1.260 . S
O47 In39 2.266 . S
O47 C44 1.252 . S
O48 In39 2.326 . S
O48 C44 1.260 . S
C49 O40 1.240 . S
C49 O41 1.252 . S
O50 In39 2.294 . S
O50 C43 1.240 . S
O51 In39 2.326 . S
O51 C43 1.252 . S
In52 O53 2.294 . S
In52 O54 2.326 . S
In52 O58 2.266 . S
In52 O59 2.326 . S
In52 O60 2.266 . S
In52 O61 2.326 . S
In52 O63 2.294 . S
In52 O64 2.326 . S
O53 In52 2.294 . S
O53 C62 1.240 . S
O54 In52 2.326 . S
O54 C62 1.252 . S
C55 O58 1.252 . S
C55 O59 1.260 . S
C56 O63 1.240 . S
C56 O64 1.252 . S
C57 O60 1.252 . S
C57 O61 1.260 . S
O58 In52 2.266 . S
O58 C55 1.252 . S
O59 In52 2.326 . S
O59 C55 1.260 . S
O60 In52 2.266 . S
O60 C57 1.252 . S
O61 In52 2.326 . S
O61 C57 1.260 . S
C62 O53 1.240 . S
C62 O54 1.252 . S
O63 In52 2.294 . S
O63 C56 1.240 . S
O64 In52 2.326 . S
O64 C56 1.252 . S
In65 O66 2.294 . S
In65 O67 2.326 . S
In65 O71 2.266 . S
In65 O72 2.326 . S
In65 O73 2.266 . S
In65 O74 2.326 . S
In65 O76 2.294 . S
In65 O77 2.326 . S
O66 In65 2.294 . S
O66 C75 1.240 . S
O67 In65 2.326 . S
O67 C75 1.252 . S
C68 O71 1.252 . S
C68 O72 1.260 . S
C69 O76 1.240 . S
C69 O77 1.252 . S
C70 O73 1.252 . S
C70 O74 1.260 . S
O71 In65 2.266 . S
O71 C68 1.252 . S
O72 In65 2.326 . S
O72 C68 1.260 . S
O73 In65 2.266 . S
O73 C70 1.252 . S
O74 In65 2.326 . S
O74 C70 1.260 . S
C75 O66 1.240 . S
C75 O67 1.252 . S
O76 In65 2.294 . S
O76 C69 1.240 . S
O77 In65 2.326 . S
O77 C69 1.252 . S
In78 O79 2.294 . S
In78 O80 2.326 . S
In78 O84 2.266 . S
In78 O85 2.326 . S
In78 O86 2.266 . S
In78 O87 2.326 . S
In78 O89 2.294 . S
In78 O90 2.326 . S
O79 In78 2.294 . S
O79 C88 1.240 . S
O80 In78 2.326 . S
O80 C88 1.252 . S
C81 O84 1.252 . S
C81 O85 1.260 . S
C82 O89 1.240 . S
C82 O90 1.252 . S
C83 O86 1.252 . S
C83 O87 1.260 . S
O84 In78 2.266 . S
O84 C81 1.252 . S
O85 In78 2.326 . S
O85 C81 1.260 . S
O86 In78 2.266 . S
O86 C83 1.252 . S
O87 In78 2.326 . S
O87 C83 1.260 . S
C88 O79 1.240 . S
C88 O80 1.252 . S
O89 In78 2.294 . S
O89 C82 1.240 . S
O90 In78 2.326 . S
O90 C82 1.252 . S
In91 O92 2.294 . S
In91 O93 2.326 . S
In91 O97 2.266 . S
In91 O98 2.326 . S
In91 O99 2.266 . S
In91 O100 2.326 . S
In91 O102 2.294 . S
In91 O103 2.326 . S
O92 In91 2.294 . S
O92 C101 1.240 . S
O93 In91 2.326 . S
O93 C101 1.252 . S
C94 O97 1.252 . S
C94 O98 1.260 . S
C95 O102 1.240 . S
C95 O103 1.252 . S
C96 O99 1.252 . S
C96 O100 1.260 . S
O97 In91 2.266 . S
O97 C94 1.252 . S
O98 In91 2.326 . S
O98 C94 1.260 . S
O99 In91 2.266 . S
O99 C96 1.252 . S
O100 In91 2.326 . S
O100 C96 1.260 . S
C101 O92 1.240 . S
C101 O93 1.252 . S
O102 In91 2.294 . S
O102 C95 1.240 . S
O103 In91 2.326 . S
O103 C95 1.252 . S
C104 C105 1.363 . S
C104 C110 1.379 . S
C104 N112 1.356 . S
C105 C104 1.363 . S
C105 C111 1.363 . S
C106 C107 1.363 . S
C106 C111 1.379 . S
C106 N113 1.356 . S
C107 C106 1.363 . S
C107 C110 1.363 . S
N108 C110 1.356 . S
N108 H120 0.984 . S
N108 H121 0.985 . S
N109 C111 1.356 . S
N109 H114 0.984 . S
N109 H115 0.985 . S
C110 C104 1.379 . S
C110 C107 1.363 . S
C110 N108 1.356 . S
C111 C105 1.363 . S
C111 C106 1.379 . S
C111 N109 1.356 . S
N112 C104 1.356 . S
N112 H118 0.984 . S
N112 H119 0.984 . S
N113 C106 1.356 . S
N113 H116 0.984 . S
N113 H117 0.985 . S
H114 N109 0.984 . S
H115 N109 0.985 . S
H116 N113 0.984 . S
H117 N113 0.985 . S
H118 N112 0.984 . S
H119 N112 0.984 . S
H120 N108 0.984 . S
H121 N108 0.985 . S
C122 C123 1.363 . S
C122 C128 1.379 . S
C122 N130 1.356 . S
C123 C122 1.363 . S
C123 C129 1.363 . S
C124 C125 1.363 . S
C124 C129 1.379 . S
C124 N131 1.356 . S
C125 C124 1.363 . S
C125 C128 1.363 . S
N126 C128 1.356 . S
N126 H138 0.984 . S
N126 H139 0.985 . S
N127 C129 1.356 . S
N127 H132 0.984 . S
N127 H133 0.985 . S
C128 C122 1.379 . S
C128 C125 1.363 . S
C128 N126 1.356 . S
C129 C123 1.363 . S
C129 C124 1.379 . S
C129 N127 1.356 . S
N130 C122 1.356 . S
N130 H136 0.984 . S
N130 H137 0.984 . S
N131 C124 1.356 . S
N131 H134 0.984 . S
N131 H135 0.985 . S
H132 N127 0.984 . S
H133 N127 0.985 . S
H134 N131 0.984 . S
H135 N131 0.985 . S
H136 N130 0.984 . S
H137 N130 0.984 . S
H138 N126 0.984 . S
H139 N126 0.985 . S
C140 C141 1.363 . S
C140 C146 1.379 1_554 S
C140 N148 1.356 . S
C141 C140 1.363 . S
C141 C147 1.363 1_545 S
C142 C143 1.363 1_554 S
C142 C147 1.379 . S
C142 N149 1.356 1_554 S
C143 C142 1.363 1_556 S
C143 C146 1.363 1_565 S
N144 C146 1.356 . S
N144 H156 0.984 . S
N144 H157 0.985 1_545 S
N145 C147 1.356 . S
N145 H150 0.984 1_565 S
N145 H151 0.985 . S
C146 C140 1.379 1_556 S
C146 C143 1.363 1_545 S
C146 N144 1.356 . S
C147 C141 1.363 1_565 S
C147 C142 1.379 . S
C147 N145 1.356 . S
N148 C140 1.356 . S
N148 H154 0.984 . S
N148 H155 0.984 . S
N149 C142 1.356 1_556 S
N149 H152 0.984 . S
N149 H153 0.985 1_556 S
H150 N145 0.984 1_545 S
H151 N145 0.985 . S
H152 N149 0.984 . S
H153 N149 0.985 1_554 S
H154 N148 0.984 . S
H155 N148 0.984 . S
H156 N144 0.984 . S
H157 N144 0.985 1_565 S
C158 C159 1.363 . S
C158 C164 1.379 1_655 S
C158 N166 1.356 . S
C159 C158 1.363 . S
C159 C165 1.363 . S
C160 C161 1.363 . S
C160 C165 1.379 1_455 S
C160 N167 1.356 . S
C161 C160 1.363 . S
C161 C164 1.363 . S
N162 C164 1.356 . S
N162 H174 0.984 . S
N162 H175 0.985 . S
N163 C165 1.356 . S
N163 H168 0.984 . S
N163 H169 0.985 . S
C164 C158 1.379 1_455 S
C164 C161 1.363 . S
C164 N162 1.356 . S
C165 C159 1.363 . S
C165 C160 1.379 1_655 S
C165 N163 1.356 . S
N166 C158 1.356 . S
N166 H172 0.984 . S
N166 H173 0.984 . S
N167 C160 1.356 . S
N167 H170 0.984 . S
N167 H171 0.985 . S
H168 N163 0.984 . S
H169 N163 0.985 . S
H170 N167 0.984 . S
H171 N167 0.985 . S
H172 N166 0.984 . S
H173 N166 0.984 . S
H174 N162 0.984 . S
H175 N162 0.985 . S
C176 C177 1.363 . S
C176 C182 1.379 1_565 S
C176 N184 1.356 . S
C177 C176 1.363 . S
C177 C183 1.363 . S
C178 C179 1.363 1_565 S
C178 C183 1.379 . S
C178 N185 1.356 . S
C179 C178 1.363 1_545 S
C179 C182 1.363 . S
N180 C182 1.356 . S
N180 H192 0.984 . S
N180 H193 0.985 . S
N181 C183 1.356 . S
N181 H186 0.984 . S
N181 H187 0.985 . S
C182 C176 1.379 1_545 S
C182 C179 1.363 . S
C182 N180 1.356 . S
C183 C177 1.363 . S
C183 C178 1.379 . S
C183 N181 1.356 . S
N184 C176 1.356 . S
N184 H190 0.984 1_565 S
N184 H191 0.984 . S
N185 C178 1.356 . S
N185 H188 0.984 1_565 S
N185 H189 0.985 . S
H186 N181 0.984 . S
H187 N181 0.985 . S
H188 N185 0.984 1_545 S
H189 N185 0.985 . S
H190 N184 0.984 1_545 S
H191 N184 0.984 . S
H192 N180 0.984 . S
H193 N180 0.985 . S
C194 C195 1.363 1_554 S
C194 C200 1.379 . S
C194 N202 1.356 . S
C195 C194 1.363 1_556 S
C195 C201 1.363 1_655 S
C196 C197 1.363 1_556 S
C196 C201 1.379 . S
C196 N203 1.356 . S
C197 C196 1.363 1_554 S
C197 C200 1.363 1_455 S
N198 C200 1.356 . S
N198 H210 0.984 . S
N198 H211 0.985 1_655 S
N199 C201 1.356 . S
N199 H204 0.984 1_455 S
N199 H205 0.985 . S
C200 C194 1.379 . S
C200 C197 1.363 1_655 S
C200 N198 1.356 . S
C201 C195 1.363 1_455 S
C201 C196 1.379 . S
C201 N199 1.356 . S
N202 C194 1.356 . S
N202 H208 0.984 . S
N202 H209 0.984 1_554 S
N203 C196 1.356 . S
N203 H206 0.984 1_556 S
N203 H207 0.985 . S
H204 N199 0.984 1_655 S
H205 N199 0.985 . S
H206 N203 0.984 1_554 S
H207 N203 0.985 . S
H208 N202 0.984 . S
H209 N202 0.984 1_556 S
H210 N198 0.984 . S
H211 N198 0.985 1_455 S
C212 C213 1.363 . S
C212 C218 1.379 . S
C212 N220 1.356 . S
C213 C212 1.363 . S
C213 C219 1.363 . S
C214 C215 1.363 . S
C214 C219 1.379 . S
C214 N221 1.356 . S
C215 C214 1.363 . S
C215 C218 1.363 . S
N216 C218 1.356 . S
N216 H228 0.984 . S
N216 H229 0.985 . S
N217 C219 1.356 . S
N217 H222 0.984 . S
N217 H223 0.985 . S
C218 C212 1.379 . S
C218 C215 1.363 . S
C218 N216 1.356 . S
C219 C213 1.363 . S
C219 C214 1.379 . S
C219 N217 1.356 . S
N220 C212 1.356 . S
N220 H226 0.984 . S
N220 H227 0.984 . S
N221 C214 1.356 . S
N221 H224 0.984 . S
N221 H225 0.985 . S
H222 N217 0.984 . S
H223 N217 0.985 . S
H224 N221 0.984 . S
H225 N221 0.985 . S
H226 N220 0.984 . S
H227 N220 0.984 . S
H228 N216 0.984 . S
H229 N216 0.985 . S
C230 C231 1.363 . S
C230 C236 1.379 . S
C230 N238 1.356 . S
C231 C230 1.363 . S
C231 C237 1.363 . S
C232 C233 1.363 . S
C232 C237 1.379 . S
C232 N239 1.356 . S
C233 C232 1.363 . S
C233 C236 1.363 . S
N234 C236 1.356 . S
N234 H246 0.984 . S
N234 H247 0.985 . S
N235 C237 1.356 . S
N235 H240 0.984 . S
N235 H241 0.985 . S
C236 C230 1.379 . S
C236 C233 1.363 . S
C236 N234 1.356 . S
C237 C231 1.363 . S
C237 C232 1.379 . S
C237 N235 1.356 . S
N238 C230 1.356 . S
N238 H244 0.984 . S
N238 H245 0.984 . S
N239 C232 1.356 . S
N239 H242 0.984 . S
N239 H243 0.985 . S
H240 N235 0.984 . S
H241 N235 0.985 . S
H242 N239 0.984 . S
H243 N239 0.985 . S
H244 N238 0.984 . S
H245 N238 0.984 . S
H246 N234 0.984 . S
H247 N234 0.985 . S
C248 C249 1.363 . S
C248 C254 1.379 . S
C248 N256 1.356 . S
C249 C248 1.363 . S
C249 C255 1.363 . S
C250 C251 1.363 . S
C250 C255 1.379 . S
C250 N257 1.356 . S
C251 C250 1.363 . S
C251 C254 1.363 . S
N252 C254 1.356 . S
N252 H264 0.984 . S
N252 H265 0.985 . S
N253 C255 1.356 . S
N253 H258 0.984 . S
N253 H259 0.985 . S
C254 C248 1.379 . S
C254 C251 1.363 . S
C254 N252 1.356 . S
C255 C249 1.363 . S
C255 C250 1.379 . S
C255 N253 1.356 . S
N256 C248 1.356 . S
N256 H262 0.984 . S
N256 H263 0.984 . S
N257 C250 1.356 . S
N257 H260 0.984 . S
N257 H261 0.985 . S
H258 N253 0.984 . S
H259 N253 0.985 . S
H260 N257 0.984 . S
H261 N257 0.985 . S
H262 N256 0.984 . S
H263 N256 0.984 . S
H264 N252 0.984 . S
H265 N252 0.985 . S
C266 C267 1.363 . S
C266 C272 1.379 1_556 S
C266 N274 1.356 . S
C267 C266 1.363 . S
C267 C273 1.363 . S
C268 C269 1.363 . S
C268 C273 1.379 1_554 S
C268 N275 1.356 . S
C269 C268 1.363 . S
C269 C272 1.363 . S
N270 C272 1.356 . S
N270 H282 0.984 . S
N270 H283 0.985 . S
N271 C273 1.356 . S
N271 H276 0.984 . S
N271 H277 0.985 . S
C272 C266 1.379 1_554 S
C272 C269 1.363 . S
C272 N270 1.356 . S
C273 C267 1.363 . S
C273 C268 1.379 1_556 S
C273 N271 1.356 . S
N274 C266 1.356 . S
N274 H280 0.984 . S
N274 H281 0.984 . S
N275 C268 1.356 . S
N275 H278 0.984 . S
N275 H279 0.985 . S
H276 N271 0.984 . S
H277 N271 0.985 . S
H278 N275 0.984 . S
H279 N275 0.985 . S
H280 N274 0.984 . S
H281 N274 0.984 . S
H282 N270 0.984 . S
H283 N270 0.985 . S
C284 C285 1.363 . S
C284 C290 1.379 . S
C284 N292 1.356 . S
C285 C284 1.363 . S
C285 C291 1.363 1_565 S
C286 C287 1.363 . S
C286 C291 1.379 . S
C286 N293 1.356 . S
C287 C286 1.363 . S
C287 C290 1.363 1_545 S
N288 C290 1.356 . S
N288 H300 0.984 . S
N288 H301 0.985 1_565 S
N289 C291 1.356 . S
N289 H294 0.984 1_545 S
N289 H295 0.985 . S
C290 C284 1.379 . S
C290 C287 1.363 1_565 S
C290 N288 1.356 . S
C291 C285 1.363 1_545 S
C291 C286 1.379 . S
C291 N289 1.356 . S
N292 C284 1.356 . S
N292 H298 0.984 . S
N292 H299 0.984 . S
N293 C286 1.356 . S
N293 H296 0.984 . S
N293 H297 0.985 . S
H294 N289 0.984 1_565 S
H295 N289 0.985 . S
H296 N293 0.984 . S
H297 N293 0.985 . S
H298 N292 0.984 . S
H299 N292 0.984 . S
H300 N288 0.984 . S
H301 N288 0.985 1_545 S
C302 C303 1.358 1_445 S
C302 C308 1.383 . S
C302 N310 1.356 1_445 S
C303 C302 1.358 1_665 S
C303 C309 1.363 . S
C304 C305 1.363 1_665 S
C304 C309 1.379 . S
C304 N311 1.356 1_655 S
C305 C304 1.363 1_445 S
C305 C308 1.363 . S
N306 C308 1.356 . S
N306 H318 0.984 . S
N306 H319 0.985 . S
N307 C309 1.356 . S
N307 H312 0.984 . S
N307 H313 0.985 . S
C308 C302 1.383 . S
C308 C305 1.363 . S
C308 N306 1.356 . S
C309 C303 1.363 . S
C309 C304 1.379 . S
C309 N307 1.356 . S
N310 C302 1.356 1_665 S
N310 H316 0.984 1_665 S
N310 H317 0.984 . S
N311 C304 1.356 1_455 S
N311 H314 0.984 1_565 S
N311 H315 0.985 1_455 S
H312 N307 0.984 . S
H313 N307 0.985 . S
H314 N311 0.984 1_545 S
H315 N311 0.985 1_655 S
H316 N310 0.984 1_445 S
H317 N310 0.984 . S
H318 N306 0.984 . S
H319 N306 0.985 . S
C320 C321 1.363 1_455 S
C320 C326 1.379 . S
C320 N328 1.356 . S
C321 C320 1.363 1_655 S
C321 C327 1.363 . S
C322 C323 1.363 1_655 S
C322 C327 1.379 . S
C322 N329 1.356 . S
C323 C322 1.363 1_455 S
C323 C326 1.363 . S
N324 C326 1.356 . S
N324 H336 0.984 . S
N324 H337 0.985 . S
N325 C327 1.356 . S
N325 H330 0.984 . S
N325 H331 0.985 . S
C326 C320 1.379 . S
C326 C323 1.363 . S
C326 N324 1.356 . S
C327 C321 1.363 . S
C327 C322 1.379 . S
C327 N325 1.356 . S
N328 C320 1.356 . S
N328 H334 0.984 . S
N328 H335 0.984 . S
N329 C322 1.356 . S
N329 H332 0.984 . S
N329 H333 0.985 . S
H330 N325 0.984 . S
H331 N325 0.985 . S
H332 N329 0.984 . S
H333 N329 0.985 . S
H334 N328 0.984 . S
H335 N328 0.984 . S
H336 N324 0.984 . S
H337 N324 0.985 . S
C338 C339 1.363 . S
C338 C344 1.379 . S
C338 N346 1.356 . S
C339 C338 1.363 . S
C339 C345 1.363 . S
C340 C341 1.363 . S
C340 C345 1.379 . S
C340 N347 1.356 . S
C341 C340 1.363 . S
C341 C344 1.363 . S
N342 C344 1.356 . S
N342 H354 0.984 . S
N342 H355 0.985 . S
N343 C345 1.356 . S
N343 H348 0.984 . S
N343 H349 0.985 . S
C344 C338 1.379 . S
C344 C341 1.363 . S
C344 N342 1.356 . S
C345 C339 1.363 . S
C345 C340 1.379 . S
C345 N343 1.356 . S
N346 C338 1.356 . S
N346 H352 0.984 . S
N346 H353 0.984 . S
N347 C340 1.356 . S
N347 H350 0.984 . S
N347 H351 0.985 . S
H348 N343 0.984 . S
H349 N343 0.985 . S
H350 N347 0.984 . S
H351 N347 0.985 . S
H352 N346 0.984 . S
H353 N346 0.984 . S
H354 N342 0.984 . S
H355 N342 0.985 . S
C356 C357 1.363 . S
C356 C362 1.379 1_554 S
C356 N364 1.356 . S
C357 C356 1.363 . S
C357 C363 1.363 . S
C358 C359 1.363 1_554 S
C358 C363 1.379 . S
C358 N365 1.356 . S
C359 C358 1.363 1_556 S
C359 C362 1.363 . S
N360 C362 1.356 . S
N360 H372 0.984 . S
N360 H373 0.985 . S
N361 C363 1.356 . S
N361 H366 0.984 . S
N361 H367 0.985 . S
C362 C356 1.379 1_556 S
C362 C359 1.363 . S
C362 N360 1.356 . S
C363 C357 1.363 . S
C363 C358 1.379 . S
C363 N361 1.356 . S
N364 C356 1.356 . S
N364 H370 0.984 1_554 S
N364 H371 0.984 . S
N365 C358 1.356 . S
N365 H368 0.984 1_554 S
N365 H369 0.985 . S
H366 N361 0.984 . S
H367 N361 0.985 . S
H368 N365 0.984 1_556 S
H369 N365 0.985 . S
H370 N364 0.984 1_556 S
H371 N364 0.984 . S
H372 N360 0.984 . S
H373 N360 0.985 . S
C374 C375 1.363 . S
C374 C380 1.379 . S
C374 N382 1.356 . S
C375 C374 1.363 . S
C375 C381 1.363 . S
C376 C377 1.363 . S
C376 C381 1.379 . S
C376 N383 1.356 . S
C377 C376 1.363 . S
C377 C380 1.363 . S
N378 C380 1.356 . S
N378 H390 0.984 . S
N378 H391 0.985 . S
N379 C381 1.356 . S
N379 H384 0.984 . S
N379 H385 0.985 . S
C380 C374 1.379 . S
C380 C377 1.363 . S
C380 N378 1.356 . S
C381 C375 1.363 . S
C381 C376 1.379 . S
C381 N379 1.356 . S
N382 C374 1.356 . S
N382 H388 0.984 . S
N382 H389 0.984 . S
N383 C376 1.356 . S
N383 H386 0.984 . S
N383 H387 0.985 . S
H384 N379 0.984 . S
H385 N379 0.985 . S
H386 N383 0.984 . S
H387 N383 0.985 . S
H388 N382 0.984 . S
H389 N382 0.984 . S
H390 N378 0.984 . S
H391 N378 0.985 . S
C105 C70 1.514 . S
C107 C10 1.515 . S
C123 C96 1.514 . S
C125 C17 1.515 . S
C141 C29 1.515 . S
C143 C81 1.515 . S
C159 C43 1.514 . S
C161 C56 1.514 . S
C177 C82 1.515 . S
C179 C3 1.514 . S
C195 C16 1.515 . S
C197 C57 1.515 . S
C213 C75 1.514 . S
C215 C36 1.514 . S
C231 C42 1.514 . S
C233 C95 1.515 . S
C249 C55 1.514 . S
C251 C69 1.515 . S
C267 C18 1.514 . S
C269 C30 1.515 . S
C285 C49 1.515 . S
C287 C31 1.514 . S
C303 C44 1.515 . S
C305 C5 1.515 . S
C321 C23 1.514 . S
C323 C4 1.514 . S
C339 C101 1.514 . S
C341 C88 1.514 . S
C357 C62 1.515 . S
C359 C83 1.514 . S
C375 C68 1.515 . S
C377 C94 1.515 . S
