# Generated by pormake.
# Topology crb, (4)-cn, num edge types: 1
# Building blocks:
#     Node 0, Type 0, BuildingBlock: KUFVIS_clean_sbu_0, # of connection points: 4
#     Node 1, Type 0, BuildingBlock: KUFVIS_clean_sbu_0, # of connection points: 4
#     Node 2, Type 0, BuildingBlock: KUFVIS_clean_sbu_0, # of connection points: 4
#     Node 3, Type 0, BuildingBlock: KUFVIS_clean_sbu_0, # of connection points: 4
#     Node 4, Type 0, BuildingBlock: KUFVIS_clean_sbu_0, # of connection points: 4
#     Node 5, Type 0, BuildingBlock: KUFVIS_clean_sbu_0, # of connection points: 4
#     Node 6, Type 0, BuildingBlock: KUFVIS_clean_sbu_0, # of connection points: 4
#     Node 7, Type 0, BuildingBlock: KUFVIS_clean_sbu_0, # of connection points: 4
#     Edge 8, Type (0, 0), BuildingBlock: CIFDUS_clean_linker_0, # of connection points: 2
#     Edge 9, Type (0, 0), BuildingBlock: CIFDUS_clean_linker_0, # of connection points: 2
#     Edge 10, Type (0, 0), BuildingBlock: CIFDUS_clean_linker_0, # of connection points: 2
#     Edge 11, Type (0, 0), BuildingBlock: CIFDUS_clean_linker_0, # of connection points: 2
#     Edge 12, Type (0, 0), BuildingBlock: CIFDUS_clean_linker_0, # of connection points: 2
#     Edge 13, Type (0, 0), BuildingBlock: CIFDUS_clean_linker_0, # of connection points: 2
#     Edge 14, Type (0, 0), BuildingBlock: CIFDUS_clean_linker_0, # of connection points: 2
#     Edge 15, Type (0, 0), BuildingBlock: CIFDUS_clean_linker_0, # of connection points: 2
#     Edge 16, Type (0, 0), BuildingBlock: CIFDUS_clean_linker_0, # of connection points: 2
#     Edge 17, Type (0, 0), BuildingBlock: CIFDUS_clean_linker_0, # of connection points: 2
#     Edge 18, Type (0, 0), BuildingBlock: CIFDUS_clean_linker_0, # of connection points: 2
#     Edge 19, Type (0, 0), BuildingBlock: CIFDUS_clean_linker_0, # of connection points: 2
#     Edge 20, Type (0, 0), BuildingBlock: CIFDUS_clean_linker_0, # of connection points: 2
#     Edge 21, Type (0, 0), BuildingBlock: CIFDUS_clean_linker_0, # of connection points: 2
#     Edge 22, Type (0, 0), BuildingBlock: CIFDUS_clean_linker_0, # of connection points: 2
#     Edge 23, Type (0, 0), BuildingBlock: CIFDUS_clean_linker_0, # of connection points: 2
# Relax obj value: 0.084
# Max RMSD: 0.128
# Mean RMSD: 0.128
data_MOF--net-crb--node1-KUFVIS_clean_sbu_0--edge1-CIFDUS_clean_linker_0
_symmetry_space_group_name_H-M    P1
_symmetry_Int_Tables_number       1
_symmetry_cell_setting            triclinic
loop_
_symmetry_equiv_pos_as_xyz
'x, y, z'
_cell_length_a     36.506103
_cell_length_b     38.137146
_cell_length_c     20.292067
_cell_angle_alpha  90.370106
_cell_angle_beta   90.326341
_cell_angle_gamma 89.447058
loop_
_atom_site_label
_atom_site_type_symbol
_atom_site_fract_x
_atom_site_fract_y
_atom_site_fract_z
_atom_type_partial_charge
Mn0 Mn 0.33282 0.36457 0.05304 0.0
Mn1 Mn 0.34995 0.27883 0.02239 0.0
C2 C 0.39166 0.34101 0.06904 0.0
C3 C 0.3269 0.42426 0.02742 0.0
C4 C 0.31057 0.30436 0.14405 0.0
O5 O 0.28964 0.35065 0.99232 0.0
O6 O 0.30639 0.29454 0.97274 0.0
C7 C 0.36907 0.2832 0.88095 0.0
N8 N 0.37767 0.27329 0.94354 0.0
C9 C 0.43182 0.24281 0.90687 0.0
C10 C 0.42367 0.25268 0.84193 0.0
C11 C 0.39231 0.27326 0.82901 0.0
C12 C 0.40828 0.25443 0.95674 0.0
H13 H 0.34456 0.29835 0.87075 0.0
C14 C 0.28523 0.32096 0.96343 0.0
O15 O 0.30987 0.41031 0.07621 0.0
O16 O 0.34678 0.40329 0.99112 0.0
N17 N 0.39167 0.26005 0.06685 0.0
C18 C 0.39628 0.25406 0.13252 0.0
C19 C 0.42591 0.23343 0.15395 0.0
C20 C 0.44996 0.21871 0.10756 0.0
C21 C 0.4451 0.22591 0.04034 0.0
C22 C 0.41536 0.24697 0.02201 0.0
H23 H 0.3771 0.2643 0.16822 0.0
O24 O 0.38123 0.36926 0.10003 0.0
O25 O 0.36751 0.32738 0.02957 0.0
O26 O 0.31287 0.33668 0.13011 0.0
O27 O 0.32201 0.28022 0.10561 0.0
C28 C 0.46779 0.21212 0.9906 0.0
C29 C 0.46185 0.22124 0.92409 0.0
H30 H 0.44117 0.2445 0.80162 0.0
H31 H 0.38578 0.28095 0.77902 0.0
H32 H 0.42963 0.22807 0.20588 0.0
H33 H 0.47163 0.20156 0.1244 0.0
H34 H 0.48934 0.19394 1.00301 0.0
H35 H 0.48005 0.21091 0.88655 0.0
Mn36 Mn 0.66119 0.36015 1.00858 0.0
Mn37 Mn 0.64874 0.27688 0.05843 0.0
C38 C 0.60359 0.33386 0.99779 0.0
C39 C 0.663 0.42106 0.02694 0.0
C40 C 0.6878 0.29528 0.93219 0.0
O41 O 0.70572 0.35124 0.07022 0.0
O42 O 0.69019 0.29764 0.10627 0.0
C43 C 0.62638 0.28956 0.19659 0.0
N44 N 0.61997 0.27494 0.13631 0.0
C45 C 0.57186 0.23924 0.17888 0.0
C46 C 0.57756 0.25409 0.2415 0.0
C47 C 0.60462 0.27975 0.25018 0.0
C48 C 0.59288 0.2516 0.12675 0.0
H49 H 0.64826 0.30811 0.20374 0.0
C50 C 0.71083 0.32446 0.10719 0.0
O51 O 0.68055 0.40622 0.97881 0.0
O52 O 0.64497 0.40052 0.06572 0.0
N53 N 0.6096 0.25267 0.01637 0.0
C54 C 0.60759 0.24132 0.95266 0.0
C55 C 0.58351 0.21424 0.93593 0.0
C56 C 0.56256 0.19855 0.98517 0.0
C57 C 0.56414 0.21152 0.05003 0.0
C58 C 0.58802 0.23911 0.06341 0.0
H59 H 0.62527 0.25184 0.91536 0.0
O60 O 0.61244 0.36058 0.96209 0.0
O61 O 0.62844 0.32355 0.03949 0.0
O62 O 0.68244 0.32831 0.9356 0.0
O63 O 0.67827 0.27444 0.97757 0.0
C64 C 0.54444 0.19705 0.10259 0.0
C65 C 0.54738 0.21161 0.16657 0.0
H66 H 0.56171 0.24566 0.28338 0.0
H67 H 0.6094 0.29114 0.29841 0.0
H68 H 0.58226 0.20448 0.88577 0.0
H69 H 0.54582 0.1762 0.97255 0.0
H70 H 0.52699 0.17464 0.09438 0.0
H71 H 0.53147 0.20068 0.20625 0.0
Mn72 Mn 0.66271 0.69124 0.04624 0.0
Mn73 Mn 0.64884 0.77768 0.01632 0.0
C74 C 0.60404 0.71602 0.05535 0.0
C75 C 0.66581 0.63115 0.01984 0.0
C76 C 0.68445 0.75094 0.14125 0.0
O77 O 0.70742 0.70319 0.98946 0.0
O78 O 0.69352 0.76012 0.9729 0.0
C79 C 0.63528 0.77309 0.87244 0.0
N80 N 0.62477 0.78416 0.93347 0.0
C81 C 0.57656 0.82006 0.88794 0.0
C82 C 0.58662 0.80889 0.82453 0.0
C83 C 0.61586 0.78498 0.81682 0.0
C84 C 0.59575 0.80594 0.9416 0.0
H85 H 0.65848 0.75562 0.86628 0.0
C86 C 0.71376 0.73305 0.96353 0.0
O87 O 0.68277 0.64428 0.07027 0.0
O88 O 0.64805 0.65311 0.98235 0.0
N89 N 0.60633 0.7993 0.05409 0.0
C90 C 0.60072 0.80807 0.1185 0.0
C91 C 0.57432 0.83369 0.13461 0.0
C92 C 0.55424 0.85038 0.08434 0.0
C93 C 0.56016 0.84069 0.01848 0.0
C94 C 0.58666 0.81479 1.00545 0.0
H95 H 0.61719 0.79655 0.15721 0.0
O96 O 0.61351 0.68838 0.08867 0.0
O97 O 0.62967 0.72942 0.0196 0.0
O98 O 0.68252 0.71872 0.12527 0.0
O99 O 0.67331 0.77539 0.10353 0.0
C100 C 0.54145 0.85635 0.96509 0.0
C101 C 0.54902 0.84541 0.89995 0.0
H102 H 0.57238 0.81877 0.78142 0.0
H103 H 0.62393 0.77638 0.76805 0.0
H104 H 0.56988 0.84099 0.18559 0.0
H105 H 0.53414 0.87037 0.09693 0.0
H106 H 0.52075 0.87637 0.97367 0.0
H107 H 0.534 0.85716 0.8594 0.0
Mn108 Mn 0.32601 0.69243 1.0135 0.0
Mn109 Mn 0.35248 0.77526 0.04821 0.0
C110 C 0.38737 0.70733 1.00987 0.0
C111 C 0.31484 0.63366 0.03827 0.0
C112 C 0.31672 0.75521 0.91914 0.0
O113 O 0.28263 0.71193 0.06736 0.0
O114 O 0.30324 0.76702 0.08467 0.0
C115 C 0.35839 0.7684 0.19328 0.0
N116 N 0.37418 0.77551 0.1342 0.0
C117 C 0.43319 0.78259 0.18556 0.0
C118 C 0.41753 0.77557 0.24693 0.0
C119 C 0.37992 0.76858 0.25081 0.0
C120 C 0.41019 0.78286 0.13006 0.0
H121 H 0.32963 0.76241 0.19656 0.0
C122 C 0.27938 0.74298 0.09154 0.0
O123 O 0.30033 0.64858 0.98707 0.0
O124 O 0.33384 0.65341 0.07779 0.0
N125 N 0.40023 0.78584 0.01674 0.0
C126 C 0.41135 0.79049 0.95344 0.0
C127 C 0.44846 0.79655 0.94081 0.0
C128 C 0.47359 0.79743 0.99333 0.0
C129 C 0.46133 0.79369 0.05818 0.0
C130 C 0.42393 0.78851 0.06789 0.0
H131 H 0.39223 0.78874 0.91279 0.0
O132 O 0.37524 0.68131 0.97482 0.0
O133 O 0.36298 0.72455 0.04382 0.0
O134 O 0.31275 0.72309 0.93432 0.0
O135 O 0.33113 0.77766 0.95805 0.0
C136 C 0.48501 0.7927 0.11312 0.0
C137 C 0.47097 0.78776 0.17687 0.0
H138 H 0.43421 0.77501 0.29124 0.0
H139 H 0.36764 0.76291 0.29793 0.0
H140 H 0.4579 0.79924 0.89065 0.0
H141 H 0.5024 0.79919 0.98299 0.0
H142 H 0.51422 0.79398 0.10655 0.0
H143 H 0.48963 0.78673 0.21852 0.0
Mn144 Mn 0.83293 0.86472 0.55311 0.0
Mn145 Mn 0.85011 0.77903 0.52209 0.0
C146 C 0.89184 0.84124 0.56864 0.0
C147 C 0.82683 0.92441 0.52772 0.0
C148 C 0.81099 0.80439 0.64413 0.0
O149 O 0.78966 0.8508 0.49261 0.0
O150 O 0.80638 0.7947 0.47286 0.0
C151 C 0.86882 0.78363 0.38049 0.0
N152 N 0.87763 0.77366 0.44296 0.0
C153 C 0.93204 0.7438 0.40578 0.0
C154 C 0.92367 0.75372 0.34096 0.0
C155 C 0.89207 0.774 0.32835 0.0
C156 C 0.90843 0.75503 0.45585 0.0
H157 H 0.84417 0.79861 0.37054 0.0
C158 C 0.7852 0.82113 0.46372 0.0
O159 O 0.80994 0.91038 0.57659 0.0
O160 O 0.84669 0.90351 0.49122 0.0
N161 N 0.892 0.76031 0.56611 0.0
C162 C 0.89682 0.75429 0.63172 0.0
C163 C 0.92678 0.734 0.65285 0.0
C164 C 0.95093 0.71966 0.60623 0.0
C165 C 0.9458 0.72686 0.53907 0.0
C166 C 0.91572 0.74753 0.52103 0.0
H167 H 0.87762 0.76429 0.66761 0.0
O168 O 0.88142 0.86944 0.59979 0.0
O169 O 0.86762 0.8276 0.5293 0.0
O170 O 0.81319 0.83673 0.63021 0.0
O171 O 0.82238 0.78028 0.60557 0.0
C172 C 0.96863 0.7135 0.48914 0.0
C173 C 0.96242 0.72262 0.42272 0.0
H174 H 0.94121 0.74583 0.30051 0.0
H175 H 0.88538 0.78175 0.27846 0.0
H176 H 0.9307 0.72864 0.70474 0.0
H177 H 0.9729 0.70282 0.62283 0.0
H178 H 0.99054 0.69569 0.50137 0.0
H179 H 0.98072 0.71263 0.38503 0.0
Mn180 Mn 0.16129 0.85985 0.50762 0.0
Mn181 Mn 0.14906 0.77652 0.55737 0.0
C182 C 0.10374 0.83345 0.4968 0.0
C183 C 0.16297 0.92076 0.52608 0.0
C184 C 0.18805 0.79506 0.43113 0.0
O185 O 0.20585 0.85102 0.56922 0.0
O186 O 0.19045 0.79738 0.60522 0.0
C187 C 0.1267 0.78907 0.69557 0.0
N188 N 0.12033 0.77445 0.63527 0.0
C189 C 0.07248 0.73845 0.6779 0.0
C190 C 0.07814 0.7533 0.74053 0.0
C191 C 0.10505 0.7791 0.74919 0.0
C192 C 0.09337 0.75097 0.62573 0.0
H193 H 0.14848 0.80773 0.7027 0.0
C194 C 0.21103 0.82424 0.60617 0.0
O195 O 0.18053 0.90598 0.47791 0.0
O196 O 0.14499 0.90017 0.56482 0.0
N197 N 0.11 0.75219 0.51531 0.0
C198 C 0.10803 0.74085 0.4516 0.0
C199 C 0.08412 0.71363 0.43488 0.0
C200 C 0.0633 0.69779 0.48415 0.0
C201 C 0.06484 0.71075 0.54902 0.0
C202 C 0.08855 0.73848 0.56238 0.0
H203 H 0.12562 0.75148 0.41428 0.0
O204 O 0.11255 0.86019 0.46114 0.0
O205 O 0.12861 0.82316 0.5385 0.0
O206 O 0.18261 0.82808 0.43457 0.0
O207 O 0.17858 0.77419 0.4765 0.0
C208 C 0.04523 0.69617 0.60158 0.0
C209 C 0.04815 0.71069 0.66559 0.0
H210 H 0.06238 0.74474 0.78244 0.0
H211 H 0.1098 0.79048 0.79744 0.0
H212 H 0.08289 0.70389 0.38471 0.0
H213 H 0.04661 0.6754 0.47155 0.0
H214 H 0.02777 0.67376 0.5933 0.0
H215 H 0.03232 0.69968 0.70527 0.0
Mn216 Mn 0.16239 0.19095 0.54625 0.0
Mn217 Mn 0.14836 0.27741 0.51659 0.0
C218 C 0.1037 0.21566 0.55566 0.0
C219 C 0.16554 0.13089 0.51966 0.0
C220 C 0.18423 0.25063 0.64126 0.0
O221 O 0.20702 0.20303 0.48934 0.0
O222 O 0.19295 0.25992 0.47283 0.0
C223 C 0.13448 0.27295 0.3728 0.0
N224 N 0.1241 0.28394 0.43395 0.0
C225 C 0.07582 0.31993 0.38887 0.0
C226 C 0.08575 0.30882 0.32536 0.0
C227 C 0.11495 0.2849 0.31736 0.0
C228 C 0.09511 0.30573 0.44235 0.0
H229 H 0.15767 0.25548 0.36642 0.0
C230 C 0.21325 0.2329 0.46336 0.0
O231 O 0.18254 0.14399 0.57006 0.0
O232 O 0.14772 0.15287 0.4823 0.0
N233 N 0.10592 0.29896 0.55474 0.0
C234 C 0.10045 0.30766 0.61922 0.0
C235 C 0.07411 0.33329 0.63561 0.0
C236 C 0.05394 0.35006 0.58554 0.0
C237 C 0.05972 0.34044 0.5196 0.0
C238 C 0.08616 0.31453 0.50629 0.0
H239 H 0.117 0.29609 0.65778 0.0
O240 O 0.11325 0.18801 0.58885 0.0
O241 O 0.12928 0.22912 0.51987 0.0
O242 O 0.18227 0.2184 0.62529 0.0
O243 O 0.17303 0.27508 0.6036 0.0
C244 C 0.04092 0.35618 0.4664 0.0
C245 C 0.04834 0.3453 0.40116 0.0
H246 H 0.07143 0.31877 0.28238 0.0
H247 H 0.12292 0.27636 0.2685 0.0
H248 H 0.06978 0.34053 0.68665 0.0
H249 H 0.0339 0.37005 0.59834 0.0
H250 H 0.02026 0.37622 0.47519 0.0
H251 H 0.03325 0.35712 0.36076 0.0
Mn252 Mn 0.82559 0.19249 0.5145 0.0
Mn253 Mn 0.85229 0.27525 0.54916 0.0
C254 C 0.88698 0.20723 0.51075 0.0
C255 C 0.81432 0.13375 0.53926 0.0
C256 C 0.81641 0.25529 0.42015 0.0
O257 O 0.78229 0.21208 0.56845 0.0
O258 O 0.80305 0.26713 0.5857 0.0
C259 C 0.85824 0.26839 0.69422 0.0
N260 N 0.87403 0.27545 0.63512 0.0
C261 C 0.93309 0.28234 0.68638 0.0
C262 C 0.91744 0.27538 0.74778 0.0
C263 C 0.87981 0.2685 0.75172 0.0
C264 C 0.91007 0.28269 0.63092 0.0
H265 H 0.82947 0.26248 0.69755 0.0
C266 C 0.77913 0.24314 0.59262 0.0
O267 O 0.79979 0.14871 0.48812 0.0
O268 O 0.83338 0.15346 0.57877 0.0
N269 N 0.90006 0.28571 0.51762 0.0
C270 C 0.91116 0.29033 0.4543 0.0
C271 C 0.94829 0.29626 0.4416 0.0
C272 C 0.97345 0.29706 0.49408 0.0
C273 C 0.96121 0.29336 0.55896 0.0
C274 C 0.9238 0.2883 0.56873 0.0
H275 H 0.89202 0.28864 0.41369 0.0
O276 O 0.87475 0.18125 0.47571 0.0
O277 O 0.86266 0.22452 0.54476 0.0
O278 O 0.81235 0.22319 0.43537 0.0
O279 O 0.83091 0.2777 0.45903 0.0
C280 C 0.98492 0.29229 0.61385 0.0
C281 C 0.97089 0.2874 0.67763 0.0
H282 H 0.93415 0.27476 0.79206 0.0
H283 H 0.86754 0.26286 0.79886 0.0
H284 H 0.95771 0.29892 0.39143 0.0
H285 H 0.00226 0.29869 0.48368 0.0
H286 H 0.01412 0.29345 0.60723 0.0
H287 H 0.98956 0.2863 0.71925 0.0
H288 H 0.31593 0.47419 0.12032 0.0
H289 H 0.33351 0.46055 0.91179 0.0
H290 H 0.32831 0.52422 0.89627 0.0
H291 H 0.31967 0.58389 0.94283 0.0
H292 H 0.30892 0.59736 0.1529 0.0
H293 H 0.31019 0.53357 0.16727 0.0
C294 C 0.3185 0.48515 0.07138 0.0
C295 C 0.32477 0.46269 0.01709 0.0
C296 C 0.31653 0.52171 0.06332 0.0
C297 C 0.3287 0.47729 0.95425 0.0
C298 C 0.3256 0.51366 0.94543 0.0
C299 C 0.31719 0.57275 0.99163 0.0
C300 C 0.31354 0.59517 0.04675 0.0
C301 C 0.31953 0.53612 0.99964 0.0
C302 C 0.3114 0.58057 0.10985 0.0
C303 C 0.31223 0.54415 0.118 0.0
H304 H 0.43344 0.32642 0.96226 0.0
H305 H 0.43818 0.3347 0.17381 0.0
H306 H 0.50492 0.32656 0.17133 0.0
H307 H 0.56237 0.32557 0.10749 0.0
H308 H 0.55735 0.32097 0.89554 0.0
H309 H 0.4904 0.31788 0.89938 0.0
C310 C 0.449 0.32528 1.00789 0.0
C311 C 0.43092 0.3306 0.06824 0.0
C312 C 0.48739 0.32136 1.0058 0.0
C313 C 0.45154 0.33043 0.12686 0.0
C314 C 0.48966 0.32581 0.12538 0.0
C315 C 0.54664 0.32261 0.06235 0.0
C316 C 0.56474 0.32313 1.00126 0.0
C317 C 0.50803 0.32235 0.06498 0.0
C318 C 0.54398 0.32041 0.94304 0.0
C319 C 0.50571 0.31893 0.94526 0.0
H320 H 0.66512 0.47117 0.93214 0.0
H321 H 0.66084 0.45757 0.14268 0.0
H322 H 0.66275 0.52125 0.15879 0.0
H323 H 0.66583 0.58082 0.11305 0.0
H324 H 0.6635 0.59512 0.90259 0.0
H325 H 0.66388 0.53126 0.88609 0.0
C326 C 0.66467 0.48223 0.98151 0.0
C327 C 0.66323 0.4597 0.03627 0.0
C328 C 0.66455 0.51896 0.99025 0.0
C329 C 0.66197 0.47434 0.09986 0.0
C330 C 0.66314 0.51074 0.10905 0.0
C331 C 0.6655 0.56992 0.06355 0.0
C332 C 0.66512 0.59262 1.00902 0.0
C333 C 0.6645 0.53329 0.05464 0.0
C334 C 0.66391 0.57818 0.94524 0.0
C335 C 0.66419 0.54169 0.93589 0.0
H336 H 0.44582 0.71568 0.92878 0.0
H337 H 0.41625 0.69943 0.13134 0.0
H338 H 0.48076 0.70115 0.16441 0.0
H339 H 0.5457 0.70915 0.13608 0.0
H340 H 0.57486 0.73021 0.93484 0.0
H341 H 0.51074 0.72643 0.90127 0.0
C342 C 0.4537 0.71265 0.98006 0.0
C343 C 0.42653 0.70835 0.02788 0.0
C344 C 0.49077 0.71522 0.99909 0.0
C345 C 0.43684 0.70366 0.09403 0.0
C346 C 0.47367 0.70457 0.11291 0.0
C347 C 0.53783 0.71358 0.08516 0.0
C348 C 0.56489 0.72094 0.03844 0.0
C349 C 0.50084 0.71105 0.06609 0.0
C350 C 0.55445 0.72595 0.97233 0.0
C351 C 0.51784 0.72291 0.95275 0.0
H352 H 0.8158 0.97422 0.62081 0.0
H353 H 0.83321 0.96082 0.41217 0.0
H354 H 0.82781 1.02449 0.39687 0.0
H355 H 0.81909 0.08409 0.44365 0.0
H356 H 0.80851 0.09734 0.65379 0.0
H357 H 0.80993 0.03354 0.66796 0.0
C358 C 0.81829 0.98523 0.57189 0.0
C359 C 0.82457 0.96284 0.51751 0.0
C360 C 0.8162 1.02179 0.56394 0.0
C361 C 0.82839 0.97751 0.4547 0.0
C362 C 0.82518 1.01387 0.446 0.0
C363 C 0.81667 0.0729 0.49242 0.0
C364 C 0.81303 0.09526 0.54763 0.0
C365 C 0.8191 0.03627 0.5003 0.0
C366 C 0.81097 0.0806 0.61069 0.0
C367 C 0.81189 0.04417 0.61872 0.0
H368 H 0.06258 0.82504 0.60661 0.0
H369 H 0.05739 0.8208 0.39464 0.0
H370 H 0.99042 0.8181 0.39861 0.0
H371 H 0.93355 0.82689 0.46165 0.0
H372 H 0.93845 0.83469 0.67324 0.0
H373 H 0.00515 0.82626 0.67057 0.0
C374 C 0.0468 0.82223 0.56149 0.0
C375 C 0.06487 0.82276 0.50036 0.0
C376 C 0.00818 0.82221 0.56419 0.0
C377 C 0.04405 0.82023 0.44218 0.0
C378 C 0.00577 0.81899 0.44447 0.0
C379 C 0.94913 0.82559 0.50723 0.0
C380 C 0.93111 0.83083 0.56766 0.0
C381 C 0.9875 0.82145 0.50505 0.0
C382 C 0.95176 0.83047 0.62623 0.0
C383 C 0.98987 0.82568 0.62465 0.0
H384 H 0.16563 0.08046 0.6127 0.0
H385 H 0.16324 0.09495 0.40229 0.0
H386 H 0.16368 0.03111 0.38558 0.0
H387 H 0.165 0.97097 0.43143 0.0
H388 H 0.16077 0.95717 0.64191 0.0
H389 H 0.16261 1.02083 0.65824 0.0
C390 C 0.1653 0.06961 0.56316 0.0
C391 C 0.16488 0.09236 0.50871 0.0
C392 C 0.16433 0.03299 0.55413 0.0
C393 C 0.16367 0.07798 0.44489 0.0
C394 C 0.16398 0.04149 0.43541 0.0
C395 C 0.16454 0.98198 0.48083 0.0
C396 C 0.16314 0.9594 0.53551 0.0
C397 C 0.16438 1.01871 0.48969 0.0
C398 C 0.16187 0.97399 0.59916 0.0
C399 C 0.163 1.01038 0.60846 0.0
H400 H 0.94538 0.21541 0.4295 0.0
H401 H 0.91594 0.19925 0.63215 0.0
H402 H 0.98049 0.20082 0.66504 0.0
H403 H 0.04542 0.20874 0.63653 0.0
H404 H 0.07443 0.2298 0.43522 0.0
H405 H 0.01029 0.22603 0.4018 0.0
C406 C 0.9533 0.21237 0.48076 0.0
C407 C 0.92616 0.20815 0.52866 0.0
C408 C 0.99039 0.21485 0.49968 0.0
C409 C 0.93651 0.20342 0.59478 0.0
C410 C 0.97336 0.20424 0.61355 0.0
C411 C 0.03751 0.21318 0.58563 0.0
C412 C 0.06453 0.22054 0.53884 0.0
C413 C 0.0005 0.21067 0.56666 0.0
C414 C 0.05405 0.22554 0.47275 0.0
C415 C 0.01742 0.22251 0.45326 0.0
H416 H 0.24631 0.29273 0.43003 0.0
H417 H 0.24188 0.18306 0.37804 0.0
H418 H 0.27364 0.19521 0.27429 0.0
H419 H 0.29561 0.23864 0.19265 0.0
H420 H 0.29367 0.34875 0.245 0.0
H421 H 0.27046 0.33477 0.35328 0.0
C422 C 0.25283 0.27125 0.39663 0.0
C423 C 0.24149 0.23706 0.4117 0.0
C424 C 0.26896 0.27872 0.33602 0.0
C425 C 0.25056 0.20957 0.36809 0.0
C426 C 0.26815 0.21665 0.30822 0.0
C427 C 0.29012 0.25956 0.22776 0.0
C428 C 0.29598 0.29482 0.20982 0.0
C429 C 0.27621 0.25139 0.29055 0.0
C430 C 0.289 0.32147 0.25649 0.0
C431 C 0.27594 0.31351 0.31889 0.0
H432 H 0.75387 0.26925 0.13247 0.0
H433 H 0.73227 0.37522 0.19665 0.0
H434 H 0.76679 0.36421 0.29914 0.0
H435 H 0.79511 0.32106 0.37713 0.0
H436 H 0.81095 0.21398 0.31178 0.0
H437 H 0.78651 0.22867 0.2038 0.0
C438 C 0.7576 0.29028 0.16812 0.0
C439 C 0.74062 0.32298 0.15703 0.0
C440 C 0.77568 0.28317 0.2277 0.0
C441 C 0.74555 0.34998 0.20358 0.0
C442 C 0.76475 0.34343 0.26268 0.0
C443 C 0.7936 0.30113 0.33891 0.0
C444 C 0.80433 0.26626 0.35317 0.0
C445 C 0.77865 0.30963 0.27645 0.0
C446 C 0.80228 0.2408 0.30289 0.0
C447 C 0.78847 0.2492 0.24082 0.0
H448 H 0.7548 0.76043 0.42486 0.0
H449 H 0.75434 0.87094 0.38132 0.0
H450 H 0.72109 0.85927 0.2779 0.0
H451 H 0.6984 0.81639 0.19429 0.0
H452 H 0.70374 0.70573 0.23899 0.0
H453 H 0.72946 0.71884 0.34669 0.0
C454 C 0.74698 0.78217 0.39335 0.0
C455 C 0.75729 0.81651 0.41076 0.0
C456 C 0.72948 0.7751 0.33319 0.0
C457 C 0.74652 0.84429 0.36955 0.0
C458 C 0.72797 0.83752 0.30991 0.0
C459 C 0.7051 0.79516 0.22765 0.0
C460 C 0.69949 0.76001 0.20761 0.0
C461 C 0.72039 0.80284 0.29017 0.0
C462 C 0.70808 0.73296 0.2521 0.0
C463 C 0.72268 0.74041 0.31414 0.0
H464 H 0.18963 0.82256 0.307 0.0
H465 H 0.22165 0.73121 0.41859 0.0
H466 H 0.24662 0.70379 0.31946 0.0
H467 H 0.26391 0.70757 0.20254 0.0
H468 H 0.23395 0.79952 0.09187 0.0
H469 H 0.20257 0.82425 0.18798 0.0
C470 C 0.20221 0.79673 0.30967 0.0
C471 C 0.20423 0.7793 0.37055 0.0
C472 C 0.21622 0.78082 0.2521 0.0
C473 C 0.21996 0.74545 0.37265 0.0
C474 C 0.23411 0.7296 0.31582 0.0
C475 C 0.24915 0.73232 0.19885 0.0
C476 C 0.25049 0.75136 0.13987 0.0
C477 C 0.23267 0.74711 0.25531 0.0
C478 C 0.23252 0.78407 0.1364 0.0
C479 C 0.21515 0.79848 0.19168 0.0
H480 H 0.25419 0.76912 0.63142 0.0
H481 H 0.23233 0.87502 0.69569 0.0
H482 H 0.26686 0.86405 0.79819 0.0
H483 H 0.29527 0.82095 0.87615 0.0
H484 H 0.31138 0.71392 0.81072 0.0
H485 H 0.28692 0.72858 0.70273 0.0
C486 C 0.25787 0.79015 0.66709 0.0
C487 C 0.24082 0.82281 0.65603 0.0
C488 C 0.27596 0.78306 0.72667 0.0
C489 C 0.24567 0.84981 0.7026 0.0
C490 C 0.26488 0.84328 0.7617 0.0
C491 C 0.29381 0.80102 0.83791 0.0
C492 C 0.30462 0.76617 0.85215 0.0
C493 C 0.27886 0.8095 0.77546 0.0
C494 C 0.30264 0.74072 0.80185 0.0
C495 C 0.28883 0.74911 0.73977 0.0
H496 H 0.25497 0.26022 0.92454 0.0
H497 H 0.2543 0.37073 0.88098 0.0
H498 H 0.22098 0.359 0.77766 0.0
H499 H 0.19822 0.31609 0.69418 0.0
H500 H 0.20375 0.20544 0.73889 0.0
H501 H 0.22963 0.21859 0.84647 0.0
C502 C 0.2471 0.28195 0.89304 0.0
C503 C 0.25737 0.3163 0.91042 0.0
C504 C 0.22954 0.27485 0.83294 0.0
C505 C 0.24652 0.34407 0.86923 0.0
C506 C 0.22793 0.33726 0.80965 0.0
C507 C 0.20499 0.29486 0.72752 0.0
C508 C 0.19938 0.2597 0.70752 0.0
C509 C 0.22037 0.30257 0.78996 0.0
C510 C 0.20808 0.23267 0.75198 0.0
C511 C 0.22277 0.24014 0.81394 0.0
H512 H 0.68956 0.32286 0.80815 0.0
H513 H 0.72112 0.23129 0.91953 0.0
H514 H 0.74606 0.20387 0.82037 0.0
H515 H 0.76346 0.2077 0.70351 0.0
H516 H 0.73394 0.29986 0.59308 0.0
H517 H 0.7026 0.32461 0.68919 0.0
C518 C 0.70203 0.29697 0.81078 0.0
C519 C 0.70393 0.27949 0.87161 0.0
C520 C 0.71603 0.28107 0.75319 0.0
C521 C 0.71952 0.24558 0.87363 0.0
C522 C 0.73366 0.22973 0.81678 0.0
C523 C 0.7488 0.2325 0.69987 0.0
C524 C 0.75026 0.2516 0.64096 0.0
C525 C 0.73234 0.2473 0.75634 0.0
C526 C 0.73243 0.28437 0.63755 0.0
C527 C 0.71507 0.29879 0.69284 0.0
H528 H 0.74717 0.79274 0.93044 0.0
H529 H 0.74212 0.68315 0.87805 0.0
H530 H 0.77383 0.69525 0.77425 0.0
H531 H 0.79588 0.73867 0.69262 0.0
H532 H 0.79457 0.84873 0.7454 0.0
H533 H 0.77149 0.83474 0.85376 0.0
C534 C 0.75355 0.77127 0.89694 0.0
C535 C 0.74205 0.73712 0.91191 0.0
C536 C 0.76967 0.77872 0.8363 0.0
C537 C 0.75094 0.70963 0.86818 0.0
C538 C 0.7685 0.71669 0.80827 0.0
C539 C 0.79056 0.75957 0.72785 0.0
C540 C 0.79654 0.79483 0.71 0.0
C541 C 0.77672 0.7514 0.7907 0.0
C542 C 0.78979 0.82145 0.75682 0.0
C543 C 0.7768 0.81349 0.81927 0.0
loop_
_geom_bond_atom_site_label_1
_geom_bond_atom_site_label_2
_geom_bond_distance
_geom_bond_site_symmetry_2
_ccdc_geom_bond_type
Mn0 O5 2.095 1_554 S
Mn0 O15 2.162 . S
Mn0 O16 2.297 1_554 S
Mn0 O24 2.385 . S
Mn0 O25 2.209 . S
Mn0 O26 2.094 . S
Mn1 O6 2.121 1_554 S
Mn1 N8 2.257 1_554 S
Mn1 N17 2.282 . S
Mn1 O25 2.215 . S
Mn1 O27 2.117 . S
C2 O24 1.234 . S
C2 O25 1.283 . S
C3 O15 1.281 . S
C3 O16 1.236 1_554 S
C4 O26 1.240 . S
C4 O27 1.264 . S
O5 Mn0 2.095 1_556 S
O5 C14 1.250 . S
O6 Mn1 2.121 1_556 S
O6 C14 1.258 . S
C7 N8 1.326 . S
C7 C11 1.460 . S
C7 H13 0.929 . S
N8 Mn1 2.257 1_556 S
N8 C7 1.326 . S
N8 C12 1.362 . S
C9 C10 1.258 . S
C9 C12 1.431 . S
C9 C29 1.449 . S
C10 C9 1.258 . S
C10 C11 1.477 . S
C10 H30 0.931 . S
C11 C7 1.460 . S
C11 C10 1.477 . S
C11 H31 0.930 . S
C12 N8 1.362 . S
C12 C9 1.431 . S
C12 C22 1.476 1_556 S
H13 C7 0.929 . S
C14 O5 1.250 . S
C14 O6 1.258 . S
O15 Mn0 2.162 . S
O15 C3 1.281 . S
O16 Mn0 2.297 1_556 S
O16 C3 1.236 1_556 S
N17 Mn1 2.282 . S
N17 C18 1.328 . S
N17 C22 1.318 . S
C18 N17 1.328 . S
C18 C19 1.457 . S
C18 H23 0.929 . S
C19 C18 1.457 . S
C19 C20 1.291 . S
C19 H32 0.931 . S
C20 C19 1.291 . S
C20 C21 1.373 . S
C20 H33 0.929 . S
C21 C20 1.373 . S
C21 C22 1.396 . S
C21 C28 1.403 . S
C22 C12 1.476 1_554 S
C22 N17 1.318 . S
C22 C21 1.396 . S
H23 C18 0.929 . S
O24 Mn0 2.385 . S
O24 C2 1.234 . S
O25 Mn0 2.209 . S
O25 Mn1 2.215 . S
O25 C2 1.283 . S
O26 Mn0 2.094 . S
O26 C4 1.240 . S
O27 Mn1 2.117 . S
O27 C4 1.264 . S
C28 C21 1.403 . S
C28 C29 1.399 1_554 S
C28 H34 0.929 . S
C29 C9 1.449 . S
C29 C28 1.399 1_556 S
C29 H35 0.930 . S
H30 C10 0.931 . S
H31 C11 0.930 . S
H32 C19 0.931 . S
H33 C20 0.929 . S
H34 C28 0.929 . S
H35 C29 0.930 . S
Mn36 O41 2.095 1_556 S
Mn36 O51 2.162 . S
Mn36 O52 2.297 1_556 S
Mn36 O60 2.385 . S
Mn36 O61 2.209 1_556 S
Mn36 O62 2.094 . S
Mn37 O42 2.121 . S
Mn37 N44 2.257 . S
Mn37 N53 2.282 1_554 S
Mn37 O61 2.215 . S
Mn37 O63 2.117 1_554 S
C38 O60 1.234 . S
C38 O61 1.283 1_556 S
C39 O51 1.281 1_554 S
C39 O52 1.236 . S
C40 O62 1.240 . S
C40 O63 1.264 . S
O41 Mn36 2.095 1_554 S
O41 C50 1.250 . S
O42 Mn37 2.121 . S
O42 C50 1.258 . S
C43 N44 1.326 . S
C43 C47 1.460 . S
C43 H49 0.929 . S
N44 Mn37 2.257 . S
N44 C43 1.326 . S
N44 C48 1.362 . S
C45 C46 1.258 . S
C45 C48 1.431 . S
C45 C65 1.449 . S
C46 C45 1.258 . S
C46 C47 1.477 . S
C46 H66 0.931 . S
C47 C43 1.460 . S
C47 C46 1.477 . S
C47 H67 0.930 . S
C48 N44 1.362 . S
C48 C45 1.431 . S
C48 C58 1.476 1_554 S
H49 C43 0.929 . S
C50 O41 1.250 . S
C50 O42 1.258 . S
O51 Mn36 2.162 . S
O51 C39 1.281 1_556 S
O52 Mn36 2.297 1_554 S
O52 C39 1.236 . S
N53 Mn37 2.282 1_556 S
N53 C54 1.328 . S
N53 C58 1.318 . S
C54 N53 1.328 . S
C54 C55 1.457 . S
C54 H59 0.929 . S
C55 C54 1.457 . S
C55 C56 1.291 . S
C55 H68 0.931 . S
C56 C55 1.291 . S
C56 C57 1.373 . S
C56 H69 0.929 . S
C57 C56 1.373 . S
C57 C58 1.396 . S
C57 C64 1.403 . S
C58 C48 1.476 1_556 S
C58 N53 1.318 . S
C58 C57 1.396 . S
H59 C54 0.929 . S
O60 Mn36 2.385 . S
O60 C38 1.234 . S
O61 Mn36 2.209 1_554 S
O61 Mn37 2.215 . S
O61 C38 1.283 1_554 S
O62 Mn36 2.094 . S
O62 C40 1.240 . S
O63 Mn37 2.117 1_556 S
O63 C40 1.264 . S
C64 C57 1.403 . S
C64 C65 1.399 1_556 S
C64 H70 0.929 . S
C65 C45 1.449 . S
C65 C64 1.399 1_554 S
C65 H71 0.930 . S
H66 C46 0.931 . S
H67 C47 0.930 . S
H68 C55 0.931 . S
H69 C56 0.929 . S
H70 C64 0.929 . S
H71 C65 0.930 . S
Mn72 O77 2.095 1_554 S
Mn72 O87 2.162 . S
Mn72 O88 2.297 1_554 S
Mn72 O96 2.385 . S
Mn72 O97 2.209 . S
Mn72 O98 2.094 . S
Mn73 O78 2.121 1_554 S
Mn73 N80 2.257 1_554 S
Mn73 N89 2.282 . S
Mn73 O97 2.215 . S
Mn73 O99 2.117 . S
C74 O96 1.234 . S
C74 O97 1.283 . S
C75 O87 1.281 . S
C75 O88 1.236 1_554 S
C76 O98 1.240 . S
C76 O99 1.264 . S
O77 Mn72 2.095 1_556 S
O77 C86 1.250 . S
O78 Mn73 2.121 1_556 S
O78 C86 1.258 . S
C79 N80 1.326 . S
C79 C83 1.460 . S
C79 H85 0.929 . S
N80 Mn73 2.257 1_556 S
N80 C79 1.326 . S
N80 C84 1.362 . S
C81 C82 1.258 . S
C81 C84 1.431 . S
C81 C101 1.449 . S
C82 C81 1.258 . S
C82 C83 1.477 . S
C82 H102 0.931 . S
C83 C79 1.460 . S
C83 C82 1.477 . S
C83 H103 0.930 . S
C84 N80 1.362 . S
C84 C81 1.431 . S
C84 C94 1.476 1_556 S
H85 C79 0.929 . S
C86 O77 1.250 . S
C86 O78 1.258 . S
O87 Mn72 2.162 . S
O87 C75 1.281 . S
O88 Mn72 2.297 1_556 S
O88 C75 1.236 1_556 S
N89 Mn73 2.282 . S
N89 C90 1.328 . S
N89 C94 1.318 . S
C90 N89 1.328 . S
C90 C91 1.457 . S
C90 H95 0.929 . S
C91 C90 1.457 . S
C91 C92 1.291 . S
C91 H104 0.931 . S
C92 C91 1.291 . S
C92 C93 1.373 . S
C92 H105 0.929 . S
C93 C92 1.373 . S
C93 C94 1.396 . S
C93 C100 1.403 . S
C94 C84 1.476 1_554 S
C94 N89 1.318 . S
C94 C93 1.396 . S
H95 C90 0.929 . S
O96 Mn72 2.385 . S
O96 C74 1.234 . S
O97 Mn72 2.209 . S
O97 Mn73 2.215 . S
O97 C74 1.283 . S
O98 Mn72 2.094 . S
O98 C76 1.240 . S
O99 Mn73 2.117 . S
O99 C76 1.264 . S
C100 C93 1.403 . S
C100 C101 1.399 1_554 S
C100 H106 0.929 . S
C101 C81 1.449 . S
C101 C100 1.399 1_556 S
C101 H107 0.930 . S
H102 C82 0.931 . S
H103 C83 0.930 . S
H104 C91 0.931 . S
H105 C92 0.929 . S
H106 C100 0.929 . S
H107 C101 0.930 . S
Mn108 O113 2.095 1_556 S
Mn108 O123 2.162 . S
Mn108 O124 2.297 1_556 S
Mn108 O132 2.385 . S
Mn108 O133 2.209 1_556 S
Mn108 O134 2.094 . S
Mn109 O114 2.121 . S
Mn109 N116 2.257 . S
Mn109 N125 2.282 1_554 S
Mn109 O133 2.215 . S
Mn109 O135 2.117 1_554 S
C110 O132 1.234 . S
C110 O133 1.283 1_556 S
C111 O123 1.281 1_554 S
C111 O124 1.236 . S
C112 O134 1.240 . S
C112 O135 1.264 . S
O113 Mn108 2.095 1_554 S
O113 C122 1.250 . S
O114 Mn109 2.121 . S
O114 C122 1.258 . S
C115 N116 1.326 . S
C115 C119 1.460 . S
C115 H121 0.929 . S
N116 Mn109 2.257 . S
N116 C115 1.326 . S
N116 C120 1.362 . S
C117 C118 1.258 . S
C117 C120 1.431 . S
C117 C137 1.449 . S
C118 C117 1.258 . S
C118 C119 1.477 . S
C118 H138 0.931 . S
C119 C115 1.460 . S
C119 C118 1.477 . S
C119 H139 0.930 . S
C120 N116 1.362 . S
C120 C117 1.431 . S
C120 C130 1.476 1_554 S
H121 C115 0.929 . S
C122 O113 1.250 . S
C122 O114 1.258 . S
O123 Mn108 2.162 . S
O123 C111 1.281 1_556 S
O124 Mn108 2.297 1_554 S
O124 C111 1.236 . S
N125 Mn109 2.282 1_556 S
N125 C126 1.328 . S
N125 C130 1.318 . S
C126 N125 1.328 . S
C126 C127 1.457 . S
C126 H131 0.929 . S
C127 C126 1.457 . S
C127 C128 1.291 . S
C127 H140 0.931 . S
C128 C127 1.291 . S
C128 C129 1.373 . S
C128 H141 0.929 . S
C129 C128 1.373 . S
C129 C130 1.396 . S
C129 C136 1.403 . S
C130 C120 1.476 1_556 S
C130 N125 1.318 . S
C130 C129 1.396 . S
H131 C126 0.929 . S
O132 Mn108 2.385 . S
O132 C110 1.234 . S
O133 Mn108 2.209 1_554 S
O133 Mn109 2.215 . S
O133 C110 1.283 1_554 S
O134 Mn108 2.094 . S
O134 C112 1.240 . S
O135 Mn109 2.117 1_556 S
O135 C112 1.264 . S
C136 C129 1.403 . S
C136 C137 1.399 1_556 S
C136 H142 0.929 . S
C137 C117 1.449 . S
C137 C136 1.399 1_554 S
C137 H143 0.930 . S
H138 C118 0.931 . S
H139 C119 0.930 . S
H140 C127 0.931 . S
H141 C128 0.929 . S
H142 C136 0.929 . S
H143 C137 0.930 . S
Mn144 O149 2.095 . S
Mn144 O159 2.162 . S
Mn144 O160 2.297 . S
Mn144 O168 2.385 . S
Mn144 O169 2.209 . S
Mn144 O170 2.094 . S
Mn145 O150 2.121 . S
Mn145 N152 2.257 . S
Mn145 N161 2.282 . S
Mn145 O169 2.215 . S
Mn145 O171 2.117 . S
C146 O168 1.234 . S
C146 O169 1.283 . S
C147 O159 1.281 . S
C147 O160 1.236 . S
C148 O170 1.240 . S
C148 O171 1.264 . S
O149 Mn144 2.095 . S
O149 C158 1.250 . S
O150 Mn145 2.121 . S
O150 C158 1.258 . S
C151 N152 1.326 . S
C151 C155 1.460 . S
C151 H157 0.929 . S
N152 Mn145 2.257 . S
N152 C151 1.326 . S
N152 C156 1.362 . S
C153 C154 1.258 . S
C153 C156 1.431 . S
C153 C173 1.449 . S
C154 C153 1.258 . S
C154 C155 1.477 . S
C154 H174 0.931 . S
C155 C151 1.460 . S
C155 C154 1.477 . S
C155 H175 0.930 . S
C156 N152 1.362 . S
C156 C153 1.431 . S
C156 C166 1.476 . S
H157 C151 0.929 . S
C158 O149 1.250 . S
C158 O150 1.258 . S
O159 Mn144 2.162 . S
O159 C147 1.281 . S
O160 Mn144 2.297 . S
O160 C147 1.236 . S
N161 Mn145 2.282 . S
N161 C162 1.328 . S
N161 C166 1.318 . S
C162 N161 1.328 . S
C162 C163 1.457 . S
C162 H167 0.929 . S
C163 C162 1.457 . S
C163 C164 1.291 . S
C163 H176 0.931 . S
C164 C163 1.291 . S
C164 C165 1.373 . S
C164 H177 0.929 . S
C165 C164 1.373 . S
C165 C166 1.396 . S
C165 C172 1.403 . S
C166 C156 1.476 . S
C166 N161 1.318 . S
C166 C165 1.396 . S
H167 C162 0.929 . S
O168 Mn144 2.385 . S
O168 C146 1.234 . S
O169 Mn144 2.209 . S
O169 Mn145 2.215 . S
O169 C146 1.283 . S
O170 Mn144 2.094 . S
O170 C148 1.240 . S
O171 Mn145 2.117 . S
O171 C148 1.264 . S
C172 C165 1.403 . S
C172 C173 1.399 . S
C172 H178 0.929 1_655 S
C173 C153 1.449 . S
C173 C172 1.399 . S
C173 H179 0.930 1_655 S
H174 C154 0.931 . S
H175 C155 0.930 . S
H176 C163 0.931 . S
H177 C164 0.929 . S
H178 C172 0.929 1_455 S
H179 C173 0.930 1_455 S
Mn180 O185 2.095 . S
Mn180 O195 2.162 . S
Mn180 O196 2.297 . S
Mn180 O204 2.385 . S
Mn180 O205 2.209 . S
Mn180 O206 2.094 . S
Mn181 O186 2.121 . S
Mn181 N188 2.257 . S
Mn181 N197 2.282 . S
Mn181 O205 2.215 . S
Mn181 O207 2.117 . S
C182 O204 1.234 . S
C182 O205 1.283 . S
C183 O195 1.281 . S
C183 O196 1.236 . S
C184 O206 1.240 . S
C184 O207 1.264 . S
O185 Mn180 2.095 . S
O185 C194 1.250 . S
O186 Mn181 2.121 . S
O186 C194 1.258 . S
C187 N188 1.326 . S
C187 C191 1.460 . S
C187 H193 0.929 . S
N188 Mn181 2.257 . S
N188 C187 1.326 . S
N188 C192 1.362 . S
C189 C190 1.258 . S
C189 C192 1.431 . S
C189 C209 1.449 . S
C190 C189 1.258 . S
C190 C191 1.477 . S
C190 H210 0.931 . S
C191 C187 1.460 . S
C191 C190 1.477 . S
C191 H211 0.930 . S
C192 N188 1.362 . S
C192 C189 1.431 . S
C192 C202 1.476 . S
H193 C187 0.929 . S
C194 O185 1.250 . S
C194 O186 1.258 . S
O195 Mn180 2.162 . S
O195 C183 1.281 . S
O196 Mn180 2.297 . S
O196 C183 1.236 . S
N197 Mn181 2.282 . S
N197 C198 1.328 . S
N197 C202 1.318 . S
C198 N197 1.328 . S
C198 C199 1.457 . S
C198 H203 0.929 . S
C199 C198 1.457 . S
C199 C200 1.291 . S
C199 H212 0.931 . S
C200 C199 1.291 . S
C200 C201 1.373 . S
C200 H213 0.929 . S
C201 C200 1.373 . S
C201 C202 1.396 . S
C201 C208 1.403 . S
C202 C192 1.476 . S
C202 N197 1.318 . S
C202 C201 1.396 . S
H203 C198 0.929 . S
O204 Mn180 2.385 . S
O204 C182 1.234 . S
O205 Mn180 2.209 . S
O205 Mn181 2.215 . S
O205 C182 1.283 . S
O206 Mn180 2.094 . S
O206 C184 1.240 . S
O207 Mn181 2.117 . S
O207 C184 1.264 . S
C208 C201 1.403 . S
C208 C209 1.399 . S
C208 H214 0.929 1_455 S
C209 C189 1.449 . S
C209 C208 1.399 . S
C209 H215 0.930 1_455 S
H210 C190 0.931 . S
H211 C191 0.930 . S
H212 C199 0.931 . S
H213 C200 0.929 . S
H214 C208 0.929 1_655 S
H215 C209 0.930 1_655 S
Mn216 O221 2.095 . S
Mn216 O231 2.162 . S
Mn216 O232 2.297 . S
Mn216 O240 2.385 . S
Mn216 O241 2.209 . S
Mn216 O242 2.094 . S
Mn217 O222 2.121 . S
Mn217 N224 2.257 . S
Mn217 N233 2.282 . S
Mn217 O241 2.215 . S
Mn217 O243 2.117 . S
C218 O240 1.234 . S
C218 O241 1.283 . S
C219 O231 1.281 . S
C219 O232 1.236 . S
C220 O242 1.240 . S
C220 O243 1.264 . S
O221 Mn216 2.095 . S
O221 C230 1.250 . S
O222 Mn217 2.121 . S
O222 C230 1.258 . S
C223 N224 1.326 . S
C223 C227 1.460 . S
C223 H229 0.929 . S
N224 Mn217 2.257 . S
N224 C223 1.326 . S
N224 C228 1.362 . S
C225 C226 1.258 . S
C225 C228 1.431 . S
C225 C245 1.449 . S
C226 C225 1.258 . S
C226 C227 1.477 . S
C226 H246 0.931 . S
C227 C223 1.460 . S
C227 C226 1.477 . S
C227 H247 0.930 . S
C228 N224 1.362 . S
C228 C225 1.431 . S
C228 C238 1.476 . S
H229 C223 0.929 . S
C230 O221 1.250 . S
C230 O222 1.258 . S
O231 Mn216 2.162 . S
O231 C219 1.281 . S
O232 Mn216 2.297 . S
O232 C219 1.236 . S
N233 Mn217 2.282 . S
N233 C234 1.328 . S
N233 C238 1.318 . S
C234 N233 1.328 . S
C234 C235 1.457 . S
C234 H239 0.929 . S
C235 C234 1.457 . S
C235 C236 1.291 . S
C235 H248 0.931 . S
C236 C235 1.291 . S
C236 C237 1.373 . S
C236 H249 0.929 . S
C237 C236 1.373 . S
C237 C238 1.396 . S
C237 C244 1.403 . S
C238 C228 1.476 . S
C238 N233 1.318 . S
C238 C237 1.396 . S
H239 C234 0.929 . S
O240 Mn216 2.385 . S
O240 C218 1.234 . S
O241 Mn216 2.209 . S
O241 Mn217 2.215 . S
O241 C218 1.283 . S
O242 Mn216 2.094 . S
O242 C220 1.240 . S
O243 Mn217 2.117 . S
O243 C220 1.264 . S
C244 C237 1.403 . S
C244 C245 1.399 . S
C244 H250 0.929 1_455 S
C245 C225 1.449 . S
C245 C244 1.399 . S
C245 H251 0.930 1_455 S
H246 C226 0.931 . S
H247 C227 0.930 . S
H248 C235 0.931 . S
H249 C236 0.929 . S
H250 C244 0.929 1_655 S
H251 C245 0.930 1_655 S
Mn252 O257 2.095 . S
Mn252 O267 2.162 . S
Mn252 O268 2.297 . S
Mn252 O276 2.385 . S
Mn252 O277 2.209 . S
Mn252 O278 2.094 . S
Mn253 O258 2.121 . S
Mn253 N260 2.257 . S
Mn253 N269 2.282 . S
Mn253 O277 2.215 . S
Mn253 O279 2.117 . S
C254 O276 1.234 . S
C254 O277 1.283 . S
C255 O267 1.281 . S
C255 O268 1.236 . S
C256 O278 1.240 . S
C256 O279 1.264 . S
O257 Mn252 2.095 . S
O257 C266 1.250 . S
O258 Mn253 2.121 . S
O258 C266 1.258 . S
C259 N260 1.326 . S
C259 C263 1.460 . S
C259 H265 0.929 . S
N260 Mn253 2.257 . S
N260 C259 1.326 . S
N260 C264 1.362 . S
C261 C262 1.258 . S
C261 C264 1.431 . S
C261 C281 1.449 . S
C262 C261 1.258 . S
C262 C263 1.477 . S
C262 H282 0.931 . S
C263 C259 1.460 . S
C263 C262 1.477 . S
C263 H283 0.930 . S
C264 N260 1.362 . S
C264 C261 1.431 . S
C264 C274 1.476 . S
H265 C259 0.929 . S
C266 O257 1.250 . S
C266 O258 1.258 . S
O267 Mn252 2.162 . S
O267 C255 1.281 . S
O268 Mn252 2.297 . S
O268 C255 1.236 . S
N269 Mn253 2.282 . S
N269 C270 1.328 . S
N269 C274 1.318 . S
C270 N269 1.328 . S
C270 C271 1.457 . S
C270 H275 0.929 . S
C271 C270 1.457 . S
C271 C272 1.291 . S
C271 H284 0.931 . S
C272 C271 1.291 . S
C272 C273 1.373 . S
C272 H285 0.929 . S
C273 C272 1.373 . S
C273 C274 1.396 . S
C273 C280 1.403 . S
C274 C264 1.476 . S
C274 N269 1.318 . S
C274 C273 1.396 . S
H275 C270 0.929 . S
O276 Mn252 2.385 . S
O276 C254 1.234 . S
O277 Mn252 2.209 . S
O277 Mn253 2.215 . S
O277 C254 1.283 . S
O278 Mn252 2.094 . S
O278 C256 1.240 . S
O279 Mn253 2.117 . S
O279 C256 1.264 . S
C280 C273 1.403 . S
C280 C281 1.399 . S
C280 H286 0.929 1_655 S
C281 C261 1.449 . S
C281 C280 1.399 . S
C281 H287 0.930 1_655 S
H282 C262 0.931 . S
H283 C263 0.930 . S
H284 C271 0.931 . S
H285 C272 0.929 . S
H286 C280 0.929 1_455 S
H287 C281 0.930 1_455 S
H288 C294 0.930 . S
H289 C297 0.930 . S
H290 C298 0.930 . S
H291 C299 0.930 . S
H292 C302 0.930 . S
H293 C303 0.930 . S
C294 H288 0.930 . S
C294 C295 1.355 . S
C294 C296 1.415 . S
C295 C294 1.355 . S
C295 C297 1.419 . S
C296 C294 1.415 . S
C296 C301 1.425 . S
C296 C303 1.409 . S
C297 H289 0.930 . S
C297 C295 1.419 . S
C297 C298 1.362 . S
C298 H290 0.930 . S
C298 C297 1.362 . S
C298 C301 1.409 . S
C299 H291 0.930 . S
C299 C300 1.355 . S
C299 C301 1.415 . S
C300 C299 1.355 . S
C300 C302 1.419 . S
C301 C296 1.425 . S
C301 C298 1.409 . S
C301 C299 1.415 . S
C302 H292 0.930 . S
C302 C300 1.419 . S
C302 C303 1.362 . S
C303 H293 0.930 . S
C303 C296 1.409 . S
C303 C302 1.362 . S
H304 C310 0.930 . S
H305 C313 0.930 . S
H306 C314 0.930 . S
H307 C315 0.930 . S
H308 C318 0.930 . S
H309 C319 0.930 . S
C310 H304 0.930 . S
C310 C311 1.355 1_556 S
C310 C312 1.415 . S
C311 C310 1.355 1_554 S
C311 C313 1.419 . S
C312 C310 1.415 . S
C312 C317 1.425 1_556 S
C312 C319 1.409 . S
C313 H305 0.930 . S
C313 C311 1.419 . S
C313 C314 1.362 . S
C314 H306 0.930 . S
C314 C313 1.362 . S
C314 C317 1.409 . S
C315 H307 0.930 . S
C315 C316 1.355 1_554 S
C315 C317 1.415 . S
C316 C315 1.355 1_556 S
C316 C318 1.419 . S
C317 C312 1.425 1_554 S
C317 C314 1.409 . S
C317 C315 1.415 . S
C318 H308 0.930 . S
C318 C316 1.419 . S
C318 C319 1.362 . S
C319 H309 0.930 . S
C319 C312 1.409 . S
C319 C318 1.362 . S
H320 C326 0.930 . S
H321 C329 0.930 . S
H322 C330 0.930 . S
H323 C331 0.930 . S
H324 C334 0.930 . S
H325 C335 0.930 . S
C326 H320 0.930 . S
C326 C327 1.355 1_556 S
C326 C328 1.415 . S
C327 C326 1.355 1_554 S
C327 C329 1.419 . S
C328 C326 1.415 . S
C328 C333 1.425 1_556 S
C328 C335 1.409 . S
C329 H321 0.930 . S
C329 C327 1.419 . S
C329 C330 1.362 . S
C330 H322 0.930 . S
C330 C329 1.362 . S
C330 C333 1.409 . S
C331 H323 0.930 . S
C331 C332 1.355 . S
C331 C333 1.415 . S
C332 C331 1.355 . S
C332 C334 1.419 1_554 S
C333 C328 1.425 1_554 S
C333 C330 1.409 . S
C333 C331 1.415 . S
C334 H324 0.930 . S
C334 C332 1.419 1_556 S
C334 C335 1.362 . S
C335 H325 0.930 . S
C335 C328 1.409 . S
C335 C334 1.362 . S
H336 C342 0.930 . S
H337 C345 0.930 . S
H338 C346 0.930 . S
H339 C347 0.930 . S
H340 C350 0.930 . S
H341 C351 0.930 . S
C342 H336 0.930 . S
C342 C343 1.355 1_556 S
C342 C344 1.415 . S
C343 C342 1.355 1_554 S
C343 C345 1.419 . S
C344 C342 1.415 . S
C344 C349 1.425 1_556 S
C344 C351 1.409 . S
C345 H337 0.930 . S
C345 C343 1.419 . S
C345 C346 1.362 . S
C346 H338 0.930 . S
C346 C345 1.362 . S
C346 C349 1.409 . S
C347 H339 0.930 . S
C347 C348 1.355 . S
C347 C349 1.415 . S
C348 C347 1.355 . S
C348 C350 1.419 1_554 S
C349 C344 1.425 1_554 S
C349 C346 1.409 . S
C349 C347 1.415 . S
C350 H340 0.930 . S
C350 C348 1.419 1_556 S
C350 C351 1.362 . S
C351 H341 0.930 . S
C351 C344 1.409 . S
C351 C350 1.362 . S
H352 C358 0.930 . S
H353 C361 0.930 . S
H354 C362 0.930 . S
H355 C363 0.930 . S
H356 C366 0.930 . S
H357 C367 0.930 . S
C358 H352 0.930 . S
C358 C359 1.355 . S
C358 C360 1.415 . S
C359 C358 1.355 . S
C359 C361 1.419 . S
C360 C358 1.415 . S
C360 C365 1.425 1_565 S
C360 C367 1.409 1_565 S
C361 H353 0.930 . S
C361 C359 1.419 . S
C361 C362 1.362 . S
C362 H354 0.930 . S
C362 C361 1.362 . S
C362 C365 1.409 1_565 S
C363 H355 0.930 . S
C363 C364 1.355 . S
C363 C365 1.415 . S
C364 C363 1.355 . S
C364 C366 1.419 . S
C365 C360 1.425 1_545 S
C365 C362 1.409 1_545 S
C365 C363 1.415 . S
C366 H356 0.930 . S
C366 C364 1.419 . S
C366 C367 1.362 . S
C367 H357 0.930 . S
C367 C360 1.409 1_545 S
C367 C366 1.362 . S
H368 C374 0.930 . S
H369 C377 0.930 . S
H370 C378 0.936 . S
H371 C379 0.930 . S
H372 C382 0.930 . S
H373 C383 0.936 . S
C374 H368 0.930 . S
C374 C375 1.355 . S
C374 C376 1.415 . S
C375 C374 1.355 . S
C375 C377 1.419 . S
C376 C374 1.415 . S
C376 C381 1.425 1_455 S
C376 C383 1.409 1_455 S
C377 H369 0.930 . S
C377 C375 1.419 . S
C377 C378 1.362 . S
C378 H370 0.936 . S
C378 C377 1.362 . S
C378 C381 1.409 1_455 S
C379 H371 0.930 . S
C379 C380 1.355 . S
C379 C381 1.415 . S
C380 C379 1.355 . S
C380 C382 1.419 . S
C381 C376 1.425 1_655 S
C381 C378 1.409 1_655 S
C381 C379 1.415 . S
C382 H372 0.930 . S
C382 C380 1.419 . S
C382 C383 1.362 . S
C383 H373 0.936 . S
C383 C376 1.409 1_655 S
C383 C382 1.362 . S
H384 C390 0.930 . S
H385 C393 0.930 . S
H386 C394 0.930 . S
H387 C395 0.930 . S
H388 C398 0.930 . S
H389 C399 0.930 . S
C390 H384 0.930 . S
C390 C391 1.355 . S
C390 C392 1.415 . S
C391 C390 1.355 . S
C391 C393 1.419 . S
C392 C390 1.415 . S
C392 C397 1.425 1_545 S
C392 C399 1.409 1_545 S
C393 H385 0.930 . S
C393 C391 1.419 . S
C393 C394 1.362 . S
C394 H386 0.930 . S
C394 C393 1.362 . S
C394 C397 1.409 1_545 S
C395 H387 0.930 . S
C395 C396 1.355 . S
C395 C397 1.415 . S
C396 C395 1.355 . S
C396 C398 1.419 . S
C397 C392 1.425 1_565 S
C397 C394 1.409 1_565 S
C397 C395 1.415 . S
C398 H388 0.930 . S
C398 C396 1.419 . S
C398 C399 1.362 . S
C399 H389 0.930 . S
C399 C392 1.409 1_565 S
C399 C398 1.362 . S
H400 C406 0.930 . S
H401 C409 0.930 . S
H402 C410 0.930 . S
H403 C411 0.930 . S
H404 C414 0.930 . S
H405 C415 0.930 . S
C406 H400 0.930 . S
C406 C407 1.355 . S
C406 C408 1.415 . S
C407 C406 1.355 . S
C407 C409 1.419 . S
C408 C406 1.415 . S
C408 C413 1.425 1_655 S
C408 C415 1.409 1_655 S
C409 H401 0.930 . S
C409 C407 1.419 . S
C409 C410 1.362 . S
C410 H402 0.930 . S
C410 C409 1.362 . S
C410 C413 1.409 1_655 S
C411 H403 0.930 . S
C411 C412 1.355 . S
C411 C413 1.415 . S
C412 C411 1.355 . S
C412 C414 1.419 . S
C413 C408 1.425 1_455 S
C413 C410 1.409 1_455 S
C413 C411 1.415 . S
C414 H404 0.930 . S
C414 C412 1.419 . S
C414 C415 1.362 . S
C415 H405 0.930 . S
C415 C408 1.409 1_455 S
C415 C414 1.362 . S
H416 C422 0.930 . S
H417 C425 0.930 . S
H418 C426 0.930 . S
H419 C427 0.930 . S
H420 C430 0.930 . S
H421 C431 0.930 . S
C422 H416 0.930 . S
C422 C423 1.355 . S
C422 C424 1.415 . S
C423 C422 1.355 . S
C423 C425 1.419 . S
C424 C422 1.415 . S
C424 C429 1.425 . S
C424 C431 1.409 . S
C425 H417 0.930 . S
C425 C423 1.419 . S
C425 C426 1.362 . S
C426 H418 0.930 . S
C426 C425 1.362 . S
C426 C429 1.409 . S
C427 H419 0.930 . S
C427 C428 1.355 . S
C427 C429 1.415 . S
C428 C427 1.355 . S
C428 C430 1.419 . S
C429 C424 1.425 . S
C429 C426 1.409 . S
C429 C427 1.415 . S
C430 H420 0.930 . S
C430 C428 1.419 . S
C430 C431 1.362 . S
C431 H421 0.930 . S
C431 C424 1.409 . S
C431 C430 1.362 . S
H432 C438 0.930 . S
H433 C441 0.930 . S
H434 C442 0.930 . S
H435 C443 0.930 . S
H436 C446 0.930 . S
H437 C447 0.930 . S
C438 H432 0.930 . S
C438 C439 1.355 . S
C438 C440 1.415 . S
C439 C438 1.355 . S
C439 C441 1.419 . S
C440 C438 1.415 . S
C440 C445 1.425 . S
C440 C447 1.409 . S
C441 H433 0.930 . S
C441 C439 1.419 . S
C441 C442 1.362 . S
C442 H434 0.930 . S
C442 C441 1.362 . S
C442 C445 1.409 . S
C443 H435 0.930 . S
C443 C444 1.355 . S
C443 C445 1.415 . S
C444 C443 1.355 . S
C444 C446 1.419 . S
C445 C440 1.425 . S
C445 C442 1.409 . S
C445 C443 1.415 . S
C446 H436 0.930 . S
C446 C444 1.419 . S
C446 C447 1.362 . S
C447 H437 0.930 . S
C447 C440 1.409 . S
C447 C446 1.362 . S
H448 C454 0.930 . S
H449 C457 0.930 . S
H450 C458 0.930 . S
H451 C459 0.930 . S
H452 C462 0.930 . S
H453 C463 0.930 . S
C454 H448 0.930 . S
C454 C455 1.355 . S
C454 C456 1.415 . S
C455 C454 1.355 . S
C455 C457 1.419 . S
C456 C454 1.415 . S
C456 C461 1.425 . S
C456 C463 1.409 . S
C457 H449 0.930 . S
C457 C455 1.419 . S
C457 C458 1.362 . S
C458 H450 0.930 . S
C458 C457 1.362 . S
C458 C461 1.409 . S
C459 H451 0.930 . S
C459 C460 1.355 . S
C459 C461 1.415 . S
C460 C459 1.355 . S
C460 C462 1.419 . S
C461 C456 1.425 . S
C461 C458 1.409 . S
C461 C459 1.415 . S
C462 H452 0.930 . S
C462 C460 1.419 . S
C462 C463 1.362 . S
C463 H453 0.930 . S
C463 C456 1.409 . S
C463 C462 1.362 . S
H464 C470 0.930 . S
H465 C473 0.930 . S
H466 C474 0.930 . S
H467 C475 0.930 . S
H468 C478 0.930 . S
H469 C479 0.930 . S
C470 H464 0.930 . S
C470 C471 1.355 . S
C470 C472 1.415 . S
C471 C470 1.355 . S
C471 C473 1.419 . S
C472 C470 1.415 . S
C472 C477 1.425 . S
C472 C479 1.409 . S
C473 H465 0.930 . S
C473 C471 1.419 . S
C473 C474 1.362 . S
C474 H466 0.930 . S
C474 C473 1.362 . S
C474 C477 1.409 . S
C475 H467 0.930 . S
C475 C476 1.355 . S
C475 C477 1.415 . S
C476 C475 1.355 . S
C476 C478 1.419 . S
C477 C472 1.425 . S
C477 C474 1.409 . S
C477 C475 1.415 . S
C478 H468 0.930 . S
C478 C476 1.419 . S
C478 C479 1.362 . S
C479 H469 0.930 . S
C479 C472 1.409 . S
C479 C478 1.362 . S
H480 C486 0.930 . S
H481 C489 0.930 . S
H482 C490 0.930 . S
H483 C491 0.930 . S
H484 C494 0.930 . S
H485 C495 0.930 . S
C486 H480 0.930 . S
C486 C487 1.355 . S
C486 C488 1.415 . S
C487 C486 1.355 . S
C487 C489 1.419 . S
C488 C486 1.415 . S
C488 C493 1.425 . S
C488 C495 1.409 . S
C489 H481 0.930 . S
C489 C487 1.419 . S
C489 C490 1.362 . S
C490 H482 0.930 . S
C490 C489 1.362 . S
C490 C493 1.409 . S
C491 H483 0.930 . S
C491 C492 1.355 . S
C491 C493 1.415 . S
C492 C491 1.355 . S
C492 C494 1.419 . S
C493 C488 1.425 . S
C493 C490 1.409 . S
C493 C491 1.415 . S
C494 H484 0.930 . S
C494 C492 1.419 . S
C494 C495 1.362 . S
C495 H485 0.930 . S
C495 C488 1.409 . S
C495 C494 1.362 . S
H496 C502 0.930 . S
H497 C505 0.930 . S
H498 C506 0.930 . S
H499 C507 0.930 . S
H500 C510 0.930 . S
H501 C511 0.930 . S
C502 H496 0.930 . S
C502 C503 1.355 . S
C502 C504 1.415 . S
C503 C502 1.355 . S
C503 C505 1.419 . S
C504 C502 1.415 . S
C504 C509 1.425 . S
C504 C511 1.409 . S
C505 H497 0.930 . S
C505 C503 1.419 . S
C505 C506 1.362 . S
C506 H498 0.930 . S
C506 C505 1.362 . S
C506 C509 1.409 . S
C507 H499 0.930 . S
C507 C508 1.355 . S
C507 C509 1.415 . S
C508 C507 1.355 . S
C508 C510 1.419 . S
C509 C504 1.425 . S
C509 C506 1.409 . S
C509 C507 1.415 . S
C510 H500 0.930 . S
C510 C508 1.419 . S
C510 C511 1.362 . S
C511 H501 0.930 . S
C511 C504 1.409 . S
C511 C510 1.362 . S
H512 C518 0.930 . S
H513 C521 0.930 . S
H514 C522 0.930 . S
H515 C523 0.930 . S
H516 C526 0.930 . S
H517 C527 0.930 . S
C518 H512 0.930 . S
C518 C519 1.355 . S
C518 C520 1.415 . S
C519 C518 1.355 . S
C519 C521 1.419 . S
C520 C518 1.415 . S
C520 C525 1.425 . S
C520 C527 1.409 . S
C521 H513 0.930 . S
C521 C519 1.419 . S
C521 C522 1.362 . S
C522 H514 0.930 . S
C522 C521 1.362 . S
C522 C525 1.409 . S
C523 H515 0.930 . S
C523 C524 1.355 . S
C523 C525 1.415 . S
C524 C523 1.355 . S
C524 C526 1.419 . S
C525 C520 1.425 . S
C525 C522 1.409 . S
C525 C523 1.415 . S
C526 H516 0.930 . S
C526 C524 1.419 . S
C526 C527 1.362 . S
C527 H517 0.930 . S
C527 C520 1.409 . S
C527 C526 1.362 . S
H528 C534 0.930 . S
H529 C537 0.930 . S
H530 C538 0.930 . S
H531 C539 0.930 . S
H532 C542 0.930 . S
H533 C543 0.930 . S
C534 H528 0.930 . S
C534 C535 1.355 . S
C534 C536 1.415 . S
C535 C534 1.355 . S
C535 C537 1.419 . S
C536 C534 1.415 . S
C536 C541 1.425 . S
C536 C543 1.409 . S
C537 H529 0.930 . S
C537 C535 1.419 . S
C537 C538 1.362 . S
C538 H530 0.930 . S
C538 C537 1.362 . S
C538 C541 1.409 . S
C539 H531 0.930 . S
C539 C540 1.355 . S
C539 C541 1.415 . S
C540 C539 1.355 . S
C540 C542 1.419 . S
C541 C536 1.425 . S
C541 C538 1.409 . S
C541 C539 1.415 . S
C542 H532 0.930 . S
C542 C540 1.419 . S
C542 C543 1.362 . S
C543 H533 0.930 . S
C543 C536 1.409 . S
C543 C542 1.362 . S
C295 C3 1.507 . S
C300 C111 1.506 . S
C311 C2 1.517 . S
C316 C38 1.513 . S
C327 C39 1.521 . S
C332 C75 1.520 . S
C343 C110 1.504 1_554 S
C348 C74 1.514 . S
C359 C147 1.514 . S
C364 C255 1.513 . S
C375 C182 1.517 . S
C380 C146 1.513 . S
C391 C219 1.499 . S
C396 C183 1.498 . S
C407 C254 1.499 . S
C412 C218 1.521 . S
C423 C230 1.400 . S
C428 C4 1.470 . S
C439 C50 1.423 . S
C444 C256 1.477 . S
C455 C158 1.450 . S
C460 C76 1.478 . S
C471 C184 1.469 . S
C476 C122 1.371 . S
C487 C194 1.426 . S
C492 C112 1.477 . S
C503 C14 1.389 . S
C508 C220 1.469 . S
C519 C40 1.469 . S
C524 C266 1.374 . S
C535 C86 1.414 . S
C540 C148 1.472 . S
