# Generated by pormake.
# Topology wkj, (6)-cn, num edge types: 1
# Building blocks:
#     Node 0, Type 0, BuildingBlock: UKALOJ_clean_sbu_0, # of connection points: 6
#     Node 1, Type 0, BuildingBlock: UKALOJ_clean_sbu_0, # of connection points: 6
#     Node 2, Type 0, BuildingBlock: UKALOJ_clean_sbu_0, # of connection points: 6
#     Node 3, Type 0, BuildingBlock: UKALOJ_clean_sbu_0, # of connection points: 6
#     Node 4, Type 0, BuildingBlock: UKALOJ_clean_sbu_0, # of connection points: 6
#     Node 5, Type 0, BuildingBlock: UKALOJ_clean_sbu_0, # of connection points: 6
#     Node 6, Type 0, BuildingBlock: UKALOJ_clean_sbu_0, # of connection points: 6
#     Node 7, Type 0, BuildingBlock: UKALOJ_clean_sbu_0, # of connection points: 6
#     Node 8, Type 0, BuildingBlock: UKALOJ_clean_sbu_0, # of connection points: 6
#     Node 9, Type 0, BuildingBlock: UKALOJ_clean_sbu_0, # of connection points: 6
#     Node 10, Type 0, BuildingBlock: UKALOJ_clean_sbu_0, # of connection points: 6
#     Node 11, Type 0, BuildingBlock: UKALOJ_clean_sbu_0, # of connection points: 6
#     Edge 12, Type (0, 0), BuildingBlock: AJUNOK_clean_linker_0, # of connection points: 2
#     Edge 13, Type (0, 0), BuildingBlock: AJUNOK_clean_linker_0, # of connection points: 2
#     Edge 14, Type (0, 0), BuildingBlock: AJUNOK_clean_linker_0, # of connection points: 2
#     Edge 15, Type (0, 0), BuildingBlock: AJUNOK_clean_linker_0, # of connection points: 2
#     Edge 16, Type (0, 0), BuildingBlock: AJUNOK_clean_linker_0, # of connection points: 2
#     Edge 17, Type (0, 0), BuildingBlock: AJUNOK_clean_linker_0, # of connection points: 2
#     Edge 18, Type (0, 0), BuildingBlock: AJUNOK_clean_linker_0, # of connection points: 2
#     Edge 19, Type (0, 0), BuildingBlock: AJUNOK_clean_linker_0, # of connection points: 2
#     Edge 20, Type (0, 0), BuildingBlock: AJUNOK_clean_linker_0, # of connection points: 2
#     Edge 21, Type (0, 0), BuildingBlock: AJUNOK_clean_linker_0, # of connection points: 2
#     Edge 22, Type (0, 0), BuildingBlock: AJUNOK_clean_linker_0, # of connection points: 2
#     Edge 23, Type (0, 0), BuildingBlock: AJUNOK_clean_linker_0, # of connection points: 2
#     Edge 24, Type (0, 0), BuildingBlock: AJUNOK_clean_linker_0, # of connection points: 2
#     Edge 25, Type (0, 0), BuildingBlock: AJUNOK_clean_linker_0, # of connection points: 2
#     Edge 26, Type (0, 0), BuildingBlock: AJUNOK_clean_linker_0, # of connection points: 2
#     Edge 27, Type (0, 0), BuildingBlock: AJUNOK_clean_linker_0, # of connection points: 2
#     Edge 28, Type (0, 0), BuildingBlock: AJUNOK_clean_linker_0, # of connection points: 2
#     Edge 29, Type (0, 0), BuildingBlock: AJUNOK_clean_linker_0, # of connection points: 2
#     Edge 30, Type (0, 0), BuildingBlock: AJUNOK_clean_linker_0, # of connection points: 2
#     Edge 31, Type (0, 0), BuildingBlock: AJUNOK_clean_linker_0, # of connection points: 2
#     Edge 32, Type (0, 0), BuildingBlock: AJUNOK_clean_linker_0, # of connection points: 2
#     Edge 33, Type (0, 0), BuildingBlock: AJUNOK_clean_linker_0, # of connection points: 2
#     Edge 34, Type (0, 0), BuildingBlock: AJUNOK_clean_linker_0, # of connection points: 2
#     Edge 35, Type (0, 0), BuildingBlock: AJUNOK_clean_linker_0, # of connection points: 2
#     Edge 36, Type (0, 0), BuildingBlock: AJUNOK_clean_linker_0, # of connection points: 2
#     Edge 37, Type (0, 0), BuildingBlock: AJUNOK_clean_linker_0, # of connection points: 2
#     Edge 38, Type (0, 0), BuildingBlock: AJUNOK_clean_linker_0, # of connection points: 2
#     Edge 39, Type (0, 0), BuildingBlock: AJUNOK_clean_linker_0, # of connection points: 2
#     Edge 40, Type (0, 0), BuildingBlock: AJUNOK_clean_linker_0, # of connection points: 2
#     Edge 41, Type (0, 0), BuildingBlock: AJUNOK_clean_linker_0, # of connection points: 2
#     Edge 42, Type (0, 0), BuildingBlock: AJUNOK_clean_linker_0, # of connection points: 2
#     Edge 43, Type (0, 0), BuildingBlock: AJUNOK_clean_linker_0, # of connection points: 2
#     Edge 44, Type (0, 0), BuildingBlock: AJUNOK_clean_linker_0, # of connection points: 2
#     Edge 45, Type (0, 0), BuildingBlock: AJUNOK_clean_linker_0, # of connection points: 2
#     Edge 46, Type (0, 0), BuildingBlock: AJUNOK_clean_linker_0, # of connection points: 2
#     Edge 47, Type (0, 0), BuildingBlock: AJUNOK_clean_linker_0, # of connection points: 2
# Relax obj value: 1.029
# Max RMSD: 0.242
# Mean RMSD: 0.242
data_MOF--net-wkj--node1-UKALOJ_clean_sbu_0--edge1-AJUNOK_clean_linker_0
_symmetry_space_group_name_H-M    P1
_symmetry_Int_Tables_number       1
_symmetry_cell_setting            triclinic
loop_
_symmetry_equiv_pos_as_xyz
'x, y, z'
_cell_length_a     50.840331
_cell_length_b     50.318924
_cell_length_c     15.723822
_cell_angle_alpha  89.742827
_cell_angle_beta   90.380708
_cell_angle_gamma 120.04245
loop_
_atom_site_label
_atom_site_type_symbol
_atom_site_fract_x
_atom_site_fract_y
_atom_site_fract_z
_atom_type_partial_charge
Zn0 Zn 0.4958 0.07814 0.30754 0.0
O1 O 0.46202 0.05707 0.39022 0.0
C2 C 0.53965 0.12644 0.43108 0.0
Zn3 Zn 0.49267 0.11989 0.28729 0.0
C4 C 0.44555 0.06825 0.40897 0.0
O5 O 0.45314 0.09531 0.38187 0.0
C6 C 0.54239 0.12327 0.17773 0.0
O7 O 0.45807 0.09777 0.181 0.0
O8 O 0.46356 0.0587 0.2118 0.0
N9 N 0.48809 0.15898 0.29027 0.0
C10 C 0.4892 0.17986 0.23341 0.0
C11 C 0.48459 0.19473 0.3561 0.0
N12 N 0.48505 0.16839 0.36615 0.0
N13 N 0.48728 0.20277 0.27339 0.0
C14 C 0.51368 0.03049 0.33808 0.0
C15 C 0.51859 1.02449 0.20926 0.0
N16 N 0.4959 0.03828 0.29512 0.0
N17 N 0.49639 0.0311 0.21502 0.0
N18 N 0.53353 0.02881 0.28429 0.0
H19 H 0.47575 0.9864 0.36483 0.0
H20 H 0.51081 0.99401 0.41468 0.0
H21 H 0.48954 1.01137 0.4533 0.0
C22 C 0.49677 1.00413 0.39679 0.0
C23 C 0.49329 0.17828 0.13973 0.0
H24 H 0.50084 0.16168 0.12494 0.0
H25 H 0.47122 0.17043 0.10707 0.0
H26 H 0.50985 0.20136 0.1148 0.0
O27 O 0.5306 0.14015 0.19128 0.0
O28 O 0.53181 0.09823 0.21869 0.0
C29 C 0.45042 0.06968 0.1683 0.0
O30 O 0.52838 0.09821 0.4114 0.0
O31 O 0.52875 0.14142 0.39294 0.0
Zn32 Zn 0.40502 0.48686 0.60138 0.0
O33 O 0.38188 0.44886 0.50265 0.0
C34 C 0.44387 0.52642 0.45941 0.0
Zn35 Zn 0.44659 0.48457 0.58767 0.0
C36 C 0.39619 0.43435 0.49042 0.0
O37 O 0.42176 0.44486 0.52431 0.0
C38 C 0.46051 0.54038 0.69535 0.0
O39 O 0.43699 0.45793 0.70257 0.0
O40 O 0.39092 0.45094 0.70725 0.0
N41 N 0.47867 0.4734 0.54545 0.0
C42 C 0.48036 0.44391 0.58578 0.0
C43 C 0.50936 0.46048 0.4311 0.0
N44 N 0.49495 0.4829 0.45704 0.0
N45 N 0.50091 0.43689 0.51776 0.0
C46 C 0.33729 0.47497 0.58981 0.0
C47 C 0.34454 0.51818 0.63249 0.0
N48 N 0.36677 0.49162 0.61449 0.0
N49 N 0.37098 0.51837 0.6413 0.0
N50 N 0.32277 0.49127 0.59985 0.0
H51 H 0.33326 0.43042 0.59244 0.0
H52 H 0.29795 0.43003 0.57308 0.0
H53 H 0.32617 0.44214 0.49046 0.0
C54 C 0.3227 0.44242 0.55997 0.0
C55 C 0.45787 0.41991 0.64161 0.0
H56 H 0.43531 0.41504 0.62021 0.0
H57 H 0.45968 0.39893 0.63656 0.0
H58 H 0.46197 0.42792 0.70822 0.0
O59 O 0.47403 0.52839 0.65535 0.0
O60 O 0.43131 0.5259 0.6932 0.0
C61 C 0.41054 0.44393 0.73498 0.0
O62 O 0.42079 0.52233 0.50118 0.0
O63 O 0.4559 0.51039 0.47808 0.0
Zn64 Zn 0.94648 0.39701 0.93486 0.0
O65 O 0.96763 0.37581 0.84654 0.0
C66 C 0.9466 0.44435 0.80634 0.0
Zn67 Zn 0.98841 0.43799 0.91858 0.0
C68 C 0.98978 0.3954 0.80066 0.0
O69 O 0.99838 0.42321 0.81078 0.0
C70 C 0.95056 0.44641 0.05392 0.0
O71 O 1.00404 0.41089 0.99077 0.0
O72 O 0.96107 0.38207 0.05003 0.0
N73 N 1.03319 0.47175 0.90852 0.0
C74 C 0.05626 0.47382 0.95651 0.0
C75 C 0.07401 0.49054 0.83389 0.0
N76 N 0.04442 0.48231 0.83221 0.0
N77 N 0.08222 0.48468 0.91052 0.0
C78 C 0.88487 0.33654 0.88344 0.0
C79 C 0.86658 0.31932 1.00612 0.0
N80 N 0.90451 0.35671 0.94115 0.0
N81 N 0.89293 0.34585 1.01712 0.0
N82 N 0.86074 0.31285 0.92277 0.0
H83 H 0.91509 0.35092 0.77634 0.0
H84 H 0.87859 0.31665 0.7583 0.0
H85 H 0.88184 0.35405 0.76213 0.0
C86 C 0.89043 0.33947 0.78957 0.0
C87 C 0.05163 0.46084 0.04427 0.0
H88 H 1.02882 0.45441 0.06791 0.0
H89 H 0.05724 0.44238 0.04266 0.0
H90 H 0.06563 0.4763 0.09365 0.0
O91 O 0.97815 0.45715 0.03054 0.0
O92 O 0.93037 0.42084 1.02161 0.0
C93 C 0.98958 0.39278 0.05078 0.0
O94 O 0.93228 0.41548 0.82377 0.0
O95 O 0.97198 0.4616 0.84311 0.0
Zn96 Zn 0.57777 0.94174 0.26439 0.0
O97 O 0.61455 0.9577 0.16758 0.0
C98 C 0.53516 0.94527 0.13038 0.0
Zn99 Zn 0.58026 0.98703 0.25694 0.0
C100 C 0.62686 0.98589 0.14573 0.0
O101 O 0.61604 1.00168 0.17452 0.0
C102 C 0.52996 0.94508 0.3801 0.0
O103 O 0.61133 1.00176 0.35604 0.0
O104 O 0.61309 0.95947 0.36751 0.0
N105 N 0.58842 0.03054 0.24144 0.0
C106 C 0.61156 0.06096 0.30077 0.0
C107 C 0.58227 0.07625 0.16678 0.0
N108 N 0.57262 0.03882 0.16747 0.0
N109 N 0.60823 0.0908 0.25202 0.0
C110 C 0.57757 0.8803 0.21544 0.0
C111 C 0.56684 0.8568 0.33434 0.0
N112 N 0.57397 0.89837 0.27231 0.0
N113 N 0.56728 0.88357 0.34595 0.0
N114 N 0.57311 0.85399 0.25288 0.0
H115 H 0.61285 0.90709 0.12744 0.0
H116 H 0.58517 0.87053 0.08621 0.0
H117 H 0.57613 0.90098 0.09702 0.0
C118 C 0.58823 0.88996 0.12606 0.0
C119 C 0.63752 0.06561 0.35509 0.0
H120 H 0.65035 0.05704 0.31927 0.0
H121 H 0.65251 0.09035 0.369 0.0
H122 H 0.62919 0.05326 0.41606 0.0
O123 O 0.54195 0.97168 0.34537 0.0
O124 O 0.54092 0.92778 0.3616 0.0
C125 C 0.62309 0.98734 0.38973 0.0
O126 O 0.54234 0.9262 0.16194 0.0
O127 O 0.54879 0.97272 0.15684 0.0
Zn128 Zn 0.66859 0.57504 0.62754 0.0
O129 O 0.67879 0.6103 0.52413 0.0
C130 C 0.62591 0.52828 0.49572 0.0
Zn131 Zn 0.62325 0.56873 0.62429 0.0
C132 C 0.65927 0.61908 0.5117 0.0
O133 O 0.634 0.60493 0.54868 0.0
C134 C 0.6276 0.52372 0.74831 0.0
O135 O 0.63531 0.59869 0.72352 0.0
O136 O 0.68347 0.61265 0.72037 0.0
N137 N 0.582 0.56285 0.6347 0.0
C138 C 0.56447 0.5418 0.691 0.0
C139 C 0.53627 0.54156 0.59396 0.0
N140 N 0.56455 0.56373 0.57395 0.0
N141 N 0.5361 0.52465 0.66218 0.0
C142 C 0.73003 0.57991 0.56484 0.0
C143 C 0.75171 0.58295 0.68377 0.0
N144 N 0.71188 0.58066 0.62618 0.0
N145 N 0.72559 0.58271 0.6998 0.0
N146 N 0.7551 0.58118 0.59952 0.0
H147 H 0.70198 0.57796 0.45857 0.0
H148 H 0.74161 0.59254 0.43415 0.0
H149 H 0.71723 0.55231 0.45278 0.0
C150 C 0.72208 0.57552 0.47222 0.0
C151 C 0.57182 0.54651 0.78276 0.0
H152 H 0.59609 0.55622 0.7972 0.0
H153 H 0.56665 0.56436 0.80317 0.0
H154 H 0.55851 0.52474 0.81787 0.0
O155 O 0.61007 0.52917 0.70417 0.0
O156 O 0.6561 0.54072 0.73557 0.0
C157 C 0.66214 0.6166 0.74793 0.0
O158 O 0.65174 0.53714 0.5311 0.0
O159 O 0.6101 0.53982 0.52008 0.0
Zn160 Zn 0.08927 0.61695 0.99343 0.0
O161 O 0.06301 0.62581 0.06654 0.0
C162 C 0.14767 0.63932 0.12019 0.0
Zn163 Zn 0.13001 0.66002 0.95636 0.0
C164 C 0.07637 0.65355 0.08784 0.0
O165 O 0.10381 0.67151 0.06138 0.0
C166 C 0.1377 0.62026 0.83953 0.0
O167 O 0.09686 0.66093 0.85902 0.0
O168 O 0.06076 0.61365 0.89146 0.0
N169 N 0.16235 0.70661 0.94813 0.0
C170 C 0.18322 0.72406 0.88901 0.0
C171 C 0.19394 0.751 1.00155 0.0
N172 N 0.16912 0.72359 1.01769 0.0
N173 N 0.20362 0.75193 0.92147 0.0
C174 C 0.06834 0.54603 0.05655 0.0
C175 C 0.1089 0.58465 0.03023 0.0
N176 N 0.06104 0.56733 0.03145 0.0
N177 N 0.08672 0.59184 1.01599 0.0
N178 N 0.09881 0.55666 0.05822 0.0
H179 H 1.02961 0.52323 0.1352 0.0
H180 H 1.03143 0.50092 0.05203 0.0
H181 H 0.05658 0.51003 0.14552 0.0
C182 C 0.04539 0.51806 0.10023 0.0
C183 C 0.18215 0.71451 0.79837 0.0
H184 H 0.15821 0.69952 0.77785 0.0
H185 H 0.19335 0.7349 0.75611 0.0
H186 H 0.19412 0.7013 0.79238 0.0
O187 O 0.15408 0.64891 0.85161 0.0
O188 O 0.11461 0.60669 0.88593 0.0
C189 C 0.06974 0.63795 0.84695 0.0
O190 O 0.11936 0.62866 0.12159 0.0
O191 O 0.16095 0.6538 0.05258 0.0
Zn192 Zn 0.93727 0.56986 0.44151 0.0
O193 O 0.95978 0.6066 0.54636 0.0
C194 C 0.92808 0.51598 0.54866 0.0
Zn195 Zn 0.97446 0.56399 0.43782 0.0
C196 C 0.98183 0.6051 0.58141 0.0
O197 O 0.98863 0.58644 0.55122 0.0
C198 C 0.93706 0.527 0.2969 0.0
O199 O 1.00171 0.60435 0.38051 0.0
O200 O 0.9622 0.60719 0.34033 0.0
N201 N 1.00704 0.55792 0.44671 0.0
C202 C 1.02304 0.55104 0.37 0.0
C203 C 0.04321 0.52663 0.55882 0.0
N204 N 1.01173 0.55239 0.53899 0.0
N205 N 0.04881 0.53406 0.40293 0.0
C206 C 0.87897 0.57309 0.49336 0.0
C207 C 0.86445 0.58131 0.37374 0.0
N208 N 0.89904 0.57475 0.43449 0.0
N209 N 0.88987 0.57985 0.36033 0.0
N210 N 0.85682 0.57687 0.45664 0.0
H211 H 0.90657 0.58053 0.60505 0.0
H212 H 0.8711 0.57963 0.62453 0.0
H213 H 0.87167 0.54475 0.60243 0.0
C214 C 0.88229 0.56952 0.58685 0.0
C215 C 1.02315 0.5612 0.27986 0.0
H216 H 1.01752 0.57969 0.27564 0.0
H217 H 0.04594 0.56944 0.25199 0.0
H218 H 1.00678 0.54141 0.24117 0.0
O219 O 0.96376 0.54122 0.32436 0.0
O220 O 0.9175 0.53181 0.335 0.0
C221 C 0.99104 0.61786 0.33751 0.0
O222 O 0.91659 0.53352 0.5446 0.0
O223 O 0.94981 0.52191 0.49987 0.0
Zn224 Zn 0.43972 0.98165 0.76164 0.0
O225 O 0.41879 0.99753 0.68549 0.0
C226 C 0.44346 0.94061 0.6306 0.0
Zn227 Zn 0.39812 0.93864 0.76806 0.0
C228 C 0.39305 0.98318 0.65187 0.0
O229 O 0.37683 0.95455 0.66806 0.0
C230 C 0.44975 0.94256 0.88113 0.0
O231 O 0.38174 0.95817 0.87386 0.0
O232 O 0.42731 0.99732 0.8615 0.0
N233 N 0.3589 0.89572 0.76953 0.0
C234 C 0.33721 0.87883 0.82733 0.0
C235 C 0.32538 0.85279 0.71285 0.0
N236 N 0.35132 0.87936 0.69863 0.0
N237 N 0.31587 0.85173 0.79317 0.0
C238 C 0.48857 0.04009 0.66452 0.0
C239 C 0.51355 0.07858 0.80163 0.0
N240 N 0.4715 1.02293 0.75365 0.0
N241 N 0.48544 0.04471 0.83161 0.0
N242 N 0.5161 0.07431 0.69533 0.0
H243 H 0.45743 0.0438 0.58388 0.0
H244 H 0.49037 0.04859 0.53151 0.0
H245 H 0.46022 1.01023 0.56441 0.0
C246 C 0.47328 0.03492 0.58047 0.0
C247 C 0.33793 0.88833 0.91773 0.0
H248 H 0.36177 0.90243 0.94006 0.0
H249 H 0.32679 0.90243 0.92171 0.0
H250 H 0.32558 0.86797 0.95954 0.0
O251 O 0.42129 0.92505 0.86602 0.0
O252 O 0.4639 0.96825 0.84336 0.0
C253 C 0.40209 0.98517 0.89761 0.0
O254 O 0.45674 0.9681 0.65652 0.0
O255 O 0.41779 0.92178 0.66425 0.0
Zn256 Zn 0.49239 0.39844 0.12042 0.0
O257 O 0.45247 0.38067 0.21384 0.0
C258 C 0.54126 0.44965 0.24583 0.0
Zn259 Zn 0.49418 0.44183 0.13899 0.0
C260 C 0.44804 0.40044 0.25293 0.0
O261 O 0.46628 0.42846 0.24026 0.0
C262 C 0.54062 0.44609 1.00531 0.0
O263 O 0.45438 0.41698 0.0647 0.0
O264 O 0.4576 0.37972 1.01101 0.0
N265 N 0.48478 0.47599 0.12559 0.0
C266 C 0.47151 0.47635 0.02984 0.0
C267 C 0.43877 0.48596 0.15396 0.0
N268 N 0.46645 0.48147 0.19586 0.0
N269 N 0.44342 0.48422 0.04683 0.0
C270 C 0.48839 0.33546 0.18003 0.0
C271 C 0.50195 0.32321 0.06566 0.0
N272 N 0.49411 0.35775 0.12227 0.0
N273 N 0.50251 0.34991 0.05153 0.0
N274 N 0.49328 0.31351 0.14594 0.0
H275 H 0.45269 0.33145 0.25931 0.0
H276 H 0.47349 0.31475 0.30488 0.0
H277 H 0.49015 0.35624 0.30013 0.0
C278 C 0.47564 0.33424 0.26649 0.0
C279 C 0.48027 0.46714 0.94774 0.0
H280 H 0.48127 0.44602 0.95102 0.0
H281 H 0.46499 0.46477 0.8946 0.0
H282 H 0.50422 0.48358 0.93342 0.0
O283 O 0.52693 0.4594 0.03502 0.0
O284 O 0.53093 0.4183 0.02788 0.0
C285 C 0.44367 0.39488 1.01374 0.0
O286 O 0.52881 0.42089 0.2264 0.0
O287 O 0.53018 0.46526 0.21491 0.0
Zn288 Zn 0.13328 0.49062 0.45045 0.0
O289 O 0.10963 0.45295 0.55628 0.0
C290 C 0.14016 0.53202 0.5945 0.0
Zn291 Zn 0.09526 0.49435 0.46167 0.0
C292 C 0.08075 0.44147 0.56324 0.0
O293 O 0.06908 0.45424 0.52185 0.0
C294 C 0.14432 0.54694 0.34873 0.0
O295 O 0.07312 0.47331 0.35126 0.0
O296 O 0.1021 0.45278 0.3492 0.0
N297 N 0.0662 0.50506 0.48951 0.0
C298 C 1.03061 0.48647 0.47086 0.0
C299 C 0.05194 0.56454 0.48963 0.0
N300 N 0.08339 0.53917 0.50823 0.0
N301 N 1.01086 0.5113 0.46884 0.0
C302 C 0.18575 0.47695 0.4992 0.0
C303 C 0.21112 0.48841 0.38445 0.0
N304 N 0.17 0.48311 0.44016 0.0
N305 N 0.18585 0.49007 0.36892 0.0
N306 N 0.21194 0.48054 0.4661 0.0
H307 H 0.15211 0.44318 0.58052 0.0
H308 H 0.18953 0.45986 0.62338 0.0
H309 H 0.16979 0.48169 0.62105 0.0
C310 C 0.17398 0.46499 0.58646 0.0
C311 C 1.01238 0.45206 0.47272 0.0
H312 H 1.02446 0.44162 0.44249 0.0
H313 H 1.00864 0.44463 0.54021 0.0
H314 H 0.9898 0.44334 0.44263 0.0
O315 O 0.12122 0.53904 0.39504 0.0
O316 O 0.15462 0.52836 0.34756 0.0
C317 C 0.07792 0.45275 0.32222 0.0
O318 O 0.15976 0.52974 0.54945 0.0
O319 O 0.11292 0.51408 0.57586 0.0
Zn320 Zn 0.62626 0.07681 0.78898 0.0
O321 O 0.63861 0.06064 0.69243 0.0
C322 C 0.62485 0.12795 0.67377 0.0
Zn323 Zn 0.66994 0.11892 0.78349 0.0
C324 C 0.66349 0.07068 0.65569 0.0
O325 O 0.68466 0.09786 0.67511 0.0
C326 C 0.62325 0.11626 0.92032 0.0
O327 O 0.68649 0.0947 0.87664 0.0
O328 O 0.64138 0.05487 0.86196 0.0
N329 N 0.71209 0.15897 0.78063 0.0
C330 C 0.73201 0.17903 0.83809 0.0
C331 C 0.749 0.19719 0.7151 0.0
N332 N 0.72295 0.17039 0.7045 0.0
N333 N 0.75534 0.20342 0.79838 0.0
C334 C 0.56831 1.02119 0.73024 0.0
C335 C 0.54431 1.00388 0.84614 0.0
N336 N 0.58761 0.03598 0.79382 0.0
N337 N 0.57345 1.02375 0.86608 0.0
N338 N 0.53987 1.00354 0.76126 0.0
H339 H 0.59467 0.05595 0.64208 0.0
H340 H 0.58784 1.0208 0.62505 0.0
H341 H 0.53385 1.02655 0.52226 0.0
C342 C 0.57455 0.03287 0.63683 0.0
C343 C 0.72776 0.17527 0.93232 0.0
H344 H 0.70425 0.15735 0.94819 0.0
H345 H 0.74352 0.16812 0.95899 0.0
H346 H 0.73325 0.19745 0.96197 0.0
O347 O 0.64989 0.13611 0.89269 0.0
O348 O 0.61151 0.08974 0.88963 0.0
C349 C 0.66805 0.06597 0.88936 0.0
O350 O 0.60924 0.10151 0.70747 0.0
O351 O 0.6534 0.14185 0.6883 0.0
Zn352 Zn 0.57744 0.66342 0.11335 0.0
O353 O 0.61172 0.67979 0.22096 0.0
C354 C 0.53024 0.61597 0.22491 0.0
Zn355 Zn 0.58081 0.62128 0.11219 0.0
C356 C 0.62123 0.66159 0.24424 0.0
O357 O 0.61001 0.63565 0.20995 0.0
C358 C 0.53696 0.61965 0.97141 0.0
O359 O 0.61636 0.63697 0.03512 0.0
O360 O 0.61569 0.67992 1.01881 0.0
N361 N 0.58162 0.58191 0.12549 0.0
C362 C 0.56673 0.56488 0.0591 0.0
C363 C 0.54492 0.53937 0.16834 0.0
N364 N 0.56939 0.5654 0.19452 0.0
N365 N 0.54124 0.53933 0.08299 0.0
C366 C 0.57785 0.7251 0.16358 0.0
C367 C 0.57751 0.74283 0.04068 0.0
N368 N 0.57835 0.70537 0.10609 0.0
N369 N 0.57826 0.71666 0.02996 0.0
N370 N 0.57717 0.74883 0.12401 0.0
H371 H 0.56918 0.69609 0.27361 0.0
H372 H 0.59993 0.73474 0.28465 0.0
H373 H 0.56147 0.72734 0.28765 0.0
C374 C 0.57678 0.72033 0.25783 0.0
C375 C 0.58331 0.56819 0.97872 0.0
H376 H 0.58087 0.58427 0.9356 0.0
H377 H 0.60798 0.57806 0.99152 0.0
H378 H 0.57435 0.54548 0.94942 0.0
O379 O 0.54937 0.60521 1.00266 0.0
O380 O 0.54367 0.64543 1.00497 0.0
C381 C 0.62758 0.66325 1.00239 0.0
O382 O 0.53867 0.64385 0.20616 0.0
O383 O 0.5447 0.60415 0.19285 0.0
C384 C 0.47344 0.2307 0.16687 0.0
C385 C 0.4892 0.23077 0.24094 0.0
C386 C 0.47437 0.25767 0.13748 0.0
C387 C 0.4906 0.28569 0.18168 0.0
H388 H 0.45982 0.20962 0.13213 0.0
H389 H 0.46219 0.25665 0.07971 0.0
S390 S 0.53718 0.29882 0.37586 0.0
N391 N 0.52241 0.26182 0.35612 0.0
N392 N 0.52426 0.31222 0.30021 0.0
C393 C 0.50662 0.28618 0.25524 0.0
C394 C 0.50576 0.2588 0.28514 0.0
C395 C 0.2797 0.46961 0.49589 0.0
C396 C 0.29282 0.48509 0.57274 0.0
C397 C 0.25262 0.46713 0.46371 0.0
C398 C 0.23761 0.48029 0.50616 0.0
H399 H 0.29107 0.4606 0.45785 0.0
H400 H 0.24377 0.45555 0.40358 0.0
S401 S 0.2638 0.52566 0.70557 0.0
N402 N 0.2887 0.51428 0.68947 0.0
N403 N 0.23947 0.51168 0.62555 0.0
C404 C 0.25071 0.49629 0.58216 0.0
C405 C 0.27784 0.49819 0.61604 0.0
C406 C 0.82572 0.2566 0.92509 0.0
C407 C 0.83463 0.28561 0.88905 0.0
C408 C 0.79953 0.22984 0.89679 0.0
C409 C 0.78099 0.23111 0.83196 0.0
H410 H 0.83937 0.2546 0.9751 0.0
H411 H 0.79422 0.208 0.92438 0.0
S412 S 0.79244 0.30165 0.72272 0.0
N413 N 0.82137 0.3141 0.78969 0.0
N414 N 0.77263 0.26403 0.73547 0.0
C415 C 0.78939 0.26005 0.79652 0.0
C416 C 0.81598 0.28723 0.8254 0.0
C417 C 0.59372 0.79198 0.22694 0.0
C418 C 0.57539 0.77467 0.15798 0.0
C419 C 0.59308 0.81804 0.25693 0.0
C420 C 0.5745 0.82811 0.21835 0.0
H421 H 0.60915 0.78582 0.2568 0.0
H422 H 0.60747 0.83066 0.31024 0.0
S423 S 0.52056 0.78972 0.04043 0.0
N424 N 0.53712 0.76894 0.05467 0.0
N425 N 0.53578 0.81745 0.11184 0.0
C426 C 0.55574 0.81076 0.15055 0.0
C427 C 0.55635 0.78431 0.11999 0.0
C428 C 0.79909 0.60122 0.50221 0.0
C429 C 0.77939 0.57882 0.56006 0.0
C430 C 0.82438 0.60044 0.4692 0.0
C431 C 0.83101 0.57737 0.49324 0.0
H432 H 0.79532 0.61984 0.48413 0.0
H433 H 0.83918 0.61829 0.42539 0.0
S434 S 0.78424 0.51159 0.63587 0.0
N435 N 0.76705 0.53208 0.63642 0.0
N436 N 0.81375 0.52991 0.57221 0.0
C437 C 0.81082 0.55432 0.549 0.0
C438 C 0.78529 0.5553 0.5831 0.0
C439 C 0.26704 0.83203 0.87009 0.0
C440 C 0.28847 0.82671 0.82905 0.0
C441 C 0.23917 0.80745 0.89865 0.0
C442 C 0.23157 0.77664 0.88666 0.0
H443 H 0.27158 0.85529 0.87852 0.0
H444 H 0.22327 0.81251 0.9299 0.0
S445 S 0.2816 0.75079 0.79166 0.0
N446 N 0.30106 0.78856 0.78246 0.0
N447 N 0.24945 0.74263 0.83867 0.0
C448 C 0.25328 0.77116 0.84798 0.0
C449 C 0.28146 0.79611 0.81837 0.0
C450 C 0.6128 0.14812 0.03293 0.0
C451 C 0.60314 0.1215 0.98243 0.0
C452 C 0.59294 0.15044 0.0931 0.0
C453 C 0.56226 0.12679 0.10254 0.0
H454 H 0.63611 0.16665 0.02872 0.0
H455 H 0.60201 0.17019 0.13476 0.0
S456 S 0.52536 0.05179 0.99251 0.0
N457 N 0.56013 0.06999 0.95481 0.0
N458 N 0.52342 0.07664 0.05574 0.0
C459 C 0.55205 0.10122 0.04926 0.0
C460 C 0.57222 0.09794 0.99282 0.0
C461 C 0.49349 0.56345 0.27279 0.0
C462 C 0.50356 0.595 0.2793 0.0
C463 C 0.47135 0.54151 0.32507 0.0
C464 C 0.45859 0.5497 0.39099 0.0
H465 H 0.5043 0.55542 0.23 0.0
H466 H 0.46606 0.51793 0.31833 0.0
S467 S 0.47626 0.6291 0.44027 0.0
N468 N 0.49778 0.63344 0.35693 0.0
N469 N 0.45698 0.59187 0.46124 0.0
C470 C 0.46732 0.58106 0.3986 0.0
C471 C 0.4897 0.60378 0.34197 0.0
C472 C 0.92835 0.44877 0.65924 0.0
C473 C 0.93441 0.45845 0.74451 0.0
C474 C 0.92283 0.46589 0.59714 0.0
C475 C 0.92227 0.49298 0.6177 0.0
H476 H 0.93003 0.42912 0.63912 0.0
H477 H 0.92096 0.45895 0.53121 0.0
S478 S 0.93325 0.52588 0.83417 0.0
N479 N 0.93715 0.49547 0.84752 0.0
N480 N 0.92606 0.52696 0.73195 0.0
C481 C 0.92605 0.50147 0.70398 0.0
C482 C 0.93235 0.48446 0.76681 0.0
C483 C 0.49216 0.93274 0.92139 0.0
C484 C 0.4667 0.93506 0.94577 0.0
C485 C 0.51301 0.93306 0.98203 0.0
C486 C 0.50943 0.93624 0.06941 0.0
H487 H 0.49688 0.93228 0.85454 0.0
H488 H 0.5331 0.93297 0.9599 0.0
S489 S 0.44727 0.94407 0.16638 0.0
N490 N 0.43925 0.94047 0.0636 0.0
N491 N 0.47851 0.94191 0.17678 0.0
C492 C 0.48368 0.93783 0.09451 0.0
C493 C 0.46229 0.93699 0.03306 0.0
C494 C 0.5869 0.49893 0.28732 0.0
C495 C 0.56905 0.46692 0.30056 0.0
C496 C 0.60853 0.51834 0.34687 0.0
C497 C 0.61397 0.50683 0.42221 0.0
H498 H 0.58276 0.50957 0.23273 0.0
H499 H 0.61929 0.54294 0.33708 0.0
S500 S 0.57858 0.42444 0.48025 0.0
N501 N 0.56181 0.42415 0.38944 0.0
N502 N 0.60327 0.46086 0.50108 0.0
C503 C 0.59908 0.47463 0.43201 0.0
C504 C 0.57646 0.45461 0.37125 0.0
C505 C 0.11776 0.57075 0.76239 0.0
C506 C 0.1424 0.60068 0.77437 0.0
C507 C 0.11912 0.54948 0.70903 0.0
C508 C 0.14506 0.5559 0.66142 0.0
H509 H 0.09645 0.56305 0.79512 0.0
H510 H 0.09847 0.52757 0.70317 0.0
S511 S 0.21623 0.63172 0.66221 0.0
N512 N 0.19427 0.63641 0.73058 0.0
N513 N 0.1964 0.59604 0.62663 0.0
C514 C 0.17025 0.58598 0.67062 0.0
C515 C 0.16897 0.60828 0.72724 0.0
C516 C 0.39924 0.99463 0.05245 0.0
C517 C 0.4 1.00396 0.96786 0.0
C518 C 0.41282 1.0164 0.11842 0.0
C519 C 0.42793 0.04854 0.10312 0.0
H520 H 0.3913 0.9707 0.06652 0.0
H521 H 0.4138 1.00792 0.18108 0.0
S522 S 0.4329 0.08474 0.89404 0.0
N523 N 0.41405 0.04752 0.87394 0.0
N524 N 0.4397 0.08803 0.99748 0.0
C525 C 0.42609 0.058 1.02045 0.0
C526 C 0.41208 0.03583 0.95326 0.0
C527 C 0.40597 0.41096 0.27825 0.0
C528 C 0.42006 0.39372 0.30073 0.0
C529 C 0.39129 0.41955 0.33887 0.0
C530 C 0.38948 0.41057 0.4242 0.0
H531 H 0.40965 0.42118 0.2157 0.0
H532 H 0.38554 0.43689 0.32133 0.0
S533 S 0.41136 0.35501 0.50715 0.0
N534 N 0.42406 0.3615 0.40848 0.0
N535 N 0.39408 0.37512 0.52053 0.0
C536 C 0.3976 0.38794 0.44231 0.0
C537 C 0.4137 0.38026 0.3814 0.0
C538 C 1.02835 0.3991 0.59769 0.0
C539 C 0.05933 0.41642 0.62275 0.0
C540 C 1.0044 0.38648 0.65725 0.0
C541 C 1.01019 0.38956 0.74515 0.0
H542 H 1.02232 0.39841 0.53119 0.0
H543 H 0.98138 0.37767 0.6342 0.0
S544 S 0.08688 0.42446 0.84487 0.0
N545 N 0.09414 0.43043 0.74206 0.0
N546 N 0.04947 0.40548 0.85366 0.0
C547 C 0.04102 0.4024 0.77053 0.0
C548 C 0.06548 0.41606 0.70976 0.0
C549 C 0.67415 0.03127 0.09216 0.0
C550 C 0.65036 1.00073 0.07876 0.0
C551 C 0.68628 0.0526 1.02447 0.0
C552 C 0.6735 0.04433 0.94267 0.0
H553 H 0.68067 0.03976 0.15653 0.0
H554 H 0.70192 0.07646 0.03922 0.0
S555 S 0.61969 0.96495 0.8697 0.0
N556 N 0.62156 0.96162 0.9738 0.0
N557 N 0.64363 1.00137 0.84756 0.0
C558 C 0.65479 1.01252 0.92634 0.0
C559 C 0.64291 0.99082 0.9946 0.0
C560 C 0.64549 0.65789 0.46438 0.0
C561 C 0.66254 0.64306 0.44997 0.0
C562 C 0.63601 0.66969 0.39698 0.0
C563 C 0.64362 0.6674 0.31295 0.0
H564 H 0.63637 0.65717 0.52702 0.0
H565 H 0.6195 0.67677 0.4097 0.0
S566 S 0.69433 0.63829 0.24394 0.0
N567 N 0.69135 0.63235 0.34766 0.0
N568 N 0.6745 0.65528 0.22128 0.0
C569 C 0.66477 0.65733 0.29992 0.0
C570 C 0.67402 0.64491 0.36835 0.0
C571 C 0.0565 0.64675 0.69728 0.0
C572 C 0.04792 0.63844 0.78237 0.0
C573 C 1.03449 0.64015 0.63286 0.0
C574 C 1.00289 0.62519 0.65022 0.0
H575 H 0.08001 0.65602 0.67912 0.0
H576 H 0.04208 0.64404 0.56739 0.0
S577 S 0.9694 0.60523 0.86558 0.0
N578 N 1.00611 0.61916 0.88249 0.0
N579 N 0.96516 0.60676 0.76166 0.0
C580 C 0.99449 0.61976 0.73615 0.0
C581 C 1.01684 0.62628 0.80183 0.0
C582 C 0.57254 0.07982 0.34734 0.0
C583 C 0.56545 0.05363 0.2895 0.0
C584 C 0.60386 0.10832 0.31929 0.0
C585 C 0.63123 0.11826 0.25226 0.0
H586 H 0.55951 0.07941 0.40029 0.0
H587 H 0.60897 0.12682 0.3609 0.0
S588 S 0.65487 0.09101 0.0586 0.0
N589 N 0.62468 0.05811 0.08965 0.0
N590 N 0.66304 0.1188 0.1287 0.0
C591 C 0.64085 0.10293 0.18526 0.0
C592 C 0.62103 0.06879 0.16482 0.0
C593 C 0.54801 0.47446 0.54754 0.0
C594 C 0.52841 0.44409 0.56752 0.0
C595 C 0.52637 0.48485 0.55546 0.0
C596 C 0.52818 0.49361 0.64316 0.0
H597 H 0.57042 0.48678 0.57696 0.0
H598 H 0.46957 0.44163 0.47127 0.0
S599 S 0.51246 0.4323 0.80046 0.0
N600 N 0.51769 0.41886 0.70965 0.0
N601 N 0.52057 0.46824 0.78391 0.0
C602 C 0.52779 0.47083 0.70062 0.0
C603 C 0.52726 0.44411 0.66037 0.0
C604 C 0.13256 0.52594 0.9081 0.0
C605 C 0.11349 0.49616 0.93851 0.0
C606 C 0.13024 0.54901 0.9515 0.0
C607 C 0.1155 0.54198 0.03194 0.0
H608 H 0.1402 0.52968 0.8429 0.0
H609 H 0.13763 0.57068 0.92082 0.0
S610 S 0.12131 0.48526 0.16652 0.0
N611 N 0.12109 0.47374 0.06788 0.0
N612 N 0.11619 0.51529 0.16144 0.0
C613 C 0.11608 0.51814 0.07592 0.0
C614 C 0.11802 0.49562 0.02634 0.0
C615 C 0.99025 0.48679 0.33823 0.0
C616 C 0.98273 0.49386 0.42194 0.0
C617 C 1.02068 0.49608 0.29999 0.0
C618 C 0.05161 0.51918 0.32776 0.0
H619 H 0.97085 0.47132 0.30008 0.0
H620 H 1.0194 0.48408 0.24216 0.0
S621 S 0.06801 0.57225 0.6249 0.0
N622 N 1.00673 0.52055 0.6194 0.0
N623 N 0.09443 0.57889 0.45753 0.0
C624 C 0.05691 0.53678 0.39974 0.0
C625 C 1.00466 0.51113 0.48113 0.0
C626 C 0.54976 0.06342 0.74708 0.0
C627 C 0.54472 0.07537 0.67513 0.0
C628 C 0.51975 0.03869 0.76508 0.0
C629 C 0.51847 1.01122 0.72655 0.0
H630 H 0.5631 0.07927 0.79692 0.0
H631 H 0.47747 0.06169 0.73854 0.0
S632 S 0.56896 1.02239 0.48795 0.0
N633 N 0.57046 0.06286 0.53622 0.0
N634 N 0.53366 0.99407 0.57739 0.0
C635 C 0.52296 1.01453 0.6377 0.0
C636 C 0.5451 0.05558 0.61212 0.0
C637 C 0.48526 0.51959 0.10458 0.0
C638 C 0.51229 0.53375 0.05129 0.0
C639 C 0.46885 0.53475 0.07602 0.0
C640 C 0.4528 0.51436 1.01042 0.0
H641 H 0.44325 0.45361 0.11391 0.0
H642 H 0.48009 0.55957 0.06759 0.0
S643 S 0.49875 0.5234 0.82069 0.0
N644 N 0.52382 0.53847 0.89851 0.0
N645 N 0.46501 0.51363 0.86056 0.0
C646 C 0.47348 0.52382 0.94094 0.0
C647 C 0.50542 0.53552 0.96282 0.0
C648 C 0.39729 0.03188 0.60115 0.0
C649 C 0.38735 1.00053 0.58428 0.0
C650 C 0.41241 0.05496 0.53895 0.0
C651 C 0.41741 0.04724 0.45735 0.0
H652 H 0.39791 0.03916 0.66626 0.0
H653 H 0.42384 0.07879 0.55852 0.0
S654 S 0.3873 0.96824 0.37361 0.0
N655 N 0.37754 0.96302 0.47489 0.0
N656 N 0.40426 1.00566 0.35737 0.0
C657 C 0.40225 1.01569 0.43589 0.0
C658 C 0.38746 0.99241 0.4994 0.0
C659 C 0.41016 0.41543 0.95978 0.0
C660 C 0.42204 0.39546 0.94705 0.0
C661 C 0.40332 0.42936 0.89122 0.0
C662 C 0.40451 0.42118 0.80678 0.0
H663 H 0.40912 0.42292 1.02308 0.0
H664 H 0.39947 0.44825 0.90436 0.0
S665 S 0.4097 0.35233 0.74742 0.0
N666 N 0.42157 0.35879 0.84726 0.0
N667 N 0.40057 0.37871 0.7227 0.0
C668 C 0.40738 0.39468 0.79645 0.0
C669 C 0.41777 0.38299 0.86526 0.0
C670 C 1.00212 0.41108 0.19983 0.0
C671 C 1.00704 0.3961 0.13214 0.0
C672 C 1.02478 0.42764 0.26093 0.0
C673 C 0.05363 0.42963 0.26142 0.0
H674 H 0.98192 0.41318 0.20031 0.0
H675 H 1.01987 0.4407 0.30525 0.0
S676 S 0.07608 0.38922 0.10655 0.0
N677 N 0.04177 0.3809 0.07424 0.0
N678 N 0.08354 0.41042 0.19312 0.0
C679 C 0.05754 0.41156 0.19986 0.0
C680 C 1.03445 0.39508 0.13514 0.0
C681 C 0.64285 1.01646 0.60986 0.0
C682 C 0.66448 0.04794 0.59569 0.0
C683 C 0.63254 0.99462 0.54437 0.0
C684 C 0.6444 1.00278 0.46237 0.0
H685 H 0.63103 1.00912 0.67002 0.0
H686 H 0.61275 0.9723 0.55582 0.0
S687 S 0.71114 0.07761 0.40149 0.0
N688 N 0.70336 0.08351 0.49926 0.0
N689 N 0.68634 0.04139 0.37851 0.0
C690 C 0.67041 0.03224 0.45214 0.0
C691 C 0.68 0.05514 0.51812 0.0
C692 C 0.64144 0.67023 0.85117 0.0
C693 C 0.65031 0.66981 0.93551 0.0
C694 C 0.64938 0.65642 0.78652 0.0
C695 C 0.66663 0.64205 0.80409 0.0
H696 H 0.62462 0.67687 0.83718 0.0
H697 H 0.63897 0.65381 0.72443 0.0
S698 S 0.70228 0.64265 1.00975 0.0
N699 N 0.68292 0.66029 0.0292 0.0
N700 N 0.69737 0.63397 0.90755 0.0
C701 C 0.67973 0.64607 0.8847 0.0
C702 C 0.67184 0.66034 0.95043 0.0
C703 C 1.02785 0.65061 0.12697 0.0
C704 C 0.05887 0.66178 0.14725 0.0
C705 C 1.00524 0.64043 0.19033 0.0
C706 C 1.01292 0.64152 0.27666 0.0
H707 H 1.02044 0.64574 0.06124 0.0
H708 H 0.9816 0.62821 0.1709 0.0
S709 S 0.09135 0.67559 0.36435 0.0
N710 N 0.09619 0.67799 0.26027 0.0
N711 N 0.05449 0.66074 0.37937 0.0
C712 C 0.04431 0.65729 0.29774 0.0
C713 C 0.06714 0.66699 0.23316 0.0
C714 C 0.55823 0.13463 0.58518 0.0
C715 C 0.56495 0.1406 0.4982 0.0
C716 C 0.58054 0.13725 0.6452 0.0
C717 C 0.60873 0.14099 0.61914 0.0
H718 H 0.53523 0.12646 0.60649 0.0
H719 H 0.57424 0.13253 0.71153 0.0
S720 S 0.64472 0.18355 0.42091 0.0
N721 N 0.60816 0.17188 0.40659 0.0
N722 N 0.64745 0.16884 0.51275 0.0
C723 C 0.618 0.15431 0.53776 0.0
C724 C 0.59635 0.15534 0.47882 0.0
C725 C 0.46608 0.57214 0.8297 0.0
C726 C 0.47873 0.56821 0.75384 0.0
C727 C 0.48471 0.5908 0.89807 0.0
C728 C 0.51678 0.60683 0.89328 0.0
H729 H 0.44185 0.55828 0.84015 0.0
H730 H 0.47392 0.59082 0.95717 0.0
S731 S 0.56068 0.61428 0.69884 0.0
N732 N 0.52521 0.58963 0.67129 0.0
N733 N 0.55956 0.62328 0.79901 0.0
C734 C 0.52926 0.60647 0.81405 0.0
C735 C 0.51045 0.58787 0.74447 0.0
C736 C 0.95654 0.49749 0.09911 0.0
C737 C 0.94223 0.46543 0.11098 0.0
C738 C 0.95116 0.5166 0.15352 0.0
C739 C 0.93155 0.50506 0.22436 0.0
H740 H 0.97275 0.50817 0.04806 0.0
H741 H 0.96432 0.54119 0.14342 0.0
S742 S 0.88853 0.42275 0.28578 0.0
N743 N 0.90655 0.42283 0.19852 0.0
N744 N 0.89786 0.45883 0.30295 0.0
C745 C 0.91632 0.47288 0.23567 0.0
C746 C 0.92128 0.45316 0.17875 0.0
C747 C 0.47664 0.93424 0.41782 0.0
C748 C 0.50383 0.935 0.44238 0.0
C749 C 0.45543 0.93315 0.47835 0.0
C750 C 0.45978 0.9316 0.56654 0.0
H751 H 0.47291 0.93702 0.3514 0.0
H752 H 0.4366 0.93569 0.45605 0.0
S753 S 0.5239 0.92657 0.66425 0.0
N754 N 0.53123 0.9293 0.56128 0.0
N755 N 0.49161 0.92672 0.67389 0.0
C756 C 0.48503 0.92869 0.59107 0.0
C757 C 0.50674 0.93009 0.52943 0.0
C758 C 0.60771 0.51523 0.89724 0.0
C759 C 0.6138 0.50303 0.82447 0.0
C760 C 0.58531 0.49639 0.9569 0.0
C761 C 0.56818 0.46417 0.94851 0.0
H762 H 0.61888 0.53989 0.90504 0.0
H763 H 0.58072 0.50729 1.00938 0.0
S764 S 0.58114 0.41986 0.78194 0.0
N765 N 0.60384 0.45605 0.75423 0.0
N766 N 0.5644 0.42062 0.87103 0.0
C767 C 0.57712 0.45135 0.8826 0.0
C768 C 0.59896 0.47072 0.81914 0.0
C769 C 0.165 0.57831 0.20881 0.0
C770 C 0.1565 0.57644 0.29515 0.0
C771 C 0.16626 0.60145 0.15301 0.0
C772 C 0.15985 0.62435 0.18124 0.0
H773 H 0.1689 0.56077 0.18254 0.0
H774 H 0.1699 0.59986 0.08592 0.0
S775 S 0.15333 0.63958 0.40809 0.0
N776 N 0.15424 0.60718 0.41037 0.0
N777 N 0.15456 0.64882 0.30671 0.0
C778 C 0.15654 0.62557 0.26964 0.0
C779 C 0.15565 0.60237 0.32612 0.0
loop_
_geom_bond_atom_site_label_1
_geom_bond_atom_site_label_2
_geom_bond_distance
_geom_bond_site_symmetry_2
_ccdc_geom_bond_type
Zn0 O1 2.055 . S
Zn0 O8 2.046 . S
Zn0 N16 2.036 . S
Zn0 O28 2.053 . S
Zn0 O30 2.066 . S
O1 Zn0 2.055 . S
O1 C4 1.259 . S
C2 O30 1.256 . S
C2 O31 1.244 . S
Zn3 O5 2.046 . S
Zn3 O7 2.055 . S
Zn3 N9 2.036 . S
Zn3 O27 2.066 . S
Zn3 O31 2.053 . S
C4 O1 1.259 . S
C4 O5 1.254 . S
O5 Zn3 2.046 . S
O5 C4 1.254 . S
C6 O27 1.256 . S
C6 O28 1.244 . S
O7 Zn3 2.055 . S
O7 C29 1.259 . S
O8 Zn0 2.046 . S
O8 C29 1.254 . S
N9 Zn3 2.036 . S
N9 C10 1.298 . S
N9 N12 1.398 . S
C10 N9 1.298 . S
C10 N13 1.367 . S
C10 C23 1.481 . S
C11 N12 1.299 . S
C11 N13 1.379 . S
N12 N9 1.398 . S
N12 C11 1.299 . S
N13 C10 1.367 . S
N13 C11 1.379 . S
C14 N16 1.298 . S
C14 N18 1.367 1_545 S
C14 C22 1.477 . S
C15 N17 1.315 . S
C15 N18 1.376 1_545 S
N16 Zn0 2.036 . S
N16 C14 1.298 . S
N16 N17 1.398 . S
N17 C15 1.315 . S
N17 N16 1.398 . S
N18 C14 1.367 1_565 S
N18 C15 1.376 1_565 S
H19 C22 1.009 . S
H20 C22 0.947 1_565 S
H21 C22 0.992 . S
C22 C14 1.477 . S
C22 H19 1.009 . S
C22 H20 0.947 1_545 S
C22 H21 0.992 . S
C23 C10 1.481 . S
C23 H24 0.980 . S
C23 H25 0.981 . S
C23 H26 0.981 . S
H24 C23 0.980 . S
H25 C23 0.981 . S
H26 C23 0.981 . S
O27 Zn3 2.066 . S
O27 C6 1.256 . S
O28 Zn0 2.053 . S
O28 C6 1.244 . S
C29 O7 1.259 . S
C29 O8 1.254 . S
O30 Zn0 2.066 . S
O30 C2 1.256 . S
O31 C2 1.244 . S
O31 Zn3 2.053 . S
Zn32 O33 2.055 . S
Zn32 O40 2.046 . S
Zn32 N48 2.036 . S
Zn32 O60 2.053 . S
Zn32 O62 2.066 . S
O33 Zn32 2.055 . S
O33 C36 1.259 . S
C34 O62 1.256 . S
C34 O63 1.244 . S
Zn35 O37 2.046 . S
Zn35 O39 2.055 . S
Zn35 N41 2.036 . S
Zn35 O59 2.066 . S
Zn35 O63 2.053 . S
C36 O33 1.259 . S
C36 O37 1.254 . S
O37 Zn35 2.046 . S
O37 C36 1.254 . S
C38 O59 1.256 . S
C38 O60 1.244 . S
O39 Zn35 2.055 . S
O39 C61 1.259 . S
O40 Zn32 2.046 . S
O40 C61 1.254 . S
N41 Zn35 2.036 . S
N41 C42 1.298 . S
N41 N44 1.398 . S
C42 N41 1.298 . S
C42 N45 1.367 . S
C42 C55 1.481 . S
C43 N44 1.299 . S
C43 N45 1.379 . S
N44 N41 1.398 . S
N44 C43 1.299 . S
N45 C42 1.367 . S
N45 C43 1.379 . S
C46 N48 1.298 . S
C46 N50 1.367 . S
C46 C54 1.481 . S
C47 N49 1.299 . S
C47 N50 1.379 . S
N48 Zn32 2.036 . S
N48 C46 1.298 . S
N48 N49 1.398 . S
N49 C47 1.299 . S
N49 N48 1.398 . S
N50 C46 1.367 . S
N50 C47 1.379 . S
H51 C54 0.980 . S
H52 C54 0.981 . S
H53 C54 0.981 . S
C54 C46 1.481 . S
C54 H51 0.980 . S
C54 H52 0.981 . S
C54 H53 0.981 . S
C55 C42 1.481 . S
C55 H56 0.980 . S
C55 H57 0.981 . S
C55 H58 0.981 . S
H56 C55 0.980 . S
H57 C55 0.981 . S
H58 C55 0.981 . S
O59 Zn35 2.066 . S
O59 C38 1.256 . S
O60 Zn32 2.053 . S
O60 C38 1.244 . S
C61 O39 1.259 . S
C61 O40 1.254 . S
O62 Zn32 2.066 . S
O62 C34 1.256 . S
O63 C34 1.244 . S
O63 Zn35 2.053 . S
Zn64 O65 2.055 . S
Zn64 O72 2.046 1_556 S
Zn64 N80 2.036 . S
Zn64 O92 2.053 1_556 S
Zn64 O94 2.066 . S
O65 Zn64 2.055 . S
O65 C68 1.259 . S
C66 O94 1.256 . S
C66 O95 1.244 . S
Zn67 O69 2.046 . S
Zn67 O71 2.055 1_556 S
Zn67 N73 2.036 . S
Zn67 O91 2.066 1_556 S
Zn67 O95 2.053 . S
C68 O65 1.259 . S
C68 O69 1.254 . S
O69 Zn67 2.046 . S
O69 C68 1.254 . S
C70 O91 1.256 . S
C70 O92 1.244 . S
O71 Zn67 2.055 1_554 S
O71 C93 1.259 . S
O72 Zn64 2.046 1_554 S
O72 C93 1.254 . S
N73 Zn67 2.036 . S
N73 C74 1.298 . S
N73 N76 1.398 . S
C74 N73 1.298 . S
C74 N77 1.367 1_655 S
C74 C87 1.493 1_556 S
C75 N76 1.302 . S
C75 N77 1.373 1_655 S
N76 N73 1.398 . S
N76 C75 1.302 . S
N77 C74 1.367 1_455 S
N77 C75 1.373 1_455 S
C78 N80 1.298 . S
C78 N82 1.367 . S
C78 C86 1.481 . S
C79 N81 1.299 1_556 S
C79 N82 1.379 . S
N80 Zn64 2.036 . S
N80 C78 1.298 . S
N80 N81 1.398 1_556 S
N81 C79 1.299 1_554 S
N81 N80 1.398 1_554 S
N82 C78 1.367 . S
N82 C79 1.379 . S
H83 C86 0.980 . S
H84 C86 0.981 . S
H85 C86 0.981 . S
C86 C78 1.481 . S
C86 H83 0.980 . S
C86 H84 0.981 . S
C86 H85 0.981 . S
C87 C74 1.493 1_554 S
C87 H88 0.971 . S
C87 H89 0.949 1_655 S
C87 H90 1.011 . S
H88 C87 0.971 . S
H89 C87 0.949 1_455 S
H90 C87 1.011 . S
O91 Zn67 2.066 1_554 S
O91 C70 1.256 . S
O92 Zn64 2.053 1_554 S
O92 C70 1.244 . S
C93 O71 1.259 . S
C93 O72 1.254 . S
O94 Zn64 2.066 . S
O94 C66 1.256 . S
O95 C66 1.244 . S
O95 Zn67 2.053 . S
Zn96 O97 2.055 . S
Zn96 O104 2.046 . S
Zn96 N112 2.036 . S
Zn96 O124 2.053 . S
Zn96 O126 2.066 . S
O97 Zn96 2.055 . S
O97 C100 1.259 . S
C98 O126 1.256 . S
C98 O127 1.244 . S
Zn99 O101 2.046 . S
Zn99 O103 2.055 . S
Zn99 N105 2.036 . S
Zn99 O123 2.066 . S
Zn99 O127 2.053 . S
C100 O97 1.259 . S
C100 O101 1.254 . S
O101 Zn99 2.046 . S
O101 C100 1.254 . S
C102 O123 1.256 . S
C102 O124 1.244 . S
O103 Zn99 2.055 . S
O103 C125 1.259 . S
O104 Zn96 2.046 . S
O104 C125 1.254 . S
N105 Zn99 2.036 . S
N105 C106 1.298 . S
N105 N108 1.398 . S
C106 N105 1.298 . S
C106 N109 1.367 1_565 S
C106 C119 1.477 . S
C107 N108 1.315 . S
C107 N109 1.376 1_565 S
N108 N105 1.398 . S
N108 C107 1.315 . S
N109 C106 1.367 1_545 S
N109 C107 1.376 1_545 S
C110 N112 1.298 . S
C110 N114 1.367 . S
C110 C118 1.481 . S
C111 N113 1.299 . S
C111 N114 1.379 . S
N112 Zn96 2.036 . S
N112 C110 1.298 . S
N112 N113 1.398 . S
N113 C111 1.299 . S
N113 N112 1.398 . S
N114 C110 1.367 . S
N114 C111 1.379 . S
H115 C118 0.980 . S
H116 C118 0.981 . S
H117 C118 0.981 . S
C118 C110 1.481 . S
C118 H115 0.980 . S
C118 H116 0.981 . S
C118 H117 0.981 . S
C119 C106 1.477 . S
C119 H120 1.009 . S
C119 H121 0.947 1_565 S
C119 H122 0.992 . S
H120 C119 1.009 . S
H121 C119 0.947 1_545 S
H122 C119 0.992 . S
O123 Zn99 2.066 . S
O123 C102 1.256 . S
O124 Zn96 2.053 . S
O124 C102 1.244 . S
C125 O103 1.259 . S
C125 O104 1.254 . S
O126 Zn96 2.066 . S
O126 C98 1.256 . S
O127 C98 1.244 . S
O127 Zn99 2.053 . S
Zn128 O129 2.055 . S
Zn128 O136 2.046 . S
Zn128 N144 2.036 . S
Zn128 O156 2.053 . S
Zn128 O158 2.066 . S
O129 Zn128 2.055 . S
O129 C132 1.259 . S
C130 O158 1.256 . S
C130 O159 1.244 . S
Zn131 O133 2.046 . S
Zn131 O135 2.055 . S
Zn131 N137 2.036 . S
Zn131 O155 2.066 . S
Zn131 O159 2.053 . S
C132 O129 1.259 . S
C132 O133 1.254 . S
O133 Zn131 2.046 . S
O133 C132 1.254 . S
C134 O155 1.256 . S
C134 O156 1.244 . S
O135 Zn131 2.055 . S
O135 C157 1.259 . S
O136 Zn128 2.046 . S
O136 C157 1.254 . S
N137 Zn131 2.036 . S
N137 C138 1.298 . S
N137 N140 1.398 . S
C138 N137 1.298 . S
C138 N141 1.367 . S
C138 C151 1.481 . S
C139 N140 1.299 . S
C139 N141 1.379 . S
N140 N137 1.398 . S
N140 C139 1.299 . S
N141 C138 1.367 . S
N141 C139 1.379 . S
C142 N144 1.298 . S
C142 N146 1.367 . S
C142 C150 1.481 . S
C143 N145 1.299 . S
C143 N146 1.379 . S
N144 Zn128 2.036 . S
N144 C142 1.298 . S
N144 N145 1.398 . S
N145 C143 1.299 . S
N145 N144 1.398 . S
N146 C142 1.367 . S
N146 C143 1.379 . S
H147 C150 0.980 . S
H148 C150 0.981 . S
H149 C150 0.981 . S
C150 C142 1.481 . S
C150 H147 0.980 . S
C150 H148 0.981 . S
C150 H149 0.981 . S
C151 C138 1.481 . S
C151 H152 0.980 . S
C151 H153 0.981 . S
C151 H154 0.981 . S
H152 C151 0.980 . S
H153 C151 0.981 . S
H154 C151 0.981 . S
O155 Zn131 2.066 . S
O155 C134 1.256 . S
O156 Zn128 2.053 . S
O156 C134 1.244 . S
C157 O135 1.259 . S
C157 O136 1.254 . S
O158 Zn128 2.066 . S
O158 C130 1.256 . S
O159 C130 1.244 . S
O159 Zn131 2.053 . S
Zn160 O161 2.055 1_556 S
Zn160 O168 2.046 . S
Zn160 N176 2.036 . S
Zn160 O188 2.053 . S
Zn160 O190 2.066 1_556 S
O161 Zn160 2.055 1_554 S
O161 C164 1.259 . S
C162 O190 1.256 . S
C162 O191 1.244 . S
Zn163 O165 2.046 1_556 S
Zn163 O167 2.055 . S
Zn163 N169 2.036 . S
Zn163 O187 2.066 . S
Zn163 O191 2.053 1_556 S
C164 O161 1.259 . S
C164 O165 1.254 . S
O165 Zn163 2.046 1_554 S
O165 C164 1.254 . S
C166 O187 1.256 . S
C166 O188 1.244 . S
O167 Zn163 2.055 . S
O167 C189 1.259 . S
O168 Zn160 2.046 . S
O168 C189 1.254 . S
N169 Zn163 2.036 . S
N169 C170 1.298 . S
N169 N172 1.398 1_556 S
C170 N169 1.298 . S
C170 N173 1.367 . S
C170 C183 1.481 . S
C171 N172 1.299 1_556 S
C171 N173 1.379 . S
N172 N169 1.398 1_554 S
N172 C171 1.299 1_554 S
N173 C170 1.367 . S
N173 C171 1.379 . S
C174 N176 1.298 . S
C174 N178 1.367 1_455 S
C174 C182 1.493 1_556 S
C175 N177 1.302 . S
C175 N178 1.373 1_455 S
N176 Zn160 2.036 . S
N176 C174 1.298 . S
N176 N177 1.398 . S
N177 C175 1.302 . S
N177 N176 1.398 . S
N178 C174 1.367 1_655 S
N178 C175 1.373 1_655 S
H179 C182 0.971 . S
H180 C182 0.950 1_655 S
H181 C182 1.011 . S
C182 C174 1.493 1_554 S
C182 H179 0.971 . S
C182 H180 0.950 1_455 S
C182 H181 1.011 . S
C183 C170 1.481 . S
C183 H184 0.980 . S
C183 H185 0.981 . S
C183 H186 0.981 . S
H184 C183 0.980 . S
H185 C183 0.981 . S
H186 C183 0.981 . S
O187 Zn163 2.066 . S
O187 C166 1.256 . S
O188 Zn160 2.053 . S
O188 C166 1.244 . S
C189 O167 1.259 . S
C189 O168 1.254 . S
O190 Zn160 2.066 1_554 S
O190 C162 1.256 . S
O191 C162 1.244 . S
O191 Zn163 2.053 1_554 S
Zn192 O193 2.055 . S
Zn192 O200 2.046 . S
Zn192 N208 2.036 . S
Zn192 O220 2.053 . S
Zn192 O222 2.066 . S
O193 Zn192 2.055 . S
O193 C196 1.259 . S
C194 O222 1.256 . S
C194 O223 1.244 . S
Zn195 O197 2.046 . S
Zn195 O199 2.055 . S
Zn195 N201 2.036 . S
Zn195 O219 2.066 . S
Zn195 O223 2.053 . S
C196 O193 1.259 . S
C196 O197 1.254 . S
O197 Zn195 2.046 . S
O197 C196 1.254 . S
C198 O219 1.256 . S
C198 O220 1.244 . S
O199 Zn195 2.055 . S
O199 C221 1.259 . S
O200 Zn192 2.046 . S
O200 C221 1.254 . S
N201 Zn195 2.036 . S
N201 C202 1.298 . S
N201 N204 1.398 . S
C202 N201 1.298 . S
C202 N205 1.367 1_655 S
C202 C215 1.477 . S
C203 N204 1.315 . S
C203 N205 1.376 1_655 S
N204 N201 1.398 . S
N204 C203 1.315 . S
N205 C202 1.367 1_455 S
N205 C203 1.376 1_455 S
C206 N208 1.298 . S
C206 N210 1.367 . S
C206 C214 1.481 . S
C207 N209 1.299 . S
C207 N210 1.379 . S
N208 Zn192 2.036 . S
N208 C206 1.298 . S
N208 N209 1.398 . S
N209 C207 1.299 . S
N209 N208 1.398 . S
N210 C206 1.367 . S
N210 C207 1.379 . S
H211 C214 0.980 . S
H212 C214 0.981 . S
H213 C214 0.981 . S
C214 C206 1.481 . S
C214 H211 0.980 . S
C214 H212 0.981 . S
C214 H213 0.981 . S
C215 C202 1.477 . S
C215 H216 1.009 . S
C215 H217 0.947 1_655 S
C215 H218 0.992 . S
H216 C215 1.009 . S
H217 C215 0.947 1_455 S
H218 C215 0.992 . S
O219 Zn195 2.066 . S
O219 C198 1.256 . S
O220 Zn192 2.053 . S
O220 C198 1.244 . S
C221 O199 1.259 . S
C221 O200 1.254 . S
O222 Zn192 2.066 . S
O222 C194 1.256 . S
O223 C194 1.244 . S
O223 Zn195 2.053 . S
Zn224 O225 2.055 . S
Zn224 O232 2.046 . S
Zn224 N240 2.036 . S
Zn224 O252 2.053 . S
Zn224 O254 2.066 . S
O225 Zn224 2.055 . S
O225 C228 1.259 . S
C226 O254 1.256 . S
C226 O255 1.244 . S
Zn227 O229 2.046 . S
Zn227 O231 2.055 . S
Zn227 N233 2.036 . S
Zn227 O251 2.066 . S
Zn227 O255 2.053 . S
C228 O225 1.259 . S
C228 O229 1.254 . S
O229 Zn227 2.046 . S
O229 C228 1.254 . S
C230 O251 1.256 . S
C230 O252 1.244 . S
O231 Zn227 2.055 . S
O231 C253 1.259 . S
O232 Zn224 2.046 . S
O232 C253 1.254 . S
N233 Zn227 2.036 . S
N233 C234 1.298 . S
N233 N236 1.398 . S
C234 N233 1.298 . S
C234 N237 1.367 . S
C234 C247 1.481 . S
C235 N236 1.299 . S
C235 N237 1.379 . S
N236 N233 1.398 . S
N236 C235 1.299 . S
N237 C234 1.367 . S
N237 C235 1.379 . S
C238 N240 1.298 . S
C238 N242 1.367 1_565 S
C238 C246 1.493 . S
C239 N241 1.302 . S
C239 N242 1.373 1_565 S
N240 Zn224 2.036 . S
N240 C238 1.298 . S
N240 N241 1.398 . S
N241 C239 1.302 . S
N241 N240 1.398 . S
N242 C238 1.367 1_545 S
N242 C239 1.373 1_545 S
H243 C246 0.971 . S
H244 C246 0.949 1_545 S
H245 C246 1.011 . S
C246 C238 1.493 . S
C246 H243 0.971 . S
C246 H244 0.949 1_565 S
C246 H245 1.011 . S
C247 C234 1.481 . S
C247 H248 0.980 . S
C247 H249 0.981 . S
C247 H250 0.981 . S
H248 C247 0.980 . S
H249 C247 0.981 . S
H250 C247 0.981 . S
O251 Zn227 2.066 . S
O251 C230 1.256 . S
O252 Zn224 2.053 . S
O252 C230 1.244 . S
C253 O231 1.259 . S
C253 O232 1.254 . S
O254 Zn224 2.066 . S
O254 C226 1.256 . S
O255 C226 1.244 . S
O255 Zn227 2.053 . S
Zn256 O257 2.055 . S
Zn256 O264 2.046 1_554 S
Zn256 N272 2.036 . S
Zn256 O284 2.053 1_554 S
Zn256 O286 2.066 . S
O257 Zn256 2.055 . S
O257 C260 1.259 . S
C258 O286 1.256 . S
C258 O287 1.244 . S
Zn259 O261 2.046 . S
Zn259 O263 2.055 1_554 S
Zn259 N265 2.036 . S
Zn259 O283 2.066 1_554 S
Zn259 O287 2.053 . S
C260 O257 1.259 . S
C260 O261 1.254 . S
O261 Zn259 2.046 . S
O261 C260 1.254 . S
C262 O283 1.256 . S
C262 O284 1.244 . S
O263 Zn259 2.055 1_556 S
O263 C285 1.259 . S
O264 Zn256 2.046 1_556 S
O264 C285 1.254 . S
N265 Zn259 2.036 . S
N265 C266 1.298 . S
N265 N268 1.398 . S
C266 N265 1.298 . S
C266 N269 1.367 . S
C266 C279 1.481 1_554 S
C267 N268 1.299 . S
C267 N269 1.379 . S
N268 N265 1.398 . S
N268 C267 1.299 . S
N269 C266 1.367 . S
N269 C267 1.379 . S
C270 N272 1.298 . S
C270 N274 1.367 . S
C270 C278 1.481 . S
C271 N273 1.299 1_554 S
C271 N274 1.379 . S
N272 Zn256 2.036 . S
N272 C270 1.298 . S
N272 N273 1.398 1_554 S
N273 C271 1.299 1_556 S
N273 N272 1.398 1_556 S
N274 C270 1.367 . S
N274 C271 1.379 . S
H275 C278 0.980 . S
H276 C278 0.981 . S
H277 C278 0.981 . S
C278 C270 1.481 . S
C278 H275 0.980 . S
C278 H276 0.981 . S
C278 H277 0.981 . S
C279 C266 1.481 1_556 S
C279 H280 0.980 . S
C279 H281 0.981 . S
C279 H282 0.981 . S
H280 C279 0.980 . S
H281 C279 0.981 . S
H282 C279 0.981 . S
O283 Zn259 2.066 1_556 S
O283 C262 1.256 . S
O284 Zn256 2.053 1_556 S
O284 C262 1.244 . S
C285 O263 1.259 . S
C285 O264 1.254 . S
O286 Zn256 2.066 . S
O286 C258 1.256 . S
O287 C258 1.244 . S
O287 Zn259 2.053 . S
Zn288 O289 2.055 . S
Zn288 O296 2.046 . S
Zn288 N304 2.036 . S
Zn288 O316 2.053 . S
Zn288 O318 2.066 . S
O289 Zn288 2.055 . S
O289 C292 1.259 . S
C290 O318 1.256 . S
C290 O319 1.244 . S
Zn291 O293 2.046 . S
Zn291 O295 2.055 . S
Zn291 N297 2.036 . S
Zn291 O315 2.066 . S
Zn291 O319 2.053 . S
C292 O289 1.259 . S
C292 O293 1.254 . S
O293 Zn291 2.046 . S
O293 C292 1.254 . S
C294 O315 1.256 . S
C294 O316 1.244 . S
O295 Zn291 2.055 . S
O295 C317 1.259 . S
O296 Zn288 2.046 . S
O296 C317 1.254 . S
N297 Zn291 2.036 . S
N297 C298 1.298 . S
N297 N300 1.398 . S
C298 N297 1.298 . S
C298 N301 1.367 1_455 S
C298 C311 1.477 . S
C299 N300 1.315 . S
C299 N301 1.376 1_455 S
N300 N297 1.398 . S
N300 C299 1.315 . S
N301 C298 1.367 1_655 S
N301 C299 1.376 1_655 S
C302 N304 1.298 . S
C302 N306 1.367 . S
C302 C310 1.481 . S
C303 N305 1.299 . S
C303 N306 1.379 . S
N304 Zn288 2.036 . S
N304 C302 1.298 . S
N304 N305 1.398 . S
N305 C303 1.299 . S
N305 N304 1.398 . S
N306 C302 1.367 . S
N306 C303 1.379 . S
H307 C310 0.980 . S
H308 C310 0.981 . S
H309 C310 0.981 . S
C310 C302 1.481 . S
C310 H307 0.980 . S
C310 H308 0.981 . S
C310 H309 0.981 . S
C311 C298 1.477 . S
C311 H312 1.009 . S
C311 H313 0.947 1_455 S
C311 H314 0.992 . S
H312 C311 1.009 . S
H313 C311 0.947 1_655 S
H314 C311 0.992 . S
O315 Zn291 2.066 . S
O315 C294 1.256 . S
O316 Zn288 2.053 . S
O316 C294 1.244 . S
C317 O295 1.259 . S
C317 O296 1.254 . S
O318 Zn288 2.066 . S
O318 C290 1.256 . S
O319 C290 1.244 . S
O319 Zn291 2.053 . S
Zn320 O321 2.055 . S
Zn320 O328 2.046 . S
Zn320 N336 2.036 . S
Zn320 O348 2.053 . S
Zn320 O350 2.066 . S
O321 Zn320 2.055 . S
O321 C324 1.259 . S
C322 O350 1.256 . S
C322 O351 1.244 . S
Zn323 O325 2.046 . S
Zn323 O327 2.055 . S
Zn323 N329 2.036 . S
Zn323 O347 2.066 . S
Zn323 O351 2.053 . S
C324 O321 1.259 . S
C324 O325 1.254 . S
O325 Zn323 2.046 . S
O325 C324 1.254 . S
C326 O347 1.256 . S
C326 O348 1.244 . S
O327 Zn323 2.055 . S
O327 C349 1.259 . S
O328 Zn320 2.046 . S
O328 C349 1.254 . S
N329 Zn323 2.036 . S
N329 C330 1.298 . S
N329 N332 1.398 . S
C330 N329 1.298 . S
C330 N333 1.367 . S
C330 C343 1.481 . S
C331 N332 1.299 . S
C331 N333 1.379 . S
N332 N329 1.398 . S
N332 C331 1.299 . S
N333 C330 1.367 . S
N333 C331 1.379 . S
C334 N336 1.298 . S
C334 N338 1.367 1_545 S
C334 C342 1.493 . S
C335 N337 1.302 . S
C335 N338 1.373 1_545 S
N336 Zn320 2.036 . S
N336 C334 1.298 . S
N336 N337 1.398 . S
N337 C335 1.302 . S
N337 N336 1.398 . S
N338 C334 1.367 1_565 S
N338 C335 1.373 1_565 S
H339 C342 0.971 . S
H340 C342 0.950 1_565 S
H341 C342 1.011 . S
C342 C334 1.493 . S
C342 H339 0.971 . S
C342 H340 0.950 1_545 S
C342 H341 1.011 . S
C343 C330 1.481 . S
C343 H344 0.980 . S
C343 H345 0.981 . S
C343 H346 0.981 . S
H344 C343 0.980 . S
H345 C343 0.981 . S
H346 C343 0.981 . S
O347 Zn323 2.066 . S
O347 C326 1.256 . S
O348 Zn320 2.053 . S
O348 C326 1.244 . S
C349 O327 1.259 . S
C349 O328 1.254 . S
O350 Zn320 2.066 . S
O350 C322 1.256 . S
O351 C322 1.244 . S
O351 Zn323 2.053 . S
Zn352 O353 2.055 . S
Zn352 O360 2.046 1_554 S
Zn352 N368 2.036 . S
Zn352 O380 2.053 1_554 S
Zn352 O382 2.066 . S
O353 Zn352 2.055 . S
O353 C356 1.259 . S
C354 O382 1.256 . S
C354 O383 1.244 . S
Zn355 O357 2.046 . S
Zn355 O359 2.055 1_554 S
Zn355 N361 2.036 . S
Zn355 O379 2.066 1_554 S
Zn355 O383 2.053 . S
C356 O353 1.259 . S
C356 O357 1.254 . S
O357 Zn355 2.046 . S
O357 C356 1.254 . S
C358 O379 1.256 . S
C358 O380 1.244 . S
O359 Zn355 2.055 1_556 S
O359 C381 1.259 . S
O360 Zn352 2.046 1_556 S
O360 C381 1.254 . S
N361 Zn355 2.036 . S
N361 C362 1.298 . S
N361 N364 1.398 . S
C362 N361 1.298 . S
C362 N365 1.367 . S
C362 C375 1.481 1_554 S
C363 N364 1.299 . S
C363 N365 1.379 . S
N364 N361 1.398 . S
N364 C363 1.299 . S
N365 C362 1.367 . S
N365 C363 1.379 . S
C366 N368 1.298 . S
C366 N370 1.367 . S
C366 C374 1.481 . S
C367 N369 1.299 1_554 S
C367 N370 1.379 . S
N368 Zn352 2.036 . S
N368 C366 1.298 . S
N368 N369 1.398 1_554 S
N369 C367 1.299 1_556 S
N369 N368 1.398 1_556 S
N370 C366 1.367 . S
N370 C367 1.379 . S
H371 C374 0.980 . S
H372 C374 0.981 . S
H373 C374 0.981 . S
C374 C366 1.481 . S
C374 H371 0.980 . S
C374 H372 0.981 . S
C374 H373 0.981 . S
C375 C362 1.481 1_556 S
C375 H376 0.980 . S
C375 H377 0.981 . S
C375 H378 0.981 . S
H376 C375 0.980 . S
H377 C375 0.981 . S
H378 C375 0.981 . S
O379 Zn355 2.066 1_556 S
O379 C358 1.256 . S
O380 Zn352 2.053 1_556 S
O380 C358 1.244 . S
C381 O359 1.259 . S
C381 O360 1.254 . S
O382 Zn352 2.066 . S
O382 C354 1.256 . S
O383 C354 1.244 . S
O383 Zn355 2.053 . S
C384 C385 1.369 . S
C384 C386 1.419 . S
C384 H388 0.930 . S
C385 C384 1.369 . S
C385 C394 1.429 . S
C386 C384 1.419 . S
C386 C387 1.363 . S
C386 H389 0.929 . S
C387 C386 1.363 . S
C387 C393 1.428 . S
H388 C384 0.930 . S
H389 C386 0.929 . S
S390 N391 1.613 . S
S390 N392 1.610 . S
N391 S390 1.613 . S
N391 C394 1.350 . S
N392 S390 1.610 . S
N392 C393 1.351 . S
C393 C387 1.428 . S
C393 N392 1.351 . S
C393 C394 1.434 . S
C394 C385 1.429 . S
C394 N391 1.350 . S
C394 C393 1.434 . S
C395 C396 1.369 . S
C395 C397 1.419 . S
C395 H399 0.930 . S
C396 C395 1.369 . S
C396 C405 1.429 . S
C397 C395 1.419 . S
C397 C398 1.363 . S
C397 H400 0.929 . S
C398 C397 1.363 . S
C398 C404 1.428 . S
H399 C395 0.930 . S
H400 C397 0.929 . S
S401 N402 1.613 . S
S401 N403 1.610 . S
N402 S401 1.613 . S
N402 C405 1.350 . S
N403 S401 1.610 . S
N403 C404 1.351 . S
C404 C398 1.428 . S
C404 N403 1.351 . S
C404 C405 1.434 . S
C405 C396 1.429 . S
C405 N402 1.350 . S
C405 C404 1.434 . S
C406 C407 1.369 . S
C406 C408 1.419 . S
C406 H410 0.930 . S
C407 C406 1.369 . S
C407 C416 1.429 . S
C408 C406 1.419 . S
C408 C409 1.363 . S
C408 H411 0.929 . S
C409 C408 1.363 . S
C409 C415 1.428 . S
H410 C406 0.930 . S
H411 C408 0.929 . S
S412 N413 1.613 . S
S412 N414 1.610 . S
N413 S412 1.613 . S
N413 C416 1.350 . S
N414 S412 1.610 . S
N414 C415 1.351 . S
C415 C409 1.428 . S
C415 N414 1.351 . S
C415 C416 1.434 . S
C416 C407 1.429 . S
C416 N413 1.350 . S
C416 C415 1.434 . S
C417 C418 1.369 . S
C417 C419 1.419 . S
C417 H421 0.930 . S
C418 C417 1.369 . S
C418 C427 1.429 . S
C419 C417 1.419 . S
C419 C420 1.363 . S
C419 H422 0.929 . S
C420 C419 1.363 . S
C420 C426 1.428 . S
H421 C417 0.930 . S
H422 C419 0.929 . S
S423 N424 1.613 1_556 S
S423 N425 1.610 1_556 S
N424 S423 1.613 1_554 S
N424 C427 1.350 . S
N425 S423 1.610 1_554 S
N425 C426 1.351 . S
C426 C420 1.428 . S
C426 N425 1.351 . S
C426 C427 1.434 . S
C427 C418 1.429 . S
C427 N424 1.350 . S
C427 C426 1.434 . S
C428 C429 1.369 . S
C428 C430 1.419 . S
C428 H432 0.930 . S
C429 C428 1.369 . S
C429 C438 1.429 . S
C430 C428 1.419 . S
C430 C431 1.363 . S
C430 H433 0.929 . S
C431 C430 1.363 . S
C431 C437 1.428 . S
H432 C428 0.930 . S
H433 C430 0.929 . S
S434 N435 1.613 . S
S434 N436 1.610 . S
N435 S434 1.613 . S
N435 C438 1.350 . S
N436 S434 1.610 . S
N436 C437 1.351 . S
C437 C431 1.428 . S
C437 N436 1.351 . S
C437 C438 1.434 . S
C438 C429 1.429 . S
C438 N435 1.350 . S
C438 C437 1.434 . S
C439 C440 1.369 . S
C439 C441 1.419 . S
C439 H443 0.930 . S
C440 C439 1.369 . S
C440 C449 1.429 . S
C441 C439 1.419 . S
C441 C442 1.363 . S
C441 H444 0.929 . S
C442 C441 1.363 . S
C442 C448 1.428 . S
H443 C439 0.930 . S
H444 C441 0.929 . S
S445 N446 1.613 . S
S445 N447 1.610 . S
N446 S445 1.613 . S
N446 C449 1.350 . S
N447 S445 1.610 . S
N447 C448 1.351 . S
C448 C442 1.428 . S
C448 N447 1.351 . S
C448 C449 1.434 . S
C449 C440 1.429 . S
C449 N446 1.350 . S
C449 C448 1.434 . S
C450 C451 1.369 . S
C450 C452 1.419 . S
C450 H454 0.930 . S
C451 C450 1.369 . S
C451 C460 1.429 1_556 S
C452 C450 1.419 . S
C452 C453 1.363 1_556 S
C452 H455 0.929 . S
C453 C452 1.363 1_554 S
C453 C459 1.428 . S
H454 C450 0.930 . S
H455 C452 0.929 . S
S456 N457 1.613 . S
S456 N458 1.610 . S
N457 S456 1.613 . S
N457 C460 1.350 . S
N458 S456 1.610 . S
N458 C459 1.351 . S
C459 C453 1.428 . S
C459 N458 1.351 . S
C459 C460 1.434 . S
C460 C451 1.429 1_554 S
C460 N457 1.350 . S
C460 C459 1.434 . S
C461 C462 1.369 . S
C461 C463 1.419 . S
C461 H465 0.930 . S
C462 C461 1.369 . S
C462 C471 1.429 . S
C463 C461 1.419 . S
C463 C464 1.363 . S
C463 H466 0.929 . S
C464 C463 1.363 . S
C464 C470 1.428 . S
H465 C461 0.930 . S
H466 C463 0.929 . S
S467 N468 1.613 . S
S467 N469 1.610 . S
N468 S467 1.613 . S
N468 C471 1.350 . S
N469 S467 1.610 . S
N469 C470 1.351 . S
C470 C464 1.428 . S
C470 N469 1.351 . S
C470 C471 1.434 . S
C471 C462 1.429 . S
C471 N468 1.350 . S
C471 C470 1.434 . S
C472 C473 1.369 . S
C472 C474 1.419 . S
C472 H476 0.930 . S
C473 C472 1.369 . S
C473 C482 1.429 . S
C474 C472 1.419 . S
C474 C475 1.363 . S
C474 H477 0.929 . S
C475 C474 1.363 . S
C475 C481 1.428 . S
H476 C472 0.930 . S
H477 C474 0.929 . S
S478 N479 1.613 . S
S478 N480 1.610 . S
N479 S478 1.613 . S
N479 C482 1.350 . S
N480 S478 1.610 . S
N480 C481 1.351 . S
C481 C475 1.428 . S
C481 N480 1.351 . S
C481 C482 1.434 . S
C482 C473 1.429 . S
C482 N479 1.350 . S
C482 C481 1.434 . S
C483 C484 1.369 . S
C483 C485 1.419 . S
C483 H487 0.930 . S
C484 C483 1.369 . S
C484 C493 1.429 1_556 S
C485 C483 1.419 . S
C485 C486 1.363 1_556 S
C485 H488 0.929 . S
C486 C485 1.363 1_554 S
C486 C492 1.428 . S
H487 C483 0.930 . S
H488 C485 0.929 . S
S489 N490 1.613 . S
S489 N491 1.610 . S
N490 S489 1.613 . S
N490 C493 1.350 . S
N491 S489 1.610 . S
N491 C492 1.351 . S
C492 C486 1.428 . S
C492 N491 1.351 . S
C492 C493 1.434 . S
C493 C484 1.429 1_554 S
C493 N490 1.350 . S
C493 C492 1.434 . S
C494 C495 1.369 . S
C494 C496 1.419 . S
C494 H498 0.930 . S
C495 C494 1.369 . S
C495 C504 1.429 . S
C496 C494 1.419 . S
C496 C497 1.363 . S
C496 H499 0.929 . S
C497 C496 1.363 . S
C497 C503 1.428 . S
H498 C494 0.930 . S
H499 C496 0.929 . S
S500 N501 1.613 . S
S500 N502 1.610 . S
N501 S500 1.613 . S
N501 C504 1.350 . S
N502 S500 1.610 . S
N502 C503 1.351 . S
C503 C497 1.428 . S
C503 N502 1.351 . S
C503 C504 1.434 . S
C504 C495 1.429 . S
C504 N501 1.350 . S
C504 C503 1.434 . S
C505 C506 1.369 . S
C505 C507 1.419 . S
C505 H509 0.930 . S
C506 C505 1.369 . S
C506 C515 1.429 . S
C507 C505 1.419 . S
C507 C508 1.363 . S
C507 H510 0.929 . S
C508 C507 1.363 . S
C508 C514 1.428 . S
H509 C505 0.930 . S
H510 C507 0.929 . S
S511 N512 1.613 . S
S511 N513 1.610 . S
N512 S511 1.613 . S
N512 C515 1.350 . S
N513 S511 1.610 . S
N513 C514 1.351 . S
C514 C508 1.428 . S
C514 N513 1.351 . S
C514 C515 1.434 . S
C515 C506 1.429 . S
C515 N512 1.350 . S
C515 C514 1.434 . S
C516 C517 1.369 1_554 S
C516 C518 1.443 . S
C516 H520 0.930 . S
C517 C516 1.369 1_556 S
C517 C526 1.429 1_565 S
C518 C516 1.443 . S
C518 C519 1.326 1_565 S
C518 H521 0.943 . S
C519 C518 1.326 1_545 S
C519 C525 1.428 1_554 S
H520 C516 0.930 . S
H521 C518 0.943 . S
S522 N523 1.613 . S
S522 N524 1.610 . S
N523 S522 1.613 . S
N523 C526 1.350 . S
N524 S522 1.610 . S
N524 C525 1.351 . S
C525 C519 1.428 1_556 S
C525 N524 1.351 . S
C525 C526 1.434 . S
C526 C517 1.429 1_545 S
C526 N523 1.350 . S
C526 C525 1.434 . S
C527 C528 1.369 . S
C527 C529 1.419 . S
C527 H531 0.930 . S
C528 C527 1.369 . S
C528 C537 1.429 . S
C529 C527 1.419 . S
C529 C530 1.363 . S
C529 H532 0.929 . S
C530 C529 1.363 . S
C530 C536 1.428 . S
H531 C527 0.930 . S
H532 C529 0.929 . S
S533 N534 1.613 . S
S533 N535 1.610 . S
N534 S533 1.613 . S
N534 C537 1.350 . S
N535 S533 1.610 . S
N535 C536 1.351 . S
C536 C530 1.428 . S
C536 N535 1.351 . S
C536 C537 1.434 . S
C537 C528 1.429 . S
C537 N534 1.350 . S
C537 C536 1.434 . S
C538 C539 1.369 1_655 S
C538 C540 1.419 . S
C538 H542 0.930 . S
C539 C538 1.369 1_455 S
C539 C548 1.429 . S
C540 C538 1.419 . S
C540 C541 1.363 . S
C540 H543 0.929 . S
C541 C540 1.363 . S
C541 C547 1.428 1_655 S
H542 C538 0.930 . S
H543 C540 0.929 . S
S544 N545 1.613 . S
S544 N546 1.610 . S
N545 S544 1.613 . S
N545 C548 1.350 . S
N546 S544 1.610 . S
N546 C547 1.351 . S
C547 C541 1.428 1_455 S
C547 N546 1.351 . S
C547 C548 1.434 . S
C548 C539 1.429 . S
C548 N545 1.350 . S
C548 C547 1.434 . S
C549 C550 1.369 . S
C549 C551 1.419 1_565 S
C549 H553 0.917 . S
C550 C549 1.369 . S
C550 C559 1.429 1_554 S
C551 C549 1.419 1_545 S
C551 C552 1.363 1_554 S
C551 H554 0.929 . S
C552 C551 1.363 1_556 S
C552 C558 1.430 . S
H553 C549 0.917 . S
H554 C551 0.929 . S
S555 N556 1.613 . S
S555 N557 1.610 . S
N556 S555 1.613 . S
N556 C559 1.350 . S
N557 S555 1.610 . S
N557 C558 1.353 1_565 S
C558 C552 1.430 . S
C558 N557 1.353 1_545 S
C558 C559 1.430 1_545 S
C559 C550 1.429 1_556 S
C559 N556 1.350 . S
C559 C558 1.430 1_565 S
C560 C561 1.369 . S
C560 C562 1.419 . S
C560 H564 0.930 . S
C561 C560 1.369 . S
C561 C570 1.429 . S
C562 C560 1.419 . S
C562 C563 1.363 . S
C562 H565 0.929 . S
C563 C562 1.363 . S
C563 C569 1.428 . S
H564 C560 0.930 . S
H565 C562 0.929 . S
S566 N567 1.613 . S
S566 N568 1.610 . S
N567 S566 1.613 . S
N567 C570 1.350 . S
N568 S566 1.610 . S
N568 C569 1.351 . S
C569 C563 1.428 . S
C569 N568 1.351 . S
C569 C570 1.434 . S
C570 C561 1.429 . S
C570 N567 1.350 . S
C570 C569 1.434 . S
C571 C572 1.369 . S
C571 C573 1.419 . S
C571 H575 0.930 . S
C572 C571 1.369 . S
C572 C581 1.429 1_455 S
C573 C571 1.419 . S
C573 C574 1.363 1_455 S
C573 H576 0.929 . S
C574 C573 1.363 1_655 S
C574 C580 1.428 . S
H575 C571 0.930 . S
H576 C573 0.929 . S
S577 N578 1.613 . S
S577 N579 1.610 . S
N578 S577 1.613 . S
N578 C581 1.350 . S
N579 S577 1.610 . S
N579 C580 1.351 . S
C580 C574 1.428 . S
C580 N579 1.351 . S
C580 C581 1.434 . S
C581 C572 1.429 1_655 S
C581 N578 1.350 . S
C581 C580 1.434 . S
C582 C583 1.369 . S
C582 C584 1.419 1_565 S
C582 H586 0.930 . S
C583 C582 1.369 . S
C583 C592 1.429 . S
C584 C582 1.419 1_545 S
C584 C585 1.363 . S
C584 H587 0.929 . S
C585 C584 1.363 . S
C585 C591 1.428 . S
H586 C582 0.930 . S
H587 C584 0.929 . S
S588 N589 1.613 1_545 S
S588 N590 1.610 . S
N589 S588 1.613 1_565 S
N589 C592 1.350 . S
N590 S588 1.610 . S
N590 C591 1.351 . S
C591 C585 1.428 . S
C591 N590 1.351 . S
C591 C592 1.434 1_545 S
C592 C583 1.429 . S
C592 N589 1.350 . S
C592 C591 1.434 1_565 S
C593 C594 1.369 . S
C593 C595 1.419 . S
C593 H597 0.930 . S
C594 C593 1.369 . S
C594 C603 1.429 . S
C595 C593 1.419 . S
C595 C596 1.363 . S
C595 H598 0.929 . S
C596 C595 1.363 . S
C596 C602 1.428 . S
H597 C593 0.930 . S
H598 C595 0.929 . S
S599 N600 1.613 . S
S599 N601 1.610 . S
N600 S599 1.613 . S
N600 C603 1.350 . S
N601 S599 1.610 . S
N601 C602 1.351 . S
C602 C596 1.428 . S
C602 N601 1.351 . S
C602 C603 1.434 . S
C603 C594 1.429 . S
C603 N600 1.350 . S
C603 C602 1.434 . S
C604 C605 1.369 . S
C604 C606 1.419 1_455 S
C604 H608 0.930 . S
C605 C604 1.369 . S
C605 C614 1.429 1_556 S
C606 C604 1.419 1_655 S
C606 C607 1.363 . S
C606 H609 0.929 . S
C607 C606 1.363 . S
C607 C613 1.428 1_556 S
H608 C604 0.930 . S
H609 C606 0.929 . S
S610 N611 1.613 . S
S610 N612 1.610 1_455 S
N611 S610 1.613 . S
N611 C614 1.350 . S
N612 S610 1.610 1_655 S
N612 C613 1.351 . S
C613 C607 1.428 1_554 S
C613 N612 1.351 . S
C613 C614 1.434 1_655 S
C614 C605 1.429 1_554 S
C614 N611 1.350 . S
C614 C613 1.434 1_455 S
C615 C616 1.369 . S
C615 C617 1.419 1_655 S
C615 H619 0.930 . S
C616 C615 1.369 . S
C616 C625 1.429 . S
C617 C615 1.419 1_455 S
C617 C618 1.363 . S
C617 H620 0.929 . S
C618 C617 1.363 . S
C618 C624 1.428 . S
H619 C615 0.930 . S
H620 C617 0.929 . S
S621 N622 1.606 1_455 S
S621 N623 1.617 . S
N622 S621 1.606 1_655 S
N622 C625 1.350 . S
N623 S621 1.617 . S
N623 C624 1.351 . S
C624 C618 1.428 . S
C624 N623 1.351 . S
C624 C625 1.434 1_455 S
C625 C616 1.429 . S
C625 N622 1.350 . S
C625 C624 1.434 1_655 S
C626 C627 1.369 . S
C626 C628 1.419 1_545 S
C626 H630 0.930 . S
C627 C626 1.369 . S
C627 C636 1.429 . S
C628 C626 1.419 1_565 S
C628 C629 1.363 . S
C628 H631 0.929 . S
C629 C628 1.363 . S
C629 C635 1.428 . S
H630 C626 0.930 . S
H631 C628 0.929 . S
S632 N633 1.613 1_565 S
S632 N634 1.610 . S
N633 S632 1.613 1_545 S
N633 C636 1.350 . S
N634 S632 1.610 . S
N634 C635 1.351 . S
C635 C629 1.428 . S
C635 N634 1.351 . S
C635 C636 1.434 1_565 S
C636 C627 1.429 . S
C636 N633 1.350 . S
C636 C635 1.434 1_545 S
C637 C638 1.369 . S
C637 C639 1.419 . S
C637 H641 0.930 . S
C638 C637 1.369 . S
C638 C647 1.429 1_554 S
C639 C637 1.419 . S
C639 C640 1.363 . S
C639 H642 0.929 . S
C640 C639 1.363 . S
C640 C646 1.428 1_554 S
H641 C637 0.930 . S
H642 C639 0.929 . S
S643 N644 1.613 . S
S643 N645 1.610 . S
N644 S643 1.613 . S
N644 C647 1.350 . S
N645 S643 1.610 . S
N645 C646 1.351 . S
C646 C640 1.428 1_556 S
C646 N645 1.351 . S
C646 C647 1.434 . S
C647 C638 1.429 1_556 S
C647 N644 1.350 . S
C647 C646 1.434 . S
C648 C649 1.369 . S
C648 C650 1.419 1_565 S
C648 H652 0.930 . S
C649 C648 1.369 . S
C649 C658 1.429 . S
C650 C648 1.419 1_545 S
C650 C651 1.363 . S
C650 H653 0.929 . S
C651 C650 1.363 . S
C651 C657 1.443 . S
H652 C648 0.930 . S
H653 C650 0.929 . S
S654 N655 1.613 . S
S654 N656 1.610 . S
N655 S654 1.613 . S
N655 C658 1.350 . S
N656 S654 1.610 . S
N656 C657 1.351 1_565 S
C657 C651 1.443 . S
C657 N656 1.351 1_545 S
C657 C658 1.417 1_545 S
C658 C649 1.429 . S
C658 N655 1.350 . S
C658 C657 1.417 1_565 S
C659 C660 1.369 . S
C659 C661 1.419 . S
C659 H663 0.930 . S
C660 C659 1.369 . S
C660 C669 1.429 . S
C661 C659 1.419 . S
C661 C662 1.363 . S
C661 H664 0.929 . S
C662 C661 1.363 . S
C662 C668 1.428 . S
H663 C659 0.930 . S
H664 C661 0.929 . S
S665 N666 1.613 . S
S665 N667 1.610 . S
N666 S665 1.613 . S
N666 C669 1.350 . S
N667 S665 1.610 . S
N667 C668 1.351 . S
C668 C662 1.428 . S
C668 N667 1.351 . S
C668 C669 1.434 . S
C669 C660 1.429 . S
C669 N666 1.350 . S
C669 C668 1.434 . S
C670 C671 1.369 . S
C670 C672 1.419 1_655 S
C670 H674 0.930 . S
C671 C670 1.369 . S
C671 C680 1.457 . S
C672 C670 1.419 1_455 S
C672 C673 1.363 . S
C672 H675 0.929 . S
C673 C672 1.363 . S
C673 C679 1.428 . S
H674 C670 0.930 . S
H675 C672 0.929 . S
S676 N677 1.613 1_556 S
S676 N678 1.610 1_556 S
N677 S676 1.613 1_554 S
N677 C680 1.342 1_455 S
N678 S676 1.610 1_554 S
N678 C679 1.351 . S
C679 C673 1.428 . S
C679 N678 1.351 . S
C679 C680 1.410 1_455 S
C680 C671 1.457 . S
C680 N677 1.342 1_655 S
C680 C679 1.410 1_655 S
C681 C682 1.369 . S
C681 C683 1.419 1_545 S
C681 H685 0.930 . S
C682 C681 1.369 . S
C682 C691 1.429 . S
C683 C681 1.419 1_565 S
C683 C684 1.363 . S
C683 H686 0.929 . S
C684 C683 1.363 . S
C684 C690 1.428 . S
H685 C681 0.930 . S
H686 C683 0.929 . S
S687 N688 1.613 1_565 S
S687 N689 1.610 . S
N688 S687 1.613 1_545 S
N688 C691 1.350 . S
N689 S687 1.610 . S
N689 C690 1.351 . S
C690 C684 1.428 . S
C690 N689 1.351 . S
C690 C691 1.434 1_565 S
C691 C682 1.429 . S
C691 N688 1.350 . S
C691 C690 1.434 1_545 S
C692 C693 1.369 . S
C692 C694 1.419 . S
C692 H696 0.930 . S
C693 C692 1.369 . S
C693 C702 1.429 . S
C694 C692 1.419 . S
C694 C695 1.363 . S
C694 H697 0.929 . S
C695 C694 1.363 . S
C695 C701 1.428 . S
H696 C692 0.930 . S
H697 C694 0.929 . S
S698 N699 1.613 1_554 S
S698 N700 1.610 1_554 S
N699 S698 1.613 1_556 S
N699 C702 1.350 . S
N700 S698 1.610 1_556 S
N700 C701 1.351 . S
C701 C695 1.428 . S
C701 N700 1.351 . S
C701 C702 1.434 . S
C702 C693 1.429 . S
C702 N699 1.350 . S
C702 C701 1.434 . S
C703 C704 1.369 . S
C703 C705 1.419 1_455 S
C703 H707 0.930 . S
C704 C703 1.369 . S
C704 C713 1.429 . S
C705 C703 1.419 1_655 S
C705 C706 1.363 . S
C705 H708 0.929 . S
C706 C705 1.363 . S
C706 C712 1.428 . S
H707 C703 0.930 . S
H708 C705 0.929 . S
S709 N710 1.613 . S
S709 N711 1.610 1_455 S
N710 S709 1.613 . S
N710 C713 1.350 . S
N711 S709 1.610 1_655 S
N711 C712 1.351 . S
C712 C706 1.428 . S
C712 N711 1.351 . S
C712 C713 1.434 1_655 S
C713 C704 1.429 . S
C713 N710 1.350 . S
C713 C712 1.434 1_455 S
C714 C715 1.369 . S
C714 C716 1.419 . S
C714 H718 0.930 . S
C715 C714 1.369 . S
C715 C724 1.429 . S
C716 C714 1.419 . S
C716 C717 1.363 . S
C716 H719 0.929 . S
C717 C716 1.363 . S
C717 C723 1.428 . S
H718 C714 0.930 . S
H719 C716 0.929 . S
S720 N721 1.613 . S
S720 N722 1.610 . S
N721 S720 1.613 . S
N721 C724 1.350 . S
N722 S720 1.610 . S
N722 C723 1.351 . S
C723 C717 1.428 . S
C723 N722 1.351 . S
C723 C724 1.434 . S
C724 C715 1.429 . S
C724 N721 1.350 . S
C724 C723 1.434 . S
C725 C726 1.369 . S
C725 C727 1.419 . S
C725 H729 0.930 . S
C726 C725 1.369 . S
C726 C735 1.429 . S
C727 C725 1.419 . S
C727 C728 1.363 . S
C727 H730 0.929 . S
C728 C727 1.363 . S
C728 C734 1.428 . S
H729 C725 0.930 . S
H730 C727 0.929 . S
S731 N732 1.613 . S
S731 N733 1.610 . S
N732 S731 1.613 . S
N732 C735 1.350 . S
N733 S731 1.610 . S
N733 C734 1.351 . S
C734 C728 1.428 . S
C734 N733 1.351 . S
C734 C735 1.434 . S
C735 C726 1.429 . S
C735 N732 1.350 . S
C735 C734 1.434 . S
C736 C737 1.369 . S
C736 C738 1.419 . S
C736 H740 0.930 . S
C737 C736 1.369 . S
C737 C746 1.429 . S
C738 C736 1.419 . S
C738 C739 1.363 . S
C738 H741 0.929 . S
C739 C738 1.363 . S
C739 C745 1.428 . S
H740 C736 0.930 . S
H741 C738 0.929 . S
S742 N743 1.613 . S
S742 N744 1.610 . S
N743 S742 1.613 . S
N743 C746 1.350 . S
N744 S742 1.610 . S
N744 C745 1.351 . S
C745 C739 1.428 . S
C745 N744 1.351 . S
C745 C746 1.434 . S
C746 C737 1.429 . S
C746 N743 1.350 . S
C746 C745 1.434 . S
C747 C748 1.369 . S
C747 C749 1.419 . S
C747 H751 0.930 . S
C748 C747 1.369 . S
C748 C757 1.429 . S
C749 C747 1.419 . S
C749 C750 1.363 . S
C749 H752 0.929 . S
C750 C749 1.363 . S
C750 C756 1.428 . S
H751 C747 0.930 . S
H752 C749 0.929 . S
S753 N754 1.613 . S
S753 N755 1.610 . S
N754 S753 1.613 . S
N754 C757 1.350 . S
N755 S753 1.610 . S
N755 C756 1.351 . S
C756 C750 1.428 . S
C756 N755 1.351 . S
C756 C757 1.434 . S
C757 C748 1.429 . S
C757 N754 1.350 . S
C757 C756 1.434 . S
C758 C759 1.369 . S
C758 C760 1.419 . S
C758 H762 0.930 . S
C759 C758 1.369 . S
C759 C768 1.429 . S
C760 C758 1.419 . S
C760 C761 1.363 . S
C760 H763 0.929 . S
C761 C760 1.363 . S
C761 C767 1.428 . S
H762 C758 0.930 . S
H763 C760 0.929 . S
S764 N765 1.613 . S
S764 N766 1.610 . S
N765 S764 1.613 . S
N765 C768 1.350 . S
N766 S764 1.610 . S
N766 C767 1.351 . S
C767 C761 1.428 . S
C767 N766 1.351 . S
C767 C768 1.434 . S
C768 C759 1.429 . S
C768 N765 1.350 . S
C768 C767 1.434 . S
C769 C770 1.369 . S
C769 C771 1.419 . S
C769 H773 0.930 . S
C770 C769 1.369 . S
C770 C779 1.429 . S
C771 C769 1.419 . S
C771 C772 1.363 . S
C771 H774 0.929 . S
C772 C771 1.363 . S
C772 C778 1.428 . S
H773 C769 0.930 . S
H774 C771 0.929 . S
S775 N776 1.613 . S
S775 N777 1.610 . S
N776 S775 1.613 . S
N776 C779 1.350 . S
N777 S775 1.610 . S
N777 C778 1.351 . S
C778 C772 1.428 . S
C778 N777 1.351 . S
C778 C779 1.434 . S
C779 C770 1.429 . S
C779 N776 1.350 . S
C779 C778 1.434 . S
C385 N13 1.333 . S
C387 N274 1.337 . S
C396 N50 1.333 . S
C398 N306 1.337 . S
C407 N82 1.335 . S
C409 N333 1.334 . S
C418 N370 1.332 . S
C420 N114 1.337 . S
C429 N146 1.332 . S
C431 N210 1.337 . S
C440 N237 1.333 . S
C442 N173 1.336 . S
C451 C326 2.435 . S
C453 C6 2.434 . S
C462 C354 2.439 . S
C464 C34 2.436 . S
C473 C66 2.434 . S
C475 C194 2.435 . S
C484 C230 2.437 . S
C486 C98 2.434 . S
C495 C258 2.437 . S
C497 C130 2.434 . S
C506 C166 2.439 . S
C508 C290 2.437 . S
C517 C253 2.010 . S
C519 C29 2.015 . S
C528 C260 2.016 . S
C530 C36 2.011 . S
C539 C292 2.015 . S
C541 C68 2.010 . S
C550 C100 2.013 . S
C552 C349 2.009 . S
C561 C132 2.013 . S
C563 C356 2.014 . S
C572 C189 2.009 . S
C574 C196 2.014 . S
C583 N18 1.231 . S
C585 N109 1.224 . S
C594 N45 1.232 . S
C596 N141 1.231 . S
C605 N77 1.223 . S
C607 N178 1.229 . S
C616 N301 1.222 . S
C618 N205 1.221 . S
C627 N242 1.233 . S
C629 N338 1.230 . S
C638 N365 1.229 . S
C640 N269 1.232 . S
C649 C228 1.735 . S
C651 C4 1.728 . S
C660 C285 1.736 . S
C662 C61 1.729 . S
C671 C93 1.730 . S
C673 C317 1.736 . S
C682 C324 1.736 . S
C684 C125 1.733 . S
C693 C381 1.728 . S
C695 C157 1.735 . S
C704 C164 1.730 . S
C706 C221 1.728 . S
C715 C2 1.938 . S
C717 C322 1.943 . S
C726 C38 1.938 . S
C728 C358 1.942 . S
C737 C70 1.943 . S
C739 C198 1.939 . S
C748 C102 1.946 . S
C750 C226 1.940 . S
C759 C134 1.943 . S
C761 C262 1.945 . S
C770 C294 1.942 . S
C772 C162 1.939 . S
