# Generated by pormake.
# Topology vbr, (6)-cn, num edge types: 1
# Building blocks:
#     Node 0, Type 0, BuildingBlock: IZENUY_clean_sbu_0, # of connection points: 6
#     Node 1, Type 0, BuildingBlock: IZENUY_clean_sbu_0, # of connection points: 6
#     Node 2, Type 0, BuildingBlock: IZENUY_clean_sbu_0, # of connection points: 6
#     Node 3, Type 0, BuildingBlock: IZENUY_clean_sbu_0, # of connection points: 6
#     Node 4, Type 0, BuildingBlock: IZENUY_clean_sbu_0, # of connection points: 6
#     Node 5, Type 0, BuildingBlock: IZENUY_clean_sbu_0, # of connection points: 6
#     Node 6, Type 0, BuildingBlock: IZENUY_clean_sbu_0, # of connection points: 6
#     Node 7, Type 0, BuildingBlock: IZENUY_clean_sbu_0, # of connection points: 6
#     Node 8, Type 0, BuildingBlock: IZENUY_clean_sbu_0, # of connection points: 6
#     Node 9, Type 0, BuildingBlock: IZENUY_clean_sbu_0, # of connection points: 6
#     Node 10, Type 0, BuildingBlock: IZENUY_clean_sbu_0, # of connection points: 6
#     Node 11, Type 0, BuildingBlock: IZENUY_clean_sbu_0, # of connection points: 6
#     Node 12, Type 0, BuildingBlock: IZENUY_clean_sbu_0, # of connection points: 6
#     Node 13, Type 0, BuildingBlock: IZENUY_clean_sbu_0, # of connection points: 6
#     Node 14, Type 0, BuildingBlock: IZENUY_clean_sbu_0, # of connection points: 6
#     Node 15, Type 0, BuildingBlock: IZENUY_clean_sbu_0, # of connection points: 6
#     Edge 16, Type (0, 0), None
#     Edge 17, Type (0, 0), None
#     Edge 18, Type (0, 0), None
#     Edge 19, Type (0, 0), None
#     Edge 20, Type (0, 0), None
#     Edge 21, Type (0, 0), None
#     Edge 22, Type (0, 0), None
#     Edge 23, Type (0, 0), None
#     Edge 24, Type (0, 0), None
#     Edge 25, Type (0, 0), None
#     Edge 26, Type (0, 0), None
#     Edge 27, Type (0, 0), None
#     Edge 28, Type (0, 0), None
#     Edge 29, Type (0, 0), None
#     Edge 30, Type (0, 0), None
#     Edge 31, Type (0, 0), None
#     Edge 32, Type (0, 0), None
#     Edge 33, Type (0, 0), None
#     Edge 34, Type (0, 0), None
#     Edge 35, Type (0, 0), None
#     Edge 36, Type (0, 0), None
#     Edge 37, Type (0, 0), None
#     Edge 38, Type (0, 0), None
#     Edge 39, Type (0, 0), None
#     Edge 40, Type (0, 0), None
#     Edge 41, Type (0, 0), None
#     Edge 42, Type (0, 0), None
#     Edge 43, Type (0, 0), None
#     Edge 44, Type (0, 0), None
#     Edge 45, Type (0, 0), None
#     Edge 46, Type (0, 0), None
#     Edge 47, Type (0, 0), None
#     Edge 48, Type (0, 0), None
#     Edge 49, Type (0, 0), None
#     Edge 50, Type (0, 0), None
#     Edge 51, Type (0, 0), None
#     Edge 52, Type (0, 0), None
#     Edge 53, Type (0, 0), None
#     Edge 54, Type (0, 0), None
#     Edge 55, Type (0, 0), None
#     Edge 56, Type (0, 0), None
#     Edge 57, Type (0, 0), None
#     Edge 58, Type (0, 0), None
#     Edge 59, Type (0, 0), None
#     Edge 60, Type (0, 0), None
#     Edge 61, Type (0, 0), None
#     Edge 62, Type (0, 0), None
#     Edge 63, Type (0, 0), None
# Relax obj value: 0.288
# Max RMSD: 0.273
# Mean RMSD: 0.273
data_MOF--net-vbr--node1-IZENUY_clean_sbu_0--edge1-none
_symmetry_space_group_name_H-M    P1
_symmetry_Int_Tables_number       1
_symmetry_cell_setting            triclinic
loop_
_symmetry_equiv_pos_as_xyz
'x, y, z'
_cell_length_a     20.741625
_cell_length_b     13.646967
_cell_length_c     24.084702
_cell_angle_alpha  90.000008
_cell_angle_beta   90.000098
_cell_angle_gamma 89.997506
loop_
_atom_site_label
_atom_site_type_symbol
_atom_site_fract_x
_atom_site_fract_y
_atom_site_fract_z
_atom_type_partial_charge
Fe0 Fe 0.39766 0.22128 0.14544 0.0
Fe1 Fe 0.37325 0.02735 0.20503 0.0
O2 O 0.34215 0.13372 0.17434 0.0
Fe3 Fe 0.25797 0.14459 0.1688 0.0
O4 O 0.26636 0.1602 0.09576 0.0
O5 O 0.35301 0.25116 0.08531 0.0
O6 O 0.43632 0.12165 0.10269 0.0
C7 C 0.41568 0.03433 0.09192 0.0
C8 C 0.30133 0.34461 0.18129 0.0
O9 O 0.39092 0.98218 0.132 0.0
C10 C 0.28592 0.10584 0.28276 0.0
O11 O 0.45058 0.21626 0.20535 0.0
O12 O 0.45811 0.06228 0.21178 0.0
O13 O 0.26013 0.27619 0.1796 0.0
O14 O 0.36133 0.32796 0.17919 0.0
C15 C 0.25089 0.94802 0.18835 0.0
O16 O 0.34583 0.07802 0.27363 0.0
O17 O 0.24678 0.12759 0.24366 0.0
C18 C 0.48325 0.14406 0.2189 0.0
O19 O 0.30342 0.95254 0.21197 0.0
O20 O 0.23786 1.01499 0.15458 0.0
C21 C 0.29664 0.23001 0.07341 0.0
Fe22 Fe 0.28529 0.8856 0.6688 0.0
Fe23 Fe 0.1456 0.80892 0.64544 0.0
O24 O 0.20112 0.89647 0.67434 0.0
Fe25 Fe 0.17001 1.00284 0.70503 0.0
O26 O 0.23985 0.07766 0.71197 0.0
O27 O 0.3054 0.01521 0.65458 0.0
O28 O 0.2769 0.87 0.59576 0.0
C29 C 0.24663 0.80018 0.57341 0.0
C30 C 0.25734 0.92436 0.78276 0.0
O31 O 0.19026 0.77903 0.58531 0.0
C32 C 0.06001 0.88613 0.7189 0.0
O33 O 0.28314 0.75401 0.6796 0.0
O34 O 0.18194 0.70223 0.67919 0.0
O35 O 0.19744 0.95217 0.77363 0.0
O36 O 0.29649 0.9026 0.74366 0.0
C37 C 0.12758 0.99586 0.59192 0.0
O38 O 0.09268 0.81393 0.70535 0.0
O39 O 0.08516 0.96792 0.71178 0.0
C40 C 0.24193 0.68559 0.68129 0.0
O41 O 0.10695 0.90854 0.60269 0.0
O42 O 0.15235 0.04802 0.632 0.0
C43 C 0.29238 0.08217 0.68835 0.0
Fe44 Fe 0.37326 1.00309 0.91734 0.0
Fe45 Fe 0.25802 0.88595 0.95368 0.0
O46 O 0.34218 0.89677 0.94808 0.0
Fe47 Fe 0.39771 0.80923 0.97697 0.0
O48 O 0.43638 0.90891 1.01967 0.0
O49 O 0.39093 0.04836 0.99034 0.0
O50 O 0.30342 0.07791 0.91035 0.0
C51 C 0.25093 0.08248 0.93403 0.0
C52 C 0.48325 0.88637 0.90345 0.0
O53 O 0.23796 0.01559 0.96786 0.0
C54 C 0.30134 0.68591 0.94118 0.0
O55 O 0.34581 0.95229 0.84877 0.0
O56 O 0.24676 0.90284 0.87882 0.0
O57 O 0.45057 0.81419 0.91703 0.0
O58 O 0.45812 0.96816 0.91059 0.0
C59 C 0.29675 0.80062 1.04908 0.0
O60 O 0.26015 0.75435 0.94294 0.0
O61 O 0.36134 0.70252 0.94327 0.0
C62 C 0.2859 0.92445 0.83968 0.0
O63 O 0.2665 0.87046 1.02673 0.0
O64 O 0.3531 0.7794 1.03714 0.0
C65 C 0.4157 0.99622 1.03043 0.0
Fe66 Fe 0.14556 0.22096 0.47697 0.0
Fe67 Fe 0.17 0.0271 0.41734 0.0
O68 O 0.20108 0.13342 0.44808 0.0
Fe69 Fe 0.28525 0.14424 0.45368 0.0
O70 O 0.27676 0.15973 0.52673 0.0
O71 O 0.19016 0.25079 0.53714 0.0
O72 O 0.10689 0.12128 0.51967 0.0
C73 C 0.12756 0.03398 0.53043 0.0
C74 C 0.24192 0.34428 0.44118 0.0
O75 O 0.15233 0.98184 0.49034 0.0
C76 C 0.25736 0.10575 0.33968 0.0
O77 O 0.09269 0.216 0.41703 0.0
O78 O 0.08514 0.06203 0.41059 0.0
O79 O 0.28311 0.27585 0.44294 0.0
O80 O 0.18192 0.32767 0.44327 0.0
C81 C 0.29234 0.94771 0.43403 0.0
O82 O 0.19745 0.0779 0.34877 0.0
O83 O 0.2965 0.12735 0.37882 0.0
C84 C 0.06001 0.14383 0.40345 0.0
O85 O 0.23984 0.95229 0.41035 0.0
O86 O 0.30531 1.0146 0.46786 0.0
C87 C 0.24652 0.22958 0.54908 0.0
Fe88 Fe 0.65789 1.00176 0.92123 0.0
Fe89 Fe 0.64522 0.8076 0.98748 0.0
O90 O 0.69403 0.89522 0.94946 0.0
Fe91 Fe 0.77984 0.87801 0.9447 0.0
O92 O 0.80624 1.00828 0.945 0.0
O93 O 0.71437 0.083 0.95162 0.0
O94 O 0.60962 0.02573 0.98648 0.0
C95 C 0.61034 0.98505 1.03489 0.0
C96 C 0.7585 0.94522 0.84 0.0
O97 O 0.6252 0.89643 1.04019 0.0
C98 C 0.7261 0.68314 0.9361 0.0
O99 O 0.59184 0.93685 0.88698 0.0
O100 O 0.57083 0.82941 0.95156 0.0
O101 O 0.78171 0.88039 0.8709 0.0
O102 O 0.7072 0.99338 0.85434 0.0
C103 C 0.76012 0.80069 1.04433 0.0
O104 O 0.66681 0.70669 0.94087 0.0
O105 O 0.77082 0.74611 0.94009 0.0
C106 C 0.55356 0.87808 0.91025 0.0
O107 O 0.70633 0.76887 1.03184 0.0
O108 O 0.78607 0.87165 1.01917 0.0
C109 C 0.77369 0.08628 0.9445 0.0
Fe110 Fe 0.89804 0.22259 0.48748 0.0
Fe111 Fe 0.76342 0.15218 0.4447 0.0
O112 O 0.84923 0.13497 0.44946 0.0
Fe113 Fe 0.88538 0.02843 0.42123 0.0
O114 O 0.93365 1.00446 0.48648 0.0
O115 O 0.91806 0.13376 0.54019 0.0
O116 O 0.83694 0.26133 0.53184 0.0
C117 C 0.78314 0.2295 0.54433 0.0
C118 C 0.9897 0.15211 0.41025 0.0
O119 O 0.75719 0.15854 0.51917 0.0
C120 C 0.78476 0.08498 0.34 0.0
O121 O 0.87645 0.3235 0.44087 0.0
O122 O 0.77244 0.28408 0.44009 0.0
O123 O 0.95142 0.09334 0.38698 0.0
O124 O 0.97244 0.20078 0.45156 0.0
C125 C 0.76957 0.94391 0.4445 0.0
O126 O 0.76156 0.1498 0.3709 0.0
O127 O 0.83606 0.03681 0.35434 0.0
C128 C 0.81716 0.34705 0.4361 0.0
O129 O 0.73702 0.02191 0.445 0.0
O130 O 0.8289 0.94719 0.45162 0.0
C131 C 0.93292 0.04514 0.53489 0.0
Fe132 Fe 0.65788 0.02861 0.20108 0.0
Fe133 Fe 0.64523 0.22282 0.13486 0.0
O134 O 0.69402 0.13518 0.17289 0.0
Fe135 Fe 0.77983 0.1524 0.17771 0.0
O136 O 0.80624 0.02212 0.17742 0.0
O137 O 0.71438 0.94743 0.17064 0.0
O138 O 0.6096 1.00472 0.13582 0.0
C139 C 0.61033 0.04542 0.08743 0.0
C140 C 0.75846 0.08505 0.28235 0.0
O141 O 0.62523 0.13402 0.08213 0.0
C142 C 0.72608 0.34727 0.1863 0.0
O143 O 0.59184 0.0935 0.23535 0.0
O144 O 0.57083 0.20099 0.17078 0.0
O145 O 0.78163 0.14999 0.25152 0.0
O146 O 0.70718 0.03687 0.26798 0.0
C147 C 0.76019 0.22976 0.07808 0.0
O148 O 0.6668 0.32373 0.18149 0.0
O149 O 0.7708 0.28429 0.18234 0.0
C150 C 0.55357 0.1523 0.21208 0.0
O151 O 0.70637 0.26156 0.09053 0.0
O152 O 0.78613 0.1588 0.10325 0.0
C153 C 0.77369 0.94413 0.17786 0.0
Fe154 Fe 0.89803 0.80737 0.63487 0.0
Fe155 Fe 0.76344 0.87779 0.67771 0.0
O156 O 0.84924 0.89501 0.67289 0.0
Fe157 Fe 0.88539 1.00158 0.70108 0.0
O158 O 0.93366 0.02547 0.63582 0.0
O159 O 0.91803 0.89617 0.58213 0.0
O160 O 0.8369 0.76863 0.59053 0.0
C161 C 0.78308 0.80043 0.57808 0.0
C162 C 0.9897 0.87789 0.71208 0.0
O163 O 0.75714 0.87139 0.60325 0.0
C164 C 0.7848 0.94515 0.78235 0.0
O165 O 0.87647 0.70646 0.68149 0.0
O166 O 0.77247 0.7459 0.68234 0.0
O167 O 0.95143 0.9367 0.73535 0.0
O168 O 0.97243 0.8292 0.67078 0.0
C169 C 0.76958 0.08606 0.67786 0.0
O170 O 0.76164 0.8802 0.75152 0.0
O171 O 0.83608 0.99333 0.76798 0.0
C172 C 0.81718 0.68292 0.6863 0.0
O173 O 0.73702 1.00807 0.67742 0.0
O174 O 0.82889 0.08276 0.67064 0.0
C175 C 0.93293 0.98477 0.58743 0.0
Fe176 Fe 0.89766 0.72123 0.14545 0.0
Fe177 Fe 0.87327 0.52731 0.20503 0.0
O178 O 0.84216 0.63366 0.17433 0.0
Fe179 Fe 0.75798 0.64451 0.16878 0.0
O180 O 0.76638 0.66003 0.09573 0.0
O181 O 0.853 0.75111 0.08533 0.0
O182 O 0.93632 0.62161 0.10269 0.0
C183 C 0.91569 0.53428 0.09192 0.0
C184 C 0.80132 0.84454 0.18126 0.0
O185 O 0.89094 0.48212 0.13201 0.0
C186 C 0.78593 0.60584 0.28275 0.0
O187 O 0.95058 0.71622 0.20535 0.0
O188 O 0.95813 0.56224 0.21178 0.0
O189 O 0.76013 0.77612 0.17951 0.0
O190 O 0.86132 0.8279 0.1792 0.0
C191 C 0.75093 0.44795 0.18837 0.0
O192 O 0.84584 0.578 0.27363 0.0
O193 O 0.74679 0.62759 0.24364 0.0
C194 C 0.98326 0.64403 0.2189 0.0
O195 O 0.80346 0.45247 0.21199 0.0
O196 O 0.73784 0.5149 0.15461 0.0
C197 C 0.7967 0.72976 0.07332 0.0
Fe198 Fe 0.6456 0.30896 0.64545 0.0
Fe199 Fe 0.66999 0.50288 0.70503 0.0
O200 O 0.70111 0.39653 0.67433 0.0
Fe201 Fe 0.78529 0.38568 0.66878 0.0
O202 O 0.77688 0.37016 0.59573 0.0
O203 O 0.69026 0.27908 0.58533 0.0
O204 O 0.60694 0.40858 0.60269 0.0
C205 C 0.62757 0.49591 0.59192 0.0
C206 C 0.74194 0.18565 0.68126 0.0
O207 O 0.65232 0.54807 0.63201 0.0
C208 C 0.75733 0.42435 0.78275 0.0
O209 O 0.59268 0.31397 0.70535 0.0
O210 O 0.58514 0.46795 0.71178 0.0
O211 O 0.78314 0.25407 0.67951 0.0
O212 O 0.68194 0.20229 0.6792 0.0
C213 C 0.79233 0.58224 0.68837 0.0
O214 O 0.69743 0.45219 0.77363 0.0
O215 O 0.79648 0.4026 0.74365 0.0
C216 C 0.56 0.38616 0.7189 0.0
O217 O 0.7398 0.57772 0.71199 0.0
O218 O 0.80542 0.51529 0.65461 0.0
C219 C 0.74657 0.30043 0.57332 0.0
Fe220 Fe 0.89769 0.30919 0.97694 0.0
Fe221 Fe 0.87326 0.50306 0.91733 0.0
O222 O 0.84217 0.39674 0.94806 0.0
Fe223 Fe 0.758 0.38591 0.95367 0.0
O224 O 0.76647 0.37047 1.02672 0.0
O225 O 0.85307 0.27932 1.03708 0.0
O226 O 0.93636 0.40884 1.01966 0.0
C227 C 0.9157 0.49616 1.03043 0.0
C228 C 0.80133 0.18587 0.94118 0.0
O229 O 0.89094 0.54831 0.99033 0.0
C230 C 0.78589 0.42442 0.83967 0.0
O231 O 0.95058 0.31417 0.917 0.0
O232 O 0.95812 0.46814 0.91057 0.0
O233 O 0.76014 0.2543 0.94296 0.0
O234 O 0.86134 0.2025 0.94321 0.0
C235 C 0.75094 0.58245 0.93402 0.0
O236 O 0.8458 0.45228 0.84876 0.0
O237 O 0.74676 0.40276 0.8788 0.0
C238 C 0.98325 0.38635 0.90343 0.0
O239 O 0.80343 0.5779 0.91035 0.0
O240 O 0.73789 0.51555 0.96781 0.0
C241 C 0.79678 0.30072 1.04912 0.0
Fe242 Fe 0.64557 0.721 0.47694 0.0
Fe243 Fe 0.67001 0.52713 0.41733 0.0
O244 O 0.7011 0.63345 0.44806 0.0
Fe245 Fe 0.78526 0.64428 0.45367 0.0
O246 O 0.77679 0.65972 0.52672 0.0
O247 O 0.69019 0.75087 0.53708 0.0
O248 O 0.60691 0.62135 0.51966 0.0
C249 C 0.62756 0.53403 0.53043 0.0
C250 C 0.74193 0.84432 0.44118 0.0
O251 O 0.65233 0.48188 0.49033 0.0
C252 C 0.75737 0.60577 0.33967 0.0
O253 O 0.59269 0.71602 0.417 0.0
O254 O 0.58515 0.56205 0.41057 0.0
O255 O 0.78312 0.77589 0.44296 0.0
O256 O 0.68193 0.82769 0.44321 0.0
C257 C 0.79233 0.44774 0.43402 0.0
O258 O 0.69747 0.57791 0.34876 0.0
O259 O 0.79651 0.62743 0.3788 0.0
C260 C 0.56001 0.64384 0.40343 0.0
O261 O 0.73983 0.45229 0.41035 0.0
O262 O 0.80537 0.51464 0.46782 0.0
C263 C 0.74648 0.72947 0.54912 0.0
Fe264 Fe 0.15789 0.50177 0.92119 0.0
Fe265 Fe 0.14522 0.30764 0.98747 0.0
O266 O 0.19403 0.39525 0.94945 0.0
Fe267 Fe 0.27985 0.37805 0.9447 0.0
O268 O 0.30624 0.50832 0.94497 0.0
O269 O 0.21436 0.58305 0.95157 0.0
O270 O 0.10962 0.52577 0.98645 0.0
C271 C 0.11033 0.4851 1.03485 0.0
C272 C 0.25851 0.44516 0.83998 0.0
O273 O 0.12517 0.39647 1.04016 0.0
C274 C 0.22612 0.18318 0.93612 0.0
O275 O 0.09184 0.43685 0.88695 0.0
O276 O 0.07083 0.32941 0.95153 0.0
O277 O 0.28171 0.38036 0.87089 0.0
O278 O 0.20721 0.49335 0.8543 0.0
C279 C 0.26007 0.30091 1.04438 0.0
O280 O 0.16683 0.20673 0.94087 0.0
O281 O 0.27084 0.24613 0.94014 0.0
C282 C 0.05357 0.37808 0.91023 0.0
O283 O 0.20632 0.26896 1.03184 0.0
O284 O 0.28608 0.37176 1.01917 0.0
C285 C 0.27369 0.58633 0.94447 0.0
Fe286 Fe 0.26342 0.65215 0.4447 0.0
Fe287 Fe 0.38538 0.52842 0.42119 0.0
O288 O 0.34923 0.63494 0.44945 0.0
Fe289 Fe 0.39804 0.72255 0.48747 0.0
O290 O 0.33694 0.76123 0.53184 0.0
O291 O 0.25718 0.65843 0.51917 0.0
O292 O 0.23702 0.52187 0.44496 0.0
C293 C 0.26957 0.44387 0.44447 0.0
C294 C 0.31714 0.84701 0.43612 0.0
O295 O 0.3289 0.44715 0.45157 0.0
C296 C 0.4897 0.65211 0.41023 0.0
O297 O 0.26155 0.64984 0.37089 0.0
O298 O 0.33606 0.53684 0.35431 0.0
O299 O 0.37643 0.82346 0.44087 0.0
O300 O 0.27242 0.78406 0.44014 0.0
C301 C 0.43294 0.5451 0.53485 0.0
O302 O 0.45142 0.59334 0.38695 0.0
O303 O 0.47243 0.70078 0.45153 0.0
C304 C 0.28476 0.58503 0.33998 0.0
O305 O 0.43364 0.50442 0.48645 0.0
O306 O 0.41809 0.63372 0.54016 0.0
C307 C 0.28319 0.72928 0.54438 0.0
Fe308 Fe 0.15789 0.52863 0.20104 0.0
Fe309 Fe 0.14522 0.72285 0.13484 0.0
O310 O 0.19402 0.63523 0.17287 0.0
Fe311 Fe 0.27982 0.65247 0.1777 0.0
O312 O 0.30625 0.52219 0.17747 0.0
O313 O 0.2144 0.44751 0.17056 0.0
O314 O 0.1096 0.50474 0.13579 0.0
C315 C 0.11032 0.54546 0.0874 0.0
C316 C 0.25845 0.58514 0.28233 0.0
O317 O 0.12521 0.63406 0.08211 0.0
C318 C 0.22607 0.84732 0.18625 0.0
O319 O 0.09185 0.59348 0.23532 0.0
O320 O 0.07083 0.70102 0.17078 0.0
O321 O 0.28157 0.65015 0.25151 0.0
O322 O 0.20721 0.53687 0.26794 0.0
C323 C 0.26015 0.72964 0.07802 0.0
O324 O 0.16678 0.82376 0.18146 0.0
O325 O 0.27079 0.78437 0.18226 0.0
C326 C 0.05357 0.6523 0.21208 0.0
O327 O 0.20636 0.76155 0.0905 0.0
O328 O 0.28614 0.65878 0.10324 0.0
C329 C 0.2737 0.44419 0.17786 0.0
Fe330 Fe 0.38537 0.50157 0.70104 0.0
Fe331 Fe 0.39804 0.30734 0.63484 0.0
O332 O 0.34925 0.39497 0.67287 0.0
Fe333 Fe 0.26344 0.37772 0.6777 0.0
O334 O 0.23701 0.508 0.67747 0.0
O335 O 0.32886 0.58268 0.67056 0.0
O336 O 0.43366 0.52545 0.63579 0.0
C337 C 0.43295 0.48473 0.5874 0.0
C338 C 0.28482 0.44506 0.78233 0.0
O339 O 0.41806 0.39613 0.58211 0.0
C340 C 0.31719 0.18287 0.68625 0.0
O341 O 0.45141 0.43672 0.73532 0.0
O342 O 0.47244 0.32918 0.67078 0.0
O343 O 0.26169 0.38005 0.75151 0.0
O344 O 0.33605 0.49332 0.76794 0.0
C345 C 0.28312 0.30056 0.57802 0.0
O346 O 0.37648 0.20643 0.68146 0.0
O347 O 0.27247 0.24583 0.68226 0.0
C348 C 0.48969 0.3779 0.71208 0.0
O349 O 0.3369 0.26865 0.5905 0.0
O350 O 0.25712 0.37142 0.60324 0.0
C351 C 0.26956 0.586 0.67786 0.0
loop_
_geom_bond_atom_site_label_1
_geom_bond_atom_site_label_2
_geom_bond_distance
_geom_bond_site_symmetry_2
_ccdc_geom_bond_type
Fe0 O2 1.918 . S
Fe0 O5 1.997 . S
Fe0 O6 2.002 . S
Fe0 O11 1.976 . S
Fe0 O14 1.996 . S
Fe1 O2 1.918 . S
Fe1 O9 1.997 . S
Fe1 O12 1.996 . S
Fe1 O16 1.976 . S
Fe1 O19 2.002 1_545 S
O2 Fe0 1.918 . S
O2 Fe1 1.918 . S
O2 Fe3 1.918 . S
Fe3 O2 1.918 . S
Fe3 O4 2.002 . S
Fe3 O13 1.976 . S
Fe3 O17 1.996 . S
Fe3 O20 1.997 . S
O4 Fe3 2.002 . S
O4 C21 1.295 . S
O5 Fe0 1.997 . S
O5 C21 1.235 . S
O6 Fe0 2.002 . S
O6 C7 1.295 . S
C7 O6 1.295 . S
C7 O9 1.235 . S
C8 O13 1.287 . S
C8 O14 1.255 . S
O9 Fe1 1.997 . S
O9 C7 1.235 . S
C10 O16 1.287 . S
C10 O17 1.255 . S
O11 Fe0 1.976 . S
O11 C18 1.287 . S
O12 Fe1 1.996 . S
O12 C18 1.255 . S
O13 Fe3 1.976 . S
O13 C8 1.287 . S
O14 Fe0 1.996 . S
O14 C8 1.255 . S
C15 O19 1.295 . S
C15 O20 1.235 1_565 S
O16 Fe1 1.976 . S
O16 C10 1.287 . S
O17 Fe3 1.996 . S
O17 C10 1.255 . S
C18 O11 1.287 . S
C18 O12 1.255 . S
O19 Fe1 2.002 1_565 S
O19 C15 1.295 . S
O20 Fe3 1.997 . S
O20 C15 1.235 1_545 S
C21 O4 1.295 . S
C21 O5 1.235 . S
Fe22 O24 1.918 . S
Fe22 O27 1.997 . S
Fe22 O28 2.002 . S
Fe22 O33 1.976 . S
Fe22 O36 1.996 . S
Fe23 O24 1.918 . S
Fe23 O31 1.997 . S
Fe23 O34 1.996 . S
Fe23 O38 1.976 . S
Fe23 O41 2.002 . S
O24 Fe22 1.918 . S
O24 Fe23 1.918 . S
O24 Fe25 1.918 . S
Fe25 O24 1.918 . S
Fe25 O26 2.002 1_565 S
Fe25 O35 1.976 . S
Fe25 O39 1.996 . S
Fe25 O42 1.997 . S
O26 Fe25 2.002 1_545 S
O26 C43 1.295 . S
O27 Fe22 1.997 . S
O27 C43 1.235 1_565 S
O28 Fe22 2.002 . S
O28 C29 1.295 . S
C29 O28 1.295 . S
C29 O31 1.235 . S
C30 O35 1.287 . S
C30 O36 1.255 . S
O31 Fe23 1.997 . S
O31 C29 1.235 . S
C32 O38 1.287 . S
C32 O39 1.255 . S
O33 Fe22 1.976 . S
O33 C40 1.287 . S
O34 Fe23 1.996 . S
O34 C40 1.255 . S
O35 Fe25 1.976 . S
O35 C30 1.287 . S
O36 Fe22 1.996 . S
O36 C30 1.255 . S
C37 O41 1.295 . S
C37 O42 1.235 . S
O38 Fe23 1.976 . S
O38 C32 1.287 . S
O39 Fe25 1.996 . S
O39 C32 1.255 . S
C40 O33 1.287 . S
C40 O34 1.255 . S
O41 Fe23 2.002 . S
O41 C37 1.295 . S
O42 Fe25 1.997 . S
O42 C37 1.235 . S
C43 O26 1.295 . S
C43 O27 1.235 1_545 S
Fe44 O46 1.918 . S
Fe44 O49 1.997 . S
Fe44 O50 2.002 1_565 S
Fe44 O55 1.976 . S
Fe44 O58 1.996 . S
Fe45 O46 1.918 . S
Fe45 O53 1.997 . S
Fe45 O56 1.996 . S
Fe45 O60 1.976 . S
Fe45 O63 2.002 . S
O46 Fe44 1.918 . S
O46 Fe45 1.918 . S
O46 Fe47 1.918 . S
Fe47 O46 1.918 . S
Fe47 O48 2.002 . S
Fe47 O57 1.976 . S
Fe47 O61 1.996 . S
Fe47 O64 1.997 . S
O48 Fe47 2.002 . S
O48 C65 1.295 . S
O49 Fe44 1.997 . S
O49 C65 1.235 . S
O50 Fe44 2.002 1_545 S
O50 C51 1.295 . S
C51 O50 1.295 . S
C51 O53 1.235 1_545 S
C52 O57 1.287 . S
C52 O58 1.255 . S
O53 Fe45 1.997 . S
O53 C51 1.235 1_565 S
C54 O60 1.287 . S
C54 O61 1.255 . S
O55 Fe44 1.976 . S
O55 C62 1.287 . S
O56 Fe45 1.996 . S
O56 C62 1.255 . S
O57 Fe47 1.976 . S
O57 C52 1.287 . S
O58 Fe44 1.996 . S
O58 C52 1.255 . S
C59 O63 1.295 . S
C59 O64 1.235 . S
O60 Fe45 1.976 . S
O60 C54 1.287 . S
O61 Fe47 1.996 . S
O61 C54 1.255 . S
C62 O55 1.287 . S
C62 O56 1.255 . S
O63 Fe45 2.002 . S
O63 C59 1.295 . S
O64 Fe47 1.997 . S
O64 C59 1.235 . S
C65 O48 1.295 . S
C65 O49 1.235 . S
Fe66 O68 1.918 . S
Fe66 O71 1.997 . S
Fe66 O72 2.002 . S
Fe66 O77 1.976 . S
Fe66 O80 1.996 . S
Fe67 O68 1.918 . S
Fe67 O75 1.997 . S
Fe67 O78 1.996 . S
Fe67 O82 1.976 . S
Fe67 O85 2.002 1_545 S
O68 Fe66 1.918 . S
O68 Fe67 1.918 . S
O68 Fe69 1.918 . S
Fe69 O68 1.918 . S
Fe69 O70 2.002 . S
Fe69 O79 1.976 . S
Fe69 O83 1.996 . S
Fe69 O86 1.997 . S
O70 Fe69 2.002 . S
O70 C87 1.295 . S
O71 Fe66 1.997 . S
O71 C87 1.235 . S
O72 Fe66 2.002 . S
O72 C73 1.295 . S
C73 O72 1.295 . S
C73 O75 1.235 . S
C74 O79 1.287 . S
C74 O80 1.255 . S
O75 Fe67 1.997 . S
O75 C73 1.235 . S
C76 O82 1.287 . S
C76 O83 1.255 . S
O77 Fe66 1.976 . S
O77 C84 1.287 . S
O78 Fe67 1.996 . S
O78 C84 1.255 . S
O79 Fe69 1.976 . S
O79 C74 1.287 . S
O80 Fe66 1.996 . S
O80 C74 1.255 . S
C81 O85 1.295 . S
C81 O86 1.235 1_565 S
O82 Fe67 1.976 . S
O82 C76 1.287 . S
O83 Fe69 1.996 . S
O83 C76 1.255 . S
C84 O77 1.287 . S
C84 O78 1.255 . S
O85 Fe67 2.002 1_565 S
O85 C81 1.295 . S
O86 Fe69 1.997 . S
O86 C81 1.235 1_545 S
C87 O70 1.295 . S
C87 O71 1.235 . S
Fe88 O90 1.918 . S
Fe88 O93 1.997 1_565 S
Fe88 O94 2.002 1_565 S
Fe88 O99 1.976 . S
Fe88 O102 1.996 . S
Fe89 O90 1.918 . S
Fe89 O97 1.997 . S
Fe89 O100 1.996 . S
Fe89 O104 1.976 . S
Fe89 O107 2.002 . S
O90 Fe88 1.918 . S
O90 Fe89 1.918 . S
O90 Fe91 1.918 . S
Fe91 O90 1.918 . S
Fe91 O92 2.002 . S
Fe91 O101 1.976 . S
Fe91 O105 1.996 . S
Fe91 O108 1.997 . S
O92 Fe91 2.002 . S
O92 C109 1.295 1_565 S
O93 Fe88 1.997 1_545 S
O93 C109 1.235 . S
O94 Fe88 2.002 1_545 S
O94 C95 1.295 1_545 S
C95 O94 1.295 1_565 S
C95 O97 1.235 . S
C96 O101 1.287 . S
C96 O102 1.255 . S
O97 Fe89 1.997 . S
O97 C95 1.235 . S
C98 O104 1.287 . S
C98 O105 1.255 . S
O99 Fe88 1.976 . S
O99 C106 1.287 . S
O100 Fe89 1.996 . S
O100 C106 1.255 . S
O101 Fe91 1.976 . S
O101 C96 1.287 . S
O102 Fe88 1.996 . S
O102 C96 1.255 . S
C103 O107 1.295 . S
C103 O108 1.235 . S
O104 Fe89 1.976 . S
O104 C98 1.287 . S
O105 Fe91 1.996 . S
O105 C98 1.255 . S
C106 O99 1.287 . S
C106 O100 1.255 . S
O107 Fe89 2.002 . S
O107 C103 1.295 . S
O108 Fe91 1.997 . S
O108 C103 1.235 . S
C109 O92 1.295 1_545 S
C109 O93 1.235 . S
Fe110 O112 1.918 . S
Fe110 O115 1.997 . S
Fe110 O116 2.002 . S
Fe110 O121 1.976 . S
Fe110 O124 1.996 . S
Fe111 O112 1.918 . S
Fe111 O119 1.997 . S
Fe111 O122 1.996 . S
Fe111 O126 1.976 . S
Fe111 O129 2.002 . S
O112 Fe110 1.918 . S
O112 Fe111 1.918 . S
O112 Fe113 1.918 . S
Fe113 O112 1.918 . S
Fe113 O114 2.002 1_545 S
Fe113 O123 1.976 . S
Fe113 O127 1.996 . S
Fe113 O130 1.997 1_545 S
O114 Fe113 2.002 1_565 S
O114 C131 1.295 1_565 S
O115 Fe110 1.997 . S
O115 C131 1.235 . S
O116 Fe110 2.002 . S
O116 C117 1.295 . S
C117 O116 1.295 . S
C117 O119 1.235 . S
C118 O123 1.287 . S
C118 O124 1.255 . S
O119 Fe111 1.997 . S
O119 C117 1.235 . S
C120 O126 1.287 . S
C120 O127 1.255 . S
O121 Fe110 1.976 . S
O121 C128 1.287 . S
O122 Fe111 1.996 . S
O122 C128 1.255 . S
O123 Fe113 1.976 . S
O123 C118 1.287 . S
O124 Fe110 1.996 . S
O124 C118 1.255 . S
C125 O129 1.295 1_565 S
C125 O130 1.235 . S
O126 Fe111 1.976 . S
O126 C120 1.287 . S
O127 Fe113 1.996 . S
O127 C120 1.255 . S
C128 O121 1.287 . S
C128 O122 1.255 . S
O129 Fe111 2.002 . S
O129 C125 1.295 1_545 S
O130 Fe113 1.997 1_565 S
O130 C125 1.235 . S
C131 O114 1.295 1_545 S
C131 O115 1.235 . S
Fe132 O134 1.918 . S
Fe132 O137 1.997 1_545 S
Fe132 O138 2.002 1_545 S
Fe132 O143 1.976 . S
Fe132 O146 1.996 . S
Fe133 O134 1.918 . S
Fe133 O141 1.997 . S
Fe133 O144 1.996 . S
Fe133 O148 1.976 . S
Fe133 O151 2.002 . S
O134 Fe132 1.918 . S
O134 Fe133 1.918 . S
O134 Fe135 1.918 . S
Fe135 O134 1.918 . S
Fe135 O136 2.002 . S
Fe135 O145 1.976 . S
Fe135 O149 1.996 . S
Fe135 O152 1.997 . S
O136 Fe135 2.002 . S
O136 C153 1.295 1_545 S
O137 Fe132 1.997 1_565 S
O137 C153 1.235 . S
O138 Fe132 2.002 1_565 S
O138 C139 1.295 1_565 S
C139 O138 1.295 1_545 S
C139 O141 1.235 . S
C140 O145 1.287 . S
C140 O146 1.255 . S
O141 Fe133 1.997 . S
O141 C139 1.235 . S
C142 O148 1.287 . S
C142 O149 1.255 . S
O143 Fe132 1.976 . S
O143 C150 1.287 . S
O144 Fe133 1.996 . S
O144 C150 1.255 . S
O145 Fe135 1.976 . S
O145 C140 1.287 . S
O146 Fe132 1.996 . S
O146 C140 1.255 . S
C147 O151 1.295 . S
C147 O152 1.235 . S
O148 Fe133 1.976 . S
O148 C142 1.287 . S
O149 Fe135 1.996 . S
O149 C142 1.255 . S
C150 O143 1.287 . S
C150 O144 1.255 . S
O151 Fe133 2.002 . S
O151 C147 1.295 . S
O152 Fe135 1.997 . S
O152 C147 1.235 . S
C153 O136 1.295 1_565 S
C153 O137 1.235 . S
Fe154 O156 1.918 . S
Fe154 O159 1.997 . S
Fe154 O160 2.002 . S
Fe154 O165 1.976 . S
Fe154 O168 1.996 . S
Fe155 O156 1.918 . S
Fe155 O163 1.997 . S
Fe155 O166 1.996 . S
Fe155 O170 1.976 . S
Fe155 O173 2.002 . S
O156 Fe154 1.918 . S
O156 Fe155 1.918 . S
O156 Fe157 1.918 . S
Fe157 O156 1.918 . S
Fe157 O158 2.002 1_565 S
Fe157 O167 1.976 . S
Fe157 O171 1.996 . S
Fe157 O174 1.997 1_565 S
O158 Fe157 2.002 1_545 S
O158 C175 1.295 1_545 S
O159 Fe154 1.997 . S
O159 C175 1.235 . S
O160 Fe154 2.002 . S
O160 C161 1.295 . S
C161 O160 1.295 . S
C161 O163 1.235 . S
C162 O167 1.287 . S
C162 O168 1.255 . S
O163 Fe155 1.997 . S
O163 C161 1.235 . S
C164 O170 1.287 . S
C164 O171 1.255 . S
O165 Fe154 1.976 . S
O165 C172 1.287 . S
O166 Fe155 1.996 . S
O166 C172 1.255 . S
O167 Fe157 1.976 . S
O167 C162 1.287 . S
O168 Fe154 1.996 . S
O168 C162 1.255 . S
C169 O173 1.295 1_545 S
C169 O174 1.235 . S
O170 Fe155 1.976 . S
O170 C164 1.287 . S
O171 Fe157 1.996 . S
O171 C164 1.255 . S
C172 O165 1.287 . S
C172 O166 1.255 . S
O173 Fe155 2.002 . S
O173 C169 1.295 1_565 S
O174 Fe157 1.997 1_545 S
O174 C169 1.235 . S
C175 O158 1.295 1_565 S
C175 O159 1.235 . S
Fe176 O178 1.918 . S
Fe176 O181 1.997 . S
Fe176 O182 2.002 . S
Fe176 O187 1.976 . S
Fe176 O190 1.996 . S
Fe177 O178 1.918 . S
Fe177 O185 1.997 . S
Fe177 O188 1.996 . S
Fe177 O192 1.976 . S
Fe177 O195 2.002 . S
O178 Fe176 1.918 . S
O178 Fe177 1.918 . S
O178 Fe179 1.918 . S
Fe179 O178 1.918 . S
Fe179 O180 2.002 . S
Fe179 O189 1.976 . S
Fe179 O193 1.996 . S
Fe179 O196 1.997 . S
O180 Fe179 2.002 . S
O180 C197 1.295 . S
O181 Fe176 1.997 . S
O181 C197 1.235 . S
O182 Fe176 2.002 . S
O182 C183 1.295 . S
C183 O182 1.295 . S
C183 O185 1.235 . S
C184 O189 1.287 . S
C184 O190 1.255 . S
O185 Fe177 1.997 . S
O185 C183 1.235 . S
C186 O192 1.287 . S
C186 O193 1.255 . S
O187 Fe176 1.976 . S
O187 C194 1.287 . S
O188 Fe177 1.996 . S
O188 C194 1.255 . S
O189 Fe179 1.976 . S
O189 C184 1.287 . S
O190 Fe176 1.996 . S
O190 C184 1.255 . S
C191 O195 1.295 . S
C191 O196 1.235 . S
O192 Fe177 1.976 . S
O192 C186 1.287 . S
O193 Fe179 1.996 . S
O193 C186 1.255 . S
C194 O187 1.287 . S
C194 O188 1.255 . S
O195 Fe177 2.002 . S
O195 C191 1.295 . S
O196 Fe179 1.997 . S
O196 C191 1.235 . S
C197 O180 1.295 . S
C197 O181 1.235 . S
Fe198 O200 1.918 . S
Fe198 O203 1.997 . S
Fe198 O204 2.002 . S
Fe198 O209 1.976 . S
Fe198 O212 1.996 . S
Fe199 O200 1.918 . S
Fe199 O207 1.997 . S
Fe199 O210 1.996 . S
Fe199 O214 1.976 . S
Fe199 O217 2.002 . S
O200 Fe198 1.918 . S
O200 Fe199 1.918 . S
O200 Fe201 1.918 . S
Fe201 O200 1.918 . S
Fe201 O202 2.002 . S
Fe201 O211 1.976 . S
Fe201 O215 1.996 . S
Fe201 O218 1.997 . S
O202 Fe201 2.002 . S
O202 C219 1.295 . S
O203 Fe198 1.997 . S
O203 C219 1.235 . S
O204 Fe198 2.002 . S
O204 C205 1.295 . S
C205 O204 1.295 . S
C205 O207 1.235 . S
C206 O211 1.287 . S
C206 O212 1.255 . S
O207 Fe199 1.997 . S
O207 C205 1.235 . S
C208 O214 1.287 . S
C208 O215 1.255 . S
O209 Fe198 1.976 . S
O209 C216 1.287 . S
O210 Fe199 1.996 . S
O210 C216 1.255 . S
O211 Fe201 1.976 . S
O211 C206 1.287 . S
O212 Fe198 1.996 . S
O212 C206 1.255 . S
C213 O217 1.295 . S
C213 O218 1.235 . S
O214 Fe199 1.976 . S
O214 C208 1.287 . S
O215 Fe201 1.996 . S
O215 C208 1.255 . S
C216 O209 1.287 . S
C216 O210 1.255 . S
O217 Fe199 2.002 . S
O217 C213 1.295 . S
O218 Fe201 1.997 . S
O218 C213 1.235 . S
C219 O202 1.295 . S
C219 O203 1.235 . S
Fe220 O222 1.918 . S
Fe220 O225 1.997 . S
Fe220 O226 2.002 . S
Fe220 O231 1.976 . S
Fe220 O234 1.996 . S
Fe221 O222 1.918 . S
Fe221 O229 1.997 . S
Fe221 O232 1.996 . S
Fe221 O236 1.976 . S
Fe221 O239 2.002 . S
O222 Fe220 1.918 . S
O222 Fe221 1.918 . S
O222 Fe223 1.918 . S
Fe223 O222 1.918 . S
Fe223 O224 2.002 . S
Fe223 O233 1.976 . S
Fe223 O237 1.996 . S
Fe223 O240 1.997 . S
O224 Fe223 2.002 . S
O224 C241 1.295 . S
O225 Fe220 1.997 . S
O225 C241 1.235 . S
O226 Fe220 2.002 . S
O226 C227 1.295 . S
C227 O226 1.295 . S
C227 O229 1.235 . S
C228 O233 1.287 . S
C228 O234 1.255 . S
O229 Fe221 1.997 . S
O229 C227 1.235 . S
C230 O236 1.287 . S
C230 O237 1.255 . S
O231 Fe220 1.976 . S
O231 C238 1.287 . S
O232 Fe221 1.996 . S
O232 C238 1.255 . S
O233 Fe223 1.976 . S
O233 C228 1.287 . S
O234 Fe220 1.996 . S
O234 C228 1.255 . S
C235 O239 1.295 . S
C235 O240 1.235 . S
O236 Fe221 1.976 . S
O236 C230 1.287 . S
O237 Fe223 1.996 . S
O237 C230 1.255 . S
C238 O231 1.287 . S
C238 O232 1.255 . S
O239 Fe221 2.002 . S
O239 C235 1.295 . S
O240 Fe223 1.997 . S
O240 C235 1.235 . S
C241 O224 1.295 . S
C241 O225 1.235 . S
Fe242 O244 1.918 . S
Fe242 O247 1.997 . S
Fe242 O248 2.002 . S
Fe242 O253 1.976 . S
Fe242 O256 1.996 . S
Fe243 O244 1.918 . S
Fe243 O251 1.997 . S
Fe243 O254 1.996 . S
Fe243 O258 1.976 . S
Fe243 O261 2.002 . S
O244 Fe242 1.918 . S
O244 Fe243 1.918 . S
O244 Fe245 1.918 . S
Fe245 O244 1.918 . S
Fe245 O246 2.002 . S
Fe245 O255 1.976 . S
Fe245 O259 1.996 . S
Fe245 O262 1.997 . S
O246 Fe245 2.002 . S
O246 C263 1.295 . S
O247 Fe242 1.997 . S
O247 C263 1.235 . S
O248 Fe242 2.002 . S
O248 C249 1.295 . S
C249 O248 1.295 . S
C249 O251 1.235 . S
C250 O255 1.287 . S
C250 O256 1.255 . S
O251 Fe243 1.997 . S
O251 C249 1.235 . S
C252 O258 1.287 . S
C252 O259 1.255 . S
O253 Fe242 1.976 . S
O253 C260 1.287 . S
O254 Fe243 1.996 . S
O254 C260 1.255 . S
O255 Fe245 1.976 . S
O255 C250 1.287 . S
O256 Fe242 1.996 . S
O256 C250 1.255 . S
C257 O261 1.295 . S
C257 O262 1.235 . S
O258 Fe243 1.976 . S
O258 C252 1.287 . S
O259 Fe245 1.996 . S
O259 C252 1.255 . S
C260 O253 1.287 . S
C260 O254 1.255 . S
O261 Fe243 2.002 . S
O261 C257 1.295 . S
O262 Fe245 1.997 . S
O262 C257 1.235 . S
C263 O246 1.295 . S
C263 O247 1.235 . S
Fe264 O266 1.918 . S
Fe264 O269 1.997 . S
Fe264 O270 2.002 . S
Fe264 O275 1.976 . S
Fe264 O278 1.996 . S
Fe265 O266 1.918 . S
Fe265 O273 1.997 . S
Fe265 O276 1.996 . S
Fe265 O280 1.976 . S
Fe265 O283 2.002 . S
O266 Fe264 1.918 . S
O266 Fe265 1.918 . S
O266 Fe267 1.918 . S
Fe267 O266 1.918 . S
Fe267 O268 2.002 . S
Fe267 O277 1.976 . S
Fe267 O281 1.996 . S
Fe267 O284 1.997 . S
O268 Fe267 2.002 . S
O268 C285 1.295 . S
O269 Fe264 1.997 . S
O269 C285 1.235 . S
O270 Fe264 2.002 . S
O270 C271 1.295 . S
C271 O270 1.295 . S
C271 O273 1.235 . S
C272 O277 1.287 . S
C272 O278 1.255 . S
O273 Fe265 1.997 . S
O273 C271 1.235 . S
C274 O280 1.287 . S
C274 O281 1.255 . S
O275 Fe264 1.976 . S
O275 C282 1.287 . S
O276 Fe265 1.996 . S
O276 C282 1.255 . S
O277 Fe267 1.976 . S
O277 C272 1.287 . S
O278 Fe264 1.996 . S
O278 C272 1.255 . S
C279 O283 1.295 . S
C279 O284 1.235 . S
O280 Fe265 1.976 . S
O280 C274 1.287 . S
O281 Fe267 1.996 . S
O281 C274 1.255 . S
C282 O275 1.287 . S
C282 O276 1.255 . S
O283 Fe265 2.002 . S
O283 C279 1.295 . S
O284 Fe267 1.997 . S
O284 C279 1.235 . S
C285 O268 1.295 . S
C285 O269 1.235 . S
Fe286 O288 1.918 . S
Fe286 O291 1.997 . S
Fe286 O292 2.002 . S
Fe286 O297 1.976 . S
Fe286 O300 1.996 . S
Fe287 O288 1.918 . S
Fe287 O295 1.997 . S
Fe287 O298 1.996 . S
Fe287 O302 1.976 . S
Fe287 O305 2.002 . S
O288 Fe286 1.918 . S
O288 Fe287 1.918 . S
O288 Fe289 1.918 . S
Fe289 O288 1.918 . S
Fe289 O290 2.002 . S
Fe289 O299 1.976 . S
Fe289 O303 1.996 . S
Fe289 O306 1.997 . S
O290 Fe289 2.002 . S
O290 C307 1.295 . S
O291 Fe286 1.997 . S
O291 C307 1.235 . S
O292 Fe286 2.002 . S
O292 C293 1.295 . S
C293 O292 1.295 . S
C293 O295 1.235 . S
C294 O299 1.287 . S
C294 O300 1.255 . S
O295 Fe287 1.997 . S
O295 C293 1.235 . S
C296 O302 1.287 . S
C296 O303 1.255 . S
O297 Fe286 1.976 . S
O297 C304 1.287 . S
O298 Fe287 1.996 . S
O298 C304 1.255 . S
O299 Fe289 1.976 . S
O299 C294 1.287 . S
O300 Fe286 1.996 . S
O300 C294 1.255 . S
C301 O305 1.295 . S
C301 O306 1.235 . S
O302 Fe287 1.976 . S
O302 C296 1.287 . S
O303 Fe289 1.996 . S
O303 C296 1.255 . S
C304 O297 1.287 . S
C304 O298 1.255 . S
O305 Fe287 2.002 . S
O305 C301 1.295 . S
O306 Fe289 1.997 . S
O306 C301 1.235 . S
C307 O290 1.295 . S
C307 O291 1.235 . S
Fe308 O310 1.918 . S
Fe308 O313 1.997 . S
Fe308 O314 2.002 . S
Fe308 O319 1.976 . S
Fe308 O322 1.996 . S
Fe309 O310 1.918 . S
Fe309 O317 1.997 . S
Fe309 O320 1.996 . S
Fe309 O324 1.976 . S
Fe309 O327 2.002 . S
O310 Fe308 1.918 . S
O310 Fe309 1.918 . S
O310 Fe311 1.918 . S
Fe311 O310 1.918 . S
Fe311 O312 2.002 . S
Fe311 O321 1.976 . S
Fe311 O325 1.996 . S
Fe311 O328 1.997 . S
O312 Fe311 2.002 . S
O312 C329 1.295 . S
O313 Fe308 1.997 . S
O313 C329 1.235 . S
O314 Fe308 2.002 . S
O314 C315 1.295 . S
C315 O314 1.295 . S
C315 O317 1.235 . S
C316 O321 1.287 . S
C316 O322 1.255 . S
O317 Fe309 1.997 . S
O317 C315 1.235 . S
C318 O324 1.287 . S
C318 O325 1.255 . S
O319 Fe308 1.976 . S
O319 C326 1.287 . S
O320 Fe309 1.996 . S
O320 C326 1.255 . S
O321 Fe311 1.976 . S
O321 C316 1.287 . S
O322 Fe308 1.996 . S
O322 C316 1.255 . S
C323 O327 1.295 . S
C323 O328 1.235 . S
O324 Fe309 1.976 . S
O324 C318 1.287 . S
O325 Fe311 1.996 . S
O325 C318 1.255 . S
C326 O319 1.287 . S
C326 O320 1.255 . S
O327 Fe309 2.002 . S
O327 C323 1.295 . S
O328 Fe311 1.997 . S
O328 C323 1.235 . S
C329 O312 1.295 . S
C329 O313 1.235 . S
Fe330 O332 1.918 . S
Fe330 O335 1.997 . S
Fe330 O336 2.002 . S
Fe330 O341 1.976 . S
Fe330 O344 1.996 . S
Fe331 O332 1.918 . S
Fe331 O339 1.997 . S
Fe331 O342 1.996 . S
Fe331 O346 1.976 . S
Fe331 O349 2.002 . S
O332 Fe330 1.918 . S
O332 Fe331 1.918 . S
O332 Fe333 1.918 . S
Fe333 O332 1.918 . S
Fe333 O334 2.002 . S
Fe333 O343 1.976 . S
Fe333 O347 1.996 . S
Fe333 O350 1.997 . S
O334 Fe333 2.002 . S
O334 C351 1.295 . S
O335 Fe330 1.997 . S
O335 C351 1.235 . S
O336 Fe330 2.002 . S
O336 C337 1.295 . S
C337 O336 1.295 . S
C337 O339 1.235 . S
C338 O343 1.287 . S
C338 O344 1.255 . S
O339 Fe331 1.997 . S
O339 C337 1.235 . S
C340 O346 1.287 . S
C340 O347 1.255 . S
O341 Fe330 1.976 . S
O341 C348 1.287 . S
O342 Fe331 1.996 . S
O342 C348 1.255 . S
O343 Fe333 1.976 . S
O343 C338 1.287 . S
O344 Fe330 1.996 . S
O344 C338 1.255 . S
C345 O349 1.295 . S
C345 O350 1.235 . S
O346 Fe331 1.976 . S
O346 C340 1.287 . S
O347 Fe333 1.996 . S
O347 C340 1.255 . S
C348 O341 1.287 . S
C348 O342 1.255 . S
O349 Fe331 2.002 . S
O349 C345 1.295 . S
O350 Fe333 1.997 . S
O350 C345 1.235 . S
C351 O334 1.295 . S
C351 O335 1.235 . S
C21 C279 1.656 1_554 S
C307 C29 1.656 . S
C323 C59 1.656 1_554 S
C345 C87 1.656 . S
C103 C197 1.656 1_556 S
C219 C117 1.656 . S
C147 C241 1.656 1_554 S
C263 C161 1.656 . S
C65 C7 1.994 1_566 S
C37 C73 1.994 1_565 S
C95 C139 2.003 1_566 S
C175 C131 2.003 1_565 S
C183 C227 1.994 1_554 S
C249 C205 1.994 . S
C315 C271 2.003 1_554 S
C337 C301 2.003 . S
C10 C76 2.305 . S
C62 C30 2.305 . S
C164 C96 2.393 . S
C140 C120 2.393 . S
C252 C186 2.305 . S
C230 C208 2.305 . S
C272 C338 2.393 . S
C316 C304 2.393 . S
C18 C150 1.482 . S
C32 C162 1.482 1_455 S
C106 C52 1.482 . S
C118 C84 1.482 1_655 S
C194 C326 1.482 1_655 S
C216 C348 1.482 . S
C282 C238 1.482 1_455 S
C296 C260 1.482 . S
C15 C318 1.469 . S
C43 C340 1.469 . S
C274 C51 1.469 . S
C294 C81 1.469 . S
C228 C109 1.502 . S
C125 C250 1.502 . S
C153 C184 1.502 . S
C206 C169 1.502 . S
C142 C191 1.469 . S
C213 C172 1.469 . S
C98 C235 1.469 . S
C257 C128 1.469 . S
C54 C285 1.502 . S
C293 C74 1.502 . S
C329 C8 1.502 . S
C40 C351 1.502 . S
