# Generated by pormake.
# Topology yfz, (5)-cn, num edge types: 1
# Building blocks:
#     Node 0, Type 0, BuildingBlock: XOMCOT_clean_sbu_1, # of connection points: 5
#     Node 1, Type 0, BuildingBlock: XOMCOT_clean_sbu_1, # of connection points: 5
#     Node 2, Type 0, BuildingBlock: XOMCOT_clean_sbu_1, # of connection points: 5
#     Node 3, Type 0, BuildingBlock: XOMCOT_clean_sbu_1, # of connection points: 5
#     Node 4, Type 0, BuildingBlock: XOMCOT_clean_sbu_1, # of connection points: 5
#     Node 5, Type 0, BuildingBlock: XOMCOT_clean_sbu_1, # of connection points: 5
#     Node 6, Type 0, BuildingBlock: XOMCOT_clean_sbu_1, # of connection points: 5
#     Node 7, Type 0, BuildingBlock: XOMCOT_clean_sbu_1, # of connection points: 5
#     Edge 8, Type (0, 0), BuildingBlock: EYOCIG_clean_linker_4, # of connection points: 2
#     Edge 9, Type (0, 0), BuildingBlock: EYOCIG_clean_linker_4, # of connection points: 2
#     Edge 10, Type (0, 0), BuildingBlock: EYOCIG_clean_linker_4, # of connection points: 2
#     Edge 11, Type (0, 0), BuildingBlock: EYOCIG_clean_linker_4, # of connection points: 2
#     Edge 12, Type (0, 0), BuildingBlock: EYOCIG_clean_linker_4, # of connection points: 2
#     Edge 13, Type (0, 0), BuildingBlock: EYOCIG_clean_linker_4, # of connection points: 2
#     Edge 14, Type (0, 0), BuildingBlock: EYOCIG_clean_linker_4, # of connection points: 2
#     Edge 15, Type (0, 0), BuildingBlock: EYOCIG_clean_linker_4, # of connection points: 2
#     Edge 16, Type (0, 0), BuildingBlock: EYOCIG_clean_linker_4, # of connection points: 2
#     Edge 17, Type (0, 0), BuildingBlock: EYOCIG_clean_linker_4, # of connection points: 2
#     Edge 18, Type (0, 0), BuildingBlock: EYOCIG_clean_linker_4, # of connection points: 2
#     Edge 19, Type (0, 0), BuildingBlock: EYOCIG_clean_linker_4, # of connection points: 2
#     Edge 20, Type (0, 0), BuildingBlock: EYOCIG_clean_linker_4, # of connection points: 2
#     Edge 21, Type (0, 0), BuildingBlock: EYOCIG_clean_linker_4, # of connection points: 2
#     Edge 22, Type (0, 0), BuildingBlock: EYOCIG_clean_linker_4, # of connection points: 2
#     Edge 23, Type (0, 0), BuildingBlock: EYOCIG_clean_linker_4, # of connection points: 2
#     Edge 24, Type (0, 0), BuildingBlock: EYOCIG_clean_linker_4, # of connection points: 2
#     Edge 25, Type (0, 0), BuildingBlock: EYOCIG_clean_linker_4, # of connection points: 2
#     Edge 26, Type (0, 0), BuildingBlock: EYOCIG_clean_linker_4, # of connection points: 2
#     Edge 27, Type (0, 0), BuildingBlock: EYOCIG_clean_linker_4, # of connection points: 2
# Relax obj value: 0.151
# Max RMSD: 0.137
# Mean RMSD: 0.137
data_MOF--net-yfz--node1-XOMCOT_clean_sbu_1--edge1-EYOCIG_clean_linker_4
_symmetry_space_group_name_H-M    P1
_symmetry_Int_Tables_number       1
_symmetry_cell_setting            triclinic
loop_
_symmetry_equiv_pos_as_xyz
'x, y, z'
_cell_length_a     42.448664
_cell_length_b     42.449229
_cell_length_c     14.344218
_cell_angle_alpha  90.012515
_cell_angle_beta   90.00396
_cell_angle_gamma 90.019802
loop_
_atom_site_label
_atom_site_type_symbol
_atom_site_fract_x
_atom_site_fract_y
_atom_site_fract_z
_atom_type_partial_charge
C0 C 0.54386 0.04589 0.19123 0.0
C1 C 0.54063 0.04368 0.09601 0.0
N2 N 0.53529 0.07274 0.06294 0.0
N3 N 0.5405 0.07624 0.2176 0.0
C4 C 0.53493 0.09207 0.13737 0.0
H5 H 0.55023 0.02686 0.23758 0.0
Co6 Co 0.54849 0.09061 0.33854 0.0
C7 C 0.55814 0.15972 0.28503 0.0
O8 O 0.58894 0.159 0.28922 0.0
N9 N 0.55611 0.1046 0.46186 0.0
C10 C 0.57294 0.13073 0.58752 0.0
C11 C 0.57418 0.12887 0.49193 0.0
C12 C 0.54471 0.09172 0.54136 0.0
N13 N 0.55436 0.10738 0.61763 0.0
O14 O 0.50453 0.08741 0.36732 0.0
H15 H 0.58839 0.14381 0.44862 0.0
H16 H 0.5301 0.07092 0.54419 0.0
O17 O 0.54162 0.13503 0.30062 0.0
C18 C 0.49681 0.05963 0.39184 0.0
O19 O 0.51816 0.03729 0.39005 0.0
N20 N 0.5921 0.09012 0.31274 0.0
C21 C 0.65615 0.08032 0.2848 0.0
C22 C 0.63836 0.09629 0.21793 0.0
C23 C 0.60605 0.10037 0.23228 0.0
C24 C 0.60906 0.07269 0.3751 0.0
C25 C 0.64129 0.06795 0.3633 0.0
H26 H 0.59248 0.1122 0.17922 0.0
H27 H 0.59749 0.06201 0.43431 0.0
H28 H 0.53311 0.11743 0.1324 0.0
H29 H 0.54392 0.02278 0.05383 0.0
H30 H 0.58517 0.14747 0.63153 0.0
H31 H 0.64929 0.10555 0.1554 0.0
H32 H 0.65442 0.05475 0.41499 0.0
C33 C 0.42289 0.54401 0.69169 0.0
C34 C 0.42511 0.54069 0.5965 0.0
N35 N 0.39607 0.53523 0.56346 0.0
N36 N 0.39255 0.54057 0.71806 0.0
C37 C 0.37674 0.53489 0.63786 0.0
H38 H 0.44192 0.55043 0.73805 0.0
Co39 Co 0.37819 0.54839 0.83904 0.0
C40 C 0.30906 0.55802 0.78559 0.0
O41 O 0.30975 0.58882 0.79002 0.0
N42 N 0.3642 0.55583 0.9624 0.0
C43 C 0.33807 0.57245 0.08823 0.0
C44 C 0.33991 0.57382 0.99266 0.0
C45 C 0.37711 0.54435 0.04176 0.0
N46 N 0.36143 0.55387 0.11813 0.0
O47 O 0.38137 0.50441 0.86729 0.0
H48 H 0.32496 0.58806 0.94951 0.0
H49 H 0.39793 0.52978 0.04441 0.0
O50 O 0.33377 0.54154 0.80104 0.0
C51 C 0.40915 0.49662 0.89166 0.0
O52 O 0.43153 0.51793 0.88998 0.0
N53 N 0.37867 0.59206 0.81378 0.0
C54 C 0.3883 0.65619 0.78672 0.0
C55 C 0.3724 0.63843 0.71956 0.0
C56 C 0.36841 0.60609 0.73346 0.0
C57 C 0.39604 0.60899 0.87642 0.0
C58 C 0.40069 0.64125 0.86505 0.0
H59 H 0.35664 0.59254 0.68019 0.0
H60 H 0.40673 0.59737 0.93552 0.0
H61 H 0.35138 0.53294 0.6329 0.0
H62 H 0.44602 0.54397 0.55432 0.0
H63 H 0.32132 0.5846 0.13238 0.0
H64 H 0.36313 0.64942 0.65714 0.0
H65 H 0.41384 0.65435 0.91697 0.0
C66 C 0.9246 0.42247 0.19144 0.0
C67 C 0.92795 0.42461 0.09625 0.0
N68 N 0.93342 0.39554 0.06341 0.0
N69 N 0.92803 0.39215 0.21802 0.0
C70 C 0.93373 0.37628 0.13794 0.0
H71 H 0.91816 0.44153 0.23764 0.0
Co72 Co 0.92011 0.37787 0.33902 0.0
C73 C 0.91039 0.30871 0.28593 0.0
O74 O 0.87959 0.30947 0.29007 0.0
N75 N 0.91257 0.36393 0.4624 0.0
C76 C 0.89571 0.33787 0.58807 0.0
C77 C 0.89434 0.3398 0.49252 0.0
C78 C 0.92421 0.37667 0.54183 0.0
N79 N 0.91454 0.36103 0.61811 0.0
O80 O 0.96409 0.38108 0.36753 0.0
H81 H 0.87991 0.32504 0.44927 0.0
H82 H 0.939 0.39734 0.54462 0.0
O83 O 0.92693 0.3334 0.3013 0.0
C84 C 0.97181 0.40889 0.39179 0.0
O85 O 0.95044 0.43121 0.38998 0.0
N86 N 0.87647 0.37837 0.31346 0.0
C87 C 0.8124 0.38825 0.28583 0.0
C88 C 0.83014 0.37224 0.21887 0.0
C89 C 0.86246 0.36812 0.23306 0.0
C90 C 0.85956 0.39583 0.37588 0.0
C91 C 0.82733 0.4006 0.36424 0.0
H92 H 0.876 0.35628 0.17994 0.0
H93 H 0.87118 0.40651 0.43503 0.0
H94 H 0.93566 0.35091 0.13315 0.0
H95 H 0.92467 0.44548 0.05392 0.0
H96 H 0.88339 0.32122 0.63213 0.0
H97 H 0.81916 0.36299 0.15638 0.0
H98 H 0.81426 0.41383 0.416 0.0
C99 C 0.04575 0.9247 0.69233 0.0
C100 C 0.04346 0.92786 0.59711 0.0
N101 N 0.07252 0.93301 0.56374 0.0
N102 N 0.07615 0.92793 0.71841 0.0
C103 C 0.09192 0.93334 0.63798 0.0
H104 H 0.02672 0.91848 0.7389 0.0
Co105 Co 0.0906 0.92 0.83929 0.0
C106 C 0.15969 0.9104 0.78514 0.0
O107 O 0.15899 0.8796 0.78927 0.0
N108 N 0.10466 0.91244 0.96254 0.0
C109 C 0.1309 0.89582 0.08817 0.0
C110 C 0.12914 0.89467 0.99255 0.0
C111 C 0.09156 0.92357 0.04208 0.0
N112 N 0.10729 0.91404 0.11834 0.0
O113 O 0.08743 0.96397 0.86802 0.0
H114 H 0.14432 0.88074 0.9492 0.0
H115 H 0.07058 0.93789 0.04492 0.0
O116 O 0.13501 0.92688 0.80104 0.0
C117 C 0.05969 0.97167 0.89294 0.0
O118 O 0.03733 0.95032 0.89136 0.0
N119 N 0.09008 0.87637 0.81366 0.0
C120 C 0.08038 0.81226 0.78654 0.0
C121 C 0.09628 0.83 0.71935 0.0
C122 C 0.1003 0.86234 0.73328 0.0
C123 C 0.07269 0.85946 0.87626 0.0
C124 C 0.06801 0.82721 0.86487 0.0
H125 H 0.11208 0.87586 0.68002 0.0
H126 H 0.06202 0.87108 0.93538 0.0
H127 H 0.11729 0.93503 0.63277 0.0
H128 H 0.02249 0.92465 0.55515 0.0
H129 H 0.14779 0.8838 0.13214 0.0
H130 H 0.10554 0.81899 0.65692 0.0
H131 H 0.05486 0.81413 0.91678 0.0
C132 C 0.54382 0.42256 0.33126 0.0
C133 C 0.54049 0.42471 0.42647 0.0
N134 N 0.53513 0.39563 0.45933 0.0
N135 N 0.5405 0.39222 0.3047 0.0
C136 C 0.53487 0.37635 0.3848 0.0
H137 H 0.5502 0.44164 0.28505 0.0
Co138 Co 0.54849 0.37793 0.1837 0.0
C139 C 0.55825 0.30883 0.23709 0.0
O140 O 0.58905 0.3096 0.23302 0.0
N141 N 0.5561 0.36398 0.06035 0.0
C142 C 0.57288 0.33784 0.9347 0.0
C143 C 0.57421 0.33976 0.03027 0.0
C144 C 0.54459 0.37678 0.98088 0.0
N145 N 0.5542 0.3611 0.90461 0.0
O146 O 0.50453 0.38101 0.15502 0.0
H147 H 0.58849 0.32489 0.07356 0.0
H148 H 0.52991 0.39752 0.97806 0.0
O149 O 0.54172 0.33349 0.22149 0.0
C150 C 0.49676 0.40878 0.13059 0.0
O151 O 0.51807 0.43118 0.13252 0.0
N152 N 0.59213 0.37852 0.20941 0.0
C153 C 0.6562 0.38839 0.23716 0.0
C154 C 0.63843 0.37242 0.30411 0.0
C155 C 0.60611 0.36831 0.28986 0.0
C156 C 0.60906 0.39597 0.147 0.0
C157 C 0.6413 0.40074 0.15871 0.0
H158 H 0.59256 0.35647 0.34295 0.0
H159 H 0.59747 0.40663 0.0878 0.0
H160 H 0.53304 0.35098 0.38961 0.0
H161 H 0.54372 0.4456 0.46879 0.0
H162 H 0.5851 0.32111 0.89067 0.0
H163 H 0.64938 0.36317 0.36662 0.0
H164 H 0.6544 0.41394 0.10695 0.0
C165 C 0.04613 0.54368 0.83132 0.0
C166 C 0.04393 0.54046 0.92654 0.0
N167 N 0.073 0.53519 0.95964 0.0
N168 N 0.07649 0.54037 0.80496 0.0
C169 C 0.09232 0.53485 0.88522 0.0
H170 H 0.02709 0.55001 0.78496 0.0
Co171 Co 0.09085 0.54842 0.68406 0.0
C172 C 0.15999 0.55793 0.73764 0.0
O173 O 0.15932 0.58873 0.73371 0.0
N174 N 0.10485 0.55611 0.56077 0.0
C175 C 0.13101 0.57297 0.43526 0.0
C176 C 0.12915 0.57416 0.53086 0.0
C177 C 0.09195 0.54478 0.48118 0.0
N178 N 0.10763 0.55445 0.40499 0.0
O179 O 0.08759 0.50449 0.65497 0.0
H180 H 0.14411 0.58831 0.57428 0.0
H181 H 0.07113 0.5302 0.47822 0.0
O182 O 0.13528 0.54146 0.72193 0.0
C183 C 0.0598 0.49684 0.63026 0.0
O184 O 0.0375 0.51823 0.63211 0.0
N185 N 0.09042 0.59202 0.71015 0.0
C186 C 0.08066 0.65606 0.73842 0.0
C187 C 0.09665 0.63823 0.80517 0.0
C188 C 0.10071 0.60592 0.79065 0.0
C189 C 0.07298 0.60902 0.64791 0.0
C190 C 0.06826 0.64124 0.65989 0.0
H191 H 0.11255 0.59233 0.84361 0.0
H192 H 0.06227 0.59748 0.58867 0.0
H193 H 0.11769 0.53309 0.89022 0.0
H194 H 0.02302 0.54373 0.9687 0.0
H195 H 0.14779 0.58518 0.39136 0.0
H196 H 0.10594 0.64913 0.86773 0.0
H197 H 0.05505 0.65439 0.60828 0.0
C198 C 0.92454 0.04559 0.33142 0.0
C199 C 0.92774 0.04329 0.42663 0.0
N200 N 0.93307 0.07232 0.45998 0.0
N201 N 0.92792 0.07596 0.30534 0.0
C202 C 0.93345 0.09172 0.38575 0.0
H203 H 0.91822 0.02659 0.28485 0.0
Co204 Co 0.92012 0.09041 0.18444 0.0
C205 C 0.91042 0.15951 0.23846 0.0
O206 O 0.87962 0.15876 0.2341 0.0
N207 N 0.91267 0.10447 0.06115 0.0
C208 C 0.89612 0.13066 0.93538 0.0
C209 C 0.89487 0.1289 0.03098 0.0
C210 C 0.92392 0.0914 0.98173 0.0
N211 N 0.91443 0.1071 0.90539 0.0
O212 O 0.96411 0.08724 0.15613 0.0
H213 H 0.88085 0.14404 0.0742 0.0
H214 H 0.93829 0.07044 0.97903 0.0
O215 O 0.92695 0.13484 0.22276 0.0
C216 C 0.97185 0.05948 0.13145 0.0
O217 O 0.95049 0.03713 0.13294 0.0
N218 N 0.87646 0.0899 0.20966 0.0
C219 C 0.81234 0.08014 0.23646 0.0
C220 C 0.83004 0.09602 0.30379 0.0
C221 C 0.86239 0.10007 0.29002 0.0
C222 C 0.85958 0.07253 0.14687 0.0
C223 C 0.82732 0.06783 0.1581 0.0
H224 H 0.87589 0.11182 0.34341 0.0
H225 H 0.87124 0.06189 0.08776 0.0
H226 H 0.9353 0.11708 0.39095 0.0
H227 H 0.92446 0.02233 0.46859 0.0
H228 H 0.88407 0.1475 0.89129 0.0
H229 H 0.81902 0.10523 0.36623 0.0
H230 H 0.81427 0.05469 0.10607 0.0
C231 C 0.42259 0.92476 0.8313 0.0
C232 C 0.42476 0.9281 0.9265 0.0
N233 N 0.3957 0.93351 0.95942 0.0
N234 N 0.39225 0.92812 0.8048 0.0
C235 C 0.3764 0.9338 0.88493 0.0
H236 H 0.44164 0.91833 0.78507 0.0
Co237 Co 0.37795 0.9201 0.68383 0.0
C238 C 0.3088 0.91047 0.73698 0.0
O239 O 0.30953 0.87967 0.73287 0.0
N240 N 0.36403 0.91245 0.56045 0.0
C241 C 0.33791 0.89568 0.43473 0.0
C242 C 0.33979 0.89436 0.53031 0.0
C243 C 0.37688 0.92394 0.48101 0.0
N244 N 0.36121 0.91434 0.40471 0.0
O245 O 0.38117 0.96405 0.65498 0.0
H246 H 0.32488 0.8801 0.57355 0.0
H247 H 0.39764 0.93861 0.47825 0.0
O248 O 0.3335 0.92698 0.72153 0.0
C249 C 0.40896 0.97179 0.63062 0.0
O250 O 0.43132 0.95047 0.6326 0.0
N251 N 0.37841 0.87648 0.70974 0.0
C252 C 0.38813 0.81242 0.73803 0.0
C253 C 0.37218 0.83028 0.8048 0.0
C254 C 0.36814 0.86259 0.79026 0.0
C255 C 0.39583 0.85945 0.64747 0.0
C256 C 0.40052 0.82721 0.65946 0.0
H257 H 0.35631 0.87621 0.84322 0.0
H258 H 0.40652 0.87096 0.58819 0.0
H259 H 0.35104 0.93566 0.88978 0.0
H260 H 0.44565 0.92483 0.96877 0.0
H261 H 0.32117 0.88348 0.39066 0.0
H262 H 0.3629 0.81941 0.86739 0.0
H263 H 0.41371 0.81404 0.60783 0.0
C264 C 0.42706 0.02197 0.53864 0.0
C265 C 0.41521 0.00074 0.58226 0.0
C266 C 0.44662 0.04153 0.4837 0.0
C267 C 0.46784 0.05338 0.4401 0.0
C268 C 0.44662 0.42679 0.03837 0.0
C269 C 0.46782 0.41496 0.08212 0.0
C270 C 0.42712 0.44636 0.98335 0.0
C271 C 0.41532 0.46762 0.93981 0.0
C272 C 0.02205 0.42712 0.48331 0.0
C273 C 0.00081 0.41521 0.43988 0.0
C274 C 0.04163 0.44669 0.53818 0.0
C275 C 0.0535 0.4679 0.58186 0.0
C276 C 0.02211 0.04142 0.03989 0.0
C277 C 0.00086 0.05327 0.0834 0.0
C278 C 0.04167 0.02187 0.98495 0.0
C279 C 0.0535 0.00065 0.94125 0.0
C280 C 0.53735 0.21765 0.26521 0.0
C281 C 0.54341 0.19002 0.27437 0.0
C282 C 0.5374 0.25088 0.25672 0.0
C283 C 0.54353 0.27851 0.24763 0.0
C284 C 0.21791 0.53706 0.75728 0.0
C285 C 0.19028 0.54315 0.74818 0.0
C286 C 0.25115 0.53711 0.76575 0.0
C287 C 0.27877 0.54325 0.77489 0.0
C288 C 0.93119 0.21748 0.25827 0.0
C289 C 0.92514 0.18984 0.24914 0.0
C290 C 0.93117 0.25073 0.26662 0.0
C291 C 0.92509 0.27837 0.27554 0.0
C292 C 0.25085 0.93128 0.75659 0.0
C293 C 0.27848 0.9252 0.74752 0.0
C294 C 0.21761 0.93127 0.76513 0.0
C295 C 0.18999 0.92517 0.77439 0.0
C296 C 0.39344 0.75083 0.75797 0.0
C297 C 0.39107 0.7789 0.74862 0.0
C298 C 0.39349 0.71783 0.76765 0.0
C299 C 0.3912 0.68974 0.77673 0.0
C300 C 0.75081 0.39368 0.26625 0.0
C301 C 0.77888 0.39129 0.27559 0.0
C302 C 0.71781 0.39371 0.25653 0.0
C303 C 0.68973 0.39135 0.24736 0.0
C304 C 0.07522 0.75063 0.76762 0.0
C305 C 0.07749 0.77872 0.77665 0.0
C306 C 0.0753 0.71764 0.75811 0.0
C307 C 0.0777 0.68957 0.74892 0.0
C308 C 0.75072 0.07489 0.25537 0.0
C309 C 0.7788 0.0772 0.24631 0.0
C310 C 0.71773 0.07495 0.26507 0.0
C311 C 0.68967 0.07733 0.2744 0.0
C312 C 0.54196 0.0947 0.79155 0.0
C313 C 0.54744 0.10021 0.71074 0.0
C314 C 0.53771 0.08806 0.88712 0.0
C315 C 0.53651 0.0816 0.96886 0.0
C316 C 0.38077 0.53727 0.38758 0.0
C317 C 0.38722 0.53624 0.46935 0.0
C318 C 0.37415 0.54141 0.29197 0.0
C319 C 0.36865 0.5469 0.21117 0.0
C320 C 0.93134 0.38015 0.88761 0.0
C321 C 0.93239 0.38662 0.96937 0.0
C322 C 0.92715 0.37355 0.792 0.0
C323 C 0.92159 0.36813 0.71118 0.0
C324 C 0.0944 0.92619 0.29228 0.0
C325 C 0.10001 0.92082 0.21147 0.0
C326 C 0.08772 0.93042 0.38783 0.0
C327 C 0.08128 0.93169 0.46959 0.0
C328 C 0.53738 0.38024 0.63512 0.0
C329 C 0.53626 0.38672 0.55337 0.0
C330 C 0.54163 0.37363 0.73071 0.0
C331 C 0.54718 0.3682 0.81152 0.0
C332 C 0.08833 0.53777 0.13546 0.0
C333 C 0.08186 0.5365 0.05372 0.0
C334 C 0.09498 0.54207 0.23102 0.0
C335 C 0.10049 0.54755 0.31184 0.0
C336 C 0.93076 0.08751 0.63592 0.0
C337 C 0.93191 0.08108 0.55414 0.0
C338 C 0.92662 0.09418 0.7315 0.0
C339 C 0.92125 0.09978 0.81231 0.0
C340 C 0.37377 0.92695 0.23084 0.0
C341 C 0.36833 0.92138 0.31163 0.0
C342 C 0.38036 0.93122 0.13525 0.0
C343 C 0.38681 0.93236 0.05348 0.0
loop_
_geom_bond_atom_site_label_1
_geom_bond_atom_site_label_2
_geom_bond_distance
_geom_bond_site_symmetry_2
_ccdc_geom_bond_type
C0 C1 1.351 . S
C0 N3 1.368 . S
C0 H5 0.931 . S
C1 C0 1.351 . S
C1 N2 1.373 . S
C1 H29 0.930 . S
N2 C1 1.373 . S
N2 C4 1.340 . S
N3 C0 1.368 . S
N3 C4 1.321 . S
N3 Co6 2.135 . S
C4 N2 1.340 . S
C4 N3 1.321 . S
C4 H28 0.930 . S
H5 C0 0.931 . S
Co6 N3 2.135 . S
Co6 N9 2.121 . S
Co6 O14 2.055 . S
Co6 O17 2.039 . S
Co6 N20 2.140 . S
C7 O8 1.227 . S
C7 O17 1.265 . S
O8 C7 1.227 . S
N9 Co6 2.121 . S
N9 C11 1.375 . S
N9 C12 1.313 . S
C10 C11 1.338 . S
C10 N13 1.377 . S
C10 H30 0.930 . S
C11 N9 1.375 . S
C11 C10 1.338 . S
C11 H15 0.931 . S
C12 N9 1.313 . S
C12 N13 1.344 . S
C12 H16 0.930 . S
N13 C10 1.377 . S
N13 C12 1.344 . S
O14 Co6 2.055 . S
O14 C18 1.253 . S
H15 C11 0.931 . S
H16 C12 0.930 . S
O17 Co6 2.039 . S
O17 C7 1.265 . S
C18 O14 1.253 . S
C18 O19 1.227 . S
O19 C18 1.227 . S
N20 Co6 2.140 . S
N20 C23 1.346 . S
N20 C24 1.345 . S
C21 C22 1.387 . S
C21 C25 1.391 . S
C22 C21 1.387 . S
C22 C23 1.369 . S
C22 H31 0.929 . S
C23 N20 1.346 . S
C23 C22 1.369 . S
C23 H26 0.928 . S
C24 N20 1.345 . S
C24 C25 1.371 . S
C24 H27 0.931 . S
C25 C21 1.391 . S
C25 C24 1.371 . S
C25 H32 0.930 . S
H26 C23 0.928 . S
H27 C24 0.931 . S
H28 C4 0.930 . S
H29 C1 0.930 . S
H30 C10 0.930 . S
H31 C22 0.929 . S
H32 C25 0.930 . S
C33 C34 1.351 . S
C33 N36 1.368 . S
C33 H38 0.931 . S
C34 C33 1.351 . S
C34 N35 1.373 . S
C34 H62 0.930 . S
N35 C34 1.373 . S
N35 C37 1.340 . S
N36 C33 1.368 . S
N36 C37 1.321 . S
N36 Co39 2.135 . S
C37 N35 1.340 . S
C37 N36 1.321 . S
C37 H61 0.930 . S
H38 C33 0.931 . S
Co39 N36 2.135 . S
Co39 N42 2.121 . S
Co39 O47 2.055 . S
Co39 O50 2.039 . S
Co39 N53 2.140 . S
C40 O41 1.227 . S
C40 O50 1.265 . S
O41 C40 1.227 . S
N42 Co39 2.121 . S
N42 C44 1.375 . S
N42 C45 1.313 1_556 S
C43 C44 1.338 1_554 S
C43 N46 1.377 . S
C43 H63 0.930 . S
C44 N42 1.375 . S
C44 C43 1.338 1_556 S
C44 H48 0.931 . S
C45 N42 1.313 1_554 S
C45 N46 1.344 . S
C45 H49 0.930 . S
N46 C43 1.377 . S
N46 C45 1.344 . S
O47 Co39 2.055 . S
O47 C51 1.253 . S
H48 C44 0.931 . S
H49 C45 0.930 . S
O50 Co39 2.039 . S
O50 C40 1.265 . S
C51 O47 1.253 . S
C51 O52 1.227 . S
O52 C51 1.227 . S
N53 Co39 2.140 . S
N53 C56 1.346 . S
N53 C57 1.345 . S
C54 C55 1.387 . S
C54 C58 1.391 . S
C55 C54 1.387 . S
C55 C56 1.369 . S
C55 H64 0.929 . S
C56 N53 1.346 . S
C56 C55 1.369 . S
C56 H59 0.928 . S
C57 N53 1.345 . S
C57 C58 1.371 . S
C57 H60 0.931 . S
C58 C54 1.391 . S
C58 C57 1.371 . S
C58 H65 0.930 . S
H59 C56 0.928 . S
H60 C57 0.931 . S
H61 C37 0.930 . S
H62 C34 0.930 . S
H63 C43 0.930 . S
H64 C55 0.929 . S
H65 C58 0.930 . S
C66 C67 1.351 . S
C66 N69 1.368 . S
C66 H71 0.931 . S
C67 C66 1.351 . S
C67 N68 1.373 . S
C67 H95 0.930 . S
N68 C67 1.373 . S
N68 C70 1.340 . S
N69 C66 1.368 . S
N69 C70 1.321 . S
N69 Co72 2.135 . S
C70 N68 1.340 . S
C70 N69 1.321 . S
C70 H94 0.930 . S
H71 C66 0.931 . S
Co72 N69 2.135 . S
Co72 N75 2.121 . S
Co72 O80 2.055 . S
Co72 O83 2.039 . S
Co72 N86 2.140 . S
C73 O74 1.227 . S
C73 O83 1.265 . S
O74 C73 1.227 . S
N75 Co72 2.121 . S
N75 C77 1.375 . S
N75 C78 1.313 . S
C76 C77 1.338 . S
C76 N79 1.377 . S
C76 H96 0.930 . S
C77 N75 1.375 . S
C77 C76 1.338 . S
C77 H81 0.931 . S
C78 N75 1.313 . S
C78 N79 1.344 . S
C78 H82 0.930 . S
N79 C76 1.377 . S
N79 C78 1.344 . S
O80 Co72 2.055 . S
O80 C84 1.253 . S
H81 C77 0.931 . S
H82 C78 0.930 . S
O83 Co72 2.039 . S
O83 C73 1.265 . S
C84 O80 1.253 . S
C84 O85 1.227 . S
O85 C84 1.227 . S
N86 Co72 2.140 . S
N86 C89 1.346 . S
N86 C90 1.345 . S
C87 C88 1.387 . S
C87 C91 1.391 . S
C88 C87 1.387 . S
C88 C89 1.369 . S
C88 H97 0.929 . S
C89 N86 1.346 . S
C89 C88 1.369 . S
C89 H92 0.928 . S
C90 N86 1.345 . S
C90 C91 1.371 . S
C90 H93 0.931 . S
C91 C87 1.391 . S
C91 C90 1.371 . S
C91 H98 0.930 . S
H92 C89 0.928 . S
H93 C90 0.931 . S
H94 C70 0.930 . S
H95 C67 0.930 . S
H96 C76 0.930 . S
H97 C88 0.929 . S
H98 C91 0.930 . S
C99 C100 1.351 . S
C99 N102 1.368 . S
C99 H104 0.931 . S
C100 C99 1.351 . S
C100 N101 1.373 . S
C100 H128 0.930 . S
N101 C100 1.373 . S
N101 C103 1.340 . S
N102 C99 1.368 . S
N102 C103 1.321 . S
N102 Co105 2.135 . S
C103 N101 1.340 . S
C103 N102 1.321 . S
C103 H127 0.930 . S
H104 C99 0.931 . S
Co105 N102 2.135 . S
Co105 N108 2.121 . S
Co105 O113 2.055 . S
Co105 O116 2.039 . S
Co105 N119 2.140 . S
C106 O107 1.227 . S
C106 O116 1.265 . S
O107 C106 1.227 . S
N108 Co105 2.121 . S
N108 C110 1.375 . S
N108 C111 1.313 1_556 S
C109 C110 1.338 1_554 S
C109 N112 1.377 . S
C109 H129 0.930 . S
C110 N108 1.375 . S
C110 C109 1.338 1_556 S
C110 H114 0.931 . S
C111 N108 1.313 1_554 S
C111 N112 1.344 . S
C111 H115 0.930 . S
N112 C109 1.377 . S
N112 C111 1.344 . S
O113 Co105 2.055 . S
O113 C117 1.253 . S
H114 C110 0.931 . S
H115 C111 0.930 . S
O116 Co105 2.039 . S
O116 C106 1.265 . S
C117 O113 1.253 . S
C117 O118 1.227 . S
O118 C117 1.227 . S
N119 Co105 2.140 . S
N119 C122 1.346 . S
N119 C123 1.345 . S
C120 C121 1.387 . S
C120 C124 1.391 . S
C121 C120 1.387 . S
C121 C122 1.369 . S
C121 H130 0.929 . S
C122 N119 1.346 . S
C122 C121 1.369 . S
C122 H125 0.928 . S
C123 N119 1.345 . S
C123 C124 1.371 . S
C123 H126 0.931 . S
C124 C120 1.391 . S
C124 C123 1.371 . S
C124 H131 0.930 . S
H125 C122 0.928 . S
H126 C123 0.931 . S
H127 C103 0.930 . S
H128 C100 0.930 . S
H129 C109 0.930 . S
H130 C121 0.929 . S
H131 C124 0.930 . S
C132 C133 1.351 . S
C132 N135 1.368 . S
C132 H137 0.931 . S
C133 C132 1.351 . S
C133 N134 1.373 . S
C133 H161 0.930 . S
N134 C133 1.373 . S
N134 C136 1.340 . S
N135 C132 1.368 . S
N135 C136 1.321 . S
N135 Co138 2.135 . S
C136 N134 1.340 . S
C136 N135 1.321 . S
C136 H160 0.930 . S
H137 C132 0.931 . S
Co138 N135 2.135 . S
Co138 N141 2.121 . S
Co138 O146 2.055 . S
Co138 O149 2.039 . S
Co138 N152 2.140 . S
C139 O140 1.227 . S
C139 O149 1.265 . S
O140 C139 1.227 . S
N141 Co138 2.121 . S
N141 C143 1.375 . S
N141 C144 1.313 1_554 S
C142 C143 1.338 1_556 S
C142 N145 1.377 . S
C142 H162 0.930 . S
C143 N141 1.375 . S
C143 C142 1.338 1_554 S
C143 H147 0.931 . S
C144 N141 1.313 1_556 S
C144 N145 1.344 . S
C144 H148 0.930 . S
N145 C142 1.377 . S
N145 C144 1.344 . S
O146 Co138 2.055 . S
O146 C150 1.253 . S
H147 C143 0.931 . S
H148 C144 0.930 . S
O149 Co138 2.039 . S
O149 C139 1.265 . S
C150 O146 1.253 . S
C150 O151 1.227 . S
O151 C150 1.227 . S
N152 Co138 2.140 . S
N152 C155 1.346 . S
N152 C156 1.345 . S
C153 C154 1.387 . S
C153 C157 1.391 . S
C154 C153 1.387 . S
C154 C155 1.369 . S
C154 H163 0.929 . S
C155 N152 1.346 . S
C155 C154 1.369 . S
C155 H158 0.928 . S
C156 N152 1.345 . S
C156 C157 1.371 . S
C156 H159 0.931 . S
C157 C153 1.391 . S
C157 C156 1.371 . S
C157 H164 0.930 . S
H158 C155 0.928 . S
H159 C156 0.931 . S
H160 C136 0.930 . S
H161 C133 0.930 . S
H162 C142 0.930 . S
H163 C154 0.929 . S
H164 C157 0.930 . S
C165 C166 1.351 . S
C165 N168 1.368 . S
C165 H170 0.931 . S
C166 C165 1.351 . S
C166 N167 1.373 . S
C166 H194 0.930 . S
N167 C166 1.373 . S
N167 C169 1.340 . S
N168 C165 1.368 . S
N168 C169 1.321 . S
N168 Co171 2.135 . S
C169 N167 1.340 . S
C169 N168 1.321 . S
C169 H193 0.930 . S
H170 C165 0.931 . S
Co171 N168 2.135 . S
Co171 N174 2.121 . S
Co171 O179 2.055 . S
Co171 O182 2.039 . S
Co171 N185 2.140 . S
C172 O173 1.227 . S
C172 O182 1.265 . S
O173 C172 1.227 . S
N174 Co171 2.121 . S
N174 C176 1.375 . S
N174 C177 1.313 . S
C175 C176 1.338 . S
C175 N178 1.377 . S
C175 H195 0.930 . S
C176 N174 1.375 . S
C176 C175 1.338 . S
C176 H180 0.931 . S
C177 N174 1.313 . S
C177 N178 1.344 . S
C177 H181 0.930 . S
N178 C175 1.377 . S
N178 C177 1.344 . S
O179 Co171 2.055 . S
O179 C183 1.253 . S
H180 C176 0.931 . S
H181 C177 0.930 . S
O182 Co171 2.039 . S
O182 C172 1.265 . S
C183 O179 1.253 . S
C183 O184 1.227 . S
O184 C183 1.227 . S
N185 Co171 2.140 . S
N185 C188 1.346 . S
N185 C189 1.345 . S
C186 C187 1.387 . S
C186 C190 1.391 . S
C187 C186 1.387 . S
C187 C188 1.369 . S
C187 H196 0.929 . S
C188 N185 1.346 . S
C188 C187 1.369 . S
C188 H191 0.928 . S
C189 N185 1.345 . S
C189 C190 1.371 . S
C189 H192 0.931 . S
C190 C186 1.391 . S
C190 C189 1.371 . S
C190 H197 0.930 . S
H191 C188 0.928 . S
H192 C189 0.931 . S
H193 C169 0.930 . S
H194 C166 0.930 . S
H195 C175 0.930 . S
H196 C187 0.929 . S
H197 C190 0.930 . S
C198 C199 1.351 . S
C198 N201 1.368 . S
C198 H203 0.931 . S
C199 C198 1.351 . S
C199 N200 1.373 . S
C199 H227 0.930 . S
N200 C199 1.373 . S
N200 C202 1.340 . S
N201 C198 1.368 . S
N201 C202 1.321 . S
N201 Co204 2.135 . S
C202 N200 1.340 . S
C202 N201 1.321 . S
C202 H226 0.930 . S
H203 C198 0.931 . S
Co204 N201 2.135 . S
Co204 N207 2.121 . S
Co204 O212 2.055 . S
Co204 O215 2.039 . S
Co204 N218 2.140 . S
C205 O206 1.227 . S
C205 O215 1.265 . S
O206 C205 1.227 . S
N207 Co204 2.121 . S
N207 C209 1.375 . S
N207 C210 1.313 1_554 S
C208 C209 1.338 1_556 S
C208 N211 1.377 . S
C208 H228 0.930 . S
C209 N207 1.375 . S
C209 C208 1.338 1_554 S
C209 H213 0.931 . S
C210 N207 1.313 1_556 S
C210 N211 1.344 . S
C210 H214 0.930 . S
N211 C208 1.377 . S
N211 C210 1.344 . S
O212 Co204 2.055 . S
O212 C216 1.253 . S
H213 C209 0.931 . S
H214 C210 0.930 . S
O215 Co204 2.039 . S
O215 C205 1.265 . S
C216 O212 1.253 . S
C216 O217 1.227 . S
O217 C216 1.227 . S
N218 Co204 2.140 . S
N218 C221 1.346 . S
N218 C222 1.345 . S
C219 C220 1.387 . S
C219 C223 1.391 . S
C220 C219 1.387 . S
C220 C221 1.369 . S
C220 H229 0.929 . S
C221 N218 1.346 . S
C221 C220 1.369 . S
C221 H224 0.928 . S
C222 N218 1.345 . S
C222 C223 1.371 . S
C222 H225 0.931 . S
C223 C219 1.391 . S
C223 C222 1.371 . S
C223 H230 0.930 . S
H224 C221 0.928 . S
H225 C222 0.931 . S
H226 C202 0.930 . S
H227 C199 0.930 . S
H228 C208 0.930 . S
H229 C220 0.929 . S
H230 C223 0.930 . S
C231 C232 1.351 . S
C231 N234 1.368 . S
C231 H236 0.931 . S
C232 C231 1.351 . S
C232 N233 1.373 . S
C232 H260 0.930 . S
N233 C232 1.373 . S
N233 C235 1.340 . S
N234 C231 1.368 . S
N234 C235 1.321 . S
N234 Co237 2.135 . S
C235 N233 1.340 . S
C235 N234 1.321 . S
C235 H259 0.930 . S
H236 C231 0.931 . S
Co237 N234 2.135 . S
Co237 N240 2.121 . S
Co237 O245 2.055 . S
Co237 O248 2.039 . S
Co237 N251 2.140 . S
C238 O239 1.227 . S
C238 O248 1.265 . S
O239 C238 1.227 . S
N240 Co237 2.121 . S
N240 C242 1.375 . S
N240 C243 1.313 . S
C241 C242 1.338 . S
C241 N244 1.377 . S
C241 H261 0.930 . S
C242 N240 1.375 . S
C242 C241 1.338 . S
C242 H246 0.931 . S
C243 N240 1.313 . S
C243 N244 1.344 . S
C243 H247 0.930 . S
N244 C241 1.377 . S
N244 C243 1.344 . S
O245 Co237 2.055 . S
O245 C249 1.253 . S
H246 C242 0.931 . S
H247 C243 0.930 . S
O248 Co237 2.039 . S
O248 C238 1.265 . S
C249 O245 1.253 . S
C249 O250 1.227 . S
O250 C249 1.227 . S
N251 Co237 2.140 . S
N251 C254 1.346 . S
N251 C255 1.345 . S
C252 C253 1.387 . S
C252 C256 1.391 . S
C253 C252 1.387 . S
C253 C254 1.369 . S
C253 H262 0.929 . S
C254 N251 1.346 . S
C254 C253 1.369 . S
C254 H257 0.928 . S
C255 N251 1.345 . S
C255 C256 1.371 . S
C255 H258 0.931 . S
C256 C252 1.391 . S
C256 C255 1.371 . S
C256 H263 0.930 . S
H257 C254 0.928 . S
H258 C255 0.931 . S
H259 C235 0.930 . S
H260 C232 0.930 . S
H261 C241 0.930 . S
H262 C253 0.929 . S
H263 C256 0.930 . S
C264 C265 1.170 . S
C264 C266 1.380 1_565 S
C265 C264 1.170 . S
C266 C264 1.380 1_545 S
C266 C267 1.170 . S
C267 C266 1.170 . S
C268 C269 1.170 . S
C268 C270 1.380 1_554 S
C269 C268 1.170 . S
C270 C268 1.380 1_556 S
C270 C271 1.170 . S
C271 C270 1.170 . S
C272 C273 1.170 . S
C272 C274 1.380 1_655 S
C273 C272 1.170 . S
C274 C272 1.380 1_455 S
C274 C275 1.170 . S
C275 C274 1.170 . S
C276 C277 1.170 . S
C276 C278 1.380 1_644 S
C277 C276 1.170 . S
C278 C276 1.380 1_466 S
C278 C279 1.170 . S
C279 C278 1.170 . S
C280 C281 1.170 . S
C280 C282 1.380 . S
C281 C280 1.170 . S
C282 C280 1.380 . S
C282 C283 1.170 . S
C283 C282 1.170 . S
C284 C285 1.170 . S
C284 C286 1.380 . S
C285 C284 1.170 . S
C286 C284 1.380 . S
C286 C287 1.170 . S
C287 C286 1.170 . S
C288 C289 1.170 . S
C288 C290 1.380 . S
C289 C288 1.170 . S
C290 C288 1.380 . S
C290 C291 1.170 . S
C291 C290 1.170 . S
C292 C293 1.170 . S
C292 C294 1.380 . S
C293 C292 1.170 . S
C294 C292 1.380 . S
C294 C295 1.170 . S
C295 C294 1.170 . S
C296 C297 1.170 . S
C296 C298 1.380 . S
C297 C296 1.170 . S
C298 C296 1.380 . S
C298 C299 1.170 . S
C299 C298 1.170 . S
C300 C301 1.170 . S
C300 C302 1.380 . S
C301 C300 1.170 . S
C302 C300 1.380 . S
C302 C303 1.170 . S
C303 C302 1.170 . S
C304 C305 1.170 . S
C304 C306 1.380 . S
C305 C304 1.170 . S
C306 C304 1.380 . S
C306 C307 1.170 . S
C307 C306 1.170 . S
C308 C309 1.170 . S
C308 C310 1.380 . S
C309 C308 1.170 . S
C310 C308 1.380 . S
C310 C311 1.170 . S
C311 C310 1.170 . S
C312 C313 1.170 . S
C312 C314 1.380 . S
C313 C312 1.170 . S
C314 C312 1.380 . S
C314 C315 1.170 . S
C315 C314 1.170 . S
C316 C317 1.170 . S
C316 C318 1.380 . S
C317 C316 1.170 . S
C318 C316 1.380 . S
C318 C319 1.170 . S
C319 C318 1.170 . S
C320 C321 1.170 . S
C320 C322 1.380 . S
C321 C320 1.170 . S
C322 C320 1.380 . S
C322 C323 1.170 . S
C323 C322 1.170 . S
C324 C325 1.170 . S
C324 C326 1.380 . S
C325 C324 1.170 . S
C326 C324 1.380 . S
C326 C327 1.170 . S
C327 C326 1.170 . S
C328 C329 1.170 . S
C328 C330 1.380 . S
C329 C328 1.170 . S
C330 C328 1.380 . S
C330 C331 1.170 . S
C331 C330 1.170 . S
C332 C333 1.170 . S
C332 C334 1.380 . S
C333 C332 1.170 . S
C334 C332 1.380 . S
C334 C335 1.170 . S
C335 C334 1.170 . S
C336 C337 1.170 . S
C336 C338 1.380 . S
C337 C336 1.170 . S
C338 C336 1.380 . S
C338 C339 1.170 . S
C339 C338 1.170 . S
C340 C341 1.170 . S
C340 C342 1.380 . S
C341 C340 1.170 . S
C342 C340 1.380 . S
C342 C343 1.170 . S
C343 C342 1.170 . S
C265 C249 1.276 . S
C267 C18 1.321 . S
C269 C150 1.277 . S
C271 C51 1.322 . S
C273 C84 1.320 . S
C275 C183 1.275 . S
C277 C216 1.321 . S
C279 C117 1.275 . S
C281 C7 1.472 . S
C283 C139 1.474 . S
C285 C172 1.479 . S
C287 C40 1.482 . S
C289 C205 1.474 . S
C291 C73 1.476 . S
C293 C238 1.478 . S
C295 C106 1.475 . S
C297 C252 1.517 . S
C299 C54 1.528 . S
C301 C87 1.524 . S
C303 C153 1.526 . S
C305 C120 1.522 . S
C307 C186 1.510 . S
C309 C219 1.526 . S
C311 C21 1.512 . S
C313 N13 1.301 . S
C315 N2 1.312 1_556 S
C317 N35 1.305 . S
C319 N46 1.318 . S
C321 N68 1.319 1_556 S
C323 N79 1.303 . S
C325 N112 1.313 . S
C327 N101 1.300 . S
C329 N134 1.317 . S
C331 N145 1.306 . S
C333 N167 1.315 1_554 S
C335 N178 1.300 . S
C337 N200 1.298 . S
C339 N211 1.318 . S
C341 N244 1.313 . S
C343 N233 1.310 1_554 S
