# Generated by pormake.
# Topology thp-x, (12)-cn, num edge types: 1
# Building blocks:
#     Node 0, Type 0, BuildingBlock: ZALLEG_clean_sbu_0, # of connection points: 12
#     Node 1, Type 0, BuildingBlock: ZALLEG_clean_sbu_0, # of connection points: 12
#     Node 2, Type 0, BuildingBlock: ZALLEG_clean_sbu_0, # of connection points: 12
#     Node 3, Type 0, BuildingBlock: ZALLEG_clean_sbu_0, # of connection points: 12
#     Node 4, Type 0, BuildingBlock: ZALLEG_clean_sbu_0, # of connection points: 12
#     Node 5, Type 0, BuildingBlock: ZALLEG_clean_sbu_0, # of connection points: 12
#     Node 6, Type 0, BuildingBlock: ZALLEG_clean_sbu_0, # of connection points: 12
#     Node 7, Type 0, BuildingBlock: ZALLEG_clean_sbu_0, # of connection points: 12
#     Node 8, Type 0, BuildingBlock: ZALLEG_clean_sbu_0, # of connection points: 12
#     Node 9, Type 0, BuildingBlock: ZALLEG_clean_sbu_0, # of connection points: 12
#     Node 10, Type 0, BuildingBlock: ZALLEG_clean_sbu_0, # of connection points: 12
#     Node 11, Type 0, BuildingBlock: ZALLEG_clean_sbu_0, # of connection points: 12
#     Edge 12, Type (0, 0), BuildingBlock: AJUNOK_clean_linker_0, # of connection points: 2
#     Edge 13, Type (0, 0), BuildingBlock: AJUNOK_clean_linker_0, # of connection points: 2
#     Edge 14, Type (0, 0), BuildingBlock: AJUNOK_clean_linker_0, # of connection points: 2
#     Edge 15, Type (0, 0), BuildingBlock: AJUNOK_clean_linker_0, # of connection points: 2
#     Edge 16, Type (0, 0), BuildingBlock: AJUNOK_clean_linker_0, # of connection points: 2
#     Edge 17, Type (0, 0), BuildingBlock: AJUNOK_clean_linker_0, # of connection points: 2
#     Edge 18, Type (0, 0), BuildingBlock: AJUNOK_clean_linker_0, # of connection points: 2
#     Edge 19, Type (0, 0), BuildingBlock: AJUNOK_clean_linker_0, # of connection points: 2
#     Edge 20, Type (0, 0), BuildingBlock: AJUNOK_clean_linker_0, # of connection points: 2
#     Edge 21, Type (0, 0), BuildingBlock: AJUNOK_clean_linker_0, # of connection points: 2
#     Edge 22, Type (0, 0), BuildingBlock: AJUNOK_clean_linker_0, # of connection points: 2
#     Edge 23, Type (0, 0), BuildingBlock: AJUNOK_clean_linker_0, # of connection points: 2
#     Edge 24, Type (0, 0), BuildingBlock: AJUNOK_clean_linker_0, # of connection points: 2
#     Edge 25, Type (0, 0), BuildingBlock: AJUNOK_clean_linker_0, # of connection points: 2
#     Edge 26, Type (0, 0), BuildingBlock: AJUNOK_clean_linker_0, # of connection points: 2
#     Edge 27, Type (0, 0), BuildingBlock: AJUNOK_clean_linker_0, # of connection points: 2
#     Edge 28, Type (0, 0), BuildingBlock: AJUNOK_clean_linker_0, # of connection points: 2
#     Edge 29, Type (0, 0), BuildingBlock: AJUNOK_clean_linker_0, # of connection points: 2
#     Edge 30, Type (0, 0), BuildingBlock: AJUNOK_clean_linker_0, # of connection points: 2
#     Edge 31, Type (0, 0), BuildingBlock: AJUNOK_clean_linker_0, # of connection points: 2
#     Edge 32, Type (0, 0), BuildingBlock: AJUNOK_clean_linker_0, # of connection points: 2
#     Edge 33, Type (0, 0), BuildingBlock: AJUNOK_clean_linker_0, # of connection points: 2
#     Edge 34, Type (0, 0), BuildingBlock: AJUNOK_clean_linker_0, # of connection points: 2
#     Edge 35, Type (0, 0), BuildingBlock: AJUNOK_clean_linker_0, # of connection points: 2
#     Edge 36, Type (0, 0), BuildingBlock: AJUNOK_clean_linker_0, # of connection points: 2
#     Edge 37, Type (0, 0), BuildingBlock: AJUNOK_clean_linker_0, # of connection points: 2
#     Edge 38, Type (0, 0), BuildingBlock: AJUNOK_clean_linker_0, # of connection points: 2
#     Edge 39, Type (0, 0), BuildingBlock: AJUNOK_clean_linker_0, # of connection points: 2
#     Edge 40, Type (0, 0), BuildingBlock: AJUNOK_clean_linker_0, # of connection points: 2
#     Edge 41, Type (0, 0), BuildingBlock: AJUNOK_clean_linker_0, # of connection points: 2
#     Edge 42, Type (0, 0), BuildingBlock: AJUNOK_clean_linker_0, # of connection points: 2
#     Edge 43, Type (0, 0), BuildingBlock: AJUNOK_clean_linker_0, # of connection points: 2
#     Edge 44, Type (0, 0), BuildingBlock: AJUNOK_clean_linker_0, # of connection points: 2
#     Edge 45, Type (0, 0), BuildingBlock: AJUNOK_clean_linker_0, # of connection points: 2
#     Edge 46, Type (0, 0), BuildingBlock: AJUNOK_clean_linker_0, # of connection points: 2
#     Edge 47, Type (0, 0), BuildingBlock: AJUNOK_clean_linker_0, # of connection points: 2
#     Edge 48, Type (0, 0), BuildingBlock: AJUNOK_clean_linker_0, # of connection points: 2
#     Edge 49, Type (0, 0), BuildingBlock: AJUNOK_clean_linker_0, # of connection points: 2
#     Edge 50, Type (0, 0), BuildingBlock: AJUNOK_clean_linker_0, # of connection points: 2
#     Edge 51, Type (0, 0), BuildingBlock: AJUNOK_clean_linker_0, # of connection points: 2
#     Edge 52, Type (0, 0), BuildingBlock: AJUNOK_clean_linker_0, # of connection points: 2
#     Edge 53, Type (0, 0), BuildingBlock: AJUNOK_clean_linker_0, # of connection points: 2
#     Edge 54, Type (0, 0), BuildingBlock: AJUNOK_clean_linker_0, # of connection points: 2
#     Edge 55, Type (0, 0), BuildingBlock: AJUNOK_clean_linker_0, # of connection points: 2
#     Edge 56, Type (0, 0), BuildingBlock: AJUNOK_clean_linker_0, # of connection points: 2
#     Edge 57, Type (0, 0), BuildingBlock: AJUNOK_clean_linker_0, # of connection points: 2
#     Edge 58, Type (0, 0), BuildingBlock: AJUNOK_clean_linker_0, # of connection points: 2
#     Edge 59, Type (0, 0), BuildingBlock: AJUNOK_clean_linker_0, # of connection points: 2
#     Edge 60, Type (0, 0), BuildingBlock: AJUNOK_clean_linker_0, # of connection points: 2
#     Edge 61, Type (0, 0), BuildingBlock: AJUNOK_clean_linker_0, # of connection points: 2
#     Edge 62, Type (0, 0), BuildingBlock: AJUNOK_clean_linker_0, # of connection points: 2
#     Edge 63, Type (0, 0), BuildingBlock: AJUNOK_clean_linker_0, # of connection points: 2
#     Edge 64, Type (0, 0), BuildingBlock: AJUNOK_clean_linker_0, # of connection points: 2
#     Edge 65, Type (0, 0), BuildingBlock: AJUNOK_clean_linker_0, # of connection points: 2
#     Edge 66, Type (0, 0), BuildingBlock: AJUNOK_clean_linker_0, # of connection points: 2
#     Edge 67, Type (0, 0), BuildingBlock: AJUNOK_clean_linker_0, # of connection points: 2
#     Edge 68, Type (0, 0), BuildingBlock: AJUNOK_clean_linker_0, # of connection points: 2
#     Edge 69, Type (0, 0), BuildingBlock: AJUNOK_clean_linker_0, # of connection points: 2
#     Edge 70, Type (0, 0), BuildingBlock: AJUNOK_clean_linker_0, # of connection points: 2
#     Edge 71, Type (0, 0), BuildingBlock: AJUNOK_clean_linker_0, # of connection points: 2
#     Edge 72, Type (0, 0), BuildingBlock: AJUNOK_clean_linker_0, # of connection points: 2
#     Edge 73, Type (0, 0), BuildingBlock: AJUNOK_clean_linker_0, # of connection points: 2
#     Edge 74, Type (0, 0), BuildingBlock: AJUNOK_clean_linker_0, # of connection points: 2
#     Edge 75, Type (0, 0), BuildingBlock: AJUNOK_clean_linker_0, # of connection points: 2
#     Edge 76, Type (0, 0), BuildingBlock: AJUNOK_clean_linker_0, # of connection points: 2
#     Edge 77, Type (0, 0), BuildingBlock: AJUNOK_clean_linker_0, # of connection points: 2
#     Edge 78, Type (0, 0), BuildingBlock: AJUNOK_clean_linker_0, # of connection points: 2
#     Edge 79, Type (0, 0), BuildingBlock: AJUNOK_clean_linker_0, # of connection points: 2
#     Edge 80, Type (0, 0), BuildingBlock: AJUNOK_clean_linker_0, # of connection points: 2
#     Edge 81, Type (0, 0), BuildingBlock: AJUNOK_clean_linker_0, # of connection points: 2
#     Edge 82, Type (0, 0), BuildingBlock: AJUNOK_clean_linker_0, # of connection points: 2
#     Edge 83, Type (0, 0), BuildingBlock: AJUNOK_clean_linker_0, # of connection points: 2
# Relax obj value: 0.246
# Max RMSD: 0.289
# Mean RMSD: 0.289
data_MOF--net-thp-x--node1-ZALLEG_clean_sbu_0--edge1-AJUNOK_clean_linker_0
_symmetry_space_group_name_H-M    P1
_symmetry_Int_Tables_number       1
_symmetry_cell_setting            triclinic
loop_
_symmetry_equiv_pos_as_xyz
'x, y, z'
_cell_length_a     27.578738
_cell_length_b     27.595908
_cell_length_c     27.559789
_cell_angle_alpha  89.915068
_cell_angle_beta   90.136269
_cell_angle_gamma 90.10669
loop_
_atom_site_label
_atom_site_type_symbol
_atom_site_fract_x
_atom_site_fract_y
_atom_site_fract_z
_atom_type_partial_charge
H0 H 0.10162 0.22077 0.47744 0.0
O1 O 0.07876 0.24033 0.45831 0.0
Tb2 Tb 0.03167 0.28179 0.50263 0.0
Tb3 Tb 0.11806 0.28352 0.40854 0.0
Tb4 Tb 0.03616 0.19498 0.41629 0.0
O5 O 0.07643 0.32516 0.45673 0.0
O6 O 0.98929 0.23617 0.45806 0.0
O7 O 0.98691 0.32335 0.45733 0.0
O8 O 0.07442 0.32499 0.36359 0.0
O9 O 0.9911 0.23342 0.36678 0.0
O10 O 0.0762 0.23685 0.36652 0.0
H11 H 0.09921 0.34597 0.47505 0.0
H12 H 0.9669 0.21558 0.47675 0.0
Tb13 Tb 1.03051 0.3647 0.41233 0.0
Tb14 Tb 0.94814 0.27737 0.40911 0.0
H15 H 0.96636 0.34446 0.47758 0.0
H16 H 0.09425 0.34488 0.34142 0.0
Tb17 Tb 0.0317 0.27887 0.32081 0.0
H18 H 0.97 0.21176 0.34761 0.0
H19 H 0.09554 0.21512 0.34606 0.0
O20 O 0.98771 0.32299 0.36456 0.0
H21 H 0.96651 0.34402 0.34477 0.0
O22 O 0.11949 0.27973 0.53169 0.0
O23 O 0.9681 0.28269 0.27952 0.0
O24 O 0.09479 0.27386 0.27774 0.0
O25 O 0.94265 0.28208 0.52993 0.0
O26 O 0.16038 0.21931 0.41772 0.0
O27 O 0.90583 0.34156 0.41395 0.0
O28 O 0.90784 0.20912 0.41295 0.0
O29 O 0.1568 0.3532 0.40213 0.0
O30 O 0.04703 0.15926 0.48866 0.0
O31 O 1.02684 0.42017 0.3596 0.0
O32 O 0.03708 0.40519 0.48028 0.0
O33 O 0.03323 0.13932 0.36392 0.0
O34 O 0.17316 0.28633 0.46348 0.0
O35 O 0.90784 0.27389 0.34035 0.0
O36 O 0.89211 0.27968 0.46017 0.0
O37 O 0.15623 0.27636 0.33865 0.0
O38 O 0.03585 0.34645 0.5436 0.0
O39 O 1.02943 0.18982 0.29387 0.0
O40 O 1.03114 0.36763 0.2913 0.0
O41 O 1.01539 0.21664 0.54084 0.0
O42 O 0.0925 0.40919 0.40249 0.0
O43 O 0.97168 0.15203 0.41424 0.0
O44 O 0.10422 0.15582 0.40642 0.0
O45 O 0.96306 0.40506 0.41126 0.0
C46 C 0.16753 0.2816 0.51084 0.0
C47 C 0.92277 0.27748 0.29439 0.0
C48 C 0.14071 0.27372 0.29247 0.0
C49 C 0.89512 0.28053 0.50742 0.0
C50 C 0.14905 0.17359 0.40848 0.0
C51 C 0.9181 0.38789 0.4121 0.0
C52 C 0.92515 0.16411 0.41399 0.0
C53 C 0.13878 0.39805 0.39825 0.0
C54 C 0.04184 0.17835 0.53329 0.0
C55 C 1.02913 0.41584 0.3123 0.0
C56 C 0.03775 0.39172 0.52689 0.0
C57 C 1.02973 0.14238 0.31653 0.0
H58 H 0.60377 0.7291 0.97271 0.0
O59 O 0.58013 0.74805 0.95374 0.0
Tb60 Tb 0.53211 0.78867 0.9987 0.0
Tb61 Tb 0.61633 0.7934 0.9031 0.0
Tb62 Tb 0.53964 0.69937 0.91293 0.0
O63 O 0.57219 0.83315 0.95166 0.0
O64 O 0.49255 0.73895 0.95701 0.0
O65 O 0.4826 0.8258 0.95406 0.0
O66 O 0.56821 0.83038 0.85914 0.0
O67 O 0.49037 0.7346 0.8651 0.0
O68 O 0.57691 0.74305 0.86264 0.0
H69 H 0.59186 0.85507 0.97169 0.0
H70 H 0.47314 0.71932 0.97945 0.0
Tb71 Tb 0.52283 0.86836 0.90733 0.0
Tb72 Tb 0.44568 0.77492 0.90934 0.0
H73 H 0.46082 0.84712 0.97268 0.0
H74 H 0.58675 0.85206 0.83792 0.0
Tb75 Tb 0.52807 0.78066 0.81727 0.0
H76 H 0.46921 0.71287 0.84617 0.0
H77 H 0.59793 0.7225 0.84274 0.0
O78 O 0.48302 0.8209 0.86267 0.0
H79 H 0.46119 0.83883 0.84141 0.0
O80 O 0.62106 0.79065 1.02494 0.0
O81 O 0.46118 0.77951 0.77874 0.0
O82 O 0.59344 0.7704 0.7765 0.0
O83 O 0.44384 0.78808 1.02785 0.0
O84 O 0.66313 0.7322 0.90854 0.0
O85 O 0.39936 0.83712 0.9133 0.0
O86 O 0.41428 0.70213 0.9254 0.0
O87 O 0.6503 0.86528 0.90981 0.0
O88 O 0.54485 0.66756 0.98715 0.0
O89 O 0.51987 0.92446 0.85765 0.0
O90 O 0.52237 0.91181 0.97336 0.0
O91 O 0.53836 0.64096 0.86131 0.0
O92 O 0.67321 0.7956 0.95555 0.0
O93 O 0.40359 0.76905 0.84262 0.0
O94 O 0.39022 0.77348 0.96124 0.0
O95 O 0.6516 0.80068 0.83042 0.0
O96 O 0.53336 0.85505 0.0374 0.0
O97 O 0.5264 0.69137 0.79157 0.0
O98 O 0.52453 0.87066 0.78984 0.0
O99 O 0.52215 0.72744 0.04327 0.0
O100 O 0.58452 0.9127 0.88885 0.0
O101 O 0.47775 0.65431 0.90084 0.0
O102 O 0.61054 0.66455 0.9051 0.0
O103 O 0.45197 0.90205 0.89597 0.0
C104 C 0.66866 0.79281 1.00306 0.0
C105 C 0.41658 0.77208 0.79612 0.0
C106 C 0.63219 0.7967 0.78564 0.0
C107 C 0.39572 0.78173 1.00766 0.0
C108 C 0.65422 0.68533 0.9038 0.0
C109 C 0.4082 0.88209 0.89931 0.0
C110 C 0.43778 0.65968 0.92497 0.0
C111 C 0.62807 0.90809 0.90706 0.0
C112 C 0.54386 0.68693 0.03213 0.0
C113 C 0.52274 0.91905 0.81082 0.0
C114 C 0.5259 0.89944 1.01999 0.0
C115 C 0.52995 0.64399 0.81404 0.0
H116 H 0.96119 0.71696 0.21327 0.0
O117 O 0.98299 0.73855 0.19466 0.0
Tb118 Tb 1.02864 0.78112 0.23964 0.0
Tb119 Tb 1.02511 0.69753 0.14637 0.0
Tb120 Tb 0.94504 0.78574 0.14982 0.0
O121 O 0.06999 0.73585 0.19539 0.0
O122 O 0.98917 0.82784 0.19362 0.0
O123 O 0.07401 0.82486 0.19564 0.0
O124 O 0.07175 0.73793 0.10335 0.0
O125 O 0.98838 0.82693 0.10267 0.0
O126 O 0.98365 0.74073 0.10083 0.0
H127 H 0.09027 0.71496 0.21613 0.0
H128 H 0.96869 0.84944 0.21334 0.0
Tb129 Tb 0.11331 0.77893 0.15172 0.0
Tb130 Tb 0.03483 0.86735 0.14557 0.0
H131 H 0.09499 0.84565 0.2159 0.0
H132 H 0.09432 0.71793 0.08444 0.0
Tb133 Tb 1.03029 0.78212 0.05694 0.0
H134 H 0.96705 0.8487 0.08424 0.0
H135 H 0.96313 0.72081 0.07924 0.0
O136 O 0.07693 0.8233 0.10196 0.0
H137 H 0.10057 0.84236 0.0833 0.0
O138 O 1.02919 0.69165 0.26729 0.0
O139 O 1.01466 0.84778 1.01943 0.0
O140 O 0.03311 0.71626 1.01607 0.0
O141 O 1.02882 0.86933 0.26822 0.0
O142 O 0.95624 0.65847 0.13971 0.0
O143 O 0.10299 0.90642 0.15326 0.0
O144 O 0.97095 0.9102 0.1504 0.0
O145 O 0.08924 0.65507 0.15673 0.0
O146 O 0.9044 0.7888 0.21767 0.0
O147 O 0.17034 0.77596 0.10148 0.0
O148 O 0.15427 0.77859 0.21848 0.0
O149 O 0.88963 0.79225 0.0973 0.0
O150 O 1.01814 0.64166 0.19825 0.0
O151 O 0.04511 0.90432 0.07356 0.0
O152 O 0.03468 0.92194 0.19934 0.0
O153 O 0.03462 0.65719 0.07922 0.0
O154 O 0.0943 0.78326 0.28044 0.0
O155 O 0.94235 0.7851 1.02886 0.0
O156 O 0.12012 0.78152 1.031 0.0
O157 O 0.96358 0.77869 0.28 0.0
O158 O 0.15301 0.71169 0.14974 0.0
O159 O 0.90615 0.8541 0.14669 0.0
O160 O 0.90031 0.72269 0.14252 0.0
O161 O 0.15764 0.84183 0.1451 0.0
C162 C 1.02494 0.64405 0.24519 0.0
C163 C 0.04128 0.88572 1.02847 0.0
C164 C 0.03652 0.67081 0.03276 0.0
C165 C 0.03124 0.9172 0.24672 0.0
C166 C 0.91129 0.67616 0.13828 0.0
C167 C 0.14742 0.88808 0.15139 0.0
C168 C 0.92437 0.89864 0.14753 0.0
C169 C 0.1356 0.66713 0.15277 0.0
C170 C 0.91857 0.78482 0.26376 0.0
C171 C 0.16742 0.77836 0.05418 0.0
C172 C 0.13973 0.77998 0.26423 0.0
C173 C 0.89485 0.79036 0.05013 0.0
H174 H 0.4776 0.96498 0.33819 0.0
O175 O 0.45644 0.98691 0.31933 0.0
Tb176 Tb 0.41469 1.02873 0.36526 0.0
Tb177 Tb 0.49941 0.03325 0.27653 0.0
Tb178 Tb 0.40469 0.95032 0.27626 0.0
O179 O 0.45804 0.07515 0.32488 0.0
O180 O 0.36345 0.98847 0.32564 0.0
O181 O 0.36513 0.07533 0.33048 0.0
O182 O 0.45362 0.08141 0.23906 0.0
O183 O 0.35958 0.99483 0.23651 0.0
O184 O 0.4512 0.99312 0.23344 0.0
H185 H 0.48002 0.09529 0.3445 0.0
H186 H 0.34454 0.96705 0.34726 0.0
Tb187 Tb 0.40858 0.11973 0.28818 0.0
Tb188 Tb 0.31773 0.03488 0.2858 0.0
H189 H 0.34621 0.09535 0.35324 0.0
H190 H 0.47271 0.10207 0.21709 0.0
Tb191 Tb 0.40652 0.04145 0.1972 0.0
H192 H 0.33885 0.9743 0.21575 0.0
H193 H 0.46964 0.97281 0.21076 0.0
O194 O 0.36105 0.08083 0.24368 0.0
H195 H 0.33836 0.10077 0.22483 0.0
O196 O 0.48473 1.03023 0.40248 0.0
O197 O 0.35402 0.04512 0.14382 0.0
O198 O 0.47319 0.04436 0.15368 0.0
O199 O 0.36439 1.02425 0.42255 0.0
O200 O 0.5255 0.94392 0.27114 0.0
O201 O 0.27686 0.09953 0.28548 0.0
O202 O 0.27489 0.97135 0.28991 0.0
O203 O 0.52831 0.12201 0.27392 0.0
O204 O 0.41388 0.90522 0.33852 0.0
O205 O 0.41914 0.16266 0.2242 0.0
O206 O 0.42166 0.1553 0.35803 0.0
O207 O 0.40606 0.91296 0.20693 0.0
O208 O 0.54386 0.03328 0.33958 0.0
O209 O 0.28706 0.035 0.19741 0.0
O210 O 0.29323 0.03453 0.37512 0.0
O211 O 0.53683 1.0287 0.21008 0.0
O212 O 0.40639 0.09018 0.41061 0.0
O213 O 0.39684 0.97847 0.15263 0.0
O214 O 0.39333 0.11284 0.16266 0.0
O215 O 0.4148 0.96024 0.40377 0.0
O216 O 0.46122 0.17548 0.28701 0.0
O217 O 0.33506 0.91127 0.27682 0.0
O218 O 0.45524 0.89407 0.27165 0.0
O219 O 0.3396 0.15817 0.29504 0.0
C220 C 0.53023 1.03052 0.3859 0.0
C221 C 0.30755 0.03883 0.14908 0.0
C222 C 0.51977 0.03827 0.16597 0.0
C223 C 0.31729 1.03014 0.4215 0.0
C224 C 0.50244 0.89666 0.26952 0.0
C225 C 0.2933 0.14461 0.29059 0.0
C226 C 0.28912 0.92623 0.28123 0.0
C227 C 0.5077 0.17027 0.27785 0.0
C228 C 0.41439 0.9159 0.38529 0.0
C229 C 0.39446 0.15607 0.18442 0.0
C230 C 0.41819 0.13559 0.40194 0.0
C231 C 0.40266 0.9319 0.16272 0.0
H232 H 0.3433 0.47561 0.96698 0.0
O233 O 0.32249 0.45369 0.98631 0.0
Tb234 Tb 0.27975 0.49534 0.03351 0.0
Tb235 Tb 0.27695 0.40539 0.94734 0.0
Tb236 Tb 0.36558 0.40782 1.02714 0.0
O237 O 0.23466 0.45167 0.99044 0.0
O238 O 0.32504 0.44929 0.07445 0.0
O239 O 0.23982 0.449 0.07879 0.0
O240 O 0.23451 0.35939 0.98875 0.0
O241 O 0.32743 0.35687 0.07159 0.0
O242 O 0.32315 0.36049 0.98517 0.0
H243 H 0.21307 0.47189 0.97036 0.0
H244 H 0.34523 0.46849 0.09667 0.0
Tb245 Tb 0.19593 0.40591 0.03571 0.0
Tb246 Tb 0.28577 0.39971 0.11624 0.0
H247 H 0.21975 0.46912 0.1003 0.0
H248 H 0.21342 0.3399 0.96734 0.0
Tb249 Tb 0.28092 0.314 1.02865 0.0
H250 H 0.347 0.33506 0.09231 0.0
H251 H 0.34395 0.34147 0.96351 0.0
O252 O 0.23905 0.35725 0.07471 0.0
H253 H 0.21721 0.33636 0.09362 0.0
O254 O 0.27794 0.52513 0.94554 0.0
O255 O 0.27603 0.26941 0.09121 0.0
O256 O 0.28469 0.27556 0.96279 0.0
O257 O 0.28197 0.52099 0.1227 0.0
O258 O 0.33965 0.42091 0.90455 0.0
O259 O 0.22282 0.41228 0.15881 0.0
O260 O 0.35713 0.40631 0.15276 0.0
O261 O 0.20971 0.40829 0.90701 0.0
O262 O 0.40421 0.47834 0.036 0.0
O263 O 0.14002 0.3548 0.03528 0.0
O264 O 0.15468 0.47281 0.04159 0.0
O265 O 0.42059 0.35582 1.02063 0.0
O266 O 0.27019 0.45715 0.89318 0.0
O267 O 0.27831 0.32908 0.15362 0.0
O268 O 0.29049 0.45079 0.17304 0.0
O269 O 0.27766 0.33878 0.90429 0.0
O270 O 0.21398 0.53513 0.03282 0.0
O271 O 0.3691 0.28642 1.0272 0.0
O272 O 0.19181 0.28613 1.02743 0.0
O273 O 0.3425 0.53872 0.03864 0.0
O274 O 0.15304 0.40203 0.97068 0.0
O275 O 0.4091 0.38959 0.08802 0.0
O276 O 0.40379 0.40453 0.95775 0.0
O277 O 0.1591 0.39428 0.10548 0.0
C278 C 0.27399 0.50398 0.89772 0.0
C279 C 0.27267 0.28344 0.13732 0.0
C280 C 0.28027 0.29236 0.91773 0.0
C281 C 0.28677 0.4982 0.16981 0.0
C282 C 0.38496 0.40889 0.91349 0.0
C283 C 0.17809 0.39816 0.14981 0.0
C284 C 0.4012 0.40168 0.13324 0.0
C285 C 0.16502 0.40659 0.9243 0.0
C286 C 0.38837 0.52425 0.04156 0.0
C287 C 0.14404 0.30793 1.03009 0.0
C288 C 0.16895 0.51887 0.03932 0.0
C289 C 0.41648 0.30852 1.02369 0.0
H290 H 0.73079 0.46558 0.2187 0.0
O291 O 0.70932 0.48723 0.23705 0.0
Tb292 Tb 0.75158 0.53254 0.28195 0.0
Tb293 Tb 0.6635 0.52615 0.18967 0.0
Tb294 Tb 0.66282 0.44836 0.28051 0.0
O295 O 0.70976 0.57105 0.23114 0.0
O296 O 0.70344 0.49226 0.32544 0.0
O297 O 0.70353 0.5786 0.31977 0.0
O298 O 0.61833 0.57518 0.22433 0.0
O299 O 0.6116 0.49112 0.31621 0.0
O300 O 0.61673 0.48512 0.23081 0.0
H301 H 0.73114 0.58978 0.20985 0.0
H302 H 0.72146 0.47207 0.34889 0.0
Tb303 Tb 0.66468 0.61752 0.26822 0.0
Tb304 Tb 0.65175 0.53794 0.3587 0.0
H305 H 0.72058 0.60019 0.34273 0.0
H306 H 0.60093 0.59632 0.20111 0.0
Tb307 Tb 0.57051 0.53356 0.26765 0.0
H308 H 0.59077 0.46929 0.33528 0.0
H309 H 0.59835 0.46314 0.20929 0.0
O310 O 0.61207 0.58024 0.31105 0.0
H311 H 0.59011 0.60115 0.32994 0.0
O312 O 0.78517 0.53105 0.195 0.0
O313 O 0.52245 0.52969 0.327 0.0
O314 O 0.53207 0.53903 0.20241 0.0
O315 O 0.7741 0.53226 0.37144 0.0
O316 O 0.67209 0.4569 0.15296 0.0
O317 O 0.64655 0.60608 0.39677 0.0
O318 O 0.65522 0.47614 0.40492 0.0
O319 O 0.67403 0.58702 0.14383 0.0
O320 O 0.73137 0.4086 0.28886 0.0
O321 O 0.61297 0.67319 0.2601 0.0
O322 O 0.73583 0.65583 0.26587 0.0
O323 O 0.61134 0.39277 0.27934 0.0
O324 O 0.71981 0.52358 0.13795 0.0
O325 O 0.57903 0.53185 0.39205 0.0
O326 O 0.70187 0.54255 0.41727 0.0
O327 O 0.59555 0.52379 0.14656 0.0
O328 O 0.78905 0.59878 0.29697 0.0
O329 O 0.54281 0.4445 0.2679 0.0
O330 O 0.54333 0.6222 0.26518 0.0
O331 O 0.7932 0.46869 0.28321 0.0
O332 O 0.67224 0.65319 0.19762 0.0
O333 O 0.6538 0.41095 0.34968 0.0
O334 O 0.6606 0.40297 0.21822 0.0
O335 O 0.65588 0.66134 0.33164 0.0
C336 C 0.76662 0.52794 0.14581 0.0
C337 C 0.53405 0.52715 0.37368 0.0
C338 C 0.54871 0.52956 0.15855 0.0
C339 C 0.74916 0.53645 0.41712 0.0
C340 C 0.66869 0.41286 0.17206 0.0
C341 C 0.65057 0.65032 0.37831 0.0
C342 C 0.6526 0.42962 0.39411 0.0
C343 C 0.67706 0.6338 0.15347 0.0
C344 C 0.77756 0.42349 0.28901 0.0
C345 C 0.56559 0.66963 0.2625 0.0
C346 C 0.78059 0.63726 0.27048 0.0
C347 C 0.56451 0.39691 0.2732 0.0
H348 H 0.71134 0.2155 0.96538 0.0
O349 O 0.73377 0.19778 0.98706 0.0
Tb350 Tb 0.77783 0.24382 1.03062 0.0
Tb351 Tb 0.69564 0.14731 1.02942 0.0
Tb352 Tb 0.77951 0.15497 0.94714 0.0
O353 O 0.73442 0.19723 0.07259 0.0
O354 O 0.82288 0.20023 0.98811 0.0
O355 O 0.82273 0.20022 0.0743 0.0
O356 O 0.73795 0.10428 0.07444 0.0
O357 O 0.82389 0.10743 0.98712 0.0
O358 O 0.73832 0.10371 0.98643 0.0
H359 H 0.71324 0.2173 0.09315 0.0
H360 H 0.8431 0.22097 0.96708 0.0
Tb361 Tb 0.77922 0.15347 0.1141 0.0
Tb362 Tb 0.86396 0.15269 0.03161 0.0
H363 H 0.84309 0.22105 0.09509 0.0
H364 H 0.719 0.08468 0.09751 0.0
Tb365 Tb 0.78246 0.06024 1.03107 0.0
H366 H 0.84521 0.08885 0.96531 0.0
H367 H 0.71806 0.08197 0.96645 0.0
O368 O 0.82453 0.10609 0.07532 0.0
H369 H 0.84613 0.08683 0.09638 0.0
O370 O 0.68869 0.26917 1.02974 0.0
O371 O 0.8499 1.02277 1.0267 0.0
O372 O 0.71718 1.01776 0.03549 0.0
O373 O 0.86742 0.27218 1.03047 0.0
O374 O 0.65301 0.1392 0.96277 0.0
O375 O 0.90416 0.16281 0.09977 0.0
O376 O 0.90388 0.15888 0.96551 0.0
O377 O 0.6549 0.15716 0.09426 0.0
O378 O 0.77713 0.22215 0.90579 0.0
O379 O 0.77806 0.10225 0.16982 0.0
O380 O 0.77814 0.21821 0.15726 0.0
O381 O 0.78346 0.10397 0.89293 0.0
O382 O 0.64005 0.19835 1.02252 0.0
O383 O 0.90746 0.0872 0.03209 0.0
O384 O 0.91894 0.20351 1.0246 0.0
O385 O 0.6568 0.07932 0.03928 0.0
O386 O 0.77769 0.28202 0.09859 0.0
O387 O 0.78209 0.03352 0.94217 0.0
O388 O 0.78504 0.03266 0.12035 0.0
O389 O 0.77408 0.28472 0.96528 0.0
O390 O 0.71317 0.14886 0.15621 0.0
O391 O 0.84483 0.15551 0.90376 0.0
O392 O 0.71467 0.14651 0.90454 0.0
O393 O 0.8432 0.14573 0.15629 0.0
C394 C 0.642 0.24546 1.02617 0.0
C395 C 0.89486 0.04067 1.03016 0.0
C396 C 0.67135 0.03322 0.03987 0.0
C397 C 0.91539 0.25033 1.0279 0.0
C398 C 0.66886 0.13913 0.91718 0.0
C399 C 0.88784 0.15795 0.14496 0.0
C400 C 0.89022 0.1574 0.9194 0.0
C401 C 0.66803 0.15213 0.1402 0.0
C402 C 0.77572 0.26825 0.91983 0.0
C403 C 0.78251 0.05539 0.16769 0.0
C404 C 0.77658 0.26421 0.14391 0.0
C405 C 0.78253 0.05715 0.89531 0.0
H406 H 0.21901 0.72368 0.46476 0.0
O407 O 0.23806 0.7028 0.48628 0.0
Tb408 Tb 0.27818 0.74831 0.53242 0.0
Tb409 Tb 0.19226 0.65469 0.52434 0.0
Tb410 Tb 0.28609 0.65968 0.44823 0.0
O411 O 0.2303 0.70333 0.57081 0.0
O412 O 0.32617 0.70455 0.49266 0.0
O413 O 0.3187 0.7047 0.58018 0.0
O414 O 0.23058 0.61177 0.57309 0.0
O415 O 0.32416 0.61144 0.49357 0.0
O416 O 0.23911 0.61151 0.4845 0.0
H417 H 0.20972 0.72366 0.59157 0.0
H418 H 0.34829 0.72409 0.47246 0.0
Tb419 Tb 0.2697 0.66042 0.61702 0.0
Tb420 Tb 0.36224 0.65683 0.54014 0.0
H421 H 0.33912 0.72455 0.60195 0.0
H422 H 0.20944 0.59181 0.59352 0.0
Tb423 Tb 0.27778 0.56671 0.53405 0.0
H424 H 0.34476 0.58964 0.4744 0.0
H425 H 0.22042 0.5931 0.46027 0.0
O426 O 0.3169 0.61258 0.5807 0.0
H427 H 0.33653 0.59269 0.60305 0.0
O428 O 0.18954 0.776 0.53327 0.0
O429 O 0.34303 0.52631 0.53598 0.0
O430 O 0.21199 0.52817 0.54624 0.0
O431 O 0.36653 0.77727 0.53269 0.0
O432 O 0.15645 0.6635 0.45514 0.0
O433 O 0.39969 0.65694 0.60845 0.0
O434 O 0.4078 0.66753 0.47837 0.0
O435 O 0.1494 0.67162 0.58699 0.0
O436 O 0.29144 0.72851 0.40852 0.0
O437 O 0.26745 0.61044 0.67285 0.0
O438 O 0.26291 0.72821 0.65728 0.0
O439 O 0.2905 0.6079 0.39326 0.0
O440 O 0.13628 0.70764 0.52343 0.0
O441 O 0.4018 0.58932 0.54342 0.0
O442 O 0.41861 0.7092 0.54363 0.0
O443 O 0.15627 0.58209 0.51347 0.0
O444 O 0.28012 0.7882 0.59762 0.0
O445 O 0.28035 0.53907 0.44446 0.0
O446 O 0.27587 0.54054 0.62366 0.0
O447 O 0.27559 0.78946 0.46748 0.0
O448 O 0.19769 0.64958 0.65147 0.0
O449 O 0.3574 0.64756 0.41437 0.0
O450 O 0.22318 0.65668 0.40199 0.0
O451 O 0.33314 0.65556 0.66223 0.0
C452 C 0.14155 0.75462 0.53051 0.0
C453 C 0.38808 0.54332 0.54053 0.0
C454 C 0.17519 0.53716 0.51796 0.0
C455 C 0.41438 0.75609 0.53658 0.0
C456 C 0.17648 0.66287 0.41154 0.0
C457 C 0.38025 0.65593 0.65219 0.0
C458 C 0.40061 0.64709 0.43629 0.0
C459 C 0.15455 0.65103 0.62919 0.0
C460 C 0.28716 0.77455 0.4231 0.0
C461 C 0.27161 0.56366 0.67065 0.0
C462 C 0.26881 0.7738 0.64231 0.0
C463 C 0.28476 0.56105 0.3967 0.0
H464 H 0.97115 0.46631 0.84332 0.0
O465 O 0.9528 0.48866 0.82238 0.0
Tb466 Tb 0.90824 0.53038 0.86541 0.0
Tb467 Tb 0.99951 0.53506 0.78295 0.0
Tb468 Tb 0.90497 0.4515 0.77539 0.0
O469 O 0.95463 0.57655 0.82775 0.0
O470 O 0.86054 0.49067 0.82123 0.0
O471 O 0.86194 0.57758 0.8257 0.0
O472 O 0.95759 0.58147 0.73956 0.0
O473 O 0.86232 0.49623 0.73358 0.0
O474 O 0.95423 0.49397 0.73694 0.0
H475 H 0.97528 0.59601 0.84935 0.0
H476 H 0.83874 0.46975 0.83986 0.0
Tb477 Tb 0.90873 0.62035 0.78499 0.0
Tb478 Tb 0.81745 0.53703 0.77977 0.0
H479 H 0.83983 0.59848 0.84444 0.0
H480 H 0.98044 0.59963 0.71866 0.0
Tb481 Tb 0.9118 0.54089 0.69581 0.0
H482 H 0.84242 0.47593 0.71196 0.0
H483 H 0.9741 0.47165 0.71762 0.0
O484 O 0.86364 0.58171 0.73829 0.0
H485 H 0.84354 0.60234 0.71724 0.0
O486 O 0.9755 0.52666 0.90768 0.0
O487 O 0.8593 0.5405 0.64003 0.0
O488 O 0.98138 0.53301 0.65771 0.0
O489 O 0.8599 0.5297 0.9228 0.0
O490 O 1.02619 0.44638 0.78399 0.0
O491 O 0.77852 0.60381 0.77759 0.0
O492 O 0.77522 0.47283 0.78033 0.0
O493 O 1.02705 0.62466 0.785 0.0
O494 O 0.91095 0.40575 0.83712 0.0
O495 O 0.92903 0.66048 0.72111 0.0
O496 O 0.91685 0.65673 0.85567 0.0
O497 O 0.91295 0.41401 0.70613 0.0
O498 O 0.03874 0.53585 0.84935 0.0
O499 O 0.78962 0.53626 0.69127 0.0
O500 O 0.791 0.53398 0.87003 0.0
O501 O 0.04259 0.52926 0.71892 0.0
O502 O 0.89023 0.59467 0.90525 0.0
O503 O 0.90052 0.47842 0.65192 0.0
O504 O 0.90421 0.61122 0.65824 0.0
O505 O 0.8946 0.45971 0.90055 0.0
O506 O 0.95825 0.67683 0.78881 0.0
O507 O 0.83615 0.41221 0.77113 0.0
O508 O 0.95659 0.39587 0.77411 0.0
O509 O 0.84207 0.66269 0.78226 0.0
C510 C 1.02194 0.52835 0.89407 0.0
C511 C 0.81188 0.5371 0.64382 0.0
C512 C 1.02731 0.52681 0.67292 0.0
C513 C 0.81284 0.53113 0.91823 0.0
C514 C 1.00354 0.39921 0.7803 0.0
C515 C 0.79562 0.64914 0.7802 0.0
C516 C 0.79033 0.42752 0.77349 0.0
C517 C 1.00536 0.67261 0.78784 0.0
C518 C 0.89734 0.41532 0.88173 0.0
C519 C 0.90909 0.65485 0.67835 0.0
C520 C 0.9104 0.63718 0.89939 0.0
C521 C 0.91076 0.43282 0.66175 0.0
H522 H 0.84608 0.96556 0.46567 0.0
O523 O 0.82517 0.94716 0.48811 0.0
Tb524 Tb 0.78474 0.994 0.53267 0.0
Tb525 Tb 0.77846 0.89891 0.4515 0.0
Tb526 Tb 0.86698 0.90288 0.53202 0.0
O527 O 0.73842 0.9497 0.49121 0.0
O528 O 0.82843 0.94939 0.57679 0.0
O529 O 0.74208 0.95217 0.57948 0.0
O530 O 0.73429 0.85759 0.49576 0.0
O531 O 0.82698 0.85649 0.57883 0.0
O532 O 0.82269 0.85489 0.49299 0.0
H533 H 0.7189 0.9694 0.46857 0.0
H534 H 0.84987 0.96964 0.59707 0.0
Tb535 Tb 0.69684 0.90888 0.53902 0.0
Tb536 Tb 0.78531 0.90286 0.61957 0.0
H537 H 0.72188 0.97425 0.59887 0.0
H538 H 0.71299 0.83728 0.47532 0.0
Tb539 Tb 0.77877 0.81291 0.53882 0.0
H540 H 0.84743 0.83669 0.60066 0.0
H541 H 0.84263 0.8334 0.47297 0.0
O542 O 0.73661 0.85989 0.58205 0.0
H543 H 0.7143 0.84238 0.60401 0.0
O544 O 0.7862 1.01949 0.44336 0.0
O545 O 0.77468 0.77419 0.60488 0.0
O546 O 0.78058 0.76913 0.47604 0.0
O547 O 0.78356 1.02309 0.62084 0.0
O548 O 0.84151 0.9034 0.40755 0.0
O549 O 0.72188 0.91221 0.66346 0.0
O550 O 0.85454 0.90901 0.65874 0.0
O551 O 0.71054 0.90367 0.41182 0.0
O552 O 0.90888 0.97024 0.52512 0.0
O553 O 0.63972 0.85806 0.54501 0.0
O554 O 0.66041 0.97973 0.53113 0.0
O555 O 0.92176 0.85046 0.53314 0.0
O556 O 0.77823 0.94914 0.39388 0.0
O557 O 0.78307 0.83686 0.66314 0.0
O558 O 0.78523 0.95444 0.67324 0.0
O559 O 0.77838 0.82917 0.41391 0.0
O560 O 0.72285 0.03921 0.52759 0.0
O561 O 0.86697 0.78324 0.53891 0.0
O562 O 0.68932 0.78762 0.53778 0.0
O563 O 0.85056 0.03276 0.53634 0.0
O564 O 0.65419 0.89856 0.47567 0.0
O565 O 0.91039 0.89619 0.59581 0.0
O566 O 0.90494 0.891 0.46338 0.0
O567 O 0.65728 0.91759 0.60768 0.0
C568 C 0.78352 0.99629 0.39639 0.0
C569 C 0.77785 0.79062 0.65022 0.0
C570 C 0.7778 0.78348 0.43001 0.0
C571 C 0.7829 1.0012 0.66854 0.0
C572 C 0.88705 0.8941 0.41867 0.0
C573 C 0.67553 0.91926 0.65256 0.0
C574 C 0.89952 0.90576 0.6414 0.0
C575 C 0.66575 0.90288 0.42937 0.0
C576 C 0.8952 1.01652 0.52851 0.0
C577 C 0.64232 0.81073 0.54072 0.0
C578 C 0.67654 1.02558 0.52753 0.0
C579 C 0.91547 0.80359 0.53662 0.0
H580 H 0.22062 0.96925 0.71714 0.0
O581 O 0.2015 0.98982 0.73923 0.0
Tb582 Tb 0.24705 0.03215 0.7843 0.0
Tb583 Tb 0.15433 0.03306 0.69784 0.0
Tb584 Tb 0.15537 0.95041 0.78396 0.0
O585 O 0.20417 0.07525 0.73839 0.0
O586 O 0.19976 0.99202 0.8278 0.0
O587 O 0.20159 0.07628 0.82672 0.0
O588 O 0.11089 0.07946 0.73712 0.0
O589 O 0.10689 0.9911 0.82634 0.0
O590 O 0.10829 0.9904 0.73914 0.0
H591 H 0.22603 0.09572 0.71883 0.0
H592 H 0.22058 0.97144 0.84829 0.0
Tb593 Tb 0.16018 0.1185 0.78031 0.0
Tb594 Tb 0.15083 0.03625 0.86707 0.0
H595 H 0.22152 0.09568 0.84904 0.0
H596 H 0.09272 0.10162 0.71552 0.0
Tb597 Tb 0.06467 0.03635 0.78088 0.0
H598 H 0.08742 0.96976 0.84764 0.0
H599 H 0.08781 0.96958 0.71843 0.0
O600 O 0.10937 0.08081 0.82368 0.0
H601 H 0.08959 0.10234 0.84408 0.0
O602 O 0.27649 0.03374 0.69625 0.0
O603 O 1.02149 0.03171 0.84368 0.0
O604 O 1.02528 0.04163 0.71515 0.0
O605 O 0.27216 0.03145 0.87444 0.0
O606 O 0.15577 0.96649 0.65619 0.0
O607 O 0.16006 0.10441 0.90692 0.0
O608 O 0.15481 0.97146 0.90991 0.0
O609 O 0.161 0.09735 0.65569 0.0
O610 O 0.21928 0.90649 0.77862 0.0
O611 O 0.10897 0.17382 0.7711 0.0
O612 O 0.22872 0.15729 0.79006 0.0
O613 O 0.10342 0.89551 0.78939 0.0
O614 O 0.20765 0.03411 0.64371 0.0
O615 O 0.08108 0.04222 0.90532 0.0
O616 O 0.20112 0.03259 0.92322 0.0
O617 O 0.08703 0.03156 0.65589 0.0
O618 O 0.29001 0.09654 0.78914 0.0
O619 O 0.03554 0.9481 0.78015 0.0
O620 O 0.03884 0.12545 0.78303 0.0
O621 O 0.28404 0.96378 0.78245 0.0
O622 O 0.1688 0.15978 0.71316 0.0
O623 O 0.16216 0.9097 0.85153 0.0
O624 O 0.14742 0.90874 0.7186 0.0
O625 O 0.1492 0.161 0.84396 0.0
C626 C 0.25489 0.03518 0.64835 0.0
C627 C 0.03535 0.03951 0.88917 0.0
C628 C 0.04093 0.03477 0.66999 0.0
C629 C 0.24825 0.03124 0.92133 0.0
C630 C 0.15198 0.92136 0.67239 0.0
C631 C 0.15782 0.14948 0.8897 0.0
C632 C 0.16274 0.92587 0.89701 0.0
C633 C 0.16854 0.14314 0.66786 0.0
C634 C 0.2656 0.91889 0.78 0.0
C635 C 0.0623 0.17218 0.77873 0.0
C636 C 0.2748 0.14242 0.79192 0.0
C637 C 0.0567 0.90025 0.78389 0.0
H638 H 0.46227 0.21577 0.73028 0.0
O639 O 0.48315 0.23606 0.70972 0.0
Tb640 Tb 0.52692 0.28015 0.75487 0.0
Tb641 Tb 0.52452 0.19077 0.66437 0.0
Tb642 Tb 0.44434 0.28003 0.66241 0.0
O643 O 0.56804 0.23167 0.71257 0.0
O644 O 0.48617 0.32385 0.70731 0.0
O645 O 0.57447 0.31988 0.70984 0.0
O646 O 0.57255 0.2298 0.62086 0.0
O647 O 0.48877 0.31981 0.6149 0.0
O648 O 0.48448 0.23265 0.61653 0.0
H649 H 0.58676 0.21034 0.73389 0.0
H650 H 0.46484 0.34553 0.72611 0.0
Tb651 Tb 0.61551 0.27081 0.66959 0.0
Tb652 Tb 0.53387 0.35993 0.65935 0.0
H653 H 0.59502 0.34261 0.72839 0.0
H654 H 0.5933 0.20941 0.60042 0.0
Tb655 Tb 0.5317 0.27319 0.57333 0.0
H656 H 0.46954 0.34051 0.59326 0.0
H657 H 0.46666 0.21118 0.59401 0.0
O658 O 0.57721 0.31434 0.61884 0.0
H659 H 0.59908 0.33426 0.59879 0.0
O660 O 0.52613 0.19276 0.7855 0.0
O661 O 0.53099 0.33549 0.52912 0.0
O662 O 0.53591 0.20692 0.53424 0.0
O663 O 0.5254 0.36902 0.78032 0.0
O664 O 0.4538 0.15412 0.67232 0.0
O665 O 0.60004 0.40047 0.65795 0.0
O666 O 0.47173 0.40436 0.66519 0.0
O667 O 0.58847 0.14981 0.68286 0.0
O668 O 0.40235 0.27828 0.72988 0.0
O669 O 0.67187 0.27175 0.6177 0.0
O670 O 0.65143 0.26222 0.74185 0.0
O671 O 0.38774 0.28402 0.61195 0.0
O672 O 0.52059 0.13741 0.71845 0.0
O673 O 0.53778 0.39736 0.58903 0.0
O674 O 0.53748 0.41777 0.71015 0.0
O675 O 0.52776 0.14826 0.59745 0.0
O676 O 0.59322 0.29364 0.79374 0.0
O677 O 0.44214 0.27439 0.54495 0.0
O678 O 0.62083 0.27371 0.54729 0.0
O679 O 0.46084 0.27856 0.79402 0.0
O680 O 0.65165 0.19987 0.65999 0.0
O681 O 0.40773 0.34962 0.65154 0.0
O682 O 0.40545 0.21544 0.64289 0.0
O683 O 0.65723 0.33699 0.66615 0.0
C684 C 0.52414 0.14443 0.76537 0.0
C685 C 0.53616 0.38112 0.54339 0.0
C686 C 0.53289 0.16163 0.55108 0.0
C687 C 0.531 0.41575 0.75733 0.0
C688 C 0.41034 0.17391 0.665 0.0
C689 C 0.64454 0.38337 0.66122 0.0
C690 C 0.42637 0.39401 0.65469 0.0
C691 C 0.63082 0.15612 0.66253 0.0
C692 C 0.41563 0.27902 0.77665 0.0
C693 C 0.66819 0.27385 0.57012 0.0
C694 C 0.63157 0.26666 0.7862 0.0
C695 C 0.39354 0.279 0.56512 0.0
C696 C 0.15045 0.31838 0.17472 0.0
C697 C 0.16122 0.36639 0.18807 0.0
C698 C 0.15815 0.28041 0.20728 0.0
C699 C 0.17328 0.2902 0.25507 0.0
H700 H 0.13858 0.30968 0.13827 0.0
H701 H 0.14541 0.24454 0.19754 0.0
S702 S 0.2195 0.40584 0.30214 0.0
N703 N 0.19388 0.41989 0.25005 0.0
N704 N 0.21433 0.3468 0.30788 0.0
C705 C 0.19128 0.33608 0.26563 0.0
C706 C 0.18001 0.37519 0.23469 0.0
C707 C 0.66349 0.63952 0.06744 0.0
C708 C 0.67323 0.66477 0.1109 0.0
C709 C 0.61972 0.64495 0.04472 0.0
C710 C 0.58728 0.67991 0.06072 0.0
H711 H 0.68042 0.60603 0.05808 0.0
H712 H 0.61074 0.61987 1.01576 0.0
S713 S 0.61475 0.7773 0.15105 0.0
N714 N 0.66217 0.74102 0.15254 0.0
N715 N 0.57706 0.75301 0.11137 0.0
C716 C 0.60288 0.71375 0.09654 0.0
C717 C 0.64865 0.70784 0.11865 0.0
C718 C 0.88602 0.20599 0.26626 0.0
C719 C 0.89418 0.25529 0.25715 0.0
C720 C 0.89624 0.17172 0.23094 0.0
C721 C 0.90922 0.18604 0.18366 0.0
H722 H 0.87799 0.19321 0.30261 0.0
H723 H 0.88897 0.13399 0.23921 0.0
S724 S 0.93458 0.31144 0.14244 0.0
N725 N 0.91574 0.31729 0.19879 0.0
N726 N 0.93264 0.25276 0.13127 0.0
C727 C 0.91614 0.23543 0.17416 0.0
C728 C 0.90564 0.27029 0.21001 0.0
C729 C 0.47966 0.90733 0.13589 0.0
C730 C 0.42989 0.90909 0.12509 0.0
C731 C 0.51378 0.92189 0.10198 0.0
C732 C 0.4997 0.92885 0.0537 0.0
H733 H 0.49225 0.89988 0.17226 0.0
H734 H 0.55189 0.91908 0.1114 0.0
S735 S 0.37421 0.93429 1.00591 0.0
N736 N 0.36802 0.91975 0.06359 0.0
N737 N 0.43291 0.94161 0.99722 0.0
C738 C 0.45009 0.93196 0.04247 0.0
C739 C 0.41525 0.91913 0.07765 0.0
C740 C 0.15864 0.67353 0.32772 0.0
C741 C 0.15422 0.69159 0.37476 0.0
C742 C 0.16782 0.70497 0.28966 0.0
C743 C 0.16977 0.7552 0.29748 0.0
H744 H 0.15876 0.6348 0.32102 0.0
H745 H 0.16739 0.6903 0.25321 0.0
S746 S 0.16176 0.82063 0.41286 0.0
N747 N 0.15142 0.76323 0.42646 0.0
N748 N 0.17225 0.82148 0.35408 0.0
C749 C 0.16864 0.77334 0.34412 0.0
C750 C 0.1568 0.74199 0.38255 0.0
C751 C 0.03464 0.64869 0.94957 0.0
C752 C 1.0275 0.63321 0.9974 0.0
C753 C 0.99427 0.65849 0.9208 0.0
C754 C 0.94747 0.64502 0.93623 0.0
H755 H 0.06942 0.66345 0.93871 0.0
H756 H 1.00029 0.67474 0.88575 0.0
S757 S 0.91849 0.57519 0.04804 0.0
N758 N 0.97772 0.58334 0.04992 0.0
N759 N 0.89988 0.60326 0.99854 0.0
C760 C 0.94275 0.62024 0.9809 0.0
C761 C 0.98444 0.60917 1.00839 0.0
C762 C 0.89094 0.85836 0.29468 0.0
C763 C 0.88932 0.80772 0.2994 0.0
C764 C 0.90335 0.88711 0.33412 0.0
C765 C 0.90851 0.8665 0.3804 0.0
H766 H 0.88909 0.87536 0.25919 0.0
H767 H 0.90389 0.92616 0.32948 0.0
S768 S 0.89943 0.73573 0.41166 0.0
N769 N 0.88868 0.73824 0.35281 0.0
N770 N 0.90901 0.79229 0.42848 0.0
C771 C 0.9042 0.81593 0.38557 0.0
C772 C 0.89192 0.78688 0.3453 0.0
C773 C 0.16724 0.91198 0.98289 0.0
C774 C 0.16451 0.89107 0.93651 0.0
C775 C 0.12586 0.91241 1.01181 0.0
C776 C 0.08455 0.88617 0.99744 0.0
H777 H 0.19662 0.93653 0.9916 0.0
H778 H 0.12598 0.93389 0.04461 0.0
S779 S 0.08308 0.79293 0.89862 0.0
N780 N 0.13526 0.82142 0.89256 0.0
N781 N 0.05567 0.81961 0.94445 0.0
C782 C 0.0894 0.85317 0.95781 0.0
C783 C 0.13218 0.85337 0.92993 0.0
C784 C 0.2333 0.16423 0.39316 0.0
C785 C 0.18614 0.15194 0.37881 0.0
C786 C 0.26655 0.18194 0.36003 0.0
C787 C 0.25764 0.17623 0.31049 0.0
H788 H 0.2419 0.16728 0.43076 0.0
H789 H 0.30246 0.19128 0.37329 0.0
S790 S 0.14285 0.1411 0.25179 0.0
N791 N 0.13304 0.13441 0.31051 0.0
N792 N 0.19842 0.16279 0.24714 0.0
C793 C 0.2105 0.16638 0.29485 0.0
C794 C 0.17581 0.15015 0.32894 0.0
C795 C 0.40517 0.64069 1.00684 0.0
C796 C 0.43616 0.62877 0.96841 0.0
C797 C 0.40244 0.61039 0.0472 0.0
C798 C 0.42321 0.5639 0.04426 0.0
H799 H 0.38192 0.67219 1.00515 0.0
H800 H 0.37454 0.61772 0.07379 0.0
S801 S 0.53218 0.53294 0.97441 0.0
N802 N 0.50958 0.58163 0.94797 0.0
N803 N 0.49544 0.5211 1.02 0.0
C804 C 0.46385 0.5586 1.01555 0.0
C805 C 0.47025 0.59066 0.97622 0.0
C806 C 0.86051 0.40575 0.30348 0.0
C807 C 0.81223 0.3953 0.31567 0.0
C808 C 0.89265 0.42113 0.33898 0.0
C809 C 0.88124 0.41525 0.38816 0.0
H810 H 0.871 0.4107 0.266 0.0
H811 H 0.92904 0.43067 0.32776 0.0
S812 S 0.76376 0.37712 0.43953 0.0
N813 N 0.75582 0.37464 0.38019 0.0
N814 N 0.81964 0.39681 0.44794 0.0
C815 C 0.83376 0.40299 0.40112 0.0
C816 C 0.80008 0.38977 0.36474 0.0
C817 C 0.65583 0.92425 0.9902 0.0
C818 C 0.63561 0.94208 0.94686 0.0
C819 C 0.65109 0.94959 0.03345 0.0
C820 C 0.63389 0.99716 0.03176 0.0
H821 H 0.67374 0.88976 0.99108 0.0
H822 H 0.67086 0.93679 0.06499 0.0
S823 S 0.55674 0.05095 0.93644 0.0
N824 N 0.58298 1.00392 0.91065 0.0
N825 N 0.57523 0.05043 0.99344 0.0
C826 C 0.60336 1.00999 0.9934 0.0
C827 C 0.60789 0.98507 0.94896 0.0
C828 C 0.17231 0.92179 0.22679 0.0
C829 C 0.18535 0.91123 0.17875 0.0
C830 C 0.20437 0.91309 0.26472 0.0
C831 C 0.2524 0.89927 0.2552 0.0
H832 H 0.13561 0.93232 0.23583 0.0
H833 H 0.19357 0.92329 0.30111 0.0
S834 S 0.3015 0.8597 0.13672 0.0
N835 N 0.24753 0.88203 0.12397 0.0
N836 N 0.30813 0.86559 0.19592 0.0
C837 C 0.26496 0.88603 0.20778 0.0
C838 C 0.23268 0.89548 0.16904 0.0
C839 C 0.14476 0.60015 0.04733 0.0
C840 C 0.14101 0.55311 0.0657 0.0
C841 C 0.15925 0.6374 0.07764 0.0
C842 C 0.16141 0.63037 0.12811 0.0
H843 H 0.14416 0.60657 1.00848 0.0
H844 H 0.16245 0.67323 0.06191 0.0
S845 S 0.14778 0.51551 0.19486 0.0
N846 N 0.13784 0.50143 0.13744 0.0
N847 N 0.15899 0.57421 0.19541 0.0
C848 C 0.15598 0.58402 0.14715 0.0
C849 C 0.14317 0.54553 0.11613 0.0
C850 C 0.79761 0.66712 0.18708 0.0
C851 C 0.81217 0.63973 0.22759 0.0
C852 C 0.82464 0.66613 0.14448 0.0
C853 C 0.87024 0.64333 0.14435 0.0
H854 H 0.76596 0.69023 0.18837 0.0
H855 H 0.81546 0.69219 0.11659 0.0
S856 S 0.90925 0.5456 0.22659 0.0
N857 N 0.86514 0.57346 0.25532 0.0
N858 N 0.91441 0.57376 0.17403 0.0
C859 C 0.87816 0.60677 0.17805 0.0
C860 C 0.85154 0.60707 0.22179 0.0
C861 C 0.92125 0.96027 0.0386 0.0
C862 C 0.92672 1.0079 0.05455 0.0
C863 C 0.90354 0.92557 0.07041 0.0
C864 C 0.89992 0.93513 0.12044 0.0
H865 H 0.92215 0.95202 1.00015 0.0
H866 H 0.90017 0.8892 0.0566 0.0
S867 S 0.92737 0.05026 0.18191 0.0
N868 N 0.93942 0.0606 0.12413 0.0
N869 N 0.90699 0.99415 0.1848 0.0
C870 C 0.90853 0.98205 0.13704 0.0
C871 C 0.9271 1.0171 0.10463 0.0
C872 C 0.26867 0.1978 0.15181 0.0
C873 C 0.26909 0.24424 0.17257 0.0
C874 C 0.31152 0.17119 0.15248 0.0
C875 C 0.35045 0.18605 0.18207 0.0
H876 H 0.24143 0.18845 0.12497 0.0
H877 H 0.31429 0.13992 0.12906 0.0
S878 S 0.34164 0.28225 0.2777 0.0
N879 N 0.2922 0.28808 0.24462 0.0
N880 N 0.3717 0.23705 0.25284 0.0
C881 C 0.3417 0.22427 0.21578 0.0
C882 C 0.29853 0.25129 0.21252 0.0
C883 C 0.30557 0.8583 0.41 0.0
C884 C 0.31672 0.81004 0.39878 0.0
C885 C 0.34219 0.89072 0.42136 0.0
C886 C 0.39077 0.8788 0.41257 0.0
H887 H 0.26838 0.86906 0.41673 0.0
H888 H 0.33179 0.92739 0.43059 0.0
S889 S 0.43927 0.75969 0.37594 0.0
N890 N 0.37992 0.75212 0.37756 0.0
N891 N 0.44894 0.81648 0.3919 0.0
C892 C 0.40268 0.83117 0.40026 0.0
C893 C 0.36545 0.79709 0.39137 0.0
C894 C 0.10357 0.5156 0.91708 0.0
C895 C 0.05553 0.49994 0.92167 0.0
C896 C 0.13872 0.48352 0.90108 0.0
C897 C 0.12907 0.43357 0.89882 0.0
H898 H 0.11214 0.55398 0.91776 0.0
H899 H 0.17512 0.4973 0.89643 0.0
S900 S 1.01061 0.37358 0.91241 0.0
N901 N 1.0003 0.43102 0.92549 0.0
N902 N 0.0689 0.36995 0.89982 0.0
C903 C 0.08174 0.41725 0.90471 0.0
C904 C 0.04537 0.45 0.91945 0.0
C905 C 0.71933 0.6712 0.42308 0.0
C906 C 0.67298 0.68599 0.40822 0.0
C907 C 0.7592 0.70056 0.41466 0.0
C908 C 0.75243 0.74891 0.40066 0.0
H909 H 0.72592 0.6345 0.43522 0.0
H910 H 0.79449 0.68803 0.42671 0.0
S911 S 0.63719 0.80669 0.36373 0.0
N912 N 0.62175 0.7515 0.38045 0.0
N913 N 0.69655 0.80955 0.36941 0.0
C914 C 0.70614 0.76432 0.38629 0.0
C915 C 0.66585 0.73376 0.39333 0.0
C916 C 0.41875 0.5712 0.3922 0.0
C917 C 0.43226 0.60531 0.42753 0.0
C918 C 0.44716 0.53048 0.38434 0.0
C919 C 0.49294 0.52756 0.40666 0.0
H920 H 0.38716 0.57646 0.36942 0.0
H921 H 0.43834 0.50767 0.35355 0.0
S922 S 0.53012 0.5869 0.52026 0.0
N923 N 0.48338 0.61833 0.5001 0.0
N924 N 0.53736 0.54275 0.48076 0.0
C925 C 0.50002 0.55221 0.44983 0.0
C926 C 0.47104 0.59312 0.45953 0.0
C927 C 0.15888 0.83678 0.65533 0.0
C928 C 0.17471 0.88385 0.64451 0.0
C929 C 0.19217 0.80143 0.66915 0.0
C930 C 0.24227 0.81093 0.66691 0.0
H931 H 0.12047 0.82913 0.65833 0.0
H932 H 0.17876 0.76509 0.67601 0.0
S933 S 0.30159 0.92258 0.62494 0.0
N934 N 0.24297 0.9335 0.62006 0.0
N935 N 0.3058 0.86857 0.64974 0.0
C936 C 0.2581 0.8577 0.65583 0.0
C937 C 0.22439 0.89211 0.63894 0.0
C938 C 0.11221 0.52444 0.6556 0.0
C939 C 0.06519 0.52611 0.63617 0.0
C940 C 0.13852 0.56749 0.65838 0.0
C941 C 0.12239 0.60895 0.63331 0.0
H942 H 0.1227 0.49475 0.67917 0.0
H943 H 0.17121 0.56809 0.68007 0.0
S944 S 1.019 0.6116 0.54508 0.0
N945 N 1.01747 0.557 0.56939 0.0
N946 N 0.06504 0.63929 0.57148 0.0
C947 C 0.08187 0.60391 0.60153 0.0
C948 C 0.05634 0.55966 0.59977 0.0
C949 C 1.01758 0.95972 0.63581 0.0
C950 C 1.00548 1.00879 0.64183 0.0
C951 C 0.9849 0.92346 0.64883 0.0
C952 C 0.93737 0.93523 0.66297 0.0
H953 H 0.05431 0.94911 0.62689 0.0
H954 H 0.995 0.88598 0.64274 0.0
S955 S 0.89033 0.05901 0.68489 0.0
N956 N 0.94382 0.0676 0.66012 0.0
N957 N 0.8835 0.99967 0.68846 0.0
C958 C 0.92563 0.98429 0.66881 0.0
C959 C 0.9578 1.02091 0.65298 0.0
C960 C 0.66764 0.92034 0.73943 0.0
C961 C 0.64323 0.92133 0.69457 0.0
C962 C 0.66712 0.87779 0.76681 0.0
C963 C 0.6353 0.83988 0.75433 0.0
H964 H 0.69522 0.94706 0.74717 0.0
H965 H 0.69185 0.87465 0.79724 0.0
S966 S 0.52841 0.85698 0.67303 0.0
N967 N 0.56421 0.90353 0.6613 0.0
N968 N 0.55865 0.82267 0.71144 0.0
C969 C 0.59932 0.84975 0.71851 0.0
C970 C 0.60206 0.89285 0.69092 0.0
C971 C 0.1256 0.15179 0.55294 0.0
C972 C 0.08382 0.17741 0.56622 0.0
C973 C 0.16692 0.15408 0.58193 0.0
C974 C 0.16488 0.17677 0.62748 0.0
H975 H 0.12629 0.12918 0.52085 0.0
H976 H 0.19593 0.12894 0.57434 0.0
S977 S 0.0783 0.27066 0.66454 0.0
N978 N 0.05214 0.24231 0.61893 0.0
N979 N 0.13169 0.24468 0.67115 0.0
C980 C 0.13008 0.21215 0.63421 0.0
C981 C 0.0873 0.21028 0.60602 0.0
C982 C 0.3935 0.76184 0.71448 0.0
C983 C 0.38707 0.74635 0.76236 0.0
C984 C 0.40929 0.72914 0.68006 0.0
C985 C 0.40682 0.6792 0.68941 0.0
H986 H 0.39565 0.80008 0.70593 0.0
H987 H 0.41631 0.74276 0.64381 0.0
S988 S 0.3821 0.61947 0.80641 0.0
N989 N 0.37585 0.67793 0.81732 0.0
N990 N 0.39632 0.6151 0.74845 0.0
C991 C 0.39736 0.66282 0.73624 0.0
C992 C 0.38495 0.69646 0.77251 0.0
C993 C 1.02884 0.41388 0.60981 0.0
C994 C 1.02022 0.42661 0.56127 0.0
C995 C 0.98989 0.4042 0.64032 0.0
C996 C 0.94205 0.41325 0.62495 0.0
H997 H 0.06488 0.40325 0.62141 0.0
H998 H 0.9977 0.3931 0.67718 0.0
S999 S 0.90414 0.46389 0.50656 0.0
N1000 N 0.96374 0.46231 0.50408 0.0
N1001 N 0.88942 0.44077 0.55971 0.0
C1002 C 0.93415 0.43017 0.57757 0.0
C1003 C 0.97398 0.44237 0.54804 0.0
C1004 C 0.65525 0.1393 0.8309 0.0
C1005 C 0.63404 0.14109 0.87721 0.0
C1006 C 0.65748 0.18161 0.80306 0.0
C1007 C 0.63228 0.22342 0.81774 0.0
H1008 H 0.67907 0.10959 0.82157 0.0
H1009 H 0.67901 0.18149 0.77033 0.0
S1010 S 0.53559 0.22359 0.91206 0.0
N1011 N 0.56367 0.17133 0.91923 0.0
N1012 N 0.56506 0.25205 0.86874 0.0
C1013 C 0.59909 0.21851 0.85683 0.0
C1014 C 0.59787 0.17514 0.88413 0.0
C1015 C 0.46421 0.12367 0.52243 0.0
C1016 C 0.51409 0.12927 0.51521 0.0
C1017 C 0.43185 0.13946 0.48733 0.0
C1018 C 0.44813 0.15312 0.44097 0.0
H1019 H 0.44993 0.11544 0.55814 0.0
H1020 H 0.39357 0.13441 0.49415 0.0
S1021 S 0.57636 0.159 0.40085 0.0
N1022 N 0.5791 0.13976 0.45749 0.0
N1023 N 0.51818 0.16701 0.389 0.0
C1024 C 0.49831 0.15378 0.43206 0.0
C1025 C 0.53111 0.13804 0.46837 0.0
C1026 C 0.4061 0.32786 0.88995 0.0
C1027 C 0.40189 0.3767 0.87604 0.0
C1028 C 0.39247 0.29086 0.85855 0.0
C1029 C 0.3827 0.30158 0.80981 0.0
H1030 H 0.41655 0.31804 0.9264 0.0
H1031 H 0.39899 0.25373 0.86968 0.0
S1032 S 0.36573 0.4225 0.75521 0.0
N1033 N 0.38334 0.4334 0.81128 0.0
N1034 N 0.36088 0.36319 0.7509 0.0
C1035 C 0.37419 0.34975 0.79649 0.0
C1036 C 0.38742 0.38742 0.82846 0.0
C1037 C 0.64332 0.4115 0.47885 0.0
C1038 C 0.62744 0.40368 0.43116 0.0
C1039 C 0.6101 0.4146 0.51638 0.0
C1040 C 0.56039 0.40888 0.50727 0.0
H1041 H 0.68105 0.4191 0.48663 0.0
H1042 H 0.62383 0.41706 0.55319 0.0
S1043 S 0.50075 0.38705 0.38923 0.0
N1044 N 0.55926 0.3886 0.37738 0.0
N1045 N 0.49677 0.39693 0.44798 0.0
C1046 C 0.54421 0.40267 0.45978 0.0
C1047 C 0.57794 0.39717 0.4221 0.0
C1048 C 0.77262 0.68892 0.85095 0.0
C1049 C 0.76156 0.6814 0.80195 0.0
C1050 C 0.73883 0.67739 0.8863 0.0
C1051 C 0.69127 0.6642 0.87382 0.0
H1052 H 0.80941 0.69694 0.86248 0.0
H1053 H 0.7482 0.68447 0.92337 0.0
S1054 S 0.64281 0.65264 0.74881 0.0
N1055 N 0.69943 0.66982 0.74162 0.0
N1056 N 0.63496 0.64719 0.80791 0.0
C1057 C 0.67943 0.66017 0.8244 0.0
C1058 C 0.71367 0.67312 0.78862 0.0
C1059 C 0.90571 0.08041 0.42021 0.0
C1060 C 0.89726 0.12733 0.43776 0.0
C1061 C 0.92015 0.04375 0.4519 0.0
C1062 C 0.92239 0.05207 0.50222 0.0
H1063 H 0.9068 0.07367 0.38148 0.0
H1064 H 0.9236 1.00739 0.43751 0.0
S1065 S 0.8957 0.16582 0.56639 0.0
N1066 N 0.88366 0.17711 0.50881 0.0
N1067 N 0.91712 0.11013 0.56749 0.0
C1068 C 0.91584 0.09909 0.51946 0.0
C1069 C 0.89688 0.13471 0.488 0.0
C1070 C 0.2879 0.87711 0.84869 0.0
C1071 C 0.29689 0.88282 0.79901 0.0
C1072 C 0.3233 0.89038 0.88184 0.0
C1073 C 0.37093 0.89856 0.86659 0.0
H1074 H 0.25127 0.87225 0.862 0.0
H1075 H 0.31407 0.89173 0.91975 0.0
S1076 S 0.41386 0.90178 0.7386 0.0
N1077 N 0.35562 0.88933 0.73504 0.0
N1078 N 0.42514 0.90565 0.79716 0.0
C1079 C 0.38103 0.8971 0.8165 0.0
C1080 C 0.34408 0.8869 0.78284 0.0
C1081 C 0.14731 0.51627 0.43439 0.0
C1082 C 0.17563 0.50513 0.47527 0.0
C1083 C 0.14769 0.48536 0.39436 0.0
C1084 C 0.17086 0.44004 0.39827 0.0
H1085 H 0.12375 0.54763 0.43385 0.0
H1086 H 0.12154 0.49159 0.36573 0.0
S1087 S 0.27422 0.41179 0.4769 0.0
N1088 N 0.24645 0.45748 0.50329 0.0
N1089 N 0.24315 0.4007 0.4271 0.0
C1090 C 0.20929 0.43627 0.43001 0.0
C1091 C 0.21025 0.4668 0.47096 0.0
C1092 C 0.67128 0.41872 0.73186 0.0
C1093 C 0.67918 0.41495 0.68178 0.0
C1094 C 0.70777 0.40657 0.76411 0.0
C1095 C 0.75513 0.40038 0.74717 0.0
H1096 H 0.63506 0.42363 0.7462 0.0
H1097 H 0.70055 0.40942 0.80264 0.0
S1098 S 0.7955 0.40037 0.61889 0.0
N1099 N 0.7366 0.41009 0.61614 0.0
N1100 N 0.80839 0.39322 0.677 0.0
C1101 C 0.7638 0.3991 0.69689 0.0
C1102 C 0.72583 0.40922 0.66421 0.0
C1103 C 0.66334 0.13856 0.58061 0.0
C1104 C 0.63839 0.12239 0.62204 0.0
C1105 C 0.6628 0.11135 0.53809 0.0
C1106 C 0.64262 0.0645 0.53828 0.0
H1107 H 0.6833 0.17233 0.5807 0.0
H1108 H 0.68612 0.12277 0.50857 0.0
S1109 S 0.55533 1.01549 0.62684 0.0
N1110 N 0.58015 0.06281 0.6536 0.0
N1111 N 0.57978 1.01353 0.57239 0.0
C1112 C 0.60911 0.05319 0.57423 0.0
C1113 C 0.60962 0.07988 0.61794 0.0
C1114 C 0.35902 0.16197 0.78911 0.0
C1115 C 0.31155 0.17859 0.78195 0.0
C1116 C 0.38825 0.15339 0.74894 0.0
C1117 C 0.37349 0.16821 0.70239 0.0
H1118 H 0.36931 0.14603 0.82352 0.0
H1119 H 0.42301 0.13642 0.75463 0.0
S1120 S 0.26334 0.24083 0.67377 0.0
N1121 N 0.2602 0.23017 0.7326 0.0
N1122 N 0.31275 0.21292 0.65522 0.0
C1123 C 0.32944 0.19404 0.69776 0.0
C1124 C 0.3012 0.2036 0.73923 0.0
C1125 C 0.42519 0.5166 0.6114 0.0
C1126 C 0.42016 0.50924 0.56135 0.0
C1127 C 0.41516 0.47916 0.64331 0.0
C1128 C 0.40658 0.4322 0.62574 0.0
H1129 H 0.42963 0.55277 0.62617 0.0
H1130 H 0.41887 0.48587 0.68191 0.0
S1131 S 0.39982 0.39474 0.49662 0.0
N1132 N 0.41141 0.4533 0.49479 0.0
N1133 N 0.39877 0.38069 0.55466 0.0
C1134 C 0.40655 0.42434 0.57536 0.0
C1135 C 0.4153 0.46277 0.5431 0.0
C1136 C 0.83744 0.76485 0.70575 0.0
C1137 C 0.79254 0.75394 0.68478 0.0
C1138 C 0.87713 0.73575 0.6956 0.0
C1139 C 0.8716 0.6915 0.67038 0.0
H1140 H 0.84409 0.80003 0.72197 0.0
H1141 H 0.91225 0.74708 0.70933 0.0
S1142 S 0.75591 0.64352 0.62085 0.0
N1143 N 0.74049 0.69288 0.65028 0.0
N1144 N 0.81522 0.63869 0.62769 0.0
C1145 C 0.82477 0.67794 0.65551 0.0
C1146 C 0.78435 0.70686 0.66813 0.0
C1147 C 0.84684 0.29342 0.88099 0.0
C1148 C 0.79728 0.30243 0.88761 0.0
C1149 C 0.88056 0.32983 0.88922 0.0
C1150 C 0.86546 0.37742 0.89897 0.0
H1151 H 0.86014 0.25677 0.87626 0.0
H1152 H 0.91864 0.32147 0.88448 0.0
S1153 S 0.73772 0.41974 0.9079 0.0
N1154 N 0.73348 0.36126 0.89669 0.0
N1155 N 0.79637 0.43137 0.90934 0.0
C1156 C 0.81533 0.38709 0.90078 0.0
C1157 C 0.78126 0.34972 0.89286 0.0
C1158 C 0.61396 1.01531 0.40085 0.0
C1159 C 0.56607 1.00767 0.41602 0.0
C1160 C 0.64355 0.97599 0.3909 0.0
C1161 C 0.62888 0.92885 0.40347 0.0
H1162 H 0.62573 0.05102 0.38931 0.0
H1163 H 0.68011 0.98332 0.37859 0.0
S1164 S 0.51283 0.8923 0.45933 0.0
N1165 N 0.50933 0.95171 0.4538 0.0
N1166 N 0.56492 0.87693 0.43454 0.0
C1167 C 0.58151 0.92115 0.42019 0.0
C1168 C 0.55211 0.96132 0.4313 0.0
C1169 C 0.17243 0.2342 0.90068 0.0
C1170 C 0.18664 0.18674 0.91237 0.0
C1171 C 0.20649 0.268 0.8853 0.0
C1172 C 0.2562 0.25753 0.88779 0.0
H1173 H 0.13439 0.24344 0.89757 0.0
H1174 H 0.19412 0.30475 0.87908 0.0
S1175 S 0.31301 0.14229 0.92327 0.0
N1176 N 0.25429 0.13368 0.93098 0.0
N1177 N 0.31824 0.19713 0.90012 0.0
C1178 C 0.27074 0.20998 0.89687 0.0
C1179 C 0.23635 0.17625 0.91438 0.0
C1180 C 0.91761 0.08514 0.88681 0.0
C1181 C 0.92669 0.13505 0.89037 0.0
C1182 C 0.95144 0.05198 0.90385 0.0
C1183 C 0.99898 0.06708 0.91412 0.0
H1184 H 0.88168 0.07183 0.87815 0.0
H1185 H 0.94294 1.01368 0.90108 0.0
S1186 S 0.04236 0.19408 0.92246 0.0
N1187 N 0.98595 0.19851 0.90295 0.0
N1188 N 0.05268 0.13554 0.92948 0.0
C1189 C 1.00904 0.117 0.91597 0.0
C1190 C 0.97376 0.15083 0.90051 0.0
C1191 C 0.67497 0.32821 0.15754 0.0
C1192 C 0.69571 0.37429 0.15079 0.0
C1193 C 0.70325 0.29002 0.17418 0.0
C1194 C 0.75368 0.29556 0.17747 0.0
H1195 H 0.63608 0.3231 0.15589 0.0
H1196 H 0.68673 0.25444 0.17701 0.0
S1197 S 0.82386 0.40769 0.17367 0.0
N1198 N 0.76969 0.42259 0.15295 0.0
N1199 N 0.82051 0.34993 0.18764 0.0
C1200 C 0.77337 0.34136 0.17686 0.0
C1201 C 0.74597 0.37984 0.15767 0.0
C1202 C 0.63842 0.07704 0.16395 0.0
C1203 C 0.6312 0.12734 0.16646 0.0
C1204 C 0.6025 0.04713 0.14495 0.0
C1205 C 0.55525 0.06496 0.13909 0.0
H1206 H 0.67412 0.06165 0.16964 0.0
H1207 H 0.60926 1.00845 0.14353 0.0
S1208 S 0.51767 0.19343 0.14382 0.0
N1209 N 0.57496 0.19408 0.16089 0.0
N1210 N 0.50404 0.13626 0.13312 0.0
C1211 C 0.54752 0.11509 0.14215 0.0
C1212 C 0.58484 0.14591 0.15896 0.0
C1213 C 0.46408 0.51673 0.14143 0.0
C1214 C 0.51232 0.5035 0.13136 0.0
C1215 C 0.42972 0.4817 0.15331 0.0
C1216 C 0.44066 0.43227 0.14937 0.0
H1217 H 0.45492 0.55448 0.14727 0.0
H1218 H 0.39344 0.49362 0.1622 0.0
S1219 S 0.55899 0.37947 0.11462 0.0
N1220 N 0.56784 0.43835 0.11239 0.0
N1221 N 0.50169 0.37208 0.12948 0.0
C1222 C 0.48777 0.41889 0.13524 0.0
C1223 C 0.52299 0.45455 0.12455 0.0
C1224 C 1.02972 0.56679 0.3124 0.0
C1225 C 1.02797 0.58597 0.26409 0.0
C1226 C 1.03025 0.51451 0.32478 0.0
C1227 C 1.02944 0.47288 0.29142 0.0
H1228 H 1.03023 0.59249 0.34202 0.0
H1229 H 0.03121 0.50703 0.36329 0.0
S1230 S 1.02222 0.49685 0.15857 0.0
N1231 N 1.02498 0.55211 0.18121 0.0
N1232 N 1.02468 0.45966 0.20536 0.0
C1233 C 1.02757 0.4911 0.24307 0.0
C1234 C 1.02739 0.54444 0.22989 0.0
C1235 C 0.75434 0.8335 0.03203 0.0
C1236 C 0.72426 0.79118 1.0251 0.0
C1237 C 0.80776 0.83392 0.03508 0.0
C1238 C 0.83967 0.79279 1.02816 0.0
H1239 H 0.73658 0.86804 0.0359 0.0
H1240 H 0.82397 0.86829 0.04395 0.0
S1241 S 0.78554 0.6713 1.01322 0.0
N1242 N 0.7363 0.70516 1.01405 0.0
N1243 N 0.83262 0.70712 1.01887 0.0
C1244 C 0.81044 0.75059 1.02196 0.0
C1245 C 0.75577 0.7497 1.01985 0.0
C1246 C 0.03217 0.06719 0.24839 0.0
C1247 C 1.02846 0.08503 0.29687 0.0
C1248 C 0.03308 1.01536 0.23518 0.0
C1249 C 1.03024 0.97345 0.26794 0.0
H1250 H 0.03484 0.09357 0.21941 0.0
H1251 H 0.03616 1.00857 0.19668 0.0
S1252 S 1.0233 0.99409 0.40091 0.0
N1253 N 1.02377 0.04984 0.37921 0.0
N1254 N 1.02546 0.95793 0.35348 0.0
C1255 C 1.02706 0.9903 0.31643 0.0
C1256 C 1.02621 0.04311 0.33046 0.0
C1257 C 0.30378 0.8138 1.00224 0.0
C1258 C 0.33992 0.78574 1.02843 0.0
C1259 C 0.25046 0.81034 1.00635 0.0
C1260 C 0.22499 0.77645 0.03654 0.0
H1261 H 0.31761 0.83942 0.97651 0.0
H1262 H 0.22927 0.83544 0.98536 0.0
S1263 S 0.29778 0.69016 0.11455 0.0
N1264 N 0.34122 0.72011 0.08629 0.0
N1265 N 0.2461 0.71309 0.09491 0.0
C1266 C 0.26094 0.74757 0.06309 0.0
C1267 C 0.31532 0.75162 0.05876 0.0
C1268 C 0.25233 0.03797 0.49847 0.0
C1269 C 0.29994 0.03214 0.47934 0.0
C1270 C 0.2409 0.03944 0.5506 0.0
C1271 C 0.27493 0.03625 0.59161 0.0
H1272 H 0.22266 0.04131 0.47292 0.0
H1273 H 0.20269 0.04307 0.55837 0.0
S1274 S 0.40609 1.01804 0.56693 0.0
N1275 N 0.38274 1.02082 0.51184 0.0
N1276 N 0.36045 1.02576 0.60457 0.0
C1277 C 0.32268 0.03077 0.57333 0.0
C1278 C 0.33477 1.02819 0.52012 0.0
C1279 C 0.27606 0.4888 0.80063 0.0
C1280 C 0.27383 0.52335 0.84104 0.0
C1281 C 0.27504 0.49958 0.74839 0.0
C1282 C 0.27131 0.54693 0.72864 0.0
H1283 H 0.27844 0.45061 0.80898 0.0
H1284 H 0.27681 0.46964 0.72316 0.0
S1285 S 0.25415 0.65383 0.81477 0.0
N1286 N 0.26137 0.60849 0.85305 0.0
N1287 N 0.25857 0.63011 0.76008 0.0
C1288 C 0.26628 0.58224 0.76896 0.0
C1289 C 0.26774 0.57068 0.8223 0.0
C1290 C 0.8251 0.54453 0.54649 0.0
C1291 C 0.79183 0.53633 0.58706 0.0
C1292 C 0.81365 0.54338 0.4943 0.0
C1293 C 0.76663 0.53433 0.47482 0.0
H1294 H 0.86255 0.55282 0.55474 0.0
H1295 H 0.84264 0.55083 0.46895 0.0
S1296 S 0.6608 0.51762 0.56126 0.0
N1297 N 0.70661 0.52291 0.59939 0.0
N1298 N 0.68409 0.52134 0.50625 0.0
C1299 C 0.73212 0.52781 0.51514 0.0
C1300 C 0.74436 0.52859 0.56846 0.0
C1301 C 0.78377 0.99401 0.81749 0.0
C1302 C 0.78202 0.0413 0.8374 0.0
C1303 C 0.78422 0.98401 0.76536 0.0
C1304 C 0.78188 1.01932 0.72535 0.0
H1305 H 0.78533 0.96364 0.84234 0.0
H1306 H 0.78642 0.94583 0.75693 0.0
S1307 S 0.7794 0.15076 0.75211 0.0
N1308 N 0.78038 0.12605 0.80659 0.0
N1309 N 0.77909 0.10523 0.71363 0.0
C1310 C 0.78015 0.06666 0.74423 0.0
C1311 C 0.78072 0.07762 0.79745 0.0
C1312 C 0.32302 0.03649 0.05174 0.0
C1313 C 0.28832 0.03579 0.09225 0.0
C1314 C 0.31227 0.03508 0.99949 0.0
C1315 C 0.26478 0.03237 0.97958 0.0
H1316 H 0.36136 0.03813 0.05987 0.0
H1317 H 0.34241 0.03623 0.97443 0.0
S1318 S 0.15638 0.03495 0.06562 0.0
N1319 N 0.20223 0.03528 0.10399 0.0
N1320 N 0.18056 0.03335 1.01097 0.0
C1321 C 0.22906 0.03301 1.01992 0.0
C1322 C 0.24064 0.03428 0.07333 0.0
C1323 C 0.29583 0.49633 0.31954 0.0
C1324 C 0.28318 0.54249 0.33904 0.0
C1325 C 0.29806 0.48516 0.26716 0.0
C1326 C 0.28751 0.51784 0.22652 0.0
H1327 H 0.30527 0.4679 0.34494 0.0
H1328 H 0.30882 0.44848 0.2587 0.0
S1329 S 0.26307 0.64737 0.25131 0.0
N1330 N 0.26644 0.62425 0.30646 0.0
N1331 N 0.27064 0.60189 0.21363 0.0
C1332 C 0.27729 0.56452 0.24491 0.0
C1333 C 0.27518 0.57656 0.29817 0.0
C1334 C 0.76735 0.56397 0.05598 0.0
C1335 C 0.78976 0.53196 0.0907 0.0
C1336 C 0.76733 0.56027 1.00232 0.0
C1337 C 0.79432 0.52556 0.97513 0.0
H1338 H 0.75111 0.59493 0.0724 0.0
H1339 H 0.74722 0.58679 0.98166 0.0
S1340 S 0.8722 0.4356 0.04328 0.0
N1341 N 0.84609 0.46519 0.08802 0.0
N1342 N 0.85087 0.45985 0.99293 0.0
C1343 C 0.82014 0.49436 1.00956 0.0
C1344 C 0.81735 0.49694 0.06416 0.0
C1345 C 0.78952 0.9908 0.24643 0.0
C1346 C 0.78424 0.03821 0.22607 0.0
C1347 C 0.79031 0.98014 0.29901 0.0
C1348 C 0.78607 1.01479 0.33921 0.0
H1349 H 0.79309 0.96071 0.22156 0.0
H1350 H 0.79442 0.9422 0.308 0.0
S1351 S 0.77295 0.14599 0.31215 0.0
N1352 N 0.7758 0.12185 0.25755 0.0
N1353 N 0.77736 0.10043 0.35054 0.0
C1354 C 0.7816 0.06218 0.31996 0.0
C1355 C 0.78068 0.07364 0.26649 0.0
C1356 C 0.56564 0.31061 1.02096 0.0
C1357 C 0.58442 0.26296 1.02624 0.0
C1358 C 0.51368 0.32238 1.02001 0.0
C1359 C 0.47277 0.28859 1.0238 0.0
H1360 H 0.59138 0.34002 1.01721 0.0
H1361 H 0.50601 0.3606 1.01602 0.0
S1362 S 0.49637 0.15626 1.02387 0.0
N1363 N 0.55151 0.17941 1.02737 0.0
N1364 N 0.45904 0.20278 1.02416 0.0
C1365 C 0.4905 0.24059 1.02617 0.0
C1366 C 0.54353 0.22803 1.02772 0.0
C1367 C 0.54708 0.82111 0.56196 0.0
C1368 C 0.58507 0.79193 0.5398 0.0
C1369 C 0.49408 0.81307 0.56004 0.0
C1370 C 0.47072 0.77674 0.53129 0.0
H1371 H 0.55884 0.85309 0.58082 0.0
H1372 H 0.47118 0.83644 0.58154 0.0
S1373 S 0.54761 0.6976 0.45077 0.0
N1374 N 0.58962 0.72799 0.48069 0.0
N1375 N 0.49485 0.71657 0.47151 0.0
C1376 C 0.50806 0.74987 0.50503 0.0
C1377 C 0.56229 0.75648 0.50969 0.0
C1378 C 0.9871 0.30208 0.78336 0.0
C1379 C 1.02205 0.34233 0.78297 0.0
C1380 C 0.99778 0.24981 0.78303 0.0
C1381 C 0.04547 0.22997 0.78274 0.0
H1382 H 0.94885 0.31062 0.78356 0.0
H1383 H 0.96753 0.22478 0.78245 0.0
S1384 S 0.15389 0.31585 0.78271 0.0
N1385 N 0.10818 0.35413 0.78252 0.0
N1386 N 0.12962 0.2612 0.78431 0.0
C1387 C 0.08118 0.27018 0.78407 0.0
C1388 C 0.0697 0.32346 0.78349 0.0
C1389 C 0.57965 0.7672 0.26734 0.0
C1390 C 0.54568 0.7264 0.26357 0.0
C1391 C 0.56816 0.81946 0.26811 0.0
C1392 C 0.52043 0.83897 0.26509 0.0
H1393 H 0.6179 0.75902 0.26971 0.0
H1394 H 0.59791 0.84488 0.27132 0.0
S1395 S 0.41448 0.75219 0.24555 0.0
N1396 N 0.4602 0.71421 0.2514 0.0
N1397 N 0.43779 0.80698 0.25134 0.0
C1398 C 0.48576 0.79835 0.25871 0.0
C1399 C 0.49795 0.74504 0.25842 0.0
C1400 C 1.00415 0.79865 0.49694 0.0
C1401 C 0.97089 0.78181 0.53413 0.0
C1402 C 0.05727 0.79447 0.49728 0.0
C1403 C 0.08616 0.77601 0.53661 0.0
H1404 H 0.98892 0.8174 0.46608 0.0
H1405 H 0.07565 0.80642 0.46502 0.0
S1406 S 1.02274 0.72996 0.64832 0.0
N1407 N 0.97636 0.74778 0.61484 0.0
N1408 N 0.07222 0.7407 0.6163 0.0
C1409 C 0.05367 0.76006 0.57501 0.0
C1410 C 0.99897 0.76348 0.57413 0.0
C1411 C 0.06717 0.8063 0.75865 0.0
C1412 C 0.03706 0.84388 0.78066 0.0
C1413 C 0.06083 0.75326 0.76227 0.0
C1414 C 1.02383 0.72988 0.79015 0.0
H1415 H 0.09825 0.81829 0.73819 0.0
H1416 H 0.08543 0.73052 0.74198 0.0
S1417 S 0.93642 0.8069 0.86269 0.0
N1418 N 0.9697 0.84873 0.8358 0.0
N1419 N 0.95758 0.75422 0.84411 0.0
C1420 C 0.99413 0.76724 0.81381 0.0
C1421 C 1.00049 0.82126 0.8092 0.0
C1422 C 0.56279 0.05551 0.76802 0.0
C1423 C 0.52811 0.08983 0.78756 0.0
C1424 C 0.55971 1.00221 0.77062 0.0
C1425 C 0.52014 0.97539 0.79131 0.0
H1426 H 0.59391 0.07046 0.74939 0.0
H1427 H 0.59007 0.98191 0.75696 0.0
S1428 S 0.4199 0.04407 0.85432 0.0
N1429 N 0.45316 0.0886 0.83219 0.0
N1430 N 0.44724 0.9935 0.83821 0.0
C1431 C 0.48595 1.00976 0.81259 0.0
C1432 C 0.48941 0.06398 0.81004 0.0
C1433 C 0.25085 0.31865 0.5488 0.0
C1434 C 0.22241 0.27758 0.53437 0.0
C1435 C 0.30402 0.31925 0.55471 0.0
C1436 C 0.3378 0.28035 0.54309 0.0
H1437 H 0.23153 0.35193 0.55613 0.0
H1438 H 0.31816 0.35177 0.57093 0.0
S1439 S 0.28564 0.1584 0.51748 0.0
N1440 N 0.23665 0.19285 0.51617 0.0
N1441 N 0.33179 0.19473 0.52832 0.0
C1442 C 0.3095 0.23821 0.53185 0.0
C1443 C 0.25501 0.23713 0.52627 0.0
C1444 C 0.55108 0.56407 0.75551 0.0
C1445 C 0.52433 0.58725 0.79362 0.0
C1446 C 0.55387 0.51118 0.74754 0.0
C1447 C 0.53095 0.47298 0.77634 0.0
H1448 H 0.57077 0.5868 0.73058 0.0
H1449 H 0.57534 0.50003 0.7167 0.0
S1450 S 0.44886 0.50933 0.87715 0.0
N1451 N 0.46862 0.56225 0.85736 0.0
N1452 N 0.47607 0.46776 0.84405 0.0
C1453 C 0.50305 0.49541 0.81373 0.0
C1454 C 0.49951 0.54953 0.82153 0.0
C1455 C 0.76494 0.28844 0.58337 0.0
C1456 C 0.72482 0.27686 0.55031 0.0
C1457 C 0.81734 0.28895 0.57228 0.0
C1458 C 0.83755 0.27712 0.52613 0.0
H1459 H 0.75592 0.29791 0.62032 0.0
H1460 H 0.8422 0.29935 0.60089 0.0
S1461 S 0.75271 0.23662 0.42473 0.0
N1462 N 0.71399 0.24917 0.46839 0.0
N1463 N 0.80707 0.24798 0.4471 0.0
C1464 C 0.79757 0.26348 0.49288 0.0
C1465 C 0.74418 0.26379 0.50448 0.0
C1466 C 0.04739 0.32316 1.01751 0.0
C1467 C 0.08698 0.28898 1.0274 0.0
C1468 C 0.99467 0.31356 1.01866 0.0
C1469 C 0.97346 0.26792 1.03072 0.0
H1470 H 0.05712 0.36003 1.0084 0.0
H1471 H 0.97034 0.34292 1.0095 0.0
S1472 S 0.0566 0.16383 0.06734 0.0
N1473 N 0.0962 0.20657 0.05391 0.0
N1474 N 1.00261 0.18781 0.05815 0.0
C1475 C 1.01295 0.23348 0.04272 0.0
C1476 C 0.06667 0.2436 0.0407 0.0
C1477 C 0.56601 0.2497 0.29786 0.0
C1478 C 0.52833 0.22635 0.27077 0.0
C1479 C 0.57417 0.30251 0.29925 0.0
C1480 C 0.5452 0.34016 0.27539 0.0
H1481 H 0.58972 0.22713 0.31941 0.0
H1482 H 0.605 0.31403 0.32071 0.0
S1483 S 0.4416 0.30343 0.19751 0.0
N1484 N 0.46245 0.25084 0.2168 0.0
N1485 N 0.47558 0.34519 0.22343 0.0
C1486 C 0.50715 0.31768 0.24902 0.0
C1487 C 0.49958 0.26373 0.24615 0.0
loop_
_geom_bond_atom_site_label_1
_geom_bond_atom_site_label_2
_geom_bond_distance
_geom_bond_site_symmetry_2
_ccdc_geom_bond_type
H0 O1 0.850 . S
O1 H0 0.850 . S
O1 Tb2 2.341 . S
O1 Tb3 2.341 . S
O1 Tb4 2.341 . S
Tb2 O1 2.341 . S
Tb2 O5 2.341 . S
Tb2 O6 2.341 1_455 S
Tb2 O7 2.341 1_455 S
Tb2 O22 2.344 . S
Tb2 O25 2.344 1_455 S
Tb2 O38 2.344 1_455 S
Tb2 O41 2.344 . S
Tb3 O1 2.341 . S
Tb3 O5 2.341 . S
Tb3 O8 2.341 . S
Tb3 O10 2.341 . S
Tb3 O26 2.344 . S
Tb3 O29 2.344 . S
Tb3 O34 2.344 . S
Tb3 O37 2.344 . S
Tb4 O1 2.341 . S
Tb4 O6 2.341 1_455 S
Tb4 O9 2.341 1_455 S
Tb4 O10 2.341 . S
Tb4 O30 2.344 . S
Tb4 O33 2.344 . S
Tb4 O43 2.344 1_455 S
Tb4 O44 2.344 . S
O5 Tb2 2.341 . S
O5 Tb3 2.341 . S
O5 H11 0.850 . S
O5 Tb13 2.341 1_455 S
O6 Tb2 2.341 1_655 S
O6 Tb4 2.341 1_655 S
O6 H12 0.850 . S
O6 Tb14 2.341 . S
O7 Tb2 2.341 1_655 S
O7 Tb13 2.341 . S
O7 Tb14 2.341 . S
O7 H15 0.850 . S
O8 Tb3 2.341 . S
O8 Tb13 2.341 1_455 S
O8 H16 0.850 . S
O8 Tb17 2.341 . S
O9 Tb4 2.341 1_655 S
O9 Tb14 2.341 . S
O9 Tb17 2.341 1_655 S
O9 H18 0.850 . S
O10 Tb3 2.341 . S
O10 Tb4 2.341 . S
O10 Tb17 2.341 . S
O10 H19 0.850 . S
H11 O5 0.850 . S
H12 O6 0.850 . S
Tb13 O5 2.341 1_655 S
Tb13 O7 2.341 . S
Tb13 O8 2.341 1_655 S
Tb13 O20 2.341 . S
Tb13 O31 2.344 . S
Tb13 O32 2.344 . S
Tb13 O42 2.344 1_655 S
Tb13 O45 2.344 . S
Tb14 O6 2.341 . S
Tb14 O7 2.341 . S
Tb14 O9 2.341 . S
Tb14 O20 2.341 . S
Tb14 O27 2.344 . S
Tb14 O28 2.344 . S
Tb14 O35 2.344 . S
Tb14 O36 2.344 . S
H15 O7 0.850 . S
H16 O8 0.850 . S
Tb17 O8 2.341 . S
Tb17 O9 2.341 1_455 S
Tb17 O10 2.341 . S
Tb17 O20 2.341 1_455 S
Tb17 O23 2.344 1_455 S
Tb17 O24 2.344 . S
Tb17 O39 2.344 . S
Tb17 O40 2.344 1_455 S
H18 O9 0.850 . S
H19 O10 0.850 . S
O20 Tb13 2.341 . S
O20 Tb14 2.341 . S
O20 Tb17 2.341 1_655 S
O20 H21 0.850 . S
H21 O20 0.850 . S
O22 Tb2 2.344 . S
O22 C46 1.272 . S
O23 Tb17 2.344 1_655 S
O23 C47 1.272 . S
O24 Tb17 2.344 . S
O24 C48 1.272 . S
O25 Tb2 2.344 1_655 S
O25 C49 1.272 . S
O26 Tb3 2.344 . S
O26 C50 1.272 . S
O27 Tb14 2.344 . S
O27 C51 1.272 . S
O28 Tb14 2.344 . S
O28 C52 1.272 . S
O29 Tb3 2.344 . S
O29 C53 1.272 . S
O30 Tb4 2.344 . S
O30 C54 1.272 . S
O31 Tb13 2.344 . S
O31 C55 1.272 . S
O32 Tb13 2.344 . S
O32 C56 1.272 . S
O33 Tb4 2.344 . S
O33 C57 1.272 . S
O34 Tb3 2.344 . S
O34 C46 1.272 . S
O35 Tb14 2.344 . S
O35 C47 1.272 . S
O36 Tb14 2.344 . S
O36 C49 1.272 . S
O37 Tb3 2.344 . S
O37 C48 1.272 . S
O38 Tb2 2.344 1_655 S
O38 C56 1.272 . S
O39 Tb17 2.344 . S
O39 C57 1.272 . S
O40 Tb17 2.344 1_655 S
O40 C55 1.272 . S
O41 Tb2 2.344 . S
O41 C54 1.272 . S
O42 Tb13 2.344 1_455 S
O42 C53 1.272 . S
O43 Tb4 2.344 1_655 S
O43 C52 1.272 . S
O44 Tb4 2.344 . S
O44 C50 1.272 . S
O45 Tb13 2.344 . S
O45 C51 1.272 . S
C46 O22 1.272 . S
C46 O34 1.272 . S
C47 O23 1.272 . S
C47 O35 1.272 . S
C48 O24 1.272 . S
C48 O37 1.272 . S
C49 O25 1.272 . S
C49 O36 1.272 . S
C50 O26 1.272 . S
C50 O44 1.272 . S
C51 O27 1.272 . S
C51 O45 1.272 . S
C52 O28 1.272 . S
C52 O43 1.272 . S
C53 O29 1.272 . S
C53 O42 1.272 . S
C54 O30 1.272 . S
C54 O41 1.272 . S
C55 O31 1.272 . S
C55 O40 1.272 . S
C56 O32 1.272 . S
C56 O38 1.272 . S
C57 O33 1.272 . S
C57 O39 1.272 . S
H58 O59 0.850 . S
O59 H58 0.850 . S
O59 Tb60 2.341 . S
O59 Tb61 2.341 . S
O59 Tb62 2.341 . S
Tb60 O59 2.341 . S
Tb60 O63 2.341 . S
Tb60 O64 2.341 . S
Tb60 O65 2.341 . S
Tb60 O80 2.344 1_556 S
Tb60 O83 2.344 1_556 S
Tb60 O96 2.344 1_556 S
Tb60 O99 2.344 1_556 S
Tb61 O59 2.341 . S
Tb61 O63 2.341 . S
Tb61 O66 2.341 . S
Tb61 O68 2.341 . S
Tb61 O84 2.344 . S
Tb61 O87 2.344 . S
Tb61 O92 2.344 . S
Tb61 O95 2.344 . S
Tb62 O59 2.341 . S
Tb62 O64 2.341 . S
Tb62 O67 2.341 . S
Tb62 O68 2.341 . S
Tb62 O88 2.344 . S
Tb62 O91 2.344 . S
Tb62 O101 2.344 . S
Tb62 O102 2.344 . S
O63 Tb60 2.341 . S
O63 Tb61 2.341 . S
O63 H69 0.850 . S
O63 Tb71 2.341 . S
O64 Tb60 2.341 . S
O64 Tb62 2.341 . S
O64 H70 0.850 . S
O64 Tb72 2.341 . S
O65 Tb60 2.341 . S
O65 Tb71 2.341 . S
O65 Tb72 2.341 . S
O65 H73 0.850 . S
O66 Tb61 2.341 . S
O66 Tb71 2.341 . S
O66 H74 0.850 . S
O66 Tb75 2.341 . S
O67 Tb62 2.341 . S
O67 Tb72 2.341 . S
O67 Tb75 2.341 . S
O67 H76 0.850 . S
O68 Tb61 2.341 . S
O68 Tb62 2.341 . S
O68 Tb75 2.341 . S
O68 H77 0.850 . S
H69 O63 0.850 . S
H70 O64 0.850 . S
Tb71 O63 2.341 . S
Tb71 O65 2.341 . S
Tb71 O66 2.341 . S
Tb71 O78 2.341 . S
Tb71 O89 2.344 . S
Tb71 O90 2.344 . S
Tb71 O100 2.344 . S
Tb71 O103 2.344 . S
Tb72 O64 2.341 . S
Tb72 O65 2.341 . S
Tb72 O67 2.341 . S
Tb72 O78 2.341 . S
Tb72 O85 2.344 . S
Tb72 O86 2.344 . S
Tb72 O93 2.344 . S
Tb72 O94 2.344 . S
H73 O65 0.850 . S
H74 O66 0.850 . S
Tb75 O66 2.341 . S
Tb75 O67 2.341 . S
Tb75 O68 2.341 . S
Tb75 O78 2.341 . S
Tb75 O81 2.344 . S
Tb75 O82 2.344 . S
Tb75 O97 2.344 . S
Tb75 O98 2.344 . S
H76 O67 0.850 . S
H77 O68 0.850 . S
O78 Tb71 2.341 . S
O78 Tb72 2.341 . S
O78 Tb75 2.341 . S
O78 H79 0.850 . S
H79 O78 0.850 . S
O80 Tb60 2.344 1_554 S
O80 C104 1.272 1_554 S
O81 Tb75 2.344 . S
O81 C105 1.272 . S
O82 Tb75 2.344 . S
O82 C106 1.272 . S
O83 Tb60 2.344 1_554 S
O83 C107 1.272 1_554 S
O84 Tb61 2.344 . S
O84 C108 1.272 . S
O85 Tb72 2.344 . S
O85 C109 1.272 . S
O86 Tb72 2.344 . S
O86 C110 1.272 . S
O87 Tb61 2.344 . S
O87 C111 1.272 . S
O88 Tb62 2.344 . S
O88 C112 1.272 . S
O89 Tb71 2.344 . S
O89 C113 1.272 . S
O90 Tb71 2.344 . S
O90 C114 1.272 . S
O91 Tb62 2.344 . S
O91 C115 1.272 . S
O92 Tb61 2.344 . S
O92 C104 1.272 . S
O93 Tb72 2.344 . S
O93 C105 1.272 . S
O94 Tb72 2.344 . S
O94 C107 1.272 . S
O95 Tb61 2.344 . S
O95 C106 1.272 . S
O96 Tb60 2.344 1_554 S
O96 C114 1.272 1_554 S
O97 Tb75 2.344 . S
O97 C115 1.272 . S
O98 Tb75 2.344 . S
O98 C113 1.272 . S
O99 Tb60 2.344 1_554 S
O99 C112 1.272 1_554 S
O100 Tb71 2.344 . S
O100 C111 1.272 . S
O101 Tb62 2.344 . S
O101 C110 1.272 . S
O102 Tb62 2.344 . S
O102 C108 1.272 . S
O103 Tb71 2.344 . S
O103 C109 1.272 . S
C104 O80 1.272 1_556 S
C104 O92 1.272 . S
C105 O81 1.272 . S
C105 O93 1.272 . S
C106 O82 1.272 . S
C106 O95 1.272 . S
C107 O83 1.272 1_556 S
C107 O94 1.272 . S
C108 O84 1.272 . S
C108 O102 1.272 . S
C109 O85 1.272 . S
C109 O103 1.272 . S
C110 O86 1.272 . S
C110 O101 1.272 . S
C111 O87 1.272 . S
C111 O100 1.272 . S
C112 O88 1.272 . S
C112 O99 1.272 1_556 S
C113 O89 1.272 . S
C113 O98 1.272 . S
C114 O90 1.272 . S
C114 O96 1.272 1_556 S
C115 O91 1.272 . S
C115 O97 1.272 . S
H116 O117 0.850 . S
O117 H116 0.850 . S
O117 Tb118 2.341 1_655 S
O117 Tb119 2.341 . S
O117 Tb120 2.341 . S
Tb118 O117 2.341 1_455 S
Tb118 O121 2.341 . S
Tb118 O122 2.341 1_455 S
Tb118 O123 2.341 . S
Tb118 O138 2.344 1_455 S
Tb118 O141 2.344 . S
Tb118 O154 2.344 . S
Tb118 O157 2.344 1_455 S
Tb119 O117 2.341 . S
Tb119 O121 2.341 1_655 S
Tb119 O124 2.341 1_655 S
Tb119 O126 2.341 . S
Tb119 O142 2.344 . S
Tb119 O145 2.344 1_655 S
Tb119 O150 2.344 . S
Tb119 O153 2.344 . S
Tb120 O117 2.341 . S
Tb120 O122 2.341 . S
Tb120 O125 2.341 . S
Tb120 O126 2.341 . S
Tb120 O146 2.344 . S
Tb120 O149 2.344 . S
Tb120 O159 2.344 . S
Tb120 O160 2.344 . S
O121 Tb118 2.341 . S
O121 Tb119 2.341 1_455 S
O121 H127 0.850 . S
O121 Tb129 2.341 . S
O122 Tb118 2.341 1_655 S
O122 Tb120 2.341 . S
O122 H128 0.850 . S
O122 Tb130 2.341 1_655 S
O123 Tb118 2.341 . S
O123 Tb129 2.341 . S
O123 Tb130 2.341 . S
O123 H131 0.850 . S
O124 Tb119 2.341 1_455 S
O124 Tb129 2.341 . S
O124 H132 0.850 . S
O124 Tb133 2.341 . S
O125 Tb120 2.341 . S
O125 Tb130 2.341 1_655 S
O125 Tb133 2.341 1_655 S
O125 H134 0.850 . S
O126 Tb119 2.341 . S
O126 Tb120 2.341 . S
O126 Tb133 2.341 1_655 S
O126 H135 0.850 . S
H127 O121 0.850 . S
H128 O122 0.850 . S
Tb129 O121 2.341 . S
Tb129 O123 2.341 . S
Tb129 O124 2.341 . S
Tb129 O136 2.341 . S
Tb129 O147 2.344 . S
Tb129 O148 2.344 . S
Tb129 O158 2.344 . S
Tb129 O161 2.344 . S
Tb130 O122 2.341 1_455 S
Tb130 O123 2.341 . S
Tb130 O125 2.341 1_455 S
Tb130 O136 2.341 . S
Tb130 O143 2.344 . S
Tb130 O144 2.344 1_455 S
Tb130 O151 2.344 . S
Tb130 O152 2.344 . S
H131 O123 0.850 . S
H132 O124 0.850 . S
Tb133 O124 2.341 . S
Tb133 O125 2.341 1_455 S
Tb133 O126 2.341 1_455 S
Tb133 O136 2.341 . S
Tb133 O139 2.344 1_554 S
Tb133 O140 2.344 1_454 S
Tb133 O155 2.344 1_454 S
Tb133 O156 2.344 1_554 S
H134 O125 0.850 . S
H135 O126 0.850 . S
O136 Tb129 2.341 . S
O136 Tb130 2.341 . S
O136 Tb133 2.341 . S
O136 H137 0.850 . S
H137 O136 0.850 . S
O138 Tb118 2.344 1_655 S
O138 C162 1.272 . S
O139 Tb133 2.344 1_556 S
O139 C163 1.272 1_556 S
O140 Tb133 2.344 1_656 S
O140 C164 1.272 1_556 S
O141 Tb118 2.344 . S
O141 C165 1.272 . S
O142 Tb119 2.344 . S
O142 C166 1.272 . S
O143 Tb130 2.344 . S
O143 C167 1.272 . S
O144 Tb130 2.344 1_655 S
O144 C168 1.272 . S
O145 Tb119 2.344 1_455 S
O145 C169 1.272 . S
O146 Tb120 2.344 . S
O146 C170 1.272 . S
O147 Tb129 2.344 . S
O147 C171 1.272 . S
O148 Tb129 2.344 . S
O148 C172 1.272 . S
O149 Tb120 2.344 . S
O149 C173 1.272 . S
O150 Tb119 2.344 . S
O150 C162 1.272 . S
O151 Tb130 2.344 . S
O151 C163 1.272 . S
O152 Tb130 2.344 . S
O152 C165 1.272 . S
O153 Tb119 2.344 . S
O153 C164 1.272 . S
O154 Tb118 2.344 . S
O154 C172 1.272 . S
O155 Tb133 2.344 1_656 S
O155 C173 1.272 1_556 S
O156 Tb133 2.344 1_556 S
O156 C171 1.272 1_556 S
O157 Tb118 2.344 1_655 S
O157 C170 1.272 . S
O158 Tb129 2.344 . S
O158 C169 1.272 . S
O159 Tb120 2.344 . S
O159 C168 1.272 . S
O160 Tb120 2.344 . S
O160 C166 1.272 . S
O161 Tb129 2.344 . S
O161 C167 1.272 . S
C162 O138 1.272 . S
C162 O150 1.272 . S
C163 O139 1.272 1_554 S
C163 O151 1.272 . S
C164 O140 1.272 1_554 S
C164 O153 1.272 . S
C165 O141 1.272 . S
C165 O152 1.272 . S
C166 O142 1.272 . S
C166 O160 1.272 . S
C167 O143 1.272 . S
C167 O161 1.272 . S
C168 O144 1.272 . S
C168 O159 1.272 . S
C169 O145 1.272 . S
C169 O158 1.272 . S
C170 O146 1.272 . S
C170 O157 1.272 . S
C171 O147 1.272 . S
C171 O156 1.272 1_554 S
C172 O148 1.272 . S
C172 O154 1.272 . S
C173 O149 1.272 . S
C173 O155 1.272 1_554 S
H174 O175 0.850 . S
O175 H174 0.850 . S
O175 Tb176 2.341 . S
O175 Tb177 2.341 1_565 S
O175 Tb178 2.341 . S
Tb176 O175 2.341 . S
Tb176 O179 2.341 1_565 S
Tb176 O180 2.341 . S
Tb176 O181 2.341 1_565 S
Tb176 O196 2.344 . S
Tb176 O199 2.344 . S
Tb176 O212 2.344 1_565 S
Tb176 O215 2.344 . S
Tb177 O175 2.341 1_545 S
Tb177 O179 2.341 . S
Tb177 O182 2.341 . S
Tb177 O184 2.341 1_545 S
Tb177 O200 2.344 1_545 S
Tb177 O203 2.344 . S
Tb177 O208 2.344 1_545 S
Tb177 O211 2.344 . S
Tb178 O175 2.341 . S
Tb178 O180 2.341 . S
Tb178 O183 2.341 . S
Tb178 O184 2.341 . S
Tb178 O204 2.344 . S
Tb178 O207 2.344 . S
Tb178 O217 2.344 . S
Tb178 O218 2.344 . S
O179 Tb176 2.341 1_545 S
O179 Tb177 2.341 . S
O179 H185 0.850 . S
O179 Tb187 2.341 . S
O180 Tb176 2.341 . S
O180 Tb178 2.341 . S
O180 H186 0.850 . S
O180 Tb188 2.341 1_565 S
O181 Tb176 2.341 1_545 S
O181 Tb187 2.341 . S
O181 Tb188 2.341 . S
O181 H189 0.850 . S
O182 Tb177 2.341 . S
O182 Tb187 2.341 . S
O182 H190 0.850 . S
O182 Tb191 2.341 . S
O183 Tb178 2.341 . S
O183 Tb188 2.341 1_565 S
O183 Tb191 2.341 1_565 S
O183 H192 0.850 . S
O184 Tb177 2.341 1_565 S
O184 Tb178 2.341 . S
O184 Tb191 2.341 1_565 S
O184 H193 0.850 . S
H185 O179 0.850 . S
H186 O180 0.850 . S
Tb187 O179 2.341 . S
Tb187 O181 2.341 . S
Tb187 O182 2.341 . S
Tb187 O194 2.341 . S
Tb187 O205 2.344 . S
Tb187 O206 2.344 . S
Tb187 O216 2.344 . S
Tb187 O219 2.344 . S
Tb188 O180 2.341 1_545 S
Tb188 O181 2.341 . S
Tb188 O183 2.341 1_545 S
Tb188 O194 2.341 . S
Tb188 O201 2.344 . S
Tb188 O202 2.344 1_545 S
Tb188 O209 2.344 . S
Tb188 O210 2.344 1_545 S
H189 O181 0.850 . S
H190 O182 0.850 . S
Tb191 O182 2.341 . S
Tb191 O183 2.341 1_545 S
Tb191 O184 2.341 1_545 S
Tb191 O194 2.341 . S
Tb191 O197 2.344 . S
Tb191 O198 2.344 . S
Tb191 O213 2.344 1_545 S
Tb191 O214 2.344 . S
H192 O183 0.850 . S
H193 O184 0.850 . S
O194 Tb187 2.341 . S
O194 Tb188 2.341 . S
O194 Tb191 2.341 . S
O194 H195 0.850 . S
H195 O194 0.850 . S
O196 Tb176 2.344 . S
O196 C220 1.272 . S
O197 Tb191 2.344 . S
O197 C221 1.272 . S
O198 Tb191 2.344 . S
O198 C222 1.272 . S
O199 Tb176 2.344 . S
O199 C223 1.272 . S
O200 Tb177 2.344 1_565 S
O200 C224 1.272 . S
O201 Tb188 2.344 . S
O201 C225 1.272 . S
O202 Tb188 2.344 1_565 S
O202 C226 1.272 . S
O203 Tb177 2.344 . S
O203 C227 1.272 . S
O204 Tb178 2.344 . S
O204 C228 1.272 . S
O205 Tb187 2.344 . S
O205 C229 1.272 . S
O206 Tb187 2.344 . S
O206 C230 1.272 . S
O207 Tb178 2.344 . S
O207 C231 1.272 . S
O208 Tb177 2.344 1_565 S
O208 C220 1.272 . S
O209 Tb188 2.344 . S
O209 C221 1.272 . S
O210 Tb188 2.344 1_565 S
O210 C223 1.272 . S
O211 Tb177 2.344 . S
O211 C222 1.272 . S
O212 Tb176 2.344 1_545 S
O212 C230 1.272 . S
O213 Tb191 2.344 1_565 S
O213 C231 1.272 . S
O214 Tb191 2.344 . S
O214 C229 1.272 . S
O215 Tb176 2.344 . S
O215 C228 1.272 . S
O216 Tb187 2.344 . S
O216 C227 1.272 . S
O217 Tb178 2.344 . S
O217 C226 1.272 . S
O218 Tb178 2.344 . S
O218 C224 1.272 . S
O219 Tb187 2.344 . S
O219 C225 1.272 . S
C220 O196 1.272 . S
C220 O208 1.272 . S
C221 O197 1.272 . S
C221 O209 1.272 . S
C222 O198 1.272 . S
C222 O211 1.272 . S
C223 O199 1.272 . S
C223 O210 1.272 . S
C224 O200 1.272 . S
C224 O218 1.272 . S
C225 O201 1.272 . S
C225 O219 1.272 . S
C226 O202 1.272 . S
C226 O217 1.272 . S
C227 O203 1.272 . S
C227 O216 1.272 . S
C228 O204 1.272 . S
C228 O215 1.272 . S
C229 O205 1.272 . S
C229 O214 1.272 . S
C230 O206 1.272 . S
C230 O212 1.272 . S
C231 O207 1.272 . S
C231 O213 1.272 . S
H232 O233 0.850 . S
O233 H232 0.850 . S
O233 Tb234 2.341 1_556 S
O233 Tb235 2.341 . S
O233 Tb236 2.341 . S
Tb234 O233 2.341 1_554 S
Tb234 O237 2.341 1_554 S
Tb234 O238 2.341 . S
Tb234 O239 2.341 . S
Tb234 O254 2.344 1_554 S
Tb234 O257 2.344 . S
Tb234 O270 2.344 . S
Tb234 O273 2.344 1_554 S
Tb235 O233 2.341 . S
Tb235 O237 2.341 . S
Tb235 O240 2.341 . S
Tb235 O242 2.341 . S
Tb235 O258 2.344 . S
Tb235 O261 2.344 . S
Tb235 O266 2.344 . S
Tb235 O269 2.344 . S
Tb236 O233 2.341 . S
Tb236 O238 2.341 1_556 S
Tb236 O241 2.341 1_556 S
Tb236 O242 2.341 . S
Tb236 O262 2.344 . S
Tb236 O265 2.344 . S
Tb236 O275 2.344 1_556 S
Tb236 O276 2.344 . S
O237 Tb234 2.341 1_556 S
O237 Tb235 2.341 . S
O237 H243 0.850 . S
O237 Tb245 2.341 1_556 S
O238 Tb234 2.341 . S
O238 Tb236 2.341 1_554 S
O238 H244 0.850 . S
O238 Tb246 2.341 . S
O239 Tb234 2.341 . S
O239 Tb245 2.341 . S
O239 Tb246 2.341 . S
O239 H247 0.850 . S
O240 Tb235 2.341 . S
O240 Tb245 2.341 1_556 S
O240 H248 0.850 . S
O240 Tb249 2.341 1_556 S
O241 Tb236 2.341 1_554 S
O241 Tb246 2.341 . S
O241 Tb249 2.341 . S
O241 H250 0.850 . S
O242 Tb235 2.341 . S
O242 Tb236 2.341 . S
O242 Tb249 2.341 1_556 S
O242 H251 0.850 . S
H243 O237 0.850 . S
H244 O238 0.850 . S
Tb245 O237 2.341 1_554 S
Tb245 O239 2.341 . S
Tb245 O240 2.341 1_554 S
Tb245 O252 2.341 . S
Tb245 O263 2.344 . S
Tb245 O264 2.344 . S
Tb245 O274 2.344 1_554 S
Tb245 O277 2.344 . S
Tb246 O238 2.341 . S
Tb246 O239 2.341 . S
Tb246 O241 2.341 . S
Tb246 O252 2.341 . S
Tb246 O259 2.344 . S
Tb246 O260 2.344 . S
Tb246 O267 2.344 . S
Tb246 O268 2.344 . S
H247 O239 0.850 . S
H248 O240 0.850 . S
Tb249 O240 2.341 1_554 S
Tb249 O241 2.341 . S
Tb249 O242 2.341 1_554 S
Tb249 O252 2.341 . S
Tb249 O255 2.344 . S
Tb249 O256 2.344 1_554 S
Tb249 O271 2.344 1_554 S
Tb249 O272 2.344 . S
H250 O241 0.850 . S
H251 O242 0.850 . S
O252 Tb245 2.341 . S
O252 Tb246 2.341 . S
O252 Tb249 2.341 . S
O252 H253 0.850 . S
H253 O252 0.850 . S
O254 Tb234 2.344 1_556 S
O254 C278 1.272 . S
O255 Tb249 2.344 . S
O255 C279 1.272 . S
O256 Tb249 2.344 1_556 S
O256 C280 1.272 . S
O257 Tb234 2.344 . S
O257 C281 1.272 . S
O258 Tb235 2.344 . S
O258 C282 1.272 . S
O259 Tb246 2.344 . S
O259 C283 1.272 . S
O260 Tb246 2.344 . S
O260 C284 1.272 . S
O261 Tb235 2.344 . S
O261 C285 1.272 . S
O262 Tb236 2.344 . S
O262 C286 1.272 . S
O263 Tb245 2.344 . S
O263 C287 1.272 . S
O264 Tb245 2.344 . S
O264 C288 1.272 . S
O265 Tb236 2.344 . S
O265 C289 1.272 . S
O266 Tb235 2.344 . S
O266 C278 1.272 . S
O267 Tb246 2.344 . S
O267 C279 1.272 . S
O268 Tb246 2.344 . S
O268 C281 1.272 . S
O269 Tb235 2.344 . S
O269 C280 1.272 . S
O270 Tb234 2.344 . S
O270 C288 1.272 . S
O271 Tb249 2.344 1_556 S
O271 C289 1.272 . S
O272 Tb249 2.344 . S
O272 C287 1.272 . S
O273 Tb234 2.344 1_556 S
O273 C286 1.272 . S
O274 Tb245 2.344 1_556 S
O274 C285 1.272 . S
O275 Tb236 2.344 1_554 S
O275 C284 1.272 . S
O276 Tb236 2.344 . S
O276 C282 1.272 . S
O277 Tb245 2.344 . S
O277 C283 1.272 . S
C278 O254 1.272 . S
C278 O266 1.272 . S
C279 O255 1.272 . S
C279 O267 1.272 . S
C280 O256 1.272 . S
C280 O269 1.272 . S
C281 O257 1.272 . S
C281 O268 1.272 . S
C282 O258 1.272 . S
C282 O276 1.272 . S
C283 O259 1.272 . S
C283 O277 1.272 . S
C284 O260 1.272 . S
C284 O275 1.272 . S
C285 O261 1.272 . S
C285 O274 1.272 . S
C286 O262 1.272 . S
C286 O273 1.272 . S
C287 O263 1.272 . S
C287 O272 1.272 . S
C288 O264 1.272 . S
C288 O270 1.272 . S
C289 O265 1.272 . S
C289 O271 1.272 . S
H290 O291 0.850 . S
O291 H290 0.850 . S
O291 Tb292 2.341 . S
O291 Tb293 2.341 . S
O291 Tb294 2.341 . S
Tb292 O291 2.341 . S
Tb292 O295 2.341 . S
Tb292 O296 2.341 . S
Tb292 O297 2.341 . S
Tb292 O312 2.344 . S
Tb292 O315 2.344 . S
Tb292 O328 2.344 . S
Tb292 O331 2.344 . S
Tb293 O291 2.341 . S
Tb293 O295 2.341 . S
Tb293 O298 2.341 . S
Tb293 O300 2.341 . S
Tb293 O316 2.344 . S
Tb293 O319 2.344 . S
Tb293 O324 2.344 . S
Tb293 O327 2.344 . S
Tb294 O291 2.341 . S
Tb294 O296 2.341 . S
Tb294 O299 2.341 . S
Tb294 O300 2.341 . S
Tb294 O320 2.344 . S
Tb294 O323 2.344 . S
Tb294 O333 2.344 . S
Tb294 O334 2.344 . S
O295 Tb292 2.341 . S
O295 Tb293 2.341 . S
O295 H301 0.850 . S
O295 Tb303 2.341 . S
O296 Tb292 2.341 . S
O296 Tb294 2.341 . S
O296 H302 0.850 . S
O296 Tb304 2.341 . S
O297 Tb292 2.341 . S
O297 Tb303 2.341 . S
O297 Tb304 2.341 . S
O297 H305 0.850 . S
O298 Tb293 2.341 . S
O298 Tb303 2.341 . S
O298 H306 0.850 . S
O298 Tb307 2.341 . S
O299 Tb294 2.341 . S
O299 Tb304 2.341 . S
O299 Tb307 2.341 . S
O299 H308 0.850 . S
O300 Tb293 2.341 . S
O300 Tb294 2.341 . S
O300 Tb307 2.341 . S
O300 H309 0.850 . S
H301 O295 0.850 . S
H302 O296 0.850 . S
Tb303 O295 2.341 . S
Tb303 O297 2.341 . S
Tb303 O298 2.341 . S
Tb303 O310 2.341 . S
Tb303 O321 2.344 . S
Tb303 O322 2.344 . S
Tb303 O332 2.344 . S
Tb303 O335 2.344 . S
Tb304 O296 2.341 . S
Tb304 O297 2.341 . S
Tb304 O299 2.341 . S
Tb304 O310 2.341 . S
Tb304 O317 2.344 . S
Tb304 O318 2.344 . S
Tb304 O325 2.344 . S
Tb304 O326 2.344 . S
H305 O297 0.850 . S
H306 O298 0.850 . S
Tb307 O298 2.341 . S
Tb307 O299 2.341 . S
Tb307 O300 2.341 . S
Tb307 O310 2.341 . S
Tb307 O313 2.344 . S
Tb307 O314 2.344 . S
Tb307 O329 2.344 . S
Tb307 O330 2.344 . S
H308 O299 0.850 . S
H309 O300 0.850 . S
O310 Tb303 2.341 . S
O310 Tb304 2.341 . S
O310 Tb307 2.341 . S
O310 H311 0.850 . S
H311 O310 0.850 . S
O312 Tb292 2.344 . S
O312 C336 1.272 . S
O313 Tb307 2.344 . S
O313 C337 1.272 . S
O314 Tb307 2.344 . S
O314 C338 1.272 . S
O315 Tb292 2.344 . S
O315 C339 1.272 . S
O316 Tb293 2.344 . S
O316 C340 1.272 . S
O317 Tb304 2.344 . S
O317 C341 1.272 . S
O318 Tb304 2.344 . S
O318 C342 1.272 . S
O319 Tb293 2.344 . S
O319 C343 1.272 . S
O320 Tb294 2.344 . S
O320 C344 1.272 . S
O321 Tb303 2.344 . S
O321 C345 1.272 . S
O322 Tb303 2.344 . S
O322 C346 1.272 . S
O323 Tb294 2.344 . S
O323 C347 1.272 . S
O324 Tb293 2.344 . S
O324 C336 1.272 . S
O325 Tb304 2.344 . S
O325 C337 1.272 . S
O326 Tb304 2.344 . S
O326 C339 1.272 . S
O327 Tb293 2.344 . S
O327 C338 1.272 . S
O328 Tb292 2.344 . S
O328 C346 1.272 . S
O329 Tb307 2.344 . S
O329 C347 1.272 . S
O330 Tb307 2.344 . S
O330 C345 1.272 . S
O331 Tb292 2.344 . S
O331 C344 1.272 . S
O332 Tb303 2.344 . S
O332 C343 1.272 . S
O333 Tb294 2.344 . S
O333 C342 1.272 . S
O334 Tb294 2.344 . S
O334 C340 1.272 . S
O335 Tb303 2.344 . S
O335 C341 1.272 . S
C336 O312 1.272 . S
C336 O324 1.272 . S
C337 O313 1.272 . S
C337 O325 1.272 . S
C338 O314 1.272 . S
C338 O327 1.272 . S
C339 O315 1.272 . S
C339 O326 1.272 . S
C340 O316 1.272 . S
C340 O334 1.272 . S
C341 O317 1.272 . S
C341 O335 1.272 . S
C342 O318 1.272 . S
C342 O333 1.272 . S
C343 O319 1.272 . S
C343 O332 1.272 . S
C344 O320 1.272 . S
C344 O331 1.272 . S
C345 O321 1.272 . S
C345 O330 1.272 . S
C346 O322 1.272 . S
C346 O328 1.272 . S
C347 O323 1.272 . S
C347 O329 1.272 . S
H348 O349 0.850 . S
O349 H348 0.850 . S
O349 Tb350 2.341 1_556 S
O349 Tb351 2.341 . S
O349 Tb352 2.341 . S
Tb350 O349 2.341 1_554 S
Tb350 O353 2.341 . S
Tb350 O354 2.341 1_554 S
Tb350 O355 2.341 . S
Tb350 O370 2.344 1_554 S
Tb350 O373 2.344 . S
Tb350 O386 2.344 . S
Tb350 O389 2.344 1_554 S
Tb351 O349 2.341 . S
Tb351 O353 2.341 1_556 S
Tb351 O356 2.341 1_556 S
Tb351 O358 2.341 . S
Tb351 O374 2.344 . S
Tb351 O377 2.344 1_556 S
Tb351 O382 2.344 . S
Tb351 O385 2.344 . S
Tb352 O349 2.341 . S
Tb352 O354 2.341 . S
Tb352 O357 2.341 . S
Tb352 O358 2.341 . S
Tb352 O378 2.344 . S
Tb352 O381 2.344 . S
Tb352 O391 2.344 . S
Tb352 O392 2.344 . S
O353 Tb350 2.341 . S
O353 Tb351 2.341 1_554 S
O353 H359 0.850 . S
O353 Tb361 2.341 . S
O354 Tb350 2.341 1_556 S
O354 Tb352 2.341 . S
O354 H360 0.850 . S
O354 Tb362 2.341 1_556 S
O355 Tb350 2.341 . S
O355 Tb361 2.341 . S
O355 Tb362 2.341 . S
O355 H363 0.850 . S
O356 Tb351 2.341 1_554 S
O356 Tb361 2.341 . S
O356 H364 0.850 . S
O356 Tb365 2.341 . S
O357 Tb352 2.341 . S
O357 Tb362 2.341 1_556 S
O357 Tb365 2.341 1_556 S
O357 H366 0.850 . S
O358 Tb351 2.341 . S
O358 Tb352 2.341 . S
O358 Tb365 2.341 1_556 S
O358 H367 0.850 . S
H359 O353 0.850 . S
H360 O354 0.850 . S
Tb361 O353 2.341 . S
Tb361 O355 2.341 . S
Tb361 O356 2.341 . S
Tb361 O368 2.341 . S
Tb361 O379 2.344 . S
Tb361 O380 2.344 . S
Tb361 O390 2.344 . S
Tb361 O393 2.344 . S
Tb362 O354 2.341 1_554 S
Tb362 O355 2.341 . S
Tb362 O357 2.341 1_554 S
Tb362 O368 2.341 . S
Tb362 O375 2.344 . S
Tb362 O376 2.344 1_554 S
Tb362 O383 2.344 . S
Tb362 O384 2.344 . S
H363 O355 0.850 . S
H364 O356 0.850 . S
Tb365 O356 2.341 . S
Tb365 O357 2.341 1_554 S
Tb365 O358 2.341 1_554 S
Tb365 O368 2.341 . S
Tb365 O371 2.344 1_545 S
Tb365 O372 2.344 1_544 S
Tb365 O387 2.344 1_544 S
Tb365 O388 2.344 1_545 S
H366 O357 0.850 . S
H367 O358 0.850 . S
O368 Tb361 2.341 . S
O368 Tb362 2.341 . S
O368 Tb365 2.341 . S
O368 H369 0.850 . S
H369 O368 0.850 . S
O370 Tb350 2.344 1_556 S
O370 C394 1.272 . S
O371 Tb365 2.344 1_565 S
O371 C395 1.272 1_565 S
O372 Tb365 2.344 1_566 S
O372 C396 1.272 1_565 S
O373 Tb350 2.344 . S
O373 C397 1.272 . S
O374 Tb351 2.344 . S
O374 C398 1.272 . S
O375 Tb362 2.344 . S
O375 C399 1.272 . S
O376 Tb362 2.344 1_556 S
O376 C400 1.272 . S
O377 Tb351 2.344 1_554 S
O377 C401 1.272 . S
O378 Tb352 2.344 . S
O378 C402 1.272 . S
O379 Tb361 2.344 . S
O379 C403 1.272 . S
O380 Tb361 2.344 . S
O380 C404 1.272 . S
O381 Tb352 2.344 . S
O381 C405 1.272 . S
O382 Tb351 2.344 . S
O382 C394 1.272 . S
O383 Tb362 2.344 . S
O383 C395 1.272 . S
O384 Tb362 2.344 . S
O384 C397 1.272 . S
O385 Tb351 2.344 . S
O385 C396 1.272 . S
O386 Tb350 2.344 . S
O386 C404 1.272 . S
O387 Tb365 2.344 1_566 S
O387 C405 1.272 1_565 S
O388 Tb365 2.344 1_565 S
O388 C403 1.272 1_565 S
O389 Tb350 2.344 1_556 S
O389 C402 1.272 . S
O390 Tb361 2.344 . S
O390 C401 1.272 . S
O391 Tb352 2.344 . S
O391 C400 1.272 . S
O392 Tb352 2.344 . S
O392 C398 1.272 . S
O393 Tb361 2.344 . S
O393 C399 1.272 . S
C394 O370 1.272 . S
C394 O382 1.272 . S
C395 O371 1.272 1_545 S
C395 O383 1.272 . S
C396 O372 1.272 1_545 S
C396 O385 1.272 . S
C397 O373 1.272 . S
C397 O384 1.272 . S
C398 O374 1.272 . S
C398 O392 1.272 . S
C399 O375 1.272 . S
C399 O393 1.272 . S
C400 O376 1.272 . S
C400 O391 1.272 . S
C401 O377 1.272 . S
C401 O390 1.272 . S
C402 O378 1.272 . S
C402 O389 1.272 . S
C403 O379 1.272 . S
C403 O388 1.272 1_545 S
C404 O380 1.272 . S
C404 O386 1.272 . S
C405 O381 1.272 . S
C405 O387 1.272 1_545 S
H406 O407 0.850 . S
O407 H406 0.850 . S
O407 Tb408 2.341 . S
O407 Tb409 2.341 . S
O407 Tb410 2.341 . S
Tb408 O407 2.341 . S
Tb408 O411 2.341 . S
Tb408 O412 2.341 . S
Tb408 O413 2.341 . S
Tb408 O428 2.344 . S
Tb408 O431 2.344 . S
Tb408 O444 2.344 . S
Tb408 O447 2.344 . S
Tb409 O407 2.341 . S
Tb409 O411 2.341 . S
Tb409 O414 2.341 . S
Tb409 O416 2.341 . S
Tb409 O432 2.344 . S
Tb409 O435 2.344 . S
Tb409 O440 2.344 . S
Tb409 O443 2.344 . S
Tb410 O407 2.341 . S
Tb410 O412 2.341 . S
Tb410 O415 2.341 . S
Tb410 O416 2.341 . S
Tb410 O436 2.344 . S
Tb410 O439 2.344 . S
Tb410 O449 2.344 . S
Tb410 O450 2.344 . S
O411 Tb408 2.341 . S
O411 Tb409 2.341 . S
O411 H417 0.850 . S
O411 Tb419 2.341 . S
O412 Tb408 2.341 . S
O412 Tb410 2.341 . S
O412 H418 0.850 . S
O412 Tb420 2.341 . S
O413 Tb408 2.341 . S
O413 Tb419 2.341 . S
O413 Tb420 2.341 . S
O413 H421 0.850 . S
O414 Tb409 2.341 . S
O414 Tb419 2.341 . S
O414 H422 0.850 . S
O414 Tb423 2.341 . S
O415 Tb410 2.341 . S
O415 Tb420 2.341 . S
O415 Tb423 2.341 . S
O415 H424 0.850 . S
O416 Tb409 2.341 . S
O416 Tb410 2.341 . S
O416 Tb423 2.341 . S
O416 H425 0.850 . S
H417 O411 0.850 . S
H418 O412 0.850 . S
Tb419 O411 2.341 . S
Tb419 O413 2.341 . S
Tb419 O414 2.341 . S
Tb419 O426 2.341 . S
Tb419 O437 2.344 . S
Tb419 O438 2.344 . S
Tb419 O448 2.344 . S
Tb419 O451 2.344 . S
Tb420 O412 2.341 . S
Tb420 O413 2.341 . S
Tb420 O415 2.341 . S
Tb420 O426 2.341 . S
Tb420 O433 2.344 . S
Tb420 O434 2.344 . S
Tb420 O441 2.344 . S
Tb420 O442 2.344 . S
H421 O413 0.850 . S
H422 O414 0.850 . S
Tb423 O414 2.341 . S
Tb423 O415 2.341 . S
Tb423 O416 2.341 . S
Tb423 O426 2.341 . S
Tb423 O429 2.344 . S
Tb423 O430 2.344 . S
Tb423 O445 2.344 . S
Tb423 O446 2.344 . S
H424 O415 0.850 . S
H425 O416 0.850 . S
O426 Tb419 2.341 . S
O426 Tb420 2.341 . S
O426 Tb423 2.341 . S
O426 H427 0.850 . S
H427 O426 0.850 . S
O428 Tb408 2.344 . S
O428 C452 1.272 . S
O429 Tb423 2.344 . S
O429 C453 1.272 . S
O430 Tb423 2.344 . S
O430 C454 1.272 . S
O431 Tb408 2.344 . S
O431 C455 1.272 . S
O432 Tb409 2.344 . S
O432 C456 1.272 . S
O433 Tb420 2.344 . S
O433 C457 1.272 . S
O434 Tb420 2.344 . S
O434 C458 1.272 . S
O435 Tb409 2.344 . S
O435 C459 1.272 . S
O436 Tb410 2.344 . S
O436 C460 1.272 . S
O437 Tb419 2.344 . S
O437 C461 1.272 . S
O438 Tb419 2.344 . S
O438 C462 1.272 . S
O439 Tb410 2.344 . S
O439 C463 1.272 . S
O440 Tb409 2.344 . S
O440 C452 1.272 . S
O441 Tb420 2.344 . S
O441 C453 1.272 . S
O442 Tb420 2.344 . S
O442 C455 1.272 . S
O443 Tb409 2.344 . S
O443 C454 1.272 . S
O444 Tb408 2.344 . S
O444 C462 1.272 . S
O445 Tb423 2.344 . S
O445 C463 1.272 . S
O446 Tb423 2.344 . S
O446 C461 1.272 . S
O447 Tb408 2.344 . S
O447 C460 1.272 . S
O448 Tb419 2.344 . S
O448 C459 1.272 . S
O449 Tb410 2.344 . S
O449 C458 1.272 . S
O450 Tb410 2.344 . S
O450 C456 1.272 . S
O451 Tb419 2.344 . S
O451 C457 1.272 . S
C452 O428 1.272 . S
C452 O440 1.272 . S
C453 O429 1.272 . S
C453 O441 1.272 . S
C454 O430 1.272 . S
C454 O443 1.272 . S
C455 O431 1.272 . S
C455 O442 1.272 . S
C456 O432 1.272 . S
C456 O450 1.272 . S
C457 O433 1.272 . S
C457 O451 1.272 . S
C458 O434 1.272 . S
C458 O449 1.272 . S
C459 O435 1.272 . S
C459 O448 1.272 . S
C460 O436 1.272 . S
C460 O447 1.272 . S
C461 O437 1.272 . S
C461 O446 1.272 . S
C462 O438 1.272 . S
C462 O444 1.272 . S
C463 O439 1.272 . S
C463 O445 1.272 . S
H464 O465 0.850 . S
O465 H464 0.850 . S
O465 Tb466 2.341 . S
O465 Tb467 2.341 . S
O465 Tb468 2.341 . S
Tb466 O465 2.341 . S
Tb466 O469 2.341 . S
Tb466 O470 2.341 . S
Tb466 O471 2.341 . S
Tb466 O486 2.344 . S
Tb466 O489 2.344 . S
Tb466 O502 2.344 . S
Tb466 O505 2.344 . S
Tb467 O465 2.341 . S
Tb467 O469 2.341 . S
Tb467 O472 2.341 . S
Tb467 O474 2.341 . S
Tb467 O490 2.344 1_655 S
Tb467 O493 2.344 1_655 S
Tb467 O498 2.344 1_655 S
Tb467 O501 2.344 1_655 S
Tb468 O465 2.341 . S
Tb468 O470 2.341 . S
Tb468 O473 2.341 . S
Tb468 O474 2.341 . S
Tb468 O494 2.344 . S
Tb468 O497 2.344 . S
Tb468 O507 2.344 . S
Tb468 O508 2.344 . S
O469 Tb466 2.341 . S
O469 Tb467 2.341 . S
O469 H475 0.850 . S
O469 Tb477 2.341 . S
O470 Tb466 2.341 . S
O470 Tb468 2.341 . S
O470 H476 0.850 . S
O470 Tb478 2.341 . S
O471 Tb466 2.341 . S
O471 Tb477 2.341 . S
O471 Tb478 2.341 . S
O471 H479 0.850 . S
O472 Tb467 2.341 . S
O472 Tb477 2.341 . S
O472 H480 0.850 . S
O472 Tb481 2.341 . S
O473 Tb468 2.341 . S
O473 Tb478 2.341 . S
O473 Tb481 2.341 . S
O473 H482 0.850 . S
O474 Tb467 2.341 . S
O474 Tb468 2.341 . S
O474 Tb481 2.341 . S
O474 H483 0.850 . S
H475 O469 0.850 . S
H476 O470 0.850 . S
Tb477 O469 2.341 . S
Tb477 O471 2.341 . S
Tb477 O472 2.341 . S
Tb477 O484 2.341 . S
Tb477 O495 2.344 . S
Tb477 O496 2.344 . S
Tb477 O506 2.344 . S
Tb477 O509 2.344 . S
Tb478 O470 2.341 . S
Tb478 O471 2.341 . S
Tb478 O473 2.341 . S
Tb478 O484 2.341 . S
Tb478 O491 2.344 . S
Tb478 O492 2.344 . S
Tb478 O499 2.344 . S
Tb478 O500 2.344 . S
H479 O471 0.850 . S
H480 O472 0.850 . S
Tb481 O472 2.341 . S
Tb481 O473 2.341 . S
Tb481 O474 2.341 . S
Tb481 O484 2.341 . S
Tb481 O487 2.344 . S
Tb481 O488 2.344 . S
Tb481 O503 2.344 . S
Tb481 O504 2.344 . S
H482 O473 0.850 . S
H483 O474 0.850 . S
O484 Tb477 2.341 . S
O484 Tb478 2.341 . S
O484 Tb481 2.341 . S
O484 H485 0.850 . S
H485 O484 0.850 . S
O486 Tb466 2.344 . S
O486 C510 1.272 . S
O487 Tb481 2.344 . S
O487 C511 1.272 . S
O488 Tb481 2.344 . S
O488 C512 1.272 . S
O489 Tb466 2.344 . S
O489 C513 1.272 . S
O490 Tb467 2.344 1_455 S
O490 C514 1.272 1_455 S
O491 Tb478 2.344 . S
O491 C515 1.272 . S
O492 Tb478 2.344 . S
O492 C516 1.272 . S
O493 Tb467 2.344 1_455 S
O493 C517 1.272 1_455 S
O494 Tb468 2.344 . S
O494 C518 1.272 . S
O495 Tb477 2.344 . S
O495 C519 1.272 . S
O496 Tb477 2.344 . S
O496 C520 1.272 . S
O497 Tb468 2.344 . S
O497 C521 1.272 . S
O498 Tb467 2.344 1_455 S
O498 C510 1.272 1_455 S
O499 Tb478 2.344 . S
O499 C511 1.272 . S
O500 Tb478 2.344 . S
O500 C513 1.272 . S
O501 Tb467 2.344 1_455 S
O501 C512 1.272 1_455 S
O502 Tb466 2.344 . S
O502 C520 1.272 . S
O503 Tb481 2.344 . S
O503 C521 1.272 . S
O504 Tb481 2.344 . S
O504 C519 1.272 . S
O505 Tb466 2.344 . S
O505 C518 1.272 . S
O506 Tb477 2.344 . S
O506 C517 1.272 . S
O507 Tb468 2.344 . S
O507 C516 1.272 . S
O508 Tb468 2.344 . S
O508 C514 1.272 . S
O509 Tb477 2.344 . S
O509 C515 1.272 . S
C510 O486 1.272 . S
C510 O498 1.272 1_655 S
C511 O487 1.272 . S
C511 O499 1.272 . S
C512 O488 1.272 . S
C512 O501 1.272 1_655 S
C513 O489 1.272 . S
C513 O500 1.272 . S
C514 O490 1.272 1_655 S
C514 O508 1.272 . S
C515 O491 1.272 . S
C515 O509 1.272 . S
C516 O492 1.272 . S
C516 O507 1.272 . S
C517 O493 1.272 1_655 S
C517 O506 1.272 . S
C518 O494 1.272 . S
C518 O505 1.272 . S
C519 O495 1.272 . S
C519 O504 1.272 . S
C520 O496 1.272 . S
C520 O502 1.272 . S
C521 O497 1.272 . S
C521 O503 1.272 . S
H522 O523 0.850 . S
O523 H522 0.850 . S
O523 Tb524 2.341 . S
O523 Tb525 2.341 . S
O523 Tb526 2.341 . S
Tb524 O523 2.341 . S
Tb524 O527 2.341 . S
Tb524 O528 2.341 . S
Tb524 O529 2.341 . S
Tb524 O544 2.344 1_565 S
Tb524 O547 2.344 1_565 S
Tb524 O560 2.344 1_565 S
Tb524 O563 2.344 1_565 S
Tb525 O523 2.341 . S
Tb525 O527 2.341 . S
Tb525 O530 2.341 . S
Tb525 O532 2.341 . S
Tb525 O548 2.344 . S
Tb525 O551 2.344 . S
Tb525 O556 2.344 . S
Tb525 O559 2.344 . S
Tb526 O523 2.341 . S
Tb526 O528 2.341 . S
Tb526 O531 2.341 . S
Tb526 O532 2.341 . S
Tb526 O552 2.344 . S
Tb526 O555 2.344 . S
Tb526 O565 2.344 . S
Tb526 O566 2.344 . S
O527 Tb524 2.341 . S
O527 Tb525 2.341 . S
O527 H533 0.850 . S
O527 Tb535 2.341 . S
O528 Tb524 2.341 . S
O528 Tb526 2.341 . S
O528 H534 0.850 . S
O528 Tb536 2.341 . S
O529 Tb524 2.341 . S
O529 Tb535 2.341 . S
O529 Tb536 2.341 . S
O529 H537 0.850 . S
O530 Tb525 2.341 . S
O530 Tb535 2.341 . S
O530 H538 0.850 . S
O530 Tb539 2.341 . S
O531 Tb526 2.341 . S
O531 Tb536 2.341 . S
O531 Tb539 2.341 . S
O531 H540 0.850 . S
O532 Tb525 2.341 . S
O532 Tb526 2.341 . S
O532 Tb539 2.341 . S
O532 H541 0.850 . S
H533 O527 0.850 . S
H534 O528 0.850 . S
Tb535 O527 2.341 . S
Tb535 O529 2.341 . S
Tb535 O530 2.341 . S
Tb535 O542 2.341 . S
Tb535 O553 2.344 . S
Tb535 O554 2.344 . S
Tb535 O564 2.344 . S
Tb535 O567 2.344 . S
Tb536 O528 2.341 . S
Tb536 O529 2.341 . S
Tb536 O531 2.341 . S
Tb536 O542 2.341 . S
Tb536 O549 2.344 . S
Tb536 O550 2.344 . S
Tb536 O557 2.344 . S
Tb536 O558 2.344 . S
H537 O529 0.850 . S
H538 O530 0.850 . S
Tb539 O530 2.341 . S
Tb539 O531 2.341 . S
Tb539 O532 2.341 . S
Tb539 O542 2.341 . S
Tb539 O545 2.344 . S
Tb539 O546 2.344 . S
Tb539 O561 2.344 . S
Tb539 O562 2.344 . S
H540 O531 0.850 . S
H541 O532 0.850 . S
O542 Tb535 2.341 . S
O542 Tb536 2.341 . S
O542 Tb539 2.341 . S
O542 H543 0.850 . S
H543 O542 0.850 . S
O544 Tb524 2.344 1_545 S
O544 C568 1.272 1_545 S
O545 Tb539 2.344 . S
O545 C569 1.272 . S
O546 Tb539 2.344 . S
O546 C570 1.272 . S
O547 Tb524 2.344 1_545 S
O547 C571 1.272 1_545 S
O548 Tb525 2.344 . S
O548 C572 1.272 . S
O549 Tb536 2.344 . S
O549 C573 1.272 . S
O550 Tb536 2.344 . S
O550 C574 1.272 . S
O551 Tb525 2.344 . S
O551 C575 1.272 . S
O552 Tb526 2.344 . S
O552 C576 1.272 . S
O553 Tb535 2.344 . S
O553 C577 1.272 . S
O554 Tb535 2.344 . S
O554 C578 1.272 . S
O555 Tb526 2.344 . S
O555 C579 1.272 . S
O556 Tb525 2.344 . S
O556 C568 1.272 . S
O557 Tb536 2.344 . S
O557 C569 1.272 . S
O558 Tb536 2.344 . S
O558 C571 1.272 . S
O559 Tb525 2.344 . S
O559 C570 1.272 . S
O560 Tb524 2.344 1_545 S
O560 C578 1.272 1_545 S
O561 Tb539 2.344 . S
O561 C579 1.272 . S
O562 Tb539 2.344 . S
O562 C577 1.272 . S
O563 Tb524 2.344 1_545 S
O563 C576 1.272 1_545 S
O564 Tb535 2.344 . S
O564 C575 1.272 . S
O565 Tb526 2.344 . S
O565 C574 1.272 . S
O566 Tb526 2.344 . S
O566 C572 1.272 . S
O567 Tb535 2.344 . S
O567 C573 1.272 . S
C568 O544 1.272 1_565 S
C568 O556 1.272 . S
C569 O545 1.272 . S
C569 O557 1.272 . S
C570 O546 1.272 . S
C570 O559 1.272 . S
C571 O547 1.272 1_565 S
C571 O558 1.272 . S
C572 O548 1.272 . S
C572 O566 1.272 . S
C573 O549 1.272 . S
C573 O567 1.272 . S
C574 O550 1.272 . S
C574 O565 1.272 . S
C575 O551 1.272 . S
C575 O564 1.272 . S
C576 O552 1.272 . S
C576 O563 1.272 1_565 S
C577 O553 1.272 . S
C577 O562 1.272 . S
C578 O554 1.272 . S
C578 O560 1.272 1_565 S
C579 O555 1.272 . S
C579 O561 1.272 . S
H580 O581 0.850 . S
O581 H580 0.850 . S
O581 Tb582 2.341 1_565 S
O581 Tb583 2.341 . S
O581 Tb584 2.341 . S
Tb582 O581 2.341 1_545 S
Tb582 O585 2.341 . S
Tb582 O586 2.341 1_545 S
Tb582 O587 2.341 . S
Tb582 O602 2.344 1_545 S
Tb582 O605 2.344 . S
Tb582 O618 2.344 . S
Tb582 O621 2.344 1_545 S
Tb583 O581 2.341 . S
Tb583 O585 2.341 1_565 S
Tb583 O588 2.341 1_565 S
Tb583 O590 2.341 . S
Tb583 O606 2.344 . S
Tb583 O609 2.344 1_565 S
Tb583 O614 2.344 . S
Tb583 O617 2.344 . S
Tb584 O581 2.341 . S
Tb584 O586 2.341 . S
Tb584 O589 2.341 . S
Tb584 O590 2.341 . S
Tb584 O610 2.344 . S
Tb584 O613 2.344 . S
Tb584 O623 2.344 . S
Tb584 O624 2.344 . S
O585 Tb582 2.341 . S
O585 Tb583 2.341 1_545 S
O585 H591 0.850 . S
O585 Tb593 2.341 . S
O586 Tb582 2.341 1_565 S
O586 Tb584 2.341 . S
O586 H592 0.850 . S
O586 Tb594 2.341 1_565 S
O587 Tb582 2.341 . S
O587 Tb593 2.341 . S
O587 Tb594 2.341 . S
O587 H595 0.850 . S
O588 Tb583 2.341 1_545 S
O588 Tb593 2.341 . S
O588 H596 0.850 . S
O588 Tb597 2.341 . S
O589 Tb584 2.341 . S
O589 Tb594 2.341 1_565 S
O589 Tb597 2.341 1_565 S
O589 H598 0.850 . S
O590 Tb583 2.341 . S
O590 Tb584 2.341 . S
O590 Tb597 2.341 1_565 S
O590 H599 0.850 . S
H591 O585 0.850 . S
H592 O586 0.850 . S
Tb593 O585 2.341 . S
Tb593 O587 2.341 . S
Tb593 O588 2.341 . S
Tb593 O600 2.341 . S
Tb593 O611 2.344 . S
Tb593 O612 2.344 . S
Tb593 O622 2.344 . S
Tb593 O625 2.344 . S
Tb594 O586 2.341 1_545 S
Tb594 O587 2.341 . S
Tb594 O589 2.341 1_545 S
Tb594 O600 2.341 . S
Tb594 O607 2.344 . S
Tb594 O608 2.344 1_545 S
Tb594 O615 2.344 . S
Tb594 O616 2.344 . S
H595 O587 0.850 . S
H596 O588 0.850 . S
Tb597 O588 2.341 . S
Tb597 O589 2.341 1_545 S
Tb597 O590 2.341 1_545 S
Tb597 O600 2.341 . S
Tb597 O603 2.344 1_455 S
Tb597 O604 2.344 1_445 S
Tb597 O619 2.344 1_445 S
Tb597 O620 2.344 1_455 S
H598 O589 0.850 . S
H599 O590 0.850 . S
O600 Tb593 2.341 . S
O600 Tb594 2.341 . S
O600 Tb597 2.341 . S
O600 H601 0.850 . S
H601 O600 0.850 . S
O602 Tb582 2.344 1_565 S
O602 C626 1.272 . S
O603 Tb597 2.344 1_655 S
O603 C627 1.272 1_655 S
O604 Tb597 2.344 1_665 S
O604 C628 1.272 1_655 S
O605 Tb582 2.344 . S
O605 C629 1.272 . S
O606 Tb583 2.344 . S
O606 C630 1.272 . S
O607 Tb594 2.344 . S
O607 C631 1.272 . S
O608 Tb594 2.344 1_565 S
O608 C632 1.272 . S
O609 Tb583 2.344 1_545 S
O609 C633 1.272 . S
O610 Tb584 2.344 . S
O610 C634 1.272 . S
O611 Tb593 2.344 . S
O611 C635 1.272 . S
O612 Tb593 2.344 . S
O612 C636 1.272 . S
O613 Tb584 2.344 . S
O613 C637 1.272 . S
O614 Tb583 2.344 . S
O614 C626 1.272 . S
O615 Tb594 2.344 . S
O615 C627 1.272 . S
O616 Tb594 2.344 . S
O616 C629 1.272 . S
O617 Tb583 2.344 . S
O617 C628 1.272 . S
O618 Tb582 2.344 . S
O618 C636 1.272 . S
O619 Tb597 2.344 1_665 S
O619 C637 1.272 1_655 S
O620 Tb597 2.344 1_655 S
O620 C635 1.272 1_655 S
O621 Tb582 2.344 1_565 S
O621 C634 1.272 . S
O622 Tb593 2.344 . S
O622 C633 1.272 . S
O623 Tb584 2.344 . S
O623 C632 1.272 . S
O624 Tb584 2.344 . S
O624 C630 1.272 . S
O625 Tb593 2.344 . S
O625 C631 1.272 . S
C626 O602 1.272 . S
C626 O614 1.272 . S
C627 O603 1.272 1_455 S
C627 O615 1.272 . S
C628 O604 1.272 1_455 S
C628 O617 1.272 . S
C629 O605 1.272 . S
C629 O616 1.272 . S
C630 O606 1.272 . S
C630 O624 1.272 . S
C631 O607 1.272 . S
C631 O625 1.272 . S
C632 O608 1.272 . S
C632 O623 1.272 . S
C633 O609 1.272 . S
C633 O622 1.272 . S
C634 O610 1.272 . S
C634 O621 1.272 . S
C635 O611 1.272 . S
C635 O620 1.272 1_455 S
C636 O612 1.272 . S
C636 O618 1.272 . S
C637 O613 1.272 . S
C637 O619 1.272 1_455 S
H638 O639 0.850 . S
O639 H638 0.850 . S
O639 Tb640 2.341 . S
O639 Tb641 2.341 . S
O639 Tb642 2.341 . S
Tb640 O639 2.341 . S
Tb640 O643 2.341 . S
Tb640 O644 2.341 . S
Tb640 O645 2.341 . S
Tb640 O660 2.344 . S
Tb640 O663 2.344 . S
Tb640 O676 2.344 . S
Tb640 O679 2.344 . S
Tb641 O639 2.341 . S
Tb641 O643 2.341 . S
Tb641 O646 2.341 . S
Tb641 O648 2.341 . S
Tb641 O664 2.344 . S
Tb641 O667 2.344 . S
Tb641 O672 2.344 . S
Tb641 O675 2.344 . S
Tb642 O639 2.341 . S
Tb642 O644 2.341 . S
Tb642 O647 2.341 . S
Tb642 O648 2.341 . S
Tb642 O668 2.344 . S
Tb642 O671 2.344 . S
Tb642 O681 2.344 . S
Tb642 O682 2.344 . S
O643 Tb640 2.341 . S
O643 Tb641 2.341 . S
O643 H649 0.850 . S
O643 Tb651 2.341 . S
O644 Tb640 2.341 . S
O644 Tb642 2.341 . S
O644 H650 0.850 . S
O644 Tb652 2.341 . S
O645 Tb640 2.341 . S
O645 Tb651 2.341 . S
O645 Tb652 2.341 . S
O645 H653 0.850 . S
O646 Tb641 2.341 . S
O646 Tb651 2.341 . S
O646 H654 0.850 . S
O646 Tb655 2.341 . S
O647 Tb642 2.341 . S
O647 Tb652 2.341 . S
O647 Tb655 2.341 . S
O647 H656 0.850 . S
O648 Tb641 2.341 . S
O648 Tb642 2.341 . S
O648 Tb655 2.341 . S
O648 H657 0.850 . S
H649 O643 0.850 . S
H650 O644 0.850 . S
Tb651 O643 2.341 . S
Tb651 O645 2.341 . S
Tb651 O646 2.341 . S
Tb651 O658 2.341 . S
Tb651 O669 2.344 . S
Tb651 O670 2.344 . S
Tb651 O680 2.344 . S
Tb651 O683 2.344 . S
Tb652 O644 2.341 . S
Tb652 O645 2.341 . S
Tb652 O647 2.341 . S
Tb652 O658 2.341 . S
Tb652 O665 2.344 . S
Tb652 O666 2.344 . S
Tb652 O673 2.344 . S
Tb652 O674 2.344 . S
H653 O645 0.850 . S
H654 O646 0.850 . S
Tb655 O646 2.341 . S
Tb655 O647 2.341 . S
Tb655 O648 2.341 . S
Tb655 O658 2.341 . S
Tb655 O661 2.344 . S
Tb655 O662 2.344 . S
Tb655 O677 2.344 . S
Tb655 O678 2.344 . S
H656 O647 0.850 . S
H657 O648 0.850 . S
O658 Tb651 2.341 . S
O658 Tb652 2.341 . S
O658 Tb655 2.341 . S
O658 H659 0.850 . S
H659 O658 0.850 . S
O660 Tb640 2.344 . S
O660 C684 1.272 . S
O661 Tb655 2.344 . S
O661 C685 1.272 . S
O662 Tb655 2.344 . S
O662 C686 1.272 . S
O663 Tb640 2.344 . S
O663 C687 1.272 . S
O664 Tb641 2.344 . S
O664 C688 1.272 . S
O665 Tb652 2.344 . S
O665 C689 1.272 . S
O666 Tb652 2.344 . S
O666 C690 1.272 . S
O667 Tb641 2.344 . S
O667 C691 1.272 . S
O668 Tb642 2.344 . S
O668 C692 1.272 . S
O669 Tb651 2.344 . S
O669 C693 1.272 . S
O670 Tb651 2.344 . S
O670 C694 1.272 . S
O671 Tb642 2.344 . S
O671 C695 1.272 . S
O672 Tb641 2.344 . S
O672 C684 1.272 . S
O673 Tb652 2.344 . S
O673 C685 1.272 . S
O674 Tb652 2.344 . S
O674 C687 1.272 . S
O675 Tb641 2.344 . S
O675 C686 1.272 . S
O676 Tb640 2.344 . S
O676 C694 1.272 . S
O677 Tb655 2.344 . S
O677 C695 1.272 . S
O678 Tb655 2.344 . S
O678 C693 1.272 . S
O679 Tb640 2.344 . S
O679 C692 1.272 . S
O680 Tb651 2.344 . S
O680 C691 1.272 . S
O681 Tb642 2.344 . S
O681 C690 1.272 . S
O682 Tb642 2.344 . S
O682 C688 1.272 . S
O683 Tb651 2.344 . S
O683 C689 1.272 . S
C684 O660 1.272 . S
C684 O672 1.272 . S
C685 O661 1.272 . S
C685 O673 1.272 . S
C686 O662 1.272 . S
C686 O675 1.272 . S
C687 O663 1.272 . S
C687 O674 1.272 . S
C688 O664 1.272 . S
C688 O682 1.272 . S
C689 O665 1.272 . S
C689 O683 1.272 . S
C690 O666 1.272 . S
C690 O681 1.272 . S
C691 O667 1.272 . S
C691 O680 1.272 . S
C692 O668 1.272 . S
C692 O679 1.272 . S
C693 O669 1.272 . S
C693 O678 1.272 . S
C694 O670 1.272 . S
C694 O676 1.272 . S
C695 O671 1.272 . S
C695 O677 1.272 . S
C696 C697 1.369 . S
C696 C698 1.419 . S
C696 H700 0.930 . S
C697 C696 1.369 . S
C697 C706 1.429 . S
C698 C696 1.419 . S
C698 C699 1.363 . S
C698 H701 0.929 . S
C699 C698 1.363 . S
C699 C705 1.428 . S
H700 C696 0.930 . S
H701 C698 0.929 . S
S702 N703 1.613 . S
S702 N704 1.610 . S
N703 S702 1.613 . S
N703 C706 1.350 . S
N704 S702 1.610 . S
N704 C705 1.351 . S
C705 C699 1.428 . S
C705 N704 1.351 . S
C705 C706 1.434 . S
C706 C697 1.429 . S
C706 N703 1.350 . S
C706 C705 1.434 . S
C707 C708 1.369 . S
C707 C709 1.419 . S
C707 H711 0.930 . S
C708 C707 1.369 . S
C708 C717 1.429 . S
C709 C707 1.419 . S
C709 C710 1.363 . S
C709 H712 0.929 . S
C710 C709 1.363 . S
C710 C716 1.428 . S
H711 C707 0.930 . S
H712 C709 0.929 . S
S713 N714 1.613 . S
S713 N715 1.610 . S
N714 S713 1.613 . S
N714 C717 1.350 . S
N715 S713 1.610 . S
N715 C716 1.351 . S
C716 C710 1.428 . S
C716 N715 1.351 . S
C716 C717 1.434 . S
C717 C708 1.429 . S
C717 N714 1.350 . S
C717 C716 1.434 . S
C718 C719 1.369 . S
C718 C720 1.419 . S
C718 H722 0.930 . S
C719 C718 1.369 . S
C719 C728 1.429 . S
C720 C718 1.419 . S
C720 C721 1.363 . S
C720 H723 0.929 . S
C721 C720 1.363 . S
C721 C727 1.428 . S
H722 C718 0.930 . S
H723 C720 0.929 . S
S724 N725 1.613 . S
S724 N726 1.610 . S
N725 S724 1.613 . S
N725 C728 1.350 . S
N726 S724 1.610 . S
N726 C727 1.351 . S
C727 C721 1.428 . S
C727 N726 1.351 . S
C727 C728 1.434 . S
C728 C719 1.429 . S
C728 N725 1.350 . S
C728 C727 1.434 . S
C729 C730 1.369 . S
C729 C731 1.419 . S
C729 H733 0.930 . S
C730 C729 1.369 . S
C730 C739 1.429 . S
C731 C729 1.419 . S
C731 C732 1.363 . S
C731 H734 0.929 . S
C732 C731 1.363 . S
C732 C738 1.428 . S
H733 C729 0.930 . S
H734 C731 0.929 . S
S735 N736 1.613 1_556 S
S735 N737 1.610 . S
N736 S735 1.613 1_554 S
N736 C739 1.350 . S
N737 S735 1.610 . S
N737 C738 1.351 1_556 S
C738 C732 1.428 . S
C738 N737 1.351 1_554 S
C738 C739 1.434 . S
C739 C730 1.429 . S
C739 N736 1.350 . S
C739 C738 1.434 . S
C740 C741 1.369 . S
C740 C742 1.419 . S
C740 H744 0.930 . S
C741 C740 1.369 . S
C741 C750 1.429 . S
C742 C740 1.419 . S
C742 C743 1.363 . S
C742 H745 0.929 . S
C743 C742 1.363 . S
C743 C749 1.428 . S
H744 C740 0.930 . S
H745 C742 0.929 . S
S746 N747 1.613 . S
S746 N748 1.610 . S
N747 S746 1.613 . S
N747 C750 1.350 . S
N748 S746 1.610 . S
N748 C749 1.351 . S
C749 C743 1.428 . S
C749 N748 1.351 . S
C749 C750 1.434 . S
C750 C741 1.429 . S
C750 N747 1.350 . S
C750 C749 1.434 . S
C751 C752 1.369 . S
C751 C753 1.419 . S
C751 H755 0.930 . S
C752 C751 1.369 . S
C752 C761 1.429 . S
C753 C751 1.419 . S
C753 C754 1.363 . S
C753 H756 0.929 . S
C754 C753 1.363 . S
C754 C760 1.428 . S
H755 C751 0.930 . S
H756 C753 0.929 . S
S757 N758 1.613 . S
S757 N759 1.610 1_554 S
N758 S757 1.613 . S
N758 C761 1.350 1_554 S
N759 S757 1.610 1_556 S
N759 C760 1.351 . S
C760 C754 1.428 . S
C760 N759 1.351 . S
C760 C761 1.434 . S
C761 C752 1.429 . S
C761 N758 1.350 1_556 S
C761 C760 1.434 . S
C762 C763 1.369 . S
C762 C764 1.419 . S
C762 H766 0.930 . S
C763 C762 1.369 . S
C763 C772 1.429 . S
C764 C762 1.419 . S
C764 C765 1.363 . S
C764 H767 0.929 . S
C765 C764 1.363 . S
C765 C771 1.428 . S
H766 C762 0.930 . S
H767 C764 0.929 . S
S768 N769 1.613 . S
S768 N770 1.610 . S
N769 S768 1.613 . S
N769 C772 1.350 . S
N770 S768 1.610 . S
N770 C771 1.351 . S
C771 C765 1.428 . S
C771 N770 1.351 . S
C771 C772 1.434 . S
C772 C763 1.429 . S
C772 N769 1.350 . S
C772 C771 1.434 . S
C773 C774 1.369 . S
C773 C775 1.419 . S
C773 H777 0.930 . S
C774 C773 1.369 . S
C774 C783 1.429 . S
C775 C773 1.419 . S
C775 C776 1.363 . S
C775 H778 0.929 1_556 S
C776 C775 1.363 . S
C776 C782 1.428 . S
H777 C773 0.930 . S
H778 C775 0.929 1_554 S
S779 N780 1.613 . S
S779 N781 1.610 . S
N780 S779 1.613 . S
N780 C783 1.350 . S
N781 S779 1.610 . S
N781 C782 1.351 . S
C782 C776 1.428 . S
C782 N781 1.351 . S
C782 C783 1.434 . S
C783 C774 1.429 . S
C783 N780 1.350 . S
C783 C782 1.434 . S
C784 C785 1.369 . S
C784 C786 1.419 . S
C784 H788 0.930 . S
C785 C784 1.369 . S
C785 C794 1.429 . S
C786 C784 1.419 . S
C786 C787 1.363 . S
C786 H789 0.929 . S
C787 C786 1.363 . S
C787 C793 1.428 . S
H788 C784 0.930 . S
H789 C786 0.929 . S
S790 N791 1.613 . S
S790 N792 1.610 . S
N791 S790 1.613 . S
N791 C794 1.350 . S
N792 S790 1.610 . S
N792 C793 1.351 . S
C793 C787 1.428 . S
C793 N792 1.351 . S
C793 C794 1.434 . S
C794 C785 1.429 . S
C794 N791 1.350 . S
C794 C793 1.434 . S
C795 C796 1.369 . S
C795 C797 1.419 . S
C795 H799 0.930 . S
C796 C795 1.369 . S
C796 C805 1.429 . S
C797 C795 1.419 . S
C797 C798 1.363 . S
C797 H800 0.929 . S
C798 C797 1.363 . S
C798 C804 1.428 . S
H799 C795 0.930 . S
H800 C797 0.929 . S
S801 N802 1.613 . S
S801 N803 1.610 . S
N802 S801 1.613 . S
N802 C805 1.350 . S
N803 S801 1.610 . S
N803 C804 1.351 . S
C804 C798 1.428 . S
C804 N803 1.351 . S
C804 C805 1.434 . S
C805 C796 1.429 . S
C805 N802 1.350 . S
C805 C804 1.434 . S
C806 C807 1.369 . S
C806 C808 1.419 . S
C806 H810 0.930 . S
C807 C806 1.369 . S
C807 C816 1.429 . S
C808 C806 1.419 . S
C808 C809 1.363 . S
C808 H811 0.929 . S
C809 C808 1.363 . S
C809 C815 1.428 . S
H810 C806 0.930 . S
H811 C808 0.929 . S
S812 N813 1.613 . S
S812 N814 1.610 . S
N813 S812 1.613 . S
N813 C816 1.350 . S
N814 S812 1.610 . S
N814 C815 1.351 . S
C815 C809 1.428 . S
C815 N814 1.351 . S
C815 C816 1.434 . S
C816 C807 1.429 . S
C816 N813 1.350 . S
C816 C815 1.434 . S
C817 C818 1.369 . S
C817 C819 1.419 . S
C817 H821 0.930 . S
C818 C817 1.369 . S
C818 C827 1.429 . S
C819 C817 1.419 . S
C819 C820 1.363 . S
C819 H822 0.929 . S
C820 C819 1.363 . S
C820 C826 1.428 . S
H821 C817 0.930 . S
H822 C819 0.929 . S
S823 N824 1.613 1_545 S
S823 N825 1.610 . S
N824 S823 1.613 1_565 S
N824 C827 1.350 . S
N825 S823 1.610 . S
N825 C826 1.351 1_545 S
C826 C820 1.428 . S
C826 N825 1.351 1_565 S
C826 C827 1.434 . S
C827 C818 1.429 . S
C827 N824 1.350 . S
C827 C826 1.434 . S
C828 C829 1.369 . S
C828 C830 1.419 . S
C828 H832 0.930 . S
C829 C828 1.369 . S
C829 C838 1.429 . S
C830 C828 1.419 . S
C830 C831 1.363 . S
C830 H833 0.929 . S
C831 C830 1.363 . S
C831 C837 1.428 . S
H832 C828 0.930 . S
H833 C830 0.929 . S
S834 N835 1.613 . S
S834 N836 1.610 . S
N835 S834 1.613 . S
N835 C838 1.350 . S
N836 S834 1.610 . S
N836 C837 1.351 . S
C837 C831 1.428 . S
C837 N836 1.351 . S
C837 C838 1.434 . S
C838 C829 1.429 . S
C838 N835 1.350 . S
C838 C837 1.434 . S
C839 C840 1.369 . S
C839 C841 1.419 . S
C839 H843 0.930 . S
C840 C839 1.369 . S
C840 C849 1.429 . S
C841 C839 1.419 . S
C841 C842 1.363 . S
C841 H844 0.929 . S
C842 C841 1.363 . S
C842 C848 1.428 . S
H843 C839 0.930 . S
H844 C841 0.929 . S
S845 N846 1.613 . S
S845 N847 1.610 . S
N846 S845 1.613 . S
N846 C849 1.350 . S
N847 S845 1.610 . S
N847 C848 1.351 . S
C848 C842 1.428 . S
C848 N847 1.351 . S
C848 C849 1.434 . S
C849 C840 1.429 . S
C849 N846 1.350 . S
C849 C848 1.434 . S
C850 C851 1.369 . S
C850 C852 1.419 . S
C850 H854 0.930 . S
C851 C850 1.369 . S
C851 C860 1.429 . S
C852 C850 1.419 . S
C852 C853 1.363 . S
C852 H855 0.929 . S
C853 C852 1.363 . S
C853 C859 1.428 . S
H854 C850 0.930 . S
H855 C852 0.929 . S
S856 N857 1.613 . S
S856 N858 1.610 . S
N857 S856 1.613 . S
N857 C860 1.350 . S
N858 S856 1.610 . S
N858 C859 1.351 . S
C859 C853 1.428 . S
C859 N858 1.351 . S
C859 C860 1.434 . S
C860 C851 1.429 . S
C860 N857 1.350 . S
C860 C859 1.434 . S
C861 C862 1.369 . S
C861 C863 1.419 . S
C861 H865 0.930 . S
C862 C861 1.369 . S
C862 C871 1.429 . S
C863 C861 1.419 . S
C863 C864 1.363 . S
C863 H866 0.929 . S
C864 C863 1.363 . S
C864 C870 1.428 . S
H865 C861 0.930 . S
H866 C863 0.929 . S
S867 N868 1.613 1_565 S
S867 N869 1.610 . S
N868 S867 1.613 1_545 S
N868 C871 1.350 1_545 S
N869 S867 1.610 . S
N869 C870 1.351 . S
C870 C864 1.428 . S
C870 N869 1.351 . S
C870 C871 1.434 . S
C871 C862 1.429 . S
C871 N868 1.350 1_565 S
C871 C870 1.434 . S
C872 C873 1.369 . S
C872 C874 1.419 . S
C872 H876 0.930 . S
C873 C872 1.369 . S
C873 C882 1.429 . S
C874 C872 1.419 . S
C874 C875 1.363 . S
C874 H877 0.929 . S
C875 C874 1.363 . S
C875 C881 1.428 . S
H876 C872 0.930 . S
H877 C874 0.929 . S
S878 N879 1.613 . S
S878 N880 1.610 . S
N879 S878 1.613 . S
N879 C882 1.350 . S
N880 S878 1.610 . S
N880 C881 1.351 . S
C881 C875 1.428 . S
C881 N880 1.351 . S
C881 C882 1.434 . S
C882 C873 1.429 . S
C882 N879 1.350 . S
C882 C881 1.434 . S
C883 C884 1.369 . S
C883 C885 1.419 . S
C883 H887 0.930 . S
C884 C883 1.369 . S
C884 C893 1.429 . S
C885 C883 1.419 . S
C885 C886 1.363 . S
C885 H888 0.929 . S
C886 C885 1.363 . S
C886 C892 1.428 . S
H887 C883 0.930 . S
H888 C885 0.929 . S
S889 N890 1.613 . S
S889 N891 1.610 . S
N890 S889 1.613 . S
N890 C893 1.350 . S
N891 S889 1.610 . S
N891 C892 1.351 . S
C892 C886 1.428 . S
C892 N891 1.351 . S
C892 C893 1.434 . S
C893 C884 1.429 . S
C893 N890 1.350 . S
C893 C892 1.434 . S
C894 C895 1.369 . S
C894 C896 1.419 . S
C894 H898 0.930 . S
C895 C894 1.369 . S
C895 C904 1.429 . S
C896 C894 1.419 . S
C896 C897 1.363 . S
C896 H899 0.929 . S
C897 C896 1.363 . S
C897 C903 1.428 . S
H898 C894 0.930 . S
H899 C896 0.929 . S
S900 N901 1.613 . S
S900 N902 1.610 1_655 S
N901 S900 1.613 . S
N901 C904 1.350 1_655 S
N902 S900 1.610 1_455 S
N902 C903 1.351 . S
C903 C897 1.428 . S
C903 N902 1.351 . S
C903 C904 1.434 . S
C904 C895 1.429 . S
C904 N901 1.350 1_455 S
C904 C903 1.434 . S
C905 C906 1.369 . S
C905 C907 1.419 . S
C905 H909 0.930 . S
C906 C905 1.369 . S
C906 C915 1.429 . S
C907 C905 1.419 . S
C907 C908 1.363 . S
C907 H910 0.929 . S
C908 C907 1.363 . S
C908 C914 1.428 . S
H909 C905 0.930 . S
H910 C907 0.929 . S
S911 N912 1.613 . S
S911 N913 1.610 . S
N912 S911 1.613 . S
N912 C915 1.350 . S
N913 S911 1.610 . S
N913 C914 1.351 . S
C914 C908 1.428 . S
C914 N913 1.351 . S
C914 C915 1.434 . S
C915 C906 1.429 . S
C915 N912 1.350 . S
C915 C914 1.434 . S
C916 C917 1.369 . S
C916 C918 1.419 . S
C916 H920 0.930 . S
C917 C916 1.369 . S
C917 C926 1.429 . S
C918 C916 1.419 . S
C918 C919 1.363 . S
C918 H921 0.929 . S
C919 C918 1.363 . S
C919 C925 1.428 . S
H920 C916 0.930 . S
H921 C918 0.929 . S
S922 N923 1.613 . S
S922 N924 1.610 . S
N923 S922 1.613 . S
N923 C926 1.350 . S
N924 S922 1.610 . S
N924 C925 1.351 . S
C925 C919 1.428 . S
C925 N924 1.351 . S
C925 C926 1.434 . S
C926 C917 1.429 . S
C926 N923 1.350 . S
C926 C925 1.434 . S
C927 C928 1.369 . S
C927 C929 1.419 . S
C927 H931 0.930 . S
C928 C927 1.369 . S
C928 C937 1.429 . S
C929 C927 1.419 . S
C929 C930 1.363 . S
C929 H932 0.929 . S
C930 C929 1.363 . S
C930 C936 1.428 . S
H931 C927 0.930 . S
H932 C929 0.929 . S
S933 N934 1.613 . S
S933 N935 1.610 . S
N934 S933 1.613 . S
N934 C937 1.350 . S
N935 S933 1.610 . S
N935 C936 1.351 . S
C936 C930 1.428 . S
C936 N935 1.351 . S
C936 C937 1.434 . S
C937 C928 1.429 . S
C937 N934 1.350 . S
C937 C936 1.434 . S
C938 C939 1.369 . S
C938 C940 1.419 . S
C938 H942 0.930 . S
C939 C938 1.369 . S
C939 C948 1.429 . S
C940 C938 1.419 . S
C940 C941 1.363 . S
C940 H943 0.929 . S
C941 C940 1.363 . S
C941 C947 1.428 . S
H942 C938 0.930 . S
H943 C940 0.929 . S
S944 N945 1.613 . S
S944 N946 1.610 . S
N945 S944 1.613 . S
N945 C948 1.350 . S
N946 S944 1.610 . S
N946 C947 1.351 . S
C947 C941 1.428 . S
C947 N946 1.351 . S
C947 C948 1.434 . S
C948 C939 1.429 . S
C948 N945 1.350 . S
C948 C947 1.434 . S
C949 C950 1.369 . S
C949 C951 1.419 . S
C949 H953 0.930 1_655 S
C950 C949 1.369 . S
C950 C959 1.429 . S
C951 C949 1.419 . S
C951 C952 1.363 . S
C951 H954 0.929 . S
C952 C951 1.363 . S
C952 C958 1.428 . S
H953 C949 0.930 1_455 S
H954 C951 0.929 . S
S955 N956 1.613 . S
S955 N957 1.610 1_545 S
N956 S955 1.613 . S
N956 C959 1.350 1_545 S
N957 S955 1.610 1_565 S
N957 C958 1.351 . S
C958 C952 1.428 . S
C958 N957 1.351 . S
C958 C959 1.434 . S
C959 C950 1.429 . S
C959 N956 1.350 1_565 S
C959 C958 1.434 . S
C960 C961 1.369 . S
C960 C962 1.419 . S
C960 H964 0.930 . S
C961 C960 1.369 . S
C961 C970 1.429 . S
C962 C960 1.419 . S
C962 C963 1.363 . S
C962 H965 0.929 . S
C963 C962 1.363 . S
C963 C969 1.428 . S
H964 C960 0.930 . S
H965 C962 0.929 . S
S966 N967 1.613 . S
S966 N968 1.610 . S
N967 S966 1.613 . S
N967 C970 1.350 . S
N968 S966 1.610 . S
N968 C969 1.351 . S
C969 C963 1.428 . S
C969 N968 1.351 . S
C969 C970 1.434 . S
C970 C961 1.429 . S
C970 N967 1.350 . S
C970 C969 1.434 . S
C971 C972 1.369 . S
C971 C973 1.419 . S
C971 H975 0.930 . S
C972 C971 1.369 . S
C972 C981 1.429 . S
C973 C971 1.419 . S
C973 C974 1.363 . S
C973 H976 0.929 . S
C974 C973 1.363 . S
C974 C980 1.428 . S
H975 C971 0.930 . S
H976 C973 0.929 . S
S977 N978 1.613 . S
S977 N979 1.610 . S
N978 S977 1.613 . S
N978 C981 1.350 . S
N979 S977 1.610 . S
N979 C980 1.351 . S
C980 C974 1.428 . S
C980 N979 1.351 . S
C980 C981 1.434 . S
C981 C972 1.429 . S
C981 N978 1.350 . S
C981 C980 1.434 . S
C982 C983 1.369 . S
C982 C984 1.419 . S
C982 H986 0.930 . S
C983 C982 1.369 . S
C983 C992 1.429 . S
C984 C982 1.419 . S
C984 C985 1.363 . S
C984 H987 0.929 . S
C985 C984 1.363 . S
C985 C991 1.428 . S
H986 C982 0.930 . S
H987 C984 0.929 . S
S988 N989 1.613 . S
S988 N990 1.610 . S
N989 S988 1.613 . S
N989 C992 1.350 . S
N990 S988 1.610 . S
N990 C991 1.351 . S
C991 C985 1.428 . S
C991 N990 1.351 . S
C991 C992 1.434 . S
C992 C983 1.429 . S
C992 N989 1.350 . S
C992 C991 1.434 . S
C993 C994 1.369 . S
C993 C995 1.419 . S
C993 H997 0.930 . S
C994 C993 1.369 . S
C994 C1003 1.429 . S
C995 C993 1.419 . S
C995 C996 1.363 . S
C995 H998 0.929 . S
C996 C995 1.363 . S
C996 C1002 1.428 . S
H997 C993 0.930 . S
H998 C995 0.929 . S
S999 N1000 1.613 . S
S999 N1001 1.610 . S
N1000 S999 1.613 . S
N1000 C1003 1.350 . S
N1001 S999 1.610 . S
N1001 C1002 1.351 . S
C1002 C996 1.428 . S
C1002 N1001 1.351 . S
C1002 C1003 1.434 . S
C1003 C994 1.429 . S
C1003 N1000 1.350 . S
C1003 C1002 1.434 . S
C1004 C1005 1.369 . S
C1004 C1006 1.419 . S
C1004 H1008 0.930 . S
C1005 C1004 1.369 . S
C1005 C1014 1.429 . S
C1006 C1004 1.419 . S
C1006 C1007 1.363 . S
C1006 H1009 0.929 . S
C1007 C1006 1.363 . S
C1007 C1013 1.428 . S
H1008 C1004 0.930 . S
H1009 C1006 0.929 . S
S1010 N1011 1.613 . S
S1010 N1012 1.610 . S
N1011 S1010 1.613 . S
N1011 C1014 1.350 . S
N1012 S1010 1.610 . S
N1012 C1013 1.351 . S
C1013 C1007 1.428 . S
C1013 N1012 1.351 . S
C1013 C1014 1.434 . S
C1014 C1005 1.429 . S
C1014 N1011 1.350 . S
C1014 C1013 1.434 . S
C1015 C1016 1.369 . S
C1015 C1017 1.419 . S
C1015 H1019 0.930 . S
C1016 C1015 1.369 . S
C1016 C1025 1.429 . S
C1017 C1015 1.419 . S
C1017 C1018 1.363 . S
C1017 H1020 0.929 . S
C1018 C1017 1.363 . S
C1018 C1024 1.428 . S
H1019 C1015 0.930 . S
H1020 C1017 0.929 . S
S1021 N1022 1.613 . S
S1021 N1023 1.610 . S
N1022 S1021 1.613 . S
N1022 C1025 1.350 . S
N1023 S1021 1.610 . S
N1023 C1024 1.351 . S
C1024 C1018 1.428 . S
C1024 N1023 1.351 . S
C1024 C1025 1.434 . S
C1025 C1016 1.429 . S
C1025 N1022 1.350 . S
C1025 C1024 1.434 . S
C1026 C1027 1.369 . S
C1026 C1028 1.419 . S
C1026 H1030 0.930 . S
C1027 C1026 1.369 . S
C1027 C1036 1.429 . S
C1028 C1026 1.419 . S
C1028 C1029 1.363 . S
C1028 H1031 0.929 . S
C1029 C1028 1.363 . S
C1029 C1035 1.428 . S
H1030 C1026 0.930 . S
H1031 C1028 0.929 . S
S1032 N1033 1.613 . S
S1032 N1034 1.610 . S
N1033 S1032 1.613 . S
N1033 C1036 1.350 . S
N1034 S1032 1.610 . S
N1034 C1035 1.351 . S
C1035 C1029 1.428 . S
C1035 N1034 1.351 . S
C1035 C1036 1.434 . S
C1036 C1027 1.429 . S
C1036 N1033 1.350 . S
C1036 C1035 1.434 . S
C1037 C1038 1.369 . S
C1037 C1039 1.419 . S
C1037 H1041 0.930 . S
C1038 C1037 1.369 . S
C1038 C1047 1.429 . S
C1039 C1037 1.419 . S
C1039 C1040 1.363 . S
C1039 H1042 0.929 . S
C1040 C1039 1.363 . S
C1040 C1046 1.428 . S
H1041 C1037 0.930 . S
H1042 C1039 0.929 . S
S1043 N1044 1.613 . S
S1043 N1045 1.610 . S
N1044 S1043 1.613 . S
N1044 C1047 1.350 . S
N1045 S1043 1.610 . S
N1045 C1046 1.351 . S
C1046 C1040 1.428 . S
C1046 N1045 1.351 . S
C1046 C1047 1.434 . S
C1047 C1038 1.429 . S
C1047 N1044 1.350 . S
C1047 C1046 1.434 . S
C1048 C1049 1.369 . S
C1048 C1050 1.419 . S
C1048 H1052 0.930 . S
C1049 C1048 1.369 . S
C1049 C1058 1.429 . S
C1050 C1048 1.419 . S
C1050 C1051 1.363 . S
C1050 H1053 0.929 . S
C1051 C1050 1.363 . S
C1051 C1057 1.428 . S
H1052 C1048 0.930 . S
H1053 C1050 0.929 . S
S1054 N1055 1.613 . S
S1054 N1056 1.610 . S
N1055 S1054 1.613 . S
N1055 C1058 1.350 . S
N1056 S1054 1.610 . S
N1056 C1057 1.351 . S
C1057 C1051 1.428 . S
C1057 N1056 1.351 . S
C1057 C1058 1.434 . S
C1058 C1049 1.429 . S
C1058 N1055 1.350 . S
C1058 C1057 1.434 . S
C1059 C1060 1.369 . S
C1059 C1061 1.419 . S
C1059 H1063 0.930 . S
C1060 C1059 1.369 . S
C1060 C1069 1.429 . S
C1061 C1059 1.419 . S
C1061 C1062 1.363 . S
C1061 H1064 0.929 1_545 S
C1062 C1061 1.363 . S
C1062 C1068 1.428 . S
H1063 C1059 0.930 . S
H1064 C1061 0.929 1_565 S
S1065 N1066 1.613 . S
S1065 N1067 1.610 . S
N1066 S1065 1.613 . S
N1066 C1069 1.350 . S
N1067 S1065 1.610 . S
N1067 C1068 1.351 . S
C1068 C1062 1.428 . S
C1068 N1067 1.351 . S
C1068 C1069 1.434 . S
C1069 C1060 1.429 . S
C1069 N1066 1.350 . S
C1069 C1068 1.434 . S
C1070 C1071 1.369 . S
C1070 C1072 1.419 . S
C1070 H1074 0.930 . S
C1071 C1070 1.369 . S
C1071 C1080 1.429 . S
C1072 C1070 1.419 . S
C1072 C1073 1.363 . S
C1072 H1075 0.929 . S
C1073 C1072 1.363 . S
C1073 C1079 1.428 . S
H1074 C1070 0.930 . S
H1075 C1072 0.929 . S
S1076 N1077 1.613 . S
S1076 N1078 1.610 . S
N1077 S1076 1.613 . S
N1077 C1080 1.350 . S
N1078 S1076 1.610 . S
N1078 C1079 1.351 . S
C1079 C1073 1.428 . S
C1079 N1078 1.351 . S
C1079 C1080 1.434 . S
C1080 C1071 1.429 . S
C1080 N1077 1.350 . S
C1080 C1079 1.434 . S
C1081 C1082 1.369 . S
C1081 C1083 1.419 . S
C1081 H1085 0.930 . S
C1082 C1081 1.369 . S
C1082 C1091 1.429 . S
C1083 C1081 1.419 . S
C1083 C1084 1.363 . S
C1083 H1086 0.929 . S
C1084 C1083 1.363 . S
C1084 C1090 1.428 . S
H1085 C1081 0.930 . S
H1086 C1083 0.929 . S
S1087 N1088 1.613 . S
S1087 N1089 1.610 . S
N1088 S1087 1.613 . S
N1088 C1091 1.350 . S
N1089 S1087 1.610 . S
N1089 C1090 1.351 . S
C1090 C1084 1.428 . S
C1090 N1089 1.351 . S
C1090 C1091 1.434 . S
C1091 C1082 1.429 . S
C1091 N1088 1.350 . S
C1091 C1090 1.434 . S
C1092 C1093 1.369 . S
C1092 C1094 1.419 . S
C1092 H1096 0.930 . S
C1093 C1092 1.369 . S
C1093 C1102 1.429 . S
C1094 C1092 1.419 . S
C1094 C1095 1.363 . S
C1094 H1097 0.929 . S
C1095 C1094 1.363 . S
C1095 C1101 1.428 . S
H1096 C1092 0.930 . S
H1097 C1094 0.929 . S
S1098 N1099 1.613 . S
S1098 N1100 1.610 . S
N1099 S1098 1.613 . S
N1099 C1102 1.350 . S
N1100 S1098 1.610 . S
N1100 C1101 1.351 . S
C1101 C1095 1.428 . S
C1101 N1100 1.351 . S
C1101 C1102 1.434 . S
C1102 C1093 1.429 . S
C1102 N1099 1.350 . S
C1102 C1101 1.434 . S
C1103 C1104 1.369 . S
C1103 C1105 1.419 . S
C1103 H1107 0.930 . S
C1104 C1103 1.369 . S
C1104 C1113 1.429 . S
C1105 C1103 1.419 . S
C1105 C1106 1.363 . S
C1105 H1108 0.929 . S
C1106 C1105 1.363 . S
C1106 C1112 1.428 . S
H1107 C1103 0.930 . S
H1108 C1105 0.929 . S
S1109 N1110 1.613 1_565 S
S1109 N1111 1.610 . S
N1110 S1109 1.613 1_545 S
N1110 C1113 1.350 . S
N1111 S1109 1.610 . S
N1111 C1112 1.351 1_565 S
C1112 C1106 1.428 . S
C1112 N1111 1.351 1_545 S
C1112 C1113 1.434 . S
C1113 C1104 1.429 . S
C1113 N1110 1.350 . S
C1113 C1112 1.434 . S
C1114 C1115 1.369 . S
C1114 C1116 1.419 . S
C1114 H1118 0.930 . S
C1115 C1114 1.369 . S
C1115 C1124 1.429 . S
C1116 C1114 1.419 . S
C1116 C1117 1.363 . S
C1116 H1119 0.929 . S
C1117 C1116 1.363 . S
C1117 C1123 1.428 . S
H1118 C1114 0.930 . S
H1119 C1116 0.929 . S
S1120 N1121 1.613 . S
S1120 N1122 1.610 . S
N1121 S1120 1.613 . S
N1121 C1124 1.350 . S
N1122 S1120 1.610 . S
N1122 C1123 1.351 . S
C1123 C1117 1.428 . S
C1123 N1122 1.351 . S
C1123 C1124 1.434 . S
C1124 C1115 1.429 . S
C1124 N1121 1.350 . S
C1124 C1123 1.434 . S
C1125 C1126 1.369 . S
C1125 C1127 1.419 . S
C1125 H1129 0.930 . S
C1126 C1125 1.369 . S
C1126 C1135 1.429 . S
C1127 C1125 1.419 . S
C1127 C1128 1.363 . S
C1127 H1130 0.929 . S
C1128 C1127 1.363 . S
C1128 C1134 1.428 . S
H1129 C1125 0.930 . S
H1130 C1127 0.929 . S
S1131 N1132 1.613 . S
S1131 N1133 1.610 . S
N1132 S1131 1.613 . S
N1132 C1135 1.350 . S
N1133 S1131 1.610 . S
N1133 C1134 1.351 . S
C1134 C1128 1.428 . S
C1134 N1133 1.351 . S
C1134 C1135 1.434 . S
C1135 C1126 1.429 . S
C1135 N1132 1.350 . S
C1135 C1134 1.434 . S
C1136 C1137 1.369 . S
C1136 C1138 1.419 . S
C1136 H1140 0.930 . S
C1137 C1136 1.369 . S
C1137 C1146 1.429 . S
C1138 C1136 1.419 . S
C1138 C1139 1.363 . S
C1138 H1141 0.929 . S
C1139 C1138 1.363 . S
C1139 C1145 1.428 . S
H1140 C1136 0.930 . S
H1141 C1138 0.929 . S
S1142 N1143 1.613 . S
S1142 N1144 1.610 . S
N1143 S1142 1.613 . S
N1143 C1146 1.350 . S
N1144 S1142 1.610 . S
N1144 C1145 1.351 . S
C1145 C1139 1.428 . S
C1145 N1144 1.351 . S
C1145 C1146 1.434 . S
C1146 C1137 1.429 . S
C1146 N1143 1.350 . S
C1146 C1145 1.434 . S
C1147 C1148 1.369 . S
C1147 C1149 1.419 . S
C1147 H1151 0.930 . S
C1148 C1147 1.369 . S
C1148 C1157 1.429 . S
C1149 C1147 1.419 . S
C1149 C1150 1.363 . S
C1149 H1152 0.929 . S
C1150 C1149 1.363 . S
C1150 C1156 1.428 . S
H1151 C1147 0.930 . S
H1152 C1149 0.929 . S
S1153 N1154 1.613 . S
S1153 N1155 1.610 . S
N1154 S1153 1.613 . S
N1154 C1157 1.350 . S
N1155 S1153 1.610 . S
N1155 C1156 1.351 . S
C1156 C1150 1.428 . S
C1156 N1155 1.351 . S
C1156 C1157 1.434 . S
C1157 C1148 1.429 . S
C1157 N1154 1.350 . S
C1157 C1156 1.434 . S
C1158 C1159 1.369 . S
C1158 C1160 1.419 . S
C1158 H1162 0.930 . S
C1159 C1158 1.369 . S
C1159 C1168 1.429 . S
C1160 C1158 1.419 . S
C1160 C1161 1.363 . S
C1160 H1163 0.929 . S
C1161 C1160 1.363 . S
C1161 C1167 1.428 . S
H1162 C1158 0.930 . S
H1163 C1160 0.929 . S
S1164 N1165 1.613 . S
S1164 N1166 1.610 . S
N1165 S1164 1.613 . S
N1165 C1168 1.350 . S
N1166 S1164 1.610 . S
N1166 C1167 1.351 . S
C1167 C1161 1.428 . S
C1167 N1166 1.351 . S
C1167 C1168 1.434 . S
C1168 C1159 1.429 . S
C1168 N1165 1.350 . S
C1168 C1167 1.434 . S
C1169 C1170 1.369 . S
C1169 C1171 1.419 . S
C1169 H1173 0.930 . S
C1170 C1169 1.369 . S
C1170 C1179 1.429 . S
C1171 C1169 1.419 . S
C1171 C1172 1.363 . S
C1171 H1174 0.929 . S
C1172 C1171 1.363 . S
C1172 C1178 1.428 . S
H1173 C1169 0.930 . S
H1174 C1171 0.929 . S
S1175 N1176 1.613 . S
S1175 N1177 1.610 . S
N1176 S1175 1.613 . S
N1176 C1179 1.350 . S
N1177 S1175 1.610 . S
N1177 C1178 1.351 . S
C1178 C1172 1.428 . S
C1178 N1177 1.351 . S
C1178 C1179 1.434 . S
C1179 C1170 1.429 . S
C1179 N1176 1.350 . S
C1179 C1178 1.434 . S
C1180 C1181 1.369 . S
C1180 C1182 1.419 . S
C1180 H1184 0.930 . S
C1181 C1180 1.369 . S
C1181 C1190 1.429 . S
C1182 C1180 1.419 . S
C1182 C1183 1.363 . S
C1182 H1185 0.929 . S
C1183 C1182 1.363 . S
C1183 C1189 1.428 . S
H1184 C1180 0.930 . S
H1185 C1182 0.929 . S
S1186 N1187 1.613 1_455 S
S1186 N1188 1.610 . S
N1187 S1186 1.613 1_655 S
N1187 C1190 1.350 . S
N1188 S1186 1.610 . S
N1188 C1189 1.351 1_455 S
C1189 C1183 1.428 . S
C1189 N1188 1.351 1_655 S
C1189 C1190 1.434 . S
C1190 C1181 1.429 . S
C1190 N1187 1.350 . S
C1190 C1189 1.434 . S
C1191 C1192 1.369 . S
C1191 C1193 1.419 . S
C1191 H1195 0.930 . S
C1192 C1191 1.369 . S
C1192 C1201 1.429 . S
C1193 C1191 1.419 . S
C1193 C1194 1.363 . S
C1193 H1196 0.929 . S
C1194 C1193 1.363 . S
C1194 C1200 1.428 . S
H1195 C1191 0.930 . S
H1196 C1193 0.929 . S
S1197 N1198 1.613 . S
S1197 N1199 1.610 . S
N1198 S1197 1.613 . S
N1198 C1201 1.350 . S
N1199 S1197 1.610 . S
N1199 C1200 1.351 . S
C1200 C1194 1.428 . S
C1200 N1199 1.351 . S
C1200 C1201 1.434 . S
C1201 C1192 1.429 . S
C1201 N1198 1.350 . S
C1201 C1200 1.434 . S
C1202 C1203 1.369 . S
C1202 C1204 1.419 . S
C1202 H1206 0.930 . S
C1203 C1202 1.369 . S
C1203 C1212 1.429 . S
C1204 C1202 1.419 . S
C1204 C1205 1.363 . S
C1204 H1207 0.929 . S
C1205 C1204 1.363 . S
C1205 C1211 1.428 . S
H1206 C1202 0.930 . S
H1207 C1204 0.929 . S
S1208 N1209 1.613 . S
S1208 N1210 1.610 . S
N1209 S1208 1.613 . S
N1209 C1212 1.350 . S
N1210 S1208 1.610 . S
N1210 C1211 1.351 . S
C1211 C1205 1.428 . S
C1211 N1210 1.351 . S
C1211 C1212 1.434 . S
C1212 C1203 1.429 . S
C1212 N1209 1.350 . S
C1212 C1211 1.434 . S
C1213 C1214 1.369 . S
C1213 C1215 1.419 . S
C1213 H1217 0.930 . S
C1214 C1213 1.369 . S
C1214 C1223 1.429 . S
C1215 C1213 1.419 . S
C1215 C1216 1.363 . S
C1215 H1218 0.929 . S
C1216 C1215 1.363 . S
C1216 C1222 1.428 . S
H1217 C1213 0.930 . S
H1218 C1215 0.929 . S
S1219 N1220 1.613 . S
S1219 N1221 1.610 . S
N1220 S1219 1.613 . S
N1220 C1223 1.350 . S
N1221 S1219 1.610 . S
N1221 C1222 1.351 . S
C1222 C1216 1.428 . S
C1222 N1221 1.351 . S
C1222 C1223 1.434 . S
C1223 C1214 1.429 . S
C1223 N1220 1.350 . S
C1223 C1222 1.434 . S
C1224 C1225 1.369 . S
C1224 C1226 1.419 . S
C1224 H1228 0.930 . S
C1225 C1224 1.369 . S
C1225 C1234 1.429 1_655 S
C1226 C1224 1.419 . S
C1226 C1227 1.363 . S
C1226 H1229 0.929 . S
C1227 C1226 1.363 . S
C1227 C1233 1.428 1_655 S
H1228 C1224 0.930 . S
H1229 C1226 0.929 . S
S1230 N1231 1.613 . S
S1230 N1232 1.610 . S
N1231 S1230 1.613 . S
N1231 C1234 1.350 . S
N1232 S1230 1.610 . S
N1232 C1233 1.351 . S
C1233 C1227 1.428 1_455 S
C1233 N1232 1.351 . S
C1233 C1234 1.434 . S
C1234 C1225 1.429 1_455 S
C1234 N1231 1.350 . S
C1234 C1233 1.434 . S
C1235 C1236 1.369 . S
C1235 C1237 1.419 . S
C1235 H1239 0.930 . S
C1236 C1235 1.369 . S
C1236 C1245 1.429 1_554 S
C1237 C1235 1.419 . S
C1237 C1238 1.363 1_554 S
C1237 H1240 0.929 . S
C1238 C1237 1.363 1_556 S
C1238 C1244 1.428 . S
H1239 C1235 0.930 . S
H1240 C1237 0.929 . S
S1241 N1242 1.613 . S
S1241 N1243 1.610 . S
N1242 S1241 1.613 . S
N1242 C1245 1.350 . S
N1243 S1241 1.610 . S
N1243 C1244 1.351 . S
C1244 C1238 1.428 . S
C1244 N1243 1.351 . S
C1244 C1245 1.434 . S
C1245 C1236 1.429 1_556 S
C1245 N1242 1.350 . S
C1245 C1244 1.434 . S
C1246 C1247 1.369 . S
C1246 C1248 1.419 1_545 S
C1246 H1250 0.930 . S
C1247 C1246 1.369 . S
C1247 C1256 1.429 . S
C1248 C1246 1.419 1_565 S
C1248 C1249 1.363 . S
C1248 H1251 0.929 . S
C1249 C1248 1.363 . S
C1249 C1255 1.428 . S
H1250 C1246 0.930 . S
H1251 C1248 0.929 . S
S1252 N1253 1.613 . S
S1252 N1254 1.610 1_545 S
N1253 S1252 1.613 . S
N1253 C1256 1.350 1_655 S
N1254 S1252 1.610 1_565 S
N1254 C1255 1.351 1_655 S
C1255 C1249 1.428 . S
C1255 N1254 1.351 1_455 S
C1255 C1256 1.434 1_565 S
C1256 C1247 1.429 . S
C1256 N1253 1.350 1_455 S
C1256 C1255 1.434 1_545 S
C1257 C1258 1.369 1_556 S
C1257 C1259 1.419 . S
C1257 H1261 0.930 . S
C1258 C1257 1.369 1_554 S
C1258 C1267 1.429 . S
C1259 C1257 1.419 . S
C1259 C1260 1.363 . S
C1259 H1262 0.929 . S
C1260 C1259 1.363 . S
C1260 C1266 1.428 1_556 S
H1261 C1257 0.930 . S
H1262 C1259 0.929 . S
S1263 N1264 1.613 . S
S1263 N1265 1.610 . S
N1264 S1263 1.613 . S
N1264 C1267 1.350 . S
N1265 S1263 1.610 . S
N1265 C1266 1.351 . S
C1266 C1260 1.428 1_554 S
C1266 N1265 1.351 . S
C1266 C1267 1.434 . S
C1267 C1258 1.429 . S
C1267 N1264 1.350 . S
C1267 C1266 1.434 . S
C1268 C1269 1.369 . S
C1268 C1270 1.419 . S
C1268 H1272 0.930 1_565 S
C1269 C1268 1.369 . S
C1269 C1278 1.429 . S
C1270 C1268 1.419 . S
C1270 C1271 1.363 . S
C1270 H1273 0.929 1_565 S
C1271 C1270 1.363 . S
C1271 C1277 1.428 . S
H1272 C1268 0.930 1_545 S
H1273 C1270 0.929 1_545 S
S1274 N1275 1.613 . S
S1274 N1276 1.610 . S
N1275 S1274 1.613 . S
N1275 C1278 1.350 . S
N1276 S1274 1.610 . S
N1276 C1277 1.351 . S
C1277 C1271 1.428 . S
C1277 N1276 1.351 . S
C1277 C1278 1.434 . S
C1278 C1269 1.429 . S
C1278 N1275 1.350 . S
C1278 C1277 1.434 . S
C1279 C1280 1.369 . S
C1279 C1281 1.419 . S
C1279 H1283 0.930 . S
C1280 C1279 1.369 . S
C1280 C1289 1.429 . S
C1281 C1279 1.419 . S
C1281 C1282 1.363 . S
C1281 H1284 0.929 . S
C1282 C1281 1.363 . S
C1282 C1288 1.428 . S
H1283 C1279 0.930 . S
H1284 C1281 0.929 . S
S1285 N1286 1.613 . S
S1285 N1287 1.610 . S
N1286 S1285 1.613 . S
N1286 C1289 1.350 . S
N1287 S1285 1.610 . S
N1287 C1288 1.351 . S
C1288 C1282 1.428 . S
C1288 N1287 1.351 . S
C1288 C1289 1.434 . S
C1289 C1280 1.429 . S
C1289 N1286 1.350 . S
C1289 C1288 1.434 . S
C1290 C1291 1.369 . S
C1290 C1292 1.419 . S
C1290 H1294 0.930 . S
C1291 C1290 1.369 . S
C1291 C1300 1.429 . S
C1292 C1290 1.419 . S
C1292 C1293 1.363 . S
C1292 H1295 0.929 . S
C1293 C1292 1.363 . S
C1293 C1299 1.428 . S
H1294 C1290 0.930 . S
H1295 C1292 0.929 . S
S1296 N1297 1.613 . S
S1296 N1298 1.610 . S
N1297 S1296 1.613 . S
N1297 C1300 1.350 . S
N1298 S1296 1.610 . S
N1298 C1299 1.351 . S
C1299 C1293 1.428 . S
C1299 N1298 1.351 . S
C1299 C1300 1.434 . S
C1300 C1291 1.429 . S
C1300 N1297 1.350 . S
C1300 C1299 1.434 . S
C1301 C1302 1.369 . S
C1301 C1303 1.419 . S
C1301 H1305 0.930 . S
C1302 C1301 1.369 . S
C1302 C1311 1.429 1_565 S
C1303 C1301 1.419 . S
C1303 C1304 1.363 1_565 S
C1303 H1306 0.929 . S
C1304 C1303 1.363 1_545 S
C1304 C1310 1.428 . S
H1305 C1301 0.930 . S
H1306 C1303 0.929 . S
S1307 N1308 1.613 . S
S1307 N1309 1.610 . S
N1308 S1307 1.613 . S
N1308 C1311 1.350 . S
N1309 S1307 1.610 . S
N1309 C1310 1.351 . S
C1310 C1304 1.428 . S
C1310 N1309 1.351 . S
C1310 C1311 1.434 . S
C1311 C1302 1.429 1_545 S
C1311 N1308 1.350 . S
C1311 C1310 1.434 . S
C1312 C1313 1.369 1_565 S
C1312 C1314 1.419 1_554 S
C1312 H1316 0.930 . S
C1313 C1312 1.369 1_545 S
C1313 C1322 1.429 . S
C1314 C1312 1.419 1_556 S
C1314 C1315 1.363 1_565 S
C1314 H1317 0.929 . S
C1315 C1314 1.363 1_545 S
C1315 C1321 1.428 . S
H1316 C1312 0.930 . S
H1317 C1314 0.929 . S
S1318 N1319 1.613 1_556 S
S1318 N1320 1.610 . S
N1319 S1318 1.613 1_554 S
N1319 C1322 1.350 . S
N1320 S1318 1.610 . S
N1320 C1321 1.351 . S
C1321 C1315 1.428 . S
C1321 N1320 1.351 . S
C1321 C1322 1.434 1_556 S
C1322 C1313 1.429 . S
C1322 N1319 1.350 . S
C1322 C1321 1.434 1_554 S
C1323 C1324 1.369 . S
C1323 C1325 1.419 . S
C1323 H1327 0.930 . S
C1324 C1323 1.369 . S
C1324 C1333 1.429 . S
C1325 C1323 1.419 . S
C1325 C1326 1.363 . S
C1325 H1328 0.929 . S
C1326 C1325 1.363 . S
C1326 C1332 1.428 . S
H1327 C1323 0.930 . S
H1328 C1325 0.929 . S
S1329 N1330 1.613 . S
S1329 N1331 1.610 . S
N1330 S1329 1.613 . S
N1330 C1333 1.350 . S
N1331 S1329 1.610 . S
N1331 C1332 1.351 . S
C1332 C1326 1.428 . S
C1332 N1331 1.351 . S
C1332 C1333 1.434 . S
C1333 C1324 1.429 . S
C1333 N1330 1.350 . S
C1333 C1332 1.434 . S
C1334 C1335 1.369 . S
C1334 C1336 1.419 1_554 S
C1334 H1338 0.930 . S
C1335 C1334 1.369 . S
C1335 C1344 1.429 . S
C1336 C1334 1.419 1_556 S
C1336 C1337 1.363 . S
C1336 H1339 0.929 . S
C1337 C1336 1.363 . S
C1337 C1343 1.428 . S
H1338 C1334 0.930 . S
H1339 C1336 0.929 . S
S1340 N1341 1.613 1_556 S
S1340 N1342 1.610 . S
N1341 S1340 1.613 1_554 S
N1341 C1344 1.350 . S
N1342 S1340 1.610 . S
N1342 C1343 1.351 . S
C1343 C1337 1.428 . S
C1343 N1342 1.351 . S
C1343 C1344 1.434 1_556 S
C1344 C1335 1.429 . S
C1344 N1341 1.350 . S
C1344 C1343 1.434 1_554 S
C1345 C1346 1.369 . S
C1345 C1347 1.419 . S
C1345 H1349 0.930 . S
C1346 C1345 1.369 . S
C1346 C1355 1.429 1_565 S
C1347 C1345 1.419 . S
C1347 C1348 1.363 1_565 S
C1347 H1350 0.929 . S
C1348 C1347 1.363 1_545 S
C1348 C1354 1.428 . S
H1349 C1345 0.930 . S
H1350 C1347 0.929 . S
S1351 N1352 1.613 . S
S1351 N1353 1.610 . S
N1352 S1351 1.613 . S
N1352 C1355 1.350 . S
N1353 S1351 1.610 . S
N1353 C1354 1.351 . S
C1354 C1348 1.428 . S
C1354 N1353 1.351 . S
C1354 C1355 1.434 . S
C1355 C1346 1.429 1_545 S
C1355 N1352 1.350 . S
C1355 C1354 1.434 . S
C1356 C1357 1.369 . S
C1356 C1358 1.419 . S
C1356 H1360 0.930 . S
C1357 C1356 1.369 . S
C1357 C1366 1.429 1_556 S
C1358 C1356 1.419 . S
C1358 C1359 1.363 . S
C1358 H1361 0.929 . S
C1359 C1358 1.363 . S
C1359 C1365 1.428 1_556 S
H1360 C1356 0.930 . S
H1361 C1358 0.929 . S
S1362 N1363 1.613 . S
S1362 N1364 1.610 . S
N1363 S1362 1.613 . S
N1363 C1366 1.350 . S
N1364 S1362 1.610 . S
N1364 C1365 1.351 . S
C1365 C1359 1.428 1_554 S
C1365 N1364 1.351 . S
C1365 C1366 1.434 . S
C1366 C1357 1.429 1_554 S
C1366 N1363 1.350 . S
C1366 C1365 1.434 . S
C1367 C1368 1.369 . S
C1367 C1369 1.419 . S
C1367 H1371 0.930 . S
C1368 C1367 1.369 . S
C1368 C1377 1.429 . S
C1369 C1367 1.419 . S
C1369 C1370 1.363 . S
C1369 H1372 0.929 . S
C1370 C1369 1.363 . S
C1370 C1376 1.428 . S
H1371 C1367 0.930 . S
H1372 C1369 0.929 . S
S1373 N1374 1.613 . S
S1373 N1375 1.610 . S
N1374 S1373 1.613 . S
N1374 C1377 1.350 . S
N1375 S1373 1.610 . S
N1375 C1376 1.351 . S
C1376 C1370 1.428 . S
C1376 N1375 1.351 . S
C1376 C1377 1.434 . S
C1377 C1368 1.429 . S
C1377 N1374 1.350 . S
C1377 C1376 1.434 . S
C1378 C1379 1.369 1_655 S
C1378 C1380 1.419 . S
C1378 H1382 0.930 . S
C1379 C1378 1.369 1_455 S
C1379 C1388 1.429 . S
C1380 C1378 1.419 . S
C1380 C1381 1.363 . S
C1380 H1383 0.929 . S
C1381 C1380 1.363 . S
C1381 C1387 1.428 1_655 S
H1382 C1378 0.930 . S
H1383 C1380 0.929 . S
S1384 N1385 1.613 . S
S1384 N1386 1.610 . S
N1385 S1384 1.613 . S
N1385 C1388 1.350 . S
N1386 S1384 1.610 . S
N1386 C1387 1.351 . S
C1387 C1381 1.428 1_455 S
C1387 N1386 1.351 . S
C1387 C1388 1.434 . S
C1388 C1379 1.429 . S
C1388 N1385 1.350 . S
C1388 C1387 1.434 . S
C1389 C1390 1.369 . S
C1389 C1391 1.419 . S
C1389 H1393 0.930 . S
C1390 C1389 1.369 . S
C1390 C1399 1.429 . S
C1391 C1389 1.419 . S
C1391 C1392 1.363 . S
C1391 H1394 0.929 . S
C1392 C1391 1.363 . S
C1392 C1398 1.428 . S
H1393 C1389 0.930 . S
H1394 C1391 0.929 . S
S1395 N1396 1.613 . S
S1395 N1397 1.610 . S
N1396 S1395 1.613 . S
N1396 C1399 1.350 . S
N1397 S1395 1.610 . S
N1397 C1398 1.351 . S
C1398 C1392 1.428 . S
C1398 N1397 1.351 . S
C1398 C1399 1.434 . S
C1399 C1390 1.429 . S
C1399 N1396 1.350 . S
C1399 C1398 1.434 . S
C1400 C1401 1.369 . S
C1400 C1402 1.419 1_655 S
C1400 H1404 0.930 . S
C1401 C1400 1.369 . S
C1401 C1410 1.429 . S
C1402 C1400 1.419 1_455 S
C1402 C1403 1.363 . S
C1402 H1405 0.929 . S
C1403 C1402 1.363 . S
C1403 C1409 1.428 . S
H1404 C1400 0.930 . S
H1405 C1402 0.929 . S
S1406 N1407 1.613 1_455 S
S1406 N1408 1.610 . S
N1407 S1406 1.613 1_655 S
N1407 C1410 1.350 . S
N1408 S1406 1.610 . S
N1408 C1409 1.351 . S
C1409 C1403 1.428 . S
C1409 N1408 1.351 . S
C1409 C1410 1.434 1_455 S
C1410 C1401 1.429 . S
C1410 N1407 1.350 . S
C1410 C1409 1.434 1_655 S
C1411 C1412 1.369 1_455 S
C1411 C1413 1.419 . S
C1411 H1415 0.930 . S
C1412 C1411 1.369 1_655 S
C1412 C1421 1.429 . S
C1413 C1411 1.419 . S
C1413 C1414 1.363 . S
C1413 H1416 0.929 . S
C1414 C1413 1.363 . S
C1414 C1420 1.427 1_455 S
H1415 C1411 0.930 . S
H1416 C1413 0.929 . S
S1417 N1418 1.613 . S
S1417 N1419 1.611 . S
N1418 S1417 1.613 . S
N1418 C1421 1.350 . S
N1419 S1417 1.611 . S
N1419 C1420 1.351 . S
C1420 C1414 1.427 1_655 S
C1420 N1419 1.351 . S
C1420 C1421 1.435 . S
C1421 C1412 1.429 . S
C1421 N1418 1.350 . S
C1421 C1420 1.435 . S
C1422 C1423 1.369 . S
C1422 C1424 1.419 1_545 S
C1422 H1426 0.930 . S
C1423 C1422 1.369 . S
C1423 C1432 1.429 . S
C1424 C1422 1.419 1_565 S
C1424 C1425 1.363 . S
C1424 H1427 0.929 . S
C1425 C1424 1.363 . S
C1425 C1431 1.428 . S
H1426 C1422 0.930 . S
H1427 C1424 0.929 . S
S1428 N1429 1.613 1_565 S
S1428 N1430 1.610 . S
N1429 S1428 1.613 1_545 S
N1429 C1432 1.350 . S
N1430 S1428 1.610 . S
N1430 C1431 1.351 . S
C1431 C1425 1.428 . S
C1431 N1430 1.351 . S
C1431 C1432 1.434 1_565 S
C1432 C1423 1.429 . S
C1432 N1429 1.350 . S
C1432 C1431 1.434 1_545 S
C1433 C1434 1.369 . S
C1433 C1435 1.419 . S
C1433 H1437 0.930 . S
C1434 C1433 1.369 . S
C1434 C1443 1.429 . S
C1435 C1433 1.419 . S
C1435 C1436 1.363 . S
C1435 H1438 0.929 . S
C1436 C1435 1.363 . S
C1436 C1442 1.428 . S
H1437 C1433 0.930 . S
H1438 C1435 0.929 . S
S1439 N1440 1.613 . S
S1439 N1441 1.610 . S
N1440 S1439 1.613 . S
N1440 C1443 1.350 . S
N1441 S1439 1.610 . S
N1441 C1442 1.351 . S
C1442 C1436 1.428 . S
C1442 N1441 1.351 . S
C1442 C1443 1.434 . S
C1443 C1434 1.429 . S
C1443 N1440 1.350 . S
C1443 C1442 1.434 . S
C1444 C1445 1.369 . S
C1444 C1446 1.419 . S
C1444 H1448 0.930 . S
C1445 C1444 1.369 . S
C1445 C1454 1.429 . S
C1446 C1444 1.419 . S
C1446 C1447 1.363 . S
C1446 H1449 0.929 . S
C1447 C1446 1.363 . S
C1447 C1453 1.428 . S
H1448 C1444 0.930 . S
H1449 C1446 0.929 . S
S1450 N1451 1.613 . S
S1450 N1452 1.610 . S
N1451 S1450 1.613 . S
N1451 C1454 1.350 . S
N1452 S1450 1.610 . S
N1452 C1453 1.351 . S
C1453 C1447 1.428 . S
C1453 N1452 1.351 . S
C1453 C1454 1.434 . S
C1454 C1445 1.429 . S
C1454 N1451 1.350 . S
C1454 C1453 1.434 . S
C1455 C1456 1.369 . S
C1455 C1457 1.419 . S
C1455 H1459 0.930 . S
C1456 C1455 1.369 . S
C1456 C1465 1.429 . S
C1457 C1455 1.419 . S
C1457 C1458 1.363 . S
C1457 H1460 0.929 . S
C1458 C1457 1.363 . S
C1458 C1464 1.428 . S
H1459 C1455 0.930 . S
H1460 C1457 0.929 . S
S1461 N1462 1.613 . S
S1461 N1463 1.610 . S
N1462 S1461 1.613 . S
N1462 C1465 1.350 . S
N1463 S1461 1.610 . S
N1463 C1464 1.351 . S
C1464 C1458 1.428 . S
C1464 N1463 1.351 . S
C1464 C1465 1.434 . S
C1465 C1456 1.429 . S
C1465 N1462 1.350 . S
C1465 C1464 1.434 . S
C1466 C1467 1.369 1_556 S
C1466 C1468 1.419 1_455 S
C1466 H1470 0.930 . S
C1467 C1466 1.369 1_554 S
C1467 C1476 1.429 . S
C1468 C1466 1.419 1_655 S
C1468 C1469 1.363 1_556 S
C1468 H1471 0.929 . S
C1469 C1468 1.363 1_554 S
C1469 C1475 1.428 . S
H1470 C1466 0.930 . S
H1471 C1468 0.929 . S
S1472 N1473 1.613 1_655 S
S1472 N1474 1.610 . S
N1473 S1472 1.613 1_455 S
N1473 C1476 1.350 . S
N1474 S1472 1.610 . S
N1474 C1475 1.351 . S
C1475 C1469 1.428 . S
C1475 N1474 1.351 . S
C1475 C1476 1.434 1_655 S
C1476 C1467 1.429 . S
C1476 N1473 1.350 . S
C1476 C1475 1.434 1_455 S
C1477 C1478 1.369 . S
C1477 C1479 1.419 . S
C1477 H1481 0.930 . S
C1478 C1477 1.369 . S
C1478 C1487 1.429 . S
C1479 C1477 1.419 . S
C1479 C1480 1.363 . S
C1479 H1482 0.929 . S
C1480 C1479 1.363 . S
C1480 C1486 1.428 . S
H1481 C1477 0.930 . S
H1482 C1479 0.929 . S
S1483 N1484 1.613 . S
S1483 N1485 1.610 . S
N1484 S1483 1.613 . S
N1484 C1487 1.350 . S
N1485 S1483 1.610 . S
N1485 C1486 1.351 . S
C1486 C1480 1.428 . S
C1486 N1485 1.351 . S
C1486 C1487 1.434 . S
C1487 C1478 1.429 . S
C1487 N1484 1.350 . S
C1487 C1486 1.434 . S
C697 C283 1.163 . S
C699 C48 1.162 . S
C708 C343 1.160 . S
C710 C112 1.164 1_554 S
C719 C47 1.176 . S
C721 C399 1.149 . S
C730 C231 1.165 . S
C732 C114 1.164 1_554 S
C741 C456 1.154 . S
C743 C172 1.168 . S
C752 C164 1.175 1_556 S
C754 C520 1.155 . S
C763 C170 1.173 . S
C765 C572 1.154 . S
C774 C632 1.153 . S
C776 C163 1.170 1_556 S
C785 C50 1.148 . S
C787 C225 1.171 . S
C796 C110 1.154 . S
C798 C286 1.174 . S
C807 C344 1.162 . S
C809 C51 1.165 . S
C818 C111 1.165 . S
C820 C396 1.164 1_565 S
C829 C167 1.165 . S
C831 C226 1.162 . S
C840 C288 1.165 . S
C842 C169 1.159 . S
C851 C346 1.166 . S
C853 C166 1.160 . S
C862 C395 1.161 1_565 S
C864 C168 1.164 . S
C873 C279 1.165 . S
C875 C229 1.157 . S
C884 C460 1.164 . S
C886 C228 1.164 . S
C895 C510 1.164 1_455 S
C897 C285 1.163 . S
C906 C341 1.156 . S
C908 C570 1.171 . S
C917 C458 1.150 . S
C919 C337 1.175 . S
C928 C630 1.149 . S
C930 C462 1.176 . S
C939 C512 1.177 1_455 S
C941 C459 1.150 . S
C950 C628 1.172 1_655 S
C952 C574 1.153 . S
C961 C573 1.163 . S
C963 C106 1.163 . S
C972 C54 1.161 . S
C974 C633 1.159 . S
C983 C105 1.166 . S
C985 C457 1.160 . S
C994 C56 1.172 . S
C996 C521 1.157 . S
C1005 C398 1.158 . S
C1007 C694 1.169 . S
C1016 C686 1.167 . S
C1018 C230 1.154 . S
C1027 C282 1.164 . S
C1029 C692 1.167 . S
C1038 C342 1.148 . S
C1040 C685 1.175 . S
C1049 C515 1.174 . S
C1051 C108 1.152 . S
C1060 C52 1.151 . S
C1062 C576 1.172 1_545 S
C1071 C634 1.177 . S
C1073 C109 1.151 . S
C1082 C454 1.160 . S
C1084 C53 1.162 . S
C1093 C689 1.155 . S
C1095 C516 1.171 . S
C1104 C691 1.159 . S
C1106 C578 1.170 1_545 S
C1115 C636 1.172 . S
C1117 C688 1.154 . S
C1126 C453 1.175 . S
C1128 C690 1.150 . S
C1137 C569 1.177 . S
C1139 C519 1.151 . S
C1148 C402 1.177 . S
C1150 C518 1.152 . S
C1159 C220 1.177 . S
C1161 C575 1.152 . S
C1170 C631 1.156 . S
C1172 C280 1.167 . S
C1181 C400 1.165 . S
C1183 C627 1.162 1_655 S
C1192 C340 1.148 . S
C1194 C404 1.173 . S
C1203 C401 1.165 . S
C1205 C222 1.160 . S
C1214 C338 1.171 . S
C1216 C284 1.156 . S
C1225 C162 2.646 . S
C1227 C55 2.652 . S
C1236 C104 2.648 1_554 S
C1238 C173 2.654 1_556 S
C1247 C57 2.646 . S
C1249 C165 2.653 . S
C1258 C107 2.653 1_554 S
C1260 C171 2.645 1_556 S
C1269 C223 2.649 . S
C1271 C626 2.652 . S
C1280 C278 2.652 . S
C1282 C461 2.652 . S
C1291 C511 2.651 . S
C1293 C339 2.648 . S
C1302 C405 2.646 1_565 S
C1304 C571 2.656 1_545 S
C1313 C221 2.653 . S
C1315 C629 2.648 . S
C1324 C463 2.647 . S
C1326 C281 2.650 . S
C1335 C336 2.653 . S
C1337 C513 2.649 . S
C1346 C403 2.646 1_565 S
C1348 C568 2.650 1_545 S
C1357 C394 2.648 . S
C1359 C289 2.651 . S
C1368 C577 2.653 . S
C1370 C455 2.647 . S
C1379 C514 2.651 1_455 S
C1381 C635 2.647 1_655 S
C1390 C345 2.653 . S
C1392 C224 2.651 . S
C1401 C579 2.650 . S
C1403 C452 2.649 . S
C1412 C637 2.649 1_655 S
C1414 C517 2.654 1_455 S
C1423 C684 2.654 . S
C1425 C113 2.648 . S
C1434 C46 2.651 . S
C1436 C695 2.646 . S
C1445 C115 2.646 . S
C1447 C687 2.652 . S
C1456 C693 2.653 . S
C1458 C49 2.651 . S
C1467 C287 2.653 . S
C1469 C397 2.649 . S
C1478 C227 2.651 . S
C1480 C347 2.646 . S
