# Generated by pormake.
# Topology une, (4)-cn, num edge types: 1
# Building blocks:
#     Node 0, Type 0, BuildingBlock: TATPOV_clean_sbu_0, # of connection points: 4
#     Node 1, Type 0, BuildingBlock: TATPOV_clean_sbu_0, # of connection points: 4
#     Node 2, Type 0, BuildingBlock: TATPOV_clean_sbu_0, # of connection points: 4
#     Node 3, Type 0, BuildingBlock: TATPOV_clean_sbu_0, # of connection points: 4
#     Node 4, Type 0, BuildingBlock: TATPOV_clean_sbu_0, # of connection points: 4
#     Node 5, Type 0, BuildingBlock: TATPOV_clean_sbu_0, # of connection points: 4
#     Node 6, Type 0, BuildingBlock: TATPOV_clean_sbu_0, # of connection points: 4
#     Node 7, Type 0, BuildingBlock: TATPOV_clean_sbu_0, # of connection points: 4
#     Node 8, Type 0, BuildingBlock: TATPOV_clean_sbu_0, # of connection points: 4
#     Node 9, Type 0, BuildingBlock: TATPOV_clean_sbu_0, # of connection points: 4
#     Node 10, Type 0, BuildingBlock: TATPOV_clean_sbu_0, # of connection points: 4
#     Node 11, Type 0, BuildingBlock: TATPOV_clean_sbu_0, # of connection points: 4
#     Node 12, Type 0, BuildingBlock: TATPOV_clean_sbu_0, # of connection points: 4
#     Node 13, Type 0, BuildingBlock: TATPOV_clean_sbu_0, # of connection points: 4
#     Node 14, Type 0, BuildingBlock: TATPOV_clean_sbu_0, # of connection points: 4
#     Node 15, Type 0, BuildingBlock: TATPOV_clean_sbu_0, # of connection points: 4
#     Node 16, Type 0, BuildingBlock: TATPOV_clean_sbu_0, # of connection points: 4
#     Node 17, Type 0, BuildingBlock: TATPOV_clean_sbu_0, # of connection points: 4
#     Edge 18, Type (0, 0), BuildingBlock: XUDNAN_clean_linker_2, # of connection points: 2
#     Edge 19, Type (0, 0), BuildingBlock: XUDNAN_clean_linker_2, # of connection points: 2
#     Edge 20, Type (0, 0), BuildingBlock: XUDNAN_clean_linker_2, # of connection points: 2
#     Edge 21, Type (0, 0), BuildingBlock: XUDNAN_clean_linker_2, # of connection points: 2
#     Edge 22, Type (0, 0), BuildingBlock: XUDNAN_clean_linker_2, # of connection points: 2
#     Edge 23, Type (0, 0), BuildingBlock: XUDNAN_clean_linker_2, # of connection points: 2
#     Edge 24, Type (0, 0), BuildingBlock: XUDNAN_clean_linker_2, # of connection points: 2
#     Edge 25, Type (0, 0), BuildingBlock: XUDNAN_clean_linker_2, # of connection points: 2
#     Edge 26, Type (0, 0), BuildingBlock: XUDNAN_clean_linker_2, # of connection points: 2
#     Edge 27, Type (0, 0), BuildingBlock: XUDNAN_clean_linker_2, # of connection points: 2
#     Edge 28, Type (0, 0), BuildingBlock: XUDNAN_clean_linker_2, # of connection points: 2
#     Edge 29, Type (0, 0), BuildingBlock: XUDNAN_clean_linker_2, # of connection points: 2
#     Edge 30, Type (0, 0), BuildingBlock: XUDNAN_clean_linker_2, # of connection points: 2
#     Edge 31, Type (0, 0), BuildingBlock: XUDNAN_clean_linker_2, # of connection points: 2
#     Edge 32, Type (0, 0), BuildingBlock: XUDNAN_clean_linker_2, # of connection points: 2
#     Edge 33, Type (0, 0), BuildingBlock: XUDNAN_clean_linker_2, # of connection points: 2
#     Edge 34, Type (0, 0), BuildingBlock: XUDNAN_clean_linker_2, # of connection points: 2
#     Edge 35, Type (0, 0), BuildingBlock: XUDNAN_clean_linker_2, # of connection points: 2
#     Edge 36, Type (0, 0), BuildingBlock: XUDNAN_clean_linker_2, # of connection points: 2
#     Edge 37, Type (0, 0), BuildingBlock: XUDNAN_clean_linker_2, # of connection points: 2
#     Edge 38, Type (0, 0), BuildingBlock: XUDNAN_clean_linker_2, # of connection points: 2
#     Edge 39, Type (0, 0), BuildingBlock: XUDNAN_clean_linker_2, # of connection points: 2
#     Edge 40, Type (0, 0), BuildingBlock: XUDNAN_clean_linker_2, # of connection points: 2
#     Edge 41, Type (0, 0), BuildingBlock: XUDNAN_clean_linker_2, # of connection points: 2
#     Edge 42, Type (0, 0), BuildingBlock: XUDNAN_clean_linker_2, # of connection points: 2
#     Edge 43, Type (0, 0), BuildingBlock: XUDNAN_clean_linker_2, # of connection points: 2
#     Edge 44, Type (0, 0), BuildingBlock: XUDNAN_clean_linker_2, # of connection points: 2
#     Edge 45, Type (0, 0), BuildingBlock: XUDNAN_clean_linker_2, # of connection points: 2
#     Edge 46, Type (0, 0), BuildingBlock: XUDNAN_clean_linker_2, # of connection points: 2
#     Edge 47, Type (0, 0), BuildingBlock: XUDNAN_clean_linker_2, # of connection points: 2
#     Edge 48, Type (0, 0), BuildingBlock: XUDNAN_clean_linker_2, # of connection points: 2
#     Edge 49, Type (0, 0), BuildingBlock: XUDNAN_clean_linker_2, # of connection points: 2
#     Edge 50, Type (0, 0), BuildingBlock: XUDNAN_clean_linker_2, # of connection points: 2
#     Edge 51, Type (0, 0), BuildingBlock: XUDNAN_clean_linker_2, # of connection points: 2
#     Edge 52, Type (0, 0), BuildingBlock: XUDNAN_clean_linker_2, # of connection points: 2
#     Edge 53, Type (0, 0), BuildingBlock: XUDNAN_clean_linker_2, # of connection points: 2
# Relax obj value: 0.225
# Max RMSD: 0.166
# Mean RMSD: 0.166
data_MOF--net-une--node1-TATPOV_clean_sbu_0--edge1-XUDNAN_clean_linker_2
_symmetry_space_group_name_H-M    P1
_symmetry_Int_Tables_number       1
_symmetry_cell_setting            triclinic
loop_
_symmetry_equiv_pos_as_xyz
'x, y, z'
_cell_length_a     37.079012
_cell_length_b     37.05044
_cell_length_c     56.99052
_cell_angle_alpha  90.016091
_cell_angle_beta   89.526298
_cell_angle_gamma 119.952
loop_
_atom_site_label
_atom_site_type_symbol
_atom_site_fract_x
_atom_site_fract_y
_atom_site_fract_z
_atom_type_partial_charge
Zn0 Zn 0.45829 0.09699 0.02525 0.0
Zn1 Zn 0.42341 0.08559 0.06451 0.0
O2 O 0.45999 0.0562 0.06433 0.0
O3 O 0.49642 0.07551 0.03145 0.0
O4 O 0.41406 0.09698 0.0986 0.0
O5 O 0.47947 0.15693 0.01787 0.0
O6 O 0.43207 0.13718 0.04552 0.0
C7 C 0.48723 0.0557 0.0506 0.0
C8 C 0.36519 0.03883 0.02891 0.0
O9 O 0.36841 0.04379 0.05107 0.0
O10 O 0.39739 0.05697 0.01581 0.0
C11 C 0.39386 0.11546 0.10397 0.0
O12 O 0.37756 0.12676 0.08712 0.0
C13 C 0.45224 0.16178 0.02859 0.0
Zn14 Zn 0.90985 0.35419 1.00682 0.0
Zn15 Zn 0.90564 0.34112 0.0518 0.0
O16 O 0.91197 0.40145 0.04852 0.0
O17 O 0.91494 0.40907 0.01009 0.0
O18 O 0.89118 0.31939 0.08625 0.0
O19 O 0.85678 0.30565 0.99673 0.0
O20 O 0.86069 0.28981 0.03339 0.0
C21 C 0.91601 0.42357 0.03028 0.0
C22 C 0.97854 0.34655 0.02478 0.0
O23 O 0.96172 0.34466 0.0447 0.0
O24 O 0.96182 0.34969 1.00617 0.0
C25 C 0.89077 0.2851 0.08977 0.0
O26 O 0.90092 0.269 0.07212 0.0
C27 C 0.84406 0.2792 0.01316 0.0
Zn28 Zn 0.57721 0.56051 0.03713 0.0
Zn29 Zn 0.64993 0.53321 0.07145 0.0
O30 O 0.59945 0.47646 0.06183 0.0
O31 O 0.57387 0.51723 0.0608 0.0
O32 O 0.69501 0.52599 0.0876 0.0
O33 O 0.63263 0.58471 0.0188 0.0
O34 O 0.67308 0.56755 0.04026 0.0
C35 C 0.5708 0.48292 0.05479 0.0
C36 C 0.6194 0.58464 0.08365 0.0
O37 O 0.64013 0.57101 0.09405 0.0
O38 O 0.58818 0.55704 0.07241 0.0
C39 C 0.69275 0.52397 0.10994 0.0
O40 O 0.66019 0.5222 0.12038 0.0
C41 C 0.66668 0.58476 0.02235 0.0
Zn42 Zn 0.72864 0.93104 0.01281 0.0
Zn43 Zn 0.69068 0.90155 0.97561 0.0
O44 O 0.64023 0.9012 0.99145 0.0
O45 O 0.67769 0.93503 0.02221 0.0
O46 O 0.67761 0.87977 0.94188 0.0
O47 O 0.73712 0.88592 0.02415 0.0
O48 O 0.70248 0.85767 0.99185 0.0
C49 C 0.64394 0.91997 0.01087 0.0
C50 C 0.76579 -0.00756 0.9823 0.0
O51 O 0.73366 0.96507 0.97152 0.0
O52 O 0.77704 0.98212 1.00074 0.0
C53 C 0.70662 0.87837 0.9304 0.0
O54 O 0.74265 0.89149 0.94065 0.0
C55 C 0.72064 0.85548 0.0103 0.0
Zn56 Zn 0.00203 0.79194 0.99821 0.0
Zn57 Zn 0.02164 0.7765 0.95522 0.0
O58 O 0.01777 0.72562 0.97285 0.0
O59 O 0.00392 0.74026 0.00828 0.0
O60 O 0.04521 0.78229 0.92175 0.0
O61 O 0.05214 0.84838 1.00256 0.0
O62 O 0.06721 0.83241 0.96818 0.0
C63 C 0.00992 0.71659 0.99468 0.0
C64 C 0.93632 0.76883 0.96536 0.0
O65 O 0.9615 0.7647 0.95175 0.0
O66 O 0.94774 0.78375 0.98572 0.0
C67 C 0.05315 0.81587 0.91108 0.0
O68 O 0.04213 0.84079 0.92123 0.0
C69 C 0.07692 0.85741 0.98537 0.0
Zn70 Zn 0.25021 0.25558 0.97408 0.0
Zn71 Zn 0.25092 0.2857 0.93569 0.0
O72 O 0.30969 0.333 0.94414 0.0
O73 O 0.31278 0.29333 0.9721 0.0
O74 O 0.23706 0.29215 0.90181 0.0
O75 O 0.21718 0.27386 0.99208 0.0
O76 O 0.20565 0.28944 0.95678 0.0
C77 C 0.33053 0.32557 0.95921 0.0
C78 C 0.24915 0.20248 0.94681 0.0
O79 O 0.26106 0.23539 0.93461 0.0
O80 O 0.22453 0.19613 0.96376 0.0
C81 C 0.20339 0.26319 0.89312 0.0
O82 O 0.179 0.23096 0.90639 0.0
C83 C 0.19844 0.28635 0.97892 0.0
Zn84 Zn 0.04194 0.29918 0.39778 0.0
Zn85 Zn 0.08025 0.39995 0.42983 0.0
O86 O 0.13137 0.39099 0.42362 0.0
O87 O 0.0821 0.32743 0.42516 0.0
O88 O 0.09456 0.45317 0.44806 0.0
O89 O 0.0339 0.34068 0.37743 0.0
O90 O 0.05849 0.40179 0.3966 0.0
C91 C 0.1193 0.35303 0.41931 0.0
C92 C 0.0124 0.31956 0.4399 0.0
O93 O 0.02714 0.3562 0.44753 0.0
O94 O 0.0396 0.31041 0.43309 0.0
C95 C 0.09145 0.44941 0.47036 0.0
O96 O 0.08592 0.41463 0.4798 0.0
C97 C 0.04176 0.37838 0.37867 0.0
Zn98 Zn 0.57085 0.68759 0.35641 0.0
Zn99 Zn 0.58491 0.67519 0.3972 0.0
O100 O 0.60457 0.73967 0.39219 0.0
O101 O 0.57805 0.74373 0.35861 0.0
O102 O 0.56597 0.65345 0.4311 0.0
O103 O 0.51778 0.63703 0.34619 0.0
O104 O 0.54437 0.62479 0.37726 0.0
C105 C 0.59962 0.76159 0.37644 0.0
C106 C 0.64494 0.67536 0.36668 0.0
O107 O 0.63597 0.67222 0.38851 0.0
O108 O 0.62345 0.68231 0.35196 0.0
C109 C 0.56199 0.61767 0.43499 0.0
O110 O 0.5738 0.60103 0.41841 0.0
C111 C 0.52087 0.61133 0.35941 0.0
Zn112 Zn 0.30361 0.86103 0.32791 0.0
Zn113 Zn 0.32058 0.86088 0.37263 0.0
O114 O 0.26147 0.80801 0.36904 0.0
O115 O 0.24986 0.80962 0.33132 0.0
O116 O 0.33919 0.86098 0.40647 0.0
O117 O 0.35233 0.85928 0.31506 0.0
O118 O 0.37018 0.86726 0.35222 0.0
C119 C 0.23789 0.7926 0.35123 0.0
C120 C 0.31259 0.9325 0.35301 0.0
O121 O 0.31737 0.91431 0.37069 0.0
O122 O 0.30701 0.91636 0.33283 0.0
C123 C 0.37465 0.88977 0.4134 0.0
O124 O 0.39909 0.91887 0.3984 0.0
C125 C 0.37892 0.86584 0.33061 0.0
Zn126 Zn 0.36346 0.28776 0.33122 0.0
Zn127 Zn 0.3402 0.26162 0.29112 0.0
O128 O 0.29057 0.27018 0.29984 0.0
O129 O 0.32346 0.30973 0.33016 0.0
O130 O 0.33641 0.23632 0.25839 0.0
O131 O 0.34805 0.23595 0.34872 0.0
O132 O 0.33948 0.21512 0.31212 0.0
C133 C 0.29292 0.29486 0.31626 0.0
C134 C 0.42391 0.33911 0.302 0.0
O135 O 0.39253 0.32049 0.28865 0.0
O136 O 0.42279 0.32413 0.32203 0.0
C137 C 0.36506 0.22698 0.25604 0.0
O138 O 0.39198 0.23679 0.2731 0.0
C139 C 0.34087 0.20792 0.3339 0.0
Zn140 Zn 0.73993 0.10458 0.32999 0.0
Zn141 Zn 0.75801 0.10935 0.29054 0.0
O142 O 0.75927 0.05682 0.30307 0.0
O143 O 0.77191 0.07646 0.33981 0.0
O144 O 0.78121 0.12458 0.25653 0.0
O145 O 0.7566 0.16242 0.33805 0.0
O146 O 0.79784 0.16353 0.31004 0.0
C147 C 0.7668 0.05028 0.32406 0.0
C148 C 0.66808 0.06773 0.30474 0.0
O149 O 0.6939 0.08752 0.28813 0.0
O150 O 0.68137 0.06784 0.32502 0.0
C151 C 0.78593 0.15795 0.24697 0.0
O152 O 0.77536 0.18149 0.25906 0.0
C153 C 0.79089 0.18141 0.3273 0.0
Zn154 Zn 0.86133 0.52013 0.33002 0.0
Zn155 Zn 0.8819 0.55403 0.28759 0.0
O156 O 0.9342 0.59946 0.30287 0.0
O157 O 0.91749 0.57081 0.33824 0.0
O158 O 0.87674 0.56615 0.25339 0.0
O159 O 0.80923 0.5234 0.3351 0.0
O160 O 0.8312 0.55527 0.3012 0.0
C161 C 0.94287 0.59946 0.32452 0.0
C162 C 0.88185 0.47277 0.30081 0.0
O163 O 0.89028 0.50356 0.28746 0.0
O164 O 0.86238 0.46835 0.31993 0.0
C165 C 0.88435 0.55062 0.23538 0.0
O166 O 0.90301 0.52867 0.23794 0.0
C167 C 0.80577 0.54395 0.31845 0.0
Zn168 Zn 0.7955 0.82184 0.68618 0.0
Zn169 Zn 0.76984 0.80006 0.72675 0.0
O170 O 0.81757 0.78556 0.71909 0.0
O171 O 0.84805 0.82145 0.68716 0.0
O172 O 0.75857 0.79806 0.76231 0.0
O173 O 0.79685 0.87508 0.6827 0.0
O174 O 0.76853 0.85408 0.7175 0.0
C175 C 0.8458 0.79683 0.70312 0.0
C176 C 0.71419 0.74524 0.69021 0.0
O177 O 0.71821 0.75263 0.71215 0.0
O178 O 0.74289 0.76911 0.67607 0.0
C179 C 0.72422 0.79635 0.76758 0.0
O180 O 0.6992 0.7929 0.75045 0.0
C181 C 0.77887 0.87965 0.70037 0.0
Zn182 Zn 0.18548 0.00186 0.68218 0.0
Zn183 Zn 0.21083 0.00152 0.72591 0.0
O184 O 0.21895 0.06123 0.7217 0.0
O185 O 0.19423 0.05946 0.6864 0.0
O186 O 0.20896 0.98698 0.76092 0.0
O187 O 0.1301 0.94884 0.68308 0.0
O188 O 0.15756 0.94858 0.71689 0.0
C189 C 0.21182 0.07953 0.7048 0.0
C190 C 0.2632 -0.00187 0.687 0.0
O191 O 0.2597 0.00085 0.70916 0.0
O192 O 0.23597 -0.00288 0.67325 0.0
C193 C 0.20591 0.9516 0.76478 0.0
O194 O 0.21134 0.93211 0.74702 0.0
C195 C 0.12905 0.93014 0.70184 0.0
Zn196 Zn 0.91424 0.24835 0.69343 0.0
Zn197 Zn 0.98423 0.20981 0.72332 0.0
O198 O 0.93764 0.15245 0.70881 0.0
O199 O 0.9238 0.20099 0.70252 0.0
O200 O 0.03065 0.20648 0.74061 0.0
O201 O 0.97378 0.28432 0.67973 0.0
O202 O 0.00895 0.25595 0.69674 0.0
C203 C 0.91424 0.16369 0.69902 0.0
C204 C 0.93938 0.24581 0.74112 0.0
O205 O 0.96509 0.23595 0.74895 0.0
O206 O 0.91527 0.22213 0.72536 0.0
C207 C 0.06491 0.24056 0.74297 0.0
O208 O 0.07045 0.27348 0.73124 0.0
C209 C 0.00673 0.28162 0.68233 0.0
Zn210 Zn 0.93814 0.55596 0.67836 0.0
Zn211 Zn 0.98311 0.57236 0.64305 0.0
O212 O 0.93807 0.59014 0.63801 0.0
O213 O 0.89062 0.55931 0.66546 0.0
O214 O 0.00627 0.56684 0.61124 0.0
O215 O 0.93023 0.50238 0.6892 0.0
O216 O 0.97597 0.51924 0.66058 0.0
C217 C 0.9047 0.58422 0.64828 0.0
C218 C 0.01932 0.63438 0.67967 0.0
O219 O 0.02645 0.62406 0.65955 0.0
O220 O 0.98591 0.61041 0.69076 0.0
C221 C 0.01384 0.58762 0.59226 0.0
O222 O 0.00677 0.61898 0.59133 0.0
C223 C 0.95484 0.4951 0.67748 0.0
Zn224 Zn 0.3564 0.45749 0.66716 0.0
Zn225 Zn 0.37006 0.4401 0.62361 0.0
O226 O 0.35899 0.3849 0.63953 0.0
O227 O 0.34931 0.40108 0.67552 0.0
O228 O 0.39066 0.44535 0.58942 0.0
O229 O 0.41109 0.50879 0.67211 0.0
O230 O 0.42149 0.49226 0.63671 0.0
C231 C 0.35073 0.37548 0.66128 0.0
C232 C 0.29236 0.44662 0.63626 0.0
O233 O 0.31298 0.43702 0.62208 0.0
O234 O 0.30622 0.46018 0.65651 0.0
C235 C 0.40172 0.48052 0.57967 0.0
O236 O 0.39529 0.50758 0.59116 0.0
C237 C 0.43471 0.516 0.65453 0.0
Zn238 Zn 0.6135 0.05307 0.6623 0.0
Zn239 Zn 0.57914 0.00288 0.59865 0.0
O240 O 0.64211 0.0468 0.59233 0.0
O241 O 0.62839 0.05311 0.62799 0.0
O242 O 0.54689 0.98165 0.56786 0.0
O243 O 0.55847 0.05111 0.6577 0.0
O244 O 0.54503 0.02127 0.62189 0.0
C245 C 0.65594 0.06177 0.61242 0.0
C246 C 0.5977 0.96986 0.63552 0.0
O247 O 0.58518 0.95639 0.61498 0.0
O248 O 0.59871 0.00331 0.64106 0.0
C249 C 0.50941 0.95169 0.56877 0.0
O250 O 0.49337 0.93527 0.58934 0.0
C251 C 0.53489 0.03594 0.63977 0.0
H252 H 0.56749 0.07359 0.05441 0.0
H253 H 0.44061 0.97157 0.05106 0.0
H254 H 0.46631 0.92265 0.04268 0.0
H255 H 0.60762 0.04621 0.00922 0.0
H256 H 0.65718 0.06012 0.022 0.0
H257 H 0.62936 0.08573 0.03156 0.0
H258 H 0.6306 0.06402 0.07463 0.0
H259 H 0.65951 0.03923 0.06529 0.0
H260 H 0.61155 0.00998 0.0816 0.0
H261 H 0.50654 0.88858 0.02615 0.0
H262 H 0.55818 0.86982 0.01096 0.0
H263 H 0.65802 -0.00706 0.02903 0.0
C264 C 0.5453 0.0406 0.05312 0.0
C265 C 0.5022 0.02602 0.0539 0.0
C266 C 0.4738 0.98297 0.05124 0.0
C267 C 0.48813 0.95509 0.04619 0.0
C268 C 0.53097 0.97074 0.04447 0.0
C269 C 0.55915 0.01229 0.04873 0.0
C270 C 0.60346 0.02182 0.04484 0.0
C271 C 0.62566 0.05544 0.02577 0.0
C272 C 0.6277 0.03449 0.06797 0.0
C273 C 0.5958 0.97976 0.03664 0.0
C274 C 0.55387 0.95059 0.03634 0.0
C275 C 0.53951 0.91081 0.02702 0.0
C276 C 0.56888 0.90047 0.01825 0.0
C277 C 0.61193 0.92966 0.01928 0.0
C278 C 0.62527 0.96962 0.02862 0.0
H279 H 0.91715 0.47172 0.99401 0.0
H280 H 0.94089 0.47654 0.06873 0.0
H281 H 0.96941 0.55315 0.06776 0.0
H282 H 0.00987 0.56209 0.97865 0.0
H283 H 0.98691 0.57801 0.95607 0.0
H284 H 0.96474 0.52364 0.96319 0.0
H285 H 0.89299 0.51747 0.97136 0.0
H286 H 0.91467 0.57161 0.96375 0.0
H287 H 0.88933 0.55267 0.9918 0.0
H288 H -0.00201 0.63032 0.05753 0.0
H289 H 0.02011 0.69938 0.03995 0.0
H290 H 0.98114 0.64242 0.9715 0.0
C291 C 0.92771 0.48853 0.01037 0.0
C292 C 0.92664 0.46791 0.03153 0.0
C293 C 0.94096 0.49147 0.05239 0.0
C294 C 0.95751 0.53503 0.05192 0.0
C295 C 0.95957 0.55437 0.03045 0.0
C296 C 0.94465 0.53163 0.01013 0.0
C297 C 0.95145 0.55935 0.98908 0.0
C298 C 0.97994 0.55553 0.97067 0.0
C299 C 0.90963 0.5497 0.97838 0.0
C300 C 0.97287 0.60164 1.00059 0.0
C301 C 0.97711 0.59822 0.02448 0.0
C302 C -0.00512 0.63319 0.03886 0.0
C303 C 0.00754 0.67232 0.02867 0.0
C304 C 0.00288 0.67636 1.00428 0.0
C305 C 0.98601 0.64051 0.99007 0.0
H306 H 0.36855 0.40367 0.97748 0.0
H307 H 0.39082 0.30643 0.95205 0.0
H308 H 0.46028 0.34127 0.97023 0.0
H309 H 0.48189 0.49275 0.97503 0.0
H310 H 0.47479 0.51407 1.00195 0.0
H311 H 0.43198 0.48752 0.98199 0.0
H312 H 0.38729 0.43837 0.01578 0.0
H313 H 0.43006 0.4639 0.03568 0.0
H314 H 0.40584 0.40847 0.03129 0.0
H315 H 0.52044 0.37854 0.99751 0.0
H316 H 0.56942 0.41902 0.02918 0.0
H317 H 0.50707 0.49104 0.03751 0.0
C318 C 0.38925 0.39135 0.97456 0.0
C319 C 0.37527 0.35335 0.96272 0.0
C320 C 0.40184 0.33635 0.96043 0.0
C321 C 0.44118 0.35578 0.97083 0.0
C322 C 0.4534 0.39218 0.9835 0.0
C323 C 0.42855 0.41027 0.98507 0.0
C324 C 0.44639 0.44617 1.00222 0.0
C325 C 0.45955 0.48759 0.98954 0.0
C326 C 0.41556 0.43874 0.02243 0.0
C327 C 0.48391 0.44418 0.01078 0.0
C328 C 0.48782 0.41325 0.9996 0.0
C329 C 0.51829 0.40354 1.006 0.0
C330 C 0.54576 0.42643 0.02412 0.0
C331 C 0.54234 0.45843 0.03565 0.0
C332 C 0.511 0.46726 0.02876 0.0
H333 H 0.19675 0.39986 0.39708 0.0
H334 H 0.08843 0.27569 0.40057 0.0
H335 H 0.11579 0.25355 0.368 0.0
H336 H 0.21899 0.40377 0.33325 0.0
H337 H 0.2744 0.4274 0.33718 0.0
H338 H 0.24351 0.43739 0.35796 0.0
H339 H 0.27107 0.41175 0.39204 0.0
H340 H 0.30257 0.40263 0.37139 0.0
H341 H 0.26633 0.36097 0.39026 0.0
H342 H 0.15444 0.24257 0.33601 0.0
H343 H 0.21005 0.23845 0.31411 0.0
H344 H 0.29784 0.36547 0.33408 0.0
C345 C 0.17855 0.36829 0.39068 0.0
C346 C 0.13917 0.3404 0.40067 0.0
C347 C 0.11746 0.29864 0.39252 0.0
C348 C 0.13277 0.28551 0.37393 0.0
C349 C 0.17084 0.31387 0.36398 0.0
C350 C 0.19425 0.35396 0.37254 0.0
C351 C 0.23722 0.37562 0.36122 0.0
C352 C 0.24391 0.41328 0.34653 0.0
C353 C 0.2713 0.38847 0.37983 0.0
C354 C 0.23434 0.34098 0.34561 0.0
C355 C 0.19518 0.30624 0.3468 0.0
C356 C 0.18525 0.26964 0.33476 0.0
C357 C 0.21688 0.26765 0.32216 0.0
C358 C 0.258 0.30164 0.32231 0.0
C359 C 0.26641 0.33922 0.33345 0.0
H360 H 0.59577 0.81488 0.34473 0.0
H361 H 0.6658 0.81256 0.4048 0.0
H362 H 0.71944 0.88583 0.39657 0.0
H363 H 0.68042 0.8697 0.30722 0.0
H364 H 0.66047 0.89964 0.29315 0.0
H365 H 0.62503 0.84913 0.30532 0.0
H366 H 0.58997 0.88072 0.33127 0.0
H367 H 0.6243 0.93105 0.31853 0.0
H368 H 0.62178 0.92433 0.34993 0.0
H369 H 0.76728 0.95929 0.38016 0.0
H370 H 0.80079 0.02747 0.35956 0.0
H371 H 0.70152 0.97797 0.30863 0.0
C372 C 0.6218 0.82993 0.3566 0.0
C373 C 0.62631 0.80778 0.37555 0.0
C374 C 0.66123 0.82885 0.39039 0.0
C375 C 0.69213 0.87037 0.38567 0.0
C376 C 0.68769 0.89037 0.36603 0.0
C377 C 0.65298 0.87094 0.35198 0.0
C378 C 0.65591 0.89839 0.3315 0.0
C379 C 0.65543 0.87798 0.30791 0.0
C380 C 0.62094 0.90927 0.3329 0.0
C381 C 0.69806 0.93622 0.33593 0.0
C382 C 0.71586 0.93127 0.35602 0.0
C383 C 0.75375 0.96323 0.36429 0.0
C384 C 0.77287 0.00168 0.35233 0.0
C385 C 0.75452 0.00763 0.33206 0.0
C386 C 0.71726 0.97392 0.32347 0.0
H387 H 0.01442 0.64577 0.29915 0.0
H388 H 0.96531 0.61996 0.37034 0.0
H389 H 0.03642 0.66344 0.3857 0.0
H390 H 0.10542 0.64029 0.31112 0.0
H391 H 0.13814 0.6816 0.29104 0.0
H392 H 0.08319 0.65024 0.28563 0.0
H393 H 0.0762 0.71649 0.2842 0.0
H394 H 0.13126 0.74806 0.28907 0.0
H395 H 0.09493 0.75244 0.30841 0.0
H396 H 0.11413 0.70998 0.39314 0.0
H397 H 0.19036 0.75889 0.39145 0.0
H398 H 0.1867 0.74935 0.31548 0.0
C399 C 0.01848 0.64988 0.31795 0.0
C400 C 0.98436 0.6298 0.33353 0.0
C401 C -0.0089 0.63526 0.35806 0.0
C402 C 0.03136 0.65971 0.36697 0.0
C403 C 0.06452 0.67812 0.35112 0.0
C404 C 0.05839 0.67362 0.32713 0.0
C405 C 0.09908 0.69596 0.31377 0.0
C406 C 0.1069 0.66517 0.29956 0.0
C407 C 0.10044 0.73028 0.29794 0.0
C408 C 0.12903 0.71409 0.33395 0.0
C409 C 0.10878 0.70353 0.3554 0.0
C410 C 0.13037 0.7183 0.37642 0.0
C411 C 0.17365 0.74576 0.37534 0.0
C412 C 0.19452 0.75793 0.35338 0.0
C413 C 0.17183 0.74071 0.3326 0.0
H414 H 0.84038 0.58623 0.67127 0.0
H415 H 0.94636 0.6595 0.62527 0.0
H416 H 0.94529 0.72301 0.6369 0.0
H417 H 0.78952 0.65109 0.66285 0.0
H418 H 0.77212 0.64324 0.693 0.0
H419 H 0.77746 0.60347 0.67785 0.0
H420 H 0.82568 0.60535 0.71106 0.0
H421 H 0.82223 0.6466 0.7257 0.0
H422 H 0.87241 0.6536 0.71753 0.0
H423 H 0.941 0.77977 0.65888 0.0
H424 H 0.91977 0.8241 0.68035 0.0
H425 H 0.81701 0.71418 0.7123 0.0
C426 C 0.86244 0.61536 0.66292 0.0
C427 C 0.89369 0.61766 0.64746 0.0
C428 C 0.92201 0.65661 0.63707 0.0
C429 C 0.92221 0.6931 0.64395 0.0
C430 C 0.89372 0.69012 0.66104 0.0
C431 C 0.86328 0.6521 0.66969 0.0
C432 C 0.83662 0.65748 0.68815 0.0
C433 C 0.79125 0.63766 0.67997 0.0
C434 C 0.83943 0.63969 0.71202 0.0
C435 C 0.85742 0.70455 0.68892 0.0
C436 C 0.89058 0.72275 0.67331 0.0
C437 C 0.91475 0.76581 0.67091 0.0
C438 C 0.90284 0.79079 0.68348 0.0
C439 C 0.86692 0.77269 0.69815 0.0
C440 C 0.84512 0.72907 0.70167 0.0
H441 H 0.30135 0.29968 0.64037 0.0
H442 H 0.37021 0.35695 0.7037 0.0
H443 H 0.33991 0.28774 0.72262 0.0
H444 H 0.20875 0.22592 0.66954 0.0
H445 H 0.19589 0.18442 0.64892 0.0
H446 H 0.22569 0.23788 0.63939 0.0
H447 H 0.28464 0.2255 0.62405 0.0
H448 H 0.25456 0.17176 0.633 0.0
H449 H 0.3069 0.20362 0.6435 0.0
H450 H 0.29991 0.21224 0.73524 0.0
H451 H 0.25738 0.13565 0.73935 0.0
H452 H 0.21185 0.12821 0.66853 0.0
C453 C 0.31098 0.29741 0.65793 0.0
C454 C 0.33873 0.33354 0.67044 0.0
C455 C 0.34941 0.32954 0.69373 0.0
C456 C 0.33216 0.29041 0.70467 0.0
C457 C 0.30377 0.25549 0.69221 0.0
C458 C 0.29346 0.25854 0.66929 0.0
C459 C 0.26089 0.21635 0.66017 0.0
C460 C 0.22042 0.21615 0.65415 0.0
C461 C 0.27777 0.20355 0.63893 0.0
C462 C 0.2549 0.18916 0.68141 0.0
C463 C 0.27978 0.2123 0.69975 0.0
C464 C 0.28023 0.19377 0.72099 0.0
C465 C 0.25571 0.15023 0.72325 0.0
C466 C 0.23097 0.12568 0.70438 0.0
C467 C 0.22997 0.14586 0.68345 0.0
H468 H 0.69184 0.10304 0.65246 0.0
H469 H 0.71823 0.05544 0.58905 0.0
H470 H 0.78669 0.07171 0.60528 0.0
H471 H 0.79645 0.18751 0.66259 0.0
H472 H 0.7908 0.18075 0.69397 0.0
H473 H 0.74591 0.16716 0.67623 0.0
H474 H 0.70959 0.09281 0.69432 0.0
H475 H 0.7549 0.10572 0.71158 0.0
H476 H 0.73443 0.06172 0.69204 0.0
H477 H 0.8515 0.08973 0.63075 0.0
H478 H 0.90942 0.11829 0.65954 0.0
H479 H 0.83775 0.1527 0.70522 0.0
C480 C 0.71224 0.09663 0.64175 0.0
C481 C 0.69982 0.07825 0.61942 0.0
C482 C 0.72739 0.07015 0.60606 0.0
C483 C 0.76612 0.07886 0.61527 0.0
C484 C 0.77658 0.09543 0.63785 0.0
C485 C 0.75055 0.10486 0.65065 0.0
C486 C 0.76834 0.12254 0.6744 0.0
C487 C 0.77583 0.16713 0.67693 0.0
C488 C 0.74013 0.09399 0.69425 0.0
C489 C 0.80877 0.12205 0.67306 0.0
C490 C 0.813 0.10574 0.65208 0.0
C491 C 0.8484 0.10262 0.64718 0.0
C492 C 0.88089 0.11833 0.66371 0.0
C493 C 0.87757 0.13702 0.68465 0.0
C494 C 0.84071 0.13795 0.68946 0.0
H495 H 0.3565 0.15871 0.12118 0.0
H496 H 0.42273 0.09558 0.14319 0.0
H497 H 0.41867 0.11427 0.18428 0.0
H498 H 0.40548 0.24399 0.16067 0.0
H499 H 0.35942 0.2474 0.16651 0.0
H500 H 0.36535 0.22728 0.13887 0.0
H501 H 0.29503 0.15955 0.14582 0.0
H502 H 0.28886 0.17947 0.17351 0.0
H503 H 0.28698 0.12993 0.17238 0.0
H504 H 0.41083 0.1423 0.22245 0.0
H505 H 0.39997 0.17804 0.25576 0.0
H506 H 0.3377 0.22317 0.21011 0.0
C507 C 0.36984 0.14847 0.13466 0.0
C508 C 0.38992 0.12551 0.12886 0.0
C509 C 0.40717 0.11306 0.14708 0.0
C510 C 0.40495 0.1235 0.17052 0.0
C511 C 0.38525 0.14633 0.17558 0.0
C512 C 0.36788 0.15863 0.15823 0.0
C513 C 0.34962 0.18407 0.16849 0.0
C514 C 0.37127 0.22831 0.15801 0.0
C515 C 0.30231 0.16192 0.16483 0.0
C516 C 0.36002 0.18465 0.19428 0.0
C517 C 0.38044 0.16247 0.19786 0.0
C518 C 0.39469 0.15954 0.21988 0.0
C519 C 0.38845 0.18015 0.2387 0.0
C520 C 0.36798 0.20349 0.23562 0.0
C521 C 0.35303 0.20524 0.2131 0.0
H522 H 0.86052 0.3029 0.13081 0.0
H523 H 0.89155 0.21399 0.10072 0.0
H524 H 0.86892 0.17282 0.13712 0.0
H525 H 0.89348 0.29821 0.19038 0.0
H526 H 0.85154 0.30188 0.20422 0.0
H527 H 0.87093 0.32537 0.17584 0.0
H528 H 0.79659 0.28334 0.15897 0.0
H529 H 0.77701 0.25965 0.18728 0.0
H530 H 0.76833 0.22739 0.16189 0.0
H531 H 0.84174 0.13967 0.17664 0.0
H532 H 0.81268 0.11802 0.2167 0.0
H533 H 0.79883 0.22739 0.22197 0.0
C534 C 0.86279 0.27494 0.13194 0.0
C535 C 0.87803 0.26199 0.11268 0.0
C536 C 0.88014 0.22492 0.11503 0.0
C537 C 0.8673 0.20111 0.13573 0.0
C538 C 0.85224 0.21445 0.15425 0.0
C539 C 0.84997 0.25053 0.15265 0.0
C540 C 0.83208 0.25738 0.17525 0.0
C541 C 0.86391 0.29813 0.18712 0.0
C542 C 0.79107 0.25691 0.17056 0.0
C543 C 0.82461 0.21954 0.18961 0.0
C544 C 0.8365 0.19522 0.17714 0.0
C545 C 0.83239 0.15855 0.1866 0.0
C546 C 0.81578 0.14643 0.20941 0.0
C547 C 0.80337 0.17081 0.22266 0.0
C548 C 0.80797 0.20791 0.21244 0.0
H549 H 0.82074 0.56631 0.22792 0.0
H550 H 0.90294 0.5327 0.19158 0.0
H551 H 0.86503 0.52498 0.1546 0.0
H552 H 0.72949 0.49232 0.20041 0.0
H553 H 0.70621 0.52491 0.19931 0.0
H554 H 0.74275 0.53249 0.22201 0.0
H555 H 0.78852 0.6099 0.20979 0.0
H556 H 0.75188 0.60273 0.18718 0.0
H557 H 0.80594 0.62276 0.17974 0.0
H558 H 0.81522 0.5184 0.12162 0.0
H559 H 0.75765 0.51168 0.09661 0.0
H560 H 0.70685 0.54538 0.15604 0.0
C561 C 0.8315 0.55828 0.2121 0.0
C562 C 0.86522 0.55066 0.21259 0.0
C563 C 0.87743 0.53906 0.19158 0.0
C564 C 0.85606 0.53458 0.1705 0.0
C565 C 0.82229 0.54143 0.17078 0.0
C566 C 0.81015 0.55301 0.19111 0.0
C567 C 0.77123 0.55571 0.18737 0.0
C568 C 0.73531 0.52449 0.20321 0.0
C569 C 0.77993 0.60044 0.19124 0.0
C570 C 0.76301 0.54351 0.16181 0.0
C571 C 0.79298 0.53587 0.15236 0.0
C572 C 0.79162 0.5243 0.1289 0.0
C573 C 0.75882 0.5205 0.11483 0.0
C574 C 0.72753 0.52759 0.12439 0.0
C575 C 0.72995 0.53925 0.1482 0.0
H576 H 0.76414 0.87451 0.90124 0.0
H577 H 0.63517 0.84491 0.90419 0.0
H578 H 0.62522 0.81749 0.86376 0.0
H579 H 0.78329 0.90872 0.84145 0.0
H580 H 0.8163 0.88699 0.83523 0.0
H581 H 0.81284 0.90291 0.86462 0.0
H582 H 0.79154 0.82908 0.88 0.0
H583 H 0.79474 0.81286 0.85062 0.0
H584 H 0.74729 0.7844 0.86746 0.0
H585 H 0.62972 0.79489 0.82273 0.0
H586 H 0.64838 0.78066 0.78364 0.0
H587 H 0.77478 0.82471 0.80689 0.0
C588 C 0.7337 0.86213 0.89346 0.0
C589 C 0.70036 0.86186 0.90602 0.0
C590 C 0.66117 0.84551 0.89503 0.0
C591 C 0.65521 0.82975 0.87206 0.0
C592 C 0.68871 0.83047 0.86025 0.0
C593 C 0.72722 0.84632 0.87054 0.0
C594 C 0.75837 0.84445 0.85378 0.0
C595 C 0.79485 0.88838 0.84846 0.0
C596 C 0.77389 0.816 0.86355 0.0
C597 C 0.73147 0.8254 0.83232 0.0
C598 C 0.69134 0.81742 0.83654 0.0
C599 C 0.66099 0.80088 0.81929 0.0
C600 C 0.67199 0.7929 0.79708 0.0
C601 C 0.71306 0.80139 0.79209 0.0
C602 C 0.74302 0.81739 0.81016 0.0
H603 H 0.07422 0.88617 0.88503 0.0
H604 H 0.08789 0.77647 0.8864 0.0
H605 H 0.13137 0.80133 0.85035 0.0
H606 H 0.06688 0.89149 0.82227 0.0
H607 H 0.09561 0.94762 0.82131 0.0
H608 H 0.06585 0.92106 0.84714 0.0
H609 H 0.13194 0.96123 0.87241 0.0
H610 H 0.16203 0.98759 0.84661 0.0
H611 H 0.17797 0.95863 0.86505 0.0
H612 H 0.17336 0.83838 0.81398 0.0
H613 H 0.20733 0.88217 0.77918 0.0
H614 H 0.1668 0.96837 0.80148 0.0
C615 C 0.08618 0.86717 0.87776 0.0
C616 C 0.07747 0.82918 0.88865 0.0
C617 C 0.0939 0.80551 0.87843 0.0
C618 C 0.1188 0.81952 0.85799 0.0
C619 C 0.12709 0.85731 0.84791 0.0
C620 C 0.11104 0.88068 0.85739 0.0
C621 C 0.12407 0.9199 0.84299 0.0
C622 C 0.08582 0.92 0.83283 0.0
C623 C 0.15058 0.95916 0.85764 0.0
C624 C 0.14992 0.91498 0.82381 0.0
C625 C 0.15137 0.87872 0.82706 0.0
C626 C 0.17248 0.86685 0.81135 0.0
C627 C 0.19182 0.8921 0.79161 0.0
C628 C 0.19013 0.92902 0.78756 0.0
C629 C 0.16932 0.9408 0.80418 0.0
H630 H 0.13134 0.20796 0.87066 0.0
H631 H 0.24818 0.32298 0.85968 0.0
H632 H 0.22775 0.32619 0.81886 0.0
H633 H 0.12396 0.16515 0.81214 0.0
H634 H 0.06834 0.14326 0.81077 0.0
H635 H 0.09303 0.14881 0.83869 0.0
H636 H 0.06024 0.19174 0.85433 0.0
H637 H 0.03525 0.18606 0.82655 0.0
H638 H 0.0685 0.23727 0.83834 0.0
H639 H 0.19301 0.31857 0.77978 0.0
H640 H 0.14581 0.30255 0.74621 0.0
H641 H 0.05165 0.19203 0.78241 0.0
C642 C 0.15286 0.23372 0.85966 0.0
C643 C 0.19153 0.2652 0.86845 0.0
C644 C 0.21847 0.29847 0.85342 0.0
C645 C 0.20718 0.30047 0.83015 0.0
C646 C 0.16885 0.26891 0.82209 0.0
C647 C 0.14206 0.2362 0.83642 0.0
C648 C 0.1019 0.20725 0.82383 0.0
C649 C 0.09651 0.16353 0.8212 0.0
C650 C 0.06426 0.2055 0.83651 0.0
C651 C 0.10996 0.22904 0.80024 0.0
C652 C 0.14891 0.26441 0.79956 0.0
C653 C 0.16264 0.29076 0.78007 0.0
C654 C 0.13557 0.28134 0.76105 0.0
C655 C 0.09513 0.24581 0.76152 0.0
C656 C 0.08263 0.21892 0.78126 0.0
H657 H 0.07835 0.4454 0.51789 0.0
H658 H 0.09353 0.52211 0.45696 0.0
H659 H 0.07853 0.56807 0.48178 0.0
H660 H -0.00709 0.44844 0.54249 0.0
H661 H 0.00855 0.44998 0.57251 0.0
H662 H 0.02422 0.42568 0.55045 0.0
H663 H 0.10158 0.47389 0.56129 0.0
H664 H 0.08613 0.49816 0.58353 0.0
H665 H 0.12305 0.52958 0.56106 0.0
H666 H 0.05693 0.60301 0.51336 0.0
H667 H 0.03243 0.62421 0.54845 0.0
H668 H 0.03088 0.52356 0.58822 0.0
C669 C 0.0793 0.47226 0.50974 0.0
C670 C 0.08741 0.48018 0.4854 0.0
C671 C 0.08775 0.51548 0.47555 0.0
C672 C 0.07915 0.54172 0.48953 0.0
C673 C 0.07036 0.53237 0.51338 0.0
C674 C 0.07068 0.49858 0.52339 0.0
C675 C 0.05844 0.49397 0.54913 0.0
C676 C 0.01867 0.45204 0.55391 0.0
C677 C 0.09445 0.49923 0.56467 0.0
C678 C 0.05057 0.53011 0.55207 0.0
C679 C 0.0578 0.55209 0.53132 0.0
C680 C 0.0515 0.58613 0.52971 0.0
C681 C 0.0375 0.59793 0.54977 0.0
C682 C 0.02972 0.5757 0.57121 0.0
C683 C 0.03662 0.54143 0.57221 0.0
H684 H 0.52324 0.63538 0.47182 0.0
H685 H 0.55311 0.54245 0.44703 0.0
H686 H 0.51503 0.49731 0.48057 0.0
H687 H 0.5325 0.61937 0.53433 0.0
H688 H 0.48969 0.62676 0.54281 0.0
H689 H 0.52027 0.65254 0.51705 0.0
H690 H 0.45324 0.6195 0.49213 0.0
H691 H 0.42254 0.59335 0.51779 0.0
H692 H 0.41992 0.56369 0.49214 0.0
H693 H 0.47151 0.4604 0.51632 0.0
H694 H 0.42916 0.43691 0.5528 0.0
H695 H 0.42767 0.55329 0.55494 0.0
C696 C 0.52213 0.60575 0.47358 0.0
C697 C 0.54136 0.59271 0.45661 0.0
C698 C 0.53879 0.55343 0.45963 0.0
C699 C 0.51709 0.52735 0.47868 0.0
C700 C 0.49797 0.54074 0.49483 0.0
C701 C 0.50052 0.57915 0.49264 0.0
C702 C 0.47698 0.5858 0.51255 0.0
C703 C 0.50663 0.62334 0.52758 0.0
C704 C 0.44104 0.59088 0.50308 0.0
C705 C 0.46071 0.54514 0.52609 0.0
C706 C 0.4731 0.51953 0.51554 0.0
C707 C 0.46171 0.48028 0.52477 0.0
C708 C 0.43748 0.46708 0.54548 0.0
C709 C 0.42488 0.49304 0.55684 0.0
C710 C 0.43661 0.5325 0.54677 0.0
H711 H 0.52879 0.98228 0.5232 0.0
H712 H 0.43107 0.88439 0.56557 0.0
H713 H 0.38687 0.85738 0.53063 0.0
H714 H 0.46104 0.00112 0.48687 0.0
H715 H 0.49168 0.01034 0.46051 0.0
H716 H 0.5164 0.02153 0.48874 0.0
H717 H 0.5467 0.97351 0.47919 0.0
H718 H 0.52207 0.96218 0.45093 0.0
H719 H 0.51208 0.92026 0.47078 0.0
H720 H 0.35246 0.84097 0.49106 0.0
H721 H 0.33042 0.83733 0.44991 0.0
H722 H 0.44971 0.94601 0.43302 0.0
C723 C 0.49819 0.95504 0.52511 0.0
C724 C 0.48359 0.93548 0.54725 0.0
C725 C 0.44315 0.90004 0.54891 0.0
C726 C 0.41771 0.88435 0.52911 0.0
C727 C 0.43292 0.90438 0.50762 0.0
C728 C 0.47219 0.93898 0.50546 0.0
C729 C 0.48061 0.95505 0.48035 0.0
C730 C 0.48785 -0.00035 0.47905 0.0
C731 C 0.51756 0.95259 0.46969 0.0
C732 C 0.43995 0.92417 0.46881 0.0
C733 C 0.41292 0.89511 0.48484 0.0
C734 C 0.37342 0.86356 0.47835 0.0
C735 C 0.36114 0.86172 0.45489 0.0
C736 C 0.38819 0.89131 0.43812 0.0
C737 C 0.42817 0.92285 0.44533 0.0
H738 H 0.28818 0.00251 0.05038 0.0
H739 H 0.34896 0.02289 0.98226 0.0
H740 H 0.2806 0.98703 0.96322 0.0
H741 H 0.20683 0.90128 0.03966 0.0
H742 H 0.16784 0.90725 0.05548 0.0
H743 H 0.22167 0.93793 0.06346 0.0
H744 H 0.21761 0.00527 0.0579 0.0
H745 H 0.1638 0.97476 0.04951 0.0
H746 H 0.20083 0.01505 0.03022 0.0
H747 H 0.2067 0.94441 0.95176 0.0
H748 H 0.13177 0.89349 0.94898 0.0
H749 H 0.11832 0.90158 0.02424 0.0
C750 C 0.28711 -0.00052 0.03146 0.0
C751 C 0.32395 0.01532 0.01785 0.0
C752 C 0.32119 0.01085 0.99312 0.0
C753 C 0.2825 0.99087 0.98208 0.0
C754 C 0.24684 0.97581 0.99598 0.0
C755 C 0.24871 0.97972 0.02012 0.0
C756 C 0.2056 0.95838 0.03105 0.0
C757 C 0.20018 0.92417 0.04843 0.0
C758 C 0.19642 0.99027 0.04287 0.0
C759 C 0.17936 0.94017 0.00936 0.0
C760 C 0.20377 0.95137 0.98927 0.0
C761 C 0.18711 0.93586 0.96729 0.0
C762 C 0.14455 0.90694 0.96589 0.0
C763 C 0.11927 0.89376 0.98638 0.0
C764 C 0.13672 0.91168 0.00824 0.0
H765 H 0.01766 0.34362 0.98451 0.0
H766 H 0.02373 0.33909 0.06048 0.0
H767 H 0.08301 0.32657 0.05669 0.0
H768 H 0.03721 0.26185 0.97294 0.0
H769 H 0.06809 0.28512 0.94686 0.0
H770 H 0.02859 0.29734 0.95545 0.0
H771 H 0.0834 0.37603 0.95555 0.0
H772 H 0.12309 0.36411 0.9468 0.0
H773 H 0.12974 0.3943 0.97287 0.0
H774 H 0.1379 0.3101 0.04469 0.0
H775 H 0.18634 0.292 0.02564 0.0
H776 H 0.14458 0.30681 0.95714 0.0
C777 C 0.0318 0.34065 1.00042 0.0
C778 C 0.01615 0.34251 0.02285 0.0
C779 C 0.03528 0.33797 0.04316 0.0
C780 C 0.06895 0.33086 0.04115 0.0
C781 C 0.08304 0.32848 0.01876 0.0
C782 C 0.06524 0.33344 0.99874 0.0
C783 C 0.08502 0.32757 0.97676 0.0
C784 C 0.0528 0.29078 0.96215 0.0
C785 C 0.1066 0.36791 0.96214 0.0
C786 C 0.1164 0.31789 0.98754 0.0
C787 C 0.11478 0.3188 0.01178 0.0
C788 C 0.13969 0.30961 0.02574 0.0
C789 C 0.16701 0.29918 0.01467 0.0
C790 C 0.1693 0.29794 0.98982 0.0
C791 C 0.14373 0.30768 0.97611 0.0
H792 H 0.59138 0.62287 0.05346 0.0
H793 H 0.69968 0.64461 0.09336 0.0
H794 H 0.73994 0.71444 0.07555 0.0
H795 H 0.65058 0.67385 1.00003 0.0
H796 H 0.61688 0.69403 0.99248 0.0
H797 H 0.59643 0.64576 0.00858 0.0
H798 H 0.56992 0.67544 0.04152 0.0
H799 H 0.58985 0.72345 0.02538 0.0
H800 H 0.60601 0.72405 0.05519 0.0
H801 H 0.76726 0.7827 0.05491 0.0
H802 H 0.77854 0.84609 0.03418 0.0
H803 H 0.6549 0.77719 1.00469 0.0
C804 C 0.62372 0.64191 0.05819 0.0
C805 C 0.64251 0.62775 0.07442 0.0
C806 C 0.68458 0.65452 0.0808 0.0
C807 C 0.70783 0.69417 0.07069 0.0
C808 C 0.68872 0.70639 0.05406 0.0
C809 C 0.6477 0.68103 0.04779 0.0
C810 C 0.63456 0.70159 0.02947 0.0
C811 C 0.62399 0.67736 1.00627 0.0
C812 C 0.59794 0.70643 0.03844 0.0
C813 C 0.67414 0.74321 0.02711 0.0
C814 C 0.70514 0.74515 0.0413 0.0
C815 C 0.74347 0.78143 0.04351 0.0
C816 C 0.74966 0.81715 0.03161 0.0
C817 C 0.71777 0.81614 0.01765 0.0
C818 C 0.68016 0.77837 0.01472 0.0
H819 H 0.81997 0.05659 0.00957 0.0
H820 H 0.74283 0.0292 0.94784 0.0
H821 H 0.75162 0.09993 0.9497 0.0
H822 H 0.77448 0.10419 0.04002 0.0
H823 H 0.82143 0.14242 0.05419 0.0
H824 H 0.8157 0.09304 0.04572 0.0
H825 H 0.88372 0.12989 0.02086 0.0
H826 H 0.8906 0.17938 0.0301 0.0
H827 H 0.89001 0.16823 0.99927 0.0
H828 H 0.76585 0.17304 0.9604 0.0
H829 H 0.78944 0.24327 0.97678 0.0
H830 H 0.84857 0.21605 0.03406 0.0
C831 C 0.80597 0.06568 0.99588 0.0
C832 C 0.78087 0.03727 0.97846 0.0
C833 C 0.76262 0.05054 0.9612 0.0
C834 C 0.76704 0.09048 0.96229 0.0
C835 C 0.78943 0.11642 0.98084 0.0
C836 C 0.80895 0.10458 0.99714 0.0
C837 C 0.82856 0.13637 0.01643 0.0
C838 C 0.80884 0.11788 0.0405 0.0
C839 C 0.87603 0.15455 0.01666 0.0
C840 C 0.81718 0.16818 0.00848 0.0
C841 C 0.79488 0.15647 0.98785 0.0
C842 C 0.78304 0.18233 0.97663 0.0
C843 C 0.79613 0.22191 0.98618 0.0
C844 C 0.82012 0.23475 1.00692 0.0
C845 C 0.82926 0.20677 0.01858 0.0
H846 H 0.71641 0.6681 0.02127 0.0
H847 H 0.69449 0.55473 0.98719 0.0
H848 H 0.75467 0.5959 0.96052 0.0
H849 H 0.76074 0.74023 0.96785 0.0
H850 H 0.79704 0.78154 0.98651 0.0
H851 H 0.74643 0.7435 0.99767 0.0
H852 H 0.78325 0.72762 0.03195 0.0
H853 H 0.83296 0.7652 0.02002 0.0
H854 H 0.8211 0.71225 0.02481 0.0
H855 H 0.82132 0.64783 0.94129 0.0
H856 H 0.89487 0.7018 0.93665 0.0
H857 H 0.87597 0.78125 0.98508 0.0
C858 C 0.72389 0.65232 1.00777 0.0
C859 C 0.70114 0.60867 1.00594 0.0
C860 C 0.71182 0.58837 0.9886 0.0
C861 C 0.74551 0.61154 0.97327 0.0
C862 C 0.7679 0.65483 0.97562 0.0
C863 C 0.7577 0.67497 0.99263 0.0
C864 C 0.79036 0.72059 0.9942 0.0
C865 C 0.77261 0.74812 0.98608 0.0
C866 C 0.80797 0.73205 0.01921 0.0
C867 C 0.82225 0.72232 0.97675 0.0
C868 C 0.80772 0.68466 0.96533 0.0
C869 C 0.83282 0.67762 0.94984 0.0
C870 C 0.87463 0.7087 0.94718 0.0
C871 C 0.89117 0.74572 0.96057 0.0
C872 C 0.864 0.75347 0.97443 0.0
H873 H 0.2481 0.14907 0.98029 0.0
H874 H 0.32082 0.22564 0.92126 0.0
H875 H 0.383 0.22632 0.93676 0.0
H876 H 0.31874 0.2025 0.02162 0.0
H877 H 0.31018 0.15897 0.03972 0.0
H878 H 0.26885 0.15525 0.02173 0.0
H879 H 0.26123 0.08954 1.0009 0.0
H880 H 0.30094 0.09163 0.01975 0.0
H881 H 0.30665 0.09082 0.98837 0.0
H882 H 0.43971 0.2273 0.96207 0.0
H883 H 0.48272 0.21656 0.99121 0.0
H884 H 0.37273 0.14573 0.03487 0.0
C885 C 0.27653 0.16438 0.96995 0.0
C886 C 0.27945 0.1877 0.94966 0.0
C887 C 0.31757 0.20749 0.93684 0.0
C888 C 0.3533 0.20851 0.94568 0.0
C889 C 0.35023 0.18904 0.96711 0.0
C890 C 0.31249 0.16624 0.97869 0.0
C891 C 0.31781 0.15082 1.00227 0.0
C892 C 0.30302 0.16793 0.02251 0.0
C893 C 0.29535 0.10288 1.00285 0.0
C894 C 0.36454 0.16959 1.00246 0.0
C895 C 0.38279 0.19117 0.98199 0.0
C896 C 0.42566 0.2102 0.97811 0.0
C897 C 0.44998 0.20457 0.99493 0.0
C898 C 0.43136 0.18061 0.01548 0.0
C899 C 0.38838 0.16483 0.01964 0.0
H900 H 0.979 0.25114 0.4115 0.0
H901 H 0.95487 0.34621 0.43933 0.0
H902 H 0.89534 0.32263 0.41239 0.0
H903 H 0.96734 0.27415 0.35216 0.0
H904 H 0.94679 0.22115 0.34261 0.0
H905 H 0.98218 0.24055 0.36691 0.0
H906 H 0.9277 0.18008 0.39322 0.0
H907 H 0.89264 0.16064 0.3688 0.0
H908 H 0.87589 0.17249 0.39606 0.0
H909 H 0.83754 0.28676 0.3821 0.0
H910 H 0.79054 0.24605 0.3498 0.0
H911 H 0.86463 0.18737 0.33675 0.0
C912 C 0.96166 0.26749 0.41186 0.0
C913 C 0.97251 0.30136 0.42708 0.0
C914 C 0.94748 0.32039 0.42767 0.0
C915 C 0.91374 0.30737 0.41235 0.0
C916 C 0.90625 0.27609 0.39624 0.0
C917 C 0.92995 0.25687 0.39575 0.0
C918 C 0.9189 0.22742 0.37528 0.0
C919 C 0.95602 0.24169 0.35825 0.0
C920 C 0.90281 0.18251 0.38386 0.0
C921 C 0.88472 0.23249 0.36442 0.0
C922 C 0.87712 0.25994 0.37704 0.0
C923 C 0.84409 0.26627 0.37166 0.0
C924 C 0.8179 0.24348 0.35315 0.0
C925 C 0.82518 0.21506 0.34021 0.0
C926 C 0.85974 0.21055 0.34551 0.0
H927 H 0.75908 0.54174 0.35689 0.0
H928 H 0.79023 0.58701 0.28508 0.0
H929 H 0.75547 0.62818 0.29075 0.0
H930 H 0.65601 0.53533 0.35796 0.0
H931 H 0.66133 0.55143 0.38818 0.0
H932 H 0.686 0.52303 0.37781 0.0
H933 H 0.75678 0.58233 0.39282 0.0
H934 H 0.7325 0.61144 0.40259 0.0
H935 H 0.77598 0.63481 0.3824 0.0
H936 H 0.72323 0.66879 0.30476 0.0
H937 H 0.68445 0.69826 0.32444 0.0
H938 H 0.67268 0.62652 0.38717 0.0
C939 C 0.7577 0.55948 0.34218 0.0
C940 C 0.77758 0.56126 0.32056 0.0
C941 C 0.77535 0.58519 0.30182 0.0
C942 C 0.75587 0.6089 0.30489 0.0
C943 C 0.73842 0.60806 0.32672 0.0
C944 C 0.73817 0.58329 0.3449 0.0
C945 C 0.71717 0.58837 0.3666 0.0
C946 C 0.67779 0.54709 0.37301 0.0
C947 C 0.74743 0.60524 0.38732 0.0
C948 C 0.70638 0.62042 0.35784 0.0
C949 C 0.71919 0.6314 0.33482 0.0
C950 C 0.71274 0.66025 0.32273 0.0
C951 C 0.69094 0.67702 0.33413 0.0
C952 C 0.67574 0.66482 0.35735 0.0
C953 C 0.68456 0.63697 0.36957 0.0
H954 H 0.32812 0.14189 0.3066 0.0
H955 H 0.34029 0.18244 0.37908 0.0
H956 H 0.33218 0.11529 0.39218 0.0
H957 H 0.25083 0.03398 0.31717 0.0
H958 H 0.27271 0.01479 0.29549 0.0
H959 H 0.27811 0.06557 0.29197 0.0
H960 H 0.35824 0.09855 0.28886 0.0
H961 H 0.35315 0.04793 0.29239 0.0
H962 H 0.38578 0.08958 0.31198 0.0
H963 H 0.3253 0.04459 0.39724 0.0
H964 H 0.31948 0.97532 0.39369 0.0
H965 H 0.31127 0.9819 0.31796 0.0
C966 C 0.32878 0.1366 0.32524 0.0
C967 C 0.33478 0.16735 0.34181 0.0
C968 C 0.3357 0.15927 0.36605 0.0
C969 C 0.33109 0.12124 0.37369 0.0
C970 C 0.32549 0.09169 0.35686 0.0
C971 C 0.32421 0.09891 0.33316 0.0
C972 C 0.31876 0.06248 0.31861 0.0
C973 C 0.27765 0.04306 0.30502 0.0
C974 C 0.35622 0.07542 0.30199 0.0
C975 C 0.31745 0.03375 0.33783 0.0
C976 C 0.32132 0.05104 0.35978 0.0
C977 C 0.32198 0.03056 0.38015 0.0
C978 C 0.31869 0.9913 0.37798 0.0
C979 C 0.31475 0.97314 0.35559 0.0
C980 C 0.31394 -0.00526 0.33537 0.0
H981 H 0.4573 0.55762 0.32997 0.0
H982 H 0.56754 0.5751 0.36622 0.0
H983 H 0.56308 0.51485 0.34596 0.0
H984 H 0.40314 0.44733 0.33618 0.0
H985 H 0.37747 0.43768 0.30827 0.0
H986 H 0.39289 0.48574 0.32335 0.0
H987 H 0.43439 0.52606 0.28615 0.0
H988 H 0.42026 0.47777 0.2714 0.0
H989 H 0.47432 0.51678 0.27441 0.0
H990 H 0.54586 0.45159 0.32456 0.0
H991 H 0.50636 0.37882 0.31128 0.0
H992 H 0.4061 0.39853 0.28899 0.0
C993 C 0.48029 0.54852 0.33361 0.0
C994 C 0.51259 0.57102 0.34972 0.0
C995 C 0.54204 0.55809 0.35421 0.0
C996 C 0.54037 0.52433 0.34242 0.0
C997 C 0.50879 0.5033 0.32631 0.0
C998 C 0.47849 0.51393 0.32237 0.0
C999 C 0.44464 0.48217 0.30674 0.0
C1000 C 0.40205 0.46202 0.31939 0.0
C1001 C 0.44335 0.50189 0.28328 0.0
C1002 C 0.46007 0.45146 0.30331 0.0
C1003 C 0.498 0.46524 0.31405 0.0
C1004 C 0.51652 0.4406 0.31569 0.0
C1005 C 0.49415 0.39946 0.30787 0.0
C1006 C 0.45371 0.38355 0.29879 0.0
C1007 C 0.43768 0.41056 0.29502 0.0
H1008 H 0.609 0.04472 0.33792 0.0
H1009 H 0.62658 0.02653 0.26443 0.0
H1010 H 0.55418 0.96648 0.26338 0.0
H1011 H 0.55739 0.93838 0.35272 0.0
H1012 H 0.52397 0.94267 0.37433 0.0
H1013 H 0.57472 0.98661 0.36823 0.0
H1014 H 0.54197 0.03261 0.35848 0.0
H1015 H 0.49148 0.98918 0.36544 0.0
H1016 H 0.50082 0.0145 0.33725 0.0
H1017 H 0.47943 0.90695 0.27181 0.0
H1018 H 0.40854 0.85963 0.28732 0.0
H1019 H 0.44743 0.91404 0.35637 0.0
C1020 C 0.59749 0.02877 0.32137 0.0
C1021 C 0.62316 0.04031 0.30119 0.0
C1022 C 0.60703 0.01856 0.27996 0.0
C1023 C 0.56631 0.98407 0.27937 0.0
C1024 C 0.54294 0.97189 0.30021 0.0
C1025 C 0.55808 -0.00598 0.32072 0.0
C1026 C 0.52839 0.97439 0.3411 0.0
C1027 C 0.54727 0.95965 0.36021 0.0
C1028 C 0.51485 0.00444 0.35114 0.0
C1029 C 0.49325 0.93798 0.32887 0.0
C1030 C 0.502 0.93676 0.30532 0.0
C1031 C 0.47252 0.90745 0.29026 0.0
C1032 C 0.43248 0.88047 0.29927 0.0
C1033 C 0.4226 0.88301 0.3231 0.0
C1034 C 0.45412 0.91067 0.33823 0.0
H1035 H 0.86394 0.39645 0.31773 0.0
H1036 H 0.95895 0.50569 0.28115 0.0
H1037 H 0.01171 0.48762 0.29265 0.0
H1038 H 0.91301 0.40387 0.3636 0.0
H1039 H 0.90117 0.35168 0.36992 0.0
H1040 H 0.86536 0.36028 0.35309 0.0
H1041 H 0.86666 0.3183 0.31843 0.0
H1042 H 0.90176 0.30524 0.33299 0.0
H1043 H 0.91522 0.32978 0.30468 0.0
H1044 H 0.05571 0.47133 0.3191 0.0
H1045 H 0.08518 0.44681 0.35019 0.0
H1046 H 0.96209 0.34374 0.36548 0.0
C1047 C 0.89531 0.41499 0.31086 0.0
C1048 C 0.90725 0.45239 0.29862 0.0
C1049 C 0.94886 0.47656 0.29035 0.0
C1050 C 0.97928 0.46673 0.29695 0.0
C1051 C 0.96721 0.43162 0.31089 0.0
C1052 C 0.92583 0.40488 0.3167 0.0
C1053 C 0.92151 0.37153 0.33362 0.0
C1054 C 0.89887 0.37182 0.35636 0.0
C1055 C 0.89992 0.32866 0.32175 0.0
C1056 C 0.96677 0.38581 0.33806 0.0
C1057 C -0.00713 0.42049 0.32477 0.0
C1058 C 0.03572 0.44305 0.32881 0.0
C1059 C 0.05215 0.42932 0.34661 0.0
C1060 C 0.02575 0.39316 0.35975 0.0
C1061 C 0.98283 0.37091 0.35515 0.0
H1062 H 0.47642 0.56516 0.69199 0.0
H1063 H 0.49135 0.54465 0.61835 0.0
H1064 H 0.56494 0.60038 0.61976 0.0
H1065 H 0.54206 0.6768 0.69109 0.0
H1066 H 0.56311 0.67882 0.71977 0.0
H1067 H 0.51146 0.63775 0.71281 0.0
H1068 H 0.53199 0.58277 0.72435 0.0
H1069 H 0.5838 0.62367 0.73119 0.0
H1070 H 0.57637 0.58398 0.71034 0.0
H1071 H 0.63651 0.65784 0.62915 0.0
H1072 H 0.70144 0.7144 0.64566 0.0
H1073 H 0.64009 0.6966 0.71341 0.0
C1074 C 0.49504 0.57254 0.6761 0.0
C1075 C 0.47815 0.55061 0.65505 0.0
C1076 C 0.50366 0.56103 0.63469 0.0
C1077 C 0.54547 0.59258 0.63531 0.0
C1078 C 0.56122 0.61324 0.65643 0.0
C1079 C 0.53683 0.60374 0.67644 0.0
C1080 C 0.56147 0.63046 0.69693 0.0
C1081 C 0.54345 0.65757 0.70565 0.0
C1082 C 0.56353 0.6036 0.71687 0.0
C1083 C 0.60354 0.65658 0.68528 0.0
C1084 C 0.60269 0.64612 0.66192 0.0
C1085 C 0.63761 0.66631 0.64742 0.0
C1086 C 0.67432 0.69839 0.65698 0.0
C1087 C 0.67583 0.70987 0.68083 0.0
C1088 C 0.63999 0.68835 0.69516 0.0
H1089 H 0.49948 0.05279 0.67741 0.0
H1090 H 0.4739 0.00523 0.60615 0.0
H1091 H 0.40107 0.98931 0.61089 0.0
H1092 H 0.40399 0.97605 0.70232 0.0
H1093 H 0.39931 0.01123 0.72231 0.0
H1094 H 0.45002 0.02133 0.71293 0.0
H1095 H 0.46805 0.09458 0.69798 0.0
H1096 H 0.41763 0.08498 0.70763 0.0
H1097 H 0.43385 0.09945 0.67755 0.0
H1098 H 0.33094 0.97696 0.62385 0.0
H1099 H 0.26885 0.97153 0.64331 0.0
H1100 H 0.34009 0.02522 0.70662 0.0
C1101 C 0.47888 0.03956 0.66261 0.0
C1102 C 0.49256 0.03043 0.64133 0.0
C1103 C 0.46426 0.0127 0.62256 0.0
C1104 C 0.4228 0.00341 0.62513 0.0
C1105 C 0.41025 0.01193 0.64656 0.0
C1106 C 0.4375 0.02981 0.66492 0.0
C1107 C 0.41606 0.03498 0.68634 0.0
C1108 C 0.41743 0.00936 0.7072 0.0
C1109 C 0.43502 0.08124 0.69274 0.0
C1110 C 0.3723 0.01716 0.67718 0.0
C1111 C 0.36968 0.0041 0.6542 0.0
C1112 C 0.33264 0.98711 0.64182 0.0
C1113 C 0.29756 0.98414 0.65307 0.0
C1114 C 0.29965 -0.00209 0.67651 0.0
C1115 C 0.33743 0.01405 0.6888 0.0
H1116 H 0.8891 0.27841 0.73794 0.0
H1117 H 0.01901 0.31185 0.73645 0.0
H1118 H 0.03776 0.38039 0.71931 0.0
H1119 H 0.88749 0.31986 0.68494 0.0
H1120 H 0.85328 0.33925 0.69327 0.0
H1121 H 0.85038 0.29538 0.70855 0.0
H1122 H 0.86297 0.33339 0.74841 0.0
H1123 H 0.86422 0.37682 0.73344 0.0
H1124 H 0.90722 0.38497 0.75159 0.0
H1125 H 0.03995 0.44005 0.6961 0.0
H1126 H 0.02765 0.4931 0.677 0.0
H1127 H 0.8968 0.42092 0.69579 0.0
C1128 C 0.92167 0.30095 0.73497 0.0
C1129 C 0.9526 0.29016 0.73858 0.0
C1130 C -0.00509 0.31989 0.73411 0.0
C1131 C 0.00577 0.35866 0.72412 0.0
C1132 C 0.97401 0.36726 0.7193 0.0
C1133 C 0.933 0.33978 0.72534 0.0
C1134 C 0.90445 0.35558 0.71771 0.0
C1135 C 0.872 0.32574 0.70007 0.0
C1136 C 0.8835 0.36316 0.73906 0.0
C1137 C 0.93563 0.39594 0.70605 0.0
C1138 C 0.97552 0.40198 0.70679 0.0
C1139 C 0.00899 0.4361 0.69587 0.0
C1140 C 0.00167 0.4657 0.68482 0.0
C1141 C 0.96137 0.46096 0.68512 0.0
C1142 C 0.92798 0.42534 0.69552 0.0
H1143 H 0.09807 0.87449 0.66601 0.0
H1144 H 0.10512 0.88331 0.74192 0.0
H1145 H 0.08033 0.80792 0.7446 0.0
H1146 H 0.00638 0.76783 0.66302 0.0
H1147 H 0.02738 0.75492 0.63781 0.0
H1148 H 0.03935 0.80787 0.64237 0.0
H1149 H 0.11801 0.83181 0.6403 0.0
H1150 H 0.10651 0.77888 0.63654 0.0
H1151 H 0.13911 0.80961 0.66034 0.0
H1152 H 0.05979 0.73275 0.73873 0.0
H1153 H 0.03766 0.66145 0.72479 0.0
H1154 H 0.05014 0.70396 0.65276 0.0
C1155 C 0.09268 0.86025 0.68323 0.0
C1156 C 0.10284 0.88454 0.70378 0.0
C1157 C 0.09684 0.86503 0.72598 0.0
C1158 C 0.08319 0.82236 0.72766 0.0
C1159 C 0.07598 0.79984 0.70697 0.0
C1160 C 0.07987 0.81794 0.68519 0.0
C1161 C 0.07261 0.78752 0.66561 0.0
C1162 C 0.03414 0.77902 0.65135 0.0
C1163 C 0.11138 0.8029 0.64978 0.0
C1164 C 0.06476 0.7497 0.67974 0.0
C1165 C 0.06653 0.75731 0.70357 0.0
C1166 C 0.05854 0.72647 0.72012 0.0
C1167 C 0.04654 0.68629 0.71208 0.0
C1168 C 0.04341 0.67766 0.68775 0.0
C1169 C 0.05385 0.7101 0.67144 0.0
H1170 H 0.06902 0.2688 0.66638 0.0
H1171 H 0.03058 0.36167 0.66975 0.0
H1172 H 0.09751 0.41354 0.6516 0.0
H1173 H 0.17147 0.33225 0.68136 0.0
H1174 H 0.19241 0.3091 0.66164 0.0
H1175 H 0.13984 0.27883 0.67231 0.0
H1176 H 0.11354 0.26294 0.62945 0.0
H1177 H 0.16625 0.29367 0.61869 0.0
H1178 H 0.12688 0.30537 0.6093 0.0
H1179 H 0.17326 0.45782 0.64039 0.0
H1180 H 0.24953 0.4891 0.63468 0.0
H1181 H 0.2354 0.36596 0.63379 0.0
C1182 C 0.07443 0.29985 0.66284 0.0
C1183 C 0.04479 0.31132 0.66941 0.0
C1184 C 0.05284 0.35221 0.66463 0.0
C1185 C 0.09072 0.38184 0.65432 0.0
C1186 C 0.11963 0.3697 0.6483 0.0
C1187 C 0.11155 0.32942 0.65202 0.0
C1188 C 0.14855 0.32478 0.64525 0.0
C1189 C 0.16397 0.31043 0.6664 0.0
C1190 C 0.13817 0.29492 0.62443 0.0
C1191 C 0.17943 0.36916 0.63816 0.0
C1192 C 0.16225 0.39472 0.64 0.0
C1193 C 0.18667 0.43798 0.63792 0.0
C1194 C 0.22983 0.45553 0.63456 0.0
C1195 C 0.24766 0.4297 0.63271 0.0
C1196 C 0.22196 0.38608 0.63381 0.0
H1197 H 0.77642 0.91946 0.661 0.0
H1198 H 0.73507 0.89649 0.73371 0.0
H1199 H 0.68592 0.92165 0.72549 0.0
H1200 H 0.75944 0.00946 0.64932 0.0
H1201 H 0.74117 0.99029 0.62019 0.0
H1202 H 0.78 0.98147 0.63351 0.0
H1203 H 0.73259 0.90233 0.62618 0.0
H1204 H 0.69293 0.91071 0.61382 0.0
H1205 H 0.68063 0.87578 0.63841 0.0
H1206 H 0.63523 0.94115 0.70781 0.0
H1207 H 0.5894 0.9553 0.68256 0.0
H1208 H 0.65899 0.95558 0.62109 0.0
C1209 C 0.75844 0.92136 0.67553 0.0
C1210 C 0.75985 0.90628 0.69806 0.0
C1211 C 0.7349 0.90837 0.71637 0.0
C1212 C 0.70671 0.92238 0.71182 0.0
C1213 C 0.70388 0.9339 0.6889 0.0
C1214 C 0.72945 0.9339 0.67112 0.0
C1215 C 0.71688 0.94209 0.64743 0.0
C1216 C 0.75143 0.98331 0.637 0.0
C1217 C 0.70506 0.90554 0.63049 0.0
C1218 C 0.67929 0.9453 0.65445 0.0
C1219 C 0.67278 0.94152 0.67848 0.0
C1220 C 0.64002 0.94402 0.68899 0.0
C1221 C 0.6139 0.95147 0.67457 0.0
C1222 C 0.61998 0.95484 0.64996 0.0
C1223 C 0.65284 0.95144 0.63981 0.0
loop_
_geom_bond_atom_site_label_1
_geom_bond_atom_site_label_2
_geom_bond_distance
_geom_bond_site_symmetry_2
_ccdc_geom_bond_type
Zn0 O3 2.031 . S
Zn0 O5 2.049 1_554 S
Zn0 O10 2.067 . S
Zn1 O2 1.962 . S
Zn1 O4 1.986 . S
Zn1 O6 1.996 . S
Zn1 O9 1.943 . S
O2 Zn1 1.962 . S
O2 C7 1.254 . S
O3 Zn0 2.031 . S
O3 C7 1.269 . S
O4 Zn1 1.986 . S
O4 C11 1.262 . S
O5 Zn0 2.049 1_556 S
O5 C13 1.260 1_556 S
O6 Zn1 1.996 . S
O6 C13 1.257 . S
C7 O2 1.254 . S
C7 O3 1.269 . S
C8 O9 1.249 1_565 S
C8 O10 1.270 1_565 S
O9 Zn1 1.943 . S
O9 C8 1.249 1_545 S
O10 Zn0 2.067 . S
O10 C8 1.270 1_545 S
C11 O4 1.262 . S
C11 O12 1.232 . S
O12 C11 1.232 . S
C13 O5 1.260 1_554 S
C13 O6 1.257 . S
Zn14 O17 2.031 . S
Zn14 O19 2.049 1_554 S
Zn14 O24 2.067 . S
Zn15 O16 1.962 . S
Zn15 O18 1.986 . S
Zn15 O20 1.996 . S
Zn15 O23 1.943 . S
O16 Zn15 1.962 . S
O16 C21 1.254 . S
O17 Zn14 2.031 . S
O17 C21 1.269 . S
O18 Zn15 1.986 . S
O18 C25 1.262 . S
O19 Zn14 2.049 1_556 S
O19 C27 1.260 1_556 S
O20 Zn15 1.996 . S
O20 C27 1.257 . S
C21 O16 1.254 . S
C21 O17 1.269 . S
C22 O23 1.249 1_455 S
C22 O24 1.270 1_455 S
O23 Zn15 1.943 . S
O23 C22 1.249 1_655 S
O24 Zn14 2.067 . S
O24 C22 1.270 1_655 S
C25 O18 1.262 . S
C25 O26 1.232 . S
O26 C25 1.232 . S
C27 O19 1.260 1_554 S
C27 O20 1.257 . S
Zn28 O31 2.031 . S
Zn28 O33 2.049 1_554 S
Zn28 O38 2.067 . S
Zn29 O30 1.962 . S
Zn29 O32 1.986 . S
Zn29 O34 1.996 . S
Zn29 O37 1.943 . S
O30 Zn29 1.962 . S
O30 C35 1.254 . S
O31 Zn28 2.031 . S
O31 C35 1.269 . S
O32 Zn29 1.986 . S
O32 C39 1.262 . S
O33 Zn28 2.049 1_556 S
O33 C41 1.260 1_556 S
O34 Zn29 1.996 . S
O34 C41 1.257 . S
C35 O30 1.254 . S
C35 O31 1.269 . S
C36 O37 1.249 . S
C36 O38 1.270 . S
O37 Zn29 1.943 . S
O37 C36 1.249 . S
O38 Zn28 2.067 . S
O38 C36 1.270 . S
C39 O32 1.262 . S
C39 O40 1.232 . S
O40 C39 1.232 . S
C41 O33 1.260 1_554 S
C41 O34 1.257 . S
Zn42 O45 2.031 . S
Zn42 O47 2.049 1_556 S
Zn42 O52 2.067 . S
Zn43 O44 1.962 . S
Zn43 O46 1.986 . S
Zn43 O48 1.996 . S
Zn43 O51 1.943 . S
O44 Zn43 1.962 . S
O44 C49 1.254 . S
O45 Zn42 2.031 . S
O45 C49 1.269 . S
O46 Zn43 1.986 . S
O46 C53 1.262 . S
O47 Zn42 2.049 1_554 S
O47 C55 1.260 1_554 S
O48 Zn43 1.996 . S
O48 C55 1.257 . S
C49 O44 1.254 . S
C49 O45 1.269 . S
C50 O51 1.249 1_545 S
C50 O52 1.270 1_545 S
O51 Zn43 1.943 . S
O51 C50 1.249 1_565 S
O52 Zn42 2.067 . S
O52 C50 1.270 1_565 S
C53 O46 1.262 . S
C53 O54 1.232 . S
O54 C53 1.232 . S
C55 O47 1.260 1_556 S
C55 O48 1.257 . S
Zn56 O59 2.031 . S
Zn56 O61 2.049 1_556 S
Zn56 O66 2.067 . S
Zn57 O58 1.962 . S
Zn57 O60 1.986 . S
Zn57 O62 1.996 . S
Zn57 O65 1.943 . S
O58 Zn57 1.962 . S
O58 C63 1.254 . S
O59 Zn56 2.031 . S
O59 C63 1.269 . S
O60 Zn57 1.986 . S
O60 C67 1.262 . S
O61 Zn56 2.049 1_554 S
O61 C69 1.260 1_554 S
O62 Zn57 1.996 . S
O62 C69 1.257 . S
C63 O58 1.254 . S
C63 O59 1.269 . S
C64 O65 1.249 1_655 S
C64 O66 1.270 1_655 S
O65 Zn57 1.943 . S
O65 C64 1.249 1_455 S
O66 Zn56 2.067 . S
O66 C64 1.270 1_455 S
C67 O60 1.262 . S
C67 O68 1.232 . S
O68 C67 1.232 . S
C69 O61 1.260 1_556 S
C69 O62 1.257 . S
Zn70 O73 2.031 . S
Zn70 O75 2.049 1_556 S
Zn70 O80 2.067 . S
Zn71 O72 1.962 . S
Zn71 O74 1.986 . S
Zn71 O76 1.996 . S
Zn71 O79 1.943 . S
O72 Zn71 1.962 . S
O72 C77 1.254 . S
O73 Zn70 2.031 . S
O73 C77 1.269 . S
O74 Zn71 1.986 . S
O74 C81 1.262 . S
O75 Zn70 2.049 1_554 S
O75 C83 1.260 1_554 S
O76 Zn71 1.996 . S
O76 C83 1.257 . S
C77 O72 1.254 . S
C77 O73 1.269 . S
C78 O79 1.249 . S
C78 O80 1.270 . S
O79 Zn71 1.943 . S
O79 C78 1.249 . S
O80 Zn70 2.067 . S
O80 C78 1.270 . S
C81 O74 1.262 . S
C81 O82 1.232 . S
O82 C81 1.232 . S
C83 O75 1.260 1_556 S
C83 O76 1.257 . S
Zn84 O87 2.031 . S
Zn84 O89 2.049 1_455 S
Zn84 O94 2.067 1_455 S
Zn85 O86 1.962 . S
Zn85 O88 1.986 . S
Zn85 O90 1.996 . S
Zn85 O93 1.943 1_455 S
O86 Zn85 1.962 . S
O86 C91 1.254 . S
O87 Zn84 2.031 . S
O87 C91 1.269 . S
O88 Zn85 1.986 . S
O88 C95 1.262 . S
O89 Zn84 2.049 1_655 S
O89 C97 1.260 1_655 S
O90 Zn85 1.996 . S
O90 C97 1.257 . S
C91 O86 1.254 . S
C91 O87 1.269 . S
C92 O93 1.249 . S
C92 O94 1.270 . S
O93 Zn85 1.943 1_655 S
O93 C92 1.249 . S
O94 Zn84 2.067 1_655 S
O94 C92 1.270 . S
C95 O88 1.262 . S
C95 O96 1.232 . S
O96 C95 1.232 . S
C97 O89 1.260 1_455 S
C97 O90 1.257 . S
Zn98 O101 2.031 . S
Zn98 O103 2.049 . S
Zn98 O108 2.067 . S
Zn99 O100 1.962 . S
Zn99 O102 1.986 . S
Zn99 O104 1.996 . S
Zn99 O107 1.943 . S
O100 Zn99 1.962 . S
O100 C105 1.254 . S
O101 Zn98 2.031 . S
O101 C105 1.269 . S
O102 Zn99 1.986 . S
O102 C109 1.262 . S
O103 Zn98 2.049 . S
O103 C111 1.260 . S
O104 Zn99 1.996 . S
O104 C111 1.257 . S
C105 O100 1.254 . S
C105 O101 1.269 . S
C106 O107 1.249 . S
C106 O108 1.270 . S
O107 Zn99 1.943 . S
O107 C106 1.249 . S
O108 Zn98 2.067 . S
O108 C106 1.270 . S
C109 O102 1.262 . S
C109 O110 1.232 . S
O110 C109 1.232 . S
C111 O103 1.260 . S
C111 O104 1.257 . S
Zn112 O115 2.031 . S
Zn112 O117 2.049 1_565 S
Zn112 O122 2.067 1_565 S
Zn113 O114 1.962 . S
Zn113 O116 1.986 . S
Zn113 O118 1.996 . S
Zn113 O121 1.943 1_565 S
O114 Zn113 1.962 . S
O114 C119 1.254 . S
O115 Zn112 2.031 . S
O115 C119 1.269 . S
O116 Zn113 1.986 . S
O116 C123 1.262 . S
O117 Zn112 2.049 1_545 S
O117 C125 1.260 1_545 S
O118 Zn113 1.996 . S
O118 C125 1.257 . S
C119 O114 1.254 . S
C119 O115 1.269 . S
C120 O121 1.249 . S
C120 O122 1.270 . S
O121 Zn113 1.943 1_545 S
O121 C120 1.249 . S
O122 Zn112 2.067 1_545 S
O122 C120 1.270 . S
C123 O116 1.262 . S
C123 O124 1.232 . S
O124 C123 1.232 . S
C125 O117 1.260 1_565 S
C125 O118 1.257 . S
Zn126 O129 2.031 . S
Zn126 O131 2.049 . S
Zn126 O136 2.067 . S
Zn127 O128 1.962 . S
Zn127 O130 1.986 . S
Zn127 O132 1.996 . S
Zn127 O135 1.943 . S
O128 Zn127 1.962 . S
O128 C133 1.254 . S
O129 Zn126 2.031 . S
O129 C133 1.269 . S
O130 Zn127 1.986 . S
O130 C137 1.262 . S
O131 Zn126 2.049 . S
O131 C139 1.260 . S
O132 Zn127 1.996 . S
O132 C139 1.257 . S
C133 O128 1.254 . S
C133 O129 1.269 . S
C134 O135 1.249 . S
C134 O136 1.270 . S
O135 Zn127 1.943 . S
O135 C134 1.249 . S
O136 Zn126 2.067 . S
O136 C134 1.270 . S
C137 O130 1.262 . S
C137 O138 1.232 . S
O138 C137 1.232 . S
C139 O131 1.260 . S
C139 O132 1.257 . S
Zn140 O143 2.031 1_545 S
Zn140 O145 2.049 . S
Zn140 O150 2.067 . S
Zn141 O142 1.960 . S
Zn141 O144 1.986 . S
Zn141 O146 1.996 . S
Zn141 O149 1.943 . S
O142 Zn141 1.960 . S
O142 C147 1.254 1_545 S
O143 Zn140 2.031 1_565 S
O143 C147 1.269 . S
O144 Zn141 1.986 . S
O144 C151 1.262 . S
O145 Zn140 2.049 . S
O145 C153 1.260 . S
O146 Zn141 1.996 . S
O146 C153 1.257 . S
C147 O142 1.254 1_565 S
C147 O143 1.269 . S
C148 O149 1.249 . S
C148 O150 1.270 . S
O149 Zn141 1.943 . S
O149 C148 1.249 . S
O150 Zn140 2.067 . S
O150 C148 1.270 . S
C151 O144 1.262 . S
C151 O152 1.232 . S
O152 C151 1.232 . S
C153 O145 1.260 . S
C153 O146 1.257 . S
Zn154 O157 2.031 1_655 S
Zn154 O159 2.049 . S
Zn154 O164 2.067 . S
Zn155 O156 1.961 . S
Zn155 O158 1.986 . S
Zn155 O160 1.996 . S
Zn155 O163 1.943 . S
O156 Zn155 1.961 . S
O156 C161 1.255 1_655 S
O157 Zn154 2.031 1_455 S
O157 C161 1.269 . S
O158 Zn155 1.986 . S
O158 C165 1.262 . S
O159 Zn154 2.049 . S
O159 C167 1.260 . S
O160 Zn155 1.996 . S
O160 C167 1.257 . S
C161 O156 1.255 1_455 S
C161 O157 1.269 . S
C162 O163 1.249 . S
C162 O164 1.270 . S
O163 Zn155 1.943 . S
O163 C162 1.249 . S
O164 Zn154 2.067 . S
O164 C162 1.270 . S
C165 O158 1.262 . S
C165 O166 1.232 . S
O166 C165 1.232 . S
C167 O159 1.260 . S
C167 O160 1.257 . S
Zn168 O171 2.031 . S
Zn168 O173 2.049 . S
Zn168 O178 2.067 . S
Zn169 O170 1.962 . S
Zn169 O172 1.986 . S
Zn169 O174 1.996 . S
Zn169 O177 1.943 . S
O170 Zn169 1.962 . S
O170 C175 1.254 . S
O171 Zn168 2.031 . S
O171 C175 1.269 . S
O172 Zn169 1.986 . S
O172 C179 1.262 . S
O173 Zn168 2.049 . S
O173 C181 1.260 . S
O174 Zn169 1.996 . S
O174 C181 1.257 . S
C175 O170 1.254 . S
C175 O171 1.269 . S
C176 O177 1.249 . S
C176 O178 1.270 . S
O177 Zn169 1.943 . S
O177 C176 1.249 . S
O178 Zn168 2.067 . S
O178 C176 1.270 . S
C179 O172 1.262 . S
C179 O180 1.232 . S
O180 C179 1.232 . S
C181 O173 1.260 . S
C181 O174 1.257 . S
Zn182 O185 2.031 1_565 S
Zn182 O187 2.049 . S
Zn182 O192 2.067 . S
Zn183 O184 1.960 . S
Zn183 O186 1.986 . S
Zn183 O188 1.996 . S
Zn183 O191 1.943 . S
O184 Zn183 1.960 . S
O184 C189 1.254 1_565 S
O185 Zn182 2.031 1_545 S
O185 C189 1.269 . S
O186 Zn183 1.986 . S
O186 C193 1.262 . S
O187 Zn182 2.049 . S
O187 C195 1.260 . S
O188 Zn183 1.996 . S
O188 C195 1.257 . S
C189 O184 1.254 1_545 S
C189 O185 1.269 . S
C190 O191 1.249 . S
C190 O192 1.270 . S
O191 Zn183 1.943 . S
O191 C190 1.249 . S
O192 Zn182 2.067 . S
O192 C190 1.270 . S
C193 O186 1.262 . S
C193 O194 1.232 . S
O194 C193 1.232 . S
C195 O187 1.260 . S
C195 O188 1.257 . S
Zn196 O199 2.031 1_455 S
Zn196 O201 2.049 . S
Zn196 O206 2.067 . S
Zn197 O198 1.961 . S
Zn197 O200 1.986 . S
Zn197 O202 1.996 . S
Zn197 O205 1.943 . S
O198 Zn197 1.961 . S
O198 C203 1.255 1_455 S
O199 Zn196 2.031 1_655 S
O199 C203 1.269 . S
O200 Zn197 1.986 . S
O200 C207 1.262 . S
O201 Zn196 2.049 . S
O201 C209 1.260 . S
O202 Zn197 1.996 . S
O202 C209 1.257 . S
C203 O198 1.255 1_655 S
C203 O199 1.269 . S
C204 O205 1.249 . S
C204 O206 1.270 . S
O205 Zn197 1.943 . S
O205 C204 1.249 . S
O206 Zn196 2.067 . S
O206 C204 1.270 . S
C207 O200 1.262 . S
C207 O208 1.232 . S
O208 C207 1.232 . S
C209 O201 1.260 . S
C209 O202 1.257 . S
Zn210 O213 2.031 . S
Zn210 O215 2.049 1_655 S
Zn210 O220 2.067 1_655 S
Zn211 O212 1.962 . S
Zn211 O214 1.986 . S
Zn211 O216 1.996 . S
Zn211 O219 1.943 1_655 S
O212 Zn211 1.962 . S
O212 C217 1.254 . S
O213 Zn210 2.031 . S
O213 C217 1.269 . S
O214 Zn211 1.986 . S
O214 C221 1.262 . S
O215 Zn210 2.049 1_455 S
O215 C223 1.260 1_455 S
O216 Zn211 1.996 . S
O216 C223 1.257 . S
C217 O212 1.254 . S
C217 O213 1.269 . S
C218 O219 1.249 . S
C218 O220 1.270 . S
O219 Zn211 1.943 1_455 S
O219 C218 1.249 . S
O220 Zn210 2.067 1_455 S
O220 C218 1.270 . S
C221 O214 1.262 . S
C221 O222 1.232 . S
O222 C221 1.232 . S
C223 O215 1.260 1_655 S
C223 O216 1.257 . S
Zn224 O227 2.031 . S
Zn224 O229 2.049 . S
Zn224 O234 2.067 . S
Zn225 O226 1.962 . S
Zn225 O228 1.986 . S
Zn225 O230 1.996 . S
Zn225 O233 1.943 . S
O226 Zn225 1.962 . S
O226 C231 1.254 . S
O227 Zn224 2.031 . S
O227 C231 1.269 . S
O228 Zn225 1.986 . S
O228 C235 1.262 . S
O229 Zn224 2.049 . S
O229 C237 1.260 . S
O230 Zn225 1.996 . S
O230 C237 1.257 . S
C231 O226 1.254 . S
C231 O227 1.269 . S
C232 O233 1.249 . S
C232 O234 1.270 . S
O233 Zn225 1.943 . S
O233 C232 1.249 . S
O234 Zn224 2.067 . S
O234 C232 1.270 . S
C235 O228 1.262 . S
C235 O236 1.232 . S
O236 C235 1.232 . S
C237 O229 1.260 . S
C237 O230 1.257 . S
Zn238 O241 2.031 . S
Zn238 O243 2.049 1_545 S
Zn238 O248 2.067 1_545 S
Zn239 O240 1.962 . S
Zn239 O242 1.986 . S
Zn239 O244 1.996 . S
Zn239 O247 1.943 1_545 S
O240 Zn239 1.962 . S
O240 C245 1.254 . S
O241 Zn238 2.031 . S
O241 C245 1.269 . S
O242 Zn239 1.986 . S
O242 C249 1.262 . S
O243 Zn238 2.049 1_565 S
O243 C251 1.260 1_565 S
O244 Zn239 1.996 . S
O244 C251 1.257 . S
C245 O240 1.254 . S
C245 O241 1.269 . S
C246 O247 1.249 . S
C246 O248 1.270 . S
O247 Zn239 1.943 1_565 S
O247 C246 1.249 . S
O248 Zn238 2.067 1_565 S
O248 C246 1.270 . S
C249 O242 1.262 . S
C249 O250 1.232 . S
O250 C249 1.232 . S
C251 O243 1.260 1_545 S
C251 O244 1.257 . S
H252 C264 0.930 . S
H253 C266 0.930 . S
H254 C267 0.930 . S
H255 C271 0.959 . S
H256 C271 0.959 . S
H257 C271 0.961 . S
H258 C272 0.960 . S
H259 C272 0.961 . S
H260 C272 0.959 1_554 S
H261 C275 0.929 . S
H262 C276 0.931 . S
H263 C278 0.930 1_545 S
C264 H252 0.930 . S
C264 C265 1.399 . S
C264 C269 1.399 . S
C265 C264 1.399 . S
C265 C266 1.376 1_545 S
C266 H253 0.930 . S
C266 C265 1.376 1_565 S
C266 C267 1.388 . S
C267 H254 0.930 . S
C267 C266 1.388 . S
C267 C268 1.390 . S
C268 C267 1.390 . S
C268 C269 1.394 1_565 S
C268 C274 1.465 . S
C269 C264 1.399 . S
C269 C268 1.394 1_545 S
C269 C270 1.516 1_554 S
C270 C269 1.516 1_556 S
C270 C271 1.502 . S
C270 C272 1.561 . S
C270 C273 1.526 . S
C271 H255 0.959 . S
C271 H256 0.959 . S
C271 H257 0.961 . S
C271 C270 1.502 . S
C272 H258 0.960 . S
C272 H259 0.961 . S
C272 H260 0.959 1_556 S
C272 C270 1.561 . S
C273 C270 1.526 . S
C273 C274 1.396 1_546 S
C273 C278 1.390 1_545 S
C274 C268 1.465 . S
C274 C273 1.396 1_564 S
C274 C275 1.399 . S
C275 H261 0.929 . S
C275 C274 1.399 . S
C275 C276 1.385 1_554 S
C276 H262 0.931 . S
C276 C275 1.385 1_556 S
C276 C277 1.389 . S
C277 C276 1.389 . S
C277 C278 1.387 . S
C278 H263 0.930 1_565 S
C278 C273 1.390 1_565 S
C278 C277 1.387 . S
H279 C291 0.930 1_556 S
H280 C293 0.930 . S
H281 C294 0.930 . S
H282 C298 0.959 . S
H283 C298 0.959 . S
H284 C298 0.961 . S
H285 C299 0.960 . S
H286 C299 0.961 . S
H287 C299 0.959 . S
H288 C302 0.929 . S
H289 C303 0.931 1_554 S
H290 C305 0.930 . S
C291 H279 0.930 1_554 S
C291 C292 1.399 . S
C291 C296 1.400 1_554 S
C292 C291 1.399 . S
C292 C293 1.376 . S
C293 H280 0.930 . S
C293 C292 1.376 . S
C293 C294 1.388 . S
C294 H281 0.930 . S
C294 C293 1.388 . S
C294 C295 1.390 . S
C295 C294 1.390 . S
C295 C296 1.395 1_554 S
C295 C301 1.465 1_655 S
C296 C291 1.400 1_556 S
C296 C295 1.395 1_556 S
C296 C297 1.515 . S
C297 C296 1.515 . S
C297 C298 1.502 1_655 S
C297 C299 1.561 . S
C297 C300 1.526 1_655 S
C298 H282 0.959 . S
C298 H283 0.959 . S
C298 H284 0.961 . S
C298 C297 1.502 1_455 S
C299 H285 0.960 . S
C299 H286 0.961 . S
C299 H287 0.959 . S
C299 C297 1.561 . S
C300 C297 1.526 1_455 S
C300 C301 1.396 1_556 S
C300 C305 1.390 . S
C301 C295 1.465 1_455 S
C301 C300 1.396 1_554 S
C301 C302 1.399 . S
C302 H288 0.929 . S
C302 C301 1.399 . S
C302 C303 1.385 1_554 S
C303 H289 0.931 1_556 S
C303 C302 1.385 1_556 S
C303 C304 1.389 . S
C304 C303 1.389 . S
C304 C305 1.387 . S
C305 H290 0.930 . S
C305 C300 1.390 . S
C305 C304 1.387 . S
H306 C318 0.930 . S
H307 C320 0.930 . S
H308 C321 0.930 . S
H309 C325 0.959 1_556 S
H310 C325 0.959 . S
H311 C325 0.961 1_556 S
H312 C326 0.960 . S
H313 C326 0.961 . S
H314 C326 0.959 . S
H315 C329 0.913 1_556 S
H316 C330 0.931 . S
H317 C332 0.930 . S
C318 H306 0.930 . S
C318 C319 1.399 . S
C318 C323 1.399 . S
C319 C318 1.399 . S
C319 C320 1.376 . S
C320 H307 0.930 . S
C320 C319 1.376 . S
C320 C321 1.388 . S
C321 H308 0.930 . S
C321 C320 1.388 . S
C321 C322 1.390 . S
C322 C321 1.390 . S
C322 C323 1.394 . S
C322 C328 1.465 1_556 S
C323 C318 1.399 . S
C323 C322 1.394 . S
C323 C324 1.516 1_556 S
C324 C323 1.516 1_554 S
C324 C325 1.502 . S
C324 C326 1.561 . S
C324 C327 1.526 . S
C325 H309 0.959 1_554 S
C325 H310 0.959 . S
C325 H311 0.961 1_554 S
C325 C324 1.502 . S
C326 H312 0.960 . S
C326 H313 0.961 . S
C326 H314 0.959 . S
C326 C324 1.561 . S
C327 C324 1.526 . S
C327 C328 1.396 . S
C327 C332 1.390 . S
C328 C322 1.465 1_554 S
C328 C327 1.396 . S
C328 C329 1.399 . S
C329 H315 0.913 1_554 S
C329 C328 1.399 . S
C329 C330 1.385 . S
C330 H316 0.931 . S
C330 C329 1.385 . S
C330 C331 1.389 . S
C331 C330 1.389 . S
C331 C332 1.387 . S
C332 H317 0.930 . S
C332 C327 1.390 . S
C332 C331 1.387 . S
H333 C345 0.930 . S
H334 C347 0.930 . S
H335 C348 0.930 . S
H336 C352 0.959 . S
H337 C352 0.959 . S
H338 C352 0.961 . S
H339 C353 0.960 . S
H340 C353 0.961 . S
H341 C353 0.959 . S
H342 C356 0.929 . S
H343 C357 0.931 . S
H344 C359 0.930 . S
C345 H333 0.930 . S
C345 C346 1.399 . S
C345 C350 1.399 . S
C346 C345 1.399 . S
C346 C347 1.376 . S
C347 H334 0.930 . S
C347 C346 1.376 . S
C347 C348 1.388 . S
C348 H335 0.930 . S
C348 C347 1.388 . S
C348 C349 1.390 . S
C349 C348 1.390 . S
C349 C350 1.394 . S
C349 C355 1.465 . S
C350 C345 1.399 . S
C350 C349 1.394 . S
C350 C351 1.516 . S
C351 C350 1.516 . S
C351 C352 1.502 . S
C351 C353 1.561 . S
C351 C354 1.526 . S
C352 H336 0.959 . S
C352 H337 0.959 . S
C352 H338 0.961 . S
C352 C351 1.502 . S
C353 H339 0.960 . S
C353 H340 0.961 . S
C353 H341 0.959 . S
C353 C351 1.561 . S
C354 C351 1.526 . S
C354 C355 1.396 . S
C354 C359 1.390 . S
C355 C349 1.465 . S
C355 C354 1.396 . S
C355 C356 1.399 . S
C356 H342 0.929 . S
C356 C355 1.399 . S
C356 C357 1.385 . S
C357 H343 0.931 . S
C357 C356 1.385 . S
C357 C358 1.389 . S
C358 C357 1.389 . S
C358 C359 1.387 . S
C359 H344 0.930 . S
C359 C354 1.390 . S
C359 C358 1.387 . S
H360 C372 0.930 . S
H361 C374 0.930 . S
H362 C375 0.930 . S
H363 C379 0.959 . S
H364 C379 0.959 . S
H365 C379 0.961 . S
H366 C380 0.960 . S
H367 C380 0.961 . S
H368 C380 0.959 . S
H369 C383 0.929 . S
H370 C384 0.931 . S
H371 C386 0.930 . S
C372 H360 0.930 . S
C372 C373 1.399 . S
C372 C377 1.399 . S
C373 C372 1.399 . S
C373 C374 1.376 . S
C374 H361 0.930 . S
C374 C373 1.376 . S
C374 C375 1.388 . S
C375 H362 0.930 . S
C375 C374 1.388 . S
C375 C376 1.390 . S
C376 C375 1.390 . S
C376 C377 1.394 . S
C376 C382 1.465 . S
C377 C372 1.399 . S
C377 C376 1.394 . S
C377 C378 1.516 . S
C378 C377 1.516 . S
C378 C379 1.502 . S
C378 C380 1.561 . S
C378 C381 1.526 . S
C379 H363 0.959 . S
C379 H364 0.959 . S
C379 H365 0.961 . S
C379 C378 1.502 . S
C380 H366 0.960 . S
C380 H367 0.961 . S
C380 H368 0.959 . S
C380 C378 1.561 . S
C381 C378 1.526 . S
C381 C382 1.396 . S
C381 C386 1.390 . S
C382 C376 1.465 . S
C382 C381 1.396 . S
C382 C383 1.399 . S
C383 H369 0.929 . S
C383 C382 1.399 . S
C383 C384 1.385 . S
C384 H370 0.931 . S
C384 C383 1.385 . S
C384 C385 1.389 . S
C385 C384 1.389 . S
C385 C386 1.387 . S
C386 H371 0.930 . S
C386 C381 1.390 . S
C386 C385 1.387 . S
H387 C399 0.930 . S
H388 C401 0.930 . S
H389 C402 0.930 . S
H390 C406 0.959 . S
H391 C406 0.959 . S
H392 C406 0.961 . S
H393 C407 0.960 . S
H394 C407 0.961 . S
H395 C407 0.959 . S
H396 C410 0.929 . S
H397 C411 0.931 . S
H398 C413 0.930 . S
C399 H387 0.930 . S
C399 C400 1.399 . S
C399 C404 1.399 . S
C400 C399 1.399 . S
C400 C401 1.376 . S
C401 H388 0.930 . S
C401 C400 1.376 . S
C401 C402 1.388 . S
C402 H389 0.930 . S
C402 C401 1.388 . S
C402 C403 1.390 . S
C403 C402 1.390 . S
C403 C404 1.394 . S
C403 C409 1.465 . S
C404 C399 1.399 . S
C404 C403 1.394 . S
C404 C405 1.516 . S
C405 C404 1.516 . S
C405 C406 1.502 . S
C405 C407 1.561 . S
C405 C408 1.526 . S
C406 H390 0.959 . S
C406 H391 0.959 . S
C406 H392 0.961 . S
C406 C405 1.502 . S
C407 H393 0.960 . S
C407 H394 0.961 . S
C407 H395 0.959 . S
C407 C405 1.561 . S
C408 C405 1.526 . S
C408 C409 1.396 . S
C408 C413 1.390 . S
C409 C403 1.465 . S
C409 C408 1.396 . S
C409 C410 1.399 . S
C410 H396 0.929 . S
C410 C409 1.399 . S
C410 C411 1.385 . S
C411 H397 0.931 . S
C411 C410 1.385 . S
C411 C412 1.389 . S
C412 C411 1.389 . S
C412 C413 1.387 . S
C413 H398 0.930 . S
C413 C408 1.390 . S
C413 C412 1.387 . S
H414 C426 0.930 . S
H415 C428 0.930 . S
H416 C429 0.930 . S
H417 C433 0.959 . S
H418 C433 0.959 . S
H419 C433 0.961 . S
H420 C434 0.960 . S
H421 C434 0.961 . S
H422 C434 0.959 . S
H423 C437 0.929 . S
H424 C438 0.931 . S
H425 C440 0.930 . S
C426 H414 0.930 . S
C426 C427 1.399 . S
C426 C431 1.399 . S
C427 C426 1.399 . S
C427 C428 1.376 . S
C428 H415 0.930 . S
C428 C427 1.376 . S
C428 C429 1.388 . S
C429 H416 0.930 . S
C429 C428 1.388 . S
C429 C430 1.390 . S
C430 C429 1.390 . S
C430 C431 1.394 . S
C430 C436 1.465 . S
C431 C426 1.399 . S
C431 C430 1.394 . S
C431 C432 1.516 . S
C432 C431 1.516 . S
C432 C433 1.502 . S
C432 C434 1.561 . S
C432 C435 1.526 . S
C433 H417 0.959 . S
C433 H418 0.959 . S
C433 H419 0.961 . S
C433 C432 1.502 . S
C434 H420 0.960 . S
C434 H421 0.961 . S
C434 H422 0.959 . S
C434 C432 1.561 . S
C435 C432 1.526 . S
C435 C436 1.396 . S
C435 C440 1.390 . S
C436 C430 1.465 . S
C436 C435 1.396 . S
C436 C437 1.399 . S
C437 H423 0.929 . S
C437 C436 1.399 . S
C437 C438 1.385 . S
C438 H424 0.931 . S
C438 C437 1.385 . S
C438 C439 1.389 . S
C439 C438 1.389 . S
C439 C440 1.387 . S
C440 H425 0.930 . S
C440 C435 1.390 . S
C440 C439 1.387 . S
H441 C453 0.930 . S
H442 C455 0.930 . S
H443 C456 0.930 . S
H444 C460 0.959 . S
H445 C460 0.959 . S
H446 C460 0.961 . S
H447 C461 0.960 . S
H448 C461 0.961 . S
H449 C461 0.959 . S
H450 C464 0.929 . S
H451 C465 0.931 . S
H452 C467 0.930 . S
C453 H441 0.930 . S
C453 C454 1.399 . S
C453 C458 1.399 . S
C454 C453 1.399 . S
C454 C455 1.376 . S
C455 H442 0.930 . S
C455 C454 1.376 . S
C455 C456 1.388 . S
C456 H443 0.930 . S
C456 C455 1.388 . S
C456 C457 1.390 . S
C457 C456 1.390 . S
C457 C458 1.394 . S
C457 C463 1.465 . S
C458 C453 1.399 . S
C458 C457 1.394 . S
C458 C459 1.516 . S
C459 C458 1.516 . S
C459 C460 1.502 . S
C459 C461 1.561 . S
C459 C462 1.526 . S
C460 H444 0.959 . S
C460 H445 0.959 . S
C460 H446 0.961 . S
C460 C459 1.502 . S
C461 H447 0.960 . S
C461 H448 0.961 . S
C461 H449 0.959 . S
C461 C459 1.561 . S
C462 C459 1.526 . S
C462 C463 1.396 . S
C462 C467 1.390 . S
C463 C457 1.465 . S
C463 C462 1.396 . S
C463 C464 1.399 . S
C464 H450 0.929 . S
C464 C463 1.399 . S
C464 C465 1.385 . S
C465 H451 0.931 . S
C465 C464 1.385 . S
C465 C466 1.389 . S
C466 C465 1.389 . S
C466 C467 1.387 . S
C467 H452 0.930 . S
C467 C462 1.390 . S
C467 C466 1.387 . S
H468 C480 0.930 . S
H469 C482 0.930 . S
H470 C483 0.930 . S
H471 C487 0.959 . S
H472 C487 0.959 . S
H473 C487 0.961 . S
H474 C488 0.960 . S
H475 C488 0.961 . S
H476 C488 0.959 . S
H477 C491 0.929 . S
H478 C492 0.931 . S
H479 C494 0.930 . S
C480 H468 0.930 . S
C480 C481 1.399 . S
C480 C485 1.399 . S
C481 C480 1.399 . S
C481 C482 1.376 . S
C482 H469 0.930 . S
C482 C481 1.376 . S
C482 C483 1.388 . S
C483 H470 0.930 . S
C483 C482 1.388 . S
C483 C484 1.390 . S
C484 C483 1.390 . S
C484 C485 1.394 . S
C484 C490 1.465 . S
C485 C480 1.399 . S
C485 C484 1.394 . S
C485 C486 1.516 . S
C486 C485 1.516 . S
C486 C487 1.502 . S
C486 C488 1.561 . S
C486 C489 1.526 . S
C487 H471 0.959 . S
C487 H472 0.959 . S
C487 H473 0.961 . S
C487 C486 1.502 . S
C488 H474 0.960 . S
C488 H475 0.961 . S
C488 H476 0.959 . S
C488 C486 1.561 . S
C489 C486 1.526 . S
C489 C490 1.396 . S
C489 C494 1.390 . S
C490 C484 1.465 . S
C490 C489 1.396 . S
C490 C491 1.399 . S
C491 H477 0.929 . S
C491 C490 1.399 . S
C491 C492 1.385 . S
C492 H478 0.931 . S
C492 C491 1.385 . S
C492 C493 1.389 . S
C493 C492 1.389 . S
C493 C494 1.387 . S
C494 H479 0.930 . S
C494 C489 1.390 . S
C494 C493 1.387 . S
H495 C507 0.930 . S
H496 C509 0.930 . S
H497 C510 0.930 . S
H498 C514 0.959 . S
H499 C514 0.959 . S
H500 C514 0.961 . S
H501 C515 0.960 . S
H502 C515 0.961 . S
H503 C515 0.959 . S
H504 C518 0.929 . S
H505 C519 0.931 . S
H506 C521 0.930 . S
C507 H495 0.930 . S
C507 C508 1.399 . S
C507 C512 1.399 . S
C508 C507 1.399 . S
C508 C509 1.376 . S
C509 H496 0.930 . S
C509 C508 1.376 . S
C509 C510 1.388 . S
C510 H497 0.930 . S
C510 C509 1.388 . S
C510 C511 1.390 . S
C511 C510 1.390 . S
C511 C512 1.394 . S
C511 C517 1.465 . S
C512 C507 1.399 . S
C512 C511 1.394 . S
C512 C513 1.516 . S
C513 C512 1.516 . S
C513 C514 1.502 . S
C513 C515 1.561 . S
C513 C516 1.526 . S
C514 H498 0.959 . S
C514 H499 0.959 . S
C514 H500 0.961 . S
C514 C513 1.502 . S
C515 H501 0.960 . S
C515 H502 0.961 . S
C515 H503 0.959 . S
C515 C513 1.561 . S
C516 C513 1.526 . S
C516 C517 1.396 . S
C516 C521 1.390 . S
C517 C511 1.465 . S
C517 C516 1.396 . S
C517 C518 1.399 . S
C518 H504 0.929 . S
C518 C517 1.399 . S
C518 C519 1.385 . S
C519 H505 0.931 . S
C519 C518 1.385 . S
C519 C520 1.389 . S
C520 C519 1.389 . S
C520 C521 1.387 . S
C521 H506 0.930 . S
C521 C516 1.390 . S
C521 C520 1.387 . S
H522 C534 0.930 . S
H523 C536 0.930 . S
H524 C537 0.930 . S
H525 C541 0.959 . S
H526 C541 0.959 . S
H527 C541 0.961 . S
H528 C542 0.960 . S
H529 C542 0.961 . S
H530 C542 0.959 . S
H531 C545 0.929 . S
H532 C546 0.931 . S
H533 C548 0.930 . S
C534 H522 0.930 . S
C534 C535 1.399 . S
C534 C539 1.399 . S
C535 C534 1.399 . S
C535 C536 1.376 . S
C536 H523 0.930 . S
C536 C535 1.376 . S
C536 C537 1.388 . S
C537 H524 0.930 . S
C537 C536 1.388 . S
C537 C538 1.390 . S
C538 C537 1.390 . S
C538 C539 1.394 . S
C538 C544 1.465 . S
C539 C534 1.399 . S
C539 C538 1.394 . S
C539 C540 1.516 . S
C540 C539 1.516 . S
C540 C541 1.502 . S
C540 C542 1.561 . S
C540 C543 1.526 . S
C541 H525 0.959 . S
C541 H526 0.959 . S
C541 H527 0.961 . S
C541 C540 1.502 . S
C542 H528 0.960 . S
C542 H529 0.961 . S
C542 H530 0.959 . S
C542 C540 1.561 . S
C543 C540 1.526 . S
C543 C544 1.396 . S
C543 C548 1.390 . S
C544 C538 1.465 . S
C544 C543 1.396 . S
C544 C545 1.399 . S
C545 H531 0.929 . S
C545 C544 1.399 . S
C545 C546 1.385 . S
C546 H532 0.931 . S
C546 C545 1.385 . S
C546 C547 1.389 . S
C547 C546 1.389 . S
C547 C548 1.387 . S
C548 H533 0.930 . S
C548 C543 1.390 . S
C548 C547 1.387 . S
H549 C561 0.930 . S
H550 C563 0.930 . S
H551 C564 0.930 . S
H552 C568 0.959 . S
H553 C568 0.959 . S
H554 C568 0.961 . S
H555 C569 0.960 . S
H556 C569 0.961 . S
H557 C569 0.959 . S
H558 C572 0.929 . S
H559 C573 0.931 . S
H560 C575 0.930 . S
C561 H549 0.930 . S
C561 C562 1.399 . S
C561 C566 1.399 . S
C562 C561 1.399 . S
C562 C563 1.376 . S
C563 H550 0.930 . S
C563 C562 1.376 . S
C563 C564 1.388 . S
C564 H551 0.930 . S
C564 C563 1.388 . S
C564 C565 1.390 . S
C565 C564 1.390 . S
C565 C566 1.394 . S
C565 C571 1.465 . S
C566 C561 1.399 . S
C566 C565 1.394 . S
C566 C567 1.516 . S
C567 C566 1.516 . S
C567 C568 1.502 . S
C567 C569 1.561 . S
C567 C570 1.526 . S
C568 H552 0.959 . S
C568 H553 0.959 . S
C568 H554 0.961 . S
C568 C567 1.502 . S
C569 H555 0.960 . S
C569 H556 0.961 . S
C569 H557 0.959 . S
C569 C567 1.561 . S
C570 C567 1.526 . S
C570 C571 1.396 . S
C570 C575 1.390 . S
C571 C565 1.465 . S
C571 C570 1.396 . S
C571 C572 1.399 . S
C572 H558 0.929 . S
C572 C571 1.399 . S
C572 C573 1.385 . S
C573 H559 0.931 . S
C573 C572 1.385 . S
C573 C574 1.389 . S
C574 C573 1.389 . S
C574 C575 1.387 . S
C575 H560 0.930 . S
C575 C570 1.390 . S
C575 C574 1.387 . S
H576 C588 0.930 . S
H577 C590 0.930 . S
H578 C591 0.930 . S
H579 C595 0.959 . S
H580 C595 0.959 . S
H581 C595 0.961 . S
H582 C596 0.960 . S
H583 C596 0.961 . S
H584 C596 0.959 . S
H585 C599 0.929 . S
H586 C600 0.931 . S
H587 C602 0.930 . S
C588 H576 0.930 . S
C588 C589 1.399 . S
C588 C593 1.399 . S
C589 C588 1.399 . S
C589 C590 1.376 . S
C590 H577 0.930 . S
C590 C589 1.376 . S
C590 C591 1.388 . S
C591 H578 0.930 . S
C591 C590 1.388 . S
C591 C592 1.390 . S
C592 C591 1.390 . S
C592 C593 1.394 . S
C592 C598 1.465 . S
C593 C588 1.399 . S
C593 C592 1.394 . S
C593 C594 1.516 . S
C594 C593 1.516 . S
C594 C595 1.502 . S
C594 C596 1.561 . S
C594 C597 1.526 . S
C595 H579 0.959 . S
C595 H580 0.959 . S
C595 H581 0.961 . S
C595 C594 1.502 . S
C596 H582 0.960 . S
C596 H583 0.961 . S
C596 H584 0.959 . S
C596 C594 1.561 . S
C597 C594 1.526 . S
C597 C598 1.396 . S
C597 C602 1.390 . S
C598 C592 1.465 . S
C598 C597 1.396 . S
C598 C599 1.399 . S
C599 H585 0.929 . S
C599 C598 1.399 . S
C599 C600 1.385 . S
C600 H586 0.931 . S
C600 C599 1.385 . S
C600 C601 1.389 . S
C601 C600 1.389 . S
C601 C602 1.387 . S
C602 H587 0.930 . S
C602 C597 1.390 . S
C602 C601 1.387 . S
H603 C615 0.930 . S
H604 C617 0.930 . S
H605 C618 0.930 . S
H606 C622 0.959 . S
H607 C622 0.959 . S
H608 C622 0.961 . S
H609 C623 0.960 . S
H610 C623 0.961 . S
H611 C623 0.959 . S
H612 C626 0.929 . S
H613 C627 0.931 . S
H614 C629 0.930 . S
C615 H603 0.930 . S
C615 C616 1.399 . S
C615 C620 1.399 . S
C616 C615 1.399 . S
C616 C617 1.376 . S
C617 H604 0.930 . S
C617 C616 1.376 . S
C617 C618 1.388 . S
C618 H605 0.930 . S
C618 C617 1.388 . S
C618 C619 1.390 . S
C619 C618 1.390 . S
C619 C620 1.394 . S
C619 C625 1.465 . S
C620 C615 1.399 . S
C620 C619 1.394 . S
C620 C621 1.516 . S
C621 C620 1.516 . S
C621 C622 1.502 . S
C621 C623 1.561 . S
C621 C624 1.526 . S
C622 H606 0.959 . S
C622 H607 0.959 . S
C622 H608 0.961 . S
C622 C621 1.502 . S
C623 H609 0.960 . S
C623 H610 0.961 . S
C623 H611 0.959 . S
C623 C621 1.561 . S
C624 C621 1.526 . S
C624 C625 1.396 . S
C624 C629 1.390 . S
C625 C619 1.465 . S
C625 C624 1.396 . S
C625 C626 1.399 . S
C626 H612 0.929 . S
C626 C625 1.399 . S
C626 C627 1.385 . S
C627 H613 0.931 . S
C627 C626 1.385 . S
C627 C628 1.389 . S
C628 C627 1.389 . S
C628 C629 1.387 . S
C629 H614 0.930 . S
C629 C624 1.390 . S
C629 C628 1.387 . S
H630 C642 0.930 . S
H631 C644 0.930 . S
H632 C645 0.930 . S
H633 C649 0.959 . S
H634 C649 0.959 . S
H635 C649 0.961 . S
H636 C650 0.960 . S
H637 C650 0.961 . S
H638 C650 0.959 . S
H639 C653 0.929 . S
H640 C654 0.931 . S
H641 C656 0.930 . S
C642 H630 0.930 . S
C642 C643 1.399 . S
C642 C647 1.399 . S
C643 C642 1.399 . S
C643 C644 1.376 . S
C644 H631 0.930 . S
C644 C643 1.376 . S
C644 C645 1.388 . S
C645 H632 0.930 . S
C645 C644 1.388 . S
C645 C646 1.390 . S
C646 C645 1.390 . S
C646 C647 1.394 . S
C646 C652 1.465 . S
C647 C642 1.399 . S
C647 C646 1.394 . S
C647 C648 1.516 . S
C648 C647 1.516 . S
C648 C649 1.502 . S
C648 C650 1.561 . S
C648 C651 1.526 . S
C649 H633 0.959 . S
C649 H634 0.959 . S
C649 H635 0.961 . S
C649 C648 1.502 . S
C650 H636 0.960 . S
C650 H637 0.961 . S
C650 H638 0.959 . S
C650 C648 1.561 . S
C651 C648 1.526 . S
C651 C652 1.396 . S
C651 C656 1.390 . S
C652 C646 1.465 . S
C652 C651 1.396 . S
C652 C653 1.399 . S
C653 H639 0.929 . S
C653 C652 1.399 . S
C653 C654 1.385 . S
C654 H640 0.931 . S
C654 C653 1.385 . S
C654 C655 1.389 . S
C655 C654 1.389 . S
C655 C656 1.387 . S
C656 H641 0.930 . S
C656 C651 1.390 . S
C656 C655 1.387 . S
H657 C669 0.925 . S
H658 C671 0.930 . S
H659 C672 0.930 . S
H660 C676 0.959 . S
H661 C676 0.959 . S
H662 C676 0.961 . S
H663 C677 0.960 . S
H664 C677 0.961 . S
H665 C677 0.959 . S
H666 C680 0.929 . S
H667 C681 0.931 . S
H668 C683 0.930 . S
C669 H657 0.925 . S
C669 C670 1.396 1_655 S
C669 C674 1.419 1_655 S
C670 C669 1.396 1_455 S
C670 C671 1.376 . S
C671 H658 0.930 . S
C671 C670 1.376 . S
C671 C672 1.388 . S
C672 H659 0.930 . S
C672 C671 1.388 . S
C672 C673 1.390 . S
C673 C672 1.390 . S
C673 C674 1.388 . S
C673 C679 1.465 . S
C674 C669 1.419 1_455 S
C674 C673 1.388 . S
C674 C675 1.511 1_455 S
C675 C674 1.511 1_655 S
C675 C676 1.502 . S
C675 C677 1.561 1_655 S
C675 C678 1.526 . S
C676 H660 0.959 . S
C676 H661 0.959 . S
C676 H662 0.961 . S
C676 C675 1.502 . S
C677 H663 0.960 . S
C677 H664 0.961 . S
C677 H665 0.959 . S
C677 C675 1.561 1_455 S
C678 C675 1.526 . S
C678 C679 1.396 1_655 S
C678 C683 1.390 . S
C679 C673 1.465 . S
C679 C678 1.396 1_455 S
C679 C680 1.399 . S
C680 H666 0.929 . S
C680 C679 1.399 . S
C680 C681 1.385 . S
C681 H667 0.931 . S
C681 C680 1.385 . S
C681 C682 1.389 1_455 S
C682 C681 1.389 1_655 S
C682 C683 1.387 . S
C683 H668 0.930 . S
C683 C678 1.390 . S
C683 C682 1.387 . S
H684 C696 0.930 . S
H685 C698 0.930 . S
H686 C699 0.930 . S
H687 C703 0.959 . S
H688 C703 0.959 . S
H689 C703 0.961 . S
H690 C704 0.960 . S
H691 C704 0.961 . S
H692 C704 0.959 . S
H693 C707 0.929 . S
H694 C708 0.931 . S
H695 C710 0.930 . S
C696 H684 0.930 . S
C696 C697 1.399 . S
C696 C701 1.399 . S
C697 C696 1.399 . S
C697 C698 1.376 . S
C698 H685 0.930 . S
C698 C697 1.376 . S
C698 C699 1.388 . S
C699 H686 0.930 . S
C699 C698 1.388 . S
C699 C700 1.390 . S
C700 C699 1.390 . S
C700 C701 1.394 . S
C700 C706 1.465 . S
C701 C696 1.399 . S
C701 C700 1.394 . S
C701 C702 1.516 . S
C702 C701 1.516 . S
C702 C703 1.502 . S
C702 C704 1.561 . S
C702 C705 1.526 . S
C703 H687 0.959 . S
C703 H688 0.959 . S
C703 H689 0.961 . S
C703 C702 1.502 . S
C704 H690 0.960 . S
C704 H691 0.961 . S
C704 H692 0.959 . S
C704 C702 1.561 . S
C705 C702 1.526 . S
C705 C706 1.396 . S
C705 C710 1.390 . S
C706 C700 1.465 . S
C706 C705 1.396 . S
C706 C707 1.399 . S
C707 H693 0.929 . S
C707 C706 1.399 . S
C707 C708 1.385 . S
C708 H694 0.931 . S
C708 C707 1.385 . S
C708 C709 1.389 . S
C709 C708 1.389 . S
C709 C710 1.387 . S
C710 H695 0.930 . S
C710 C705 1.390 . S
C710 C709 1.387 . S
H711 C723 0.930 . S
H712 C725 0.930 . S
H713 C726 0.930 . S
H714 C730 0.959 . S
H715 C730 0.959 . S
H716 C730 0.961 . S
H717 C731 0.960 . S
H718 C731 0.961 . S
H719 C731 0.959 . S
H720 C734 0.929 . S
H721 C735 0.931 . S
H722 C737 0.930 . S
C723 H711 0.930 . S
C723 C724 1.399 . S
C723 C728 1.399 . S
C724 C723 1.399 . S
C724 C725 1.376 1_545 S
C725 H712 0.930 . S
C725 C724 1.376 1_565 S
C725 C726 1.388 . S
C726 H713 0.930 . S
C726 C725 1.388 . S
C726 C727 1.390 . S
C727 C726 1.390 . S
C727 C728 1.394 1_565 S
C727 C733 1.465 . S
C728 C723 1.399 . S
C728 C727 1.394 1_545 S
C728 C729 1.516 . S
C729 C728 1.516 . S
C729 C730 1.502 . S
C729 C731 1.561 . S
C729 C732 1.526 . S
C730 H714 0.959 . S
C730 H715 0.959 . S
C730 H716 0.961 . S
C730 C729 1.502 . S
C731 H717 0.960 . S
C731 H718 0.961 . S
C731 H719 0.959 . S
C731 C729 1.561 . S
C732 C729 1.526 . S
C732 C733 1.396 1_545 S
C732 C737 1.390 . S
C733 C727 1.465 . S
C733 C732 1.396 1_565 S
C733 C734 1.399 . S
C734 H720 0.929 . S
C734 C733 1.399 . S
C734 C735 1.385 . S
C735 H721 0.931 . S
C735 C734 1.385 . S
C735 C736 1.389 . S
C736 C735 1.389 . S
C736 C737 1.387 1_565 S
C737 H722 0.930 . S
C737 C732 1.390 . S
C737 C736 1.387 1_545 S
H738 C750 0.930 . S
H739 C752 0.930 1_545 S
H740 C753 0.904 1_556 S
H741 C757 0.959 . S
H742 C757 0.959 . S
H743 C757 0.961 . S
H744 C758 0.960 . S
H745 C758 0.961 . S
H746 C758 0.959 . S
H747 C761 0.929 . S
H748 C762 0.931 . S
H749 C764 0.929 1_554 S
C750 H738 0.930 . S
C750 C751 1.399 . S
C750 C755 1.399 . S
C751 C750 1.399 . S
C751 C752 1.376 . S
C752 H739 0.930 1_565 S
C752 C751 1.376 . S
C752 C753 1.407 . S
C753 H740 0.904 1_554 S
C753 C752 1.407 . S
C753 C754 1.398 . S
C754 C753 1.398 . S
C754 C755 1.394 . S
C754 C760 1.465 1_554 S
C755 C750 1.399 . S
C755 C754 1.394 . S
C755 C756 1.516 . S
C756 C755 1.516 . S
C756 C757 1.502 . S
C756 C758 1.561 . S
C756 C759 1.526 . S
C757 H741 0.959 . S
C757 H742 0.959 . S
C757 H743 0.961 . S
C757 C756 1.502 . S
C758 H744 0.960 . S
C758 H745 0.961 . S
C758 H746 0.959 . S
C758 C756 1.561 . S
C759 C756 1.526 . S
C759 C760 1.396 1_554 S
C759 C764 1.389 1_554 S
C760 C754 1.465 1_556 S
C760 C759 1.396 1_556 S
C760 C761 1.399 . S
C761 H747 0.929 . S
C761 C760 1.399 . S
C761 C762 1.385 . S
C762 H748 0.931 . S
C762 C761 1.385 . S
C762 C763 1.389 . S
C763 C762 1.389 . S
C763 C764 1.387 . S
C764 H749 0.929 1_556 S
C764 C759 1.389 1_556 S
C764 C763 1.387 . S
H765 C777 0.930 . S
H766 C779 0.930 . S
H767 C780 0.930 . S
H768 C784 0.959 . S
H769 C784 0.959 . S
H770 C784 0.961 . S
H771 C785 0.960 . S
H772 C785 0.961 . S
H773 C785 0.959 1_554 S
H774 C788 0.929 . S
H775 C789 0.931 . S
H776 C791 0.930 . S
C777 H765 0.930 . S
C777 C778 1.399 . S
C777 C782 1.399 . S
C778 C777 1.399 . S
C778 C779 1.376 . S
C779 H766 0.930 . S
C779 C778 1.376 . S
C779 C780 1.388 . S
C780 H767 0.930 . S
C780 C779 1.388 . S
C780 C781 1.390 . S
C781 C780 1.390 . S
C781 C782 1.394 . S
C781 C787 1.465 . S
C782 C777 1.399 . S
C782 C781 1.394 . S
C782 C783 1.516 1_554 S
C783 C782 1.516 1_556 S
C783 C784 1.502 . S
C783 C785 1.561 . S
C783 C786 1.526 . S
C784 H768 0.959 . S
C784 H769 0.959 . S
C784 H770 0.961 . S
C784 C783 1.502 . S
C785 H771 0.960 . S
C785 H772 0.961 . S
C785 H773 0.959 1_556 S
C785 C783 1.561 . S
C786 C783 1.526 . S
C786 C787 1.396 1_556 S
C786 C791 1.390 . S
C787 C781 1.465 . S
C787 C786 1.396 1_554 S
C787 C788 1.399 . S
C788 H774 0.929 . S
C788 C787 1.399 . S
C788 C789 1.385 . S
C789 H775 0.931 . S
C789 C788 1.385 . S
C789 C790 1.389 1_554 S
C790 C789 1.389 1_556 S
C790 C791 1.387 . S
C791 H776 0.930 . S
C791 C786 1.390 . S
C791 C790 1.387 . S
H792 C804 0.930 . S
H793 C806 0.930 . S
H794 C807 0.930 . S
H795 C811 0.959 . S
H796 C811 0.959 . S
H797 C811 0.961 . S
H798 C812 0.960 . S
H799 C812 0.961 . S
H800 C812 0.959 . S
H801 C815 0.929 . S
H802 C816 0.931 . S
H803 C818 0.948 . S
C804 H792 0.930 . S
C804 C805 1.399 . S
C804 C809 1.399 . S
C805 C804 1.399 . S
C805 C806 1.376 . S
C806 H793 0.930 . S
C806 C805 1.376 . S
C806 C807 1.388 1_554 S
C807 H794 0.930 . S
C807 C806 1.388 1_556 S
C807 C808 1.390 1_556 S
C808 C807 1.390 1_554 S
C808 C809 1.394 . S
C808 C814 1.465 1_554 S
C809 C804 1.399 . S
C809 C808 1.394 . S
C809 C810 1.516 . S
C810 C809 1.516 . S
C810 C811 1.502 . S
C810 C812 1.561 . S
C810 C813 1.526 . S
C811 H795 0.959 . S
C811 H796 0.959 . S
C811 H797 0.961 . S
C811 C810 1.502 . S
C812 H798 0.960 . S
C812 H799 0.961 . S
C812 H800 0.959 . S
C812 C810 1.561 . S
C813 C810 1.526 . S
C813 C814 1.396 1_554 S
C813 C818 1.399 . S
C814 C808 1.465 1_556 S
C814 C813 1.396 1_556 S
C814 C815 1.399 . S
C815 H801 0.929 . S
C815 C814 1.399 . S
C815 C816 1.385 . S
C816 H802 0.931 . S
C816 C815 1.385 . S
C816 C817 1.389 . S
C817 C816 1.389 . S
C817 C818 1.359 1_556 S
C818 H803 0.948 . S
C818 C813 1.399 . S
C818 C817 1.359 1_554 S
H819 C831 0.930 . S
H820 C833 0.930 . S
H821 C834 0.930 . S
H822 C838 0.959 . S
H823 C838 0.959 . S
H824 C838 0.961 . S
H825 C839 0.960 . S
H826 C839 0.961 . S
H827 C839 0.959 1_556 S
H828 C842 0.929 . S
H829 C843 0.931 . S
H830 C845 0.930 . S
C831 H819 0.930 . S
C831 C832 1.399 . S
C831 C836 1.399 . S
C832 C831 1.399 . S
C832 C833 1.376 . S
C833 H820 0.930 . S
C833 C832 1.376 . S
C833 C834 1.388 . S
C834 H821 0.930 . S
C834 C833 1.388 . S
C834 C835 1.390 . S
C835 C834 1.390 . S
C835 C836 1.394 . S
C835 C841 1.465 . S
C836 C831 1.399 . S
C836 C835 1.394 . S
C836 C837 1.516 1_556 S
C837 C836 1.516 1_554 S
C837 C838 1.502 . S
C837 C839 1.561 . S
C837 C840 1.526 . S
C838 H822 0.959 . S
C838 H823 0.959 . S
C838 H824 0.961 . S
C838 C837 1.502 . S
C839 H825 0.960 . S
C839 H826 0.961 . S
C839 H827 0.959 1_554 S
C839 C837 1.561 . S
C840 C837 1.526 . S
C840 C841 1.396 1_554 S
C840 C845 1.390 . S
C841 C835 1.465 . S
C841 C840 1.396 1_556 S
C841 C842 1.399 . S
C842 H828 0.929 . S
C842 C841 1.399 . S
C842 C843 1.385 . S
C843 H829 0.931 . S
C843 C842 1.385 . S
C843 C844 1.389 1_556 S
C844 C843 1.389 1_554 S
C844 C845 1.387 . S
C845 H830 0.930 . S
C845 C840 1.390 . S
C845 C844 1.387 . S
H846 C858 0.930 . S
H847 C860 0.930 . S
H848 C861 0.930 . S
H849 C865 0.959 . S
H850 C865 0.959 . S
H851 C865 0.961 . S
H852 C866 0.960 . S
H853 C866 0.961 . S
H854 C866 0.959 . S
H855 C869 0.929 . S
H856 C870 0.931 . S
H857 C872 0.930 . S
C858 H846 0.930 . S
C858 C859 1.399 . S
C858 C863 1.399 . S
C859 C858 1.399 . S
C859 C860 1.376 . S
C860 H847 0.930 . S
C860 C859 1.376 . S
C860 C861 1.388 . S
C861 H848 0.930 . S
C861 C860 1.388 . S
C861 C862 1.390 . S
C862 C861 1.390 . S
C862 C863 1.394 . S
C862 C868 1.465 1_554 S
C863 C858 1.399 . S
C863 C862 1.394 . S
C863 C864 1.516 1_554 S
C864 C863 1.516 1_556 S
C864 C865 1.502 . S
C864 C866 1.561 1_556 S
C864 C867 1.526 . S
C865 H849 0.959 . S
C865 H850 0.959 . S
C865 H851 0.961 . S
C865 C864 1.502 . S
C866 H852 0.960 . S
C866 H853 0.961 . S
C866 H854 0.959 . S
C866 C864 1.561 1_554 S
C867 C864 1.526 . S
C867 C868 1.396 . S
C867 C872 1.390 . S
C868 C862 1.465 1_556 S
C868 C867 1.396 . S
C868 C869 1.399 . S
C869 H855 0.929 . S
C869 C868 1.399 . S
C869 C870 1.385 . S
C870 H856 0.931 . S
C870 C869 1.385 . S
C870 C871 1.389 . S
C871 C870 1.389 . S
C871 C872 1.387 . S
C872 H857 0.930 . S
C872 C867 1.390 . S
C872 C871 1.387 . S
H873 C885 0.930 . S
H874 C887 0.930 . S
H875 C888 0.930 . S
H876 C892 0.959 . S
H877 C892 0.959 . S
H878 C892 0.961 . S
H879 C893 0.960 . S
H880 C893 0.961 . S
H881 C893 0.959 . S
H882 C896 0.929 . S
H883 C897 0.931 . S
H884 C899 0.930 . S
C885 H873 0.930 . S
C885 C886 1.399 . S
C885 C890 1.399 . S
C886 C885 1.399 . S
C886 C887 1.376 . S
C887 H874 0.930 . S
C887 C886 1.376 . S
C887 C888 1.388 . S
C888 H875 0.930 . S
C888 C887 1.388 . S
C888 C889 1.390 . S
C889 C888 1.390 . S
C889 C890 1.394 . S
C889 C895 1.465 . S
C890 C885 1.399 . S
C890 C889 1.394 . S
C890 C891 1.516 1_556 S
C891 C890 1.516 1_554 S
C891 C892 1.502 . S
C891 C893 1.561 . S
C891 C894 1.526 . S
C892 H876 0.959 . S
C892 H877 0.959 . S
C892 H878 0.961 . S
C892 C891 1.502 . S
C893 H879 0.960 . S
C893 H880 0.961 . S
C893 H881 0.959 . S
C893 C891 1.561 . S
C894 C891 1.526 . S
C894 C895 1.396 1_554 S
C894 C899 1.390 . S
C895 C889 1.465 . S
C895 C894 1.396 1_556 S
C895 C896 1.399 . S
C896 H882 0.929 . S
C896 C895 1.399 . S
C896 C897 1.385 . S
C897 H883 0.931 . S
C897 C896 1.385 . S
C897 C898 1.389 1_556 S
C898 C897 1.389 1_554 S
C898 C899 1.387 . S
C899 H884 0.930 . S
C899 C894 1.390 . S
C899 C898 1.387 . S
H900 C912 0.930 . S
H901 C914 0.930 . S
H902 C915 0.930 . S
H903 C919 0.959 . S
H904 C919 0.959 . S
H905 C919 0.961 . S
H906 C920 0.960 . S
H907 C920 0.961 . S
H908 C920 0.959 . S
H909 C923 0.929 . S
H910 C924 0.931 . S
H911 C926 0.930 . S
C912 H900 0.930 . S
C912 C913 1.399 . S
C912 C917 1.399 . S
C913 C912 1.399 . S
C913 C914 1.376 . S
C914 H901 0.930 . S
C914 C913 1.376 . S
C914 C915 1.388 . S
C915 H902 0.930 . S
C915 C914 1.388 . S
C915 C916 1.390 . S
C916 C915 1.390 . S
C916 C917 1.394 . S
C916 C922 1.465 . S
C917 C912 1.399 . S
C917 C916 1.394 . S
C917 C918 1.516 . S
C918 C917 1.516 . S
C918 C919 1.502 . S
C918 C920 1.561 . S
C918 C921 1.526 . S
C919 H903 0.959 . S
C919 H904 0.959 . S
C919 H905 0.961 . S
C919 C918 1.502 . S
C920 H906 0.960 . S
C920 H907 0.961 . S
C920 H908 0.959 . S
C920 C918 1.561 . S
C921 C918 1.526 . S
C921 C922 1.396 . S
C921 C926 1.390 . S
C922 C916 1.465 . S
C922 C921 1.396 . S
C922 C923 1.399 . S
C923 H909 0.929 . S
C923 C922 1.399 . S
C923 C924 1.385 . S
C924 H910 0.931 . S
C924 C923 1.385 . S
C924 C925 1.389 . S
C925 C924 1.389 . S
C925 C926 1.387 . S
C926 H911 0.930 . S
C926 C921 1.390 . S
C926 C925 1.387 . S
H927 C939 0.930 . S
H928 C941 0.930 . S
H929 C942 0.930 . S
H930 C946 0.959 . S
H931 C946 0.959 . S
H932 C946 0.961 . S
H933 C947 0.960 . S
H934 C947 0.961 . S
H935 C947 0.959 . S
H936 C950 0.929 . S
H937 C951 0.931 . S
H938 C953 0.930 . S
C939 H927 0.930 . S
C939 C940 1.399 . S
C939 C944 1.399 . S
C940 C939 1.399 . S
C940 C941 1.376 . S
C941 H928 0.930 . S
C941 C940 1.376 . S
C941 C942 1.388 . S
C942 H929 0.930 . S
C942 C941 1.388 . S
C942 C943 1.390 . S
C943 C942 1.390 . S
C943 C944 1.394 . S
C943 C949 1.465 . S
C944 C939 1.399 . S
C944 C943 1.394 . S
C944 C945 1.516 . S
C945 C944 1.516 . S
C945 C946 1.502 . S
C945 C947 1.561 . S
C945 C948 1.526 . S
C946 H930 0.959 . S
C946 H931 0.959 . S
C946 H932 0.961 . S
C946 C945 1.502 . S
C947 H933 0.960 . S
C947 H934 0.961 . S
C947 H935 0.959 . S
C947 C945 1.561 . S
C948 C945 1.526 . S
C948 C949 1.396 . S
C948 C953 1.390 . S
C949 C943 1.465 . S
C949 C948 1.396 . S
C949 C950 1.399 . S
C950 H936 0.929 . S
C950 C949 1.399 . S
C950 C951 1.385 . S
C951 H937 0.931 . S
C951 C950 1.385 . S
C951 C952 1.389 . S
C952 C951 1.389 . S
C952 C953 1.387 . S
C953 H938 0.930 . S
C953 C948 1.390 . S
C953 C952 1.387 . S
H954 C966 0.930 . S
H955 C968 0.930 . S
H956 C969 0.930 . S
H957 C973 0.959 . S
H958 C973 0.959 . S
H959 C973 0.961 . S
H960 C974 0.960 . S
H961 C974 0.961 . S
H962 C974 0.959 . S
H963 C977 0.929 . S
H964 C978 0.931 . S
H965 C980 0.930 . S
C966 H954 0.930 . S
C966 C967 1.399 . S
C966 C971 1.399 . S
C967 C966 1.399 . S
C967 C968 1.376 . S
C968 H955 0.930 . S
C968 C967 1.376 . S
C968 C969 1.388 . S
C969 H956 0.930 . S
C969 C968 1.388 . S
C969 C970 1.390 . S
C970 C969 1.390 . S
C970 C971 1.394 . S
C970 C976 1.465 . S
C971 C966 1.399 . S
C971 C970 1.394 . S
C971 C972 1.516 . S
C972 C971 1.516 . S
C972 C973 1.502 . S
C972 C974 1.561 . S
C972 C975 1.526 . S
C973 H957 0.959 . S
C973 H958 0.959 . S
C973 H959 0.961 . S
C973 C972 1.502 . S
C974 H960 0.960 . S
C974 H961 0.961 . S
C974 H962 0.959 . S
C974 C972 1.561 . S
C975 C972 1.526 . S
C975 C976 1.396 . S
C975 C980 1.390 . S
C976 C970 1.465 . S
C976 C975 1.396 . S
C976 C977 1.399 . S
C977 H963 0.929 . S
C977 C976 1.399 . S
C977 C978 1.385 . S
C978 H964 0.931 . S
C978 C977 1.385 . S
C978 C979 1.389 . S
C979 C978 1.389 . S
C979 C980 1.387 . S
C980 H965 0.930 . S
C980 C975 1.390 . S
C980 C979 1.387 . S
H981 C993 0.930 . S
H982 C995 0.930 . S
H983 C996 0.930 . S
H984 C1000 0.959 . S
H985 C1000 0.959 . S
H986 C1000 0.961 . S
H987 C1001 0.960 . S
H988 C1001 0.961 . S
H989 C1001 0.959 . S
H990 C1004 0.929 . S
H991 C1005 0.931 . S
H992 C1007 0.930 . S
C993 H981 0.930 . S
C993 C994 1.399 . S
C993 C998 1.399 . S
C994 C993 1.399 . S
C994 C995 1.376 . S
C995 H982 0.930 . S
C995 C994 1.376 . S
C995 C996 1.388 . S
C996 H983 0.930 . S
C996 C995 1.388 . S
C996 C997 1.390 . S
C997 C996 1.390 . S
C997 C998 1.394 . S
C997 C1003 1.465 . S
C998 C993 1.399 . S
C998 C997 1.394 . S
C998 C999 1.516 . S
C999 C998 1.516 . S
C999 C1000 1.502 . S
C999 C1001 1.561 . S
C999 C1002 1.526 . S
C1000 H984 0.959 . S
C1000 H985 0.959 . S
C1000 H986 0.961 . S
C1000 C999 1.502 . S
C1001 H987 0.960 . S
C1001 H988 0.961 . S
C1001 H989 0.959 . S
C1001 C999 1.561 . S
C1002 C999 1.526 . S
C1002 C1003 1.396 . S
C1002 C1007 1.390 . S
C1003 C997 1.465 . S
C1003 C1002 1.396 . S
C1003 C1004 1.399 . S
C1004 H990 0.929 . S
C1004 C1003 1.399 . S
C1004 C1005 1.385 . S
C1005 H991 0.931 . S
C1005 C1004 1.385 . S
C1005 C1006 1.389 . S
C1006 C1005 1.389 . S
C1006 C1007 1.387 . S
C1007 H992 0.930 . S
C1007 C1002 1.390 . S
C1007 C1006 1.387 . S
H1008 C1020 0.930 1_565 S
H1009 C1022 0.930 . S
H1010 C1023 0.930 . S
H1011 C1027 0.959 . S
H1012 C1027 0.959 . S
H1013 C1027 0.961 . S
H1014 C1028 0.960 . S
H1015 C1028 0.961 . S
H1016 C1028 0.959 . S
H1017 C1031 0.929 . S
H1018 C1032 0.931 . S
H1019 C1034 0.930 . S
C1020 H1008 0.930 1_545 S
C1020 C1021 1.399 . S
C1020 C1025 1.399 . S
C1021 C1020 1.399 . S
C1021 C1022 1.376 . S
C1022 H1009 0.930 . S
C1022 C1021 1.376 . S
C1022 C1023 1.388 . S
C1023 H1010 0.930 . S
C1023 C1022 1.388 . S
C1023 C1024 1.390 . S
C1024 C1023 1.390 . S
C1024 C1025 1.394 . S
C1024 C1030 1.465 . S
C1025 C1020 1.399 . S
C1025 C1024 1.394 . S
C1025 C1026 1.516 1_545 S
C1026 C1025 1.516 1_565 S
C1026 C1027 1.502 . S
C1026 C1028 1.561 . S
C1026 C1029 1.526 . S
C1027 H1011 0.959 . S
C1027 H1012 0.959 . S
C1027 H1013 0.961 . S
C1027 C1026 1.502 . S
C1028 H1014 0.960 . S
C1028 H1015 0.961 . S
C1028 H1016 0.959 . S
C1028 C1026 1.561 . S
C1029 C1026 1.526 . S
C1029 C1030 1.396 1_565 S
C1029 C1034 1.390 . S
C1030 C1024 1.465 . S
C1030 C1029 1.396 1_545 S
C1030 C1031 1.399 . S
C1031 H1017 0.929 . S
C1031 C1030 1.399 . S
C1031 C1032 1.385 . S
C1032 H1018 0.931 . S
C1032 C1031 1.385 . S
C1032 C1033 1.389 . S
C1033 C1032 1.389 . S
C1033 C1034 1.387 1_545 S
C1034 H1019 0.930 . S
C1034 C1029 1.390 . S
C1034 C1033 1.387 1_565 S
H1035 C1047 0.930 . S
H1036 C1049 0.930 . S
H1037 C1050 0.930 . S
H1038 C1054 0.959 . S
H1039 C1054 0.959 . S
H1040 C1054 0.961 . S
H1041 C1055 0.960 . S
H1042 C1055 0.961 . S
H1043 C1055 0.959 . S
H1044 C1058 0.929 . S
H1045 C1059 0.931 . S
H1046 C1061 0.930 . S
C1047 H1035 0.930 . S
C1047 C1048 1.399 . S
C1047 C1052 1.399 . S
C1048 C1047 1.399 . S
C1048 C1049 1.376 . S
C1049 H1036 0.930 . S
C1049 C1048 1.376 . S
C1049 C1050 1.388 . S
C1050 H1037 0.930 . S
C1050 C1049 1.388 . S
C1050 C1051 1.390 . S
C1051 C1050 1.390 . S
C1051 C1052 1.394 . S
C1051 C1057 1.465 . S
C1052 C1047 1.399 . S
C1052 C1051 1.394 . S
C1052 C1053 1.516 . S
C1053 C1052 1.516 . S
C1053 C1054 1.502 1_655 S
C1053 C1055 1.561 . S
C1053 C1056 1.526 . S
C1054 H1038 0.959 . S
C1054 H1039 0.959 . S
C1054 H1040 0.961 . S
C1054 C1053 1.502 1_455 S
C1055 H1041 0.960 . S
C1055 H1042 0.961 . S
C1055 H1043 0.959 . S
C1055 C1053 1.561 . S
C1056 C1053 1.526 . S
C1056 C1057 1.396 . S
C1056 C1061 1.390 . S
C1057 C1051 1.465 . S
C1057 C1056 1.396 . S
C1057 C1058 1.399 . S
C1058 H1044 0.929 . S
C1058 C1057 1.399 . S
C1058 C1059 1.385 . S
C1059 H1045 0.931 . S
C1059 C1058 1.385 . S
C1059 C1060 1.389 . S
C1060 C1059 1.389 . S
C1060 C1061 1.387 . S
C1061 H1046 0.930 . S
C1061 C1056 1.390 . S
C1061 C1060 1.387 . S
H1062 C1074 0.930 . S
H1063 C1076 0.930 . S
H1064 C1077 0.930 . S
H1065 C1081 0.959 . S
H1066 C1081 0.959 . S
H1067 C1081 0.961 . S
H1068 C1082 0.960 . S
H1069 C1082 0.961 . S
H1070 C1082 0.959 . S
H1071 C1085 0.929 . S
H1072 C1086 0.931 . S
H1073 C1088 0.930 . S
C1074 H1062 0.930 . S
C1074 C1075 1.399 . S
C1074 C1079 1.399 . S
C1075 C1074 1.399 . S
C1075 C1076 1.376 . S
C1076 H1063 0.930 . S
C1076 C1075 1.376 . S
C1076 C1077 1.388 . S
C1077 H1064 0.930 . S
C1077 C1076 1.388 . S
C1077 C1078 1.390 . S
C1078 C1077 1.390 . S
C1078 C1079 1.394 . S
C1078 C1084 1.465 . S
C1079 C1074 1.399 . S
C1079 C1078 1.394 . S
C1079 C1080 1.516 . S
C1080 C1079 1.516 . S
C1080 C1081 1.502 . S
C1080 C1082 1.561 . S
C1080 C1083 1.526 . S
C1081 H1065 0.959 . S
C1081 H1066 0.959 . S
C1081 H1067 0.961 . S
C1081 C1080 1.502 . S
C1082 H1068 0.960 . S
C1082 H1069 0.961 . S
C1082 H1070 0.959 . S
C1082 C1080 1.561 . S
C1083 C1080 1.526 . S
C1083 C1084 1.396 . S
C1083 C1088 1.390 . S
C1084 C1078 1.465 . S
C1084 C1083 1.396 . S
C1084 C1085 1.399 . S
C1085 H1071 0.929 . S
C1085 C1084 1.399 . S
C1085 C1086 1.385 . S
C1086 H1072 0.931 . S
C1086 C1085 1.385 . S
C1086 C1087 1.389 . S
C1087 C1086 1.389 . S
C1087 C1088 1.387 . S
C1088 H1073 0.930 . S
C1088 C1083 1.390 . S
C1088 C1087 1.387 . S
H1089 C1101 0.930 . S
H1090 C1103 0.930 . S
H1091 C1104 0.930 . S
H1092 C1108 0.959 1_565 S
H1093 C1108 0.959 . S
H1094 C1108 0.961 . S
H1095 C1109 0.960 . S
H1096 C1109 0.961 . S
H1097 C1109 0.959 . S
H1098 C1112 0.929 . S
H1099 C1113 0.931 . S
H1100 C1115 0.930 . S
C1101 H1089 0.930 . S
C1101 C1102 1.399 1_545 S
C1101 C1106 1.393 . S
C1102 C1101 1.399 1_565 S
C1102 C1103 1.376 . S
C1103 H1090 0.930 . S
C1103 C1102 1.376 . S
C1103 C1104 1.388 . S
C1104 H1091 0.930 . S
C1104 C1103 1.388 . S
C1104 C1105 1.390 . S
C1105 C1104 1.390 . S
C1105 C1106 1.388 1_565 S
C1105 C1111 1.465 . S
C1106 C1101 1.393 . S
C1106 C1105 1.388 1_545 S
C1106 C1107 1.529 . S
C1107 C1106 1.529 . S
C1107 C1108 1.502 . S
C1107 C1109 1.561 . S
C1107 C1110 1.526 1_545 S
C1108 H1092 0.959 1_545 S
C1108 H1093 0.959 . S
C1108 H1094 0.961 . S
C1108 C1107 1.502 . S
C1109 H1095 0.960 . S
C1109 H1096 0.961 . S
C1109 H1097 0.959 . S
C1109 C1107 1.561 . S
C1110 C1107 1.526 1_565 S
C1110 C1111 1.396 . S
C1110 C1115 1.390 . S
C1111 C1105 1.465 . S
C1111 C1110 1.396 . S
C1111 C1112 1.399 . S
C1112 H1098 0.929 . S
C1112 C1111 1.399 . S
C1112 C1113 1.385 . S
C1113 H1099 0.931 . S
C1113 C1112 1.385 . S
C1113 C1114 1.389 . S
C1114 C1113 1.389 . S
C1114 C1115 1.387 . S
C1115 H1100 0.930 . S
C1115 C1110 1.390 . S
C1115 C1114 1.387 . S
H1116 C1128 0.930 . S
H1117 C1130 0.930 . S
H1118 C1131 0.930 . S
H1119 C1135 0.959 . S
H1120 C1135 0.959 . S
H1121 C1135 0.961 . S
H1122 C1136 0.960 . S
H1123 C1136 0.961 . S
H1124 C1136 0.959 . S
H1125 C1139 0.929 . S
H1126 C1140 0.931 . S
H1127 C1142 0.930 1_655 S
C1128 H1116 0.930 . S
C1128 C1129 1.399 . S
C1128 C1133 1.399 . S
C1129 C1128 1.399 . S
C1129 C1130 1.376 . S
C1130 H1117 0.930 . S
C1130 C1129 1.376 . S
C1130 C1131 1.388 . S
C1131 H1118 0.930 . S
C1131 C1130 1.388 . S
C1131 C1132 1.390 . S
C1132 C1131 1.390 . S
C1132 C1133 1.394 . S
C1132 C1138 1.465 . S
C1133 C1128 1.399 . S
C1133 C1132 1.394 . S
C1133 C1134 1.516 . S
C1134 C1133 1.516 . S
C1134 C1135 1.502 1_455 S
C1134 C1136 1.561 . S
C1134 C1137 1.526 . S
C1135 H1119 0.959 . S
C1135 H1120 0.959 . S
C1135 H1121 0.961 . S
C1135 C1134 1.502 1_655 S
C1136 H1122 0.960 . S
C1136 H1123 0.961 . S
C1136 H1124 0.959 . S
C1136 C1134 1.561 . S
C1137 C1134 1.526 . S
C1137 C1138 1.396 . S
C1137 C1142 1.390 . S
C1138 C1132 1.465 . S
C1138 C1137 1.396 . S
C1138 C1139 1.399 . S
C1139 H1125 0.929 . S
C1139 C1138 1.399 . S
C1139 C1140 1.385 . S
C1140 H1126 0.931 . S
C1140 C1139 1.385 . S
C1140 C1141 1.389 . S
C1141 C1140 1.389 . S
C1141 C1142 1.387 . S
C1142 H1127 0.930 1_455 S
C1142 C1137 1.390 . S
C1142 C1141 1.387 . S
H1143 C1155 0.930 . S
H1144 C1157 0.930 . S
H1145 C1158 0.930 . S
H1146 C1162 0.959 . S
H1147 C1162 0.959 . S
H1148 C1162 0.961 . S
H1149 C1163 0.960 . S
H1150 C1163 0.961 . S
H1151 C1163 0.959 . S
H1152 C1166 0.929 . S
H1153 C1167 0.931 . S
H1154 C1169 0.930 . S
C1155 H1143 0.930 . S
C1155 C1156 1.399 . S
C1155 C1160 1.399 . S
C1156 C1155 1.399 . S
C1156 C1157 1.376 . S
C1157 H1144 0.930 . S
C1157 C1156 1.376 . S
C1157 C1158 1.388 . S
C1158 H1145 0.930 . S
C1158 C1157 1.388 . S
C1158 C1159 1.390 . S
C1159 C1158 1.390 . S
C1159 C1160 1.394 . S
C1159 C1165 1.465 . S
C1160 C1155 1.399 . S
C1160 C1159 1.394 . S
C1160 C1161 1.516 . S
C1161 C1160 1.516 . S
C1161 C1162 1.502 . S
C1161 C1163 1.561 . S
C1161 C1164 1.526 . S
C1162 H1146 0.959 . S
C1162 H1147 0.959 . S
C1162 H1148 0.961 . S
C1162 C1161 1.502 . S
C1163 H1149 0.960 . S
C1163 H1150 0.961 . S
C1163 H1151 0.959 . S
C1163 C1161 1.561 . S
C1164 C1161 1.526 . S
C1164 C1165 1.396 . S
C1164 C1169 1.390 . S
C1165 C1159 1.465 . S
C1165 C1164 1.396 . S
C1165 C1166 1.399 . S
C1166 H1152 0.929 . S
C1166 C1165 1.399 . S
C1166 C1167 1.385 . S
C1167 H1153 0.931 . S
C1167 C1166 1.385 . S
C1167 C1168 1.389 . S
C1168 C1167 1.389 . S
C1168 C1169 1.387 . S
C1169 H1154 0.930 . S
C1169 C1164 1.390 . S
C1169 C1168 1.387 . S
H1170 C1182 0.930 . S
H1171 C1184 0.930 . S
H1172 C1185 0.930 . S
H1173 C1189 0.959 . S
H1174 C1189 0.959 . S
H1175 C1189 0.961 . S
H1176 C1190 0.960 . S
H1177 C1190 0.961 . S
H1178 C1190 0.959 . S
H1179 C1193 0.929 . S
H1180 C1194 0.931 . S
H1181 C1196 0.930 . S
C1182 H1170 0.930 . S
C1182 C1183 1.399 . S
C1182 C1187 1.399 . S
C1183 C1182 1.399 . S
C1183 C1184 1.376 . S
C1184 H1171 0.930 . S
C1184 C1183 1.376 . S
C1184 C1185 1.388 . S
C1185 H1172 0.930 . S
C1185 C1184 1.388 . S
C1185 C1186 1.390 . S
C1186 C1185 1.390 . S
C1186 C1187 1.394 . S
C1186 C1192 1.465 . S
C1187 C1182 1.399 . S
C1187 C1186 1.394 . S
C1187 C1188 1.516 . S
C1188 C1187 1.516 . S
C1188 C1189 1.502 . S
C1188 C1190 1.561 . S
C1188 C1191 1.526 . S
C1189 H1173 0.959 . S
C1189 H1174 0.959 . S
C1189 H1175 0.961 . S
C1189 C1188 1.502 . S
C1190 H1176 0.960 . S
C1190 H1177 0.961 . S
C1190 H1178 0.959 . S
C1190 C1188 1.561 . S
C1191 C1188 1.526 . S
C1191 C1192 1.396 . S
C1191 C1196 1.390 . S
C1192 C1186 1.465 . S
C1192 C1191 1.396 . S
C1192 C1193 1.399 . S
C1193 H1179 0.929 . S
C1193 C1192 1.399 . S
C1193 C1194 1.385 . S
C1194 H1180 0.931 . S
C1194 C1193 1.385 . S
C1194 C1195 1.389 . S
C1195 C1194 1.389 . S
C1195 C1196 1.387 . S
C1196 H1181 0.930 . S
C1196 C1191 1.390 . S
C1196 C1195 1.387 . S
H1197 C1209 0.930 . S
H1198 C1211 0.930 . S
H1199 C1212 0.930 . S
H1200 C1216 0.959 . S
H1201 C1216 0.959 . S
H1202 C1216 0.961 . S
H1203 C1217 0.960 . S
H1204 C1217 0.961 . S
H1205 C1217 0.959 . S
H1206 C1220 0.929 . S
H1207 C1221 0.931 . S
H1208 C1223 0.930 . S
C1209 H1197 0.930 . S
C1209 C1210 1.399 . S
C1209 C1214 1.399 . S
C1210 C1209 1.399 . S
C1210 C1211 1.376 . S
C1211 H1198 0.930 . S
C1211 C1210 1.376 . S
C1211 C1212 1.388 . S
C1212 H1199 0.930 . S
C1212 C1211 1.388 . S
C1212 C1213 1.390 . S
C1213 C1212 1.390 . S
C1213 C1214 1.394 . S
C1213 C1219 1.465 . S
C1214 C1209 1.399 . S
C1214 C1213 1.394 . S
C1214 C1215 1.516 . S
C1215 C1214 1.516 . S
C1215 C1216 1.502 . S
C1215 C1217 1.561 . S
C1215 C1218 1.526 . S
C1216 H1200 0.959 . S
C1216 H1201 0.959 . S
C1216 H1202 0.961 . S
C1216 C1215 1.502 . S
C1217 H1203 0.960 . S
C1217 H1204 0.961 . S
C1217 H1205 0.959 . S
C1217 C1215 1.561 . S
C1218 C1215 1.526 . S
C1218 C1219 1.396 . S
C1218 C1223 1.390 . S
C1219 C1213 1.465 . S
C1219 C1218 1.396 . S
C1219 C1220 1.399 . S
C1220 H1206 0.929 . S
C1220 C1219 1.399 . S
C1220 C1221 1.385 . S
C1221 H1207 0.931 . S
C1221 C1220 1.385 . S
C1221 C1222 1.389 . S
C1222 C1221 1.389 . S
C1222 C1223 1.387 . S
C1223 H1208 0.930 . S
C1223 C1218 1.390 . S
C1223 C1222 1.387 . S
C265 C7 1.705 . S
C277 C49 1.660 . S
C292 C21 1.710 . S
C304 C63 1.649 . S
C319 C77 1.666 . S
C331 C35 1.682 . S
C346 C91 1.709 . S
C358 C133 1.653 . S
C373 C105 1.708 . S
C385 C147 1.649 . S
C400 C161 1.656 . S
C412 C119 1.707 . S
C427 C217 1.660 . S
C439 C175 1.689 . S
C454 C231 1.687 . S
C466 C189 1.664 . S
C481 C245 1.706 . S
C493 C203 1.649 . S
C508 C11 1.686 . S
C520 C137 1.675 . S
C535 C25 1.701 . S
C547 C151 1.650 . S
C562 C165 1.695 . S
C574 C39 1.665 . S
C589 C53 1.649 . S
C601 C179 1.701 . S
C616 C67 1.649 . S
C628 C193 1.702 . S
C643 C81 1.655 . S
C655 C207 1.691 . S
C670 C95 1.653 . S
C682 C221 1.702 . S
C697 C109 1.702 . S
C709 C235 1.650 . S
C724 C249 1.696 . S
C736 C123 1.664 . S
C751 C8 0.511 . S
C763 C69 0.687 . S
C778 C22 0.692 . S
C790 C83 0.497 . S
C805 C36 0.499 . S
C817 C55 0.694 . S
C832 C50 0.697 . S
C844 C27 0.493 . S
C859 C41 0.661 . S
C871 C64 0.594 . S
C886 C78 0.653 . S
C898 C13 0.499 . S
C913 C92 0.495 . S
C925 C153 0.696 . S
C940 C167 0.674 . S
C952 C106 0.533 . S
C967 C139 0.513 . S
C979 C120 0.679 . S
C994 C111 0.529 . S
C1006 C134 0.616 . S
C1021 C148 0.513 . S
C1033 C125 0.637 1_545 S
C1048 C162 0.669 . S
C1060 C97 0.489 1_655 S
C1075 C237 0.679 . S
C1087 C176 0.509 . S
C1102 C251 0.706 1_565 S
C1114 C190 0.484 . S
C1129 C204 0.487 . S
C1141 C223 0.701 1_455 S
C1156 C195 0.705 . S
C1168 C218 0.509 . S
C1183 C209 0.494 . S
C1195 C232 0.656 . S
C1210 C181 0.669 . S
C1222 C246 0.491 . S
