# Generated by pormake.
# Topology ukb, (4)-cn, num edge types: 1
# Building blocks:
#     Node 0, Type 0, BuildingBlock: QUQFOY_clean_sbu_1, # of connection points: 4
#     Node 1, Type 0, BuildingBlock: QUQFOY_clean_sbu_1, # of connection points: 4
#     Node 2, Type 0, BuildingBlock: QUQFOY_clean_sbu_1, # of connection points: 4
#     Node 3, Type 0, BuildingBlock: QUQFOY_clean_sbu_1, # of connection points: 4
#     Node 4, Type 0, BuildingBlock: QUQFOY_clean_sbu_1, # of connection points: 4
#     Node 5, Type 0, BuildingBlock: QUQFOY_clean_sbu_1, # of connection points: 4
#     Node 6, Type 0, BuildingBlock: QUQFOY_clean_sbu_1, # of connection points: 4
#     Node 7, Type 0, BuildingBlock: QUQFOY_clean_sbu_1, # of connection points: 4
#     Node 8, Type 0, BuildingBlock: QUQFOY_clean_sbu_1, # of connection points: 4
#     Node 9, Type 0, BuildingBlock: QUQFOY_clean_sbu_1, # of connection points: 4
#     Node 10, Type 0, BuildingBlock: QUQFOY_clean_sbu_1, # of connection points: 4
#     Node 11, Type 0, BuildingBlock: QUQFOY_clean_sbu_1, # of connection points: 4
#     Node 12, Type 0, BuildingBlock: QUQFOY_clean_sbu_1, # of connection points: 4
#     Node 13, Type 0, BuildingBlock: QUQFOY_clean_sbu_1, # of connection points: 4
#     Node 14, Type 0, BuildingBlock: QUQFOY_clean_sbu_1, # of connection points: 4
#     Node 15, Type 0, BuildingBlock: QUQFOY_clean_sbu_1, # of connection points: 4
#     Edge 16, Type (0, 0), BuildingBlock: MIFKUJ_clean_linker_0, # of connection points: 2
#     Edge 17, Type (0, 0), BuildingBlock: MIFKUJ_clean_linker_0, # of connection points: 2
#     Edge 18, Type (0, 0), BuildingBlock: MIFKUJ_clean_linker_0, # of connection points: 2
#     Edge 19, Type (0, 0), BuildingBlock: MIFKUJ_clean_linker_0, # of connection points: 2
#     Edge 20, Type (0, 0), BuildingBlock: MIFKUJ_clean_linker_0, # of connection points: 2
#     Edge 21, Type (0, 0), BuildingBlock: MIFKUJ_clean_linker_0, # of connection points: 2
#     Edge 22, Type (0, 0), BuildingBlock: MIFKUJ_clean_linker_0, # of connection points: 2
#     Edge 23, Type (0, 0), BuildingBlock: MIFKUJ_clean_linker_0, # of connection points: 2
#     Edge 24, Type (0, 0), BuildingBlock: MIFKUJ_clean_linker_0, # of connection points: 2
#     Edge 25, Type (0, 0), BuildingBlock: MIFKUJ_clean_linker_0, # of connection points: 2
#     Edge 26, Type (0, 0), BuildingBlock: MIFKUJ_clean_linker_0, # of connection points: 2
#     Edge 27, Type (0, 0), BuildingBlock: MIFKUJ_clean_linker_0, # of connection points: 2
#     Edge 28, Type (0, 0), BuildingBlock: MIFKUJ_clean_linker_0, # of connection points: 2
#     Edge 29, Type (0, 0), BuildingBlock: MIFKUJ_clean_linker_0, # of connection points: 2
#     Edge 30, Type (0, 0), BuildingBlock: MIFKUJ_clean_linker_0, # of connection points: 2
#     Edge 31, Type (0, 0), BuildingBlock: MIFKUJ_clean_linker_0, # of connection points: 2
#     Edge 32, Type (0, 0), BuildingBlock: MIFKUJ_clean_linker_0, # of connection points: 2
#     Edge 33, Type (0, 0), BuildingBlock: MIFKUJ_clean_linker_0, # of connection points: 2
#     Edge 34, Type (0, 0), BuildingBlock: MIFKUJ_clean_linker_0, # of connection points: 2
#     Edge 35, Type (0, 0), BuildingBlock: MIFKUJ_clean_linker_0, # of connection points: 2
#     Edge 36, Type (0, 0), BuildingBlock: MIFKUJ_clean_linker_0, # of connection points: 2
#     Edge 37, Type (0, 0), BuildingBlock: MIFKUJ_clean_linker_0, # of connection points: 2
#     Edge 38, Type (0, 0), BuildingBlock: MIFKUJ_clean_linker_0, # of connection points: 2
#     Edge 39, Type (0, 0), BuildingBlock: MIFKUJ_clean_linker_0, # of connection points: 2
#     Edge 40, Type (0, 0), BuildingBlock: MIFKUJ_clean_linker_0, # of connection points: 2
#     Edge 41, Type (0, 0), BuildingBlock: MIFKUJ_clean_linker_0, # of connection points: 2
#     Edge 42, Type (0, 0), BuildingBlock: MIFKUJ_clean_linker_0, # of connection points: 2
#     Edge 43, Type (0, 0), BuildingBlock: MIFKUJ_clean_linker_0, # of connection points: 2
#     Edge 44, Type (0, 0), BuildingBlock: MIFKUJ_clean_linker_0, # of connection points: 2
#     Edge 45, Type (0, 0), BuildingBlock: MIFKUJ_clean_linker_0, # of connection points: 2
#     Edge 46, Type (0, 0), BuildingBlock: MIFKUJ_clean_linker_0, # of connection points: 2
#     Edge 47, Type (0, 0), BuildingBlock: MIFKUJ_clean_linker_0, # of connection points: 2
# Relax obj value: 0.040
# Max RMSD: 0.068
# Mean RMSD: 0.068
data_MOF--net-ukb--node1-QUQFOY_clean_sbu_1--edge1-MIFKUJ_clean_linker_0
_symmetry_space_group_name_H-M    P1
_symmetry_Int_Tables_number       1
_symmetry_cell_setting            triclinic
loop_
_symmetry_equiv_pos_as_xyz
'x, y, z'
_cell_length_a     58.892249
_cell_length_b     58.874639
_cell_length_c     54.768696
_cell_angle_alpha  90.017454
_cell_angle_beta   90.005333
_cell_angle_gamma 89.996716
loop_
_atom_site_label
_atom_site_type_symbol
_atom_site_fract_x
_atom_site_fract_y
_atom_site_fract_z
_atom_type_partial_charge
O0 O 0.56019 0.22818 0.18702 0.0
Cd1 Cd 0.55686 0.20054 0.16425 0.0
Cd2 Cd 0.53213 0.18486 0.2068 0.0
O3 O 0.53913 0.21764 0.21841 0.0
O4 O 0.57054 0.21203 0.13325 0.0
O5 O 0.53466 0.20167 0.13588 0.0
C6 C 0.55105 0.20981 0.1229 0.0
C7 C 0.49723 0.16844 0.21778 0.0
C8 C 0.55173 0.23223 0.20791 0.0
C9 C 0.57507 0.15975 0.19111 0.0
O10 O 0.55889 0.16217 0.20626 0.0
O11 O 0.57683 0.17275 0.17267 0.0
O12 O 0.51277 0.17259 0.23368 0.0
O13 O 0.50115 0.17423 0.19543 0.0
O14 O 0.33497 0.55706 0.70995 0.0
Cd15 Cd 0.31226 0.53037 0.70899 0.0
Cd16 Cd 0.29845 0.55465 0.66604 0.0
O17 O 0.32699 0.57348 0.67473 0.0
O18 O 0.3237 0.5098 0.7352 0.0
O19 O 0.32318 0.49999 0.6963 0.0
C20 C 0.32836 0.49504 0.71859 0.0
C21 C 0.29002 0.54898 0.62447 0.0
C22 C 0.33881 0.57238 0.69414 0.0
C23 C 0.26534 0.55043 0.70859 0.0
O24 O 0.27035 0.55912 0.68804 0.0
O25 O 0.2792 0.53727 0.7194 0.0
O26 O 0.28834 0.56861 0.63464 0.0
O27 O 0.29701 0.53231 0.63782 0.0
O28 O 0.94459 0.26977 0.18734 0.0
Cd29 Cd 0.94762 0.29793 0.1652 0.0
Cd30 Cd 0.97414 0.31074 0.20756 0.0
O31 O 0.96885 0.27713 0.21706 0.0
O32 O 0.93239 0.28635 0.13511 0.0
O33 O 0.9682 0.29736 0.13545 0.0
C34 C 0.95128 0.28881 0.12361 0.0
C35 C 0.00913 0.32781 0.21683 0.0
C36 C 0.95474 0.26386 0.2068 0.0
C37 C 0.93087 0.33718 0.19499 0.0
O38 O 0.94677 0.33265 0.20994 0.0
O39 O 0.929 0.32623 0.17507 0.0
O40 O 0.9948 0.32243 0.23361 0.0
O41 O 0.00396 0.32278 0.19454 0.0
O42 O 0.16889 0.94535 0.71172 0.0
Cd43 Cd 0.19114 0.97225 0.70839 0.0
Cd44 Cd 0.20125 0.94759 0.66505 0.0
O45 O 0.17214 0.93023 0.67501 0.0
O46 O 0.18103 0.99311 0.735 0.0
O47 O 0.179 0.00223 0.69597 0.0
C48 C 0.17499 0.00745 0.71847 0.0
C49 C 0.20834 0.95344 0.62325 0.0
C50 C 0.16267 0.93087 0.69586 0.0
C51 C 0.23712 0.95119 0.70507 0.0
O52 O 0.23003 0.94161 0.68569 0.0
O53 O 0.2249 0.9658 0.71602 0.0
O54 O 0.20935 0.93358 0.633 0.0
O55 O 0.20271 0.97024 0.63716 0.0
O56 O 0.56036 0.27364 0.81364 0.0
Cd57 Cd 0.5548 0.30174 0.8355 0.0
Cd58 Cd 0.53081 0.31434 0.79211 0.0
O59 O 0.53841 0.28141 0.78201 0.0
O60 O 0.56871 0.2923 0.86718 0.0
O61 O 0.53215 0.29951 0.86335 0.0
C62 C 0.54889 0.29325 0.87701 0.0
C63 C 0.49512 0.32989 0.78316 0.0
C64 C 0.55193 0.26809 0.79309 0.0
C65 C 0.57169 0.3423 0.80725 0.0
O66 O 0.55704 0.33747 0.79103 0.0
O67 O 0.57258 0.33106 0.82706 0.0
O68 O 0.50973 0.32563 0.76628 0.0
O69 O 0.50041 0.32447 0.80531 0.0
O70 O 0.16439 0.55664 0.2917 0.0
Cd71 Cd 0.18753 0.53052 0.29583 0.0
Cd72 Cd 0.19608 0.55636 0.33798 0.0
O73 O 0.16615 0.57226 0.32828 0.0
O74 O 0.17854 0.50903 0.26937 0.0
O75 O 0.17615 0.50031 0.30847 0.0
C76 C 0.17271 0.4947 0.28597 0.0
C77 C 0.20449 0.55017 0.37941 0.0
C78 C 0.15719 0.57103 0.3072 0.0
C79 C 0.23207 0.55412 0.29831 0.0
O80 O 0.22409 0.56418 0.31697 0.0
O81 O 0.22114 0.538 0.28828 0.0
O82 O 0.20411 0.57024 0.37009 0.0
O83 O 0.19925 0.53336 0.36535 0.0
O84 O 0.94714 0.23472 0.80772 0.0
Cd85 Cd 0.94705 0.20686 0.83073 0.0
Cd86 Cd 0.97095 0.18935 0.78843 0.0
O87 O 0.96555 0.22178 0.77543 0.0
O88 O 0.93326 0.22086 0.86045 0.0
O89 O 0.96749 0.20563 0.86059 0.0
C90 C 0.95163 0.21627 0.87216 0.0
C91 C 0.00578 0.17146 0.78052 0.0
C92 C 0.95503 0.23765 0.78634 0.0
C93 C 0.92667 0.16684 0.80382 0.0
O94 O 0.94316 0.16821 0.78891 0.0
O95 O 0.9254 0.18018 0.82207 0.0
O96 O 0.99121 0.17521 0.76347 0.0
O97 O 1.00085 0.17838 0.80227 0.0
O98 O 0.33545 0.94245 0.2913 0.0
Cd99 Cd 0.31312 0.96943 0.29385 0.0
Cd100 Cd 0.30182 0.94498 0.33673 0.0
O101 O 0.3312 0.92757 0.32801 0.0
O102 O 0.32414 0.9907 0.26808 0.0
O103 O 0.32478 0.99916 0.30736 0.0
C104 C 0.32953 0.00477 0.28513 0.0
C105 C 0.29286 0.95121 0.37803 0.0
C106 C 0.34126 0.92808 0.30747 0.0
C107 C 0.26702 0.94866 0.29575 0.0
O108 O 0.27369 0.93892 0.31518 0.0
O109 O 0.27948 0.96332 0.28522 0.0
O110 O 0.29232 0.93126 0.36844 0.0
O111 O 0.29933 0.96785 0.36434 0.0
O112 O 0.44302 0.83393 0.79678 0.0
Cd113 Cd 0.46933 0.81071 0.79746 0.0
Cd114 Cd 0.44357 0.79624 0.83926 0.0
O115 O 0.42387 0.82388 0.82974 0.0
O116 O 0.48934 0.82273 0.77108 0.0
O117 O 0.50013 0.82101 0.8096 0.0
C118 C 0.5045 0.82692 0.78738 0.0
C119 C 0.45005 0.78899 0.88084 0.0
C120 C 0.42643 0.83672 0.8113 0.0
C121 C 0.44946 0.76338 0.79696 0.0
O122 O 0.44043 0.76792 0.81747 0.0
O123 O 0.46234 0.77771 0.78646 0.0
O124 O 0.43034 0.78637 0.87109 0.0
O125 O 0.46631 0.79618 0.86703 0.0
O126 O 0.66767 0.43819 0.29285 0.0
Cd127 Cd 0.68901 0.46587 0.29171 0.0
Cd128 Cd 0.70576 0.44326 0.33578 0.0
O129 O 0.67934 0.42145 0.32675 0.0
O130 O 0.67567 0.48535 0.26559 0.0
O131 O 0.67762 0.49612 0.30417 0.0
C132 C 0.67139 0.5004 0.28202 0.0
C133 C 0.71468 0.44773 0.37738 0.0
C134 C 0.66615 0.42218 0.30834 0.0
C135 C 0.73765 0.45063 0.29212 0.0
O136 O 0.73416 0.44342 0.31366 0.0
O137 O 0.72193 0.46032 0.28013 0.0
O138 O 0.71912 0.42929 0.36573 0.0
O139 O 0.70434 0.4637 0.36567 0.0
O140 O 0.05982 0.66847 0.79379 0.0
Cd141 Cd 0.03262 0.69044 0.79357 0.0
Cd142 Cd 0.05632 0.70678 0.83636 0.0
O143 O 0.07692 0.67934 0.82774 0.0
O144 O 0.01236 0.67731 0.76802 0.0
O145 O 0.00249 0.67966 0.80684 0.0
C146 C 0.99765 0.67328 0.78487 0.0
C147 C 0.05079 0.71551 0.87787 0.0
C148 C 0.07578 0.66632 0.80923 0.0
C149 C 0.04972 0.73861 0.79289 0.0
O150 O 0.05793 0.735 0.81401 0.0
O151 O 0.03853 0.72326 0.78185 0.0
O152 O 0.07006 0.71843 0.86726 0.0
O153 O 0.03447 0.70699 0.86505 0.0
O154 O 0.83993 0.058 0.2955 0.0
Cd155 Cd 0.81572 0.03261 0.29775 0.0
Cd156 Cd 0.80377 0.05932 0.33905 0.0
O157 O 0.83292 0.07669 0.32967 0.0
O158 O 0.82606 0.01048 0.27247 0.0
O159 O 0.82535 0.00236 0.31182 0.0
C160 C 0.83027 0.99629 0.28977 0.0
C161 C 0.79541 0.05307 0.38045 0.0
C162 C 0.84461 0.0739 0.31039 0.0
C163 C 0.76992 0.05521 0.29754 0.0
O164 O 0.77589 0.06498 0.31722 0.0
O165 O 0.78266 0.04042 0.28759 0.0
O166 O 0.79467 0.07304 0.37091 0.0
O167 O 0.80156 0.03642 0.36659 0.0
O168 O 0.44456 0.66574 0.21319 0.0
Cd169 Cd 0.47206 0.68732 0.21281 0.0
Cd170 Cd 0.4476 0.70405 0.17072 0.0
O171 O 0.42626 0.67748 0.1803 0.0
O172 O 0.49257 0.67388 0.23796 0.0
O173 O 0.5018 0.67601 0.19895 0.0
C174 C 0.5069 0.66957 0.22082 0.0
C175 C 0.45243 0.71221 0.129 0.0
C176 C 0.42788 0.66423 0.19856 0.0
C177 C 0.45585 0.73584 0.21385 0.0
O178 O 0.44737 0.73245 0.19282 0.0
O179 O 0.46675 0.72022 0.22478 0.0
O180 O 0.43354 0.7159 0.14012 0.0
O181 O 0.46873 0.70321 0.14144 0.0
O182 O 0.83285 0.44474 0.71325 0.0
Cd183 Cd 0.812 0.47277 0.71388 0.0
Cd184 Cd 0.79422 0.44887 0.67099 0.0
O185 O 0.82106 0.42744 0.67971 0.0
O186 O 0.82583 0.49217 0.73977 0.0
O187 O 0.82389 0.50277 0.70117 0.0
C188 C 0.83029 0.50706 0.72325 0.0
C189 C 0.78477 0.45279 0.6295 0.0
C190 C 0.83432 0.42849 0.69804 0.0
C191 C 0.76332 0.45766 0.71517 0.0
O192 O 0.76632 0.44946 0.69394 0.0
O193 O 0.77927 0.468 0.72615 0.0
O194 O 0.78025 0.43458 0.64153 0.0
O195 O 0.79535 0.46887 0.64079 0.0
O196 O 0.05577 0.83669 0.21221 0.0
Cd197 Cd 0.02922 0.81389 0.21141 0.0
Cd198 Cd 0.05387 0.8001 0.16767 0.0
O199 O 0.07417 0.82701 0.17858 0.0
O200 O 0.00938 0.82494 0.23844 0.0
O201 O 0.99849 0.82494 0.19988 0.0
C202 C 0.99417 0.82982 0.22241 0.0
C203 C 0.04865 0.79401 0.1256 0.0
C204 C 0.07218 0.83947 0.19744 0.0
C205 C 0.04739 0.7659 0.20888 0.0
O206 O 0.05551 0.77072 0.18802 0.0
O207 O 0.03605 0.78051 0.2209 0.0
O208 O 0.06794 0.79072 0.13606 0.0
O209 O 0.03214 0.80136 0.13895 0.0
O210 O 0.66316 0.05733 0.70957 0.0
Cd211 Cd 0.68533 0.03049 0.71268 0.0
Cd212 Cd 0.70279 0.05288 0.66836 0.0
O213 O 0.67567 0.07415 0.67612 0.0
O214 O 0.67115 0.01292 0.73983 0.0
O215 O 0.67541 0.99885 0.70276 0.0
C216 C 0.66795 0.99643 0.72478 0.0
C217 C 0.71239 0.04829 0.62687 0.0
C218 C 0.66183 0.07319 0.69392 0.0
C219 C 0.73337 0.04791 0.71346 0.0
O220 O 0.73043 0.0543 0.6915 0.0
O221 O 0.71761 0.03794 0.72517 0.0
O222 O 0.71551 0.06715 0.63823 0.0
O223 O 0.70336 0.03178 0.63896 0.0
H224 H 0.46505 0.14896 0.18816 0.0
H225 H 0.43305 0.12508 0.2007 0.0
H226 H 0.45008 0.13654 0.27634 0.0
H227 H 0.4823 0.15987 0.26394 0.0
H228 H 0.44434 0.09332 0.26888 0.0
H229 H 0.40183 0.16009 0.2489 0.0
H230 H 0.38909 0.19199 0.22316 0.0
H231 H 0.36381 0.14505 0.16965 0.0
H232 H 0.37667 0.11285 0.19493 0.0
H233 H 0.34928 0.03497 0.31686 0.0
H234 H 0.37419 0.06689 0.30656 0.0
H235 H 0.36385 0.05372 0.22989 0.0
H236 H 0.33886 0.022 0.23999 0.0
H237 H 0.36492 0.09935 0.23943 0.0
H238 H 0.40994 0.03311 0.25803 0.0
H239 H 0.4228 1.00108 0.28354 0.0
H240 H 0.44352 0.0476 0.33967 0.0
H241 H 0.43049 0.07991 0.31461 0.0
C242 C 0.46175 0.14665 0.20746 0.0
C243 C 0.47627 0.15623 0.22504 0.0
C244 C 0.4434 0.13306 0.21463 0.0
C245 C 0.43904 0.12906 0.23951 0.0
C246 C 0.45311 0.13927 0.25705 0.0
C247 C 0.47152 0.15267 0.24991 0.0
C248 C 0.42088 0.11303 0.24734 0.0
C249 C 0.42689 0.09495 0.26278 0.0
C250 C 0.39819 0.11473 0.23895 0.0
C251 C 0.3904 0.13405 0.22372 0.0
C252 C 0.39371 0.15656 0.23156 0.0
C253 C 0.38644 0.17471 0.21707 0.0
C254 C 0.3757 0.17055 0.19476 0.0
C255 C 0.37216 0.14824 0.18692 0.0
C256 C 0.37941 0.13004 0.20134 0.0
C257 C 0.35202 0.0391 0.29782 0.0
C258 C 0.34224 0.02581 0.27925 0.0
C259 C 0.36633 0.05729 0.29195 0.0
C260 C 0.37113 0.0625 0.26744 0.0
C261 C 0.36043 0.05001 0.24891 0.0
C262 C 0.3462 0.0318 0.25475 0.0
C263 C 0.38845 0.07985 0.261 0.0
C264 C 0.38233 0.098 0.24573 0.0
C265 C 0.41108 0.07829 0.26954 0.0
C266 C 0.419 0.05889 0.28457 0.0
C267 C 0.41707 0.03649 0.2759 0.0
C268 C 0.42442 0.01829 0.29026 0.0
C269 C 0.43391 0.02229 0.31324 0.0
C270 C 0.43613 0.04452 0.32189 0.0
C271 C 0.42877 0.06278 0.30761 0.0
H272 H 0.43959 0.00818 0.32433 0.0
H273 H 0.37008 0.18462 0.18357 0.0
H274 H 0.33418 0.47689 0.76391 0.0
H275 H 0.35826 0.44493 0.77544 0.0
H276 H 0.3753 0.43393 0.69974 0.0
H277 H 0.35061 0.46562 0.68798 0.0
H278 H 0.37128 0.39412 0.723 0.0
H279 H 0.41054 0.46426 0.73772 0.0
H280 H 0.4157 0.50272 0.7547 0.0
H281 H 0.40987 0.47613 0.82744 0.0
H282 H 0.40437 0.43754 0.81086 0.0
H283 H 0.47882 0.34074 0.73803 0.0
H284 H 0.44629 0.36469 0.72819 0.0
H285 H 0.43063 0.37098 0.80482 0.0
H286 H 0.46342 0.3471 0.81488 0.0
H287 H 0.43226 0.41179 0.78259 0.0
H288 H 0.39625 0.3404 0.76662 0.0
H289 H 0.39246 0.3023 0.74836 0.0
H290 H 0.39389 0.33149 0.67654 0.0
H291 H 0.39802 0.36975 0.69435 0.0
C292 C 0.3428 0.4675 0.74965 0.0
C293 C 0.34067 0.47394 0.72504 0.0
C294 C 0.35665 0.44926 0.75629 0.0
C295 C 0.36903 0.43733 0.73853 0.0
C296 C 0.36601 0.44295 0.7138 0.0
C297 C 0.35191 0.46108 0.70709 0.0
C298 C 0.38603 0.41994 0.74591 0.0
C299 C 0.38474 0.39803 0.73586 0.0
C300 C 0.40339 0.42488 0.76303 0.0
C301 C 0.4068 0.44806 0.77304 0.0
C302 C 0.41019 0.46664 0.75733 0.0
C303 C 0.4132 0.48846 0.76688 0.0
C304 C 0.41305 0.49188 0.79213 0.0
C305 C 0.40995 0.47347 0.80788 0.0
C306 C 0.4069 0.45162 0.79842 0.0
C307 C 0.46828 0.34691 0.75282 0.0
C308 C 0.47377 0.34205 0.77727 0.0
C309 C 0.44959 0.36054 0.74713 0.0
C310 C 0.4359 0.36953 0.76574 0.0
C311 C 0.44094 0.36418 0.79016 0.0
C312 C 0.45963 0.35047 0.79587 0.0
C313 C 0.41752 0.38593 0.75975 0.0
C314 C 0.41865 0.40776 0.76995 0.0
C315 C 0.4002 0.38093 0.74261 0.0
C316 C 0.39762 0.35794 0.73184 0.0
C317 C 0.39593 0.33869 0.74693 0.0
C318 C 0.39369 0.31706 0.73666 0.0
C319 C 0.39298 0.31447 0.71131 0.0
C320 C 0.39446 0.33352 0.69618 0.0
C321 C 0.39672 0.35518 0.70635 0.0
H322 H 0.39125 0.29772 0.70339 0.0
H323 H 0.41538 0.50878 0.79949 0.0
H324 H 0.04039 0.34662 0.18564 0.0
H325 H 0.07265 0.37096 0.19642 0.0
H326 H 0.05685 0.36278 0.27282 0.0
H327 H 0.0249 0.33835 0.26226 0.0
H328 H 0.07067 0.41119 0.21946 0.0
H329 H 0.10469 0.36778 0.30713 0.0
H330 H 0.10925 0.32921 0.324 0.0
H331 H 0.11156 0.30159 0.25147 0.0
H332 H 0.10734 0.34001 0.23416 0.0
H333 H 0.14998 0.46501 0.31588 0.0
H334 H 0.12591 0.43309 0.30333 0.0
H335 H 0.14476 0.44433 0.2282 0.0
H336 H 0.16837 0.4764 0.24049 0.0
H337 H 0.13125 0.39312 0.27938 0.0
H338 H 0.09875 0.43756 0.19199 0.0
H339 H 0.09319 0.47636 0.17601 0.0
H340 H 0.08629 0.50183 0.24911 0.0
H341 H 0.09149 0.46317 0.26548 0.0
C342 C 0.04403 0.34971 0.20474 0.0
C343 C 0.03004 0.34057 0.22308 0.0
C344 C 0.06242 0.36368 0.21087 0.0
C345 C 0.06729 0.36859 0.23544 0.0
C346 C 0.0537 0.35897 0.25376 0.0
C347 C 0.03532 0.34508 0.24766 0.0
C348 C 0.08545 0.38508 0.24195 0.0
C349 C 0.0842 0.40707 0.23217 0.0
C350 C 0.10268 0.37996 0.25915 0.0
C351 C 0.10549 0.35678 0.26936 0.0
C352 C 0.10628 0.35349 0.29478 0.0
C353 C 0.10878 0.33164 0.30442 0.0
C354 C 0.11063 0.31295 0.28882 0.0
C355 C 0.11004 0.31607 0.26354 0.0
C356 C 0.10756 0.33788 0.2538 0.0
C357 C 0.14925 0.46046 0.29673 0.0
C358 C 0.16087 0.4734 0.27915 0.0
C359 C 0.1355 0.4422 0.28958 0.0
C360 C 0.13317 0.43659 0.26477 0.0
C361 C 0.1459 0.44863 0.24739 0.0
C362 C 0.15947 0.46693 0.25448 0.0
C363 C 0.11644 0.41915 0.25684 0.0
C364 C 0.11788 0.3971 0.26645 0.0
C365 C 0.09923 0.42422 0.2396 0.0
C366 C 0.09578 0.44751 0.22994 0.0
C367 C 0.09597 0.45144 0.20463 0.0
C368 C 0.09289 0.4734 0.19551 0.0
C369 C 0.08947 0.49156 0.21154 0.0
C370 C 0.08903 0.48777 0.23672 0.0
C371 C 0.09207 0.46584 0.24593 0.0
H372 H 0.08711 0.50855 0.20444 0.0
H373 H 0.11255 0.29606 0.29632 0.0
H374 H 0.15386 0.03802 0.68823 0.0
H375 H 0.12905 0.06948 0.70021 0.0
H376 H 0.14261 0.05533 0.77611 0.0
H377 H 0.16705 0.02371 0.76431 0.0
H378 H 0.09867 0.05881 0.7689 0.0
H379 H 0.16342 0.10347 0.74766 0.0
H380 H 0.19487 0.11693 0.72172 0.0
H381 H 0.14718 0.13906 0.66741 0.0
H382 H 0.11543 0.12544 0.69288 0.0
H383 H 0.0364 0.15367 0.81311 0.0
H384 H 0.06905 0.12926 0.80394 0.0
H385 H 0.05523 0.13559 0.72691 0.0
H386 H 0.02271 0.15994 0.73587 0.0
H387 H 0.10111 0.13756 0.73681 0.0
H388 H 0.03699 0.09003 0.75672 0.0
H389 H 0.0055 0.07643 0.78254 0.0
H390 H 0.05267 0.05962 0.83952 0.0
H391 H 0.08444 0.07344 0.81415 0.0
C392 C 0.15185 0.04185 0.70746 0.0
C393 C 0.16237 0.0283 0.72531 0.0
C394 C 0.1377 0.0599 0.71429 0.0
C395 C 0.134 0.06486 0.7391 0.0
C396 C 0.14513 0.05181 0.75688 0.0
C397 C 0.15917 0.03376 0.75008 0.0
C398 C 0.1173 0.08252 0.74658 0.0
C399 C 0.09951 0.07614 0.76223 0.0
C400 C 0.11801 0.10503 0.73748 0.0
C401 C 0.13705 0.11324 0.7221 0.0
C402 C 0.15964 0.11104 0.7301 0.0
C403 C 0.17752 0.11873 0.7155 0.0
C404 C 0.17303 0.12879 0.69291 0.0
C405 C 0.15063 0.13124 0.6849 0.0
C406 C 0.13269 0.12355 0.69943 0.0
C407 C 0.0405 0.1501 0.79422 0.0
C408 C 0.02686 0.15861 0.77523 0.0
C409 C 0.05911 0.1361 0.78901 0.0
C410 C 0.06443 0.13043 0.76474 0.0
C411 C 0.05144 0.13973 0.74575 0.0
C412 C 0.03279 0.15358 0.75094 0.0
C413 C 0.08263 0.11376 0.75906 0.0
C414 C 0.10055 0.12029 0.74368 0.0
C415 C 0.0821 0.09137 0.7684 0.0
C416 C 0.06304 0.08302 0.78366 0.0
C417 C 0.04062 0.08362 0.77484 0.0
C418 C 0.02273 0.07584 0.78938 0.0
C419 C 0.02707 0.06724 0.81269 0.0
C420 C 0.04933 0.06634 0.82148 0.0
C421 C 0.06728 0.07413 0.80703 0.0
H422 H 0.0132 0.06121 0.82391 0.0
H423 H 0.1869 0.13474 0.68163 0.0
H424 H 0.54006 0.83923 0.81712 0.0
H425 H 0.57159 0.86481 0.80689 0.0
H426 H 0.54705 0.86959 0.73292 0.0
H427 H 0.51577 0.84406 0.74281 0.0
H428 H 0.60696 0.86505 0.7685 0.0
H429 H 0.54656 0.92696 0.72042 0.0
H430 H 0.50593 0.93727 0.72038 0.0
H431 H 0.50045 0.91739 0.79558 0.0
H432 H 0.5411 0.9073 0.79616 0.0
H433 H 0.66283 0.95582 0.70052 0.0
H434 H 0.63854 0.92371 0.71242 0.0
H435 H 0.61862 0.95962 0.77759 0.0
H436 H 0.643 0.9914 0.7662 0.0
H437 H 0.58188 0.94325 0.74794 0.0
H438 H 0.65151 0.91816 0.78554 0.0
H439 H 0.69207 0.90781 0.78608 0.0
H440 H 0.67956 0.85483 0.73388 0.0
H441 H 0.63894 0.86509 0.73277 0.0
C442 C 0.54164 0.84539 0.79857 0.0
C443 C 0.52529 0.83976 0.78085 0.0
C444 C 0.55969 0.85992 0.79274 0.0
C445 C 0.5615 0.86919 0.76921 0.0
C446 C 0.54587 0.86269 0.75121 0.0
C447 C 0.52798 0.84809 0.75694 0.0
C448 C 0.57827 0.88731 0.76393 0.0
C449 C 0.60153 0.88214 0.76397 0.0
C450 C 0.57113 0.90963 0.75817 0.0
C451 C 0.5468 0.91616 0.75824 0.0
C452 C 0.53669 0.92489 0.73697 0.0
C453 C 0.51367 0.93068 0.73685 0.0
C454 C 0.5006 0.92791 0.75794 0.0
C455 C 0.51057 0.91945 0.77923 0.0
C456 C 0.53359 0.91367 0.77945 0.0
C457 C 0.65347 0.95673 0.71752 0.0
C458 C 0.65482 0.97616 0.73239 0.0
C459 C 0.63966 0.93838 0.7243 0.0
C460 C 0.6268 0.93935 0.74587 0.0
C461 C 0.62841 0.95856 0.76088 0.0
C462 C 0.64242 0.97668 0.75434 0.0
C463 C 0.61063 0.92101 0.75228 0.0
C464 C 0.58739 0.92615 0.75238 0.0
C465 C 0.61785 0.89876 0.7582 0.0
C466 C 0.64223 0.89256 0.75887 0.0
C467 C 0.65744 0.90445 0.77399 0.0
C468 C 0.68043 0.89857 0.77444 0.0
C469 C 0.6884 0.88072 0.75997 0.0
C470 C 0.67337 0.86868 0.74505 0.0
C471 C 0.65036 0.87451 0.74452 0.0
H472 H 0.70621 0.87619 0.76035 0.0
H473 H 0.48277 0.93236 0.7578 0.0
H474 H 0.52368 0.65793 0.2655 0.0
H475 H 0.55554 0.63281 0.27451 0.0
H476 H 0.56911 0.62581 0.19748 0.0
H477 H 0.53704 0.65097 0.18827 0.0
H478 H 0.5664 0.58491 0.22054 0.0
H479 H 0.60534 0.65527 0.23363 0.0
H480 H 0.61101 0.69351 0.25096 0.0
H481 H 0.61102 0.66555 0.32337 0.0
H482 H 0.60503 0.62717 0.30649 0.0
H483 H 0.66334 0.51723 0.23652 0.0
H484 H 0.63928 0.54931 0.22532 0.0
H485 H 0.62582 0.56243 0.30146 0.0
H486 H 0.65052 0.53063 0.31285 0.0
H487 H 0.63 0.60147 0.27725 0.0
H488 H 0.58806 0.53246 0.26563 0.0
H489 H 0.58096 0.49392 0.24971 0.0
H490 H 0.58477 0.51906 0.17623 0.0
H491 H 0.5922 0.55772 0.19173 0.0
C492 C 0.53361 0.65132 0.25045 0.0
C493 C 0.52778 0.65641 0.22614 0.0
C494 C 0.55191 0.63702 0.25565 0.0
C495 C 0.56481 0.62753 0.23669 0.0
C496 C 0.5594 0.633 0.2124 0.0
C497 C 0.54113 0.64744 0.20717 0.0
C498 C 0.58281 0.61061 0.24225 0.0
C499 C 0.58057 0.58867 0.23254 0.0
C500 C 0.60085 0.61529 0.25858 0.0
C501 C 0.60455 0.63835 0.26879 0.0
C502 C 0.60638 0.65729 0.25326 0.0
C503 C 0.60968 0.67899 0.263 0.0
C504 C 0.61133 0.68196 0.28825 0.0
C505 C 0.60973 0.66323 0.30381 0.0
C506 C 0.6064 0.64149 0.29416 0.0
C507 C 0.65546 0.52707 0.25092 0.0
C508 C 0.65866 0.52125 0.27558 0.0
C509 C 0.64163 0.54537 0.24447 0.0
C510 C 0.63031 0.558 0.2625 0.0
C511 C 0.63428 0.55288 0.28721 0.0
C512 C 0.64837 0.53468 0.2937 0.0
C513 C 0.61358 0.57578 0.25551 0.0
C514 C 0.61597 0.5978 0.26504 0.0
C515 C 0.59547 0.57114 0.23921 0.0
C516 C 0.59092 0.54793 0.22984 0.0
C517 C 0.58755 0.52974 0.24608 0.0
C518 C 0.58344 0.50788 0.23713 0.0
C519 C 0.58248 0.50403 0.21198 0.0
C520 C 0.58556 0.52206 0.19571 0.0
C521 C 0.5897 0.54395 0.20457 0.0
H522 H 0.57929 0.4871 0.20508 0.0
H523 H 0.61388 0.69878 0.29576 0.0
H524 H 0.96616 0.65606 0.8168 0.0
H525 H 0.93393 0.63133 0.80708 0.0
H526 H 0.94973 0.63654 0.73039 0.0
H527 H 0.98178 0.66131 0.73989 0.0
H528 H 0.90377 0.63766 0.73849 0.0
H529 H 0.96794 0.59169 0.76213 0.0
H530 H 0.99882 0.57932 0.78949 0.0
H531 H 0.95017 0.56334 0.84529 0.0
H532 H 0.919 0.57592 0.81835 0.0
H533 H 0.85152 0.53685 0.69225 0.0
H534 H 0.8764 0.56852 0.70342 0.0
H535 H 0.86309 0.55579 0.77969 0.0
H536 H 0.83884 0.52381 0.76867 0.0
H537 H 0.90637 0.55989 0.77317 0.0
H538 H 0.84161 0.60342 0.74838 0.0
H539 H 0.81085 0.61567 0.72082 0.0
H540 H 0.85998 0.63618 0.66727 0.0
H541 H 0.89105 0.62377 0.69438 0.0
C542 C 0.96257 0.65221 0.79785 0.0
C543 C 0.97665 0.6605 0.77914 0.0
C544 C 0.94419 0.63801 0.79233 0.0
C545 C 0.9396 0.63187 0.76802 0.0
C546 C 0.95296 0.64103 0.74926 0.0
C547 C 0.97135 0.65513 0.75476 0.0
C548 C 0.92188 0.61477 0.76215 0.0
C549 C 0.90436 0.6206 0.74593 0.0
C550 C 0.92248 0.59263 0.77217 0.0
C551 C 0.94118 0.58499 0.78834 0.0
C552 C 0.96385 0.58571 0.78031 0.0
C553 C 0.9814 0.57863 0.79572 0.0
C554 C 0.97647 0.57061 0.81914 0.0
C555 C 0.95396 0.5696 0.82716 0.0
C556 C 0.93635 0.57669 0.81183 0.0
C557 C 0.85367 0.54102 0.71137 0.0
C558 C 0.84329 0.52777 0.72957 0.0
C559 C 0.86783 0.55919 0.71776 0.0
C560 C 0.87156 0.56469 0.74244 0.0
C561 C 0.86059 0.55188 0.76055 0.0
C562 C 0.84667 0.53361 0.7542 0.0
C563 C 0.88801 0.58271 0.74955 0.0
C564 C 0.90548 0.57701 0.76591 0.0
C565 C 0.88729 0.60494 0.73966 0.0
C566 C 0.86865 0.61247 0.72334 0.0
C567 C 0.84585 0.61038 0.73065 0.0
C568 C 0.82836 0.61738 0.71512 0.0
C569 C 0.83345 0.62665 0.69229 0.0
C570 C 0.85606 0.62898 0.68496 0.0
C571 C 0.87362 0.62199 0.70041 0.0
H572 H 0.81989 0.63206 0.68029 0.0
H573 H 0.99007 0.56514 0.83104 0.0
H574 H 0.83753 0.9771 0.24514 0.0
H575 H 0.86119 0.94427 0.23554 0.0
H576 H 0.87379 0.93374 0.31228 0.0
H577 H 0.85008 0.96674 0.32208 0.0
H578 H 0.91284 0.93544 0.28571 0.0
H579 H 0.84202 0.89611 0.28067 0.0
H580 H 0.80261 0.88955 0.26723 0.0
H581 H 0.82472 0.8864 0.1926 0.0
H582 H 0.86424 0.89327 0.20556 0.0
H583 H 0.97894 0.83773 0.26861 0.0
H584 H 0.94723 0.86169 0.28115 0.0
H585 H 0.93059 0.87418 0.20565 0.0
H586 H 0.96219 0.84978 0.19289 0.0
H587 H 0.89238 0.86977 0.23333 0.0
H588 H 0.96183 0.91219 0.23724 0.0
H589 H 0.0014 0.91979 0.24951 0.0
H590 H 0.9818 0.91853 0.32501 0.0
H591 H 0.94215 0.91059 0.31319 0.0
C592 C 0.84501 0.9676 0.26004 0.0
C593 C 0.84199 0.97459 0.28439 0.0
C594 C 0.85846 0.94874 0.2545 0.0
C595 C 0.8692 0.93647 0.27319 0.0
C596 C 0.86562 0.94295 0.29758 0.0
C597 C 0.852 0.96175 0.30316 0.0
C598 C 0.88566 0.91821 0.26703 0.0
C599 C 0.90824 0.92083 0.2747 0.0
C600 C 0.87984 0.89955 0.25195 0.0
C601 C 0.85608 0.8954 0.24408 0.0
C602 C 0.83846 0.89421 0.26137 0.0
C603 C 0.8161 0.8904 0.25384 0.0
C604 C 0.81115 0.88761 0.22907 0.0
C605 C 0.82857 0.88858 0.21178 0.0
C606 C 0.85096 0.8924 0.21921 0.0
C607 C 0.96839 0.84532 0.25462 0.0
C608 C 0.97324 0.84203 0.22973 0.0
C609 C 0.95028 0.85907 0.26185 0.0
C610 C 0.9368 0.8701 0.24436 0.0
C611 C 0.94083 0.86592 0.21947 0.0
C612 C 0.95891 0.852 0.2122 0.0
C613 C 0.91949 0.88702 0.25209 0.0
C614 C 0.89686 0.88424 0.2446 0.0
C615 C 0.92526 0.9057 0.26718 0.0
C616 C 0.94907 0.91055 0.27434 0.0
C617 C 0.96599 0.91335 0.25647 0.0
C618 C 0.98843 0.91775 0.26334 0.0
C619 C 0.99412 0.91957 0.28803 0.0
C620 C 0.97737 0.91707 0.3059 0.0
C621 C 0.95491 0.91263 0.29912 0.0
H622 H 0.0115 0.92299 0.29331 0.0
H623 H 0.79383 0.88466 0.22328 0.0
H624 H 0.5825 0.264 0.19313 0.0
H625 H 0.59724 0.29603 0.21639 0.0
H626 H 0.55143 0.28055 0.27546 0.0
H627 H 0.53657 0.24805 0.25233 0.0
H628 H 0.55618 0.32888 0.26373 0.0
H629 H 0.60084 0.26389 0.2842 0.0
H630 H 0.62312 0.22937 0.27549 0.0
H631 H 0.67145 0.26895 0.23508 0.0
H632 H 0.64924 0.30367 0.2432 0.0
H633 H 0.66101 0.38245 0.33404 0.0
H634 H 0.63641 0.35029 0.32385 0.0
H635 H 0.61004 0.38729 0.26207 0.0
H636 H 0.63422 0.41949 0.27224 0.0
H637 H 0.63831 0.32519 0.28379 0.0
H638 H 0.55672 0.3707 0.24886 0.0
H639 H 0.53387 0.40455 0.25886 0.0
H640 H 0.55841 0.40277 0.33266 0.0
H641 H 0.58116 0.36873 0.32322 0.0
C642 C 0.57528 0.26747 0.21093 0.0
C643 C 0.55844 0.25329 0.22092 0.0
C644 C 0.58379 0.2858 0.22421 0.0
C645 C 0.57559 0.29047 0.24771 0.0
C646 C 0.55799 0.27714 0.25734 0.0
C647 C 0.54957 0.25858 0.24412 0.0
C648 C 0.58649 0.30852 0.26245 0.0
C649 C 0.57409 0.3281 0.26831 0.0
C650 C 0.6097 0.30716 0.26889 0.0
C651 C 0.62328 0.28636 0.26418 0.0
C652 C 0.61613 0.26521 0.2733 0.0
C653 C 0.62876 0.24561 0.26849 0.0
C654 C 0.64867 0.24696 0.25471 0.0
C655 C 0.65602 0.26793 0.24575 0.0
C656 C 0.64343 0.28758 0.25047 0.0
C657 C 0.6497 0.38389 0.31852 0.0
C658 C 0.6497 0.40354 0.3039 0.0
C659 C 0.63569 0.36547 0.31269 0.0
C660 C 0.62125 0.36641 0.2923 0.0
C661 C 0.62072 0.38627 0.27814 0.0
C662 C 0.63472 0.40464 0.28391 0.0
C663 C 0.60825 0.34606 0.28441 0.0
C664 C 0.6203 0.32597 0.27968 0.0
C665 C 0.58466 0.34692 0.27933 0.0
C666 C 0.57077 0.36723 0.28526 0.0
C667 C 0.55715 0.37745 0.26726 0.0
C668 C 0.54423 0.39669 0.27282 0.0
C669 C 0.54473 0.40584 0.29636 0.0
C670 C 0.55809 0.39572 0.31441 0.0
C671 C 0.57103 0.37647 0.30895 0.0
H672 H 0.53473 0.42074 0.30062 0.0
H673 H 0.65843 0.23176 0.251 0.0
H674 H 0.23407 0.58125 0.69255 0.0
H675 H 0.20157 0.59639 0.71479 0.0
H676 H 0.21555 0.55112 0.77478 0.0
H677 H 0.24837 0.53579 0.75265 0.0
H678 H 0.16821 0.55575 0.7634 0.0
H679 H 0.23297 0.60191 0.78142 0.0
H680 H 0.26695 0.62457 0.77148 0.0
H681 H 0.22594 0.67113 0.73028 0.0
H682 H 0.19175 0.64853 0.73966 0.0
H683 H 0.11599 0.66091 0.83389 0.0
H684 H 0.14777 0.63619 0.8228 0.0
H685 H 0.10899 0.60953 0.76244 0.0
H686 H 0.07715 0.63393 0.77347 0.0
H687 H 0.17133 0.63834 0.78134 0.0
H688 H 0.12589 0.55571 0.7495 0.0
H689 H 0.0926 0.53264 0.76095 0.0
H690 H 0.09614 0.55831 0.83424 0.0
H691 H 0.12963 0.58128 0.82334 0.0
C692 C 0.23015 0.57424 0.71033 0.0
C693 C 0.244 0.55742 0.72089 0.0
C694 C 0.21156 0.58297 0.72304 0.0
C695 C 0.20637 0.57507 0.74653 0.0
C696 C 0.21936 0.55747 0.75668 0.0
C697 C 0.23812 0.54878 0.74402 0.0
C698 C 0.18818 0.58626 0.76084 0.0
C699 C 0.16886 0.57377 0.76746 0.0
C700 C 0.18934 0.60966 0.7666 0.0
C701 C 0.20983 0.62343 0.7611 0.0
C702 C 0.23122 0.61689 0.77009 0.0
C703 C 0.25052 0.62974 0.76458 0.0
C704 C 0.24861 0.64925 0.75022 0.0
C705 C 0.22739 0.656 0.74139 0.0
C706 C 0.20805 0.64319 0.74682 0.0
C707 C 0.11406 0.6495 0.81852 0.0
C708 C 0.09405 0.64953 0.80449 0.0
C709 C 0.13227 0.63542 0.81217 0.0
C710 C 0.13074 0.62093 0.79186 0.0
C711 C 0.11047 0.62031 0.77839 0.0
C712 C 0.09231 0.63442 0.78466 0.0
C713 C 0.1509 0.60803 0.78331 0.0
C714 C 0.17066 0.62025 0.77764 0.0
C715 C 0.15017 0.58436 0.77871 0.0
C716 C 0.13019 0.57036 0.78553 0.0
C717 C 0.11964 0.55635 0.76809 0.0
C718 C 0.10072 0.5433 0.77448 0.0
C719 C 0.09222 0.54405 0.79829 0.0
C720 C 0.10268 0.5578 0.81578 0.0
C721 C 0.12162 0.57087 0.8095 0.0
H722 H 0.07756 0.53396 0.80319 0.0
H723 H 0.26357 0.65918 0.74597 0.0
H724 H 0.88132 0.06725 0.28076 0.0
H725 H 0.90849 0.09576 0.26662 0.0
H726 H 0.87438 0.14669 0.30995 0.0
H727 H 0.84813 0.11799 0.32514 0.0
H728 H 0.90225 0.12864 0.23959 0.0
H729 H 0.90576 0.19163 0.32246 0.0
H730 H 0.90774 0.18977 0.36738 0.0
H731 H 0.93556 0.12247 0.36317 0.0
H732 H 0.93406 0.12403 0.31821 0.0
H733 H 0.91693 0.2386 0.19857 0.0
H734 H 0.90563 0.20345 0.21827 0.0
H735 H 0.96769 0.20347 0.26021 0.0
H736 H 0.97867 0.23961 0.24121 0.0
H737 H 0.93548 0.19132 0.28842 0.0
H738 H 0.95864 0.1656 0.21087 0.0
H739 H 0.96174 0.16483 0.16598 0.0
H740 H 0.89016 0.15212 0.16008 0.0
H741 H 0.88655 0.15313 0.20492 0.0
C742 C 0.87997 0.08445 0.28766 0.0
C743 C 0.86261 0.0904 0.30406 0.0
C744 C 0.89547 0.10077 0.27952 0.0
C745 C 0.8937 0.12347 0.28726 0.0
C746 C 0.87664 0.12926 0.30413 0.0
C747 C 0.86148 0.11283 0.31271 0.0
C748 C 0.90806 0.14147 0.27595 0.0
C749 C 0.90971 0.14217 0.25037 0.0
C750 C 0.91853 0.15888 0.28985 0.0
C751 C 0.91965 0.15791 0.31692 0.0
C752 C 0.91243 0.17648 0.33109 0.0
C753 C 0.91343 0.17547 0.35658 0.0
C754 C 0.92172 0.156 0.36812 0.0
C755 C 0.92907 0.13752 0.3542 0.0
C756 C 0.92812 0.13845 0.32872 0.0
C757 C 0.92833 0.23109 0.21183 0.0
C758 C 0.94881 0.24182 0.21817 0.0
C759 C 0.92188 0.21084 0.22302 0.0
C760 C 0.93602 0.20041 0.24035 0.0
C761 C 0.95653 0.21109 0.24679 0.0
C762 C 0.96283 0.23169 0.23588 0.0
C763 C 0.92873 0.17884 0.25217 0.0
C764 C 0.9284 0.1775 0.27777 0.0
C765 C 0.92027 0.16035 0.23832 0.0
C766 C 0.92232 0.15954 0.2113 0.0
C767 C 0.94353 0.16276 0.2 0.0
C768 C 0.94538 0.16227 0.17456 0.0
C769 C 0.92615 0.15845 0.16019 0.0
C770 C 0.90504 0.15507 0.17124 0.0
C771 C 0.90309 0.15556 0.19667 0.0
H772 H 0.92762 0.1581 0.14049 0.0
H773 H 0.92247 0.15525 0.38785 0.0
H774 H 0.26205 0.91388 0.69293 0.0
H775 H 0.29584 0.89932 0.71309 0.0
H776 H 0.29615 0.95727 0.7614 0.0
H777 H 0.26155 0.97151 0.74185 0.0
H778 H 0.33665 0.91164 0.71844 0.0
H779 H 0.31797 0.94225 0.81667 0.0
H780 H 0.28516 0.95209 0.84266 0.0
H781 H 0.2424 0.90824 0.80008 0.0
H782 H 0.275 0.89794 0.77405 0.0
H783 H 0.43165 0.87609 0.78555 0.0
H784 H 0.40166 0.90129 0.77066 0.0
H785 H 0.35138 0.85979 0.80671 0.0
H786 H 0.38141 0.83541 0.82279 0.0
H787 H 0.33742 0.90054 0.80822 0.0
H788 H 0.36689 0.85331 0.74387 0.0
H789 H 0.39655 0.83734 0.71709 0.0
H790 H 0.41201 0.9041 0.69026 0.0
H791 H 0.38259 0.92049 0.71711 0.0
C792 C 0.26935 0.92367 0.70773 0.0
C793 C 0.25898 0.9438 0.71588 0.0
C794 C 0.28876 0.91531 0.71925 0.0
C795 C 0.29846 0.92699 0.73903 0.0
C796 C 0.28874 0.94766 0.74654 0.0
C797 C 0.26903 0.95587 0.73525 0.0
C798 C 0.3183 0.91696 0.752 0.0
C799 C 0.33684 0.90938 0.7381 0.0
C800 C 0.31853 0.91363 0.77762 0.0
C801 C 0.29886 0.91958 0.79325 0.0
C802 C 0.30157 0.93469 0.8129 0.0
C803 C 0.28302 0.94034 0.82763 0.0
C804 C 0.26169 0.93087 0.82296 0.0
C805 C 0.2589 0.91564 0.80361 0.0
C806 C 0.2774 0.90991 0.78885 0.0
C807 C 0.41421 0.87263 0.79066 0.0
C808 C 0.40883 0.85368 0.80514 0.0
C809 C 0.39707 0.88695 0.78202 0.0
C810 C 0.37414 0.88212 0.78696 0.0
C811 C 0.36889 0.8639 0.80254 0.0
C812 C 0.38608 0.84992 0.81171 0.0
C813 C 0.35557 0.8949 0.7746 0.0
C814 C 0.33734 0.90309 0.7886 0.0
C815 C 0.35515 0.89795 0.74893 0.0
C816 C 0.37274 0.88813 0.73267 0.0
C817 C 0.37672 0.86458 0.73235 0.0
C818 C 0.39347 0.85546 0.71716 0.0
C819 C 0.40621 0.8697 0.70203 0.0
C820 C 0.40216 0.8931 0.70202 0.0
C821 C 0.38545 0.90231 0.71721 0.0
H822 H 0.41918 0.86261 0.69029 0.0
H823 H 0.24735 0.93528 0.83437 0.0
H824 H 0.53993 0.25146 0.748 0.0
H825 H 0.55512 0.21778 0.72745 0.0
H826 H 0.59591 0.20265 0.7908 0.0
H827 H 0.58104 0.23622 0.81136 0.0
H828 H 0.62083 0.20093 0.74981 0.0
H829 H 0.54891 0.17175 0.77775 0.0
H830 H 0.5072 0.1712 0.78172 0.0
H831 H 0.50048 0.16538 0.7039 0.0
H832 H 0.54217 0.1662 0.69945 0.0
H833 H 0.62689 0.07428 0.72669 0.0
H834 H 0.60426 0.10715 0.73867 0.0
H835 H 0.63689 0.14743 0.68307 0.0
H836 H 0.65982 0.1146 0.671 0.0
H837 H 0.57447 0.1373 0.71743 0.0
H838 H 0.64991 0.19866 0.7097 0.0
H839 H 0.69181 0.19755 0.7086 0.0
H840 H 0.69155 0.13659 0.75162 0.0
H841 H 0.6497 0.13753 0.75325 0.0
C842 C 0.55195 0.24084 0.75766 0.0
C843 C 0.55931 0.24662 0.78132 0.0
C844 C 0.5606 0.22158 0.74588 0.0
C845 C 0.57667 0.20772 0.75758 0.0
C846 C 0.58363 0.21318 0.78137 0.0
C847 C 0.57501 0.23236 0.79314 0.0
C848 C 0.58692 0.18792 0.74493 0.0
C849 C 0.61065 0.18711 0.7426 0.0
C850 C 0.57369 0.16982 0.73559 0.0
C851 C 0.54864 0.16929 0.73825 0.0
C852 C 0.53853 0.17055 0.76147 0.0
C853 C 0.51489 0.17015 0.76381 0.0
C854 C 0.50119 0.16833 0.74307 0.0
C855 C 0.51111 0.16683 0.71995 0.0
C856 C 0.53474 0.16725 0.7175 0.0
C857 C 0.62901 0.09 0.71668 0.0
C858 C 0.64542 0.09189 0.69811 0.0
C859 C 0.61594 0.10875 0.72348 0.0
C860 C 0.61912 0.12979 0.71199 0.0
C861 C 0.63436 0.13137 0.69233 0.0
C862 C 0.64741 0.11257 0.68543 0.0
C863 C 0.60831 0.15039 0.72238 0.0
C864 C 0.58455 0.15134 0.72429 0.0
C865 C 0.62151 0.1685 0.73172 0.0
C866 C 0.64669 0.16803 0.73133 0.0
C867 C 0.65882 0.18507 0.71899 0.0
C868 C 0.68255 0.18447 0.71827 0.0
C869 C 0.69433 0.16696 0.72995 0.0
C870 C 0.6824 0.15009 0.7425 0.0
C871 C 0.65868 0.15064 0.74331 0.0
H872 H 0.71269 0.16649 0.72933 0.0
H873 H 0.4829 0.16801 0.74493 0.0
H874 H 0.38465 0.66367 0.18 0.0
H875 H 0.35255 0.64101 0.19453 0.0
H876 H 0.39695 0.60551 0.24421 0.0
H877 H 0.42894 0.62846 0.23029 0.0
H878 H 0.33984 0.59775 0.198 0.0
H879 H 0.37086 0.59902 0.29844 0.0
H880 H 0.39477 0.62263 0.3254 0.0
H881 H 0.38137 0.68102 0.28071 0.0
H882 H 0.35715 0.65785 0.25371 0.0
H883 H 0.26135 0.53156 0.26766 0.0
H884 H 0.29609 0.5465 0.24892 0.0
H885 H 0.28466 0.61107 0.28427 0.0
H886 H 0.25088 0.5959 0.3039 0.0
H887 H 0.32614 0.60289 0.28721 0.0
H888 H 0.27263 0.5994 0.22091 0.0
H889 H 0.24539 0.58092 0.19303 0.0
H890 H 0.29768 0.53578 0.16788 0.0
H891 H 0.32517 0.55383 0.19582 0.0
C892 C 0.38765 0.65078 0.19373 0.0
C893 C 0.40928 0.64813 0.20427 0.0
C894 C 0.36929 0.6378 0.20198 0.0
C895 C 0.37226 0.62187 0.22081 0.0
C896 C 0.39416 0.61803 0.23003 0.0
C897 C 0.41245 0.63115 0.22202 0.0
C898 C 0.35225 0.61076 0.23224 0.0
C899 C 0.33686 0.59876 0.21751 0.0
C900 C 0.34807 0.6125 0.25763 0.0
C901 C 0.36244 0.62662 0.27391 0.0
C902 C 0.37298 0.61691 0.29442 0.0
C903 C 0.38658 0.63021 0.3097 0.0
C904 C 0.38966 0.65329 0.30471 0.0
C905 C 0.37906 0.66313 0.28449 0.0
C906 C 0.36541 0.64991 0.26919 0.0
C907 C 0.26639 0.54888 0.2715 0.0
C908 C 0.25343 0.56252 0.28731 0.0
C909 C 0.28616 0.55748 0.26065 0.0
C910 C 0.29292 0.58006 0.26487 0.0
C911 C 0.27997 0.59357 0.28077 0.0
C912 C 0.26059 0.58487 0.29199 0.0
C913 C 0.31347 0.58987 0.25302 0.0
C914 C 0.3291 0.60162 0.2677 0.0
C915 C 0.31734 0.5886 0.22749 0.0
C916 C 0.30088 0.5778 0.21063 0.0
C917 C 0.27827 0.58543 0.20954 0.0
C918 C 0.2628 0.57505 0.19372 0.0
C919 C 0.26978 0.55714 0.17875 0.0
C920 C 0.29228 0.54963 0.17951 0.0
C921 C 0.30782 0.55994 0.19532 0.0
H922 H 0.25778 0.54912 0.16651 0.0
H923 H 0.40021 0.66355 0.31655 0.0
H924 H 0.84678 0.39356 0.66749 0.0
H925 H 0.8729 0.36229 0.67648 0.0
H926 H 0.88502 0.39024 0.74816 0.0
H927 H 0.85972 0.42178 0.73905 0.0
H928 H 0.923 0.37478 0.73115 0.0
H929 H 0.84653 0.34558 0.73697 0.0
H930 H 0.80801 0.3368 0.72202 0.0
H931 H 0.83619 0.29565 0.6648 0.0
H932 H 0.87492 0.30444 0.67925 0.0
H933 H 0.94417 0.27868 0.8063 0.0
H934 H 0.9299 0.31229 0.78506 0.0
H935 H 0.93846 0.27837 0.71589 0.0
H936 H 0.95317 0.24471 0.73701 0.0
H937 H 0.89394 0.29591 0.7249 0.0
H938 H 0.97098 0.32105 0.72564 0.0
H939 H 0.00837 0.3292 0.7439 0.0
H940 H 0.97775 0.37751 0.79255 0.0
H941 H 0.9401 0.36941 0.77483 0.0
C942 C 0.85517 0.39313 0.68508 0.0
C943 C 0.85102 0.41012 0.7026 0.0
C944 C 0.87004 0.37519 0.69024 0.0
C945 C 0.88071 0.37369 0.71316 0.0
C946 C 0.87706 0.39099 0.73034 0.0
C947 C 0.86247 0.40902 0.72511 0.0
C948 C 0.89492 0.35375 0.71989 0.0
C949 C 0.91659 0.35755 0.72985 0.0
C950 C 0.88684 0.33117 0.71772 0.0
C951 C 0.8636 0.3259 0.70899 0.0
C952 C 0.84451 0.33481 0.72108 0.0
C953 C 0.82264 0.32981 0.71272 0.0
C954 C 0.81966 0.31574 0.69242 0.0
C955 C 0.83853 0.30659 0.68048 0.0
C956 C 0.86044 0.31157 0.68875 0.0
C957 C 0.94346 0.27853 0.78654 0.0
C958 C 0.94975 0.25904 0.77333 0.0
C959 C 0.93536 0.29776 0.77443 0.0
C960 C 0.93315 0.29779 0.74892 0.0
C961 C 0.94011 0.27866 0.73559 0.0
C962 C 0.9486 0.25952 0.74768 0.0
C963 C 0.92169 0.31706 0.73663 0.0
C964 C 0.90051 0.31311 0.72571 0.0
C965 C 0.93005 0.3395 0.73833 0.0
C966 C 0.95268 0.3445 0.749 0.0
C967 C 0.97218 0.33328 0.74037 0.0
C968 C 0.99343 0.33792 0.7506 0.0
C969 C 0.99543 0.35383 0.7694 0.0
C970 C 0.97617 0.36518 0.77798 0.0
C971 C 0.95488 0.36059 0.76783 0.0
H972 H 0.01189 0.3574 0.7773 0.0
H973 H 0.80272 0.31188 0.68598 0.0
H974 H 0.06813 0.87725 0.22602 0.0
H975 H 0.09838 0.90277 0.23944 0.0
H976 H 0.14694 0.86416 0.19738 0.0
H977 H 0.11655 0.83941 0.18294 0.0
H978 H 0.13126 0.89518 0.26668 0.0
H979 H 0.19338 0.89324 0.18335 0.0
H980 H 0.1913 0.89338 0.13838 0.0
H981 H 0.1253 0.92421 0.14159 0.0
H982 H 0.12709 0.92455 0.18656 0.0
H983 H 0.24232 0.91077 0.3059 0.0
H984 H 0.20704 0.89837 0.28709 0.0
H985 H 0.20607 0.95877 0.24247 0.0
H986 H 0.24217 0.97088 0.26061 0.0
H987 H 0.19424 0.92497 0.21581 0.0
H988 H 0.16941 0.95173 0.2926 0.0
H989 H 0.16942 0.95646 0.33734 0.0
H990 H 0.15604 0.88528 0.34644 0.0
H991 H 0.15629 0.88004 0.30176 0.0
C992 C 0.08521 0.8745 0.21927 0.0
C993 C 0.08997 0.85634 0.20341 0.0
C994 C 0.10252 0.88906 0.22701 0.0
C995 C 0.12503 0.88558 0.21937 0.0
C996 C 0.1297 0.86767 0.20312 0.0
C997 C 0.1123 0.8534 0.19495 0.0
C998 C 0.14385 0.89936 0.22997 0.0
C999 C 0.1449 0.90186 0.25547 0.0
C1000 C 0.16144 0.90872 0.21545 0.0
C1001 C 0.16032 0.90875 0.18837 0.0
C1002 C 0.17847 0.90015 0.17447 0.0
C1003 C 0.17733 0.90013 0.14897 0.0
C1004 C 0.15816 0.90874 0.13714 0.0
C1005 C 0.14011 0.91747 0.15078 0.0
C1006 C 0.14116 0.91755 0.17628 0.0
C1007 C 0.23457 0.92155 0.29221 0.0
C1008 C 0.245 0.94191 0.28487 0.0
C1009 C 0.21427 0.91447 0.28153 0.0
C1010 C 0.20356 0.92784 0.26369 0.0
C1011 C 0.21394 0.9482 0.25626 0.0
C1012 C 0.23453 0.95514 0.26669 0.0
C1013 C 0.18191 0.92001 0.25246 0.0
C1014 C 0.18038 0.91861 0.22691 0.0
C1015 C 0.16345 0.91241 0.26686 0.0
C1016 C 0.16299 0.91548 0.29379 0.0
C1017 C 0.16659 0.93706 0.30414 0.0
C1018 C 0.16654 0.93984 0.32949 0.0
C1019 C 0.16277 0.92118 0.34472 0.0
C1020 C 0.15897 0.89972 0.33462 0.0
C1021 C 0.15902 0.89684 0.30927 0.0
H1022 H 0.16276 0.92336 0.36435 0.0
H1023 H 0.15731 0.90869 0.1174 0.0
H1024 H 0.34819 0.61073 0.66757 0.0
H1025 H 0.37291 0.64229 0.67924 0.0
H1026 H 0.39239 0.60632 0.74456 0.0
H1027 H 0.36796 0.57465 0.73298 0.0
H1028 H 0.36738 0.66813 0.71864 0.0
H1029 H 0.44499 0.6229 0.76269 0.0
H1030 H 0.46803 0.58842 0.75629 0.0
H1031 H 0.44997 0.58806 0.68033 0.0
H1032 H 0.42709 0.6227 0.68619 0.0
H1033 H 0.41763 0.73237 0.81105 0.0
H1034 H 0.4042 0.69937 0.7884 0.0
H1035 H 0.4534 0.71241 0.73185 0.0
H1036 H 0.46695 0.74585 0.75434 0.0
H1037 H 0.44763 0.6643 0.74605 0.0
H1038 H 0.40504 0.729 0.71899 0.0
H1039 H 0.38243 0.76387 0.72456 0.0
H1040 H 0.33139 0.72591 0.76288 0.0
H1041 H 0.35389 0.69086 0.75788 0.0
C1042 C 0.35805 0.60933 0.6842 0.0
C1043 C 0.35595 0.59019 0.69942 0.0
C1044 C 0.37214 0.62742 0.69086 0.0
C1045 C 0.38457 0.62665 0.71272 0.0
C1046 C 0.38323 0.60719 0.72743 0.0
C1047 C 0.36912 0.58912 0.72083 0.0
C1048 C 0.39714 0.64698 0.7214 0.0
C1049 C 0.38499 0.6673 0.72437 0.0
C1050 C 0.4202 0.64601 0.72872 0.0
C1051 C 0.43418 0.62533 0.72494 0.0
C1052 C 0.44603 0.61554 0.74459 0.0
C1053 C 0.45904 0.59595 0.74106 0.0
C1054 C 0.46041 0.58602 0.71793 0.0
C1055 C 0.44883 0.59571 0.69826 0.0
C1056 C 0.4358 0.61531 0.70168 0.0
C1057 C 0.42587 0.72815 0.79395 0.0
C1058 C 0.44328 0.74191 0.78443 0.0
C1059 C 0.41812 0.70927 0.78103 0.0
C1060 C 0.42769 0.70362 0.7584 0.0
C1061 C 0.44581 0.71656 0.74931 0.0
C1062 C 0.45346 0.73568 0.76215 0.0
C1063 C 0.41761 0.68502 0.74378 0.0
C1064 C 0.43015 0.66509 0.73988 0.0
C1065 C 0.39495 0.68634 0.73538 0.0
C1066 C 0.38124 0.70734 0.73821 0.0
C1067 C 0.38908 0.72812 0.72877 0.0
C1068 C 0.37627 0.74791 0.7318 0.0
C1069 C 0.35551 0.74711 0.74411 0.0
C1070 C 0.34749 0.7265 0.75336 0.0
C1071 C 0.36025 0.70667 0.75041 0.0
H1072 H 0.34562 0.76246 0.74644 0.0
H1073 H 0.47048 0.57085 0.71525 0.0
H1074 H 0.92822 0.36145 0.23741 0.0
H1075 H 0.89718 0.38571 0.25111 0.0
H1076 H 0.86283 0.37589 0.18242 0.0
H1077 H 0.89389 0.35141 0.16842 0.0
H1078 H 0.85994 0.42178 0.20213 0.0
H1079 H 0.84694 0.34389 0.22579 0.0
H1080 H 0.85755 0.30722 0.24432 0.0
H1081 H 0.86737 0.33996 0.3136 0.0
H1082 H 0.85715 0.3769 0.29537 0.0
H1083 H 0.74718 0.44787 0.24326 0.0
H1084 H 0.78208 0.43361 0.22451 0.0
H1085 H 0.81302 0.4283 0.29574 0.0
H1086 H 0.77795 0.44171 0.31457 0.0
H1087 H 0.81802 0.39056 0.27316 0.0
H1088 H 0.83003 0.46831 0.25088 0.0
H1089 H 0.82041 0.50547 0.23289 0.0
H1090 H 0.8133 0.47449 0.16232 0.0
H1091 H 0.82258 0.43707 0.17995 0.0
C1092 C 0.91427 0.36465 0.225 0.0
C1093 C 0.91344 0.35422 0.2019 0.0
C1094 C 0.89654 0.37857 0.23289 0.0
C1095 C 0.87764 0.38238 0.21787 0.0
C1096 C 0.8773 0.37312 0.19427 0.0
C1097 C 0.89502 0.35906 0.18636 0.0
C1098 C 0.85745 0.39423 0.22778 0.0
C1099 C 0.85056 0.41493 0.2175 0.0
C1100 C 0.84557 0.38542 0.24811 0.0
C1101 C 0.8515 0.36318 0.25916 0.0
C1102 C 0.85154 0.34329 0.24493 0.0
C1103 C 0.85746 0.32246 0.25539 0.0
C1104 C 0.86319 0.32127 0.28011 0.0
C1105 C 0.86296 0.34091 0.29444 0.0
C1106 C 0.85709 0.36179 0.28406 0.0
C1107 C 0.76159 0.44409 0.25486 0.0
C1108 C 0.75977 0.44575 0.2804 0.0
C1109 C 0.78159 0.436 0.24411 0.0
C1110 C 0.80027 0.42989 0.25868 0.0
C1111 C 0.79882 0.43274 0.2841 0.0
C1112 C 0.77877 0.44046 0.29485 0.0
C1113 C 0.82049 0.41854 0.24788 0.0
C1114 C 0.82735 0.39768 0.2579 0.0
C1115 C 0.83236 0.42736 0.22745 0.0
C1116 C 0.82679 0.44984 0.21679 0.0
C1117 C 0.82623 0.46939 0.23156 0.0
C1118 C 0.82088 0.49051 0.22142 0.0
C1119 C 0.81619 0.49233 0.19649 0.0
C1120 C 0.8169 0.47305 0.18164 0.0
C1121 C 0.82224 0.45188 0.19169 0.0
H1122 H 0.81205 0.5087 0.18868 0.0
H1123 H 0.86777 0.30512 0.28817 0.0
H1124 H 0.0653 0.77786 0.8135 0.0
H1125 H 0.07762 0.81235 0.7926 0.0
H1126 H 0.0585 0.78316 0.72336 0.0
H1127 H 0.04596 0.74852 0.74417 0.0
H1128 H 0.10283 0.79971 0.72439 0.0
H1129 H 0.02846 0.82623 0.74408 0.0
H1130 H 0.99553 0.83362 0.77071 0.0
H1131 H 0.03631 0.87716 0.8158 0.0
H1132 H 0.06959 0.86979 0.78964 0.0
H1133 H 0.14171 0.89983 0.66595 0.0
H1134 H 0.116 0.86918 0.67807 0.0
H1135 H 0.1197 0.89166 0.75297 0.0
H1136 H 0.14467 0.92267 0.74093 0.0
H1137 H 0.07842 0.87833 0.74373 0.0
H1138 H 0.15328 0.84735 0.72974 0.0
H1139 H 0.18772 0.83915 0.70567 0.0
H1140 H 0.14763 0.80326 0.65273 0.0
H1141 H 0.1129 0.8115 0.67636 0.0
C1142 C 0.06339 0.77886 0.79385 0.0
C1143 C 0.05471 0.7604 0.78049 0.0
C1144 C 0.07035 0.79864 0.78195 0.0
C1145 C 0.06888 0.80034 0.75644 0.0
C1146 C 0.0597 0.78219 0.74307 0.0
C1147 C 0.05248 0.76246 0.755 0.0
C1148 C 0.07864 0.82034 0.7438 0.0
C1149 C 0.09716 0.8169 0.72814 0.0
C1150 C 0.07159 0.84274 0.74923 0.0
C1151 C 0.05157 0.84733 0.76496 0.0
C1152 C 0.03046 0.83725 0.75977 0.0
C1153 C 0.01172 0.84146 0.77477 0.0
C1154 C 0.01384 0.85582 0.79496 0.0
C1155 C 0.0347 0.86604 0.80016 0.0
C1156 C 0.0535 0.86188 0.78522 0.0
C1157 C 0.13682 0.8984 0.68495 0.0
C1158 C 0.14543 0.91359 0.7025 0.0
C1159 C 0.12219 0.88081 0.69188 0.0
C1160 C 0.11623 0.87783 0.71652 0.0
C1161 C 0.12405 0.89356 0.73385 0.0
C1162 C 0.13842 0.91127 0.72692 0.0
C1163 C 0.10295 0.85774 0.72468 0.0
C1164 C 0.08381 0.86114 0.73956 0.0
C1165 C 0.10964 0.83526 0.71884 0.0
C1166 C 0.13049 0.83028 0.70464 0.0
C1167 C 0.1518 0.83786 0.71287 0.0
C1168 C 0.17137 0.83318 0.69932 0.0
C1169 C 0.16986 0.82076 0.67764 0.0
C1170 C 0.14877 0.81292 0.6695 0.0
C1171 C 0.12914 0.81759 0.68296 0.0
H1172 H 0.18503 0.81714 0.66718 0.0
H1173 H 0.99931 0.85905 0.80655 0.0
H1174 H 0.57249 0.12204 0.22005 0.0
H1175 H 0.60401 0.09865 0.23458 0.0
H1176 H 0.65059 0.13769 0.19057 0.0
H1177 H 0.61901 0.16043 0.17514 0.0
H1178 H 0.66524 0.09629 0.1925 0.0
H1179 H 0.64018 0.15064 0.25185 0.0
H1180 H 0.61258 0.17004 0.27855 0.0
H1181 H 0.59928 0.10733 0.31593 0.0
H1182 H 0.62663 0.0875 0.28923 0.0
H1183 H 0.74664 0.09447 0.30485 0.0
H1184 H 0.71272 0.10767 0.28392 0.0
H1185 H 0.7101 0.04515 0.24278 0.0
H1186 H 0.74498 0.03228 0.26296 0.0
H1187 H 0.67214 0.09546 0.28277 0.0
H1188 H 0.68411 0.05397 0.18794 0.0
H1189 H 0.71506 0.04095 0.16096 0.0
H1190 H 0.76072 0.08861 0.19431 0.0
H1191 H 0.72998 0.10209 0.22127 0.0
C1192 C 0.58939 0.12532 0.21308 0.0
C1193 C 0.59331 0.14325 0.19667 0.0
C1194 C 0.60742 0.112 0.22148 0.0
C1195 C 0.62979 0.11678 0.21419 0.0
C1196 C 0.63352 0.13371 0.19656 0.0
C1197 C 0.61543 0.14674 0.18777 0.0
C1198 C 0.64941 0.10569 0.22649 0.0
C1199 C 0.66669 0.09596 0.21224 0.0
C1200 C 0.65163 0.10569 0.25225 0.0
C1201 C 0.63523 0.11755 0.26838 0.0
C1202 C 0.63125 0.14097 0.26566 0.0
C1203 C 0.61567 0.15204 0.2808 0.0
C1204 C 0.60413 0.13991 0.29888 0.0
C1205 C 0.60819 0.11669 0.30189 0.0
C1206 C 0.62374 0.10553 0.28677 0.0
C1207 C 0.73885 0.08346 0.29138 0.0
C1208 C 0.74854 0.06233 0.28553 0.0
C1209 C 0.71938 0.09103 0.27943 0.0
C1210 C 0.70884 0.07755 0.26156 0.0
C1211 C 0.71813 0.05612 0.25611 0.0
C1212 C 0.73798 0.0487 0.26776 0.0
C1213 C 0.68824 0.08626 0.24882 0.0
C1214 C 0.67065 0.09548 0.26302 0.0
C1215 C 0.68627 0.08666 0.22303 0.0
C1216 C 0.70482 0.07881 0.20681 0.0
C1217 C 0.70075 0.06169 0.18947 0.0
C1218 C 0.71825 0.05423 0.17419 0.0
C1219 C 0.73986 0.06388 0.17599 0.0
C1220 C 0.744 0.08108 0.19301 0.0
C1221 C 0.72655 0.08861 0.20831 0.0
H1222 H 0.75339 0.05808 0.16416 0.0
H1223 H 0.59207 0.14851 0.31059 0.0
H1224 H 0.44273 0.7759 0.19316 0.0
H1225 H 0.43034 0.8104 0.21405 0.0
H1226 H 0.44532 0.77962 0.28365 0.0
H1227 H 0.458 0.74499 0.26284 0.0
H1228 H 0.40109 0.79688 0.27986 0.0
H1229 H 0.47692 0.82241 0.26646 0.0
H1230 H 0.51165 0.82977 0.24263 0.0
H1231 H 0.47473 0.87508 0.19577 0.0
H1232 H 0.43967 0.86775 0.21909 0.0
H1233 H 0.36034 0.89636 0.33798 0.0
H1234 H 0.38638 0.86568 0.32687 0.0
H1235 H 0.38712 0.88953 0.25239 0.0
H1236 H 0.36173 0.92054 0.26345 0.0
H1237 H 0.42788 0.87546 0.26433 0.0
H1238 H 0.35187 0.84554 0.27188 0.0
H1239 H 0.31579 0.83745 0.29301 0.0
H1240 H 0.35165 0.79969 0.34789 0.0
H1241 H 0.388 0.80782 0.32722 0.0
C1242 C 0.44376 0.77658 0.2129 0.0
C1243 C 0.45128 0.75768 0.22635 0.0
C1244 C 0.43677 0.79635 0.2248 0.0
C1245 C 0.43698 0.79758 0.25039 0.0
C1246 C 0.4451 0.77901 0.26388 0.0
C1247 C 0.45242 0.75929 0.25195 0.0
C1248 C 0.42681 0.81749 0.26285 0.0
C1249 C 0.40726 0.81405 0.27698 0.0
C1250 C 0.43454 0.83986 0.2585 0.0
C1251 C 0.45561 0.8444 0.24445 0.0
C1252 C 0.47615 0.83381 0.25096 0.0
C1253 C 0.49591 0.83801 0.23756 0.0
C1254 C 0.49539 0.85285 0.21768 0.0
C1255 C 0.47511 0.86358 0.21118 0.0
C1256 C 0.45529 0.85944 0.2245 0.0
C1257 C 0.36627 0.89524 0.3193 0.0
C1258 C 0.35874 0.9108 0.30156 0.0
C1259 C 0.3811 0.87763 0.31296 0.0
C1260 C 0.3884 0.87503 0.28869 0.0
C1261 C 0.38172 0.89114 0.27122 0.0
C1262 C 0.36709 0.90885 0.27758 0.0
C1263 C 0.40188 0.8549 0.28099 0.0
C1264 C 0.42198 0.85828 0.26766 0.0
C1265 C 0.39448 0.83243 0.28575 0.0
C1266 C 0.37266 0.82753 0.29819 0.0
C1267 C 0.35207 0.83567 0.28856 0.0
C1268 C 0.33158 0.83105 0.30043 0.0
C1269 C 0.33143 0.81813 0.32183 0.0
C1270 C 0.35179 0.80974 0.33135 0.0
C1271 C 0.37234 0.81434 0.31957 0.0
H1272 H 0.31555 0.81456 0.33099 0.0
H1273 H 0.51071 0.85608 0.20733 0.0
H1274 H 0.72262 0.44605 0.69486 0.0
H1275 H 0.68826 0.43373 0.71608 0.0
H1276 H 0.72064 0.44604 0.78545 0.0
H1277 H 0.75507 0.45871 0.76434 0.0
H1278 H 0.70272 0.40184 0.77981 0.0
H1279 H 0.67836 0.47866 0.77125 0.0
H1280 H 0.67104 0.5146 0.74955 0.0
H1281 H 0.62374 0.48072 0.70229 0.0
H1282 H 0.63102 0.44448 0.72347 0.0
H1283 H 0.60417 0.35948 0.83817 0.0
H1284 H 0.63485 0.38586 0.82794 0.0
H1285 H 0.60932 0.39092 0.7543 0.0
H1286 H 0.57833 0.36525 0.76452 0.0
H1287 H 0.62432 0.43073 0.76822 0.0
H1288 H 0.65311 0.35395 0.77044 0.0
H1289 H 0.66109 0.31671 0.78919 0.0
H1290 H 0.70066 0.34915 0.84507 0.0
H1291 H 0.69267 0.38663 0.82679 0.0
C1292 C 0.72231 0.44654 0.71463 0.0
C1293 C 0.7416 0.45327 0.72792 0.0
C1294 C 0.70263 0.43958 0.72672 0.0
C1295 C 0.70191 0.43903 0.75232 0.0
C1296 C 0.72086 0.44642 0.76568 0.0
C1297 C 0.74047 0.45373 0.75358 0.0
C1298 C 0.68217 0.42869 0.76486 0.0
C1299 C 0.68561 0.40844 0.77782 0.0
C1300 C 0.65985 0.43702 0.76164 0.0
C1301 C 0.65537 0.4588 0.74886 0.0
C1302 C 0.66653 0.47882 0.75611 0.0
C1303 C 0.66236 0.49926 0.74392 0.0
C1304 C 0.64697 0.49993 0.72453 0.0
C1305 C 0.63567 0.48017 0.71731 0.0
C1306 C 0.63979 0.45968 0.72942 0.0
C1307 C 0.60492 0.36645 0.81989 0.0
C1308 C 0.58891 0.36005 0.8021 0.0
C1309 C 0.62252 0.38147 0.81404 0.0
C1310 C 0.62465 0.39006 0.79021 0.0
C1311 C 0.60808 0.38452 0.77279 0.0
C1312 C 0.59038 0.36973 0.77867 0.0
C1313 C 0.64481 0.4036 0.78278 0.0
C1314 C 0.64146 0.42438 0.7707 0.0
C1315 C 0.66724 0.39559 0.78643 0.0
C1316 C 0.67205 0.37309 0.79744 0.0
C1317 C 0.66336 0.35314 0.78684 0.0
C1318 C 0.66791 0.332 0.79736 0.0
C1319 C 0.68131 0.33057 0.81836 0.0
C1320 C 0.69024 0.35029 0.82884 0.0
C1321 C 0.68571 0.37148 0.81841 0.0
H1322 H 0.68482 0.31418 0.82647 0.0
H1323 H 0.64376 0.51578 0.71512 0.0
H1324 H 0.1382 0.57614 0.26205 0.0
H1325 H 0.11447 0.60736 0.24776 0.0
H1326 H 0.11315 0.63561 0.32036 0.0
H1327 H 0.13718 0.60442 0.33495 0.0
H1328 H 0.06986 0.63834 0.29218 0.0
H1329 H 0.14955 0.65699 0.28689 0.0
H1330 H 0.18939 0.64961 0.2755 0.0
H1331 H 0.17026 0.6451 0.2 0.0
H1332 H 0.13022 0.65208 0.21101 0.0
H1333 H 0.04395 0.75308 0.2569 0.0
H1334 H 0.0577 0.71782 0.27534 0.0
H1335 H 0.07644 0.69282 0.20406 0.0
H1336 H 0.06335 0.72817 0.18565 0.0
H1337 H 0.11042 0.68833 0.23371 0.0
H1338 H 0.03111 0.67048 0.23784 0.0
H1339 H 0.99089 0.67663 0.24846 0.0
H1340 H 0.00822 0.67882 0.32458 0.0
H1341 H 0.04861 0.67299 0.31439 0.0
C1342 C 0.13258 0.58872 0.27516 0.0
C1343 C 0.13987 0.58791 0.29962 0.0
C1344 C 0.11898 0.60654 0.26693 0.0
C1345 C 0.11226 0.62384 0.28297 0.0
C1346 C 0.11818 0.62237 0.30773 0.0
C1347 C 0.13198 0.60459 0.31599 0.0
C1348 C 0.10124 0.64454 0.2732 0.0
C1349 C 0.07873 0.64949 0.27962 0.0
C1350 C 0.11277 0.65875 0.2565 0.0
C1351 C 0.13687 0.65482 0.2498 0.0
C1352 C 0.15381 0.65423 0.26789 0.0
C1353 C 0.17643 0.65015 0.2615 0.0
C1354 C 0.18234 0.64683 0.23705 0.0
C1355 C 0.16565 0.64764 0.21893 0.0
C1356 C 0.14299 0.65167 0.22523 0.0
C1357 C 0.05066 0.73991 0.24512 0.0
C1358 C 0.05271 0.7435 0.21982 0.0
C1359 C 0.05845 0.71971 0.25569 0.0
C1360 C 0.06809 0.7026 0.2411 0.0
C1361 C 0.06921 0.7058 0.21572 0.0
C1362 C 0.06167 0.72603 0.20521 0.0
C1363 C 0.07871 0.68216 0.25225 0.0
C1364 C 0.10136 0.67727 0.2462 0.0
C1365 C 0.06719 0.66802 0.26914 0.0
C1366 C 0.04292 0.67153 0.27532 0.0
C1367 C 0.02637 0.67247 0.25683 0.0
C1368 C 0.00354 0.67586 0.26277 0.0
C1369 C 0.99701 0.67818 0.28717 0.0
C1370 C 0.0133 0.67706 0.30568 0.0
C1371 C 0.03617 0.67369 0.29984 0.0
H1372 H 0.97932 0.6808 0.29174 0.0
H1373 H 0.19986 0.64367 0.23214 0.0
H1374 H 0.88997 0.15586 0.83269 0.0
H1375 H 0.85749 0.13181 0.82155 0.0
H1376 H 0.88843 0.11779 0.75184 0.0
H1377 H 0.9209 0.14131 0.76277 0.0
H1378 H 0.8428 0.13574 0.75036 0.0
H1379 H 0.88756 0.07737 0.79056 0.0
H1380 H 0.90801 0.06077 0.82556 0.0
H1381 H 0.84693 0.06255 0.86832 0.0
H1382 H 0.82618 0.07948 0.83365 0.0
H1383 H 0.77417 0.05749 0.69251 0.0
H1384 H 0.80751 0.07395 0.71213 0.0
H1385 H 0.77399 0.0704 0.78207 0.0
H1386 H 0.74071 0.05314 0.76257 0.0
H1387 H 0.81866 0.0627 0.78738 0.0
H1388 H 0.7732 0.11953 0.75 0.0
H1389 H 0.75097 0.13778 0.71728 0.0
H1390 H 0.8107 0.14201 0.67256 0.0
H1391 H 0.83324 0.12349 0.7049 0.0
C1392 C 0.89 0.14739 0.81513 0.0
C1393 C 0.908 0.15063 0.79858 0.0
C1394 C 0.87146 0.13364 0.80884 0.0
C1395 C 0.8706 0.12311 0.78586 0.0
C1396 C 0.8888 0.12581 0.76964 0.0
C1397 C 0.90737 0.13926 0.77598 0.0
C1398 C 0.85015 0.1106 0.77774 0.0
C1399 C 0.83764 0.11966 0.75828 0.0
C1400 C 0.84292 0.09014 0.78882 0.0
C1401 C 0.85539 0.07994 0.80961 0.0
C1402 C 0.87855 0.07444 0.8075 0.0
C1403 C 0.89018 0.06492 0.82726 0.0
C1404 C 0.8788 0.06068 0.84917 0.0
C1405 C 0.85574 0.06589 0.85135 0.0
C1406 C 0.84403 0.07543 0.83165 0.0
C1407 C 0.77402 0.05983 0.71213 0.0
C1408 C 0.75471 0.05428 0.72596 0.0
C1409 C 0.79306 0.06933 0.72332 0.0
C1410 C 0.79301 0.07399 0.74847 0.0
C1411 C 0.77435 0.0671 0.76261 0.0
C1412 C 0.75535 0.05724 0.75144 0.0
C1413 C 0.81173 0.0875 0.75941 0.0
C1414 C 0.82376 0.07881 0.77949 0.0
C1415 C 0.8183 0.10864 0.74927 0.0
C1416 C 0.80487 0.11995 0.72981 0.0
C1417 C 0.78156 0.12422 0.73313 0.0
C1418 C 0.76891 0.13463 0.71466 0.0
C1419 C 0.77941 0.141 0.69283 0.0
C1420 C 0.8026 0.13704 0.68947 0.0
C1421 C 0.81532 0.12661 0.70787 0.0
H1422 H 0.76958 0.14905 0.67855 0.0
H1423 H 0.88783 0.0533 0.86445 0.0
H1424 H 0.5834 0.22485 0.09132 0.0
H1425 H 0.57822 0.23986 0.05029 0.0
H1426 H 0.50619 0.22749 0.05518 0.0
H1427 H 0.5113 0.21203 0.09649 0.0
H1428 H 0.52286 0.21612 0.01015 0.0
H1429 H 0.52585 0.2807 0.06228 0.0
H1430 H 0.54086 0.30528 0.09496 0.0
H1431 H 0.60298 0.31395 0.055 0.0
H1432 H 0.58847 0.28914 0.02222 0.0
H1433 H 0.50902 0.2842 0.90132 0.0
H1434 H 0.50474 0.27101 0.94365 0.0
H1435 H 0.57735 0.27418 0.95329 0.0
H1436 H 0.58175 0.28717 0.91129 0.0
H1437 H 0.5541 0.2926 0.99218 0.0
H1438 H 0.55219 0.2244 0.9426 0.0
H1439 H 0.5371 0.19964 0.9101 0.0
H1440 H 0.47208 0.19841 0.94557 0.0
H1441 H 0.48673 0.22345 0.97812 0.0
C1442 C 0.56643 0.22517 0.08371 0.0
C1443 C 0.54773 0.21738 0.0973 0.0
C1444 C 0.56349 0.23388 0.06023 0.0
C1445 C 0.54176 0.23524 0.0498 0.0
C1446 C 0.52309 0.22675 0.06292 0.0
C1447 C 0.52604 0.21793 0.08652 0.0
C1448 C 0.53883 0.24585 0.02534 0.0
C1449 C 0.52926 0.23303 0.00633 0.0
C1450 C 0.54734 0.26786 0.02025 0.0
C1451 C 0.55611 0.28293 0.03985 0.0
C1452 C 0.54277 0.28772 0.06053 0.0
C1453 C 0.55118 0.30171 0.07906 0.0
C1454 C 0.57287 0.31114 0.07708 0.0
C1455 C 0.58618 0.30663 0.05652 0.0
C1456 C 0.57786 0.29263 0.03793 0.0
C1457 C 0.52403 0.28223 0.91255 0.0
C1458 C 0.54573 0.28668 0.90292 0.0
C1459 C 0.52157 0.27461 0.93667 0.0
C1460 C 0.54075 0.27148 0.95158 0.0
C1461 C 0.56232 0.27648 0.94215 0.0
C1462 C 0.5648 0.28385 0.91808 0.0
C1463 C 0.53872 0.26264 0.97691 0.0
C1464 C 0.54735 0.27585 0.99611 0.0
C1465 C 0.52926 0.24107 0.98214 0.0
C1466 C 0.52047 0.22602 0.96261 0.0
C1467 C 0.53462 0.21902 0.94334 0.0
C1468 C 0.52616 0.2049 0.92494 0.0
C1469 C 0.50362 0.19752 0.92572 0.0
C1470 C 0.48952 0.20419 0.94495 0.0
C1471 C 0.49789 0.21834 0.96339 0.0
H1472 H 0.4971 0.18658 0.91147 0.0
H1473 H 0.57936 0.32197 0.09145 0.0
H1474 H 0.21449 0.58286 0.41289 0.0
H1475 H 0.23015 0.57795 0.4537 0.0
H1476 H 0.22781 0.50519 0.44499 0.0
H1477 H 0.2118 0.50997 0.40387 0.0
H1478 H 0.21442 0.51866 0.49117 0.0
H1479 H 0.27746 0.53159 0.4385 0.0
H1480 H 0.29944 0.55088 0.4063 0.0
H1481 H 0.30083 0.61197 0.44913 0.0
H1482 H 0.27856 0.59314 0.48145 0.0
H1483 H 0.28441 0.5091 0.59894 0.0
H1484 H 0.27122 0.50476 0.55662 0.0
H1485 H 0.26725 0.57761 0.54946 0.0
H1486 H 0.28037 0.58205 0.59138 0.0
H1487 H 0.28683 0.55819 0.50971 0.0
H1488 H 0.2201 0.5463 0.55989 0.0
H1489 H 0.19773 0.5272 0.59193 0.0
H1490 H 0.20367 0.46383 0.55361 0.0
H1491 H 0.22636 0.48253 0.52149 0.0
C1492 C 0.21712 0.56576 0.41963 0.0
C1493 C 0.21204 0.5468 0.40501 0.0
C1494 C 0.22618 0.563 0.44298 0.0
C1495 C 0.23058 0.54121 0.45224 0.0
C1496 C 0.22469 0.52216 0.43814 0.0
C1497 C 0.21556 0.52492 0.41466 0.0
C1498 C 0.24178 0.53868 0.47643 0.0
C1499 C 0.23048 0.52691 0.49511 0.0
C1500 C 0.26265 0.54961 0.48166 0.0
C1501 C 0.27619 0.56098 0.46234 0.0
C1502 C 0.28231 0.54918 0.44099 0.0
C1503 C 0.29485 0.56003 0.42272 0.0
C1504 C 0.30149 0.58265 0.42565 0.0
C1505 C 0.29566 0.59445 0.44688 0.0
C1506 C 0.28311 0.58369 0.46519 0.0
C1507 C 0.28087 0.52416 0.58825 0.0
C1508 C 0.28338 0.54592 0.59855 0.0
C1509 C 0.27324 0.52166 0.56413 0.0
C1510 C 0.26808 0.54087 0.54992 0.0
C1511 C 0.27112 0.56255 0.56004 0.0
C1512 C 0.27858 0.56505 0.58408 0.0
C1513 C 0.25917 0.53873 0.52462 0.0
C1514 C 0.27095 0.54962 0.50568 0.0
C1515 C 0.2388 0.52697 0.51919 0.0
C1516 C 0.22516 0.51574 0.53846 0.0
C1517 C 0.21681 0.52825 0.55841 0.0
C1518 C 0.20404 0.51751 0.57656 0.0
C1519 C 0.19935 0.4943 0.57485 0.0
C1520 C 0.20736 0.4818 0.55494 0.0
C1521 C 0.22017 0.49246 0.53676 0.0
H1522 H 0.18945 0.48601 0.58891 0.0
H1523 H 0.31119 0.59102 0.41148 0.0
H1524 H 0.92629 0.25625 0.10128 0.0
H1525 H 0.92928 0.24259 0.05946 0.0
H1526 H 0.98307 0.29078 0.04567 0.0
H1527 H 0.981 0.30352 0.08827 0.0
H1528 H 0.92081 0.25973 0.01968 0.0
H1529 H 0.01651 0.27407 0.99871 0.0
H1530 H 0.05331 0.27326 0.02024 0.0
H1531 H 0.02564 0.22775 0.07379 0.0
H1532 H 0.98878 0.22806 0.05241 0.0
H1533 H 0.93245 0.25304 0.89352 0.0
H1534 H 0.93531 0.26519 0.93594 0.0
H1535 H 0.9787 0.20791 0.95162 0.0
H1536 H 0.977 0.19652 0.90849 0.0
H1537 H 0.9928 0.24115 0.97717 0.0
H1538 H 0.91944 0.20905 0.9659 0.0
H1539 H 0.88202 0.20325 0.94667 0.0
H1540 H 0.86396 0.27241 0.96223 0.0
H1541 H 0.9014 0.27872 0.98128 0.0
C1542 C 0.93885 0.26388 0.08937 0.0
C1543 C 0.95339 0.28099 0.09802 0.0
C1544 C 0.94053 0.25606 0.06538 0.0
C1545 C 0.95649 0.26547 0.04922 0.0
C1546 C 0.97095 0.28279 0.0578 0.0
C1547 C 0.96966 0.29022 0.0821 0.0
C1548 C 0.95721 0.25758 0.02329 0.0
C1549 C 0.93661 0.25565 0.0105 0.0
C1550 C 0.97768 0.25172 0.0112 0.0
C1551 C 0.99983 0.2513 0.02409 0.0
C1552 C 0.01831 0.26384 0.01504 0.0
C1553 C 0.03917 0.26347 0.02722 0.0
C1554 C 0.04179 0.25053 0.04842 0.0
C1555 C 0.02357 0.23785 0.05743 0.0
C1556 C 0.00268 0.23814 0.0453 0.0
C1557 C 0.94268 0.24308 0.90599 0.0
C1558 C 0.95428 0.22368 0.8978 0.0
C1559 C 0.94422 0.24997 0.93032 0.0
C1560 C 0.95668 0.23714 0.9473 0.0
C1561 C 0.96886 0.21807 0.93898 0.0
C1562 C 0.96782 0.2115 0.91437 0.0
C1563 C 0.95642 0.24341 0.97371 0.0
C1564 C 0.97705 0.24515 0.98649 0.0
C1565 C 0.93588 0.24812 0.98622 0.0
C1566 C 0.9133 0.2444 0.97482 0.0
C1567 C 0.90754 0.22306 0.96508 0.0
C1568 C 0.88632 0.21968 0.95423 0.0
C1569 C 0.87064 0.23746 0.95318 0.0
C1570 C 0.87613 0.25866 0.96303 0.0
C1571 C 0.89734 0.26214 0.97388 0.0
H1572 H 0.85422 0.23481 0.94477 0.0
H1573 H 0.05795 0.25028 0.05783 0.0
H1574 H 0.28008 0.91877 0.41065 0.0
H1575 H 0.26426 0.92408 0.45132 0.0
H1576 H 0.27157 0.99664 0.44408 0.0
H1577 H 0.28775 0.99144 0.4031 0.0
H1578 H 0.28381 0.98159 0.48992 0.0
H1579 H 0.22023 0.97363 0.43693 0.0
H1580 H 0.1972 0.95631 0.40425 0.0
H1581 H 0.19159 0.89481 0.44592 0.0
H1582 H 0.21489 0.91163 0.4787 0.0
H1583 H 0.2156 0.9934 0.5984 0.0
H1584 H 0.22822 0.99778 0.55591 0.0
H1585 H 0.2275 0.925 0.54698 0.0
H1586 H 0.21493 0.92051 0.5891 0.0
H1587 H 0.20904 0.94643 0.50773 0.0
H1588 H 0.27661 0.95299 0.55785 0.0
H1589 H 0.30024 0.96996 0.59025 0.0
H1590 H 0.29802 0.03442 0.55366 0.0
H1591 H 0.27411 0.01787 0.52118 0.0
C1592 C 0.27849 0.93589 0.41768 0.0
C1593 C 0.28505 0.9547 0.40352 0.0
C1594 C 0.26932 0.9389 0.44094 0.0
C1595 C 0.2663 0.96078 0.45058 0.0
C1596 C 0.2736 0.97961 0.43693 0.0
C1597 C 0.28284 0.97661 0.41353 0.0
C1598 C 0.25522 0.96365 0.47479 0.0
C1599 C 0.26725 0.97433 0.4937 0.0
C1600 C 0.23368 0.954 0.4798 0.0
C1601 C 0.21945 0.94386 0.46022 0.0
C1602 C 0.21422 0.95636 0.43906 0.0
C1603 C 0.2011 0.94664 0.42053 0.0
C1604 C 0.19297 0.92447 0.42299 0.0
C1605 C 0.1979 0.91199 0.44403 0.0
C1606 C 0.21104 0.92162 0.46261 0.0
C1607 C 0.21794 0.97837 0.58729 0.0
C1608 C 0.21434 0.95661 0.59716 0.0
C1609 C 0.22525 0.98089 0.56306 0.0
C1610 C 0.22899 0.9617 0.54831 0.0
C1611 C 0.22473 0.94005 0.55797 0.0
C1612 C 0.2176 0.93752 0.58212 0.0
C1613 C 0.2379 0.96379 0.523 0.0
C1614 C 0.22542 0.95405 0.50385 0.0
C1615 C 0.25897 0.97434 0.51779 0.0
C1616 C 0.27335 0.98427 0.53727 0.0
C1617 C 0.281 0.97083 0.55683 0.0
C1618 C 0.29447 0.98036 0.57518 0.0
C1619 C 0.30056 0.00327 0.57406 0.0
C1620 C 0.29324 0.01669 0.55453 0.0
C1621 C 0.27974 0.00724 0.53615 0.0
H1622 H 0.311 0.01062 0.58828 0.0
H1623 H 0.18283 0.91696 0.40862 0.0
H1624 H 0.49039 0.78111 0.90463 0.0
H1625 H 0.49551 0.76908 0.94727 0.0
H1626 H 0.42307 0.77197 0.95828 0.0
H1627 H 0.41781 0.78365 0.9159 0.0
H1628 H 0.44815 0.79211 0.99622 0.0
H1629 H 0.4468 0.72253 0.94864 0.0
H1630 H 0.46043 0.69668 0.91638 0.0
H1631 H 0.52641 0.6949 0.94971 0.0
H1632 H 0.51323 0.72102 0.98201 0.0
H1633 H 0.41976 0.72802 0.09826 0.0
H1634 H 0.42425 0.74199 0.05672 0.0
H1635 H 0.49582 0.72662 0.05934 0.0
H1636 H 0.49136 0.71215 0.10115 0.0
H1637 H 0.4777 0.7152 0.0154 0.0
H1638 H 0.47835 0.78093 0.06565 0.0
H1639 H 0.46532 0.80687 0.09809 0.0
H1640 H 0.40235 0.81697 0.06011 0.0
H1641 H 0.41485 0.79081 0.02759 0.0
C1642 C 0.4756 0.77934 0.91623 0.0
C1643 C 0.45369 0.78327 0.90689 0.0
C1644 C 0.47854 0.77239 0.94052 0.0
C1645 C 0.45965 0.76953 0.95588 0.0
C1646 C 0.43787 0.77408 0.94675 0.0
C1647 C 0.4349 0.78069 0.92249 0.0
C1648 C 0.4622 0.76133 0.98138 0.0
C1649 C 0.45453 0.77528 1.00043 0.0
C1650 C 0.47123 0.73965 0.98691 0.0
C1651 C 0.47913 0.72395 0.96754 0.0
C1652 C 0.46428 0.7168 0.94896 0.0
C1653 C 0.4719 0.70206 0.93069 0.0
C1654 C 0.49429 0.69421 0.93094 0.0
C1655 C 0.50909 0.70103 0.94951 0.0
C1656 C 0.50155 0.7158 0.96779 0.0
C1657 C 0.43648 0.72747 0.09004 0.0
C1658 C 0.45524 0.71911 0.10313 0.0
C1659 C 0.43904 0.73559 0.06628 0.0
C1660 C 0.46046 0.73582 0.05506 0.0
C1661 C 0.47915 0.72676 0.0677 0.0
C1662 C 0.47658 0.71851 0.09158 0.0
C1663 C 0.46304 0.74577 0.03024 0.0
C1664 C 0.47168 0.7322 0.0113 0.0
C1665 C 0.45508 0.76791 0.0248 0.0
C1666 C 0.44749 0.78377 0.04425 0.0
C1667 C 0.46166 0.78856 0.06429 0.0
C1668 C 0.45437 0.80332 0.08268 0.0
C1669 C 0.43301 0.81353 0.08118 0.0
C1670 C 0.41889 0.80904 0.06125 0.0
C1671 C 0.42608 0.79426 0.04281 0.0
H1672 H 0.4274 0.82496 0.09545 0.0
H1673 H 0.50017 0.6828 0.9168 0.0
H1674 H 0.7489 0.43208 0.60797 0.0
H1675 H 0.73699 0.43418 0.56543 0.0
H1676 H 0.79262 0.47968 0.5499 0.0
H1677 H 0.80379 0.47864 0.59311 0.0
H1678 H 0.75867 0.49234 0.52413 0.0
H1679 H 0.79416 0.42055 0.53614 0.0
H1680 H 0.80144 0.38354 0.55572 0.0
H1681 H 0.73333 0.36229 0.53953 0.0
H1682 H 0.72555 0.3993 0.52013 0.0
H1683 H 0.74862 0.42496 0.40012 0.0
H1684 H 0.76159 0.42884 0.4421 0.0
H1685 H 0.71002 0.47954 0.45522 0.0
H1686 H 0.69781 0.47657 0.41249 0.0
H1687 H 0.74412 0.41933 0.48174 0.0
H1688 H 0.72464 0.5142 0.50219 0.0
H1689 H 0.72366 0.55094 0.48052 0.0
H1690 H 0.77104 0.52557 0.42753 0.0
H1691 H 0.77253 0.48881 0.44905 0.0
C1692 C 0.75856 0.44261 0.59552 0.0
C1693 C 0.77745 0.45498 0.60377 0.0
C1694 C 0.75179 0.44372 0.57113 0.0
C1695 C 0.76425 0.45657 0.55417 0.0
C1696 C 0.78277 0.46952 0.56254 0.0
C1697 C 0.78921 0.46887 0.5872 0.0
C1698 C 0.75819 0.45591 0.52772 0.0
C1699 C 0.75554 0.47638 0.51484 0.0
C1700 C 0.7546 0.4351 0.51528 0.0
C1701 C 0.75922 0.41277 0.52687 0.0
C1702 C 0.78069 0.40804 0.5369 0.0
C1703 C 0.78491 0.38705 0.54795 0.0
C1704 C 0.76784 0.3706 0.54892 0.0
C1705 C 0.74653 0.37507 0.53879 0.0
C1706 C 0.74221 0.39603 0.52774 0.0
C1707 C 0.74009 0.43704 0.4119 0.0
C1708 C 0.72216 0.45044 0.40303 0.0
C1709 C 0.74751 0.43922 0.43598 0.0
C1710 C 0.73694 0.45457 0.452 0.0
C1711 C 0.71885 0.46792 0.4432 0.0
C1712 C 0.71175 0.4661 0.41882 0.0
C1713 C 0.74448 0.45578 0.47801 0.0
C1714 C 0.74731 0.43535 0.49091 0.0
C1715 C 0.74915 0.47658 0.49006 0.0
C1716 C 0.74849 0.49868 0.47709 0.0
C1717 C 0.7349 0.5165 0.48595 0.0
C1718 C 0.73425 0.53732 0.4737 0.0
C1719 C 0.74722 0.54056 0.45262 0.0
C1720 C 0.76093 0.52301 0.4438 0.0
C1721 C 0.76166 0.50217 0.456 0.0
H1722 H 0.74668 0.55668 0.44315 0.0
H1723 H 0.77114 0.35436 0.55749 0.0
H1724 H 0.0089 0.7882 0.10003 0.0
H1725 H 0.0048 0.77628 0.05724 0.0
H1726 H 0.07765 0.77562 0.04937 0.0
H1727 H 0.08188 0.78727 0.09188 0.0
H1728 H 0.05569 0.79614 0.0102 0.0
H1729 H 0.05033 0.72726 0.05851 0.0
H1730 H 0.03368 0.70274 0.09031 0.0
H1731 H 0.96921 0.70486 0.05374 0.0
H1732 H 0.98543 0.72967 0.02188 0.0
H1733 H 0.08339 0.72942 0.90974 0.0
H1734 H 0.07845 0.74396 0.95101 0.0
H1735 H 0.00617 0.73318 0.94574 0.0
H1736 H 0.01107 0.71808 0.90424 0.0
H1737 H 0.02179 0.72119 0.99036 0.0
H1738 H 0.0278 0.78634 0.93952 0.0
H1739 H 0.04403 0.81088 0.9075 0.0
H1740 H 0.10594 0.81678 0.94842 0.0
H1741 H 0.09021 0.79199 0.98053 0.0
C1742 C 0.02401 0.78571 0.08908 0.0
C1743 C 0.04571 0.78861 0.09936 0.0
C1744 C 0.02164 0.77881 0.0647 0.0
C1745 C 0.04093 0.77492 0.05017 0.0
C1746 C 0.06254 0.77851 0.06022 0.0
C1747 C 0.06492 0.78512 0.08457 0.0
C1748 C 0.03894 0.76658 0.02466 0.0
C1749 C 0.04836 0.77972 0.00586 0.0
C1750 C 0.02873 0.74548 0.01889 0.0
C1751 C 0.01901 0.73055 0.038 0.0
C1752 C 0.03255 0.72267 0.05738 0.0
C1753 C 0.02321 0.70869 0.07539 0.0
C1754 C 1.00038 0.70231 0.0741 0.0
C1755 C 0.98688 0.70985 0.05475 0.0
C1756 C 0.99613 0.72387 0.03671 0.0
C1757 C 0.06642 0.73 0.91732 0.0
C1758 C 0.04759 0.72274 0.90359 0.0
C1759 C 0.06361 0.73845 0.94093 0.0
C1760 C 0.04188 0.74015 0.95132 0.0
C1761 C 0.02308 0.73218 0.93803 0.0
C1762 C 0.0259 0.72356 0.91433 0.0
C1763 C 0.0391 0.7505 0.97594 0.0
C1764 C 0.02878 0.73778 0.99457 0.0
C1765 C 0.04835 0.77211 0.98156 0.0
C1766 C 0.05786 0.78717 0.96237 0.0
C1767 C 0.04493 0.79275 0.94162 0.0
C1768 C 0.05403 0.80672 0.92346 0.0
C1769 C 0.07601 0.81535 0.9259 0.0
C1770 C 0.08892 0.81007 0.94654 0.0
C1771 C 0.0799 0.79608 0.96475 0.0
H1772 H 0.08303 0.82617 0.91182 0.0
H1773 H 0.99318 0.69147 0.08805 0.0
H1774 H 0.72841 0.0815 0.59695 0.0
H1775 H 0.74106 0.07809 0.55479 0.0
H1776 H 0.72539 0.00655 0.55563 0.0
H1777 H 0.71267 0.0098 0.59826 0.0
H1778 H 0.76756 0.01601 0.53445 0.0
H1779 H 0.69087 0.04117 0.52566 0.0
H1780 H 0.6575 0.06527 0.53389 0.0
H1781 H 0.69381 0.12383 0.50823 0.0
H1782 H 0.72753 0.10013 0.50017 0.0
H1783 H 0.78584 0.01292 0.40394 0.0
H1784 H 0.77075 0.00817 0.44538 0.0
H1785 H 0.77421 0.08066 0.45641 0.0
H1786 H 0.78864 0.08552 0.41506 0.0
H1787 H 0.73467 0.06578 0.47051 0.0
H1788 H 0.81231 0.04197 0.48332 0.0
H1789 H 0.8464 0.01862 0.47596 0.0
H1790 H 0.80907 0.95837 0.49439 0.0
H1791 H 0.77467 0.98136 0.50158 0.0
C1792 C 0.72754 0.06501 0.58823 0.0
C1793 C 0.71942 0.04593 0.60098 0.0
C1794 C 0.73474 0.06311 0.56405 0.0
C1795 C 0.73396 0.04212 0.55195 0.0
C1796 C 0.72607 0.02293 0.56461 0.0
C1797 C 0.71872 0.02483 0.58891 0.0
C1798 C 0.74158 0.04055 0.52612 0.0
C1799 C 0.76012 0.02655 0.52031 0.0
C1800 C 0.7321 0.05457 0.50779 0.0
C1801 C 0.71179 0.06887 0.51246 0.0
C1802 C 0.6918 0.05921 0.52193 0.0
C1803 C 0.67281 0.0728 0.52654 0.0
C1804 C 0.67355 0.09607 0.52163 0.0
C1805 C 0.69327 0.1058 0.51204 0.0
C1806 C 0.71231 0.09229 0.50741 0.0
C1807 C 0.7836 0.02779 0.41533 0.0
C1808 C 0.78838 0.0496 0.40618 0.0
C1809 C 0.77501 0.02506 0.43904 0.0
C1810 C 0.77136 0.04406 0.45412 0.0
C1811 C 0.77671 0.06574 0.44513 0.0
C1812 C 0.78505 0.06849 0.42147 0.0
C1813 C 0.76118 0.04178 0.4789 0.0
C1814 C 0.74203 0.05503 0.48451 0.0
C1815 C 0.7702 0.02716 0.49702 0.0
C1816 C 0.79086 0.01335 0.4927 0.0
C1817 C 0.81133 0.02372 0.4856 0.0
C1818 C 0.83071 0.01056 0.4815 0.0
C1819 C 0.82989 0.98702 0.48462 0.0
C1820 C 0.80968 0.9766 0.49193 0.0
C1821 C 0.79024 0.98969 0.49603 0.0
H1822 H 0.84491 0.97686 0.48145 0.0
H1823 H 0.65883 0.10657 0.52522 0.0
loop_
_geom_bond_atom_site_label_1
_geom_bond_atom_site_label_2
_geom_bond_distance
_geom_bond_site_symmetry_2
_ccdc_geom_bond_type
O0 Cd1 2.223 . S
O0 C8 1.315 . S
Cd1 O0 2.223 . S
Cd1 O4 2.297 . S
Cd1 O5 2.439 . S
Cd1 O11 2.240 . S
Cd2 O3 2.240 . S
Cd2 O10 2.223 . S
Cd2 O12 2.297 . S
Cd2 O13 2.439 . S
O3 Cd2 2.240 . S
O3 C8 1.279 . S
O4 Cd1 2.297 . S
O4 C6 1.247 . S
O5 Cd1 2.439 . S
O5 C6 1.208 . S
C6 O4 1.247 . S
C6 O5 1.208 . S
C7 O12 1.247 . S
C7 O13 1.208 . S
C8 O0 1.315 . S
C8 O3 1.279 . S
C9 O10 1.315 . S
C9 O11 1.279 . S
O10 Cd2 2.223 . S
O10 C9 1.315 . S
O11 Cd1 2.240 . S
O11 C9 1.279 . S
O12 Cd2 2.297 . S
O12 C7 1.247 . S
O13 Cd2 2.439 . S
O13 C7 1.208 . S
O14 Cd15 2.223 . S
O14 C22 1.315 . S
Cd15 O14 2.223 . S
Cd15 O18 2.297 . S
Cd15 O19 2.439 . S
Cd15 O25 2.240 . S
Cd16 O17 2.240 . S
Cd16 O24 2.223 . S
Cd16 O26 2.297 . S
Cd16 O27 2.439 . S
O17 Cd16 2.240 . S
O17 C22 1.279 . S
O18 Cd15 2.297 . S
O18 C20 1.247 . S
O19 Cd15 2.439 . S
O19 C20 1.208 . S
C20 O18 1.247 . S
C20 O19 1.208 . S
C21 O26 1.247 . S
C21 O27 1.208 . S
C22 O14 1.315 . S
C22 O17 1.279 . S
C23 O24 1.315 . S
C23 O25 1.279 . S
O24 Cd16 2.223 . S
O24 C23 1.315 . S
O25 Cd15 2.240 . S
O25 C23 1.279 . S
O26 Cd16 2.297 . S
O26 C21 1.247 . S
O27 Cd16 2.439 . S
O27 C21 1.208 . S
O28 Cd29 2.223 . S
O28 C36 1.315 . S
Cd29 O28 2.223 . S
Cd29 O32 2.297 . S
Cd29 O33 2.439 . S
Cd29 O39 2.240 . S
Cd30 O31 2.240 . S
Cd30 O38 2.223 . S
Cd30 O40 2.297 . S
Cd30 O41 2.439 . S
O31 Cd30 2.240 . S
O31 C36 1.279 . S
O32 Cd29 2.297 . S
O32 C34 1.247 . S
O33 Cd29 2.439 . S
O33 C34 1.208 . S
C34 O32 1.247 . S
C34 O33 1.208 . S
C35 O40 1.247 1_455 S
C35 O41 1.208 1_455 S
C36 O28 1.315 . S
C36 O31 1.279 . S
C37 O38 1.315 . S
C37 O39 1.279 . S
O38 Cd30 2.223 . S
O38 C37 1.315 . S
O39 Cd29 2.240 . S
O39 C37 1.279 . S
O40 Cd30 2.297 . S
O40 C35 1.247 1_655 S
O41 Cd30 2.439 . S
O41 C35 1.208 1_655 S
O42 Cd43 2.223 . S
O42 C50 1.315 . S
Cd43 O42 2.223 . S
Cd43 O46 2.297 . S
Cd43 O47 2.439 . S
Cd43 O53 2.240 . S
Cd44 O45 2.240 . S
Cd44 O52 2.223 . S
Cd44 O54 2.297 . S
Cd44 O55 2.439 . S
O45 Cd44 2.240 . S
O45 C50 1.279 . S
O46 Cd43 2.297 . S
O46 C48 1.247 1_565 S
O47 Cd43 2.439 . S
O47 C48 1.208 1_565 S
C48 O46 1.247 1_545 S
C48 O47 1.208 1_545 S
C49 O54 1.247 . S
C49 O55 1.208 . S
C50 O42 1.315 . S
C50 O45 1.279 . S
C51 O52 1.315 . S
C51 O53 1.279 . S
O52 Cd44 2.223 . S
O52 C51 1.315 . S
O53 Cd43 2.240 . S
O53 C51 1.279 . S
O54 Cd44 2.297 . S
O54 C49 1.247 . S
O55 Cd44 2.439 . S
O55 C49 1.208 . S
O56 Cd57 2.223 . S
O56 C64 1.315 . S
Cd57 O56 2.223 . S
Cd57 O60 2.297 . S
Cd57 O61 2.439 . S
Cd57 O67 2.240 . S
Cd58 O59 2.240 . S
Cd58 O66 2.223 . S
Cd58 O68 2.297 . S
Cd58 O69 2.439 . S
O59 Cd58 2.240 . S
O59 C64 1.279 . S
O60 Cd57 2.297 . S
O60 C62 1.247 . S
O61 Cd57 2.439 . S
O61 C62 1.208 . S
C62 O60 1.247 . S
C62 O61 1.208 . S
C63 O68 1.247 . S
C63 O69 1.208 . S
C64 O56 1.315 . S
C64 O59 1.279 . S
C65 O66 1.315 . S
C65 O67 1.279 . S
O66 Cd58 2.223 . S
O66 C65 1.315 . S
O67 Cd57 2.240 . S
O67 C65 1.279 . S
O68 Cd58 2.297 . S
O68 C63 1.247 . S
O69 Cd58 2.439 . S
O69 C63 1.208 . S
O70 Cd71 2.223 . S
O70 C78 1.315 . S
Cd71 O70 2.223 . S
Cd71 O74 2.297 . S
Cd71 O75 2.439 . S
Cd71 O81 2.240 . S
Cd72 O73 2.240 . S
Cd72 O80 2.223 . S
Cd72 O82 2.297 . S
Cd72 O83 2.439 . S
O73 Cd72 2.240 . S
O73 C78 1.279 . S
O74 Cd71 2.297 . S
O74 C76 1.247 . S
O75 Cd71 2.439 . S
O75 C76 1.208 . S
C76 O74 1.247 . S
C76 O75 1.208 . S
C77 O82 1.247 . S
C77 O83 1.208 . S
C78 O70 1.315 . S
C78 O73 1.279 . S
C79 O80 1.315 . S
C79 O81 1.279 . S
O80 Cd72 2.223 . S
O80 C79 1.315 . S
O81 Cd71 2.240 . S
O81 C79 1.279 . S
O82 Cd72 2.297 . S
O82 C77 1.247 . S
O83 Cd72 2.439 . S
O83 C77 1.208 . S
O84 Cd85 2.223 . S
O84 C92 1.315 . S
Cd85 O84 2.223 . S
Cd85 O88 2.297 . S
Cd85 O89 2.439 . S
Cd85 O95 2.240 . S
Cd86 O87 2.240 . S
Cd86 O94 2.223 . S
Cd86 O96 2.297 . S
Cd86 O97 2.439 . S
O87 Cd86 2.240 . S
O87 C92 1.279 . S
O88 Cd85 2.297 . S
O88 C90 1.247 . S
O89 Cd85 2.439 . S
O89 C90 1.208 . S
C90 O88 1.247 . S
C90 O89 1.208 . S
C91 O96 1.247 1_455 S
C91 O97 1.208 1_455 S
C92 O84 1.315 . S
C92 O87 1.279 . S
C93 O94 1.315 . S
C93 O95 1.279 . S
O94 Cd86 2.223 . S
O94 C93 1.315 . S
O95 Cd85 2.240 . S
O95 C93 1.279 . S
O96 Cd86 2.297 . S
O96 C91 1.247 1_655 S
O97 Cd86 2.439 . S
O97 C91 1.208 1_655 S
O98 Cd99 2.223 . S
O98 C106 1.315 . S
Cd99 O98 2.223 . S
Cd99 O102 2.297 . S
Cd99 O103 2.439 . S
Cd99 O109 2.240 . S
Cd100 O101 2.240 . S
Cd100 O108 2.223 . S
Cd100 O110 2.297 . S
Cd100 O111 2.439 . S
O101 Cd100 2.240 . S
O101 C106 1.279 . S
O102 Cd99 2.297 . S
O102 C104 1.247 1_565 S
O103 Cd99 2.439 . S
O103 C104 1.208 1_565 S
C104 O102 1.247 1_545 S
C104 O103 1.208 1_545 S
C105 O110 1.247 . S
C105 O111 1.208 . S
C106 O98 1.315 . S
C106 O101 1.279 . S
C107 O108 1.315 . S
C107 O109 1.279 . S
O108 Cd100 2.223 . S
O108 C107 1.315 . S
O109 Cd99 2.240 . S
O109 C107 1.279 . S
O110 Cd100 2.297 . S
O110 C105 1.247 . S
O111 Cd100 2.439 . S
O111 C105 1.208 . S
O112 Cd113 2.223 . S
O112 C120 1.315 . S
Cd113 O112 2.223 . S
Cd113 O116 2.297 . S
Cd113 O117 2.439 . S
Cd113 O123 2.240 . S
Cd114 O115 2.240 . S
Cd114 O122 2.223 . S
Cd114 O124 2.297 . S
Cd114 O125 2.439 . S
O115 Cd114 2.240 . S
O115 C120 1.279 . S
O116 Cd113 2.297 . S
O116 C118 1.247 . S
O117 Cd113 2.439 . S
O117 C118 1.208 . S
C118 O116 1.247 . S
C118 O117 1.208 . S
C119 O124 1.247 . S
C119 O125 1.208 . S
C120 O112 1.315 . S
C120 O115 1.279 . S
C121 O122 1.315 . S
C121 O123 1.279 . S
O122 Cd114 2.223 . S
O122 C121 1.315 . S
O123 Cd113 2.240 . S
O123 C121 1.279 . S
O124 Cd114 2.297 . S
O124 C119 1.247 . S
O125 Cd114 2.439 . S
O125 C119 1.208 . S
O126 Cd127 2.223 . S
O126 C134 1.315 . S
Cd127 O126 2.223 . S
Cd127 O130 2.297 . S
Cd127 O131 2.439 . S
Cd127 O137 2.240 . S
Cd128 O129 2.240 . S
Cd128 O136 2.223 . S
Cd128 O138 2.297 . S
Cd128 O139 2.439 . S
O129 Cd128 2.240 . S
O129 C134 1.279 . S
O130 Cd127 2.297 . S
O130 C132 1.247 . S
O131 Cd127 2.439 . S
O131 C132 1.208 . S
C132 O130 1.247 . S
C132 O131 1.208 . S
C133 O138 1.247 . S
C133 O139 1.208 . S
C134 O126 1.315 . S
C134 O129 1.279 . S
C135 O136 1.315 . S
C135 O137 1.279 . S
O136 Cd128 2.223 . S
O136 C135 1.315 . S
O137 Cd127 2.240 . S
O137 C135 1.279 . S
O138 Cd128 2.297 . S
O138 C133 1.247 . S
O139 Cd128 2.439 . S
O139 C133 1.208 . S
O140 Cd141 2.223 . S
O140 C148 1.315 . S
Cd141 O140 2.223 . S
Cd141 O144 2.297 . S
Cd141 O145 2.439 . S
Cd141 O151 2.240 . S
Cd142 O143 2.240 . S
Cd142 O150 2.223 . S
Cd142 O152 2.297 . S
Cd142 O153 2.439 . S
O143 Cd142 2.240 . S
O143 C148 1.279 . S
O144 Cd141 2.297 . S
O144 C146 1.247 1_455 S
O145 Cd141 2.439 . S
O145 C146 1.208 1_455 S
C146 O144 1.247 1_655 S
C146 O145 1.208 1_655 S
C147 O152 1.247 . S
C147 O153 1.208 . S
C148 O140 1.315 . S
C148 O143 1.279 . S
C149 O150 1.315 . S
C149 O151 1.279 . S
O150 Cd142 2.223 . S
O150 C149 1.315 . S
O151 Cd141 2.240 . S
O151 C149 1.279 . S
O152 Cd142 2.297 . S
O152 C147 1.247 . S
O153 Cd142 2.439 . S
O153 C147 1.208 . S
O154 Cd155 2.223 . S
O154 C162 1.315 . S
Cd155 O154 2.223 . S
Cd155 O158 2.297 . S
Cd155 O159 2.439 . S
Cd155 O165 2.240 . S
Cd156 O157 2.240 . S
Cd156 O164 2.223 . S
Cd156 O166 2.297 . S
Cd156 O167 2.439 . S
O157 Cd156 2.240 . S
O157 C162 1.279 . S
O158 Cd155 2.297 . S
O158 C160 1.247 1_545 S
O159 Cd155 2.439 . S
O159 C160 1.208 1_545 S
C160 O158 1.247 1_565 S
C160 O159 1.208 1_565 S
C161 O166 1.247 . S
C161 O167 1.208 . S
C162 O154 1.315 . S
C162 O157 1.279 . S
C163 O164 1.315 . S
C163 O165 1.279 . S
O164 Cd156 2.223 . S
O164 C163 1.315 . S
O165 Cd155 2.240 . S
O165 C163 1.279 . S
O166 Cd156 2.297 . S
O166 C161 1.247 . S
O167 Cd156 2.439 . S
O167 C161 1.208 . S
O168 Cd169 2.223 . S
O168 C176 1.315 . S
Cd169 O168 2.223 . S
Cd169 O172 2.297 . S
Cd169 O173 2.439 . S
Cd169 O179 2.240 . S
Cd170 O171 2.240 . S
Cd170 O178 2.223 . S
Cd170 O180 2.297 . S
Cd170 O181 2.439 . S
O171 Cd170 2.240 . S
O171 C176 1.279 . S
O172 Cd169 2.297 . S
O172 C174 1.247 . S
O173 Cd169 2.439 . S
O173 C174 1.208 . S
C174 O172 1.247 . S
C174 O173 1.208 . S
C175 O180 1.247 . S
C175 O181 1.208 . S
C176 O168 1.315 . S
C176 O171 1.279 . S
C177 O178 1.315 . S
C177 O179 1.279 . S
O178 Cd170 2.223 . S
O178 C177 1.315 . S
O179 Cd169 2.240 . S
O179 C177 1.279 . S
O180 Cd170 2.297 . S
O180 C175 1.247 . S
O181 Cd170 2.439 . S
O181 C175 1.208 . S
O182 Cd183 2.223 . S
O182 C190 1.315 . S
Cd183 O182 2.223 . S
Cd183 O186 2.297 . S
Cd183 O187 2.439 . S
Cd183 O193 2.240 . S
Cd184 O185 2.240 . S
Cd184 O192 2.223 . S
Cd184 O194 2.297 . S
Cd184 O195 2.439 . S
O185 Cd184 2.240 . S
O185 C190 1.279 . S
O186 Cd183 2.297 . S
O186 C188 1.247 . S
O187 Cd183 2.439 . S
O187 C188 1.208 . S
C188 O186 1.247 . S
C188 O187 1.208 . S
C189 O194 1.247 . S
C189 O195 1.208 . S
C190 O182 1.315 . S
C190 O185 1.279 . S
C191 O192 1.315 . S
C191 O193 1.279 . S
O192 Cd184 2.223 . S
O192 C191 1.315 . S
O193 Cd183 2.240 . S
O193 C191 1.279 . S
O194 Cd184 2.297 . S
O194 C189 1.247 . S
O195 Cd184 2.439 . S
O195 C189 1.208 . S
O196 Cd197 2.223 . S
O196 C204 1.315 . S
Cd197 O196 2.223 . S
Cd197 O200 2.297 . S
Cd197 O201 2.439 . S
Cd197 O207 2.240 . S
Cd198 O199 2.240 . S
Cd198 O206 2.223 . S
Cd198 O208 2.297 . S
Cd198 O209 2.439 . S
O199 Cd198 2.240 . S
O199 C204 1.279 . S
O200 Cd197 2.297 . S
O200 C202 1.247 1_455 S
O201 Cd197 2.439 . S
O201 C202 1.208 1_455 S
C202 O200 1.247 1_655 S
C202 O201 1.208 1_655 S
C203 O208 1.247 . S
C203 O209 1.208 . S
C204 O196 1.315 . S
C204 O199 1.279 . S
C205 O206 1.315 . S
C205 O207 1.279 . S
O206 Cd198 2.223 . S
O206 C205 1.315 . S
O207 Cd197 2.240 . S
O207 C205 1.279 . S
O208 Cd198 2.297 . S
O208 C203 1.247 . S
O209 Cd198 2.439 . S
O209 C203 1.208 . S
O210 Cd211 2.223 . S
O210 C218 1.315 . S
Cd211 O210 2.223 . S
Cd211 O214 2.297 . S
Cd211 O215 2.439 . S
Cd211 O221 2.240 . S
Cd212 O213 2.240 . S
Cd212 O220 2.223 . S
Cd212 O222 2.297 . S
Cd212 O223 2.439 . S
O213 Cd212 2.240 . S
O213 C218 1.279 . S
O214 Cd211 2.297 . S
O214 C216 1.247 1_545 S
O215 Cd211 2.439 . S
O215 C216 1.208 1_545 S
C216 O214 1.247 1_565 S
C216 O215 1.208 1_565 S
C217 O222 1.247 . S
C217 O223 1.208 . S
C218 O210 1.315 . S
C218 O213 1.279 . S
C219 O220 1.315 . S
C219 O221 1.279 . S
O220 Cd212 2.223 . S
O220 C219 1.315 . S
O221 Cd211 2.240 . S
O221 C219 1.279 . S
O222 Cd212 2.297 . S
O222 C217 1.247 . S
O223 Cd212 2.439 . S
O223 C217 1.208 . S
H224 C242 0.951 . S
H225 C244 0.951 . S
H226 C246 0.950 . S
H227 C247 0.950 . S
H228 C249 0.950 . S
H229 C252 0.950 . S
H230 C253 0.950 . S
H231 C255 0.950 . S
H232 C256 0.950 . S
H233 C257 0.951 . S
H234 C259 0.951 . S
H235 C261 0.950 . S
H236 C262 0.950 . S
H237 C264 0.950 . S
H238 C267 0.950 . S
H239 C268 0.950 1_565 S
H240 C270 0.950 . S
H241 C271 0.950 . S
C242 H224 0.951 . S
C242 C243 1.366 . S
C242 C244 1.388 . S
C243 C242 1.366 . S
C243 C247 1.385 . S
C244 H225 0.951 . S
C244 C242 1.388 . S
C244 C245 1.366 . S
C245 C244 1.366 . S
C245 C246 1.414 . S
C245 C248 1.499 . S
C246 H226 0.950 . S
C246 C245 1.414 . S
C246 C247 1.374 . S
C247 H227 0.950 . S
C247 C243 1.385 . S
C247 C246 1.374 . S
C248 C245 1.499 . S
C248 C249 1.373 . S
C248 C250 1.389 . S
C249 H228 0.950 . S
C249 C248 1.373 . S
C249 C265 1.377 . S
C250 C248 1.389 . S
C250 C251 1.524 . S
C250 C264 1.377 . S
C251 C250 1.524 . S
C251 C252 1.397 . S
C251 C256 1.363 . S
C252 H229 0.950 . S
C252 C251 1.397 . S
C252 C253 1.334 . S
C253 H230 0.950 . S
C253 C252 1.334 . S
C253 C254 1.287 . S
C254 C253 1.287 . S
C254 C255 1.524 . S
C254 H273 0.913 . S
C255 H231 0.950 . S
C255 C254 1.524 . S
C255 C256 1.415 . S
C256 H232 0.950 . S
C256 C251 1.363 . S
C256 C255 1.415 . S
C257 H233 0.951 . S
C257 C258 1.366 . S
C257 C259 1.388 . S
C258 C257 1.366 . S
C258 C262 1.385 . S
C259 H234 0.951 . S
C259 C257 1.388 . S
C259 C260 1.366 . S
C260 C259 1.366 . S
C260 C261 1.414 . S
C260 C263 1.499 . S
C261 H235 0.950 . S
C261 C260 1.414 . S
C261 C262 1.374 . S
C262 H236 0.950 . S
C262 C258 1.385 . S
C262 C261 1.374 . S
C263 C260 1.499 . S
C263 C264 1.373 . S
C263 C265 1.389 . S
C264 H237 0.950 . S
C264 C250 1.377 . S
C264 C263 1.373 . S
C265 C249 1.377 . S
C265 C263 1.389 . S
C265 C266 1.524 . S
C266 C265 1.524 . S
C266 C267 1.397 . S
C266 C271 1.363 . S
C267 H238 0.950 . S
C267 C266 1.397 . S
C267 C268 1.334 . S
C268 H239 0.950 1_545 S
C268 C267 1.334 . S
C268 C269 1.287 . S
C269 C268 1.287 . S
C269 C270 1.524 . S
C269 H272 0.999 . S
C270 H240 0.950 . S
C270 C269 1.524 . S
C270 C271 1.415 . S
C271 H241 0.950 . S
C271 C266 1.363 . S
C271 C270 1.415 . S
H272 C269 0.999 . S
H273 C254 0.913 . S
H274 C292 0.951 . S
H275 C294 0.951 . S
H276 C296 0.950 . S
H277 C297 0.950 . S
H278 C299 0.950 . S
H279 C302 0.950 . S
H280 C303 0.950 . S
H281 C305 0.950 . S
H282 C306 0.950 . S
H283 C307 0.951 . S
H284 C309 0.951 . S
H285 C311 0.950 . S
H286 C312 0.950 . S
H287 C314 0.950 . S
H288 C317 0.950 . S
H289 C318 0.950 . S
H290 C320 0.950 . S
H291 C321 0.950 . S
C292 H274 0.951 . S
C292 C293 1.366 . S
C292 C294 1.388 . S
C293 C292 1.366 . S
C293 C297 1.385 . S
C294 H275 0.951 . S
C294 C292 1.388 . S
C294 C295 1.366 . S
C295 C294 1.366 . S
C295 C296 1.414 . S
C295 C298 1.499 . S
C296 H276 0.950 . S
C296 C295 1.414 . S
C296 C297 1.374 . S
C297 H277 0.950 . S
C297 C293 1.385 . S
C297 C296 1.374 . S
C298 C295 1.499 . S
C298 C299 1.373 . S
C298 C300 1.389 . S
C299 H278 0.950 . S
C299 C298 1.373 . S
C299 C315 1.377 . S
C300 C298 1.389 . S
C300 C301 1.524 . S
C300 C314 1.377 . S
C301 C300 1.524 . S
C301 C302 1.397 . S
C301 C306 1.363 . S
C302 H279 0.950 . S
C302 C301 1.397 . S
C302 C303 1.334 . S
C303 H280 0.950 . S
C303 C302 1.334 . S
C303 C304 1.287 . S
C304 C303 1.287 . S
C304 C305 1.524 . S
C304 H323 0.913 . S
C305 H281 0.950 . S
C305 C304 1.524 . S
C305 C306 1.415 . S
C306 H282 0.950 . S
C306 C301 1.363 . S
C306 C305 1.415 . S
C307 H283 0.951 . S
C307 C308 1.366 . S
C307 C309 1.388 . S
C308 C307 1.366 . S
C308 C312 1.385 . S
C309 H284 0.951 . S
C309 C307 1.388 . S
C309 C310 1.366 . S
C310 C309 1.366 . S
C310 C311 1.414 . S
C310 C313 1.499 . S
C311 H285 0.950 . S
C311 C310 1.414 . S
C311 C312 1.374 . S
C312 H286 0.950 . S
C312 C308 1.385 . S
C312 C311 1.374 . S
C313 C310 1.499 . S
C313 C314 1.373 . S
C313 C315 1.389 . S
C314 H287 0.950 . S
C314 C300 1.377 . S
C314 C313 1.373 . S
C315 C299 1.377 . S
C315 C313 1.389 . S
C315 C316 1.524 . S
C316 C315 1.524 . S
C316 C317 1.397 . S
C316 C321 1.363 . S
C317 H288 0.950 . S
C317 C316 1.397 . S
C317 C318 1.334 . S
C318 H289 0.950 . S
C318 C317 1.334 . S
C318 C319 1.287 . S
C319 C318 1.287 . S
C319 C320 1.524 . S
C319 H322 0.999 . S
C320 H290 0.950 . S
C320 C319 1.524 . S
C320 C321 1.415 . S
C321 H291 0.950 . S
C321 C316 1.363 . S
C321 C320 1.415 . S
H322 C319 0.999 . S
H323 C304 0.913 . S
H324 C342 0.951 . S
H325 C344 0.951 . S
H326 C346 0.950 . S
H327 C347 0.950 1_655 S
H328 C349 0.950 . S
H329 C352 0.950 . S
H330 C353 0.950 . S
H331 C355 0.950 . S
H332 C356 0.950 . S
H333 C357 0.951 . S
H334 C359 0.951 . S
H335 C361 0.950 . S
H336 C362 0.950 . S
H337 C364 0.950 . S
H338 C367 0.950 . S
H339 C368 0.950 . S
H340 C370 0.950 . S
H341 C371 0.950 . S
C342 H324 0.951 . S
C342 C343 1.366 . S
C342 C344 1.388 . S
C343 C342 1.366 . S
C343 C347 1.385 . S
C344 H325 0.951 . S
C344 C342 1.388 . S
C344 C345 1.366 . S
C345 C344 1.366 . S
C345 C346 1.414 . S
C345 C348 1.499 . S
C346 H326 0.950 . S
C346 C345 1.414 . S
C346 C347 1.374 . S
C347 H327 0.950 1_455 S
C347 C343 1.385 . S
C347 C346 1.374 . S
C348 C345 1.499 . S
C348 C349 1.373 . S
C348 C350 1.389 . S
C349 H328 0.950 . S
C349 C348 1.373 . S
C349 C365 1.377 . S
C350 C348 1.389 . S
C350 C351 1.524 . S
C350 C364 1.377 . S
C351 C350 1.524 . S
C351 C352 1.397 . S
C351 C356 1.363 . S
C352 H329 0.950 . S
C352 C351 1.397 . S
C352 C353 1.334 . S
C353 H330 0.950 . S
C353 C352 1.334 . S
C353 C354 1.287 . S
C354 C353 1.287 . S
C354 C355 1.524 . S
C354 H373 0.913 . S
C355 H331 0.950 . S
C355 C354 1.524 . S
C355 C356 1.415 . S
C356 H332 0.950 . S
C356 C351 1.363 . S
C356 C355 1.415 . S
C357 H333 0.951 . S
C357 C358 1.366 . S
C357 C359 1.388 . S
C358 C357 1.366 . S
C358 C362 1.385 . S
C359 H334 0.951 . S
C359 C357 1.388 . S
C359 C360 1.366 . S
C360 C359 1.366 . S
C360 C361 1.414 . S
C360 C363 1.499 . S
C361 H335 0.950 . S
C361 C360 1.414 . S
C361 C362 1.374 . S
C362 H336 0.950 . S
C362 C358 1.385 . S
C362 C361 1.374 . S
C363 C360 1.499 . S
C363 C364 1.373 . S
C363 C365 1.389 . S
C364 H337 0.950 . S
C364 C350 1.377 . S
C364 C363 1.373 . S
C365 C349 1.377 . S
C365 C363 1.389 . S
C365 C366 1.524 . S
C366 C365 1.524 . S
C366 C367 1.397 . S
C366 C371 1.363 . S
C367 H338 0.950 . S
C367 C366 1.397 . S
C367 C368 1.334 . S
C368 H339 0.950 . S
C368 C367 1.334 . S
C368 C369 1.287 . S
C369 C368 1.287 . S
C369 C370 1.524 . S
C369 H372 0.999 . S
C370 H340 0.950 . S
C370 C369 1.524 . S
C370 C371 1.415 . S
C371 H341 0.950 . S
C371 C366 1.363 . S
C371 C370 1.415 . S
H372 C369 0.999 . S
H373 C354 0.913 . S
H374 C392 0.951 . S
H375 C394 0.951 . S
H376 C396 0.950 . S
H377 C397 0.950 1_565 S
H378 C399 0.950 . S
H379 C402 0.950 . S
H380 C403 0.950 . S
H381 C405 0.950 . S
H382 C406 0.950 . S
H383 C407 0.951 . S
H384 C409 0.951 . S
H385 C411 0.950 . S
H386 C412 0.950 . S
H387 C414 0.950 . S
H388 C417 0.950 . S
H389 C418 0.950 1_655 S
H390 C420 0.950 1_655 S
H391 C421 0.950 . S
C392 H374 0.951 . S
C392 C393 1.366 . S
C392 C394 1.388 . S
C393 C392 1.366 . S
C393 C397 1.385 . S
C394 H375 0.951 . S
C394 C392 1.388 . S
C394 C395 1.366 . S
C395 C394 1.366 . S
C395 C396 1.414 . S
C395 C398 1.499 . S
C396 H376 0.950 . S
C396 C395 1.414 . S
C396 C397 1.374 . S
C397 H377 0.950 1_545 S
C397 C393 1.385 . S
C397 C396 1.374 . S
C398 C395 1.499 . S
C398 C399 1.373 . S
C398 C400 1.389 . S
C399 H378 0.950 . S
C399 C398 1.373 . S
C399 C415 1.377 . S
C400 C398 1.389 . S
C400 C401 1.524 . S
C400 C414 1.377 . S
C401 C400 1.524 . S
C401 C402 1.397 . S
C401 C406 1.363 . S
C402 H379 0.950 . S
C402 C401 1.397 . S
C402 C403 1.334 . S
C403 H380 0.950 . S
C403 C402 1.334 . S
C403 C404 1.287 . S
C404 C403 1.287 . S
C404 C405 1.524 . S
C404 H423 0.913 . S
C405 H381 0.950 . S
C405 C404 1.524 . S
C405 C406 1.415 . S
C406 H382 0.950 . S
C406 C401 1.363 . S
C406 C405 1.415 . S
C407 H383 0.951 . S
C407 C408 1.366 . S
C407 C409 1.388 . S
C408 C407 1.366 . S
C408 C412 1.385 . S
C409 H384 0.951 . S
C409 C407 1.388 . S
C409 C410 1.366 . S
C410 C409 1.366 . S
C410 C411 1.414 . S
C410 C413 1.499 . S
C411 H385 0.950 . S
C411 C410 1.414 . S
C411 C412 1.374 . S
C412 H386 0.950 . S
C412 C408 1.385 . S
C412 C411 1.374 . S
C413 C410 1.499 . S
C413 C414 1.373 . S
C413 C415 1.389 . S
C414 H387 0.950 . S
C414 C400 1.377 . S
C414 C413 1.373 . S
C415 C399 1.377 . S
C415 C413 1.389 . S
C415 C416 1.524 . S
C416 C415 1.524 . S
C416 C417 1.397 . S
C416 C421 1.363 . S
C417 H388 0.950 . S
C417 C416 1.397 . S
C417 C418 1.334 . S
C418 H389 0.950 1_455 S
C418 C417 1.334 . S
C418 C419 1.287 1_455 S
C419 C418 1.287 1_655 S
C419 C420 1.524 1_655 S
C419 H422 0.999 . S
C420 H390 0.950 1_455 S
C420 C419 1.524 1_455 S
C420 C421 1.415 . S
C421 H391 0.950 . S
C421 C416 1.363 . S
C421 C420 1.415 . S
H422 C419 0.999 . S
H423 C404 0.913 . S
H424 C442 0.951 . S
H425 C444 0.951 . S
H426 C446 0.950 . S
H427 C447 0.950 . S
H428 C449 0.950 . S
H429 C452 0.950 . S
H430 C453 0.950 . S
H431 C455 0.950 . S
H432 C456 0.950 . S
H433 C457 0.951 . S
H434 C459 0.951 . S
H435 C461 0.950 . S
H436 C462 0.950 1_545 S
H437 C464 0.950 . S
H438 C467 0.950 . S
H439 C468 0.950 . S
H440 C470 0.950 . S
H441 C471 0.950 . S
C442 H424 0.951 . S
C442 C443 1.366 . S
C442 C444 1.388 . S
C443 C442 1.366 . S
C443 C447 1.385 . S
C444 H425 0.951 . S
C444 C442 1.388 . S
C444 C445 1.366 . S
C445 C444 1.366 . S
C445 C446 1.414 . S
C445 C448 1.499 . S
C446 H426 0.950 . S
C446 C445 1.414 . S
C446 C447 1.374 . S
C447 H427 0.950 . S
C447 C443 1.385 . S
C447 C446 1.374 . S
C448 C445 1.499 . S
C448 C449 1.373 . S
C448 C450 1.389 . S
C449 H428 0.950 . S
C449 C448 1.373 . S
C449 C465 1.377 . S
C450 C448 1.389 . S
C450 C451 1.524 . S
C450 C464 1.377 . S
C451 C450 1.524 . S
C451 C452 1.397 . S
C451 C456 1.363 . S
C452 H429 0.950 . S
C452 C451 1.397 . S
C452 C453 1.334 . S
C453 H430 0.950 . S
C453 C452 1.334 . S
C453 C454 1.287 . S
C454 C453 1.287 . S
C454 C455 1.524 . S
C454 H473 0.913 . S
C455 H431 0.950 . S
C455 C454 1.524 . S
C455 C456 1.415 . S
C456 H432 0.950 . S
C456 C451 1.363 . S
C456 C455 1.415 . S
C457 H433 0.951 . S
C457 C458 1.366 . S
C457 C459 1.388 . S
C458 C457 1.366 . S
C458 C462 1.385 . S
C459 H434 0.951 . S
C459 C457 1.388 . S
C459 C460 1.366 . S
C460 C459 1.366 . S
C460 C461 1.414 . S
C460 C463 1.499 . S
C461 H435 0.950 . S
C461 C460 1.414 . S
C461 C462 1.374 . S
C462 H436 0.950 1_565 S
C462 C458 1.385 . S
C462 C461 1.374 . S
C463 C460 1.499 . S
C463 C464 1.373 . S
C463 C465 1.389 . S
C464 H437 0.950 . S
C464 C450 1.377 . S
C464 C463 1.373 . S
C465 C449 1.377 . S
C465 C463 1.389 . S
C465 C466 1.524 . S
C466 C465 1.524 . S
C466 C467 1.397 . S
C466 C471 1.363 . S
C467 H438 0.950 . S
C467 C466 1.397 . S
C467 C468 1.334 . S
C468 H439 0.950 . S
C468 C467 1.334 . S
C468 C469 1.287 . S
C469 C468 1.287 . S
C469 C470 1.524 . S
C469 H472 0.999 . S
C470 H440 0.950 . S
C470 C469 1.524 . S
C470 C471 1.415 . S
C471 H441 0.950 . S
C471 C466 1.363 . S
C471 C470 1.415 . S
H472 C469 0.999 . S
H473 C454 0.913 . S
H474 C492 0.951 . S
H475 C494 0.951 . S
H476 C496 0.950 . S
H477 C497 0.950 . S
H478 C499 0.950 . S
H479 C502 0.950 . S
H480 C503 0.950 . S
H481 C505 0.950 . S
H482 C506 0.950 . S
H483 C507 0.951 . S
H484 C509 0.951 . S
H485 C511 0.950 . S
H486 C512 0.950 . S
H487 C514 0.950 . S
H488 C517 0.950 . S
H489 C518 0.950 . S
H490 C520 0.950 . S
H491 C521 0.950 . S
C492 H474 0.951 . S
C492 C493 1.366 . S
C492 C494 1.388 . S
C493 C492 1.366 . S
C493 C497 1.385 . S
C494 H475 0.951 . S
C494 C492 1.388 . S
C494 C495 1.366 . S
C495 C494 1.366 . S
C495 C496 1.414 . S
C495 C498 1.499 . S
C496 H476 0.950 . S
C496 C495 1.414 . S
C496 C497 1.374 . S
C497 H477 0.950 . S
C497 C493 1.385 . S
C497 C496 1.374 . S
C498 C495 1.499 . S
C498 C499 1.373 . S
C498 C500 1.389 . S
C499 H478 0.950 . S
C499 C498 1.373 . S
C499 C515 1.377 . S
C500 C498 1.389 . S
C500 C501 1.524 . S
C500 C514 1.377 . S
C501 C500 1.524 . S
C501 C502 1.397 . S
C501 C506 1.363 . S
C502 H479 0.950 . S
C502 C501 1.397 . S
C502 C503 1.334 . S
C503 H480 0.950 . S
C503 C502 1.334 . S
C503 C504 1.287 . S
C504 C503 1.287 . S
C504 C505 1.524 . S
C504 H523 0.913 . S
C505 H481 0.950 . S
C505 C504 1.524 . S
C505 C506 1.415 . S
C506 H482 0.950 . S
C506 C501 1.363 . S
C506 C505 1.415 . S
C507 H483 0.951 . S
C507 C508 1.366 . S
C507 C509 1.388 . S
C508 C507 1.366 . S
C508 C512 1.385 . S
C509 H484 0.951 . S
C509 C507 1.388 . S
C509 C510 1.366 . S
C510 C509 1.366 . S
C510 C511 1.414 . S
C510 C513 1.499 . S
C511 H485 0.950 . S
C511 C510 1.414 . S
C511 C512 1.374 . S
C512 H486 0.950 . S
C512 C508 1.385 . S
C512 C511 1.374 . S
C513 C510 1.499 . S
C513 C514 1.373 . S
C513 C515 1.389 . S
C514 H487 0.950 . S
C514 C500 1.377 . S
C514 C513 1.373 . S
C515 C499 1.377 . S
C515 C513 1.389 . S
C515 C516 1.524 . S
C516 C515 1.524 . S
C516 C517 1.397 . S
C516 C521 1.363 . S
C517 H488 0.950 . S
C517 C516 1.397 . S
C517 C518 1.334 . S
C518 H489 0.950 . S
C518 C517 1.334 . S
C518 C519 1.287 . S
C519 C518 1.287 . S
C519 C520 1.524 . S
C519 H522 0.999 . S
C520 H490 0.950 . S
C520 C519 1.524 . S
C520 C521 1.415 . S
C521 H491 0.950 . S
C521 C516 1.363 . S
C521 C520 1.415 . S
H522 C519 0.999 . S
H523 C504 0.913 . S
H524 C542 0.951 . S
H525 C544 0.951 . S
H526 C546 0.950 . S
H527 C547 0.950 1_455 S
H528 C549 0.950 . S
H529 C552 0.950 . S
H530 C553 0.950 . S
H531 C555 0.950 . S
H532 C556 0.950 . S
H533 C557 0.951 . S
H534 C559 0.951 . S
H535 C561 0.950 . S
H536 C562 0.950 . S
H537 C564 0.950 . S
H538 C567 0.950 . S
H539 C568 0.950 . S
H540 C570 0.950 . S
H541 C571 0.950 . S
C542 H524 0.951 . S
C542 C543 1.366 . S
C542 C544 1.388 . S
C543 C542 1.366 . S
C543 C547 1.385 . S
C544 H525 0.951 . S
C544 C542 1.388 . S
C544 C545 1.366 . S
C545 C544 1.366 . S
C545 C546 1.414 . S
C545 C548 1.499 . S
C546 H526 0.950 . S
C546 C545 1.414 . S
C546 C547 1.374 . S
C547 H527 0.950 1_655 S
C547 C543 1.385 . S
C547 C546 1.374 . S
C548 C545 1.499 . S
C548 C549 1.373 . S
C548 C550 1.389 . S
C549 H528 0.950 . S
C549 C548 1.373 . S
C549 C565 1.377 . S
C550 C548 1.389 . S
C550 C551 1.524 . S
C550 C564 1.377 . S
C551 C550 1.524 . S
C551 C552 1.397 . S
C551 C556 1.363 . S
C552 H529 0.950 . S
C552 C551 1.397 . S
C552 C553 1.334 . S
C553 H530 0.950 . S
C553 C552 1.334 . S
C553 C554 1.287 . S
C554 C553 1.287 . S
C554 C555 1.524 . S
C554 H573 0.913 . S
C555 H531 0.950 . S
C555 C554 1.524 . S
C555 C556 1.415 . S
C556 H532 0.950 . S
C556 C551 1.363 . S
C556 C555 1.415 . S
C557 H533 0.951 . S
C557 C558 1.366 . S
C557 C559 1.388 . S
C558 C557 1.366 . S
C558 C562 1.385 . S
C559 H534 0.951 . S
C559 C557 1.388 . S
C559 C560 1.366 . S
C560 C559 1.366 . S
C560 C561 1.414 . S
C560 C563 1.499 . S
C561 H535 0.950 . S
C561 C560 1.414 . S
C561 C562 1.374 . S
C562 H536 0.950 . S
C562 C558 1.385 . S
C562 C561 1.374 . S
C563 C560 1.499 . S
C563 C564 1.373 . S
C563 C565 1.389 . S
C564 H537 0.950 . S
C564 C550 1.377 . S
C564 C563 1.373 . S
C565 C549 1.377 . S
C565 C563 1.389 . S
C565 C566 1.524 . S
C566 C565 1.524 . S
C566 C567 1.397 . S
C566 C571 1.363 . S
C567 H538 0.950 . S
C567 C566 1.397 . S
C567 C568 1.334 . S
C568 H539 0.950 . S
C568 C567 1.334 . S
C568 C569 1.287 . S
C569 C568 1.287 . S
C569 C570 1.524 . S
C569 H572 0.999 . S
C570 H540 0.950 . S
C570 C569 1.524 . S
C570 C571 1.415 . S
C571 H541 0.950 . S
C571 C566 1.363 . S
C571 C570 1.415 . S
H572 C569 0.999 . S
H573 C554 0.913 . S
H574 C592 0.951 . S
H575 C594 0.951 . S
H576 C596 0.950 . S
H577 C597 0.950 . S
H578 C599 0.950 . S
H579 C602 0.950 . S
H580 C603 0.950 . S
H581 C605 0.950 . S
H582 C606 0.950 . S
H583 C607 0.951 1_455 S
H584 C609 0.951 . S
H585 C611 0.950 . S
H586 C612 0.950 . S
H587 C614 0.950 . S
H588 C617 0.950 . S
H589 C618 0.950 . S
H590 C620 0.950 1_455 S
H591 C621 0.950 . S
C592 H574 0.951 . S
C592 C593 1.366 . S
C592 C594 1.388 . S
C593 C592 1.366 . S
C593 C597 1.385 . S
C594 H575 0.951 . S
C594 C592 1.388 . S
C594 C595 1.366 . S
C595 C594 1.366 . S
C595 C596 1.414 . S
C595 C598 1.499 . S
C596 H576 0.950 . S
C596 C595 1.414 . S
C596 C597 1.374 . S
C597 H577 0.950 . S
C597 C593 1.385 . S
C597 C596 1.374 . S
C598 C595 1.499 . S
C598 C599 1.373 . S
C598 C600 1.389 . S
C599 H578 0.950 . S
C599 C598 1.373 . S
C599 C615 1.377 . S
C600 C598 1.389 . S
C600 C601 1.524 . S
C600 C614 1.377 . S
C601 C600 1.524 . S
C601 C602 1.397 . S
C601 C606 1.363 . S
C602 H579 0.950 . S
C602 C601 1.397 . S
C602 C603 1.334 . S
C603 H580 0.950 . S
C603 C602 1.334 . S
C603 C604 1.287 . S
C604 C603 1.287 . S
C604 C605 1.524 . S
C604 H623 0.913 . S
C605 H581 0.950 . S
C605 C604 1.524 . S
C605 C606 1.415 . S
C606 H582 0.950 . S
C606 C601 1.363 . S
C606 C605 1.415 . S
C607 H583 0.951 1_655 S
C607 C608 1.366 . S
C607 C609 1.388 . S
C608 C607 1.366 . S
C608 C612 1.385 . S
C609 H584 0.951 . S
C609 C607 1.388 . S
C609 C610 1.366 . S
C610 C609 1.366 . S
C610 C611 1.414 . S
C610 C613 1.499 . S
C611 H585 0.950 . S
C611 C610 1.414 . S
C611 C612 1.374 . S
C612 H586 0.950 . S
C612 C608 1.385 . S
C612 C611 1.374 . S
C613 C610 1.499 . S
C613 C614 1.373 . S
C613 C615 1.389 . S
C614 H587 0.950 . S
C614 C600 1.377 . S
C614 C613 1.373 . S
C615 C599 1.377 . S
C615 C613 1.389 . S
C615 C616 1.524 . S
C616 C615 1.524 . S
C616 C617 1.397 . S
C616 C621 1.363 . S
C617 H588 0.950 . S
C617 C616 1.397 . S
C617 C618 1.334 . S
C618 H589 0.950 . S
C618 C617 1.334 . S
C618 C619 1.287 . S
C619 C618 1.287 . S
C619 C620 1.524 . S
C619 H622 0.999 1_655 S
C620 H590 0.950 1_655 S
C620 C619 1.524 . S
C620 C621 1.415 . S
C621 H591 0.950 . S
C621 C616 1.363 . S
C621 C620 1.415 . S
H622 C619 0.999 1_455 S
H623 C604 0.913 . S
H624 C642 0.951 . S
H625 C644 0.951 . S
H626 C646 0.950 . S
H627 C647 0.950 . S
H628 C649 0.950 . S
H629 C652 0.950 . S
H630 C653 0.950 . S
H631 C655 0.950 . S
H632 C656 0.950 . S
H633 C657 0.951 . S
H634 C659 0.951 . S
H635 C661 0.950 . S
H636 C662 0.950 . S
H637 C664 0.950 . S
H638 C667 0.950 . S
H639 C668 0.950 . S
H640 C670 0.950 . S
H641 C671 0.950 . S
C642 H624 0.951 . S
C642 C643 1.366 . S
C642 C644 1.388 . S
C643 C642 1.366 . S
C643 C647 1.385 . S
C644 H625 0.951 . S
C644 C642 1.388 . S
C644 C645 1.366 . S
C645 C644 1.366 . S
C645 C646 1.414 . S
C645 C648 1.499 . S
C646 H626 0.950 . S
C646 C645 1.414 . S
C646 C647 1.374 . S
C647 H627 0.950 . S
C647 C643 1.385 . S
C647 C646 1.374 . S
C648 C645 1.499 . S
C648 C649 1.373 . S
C648 C650 1.389 . S
C649 H628 0.950 . S
C649 C648 1.373 . S
C649 C665 1.377 . S
C650 C648 1.389 . S
C650 C651 1.524 . S
C650 C664 1.377 . S
C651 C650 1.524 . S
C651 C652 1.397 . S
C651 C656 1.363 . S
C652 H629 0.950 . S
C652 C651 1.397 . S
C652 C653 1.334 . S
C653 H630 0.950 . S
C653 C652 1.334 . S
C653 C654 1.287 . S
C654 C653 1.287 . S
C654 C655 1.524 . S
C654 H673 0.913 . S
C655 H631 0.950 . S
C655 C654 1.524 . S
C655 C656 1.415 . S
C656 H632 0.950 . S
C656 C651 1.363 . S
C656 C655 1.415 . S
C657 H633 0.951 . S
C657 C658 1.366 . S
C657 C659 1.388 . S
C658 C657 1.366 . S
C658 C662 1.385 . S
C659 H634 0.951 . S
C659 C657 1.388 . S
C659 C660 1.366 . S
C660 C659 1.366 . S
C660 C661 1.414 . S
C660 C663 1.499 . S
C661 H635 0.950 . S
C661 C660 1.414 . S
C661 C662 1.374 . S
C662 H636 0.950 . S
C662 C658 1.385 . S
C662 C661 1.374 . S
C663 C660 1.499 . S
C663 C664 1.373 . S
C663 C665 1.389 . S
C664 H637 0.950 . S
C664 C650 1.377 . S
C664 C663 1.373 . S
C665 C649 1.377 . S
C665 C663 1.389 . S
C665 C666 1.524 . S
C666 C665 1.524 . S
C666 C667 1.397 . S
C666 C671 1.363 . S
C667 H638 0.950 . S
C667 C666 1.397 . S
C667 C668 1.334 . S
C668 H639 0.950 . S
C668 C667 1.334 . S
C668 C669 1.287 . S
C669 C668 1.287 . S
C669 C670 1.524 . S
C669 H672 0.999 . S
C670 H640 0.950 . S
C670 C669 1.524 . S
C670 C671 1.415 . S
C671 H641 0.950 . S
C671 C666 1.363 . S
C671 C670 1.415 . S
H672 C669 0.999 . S
H673 C654 0.913 . S
H674 C692 0.951 . S
H675 C694 0.951 . S
H676 C696 0.950 . S
H677 C697 0.950 . S
H678 C699 0.950 . S
H679 C702 0.950 . S
H680 C703 0.950 . S
H681 C705 0.950 . S
H682 C706 0.950 . S
H683 C707 0.951 . S
H684 C709 0.951 . S
H685 C711 0.950 . S
H686 C712 0.950 . S
H687 C714 0.950 . S
H688 C717 0.950 . S
H689 C718 0.950 . S
H690 C720 0.950 . S
H691 C721 0.950 . S
C692 H674 0.951 . S
C692 C693 1.366 . S
C692 C694 1.388 . S
C693 C692 1.366 . S
C693 C697 1.385 . S
C694 H675 0.951 . S
C694 C692 1.388 . S
C694 C695 1.366 . S
C695 C694 1.366 . S
C695 C696 1.414 . S
C695 C698 1.499 . S
C696 H676 0.950 . S
C696 C695 1.414 . S
C696 C697 1.374 . S
C697 H677 0.950 . S
C697 C693 1.385 . S
C697 C696 1.374 . S
C698 C695 1.499 . S
C698 C699 1.373 . S
C698 C700 1.389 . S
C699 H678 0.950 . S
C699 C698 1.373 . S
C699 C715 1.377 . S
C700 C698 1.389 . S
C700 C701 1.524 . S
C700 C714 1.377 . S
C701 C700 1.524 . S
C701 C702 1.397 . S
C701 C706 1.363 . S
C702 H679 0.950 . S
C702 C701 1.397 . S
C702 C703 1.334 . S
C703 H680 0.950 . S
C703 C702 1.334 . S
C703 C704 1.287 . S
C704 C703 1.287 . S
C704 C705 1.524 . S
C704 H723 0.913 . S
C705 H681 0.950 . S
C705 C704 1.524 . S
C705 C706 1.415 . S
C706 H682 0.950 . S
C706 C701 1.363 . S
C706 C705 1.415 . S
C707 H683 0.951 . S
C707 C708 1.366 . S
C707 C709 1.388 . S
C708 C707 1.366 . S
C708 C712 1.385 . S
C709 H684 0.951 . S
C709 C707 1.388 . S
C709 C710 1.366 . S
C710 C709 1.366 . S
C710 C711 1.414 . S
C710 C713 1.499 . S
C711 H685 0.950 . S
C711 C710 1.414 . S
C711 C712 1.374 . S
C712 H686 0.950 . S
C712 C708 1.385 . S
C712 C711 1.374 . S
C713 C710 1.499 . S
C713 C714 1.373 . S
C713 C715 1.389 . S
C714 H687 0.950 . S
C714 C700 1.377 . S
C714 C713 1.373 . S
C715 C699 1.377 . S
C715 C713 1.389 . S
C715 C716 1.524 . S
C716 C715 1.524 . S
C716 C717 1.397 . S
C716 C721 1.363 . S
C717 H688 0.950 . S
C717 C716 1.397 . S
C717 C718 1.334 . S
C718 H689 0.950 . S
C718 C717 1.334 . S
C718 C719 1.287 . S
C719 C718 1.287 . S
C719 C720 1.524 . S
C719 H722 0.999 . S
C720 H690 0.950 . S
C720 C719 1.524 . S
C720 C721 1.415 . S
C721 H691 0.950 . S
C721 C716 1.363 . S
C721 C720 1.415 . S
H722 C719 0.999 . S
H723 C704 0.913 . S
H724 C742 0.951 . S
H725 C744 0.951 . S
H726 C746 0.950 . S
H727 C747 0.950 . S
H728 C749 0.950 . S
H729 C752 0.950 . S
H730 C753 0.950 . S
H731 C755 0.950 . S
H732 C756 0.950 . S
H733 C757 0.951 . S
H734 C759 0.951 . S
H735 C761 0.950 . S
H736 C762 0.950 . S
H737 C764 0.950 . S
H738 C767 0.950 . S
H739 C768 0.950 . S
H740 C770 0.950 . S
H741 C771 0.950 . S
C742 H724 0.951 . S
C742 C743 1.366 . S
C742 C744 1.388 . S
C743 C742 1.366 . S
C743 C747 1.385 . S
C744 H725 0.951 . S
C744 C742 1.388 . S
C744 C745 1.366 . S
C745 C744 1.366 . S
C745 C746 1.414 . S
C745 C748 1.499 . S
C746 H726 0.950 . S
C746 C745 1.414 . S
C746 C747 1.374 . S
C747 H727 0.950 . S
C747 C743 1.385 . S
C747 C746 1.374 . S
C748 C745 1.499 . S
C748 C749 1.373 . S
C748 C750 1.389 . S
C749 H728 0.950 . S
C749 C748 1.373 . S
C749 C765 1.377 . S
C750 C748 1.389 . S
C750 C751 1.524 . S
C750 C764 1.377 . S
C751 C750 1.524 . S
C751 C752 1.397 . S
C751 C756 1.363 . S
C752 H729 0.950 . S
C752 C751 1.397 . S
C752 C753 1.334 . S
C753 H730 0.950 . S
C753 C752 1.334 . S
C753 C754 1.287 . S
C754 C753 1.287 . S
C754 C755 1.524 . S
C754 H773 0.913 . S
C755 H731 0.950 . S
C755 C754 1.524 . S
C755 C756 1.415 . S
C756 H732 0.950 . S
C756 C751 1.363 . S
C756 C755 1.415 . S
C757 H733 0.951 . S
C757 C758 1.366 . S
C757 C759 1.388 . S
C758 C757 1.366 . S
C758 C762 1.385 . S
C759 H734 0.951 . S
C759 C757 1.388 . S
C759 C760 1.366 . S
C760 C759 1.366 . S
C760 C761 1.414 . S
C760 C763 1.499 . S
C761 H735 0.950 . S
C761 C760 1.414 . S
C761 C762 1.374 . S
C762 H736 0.950 . S
C762 C758 1.385 . S
C762 C761 1.374 . S
C763 C760 1.499 . S
C763 C764 1.373 . S
C763 C765 1.389 . S
C764 H737 0.950 . S
C764 C750 1.377 . S
C764 C763 1.373 . S
C765 C749 1.377 . S
C765 C763 1.389 . S
C765 C766 1.524 . S
C766 C765 1.524 . S
C766 C767 1.397 . S
C766 C771 1.363 . S
C767 H738 0.950 . S
C767 C766 1.397 . S
C767 C768 1.334 . S
C768 H739 0.950 . S
C768 C767 1.334 . S
C768 C769 1.287 . S
C769 C768 1.287 . S
C769 C770 1.524 . S
C769 H772 0.999 . S
C770 H740 0.950 . S
C770 C769 1.524 . S
C770 C771 1.415 . S
C771 H741 0.950 . S
C771 C766 1.363 . S
C771 C770 1.415 . S
H772 C769 0.999 . S
H773 C754 0.913 . S
H774 C792 0.951 . S
H775 C794 0.951 . S
H776 C796 0.950 . S
H777 C797 0.950 . S
H778 C799 0.950 . S
H779 C802 0.950 . S
H780 C803 0.950 . S
H781 C805 0.950 . S
H782 C806 0.950 . S
H783 C807 0.951 . S
H784 C809 0.951 . S
H785 C811 0.950 . S
H786 C812 0.950 . S
H787 C814 0.950 . S
H788 C817 0.950 . S
H789 C818 0.950 . S
H790 C820 0.950 . S
H791 C821 0.950 . S
C792 H774 0.951 . S
C792 C793 1.366 . S
C792 C794 1.388 . S
C793 C792 1.366 . S
C793 C797 1.385 . S
C794 H775 0.951 . S
C794 C792 1.388 . S
C794 C795 1.366 . S
C795 C794 1.366 . S
C795 C796 1.414 . S
C795 C798 1.499 . S
C796 H776 0.950 . S
C796 C795 1.414 . S
C796 C797 1.374 . S
C797 H777 0.950 . S
C797 C793 1.385 . S
C797 C796 1.374 . S
C798 C795 1.499 . S
C798 C799 1.373 . S
C798 C800 1.389 . S
C799 H778 0.950 . S
C799 C798 1.373 . S
C799 C815 1.377 . S
C800 C798 1.389 . S
C800 C801 1.524 . S
C800 C814 1.377 . S
C801 C800 1.524 . S
C801 C802 1.397 . S
C801 C806 1.363 . S
C802 H779 0.950 . S
C802 C801 1.397 . S
C802 C803 1.334 . S
C803 H780 0.950 . S
C803 C802 1.334 . S
C803 C804 1.287 . S
C804 C803 1.287 . S
C804 C805 1.524 . S
C804 H823 0.913 . S
C805 H781 0.950 . S
C805 C804 1.524 . S
C805 C806 1.415 . S
C806 H782 0.950 . S
C806 C801 1.363 . S
C806 C805 1.415 . S
C807 H783 0.951 . S
C807 C808 1.366 . S
C807 C809 1.388 . S
C808 C807 1.366 . S
C808 C812 1.385 . S
C809 H784 0.951 . S
C809 C807 1.388 . S
C809 C810 1.366 . S
C810 C809 1.366 . S
C810 C811 1.414 . S
C810 C813 1.499 . S
C811 H785 0.950 . S
C811 C810 1.414 . S
C811 C812 1.374 . S
C812 H786 0.950 . S
C812 C808 1.385 . S
C812 C811 1.374 . S
C813 C810 1.499 . S
C813 C814 1.373 . S
C813 C815 1.389 . S
C814 H787 0.950 . S
C814 C800 1.377 . S
C814 C813 1.373 . S
C815 C799 1.377 . S
C815 C813 1.389 . S
C815 C816 1.524 . S
C816 C815 1.524 . S
C816 C817 1.397 . S
C816 C821 1.363 . S
C817 H788 0.950 . S
C817 C816 1.397 . S
C817 C818 1.334 . S
C818 H789 0.950 . S
C818 C817 1.334 . S
C818 C819 1.287 . S
C819 C818 1.287 . S
C819 C820 1.524 . S
C819 H822 0.999 . S
C820 H790 0.950 . S
C820 C819 1.524 . S
C820 C821 1.415 . S
C821 H791 0.950 . S
C821 C816 1.363 . S
C821 C820 1.415 . S
H822 C819 0.999 . S
H823 C804 0.913 . S
H824 C842 0.951 . S
H825 C844 0.951 . S
H826 C846 0.950 . S
H827 C847 0.950 . S
H828 C849 0.950 . S
H829 C852 0.950 . S
H830 C853 0.950 . S
H831 C855 0.950 . S
H832 C856 0.950 . S
H833 C857 0.951 . S
H834 C859 0.951 . S
H835 C861 0.950 . S
H836 C862 0.950 . S
H837 C864 0.950 . S
H838 C867 0.950 . S
H839 C868 0.950 . S
H840 C870 0.950 . S
H841 C871 0.950 . S
C842 H824 0.951 . S
C842 C843 1.366 . S
C842 C844 1.388 . S
C843 C842 1.366 . S
C843 C847 1.385 . S
C844 H825 0.951 . S
C844 C842 1.388 . S
C844 C845 1.366 . S
C845 C844 1.366 . S
C845 C846 1.414 . S
C845 C848 1.499 . S
C846 H826 0.950 . S
C846 C845 1.414 . S
C846 C847 1.374 . S
C847 H827 0.950 . S
C847 C843 1.385 . S
C847 C846 1.374 . S
C848 C845 1.499 . S
C848 C849 1.373 . S
C848 C850 1.389 . S
C849 H828 0.950 . S
C849 C848 1.373 . S
C849 C865 1.377 . S
C850 C848 1.389 . S
C850 C851 1.524 . S
C850 C864 1.377 . S
C851 C850 1.524 . S
C851 C852 1.397 . S
C851 C856 1.363 . S
C852 H829 0.950 . S
C852 C851 1.397 . S
C852 C853 1.334 . S
C853 H830 0.950 . S
C853 C852 1.334 . S
C853 C854 1.287 . S
C854 C853 1.287 . S
C854 C855 1.524 . S
C854 H873 0.913 . S
C855 H831 0.950 . S
C855 C854 1.524 . S
C855 C856 1.415 . S
C856 H832 0.950 . S
C856 C851 1.363 . S
C856 C855 1.415 . S
C857 H833 0.951 . S
C857 C858 1.366 . S
C857 C859 1.388 . S
C858 C857 1.366 . S
C858 C862 1.385 . S
C859 H834 0.951 . S
C859 C857 1.388 . S
C859 C860 1.366 . S
C860 C859 1.366 . S
C860 C861 1.414 . S
C860 C863 1.499 . S
C861 H835 0.950 . S
C861 C860 1.414 . S
C861 C862 1.374 . S
C862 H836 0.950 . S
C862 C858 1.385 . S
C862 C861 1.374 . S
C863 C860 1.499 . S
C863 C864 1.373 . S
C863 C865 1.389 . S
C864 H837 0.950 . S
C864 C850 1.377 . S
C864 C863 1.373 . S
C865 C849 1.377 . S
C865 C863 1.389 . S
C865 C866 1.524 . S
C866 C865 1.524 . S
C866 C867 1.397 . S
C866 C871 1.363 . S
C867 H838 0.950 . S
C867 C866 1.397 . S
C867 C868 1.334 . S
C868 H839 0.950 . S
C868 C867 1.334 . S
C868 C869 1.287 . S
C869 C868 1.287 . S
C869 C870 1.524 . S
C869 H872 0.999 . S
C870 H840 0.950 . S
C870 C869 1.524 . S
C870 C871 1.415 . S
C871 H841 0.950 . S
C871 C866 1.363 . S
C871 C870 1.415 . S
H872 C869 0.999 . S
H873 C854 0.913 . S
H874 C892 0.951 . S
H875 C894 0.951 . S
H876 C896 0.950 . S
H877 C897 0.950 . S
H878 C899 0.950 . S
H879 C902 0.950 . S
H880 C903 0.950 . S
H881 C905 0.950 . S
H882 C906 0.950 . S
H883 C907 0.951 . S
H884 C909 0.951 . S
H885 C911 0.950 . S
H886 C912 0.950 . S
H887 C914 0.950 . S
H888 C917 0.950 . S
H889 C918 0.950 . S
H890 C920 0.950 . S
H891 C921 0.950 . S
C892 H874 0.951 . S
C892 C893 1.366 . S
C892 C894 1.388 . S
C893 C892 1.366 . S
C893 C897 1.385 . S
C894 H875 0.951 . S
C894 C892 1.388 . S
C894 C895 1.366 . S
C895 C894 1.366 . S
C895 C896 1.414 . S
C895 C898 1.499 . S
C896 H876 0.950 . S
C896 C895 1.414 . S
C896 C897 1.374 . S
C897 H877 0.950 . S
C897 C893 1.385 . S
C897 C896 1.374 . S
C898 C895 1.499 . S
C898 C899 1.373 . S
C898 C900 1.389 . S
C899 H878 0.950 . S
C899 C898 1.373 . S
C899 C915 1.377 . S
C900 C898 1.389 . S
C900 C901 1.524 . S
C900 C914 1.377 . S
C901 C900 1.524 . S
C901 C902 1.397 . S
C901 C906 1.363 . S
C902 H879 0.950 . S
C902 C901 1.397 . S
C902 C903 1.334 . S
C903 H880 0.950 . S
C903 C902 1.334 . S
C903 C904 1.287 . S
C904 C903 1.287 . S
C904 C905 1.524 . S
C904 H923 0.913 . S
C905 H881 0.950 . S
C905 C904 1.524 . S
C905 C906 1.415 . S
C906 H882 0.950 . S
C906 C901 1.363 . S
C906 C905 1.415 . S
C907 H883 0.951 . S
C907 C908 1.366 . S
C907 C909 1.388 . S
C908 C907 1.366 . S
C908 C912 1.385 . S
C909 H884 0.951 . S
C909 C907 1.388 . S
C909 C910 1.366 . S
C910 C909 1.366 . S
C910 C911 1.414 . S
C910 C913 1.499 . S
C911 H885 0.950 . S
C911 C910 1.414 . S
C911 C912 1.374 . S
C912 H886 0.950 . S
C912 C908 1.385 . S
C912 C911 1.374 . S
C913 C910 1.499 . S
C913 C914 1.373 . S
C913 C915 1.389 . S
C914 H887 0.950 . S
C914 C900 1.377 . S
C914 C913 1.373 . S
C915 C899 1.377 . S
C915 C913 1.389 . S
C915 C916 1.524 . S
C916 C915 1.524 . S
C916 C917 1.397 . S
C916 C921 1.363 . S
C917 H888 0.950 . S
C917 C916 1.397 . S
C917 C918 1.334 . S
C918 H889 0.950 . S
C918 C917 1.334 . S
C918 C919 1.287 . S
C919 C918 1.287 . S
C919 C920 1.524 . S
C919 H922 0.999 . S
C920 H890 0.950 . S
C920 C919 1.524 . S
C920 C921 1.415 . S
C921 H891 0.950 . S
C921 C916 1.363 . S
C921 C920 1.415 . S
H922 C919 0.999 . S
H923 C904 0.913 . S
H924 C942 0.951 . S
H925 C944 0.951 . S
H926 C946 0.950 . S
H927 C947 0.950 . S
H928 C949 0.950 . S
H929 C952 0.950 . S
H930 C953 0.950 . S
H931 C955 0.950 . S
H932 C956 0.950 . S
H933 C957 0.951 . S
H934 C959 0.951 . S
H935 C961 0.950 . S
H936 C962 0.950 . S
H937 C964 0.950 . S
H938 C967 0.950 . S
H939 C968 0.950 . S
H940 C970 0.950 . S
H941 C971 0.950 . S
C942 H924 0.951 . S
C942 C943 1.366 . S
C942 C944 1.388 . S
C943 C942 1.366 . S
C943 C947 1.385 . S
C944 H925 0.951 . S
C944 C942 1.388 . S
C944 C945 1.366 . S
C945 C944 1.366 . S
C945 C946 1.414 . S
C945 C948 1.499 . S
C946 H926 0.950 . S
C946 C945 1.414 . S
C946 C947 1.374 . S
C947 H927 0.950 . S
C947 C943 1.385 . S
C947 C946 1.374 . S
C948 C945 1.499 . S
C948 C949 1.373 . S
C948 C950 1.389 . S
C949 H928 0.950 . S
C949 C948 1.373 . S
C949 C965 1.377 . S
C950 C948 1.389 . S
C950 C951 1.524 . S
C950 C964 1.377 . S
C951 C950 1.524 . S
C951 C952 1.397 . S
C951 C956 1.363 . S
C952 H929 0.950 . S
C952 C951 1.397 . S
C952 C953 1.334 . S
C953 H930 0.950 . S
C953 C952 1.334 . S
C953 C954 1.287 . S
C954 C953 1.287 . S
C954 C955 1.524 . S
C954 H973 0.913 . S
C955 H931 0.950 . S
C955 C954 1.524 . S
C955 C956 1.415 . S
C956 H932 0.950 . S
C956 C951 1.363 . S
C956 C955 1.415 . S
C957 H933 0.951 . S
C957 C958 1.366 . S
C957 C959 1.388 . S
C958 C957 1.366 . S
C958 C962 1.385 . S
C959 H934 0.951 . S
C959 C957 1.388 . S
C959 C960 1.366 . S
C960 C959 1.366 . S
C960 C961 1.414 . S
C960 C963 1.499 . S
C961 H935 0.950 . S
C961 C960 1.414 . S
C961 C962 1.374 . S
C962 H936 0.950 . S
C962 C958 1.385 . S
C962 C961 1.374 . S
C963 C960 1.499 . S
C963 C964 1.373 . S
C963 C965 1.389 . S
C964 H937 0.950 . S
C964 C950 1.377 . S
C964 C963 1.373 . S
C965 C949 1.377 . S
C965 C963 1.389 . S
C965 C966 1.524 . S
C966 C965 1.524 . S
C966 C967 1.397 . S
C966 C971 1.363 . S
C967 H938 0.950 . S
C967 C966 1.397 . S
C967 C968 1.334 . S
C968 H939 0.950 . S
C968 C967 1.334 . S
C968 C969 1.287 . S
C969 C968 1.287 . S
C969 C970 1.524 . S
C969 H972 0.999 . S
C970 H940 0.950 . S
C970 C969 1.524 . S
C970 C971 1.415 . S
C971 H941 0.950 . S
C971 C966 1.363 . S
C971 C970 1.415 . S
H972 C969 0.999 . S
H973 C954 0.913 . S
H974 C992 0.951 . S
H975 C994 0.951 . S
H976 C996 0.950 . S
H977 C997 0.950 . S
H978 C999 0.950 . S
H979 C1002 0.950 . S
H980 C1003 0.950 . S
H981 C1005 0.950 . S
H982 C1006 0.950 . S
H983 C1007 0.951 . S
H984 C1009 0.951 . S
H985 C1011 0.950 . S
H986 C1012 0.950 . S
H987 C1014 0.950 . S
H988 C1017 0.950 . S
H989 C1018 0.950 . S
H990 C1020 0.950 . S
H991 C1021 0.950 . S
C992 H974 0.951 . S
C992 C993 1.366 . S
C992 C994 1.388 . S
C993 C992 1.366 . S
C993 C997 1.385 . S
C994 H975 0.951 . S
C994 C992 1.388 . S
C994 C995 1.366 . S
C995 C994 1.366 . S
C995 C996 1.414 . S
C995 C998 1.499 . S
C996 H976 0.950 . S
C996 C995 1.414 . S
C996 C997 1.374 . S
C997 H977 0.950 . S
C997 C993 1.385 . S
C997 C996 1.374 . S
C998 C995 1.499 . S
C998 C999 1.373 . S
C998 C1000 1.389 . S
C999 H978 0.950 . S
C999 C998 1.373 . S
C999 C1015 1.377 . S
C1000 C998 1.389 . S
C1000 C1001 1.524 . S
C1000 C1014 1.377 . S
C1001 C1000 1.524 . S
C1001 C1002 1.397 . S
C1001 C1006 1.363 . S
C1002 H979 0.950 . S
C1002 C1001 1.397 . S
C1002 C1003 1.334 . S
C1003 H980 0.950 . S
C1003 C1002 1.334 . S
C1003 C1004 1.287 . S
C1004 C1003 1.287 . S
C1004 C1005 1.524 . S
C1004 H1023 0.913 . S
C1005 H981 0.950 . S
C1005 C1004 1.524 . S
C1005 C1006 1.415 . S
C1006 H982 0.950 . S
C1006 C1001 1.363 . S
C1006 C1005 1.415 . S
C1007 H983 0.951 . S
C1007 C1008 1.366 . S
C1007 C1009 1.388 . S
C1008 C1007 1.366 . S
C1008 C1012 1.385 . S
C1009 H984 0.951 . S
C1009 C1007 1.388 . S
C1009 C1010 1.366 . S
C1010 C1009 1.366 . S
C1010 C1011 1.414 . S
C1010 C1013 1.499 . S
C1011 H985 0.950 . S
C1011 C1010 1.414 . S
C1011 C1012 1.374 . S
C1012 H986 0.950 . S
C1012 C1008 1.385 . S
C1012 C1011 1.374 . S
C1013 C1010 1.499 . S
C1013 C1014 1.373 . S
C1013 C1015 1.389 . S
C1014 H987 0.950 . S
C1014 C1000 1.377 . S
C1014 C1013 1.373 . S
C1015 C999 1.377 . S
C1015 C1013 1.389 . S
C1015 C1016 1.524 . S
C1016 C1015 1.524 . S
C1016 C1017 1.397 . S
C1016 C1021 1.363 . S
C1017 H988 0.950 . S
C1017 C1016 1.397 . S
C1017 C1018 1.334 . S
C1018 H989 0.950 . S
C1018 C1017 1.334 . S
C1018 C1019 1.287 . S
C1019 C1018 1.287 . S
C1019 C1020 1.524 . S
C1019 H1022 0.999 . S
C1020 H990 0.950 . S
C1020 C1019 1.524 . S
C1020 C1021 1.415 . S
C1021 H991 0.950 . S
C1021 C1016 1.363 . S
C1021 C1020 1.415 . S
H1022 C1019 0.999 . S
H1023 C1004 0.913 . S
H1024 C1042 0.951 . S
H1025 C1044 0.951 . S
H1026 C1046 0.950 . S
H1027 C1047 0.950 . S
H1028 C1049 0.950 . S
H1029 C1052 0.950 . S
H1030 C1053 0.950 . S
H1031 C1055 0.950 . S
H1032 C1056 0.950 . S
H1033 C1057 0.951 . S
H1034 C1059 0.951 . S
H1035 C1061 0.950 . S
H1036 C1062 0.950 . S
H1037 C1064 0.950 . S
H1038 C1067 0.950 . S
H1039 C1068 0.950 . S
H1040 C1070 0.950 . S
H1041 C1071 0.950 . S
C1042 H1024 0.951 . S
C1042 C1043 1.366 . S
C1042 C1044 1.388 . S
C1043 C1042 1.366 . S
C1043 C1047 1.385 . S
C1044 H1025 0.951 . S
C1044 C1042 1.388 . S
C1044 C1045 1.366 . S
C1045 C1044 1.366 . S
C1045 C1046 1.414 . S
C1045 C1048 1.499 . S
C1046 H1026 0.950 . S
C1046 C1045 1.414 . S
C1046 C1047 1.374 . S
C1047 H1027 0.950 . S
C1047 C1043 1.385 . S
C1047 C1046 1.374 . S
C1048 C1045 1.499 . S
C1048 C1049 1.373 . S
C1048 C1050 1.389 . S
C1049 H1028 0.950 . S
C1049 C1048 1.373 . S
C1049 C1065 1.377 . S
C1050 C1048 1.389 . S
C1050 C1051 1.524 . S
C1050 C1064 1.377 . S
C1051 C1050 1.524 . S
C1051 C1052 1.397 . S
C1051 C1056 1.363 . S
C1052 H1029 0.950 . S
C1052 C1051 1.397 . S
C1052 C1053 1.334 . S
C1053 H1030 0.950 . S
C1053 C1052 1.334 . S
C1053 C1054 1.287 . S
C1054 C1053 1.287 . S
C1054 C1055 1.524 . S
C1054 H1073 0.913 . S
C1055 H1031 0.950 . S
C1055 C1054 1.524 . S
C1055 C1056 1.415 . S
C1056 H1032 0.950 . S
C1056 C1051 1.363 . S
C1056 C1055 1.415 . S
C1057 H1033 0.951 . S
C1057 C1058 1.366 . S
C1057 C1059 1.388 . S
C1058 C1057 1.366 . S
C1058 C1062 1.385 . S
C1059 H1034 0.951 . S
C1059 C1057 1.388 . S
C1059 C1060 1.366 . S
C1060 C1059 1.366 . S
C1060 C1061 1.414 . S
C1060 C1063 1.499 . S
C1061 H1035 0.950 . S
C1061 C1060 1.414 . S
C1061 C1062 1.374 . S
C1062 H1036 0.950 . S
C1062 C1058 1.385 . S
C1062 C1061 1.374 . S
C1063 C1060 1.499 . S
C1063 C1064 1.373 . S
C1063 C1065 1.389 . S
C1064 H1037 0.950 . S
C1064 C1050 1.377 . S
C1064 C1063 1.373 . S
C1065 C1049 1.377 . S
C1065 C1063 1.389 . S
C1065 C1066 1.524 . S
C1066 C1065 1.524 . S
C1066 C1067 1.397 . S
C1066 C1071 1.363 . S
C1067 H1038 0.950 . S
C1067 C1066 1.397 . S
C1067 C1068 1.334 . S
C1068 H1039 0.950 . S
C1068 C1067 1.334 . S
C1068 C1069 1.287 . S
C1069 C1068 1.287 . S
C1069 C1070 1.524 . S
C1069 H1072 0.999 . S
C1070 H1040 0.950 . S
C1070 C1069 1.524 . S
C1070 C1071 1.415 . S
C1071 H1041 0.950 . S
C1071 C1066 1.363 . S
C1071 C1070 1.415 . S
H1072 C1069 0.999 . S
H1073 C1054 0.913 . S
H1074 C1092 0.951 . S
H1075 C1094 0.951 . S
H1076 C1096 0.950 . S
H1077 C1097 0.950 . S
H1078 C1099 0.950 . S
H1079 C1102 0.950 . S
H1080 C1103 0.950 . S
H1081 C1105 0.950 . S
H1082 C1106 0.950 . S
H1083 C1107 0.951 . S
H1084 C1109 0.951 . S
H1085 C1111 0.950 . S
H1086 C1112 0.950 . S
H1087 C1114 0.950 . S
H1088 C1117 0.950 . S
H1089 C1118 0.950 . S
H1090 C1120 0.950 . S
H1091 C1121 0.950 . S
C1092 H1074 0.951 . S
C1092 C1093 1.366 . S
C1092 C1094 1.388 . S
C1093 C1092 1.366 . S
C1093 C1097 1.385 . S
C1094 H1075 0.951 . S
C1094 C1092 1.388 . S
C1094 C1095 1.366 . S
C1095 C1094 1.366 . S
C1095 C1096 1.414 . S
C1095 C1098 1.499 . S
C1096 H1076 0.950 . S
C1096 C1095 1.414 . S
C1096 C1097 1.374 . S
C1097 H1077 0.950 . S
C1097 C1093 1.385 . S
C1097 C1096 1.374 . S
C1098 C1095 1.499 . S
C1098 C1099 1.373 . S
C1098 C1100 1.389 . S
C1099 H1078 0.950 . S
C1099 C1098 1.373 . S
C1099 C1115 1.377 . S
C1100 C1098 1.389 . S
C1100 C1101 1.524 . S
C1100 C1114 1.377 . S
C1101 C1100 1.524 . S
C1101 C1102 1.397 . S
C1101 C1106 1.363 . S
C1102 H1079 0.950 . S
C1102 C1101 1.397 . S
C1102 C1103 1.334 . S
C1103 H1080 0.950 . S
C1103 C1102 1.334 . S
C1103 C1104 1.287 . S
C1104 C1103 1.287 . S
C1104 C1105 1.524 . S
C1104 H1123 0.913 . S
C1105 H1081 0.950 . S
C1105 C1104 1.524 . S
C1105 C1106 1.415 . S
C1106 H1082 0.950 . S
C1106 C1101 1.363 . S
C1106 C1105 1.415 . S
C1107 H1083 0.951 . S
C1107 C1108 1.366 . S
C1107 C1109 1.388 . S
C1108 C1107 1.366 . S
C1108 C1112 1.385 . S
C1109 H1084 0.951 . S
C1109 C1107 1.388 . S
C1109 C1110 1.366 . S
C1110 C1109 1.366 . S
C1110 C1111 1.414 . S
C1110 C1113 1.499 . S
C1111 H1085 0.950 . S
C1111 C1110 1.414 . S
C1111 C1112 1.374 . S
C1112 H1086 0.950 . S
C1112 C1108 1.385 . S
C1112 C1111 1.374 . S
C1113 C1110 1.499 . S
C1113 C1114 1.373 . S
C1113 C1115 1.389 . S
C1114 H1087 0.950 . S
C1114 C1100 1.377 . S
C1114 C1113 1.373 . S
C1115 C1099 1.377 . S
C1115 C1113 1.389 . S
C1115 C1116 1.524 . S
C1116 C1115 1.524 . S
C1116 C1117 1.397 . S
C1116 C1121 1.363 . S
C1117 H1088 0.950 . S
C1117 C1116 1.397 . S
C1117 C1118 1.334 . S
C1118 H1089 0.950 . S
C1118 C1117 1.334 . S
C1118 C1119 1.287 . S
C1119 C1118 1.287 . S
C1119 C1120 1.524 . S
C1119 H1122 0.999 . S
C1120 H1090 0.950 . S
C1120 C1119 1.524 . S
C1120 C1121 1.415 . S
C1121 H1091 0.950 . S
C1121 C1116 1.363 . S
C1121 C1120 1.415 . S
H1122 C1119 0.999 . S
H1123 C1104 0.913 . S
H1124 C1142 0.951 . S
H1125 C1144 0.951 . S
H1126 C1146 0.950 . S
H1127 C1147 0.950 . S
H1128 C1149 0.950 . S
H1129 C1152 0.950 . S
H1130 C1153 0.950 . S
H1131 C1155 0.950 . S
H1132 C1156 0.950 . S
H1133 C1157 0.951 . S
H1134 C1159 0.951 . S
H1135 C1161 0.950 . S
H1136 C1162 0.950 . S
H1137 C1164 0.950 . S
H1138 C1167 0.950 . S
H1139 C1168 0.950 . S
H1140 C1170 0.950 . S
H1141 C1171 0.950 . S
C1142 H1124 0.951 . S
C1142 C1143 1.366 . S
C1142 C1144 1.388 . S
C1143 C1142 1.366 . S
C1143 C1147 1.385 . S
C1144 H1125 0.951 . S
C1144 C1142 1.388 . S
C1144 C1145 1.366 . S
C1145 C1144 1.366 . S
C1145 C1146 1.414 . S
C1145 C1148 1.499 . S
C1146 H1126 0.950 . S
C1146 C1145 1.414 . S
C1146 C1147 1.374 . S
C1147 H1127 0.950 . S
C1147 C1143 1.385 . S
C1147 C1146 1.374 . S
C1148 C1145 1.499 . S
C1148 C1149 1.373 . S
C1148 C1150 1.389 . S
C1149 H1128 0.950 . S
C1149 C1148 1.373 . S
C1149 C1165 1.377 . S
C1150 C1148 1.389 . S
C1150 C1151 1.524 . S
C1150 C1164 1.377 . S
C1151 C1150 1.524 . S
C1151 C1152 1.397 . S
C1151 C1156 1.363 . S
C1152 H1129 0.950 . S
C1152 C1151 1.397 . S
C1152 C1153 1.334 . S
C1153 H1130 0.950 . S
C1153 C1152 1.334 . S
C1153 C1154 1.287 . S
C1154 C1153 1.287 . S
C1154 C1155 1.524 . S
C1154 H1173 0.913 . S
C1155 H1131 0.950 . S
C1155 C1154 1.524 . S
C1155 C1156 1.415 . S
C1156 H1132 0.950 . S
C1156 C1151 1.363 . S
C1156 C1155 1.415 . S
C1157 H1133 0.951 . S
C1157 C1158 1.366 . S
C1157 C1159 1.388 . S
C1158 C1157 1.366 . S
C1158 C1162 1.385 . S
C1159 H1134 0.951 . S
C1159 C1157 1.388 . S
C1159 C1160 1.366 . S
C1160 C1159 1.366 . S
C1160 C1161 1.414 . S
C1160 C1163 1.499 . S
C1161 H1135 0.950 . S
C1161 C1160 1.414 . S
C1161 C1162 1.374 . S
C1162 H1136 0.950 . S
C1162 C1158 1.385 . S
C1162 C1161 1.374 . S
C1163 C1160 1.499 . S
C1163 C1164 1.373 . S
C1163 C1165 1.389 . S
C1164 H1137 0.950 . S
C1164 C1150 1.377 . S
C1164 C1163 1.373 . S
C1165 C1149 1.377 . S
C1165 C1163 1.389 . S
C1165 C1166 1.524 . S
C1166 C1165 1.524 . S
C1166 C1167 1.397 . S
C1166 C1171 1.363 . S
C1167 H1138 0.950 . S
C1167 C1166 1.397 . S
C1167 C1168 1.334 . S
C1168 H1139 0.950 . S
C1168 C1167 1.334 . S
C1168 C1169 1.287 . S
C1169 C1168 1.287 . S
C1169 C1170 1.524 . S
C1169 H1172 0.999 . S
C1170 H1140 0.950 . S
C1170 C1169 1.524 . S
C1170 C1171 1.415 . S
C1171 H1141 0.950 . S
C1171 C1166 1.363 . S
C1171 C1170 1.415 . S
H1172 C1169 0.999 . S
H1173 C1154 0.913 . S
H1174 C1192 0.951 . S
H1175 C1194 0.951 . S
H1176 C1196 0.950 . S
H1177 C1197 0.950 . S
H1178 C1199 0.950 . S
H1179 C1202 0.950 . S
H1180 C1203 0.950 . S
H1181 C1205 0.950 . S
H1182 C1206 0.950 . S
H1183 C1207 0.951 . S
H1184 C1209 0.951 . S
H1185 C1211 0.950 . S
H1186 C1212 0.950 . S
H1187 C1214 0.950 . S
H1188 C1217 0.950 . S
H1189 C1218 0.950 . S
H1190 C1220 0.950 . S
H1191 C1221 0.950 . S
C1192 H1174 0.951 . S
C1192 C1193 1.366 . S
C1192 C1194 1.388 . S
C1193 C1192 1.366 . S
C1193 C1197 1.385 . S
C1194 H1175 0.951 . S
C1194 C1192 1.388 . S
C1194 C1195 1.366 . S
C1195 C1194 1.366 . S
C1195 C1196 1.414 . S
C1195 C1198 1.499 . S
C1196 H1176 0.950 . S
C1196 C1195 1.414 . S
C1196 C1197 1.374 . S
C1197 H1177 0.950 . S
C1197 C1193 1.385 . S
C1197 C1196 1.374 . S
C1198 C1195 1.499 . S
C1198 C1199 1.373 . S
C1198 C1200 1.389 . S
C1199 H1178 0.950 . S
C1199 C1198 1.373 . S
C1199 C1215 1.377 . S
C1200 C1198 1.389 . S
C1200 C1201 1.524 . S
C1200 C1214 1.377 . S
C1201 C1200 1.524 . S
C1201 C1202 1.397 . S
C1201 C1206 1.363 . S
C1202 H1179 0.950 . S
C1202 C1201 1.397 . S
C1202 C1203 1.334 . S
C1203 H1180 0.950 . S
C1203 C1202 1.334 . S
C1203 C1204 1.287 . S
C1204 C1203 1.287 . S
C1204 C1205 1.524 . S
C1204 H1223 0.913 . S
C1205 H1181 0.950 . S
C1205 C1204 1.524 . S
C1205 C1206 1.415 . S
C1206 H1182 0.950 . S
C1206 C1201 1.363 . S
C1206 C1205 1.415 . S
C1207 H1183 0.951 . S
C1207 C1208 1.366 . S
C1207 C1209 1.388 . S
C1208 C1207 1.366 . S
C1208 C1212 1.385 . S
C1209 H1184 0.951 . S
C1209 C1207 1.388 . S
C1209 C1210 1.366 . S
C1210 C1209 1.366 . S
C1210 C1211 1.414 . S
C1210 C1213 1.499 . S
C1211 H1185 0.950 . S
C1211 C1210 1.414 . S
C1211 C1212 1.374 . S
C1212 H1186 0.950 . S
C1212 C1208 1.385 . S
C1212 C1211 1.374 . S
C1213 C1210 1.499 . S
C1213 C1214 1.373 . S
C1213 C1215 1.389 . S
C1214 H1187 0.950 . S
C1214 C1200 1.377 . S
C1214 C1213 1.373 . S
C1215 C1199 1.377 . S
C1215 C1213 1.389 . S
C1215 C1216 1.524 . S
C1216 C1215 1.524 . S
C1216 C1217 1.397 . S
C1216 C1221 1.363 . S
C1217 H1188 0.950 . S
C1217 C1216 1.397 . S
C1217 C1218 1.334 . S
C1218 H1189 0.950 . S
C1218 C1217 1.334 . S
C1218 C1219 1.287 . S
C1219 C1218 1.287 . S
C1219 C1220 1.524 . S
C1219 H1222 0.999 . S
C1220 H1190 0.950 . S
C1220 C1219 1.524 . S
C1220 C1221 1.415 . S
C1221 H1191 0.950 . S
C1221 C1216 1.363 . S
C1221 C1220 1.415 . S
H1222 C1219 0.999 . S
H1223 C1204 0.913 . S
H1224 C1242 0.951 . S
H1225 C1244 0.951 . S
H1226 C1246 0.950 . S
H1227 C1247 0.950 . S
H1228 C1249 0.950 . S
H1229 C1252 0.950 . S
H1230 C1253 0.950 . S
H1231 C1255 0.950 . S
H1232 C1256 0.950 . S
H1233 C1257 0.951 . S
H1234 C1259 0.951 . S
H1235 C1261 0.950 . S
H1236 C1262 0.950 . S
H1237 C1264 0.950 . S
H1238 C1267 0.950 . S
H1239 C1268 0.950 . S
H1240 C1270 0.950 . S
H1241 C1271 0.950 . S
C1242 H1224 0.951 . S
C1242 C1243 1.366 . S
C1242 C1244 1.388 . S
C1243 C1242 1.366 . S
C1243 C1247 1.385 . S
C1244 H1225 0.951 . S
C1244 C1242 1.388 . S
C1244 C1245 1.366 . S
C1245 C1244 1.366 . S
C1245 C1246 1.414 . S
C1245 C1248 1.499 . S
C1246 H1226 0.950 . S
C1246 C1245 1.414 . S
C1246 C1247 1.374 . S
C1247 H1227 0.950 . S
C1247 C1243 1.385 . S
C1247 C1246 1.374 . S
C1248 C1245 1.499 . S
C1248 C1249 1.373 . S
C1248 C1250 1.389 . S
C1249 H1228 0.950 . S
C1249 C1248 1.373 . S
C1249 C1265 1.377 . S
C1250 C1248 1.389 . S
C1250 C1251 1.524 . S
C1250 C1264 1.377 . S
C1251 C1250 1.524 . S
C1251 C1252 1.397 . S
C1251 C1256 1.363 . S
C1252 H1229 0.950 . S
C1252 C1251 1.397 . S
C1252 C1253 1.334 . S
C1253 H1230 0.950 . S
C1253 C1252 1.334 . S
C1253 C1254 1.287 . S
C1254 C1253 1.287 . S
C1254 C1255 1.524 . S
C1254 H1273 0.913 . S
C1255 H1231 0.950 . S
C1255 C1254 1.524 . S
C1255 C1256 1.415 . S
C1256 H1232 0.950 . S
C1256 C1251 1.363 . S
C1256 C1255 1.415 . S
C1257 H1233 0.951 . S
C1257 C1258 1.366 . S
C1257 C1259 1.388 . S
C1258 C1257 1.366 . S
C1258 C1262 1.385 . S
C1259 H1234 0.951 . S
C1259 C1257 1.388 . S
C1259 C1260 1.366 . S
C1260 C1259 1.366 . S
C1260 C1261 1.414 . S
C1260 C1263 1.499 . S
C1261 H1235 0.950 . S
C1261 C1260 1.414 . S
C1261 C1262 1.374 . S
C1262 H1236 0.950 . S
C1262 C1258 1.385 . S
C1262 C1261 1.374 . S
C1263 C1260 1.499 . S
C1263 C1264 1.373 . S
C1263 C1265 1.389 . S
C1264 H1237 0.950 . S
C1264 C1250 1.377 . S
C1264 C1263 1.373 . S
C1265 C1249 1.377 . S
C1265 C1263 1.389 . S
C1265 C1266 1.524 . S
C1266 C1265 1.524 . S
C1266 C1267 1.397 . S
C1266 C1271 1.363 . S
C1267 H1238 0.950 . S
C1267 C1266 1.397 . S
C1267 C1268 1.334 . S
C1268 H1239 0.950 . S
C1268 C1267 1.334 . S
C1268 C1269 1.287 . S
C1269 C1268 1.287 . S
C1269 C1270 1.524 . S
C1269 H1272 0.999 . S
C1270 H1240 0.950 . S
C1270 C1269 1.524 . S
C1270 C1271 1.415 . S
C1271 H1241 0.950 . S
C1271 C1266 1.363 . S
C1271 C1270 1.415 . S
H1272 C1269 0.999 . S
H1273 C1254 0.913 . S
H1274 C1292 0.951 . S
H1275 C1294 0.951 . S
H1276 C1296 0.950 . S
H1277 C1297 0.950 . S
H1278 C1299 0.950 . S
H1279 C1302 0.950 . S
H1280 C1303 0.950 . S
H1281 C1305 0.950 . S
H1282 C1306 0.950 . S
H1283 C1307 0.951 . S
H1284 C1309 0.951 . S
H1285 C1311 0.950 . S
H1286 C1312 0.950 . S
H1287 C1314 0.950 . S
H1288 C1317 0.950 . S
H1289 C1318 0.950 . S
H1290 C1320 0.950 . S
H1291 C1321 0.950 . S
C1292 H1274 0.951 . S
C1292 C1293 1.366 . S
C1292 C1294 1.388 . S
C1293 C1292 1.366 . S
C1293 C1297 1.385 . S
C1294 H1275 0.951 . S
C1294 C1292 1.388 . S
C1294 C1295 1.366 . S
C1295 C1294 1.366 . S
C1295 C1296 1.414 . S
C1295 C1298 1.499 . S
C1296 H1276 0.950 . S
C1296 C1295 1.414 . S
C1296 C1297 1.374 . S
C1297 H1277 0.950 . S
C1297 C1293 1.385 . S
C1297 C1296 1.374 . S
C1298 C1295 1.499 . S
C1298 C1299 1.373 . S
C1298 C1300 1.389 . S
C1299 H1278 0.950 . S
C1299 C1298 1.373 . S
C1299 C1315 1.377 . S
C1300 C1298 1.389 . S
C1300 C1301 1.524 . S
C1300 C1314 1.377 . S
C1301 C1300 1.524 . S
C1301 C1302 1.397 . S
C1301 C1306 1.363 . S
C1302 H1279 0.950 . S
C1302 C1301 1.397 . S
C1302 C1303 1.334 . S
C1303 H1280 0.950 . S
C1303 C1302 1.334 . S
C1303 C1304 1.287 . S
C1304 C1303 1.287 . S
C1304 C1305 1.524 . S
C1304 H1323 0.913 . S
C1305 H1281 0.950 . S
C1305 C1304 1.524 . S
C1305 C1306 1.415 . S
C1306 H1282 0.950 . S
C1306 C1301 1.363 . S
C1306 C1305 1.415 . S
C1307 H1283 0.951 . S
C1307 C1308 1.366 . S
C1307 C1309 1.388 . S
C1308 C1307 1.366 . S
C1308 C1312 1.385 . S
C1309 H1284 0.951 . S
C1309 C1307 1.388 . S
C1309 C1310 1.366 . S
C1310 C1309 1.366 . S
C1310 C1311 1.414 . S
C1310 C1313 1.499 . S
C1311 H1285 0.950 . S
C1311 C1310 1.414 . S
C1311 C1312 1.374 . S
C1312 H1286 0.950 . S
C1312 C1308 1.385 . S
C1312 C1311 1.374 . S
C1313 C1310 1.499 . S
C1313 C1314 1.373 . S
C1313 C1315 1.389 . S
C1314 H1287 0.950 . S
C1314 C1300 1.377 . S
C1314 C1313 1.373 . S
C1315 C1299 1.377 . S
C1315 C1313 1.389 . S
C1315 C1316 1.524 . S
C1316 C1315 1.524 . S
C1316 C1317 1.397 . S
C1316 C1321 1.363 . S
C1317 H1288 0.950 . S
C1317 C1316 1.397 . S
C1317 C1318 1.334 . S
C1318 H1289 0.950 . S
C1318 C1317 1.334 . S
C1318 C1319 1.287 . S
C1319 C1318 1.287 . S
C1319 C1320 1.524 . S
C1319 H1322 0.999 . S
C1320 H1290 0.950 . S
C1320 C1319 1.524 . S
C1320 C1321 1.415 . S
C1321 H1291 0.950 . S
C1321 C1316 1.363 . S
C1321 C1320 1.415 . S
H1322 C1319 0.999 . S
H1323 C1304 0.913 . S
H1324 C1342 0.951 . S
H1325 C1344 0.951 . S
H1326 C1346 0.950 . S
H1327 C1347 0.950 . S
H1328 C1349 0.950 . S
H1329 C1352 0.950 . S
H1330 C1353 0.950 . S
H1331 C1355 0.950 . S
H1332 C1356 0.950 . S
H1333 C1357 0.951 . S
H1334 C1359 0.951 . S
H1335 C1361 0.950 . S
H1336 C1362 0.950 . S
H1337 C1364 0.950 . S
H1338 C1367 0.950 . S
H1339 C1368 0.950 . S
H1340 C1370 0.950 . S
H1341 C1371 0.950 . S
C1342 H1324 0.951 . S
C1342 C1343 1.366 . S
C1342 C1344 1.388 . S
C1343 C1342 1.366 . S
C1343 C1347 1.385 . S
C1344 H1325 0.951 . S
C1344 C1342 1.388 . S
C1344 C1345 1.366 . S
C1345 C1344 1.366 . S
C1345 C1346 1.414 . S
C1345 C1348 1.499 . S
C1346 H1326 0.950 . S
C1346 C1345 1.414 . S
C1346 C1347 1.374 . S
C1347 H1327 0.950 . S
C1347 C1343 1.385 . S
C1347 C1346 1.374 . S
C1348 C1345 1.499 . S
C1348 C1349 1.373 . S
C1348 C1350 1.389 . S
C1349 H1328 0.950 . S
C1349 C1348 1.373 . S
C1349 C1365 1.377 . S
C1350 C1348 1.389 . S
C1350 C1351 1.524 . S
C1350 C1364 1.377 . S
C1351 C1350 1.524 . S
C1351 C1352 1.397 . S
C1351 C1356 1.363 . S
C1352 H1329 0.950 . S
C1352 C1351 1.397 . S
C1352 C1353 1.334 . S
C1353 H1330 0.950 . S
C1353 C1352 1.334 . S
C1353 C1354 1.287 . S
C1354 C1353 1.287 . S
C1354 C1355 1.524 . S
C1354 H1373 0.913 . S
C1355 H1331 0.950 . S
C1355 C1354 1.524 . S
C1355 C1356 1.415 . S
C1356 H1332 0.950 . S
C1356 C1351 1.363 . S
C1356 C1355 1.415 . S
C1357 H1333 0.951 . S
C1357 C1358 1.366 . S
C1357 C1359 1.388 . S
C1358 C1357 1.366 . S
C1358 C1362 1.385 . S
C1359 H1334 0.951 . S
C1359 C1357 1.388 . S
C1359 C1360 1.366 . S
C1360 C1359 1.366 . S
C1360 C1361 1.414 . S
C1360 C1363 1.499 . S
C1361 H1335 0.950 . S
C1361 C1360 1.414 . S
C1361 C1362 1.374 . S
C1362 H1336 0.950 . S
C1362 C1358 1.385 . S
C1362 C1361 1.374 . S
C1363 C1360 1.499 . S
C1363 C1364 1.373 . S
C1363 C1365 1.389 . S
C1364 H1337 0.950 . S
C1364 C1350 1.377 . S
C1364 C1363 1.373 . S
C1365 C1349 1.377 . S
C1365 C1363 1.389 . S
C1365 C1366 1.524 . S
C1366 C1365 1.524 . S
C1366 C1367 1.397 . S
C1366 C1371 1.363 . S
C1367 H1338 0.950 . S
C1367 C1366 1.397 . S
C1367 C1368 1.334 . S
C1368 H1339 0.950 . S
C1368 C1367 1.334 . S
C1368 C1369 1.287 . S
C1369 C1368 1.287 . S
C1369 C1370 1.524 . S
C1369 H1372 0.999 . S
C1370 H1340 0.950 . S
C1370 C1369 1.524 . S
C1370 C1371 1.415 . S
C1371 H1341 0.950 . S
C1371 C1366 1.363 . S
C1371 C1370 1.415 . S
H1372 C1369 0.999 . S
H1373 C1354 0.913 . S
H1374 C1392 0.951 . S
H1375 C1394 0.951 . S
H1376 C1396 0.950 . S
H1377 C1397 0.950 . S
H1378 C1399 0.950 . S
H1379 C1402 0.950 . S
H1380 C1403 0.950 . S
H1381 C1405 0.950 . S
H1382 C1406 0.950 . S
H1383 C1407 0.951 . S
H1384 C1409 0.951 . S
H1385 C1411 0.950 . S
H1386 C1412 0.950 . S
H1387 C1414 0.950 . S
H1388 C1417 0.950 . S
H1389 C1418 0.950 . S
H1390 C1420 0.950 . S
H1391 C1421 0.950 . S
C1392 H1374 0.951 . S
C1392 C1393 1.366 . S
C1392 C1394 1.388 . S
C1393 C1392 1.366 . S
C1393 C1397 1.385 . S
C1394 H1375 0.951 . S
C1394 C1392 1.388 . S
C1394 C1395 1.366 . S
C1395 C1394 1.366 . S
C1395 C1396 1.414 . S
C1395 C1398 1.499 . S
C1396 H1376 0.950 . S
C1396 C1395 1.414 . S
C1396 C1397 1.374 . S
C1397 H1377 0.950 . S
C1397 C1393 1.385 . S
C1397 C1396 1.374 . S
C1398 C1395 1.499 . S
C1398 C1399 1.373 . S
C1398 C1400 1.389 . S
C1399 H1378 0.950 . S
C1399 C1398 1.373 . S
C1399 C1415 1.377 . S
C1400 C1398 1.389 . S
C1400 C1401 1.524 . S
C1400 C1414 1.377 . S
C1401 C1400 1.524 . S
C1401 C1402 1.397 . S
C1401 C1406 1.363 . S
C1402 H1379 0.950 . S
C1402 C1401 1.397 . S
C1402 C1403 1.334 . S
C1403 H1380 0.950 . S
C1403 C1402 1.334 . S
C1403 C1404 1.287 . S
C1404 C1403 1.287 . S
C1404 C1405 1.524 . S
C1404 H1423 0.913 . S
C1405 H1381 0.950 . S
C1405 C1404 1.524 . S
C1405 C1406 1.415 . S
C1406 H1382 0.950 . S
C1406 C1401 1.363 . S
C1406 C1405 1.415 . S
C1407 H1383 0.951 . S
C1407 C1408 1.366 . S
C1407 C1409 1.388 . S
C1408 C1407 1.366 . S
C1408 C1412 1.385 . S
C1409 H1384 0.951 . S
C1409 C1407 1.388 . S
C1409 C1410 1.366 . S
C1410 C1409 1.366 . S
C1410 C1411 1.414 . S
C1410 C1413 1.499 . S
C1411 H1385 0.950 . S
C1411 C1410 1.414 . S
C1411 C1412 1.374 . S
C1412 H1386 0.950 . S
C1412 C1408 1.385 . S
C1412 C1411 1.374 . S
C1413 C1410 1.499 . S
C1413 C1414 1.373 . S
C1413 C1415 1.389 . S
C1414 H1387 0.950 . S
C1414 C1400 1.377 . S
C1414 C1413 1.373 . S
C1415 C1399 1.377 . S
C1415 C1413 1.389 . S
C1415 C1416 1.524 . S
C1416 C1415 1.524 . S
C1416 C1417 1.397 . S
C1416 C1421 1.363 . S
C1417 H1388 0.950 . S
C1417 C1416 1.397 . S
C1417 C1418 1.334 . S
C1418 H1389 0.950 . S
C1418 C1417 1.334 . S
C1418 C1419 1.287 . S
C1419 C1418 1.287 . S
C1419 C1420 1.524 . S
C1419 H1422 0.999 . S
C1420 H1390 0.950 . S
C1420 C1419 1.524 . S
C1420 C1421 1.415 . S
C1421 H1391 0.950 . S
C1421 C1416 1.363 . S
C1421 C1420 1.415 . S
H1422 C1419 0.999 . S
H1423 C1404 0.913 . S
H1424 C1442 0.951 . S
H1425 C1444 0.951 . S
H1426 C1446 0.950 . S
H1427 C1447 0.950 . S
H1428 C1449 0.950 . S
H1429 C1452 0.950 . S
H1430 C1453 0.950 . S
H1431 C1455 0.950 . S
H1432 C1456 0.950 . S
H1433 C1457 0.951 . S
H1434 C1459 0.951 . S
H1435 C1461 0.950 . S
H1436 C1462 0.950 . S
H1437 C1464 0.950 . S
H1438 C1467 0.950 . S
H1439 C1468 0.950 . S
H1440 C1470 0.950 . S
H1441 C1471 0.950 . S
C1442 H1424 0.951 . S
C1442 C1443 1.366 . S
C1442 C1444 1.388 . S
C1443 C1442 1.366 . S
C1443 C1447 1.385 . S
C1444 H1425 0.951 . S
C1444 C1442 1.388 . S
C1444 C1445 1.366 . S
C1445 C1444 1.366 . S
C1445 C1446 1.414 . S
C1445 C1448 1.499 . S
C1446 H1426 0.950 . S
C1446 C1445 1.414 . S
C1446 C1447 1.374 . S
C1447 H1427 0.950 . S
C1447 C1443 1.385 . S
C1447 C1446 1.374 . S
C1448 C1445 1.499 . S
C1448 C1449 1.373 . S
C1448 C1450 1.389 . S
C1449 H1428 0.950 . S
C1449 C1448 1.373 . S
C1449 C1465 1.377 1_554 S
C1450 C1448 1.389 . S
C1450 C1451 1.524 . S
C1450 C1464 1.377 1_554 S
C1451 C1450 1.524 . S
C1451 C1452 1.397 . S
C1451 C1456 1.363 . S
C1452 H1429 0.950 . S
C1452 C1451 1.397 . S
C1452 C1453 1.334 . S
C1453 H1430 0.950 . S
C1453 C1452 1.334 . S
C1453 C1454 1.287 . S
C1454 C1453 1.287 . S
C1454 C1455 1.524 . S
C1454 H1473 0.913 . S
C1455 H1431 0.950 . S
C1455 C1454 1.524 . S
C1455 C1456 1.415 . S
C1456 H1432 0.950 . S
C1456 C1451 1.363 . S
C1456 C1455 1.415 . S
C1457 H1433 0.951 . S
C1457 C1458 1.366 . S
C1457 C1459 1.388 . S
C1458 C1457 1.366 . S
C1458 C1462 1.385 . S
C1459 H1434 0.951 . S
C1459 C1457 1.388 . S
C1459 C1460 1.366 . S
C1460 C1459 1.366 . S
C1460 C1461 1.414 . S
C1460 C1463 1.499 . S
C1461 H1435 0.950 . S
C1461 C1460 1.414 . S
C1461 C1462 1.374 . S
C1462 H1436 0.950 . S
C1462 C1458 1.385 . S
C1462 C1461 1.374 . S
C1463 C1460 1.499 . S
C1463 C1464 1.373 . S
C1463 C1465 1.389 . S
C1464 H1437 0.950 . S
C1464 C1450 1.377 1_556 S
C1464 C1463 1.373 . S
C1465 C1449 1.377 1_556 S
C1465 C1463 1.389 . S
C1465 C1466 1.524 . S
C1466 C1465 1.524 . S
C1466 C1467 1.397 . S
C1466 C1471 1.363 . S
C1467 H1438 0.950 . S
C1467 C1466 1.397 . S
C1467 C1468 1.334 . S
C1468 H1439 0.950 . S
C1468 C1467 1.334 . S
C1468 C1469 1.287 . S
C1469 C1468 1.287 . S
C1469 C1470 1.524 . S
C1469 H1472 0.999 . S
C1470 H1440 0.950 . S
C1470 C1469 1.524 . S
C1470 C1471 1.415 . S
C1471 H1441 0.950 . S
C1471 C1466 1.363 . S
C1471 C1470 1.415 . S
H1472 C1469 0.999 . S
H1473 C1454 0.913 . S
H1474 C1492 0.951 . S
H1475 C1494 0.951 . S
H1476 C1496 0.950 . S
H1477 C1497 0.950 . S
H1478 C1499 0.950 . S
H1479 C1502 0.950 . S
H1480 C1503 0.950 . S
H1481 C1505 0.950 . S
H1482 C1506 0.950 . S
H1483 C1507 0.951 . S
H1484 C1509 0.951 . S
H1485 C1511 0.950 . S
H1486 C1512 0.950 . S
H1487 C1514 0.950 . S
H1488 C1517 0.950 . S
H1489 C1518 0.950 . S
H1490 C1520 0.950 . S
H1491 C1521 0.950 . S
C1492 H1474 0.951 . S
C1492 C1493 1.366 . S
C1492 C1494 1.388 . S
C1493 C1492 1.366 . S
C1493 C1497 1.385 . S
C1494 H1475 0.951 . S
C1494 C1492 1.388 . S
C1494 C1495 1.366 . S
C1495 C1494 1.366 . S
C1495 C1496 1.414 . S
C1495 C1498 1.499 . S
C1496 H1476 0.950 . S
C1496 C1495 1.414 . S
C1496 C1497 1.374 . S
C1497 H1477 0.950 . S
C1497 C1493 1.385 . S
C1497 C1496 1.374 . S
C1498 C1495 1.499 . S
C1498 C1499 1.373 . S
C1498 C1500 1.389 . S
C1499 H1478 0.950 . S
C1499 C1498 1.373 . S
C1499 C1515 1.377 . S
C1500 C1498 1.389 . S
C1500 C1501 1.524 . S
C1500 C1514 1.377 . S
C1501 C1500 1.524 . S
C1501 C1502 1.397 . S
C1501 C1506 1.363 . S
C1502 H1479 0.950 . S
C1502 C1501 1.397 . S
C1502 C1503 1.334 . S
C1503 H1480 0.950 . S
C1503 C1502 1.334 . S
C1503 C1504 1.287 . S
C1504 C1503 1.287 . S
C1504 C1505 1.524 . S
C1504 H1523 0.913 . S
C1505 H1481 0.950 . S
C1505 C1504 1.524 . S
C1505 C1506 1.415 . S
C1506 H1482 0.950 . S
C1506 C1501 1.363 . S
C1506 C1505 1.415 . S
C1507 H1483 0.951 . S
C1507 C1508 1.366 . S
C1507 C1509 1.388 . S
C1508 C1507 1.366 . S
C1508 C1512 1.385 . S
C1509 H1484 0.951 . S
C1509 C1507 1.388 . S
C1509 C1510 1.366 . S
C1510 C1509 1.366 . S
C1510 C1511 1.414 . S
C1510 C1513 1.499 . S
C1511 H1485 0.950 . S
C1511 C1510 1.414 . S
C1511 C1512 1.374 . S
C1512 H1486 0.950 . S
C1512 C1508 1.385 . S
C1512 C1511 1.374 . S
C1513 C1510 1.499 . S
C1513 C1514 1.373 . S
C1513 C1515 1.389 . S
C1514 H1487 0.950 . S
C1514 C1500 1.377 . S
C1514 C1513 1.373 . S
C1515 C1499 1.377 . S
C1515 C1513 1.389 . S
C1515 C1516 1.524 . S
C1516 C1515 1.524 . S
C1516 C1517 1.397 . S
C1516 C1521 1.363 . S
C1517 H1488 0.950 . S
C1517 C1516 1.397 . S
C1517 C1518 1.334 . S
C1518 H1489 0.950 . S
C1518 C1517 1.334 . S
C1518 C1519 1.287 . S
C1519 C1518 1.287 . S
C1519 C1520 1.524 . S
C1519 H1522 0.999 . S
C1520 H1490 0.950 . S
C1520 C1519 1.524 . S
C1520 C1521 1.415 . S
C1521 H1491 0.950 . S
C1521 C1516 1.363 . S
C1521 C1520 1.415 . S
H1522 C1519 0.999 . S
H1523 C1504 0.913 . S
H1524 C1542 0.951 . S
H1525 C1544 0.951 . S
H1526 C1546 0.950 . S
H1527 C1547 0.950 . S
H1528 C1549 0.950 . S
H1529 C1552 0.950 . S
H1530 C1553 0.950 . S
H1531 C1555 0.950 . S
H1532 C1556 0.950 . S
H1533 C1557 0.951 . S
H1534 C1559 0.951 . S
H1535 C1561 0.950 . S
H1536 C1562 0.950 . S
H1537 C1564 0.950 . S
H1538 C1567 0.950 . S
H1539 C1568 0.950 . S
H1540 C1570 0.950 . S
H1541 C1571 0.950 . S
C1542 H1524 0.951 . S
C1542 C1543 1.366 . S
C1542 C1544 1.388 . S
C1543 C1542 1.366 . S
C1543 C1547 1.385 . S
C1544 H1525 0.951 . S
C1544 C1542 1.388 . S
C1544 C1545 1.366 . S
C1545 C1544 1.366 . S
C1545 C1546 1.414 . S
C1545 C1548 1.499 . S
C1546 H1526 0.950 . S
C1546 C1545 1.414 . S
C1546 C1547 1.374 . S
C1547 H1527 0.950 . S
C1547 C1543 1.385 . S
C1547 C1546 1.374 . S
C1548 C1545 1.499 . S
C1548 C1549 1.373 . S
C1548 C1550 1.389 . S
C1549 H1528 0.950 . S
C1549 C1548 1.373 . S
C1549 C1565 1.377 1_554 S
C1550 C1548 1.389 . S
C1550 C1551 1.524 1_655 S
C1550 C1564 1.377 1_554 S
C1551 C1550 1.524 1_455 S
C1551 C1552 1.397 . S
C1551 C1556 1.363 . S
C1552 H1529 0.950 . S
C1552 C1551 1.397 . S
C1552 C1553 1.334 . S
C1553 H1530 0.950 . S
C1553 C1552 1.334 . S
C1553 C1554 1.287 . S
C1554 C1553 1.287 . S
C1554 C1555 1.524 . S
C1554 H1573 0.913 . S
C1555 H1531 0.950 . S
C1555 C1554 1.524 . S
C1555 C1556 1.415 . S
C1556 H1532 0.950 . S
C1556 C1551 1.363 . S
C1556 C1555 1.415 . S
C1557 H1533 0.951 . S
C1557 C1558 1.366 . S
C1557 C1559 1.388 . S
C1558 C1557 1.366 . S
C1558 C1562 1.385 . S
C1559 H1534 0.951 . S
C1559 C1557 1.388 . S
C1559 C1560 1.366 . S
C1560 C1559 1.366 . S
C1560 C1561 1.414 . S
C1560 C1563 1.499 . S
C1561 H1535 0.950 . S
C1561 C1560 1.414 . S
C1561 C1562 1.374 . S
C1562 H1536 0.950 . S
C1562 C1558 1.385 . S
C1562 C1561 1.374 . S
C1563 C1560 1.499 . S
C1563 C1564 1.373 . S
C1563 C1565 1.389 . S
C1564 H1537 0.950 . S
C1564 C1550 1.377 1_556 S
C1564 C1563 1.373 . S
C1565 C1549 1.377 1_556 S
C1565 C1563 1.389 . S
C1565 C1566 1.524 . S
C1566 C1565 1.524 . S
C1566 C1567 1.397 . S
C1566 C1571 1.363 . S
C1567 H1538 0.950 . S
C1567 C1566 1.397 . S
C1567 C1568 1.334 . S
C1568 H1539 0.950 . S
C1568 C1567 1.334 . S
C1568 C1569 1.287 . S
C1569 C1568 1.287 . S
C1569 C1570 1.524 . S
C1569 H1572 0.999 . S
C1570 H1540 0.950 . S
C1570 C1569 1.524 . S
C1570 C1571 1.415 . S
C1571 H1541 0.950 . S
C1571 C1566 1.363 . S
C1571 C1570 1.415 . S
H1572 C1569 0.999 . S
H1573 C1554 0.913 . S
H1574 C1592 0.951 . S
H1575 C1594 0.951 . S
H1576 C1596 0.950 1_545 S
H1577 C1597 0.950 1_545 S
H1578 C1599 0.950 . S
H1579 C1602 0.950 . S
H1580 C1603 0.950 . S
H1581 C1605 0.950 . S
H1582 C1606 0.950 . S
H1583 C1607 0.951 1_545 S
H1584 C1609 0.951 1_545 S
H1585 C1611 0.950 . S
H1586 C1612 0.950 . S
H1587 C1614 0.950 . S
H1588 C1617 0.950 . S
H1589 C1618 0.950 . S
H1590 C1620 0.950 . S
H1591 C1621 0.950 . S
C1592 H1574 0.951 . S
C1592 C1593 1.366 . S
C1592 C1594 1.388 . S
C1593 C1592 1.366 . S
C1593 C1597 1.385 . S
C1594 H1575 0.951 . S
C1594 C1592 1.388 . S
C1594 C1595 1.366 . S
C1595 C1594 1.366 . S
C1595 C1596 1.414 . S
C1595 C1598 1.499 . S
C1596 H1576 0.950 1_565 S
C1596 C1595 1.414 . S
C1596 C1597 1.374 . S
C1597 H1577 0.950 1_565 S
C1597 C1593 1.385 . S
C1597 C1596 1.374 . S
C1598 C1595 1.499 . S
C1598 C1599 1.373 . S
C1598 C1600 1.389 . S
C1599 H1578 0.950 . S
C1599 C1598 1.373 . S
C1599 C1615 1.377 . S
C1600 C1598 1.389 . S
C1600 C1601 1.524 . S
C1600 C1614 1.377 . S
C1601 C1600 1.524 . S
C1601 C1602 1.397 . S
C1601 C1606 1.363 . S
C1602 H1579 0.950 . S
C1602 C1601 1.397 . S
C1602 C1603 1.334 . S
C1603 H1580 0.950 . S
C1603 C1602 1.334 . S
C1603 C1604 1.287 . S
C1604 C1603 1.287 . S
C1604 C1605 1.524 . S
C1604 H1623 0.913 . S
C1605 H1581 0.950 . S
C1605 C1604 1.524 . S
C1605 C1606 1.415 . S
C1606 H1582 0.950 . S
C1606 C1601 1.363 . S
C1606 C1605 1.415 . S
C1607 H1583 0.951 1_565 S
C1607 C1608 1.366 . S
C1607 C1609 1.388 . S
C1608 C1607 1.366 . S
C1608 C1612 1.385 . S
C1609 H1584 0.951 1_565 S
C1609 C1607 1.388 . S
C1609 C1610 1.366 . S
C1610 C1609 1.366 . S
C1610 C1611 1.414 . S
C1610 C1613 1.499 . S
C1611 H1585 0.950 . S
C1611 C1610 1.414 . S
C1611 C1612 1.374 . S
C1612 H1586 0.950 . S
C1612 C1608 1.385 . S
C1612 C1611 1.374 . S
C1613 C1610 1.499 . S
C1613 C1614 1.373 . S
C1613 C1615 1.389 . S
C1614 H1587 0.950 . S
C1614 C1600 1.377 . S
C1614 C1613 1.373 . S
C1615 C1599 1.377 . S
C1615 C1613 1.389 . S
C1615 C1616 1.524 . S
C1616 C1615 1.524 . S
C1616 C1617 1.397 . S
C1616 C1621 1.363 1_565 S
C1617 H1588 0.950 . S
C1617 C1616 1.397 . S
C1617 C1618 1.334 . S
C1618 H1589 0.950 . S
C1618 C1617 1.334 . S
C1618 C1619 1.287 . S
C1619 C1618 1.287 . S
C1619 C1620 1.524 1_565 S
C1619 H1622 0.999 . S
C1620 H1590 0.950 . S
C1620 C1619 1.524 1_545 S
C1620 C1621 1.415 . S
C1621 H1591 0.950 . S
C1621 C1616 1.363 1_545 S
C1621 C1620 1.415 . S
H1622 C1619 0.999 . S
H1623 C1604 0.913 . S
H1624 C1642 0.951 . S
H1625 C1644 0.951 . S
H1626 C1646 0.950 . S
H1627 C1647 0.950 . S
H1628 C1649 0.950 . S
H1629 C1652 0.950 . S
H1630 C1653 0.950 . S
H1631 C1655 0.950 . S
H1632 C1656 0.950 . S
H1633 C1657 0.951 . S
H1634 C1659 0.951 . S
H1635 C1661 0.950 . S
H1636 C1662 0.950 . S
H1637 C1664 0.950 . S
H1638 C1667 0.950 . S
H1639 C1668 0.950 . S
H1640 C1670 0.950 . S
H1641 C1671 0.950 . S
C1642 H1624 0.951 . S
C1642 C1643 1.366 . S
C1642 C1644 1.388 . S
C1643 C1642 1.366 . S
C1643 C1647 1.385 . S
C1644 H1625 0.951 . S
C1644 C1642 1.388 . S
C1644 C1645 1.366 . S
C1645 C1644 1.366 . S
C1645 C1646 1.414 . S
C1645 C1648 1.499 . S
C1646 H1626 0.950 . S
C1646 C1645 1.414 . S
C1646 C1647 1.374 . S
C1647 H1627 0.950 . S
C1647 C1643 1.385 . S
C1647 C1646 1.374 . S
C1648 C1645 1.499 . S
C1648 C1649 1.373 . S
C1648 C1650 1.389 . S
C1649 H1628 0.950 . S
C1649 C1648 1.373 . S
C1649 C1665 1.377 1_556 S
C1650 C1648 1.389 . S
C1650 C1651 1.524 . S
C1650 C1664 1.377 1_556 S
C1651 C1650 1.524 . S
C1651 C1652 1.397 . S
C1651 C1656 1.363 . S
C1652 H1629 0.950 . S
C1652 C1651 1.397 . S
C1652 C1653 1.334 . S
C1653 H1630 0.950 . S
C1653 C1652 1.334 . S
C1653 C1654 1.287 . S
C1654 C1653 1.287 . S
C1654 C1655 1.524 . S
C1654 H1673 0.913 . S
C1655 H1631 0.950 . S
C1655 C1654 1.524 . S
C1655 C1656 1.415 . S
C1656 H1632 0.950 . S
C1656 C1651 1.363 . S
C1656 C1655 1.415 . S
C1657 H1633 0.951 . S
C1657 C1658 1.366 . S
C1657 C1659 1.388 . S
C1658 C1657 1.366 . S
C1658 C1662 1.385 . S
C1659 H1634 0.951 . S
C1659 C1657 1.388 . S
C1659 C1660 1.366 . S
C1660 C1659 1.366 . S
C1660 C1661 1.414 . S
C1660 C1663 1.499 . S
C1661 H1635 0.950 . S
C1661 C1660 1.414 . S
C1661 C1662 1.374 . S
C1662 H1636 0.950 . S
C1662 C1658 1.385 . S
C1662 C1661 1.374 . S
C1663 C1660 1.499 . S
C1663 C1664 1.373 . S
C1663 C1665 1.389 . S
C1664 H1637 0.950 . S
C1664 C1650 1.377 1_554 S
C1664 C1663 1.373 . S
C1665 C1649 1.377 1_554 S
C1665 C1663 1.389 . S
C1665 C1666 1.524 . S
C1666 C1665 1.524 . S
C1666 C1667 1.397 . S
C1666 C1671 1.363 . S
C1667 H1638 0.950 . S
C1667 C1666 1.397 . S
C1667 C1668 1.334 . S
C1668 H1639 0.950 . S
C1668 C1667 1.334 . S
C1668 C1669 1.287 . S
C1669 C1668 1.287 . S
C1669 C1670 1.524 . S
C1669 H1672 0.999 . S
C1670 H1640 0.950 . S
C1670 C1669 1.524 . S
C1670 C1671 1.415 . S
C1671 H1641 0.950 . S
C1671 C1666 1.363 . S
C1671 C1670 1.415 . S
H1672 C1669 0.999 . S
H1673 C1654 0.913 . S
H1674 C1692 0.951 . S
H1675 C1694 0.951 . S
H1676 C1696 0.950 . S
H1677 C1697 0.950 . S
H1678 C1699 0.950 . S
H1679 C1702 0.950 . S
H1680 C1703 0.950 . S
H1681 C1705 0.950 . S
H1682 C1706 0.950 . S
H1683 C1707 0.951 . S
H1684 C1709 0.951 . S
H1685 C1711 0.950 . S
H1686 C1712 0.950 . S
H1687 C1714 0.950 . S
H1688 C1717 0.950 . S
H1689 C1718 0.950 . S
H1690 C1720 0.950 . S
H1691 C1721 0.950 . S
C1692 H1674 0.951 . S
C1692 C1693 1.366 . S
C1692 C1694 1.388 . S
C1693 C1692 1.366 . S
C1693 C1697 1.385 . S
C1694 H1675 0.951 . S
C1694 C1692 1.388 . S
C1694 C1695 1.366 . S
C1695 C1694 1.366 . S
C1695 C1696 1.414 . S
C1695 C1698 1.499 . S
C1696 H1676 0.950 . S
C1696 C1695 1.414 . S
C1696 C1697 1.374 . S
C1697 H1677 0.950 . S
C1697 C1693 1.385 . S
C1697 C1696 1.374 . S
C1698 C1695 1.499 . S
C1698 C1699 1.373 . S
C1698 C1700 1.389 . S
C1699 H1678 0.950 . S
C1699 C1698 1.373 . S
C1699 C1715 1.377 . S
C1700 C1698 1.389 . S
C1700 C1701 1.524 . S
C1700 C1714 1.377 . S
C1701 C1700 1.524 . S
C1701 C1702 1.397 . S
C1701 C1706 1.363 . S
C1702 H1679 0.950 . S
C1702 C1701 1.397 . S
C1702 C1703 1.334 . S
C1703 H1680 0.950 . S
C1703 C1702 1.334 . S
C1703 C1704 1.287 . S
C1704 C1703 1.287 . S
C1704 C1705 1.524 . S
C1704 H1723 0.913 . S
C1705 H1681 0.950 . S
C1705 C1704 1.524 . S
C1705 C1706 1.415 . S
C1706 H1682 0.950 . S
C1706 C1701 1.363 . S
C1706 C1705 1.415 . S
C1707 H1683 0.951 . S
C1707 C1708 1.366 . S
C1707 C1709 1.388 . S
C1708 C1707 1.366 . S
C1708 C1712 1.385 . S
C1709 H1684 0.951 . S
C1709 C1707 1.388 . S
C1709 C1710 1.366 . S
C1710 C1709 1.366 . S
C1710 C1711 1.414 . S
C1710 C1713 1.499 . S
C1711 H1685 0.950 . S
C1711 C1710 1.414 . S
C1711 C1712 1.374 . S
C1712 H1686 0.950 . S
C1712 C1708 1.385 . S
C1712 C1711 1.374 . S
C1713 C1710 1.499 . S
C1713 C1714 1.373 . S
C1713 C1715 1.389 . S
C1714 H1687 0.950 . S
C1714 C1700 1.377 . S
C1714 C1713 1.373 . S
C1715 C1699 1.377 . S
C1715 C1713 1.389 . S
C1715 C1716 1.524 . S
C1716 C1715 1.524 . S
C1716 C1717 1.397 . S
C1716 C1721 1.363 . S
C1717 H1688 0.950 . S
C1717 C1716 1.397 . S
C1717 C1718 1.334 . S
C1718 H1689 0.950 . S
C1718 C1717 1.334 . S
C1718 C1719 1.287 . S
C1719 C1718 1.287 . S
C1719 C1720 1.524 . S
C1719 H1722 0.999 . S
C1720 H1690 0.950 . S
C1720 C1719 1.524 . S
C1720 C1721 1.415 . S
C1721 H1691 0.950 . S
C1721 C1716 1.363 . S
C1721 C1720 1.415 . S
H1722 C1719 0.999 . S
H1723 C1704 0.913 . S
H1724 C1742 0.951 1_655 S
H1725 C1744 0.951 1_655 S
H1726 C1746 0.950 . S
H1727 C1747 0.950 . S
H1728 C1749 0.950 . S
H1729 C1752 0.950 . S
H1730 C1753 0.950 . S
H1731 C1755 0.950 . S
H1732 C1756 0.950 1_655 S
H1733 C1757 0.951 . S
H1734 C1759 0.951 . S
H1735 C1761 0.950 1_655 S
H1736 C1762 0.950 1_655 S
H1737 C1764 0.950 . S
H1738 C1767 0.950 . S
H1739 C1768 0.950 . S
H1740 C1770 0.950 . S
H1741 C1771 0.950 . S
C1742 H1724 0.951 1_455 S
C1742 C1743 1.366 . S
C1742 C1744 1.388 . S
C1743 C1742 1.366 . S
C1743 C1747 1.385 . S
C1744 H1725 0.951 1_455 S
C1744 C1742 1.388 . S
C1744 C1745 1.366 . S
C1745 C1744 1.366 . S
C1745 C1746 1.414 . S
C1745 C1748 1.499 . S
C1746 H1726 0.950 . S
C1746 C1745 1.414 . S
C1746 C1747 1.374 . S
C1747 H1727 0.950 . S
C1747 C1743 1.385 . S
C1747 C1746 1.374 . S
C1748 C1745 1.499 . S
C1748 C1749 1.373 . S
C1748 C1750 1.389 . S
C1749 H1728 0.950 . S
C1749 C1748 1.373 . S
C1749 C1765 1.377 1_554 S
C1750 C1748 1.389 . S
C1750 C1751 1.524 . S
C1750 C1764 1.377 1_554 S
C1751 C1750 1.524 . S
C1751 C1752 1.397 . S
C1751 C1756 1.363 . S
C1752 H1729 0.950 . S
C1752 C1751 1.397 . S
C1752 C1753 1.334 . S
C1753 H1730 0.950 . S
C1753 C1752 1.334 . S
C1753 C1754 1.287 . S
C1754 C1753 1.287 . S
C1754 C1755 1.524 1_455 S
C1754 H1773 0.913 . S
C1755 H1731 0.950 . S
C1755 C1754 1.524 1_655 S
C1755 C1756 1.415 1_655 S
C1756 H1732 0.950 1_455 S
C1756 C1751 1.363 . S
C1756 C1755 1.415 1_455 S
C1757 H1733 0.951 . S
C1757 C1758 1.366 . S
C1757 C1759 1.388 . S
C1758 C1757 1.366 . S
C1758 C1762 1.385 . S
C1759 H1734 0.951 . S
C1759 C1757 1.388 . S
C1759 C1760 1.366 . S
C1760 C1759 1.366 . S
C1760 C1761 1.414 . S
C1760 C1763 1.499 . S
C1761 H1735 0.950 1_455 S
C1761 C1760 1.414 . S
C1761 C1762 1.374 . S
C1762 H1736 0.950 1_455 S
C1762 C1758 1.385 . S
C1762 C1761 1.374 . S
C1763 C1760 1.499 . S
C1763 C1764 1.373 . S
C1763 C1765 1.389 . S
C1764 H1737 0.950 . S
C1764 C1750 1.377 1_556 S
C1764 C1763 1.373 . S
C1765 C1749 1.377 1_556 S
C1765 C1763 1.389 . S
C1765 C1766 1.524 . S
C1766 C1765 1.524 . S
C1766 C1767 1.397 . S
C1766 C1771 1.363 . S
C1767 H1738 0.950 . S
C1767 C1766 1.397 . S
C1767 C1768 1.334 . S
C1768 H1739 0.950 . S
C1768 C1767 1.334 . S
C1768 C1769 1.287 . S
C1769 C1768 1.287 . S
C1769 C1770 1.524 . S
C1769 H1772 0.999 . S
C1770 H1740 0.950 . S
C1770 C1769 1.524 . S
C1770 C1771 1.415 . S
C1771 H1741 0.950 . S
C1771 C1766 1.363 . S
C1771 C1770 1.415 . S
H1772 C1769 0.999 . S
H1773 C1754 0.913 . S
H1774 C1792 0.951 . S
H1775 C1794 0.951 . S
H1776 C1796 0.950 . S
H1777 C1797 0.950 . S
H1778 C1799 0.950 1_565 S
H1779 C1802 0.950 . S
H1780 C1803 0.950 . S
H1781 C1805 0.950 . S
H1782 C1806 0.950 . S
H1783 C1807 0.951 . S
H1784 C1809 0.951 . S
H1785 C1811 0.950 . S
H1786 C1812 0.950 . S
H1787 C1814 0.950 . S
H1788 C1817 0.950 . S
H1789 C1818 0.950 . S
H1790 C1820 0.950 . S
H1791 C1821 0.950 . S
C1792 H1774 0.951 . S
C1792 C1793 1.366 . S
C1792 C1794 1.388 . S
C1793 C1792 1.366 . S
C1793 C1797 1.385 . S
C1794 H1775 0.951 . S
C1794 C1792 1.388 . S
C1794 C1795 1.366 . S
C1795 C1794 1.366 . S
C1795 C1796 1.414 . S
C1795 C1798 1.499 . S
C1796 H1776 0.950 . S
C1796 C1795 1.414 . S
C1796 C1797 1.374 . S
C1797 H1777 0.950 . S
C1797 C1793 1.385 . S
C1797 C1796 1.374 . S
C1798 C1795 1.499 . S
C1798 C1799 1.373 . S
C1798 C1800 1.389 . S
C1799 H1778 0.950 1_545 S
C1799 C1798 1.373 . S
C1799 C1815 1.377 . S
C1800 C1798 1.389 . S
C1800 C1801 1.524 . S
C1800 C1814 1.377 . S
C1801 C1800 1.524 . S
C1801 C1802 1.397 . S
C1801 C1806 1.363 . S
C1802 H1779 0.950 . S
C1802 C1801 1.397 . S
C1802 C1803 1.334 . S
C1803 H1780 0.950 . S
C1803 C1802 1.334 . S
C1803 C1804 1.287 . S
C1804 C1803 1.287 . S
C1804 C1805 1.524 . S
C1804 H1823 0.913 . S
C1805 H1781 0.950 . S
C1805 C1804 1.524 . S
C1805 C1806 1.415 . S
C1806 H1782 0.950 . S
C1806 C1801 1.363 . S
C1806 C1805 1.415 . S
C1807 H1783 0.951 . S
C1807 C1808 1.366 . S
C1807 C1809 1.388 . S
C1808 C1807 1.366 . S
C1808 C1812 1.385 . S
C1809 H1784 0.951 . S
C1809 C1807 1.388 . S
C1809 C1810 1.366 . S
C1810 C1809 1.366 . S
C1810 C1811 1.414 . S
C1810 C1813 1.499 . S
C1811 H1785 0.950 . S
C1811 C1810 1.414 . S
C1811 C1812 1.374 . S
C1812 H1786 0.950 . S
C1812 C1808 1.385 . S
C1812 C1811 1.374 . S
C1813 C1810 1.499 . S
C1813 C1814 1.373 . S
C1813 C1815 1.389 . S
C1814 H1787 0.950 . S
C1814 C1800 1.377 . S
C1814 C1813 1.373 . S
C1815 C1799 1.377 . S
C1815 C1813 1.389 . S
C1815 C1816 1.524 1_545 S
C1816 C1815 1.524 1_565 S
C1816 C1817 1.397 . S
C1816 C1821 1.363 . S
C1817 H1788 0.950 . S
C1817 C1816 1.397 . S
C1817 C1818 1.334 . S
C1818 H1789 0.950 . S
C1818 C1817 1.334 . S
C1818 C1819 1.287 . S
C1819 C1818 1.287 . S
C1819 C1820 1.524 . S
C1819 H1822 0.999 . S
C1820 H1790 0.950 . S
C1820 C1819 1.524 . S
C1820 C1821 1.415 . S
C1821 H1791 0.950 . S
C1821 C1816 1.363 . S
C1821 C1820 1.415 . S
H1822 C1819 0.999 . S
H1823 C1804 0.913 . S
C243 C7 1.401 . S
C258 C104 1.401 . S
C293 C20 1.401 . S
C308 C63 1.401 . S
C343 C35 1.401 . S
C358 C76 1.401 . S
C393 C48 1.401 . S
C408 C91 1.401 . S
C443 C118 1.401 . S
C458 C216 1.401 . S
C493 C174 1.401 . S
C508 C132 1.401 . S
C543 C146 1.400 . S
C558 C188 1.400 . S
C593 C160 1.400 . S
C608 C202 1.400 . S
C643 C8 1.577 . S
C658 C134 1.603 . S
C693 C23 1.577 . S
C708 C148 1.603 . S
C743 C162 1.603 . S
C758 C36 1.578 . S
C793 C51 1.577 . S
C808 C120 1.603 . S
C843 C64 1.577 . S
C858 C218 1.602 . S
C893 C176 1.603 . S
C908 C79 1.577 . S
C943 C190 1.603 . S
C958 C92 1.577 . S
C993 C204 1.602 . S
C1008 C107 1.578 . S
C1043 C22 1.603 . S
C1058 C121 1.577 . S
C1093 C37 1.603 . S
C1108 C135 1.577 . S
C1143 C149 1.577 . S
C1158 C50 1.602 . S
C1193 C9 1.603 . S
C1208 C163 1.577 . S
C1243 C177 1.577 . S
C1258 C106 1.602 . S
C1293 C191 1.577 . S
C1308 C65 1.603 . S
C1343 C78 1.603 . S
C1358 C205 1.577 . S
C1393 C93 1.603 . S
C1408 C219 1.578 . S
C1443 C6 1.554 . S
C1458 C62 1.555 . S
C1493 C77 1.555 . S
C1508 C21 1.555 . S
C1543 C34 1.554 . S
C1558 C90 1.555 . S
C1593 C105 1.554 . S
C1608 C49 1.554 . S
C1643 C119 1.555 . S
C1658 C175 1.554 . S
C1693 C189 1.555 . S
C1708 C133 1.554 . S
C1743 C203 1.555 . S
C1758 C147 1.554 . S
C1793 C217 1.555 . S
C1808 C161 1.554 . S
