# Generated by pormake.
# Topology umx, (4)-cn, num edge types: 1
# Building blocks:
#     Node 0, Type 0, BuildingBlock: ESEHIV_clean_sbu_0, # of connection points: 4
#     Node 1, Type 0, BuildingBlock: ESEHIV_clean_sbu_0, # of connection points: 4
#     Node 2, Type 0, BuildingBlock: ESEHIV_clean_sbu_0, # of connection points: 4
#     Node 3, Type 0, BuildingBlock: ESEHIV_clean_sbu_0, # of connection points: 4
#     Node 4, Type 0, BuildingBlock: ESEHIV_clean_sbu_0, # of connection points: 4
#     Node 5, Type 0, BuildingBlock: ESEHIV_clean_sbu_0, # of connection points: 4
#     Node 6, Type 0, BuildingBlock: ESEHIV_clean_sbu_0, # of connection points: 4
#     Node 7, Type 0, BuildingBlock: ESEHIV_clean_sbu_0, # of connection points: 4
#     Edge 8, Type (0, 0), BuildingBlock: MIFKUJ_clean_linker_0, # of connection points: 2
#     Edge 9, Type (0, 0), BuildingBlock: MIFKUJ_clean_linker_0, # of connection points: 2
#     Edge 10, Type (0, 0), BuildingBlock: MIFKUJ_clean_linker_0, # of connection points: 2
#     Edge 11, Type (0, 0), BuildingBlock: MIFKUJ_clean_linker_0, # of connection points: 2
#     Edge 12, Type (0, 0), BuildingBlock: MIFKUJ_clean_linker_0, # of connection points: 2
#     Edge 13, Type (0, 0), BuildingBlock: MIFKUJ_clean_linker_0, # of connection points: 2
#     Edge 14, Type (0, 0), BuildingBlock: MIFKUJ_clean_linker_0, # of connection points: 2
#     Edge 15, Type (0, 0), BuildingBlock: MIFKUJ_clean_linker_0, # of connection points: 2
#     Edge 16, Type (0, 0), BuildingBlock: MIFKUJ_clean_linker_0, # of connection points: 2
#     Edge 17, Type (0, 0), BuildingBlock: MIFKUJ_clean_linker_0, # of connection points: 2
#     Edge 18, Type (0, 0), BuildingBlock: MIFKUJ_clean_linker_0, # of connection points: 2
#     Edge 19, Type (0, 0), BuildingBlock: MIFKUJ_clean_linker_0, # of connection points: 2
#     Edge 20, Type (0, 0), BuildingBlock: MIFKUJ_clean_linker_0, # of connection points: 2
#     Edge 21, Type (0, 0), BuildingBlock: MIFKUJ_clean_linker_0, # of connection points: 2
#     Edge 22, Type (0, 0), BuildingBlock: MIFKUJ_clean_linker_0, # of connection points: 2
#     Edge 23, Type (0, 0), BuildingBlock: MIFKUJ_clean_linker_0, # of connection points: 2
# Relax obj value: 0.104
# Max RMSD: 0.182
# Mean RMSD: 0.173
data_MOF--net-umx--node1-ESEHIV_clean_sbu_0--edge1-MIFKUJ_clean_linker_0
_symmetry_space_group_name_H-M    P1
_symmetry_Int_Tables_number       1
_symmetry_cell_setting            triclinic
loop_
_symmetry_equiv_pos_as_xyz
'x, y, z'
_cell_length_a     50.539953
_cell_length_b     57.895936
_cell_length_c     39.2582
_cell_angle_alpha  89.885644
_cell_angle_beta   90.624628
_cell_angle_gamma 89.904334
loop_
_atom_site_label
_atom_site_type_symbol
_atom_site_fract_x
_atom_site_fract_y
_atom_site_fract_z
_atom_type_partial_charge
Cu0 Cu 0.16539 0.40452 0.04295 0.0
N1 N 0.17602 0.42879 1.01539 0.0
N2 N 0.18757 0.44916 0.96957 0.0
C3 C 0.18117 0.4281 0.98188 0.0
C4 C 0.1864 0.46355 0.99657 0.0
C5 C 0.17926 0.45092 1.02476 0.0
O6 O 0.18235 0.37664 1.02694 0.0
C7 C 0.1116 0.39894 0.06576 0.0
O8 O 0.12171 0.39127 0.09461 0.0
H9 H 0.18019 0.41242 0.96698 0.0
H10 H 0.17623 0.45745 0.05022 0.0
N11 N 0.17904 0.41015 0.08633 0.0
N12 N 0.18669 0.42456 0.13802 0.0
C13 C 0.16912 0.42275 0.11203 0.0
C14 C 0.20356 0.40392 0.09646 0.0
C15 C 0.20835 0.41278 0.12834 0.0
C16 C 0.18288 0.3585 0.04523 0.0
O17 O 0.16793 0.35754 0.07238 0.0
H18 H 0.14998 0.43117 0.11119 0.0
H19 H 0.21727 0.39411 0.08121 0.0
O20 O 0.1269 0.40395 0.0413 0.0
H21 H 0.1897 0.482 0.99594 0.0
H22 H 0.22641 0.41092 0.1432 0.0
Cu23 Cu 0.5582 0.18239 0.55365 0.0
N24 N 0.56511 0.15079 0.54788 0.0
N25 N 0.56177 0.11231 0.54838 0.0
C26 C 0.55189 0.13241 0.56029 0.0
C27 C 0.58189 0.11825 0.52793 0.0
C28 C 0.5839 0.14188 0.52768 0.0
O29 O 0.53995 0.18644 0.59838 0.0
C30 C 0.55563 0.19272 0.48311 0.0
O31 O 0.58118 0.18992 0.48788 0.0
H32 H 0.53497 0.13376 0.57686 0.0
H33 H 0.59807 0.15188 0.51349 0.0
N34 N 0.59105 0.19738 0.55797 0.0
N35 N 0.62339 0.2237 0.55685 0.0
C36 C 0.59713 0.21985 0.55301 0.0
C37 C 0.61418 0.18695 0.56576 0.0
C38 C 0.63411 0.20304 0.56487 0.0
C39 C 0.55147 0.1771 0.62433 0.0
O40 O 0.57342 0.16553 0.61909 0.0
H41 H 0.58277 0.23293 0.54585 0.0
H42 H 0.61646 0.16878 0.57153 0.0
O43 O 0.54074 0.19191 0.50947 0.0
H44 H 0.5943 0.1063 0.51414 0.0
H45 H 0.6549 0.19987 0.56995 0.0
Cu46 Cu 0.85453 0.57914 0.06864 0.0
N47 N 0.86648 0.59125 1.02763 0.0
N48 N 0.86904 0.59533 0.97121 0.0
C49 C 0.85529 0.58637 0.99733 0.0
C50 C 0.88982 0.60631 0.98576 0.0
C51 C 0.88816 0.60379 1.0207 0.0
O52 O 0.81605 0.5824 0.06915 0.0
C53 C 0.89339 0.54702 0.07792 0.0
O54 O 0.9063 0.56657 0.08139 0.0
H55 H 0.83801 0.57548 0.99455 0.0
H56 H 0.90216 0.61001 0.03958 0.0
N57 N 0.86701 0.59538 0.10662 0.0
N58 N 0.87301 0.60239 0.16198 0.0
C59 C 0.86749 0.58636 0.13818 0.0
C60 C 0.87268 0.61796 0.11051 0.0
C61 C 0.87612 0.6224 0.14487 0.0
C62 C 0.80858 0.60334 0.06577 0.0
O63 O 0.82658 0.61917 0.06003 0.0
H64 H 0.86202 0.56869 0.14379 0.0
H65 H 0.87285 0.63053 0.0901 0.0
O66 O 0.86857 0.54776 0.07182 0.0
H67 H 0.90531 0.6152 0.97217 0.0
H68 H 0.87958 0.63909 0.15646 0.0
Cu69 Cu 0.46041 0.81256 0.56386 0.0
N70 N 0.45953 0.84464 0.55752 0.0
N71 N 0.47005 0.88206 0.55695 0.0
C72 C 0.47619 0.86097 0.5696 0.0
C73 C 0.44882 0.87896 0.5365 0.0
C74 C 0.4423 0.85596 0.53704 0.0
O75 O 0.47922 0.80688 0.60838 0.0
C76 C 0.45936 0.80215 0.49332 0.0
O77 O 0.43479 0.80862 0.49818 0.0
H78 H 0.4929 0.8574 0.58628 0.0
H79 H 0.42613 0.84805 0.52318 0.0
N80 N 0.42504 0.80358 0.56931 0.0
N81 N 0.38698 0.78399 0.56991 0.0
C82 C 0.41309 0.78319 0.56278 0.0
C83 C 0.40589 0.81747 0.58124 0.0
C84 C 0.38243 0.80552 0.58144 0.0
C85 C 0.47118 0.79208 0.63033 0.0
O86 O 0.45274 0.77737 0.62099 0.0
H87 H 0.42324 0.76821 0.55283 0.0
H88 H 0.40885 0.83511 0.5894 0.0
O89 O 0.47463 0.80039 0.51964 0.0
H90 H 0.43882 0.89242 0.52209 0.0
H91 H 0.36355 0.81201 0.59006 0.0
Cu92 Cu 0.17441 0.56176 0.55099 0.0
N93 N 0.18732 0.53685 0.57607 0.0
N94 N 0.1989 0.51514 0.62079 0.0
C95 C 0.19163 0.53636 0.60992 0.0
C96 C 0.19922 0.50178 0.59268 0.0
C97 C 0.19213 0.51527 0.56507 0.0
O98 O 0.19041 0.58953 0.56937 0.0
C99 C 0.12045 0.56364 0.5282 0.0
O100 O 0.13022 0.57029 0.49893 0.0
H101 H 0.18834 0.55104 0.62641 0.0
H102 H 0.18995 0.50958 0.53898 0.0
N103 N 0.18567 0.55877 0.50619 0.0
N104 N 0.1909 0.54584 0.45316 0.0
C105 C 0.17866 0.54261 0.48322 0.0
C106 C 0.20301 0.57257 0.4903 0.0
C107 C 0.20623 0.5647 0.45759 0.0
C108 C 0.18608 0.60955 0.55714 0.0
O109 O 0.16744 0.61222 0.53386 0.0
H110 H 0.16501 0.52874 0.48861 0.0
H111 H 0.21268 0.58734 0.5017 0.0
O112 O 0.13592 0.56083 0.55372 0.0
H113 H 0.20387 0.48353 0.59218 0.0
H114 H 0.21864 0.5725 0.43848 0.0
Cu115 Cu 0.47669 0.17436 0.05312 0.0
N116 N 0.4739 0.14243 0.05964 0.0
N117 N 0.47857 0.10416 0.05568 0.0
C118 C 0.48813 0.12499 0.04621 0.0
C119 C 0.45785 0.10869 0.07594 0.0
C120 C 0.45509 0.1322 0.0784 0.0
O121 O 0.49584 0.17926 1.00914 0.0
C122 C 0.4764 0.18674 0.12345 0.0
O123 O 0.45138 0.1814 0.11889 0.0
H124 H 0.50467 0.12748 1.02931 0.0
H125 H 0.43998 0.14124 0.09237 0.0
N126 N 0.44166 0.18442 0.04634 0.0
N127 N 0.40357 0.20401 0.04599 0.0
C128 C 0.42964 0.20459 0.05403 0.0
C129 C 0.42261 0.17109 1.03245 0.0
C130 C 0.39911 0.183 1.03249 0.0
C131 C 0.48773 0.19372 0.98646 0.0
O132 O 0.46901 0.20837 0.99468 0.0
H133 H 0.43958 0.21912 0.0658 0.0
H134 H 0.42562 0.15374 1.02308 0.0
O135 O 0.49158 0.18634 0.09737 0.0
H136 H 0.44566 0.09588 0.0883 0.0
H137 H 0.3802 0.17684 1.02301 0.0
Cu138 Cu 0.80652 0.46974 0.56183 0.0
N139 N 0.79521 0.48782 0.59792 0.0
N140 N 0.79561 0.50905 0.64536 0.0
C141 C 0.8101 0.49628 0.62361 0.0
C142 C 0.77065 0.50853 0.6327 0.0
C143 C 0.77049 0.49545 0.60342 0.0
O144 O 0.7895 0.43972 0.56577 0.0
C145 C 0.85975 0.46438 0.53866 0.0
O146 O 0.8489 0.4567 0.51033 0.0
H147 H 0.83107 0.49287 0.62642 0.0
H148 H 0.75361 0.49182 0.58715 0.0
N149 N 0.79531 0.48419 0.52174 0.0
N150 N 0.79531 0.50565 0.47452 0.0
C151 C 0.80992 0.49719 0.50064 0.0
C152 C 0.77058 0.4846 0.50869 0.0
C153 C 0.7705 0.4979 0.47949 0.0
C154 C 0.78933 0.42458 0.54231 0.0
O155 O 0.80279 0.42831 0.51442 0.0
H156 H 0.83074 0.50073 0.50458 0.0
H157 H 0.75382 0.47586 0.51972 0.0
O158 O 0.84505 0.46911 0.56384 0.0
H159 H 0.75374 0.51724 0.64348 0.0
H160 H 0.75368 0.50126 0.4629 0.0
Cu161 Cu 0.53681 0.79882 0.06598 0.0
N162 N 0.54603 0.82975 0.07322 0.0
N163 N 0.54897 0.86821 0.07035 0.0
C164 C 0.53661 0.84914 0.05832 0.0
C165 C 0.5665 0.86049 0.09391 0.0
C166 C 0.56455 0.83684 0.09571 0.0
O167 O 0.51832 0.79597 1.02067 0.0
C168 C 0.50682 0.8022 0.12824 0.0
O169 O 0.49982 0.82238 0.11567 0.0
H170 H 0.52132 0.84924 0.03879 0.0
H171 H 0.57588 0.8255 0.11226 0.0
N172 N 0.56879 0.78264 0.06227 0.0
N173 N 0.60027 0.75551 0.06506 0.0
C174 C 0.57427 0.76024 0.06906 0.0
C175 C 0.592 0.79215 0.05337 0.0
C176 C 0.6114 0.77554 0.05516 0.0
C177 C 0.53004 0.80512 0.99506 0.0
O178 O 0.5525 0.81589 1.00075 0.0
H179 H 0.55972 0.74789 0.07765 0.0
H180 H 0.59471 0.81006 0.04643 0.0
O181 O 0.52008 0.78844 0.10935 0.0
H182 H 0.57952 0.8712 0.10919 0.0
H183 H 0.63214 0.77798 0.04958 0.0
H184 H 0.22328 0.45164 0.16765 0.0
H185 H 0.22005 0.47111 0.22257 0.0
H186 H 0.14075 0.44484 0.23424 0.0
H187 H 0.14368 0.42613 0.17818 0.0
H188 H 0.14324 0.48717 0.2577 0.0
H189 H 0.19504 0.41915 0.27527 0.0
H190 H 0.23073 0.39122 0.26383 0.0
H191 H 0.28897 0.44355 0.28363 0.0
H192 H 0.25363 0.47189 0.29471 0.0
H193 H 0.14929 0.51878 0.43443 0.0
H194 H 0.14509 0.49583 0.38242 0.0
H195 H 0.22175 0.51955 0.35023 0.0
H196 H 0.22658 0.54167 0.40257 0.0
H197 H 0.21648 0.47409 0.34077 0.0
H198 H 0.16312 0.54268 0.31804 0.0
H199 H 0.12675 0.56984 0.33007 0.0
H200 H 0.07047 0.5146 0.32184 0.0
H201 H 0.10657 0.48706 0.31017 0.0
C202 C 0.20516 0.45015 0.18194 0.0
C203 C 0.18384 0.43723 0.16911 0.0
C204 C 0.20333 0.46116 0.21333 0.0
C205 C 0.18045 0.45885 0.23302 0.0
C206 C 0.15868 0.44667 0.21962 0.0
C207 C 0.16033 0.43603 0.18773 0.0
C208 C 0.1797 0.46888 0.26774 0.0
C209 C 0.15902 0.484 0.27609 0.0
C210 C 0.2003 0.4648 0.29177 0.0
C211 C 0.22165 0.44768 0.28564 0.0
C212 C 0.21545 0.42473 0.27703 0.0
C213 C 0.23562 0.40883 0.27061 0.0
C214 C 0.2621 0.41562 0.27296 0.0
C215 C 0.26846 0.43832 0.28182 0.0
C216 C 0.24836 0.4543 0.28823 0.0
C217 C 0.16538 0.51891 0.41648 0.0
C218 C 0.18825 0.53217 0.42268 0.0
C219 C 0.16282 0.50596 0.3866 0.0
C220 C 0.18298 0.5062 0.3623 0.0
C221 C 0.20591 0.51918 0.36861 0.0
C222 C 0.20853 0.53202 0.39844 0.0
C223 C 0.18055 0.49293 0.3302 0.0
C224 C 0.20057 0.47706 0.32248 0.0
C225 C 0.15923 0.49617 0.30699 0.0
C226 C 0.13755 0.51279 0.31358 0.0
C227 C 0.14301 0.53631 0.31901 0.0
C228 C 0.12244 0.55177 0.32573 0.0
C229 C 0.09632 0.54394 0.32681 0.0
C230 C 0.09071 0.52064 0.32105 0.0
C231 C 0.1112 0.5051 0.31435 0.0
H232 H 0.08043 0.55593 0.33205 0.0
H233 H 0.27769 0.40328 0.26794 0.0
H234 H 0.51513 0.20785 0.65292 0.0
H235 H 0.50328 0.21132 0.71353 0.0
H236 H 0.55456 0.15396 0.73803 0.0
H237 H 0.56611 0.15034 0.67836 0.0
H238 H 0.51118 0.14971 0.77353 0.0
H239 H 0.57239 0.21177 0.75265 0.0
H240 H 0.58849 0.24697 0.72414 0.0
H241 H 0.51884 0.28367 0.7549 0.0
H242 H 0.50218 0.24858 0.78324 0.0
H243 H 0.5213 0.1624 0.95463 0.0
H244 H 0.53177 0.16004 0.89371 0.0
H245 H 0.4835 0.22016 0.87404 0.0
H246 H 0.47368 0.22296 0.93445 0.0
H247 H 0.52402 0.2234 0.83554 0.0
H248 H 0.46279 0.16195 0.85699 0.0
H249 H 0.44619 0.12691 0.88541 0.0
H250 H 0.51469 0.08917 0.85321 0.0
H251 H 0.53188 0.12409 0.82495 0.0
C252 C 0.52364 0.19586 0.67119 0.0
C253 C 0.54171 0.17888 0.66039 0.0
C254 C 0.51702 0.19795 0.70603 0.0
C255 C 0.52821 0.18306 0.73094 0.0
C256 C 0.54556 0.16574 0.71982 0.0
C257 C 0.55225 0.16376 0.68536 0.0
C258 C 0.52251 0.18538 0.76858 0.0
C259 C 0.51425 0.16583 0.78704 0.0
C260 C 0.52591 0.20639 0.78667 0.0
C261 C 0.53591 0.22749 0.76972 0.0
C262 C 0.56042 0.2273 0.7531 0.0
C263 C 0.56966 0.24724 0.73702 0.0
C264 C 0.55466 0.26753 0.73762 0.0
C265 C 0.53042 0.26793 0.7544 0.0
C266 C 0.52107 0.24803 0.77049 0.0
C267 C 0.51317 0.17528 0.93741 0.0
C268 C 0.49656 0.19285 0.94988 0.0
C269 C 0.51896 0.1738 0.90232 0.0
C270 C 0.50811 0.18969 0.87857 0.0
C271 C 0.49221 0.20759 0.8913 0.0
C272 C 0.48654 0.20913 0.92619 0.0
C273 C 0.51277 0.18768 0.84059 0.0
C274 C 0.52085 0.20729 0.82206 0.0
C275 C 0.50908 0.16673 0.82238 0.0
C276 C 0.49874 0.14569 0.83916 0.0
C277 C 0.4744 0.14622 0.85617 0.0
C278 C 0.46487 0.12637 0.87222 0.0
C279 C 0.47941 0.10584 0.8712 0.0
C280 C 0.50347 0.1051 0.85403 0.0
C281 C 0.51311 0.1249 0.83797 0.0
H282 H 0.47201 0.0905 0.88365 0.0
H283 H 0.56185 0.28295 0.72516 0.0
H284 H 0.7697 0.54088 0.44325 0.0
H285 H 0.78515 0.56338 0.39446 0.0
H286 H 0.85688 0.52276 0.39278 0.0
H287 H 0.84192 0.50111 0.4425 0.0
H288 H 0.86921 0.5643 0.37931 0.0
H289 H 0.80158 0.51346 0.33722 0.0
H290 H 0.7573 0.4957 0.33396 0.0
H291 H 0.72265 0.5619 0.31186 0.0
H292 H 0.76671 0.58011 0.31544 0.0
H293 H 0.89466 0.56799 0.19881 0.0
H294 H 0.88455 0.55809 0.25809 0.0
H295 H 0.83447 0.61824 0.26487 0.0
H296 H 0.84523 0.6285 0.20578 0.0
H297 H 0.81065 0.57191 0.27769 0.0
H298 H 0.88309 0.62028 0.31184 0.0
H299 H 0.92904 0.63448 0.31218 0.0
H300 H 0.95678 0.56789 0.34526 0.0
H301 H 0.91104 0.55313 0.34446 0.0
C302 C 0.78877 0.53688 0.43241 0.0
C303 C 0.80458 0.51923 0.44641 0.0
C304 C 0.79758 0.54966 0.4045 0.0
C305 C 0.822 0.54451 0.38942 0.0
C306 C 0.838 0.52713 0.4039 0.0
C307 C 0.82945 0.51473 0.43225 0.0
C308 C 0.83066 0.55672 0.35808 0.0
C309 C 0.85644 0.56578 0.35702 0.0
C310 C 0.81391 0.55907 0.32908 0.0
C311 C 0.78739 0.54819 0.32703 0.0
C312 C 0.78448 0.52426 0.33195 0.0
C313 C 0.75944 0.51411 0.33 0.0
C314 C 0.73717 0.52768 0.32283 0.0
C315 C 0.73991 0.55142 0.3175 0.0
C316 C 0.76491 0.56167 0.31948 0.0
C317 C 0.88213 0.57939 0.2134 0.0
C318 C 0.87078 0.59901 0.19805 0.0
C319 C 0.87641 0.57378 0.24713 0.0
C320 C 0.85885 0.58749 0.26576 0.0
C321 C 0.84824 0.60759 0.2509 0.0
C322 C 0.85446 0.61349 0.21735 0.0
C323 C 0.84915 0.57914 0.29895 0.0
C324 C 0.82321 0.57069 0.30023 0.0
C325 C 0.866 0.57677 0.3277 0.0
C326 C 0.8936 0.58553 0.32774 0.0
C327 C 0.899 0.60856 0.31876 0.0
C328 C 0.92502 0.61673 0.31913 0.0
C329 C 0.94582 0.60208 0.32864 0.0
C330 C 0.94065 0.57922 0.33783 0.0
C331 C 0.91468 0.57094 0.33743 0.0
H332 H 0.96595 0.60846 0.32898 0.0
H333 H 0.71779 0.51978 0.32131 0.0
H334 H 0.54142 0.83466 0.94346 0.0
H335 H 0.53016 0.8319 0.88319 0.0
H336 H 0.4853 0.77012 0.90257 0.0
H337 H 0.49666 0.77285 0.96381 0.0
H338 H 0.51753 0.76497 0.84652 0.0
H339 H 0.45403 0.82061 0.88214 0.0
H340 H 0.43778 0.85587 0.91017 0.0
H341 H 0.4863 0.89753 0.84536 0.0
H342 H 0.50318 0.86248 0.81727 0.0
H343 H 0.46021 0.76044 0.68006 0.0
H344 H 0.46928 0.76248 0.74101 0.0
H345 H 0.51005 0.82705 0.72685 0.0
H346 H 0.50054 0.82527 0.66527 0.0
H347 H 0.47881 0.83028 0.78083 0.0
H348 H 0.54325 0.77485 0.74625 0.0
H349 H 0.55994 0.73969 0.71832 0.0
H350 H 0.51021 0.69779 0.78125 0.0
H351 H 0.49295 0.73273 0.80927 0.0
C352 C 0.52888 0.82054 0.9352 0.0
C353 C 0.51992 0.80401 0.95888 0.0
C354 C 0.52236 0.81904 0.90044 0.0
C355 C 0.50668 0.80089 0.88783 0.0
C356 C 0.49739 0.78437 0.91139 0.0
C357 C 0.50371 0.78603 0.94655 0.0
C358 C 0.50093 0.79909 0.85004 0.0
C359 C 0.5086 0.77911 0.83233 0.0
C360 C 0.49005 0.81774 0.83087 0.0
C361 C 0.48005 0.83888 0.84779 0.0
C362 C 0.46143 0.83727 0.87406 0.0
C363 C 0.45207 0.85723 0.88993 0.0
C364 C 0.46103 0.87892 0.8796 0.0
C365 C 0.47939 0.88071 0.85336 0.0
C366 C 0.48884 0.8608 0.83743 0.0
C367 C 0.4714 0.77502 0.68963 0.0
C368 C 0.47974 0.79262 0.66725 0.0
C369 C 0.47669 0.77612 0.72481 0.0
C370 C 0.49067 0.79479 0.7391 0.0
C371 C 0.49927 0.81236 0.71682 0.0
C372 C 0.49401 0.81125 0.68141 0.0
C373 C 0.49547 0.79616 0.77721 0.0
C374 C 0.48767 0.81609 0.79499 0.0
C375 C 0.5063 0.77748 0.79642 0.0
C376 C 0.51661 0.75643 0.77962 0.0
C377 C 0.53571 0.75815 0.75395 0.0
C378 C 0.5453 0.73826 0.73814 0.0
C379 C 0.53609 0.71652 0.74794 0.0
C380 C 0.5173 0.71464 0.77365 0.0
C381 C 0.50762 0.73448 0.78952 0.0
H382 H 0.54355 0.70114 0.73568 0.0
H383 H 0.4537 0.89435 0.89187 0.0
H384 H 0.84545 0.52408 0.65952 0.0
H385 H 0.86094 0.54279 0.71179 0.0
H386 H 0.78216 0.53917 0.75258 0.0
H387 H 0.76658 0.52032 0.70063 0.0
H388 H 0.80453 0.581 0.76422 0.0
H389 H 0.82967 0.50073 0.77693 0.0
H390 H 0.85182 0.46466 0.75975 0.0
H391 H 0.927 0.49911 0.76163 0.0
H392 H 0.90522 0.53548 0.77841 0.0
H393 H 0.82111 0.58867 0.94171 0.0
H394 H 0.81197 0.57843 0.88261 0.0
H395 H 0.89504 0.58409 0.85994 0.0
H396 H 0.90445 0.59363 0.91966 0.0
H397 H 0.8751 0.54485 0.83526 0.0
H398 H 0.85047 0.6241 0.82941 0.0
H399 H 0.82825 0.66004 0.84694 0.0
H400 H 0.75242 0.62805 0.83214 0.0
H401 H 0.77417 0.5918 0.81499 0.0
C402 C 0.83144 0.52709 0.67967 0.0
C403 C 0.80475 0.52056 0.67586 0.0
C404 C 0.84032 0.53788 0.7095 0.0
C405 C 0.82274 0.54222 0.73618 0.0
C406 C 0.79605 0.53608 0.73225 0.0
C407 C 0.78715 0.52532 0.70246 0.0
C408 C 0.83211 0.55274 0.76856 0.0
C409 C 0.81984 0.57304 0.77989 0.0
C410 C 0.85268 0.54275 0.78844 0.0
C411 C 0.86579 0.52087 0.77853 0.0
C412 C 0.8509 0.50065 0.77342 0.0
C413 C 0.86339 0.48015 0.7638 0.0
C414 C 0.89079 0.47961 0.7595 0.0
C415 C 0.90577 0.49956 0.76491 0.0
C416 C 0.89337 0.52012 0.77449 0.0
C417 C 0.83745 0.5878 0.92418 0.0
C418 C 0.86353 0.59181 0.93548 0.0
C419 C 0.83216 0.58219 0.89025 0.0
C420 C 0.85278 0.5807 0.86671 0.0
C421 C 0.87881 0.58523 0.87765 0.0
C422 C 0.88414 0.59086 0.91171 0.0
C423 C 0.84713 0.5729 0.83135 0.0
C424 C 0.86008 0.55308 0.81941 0.0
C425 C 0.82719 0.58336 0.8109 0.0
C426 C 0.81399 0.60517 0.82112 0.0
C427 C 0.82906 0.62467 0.83013 0.0
C428 C 0.81654 0.64511 0.83996 0.0
C429 C 0.78894 0.64632 0.84071 0.0
C430 C 0.7738 0.62709 0.83156 0.0
C431 C 0.78621 0.6066 0.82173 0.0
H432 H 0.77929 0.66216 0.84833 0.0
H433 H 0.90042 0.46372 0.75205 0.0
H434 H 0.47114 0.82317 0.1699 0.0
H435 H 0.46692 0.82002 0.2315 0.0
H436 H 0.5286 0.76853 0.23415 0.0
H437 H 0.53237 0.77118 0.17175 0.0
H438 H 0.49335 0.75776 0.28121 0.0
H439 H 0.54027 0.8266 0.25648 0.0
H440 H 0.54944 0.86381 0.22836 0.0
H441 H 0.47837 0.89252 0.26987 0.0
H442 H 0.46855 0.85536 0.29784 0.0
H443 H 0.50327 0.77876 0.46647 0.0
H444 H 0.51539 0.77541 0.40571 0.0
H445 H 0.44818 0.81744 0.37762 0.0
H446 H 0.43592 0.8205 0.43702 0.0
H447 H 0.49365 0.83159 0.34505 0.0
H448 H 0.44632 0.76024 0.36633 0.0
H449 H 0.4392 0.72285 0.39497 0.0
H450 H 0.5151 0.69909 0.3614 0.0
H451 H 0.52281 0.7365 0.33294 0.0
C452 C 0.48366 0.81092 0.18337 0.0
C453 C 0.50219 0.79751 0.16548 0.0
C454 C 0.48137 0.80926 0.21893 0.0
C455 C 0.49792 0.7945 0.23821 0.0
C456 C 0.51565 0.78024 0.2203 0.0
C457 C 0.51776 0.78171 0.18443 0.0
C458 C 0.49699 0.79472 0.27681 0.0
C459 C 0.49389 0.77393 0.2951 0.0
C460 C 0.49769 0.81567 0.29564 0.0
C461 C 0.50357 0.83812 0.27905 0.0
C462 C 0.5265 0.8408 0.25944 0.0
C463 C 0.53183 0.86189 0.24354 0.0
C464 C 0.51447 0.8805 0.24727 0.0
C465 C 0.49179 0.87808 0.26698 0.0
C466 C 0.48634 0.85701 0.28289 0.0
C467 C 0.49114 0.78727 0.44731 0.0
C468 C 0.46849 0.7998 0.45702 0.0
C469 C 0.49801 0.78528 0.41247 0.0
C470 C 0.48268 0.79614 0.38666 0.0
C471 C 0.46044 0.80888 0.39662 0.0
C472 C 0.45338 0.81051 0.43095 0.0
C473 C 0.48928 0.79477 0.34925 0.0
C474 C 0.49345 0.81542 0.33116 0.0
C475 C 0.48994 0.7737 0.33084 0.0
C476 C 0.48529 0.75126 0.3479 0.0
C477 C 0.4616 0.74713 0.36534 0.0
C478 C 0.45743 0.72592 0.38147 0.0
C479 C 0.47673 0.70864 0.38011 0.0
C480 C 0.5002 0.71251 0.3625 0.0
C481 C 0.50447 0.73371 0.34636 0.0
H482 H 0.47346 0.69222 0.3926 0.0
H483 H 0.51863 0.89681 0.23494 0.0
H484 H 0.17341 0.42551 0.91245 0.0
H485 H 0.18135 0.43671 0.8536 0.0
H486 H 0.22159 0.49814 0.88797 0.0
H487 H 0.21426 0.48686 0.94708 0.0
H488 H 0.18399 0.50712 0.83872 0.0
H489 H 0.25681 0.45519 0.8549 0.0
H490 H 0.27854 0.41866 0.87156 0.0
H491 H 0.23247 0.38215 0.79661 0.0
H492 H 0.21018 0.41843 0.77982 0.0
H493 H 0.21985 0.54035 0.67221 0.0
H494 H 0.22361 0.52906 0.73219 0.0
H495 H 0.18993 0.46253 0.70807 0.0
H496 H 0.18677 0.4736 0.64805 0.0
H497 H 0.22814 0.45745 0.75349 0.0
H498 H 0.15239 0.50763 0.74114 0.0
H499 H 0.129 0.54347 0.7248 0.0
H500 H 0.17871 0.58239 0.79293 0.0
H501 H 0.20263 0.5468 0.80934 0.0
C502 C 0.18437 0.44119 0.90769 0.0
C503 C 0.19314 0.45528 0.93471 0.0
C504 C 0.18884 0.44759 0.87393 0.0
C505 C 0.20221 0.46816 0.86646 0.0
C506 C 0.2112 0.48219 0.89324 0.0
C507 C 0.20685 0.47576 0.92704 0.0
C508 C 0.20559 0.47555 0.83064 0.0
C509 C 0.19408 0.49648 0.82019 0.0
C510 C 0.21819 0.46136 0.8064 0.0
C511 C 0.23167 0.43952 0.8163 0.0
C512 C 0.25116 0.43935 0.84215 0.0
C513 C 0.26361 0.41869 0.85158 0.0
C514 C 0.25685 0.39809 0.8352 0.0
C515 C 0.23768 0.39812 0.80929 0.0
C516 C 0.22515 0.41873 0.79978 0.0
C517 C 0.21337 0.5233 0.67977 0.0
C518 C 0.20284 0.50792 0.65557 0.0
C519 C 0.2155 0.51686 0.714 0.0
C520 C 0.20659 0.49509 0.72475 0.0
C521 C 0.19693 0.47941 0.70039 0.0
C522 C 0.19514 0.48574 0.6661 0.0
C523 C 0.20628 0.48893 0.76145 0.0
C524 C 0.2183 0.46822 0.77208 0.0
C525 C 0.19394 0.50322 0.78587 0.0
C526 C 0.17947 0.5246 0.77618 0.0
C527 C 0.15844 0.52386 0.75245 0.0
C528 C 0.14508 0.54412 0.7432 0.0
C529 C 0.15242 0.5652 0.75774 0.0
C530 C 0.17308 0.56605 0.78164 0.0
C531 C 0.18654 0.54584 0.79094 0.0
H532 H 0.14205 0.58087 0.75054 0.0
H533 H 0.26651 0.38211 0.84255 0.0
H534 H 0.50387 0.1987 0.45777 0.0
H535 H 0.48952 0.20046 0.39759 0.0
H536 H 0.57046 0.19201 0.36621 0.0
H537 H 0.58475 0.19117 0.42522 0.0
H538 H 0.5505 0.22085 0.32563 0.0
H539 H 0.51964 0.14673 0.36528 0.0
H540 H 0.49445 0.12036 0.40217 0.0
H541 H 0.42198 0.15396 0.37234 0.0
H542 H 0.4468 0.1807 0.33558 0.0
H543 H 0.5277 0.18581 0.15081 0.0
H544 H 0.54075 0.18876 0.2113 0.0
H545 H 0.45935 0.20054 0.23807 0.0
H546 H 0.44634 0.19723 0.17846 0.0
H547 H 0.47838 0.17117 0.28106 0.0
H548 H 0.50967 0.2443 0.23938 0.0
H549 H 0.53525 0.2702 0.20225 0.0
H550 H 0.60752 0.23779 0.23558 0.0
H551 H 0.58233 0.2115 0.27262 0.0
C552 C 0.51858 0.19738 0.43803 0.0
C553 C 0.54553 0.19478 0.44686 0.0
C554 C 0.51035 0.19819 0.4034 0.0
C555 C 0.52878 0.19606 0.37665 0.0
C556 C 0.55562 0.1938 0.38574 0.0
C557 C 0.5638 0.19323 0.41997 0.0
C558 C 0.52073 0.19597 0.33927 0.0
C559 C 0.53487 0.20974 0.31602 0.0
C560 C 0.50002 0.18196 0.32601 0.0
C561 C 0.4851 0.16586 0.34799 0.0
C562 C 0.49835 0.14858 0.36677 0.0
C563 C 0.48414 0.13355 0.38763 0.0
C564 C 0.45664 0.13552 0.38967 0.0
C565 C 0.44329 0.15248 0.37078 0.0
C566 C 0.45741 0.16756 0.34992 0.0
C567 C 0.51267 0.18938 0.16953 0.0
C568 C 0.48592 0.19128 0.15937 0.0
C569 C 0.52013 0.19106 0.20432 0.0
C570 C 0.5011 0.19495 0.22987 0.0
C571 C 0.47456 0.19736 0.21942 0.0
C572 C 0.46714 0.19557 0.18496 0.0
C573 C 0.50829 0.19591 0.26746 0.0
C574 C 0.49398 0.1823 0.29071 0.0
C575 C 0.52892 0.20998 0.28068 0.0
C576 C 0.54409 0.22579 0.2585 0.0
C577 C 0.531 0.24259 0.2386 0.0
C578 C 0.54543 0.25736 0.21761 0.0
C579 C 0.57299 0.2556 0.21649 0.0
C580 C 0.58617 0.23911 0.23644 0.0
C581 C 0.57183 0.22429 0.25745 0.0
H582 H 0.58412 0.26705 0.20022 0.0
H583 H 0.44567 0.12388 0.40583 0.0
H584 H 0.93943 0.53973 0.11162 0.0
H585 H 0.96941 0.50703 0.10634 0.0
H586 H 0.91272 0.47224 0.04169 0.0
H587 H 0.88213 0.50525 0.04715 0.0
H588 H 0.94393 0.44207 0.08937 0.0
H589 H 0.95562 0.49847 1.00131 0.0
H590 H 0.95989 0.53808 0.97884 0.0
H591 H 0.03014 0.54813 0.03946 0.0
H592 H 0.02604 0.5087 0.06274 0.0
H593 H 0.08367 0.41195 1.00884 0.0
H594 H 0.03939 0.42881 1.00625 0.0
H595 H 0.03131 0.41858 0.11451 0.0
H596 H 0.07539 0.40122 0.11717 0.0
H597 H 0.02698 0.46739 1.03435 0.0
H598 H 0.96639 0.41778 0.13688 0.0
H599 H 0.96075 0.3778 0.15732 0.0
H600 H 0.98674 0.35182 0.06091 0.0
H601 H 0.99217 0.39161 0.03971 0.0
C602 C 0.93304 0.52496 0.09677 0.0
C603 C 0.90859 0.52518 0.07938 0.0
C604 C 0.95019 0.50625 0.09387 0.0
C605 C 0.94345 0.48739 0.07324 0.0
C606 C 0.91825 0.48667 0.05774 0.0
C607 C 0.90084 0.5055 0.06084 0.0
C608 C 0.96421 0.47017 0.06511 0.0
C609 C 0.96205 0.44742 0.07711 0.0
C610 C 0.98755 0.4771 0.04837 0.0
C611 C 0.99043 0.50067 1.03389 0.0
C612 C 0.9719 0.50917 1.00999 0.0
C613 C 0.97429 0.53159 0.9971 0.0
C614 C 0.99526 0.54562 1.00774 0.0
C615 C 0.01391 0.53724 1.03123 0.0
C616 C 0.01158 0.51485 0.04425 0.0
C617 C 0.07226 0.4128 1.03201 0.0
C618 C 0.08321 0.40542 0.06329 0.0
C619 C 0.04691 0.42247 1.03047 0.0
C620 C 0.03192 0.42503 0.06015 0.0
C621 C 0.04224 0.41651 0.09113 0.0
C622 C 0.06756 0.40667 0.09265 0.0
C623 C 0.00728 0.4392 0.05949 0.0
C624 C 0.00877 0.46163 0.046 0.0
C625 C 0.98329 0.43174 0.07432 0.0
C626 C 0.97988 0.40772 0.08681 0.0
C627 C 0.97078 0.40354 0.11997 0.0
C628 C 0.96765 0.38091 0.13171 0.0
C629 C 0.97345 0.36228 0.11046 0.0
C630 C 0.98234 0.36626 0.07739 0.0
C631 C 0.9855 0.38886 0.06553 0.0
H632 H 0.97102 0.34477 0.1196 0.0
H633 H 0.99707 0.56298 0.99775 0.0
H634 H 0.48556 0.90084 0.61693 0.0
H635 H 0.50453 0.93975 0.62516 0.0
H636 H 0.50434 0.95 0.51631 0.0
H637 H 0.48484 0.91167 0.50827 0.0
H638 H 0.55323 0.96354 0.55432 0.0
H639 H 0.45647 0.97154 0.55376 0.0
H640 H 0.41227 0.96295 0.57653 0.0
H641 H 0.43661 0.98811 0.6748 0.0
H642 H 0.48111 0.99653 0.65267 0.0
H643 H 0.55942 0.07756 0.50313 0.0
H644 H 0.54664 0.03767 0.51385 0.0
H645 H 0.53098 0.05441 0.61882 0.0
H646 H 0.54315 0.09486 0.60765 0.0
H647 H 0.49454 0.02595 0.59613 0.0
H648 H 0.588 0.02469 0.59618 0.0
H649 H 0.63308 0.03298 0.57625 0.0
H650 H 0.61786 0.99446 0.48479 0.0
H651 H 0.57253 0.98621 0.50392 0.0
C652 C 0.48998 0.9114 0.59492 0.0
C653 C 0.48379 0.90348 0.562 0.0
C654 C 0.50065 0.93353 0.59959 0.0
C655 C 0.50574 0.94768 0.5713 0.0
C656 C 0.50058 0.93931 0.53842 0.0
C657 C 0.48941 0.91753 0.53384 0.0
C658 C 0.51527 0.97168 0.57539 0.0
C659 C 0.54049 0.97724 0.56348 0.0
C660 C 0.49894 0.98931 0.58854 0.0
C661 C 0.47218 0.98436 0.6017 0.0
C662 C 0.45247 0.97502 0.5803 0.0
C663 C 0.42735 0.97023 0.59307 0.0
C664 C 0.42166 0.9749 0.62712 0.0
C665 C 0.44106 0.98444 0.64845 0.0
C666 C 0.46623 0.98923 0.63581 0.0
C667 C 0.55331 0.07273 0.5285 0.0
C668 C 0.55258 0.08919 0.55467 0.0
C669 C 0.5461 0.04989 0.53469 0.0
C670 C 0.53859 0.04281 0.56742 0.0
C671 C 0.53696 0.0594 0.59344 0.0
C672 C 0.54384 0.08246 0.58707 0.0
C673 C 0.53231 0.01809 0.57382 0.0
C674 C 0.50768 0.01233 0.58771 0.0
C675 C 0.54944 0.00017 0.56304 0.0
C676 C 0.57678 0.00492 0.55145 0.0
C677 C 0.5942 0.01809 0.57173 0.0
C678 C 0.61981 0.02278 0.56058 0.0
C679 C 0.62832 0.01428 0.52926 0.0
C680 C 0.61124 0.00103 0.50905 0.0
C681 C 0.58559 0.99631 0.52007 0.0
H682 H 0.64815 0.01794 0.52067 0.0
H683 H 0.4022 0.97119 0.63696 0.0
H684 H 0.08706 0.55309 0.47546 0.0
H685 H 0.04294 0.53638 0.47848 0.0
H686 H 0.04608 0.54052 0.58822 0.0
H687 H 0.09091 0.55629 0.58533 0.0
H688 H 0.02794 0.50092 0.57199 0.0
H689 H 0.00626 0.57745 0.53465 0.0
H690 H 0.00806 0.61227 0.49848 0.0
H691 H 0.98213 0.57273 0.41196 0.0
H692 H 0.98058 0.53758 0.44749 0.0
H693 H 0.88915 0.47962 0.59323 0.0
H694 H 0.93375 0.49597 0.59244 0.0
H695 H 0.93851 0.48242 0.48472 0.0
H696 H 0.89397 0.46602 0.48522 0.0
H697 H 0.95185 0.52718 0.50103 0.0
H698 H 0.97425 0.45062 0.53956 0.0
H699 H 0.97128 0.41647 0.57695 0.0
H700 H 0.99443 0.45762 0.6631 0.0
H701 H 0.9972 0.4921 0.62628 0.0
C702 C 0.07824 0.55077 0.50025 0.0
C703 C 0.09248 0.55612 0.53017 0.0
C704 C 0.05288 0.54126 0.50195 0.0
C705 C 0.04085 0.53743 0.53357 0.0
C706 C 0.05484 0.54326 0.56349 0.0
C707 C 0.08044 0.5524 0.56182 0.0
C708 C 0.01429 0.52628 0.53547 0.0
C709 C 0.01122 0.50698 0.55687 0.0
C710 C 0.99248 0.53371 0.51519 0.0
C711 C 0.99356 0.55482 0.4937 0.0
C712 C 1.00117 0.57613 0.50785 0.0
C713 C 1.00211 0.59594 0.48747 0.0
C714 C 0.99529 0.5947 0.45293 0.0
C715 C 0.98746 0.57366 0.43871 0.0
C716 C 0.98653 0.55379 0.45896 0.0
C717 C 0.89983 0.47977 0.56945 0.0
C718 C 0.88795 0.47149 0.53928 0.0
C719 C 0.92534 0.48913 0.56907 0.0
C720 C 0.93947 0.49042 0.53851 0.0
C721 C 0.92794 0.48163 0.50856 0.0
C722 C 0.90252 0.47212 0.50896 0.0
C723 C 0.96569 0.50196 0.53742 0.0
C724 C 0.96864 0.52129 0.51619 0.0
C725 C 0.98727 0.49471 0.55805 0.0
C726 C 0.98567 0.47399 0.58022 0.0
C727 C 0.97849 0.45243 0.56653 0.0
C728 C 0.97689 0.43301 0.58761 0.0
C729 C 0.98259 0.43489 0.6224 0.0
C730 C 0.98998 0.45619 0.63616 0.0
C731 C 0.99159 0.47568 0.61519 0.0
H732 H 0.98135 0.41983 0.63867 0.0
H733 H 0.996 0.61006 0.43721 0.0
H734 H 0.5028 0.8875 0.04874 0.0
H735 H 0.49452 0.92843 0.03709 0.0
H736 H 0.57658 0.94363 0.05856 0.0
H737 H 0.58481 0.90283 0.07058 0.0
H738 H 0.54698 0.97239 0.09132 0.0
H739 H 0.55022 0.94684 0.97659 0.0
H740 H 0.53964 0.9227 0.92663 0.0
H741 H 0.45815 0.94335 0.93168 0.0
H742 H 0.46816 0.9674 0.98202 0.0
H743 H 0.52959 0.09085 0.04827 0.0
H744 H 0.54566 0.05105 0.04123 0.0
H745 H 0.46509 0.02668 0.03677 0.0
H746 H 0.4491 0.06626 0.04369 0.0
H747 H 0.4985 0.00375 0.9908 0.0
H748 H 0.49619 0.02562 0.11028 0.0
H749 H 0.50806 0.05017 0.15938 0.0
H750 H 0.59046 0.03636 0.14313 0.0
H751 H 0.57907 0.01197 0.0936 0.0
C752 C 0.51914 0.89952 0.05043 0.0
C753 C 0.54441 0.89196 0.06082 0.0
C754 C 0.51442 0.92293 0.0437 0.0
C755 C 0.53498 0.93916 0.04672 0.0
C756 C 0.56037 0.9315 0.05619 0.0
C757 C 0.56503 0.90817 0.06317 0.0
C758 C 0.52964 0.96427 0.04235 0.0
C759 C 0.53688 0.97925 0.06895 0.0
C760 C 0.51612 0.9733 1.01344 0.0
C761 C 0.50992 0.95879 0.98327 0.0
C762 C 0.53 0.94609 0.96724 0.0
C763 C 0.52411 0.93245 0.93882 0.0
C764 C 0.49824 0.93148 0.92603 0.0
C765 C 0.47818 0.94413 0.94164 0.0
C766 C 0.48396 0.9578 0.9701 0.0
C767 C 0.5154 0.07702 0.04504 0.0
C768 C 0.48814 0.08153 0.04694 0.0
C769 C 0.52455 0.05433 0.04116 0.0
C770 C 0.50653 0.03591 0.0388 0.0
C771 C 0.47931 0.04062 0.03857 0.0
C772 C 0.47022 0.06318 0.04281 0.0
C773 C 0.51571 0.01158 0.03981 0.0
C774 C 0.50904 0.9968 1.01276 0.0
C775 C 0.52998 0.00271 0.06814 0.0
C776 C 0.5368 0.01722 0.09802 0.0
C777 C 0.51685 0.02798 0.11702 0.0
C778 C 0.52348 0.04183 0.14495 0.0
C779 C 0.55 0.04488 0.1543 0.0
C780 C 0.56994 0.03402 0.13581 0.0
C781 C 0.5634 0.02018 0.10782 0.0
H782 H 0.5551 0.05561 0.17593 0.0
H783 H 0.49378 0.921 0.90395 0.0
H784 H 0.18899 0.3169 0.07747 0.0
H785 H 0.22787 0.29177 0.07695 0.0
H786 H 0.26492 0.33677 1.00392 0.0
H787 H 0.22579 0.36157 1.0035 0.0
H788 H 0.27699 0.29418 0.9896 0.0
H789 H 0.27981 0.33989 0.08976 0.0
H790 H 0.26335 0.35718 0.14282 0.0
H791 H 0.25643 0.28974 0.18752 0.0
H792 H 0.27243 0.272 0.13447 0.0
H793 H 0.40708 0.24882 1.02734 0.0
H794 H 0.37077 0.27735 1.02733 0.0
H795 H 0.3197 0.22722 0.07434 0.0
H796 H 0.35561 0.19869 0.07345 0.0
H797 H 0.3178 0.27529 0.10186 0.0
H798 H 0.31304 0.23088 0.99635 0.0
H799 H 0.33182 0.21599 0.94298 0.0
H800 H 0.34602 0.28533 0.9088 0.0
H801 H 0.32769 0.30062 0.96227 0.0
C802 C 0.20522 0.32124 0.06085 0.0
C803 C 0.20434 0.34134 0.04074 0.0
C804 C 0.22755 0.30696 0.06078 0.0
C805 C 0.24966 0.3127 0.04109 0.0
C806 C 0.24823 0.33205 1.01953 0.0
C807 C 0.22577 0.3462 1.01928 0.0
C808 C 0.27454 0.29901 0.04393 0.0
C809 C 0.28606 0.29036 1.01415 0.0
C810 C 0.28657 0.29402 0.07592 0.0
C811 C 0.27709 0.3046 0.108 0.0
C812 C 0.2746 0.32873 0.11081 0.0
C813 C 0.26537 0.33862 0.14089 0.0
C814 C 0.2588 0.32456 0.1685 0.0
C815 C 0.2615 0.3006 0.16609 0.0
C816 C 0.27066 0.29062 0.13602 0.0
C817 C 0.38821 0.24418 0.03821 0.0
C818 C 0.38396 0.22169 0.05037 0.0
C819 C 0.36754 0.26035 0.03807 0.0
C820 C 0.34258 0.2543 0.05074 0.0
C821 C 0.33881 0.23221 0.06452 0.0
C822 C 0.35923 0.21596 0.06394 0.0
C823 C 0.31976 0.27027 0.04769 0.0
C824 C 0.30871 0.27934 0.0774 0.0
C825 C 0.30851 0.27606 1.01565 0.0
C826 C 0.31931 0.26687 0.98345 0.0
C827 C 0.32041 0.24294 0.97759 0.0
C828 C 0.33092 0.23443 0.9473 0.0
C829 C 0.34019 0.2497 0.92256 0.0
C830 C 0.33889 0.27352 0.92802 0.0
C831 C 0.32843 0.28211 0.9583 0.0
H832 H 0.34832 0.24308 0.89912 0.0
H833 H 0.25167 0.33225 0.19178 0.0
H834 H 0.79273 0.38424 0.50654 0.0
H835 H 0.76314 0.35096 0.50908 0.0
H836 H 0.71672 0.38538 0.58548 0.0
H837 H 0.74707 0.4182 0.58422 0.0
H838 H 0.71939 0.34303 0.60178 0.0
H839 H 0.69738 0.38137 0.49768 0.0
H840 H 0.70516 0.39932 0.44166 0.0
H841 H 0.73405 0.33473 0.40329 0.0
H842 H 0.72678 0.31646 0.45924 0.0
H843 H 0.60839 0.26629 0.57767 0.0
H844 H 0.63484 0.30193 0.57488 0.0
H845 H 0.69683 0.26474 0.52389 0.0
H846 H 0.67074 0.2292 0.52719 0.0
H847 H 0.68312 0.30976 0.4947 0.0
H848 H 0.70566 0.27292 0.60251 0.0
H849 H 0.69487 0.25619 0.65847 0.0
H850 H 0.6605 0.32064 0.68926 0.0
H851 H 0.67076 0.33764 0.63324 0.0
C852 C 0.7763 0.38465 0.52402 0.0
C853 C 0.77221 0.40389 0.54508 0.0
C854 C 0.75922 0.36567 0.52527 0.0
C855 C 0.73719 0.36578 0.54687 0.0
C856 C 0.73345 0.38481 0.56848 0.0
C857 C 0.75084 0.4036 0.56773 0.0
C858 C 0.71814 0.34608 0.54699 0.0
C859 C 0.71119 0.33607 0.57831 0.0
C860 C 0.70739 0.3367 0.51647 0.0
C861 C 0.71175 0.3476 0.48275 0.0
C862 C 0.70556 0.37103 0.47736 0.0
C863 C 0.70986 0.38126 0.44562 0.0
C864 C 0.72015 0.36818 0.41896 0.0
C865 C 0.72611 0.34484 0.42398 0.0
C866 C 0.72188 0.33453 0.45569 0.0
C867 C 0.62752 0.26588 0.56555 0.0
C868 C 0.63762 0.24504 0.55279 0.0
C869 C 0.64263 0.28615 0.5641 0.0
C870 C 0.66783 0.28591 0.5493 0.0
C871 C 0.67746 0.26529 0.53542 0.0
C872 C 0.66263 0.24501 0.53746 0.0
C873 C 0.68474 0.30685 0.54928 0.0
C874 C 0.69125 0.31699 0.51803 0.0
C875 C 0.69465 0.31662 0.57982 0.0
C876 C 0.68869 0.30646 0.61356 0.0
C877 C 0.69559 0.28345 0.6211 0.0
C878 C 0.68961 0.27394 0.65285 0.0
C879 C 0.67693 0.28732 0.67737 0.0
C880 C 0.67028 0.31028 0.67022 0.0
C881 C 0.67618 0.31986 0.63849 0.0
H882 H 0.67232 0.27992 0.70194 0.0
H883 H 0.72346 0.37613 0.3944 0.0
H884 H 0.79306 0.64432 0.0907 0.0
H885 H 0.74848 0.65941 0.09609 0.0
H886 H 0.7165 0.59539 0.05776 0.0
H887 H 0.76189 0.5798 0.05264 0.0
H888 H 0.69647 0.63715 1.02485 0.0
H889 H 0.70293 0.60574 0.13552 0.0
H890 H 0.72413 0.59575 0.19045 0.0
H891 H 0.73207 0.66773 0.2145 0.0
H892 H 0.71129 0.6782 0.15949 0.0
H893 H 0.58322 0.71215 0.05034 0.0
H894 H 0.60922 0.6762 0.05558 0.0
H895 H 0.6744 0.71491 0.09836 0.0
H896 H 0.64869 0.75046 0.09309 0.0
H897 H 0.66624 0.67337 0.1321 0.0
H898 H 0.67263 0.70265 1.01503 0.0
H899 H 0.65359 0.71341 0.95908 0.0
H900 H 0.62207 0.645 0.94742 0.0
H901 H 0.64069 0.63395 1.00356 0.0
C902 C 0.77661 0.63328 0.08364 0.0
C903 C 0.78097 0.6109 0.07112 0.0
C904 C 0.75108 0.64191 0.08695 0.0
C905 C 0.72914 0.62849 0.07759 0.0
C906 C 0.73321 0.60596 0.06531 0.0
C907 C 0.75904 0.59707 0.06252 0.0
C908 C 0.70248 0.63922 0.07915 0.0
C909 C 0.68924 0.6444 0.04846 0.0
C910 C 0.6932 0.64886 0.1099 0.0
C911 C 0.70553 0.64275 0.14328 0.0
C912 C 0.70931 0.61946 0.15243 0.0
C913 C 0.72125 0.61371 0.1836 0.0
C914 C 0.72944 0.6311 0.20595 0.0
C915 C 0.72567 0.65428 0.19718 0.0
C916 C 0.71375 0.66013 0.16602 0.0
C917 C 0.60294 0.71279 0.06133 0.0
C918 C 0.61408 0.73406 0.07104 0.0
C919 C 0.61779 0.69233 0.06419 0.0
C920 C 0.6438 0.6929 0.07725 0.0
C921 C 0.65438 0.71402 0.08829 0.0
C922 C 0.63976 0.73436 0.08503 0.0
C923 C 0.66112 0.67212 0.07765 0.0
C924 C 0.67267 0.66524 0.10873 0.0
C925 C 0.66882 0.66093 0.04729 0.0
C926 C 0.6577 0.66758 1.01362 0.0
C927 C 0.66144 0.68997 1.00065 0.0
C928 C 0.65077 0.69611 0.96889 0.0
C929 C 0.63654 0.67992 0.94976 0.0
C930 C 0.63303 0.65754 0.96231 0.0
C931 C 0.64363 0.65133 0.99408 0.0
H932 H 0.6283 0.6847 0.92517 0.0
H933 H 0.7387 0.62661 0.23006 0.0
H934 H 0.39424 0.73858 0.58374 0.0
H935 H 0.36019 0.70845 0.58366 0.0
H936 H 0.30224 0.7583 0.54885 0.0
H937 H 0.33603 0.78844 0.55019 0.0
H938 H 0.28163 0.73455 0.59647 0.0
H939 H 0.32988 0.71459 0.49611 0.0
H940 H 0.36926 0.70473 0.46252 0.0
H941 H 0.38262 0.64468 0.52477 0.0
H942 H 0.34349 0.65435 0.55903 0.0
H943 H 0.18253 0.65496 0.53777 0.0
H944 H 0.21686 0.6846 0.54286 0.0
H945 H 0.26762 0.63628 0.59596 0.0
H946 H 0.23342 0.60663 0.5913 0.0
H947 H 0.29211 0.65827 0.54094 0.0
H948 H 0.24151 0.67857 0.63949 0.0
H949 H 0.20104 0.68883 0.67059 0.0
H950 H 0.19082 0.74901 0.60768 0.0
H951 H 0.23105 0.73894 0.57588 0.0
C952 C 0.37429 0.74294 0.57569 0.0
C953 C 0.36771 0.7658 0.56701 0.0
C954 C 0.35482 0.72574 0.57559 0.0
C955 C 0.32857 0.73099 0.56597 0.0
C956 C 0.32223 0.75378 0.55659 0.0
C957 C 0.34155 0.77099 0.55727 0.0
C958 C 0.30745 0.71307 0.56665 0.0
C959 C 0.28386 0.718 0.58389 0.0
C960 C 0.31042 0.69121 0.55096 0.0
C961 C 0.33392 0.68533 0.53036 0.0
C962 C 0.34133 0.69938 0.5028 0.0
C963 C 0.36359 0.69381 0.48361 0.0
C964 C 0.37847 0.67413 0.49157 0.0
C965 C 0.37109 0.65994 0.51867 0.0
C966 C 0.34887 0.66544 0.53797 0.0
C967 C 0.20082 0.65074 0.55102 0.0
C968 C 0.2052 0.62841 0.56409 0.0
C969 C 0.22043 0.6677 0.55389 0.0
C970 C 0.24481 0.6626 0.56971 0.0
C971 C 0.24897 0.64053 0.58356 0.0
C972 C 0.2293 0.62366 0.58104 0.0
C973 C 0.2664 0.67994 0.57041 0.0
C974 C 0.29002 0.67485 0.55349 0.0
C975 C 0.26333 0.70176 0.58596 0.0
C976 C 0.23916 0.70787 0.60509 0.0
C977 C 0.23051 0.69389 0.63209 0.0
C978 C 0.20764 0.69969 0.64989 0.0
C979 C 0.19333 0.71953 0.64106 0.0
C980 C 0.2019 0.73364 0.61447 0.0
C981 C 0.22475 0.7279 0.59657 0.0
H982 H 0.17563 0.724 0.65487 0.0
H983 H 0.3957 0.66984 0.47668 0.0
loop_
_geom_bond_atom_site_label_1
_geom_bond_atom_site_label_2
_geom_bond_distance
_geom_bond_site_symmetry_2
_ccdc_geom_bond_type
Cu0 N1 1.999 1_554 S
Cu0 O6 1.974 . S
Cu0 N11 1.985 . S
Cu0 O20 1.959 . S
N1 Cu0 1.999 1_556 S
N1 C3 1.263 . S
N1 C5 1.389 . S
N2 C3 1.358 . S
N2 C4 1.400 . S
C3 N1 1.263 . S
C3 N2 1.358 . S
C3 H9 0.930 . S
C4 N2 1.400 . S
C4 C5 1.351 . S
C4 H21 0.930 . S
C5 N1 1.389 . S
C5 C4 1.351 . S
C5 H10 0.930 . S
O6 Cu0 1.974 . S
O6 C16 1.282 . S
C7 O8 1.261 . S
C7 O20 1.251 . S
O8 C7 1.261 . S
H9 C3 0.930 . S
H10 C5 0.930 . S
N11 Cu0 1.985 . S
N11 C13 1.335 . S
N11 C14 1.390 . S
N12 C13 1.345 . S
N12 C15 1.336 . S
C13 N11 1.335 . S
C13 N12 1.345 . S
C13 H18 0.930 . S
C14 N11 1.390 . S
C14 C15 1.346 . S
C14 H19 0.930 . S
C15 N12 1.336 . S
C15 C14 1.346 . S
C15 H22 0.929 . S
C16 O6 1.282 . S
C16 O17 1.216 . S
O17 C16 1.216 . S
H18 C13 0.930 . S
H19 C14 0.930 . S
O20 Cu0 1.959 . S
O20 C7 1.251 . S
H21 C4 0.930 . S
H22 C15 0.929 . S
Cu23 N24 1.999 . S
Cu23 O29 1.974 . S
Cu23 N34 1.985 . S
Cu23 O43 1.959 . S
N24 Cu23 1.999 . S
N24 C26 1.263 . S
N24 C28 1.389 . S
N25 C26 1.358 . S
N25 C27 1.400 . S
C26 N24 1.263 . S
C26 N25 1.358 . S
C26 H32 0.930 . S
C27 N25 1.400 . S
C27 C28 1.351 . S
C27 H44 0.930 . S
C28 N24 1.389 . S
C28 C27 1.351 . S
C28 H33 0.930 . S
O29 Cu23 1.974 . S
O29 C39 1.282 . S
C30 O31 1.261 . S
C30 O43 1.251 . S
O31 C30 1.261 . S
H32 C26 0.930 . S
H33 C28 0.930 . S
N34 Cu23 1.985 . S
N34 C36 1.335 . S
N34 C37 1.390 . S
N35 C36 1.345 . S
N35 C38 1.336 . S
C36 N34 1.335 . S
C36 N35 1.345 . S
C36 H41 0.930 . S
C37 N34 1.390 . S
C37 C38 1.346 . S
C37 H42 0.930 . S
C38 N35 1.336 . S
C38 C37 1.346 . S
C38 H45 0.929 . S
C39 O29 1.282 . S
C39 O40 1.216 . S
O40 C39 1.216 . S
H41 C36 0.930 . S
H42 C37 0.930 . S
O43 Cu23 1.959 . S
O43 C30 1.251 . S
H44 C27 0.930 . S
H45 C38 0.929 . S
Cu46 N47 1.999 1_554 S
Cu46 O52 1.974 . S
Cu46 N57 1.985 . S
Cu46 O66 1.959 . S
N47 Cu46 1.999 1_556 S
N47 C49 1.263 . S
N47 C51 1.389 . S
N48 C49 1.358 . S
N48 C50 1.400 . S
C49 N47 1.263 . S
C49 N48 1.358 . S
C49 H55 0.930 . S
C50 N48 1.400 . S
C50 C51 1.351 . S
C50 H67 0.930 . S
C51 N47 1.389 . S
C51 C50 1.351 . S
C51 H56 0.930 . S
O52 Cu46 1.974 . S
O52 C62 1.282 . S
C53 O54 1.261 . S
C53 O66 1.251 . S
O54 C53 1.261 . S
H55 C49 0.930 . S
H56 C51 0.930 . S
N57 Cu46 1.985 . S
N57 C59 1.335 . S
N57 C60 1.390 . S
N58 C59 1.345 . S
N58 C61 1.336 . S
C59 N57 1.335 . S
C59 N58 1.345 . S
C59 H64 0.930 . S
C60 N57 1.390 . S
C60 C61 1.346 . S
C60 H65 0.930 . S
C61 N58 1.336 . S
C61 C60 1.346 . S
C61 H68 0.929 . S
C62 O52 1.282 . S
C62 O63 1.216 . S
O63 C62 1.216 . S
H64 C59 0.930 . S
H65 C60 0.930 . S
O66 Cu46 1.959 . S
O66 C53 1.251 . S
H67 C50 0.930 . S
H68 C61 0.929 . S
Cu69 N70 1.999 . S
Cu69 O75 1.974 . S
Cu69 N80 1.985 . S
Cu69 O89 1.959 . S
N70 Cu69 1.999 . S
N70 C72 1.263 . S
N70 C74 1.389 . S
N71 C72 1.358 . S
N71 C73 1.400 . S
C72 N70 1.263 . S
C72 N71 1.358 . S
C72 H78 0.930 . S
C73 N71 1.400 . S
C73 C74 1.351 . S
C73 H90 0.930 . S
C74 N70 1.389 . S
C74 C73 1.351 . S
C74 H79 0.930 . S
O75 Cu69 1.974 . S
O75 C85 1.282 . S
C76 O77 1.261 . S
C76 O89 1.251 . S
O77 C76 1.261 . S
H78 C72 0.930 . S
H79 C74 0.930 . S
N80 Cu69 1.985 . S
N80 C82 1.335 . S
N80 C83 1.390 . S
N81 C82 1.345 . S
N81 C84 1.336 . S
C82 N80 1.335 . S
C82 N81 1.345 . S
C82 H87 0.930 . S
C83 N80 1.390 . S
C83 C84 1.346 . S
C83 H88 0.930 . S
C84 N81 1.336 . S
C84 C83 1.346 . S
C84 H91 0.929 . S
C85 O75 1.282 . S
C85 O86 1.216 . S
O86 C85 1.216 . S
H87 C82 0.930 . S
H88 C83 0.930 . S
O89 Cu69 1.959 . S
O89 C76 1.251 . S
H90 C73 0.930 . S
H91 C84 0.929 . S
Cu92 N93 1.999 . S
Cu92 O98 1.974 . S
Cu92 N103 1.985 . S
Cu92 O112 1.959 . S
N93 Cu92 1.999 . S
N93 C95 1.263 . S
N93 C97 1.389 . S
N94 C95 1.358 . S
N94 C96 1.400 . S
C95 N93 1.263 . S
C95 N94 1.358 . S
C95 H101 0.930 . S
C96 N94 1.400 . S
C96 C97 1.351 . S
C96 H113 0.930 . S
C97 N93 1.389 . S
C97 C96 1.351 . S
C97 H102 0.930 . S
O98 Cu92 1.974 . S
O98 C108 1.282 . S
C99 O100 1.261 . S
C99 O112 1.251 . S
O100 C99 1.261 . S
H101 C95 0.930 . S
H102 C97 0.930 . S
N103 Cu92 1.985 . S
N103 C105 1.335 . S
N103 C106 1.390 . S
N104 C105 1.345 . S
N104 C107 1.336 . S
C105 N103 1.335 . S
C105 N104 1.345 . S
C105 H110 0.930 . S
C106 N103 1.390 . S
C106 C107 1.346 . S
C106 H111 0.930 . S
C107 N104 1.336 . S
C107 C106 1.346 . S
C107 H114 0.929 . S
C108 O98 1.282 . S
C108 O109 1.216 . S
O109 C108 1.216 . S
H110 C105 0.930 . S
H111 C106 0.930 . S
O112 Cu92 1.959 . S
O112 C99 1.251 . S
H113 C96 0.930 . S
H114 C107 0.929 . S
Cu115 N116 1.999 . S
Cu115 O121 1.974 1_554 S
Cu115 N126 1.985 . S
Cu115 O135 1.959 . S
N116 Cu115 1.999 . S
N116 C118 1.263 1_554 S
N116 C120 1.389 . S
N117 C118 1.358 1_554 S
N117 C119 1.400 . S
C118 N116 1.263 1_556 S
C118 N117 1.358 1_556 S
C118 H124 0.930 . S
C119 N117 1.400 . S
C119 C120 1.351 . S
C119 H136 0.930 . S
C120 N116 1.389 . S
C120 C119 1.351 . S
C120 H125 0.930 . S
O121 Cu115 1.974 1_556 S
O121 C131 1.282 . S
C122 O123 1.261 . S
C122 O135 1.251 . S
O123 C122 1.261 . S
H124 C118 0.930 . S
H125 C120 0.930 . S
N126 Cu115 1.985 . S
N126 C128 1.335 . S
N126 C129 1.390 1_554 S
N127 C128 1.345 . S
N127 C130 1.336 1_554 S
C128 N126 1.335 . S
C128 N127 1.345 . S
C128 H133 0.930 . S
C129 N126 1.390 1_556 S
C129 C130 1.346 . S
C129 H134 0.930 . S
C130 N127 1.336 1_556 S
C130 C129 1.346 . S
C130 H137 0.929 . S
C131 O121 1.282 . S
C131 O132 1.216 . S
O132 C131 1.216 . S
H133 C128 0.930 . S
H134 C129 0.930 . S
O135 Cu115 1.959 . S
O135 C122 1.251 . S
H136 C119 0.930 . S
H137 C130 0.929 . S
Cu138 N139 1.999 . S
Cu138 O144 1.974 . S
Cu138 N149 1.985 . S
Cu138 O158 1.959 . S
N139 Cu138 1.999 . S
N139 C141 1.263 . S
N139 C143 1.389 . S
N140 C141 1.358 . S
N140 C142 1.400 . S
C141 N139 1.263 . S
C141 N140 1.358 . S
C141 H147 0.930 . S
C142 N140 1.400 . S
C142 C143 1.351 . S
C142 H159 0.930 . S
C143 N139 1.389 . S
C143 C142 1.351 . S
C143 H148 0.930 . S
O144 Cu138 1.974 . S
O144 C154 1.282 . S
C145 O146 1.261 . S
C145 O158 1.251 . S
O146 C145 1.261 . S
H147 C141 0.930 . S
H148 C143 0.930 . S
N149 Cu138 1.985 . S
N149 C151 1.335 . S
N149 C152 1.390 . S
N150 C151 1.345 . S
N150 C153 1.336 . S
C151 N149 1.335 . S
C151 N150 1.345 . S
C151 H156 0.930 . S
C152 N149 1.390 . S
C152 C153 1.346 . S
C152 H157 0.930 . S
C153 N150 1.336 . S
C153 C152 1.346 . S
C153 H160 0.929 . S
C154 O144 1.282 . S
C154 O155 1.216 . S
O155 C154 1.216 . S
H156 C151 0.930 . S
H157 C152 0.930 . S
O158 Cu138 1.959 . S
O158 C145 1.251 . S
H159 C142 0.930 . S
H160 C153 0.929 . S
Cu161 N162 1.999 . S
Cu161 O167 1.974 1_554 S
Cu161 N172 1.985 . S
Cu161 O181 1.959 . S
N162 Cu161 1.999 . S
N162 C164 1.263 1_554 S
N162 C166 1.389 . S
N163 C164 1.358 1_554 S
N163 C165 1.400 . S
C164 N162 1.263 1_556 S
C164 N163 1.358 1_556 S
C164 H170 0.930 . S
C165 N163 1.400 . S
C165 C166 1.351 . S
C165 H182 0.930 . S
C166 N162 1.389 . S
C166 C165 1.351 . S
C166 H171 0.930 . S
O167 Cu161 1.974 1_556 S
O167 C177 1.282 . S
C168 O169 1.261 . S
C168 O181 1.251 . S
O169 C168 1.261 . S
H170 C164 0.930 . S
H171 C166 0.930 . S
N172 Cu161 1.985 . S
N172 C174 1.335 . S
N172 C175 1.390 1_554 S
N173 C174 1.345 . S
N173 C176 1.336 1_554 S
C174 N172 1.335 . S
C174 N173 1.345 . S
C174 H179 0.930 . S
C175 N172 1.390 1_556 S
C175 C176 1.346 . S
C175 H180 0.930 . S
C176 N173 1.336 1_556 S
C176 C175 1.346 . S
C176 H183 0.929 . S
C177 O167 1.282 . S
C177 O178 1.216 . S
O178 C177 1.216 . S
H179 C174 0.930 . S
H180 C175 0.930 . S
O181 Cu161 1.959 . S
O181 C168 1.251 . S
H182 C165 0.930 . S
H183 C176 0.929 . S
H184 C202 0.951 . S
H185 C204 0.951 . S
H186 C206 0.950 . S
H187 C207 0.950 . S
H188 C209 0.950 . S
H189 C212 0.950 . S
H190 C213 0.950 . S
H191 C215 0.950 . S
H192 C216 0.950 . S
H193 C217 0.951 . S
H194 C219 0.951 . S
H195 C221 0.950 . S
H196 C222 0.950 . S
H197 C224 0.950 . S
H198 C227 0.950 . S
H199 C228 0.950 . S
H200 C230 0.950 . S
H201 C231 0.950 . S
C202 H184 0.951 . S
C202 C203 1.366 . S
C202 C204 1.388 . S
C203 C202 1.366 . S
C203 C207 1.385 . S
C204 H185 0.951 . S
C204 C202 1.388 . S
C204 C205 1.366 . S
C205 C204 1.366 . S
C205 C206 1.414 . S
C205 C208 1.499 . S
C206 H186 0.950 . S
C206 C205 1.414 . S
C206 C207 1.374 . S
C207 H187 0.950 . S
C207 C203 1.385 . S
C207 C206 1.374 . S
C208 C205 1.499 . S
C208 C209 1.373 . S
C208 C210 1.389 . S
C209 H188 0.950 . S
C209 C208 1.373 . S
C209 C225 1.377 . S
C210 C208 1.389 . S
C210 C211 1.524 . S
C210 C224 1.377 . S
C211 C210 1.524 . S
C211 C212 1.397 . S
C211 C216 1.363 . S
C212 H189 0.950 . S
C212 C211 1.397 . S
C212 C213 1.334 . S
C213 H190 0.950 . S
C213 C212 1.334 . S
C213 C214 1.287 . S
C214 C213 1.287 . S
C214 C215 1.524 . S
C214 H233 0.913 . S
C215 H191 0.950 . S
C215 C214 1.524 . S
C215 C216 1.415 . S
C216 H192 0.950 . S
C216 C211 1.363 . S
C216 C215 1.415 . S
C217 H193 0.951 . S
C217 C218 1.366 . S
C217 C219 1.388 . S
C218 C217 1.366 . S
C218 C222 1.385 . S
C219 H194 0.951 . S
C219 C217 1.388 . S
C219 C220 1.366 . S
C220 C219 1.366 . S
C220 C221 1.414 . S
C220 C223 1.499 . S
C221 H195 0.950 . S
C221 C220 1.414 . S
C221 C222 1.374 . S
C222 H196 0.950 . S
C222 C218 1.385 . S
C222 C221 1.374 . S
C223 C220 1.499 . S
C223 C224 1.373 . S
C223 C225 1.389 . S
C224 H197 0.950 . S
C224 C210 1.377 . S
C224 C223 1.373 . S
C225 C209 1.377 . S
C225 C223 1.389 . S
C225 C226 1.524 . S
C226 C225 1.524 . S
C226 C227 1.397 . S
C226 C231 1.363 . S
C227 H198 0.950 . S
C227 C226 1.397 . S
C227 C228 1.334 . S
C228 H199 0.950 . S
C228 C227 1.334 . S
C228 C229 1.287 . S
C229 C228 1.287 . S
C229 C230 1.524 . S
C229 H232 0.999 . S
C230 H200 0.950 . S
C230 C229 1.524 . S
C230 C231 1.415 . S
C231 H201 0.950 . S
C231 C226 1.363 . S
C231 C230 1.415 . S
H232 C229 0.999 . S
H233 C214 0.913 . S
H234 C252 0.951 . S
H235 C254 0.951 . S
H236 C256 0.950 . S
H237 C257 0.950 . S
H238 C259 0.950 . S
H239 C262 0.950 . S
H240 C263 0.950 . S
H241 C265 0.950 . S
H242 C266 0.950 . S
H243 C267 0.951 . S
H244 C269 0.951 . S
H245 C271 0.950 . S
H246 C272 0.950 . S
H247 C274 0.950 . S
H248 C277 0.950 . S
H249 C278 0.950 . S
H250 C280 0.950 . S
H251 C281 0.950 . S
C252 H234 0.951 . S
C252 C253 1.366 . S
C252 C254 1.388 . S
C253 C252 1.366 . S
C253 C257 1.385 . S
C254 H235 0.951 . S
C254 C252 1.388 . S
C254 C255 1.366 . S
C255 C254 1.366 . S
C255 C256 1.414 . S
C255 C258 1.499 . S
C256 H236 0.950 . S
C256 C255 1.414 . S
C256 C257 1.374 . S
C257 H237 0.950 . S
C257 C253 1.385 . S
C257 C256 1.374 . S
C258 C255 1.499 . S
C258 C259 1.373 . S
C258 C260 1.389 . S
C259 H238 0.950 . S
C259 C258 1.373 . S
C259 C275 1.377 . S
C260 C258 1.389 . S
C260 C261 1.524 . S
C260 C274 1.377 . S
C261 C260 1.524 . S
C261 C262 1.397 . S
C261 C266 1.363 . S
C262 H239 0.950 . S
C262 C261 1.397 . S
C262 C263 1.334 . S
C263 H240 0.950 . S
C263 C262 1.334 . S
C263 C264 1.287 . S
C264 C263 1.287 . S
C264 C265 1.524 . S
C264 H283 0.913 . S
C265 H241 0.950 . S
C265 C264 1.524 . S
C265 C266 1.415 . S
C266 H242 0.950 . S
C266 C261 1.363 . S
C266 C265 1.415 . S
C267 H243 0.951 . S
C267 C268 1.366 . S
C267 C269 1.388 . S
C268 C267 1.366 . S
C268 C272 1.385 . S
C269 H244 0.951 . S
C269 C267 1.388 . S
C269 C270 1.366 . S
C270 C269 1.366 . S
C270 C271 1.414 . S
C270 C273 1.499 . S
C271 H245 0.950 . S
C271 C270 1.414 . S
C271 C272 1.374 . S
C272 H246 0.950 . S
C272 C268 1.385 . S
C272 C271 1.374 . S
C273 C270 1.499 . S
C273 C274 1.373 . S
C273 C275 1.389 . S
C274 H247 0.950 . S
C274 C260 1.377 . S
C274 C273 1.373 . S
C275 C259 1.377 . S
C275 C273 1.389 . S
C275 C276 1.524 . S
C276 C275 1.524 . S
C276 C277 1.397 . S
C276 C281 1.363 . S
C277 H248 0.950 . S
C277 C276 1.397 . S
C277 C278 1.334 . S
C278 H249 0.950 . S
C278 C277 1.334 . S
C278 C279 1.287 . S
C279 C278 1.287 . S
C279 C280 1.524 . S
C279 H282 0.999 . S
C280 H250 0.950 . S
C280 C279 1.524 . S
C280 C281 1.415 . S
C281 H251 0.950 . S
C281 C276 1.363 . S
C281 C280 1.415 . S
H282 C279 0.999 . S
H283 C264 0.913 . S
H284 C302 0.951 . S
H285 C304 0.951 . S
H286 C306 0.950 . S
H287 C307 0.950 . S
H288 C309 0.950 . S
H289 C312 0.950 . S
H290 C313 0.950 . S
H291 C315 0.950 . S
H292 C316 0.950 . S
H293 C317 0.951 . S
H294 C319 0.951 . S
H295 C321 0.950 . S
H296 C322 0.950 . S
H297 C324 0.950 . S
H298 C327 0.950 . S
H299 C328 0.950 . S
H300 C330 0.950 . S
H301 C331 0.950 . S
C302 H284 0.951 . S
C302 C303 1.366 . S
C302 C304 1.388 . S
C303 C302 1.366 . S
C303 C307 1.385 . S
C304 H285 0.951 . S
C304 C302 1.388 . S
C304 C305 1.366 . S
C305 C304 1.366 . S
C305 C306 1.414 . S
C305 C308 1.499 . S
C306 H286 0.950 . S
C306 C305 1.414 . S
C306 C307 1.374 . S
C307 H287 0.950 . S
C307 C303 1.385 . S
C307 C306 1.374 . S
C308 C305 1.499 . S
C308 C309 1.373 . S
C308 C310 1.389 . S
C309 H288 0.950 . S
C309 C308 1.373 . S
C309 C325 1.377 . S
C310 C308 1.389 . S
C310 C311 1.524 . S
C310 C324 1.377 . S
C311 C310 1.524 . S
C311 C312 1.397 . S
C311 C316 1.363 . S
C312 H289 0.950 . S
C312 C311 1.397 . S
C312 C313 1.334 . S
C313 H290 0.950 . S
C313 C312 1.334 . S
C313 C314 1.287 . S
C314 C313 1.287 . S
C314 C315 1.524 . S
C314 H333 0.913 . S
C315 H291 0.950 . S
C315 C314 1.524 . S
C315 C316 1.415 . S
C316 H292 0.950 . S
C316 C311 1.363 . S
C316 C315 1.415 . S
C317 H293 0.951 . S
C317 C318 1.366 . S
C317 C319 1.388 . S
C318 C317 1.366 . S
C318 C322 1.385 . S
C319 H294 0.951 . S
C319 C317 1.388 . S
C319 C320 1.366 . S
C320 C319 1.366 . S
C320 C321 1.414 . S
C320 C323 1.499 . S
C321 H295 0.950 . S
C321 C320 1.414 . S
C321 C322 1.374 . S
C322 H296 0.950 . S
C322 C318 1.385 . S
C322 C321 1.374 . S
C323 C320 1.499 . S
C323 C324 1.373 . S
C323 C325 1.389 . S
C324 H297 0.950 . S
C324 C310 1.377 . S
C324 C323 1.373 . S
C325 C309 1.377 . S
C325 C323 1.389 . S
C325 C326 1.524 . S
C326 C325 1.524 . S
C326 C327 1.397 . S
C326 C331 1.363 . S
C327 H298 0.950 . S
C327 C326 1.397 . S
C327 C328 1.334 . S
C328 H299 0.950 . S
C328 C327 1.334 . S
C328 C329 1.287 . S
C329 C328 1.287 . S
C329 C330 1.524 . S
C329 H332 0.999 . S
C330 H300 0.950 . S
C330 C329 1.524 . S
C330 C331 1.415 . S
C331 H301 0.950 . S
C331 C326 1.363 . S
C331 C330 1.415 . S
H332 C329 0.999 . S
H333 C314 0.913 . S
H334 C352 0.951 . S
H335 C354 0.951 . S
H336 C356 0.950 . S
H337 C357 0.950 . S
H338 C359 0.950 . S
H339 C362 0.950 . S
H340 C363 0.950 . S
H341 C365 0.950 . S
H342 C366 0.950 . S
H343 C367 0.951 . S
H344 C369 0.951 . S
H345 C371 0.950 . S
H346 C372 0.950 . S
H347 C374 0.950 . S
H348 C377 0.950 . S
H349 C378 0.950 . S
H350 C380 0.950 . S
H351 C381 0.950 . S
C352 H334 0.951 . S
C352 C353 1.366 . S
C352 C354 1.388 . S
C353 C352 1.366 . S
C353 C357 1.385 . S
C354 H335 0.951 . S
C354 C352 1.388 . S
C354 C355 1.366 . S
C355 C354 1.366 . S
C355 C356 1.414 . S
C355 C358 1.499 . S
C356 H336 0.950 . S
C356 C355 1.414 . S
C356 C357 1.374 . S
C357 H337 0.950 . S
C357 C353 1.385 . S
C357 C356 1.374 . S
C358 C355 1.499 . S
C358 C359 1.373 . S
C358 C360 1.389 . S
C359 H338 0.950 . S
C359 C358 1.373 . S
C359 C375 1.377 . S
C360 C358 1.389 . S
C360 C361 1.524 . S
C360 C374 1.377 . S
C361 C360 1.524 . S
C361 C362 1.397 . S
C361 C366 1.363 . S
C362 H339 0.950 . S
C362 C361 1.397 . S
C362 C363 1.334 . S
C363 H340 0.950 . S
C363 C362 1.334 . S
C363 C364 1.287 . S
C364 C363 1.287 . S
C364 C365 1.524 . S
C364 H383 0.913 . S
C365 H341 0.950 . S
C365 C364 1.524 . S
C365 C366 1.415 . S
C366 H342 0.950 . S
C366 C361 1.363 . S
C366 C365 1.415 . S
C367 H343 0.951 . S
C367 C368 1.366 . S
C367 C369 1.388 . S
C368 C367 1.366 . S
C368 C372 1.385 . S
C369 H344 0.951 . S
C369 C367 1.388 . S
C369 C370 1.366 . S
C370 C369 1.366 . S
C370 C371 1.414 . S
C370 C373 1.499 . S
C371 H345 0.950 . S
C371 C370 1.414 . S
C371 C372 1.374 . S
C372 H346 0.950 . S
C372 C368 1.385 . S
C372 C371 1.374 . S
C373 C370 1.499 . S
C373 C374 1.373 . S
C373 C375 1.389 . S
C374 H347 0.950 . S
C374 C360 1.377 . S
C374 C373 1.373 . S
C375 C359 1.377 . S
C375 C373 1.389 . S
C375 C376 1.524 . S
C376 C375 1.524 . S
C376 C377 1.397 . S
C376 C381 1.363 . S
C377 H348 0.950 . S
C377 C376 1.397 . S
C377 C378 1.334 . S
C378 H349 0.950 . S
C378 C377 1.334 . S
C378 C379 1.287 . S
C379 C378 1.287 . S
C379 C380 1.524 . S
C379 H382 0.999 . S
C380 H350 0.950 . S
C380 C379 1.524 . S
C380 C381 1.415 . S
C381 H351 0.950 . S
C381 C376 1.363 . S
C381 C380 1.415 . S
H382 C379 0.999 . S
H383 C364 0.913 . S
H384 C402 0.951 . S
H385 C404 0.951 . S
H386 C406 0.950 . S
H387 C407 0.950 . S
H388 C409 0.950 . S
H389 C412 0.950 . S
H390 C413 0.950 . S
H391 C415 0.950 . S
H392 C416 0.950 . S
H393 C417 0.951 . S
H394 C419 0.951 . S
H395 C421 0.950 . S
H396 C422 0.950 . S
H397 C424 0.950 . S
H398 C427 0.950 . S
H399 C428 0.950 . S
H400 C430 0.950 . S
H401 C431 0.950 . S
C402 H384 0.951 . S
C402 C403 1.366 . S
C402 C404 1.388 . S
C403 C402 1.366 . S
C403 C407 1.385 . S
C404 H385 0.951 . S
C404 C402 1.388 . S
C404 C405 1.366 . S
C405 C404 1.366 . S
C405 C406 1.414 . S
C405 C408 1.499 . S
C406 H386 0.950 . S
C406 C405 1.414 . S
C406 C407 1.374 . S
C407 H387 0.950 . S
C407 C403 1.385 . S
C407 C406 1.374 . S
C408 C405 1.499 . S
C408 C409 1.373 . S
C408 C410 1.389 . S
C409 H388 0.950 . S
C409 C408 1.373 . S
C409 C425 1.377 . S
C410 C408 1.389 . S
C410 C411 1.524 . S
C410 C424 1.377 . S
C411 C410 1.524 . S
C411 C412 1.397 . S
C411 C416 1.363 . S
C412 H389 0.950 . S
C412 C411 1.397 . S
C412 C413 1.334 . S
C413 H390 0.950 . S
C413 C412 1.334 . S
C413 C414 1.287 . S
C414 C413 1.287 . S
C414 C415 1.524 . S
C414 H433 0.913 . S
C415 H391 0.950 . S
C415 C414 1.524 . S
C415 C416 1.415 . S
C416 H392 0.950 . S
C416 C411 1.363 . S
C416 C415 1.415 . S
C417 H393 0.951 . S
C417 C418 1.366 . S
C417 C419 1.388 . S
C418 C417 1.366 . S
C418 C422 1.385 . S
C419 H394 0.951 . S
C419 C417 1.388 . S
C419 C420 1.366 . S
C420 C419 1.366 . S
C420 C421 1.414 . S
C420 C423 1.499 . S
C421 H395 0.950 . S
C421 C420 1.414 . S
C421 C422 1.374 . S
C422 H396 0.950 . S
C422 C418 1.385 . S
C422 C421 1.374 . S
C423 C420 1.499 . S
C423 C424 1.373 . S
C423 C425 1.389 . S
C424 H397 0.950 . S
C424 C410 1.377 . S
C424 C423 1.373 . S
C425 C409 1.377 . S
C425 C423 1.389 . S
C425 C426 1.524 . S
C426 C425 1.524 . S
C426 C427 1.397 . S
C426 C431 1.363 . S
C427 H398 0.950 . S
C427 C426 1.397 . S
C427 C428 1.334 . S
C428 H399 0.950 . S
C428 C427 1.334 . S
C428 C429 1.287 . S
C429 C428 1.287 . S
C429 C430 1.524 . S
C429 H432 0.999 . S
C430 H400 0.950 . S
C430 C429 1.524 . S
C430 C431 1.415 . S
C431 H401 0.950 . S
C431 C426 1.363 . S
C431 C430 1.415 . S
H432 C429 0.999 . S
H433 C414 0.913 . S
H434 C452 0.951 . S
H435 C454 0.951 . S
H436 C456 0.950 . S
H437 C457 0.950 . S
H438 C459 0.950 . S
H439 C462 0.950 . S
H440 C463 0.950 . S
H441 C465 0.950 . S
H442 C466 0.950 . S
H443 C467 0.951 . S
H444 C469 0.951 . S
H445 C471 0.950 . S
H446 C472 0.950 . S
H447 C474 0.950 . S
H448 C477 0.950 . S
H449 C478 0.950 . S
H450 C480 0.950 . S
H451 C481 0.950 . S
C452 H434 0.951 . S
C452 C453 1.366 . S
C452 C454 1.388 . S
C453 C452 1.366 . S
C453 C457 1.385 . S
C454 H435 0.951 . S
C454 C452 1.388 . S
C454 C455 1.366 . S
C455 C454 1.366 . S
C455 C456 1.414 . S
C455 C458 1.499 . S
C456 H436 0.950 . S
C456 C455 1.414 . S
C456 C457 1.374 . S
C457 H437 0.950 . S
C457 C453 1.385 . S
C457 C456 1.374 . S
C458 C455 1.499 . S
C458 C459 1.373 . S
C458 C460 1.389 . S
C459 H438 0.950 . S
C459 C458 1.373 . S
C459 C475 1.377 . S
C460 C458 1.389 . S
C460 C461 1.524 . S
C460 C474 1.377 . S
C461 C460 1.524 . S
C461 C462 1.397 . S
C461 C466 1.363 . S
C462 H439 0.950 . S
C462 C461 1.397 . S
C462 C463 1.334 . S
C463 H440 0.950 . S
C463 C462 1.334 . S
C463 C464 1.287 . S
C464 C463 1.287 . S
C464 C465 1.524 . S
C464 H483 0.913 . S
C465 H441 0.950 . S
C465 C464 1.524 . S
C465 C466 1.415 . S
C466 H442 0.950 . S
C466 C461 1.363 . S
C466 C465 1.415 . S
C467 H443 0.951 . S
C467 C468 1.366 . S
C467 C469 1.388 . S
C468 C467 1.366 . S
C468 C472 1.385 . S
C469 H444 0.951 . S
C469 C467 1.388 . S
C469 C470 1.366 . S
C470 C469 1.366 . S
C470 C471 1.414 . S
C470 C473 1.499 . S
C471 H445 0.950 . S
C471 C470 1.414 . S
C471 C472 1.374 . S
C472 H446 0.950 . S
C472 C468 1.385 . S
C472 C471 1.374 . S
C473 C470 1.499 . S
C473 C474 1.373 . S
C473 C475 1.389 . S
C474 H447 0.950 . S
C474 C460 1.377 . S
C474 C473 1.373 . S
C475 C459 1.377 . S
C475 C473 1.389 . S
C475 C476 1.524 . S
C476 C475 1.524 . S
C476 C477 1.397 . S
C476 C481 1.363 . S
C477 H448 0.950 . S
C477 C476 1.397 . S
C477 C478 1.334 . S
C478 H449 0.950 . S
C478 C477 1.334 . S
C478 C479 1.287 . S
C479 C478 1.287 . S
C479 C480 1.524 . S
C479 H482 0.999 . S
C480 H450 0.950 . S
C480 C479 1.524 . S
C480 C481 1.415 . S
C481 H451 0.950 . S
C481 C476 1.363 . S
C481 C480 1.415 . S
H482 C479 0.999 . S
H483 C464 0.913 . S
H484 C502 0.951 . S
H485 C504 0.951 . S
H486 C506 0.950 . S
H487 C507 0.950 . S
H488 C509 0.950 . S
H489 C512 0.950 . S
H490 C513 0.950 . S
H491 C515 0.950 . S
H492 C516 0.950 . S
H493 C517 0.951 . S
H494 C519 0.951 . S
H495 C521 0.950 . S
H496 C522 0.950 . S
H497 C524 0.950 . S
H498 C527 0.950 . S
H499 C528 0.950 . S
H500 C530 0.950 . S
H501 C531 0.950 . S
C502 H484 0.951 . S
C502 C503 1.366 . S
C502 C504 1.388 . S
C503 C502 1.366 . S
C503 C507 1.385 . S
C504 H485 0.951 . S
C504 C502 1.388 . S
C504 C505 1.366 . S
C505 C504 1.366 . S
C505 C506 1.414 . S
C505 C508 1.499 . S
C506 H486 0.950 . S
C506 C505 1.414 . S
C506 C507 1.374 . S
C507 H487 0.950 . S
C507 C503 1.385 . S
C507 C506 1.374 . S
C508 C505 1.499 . S
C508 C509 1.373 . S
C508 C510 1.389 . S
C509 H488 0.950 . S
C509 C508 1.373 . S
C509 C525 1.377 . S
C510 C508 1.389 . S
C510 C511 1.524 . S
C510 C524 1.377 . S
C511 C510 1.524 . S
C511 C512 1.397 . S
C511 C516 1.363 . S
C512 H489 0.950 . S
C512 C511 1.397 . S
C512 C513 1.334 . S
C513 H490 0.950 . S
C513 C512 1.334 . S
C513 C514 1.287 . S
C514 C513 1.287 . S
C514 C515 1.524 . S
C514 H533 0.913 . S
C515 H491 0.950 . S
C515 C514 1.524 . S
C515 C516 1.415 . S
C516 H492 0.950 . S
C516 C511 1.363 . S
C516 C515 1.415 . S
C517 H493 0.951 . S
C517 C518 1.366 . S
C517 C519 1.388 . S
C518 C517 1.366 . S
C518 C522 1.385 . S
C519 H494 0.951 . S
C519 C517 1.388 . S
C519 C520 1.366 . S
C520 C519 1.366 . S
C520 C521 1.414 . S
C520 C523 1.499 . S
C521 H495 0.950 . S
C521 C520 1.414 . S
C521 C522 1.374 . S
C522 H496 0.950 . S
C522 C518 1.385 . S
C522 C521 1.374 . S
C523 C520 1.499 . S
C523 C524 1.373 . S
C523 C525 1.389 . S
C524 H497 0.950 . S
C524 C510 1.377 . S
C524 C523 1.373 . S
C525 C509 1.377 . S
C525 C523 1.389 . S
C525 C526 1.524 . S
C526 C525 1.524 . S
C526 C527 1.397 . S
C526 C531 1.363 . S
C527 H498 0.950 . S
C527 C526 1.397 . S
C527 C528 1.334 . S
C528 H499 0.950 . S
C528 C527 1.334 . S
C528 C529 1.287 . S
C529 C528 1.287 . S
C529 C530 1.524 . S
C529 H532 0.999 . S
C530 H500 0.950 . S
C530 C529 1.524 . S
C530 C531 1.415 . S
C531 H501 0.950 . S
C531 C526 1.363 . S
C531 C530 1.415 . S
H532 C529 0.999 . S
H533 C514 0.913 . S
H534 C552 0.951 . S
H535 C554 0.951 . S
H536 C556 0.950 . S
H537 C557 0.950 . S
H538 C559 0.950 . S
H539 C562 0.950 . S
H540 C563 0.950 . S
H541 C565 0.950 . S
H542 C566 0.950 . S
H543 C567 0.951 . S
H544 C569 0.951 . S
H545 C571 0.950 . S
H546 C572 0.950 . S
H547 C574 0.950 . S
H548 C577 0.950 . S
H549 C578 0.950 . S
H550 C580 0.950 . S
H551 C581 0.950 . S
C552 H534 0.951 . S
C552 C553 1.366 . S
C552 C554 1.388 . S
C553 C552 1.366 . S
C553 C557 1.385 . S
C554 H535 0.951 . S
C554 C552 1.388 . S
C554 C555 1.366 . S
C555 C554 1.366 . S
C555 C556 1.414 . S
C555 C558 1.499 . S
C556 H536 0.950 . S
C556 C555 1.414 . S
C556 C557 1.374 . S
C557 H537 0.950 . S
C557 C553 1.385 . S
C557 C556 1.374 . S
C558 C555 1.499 . S
C558 C559 1.373 . S
C558 C560 1.389 . S
C559 H538 0.950 . S
C559 C558 1.373 . S
C559 C575 1.377 . S
C560 C558 1.389 . S
C560 C561 1.524 . S
C560 C574 1.377 . S
C561 C560 1.524 . S
C561 C562 1.397 . S
C561 C566 1.363 . S
C562 H539 0.950 . S
C562 C561 1.397 . S
C562 C563 1.334 . S
C563 H540 0.950 . S
C563 C562 1.334 . S
C563 C564 1.287 . S
C564 C563 1.287 . S
C564 C565 1.524 . S
C564 H583 0.913 . S
C565 H541 0.950 . S
C565 C564 1.524 . S
C565 C566 1.415 . S
C566 H542 0.950 . S
C566 C561 1.363 . S
C566 C565 1.415 . S
C567 H543 0.951 . S
C567 C568 1.366 . S
C567 C569 1.388 . S
C568 C567 1.366 . S
C568 C572 1.385 . S
C569 H544 0.951 . S
C569 C567 1.388 . S
C569 C570 1.366 . S
C570 C569 1.366 . S
C570 C571 1.414 . S
C570 C573 1.499 . S
C571 H545 0.950 . S
C571 C570 1.414 . S
C571 C572 1.374 . S
C572 H546 0.950 . S
C572 C568 1.385 . S
C572 C571 1.374 . S
C573 C570 1.499 . S
C573 C574 1.373 . S
C573 C575 1.389 . S
C574 H547 0.950 . S
C574 C560 1.377 . S
C574 C573 1.373 . S
C575 C559 1.377 . S
C575 C573 1.389 . S
C575 C576 1.524 . S
C576 C575 1.524 . S
C576 C577 1.397 . S
C576 C581 1.363 . S
C577 H548 0.950 . S
C577 C576 1.397 . S
C577 C578 1.334 . S
C578 H549 0.950 . S
C578 C577 1.334 . S
C578 C579 1.287 . S
C579 C578 1.287 . S
C579 C580 1.524 . S
C579 H582 0.999 . S
C580 H550 0.950 . S
C580 C579 1.524 . S
C580 C581 1.415 . S
C581 H551 0.950 . S
C581 C576 1.363 . S
C581 C580 1.415 . S
H582 C579 0.999 . S
H583 C564 0.913 . S
H584 C602 0.951 . S
H585 C604 0.951 . S
H586 C606 0.950 . S
H587 C607 0.950 . S
H588 C609 0.950 . S
H589 C612 0.950 1_556 S
H590 C613 0.950 1_556 S
H591 C615 0.950 . S
H592 C616 0.950 . S
H593 C617 0.951 . S
H594 C619 0.951 . S
H595 C621 0.950 . S
H596 C622 0.950 . S
H597 C624 0.950 . S
H598 C627 0.950 . S
H599 C628 0.950 . S
H600 C630 0.950 . S
H601 C631 0.950 . S
C602 H584 0.951 . S
C602 C603 1.366 . S
C602 C604 1.388 . S
C603 C602 1.366 . S
C603 C607 1.385 . S
C604 H585 0.951 . S
C604 C602 1.388 . S
C604 C605 1.366 . S
C605 C604 1.366 . S
C605 C606 1.414 . S
C605 C608 1.499 . S
C606 H586 0.950 . S
C606 C605 1.414 . S
C606 C607 1.374 . S
C607 H587 0.950 . S
C607 C603 1.385 . S
C607 C606 1.374 . S
C608 C605 1.499 . S
C608 C609 1.373 . S
C608 C610 1.389 . S
C609 H588 0.950 . S
C609 C608 1.373 . S
C609 C625 1.377 1_655 S
C610 C608 1.389 . S
C610 C611 1.524 . S
C610 C624 1.377 1_655 S
C611 C610 1.524 . S
C611 C612 1.397 . S
C611 C616 1.363 . S
C612 H589 0.950 1_554 S
C612 C611 1.397 . S
C612 C613 1.334 . S
C613 H590 0.950 1_554 S
C613 C612 1.334 . S
C613 C614 1.287 . S
C614 C613 1.287 . S
C614 C615 1.524 . S
C614 H633 0.913 . S
C615 H591 0.950 . S
C615 C614 1.524 . S
C615 C616 1.415 . S
C616 H592 0.950 . S
C616 C611 1.363 . S
C616 C615 1.415 . S
C617 H593 0.951 . S
C617 C618 1.366 . S
C617 C619 1.388 . S
C618 C617 1.366 . S
C618 C622 1.385 . S
C619 H594 0.951 . S
C619 C617 1.388 . S
C619 C620 1.366 . S
C620 C619 1.366 . S
C620 C621 1.414 . S
C620 C623 1.499 . S
C621 H595 0.950 . S
C621 C620 1.414 . S
C621 C622 1.374 . S
C622 H596 0.950 . S
C622 C618 1.385 . S
C622 C621 1.374 . S
C623 C620 1.499 . S
C623 C624 1.373 . S
C623 C625 1.389 . S
C624 H597 0.950 . S
C624 C610 1.377 1_455 S
C624 C623 1.373 . S
C625 C609 1.377 1_455 S
C625 C623 1.389 . S
C625 C626 1.524 . S
C626 C625 1.524 . S
C626 C627 1.397 . S
C626 C631 1.363 . S
C627 H598 0.950 . S
C627 C626 1.397 . S
C627 C628 1.334 . S
C628 H599 0.950 . S
C628 C627 1.334 . S
C628 C629 1.287 . S
C629 C628 1.287 . S
C629 C630 1.524 . S
C629 H632 0.999 . S
C630 H600 0.950 . S
C630 C629 1.524 . S
C630 C631 1.415 . S
C631 H601 0.950 . S
C631 C626 1.363 . S
C631 C630 1.415 . S
H632 C629 0.999 . S
H633 C614 0.913 . S
H634 C652 0.951 . S
H635 C654 0.951 . S
H636 C656 0.950 . S
H637 C657 0.950 . S
H638 C659 0.950 . S
H639 C662 0.950 . S
H640 C663 0.950 . S
H641 C665 0.950 . S
H642 C666 0.950 . S
H643 C667 0.951 . S
H644 C669 0.951 . S
H645 C671 0.950 . S
H646 C672 0.950 . S
H647 C674 0.950 . S
H648 C677 0.950 . S
H649 C678 0.950 . S
H650 C680 0.950 . S
H651 C681 0.950 . S
C652 H634 0.951 . S
C652 C653 1.366 . S
C652 C654 1.388 . S
C653 C652 1.366 . S
C653 C657 1.385 . S
C654 H635 0.951 . S
C654 C652 1.388 . S
C654 C655 1.366 . S
C655 C654 1.366 . S
C655 C656 1.414 . S
C655 C658 1.499 . S
C656 H636 0.950 . S
C656 C655 1.414 . S
C656 C657 1.374 . S
C657 H637 0.950 . S
C657 C653 1.385 . S
C657 C656 1.374 . S
C658 C655 1.499 . S
C658 C659 1.373 . S
C658 C660 1.389 . S
C659 H638 0.950 . S
C659 C658 1.373 . S
C659 C675 1.377 1_565 S
C660 C658 1.389 . S
C660 C661 1.524 . S
C660 C674 1.377 1_565 S
C661 C660 1.524 . S
C661 C662 1.397 . S
C661 C666 1.363 . S
C662 H639 0.950 . S
C662 C661 1.397 . S
C662 C663 1.334 . S
C663 H640 0.950 . S
C663 C662 1.334 . S
C663 C664 1.287 . S
C664 C663 1.287 . S
C664 C665 1.524 . S
C664 H683 0.913 . S
C665 H641 0.950 . S
C665 C664 1.524 . S
C665 C666 1.415 . S
C666 H642 0.950 . S
C666 C661 1.363 . S
C666 C665 1.415 . S
C667 H643 0.951 . S
C667 C668 1.366 . S
C667 C669 1.388 . S
C668 C667 1.366 . S
C668 C672 1.385 . S
C669 H644 0.951 . S
C669 C667 1.388 . S
C669 C670 1.366 . S
C670 C669 1.366 . S
C670 C671 1.414 . S
C670 C673 1.499 . S
C671 H645 0.950 . S
C671 C670 1.414 . S
C671 C672 1.374 . S
C672 H646 0.950 . S
C672 C668 1.385 . S
C672 C671 1.374 . S
C673 C670 1.499 . S
C673 C674 1.373 . S
C673 C675 1.389 . S
C674 H647 0.950 . S
C674 C660 1.377 1_545 S
C674 C673 1.373 . S
C675 C659 1.377 1_545 S
C675 C673 1.389 . S
C675 C676 1.524 . S
C676 C675 1.524 . S
C676 C677 1.397 . S
C676 C681 1.363 . S
C677 H648 0.950 . S
C677 C676 1.397 . S
C677 C678 1.334 . S
C678 H649 0.950 . S
C678 C677 1.334 . S
C678 C679 1.287 . S
C679 C678 1.287 . S
C679 C680 1.524 . S
C679 H682 0.999 . S
C680 H650 0.950 . S
C680 C679 1.524 . S
C680 C681 1.415 . S
C681 H651 0.950 . S
C681 C676 1.363 . S
C681 C680 1.415 . S
H682 C679 0.999 . S
H683 C664 0.913 . S
H684 C702 0.951 . S
H685 C704 0.951 . S
H686 C706 0.950 . S
H687 C707 0.950 . S
H688 C709 0.950 . S
H689 C712 0.950 . S
H690 C713 0.950 . S
H691 C715 0.950 . S
H692 C716 0.950 . S
H693 C717 0.951 . S
H694 C719 0.951 . S
H695 C721 0.950 . S
H696 C722 0.950 . S
H697 C724 0.950 . S
H698 C727 0.950 . S
H699 C728 0.950 . S
H700 C730 0.950 . S
H701 C731 0.950 . S
C702 H684 0.951 . S
C702 C703 1.366 . S
C702 C704 1.388 . S
C703 C702 1.366 . S
C703 C707 1.385 . S
C704 H685 0.951 . S
C704 C702 1.388 . S
C704 C705 1.366 . S
C705 C704 1.366 . S
C705 C706 1.414 . S
C705 C708 1.499 . S
C706 H686 0.950 . S
C706 C705 1.414 . S
C706 C707 1.374 . S
C707 H687 0.950 . S
C707 C703 1.385 . S
C707 C706 1.374 . S
C708 C705 1.499 . S
C708 C709 1.373 . S
C708 C710 1.389 . S
C709 H688 0.950 . S
C709 C708 1.373 . S
C709 C725 1.377 1_455 S
C710 C708 1.389 . S
C710 C711 1.524 . S
C710 C724 1.377 1_455 S
C711 C710 1.524 . S
C711 C712 1.397 . S
C711 C716 1.363 . S
C712 H689 0.950 . S
C712 C711 1.397 . S
C712 C713 1.334 . S
C713 H690 0.950 . S
C713 C712 1.334 . S
C713 C714 1.287 . S
C714 C713 1.287 . S
C714 C715 1.524 . S
C714 H733 0.913 . S
C715 H691 0.950 . S
C715 C714 1.524 . S
C715 C716 1.415 . S
C716 H692 0.950 . S
C716 C711 1.363 . S
C716 C715 1.415 . S
C717 H693 0.951 . S
C717 C718 1.366 . S
C717 C719 1.388 . S
C718 C717 1.366 . S
C718 C722 1.385 . S
C719 H694 0.951 . S
C719 C717 1.388 . S
C719 C720 1.366 . S
C720 C719 1.366 . S
C720 C721 1.414 . S
C720 C723 1.499 . S
C721 H695 0.950 . S
C721 C720 1.414 . S
C721 C722 1.374 . S
C722 H696 0.950 . S
C722 C718 1.385 . S
C722 C721 1.374 . S
C723 C720 1.499 . S
C723 C724 1.373 . S
C723 C725 1.389 . S
C724 H697 0.950 . S
C724 C710 1.377 1_655 S
C724 C723 1.373 . S
C725 C709 1.377 1_655 S
C725 C723 1.389 . S
C725 C726 1.524 . S
C726 C725 1.524 . S
C726 C727 1.397 . S
C726 C731 1.363 . S
C727 H698 0.950 . S
C727 C726 1.397 . S
C727 C728 1.334 . S
C728 H699 0.950 . S
C728 C727 1.334 . S
C728 C729 1.287 . S
C729 C728 1.287 . S
C729 C730 1.524 . S
C729 H732 0.999 . S
C730 H700 0.950 . S
C730 C729 1.524 . S
C730 C731 1.415 . S
C731 H701 0.950 . S
C731 C726 1.363 . S
C731 C730 1.415 . S
H732 C729 0.999 . S
H733 C714 0.913 . S
H734 C752 0.951 . S
H735 C754 0.951 . S
H736 C756 0.950 1_554 S
H737 C757 0.947 1_554 S
H738 C759 0.950 . S
H739 C762 0.950 . S
H740 C763 0.950 . S
H741 C765 0.950 . S
H742 C766 0.950 . S
H743 C767 0.950 1_554 S
H744 C769 0.953 . S
H745 C771 0.950 . S
H746 C772 0.950 . S
H747 C774 0.950 . S
H748 C777 0.950 . S
H749 C778 0.950 . S
H750 C780 0.950 . S
H751 C781 0.950 . S
C752 H734 0.951 . S
C752 C753 1.366 . S
C752 C754 1.388 . S
C753 C752 1.366 . S
C753 C757 1.388 . S
C754 H735 0.951 . S
C754 C752 1.388 . S
C754 C755 1.366 . S
C755 C754 1.366 . S
C755 C756 1.414 . S
C755 C758 1.499 . S
C756 H736 0.950 1_556 S
C756 C755 1.414 . S
C756 C757 1.374 . S
C757 H737 0.947 1_556 S
C757 C753 1.388 . S
C757 C756 1.374 . S
C758 C755 1.499 . S
C758 C759 1.373 1_556 S
C758 C760 1.389 . S
C759 H738 0.950 . S
C759 C758 1.373 1_554 S
C759 C775 1.377 1_565 S
C760 C758 1.389 . S
C760 C761 1.524 . S
C760 C774 1.377 1_565 S
C761 C760 1.524 . S
C761 C762 1.397 . S
C761 C766 1.363 . S
C762 H739 0.950 . S
C762 C761 1.397 . S
C762 C763 1.334 . S
C763 H740 0.950 . S
C763 C762 1.334 . S
C763 C764 1.287 . S
C764 C763 1.287 . S
C764 C765 1.524 . S
C764 H783 0.913 . S
C765 H741 0.950 . S
C765 C764 1.524 . S
C765 C766 1.415 . S
C766 H742 0.950 . S
C766 C761 1.363 . S
C766 C765 1.415 . S
C767 H743 0.950 1_556 S
C767 C768 1.367 . S
C767 C769 1.387 1_556 S
C768 C767 1.367 . S
C768 C772 1.385 . S
C769 H744 0.953 . S
C769 C767 1.387 1_554 S
C769 C770 1.364 1_554 S
C770 C769 1.364 1_556 S
C770 C771 1.414 . S
C770 C773 1.499 . S
C771 H745 0.950 . S
C771 C770 1.414 . S
C771 C772 1.374 . S
C772 H746 0.950 . S
C772 C768 1.385 . S
C772 C771 1.374 . S
C773 C770 1.499 . S
C773 C774 1.373 . S
C773 C775 1.389 1_556 S
C774 H747 0.950 . S
C774 C760 1.377 1_545 S
C774 C773 1.373 . S
C775 C759 1.377 1_545 S
C775 C773 1.389 1_554 S
C775 C776 1.524 . S
C776 C775 1.524 . S
C776 C777 1.397 . S
C776 C781 1.363 . S
C777 H748 0.950 . S
C777 C776 1.397 . S
C777 C778 1.334 . S
C778 H749 0.950 . S
C778 C777 1.334 . S
C778 C779 1.287 . S
C779 C778 1.287 . S
C779 C780 1.524 . S
C779 H782 0.999 . S
C780 H750 0.950 . S
C780 C779 1.524 . S
C780 C781 1.415 . S
C781 H751 0.950 . S
C781 C776 1.363 . S
C781 C780 1.415 . S
H782 C779 0.999 . S
H783 C764 0.913 . S
H784 C802 0.951 . S
H785 C804 0.951 . S
H786 C806 0.950 1_556 S
H787 C807 0.950 1_556 S
H788 C809 0.950 . S
H789 C812 0.950 . S
H790 C813 0.950 . S
H791 C815 0.950 . S
H792 C816 0.950 . S
H793 C817 0.951 . S
H794 C819 0.946 1_556 S
H795 C821 0.950 . S
H796 C822 0.950 . S
H797 C824 0.950 . S
H798 C827 0.950 . S
H799 C828 0.950 . S
H800 C830 0.950 . S
H801 C831 0.950 . S
C802 H784 0.951 . S
C802 C803 1.366 . S
C802 C804 1.388 . S
C803 C802 1.366 . S
C803 C807 1.385 . S
C804 H785 0.951 . S
C804 C802 1.388 . S
C804 C805 1.366 . S
C805 C804 1.366 . S
C805 C806 1.414 . S
C805 C808 1.499 . S
C806 H786 0.950 1_554 S
C806 C805 1.414 . S
C806 C807 1.374 . S
C807 H787 0.950 1_554 S
C807 C803 1.385 . S
C807 C806 1.374 . S
C808 C805 1.499 . S
C808 C809 1.373 1_554 S
C808 C810 1.389 . S
C809 H788 0.950 . S
C809 C808 1.373 1_556 S
C809 C825 1.377 . S
C810 C808 1.389 . S
C810 C811 1.524 . S
C810 C824 1.377 . S
C811 C810 1.524 . S
C811 C812 1.397 . S
C811 C816 1.363 . S
C812 H789 0.950 . S
C812 C811 1.397 . S
C812 C813 1.334 . S
C813 H790 0.950 . S
C813 C812 1.334 . S
C813 C814 1.287 . S
C814 C813 1.287 . S
C814 C815 1.524 . S
C814 H833 0.913 . S
C815 H791 0.950 . S
C815 C814 1.524 . S
C815 C816 1.415 . S
C816 H792 0.950 . S
C816 C811 1.363 . S
C816 C815 1.415 . S
C817 H793 0.951 . S
C817 C818 1.366 . S
C817 C819 1.388 . S
C818 C817 1.366 . S
C818 C822 1.385 . S
C819 H794 0.946 1_554 S
C819 C817 1.388 . S
C819 C820 1.366 . S
C820 C819 1.366 . S
C820 C821 1.414 . S
C820 C823 1.499 . S
C821 H795 0.950 . S
C821 C820 1.414 . S
C821 C822 1.374 . S
C822 H796 0.950 . S
C822 C818 1.385 . S
C822 C821 1.374 . S
C823 C820 1.499 . S
C823 C824 1.373 . S
C823 C825 1.389 1_554 S
C824 H797 0.950 . S
C824 C810 1.377 . S
C824 C823 1.373 . S
C825 C809 1.377 . S
C825 C823 1.389 1_556 S
C825 C826 1.524 . S
C826 C825 1.524 . S
C826 C827 1.397 . S
C826 C831 1.363 . S
C827 H798 0.950 . S
C827 C826 1.397 . S
C827 C828 1.334 . S
C828 H799 0.950 . S
C828 C827 1.334 . S
C828 C829 1.287 . S
C829 C828 1.287 . S
C829 C830 1.524 . S
C829 H832 0.999 . S
C830 H800 0.950 . S
C830 C829 1.524 . S
C830 C831 1.415 . S
C831 H801 0.950 . S
C831 C826 1.363 . S
C831 C830 1.415 . S
H832 C829 0.999 . S
H833 C814 0.913 . S
H834 C852 0.951 . S
H835 C854 0.951 . S
H836 C856 0.950 . S
H837 C857 0.950 . S
H838 C859 0.950 . S
H839 C862 0.950 . S
H840 C863 0.950 . S
H841 C865 0.950 . S
H842 C866 0.950 . S
H843 C867 0.951 . S
H844 C869 0.951 . S
H845 C871 0.950 . S
H846 C872 0.950 . S
H847 C874 0.950 . S
H848 C877 0.950 . S
H849 C878 0.950 . S
H850 C880 0.950 . S
H851 C881 0.950 . S
C852 H834 0.951 . S
C852 C853 1.366 . S
C852 C854 1.388 . S
C853 C852 1.366 . S
C853 C857 1.385 . S
C854 H835 0.951 . S
C854 C852 1.388 . S
C854 C855 1.366 . S
C855 C854 1.366 . S
C855 C856 1.414 . S
C855 C858 1.499 . S
C856 H836 0.950 . S
C856 C855 1.414 . S
C856 C857 1.374 . S
C857 H837 0.950 . S
C857 C853 1.385 . S
C857 C856 1.374 . S
C858 C855 1.499 . S
C858 C859 1.373 . S
C858 C860 1.389 . S
C859 H838 0.950 . S
C859 C858 1.373 . S
C859 C875 1.377 . S
C860 C858 1.389 . S
C860 C861 1.524 . S
C860 C874 1.377 . S
C861 C860 1.524 . S
C861 C862 1.397 . S
C861 C866 1.363 . S
C862 H839 0.950 . S
C862 C861 1.397 . S
C862 C863 1.334 . S
C863 H840 0.950 . S
C863 C862 1.334 . S
C863 C864 1.287 . S
C864 C863 1.287 . S
C864 C865 1.524 . S
C864 H883 0.913 . S
C865 H841 0.950 . S
C865 C864 1.524 . S
C865 C866 1.415 . S
C866 H842 0.950 . S
C866 C861 1.363 . S
C866 C865 1.415 . S
C867 H843 0.951 . S
C867 C868 1.366 . S
C867 C869 1.388 . S
C868 C867 1.366 . S
C868 C872 1.385 . S
C869 H844 0.951 . S
C869 C867 1.388 . S
C869 C870 1.366 . S
C870 C869 1.366 . S
C870 C871 1.414 . S
C870 C873 1.499 . S
C871 H845 0.950 . S
C871 C870 1.414 . S
C871 C872 1.374 . S
C872 H846 0.950 . S
C872 C868 1.385 . S
C872 C871 1.374 . S
C873 C870 1.499 . S
C873 C874 1.373 . S
C873 C875 1.389 . S
C874 H847 0.950 . S
C874 C860 1.377 . S
C874 C873 1.373 . S
C875 C859 1.377 . S
C875 C873 1.389 . S
C875 C876 1.524 . S
C876 C875 1.524 . S
C876 C877 1.397 . S
C876 C881 1.363 . S
C877 H848 0.950 . S
C877 C876 1.397 . S
C877 C878 1.334 . S
C878 H849 0.950 . S
C878 C877 1.334 . S
C878 C879 1.287 . S
C879 C878 1.287 . S
C879 C880 1.524 . S
C879 H882 0.999 . S
C880 H850 0.950 . S
C880 C879 1.524 . S
C880 C881 1.415 . S
C881 H851 0.950 . S
C881 C876 1.363 . S
C881 C880 1.415 . S
H882 C879 0.999 . S
H883 C864 0.913 . S
H884 C902 0.951 . S
H885 C904 0.951 . S
H886 C906 0.950 1_556 S
H887 C907 0.950 1_556 S
H888 C909 0.950 . S
H889 C912 0.950 . S
H890 C913 0.950 . S
H891 C915 0.950 . S
H892 C916 0.950 . S
H893 C917 0.951 1_556 S
H894 C919 0.951 1_556 S
H895 C921 0.950 . S
H896 C922 0.950 . S
H897 C924 0.950 . S
H898 C927 0.950 . S
H899 C928 0.950 . S
H900 C930 0.950 . S
H901 C931 0.950 . S
C902 H884 0.951 . S
C902 C903 1.366 . S
C902 C904 1.388 . S
C903 C902 1.366 . S
C903 C907 1.385 . S
C904 H885 0.951 . S
C904 C902 1.388 . S
C904 C905 1.366 . S
C905 C904 1.366 . S
C905 C906 1.414 . S
C905 C908 1.499 . S
C906 H886 0.950 1_554 S
C906 C905 1.414 . S
C906 C907 1.374 . S
C907 H887 0.950 1_554 S
C907 C903 1.385 . S
C907 C906 1.374 . S
C908 C905 1.499 . S
C908 C909 1.373 1_554 S
C908 C910 1.389 . S
C909 H888 0.950 . S
C909 C908 1.373 1_556 S
C909 C925 1.377 . S
C910 C908 1.389 . S
C910 C911 1.524 . S
C910 C924 1.377 . S
C911 C910 1.524 . S
C911 C912 1.397 . S
C911 C916 1.363 . S
C912 H889 0.950 . S
C912 C911 1.397 . S
C912 C913 1.334 . S
C913 H890 0.950 . S
C913 C912 1.334 . S
C913 C914 1.287 . S
C914 C913 1.287 . S
C914 C915 1.524 . S
C914 H933 0.913 . S
C915 H891 0.950 . S
C915 C914 1.524 . S
C915 C916 1.415 . S
C916 H892 0.950 . S
C916 C911 1.363 . S
C916 C915 1.415 . S
C917 H893 0.951 1_554 S
C917 C918 1.366 . S
C917 C919 1.388 . S
C918 C917 1.366 . S
C918 C922 1.385 . S
C919 H894 0.951 1_554 S
C919 C917 1.388 . S
C919 C920 1.366 . S
C920 C919 1.366 . S
C920 C921 1.414 . S
C920 C923 1.499 . S
C921 H895 0.950 . S
C921 C920 1.414 . S
C921 C922 1.374 . S
C922 H896 0.950 . S
C922 C918 1.385 . S
C922 C921 1.374 . S
C923 C920 1.499 . S
C923 C924 1.373 . S
C923 C925 1.389 1_554 S
C924 H897 0.950 . S
C924 C910 1.377 . S
C924 C923 1.373 . S
C925 C909 1.377 . S
C925 C923 1.389 1_556 S
C925 C926 1.524 . S
C926 C925 1.524 . S
C926 C927 1.397 . S
C926 C931 1.363 . S
C927 H898 0.950 . S
C927 C926 1.397 . S
C927 C928 1.334 . S
C928 H899 0.950 . S
C928 C927 1.334 . S
C928 C929 1.287 . S
C929 C928 1.287 . S
C929 C930 1.524 . S
C929 H932 0.999 . S
C930 H900 0.950 . S
C930 C929 1.524 . S
C930 C931 1.415 . S
C931 H901 0.950 . S
C931 C926 1.363 . S
C931 C930 1.415 . S
H932 C929 0.999 . S
H933 C914 0.913 . S
H934 C952 0.951 . S
H935 C954 0.951 . S
H936 C956 0.950 . S
H937 C957 0.950 . S
H938 C959 0.950 . S
H939 C962 0.950 . S
H940 C963 0.950 . S
H941 C965 0.950 . S
H942 C966 0.950 . S
H943 C967 0.951 . S
H944 C969 0.951 . S
H945 C971 0.950 . S
H946 C972 0.950 . S
H947 C974 0.950 . S
H948 C977 0.950 . S
H949 C978 0.950 . S
H950 C980 0.950 . S
H951 C981 0.950 . S
C952 H934 0.951 . S
C952 C953 1.366 . S
C952 C954 1.388 . S
C953 C952 1.366 . S
C953 C957 1.385 . S
C954 H935 0.951 . S
C954 C952 1.388 . S
C954 C955 1.366 . S
C955 C954 1.366 . S
C955 C956 1.414 . S
C955 C958 1.499 . S
C956 H936 0.950 . S
C956 C955 1.414 . S
C956 C957 1.374 . S
C957 H937 0.950 . S
C957 C953 1.385 . S
C957 C956 1.374 . S
C958 C955 1.499 . S
C958 C959 1.373 . S
C958 C960 1.389 . S
C959 H938 0.950 . S
C959 C958 1.373 . S
C959 C975 1.377 . S
C960 C958 1.389 . S
C960 C961 1.524 . S
C960 C974 1.377 . S
C961 C960 1.524 . S
C961 C962 1.397 . S
C961 C966 1.363 . S
C962 H939 0.950 . S
C962 C961 1.397 . S
C962 C963 1.334 . S
C963 H940 0.950 . S
C963 C962 1.334 . S
C963 C964 1.287 . S
C964 C963 1.287 . S
C964 C965 1.524 . S
C964 H983 0.913 . S
C965 H941 0.950 . S
C965 C964 1.524 . S
C965 C966 1.415 . S
C966 H942 0.950 . S
C966 C961 1.363 . S
C966 C965 1.415 . S
C967 H943 0.951 . S
C967 C968 1.366 . S
C967 C969 1.388 . S
C968 C967 1.366 . S
C968 C972 1.385 . S
C969 H944 0.951 . S
C969 C967 1.388 . S
C969 C970 1.366 . S
C970 C969 1.366 . S
C970 C971 1.414 . S
C970 C973 1.499 . S
C971 H945 0.950 . S
C971 C970 1.414 . S
C971 C972 1.374 . S
C972 H946 0.950 . S
C972 C968 1.385 . S
C972 C971 1.374 . S
C973 C970 1.499 . S
C973 C974 1.373 . S
C973 C975 1.389 . S
C974 H947 0.950 . S
C974 C960 1.377 . S
C974 C973 1.373 . S
C975 C959 1.377 . S
C975 C973 1.389 . S
C975 C976 1.524 . S
C976 C975 1.524 . S
C976 C977 1.397 . S
C976 C981 1.363 . S
C977 H948 0.950 . S
C977 C976 1.397 . S
C977 C978 1.334 . S
C978 H949 0.950 . S
C978 C977 1.334 . S
C978 C979 1.287 . S
C979 C978 1.287 . S
C979 C980 1.524 . S
C979 H982 0.999 . S
C980 H950 0.950 . S
C980 C979 1.524 . S
C980 C981 1.415 . S
C981 H951 0.950 . S
C981 C976 1.363 . S
C981 C980 1.415 . S
H982 C979 0.999 . S
H983 C964 0.913 . S
C203 N12 0.393 . S
C218 N104 0.390 . S
C253 C39 1.667 . S
C268 C131 1.667 . S
C303 N150 0.393 . S
C318 N58 0.392 . S
C353 C177 1.667 . S
C368 C85 1.667 . S
C403 N140 1.415 . S
C418 N48 1.415 . S
C453 C168 2.791 . S
C468 C76 2.791 . S
C503 N2 1.415 . S
C518 N94 1.415 . S
C553 C30 2.791 . S
C568 C122 2.791 . S
C603 C53 1.925 . S
C618 C7 1.925 . S
C653 N71 1.839 . S
C668 N25 1.840 . S
C703 C99 1.925 . S
C718 C145 1.925 . S
C753 N163 1.839 1_556 S
C768 N117 1.839 1_556 S
C803 C16 1.875 . S
C818 N127 1.868 . S
C853 C154 1.875 . S
C868 N35 1.869 . S
C903 C62 1.875 . S
C918 N173 1.868 . S
C953 N81 1.868 . S
C968 C108 1.875 . S
