# Generated by pormake.
# Topology ure, (4)-cn, num edge types: 1
# Building blocks:
#     Node 0, Type 0, BuildingBlock: TATPOV_clean_sbu_0, # of connection points: 4
#     Node 1, Type 0, BuildingBlock: TATPOV_clean_sbu_0, # of connection points: 4
#     Node 2, Type 0, BuildingBlock: TATPOV_clean_sbu_0, # of connection points: 4
#     Node 3, Type 0, BuildingBlock: TATPOV_clean_sbu_0, # of connection points: 4
#     Node 4, Type 0, BuildingBlock: TATPOV_clean_sbu_0, # of connection points: 4
#     Node 5, Type 0, BuildingBlock: TATPOV_clean_sbu_0, # of connection points: 4
#     Node 6, Type 0, BuildingBlock: TATPOV_clean_sbu_0, # of connection points: 4
#     Node 7, Type 0, BuildingBlock: TATPOV_clean_sbu_0, # of connection points: 4
#     Node 8, Type 0, BuildingBlock: TATPOV_clean_sbu_0, # of connection points: 4
#     Node 9, Type 0, BuildingBlock: TATPOV_clean_sbu_0, # of connection points: 4
#     Node 10, Type 0, BuildingBlock: TATPOV_clean_sbu_0, # of connection points: 4
#     Node 11, Type 0, BuildingBlock: TATPOV_clean_sbu_0, # of connection points: 4
#     Node 12, Type 0, BuildingBlock: TATPOV_clean_sbu_0, # of connection points: 4
#     Node 13, Type 0, BuildingBlock: TATPOV_clean_sbu_0, # of connection points: 4
#     Node 14, Type 0, BuildingBlock: TATPOV_clean_sbu_0, # of connection points: 4
#     Node 15, Type 0, BuildingBlock: TATPOV_clean_sbu_0, # of connection points: 4
#     Edge 16, Type (0, 0), BuildingBlock: CIFDUS_clean_linker_0, # of connection points: 2
#     Edge 17, Type (0, 0), BuildingBlock: CIFDUS_clean_linker_0, # of connection points: 2
#     Edge 18, Type (0, 0), BuildingBlock: CIFDUS_clean_linker_0, # of connection points: 2
#     Edge 19, Type (0, 0), BuildingBlock: CIFDUS_clean_linker_0, # of connection points: 2
#     Edge 20, Type (0, 0), BuildingBlock: CIFDUS_clean_linker_0, # of connection points: 2
#     Edge 21, Type (0, 0), BuildingBlock: CIFDUS_clean_linker_0, # of connection points: 2
#     Edge 22, Type (0, 0), BuildingBlock: CIFDUS_clean_linker_0, # of connection points: 2
#     Edge 23, Type (0, 0), BuildingBlock: CIFDUS_clean_linker_0, # of connection points: 2
#     Edge 24, Type (0, 0), BuildingBlock: CIFDUS_clean_linker_0, # of connection points: 2
#     Edge 25, Type (0, 0), BuildingBlock: CIFDUS_clean_linker_0, # of connection points: 2
#     Edge 26, Type (0, 0), BuildingBlock: CIFDUS_clean_linker_0, # of connection points: 2
#     Edge 27, Type (0, 0), BuildingBlock: CIFDUS_clean_linker_0, # of connection points: 2
#     Edge 28, Type (0, 0), BuildingBlock: CIFDUS_clean_linker_0, # of connection points: 2
#     Edge 29, Type (0, 0), BuildingBlock: CIFDUS_clean_linker_0, # of connection points: 2
#     Edge 30, Type (0, 0), BuildingBlock: CIFDUS_clean_linker_0, # of connection points: 2
#     Edge 31, Type (0, 0), BuildingBlock: CIFDUS_clean_linker_0, # of connection points: 2
#     Edge 32, Type (0, 0), BuildingBlock: CIFDUS_clean_linker_0, # of connection points: 2
#     Edge 33, Type (0, 0), BuildingBlock: CIFDUS_clean_linker_0, # of connection points: 2
#     Edge 34, Type (0, 0), BuildingBlock: CIFDUS_clean_linker_0, # of connection points: 2
#     Edge 35, Type (0, 0), BuildingBlock: CIFDUS_clean_linker_0, # of connection points: 2
#     Edge 36, Type (0, 0), BuildingBlock: CIFDUS_clean_linker_0, # of connection points: 2
#     Edge 37, Type (0, 0), BuildingBlock: CIFDUS_clean_linker_0, # of connection points: 2
#     Edge 38, Type (0, 0), BuildingBlock: CIFDUS_clean_linker_0, # of connection points: 2
#     Edge 39, Type (0, 0), BuildingBlock: CIFDUS_clean_linker_0, # of connection points: 2
#     Edge 40, Type (0, 0), BuildingBlock: CIFDUS_clean_linker_0, # of connection points: 2
#     Edge 41, Type (0, 0), BuildingBlock: CIFDUS_clean_linker_0, # of connection points: 2
#     Edge 42, Type (0, 0), BuildingBlock: CIFDUS_clean_linker_0, # of connection points: 2
#     Edge 43, Type (0, 0), BuildingBlock: CIFDUS_clean_linker_0, # of connection points: 2
#     Edge 44, Type (0, 0), BuildingBlock: CIFDUS_clean_linker_0, # of connection points: 2
#     Edge 45, Type (0, 0), BuildingBlock: CIFDUS_clean_linker_0, # of connection points: 2
#     Edge 46, Type (0, 0), BuildingBlock: CIFDUS_clean_linker_0, # of connection points: 2
#     Edge 47, Type (0, 0), BuildingBlock: CIFDUS_clean_linker_0, # of connection points: 2
# Relax obj value: 0.111
# Max RMSD: 0.073
# Mean RMSD: 0.073
data_MOF--net-ure--node1-TATPOV_clean_sbu_0--edge1-CIFDUS_clean_linker_0
_symmetry_space_group_name_H-M    P1
_symmetry_Int_Tables_number       1
_symmetry_cell_setting            triclinic
loop_
_symmetry_equiv_pos_as_xyz
'x, y, z'
_cell_length_a     29.077739
_cell_length_b     27.243523
_cell_length_c     27.363058
_cell_angle_alpha  90.16788
_cell_angle_beta   90.029024
_cell_angle_gamma 89.426382
loop_
_atom_site_label
_atom_site_type_symbol
_atom_site_fract_x
_atom_site_fract_y
_atom_site_fract_z
_atom_type_partial_charge
Zn0 Zn 0.32136 0.27908 0.32252 0.0
Zn1 Zn 0.27493 0.22281 0.27258 0.0
O2 O 0.34261 0.21052 0.24831 0.0
O3 O 0.37459 0.27778 0.27617 0.0
O4 O 0.23413 0.17809 0.23073 0.0
O5 O 0.32187 0.23538 0.38106 0.0
O6 O 0.26308 0.2007 0.34485 0.0
C7 C 0.37696 0.23946 0.25015 0.0
C8 C 0.25131 0.33285 0.28203 0.0
O9 O 0.25016 0.29319 0.25714 0.0
O10 O 0.27652 0.33504 0.31956 0.0
C11 C 0.21823 0.19277 0.1898 0.0
O12 O 0.22982 0.23641 0.17395 0.0
C13 C 0.28809 0.20663 0.38282 0.0
Zn14 Zn 0.94525 0.0799 0.53838 0.0
Zn15 Zn 0.97932 0.01549 0.48349 0.0
O16 O 0.9095 -0.00369 0.48599 0.0
O17 O 0.88734 0.04244 0.5478 0.0
O18 O 0.00919 0.96398 0.43942 0.0
O19 O 0.94752 0.13218 0.48757 0.0
O20 O 0.99415 0.08163 0.44865 0.0
C21 C 0.87876 0.00901 0.51707 0.0
C22 C 0.01811 0.03471 0.58659 0.0
O23 O 0.01306 0.00614 0.54994 0.0
O24 O 0.99531 0.07442 0.58859 0.0
C25 C 0.05238 0.95587 0.44112 0.0
O26 O 0.07749 0.98134 0.47182 0.0
C27 C 0.97557 0.12406 0.45316 0.0
Zn28 Zn 0.17775 0.69632 0.80742 0.0
Zn29 Zn 0.22792 0.74159 0.75089 0.0
O30 O 0.16044 0.75811 0.72766 0.0
O31 O 0.12248 0.69956 0.76456 0.0
O32 O 0.26981 0.78269 0.70722 0.0
O33 O 0.1843 0.74344 0.86312 0.0
O34 O 0.24414 0.76696 0.82075 0.0
C35 C 0.12317 0.7345 0.73437 0.0
C36 C 0.24376 0.63204 0.76923 0.0
O37 O 0.24867 0.66846 0.74045 0.0
O38 O 0.21757 0.63629 0.80588 0.0
C39 C 0.29549 0.76572 0.67328 0.0
O40 O 0.29489 0.71848 0.66361 0.0
C41 C 0.22128 0.76726 0.86059 0.0
Zn42 Zn 0.58022 0.9214 0.03275 0.0
Zn43 Zn 0.53992 0.98477 0.98283 0.0
O44 O 0.60895 0.00799 0.9817 0.0
O45 O 0.63661 0.96134 0.04038 0.0
O46 O 0.50427 0.034 0.9409 0.0
O47 O 0.57766 0.86839 0.98231 0.0
O48 O 0.52556 0.91719 0.94996 0.0
C49 C 0.64181 -0.00374 0.01067 0.0
C50 C 0.50835 0.96227 0.08712 0.0
O51 O 0.50962 0.99215 0.05129 0.0
O52 O 0.53306 0.92382 0.08605 0.0
C53 C 0.46052 0.03208 0.93892 0.0
O54 O 0.43937 -0.00189 0.96414 0.0
C55 C 0.54561 0.87529 0.95184 0.0
Zn56 Zn 0.32455 0.66121 0.17735 0.0
Zn57 Zn 0.28422 0.71552 0.23919 0.0
O58 O 0.35334 0.7193 0.25998 0.0
O59 O 0.38305 0.65983 0.21532 0.0
O60 O 0.25131 0.76014 0.28773 0.0
O61 O 0.31718 0.70943 0.12322 0.0
O62 O 0.26857 0.74762 0.17202 0.0
C63 C 0.38761 0.69197 0.24835 0.0
C64 C 0.25531 0.6082 0.22345 0.0
O65 O 0.25544 0.64669 0.25024 0.0
O66 O 0.27971 0.60663 0.18523 0.0
C67 C 0.20847 0.76958 0.28407 0.0
O68 O 0.18499 0.74909 0.24854 0.0
C69 C 0.28732 0.74274 0.1301 0.0
Zn70 Zn 0.55705 0.05771 0.41743 0.0
Zn71 Zn 0.51788 -0.00258 0.47152 0.0
O72 O 0.58725 0.97751 0.47963 0.0
O73 O 0.61459 0.01644 0.41574 0.0
O74 O 0.48088 0.95026 0.51358 0.0
O75 O 0.55148 0.11305 0.46538 0.0
O76 O 0.50095 0.06589 0.50131 0.0
C77 C 0.62035 0.98626 0.45027 0.0
C78 C 0.4911 0.01126 0.36299 0.0
O79 O 0.4933 0.98432 0.40107 0.0
O80 O 0.5118 0.05182 0.36251 0.0
C81 C 0.47645 0.90516 0.50238 0.0
O82 O 0.49802 0.88802 0.46364 0.0
C83 C 0.52045 0.10745 0.49715 0.0
Zn84 Zn 0.15515 0.30523 0.69765 0.0
Zn85 Zn 0.19867 0.24704 0.74898 0.0
O86 O 0.13168 0.24301 0.77711 0.0
O87 O 0.10311 0.31066 0.74531 0.0
O88 O 0.23668 0.19941 0.79047 0.0
O89 O 0.14994 0.25975 0.64063 0.0
O90 O 0.20598 0.21991 0.67747 0.0
C91 C 0.09917 0.27484 0.77422 0.0
C92 C 0.23011 0.35336 0.73513 0.0
O93 O 0.2291 0.31502 0.76183 0.0
O94 O 0.20426 0.3562 0.69811 0.0
C95 C 0.28051 0.20007 0.79039 0.0
O96 O 0.30155 0.23217 0.76274 0.0
C97 C 0.18082 0.22682 0.63973 0.0
Zn98 Zn 0.95072 0.94151 0.89999 0.0
Zn99 Zn 0.99357 0.98499 0.96227 0.0
O100 O 0.92677 0.01435 0.96727 0.0
O101 O 0.90129 0.99301 0.89484 0.0
O102 O 0.03243 0.02313 0.01163 0.0
O103 O 0.93948 0.88314 0.94197 0.0
O104 O 0.99697 0.91161 0.98528 0.0
C105 C 0.89575 0.01678 0.93417 0.0
C106 C 0.02765 0.97519 0.85589 0.0
O107 O 0.02593 -8e-05 0.89559 0.0
O108 O 0.00113 0.93916 0.85046 0.0
C109 C 0.0409 0.06799 0.0027 0.0
O110 O 0.0228 0.08794 0.96337 0.0
C111 C 0.96887 0.87715 0.97548 0.0
Zn112 Zn 0.79954 0.17514 0.6927 0.0
Zn113 Zn 0.75249 0.22545 0.74472 0.0
O114 O 0.81742 0.22625 0.77802 0.0
O115 O 0.84566 0.15919 0.74476 0.0
O116 O 0.71071 0.26555 0.78979 0.0
O117 O 0.81332 0.22908 0.64594 0.0
O118 O 0.75165 0.26315 0.67794 0.0
C119 C 0.849 0.19335 0.77586 0.0
C120 C 0.72264 0.12291 0.71058 0.0
O121 O 0.72171 0.15611 0.74366 0.0
O122 O 0.75111 0.12639 0.67596 0.0
C123 C 0.70969 0.25584 0.83525 0.0
O124 O 0.73636 0.22047 0.85201 0.0
C125 C 0.78242 0.26197 0.64458 0.0
Zn126 Zn 0.0674 0.54126 0.91312 0.0
Zn127 Zn 0.01471 0.49907 0.96498 0.0
O128 O 0.08024 0.46838 0.97692 0.0
O129 O 0.11411 0.48681 0.90798 0.0
O130 O 0.97186 0.4608 0.0098 0.0
O131 O 0.077 0.59598 0.96111 0.0
O132 O 0.01041 0.57171 0.98925 0.0
C133 C 0.11453 0.46382 0.94797 0.0
C134 C 0.99097 0.51935 0.85873 0.0
O135 O 0.98682 0.49004 0.89477 0.0
O136 O 0.02158 0.55185 0.85994 0.0
C137 C 0.96162 0.41671 -0.00083 0.0
O138 O 0.97933 0.39693 0.95947 0.0
C139 C 0.04185 0.60407 0.9872 0.0
Zn140 Zn 0.67218 0.84341 0.19745 0.0
Zn141 Zn 0.7278 0.79072 0.24054 0.0
O142 O 0.66327 0.78019 0.27231 0.0
O143 O 0.6246 0.84603 0.25043 0.0
O144 O 0.77072 0.74789 0.28183 0.0
O145 O 0.66599 0.79471 0.14285 0.0
O146 O 0.73001 0.76115 0.17006 0.0
C147 C 0.62723 0.80723 0.27543 0.0
C148 C 0.74907 0.89844 0.21829 0.0
O149 O 0.7563 0.86114 0.24554 0.0
O150 O 0.71568 0.89838 0.18878 0.0
C151 C 0.76777 0.7506 0.32821 0.0
O152 O 0.73754 0.78115 0.34749 0.0
C153 C 0.6991 0.76479 0.13699 0.0
Zn154 Zn 0.0624 0.43319 0.5286 0.0
Zn155 Zn 0.01573 0.49587 0.49059 0.0
O156 O 0.08185 0.52694 0.49173 0.0
O157 O 0.11241 0.47884 0.5474 0.0
O158 O 0.97616 0.5444 0.45168 0.0
O159 O 0.06914 0.38853 0.47089 0.0
O160 O 0.00738 0.43058 0.45123 0.0
C161 C 0.11456 0.51696 0.52143 0.0
C162 C 0.98823 0.45349 0.58886 0.0
O163 O 0.98699 0.49063 0.56041 0.0
O164 O 0.01484 0.41789 0.57884 0.0
C165 C 0.94336 0.57065 0.46869 0.0
O166 O 0.93373 0.56833 0.51552 0.0
C167 C 0.03325 0.39288 0.44518 0.0
Zn168 Zn 0.4295 0.57476 0.05862 0.0
Zn169 Zn 0.46626 0.5056 0.01164 0.0
O170 O 0.39666 0.48602 0.00932 0.0
O171 O 0.37085 0.53791 0.06475 0.0
O172 O 0.50072 0.45487 0.96974 0.0
O173 O 0.43543 0.62504 0.00631 0.0
O174 O 0.48352 0.57062 0.97555 0.0
C175 C 0.36399 0.50177 0.03665 0.0
C176 C 0.4961 0.53032 0.11681 0.0
O177 O 0.49295 0.49898 0.08219 0.0
O178 O 0.47566 0.57133 0.11322 0.0
C179 C 0.53221 0.42597 0.98519 0.0
O180 O 0.54227 0.4257 0.03199 0.0
C181 C 0.46595 0.61377 0.97533 0.0
Zn182 Zn 0.80772 0.80157 0.81467 0.0
Zn183 Zn 0.75881 0.75244 0.76529 0.0
O184 O 0.82599 0.74401 0.73697 0.0
O185 O 0.85791 0.81041 0.76621 0.0
O186 O 0.71855 0.71022 0.72043 0.0
O187 O 0.81596 0.7516 0.86707 0.0
O188 O 0.75101 0.72504 0.83664 0.0
C189 C 0.86003 0.77337 0.73843 0.0
C190 C 0.73199 0.85757 0.79047 0.0
O191 O 0.72992 0.82292 0.75901 0.0
O192 O 0.76088 0.85459 0.82483 0.0
C193 C 0.72419 0.7131 0.67433 0.0
O194 O 0.75591 0.74262 0.65751 0.0
C195 C 0.78038 0.7258 0.87148 0.0
Zn196 Zn 0.69492 0.21249 0.32899 0.0
Zn197 Zn 0.73774 0.26374 0.27781 0.0
O198 O 0.67137 0.2649 0.24733 0.0
O199 O 0.64798 0.19572 0.27886 0.0
O200 O 0.77701 0.30712 0.23381 0.0
O201 O 0.67888 0.2639 0.37804 0.0
O202 O 0.74149 0.29579 0.34782 0.0
C203 C 0.64151 0.23083 0.24952 0.0
C204 C 0.77122 0.16092 0.30597 0.0
O205 O 0.76906 0.19439 0.27343 0.0
O206 O 0.74574 0.16451 0.34319 0.0
C207 C 0.79215 0.29131 0.19293 0.0
O208 O 0.78127 0.24676 0.17884 0.0
C209 C 0.71121 0.29424 0.38165 0.0
Zn210 Zn 0.41587 0.42773 0.45561 0.0
Zn211 Zn 0.46816 0.4863 0.49024 0.0
O212 O 0.40262 0.52058 0.4966 0.0
O213 O 0.36388 0.47393 0.44594 0.0
O214 O 0.51053 0.53043 0.53074 0.0
O215 O 0.4154 0.37803 0.5089 0.0
O216 O 0.4795 0.4173 0.52226 0.0
C217 C 0.36619 0.51218 0.47185 0.0
C218 C 0.48444 0.4495 0.38737 0.0
O219 O 0.4912 0.48456 0.4177 0.0
O220 O 0.45685 0.41575 0.39847 0.0
C221 C 0.54754 0.55103 0.51719 0.0
O222 O 0.56138 0.54571 0.47177 0.0
C223 C 0.45461 0.37945 0.52867 0.0
H224 H 0.17129 0.21946 0.10811 0.0
H225 H 0.19209 0.09734 0.20596 0.0
H226 H 0.1388 0.04793 0.15746 0.0
H227 H 0.08643 0.0393 0.08635 0.0
H228 H 0.06603 0.16303 0.99013 0.0
H229 H 0.11872 0.21161 0.03896 0.0
C230 C 0.16435 0.18199 0.11893 0.0
C231 C 0.18598 0.1622 0.16063 0.0
C232 C 0.1335 0.15395 0.0911 0.0
C233 C 0.17609 0.11362 0.17406 0.0
C234 C 0.14555 0.0853 0.1463 0.0
C235 C 0.09342 0.07692 0.07616 0.0
C236 C 0.07215 0.09725 0.03437 0.0
C237 C 0.12404 0.10506 0.10464 0.0
C238 C 0.08172 0.14617 0.02191 0.0
C239 C 0.112 0.17413 0.04984 0.0
H240 H 0.14191 0.92551 0.44122 0.0
H241 H 0.0124 0.90235 0.36792 0.0
H242 H 0.04903 0.84237 0.31355 0.0
H243 H 0.11807 0.79735 0.28592 0.0
H244 H 0.24742 0.82036 0.35966 0.0
H245 H 0.2105 0.87935 0.41473 0.0
C246 C 0.12161 0.90737 0.41339 0.0
C247 C 0.07442 0.91867 0.40866 0.0
C248 C 0.14288 0.87281 0.38226 0.0
C249 C 0.04874 0.89449 0.37246 0.0
C250 C 0.06968 0.86016 0.34128 0.0
C251 C 0.13823 0.81515 0.31409 0.0
C252 C 0.18557 0.8044 0.31843 0.0
C253 C 0.11677 0.84915 0.34572 0.0
C254 C 0.211 0.82786 0.35531 0.0
C255 C 0.1899 0.86169 0.38687 0.0
H256 H 0.41866 0.93053 0.57758 0.0
H257 H 0.46487 0.80642 0.49159 0.0
H258 H 0.41326 0.75282 0.53645 0.0
H259 H 0.35445 0.74089 0.59954 0.0
H260 H 0.30735 0.86476 0.68526 0.0
H261 H 0.3596 0.91847 0.64102 0.0
C262 C 0.4176 0.89173 0.56876 0.0
C263 C 0.44581 0.87268 0.53117 0.0
C264 C 0.38746 0.86095 0.59456 0.0
C265 C 0.44368 0.82226 0.52023 0.0
C266 C 0.41407 0.79148 0.54588 0.0
C267 C 0.3555 0.77964 0.6086 0.0
C268 C 0.32682 0.7986 0.64578 0.0
C269 C 0.38568 0.81041 0.58299 0.0
C270 C 0.32887 0.84901 0.65685 0.0
C271 C 0.35885 0.87982 0.63157 0.0
H272 H 0.3673 0.03807 0.9291 0.0
H273 H 0.4928 0.10575 0.88056 0.0
H274 H 0.44833 0.16338 0.83063 0.0
H275 H 0.37383 0.19451 0.80045 0.0
H276 H 0.24839 0.12696 0.84939 0.0
H277 H 0.29287 0.06947 0.89936 0.0
C278 C 0.38503 0.0654 0.90763 0.0
C279 C 0.43347 0.06738 0.90867 0.0
C280 C 0.35921 0.09853 0.87898 0.0
C281 C 0.45565 0.10322 0.88056 0.0
C282 C 0.4302 0.13625 0.85193 0.0
C283 C 0.35613 0.16724 0.82201 0.0
C284 C 0.30769 0.16518 0.82098 0.0
C285 C 0.38197 0.13423 0.85081 0.0
C286 C 0.28554 0.12953 0.84935 0.0
C287 C 0.31099 0.09656 0.87799 0.0
H288 H 0.6409 0.32138 0.81244 0.0
H289 H 0.70933 0.25251 0.93476 0.0
H290 H 0.65997 0.29775 0.99144 0.0
H291 H 0.59827 0.35782 0.00678 0.0
H292 H 0.52859 0.42618 0.88503 0.0
H293 H 0.57717 0.38001 0.82793 0.0
C294 C 0.64505 0.31631 0.85149 0.0
C295 C 0.67905 0.28366 0.86917 0.0
C296 C 0.61617 0.34227 0.88413 0.0
C297 C 0.68358 0.27733 0.91996 0.0
C298 C 0.65531 0.30323 0.95252 0.0
C299 C 0.5935 0.36255 0.96776 0.0
C300 C 0.55979 0.39565 0.95038 0.0
C301 C 0.62159 0.3359 0.93507 0.0
C302 C 0.55414 0.40099 0.89959 0.0
C303 C 0.58206 0.37468 0.86682 0.0
H304 H 0.91991 0.4445 0.08509 0.0
H305 H 0.93228 0.32324 0.98378 0.0
H306 H 0.881 0.27458 0.0341 0.0
H307 H 0.83286 0.2657 0.10688 0.0
H308 H 0.82023 0.38594 0.20917 0.0
H309 H 0.87113 0.43547 0.15851 0.0
C310 C 0.91138 0.40744 0.074 0.0
C311 C 0.93013 0.38773 0.03055 0.0
C312 C 0.88171 0.37933 0.10331 0.0
C313 C 0.91857 0.33955 0.01692 0.0
C314 C 0.88913 0.31156 0.04572 0.0
C315 C 0.84109 0.30278 0.11818 0.0
C316 C 0.82258 0.32194 0.16191 0.0
C317 C 0.87053 0.331 0.08898 0.0
C318 C 0.83388 0.37011 0.17578 0.0
C319 C 0.86306 0.39852 0.14679 0.0
H320 H 0.87231 0.63185 0.49348 0.0
H321 H 0.95116 0.58087 0.3694 0.0
H322 H 0.90406 0.63158 0.31501 0.0
H323 H 0.83983 0.69019 0.30239 0.0
H324 H 0.76187 0.74127 0.42714 0.0
H325 H 0.80907 0.69077 0.48115 0.0
C326 C 0.87933 0.63181 0.45456 0.0
C327 C 0.91533 0.60242 0.43572 0.0
C328 C 0.85211 0.66112 0.42341 0.0
C329 C 0.92377 0.60306 0.38508 0.0
C330 C 0.89677 0.63206 0.35385 0.0
C331 C 0.83317 0.69027 0.34138 0.0
C332 C 0.79721 0.71961 0.36049 0.0
C333 C 0.86073 0.66117 0.37256 0.0
C334 C 0.78927 0.71926 0.41123 0.0
C335 C 0.81629 0.6903 0.44229 0.0
H336 H 0.62478 0.60435 0.49934 0.0
H337 H 0.53339 0.56195 0.61569 0.0
H338 H 0.5799 0.60724 0.67458 0.0
H339 H 0.64695 0.65912 0.69344 0.0
H340 H 0.73712 0.70236 0.57624 0.0
H341 H 0.69091 0.65664 0.51783 0.0
C342 C 0.61493 0.60497 0.53756 0.0
C343 C 0.57551 0.57958 0.55284 0.0
C344 C 0.64179 0.63131 0.57135 0.0
C345 C 0.56342 0.58111 0.60265 0.0
C346 C 0.5901 0.607 0.63649 0.0
C347 C 0.65656 0.65843 0.65515 0.0
C348 C 0.69565 0.68423 0.63951 0.0
C349 C 0.62945 0.63222 0.62133 0.0
C350 C 0.70729 0.68304 0.58957 0.0
C351 C 0.68083 0.65681 0.55596 0.0
H352 H 0.20142 0.19176 0.41632 0.0
H353 H 0.3441 0.18216 0.45862 0.0
H354 H 0.32201 0.17637 0.54447 0.0
H355 H 0.26361 0.19255 0.60744 0.0
H356 H 0.12152 0.20951 0.56495 0.0
H357 H 0.14166 0.19304 0.4799 0.0
C358 C 0.22755 0.18662 0.44421 0.0
C359 C 0.27426 0.18796 0.43126 0.0
C360 C 0.21472 0.18575 0.49378 0.0
C361 C 0.30785 0.18169 0.4678 0.0
C362 C 0.2953 0.17876 0.51695 0.0
C363 C 0.23691 0.19098 0.57978 0.0
C364 C 0.19132 0.203 0.5923 0.0
C365 C 0.24901 0.18356 0.53051 0.0
C366 C 0.15704 0.20102 0.55605 0.0
C367 C 0.16854 0.19186 0.50732 0.0
H368 H 0.05774 0.92314 0.7773 0.0
H369 H 0.04924 0.0702 0.83549 0.0
H370 H 0.05609 0.10376 0.75303 0.0
H371 H 0.043 0.08982 0.66524 0.0
H372 H 0.05028 0.94236 0.60735 0.0
H373 H 0.06818 0.91096 0.68853 0.0
C374 C 0.05908 0.96257 0.77209 0.0
C375 C 0.05106 0.99422 0.81202 0.0
C376 C 0.06184 0.98154 0.72456 0.0
C377 C 0.05426 0.04513 0.80512 0.0
C378 C 0.05768 0.06433 0.75792 0.0
C379 C 0.04946 0.05086 0.67018 0.0
C380 C 0.04329 0.01821 0.63072 0.0
C381 C 0.05795 0.03272 0.71732 0.0
C382 C 0.05351 0.96817 0.63732 0.0
C383 C 0.06316 0.95004 0.68394 0.0
H384 H 0.17654 0.79343 0.94396 0.0
H385 H 0.31217 0.78027 0.88091 0.0
H386 H 0.3462 0.78163 0.96246 0.0
H387 H 0.33593 0.76738 0.05006 0.0
H388 H 0.2005 0.7783 0.11352 0.0
H389 H 0.16818 0.79908 0.03353 0.0
C390 C 0.21366 0.79251 0.94801 0.0
C391 C 0.24174 0.78545 0.90658 0.0
C392 C 0.23302 0.79224 -0.00497 0.0
C393 C 0.28976 0.78527 0.91219 0.0
C394 C 0.30928 0.78559 0.95884 0.0
C395 C 0.29948 0.77561 0.04654 0.0
C396 C 0.27038 0.77008 0.08715 0.0
C397 C 0.28104 0.78605 0.00036 0.0
C398 C 0.22348 0.78186 0.0826 0.0
C399 C 0.20492 0.79312 0.03676 0.0
H400 H 0.45952 0.06262 0.28457 0.0
H401 H 0.48558 0.91566 0.3359 0.0
H402 H 0.48393 0.88489 0.25178 0.0
H403 H 0.49289 0.90311 0.16492 0.0
H404 H 0.46963 0.05076 0.11304 0.0
H405 H 0.4499 0.07719 0.19569 0.0
C406 C 0.46355 0.02367 0.27734 0.0
C407 C 0.47399 0.99152 0.31608 0.0
C408 C 0.46381 0.0065 0.22887 0.0
C409 C 0.4779 0.94102 0.30658 0.0
C410 C 0.4775 0.92354 0.25853 0.0
C411 C 0.48281 0.94101 0.17152 0.0
C412 C 0.48443 0.97533 0.13318 0.0
C413 C 0.47337 0.95644 0.21943 0.0
C414 C 0.46977 0.02381 0.14206 0.0
C415 C 0.45904 0.03914 0.18954 0.0
H416 H 0.44069 0.29925 0.21012 0.0
H417 H 0.41598 0.14855 0.24908 0.0
H418 H 0.4984 0.13043 0.24292 0.0
H419 H 0.57677 0.1606 0.24145 0.0
H420 H 0.60246 0.31214 0.20611 0.0
H421 H 0.52036 0.32532 0.19116 0.0
C422 C 0.45321 0.26198 0.21534 0.0
C423 C 0.42247 0.2253 0.23042 0.0
C424 C 0.50065 0.25188 0.21226 0.0
C425 C 0.4389 0.17721 0.23708 0.0
C426 C 0.486 0.16692 0.23396 0.0
C427 C 0.56457 0.19646 0.22976 0.0
C428 C 0.59555 0.23576 0.22648 0.0
C429 C 0.5172 0.20447 0.22389 0.0
C430 C 0.57932 0.28146 0.20983 0.0
C431 C 0.53219 0.28925 0.20212 0.0
H432 H 0.08256 0.31288 0.41536 0.0
H433 H 0.94462 0.37274 0.41968 0.0
H434 H 0.91324 0.29065 0.41039 0.0
H435 H 0.92544 0.20229 0.42348 0.0
H436 H 0.06311 0.14215 0.42296 0.0
H437 H 0.09416 0.22364 0.40687 0.0
C438 C 0.04566 0.30813 0.41242 0.0
C439 C 0.01596 0.34866 0.41981 0.0
C440 C 0.0278 0.26056 0.40865 0.0
C441 C 0.96829 0.34216 0.4148 0.0
C442 C 0.95025 0.29506 0.41 0.0
C443 C 0.96211 0.20684 0.41798 0.0
C444 C 0.99208 0.16672 0.4254 0.0
C445 C 0.97969 0.25394 0.41034 0.0
C446 C 0.03942 0.1726 0.41757 0.0
C447 C 0.0572 0.21933 0.40901 0.0
H448 H 0.93137 0.83439 0.72209 0.0
H449 H 0.89043 0.68338 0.70594 0.0
H450 H 0.97076 0.65912 0.69249 0.0
H451 H 0.05255 0.67841 0.70392 0.0
H452 H 0.09332 0.82883 0.72363 0.0
H453 H 0.01274 0.85553 0.71771 0.0
C454 C 0.93982 0.79625 0.71451 0.0
C455 C 0.90507 0.76059 0.71616 0.0
C456 C 0.98608 0.78229 0.70849 0.0
C457 C 0.91647 0.71153 0.70529 0.0
C458 C 0.96243 0.69752 0.69816 0.0
C459 C 0.0439 0.71724 0.70502 0.0
C460 C 0.07863 0.75166 0.71449 0.0
C461 C 0.99761 0.7322 0.70238 0.0
C462 C 0.06722 0.8018 0.71585 0.0
C463 C 0.02119 0.81702 0.71292 0.0
H464 H 0.42262 0.69518 0.94114 0.0
H465 H 0.55486 0.62219 0.94484 0.0
H466 H 0.59254 0.69894 0.92346 0.0
H467 H 0.58852 0.78952 0.92788 0.0
H468 H 0.45611 0.86233 0.92548 0.0
H469 H 0.41806 0.78308 0.92064 0.0
C470 C 0.45959 0.69582 0.9358 0.0
C471 C 0.48613 0.65361 0.94607 0.0
C472 C 0.4811 0.74037 0.92498 0.0
C473 C 0.53378 0.65442 0.93785 0.0
C474 C 0.5554 0.69851 0.92631 0.0
C475 C 0.55138 0.78804 0.92453 0.0
C476 C 0.52507 0.83156 0.92871 0.0
C477 C 0.52962 0.74226 0.9234 0.0
C478 C 0.47712 0.82935 0.92308 0.0
C479 C 0.45526 0.78395 0.92107 0.0
H480 H 0.59941 0.71396 0.27066 0.0
H481 H 0.55762 0.8572 0.32183 0.0
H482 H 0.47772 0.82938 0.32855 0.0
H483 H 0.41865 0.77141 0.30016 0.0
H484 H 0.46202 0.63155 0.24029 0.0
H485 H 0.54204 0.65274 0.25398 0.0
C486 C 0.5731 0.73865 0.2849 0.0
C487 C 0.58418 0.78749 0.29551 0.0
C488 C 0.52707 0.72385 0.28486 0.0
C489 C 0.54972 0.81935 0.31334 0.0
C490 C 0.50405 0.80374 0.31647 0.0
C491 C 0.4455 0.74479 0.29177 0.0
C492 C 0.43424 0.7004 0.26839 0.0
C493 C 0.49194 0.75709 0.29926 0.0
C494 C 0.46956 0.66632 0.25773 0.0
C495 C 0.51543 0.678 0.2659 0.0
H496 H 0.56907 0.18777 0.52232 0.0
H497 H 0.43341 0.12573 0.53059 0.0
H498 H 0.40146 0.20603 0.55326 0.0
H499 H 0.41021 0.2956 0.55301 0.0
H500 H 0.54581 0.35766 0.54162 0.0
H501 H 0.57974 0.27548 0.53959 0.0
C502 C 0.53266 0.19161 0.53036 0.0
C503 C 0.50344 0.15126 0.52378 0.0
C504 C 0.51446 0.23797 0.54244 0.0
C505 C 0.45654 0.15634 0.53514 0.0
C506 C 0.43821 0.20233 0.54773 0.0
C507 C 0.44731 0.29119 0.55171 0.0
C508 C 0.4753 0.33275 0.54613 0.0
C509 C 0.46652 0.24377 0.54894 0.0
C510 C 0.52335 0.32642 0.54544 0.0
C511 C 0.54281 0.27933 0.54371 0.0
H512 H 0.05955 0.18842 0.80027 0.0
H513 H 0.03671 0.3451 0.80002 0.0
H514 H 0.95477 0.33323 0.81422 0.0
H515 H 0.88859 0.27862 0.80499 0.0
H516 H 0.91103 0.12201 0.79983 0.0
H517 H 0.99335 0.13356 0.81069 0.0
C518 C 0.03687 0.21993 0.80492 0.0
C519 C 0.05396 0.26745 0.79783 0.0
C520 C 0.9893 0.21287 0.81095 0.0
C521 C 0.02419 0.30802 0.8043 0.0
C522 C 0.97723 0.30131 0.81212 0.0
C523 C 0.91131 0.24697 0.80817 0.0
C524 C 0.89392 0.19965 0.80038 0.0
C525 C 0.95905 0.25391 0.81222 0.0
C526 C 0.92376 0.15894 0.8048 0.0
C527 C 0.971 0.1655 0.81057 0.0
H528 H 0.04701 0.83119 0.00657 0.0
H529 H 0.90075 0.81173 0.99092 0.0
H530 H 0.90972 0.72369 0.00429 0.0
H531 H 0.96049 0.65122 0.00352 0.0
H532 H 0.10735 0.67028 0.01187 0.0
H533 H 0.09676 0.75888 0.01931 0.0
C534 C 0.01702 0.80786 0.00781 0.0
C535 C 0.97342 0.82775 -0.00279 0.0
C536 C 0.02262 0.75684 0.01349 0.0
C537 C 0.93479 0.79709 -0.00149 0.0
C538 C 0.93988 0.74668 0.00595 0.0
C539 C 0.99006 0.67463 0.00875 0.0
C540 C 0.0346 0.65431 0.00649 0.0
C541 C 0.98386 0.72584 0.01096 0.0
C542 C 0.07266 0.68514 0.013 0.0
C543 C 0.06669 0.7359 0.01702 0.0
H544 H 0.22506 0.4132 0.33395 0.0
H545 H 0.23451 0.35638 0.18695 0.0
H546 H 0.22711 0.43925 0.15449 0.0
H547 H 0.23542 0.52804 0.16909 0.0
H548 H 0.22733 0.58504 0.31575 0.0
H549 H 0.21504 0.50184 0.34708 0.0
C550 C 0.22403 0.41893 0.29473 0.0
C551 C 0.23147 0.379 0.26288 0.0
C552 C 0.2207 0.46684 0.27632 0.0
C553 C 0.2292 0.3866 0.21222 0.0
C554 C 0.22541 0.43414 0.19362 0.0
C555 C 0.22979 0.52241 0.20775 0.0
C556 C 0.2338 0.56224 0.2403 0.0
C557 C 0.22387 0.47463 0.22545 0.0
C558 C 0.22527 0.55476 0.29019 0.0
C559 C 0.21865 0.5073 0.3081 0.0
H560 H 0.69718 0.08038 0.79593 0.0
H561 H 0.69716 0.05805 0.63991 0.0
H562 H 0.68749 0.96972 0.65156 0.0
H563 H 0.70211 0.89912 0.70553 0.0
H564 H 0.70674 0.92217 0.86145 0.0
H565 H 0.69029 0.00924 0.85021 0.0
C566 C 0.69333 0.05647 0.76444 0.0
C567 C 0.69938 0.07537 0.71721 0.0
C568 C 0.69018 0.00551 0.77132 0.0
C569 C 0.69383 0.04401 0.67673 0.0
C570 C 0.6888 0.99351 0.6833 0.0
C571 C 0.69794 0.92295 0.73708 0.0
C572 C 0.70705 0.90463 0.78406 0.0
C573 C 0.69057 0.97361 0.73038 0.0
C574 C 0.70106 0.93575 0.82473 0.0
C575 C 0.69203 0.98568 0.8184 0.0
H576 H 0.32612 0.44255 0.96581 0.0
H577 H 0.29497 0.51709 0.1015 0.0
H578 H 0.21355 0.50142 0.09011 0.0
H579 H 0.15078 0.47869 0.03671 0.0
H580 H 0.1798 0.41149 0.89735 0.0
H581 H 0.26204 0.40756 0.91763 0.0
C582 C 0.30168 0.45398 -0.00638 0.0
C583 C 0.3167 0.48189 0.03387 0.0
C584 C 0.25434 0.44527 0.98685 0.0
C585 C 0.28445 0.49634 0.06963 0.0
C586 C 0.23779 0.4872 0.06345 0.0
C587 C 0.17492 0.46165 0.01145 0.0
C588 C 0.15942 0.4455 0.96569 0.0
C589 C 0.2222 0.46336 0.02145 0.0
C590 C 0.19109 0.42415 0.93292 0.0
C591 C 0.23812 0.42273 0.94411 0.0
H592 H 0.78757 0.12012 0.21732 0.0
H593 H 0.80156 0.0928 0.37174 0.0
H594 H 0.80843 0.00483 0.35613 0.0
H595 H 0.7875 0.93608 0.30124 0.0
H596 H 0.76687 0.96484 0.14793 0.0
H597 H 0.78517 0.05111 0.16037 0.0
C598 C 0.79379 0.09504 0.2474 0.0
C599 C 0.79285 0.11272 0.29562 0.0
C600 C 0.79465 0.04427 0.23847 0.0
C601 C 0.80126 0.07987 0.33425 0.0
C602 C 0.80451 0.02942 0.32542 0.0
C603 C 0.78883 0.9609 0.27036 0.0
C604 C 0.77482 0.94456 0.22398 0.0
C605 C 0.79772 0.01105 0.27808 0.0
C606 C 0.77673 0.97697 0.18415 0.0
C607 C 0.78704 0.02632 0.19122 0.0
H608 H 0.85319 0.02401 0.02195 0.0
H609 H 0.83364 0.05328 0.8686 0.0
H610 H 0.75069 0.06066 0.88094 0.0
H611 H 0.68317 0.0392 0.93189 0.0
H612 H 0.70435 0.00321 0.08364 0.0
H613 H 0.78639 0.01817 0.07542 0.0
C614 C 0.83091 0.03365 0.99156 0.0
C615 C 0.84941 0.03726 0.94438 0.0
C616 C 0.78301 0.03506 -0.0016 0.0
C617 C 0.82007 0.04965 0.90528 0.0
C618 C 0.77251 0.05331 0.91221 0.0
C619 C 0.70564 0.03597 0.96333 0.0
C620 C 0.68791 0.01881 0.00783 0.0
C621 C 0.75337 0.043 0.95804 0.0
C622 C 0.71729 0.01537 0.04861 0.0
C623 C 0.76428 0.02386 0.04405 0.0
H624 H 0.25459 0.55589 0.8314 0.0
H625 H 0.27563 0.59707 0.68098 0.0
H626 H 0.28569 0.51009 0.65881 0.0
H627 H 0.26663 0.4245 0.67852 0.0
H628 H 0.24333 0.38417 0.82866 0.0
H629 H 0.25512 0.46943 0.85405 0.0
C630 C 0.26201 0.54605 0.79375 0.0
C631 C 0.26259 0.58268 0.75756 0.0
C632 C 0.26565 0.49635 0.78084 0.0
C633 C 0.27393 0.5695 0.70935 0.0
C634 C 0.27898 0.51992 0.69649 0.0
C635 C 0.26578 0.43407 0.71703 0.0
C636 C 0.25318 0.39849 0.75161 0.0
C637 C 0.27165 0.48315 0.73134 0.0
C638 C 0.2528 0.41098 0.80141 0.0
C639 C 0.25903 0.4597 0.81591 0.0
H640 H 0.16199 0.55307 0.44389 0.0
H641 H 0.16583 0.53985 0.60069 0.0
H642 H 0.24854 0.55364 0.60038 0.0
H643 H 0.32069 0.5412 0.55397 0.0
H644 H 0.31658 0.54901 0.39683 0.0
H645 H 0.2342 0.56735 0.39947 0.0
C646 C 0.18072 0.55519 0.47813 0.0
C647 C 0.15822 0.54416 0.52205 0.0
C648 C 0.22889 0.56023 0.47767 0.0
C649 C 0.18275 0.54719 0.56623 0.0
C650 C 0.2302 0.55429 0.56613 0.0
C651 C 0.30208 0.54909 0.52047 0.0
C652 C 0.32429 0.54291 0.47531 0.0
C653 C 0.25407 0.55658 0.52184 0.0
C654 C 0.2999 0.55299 0.43206 0.0
C655 C 0.25268 0.5626 0.43337 0.0
H656 H 0.69617 0.72056 0.91358 0.0
H657 H 0.84032 0.69476 0.94139 0.0
H658 H 0.82619 0.69566 0.02933 0.0
H659 H 0.77587 0.72174 0.09718 0.0
H660 H 0.63264 0.75298 0.06819 0.0
H661 H 0.64342 0.73218 0.9826 0.0
C662 C 0.72413 0.71308 0.93884 0.0
C663 C 0.76923 0.70809 0.92106 0.0
C664 C 0.71613 0.71604 0.98945 0.0
C665 C 0.80526 0.69893 0.95428 0.0
C666 C 0.79729 0.69997 0.00463 0.0
C667 C 0.74674 0.72245 0.07242 0.0
C668 C 0.70381 0.73993 0.08895 0.0
C669 C 0.75332 0.71132 0.0226 0.0
C670 C 0.66633 0.74047 0.05635 0.0
C671 C 0.67238 0.72846 0.0072 0.0
H672 H 0.5298 0.52377 0.34082 0.0
H673 H 0.47641 0.37806 0.31844 0.0
H674 H 0.48251 0.3878 0.23081 0.0
H675 H 0.49205 0.44158 0.16022 0.0
H676 H 0.54092 0.58885 0.18188 0.0
H677 H 0.55216 0.57218 0.26931 0.0
C678 C 0.52122 0.49345 0.31683 0.0
C679 C 0.5016 0.45086 0.33636 0.0
C680 C 0.52487 0.49903 0.26582 0.0
C681 C 0.49093 0.41175 0.30461 0.0
C682 C 0.49471 0.417 0.25418 0.0
C683 C 0.50637 0.46965 0.1838 0.0
C684 C 0.51518 0.51644 0.16489 0.0
C685 C 0.50988 0.46117 0.23429 0.0
C686 C 0.53347 0.55262 0.19585 0.0
C687 C 0.53928 0.5435 0.24577 0.0
H688 H 0.79255 0.31329 0.42602 0.0
H689 H 0.64582 0.32339 0.44674 0.0
H690 H 0.65622 0.32644 0.53514 0.0
H691 H 0.70535 0.30326 0.60474 0.0
H692 H 0.8516 0.28683 0.58308 0.0
H693 H 0.84331 0.3101 0.4976 0.0
C694 C 0.76304 0.31846 0.44981 0.0
C695 C 0.71851 0.31702 0.43005 0.0
C696 C 0.76917 0.31761 0.50077 0.0
C697 C 0.68049 0.32373 0.46127 0.0
C698 C 0.68638 0.32493 0.5119 0.0
C699 C 0.73555 0.30667 0.58179 0.0
C700 C 0.77879 0.29206 0.59979 0.0
C701 C 0.73032 0.31831 0.53202 0.0
C702 C 0.81773 0.29691 0.56971 0.0
C703 C 0.81302 0.31004 0.5207 0.0
H704 H 0.95416 0.53302 0.63821 0.0
H705 H 0.97541 0.37658 0.6506 0.0
H706 H 0.96674 0.3818 0.73882 0.0
H707 H 0.97254 0.43336 0.81274 0.0
H708 H 0.9563 0.59021 0.79984 0.0
H709 H 0.9412 0.58189 0.71243 0.0
C710 C 0.95519 0.49984 0.66003 0.0
C711 C 0.96693 0.45481 0.63801 0.0
C712 C 0.95161 0.50323 0.71118 0.0
C713 C 0.96754 0.41202 0.66678 0.0
C714 C 0.96277 0.41493 0.71744 0.0
C715 C 0.9639 0.46544 0.79105 0.0
C716 C 0.96622 0.51231 0.81228 0.0
C717 C 0.95779 0.46073 0.74025 0.0
C718 C 0.95523 0.55375 0.78393 0.0
C719 C 0.94715 0.54913 0.73389 0.0
H720 H 0.83331 0.96634 0.44016 0.0
H721 H 0.81757 0.00784 0.59161 0.0
H722 H 0.73536 0.99419 0.58661 0.0
H723 H 0.66626 0.98499 0.53621 0.0
H724 H 0.68064 0.94974 0.38342 0.0
H725 H 0.76409 0.94303 0.39278 0.0
C726 C 0.812 0.97097 0.47239 0.0
C727 C 0.8315 0.98907 0.51585 0.0
C728 C 0.76406 0.96413 0.46914 0.0
C729 C 0.80339 -0.00522 0.55737 0.0
C730 C 0.7562 0.98693 0.55469 0.0
C731 C 0.68766 0.97435 0.5054 0.0
C732 C 0.66755 0.96804 0.45924 0.0
C733 C 0.73583 0.97378 0.5103 0.0
C734 C 0.69558 0.95496 0.41933 0.0
C735 C 0.74336 0.95188 0.4245 0.0
loop_
_geom_bond_atom_site_label_1
_geom_bond_atom_site_label_2
_geom_bond_distance
_geom_bond_site_symmetry_2
_ccdc_geom_bond_type
Zn0 O3 2.031 . S
Zn0 O5 2.049 . S
Zn0 O10 2.067 . S
Zn1 O2 1.962 . S
Zn1 O4 1.986 . S
Zn1 O6 1.996 . S
Zn1 O9 1.943 . S
O2 Zn1 1.962 . S
O2 C7 1.254 . S
O3 Zn0 2.031 . S
O3 C7 1.269 . S
O4 Zn1 1.986 . S
O4 C11 1.262 . S
O5 Zn0 2.049 . S
O5 C13 1.260 . S
O6 Zn1 1.996 . S
O6 C13 1.257 . S
C7 O2 1.254 . S
C7 O3 1.269 . S
C8 O9 1.249 . S
C8 O10 1.270 . S
O9 Zn1 1.943 . S
O9 C8 1.249 . S
O10 Zn0 2.067 . S
O10 C8 1.270 . S
C11 O4 1.262 . S
C11 O12 1.232 . S
O12 C11 1.232 . S
C13 O5 1.260 . S
C13 O6 1.257 . S
Zn14 O17 2.031 . S
Zn14 O19 2.049 . S
Zn14 O24 2.067 . S
Zn15 O16 1.962 1_545 S
Zn15 O18 1.986 1_645 S
Zn15 O20 1.996 . S
Zn15 O23 1.943 1_545 S
O16 Zn15 1.962 1_565 S
O16 C21 1.254 1_565 S
O17 Zn14 2.031 . S
O17 C21 1.270 . S
O18 Zn15 1.986 1_465 S
O18 C25 1.262 . S
O19 Zn14 2.049 . S
O19 C27 1.260 . S
O20 Zn15 1.996 . S
O20 C27 1.257 . S
C21 O16 1.254 1_545 S
C21 O17 1.270 . S
C22 O23 1.249 1_545 S
C22 O24 1.270 . S
O23 Zn15 1.943 1_565 S
O23 C22 1.249 1_565 S
O24 Zn14 2.067 . S
O24 C22 1.270 . S
C25 O18 1.262 . S
C25 O26 1.232 1_455 S
O26 C25 1.232 1_655 S
C27 O19 1.260 . S
C27 O20 1.257 . S
Zn28 O31 2.031 . S
Zn28 O33 2.049 . S
Zn28 O38 2.067 . S
Zn29 O30 1.962 . S
Zn29 O32 1.986 . S
Zn29 O34 1.996 . S
Zn29 O37 1.943 . S
O30 Zn29 1.962 . S
O30 C35 1.254 . S
O31 Zn28 2.031 . S
O31 C35 1.269 . S
O32 Zn29 1.986 . S
O32 C39 1.262 . S
O33 Zn28 2.049 . S
O33 C41 1.260 . S
O34 Zn29 1.996 . S
O34 C41 1.257 . S
C35 O30 1.254 . S
C35 O31 1.269 . S
C36 O37 1.249 . S
C36 O38 1.270 . S
O37 Zn29 1.943 . S
O37 C36 1.249 . S
O38 Zn28 2.067 . S
O38 C36 1.270 . S
C39 O32 1.262 . S
C39 O40 1.232 . S
O40 C39 1.232 . S
C41 O33 1.260 . S
C41 O34 1.257 . S
Zn42 O45 2.031 . S
Zn42 O47 2.049 . S
Zn42 O52 2.067 . S
Zn43 O44 1.962 1_564 S
Zn43 O46 1.986 1_564 S
Zn43 O48 1.996 . S
Zn43 O51 1.943 1_565 S
O44 Zn43 1.962 1_546 S
O44 C49 1.254 1_546 S
O45 Zn42 2.031 . S
O45 C49 1.270 . S
O46 Zn43 1.986 1_546 S
O46 C53 1.262 . S
O47 Zn42 2.049 . S
O47 C55 1.260 . S
O48 Zn43 1.996 . S
O48 C55 1.257 . S
C49 O44 1.254 1_564 S
C49 O45 1.270 . S
C50 O51 1.249 1_565 S
C50 O52 1.270 . S
O51 Zn43 1.943 1_545 S
O51 C50 1.249 1_545 S
O52 Zn42 2.067 . S
O52 C50 1.270 . S
C53 O46 1.262 . S
C53 O54 1.232 . S
O54 C53 1.232 . S
C55 O47 1.260 . S
C55 O48 1.257 . S
Zn56 O59 2.031 . S
Zn56 O61 2.049 . S
Zn56 O66 2.067 . S
Zn57 O58 1.962 . S
Zn57 O60 1.986 . S
Zn57 O62 1.996 . S
Zn57 O65 1.943 . S
O58 Zn57 1.962 . S
O58 C63 1.254 . S
O59 Zn56 2.031 . S
O59 C63 1.269 . S
O60 Zn57 1.986 . S
O60 C67 1.262 . S
O61 Zn56 2.049 . S
O61 C69 1.260 . S
O62 Zn57 1.996 . S
O62 C69 1.257 . S
C63 O58 1.254 . S
C63 O59 1.269 . S
C64 O65 1.249 . S
C64 O66 1.270 . S
O65 Zn57 1.943 . S
O65 C64 1.249 . S
O66 Zn56 2.067 . S
O66 C64 1.270 . S
C67 O60 1.262 . S
C67 O68 1.232 . S
O68 C67 1.232 . S
C69 O61 1.260 . S
C69 O62 1.257 . S
Zn70 O73 2.031 . S
Zn70 O75 2.049 . S
Zn70 O80 2.067 . S
Zn71 O72 1.962 1_545 S
Zn71 O74 1.986 1_545 S
Zn71 O76 1.996 . S
Zn71 O79 1.943 1_545 S
O72 Zn71 1.962 1_565 S
O72 C77 1.254 1_565 S
O73 Zn70 2.031 . S
O73 C77 1.270 . S
O74 Zn71 1.986 1_565 S
O74 C81 1.262 . S
O75 Zn70 2.049 . S
O75 C83 1.260 . S
O76 Zn71 1.996 . S
O76 C83 1.257 . S
C77 O72 1.254 1_545 S
C77 O73 1.270 . S
C78 O79 1.249 1_545 S
C78 O80 1.270 . S
O79 Zn71 1.943 1_565 S
O79 C78 1.249 1_565 S
O80 Zn70 2.067 . S
O80 C78 1.270 . S
C81 O74 1.262 . S
C81 O82 1.232 . S
O82 C81 1.232 . S
C83 O75 1.260 . S
C83 O76 1.257 . S
Zn84 O87 2.031 . S
Zn84 O89 2.049 . S
Zn84 O94 2.067 . S
Zn85 O86 1.962 . S
Zn85 O88 1.986 . S
Zn85 O90 1.996 . S
Zn85 O93 1.943 . S
O86 Zn85 1.962 . S
O86 C91 1.254 . S
O87 Zn84 2.031 . S
O87 C91 1.269 . S
O88 Zn85 1.986 . S
O88 C95 1.262 . S
O89 Zn84 2.049 . S
O89 C97 1.260 . S
O90 Zn85 1.996 . S
O90 C97 1.257 . S
C91 O86 1.254 . S
C91 O87 1.269 . S
C92 O93 1.249 . S
C92 O94 1.270 . S
O93 Zn85 1.943 . S
O93 C92 1.249 . S
O94 Zn84 2.067 . S
O94 C92 1.270 . S
C95 O88 1.262 . S
C95 O96 1.232 . S
O96 C95 1.232 . S
C97 O89 1.260 . S
C97 O90 1.257 . S
Zn98 O101 2.031 . S
Zn98 O103 2.049 . S
Zn98 O108 2.067 . S
Zn99 O100 1.962 1_566 S
Zn99 O102 1.986 1_666 S
Zn99 O104 1.996 . S
Zn99 O107 1.943 1_565 S
O100 Zn99 1.962 1_544 S
O100 C105 1.254 1_544 S
O101 Zn98 2.031 . S
O101 C105 1.270 . S
O102 Zn99 1.986 1_444 S
O102 C109 1.262 . S
O103 Zn98 2.049 . S
O103 C111 1.260 . S
O104 Zn99 1.996 . S
O104 C111 1.257 . S
C105 O100 1.254 1_566 S
C105 O101 1.270 . S
C106 O107 1.249 1_565 S
C106 O108 1.270 . S
O107 Zn99 1.943 1_545 S
O107 C106 1.249 1_545 S
O108 Zn98 2.067 . S
O108 C106 1.270 . S
C109 O102 1.262 . S
C109 O110 1.232 1_455 S
O110 C109 1.232 1_655 S
C111 O103 1.260 . S
C111 O104 1.257 . S
Zn112 O115 2.031 . S
Zn112 O117 2.049 . S
Zn112 O122 2.067 . S
Zn113 O114 1.962 . S
Zn113 O116 1.986 . S
Zn113 O118 1.996 . S
Zn113 O121 1.943 . S
O114 Zn113 1.962 . S
O114 C119 1.254 . S
O115 Zn112 2.031 . S
O115 C119 1.269 . S
O116 Zn113 1.986 . S
O116 C123 1.262 . S
O117 Zn112 2.049 . S
O117 C125 1.260 . S
O118 Zn113 1.996 . S
O118 C125 1.257 . S
C119 O114 1.254 . S
C119 O115 1.269 . S
C120 O121 1.249 . S
C120 O122 1.270 . S
O121 Zn113 1.943 . S
O121 C120 1.249 . S
O122 Zn112 2.067 . S
O122 C120 1.270 . S
C123 O116 1.262 . S
C123 O124 1.232 . S
O124 C123 1.232 . S
C125 O117 1.260 . S
C125 O118 1.257 . S
Zn126 O129 2.031 . S
Zn126 O131 2.049 . S
Zn126 O136 2.067 . S
Zn127 O128 1.962 1_556 S
Zn127 O130 1.986 1_456 S
Zn127 O132 1.996 . S
Zn127 O135 1.943 . S
O128 Zn127 1.962 1_554 S
O128 C133 1.254 1_554 S
O129 Zn126 2.031 . S
O129 C133 1.269 . S
O130 Zn127 1.986 1_654 S
O130 C137 1.262 . S
O131 Zn126 2.049 . S
O131 C139 1.260 . S
O132 Zn127 1.996 . S
O132 C139 1.257 . S
C133 O128 1.254 1_556 S
C133 O129 1.269 . S
C134 O135 1.249 . S
C134 O136 1.270 . S
O135 Zn127 1.943 . S
O135 C134 1.249 . S
O136 Zn126 2.067 . S
O136 C134 1.270 . S
C137 O130 1.262 . S
C137 O138 1.232 1_655 S
O138 C137 1.232 1_455 S
C139 O131 1.260 . S
C139 O132 1.257 . S
Zn140 O143 2.031 . S
Zn140 O145 2.049 . S
Zn140 O150 2.067 . S
Zn141 O142 1.962 . S
Zn141 O144 1.986 . S
Zn141 O146 1.996 . S
Zn141 O149 1.943 . S
O142 Zn141 1.962 . S
O142 C147 1.254 . S
O143 Zn140 2.031 . S
O143 C147 1.269 . S
O144 Zn141 1.986 . S
O144 C151 1.262 . S
O145 Zn140 2.049 . S
O145 C153 1.260 . S
O146 Zn141 1.996 . S
O146 C153 1.257 . S
C147 O142 1.254 . S
C147 O143 1.269 . S
C148 O149 1.249 . S
C148 O150 1.270 . S
O149 Zn141 1.943 . S
O149 C148 1.249 . S
O150 Zn140 2.067 . S
O150 C148 1.270 . S
C151 O144 1.262 . S
C151 O152 1.232 . S
O152 C151 1.232 . S
C153 O145 1.260 . S
C153 O146 1.257 . S
Zn154 O157 2.031 . S
Zn154 O159 2.049 . S
Zn154 O164 2.067 . S
Zn155 O156 1.962 . S
Zn155 O158 1.986 1_455 S
Zn155 O160 1.996 . S
Zn155 O163 1.943 . S
O156 Zn155 1.962 . S
O156 C161 1.254 . S
O157 Zn154 2.031 . S
O157 C161 1.269 . S
O158 Zn155 1.986 1_655 S
O158 C165 1.262 . S
O159 Zn154 2.049 . S
O159 C167 1.260 . S
O160 Zn155 1.996 . S
O160 C167 1.257 . S
C161 O156 1.254 . S
C161 O157 1.269 . S
C162 O163 1.249 . S
C162 O164 1.270 . S
O163 Zn155 1.943 . S
O163 C162 1.249 . S
O164 Zn154 2.067 . S
O164 C162 1.270 . S
C165 O158 1.262 . S
C165 O166 1.232 1_655 S
O166 C165 1.232 1_455 S
C167 O159 1.260 . S
C167 O160 1.257 . S
Zn168 O171 2.031 . S
Zn168 O173 2.049 . S
Zn168 O178 2.067 . S
Zn169 O170 1.962 1_554 S
Zn169 O172 1.986 1_554 S
Zn169 O174 1.996 . S
Zn169 O177 1.943 . S
O170 Zn169 1.962 1_556 S
O170 C175 1.254 1_556 S
O171 Zn168 2.031 . S
O171 C175 1.269 . S
O172 Zn169 1.986 1_556 S
O172 C179 1.262 . S
O173 Zn168 2.049 . S
O173 C181 1.260 . S
O174 Zn169 1.996 . S
O174 C181 1.257 . S
C175 O170 1.254 1_554 S
C175 O171 1.269 . S
C176 O177 1.249 . S
C176 O178 1.270 . S
O177 Zn169 1.943 . S
O177 C176 1.249 . S
O178 Zn168 2.067 . S
O178 C176 1.270 . S
C179 O172 1.262 . S
C179 O180 1.232 . S
O180 C179 1.232 . S
C181 O173 1.260 . S
C181 O174 1.257 . S
Zn182 O185 2.031 . S
Zn182 O187 2.049 . S
Zn182 O192 2.067 . S
Zn183 O184 1.962 . S
Zn183 O186 1.986 . S
Zn183 O188 1.996 . S
Zn183 O191 1.943 . S
O184 Zn183 1.962 . S
O184 C189 1.254 . S
O185 Zn182 2.031 . S
O185 C189 1.269 . S
O186 Zn183 1.986 . S
O186 C193 1.262 . S
O187 Zn182 2.049 . S
O187 C195 1.260 . S
O188 Zn183 1.996 . S
O188 C195 1.257 . S
C189 O184 1.254 . S
C189 O185 1.269 . S
C190 O191 1.249 . S
C190 O192 1.270 . S
O191 Zn183 1.943 . S
O191 C190 1.249 . S
O192 Zn182 2.067 . S
O192 C190 1.270 . S
C193 O186 1.262 . S
C193 O194 1.232 . S
O194 C193 1.232 . S
C195 O187 1.260 . S
C195 O188 1.257 . S
Zn196 O199 2.031 . S
Zn196 O201 2.049 . S
Zn196 O206 2.067 . S
Zn197 O198 1.962 . S
Zn197 O200 1.986 . S
Zn197 O202 1.996 . S
Zn197 O205 1.943 . S
O198 Zn197 1.962 . S
O198 C203 1.254 . S
O199 Zn196 2.031 . S
O199 C203 1.269 . S
O200 Zn197 1.986 . S
O200 C207 1.262 . S
O201 Zn196 2.049 . S
O201 C209 1.260 . S
O202 Zn197 1.996 . S
O202 C209 1.257 . S
C203 O198 1.254 . S
C203 O199 1.269 . S
C204 O205 1.249 . S
C204 O206 1.270 . S
O205 Zn197 1.943 . S
O205 C204 1.249 . S
O206 Zn196 2.067 . S
O206 C204 1.270 . S
C207 O200 1.262 . S
C207 O208 1.232 . S
O208 C207 1.232 . S
C209 O201 1.260 . S
C209 O202 1.257 . S
Zn210 O213 2.031 . S
Zn210 O215 2.049 . S
Zn210 O220 2.067 . S
Zn211 O212 1.962 . S
Zn211 O214 1.986 . S
Zn211 O216 1.996 . S
Zn211 O219 1.943 . S
O212 Zn211 1.962 . S
O212 C217 1.254 . S
O213 Zn210 2.031 . S
O213 C217 1.269 . S
O214 Zn211 1.986 . S
O214 C221 1.262 . S
O215 Zn210 2.049 . S
O215 C223 1.260 . S
O216 Zn211 1.996 . S
O216 C223 1.257 . S
C217 O212 1.254 . S
C217 O213 1.269 . S
C218 O219 1.249 . S
C218 O220 1.270 . S
O219 Zn211 1.943 . S
O219 C218 1.249 . S
O220 Zn210 2.067 . S
O220 C218 1.270 . S
C221 O214 1.262 . S
C221 O222 1.232 . S
O222 C221 1.232 . S
C223 O215 1.260 . S
C223 O216 1.257 . S
H224 C230 0.930 . S
H225 C233 0.930 . S
H226 C234 0.930 . S
H227 C235 0.930 . S
H228 C238 0.930 . S
H229 C239 0.930 . S
C230 H224 0.930 . S
C230 C231 1.355 . S
C230 C232 1.415 . S
C231 C230 1.355 . S
C231 C233 1.419 . S
C232 C230 1.415 . S
C232 C237 1.425 . S
C232 C239 1.409 . S
C233 H225 0.930 . S
C233 C231 1.419 . S
C233 C234 1.362 . S
C234 H226 0.930 . S
C234 C233 1.362 . S
C234 C237 1.409 . S
C235 H227 0.930 . S
C235 C236 1.355 . S
C235 C237 1.415 . S
C236 C235 1.355 . S
C236 C238 1.419 . S
C237 C232 1.425 . S
C237 C234 1.409 . S
C237 C235 1.415 . S
C238 H228 0.930 . S
C238 C236 1.419 . S
C238 C239 1.362 . S
C239 H229 0.930 . S
C239 C232 1.409 . S
C239 C238 1.362 . S
H240 C246 0.930 . S
H241 C249 0.930 . S
H242 C250 0.930 . S
H243 C251 0.930 . S
H244 C254 0.930 . S
H245 C255 0.930 . S
C246 H240 0.930 . S
C246 C247 1.355 . S
C246 C248 1.415 . S
C247 C246 1.355 . S
C247 C249 1.419 . S
C248 C246 1.415 . S
C248 C253 1.425 . S
C248 C255 1.409 . S
C249 H241 0.930 . S
C249 C247 1.419 . S
C249 C250 1.362 . S
C250 H242 0.930 . S
C250 C249 1.362 . S
C250 C253 1.409 . S
C251 H243 0.930 . S
C251 C252 1.355 . S
C251 C253 1.415 . S
C252 C251 1.355 . S
C252 C254 1.419 . S
C253 C248 1.425 . S
C253 C250 1.409 . S
C253 C251 1.415 . S
C254 H244 0.930 . S
C254 C252 1.419 . S
C254 C255 1.362 . S
C255 H245 0.930 . S
C255 C248 1.409 . S
C255 C254 1.362 . S
H256 C262 0.930 . S
H257 C265 0.930 . S
H258 C266 0.930 . S
H259 C267 0.930 . S
H260 C270 0.930 . S
H261 C271 0.930 . S
C262 H256 0.930 . S
C262 C263 1.355 . S
C262 C264 1.415 . S
C263 C262 1.355 . S
C263 C265 1.419 . S
C264 C262 1.415 . S
C264 C269 1.425 . S
C264 C271 1.409 . S
C265 H257 0.930 . S
C265 C263 1.419 . S
C265 C266 1.362 . S
C266 H258 0.930 . S
C266 C265 1.362 . S
C266 C269 1.409 . S
C267 H259 0.930 . S
C267 C268 1.355 . S
C267 C269 1.415 . S
C268 C267 1.355 . S
C268 C270 1.419 . S
C269 C264 1.425 . S
C269 C266 1.409 . S
C269 C267 1.415 . S
C270 H260 0.930 . S
C270 C268 1.419 . S
C270 C271 1.362 . S
C271 H261 0.930 . S
C271 C264 1.409 . S
C271 C270 1.362 . S
H272 C278 0.930 . S
H273 C281 0.930 . S
H274 C282 0.930 . S
H275 C283 0.930 . S
H276 C286 0.930 . S
H277 C287 0.930 . S
C278 H272 0.930 . S
C278 C279 1.355 . S
C278 C280 1.415 . S
C279 C278 1.355 . S
C279 C281 1.419 . S
C280 C278 1.415 . S
C280 C285 1.425 . S
C280 C287 1.409 . S
C281 H273 0.930 . S
C281 C279 1.419 . S
C281 C282 1.362 . S
C282 H274 0.930 . S
C282 C281 1.362 . S
C282 C285 1.409 . S
C283 H275 0.930 . S
C283 C284 1.355 . S
C283 C285 1.415 . S
C284 C283 1.355 . S
C284 C286 1.419 . S
C285 C280 1.425 . S
C285 C282 1.409 . S
C285 C283 1.415 . S
C286 H276 0.930 . S
C286 C284 1.419 . S
C286 C287 1.362 . S
C287 H277 0.930 . S
C287 C280 1.409 . S
C287 C286 1.362 . S
H288 C294 0.930 . S
H289 C297 0.930 . S
H290 C298 0.930 . S
H291 C299 0.930 . S
H292 C302 0.930 . S
H293 C303 0.930 . S
C294 H288 0.930 . S
C294 C295 1.355 . S
C294 C296 1.415 . S
C295 C294 1.355 . S
C295 C297 1.419 . S
C296 C294 1.415 . S
C296 C301 1.425 . S
C296 C303 1.409 . S
C297 H289 0.930 . S
C297 C295 1.419 . S
C297 C298 1.362 . S
C298 H290 0.930 . S
C298 C297 1.362 . S
C298 C301 1.409 . S
C299 H291 0.930 . S
C299 C300 1.355 . S
C299 C301 1.415 . S
C300 C299 1.355 . S
C300 C302 1.419 . S
C301 C296 1.425 . S
C301 C298 1.409 . S
C301 C299 1.415 . S
C302 H292 0.930 . S
C302 C300 1.419 . S
C302 C303 1.362 . S
C303 H293 0.930 . S
C303 C296 1.409 . S
C303 C302 1.362 . S
H304 C310 0.930 . S
H305 C313 0.930 . S
H306 C314 0.930 . S
H307 C315 0.930 . S
H308 C318 0.930 . S
H309 C319 0.930 . S
C310 H304 0.930 . S
C310 C311 1.355 . S
C310 C312 1.415 . S
C311 C310 1.355 . S
C311 C313 1.419 . S
C312 C310 1.415 . S
C312 C317 1.425 . S
C312 C319 1.409 . S
C313 H305 0.930 . S
C313 C311 1.419 . S
C313 C314 1.362 . S
C314 H306 0.930 . S
C314 C313 1.362 . S
C314 C317 1.409 . S
C315 H307 0.930 . S
C315 C316 1.355 . S
C315 C317 1.415 . S
C316 C315 1.355 . S
C316 C318 1.419 . S
C317 C312 1.425 . S
C317 C314 1.409 . S
C317 C315 1.415 . S
C318 H308 0.930 . S
C318 C316 1.419 . S
C318 C319 1.362 . S
C319 H309 0.930 . S
C319 C312 1.409 . S
C319 C318 1.362 . S
H320 C326 0.930 . S
H321 C329 0.930 . S
H322 C330 0.930 . S
H323 C331 0.930 . S
H324 C334 0.930 . S
H325 C335 0.930 . S
C326 H320 0.930 . S
C326 C327 1.355 . S
C326 C328 1.415 . S
C327 C326 1.355 . S
C327 C329 1.419 . S
C328 C326 1.415 . S
C328 C333 1.425 . S
C328 C335 1.409 . S
C329 H321 0.930 . S
C329 C327 1.419 . S
C329 C330 1.362 . S
C330 H322 0.930 . S
C330 C329 1.362 . S
C330 C333 1.409 . S
C331 H323 0.930 . S
C331 C332 1.355 . S
C331 C333 1.415 . S
C332 C331 1.355 . S
C332 C334 1.419 . S
C333 C328 1.425 . S
C333 C330 1.409 . S
C333 C331 1.415 . S
C334 H324 0.930 . S
C334 C332 1.419 . S
C334 C335 1.362 . S
C335 H325 0.930 . S
C335 C328 1.409 . S
C335 C334 1.362 . S
H336 C342 0.930 . S
H337 C345 0.930 . S
H338 C346 0.930 . S
H339 C347 0.930 . S
H340 C350 0.930 . S
H341 C351 0.930 . S
C342 H336 0.930 . S
C342 C343 1.355 . S
C342 C344 1.415 . S
C343 C342 1.355 . S
C343 C345 1.419 . S
C344 C342 1.415 . S
C344 C349 1.425 . S
C344 C351 1.409 . S
C345 H337 0.930 . S
C345 C343 1.419 . S
C345 C346 1.362 . S
C346 H338 0.930 . S
C346 C345 1.362 . S
C346 C349 1.409 . S
C347 H339 0.930 . S
C347 C348 1.355 . S
C347 C349 1.415 . S
C348 C347 1.355 . S
C348 C350 1.419 . S
C349 C344 1.425 . S
C349 C346 1.409 . S
C349 C347 1.415 . S
C350 H340 0.930 . S
C350 C348 1.419 . S
C350 C351 1.362 . S
C351 H341 0.930 . S
C351 C344 1.409 . S
C351 C350 1.362 . S
H352 C358 0.930 . S
H353 C361 0.930 . S
H354 C362 0.930 . S
H355 C363 0.930 . S
H356 C366 0.930 . S
H357 C367 0.930 . S
C358 H352 0.930 . S
C358 C359 1.355 . S
C358 C360 1.415 . S
C359 C358 1.355 . S
C359 C361 1.419 . S
C360 C358 1.415 . S
C360 C365 1.425 . S
C360 C367 1.409 . S
C361 H353 0.930 . S
C361 C359 1.419 . S
C361 C362 1.362 . S
C362 H354 0.930 . S
C362 C361 1.362 . S
C362 C365 1.409 . S
C363 H355 0.930 . S
C363 C364 1.355 . S
C363 C365 1.415 . S
C364 C363 1.355 . S
C364 C366 1.419 . S
C365 C360 1.425 . S
C365 C362 1.409 . S
C365 C363 1.415 . S
C366 H356 0.930 . S
C366 C364 1.419 . S
C366 C367 1.362 . S
C367 H357 0.930 . S
C367 C360 1.409 . S
C367 C366 1.362 . S
H368 C374 0.930 . S
H369 C377 0.930 . S
H370 C378 0.930 1_565 S
H371 C379 0.930 1_455 S
H372 C382 0.930 . S
H373 C383 0.930 1_545 S
C374 H368 0.930 . S
C374 C375 1.355 . S
C374 C376 1.415 . S
C375 C374 1.355 . S
C375 C377 1.419 1_655 S
C376 C374 1.415 . S
C376 C381 1.425 1_545 S
C376 C383 1.409 1_545 S
C377 H369 0.930 . S
C377 C375 1.419 1_455 S
C377 C378 1.362 . S
C378 H370 0.930 1_545 S
C378 C377 1.362 . S
C378 C381 1.409 1_445 S
C379 H371 0.930 1_655 S
C379 C380 1.355 . S
C379 C381 1.415 . S
C380 C379 1.355 . S
C380 C382 1.419 . S
C381 C376 1.425 1_565 S
C381 C378 1.409 1_665 S
C381 C379 1.415 . S
C382 H372 0.930 . S
C382 C380 1.419 . S
C382 C383 1.362 . S
C383 H373 0.930 1_565 S
C383 C376 1.409 1_565 S
C383 C382 1.362 . S
H384 C390 0.930 . S
H385 C393 0.930 . S
H386 C394 0.930 . S
H387 C395 0.930 . S
H388 C398 0.930 . S
H389 C399 0.930 . S
C390 H384 0.930 . S
C390 C391 1.355 . S
C390 C392 1.415 . S
C391 C390 1.355 . S
C391 C393 1.419 . S
C392 C390 1.415 . S
C392 C397 1.425 1_556 S
C392 C399 1.409 1_556 S
C393 H385 0.930 . S
C393 C391 1.419 . S
C393 C394 1.362 . S
C394 H386 0.930 . S
C394 C393 1.362 . S
C394 C397 1.409 1_556 S
C395 H387 0.930 . S
C395 C396 1.355 . S
C395 C397 1.415 . S
C396 C395 1.355 . S
C396 C398 1.419 . S
C397 C392 1.425 1_554 S
C397 C394 1.409 1_554 S
C397 C395 1.415 . S
C398 H388 0.930 . S
C398 C396 1.419 . S
C398 C399 1.362 . S
C399 H389 0.930 . S
C399 C392 1.409 1_554 S
C399 C398 1.362 . S
H400 C406 0.930 . S
H401 C409 0.930 . S
H402 C410 0.930 . S
H403 C411 0.930 . S
H404 C414 0.930 . S
H405 C415 0.930 . S
C406 H400 0.930 . S
C406 C407 1.355 . S
C406 C408 1.416 . S
C407 C406 1.355 . S
C407 C409 1.419 . S
C408 C406 1.416 . S
C408 C413 1.425 1_565 S
C408 C415 1.408 1_565 S
C409 H401 0.930 . S
C409 C407 1.419 . S
C409 C410 1.362 . S
C410 H402 0.930 . S
C410 C409 1.362 . S
C410 C413 1.408 1_565 S
C411 H403 0.930 . S
C411 C412 1.355 . S
C411 C413 1.416 . S
C412 C411 1.355 . S
C412 C414 1.419 . S
C413 C408 1.425 1_545 S
C413 C410 1.408 1_545 S
C413 C411 1.416 . S
C414 H404 0.930 . S
C414 C412 1.419 . S
C414 C415 1.362 . S
C415 H405 0.930 . S
C415 C408 1.408 1_545 S
C415 C414 1.362 . S
H416 C422 0.930 . S
H417 C425 0.930 . S
H418 C426 0.930 . S
H419 C427 0.930 . S
H420 C430 0.930 . S
H421 C431 0.930 . S
C422 H416 0.930 . S
C422 C423 1.355 . S
C422 C424 1.415 . S
C423 C422 1.355 . S
C423 C425 1.419 . S
C424 C422 1.415 . S
C424 C429 1.425 . S
C424 C431 1.409 . S
C425 H417 0.930 . S
C425 C423 1.419 . S
C425 C426 1.362 . S
C426 H418 0.930 . S
C426 C425 1.362 . S
C426 C429 1.409 . S
C427 H419 0.930 . S
C427 C428 1.355 . S
C427 C429 1.415 . S
C428 C427 1.355 . S
C428 C430 1.419 . S
C429 C424 1.425 . S
C429 C426 1.409 . S
C429 C427 1.415 . S
C430 H420 0.930 . S
C430 C428 1.419 . S
C430 C431 1.362 . S
C431 H421 0.930 . S
C431 C424 1.409 . S
C431 C430 1.362 . S
H432 C438 0.930 . S
H433 C441 0.930 . S
H434 C442 0.930 . S
H435 C443 0.930 . S
H436 C446 0.930 . S
H437 C447 0.930 . S
C438 H432 0.930 . S
C438 C439 1.355 . S
C438 C440 1.415 . S
C439 C438 1.355 . S
C439 C441 1.419 1_455 S
C440 C438 1.415 . S
C440 C445 1.425 1_455 S
C440 C447 1.409 . S
C441 H433 0.930 . S
C441 C439 1.419 1_655 S
C441 C442 1.362 . S
C442 H434 0.930 . S
C442 C441 1.362 . S
C442 C445 1.409 . S
C443 H435 0.930 . S
C443 C444 1.355 . S
C443 C445 1.415 . S
C444 C443 1.355 . S
C444 C446 1.419 1_655 S
C445 C440 1.425 1_655 S
C445 C442 1.409 . S
C445 C443 1.415 . S
C446 H436 0.930 . S
C446 C444 1.419 1_455 S
C446 C447 1.362 . S
C447 H437 0.930 . S
C447 C440 1.409 . S
C447 C446 1.362 . S
H448 C454 0.930 . S
H449 C457 0.930 . S
H450 C458 0.930 . S
H451 C459 0.930 . S
H452 C462 0.930 . S
H453 C463 0.930 . S
C454 H448 0.930 . S
C454 C455 1.355 . S
C454 C456 1.415 . S
C455 C454 1.355 . S
C455 C457 1.419 . S
C456 C454 1.415 . S
C456 C461 1.425 1_655 S
C456 C463 1.409 1_655 S
C457 H449 0.930 . S
C457 C455 1.419 . S
C457 C458 1.362 . S
C458 H450 0.930 . S
C458 C457 1.362 . S
C458 C461 1.409 1_655 S
C459 H451 0.930 . S
C459 C460 1.355 . S
C459 C461 1.415 . S
C460 C459 1.355 . S
C460 C462 1.419 . S
C461 C456 1.425 1_455 S
C461 C458 1.409 1_455 S
C461 C459 1.415 . S
C462 H452 0.930 . S
C462 C460 1.419 . S
C462 C463 1.362 . S
C463 H453 0.930 . S
C463 C456 1.409 1_455 S
C463 C462 1.362 . S
H464 C470 0.930 . S
H465 C473 0.930 . S
H466 C474 0.930 . S
H467 C475 0.930 . S
H468 C478 0.930 . S
H469 C479 0.930 . S
C470 H464 0.930 . S
C470 C471 1.355 1_556 S
C470 C472 1.415 . S
C471 C470 1.355 1_554 S
C471 C473 1.419 . S
C472 C470 1.415 . S
C472 C477 1.425 1_556 S
C472 C479 1.409 . S
C473 H465 0.930 . S
C473 C471 1.419 . S
C473 C474 1.362 . S
C474 H466 0.930 . S
C474 C473 1.362 . S
C474 C477 1.409 . S
C475 H467 0.930 . S
C475 C476 1.355 . S
C475 C477 1.415 . S
C476 C475 1.355 . S
C476 C478 1.419 1_554 S
C477 C472 1.425 1_554 S
C477 C474 1.409 . S
C477 C475 1.415 . S
C478 H468 0.930 . S
C478 C476 1.419 1_556 S
C478 C479 1.362 . S
C479 H469 0.930 . S
C479 C472 1.409 . S
C479 C478 1.362 . S
H480 C486 0.930 . S
H481 C489 0.930 . S
H482 C490 0.930 . S
H483 C491 0.930 . S
H484 C494 0.930 . S
H485 C495 0.930 . S
C486 H480 0.930 . S
C486 C487 1.355 . S
C486 C488 1.415 . S
C487 C486 1.355 . S
C487 C489 1.419 . S
C488 C486 1.415 . S
C488 C493 1.425 . S
C488 C495 1.409 . S
C489 H481 0.930 . S
C489 C487 1.419 . S
C489 C490 1.362 . S
C490 H482 0.930 . S
C490 C489 1.362 . S
C490 C493 1.409 . S
C491 H483 0.930 . S
C491 C492 1.355 . S
C491 C493 1.415 . S
C492 C491 1.355 . S
C492 C494 1.419 . S
C493 C488 1.425 . S
C493 C490 1.409 . S
C493 C491 1.415 . S
C494 H484 0.930 . S
C494 C492 1.419 . S
C494 C495 1.362 . S
C495 H485 0.930 . S
C495 C488 1.409 . S
C495 C494 1.362 . S
H496 C502 0.930 . S
H497 C505 0.930 . S
H498 C506 0.930 . S
H499 C507 0.930 . S
H500 C510 0.930 . S
H501 C511 0.930 . S
C502 H496 0.930 . S
C502 C503 1.355 . S
C502 C504 1.415 . S
C503 C502 1.355 . S
C503 C505 1.419 . S
C504 C502 1.415 . S
C504 C509 1.425 . S
C504 C511 1.409 . S
C505 H497 0.930 . S
C505 C503 1.419 . S
C505 C506 1.362 . S
C506 H498 0.930 . S
C506 C505 1.362 . S
C506 C509 1.409 . S
C507 H499 0.930 . S
C507 C508 1.355 . S
C507 C509 1.415 . S
C508 C507 1.355 . S
C508 C510 1.419 . S
C509 C504 1.425 . S
C509 C506 1.409 . S
C509 C507 1.415 . S
C510 H500 0.930 . S
C510 C508 1.419 . S
C510 C511 1.362 . S
C511 H501 0.930 . S
C511 C504 1.409 . S
C511 C510 1.362 . S
H512 C518 0.930 . S
H513 C521 0.930 . S
H514 C522 0.930 . S
H515 C523 0.930 . S
H516 C526 0.930 . S
H517 C527 0.930 . S
C518 H512 0.930 . S
C518 C519 1.355 . S
C518 C520 1.415 . S
C519 C518 1.355 . S
C519 C521 1.419 . S
C520 C518 1.415 . S
C520 C525 1.425 1_455 S
C520 C527 1.409 1_455 S
C521 H513 0.930 . S
C521 C519 1.419 . S
C521 C522 1.362 . S
C522 H514 0.930 . S
C522 C521 1.362 . S
C522 C525 1.409 1_455 S
C523 H515 0.930 . S
C523 C524 1.355 . S
C523 C525 1.415 . S
C524 C523 1.355 . S
C524 C526 1.419 . S
C525 C520 1.425 1_655 S
C525 C522 1.409 1_655 S
C525 C523 1.415 . S
C526 H516 0.930 . S
C526 C524 1.419 . S
C526 C527 1.362 . S
C527 H517 0.930 . S
C527 C520 1.409 1_655 S
C527 C526 1.362 . S
H528 C534 0.931 . S
H529 C537 0.930 . S
H530 C538 0.930 . S
H531 C539 0.930 . S
H532 C542 0.930 . S
H533 C543 0.930 . S
C534 H528 0.931 . S
C534 C535 1.355 1_455 S
C534 C536 1.415 . S
C535 C534 1.355 1_655 S
C535 C537 1.419 . S
C536 C534 1.415 . S
C536 C541 1.425 1_455 S
C536 C543 1.409 1_556 S
C537 H529 0.930 . S
C537 C535 1.419 . S
C537 C538 1.362 . S
C538 H530 0.930 . S
C538 C537 1.362 . S
C538 C541 1.409 . S
C539 H531 0.930 . S
C539 C540 1.355 1_655 S
C539 C541 1.415 . S
C540 C539 1.355 1_455 S
C540 C542 1.419 1_556 S
C541 C536 1.425 1_655 S
C541 C538 1.409 . S
C541 C539 1.415 . S
C542 H532 0.930 . S
C542 C540 1.419 1_554 S
C542 C543 1.362 . S
C543 H533 0.930 . S
C543 C536 1.409 1_554 S
C543 C542 1.362 . S
H544 C550 0.930 . S
H545 C553 0.930 . S
H546 C554 0.930 . S
H547 C555 0.930 . S
H548 C558 0.930 . S
H549 C559 0.930 . S
C550 H544 0.930 . S
C550 C551 1.355 . S
C550 C552 1.415 . S
C551 C550 1.355 . S
C551 C553 1.419 . S
C552 C550 1.415 . S
C552 C557 1.425 . S
C552 C559 1.409 . S
C553 H545 0.930 . S
C553 C551 1.419 . S
C553 C554 1.362 . S
C554 H546 0.930 . S
C554 C553 1.362 . S
C554 C557 1.409 . S
C555 H547 0.930 . S
C555 C556 1.355 . S
C555 C557 1.415 . S
C556 C555 1.355 . S
C556 C558 1.419 . S
C557 C552 1.425 . S
C557 C554 1.409 . S
C557 C555 1.415 . S
C558 H548 0.930 . S
C558 C556 1.419 . S
C558 C559 1.362 . S
C559 H549 0.930 . S
C559 C552 1.409 . S
C559 C558 1.362 . S
H560 C566 0.930 . S
H561 C569 0.930 . S
H562 C570 0.930 . S
H563 C571 0.930 . S
H564 C574 0.930 . S
H565 C575 0.930 . S
C566 H560 0.930 . S
C566 C567 1.355 . S
C566 C568 1.415 . S
C567 C566 1.355 . S
C567 C569 1.419 . S
C568 C566 1.415 . S
C568 C573 1.425 1_545 S
C568 C575 1.409 1_545 S
C569 H561 0.930 . S
C569 C567 1.419 . S
C569 C570 1.362 . S
C570 H562 0.930 . S
C570 C569 1.362 . S
C570 C573 1.409 1_545 S
C571 H563 0.930 . S
C571 C572 1.355 . S
C571 C573 1.415 . S
C572 C571 1.355 . S
C572 C574 1.419 . S
C573 C568 1.425 1_565 S
C573 C570 1.409 1_565 S
C573 C571 1.415 . S
C574 H564 0.930 . S
C574 C572 1.419 . S
C574 C575 1.362 . S
C575 H565 0.930 . S
C575 C568 1.409 1_565 S
C575 C574 1.362 . S
H576 C582 0.930 . S
H577 C585 0.930 . S
H578 C586 0.930 . S
H579 C587 0.930 . S
H580 C590 0.930 . S
H581 C591 0.930 . S
C582 H576 0.930 . S
C582 C583 1.355 1_556 S
C582 C584 1.415 . S
C583 C582 1.355 1_554 S
C583 C585 1.419 . S
C584 C582 1.415 . S
C584 C589 1.425 1_556 S
C584 C591 1.409 . S
C585 H577 0.930 . S
C585 C583 1.419 . S
C585 C586 1.362 . S
C586 H578 0.930 . S
C586 C585 1.362 . S
C586 C589 1.409 . S
C587 H579 0.930 . S
C587 C588 1.355 1_554 S
C587 C589 1.415 . S
C588 C587 1.355 1_556 S
C588 C590 1.419 . S
C589 C584 1.425 1_554 S
C589 C586 1.409 . S
C589 C587 1.415 . S
C590 H580 0.930 . S
C590 C588 1.419 . S
C590 C591 1.362 . S
C591 H581 0.930 . S
C591 C584 1.409 . S
C591 C590 1.362 . S
H592 C598 0.930 . S
H593 C601 0.930 . S
H594 C602 0.930 . S
H595 C603 0.930 . S
H596 C606 0.930 . S
H597 C607 0.930 . S
C598 H592 0.930 . S
C598 C599 1.355 . S
C598 C600 1.415 . S
C599 C598 1.355 . S
C599 C601 1.419 . S
C600 C598 1.415 . S
C600 C605 1.425 1_545 S
C600 C607 1.409 1_545 S
C601 H593 0.930 . S
C601 C599 1.419 . S
C601 C602 1.362 . S
C602 H594 0.930 . S
C602 C601 1.362 . S
C602 C605 1.409 1_545 S
C603 H595 0.930 . S
C603 C604 1.355 . S
C603 C605 1.415 . S
C604 C603 1.355 . S
C604 C606 1.419 . S
C605 C600 1.425 1_565 S
C605 C602 1.409 1_565 S
C605 C603 1.415 . S
C606 H596 0.930 . S
C606 C604 1.419 . S
C606 C607 1.362 . S
C607 H597 0.930 . S
C607 C600 1.409 1_565 S
C607 C606 1.362 . S
H608 C614 0.930 . S
H609 C617 0.930 . S
H610 C618 0.930 . S
H611 C619 0.930 . S
H612 C622 0.930 . S
H613 C623 0.930 . S
C614 H608 0.930 . S
C614 C615 1.354 1_554 S
C614 C616 1.415 . S
C615 C614 1.354 1_556 S
C615 C617 1.420 1_545 S
C616 C614 1.415 . S
C616 C621 1.425 1_544 S
C616 C623 1.409 . S
C617 H609 0.930 . S
C617 C615 1.420 1_565 S
C617 C618 1.362 . S
C618 H610 0.930 . S
C618 C617 1.362 . S
C618 C621 1.409 . S
C619 H611 0.930 . S
C619 C620 1.354 1_566 S
C619 C621 1.415 . S
C620 C619 1.354 1_544 S
C620 C622 1.420 . S
C621 C616 1.425 1_566 S
C621 C618 1.409 . S
C621 C619 1.415 . S
C622 H612 0.930 . S
C622 C620 1.420 . S
C622 C623 1.362 . S
C623 H613 0.930 . S
C623 C616 1.409 . S
C623 C622 1.362 . S
H624 C630 0.930 . S
H625 C633 0.930 . S
H626 C634 0.930 . S
H627 C635 0.930 . S
H628 C638 0.930 . S
H629 C639 0.930 . S
C630 H624 0.930 . S
C630 C631 1.355 . S
C630 C632 1.415 . S
C631 C630 1.355 . S
C631 C633 1.419 . S
C632 C630 1.415 . S
C632 C637 1.425 . S
C632 C639 1.409 . S
C633 H625 0.930 . S
C633 C631 1.419 . S
C633 C634 1.362 . S
C634 H626 0.930 . S
C634 C633 1.362 . S
C634 C637 1.409 . S
C635 H627 0.930 . S
C635 C636 1.355 . S
C635 C637 1.415 . S
C636 C635 1.355 . S
C636 C638 1.419 . S
C637 C632 1.425 . S
C637 C634 1.409 . S
C637 C635 1.415 . S
C638 H628 0.930 . S
C638 C636 1.419 . S
C638 C639 1.362 . S
C639 H629 0.930 . S
C639 C632 1.409 . S
C639 C638 1.362 . S
H640 C646 0.930 . S
H641 C649 0.930 . S
H642 C650 0.930 . S
H643 C651 0.930 . S
H644 C654 0.930 . S
H645 C655 0.930 . S
C646 H640 0.930 . S
C646 C647 1.355 . S
C646 C648 1.415 . S
C647 C646 1.355 . S
C647 C649 1.419 . S
C648 C646 1.415 . S
C648 C653 1.425 . S
C648 C655 1.409 . S
C649 H641 0.930 . S
C649 C647 1.419 . S
C649 C650 1.362 . S
C650 H642 0.930 . S
C650 C649 1.362 . S
C650 C653 1.409 . S
C651 H643 0.930 . S
C651 C652 1.355 . S
C651 C653 1.415 . S
C652 C651 1.355 . S
C652 C654 1.419 . S
C653 C648 1.425 . S
C653 C650 1.409 . S
C653 C651 1.415 . S
C654 H644 0.930 . S
C654 C652 1.419 . S
C654 C655 1.362 . S
C655 H645 0.930 . S
C655 C648 1.409 . S
C655 C654 1.362 . S
H656 C662 0.930 . S
H657 C665 0.930 . S
H658 C666 0.930 . S
H659 C667 0.930 . S
H660 C670 0.930 . S
H661 C671 0.930 . S
C662 H656 0.930 . S
C662 C663 1.355 . S
C662 C664 1.415 . S
C663 C662 1.355 . S
C663 C665 1.419 . S
C664 C662 1.415 . S
C664 C669 1.425 1_556 S
C664 C671 1.409 1_556 S
C665 H657 0.930 . S
C665 C663 1.419 . S
C665 C666 1.362 . S
C666 H658 0.930 . S
C666 C665 1.362 . S
C666 C669 1.409 1_556 S
C667 H659 0.930 . S
C667 C668 1.355 . S
C667 C669 1.415 . S
C668 C667 1.355 . S
C668 C670 1.419 . S
C669 C664 1.425 1_554 S
C669 C666 1.409 1_554 S
C669 C667 1.415 . S
C670 H660 0.930 . S
C670 C668 1.419 . S
C670 C671 1.362 . S
C671 H661 0.930 . S
C671 C664 1.409 1_554 S
C671 C670 1.362 . S
H672 C678 0.930 . S
H673 C681 0.930 . S
H674 C682 0.930 . S
H675 C683 0.930 . S
H676 C686 0.930 . S
H677 C687 0.930 . S
C678 H672 0.930 . S
C678 C679 1.355 . S
C678 C680 1.415 . S
C679 C678 1.355 . S
C679 C681 1.419 . S
C680 C678 1.415 . S
C680 C685 1.425 . S
C680 C687 1.409 . S
C681 H673 0.930 . S
C681 C679 1.419 . S
C681 C682 1.362 . S
C682 H674 0.930 . S
C682 C681 1.362 . S
C682 C685 1.409 . S
C683 H675 0.930 . S
C683 C684 1.355 . S
C683 C685 1.415 . S
C684 C683 1.355 . S
C684 C686 1.419 . S
C685 C680 1.425 . S
C685 C682 1.409 . S
C685 C683 1.415 . S
C686 H676 0.930 . S
C686 C684 1.419 . S
C686 C687 1.362 . S
C687 H677 0.930 . S
C687 C680 1.409 . S
C687 C686 1.362 . S
H688 C694 0.930 . S
H689 C697 0.930 . S
H690 C698 0.930 . S
H691 C699 0.930 . S
H692 C702 0.930 . S
H693 C703 0.930 . S
C694 H688 0.930 . S
C694 C695 1.355 . S
C694 C696 1.415 . S
C695 C694 1.355 . S
C695 C697 1.419 . S
C696 C694 1.415 . S
C696 C701 1.425 . S
C696 C703 1.409 . S
C697 H689 0.930 . S
C697 C695 1.419 . S
C697 C698 1.362 . S
C698 H690 0.930 . S
C698 C697 1.362 . S
C698 C701 1.409 . S
C699 H691 0.930 . S
C699 C700 1.355 . S
C699 C701 1.415 . S
C700 C699 1.355 . S
C700 C702 1.419 . S
C701 C696 1.425 . S
C701 C698 1.409 . S
C701 C699 1.415 . S
C702 H692 0.930 . S
C702 C700 1.419 . S
C702 C703 1.362 . S
C703 H693 0.930 . S
C703 C696 1.409 . S
C703 C702 1.362 . S
H704 C710 0.930 . S
H705 C713 0.930 . S
H706 C714 0.930 . S
H707 C715 0.930 . S
H708 C718 0.930 . S
H709 C719 0.930 . S
C710 H704 0.930 . S
C710 C711 1.355 . S
C710 C712 1.415 . S
C711 C710 1.355 . S
C711 C713 1.419 . S
C712 C710 1.415 . S
C712 C717 1.425 . S
C712 C719 1.409 . S
C713 H705 0.930 . S
C713 C711 1.419 . S
C713 C714 1.362 . S
C714 H706 0.930 . S
C714 C713 1.362 . S
C714 C717 1.409 . S
C715 H707 0.930 . S
C715 C716 1.355 . S
C715 C717 1.415 . S
C716 C715 1.355 . S
C716 C718 1.419 . S
C717 C712 1.425 . S
C717 C714 1.409 . S
C717 C715 1.415 . S
C718 H708 0.930 . S
C718 C716 1.419 . S
C718 C719 1.362 . S
C719 H709 0.930 . S
C719 C712 1.409 . S
C719 C718 1.362 . S
H720 C726 0.930 . S
H721 C729 0.930 . S
H722 C730 0.928 1_545 S
H723 C731 0.930 . S
H724 C734 0.930 . S
H725 C735 0.930 . S
C726 H720 0.930 . S
C726 C727 1.355 . S
C726 C728 1.415 . S
C727 C726 1.355 . S
C727 C729 1.419 . S
C728 C726 1.415 . S
C728 C733 1.425 . S
C728 C735 1.409 . S
C729 H721 0.930 . S
C729 C727 1.419 . S
C729 C730 1.362 . S
C730 H722 0.928 1_565 S
C730 C729 1.362 . S
C730 C733 1.409 . S
C731 H723 0.930 . S
C731 C732 1.355 . S
C731 C733 1.415 . S
C732 C731 1.355 . S
C732 C734 1.419 . S
C733 C728 1.425 . S
C733 C730 1.409 . S
C733 C731 1.415 . S
C734 H724 0.930 . S
C734 C732 1.419 . S
C734 C735 1.362 . S
C735 H725 0.930 . S
C735 C728 1.409 . S
C735 C734 1.362 . S
C231 C11 1.699 . S
C236 C109 1.699 . S
C247 C25 1.699 . S
C252 C67 1.699 . S
C263 C81 1.697 . S
C268 C39 1.699 . S
C279 C53 1.699 . S
C284 C95 1.699 . S
C295 C123 1.697 . S
C300 C179 1.698 . S
C311 C137 1.695 . S
C316 C207 1.697 . S
C327 C165 1.698 . S
C332 C151 1.696 . S
C343 C221 1.698 . S
C348 C193 1.696 . S
C359 C13 1.137 . S
C364 C97 1.075 . S
C375 C106 1.305 1_545 S
C380 C22 1.299 1_565 S
C391 C41 1.147 . S
C396 C69 1.202 . S
C407 C78 1.333 1_565 S
C412 C50 1.339 1_545 S
C423 C7 1.159 . S
C428 C203 1.158 . S
C439 C167 1.173 . S
C444 C27 1.106 . S
C455 C189 1.163 . S
C460 C35 1.154 . S
C471 C181 1.168 . S
C476 C55 1.209 . S
C487 C147 1.102 . S
C492 C63 1.135 . S
C503 C83 1.168 . S
C508 C223 1.101 . S
C519 C91 1.110 . S
C524 C119 1.123 . S
C535 C111 1.059 . S
C540 C139 1.094 . S
C551 C8 1.328 . S
C556 C64 1.334 . S
C567 C120 1.305 . S
C572 C190 1.311 . S
C583 C175 1.097 . S
C588 C133 1.163 . S
C599 C204 1.287 . S
C604 C148 1.292 . S
C615 C105 1.104 1_545 S
C620 C49 1.173 1_545 S
C631 C36 1.307 . S
C636 C92 1.313 . S
C647 C161 1.104 . S
C652 C217 1.131 . S
C663 C195 1.076 . S
C668 C153 1.062 . S
C679 C218 1.319 . S
C684 C176 1.325 . S
C695 C209 1.068 . S
C700 C125 1.125 . S
C711 C162 1.268 . S
C716 C134 1.269 . S
C727 C21 1.103 1_565 S
C732 C77 1.132 1_565 S
