# Generated by pormake.
# Topology smc, (6)-cn, num edge types: 1
# Building blocks:
#     Node 0, Type 0, BuildingBlock: KUMBUR_clean_sbu_0, # of connection points: 6
#     Node 1, Type 0, BuildingBlock: KUMBUR_clean_sbu_0, # of connection points: 6
#     Node 2, Type 0, BuildingBlock: KUMBUR_clean_sbu_0, # of connection points: 6
#     Node 3, Type 0, BuildingBlock: KUMBUR_clean_sbu_0, # of connection points: 6
#     Node 4, Type 0, BuildingBlock: KUMBUR_clean_sbu_0, # of connection points: 6
#     Node 5, Type 0, BuildingBlock: KUMBUR_clean_sbu_0, # of connection points: 6
#     Node 6, Type 0, BuildingBlock: KUMBUR_clean_sbu_0, # of connection points: 6
#     Node 7, Type 0, BuildingBlock: KUMBUR_clean_sbu_0, # of connection points: 6
#     Node 8, Type 0, BuildingBlock: KUMBUR_clean_sbu_0, # of connection points: 6
#     Edge 9, Type (0, 0), BuildingBlock: MIFKUJ_clean_linker_0, # of connection points: 2
#     Edge 10, Type (0, 0), BuildingBlock: MIFKUJ_clean_linker_0, # of connection points: 2
#     Edge 11, Type (0, 0), BuildingBlock: MIFKUJ_clean_linker_0, # of connection points: 2
#     Edge 12, Type (0, 0), BuildingBlock: MIFKUJ_clean_linker_0, # of connection points: 2
#     Edge 13, Type (0, 0), BuildingBlock: MIFKUJ_clean_linker_0, # of connection points: 2
#     Edge 14, Type (0, 0), BuildingBlock: MIFKUJ_clean_linker_0, # of connection points: 2
#     Edge 15, Type (0, 0), BuildingBlock: MIFKUJ_clean_linker_0, # of connection points: 2
#     Edge 16, Type (0, 0), BuildingBlock: MIFKUJ_clean_linker_0, # of connection points: 2
#     Edge 17, Type (0, 0), BuildingBlock: MIFKUJ_clean_linker_0, # of connection points: 2
#     Edge 18, Type (0, 0), BuildingBlock: MIFKUJ_clean_linker_0, # of connection points: 2
#     Edge 19, Type (0, 0), BuildingBlock: MIFKUJ_clean_linker_0, # of connection points: 2
#     Edge 20, Type (0, 0), BuildingBlock: MIFKUJ_clean_linker_0, # of connection points: 2
#     Edge 21, Type (0, 0), BuildingBlock: MIFKUJ_clean_linker_0, # of connection points: 2
#     Edge 22, Type (0, 0), BuildingBlock: MIFKUJ_clean_linker_0, # of connection points: 2
#     Edge 23, Type (0, 0), BuildingBlock: MIFKUJ_clean_linker_0, # of connection points: 2
#     Edge 24, Type (0, 0), BuildingBlock: MIFKUJ_clean_linker_0, # of connection points: 2
#     Edge 25, Type (0, 0), BuildingBlock: MIFKUJ_clean_linker_0, # of connection points: 2
#     Edge 26, Type (0, 0), BuildingBlock: MIFKUJ_clean_linker_0, # of connection points: 2
#     Edge 27, Type (0, 0), BuildingBlock: MIFKUJ_clean_linker_0, # of connection points: 2
#     Edge 28, Type (0, 0), BuildingBlock: MIFKUJ_clean_linker_0, # of connection points: 2
#     Edge 29, Type (0, 0), BuildingBlock: MIFKUJ_clean_linker_0, # of connection points: 2
#     Edge 30, Type (0, 0), BuildingBlock: MIFKUJ_clean_linker_0, # of connection points: 2
#     Edge 31, Type (0, 0), BuildingBlock: MIFKUJ_clean_linker_0, # of connection points: 2
#     Edge 32, Type (0, 0), BuildingBlock: MIFKUJ_clean_linker_0, # of connection points: 2
#     Edge 33, Type (0, 0), BuildingBlock: MIFKUJ_clean_linker_0, # of connection points: 2
#     Edge 34, Type (0, 0), BuildingBlock: MIFKUJ_clean_linker_0, # of connection points: 2
#     Edge 35, Type (0, 0), BuildingBlock: MIFKUJ_clean_linker_0, # of connection points: 2
# Relax obj value: 0.108
# Max RMSD: 0.278
# Mean RMSD: 0.278
data_MOF--net-smc--node1-KUMBUR_clean_sbu_0--edge1-MIFKUJ_clean_linker_0
_symmetry_space_group_name_H-M    P1
_symmetry_Int_Tables_number       1
_symmetry_cell_setting            triclinic
loop_
_symmetry_equiv_pos_as_xyz
'x, y, z'
_cell_length_a     46.541912
_cell_length_b     46.60999
_cell_length_c     52.954274
_cell_angle_alpha  90.08523
_cell_angle_beta   89.916493
_cell_angle_gamma 119.95618
loop_
_atom_site_label
_atom_site_type_symbol
_atom_site_fract_x
_atom_site_fract_y
_atom_site_fract_z
_atom_type_partial_charge
Tb0 Tb 0.05078 0.49063 1.00068 0.0
C1 C 1.01994 0.36132 0.05327 0.0
C2 C 0.05012 0.34207 0.02785 0.0
C3 C 0.04052 0.32768 0.07237 0.0
C4 C 0.03351 0.36026 0.0304 0.0
C5 C 0.02272 0.3446 0.07445 0.0
C6 C 0.05419 0.3264 0.04908 0.0
C7 C 0.98816 0.36064 0.09753 0.0
N8 N 1.00318 0.37817 0.0545 0.0
C9 C 0.98613 0.37688 0.07599 0.0
C10 C 1.00696 0.34486 0.09689 0.0
Tb11 Tb 1.00194 0.40472 0.01833 0.0
N12 N 0.02879 0.37553 0.01035 0.0
C13 C 0.038 0.37132 0.98669 0.0
C14 C 0.06116 0.33929 1.0039 0.0
C15 C 0.05477 0.35371 0.9832 0.0
H16 H 0.97156 0.38901 0.07677 0.0
H17 H 0.06255 0.35108 0.96448 0.0
H18 H 0.06716 0.31258 0.04754 0.0
H19 H 0.97516 0.36021 0.1146 0.0
H20 H 0.033 0.38185 0.97033 0.0
H21 H 0.02668 0.53283 0.08969 0.0
H22 H 0.07361 0.32517 1.00108 0.0
H23 H 0.04305 0.50921 0.94091 0.0
H24 H 0.03671 0.49617 0.06311 0.0
H25 H 0.02667 0.54504 0.91878 0.0
H26 H 0.04324 0.31493 0.08848 0.0
H27 H 1.01687 0.57524 0.0705 0.0
H28 H 1.00916 0.601 0.03137 0.0
H29 H 1.00849 0.33232 0.11361 0.0
H30 H 1.00583 0.60204 0.98516 0.0
N31 N 0.03352 0.5174 0.02816 0.0
C32 C 0.03305 0.51457 0.05394 0.0
C33 C 1.02083 0.55883 0.05844 0.0
C34 C 1.01992 0.56086 0.03217 0.0
C35 C 0.02675 0.53514 0.06935 0.0
C36 C 0.02635 0.5395 0.01735 0.0
H37 H 1.01122 0.58057 0.94313 0.0
N38 N 0.03216 0.52004 0.97771 0.0
C39 C 0.02557 0.54365 0.93919 0.0
C40 C 0.02524 0.54056 0.99131 0.0
C41 C 0.03399 0.52261 0.95188 0.0
C42 C 1.01708 0.56378 0.95299 0.0
C43 C 1.0175 0.56293 0.97935 0.0
O44 O 0.0929 0.51788 0.97798 0.0
O45 O 0.0509 0.44498 1.00658 0.0
O46 O 0.03601 0.42641 0.04966 0.0
O47 O 0.0693 0.48228 0.03821 0.0
O48 O 0.07251 0.47106 0.97439 0.0
O49 O 0.09108 0.53539 0.015 0.0
O50 O 0.95051 0.37887 0.02604 0.0
O51 O 1.00263 0.45079 0.01056 0.0
O52 O 1.0156 0.46336 0.96903 0.0
O53 O 1.00114 0.40863 0.97736 0.0
O54 O 0.97546 0.42402 0.04079 0.0
O55 O 0.97062 0.36221 0.99689 0.0
C56 C 0.06878 0.44639 0.98786 0.0
C57 C 0.12112 0.57661 0.98314 0.0
C58 C 0.15819 0.63719 0.98507 0.0
C59 C 0.14427 0.60547 0.99657 0.0
C60 C 0.14778 0.63977 0.96075 0.0
C61 C 0.11304 0.58045 0.95823 0.0
C62 C 0.12548 0.61165 0.94748 0.0
C63 C 0.06042 0.45672 0.05418 0.0
C64 C 0.10749 0.54242 0.99381 0.0
C65 C 1.01137 0.58441 0.99402 0.0
C66 C 1.01304 0.58368 0.02035 0.0
C67 C 0.98338 0.45002 0.02763 0.0
C68 C 0.92194 0.32143 0.01775 0.0
C69 C 0.88714 0.30586 0.01443 0.0
C70 C 0.86606 0.27293 0.02281 0.0
C71 C 0.88066 0.25653 0.03507 0.0
C72 C 0.93547 0.3039 0.02943 0.0
C73 C 0.91493 0.27182 0.03818 0.0
C74 C 1.00203 0.43158 0.96228 0.0
C75 C 0.94395 0.356 0.00934 0.0
H76 H 0.15224 0.60318 0.0153 0.0
H77 H 0.15789 0.6637 0.95162 0.0
H78 H 0.09777 0.55929 0.94653 0.0
H79 H 0.11854 0.61397 0.9284 0.0
H80 H 0.87668 0.3192 1.00506 0.0
H81 H 0.86556 0.23179 0.04256 0.0
H82 H 0.96192 0.31497 0.03182 0.0
H83 H 0.92565 0.25869 0.04747 0.0
Tb84 Tb 0.5515 0.55227 1.00682 0.0
C85 C 0.68266 0.65442 0.05451 0.0
C86 C 0.69612 0.70401 0.03103 0.0
C87 C 0.7171 0.70838 0.07369 0.0
C88 C 0.67983 0.6692 0.03288 0.0
C89 C 0.7019 0.67376 0.07499 0.0
C90 C 0.71411 0.7235 0.05176 0.0
C91 C 0.69354 0.62358 0.09489 0.0
N92 N 0.6686 0.62099 0.05462 0.0
C93 C 0.6751 0.60552 0.07392 0.0
C94 C 0.7066 0.65782 0.09561 0.0
Tb95 Tb 0.6393 0.59345 0.01931 0.0
N96 N 0.6636 0.64951 0.01289 0.0
C97 C 0.6651 0.66337 0.98982 0.0
C98 C 0.69535 0.71817 0.00798 0.0
C99 C 0.68013 0.69776 0.98718 0.0
H100 H 0.66531 0.57908 0.07348 0.0
H101 H 0.6803 0.70849 0.96903 0.0
H102 H 0.72675 0.75028 0.0507 0.0
H103 H 0.69782 0.6111 0.11042 0.0
H104 H 0.65409 0.64807 0.97338 0.0
H105 H 0.51807 0.48745 0.09696 0.0
H106 H 0.70763 0.74479 1.00578 0.0
H107 H 0.52579 0.52216 0.94877 0.0
H108 H 0.54137 0.53546 0.0698 0.0
H109 H 0.49752 0.46821 0.92771 0.0
H110 H 0.73209 0.72367 0.08921 0.0
H111 H 0.4921 0.43126 0.07875 0.0
H112 H 0.47549 0.39525 0.04048 0.0
H113 H 0.72118 0.67181 0.11175 0.0
H114 H 0.47102 0.39002 0.99441 0.0
N115 N 0.53165 0.50846 0.03508 0.0
C116 C 0.53158 0.51187 0.06082 0.0
C117 C 0.50304 0.45262 0.06638 0.0
C118 C 0.50219 0.4489 0.04019 0.0
C119 C 0.51774 0.48425 0.07669 0.0
C120 C 0.51703 0.47758 0.02486 0.0
H121 H 0.478 0.41708 0.95245 0.0
N122 N 0.52786 0.50271 0.98492 0.0
C123 C 0.50321 0.46964 0.94764 0.0
C124 C 0.51598 0.47463 0.9989 0.0
C125 C 0.5199 0.50033 0.95972 0.0
C126 C 0.49253 0.44083 0.96161 0.0
C127 C 0.49832 0.44296 0.98759 0.0
O128 O 0.51321 0.55288 0.98571 0.0
O129 O 0.59614 0.5995 0.01159 0.0
O130 O 0.61866 0.59892 0.05449 0.0
O131 O 0.56338 0.58094 0.04369 0.0
O132 O 0.56508 0.59455 0.9825 0.0
O133 O 0.511 0.55119 0.02593 0.0
O134 O 0.66818 0.57024 0.02267 0.0
O135 O 0.59443 0.54704 0.01175 0.0
O136 O 0.57662 0.55258 0.97077 0.0
O137 O 0.63291 0.58905 0.97845 0.0
O138 O 0.62458 0.54689 0.0394 0.0
O139 O 0.68135 0.60939 0.996 0.0
C140 C 0.59125 0.6158 0.9945 0.0
C141 C 0.45929 0.52435 1.00426 0.0
C142 C 0.39995 0.50673 1.00672 0.0
C143 C 0.4337 0.53223 0.00732 0.0
C144 C 0.39222 0.47385 1.00299 0.0
C145 C 0.45022 0.49116 1.00028 0.0
C146 C 0.41721 0.46619 0.9997 0.0
C147 C 0.58906 0.5945 0.0599 0.0
C148 C 0.49521 0.55013 1.00537 0.0
C149 C 0.48458 0.41447 1.00273 0.0
C150 C 0.48673 0.41744 0.02899 0.0
C151 C 0.59796 0.52829 0.02698 0.0
C152 C 0.72514 0.604 0.01417 0.0
C153 C 0.74137 0.58529 0.01211 0.0
C154 C 0.77465 0.59863 0.02008 0.0
C155 C 0.7909 0.6307 0.03062 0.0
C156 C 0.7424 0.63612 0.02418 0.0
C157 C 0.77495 0.64922 0.0325 0.0
C158 C 0.60817 0.56976 0.96337 0.0
C159 C 0.69011 0.58957 1.00634 0.0
H160 H 0.43989 0.55769 0.01024 0.0
H161 H 0.36663 0.45401 1.00235 0.0
H162 H 0.46849 0.48426 0.99749 0.0
H163 H 0.411 0.44077 0.99662 0.0
H164 H 0.72818 0.56065 1.00403 0.0
H165 H 0.81601 0.64154 0.0377 0.0
H166 H 0.73077 0.65112 0.02563 0.0
H167 H 0.7879 0.67388 0.04051 0.0
Tb168 Tb 0.486 0.9919 0.99902 0.0
C169 C 0.38158 0.02529 0.04052 0.0
C170 C 0.33322 0.99046 0.01533 0.0
C171 C 0.32658 1.00769 0.05724 0.0
C172 C 0.36794 1.00792 0.01861 0.0
C173 C 0.3612 0.0262 0.05986 0.0
C174 C 0.31259 0.98973 0.03502 0.0
C175 C 0.41077 0.06587 0.08168 0.0
N176 N 0.4151 0.04253 0.0424 0.0
C177 C 0.42991 0.06357 0.0623 0.0
C178 C 0.37627 0.04656 0.08078 0.0
Tb179 Tb 0.44466 0.03902 0.00907 0.0
N180 N 0.38881 1.0099 0.99992 0.0
C181 C 0.37627 0.99703 0.97659 0.0
C182 C 0.32035 0.97527 0.99208 0.0
C183 C 0.34202 0.97903 0.9725 0.0
H184 H 0.45651 0.07879 0.06334 0.0
H185 H 0.33238 0.96818 0.95418 0.0
H186 H 0.28587 0.97622 0.03294 0.0
H187 H 0.42273 0.08297 0.09707 0.0
H188 H 0.39228 0.9997 0.96098 0.0
H189 H 0.55068 0.02401 0.08884 0.0
H190 H 0.29384 0.96154 0.98879 0.0
H191 H 0.51473 0.99863 0.93926 0.0
H192 H 0.50342 1.00859 0.06144 0.0
H193 H 0.56866 0.02015 0.91834 0.0
H194 H 0.31046 1.00777 0.07199 0.0
H195 H 0.60496 0.03839 0.07073 0.0
H196 H 0.64033 0.04832 0.03241 0.0
H197 H 0.3615 0.04839 0.09585 0.0
H198 H 0.64598 0.05097 0.98629 0.0
N199 N 0.52967 1.01346 0.02698 0.0
C200 C 0.52647 0.01443 0.05267 0.0
C201 C 0.58431 0.03213 0.05828 0.0
C202 C 0.58799 0.03257 0.03209 0.0
C203 C 0.55359 0.02367 0.06858 0.0
C204 C 0.55989 0.023 0.01672 0.0
H205 H 0.61977 0.04188 0.94375 0.0
N206 N 0.53507 1.01323 0.97648 0.0
C207 C 0.56749 0.02183 0.93867 0.0
C208 C 0.56282 0.02358 0.99069 0.0
C209 C 0.53696 1.01048 0.95068 0.0
C210 C 0.59622 0.03388 0.95307 0.0
C211 C 0.59405 0.03406 0.97938 0.0
O212 O 0.48028 0.95057 0.97836 0.0
O213 O 0.43886 0.98994 1.00191 0.0
O214 O 0.4319 1.00903 0.04282 0.0
O215 O 0.45789 0.9773 0.03649 0.0
O216 O 0.44473 0.9638 0.97342 0.0
O217 O 0.48836 0.95321 0.01829 0.0
O218 O 0.47015 0.09114 0.01245 0.0
O219 O 0.4917 0.03989 1.00511 0.0
O220 O 0.49329 0.02439 0.96574 0.0
O221 O 0.44923 0.03422 0.96873 0.0
O222 O 0.48871 0.06848 0.03277 0.0
O223 O 0.43358 0.06692 0.98362 0.0
C224 C 0.42309 0.96891 0.98465 0.0
C225 C 0.50976 0.92434 0.99415 0.0
C226 C 0.52852 0.8839 1.00114 0.0
C227 C 0.505 0.89447 1.0053 0.0
C228 C 0.55662 0.90348 0.98635 0.0
C229 C 0.53755 0.94202 0.97854 0.0
C230 C 0.56096 0.93219 0.97506 0.0
C231 C 0.43939 0.98649 0.05028 0.0
C232 C 0.48563 0.93657 0.99774 0.0
C233 C 0.62196 0.04335 0.99464 0.0
C234 C 0.61881 0.04208 0.02091 0.0
C235 C 0.50852 0.06066 0.02196 0.0
C236 C 0.44018 0.11726 1.00043 0.0
C237 C 0.46108 0.15199 0.9993 0.0
C238 C 0.4488 0.1735 1.00527 0.0
C239 C 0.41537 0.15945 0.01267 0.0
C240 C 0.40695 0.10415 0.00764 0.0
C241 C 0.39473 0.12515 0.01377 0.0
C242 C 0.47343 0.03434 0.95592 0.0
C243 C 0.45346 0.09505 0.99454 0.0
H244 H 0.48324 0.87955 0.01676 0.0
H245 H 0.57488 0.89596 0.98291 0.0
H246 H 0.54115 0.96317 0.96839 0.0
H247 H 0.5823 0.94662 0.96309 0.0
H248 H 0.48669 0.16214 0.99351 0.0
H249 H 0.40514 0.17498 0.01795 0.0
H250 H 0.39037 0.07769 0.00846 0.0
H251 H 0.36909 0.11478 0.01946 0.0
Tb252 Tb 0.72372 0.83295 0.33056 0.0
C253 C 0.69602 0.70067 0.37988 0.0
C254 C 0.72633 0.68162 0.35443 0.0
C255 C 0.71505 0.66548 0.39855 0.0
C256 C 0.71017 0.70023 0.35715 0.0
C257 C 0.69822 0.68332 0.4009 0.0
C258 C 0.72887 0.66443 0.37529 0.0
C259 C 0.6656 0.70117 0.42457 0.0
N260 N 0.67988 0.71813 0.3813 0.0
C261 C 0.66382 0.71774 0.40314 0.0
C262 C 0.68308 0.68408 0.42351 0.0
Tb263 Tb 0.67913 0.74531 0.34523 0.0
N264 N 0.70689 0.71695 0.33745 0.0
C265 C 0.71788 0.7145 0.31401 0.0
C266 C 0.73873 0.68019 0.3307 0.0
C267 C 0.73417 0.69643 0.31036 0.0
H268 H 0.65021 0.73078 0.40447 0.0
H269 H 0.74319 0.69506 0.2918 0.0
H270 H 0.74114 0.64996 0.37358 0.0
H271 H 0.65342 0.70156 0.44189 0.0
H272 H 0.71456 0.72659 0.29788 0.0
H273 H 0.68672 0.88271 0.40816 0.0
H274 H 0.75124 0.66612 0.32778 0.0
H275 H 0.72646 0.8461 0.26816 0.0
H276 H 0.70555 0.84728 0.38888 0.0
H277 H 0.70794 0.87447 0.2385 0.0
H278 H 0.71706 0.65201 0.41447 0.0
H279 H 0.67076 0.91575 0.38128 0.0
H280 H 0.65866 0.92879 0.33806 0.0
H281 H 0.68434 0.6712 0.44013 0.0
H282 H 0.66222 0.92466 0.29198 0.0
N283 N 0.69976 0.85907 0.35092 0.0
C284 C 0.69821 0.86089 0.37665 0.0
C285 C 0.67799 0.89928 0.3726 0.0
C286 C 0.67847 0.8965 0.34635 0.0
C287 C 0.68738 0.881 0.38781 0.0
C288 C 0.69023 0.87644 0.33591 0.0
H289 H 0.68016 0.9042 0.25474 0.0
N290 N 0.70591 0.85643 0.30067 0.0
C291 C 0.70305 0.87427 0.25851 0.0
C292 C 0.69252 0.87434 0.30998 0.0
C293 C 0.71319 0.85798 0.27532 0.0
C294 C 0.68742 0.89104 0.26775 0.0
C295 C 0.68278 0.89199 0.29379 0.0
O296 O 0.76826 0.86692 0.31226 0.0
O297 O 0.72672 0.7888 0.33558 0.0
O298 O 0.71463 0.76658 0.37539 0.0
O299 O 0.73463 0.8236 0.37069 0.0
O300 O 0.75282 0.81844 0.30663 0.0
O301 O 0.75934 0.87547 0.35049 0.0
O302 O 0.62766 0.7162 0.35188 0.0
O303 O 0.67706 0.79051 0.34007 0.0
O304 O 0.68729 0.80426 0.30028 0.0
O305 O 0.68298 0.75274 0.30443 0.0
O306 O 0.6494 0.76029 0.36832 0.0
O307 O 0.65007 0.70625 0.32013 0.0
C308 C 0.74792 0.79253 0.31893 0.0
C309 C 0.79103 0.92365 0.32483 0.0
C310 C 0.82984 0.98366 0.32971 0.0
C311 C 0.81907 0.95033 0.33682 0.0
C312 C 0.81181 0.98986 0.31148 0.0
C313 C 0.77507 0.93143 0.3058 0.0
C314 C 0.78475 0.96396 0.2996 0.0
C315 C 0.73106 0.79726 0.38379 0.0
C316 C 0.77897 0.88793 0.33105 0.0
C317 C 0.66995 0.91105 0.30411 0.0
C318 C 0.66803 0.9135 0.33034 0.0
C319 C 0.6565 0.78726 0.35691 0.0
C320 C 0.60148 0.66084 0.33761 0.0
C321 C 0.56654 0.64602 0.33681 0.0
C322 C 0.54595 0.61191 0.34204 0.0
C323 C 0.56105 0.59299 0.34769 0.0
C324 C 0.61568 0.64127 0.34337 0.0
C325 C 0.59555 0.60756 0.34829 0.0
C326 C 0.67966 0.77471 0.29114 0.0
C327 C 0.62273 0.69673 0.3328 0.0
H328 H 0.83278 0.94523 0.35092 0.0
H329 H 0.81938 0.015 0.30583 0.0
H330 H 0.75549 0.91255 0.29505 0.0
H331 H 0.77165 0.96908 0.28502 0.0
H332 H 0.55546 0.6611 0.33252 0.0
H333 H 0.54614 0.5667 0.35141 0.0
H334 H 0.64234 0.65201 0.34405 0.0
H335 H 0.60673 0.59263 0.35263 0.0
Tb336 Tb 0.22808 0.90441 0.33452 0.0
C337 C 0.36286 1.0008 0.38176 0.0
C338 C 0.38148 0.04948 0.35575 0.0
C339 C 0.39963 0.05525 0.39942 0.0
C340 C 0.36255 0.01488 0.359 0.0
C341 C 0.38173 0.02067 0.40218 0.0
C342 C 0.3995 0.06965 0.37623 0.0
C343 C 0.36509 0.97062 0.42598 0.0
N344 N 0.34494 0.96736 0.3837 0.0
C345 C 0.34682 0.95197 0.40515 0.0
C346 C 0.38234 1.00515 0.4246 0.0
Tb347 Tb 0.31475 0.9389 0.34889 0.0
N348 N 0.34508 0.99446 0.33968 0.0
C349 C 0.34779 1.00714 0.31594 0.0
C350 C 0.38245 0.06266 0.33186 0.0
C351 C 0.36591 0.04132 0.31179 0.0
H352 H 0.33347 0.9253 0.4065 0.0
H353 H 0.36716 0.05117 0.29307 0.0
H354 H 0.41397 0.09631 0.37416 0.0
H355 H 0.36585 0.95834 0.44309 0.0
H356 H 0.33548 0.99121 0.30006 0.0
H357 H 0.18447 0.82293 0.4161 0.0
H358 H 0.39663 0.08911 0.32856 0.0
H359 H 0.20494 0.89017 0.27409 0.0
H360 H 0.21508 0.87624 0.39477 0.0
H361 H 0.17102 0.84177 0.24692 0.0
H362 H 0.41408 0.07101 0.41495 0.0
H363 H 0.15276 0.77152 0.39137 0.0
H364 H 0.13342 0.74419 0.34924 0.0
H365 H 0.39646 0.01953 0.44077 0.0
H366 H 0.1305 0.74914 0.30324 0.0
N367 N 0.20107 0.85622 0.3575 0.0
C368 C 0.20115 0.85454 0.38334 0.0
C369 C 0.16599 0.7951 0.3817 0.0
C370 C 0.16515 0.7969 0.35539 0.0
C371 C 0.18381 0.82406 0.39571 0.0
C372 C 0.18292 0.82821 0.34367 0.0
H373 H 0.14407 0.78534 0.26501 0.0
N374 N 0.19863 0.86143 0.30702 0.0
C375 C 0.17414 0.83828 0.26672 0.0
C376 C 0.18179 0.83091 0.31766 0.0
C377 C 0.19325 0.86562 0.28218 0.0
C378 C 0.15899 0.80651 0.277 0.0
C379 C 0.16212 0.80252 0.30284 0.0
O380 O 0.20444 0.92936 0.32031 0.0
O381 O 0.27484 0.94936 0.34021 0.0
O382 O 0.29567 0.95235 0.38126 0.0
O383 O 0.23832 0.92675 0.37399 0.0
O384 O 0.24783 0.94646 0.30887 0.0
O385 O 0.17994 0.89172 0.34804 0.0
O386 O 0.34085 0.91361 0.35668 0.0
O387 O 0.26757 0.89454 0.34246 0.0
O388 O 0.25188 0.89508 0.30133 0.0
O389 O 0.30796 0.93299 0.308 0.0
O390 O 0.29555 0.89342 0.37143 0.0
O391 O 0.35357 0.94588 0.3246 0.0
C392 C 0.2734 0.96655 0.32211 0.0
C393 C 0.14593 0.89724 0.31634 0.0
C394 C 0.08517 0.87041 0.31158 0.0
C395 C 0.11369 0.8822 0.3272 0.0
C396 C 0.0895 0.874 0.28526 0.0
C397 C 0.14887 0.90128 0.28993 0.0
C398 C 0.12099 0.88934 0.27462 0.0
C399 C 0.26541 0.94444 0.38839 0.0
C400 C 0.17671 0.91111 0.33209 0.0
C401 C 0.14534 0.77125 0.31436 0.0
C402 C 0.1469 0.76844 0.34057 0.0
C403 C 0.26872 0.87574 0.35901 0.0
C404 C 0.39669 0.93968 0.34308 0.0
C405 C 0.40967 0.91797 0.34246 0.0
C406 C 0.44393 0.93016 0.34604 0.0
C407 C 0.46473 0.96416 0.35074 0.0
C408 C 0.41804 0.97342 0.34802 0.0
C409 C 0.45181 0.98549 0.35188 0.0
C410 C 0.28334 0.9117 0.29361 0.0
C411 C 0.36114 0.92702 0.33784 0.0
H412 H 0.11085 0.87985 0.34753 0.0
H413 H 0.06838 0.8658 0.27279 0.0
H414 H 0.17287 0.91434 0.28087 0.0
H415 H 0.12386 0.89261 0.25436 0.0
H416 H 0.39333 0.89188 0.3386 0.0
H417 H 0.49106 0.97421 0.35378 0.0
H418 H 0.40871 0.99052 0.34863 0.0
H419 H 0.46812 1.01158 0.35562 0.0
Tb420 Tb 0.15643 0.33126 0.33283 0.0
C421 C 0.07201 0.36676 0.3972 0.0
C422 C 1.01826 0.3327 0.37815 0.0
C423 C 0.02241 0.34456 0.42318 0.0
C424 C 0.05312 0.35116 0.37631 0.0
C425 C 0.05696 0.36461 0.42076 0.0
C426 C 1.00306 0.32858 0.40187 0.0
C427 C 0.1108 0.40513 0.43675 0.0
N428 N 0.10523 0.38582 0.39395 0.0
C429 C 0.12453 0.40638 0.41295 0.0
C430 C 0.07697 0.38363 0.44083 0.0
Tb431 Tb 0.12588 0.38423 0.35482 0.0
N432 N 0.06886 0.35624 0.3538 0.0
C433 C 0.0508 0.34646 0.33195 0.0
C434 C 0.99979 0.32013 0.356 0.0
C435 C 1.01613 0.32766 0.33274 0.0
H436 H 0.15075 0.42283 0.41002 0.0
H437 H 1.00205 0.31893 0.31541 0.0
H438 H 0.97634 0.31409 0.40377 0.0
H439 H 0.12633 0.42063 0.45195 0.0
H440 H 0.06296 0.35206 0.3138 0.0
H441 H 0.23659 0.35825 0.41457 0.0
H442 H 0.97296 0.30567 0.35656 0.0
H443 H 0.17162 0.33119 0.27148 0.0
H444 H 0.1847 0.34263 0.39323 0.0
H445 H 0.21944 0.34501 0.24406 0.0
H446 H 1.01035 0.34214 0.4412 0.0
H447 H 0.28737 0.37405 0.38989 0.0
H448 H 0.31434 0.38128 0.34778 0.0
H449 H 0.0664 0.38269 0.45926 0.0
H450 H 0.30949 0.37693 0.30168 0.0
N451 N 0.20453 0.34964 0.35586 0.0
C452 C 0.206 0.34942 0.38171 0.0
C453 C 0.26437 0.36733 0.38017 0.0
C454 C 0.26289 0.36714 0.35384 0.0
C455 C 0.23577 0.35835 0.39414 0.0
C456 C 0.23233 0.35828 0.34205 0.0
H457 H 0.27467 0.36476 0.26278 0.0
N458 N 0.2001 0.34792 0.30531 0.0
C459 C 0.22296 0.34924 0.2642 0.0
C460 C 0.23003 0.35743 0.31599 0.0
C461 C 0.19603 0.34218 0.2798 0.0
C462 C 0.25408 0.36037 0.27486 0.0
C463 C 0.25786 0.36405 0.30105 0.0
O464 O 0.13763 0.28747 0.31156 0.0
O465 O 0.11294 0.33352 0.34383 0.0
O466 O 0.12447 0.35643 0.38803 0.0
O467 O 0.13323 0.31467 0.37164 0.0
O468 O 0.11084 0.30878 0.3112 0.0
O469 O 0.16371 0.29223 0.34602 0.0
O470 O 0.15359 0.43631 0.35898 0.0
O471 O 0.16825 0.38088 0.34163 0.0
O472 O 0.15975 0.36392 0.30072 0.0
O473 O 0.12348 0.38205 0.31356 0.0
O474 O 0.176 0.41198 0.37111 0.0
O475 O 0.10967 0.41387 0.33652 0.0
C476 C 0.09307 0.3146 0.32687 0.0
C477 C 0.16951 0.26012 0.31276 0.0
C478 C 0.1985 0.22782 0.31246 0.0
C479 C 0.18106 0.24103 0.3257 0.0
C480 C 0.20435 0.2342 0.2865 0.0
C481 C 0.17443 0.2641 0.28647 0.0
C482 C 0.19222 0.25192 0.27366 0.0
C483 C 0.12494 0.32853 0.39048 0.0
C484 C 0.15071 0.27428 0.32586 0.0
C485 C 0.28813 0.37259 0.31275 0.0
C486 C 0.29079 0.37468 0.33904 0.0
C487 C 0.19042 0.40132 0.35621 0.0
C488 C 0.1232 0.46449 0.35722 0.0
C489 C 0.14208 0.49912 0.3529 0.0
C490 C 0.13337 0.52099 0.36479 0.0
C491 C 0.10542 0.50758 0.38069 0.0
C492 C 0.09523 0.45206 0.37294 0.0
C493 C 0.08649 0.47347 0.38457 0.0
C494 C 0.14191 0.37858 0.29615 0.0
C495 C 0.13311 0.44154 0.34589 0.0
H496 H 0.17641 0.23639 0.34575 0.0
H497 H 0.2174 0.22436 0.27584 0.0
H498 H 0.1641 0.27625 0.27546 0.0
H499 H 0.19607 0.2557 0.2535 0.0
H500 H 0.16372 0.50901 0.34079 0.0
H501 H 0.09795 0.52358 0.38994 0.0
H502 H 0.08009 0.42577 0.37626 0.0
H503 H 0.06491 0.46357 0.39672 0.0
Tb504 Tb 0.38388 0.16488 0.67057 0.0
C505 C 0.34963 0.03636 0.72478 0.0
C506 C 0.3826 0.01807 0.70197 0.0
C507 C 0.36837 1.00241 0.74594 0.0
C508 C 0.3656 0.03601 0.70298 0.0
C509 C 0.35016 0.01902 0.74639 0.0
C510 C 0.3844 1.00177 0.7237 0.0
C511 C 0.31112 0.03201 0.76593 0.0
N512 N 0.33154 0.05185 0.72415 0.0
C513 C 0.31102 0.04848 0.74389 0.0
C514 C 0.3312 0.01767 0.76735 0.0
Tb515 Tb 0.33337 0.07887 0.68746 0.0
N516 N 0.36207 0.05096 0.6822 0.0
C517 C 0.37302 0.0467 0.65925 0.0
C518 C 0.39606 0.01591 0.6789 0.0
C519 C 0.39082 0.0299 0.65737 0.0
H520 H 0.29538 0.05944 0.74297 0.0
H521 H 0.40023 0.02751 0.63925 0.0
H522 H 0.39755 0.98806 0.72335 0.0
H523 H 0.29562 0.0303 0.78177 0.0
H524 H 0.3688 0.05677 0.64226 0.0
H525 H 0.34586 0.20534 0.75417 0.0
H526 H 0.40947 1.00253 0.67734 0.0
H527 H 0.38623 0.18501 0.60976 0.0
H528 H 0.36722 0.17457 0.73138 0.0
H529 H 0.36997 0.21841 0.58388 0.0
H530 H 0.36934 0.98916 0.7624 0.0
H531 H 0.32805 0.23971 0.73099 0.0
H532 H 0.32079 0.26136 0.68976 0.0
H533 H 0.331 1.00467 0.78435 0.0
H534 H 0.32624 0.26405 0.64355 0.0
N535 N 0.36229 0.19083 0.69472 0.0
C536 C 0.36017 0.18946 0.72055 0.0
C537 C 0.33773 0.22629 0.72066 0.0
C538 C 0.34028 0.22808 0.69436 0.0
C539 C 0.34777 0.20694 0.73379 0.0
C540 C 0.35288 0.20994 0.68175 0.0
H541 H 0.34422 0.24798 0.60399 0.0
N542 N 0.3674 0.1931 0.64415 0.0
C543 C 0.36526 0.21618 0.60401 0.0
C544 C 0.35544 0.21103 0.65568 0.0
C545 C 0.37409 0.19697 0.61875 0.0
C546 C 0.35087 0.23292 0.61543 0.0
C547 C 0.34631 0.23095 0.6416 0.0
O548 O 0.42962 0.19169 0.65196 0.0
O549 O 0.38366 0.11932 0.67852 0.0
O550 O 0.36153 0.10137 0.72151 0.0
O551 O 0.39888 0.15613 0.70934 0.0
O552 O 0.40816 0.14536 0.64684 0.0
O553 O 0.42036 0.21157 0.68544 0.0
O554 O 0.2813 0.05259 0.69222 0.0
O555 O 0.33479 0.12476 0.678 0.0
O556 O 0.35229 0.1382 0.63725 0.0
O557 O 0.33587 0.08312 0.64634 0.0
O558 O 0.30411 0.09755 0.70672 0.0
O559 O 0.30441 0.03612 0.66547 0.0
C560 C 0.40324 0.12083 0.66106 0.0
C561 C 0.45546 0.25056 0.6537 0.0
C562 C 0.49172 0.31137 0.65338 0.0
C563 C 0.4752 0.28092 0.66684 0.0
C564 C 0.48671 0.31115 0.62722 0.0
C565 C 0.45283 0.25168 0.62727 0.0
C566 C 0.46749 0.28162 0.61435 0.0
C567 C 0.38664 0.13125 0.72624 0.0
C568 C 0.44057 0.21752 0.66657 0.0
C569 C 0.33359 0.24882 0.65407 0.0
C570 C 0.33058 0.24738 0.68038 0.0
C571 C 0.31349 0.12365 0.69329 0.0
C572 C 0.25418 0.99503 0.68444 0.0
C573 C 0.21957 0.97925 0.67991 0.0
C574 C 0.19823 0.94617 0.68784 0.0
C575 C 0.21224 0.92981 0.70093 0.0
C576 C 0.26716 0.9776 0.69706 0.0
C577 C 0.24629 0.94536 0.70539 0.0
C578 C 0.33875 0.10641 0.63066 0.0
C579 C 0.27656 0.02961 0.67615 0.0
H580 H 0.47903 0.28067 0.68699 0.0
H581 H 0.49857 0.33402 0.61651 0.0
H582 H 0.44017 0.22932 0.61619 0.0
H583 H 0.46476 0.28185 0.59407 0.0
H584 H 0.20948 0.99248 0.66988 0.0
H585 H 0.1968 0.90486 0.70795 0.0
H586 H 0.29346 0.98886 0.70045 0.0
H587 H 0.25658 0.93229 0.71534 0.0
Tb588 Tb 0.88859 0.23462 0.664 0.0
C589 C 1.01698 0.33455 0.71857 0.0
C590 C 0.03125 0.38593 0.69748 0.0
C591 C 0.04759 0.3867 0.74117 0.0
C592 C 1.01576 0.35107 0.69744 0.0
C593 C 0.03337 0.35212 0.74058 0.0
C594 C 0.04653 0.4036 0.71963 0.0
C595 C 0.02231 0.30029 0.75908 0.0
N596 N 1.00248 0.30108 0.71731 0.0
C597 C 1.00625 0.28396 0.73683 0.0
C598 C 0.03546 0.33445 0.76113 0.0
Tb599 Tb 0.97549 0.27638 0.6803 0.0
N600 N 1.00092 0.33305 0.67642 0.0
C601 C 1.00359 0.34891 0.65408 0.0
C602 C 0.03178 0.402 0.67508 0.0
C603 C 1.01837 0.38342 0.65318 0.0
H604 H 0.99649 0.25762 0.73561 0.0
H605 H 1.01943 0.39563 0.63555 0.0
H606 H 0.05827 0.43035 0.72011 0.0
H607 H 0.02463 0.28652 0.7746 0.0
H608 H 0.99366 0.33524 0.63683 0.0
H609 H 0.84473 0.15626 0.74687 0.0
H610 H 0.04335 0.42873 0.67432 0.0
H611 H 0.87363 0.2164 0.60217 0.0
H612 H 0.87895 0.20799 0.72433 0.0
H613 H 0.84506 0.16637 0.57582 0.0
H614 H 0.06003 0.40065 0.75797 0.0
H615 H 0.80953 0.10472 0.72316 0.0
H616 H 0.79349 0.07505 0.68172 0.0
H617 H 0.04784 0.347 0.7784 0.0
H618 H 0.79553 0.07744 0.63535 0.0
N619 N 0.86391 0.18683 0.6875 0.0
C620 C 0.86411 0.18609 0.71337 0.0
C621 C 0.82527 0.1274 0.71303 0.0
C622 C 0.82618 0.12783 0.68669 0.0
C623 C 0.84478 0.15651 0.72643 0.0
C624 C 0.84552 0.15839 0.67429 0.0
H625 H 0.81526 0.11116 0.5958 0.0
N626 N 0.86438 0.18981 0.63694 0.0
C627 C 0.84566 0.16408 0.59612 0.0
C628 C 0.84638 0.1598 0.6482 0.0
C629 C 0.86245 0.19236 0.61117 0.0
C630 C 0.82875 0.13301 0.60748 0.0
C631 C 0.82825 0.13061 0.6338 0.0
O632 O 0.85426 0.24239 0.64332 0.0
O633 O 0.93233 0.28193 0.67079 0.0
O634 O 0.95327 0.28329 0.71373 0.0
O635 O 0.89673 0.2578 0.70323 0.0
O636 O 0.90334 0.27806 0.6405 0.0
O637 O 0.84547 0.2289 0.68237 0.0
O638 O 1.00203 0.25052 0.68146 0.0
O639 O 0.9309 0.22934 0.67211 0.0
O640 O 0.9184 0.23175 0.63169 0.0
O641 O 0.97045 0.27677 0.63953 0.0
O642 O 0.95966 0.23022 0.70126 0.0
O643 O 1.01996 0.2945 0.65943 0.0
C644 C 0.92847 0.29889 0.65364 0.0
C645 C 0.79732 0.21011 0.65617 0.0
C646 C 0.73739 0.18993 0.66076 0.0
C647 C 0.77089 0.21285 0.66728 0.0
C648 C 0.73074 0.16417 0.64388 0.0
C649 C 0.78915 0.18468 0.63852 0.0
C650 C 0.75642 0.16166 0.63283 0.0
C651 C 0.92236 0.27458 0.71921 0.0
C652 C 0.83315 0.23409 0.66193 0.0
C653 C 0.80954 0.10008 0.64609 0.0
C654 C 0.8083 0.09873 0.67248 0.0
C655 C 0.93364 0.21111 0.68844 0.0
C656 C 0.06004 0.28283 0.67742 0.0
C657 C 0.0745 0.26254 0.67445 0.0
C658 C 0.10581 0.27196 0.68514 0.0
C659 C 0.12247 0.30188 0.69857 0.0
C660 C 0.07757 0.31283 0.69065 0.0
C661 C 0.10853 0.32221 0.70114 0.0
C662 C 0.94894 0.25391 0.62419 0.0
C663 C 0.02625 0.27189 0.66765 0.0
H664 H 0.77629 0.23285 0.68031 0.0
H665 H 0.70544 0.14634 0.6387 0.0
H666 H 0.80787 0.18269 0.6285 0.0
H667 H 0.75098 0.14215 0.61931 0.0
H668 H 0.06121 0.23928 0.66433 0.0
H669 H 0.14649 0.30965 0.70695 0.0
H670 H 0.0673 0.32897 0.69302 0.0
H671 H 0.12174 0.34531 0.71141 0.0
Tb672 Tb 0.80801 0.66117 0.66727 0.0
C673 C 0.72178 0.7089 0.72078 0.0
C674 C 0.66932 0.67865 0.69904 0.0
C675 C 0.67081 0.69701 0.74225 0.0
C676 C 0.70408 0.69261 0.69955 0.0
C677 C 0.70552 0.7119 0.74224 0.0
C678 C 0.65272 0.68032 0.72069 0.0
C679 C 0.75922 0.74556 0.76143 0.0
N680 N 0.75519 0.72237 0.72017 0.0
C681 C 0.77415 0.74142 0.73988 0.0
C682 C 0.72472 0.73035 0.7628 0.0
Tb683 Tb 0.77769 0.71592 0.68355 0.0
N684 N 0.72118 0.69215 0.67893 0.0
C685 C 0.70495 0.68034 0.65646 0.0
C686 C 0.65246 0.66442 0.67656 0.0
C687 C 0.67044 0.6657 0.65508 0.0
H688 H 0.80083 0.75335 0.73915 0.0
H689 H 0.65776 0.65562 0.63738 0.0
H690 H 0.62601 0.66953 0.72072 0.0
H691 H 0.77443 0.76076 0.77683 0.0
H692 H 0.7182 0.68149 0.63945 0.0
H693 H 0.88166 0.69123 0.75322 0.0
H694 H 0.62576 0.65333 0.67538 0.0
H695 H 0.8275 0.65867 0.60731 0.0
H696 H 0.832 0.67673 0.72902 0.0
H697 H 0.87677 0.66901 0.58293 0.0
H698 H 0.65781 0.69878 0.75864 0.0
H699 H 0.93349 0.70327 0.73156 0.0
H700 H 0.96314 0.7071 0.69129 0.0
H701 H 0.71321 0.73363 0.77949 0.0
H702 H 0.96165 0.7005 0.64533 0.0
N703 N 0.85395 0.67935 0.6929 0.0
C704 C 0.85365 0.68111 0.71875 0.0
C705 C 0.91144 0.69671 0.72056 0.0
C706 C 0.91187 0.69501 0.69424 0.0
C707 C 0.88221 0.68977 0.73283 0.0
C708 C 0.88251 0.68647 0.68072 0.0
H709 H 0.93003 0.6875 0.60465 0.0
N710 N 0.85343 0.67564 0.64221 0.0
C711 C 0.87885 0.67405 0.603 0.0
C712 C 0.8822 0.68449 0.65461 0.0
C713 C 0.85111 0.66884 0.61686 0.0
C714 C 0.90885 0.68448 0.61535 0.0
C715 C 0.91074 0.68937 0.64149 0.0
O716 O 0.78743 0.6161 0.64759 0.0
O717 O 0.76417 0.66444 0.67498 0.0
O718 O 0.76609 0.68497 0.71685 0.0
O719 O 0.78352 0.64709 0.70607 0.0
O720 O 0.76418 0.63867 0.64362 0.0
O721 O 0.81524 0.62234 0.68126 0.0
O722 O 0.80519 0.76796 0.68858 0.0
O723 O 0.82055 0.71138 0.67388 0.0
O724 O 0.81532 0.69376 0.63373 0.0
O725 O 0.777 0.71049 0.6427 0.0
O726 O 0.82611 0.74226 0.70278 0.0
O727 O 0.7685 0.74633 0.65952 0.0
C728 C 0.74546 0.64525 0.65761 0.0
C729 C 0.81844 0.58802 0.64839 0.0
C730 C 0.8468 0.55514 0.64758 0.0
C731 C 0.83086 0.56962 0.66124 0.0
C732 C 0.85027 0.55953 0.6213 0.0
C733 C 0.82099 0.59003 0.62186 0.0
C734 C 0.83729 0.57657 0.60861 0.0
C735 C 0.76971 0.65924 0.72217 0.0
C736 C 0.80094 0.60335 0.66181 0.0
C737 C 0.93977 0.69744 0.65495 0.0
C738 C 0.94051 0.70082 0.68119 0.0
C739 C 0.84158 0.73155 0.68919 0.0
C740 C 0.77779 0.79737 0.67686 0.0
C741 C 0.79962 0.83199 0.67495 0.0
C742 C 0.78789 0.85443 0.67895 0.0
C743 C 0.75438 0.84172 0.6854 0.0
C744 C 0.74455 0.78562 0.68348 0.0
C745 C 0.73304 0.80767 0.6878 0.0
C746 C 0.79717 0.70741 0.62684 0.0
C747 C 0.78942 0.7737 0.6709 0.0
H748 H 0.82802 0.56647 0.68153 0.0
H749 H 0.86216 0.5487 0.61035 0.0
H750 H 0.81006 0.60176 0.61102 0.0
H751 H 0.83935 0.57887 0.58826 0.0
H752 H 0.82531 0.84135 0.66974 0.0
H753 H 0.74472 0.85825 0.6888 0.0
H754 H 0.72728 0.75935 0.68497 0.0
H755 H 0.70732 0.79829 0.69283 0.0
H756 H 0.37372 0.52843 0.9707 0.0
H757 H 0.31725 0.51969 0.97036 0.0
H758 H 0.30383 0.48576 0.04754 0.0
H759 H 0.36006 0.49381 0.04753 0.0
H760 H 0.25436 0.44251 0.02116 0.0
H761 H 0.30559 0.55917 0.02971 0.0
H762 H 0.34493 0.61785 0.02034 0.0
H763 H 0.30369 0.60594 0.94602 0.0
H764 H 0.26445 0.54701 0.95477 0.0
H765 H 0.0927 0.42891 0.02909 0.0
H766 H 0.14974 0.44059 0.03522 0.0
H767 H 0.17075 0.46889 0.95694 0.0
H768 H 0.11398 0.45763 0.95119 0.0
H769 H 0.21619 0.51699 0.98747 0.0
H770 H 0.17038 0.39813 0.97859 0.0
H771 H 0.13124 0.33973 0.989 0.0
H772 H 0.16138 0.35833 0.06671 0.0
H773 H 0.20111 0.4168 0.05662 0.0
C774 C 0.3592 0.52056 0.98791 0.0
C775 C 0.37153 0.51258 0.00933 0.0
C776 C 0.32675 0.51527 0.98769 0.0
C777 C 0.30599 0.50202 0.00895 0.0
C778 C 0.31912 0.4959 0.03086 0.0
C779 C 0.35147 0.50101 0.03101 0.0
C780 C 0.26994 0.49178 0.00756 0.0
C781 C 0.24616 0.45912 0.01421 0.0
C782 C 0.25881 0.51302 0.99816 0.0
C783 C 0.28224 0.54853 0.99283 0.0
C784 C 0.30506 0.56897 0.01129 0.0
C785 C 0.32733 0.6023 1.0061 0.0
C786 C 0.32686 0.61559 0.98258 0.0
C787 C 0.30405 0.59559 0.96422 0.0
C788 C 0.28177 0.56223 0.96929 0.0
C789 C 0.10926 0.43691 0.01323 0.0
C790 C 0.09886 0.4429 0.98997 0.0
C791 C 0.14198 0.44364 0.01663 0.0
C792 C 0.16495 0.45624 0.99661 0.0
C793 C 0.1538 0.45971 0.97281 0.0
C794 C 0.12114 0.45289 0.96949 0.0
C795 C 0.20092 0.46771 1.00063 0.0
C796 C 0.22459 0.50059 0.99454 0.0
C797 C 0.21198 0.44689 0.01082 0.0
C798 C 0.1885 0.41178 0.01689 0.0
C799 C 0.16859 0.38974 0.9979 0.0
C800 C 0.14637 0.35664 1.00373 0.0
C801 C 0.14368 0.34535 0.02853 0.0
C802 C 0.16347 0.3671 0.04751 0.0
C803 C 0.18598 0.40018 0.04172 0.0
H804 H 0.12632 0.31974 0.03302 0.0
H805 H 0.34414 0.64139 0.9786 0.0
H806 H 0.4927 0.82305 0.97973 0.0
H807 H 0.50335 0.77694 0.98446 0.0
H808 H 0.57015 0.8281 0.04611 0.0
H809 H 0.56006 0.87458 0.04078 0.0
H810 H 0.60041 0.81089 0.01411 0.0
H811 H 0.49359 0.75146 0.05278 0.0
H812 H 0.43324 0.72814 0.05732 0.0
H813 H 0.41659 0.67098 0.98972 0.0
H814 H 0.47689 0.69436 0.98451 0.0
H815 H 0.60891 0.656 0.03737 0.0
H816 H 0.5991 0.70262 0.04401 0.0
H817 H 0.5689 0.69621 0.96644 0.0
H818 H 0.57921 0.65033 0.95953 0.0
H819 H 0.52099 0.6902 0.01186 0.0
H820 H 0.6278 0.75328 0.97167 0.0
H821 H 0.68805 0.77721 0.96668 0.0
H822 H 0.70448 0.82892 0.03706 0.0
H823 H 0.64412 0.80424 0.04298 0.0
C824 C 0.50833 0.82366 0.9951 0.0
C825 C 0.5248 0.85205 0.01035 0.0
C826 C 0.5147 0.79734 0.9977 0.0
C827 C 0.5376 0.79869 0.01573 0.0
C828 C 0.55242 0.82622 0.03203 0.0
C829 C 0.5462 0.8526 0.0293 0.0
C830 C 0.54872 0.77341 0.01573 0.0
C831 C 0.58293 0.78449 0.01421 0.0
C832 C 0.52616 0.73879 0.01522 0.0
C833 C 0.48985 0.72492 0.01815 0.0
C834 C 0.4771 0.73416 0.03874 0.0
C835 C 0.44288 0.72088 0.04146 0.0
C836 C 0.4211 0.69815 0.02379 0.0
C837 C 0.4335 0.68863 1.00337 0.0
C838 C 0.4677 0.70187 1.00054 0.0
C839 C 0.60118 0.66514 0.02155 0.0
C840 C 0.59469 0.6492 0.99792 0.0
C841 C 0.59549 0.69183 0.0254 0.0
C842 C 0.58313 0.70292 1.00574 0.0
C843 C 0.57836 0.68813 0.9819 0.0
C844 C 0.5845 0.662 0.97796 0.0
C845 C 0.57241 0.72787 0.01015 0.0
C846 C 0.53832 0.71664 0.01233 0.0
C847 C 0.59503 0.76231 0.01121 0.0
C848 C 0.63128 0.77612 0.00812 0.0
C849 C 0.64412 0.76901 0.98644 0.0
C850 C 0.67835 0.78293 0.98334 0.0
C851 C 0.70008 0.80443 1.00161 0.0
C852 C 0.68761 0.81214 0.02297 0.0
C853 C 0.65338 0.79808 0.02625 0.0
H854 H 0.72659 0.81521 0.99917 0.0
H855 H 0.39462 0.68786 0.02594 0.0
H856 H 0.37816 0.95076 0.02457 0.0
H857 H 0.3279 0.89697 0.03072 0.0
H858 H 0.34278 0.86554 0.95752 0.0
H859 H 0.39109 0.91973 0.95079 0.0
H860 H 0.28239 0.83802 0.96294 0.0
H861 H 0.36883 0.84866 0.02063 0.0
H862 H 0.40843 0.87539 0.05562 0.0
H863 H 0.32834 0.85801 0.10531 0.0
H864 H 0.28828 0.83148 0.07051 0.0
H865 H 0.2227 0.66848 0.97145 0.0
H866 H 0.26378 0.72676 0.97862 0.0
H867 H 0.19619 0.73601 0.0291 0.0
H868 H 0.15455 0.67742 0.02154 0.0
H869 H 0.276 0.77552 0.04053 0.0
H870 H 0.18951 0.75969 0.98097 0.0
H871 H 0.15263 0.73077 0.945 0.0
H872 H 0.23727 0.7573 0.89769 0.0
H873 H 0.27464 0.78584 0.93356 0.0
C874 C 0.37019 0.9327 0.00959 0.0
C875 C 0.38896 0.93966 0.98728 0.0
C876 C 0.34158 0.90157 0.01324 0.0
C877 C 0.33174 0.87625 0.99498 0.0
C878 C 0.3495 0.88411 0.97213 0.0
C879 C 0.37738 0.91531 0.96827 0.0
C880 C 0.3042 0.84123 0.99951 0.0
C881 C 0.28127 0.82463 0.97999 0.0
C882 C 0.30169 0.82321 0.02189 0.0
C883 C 0.32562 0.8383 0.04295 0.0
C884 C 0.35969 0.85058 0.03901 0.0
C885 C 0.3822 0.86571 0.0588 0.0
C886 C 0.37088 0.86835 0.08267 0.0
C887 C 0.33704 0.85589 0.08681 0.0
C888 C 0.31442 0.84078 0.06708 0.0
C889 C 0.21712 0.68252 0.98495 0.0
C890 C 0.1856 0.66816 0.99629 0.0
C891 C 0.24057 0.71593 0.98892 0.0
C892 C 0.23319 0.73591 1.0044 0.0
C893 C 0.20264 0.72107 0.0173 0.0
C894 C 0.17891 0.68752 0.01311 0.0
C895 C 0.25531 0.77274 1.0037 0.0
C896 C 0.27706 0.7894 0.0238 0.0
C897 C 0.25719 0.79087 0.98175 0.0
C898 C 0.23482 0.77465 0.95998 0.0
C899 C 0.20023 0.75916 0.96294 0.0
C900 C 0.17925 0.74285 0.94257 0.0
C901 C 0.19259 0.74214 0.91908 0.0
C902 C 0.22696 0.75785 0.9159 0.0
C903 C 0.24805 0.77411 0.93623 0.0
H904 H 0.17631 0.72948 0.90334 0.0
H905 H 0.38831 0.87991 0.09798 0.0
H906 H 0.51437 0.21237 0.01954 0.0
H907 H 0.54766 0.273 0.01995 0.0
H908 H 0.46476 0.27891 0.98974 0.0
H909 H 0.43209 0.21871 0.98818 0.0
H910 H 0.51924 0.323 0.96775 0.0
H911 H 0.48788 0.29108 0.05507 0.0
H912 H 0.48559 0.26195 0.09453 0.0
H913 H 0.59198 0.31175 0.09673 0.0
H914 H 0.59487 0.34089 0.05708 0.0
H915 H 0.57732 0.47825 0.06082 0.0
H916 H 0.55807 0.42047 0.05291 0.0
H917 H 0.58724 0.44436 0.97448 0.0
H918 H 0.59927 0.50005 0.98203 0.0
H919 H 0.57133 0.38256 0.04689 0.0
H920 H 0.59708 0.39446 0.95304 0.0
H921 H 0.59957 0.41565 0.90992 0.0
H922 H 0.50043 0.3985 0.91794 0.0
H923 H 0.49765 0.37741 0.96125 0.0
C924 C 0.50338 0.22657 0.01264 0.0
C925 C 0.47029 0.21044 1.00411 0.0
C926 C 0.52236 0.26134 0.01317 0.0
C927 C 0.50862 0.28081 1.00536 0.0
C928 C 0.476 0.26468 0.99607 0.0
C929 C 0.45716 0.23009 0.99541 0.0
C930 C 0.52769 0.31789 1.00685 0.0
C931 C 0.52982 0.33618 0.98528 0.0
C932 C 0.54324 0.33532 0.02919 0.0
C933 C 0.54158 0.31786 0.05299 0.0
C934 C 0.51077 0.29563 0.06388 0.0
C935 C 0.50937 0.27915 0.08628 0.0
C936 C 0.53862 0.28492 0.09808 0.0
C937 C 0.56934 0.30725 0.08753 0.0
C938 C 0.57088 0.32376 0.06511 0.0
C939 C 0.57857 0.47053 0.04174 0.0
C940 C 0.58818 0.49323 0.02189 0.0
C941 C 0.56826 0.43716 0.03705 0.0
C942 C 0.57016 0.42564 0.01262 0.0
C943 C 0.58253 0.44973 0.99316 0.0
C944 C 0.59045 0.48262 0.99758 0.0
C945 C 0.55887 0.38894 0.00858 0.0
C946 C 0.55921 0.37019 0.02953 0.0
C947 C 0.54539 0.37099 0.98559 0.0
C948 C 0.54786 0.38636 0.9608 0.0
C949 C 0.57613 0.39595 0.94575 0.0
C950 C 0.57755 0.40781 0.92129 0.0
C951 C 0.55037 0.40906 0.91141 0.0
C952 C 0.52172 0.39831 0.92591 0.0
C953 C 0.52035 0.38677 0.9505 0.0
H954 H 0.55122 0.41777 0.89237 0.0
H955 H 0.53748 0.27214 0.11543 0.0
H956 H 0.55359 0.07878 0.98283 0.0
H957 H 0.61368 0.11622 0.98447 0.0
H958 H 0.6047 0.13845 0.06214 0.0
H959 H 0.54592 0.09744 0.06145 0.0
H960 H 0.64887 0.17759 0.9897 0.0
H961 H 0.65163 0.16339 0.08842 0.0
H962 H 0.64003 0.12874 0.12646 0.0
H963 H 0.66848 0.06646 0.08668 0.0
H964 H 0.6789 0.10018 0.0482 0.0
H965 H 0.82281 0.29769 0.0256 0.0
H966 H 0.76181 0.26619 0.02412 0.0
H967 H 0.76444 0.17626 0.01136 0.0
H968 H 0.8248 0.20732 0.01159 0.0
H969 H 0.72489 0.17633 0.05451 0.0
H970 H 0.74279 0.20223 0.96517 0.0
H971 H 0.76383 0.24047 0.92893 0.0
H972 H 0.70533 0.2838 0.95183 0.0
H973 H 0.68431 0.2461 0.98844 0.0
C974 C 0.56485 0.09034 1.00062 0.0
C975 C 0.54525 0.08341 0.02243 0.0
C976 C 0.59928 0.11234 1.00151 0.0
C977 C 0.61492 0.12946 0.02392 0.0
C978 C 0.59468 0.12406 0.04521 0.0
C979 C 0.56056 0.10103 0.04459 0.0
C980 C 0.65164 0.15431 0.02415 0.0
C981 C 0.66525 0.1772 1.00406 0.0
C982 C 0.67385 0.15503 0.04294 0.0
C983 C 0.66341 0.13258 0.06492 0.0
C984 C 0.65392 0.1414 0.08751 0.0
C985 C 0.64786 0.12215 0.10921 0.0
C986 C 0.65274 0.09491 0.10884 0.0
C987 C 0.66394 0.08708 0.08681 0.0
C988 C 0.66923 0.10581 0.06492 0.0
C989 C 0.81047 0.27134 0.02191 0.0
C990 C 0.82905 0.25512 0.01921 0.0
C991 C 0.77553 0.25333 0.02119 0.0
C992 C 0.75848 0.21876 0.01787 0.0
C993 C 0.77696 0.20282 0.0142 0.0
C994 C 0.81163 0.22072 0.01455 0.0
C995 C 0.72158 0.19842 0.01993 0.0
C996 C 0.70818 0.1767 0.04039 0.0
C997 C 0.69975 0.19909 1.00172 0.0
C998 C 0.71232 0.22165 0.97971 0.0
C999 C 0.73469 0.22015 0.96263 0.0
C1000 C 0.74655 0.24166 0.94198 0.0
C1001 C 0.73602 0.26463 0.93812 0.0
C1002 C 0.71352 0.26605 0.95487 0.0
C1003 C 0.70161 0.2446 0.97556 0.0
H1004 H 0.74522 0.28126 0.92212 0.0
H1005 H 0.64841 0.08023 0.12572 0.0
H1006 H 0.96683 0.47598 0.98707 0.0
H1007 H 0.9309 0.50047 0.98703 0.0
H1008 H 0.91011 0.47658 0.06598 0.0
H1009 H 0.94914 0.45617 0.06668 0.0
H1010 H 0.86787 0.47363 0.99432 0.0
H1011 H 0.89183 0.50649 0.09108 0.0
H1012 H 0.93112 0.5349 0.12596 0.0
H1013 H 0.99144 0.61639 0.07683 0.0
H1014 H 0.9531 0.58755 0.04145 0.0
H1015 H 0.75094 0.5315 0.02683 0.0
H1016 H 0.78298 0.5026 0.02682 0.0
H1017 H 0.8717 0.59415 0.00894 0.0
H1018 H 0.84001 0.62279 0.00785 0.0
H1019 H 0.87628 0.56072 0.05268 0.0
H1020 H 0.8408 0.53943 0.96538 0.0
H1021 H 0.79904 0.51718 0.93142 0.0
H1022 H 0.75853 0.41931 0.96216 0.0
H1023 H 0.79978 0.44109 0.99654 0.0
C1024 C 0.95587 0.47754 1.00468 0.0
C1025 C 0.96229 0.46579 0.02716 0.0
C1026 C 0.93482 0.49108 1.00461 0.0
C1027 C 0.91854 0.49197 0.02683 0.0
C1028 C 0.9238 0.47864 0.04899 0.0
C1029 C 0.94569 0.46618 0.04923 0.0
C1030 C 0.89442 0.50455 0.02613 0.0
C1031 C 0.86974 0.49255 1.00726 0.0
C1032 C 0.89598 0.52897 0.04304 0.0
C1033 C 0.92089 0.544 0.0633 0.0
C1034 C 0.91421 0.52985 0.08752 0.0
C1035 C 0.93614 0.54611 0.10741 0.0
C1036 C 0.96411 0.57718 0.10351 0.0
C1037 C 0.9701 0.59206 0.07973 0.0
C1038 C 0.94864 0.5755 0.05966 0.0
C1039 C 0.77712 0.54537 0.02236 0.0
C1040 C 0.79286 0.57973 0.01776 0.0
C1041 C 0.79543 0.52879 0.02247 0.0
C1042 C 0.82982 0.54627 0.01809 0.0
C1043 C 0.84528 0.58019 0.01262 0.0
C1044 C 0.82706 0.59661 0.01221 0.0
C1045 C 0.8505 0.53022 0.02076 0.0
C1046 C 0.87432 0.54151 0.03998 0.0
C1047 C 0.84783 0.50502 1.00438 0.0
C1048 C 0.82311 0.49195 0.9837 0.0
C1049 C 0.82277 0.51322 0.96505 0.0
C1050 C 0.79924 0.50069 0.94569 0.0
C1051 C 0.77607 0.46687 0.94468 0.0
C1052 C 0.77645 0.44551 0.96299 0.0
C1053 C 0.79991 0.45793 0.98241 0.0
H1054 H 0.75788 0.45721 0.92967 0.0
H1055 H 0.9809 0.58992 0.11899 0.0
H1056 H 0.7777 0.7653 0.29068 0.0
H1057 H 0.83344 0.77282 0.29667 0.0
H1058 H 0.84588 0.83055 0.36358 0.0
H1059 H 0.79021 0.8223 0.35797 0.0
H1060 H 0.89736 0.86174 0.32437 0.0
H1061 H 0.84257 0.76425 0.37529 0.0
H1062 H 0.80111 0.70651 0.38535 0.0
H1063 H 0.83611 0.6723 0.32362 0.0
H1064 H 0.87778 0.72998 0.31312 0.0
H1065 H 0.06111 0.89507 0.34816 0.0
H1066 H 1.0026 0.87724 0.35668 0.0
H1067 H 0.9725 0.79611 0.30444 0.0
H1068 H 0.03054 0.81314 0.29666 0.0
H1069 H 0.92892 0.77631 0.34055 0.0
H1070 H 0.98066 0.87313 0.28747 0.0
H1071 H 1.02196 0.93068 0.27645 0.0
H1072 H 0.99144 0.96619 0.34012 0.0
H1073 H 0.95026 0.90877 0.35173 0.0
C1074 C 0.79163 0.77803 0.3074 0.0
C1075 C 0.77838 0.79104 0.32491 0.0
C1076 C 0.82371 0.78276 0.31061 0.0
C1077 C 0.84381 0.80193 0.33078 0.0
C1078 C 0.83075 0.8152 0.34813 0.0
C1079 C 0.79851 0.80984 0.3452 0.0
C1080 C 0.87923 0.81035 0.33263 0.0
C1081 C 0.9043 0.84318 0.32833 0.0
C1082 C 0.88835 0.78609 0.33728 0.0
C1083 C 0.8631 0.75144 0.34328 0.0
C1084 C 0.84122 0.74444 0.3637 0.0
C1085 C 0.81775 0.71171 0.36954 0.0
C1086 C 0.81593 0.68574 0.35511 0.0
C1087 C 0.83757 0.69245 0.33479 0.0
C1088 C 0.86118 0.72516 0.32892 0.0
C1089 C 0.04197 0.87282 0.33917 0.0
C1090 C 0.05056 0.8557 0.32159 0.0
C1091 C 1.00845 0.86286 0.34375 0.0
C1092 C 0.98283 0.83573 0.3307 0.0
C1093 C 0.9915 0.81722 0.31466 0.0
C1094 C 0.02482 0.82704 0.31018 0.0
C1095 C 0.94735 0.82785 0.3321 0.0
C1096 C 0.92215 0.79505 0.33685 0.0
C1097 C 0.93804 0.85214 0.32764 0.0
C1098 C 0.96268 0.88666 0.32064 0.0
C1099 C 0.98293 0.8932 0.29922 0.0
C1100 C 1.0063 0.92579 0.29286 0.0
C1101 C 1.0094 0.95207 0.30762 0.0
C1102 C 0.98907 0.94581 0.32874 0.0
C1103 C 0.96571 0.91325 0.33522 0.0
H1104 H 0.0275 0.97728 0.30266 0.0
H1105 H 0.7978 0.66039 0.35967 0.0
H1106 H 0.16061 0.16749 0.33538 0.0
H1107 H 0.17688 0.12568 0.34386 0.0
H1108 H 0.27736 0.19554 0.32205 0.0
H1109 H 0.26116 0.23713 0.31381 0.0
H1110 H 0.19685 0.09772 0.31089 0.0
H1111 H 0.33235 0.17613 0.34867 0.0
H1112 H 0.36422 0.22351 0.37721 0.0
H1113 H 0.27439 0.20366 0.4149 0.0
H1114 H 0.24205 0.15591 0.38686 0.0
H1115 H 0.27529 1.00708 0.28475 0.0
H1116 H 0.26701 0.05473 0.2887 0.0
H1117 H 0.27168 0.04982 0.36977 0.0
H1118 H 0.28097 1.00274 0.36562 0.0
H1119 H 0.29626 0.11248 0.35671 0.0
H1120 H 0.19405 1.01382 0.33918 0.0
H1121 H 0.15522 0.96239 0.31697 0.0
H1122 H 0.17031 0.0168 0.24818 0.0
H1123 H 0.20885 0.06877 0.27017 0.0
C1124 C 0.1864 0.17426 0.33335 0.0
C1125 C 0.20964 0.2058 0.32421 0.0
C1126 C 0.19566 0.15019 0.33787 0.0
C1127 C 0.22847 0.15718 0.33362 0.0
C1128 C 0.25204 0.18935 0.32586 0.0
C1129 C 0.24275 0.21325 0.32119 0.0
C1130 C 0.23746 0.13033 0.33494 0.0
C1131 C 0.2186 0.10113 0.32098 0.0
C1132 C 0.26542 0.13396 0.34848 0.0
C1133 C 0.28474 0.16263 0.36545 0.0
C1134 C 0.31941 0.18181 0.36309 0.0
C1135 C 0.33755 0.20875 0.37918 0.0
C1136 C 0.32133 0.21666 0.39779 0.0
C1137 C 0.28692 0.1976 0.4004 0.0
C1138 C 0.26866 0.17063 0.38438 0.0
C1139 C 0.27563 0.01681 0.30341 0.0
C1140 C 0.27865 1.00081 0.32491 0.0
C1141 C 0.2704 0.04386 0.30569 0.0
C1142 C 0.26751 0.05545 0.32958 0.0
C1143 C 0.27337 0.04133 0.35107 0.0
C1144 C 0.27891 0.01436 0.34872 0.0
C1145 C 0.25625 0.08055 0.33197 0.0
C1146 C 0.27461 0.10929 0.3466 0.0
C1147 C 0.22724 0.07617 0.31967 0.0
C1148 C 0.20451 0.04507 0.30625 0.0
C1149 C 0.18923 0.01476 0.31928 0.0
C1150 C 0.16724 0.98553 0.30674 0.0
C1151 C 0.16051 0.98623 0.28111 0.0
C1152 C 0.1756 0.01627 0.26802 0.0
C1153 C 0.19738 0.04565 0.28054 0.0
H1154 H 0.14348 0.96356 0.27143 0.0
H1155 H 0.33542 0.23751 0.41023 0.0
H1156 H 0.05105 0.27078 0.29277 0.0
H1157 H 1.00398 0.21603 0.30064 0.0
H1158 H 1.01136 0.23693 0.38052 0.0
H1159 H 0.05934 0.2921 0.37248 0.0
H1160 H 1.00468 0.1779 0.37405 0.0
H1161 H 0.94472 0.22724 0.34452 0.0
H1162 H 0.93075 0.26137 0.31734 0.0
H1163 H 0.91407 0.19606 0.25485 0.0
H1164 H 0.92862 0.16186 0.28149 0.0
H1165 H 0.84 0.01825 0.37402 0.0
H1166 H 0.88343 0.07631 0.38124 0.0
H1167 H 0.93009 0.07556 0.31114 0.0
H1168 H 0.88752 0.0177 0.30428 0.0
H1169 H 0.90382 0.12587 0.32053 0.0
H1170 H 0.97282 0.08191 0.35326 0.0
H1171 H 0.98522 0.04942 0.38355 0.0
H1172 H 0.97931 0.10654 0.44495 0.0
H1173 H 0.96648 0.13912 0.41503 0.0
C1174 C 0.04221 0.26412 0.312 0.0
C1175 C 0.05937 0.2858 0.33203 0.0
C1176 C 1.01513 0.23262 0.31652 0.0
C1177 C 1.00378 0.2219 0.34123 0.0
C1178 C 1.01963 0.24426 0.36127 0.0
C1179 C 0.04702 0.27595 0.35668 0.0
C1180 C 0.9768 0.18677 0.3457 0.0
C1181 C 0.98233 0.16679 0.36268 0.0
C1182 C 0.94728 0.17186 0.33113 0.0
C1183 C 0.93792 0.19201 0.31503 0.0
C1184 C 0.93825 0.22021 0.32494 0.0
C1185 C 0.93023 0.2396 0.30962 0.0
C1186 C 0.92153 0.23089 0.28438 0.0
C1187 C 0.92079 0.20275 0.27442 0.0
C1188 C 0.92889 0.18333 0.28964 0.0
C1189 C 0.86052 0.03 0.36088 0.0
C1190 C 0.86081 1.01311 0.3389 0.0
C1191 C 0.88508 0.06332 0.36483 0.0
C1192 C 0.90999 0.0804 0.34666 0.0
C1193 C 0.91126 0.06295 0.32546 0.0
C1194 C 0.88714 0.02971 0.32172 0.0
C1195 C 0.93254 0.11709 0.348 0.0
C1196 C 0.92598 0.13728 0.33214 0.0
C1197 C 0.96054 0.13224 0.36405 0.0
C1198 C 0.96816 0.11257 0.38195 0.0
C1199 C 0.97374 0.08726 0.37325 0.0
C1200 C 0.981 0.06892 0.39034 0.0
C1201 C 0.98295 0.07584 0.41617 0.0
C1202 C 0.97776 0.10119 0.42495 0.0
C1203 C 0.97051 0.11959 0.40793 0.0
H1204 H 0.98858 0.06163 0.42938 0.0
H1205 H 0.91534 0.24594 0.27254 0.0
H1206 H 0.25878 0.83277 0.39688 0.0
H1207 H 0.2384 0.77323 0.39421 0.0
H1208 H 0.22801 0.77667 0.31352 0.0
H1209 H 0.24863 0.83652 0.31623 0.0
H1210 H 0.17508 0.7219 0.3333 0.0
H1211 H 0.29196 0.77114 0.33774 0.0
H1212 H 0.34829 0.80789 0.35413 0.0
H1213 H 0.32109 0.75619 0.42495 0.0
H1214 H 0.2644 0.71944 0.40912 0.0
H1215 H 0.15035 0.55669 0.32045 0.0
H1216 H 0.1756 0.61711 0.31566 0.0
H1217 H 0.18471 0.62856 0.39654 0.0
H1218 H 0.1593 0.5685 0.40134 0.0
H1219 H 0.24096 0.67631 0.37181 0.0
H1220 H 0.12213 0.62935 0.36665 0.0
H1221 H 0.06636 0.59349 0.34895 0.0
H1222 H 0.09898 0.64175 0.27709 0.0
H1223 H 0.15513 0.67757 0.29428 0.0
C1224 C 0.25198 0.82078 0.37858 0.0
C1225 C 0.25452 0.83921 0.35688 0.0
C1226 C 0.24044 0.78672 0.37703 0.0
C1227 C 0.23181 0.77023 0.35363 0.0
C1228 C 0.23436 0.78863 0.33183 0.0
C1229 C 0.24603 0.82285 0.33339 0.0
C1230 C 0.22072 0.734 0.35212 0.0
C1231 C 0.18978 0.71204 0.34134 0.0
C1232 C 0.23967 0.72081 0.3627 0.0
C1233 C 0.27381 0.74269 0.3723 0.0
C1234 C 0.2979 0.76775 0.35687 0.0
C1235 C 0.32992 0.78857 0.36605 0.0
C1236 C 0.33825 0.78442 0.39058 0.0
C1237 C 0.31459 0.75939 0.40595 0.0
C1238 C 0.28251 0.73853 0.39688 0.0
C1239 C 0.15828 0.5722 0.33714 0.0
C1240 C 0.15282 0.55777 0.36127 0.0
C1241 C 0.17246 0.60673 0.33442 0.0
C1242 C 0.18186 0.62758 0.35576 0.0
C1243 C 0.1777 0.6132 0.37977 0.0
C1244 C 0.16313 0.5788 0.38249 0.0
C1245 C 0.19504 0.66416 0.35346 0.0
C1246 C 0.22641 0.68621 0.36355 0.0
C1247 C 0.17664 0.67742 0.342 0.0
C1248 C 0.14296 0.65579 0.33164 0.0
C1249 C 0.11752 0.63207 0.34699 0.0
C1250 C 0.08582 0.6118 0.33707 0.0
C1251 C 0.07917 0.61525 0.31188 0.0
C1252 C 0.10419 0.63904 0.29658 0.0
C1253 C 0.13596 0.65932 0.3064 0.0
H1254 H 0.0546 0.59956 0.30424 0.0
H1255 H 0.36305 0.80056 0.39765 0.0
H1256 H 0.2205 0.42844 0.31091 0.0
H1257 H 0.27835 0.46966 0.30395 0.0
H1258 H 0.30011 0.45937 0.38167 0.0
H1259 H 0.24129 0.4229 0.3893 0.0
H1260 H 0.33204 0.51598 0.37542 0.0
H1261 H 0.34809 0.44014 0.30552 0.0
H1262 H 0.33238 0.41135 0.26426 0.0
H1263 H 0.31181 0.48518 0.23536 0.0
H1264 H 0.32911 0.51521 0.27598 0.0
H1265 H 0.50232 0.56835 0.37656 0.0
H1266 H 0.44186 0.53788 0.37496 0.0
H1267 H 0.44447 0.58747 0.3056 0.0
H1268 H 0.50546 0.61789 0.30694 0.0
H1269 H 0.4008 0.52233 0.3019 0.0
H1270 H 0.41903 0.60672 0.35997 0.0
H1271 H 0.443 0.64336 0.3969 0.0
H1272 H 0.3988 0.55912 0.44628 0.0
H1273 H 0.37494 0.52189 0.40962 0.0
C1274 C 0.2379 0.43483 0.32635 0.0
C1275 C 0.22646 0.42177 0.35055 0.0
C1276 C 0.27157 0.45822 0.32225 0.0
C1277 C 0.29511 0.46792 0.34195 0.0
C1278 C 0.28329 0.45341 0.3659 0.0
C1279 C 0.24947 0.43184 0.3703 0.0
C1280 C 0.33128 0.4945 0.33902 0.0
C1281 C 0.34684 0.51641 0.35945 0.0
C1282 C 0.35128 0.49825 0.31747 0.0
C1283 C 0.33824 0.47887 0.29406 0.0
C1284 C 0.33952 0.44973 0.29049 0.0
C1285 C 0.33074 0.43346 0.26716 0.0
C1286 C 0.32022 0.4459 0.24744 0.0
C1287 C 0.31941 0.47523 0.25076 0.0
C1288 C 0.32903 0.49205 0.27382 0.0
C1289 C 0.49011 0.57291 0.36096 0.0
C1290 C 0.50888 0.59557 0.34185 0.0
C1291 C 0.45541 0.55558 0.36017 0.0
C1292 C 0.43832 0.56042 0.34027 0.0
C1293 C 0.45694 0.58328 0.32121 0.0
C1294 C 0.49183 0.60087 0.32209 0.0
C1295 C 0.40118 0.54065 0.33923 0.0
C1296 C 0.38568 0.52093 0.318 0.0
C1297 C 0.38116 0.53919 0.35986 0.0
C1298 C 0.39537 0.56149 0.38201 0.0
C1299 C 0.41461 0.59597 0.37869 0.0
C1300 C 0.42815 0.61685 0.39958 0.0
C1301 C 0.42247 0.60357 0.42391 0.0
C1302 C 0.40318 0.56937 0.42742 0.0
C1303 C 0.38961 0.54837 0.40659 0.0
H1304 H 0.43298 0.61978 0.44006 0.0
H1305 H 0.31316 0.43308 0.22949 0.0
H1306 H 0.49656 0.93865 0.3177 0.0
H1307 H 0.52504 0.90647 0.31896 0.0
H1308 H 0.4542 0.84048 0.37363 0.0
H1309 H 0.42514 0.87243 0.37206 0.0
H1310 H 0.52205 0.86712 0.38787 0.0
H1311 H 0.45159 0.8104 0.31817 0.0
H1312 H 0.42505 0.80557 0.27692 0.0
H1313 H 0.52043 0.8533 0.24082 0.0
H1314 H 0.54762 0.85889 0.28192 0.0
H1315 H 0.61471 0.78378 0.39412 0.0
H1316 H 0.57098 0.79776 0.39225 0.0
H1317 H 0.60017 0.8332 0.31589 0.0
H1318 H 0.63875 0.81233 0.31639 0.0
H1319 H 0.54432 0.81483 0.31462 0.0
H1320 H 0.61392 0.88831 0.38397 0.0
H1321 H 0.64322 0.89982 0.42508 0.0
H1322 H 0.55285 0.82787 0.46086 0.0
H1323 H 0.52353 0.81609 0.41998 0.0
C1324 C 0.48676 0.91699 0.32972 0.0
C1325 C 0.45863 0.90812 0.34481 0.0
C1326 C 0.503 0.89854 0.33036 0.0
C1327 C 0.4918 0.87097 0.34635 0.0
C1328 C 0.46328 0.86159 0.3611 0.0
C1329 C 0.4466 0.87975 0.3601 0.0
C1330 C 0.5114 0.85366 0.3488 0.0
C1331 C 0.52665 0.85527 0.37195 0.0
C1332 C 0.51796 0.83879 0.32797 0.0
C1333 C 0.50167 0.83528 0.30318 0.0
C1334 C 0.46694 0.82011 0.30147 0.0
C1335 C 0.45177 0.8172 0.2781 0.0
C1336 C 0.47104 0.82918 0.25627 0.0
C1337 C 0.50553 0.84405 0.25775 0.0
C1338 C 0.52084 0.84706 0.28108 0.0
C1339 C 0.61179 0.7947 0.37696 0.0
C1340 C 0.63191 0.79898 0.35588 0.0
C1341 C 0.58704 0.80353 0.37605 0.0
C1342 C 0.58277 0.81874 0.35446 0.0
C1343 C 0.6025 0.82208 0.33312 0.0
C1344 C 0.62561 0.81106 0.33355 0.0
C1345 C 0.55733 0.83004 0.35351 0.0
C1346 C 0.54035 0.8269 0.33066 0.0
C1347 C 0.5497 0.84426 0.37452 0.0
C1348 C 0.56708 0.85085 0.39897 0.0
C1349 C 0.60076 0.87472 0.40063 0.0
C1350 C 0.6172 0.88135 0.42383 0.0
C1351 C 0.59998 0.86433 0.4455 0.0
C1352 C 0.56622 0.84089 0.44405 0.0
C1353 C 0.54969 0.83429 0.42089 0.0
H1354 H 0.61273 0.86947 0.46345 0.0
H1355 H 0.45925 0.8269 0.2382 0.0
H1356 H 0.70157 0.16628 0.70451 0.0
H1357 H 0.64435 0.15425 0.7114 0.0
H1358 H 0.64801 0.20215 0.64082 0.0
H1359 H 0.70531 0.21523 0.63468 0.0
H1360 H 0.61138 0.21271 0.66981 0.0
H1361 H 0.61456 0.11388 0.6489 0.0
H1362 H 0.63035 0.07103 0.65445 0.0
H1363 H 0.58206 0.04558 0.72675 0.0
H1364 H 0.56645 0.08866 0.72177 0.0
H1365 H 0.44678 0.12496 0.62554 0.0
H1366 H 0.50353 0.13645 0.63209 0.0
H1367 H 0.48567 0.12256 0.71212 0.0
H1368 H 0.42827 0.11012 0.7056 0.0
H1369 H 0.52795 0.09465 0.68421 0.0
H1370 H 0.52141 0.19446 0.70045 0.0
H1371 H 0.50696 0.23738 0.69037 0.0
H1372 H 0.56127 0.25853 0.62078 0.0
H1373 H 0.57595 0.21567 0.6304 0.0
C1374 C 0.69057 0.17554 0.69113 0.0
C1375 C 0.70821 0.19241 0.66936 0.0
C1376 C 0.65754 0.16802 0.69476 0.0
C1377 C 0.64114 0.17643 0.67633 0.0
C1378 C 0.65966 0.1952 0.65541 0.0
C1379 C 0.69267 0.20302 0.65198 0.0
C1380 C 0.60448 0.16435 0.67773 0.0
C1381 C 0.59332 0.18685 0.67304 0.0
C1382 C 0.58033 0.13061 0.68209 0.0
C1383 C 0.58965 0.10471 0.68509 0.0
C1384 C 0.60751 0.09929 0.66605 0.0
C1385 C 0.61642 0.07496 0.66909 0.0
C1386 C 0.60729 0.05565 0.69097 0.0
C1387 C 0.58917 0.06059 0.70984 0.0
C1388 C 0.58028 0.08496 0.70692 0.0
C1389 C 0.45451 0.12322 0.6445 0.0
C1390 C 0.43299 0.11708 0.66508 0.0
C1391 C 0.48711 0.13006 0.64822 0.0
C1392 C 0.4991 0.13071 0.67263 0.0
C1393 C 0.47697 0.12196 0.6931 0.0
C1394 C 0.44412 0.11501 0.68936 0.0
C1395 C 0.53529 0.1431 0.67647 0.0
C1396 C 0.54622 0.12061 0.68178 0.0
C1397 C 0.55929 0.17669 0.67216 0.0
C1398 C 0.54959 0.20173 0.66608 0.0
C1399 C 0.52996 0.20801 0.68287 0.0
C1400 C 0.52182 0.23241 0.67727 0.0
C1401 C 0.53317 0.25063 0.65492 0.0
C1402 C 0.55253 0.2444 0.63808 0.0
C1403 C 0.56082 0.22014 0.64363 0.0
H1404 H 0.52721 0.26973 0.65066 0.0
H1405 H 0.61419 0.03681 0.69328 0.0
H1406 H 0.93249 0.33208 0.69768 0.0
H1407 H 0.92313 0.37901 0.70291 0.0
H1408 H 0.91983 0.38673 0.62198 0.0
H1409 H 0.92933 0.33987 0.61706 0.0
H1410 H 0.9494 0.44383 0.68892 0.0
H1411 H 0.85467 0.3963 0.6064 0.0
H1412 H 0.81777 0.34342 0.58489 0.0
H1413 H 0.81352 0.28987 0.65202 0.0
H1414 H 0.84994 0.3424 0.67404 0.0
H1415 H 0.90963 0.5651 0.64696 0.0
H1416 H 0.92674 0.52412 0.65476 0.0
H1417 H 0.82788 0.45451 0.6802 0.0
H1418 H 0.81067 0.49571 0.67209 0.0
H1419 H 0.8462 0.42534 0.64703 0.0
H1420 H 0.89606 0.48715 0.72095 0.0
H1421 H 0.92982 0.53618 0.74748 0.0
H1422 H 1.01724 0.55574 0.70622 0.0
H1423 H 0.98393 0.50706 0.67919 0.0
C1424 C 0.93122 0.34464 0.68115 0.0
C1425 C 0.93205 0.33234 0.6571 0.0
C1426 C 0.92549 0.37138 0.68406 0.0
C1427 C 0.92005 0.38621 0.66286 0.0
C1428 C 0.92334 0.3755 0.63872 0.0
C1429 C 0.92908 0.34884 0.6359 0.0
C1430 C 0.90807 0.41059 0.66579 0.0
C1431 C 0.92693 0.43987 0.67968 0.0
C1432 C 0.87798 0.40499 0.65467 0.0
C1433 C 0.85528 0.37331 0.64177 0.0
C1434 C 0.8457 0.37325 0.61661 0.0
C1435 C 0.82489 0.34333 0.60433 0.0
C1436 C 0.81339 0.3133 0.61706 0.0
C1437 C 0.82253 0.31313 0.64215 0.0
C1438 C 0.84326 0.34297 0.65453 0.0
C1439 C 0.89184 0.54145 0.65508 0.0
C1440 C 0.85889 0.53388 0.65925 0.0
C1441 C 0.90163 0.51788 0.65948 0.0
C1442 C 0.87874 0.48594 0.66814 0.0
C1443 C 0.84614 0.47886 0.67351 0.0
C1444 C 0.83637 0.5026 0.66922 0.0
C1445 C 0.88819 0.45941 0.66937 0.0
C1446 C 0.86875 0.42952 0.65629 0.0
C1447 C 0.91726 0.46412 0.68183 0.0
C1448 C 0.93741 0.4936 0.69788 0.0
C1449 C 0.92243 0.50207 0.71737 0.0
C1450 C 0.9415 0.52977 0.73254 0.0
C1451 C 0.97564 0.54911 0.7285 0.0
C1452 C 0.99079 0.54075 0.70931 0.0
C1453 C 0.97182 0.51308 0.69407 0.0
H1454 H 0.99037 0.57053 0.74028 0.0
H1455 H 0.79735 0.29017 0.6075 0.0
H1456 H 0.70519 0.62594 0.70057 0.0
H1457 H 0.65516 0.57193 0.70744 0.0
H1458 H 0.65926 0.54598 0.62975 0.0
H1459 H 0.70732 0.60011 0.62274 0.0
H1460 H 0.60024 0.51729 0.64007 0.0
H1461 H 0.69462 0.52639 0.68692 0.0
H1462 H 0.73824 0.54991 0.71956 0.0
H1463 H 0.66412 0.52423 0.77702 0.0
H1464 H 0.6202 0.50127 0.74468 0.0
H1465 H 0.55672 0.34876 0.64151 0.0
H1466 H 0.59354 0.40755 0.6505 0.0
H1467 H 0.51921 0.40755 0.69905 0.0
H1468 H 0.48168 0.34832 0.68959 0.0
H1469 H 0.60546 0.44954 0.71015 0.0
H1470 H 0.51082 0.43797 0.65964 0.0
H1471 H 0.47064 0.41107 0.62502 0.0
H1472 H 0.55065 0.43921 0.57244 0.0
H1473 H 0.59126 0.4658 0.60687 0.0
C1474 C 0.69486 0.60901 0.68491 0.0
C1475 C 0.71078 0.61726 0.66126 0.0
C1476 C 0.66637 0.57778 0.68886 0.0
C1477 C 0.65371 0.55383 0.66939 0.0
C1478 C 0.66822 0.56337 0.64533 0.0
C1479 C 0.69598 0.5946 0.6413 0.0
C1480 C 0.62691 0.51835 0.67371 0.0
C1481 C 0.60154 0.50283 0.6556 0.0
C1482 C 0.62769 0.49874 0.694 0.0
C1483 C 0.65417 0.51243 0.71338 0.0
C1484 C 0.68768 0.52597 0.70651 0.0
C1485 C 0.71246 0.53924 0.72496 0.0
C1486 C 0.70397 0.53862 0.75036 0.0
C1487 C 0.67071 0.52483 0.75736 0.0
C1488 C 0.64586 0.51171 0.73898 0.0
C1489 C 0.54855 0.36098 0.65475 0.0
C1490 C 0.5163 0.34378 0.66494 0.0
C1491 C 0.56964 0.39466 0.65982 0.0
C1492 C 0.55921 0.41213 0.67537 0.0
C1493 C 0.5279 0.39458 0.68708 0.0
C1494 C 0.50653 0.36068 0.68182 0.0
C1495 C 0.57963 0.44913 0.67642 0.0
C1496 C 0.60389 0.46459 0.69521 0.0
C1497 C 0.5783 0.46872 0.6566 0.0
C1498 C 0.55399 0.4536 0.63582 0.0
C1499 C 0.5198 0.4382 0.64072 0.0
C1500 C 0.49696 0.42305 0.62114 0.0
C1501 C 0.50808 0.42337 0.59656 0.0
C1502 C 0.54206 0.43896 0.59149 0.0
C1503 C 0.56499 0.45409 0.61102 0.0
H1504 H 0.49037 0.41159 0.58143 0.0
H1505 H 0.72315 0.54862 0.76463 0.0
H1506 H 0.77751 0.89675 0.64998 0.0
H1507 H 0.80872 0.95741 0.65006 0.0
H1508 H 0.87792 0.95607 0.70338 0.0
H1509 H 0.84686 0.89508 0.70304 0.0
H1510 H 0.85184 0.99644 0.71823 0.0
H1511 H 0.90381 0.98169 0.64532 0.0
H1512 H 0.90522 0.95918 0.60346 0.0
H1513 H 0.85416 1.00569 0.57117 0.0
H1514 H 0.85201 0.02809 0.61291 0.0
H1515 H 0.93648 0.17171 0.72479 0.0
H1516 H 0.92164 0.11406 0.72214 0.0
H1517 H 0.88581 0.10953 0.64611 0.0
H1518 H 0.90873 0.16932 0.64715 0.0
H1519 H 0.89962 0.06957 0.64385 0.0
H1520 H 0.83309 0.07001 0.71777 0.0
H1521 H 0.82583 0.08777 0.76041 0.0
H1522 H 0.89726 0.06447 0.79051 0.0
H1523 H 0.90479 0.04669 0.74825 0.0
C1524 C 0.79974 0.90939 0.66137 0.0
C1525 C 0.80976 0.8911 0.67646 0.0
C1526 C 0.81762 0.94411 0.66137 0.0
C1527 C 0.8458 0.96151 0.67668 0.0
C1528 C 0.85634 0.94329 0.69135 0.0
C1529 C 0.83872 0.90844 0.69103 0.0
C1530 C 0.86258 0.99848 0.67866 0.0
C1531 C 0.86257 1.01259 0.70202 0.0
C1532 C 0.87598 0.01956 0.65749 0.0
C1533 C 0.87752 1.00636 0.63231 0.0
C1534 C 0.89266 0.98692 0.62933 0.0
C1535 C 0.89363 0.97421 0.60561 0.0
C1536 C 0.87972 0.98094 0.58468 0.0
C1537 C 0.86491 1.00047 0.5874 0.0
C1538 C 0.86384 1.01322 0.61109 0.0
C1539 C 0.92535 0.15829 0.70751 0.0
C1540 C 0.92152 0.17476 0.68671 0.0
C1541 C 0.91582 0.1246 0.70618 0.0
C1542 C 0.8999 0.10542 0.68458 0.0
C1543 C 0.89726 0.12253 0.66343 0.0
C1544 C 0.90936 0.15687 0.66417 0.0
C1545 C 0.88729 0.06834 0.68343 0.0
C1546 C 0.88843 0.05393 0.6602 0.0
C1547 C 0.87408 0.04673 0.70468 0.0
C1548 C 0.86995 0.05786 0.72988 0.0
C1549 C 0.84747 0.06922 0.73351 0.0
C1550 C 0.84324 0.07911 0.75754 0.0
C1551 C 0.86131 0.07757 0.77803 0.0
C1552 C 0.88342 0.06584 0.7746 0.0
C1553 C 0.8876 0.05578 0.75066 0.0
H1554 H 0.85802 0.08526 0.79659 0.0
H1555 H 0.88048 0.97106 0.56633 0.0
H1556 H 0.87482 0.75705 0.6446 0.0
H1557 H 0.93311 0.79794 0.63918 0.0
H1558 H 0.94963 0.79103 0.7187 0.0
H1559 H 0.8903 0.7548 0.72447 0.0
H1560 H 0.98361 0.84705 0.71133 0.0
H1561 H 1.00051 0.766 0.64881 0.0
H1562 H 0.98759 0.7341 0.60896 0.0
H1563 H 0.97089 0.80622 0.57183 0.0
H1564 H 0.98575 0.83949 0.61098 0.0
H1565 H 0.15915 0.88141 0.67366 0.0
H1566 H 0.09908 0.84946 0.67011 0.0
H1567 H 0.09323 0.93733 0.68533 0.0
H1568 H 0.15378 0.96938 0.69014 0.0
H1569 H 0.05456 0.84882 0.64094 0.0
H1570 H 1.01941 0.91569 0.71444 0.0
H1571 H 0.04273 0.95102 0.75218 0.0
H1572 H 0.10076 0.90492 0.76824 0.0
H1573 H 0.07753 0.86913 0.73075 0.0
C1574 C 0.89113 0.76408 0.66081 0.0
C1575 C 0.87804 0.752 0.6849 0.0
C1576 C 0.92506 0.78728 0.65764 0.0
C1577 C 0.9473 0.79775 0.67826 0.0
C1578 C 0.93386 0.78439 0.7022 0.0
C1579 C 0.89974 0.76295 0.70556 0.0
C1580 C 0.9838 0.82377 0.67598 0.0
C1581 C 0.99879 0.84683 0.69587 0.0
C1582 C 1.00466 0.82565 0.65557 0.0
C1583 C 0.99261 0.80427 0.63303 0.0
C1584 C 0.99339 0.7746 0.63225 0.0
C1585 C 0.98615 0.75653 0.60975 0.0
C1586 C 0.97751 0.76762 0.58811 0.0
C1587 C 0.97705 0.79735 0.5887 0.0
C1588 C 0.98525 0.81599 0.61093 0.0
C1589 C 0.14521 0.89407 0.67646 0.0
C1590 C 0.16156 0.928 0.68271 0.0
C1591 C 0.11066 0.8757 0.67416 0.0
C1592 C 0.09115 0.89059 0.67786 0.0
C1593 C 0.10743 0.92489 0.68289 0.0
C1594 C 0.14221 0.94336 0.68535 0.0
C1595 C 0.05396 0.86959 0.67707 0.0
C1596 C 0.03903 0.84825 0.65647 0.0
C1597 C 0.03327 0.86905 0.6969 0.0
C1598 C 0.04701 0.89005 0.71967 0.0
C1599 C 0.03708 0.91306 0.72609 0.0
C1600 C 0.05029 0.93317 0.74741 0.0
C1601 C 0.0733 0.9303 0.76255 0.0
C1602 C 0.08303 0.90721 0.75645 0.0
C1603 C 0.06987 0.88703 0.73516 0.0
H1604 H 0.08353 0.94591 0.77903 0.0
H1605 H 0.97166 0.75342 0.5708 0.0
H1606 H 0.2782 0.13389 0.72929 0.0
H1607 H 0.24027 0.15567 0.72428 0.0
H1608 H 0.26054 0.16716 0.64435 0.0
H1609 H 0.29768 0.14419 0.64923 0.0
H1610 H 0.26221 0.22348 0.66776 0.0
H1611 H 0.19047 0.10722 0.66125 0.0
H1612 H 0.16603 0.04866 0.67361 0.0
H1613 H 0.13084 0.06832 0.74284 0.0
H1614 H 0.15562 0.1272 0.73111 0.0
H1615 H 0.13198 0.25944 0.643 0.0
H1616 H 0.16528 0.23179 0.64107 0.0
H1617 H 0.14942 0.21074 0.72076 0.0
H1618 H 0.11678 0.23888 0.72273 0.0
H1619 H 0.1442 0.1572 0.69337 0.0
H1620 H 0.21896 0.27373 0.70153 0.0
H1621 H 0.24538 0.33285 0.69039 0.0
H1622 H 0.27676 0.31324 0.61932 0.0
H1623 H 0.24993 0.25382 0.62983 0.0
C1624 C 0.27461 0.14113 0.71066 0.0
C1625 C 0.29174 0.13831 0.68979 0.0
C1626 C 0.25288 0.15352 0.7078 0.0
C1627 C 0.2475 0.16315 0.68394 0.0
C1628 C 0.2644 0.16012 0.66298 0.0
C1629 C 0.28581 0.14721 0.6658 0.0
C1630 C 0.22404 0.17609 0.68112 0.0
C1631 C 0.23632 0.20882 0.67297 0.0
C1632 C 0.19024 0.15715 0.68825 0.0
C1633 C 0.17522 0.12174 0.69541 0.0
C1634 C 0.17781 0.09915 0.67923 0.0
C1635 C 0.16384 0.06587 0.6861 0.0
C1636 C 0.14696 0.05479 0.70902 0.0
C1637 C 0.14397 0.07696 0.7251 0.0
C1638 C 0.15796 0.11029 0.71835 0.0
C1639 C 0.13514 0.24834 0.65995 0.0
C1640 C 0.12158 0.25102 0.68297 0.0
C1641 C 0.15436 0.23276 0.6589 0.0
C1642 C 0.16011 0.21928 0.68082 0.0
C1643 C 0.14537 0.22082 0.70359 0.0
C1644 C 0.12667 0.23685 0.70471 0.0
C1645 C 0.18257 0.20487 0.6804 0.0
C1646 C 0.17008 0.17183 0.68798 0.0
C1647 C 0.21626 0.22359 0.67285 0.0
C1648 C 0.23188 0.2592 0.66628 0.0
C1649 C 0.23105 0.28192 0.68336 0.0
C1650 C 0.2462 0.31551 0.6772 0.0
C1651 C 0.2626 0.32677 0.65411 0.0
C1652 C 0.26392 0.30446 0.63715 0.0
C1653 C 0.24872 0.27081 0.6432 0.0
H1654 H 0.27439 0.35281 0.6494 0.0
H1655 H 0.13613 0.029 0.71429 0.0
H1656 H 0.14742 0.35639 0.24861 0.0
H1657 H 0.14117 0.37695 0.20754 0.0
H1658 H 0.12945 0.45268 0.24509 0.0
H1659 H 0.13493 0.43182 0.28586 0.0
H1660 H 0.08538 0.42831 0.211 0.0
H1661 H 0.20161 0.46825 0.2104 0.0
H1662 H 0.25254 0.46472 0.2142 0.0
H1663 H 0.22181 0.39721 0.15156 0.0
H1664 H 0.17037 0.39987 0.14765 0.0
H1665 H 0.0837 0.50414 0.09254 0.0
H1666 H 0.10595 0.49974 0.13384 0.0
H1667 H 0.10269 0.41001 0.10913 0.0
H1668 H 0.08024 0.41378 0.06907 0.0
H1669 H 0.15904 0.44875 0.13735 0.0
H1670 H 0.04005 0.40651 0.14179 0.0
H1671 H 0.99038 0.4124 0.13834 0.0
H1672 H 0.02957 0.48873 0.19479 0.0
H1673 H 0.07982 0.48379 0.19823 0.0
C1674 C 0.14418 0.37778 0.2481 0.0
C1675 C 0.14184 0.39241 0.27068 0.0
C1676 C 0.1405 0.38959 0.22451 0.0
C1677 C 0.13498 0.41671 0.2229 0.0
C1678 C 0.13342 0.43168 0.24551 0.0
C1679 C 0.13669 0.4197 0.26894 0.0
C1680 C 0.12959 0.42886 0.19795 0.0
C1681 C 0.10197 0.43332 0.19511 0.0
C1682 C 0.15084 0.43536 0.17686 0.0
C1683 C 0.18196 0.43403 0.17888 0.0
C1684 C 0.20559 0.45248 0.19753 0.0
C1685 C 0.23457 0.45065 0.1997 0.0
C1686 C 0.24037 0.43069 0.18317 0.0
C1687 C 0.21726 0.41262 0.16438 0.0
C1688 C 0.18819 0.41429 0.16216 0.0
C1689 C 0.08861 0.48405 0.09573 0.0
C1690 C 0.08033 0.45952 0.07718 0.0
C1691 C 0.10112 0.48138 0.11942 0.0
C1692 C 0.106 0.45439 0.12475 0.0
C1693 C 0.09951 0.43117 0.10565 0.0
C1694 C 0.08659 0.43348 0.08248 0.0
C1695 C 0.1149 0.44799 0.15056 0.0
C1696 C 0.14295 0.4443 0.15348 0.0
C1697 C 0.09432 0.44258 0.17183 0.0
C1698 C 0.06385 0.44506 0.17005 0.0
C1699 C 0.03818 0.42471 0.15333 0.0
C1700 C 1.00993 0.42786 0.15139 0.0
C1701 C 1.00686 0.45095 0.16629 0.0
C1702 C 0.03202 0.47089 0.18323 0.0
C1703 C 0.06039 0.46795 0.18517 0.0
H1704 H 0.98496 0.45334 0.16475 0.0
H1705 H 0.26281 0.42929 0.1849 0.0
H1706 H 0.61555 0.74815 0.27566 0.0
H1707 H 0.5918 0.71899 0.23562 0.0
H1708 H 0.68988 0.74598 0.20937 0.0
H1709 H 0.71339 0.77499 0.24933 0.0
H1710 H 0.6534 0.74961 0.17118 0.0
H1711 H 0.63886 0.6712 0.23623 0.0
H1712 H 0.61873 0.64318 0.27726 0.0
H1713 H 0.51824 0.60952 0.25483 0.0
H1714 H 0.53781 0.63792 0.21382 0.0
H1715 H 0.62086 0.59718 0.10345 0.0
H1716 H 0.6282 0.63059 0.14091 0.0
H1717 H 0.55983 0.65859 0.11071 0.0
H1718 H 0.55366 0.62615 0.07214 0.0
H1719 H 0.57415 0.62894 0.17618 0.0
H1720 H 0.59383 0.71738 0.11177 0.0
H1721 H 0.61934 0.74915 0.07288 0.0
H1722 H 0.71442 0.76551 0.09677 0.0
H1723 H 0.68919 0.73249 0.1352 0.0
C1724 C 0.63203 0.74875 0.26094 0.0
C1725 C 0.66637 0.76453 0.26527 0.0
C1726 C 0.61844 0.73171 0.23819 0.0
C1727 C 0.63893 0.72989 0.2194 0.0
C1728 C 0.67344 0.74701 0.22339 0.0
C1729 C 0.68695 0.76382 0.24616 0.0
C1730 C 0.6247 0.70881 0.19623 0.0
C1731 C 0.63576 0.72329 0.17237 0.0
C1732 C 0.6016 0.67434 0.19749 0.0
C1733 C 0.58982 0.65698 0.22204 0.0
C1734 C 0.61248 0.65805 0.24011 0.0
C1735 C 0.60118 0.64209 0.26336 0.0
C1736 C 0.56724 0.6246 0.26863 0.0
C1737 C 0.54453 0.6231 0.2507 0.0
C1738 C 0.55571 0.63913 0.22746 0.0
C1739 C 0.60733 0.61043 0.10465 0.0
C1740 C 0.58701 0.60923 0.08451 0.0
C1741 C 0.61151 0.62951 0.12622 0.0
C1742 C 0.59532 0.64793 0.12853 0.0
C1743 C 0.57336 0.64536 0.10917 0.0
C1744 C 0.56933 0.62629 0.08729 0.0
C1745 C 0.60243 0.66995 0.15114 0.0
C1746 C 0.59074 0.65548 0.175 0.0
C1747 C 0.62497 0.70446 0.14998 0.0
C1748 C 0.63942 0.72156 0.12588 0.0
C1749 C 0.61993 0.72673 0.10827 0.0
C1750 C 0.63437 0.74501 0.08634 0.0
C1751 C 0.66833 0.75852 0.08205 0.0
C1752 C 0.68798 0.75422 0.09981 0.0
C1753 C 0.67361 0.73558 0.12156 0.0
H1754 H 0.67957 0.77267 0.06515 0.0
H1755 H 0.55851 0.61206 0.28655 0.0
H1756 H 0.37843 0.97236 0.06611 0.0
H1757 H 0.35313 0.95426 0.10724 0.0
H1758 H 0.43472 0.94183 0.13105 0.0
H1759 H 0.4612 0.96119 0.08917 0.0
H1760 H 0.36833 0.88929 0.14806 0.0
H1761 H 0.43688 1.00468 0.15275 0.0
H1762 H 0.46381 0.06471 0.14502 0.0
H1763 H 0.36937 0.05991 0.14893 0.0
H1764 H 0.34169 0.99966 0.15609 0.0
H1765 H 0.33297 0.90016 0.28066 0.0
H1766 H 0.35697 0.90405 0.23875 0.0
H1767 H 0.28171 0.92045 0.20591 0.0
H1768 H 0.25719 0.91592 0.24801 0.0
H1769 H 0.34832 0.97 0.19482 0.0
H1770 H 0.28176 0.85101 0.19249 0.0
H1771 H 0.26146 0.79461 0.20885 0.0
H1772 H 0.36041 0.80997 0.20672 0.0
H1773 H 0.38139 0.86667 0.19069 0.0
C1774 C 0.39131 0.96589 0.0799 0.0
C1775 C 0.42242 0.9691 0.07425 0.0
C1776 C 0.37657 0.95535 0.10358 0.0
C1777 C 0.39213 0.94721 0.12259 0.0
C1778 C 0.42227 0.94824 0.11676 0.0
C1779 C 0.43735 0.95915 0.09277 0.0
C1780 C 0.37687 0.93913 0.14846 0.0
C1781 C 0.36444 0.90713 0.15845 0.0
C1782 C 0.37127 0.96211 0.1621 0.0
C1783 C 0.38716 0.99753 0.15479 0.0
C1784 C 0.42172 0.01625 0.15142 0.0
C1785 C 0.43717 0.05038 0.14734 0.0
C1786 C 0.41835 0.06615 0.14682 0.0
C1787 C 0.38394 0.04769 0.14962 0.0
C1788 C 0.36835 1.01352 0.15357 0.0
C1789 C 0.32094 0.90363 0.2644 0.0
C1790 C 0.29292 0.90735 0.26764 0.0
C1791 C 0.33472 0.90584 0.2404 0.0
C1792 C 0.32121 0.91244 0.21899 0.0
C1793 C 0.29252 0.91512 0.22206 0.0
C1794 C 0.27829 0.91224 0.2461 0.0
C1795 C 0.33907 0.92005 0.19412 0.0
C1796 C 0.35205 0.9521 0.18433 0.0
C1797 C 0.34584 0.89739 0.18117 0.0
C1798 C 0.3332 0.86322 0.19061 0.0
C1799 C 0.29924 0.84248 0.19572 0.0
C1800 C 0.2876 0.81043 0.20489 0.0
C1801 C 0.30964 0.79874 0.20888 0.0
C1802 C 0.34336 0.81906 0.20364 0.0
C1803 C 0.35514 0.85115 0.19448 0.0
H1804 H 0.30058 0.77392 0.21599 0.0
H1805 H 0.43041 0.09266 0.14402 0.0
H1806 H 0.50013 0.09908 0.94437 0.0
H1807 H 0.49464 0.12251 0.9045 0.0
H1808 H 0.44937 0.02561 0.87035 0.0
H1809 H 0.45551 1.00229 0.91034 0.0
H1810 H 0.48711 0.07397 0.83557 0.0
H1811 H 0.40237 0.05453 0.89669 0.0
H1812 H 0.38246 0.06037 0.93854 0.0
H1813 H 0.43111 0.1658 0.9288 0.0
H1814 H 0.45181 0.16065 0.88704 0.0
H1815 H 0.35642 0.10662 0.77096 0.0
H1816 H 0.37972 0.0961 0.80848 0.0
H1817 H 0.47772 0.15143 0.77619 0.0
H1818 H 0.45374 0.16055 0.73762 0.0
H1819 H 0.41819 0.12717 0.84436 0.0
H1820 H 0.52693 0.11868 0.80096 0.0
H1821 H 0.54623 0.10878 0.76022 0.0
H1822 H 0.44593 0.05437 0.7338 0.0
H1823 H 0.42568 0.06286 0.77471 0.0
C1824 C 0.49027 0.08304 0.92803 0.0
C1825 C 0.47896 0.04899 0.93029 0.0
C1826 C 0.48673 0.09638 0.90528 0.0
C1827 C 0.47106 0.07586 0.88433 0.0
C1828 C 0.4616 0.04209 0.8861 0.0
C1829 C 0.46533 0.02876 0.90892 0.0
C1830 C 0.46168 0.08892 0.86171 0.0
C1831 C 0.47219 0.08578 0.83748 0.0
C1832 C 0.44198 0.10418 0.86399 0.0
C1833 C 0.42882 0.10723 0.8888 0.0
C1834 C 0.40893 0.07898 0.90351 0.0
C1835 C 0.39752 0.08216 0.92721 0.0
C1836 C 0.40549 0.11344 0.93628 0.0
C1837 C 0.42493 0.1416 0.9217 0.0
C1838 C 0.4365 0.13856 0.89802 0.0
C1839 C 0.38302 0.11694 0.7719 0.0
C1840 C 0.40307 0.13417 0.7511 0.0
C1841 C 0.39645 0.11097 0.79354 0.0
C1842 C 0.43059 0.12224 0.79534 0.0
C1843 C 0.4512 0.14167 0.77528 0.0
C1844 C 0.43756 0.14746 0.75334 0.0
C1845 C 0.44351 0.11225 0.81786 0.0
C1846 C 0.43351 0.11582 0.84225 0.0
C1847 C 0.46342 0.0971 0.81563 0.0
C1848 C 0.47486 0.09173 0.79084 0.0
C1849 C 0.50892 0.10442 0.78651 0.0
C1850 C 0.51998 0.0989 0.76344 0.0
C1851 C 0.49719 0.08063 0.74457 0.0
C1852 C 0.46334 0.06806 0.74864 0.0
C1853 C 0.45207 0.07326 0.77174 0.0
H1854 H 0.50572 0.0763 0.72673 0.0
H1855 H 0.39651 0.11587 0.95455 0.0
H1856 H 0.02394 0.46083 0.91517 0.0
H1857 H 1.00314 0.43462 0.87376 0.0
H1858 H 0.92602 0.34763 0.91061 0.0
H1859 H 0.94674 0.3735 0.95159 0.0
H1860 H 0.95379 0.32869 0.87706 0.0
H1861 H 0.91098 0.40337 0.87583 0.0
H1862 H 0.91371 0.4575 0.87855 0.0
H1863 H 0.98114 0.49307 0.81577 0.0
H1864 H 0.97922 0.43931 0.81292 0.0
H1865 H 0.87817 0.24695 0.75971 0.0
H1866 H 0.88314 0.27319 0.80138 0.0
H1867 H 0.96629 0.36369 0.77386 0.0
H1868 H 0.96156 0.33815 0.73331 0.0
H1869 H 0.92956 0.37866 0.80343 0.0
H1870 H 0.97685 0.30713 0.8072 0.0
H1871 H 0.97524 0.25354 0.80391 0.0
H1872 H 0.90053 0.21295 0.86164 0.0
H1873 H 0.90127 0.26615 0.86499 0.0
C1874 C 1.00201 0.43656 0.91438 0.0
C1875 C 0.98696 0.41945 0.9368 0.0
C1876 C 0.99016 0.42138 0.89064 0.0
C1877 C 0.96283 0.38888 0.8888 0.0
C1878 C 0.94722 0.37247 0.91124 0.0
C1879 C 0.95907 0.38746 0.93478 0.0
C1880 C 0.95126 0.37112 0.86386 0.0
C1881 C 0.94796 0.33952 0.86115 0.0
C1882 C 0.94407 0.38508 0.8427 0.0
C1883 C 0.94519 0.4174 0.84432 0.0
C1884 C 0.92659 0.42282 0.86273 0.0
C1885 C 0.92797 0.45342 0.86428 0.0
C1886 C 0.94766 0.47874 0.84739 0.0
C1887 C 0.96594 0.47346 0.82887 0.0
C1888 C 0.9647 0.44292 0.82727 0.0
C1889 C 0.89681 0.27268 0.76243 0.0
C1890 C 0.91921 0.29039 0.7429 0.0
C1891 C 0.89992 0.28764 0.78634 0.0
C1892 C 0.92532 0.3206 0.79099 0.0
C1893 C 0.94637 0.33848 0.77102 0.0
C1894 C 0.94354 0.32362 0.74759 0.0
C1895 C 0.93219 0.33639 0.81673 0.0
C1896 C 0.93487 0.3677 0.81953 0.0
C1897 C 0.939 0.32229 0.83795 0.0
C1898 C 0.93881 0.29046 0.83613 0.0
C1899 C 0.9599 0.2867 0.81907 0.0
C1900 C 0.95917 0.25642 0.8172 0.0
C1901 C 0.93774 0.22985 0.8325 0.0
C1902 C 0.91706 0.23353 0.84976 0.0
C1903 C 0.91761 0.26373 0.85165 0.0
H1904 H 0.93721 0.20643 0.83103 0.0
H1905 H 0.94868 0.50241 0.84862 0.0
H1906 H 0.71249 0.65185 0.74103 0.0
H1907 H 0.68766 0.6323 0.78204 0.0
H1908 H 0.76127 0.60502 0.79936 0.0
H1909 H 0.78756 0.62615 0.75759 0.0
H1910 H 0.6917 0.55648 0.81448 0.0
H1911 H 0.77214 0.66821 0.82673 0.0
H1912 H 0.80536 0.72876 0.82182 0.0
H1913 H 0.71801 0.73666 0.83169 0.0
H1914 H 0.68401 0.67603 0.83589 0.0
H1915 H 0.65116 0.55024 0.94799 0.0
H1916 H 0.6768 0.55756 0.90624 0.0
H1917 H 0.61559 0.59555 0.87777 0.0
H1918 H 0.58921 0.58733 0.91958 0.0
H1919 H 0.68454 0.63813 0.87039 0.0
H1920 H 0.60367 0.52455 0.85479 0.0
H1921 H 0.57212 0.4642 0.86133 0.0
H1922 H 0.66252 0.46058 0.86004 0.0
H1923 H 0.69467 0.52104 0.85356 0.0
C1924 C 0.72388 0.64206 0.75342 0.0
C1925 C 0.75273 0.64154 0.74601 0.0
C1926 C 0.70936 0.63062 0.77702 0.0
C1927 C 0.72283 0.61776 0.79417 0.0
C1928 C 0.75056 0.6152 0.78654 0.0
C1929 C 0.76549 0.62709 0.76262 0.0
C1930 C 0.70758 0.60797 0.81994 0.0
C1931 C 0.69061 0.57442 0.8269 0.0
C1932 C 0.70561 0.63122 0.83613 0.0
C1933 C 0.72544 0.66743 0.83146 0.0
C1934 C 0.75985 0.68274 0.82736 0.0
C1935 C 0.77887 0.71712 0.82484 0.0
C1936 C 0.76383 0.73654 0.82665 0.0
C1937 C 0.72965 0.72158 0.83047 0.0
C1938 C 0.71047 0.68719 0.83281 0.0
C1939 C 0.6424 0.55912 0.93257 0.0
C1940 C 0.61781 0.56774 0.93693 0.0
C1941 C 0.65714 0.56337 0.9087 0.0
C1942 C 0.6482 0.57707 0.88868 0.0
C1943 C 0.62285 0.58476 0.89281 0.0
C1944 C 0.60755 0.57983 0.91664 0.0
C1945 C 0.66766 0.58653 0.86449 0.0
C1946 C 0.68554 0.62016 0.85793 0.0
C1947 C 0.67063 0.56339 0.84885 0.0
C1948 C 0.6516 0.52737 0.85399 0.0
C1949 C 0.61688 0.51097 0.85627 0.0
C1950 C 0.59887 0.4767 0.85985 0.0
C1951 C 0.61532 0.45856 0.86115 0.0
C1952 C 0.64982 0.47467 0.85903 0.0
C1953 C 0.66794 0.50893 0.85536 0.0
H1954 H 0.60132 0.43198 0.86364 0.0
H1955 H 0.77866 0.76319 0.82497 0.0
H1956 H 0.72703 0.82257 0.43004 0.0
H1957 H 0.74599 0.81228 0.47066 0.0
H1958 H 0.79404 0.76659 0.43125 0.0
H1959 H 0.77398 0.77545 0.39134 0.0
H1960 H 0.76064 0.7279 0.46643 0.0
H1961 H 0.83718 0.84429 0.46439 0.0
H1962 H 0.85547 0.90373 0.461 0.0
H1963 H 0.7978 0.89696 0.52643 0.0
H1964 H 0.77873 0.83734 0.52999 0.0
H1965 H 0.82882 0.70315 0.58284 0.0
H1966 H 0.8262 0.7232 0.54029 0.0
H1967 H 0.76458 0.76061 0.56907 0.0
H1968 H 0.7665 0.74077 0.61057 0.0
H1969 H 0.8113 0.80547 0.53821 0.0
H1970 H 0.73195 0.68771 0.53729 0.0
H1971 H 0.71481 0.62851 0.5405 0.0
H1972 H 0.78067 0.63913 0.47978 0.0
H1973 H 0.79858 0.69856 0.47648 0.0
C1974 C 0.74277 0.81159 0.43009 0.0
C1975 C 0.7499 0.80085 0.40736 0.0
C1976 C 0.75346 0.80541 0.45336 0.0
C1977 C 0.77174 0.78866 0.45429 0.0
C1978 C 0.78004 0.77945 0.43136 0.0
C1979 C 0.76905 0.78516 0.40837 0.0
C1980 C 0.78019 0.77839 0.47887 0.0
C1981 C 0.77234 0.74519 0.48189 0.0
C1982 C 0.79501 0.80043 0.49946 0.0
C1983 C 0.80627 0.83625 0.4973 0.0
C1984 C 0.82816 0.8554 0.47793 0.0
C1985 C 0.8387 0.88915 0.476 0.0
C1986 C 0.82773 0.9041 0.49345 0.0
C1987 C 0.80623 0.88534 0.5129 0.0
C1988 C 0.79556 0.85157 0.51489 0.0
C1989 C 0.81474 0.7156 0.58012 0.0
C1990 C 0.7978 0.71992 0.60054 0.0
C1991 C 0.81324 0.72712 0.55571 0.0
C1992 C 0.7951 0.74352 0.55131 0.0
C1993 C 0.77891 0.74833 0.57176 0.0
C1994 C 0.78005 0.73666 0.59576 0.0
C1995 C 0.79164 0.75515 0.52565 0.0
C1996 C 0.80018 0.78848 0.5225 0.0
C1997 C 0.77771 0.73333 0.50487 0.0
C1998 C 0.76695 0.69766 0.50689 0.0
C1999 C 0.74301 0.67749 0.52479 0.0
C2000 C 0.73311 0.64388 0.5266 0.0
C2001 C 0.74674 0.6301 0.51042 0.0
C2002 C 0.77022 0.64987 0.49235 0.0
C2003 C 0.78026 0.68351 0.49051 0.0
H2004 H 0.73903 0.60407 0.51183 0.0
H2005 H 0.83595 0.93023 0.49194 0.0
H2006 H 0.2187 0.92227 0.42776 0.0
H2007 H 0.22519 0.94996 0.46904 0.0
H2008 H 0.31754 0.03264 0.44367 0.0
H2009 H 0.31104 1.00598 0.40329 0.0
H2010 H 0.3261 1.01228 0.48851 0.0
H2011 H 0.24828 0.03875 0.45059 0.0
H2012 H 0.19549 0.02629 0.43057 0.0
H2013 H 0.14197 0.97136 0.49613 0.0
H2014 H 0.19448 0.98312 0.51641 0.0
H2015 H 0.36785 0.13318 0.58461 0.0
H2016 H 0.34986 0.10669 0.54289 0.0
H2017 H 0.2627 0.02594 0.57671 0.0
H2018 H 0.28068 0.05207 0.61817 0.0
H2019 H 0.24875 0.04242 0.52916 0.0
H2020 H 0.32673 0.01707 0.56731 0.0
H2021 H 0.37962 0.03058 0.58767 0.0
H2022 H 0.43284 0.08314 0.52126 0.0
H2023 H 0.38025 0.07054 0.5007 0.0
C2024 C 0.23996 0.9466 0.43091 0.0
C2025 C 0.26453 0.96154 0.41216 0.0
C2026 C 0.24381 0.96241 0.45457 0.0
C2027 C 0.27221 0.9934 0.45977 0.0
C2028 C 0.29571 1.00865 0.44056 0.0
C2029 C 0.29187 0.99315 0.41727 0.0
C2030 C 0.27888 1.01006 0.48516 0.0
C2031 C 0.3092 0.01906 0.4972 0.0
C2032 C 0.25681 0.01855 0.49702 0.0
C2033 C 0.22526 1.01145 0.48488 0.0
C2034 C 0.22523 0.02374 0.46064 0.0
C2035 C 0.19537 0.01687 0.44927 0.0
C2036 C 0.16538 0.99795 0.46203 0.0
C2037 C 0.16522 0.98595 0.48624 0.0
C2038 C 0.19502 0.99272 0.49769 0.0
C2039 C 0.34442 0.11031 0.583 0.0
C2040 C 0.32566 0.09482 0.60471 0.0
C2041 C 0.33423 0.09497 0.55917 0.0
C2042 C 0.30493 0.06403 0.55655 0.0
C2043 C 0.28528 0.0497 0.57805 0.0
C2044 C 0.29568 0.0647 0.6018 0.0
C2045 C 0.2962 0.04515 0.53208 0.0
C2046 C 0.26555 0.03559 0.52038 0.0
C2047 C 0.31795 0.03608 0.52045 0.0
C2048 C 0.34957 0.04319 0.53257 0.0
C2049 C 0.34973 0.03174 0.55712 0.0
C2050 C 0.37965 0.03921 0.5687 0.0
C2051 C 0.40958 0.05778 0.55579 0.0
C2052 C 0.40964 0.06882 0.53125 0.0
C2053 C 0.37977 0.06153 0.51963 0.0
H2054 H 0.43273 0.06355 0.56478 0.0
H2055 H 0.14229 0.99266 0.4532 0.0
H2056 H 1.00099 0.30575 0.60098 0.0
H2057 H 0.02445 0.30853 0.55971 0.0
H2058 H 0.94884 0.20772 0.54474 0.0
H2059 H 0.92502 0.20444 0.58713 0.0
H2060 H 1.01098 0.21985 0.52868 0.0
H2061 H 0.94587 0.27023 0.51537 0.0
H2062 H 0.9227 0.30677 0.52334 0.0
H2063 H 1.01965 0.39223 0.51589 0.0
H2064 H 0.04356 0.35624 0.50836 0.0
H2065 H 0.08001 0.26214 0.39925 0.0
H2066 H 0.04416 0.24006 0.43678 0.0
H2067 H 0.10158 0.33426 0.47409 0.0
H2068 H 0.13675 0.35616 0.4369 0.0
H2069 H 0.03695 0.3158 0.47365 0.0
H2070 H 0.1017 0.26265 0.49286 0.0
H2071 H 0.1233 0.22505 0.48349 0.0
H2072 H 0.02389 0.14333 0.47698 0.0
H2073 H 1.00168 0.18057 0.48594 0.0
C2074 C 0.98891 0.28399 0.58909 0.0
C2075 C 0.96072 0.25487 0.59762 0.0
C2076 C 1.00248 0.28574 0.56521 0.0
C2077 C 0.98839 0.25856 0.54871 0.0
C2078 C 0.96021 0.22919 0.55699 0.0
C2079 C 0.94636 0.22742 0.58116 0.0
C2080 C 1.00393 0.26172 0.52316 0.0
C2081 C 1.01604 0.24045 0.5164 0.0
C2082 C 1.0108 0.28858 0.5069 0.0
C2083 C 0.99656 0.31044 0.51149 0.0
C2084 C 0.96232 0.2968 0.51566 0.0
C2085 C 0.94904 0.31743 0.52007 0.0
C2086 C 0.9697 0.35179 0.52018 0.0
C2087 C 1.00368 0.3656 0.51583 0.0
C2088 C 1.01711 0.34509 0.51147 0.0
C2089 C 0.08559 0.27773 0.41578 0.0
C2090 C 0.11099 0.31112 0.4149 0.0
C2091 C 0.06491 0.26514 0.43723 0.0
C2092 C 0.06968 0.28561 0.45831 0.0
C2093 C 0.09689 0.31798 0.45809 0.0
C2094 C 0.11724 0.33045 0.43681 0.0
C2095 C 0.04543 0.27504 0.47986 0.0
C2096 C 0.03152 0.29494 0.48576 0.0
C2097 C 0.0367 0.24679 0.49503 0.0
C2098 C 0.05005 0.22444 0.4898 0.0
C2099 C 0.08445 0.23671 0.48922 0.0
C2100 C 0.0968 0.21546 0.48401 0.0
C2101 C 0.07498 0.18185 0.47954 0.0
C2102 C 0.04075 0.16939 0.48036 0.0
C2103 C 0.02827 0.19055 0.48553 0.0
H2104 H 0.08458 0.16543 0.47551 0.0
H2105 H 0.95936 0.36772 0.52359 0.0
loop_
_geom_bond_atom_site_label_1
_geom_bond_atom_site_label_2
_geom_bond_distance
_geom_bond_site_symmetry_2
_ccdc_geom_bond_type
Tb0 N31 2.660 1_556 S
Tb0 N38 2.600 . S
Tb0 O44 2.546 . S
Tb0 O45 2.610 1_556 S
Tb0 O47 2.320 1_556 S
Tb0 O48 2.552 . S
Tb0 O49 2.413 1_556 S
Tb0 O51 2.362 1_456 S
Tb0 O52 2.421 . S
Tb0 C64 2.833 . S
C1 C4 1.432 . S
C1 C5 1.414 . S
C1 N8 1.359 . S
C2 C4 1.417 1_556 S
C2 C6 1.432 1_556 S
C2 C14 1.410 . S
C3 C5 1.444 . S
C3 C6 1.317 . S
C3 H26 0.929 . S
C4 C1 1.432 . S
C4 C2 1.417 1_554 S
C4 N12 1.360 1_554 S
C5 C1 1.414 . S
C5 C3 1.444 . S
C5 C10 1.385 . S
C6 C2 1.432 1_554 S
C6 C3 1.317 . S
C6 H18 0.930 . S
C7 C9 1.383 1_455 S
C7 C10 1.383 . S
C7 H19 0.926 1_455 S
N8 C1 1.359 . S
N8 C9 1.327 1_455 S
N8 Tb11 2.600 1_455 S
C9 C7 1.383 1_655 S
C9 N8 1.327 1_655 S
C9 H16 0.930 . S
C10 C5 1.385 . S
C10 C7 1.383 . S
C10 H29 0.930 . S
Tb11 N8 2.600 1_655 S
Tb11 N12 2.660 1_654 S
Tb11 O45 2.362 1_655 S
Tb11 O46 2.421 1_655 S
Tb11 O50 2.546 . S
Tb11 O51 2.610 . S
Tb11 O53 2.320 1_554 S
Tb11 O54 2.552 . S
Tb11 O55 2.413 1_554 S
Tb11 C75 2.833 . S
N12 C4 1.360 1_556 S
N12 Tb11 2.660 1_456 S
N12 C13 1.305 . S
C13 N12 1.305 . S
C13 C15 1.407 . S
C13 H20 0.930 . S
C14 C2 1.410 . S
C14 C15 1.345 . S
C14 H22 0.930 . S
C15 C13 1.407 . S
C15 C14 1.345 . S
C15 H17 0.930 . S
H16 C9 0.930 . S
H17 C15 0.930 . S
H18 C6 0.930 . S
H19 C7 0.926 1_655 S
H20 C13 0.930 . S
H21 C35 0.930 . S
H22 C14 0.930 . S
H23 C41 0.930 . S
H24 C32 0.930 1_455 S
H25 C39 0.931 . S
H26 C3 0.929 . S
H27 C33 0.930 . S
H28 C66 0.930 . S
H29 C10 0.930 . S
H30 C65 0.929 . S
N31 Tb0 2.660 1_554 S
N31 C32 1.305 1_455 S
N31 C36 1.354 1_454 S
C32 H24 0.930 1_655 S
C32 N31 1.305 1_655 S
C32 C35 1.407 . S
C33 H27 0.930 . S
C33 C34 1.410 . S
C33 C35 1.345 . S
C34 C33 1.410 . S
C34 C36 1.413 1_554 S
C34 C66 1.432 1_554 S
C35 H21 0.930 . S
C35 C32 1.407 . S
C35 C33 1.345 . S
C36 N31 1.354 1_656 S
C36 C34 1.413 1_556 S
C36 C40 1.442 1_655 S
H37 C42 0.930 1_655 S
N38 Tb0 2.600 . S
N38 C40 1.359 . S
N38 C41 1.327 . S
C39 H25 0.931 . S
C39 C41 1.392 . S
C39 C42 1.370 . S
C40 C36 1.442 1_455 S
C40 N38 1.359 . S
C40 C43 1.414 1_455 S
C41 H23 0.930 . S
C41 N38 1.327 . S
C41 C39 1.392 . S
C42 H37 0.930 1_455 S
C42 C39 1.370 . S
C42 C43 1.385 1_455 S
C43 C40 1.414 1_655 S
C43 C42 1.385 1_655 S
C43 C65 1.444 . S
O44 Tb0 2.546 . S
O44 C64 1.251 . S
O45 Tb0 2.610 1_554 S
O45 Tb11 2.362 1_455 S
O45 C56 1.276 1_554 S
O46 Tb11 2.421 1_455 S
O46 C63 1.262 . S
O47 Tb0 2.320 1_554 S
O47 C63 1.260 . S
O48 Tb0 2.552 . S
O48 C56 1.258 . S
O49 Tb0 2.413 1_554 S
O49 C64 1.256 1_554 S
O50 Tb11 2.546 . S
O50 C75 1.251 . S
O51 Tb0 2.362 1_654 S
O51 Tb11 2.610 . S
O51 C67 1.283 . S
O52 Tb0 2.421 . S
O52 C74 1.262 1_455 S
O53 Tb11 2.320 1_556 S
O53 C74 1.260 . S
O54 Tb11 2.552 . S
O54 C67 1.243 . S
O55 Tb11 2.413 1_556 S
O55 C75 1.256 1_556 S
C56 O45 1.276 1_556 S
C56 O48 1.258 . S
C57 C59 1.382 1_556 S
C57 C61 1.393 . S
C57 C64 1.500 . S
C58 C59 1.400 . S
C58 C60 1.384 1_554 S
C59 C57 1.382 1_554 S
C59 C58 1.400 . S
C59 H76 0.930 . S
C60 C58 1.384 1_556 S
C60 C62 1.392 . S
C60 H77 0.931 . S
C61 C57 1.393 . S
C61 C62 1.401 . S
C61 H78 0.930 . S
C62 C60 1.392 . S
C62 C61 1.401 . S
C62 H79 0.930 . S
C63 O46 1.262 . S
C63 O47 1.260 . S
C64 Tb0 2.833 . S
C64 O44 1.251 . S
C64 O49 1.256 1_556 S
C64 C57 1.500 . S
C65 H30 0.929 . S
C65 C43 1.444 . S
C65 C66 1.317 . S
C66 H28 0.930 . S
C66 C34 1.432 1_556 S
C66 C65 1.317 . S
C67 O51 1.283 . S
C67 O54 1.243 . S
C68 C69 1.382 1_554 S
C68 C72 1.393 . S
C68 C75 1.500 . S
C69 C68 1.382 1_556 S
C69 C70 1.402 . S
C69 H80 0.930 . S
C70 C69 1.402 . S
C70 C71 1.357 1_556 S
C71 C70 1.357 1_554 S
C71 C73 1.392 . S
C71 H81 0.931 . S
C72 C68 1.393 . S
C72 C73 1.401 . S
C72 H82 0.930 . S
C73 C71 1.392 . S
C73 C72 1.401 . S
C73 H83 0.930 . S
C74 O52 1.262 1_655 S
C74 O53 1.260 . S
C75 Tb11 2.833 . S
C75 O50 1.251 . S
C75 O55 1.256 1_554 S
C75 C68 1.500 . S
H76 C59 0.930 . S
H77 C60 0.931 . S
H78 C61 0.930 . S
H79 C62 0.930 . S
H80 C69 0.930 . S
H81 C71 0.931 . S
H82 C72 0.930 . S
H83 C73 0.930 . S
Tb84 N115 2.660 1_556 S
Tb84 N122 2.600 . S
Tb84 O128 2.546 . S
Tb84 O129 2.610 1_556 S
Tb84 O131 2.320 1_556 S
Tb84 O132 2.552 . S
Tb84 O133 2.413 1_556 S
Tb84 O135 2.362 1_556 S
Tb84 O136 2.421 . S
Tb84 C148 2.833 . S
C85 C88 1.432 . S
C85 C89 1.414 . S
C85 N92 1.359 . S
C86 C88 1.417 1_556 S
C86 C90 1.432 1_556 S
C86 C98 1.410 . S
C87 C89 1.444 . S
C87 C90 1.317 . S
C87 H110 0.929 . S
C88 C85 1.432 . S
C88 C86 1.417 1_554 S
C88 N96 1.360 1_554 S
C89 C85 1.414 . S
C89 C87 1.444 . S
C89 C94 1.385 . S
C90 C86 1.432 1_554 S
C90 C87 1.317 . S
C90 H102 0.930 . S
C91 C93 1.392 . S
C91 C94 1.370 . S
C91 H103 0.931 . S
N92 C85 1.359 . S
N92 C93 1.327 . S
N92 Tb95 2.600 . S
C93 C91 1.392 . S
C93 N92 1.327 . S
C93 H100 0.930 . S
C94 C89 1.385 . S
C94 C91 1.370 . S
C94 H113 0.930 . S
Tb95 N92 2.600 . S
Tb95 N96 2.660 1_554 S
Tb95 O129 2.362 . S
Tb95 O130 2.421 . S
Tb95 O134 2.546 . S
Tb95 O135 2.610 . S
Tb95 O137 2.320 1_554 S
Tb95 O138 2.552 . S
Tb95 O139 2.413 1_554 S
Tb95 C159 2.833 . S
N96 C88 1.360 1_556 S
N96 Tb95 2.660 1_556 S
N96 C97 1.305 . S
C97 N96 1.305 . S
C97 C99 1.407 . S
C97 H104 0.930 . S
C98 C86 1.410 . S
C98 C99 1.345 . S
C98 H106 0.930 . S
C99 C97 1.407 . S
C99 C98 1.345 . S
C99 H101 0.930 . S
H100 C93 0.930 . S
H101 C99 0.930 . S
H102 C90 0.930 . S
H103 C91 0.931 . S
H104 C97 0.930 . S
H105 C119 0.930 . S
H106 C98 0.930 . S
H107 C125 0.930 . S
H108 C116 0.930 . S
H109 C123 0.931 . S
H110 C87 0.929 . S
H111 C117 0.930 . S
H112 C150 0.929 . S
H113 C94 0.930 . S
H114 C149 0.929 . S
N115 Tb84 2.660 1_554 S
N115 C116 1.305 . S
N115 C120 1.354 1_554 S
C116 H108 0.930 . S
C116 N115 1.305 . S
C116 C119 1.407 . S
C117 H111 0.930 . S
C117 C118 1.410 . S
C117 C119 1.345 . S
C118 C117 1.410 . S
C118 C120 1.413 1_554 S
C118 C150 1.432 1_554 S
C119 H105 0.930 . S
C119 C116 1.407 . S
C119 C117 1.345 . S
C120 N115 1.354 1_556 S
C120 C118 1.413 1_556 S
C120 C124 1.442 . S
H121 C126 0.930 . S
N122 Tb84 2.600 . S
N122 C124 1.359 . S
N122 C125 1.327 . S
C123 H109 0.931 . S
C123 C125 1.392 . S
C123 C126 1.370 . S
C124 C120 1.442 . S
C124 N122 1.359 . S
C124 C127 1.414 . S
C125 H107 0.930 . S
C125 N122 1.327 . S
C125 C123 1.392 . S
C126 H121 0.930 . S
C126 C123 1.370 . S
C126 C127 1.385 . S
C127 C124 1.414 . S
C127 C126 1.385 . S
C127 C149 1.444 . S
O128 Tb84 2.546 . S
O128 C148 1.251 . S
O129 Tb84 2.610 1_554 S
O129 Tb95 2.362 . S
O129 C140 1.276 1_554 S
O130 Tb95 2.421 . S
O130 C147 1.262 . S
O131 Tb84 2.320 1_554 S
O131 C147 1.260 . S
O132 Tb84 2.552 . S
O132 C140 1.258 . S
O133 Tb84 2.413 1_554 S
O133 C148 1.256 1_554 S
O134 Tb95 2.546 . S
O134 C159 1.251 . S
O135 Tb84 2.362 1_554 S
O135 Tb95 2.610 . S
O135 C151 1.283 . S
O136 Tb84 2.421 . S
O136 C158 1.262 . S
O137 Tb95 2.320 1_556 S
O137 C158 1.260 . S
O138 Tb95 2.552 . S
O138 C151 1.243 . S
O139 Tb95 2.413 1_556 S
O139 C159 1.256 1_556 S
C140 O129 1.276 1_556 S
C140 O132 1.258 . S
C141 C143 1.382 1_556 S
C141 C145 1.393 . S
C141 C148 1.500 . S
C142 C143 1.400 . S
C142 C144 1.384 1_554 S
C143 C141 1.382 1_554 S
C143 C142 1.400 . S
C143 H160 0.930 . S
C144 C142 1.384 1_556 S
C144 C146 1.392 . S
C144 H161 0.931 . S
C145 C141 1.393 . S
C145 C146 1.401 . S
C145 H162 0.930 . S
C146 C144 1.392 . S
C146 C145 1.401 . S
C146 H163 0.930 . S
C147 O130 1.262 . S
C147 O131 1.260 . S
C148 Tb84 2.833 . S
C148 O128 1.251 . S
C148 O133 1.256 1_556 S
C148 C141 1.500 . S
C149 H114 0.929 . S
C149 C127 1.444 . S
C149 C150 1.317 . S
C150 H112 0.929 . S
C150 C118 1.432 1_556 S
C150 C149 1.317 . S
C151 O135 1.283 . S
C151 O138 1.243 . S
C152 C153 1.382 1_554 S
C152 C156 1.393 . S
C152 C159 1.500 . S
C153 C152 1.382 1_556 S
C153 C154 1.402 . S
C153 H164 0.930 . S
C154 C153 1.402 . S
C154 C155 1.357 1_556 S
C155 C154 1.357 1_554 S
C155 C157 1.392 . S
C155 H165 0.931 . S
C156 C152 1.393 . S
C156 C157 1.401 . S
C156 H166 0.930 . S
C157 C155 1.392 . S
C157 C156 1.401 . S
C157 H167 0.930 . S
C158 O136 1.262 . S
C158 O137 1.260 . S
C159 Tb95 2.833 . S
C159 O134 1.251 . S
C159 O139 1.256 1_554 S
C159 C152 1.500 . S
H160 C143 0.930 . S
H161 C144 0.931 . S
H162 C145 0.930 . S
H163 C146 0.930 . S
H164 C153 0.930 . S
H165 C155 0.931 . S
H166 C156 0.930 . S
H167 C157 0.930 . S
Tb168 N199 2.660 1_566 S
Tb168 N206 2.601 1_565 S
Tb168 O212 2.546 . S
Tb168 O213 2.610 1_556 S
Tb168 O215 2.320 1_556 S
Tb168 O216 2.552 . S
Tb168 O217 2.413 1_556 S
Tb168 O219 2.362 1_566 S
Tb168 O220 2.421 1_565 S
Tb168 C232 2.833 . S
C169 C172 1.428 1_545 S
C169 C173 1.419 1_545 S
C169 N176 1.357 . S
C170 C172 1.417 1_556 S
C170 C174 1.432 1_556 S
C170 C182 1.410 . S
C171 C173 1.444 . S
C171 C174 1.317 . S
C171 H194 0.929 . S
C172 C169 1.428 1_565 S
C172 C170 1.417 1_554 S
C172 N180 1.360 1_564 S
C173 C169 1.419 1_565 S
C173 C171 1.444 . S
C173 C178 1.381 1_565 S
C174 C170 1.432 1_554 S
C174 C171 1.317 . S
C174 H186 0.930 . S
C175 C177 1.392 . S
C175 C178 1.368 . S
C175 H187 0.931 . S
N176 C169 1.357 . S
N176 C177 1.327 . S
N176 Tb179 2.600 . S
C177 C175 1.392 . S
C177 N176 1.327 . S
C177 H184 0.930 . S
C178 C173 1.381 1_545 S
C178 C175 1.368 . S
C178 H197 0.936 1_545 S
Tb179 N176 2.600 . S
Tb179 N180 2.660 1_554 S
Tb179 O213 2.362 1_545 S
Tb179 O214 2.421 . S
Tb179 O218 2.546 . S
Tb179 O219 2.610 . S
Tb179 O221 2.320 1_554 S
Tb179 O222 2.552 . S
Tb179 O223 2.413 1_554 S
Tb179 C243 2.833 . S
N180 C172 1.360 1_546 S
N180 Tb179 2.660 1_556 S
N180 C181 1.305 1_545 S
C181 N180 1.305 1_565 S
C181 C183 1.407 . S
C181 H188 0.930 1_565 S
C182 C170 1.410 . S
C182 C183 1.345 . S
C182 H190 0.930 . S
C183 C181 1.407 . S
C183 C182 1.345 . S
C183 H185 0.930 . S
H184 C177 0.930 . S
H185 C183 0.930 . S
H186 C174 0.930 . S
H187 C175 0.931 . S
H188 C181 0.930 1_545 S
H189 C203 0.930 . S
H190 C182 0.930 . S
H191 C209 0.930 . S
H192 C200 0.930 . S
H193 C207 0.935 . S
H194 C171 0.929 . S
H195 C201 0.930 . S
H196 C234 0.930 . S
H197 C178 0.936 1_565 S
H198 C233 0.929 . S
N199 Tb168 2.660 1_544 S
N199 C200 1.305 . S
N199 C204 1.354 1_554 S
C200 H192 0.930 . S
C200 N199 1.305 . S
C200 C203 1.407 . S
C201 H195 0.930 . S
C201 C202 1.410 . S
C201 C203 1.345 . S
C202 C201 1.410 . S
C202 C204 1.413 1_554 S
C202 C234 1.432 1_554 S
C203 H189 0.930 . S
C203 C200 1.407 . S
C203 C201 1.345 . S
C204 N199 1.354 1_556 S
C204 C202 1.413 1_556 S
C204 C208 1.442 . S
H205 C210 0.930 . S
N206 Tb168 2.601 1_545 S
N206 C208 1.358 . S
N206 C209 1.326 1_545 S
C207 H193 0.935 . S
C207 C209 1.387 . S
C207 C210 1.371 1_565 S
C208 C204 1.442 . S
C208 N206 1.358 . S
C208 C211 1.414 . S
C209 H191 0.930 . S
C209 N206 1.326 1_565 S
C209 C207 1.387 . S
C210 H205 0.930 . S
C210 C207 1.371 1_545 S
C210 C211 1.385 . S
C211 C208 1.414 . S
C211 C210 1.385 . S
C211 C233 1.444 . S
O212 Tb168 2.546 . S
O212 C232 1.251 . S
O213 Tb168 2.610 1_554 S
O213 Tb179 2.362 1_565 S
O213 C224 1.276 1_554 S
O214 Tb179 2.421 . S
O214 C231 1.262 1_545 S
O215 Tb168 2.320 1_554 S
O215 C231 1.260 . S
O216 Tb168 2.552 . S
O216 C224 1.258 . S
O217 Tb168 2.413 1_554 S
O217 C232 1.256 1_554 S
O218 Tb179 2.546 . S
O218 C243 1.251 . S
O219 Tb168 2.362 1_544 S
O219 Tb179 2.610 . S
O219 C235 1.283 . S
O220 Tb168 2.421 1_545 S
O220 C242 1.262 . S
O221 Tb179 2.320 1_556 S
O221 C242 1.260 . S
O222 Tb179 2.552 . S
O222 C235 1.243 . S
O223 Tb179 2.413 1_556 S
O223 C243 1.256 1_556 S
C224 O213 1.276 1_556 S
C224 O216 1.258 . S
C225 C227 1.382 1_556 S
C225 C229 1.393 . S
C225 C232 1.500 . S
C226 C227 1.400 . S
C226 C228 1.384 1_554 S
C227 C225 1.382 1_554 S
C227 C226 1.400 . S
C227 H244 0.930 . S
C228 C226 1.384 1_556 S
C228 C230 1.392 . S
C228 H245 0.931 . S
C229 C225 1.393 . S
C229 C230 1.401 . S
C229 H246 0.930 . S
C230 C228 1.392 . S
C230 C229 1.401 . S
C230 H247 0.930 . S
C231 O214 1.262 1_565 S
C231 O215 1.260 . S
C232 Tb168 2.833 . S
C232 O212 1.251 . S
C232 O217 1.256 1_556 S
C232 C225 1.500 . S
C233 H198 0.929 . S
C233 C211 1.444 . S
C233 C234 1.317 . S
C234 H196 0.930 . S
C234 C202 1.432 1_556 S
C234 C233 1.317 . S
C235 O219 1.283 . S
C235 O222 1.243 . S
C236 C237 1.382 1_554 S
C236 C240 1.393 . S
C236 C243 1.500 . S
C237 C236 1.382 1_556 S
C237 C238 1.402 . S
C237 H248 0.930 . S
C238 C237 1.402 . S
C238 C239 1.357 1_556 S
C239 C238 1.357 1_554 S
C239 C241 1.392 . S
C239 H249 0.931 . S
C240 C236 1.393 . S
C240 C241 1.401 . S
C240 H250 0.930 . S
C241 C239 1.392 . S
C241 C240 1.401 . S
C241 H251 0.930 . S
C242 O220 1.262 . S
C242 O221 1.260 . S
C243 Tb179 2.833 . S
C243 O218 1.251 . S
C243 O223 1.256 1_554 S
C243 C236 1.500 . S
H244 C227 0.930 . S
H245 C228 0.931 . S
H246 C229 0.930 . S
H247 C230 0.930 . S
H248 C237 0.930 . S
H249 C239 0.931 . S
H250 C240 0.930 . S
H251 C241 0.930 . S
Tb252 N283 2.660 . S
Tb252 N290 2.600 . S
Tb252 O296 2.546 . S
Tb252 O297 2.610 . S
Tb252 O299 2.320 . S
Tb252 O300 2.552 . S
Tb252 O301 2.413 . S
Tb252 O303 2.362 . S
Tb252 O304 2.421 . S
Tb252 C316 2.833 . S
C253 C256 1.432 . S
C253 C257 1.414 . S
C253 N260 1.359 . S
C254 C256 1.417 . S
C254 C258 1.432 . S
C254 C266 1.410 . S
C255 C257 1.444 . S
C255 C258 1.317 . S
C255 H278 0.929 . S
C256 C253 1.432 . S
C256 C254 1.417 . S
C256 N264 1.360 . S
C257 C253 1.414 . S
C257 C255 1.444 . S
C257 C262 1.385 . S
C258 C254 1.432 . S
C258 C255 1.317 . S
C258 H270 0.930 . S
C259 C261 1.392 . S
C259 C262 1.370 . S
C259 H271 0.931 . S
N260 C253 1.359 . S
N260 C261 1.327 . S
N260 Tb263 2.600 . S
C261 C259 1.392 . S
C261 N260 1.327 . S
C261 H268 0.930 . S
C262 C257 1.385 . S
C262 C259 1.370 . S
C262 H281 0.930 . S
Tb263 N260 2.600 . S
Tb263 N264 2.660 . S
Tb263 O297 2.362 . S
Tb263 O298 2.421 . S
Tb263 O302 2.546 . S
Tb263 O303 2.610 . S
Tb263 O305 2.320 . S
Tb263 O306 2.552 . S
Tb263 O307 2.413 . S
Tb263 C327 2.833 . S
N264 C256 1.360 . S
N264 Tb263 2.660 . S
N264 C265 1.305 . S
C265 N264 1.305 . S
C265 C267 1.407 . S
C265 H272 0.930 . S
C266 C254 1.410 . S
C266 C267 1.345 . S
C266 H274 0.930 . S
C267 C265 1.407 . S
C267 C266 1.345 . S
C267 H269 0.930 . S
H268 C261 0.930 . S
H269 C267 0.930 . S
H270 C258 0.930 . S
H271 C259 0.931 . S
H272 C265 0.930 . S
H273 C287 0.930 . S
H274 C266 0.930 . S
H275 C293 0.930 . S
H276 C284 0.930 . S
H277 C291 0.931 . S
H278 C255 0.929 . S
H279 C285 0.930 . S
H280 C318 0.930 . S
H281 C262 0.930 . S
H282 C317 0.929 . S
N283 Tb252 2.660 . S
N283 C284 1.305 . S
N283 C288 1.360 . S
C284 H276 0.930 . S
C284 N283 1.305 . S
C284 C287 1.407 . S
C285 H279 0.930 . S
C285 C286 1.410 . S
C285 C287 1.345 . S
C286 C285 1.410 . S
C286 C288 1.417 . S
C286 C318 1.432 . S
C287 H273 0.930 . S
C287 C284 1.407 . S
C287 C285 1.345 . S
C288 N283 1.360 . S
C288 C286 1.417 . S
C288 C292 1.432 . S
H289 C294 0.930 . S
N290 Tb252 2.600 . S
N290 C292 1.359 . S
N290 C293 1.327 . S
C291 H277 0.931 . S
C291 C293 1.392 . S
C291 C294 1.370 . S
C292 C288 1.432 . S
C292 N290 1.359 . S
C292 C295 1.414 . S
C293 H275 0.930 . S
C293 N290 1.327 . S
C293 C291 1.392 . S
C294 H289 0.930 . S
C294 C291 1.370 . S
C294 C295 1.385 . S
C295 C292 1.414 . S
C295 C294 1.385 . S
C295 C317 1.444 . S
O296 Tb252 2.546 . S
O296 C316 1.251 . S
O297 Tb252 2.610 . S
O297 Tb263 2.362 . S
O297 C308 1.283 . S
O298 Tb263 2.421 . S
O298 C315 1.262 . S
O299 Tb252 2.320 . S
O299 C315 1.260 . S
O300 Tb252 2.552 . S
O300 C308 1.243 . S
O301 Tb252 2.413 . S
O301 C316 1.256 . S
O302 Tb263 2.546 . S
O302 C327 1.251 . S
O303 Tb252 2.362 . S
O303 Tb263 2.610 . S
O303 C319 1.283 . S
O304 Tb252 2.421 . S
O304 C326 1.262 . S
O305 Tb263 2.320 . S
O305 C326 1.260 . S
O306 Tb263 2.552 . S
O306 C319 1.243 . S
O307 Tb263 2.413 . S
O307 C327 1.256 . S
C308 O297 1.283 . S
C308 O300 1.243 . S
C309 C311 1.382 . S
C309 C313 1.393 . S
C309 C316 1.500 . S
C310 C311 1.400 . S
C310 C312 1.384 1_565 S
C311 C309 1.382 . S
C311 C310 1.400 . S
C311 H328 0.930 . S
C312 C310 1.384 1_545 S
C312 C314 1.392 1_545 S
C312 H329 0.931 . S
C313 C309 1.393 . S
C313 C314 1.401 . S
C313 H330 0.930 . S
C314 C312 1.392 1_565 S
C314 C313 1.401 . S
C314 H331 0.930 1_565 S
C315 O298 1.262 . S
C315 O299 1.260 . S
C316 Tb252 2.833 . S
C316 O296 1.251 . S
C316 O301 1.256 . S
C316 C309 1.500 . S
C317 H282 0.929 . S
C317 C295 1.444 . S
C317 C318 1.317 . S
C318 H280 0.930 . S
C318 C286 1.432 . S
C318 C317 1.317 . S
C319 O303 1.283 . S
C319 O306 1.243 . S
C320 C321 1.382 . S
C320 C324 1.393 . S
C320 C327 1.500 . S
C321 C320 1.382 . S
C321 C322 1.400 . S
C321 H332 0.930 . S
C322 C321 1.400 . S
C322 C323 1.384 . S
C323 C322 1.384 . S
C323 C325 1.392 . S
C323 H333 0.931 . S
C324 C320 1.393 . S
C324 C325 1.401 . S
C324 H334 0.930 . S
C325 C323 1.392 . S
C325 C324 1.401 . S
C325 H335 0.930 . S
C326 O304 1.262 . S
C326 O305 1.260 . S
C327 Tb263 2.833 . S
C327 O302 1.251 . S
C327 O307 1.256 . S
C327 C320 1.500 . S
H328 C311 0.930 . S
H329 C312 0.931 . S
H330 C313 0.930 . S
H331 C314 0.930 1_545 S
H332 C321 0.930 . S
H333 C323 0.931 . S
H334 C324 0.930 . S
H335 C325 0.930 . S
Tb336 N367 2.660 . S
Tb336 N374 2.600 . S
Tb336 O380 2.546 . S
Tb336 O381 2.610 . S
Tb336 O383 2.320 . S
Tb336 O384 2.552 . S
Tb336 O385 2.413 . S
Tb336 O387 2.362 . S
Tb336 O388 2.421 . S
Tb336 C400 2.833 . S
C337 C340 1.432 . S
C337 C341 1.414 . S
C337 N344 1.359 . S
C338 C340 1.417 1_545 S
C338 C342 1.432 . S
C338 C350 1.410 . S
C339 C341 1.444 1_545 S
C339 C342 1.317 . S
C339 H362 0.929 . S
C340 C337 1.432 . S
C340 C338 1.417 1_565 S
C340 N348 1.360 . S
C341 C337 1.414 . S
C341 C339 1.444 1_565 S
C341 C346 1.385 . S
C342 C338 1.432 . S
C342 C339 1.317 . S
C342 H354 0.930 . S
C343 C345 1.392 . S
C343 C346 1.370 . S
C343 H355 0.931 . S
N344 C337 1.359 . S
N344 C345 1.327 . S
N344 Tb347 2.600 . S
C345 C343 1.392 . S
C345 N344 1.327 . S
C345 H352 0.930 . S
C346 C341 1.385 . S
C346 C343 1.370 . S
C346 H365 0.930 1_565 S
Tb347 N344 2.600 . S
Tb347 N348 2.660 . S
Tb347 O381 2.362 . S
Tb347 O382 2.421 . S
Tb347 O386 2.546 . S
Tb347 O387 2.610 . S
Tb347 O389 2.320 . S
Tb347 O390 2.552 . S
Tb347 O391 2.413 . S
Tb347 C411 2.833 . S
N348 C340 1.360 . S
N348 Tb347 2.660 . S
N348 C349 1.305 . S
C349 N348 1.305 . S
C349 C351 1.407 . S
C349 H356 0.930 . S
C350 C338 1.410 . S
C350 C351 1.345 1_545 S
C350 H358 0.930 . S
C351 C349 1.407 . S
C351 C350 1.345 1_565 S
C351 H353 0.930 . S
H352 C345 0.930 . S
H353 C351 0.930 . S
H354 C342 0.930 . S
H355 C343 0.931 . S
H356 C349 0.930 . S
H357 C371 0.930 . S
H358 C350 0.930 . S
H359 C377 0.930 . S
H360 C368 0.930 . S
H361 C375 0.931 . S
H362 C339 0.929 . S
H363 C369 0.930 . S
H364 C402 0.930 . S
H365 C346 0.930 1_545 S
H366 C401 0.929 . S
N367 Tb336 2.660 . S
N367 C368 1.305 . S
N367 C372 1.360 . S
C368 H360 0.930 . S
C368 N367 1.305 . S
C368 C371 1.407 . S
C369 H363 0.930 . S
C369 C370 1.410 . S
C369 C371 1.345 . S
C370 C369 1.410 . S
C370 C372 1.417 . S
C370 C402 1.432 . S
C371 H357 0.930 . S
C371 C368 1.407 . S
C371 C369 1.345 . S
C372 N367 1.360 . S
C372 C370 1.417 . S
C372 C376 1.432 . S
H373 C378 0.930 . S
N374 Tb336 2.600 . S
N374 C376 1.359 . S
N374 C377 1.327 . S
C375 H361 0.931 . S
C375 C377 1.392 . S
C375 C378 1.370 . S
C376 C372 1.432 . S
C376 N374 1.359 . S
C376 C379 1.414 . S
C377 H359 0.930 . S
C377 N374 1.327 . S
C377 C375 1.392 . S
C378 H373 0.930 . S
C378 C375 1.370 . S
C378 C379 1.385 . S
C379 C376 1.414 . S
C379 C378 1.385 . S
C379 C401 1.444 . S
O380 Tb336 2.546 . S
O380 C400 1.251 . S
O381 Tb336 2.610 . S
O381 Tb347 2.362 . S
O381 C392 1.283 . S
O382 Tb347 2.421 . S
O382 C399 1.262 . S
O383 Tb336 2.320 . S
O383 C399 1.260 . S
O384 Tb336 2.552 . S
O384 C392 1.243 . S
O385 Tb336 2.413 . S
O385 C400 1.256 . S
O386 Tb347 2.546 . S
O386 C411 1.251 . S
O387 Tb336 2.362 . S
O387 Tb347 2.610 . S
O387 C403 1.283 . S
O388 Tb336 2.421 . S
O388 C410 1.262 . S
O389 Tb347 2.320 . S
O389 C410 1.260 . S
O390 Tb347 2.552 . S
O390 C403 1.243 . S
O391 Tb347 2.413 . S
O391 C411 1.256 . S
C392 O381 1.283 . S
C392 O384 1.243 . S
C393 C395 1.382 . S
C393 C397 1.393 . S
C393 C400 1.500 . S
C394 C395 1.400 . S
C394 C396 1.384 . S
C395 C393 1.382 . S
C395 C394 1.400 . S
C395 H412 0.930 . S
C396 C394 1.384 . S
C396 C398 1.392 . S
C396 H413 0.931 1_455 S
C397 C393 1.393 . S
C397 C398 1.401 . S
C397 H414 0.930 . S
C398 C396 1.392 . S
C398 C397 1.401 . S
C398 H415 0.930 . S
C399 O382 1.262 . S
C399 O383 1.260 . S
C400 Tb336 2.833 . S
C400 O380 1.251 . S
C400 O385 1.256 . S
C400 C393 1.500 . S
C401 H366 0.929 . S
C401 C379 1.444 . S
C401 C402 1.317 . S
C402 H364 0.930 . S
C402 C370 1.432 . S
C402 C401 1.317 . S
C403 O387 1.283 . S
C403 O390 1.243 . S
C404 C405 1.382 . S
C404 C408 1.393 . S
C404 C411 1.500 . S
C405 C404 1.382 . S
C405 C406 1.400 . S
C405 H416 0.930 . S
C406 C405 1.400 . S
C406 C407 1.384 . S
C407 C406 1.384 . S
C407 C409 1.392 . S
C407 H417 0.931 . S
C408 C404 1.393 . S
C408 C409 1.401 . S
C408 H418 0.930 . S
C409 C407 1.392 . S
C409 C408 1.401 . S
C409 H419 0.930 . S
C410 O388 1.262 . S
C410 O389 1.260 . S
C411 Tb347 2.833 . S
C411 O386 1.251 . S
C411 O391 1.256 . S
C411 C404 1.500 . S
H412 C395 0.930 . S
H413 C396 0.931 1_655 S
H414 C397 0.930 . S
H415 C398 0.930 . S
H416 C405 0.930 . S
H417 C407 0.931 . S
H418 C408 0.930 . S
H419 C409 0.930 . S
Tb420 N451 2.660 . S
Tb420 N458 2.600 . S
Tb420 O464 2.546 . S
Tb420 O465 2.610 . S
Tb420 O467 2.320 . S
Tb420 O468 2.552 . S
Tb420 O469 2.413 . S
Tb420 O471 2.362 . S
Tb420 O472 2.421 . S
Tb420 C484 2.833 . S
C421 C424 1.432 . S
C421 C425 1.414 . S
C421 N428 1.359 . S
C422 C424 1.417 . S
C422 C426 1.432 1_455 S
C422 C434 1.410 . S
C423 C425 1.444 1_655 S
C423 C426 1.317 . S
C423 H446 0.929 . S
C424 C421 1.432 . S
C424 C422 1.417 . S
C424 N432 1.360 . S
C425 C421 1.414 . S
C425 C423 1.444 1_455 S
C425 C430 1.385 . S
C426 C422 1.432 1_655 S
C426 C423 1.317 . S
C426 H438 0.930 . S
C427 C429 1.392 . S
C427 C430 1.370 . S
C427 H439 0.931 . S
N428 C421 1.359 . S
N428 C429 1.327 . S
N428 Tb431 2.600 . S
C429 C427 1.392 . S
C429 N428 1.327 . S
C429 H436 0.930 . S
C430 C425 1.385 . S
C430 C427 1.370 . S
C430 H449 0.930 . S
Tb431 N428 2.600 . S
Tb431 N432 2.660 . S
Tb431 O465 2.362 . S
Tb431 O466 2.421 . S
Tb431 O470 2.546 . S
Tb431 O471 2.610 . S
Tb431 O473 2.320 . S
Tb431 O474 2.552 . S
Tb431 O475 2.413 . S
Tb431 C495 2.833 . S
N432 C424 1.360 . S
N432 Tb431 2.660 . S
N432 C433 1.305 . S
C433 N432 1.305 . S
C433 C435 1.407 . S
C433 H440 0.930 . S
C434 C422 1.410 . S
C434 C435 1.345 . S
C434 H442 0.930 1_455 S
C435 C433 1.407 . S
C435 C434 1.345 . S
C435 H437 0.930 . S
H436 C429 0.930 . S
H437 C435 0.930 . S
H438 C426 0.930 . S
H439 C427 0.931 . S
H440 C433 0.930 . S
H441 C455 0.930 . S
H442 C434 0.930 1_655 S
H443 C461 0.930 . S
H444 C452 0.930 . S
H445 C459 0.931 . S
H446 C423 0.929 . S
H447 C453 0.930 . S
H448 C486 0.930 . S
H449 C430 0.930 . S
H450 C485 0.929 . S
N451 Tb420 2.660 . S
N451 C452 1.305 . S
N451 C456 1.360 . S
C452 H444 0.930 . S
C452 N451 1.305 . S
C452 C455 1.407 . S
C453 H447 0.930 . S
C453 C454 1.410 . S
C453 C455 1.345 . S
C454 C453 1.410 . S
C454 C456 1.417 . S
C454 C486 1.432 . S
C455 H441 0.930 . S
C455 C452 1.407 . S
C455 C453 1.345 . S
C456 N451 1.360 . S
C456 C454 1.417 . S
C456 C460 1.432 . S
H457 C462 0.930 . S
N458 Tb420 2.600 . S
N458 C460 1.359 . S
N458 C461 1.327 . S
C459 H445 0.931 . S
C459 C461 1.392 . S
C459 C462 1.370 . S
C460 C456 1.432 . S
C460 N458 1.359 . S
C460 C463 1.414 . S
C461 H443 0.930 . S
C461 N458 1.327 . S
C461 C459 1.392 . S
C462 H457 0.930 . S
C462 C459 1.370 . S
C462 C463 1.385 . S
C463 C460 1.414 . S
C463 C462 1.385 . S
C463 C485 1.444 . S
O464 Tb420 2.546 . S
O464 C484 1.251 . S
O465 Tb420 2.610 . S
O465 Tb431 2.362 . S
O465 C476 1.283 . S
O466 Tb431 2.421 . S
O466 C483 1.262 . S
O467 Tb420 2.320 . S
O467 C483 1.260 . S
O468 Tb420 2.552 . S
O468 C476 1.243 . S
O469 Tb420 2.413 . S
O469 C484 1.256 . S
O470 Tb431 2.546 . S
O470 C495 1.251 . S
O471 Tb420 2.362 . S
O471 Tb431 2.610 . S
O471 C487 1.283 . S
O472 Tb420 2.421 . S
O472 C494 1.262 . S
O473 Tb431 2.320 . S
O473 C494 1.260 . S
O474 Tb431 2.552 . S
O474 C487 1.243 . S
O475 Tb431 2.413 . S
O475 C495 1.256 . S
C476 O465 1.283 . S
C476 O468 1.243 . S
C477 C479 1.382 . S
C477 C481 1.393 . S
C477 C484 1.500 . S
C478 C479 1.400 . S
C478 C480 1.384 . S
C479 C477 1.382 . S
C479 C478 1.400 . S
C479 H496 0.930 . S
C480 C478 1.384 . S
C480 C482 1.392 . S
C480 H497 0.931 . S
C481 C477 1.393 . S
C481 C482 1.401 . S
C481 H498 0.930 . S
C482 C480 1.392 . S
C482 C481 1.401 . S
C482 H499 0.930 . S
C483 O466 1.262 . S
C483 O467 1.260 . S
C484 Tb420 2.833 . S
C484 O464 1.251 . S
C484 O469 1.256 . S
C484 C477 1.500 . S
C485 H450 0.929 . S
C485 C463 1.444 . S
C485 C486 1.317 . S
C486 H448 0.930 . S
C486 C454 1.432 . S
C486 C485 1.317 . S
C487 O471 1.283 . S
C487 O474 1.243 . S
C488 C489 1.382 . S
C488 C492 1.393 . S
C488 C495 1.500 . S
C489 C488 1.382 . S
C489 C490 1.400 . S
C489 H500 0.930 . S
C490 C489 1.400 . S
C490 C491 1.384 . S
C491 C490 1.384 . S
C491 C493 1.392 . S
C491 H501 0.931 . S
C492 C488 1.393 . S
C492 C493 1.401 . S
C492 H502 0.930 . S
C493 C491 1.392 . S
C493 C492 1.401 . S
C493 H503 0.930 . S
C494 O472 1.262 . S
C494 O473 1.260 . S
C495 Tb431 2.833 . S
C495 O470 1.251 . S
C495 O475 1.256 . S
C495 C488 1.500 . S
H496 C479 0.930 . S
H497 C480 0.931 . S
H498 C481 0.930 . S
H499 C482 0.930 . S
H500 C489 0.930 . S
H501 C491 0.931 . S
H502 C492 0.930 . S
H503 C493 0.930 . S
Tb504 N535 2.660 . S
Tb504 N542 2.600 . S
Tb504 O548 2.546 . S
Tb504 O549 2.610 . S
Tb504 O551 2.320 . S
Tb504 O552 2.552 . S
Tb504 O553 2.413 . S
Tb504 O555 2.362 . S
Tb504 O556 2.421 . S
Tb504 C568 2.833 . S
C505 C508 1.432 . S
C505 C509 1.414 . S
C505 N512 1.359 . S
C506 C508 1.417 . S
C506 C510 1.432 . S
C506 C518 1.410 . S
C507 C509 1.444 . S
C507 C510 1.317 . S
C507 H530 0.929 1_545 S
C508 C505 1.432 . S
C508 C506 1.417 . S
C508 N516 1.360 . S
C509 C505 1.414 . S
C509 C507 1.444 . S
C509 C514 1.385 . S
C510 C506 1.432 . S
C510 C507 1.317 . S
C510 H522 0.930 . S
C511 C513 1.392 . S
C511 C514 1.370 . S
C511 H523 0.931 . S
N512 C505 1.359 . S
N512 C513 1.327 . S
N512 Tb515 2.600 . S
C513 C511 1.392 . S
C513 N512 1.327 . S
C513 H520 0.930 . S
C514 C509 1.385 . S
C514 C511 1.370 . S
C514 H533 0.930 . S
Tb515 N512 2.600 . S
Tb515 N516 2.660 . S
Tb515 O549 2.362 . S
Tb515 O550 2.421 . S
Tb515 O554 2.546 . S
Tb515 O555 2.610 . S
Tb515 O557 2.320 . S
Tb515 O558 2.552 . S
Tb515 O559 2.413 . S
Tb515 C579 2.833 . S
N516 C508 1.360 . S
N516 Tb515 2.660 . S
N516 C517 1.305 . S
C517 N516 1.305 . S
C517 C519 1.407 . S
C517 H524 0.930 . S
C518 C506 1.410 . S
C518 C519 1.345 . S
C518 H526 0.930 . S
C519 C517 1.407 . S
C519 C518 1.345 . S
C519 H521 0.930 . S
H520 C513 0.930 . S
H521 C519 0.930 . S
H522 C510 0.930 . S
H523 C511 0.931 . S
H524 C517 0.930 . S
H525 C539 0.930 . S
H526 C518 0.930 . S
H527 C545 0.930 . S
H528 C536 0.930 . S
H529 C543 0.931 . S
H530 C507 0.929 1_565 S
H531 C537 0.930 . S
H532 C570 0.930 . S
H533 C514 0.930 . S
H534 C569 0.929 . S
N535 Tb504 2.660 . S
N535 C536 1.305 . S
N535 C540 1.360 . S
C536 H528 0.930 . S
C536 N535 1.305 . S
C536 C539 1.407 . S
C537 H531 0.930 . S
C537 C538 1.410 . S
C537 C539 1.345 . S
C538 C537 1.410 . S
C538 C540 1.417 . S
C538 C570 1.432 . S
C539 H525 0.930 . S
C539 C536 1.407 . S
C539 C537 1.345 . S
C540 N535 1.360 . S
C540 C538 1.417 . S
C540 C544 1.432 . S
H541 C546 0.930 . S
N542 Tb504 2.600 . S
N542 C544 1.359 . S
N542 C545 1.327 . S
C543 H529 0.931 . S
C543 C545 1.392 . S
C543 C546 1.370 . S
C544 C540 1.432 . S
C544 N542 1.359 . S
C544 C547 1.414 . S
C545 H527 0.930 . S
C545 N542 1.327 . S
C545 C543 1.392 . S
C546 H541 0.930 . S
C546 C543 1.370 . S
C546 C547 1.385 . S
C547 C544 1.414 . S
C547 C546 1.385 . S
C547 C569 1.444 . S
O548 Tb504 2.546 . S
O548 C568 1.251 . S
O549 Tb504 2.610 . S
O549 Tb515 2.362 . S
O549 C560 1.283 . S
O550 Tb515 2.421 . S
O550 C567 1.262 . S
O551 Tb504 2.320 . S
O551 C567 1.260 . S
O552 Tb504 2.552 . S
O552 C560 1.243 . S
O553 Tb504 2.413 . S
O553 C568 1.256 . S
O554 Tb515 2.546 . S
O554 C579 1.251 . S
O555 Tb504 2.362 . S
O555 Tb515 2.610 . S
O555 C571 1.283 . S
O556 Tb504 2.421 . S
O556 C578 1.262 . S
O557 Tb515 2.320 . S
O557 C578 1.260 . S
O558 Tb515 2.552 . S
O558 C571 1.243 . S
O559 Tb515 2.413 . S
O559 C579 1.256 . S
C560 O549 1.283 . S
C560 O552 1.243 . S
C561 C563 1.382 . S
C561 C565 1.393 . S
C561 C568 1.500 . S
C562 C563 1.400 . S
C562 C564 1.384 . S
C563 C561 1.382 . S
C563 C562 1.400 . S
C563 H580 0.930 . S
C564 C562 1.384 . S
C564 C566 1.392 . S
C564 H581 0.931 . S
C565 C561 1.393 . S
C565 C566 1.401 . S
C565 H582 0.930 . S
C566 C564 1.392 . S
C566 C565 1.401 . S
C566 H583 0.930 . S
C567 O550 1.262 . S
C567 O551 1.260 . S
C568 Tb504 2.833 . S
C568 O548 1.251 . S
C568 O553 1.256 . S
C568 C561 1.500 . S
C569 H534 0.929 . S
C569 C547 1.444 . S
C569 C570 1.317 . S
C570 H532 0.930 . S
C570 C538 1.432 . S
C570 C569 1.317 . S
C571 O555 1.283 . S
C571 O558 1.243 . S
C572 C573 1.382 1_545 S
C572 C576 1.393 1_545 S
C572 C579 1.500 . S
C573 C572 1.382 1_565 S
C573 C574 1.400 . S
C573 H584 0.930 1_565 S
C574 C573 1.400 . S
C574 C575 1.384 . S
C575 C574 1.384 . S
C575 C577 1.392 . S
C575 H585 0.931 . S
C576 C572 1.393 1_565 S
C576 C577 1.401 . S
C576 H586 0.930 . S
C577 C575 1.392 . S
C577 C576 1.401 . S
C577 H587 0.930 . S
C578 O556 1.262 . S
C578 O557 1.260 . S
C579 Tb515 2.833 . S
C579 O554 1.251 . S
C579 O559 1.256 . S
C579 C572 1.500 . S
H580 C563 0.930 . S
H581 C564 0.931 . S
H582 C565 0.930 . S
H583 C566 0.930 . S
H584 C573 0.930 1_545 S
H585 C575 0.931 . S
H586 C576 0.930 . S
H587 C577 0.930 . S
Tb588 N619 2.660 . S
Tb588 N626 2.600 . S
Tb588 O632 2.546 . S
Tb588 O633 2.610 . S
Tb588 O635 2.320 . S
Tb588 O636 2.552 . S
Tb588 O637 2.413 . S
Tb588 O639 2.362 . S
Tb588 O640 2.421 . S
Tb588 C652 2.833 . S
C589 C592 1.432 . S
C589 C593 1.414 . S
C589 N596 1.359 . S
C590 C592 1.417 . S
C590 C594 1.425 1_655 S
C590 C602 1.410 . S
C591 C593 1.444 1_455 S
C591 C594 1.324 . S
C591 H614 0.929 . S
C592 C589 1.432 . S
C592 C590 1.417 . S
C592 N600 1.360 . S
C593 C589 1.414 . S
C593 C591 1.444 1_655 S
C593 C598 1.385 . S
C594 C590 1.425 1_455 S
C594 C591 1.324 . S
C594 H606 0.931 . S
C595 C597 1.392 . S
C595 C598 1.370 . S
C595 H607 0.931 . S
N596 C589 1.359 . S
N596 C597 1.327 . S
N596 Tb599 2.600 . S
C597 C595 1.392 . S
C597 N596 1.327 . S
C597 H604 0.930 . S
C598 C593 1.385 . S
C598 C595 1.370 . S
C598 H617 0.930 1_655 S
Tb599 N596 2.600 . S
Tb599 N600 2.660 . S
Tb599 O633 2.362 . S
Tb599 O634 2.421 . S
Tb599 O638 2.546 . S
Tb599 O639 2.610 . S
Tb599 O641 2.320 . S
Tb599 O642 2.552 . S
Tb599 O643 2.413 . S
Tb599 C663 2.833 . S
N600 C592 1.360 . S
N600 Tb599 2.660 . S
N600 C601 1.305 . S
C601 N600 1.305 . S
C601 C603 1.407 . S
C601 H608 0.930 . S
C602 C590 1.410 . S
C602 C603 1.345 . S
C602 H610 0.930 . S
C603 C601 1.407 . S
C603 C602 1.345 . S
C603 H605 0.930 . S
H604 C597 0.930 . S
H605 C603 0.930 . S
H606 C594 0.931 . S
H607 C595 0.931 . S
H608 C601 0.930 . S
H609 C623 0.930 . S
H610 C602 0.930 . S
H611 C629 0.930 . S
H612 C620 0.930 . S
H613 C627 0.931 . S
H614 C591 0.929 . S
H615 C621 0.930 . S
H616 C654 0.930 . S
H617 C598 0.930 1_455 S
H618 C653 0.929 . S
N619 Tb588 2.660 . S
N619 C620 1.305 . S
N619 C624 1.360 . S
C620 H612 0.930 . S
C620 N619 1.305 . S
C620 C623 1.407 . S
C621 H615 0.930 . S
C621 C622 1.410 . S
C621 C623 1.345 . S
C622 C621 1.410 . S
C622 C624 1.417 . S
C622 C654 1.432 . S
C623 H609 0.930 . S
C623 C620 1.407 . S
C623 C621 1.345 . S
C624 N619 1.360 . S
C624 C622 1.417 . S
C624 C628 1.432 . S
H625 C630 0.930 . S
N626 Tb588 2.600 . S
N626 C628 1.359 . S
N626 C629 1.327 . S
C627 H613 0.931 . S
C627 C629 1.392 . S
C627 C630 1.370 . S
C628 C624 1.432 . S
C628 N626 1.359 . S
C628 C631 1.414 . S
C629 H611 0.930 . S
C629 N626 1.327 . S
C629 C627 1.392 . S
C630 H625 0.930 . S
C630 C627 1.370 . S
C630 C631 1.385 . S
C631 C628 1.414 . S
C631 C630 1.385 . S
C631 C653 1.444 . S
O632 Tb588 2.546 . S
O632 C652 1.251 . S
O633 Tb588 2.610 . S
O633 Tb599 2.362 . S
O633 C644 1.283 . S
O634 Tb599 2.421 . S
O634 C651 1.262 . S
O635 Tb588 2.320 . S
O635 C651 1.260 . S
O636 Tb588 2.552 . S
O636 C644 1.243 . S
O637 Tb588 2.413 . S
O637 C652 1.256 . S
O638 Tb599 2.546 . S
O638 C663 1.251 . S
O639 Tb588 2.362 . S
O639 Tb599 2.610 . S
O639 C655 1.283 . S
O640 Tb588 2.421 . S
O640 C662 1.262 . S
O641 Tb599 2.320 . S
O641 C662 1.260 . S
O642 Tb599 2.552 . S
O642 C655 1.243 . S
O643 Tb599 2.413 . S
O643 C663 1.256 . S
C644 O633 1.283 . S
C644 O636 1.243 . S
C645 C647 1.382 . S
C645 C649 1.393 . S
C645 C652 1.500 . S
C646 C647 1.400 . S
C646 C648 1.384 . S
C647 C645 1.382 . S
C647 C646 1.400 . S
C647 H664 0.930 . S
C648 C646 1.384 . S
C648 C650 1.392 . S
C648 H665 0.931 . S
C649 C645 1.393 . S
C649 C650 1.401 . S
C649 H666 0.930 . S
C650 C648 1.392 . S
C650 C649 1.401 . S
C650 H667 0.930 . S
C651 O634 1.262 . S
C651 O635 1.260 . S
C652 Tb588 2.833 . S
C652 O632 1.251 . S
C652 O637 1.256 . S
C652 C645 1.500 . S
C653 H618 0.929 . S
C653 C631 1.444 . S
C653 C654 1.317 . S
C654 H616 0.930 . S
C654 C622 1.432 . S
C654 C653 1.317 . S
C655 O639 1.283 . S
C655 O642 1.243 . S
C656 C657 1.382 . S
C656 C660 1.393 . S
C656 C663 1.500 1_455 S
C657 C656 1.382 . S
C657 C658 1.400 . S
C657 H668 0.930 . S
C658 C657 1.400 . S
C658 C659 1.384 . S
C659 C658 1.384 . S
C659 C661 1.392 . S
C659 H669 0.931 . S
C660 C656 1.393 . S
C660 C661 1.401 . S
C660 H670 0.930 . S
C661 C659 1.392 . S
C661 C660 1.401 . S
C661 H671 0.930 . S
C662 O640 1.262 . S
C662 O641 1.260 . S
C663 Tb599 2.833 . S
C663 O638 1.251 . S
C663 O643 1.256 . S
C663 C656 1.500 1_655 S
H664 C647 0.930 . S
H665 C648 0.931 . S
H666 C649 0.930 . S
H667 C650 0.930 . S
H668 C657 0.930 . S
H669 C659 0.931 . S
H670 C660 0.930 . S
H671 C661 0.930 . S
Tb672 N703 2.660 . S
Tb672 N710 2.600 . S
Tb672 O716 2.546 . S
Tb672 O717 2.610 . S
Tb672 O719 2.320 . S
Tb672 O720 2.552 . S
Tb672 O721 2.413 . S
Tb672 O723 2.362 . S
Tb672 O724 2.421 . S
Tb672 C736 2.833 . S
C673 C676 1.432 . S
C673 C677 1.414 . S
C673 N680 1.359 . S
C674 C676 1.417 . S
C674 C678 1.432 . S
C674 C686 1.410 . S
C675 C677 1.444 . S
C675 C678 1.317 . S
C675 H698 0.929 . S
C676 C673 1.432 . S
C676 C674 1.417 . S
C676 N684 1.360 . S
C677 C673 1.414 . S
C677 C675 1.444 . S
C677 C682 1.385 . S
C678 C674 1.432 . S
C678 C675 1.317 . S
C678 H690 0.930 . S
C679 C681 1.392 . S
C679 C682 1.370 . S
C679 H691 0.931 . S
N680 C673 1.359 . S
N680 C681 1.327 . S
N680 Tb683 2.600 . S
C681 C679 1.392 . S
C681 N680 1.327 . S
C681 H688 0.930 . S
C682 C677 1.385 . S
C682 C679 1.370 . S
C682 H701 0.930 . S
Tb683 N680 2.600 . S
Tb683 N684 2.660 . S
Tb683 O717 2.362 . S
Tb683 O718 2.421 . S
Tb683 O722 2.546 . S
Tb683 O723 2.610 . S
Tb683 O725 2.320 . S
Tb683 O726 2.552 . S
Tb683 O727 2.413 . S
Tb683 C747 2.833 . S
N684 C676 1.360 . S
N684 Tb683 2.660 . S
N684 C685 1.305 . S
C685 N684 1.305 . S
C685 C687 1.407 . S
C685 H692 0.930 . S
C686 C674 1.410 . S
C686 C687 1.345 . S
C686 H694 0.930 . S
C687 C685 1.407 . S
C687 C686 1.345 . S
C687 H689 0.930 . S
H688 C681 0.930 . S
H689 C687 0.930 . S
H690 C678 0.930 . S
H691 C679 0.931 . S
H692 C685 0.930 . S
H693 C707 0.930 . S
H694 C686 0.930 . S
H695 C713 0.930 . S
H696 C704 0.930 . S
H697 C711 0.931 . S
H698 C675 0.929 . S
H699 C705 0.930 . S
H700 C738 0.930 . S
H701 C682 0.930 . S
H702 C737 0.929 . S
N703 Tb672 2.660 . S
N703 C704 1.305 . S
N703 C708 1.360 . S
C704 H696 0.930 . S
C704 N703 1.305 . S
C704 C707 1.407 . S
C705 H699 0.930 . S
C705 C706 1.410 . S
C705 C707 1.345 . S
C706 C705 1.410 . S
C706 C708 1.417 . S
C706 C738 1.432 . S
C707 H693 0.930 . S
C707 C704 1.407 . S
C707 C705 1.345 . S
C708 N703 1.360 . S
C708 C706 1.417 . S
C708 C712 1.432 . S
H709 C714 0.930 . S
N710 Tb672 2.600 . S
N710 C712 1.359 . S
N710 C713 1.327 . S
C711 H697 0.931 . S
C711 C713 1.392 . S
C711 C714 1.370 . S
C712 C708 1.432 . S
C712 N710 1.359 . S
C712 C715 1.414 . S
C713 H695 0.930 . S
C713 N710 1.327 . S
C713 C711 1.392 . S
C714 H709 0.930 . S
C714 C711 1.370 . S
C714 C715 1.385 . S
C715 C712 1.414 . S
C715 C714 1.385 . S
C715 C737 1.444 . S
O716 Tb672 2.546 . S
O716 C736 1.251 . S
O717 Tb672 2.610 . S
O717 Tb683 2.362 . S
O717 C728 1.283 . S
O718 Tb683 2.421 . S
O718 C735 1.262 . S
O719 Tb672 2.320 . S
O719 C735 1.260 . S
O720 Tb672 2.552 . S
O720 C728 1.243 . S
O721 Tb672 2.413 . S
O721 C736 1.256 . S
O722 Tb683 2.546 . S
O722 C747 1.251 . S
O723 Tb672 2.362 . S
O723 Tb683 2.610 . S
O723 C739 1.283 . S
O724 Tb672 2.421 . S
O724 C746 1.262 . S
O725 Tb683 2.320 . S
O725 C746 1.260 . S
O726 Tb683 2.552 . S
O726 C739 1.243 . S
O727 Tb683 2.413 . S
O727 C747 1.256 . S
C728 O717 1.283 . S
C728 O720 1.243 . S
C729 C731 1.382 . S
C729 C733 1.393 . S
C729 C736 1.500 . S
C730 C731 1.400 . S
C730 C732 1.384 . S
C731 C729 1.382 . S
C731 C730 1.400 . S
C731 H748 0.930 . S
C732 C730 1.384 . S
C732 C734 1.392 . S
C732 H749 0.931 . S
C733 C729 1.393 . S
C733 C734 1.401 . S
C733 H750 0.930 . S
C734 C732 1.392 . S
C734 C733 1.401 . S
C734 H751 0.930 . S
C735 O718 1.262 . S
C735 O719 1.260 . S
C736 Tb672 2.833 . S
C736 O716 1.251 . S
C736 O721 1.256 . S
C736 C729 1.500 . S
C737 H702 0.929 . S
C737 C715 1.444 . S
C737 C738 1.317 . S
C738 H700 0.930 . S
C738 C706 1.432 . S
C738 C737 1.317 . S
C739 O723 1.283 . S
C739 O726 1.243 . S
C740 C741 1.382 . S
C740 C744 1.393 . S
C740 C747 1.500 . S
C741 C740 1.382 . S
C741 C742 1.400 . S
C741 H752 0.930 . S
C742 C741 1.400 . S
C742 C743 1.384 . S
C743 C742 1.384 . S
C743 C745 1.392 . S
C743 H753 0.931 . S
C744 C740 1.393 . S
C744 C745 1.401 . S
C744 H754 0.930 . S
C745 C743 1.392 . S
C745 C744 1.401 . S
C745 H755 0.930 . S
C746 O724 1.262 . S
C746 O725 1.260 . S
C747 Tb683 2.833 . S
C747 O722 1.251 . S
C747 O727 1.256 . S
C747 C740 1.500 . S
H748 C731 0.930 . S
H749 C732 0.931 . S
H750 C733 0.930 . S
H751 C734 0.930 . S
H752 C741 0.930 . S
H753 C743 0.931 . S
H754 C744 0.930 . S
H755 C745 0.930 . S
H756 C774 0.951 . S
H757 C776 0.951 . S
H758 C778 0.950 . S
H759 C779 0.950 . S
H760 C781 0.950 . S
H761 C784 0.950 . S
H762 C785 0.950 . S
H763 C787 0.969 . S
H764 C788 0.950 . S
H765 C789 0.951 . S
H766 C791 0.951 . S
H767 C793 0.950 . S
H768 C794 0.950 . S
H769 C796 0.950 . S
H770 C799 0.950 . S
H771 C800 0.950 . S
H772 C802 0.950 . S
H773 C803 0.950 . S
C774 H756 0.951 . S
C774 C775 1.366 1_556 S
C774 C776 1.388 . S
C775 C774 1.366 1_554 S
C775 C779 1.385 . S
C776 H757 0.951 . S
C776 C774 1.388 . S
C776 C777 1.366 1_556 S
C777 C776 1.366 1_554 S
C777 C778 1.414 . S
C777 C780 1.499 . S
C778 H758 0.950 . S
C778 C777 1.414 . S
C778 C779 1.374 . S
C779 H759 0.950 . S
C779 C775 1.385 . S
C779 C778 1.374 . S
C780 C777 1.499 . S
C780 C781 1.373 . S
C780 C782 1.389 . S
C781 H760 0.950 . S
C781 C780 1.373 . S
C781 C797 1.377 . S
C782 C780 1.389 . S
C782 C783 1.524 . S
C782 C796 1.377 . S
C783 C782 1.524 . S
C783 C784 1.397 . S
C783 C788 1.363 1_554 S
C784 H761 0.950 . S
C784 C783 1.397 . S
C784 C785 1.334 . S
C785 H762 0.950 . S
C785 C784 1.334 . S
C785 C786 1.287 . S
C786 C785 1.287 . S
C786 C787 1.499 1_554 S
C786 H805 0.913 . S
C787 H763 0.969 . S
C787 C786 1.499 1_556 S
C787 C788 1.419 . S
C788 H764 0.950 . S
C788 C783 1.363 1_556 S
C788 C787 1.419 . S
C789 H765 0.951 . S
C789 C790 1.366 . S
C789 C791 1.388 . S
C790 C789 1.366 . S
C790 C794 1.385 1_554 S
C791 H766 0.951 . S
C791 C789 1.388 . S
C791 C792 1.366 . S
C792 C791 1.366 . S
C792 C793 1.414 1_554 S
C792 C795 1.499 . S
C793 H767 0.950 . S
C793 C792 1.414 1_556 S
C793 C794 1.374 . S
C794 H768 0.950 . S
C794 C790 1.385 1_556 S
C794 C793 1.374 . S
C795 C792 1.499 . S
C795 C796 1.373 . S
C795 C797 1.389 . S
C796 H769 0.950 . S
C796 C782 1.377 . S
C796 C795 1.373 . S
C797 C781 1.377 . S
C797 C795 1.389 . S
C797 C798 1.524 . S
C798 C797 1.524 . S
C798 C799 1.397 1_554 S
C798 C803 1.363 . S
C799 H770 0.950 . S
C799 C798 1.397 1_556 S
C799 C800 1.334 . S
C800 H771 0.950 . S
C800 C799 1.334 . S
C800 C801 1.287 . S
C801 C800 1.287 . S
C801 C802 1.524 1_556 S
C801 H804 0.999 . S
C802 H772 0.950 . S
C802 C801 1.524 1_554 S
C802 C803 1.415 . S
C803 H773 0.950 . S
C803 C798 1.363 . S
C803 C802 1.415 . S
H804 C801 0.999 . S
H805 C786 0.913 . S
H806 C824 0.951 . S
H807 C826 0.951 . S
H808 C828 0.950 . S
H809 C829 0.950 . S
H810 C831 0.950 . S
H811 C834 0.950 . S
H812 C835 0.950 . S
H813 C837 0.950 . S
H814 C838 0.950 . S
H815 C839 0.951 . S
H816 C841 0.951 . S
H817 C843 0.950 . S
H818 C844 0.950 . S
H819 C846 0.950 1_556 S
H820 C849 0.950 . S
H821 C850 0.950 . S
H822 C852 0.950 . S
H823 C853 0.950 . S
C824 H806 0.951 . S
C824 C825 1.366 1_556 S
C824 C826 1.388 . S
C825 C824 1.366 1_554 S
C825 C829 1.385 . S
C826 H807 0.951 . S
C826 C824 1.388 . S
C826 C827 1.366 1_556 S
C827 C826 1.366 1_554 S
C827 C828 1.414 . S
C827 C830 1.499 . S
C828 H808 0.950 . S
C828 C827 1.414 . S
C828 C829 1.374 . S
C829 H809 0.950 . S
C829 C825 1.385 . S
C829 C828 1.374 . S
C830 C827 1.499 . S
C830 C831 1.373 . S
C830 C832 1.389 . S
C831 H810 0.950 . S
C831 C830 1.373 . S
C831 C847 1.377 . S
C832 C830 1.389 . S
C832 C833 1.524 . S
C832 C846 1.377 . S
C833 C832 1.524 . S
C833 C834 1.397 . S
C833 C838 1.363 1_554 S
C834 H811 0.950 . S
C834 C833 1.397 . S
C834 C835 1.334 . S
C835 H812 0.950 . S
C835 C834 1.334 . S
C835 C836 1.287 . S
C836 C835 1.287 . S
C836 C837 1.524 1_554 S
C836 H855 0.915 . S
C837 H813 0.950 . S
C837 C836 1.524 1_556 S
C837 C838 1.415 . S
C838 H814 0.950 . S
C838 C833 1.363 1_556 S
C838 C837 1.415 . S
C839 H815 0.951 . S
C839 C840 1.366 . S
C839 C841 1.388 . S
C840 C839 1.366 . S
C840 C844 1.385 1_554 S
C841 H816 0.951 . S
C841 C839 1.388 . S
C841 C842 1.366 . S
C842 C841 1.366 . S
C842 C843 1.414 1_554 S
C842 C845 1.499 . S
C843 H817 0.950 . S
C843 C842 1.414 1_556 S
C843 C844 1.374 . S
C844 H818 0.950 . S
C844 C840 1.385 1_556 S
C844 C843 1.374 . S
C845 C842 1.499 . S
C845 C846 1.373 . S
C845 C847 1.389 . S
C846 H819 0.950 1_554 S
C846 C832 1.377 . S
C846 C845 1.373 . S
C847 C831 1.377 . S
C847 C845 1.389 . S
C847 C848 1.524 . S
C848 C847 1.524 . S
C848 C849 1.397 1_554 S
C848 C853 1.363 . S
C849 H820 0.950 . S
C849 C848 1.397 1_556 S
C849 C850 1.334 . S
C850 H821 0.950 . S
C850 C849 1.334 . S
C850 C851 1.287 1_556 S
C851 C850 1.287 1_554 S
C851 C852 1.524 . S
C851 H854 0.999 . S
C852 H822 0.950 . S
C852 C851 1.524 . S
C852 C853 1.415 . S
C853 H823 0.950 . S
C853 C848 1.363 . S
C853 C852 1.415 . S
H854 C851 0.999 . S
H855 C836 0.915 . S
H856 C874 0.951 . S
H857 C876 0.951 . S
H858 C878 0.944 1_556 S
H859 C879 0.950 . S
H860 C881 0.950 . S
H861 C884 0.950 . S
H862 C885 0.950 . S
H863 C887 0.950 . S
H864 C888 0.950 . S
H865 C889 0.951 . S
H866 C891 0.951 . S
H867 C893 0.950 . S
H868 C894 0.950 . S
H869 C896 0.950 . S
H870 C899 0.950 . S
H871 C900 0.950 . S
H872 C902 0.950 . S
H873 C903 0.950 . S
C874 H856 0.951 . S
C874 C875 1.366 . S
C874 C876 1.388 . S
C875 C874 1.366 . S
C875 C879 1.385 1_554 S
C876 H857 0.951 . S
C876 C874 1.388 . S
C876 C877 1.366 . S
C877 C876 1.366 . S
C877 C878 1.424 . S
C877 C880 1.499 . S
C878 H858 0.944 1_554 S
C878 C877 1.424 . S
C878 C879 1.372 1_554 S
C879 H859 0.950 . S
C879 C875 1.385 1_556 S
C879 C878 1.372 1_556 S
C880 C877 1.499 . S
C880 C881 1.373 1_554 S
C880 C882 1.389 . S
C881 H860 0.950 . S
C881 C880 1.373 1_556 S
C881 C897 1.377 . S
C882 C880 1.389 . S
C882 C883 1.524 . S
C882 C896 1.377 . S
C883 C882 1.524 . S
C883 C884 1.397 . S
C883 C888 1.363 . S
C884 H861 0.950 . S
C884 C883 1.397 . S
C884 C885 1.334 . S
C885 H862 0.950 . S
C885 C884 1.334 . S
C885 C886 1.287 . S
C886 C885 1.287 . S
C886 C887 1.524 . S
C886 H905 0.913 . S
C887 H863 0.950 . S
C887 C886 1.524 . S
C887 C888 1.415 . S
C888 H864 0.950 . S
C888 C883 1.363 . S
C888 C887 1.415 . S
C889 H865 0.951 . S
C889 C890 1.366 . S
C889 C891 1.388 . S
C890 C889 1.366 . S
C890 C894 1.385 . S
C891 H866 0.951 . S
C891 C889 1.388 . S
C891 C892 1.366 . S
C892 C891 1.366 . S
C892 C893 1.414 . S
C892 C895 1.499 . S
C893 H867 0.950 . S
C893 C892 1.414 . S
C893 C894 1.374 . S
C894 H868 0.950 . S
C894 C890 1.385 . S
C894 C893 1.374 . S
C895 C892 1.499 . S
C895 C896 1.373 . S
C895 C897 1.389 1_554 S
C896 H869 0.950 . S
C896 C882 1.377 . S
C896 C895 1.373 . S
C897 C881 1.377 . S
C897 C895 1.389 1_556 S
C897 C898 1.524 . S
C898 C897 1.524 . S
C898 C899 1.397 . S
C898 C903 1.363 . S
C899 H870 0.950 . S
C899 C898 1.397 . S
C899 C900 1.334 . S
C900 H871 0.950 . S
C900 C899 1.334 . S
C900 C901 1.287 . S
C901 C900 1.287 . S
C901 C902 1.524 . S
C901 H904 0.999 . S
C902 H872 0.950 . S
C902 C901 1.524 . S
C902 C903 1.415 . S
C903 H873 0.950 . S
C903 C898 1.363 . S
C903 C902 1.415 . S
H904 C901 0.999 . S
H905 C886 0.913 . S
H906 C924 0.951 . S
H907 C926 0.951 . S
H908 C928 0.950 . S
H909 C929 0.950 . S
H910 C931 0.950 . S
H911 C934 0.950 . S
H912 C935 0.950 . S
H913 C937 0.950 . S
H914 C938 0.950 1_556 S
H915 C939 0.951 . S
H916 C941 0.951 . S
H917 C943 0.950 . S
H918 C944 0.950 . S
H919 C946 0.950 . S
H920 C949 0.950 . S
H921 C950 0.950 . S
H922 C952 0.950 . S
H923 C953 0.950 1_554 S
C924 H906 0.951 . S
C924 C925 1.366 . S
C924 C926 1.388 . S
C925 C924 1.366 . S
C925 C929 1.385 1_556 S
C926 H907 0.951 . S
C926 C924 1.388 . S
C926 C927 1.366 . S
C927 C926 1.366 . S
C927 C928 1.414 1_556 S
C927 C930 1.499 . S
C928 H908 0.950 . S
C928 C927 1.414 1_554 S
C928 C929 1.374 . S
C929 H909 0.950 . S
C929 C925 1.385 1_554 S
C929 C928 1.374 . S
C930 C927 1.499 . S
C930 C931 1.373 . S
C930 C932 1.389 1_556 S
C931 H910 0.950 . S
C931 C930 1.373 . S
C931 C947 1.377 . S
C932 C930 1.389 1_554 S
C932 C933 1.524 . S
C932 C946 1.377 . S
C933 C932 1.524 . S
C933 C934 1.397 . S
C933 C938 1.363 . S
C934 H911 0.950 . S
C934 C933 1.397 . S
C934 C935 1.334 . S
C935 H912 0.950 . S
C935 C934 1.334 . S
C935 C936 1.287 . S
C936 C935 1.287 . S
C936 C937 1.524 . S
C936 H955 0.913 . S
C937 H913 0.950 . S
C937 C936 1.524 . S
C937 C938 1.415 . S
C938 H914 0.950 1_554 S
C938 C933 1.363 . S
C938 C937 1.415 . S
C939 H915 0.951 . S
C939 C940 1.366 . S
C939 C941 1.388 . S
C940 C939 1.366 . S
C940 C944 1.385 1_554 S
C941 H916 0.951 . S
C941 C939 1.388 . S
C941 C942 1.366 1_554 S
C942 C941 1.366 1_556 S
C942 C943 1.414 . S
C942 C945 1.499 . S
C943 H917 0.950 . S
C943 C942 1.414 . S
C943 C944 1.374 . S
C944 H918 0.950 . S
C944 C940 1.385 1_556 S
C944 C943 1.374 . S
C945 C942 1.499 . S
C945 C946 1.373 1_556 S
C945 C947 1.389 . S
C946 H919 0.950 . S
C946 C932 1.377 . S
C946 C945 1.373 1_554 S
C947 C931 1.377 . S
C947 C945 1.389 . S
C947 C948 1.524 . S
C948 C947 1.524 . S
C948 C949 1.397 . S
C948 C953 1.363 . S
C949 H920 0.950 . S
C949 C948 1.397 . S
C949 C950 1.334 . S
C950 H921 0.950 . S
C950 C949 1.334 . S
C950 C951 1.287 . S
C951 C950 1.287 . S
C951 C952 1.524 . S
C951 H954 0.999 . S
C952 H922 0.950 . S
C952 C951 1.524 . S
C952 C953 1.415 . S
C953 H923 0.950 1_556 S
C953 C948 1.363 . S
C953 C952 1.415 . S
H954 C951 0.999 . S
H955 C936 0.913 . S
H956 C974 0.956 . S
H957 C976 0.951 . S
H958 C978 0.950 . S
H959 C979 0.950 . S
H960 C981 0.950 . S
H961 C984 0.950 . S
H962 C985 0.950 . S
H963 C987 0.950 . S
H964 C988 0.950 . S
H965 C989 0.951 . S
H966 C991 0.951 . S
H967 C993 0.950 . S
H968 C994 0.950 . S
H969 C996 0.950 . S
H970 C999 0.950 . S
H971 C1000 0.950 . S
H972 C1002 0.950 . S
H973 C1003 0.950 . S
C974 H956 0.956 . S
C974 C975 1.361 1_556 S
C974 C976 1.390 . S
C975 C974 1.361 1_554 S
C975 C979 1.385 . S
C976 H957 0.951 . S
C976 C974 1.390 . S
C976 C977 1.363 1_556 S
C977 C976 1.363 1_554 S
C977 C978 1.418 . S
C977 C980 1.496 1_554 S
C978 H958 0.950 . S
C978 C977 1.418 . S
C978 C979 1.374 . S
C979 H959 0.950 . S
C979 C975 1.385 . S
C979 C978 1.374 . S
C980 C977 1.496 1_556 S
C980 C981 1.400 . S
C980 C982 1.369 1_556 S
C981 H960 0.950 . S
C981 C980 1.400 . S
C981 C997 1.377 . S
C982 C980 1.369 1_554 S
C982 C983 1.524 . S
C982 C996 1.377 . S
C983 C982 1.524 . S
C983 C984 1.397 . S
C983 C988 1.363 . S
C984 H961 0.950 . S
C984 C983 1.397 . S
C984 C985 1.334 . S
C985 H962 0.950 . S
C985 C984 1.334 . S
C985 C986 1.287 . S
C986 C985 1.287 . S
C986 C987 1.524 . S
C986 H1005 0.913 . S
C987 H963 0.950 . S
C987 C986 1.524 . S
C987 C988 1.415 . S
C988 H964 0.950 . S
C988 C983 1.363 . S
C988 C987 1.415 . S
C989 H965 0.951 . S
C989 C990 1.366 . S
C989 C991 1.388 . S
C990 C989 1.366 . S
C990 C994 1.385 . S
C991 H966 0.951 . S
C991 C989 1.388 . S
C991 C992 1.366 . S
C992 C991 1.366 . S
C992 C993 1.414 . S
C992 C995 1.499 . S
C993 H967 0.950 . S
C993 C992 1.414 . S
C993 C994 1.374 . S
C994 H968 0.950 . S
C994 C990 1.385 . S
C994 C993 1.374 . S
C995 C992 1.499 . S
C995 C996 1.373 1_556 S
C995 C997 1.389 . S
C996 H969 0.950 . S
C996 C982 1.377 . S
C996 C995 1.373 1_554 S
C997 C981 1.377 . S
C997 C995 1.389 . S
C997 C998 1.524 . S
C998 C997 1.524 . S
C998 C999 1.397 . S
C998 C1003 1.363 . S
C999 H970 0.950 . S
C999 C998 1.397 . S
C999 C1000 1.334 . S
C1000 H971 0.950 . S
C1000 C999 1.334 . S
C1000 C1001 1.287 . S
C1001 C1000 1.287 . S
C1001 C1002 1.524 . S
C1001 H1004 0.999 . S
C1002 H972 0.950 . S
C1002 C1001 1.524 . S
C1002 C1003 1.415 . S
C1003 H973 0.950 . S
C1003 C998 1.363 . S
C1003 C1002 1.415 . S
H1004 C1001 0.999 . S
H1005 C986 0.913 . S
H1006 C1024 0.951 . S
H1007 C1026 0.951 . S
H1008 C1028 0.950 . S
H1009 C1029 0.950 . S
H1010 C1031 0.950 . S
H1011 C1034 0.950 . S
H1012 C1035 0.950 . S
H1013 C1037 0.950 . S
H1014 C1038 0.950 . S
H1015 C1039 0.951 1_554 S
H1016 C1041 0.951 1_554 S
H1017 C1043 0.950 . S
H1018 C1044 0.950 . S
H1019 C1046 0.950 . S
H1020 C1049 0.950 . S
H1021 C1050 0.950 . S
H1022 C1052 0.950 . S
H1023 C1053 0.950 . S
C1024 H1006 0.951 . S
C1024 C1025 1.366 1_556 S
C1024 C1026 1.388 . S
C1025 C1024 1.366 1_554 S
C1025 C1029 1.385 . S
C1026 H1007 0.951 . S
C1026 C1024 1.388 . S
C1026 C1027 1.359 1_556 S
C1027 C1026 1.359 1_554 S
C1027 C1028 1.422 . S
C1027 C1030 1.497 1_554 S
C1028 H1008 0.950 . S
C1028 C1027 1.422 . S
C1028 C1029 1.374 . S
C1029 H1009 0.950 . S
C1029 C1025 1.385 . S
C1029 C1028 1.374 . S
C1030 C1027 1.497 1_556 S
C1030 C1031 1.391 . S
C1030 C1032 1.377 1_556 S
C1031 H1010 0.950 . S
C1031 C1030 1.391 . S
C1031 C1047 1.377 . S
C1032 C1030 1.377 1_554 S
C1032 C1033 1.524 . S
C1032 C1046 1.377 . S
C1033 C1032 1.524 . S
C1033 C1034 1.397 . S
C1033 C1038 1.363 . S
C1034 H1011 0.950 . S
C1034 C1033 1.397 . S
C1034 C1035 1.334 . S
C1035 H1012 0.950 . S
C1035 C1034 1.334 . S
C1035 C1036 1.287 . S
C1036 C1035 1.287 . S
C1036 C1037 1.524 . S
C1036 H1055 0.913 . S
C1037 H1013 0.950 . S
C1037 C1036 1.524 . S
C1037 C1038 1.415 . S
C1038 H1014 0.950 . S
C1038 C1033 1.363 . S
C1038 C1037 1.415 . S
C1039 H1015 0.951 1_556 S
C1039 C1040 1.366 . S
C1039 C1041 1.388 . S
C1040 C1039 1.366 . S
C1040 C1044 1.385 . S
C1041 H1016 0.951 1_556 S
C1041 C1039 1.388 . S
C1041 C1042 1.366 . S
C1042 C1041 1.366 . S
C1042 C1043 1.414 . S
C1042 C1045 1.499 . S
C1043 H1017 0.950 . S
C1043 C1042 1.414 . S
C1043 C1044 1.374 . S
C1044 H1018 0.950 . S
C1044 C1040 1.385 . S
C1044 C1043 1.374 . S
C1045 C1042 1.499 . S
C1045 C1046 1.373 1_556 S
C1045 C1047 1.389 . S
C1046 H1019 0.950 . S
C1046 C1032 1.377 . S
C1046 C1045 1.373 1_554 S
C1047 C1031 1.377 . S
C1047 C1045 1.389 . S
C1047 C1048 1.524 . S
C1048 C1047 1.524 . S
C1048 C1049 1.397 . S
C1048 C1053 1.363 . S
C1049 H1020 0.950 . S
C1049 C1048 1.397 . S
C1049 C1050 1.334 . S
C1050 H1021 0.950 . S
C1050 C1049 1.334 . S
C1050 C1051 1.287 . S
C1051 C1050 1.287 . S
C1051 C1052 1.524 . S
C1051 H1054 0.999 . S
C1052 H1022 0.950 . S
C1052 C1051 1.524 . S
C1052 C1053 1.415 . S
C1053 H1023 0.950 . S
C1053 C1048 1.363 . S
C1053 C1052 1.415 . S
H1054 C1051 0.999 . S
H1055 C1036 0.913 . S
H1056 C1074 0.951 . S
H1057 C1076 0.951 . S
H1058 C1078 0.950 . S
H1059 C1079 0.950 . S
H1060 C1081 0.950 . S
H1061 C1084 0.950 . S
H1062 C1085 0.950 . S
H1063 C1087 0.950 . S
H1064 C1088 0.950 . S
H1065 C1089 0.951 . S
H1066 C1091 0.951 . S
H1067 C1093 0.950 . S
H1068 C1094 0.952 1_455 S
H1069 C1096 0.950 . S
H1070 C1099 0.950 . S
H1071 C1100 0.950 . S
H1072 C1102 0.950 . S
H1073 C1103 0.950 . S
C1074 H1056 0.951 . S
C1074 C1075 1.366 . S
C1074 C1076 1.388 . S
C1075 C1074 1.366 . S
C1075 C1079 1.385 . S
C1076 H1057 0.951 . S
C1076 C1074 1.388 . S
C1076 C1077 1.366 . S
C1077 C1076 1.366 . S
C1077 C1078 1.414 . S
C1077 C1080 1.499 . S
C1078 H1058 0.950 . S
C1078 C1077 1.414 . S
C1078 C1079 1.374 . S
C1079 H1059 0.950 . S
C1079 C1075 1.385 . S
C1079 C1078 1.374 . S
C1080 C1077 1.499 . S
C1080 C1081 1.373 . S
C1080 C1082 1.389 . S
C1081 H1060 0.950 . S
C1081 C1080 1.373 . S
C1081 C1097 1.377 . S
C1082 C1080 1.389 . S
C1082 C1083 1.524 . S
C1082 C1096 1.377 . S
C1083 C1082 1.524 . S
C1083 C1084 1.397 . S
C1083 C1088 1.363 . S
C1084 H1061 0.950 . S
C1084 C1083 1.397 . S
C1084 C1085 1.334 . S
C1085 H1062 0.950 . S
C1085 C1084 1.334 . S
C1085 C1086 1.287 . S
C1086 C1085 1.287 . S
C1086 C1087 1.524 . S
C1086 H1105 0.913 . S
C1087 H1063 0.950 . S
C1087 C1086 1.524 . S
C1087 C1088 1.415 . S
C1088 H1064 0.950 . S
C1088 C1083 1.363 . S
C1088 C1087 1.415 . S
C1089 H1065 0.951 . S
C1089 C1090 1.366 . S
C1089 C1091 1.388 1_455 S
C1090 C1089 1.366 . S
C1090 C1094 1.385 1_455 S
C1091 H1066 0.951 . S
C1091 C1089 1.388 1_655 S
C1091 C1092 1.366 . S
C1092 C1091 1.366 . S
C1092 C1093 1.414 . S
C1092 C1095 1.499 . S
C1093 H1067 0.950 . S
C1093 C1092 1.414 . S
C1093 C1094 1.374 . S
C1094 H1068 0.952 1_655 S
C1094 C1090 1.385 1_655 S
C1094 C1093 1.374 . S
C1095 C1092 1.499 . S
C1095 C1096 1.373 . S
C1095 C1097 1.389 . S
C1096 H1069 0.950 . S
C1096 C1082 1.377 . S
C1096 C1095 1.373 . S
C1097 C1081 1.377 . S
C1097 C1095 1.389 . S
C1097 C1098 1.524 . S
C1098 C1097 1.524 . S
C1098 C1099 1.397 . S
C1098 C1103 1.363 . S
C1099 H1070 0.950 . S
C1099 C1098 1.397 . S
C1099 C1100 1.334 . S
C1100 H1071 0.950 . S
C1100 C1099 1.334 . S
C1100 C1101 1.287 . S
C1101 C1100 1.287 . S
C1101 C1102 1.524 . S
C1101 H1104 0.999 . S
C1102 H1072 0.950 . S
C1102 C1101 1.524 . S
C1102 C1103 1.415 . S
C1103 H1073 0.950 . S
C1103 C1098 1.363 . S
C1103 C1102 1.415 . S
H1104 C1101 0.999 . S
H1105 C1086 0.913 . S
H1106 C1124 0.951 . S
H1107 C1126 0.951 . S
H1108 C1128 0.950 . S
H1109 C1129 0.950 . S
H1110 C1131 0.950 . S
H1111 C1134 0.950 . S
H1112 C1135 0.950 . S
H1113 C1137 0.950 1_565 S
H1114 C1138 0.955 . S
H1115 C1139 0.951 . S
H1116 C1141 0.951 . S
H1117 C1143 0.950 . S
H1118 C1144 0.950 . S
H1119 C1146 0.950 . S
H1120 C1149 0.950 . S
H1121 C1150 0.950 . S
H1122 C1152 0.950 . S
H1123 C1153 0.950 . S
C1124 H1106 0.951 . S
C1124 C1125 1.366 . S
C1124 C1126 1.388 . S
C1125 C1124 1.366 . S
C1125 C1129 1.385 . S
C1126 H1107 0.951 . S
C1126 C1124 1.388 . S
C1126 C1127 1.366 . S
C1127 C1126 1.366 . S
C1127 C1128 1.414 . S
C1127 C1130 1.499 . S
C1128 H1108 0.950 . S
C1128 C1127 1.414 . S
C1128 C1129 1.374 . S
C1129 H1109 0.950 . S
C1129 C1125 1.385 . S
C1129 C1128 1.374 . S
C1130 C1127 1.499 . S
C1130 C1131 1.373 . S
C1130 C1132 1.389 . S
C1131 H1110 0.950 . S
C1131 C1130 1.373 . S
C1131 C1147 1.377 . S
C1132 C1130 1.389 . S
C1132 C1133 1.524 . S
C1132 C1146 1.377 . S
C1133 C1132 1.524 . S
C1133 C1134 1.397 . S
C1133 C1138 1.363 . S
C1134 H1111 0.950 . S
C1134 C1133 1.397 . S
C1134 C1135 1.334 . S
C1135 H1112 0.950 . S
C1135 C1134 1.334 . S
C1135 C1136 1.287 . S
C1136 C1135 1.287 . S
C1136 C1137 1.524 . S
C1136 H1155 0.913 . S
C1137 H1113 0.950 1_545 S
C1137 C1136 1.524 . S
C1137 C1138 1.415 . S
C1138 H1114 0.955 . S
C1138 C1133 1.363 . S
C1138 C1137 1.415 . S
C1139 H1115 0.951 . S
C1139 C1140 1.366 . S
C1139 C1141 1.388 1_565 S
C1140 C1139 1.366 . S
C1140 C1144 1.385 . S
C1141 H1116 0.951 . S
C1141 C1139 1.388 1_545 S
C1141 C1142 1.366 1_545 S
C1142 C1141 1.366 1_565 S
C1142 C1143 1.414 . S
C1142 C1145 1.499 1_565 S
C1143 H1117 0.950 . S
C1143 C1142 1.414 . S
C1143 C1144 1.374 . S
C1144 H1118 0.950 . S
C1144 C1140 1.385 . S
C1144 C1143 1.374 . S
C1145 C1142 1.499 1_545 S
C1145 C1146 1.373 . S
C1145 C1147 1.389 . S
C1146 H1119 0.950 . S
C1146 C1132 1.377 . S
C1146 C1145 1.373 . S
C1147 C1131 1.377 . S
C1147 C1145 1.389 . S
C1147 C1148 1.524 . S
C1148 C1147 1.524 . S
C1148 C1149 1.397 . S
C1148 C1153 1.363 . S
C1149 H1120 0.950 . S
C1149 C1148 1.397 . S
C1149 C1150 1.334 . S
C1150 H1121 0.950 . S
C1150 C1149 1.334 . S
C1150 C1151 1.287 . S
C1151 C1150 1.287 . S
C1151 C1152 1.524 . S
C1151 H1154 0.999 . S
C1152 H1122 0.950 . S
C1152 C1151 1.524 . S
C1152 C1153 1.415 . S
C1153 H1123 0.950 . S
C1153 C1148 1.363 . S
C1153 C1152 1.415 . S
H1154 C1151 0.999 . S
H1155 C1136 0.913 . S
H1156 C1174 0.951 . S
H1157 C1176 0.951 . S
H1158 C1178 0.950 1_655 S
H1159 C1179 0.950 . S
H1160 C1181 0.950 . S
H1161 C1184 0.950 . S
H1162 C1185 0.950 . S
H1163 C1187 0.950 . S
H1164 C1188 0.950 . S
H1165 C1189 0.951 . S
H1166 C1191 0.951 . S
H1167 C1193 0.950 . S
H1168 C1194 0.950 1_565 S
H1169 C1196 0.950 . S
H1170 C1199 0.950 . S
H1171 C1200 0.950 . S
H1172 C1202 0.950 . S
H1173 C1203 0.950 . S
C1174 H1156 0.951 . S
C1174 C1175 1.366 . S
C1174 C1176 1.388 . S
C1175 C1174 1.366 . S
C1175 C1179 1.385 . S
C1176 H1157 0.951 . S
C1176 C1174 1.388 . S
C1176 C1177 1.366 . S
C1177 C1176 1.366 . S
C1177 C1178 1.414 . S
C1177 C1180 1.499 1_455 S
C1178 H1158 0.950 1_455 S
C1178 C1177 1.414 . S
C1178 C1179 1.374 . S
C1179 H1159 0.950 . S
C1179 C1175 1.385 . S
C1179 C1178 1.374 . S
C1180 C1177 1.499 1_655 S
C1180 C1181 1.373 . S
C1180 C1182 1.389 . S
C1181 H1160 0.950 . S
C1181 C1180 1.373 . S
C1181 C1197 1.377 . S
C1182 C1180 1.389 . S
C1182 C1183 1.535 . S
C1182 C1196 1.377 . S
C1183 C1182 1.535 . S
C1183 C1184 1.411 . S
C1183 C1188 1.342 1_655 S
C1184 H1161 0.950 . S
C1184 C1183 1.411 . S
C1184 C1185 1.334 1_655 S
C1185 H1162 0.950 . S
C1185 C1184 1.334 1_455 S
C1185 C1186 1.287 . S
C1186 C1185 1.287 . S
C1186 C1187 1.524 . S
C1186 H1205 0.913 . S
C1187 H1163 0.950 . S
C1187 C1186 1.524 . S
C1187 C1188 1.415 . S
C1188 H1164 0.950 . S
C1188 C1183 1.342 1_455 S
C1188 C1187 1.415 . S
C1189 H1165 0.951 . S
C1189 C1190 1.356 1_545 S
C1189 C1191 1.388 . S
C1190 C1189 1.356 1_565 S
C1190 C1194 1.388 1_565 S
C1191 H1166 0.951 . S
C1191 C1189 1.388 . S
C1191 C1192 1.366 . S
C1192 C1191 1.366 . S
C1192 C1193 1.414 . S
C1192 C1195 1.499 . S
C1193 H1167 0.950 . S
C1193 C1192 1.414 . S
C1193 C1194 1.374 . S
C1194 H1168 0.950 1_545 S
C1194 C1190 1.388 1_545 S
C1194 C1193 1.374 . S
C1195 C1192 1.499 . S
C1195 C1196 1.373 . S
C1195 C1197 1.389 . S
C1196 H1169 0.950 . S
C1196 C1182 1.377 . S
C1196 C1195 1.373 . S
C1197 C1181 1.377 . S
C1197 C1195 1.389 . S
C1197 C1198 1.524 . S
C1198 C1197 1.524 . S
C1198 C1199 1.397 . S
C1198 C1203 1.363 . S
C1199 H1170 0.950 . S
C1199 C1198 1.397 . S
C1199 C1200 1.334 . S
C1200 H1171 0.950 . S
C1200 C1199 1.334 . S
C1200 C1201 1.287 . S
C1201 C1200 1.287 . S
C1201 C1202 1.524 . S
C1201 H1204 0.999 . S
C1202 H1172 0.950 . S
C1202 C1201 1.524 . S
C1202 C1203 1.415 . S
C1203 H1173 0.950 . S
C1203 C1198 1.363 . S
C1203 C1202 1.415 . S
H1204 C1201 0.999 . S
H1205 C1186 0.913 . S
H1206 C1224 0.951 . S
H1207 C1226 0.951 . S
H1208 C1228 0.950 . S
H1209 C1229 0.950 . S
H1210 C1231 0.950 . S
H1211 C1234 0.950 . S
H1212 C1235 0.950 . S
H1213 C1237 0.950 . S
H1214 C1238 0.950 . S
H1215 C1239 0.951 . S
H1216 C1241 0.951 . S
H1217 C1243 0.950 . S
H1218 C1244 0.950 . S
H1219 C1246 0.950 . S
H1220 C1249 0.950 . S
H1221 C1250 0.950 . S
H1222 C1252 0.950 . S
H1223 C1253 0.950 . S
C1224 H1206 0.951 . S
C1224 C1225 1.366 . S
C1224 C1226 1.388 . S
C1225 C1224 1.366 . S
C1225 C1229 1.385 . S
C1226 H1207 0.951 . S
C1226 C1224 1.388 . S
C1226 C1227 1.366 . S
C1227 C1226 1.366 . S
C1227 C1228 1.414 . S
C1227 C1230 1.499 . S
C1228 H1208 0.950 . S
C1228 C1227 1.414 . S
C1228 C1229 1.374 . S
C1229 H1209 0.950 . S
C1229 C1225 1.385 . S
C1229 C1228 1.374 . S
C1230 C1227 1.499 . S
C1230 C1231 1.373 . S
C1230 C1232 1.389 . S
C1231 H1210 0.950 . S
C1231 C1230 1.373 . S
C1231 C1247 1.377 . S
C1232 C1230 1.389 . S
C1232 C1233 1.524 . S
C1232 C1246 1.377 . S
C1233 C1232 1.524 . S
C1233 C1234 1.397 . S
C1233 C1238 1.363 . S
C1234 H1211 0.950 . S
C1234 C1233 1.397 . S
C1234 C1235 1.334 . S
C1235 H1212 0.950 . S
C1235 C1234 1.334 . S
C1235 C1236 1.287 . S
C1236 C1235 1.287 . S
C1236 C1237 1.524 . S
C1236 H1255 0.913 . S
C1237 H1213 0.950 . S
C1237 C1236 1.524 . S
C1237 C1238 1.415 . S
C1238 H1214 0.950 . S
C1238 C1233 1.363 . S
C1238 C1237 1.415 . S
C1239 H1215 0.951 . S
C1239 C1240 1.366 . S
C1239 C1241 1.388 . S
C1240 C1239 1.366 . S
C1240 C1244 1.385 . S
C1241 H1216 0.951 . S
C1241 C1239 1.388 . S
C1241 C1242 1.366 . S
C1242 C1241 1.366 . S
C1242 C1243 1.414 . S
C1242 C1245 1.499 . S
C1243 H1217 0.950 . S
C1243 C1242 1.414 . S
C1243 C1244 1.374 . S
C1244 H1218 0.950 . S
C1244 C1240 1.385 . S
C1244 C1243 1.374 . S
C1245 C1242 1.499 . S
C1245 C1246 1.373 . S
C1245 C1247 1.389 . S
C1246 H1219 0.950 . S
C1246 C1232 1.377 . S
C1246 C1245 1.373 . S
C1247 C1231 1.377 . S
C1247 C1245 1.389 . S
C1247 C1248 1.524 . S
C1248 C1247 1.524 . S
C1248 C1249 1.397 . S
C1248 C1253 1.363 . S
C1249 H1220 0.950 . S
C1249 C1248 1.397 . S
C1249 C1250 1.334 . S
C1250 H1221 0.950 . S
C1250 C1249 1.334 . S
C1250 C1251 1.287 . S
C1251 C1250 1.287 . S
C1251 C1252 1.524 . S
C1251 H1254 0.999 . S
C1252 H1222 0.950 . S
C1252 C1251 1.524 . S
C1252 C1253 1.415 . S
C1253 H1223 0.950 . S
C1253 C1248 1.363 . S
C1253 C1252 1.415 . S
H1254 C1251 0.999 . S
H1255 C1236 0.913 . S
H1256 C1274 0.951 . S
H1257 C1276 0.951 . S
H1258 C1278 0.950 . S
H1259 C1279 0.950 . S
H1260 C1281 0.950 . S
H1261 C1284 0.950 . S
H1262 C1285 0.950 . S
H1263 C1287 0.950 . S
H1264 C1288 0.950 . S
H1265 C1289 0.951 . S
H1266 C1291 0.951 . S
H1267 C1293 0.950 . S
H1268 C1294 0.950 . S
H1269 C1296 0.950 . S
H1270 C1299 0.950 . S
H1271 C1300 0.950 . S
H1272 C1302 0.950 . S
H1273 C1303 0.950 . S
C1274 H1256 0.951 . S
C1274 C1275 1.366 . S
C1274 C1276 1.388 . S
C1275 C1274 1.366 . S
C1275 C1279 1.385 . S
C1276 H1257 0.951 . S
C1276 C1274 1.388 . S
C1276 C1277 1.366 . S
C1277 C1276 1.366 . S
C1277 C1278 1.414 . S
C1277 C1280 1.499 . S
C1278 H1258 0.950 . S
C1278 C1277 1.414 . S
C1278 C1279 1.374 . S
C1279 H1259 0.950 . S
C1279 C1275 1.385 . S
C1279 C1278 1.374 . S
C1280 C1277 1.499 . S
C1280 C1281 1.373 . S
C1280 C1282 1.389 . S
C1281 H1260 0.950 . S
C1281 C1280 1.373 . S
C1281 C1297 1.377 . S
C1282 C1280 1.389 . S
C1282 C1283 1.524 . S
C1282 C1296 1.377 . S
C1283 C1282 1.524 . S
C1283 C1284 1.397 . S
C1283 C1288 1.363 . S
C1284 H1261 0.950 . S
C1284 C1283 1.397 . S
C1284 C1285 1.334 . S
C1285 H1262 0.950 . S
C1285 C1284 1.334 . S
C1285 C1286 1.287 . S
C1286 C1285 1.287 . S
C1286 C1287 1.524 . S
C1286 H1305 0.913 . S
C1287 H1263 0.950 . S
C1287 C1286 1.524 . S
C1287 C1288 1.415 . S
C1288 H1264 0.950 . S
C1288 C1283 1.363 . S
C1288 C1287 1.415 . S
C1289 H1265 0.951 . S
C1289 C1290 1.366 . S
C1289 C1291 1.388 . S
C1290 C1289 1.366 . S
C1290 C1294 1.385 . S
C1291 H1266 0.951 . S
C1291 C1289 1.388 . S
C1291 C1292 1.366 . S
C1292 C1291 1.366 . S
C1292 C1293 1.414 . S
C1292 C1295 1.499 . S
C1293 H1267 0.950 . S
C1293 C1292 1.414 . S
C1293 C1294 1.374 . S
C1294 H1268 0.950 . S
C1294 C1290 1.385 . S
C1294 C1293 1.374 . S
C1295 C1292 1.499 . S
C1295 C1296 1.373 . S
C1295 C1297 1.389 . S
C1296 H1269 0.950 . S
C1296 C1282 1.377 . S
C1296 C1295 1.373 . S
C1297 C1281 1.377 . S
C1297 C1295 1.389 . S
C1297 C1298 1.524 . S
C1298 C1297 1.524 . S
C1298 C1299 1.397 . S
C1298 C1303 1.363 . S
C1299 H1270 0.950 . S
C1299 C1298 1.397 . S
C1299 C1300 1.334 . S
C1300 H1271 0.950 . S
C1300 C1299 1.334 . S
C1300 C1301 1.287 . S
C1301 C1300 1.287 . S
C1301 C1302 1.524 . S
C1301 H1304 0.999 . S
C1302 H1272 0.950 . S
C1302 C1301 1.524 . S
C1302 C1303 1.415 . S
C1303 H1273 0.950 . S
C1303 C1298 1.363 . S
C1303 C1302 1.415 . S
H1304 C1301 0.999 . S
H1305 C1286 0.913 . S
H1306 C1324 0.951 . S
H1307 C1326 0.951 . S
H1308 C1328 0.950 . S
H1309 C1329 0.950 . S
H1310 C1331 0.950 . S
H1311 C1334 0.950 . S
H1312 C1335 0.950 . S
H1313 C1337 0.950 . S
H1314 C1338 0.950 . S
H1315 C1339 0.951 . S
H1316 C1341 0.951 . S
H1317 C1343 0.950 . S
H1318 C1344 0.950 . S
H1319 C1346 0.950 . S
H1320 C1349 0.950 . S
H1321 C1350 0.950 . S
H1322 C1352 0.950 . S
H1323 C1353 0.950 . S
C1324 H1306 0.951 . S
C1324 C1325 1.366 . S
C1324 C1326 1.388 . S
C1325 C1324 1.366 . S
C1325 C1329 1.385 . S
C1326 H1307 0.951 . S
C1326 C1324 1.388 . S
C1326 C1327 1.366 . S
C1327 C1326 1.366 . S
C1327 C1328 1.414 . S
C1327 C1330 1.499 . S
C1328 H1308 0.950 . S
C1328 C1327 1.414 . S
C1328 C1329 1.374 . S
C1329 H1309 0.950 . S
C1329 C1325 1.385 . S
C1329 C1328 1.374 . S
C1330 C1327 1.499 . S
C1330 C1331 1.373 . S
C1330 C1332 1.389 . S
C1331 H1310 0.950 . S
C1331 C1330 1.373 . S
C1331 C1347 1.377 . S
C1332 C1330 1.389 . S
C1332 C1333 1.524 . S
C1332 C1346 1.377 . S
C1333 C1332 1.524 . S
C1333 C1334 1.397 . S
C1333 C1338 1.363 . S
C1334 H1311 0.950 . S
C1334 C1333 1.397 . S
C1334 C1335 1.334 . S
C1335 H1312 0.950 . S
C1335 C1334 1.334 . S
C1335 C1336 1.287 . S
C1336 C1335 1.287 . S
C1336 C1337 1.524 . S
C1336 H1355 0.913 . S
C1337 H1313 0.950 . S
C1337 C1336 1.524 . S
C1337 C1338 1.415 . S
C1338 H1314 0.950 . S
C1338 C1333 1.363 . S
C1338 C1337 1.415 . S
C1339 H1315 0.951 . S
C1339 C1340 1.366 . S
C1339 C1341 1.388 . S
C1340 C1339 1.366 . S
C1340 C1344 1.385 . S
C1341 H1316 0.951 . S
C1341 C1339 1.388 . S
C1341 C1342 1.366 . S
C1342 C1341 1.366 . S
C1342 C1343 1.414 . S
C1342 C1345 1.499 . S
C1343 H1317 0.950 . S
C1343 C1342 1.414 . S
C1343 C1344 1.374 . S
C1344 H1318 0.950 . S
C1344 C1340 1.385 . S
C1344 C1343 1.374 . S
C1345 C1342 1.499 . S
C1345 C1346 1.373 . S
C1345 C1347 1.389 . S
C1346 H1319 0.950 . S
C1346 C1332 1.377 . S
C1346 C1345 1.373 . S
C1347 C1331 1.377 . S
C1347 C1345 1.389 . S
C1347 C1348 1.524 . S
C1348 C1347 1.524 . S
C1348 C1349 1.397 . S
C1348 C1353 1.363 . S
C1349 H1320 0.950 . S
C1349 C1348 1.397 . S
C1349 C1350 1.334 . S
C1350 H1321 0.950 . S
C1350 C1349 1.334 . S
C1350 C1351 1.287 . S
C1351 C1350 1.287 . S
C1351 C1352 1.524 . S
C1351 H1354 0.999 . S
C1352 H1322 0.950 . S
C1352 C1351 1.524 . S
C1352 C1353 1.415 . S
C1353 H1323 0.950 . S
C1353 C1348 1.363 . S
C1353 C1352 1.415 . S
H1354 C1351 0.999 . S
H1355 C1336 0.913 . S
H1356 C1374 0.951 . S
H1357 C1376 0.951 . S
H1358 C1378 0.950 . S
H1359 C1379 0.950 . S
H1360 C1381 0.950 . S
H1361 C1384 0.950 . S
H1362 C1385 0.950 . S
H1363 C1387 0.950 . S
H1364 C1388 0.950 . S
H1365 C1389 0.951 . S
H1366 C1391 0.951 . S
H1367 C1393 0.950 . S
H1368 C1394 0.950 . S
H1369 C1396 0.950 . S
H1370 C1399 0.950 . S
H1371 C1400 0.950 . S
H1372 C1402 0.950 . S
H1373 C1403 0.950 . S
C1374 H1356 0.951 . S
C1374 C1375 1.366 . S
C1374 C1376 1.388 . S
C1375 C1374 1.366 . S
C1375 C1379 1.385 . S
C1376 H1357 0.951 . S
C1376 C1374 1.388 . S
C1376 C1377 1.366 . S
C1377 C1376 1.366 . S
C1377 C1378 1.414 . S
C1377 C1380 1.499 . S
C1378 H1358 0.950 . S
C1378 C1377 1.414 . S
C1378 C1379 1.374 . S
C1379 H1359 0.950 . S
C1379 C1375 1.385 . S
C1379 C1378 1.374 . S
C1380 C1377 1.499 . S
C1380 C1381 1.373 . S
C1380 C1382 1.389 . S
C1381 H1360 0.950 . S
C1381 C1380 1.373 . S
C1381 C1397 1.377 . S
C1382 C1380 1.389 . S
C1382 C1383 1.524 . S
C1382 C1396 1.377 . S
C1383 C1382 1.524 . S
C1383 C1384 1.397 . S
C1383 C1388 1.363 . S
C1384 H1361 0.950 . S
C1384 C1383 1.397 . S
C1384 C1385 1.334 . S
C1385 H1362 0.950 . S
C1385 C1384 1.334 . S
C1385 C1386 1.287 . S
C1386 C1385 1.287 . S
C1386 C1387 1.524 . S
C1386 H1405 0.913 . S
C1387 H1363 0.950 . S
C1387 C1386 1.524 . S
C1387 C1388 1.415 . S
C1388 H1364 0.950 . S
C1388 C1383 1.363 . S
C1388 C1387 1.415 . S
C1389 H1365 0.951 . S
C1389 C1390 1.366 . S
C1389 C1391 1.388 . S
C1390 C1389 1.366 . S
C1390 C1394 1.385 . S
C1391 H1366 0.951 . S
C1391 C1389 1.388 . S
C1391 C1392 1.366 . S
C1392 C1391 1.366 . S
C1392 C1393 1.414 . S
C1392 C1395 1.499 . S
C1393 H1367 0.950 . S
C1393 C1392 1.414 . S
C1393 C1394 1.374 . S
C1394 H1368 0.950 . S
C1394 C1390 1.385 . S
C1394 C1393 1.374 . S
C1395 C1392 1.499 . S
C1395 C1396 1.373 . S
C1395 C1397 1.389 . S
C1396 H1369 0.950 . S
C1396 C1382 1.377 . S
C1396 C1395 1.373 . S
C1397 C1381 1.377 . S
C1397 C1395 1.389 . S
C1397 C1398 1.524 . S
C1398 C1397 1.524 . S
C1398 C1399 1.397 . S
C1398 C1403 1.363 . S
C1399 H1370 0.950 . S
C1399 C1398 1.397 . S
C1399 C1400 1.334 . S
C1400 H1371 0.950 . S
C1400 C1399 1.334 . S
C1400 C1401 1.287 . S
C1401 C1400 1.287 . S
C1401 C1402 1.524 . S
C1401 H1404 0.999 . S
C1402 H1372 0.950 . S
C1402 C1401 1.524 . S
C1402 C1403 1.415 . S
C1403 H1373 0.950 . S
C1403 C1398 1.363 . S
C1403 C1402 1.415 . S
H1404 C1401 0.999 . S
H1405 C1386 0.913 . S
H1406 C1424 0.951 . S
H1407 C1426 0.951 . S
H1408 C1428 0.950 . S
H1409 C1429 0.950 . S
H1410 C1431 0.950 . S
H1411 C1434 0.950 . S
H1412 C1435 0.950 . S
H1413 C1437 0.950 . S
H1414 C1438 0.950 . S
H1415 C1439 0.951 . S
H1416 C1441 0.951 . S
H1417 C1443 0.950 . S
H1418 C1444 0.950 . S
H1419 C1446 0.950 . S
H1420 C1449 0.950 . S
H1421 C1450 0.950 . S
H1422 C1452 0.950 . S
H1423 C1453 0.950 . S
C1424 H1406 0.951 . S
C1424 C1425 1.366 . S
C1424 C1426 1.388 . S
C1425 C1424 1.366 . S
C1425 C1429 1.385 . S
C1426 H1407 0.951 . S
C1426 C1424 1.388 . S
C1426 C1427 1.366 . S
C1427 C1426 1.366 . S
C1427 C1428 1.414 . S
C1427 C1430 1.499 . S
C1428 H1408 0.950 . S
C1428 C1427 1.414 . S
C1428 C1429 1.374 . S
C1429 H1409 0.950 . S
C1429 C1425 1.385 . S
C1429 C1428 1.374 . S
C1430 C1427 1.499 . S
C1430 C1431 1.373 . S
C1430 C1432 1.389 . S
C1431 H1410 0.950 . S
C1431 C1430 1.373 . S
C1431 C1447 1.377 . S
C1432 C1430 1.389 . S
C1432 C1433 1.524 . S
C1432 C1446 1.377 . S
C1433 C1432 1.524 . S
C1433 C1434 1.397 . S
C1433 C1438 1.363 . S
C1434 H1411 0.950 . S
C1434 C1433 1.397 . S
C1434 C1435 1.334 . S
C1435 H1412 0.950 . S
C1435 C1434 1.334 . S
C1435 C1436 1.287 . S
C1436 C1435 1.287 . S
C1436 C1437 1.524 . S
C1436 H1455 0.913 . S
C1437 H1413 0.950 . S
C1437 C1436 1.524 . S
C1437 C1438 1.415 . S
C1438 H1414 0.950 . S
C1438 C1433 1.363 . S
C1438 C1437 1.415 . S
C1439 H1415 0.951 . S
C1439 C1440 1.366 . S
C1439 C1441 1.388 . S
C1440 C1439 1.366 . S
C1440 C1444 1.385 . S
C1441 H1416 0.951 . S
C1441 C1439 1.388 . S
C1441 C1442 1.366 . S
C1442 C1441 1.366 . S
C1442 C1443 1.414 . S
C1442 C1445 1.499 . S
C1443 H1417 0.950 . S
C1443 C1442 1.414 . S
C1443 C1444 1.374 . S
C1444 H1418 0.950 . S
C1444 C1440 1.385 . S
C1444 C1443 1.374 . S
C1445 C1442 1.499 . S
C1445 C1446 1.373 . S
C1445 C1447 1.389 . S
C1446 H1419 0.950 . S
C1446 C1432 1.377 . S
C1446 C1445 1.373 . S
C1447 C1431 1.377 . S
C1447 C1445 1.389 . S
C1447 C1448 1.524 . S
C1448 C1447 1.524 . S
C1448 C1449 1.397 . S
C1448 C1453 1.363 . S
C1449 H1420 0.950 . S
C1449 C1448 1.397 . S
C1449 C1450 1.334 . S
C1450 H1421 0.950 . S
C1450 C1449 1.334 . S
C1450 C1451 1.287 . S
C1451 C1450 1.287 . S
C1451 C1452 1.524 . S
C1451 H1454 0.999 . S
C1452 H1422 0.950 . S
C1452 C1451 1.524 . S
C1452 C1453 1.415 . S
C1453 H1423 0.950 . S
C1453 C1448 1.363 . S
C1453 C1452 1.415 . S
H1454 C1451 0.999 . S
H1455 C1436 0.913 . S
H1456 C1474 0.951 . S
H1457 C1476 0.951 . S
H1458 C1478 0.950 . S
H1459 C1479 0.950 . S
H1460 C1481 0.950 . S
H1461 C1484 0.950 . S
H1462 C1485 0.950 . S
H1463 C1487 0.950 . S
H1464 C1488 0.950 . S
H1465 C1489 0.951 . S
H1466 C1491 0.951 . S
H1467 C1493 0.950 . S
H1468 C1494 0.950 . S
H1469 C1496 0.950 . S
H1470 C1499 0.950 . S
H1471 C1500 0.950 . S
H1472 C1502 0.950 . S
H1473 C1503 0.950 . S
C1474 H1456 0.951 . S
C1474 C1475 1.366 . S
C1474 C1476 1.388 . S
C1475 C1474 1.366 . S
C1475 C1479 1.385 . S
C1476 H1457 0.951 . S
C1476 C1474 1.388 . S
C1476 C1477 1.366 . S
C1477 C1476 1.366 . S
C1477 C1478 1.414 . S
C1477 C1480 1.499 . S
C1478 H1458 0.950 . S
C1478 C1477 1.414 . S
C1478 C1479 1.374 . S
C1479 H1459 0.950 . S
C1479 C1475 1.385 . S
C1479 C1478 1.374 . S
C1480 C1477 1.499 . S
C1480 C1481 1.373 . S
C1480 C1482 1.389 . S
C1481 H1460 0.950 . S
C1481 C1480 1.373 . S
C1481 C1497 1.377 . S
C1482 C1480 1.389 . S
C1482 C1483 1.524 . S
C1482 C1496 1.377 . S
C1483 C1482 1.524 . S
C1483 C1484 1.397 . S
C1483 C1488 1.363 . S
C1484 H1461 0.950 . S
C1484 C1483 1.397 . S
C1484 C1485 1.334 . S
C1485 H1462 0.950 . S
C1485 C1484 1.334 . S
C1485 C1486 1.287 . S
C1486 C1485 1.287 . S
C1486 C1487 1.524 . S
C1486 H1505 0.913 . S
C1487 H1463 0.950 . S
C1487 C1486 1.524 . S
C1487 C1488 1.415 . S
C1488 H1464 0.950 . S
C1488 C1483 1.363 . S
C1488 C1487 1.415 . S
C1489 H1465 0.951 . S
C1489 C1490 1.366 . S
C1489 C1491 1.388 . S
C1490 C1489 1.366 . S
C1490 C1494 1.385 . S
C1491 H1466 0.951 . S
C1491 C1489 1.388 . S
C1491 C1492 1.366 . S
C1492 C1491 1.366 . S
C1492 C1493 1.414 . S
C1492 C1495 1.499 . S
C1493 H1467 0.950 . S
C1493 C1492 1.414 . S
C1493 C1494 1.374 . S
C1494 H1468 0.950 . S
C1494 C1490 1.385 . S
C1494 C1493 1.374 . S
C1495 C1492 1.499 . S
C1495 C1496 1.373 . S
C1495 C1497 1.389 . S
C1496 H1469 0.950 . S
C1496 C1482 1.377 . S
C1496 C1495 1.373 . S
C1497 C1481 1.377 . S
C1497 C1495 1.389 . S
C1497 C1498 1.524 . S
C1498 C1497 1.524 . S
C1498 C1499 1.397 . S
C1498 C1503 1.363 . S
C1499 H1470 0.950 . S
C1499 C1498 1.397 . S
C1499 C1500 1.334 . S
C1500 H1471 0.950 . S
C1500 C1499 1.334 . S
C1500 C1501 1.287 . S
C1501 C1500 1.287 . S
C1501 C1502 1.524 . S
C1501 H1504 0.999 . S
C1502 H1472 0.950 . S
C1502 C1501 1.524 . S
C1502 C1503 1.415 . S
C1503 H1473 0.950 . S
C1503 C1498 1.363 . S
C1503 C1502 1.415 . S
H1504 C1501 0.999 . S
H1505 C1486 0.913 . S
H1506 C1524 0.951 . S
H1507 C1526 0.951 . S
H1508 C1528 0.950 . S
H1509 C1529 0.950 . S
H1510 C1531 0.950 . S
H1511 C1534 0.950 . S
H1512 C1535 0.950 . S
H1513 C1537 0.950 . S
H1514 C1538 0.950 . S
H1515 C1539 0.951 . S
H1516 C1541 0.951 . S
H1517 C1543 0.950 . S
H1518 C1544 0.950 . S
H1519 C1546 0.950 . S
H1520 C1549 0.950 . S
H1521 C1550 0.950 . S
H1522 C1552 0.950 . S
H1523 C1553 0.950 . S
C1524 H1506 0.951 . S
C1524 C1525 1.366 . S
C1524 C1526 1.388 . S
C1525 C1524 1.366 . S
C1525 C1529 1.385 . S
C1526 H1507 0.951 . S
C1526 C1524 1.388 . S
C1526 C1527 1.366 . S
C1527 C1526 1.366 . S
C1527 C1528 1.414 . S
C1527 C1530 1.499 . S
C1528 H1508 0.950 . S
C1528 C1527 1.414 . S
C1528 C1529 1.374 . S
C1529 H1509 0.950 . S
C1529 C1525 1.385 . S
C1529 C1528 1.374 . S
C1530 C1527 1.499 . S
C1530 C1531 1.373 . S
C1530 C1532 1.389 . S
C1531 H1510 0.950 . S
C1531 C1530 1.373 . S
C1531 C1547 1.377 1_565 S
C1532 C1530 1.389 . S
C1532 C1533 1.524 . S
C1532 C1546 1.377 1_565 S
C1533 C1532 1.524 . S
C1533 C1534 1.397 . S
C1533 C1538 1.363 . S
C1534 H1511 0.950 . S
C1534 C1533 1.397 . S
C1534 C1535 1.334 . S
C1535 H1512 0.950 . S
C1535 C1534 1.334 . S
C1535 C1536 1.287 . S
C1536 C1535 1.287 . S
C1536 C1537 1.524 . S
C1536 H1555 0.913 . S
C1537 H1513 0.950 . S
C1537 C1536 1.524 . S
C1537 C1538 1.415 . S
C1538 H1514 0.950 . S
C1538 C1533 1.363 . S
C1538 C1537 1.415 . S
C1539 H1515 0.951 . S
C1539 C1540 1.366 . S
C1539 C1541 1.388 . S
C1540 C1539 1.366 . S
C1540 C1544 1.385 . S
C1541 H1516 0.951 . S
C1541 C1539 1.388 . S
C1541 C1542 1.366 . S
C1542 C1541 1.366 . S
C1542 C1543 1.414 . S
C1542 C1545 1.499 . S
C1543 H1517 0.950 . S
C1543 C1542 1.414 . S
C1543 C1544 1.374 . S
C1544 H1518 0.950 . S
C1544 C1540 1.385 . S
C1544 C1543 1.374 . S
C1545 C1542 1.499 . S
C1545 C1546 1.373 . S
C1545 C1547 1.389 . S
C1546 H1519 0.950 . S
C1546 C1532 1.377 1_545 S
C1546 C1545 1.373 . S
C1547 C1531 1.377 1_545 S
C1547 C1545 1.389 . S
C1547 C1548 1.524 . S
C1548 C1547 1.524 . S
C1548 C1549 1.397 . S
C1548 C1553 1.363 . S
C1549 H1520 0.950 . S
C1549 C1548 1.397 . S
C1549 C1550 1.334 . S
C1550 H1521 0.950 . S
C1550 C1549 1.334 . S
C1550 C1551 1.287 . S
C1551 C1550 1.287 . S
C1551 C1552 1.524 . S
C1551 H1554 0.999 . S
C1552 H1522 0.950 . S
C1552 C1551 1.524 . S
C1552 C1553 1.415 . S
C1553 H1523 0.950 . S
C1553 C1548 1.363 . S
C1553 C1552 1.415 . S
H1554 C1551 0.999 . S
H1555 C1536 0.913 . S
H1556 C1574 0.951 . S
H1557 C1576 0.951 . S
H1558 C1578 0.950 . S
H1559 C1579 0.950 . S
H1560 C1581 0.950 . S
H1561 C1584 0.950 . S
H1562 C1585 0.950 . S
H1563 C1587 0.950 . S
H1564 C1588 0.950 . S
H1565 C1589 0.951 . S
H1566 C1591 0.951 . S
H1567 C1593 0.950 . S
H1568 C1594 0.950 . S
H1569 C1596 0.950 . S
H1570 C1599 0.950 . S
H1571 C1600 0.950 . S
H1572 C1602 0.950 . S
H1573 C1603 0.950 . S
C1574 H1556 0.951 . S
C1574 C1575 1.366 . S
C1574 C1576 1.388 . S
C1575 C1574 1.366 . S
C1575 C1579 1.385 . S
C1576 H1557 0.951 . S
C1576 C1574 1.388 . S
C1576 C1577 1.366 . S
C1577 C1576 1.366 . S
C1577 C1578 1.414 . S
C1577 C1580 1.499 . S
C1578 H1558 0.950 . S
C1578 C1577 1.414 . S
C1578 C1579 1.374 . S
C1579 H1559 0.950 . S
C1579 C1575 1.385 . S
C1579 C1578 1.374 . S
C1580 C1577 1.499 . S
C1580 C1581 1.373 1_655 S
C1580 C1582 1.389 1_655 S
C1581 H1560 0.950 . S
C1581 C1580 1.373 1_455 S
C1581 C1597 1.377 . S
C1582 C1580 1.389 1_455 S
C1582 C1583 1.524 1_455 S
C1582 C1596 1.377 . S
C1583 C1582 1.524 1_655 S
C1583 C1584 1.397 . S
C1583 C1588 1.363 . S
C1584 H1561 0.950 . S
C1584 C1583 1.397 . S
C1584 C1585 1.334 . S
C1585 H1562 0.950 . S
C1585 C1584 1.334 . S
C1585 C1586 1.287 . S
C1586 C1585 1.287 . S
C1586 C1587 1.524 . S
C1586 H1605 0.913 . S
C1587 H1563 0.950 . S
C1587 C1586 1.524 . S
C1587 C1588 1.415 . S
C1588 H1564 0.950 . S
C1588 C1583 1.363 . S
C1588 C1587 1.415 . S
C1589 H1565 0.951 . S
C1589 C1590 1.366 . S
C1589 C1591 1.388 . S
C1590 C1589 1.366 . S
C1590 C1594 1.385 . S
C1591 H1566 0.951 . S
C1591 C1589 1.388 . S
C1591 C1592 1.366 . S
C1592 C1591 1.366 . S
C1592 C1593 1.414 . S
C1592 C1595 1.499 . S
C1593 H1567 0.950 . S
C1593 C1592 1.414 . S
C1593 C1594 1.374 . S
C1594 H1568 0.950 . S
C1594 C1590 1.385 . S
C1594 C1593 1.374 . S
C1595 C1592 1.499 . S
C1595 C1596 1.373 . S
C1595 C1597 1.389 . S
C1596 H1569 0.950 . S
C1596 C1582 1.377 . S
C1596 C1595 1.373 . S
C1597 C1581 1.377 . S
C1597 C1595 1.389 . S
C1597 C1598 1.524 . S
C1598 C1597 1.524 . S
C1598 C1599 1.397 . S
C1598 C1603 1.363 . S
C1599 H1570 0.950 . S
C1599 C1598 1.397 . S
C1599 C1600 1.334 . S
C1600 H1571 0.950 . S
C1600 C1599 1.334 . S
C1600 C1601 1.287 . S
C1601 C1600 1.287 . S
C1601 C1602 1.524 . S
C1601 H1604 0.999 . S
C1602 H1572 0.950 . S
C1602 C1601 1.524 . S
C1602 C1603 1.415 . S
C1603 H1573 0.950 . S
C1603 C1598 1.363 . S
C1603 C1602 1.415 . S
H1604 C1601 0.999 . S
H1605 C1586 0.913 . S
H1606 C1624 0.951 . S
H1607 C1626 0.951 . S
H1608 C1628 0.950 . S
H1609 C1629 0.950 . S
H1610 C1631 0.950 . S
H1611 C1634 0.950 . S
H1612 C1635 0.950 . S
H1613 C1637 0.950 . S
H1614 C1638 0.950 . S
H1615 C1639 0.951 . S
H1616 C1641 0.951 . S
H1617 C1643 0.950 . S
H1618 C1644 0.950 . S
H1619 C1646 0.950 . S
H1620 C1649 0.950 . S
H1621 C1650 0.950 . S
H1622 C1652 0.950 . S
H1623 C1653 0.950 . S
C1624 H1606 0.951 . S
C1624 C1625 1.366 . S
C1624 C1626 1.388 . S
C1625 C1624 1.366 . S
C1625 C1629 1.385 . S
C1626 H1607 0.951 . S
C1626 C1624 1.388 . S
C1626 C1627 1.366 . S
C1627 C1626 1.366 . S
C1627 C1628 1.414 . S
C1627 C1630 1.499 . S
C1628 H1608 0.950 . S
C1628 C1627 1.414 . S
C1628 C1629 1.374 . S
C1629 H1609 0.950 . S
C1629 C1625 1.385 . S
C1629 C1628 1.374 . S
C1630 C1627 1.499 . S
C1630 C1631 1.373 . S
C1630 C1632 1.389 . S
C1631 H1610 0.950 . S
C1631 C1630 1.373 . S
C1631 C1647 1.377 . S
C1632 C1630 1.389 . S
C1632 C1633 1.524 . S
C1632 C1646 1.377 . S
C1633 C1632 1.524 . S
C1633 C1634 1.397 . S
C1633 C1638 1.363 . S
C1634 H1611 0.950 . S
C1634 C1633 1.397 . S
C1634 C1635 1.334 . S
C1635 H1612 0.950 . S
C1635 C1634 1.334 . S
C1635 C1636 1.287 . S
C1636 C1635 1.287 . S
C1636 C1637 1.524 . S
C1636 H1655 0.913 . S
C1637 H1613 0.950 . S
C1637 C1636 1.524 . S
C1637 C1638 1.415 . S
C1638 H1614 0.950 . S
C1638 C1633 1.363 . S
C1638 C1637 1.415 . S
C1639 H1615 0.951 . S
C1639 C1640 1.366 . S
C1639 C1641 1.388 . S
C1640 C1639 1.366 . S
C1640 C1644 1.385 . S
C1641 H1616 0.951 . S
C1641 C1639 1.388 . S
C1641 C1642 1.366 . S
C1642 C1641 1.366 . S
C1642 C1643 1.414 . S
C1642 C1645 1.499 . S
C1643 H1617 0.950 . S
C1643 C1642 1.414 . S
C1643 C1644 1.374 . S
C1644 H1618 0.950 . S
C1644 C1640 1.385 . S
C1644 C1643 1.374 . S
C1645 C1642 1.499 . S
C1645 C1646 1.373 . S
C1645 C1647 1.389 . S
C1646 H1619 0.950 . S
C1646 C1632 1.377 . S
C1646 C1645 1.373 . S
C1647 C1631 1.377 . S
C1647 C1645 1.389 . S
C1647 C1648 1.524 . S
C1648 C1647 1.524 . S
C1648 C1649 1.397 . S
C1648 C1653 1.363 . S
C1649 H1620 0.950 . S
C1649 C1648 1.397 . S
C1649 C1650 1.334 . S
C1650 H1621 0.950 . S
C1650 C1649 1.334 . S
C1650 C1651 1.287 . S
C1651 C1650 1.287 . S
C1651 C1652 1.524 . S
C1651 H1654 0.999 . S
C1652 H1622 0.950 . S
C1652 C1651 1.524 . S
C1652 C1653 1.415 . S
C1653 H1623 0.950 . S
C1653 C1648 1.363 . S
C1653 C1652 1.415 . S
H1654 C1651 0.999 . S
H1655 C1636 0.913 . S
H1656 C1674 0.951 . S
H1657 C1676 0.951 . S
H1658 C1678 0.950 . S
H1659 C1679 0.950 . S
H1660 C1681 0.950 . S
H1661 C1684 0.950 . S
H1662 C1685 0.950 . S
H1663 C1687 0.950 . S
H1664 C1688 0.950 . S
H1665 C1689 0.951 . S
H1666 C1691 0.951 . S
H1667 C1693 0.950 . S
H1668 C1694 0.950 . S
H1669 C1696 0.950 . S
H1670 C1699 0.950 . S
H1671 C1700 0.950 . S
H1672 C1702 0.950 . S
H1673 C1703 0.950 . S
C1674 H1656 0.951 . S
C1674 C1675 1.366 . S
C1674 C1676 1.388 . S
C1675 C1674 1.366 . S
C1675 C1679 1.385 . S
C1676 H1657 0.951 . S
C1676 C1674 1.388 . S
C1676 C1677 1.366 . S
C1677 C1676 1.366 . S
C1677 C1678 1.414 . S
C1677 C1680 1.499 . S
C1678 H1658 0.950 . S
C1678 C1677 1.414 . S
C1678 C1679 1.374 . S
C1679 H1659 0.950 . S
C1679 C1675 1.385 . S
C1679 C1678 1.374 . S
C1680 C1677 1.499 . S
C1680 C1681 1.373 . S
C1680 C1682 1.389 . S
C1681 H1660 0.950 . S
C1681 C1680 1.373 . S
C1681 C1697 1.377 . S
C1682 C1680 1.389 . S
C1682 C1683 1.524 . S
C1682 C1696 1.377 . S
C1683 C1682 1.524 . S
C1683 C1684 1.397 . S
C1683 C1688 1.363 . S
C1684 H1661 0.950 . S
C1684 C1683 1.397 . S
C1684 C1685 1.334 . S
C1685 H1662 0.950 . S
C1685 C1684 1.334 . S
C1685 C1686 1.287 . S
C1686 C1685 1.287 . S
C1686 C1687 1.524 . S
C1686 H1705 0.913 . S
C1687 H1663 0.950 . S
C1687 C1686 1.524 . S
C1687 C1688 1.415 . S
C1688 H1664 0.950 . S
C1688 C1683 1.363 . S
C1688 C1687 1.415 . S
C1689 H1665 0.951 . S
C1689 C1690 1.366 . S
C1689 C1691 1.388 . S
C1690 C1689 1.366 . S
C1690 C1694 1.385 . S
C1691 H1666 0.951 . S
C1691 C1689 1.388 . S
C1691 C1692 1.366 . S
C1692 C1691 1.366 . S
C1692 C1693 1.414 . S
C1692 C1695 1.499 . S
C1693 H1667 0.950 . S
C1693 C1692 1.414 . S
C1693 C1694 1.374 . S
C1694 H1668 0.950 . S
C1694 C1690 1.385 . S
C1694 C1693 1.374 . S
C1695 C1692 1.499 . S
C1695 C1696 1.373 . S
C1695 C1697 1.389 . S
C1696 H1669 0.950 . S
C1696 C1682 1.377 . S
C1696 C1695 1.373 . S
C1697 C1681 1.377 . S
C1697 C1695 1.389 . S
C1697 C1698 1.524 . S
C1698 C1697 1.524 . S
C1698 C1699 1.397 . S
C1698 C1703 1.363 . S
C1699 H1670 0.950 . S
C1699 C1698 1.397 . S
C1699 C1700 1.334 1_455 S
C1700 H1671 0.950 . S
C1700 C1699 1.334 1_655 S
C1700 C1701 1.287 . S
C1701 C1700 1.287 . S
C1701 C1702 1.524 . S
C1701 H1704 0.999 . S
C1702 H1672 0.950 . S
C1702 C1701 1.524 . S
C1702 C1703 1.415 1_655 S
C1703 H1673 0.950 . S
C1703 C1698 1.363 . S
C1703 C1702 1.415 1_455 S
H1704 C1701 0.999 . S
H1705 C1686 0.913 . S
H1706 C1724 0.951 . S
H1707 C1726 0.951 . S
H1708 C1728 0.950 . S
H1709 C1729 0.950 . S
H1710 C1731 0.950 . S
H1711 C1734 0.950 . S
H1712 C1735 0.950 . S
H1713 C1737 0.950 . S
H1714 C1738 0.950 . S
H1715 C1739 0.951 . S
H1716 C1741 0.951 . S
H1717 C1743 0.950 . S
H1718 C1744 0.950 . S
H1719 C1746 0.950 . S
H1720 C1749 0.950 . S
H1721 C1750 0.950 . S
H1722 C1752 0.950 . S
H1723 C1753 0.950 . S
C1724 H1706 0.951 . S
C1724 C1725 1.366 . S
C1724 C1726 1.388 . S
C1725 C1724 1.366 . S
C1725 C1729 1.385 . S
C1726 H1707 0.951 . S
C1726 C1724 1.388 . S
C1726 C1727 1.366 . S
C1727 C1726 1.366 . S
C1727 C1728 1.414 . S
C1727 C1730 1.499 . S
C1728 H1708 0.950 . S
C1728 C1727 1.414 . S
C1728 C1729 1.374 . S
C1729 H1709 0.950 . S
C1729 C1725 1.385 . S
C1729 C1728 1.374 . S
C1730 C1727 1.499 . S
C1730 C1731 1.373 . S
C1730 C1732 1.389 . S
C1731 H1710 0.950 . S
C1731 C1730 1.373 . S
C1731 C1747 1.377 . S
C1732 C1730 1.389 . S
C1732 C1733 1.524 . S
C1732 C1746 1.377 . S
C1733 C1732 1.524 . S
C1733 C1734 1.397 . S
C1733 C1738 1.363 . S
C1734 H1711 0.950 . S
C1734 C1733 1.397 . S
C1734 C1735 1.334 . S
C1735 H1712 0.950 . S
C1735 C1734 1.334 . S
C1735 C1736 1.287 . S
C1736 C1735 1.287 . S
C1736 C1737 1.524 . S
C1736 H1755 0.913 . S
C1737 H1713 0.950 . S
C1737 C1736 1.524 . S
C1737 C1738 1.415 . S
C1738 H1714 0.950 . S
C1738 C1733 1.363 . S
C1738 C1737 1.415 . S
C1739 H1715 0.951 . S
C1739 C1740 1.366 . S
C1739 C1741 1.388 . S
C1740 C1739 1.366 . S
C1740 C1744 1.385 . S
C1741 H1716 0.951 . S
C1741 C1739 1.388 . S
C1741 C1742 1.366 . S
C1742 C1741 1.366 . S
C1742 C1743 1.414 . S
C1742 C1745 1.499 . S
C1743 H1717 0.950 . S
C1743 C1742 1.414 . S
C1743 C1744 1.374 . S
C1744 H1718 0.950 . S
C1744 C1740 1.385 . S
C1744 C1743 1.374 . S
C1745 C1742 1.499 . S
C1745 C1746 1.373 . S
C1745 C1747 1.389 . S
C1746 H1719 0.950 . S
C1746 C1732 1.377 . S
C1746 C1745 1.373 . S
C1747 C1731 1.377 . S
C1747 C1745 1.389 . S
C1747 C1748 1.524 . S
C1748 C1747 1.524 . S
C1748 C1749 1.397 . S
C1748 C1753 1.363 . S
C1749 H1720 0.950 . S
C1749 C1748 1.397 . S
C1749 C1750 1.334 . S
C1750 H1721 0.950 . S
C1750 C1749 1.334 . S
C1750 C1751 1.287 . S
C1751 C1750 1.287 . S
C1751 C1752 1.524 . S
C1751 H1754 0.999 . S
C1752 H1722 0.950 . S
C1752 C1751 1.524 . S
C1752 C1753 1.415 . S
C1753 H1723 0.950 . S
C1753 C1748 1.363 . S
C1753 C1752 1.415 . S
H1754 C1751 0.999 . S
H1755 C1736 0.913 . S
H1756 C1774 0.951 . S
H1757 C1776 0.951 . S
H1758 C1778 0.950 . S
H1759 C1779 0.950 . S
H1760 C1781 0.950 . S
H1761 C1784 0.950 . S
H1762 C1785 0.950 . S
H1763 C1787 0.950 . S
H1764 C1788 0.950 . S
H1765 C1789 0.951 . S
H1766 C1791 0.951 . S
H1767 C1793 0.950 . S
H1768 C1794 0.950 . S
H1769 C1796 0.950 . S
H1770 C1799 0.950 . S
H1771 C1800 0.950 . S
H1772 C1802 0.950 . S
H1773 C1803 0.950 . S
C1774 H1756 0.951 . S
C1774 C1775 1.366 . S
C1774 C1776 1.388 . S
C1775 C1774 1.366 . S
C1775 C1779 1.385 . S
C1776 H1757 0.951 . S
C1776 C1774 1.388 . S
C1776 C1777 1.366 . S
C1777 C1776 1.366 . S
C1777 C1778 1.414 . S
C1777 C1780 1.499 . S
C1778 H1758 0.950 . S
C1778 C1777 1.414 . S
C1778 C1779 1.374 . S
C1779 H1759 0.950 . S
C1779 C1775 1.385 . S
C1779 C1778 1.374 . S
C1780 C1777 1.499 . S
C1780 C1781 1.373 . S
C1780 C1782 1.389 . S
C1781 H1760 0.950 . S
C1781 C1780 1.373 . S
C1781 C1797 1.377 . S
C1782 C1780 1.389 . S
C1782 C1783 1.524 . S
C1782 C1796 1.377 . S
C1783 C1782 1.524 . S
C1783 C1784 1.397 . S
C1783 C1788 1.363 . S
C1784 H1761 0.950 . S
C1784 C1783 1.397 . S
C1784 C1785 1.334 1_565 S
C1785 H1762 0.950 . S
C1785 C1784 1.334 1_545 S
C1785 C1786 1.287 1_545 S
C1786 C1785 1.287 1_565 S
C1786 C1787 1.524 . S
C1786 H1805 0.913 1_565 S
C1787 H1763 0.950 . S
C1787 C1786 1.524 . S
C1787 C1788 1.415 . S
C1788 H1764 0.950 . S
C1788 C1783 1.363 . S
C1788 C1787 1.415 . S
C1789 H1765 0.951 . S
C1789 C1790 1.366 . S
C1789 C1791 1.388 . S
C1790 C1789 1.366 . S
C1790 C1794 1.385 . S
C1791 H1766 0.951 . S
C1791 C1789 1.388 . S
C1791 C1792 1.366 . S
C1792 C1791 1.366 . S
C1792 C1793 1.414 . S
C1792 C1795 1.499 . S
C1793 H1767 0.950 . S
C1793 C1792 1.414 . S
C1793 C1794 1.374 . S
C1794 H1768 0.950 . S
C1794 C1790 1.385 . S
C1794 C1793 1.374 . S
C1795 C1792 1.499 . S
C1795 C1796 1.373 . S
C1795 C1797 1.389 . S
C1796 H1769 0.950 . S
C1796 C1782 1.377 . S
C1796 C1795 1.373 . S
C1797 C1781 1.377 . S
C1797 C1795 1.389 . S
C1797 C1798 1.524 . S
C1798 C1797 1.524 . S
C1798 C1799 1.397 . S
C1798 C1803 1.363 . S
C1799 H1770 0.950 . S
C1799 C1798 1.397 . S
C1799 C1800 1.334 . S
C1800 H1771 0.950 . S
C1800 C1799 1.334 . S
C1800 C1801 1.287 . S
C1801 C1800 1.287 . S
C1801 C1802 1.524 . S
C1801 H1804 0.999 . S
C1802 H1772 0.950 . S
C1802 C1801 1.524 . S
C1802 C1803 1.415 . S
C1803 H1773 0.950 . S
C1803 C1798 1.363 . S
C1803 C1802 1.415 . S
H1804 C1801 0.999 . S
H1805 C1786 0.913 1_545 S
H1806 C1824 0.951 . S
H1807 C1826 0.951 . S
H1808 C1828 0.950 . S
H1809 C1829 0.950 . S
H1810 C1831 0.950 . S
H1811 C1834 0.950 . S
H1812 C1835 0.950 . S
H1813 C1837 0.950 . S
H1814 C1838 0.950 . S
H1815 C1839 0.951 . S
H1816 C1841 0.951 . S
H1817 C1843 0.950 . S
H1818 C1844 0.950 . S
H1819 C1846 0.950 . S
H1820 C1849 0.950 . S
H1821 C1850 0.950 . S
H1822 C1852 0.957 . S
H1823 C1853 0.950 . S
C1824 H1806 0.951 . S
C1824 C1825 1.366 . S
C1824 C1826 1.388 . S
C1825 C1824 1.366 . S
C1825 C1829 1.385 . S
C1826 H1807 0.951 . S
C1826 C1824 1.388 . S
C1826 C1827 1.366 . S
C1827 C1826 1.366 . S
C1827 C1828 1.414 . S
C1827 C1830 1.499 . S
C1828 H1808 0.950 . S
C1828 C1827 1.414 . S
C1828 C1829 1.374 . S
C1829 H1809 0.950 . S
C1829 C1825 1.385 . S
C1829 C1828 1.374 . S
C1830 C1827 1.499 . S
C1830 C1831 1.373 . S
C1830 C1832 1.389 . S
C1831 H1810 0.950 . S
C1831 C1830 1.373 . S
C1831 C1847 1.377 . S
C1832 C1830 1.389 . S
C1832 C1833 1.524 . S
C1832 C1846 1.377 . S
C1833 C1832 1.524 . S
C1833 C1834 1.397 . S
C1833 C1838 1.363 . S
C1834 H1811 0.950 . S
C1834 C1833 1.397 . S
C1834 C1835 1.334 . S
C1835 H1812 0.950 . S
C1835 C1834 1.334 . S
C1835 C1836 1.287 . S
C1836 C1835 1.287 . S
C1836 C1837 1.524 . S
C1836 H1855 0.913 . S
C1837 H1813 0.950 . S
C1837 C1836 1.524 . S
C1837 C1838 1.415 . S
C1838 H1814 0.950 . S
C1838 C1833 1.363 . S
C1838 C1837 1.415 . S
C1839 H1815 0.951 . S
C1839 C1840 1.366 . S
C1839 C1841 1.388 . S
C1840 C1839 1.366 . S
C1840 C1844 1.385 . S
C1841 H1816 0.951 . S
C1841 C1839 1.388 . S
C1841 C1842 1.366 . S
C1842 C1841 1.366 . S
C1842 C1843 1.414 . S
C1842 C1845 1.499 . S
C1843 H1817 0.950 . S
C1843 C1842 1.414 . S
C1843 C1844 1.374 . S
C1844 H1818 0.950 . S
C1844 C1840 1.385 . S
C1844 C1843 1.374 . S
C1845 C1842 1.499 . S
C1845 C1846 1.373 . S
C1845 C1847 1.389 . S
C1846 H1819 0.950 . S
C1846 C1832 1.377 . S
C1846 C1845 1.373 . S
C1847 C1831 1.377 . S
C1847 C1845 1.389 . S
C1847 C1848 1.524 . S
C1848 C1847 1.524 . S
C1848 C1849 1.397 . S
C1848 C1853 1.363 . S
C1849 H1820 0.950 . S
C1849 C1848 1.397 . S
C1849 C1850 1.334 . S
C1850 H1821 0.950 . S
C1850 C1849 1.334 . S
C1850 C1851 1.287 . S
C1851 C1850 1.287 . S
C1851 C1852 1.525 1_545 S
C1851 H1854 0.999 1_545 S
C1852 H1822 0.957 . S
C1852 C1851 1.525 1_565 S
C1852 C1853 1.406 1_565 S
C1853 H1823 0.950 . S
C1853 C1848 1.363 . S
C1853 C1852 1.406 1_545 S
H1854 C1851 0.999 1_565 S
H1855 C1836 0.913 . S
H1856 C1874 0.951 1_455 S
H1857 C1876 0.951 . S
H1858 C1878 0.950 . S
H1859 C1879 0.950 . S
H1860 C1881 0.950 . S
H1861 C1884 0.950 . S
H1862 C1885 0.950 . S
H1863 C1887 0.950 . S
H1864 C1888 0.950 . S
H1865 C1889 0.951 . S
H1866 C1891 0.951 . S
H1867 C1893 0.950 . S
H1868 C1894 0.950 . S
H1869 C1896 0.950 . S
H1870 C1899 0.950 . S
H1871 C1900 0.950 . S
H1872 C1902 0.950 . S
H1873 C1903 0.950 . S
C1874 H1856 0.951 1_655 S
C1874 C1875 1.366 . S
C1874 C1876 1.388 . S
C1875 C1874 1.366 . S
C1875 C1879 1.385 . S
C1876 H1857 0.951 . S
C1876 C1874 1.388 . S
C1876 C1877 1.366 . S
C1877 C1876 1.366 . S
C1877 C1878 1.414 . S
C1877 C1880 1.499 . S
C1878 H1858 0.950 . S
C1878 C1877 1.414 . S
C1878 C1879 1.374 . S
C1879 H1859 0.950 . S
C1879 C1875 1.385 . S
C1879 C1878 1.374 . S
C1880 C1877 1.499 . S
C1880 C1881 1.373 . S
C1880 C1882 1.389 . S
C1881 H1860 0.950 . S
C1881 C1880 1.373 . S
C1881 C1897 1.377 . S
C1882 C1880 1.389 . S
C1882 C1883 1.524 . S
C1882 C1896 1.377 . S
C1883 C1882 1.524 . S
C1883 C1884 1.397 . S
C1883 C1888 1.363 . S
C1884 H1861 0.950 . S
C1884 C1883 1.397 . S
C1884 C1885 1.334 . S
C1885 H1862 0.950 . S
C1885 C1884 1.334 . S
C1885 C1886 1.287 . S
C1886 C1885 1.287 . S
C1886 C1887 1.524 1_655 S
C1886 H1905 0.913 1_655 S
C1887 H1863 0.950 . S
C1887 C1886 1.524 1_455 S
C1887 C1888 1.415 1_455 S
C1888 H1864 0.950 . S
C1888 C1883 1.363 . S
C1888 C1887 1.415 1_655 S
C1889 H1865 0.951 . S
C1889 C1890 1.366 . S
C1889 C1891 1.388 . S
C1890 C1889 1.366 . S
C1890 C1894 1.385 . S
C1891 H1866 0.951 . S
C1891 C1889 1.388 . S
C1891 C1892 1.366 . S
C1892 C1891 1.366 . S
C1892 C1893 1.414 . S
C1892 C1895 1.499 . S
C1893 H1867 0.950 . S
C1893 C1892 1.414 . S
C1893 C1894 1.374 . S
C1894 H1868 0.950 . S
C1894 C1890 1.385 . S
C1894 C1893 1.374 . S
C1895 C1892 1.499 . S
C1895 C1896 1.373 . S
C1895 C1897 1.389 . S
C1896 H1869 0.950 . S
C1896 C1882 1.377 . S
C1896 C1895 1.373 . S
C1897 C1881 1.377 . S
C1897 C1895 1.389 . S
C1897 C1898 1.524 . S
C1898 C1897 1.524 . S
C1898 C1899 1.397 . S
C1898 C1903 1.363 . S
C1899 H1870 0.950 . S
C1899 C1898 1.397 . S
C1899 C1900 1.334 . S
C1900 H1871 0.950 . S
C1900 C1899 1.334 . S
C1900 C1901 1.287 . S
C1901 C1900 1.287 . S
C1901 C1902 1.524 . S
C1901 H1904 0.999 . S
C1902 H1872 0.950 . S
C1902 C1901 1.524 . S
C1902 C1903 1.415 . S
C1903 H1873 0.950 . S
C1903 C1898 1.363 . S
C1903 C1902 1.415 . S
H1904 C1901 0.999 . S
H1905 C1886 0.913 1_455 S
H1906 C1924 0.951 . S
H1907 C1926 0.951 . S
H1908 C1928 0.950 . S
H1909 C1929 0.950 . S
H1910 C1931 0.950 . S
H1911 C1934 0.950 . S
H1912 C1935 0.950 . S
H1913 C1937 0.950 . S
H1914 C1938 0.950 . S
H1915 C1939 0.951 . S
H1916 C1941 0.951 . S
H1917 C1943 0.950 . S
H1918 C1944 0.950 . S
H1919 C1946 0.950 . S
H1920 C1949 0.950 . S
H1921 C1950 0.950 . S
H1922 C1952 0.950 . S
H1923 C1953 0.950 . S
C1924 H1906 0.951 . S
C1924 C1925 1.366 . S
C1924 C1926 1.388 . S
C1925 C1924 1.366 . S
C1925 C1929 1.385 . S
C1926 H1907 0.951 . S
C1926 C1924 1.388 . S
C1926 C1927 1.366 . S
C1927 C1926 1.366 . S
C1927 C1928 1.414 . S
C1927 C1930 1.499 . S
C1928 H1908 0.950 . S
C1928 C1927 1.414 . S
C1928 C1929 1.374 . S
C1929 H1909 0.950 . S
C1929 C1925 1.385 . S
C1929 C1928 1.374 . S
C1930 C1927 1.499 . S
C1930 C1931 1.373 . S
C1930 C1932 1.389 . S
C1931 H1910 0.950 . S
C1931 C1930 1.373 . S
C1931 C1947 1.377 . S
C1932 C1930 1.389 . S
C1932 C1933 1.524 . S
C1932 C1946 1.377 . S
C1933 C1932 1.524 . S
C1933 C1934 1.397 . S
C1933 C1938 1.363 . S
C1934 H1911 0.950 . S
C1934 C1933 1.397 . S
C1934 C1935 1.334 . S
C1935 H1912 0.950 . S
C1935 C1934 1.334 . S
C1935 C1936 1.287 . S
C1936 C1935 1.287 . S
C1936 C1937 1.524 . S
C1936 H1955 0.913 . S
C1937 H1913 0.950 . S
C1937 C1936 1.524 . S
C1937 C1938 1.415 . S
C1938 H1914 0.950 . S
C1938 C1933 1.363 . S
C1938 C1937 1.415 . S
C1939 H1915 0.951 . S
C1939 C1940 1.366 . S
C1939 C1941 1.388 . S
C1940 C1939 1.366 . S
C1940 C1944 1.385 . S
C1941 H1916 0.951 . S
C1941 C1939 1.388 . S
C1941 C1942 1.366 . S
C1942 C1941 1.366 . S
C1942 C1943 1.414 . S
C1942 C1945 1.499 . S
C1943 H1917 0.950 . S
C1943 C1942 1.414 . S
C1943 C1944 1.374 . S
C1944 H1918 0.950 . S
C1944 C1940 1.385 . S
C1944 C1943 1.374 . S
C1945 C1942 1.499 . S
C1945 C1946 1.373 . S
C1945 C1947 1.389 . S
C1946 H1919 0.950 . S
C1946 C1932 1.377 . S
C1946 C1945 1.373 . S
C1947 C1931 1.377 . S
C1947 C1945 1.389 . S
C1947 C1948 1.524 . S
C1948 C1947 1.524 . S
C1948 C1949 1.397 . S
C1948 C1953 1.363 . S
C1949 H1920 0.950 . S
C1949 C1948 1.397 . S
C1949 C1950 1.334 . S
C1950 H1921 0.950 . S
C1950 C1949 1.334 . S
C1950 C1951 1.287 . S
C1951 C1950 1.287 . S
C1951 C1952 1.524 . S
C1951 H1954 0.999 . S
C1952 H1922 0.950 . S
C1952 C1951 1.524 . S
C1952 C1953 1.415 . S
C1953 H1923 0.950 . S
C1953 C1948 1.363 . S
C1953 C1952 1.415 . S
H1954 C1951 0.999 . S
H1955 C1936 0.913 . S
H1956 C1974 0.951 . S
H1957 C1976 0.951 . S
H1958 C1978 0.950 . S
H1959 C1979 0.950 . S
H1960 C1981 0.950 . S
H1961 C1984 0.950 . S
H1962 C1985 0.950 . S
H1963 C1987 0.950 . S
H1964 C1988 0.950 . S
H1965 C1989 0.951 . S
H1966 C1991 0.951 . S
H1967 C1993 0.950 . S
H1968 C1994 0.950 . S
H1969 C1996 0.950 . S
H1970 C1999 0.950 . S
H1971 C2000 0.950 . S
H1972 C2002 0.950 . S
H1973 C2003 0.950 . S
C1974 H1956 0.951 . S
C1974 C1975 1.366 . S
C1974 C1976 1.388 . S
C1975 C1974 1.366 . S
C1975 C1979 1.385 . S
C1976 H1957 0.951 . S
C1976 C1974 1.388 . S
C1976 C1977 1.366 . S
C1977 C1976 1.366 . S
C1977 C1978 1.414 . S
C1977 C1980 1.499 . S
C1978 H1958 0.950 . S
C1978 C1977 1.414 . S
C1978 C1979 1.374 . S
C1979 H1959 0.950 . S
C1979 C1975 1.385 . S
C1979 C1978 1.374 . S
C1980 C1977 1.499 . S
C1980 C1981 1.373 . S
C1980 C1982 1.389 . S
C1981 H1960 0.950 . S
C1981 C1980 1.373 . S
C1981 C1997 1.377 . S
C1982 C1980 1.389 . S
C1982 C1983 1.524 . S
C1982 C1996 1.377 . S
C1983 C1982 1.524 . S
C1983 C1984 1.397 . S
C1983 C1988 1.363 . S
C1984 H1961 0.950 . S
C1984 C1983 1.397 . S
C1984 C1985 1.334 . S
C1985 H1962 0.950 . S
C1985 C1984 1.334 . S
C1985 C1986 1.287 . S
C1986 C1985 1.287 . S
C1986 C1987 1.524 . S
C1986 H2005 0.913 . S
C1987 H1963 0.950 . S
C1987 C1986 1.524 . S
C1987 C1988 1.415 . S
C1988 H1964 0.950 . S
C1988 C1983 1.363 . S
C1988 C1987 1.415 . S
C1989 H1965 0.951 . S
C1989 C1990 1.366 . S
C1989 C1991 1.388 . S
C1990 C1989 1.366 . S
C1990 C1994 1.385 . S
C1991 H1966 0.951 . S
C1991 C1989 1.388 . S
C1991 C1992 1.366 . S
C1992 C1991 1.366 . S
C1992 C1993 1.414 . S
C1992 C1995 1.499 . S
C1993 H1967 0.950 . S
C1993 C1992 1.414 . S
C1993 C1994 1.374 . S
C1994 H1968 0.950 . S
C1994 C1990 1.385 . S
C1994 C1993 1.374 . S
C1995 C1992 1.499 . S
C1995 C1996 1.373 . S
C1995 C1997 1.389 . S
C1996 H1969 0.950 . S
C1996 C1982 1.377 . S
C1996 C1995 1.373 . S
C1997 C1981 1.377 . S
C1997 C1995 1.389 . S
C1997 C1998 1.524 . S
C1998 C1997 1.524 . S
C1998 C1999 1.397 . S
C1998 C2003 1.363 . S
C1999 H1970 0.950 . S
C1999 C1998 1.397 . S
C1999 C2000 1.334 . S
C2000 H1971 0.950 . S
C2000 C1999 1.334 . S
C2000 C2001 1.287 . S
C2001 C2000 1.287 . S
C2001 C2002 1.524 . S
C2001 H2004 0.999 . S
C2002 H1972 0.950 . S
C2002 C2001 1.524 . S
C2002 C2003 1.415 . S
C2003 H1973 0.950 . S
C2003 C1998 1.363 . S
C2003 C2002 1.415 . S
H2004 C2001 0.999 . S
H2005 C1986 0.913 . S
H2006 C2024 0.951 . S
H2007 C2026 0.951 . S
H2008 C2028 0.950 . S
H2009 C2029 0.950 . S
H2010 C2031 0.950 . S
H2011 C2034 0.951 1_545 S
H2012 C2035 0.950 1_545 S
H2013 C2037 0.950 . S
H2014 C2038 0.950 . S
H2015 C2039 0.951 . S
H2016 C2041 0.951 . S
H2017 C2043 0.950 . S
H2018 C2044 0.950 . S
H2019 C2046 0.950 . S
H2020 C2049 0.950 1_565 S
H2021 C2050 0.950 1_565 S
H2022 C2052 0.950 . S
H2023 C2053 0.950 . S
C2024 H2006 0.951 . S
C2024 C2025 1.366 . S
C2024 C2026 1.388 . S
C2025 C2024 1.366 . S
C2025 C2029 1.385 . S
C2026 H2007 0.951 . S
C2026 C2024 1.388 . S
C2026 C2027 1.366 . S
C2027 C2026 1.366 . S
C2027 C2028 1.414 . S
C2027 C2030 1.499 . S
C2028 H2008 0.950 . S
C2028 C2027 1.414 . S
C2028 C2029 1.374 . S
C2029 H2009 0.950 . S
C2029 C2025 1.385 . S
C2029 C2028 1.374 . S
C2030 C2027 1.499 . S
C2030 C2031 1.373 . S
C2030 C2032 1.389 . S
C2031 H2010 0.950 . S
C2031 C2030 1.373 . S
C2031 C2047 1.377 1_565 S
C2032 C2030 1.389 . S
C2032 C2033 1.524 . S
C2032 C2046 1.377 1_565 S
C2033 C2032 1.524 . S
C2033 C2034 1.399 . S
C2033 C2038 1.363 . S
C2034 H2011 0.951 1_565 S
C2034 C2033 1.399 . S
C2034 C2035 1.331 . S
C2035 H2012 0.950 1_565 S
C2035 C2034 1.331 . S
C2035 C2036 1.287 . S
C2036 C2035 1.287 . S
C2036 C2037 1.524 . S
C2036 H2055 0.913 . S
C2037 H2013 0.950 . S
C2037 C2036 1.524 . S
C2037 C2038 1.415 . S
C2038 H2014 0.950 . S
C2038 C2033 1.363 . S
C2038 C2037 1.415 . S
C2039 H2015 0.951 . S
C2039 C2040 1.366 . S
C2039 C2041 1.388 . S
C2040 C2039 1.366 . S
C2040 C2044 1.385 . S
C2041 H2016 0.951 . S
C2041 C2039 1.388 . S
C2041 C2042 1.366 . S
C2042 C2041 1.366 . S
C2042 C2043 1.414 . S
C2042 C2045 1.499 . S
C2043 H2017 0.950 . S
C2043 C2042 1.414 . S
C2043 C2044 1.374 . S
C2044 H2018 0.950 . S
C2044 C2040 1.385 . S
C2044 C2043 1.374 . S
C2045 C2042 1.499 . S
C2045 C2046 1.373 . S
C2045 C2047 1.389 . S
C2046 H2019 0.950 . S
C2046 C2032 1.377 1_545 S
C2046 C2045 1.373 . S
C2047 C2031 1.377 1_545 S
C2047 C2045 1.389 . S
C2047 C2048 1.524 . S
C2048 C2047 1.524 . S
C2048 C2049 1.397 . S
C2048 C2053 1.363 . S
C2049 H2020 0.950 1_545 S
C2049 C2048 1.397 . S
C2049 C2050 1.334 . S
C2050 H2021 0.950 1_545 S
C2050 C2049 1.334 . S
C2050 C2051 1.287 . S
C2051 C2050 1.287 . S
C2051 C2052 1.524 . S
C2051 H2054 0.999 . S
C2052 H2022 0.950 . S
C2052 C2051 1.524 . S
C2052 C2053 1.415 . S
C2053 H2023 0.950 . S
C2053 C2048 1.363 . S
C2053 C2052 1.415 . S
H2054 C2051 0.999 . S
H2055 C2036 0.913 . S
H2056 C2074 0.951 . S
H2057 C2076 0.951 . S
H2058 C2078 0.950 . S
H2059 C2079 0.950 . S
H2060 C2081 0.950 . S
H2061 C2084 0.950 . S
H2062 C2085 0.950 . S
H2063 C2087 0.950 . S
H2064 C2088 0.950 . S
H2065 C2089 0.951 . S
H2066 C2091 0.951 . S
H2067 C2093 0.950 . S
H2068 C2094 0.950 . S
H2069 C2096 0.950 . S
H2070 C2099 0.950 . S
H2071 C2100 0.950 . S
H2072 C2102 0.950 . S
H2073 C2103 0.950 . S
C2074 H2056 0.951 . S
C2074 C2075 1.366 . S
C2074 C2076 1.388 . S
C2075 C2074 1.366 . S
C2075 C2079 1.385 . S
C2076 H2057 0.951 . S
C2076 C2074 1.388 . S
C2076 C2077 1.366 . S
C2077 C2076 1.366 . S
C2077 C2078 1.414 . S
C2077 C2080 1.499 . S
C2078 H2058 0.950 . S
C2078 C2077 1.414 . S
C2078 C2079 1.374 . S
C2079 H2059 0.950 . S
C2079 C2075 1.385 . S
C2079 C2078 1.374 . S
C2080 C2077 1.499 . S
C2080 C2081 1.373 1_655 S
C2080 C2082 1.389 . S
C2081 H2060 0.950 . S
C2081 C2080 1.373 1_455 S
C2081 C2097 1.377 . S
C2082 C2080 1.389 . S
C2082 C2083 1.524 . S
C2082 C2096 1.377 1_655 S
C2083 C2082 1.524 . S
C2083 C2084 1.397 . S
C2083 C2088 1.363 . S
C2084 H2061 0.950 . S
C2084 C2083 1.397 . S
C2084 C2085 1.334 . S
C2085 H2062 0.950 . S
C2085 C2084 1.334 . S
C2085 C2086 1.287 . S
C2086 C2085 1.287 . S
C2086 C2087 1.524 . S
C2086 H2105 0.913 . S
C2087 H2063 0.950 . S
C2087 C2086 1.524 . S
C2087 C2088 1.415 . S
C2088 H2064 0.950 . S
C2088 C2083 1.363 . S
C2088 C2087 1.415 . S
C2089 H2065 0.951 . S
C2089 C2090 1.366 . S
C2089 C2091 1.388 . S
C2090 C2089 1.366 . S
C2090 C2094 1.385 . S
C2091 H2066 0.951 . S
C2091 C2089 1.388 . S
C2091 C2092 1.366 . S
C2092 C2091 1.366 . S
C2092 C2093 1.414 . S
C2092 C2095 1.499 . S
C2093 H2067 0.950 . S
C2093 C2092 1.414 . S
C2093 C2094 1.374 . S
C2094 H2068 0.950 . S
C2094 C2090 1.385 . S
C2094 C2093 1.374 . S
C2095 C2092 1.499 . S
C2095 C2096 1.373 . S
C2095 C2097 1.389 . S
C2096 H2069 0.950 . S
C2096 C2082 1.377 1_455 S
C2096 C2095 1.373 . S
C2097 C2081 1.377 . S
C2097 C2095 1.389 . S
C2097 C2098 1.524 . S
C2098 C2097 1.524 . S
C2098 C2099 1.397 . S
C2098 C2103 1.363 . S
C2099 H2070 0.950 . S
C2099 C2098 1.397 . S
C2099 C2100 1.334 . S
C2100 H2071 0.950 . S
C2100 C2099 1.334 . S
C2100 C2101 1.287 . S
C2101 C2100 1.287 . S
C2101 C2102 1.524 . S
C2101 H2104 0.999 . S
C2102 H2072 0.950 . S
C2102 C2101 1.524 . S
C2102 C2103 1.415 . S
C2103 H2073 0.950 . S
C2103 C2098 1.363 . S
C2103 C2102 1.415 . S
H2104 C2101 0.999 . S
H2105 C2086 0.913 . S
C775 C142 1.158 . S
C790 C56 1.309 1_554 S
C825 C226 1.158 . S
C840 C140 1.309 1_554 S
C875 C224 1.309 1_554 S
C890 C58 1.160 . S
C925 C238 1.138 . S
C940 C151 1.258 . S
C975 C235 1.258 . S
C990 C70 1.136 . S
C1025 C67 1.258 . S
C1040 C154 1.136 . S
C1075 C308 1.315 . S
C1090 C394 1.159 . S
C1125 C478 1.158 . S
C1140 C392 1.315 . S
C1175 C476 1.315 . S
C1190 C310 1.161 . S
C1225 C403 1.259 . S
C1240 C490 1.122 . S
C1275 C487 1.258 . S
C1290 C322 1.122 . S
C1325 C406 1.120 . S
C1340 C319 1.259 . S
C1375 C646 1.160 . S
C1390 C560 1.316 . S
C1425 C644 1.316 . S
C1440 C730 1.159 . S
C1475 C728 1.315 . S
C1490 C562 1.160 . S
C1525 C742 1.120 . S
C1540 C655 1.259 . S
C1575 C739 1.258 . S
C1590 C574 1.123 . S
C1625 C571 1.259 . S
C1640 C658 1.122 . S
C1675 C494 2.624 . S
C1690 C63 2.687 . S
C1725 C326 2.625 . S
C1740 C147 2.687 . S
C1775 C231 2.687 . S
C1790 C410 2.624 . S
C1825 C242 2.625 . S
C1840 C567 2.687 . S
C1875 C74 2.625 . S
C1890 C651 2.687 . S
C1925 C735 2.686 . S
C1940 C158 2.624 . S
C1975 C315 2.686 . S
C1990 C746 2.625 . S
C2025 C399 2.687 . S
C2040 C578 2.626 . S
C2075 C662 2.625 . S
C2090 C483 2.686 . S
