# Generated by pormake.
# Topology yft, (5)-cn, num edge types: 1
# Building blocks:
#     Node 0, Type 0, BuildingBlock: BEQFEK_clean_sbu_0, # of connection points: 5
#     Node 1, Type 0, BuildingBlock: BEQFEK_clean_sbu_0, # of connection points: 5
#     Node 2, Type 0, BuildingBlock: BEQFEK_clean_sbu_0, # of connection points: 5
#     Node 3, Type 0, BuildingBlock: BEQFEK_clean_sbu_0, # of connection points: 5
#     Node 4, Type 0, BuildingBlock: BEQFEK_clean_sbu_0, # of connection points: 5
#     Node 5, Type 0, BuildingBlock: BEQFEK_clean_sbu_0, # of connection points: 5
#     Node 6, Type 0, BuildingBlock: BEQFEK_clean_sbu_0, # of connection points: 5
#     Node 7, Type 0, BuildingBlock: BEQFEK_clean_sbu_0, # of connection points: 5
#     Node 8, Type 0, BuildingBlock: BEQFEK_clean_sbu_0, # of connection points: 5
#     Node 9, Type 0, BuildingBlock: BEQFEK_clean_sbu_0, # of connection points: 5
#     Node 10, Type 0, BuildingBlock: BEQFEK_clean_sbu_0, # of connection points: 5
#     Node 11, Type 0, BuildingBlock: BEQFEK_clean_sbu_0, # of connection points: 5
#     Node 12, Type 0, BuildingBlock: BEQFEK_clean_sbu_0, # of connection points: 5
#     Node 13, Type 0, BuildingBlock: BEQFEK_clean_sbu_0, # of connection points: 5
#     Node 14, Type 0, BuildingBlock: BEQFEK_clean_sbu_0, # of connection points: 5
#     Node 15, Type 0, BuildingBlock: BEQFEK_clean_sbu_0, # of connection points: 5
#     Node 16, Type 0, BuildingBlock: BEQFEK_clean_sbu_0, # of connection points: 5
#     Node 17, Type 0, BuildingBlock: BEQFEK_clean_sbu_0, # of connection points: 5
#     Node 18, Type 0, BuildingBlock: BEQFEK_clean_sbu_0, # of connection points: 5
#     Node 19, Type 0, BuildingBlock: BEQFEK_clean_sbu_0, # of connection points: 5
#     Node 20, Type 0, BuildingBlock: BEQFEK_clean_sbu_0, # of connection points: 5
#     Node 21, Type 0, BuildingBlock: BEQFEK_clean_sbu_0, # of connection points: 5
#     Node 22, Type 0, BuildingBlock: BEQFEK_clean_sbu_0, # of connection points: 5
#     Node 23, Type 0, BuildingBlock: BEQFEK_clean_sbu_0, # of connection points: 5
#     Node 24, Type 0, BuildingBlock: BEQFEK_clean_sbu_0, # of connection points: 5
#     Node 25, Type 0, BuildingBlock: BEQFEK_clean_sbu_0, # of connection points: 5
#     Node 26, Type 0, BuildingBlock: BEQFEK_clean_sbu_0, # of connection points: 5
#     Node 27, Type 0, BuildingBlock: BEQFEK_clean_sbu_0, # of connection points: 5
#     Node 28, Type 0, BuildingBlock: BEQFEK_clean_sbu_0, # of connection points: 5
#     Node 29, Type 0, BuildingBlock: BEQFEK_clean_sbu_0, # of connection points: 5
#     Node 30, Type 0, BuildingBlock: BEQFEK_clean_sbu_0, # of connection points: 5
#     Node 31, Type 0, BuildingBlock: BEQFEK_clean_sbu_0, # of connection points: 5
#     Edge 32, Type (0, 0), None
#     Edge 33, Type (0, 0), None
#     Edge 34, Type (0, 0), None
#     Edge 35, Type (0, 0), None
#     Edge 36, Type (0, 0), None
#     Edge 37, Type (0, 0), None
#     Edge 38, Type (0, 0), None
#     Edge 39, Type (0, 0), None
#     Edge 40, Type (0, 0), None
#     Edge 41, Type (0, 0), None
#     Edge 42, Type (0, 0), None
#     Edge 43, Type (0, 0), None
#     Edge 44, Type (0, 0), None
#     Edge 45, Type (0, 0), None
#     Edge 46, Type (0, 0), None
#     Edge 47, Type (0, 0), None
#     Edge 48, Type (0, 0), None
#     Edge 49, Type (0, 0), None
#     Edge 50, Type (0, 0), None
#     Edge 51, Type (0, 0), None
#     Edge 52, Type (0, 0), None
#     Edge 53, Type (0, 0), None
#     Edge 54, Type (0, 0), None
#     Edge 55, Type (0, 0), None
#     Edge 56, Type (0, 0), None
#     Edge 57, Type (0, 0), None
#     Edge 58, Type (0, 0), None
#     Edge 59, Type (0, 0), None
#     Edge 60, Type (0, 0), None
#     Edge 61, Type (0, 0), None
#     Edge 62, Type (0, 0), None
#     Edge 63, Type (0, 0), None
#     Edge 64, Type (0, 0), None
#     Edge 65, Type (0, 0), None
#     Edge 66, Type (0, 0), None
#     Edge 67, Type (0, 0), None
#     Edge 68, Type (0, 0), None
#     Edge 69, Type (0, 0), None
#     Edge 70, Type (0, 0), None
#     Edge 71, Type (0, 0), None
#     Edge 72, Type (0, 0), None
#     Edge 73, Type (0, 0), None
#     Edge 74, Type (0, 0), None
#     Edge 75, Type (0, 0), None
#     Edge 76, Type (0, 0), None
#     Edge 77, Type (0, 0), None
#     Edge 78, Type (0, 0), None
#     Edge 79, Type (0, 0), None
#     Edge 80, Type (0, 0), None
#     Edge 81, Type (0, 0), None
#     Edge 82, Type (0, 0), None
#     Edge 83, Type (0, 0), None
#     Edge 84, Type (0, 0), None
#     Edge 85, Type (0, 0), None
#     Edge 86, Type (0, 0), None
#     Edge 87, Type (0, 0), None
#     Edge 88, Type (0, 0), None
#     Edge 89, Type (0, 0), None
#     Edge 90, Type (0, 0), None
#     Edge 91, Type (0, 0), None
#     Edge 92, Type (0, 0), None
#     Edge 93, Type (0, 0), None
#     Edge 94, Type (0, 0), None
#     Edge 95, Type (0, 0), None
#     Edge 96, Type (0, 0), None
#     Edge 97, Type (0, 0), None
#     Edge 98, Type (0, 0), None
#     Edge 99, Type (0, 0), None
#     Edge 100, Type (0, 0), None
#     Edge 101, Type (0, 0), None
#     Edge 102, Type (0, 0), None
#     Edge 103, Type (0, 0), None
#     Edge 104, Type (0, 0), None
#     Edge 105, Type (0, 0), None
#     Edge 106, Type (0, 0), None
#     Edge 107, Type (0, 0), None
#     Edge 108, Type (0, 0), None
#     Edge 109, Type (0, 0), None
#     Edge 110, Type (0, 0), None
#     Edge 111, Type (0, 0), None
# Relax obj value: 0.436
# Max RMSD: 0.260
# Mean RMSD: 0.260
data_MOF--net-yft--node1-BEQFEK_clean_sbu_0--edge1-none
_symmetry_space_group_name_H-M    P1
_symmetry_Int_Tables_number       1
_symmetry_cell_setting            triclinic
loop_
_symmetry_equiv_pos_as_xyz
'x, y, z'
_cell_length_a     26.305194
_cell_length_b     26.305192
_cell_length_c     36.576904
_cell_angle_alpha  90.0
_cell_angle_beta   90.0
_cell_angle_gamma 90.000001
loop_
_atom_site_label
_atom_site_type_symbol
_atom_site_fract_x
_atom_site_fract_y
_atom_site_fract_z
_atom_type_partial_charge
Co0 Co 0.42027 0.23984 0.1823 0.0
Co1 Co 0.33865 0.19813 0.12828 0.0
C2 C 0.44704 0.15326 0.13646 0.0
O3 O 0.45839 0.18014 0.16414 0.0
O4 O 0.40368 0.15781 0.12101 0.0
C5 C 0.49406 0.25515 0.23671 0.0
O6 O 0.49403 0.20525 0.23819 0.0
C7 C 0.26614 0.11422 0.1178 0.0
C8 C 0.20352 0.15286 0.08895 0.0
C9 C 0.21609 0.10794 0.10657 0.0
N10 N 0.28196 0.16109 0.10787 0.0
N11 N 0.24472 0.18329 0.08962 0.0
C12 C 0.29474 0.08031 0.14337 0.0
H13 H 0.32849 0.10015 0.15468 0.0
H14 H 0.2696 0.06759 0.16597 0.0
H15 H 0.30736 0.04596 0.12828 0.0
C16 C 0.3384 0.2461 0.23159 0.0
N17 N 0.35756 0.22598 0.20093 0.0
N18 N 0.32115 0.21465 0.17807 0.0
C19 C 0.27652 0.22728 0.19379 0.0
C20 C 0.28619 0.2526 0.22689 0.0
C21 C 0.3667 0.24138 0.26704 0.0
H22 H 0.39134 0.27493 0.27157 0.0
H23 H 0.39235 0.2079 0.26586 0.0
H24 H 0.34028 0.23587 0.29033 0.0
O25 O 0.41178 0.28905 0.14183 0.0
O26 O 0.3532 0.26419 0.10168 0.0
H27 H 0.20179 0.19864 0.20715 0.0
H28 H 0.23629 0.16148 0.17607 0.0
C29 C 0.22806 0.20116 0.1836 0.0
H30 H 0.21017 0.22014 0.15978 0.0
H31 H 0.24585 0.22085 0.08047 0.0
O32 O 0.45983 0.2772 0.21841 0.0
C33 C 0.38588 0.2967 0.11294 0.0
Co34 Co 0.04666 0.17026 0.43231 0.0
Co35 Co 0.08834 0.08865 0.37827 0.0
C36 C 0.1332 0.19705 0.38644 0.0
O37 O 0.10633 0.2084 0.41412 0.0
O38 O 0.12865 0.15369 0.37099 0.0
C39 C 0.03139 0.24404 0.48673 0.0
O40 O 0.08129 0.24401 0.48819 0.0
C41 C 0.17225 1.01615 0.36776 0.0
C42 C 0.13361 0.95354 0.33892 0.0
C43 C 0.17853 0.96611 0.35654 0.0
N44 N 0.12538 0.03197 0.35785 0.0
N45 N 0.10318 0.99474 0.3396 0.0
C46 C 0.20617 0.04475 0.39333 0.0
H47 H 0.18633 0.07851 0.40464 0.0
H48 H 0.21888 0.01961 0.41594 0.0
H49 H 0.24052 0.05736 0.37825 0.0
C50 C 0.04045 0.08839 0.4816 0.0
N51 N 0.06055 0.10755 0.45094 0.0
N52 N 0.07187 0.07114 0.42806 0.0
C53 C 0.05923 0.02651 0.44378 0.0
C54 C 0.03393 0.03618 0.47689 0.0
C55 C 0.04519 0.11667 0.51706 0.0
H56 H 1.01165 0.14132 0.52159 0.0
H57 H 0.07868 0.14231 0.51587 0.0
H58 H 0.05069 0.09023 0.54033 0.0
O59 O 0.99741 0.16176 0.39187 0.0
O60 O 0.02226 0.10321 0.3517 0.0
H61 H 0.08787 0.95178 0.45713 0.0
H62 H 0.12501 0.98628 0.42603 0.0
C63 C 0.08534 0.97805 0.43357 0.0
H64 H 0.06634 0.96017 0.40977 0.0
H65 H 0.06562 0.99586 0.33046 0.0
O66 O 1.00932 0.2098 0.46844 0.0
C67 C 0.98975 0.13587 0.36298 0.0
Co68 Co 0.11621 0.79665 0.6823 0.0
Co69 Co 0.19784 0.83836 0.62828 0.0
C70 C 0.08945 0.88323 0.63646 0.0
O71 O 0.0781 0.85635 0.66414 0.0
O72 O 0.13281 0.87868 0.62101 0.0
C73 C 0.04243 0.78134 0.73671 0.0
O74 O 0.04246 0.83124 0.73819 0.0
C75 C 0.27035 0.92226 0.6178 0.0
C76 C 0.33296 0.88363 0.58895 0.0
C77 C 0.3204 0.92855 0.60657 0.0
N78 N 0.25453 0.8754 0.60787 0.0
N79 N 0.29176 0.8532 0.58962 0.0
C80 C 0.24175 0.95618 0.64337 0.0
H81 H 0.208 0.93634 0.65468 0.0
H82 H 0.26689 0.96889 0.66597 0.0
H83 H 0.22913 0.99053 0.62828 0.0
C84 C 0.19808 0.79039 0.73159 0.0
N85 N 0.17893 0.81051 0.70093 0.0
N86 N 0.21534 0.82184 0.67807 0.0
C87 C 0.25997 0.80921 0.69379 0.0
C88 C 0.25029 0.78389 0.72689 0.0
C89 C 0.16979 0.79511 0.76704 0.0
H90 H 0.14515 0.76156 0.77156 0.0
H91 H 0.14413 0.82859 0.76586 0.0
H92 H 0.19621 0.80062 0.79033 0.0
O93 O 0.12471 0.74743 0.64183 0.0
O94 O 0.18328 0.7723 0.60167 0.0
H95 H 0.33469 0.83784 0.70715 0.0
H96 H 0.30019 0.87501 0.67606 0.0
C97 C 0.30843 0.83532 0.68359 0.0
H98 H 0.32631 0.81634 0.65978 0.0
H99 H 0.29064 0.81564 0.58047 0.0
O100 O 0.07666 0.75929 0.7184 0.0
C101 C 0.15061 0.73979 0.61294 0.0
Co102 Co 0.48983 0.86623 0.93231 0.0
Co103 Co 0.44815 0.94783 0.87827 0.0
C104 C 0.40329 0.83944 0.88644 0.0
O105 O 0.43016 0.82809 0.91412 0.0
O106 O 0.40783 0.8828 0.87099 0.0
C107 C 0.5051 0.79245 0.98673 0.0
O108 O 0.4552 0.79248 0.98819 0.0
C109 C 0.36424 0.02033 0.86776 0.0
C110 C 0.40288 0.08295 0.83892 0.0
C111 C 0.35795 0.07038 0.85654 0.0
N112 N 0.41111 1.00452 0.85785 0.0
N113 N 0.43331 0.04175 0.8396 0.0
C114 C 0.33032 0.99174 0.89333 0.0
H115 H 0.35015 0.95798 0.90464 0.0
H116 H 0.31761 1.01687 0.91594 0.0
H117 H 0.29596 0.97913 0.87825 0.0
C118 C 0.49604 0.9481 0.9816 0.0
N119 N 0.47594 0.92894 0.95094 0.0
N120 N 0.46462 0.96535 0.92806 0.0
C121 C 0.47726 1.00998 0.94378 0.0
C122 C 0.50256 1.00031 0.97689 0.0
C123 C 0.4913 0.91982 0.01706 0.0
H124 H 0.52483 0.89517 0.02159 0.0
H125 H 0.45781 0.89418 0.01587 0.0
H126 H 0.48579 0.94626 0.04033 0.0
O127 O 0.53908 0.87473 0.89187 0.0
O128 O 0.51422 0.93328 0.85169 0.0
H129 H 0.44861 0.0847 0.95713 0.0
H130 H 0.41147 0.0502 0.92603 0.0
C131 C 0.45115 0.05844 0.93357 0.0
H132 H 0.47015 0.07632 0.90977 0.0
H133 H 0.47087 0.04063 0.83046 0.0
O134 O 0.52716 0.82669 0.96844 0.0
C135 C 0.54674 0.90062 0.86298 0.0
Co136 Co 0.42027 0.79666 0.29439 0.0
Co137 Co 0.33865 0.83838 0.34841 0.0
C138 C 0.44705 0.88324 0.34021 0.0
O139 O 0.4584 0.85636 0.31254 0.0
O140 O 0.40369 0.87869 0.35567 0.0
C141 C 0.49406 0.78134 0.23997 0.0
O142 O 0.49403 0.83123 0.23849 0.0
C143 C 0.26615 0.92229 0.3588 0.0
C144 C 0.20348 0.88368 0.38763 0.0
C145 C 0.21605 0.92853 0.36992 0.0
N146 N 0.28196 0.87545 0.36879 0.0
N147 N 0.2447 0.85328 0.38703 0.0
C148 C 0.2948 0.95617 0.33323 0.0
H149 H 0.32853 0.93629 0.32194 0.0
H150 H 0.26969 0.96892 0.31062 0.0
H151 H 0.30745 0.9905 0.34832 0.0
C152 C 0.33841 0.79039 0.24509 0.0
N153 N 0.35756 0.81051 0.27575 0.0
N154 N 0.32115 0.82185 0.29861 0.0
C155 C 0.27652 0.80922 0.28288 0.0
C156 C 0.2862 0.78389 0.24979 0.0
C157 C 0.36671 0.79509 0.20964 0.0
H158 H 0.39135 0.76154 0.20513 0.0
H159 H 0.39235 0.82857 0.21081 0.0
H160 H 0.34028 0.80058 0.18635 0.0
O161 O 0.41177 0.74745 0.33486 0.0
O162 O 0.3532 0.77232 0.37501 0.0
H163 H 0.2018 0.83784 0.2695 0.0
H164 H 0.23631 0.87505 0.30055 0.0
C165 C 0.22806 0.83535 0.29306 0.0
H166 H 0.21017 0.81642 0.31689 0.0
H167 H 0.24582 0.81574 0.39623 0.0
O168 O 0.45983 0.75928 0.25828 0.0
C169 C 0.38587 0.73981 0.36375 0.0
Co170 Co 0.48982 0.17026 0.54437 0.0
Co171 Co 0.44813 0.08865 0.59841 0.0
C172 C 0.40328 0.19706 0.59024 0.0
O173 O 0.43015 0.2084 0.56255 0.0
O174 O 0.40782 0.1537 0.60569 0.0
C175 C 0.5051 0.24404 0.48996 0.0
O176 O 0.4552 0.244 0.48849 0.0
C177 C 0.36422 1.01616 0.60883 0.0
C178 C 0.40283 0.95349 0.63765 0.0
C179 C 0.35797 0.96607 0.61995 0.0
N180 N 0.41106 0.03197 0.61882 0.0
N181 N 0.43324 0.99471 0.63705 0.0
C182 C 0.33033 0.04481 0.58327 0.0
H183 H 0.3502 0.07855 0.57197 0.0
H184 H 0.31759 0.0197 0.56065 0.0
H185 H 0.29599 0.05745 0.59836 0.0
C186 C 0.49604 0.08839 0.49509 0.0
N187 N 0.47593 0.10755 0.52574 0.0
N188 N 0.46461 0.07114 0.54861 0.0
C189 C 0.47725 0.02651 0.53289 0.0
C190 C 0.50256 0.03618 0.49979 0.0
C191 C 0.49131 0.11667 0.45963 0.0
H192 H 0.52485 0.14133 0.4551 0.0
H193 H 0.45782 0.14231 0.4608 0.0
H194 H 0.48583 0.09024 0.43635 0.0
O195 O 0.53906 0.16176 0.58482 0.0
O196 O 0.51421 0.1032 0.62499 0.0
H197 H 0.44862 0.95179 0.51952 0.0
H198 H 0.41143 0.9863 0.55058 0.0
C199 C 0.45112 0.97805 0.54308 0.0
H200 H 0.47007 0.96017 0.5669 0.0
H201 H 0.47077 0.99584 0.64625 0.0
O202 O 0.52716 0.2098 0.50825 0.0
C203 C 0.54672 0.13586 0.61371 0.0
Co204 Co 0.11621 0.23983 0.79439 0.0
Co205 Co 0.19784 0.19811 0.84841 0.0
C206 C 0.08944 0.15325 0.84021 0.0
O207 O 0.07809 0.18013 0.81254 0.0
O208 O 0.1328 0.15779 0.85567 0.0
C209 C 0.04243 0.25515 0.73997 0.0
O210 O 0.04246 0.20525 0.73849 0.0
C211 C 0.27034 0.1142 0.8588 0.0
C212 C 0.33301 0.15281 0.88762 0.0
C213 C 0.32044 0.10795 0.86992 0.0
N214 N 0.25453 0.16104 0.86879 0.0
N215 N 0.29179 0.18321 0.88703 0.0
C216 C 0.24169 0.08032 0.83323 0.0
H217 H 0.20796 0.1002 0.82193 0.0
H218 H 0.2668 0.06757 0.81062 0.0
H219 H 0.22904 0.04599 0.84832 0.0
C220 C 0.19808 0.2461 0.74509 0.0
N221 N 0.17893 0.22598 0.77575 0.0
N222 N 0.21534 0.21464 0.79861 0.0
C223 C 0.25997 0.22727 0.78288 0.0
C224 C 0.25029 0.2526 0.74979 0.0
C225 C 0.16978 0.2414 0.70964 0.0
H226 H 0.14514 0.27494 0.70513 0.0
H227 H 0.14413 0.20791 0.71081 0.0
H228 H 0.19621 0.23591 0.68635 0.0
O229 O 0.12472 0.28904 0.83486 0.0
O230 O 0.18329 0.26417 0.87501 0.0
H231 H 0.33469 0.19864 0.7695 0.0
H232 H 0.30018 0.16144 0.80055 0.0
C233 C 0.30842 0.20113 0.79306 0.0
H234 H 0.32631 0.22007 0.81689 0.0
H235 H 0.29066 0.22074 0.89623 0.0
O236 O 0.07666 0.2772 0.75828 0.0
C237 C 0.15062 0.29668 0.86375 0.0
Co238 Co 0.04667 0.86623 0.04437 0.0
Co239 Co 0.08836 0.94783 0.09841 0.0
C240 C 0.13321 0.83943 0.09024 0.0
O241 O 0.10634 0.82808 0.06255 0.0
O242 O 0.12867 0.88279 0.10569 0.0
C243 C 0.03139 0.79245 -0.01004 0.0
O244 O 0.08129 0.79248 -0.01151 0.0
C245 C 0.17227 0.02033 0.10883 0.0
C246 C 0.13366 0.083 0.13765 0.0
C247 C 0.17852 0.07042 0.11995 0.0
N248 N 0.12543 1.00452 0.11882 0.0
N249 N 0.10325 0.04177 0.13705 0.0
C250 C 0.20616 0.99168 0.08327 0.0
H251 H 0.18629 0.95794 0.07198 0.0
H252 H 0.2189 1.01679 0.06065 0.0
H253 H 0.2405 0.97903 0.09836 0.0
C254 C 0.04044 0.9481 -0.00491 0.0
N255 N 0.06055 0.92894 0.02574 0.0
N256 N 0.07187 0.96535 0.04862 0.0
C257 C 0.05924 1.00998 0.03289 0.0
C258 C 0.03393 1.00031 -0.00021 0.0
C259 C 0.04517 0.91982 0.95963 0.0
H260 H 1.01164 0.89516 0.9551 0.0
H261 H 0.07866 0.89418 0.9608 0.0
H262 H 0.05066 0.94625 0.93635 0.0
O263 O 0.99742 0.87473 0.08482 0.0
O264 O 0.02228 0.93329 0.12499 0.0
H265 H 0.08787 0.0847 0.01952 0.0
H266 H 0.12506 0.05019 0.05058 0.0
C267 C 0.08537 0.05843 0.04308 0.0
H268 H 0.06641 0.07632 0.0669 0.0
H269 H 0.06571 0.04065 0.14625 0.0
O270 O 1.00932 0.82669 0.00825 0.0
C271 C 0.98977 0.90063 0.11371 0.0
Co272 Co 0.6162 0.79665 0.79437 0.0
Co273 Co 0.69783 0.83837 0.8484 0.0
C274 C 0.58947 0.88326 0.84018 0.0
O275 O 0.57809 0.85634 0.81253 0.0
O276 O 0.63281 0.87872 0.85565 0.0
C277 C 0.54243 0.78134 0.73995 0.0
O278 O 0.54245 0.83124 0.73847 0.0
C279 C 0.77034 0.92227 0.85888 0.0
C280 C 0.83296 0.88363 0.88772 0.0
C281 C 0.82039 0.92855 0.8701 0.0
N282 N 0.75453 0.8754 0.8688 0.0
N283 N 0.79176 0.8532 0.88704 0.0
C284 C 0.74174 0.95619 0.83332 0.0
H285 H 0.70801 0.93633 0.82198 0.0
H286 H 0.76688 0.96895 0.81073 0.0
H287 H 0.72908 0.99051 0.84842 0.0
C288 C 0.69808 0.79041 0.74508 0.0
N289 N 0.67892 0.81052 0.77574 0.0
N290 N 0.71533 0.82185 0.7986 0.0
C291 C 0.75996 0.80923 0.78288 0.0
C292 C 0.75029 0.78391 0.74978 0.0
C293 C 0.66979 0.79514 0.70962 0.0
H294 H 0.64514 0.76159 0.7051 0.0
H295 H 0.64414 0.82862 0.71081 0.0
H296 H 0.69621 0.80065 0.68634 0.0
O297 O 0.6247 0.74743 0.83483 0.0
O298 O 0.68326 0.77231 0.875 0.0
H299 H 0.83468 0.83787 0.76952 0.0
H300 H 0.80018 0.87503 0.8006 0.0
C301 C 0.80842 0.83535 0.79307 0.0
H302 H 0.82631 0.81637 0.81689 0.0
H303 H 0.79064 0.81564 0.89619 0.0
O304 O 0.57666 0.75929 0.75826 0.0
C305 C 0.65059 0.7398 0.86373 0.0
Co306 Co 0.9898 0.86624 0.54434 0.0
Co307 Co 0.94814 0.94783 0.59841 0.0
C308 C 0.90327 0.83944 0.59023 0.0
O309 O 0.93013 0.8281 0.56254 0.0
O310 O 0.90783 0.8828 0.60568 0.0
C311 C 1.00508 0.79244 0.48994 0.0
O312 O 0.95518 0.79245 0.48848 0.0
C313 C 0.86424 0.02033 0.60891 0.0
C314 C 0.90286 0.08293 0.63779 0.0
C315 C 0.85794 0.07037 0.62015 0.0
N316 N 0.91109 1.00451 0.61883 0.0
N317 N 0.93329 0.04173 0.6371 0.0
C318 C 0.83034 0.99176 0.5833 0.0
H319 H 0.85015 0.95796 0.57205 0.0
H320 H 0.81776 1.0169 0.56065 0.0
H321 H 0.79591 0.97925 0.59834 0.0
C322 C 0.9961 0.94813 0.4951 0.0
N323 N 0.97592 0.92896 0.52573 0.0
N324 N 0.96463 0.96536 0.54861 0.0
C325 C 0.97735 1.00999 0.53293 0.0
C326 C 1.00271 1.00032 0.49984 0.0
C327 C 0.99143 0.91987 0.45962 0.0
H328 H 0.02498 0.89523 0.45511 0.0
H329 H 0.95795 0.89422 0.46076 0.0
H330 H 0.98596 0.94632 0.43635 0.0
O331 O 0.03906 0.87473 0.58479 0.0
O332 O 1.01422 0.93327 0.62498 0.0
H333 H 0.94878 0.08475 0.51962 0.0
H334 H 0.91165 0.0503 0.55075 0.0
C335 C 0.95133 0.05848 0.54317 0.0
H336 H 0.97039 0.07633 0.56696 0.0
H337 H 0.97084 0.0406 0.64626 0.0
O338 O 0.02714 0.8267 0.50822 0.0
C339 C 0.04673 0.90062 0.61368 0.0
Co340 Co 0.92028 0.23984 0.29437 0.0
Co341 Co 0.83866 0.19812 0.3484 0.0
C342 C 0.94702 0.15323 0.34018 0.0
O343 O 0.9584 0.18014 0.31253 0.0
O344 O 0.90367 0.15777 0.35565 0.0
C345 C 0.99406 0.25515 0.23995 0.0
O346 O 0.99403 0.20525 0.23847 0.0
C347 C 0.76615 0.11422 0.35888 0.0
C348 C 0.70353 0.15286 0.38772 0.0
C349 C 0.7161 0.10793 0.3701 0.0
N350 N 0.78196 0.16108 0.3688 0.0
N351 N 0.74473 0.18329 0.38705 0.0
C352 C 0.79475 0.0803 0.33332 0.0
H353 H 0.82847 0.10015 0.32198 0.0
H354 H 0.76961 0.06754 0.31073 0.0
H355 H 0.80741 0.04597 0.34842 0.0
C356 C 0.83841 0.24608 0.24508 0.0
N357 N 0.85757 0.22597 0.27574 0.0
N358 N 0.82116 0.21464 0.2986 0.0
C359 C 0.77652 0.22726 0.28288 0.0
C360 C 0.7862 0.25258 0.24978 0.0
C361 C 0.8667 0.24135 0.20963 0.0
H362 H 0.89134 0.27489 0.2051 0.0
H363 H 0.89235 0.20787 0.21081 0.0
H364 H 0.84027 0.23584 0.18634 0.0
O365 O 0.91179 0.28905 0.33483 0.0
O366 O 0.85323 0.26417 0.375 0.0
H367 H 0.70181 0.19862 0.26952 0.0
H368 H 0.73631 0.16146 0.3006 0.0
C369 C 0.72807 0.20114 0.29307 0.0
H370 H 0.71018 0.22011 0.31689 0.0
H371 H 0.74585 0.22085 0.39619 0.0
O372 O 0.95983 0.2772 0.25826 0.0
C373 C 0.88589 0.29669 0.36373 0.0
Co374 Co 0.54669 0.17025 0.04434 0.0
Co375 Co 0.58835 0.08865 0.09841 0.0
C376 C 0.63321 0.19705 0.09023 0.0
O377 O 0.60636 0.20839 0.06254 0.0
O378 O 0.62866 0.15369 0.10568 0.0
C379 C 0.5314 0.24404 -0.01006 0.0
O380 O 0.5813 0.24404 -0.01152 0.0
C381 C 0.67225 1.01615 0.10891 0.0
C382 C 0.63363 0.95356 0.13779 0.0
C383 C 0.67855 0.96611 0.12015 0.0
N384 N 0.62539 0.03198 0.11883 0.0
N385 N 0.6032 0.99476 0.1371 0.0
C386 C 0.70615 0.04472 0.0833 0.0
H387 H 0.68634 0.07853 0.07205 0.0
H388 H 0.71873 0.01959 0.06065 0.0
H389 H 0.74058 0.05724 0.09834 0.0
C390 C 0.54039 0.08836 -0.0049 0.0
N391 N 0.56057 0.10753 0.02573 0.0
N392 N 0.57186 0.07113 0.04862 0.0
C393 C 0.55914 0.0265 0.03293 0.0
C394 C 0.53378 0.03617 -0.00016 0.0
C395 C 0.54506 0.11662 0.95962 0.0
H396 H 0.51151 0.14125 0.95511 0.0
H397 H 0.57854 0.14227 0.96076 0.0
H398 H 0.55053 0.09017 0.93635 0.0
O399 O 0.49743 0.16175 0.08479 0.0
O400 O 0.52227 0.10322 0.12498 0.0
H401 H 0.58771 0.95174 0.01962 0.0
H402 H 0.62483 0.98619 0.05075 0.0
C403 C 0.58516 0.97801 0.04317 0.0
H404 H 0.5661 0.96015 0.06696 0.0
H405 H 0.56565 0.99589 0.14626 0.0
O406 O 0.50935 0.20979 0.00822 0.0
C407 C 0.48976 0.13587 0.11368 0.0
Co408 Co 0.6162 0.23983 0.68231 0.0
Co409 Co 0.69783 0.1981 0.62829 0.0
C410 C 0.58945 0.15322 0.63651 0.0
O411 O 0.57808 0.18013 0.66416 0.0
O412 O 0.6328 0.15775 0.62103 0.0
C413 C 0.54243 0.25515 0.73673 0.0
O414 O 0.54246 0.20525 0.73822 0.0
C415 C 0.77033 0.1142 0.61789 0.0
C416 C 0.83301 0.1528 0.58907 0.0
C417 C 0.82043 0.10795 0.60677 0.0
N418 N 0.75453 0.16103 0.6079 0.0
N419 N 0.79179 0.18321 0.58966 0.0
C420 C 0.74168 0.08031 0.64345 0.0
H421 H 0.70797 0.1002 0.65477 0.0
H422 H 0.76679 0.06751 0.66604 0.0
H423 H 0.72898 0.046 0.62834 0.0
C424 C 0.69807 0.24608 0.7316 0.0
N425 N 0.67892 0.22597 0.70095 0.0
N426 N 0.71533 0.21463 0.67808 0.0
C427 C 0.75996 0.22726 0.69381 0.0
C428 C 0.75029 0.25258 0.7269 0.0
C429 C 0.66978 0.24137 0.76706 0.0
H430 H 0.64513 0.27491 0.77157 0.0
H431 H 0.64414 0.20788 0.76588 0.0
H432 H 0.69621 0.23588 0.79034 0.0
O433 O 0.62471 0.28904 0.64184 0.0
O434 O 0.68326 0.26416 0.60168 0.0
H435 H 0.83467 0.19862 0.70719 0.0
H436 H 0.80016 0.16141 0.67615 0.0
C437 C 0.80841 0.20111 0.68364 0.0
H438 H 0.82631 0.22004 0.65981 0.0
H439 H 0.79066 0.22075 0.58047 0.0
O440 O 0.57666 0.2772 0.71842 0.0
C441 C 0.6506 0.29668 0.61295 0.0
Co442 Co 0.5467 0.86624 0.43234 0.0
Co443 Co 0.58837 0.94783 0.37827 0.0
C444 C 0.63322 0.83943 0.38646 0.0
O445 O 0.60637 0.82809 0.41415 0.0
O446 O 0.62867 0.88279 0.371 0.0
C447 C 0.5314 0.79244 0.48674 0.0
O448 O 0.5813 0.79246 0.48821 0.0
C449 C 0.67227 0.02033 0.36786 0.0
C450 C 0.63369 0.08297 0.339 0.0
C451 C 0.67853 0.07041 0.35673 0.0
N452 N 0.62544 1.00451 0.35787 0.0
N453 N 0.60328 0.04175 0.33961 0.0
C454 C 0.70614 0.99171 0.39346 0.0
H455 H 0.68629 0.95791 0.4047 0.0
H456 H 0.71875 1.01681 0.41612 0.0
H457 H 0.74055 0.97915 0.37842 0.0
C458 C 0.54039 0.94812 0.48158 0.0
N459 N 0.56057 0.92896 0.45096 0.0
N460 N 0.57187 0.96535 0.42807 0.0
C461 C 0.55914 1.00999 0.44376 0.0
C462 C 0.53378 1.00032 0.47684 0.0
C463 C 0.54504 0.91987 0.51706 0.0
H464 H 0.51149 0.89522 0.52156 0.0
H465 H 0.57853 0.89422 0.51593 0.0
H466 H 0.55049 0.94631 0.54033 0.0
O467 O 0.49745 0.87474 0.39189 0.0
O468 O 0.52229 0.93328 0.3517 0.0
H469 H 0.58771 0.08474 0.45709 0.0
H470 H 0.62488 0.05028 0.426 0.0
C471 C 0.58519 0.05847 0.43354 0.0
H472 H 0.56618 0.07633 0.40974 0.0
H473 H 0.56575 0.04062 0.3304 0.0
O474 O 0.50935 0.8267 0.46846 0.0
C475 C 0.48978 0.90063 0.363 0.0
Co476 Co 0.92028 0.79666 0.18231 0.0
Co477 Co 0.83866 0.83839 0.12829 0.0
C478 C 0.94703 0.88327 0.13651 0.0
O479 O 0.95841 0.85635 0.16416 0.0
O480 O 0.90369 0.87873 0.12103 0.0
C481 C 0.99406 0.78134 0.23673 0.0
O482 O 0.99403 0.83123 0.23822 0.0
C483 C 0.76615 0.92229 0.11789 0.0
C484 C 0.70348 0.88368 0.08907 0.0
C485 C 0.71606 0.92854 0.10677 0.0
N486 N 0.78196 0.87545 0.1079 0.0
N487 N 0.7447 0.85327 0.08966 0.0
C488 C 0.79481 0.95618 0.14345 0.0
H489 H 0.82852 0.93628 0.15477 0.0
H490 H 0.76969 0.96898 0.16604 0.0
H491 H 0.80751 0.99048 0.12834 0.0
C492 C 0.83841 0.7904 0.2316 0.0
N493 N 0.85757 0.81052 0.20095 0.0
N494 N 0.82116 0.82186 0.17808 0.0
C495 C 0.77653 0.80923 0.19381 0.0
C496 C 0.7862 0.7839 0.2269 0.0
C497 C 0.86671 0.79512 0.26706 0.0
H498 H 0.89135 0.76158 0.27157 0.0
H499 H 0.89235 0.82861 0.26588 0.0
H500 H 0.84028 0.80061 0.29034 0.0
O501 O 0.91178 0.74745 0.14184 0.0
O502 O 0.85322 0.77233 0.10168 0.0
H503 H 0.70181 0.83787 0.20719 0.0
H504 H 0.73633 0.87507 0.17615 0.0
C505 C 0.72807 0.83538 0.18364 0.0
H506 H 0.71018 0.81645 0.15981 0.0
H507 H 0.74582 0.81574 0.08047 0.0
O508 O 0.95983 0.75929 0.21842 0.0
C509 C 0.88589 0.73981 0.11295 0.0
Co510 Co 0.98979 0.17025 0.93233 0.0
Co511 Co 0.94812 0.08866 0.87827 0.0
C512 C 0.90326 0.19706 0.88646 0.0
O513 O 0.93012 0.20839 0.91415 0.0
O514 O 0.90782 0.1537 0.871 0.0
C515 C 1.00509 0.24404 0.98674 0.0
O516 O 0.95519 0.24403 0.98821 0.0
C517 C 0.86421 1.01616 0.86786 0.0
C518 C 0.9028 0.95351 0.839 0.0
C519 C 0.85796 0.96608 0.85673 0.0
N520 N 0.91105 0.03198 0.85787 0.0
N521 N 0.93321 0.99473 0.83961 0.0
C522 C 0.83035 0.04478 0.89346 0.0
H523 H 0.8502 0.07857 0.9047 0.0
H524 H 0.81773 0.01968 0.91611 0.0
H525 H 0.79594 0.05733 0.87842 0.0
C526 C 0.9961 0.08836 0.98158 0.0
N527 N 0.97591 0.10753 0.95096 0.0
N528 N 0.96462 0.07113 0.92807 0.0
C529 C 0.97735 0.0265 0.94376 0.0
C530 C 1.00271 0.03617 0.97684 0.0
C531 C 0.99145 0.11662 0.01706 0.0
H532 H 0.025 0.14126 0.02156 0.0
H533 H 0.95796 0.14227 0.01593 0.0
H534 H 0.986 0.09017 0.04033 0.0
O535 O 0.03904 0.16175 0.89189 0.0
O536 O 1.0142 0.10321 0.8517 0.0
H537 H 0.94878 0.95175 0.95709 0.0
H538 H 0.91161 0.98621 0.926 0.0
C539 C 0.95129 0.97801 0.93354 0.0
H540 H 0.97031 0.96015 0.90974 0.0
H541 H 0.97074 0.99586 0.8304 0.0
O542 O 0.02714 0.20979 0.96846 0.0
C543 C 0.04671 0.13586 0.863 0.0
Co544 Co 0.92025 0.7398 0.68236 0.0
Co545 Co 0.83868 0.69812 0.62828 0.0
C546 C 0.94709 0.65329 0.63648 0.0
O547 O 0.95842 0.68015 0.66417 0.0
O548 O 0.90373 0.65783 0.62103 0.0
C549 C 0.99401 0.75509 0.73679 0.0
O550 O 0.99407 0.70519 0.73826 0.0
C551 C 0.76621 0.61419 0.61778 0.0
C552 C 0.70362 0.65278 0.58888 0.0
C553 C 0.71618 0.60787 0.60653 0.0
N554 N 0.78203 0.66105 0.60785 0.0
N555 N 0.74481 0.68322 0.58956 0.0
C556 C 0.79477 0.58032 0.6434 0.0
H557 H 0.82859 0.60012 0.65464 0.0
H558 H 0.76964 0.56778 0.66606 0.0
H559 H 0.80727 0.54586 0.62839 0.0
C560 C 0.83834 0.74608 0.73159 0.0
N561 N 0.85752 0.72589 0.70096 0.0
N562 N 0.82114 0.71461 0.67807 0.0
C563 C 0.7765 0.72733 0.69374 0.0
C564 C 0.78615 0.75269 0.72683 0.0
C565 C 0.86658 0.74141 0.76707 0.0
H566 H 0.89121 0.77496 0.77159 0.0
H567 H 0.89223 0.70792 0.76594 0.0
H568 H 0.84012 0.73595 0.79034 0.0
O569 O 0.91176 0.78906 0.64191 0.0
O570 O 0.85325 0.76419 0.60171 0.0
H571 H 0.70174 0.69875 0.70703 0.0
H572 H 0.7362 0.66164 0.6759 0.0
C573 C 0.72801 0.70131 0.68349 0.0
H574 H 0.71016 0.72037 0.6597 0.0
H575 H 0.74593 0.72077 0.5804 0.0
O576 O 0.95975 0.77714 0.71851 0.0
C577 C 0.88588 0.79672 0.61301 0.0
Co578 Co 0.54665 0.67028 0.93234 0.0
Co579 Co 0.58839 0.58869 0.87829 0.0
C580 C 0.63325 0.69706 0.88652 0.0
O581 O 0.60633 0.70843 0.91418 0.0
O582 O 0.62872 0.65371 0.87105 0.0
C583 C 0.53133 0.74402 0.98678 0.0
O584 O 0.58123 0.74407 0.98827 0.0
C585 C 0.67231 0.5162 0.8678 0.0
C586 C 0.6337 0.45358 0.83894 0.0
C587 C 0.67862 0.46616 0.85657 0.0
N588 N 0.62545 0.53201 0.85788 0.0
N589 N 0.60326 0.49478 0.83962 0.0
C590 C 0.70621 0.5448 0.89339 0.0
H591 H 0.68636 0.57854 0.90471 0.0
H592 H 0.71894 0.51966 0.91599 0.0
H593 H 0.74056 0.55744 0.87831 0.0
C594 C 0.54043 0.58839 0.9816 0.0
N595 N 0.56054 0.60756 0.95095 0.0
N596 N 0.57187 0.57116 0.92808 0.0
C597 C 0.55925 0.52652 0.94379 0.0
C598 C 0.53393 0.53618 0.97689 0.0
C599 C 0.54516 0.61666 0.01707 0.0
H600 H 0.51162 0.64131 0.0216 0.0
H601 H 0.57864 0.64231 0.0159 0.0
H602 H 0.55066 0.59022 0.04034 0.0
O603 O 0.49743 0.66179 0.89187 0.0
O604 O 0.52233 0.60326 0.85169 0.0
H605 H 0.5879 0.45181 0.95714 0.0
H606 H 0.62505 0.48632 0.92605 0.0
C607 C 0.58537 0.47807 0.93359 0.0
H608 H 0.56639 0.46019 0.90977 0.0
H609 H 0.56571 0.49589 0.83047 0.0
O610 O 0.50928 0.70979 0.96847 0.0
C611 C 0.48981 0.63591 0.86296 0.0
Co612 Co 0.61624 0.29669 0.18236 0.0
Co613 Co 0.6978 0.33837 0.12828 0.0
C614 C 0.5894 0.3832 0.13648 0.0
O615 O 0.57807 0.35634 0.16417 0.0
O616 O 0.63276 0.37866 0.12103 0.0
C617 C 0.54248 0.2814 0.23679 0.0
O618 O 0.54242 0.3313 0.23826 0.0
C619 C 0.77028 0.4223 0.11778 0.0
C620 C 0.83287 0.38371 0.08888 0.0
C621 C 0.82031 0.42861 0.10653 0.0
N622 N 0.75446 0.37544 0.10785 0.0
N623 N 0.79168 0.35326 0.08956 0.0
C624 C 0.74171 0.45617 0.14341 0.0
H625 H 0.7079 0.43636 0.15464 0.0
H626 H 0.76684 0.46871 0.16606 0.0
H627 H 0.72922 0.49063 0.12839 0.0
C628 C 0.69815 0.29041 0.23159 0.0
N629 N 0.67896 0.31059 0.20097 0.0
N630 N 0.71535 0.32188 0.17807 0.0
C631 C 0.75999 0.30916 0.19374 0.0
C632 C 0.75033 0.2838 0.22683 0.0
C633 C 0.66991 0.29508 0.26707 0.0
H634 H 0.64527 0.26153 0.27159 0.0
H635 H 0.64426 0.32856 0.26594 0.0
H636 H 0.69637 0.30054 0.29034 0.0
O637 O 0.62473 0.24743 0.14192 0.0
O638 O 0.68324 0.27229 0.10171 0.0
H639 H 0.83475 0.33774 0.20704 0.0
H640 H 0.80029 0.37485 0.17591 0.0
C641 C 0.80847 0.33518 0.18349 0.0
H642 H 0.82632 0.31611 0.1597 0.0
H643 H 0.79055 0.31572 0.0804 0.0
O644 O 0.57674 0.25934 0.21851 0.0
C645 C 0.6506 0.23977 0.11301 0.0
Co646 Co 0.98984 0.3662 0.43234 0.0
Co647 Co 0.9481 0.4478 0.37829 0.0
C648 C 0.90324 0.33942 0.38653 0.0
O649 O 0.93016 0.32805 0.41418 0.0
O650 O 0.90776 0.38277 0.37105 0.0
C651 C 1.00515 0.29246 0.48678 0.0
O652 O 0.95526 0.29242 0.48827 0.0
C653 C 0.86417 0.52029 0.36781 0.0
C654 C 0.90278 0.5829 0.33894 0.0
C655 C 0.85787 0.57033 0.35658 0.0
N656 N 0.91104 0.50448 0.35788 0.0
N657 N 0.93322 0.54171 0.33962 0.0
C658 C 0.83027 0.49169 0.39339 0.0
H659 H 0.85013 0.45795 0.40471 0.0
H660 H 0.81755 0.51683 0.41599 0.0
H661 H 0.79592 0.47904 0.37831 0.0
C662 C 0.99606 0.4481 0.4816 0.0
N663 N 0.97595 0.42893 0.45095 0.0
N664 N 0.96461 0.46532 0.42808 0.0
C665 C 0.97724 0.50996 0.44379 0.0
C666 C 1.00256 0.5003 0.4769 0.0
C667 C 0.99133 0.41982 0.51707 0.0
H668 H 0.02487 0.39518 0.5216 0.0
H669 H 0.95784 0.39418 0.5159 0.0
H670 H 0.98583 0.44626 0.54034 0.0
O671 O 0.03906 0.3747 0.39187 0.0
O672 O 1.01415 0.43323 0.35169 0.0
H673 H 0.94859 0.58468 0.45714 0.0
H674 H 0.91144 0.55017 0.42605 0.0
C675 C 0.95112 0.55841 0.43359 0.0
H676 H 0.9701 0.5763 0.40977 0.0
H677 H 0.97078 0.54059 0.33047 0.0
O678 O 0.02721 0.3267 0.46847 0.0
C679 C 0.04668 0.40058 0.36296 0.0
Co680 Co 0.92025 0.29669 0.79432 0.0
Co681 Co 0.83868 0.33839 0.8484 0.0
C682 C 0.9471 0.38321 0.8402 0.0
O683 O 0.95843 0.35635 0.81251 0.0
O684 O 0.90374 0.37867 0.85565 0.0
C685 C 0.99401 0.2814 0.7399 0.0
O686 O 0.99407 0.3313 0.73842 0.0
C687 C 0.76622 0.42232 0.85881 0.0
C688 C 0.70357 0.38376 0.8877 0.0
C689 C 0.71614 0.4286 0.86996 0.0
N690 N 0.78203 0.37549 0.86881 0.0
N691 N 0.74478 0.35334 0.88709 0.0
C692 C 0.79483 0.45616 0.8332 0.0
H693 H 0.82863 0.43632 0.82197 0.0
H694 H 0.76973 0.46874 0.81053 0.0
H695 H 0.80736 0.4906 0.84822 0.0
C696 C 0.83834 0.29041 0.74509 0.0
N697 N 0.85753 0.31059 0.77572 0.0
N698 N 0.82114 0.32189 0.79861 0.0
C699 C 0.7765 0.30916 0.78294 0.0
C700 C 0.78616 0.2838 0.74985 0.0
C701 C 0.86659 0.29506 0.70961 0.0
H702 H 0.89122 0.26151 0.7051 0.0
H703 H 0.89223 0.32855 0.71073 0.0
H704 H 0.84012 0.30051 0.68634 0.0
O705 O 0.91175 0.24744 0.83477 0.0
O706 O 0.85324 0.27231 0.87498 0.0
H707 H 0.70175 0.33774 0.76961 0.0
H708 H 0.73621 0.3749 0.8007 0.0
C709 C 0.72802 0.33521 0.79316 0.0
H710 H 0.71016 0.31619 0.81697 0.0
H711 H 0.74591 0.31582 0.89631 0.0
O712 O 0.95975 0.25934 0.75818 0.0
C713 C 0.88588 0.23979 0.86367 0.0
Co714 Co 0.98983 0.67028 0.04435 0.0
Co715 Co 0.94808 0.58869 0.09839 0.0
C716 C 0.90323 0.69707 0.09015 0.0
O717 O 0.93015 0.70844 0.0625 0.0
O718 O 0.90775 0.65373 0.10563 0.0
C719 C 1.00516 0.74402 -0.01009 0.0
O720 O 0.95526 0.74406 -0.01159 0.0
C721 C 0.86415 0.51621 0.10879 0.0
C722 C 0.90273 0.45354 0.13763 0.0
C723 C 0.85788 0.46612 0.11992 0.0
N724 N 0.91099 0.53201 0.11878 0.0
N725 N 0.93315 0.49475 0.13703 0.0
C726 C 0.83028 0.54486 0.08321 0.0
H727 H 0.85018 0.57858 0.07191 0.0
H728 H 0.81753 0.51974 0.06061 0.0
H729 H 0.79595 0.55754 0.0983 0.0
C730 C 0.99606 0.58839 -0.00492 0.0
N731 N 0.97595 0.60756 0.02573 0.0
N732 N 0.96461 0.57116 0.0486 0.0
C733 C 0.97724 0.52652 0.03288 0.0
C734 C 1.00256 0.53619 -0.00021 0.0
C735 C 0.99135 0.61667 0.95961 0.0
H736 H 0.02489 0.64131 0.95509 0.0
H737 H 0.95786 0.64231 0.96078 0.0
H738 H 0.98586 0.59023 0.93634 0.0
O739 O 0.03904 0.66179 0.08482 0.0
O740 O 1.01414 0.60325 0.125 0.0
H741 H 0.94859 0.45181 0.01951 0.0
H742 H 0.9114 0.48633 0.05056 0.0
C743 C 0.95109 0.47808 0.04307 0.0
H744 H 0.97003 0.46019 0.0669 0.0
H745 H 0.97068 0.49587 0.14624 0.0
O746 O 0.02721 0.70979 0.00822 0.0
C747 C 0.04667 0.6359 0.11372 0.0
Co748 Co 0.61624 0.73979 0.29432 0.0
Co749 Co 0.6978 0.6981 0.3484 0.0
C750 C 0.58939 0.65327 0.3402 0.0
O751 O 0.57806 0.68014 0.31251 0.0
O752 O 0.63275 0.65781 0.35565 0.0
C753 C 0.54248 0.75509 0.2399 0.0
O754 O 0.54242 0.70519 0.23842 0.0
C755 C 0.77027 0.61417 0.35881 0.0
C756 C 0.83291 0.65272 0.3877 0.0
C757 C 0.82035 0.60789 0.36996 0.0
N758 N 0.75446 0.661 0.36881 0.0
N759 N 0.7917 0.68315 0.38709 0.0
C760 C 0.74165 0.58033 0.3332 0.0
H761 H 0.70785 0.60017 0.32197 0.0
H762 H 0.76676 0.56775 0.31053 0.0
H763 H 0.72912 0.54589 0.34822 0.0
C764 C 0.69814 0.74608 0.24509 0.0
N765 N 0.67896 0.72589 0.27572 0.0
N766 N 0.71535 0.7146 0.29861 0.0
C767 C 0.75999 0.72733 0.28294 0.0
C768 C 0.75033 0.75269 0.24985 0.0
C769 C 0.6699 0.74142 0.20961 0.0
H770 H 0.64526 0.77498 0.20511 0.0
H771 H 0.64426 0.70794 0.21074 0.0
H772 H 0.69636 0.73598 0.18634 0.0
O773 O 0.62474 0.78905 0.33477 0.0
O774 O 0.68325 0.76418 0.37498 0.0
H775 H 0.83474 0.69875 0.26961 0.0
H776 H 0.80028 0.66159 0.3007 0.0
C777 C 0.80847 0.70128 0.29316 0.0
H778 H 0.82632 0.7203 0.31697 0.0
H779 H 0.79058 0.72067 0.39631 0.0
O780 O 0.57673 0.77714 0.25818 0.0
C781 C 0.65061 0.7967 0.36368 0.0
Co782 Co 0.54665 0.3662 0.54435 0.0
Co783 Co 0.58841 0.4478 0.59839 0.0
C784 C 0.63326 0.33941 0.59015 0.0
O785 O 0.60633 0.32805 0.5625 0.0
O786 O 0.62874 0.38276 0.60563 0.0
C787 C 0.53133 0.29246 0.48991 0.0
O788 O 0.58123 0.29242 0.48841 0.0
C789 C 0.67234 0.52028 0.60879 0.0
C790 C 0.63376 0.58295 0.63763 0.0
C791 C 0.6786 0.57037 0.61992 0.0
N792 N 0.6255 0.50448 0.61878 0.0
N793 N 0.60334 0.54174 0.63703 0.0
C794 C 0.7062 0.49163 0.58321 0.0
H795 H 0.68631 0.45791 0.57191 0.0
H796 H 0.71896 0.51674 0.5606 0.0
H797 H 0.74054 0.47895 0.5983 0.0
C798 C 0.54042 0.44809 0.49508 0.0
N799 N 0.56054 0.42892 0.52573 0.0
N800 N 0.57188 0.46532 0.5486 0.0
C801 C 0.55925 0.50996 0.53288 0.0
C802 C 0.53393 0.5003 0.49979 0.0
C803 C 0.54514 0.41982 0.45961 0.0
H804 H 0.5116 0.39517 0.45509 0.0
H805 H 0.57863 0.39418 0.46078 0.0
H806 H 0.55063 0.44626 0.43633 0.0
O807 O 0.49744 0.3747 0.58482 0.0
O808 O 0.52235 0.43323 0.625 0.0
H809 H 0.5879 0.58468 0.51951 0.0
H810 H 0.62509 0.55016 0.55056 0.0
C811 C 0.5854 0.55841 0.54307 0.0
H812 H 0.56646 0.5763 0.5669 0.0
H813 H 0.56581 0.54062 0.64624 0.0
O814 O 0.50928 0.32669 0.50822 0.0
C815 C 0.48982 0.40058 0.61372 0.0
Co816 Co 0.11623 0.29669 0.29431 0.0
Co817 Co 0.19779 0.33838 0.34839 0.0
C818 C 0.08942 0.38323 0.34017 0.0
O819 O 0.07805 0.35634 0.3125 0.0
O820 O 0.13276 0.3787 0.35564 0.0
C821 C 0.04248 0.2814 0.23987 0.0
O822 O 0.04241 0.3313 0.2384 0.0
C823 C 0.27027 0.4223 0.3589 0.0
C824 C 0.33286 0.38371 0.38779 0.0
C825 C 0.3203 0.42862 0.37015 0.0
N826 N 0.25446 0.37544 0.36883 0.0
N827 N 0.29167 0.35326 0.3871 0.0
C828 C 0.2417 0.45618 0.33328 0.0
H829 H 0.20791 0.43636 0.32202 0.0
H830 H 0.26684 0.46877 0.31064 0.0
H831 H 0.22916 0.49061 0.34831 0.0
C832 C 0.19814 0.29043 0.24508 0.0
N833 N 0.17896 0.3106 0.27571 0.0
N834 N 0.21534 0.32189 0.29861 0.0
C835 C 0.25998 0.30917 0.28293 0.0
C836 C 0.25033 0.28382 0.24984 0.0
C837 C 0.16991 0.29511 0.2096 0.0
H838 H 0.14527 0.26156 0.20508 0.0
H839 H 0.14426 0.3286 0.21073 0.0
H840 H 0.19637 0.30057 0.18634 0.0
O841 O 0.12472 0.24743 0.33475 0.0
O842 O 0.18321 0.27231 0.37496 0.0
H843 H 0.33473 0.33776 0.26963 0.0
H844 H 0.30027 0.37488 0.30076 0.0
C845 C 0.30846 0.3352 0.29318 0.0
H846 H 0.32632 0.31614 0.31697 0.0
H847 H 0.29055 0.31571 0.39626 0.0
O848 O 0.07674 0.25935 0.25815 0.0
C849 C 0.15059 0.23978 0.36365 0.0
Co850 Co 0.48981 0.36621 0.04432 0.0
Co851 Co 0.44809 0.4478 0.09838 0.0
C852 C 0.40322 0.33943 0.09014 0.0
O853 O 0.43013 0.32806 0.06248 0.0
O854 O 0.40776 0.38277 0.10562 0.0
C855 C 0.50514 0.29246 -0.01011 0.0
O856 O 0.45524 0.29239 -0.0116 0.0
C857 C 0.36417 0.52029 0.10886 0.0
C858 C 0.40276 0.58288 0.13776 0.0
C859 C 0.35786 0.57032 0.12011 0.0
N860 N 0.41103 0.50447 0.1188 0.0
N861 N 0.4332 0.54169 0.13708 0.0
C862 C 0.3303 0.49171 0.08324 0.0
H863 H 0.35013 0.45793 0.07198 0.0
H864 H 0.3177 0.51685 0.06061 0.0
H865 H 0.29587 0.47916 0.09827 0.0
C866 C 0.49612 0.44812 -0.00491 0.0
N867 N 0.47593 0.42894 0.02571 0.0
N868 N 0.46462 0.46533 0.0486 0.0
C869 C 0.47734 0.50997 0.03292 0.0
C870 C 0.50271 0.50031 -0.00016 0.0
C871 C 0.49146 0.41987 0.95961 0.0
H872 H 0.52502 0.39525 0.9551 0.0
H873 H 0.45798 0.39421 0.96074 0.0
H874 H 0.48599 0.44633 0.93634 0.0
O875 O 0.53904 0.3747 0.08479 0.0
O876 O 0.51415 0.43322 0.12498 0.0
H877 H 0.44875 0.58472 0.01961 0.0
H878 H 0.41162 0.55026 0.05073 0.0
C879 C 0.4513 0.55845 0.04316 0.0
H880 H 0.47034 0.57631 0.06696 0.0
H881 H 0.47075 0.54057 0.14625 0.0
O882 O 0.52718 0.32671 0.00819 0.0
C883 C 0.54667 0.40058 0.11369 0.0
Co884 Co 0.42026 0.7398 0.79431 0.0
Co885 Co 0.33869 0.69811 0.84839 0.0
C886 C 0.44707 0.65325 0.84016 0.0
O887 O 0.45843 0.68015 0.8125 0.0
O888 O 0.40372 0.65779 0.85564 0.0
C889 C 0.49401 0.75509 0.73987 0.0
O890 O 0.49407 0.70519 0.7384 0.0
C891 C 0.26622 0.61419 0.8589 0.0
C892 C 0.20362 0.65278 0.88779 0.0
C893 C 0.21619 0.60787 0.87015 0.0
N894 N 0.28203 0.66105 0.86883 0.0
N895 N 0.24481 0.68322 0.8871 0.0
C896 C 0.29479 0.58031 0.83328 0.0
H897 H 0.32858 0.60013 0.82202 0.0
H898 H 0.26965 0.56772 0.81064 0.0
H899 H 0.30732 0.54588 0.84831 0.0
C900 C 0.33835 0.74606 0.74508 0.0
N901 N 0.35753 0.72589 0.77571 0.0
N902 N 0.32115 0.7146 0.7986 0.0
C903 C 0.2765 0.72732 0.78293 0.0
C904 C 0.28616 0.75267 0.74984 0.0
C905 C 0.36658 0.74138 0.7096 0.0
H906 H 0.39122 0.77493 0.70508 0.0
H907 H 0.39223 0.70789 0.71073 0.0
H908 H 0.34011 0.73592 0.68633 0.0
O909 O 0.41177 0.78906 0.83475 0.0
O910 O 0.35327 0.76418 0.87496 0.0
H911 H 0.20175 0.69872 0.76963 0.0
H912 H 0.23622 0.66161 0.80076 0.0
C913 C 0.22802 0.70128 0.79318 0.0
H914 H 0.21017 0.72034 0.81697 0.0
H915 H 0.24593 0.72078 0.89626 0.0
O916 O 0.45975 0.77714 0.75815 0.0
C917 C 0.3859 0.79671 0.86365 0.0
Co918 Co 0.04668 0.67027 0.54432 0.0
Co919 Co 0.0884 0.58869 0.59838 0.0
C920 C 0.13326 0.69706 0.59014 0.0
O921 O 0.10635 0.70843 0.56248 0.0
O922 O 0.12873 0.65371 0.60562 0.0
C923 C 0.03134 0.74403 0.48989 0.0
O924 O 0.08124 0.7441 0.48839 0.0
C925 C 0.17232 0.5162 0.60886 0.0
C926 C 0.13373 0.45361 0.63776 0.0
C927 C 0.17863 0.46617 0.62011 0.0
N928 N 0.12546 0.53202 0.6188 0.0
N929 N 0.10329 0.4948 0.63708 0.0
C930 C 0.20619 0.54477 0.58324 0.0
H931 H 0.18636 0.57856 0.57198 0.0
H932 H 0.21879 0.51963 0.56061 0.0
H933 H 0.24062 0.55732 0.59827 0.0
C934 C 0.04037 0.58837 0.49509 0.0
N935 N 0.06056 0.60754 0.52571 0.0
N936 N 0.07187 0.57115 0.5486 0.0
C937 C 0.05915 0.52652 0.53292 0.0
C938 C 0.03378 0.53618 0.49984 0.0
C939 C 0.04503 0.61661 0.45961 0.0
H940 H 1.01147 0.64124 0.4551 0.0
H941 H 0.0785 0.64227 0.46074 0.0
H942 H 0.05049 0.59016 0.43634 0.0
O943 O 0.99745 0.66178 0.58478 0.0
O944 O 0.02234 0.60327 0.62498 0.0
H945 H 0.08774 0.45176 0.51961 0.0
H946 H 0.12487 0.48623 0.55073 0.0
C947 C 0.08519 0.47803 0.54316 0.0
H948 H 0.06615 0.46018 0.56696 0.0
H949 H 0.06574 0.49592 0.64625 0.0
O950 O 1.00931 0.70978 0.50819 0.0
C951 C 0.98982 0.63591 0.61369 0.0
Co952 Co 0.11623 0.73979 0.18237 0.0
Co953 Co 0.19779 0.69809 0.12829 0.0
C954 C 0.08941 0.65324 0.13652 0.0
O955 O 0.07805 0.68014 0.16419 0.0
O956 O 0.13275 0.65777 0.12105 0.0
C957 C 0.04248 0.75509 0.23681 0.0
O958 O 0.04242 0.70519 0.23828 0.0
C959 C 0.27026 0.61416 0.11787 0.0
C960 C 0.33291 0.65272 0.089 0.0
C961 C 0.32034 0.60789 0.10673 0.0
N962 N 0.25446 0.661 0.10788 0.0
N963 N 0.2917 0.68315 0.08961 0.0
C964 C 0.24164 0.58032 0.14348 0.0
H965 H 0.20786 0.60018 0.15473 0.0
H966 H 0.26675 0.56769 0.16613 0.0
H967 H 0.22907 0.54591 0.12845 0.0
C968 C 0.19814 0.74607 0.2316 0.0
N969 N 0.17895 0.72588 0.20098 0.0
N970 N 0.21534 0.71459 0.17808 0.0
C971 C 0.25998 0.72731 0.19376 0.0
C972 C 0.25032 0.75267 0.22684 0.0
C973 C 0.1699 0.7414 0.26708 0.0
H974 H 0.14526 0.77494 0.2716 0.0
H975 H 0.14426 0.70791 0.26596 0.0
H976 H 0.19637 0.73595 0.29035 0.0
O977 O 0.12473 0.78905 0.14193 0.0
O978 O 0.18322 0.76416 0.10171 0.0
H979 H 0.33473 0.69872 0.20708 0.0
H980 H 0.30026 0.66157 0.17599 0.0
C981 C 0.30846 0.70125 0.18353 0.0
H982 H 0.32632 0.72027 0.15973 0.0
H983 H 0.29058 0.72068 0.08039 0.0
O984 O 0.07673 0.77714 0.21853 0.0
C985 C 0.1506 0.7967 0.11302 0.0
Co986 Co 0.04668 0.36621 0.93236 0.0
Co987 Co 0.08842 0.4478 0.8783 0.0
C988 C 0.13327 0.33942 0.88655 0.0
O989 O 0.10636 0.32806 0.9142 0.0
O990 O 0.12874 0.38276 0.87107 0.0
C991 C 0.03134 0.29246 0.98679 0.0
O992 O 0.08124 0.2924 0.98829 0.0
C993 C 0.17234 0.52028 0.86791 0.0
C994 C 0.13379 0.58293 0.83903 0.0
C995 C 0.17862 0.57036 0.85676 0.0
N996 N 0.12551 0.50447 0.8579 0.0
N997 N 0.10336 0.54171 0.83963 0.0
C998 C 0.20618 0.49166 0.89352 0.0
H999 H 0.18631 0.45788 0.90477 0.0
H1000 H 0.21881 0.51677 0.91616 0.0
H1001 H 0.24059 0.47907 0.87848 0.0
C1002 C 0.04037 0.44812 0.98159 0.0
N1003 N 0.06056 0.42894 0.95097 0.0
N1004 N 0.07188 0.46533 0.92808 0.0
C1005 C 0.05916 0.50997 0.94376 0.0
C1006 C 0.03377 0.50031 0.97684 0.0
C1007 C 0.04501 0.41987 0.01707 0.0
H1008 H 1.01145 0.39524 0.02157 0.0
H1009 H 0.07849 0.39421 0.01595 0.0
H1010 H 0.05046 0.44632 0.04034 0.0
O1011 O 0.99747 0.37471 0.89189 0.0
O1012 O 0.02236 0.43322 0.85169 0.0
H1013 H 0.08774 0.58472 0.9571 0.0
H1014 H 0.12491 0.55025 0.92603 0.0
C1015 C 0.08522 0.55845 0.93355 0.0
H1016 H 0.06622 0.57631 0.90974 0.0
H1017 H 0.06584 0.54059 0.83041 0.0
O1018 O 1.00931 0.3267 0.96849 0.0
C1019 C 0.98983 0.40058 0.86299 0.0
Co1020 Co 0.42026 0.29669 0.68237 0.0
Co1021 Co 0.3387 0.3384 0.62829 0.0
C1022 C 0.44708 0.38324 0.63652 0.0
O1023 O 0.45844 0.35635 0.66419 0.0
O1024 O 0.40374 0.37871 0.62105 0.0
C1025 C 0.49401 0.2814 0.73681 0.0
O1026 O 0.49407 0.3313 0.73828 0.0
C1027 C 0.26623 0.42232 0.61787 0.0
C1028 C 0.20358 0.38376 0.589 0.0
C1029 C 0.21615 0.4286 0.60673 0.0
N1030 N 0.28203 0.37549 0.60788 0.0
N1031 N 0.24479 0.35334 0.5896 0.0
C1032 C 0.29485 0.45617 0.64348 0.0
H1033 H 0.32862 0.43631 0.65473 0.0
H1034 H 0.26974 0.46879 0.66613 0.0
H1035 H 0.30742 0.49058 0.62845 0.0
C1036 C 0.33835 0.29042 0.7316 0.0
N1037 N 0.35753 0.3106 0.70098 0.0
N1038 N 0.32115 0.3219 0.67808 0.0
C1039 C 0.27651 0.30918 0.69375 0.0
C1040 C 0.28616 0.28382 0.72684 0.0
C1041 C 0.36659 0.29509 0.76708 0.0
H1042 H 0.39123 0.26154 0.7716 0.0
H1043 H 0.39223 0.32858 0.76596 0.0
H1044 H 0.34012 0.30054 0.79035 0.0
O1045 O 0.41176 0.24744 0.64193 0.0
O1046 O 0.35327 0.27232 0.60171 0.0
H1047 H 0.20176 0.33776 0.70708 0.0
H1048 H 0.23623 0.37492 0.67599 0.0
C1049 C 0.22803 0.33524 0.68353 0.0
H1050 H 0.21017 0.31622 0.65973 0.0
H1051 H 0.24591 0.31581 0.58039 0.0
O1052 O 0.45976 0.25934 0.71853 0.0
C1053 C 0.38589 0.23979 0.61302 0.0
Co1054 Co 0.4898 0.67028 0.43236 0.0
Co1055 Co 0.44807 0.58869 0.3783 0.0
C1056 C 0.40321 0.69707 0.38655 0.0
O1057 O 0.43012 0.70843 0.4142 0.0
O1058 O 0.40775 0.65373 0.37107 0.0
C1059 C 0.50514 0.74403 0.48679 0.0
O1060 O 0.45525 0.74409 0.48829 0.0
C1061 C 0.36415 0.51621 0.36791 0.0
C1062 C 0.4027 0.45356 0.33903 0.0
C1063 C 0.35787 0.46613 0.35676 0.0
N1064 N 0.41098 0.53202 0.3579 0.0
N1065 N 0.43312 0.49477 0.33963 0.0
C1066 C 0.33031 0.54483 0.39352 0.0
H1067 H 0.35017 0.5786 0.40477 0.0
H1068 H 0.31768 0.51972 0.41616 0.0
H1069 H 0.2959 0.55742 0.37848 0.0
C1070 C 0.49612 0.58837 0.48159 0.0
N1071 N 0.47593 0.60755 0.45097 0.0
N1072 N 0.46461 0.57115 0.42808 0.0
C1073 C 0.47733 0.52652 0.44376 0.0
C1074 C 0.50271 0.53618 0.47684 0.0
C1075 C 0.49148 0.61662 0.51707 0.0
H1076 H 0.52504 0.64125 0.52157 0.0
H1077 H 0.458 0.64227 0.51595 0.0
H1078 H 0.48603 0.59017 0.54035 0.0
O1079 O 0.53902 0.66178 0.39189 0.0
O1080 O 0.51413 0.60326 0.35169 0.0
H1081 H 0.44875 0.45177 0.4571 0.0
H1082 H 0.41157 0.48624 0.42603 0.0
C1083 C 0.45126 0.47804 0.43355 0.0
H1084 H 0.47026 0.46018 0.40974 0.0
H1085 H 0.47064 0.4959 0.33041 0.0
O1086 O 0.52718 0.70978 0.46849 0.0
C1087 C 0.54666 0.6359 0.36299 0.0
loop_
_geom_bond_atom_site_label_1
_geom_bond_atom_site_label_2
_geom_bond_distance
_geom_bond_site_symmetry_2
_ccdc_geom_bond_type
Co0 O3 1.970 . S
Co0 N17 1.989 . S
Co0 O25 1.967 . S
Co0 O32 1.920 . S
Co1 O4 1.966 . S
Co1 N10 2.022 . S
Co1 N18 1.993 . S
Co1 O26 1.941 . S
C2 O3 1.258 . S
C2 O4 1.263 . S
O3 Co0 1.970 . S
O3 C2 1.258 . S
O4 Co1 1.966 . S
O4 C2 1.263 . S
C5 O6 1.235 . S
C5 O32 1.289 . S
O6 C5 1.235 . S
C7 C9 1.400 . S
C7 N10 1.351 . S
C7 C12 1.501 . S
C8 C9 1.387 . S
C8 N11 1.341 . S
C9 C7 1.400 . S
C9 C8 1.387 . S
N10 Co1 2.022 . S
N10 C7 1.351 . S
N10 N11 1.365 . S
N11 C8 1.341 . S
N11 N10 1.365 . S
N11 H31 0.862 . S
C12 C7 1.501 . S
C12 H13 0.961 . S
C12 H14 0.961 . S
C12 H15 0.960 . S
H13 C12 0.961 . S
H14 C12 0.961 . S
H15 C12 0.960 . S
C16 N17 1.342 . S
C16 C20 1.401 . S
C16 C21 1.499 . S
N17 Co0 1.989 . S
N17 C16 1.342 . S
N17 N18 1.388 . S
N18 Co1 1.993 . S
N18 N17 1.388 . S
N18 C19 1.346 . S
C19 N18 1.346 . S
C19 C20 1.396 . S
C19 C29 1.510 . S
C20 C16 1.401 . S
C20 C19 1.396 . S
C21 C16 1.499 . S
C21 H22 0.959 . S
C21 H23 0.960 . S
C21 H24 0.961 . S
H22 C21 0.959 . S
H23 C21 0.960 . S
H24 C21 0.961 . S
O25 Co0 1.967 . S
O25 C33 1.258 . S
O26 Co1 1.941 . S
O26 C33 1.266 . S
H27 C29 0.959 . S
H28 C29 0.961 . S
C29 C19 1.510 . S
C29 H27 0.959 . S
C29 H28 0.961 . S
C29 H30 0.960 . S
H30 C29 0.960 . S
H31 N11 0.862 . S
O32 Co0 1.920 . S
O32 C5 1.289 . S
C33 O25 1.258 . S
C33 O26 1.266 . S
Co34 O37 1.970 . S
Co34 N51 1.989 . S
Co34 O59 1.967 1_455 S
Co34 O66 1.920 1_455 S
Co35 O38 1.966 . S
Co35 N44 2.022 . S
Co35 N52 1.993 . S
Co35 O60 1.941 . S
C36 O37 1.258 . S
C36 O38 1.263 . S
O37 Co34 1.970 . S
O37 C36 1.258 . S
O38 Co35 1.966 . S
O38 C36 1.263 . S
C39 O40 1.235 . S
C39 O66 1.289 1_455 S
O40 C39 1.235 . S
C41 C43 1.400 1_545 S
C41 N44 1.351 . S
C41 C46 1.501 . S
C42 C43 1.387 . S
C42 N45 1.341 . S
C43 C41 1.400 1_565 S
C43 C42 1.387 . S
N44 Co35 2.022 . S
N44 C41 1.351 . S
N44 N45 1.365 1_545 S
N45 C42 1.341 . S
N45 N44 1.365 1_565 S
N45 H65 0.862 . S
C46 C41 1.501 . S
C46 H47 0.961 . S
C46 H48 0.961 . S
C46 H49 0.960 . S
H47 C46 0.961 . S
H48 C46 0.961 . S
H49 C46 0.960 . S
C50 N51 1.342 . S
C50 C54 1.401 . S
C50 C55 1.499 1_455 S
N51 Co34 1.989 . S
N51 C50 1.342 . S
N51 N52 1.388 . S
N52 Co35 1.993 . S
N52 N51 1.388 . S
N52 C53 1.346 . S
C53 N52 1.346 . S
C53 C54 1.396 . S
C53 C63 1.510 1_545 S
C54 C50 1.401 . S
C54 C53 1.396 . S
C55 C50 1.499 1_655 S
C55 H56 0.959 . S
C55 H57 0.960 1_655 S
C55 H58 0.961 . S
H56 C55 0.959 . S
H57 C55 0.960 1_455 S
H58 C55 0.961 . S
O59 Co34 1.967 1_655 S
O59 C67 1.258 . S
O60 Co35 1.941 . S
O60 C67 1.266 1_455 S
H61 C63 0.959 . S
H62 C63 0.961 . S
C63 C53 1.510 1_565 S
C63 H61 0.959 . S
C63 H62 0.961 . S
C63 H64 0.960 . S
H64 C63 0.960 . S
H65 N45 0.862 . S
O66 Co34 1.920 1_655 S
O66 C39 1.289 1_655 S
C67 O59 1.258 . S
C67 O60 1.266 1_655 S
Co68 O71 1.970 . S
Co68 N85 1.989 . S
Co68 O93 1.967 . S
Co68 O100 1.920 . S
Co69 O72 1.966 . S
Co69 N78 2.022 . S
Co69 N86 1.993 . S
Co69 O94 1.941 . S
C70 O71 1.258 . S
C70 O72 1.263 . S
O71 Co68 1.970 . S
O71 C70 1.258 . S
O72 Co69 1.966 . S
O72 C70 1.263 . S
C73 O74 1.235 . S
C73 O100 1.289 . S
O74 C73 1.235 . S
C75 C77 1.400 . S
C75 N78 1.351 . S
C75 C80 1.501 . S
C76 C77 1.387 . S
C76 N79 1.341 . S
C77 C75 1.400 . S
C77 C76 1.387 . S
N78 Co69 2.022 . S
N78 C75 1.351 . S
N78 N79 1.365 . S
N79 C76 1.341 . S
N79 N78 1.365 . S
N79 H99 0.862 . S
C80 C75 1.501 . S
C80 H81 0.961 . S
C80 H82 0.961 . S
C80 H83 0.960 . S
H81 C80 0.961 . S
H82 C80 0.961 . S
H83 C80 0.960 . S
C84 N85 1.342 . S
C84 C88 1.401 . S
C84 C89 1.499 . S
N85 Co68 1.989 . S
N85 C84 1.342 . S
N85 N86 1.388 . S
N86 Co69 1.993 . S
N86 N85 1.388 . S
N86 C87 1.346 . S
C87 N86 1.346 . S
C87 C88 1.396 . S
C87 C97 1.510 . S
C88 C84 1.401 . S
C88 C87 1.396 . S
C89 C84 1.499 . S
C89 H90 0.959 . S
C89 H91 0.960 . S
C89 H92 0.961 . S
H90 C89 0.959 . S
H91 C89 0.960 . S
H92 C89 0.961 . S
O93 Co68 1.967 . S
O93 C101 1.258 . S
O94 Co69 1.941 . S
O94 C101 1.266 . S
H95 C97 0.959 . S
H96 C97 0.961 . S
C97 C87 1.510 . S
C97 H95 0.959 . S
C97 H96 0.961 . S
C97 H98 0.960 . S
H98 C97 0.960 . S
H99 N79 0.862 . S
O100 Co68 1.920 . S
O100 C73 1.289 . S
C101 O93 1.258 . S
C101 O94 1.266 . S
Co102 O105 1.970 . S
Co102 N119 1.989 . S
Co102 O127 1.967 . S
Co102 O134 1.920 . S
Co103 O106 1.966 . S
Co103 N112 2.022 . S
Co103 N120 1.993 . S
Co103 O128 1.941 . S
C104 O105 1.258 . S
C104 O106 1.263 . S
O105 Co102 1.970 . S
O105 C104 1.258 . S
O106 Co103 1.966 . S
O106 C104 1.263 . S
C107 O108 1.235 . S
C107 O134 1.289 1_554 S
O108 C107 1.235 . S
C109 C111 1.400 1_565 S
C109 N112 1.351 . S
C109 C114 1.501 . S
C110 C111 1.387 . S
C110 N113 1.341 . S
C111 C109 1.400 1_545 S
C111 C110 1.387 . S
N112 Co103 2.022 . S
N112 C109 1.351 . S
N112 N113 1.365 1_565 S
N113 C110 1.341 . S
N113 N112 1.365 1_545 S
N113 H133 0.862 . S
C114 C109 1.501 . S
C114 H115 0.961 . S
C114 H116 0.961 . S
C114 H117 0.960 . S
H115 C114 0.961 . S
H116 C114 0.961 . S
H117 C114 0.960 . S
C118 N119 1.342 1_554 S
C118 C122 1.401 . S
C118 C123 1.499 . S
N119 Co102 1.989 . S
N119 C118 1.342 1_556 S
N119 N120 1.388 . S
N120 Co103 1.993 . S
N120 N119 1.388 . S
N120 C121 1.346 . S
C121 N120 1.346 . S
C121 C122 1.396 1_556 S
C121 C131 1.510 1_565 S
C122 C118 1.401 . S
C122 C121 1.396 1_554 S
C123 C118 1.499 . S
C123 H124 0.959 . S
C123 H125 0.960 . S
C123 H126 0.961 . S
H124 C123 0.959 . S
H125 C123 0.960 . S
H126 C123 0.961 . S
O127 Co102 1.967 . S
O127 C135 1.258 . S
O128 Co103 1.941 . S
O128 C135 1.266 . S
H129 C131 0.959 . S
H130 C131 0.961 . S
C131 C121 1.510 1_545 S
C131 H129 0.959 . S
C131 H130 0.961 . S
C131 H132 0.960 . S
H132 C131 0.960 . S
H133 N113 0.862 . S
O134 Co102 1.920 . S
O134 C107 1.289 1_556 S
C135 O127 1.258 . S
C135 O128 1.266 . S
Co136 O139 1.970 . S
Co136 N153 1.989 . S
Co136 O161 1.967 . S
Co136 O168 1.920 . S
Co137 O140 1.966 . S
Co137 N146 2.022 . S
Co137 N154 1.993 . S
Co137 O162 1.941 . S
C138 O139 1.258 . S
C138 O140 1.263 . S
O139 Co136 1.970 . S
O139 C138 1.258 . S
O140 Co137 1.966 . S
O140 C138 1.263 . S
C141 O142 1.235 . S
C141 O168 1.289 . S
O142 C141 1.235 . S
C143 C145 1.400 . S
C143 N146 1.351 . S
C143 C148 1.501 . S
C144 C145 1.387 . S
C144 N147 1.341 . S
C145 C143 1.400 . S
C145 C144 1.387 . S
N146 Co137 2.022 . S
N146 C143 1.351 . S
N146 N147 1.365 . S
N147 C144 1.341 . S
N147 N146 1.365 . S
N147 H167 0.862 . S
C148 C143 1.501 . S
C148 H149 0.961 . S
C148 H150 0.961 . S
C148 H151 0.960 . S
H149 C148 0.961 . S
H150 C148 0.961 . S
H151 C148 0.960 . S
C152 N153 1.342 . S
C152 C156 1.401 . S
C152 C157 1.499 . S
N153 Co136 1.989 . S
N153 C152 1.342 . S
N153 N154 1.388 . S
N154 Co137 1.993 . S
N154 N153 1.388 . S
N154 C155 1.346 . S
C155 N154 1.346 . S
C155 C156 1.396 . S
C155 C165 1.510 . S
C156 C152 1.401 . S
C156 C155 1.396 . S
C157 C152 1.499 . S
C157 H158 0.959 . S
C157 H159 0.960 . S
C157 H160 0.961 . S
H158 C157 0.959 . S
H159 C157 0.960 . S
H160 C157 0.961 . S
O161 Co136 1.967 . S
O161 C169 1.258 . S
O162 Co137 1.941 . S
O162 C169 1.266 . S
H163 C165 0.959 . S
H164 C165 0.961 . S
C165 C155 1.510 . S
C165 H163 0.959 . S
C165 H164 0.961 . S
C165 H166 0.960 . S
H166 C165 0.960 . S
H167 N147 0.862 . S
O168 Co136 1.920 . S
O168 C141 1.289 . S
C169 O161 1.258 . S
C169 O162 1.266 . S
Co170 O173 1.970 . S
Co170 N187 1.989 . S
Co170 O195 1.967 . S
Co170 O202 1.920 . S
Co171 O174 1.966 . S
Co171 N180 2.022 . S
Co171 N188 1.993 . S
Co171 O196 1.941 . S
C172 O173 1.258 . S
C172 O174 1.263 . S
O173 Co170 1.970 . S
O173 C172 1.258 . S
O174 Co171 1.966 . S
O174 C172 1.263 . S
C175 O176 1.235 . S
C175 O202 1.289 . S
O176 C175 1.235 . S
C177 C179 1.400 1_545 S
C177 N180 1.351 . S
C177 C182 1.501 . S
C178 C179 1.387 . S
C178 N181 1.341 . S
C179 C177 1.400 1_565 S
C179 C178 1.387 . S
N180 Co171 2.022 . S
N180 C177 1.351 . S
N180 N181 1.365 1_545 S
N181 C178 1.341 . S
N181 N180 1.365 1_565 S
N181 H201 0.862 . S
C182 C177 1.501 . S
C182 H183 0.961 . S
C182 H184 0.961 . S
C182 H185 0.960 . S
H183 C182 0.961 . S
H184 C182 0.961 . S
H185 C182 0.960 . S
C186 N187 1.342 . S
C186 C190 1.401 . S
C186 C191 1.499 . S
N187 Co170 1.989 . S
N187 C186 1.342 . S
N187 N188 1.388 . S
N188 Co171 1.993 . S
N188 N187 1.388 . S
N188 C189 1.346 . S
C189 N188 1.346 . S
C189 C190 1.396 . S
C189 C199 1.510 1_545 S
C190 C186 1.401 . S
C190 C189 1.396 . S
C191 C186 1.499 . S
C191 H192 0.959 . S
C191 H193 0.960 . S
C191 H194 0.961 . S
H192 C191 0.959 . S
H193 C191 0.960 . S
H194 C191 0.961 . S
O195 Co170 1.967 . S
O195 C203 1.258 . S
O196 Co171 1.941 . S
O196 C203 1.266 . S
H197 C199 0.959 . S
H198 C199 0.961 . S
C199 C189 1.510 1_565 S
C199 H197 0.959 . S
C199 H198 0.961 . S
C199 H200 0.960 . S
H200 C199 0.960 . S
H201 N181 0.862 . S
O202 Co170 1.920 . S
O202 C175 1.289 . S
C203 O195 1.258 . S
C203 O196 1.266 . S
Co204 O207 1.970 . S
Co204 N221 1.989 . S
Co204 O229 1.967 . S
Co204 O236 1.920 . S
Co205 O208 1.966 . S
Co205 N214 2.022 . S
Co205 N222 1.993 . S
Co205 O230 1.941 . S
C206 O207 1.258 . S
C206 O208 1.263 . S
O207 Co204 1.970 . S
O207 C206 1.258 . S
O208 Co205 1.966 . S
O208 C206 1.263 . S
C209 O210 1.235 . S
C209 O236 1.289 . S
O210 C209 1.235 . S
C211 C213 1.400 . S
C211 N214 1.351 . S
C211 C216 1.501 . S
C212 C213 1.387 . S
C212 N215 1.341 . S
C213 C211 1.400 . S
C213 C212 1.387 . S
N214 Co205 2.022 . S
N214 C211 1.351 . S
N214 N215 1.365 . S
N215 C212 1.341 . S
N215 N214 1.365 . S
N215 H235 0.862 . S
C216 C211 1.501 . S
C216 H217 0.961 . S
C216 H218 0.961 . S
C216 H219 0.960 . S
H217 C216 0.961 . S
H218 C216 0.961 . S
H219 C216 0.960 . S
C220 N221 1.342 . S
C220 C224 1.401 . S
C220 C225 1.499 . S
N221 Co204 1.989 . S
N221 C220 1.342 . S
N221 N222 1.388 . S
N222 Co205 1.993 . S
N222 N221 1.388 . S
N222 C223 1.346 . S
C223 N222 1.346 . S
C223 C224 1.396 . S
C223 C233 1.510 . S
C224 C220 1.401 . S
C224 C223 1.396 . S
C225 C220 1.499 . S
C225 H226 0.959 . S
C225 H227 0.960 . S
C225 H228 0.961 . S
H226 C225 0.959 . S
H227 C225 0.960 . S
H228 C225 0.961 . S
O229 Co204 1.967 . S
O229 C237 1.258 . S
O230 Co205 1.941 . S
O230 C237 1.266 . S
H231 C233 0.959 . S
H232 C233 0.961 . S
C233 C223 1.510 . S
C233 H231 0.959 . S
C233 H232 0.961 . S
C233 H234 0.960 . S
H234 C233 0.960 . S
H235 N215 0.862 . S
O236 Co204 1.920 . S
O236 C209 1.289 . S
C237 O229 1.258 . S
C237 O230 1.266 . S
Co238 O241 1.970 . S
Co238 N255 1.989 . S
Co238 O263 1.967 1_455 S
Co238 O270 1.920 1_455 S
Co239 O242 1.966 . S
Co239 N248 2.022 . S
Co239 N256 1.993 . S
Co239 O264 1.941 . S
C240 O241 1.258 . S
C240 O242 1.263 . S
O241 Co238 1.970 . S
O241 C240 1.258 . S
O242 Co239 1.966 . S
O242 C240 1.263 . S
C243 O244 1.235 . S
C243 O270 1.289 1_456 S
O244 C243 1.235 . S
C245 C247 1.400 1_565 S
C245 N248 1.351 . S
C245 C250 1.501 . S
C246 C247 1.387 . S
C246 N249 1.341 . S
C247 C245 1.400 1_545 S
C247 C246 1.387 . S
N248 Co239 2.022 . S
N248 C245 1.351 . S
N248 N249 1.365 1_565 S
N249 C246 1.341 . S
N249 N248 1.365 1_545 S
N249 H269 0.862 . S
C250 C245 1.501 . S
C250 H251 0.961 . S
C250 H252 0.961 . S
C250 H253 0.960 . S
H251 C250 0.961 . S
H252 C250 0.961 . S
H253 C250 0.960 . S
C254 N255 1.342 1_556 S
C254 C258 1.401 . S
C254 C259 1.499 1_455 S
N255 Co238 1.989 . S
N255 C254 1.342 1_554 S
N255 N256 1.388 . S
N256 Co239 1.993 . S
N256 N255 1.388 . S
N256 C257 1.346 . S
C257 N256 1.346 . S
C257 C258 1.396 1_554 S
C257 C267 1.510 1_565 S
C258 C254 1.401 . S
C258 C257 1.396 1_556 S
C259 C254 1.499 1_655 S
C259 H260 0.959 . S
C259 H261 0.960 1_655 S
C259 H262 0.961 . S
H260 C259 0.959 . S
H261 C259 0.960 1_455 S
H262 C259 0.961 . S
O263 Co238 1.967 1_655 S
O263 C271 1.258 . S
O264 Co239 1.941 . S
O264 C271 1.266 1_455 S
H265 C267 0.959 . S
H266 C267 0.961 . S
C267 C257 1.510 1_545 S
C267 H265 0.959 . S
C267 H266 0.961 . S
C267 H268 0.960 . S
H268 C267 0.960 . S
H269 N249 0.862 . S
O270 Co238 1.920 1_655 S
O270 C243 1.289 1_654 S
C271 O263 1.258 . S
C271 O264 1.266 1_655 S
Co272 O275 1.970 . S
Co272 N289 1.989 . S
Co272 O297 1.967 . S
Co272 O304 1.920 . S
Co273 O276 1.966 . S
Co273 N282 2.022 . S
Co273 N290 1.993 . S
Co273 O298 1.941 . S
C274 O275 1.258 . S
C274 O276 1.263 . S
O275 Co272 1.970 . S
O275 C274 1.258 . S
O276 Co273 1.966 . S
O276 C274 1.263 . S
C277 O278 1.235 . S
C277 O304 1.289 . S
O278 C277 1.235 . S
C279 C281 1.400 . S
C279 N282 1.351 . S
C279 C284 1.501 . S
C280 C281 1.387 . S
C280 N283 1.341 . S
C281 C279 1.400 . S
C281 C280 1.387 . S
N282 Co273 2.022 . S
N282 C279 1.351 . S
N282 N283 1.365 . S
N283 C280 1.341 . S
N283 N282 1.365 . S
N283 H303 0.862 . S
C284 C279 1.501 . S
C284 H285 0.961 . S
C284 H286 0.961 . S
C284 H287 0.960 . S
H285 C284 0.961 . S
H286 C284 0.961 . S
H287 C284 0.960 . S
C288 N289 1.342 . S
C288 C292 1.401 . S
C288 C293 1.499 . S
N289 Co272 1.989 . S
N289 C288 1.342 . S
N289 N290 1.388 . S
N290 Co273 1.993 . S
N290 N289 1.388 . S
N290 C291 1.346 . S
C291 N290 1.346 . S
C291 C292 1.396 . S
C291 C301 1.510 . S
C292 C288 1.401 . S
C292 C291 1.396 . S
C293 C288 1.499 . S
C293 H294 0.959 . S
C293 H295 0.960 . S
C293 H296 0.961 . S
H294 C293 0.959 . S
H295 C293 0.960 . S
H296 C293 0.961 . S
O297 Co272 1.967 . S
O297 C305 1.258 . S
O298 Co273 1.941 . S
O298 C305 1.266 . S
H299 C301 0.959 . S
H300 C301 0.961 . S
C301 C291 1.510 . S
C301 H299 0.959 . S
C301 H300 0.961 . S
C301 H302 0.960 . S
H302 C301 0.960 . S
H303 N283 0.862 . S
O304 Co272 1.920 . S
O304 C277 1.289 . S
C305 O297 1.258 . S
C305 O298 1.266 . S
Co306 O309 1.970 . S
Co306 N323 1.989 . S
Co306 O331 1.967 1_655 S
Co306 O338 1.920 1_655 S
Co307 O310 1.966 . S
Co307 N316 2.022 . S
Co307 N324 1.993 . S
Co307 O332 1.941 . S
C308 O309 1.258 . S
C308 O310 1.263 . S
O309 Co306 1.970 . S
O309 C308 1.258 . S
O310 Co307 1.966 . S
O310 C308 1.263 . S
C311 O312 1.235 . S
C311 O338 1.289 1_655 S
O312 C311 1.235 . S
C313 C315 1.400 1_565 S
C313 N316 1.351 . S
C313 C318 1.501 . S
C314 C315 1.387 . S
C314 N317 1.341 . S
C315 C313 1.400 1_545 S
C315 C314 1.387 . S
N316 Co307 2.022 . S
N316 C313 1.351 . S
N316 N317 1.365 1_565 S
N317 C314 1.341 . S
N317 N316 1.365 1_545 S
N317 H337 0.862 . S
C318 C313 1.501 . S
C318 H319 0.961 . S
C318 H320 0.961 . S
C318 H321 0.960 . S
H319 C318 0.961 . S
H320 C318 0.961 . S
H321 C318 0.960 . S
C322 N323 1.342 . S
C322 C326 1.401 . S
C322 C327 1.499 1_655 S
N323 Co306 1.989 . S
N323 C322 1.342 . S
N323 N324 1.388 . S
N324 Co307 1.993 . S
N324 N323 1.388 . S
N324 C325 1.346 . S
C325 N324 1.346 . S
C325 C326 1.396 . S
C325 C335 1.510 1_565 S
C326 C322 1.401 . S
C326 C325 1.396 . S
C327 C322 1.499 1_455 S
C327 H328 0.959 . S
C327 H329 0.960 1_455 S
C327 H330 0.961 . S
H328 C327 0.959 . S
H329 C327 0.960 1_655 S
H330 C327 0.961 . S
O331 Co306 1.967 1_455 S
O331 C339 1.258 . S
O332 Co307 1.941 . S
O332 C339 1.266 1_655 S
H333 C335 0.959 . S
H334 C335 0.961 . S
C335 C325 1.510 1_545 S
C335 H333 0.959 . S
C335 H334 0.961 . S
C335 H336 0.960 . S
H336 C335 0.960 . S
H337 N317 0.862 . S
O338 Co306 1.920 1_455 S
O338 C311 1.289 1_455 S
C339 O331 1.258 . S
C339 O332 1.266 1_455 S
Co340 O343 1.970 . S
Co340 N357 1.989 . S
Co340 O365 1.967 . S
Co340 O372 1.920 . S
Co341 O344 1.966 . S
Co341 N350 2.022 . S
Co341 N358 1.993 . S
Co341 O366 1.941 . S
C342 O343 1.258 . S
C342 O344 1.263 . S
O343 Co340 1.970 . S
O343 C342 1.258 . S
O344 Co341 1.966 . S
O344 C342 1.263 . S
C345 O346 1.235 . S
C345 O372 1.289 . S
O346 C345 1.235 . S
C347 C349 1.400 . S
C347 N350 1.351 . S
C347 C352 1.501 . S
C348 C349 1.387 . S
C348 N351 1.341 . S
C349 C347 1.400 . S
C349 C348 1.387 . S
N350 Co341 2.022 . S
N350 C347 1.351 . S
N350 N351 1.365 . S
N351 C348 1.341 . S
N351 N350 1.365 . S
N351 H371 0.862 . S
C352 C347 1.501 . S
C352 H353 0.961 . S
C352 H354 0.961 . S
C352 H355 0.960 . S
H353 C352 0.961 . S
H354 C352 0.961 . S
H355 C352 0.960 . S
C356 N357 1.342 . S
C356 C360 1.401 . S
C356 C361 1.499 . S
N357 Co340 1.989 . S
N357 C356 1.342 . S
N357 N358 1.388 . S
N358 Co341 1.993 . S
N358 N357 1.388 . S
N358 C359 1.346 . S
C359 N358 1.346 . S
C359 C360 1.396 . S
C359 C369 1.510 . S
C360 C356 1.401 . S
C360 C359 1.396 . S
C361 C356 1.499 . S
C361 H362 0.959 . S
C361 H363 0.960 . S
C361 H364 0.961 . S
H362 C361 0.959 . S
H363 C361 0.960 . S
H364 C361 0.961 . S
O365 Co340 1.967 . S
O365 C373 1.258 . S
O366 Co341 1.941 . S
O366 C373 1.266 . S
H367 C369 0.959 . S
H368 C369 0.961 . S
C369 C359 1.510 . S
C369 H367 0.959 . S
C369 H368 0.961 . S
C369 H370 0.960 . S
H370 C369 0.960 . S
H371 N351 0.862 . S
O372 Co340 1.920 . S
O372 C345 1.289 . S
C373 O365 1.258 . S
C373 O366 1.266 . S
Co374 O377 1.970 . S
Co374 N391 1.989 . S
Co374 O399 1.967 . S
Co374 O406 1.920 . S
Co375 O378 1.966 . S
Co375 N384 2.022 . S
Co375 N392 1.993 . S
Co375 O400 1.941 . S
C376 O377 1.258 . S
C376 O378 1.263 . S
O377 Co374 1.970 . S
O377 C376 1.258 . S
O378 Co375 1.966 . S
O378 C376 1.263 . S
C379 O380 1.235 . S
C379 O406 1.289 1_556 S
O380 C379 1.235 . S
C381 C383 1.400 1_545 S
C381 N384 1.351 . S
C381 C386 1.501 . S
C382 C383 1.387 . S
C382 N385 1.341 . S
C383 C381 1.400 1_565 S
C383 C382 1.387 . S
N384 Co375 2.022 . S
N384 C381 1.351 . S
N384 N385 1.365 1_545 S
N385 C382 1.341 . S
N385 N384 1.365 1_565 S
N385 H405 0.862 . S
C386 C381 1.501 . S
C386 H387 0.961 . S
C386 H388 0.961 . S
C386 H389 0.960 . S
H387 C386 0.961 . S
H388 C386 0.961 . S
H389 C386 0.960 . S
C390 N391 1.342 1_556 S
C390 C394 1.401 . S
C390 C395 1.499 . S
N391 Co374 1.989 . S
N391 C390 1.342 1_554 S
N391 N392 1.388 . S
N392 Co375 1.993 . S
N392 N391 1.388 . S
N392 C393 1.346 . S
C393 N392 1.346 . S
C393 C394 1.396 1_554 S
C393 C403 1.510 1_545 S
C394 C390 1.401 . S
C394 C393 1.396 1_556 S
C395 C390 1.499 . S
C395 H396 0.959 . S
C395 H397 0.960 . S
C395 H398 0.961 . S
H396 C395 0.959 . S
H397 C395 0.960 . S
H398 C395 0.961 . S
O399 Co374 1.967 . S
O399 C407 1.258 . S
O400 Co375 1.941 . S
O400 C407 1.266 . S
H401 C403 0.959 . S
H402 C403 0.961 . S
C403 C393 1.510 1_565 S
C403 H401 0.959 . S
C403 H402 0.961 . S
C403 H404 0.960 . S
H404 C403 0.960 . S
H405 N385 0.862 . S
O406 Co374 1.920 . S
O406 C379 1.289 1_554 S
C407 O399 1.258 . S
C407 O400 1.266 . S
Co408 O411 1.970 . S
Co408 N425 1.989 . S
Co408 O433 1.967 . S
Co408 O440 1.920 . S
Co409 O412 1.966 . S
Co409 N418 2.022 . S
Co409 N426 1.993 . S
Co409 O434 1.941 . S
C410 O411 1.258 . S
C410 O412 1.263 . S
O411 Co408 1.970 . S
O411 C410 1.258 . S
O412 Co409 1.966 . S
O412 C410 1.263 . S
C413 O414 1.235 . S
C413 O440 1.289 . S
O414 C413 1.235 . S
C415 C417 1.400 . S
C415 N418 1.351 . S
C415 C420 1.501 . S
C416 C417 1.387 . S
C416 N419 1.341 . S
C417 C415 1.400 . S
C417 C416 1.387 . S
N418 Co409 2.022 . S
N418 C415 1.351 . S
N418 N419 1.365 . S
N419 C416 1.341 . S
N419 N418 1.365 . S
N419 H439 0.862 . S
C420 C415 1.501 . S
C420 H421 0.961 . S
C420 H422 0.961 . S
C420 H423 0.960 . S
H421 C420 0.961 . S
H422 C420 0.961 . S
H423 C420 0.960 . S
C424 N425 1.342 . S
C424 C428 1.401 . S
C424 C429 1.499 . S
N425 Co408 1.989 . S
N425 C424 1.342 . S
N425 N426 1.388 . S
N426 Co409 1.993 . S
N426 N425 1.388 . S
N426 C427 1.346 . S
C427 N426 1.346 . S
C427 C428 1.396 . S
C427 C437 1.510 . S
C428 C424 1.401 . S
C428 C427 1.396 . S
C429 C424 1.499 . S
C429 H430 0.959 . S
C429 H431 0.960 . S
C429 H432 0.961 . S
H430 C429 0.959 . S
H431 C429 0.960 . S
H432 C429 0.961 . S
O433 Co408 1.967 . S
O433 C441 1.258 . S
O434 Co409 1.941 . S
O434 C441 1.266 . S
H435 C437 0.959 . S
H436 C437 0.961 . S
C437 C427 1.510 . S
C437 H435 0.959 . S
C437 H436 0.961 . S
C437 H438 0.960 . S
H438 C437 0.960 . S
H439 N419 0.862 . S
O440 Co408 1.920 . S
O440 C413 1.289 . S
C441 O433 1.258 . S
C441 O434 1.266 . S
Co442 O445 1.970 . S
Co442 N459 1.989 . S
Co442 O467 1.967 . S
Co442 O474 1.920 . S
Co443 O446 1.966 . S
Co443 N452 2.022 . S
Co443 N460 1.993 . S
Co443 O468 1.941 . S
C444 O445 1.258 . S
C444 O446 1.263 . S
O445 Co442 1.970 . S
O445 C444 1.258 . S
O446 Co443 1.966 . S
O446 C444 1.263 . S
C447 O448 1.235 . S
C447 O474 1.289 . S
O448 C447 1.235 . S
C449 C451 1.400 1_565 S
C449 N452 1.351 . S
C449 C454 1.501 . S
C450 C451 1.387 . S
C450 N453 1.341 . S
C451 C449 1.400 1_545 S
C451 C450 1.387 . S
N452 Co443 2.022 . S
N452 C449 1.351 . S
N452 N453 1.365 1_565 S
N453 C450 1.341 . S
N453 N452 1.365 1_545 S
N453 H473 0.862 . S
C454 C449 1.501 . S
C454 H455 0.961 . S
C454 H456 0.961 . S
C454 H457 0.960 . S
H455 C454 0.961 . S
H456 C454 0.961 . S
H457 C454 0.960 . S
C458 N459 1.342 . S
C458 C462 1.401 . S
C458 C463 1.499 . S
N459 Co442 1.989 . S
N459 C458 1.342 . S
N459 N460 1.388 . S
N460 Co443 1.993 . S
N460 N459 1.388 . S
N460 C461 1.346 . S
C461 N460 1.346 . S
C461 C462 1.396 . S
C461 C471 1.510 1_565 S
C462 C458 1.401 . S
C462 C461 1.396 . S
C463 C458 1.499 . S
C463 H464 0.959 . S
C463 H465 0.960 . S
C463 H466 0.961 . S
H464 C463 0.959 . S
H465 C463 0.960 . S
H466 C463 0.961 . S
O467 Co442 1.967 . S
O467 C475 1.258 . S
O468 Co443 1.941 . S
O468 C475 1.266 . S
H469 C471 0.959 . S
H470 C471 0.961 . S
C471 C461 1.510 1_545 S
C471 H469 0.959 . S
C471 H470 0.961 . S
C471 H472 0.960 . S
H472 C471 0.960 . S
H473 N453 0.862 . S
O474 Co442 1.920 . S
O474 C447 1.289 . S
C475 O467 1.258 . S
C475 O468 1.266 . S
Co476 O479 1.970 . S
Co476 N493 1.989 . S
Co476 O501 1.967 . S
Co476 O508 1.920 . S
Co477 O480 1.966 . S
Co477 N486 2.022 . S
Co477 N494 1.993 . S
Co477 O502 1.941 . S
C478 O479 1.258 . S
C478 O480 1.263 . S
O479 Co476 1.970 . S
O479 C478 1.258 . S
O480 Co477 1.966 . S
O480 C478 1.263 . S
C481 O482 1.235 . S
C481 O508 1.289 . S
O482 C481 1.235 . S
C483 C485 1.400 . S
C483 N486 1.351 . S
C483 C488 1.501 . S
C484 C485 1.387 . S
C484 N487 1.341 . S
C485 C483 1.400 . S
C485 C484 1.387 . S
N486 Co477 2.022 . S
N486 C483 1.351 . S
N486 N487 1.365 . S
N487 C484 1.341 . S
N487 N486 1.365 . S
N487 H507 0.862 . S
C488 C483 1.501 . S
C488 H489 0.961 . S
C488 H490 0.961 . S
C488 H491 0.960 . S
H489 C488 0.961 . S
H490 C488 0.961 . S
H491 C488 0.960 . S
C492 N493 1.342 . S
C492 C496 1.401 . S
C492 C497 1.499 . S
N493 Co476 1.989 . S
N493 C492 1.342 . S
N493 N494 1.388 . S
N494 Co477 1.993 . S
N494 N493 1.388 . S
N494 C495 1.346 . S
C495 N494 1.346 . S
C495 C496 1.396 . S
C495 C505 1.510 . S
C496 C492 1.401 . S
C496 C495 1.396 . S
C497 C492 1.499 . S
C497 H498 0.959 . S
C497 H499 0.960 . S
C497 H500 0.961 . S
H498 C497 0.959 . S
H499 C497 0.960 . S
H500 C497 0.961 . S
O501 Co476 1.967 . S
O501 C509 1.258 . S
O502 Co477 1.941 . S
O502 C509 1.266 . S
H503 C505 0.959 . S
H504 C505 0.961 . S
C505 C495 1.510 . S
C505 H503 0.959 . S
C505 H504 0.961 . S
C505 H506 0.960 . S
H506 C505 0.960 . S
H507 N487 0.862 . S
O508 Co476 1.920 . S
O508 C481 1.289 . S
C509 O501 1.258 . S
C509 O502 1.266 . S
Co510 O513 1.970 . S
Co510 N527 1.989 . S
Co510 O535 1.967 1_655 S
Co510 O542 1.920 1_655 S
Co511 O514 1.966 . S
Co511 N520 2.022 . S
Co511 N528 1.993 . S
Co511 O536 1.941 . S
C512 O513 1.258 . S
C512 O514 1.263 . S
O513 Co510 1.970 . S
O513 C512 1.258 . S
O514 Co511 1.966 . S
O514 C512 1.263 . S
C515 O516 1.235 . S
C515 O542 1.289 1_654 S
O516 C515 1.235 . S
C517 C519 1.400 1_545 S
C517 N520 1.351 . S
C517 C522 1.501 . S
C518 C519 1.387 . S
C518 N521 1.341 . S
C519 C517 1.400 1_565 S
C519 C518 1.387 . S
N520 Co511 2.022 . S
N520 C517 1.351 . S
N520 N521 1.365 1_545 S
N521 C518 1.341 . S
N521 N520 1.365 1_565 S
N521 H541 0.862 . S
C522 C517 1.501 . S
C522 H523 0.961 . S
C522 H524 0.961 . S
C522 H525 0.960 . S
H523 C522 0.961 . S
H524 C522 0.961 . S
H525 C522 0.960 . S
C526 N527 1.342 1_554 S
C526 C530 1.401 . S
C526 C531 1.499 1_655 S
N527 Co510 1.989 . S
N527 C526 1.342 1_556 S
N527 N528 1.388 . S
N528 Co511 1.993 . S
N528 N527 1.388 . S
N528 C529 1.346 . S
C529 N528 1.346 . S
C529 C530 1.396 1_556 S
C529 C539 1.510 1_545 S
C530 C526 1.401 . S
C530 C529 1.396 1_554 S
C531 C526 1.499 1_455 S
C531 H532 0.959 . S
C531 H533 0.960 1_455 S
C531 H534 0.961 . S
H532 C531 0.959 . S
H533 C531 0.960 1_655 S
H534 C531 0.961 . S
O535 Co510 1.967 1_455 S
O535 C543 1.258 . S
O536 Co511 1.941 . S
O536 C543 1.266 1_655 S
H537 C539 0.959 . S
H538 C539 0.961 . S
C539 C529 1.510 1_565 S
C539 H537 0.959 . S
C539 H538 0.961 . S
C539 H540 0.960 . S
H540 C539 0.960 . S
H541 N521 0.862 . S
O542 Co510 1.920 1_455 S
O542 C515 1.289 1_456 S
C543 O535 1.258 . S
C543 O536 1.266 1_455 S
Co544 O547 1.970 . S
Co544 N561 1.989 . S
Co544 O569 1.967 . S
Co544 O576 1.920 . S
Co545 O548 1.966 . S
Co545 N554 2.022 . S
Co545 N562 1.993 . S
Co545 O570 1.941 . S
C546 O547 1.258 . S
C546 O548 1.263 . S
O547 Co544 1.970 . S
O547 C546 1.258 . S
O548 Co545 1.966 . S
O548 C546 1.263 . S
C549 O550 1.235 . S
C549 O576 1.289 . S
O550 C549 1.235 . S
C551 C553 1.400 . S
C551 N554 1.351 . S
C551 C556 1.501 . S
C552 C553 1.387 . S
C552 N555 1.341 . S
C553 C551 1.400 . S
C553 C552 1.387 . S
N554 Co545 2.022 . S
N554 C551 1.351 . S
N554 N555 1.365 . S
N555 C552 1.341 . S
N555 N554 1.365 . S
N555 H575 0.862 . S
C556 C551 1.501 . S
C556 H557 0.961 . S
C556 H558 0.961 . S
C556 H559 0.960 . S
H557 C556 0.961 . S
H558 C556 0.961 . S
H559 C556 0.960 . S
C560 N561 1.342 . S
C560 C564 1.401 . S
C560 C565 1.499 . S
N561 Co544 1.989 . S
N561 C560 1.342 . S
N561 N562 1.388 . S
N562 Co545 1.993 . S
N562 N561 1.388 . S
N562 C563 1.346 . S
C563 N562 1.346 . S
C563 C564 1.396 . S
C563 C573 1.510 . S
C564 C560 1.401 . S
C564 C563 1.396 . S
C565 C560 1.499 . S
C565 H566 0.959 . S
C565 H567 0.960 . S
C565 H568 0.961 . S
H566 C565 0.959 . S
H567 C565 0.960 . S
H568 C565 0.961 . S
O569 Co544 1.967 . S
O569 C577 1.258 . S
O570 Co545 1.941 . S
O570 C577 1.266 . S
H571 C573 0.959 . S
H572 C573 0.961 . S
C573 C563 1.510 . S
C573 H571 0.959 . S
C573 H572 0.961 . S
C573 H574 0.960 . S
H574 C573 0.960 . S
H575 N555 0.862 . S
O576 Co544 1.920 . S
O576 C549 1.289 . S
C577 O569 1.258 . S
C577 O570 1.266 . S
Co578 O581 1.970 . S
Co578 N595 1.989 . S
Co578 O603 1.967 . S
Co578 O610 1.920 . S
Co579 O582 1.966 . S
Co579 N588 2.022 . S
Co579 N596 1.993 . S
Co579 O604 1.941 . S
C580 O581 1.258 . S
C580 O582 1.263 . S
O581 Co578 1.970 . S
O581 C580 1.258 . S
O582 Co579 1.966 . S
O582 C580 1.263 . S
C583 O584 1.235 . S
C583 O610 1.289 1_554 S
O584 C583 1.235 . S
C585 C587 1.400 . S
C585 N588 1.351 . S
C585 C590 1.501 . S
C586 C587 1.387 . S
C586 N589 1.341 . S
C587 C585 1.400 . S
C587 C586 1.387 . S
N588 Co579 2.022 . S
N588 C585 1.351 . S
N588 N589 1.365 . S
N589 C586 1.341 . S
N589 N588 1.365 . S
N589 H609 0.862 . S
C590 C585 1.501 . S
C590 H591 0.961 . S
C590 H592 0.961 . S
C590 H593 0.960 . S
H591 C590 0.961 . S
H592 C590 0.961 . S
H593 C590 0.960 . S
C594 N595 1.342 1_554 S
C594 C598 1.401 . S
C594 C599 1.499 . S
N595 Co578 1.989 . S
N595 C594 1.342 1_556 S
N595 N596 1.388 . S
N596 Co579 1.993 . S
N596 N595 1.388 . S
N596 C597 1.346 . S
C597 N596 1.346 . S
C597 C598 1.396 1_556 S
C597 C607 1.510 . S
C598 C594 1.401 . S
C598 C597 1.396 1_554 S
C599 C594 1.499 . S
C599 H600 0.959 . S
C599 H601 0.960 . S
C599 H602 0.961 . S
H600 C599 0.959 . S
H601 C599 0.960 . S
H602 C599 0.961 . S
O603 Co578 1.967 . S
O603 C611 1.258 . S
O604 Co579 1.941 . S
O604 C611 1.266 . S
H605 C607 0.959 . S
H606 C607 0.961 . S
C607 C597 1.510 . S
C607 H605 0.959 . S
C607 H606 0.961 . S
C607 H608 0.960 . S
H608 C607 0.960 . S
H609 N589 0.862 . S
O610 Co578 1.920 . S
O610 C583 1.289 1_556 S
C611 O603 1.258 . S
C611 O604 1.266 . S
Co612 O615 1.970 . S
Co612 N629 1.989 . S
Co612 O637 1.967 . S
Co612 O644 1.920 . S
Co613 O616 1.966 . S
Co613 N622 2.022 . S
Co613 N630 1.993 . S
Co613 O638 1.941 . S
C614 O615 1.258 . S
C614 O616 1.263 . S
O615 Co612 1.970 . S
O615 C614 1.258 . S
O616 Co613 1.966 . S
O616 C614 1.263 . S
C617 O618 1.235 . S
C617 O644 1.289 . S
O618 C617 1.235 . S
C619 C621 1.400 . S
C619 N622 1.351 . S
C619 C624 1.501 . S
C620 C621 1.387 . S
C620 N623 1.341 . S
C621 C619 1.400 . S
C621 C620 1.387 . S
N622 Co613 2.022 . S
N622 C619 1.351 . S
N622 N623 1.365 . S
N623 C620 1.341 . S
N623 N622 1.365 . S
N623 H643 0.862 . S
C624 C619 1.501 . S
C624 H625 0.961 . S
C624 H626 0.961 . S
C624 H627 0.960 . S
H625 C624 0.961 . S
H626 C624 0.961 . S
H627 C624 0.960 . S
C628 N629 1.342 . S
C628 C632 1.401 . S
C628 C633 1.499 . S
N629 Co612 1.989 . S
N629 C628 1.342 . S
N629 N630 1.388 . S
N630 Co613 1.993 . S
N630 N629 1.388 . S
N630 C631 1.346 . S
C631 N630 1.346 . S
C631 C632 1.396 . S
C631 C641 1.510 . S
C632 C628 1.401 . S
C632 C631 1.396 . S
C633 C628 1.499 . S
C633 H634 0.959 . S
C633 H635 0.960 . S
C633 H636 0.961 . S
H634 C633 0.959 . S
H635 C633 0.960 . S
H636 C633 0.961 . S
O637 Co612 1.967 . S
O637 C645 1.258 . S
O638 Co613 1.941 . S
O638 C645 1.266 . S
H639 C641 0.959 . S
H640 C641 0.961 . S
C641 C631 1.510 . S
C641 H639 0.959 . S
C641 H640 0.961 . S
C641 H642 0.960 . S
H642 C641 0.960 . S
H643 N623 0.862 . S
O644 Co612 1.920 . S
O644 C617 1.289 . S
C645 O637 1.258 . S
C645 O638 1.266 . S
Co646 O649 1.970 . S
Co646 N663 1.989 . S
Co646 O671 1.967 1_655 S
Co646 O678 1.920 1_655 S
Co647 O650 1.966 . S
Co647 N656 2.022 . S
Co647 N664 1.993 . S
Co647 O672 1.941 . S
C648 O649 1.258 . S
C648 O650 1.263 . S
O649 Co646 1.970 . S
O649 C648 1.258 . S
O650 Co647 1.966 . S
O650 C648 1.263 . S
C651 O652 1.235 . S
C651 O678 1.289 1_655 S
O652 C651 1.235 . S
C653 C655 1.400 . S
C653 N656 1.351 . S
C653 C658 1.501 . S
C654 C655 1.387 . S
C654 N657 1.341 . S
C655 C653 1.400 . S
C655 C654 1.387 . S
N656 Co647 2.022 . S
N656 C653 1.351 . S
N656 N657 1.365 . S
N657 C654 1.341 . S
N657 N656 1.365 . S
N657 H677 0.862 . S
C658 C653 1.501 . S
C658 H659 0.961 . S
C658 H660 0.961 . S
C658 H661 0.960 . S
H659 C658 0.961 . S
H660 C658 0.961 . S
H661 C658 0.960 . S
C662 N663 1.342 . S
C662 C666 1.401 . S
C662 C667 1.499 1_655 S
N663 Co646 1.989 . S
N663 C662 1.342 . S
N663 N664 1.388 . S
N664 Co647 1.993 . S
N664 N663 1.388 . S
N664 C665 1.346 . S
C665 N664 1.346 . S
C665 C666 1.396 . S
C665 C675 1.510 . S
C666 C662 1.401 . S
C666 C665 1.396 . S
C667 C662 1.499 1_455 S
C667 H668 0.959 . S
C667 H669 0.960 1_455 S
C667 H670 0.961 . S
H668 C667 0.959 . S
H669 C667 0.960 1_655 S
H670 C667 0.961 . S
O671 Co646 1.967 1_455 S
O671 C679 1.258 . S
O672 Co647 1.941 . S
O672 C679 1.266 1_655 S
H673 C675 0.959 . S
H674 C675 0.961 . S
C675 C665 1.510 . S
C675 H673 0.959 . S
C675 H674 0.961 . S
C675 H676 0.960 . S
H676 C675 0.960 . S
H677 N657 0.862 . S
O678 Co646 1.920 1_455 S
O678 C651 1.289 1_455 S
C679 O671 1.258 . S
C679 O672 1.266 1_455 S
Co680 O683 1.970 . S
Co680 N697 1.989 . S
Co680 O705 1.967 . S
Co680 O712 1.920 . S
Co681 O684 1.966 . S
Co681 N690 2.022 . S
Co681 N698 1.993 . S
Co681 O706 1.941 . S
C682 O683 1.258 . S
C682 O684 1.263 . S
O683 Co680 1.970 . S
O683 C682 1.258 . S
O684 Co681 1.966 . S
O684 C682 1.263 . S
C685 O686 1.235 . S
C685 O712 1.289 . S
O686 C685 1.235 . S
C687 C689 1.400 . S
C687 N690 1.351 . S
C687 C692 1.501 . S
C688 C689 1.387 . S
C688 N691 1.341 . S
C689 C687 1.400 . S
C689 C688 1.387 . S
N690 Co681 2.022 . S
N690 C687 1.351 . S
N690 N691 1.365 . S
N691 C688 1.341 . S
N691 N690 1.365 . S
N691 H711 0.862 . S
C692 C687 1.501 . S
C692 H693 0.961 . S
C692 H694 0.961 . S
C692 H695 0.960 . S
H693 C692 0.961 . S
H694 C692 0.961 . S
H695 C692 0.960 . S
C696 N697 1.342 . S
C696 C700 1.401 . S
C696 C701 1.499 . S
N697 Co680 1.989 . S
N697 C696 1.342 . S
N697 N698 1.388 . S
N698 Co681 1.993 . S
N698 N697 1.388 . S
N698 C699 1.346 . S
C699 N698 1.346 . S
C699 C700 1.396 . S
C699 C709 1.510 . S
C700 C696 1.401 . S
C700 C699 1.396 . S
C701 C696 1.499 . S
C701 H702 0.959 . S
C701 H703 0.960 . S
C701 H704 0.961 . S
H702 C701 0.959 . S
H703 C701 0.960 . S
H704 C701 0.961 . S
O705 Co680 1.967 . S
O705 C713 1.258 . S
O706 Co681 1.941 . S
O706 C713 1.266 . S
H707 C709 0.959 . S
H708 C709 0.961 . S
C709 C699 1.510 . S
C709 H707 0.959 . S
C709 H708 0.961 . S
C709 H710 0.960 . S
H710 C709 0.960 . S
H711 N691 0.862 . S
O712 Co680 1.920 . S
O712 C685 1.289 . S
C713 O705 1.258 . S
C713 O706 1.266 . S
Co714 O717 1.970 . S
Co714 N731 1.989 . S
Co714 O739 1.967 1_655 S
Co714 O746 1.920 1_655 S
Co715 O718 1.966 . S
Co715 N724 2.022 . S
Co715 N732 1.993 . S
Co715 O740 1.941 . S
C716 O717 1.258 . S
C716 O718 1.263 . S
O717 Co714 1.970 . S
O717 C716 1.258 . S
O718 Co715 1.966 . S
O718 C716 1.263 . S
C719 O720 1.235 . S
C719 O746 1.289 1_656 S
O720 C719 1.235 . S
C721 C723 1.400 . S
C721 N724 1.351 . S
C721 C726 1.501 . S
C722 C723 1.387 . S
C722 N725 1.341 . S
C723 C721 1.400 . S
C723 C722 1.387 . S
N724 Co715 2.022 . S
N724 C721 1.351 . S
N724 N725 1.365 . S
N725 C722 1.341 . S
N725 N724 1.365 . S
N725 H745 0.862 . S
C726 C721 1.501 . S
C726 H727 0.961 . S
C726 H728 0.961 . S
C726 H729 0.960 . S
H727 C726 0.961 . S
H728 C726 0.961 . S
H729 C726 0.960 . S
C730 N731 1.342 1_556 S
C730 C734 1.401 . S
C730 C735 1.499 1_655 S
N731 Co714 1.989 . S
N731 C730 1.342 1_554 S
N731 N732 1.388 . S
N732 Co715 1.993 . S
N732 N731 1.388 . S
N732 C733 1.346 . S
C733 N732 1.346 . S
C733 C734 1.396 1_554 S
C733 C743 1.510 . S
C734 C730 1.401 . S
C734 C733 1.396 1_556 S
C735 C730 1.499 1_455 S
C735 H736 0.959 . S
C735 H737 0.960 1_455 S
C735 H738 0.961 . S
H736 C735 0.959 . S
H737 C735 0.960 1_655 S
H738 C735 0.961 . S
O739 Co714 1.967 1_455 S
O739 C747 1.258 . S
O740 Co715 1.941 . S
O740 C747 1.266 1_655 S
H741 C743 0.959 . S
H742 C743 0.961 . S
C743 C733 1.510 . S
C743 H741 0.959 . S
C743 H742 0.961 . S
C743 H744 0.960 . S
H744 C743 0.960 . S
H745 N725 0.862 . S
O746 Co714 1.920 1_455 S
O746 C719 1.289 1_454 S
C747 O739 1.258 . S
C747 O740 1.266 1_455 S
Co748 O751 1.970 . S
Co748 N765 1.989 . S
Co748 O773 1.967 . S
Co748 O780 1.920 . S
Co749 O752 1.966 . S
Co749 N758 2.022 . S
Co749 N766 1.993 . S
Co749 O774 1.941 . S
C750 O751 1.258 . S
C750 O752 1.263 . S
O751 Co748 1.970 . S
O751 C750 1.258 . S
O752 Co749 1.966 . S
O752 C750 1.263 . S
C753 O754 1.235 . S
C753 O780 1.289 . S
O754 C753 1.235 . S
C755 C757 1.400 . S
C755 N758 1.351 . S
C755 C760 1.501 . S
C756 C757 1.387 . S
C756 N759 1.341 . S
C757 C755 1.400 . S
C757 C756 1.387 . S
N758 Co749 2.022 . S
N758 C755 1.351 . S
N758 N759 1.365 . S
N759 C756 1.341 . S
N759 N758 1.365 . S
N759 H779 0.862 . S
C760 C755 1.501 . S
C760 H761 0.961 . S
C760 H762 0.961 . S
C760 H763 0.960 . S
H761 C760 0.961 . S
H762 C760 0.961 . S
H763 C760 0.960 . S
C764 N765 1.342 . S
C764 C768 1.401 . S
C764 C769 1.499 . S
N765 Co748 1.989 . S
N765 C764 1.342 . S
N765 N766 1.388 . S
N766 Co749 1.993 . S
N766 N765 1.388 . S
N766 C767 1.346 . S
C767 N766 1.346 . S
C767 C768 1.396 . S
C767 C777 1.510 . S
C768 C764 1.401 . S
C768 C767 1.396 . S
C769 C764 1.499 . S
C769 H770 0.959 . S
C769 H771 0.960 . S
C769 H772 0.961 . S
H770 C769 0.959 . S
H771 C769 0.960 . S
H772 C769 0.961 . S
O773 Co748 1.967 . S
O773 C781 1.258 . S
O774 Co749 1.941 . S
O774 C781 1.266 . S
H775 C777 0.959 . S
H776 C777 0.961 . S
C777 C767 1.510 . S
C777 H775 0.959 . S
C777 H776 0.961 . S
C777 H778 0.960 . S
H778 C777 0.960 . S
H779 N759 0.862 . S
O780 Co748 1.920 . S
O780 C753 1.289 . S
C781 O773 1.258 . S
C781 O774 1.266 . S
Co782 O785 1.970 . S
Co782 N799 1.989 . S
Co782 O807 1.967 . S
Co782 O814 1.920 . S
Co783 O786 1.966 . S
Co783 N792 2.022 . S
Co783 N800 1.993 . S
Co783 O808 1.941 . S
C784 O785 1.258 . S
C784 O786 1.263 . S
O785 Co782 1.970 . S
O785 C784 1.258 . S
O786 Co783 1.966 . S
O786 C784 1.263 . S
C787 O788 1.235 . S
C787 O814 1.289 . S
O788 C787 1.235 . S
C789 C791 1.400 . S
C789 N792 1.351 . S
C789 C794 1.501 . S
C790 C791 1.387 . S
C790 N793 1.341 . S
C791 C789 1.400 . S
C791 C790 1.387 . S
N792 Co783 2.022 . S
N792 C789 1.351 . S
N792 N793 1.365 . S
N793 C790 1.341 . S
N793 N792 1.365 . S
N793 H813 0.862 . S
C794 C789 1.501 . S
C794 H795 0.961 . S
C794 H796 0.961 . S
C794 H797 0.960 . S
H795 C794 0.961 . S
H796 C794 0.961 . S
H797 C794 0.960 . S
C798 N799 1.342 . S
C798 C802 1.401 . S
C798 C803 1.499 . S
N799 Co782 1.989 . S
N799 C798 1.342 . S
N799 N800 1.388 . S
N800 Co783 1.993 . S
N800 N799 1.388 . S
N800 C801 1.346 . S
C801 N800 1.346 . S
C801 C802 1.396 . S
C801 C811 1.510 . S
C802 C798 1.401 . S
C802 C801 1.396 . S
C803 C798 1.499 . S
C803 H804 0.959 . S
C803 H805 0.960 . S
C803 H806 0.961 . S
H804 C803 0.959 . S
H805 C803 0.960 . S
H806 C803 0.961 . S
O807 Co782 1.967 . S
O807 C815 1.258 . S
O808 Co783 1.941 . S
O808 C815 1.266 . S
H809 C811 0.959 . S
H810 C811 0.961 . S
C811 C801 1.510 . S
C811 H809 0.959 . S
C811 H810 0.961 . S
C811 H812 0.960 . S
H812 C811 0.960 . S
H813 N793 0.862 . S
O814 Co782 1.920 . S
O814 C787 1.289 . S
C815 O807 1.258 . S
C815 O808 1.266 . S
Co816 O819 1.970 . S
Co816 N833 1.989 . S
Co816 O841 1.967 . S
Co816 O848 1.920 . S
Co817 O820 1.966 . S
Co817 N826 2.022 . S
Co817 N834 1.993 . S
Co817 O842 1.941 . S
C818 O819 1.258 . S
C818 O820 1.263 . S
O819 Co816 1.970 . S
O819 C818 1.258 . S
O820 Co817 1.966 . S
O820 C818 1.263 . S
C821 O822 1.235 . S
C821 O848 1.289 . S
O822 C821 1.235 . S
C823 C825 1.400 . S
C823 N826 1.351 . S
C823 C828 1.501 . S
C824 C825 1.387 . S
C824 N827 1.341 . S
C825 C823 1.400 . S
C825 C824 1.387 . S
N826 Co817 2.022 . S
N826 C823 1.351 . S
N826 N827 1.365 . S
N827 C824 1.341 . S
N827 N826 1.365 . S
N827 H847 0.862 . S
C828 C823 1.501 . S
C828 H829 0.961 . S
C828 H830 0.961 . S
C828 H831 0.960 . S
H829 C828 0.961 . S
H830 C828 0.961 . S
H831 C828 0.960 . S
C832 N833 1.342 . S
C832 C836 1.401 . S
C832 C837 1.499 . S
N833 Co816 1.989 . S
N833 C832 1.342 . S
N833 N834 1.388 . S
N834 Co817 1.993 . S
N834 N833 1.388 . S
N834 C835 1.346 . S
C835 N834 1.346 . S
C835 C836 1.396 . S
C835 C845 1.510 . S
C836 C832 1.401 . S
C836 C835 1.396 . S
C837 C832 1.499 . S
C837 H838 0.959 . S
C837 H839 0.960 . S
C837 H840 0.961 . S
H838 C837 0.959 . S
H839 C837 0.960 . S
H840 C837 0.961 . S
O841 Co816 1.967 . S
O841 C849 1.258 . S
O842 Co817 1.941 . S
O842 C849 1.266 . S
H843 C845 0.959 . S
H844 C845 0.961 . S
C845 C835 1.510 . S
C845 H843 0.959 . S
C845 H844 0.961 . S
C845 H846 0.960 . S
H846 C845 0.960 . S
H847 N827 0.862 . S
O848 Co816 1.920 . S
O848 C821 1.289 . S
C849 O841 1.258 . S
C849 O842 1.266 . S
Co850 O853 1.970 . S
Co850 N867 1.989 . S
Co850 O875 1.967 . S
Co850 O882 1.920 . S
Co851 O854 1.966 . S
Co851 N860 2.022 . S
Co851 N868 1.993 . S
Co851 O876 1.941 . S
C852 O853 1.258 . S
C852 O854 1.263 . S
O853 Co850 1.970 . S
O853 C852 1.258 . S
O854 Co851 1.966 . S
O854 C852 1.263 . S
C855 O856 1.235 . S
C855 O882 1.289 1_556 S
O856 C855 1.235 . S
C857 C859 1.400 . S
C857 N860 1.351 . S
C857 C862 1.501 . S
C858 C859 1.387 . S
C858 N861 1.341 . S
C859 C857 1.400 . S
C859 C858 1.387 . S
N860 Co851 2.022 . S
N860 C857 1.351 . S
N860 N861 1.365 . S
N861 C858 1.341 . S
N861 N860 1.365 . S
N861 H881 0.862 . S
C862 C857 1.501 . S
C862 H863 0.961 . S
C862 H864 0.961 . S
C862 H865 0.960 . S
H863 C862 0.961 . S
H864 C862 0.961 . S
H865 C862 0.960 . S
C866 N867 1.342 1_556 S
C866 C870 1.401 . S
C866 C871 1.499 . S
N867 Co850 1.989 . S
N867 C866 1.342 1_554 S
N867 N868 1.388 . S
N868 Co851 1.993 . S
N868 N867 1.388 . S
N868 C869 1.346 . S
C869 N868 1.346 . S
C869 C870 1.396 1_554 S
C869 C879 1.510 . S
C870 C866 1.401 . S
C870 C869 1.396 1_556 S
C871 C866 1.499 . S
C871 H872 0.959 . S
C871 H873 0.960 . S
C871 H874 0.961 . S
H872 C871 0.959 . S
H873 C871 0.960 . S
H874 C871 0.961 . S
O875 Co850 1.967 . S
O875 C883 1.258 . S
O876 Co851 1.941 . S
O876 C883 1.266 . S
H877 C879 0.959 . S
H878 C879 0.961 . S
C879 C869 1.510 . S
C879 H877 0.959 . S
C879 H878 0.961 . S
C879 H880 0.960 . S
H880 C879 0.960 . S
H881 N861 0.862 . S
O882 Co850 1.920 . S
O882 C855 1.289 1_554 S
C883 O875 1.258 . S
C883 O876 1.266 . S
Co884 O887 1.970 . S
Co884 N901 1.989 . S
Co884 O909 1.967 . S
Co884 O916 1.920 . S
Co885 O888 1.966 . S
Co885 N894 2.022 . S
Co885 N902 1.993 . S
Co885 O910 1.941 . S
C886 O887 1.258 . S
C886 O888 1.263 . S
O887 Co884 1.970 . S
O887 C886 1.258 . S
O888 Co885 1.966 . S
O888 C886 1.263 . S
C889 O890 1.235 . S
C889 O916 1.289 . S
O890 C889 1.235 . S
C891 C893 1.400 . S
C891 N894 1.351 . S
C891 C896 1.501 . S
C892 C893 1.387 . S
C892 N895 1.341 . S
C893 C891 1.400 . S
C893 C892 1.387 . S
N894 Co885 2.022 . S
N894 C891 1.351 . S
N894 N895 1.365 . S
N895 C892 1.341 . S
N895 N894 1.365 . S
N895 H915 0.862 . S
C896 C891 1.501 . S
C896 H897 0.961 . S
C896 H898 0.961 . S
C896 H899 0.960 . S
H897 C896 0.961 . S
H898 C896 0.961 . S
H899 C896 0.960 . S
C900 N901 1.342 . S
C900 C904 1.401 . S
C900 C905 1.499 . S
N901 Co884 1.989 . S
N901 C900 1.342 . S
N901 N902 1.388 . S
N902 Co885 1.993 . S
N902 N901 1.388 . S
N902 C903 1.346 . S
C903 N902 1.346 . S
C903 C904 1.396 . S
C903 C913 1.510 . S
C904 C900 1.401 . S
C904 C903 1.396 . S
C905 C900 1.499 . S
C905 H906 0.959 . S
C905 H907 0.960 . S
C905 H908 0.961 . S
H906 C905 0.959 . S
H907 C905 0.960 . S
H908 C905 0.961 . S
O909 Co884 1.967 . S
O909 C917 1.258 . S
O910 Co885 1.941 . S
O910 C917 1.266 . S
H911 C913 0.959 . S
H912 C913 0.961 . S
C913 C903 1.510 . S
C913 H911 0.959 . S
C913 H912 0.961 . S
C913 H914 0.960 . S
H914 C913 0.960 . S
H915 N895 0.862 . S
O916 Co884 1.920 . S
O916 C889 1.289 . S
C917 O909 1.258 . S
C917 O910 1.266 . S
Co918 O921 1.970 . S
Co918 N935 1.989 . S
Co918 O943 1.967 1_455 S
Co918 O950 1.920 1_455 S
Co919 O922 1.966 . S
Co919 N928 2.022 . S
Co919 N936 1.993 . S
Co919 O944 1.941 . S
C920 O921 1.258 . S
C920 O922 1.263 . S
O921 Co918 1.970 . S
O921 C920 1.258 . S
O922 Co919 1.966 . S
O922 C920 1.263 . S
C923 O924 1.235 . S
C923 O950 1.289 1_455 S
O924 C923 1.235 . S
C925 C927 1.400 . S
C925 N928 1.351 . S
C925 C930 1.501 . S
C926 C927 1.387 . S
C926 N929 1.341 . S
C927 C925 1.400 . S
C927 C926 1.387 . S
N928 Co919 2.022 . S
N928 C925 1.351 . S
N928 N929 1.365 . S
N929 C926 1.341 . S
N929 N928 1.365 . S
N929 H949 0.862 . S
C930 C925 1.501 . S
C930 H931 0.961 . S
C930 H932 0.961 . S
C930 H933 0.960 . S
H931 C930 0.961 . S
H932 C930 0.961 . S
H933 C930 0.960 . S
C934 N935 1.342 . S
C934 C938 1.401 . S
C934 C939 1.499 1_455 S
N935 Co918 1.989 . S
N935 C934 1.342 . S
N935 N936 1.388 . S
N936 Co919 1.993 . S
N936 N935 1.388 . S
N936 C937 1.346 . S
C937 N936 1.346 . S
C937 C938 1.396 . S
C937 C947 1.510 . S
C938 C934 1.401 . S
C938 C937 1.396 . S
C939 C934 1.499 1_655 S
C939 H940 0.959 . S
C939 H941 0.960 1_655 S
C939 H942 0.961 . S
H940 C939 0.959 . S
H941 C939 0.960 1_455 S
H942 C939 0.961 . S
O943 Co918 1.967 1_655 S
O943 C951 1.258 . S
O944 Co919 1.941 . S
O944 C951 1.266 1_455 S
H945 C947 0.959 . S
H946 C947 0.961 . S
C947 C937 1.510 . S
C947 H945 0.959 . S
C947 H946 0.961 . S
C947 H948 0.960 . S
H948 C947 0.960 . S
H949 N929 0.862 . S
O950 Co918 1.920 1_655 S
O950 C923 1.289 1_655 S
C951 O943 1.258 . S
C951 O944 1.266 1_655 S
Co952 O955 1.970 . S
Co952 N969 1.989 . S
Co952 O977 1.967 . S
Co952 O984 1.920 . S
Co953 O956 1.966 . S
Co953 N962 2.022 . S
Co953 N970 1.993 . S
Co953 O978 1.941 . S
C954 O955 1.258 . S
C954 O956 1.263 . S
O955 Co952 1.970 . S
O955 C954 1.258 . S
O956 Co953 1.966 . S
O956 C954 1.263 . S
C957 O958 1.235 . S
C957 O984 1.289 . S
O958 C957 1.235 . S
C959 C961 1.400 . S
C959 N962 1.351 . S
C959 C964 1.501 . S
C960 C961 1.387 . S
C960 N963 1.341 . S
C961 C959 1.400 . S
C961 C960 1.387 . S
N962 Co953 2.022 . S
N962 C959 1.351 . S
N962 N963 1.365 . S
N963 C960 1.341 . S
N963 N962 1.365 . S
N963 H983 0.862 . S
C964 C959 1.501 . S
C964 H965 0.961 . S
C964 H966 0.961 . S
C964 H967 0.960 . S
H965 C964 0.961 . S
H966 C964 0.961 . S
H967 C964 0.960 . S
C968 N969 1.342 . S
C968 C972 1.401 . S
C968 C973 1.499 . S
N969 Co952 1.989 . S
N969 C968 1.342 . S
N969 N970 1.388 . S
N970 Co953 1.993 . S
N970 N969 1.388 . S
N970 C971 1.346 . S
C971 N970 1.346 . S
C971 C972 1.396 . S
C971 C981 1.510 . S
C972 C968 1.401 . S
C972 C971 1.396 . S
C973 C968 1.499 . S
C973 H974 0.959 . S
C973 H975 0.960 . S
C973 H976 0.961 . S
H974 C973 0.959 . S
H975 C973 0.960 . S
H976 C973 0.961 . S
O977 Co952 1.967 . S
O977 C985 1.258 . S
O978 Co953 1.941 . S
O978 C985 1.266 . S
H979 C981 0.959 . S
H980 C981 0.961 . S
C981 C971 1.510 . S
C981 H979 0.959 . S
C981 H980 0.961 . S
C981 H982 0.960 . S
H982 C981 0.960 . S
H983 N963 0.862 . S
O984 Co952 1.920 . S
O984 C957 1.289 . S
C985 O977 1.258 . S
C985 O978 1.266 . S
Co986 O989 1.970 . S
Co986 N1003 1.989 . S
Co986 O1011 1.967 1_455 S
Co986 O1018 1.920 1_455 S
Co987 O990 1.966 . S
Co987 N996 2.022 . S
Co987 N1004 1.993 . S
Co987 O1012 1.941 . S
C988 O989 1.258 . S
C988 O990 1.263 . S
O989 Co986 1.970 . S
O989 C988 1.258 . S
O990 Co987 1.966 . S
O990 C988 1.263 . S
C991 O992 1.235 . S
C991 O1018 1.289 1_454 S
O992 C991 1.235 . S
C993 C995 1.400 . S
C993 N996 1.351 . S
C993 C998 1.501 . S
C994 C995 1.387 . S
C994 N997 1.341 . S
C995 C993 1.400 . S
C995 C994 1.387 . S
N996 Co987 2.022 . S
N996 C993 1.351 . S
N996 N997 1.365 . S
N997 C994 1.341 . S
N997 N996 1.365 . S
N997 H1017 0.862 . S
C998 C993 1.501 . S
C998 H999 0.961 . S
C998 H1000 0.961 . S
C998 H1001 0.960 . S
H999 C998 0.961 . S
H1000 C998 0.961 . S
H1001 C998 0.960 . S
C1002 N1003 1.342 1_554 S
C1002 C1006 1.401 . S
C1002 C1007 1.499 1_455 S
N1003 Co986 1.989 . S
N1003 C1002 1.342 1_556 S
N1003 N1004 1.388 . S
N1004 Co987 1.993 . S
N1004 N1003 1.388 . S
N1004 C1005 1.346 . S
C1005 N1004 1.346 . S
C1005 C1006 1.396 1_556 S
C1005 C1015 1.510 . S
C1006 C1002 1.401 . S
C1006 C1005 1.396 1_554 S
C1007 C1002 1.499 1_655 S
C1007 H1008 0.959 . S
C1007 H1009 0.960 1_655 S
C1007 H1010 0.961 . S
H1008 C1007 0.959 . S
H1009 C1007 0.960 1_455 S
H1010 C1007 0.961 . S
O1011 Co986 1.967 1_655 S
O1011 C1019 1.258 . S
O1012 Co987 1.941 . S
O1012 C1019 1.266 1_455 S
H1013 C1015 0.959 . S
H1014 C1015 0.961 . S
C1015 C1005 1.510 . S
C1015 H1013 0.959 . S
C1015 H1014 0.961 . S
C1015 H1016 0.960 . S
H1016 C1015 0.960 . S
H1017 N997 0.862 . S
O1018 Co986 1.920 1_655 S
O1018 C991 1.289 1_656 S
C1019 O1011 1.258 . S
C1019 O1012 1.266 1_655 S
Co1020 O1023 1.970 . S
Co1020 N1037 1.989 . S
Co1020 O1045 1.967 . S
Co1020 O1052 1.920 . S
Co1021 O1024 1.966 . S
Co1021 N1030 2.022 . S
Co1021 N1038 1.993 . S
Co1021 O1046 1.941 . S
C1022 O1023 1.258 . S
C1022 O1024 1.263 . S
O1023 Co1020 1.970 . S
O1023 C1022 1.258 . S
O1024 Co1021 1.966 . S
O1024 C1022 1.263 . S
C1025 O1026 1.235 . S
C1025 O1052 1.289 . S
O1026 C1025 1.235 . S
C1027 C1029 1.400 . S
C1027 N1030 1.351 . S
C1027 C1032 1.501 . S
C1028 C1029 1.387 . S
C1028 N1031 1.341 . S
C1029 C1027 1.400 . S
C1029 C1028 1.387 . S
N1030 Co1021 2.022 . S
N1030 C1027 1.351 . S
N1030 N1031 1.365 . S
N1031 C1028 1.341 . S
N1031 N1030 1.365 . S
N1031 H1051 0.862 . S
C1032 C1027 1.501 . S
C1032 H1033 0.961 . S
C1032 H1034 0.961 . S
C1032 H1035 0.960 . S
H1033 C1032 0.961 . S
H1034 C1032 0.961 . S
H1035 C1032 0.960 . S
C1036 N1037 1.342 . S
C1036 C1040 1.401 . S
C1036 C1041 1.499 . S
N1037 Co1020 1.989 . S
N1037 C1036 1.342 . S
N1037 N1038 1.388 . S
N1038 Co1021 1.993 . S
N1038 N1037 1.388 . S
N1038 C1039 1.346 . S
C1039 N1038 1.346 . S
C1039 C1040 1.396 . S
C1039 C1049 1.510 . S
C1040 C1036 1.401 . S
C1040 C1039 1.396 . S
C1041 C1036 1.499 . S
C1041 H1042 0.959 . S
C1041 H1043 0.960 . S
C1041 H1044 0.961 . S
H1042 C1041 0.959 . S
H1043 C1041 0.960 . S
H1044 C1041 0.961 . S
O1045 Co1020 1.967 . S
O1045 C1053 1.258 . S
O1046 Co1021 1.941 . S
O1046 C1053 1.266 . S
H1047 C1049 0.959 . S
H1048 C1049 0.961 . S
C1049 C1039 1.510 . S
C1049 H1047 0.959 . S
C1049 H1048 0.961 . S
C1049 H1050 0.960 . S
H1050 C1049 0.960 . S
H1051 N1031 0.862 . S
O1052 Co1020 1.920 . S
O1052 C1025 1.289 . S
C1053 O1045 1.258 . S
C1053 O1046 1.266 . S
Co1054 O1057 1.970 . S
Co1054 N1071 1.989 . S
Co1054 O1079 1.967 . S
Co1054 O1086 1.920 . S
Co1055 O1058 1.966 . S
Co1055 N1064 2.022 . S
Co1055 N1072 1.993 . S
Co1055 O1080 1.941 . S
C1056 O1057 1.258 . S
C1056 O1058 1.263 . S
O1057 Co1054 1.970 . S
O1057 C1056 1.258 . S
O1058 Co1055 1.966 . S
O1058 C1056 1.263 . S
C1059 O1060 1.235 . S
C1059 O1086 1.289 . S
O1060 C1059 1.235 . S
C1061 C1063 1.400 . S
C1061 N1064 1.351 . S
C1061 C1066 1.501 . S
C1062 C1063 1.387 . S
C1062 N1065 1.341 . S
C1063 C1061 1.400 . S
C1063 C1062 1.387 . S
N1064 Co1055 2.022 . S
N1064 C1061 1.351 . S
N1064 N1065 1.365 . S
N1065 C1062 1.341 . S
N1065 N1064 1.365 . S
N1065 H1085 0.862 . S
C1066 C1061 1.501 . S
C1066 H1067 0.961 . S
C1066 H1068 0.961 . S
C1066 H1069 0.960 . S
H1067 C1066 0.961 . S
H1068 C1066 0.961 . S
H1069 C1066 0.960 . S
C1070 N1071 1.342 . S
C1070 C1074 1.401 . S
C1070 C1075 1.499 . S
N1071 Co1054 1.989 . S
N1071 C1070 1.342 . S
N1071 N1072 1.388 . S
N1072 Co1055 1.993 . S
N1072 N1071 1.388 . S
N1072 C1073 1.346 . S
C1073 N1072 1.346 . S
C1073 C1074 1.396 . S
C1073 C1083 1.510 . S
C1074 C1070 1.401 . S
C1074 C1073 1.396 . S
C1075 C1070 1.499 . S
C1075 H1076 0.959 . S
C1075 H1077 0.960 . S
C1075 H1078 0.961 . S
H1076 C1075 0.959 . S
H1077 C1075 0.960 . S
H1078 C1075 0.961 . S
O1079 Co1054 1.967 . S
O1079 C1087 1.258 . S
O1080 Co1055 1.941 . S
O1080 C1087 1.266 . S
H1081 C1083 0.959 . S
H1082 C1083 0.961 . S
C1083 C1073 1.510 . S
C1083 H1081 0.959 . S
C1083 H1082 0.961 . S
C1083 H1084 0.960 . S
H1084 C1083 0.960 . S
H1085 N1065 0.862 . S
O1086 Co1054 1.920 . S
O1086 C1059 1.289 . S
C1087 O1079 1.258 . S
C1087 O1080 1.266 . S
C617 C5 0.733 . S
C39 C651 0.733 1_455 S
C73 C549 0.733 1_455 S
C583 C107 0.733 . S
C141 C753 0.733 . S
C787 C175 0.733 . S
C209 C685 0.733 1_455 S
C243 C719 0.733 1_455 S
C277 C889 0.733 . S
C923 C311 0.733 1_455 S
C345 C821 0.733 1_655 S
C379 C855 0.733 . S
C413 C1025 0.733 . S
C1059 C447 0.733 . S
C957 C481 0.733 1_455 S
C991 C515 0.733 1_455 S
C407 C2 2.152 . S
C849 C36 2.152 . S
C70 C339 2.152 . S
C917 C104 2.152 . S
C475 C138 2.152 . S
C172 C1053 2.152 . S
C543 C206 2.152 . S
C985 C240 2.152 . S
C135 C274 2.152 . S
C308 C577 2.152 . S
C342 C67 2.152 . S
C645 C376 2.152 . S
C410 C203 2.152 . S
C781 C444 2.152 . S
C478 C271 2.152 . S
C512 C713 2.152 . S
C951 C546 2.152 . S
C580 C305 2.152 . S
C614 C883 2.152 . S
C373 C648 2.152 . S
C682 C1019 2.152 . S
C716 C509 2.152 . S
C1087 C750 2.152 . S
C441 C784 2.152 . S
C679 C818 2.152 . S
C852 C33 2.152 . S
C886 C611 2.152 . S
C101 C920 2.152 . S
C954 C747 2.152 . S
C988 C237 2.152 . S
C815 C1022 2.152 . S
C169 C1056 2.152 . S
C247 C9 1.246 . S
C145 C43 1.246 . S
C77 C179 1.246 . S
C213 C111 1.246 . S
C519 C281 1.246 . S
C315 C417 1.246 . S
C451 C349 1.246 . S
C485 C383 1.246 . S
C791 C553 1.246 . S
C689 C587 1.246 . S
C723 C621 1.246 . S
C757 C655 1.246 . S
C825 C1063 1.246 . S
C859 C961 1.246 . S
C893 C995 1.246 . S
C1029 C927 1.246 . S
C20 C836 3.588 . S
C326 C54 3.588 1_665 S
C904 C88 3.588 . S
C122 C394 3.588 1_564 S
C156 C972 3.588 . S
C190 C462 3.588 1_545 S
C1040 C224 3.588 . S
C258 C530 3.588 1_466 S
C564 C292 3.588 . S
C632 C360 3.588 . S
C428 C700 3.588 . S
C496 C768 3.588 . S
C870 C598 3.588 1_556 S
C938 C666 3.588 1_455 S
C1006 C734 3.588 1_454 S
C1074 C802 3.588 . S
