# Generated by pormake.
# Topology gsi, (4)-cn, num edge types: 1
# Building blocks:
#     Node 0, Type 0, BuildingBlock: QUQFOY_clean_sbu_3, # of connection points: 4
#     Node 1, Type 0, BuildingBlock: QUQFOY_clean_sbu_3, # of connection points: 4
#     Node 2, Type 0, BuildingBlock: QUQFOY_clean_sbu_3, # of connection points: 4
#     Node 3, Type 0, BuildingBlock: QUQFOY_clean_sbu_3, # of connection points: 4
#     Node 4, Type 0, BuildingBlock: QUQFOY_clean_sbu_3, # of connection points: 4
#     Node 5, Type 0, BuildingBlock: QUQFOY_clean_sbu_3, # of connection points: 4
#     Node 6, Type 0, BuildingBlock: QUQFOY_clean_sbu_3, # of connection points: 4
#     Node 7, Type 0, BuildingBlock: QUQFOY_clean_sbu_3, # of connection points: 4
#     Node 8, Type 0, BuildingBlock: QUQFOY_clean_sbu_3, # of connection points: 4
#     Node 9, Type 0, BuildingBlock: QUQFOY_clean_sbu_3, # of connection points: 4
#     Node 10, Type 0, BuildingBlock: QUQFOY_clean_sbu_3, # of connection points: 4
#     Node 11, Type 0, BuildingBlock: QUQFOY_clean_sbu_3, # of connection points: 4
#     Node 12, Type 0, BuildingBlock: QUQFOY_clean_sbu_3, # of connection points: 4
#     Node 13, Type 0, BuildingBlock: QUQFOY_clean_sbu_3, # of connection points: 4
#     Node 14, Type 0, BuildingBlock: QUQFOY_clean_sbu_3, # of connection points: 4
#     Node 15, Type 0, BuildingBlock: QUQFOY_clean_sbu_3, # of connection points: 4
#     Edge 16, Type (0, 0), BuildingBlock: AJUNOK_clean_linker_0, # of connection points: 2
#     Edge 17, Type (0, 0), BuildingBlock: AJUNOK_clean_linker_0, # of connection points: 2
#     Edge 18, Type (0, 0), BuildingBlock: AJUNOK_clean_linker_0, # of connection points: 2
#     Edge 19, Type (0, 0), BuildingBlock: AJUNOK_clean_linker_0, # of connection points: 2
#     Edge 20, Type (0, 0), BuildingBlock: AJUNOK_clean_linker_0, # of connection points: 2
#     Edge 21, Type (0, 0), BuildingBlock: AJUNOK_clean_linker_0, # of connection points: 2
#     Edge 22, Type (0, 0), BuildingBlock: AJUNOK_clean_linker_0, # of connection points: 2
#     Edge 23, Type (0, 0), BuildingBlock: AJUNOK_clean_linker_0, # of connection points: 2
#     Edge 24, Type (0, 0), BuildingBlock: AJUNOK_clean_linker_0, # of connection points: 2
#     Edge 25, Type (0, 0), BuildingBlock: AJUNOK_clean_linker_0, # of connection points: 2
#     Edge 26, Type (0, 0), BuildingBlock: AJUNOK_clean_linker_0, # of connection points: 2
#     Edge 27, Type (0, 0), BuildingBlock: AJUNOK_clean_linker_0, # of connection points: 2
#     Edge 28, Type (0, 0), BuildingBlock: AJUNOK_clean_linker_0, # of connection points: 2
#     Edge 29, Type (0, 0), BuildingBlock: AJUNOK_clean_linker_0, # of connection points: 2
#     Edge 30, Type (0, 0), BuildingBlock: AJUNOK_clean_linker_0, # of connection points: 2
#     Edge 31, Type (0, 0), BuildingBlock: AJUNOK_clean_linker_0, # of connection points: 2
#     Edge 32, Type (0, 0), BuildingBlock: AJUNOK_clean_linker_0, # of connection points: 2
#     Edge 33, Type (0, 0), BuildingBlock: AJUNOK_clean_linker_0, # of connection points: 2
#     Edge 34, Type (0, 0), BuildingBlock: AJUNOK_clean_linker_0, # of connection points: 2
#     Edge 35, Type (0, 0), BuildingBlock: AJUNOK_clean_linker_0, # of connection points: 2
#     Edge 36, Type (0, 0), BuildingBlock: AJUNOK_clean_linker_0, # of connection points: 2
#     Edge 37, Type (0, 0), BuildingBlock: AJUNOK_clean_linker_0, # of connection points: 2
#     Edge 38, Type (0, 0), BuildingBlock: AJUNOK_clean_linker_0, # of connection points: 2
#     Edge 39, Type (0, 0), BuildingBlock: AJUNOK_clean_linker_0, # of connection points: 2
#     Edge 40, Type (0, 0), BuildingBlock: AJUNOK_clean_linker_0, # of connection points: 2
#     Edge 41, Type (0, 0), BuildingBlock: AJUNOK_clean_linker_0, # of connection points: 2
#     Edge 42, Type (0, 0), BuildingBlock: AJUNOK_clean_linker_0, # of connection points: 2
#     Edge 43, Type (0, 0), BuildingBlock: AJUNOK_clean_linker_0, # of connection points: 2
#     Edge 44, Type (0, 0), BuildingBlock: AJUNOK_clean_linker_0, # of connection points: 2
#     Edge 45, Type (0, 0), BuildingBlock: AJUNOK_clean_linker_0, # of connection points: 2
#     Edge 46, Type (0, 0), BuildingBlock: AJUNOK_clean_linker_0, # of connection points: 2
#     Edge 47, Type (0, 0), BuildingBlock: AJUNOK_clean_linker_0, # of connection points: 2
# Relax obj value: 0.136
# Max RMSD: 0.121
# Mean RMSD: 0.120
data_MOF--net-gsi--node1-QUQFOY_clean_sbu_3--edge1-AJUNOK_clean_linker_0
_symmetry_space_group_name_H-M    P1
_symmetry_Int_Tables_number       1
_symmetry_cell_setting            triclinic
loop_
_symmetry_equiv_pos_as_xyz
'x, y, z'
_cell_length_a     35.329082
_cell_length_b     28.078734
_cell_length_c     34.607463
_cell_angle_alpha  89.900286
_cell_angle_beta   90.073734
_cell_angle_gamma 89.896231
loop_
_atom_site_label
_atom_site_type_symbol
_atom_site_fract_x
_atom_site_fract_y
_atom_site_fract_z
_atom_type_partial_charge
C0 C 0.04367 0.21019 0.12514 0.0
O1 O 0.05283 0.22275 0.15907 0.0
Cd2 Cd 0.10745 0.20062 0.19409 0.0
O3 O 0.06471 0.18288 0.105 0.0
Cd4 Cd 0.12938 0.14799 0.11453 0.0
C5 C 0.10241 0.07774 0.18867 0.0
O6 O 0.15457 0.21595 0.1476 0.0
O7 O 0.19012 0.1542 0.14999 0.0
O8 O 0.14464 0.17145 0.04947 0.0
C9 C 0.18586 0.19802 0.15745 0.0
O10 O 0.10227 0.11567 0.20883 0.0
C11 C 0.16161 0.13327 0.04032 0.0
O12 O 0.109 0.07948 0.15252 0.0
O13 O 0.16104 0.09977 0.06502 0.0
C14 C 0.896 0.28069 0.12969 0.0
O15 O 0.88599 0.26704 0.16313 0.0
Cd16 Cd 0.83295 0.2922 0.19934 0.0
O17 O 0.87646 0.31074 0.11038 0.0
Cd18 Cd 0.81324 0.34996 0.11896 0.0
C19 C 0.8424 0.41538 0.19544 0.0
O20 O 0.78597 0.2838 0.1519 0.0
O21 O 0.75159 0.34661 0.1531 0.0
O22 O 0.79991 0.32596 0.05382 0.0
C23 C 0.75528 0.30306 0.16192 0.0
O24 O 0.8413 0.37665 0.21469 0.0
C25 C 0.78367 0.36415 0.04331 0.0
O26 O 0.83583 0.41563 0.15918 0.0
O27 O 0.78348 0.39813 0.06755 0.0
C28 C 0.05463 0.77252 0.34944 0.0
O29 O 0.06259 0.75559 0.31645 0.0
Cd30 Cd 0.11414 0.77471 0.27562 0.0
O31 O 0.07569 0.8035 0.3657 0.0
Cd32 Cd 0.13884 0.83936 0.35004 0.0
C33 C 0.10555 0.89744 0.27126 0.0
O34 O 0.16442 0.7688 0.32004 0.0
O35 O 0.19801 0.83141 0.31298 0.0
O36 O 0.15481 0.83383 0.41842 0.0
C37 C 0.19417 0.78732 0.30673 0.0
O38 O 0.10591 0.85747 0.25387 0.0
C39 C 0.17369 0.87228 0.41899 0.0
O40 O 0.11343 0.9 0.30713 0.0
O41 O 0.17456 0.89668 0.38814 0.0
C42 C 0.90316 0.71987 0.35244 0.0
O43 O 0.89415 0.73661 0.31961 0.0
Cd44 Cd 0.84093 0.7175 0.28116 0.0
O45 O 0.882 0.69013 0.37008 0.0
Cd46 Cd 0.81689 0.65771 0.35815 0.0
C47 C 0.84519 0.5939 0.2805 0.0
O48 O 0.79166 0.7265 0.32595 0.0
O49 O 0.75772 0.66373 0.32053 0.0
O50 O 0.7974 0.68062 0.42199 0.0
C51 C 0.76148 0.70782 0.3138 0.0
O52 O 0.84631 0.63361 0.26266 0.0
C53 C 0.78155 0.64156 0.43075 0.0
O54 O 0.83762 0.59234 0.31653 0.0
O55 O 0.78507 0.60761 0.40677 0.0
C56 C 0.3944 0.77621 0.61394 0.0
O57 O 0.38479 0.75759 0.64589 0.0
Cd58 Cd 0.33332 0.77801 0.68619 0.0
O59 O 0.37512 0.80974 0.59855 0.0
Cd60 Cd 0.31275 0.84768 0.61408 0.0
C61 C 0.34702 0.89961 0.69495 0.0
O62 O 0.28383 0.77745 0.64073 0.0
O63 O 0.25349 0.84218 0.65113 0.0
O64 O 0.29625 0.84131 0.54625 0.0
C65 C 0.25472 0.79733 0.65435 0.0
O66 O 0.34475 0.85871 0.7108 0.0
C67 C 0.278 0.88024 0.54509 0.0
O68 O 0.33969 0.90497 0.65911 0.0
O69 O 0.27844 0.90604 0.57514 0.0
C70 C 0.89655 0.75579 0.87309 0.0
O71 O 0.87399 0.72068 0.87374 0.0
Cd72 Cd 0.8082 0.72697 0.861 0.0
O73 O 0.88485 0.79733 0.86374 0.0
Cd74 Cd 0.8252 0.8371 0.84168 0.0
C75 C 0.78075 0.81436 0.92596 0.0
O76 O 0.80407 0.77099 0.80261 0.0
O77 O 0.76265 0.82588 0.81379 0.0
O78 O 0.85599 0.87259 0.7857 0.0
C79 C 0.77195 0.78883 0.79519 0.0
O80 O 0.78225 0.77132 0.91465 0.0
C81 C 0.8462 0.91518 0.79243 0.0
O82 O 0.79499 0.84797 0.90586 0.0
O83 O 0.82918 0.92273 0.82421 0.0
C84 C 0.05791 0.72335 0.86907 0.0
O85 O 0.07941 0.75942 0.86746 0.0
Cd86 Cd 0.14183 0.76049 0.84279 0.0
O87 O 0.06991 0.68248 0.85834 0.0
Cd88 Cd 0.13057 0.6497 0.83195 0.0
C89 C 0.1877 0.68364 0.90498 0.0
O90 O 0.13762 0.71464 0.78562 0.0
O91 O 0.18589 0.66878 0.79294 0.0
O92 O 0.09346 0.59572 0.79032 0.0
C93 C 0.16973 0.70141 0.77377 0.0
O94 O 0.1835 0.72473 0.89006 0.0
C95 C 0.1176 0.56226 0.79167 0.0
O96 O 0.16849 0.64836 0.89262 0.0
O97 O 0.14481 0.56725 0.81529 0.0
C98 C 0.89584 0.22903 0.60291 0.0
O99 O 0.87418 0.26505 0.60459 0.0
Cd100 Cd 0.80884 0.26091 0.61925 0.0
O101 O 0.88339 0.18744 0.61075 0.0
Cd102 Cd 0.82363 0.1486 0.63281 0.0
C103 C 0.77735 0.1793 0.55106 0.0
O104 O 0.80523 0.21264 0.67519 0.0
O105 O 0.76188 0.16088 0.66291 0.0
O106 O 0.85557 0.10862 0.68619 0.0
C107 C 0.77258 0.19661 0.68239 0.0
O108 O 0.78027 0.22116 0.56475 0.0
C109 C 0.84504 0.06678 0.67787 0.0
O110 O 0.79156 0.1436 0.56883 0.0
O111 O 0.82652 0.06188 0.64656 0.0
C112 C 0.05789 0.25766 0.59758 0.0
O113 O 0.07937 0.22144 0.59696 0.0
Cd114 Cd 0.14458 0.22165 0.61159 0.0
O115 O 0.071 0.2986 0.60658 0.0
Cd116 Cd 0.13312 0.33368 0.62695 0.0
C117 C 0.17687 0.30337 0.54405 0.0
O118 O 0.14717 0.26696 0.66911 0.0
O119 O 0.19315 0.31552 0.65897 0.0
O120 O 0.09709 0.38286 0.67312 0.0
C121 C 0.18018 0.28045 0.67774 0.0
O122 O 0.17415 0.26133 0.55754 0.0
C123 C 0.11919 0.4183 0.67096 0.0
O124 O 0.16276 0.33873 0.56213 0.0
O125 O 0.14499 0.41628 0.6455 0.0
C126 C 0.55474 0.23158 0.37543 0.0
O127 O 0.57655 0.26739 0.37603 0.0
Cd128 Cd 0.63988 0.26677 0.3535 0.0
O129 O 0.56695 0.1912 0.36383 0.0
Cd130 Cd 0.62753 0.15781 0.33838 0.0
C131 C 0.68307 0.18531 0.41403 0.0
O132 O 0.63666 0.22485 0.29413 0.0
O133 O 0.68376 0.17698 0.30102 0.0
O134 O 0.5883 0.10688 0.29622 0.0
C135 C 0.6687 0.21099 0.2825 0.0
O136 O 0.67979 0.22726 0.40047 0.0
C137 C 0.61173 0.07261 0.29585 0.0
O138 O 0.66385 0.15121 0.39972 0.0
O139 O 0.64012 0.07611 0.31815 0.0
C140 C 0.54295 0.71773 0.6215 0.0
O141 O 0.54766 0.73129 0.65613 0.0
Cd142 Cd 0.59608 0.70978 0.70017 0.0
O143 O 0.56624 0.68954 0.60511 0.0
Cd144 Cd 0.62892 0.65561 0.62445 0.0
C145 C 0.5933 0.5868 0.69604 0.0
O146 O 0.65038 0.72201 0.66249 0.0
O147 O 0.68304 0.65796 0.66903 0.0
O148 O 0.65822 0.68227 0.56568 0.0
C149 C 0.67888 0.70165 0.67709 0.0
O150 O 0.59019 0.62508 0.71552 0.0
C151 C 0.67234 0.64244 0.5561 0.0
O152 O 0.60415 0.58784 0.66091 0.0
O153 O 0.66383 0.60679 0.57703 0.0
C154 C 0.547 0.27664 0.85771 0.0
O155 O 0.55041 0.26291 0.82298 0.0
Cd156 Cd 0.59685 0.2824 0.77656 0.0
O157 O 0.57064 0.30518 0.87308 0.0
Cd158 Cd 0.63185 0.33961 0.84986 0.0
C159 C 0.59439 0.40539 0.77686 0.0
O160 O 0.6522 0.27172 0.81297 0.0
O161 O 0.68448 0.33542 0.80357 0.0
O162 O 0.6666 0.31493 0.90594 0.0
C163 C 0.68023 0.29136 0.79704 0.0
O164 O 0.59037 0.36616 0.75893 0.0
C165 C 0.6787 0.35579 0.91526 0.0
O166 O 0.60633 0.40595 0.81167 0.0
O167 O 0.66629 0.39111 0.896 0.0
C168 C 0.40411 0.20931 0.85822 0.0
O169 O 0.40081 0.22126 0.82302 0.0
Cd170 Cd 0.35459 0.19794 0.77745 0.0
O171 O 0.38056 0.18128 0.87431 0.0
Cd172 Cd 0.31957 0.14605 0.85147 0.0
C173 C 0.35639 0.07506 0.78255 0.0
O174 O 0.29786 0.21116 0.81109 0.0
O175 O 0.26832 0.14483 0.80399 0.0
O176 O 0.28423 0.17528 0.90546 0.0
C177 C 0.27062 0.18876 0.796 0.0
O178 O 0.36062 0.11334 0.76323 0.0
C179 C 0.27144 0.13537 0.91643 0.0
O180 O 0.3446 0.07645 0.81734 0.0
O181 O 0.28392 0.09856 0.89928 0.0
C182 C 0.39355 0.2612 0.36622 0.0
O183 O 0.37218 0.22517 0.36289 0.0
Cd184 Cd 0.30907 0.2272 0.33932 0.0
O185 O 0.38173 0.30257 0.3566 0.0
Cd186 Cd 0.3223 0.33758 0.32958 0.0
C187 C 0.26733 0.30463 0.40414 0.0
O188 O 0.31089 0.27424 0.28242 0.0
O189 O 0.26471 0.32246 0.2937 0.0
O190 O 0.36012 0.38905 0.2867 0.0
C191 C 0.27869 0.29004 0.27274 0.0
O192 O 0.27041 0.26371 0.3887 0.0
C193 C 0.33783 0.42437 0.28928 0.0
O194 O 0.28616 0.33981 0.39098 0.0
O195 O 0.31142 0.42124 0.31399 0.0
C196 C 0.39779 0.73227 0.09593 0.0
O197 O 0.37553 0.76775 0.09626 0.0
Cd198 Cd 0.31061 0.76399 0.11232 0.0
O199 O 0.38568 0.69078 0.10484 0.0
Cd200 Cd 0.32411 0.65458 0.12621 0.0
C201 C 0.27897 0.68443 0.04372 0.0
O202 O 0.30981 0.71914 0.17079 0.0
O203 O 0.26452 0.66983 0.15957 0.0
O204 O 0.36089 0.60412 0.17117 0.0
C205 C 0.27773 0.70304 0.18022 0.0
O206 O 0.28078 0.72639 0.05733 0.0
C207 C 0.3386 0.56889 0.16873 0.0
O208 O 0.29365 0.64935 0.06176 0.0
O209 O 0.31268 0.57155 0.14338 0.0
C210 C 0.55919 0.76553 0.099 0.0
O211 O 0.58158 0.73021 0.10069 0.0
Cd212 Cd 0.6449 0.7347 0.1239 0.0
O213 O 0.57035 0.80692 0.10907 0.0
Cd214 Cd 0.6296 0.84313 0.13486 0.0
C215 C 0.68763 0.81444 0.06197 0.0
O216 O 0.64149 0.77945 0.18195 0.0
O217 O 0.68691 0.82889 0.17171 0.0
O218 O 0.58979 0.89351 0.17672 0.0
C219 C 0.67314 0.79604 0.19237 0.0
O220 O 0.68538 0.77308 0.07684 0.0
C221 C 0.61164 0.92924 0.1751 0.0
O222 O 0.66651 0.84817 0.074 0.0
O223 O 0.63917 0.92659 0.15167 0.0
C224 C 0.24217 0.19953 0.20111 0.0
C225 C 0.21162 0.22365 0.18376 0.0
C226 C 0.2645 0.22171 0.22922 0.0
C227 C 0.25683 0.26858 0.24109 0.0
H228 H 0.24831 0.16284 0.19375 0.0
H229 H 0.28714 0.20146 0.2426 0.0
S230 S 0.1833 0.34932 0.20119 0.0
N231 N 0.17722 0.29867 0.17789 0.0
N232 N 0.21903 0.33997 0.23102 0.0
C233 C 0.22751 0.29382 0.22279 0.0
C234 C 0.20497 0.27146 0.19399 0.0
C235 C 0.74157 0.23492 0.20543 0.0
C236 C 0.73054 0.27941 0.19035 0.0
C237 C 0.72114 0.21313 0.23499 0.0
C238 C 0.68865 0.23468 0.25045 0.0
H239 H 0.76676 0.21706 0.19501 0.0
H240 H 0.73114 0.17918 0.24593 0.0
S241 S 0.64628 0.34969 0.21944 0.0
N242 N 0.68402 0.34338 0.19182 0.0
N243 N 0.64522 0.30205 0.24745 0.0
C244 C 0.67646 0.27845 0.23486 0.0
C245 C 0.69751 0.30089 0.20478 0.0
C246 C 0.26693 0.76736 0.22836 0.0
C247 C 0.25678 0.72269 0.21335 0.0
C248 C 0.24728 0.78727 0.25944 0.0
C249 C 0.21692 0.76308 0.27685 0.0
H250 H 0.2898 0.78761 0.21557 0.0
H251 H 0.25557 0.8223 0.26937 0.0
S252 S 0.18162 0.6428 0.25061 0.0
N253 N 0.21612 0.65331 0.21966 0.0
N254 N 0.17924 0.69047 0.27835 0.0
C255 C 0.20739 0.71749 0.26302 0.0
C256 C 0.22724 0.69741 0.23113 0.0
C257 C 0.70666 0.70858 0.26829 0.0
C258 C 0.73715 0.73272 0.28553 0.0
C259 C 0.68551 0.72974 0.23866 0.0
C260 C 0.69432 0.77558 0.22507 0.0
H261 H 0.69953 0.67266 0.27709 0.0
H262 H 0.66276 0.70948 0.22566 0.0
S263 S 0.76885 0.85581 0.26311 0.0
N264 N 0.77318 0.80656 0.28884 0.0
N265 N 0.73357 0.84598 0.23289 0.0
C266 C 0.72379 0.80082 0.24297 0.0
C267 C 0.74514 0.7795 0.27333 0.0
C268 C 0.24159 0.72717 0.69602 0.0
C269 C 0.23013 0.77188 0.68178 0.0
C270 C 0.2215 0.7045 0.72543 0.0
C271 C 0.18897 0.7254 0.74144 0.0
H272 H 0.267 0.71009 0.6853 0.0
H273 H 0.23187 0.67053 0.73598 0.0
S274 S 0.1452 0.84017 0.71188 0.0
N275 N 0.18292 0.83497 0.68407 0.0
N276 N 0.14476 0.79204 0.73935 0.0
C277 C 0.1762 0.76917 0.72637 0.0
C278 C 0.1969 0.79249 0.69653 0.0
C279 C 0.73393 0.70141 0.72199 0.0
C280 C 0.70205 0.72503 0.70698 0.0
C281 C 0.75607 0.72221 0.75082 0.0
C282 C 0.74703 0.76729 0.7659 0.0
H283 H 0.742 0.66657 0.71136 0.0
H284 H 0.78048 0.70267 0.76133 0.0
S285 S 0.66642 0.84414 0.73641 0.0
N286 N 0.66248 0.79616 0.70925 0.0
N287 N 0.70413 0.83514 0.76366 0.0
C288 C 0.71514 0.79132 0.7513 0.0
C289 C 0.69268 0.77025 0.72173 0.0
C290 C 0.7361 0.28761 0.75352 0.0
C291 C 0.70311 0.2662 0.76793 0.0
C292 C 0.75824 0.26482 0.72571 0.0
C293 C 0.74802 0.21995 0.71104 0.0
H294 H 0.74508 0.32217 0.76393 0.0
H295 H 0.78352 0.28268 0.7156 0.0
S296 S 0.66405 0.14872 0.73906 0.0
N297 N 0.66112 0.19749 0.76544 0.0
N298 N 0.70276 0.1548 0.71288 0.0
C299 C 0.71499 0.19817 0.725 0.0
C300 C 0.69254 0.22123 0.75357 0.0
C301 C 0.23564 0.27746 0.7219 0.0
C302 C 0.20279 0.25575 0.70741 0.0
C303 C 0.25713 0.25566 0.75085 0.0
C304 C 0.24675 0.2111 0.76612 0.0
H305 H 0.2447 0.31185 0.71112 0.0
H306 H 0.28224 0.27382 0.76108 0.0
S307 S 0.16328 0.13909 0.73781 0.0
N308 N 0.16083 0.1871 0.71032 0.0
N309 N 0.20149 0.14593 0.76472 0.0
C310 C 0.21404 0.18884 0.75182 0.0
C311 C 0.19197 0.21122 0.72247 0.0
C312 C 0.09785 0.9859 0.26896 0.0
C313 C 0.09931 0.94221 0.24915 0.0
C314 C 0.09713 0.02929 0.24906 0.0
C315 C 0.09799 0.03103 0.20841 0.0
H316 H 0.09844 0.98687 0.30025 0.0
H317 H 0.09729 0.06174 0.26594 0.0
S318 S 0.09723 0.92672 0.14252 0.0
N319 N 0.09811 0.9033 0.18629 0.0
N320 N 0.09684 0.98495 0.14889 0.0
C321 C 0.0973 0.9876 0.1881 0.0
C322 C 0.09791 0.94324 0.20844 0.0
C323 C 0.84492 0.46184 0.25701 0.0
C324 C 0.84809 0.46095 0.21644 0.0
C325 C 0.84556 0.50477 0.27753 0.0
C326 C 0.84956 0.54876 0.25844 0.0
H327 H 0.84048 0.42925 0.27315 0.0
H328 H 0.84167 0.50336 0.30855 0.0
S329 S 0.86391 0.56563 0.15284 0.0
N330 N 0.85893 0.50758 0.15821 0.0
N331 N 0.86035 0.58829 0.19665 0.0
C332 C 0.85492 0.54822 0.21803 0.0
C333 C 0.85409 0.50439 0.1971 0.0
C334 C 0.23799 0.09328 0.97042 0.0
C335 C 0.24134 0.13292 0.94586 0.0
C336 C 0.21062 0.09236 -0.00019 0.0
C337 C 0.1854 0.13077 0.00517 0.0
H338 H 0.25747 0.06362 0.96783 0.0
H339 H 0.21021 0.06214 0.0193 0.0
S340 S 0.17874 0.23923 0.9439 0.0
N341 N 0.21462 0.20895 0.92582 0.0
N342 N 0.16295 0.20697 0.98035 0.0
C343 C 0.18699 0.16912 0.97901 0.0
C344 C 0.21507 0.1703 0.94957 0.0
C345 C 0.73498 0.40279 0.0006 0.0
C346 C 0.7615 0.36599 0.00697 0.0
C347 C 0.70881 0.40036 0.97004 0.0
C348 C 0.70804 0.36073 0.94533 0.0
H349 H 0.73331 0.43267 0.02028 0.0
H350 H 0.6881 0.42858 0.96677 0.0
S351 S 0.77527 0.25906 0.94547 0.0
N352 N 0.78827 0.29189 0.98267 0.0
N353 N 0.73877 0.28701 0.92607 0.0
C354 C 0.73578 0.32526 0.94994 0.0
C355 C 0.76265 0.32801 0.98052 0.0
C356 C 0.26257 0.8959 0.476 0.0
C357 C 0.2505 0.88865 0.51413 0.0
C358 C 0.23658 0.89451 0.44534 0.0
C359 C 0.19819 0.88393 0.45196 0.0
H360 H 0.29235 0.90087 0.46976 0.0
H361 H 0.24707 0.89843 0.4161 0.0
S362 S 0.15265 0.8641 0.5469 0.0
N363 N 0.19768 0.87352 0.55727 0.0
N364 N 0.14918 0.86838 0.4994 0.0
C365 C 0.1857 0.87819 0.49009 0.0
C366 C 0.21186 0.88116 0.5213 0.0
C367 C 0.71796 0.68177 0.51201 0.0
C368 C 0.70025 0.63962 0.52434 0.0
C369 C 0.74539 0.68131 0.48306 0.0
C370 C 0.75602 0.63876 0.46461 0.0
H371 H 0.71081 0.7157 0.52499 0.0
H372 H 0.75759 0.71507 0.47444 0.0
S373 S 0.71894 0.51817 0.4868 0.0
N374 N 0.69607 0.55369 0.51682 0.0
N375 N 0.74726 0.5529 0.46136 0.0
C376 C 0.73894 0.59606 0.47689 0.0
C377 C 0.71118 0.59647 0.50698 0.0
C378 C 0.93893 0.21281 0.11746 0.0
C379 C 0.93187 0.26202 0.11468 0.0
C380 C -0.02415 0.19487 0.11535 0.0
C381 C 0.00665 0.2258 0.11103 0.0
H382 H 0.91611 0.1885 0.12432 0.0
H383 H -0.01943 0.15736 0.12109 0.0
S384 S 0.00272 0.35657 0.09761 0.0
N385 N 0.95802 0.34057 0.10281 0.0
N386 N 0.02779 0.30689 0.10005 0.0
C387 C -0.00031 0.27444 0.10478 0.0
C388 C 0.96204 0.29262 0.10623 0.0
C389 C 0.95122 0.78065 0.36839 0.0
C390 C 0.94069 0.73236 0.36744 0.0
C391 C -0.01058 0.79397 0.36818 0.0
C392 C 0.01795 0.75927 0.36603 0.0
H393 H 0.92984 0.8082 0.36584 0.0
H394 H -0.00359 0.83137 0.36528 0.0
S395 S 0.00517 0.62842 0.36884 0.0
N396 N 0.96165 0.65007 0.36978 0.0
N397 N 0.0336 0.67508 0.36797 0.0
C398 C 0.00785 0.71106 0.36898 0.0
C399 C 0.96902 0.69755 0.37008 0.0
C400 C 0.49846 0.78087 0.60127 0.0
C401 C 0.50771 0.73215 0.60243 0.0
C402 C 0.46068 0.79579 0.59874 0.0
C403 C 0.43131 0.76223 0.59833 0.0
H404 H 0.52018 0.8074 0.60616 0.0
H405 H 0.45435 0.83336 0.60196 0.0
S406 S 0.4413 0.63105 0.59399 0.0
N407 N 0.48522 0.65087 0.59685 0.0
N408 N 0.41394 0.67884 0.59344 0.0
C409 C 0.4405 0.71374 0.59502 0.0
C410 C 0.47895 0.69863 0.59674 0.0
C411 C 0.85223 0.03752 0.74574 0.0
C412 C 0.85008 0.02724 0.70593 0.0
C413 C 0.85201 0.00112 0.77361 0.0
C414 C 0.85068 0.95297 0.76274 0.0
H415 H 0.85238 0.07411 0.75562 0.0
H416 H 0.85223 0.01081 0.8039 0.0
S417 S 0.84736 0.90691 0.66217 0.0
N418 N 0.848 0.96539 0.65706 0.0
N419 N 0.84887 0.89686 0.70918 0.0
C420 C 0.85026 0.94213 0.72295 0.0
C421 C 0.84959 0.97926 0.69462 0.0
C422 C 0.08403 0.50434 0.74813 0.0
C423 C 0.11792 0.52399 0.76229 0.0
C424 C 0.08438 0.47037 0.71823 0.0
C425 C 0.1185 0.45651 0.70045 0.0
H426 H 0.05714 0.51498 0.76045 0.0
H427 H 0.05779 0.45517 0.70876 0.0
S428 S 0.21476 0.49898 0.72601 0.0
N429 N 0.1864 0.52747 0.75598 0.0
N430 N 0.18694 0.46535 0.69917 0.0
C431 C 0.15244 0.47664 0.71396 0.0
C432 C 0.15218 0.50992 0.74504 0.0
C433 C 0.70763 0.85335 -0.00054 0.0
C434 C 0.71525 0.82191 0.0303 0.0
C435 C 0.73089 0.85404 0.96637 0.0
C436 C 0.76236 0.82348 0.96345 0.0
H437 H 0.68242 0.87534 -0.00014 0.0
H438 H 0.72278 0.87616 0.94204 0.0
S439 S 0.79845 0.74153 0.03903 0.0
N440 N 0.75969 0.76478 0.05783 0.0
N441 N 0.80268 0.76588 -0.00418 0.0
C442 C 0.77183 0.79493 -0.0047 0.0
C443 C 0.74846 0.79422 0.02872 0.0
C444 C 0.20987 0.64342 0.96636 0.0
C445 C 0.21481 0.67847 0.93759 0.0
C446 C 0.23238 0.64324 5e-05 0.0
C447 C 0.26034 0.67816 0.00584 0.0
H448 H 0.18734 0.61751 0.96376 0.0
H449 H 0.22648 0.6174 0.02251 0.0
S450 S 0.28919 0.77192 0.93641 0.0
N451 N 0.25352 0.74464 0.91508 0.0
N452 N 0.29494 0.74454 0.97824 0.0
C453 C 0.26722 0.71108 0.97616 0.0
C454 C 0.2447 0.71117 0.94205 0.0
C455 C 0.73654 0.21377 0.45452 0.0
C456 C 0.70978 0.17793 0.44677 0.0
C457 C 0.7596 0.21201 0.4872 0.0
C458 C 0.75728 0.17422 0.51372 0.0
H459 H 0.73917 0.24446 0.43569 0.0
H460 H 0.77872 0.24148 0.49232 0.0
S461 S 0.69472 0.06886 0.50552 0.0
N462 N 0.68428 0.10139 0.46708 0.0
N463 N 0.72814 0.09816 0.52896 0.0
C464 C 0.73242 0.13652 0.50543 0.0
C465 C 0.70855 0.13836 0.47187 0.0
C466 C 0.19555 0.27107 0.48038 0.0
C467 C 0.19647 0.30922 0.50654 0.0
C468 C 0.21751 0.27121 0.44696 0.0
C469 C 0.24178 0.30942 0.43807 0.0
H470 H 0.17825 0.24004 0.48617 0.0
H471 H 0.21594 0.24024 0.42841 0.0
S472 S 0.2525 0.41998 0.49575 0.0
N473 N 0.22168 0.38785 0.52042 0.0
N474 N 0.26353 0.38818 0.45721 0.0
C475 C 0.2417 0.34906 0.46302 0.0
C476 C 0.21891 0.34897 0.4973 0.0
C477 C -0.00855 0.69305 0.87233 0.0
C478 C 0.01721 0.73053 0.87805 0.0
C479 C 0.95235 0.70113 0.87297 0.0
C480 C 0.93745 0.74705 0.8791 0.0
H481 H 0.00143 0.6576 0.86534 0.0
H482 H 0.93379 0.67152 0.86651 0.0
S483 S -0.00768 0.85558 0.90289 0.0
N484 N 0.02469 0.81408 0.89571 0.0
N485 N 0.95117 0.82909 0.89625 0.0
C486 C 0.96269 0.78408 0.88781 0.0
C487 C 0.00255 0.77584 0.88754 0.0
C488 C -0.00836 0.28905 0.5994 0.0
C489 C 0.01656 0.25096 0.59228 0.0
C490 C 0.95249 0.28195 0.60088 0.0
C491 C 0.93666 0.23644 0.59553 0.0
H492 H 0.00243 0.32432 0.60553 0.0
H493 H 0.93471 0.31212 0.60809 0.0
S494 S -0.01116 0.12628 0.5697 0.0
N495 N 0.02205 0.16703 0.57495 0.0
N496 N 0.94844 0.15387 0.57826 0.0
C497 C 0.96094 0.19866 0.58585 0.0
C498 C 0.00086 0.20589 0.58404 0.0
C499 C 0.48861 0.20029 0.3766 0.0
C500 C 0.5136 0.23861 0.38213 0.0
C501 C 0.44952 0.20766 0.37406 0.0
C502 C 0.43381 0.25369 0.3767 0.0
H503 H 0.49932 0.16457 0.37205 0.0
H504 H 0.4318 0.17721 0.3677 0.0
S505 S 0.48604 0.36476 0.39912 0.0
N506 N 0.51917 0.3234 0.39627 0.0
N507 N 0.44565 0.33708 0.39097 0.0
C508 C 0.45806 0.29171 0.38564 0.0
C509 C 0.49795 0.2842 0.38855 0.0
C510 C 0.59016 0.53817 0.75652 0.0
C511 C 0.58805 0.54041 0.71591 0.0
C512 C 0.59059 0.49446 0.77605 0.0
C513 C 0.58856 0.45108 0.75586 0.0
H514 H 0.59317 0.57037 0.77343 0.0
H515 H 0.59369 0.49478 0.8072 0.0
S516 S 0.57768 0.43762 0.64951 0.0
N517 N 0.58039 0.49566 0.65635 0.0
N518 N 0.58083 0.41343 0.69289 0.0
C519 C 0.58411 0.4529 0.71535 0.0
C520 C 0.584 0.49752 0.69543 0.0
C521 C 0.36508 0.02834 0.72182 0.0
C522 C 0.36046 0.02871 0.76226 0.0
C523 C 0.36239 0.98614 0.70061 0.0
C524 C 0.3553 0.94227 0.71885 0.0
H525 H 0.36907 0.06124 0.70596 0.0
H526 H 0.36468 0.98831 0.66944 0.0
S527 S 0.34642 0.92252 0.82469 0.0
N528 N 0.35238 0.98055 0.82019 0.0
N529 N 0.34757 0.90103 0.78034 0.0
C530 C 0.35328 0.9415 0.75955 0.0
C531 C 0.35579 0.98471 0.78121 0.0
C532 C 0.46881 0.19457 0.88134 0.0
C533 C 0.43799 0.22591 0.87846 0.0
C534 C 0.5059 0.2121 0.88089 0.0
C535 C 0.51287 0.26129 0.87817 0.0
H536 H 0.46449 0.15652 0.8786 0.0
H537 H 0.52903 0.18697 0.87792 0.0
S538 S 0.44145 0.35764 0.87905 0.0
N539 N 0.41642 0.30799 0.87963 0.0
N540 N 0.48633 0.34096 0.8797 0.0
C541 C 0.48233 0.29287 0.88127 0.0
C542 C 0.44462 0.27506 0.88115 0.0
C543 C 0.37271 0.51416 0.21478 0.0
C544 C 0.33868 0.53069 0.19828 0.0
C545 C 0.37252 0.48003 0.24466 0.0
C546 C 0.33827 0.46299 0.2601 0.0
H547 H 0.39961 0.52731 0.20426 0.0
H548 H 0.39928 0.46717 0.25593 0.0
S549 S 0.24151 0.49612 0.22772 0.0
N550 N 0.26992 0.52755 0.19977 0.0
N551 N 0.26955 0.46514 0.25654 0.0
C552 C 0.30414 0.47992 0.24423 0.0
C553 C 0.30435 0.51333 0.21317 0.0
C554 C 0.64387 0.01848 0.24968 0.0
C555 C 0.6099 0.03483 0.26617 0.0
C556 C 0.64376 0.98607 0.21902 0.0
C557 C 0.60973 0.96768 0.20421 0.0
H558 H 0.67087 0.03163 0.25997 0.0
H559 H 0.67074 0.97433 0.20756 0.0
S560 S 0.51303 -0.0015 0.23747 0.0
N561 N 0.5412 0.03088 0.26506 0.0
N562 N 0.54108 0.96774 0.20853 0.0
C563 C 0.5755 0.98323 0.22065 0.0
C564 C 0.57556 0.01743 0.25128 0.0
C565 C 0.50371 0.71075 0.0949 0.0
C566 C 0.51861 0.75698 0.09068 0.0
C567 C 0.46463 0.70263 0.09439 0.0
C568 C 0.43883 0.74034 0.08936 0.0
H569 H 0.5222 0.68079 0.10082 0.0
H570 H 0.45464 0.66677 0.09977 0.0
S571 S 0.46375 0.86678 0.0697 0.0
N572 N 0.50486 0.83995 0.07621 0.0
N573 N 0.43141 0.82487 0.07465 0.0
C574 C 0.45353 0.78618 0.08186 0.0
C575 C 0.49338 0.79445 0.0827 0.0
loop_
_geom_bond_atom_site_label_1
_geom_bond_atom_site_label_2
_geom_bond_distance
_geom_bond_site_symmetry_2
_ccdc_geom_bond_type
C0 O1 1.306 . S
C0 O3 1.160 . S
O1 C0 1.306 . S
O1 Cd2 2.228 . S
Cd2 O1 2.228 . S
Cd2 O6 2.273 . S
Cd2 O10 2.277 . S
O3 C0 1.160 . S
O3 Cd4 2.203 . S
Cd4 O3 2.203 . S
Cd4 O6 2.411 . S
Cd4 O7 2.333 . S
Cd4 O8 2.352 . S
Cd4 O12 2.277 . S
Cd4 O13 2.356 . S
C5 O10 1.209 . S
C5 O12 1.226 . S
O6 Cd2 2.273 . S
O6 Cd4 2.411 . S
O6 C9 1.320 . S
O7 Cd4 2.333 . S
O7 C9 1.214 . S
O8 Cd4 2.352 . S
O8 C11 1.258 . S
C9 O6 1.320 . S
C9 O7 1.214 . S
O10 Cd2 2.277 . S
O10 C5 1.209 . S
C11 O8 1.258 . S
C11 O13 1.282 . S
O12 Cd4 2.277 . S
O12 C5 1.226 . S
O13 Cd4 2.356 . S
O13 C11 1.282 . S
C14 O15 1.306 . S
C14 O17 1.160 . S
O15 C14 1.306 . S
O15 Cd16 2.228 . S
Cd16 O15 2.228 . S
Cd16 O20 2.273 . S
Cd16 O24 2.277 . S
O17 C14 1.160 . S
O17 Cd18 2.203 . S
Cd18 O17 2.203 . S
Cd18 O20 2.411 . S
Cd18 O21 2.333 . S
Cd18 O22 2.352 . S
Cd18 O26 2.277 . S
Cd18 O27 2.356 . S
C19 O24 1.209 . S
C19 O26 1.226 . S
O20 Cd16 2.273 . S
O20 Cd18 2.411 . S
O20 C23 1.320 . S
O21 Cd18 2.333 . S
O21 C23 1.214 . S
O22 Cd18 2.352 . S
O22 C25 1.258 . S
C23 O20 1.320 . S
C23 O21 1.214 . S
O24 Cd16 2.277 . S
O24 C19 1.209 . S
C25 O22 1.258 . S
C25 O27 1.282 . S
O26 Cd18 2.277 . S
O26 C19 1.226 . S
O27 Cd18 2.356 . S
O27 C25 1.282 . S
C28 O29 1.306 . S
C28 O31 1.160 . S
O29 C28 1.306 . S
O29 Cd30 2.228 . S
Cd30 O29 2.228 . S
Cd30 O34 2.273 . S
Cd30 O38 2.277 . S
O31 C28 1.160 . S
O31 Cd32 2.203 . S
Cd32 O31 2.203 . S
Cd32 O34 2.411 . S
Cd32 O35 2.333 . S
Cd32 O36 2.352 . S
Cd32 O40 2.277 . S
Cd32 O41 2.356 . S
C33 O38 1.209 . S
C33 O40 1.226 . S
O34 Cd30 2.273 . S
O34 Cd32 2.411 . S
O34 C37 1.320 . S
O35 Cd32 2.333 . S
O35 C37 1.214 . S
O36 Cd32 2.352 . S
O36 C39 1.258 . S
C37 O34 1.320 . S
C37 O35 1.214 . S
O38 Cd30 2.277 . S
O38 C33 1.209 . S
C39 O36 1.258 . S
C39 O41 1.282 . S
O40 Cd32 2.277 . S
O40 C33 1.226 . S
O41 Cd32 2.356 . S
O41 C39 1.282 . S
C42 O43 1.306 . S
C42 O45 1.160 . S
O43 C42 1.306 . S
O43 Cd44 2.228 . S
Cd44 O43 2.228 . S
Cd44 O48 2.273 . S
Cd44 O52 2.277 . S
O45 C42 1.160 . S
O45 Cd46 2.203 . S
Cd46 O45 2.203 . S
Cd46 O48 2.411 . S
Cd46 O49 2.333 . S
Cd46 O50 2.352 . S
Cd46 O54 2.277 . S
Cd46 O55 2.356 . S
C47 O52 1.209 . S
C47 O54 1.226 . S
O48 Cd44 2.273 . S
O48 Cd46 2.411 . S
O48 C51 1.320 . S
O49 Cd46 2.333 . S
O49 C51 1.214 . S
O50 Cd46 2.352 . S
O50 C53 1.258 . S
C51 O48 1.320 . S
C51 O49 1.214 . S
O52 Cd44 2.277 . S
O52 C47 1.209 . S
C53 O50 1.258 . S
C53 O55 1.282 . S
O54 Cd46 2.277 . S
O54 C47 1.226 . S
O55 Cd46 2.356 . S
O55 C53 1.282 . S
C56 O57 1.306 . S
C56 O59 1.160 . S
O57 C56 1.306 . S
O57 Cd58 2.228 . S
Cd58 O57 2.228 . S
Cd58 O62 2.273 . S
Cd58 O66 2.277 . S
O59 C56 1.160 . S
O59 Cd60 2.203 . S
Cd60 O59 2.203 . S
Cd60 O62 2.411 . S
Cd60 O63 2.333 . S
Cd60 O64 2.352 . S
Cd60 O68 2.277 . S
Cd60 O69 2.356 . S
C61 O66 1.209 . S
C61 O68 1.226 . S
O62 Cd58 2.273 . S
O62 Cd60 2.411 . S
O62 C65 1.320 . S
O63 Cd60 2.333 . S
O63 C65 1.214 . S
O64 Cd60 2.352 . S
O64 C67 1.258 . S
C65 O62 1.320 . S
C65 O63 1.214 . S
O66 Cd58 2.277 . S
O66 C61 1.209 . S
C67 O64 1.258 . S
C67 O69 1.282 . S
O68 Cd60 2.277 . S
O68 C61 1.226 . S
O69 Cd60 2.356 . S
O69 C67 1.282 . S
C70 O71 1.306 . S
C70 O73 1.160 . S
O71 C70 1.306 . S
O71 Cd72 2.228 . S
Cd72 O71 2.228 . S
Cd72 O76 2.273 . S
Cd72 O80 2.277 . S
O73 C70 1.160 . S
O73 Cd74 2.203 . S
Cd74 O73 2.203 . S
Cd74 O76 2.411 . S
Cd74 O77 2.333 . S
Cd74 O78 2.352 . S
Cd74 O82 2.277 . S
Cd74 O83 2.356 . S
C75 O80 1.209 . S
C75 O82 1.226 . S
O76 Cd72 2.273 . S
O76 Cd74 2.411 . S
O76 C79 1.320 . S
O77 Cd74 2.333 . S
O77 C79 1.214 . S
O78 Cd74 2.352 . S
O78 C81 1.258 . S
C79 O76 1.320 . S
C79 O77 1.214 . S
O80 Cd72 2.277 . S
O80 C75 1.209 . S
C81 O78 1.258 . S
C81 O83 1.282 . S
O82 Cd74 2.277 . S
O82 C75 1.226 . S
O83 Cd74 2.356 . S
O83 C81 1.282 . S
C84 O85 1.306 . S
C84 O87 1.160 . S
O85 C84 1.306 . S
O85 Cd86 2.228 . S
Cd86 O85 2.228 . S
Cd86 O90 2.273 . S
Cd86 O94 2.277 . S
O87 C84 1.160 . S
O87 Cd88 2.203 . S
Cd88 O87 2.203 . S
Cd88 O90 2.411 . S
Cd88 O91 2.333 . S
Cd88 O92 2.352 . S
Cd88 O96 2.277 . S
Cd88 O97 2.356 . S
C89 O94 1.209 . S
C89 O96 1.226 . S
O90 Cd86 2.273 . S
O90 Cd88 2.411 . S
O90 C93 1.320 . S
O91 Cd88 2.333 . S
O91 C93 1.214 . S
O92 Cd88 2.352 . S
O92 C95 1.258 . S
C93 O90 1.320 . S
C93 O91 1.214 . S
O94 Cd86 2.277 . S
O94 C89 1.209 . S
C95 O92 1.258 . S
C95 O97 1.282 . S
O96 Cd88 2.277 . S
O96 C89 1.226 . S
O97 Cd88 2.356 . S
O97 C95 1.282 . S
C98 O99 1.306 . S
C98 O101 1.160 . S
O99 C98 1.306 . S
O99 Cd100 2.228 . S
Cd100 O99 2.228 . S
Cd100 O104 2.273 . S
Cd100 O108 2.277 . S
O101 C98 1.160 . S
O101 Cd102 2.203 . S
Cd102 O101 2.203 . S
Cd102 O104 2.411 . S
Cd102 O105 2.333 . S
Cd102 O106 2.352 . S
Cd102 O110 2.277 . S
Cd102 O111 2.356 . S
C103 O108 1.209 . S
C103 O110 1.226 . S
O104 Cd100 2.273 . S
O104 Cd102 2.411 . S
O104 C107 1.320 . S
O105 Cd102 2.333 . S
O105 C107 1.214 . S
O106 Cd102 2.352 . S
O106 C109 1.258 . S
C107 O104 1.320 . S
C107 O105 1.214 . S
O108 Cd100 2.277 . S
O108 C103 1.209 . S
C109 O106 1.258 . S
C109 O111 1.282 . S
O110 Cd102 2.277 . S
O110 C103 1.226 . S
O111 Cd102 2.356 . S
O111 C109 1.282 . S
C112 O113 1.306 . S
C112 O115 1.160 . S
O113 C112 1.306 . S
O113 Cd114 2.228 . S
Cd114 O113 2.228 . S
Cd114 O118 2.273 . S
Cd114 O122 2.277 . S
O115 C112 1.160 . S
O115 Cd116 2.203 . S
Cd116 O115 2.203 . S
Cd116 O118 2.411 . S
Cd116 O119 2.333 . S
Cd116 O120 2.352 . S
Cd116 O124 2.277 . S
Cd116 O125 2.356 . S
C117 O122 1.209 . S
C117 O124 1.226 . S
O118 Cd114 2.273 . S
O118 Cd116 2.411 . S
O118 C121 1.320 . S
O119 Cd116 2.333 . S
O119 C121 1.214 . S
O120 Cd116 2.352 . S
O120 C123 1.258 . S
C121 O118 1.320 . S
C121 O119 1.214 . S
O122 Cd114 2.277 . S
O122 C117 1.209 . S
C123 O120 1.258 . S
C123 O125 1.282 . S
O124 Cd116 2.277 . S
O124 C117 1.226 . S
O125 Cd116 2.356 . S
O125 C123 1.282 . S
C126 O127 1.306 . S
C126 O129 1.160 . S
O127 C126 1.306 . S
O127 Cd128 2.228 . S
Cd128 O127 2.228 . S
Cd128 O132 2.273 . S
Cd128 O136 2.277 . S
O129 C126 1.160 . S
O129 Cd130 2.203 . S
Cd130 O129 2.203 . S
Cd130 O132 2.411 . S
Cd130 O133 2.333 . S
Cd130 O134 2.352 . S
Cd130 O138 2.277 . S
Cd130 O139 2.356 . S
C131 O136 1.209 . S
C131 O138 1.226 . S
O132 Cd128 2.273 . S
O132 Cd130 2.411 . S
O132 C135 1.320 . S
O133 Cd130 2.333 . S
O133 C135 1.214 . S
O134 Cd130 2.352 . S
O134 C137 1.258 . S
C135 O132 1.320 . S
C135 O133 1.214 . S
O136 Cd128 2.277 . S
O136 C131 1.209 . S
C137 O134 1.258 . S
C137 O139 1.282 . S
O138 Cd130 2.277 . S
O138 C131 1.226 . S
O139 Cd130 2.356 . S
O139 C137 1.282 . S
C140 O141 1.306 . S
C140 O143 1.160 . S
O141 C140 1.306 . S
O141 Cd142 2.228 . S
Cd142 O141 2.228 . S
Cd142 O146 2.273 . S
Cd142 O150 2.277 . S
O143 C140 1.160 . S
O143 Cd144 2.203 . S
Cd144 O143 2.203 . S
Cd144 O146 2.411 . S
Cd144 O147 2.333 . S
Cd144 O148 2.352 . S
Cd144 O152 2.277 . S
Cd144 O153 2.356 . S
C145 O150 1.209 . S
C145 O152 1.226 . S
O146 Cd142 2.273 . S
O146 Cd144 2.411 . S
O146 C149 1.320 . S
O147 Cd144 2.333 . S
O147 C149 1.214 . S
O148 Cd144 2.352 . S
O148 C151 1.258 . S
C149 O146 1.320 . S
C149 O147 1.214 . S
O150 Cd142 2.277 . S
O150 C145 1.209 . S
C151 O148 1.258 . S
C151 O153 1.282 . S
O152 Cd144 2.277 . S
O152 C145 1.226 . S
O153 Cd144 2.356 . S
O153 C151 1.282 . S
C154 O155 1.306 . S
C154 O157 1.160 . S
O155 C154 1.306 . S
O155 Cd156 2.228 . S
Cd156 O155 2.228 . S
Cd156 O160 2.273 . S
Cd156 O164 2.277 . S
O157 C154 1.160 . S
O157 Cd158 2.203 . S
Cd158 O157 2.203 . S
Cd158 O160 2.411 . S
Cd158 O161 2.333 . S
Cd158 O162 2.352 . S
Cd158 O166 2.277 . S
Cd158 O167 2.356 . S
C159 O164 1.209 . S
C159 O166 1.226 . S
O160 Cd156 2.273 . S
O160 Cd158 2.411 . S
O160 C163 1.320 . S
O161 Cd158 2.333 . S
O161 C163 1.214 . S
O162 Cd158 2.352 . S
O162 C165 1.258 . S
C163 O160 1.320 . S
C163 O161 1.214 . S
O164 Cd156 2.277 . S
O164 C159 1.209 . S
C165 O162 1.258 . S
C165 O167 1.282 . S
O166 Cd158 2.277 . S
O166 C159 1.226 . S
O167 Cd158 2.356 . S
O167 C165 1.282 . S
C168 O169 1.306 . S
C168 O171 1.160 . S
O169 C168 1.306 . S
O169 Cd170 2.228 . S
Cd170 O169 2.228 . S
Cd170 O174 2.273 . S
Cd170 O178 2.277 . S
O171 C168 1.160 . S
O171 Cd172 2.203 . S
Cd172 O171 2.203 . S
Cd172 O174 2.411 . S
Cd172 O175 2.333 . S
Cd172 O176 2.352 . S
Cd172 O180 2.277 . S
Cd172 O181 2.356 . S
C173 O178 1.209 . S
C173 O180 1.226 . S
O174 Cd170 2.273 . S
O174 Cd172 2.411 . S
O174 C177 1.320 . S
O175 Cd172 2.333 . S
O175 C177 1.214 . S
O176 Cd172 2.352 . S
O176 C179 1.258 . S
C177 O174 1.320 . S
C177 O175 1.214 . S
O178 Cd170 2.277 . S
O178 C173 1.209 . S
C179 O176 1.258 . S
C179 O181 1.282 . S
O180 Cd172 2.277 . S
O180 C173 1.226 . S
O181 Cd172 2.356 . S
O181 C179 1.282 . S
C182 O183 1.306 . S
C182 O185 1.160 . S
O183 C182 1.306 . S
O183 Cd184 2.228 . S
Cd184 O183 2.228 . S
Cd184 O188 2.273 . S
Cd184 O192 2.277 . S
O185 C182 1.160 . S
O185 Cd186 2.203 . S
Cd186 O185 2.203 . S
Cd186 O188 2.411 . S
Cd186 O189 2.333 . S
Cd186 O190 2.352 . S
Cd186 O194 2.277 . S
Cd186 O195 2.356 . S
C187 O192 1.209 . S
C187 O194 1.226 . S
O188 Cd184 2.273 . S
O188 Cd186 2.411 . S
O188 C191 1.320 . S
O189 Cd186 2.333 . S
O189 C191 1.214 . S
O190 Cd186 2.352 . S
O190 C193 1.258 . S
C191 O188 1.320 . S
C191 O189 1.214 . S
O192 Cd184 2.277 . S
O192 C187 1.209 . S
C193 O190 1.258 . S
C193 O195 1.282 . S
O194 Cd186 2.277 . S
O194 C187 1.226 . S
O195 Cd186 2.356 . S
O195 C193 1.282 . S
C196 O197 1.306 . S
C196 O199 1.160 . S
O197 C196 1.306 . S
O197 Cd198 2.228 . S
Cd198 O197 2.228 . S
Cd198 O202 2.273 . S
Cd198 O206 2.277 . S
O199 C196 1.160 . S
O199 Cd200 2.203 . S
Cd200 O199 2.203 . S
Cd200 O202 2.411 . S
Cd200 O203 2.333 . S
Cd200 O204 2.352 . S
Cd200 O208 2.277 . S
Cd200 O209 2.356 . S
C201 O206 1.209 . S
C201 O208 1.226 . S
O202 Cd198 2.273 . S
O202 Cd200 2.411 . S
O202 C205 1.320 . S
O203 Cd200 2.333 . S
O203 C205 1.214 . S
O204 Cd200 2.352 . S
O204 C207 1.258 . S
C205 O202 1.320 . S
C205 O203 1.214 . S
O206 Cd198 2.277 . S
O206 C201 1.209 . S
C207 O204 1.258 . S
C207 O209 1.282 . S
O208 Cd200 2.277 . S
O208 C201 1.226 . S
O209 Cd200 2.356 . S
O209 C207 1.282 . S
C210 O211 1.306 . S
C210 O213 1.160 . S
O211 C210 1.306 . S
O211 Cd212 2.228 . S
Cd212 O211 2.228 . S
Cd212 O216 2.273 . S
Cd212 O220 2.277 . S
O213 C210 1.160 . S
O213 Cd214 2.203 . S
Cd214 O213 2.203 . S
Cd214 O216 2.411 . S
Cd214 O217 2.333 . S
Cd214 O218 2.352 . S
Cd214 O222 2.277 . S
Cd214 O223 2.356 . S
C215 O220 1.209 . S
C215 O222 1.226 . S
O216 Cd212 2.273 . S
O216 Cd214 2.411 . S
O216 C219 1.320 . S
O217 Cd214 2.333 . S
O217 C219 1.214 . S
O218 Cd214 2.352 . S
O218 C221 1.258 . S
C219 O216 1.320 . S
C219 O217 1.214 . S
O220 Cd212 2.277 . S
O220 C215 1.209 . S
C221 O218 1.258 . S
C221 O223 1.282 . S
O222 Cd214 2.277 . S
O222 C215 1.226 . S
O223 Cd214 2.356 . S
O223 C221 1.282 . S
C224 C225 1.369 . S
C224 C226 1.419 . S
C224 H228 0.930 . S
C225 C224 1.369 . S
C225 C234 1.429 . S
C226 C224 1.419 . S
C226 C227 1.363 . S
C226 H229 0.929 . S
C227 C226 1.363 . S
C227 C233 1.428 . S
H228 C224 0.930 . S
H229 C226 0.929 . S
S230 N231 1.613 . S
S230 N232 1.610 . S
N231 S230 1.613 . S
N231 C234 1.350 . S
N232 S230 1.610 . S
N232 C233 1.351 . S
C233 C227 1.428 . S
C233 N232 1.351 . S
C233 C234 1.434 . S
C234 C225 1.429 . S
C234 N231 1.350 . S
C234 C233 1.434 . S
C235 C236 1.369 . S
C235 C237 1.419 . S
C235 H239 0.930 . S
C236 C235 1.369 . S
C236 C245 1.429 . S
C237 C235 1.419 . S
C237 C238 1.363 . S
C237 H240 0.929 . S
C238 C237 1.363 . S
C238 C244 1.428 . S
H239 C235 0.930 . S
H240 C237 0.929 . S
S241 N242 1.613 . S
S241 N243 1.610 . S
N242 S241 1.613 . S
N242 C245 1.350 . S
N243 S241 1.610 . S
N243 C244 1.351 . S
C244 C238 1.428 . S
C244 N243 1.351 . S
C244 C245 1.434 . S
C245 C236 1.429 . S
C245 N242 1.350 . S
C245 C244 1.434 . S
C246 C247 1.369 . S
C246 C248 1.419 . S
C246 H250 0.930 . S
C247 C246 1.369 . S
C247 C256 1.429 . S
C248 C246 1.419 . S
C248 C249 1.363 . S
C248 H251 0.929 . S
C249 C248 1.363 . S
C249 C255 1.428 . S
H250 C246 0.930 . S
H251 C248 0.929 . S
S252 N253 1.613 . S
S252 N254 1.610 . S
N253 S252 1.613 . S
N253 C256 1.350 . S
N254 S252 1.610 . S
N254 C255 1.351 . S
C255 C249 1.428 . S
C255 N254 1.351 . S
C255 C256 1.434 . S
C256 C247 1.429 . S
C256 N253 1.350 . S
C256 C255 1.434 . S
C257 C258 1.369 . S
C257 C259 1.419 . S
C257 H261 0.930 . S
C258 C257 1.369 . S
C258 C267 1.429 . S
C259 C257 1.419 . S
C259 C260 1.363 . S
C259 H262 0.929 . S
C260 C259 1.363 . S
C260 C266 1.428 . S
H261 C257 0.930 . S
H262 C259 0.929 . S
S263 N264 1.613 . S
S263 N265 1.610 . S
N264 S263 1.613 . S
N264 C267 1.350 . S
N265 S263 1.610 . S
N265 C266 1.351 . S
C266 C260 1.428 . S
C266 N265 1.351 . S
C266 C267 1.434 . S
C267 C258 1.429 . S
C267 N264 1.350 . S
C267 C266 1.434 . S
C268 C269 1.369 . S
C268 C270 1.419 . S
C268 H272 0.930 . S
C269 C268 1.369 . S
C269 C278 1.429 . S
C270 C268 1.419 . S
C270 C271 1.363 . S
C270 H273 0.929 . S
C271 C270 1.363 . S
C271 C277 1.428 . S
H272 C268 0.930 . S
H273 C270 0.929 . S
S274 N275 1.613 . S
S274 N276 1.610 . S
N275 S274 1.613 . S
N275 C278 1.350 . S
N276 S274 1.610 . S
N276 C277 1.351 . S
C277 C271 1.428 . S
C277 N276 1.351 . S
C277 C278 1.434 . S
C278 C269 1.429 . S
C278 N275 1.350 . S
C278 C277 1.434 . S
C279 C280 1.369 . S
C279 C281 1.419 . S
C279 H283 0.930 . S
C280 C279 1.369 . S
C280 C289 1.429 . S
C281 C279 1.419 . S
C281 C282 1.363 . S
C281 H284 0.929 . S
C282 C281 1.363 . S
C282 C288 1.428 . S
H283 C279 0.930 . S
H284 C281 0.929 . S
S285 N286 1.613 . S
S285 N287 1.610 . S
N286 S285 1.613 . S
N286 C289 1.350 . S
N287 S285 1.610 . S
N287 C288 1.351 . S
C288 C282 1.428 . S
C288 N287 1.351 . S
C288 C289 1.434 . S
C289 C280 1.429 . S
C289 N286 1.350 . S
C289 C288 1.434 . S
C290 C291 1.369 . S
C290 C292 1.419 . S
C290 H294 0.930 . S
C291 C290 1.369 . S
C291 C300 1.429 . S
C292 C290 1.419 . S
C292 C293 1.363 . S
C292 H295 0.929 . S
C293 C292 1.363 . S
C293 C299 1.428 . S
H294 C290 0.930 . S
H295 C292 0.929 . S
S296 N297 1.613 . S
S296 N298 1.610 . S
N297 S296 1.613 . S
N297 C300 1.350 . S
N298 S296 1.610 . S
N298 C299 1.351 . S
C299 C293 1.428 . S
C299 N298 1.351 . S
C299 C300 1.434 . S
C300 C291 1.429 . S
C300 N297 1.350 . S
C300 C299 1.434 . S
C301 C302 1.369 . S
C301 C303 1.419 . S
C301 H305 0.930 . S
C302 C301 1.369 . S
C302 C311 1.429 . S
C303 C301 1.419 . S
C303 C304 1.363 . S
C303 H306 0.929 . S
C304 C303 1.363 . S
C304 C310 1.428 . S
H305 C301 0.930 . S
H306 C303 0.929 . S
S307 N308 1.613 . S
S307 N309 1.610 . S
N308 S307 1.613 . S
N308 C311 1.350 . S
N309 S307 1.610 . S
N309 C310 1.351 . S
C310 C304 1.428 . S
C310 N309 1.351 . S
C310 C311 1.434 . S
C311 C302 1.429 . S
C311 N308 1.350 . S
C311 C310 1.434 . S
C312 C313 1.369 . S
C312 C314 1.419 1_565 S
C312 H316 0.931 . S
C313 C312 1.369 . S
C313 C322 1.429 . S
C314 C312 1.419 1_545 S
C314 C315 1.363 . S
C314 H317 0.929 . S
C315 C314 1.363 . S
C315 C321 1.429 1_545 S
H316 C312 0.931 . S
H317 C314 0.929 . S
S318 N319 1.613 . S
S318 N320 1.610 . S
N319 S318 1.613 . S
N319 C322 1.350 . S
N320 S318 1.610 . S
N320 C321 1.351 . S
C321 C315 1.429 1_565 S
C321 N320 1.351 . S
C321 C322 1.433 . S
C322 C313 1.429 . S
C322 N319 1.350 . S
C322 C321 1.433 . S
C323 C324 1.369 . S
C323 C325 1.419 . S
C323 H327 0.930 . S
C324 C323 1.369 . S
C324 C333 1.429 . S
C325 C323 1.419 . S
C325 C326 1.363 . S
C325 H328 0.929 . S
C326 C325 1.363 . S
C326 C332 1.428 . S
H327 C323 0.930 . S
H328 C325 0.929 . S
S329 N330 1.613 . S
S329 N331 1.610 . S
N330 S329 1.613 . S
N330 C333 1.350 . S
N331 S329 1.610 . S
N331 C332 1.351 . S
C332 C326 1.428 . S
C332 N331 1.351 . S
C332 C333 1.434 . S
C333 C324 1.429 . S
C333 N330 1.350 . S
C333 C332 1.434 . S
C334 C335 1.369 1_554 S
C334 C336 1.419 . S
C334 H338 0.930 . S
C335 C334 1.369 1_556 S
C335 C344 1.429 . S
C336 C334 1.419 . S
C336 C337 1.363 . S
C336 H339 0.929 . S
C337 C336 1.363 . S
C337 C343 1.428 1_554 S
H338 C334 0.930 . S
H339 C336 0.929 . S
S340 N341 1.613 . S
S340 N342 1.610 . S
N341 S340 1.613 . S
N341 C344 1.350 . S
N342 S340 1.610 . S
N342 C343 1.351 . S
C343 C337 1.428 1_556 S
C343 N342 1.351 . S
C343 C344 1.434 . S
C344 C335 1.429 . S
C344 N341 1.350 . S
C344 C343 1.434 . S
C345 C346 1.369 . S
C345 C347 1.419 . S
C345 H349 0.930 . S
C346 C345 1.369 . S
C346 C355 1.429 1_554 S
C347 C345 1.419 . S
C347 C348 1.363 1_554 S
C347 H350 0.929 . S
C348 C347 1.363 1_556 S
C348 C354 1.428 . S
H349 C345 0.930 . S
H350 C347 0.929 . S
S351 N352 1.613 . S
S351 N353 1.610 . S
N352 S351 1.613 . S
N352 C355 1.350 . S
N353 S351 1.610 . S
N353 C354 1.351 . S
C354 C348 1.428 . S
C354 N353 1.351 . S
C354 C355 1.434 . S
C355 C346 1.429 1_556 S
C355 N352 1.350 . S
C355 C354 1.434 . S
C356 C357 1.369 . S
C356 C358 1.419 . S
C356 H360 0.930 . S
C357 C356 1.369 . S
C357 C366 1.429 . S
C358 C356 1.419 . S
C358 C359 1.363 . S
C358 H361 0.929 . S
C359 C358 1.363 . S
C359 C365 1.428 . S
H360 C356 0.930 . S
H361 C358 0.929 . S
S362 N363 1.613 . S
S362 N364 1.610 . S
N363 S362 1.613 . S
N363 C366 1.350 . S
N364 S362 1.610 . S
N364 C365 1.351 . S
C365 C359 1.428 . S
C365 N364 1.351 . S
C365 C366 1.434 . S
C366 C357 1.429 . S
C366 N363 1.350 . S
C366 C365 1.434 . S
C367 C368 1.369 . S
C367 C369 1.419 . S
C367 H371 0.930 . S
C368 C367 1.369 . S
C368 C377 1.429 . S
C369 C367 1.419 . S
C369 C370 1.363 . S
C369 H372 0.929 . S
C370 C369 1.363 . S
C370 C376 1.428 . S
H371 C367 0.930 . S
H372 C369 0.929 . S
S373 N374 1.613 . S
S373 N375 1.610 . S
N374 S373 1.613 . S
N374 C377 1.350 . S
N375 S373 1.610 . S
N375 C376 1.351 . S
C376 C370 1.428 . S
C376 N375 1.351 . S
C376 C377 1.434 . S
C377 C368 1.429 . S
C377 N374 1.350 . S
C377 C376 1.434 . S
C378 C379 1.369 . S
C378 C380 1.397 1_655 S
C378 H382 0.930 . S
C379 C378 1.369 . S
C379 C388 1.427 1_655 S
C380 C378 1.397 1_455 S
C380 C381 1.386 . S
C380 H383 0.928 1_455 S
C381 C380 1.386 . S
C381 C387 1.428 . S
H382 C378 0.930 . S
H383 C380 0.928 1_655 S
S384 N385 1.613 . S
S384 N386 1.610 . S
N385 S384 1.613 . S
N385 C388 1.350 . S
N386 S384 1.610 . S
N386 C387 1.351 . S
C387 C381 1.428 . S
C387 N386 1.351 . S
C387 C388 1.436 . S
C388 C379 1.427 1_455 S
C388 N385 1.350 . S
C388 C387 1.436 . S
C389 C390 1.369 . S
C389 C391 1.419 . S
C389 H393 0.930 . S
C390 C389 1.369 . S
C390 C399 1.429 1_655 S
C391 C389 1.419 . S
C391 C392 1.363 1_655 S
C391 H394 0.929 . S
C392 C391 1.363 1_455 S
C392 C398 1.428 . S
H393 C389 0.930 . S
H394 C391 0.929 . S
S395 N396 1.613 . S
S395 N397 1.610 . S
N396 S395 1.613 . S
N396 C399 1.350 . S
N397 S395 1.610 . S
N397 C398 1.351 . S
C398 C392 1.428 . S
C398 N397 1.351 . S
C398 C399 1.434 . S
C399 C390 1.429 1_455 S
C399 N396 1.350 . S
C399 C398 1.434 . S
C400 C401 1.369 . S
C400 C402 1.419 . S
C400 H404 0.930 . S
C401 C400 1.369 . S
C401 C410 1.429 . S
C402 C400 1.419 . S
C402 C403 1.363 . S
C402 H405 0.929 . S
C403 C402 1.363 . S
C403 C409 1.428 . S
H404 C400 0.930 . S
H405 C402 0.929 . S
S406 N407 1.613 . S
S406 N408 1.610 . S
N407 S406 1.613 . S
N407 C410 1.350 . S
N408 S406 1.610 . S
N408 C409 1.351 . S
C409 C403 1.428 . S
C409 N408 1.351 . S
C409 C410 1.434 . S
C410 C401 1.429 . S
C410 N407 1.350 . S
C410 C409 1.434 . S
C411 C412 1.369 . S
C411 C413 1.419 . S
C411 H415 0.930 . S
C412 C411 1.369 . S
C412 C421 1.429 1_545 S
C413 C411 1.419 . S
C413 C414 1.363 1_545 S
C413 H416 0.929 . S
C414 C413 1.363 1_565 S
C414 C420 1.428 . S
H415 C411 0.930 . S
H416 C413 0.929 . S
S417 N418 1.613 . S
S417 N419 1.610 . S
N418 S417 1.613 . S
N418 C421 1.350 . S
N419 S417 1.610 . S
N419 C420 1.351 . S
C420 C414 1.428 . S
C420 N419 1.351 . S
C420 C421 1.434 . S
C421 C412 1.429 1_565 S
C421 N418 1.350 . S
C421 C420 1.434 . S
C422 C423 1.369 . S
C422 C424 1.419 . S
C422 H426 0.930 . S
C423 C422 1.369 . S
C423 C432 1.429 . S
C424 C422 1.419 . S
C424 C425 1.363 . S
C424 H427 0.929 . S
C425 C424 1.363 . S
C425 C431 1.428 . S
H426 C422 0.930 . S
H427 C424 0.929 . S
S428 N429 1.613 . S
S428 N430 1.610 . S
N429 S428 1.613 . S
N429 C432 1.350 . S
N430 S428 1.610 . S
N430 C431 1.351 . S
C431 C425 1.428 . S
C431 N430 1.351 . S
C431 C432 1.434 . S
C432 C423 1.429 . S
C432 N429 1.350 . S
C432 C431 1.434 . S
C433 C434 1.369 1_556 S
C433 C435 1.419 . S
C433 H437 0.930 . S
C434 C433 1.369 1_554 S
C434 C443 1.429 . S
C435 C433 1.419 . S
C435 C436 1.363 . S
C435 H438 0.929 . S
C436 C435 1.363 . S
C436 C442 1.428 1_556 S
H437 C433 0.930 . S
H438 C435 0.929 . S
S439 N440 1.613 . S
S439 N441 1.610 . S
N440 S439 1.613 . S
N440 C443 1.350 . S
N441 S439 1.610 . S
N441 C442 1.351 . S
C442 C436 1.428 1_554 S
C442 N441 1.351 . S
C442 C443 1.434 . S
C443 C434 1.429 . S
C443 N440 1.350 . S
C443 C442 1.434 . S
C444 C445 1.369 . S
C444 C446 1.419 1_556 S
C444 H448 0.930 . S
C445 C444 1.369 . S
C445 C454 1.429 . S
C446 C444 1.419 1_554 S
C446 C447 1.363 . S
C446 H449 0.929 . S
C447 C446 1.363 . S
C447 C453 1.428 . S
H448 C444 0.930 . S
H449 C446 0.929 . S
S450 N451 1.613 . S
S450 N452 1.610 1_556 S
N451 S450 1.613 . S
N451 C454 1.350 . S
N452 S450 1.610 1_554 S
N452 C453 1.351 . S
C453 C447 1.428 . S
C453 N452 1.351 . S
C453 C454 1.434 1_554 S
C454 C445 1.429 . S
C454 N451 1.350 . S
C454 C453 1.434 1_556 S
C455 C456 1.369 . S
C455 C457 1.419 . S
C455 H459 0.930 . S
C456 C455 1.369 . S
C456 C465 1.429 . S
C457 C455 1.419 . S
C457 C458 1.363 . S
C457 H460 0.929 . S
C458 C457 1.363 . S
C458 C464 1.428 . S
H459 C455 0.930 . S
H460 C457 0.929 . S
S461 N462 1.613 . S
S461 N463 1.610 . S
N462 S461 1.613 . S
N462 C465 1.350 . S
N463 S461 1.610 . S
N463 C464 1.351 . S
C464 C458 1.428 . S
C464 N463 1.351 . S
C464 C465 1.434 . S
C465 C456 1.429 . S
C465 N462 1.350 . S
C465 C464 1.434 . S
C466 C467 1.369 . S
C466 C468 1.419 . S
C466 H470 0.930 . S
C467 C466 1.369 . S
C467 C476 1.429 . S
C468 C466 1.419 . S
C468 C469 1.363 . S
C468 H471 0.929 . S
C469 C468 1.363 . S
C469 C475 1.428 . S
H470 C466 0.930 . S
H471 C468 0.929 . S
S472 N473 1.613 . S
S472 N474 1.610 . S
N473 S472 1.613 . S
N473 C476 1.350 . S
N474 S472 1.610 . S
N474 C475 1.351 . S
C475 C469 1.428 . S
C475 N474 1.351 . S
C475 C476 1.434 . S
C476 C467 1.429 . S
C476 N473 1.350 . S
C476 C475 1.434 . S
C477 C478 1.369 . S
C477 C479 1.419 1_455 S
C477 H481 0.930 . S
C478 C477 1.369 . S
C478 C487 1.429 . S
C479 C477 1.419 1_655 S
C479 C480 1.363 . S
C479 H482 0.929 . S
C480 C479 1.363 . S
C480 C486 1.428 . S
H481 C477 0.930 . S
H482 C479 0.929 . S
S483 N484 1.613 . S
S483 N485 1.610 . S
N484 S483 1.613 . S
N484 C487 1.350 . S
N485 S483 1.610 . S
N485 C486 1.351 1_455 S
C486 C480 1.428 . S
C486 N485 1.351 1_655 S
C486 C487 1.434 1_655 S
C487 C478 1.429 . S
C487 N484 1.350 . S
C487 C486 1.434 1_455 S
C488 C489 1.369 . S
C488 C490 1.419 1_455 S
C488 H492 0.930 . S
C489 C488 1.369 . S
C489 C498 1.429 . S
C490 C488 1.419 1_655 S
C490 C491 1.363 . S
C490 H493 0.929 . S
C491 C490 1.363 . S
C491 C497 1.428 . S
H492 C488 0.930 . S
H493 C490 0.929 . S
S494 N495 1.613 . S
S494 N496 1.586 1_455 S
N495 S494 1.613 . S
N495 C498 1.350 . S
N496 S494 1.586 1_655 S
N496 C497 1.353 . S
C497 C491 1.428 . S
C497 N496 1.353 . S
C497 C498 1.434 1_655 S
C498 C489 1.429 . S
C498 N495 1.350 . S
C498 C497 1.434 1_455 S
C499 C500 1.369 . S
C499 C501 1.419 . S
C499 H503 0.930 . S
C500 C499 1.369 . S
C500 C509 1.429 . S
C501 C499 1.419 . S
C501 C502 1.363 . S
C501 H504 0.929 . S
C502 C501 1.363 . S
C502 C508 1.428 . S
H503 C499 0.930 . S
H504 C501 0.929 . S
S505 N506 1.613 . S
S505 N507 1.610 . S
N506 S505 1.613 . S
N506 C509 1.350 . S
N507 S505 1.610 . S
N507 C508 1.351 . S
C508 C502 1.428 . S
C508 N507 1.351 . S
C508 C509 1.434 . S
C509 C500 1.429 . S
C509 N506 1.350 . S
C509 C508 1.434 . S
C510 C511 1.369 . S
C510 C512 1.419 . S
C510 H514 0.930 . S
C511 C510 1.369 . S
C511 C520 1.429 . S
C512 C510 1.419 . S
C512 C513 1.363 . S
C512 H515 0.929 . S
C513 C512 1.363 . S
C513 C519 1.428 . S
H514 C510 0.930 . S
H515 C512 0.929 . S
S516 N517 1.613 . S
S516 N518 1.610 . S
N517 S516 1.613 . S
N517 C520 1.350 . S
N518 S516 1.610 . S
N518 C519 1.351 . S
C519 C513 1.428 . S
C519 N518 1.351 . S
C519 C520 1.434 . S
C520 C511 1.429 . S
C520 N517 1.350 . S
C520 C519 1.434 . S
C521 C522 1.369 . S
C521 C523 1.419 1_545 S
C521 H525 0.930 . S
C522 C521 1.369 . S
C522 C531 1.429 . S
C523 C521 1.419 1_565 S
C523 C524 1.363 . S
C523 H526 0.929 . S
C524 C523 1.363 . S
C524 C530 1.428 . S
H525 C521 0.930 . S
H526 C523 0.929 . S
S527 N528 1.613 1_565 S
S527 N529 1.610 . S
N528 S527 1.613 1_545 S
N528 C531 1.350 . S
N529 S527 1.610 . S
N529 C530 1.351 . S
C530 C524 1.428 . S
C530 N529 1.351 . S
C530 C531 1.434 1_565 S
C531 C522 1.429 . S
C531 N528 1.350 . S
C531 C530 1.434 1_545 S
C532 C533 1.369 . S
C532 C534 1.419 . S
C532 H536 0.930 . S
C533 C532 1.369 . S
C533 C542 1.429 . S
C534 C532 1.419 . S
C534 C535 1.363 . S
C534 H537 0.929 . S
C535 C534 1.363 . S
C535 C541 1.428 . S
H536 C532 0.930 . S
H537 C534 0.929 . S
S538 N539 1.613 . S
S538 N540 1.610 . S
N539 S538 1.613 . S
N539 C542 1.350 . S
N540 S538 1.610 . S
N540 C541 1.351 . S
C541 C535 1.428 . S
C541 N540 1.351 . S
C541 C542 1.434 . S
C542 C533 1.429 . S
C542 N539 1.350 . S
C542 C541 1.434 . S
C543 C544 1.369 . S
C543 C545 1.419 . S
C543 H547 0.930 . S
C544 C543 1.369 . S
C544 C553 1.429 . S
C545 C543 1.419 . S
C545 C546 1.363 . S
C545 H548 0.929 . S
C546 C545 1.363 . S
C546 C552 1.428 . S
H547 C543 0.930 . S
H548 C545 0.929 . S
S549 N550 1.613 . S
S549 N551 1.610 . S
N550 S549 1.613 . S
N550 C553 1.350 . S
N551 S549 1.610 . S
N551 C552 1.351 . S
C552 C546 1.428 . S
C552 N551 1.351 . S
C552 C553 1.434 . S
C553 C544 1.429 . S
C553 N550 1.350 . S
C553 C552 1.434 . S
C554 C555 1.369 . S
C554 C556 1.419 1_545 S
C554 H558 0.930 . S
C555 C554 1.369 . S
C555 C564 1.429 . S
C556 C554 1.419 1_565 S
C556 C557 1.363 . S
C556 H559 0.929 . S
C557 C556 1.363 . S
C557 C563 1.428 . S
H558 C554 0.930 . S
H559 C556 0.929 . S
S560 N561 1.613 . S
S560 N562 1.610 1_545 S
N561 S560 1.613 . S
N561 C564 1.350 . S
N562 S560 1.610 1_565 S
N562 C563 1.351 . S
C563 C557 1.428 . S
C563 N562 1.351 . S
C563 C564 1.434 1_565 S
C564 C555 1.429 . S
C564 N561 1.350 . S
C564 C563 1.434 1_545 S
C565 C566 1.369 . S
C565 C567 1.419 . S
C565 H569 0.930 . S
C566 C565 1.369 . S
C566 C575 1.429 . S
C567 C565 1.419 . S
C567 C568 1.363 . S
C567 H570 0.929 . S
C568 C567 1.363 . S
C568 C574 1.428 . S
H569 C565 0.930 . S
H570 C567 0.929 . S
S571 N572 1.613 . S
S571 N573 1.610 . S
N572 S571 1.613 . S
N572 C575 1.350 . S
N573 S571 1.610 . S
N573 C574 1.351 . S
C574 C568 1.428 . S
C574 N573 1.351 . S
C574 C575 1.434 . S
C575 C566 1.429 . S
C575 N572 1.350 . S
C575 C574 1.434 . S
C225 C9 1.224 . S
C227 C191 1.201 . S
C236 C23 1.221 . S
C238 C135 1.205 . S
C247 C205 1.201 . S
C249 C37 1.224 . S
C258 C51 1.225 . S
C260 C219 1.200 . S
C269 C65 1.223 . S
C271 C93 1.202 . S
C280 C149 1.224 . S
C282 C79 1.201 . S
C291 C163 1.223 . S
C293 C107 1.204 . S
C302 C121 1.208 . S
C304 C177 1.221 . S
C313 C33 1.620 . S
C315 C5 1.621 . S
C324 C19 1.622 . S
C326 C47 1.621 . S
C335 C179 1.700 . S
C337 C11 1.702 . S
C346 C25 1.702 . S
C348 C165 1.697 . S
C357 C67 1.697 . S
C359 C39 1.702 . S
C368 C151 1.696 . S
C370 C53 1.700 . S
C379 C14 1.460 . S
C381 C0 1.457 . S
C390 C42 1.459 . S
C392 C28 1.454 . S
C401 C140 1.459 . S
C403 C56 1.454 . S
C412 C109 1.562 . S
C414 C81 1.562 . S
C423 C95 1.560 . S
C425 C123 1.560 . S
C434 C215 1.772 . S
C436 C75 1.777 . S
C445 C89 1.773 . S
C447 C201 1.776 . S
C456 C131 1.778 . S
C458 C103 1.773 . S
C467 C117 1.775 . S
C469 C187 1.774 . S
C478 C84 1.500 . S
C480 C70 1.505 . S
C489 C112 1.499 . S
C491 C98 1.504 . S
C500 C126 1.499 . S
C502 C182 1.504 . S
C511 C145 1.621 . S
C513 C159 1.620 . S
C522 C173 1.622 . S
C524 C61 1.621 . S
C533 C168 1.457 . S
C535 C154 1.459 . S
C544 C207 1.559 . S
C546 C193 1.560 . S
C555 C137 1.563 . S
C557 C221 1.563 . S
C566 C210 1.505 . S
C568 C196 1.500 . S
