# Generated by pormake.
# Topology wka, (5)-cn, num edge types: 1
# Building blocks:
#     Node 0, Type 0, BuildingBlock: XOMCOT_clean_sbu_0, # of connection points: 5
#     Node 1, Type 0, BuildingBlock: XOMCOT_clean_sbu_0, # of connection points: 5
#     Node 2, Type 0, BuildingBlock: XOMCOT_clean_sbu_0, # of connection points: 5
#     Node 3, Type 0, BuildingBlock: XOMCOT_clean_sbu_0, # of connection points: 5
#     Node 4, Type 0, BuildingBlock: XOMCOT_clean_sbu_0, # of connection points: 5
#     Node 5, Type 0, BuildingBlock: XOMCOT_clean_sbu_0, # of connection points: 5
#     Node 6, Type 0, BuildingBlock: XOMCOT_clean_sbu_0, # of connection points: 5
#     Node 7, Type 0, BuildingBlock: XOMCOT_clean_sbu_0, # of connection points: 5
#     Node 8, Type 0, BuildingBlock: XOMCOT_clean_sbu_0, # of connection points: 5
#     Node 9, Type 0, BuildingBlock: XOMCOT_clean_sbu_0, # of connection points: 5
#     Node 10, Type 0, BuildingBlock: XOMCOT_clean_sbu_0, # of connection points: 5
#     Node 11, Type 0, BuildingBlock: XOMCOT_clean_sbu_0, # of connection points: 5
#     Edge 12, Type (0, 0), BuildingBlock: OJICUG_clean_linker_0, # of connection points: 2
#     Edge 13, Type (0, 0), BuildingBlock: OJICUG_clean_linker_0, # of connection points: 2
#     Edge 14, Type (0, 0), BuildingBlock: OJICUG_clean_linker_0, # of connection points: 2
#     Edge 15, Type (0, 0), BuildingBlock: OJICUG_clean_linker_0, # of connection points: 2
#     Edge 16, Type (0, 0), BuildingBlock: OJICUG_clean_linker_0, # of connection points: 2
#     Edge 17, Type (0, 0), BuildingBlock: OJICUG_clean_linker_0, # of connection points: 2
#     Edge 18, Type (0, 0), BuildingBlock: OJICUG_clean_linker_0, # of connection points: 2
#     Edge 19, Type (0, 0), BuildingBlock: OJICUG_clean_linker_0, # of connection points: 2
#     Edge 20, Type (0, 0), BuildingBlock: OJICUG_clean_linker_0, # of connection points: 2
#     Edge 21, Type (0, 0), BuildingBlock: OJICUG_clean_linker_0, # of connection points: 2
#     Edge 22, Type (0, 0), BuildingBlock: OJICUG_clean_linker_0, # of connection points: 2
#     Edge 23, Type (0, 0), BuildingBlock: OJICUG_clean_linker_0, # of connection points: 2
#     Edge 24, Type (0, 0), BuildingBlock: OJICUG_clean_linker_0, # of connection points: 2
#     Edge 25, Type (0, 0), BuildingBlock: OJICUG_clean_linker_0, # of connection points: 2
#     Edge 26, Type (0, 0), BuildingBlock: OJICUG_clean_linker_0, # of connection points: 2
#     Edge 27, Type (0, 0), BuildingBlock: OJICUG_clean_linker_0, # of connection points: 2
#     Edge 28, Type (0, 0), BuildingBlock: OJICUG_clean_linker_0, # of connection points: 2
#     Edge 29, Type (0, 0), BuildingBlock: OJICUG_clean_linker_0, # of connection points: 2
#     Edge 30, Type (0, 0), BuildingBlock: OJICUG_clean_linker_0, # of connection points: 2
#     Edge 31, Type (0, 0), BuildingBlock: OJICUG_clean_linker_0, # of connection points: 2
#     Edge 32, Type (0, 0), BuildingBlock: OJICUG_clean_linker_0, # of connection points: 2
#     Edge 33, Type (0, 0), BuildingBlock: OJICUG_clean_linker_0, # of connection points: 2
#     Edge 34, Type (0, 0), BuildingBlock: OJICUG_clean_linker_0, # of connection points: 2
#     Edge 35, Type (0, 0), BuildingBlock: OJICUG_clean_linker_0, # of connection points: 2
#     Edge 36, Type (0, 0), BuildingBlock: OJICUG_clean_linker_0, # of connection points: 2
#     Edge 37, Type (0, 0), BuildingBlock: OJICUG_clean_linker_0, # of connection points: 2
#     Edge 38, Type (0, 0), BuildingBlock: OJICUG_clean_linker_0, # of connection points: 2
#     Edge 39, Type (0, 0), BuildingBlock: OJICUG_clean_linker_0, # of connection points: 2
#     Edge 40, Type (0, 0), BuildingBlock: OJICUG_clean_linker_0, # of connection points: 2
#     Edge 41, Type (0, 0), BuildingBlock: OJICUG_clean_linker_0, # of connection points: 2
# Relax obj value: 0.228
# Max RMSD: 0.189
# Mean RMSD: 0.189
data_MOF--net-wka--node1-XOMCOT_clean_sbu_0--edge1-OJICUG_clean_linker_0
_symmetry_space_group_name_H-M    P1
_symmetry_Int_Tables_number       1
_symmetry_cell_setting            triclinic
loop_
_symmetry_equiv_pos_as_xyz
'x, y, z'
_cell_length_a     49.54868
_cell_length_b     49.477323
_cell_length_c     13.285058
_cell_angle_alpha  89.977815
_cell_angle_beta   90.045369
_cell_angle_gamma 120.03994
loop_
_atom_site_label
_atom_site_type_symbol
_atom_site_fract_x
_atom_site_fract_y
_atom_site_fract_z
_atom_type_partial_charge
Co0 Co 0.11815 0.4109 0.07326 0.0
C1 C 0.10889 0.41095 0.29225 0.0
C2 C 0.07855 0.36594 0.22931 0.0
C3 C 0.07719 0.36345 0.33305 0.0
N4 N 0.09821 0.39594 0.20355 0.0
N5 N 0.09646 0.3919 0.37223 0.0
H6 H 0.12816 0.43441 0.29915 0.0
H7 H 0.06792 0.3467 0.17672 0.0
C8 C 0.04998 0.37208 0.00838 0.0
O9 O 0.04061 0.38055 0.08871 0.0
N10 N 0.13823 0.42529 0.9443 0.0
C11 C 0.15708 0.45512 0.9161 0.0
C12 C 0.1587 0.45626 0.81244 0.0
C13 C 0.1295 0.40865 0.85815 0.0
N14 N 0.14083 0.42703 0.77598 0.0
C15 C 0.12262 0.46809 0.13847 0.0
C16 C 0.08077 0.46973 0.0053 0.0
C17 C 0.0948 0.49347 0.07803 0.0
C18 C 0.11646 0.49257 0.14356 0.0
C19 C 0.08792 0.44563 0.00221 0.0
N20 N 0.10736 0.44402 0.07215 0.0
H21 H 0.14078 0.46948 0.18607 0.0
H22 H 0.07843 0.42897 0.9416 0.0
H23 H 0.1668 0.47491 0.96665 0.0
H24 H 0.11304 0.38389 0.85546 0.0
O25 O 0.1579 0.43364 0.1396 0.0
O26 O 0.13706 0.38461 0.08999 0.0
O27 O 0.07881 0.38077 0.9972 0.0
C28 C 0.15976 0.40846 0.13615 0.0
H29 H 0.0644 0.34209 0.37584 0.0
H30 H 0.17062 0.47729 0.76761 0.0
H31 H 0.06461 0.46981 0.95057 0.0
H32 H 0.12958 0.51125 0.19663 0.0
Co33 Co 0.71197 0.10724 0.26004 0.0
C34 C 0.70596 0.10143 0.48032 0.0
C35 C 0.70524 0.06135 0.41733 0.0
C36 C 0.70556 0.05933 0.5211 0.0
N37 N 0.70482 0.08758 0.39174 0.0
N38 N 0.70582 0.08461 0.55978 0.0
H39 H 0.70972 0.12479 0.48775 0.0
H40 H 0.70714 0.04567 0.36508 0.0
C41 C 0.67478 0.04041 0.18947 0.0
O42 O 0.65339 0.03527 0.25711 0.0
N43 N 0.71995 0.12683 0.12976 0.0
C44 C 0.71566 0.15057 0.10187 0.0
C45 C 0.71692 0.15257 0.99833 0.0
C46 C 0.72442 0.11522 0.04376 0.0
N47 N 0.72201 0.12999 0.96207 0.0
C48 C 0.6596 0.11126 0.32987 0.0
C49 C 0.62022 0.0828 0.16875 0.0
C50 C 0.61008 0.09382 0.24908 0.0
C51 C 0.63024 0.10838 0.32967 0.0
C52 C 0.65029 0.08665 0.17135 0.0
N53 N 0.66913 0.09946 0.25375 0.0
H54 H 0.67506 0.12445 0.38975 0.0
H55 H 0.65852 0.07974 0.1065 0.0
H56 H 0.70976 0.16393 0.15256 0.0
H57 H 0.72684 0.09473 0.04025 0.0
O58 O 0.73015 0.14763 0.32207 0.0
O59 O 0.75686 0.12443 0.28139 0.0
O60 O 0.70051 0.06635 0.18935 0.0
C61 C 0.75666 0.14841 0.32192 0.0
H62 H 0.70664 0.04135 0.56437 0.0
H63 H 0.71271 0.16834 0.95339 0.0
H64 H 0.60558 0.07245 0.10326 0.0
H65 H 0.62361 0.11816 0.3914 0.0
Co66 Co 0.61311 0.71386 0.42027 0.0
C67 C 0.61256 0.70721 0.64037 0.0
C68 C 0.65315 0.70905 0.57771 0.0
C69 C 0.65545 0.7094 0.68144 0.0
N70 N 0.6258 0.70701 0.55193 0.0
N71 N 0.62969 0.70809 0.72 0.0
H72 H 0.59231 0.70985 0.64753 0.0
H73 H 0.6712 0.71216 0.52555 0.0
C74 C 0.64359 0.67722 0.35346 0.0
O75 O 0.62787 0.65636 0.42326 0.0
N76 N 0.60125 0.72152 0.29002 0.0
C77 C 0.57305 0.71672 0.26229 0.0
C78 C 0.5722 0.71788 0.15874 0.0
C79 C 0.61732 0.72619 0.20395 0.0
N80 N 0.59999 0.72344 0.12236 0.0
C81 C 0.55666 0.66078 0.48931 0.0
C82 C 0.54805 0.62097 0.33169 0.0
C83 C 0.52691 0.60978 0.41257 0.0
C84 C 0.53127 0.63056 0.49072 0.0
C85 C 0.57312 0.65178 0.33288 0.0
N86 N 0.57831 0.67075 0.41421 0.0
H87 H 0.55798 0.6764 0.54736 0.0
H88 H 0.58834 0.66029 0.26826 0.0
H89 H 0.55378 0.71054 0.31313 0.0
H90 H 0.64036 0.72896 0.20033 0.0
O91 O 0.59096 0.73207 0.48252 0.0
O92 O 0.64075 0.75887 0.44055 0.0
O93 O 0.64262 0.70254 0.34985 0.0
C94 C 0.6167 0.75869 0.48155 0.0
H95 H 0.67501 0.71172 0.72477 0.0
H96 H 0.55211 0.71331 0.11387 0.0
H97 H 0.54535 0.60622 0.26791 0.0
H98 H 0.5146 0.62401 0.55153 0.0
Co99 Co 0.90401 0.60792 0.58809 0.0
C100 C 0.90889 0.60849 0.80817 0.0
C101 C 0.94968 0.64704 0.74526 0.0
C102 C 0.95084 0.65035 0.84868 0.0
N103 N 0.92348 0.62035 0.71992 0.0
N104 N 0.92483 0.62616 0.88738 0.0
H105 H 0.88594 0.58828 0.81465 0.0
H106 H 0.96573 0.66427 0.69282 0.0
C107 C 0.97083 0.63799 0.51712 0.0
O108 O 0.97614 0.62139 0.58307 0.0
N109 N 0.8847 0.59664 0.45776 0.0
C110 C 0.86183 0.56849 0.42659 0.0
C111 C 0.85998 0.56911 0.323 0.0
C112 C 0.89591 0.61406 0.37416 0.0
N113 N 0.88181 0.59769 0.29085 0.0
C114 C 0.90127 0.55192 0.65867 0.0
C115 C 0.92971 0.54152 0.49677 0.0
C116 C 0.92042 0.5208 0.57888 0.0
C117 C 0.90546 0.52613 0.6594 0.0
C118 C 0.92464 0.56702 0.49869 0.0
N119 N 0.91203 0.57295 0.58158 0.0
H120 H 0.88819 0.55408 0.71915 0.0
H121 H 0.93092 0.582 0.43345 0.0
H122 H 0.84913 0.54836 0.47475 0.0
H123 H 0.91525 0.63777 0.37322 0.0
O124 O 0.86348 0.5857 0.64947 0.0
O125 O 0.88697 0.63572 0.60887 0.0
O126 O 0.94484 0.63757 0.51787 0.0
C127 C 0.8629 0.61162 0.64919 0.0
H128 H 0.9683 0.67005 0.89114 0.0
H129 H 0.84554 0.54945 0.27476 0.0
H130 H 0.94077 0.53817 0.43149 0.0
H131 H 0.896 0.50994 0.72178 0.0
Co132 Co 0.30151 0.90131 0.75449 0.0
C133 C 0.30777 0.90712 0.97465 0.0
C134 C 0.30893 0.94743 0.9116 0.0
C135 C 0.30876 0.94952 0.01536 0.0
N136 N 0.30894 0.921 0.88609 0.0
N137 N 0.30821 0.92409 0.0541 0.0
H138 H 0.30369 0.88365 0.98208 0.0
H139 H 0.3072 0.96322 0.8593 0.0
C140 C 0.33984 0.9683 0.68447 0.0
O141 O 0.36123 0.97315 0.75188 0.0
N142 N 0.29335 0.88173 0.62424 0.0
C143 C 0.29721 0.85773 0.59651 0.0
C144 C 0.29605 0.85579 0.49294 0.0
C145 C 0.28923 0.89358 0.53815 0.0
N146 N 0.29145 0.87868 0.45653 0.0
C147 C 0.35267 0.89497 0.82471 0.0
C148 C 0.39325 0.92439 0.66718 0.0
C149 C 0.40265 0.91239 0.7469 0.0
C150 C 0.38181 0.89727 0.82551 0.0
C151 C 0.36336 0.92104 0.66854 0.0
N152 N 0.34397 0.90786 0.74947 0.0
H153 H 0.33671 0.88147 0.88314 0.0
H154 H 0.35573 0.92869 0.6039 0.0
H155 H 0.30276 0.84412 0.64736 0.0
H156 H 0.2872 0.9143 0.53457 0.0
O157 O 0.28194 0.8608 0.81664 0.0
O158 O 0.25678 0.88544 0.7741 0.0
O159 O 0.31405 0.94244 0.68368 0.0
C160 C 0.25589 0.861 0.81512 0.0
H161 H 0.30797 0.96765 0.0586 0.0
H162 H 0.29998 0.83983 0.44811 0.0
H163 H 0.40837 0.93519 0.60302 0.0
H164 H 0.38781 0.88674 0.88671 0.0
Co165 Co 0.41004 0.29747 0.90442 0.0
C166 C 0.41032 0.30685 0.12336 0.0
C167 C 0.36559 0.29322 0.06036 0.0
C168 C 0.36314 0.29223 0.1641 0.0
N169 N 0.39539 0.30282 0.03467 0.0
N170 N 0.3914 0.30075 0.20331 0.0
H171 H 0.43353 0.31047 0.13026 0.0
H172 H 0.34643 0.28508 0.00771 0.0
C173 C 0.37309 0.32895 0.84013 0.0
O174 O 0.38168 0.34649 0.92127 0.0
N175 N 0.42413 0.29147 0.77542 0.0
C176 C 0.45379 0.30174 0.7473 0.0
C177 C 0.45491 0.30129 0.64362 0.0
C178 C 0.40754 0.284 0.68925 0.0
N179 N 0.42583 0.29064 0.60713 0.0
C180 C 0.46817 0.34892 0.97087 0.0
C181 C 0.47122 0.39369 0.84036 0.0
C182 C 0.49485 0.4025 0.91297 0.0
C183 C 0.49322 0.37929 0.97715 0.0
C184 C 0.44654 0.3627 0.83607 0.0
N185 N 0.44422 0.34103 0.9048 0.0
H186 H 0.46895 0.33157 0.01741 0.0
H187 H 0.42999 0.35624 0.77545 0.0
H188 H 0.47355 0.31132 0.79791 0.0
H189 H 0.38295 0.27634 0.68655 0.0
O190 O 0.43137 0.2789 0.97055 0.0
O191 O 0.38246 0.2523 0.91928 0.0
O192 O 0.38109 0.30829 0.82833 0.0
C193 C 0.40569 0.25229 0.96561 0.0
H194 H 0.3419 0.28422 0.20689 0.0
H195 H 0.47585 0.30991 0.59882 0.0
H196 H 0.47179 0.41042 0.78664 0.0
H197 H 0.51174 0.38415 0.03008 0.0
Co198 Co 0.60936 0.9015 0.74882 0.0
C199 C 0.6088 0.90738 0.52868 0.0
C200 C 0.64797 0.94767 0.59171 0.0
C201 C 0.65021 0.94976 0.48795 0.0
N202 N 0.62152 0.92124 0.61725 0.0
N203 N 0.62532 0.92434 0.44921 0.0
H204 H 0.5894 0.88391 0.52126 0.0
H205 H 0.6655 0.96343 0.64399 0.0
C206 C 0.63807 0.96846 0.81925 0.0
O207 O 0.62148 0.97336 0.75215 0.0
N208 N 0.59803 0.88187 0.87905 0.0
C209 C 0.57018 0.85784 0.90677 0.0
C210 C 0.56939 0.85591 0.01034 0.0
C211 C 0.61397 0.89374 0.96517 0.0
N212 N 0.59686 0.87883 0.04678 0.0
C213 C 0.55184 0.89525 0.6792 0.0
C214 C 0.54077 0.92455 0.83732 0.0
C215 C 0.51934 0.91262 0.7577 0.0
C216 C 0.52499 0.89754 0.67881 0.0
C217 C 0.56731 0.9212 0.83555 0.0
N218 N 0.57346 0.90807 0.75435 0.0
H219 H 0.55426 0.88178 0.62054 0.0
H220 H 0.58261 0.92879 0.90009 0.0
H221 H 0.55103 0.84422 0.85591 0.0
H222 H 0.63669 0.91449 0.96879 0.0
O223 O 0.58838 0.86102 0.68647 0.0
O224 O 0.6382 0.88564 0.72868 0.0
O225 O 0.638 0.9426 0.81969 0.0
C226 C 0.61464 0.86123 0.68759 0.0
H227 H 0.66914 0.96787 0.44471 0.0
H228 H 0.5495 0.83994 0.05514 0.0
H229 H 0.53648 0.9353 0.9017 0.0
H230 H 0.50839 0.88703 0.61778 0.0
Co231 Co 0.71501 0.60745 0.92008 0.0
C232 C 0.70834 0.60685 0.69998 0.0
C233 C 0.70953 0.64719 0.76271 0.0
C234 C 0.70985 0.64948 0.65897 0.0
N235 N 0.70794 0.62001 0.78845 0.0
N236 N 0.70895 0.62388 0.62037 0.0
H237 H 0.71127 0.58674 0.69279 0.0
H238 H 0.71235 0.66517 0.81487 0.0
C239 C 0.6785 0.63806 0.98841 0.0
O240 O 0.65706 0.62188 0.92069 0.0
N241 N 0.72284 0.59571 0.05031 0.0
C242 C 0.71824 0.56754 0.078 0.0
C243 C 0.7194 0.5667 0.18156 0.0
C244 C 0.72739 0.61177 0.13644 0.0
N245 N 0.72475 0.59446 0.21801 0.0
C246 C 0.66217 0.55075 0.85104 0.0
C247 C 0.62241 0.54168 0.00898 0.0
C248 C 0.61134 0.52051 0.928 0.0
C249 C 0.6321 0.52513 0.84967 0.0
C250 C 0.65306 0.56705 0.00764 0.0
N251 N 0.67202 0.57241 0.92624 0.0
H252 H 0.67779 0.55225 0.7928 0.0
H253 H 0.66148 0.58233 0.07221 0.0
H254 H 0.71219 0.54826 0.02714 0.0
H255 H 0.73 0.63478 0.14011 0.0
O256 O 0.73343 0.58547 0.85766 0.0
O257 O 0.75984 0.63537 0.89971 0.0
O258 O 0.70374 0.63699 0.99057 0.0
C259 C 0.75989 0.61141 0.85859 0.0
H260 H 0.71185 0.66894 0.61566 0.0
H261 H 0.71496 0.54662 0.22638 0.0
H262 H 0.60765 0.53879 0.07286 0.0
H263 H 0.62563 0.50849 0.78868 0.0
Co264 Co 0.10988 0.71329 0.0806 0.0
C265 C 0.10375 0.70658 0.86052 0.0
C266 C 0.06493 0.70828 0.92318 0.0
C267 C 0.06295 0.70858 0.81945 0.0
N268 N 0.09031 0.70637 0.94896 0.0
N269 N 0.08745 0.70736 0.78088 0.0
H270 H 0.12667 0.70929 0.85334 0.0
H271 H 0.04994 0.71133 0.97533 0.0
C272 C 0.0428 0.67665 0.14783 0.0
O273 O 0.03758 0.65577 0.07801 0.0
N274 N 0.12941 0.721 0.21085 0.0
C275 C 0.15282 0.71622 0.23859 0.0
C276 C 0.15481 0.71734 0.34215 0.0
C277 C 0.11797 0.72562 0.29693 0.0
N278 N 0.13255 0.72286 0.37853 0.0
C279 C 0.11328 0.66019 0.01179 0.0
C280 C 0.08225 0.62049 0.16977 0.0
C281 C 0.09227 0.60929 0.08908 0.0
C282 C 0.10859 0.63003 0.01071 0.0
C283 C 0.08786 0.65125 0.16827 0.0
N284 N 0.1016 0.67018 0.08682 0.0
H285 H 0.12753 0.67579 0.95358 0.0
H286 H 0.08113 0.65977 0.23281 0.0
H287 H 0.16594 0.71006 0.18776 0.0
H288 H 0.0977 0.72836 0.30053 0.0
O289 O 0.15022 0.7315 0.0183 0.0
O290 O 0.1272 0.75828 0.06023 0.0
O291 O 0.06908 0.70199 0.15105 0.0
C292 C 0.15109 0.75812 0.01925 0.0
H293 H 0.04564 0.71078 0.77612 0.0
H294 H 0.17032 0.71277 0.38702 0.0
H295 H 0.07025 0.60577 0.23368 0.0
H296 H 0.11874 0.62347 0.94999 0.0
Co297 Co 0.4054 0.10733 0.24414 0.0
C298 C 0.40562 0.10149 0.02387 0.0
C299 C 0.36618 0.0615 0.08683 0.0
C300 C 0.36384 0.05948 0.98306 0.0
N301 N 0.39288 0.08767 0.11244 0.0
N302 N 0.38891 0.08471 0.94439 0.0
H303 H 0.42527 0.12483 0.01646 0.0
H304 H 0.34856 0.04586 0.13907 0.0
C305 C 0.37557 0.04048 0.31471 0.0
O306 O 0.39181 0.03529 0.24719 0.0
N307 N 0.41702 0.12693 0.37441 0.0
C308 C 0.44507 0.15064 0.40228 0.0
C309 C 0.44582 0.15264 0.50583 0.0
C310 C 0.40094 0.11535 0.46042 0.0
N311 N 0.41813 0.13009 0.5421 0.0
C312 C 0.46172 0.11114 0.17452 0.0
C313 C 0.4725 0.08269 0.33598 0.0
C314 C 0.49368 0.09362 0.2557 0.0
C315 C 0.48815 0.10818 0.17496 0.0
C316 C 0.44632 0.0866 0.33313 0.0
N317 N 0.44037 0.09942 0.2506 0.0
H318 H 0.45951 0.12434 0.11454 0.0
H319 H 0.43116 0.07974 0.39792 0.0
H320 H 0.46433 0.16396 0.35159 0.0
H321 H 0.37801 0.09488 0.46395 0.0
O322 O 0.4277 0.14771 0.18206 0.0
O323 O 0.37779 0.12463 0.22266 0.0
O324 O 0.37587 0.06647 0.31482 0.0
C325 C 0.402 0.14857 0.18214 0.0
H326 H 0.34475 0.04155 0.93978 0.0
H327 H 0.4658 0.16838 0.55075 0.0
H328 H 0.47676 0.07236 0.4016 0.0
H329 H 0.50463 0.11795 0.11338 0.0
Co330 Co 0.303 0.4111 0.43135 0.0
C331 C 0.31229 0.41115 0.21236 0.0
C332 C 0.29766 0.36615 0.27531 0.0
C333 C 0.29655 0.36366 0.17158 0.0
N334 N 0.30798 0.39614 0.30106 0.0
N335 N 0.30569 0.3921 0.13239 0.0
H336 H 0.31646 0.4346 0.20546 0.0
H337 H 0.2891 0.34692 0.32791 0.0
C338 C 0.33251 0.3724 0.49612 0.0
O339 O 0.35029 0.38084 0.41565 0.0
N340 N 0.29733 0.4255 0.56034 0.0
C341 C 0.30826 0.45532 0.58853 0.0
C342 C 0.30779 0.45646 0.6922 0.0
C343 C 0.28945 0.40886 0.64648 0.0
N344 N 0.29648 0.42723 0.72864 0.0
C345 C 0.35557 0.46836 0.36588 0.0
C346 C 0.39926 0.4701 0.49832 0.0
C347 C 0.40883 0.49379 0.42551 0.0
C348 C 0.38617 0.49285 0.36039 0.0
C349 C 0.36803 0.44597 0.50181 0.0
N350 N 0.34688 0.4443 0.43219 0.0
H351 H 0.33871 0.46971 0.31856 0.0
H352 H 0.36097 0.42933 0.56245 0.0
H353 H 0.3183 0.47511 0.53799 0.0
H354 H 0.2812 0.3841 0.64916 0.0
O355 O 0.28588 0.43376 0.3651 0.0
O356 O 0.2578 0.38473 0.41484 0.0
O357 O 0.31235 0.38106 0.50741 0.0
C358 C 0.25888 0.40855 0.36868 0.0
H359 H 0.28802 0.3423 0.12879 0.0
H360 H 0.31686 0.47748 0.73704 0.0
H361 H 0.41558 0.47022 0.55279 0.0
H362 H 0.39164 0.51151 0.3073 0.0
Co363 Co 0.8976 0.29712 0.60006 0.0
C364 C 0.90677 0.30659 0.38118 0.0
C365 C 0.93766 0.29268 0.4441 0.0
C366 C 0.93911 0.29169 0.34036 0.0
N367 N 0.9176 0.30245 0.46983 0.0
N368 N 0.91948 0.30037 0.30118 0.0
H369 H 0.88728 0.31039 0.37436 0.0
H370 H 0.94859 0.28442 0.49671 0.0
C371 C 0.96602 0.3284 0.66427 0.0
O372 O 0.975 0.34588 0.58301 0.0
N373 N 0.87749 0.29112 0.72904 0.0
C374 C 0.85814 0.30145 0.75713 0.0
C375 C 0.85657 0.30101 0.86081 0.0
C376 C 0.88658 0.28364 0.81524 0.0
N377 N 0.87496 0.29032 0.89733 0.0
C378 C 0.89092 0.34862 0.53409 0.0
C379 C 0.93291 0.39337 0.66408 0.0
C380 C 0.91798 0.40223 0.59197 0.0
C381 C 0.89625 0.379 0.52809 0.0
C382 C 0.92652 0.36236 0.6683 0.0
N383 N 0.90704 0.3407 0.59978 0.0
H384 H 0.87274 0.33129 0.48765 0.0
H385 H 0.93666 0.35589 0.72873 0.0
H386 H 0.84799 0.31105 0.7065 0.0
H387 H 0.90349 0.27594 0.81797 0.0
O388 O 0.85772 0.27862 0.53385 0.0
O389 O 0.87994 0.25193 0.58509 0.0
O390 O 0.93733 0.30784 0.67618 0.0
C391 C 0.85674 0.25198 0.53871 0.0
H392 H 0.95223 0.28356 0.29755 0.0
H393 H 0.84428 0.30968 0.90559 0.0
H394 H 0.94922 0.41008 0.71753 0.0
H395 H 0.88249 0.38386 0.47557 0.0
C396 C 0.08427 0.56132 0.99662 0.0
C397 C 0.08806 0.5772 0.08826 0.0
H398 H 0.08397 0.52308 0.92076 0.0
C399 C 0.09025 0.56317 0.17753 0.0
H400 H 0.08161 0.57088 0.92644 0.0
C401 C 0.09056 0.53507 0.17449 0.0
C402 C 0.08922 0.52046 0.08205 0.0
H403 H 0.09321 0.57452 0.2496 0.0
H404 H 0.09287 0.52532 0.24478 0.0
C405 C 0.08509 0.53348 0.99342 0.0
C406 C 0.52319 0.06459 0.2538 0.0
C407 C 0.52309 0.09291 0.25825 0.0
H408 H 0.55129 0.04269 0.24442 0.0
C409 C 0.55151 0.12118 0.25696 0.0
H410 H 0.50144 0.04256 0.25348 0.0
C411 C 0.57964 0.12125 0.25222 0.0
C412 C 0.5799 0.09306 0.24696 0.0
H413 H 0.5519 0.14327 0.2596 0.0
H414 H 0.60129 0.14339 0.25249 0.0
C415 C 0.5515 0.06467 0.24732 0.0
C416 C 0.45449 0.53532 0.32831 0.0
C417 C 0.44138 0.52079 0.42098 0.0
H418 H 0.49112 0.57476 0.2526 0.0
C419 C 0.45862 0.53394 0.50935 0.0
H420 H 0.44235 0.52547 0.25821 0.0
C421 C 0.48722 0.56182 0.50569 0.0
C422 C 0.49914 0.57763 0.41383 0.0
H423 H 0.44946 0.52359 0.58216 0.0
H424 H 0.49951 0.57149 0.57569 0.0
C425 C 0.48284 0.56347 0.32481 0.0
C426 C 0.92804 0.45238 0.67473 0.0
C427 C 0.92293 0.43461 0.5869 0.0
H428 H 0.93252 0.4938 0.74063 0.0
C429 C 0.92042 0.44724 0.49453 0.0
H430 H 0.93005 0.44364 0.74739 0.0
C431 C 0.92078 0.4757 0.49104 0.0
C432 C 0.92418 0.49263 0.57968 0.0
H433 H 0.91733 0.43475 0.42468 0.0
H434 H 0.91705 0.48366 0.41922 0.0
C435 C 0.92893 0.48107 0.67099 0.0
C436 C 0.43319 0.88491 0.75184 0.0
C437 C 0.43288 0.91309 0.7463 0.0
H438 H 0.46094 0.8629 0.75997 0.0
C439 C 0.46131 0.94146 0.74702 0.0
H440 H 0.41155 0.86276 0.75174 0.0
C441 C 0.48963 0.94154 0.75422 0.0
C442 C 0.4898 0.91325 0.75882 0.0
H443 H 0.46156 0.96346 0.74384 0.0
H444 H 0.51137 0.96359 0.75432 0.0
C445 C 0.46135 0.88499 0.7571 0.0
C446 C 0.56523 0.47595 0.01505 0.0
C447 C 0.57929 0.49258 0.92642 0.0
H448 H 0.52724 0.43524 0.08085 0.0
C449 C 0.56343 0.4809 0.8345 0.0
H450 H 0.57659 0.48403 0.08728 0.0
C451 C 0.53549 0.45235 0.83033 0.0
C452 C 0.52232 0.43484 0.91825 0.0
H453 H 0.57305 0.49341 0.7648 0.0
H454 H 0.52505 0.44347 0.75739 0.0
C455 C 0.53705 0.44759 0.01105 0.0
C456 C 0.99604 0.34124 0.93439 0.0
C457 C 0.02849 0.35807 0.92082 0.0
H458 H 0.95113 0.31861 0.86502 0.0
C459 C 0.04021 0.36364 0.82162 0.0
H460 H 0.98616 0.33677 0.0094 0.0
C461 C 0.02007 0.35336 0.73836 0.0
C462 C 0.98762 0.33681 0.75192 0.0
H463 H 0.06496 0.37716 0.80773 0.0
H464 H 0.02994 0.35886 0.66333 0.0
C465 C 0.97592 0.33057 0.85114 0.0
C466 C 0.67753 0.99638 0.95739 0.0
C467 C 0.64884 0.98814 0.91126 0.0
H468 H 0.70877 0.02024 0.08093 0.0
C469 C 0.62873 0.99642 0.95905 0.0
H470 H 0.6933 0.98997 0.92271 0.0
C471 C 0.63678 0.01208 0.05147 0.0
C472 C 0.66567 0.02096 0.09686 0.0
H473 H 0.60628 0.98999 0.92628 0.0
H474 H 0.62063 0.01799 0.08623 0.0
C475 C 0.68622 0.01337 0.04816 0.0
C476 C 0.68196 0.68784 0.21267 0.0
C477 C 0.65392 0.66751 0.26236 0.0
H478 H 0.71233 0.69415 0.08765 0.0
C479 C 0.63397 0.63817 0.21934 0.0
H480 H 0.6976 0.71072 0.24367 0.0
C481 C 0.64152 0.62949 0.12808 0.0
C482 C 0.6698 0.6494 0.07932 0.0
H483 H 0.612 0.62215 0.25495 0.0
H484 H 0.62549 0.60674 0.09691 0.0
C485 C 0.69023 0.67851 0.1232 0.0
C486 C 0.99921 0.67844 0.38206 0.0
C487 C 0.99021 0.64911 0.42475 0.0
H488 H 0.02379 0.71069 0.26148 0.0
C489 C 0.99758 0.62881 0.37355 0.0
H490 H 0.99348 0.69437 0.41948 0.0
C491 C 0.01321 0.63737 0.28124 0.0
C492 C 0.023 0.66696 0.2395 0.0
H493 H 0.9906 0.6059 0.40379 0.0
H494 H 0.01849 0.6211 0.24395 0.0
C495 C 0.01621 0.68762 0.29144 0.0
C496 C 0.33691 0.01336 0.45547 0.0
C497 C 0.36512 0.021 0.40724 0.0
H498 H 0.30623 0.98984 0.58042 0.0
C499 C 0.38508 0.01212 0.45298 0.0
H500 H 0.32125 0.02023 0.42242 0.0
C501 C 0.37733 0.99639 0.54528 0.0
C502 C 0.34887 0.98805 0.59259 0.0
H503 H 0.40719 0.01806 0.41857 0.0
H504 H 0.39332 0.98995 0.57832 0.0
C505 C 0.32848 0.9963 0.54611 0.0
C506 C 0.34394 0.35387 0.76614 0.0
C507 C 0.35985 0.33733 0.75253 0.0
H508 H 0.32276 0.3776 0.69682 0.0
C509 C 0.36526 0.33105 0.6533 0.0
H510 H 0.33962 0.35941 0.84118 0.0
C511 C 0.35573 0.34166 0.57007 0.0
C512 C 0.34009 0.35847 0.58368 0.0
H513 H 0.37809 0.31909 0.63939 0.0
H514 H 0.3611 0.33715 0.49504 0.0
C515 C 0.334 0.36409 0.6829 0.0
C516 C 0.21108 0.43532 0.2229 0.0
C517 C 0.18512 0.40718 0.19162 0.0
H518 H 0.254 0.45762 0.3039 0.0
C519 C 0.18285 0.37884 0.22196 0.0
H520 H 0.21355 0.45758 0.20159 0.0
C521 C 0.20619 0.37886 0.28278 0.0
C522 C 0.23219 0.40721 0.31335 0.0
H523 H 0.16289 0.35677 0.20018 0.0
H524 H 0.20417 0.3568 0.30432 0.0
C525 C 0.23426 0.43533 0.28238 0.0
C526 C 0.78253 0.20191 0.39347 0.0
C527 C 0.78384 0.17475 0.37268 0.0
H528 H 0.80387 0.24677 0.46241 0.0
C529 C 0.80951 0.1727 0.40846 0.0
H530 H 0.76315 0.20437 0.36738 0.0
C531 C 0.83316 0.19736 0.46494 0.0
C532 C 0.8315 0.22442 0.48572 0.0
H533 H 0.81099 0.15191 0.3946 0.0
H534 H 0.85278 0.19538 0.49139 0.0
C535 C 0.80594 0.2263 0.44872 0.0
C536 C 0.58897 0.8084 0.61043 0.0
C537 C 0.61677 0.83541 0.63792 0.0
H538 H 0.56735 0.76387 0.53937 0.0
C539 C 0.64534 0.83761 0.61143 0.0
H540 H 0.56651 0.8058 0.62907 0.0
C541 C 0.64583 0.81316 0.55809 0.0
C542 C 0.61776 0.78616 0.53122 0.0
H543 H 0.66716 0.85826 0.63069 0.0
H544 H 0.66803 0.81521 0.53914 0.0
C545 C 0.58946 0.78424 0.55832 0.0
C546 C 0.7861 0.58484 0.78128 0.0
C547 C 0.78744 0.61292 0.80838 0.0
H548 H 0.80828 0.56259 0.7097 0.0
C549 C 0.81396 0.64129 0.78084 0.0
H550 H 0.76609 0.56252 0.80083 0.0
C551 C 0.83848 0.64133 0.72667 0.0
C552 C 0.83687 0.61301 0.69998 0.0
H553 H 0.81556 0.66333 0.7998 0.0
H554 H 0.85874 0.66341 0.70683 0.0
C555 C 0.81038 0.58488 0.72835 0.0
C556 C 0.22851 0.8079 0.89032 0.0
C557 C 0.22785 0.83507 0.86407 0.0
H558 H 0.20544 0.76316 0.95997 0.0
C559 C 0.20155 0.83732 0.89115 0.0
H560 H 0.24831 0.80526 0.87113 0.0
C561 C 0.17657 0.81278 0.94399 0.0
C562 C 0.17751 0.78563 0.96974 0.0
H563 H 0.20048 0.85809 0.87283 0.0
H564 H 0.15649 0.81488 0.96353 0.0
C565 C 0.20381 0.78365 0.94192 0.0
C566 C 0.42973 0.20202 0.1102 0.0
C567 C 0.40124 0.17494 0.13131 0.0
H568 H 0.45331 0.24686 0.04111 0.0
C569 C 0.37353 0.173 0.09588 0.0
H570 H 0.45157 0.2044 0.136 0.0
C571 C 0.37457 0.19769 0.03948 0.0
C572 C 0.40333 0.22468 0.01844 0.0
H573 H 0.35124 0.15227 0.11 0.0
H574 H 0.35299 0.1958 0.01334 0.0
C575 C 0.43075 0.22645 0.05504 0.0
C576 C 0.1063 0.37816 0.543 0.0
C577 C 0.10642 0.40011 0.47547 0.0
H578 H 0.118 0.36969 0.69049 0.0
C579 C 0.11818 0.43099 0.50863 0.0
H580 H 0.09782 0.35429 0.51966 0.0
C581 C 0.12993 0.43988 0.60603 0.0
C582 C 0.1302 0.41811 0.67349 0.0
H583 H 0.11815 0.44837 0.45919 0.0
H584 H 0.13819 0.46374 0.62883 0.0
C585 C 0.1181 0.38707 0.64081 0.0
C586 C 0.73167 0.10077 0.829 0.0
C587 C 0.71871 0.11911 0.85972 0.0
H588 H 0.73742 0.07501 0.70914 0.0
C589 C 0.7006 0.12476 0.79084 0.0
H590 H 0.74591 0.09611 0.87991 0.0
C591 C 0.69576 0.11263 0.69372 0.0
C592 C 0.70888 0.09456 0.66281 0.0
H593 H 0.68956 0.13801 0.81226 0.0
H594 H 0.68158 0.1173 0.64248 0.0
C595 C 0.72668 0.08848 0.73154 0.0
C596 C 0.64641 0.72952 0.89136 0.0
C597 C 0.62267 0.71105 0.82297 0.0
H598 H 0.65773 0.74895 0.03955 0.0
C599 C 0.59144 0.69703 0.8543 0.0
H600 H 0.67063 0.74096 0.86872 0.0
C601 C 0.584 0.70163 0.95148 0.0
C602 C 0.60763 0.72036 0.01997 0.0
H603 H 0.57269 0.68233 0.80341 0.0
H604 H 0.55972 0.68992 0.97332 0.0
C605 C 0.63895 0.73423 0.98885 0.0
C606 C 0.93541 0.63158 0.07002 0.0
C607 C 0.9141 0.62113 0.98994 0.0
H608 H 0.94171 0.63191 0.22937 0.0
C609 C 0.8819 0.60439 0.01123 0.0
H610 H 0.96027 0.64431 0.05598 0.0
C611 C 0.87131 0.597 0.11002 0.0
C612 C 0.8926 0.60673 0.18963 0.0
H613 H 0.86474 0.59684 0.95166 0.0
H614 H 0.84648 0.58369 0.12445 0.0
C615 C 0.92475 0.62448 0.16908 0.0
C616 C 0.28238 0.90831 0.32328 0.0
C617 C 0.29493 0.8896 0.35417 0.0
H618 H 0.27708 0.93434 0.20327 0.0
C619 C 0.31278 0.88358 0.28542 0.0
H620 H 0.26835 0.91325 0.37408 0.0
C621 C 0.31776 0.89571 0.18824 0.0
C622 C 0.30504 0.91413 0.15717 0.0
H623 H 0.3235 0.87004 0.30698 0.0
H624 H 0.33173 0.89074 0.13709 0.0
C625 C 0.28752 0.92058 0.22579 0.0
C626 C 0.38598 0.27424 0.47201 0.0
C627 C 0.41707 0.29259 0.50465 0.0
H628 H 0.35334 0.2624 0.35087 0.0
C629 C 0.4391 0.31432 0.43716 0.0
H630 H 0.36841 0.25721 0.52173 0.0
C631 C 0.4304 0.31742 0.33971 0.0
C632 C 0.39947 0.29885 0.3066 0.0
H633 H 0.46303 0.32949 0.45994 0.0
H634 H 0.44798 0.33456 0.29021 0.0
C635 C 0.37727 0.27736 0.37419 0.0
C636 C 0.63548 0.90854 0.18011 0.0
C637 C 0.60424 0.88977 0.14914 0.0
H638 H 0.66675 0.93463 0.30015 0.0
C639 C 0.58035 0.88372 0.21782 0.0
H640 H 0.65448 0.91351 0.12938 0.0
C641 C 0.58744 0.89587 0.31499 0.0
C642 C 0.61857 0.91435 0.34614 0.0
H643 H 0.55609 0.87013 0.1962 0.0
H644 H 0.56848 0.89087 0.36607 0.0
C645 C 0.64257 0.92083 0.27759 0.0
C646 C 0.7351 0.63339 0.35156 0.0
C647 C 0.72156 0.60204 0.3204 0.0
H648 H 0.74146 0.66501 0.47172 0.0
C649 C 0.70302 0.5783 0.38885 0.0
H650 H 0.74967 0.65226 0.30093 0.0
C651 C 0.6983 0.58567 0.48602 0.0
C652 C 0.712 0.61692 0.51739 0.0
H653 H 0.69155 0.55399 0.367 0.0
H654 H 0.68376 0.56683 0.53688 0.0
C655 C 0.73026 0.64077 0.44904 0.0
C656 C 0.12678 0.70105 0.54942 0.0
C657 C 0.12179 0.71972 0.4809 0.0
H658 H 0.11886 0.68177 0.69751 0.0
C659 C 0.10422 0.73347 0.51199 0.0
H660 H 0.13944 0.68943 0.52762 0.0
C661 C 0.09204 0.72871 0.60947 0.0
C662 C 0.09742 0.71033 0.6779 0.0
H663 H 0.10008 0.74814 0.46129 0.0
H664 H 0.07917 0.74007 0.63208 0.0
C665 C 0.11473 0.69642 0.6466 0.0
C666 C 0.4343 0.12481 0.71331 0.0
C667 C 0.41056 0.11922 0.64446 0.0
H668 H 0.44585 0.11731 0.86163 0.0
C669 C 0.37925 0.10094 0.67522 0.0
H670 H 0.45859 0.13802 0.69186 0.0
C671 C 0.37194 0.08866 0.77266 0.0
C672 C 0.3958 0.09467 0.84136 0.0
H673 H 0.36037 0.09633 0.62432 0.0
H674 H 0.34773 0.07523 0.79509 0.0
C675 C 0.427 0.11268 0.81043 0.0
C676 C 0.27927 0.38727 0.86379 0.0
C677 C 0.29818 0.41831 0.83114 0.0
H678 H 0.26678 0.35449 0.98492 0.0
C679 C 0.3202 0.44009 0.89861 0.0
H680 H 0.262 0.36989 0.81409 0.0
C681 C 0.32306 0.4312 0.99601 0.0
C682 C 0.30397 0.40031 0.02914 0.0
H683 H 0.33578 0.46395 0.87583 0.0
H684 H 0.34046 0.44858 0.04548 0.0
C685 C 0.28215 0.37836 0.9616 0.0
C686 C 0.89719 0.3171 0.16475 0.0
C687 C 0.9095 0.29848 0.19791 0.0
H688 H 0.87671 0.32924 0.04446 0.0
C689 C 0.91014 0.27694 0.13035 0.0
H690 H 0.89682 0.33429 0.21422 0.0
C691 C 0.89832 0.27384 0.03252 0.0
C692 C 0.88565 0.29226 0.99984 0.0
H693 H 0.91905 0.26193 0.15368 0.0
H694 H 0.89882 0.25678 0.98283 0.0
C695 C 0.88541 0.31402 0.06729 0.0
loop_
_geom_bond_atom_site_label_1
_geom_bond_atom_site_label_2
_geom_bond_distance
_geom_bond_site_symmetry_2
_ccdc_geom_bond_type
Co0 N4 2.148 . S
Co0 N10 2.128 1_554 S
Co0 N20 2.194 . S
Co0 O25 2.351 . S
Co0 O26 2.155 . S
Co0 O27 2.098 . S
C1 N4 1.301 . S
C1 N5 1.328 . S
C1 H6 0.930 . S
C2 C3 1.333 . S
C2 N4 1.317 . S
C2 H7 0.930 . S
C3 C2 1.333 . S
C3 N5 1.350 . S
C3 H29 0.931 . S
N4 Co0 2.148 . S
N4 C1 1.301 . S
N4 C2 1.317 . S
N5 C1 1.328 . S
N5 C3 1.350 . S
H6 C1 0.930 . S
H7 C2 0.930 . S
C8 O9 1.224 . S
C8 O27 1.245 1_556 S
O9 C8 1.224 . S
N10 Co0 2.128 1_556 S
N10 C11 1.355 . S
N10 C13 1.311 . S
C11 N10 1.355 . S
C11 C12 1.363 . S
C11 H23 0.929 . S
C12 C11 1.363 . S
C12 N14 1.375 . S
C12 H30 0.931 . S
C13 N10 1.311 . S
C13 N14 1.347 . S
C13 H24 0.929 . S
N14 C12 1.375 . S
N14 C13 1.347 . S
C15 C18 1.365 . S
C15 N20 1.328 . S
C15 H21 0.929 . S
C16 C17 1.362 . S
C16 C19 1.378 . S
C16 H31 0.929 . S
C17 C16 1.362 . S
C17 C18 1.366 . S
C18 C15 1.365 . S
C18 C17 1.366 . S
C18 H32 0.930 . S
C19 C16 1.378 . S
C19 N20 1.315 . S
C19 H22 0.930 . S
N20 Co0 2.194 . S
N20 C15 1.328 . S
N20 C19 1.315 . S
H21 C15 0.929 . S
H22 C19 0.930 . S
H23 C11 0.929 . S
H24 C13 0.929 . S
O25 Co0 2.351 . S
O25 C28 1.244 . S
O26 Co0 2.155 . S
O26 C28 1.240 . S
O27 Co0 2.098 . S
O27 C8 1.245 1_554 S
C28 O25 1.244 . S
C28 O26 1.240 . S
H29 C3 0.931 . S
H30 C12 0.931 . S
H31 C16 0.929 . S
H32 C18 0.930 . S
Co33 N37 2.148 . S
Co33 N43 2.128 . S
Co33 N53 2.194 . S
Co33 O58 2.351 . S
Co33 O59 2.155 . S
Co33 O60 2.096 . S
C34 N37 1.301 . S
C34 N38 1.328 . S
C34 H39 0.930 . S
C35 C36 1.333 . S
C35 N37 1.317 . S
C35 H40 0.930 . S
C36 C35 1.333 . S
C36 N38 1.350 . S
C36 H62 0.931 . S
N37 Co33 2.148 . S
N37 C34 1.301 . S
N37 C35 1.317 . S
N38 C34 1.328 . S
N38 C36 1.350 . S
H39 C34 0.930 . S
H40 C35 0.930 . S
C41 O42 1.224 . S
C41 O60 1.247 . S
O42 C41 1.224 . S
N43 Co33 2.128 . S
N43 C44 1.355 . S
N43 C46 1.311 1_554 S
C44 N43 1.355 . S
C44 C45 1.363 1_554 S
C44 H56 0.929 . S
C45 C44 1.363 1_556 S
C45 N47 1.375 . S
C45 H63 0.931 . S
C46 N43 1.311 1_556 S
C46 N47 1.347 . S
C46 H57 0.929 . S
N47 C45 1.375 . S
N47 C46 1.347 . S
C48 C51 1.365 . S
C48 N53 1.328 . S
C48 H54 0.929 . S
C49 C50 1.362 . S
C49 C52 1.378 . S
C49 H64 0.929 . S
C50 C49 1.362 . S
C50 C51 1.366 . S
C51 C48 1.365 . S
C51 C50 1.366 . S
C51 H65 0.930 . S
C52 C49 1.378 . S
C52 N53 1.315 . S
C52 H55 0.930 . S
N53 Co33 2.194 . S
N53 C48 1.328 . S
N53 C52 1.315 . S
H54 C48 0.929 . S
H55 C52 0.930 . S
H56 C44 0.929 . S
H57 C46 0.929 . S
O58 Co33 2.351 . S
O58 C61 1.244 . S
O59 Co33 2.155 . S
O59 C61 1.240 . S
O60 Co33 2.096 . S
O60 C41 1.247 . S
C61 O58 1.244 . S
C61 O59 1.240 . S
H62 C36 0.931 . S
H63 C45 0.931 . S
H64 C49 0.929 . S
H65 C51 0.930 . S
Co66 N70 2.148 . S
Co66 N76 2.128 . S
Co66 N86 2.194 . S
Co66 O91 2.351 . S
Co66 O92 2.155 . S
Co66 O93 2.096 . S
C67 N70 1.301 . S
C67 N71 1.328 . S
C67 H72 0.930 . S
C68 C69 1.333 . S
C68 N70 1.317 . S
C68 H73 0.930 . S
C69 C68 1.333 . S
C69 N71 1.350 . S
C69 H95 0.931 . S
N70 Co66 2.148 . S
N70 C67 1.301 . S
N70 C68 1.317 . S
N71 C67 1.328 . S
N71 C69 1.350 . S
H72 C67 0.930 . S
H73 C68 0.930 . S
C74 O75 1.224 . S
C74 O93 1.247 . S
O75 C74 1.224 . S
N76 Co66 2.128 . S
N76 C77 1.355 . S
N76 C79 1.311 . S
C77 N76 1.355 . S
C77 C78 1.363 . S
C77 H89 0.929 . S
C78 C77 1.363 . S
C78 N80 1.375 . S
C78 H96 0.931 . S
C79 N76 1.311 . S
C79 N80 1.347 . S
C79 H90 0.929 . S
N80 C78 1.375 . S
N80 C79 1.347 . S
C81 C84 1.365 . S
C81 N86 1.328 . S
C81 H87 0.929 . S
C82 C83 1.362 . S
C82 C85 1.378 . S
C82 H97 0.929 . S
C83 C82 1.362 . S
C83 C84 1.366 . S
C84 C81 1.365 . S
C84 C83 1.366 . S
C84 H98 0.930 . S
C85 C82 1.378 . S
C85 N86 1.315 . S
C85 H88 0.930 . S
N86 Co66 2.194 . S
N86 C81 1.328 . S
N86 C85 1.315 . S
H87 C81 0.929 . S
H88 C85 0.930 . S
H89 C77 0.929 . S
H90 C79 0.929 . S
O91 Co66 2.351 . S
O91 C94 1.244 . S
O92 Co66 2.155 . S
O92 C94 1.240 . S
O93 Co66 2.096 . S
O93 C74 1.247 . S
C94 O91 1.244 . S
C94 O92 1.240 . S
H95 C69 0.931 . S
H96 C78 0.931 . S
H97 C82 0.929 . S
H98 C84 0.930 . S
Co99 N103 2.148 . S
Co99 N109 2.128 . S
Co99 N119 2.194 . S
Co99 O124 2.351 . S
Co99 O125 2.155 . S
Co99 O126 2.096 . S
C100 N103 1.301 . S
C100 N104 1.328 . S
C100 H105 0.930 . S
C101 C102 1.333 . S
C101 N103 1.317 . S
C101 H106 0.930 . S
C102 C101 1.333 . S
C102 N104 1.350 . S
C102 H128 0.931 . S
N103 Co99 2.148 . S
N103 C100 1.301 . S
N103 C101 1.317 . S
N104 C100 1.328 . S
N104 C102 1.350 . S
H105 C100 0.930 . S
H106 C101 0.930 . S
C107 O108 1.224 . S
C107 O126 1.247 . S
O108 C107 1.224 . S
N109 Co99 2.128 . S
N109 C110 1.355 . S
N109 C112 1.311 . S
C110 N109 1.355 . S
C110 C111 1.363 . S
C110 H122 0.929 . S
C111 C110 1.363 . S
C111 N113 1.375 . S
C111 H129 0.931 . S
C112 N109 1.311 . S
C112 N113 1.347 . S
C112 H123 0.929 . S
N113 C111 1.375 . S
N113 C112 1.347 . S
C114 C117 1.365 . S
C114 N119 1.328 . S
C114 H120 0.929 . S
C115 C116 1.362 . S
C115 C118 1.378 . S
C115 H130 0.929 . S
C116 C115 1.362 . S
C116 C117 1.366 . S
C117 C114 1.365 . S
C117 C116 1.366 . S
C117 H131 0.930 . S
C118 C115 1.378 . S
C118 N119 1.315 . S
C118 H121 0.930 . S
N119 Co99 2.194 . S
N119 C114 1.328 . S
N119 C118 1.315 . S
H120 C114 0.929 . S
H121 C118 0.930 . S
H122 C110 0.929 . S
H123 C112 0.929 . S
O124 Co99 2.351 . S
O124 C127 1.244 . S
O125 Co99 2.155 . S
O125 C127 1.240 . S
O126 Co99 2.096 . S
O126 C107 1.247 . S
C127 O124 1.244 . S
C127 O125 1.240 . S
H128 C102 0.931 . S
H129 C111 0.931 . S
H130 C115 0.929 . S
H131 C117 0.930 . S
Co132 N136 2.148 . S
Co132 N142 2.128 . S
Co132 N152 2.194 . S
Co132 O157 2.351 . S
Co132 O158 2.155 . S
Co132 O159 2.096 . S
C133 N136 1.301 . S
C133 N137 1.328 1_556 S
C133 H138 0.930 . S
C134 C135 1.333 . S
C134 N136 1.317 . S
C134 H139 0.930 . S
C135 C134 1.333 . S
C135 N137 1.350 1_556 S
C135 H161 0.931 1_556 S
N136 Co132 2.148 . S
N136 C133 1.301 . S
N136 C134 1.317 . S
N137 C133 1.328 1_554 S
N137 C135 1.350 1_554 S
H138 C133 0.930 . S
H139 C134 0.930 . S
C140 O141 1.224 . S
C140 O159 1.247 . S
O141 C140 1.224 . S
N142 Co132 2.128 . S
N142 C143 1.355 . S
N142 C145 1.311 . S
C143 N142 1.355 . S
C143 C144 1.363 . S
C143 H155 0.929 . S
C144 C143 1.363 . S
C144 N146 1.375 . S
C144 H162 0.931 . S
C145 N142 1.311 . S
C145 N146 1.347 . S
C145 H156 0.929 . S
N146 C144 1.375 . S
N146 C145 1.347 . S
C147 C150 1.365 . S
C147 N152 1.328 . S
C147 H153 0.929 . S
C148 C149 1.362 . S
C148 C151 1.378 . S
C148 H163 0.929 . S
C149 C148 1.362 . S
C149 C150 1.366 . S
C150 C147 1.365 . S
C150 C149 1.366 . S
C150 H164 0.930 . S
C151 C148 1.378 . S
C151 N152 1.315 . S
C151 H154 0.930 . S
N152 Co132 2.194 . S
N152 C147 1.328 . S
N152 C151 1.315 . S
H153 C147 0.929 . S
H154 C151 0.930 . S
H155 C143 0.929 . S
H156 C145 0.929 . S
O157 Co132 2.351 . S
O157 C160 1.244 . S
O158 Co132 2.155 . S
O158 C160 1.240 . S
O159 Co132 2.096 . S
O159 C140 1.247 . S
C160 O157 1.244 . S
C160 O158 1.240 . S
H161 C135 0.931 1_554 S
H162 C144 0.931 . S
H163 C148 0.929 . S
H164 C150 0.930 . S
Co165 N169 2.148 1_556 S
Co165 N175 2.128 . S
Co165 N185 2.194 . S
Co165 O190 2.351 . S
Co165 O191 2.155 . S
Co165 O192 2.096 . S
C166 N169 1.301 . S
C166 N170 1.328 . S
C166 H171 0.930 . S
C167 C168 1.333 . S
C167 N169 1.317 . S
C167 H172 0.930 . S
C168 C167 1.333 . S
C168 N170 1.350 . S
C168 H194 0.931 . S
N169 Co165 2.148 1_554 S
N169 C166 1.301 . S
N169 C167 1.317 . S
N170 C166 1.328 . S
N170 C168 1.350 . S
H171 C166 0.930 . S
H172 C167 0.930 . S
C173 O174 1.224 . S
C173 O192 1.247 . S
O174 C173 1.224 . S
N175 Co165 2.128 . S
N175 C176 1.355 . S
N175 C178 1.311 . S
C176 N175 1.355 . S
C176 C177 1.363 . S
C176 H188 0.929 . S
C177 C176 1.363 . S
C177 N179 1.375 . S
C177 H195 0.931 . S
C178 N175 1.311 . S
C178 N179 1.347 . S
C178 H189 0.929 . S
N179 C177 1.375 . S
N179 C178 1.347 . S
C180 C183 1.365 . S
C180 N185 1.328 . S
C180 H186 0.929 . S
C181 C182 1.362 . S
C181 C184 1.378 . S
C181 H196 0.929 . S
C182 C181 1.362 . S
C182 C183 1.366 . S
C183 C180 1.365 . S
C183 C182 1.366 . S
C183 H197 0.930 . S
C184 C181 1.378 . S
C184 N185 1.315 . S
C184 H187 0.930 . S
N185 Co165 2.194 . S
N185 C180 1.328 . S
N185 C184 1.315 . S
H186 C180 0.929 . S
H187 C184 0.930 . S
H188 C176 0.929 . S
H189 C178 0.929 . S
O190 Co165 2.351 . S
O190 C193 1.244 . S
O191 Co165 2.155 . S
O191 C193 1.240 . S
O192 Co165 2.096 . S
O192 C173 1.247 . S
C193 O190 1.244 . S
C193 O191 1.240 . S
H194 C168 0.931 . S
H195 C177 0.931 . S
H196 C181 0.929 . S
H197 C183 0.930 . S
Co198 N202 2.148 . S
Co198 N208 2.128 . S
Co198 N218 2.194 . S
Co198 O223 2.351 . S
Co198 O224 2.155 . S
Co198 O225 2.096 . S
C199 N202 1.301 . S
C199 N203 1.328 . S
C199 H204 0.930 . S
C200 C201 1.333 . S
C200 N202 1.317 . S
C200 H205 0.930 . S
C201 C200 1.333 . S
C201 N203 1.350 . S
C201 H227 0.931 . S
N202 Co198 2.148 . S
N202 C199 1.301 . S
N202 C200 1.317 . S
N203 C199 1.328 . S
N203 C201 1.350 . S
H204 C199 0.930 . S
H205 C200 0.930 . S
C206 O207 1.224 . S
C206 O225 1.247 . S
O207 C206 1.224 . S
N208 Co198 2.128 . S
N208 C209 1.355 . S
N208 C211 1.311 1_556 S
C209 N208 1.355 . S
C209 C210 1.363 1_556 S
C209 H221 0.929 . S
C210 C209 1.363 1_554 S
C210 N212 1.375 . S
C210 H228 0.931 . S
C211 N208 1.311 1_554 S
C211 N212 1.347 . S
C211 H222 0.929 . S
N212 C210 1.375 . S
N212 C211 1.347 . S
C213 C216 1.365 . S
C213 N218 1.328 . S
C213 H219 0.929 . S
C214 C215 1.362 . S
C214 C217 1.378 . S
C214 H229 0.929 . S
C215 C214 1.362 . S
C215 C216 1.366 . S
C216 C213 1.365 . S
C216 C215 1.366 . S
C216 H230 0.930 . S
C217 C214 1.378 . S
C217 N218 1.315 . S
C217 H220 0.930 . S
N218 Co198 2.194 . S
N218 C213 1.328 . S
N218 C217 1.315 . S
H219 C213 0.929 . S
H220 C217 0.930 . S
H221 C209 0.929 . S
H222 C211 0.929 . S
O223 Co198 2.351 . S
O223 C226 1.244 . S
O224 Co198 2.155 . S
O224 C226 1.240 . S
O225 Co198 2.096 . S
O225 C206 1.247 . S
C226 O223 1.244 . S
C226 O224 1.240 . S
H227 C201 0.931 . S
H228 C210 0.931 . S
H229 C214 0.929 . S
H230 C216 0.930 . S
Co231 N235 2.148 . S
Co231 N241 2.128 1_556 S
Co231 N251 2.194 . S
Co231 O256 2.351 . S
Co231 O257 2.155 . S
Co231 O258 2.098 . S
C232 N235 1.301 . S
C232 N236 1.328 . S
C232 H237 0.930 . S
C233 C234 1.333 . S
C233 N235 1.317 . S
C233 H238 0.930 . S
C234 C233 1.333 . S
C234 N236 1.350 . S
C234 H260 0.931 . S
N235 Co231 2.148 . S
N235 C232 1.301 . S
N235 C233 1.317 . S
N236 C232 1.328 . S
N236 C234 1.350 . S
H237 C232 0.930 . S
H238 C233 0.930 . S
C239 O240 1.224 . S
C239 O258 1.245 1_554 S
O240 C239 1.224 . S
N241 Co231 2.128 1_554 S
N241 C242 1.355 . S
N241 C244 1.311 . S
C242 N241 1.355 . S
C242 C243 1.363 . S
C242 H254 0.929 . S
C243 C242 1.363 . S
C243 N245 1.375 . S
C243 H261 0.931 . S
C244 N241 1.311 . S
C244 N245 1.347 . S
C244 H255 0.929 . S
N245 C243 1.375 . S
N245 C244 1.347 . S
C246 C249 1.365 . S
C246 N251 1.328 . S
C246 H252 0.929 . S
C247 C248 1.362 . S
C247 C250 1.378 . S
C247 H262 0.929 . S
C248 C247 1.362 . S
C248 C249 1.366 . S
C249 C246 1.365 . S
C249 C248 1.366 . S
C249 H263 0.930 . S
C250 C247 1.378 . S
C250 N251 1.315 . S
C250 H253 0.930 . S
N251 Co231 2.194 . S
N251 C246 1.328 . S
N251 C250 1.315 . S
H252 C246 0.929 . S
H253 C250 0.930 . S
H254 C242 0.929 . S
H255 C244 0.929 . S
O256 Co231 2.351 . S
O256 C259 1.244 . S
O257 Co231 2.155 . S
O257 C259 1.240 . S
O258 Co231 2.098 . S
O258 C239 1.245 1_556 S
C259 O256 1.244 . S
C259 O257 1.240 . S
H260 C234 0.931 . S
H261 C243 0.931 . S
H262 C247 0.929 . S
H263 C249 0.930 . S
Co264 N268 2.148 1_554 S
Co264 N274 2.128 . S
Co264 N284 2.194 . S
Co264 O289 2.351 . S
Co264 O290 2.155 . S
Co264 O291 2.096 . S
C265 N268 1.301 . S
C265 N269 1.328 . S
C265 H270 0.930 . S
C266 C267 1.333 . S
C266 N268 1.317 . S
C266 H271 0.930 . S
C267 C266 1.333 . S
C267 N269 1.350 . S
C267 H293 0.931 . S
N268 Co264 2.148 1_556 S
N268 C265 1.301 . S
N268 C266 1.317 . S
N269 C265 1.328 . S
N269 C267 1.350 . S
H270 C265 0.930 . S
H271 C266 0.930 . S
C272 O273 1.224 . S
C272 O291 1.247 . S
O273 C272 1.224 . S
N274 Co264 2.128 . S
N274 C275 1.355 . S
N274 C277 1.311 . S
C275 N274 1.355 . S
C275 C276 1.363 . S
C275 H287 0.929 . S
C276 C275 1.363 . S
C276 N278 1.375 . S
C276 H294 0.931 . S
C277 N274 1.311 . S
C277 N278 1.347 . S
C277 H288 0.929 . S
N278 C276 1.375 . S
N278 C277 1.347 . S
C279 C282 1.365 . S
C279 N284 1.328 . S
C279 H285 0.929 . S
C280 C281 1.362 . S
C280 C283 1.378 . S
C280 H295 0.929 . S
C281 C280 1.362 . S
C281 C282 1.366 . S
C282 C279 1.365 . S
C282 C281 1.366 . S
C282 H296 0.930 . S
C283 C280 1.378 . S
C283 N284 1.315 . S
C283 H286 0.930 . S
N284 Co264 2.194 . S
N284 C279 1.328 . S
N284 C283 1.315 . S
H285 C279 0.929 . S
H286 C283 0.930 . S
H287 C275 0.929 . S
H288 C277 0.929 . S
O289 Co264 2.351 . S
O289 C292 1.244 . S
O290 Co264 2.155 . S
O290 C292 1.240 . S
O291 Co264 2.096 . S
O291 C272 1.247 . S
C292 O289 1.244 . S
C292 O290 1.240 . S
H293 C267 0.931 . S
H294 C276 0.931 . S
H295 C280 0.929 . S
H296 C282 0.930 . S
Co297 N301 2.148 . S
Co297 N307 2.128 . S
Co297 N317 2.194 . S
Co297 O322 2.351 . S
Co297 O323 2.155 . S
Co297 O324 2.096 . S
C298 N301 1.301 . S
C298 N302 1.328 1_554 S
C298 H303 0.930 . S
C299 C300 1.333 . S
C299 N301 1.317 . S
C299 H304 0.930 . S
C300 C299 1.333 . S
C300 N302 1.350 1_554 S
C300 H326 0.931 1_554 S
N301 Co297 2.148 . S
N301 C298 1.301 . S
N301 C299 1.317 . S
N302 C298 1.328 1_556 S
N302 C300 1.350 1_556 S
H303 C298 0.930 . S
H304 C299 0.930 . S
C305 O306 1.224 . S
C305 O324 1.247 . S
O306 C305 1.224 . S
N307 Co297 2.128 . S
N307 C308 1.355 . S
N307 C310 1.311 . S
C308 N307 1.355 . S
C308 C309 1.363 . S
C308 H320 0.929 . S
C309 C308 1.363 . S
C309 N311 1.375 . S
C309 H327 0.931 . S
C310 N307 1.311 . S
C310 N311 1.347 . S
C310 H321 0.929 . S
N311 C309 1.375 . S
N311 C310 1.347 . S
C312 C315 1.365 . S
C312 N317 1.328 . S
C312 H318 0.929 . S
C313 C314 1.362 . S
C313 C316 1.378 . S
C313 H328 0.929 . S
C314 C313 1.362 . S
C314 C315 1.366 . S
C315 C312 1.365 . S
C315 C314 1.366 . S
C315 H329 0.930 . S
C316 C313 1.378 . S
C316 N317 1.315 . S
C316 H319 0.930 . S
N317 Co297 2.194 . S
N317 C312 1.328 . S
N317 C316 1.315 . S
H318 C312 0.929 . S
H319 C316 0.930 . S
H320 C308 0.929 . S
H321 C310 0.929 . S
O322 Co297 2.351 . S
O322 C325 1.244 . S
O323 Co297 2.155 . S
O323 C325 1.240 . S
O324 Co297 2.096 . S
O324 C305 1.247 . S
C325 O322 1.244 . S
C325 O323 1.240 . S
H326 C300 0.931 1_556 S
H327 C309 0.931 . S
H328 C313 0.929 . S
H329 C315 0.930 . S
Co330 N334 2.148 . S
Co330 N340 2.128 . S
Co330 N350 2.194 . S
Co330 O355 2.351 . S
Co330 O356 2.155 . S
Co330 O357 2.096 . S
C331 N334 1.301 . S
C331 N335 1.328 . S
C331 H336 0.930 . S
C332 C333 1.333 . S
C332 N334 1.317 . S
C332 H337 0.930 . S
C333 C332 1.333 . S
C333 N335 1.350 . S
C333 H359 0.931 . S
N334 Co330 2.148 . S
N334 C331 1.301 . S
N334 C332 1.317 . S
N335 C331 1.328 . S
N335 C333 1.350 . S
H336 C331 0.930 . S
H337 C332 0.930 . S
C338 O339 1.224 . S
C338 O357 1.247 . S
O339 C338 1.224 . S
N340 Co330 2.128 . S
N340 C341 1.355 . S
N340 C343 1.311 . S
C341 N340 1.355 . S
C341 C342 1.363 . S
C341 H353 0.929 . S
C342 C341 1.363 . S
C342 N344 1.375 . S
C342 H360 0.931 . S
C343 N340 1.311 . S
C343 N344 1.347 . S
C343 H354 0.929 . S
N344 C342 1.375 . S
N344 C343 1.347 . S
C345 C348 1.365 . S
C345 N350 1.328 . S
C345 H351 0.929 . S
C346 C347 1.362 . S
C346 C349 1.378 . S
C346 H361 0.929 . S
C347 C346 1.362 . S
C347 C348 1.366 . S
C348 C345 1.365 . S
C348 C347 1.366 . S
C348 H362 0.930 . S
C349 C346 1.378 . S
C349 N350 1.315 . S
C349 H352 0.930 . S
N350 Co330 2.194 . S
N350 C345 1.328 . S
N350 C349 1.315 . S
H351 C345 0.929 . S
H352 C349 0.930 . S
H353 C341 0.929 . S
H354 C343 0.929 . S
O355 Co330 2.351 . S
O355 C358 1.244 . S
O356 Co330 2.155 . S
O356 C358 1.240 . S
O357 Co330 2.096 . S
O357 C338 1.247 . S
C358 O355 1.244 . S
C358 O356 1.240 . S
H359 C333 0.931 . S
H360 C342 0.931 . S
H361 C346 0.929 . S
H362 C348 0.930 . S
Co363 N367 2.148 . S
Co363 N373 2.128 . S
Co363 N383 2.194 . S
Co363 O388 2.351 . S
Co363 O389 2.155 . S
Co363 O390 2.096 . S
C364 N367 1.301 . S
C364 N368 1.328 . S
C364 H369 0.930 . S
C365 C366 1.333 . S
C365 N367 1.317 . S
C365 H370 0.930 . S
C366 C365 1.333 . S
C366 N368 1.350 . S
C366 H392 0.931 . S
N367 Co363 2.148 . S
N367 C364 1.301 . S
N367 C365 1.317 . S
N368 C364 1.328 . S
N368 C366 1.350 . S
H369 C364 0.930 . S
H370 C365 0.930 . S
C371 O372 1.224 . S
C371 O390 1.247 . S
O372 C371 1.224 . S
N373 Co363 2.128 . S
N373 C374 1.355 . S
N373 C376 1.311 . S
C374 N373 1.355 . S
C374 C375 1.363 . S
C374 H386 0.929 . S
C375 C374 1.363 . S
C375 N377 1.375 . S
C375 H393 0.931 . S
C376 N373 1.311 . S
C376 N377 1.347 . S
C376 H387 0.929 . S
N377 C375 1.375 . S
N377 C376 1.347 . S
C378 C381 1.365 . S
C378 N383 1.328 . S
C378 H384 0.929 . S
C379 C380 1.362 . S
C379 C382 1.378 . S
C379 H394 0.929 . S
C380 C379 1.362 . S
C380 C381 1.366 . S
C381 C378 1.365 . S
C381 C380 1.366 . S
C381 H395 0.930 . S
C382 C379 1.378 . S
C382 N383 1.315 . S
C382 H385 0.930 . S
N383 Co363 2.194 . S
N383 C378 1.328 . S
N383 C382 1.315 . S
H384 C378 0.929 . S
H385 C382 0.930 . S
H386 C374 0.929 . S
H387 C376 0.929 . S
O388 Co363 2.351 . S
O388 C391 1.244 . S
O389 Co363 2.155 . S
O389 C391 1.240 . S
O390 Co363 2.096 . S
O390 C371 1.247 . S
C391 O388 1.244 . S
C391 O389 1.240 . S
H392 C366 0.931 . S
H393 C375 0.931 . S
H394 C379 0.929 . S
H395 C381 0.930 . S
C396 C397 1.387 1_556 S
C396 H400 0.950 . S
C396 C405 1.390 . S
C397 C396 1.387 1_554 S
C397 C399 1.387 . S
H398 C405 0.950 . S
C399 C397 1.387 . S
C399 C401 1.390 . S
C399 H403 0.950 . S
H400 C396 0.950 . S
C401 C399 1.390 . S
C401 C402 1.387 . S
C401 H404 0.950 . S
C402 C401 1.387 . S
C402 C405 1.387 1_554 S
H403 C399 0.950 . S
H404 C401 0.950 . S
C405 C396 1.390 . S
C405 H398 0.950 . S
C405 C402 1.387 1_556 S
C406 C407 1.387 . S
C406 H410 0.950 . S
C406 C415 1.390 . S
C407 C406 1.387 . S
C407 C409 1.387 . S
H408 C415 0.950 . S
C409 C407 1.387 . S
C409 C411 1.390 . S
C409 H413 0.950 . S
H410 C406 0.950 . S
C411 C409 1.390 . S
C411 C412 1.387 . S
C411 H414 0.950 . S
C412 C411 1.387 . S
C412 C415 1.387 . S
H413 C409 0.950 . S
H414 C411 0.950 . S
C415 C406 1.390 . S
C415 H408 0.950 . S
C415 C412 1.387 . S
C416 C417 1.387 . S
C416 H420 0.950 . S
C416 C425 1.390 . S
C417 C416 1.387 . S
C417 C419 1.387 . S
H418 C425 0.950 . S
C419 C417 1.387 . S
C419 C421 1.390 . S
C419 H423 0.950 . S
H420 C416 0.950 . S
C421 C419 1.390 . S
C421 C422 1.387 . S
C421 H424 0.950 . S
C422 C421 1.387 . S
C422 C425 1.387 . S
H423 C419 0.950 . S
H424 C421 0.950 . S
C425 C416 1.390 . S
C425 H418 0.950 . S
C425 C422 1.387 . S
C426 C427 1.387 . S
C426 H430 0.950 . S
C426 C435 1.390 . S
C427 C426 1.387 . S
C427 C429 1.387 . S
H428 C435 0.950 . S
C429 C427 1.387 . S
C429 C431 1.390 . S
C429 H433 0.950 . S
H430 C426 0.950 . S
C431 C429 1.390 . S
C431 C432 1.387 . S
C431 H434 0.950 . S
C432 C431 1.387 . S
C432 C435 1.387 . S
H433 C429 0.950 . S
H434 C431 0.950 . S
C435 C426 1.390 . S
C435 H428 0.950 . S
C435 C432 1.387 . S
C436 C437 1.387 . S
C436 H440 0.950 . S
C436 C445 1.390 . S
C437 C436 1.387 . S
C437 C439 1.387 . S
H438 C445 0.950 . S
C439 C437 1.387 . S
C439 C441 1.390 . S
C439 H443 0.950 . S
H440 C436 0.950 . S
C441 C439 1.390 . S
C441 C442 1.387 . S
C441 H444 0.950 . S
C442 C441 1.387 . S
C442 C445 1.387 . S
H443 C439 0.950 . S
H444 C441 0.950 . S
C445 C436 1.390 . S
C445 H438 0.950 . S
C445 C442 1.387 . S
C446 C447 1.387 1_554 S
C446 H450 0.950 . S
C446 C455 1.390 . S
C447 C446 1.387 1_556 S
C447 C449 1.387 . S
H448 C455 0.950 . S
C449 C447 1.387 . S
C449 C451 1.390 . S
C449 H453 0.950 . S
H450 C446 0.950 . S
C451 C449 1.390 . S
C451 C452 1.387 . S
C451 H454 0.950 . S
C452 C451 1.387 . S
C452 C455 1.387 1_556 S
H453 C449 0.950 . S
H454 C451 0.950 . S
C455 C446 1.390 . S
C455 H448 0.950 . S
C455 C452 1.387 1_554 S
C456 C457 1.387 1_655 S
C456 H460 0.950 . S
C456 C465 1.390 . S
C457 C456 1.387 1_455 S
C457 C459 1.387 . S
H458 C465 0.950 . S
C459 C457 1.387 . S
C459 C461 1.390 . S
C459 H463 0.950 . S
H460 C456 0.950 . S
C461 C459 1.390 . S
C461 C462 1.387 1_455 S
C461 H464 0.950 . S
C462 C461 1.387 1_655 S
C462 C465 1.387 . S
H463 C459 0.950 . S
H464 C461 0.950 . S
C465 C456 1.390 . S
C465 H458 0.950 . S
C465 C462 1.387 . S
C466 C467 1.387 . S
C466 H470 0.950 . S
C466 C475 1.390 1_566 S
C467 C466 1.387 . S
C467 C469 1.387 . S
H468 C475 0.950 . S
C469 C467 1.387 . S
C469 C471 1.390 1_566 S
C469 H473 0.950 . S
H470 C466 0.950 . S
C471 C469 1.390 1_544 S
C471 C472 1.387 . S
C471 H474 0.950 . S
C472 C471 1.387 . S
C472 C475 1.387 . S
H473 C469 0.950 . S
H474 C471 0.950 . S
C475 C466 1.390 1_544 S
C475 H468 0.950 . S
C475 C472 1.387 . S
C476 C477 1.387 . S
C476 H480 0.950 . S
C476 C485 1.390 . S
C477 C476 1.387 . S
C477 C479 1.387 . S
H478 C485 0.950 . S
C479 C477 1.387 . S
C479 C481 1.390 . S
C479 H483 0.950 . S
H480 C476 0.950 . S
C481 C479 1.390 . S
C481 C482 1.387 . S
C481 H484 0.950 . S
C482 C481 1.387 . S
C482 C485 1.387 . S
H483 C479 0.950 . S
H484 C481 0.950 . S
C485 C476 1.390 . S
C485 H478 0.950 . S
C485 C482 1.387 . S
C486 C487 1.387 . S
C486 H490 0.950 . S
C486 C495 1.390 1_655 S
C487 C486 1.387 . S
C487 C489 1.387 . S
H488 C495 0.950 . S
C489 C487 1.387 . S
C489 C491 1.390 1_655 S
C489 H493 0.950 . S
H490 C486 0.950 . S
C491 C489 1.390 1_455 S
C491 C492 1.387 . S
C491 H494 0.950 . S
C492 C491 1.387 . S
C492 C495 1.387 . S
H493 C489 0.950 . S
H494 C491 0.950 . S
C495 C486 1.390 1_455 S
C495 H488 0.950 . S
C495 C492 1.387 . S
C496 C497 1.387 . S
C496 H500 0.950 . S
C496 C505 1.390 1_545 S
C497 C496 1.387 . S
C497 C499 1.387 . S
H498 C505 0.950 . S
C499 C497 1.387 . S
C499 C501 1.390 1_545 S
C499 H503 0.950 . S
H500 C496 0.950 . S
C501 C499 1.390 1_565 S
C501 C502 1.387 . S
C501 H504 0.950 . S
C502 C501 1.387 . S
C502 C505 1.387 . S
H503 C499 0.950 . S
H504 C501 0.950 . S
C505 C496 1.390 1_565 S
C505 H498 0.950 . S
C505 C502 1.387 . S
C506 C507 1.387 . S
C506 H510 0.950 . S
C506 C515 1.390 . S
C507 C506 1.387 . S
C507 C509 1.387 . S
H508 C515 0.950 . S
C509 C507 1.387 . S
C509 C511 1.390 . S
C509 H513 0.950 . S
H510 C506 0.950 . S
C511 C509 1.390 . S
C511 C512 1.387 . S
C511 H514 0.950 . S
C512 C511 1.387 . S
C512 C515 1.387 . S
H513 C509 0.950 . S
H514 C511 0.950 . S
C515 C506 1.390 . S
C515 H508 0.950 . S
C515 C512 1.387 . S
C516 C517 1.387 . S
C516 H520 0.950 . S
C516 C525 1.390 . S
C517 C516 1.387 . S
C517 C519 1.387 . S
H518 C525 0.950 . S
C519 C517 1.387 . S
C519 C521 1.390 . S
C519 H523 0.950 . S
H520 C516 0.950 . S
C521 C519 1.390 . S
C521 C522 1.387 . S
C521 H524 0.950 . S
C522 C521 1.387 . S
C522 C525 1.387 . S
H523 C519 0.950 . S
H524 C521 0.950 . S
C525 C516 1.390 . S
C525 H518 0.950 . S
C525 C522 1.387 . S
C526 C527 1.387 . S
C526 H530 0.950 . S
C526 C535 1.390 . S
C527 C526 1.387 . S
C527 C529 1.387 . S
H528 C535 0.950 . S
C529 C527 1.387 . S
C529 C531 1.390 . S
C529 H533 0.950 . S
H530 C526 0.950 . S
C531 C529 1.390 . S
C531 C532 1.387 . S
C531 H534 0.950 . S
C532 C531 1.387 . S
C532 C535 1.387 . S
H533 C529 0.950 . S
H534 C531 0.950 . S
C535 C526 1.390 . S
C535 H528 0.950 . S
C535 C532 1.387 . S
C536 C537 1.387 . S
C536 H540 0.950 . S
C536 C545 1.390 . S
C537 C536 1.387 . S
C537 C539 1.387 . S
H538 C545 0.950 . S
C539 C537 1.387 . S
C539 C541 1.390 . S
C539 H543 0.950 . S
H540 C536 0.950 . S
C541 C539 1.390 . S
C541 C542 1.387 . S
C541 H544 0.950 . S
C542 C541 1.387 . S
C542 C545 1.387 . S
H543 C539 0.950 . S
H544 C541 0.950 . S
C545 C536 1.390 . S
C545 H538 0.950 . S
C545 C542 1.387 . S
C546 C547 1.387 . S
C546 H550 0.950 . S
C546 C555 1.390 . S
C547 C546 1.387 . S
C547 C549 1.387 . S
H548 C555 0.950 . S
C549 C547 1.387 . S
C549 C551 1.390 . S
C549 H553 0.950 . S
H550 C546 0.950 . S
C551 C549 1.390 . S
C551 C552 1.387 . S
C551 H554 0.950 . S
C552 C551 1.387 . S
C552 C555 1.387 . S
H553 C549 0.950 . S
H554 C551 0.950 . S
C555 C546 1.390 . S
C555 H548 0.950 . S
C555 C552 1.387 . S
C556 C557 1.387 . S
C556 H560 0.950 . S
C556 C565 1.390 . S
C557 C556 1.387 . S
C557 C559 1.387 . S
H558 C565 0.950 . S
C559 C557 1.387 . S
C559 C561 1.390 1_556 S
C559 H563 0.950 . S
H560 C556 0.950 . S
C561 C559 1.390 1_554 S
C561 C562 1.387 1_554 S
C561 H564 0.950 . S
C562 C561 1.387 1_556 S
C562 C565 1.387 . S
H563 C559 0.950 . S
H564 C561 0.950 . S
C565 C556 1.390 . S
C565 H558 0.950 . S
C565 C562 1.387 . S
C566 C567 1.387 . S
C566 H570 0.950 . S
C566 C575 1.390 . S
C567 C566 1.387 . S
C567 C569 1.387 . S
H568 C575 0.950 . S
C569 C567 1.387 . S
C569 C571 1.390 1_554 S
C569 H573 0.950 . S
H570 C566 0.950 . S
C571 C569 1.390 1_556 S
C571 C572 1.387 1_556 S
C571 H574 0.950 . S
C572 C571 1.387 1_554 S
C572 C575 1.387 . S
H573 C569 0.950 . S
H574 C571 0.950 . S
C575 C566 1.390 . S
C575 H568 0.950 . S
C575 C572 1.387 . S
C576 C577 1.387 . S
C576 H580 0.950 . S
C576 C585 1.390 . S
C577 C576 1.387 . S
C577 C579 1.387 . S
H578 C585 0.950 . S
C579 C577 1.387 . S
C579 C581 1.390 . S
C579 H583 0.950 . S
H580 C576 0.950 . S
C581 C579 1.390 . S
C581 C582 1.387 . S
C581 H584 0.950 . S
C582 C581 1.387 . S
C582 C585 1.387 . S
H583 C579 0.950 . S
H584 C581 0.950 . S
C585 C576 1.390 . S
C585 H578 0.950 . S
C585 C582 1.387 . S
C586 C587 1.387 . S
C586 H590 0.950 . S
C586 C595 1.390 . S
C587 C586 1.387 . S
C587 C589 1.387 . S
H588 C595 0.950 . S
C589 C587 1.387 . S
C589 C591 1.390 . S
C589 H593 0.950 . S
H590 C586 0.950 . S
C591 C589 1.390 . S
C591 C592 1.387 . S
C591 H594 0.950 . S
C592 C591 1.387 . S
C592 C595 1.387 . S
H593 C589 0.950 . S
H594 C591 0.950 . S
C595 C586 1.390 . S
C595 H588 0.950 . S
C595 C592 1.387 . S
C596 C597 1.387 . S
C596 H600 0.950 . S
C596 C605 1.390 . S
C597 C596 1.387 . S
C597 C599 1.387 . S
H598 C605 0.950 . S
C599 C597 1.387 . S
C599 C601 1.390 . S
C599 H603 0.950 . S
H600 C596 0.950 . S
C601 C599 1.390 . S
C601 C602 1.387 . S
C601 H604 0.950 . S
C602 C601 1.387 . S
C602 C605 1.387 . S
H603 C599 0.950 . S
H604 C601 0.950 . S
C605 C596 1.390 . S
C605 H598 0.950 . S
C605 C602 1.387 . S
C606 C607 1.387 1_554 S
C606 H610 0.950 . S
C606 C615 1.390 . S
C607 C606 1.387 1_556 S
C607 C609 1.387 . S
H608 C615 0.950 . S
C609 C607 1.387 . S
C609 C611 1.390 1_556 S
C609 H613 0.950 . S
H610 C606 0.950 . S
C611 C609 1.390 1_554 S
C611 C612 1.387 . S
C611 H614 0.950 . S
C612 C611 1.387 . S
C612 C615 1.387 . S
H613 C609 0.950 . S
H614 C611 0.950 . S
C615 C606 1.390 . S
C615 H608 0.950 . S
C615 C612 1.387 . S
C616 C617 1.387 . S
C616 H620 0.950 . S
C616 C625 1.390 . S
C617 C616 1.387 . S
C617 C619 1.387 . S
H618 C625 0.950 . S
C619 C617 1.387 . S
C619 C621 1.390 . S
C619 H623 0.950 . S
H620 C616 0.950 . S
C621 C619 1.390 . S
C621 C622 1.387 . S
C621 H624 0.950 . S
C622 C621 1.387 . S
C622 C625 1.387 . S
H623 C619 0.950 . S
H624 C621 0.950 . S
C625 C616 1.390 . S
C625 H618 0.950 . S
C625 C622 1.387 . S
C626 C627 1.387 . S
C626 H630 0.950 . S
C626 C635 1.390 . S
C627 C626 1.387 . S
C627 C629 1.387 . S
H628 C635 0.950 . S
C629 C627 1.387 . S
C629 C631 1.390 . S
C629 H633 0.950 . S
H630 C626 0.950 . S
C631 C629 1.390 . S
C631 C632 1.387 . S
C631 H634 0.950 . S
C632 C631 1.387 . S
C632 C635 1.387 . S
H633 C629 0.950 . S
H634 C631 0.950 . S
C635 C626 1.390 . S
C635 H628 0.950 . S
C635 C632 1.387 . S
C636 C637 1.387 . S
C636 H640 0.950 . S
C636 C645 1.390 . S
C637 C636 1.387 . S
C637 C639 1.387 . S
H638 C645 0.950 . S
C639 C637 1.387 . S
C639 C641 1.390 . S
C639 H643 0.950 . S
H640 C636 0.950 . S
C641 C639 1.390 . S
C641 C642 1.387 . S
C641 H644 0.950 . S
C642 C641 1.387 . S
C642 C645 1.387 . S
H643 C639 0.950 . S
H644 C641 0.950 . S
C645 C636 1.390 . S
C645 H638 0.950 . S
C645 C642 1.387 . S
C646 C647 1.387 . S
C646 H650 0.950 . S
C646 C655 1.390 . S
C647 C646 1.387 . S
C647 C649 1.387 . S
H648 C655 0.950 . S
C649 C647 1.387 . S
C649 C651 1.390 . S
C649 H653 0.950 . S
H650 C646 0.950 . S
C651 C649 1.390 . S
C651 C652 1.387 . S
C651 H654 0.950 . S
C652 C651 1.387 . S
C652 C655 1.387 . S
H653 C649 0.950 . S
H654 C651 0.950 . S
C655 C646 1.390 . S
C655 H648 0.950 . S
C655 C652 1.387 . S
C656 C657 1.387 . S
C656 H660 0.950 . S
C656 C665 1.390 . S
C657 C656 1.387 . S
C657 C659 1.387 . S
H658 C665 0.950 . S
C659 C657 1.387 . S
C659 C661 1.390 . S
C659 H663 0.950 . S
H660 C656 0.950 . S
C661 C659 1.390 . S
C661 C662 1.387 . S
C661 H664 0.950 . S
C662 C661 1.387 . S
C662 C665 1.387 . S
H663 C659 0.950 . S
H664 C661 0.950 . S
C665 C656 1.390 . S
C665 H658 0.950 . S
C665 C662 1.387 . S
C666 C667 1.387 . S
C666 H670 0.950 . S
C666 C675 1.390 . S
C667 C666 1.387 . S
C667 C669 1.387 . S
H668 C675 0.950 . S
C669 C667 1.387 . S
C669 C671 1.390 . S
C669 H673 0.950 . S
H670 C666 0.950 . S
C671 C669 1.390 . S
C671 C672 1.387 . S
C671 H674 0.950 . S
C672 C671 1.387 . S
C672 C675 1.387 . S
H673 C669 0.950 . S
H674 C671 0.950 . S
C675 C666 1.390 . S
C675 H668 0.950 . S
C675 C672 1.387 . S
C676 C677 1.387 . S
C676 H680 0.950 . S
C676 C685 1.390 . S
C677 C676 1.387 . S
C677 C679 1.387 . S
H678 C685 0.950 . S
C679 C677 1.387 . S
C679 C681 1.390 1_556 S
C679 H683 0.950 . S
H680 C676 0.950 . S
C681 C679 1.390 1_554 S
C681 C682 1.387 . S
C681 H684 0.950 . S
C682 C681 1.387 . S
C682 C685 1.387 1_554 S
H683 C679 0.950 . S
H684 C681 0.950 . S
C685 C676 1.390 . S
C685 H678 0.950 . S
C685 C682 1.387 1_556 S
C686 C687 1.387 . S
C686 H690 0.950 . S
C686 C695 1.390 . S
C687 C686 1.387 . S
C687 C689 1.387 . S
H688 C695 0.950 . S
C689 C687 1.387 . S
C689 C691 1.390 . S
C689 H693 0.950 . S
H690 C686 0.950 . S
C691 C689 1.390 . S
C691 C692 1.387 . S
C691 H694 0.950 . S
C692 C691 1.387 . S
C692 C695 1.387 . S
H693 C689 0.950 . S
H694 C691 0.950 . S
C695 C686 1.390 . S
C695 H688 0.950 . S
C695 C692 1.387 . S
C397 C281 1.597 . S
C402 C17 1.598 . S
C407 C314 1.598 . S
C412 C50 1.598 . S
C417 C347 1.597 . S
C422 C83 1.598 . S
C427 C380 1.598 . S
C432 C116 1.597 . S
C437 C149 1.597 . S
C442 C215 1.597 . S
C447 C248 1.598 . S
C452 C182 1.597 . S
C457 C8 1.367 . S
C462 C371 1.365 . S
C467 C206 1.366 . S
C472 C41 1.366 . S
C477 C74 1.366 . S
C482 C239 1.366 . S
C487 C107 1.366 . S
C492 C272 1.366 . S
C497 C305 1.366 . S
C502 C140 1.366 . S
C507 C173 1.369 . S
C512 C338 1.366 . S
C517 C28 1.518 . S
C522 C358 1.518 . S
C527 C61 1.517 . S
C532 C391 1.516 . S
C537 C226 1.516 . S
C542 C94 1.517 . S
C547 C259 1.518 . S
C552 C127 1.518 . S
C557 C160 1.517 . S
C562 C292 1.516 1_556 S
C567 C325 1.517 . S
C572 C193 1.517 1_554 S
C577 N5 1.272 . S
C582 N14 1.272 . S
C587 N47 1.272 . S
C592 N38 1.272 . S
C597 N71 1.272 . S
C602 N80 1.272 1_556 S
C607 N104 1.272 . S
C612 N113 1.272 . S
C617 N146 1.272 . S
C622 N137 1.272 . S
C627 N179 1.272 . S
C632 N170 1.272 . S
C637 N212 1.272 . S
C642 N203 1.272 . S
C647 N245 1.272 . S
C652 N236 1.272 . S
C657 N278 1.271 . S
C662 N269 1.271 . S
C667 N311 1.271 . S
C672 N302 1.271 . S
C677 N344 1.272 . S
C682 N335 1.272 . S
C687 N368 1.271 . S
C692 N377 1.271 1_554 S
