# Generated by pormake.
# Topology unj, (4)-cn, num edge types: 1
# Building blocks:
#     Node 0, Type 0, BuildingBlock: AZAVOO_clean_sbu_0, # of connection points: 4
#     Node 1, Type 0, BuildingBlock: AZAVOO_clean_sbu_0, # of connection points: 4
#     Node 2, Type 0, BuildingBlock: AZAVOO_clean_sbu_0, # of connection points: 4
#     Node 3, Type 0, BuildingBlock: AZAVOO_clean_sbu_0, # of connection points: 4
#     Node 4, Type 0, BuildingBlock: AZAVOO_clean_sbu_0, # of connection points: 4
#     Node 5, Type 0, BuildingBlock: AZAVOO_clean_sbu_0, # of connection points: 4
#     Edge 6, Type (0, 0), BuildingBlock: FUNLAD_clean_linker_1, # of connection points: 2
#     Edge 7, Type (0, 0), BuildingBlock: FUNLAD_clean_linker_1, # of connection points: 2
#     Edge 8, Type (0, 0), BuildingBlock: FUNLAD_clean_linker_1, # of connection points: 2
#     Edge 9, Type (0, 0), BuildingBlock: FUNLAD_clean_linker_1, # of connection points: 2
#     Edge 10, Type (0, 0), BuildingBlock: FUNLAD_clean_linker_1, # of connection points: 2
#     Edge 11, Type (0, 0), BuildingBlock: FUNLAD_clean_linker_1, # of connection points: 2
#     Edge 12, Type (0, 0), BuildingBlock: FUNLAD_clean_linker_1, # of connection points: 2
#     Edge 13, Type (0, 0), BuildingBlock: FUNLAD_clean_linker_1, # of connection points: 2
#     Edge 14, Type (0, 0), BuildingBlock: FUNLAD_clean_linker_1, # of connection points: 2
#     Edge 15, Type (0, 0), BuildingBlock: FUNLAD_clean_linker_1, # of connection points: 2
#     Edge 16, Type (0, 0), BuildingBlock: FUNLAD_clean_linker_1, # of connection points: 2
#     Edge 17, Type (0, 0), BuildingBlock: FUNLAD_clean_linker_1, # of connection points: 2
# Relax obj value: 0.030
# Max RMSD: 0.066
# Mean RMSD: 0.065
data_MOF--net-unj--node1-AZAVOO_clean_sbu_0--edge1-FUNLAD_clean_linker_1
_symmetry_space_group_name_H-M    P1
_symmetry_Int_Tables_number       1
_symmetry_cell_setting            triclinic
loop_
_symmetry_equiv_pos_as_xyz
'x, y, z'
_cell_length_a     35.977756
_cell_length_b     36.463773
_cell_length_c     34.195908
_cell_angle_alpha  89.795043
_cell_angle_beta   90.55074
_cell_angle_gamma 120.14599
loop_
_atom_site_label
_atom_site_type_symbol
_atom_site_fract_x
_atom_site_fract_y
_atom_site_fract_z
_atom_type_partial_charge
Mg0 Mg 0.50794 0.23927 0.56879 0.0
O1 O 0.55217 0.23331 0.61454 0.0
O2 O 0.58404 0.20178 0.58507 0.0
Mg3 Mg 0.56017 0.18698 0.52181 0.0
C4 C 0.57781 0.21861 0.61506 0.0
C5 C 0.49247 0.3124 0.59434 0.0
O6 O 0.4973 0.31961 0.55657 0.0
O7 O 0.56523 0.29335 0.53762 0.0
O8 O 0.59345 0.25835 0.50789 0.0
O9 O 0.45398 0.17549 0.58452 0.0
O10 O 0.50112 0.18677 0.5383 0.0
C11 C 0.5928 0.29239 0.51499 0.0
C12 C 0.46817 0.16036 0.55817 0.0
O13 O 0.49796 0.28335 0.60893 0.0
Mg14 Mg 0.22435 0.39679 0.74077 0.0
O15 O 0.26995 0.44873 0.78374 0.0
O16 O 0.33348 0.48626 0.75423 0.0
Mg17 Mg 0.32874 0.45865 0.69311 0.0
C18 C 0.30908 0.47875 0.7836 0.0
C19 C 0.16336 0.37132 0.81321 0.0
O20 O 0.19453 0.36739 0.82911 0.0
O21 O 0.21718 0.44555 0.7044 0.0
O22 O 0.28057 0.47949 0.67409 0.0
O23 O 0.24731 0.35343 0.76305 0.0
O24 O 0.27615 0.39755 0.71351 0.0
C25 C 0.24278 0.4732 0.68014 0.0
C26 C 0.2768 0.37004 0.73668 0.0
O27 O 0.16651 0.38351 0.77792 0.0
Mg28 Mg 0.76347 0.21752 0.94782 0.0
O29 O 0.71774 0.21752 0.89986 0.0
O30 O 0.65217 0.18825 0.92611 0.0
Mg31 Mg 0.65516 0.16888 0.9891 0.0
C32 C 0.67768 0.20542 0.89751 0.0
C33 C 0.85742 0.26498 0.92416 0.0
O34 O 0.85692 0.24413 0.95577 0.0
O35 O 0.76316 0.27214 0.97991 0.0
O36 O 0.6975 0.23879 1.00631 0.0
O37 O 0.74887 0.15254 0.93027 0.0
O38 O 0.71255 0.16544 0.97452 0.0
C39 C 0.73421 0.27187 1.00146 0.0
C40 C 0.71732 0.13825 0.95461 0.0
O41 O 0.82251 0.26208 0.91218 0.0
Mg42 Mg 0.50013 0.75011 0.0552 0.0
O43 O 0.46353 0.75116 0.10959 0.0
O44 O 0.41748 0.77229 0.09106 0.0
Mg45 Mg 0.42473 0.78515 0.02525 0.0
C46 C 0.43439 0.76017 0.11734 0.0
C47 C 0.56841 0.73278 0.08661 0.0
O48 O 0.58869 0.76536 0.06313 0.0
O49 O 0.44183 0.68946 0.03228 0.0
O50 O 0.39929 0.71444 0.01203 0.0
O51 O 0.54956 0.81778 0.06408 0.0
O52 O 0.49076 0.79643 0.02824 0.0
C53 C 0.40748 0.68431 0.01576 0.0
C54 C 0.52577 0.82715 0.04251 0.0
O55 O 0.52784 0.71545 0.0898 0.0
Mg56 Mg 0.77954 0.57941 0.24221 0.0
O57 O 0.73203 0.52854 0.28429 0.0
O58 O 0.67033 0.48863 0.25164 0.0
Mg59 Mg 0.67755 0.51422 0.1892 0.0
C60 C 0.69333 0.49773 0.28265 0.0
C61 C 0.87216 0.62472 0.27842 0.0
O62 O 0.87868 0.64944 0.24813 0.0
O63 O 0.78927 0.52977 0.21055 0.0
O64 O 0.72792 0.49506 0.17612 0.0
O65 O 0.75434 0.62362 0.25701 0.0
O66 O 0.72871 0.57558 0.2101 0.0
C67 C 0.76541 0.5019 0.18531 0.0
C68 C 0.72613 0.60408 0.22958 0.0
O69 O 0.83472 0.59365 0.28451 0.0
Mg70 Mg 0.24881 0.77142 0.4599 0.0
O71 O 0.28006 0.76933 0.40201 0.0
O72 O 0.34874 0.789 0.41459 0.0
Mg73 Mg 0.3618 0.80368 0.47984 0.0
C74 C 0.31702 0.7768 0.39091 0.0
C75 C 0.16119 0.75594 0.43078 0.0
O76 O 0.17812 0.79334 0.44749 0.0
O77 O 0.24564 0.71028 0.48065 0.0
O78 O 0.31512 0.73356 0.49407 0.0
O79 O 0.27043 0.84012 0.45131 0.0
O80 O 0.30867 0.81673 0.48213 0.0
C81 C 0.27571 0.70421 0.49322 0.0
C82 C 0.30557 0.84822 0.46928 0.0
O83 O 0.18214 0.73636 0.431 0.0
H84 H 0.41592 0.09459 0.56582 0.0
C85 C 0.44556 0.1145 0.55014 0.0
H86 H 0.48696 0.11735 0.50548 0.0
H87 H 0.34394 0.91311 0.54945 0.0
H88 H 0.3768 0.92818 0.61382 0.0
H89 H 0.43635 -0.00036 0.63054 0.0
H90 H 0.46233 0.05674 0.58314 0.0
C91 C 0.45814 0.09741 0.52214 0.0
C92 C 0.42985 0.05257 0.50949 0.0
C93 C 0.41729 0.01884 0.53651 0.0
C94 C 0.38511 0.97698 0.5259 0.0
C95 C 0.37012 0.9449 0.55488 0.0
C96 C 0.38843 0.95321 0.5922 0.0
C97 C 0.42178 0.99348 0.60169 0.0
C98 C 0.43615 0.02604 0.57431 0.0
H99 H 0.37192 0.8966 0.48518 0.0
C100 C 0.34079 0.89186 0.47602 0.0
H101 H 0.30287 0.92029 0.46666 0.0
H102 H 0.44811 0.10955 0.44975 0.0
H103 H 0.41927 0.09354 0.38382 0.0
H104 H 0.36753 0.02007 0.36399 0.0
H105 H 0.34392 0.96219 0.41023 0.0
C106 C 0.33396 0.92481 0.47566 0.0
C107 C 0.36809 0.96832 0.48718 0.0
C108 C 0.38248 0.00165 0.45953 0.0
C109 C 0.41309 0.04388 0.47076 0.0
C110 C 0.42558 0.07674 0.44282 0.0
C111 C 0.4092 0.06803 0.40478 0.0
C112 C 0.38002 0.02668 0.39363 0.0
C113 C 0.36668 0.99377 0.42053 0.0
H114 H 0.4671 0.35554 0.60304 0.0
C115 C 0.47336 0.33264 0.61767 0.0
H116 H 0.46239 0.29517 0.66819 0.0
H117 H 0.40641 0.43937 0.71607 0.0
H118 H 0.48284 0.49062 0.71493 0.0
H119 H 0.53503 0.46942 0.69472 0.0
H120 H 0.51107 0.39677 0.67541 0.0
C121 C 0.45821 0.31956 0.65392 0.0
C122 C 0.42804 0.33145 0.67161 0.0
C123 C 0.44255 0.37379 0.68329 0.0
C124 C 0.41245 0.3859 0.69517 0.0
C125 C 0.42785 0.42851 0.70648 0.0
C126 C 0.47164 0.45821 0.70612 0.0
C127 C 0.50102 0.44627 0.69472 0.0
C128 C 0.48685 0.40457 0.6835 0.0
H129 H 0.31102 0.3363 0.75465 0.0
C130 C 0.30999 0.35779 0.73314 0.0
H131 H 0.33583 0.39196 0.68093 0.0
H132 H 0.39001 0.24661 0.65494 0.0
H133 H 0.31387 0.19526 0.65621 0.0
H134 H 0.26128 0.21669 0.67419 0.0
H135 H 0.28449 0.28931 0.69139 0.0
C136 C 0.33649 0.37016 0.70228 0.0
C137 C 0.36788 0.35563 0.69551 0.0
C138 C 0.35349 0.31279 0.6853 0.0
C139 C 0.38374 0.3006 0.67399 0.0
C140 C 0.36854 0.25772 0.66367 0.0
C141 C 0.32485 0.22786 0.66418 0.0
C142 C 0.29527 0.23991 0.67437 0.0
C143 C 0.30916 0.28182 0.68453 0.0
H144 H 0.89603 0.30404 0.8743 0.0
C145 C 0.89718 0.28877 0.90128 0.0
H146 H 0.93472 0.27333 0.93818 0.0
H147 H 0.05938 0.28085 0.80702 0.0
H148 H 0.01242 0.20483 0.81277 0.0
H149 H 0.94659 0.17523 0.8523 0.0
H150 H 0.92723 0.2215 0.88613 0.0
C151 C 0.93378 0.2899 0.91204 0.0
C152 C 0.97226 0.30836 0.88653 0.0
C153 C 0.9834 0.28086 0.86733 0.0
C154 C 0.02158 0.2979 0.84489 0.0
C155 C 0.03129 0.26966 0.82517 0.0
C156 C 1.00446 0.22591 0.82803 0.0
C157 C 0.96739 0.20925 0.85026 0.0
C158 C 0.95675 0.23621 0.86965 0.0
H159 H 0.12104 0.34423 0.86421 0.0
C160 C 0.12363 0.35802 0.83541 0.0
H161 H 0.09222 0.37472 0.79221 0.0
H162 H 0.96053 0.36998 0.9198 0.0
H163 H 1.00687 0.44606 0.91291 0.0
H164 H 0.07271 0.47556 0.87338 0.0
H165 H 0.09275 0.42911 0.84061 0.0
C166 C 0.0901 0.36026 0.82055 0.0
C167 C 0.04893 0.34246 0.8422 0.0
C168 C 0.03716 0.36996 0.86039 0.0
C169 C 0.99891 0.35292 0.88283 0.0
C170 C 0.98877 0.38117 0.90184 0.0
C171 C 0.01519 0.42492 0.89825 0.0
C172 C 0.05228 0.44154 0.87601 0.0
C173 C 0.06339 0.41454 0.85734 0.0
H174 H 0.51583 0.87843 0.01975 0.0
C175 C 0.53925 0.87139 0.03271 0.0
H176 H 0.60422 0.89485 0.04834 0.0
H177 H 0.61773 0.03828 0.91988 0.0
H178 H 0.58612 0.98086 0.87264 0.0
H179 H 0.56116 0.90714 0.89287 0.0
H180 H 0.56646 0.89028 0.96045 0.0
C181 C 0.58071 0.90188 0.03554 0.0
C182 C 0.59638 0.94614 0.02239 0.0
C183 C 0.59495 0.95549 0.98221 0.0
C184 C 0.6119 -0.00173 0.97004 0.0
C185 C 0.6074 0.00658 0.93031 0.0
C186 C 0.58902 0.97389 0.90294 0.0
C187 C 0.57478 0.93237 0.91437 0.0
C188 C 0.5777 0.92309 0.95344 0.0
H189 H 0.69826 0.07102 0.94716 0.0
C190 C 0.6892 0.09233 0.96061 0.0
H191 H 0.64681 0.09809 0.99889 0.0
H192 H 0.60194 0.93892 0.10168 0.0
H193 H 0.63648 0.9966 0.14834 0.0
H194 H 0.67056 0.07103 0.12662 0.0
H195 H 0.6699 0.08823 0.05833 0.0
C196 C 0.6553 0.07679 0.98469 0.0
C197 C 0.63291 0.03172 0.99754 0.0
C198 C 0.63404 0.02233 0.03771 0.0
C199 C 0.61536 0.97948 0.05015 0.0
C200 C 0.61635 0.97094 0.0905 0.0
C201 C 0.63597 0.00374 0.11765 0.0
C202 C 0.65508 0.04563 0.10543 0.0
C203 C 0.65431 0.05502 0.06602 0.0
H204 H 0.66338 0.58776 0.20491 0.0
C205 C 0.69149 0.61283 0.21983 0.0
H206 H 0.72532 0.67801 0.23422 0.0
H207 H 0.59778 0.65186 0.0806 0.0
H208 H 0.64395 0.63287 0.04554 0.0
H209 H 0.70314 0.62987 0.07957 0.0
H210 H 0.71545 0.64436 0.14895 0.0
C211 C 0.69696 0.652 0.22057 0.0
C212 C 0.66636 0.66124 0.19891 0.0
C213 C 0.66179 0.6558 0.15765 0.0
C214 C 0.62992 0.66079 0.13742 0.0
C215 C 0.62327 0.65112 0.09696 0.0
C216 C 0.64929 0.63979 0.07652 0.0
C217 C 0.68243 0.63786 0.09571 0.0
C218 C 0.68882 0.64582 0.13573 0.0
H219 H 0.62816 0.73463 0.10388 0.0
C220 C 0.59374 0.71828 0.1091 0.0
H221 H 0.54291 0.67121 0.14248 0.0
H222 H 0.66726 0.67478 0.27751 0.0
H223 H 0.62377 0.69781 0.31192 0.0
H224 H 0.57196 0.71131 0.27616 0.0
H225 H 0.56287 0.70142 0.20587 0.0
C226 C 0.5769 0.68689 0.13559 0.0
C227 C 0.60539 0.67515 0.15773 0.0
C228 C 0.61045 0.68131 0.19882 0.0
C229 C 0.64081 0.67412 0.21943 0.0
C230 C 0.6449 0.68008 0.26046 0.0
C231 C 0.62017 0.69331 0.28054 0.0
C232 C 0.59097 0.70089 0.2604 0.0
C233 C 0.58607 0.69508 0.22003 0.0
H234 H 0.10549 0.75938 0.40874 0.0
C235 C 0.11933 0.73889 0.41059 0.0
H236 H 0.1121 0.67972 0.39479 0.0
H237 H 0.92374 0.67629 0.36946 0.0
H238 H 0.9242 0.6838 0.4398 0.0
H239 H 0.98446 0.6901 0.47998 0.0
H240 H 0.04519 0.69008 0.44976 0.0
C241 C 0.09826 0.70022 0.3941 0.0
C242 C 0.05774 0.68657 0.37135 0.0
C243 C 0.02115 0.68379 0.38966 0.0
C244 C 0.98515 0.67742 0.36672 0.0
C245 C 0.95087 0.67865 0.38551 0.0
C246 C 0.95088 0.68332 0.42593 0.0
C247 C 0.98488 0.68707 0.44853 0.0
C248 C 0.0197 0.68736 0.43077 0.0
H249 H 0.90173 0.60836 0.32734 0.0
C250 C 0.908 0.63162 0.30459 0.0
H251 H 0.9545 0.68805 0.27753 0.0
H252 H 0.12114 0.68691 0.32728 0.0
H253 H 0.11841 0.67377 0.25763 0.0
H254 H 0.0542 0.65819 0.21845 0.0
H255 H 0.9925 0.65612 0.24862 0.0
C256 C 0.94773 0.66532 0.30091 0.0
C257 C 0.98455 0.67091 0.32574 0.0
C258 C 0.02004 0.67102 0.30783 0.0
C259 C 0.05675 0.67913 0.33058 0.0
C260 C 0.09219 0.68035 0.31161 0.0
C261 C 0.09109 0.67289 0.27158 0.0
C262 C 0.05497 0.66418 0.24951 0.0
C263 C 0.0198 0.66322 0.26723 0.0
H264 H 0.65044 0.33151 0.47993 0.0
C265 C 0.62188 0.33011 0.49197 0.0
H266 H 0.58043 0.35544 0.48924 0.0
H267 H 0.70832 0.52679 0.40389 0.0
H268 H 0.70372 0.5531 0.46765 0.0
H269 H 0.66721 0.50379 0.52218 0.0
H270 H 0.63466 0.42775 0.51318 0.0
C271 C 0.60951 0.35701 0.47842 0.0
C272 C 0.63262 0.3868 0.44568 0.0
C273 C 0.65206 0.43115 0.45154 0.0
C274 C 0.67372 0.45964 0.42021 0.0
C275 C 0.69194 0.50373 0.42672 0.0
C276 C 0.6895 0.51928 0.46319 0.0
C277 C 0.66891 0.49151 0.49388 0.0
C278 C 0.65034 0.44794 0.48831 0.0
H279 H 0.64032 0.44627 0.31548 0.0
C280 C 0.67406 0.47065 0.31728 0.0
H281 H 0.73031 0.49807 0.35246 0.0
H282 H 0.592 0.30345 0.42147 0.0
H283 H 0.60089 0.27736 0.35939 0.0
H284 H 0.64716 0.32689 0.30842 0.0
H285 H 0.68339 0.40282 0.31886 0.0
C286 C 0.69677 0.47347 0.34976 0.0
C287 C 0.67637 0.44373 0.38318 0.0
C288 C 0.65832 0.39939 0.37776 0.0
C289 C 0.63466 0.37086 0.40835 0.0
C290 C 0.61296 0.3267 0.40046 0.0
C291 C 0.61736 0.31121 0.36469 0.0
C292 C 0.64317 0.33907 0.33592 0.0
C293 C 0.66346 0.38264 0.34219 0.0
H294 H 0.29215 0.65752 0.51522 0.0
C295 C 0.26553 0.66326 0.5106 0.0
H296 H 0.20103 0.64312 0.52485 0.0
H297 H 0.24229 0.48609 0.56637 0.0
H298 H 0.23718 0.47432 0.49618 0.0
H299 H 0.22506 0.52063 0.45143 0.0
H300 H 0.21796 0.57907 0.4767 0.0
C301 C 0.22727 0.63649 0.52648 0.0
C302 C 0.22375 0.60256 0.55316 0.0
C303 C 0.22697 0.56817 0.53811 0.0
C304 C 0.23385 0.54151 0.56394 0.0
C305 C 0.23749 0.50764 0.54802 0.0
C306 C 0.23443 0.50042 0.50782 0.0
C307 C 0.22761 0.52649 0.48262 0.0
C308 C 0.22385 0.56001 0.49743 0.0
H309 H 0.19523 0.49184 0.66205 0.0
C310 C 0.22763 0.49777 0.65734 0.0
H311 H 0.28442 0.53118 0.62449 0.0
H312 H 0.21175 0.66142 0.59163 0.0
H313 H 0.21519 0.67252 0.66179 0.0
H314 H 0.22966 0.62797 0.70668 0.0
H315 H 0.24041 0.57193 0.68182 0.0
C316 C 0.25262 0.5263 0.63041 0.0
C317 C 0.23736 0.54922 0.60481 0.0
C318 C 0.23092 0.58173 0.62009 0.0
C319 C 0.22344 0.60802 0.59416 0.0
C320 C 0.21777 0.64071 0.60999 0.0
C321 C 0.21966 0.64742 0.6502 0.0
C322 C 0.22774 0.62229 0.67548 0.0
C323 C 0.2336 0.58999 0.66078 0.0
H324 H 0.62466 0.19888 0.85994 0.0
C325 C 0.65891 0.20986 0.86045 0.0
H326 H 0.71594 0.2374 0.82725 0.0
H327 H 0.55349 0.1519 0.69757 0.0
H328 H 0.53964 0.08433 0.72354 0.0
H329 H 0.582 0.0811 0.77923 0.0
H330 H 0.63778 0.14545 0.80977 0.0
C331 C 0.68148 0.22515 0.82741 0.0
C332 C 0.65993 0.22699 0.79056 0.0
C333 C 0.62887 0.18902 0.77178 0.0
C334 C 0.60605 0.1909 0.73834 0.0
C335 C 0.57322 0.15244 0.72186 0.0
C336 C 0.56468 0.11337 0.73668 0.0
C337 C 0.58839 0.11155 0.76813 0.0
C338 C 0.62014 0.14879 0.78557 0.0
H339 H 0.62209 0.20673 0.65056 0.0
C340 C 0.60042 0.21937 0.65159 0.0
H341 H 0.57331 0.24667 0.68767 0.0
H342 H 0.71793 0.30559 0.81891 0.0
H343 H 0.73384 0.37331 0.79132 0.0
H344 H 0.69639 0.3766 0.73176 0.0
H345 H 0.64259 0.3122 0.69952 0.0
C346 C 0.59399 0.23297 0.68596 0.0
C347 C 0.61601 0.23078 0.72234 0.0
C348 C 0.64755 0.26869 0.74071 0.0
C349 C 0.66951 0.26679 0.77484 0.0
C350 C 0.70053 0.30518 0.79278 0.0
C351 C 0.70996 0.34428 0.77726 0.0
C352 C 0.68886 0.34613 0.74373 0.0
C353 C 0.65801 0.30891 0.72553 0.0
H354 H 0.36061 0.53215 0.81655 0.0
C355 C 0.32738 0.50658 0.81812 0.0
H356 H 0.27195 0.47632 0.85342 0.0
H357 H 0.37572 0.55169 0.01208 0.0
H358 H 0.34919 0.47638 0.02043 0.0
H359 H 0.31157 0.42601 0.96649 0.0
H360 H 0.29995 0.45048 0.90395 0.0
C361 C 0.30478 0.50235 0.85063 0.0
C362 C 0.3248 0.53236 0.8841 0.0
C363 C 0.33129 0.51752 0.92048 0.0
C364 C 0.35344 0.54664 0.95149 0.0
C365 C 0.35939 0.53095 0.98752 0.0
C366 C 0.34431 0.48783 0.9927 0.0
C367 C 0.32311 0.45946 0.96233 0.0
C368 C 0.31662 0.47394 0.92657 0.0
H369 H 0.34695 0.63867 0.98654 0.0
C370 C 0.37872 0.64449 0.99483 0.0
H371 H 0.42583 0.62721 0.9849 0.0
H372 H 0.31039 0.57042 0.82108 0.0
H373 H 0.33952 0.64583 0.81154 0.0
H374 H 0.38499 0.69716 0.86228 0.0
H375 H 0.40043 0.67335 0.92315 0.0
C376 C 0.39369 0.62122 0.97807 0.0
C377 C 0.36925 0.59055 0.94604 0.0
C378 C 0.36277 0.60542 0.90954 0.0
C379 C 0.33909 0.57611 0.87917 0.0
C380 C 0.33019 0.59147 0.84427 0.0
C381 C 0.34641 0.63467 0.83851 0.0
C382 C 0.3718 0.66354 0.86715 0.0
C383 C 0.38006 0.64931 0.90222 0.0
H384 H 0.71614 0.30887 0.03897 0.0
C385 C 0.74318 0.30963 0.02419 0.0
H386 H 0.81088 0.34416 0.01725 0.0
H387 H 0.79496 0.50445 0.07586 0.0
H388 H 0.81622 0.52459 0.00831 0.0
H389 H 0.82543 0.47669 0.96375 0.0
H390 H 0.81356 0.40833 0.9865 0.0
C391 C 0.78292 0.34224 0.03112 0.0
C392 C 0.78864 0.37537 0.05966 0.0
C393 C 0.7967 0.41536 0.04617 0.0
C394 C 0.79109 0.44275 0.07179 0.0
C395 C 0.79833 0.48225 0.05741 0.0
C396 C 0.81067 0.49422 0.01881 0.0
C397 C 0.81588 0.46725 0.99371 0.0
C398 C 0.80889 0.42814 0.00705 0.0
H399 H 0.81255 0.4808 0.17441 0.0
C400 C 0.78224 0.47775 0.16479 0.0
H401 H 0.73205 0.45185 0.1228 0.0
H402 H 0.7817 0.30575 0.09667 0.0
H403 H 0.76263 0.28619 0.16468 0.0
H404 H 0.74948 0.33198 0.20859 0.0
H405 H 0.75589 0.39769 0.18507 0.0
C406 C 0.76124 0.45334 0.13373 0.0
C407 C 0.77757 0.43 0.11077 0.0
C408 C 0.77367 0.39179 0.12531 0.0
C409 C 0.77994 0.36476 0.09976 0.0
C410 C 0.77614 0.3268 0.11475 0.0
C411 C 0.76544 0.31535 0.1537 0.0
C412 C 0.75813 0.34118 0.17843 0.0
C413 C 0.76201 0.37892 0.16455 0.0
H414 H 0.29563 0.76031 0.32934 0.0
C415 C 0.32307 0.77131 0.34907 0.0
H416 H 0.38949 0.79247 0.35382 0.0
H417 H 0.34714 0.68952 0.18594 0.0
H418 H 0.3086 0.62589 0.22514 0.0
H419 H 0.2975 0.63054 0.29562 0.0
H420 H 0.32441 0.69884 0.32724 0.0
C421 C 0.36138 0.78007 0.33479 0.0
C422 C 0.36781 0.77679 0.2923 0.0
C423 C 0.35259 0.73662 0.27447 0.0
C424 C 0.36012 0.73397 0.23406 0.0
C425 C 0.3434 0.69342 0.21673 0.0
C426 C 0.32102 0.65662 0.23886 0.0
C427 C 0.31468 0.65924 0.27852 0.0
C428 C 0.3302 0.69866 0.29628 0.0
H429 H 0.43636 0.74787 0.18046 0.0
C430 C 0.42122 0.75786 0.15851 0.0
H431 H 0.37865 0.78103 0.14838 0.0
H432 H 0.40061 0.8586 0.31735 0.0
H433 H 0.44023 0.92231 0.27846 0.0
H434 H 0.45466 0.91785 0.20877 0.0
H435 H 0.42948 0.84969 0.17751 0.0
C436 C 0.3928 0.76939 0.16974 0.0
C437 C 0.38373 0.77154 0.21181 0.0
C438 C 0.39869 0.81167 0.22963 0.0
C439 C 0.39077 0.81428 0.26991 0.0
C440 C 0.40605 0.85479 0.28694 0.0
C441 C 0.42878 0.89163 0.26494 0.0
C442 C 0.43687 0.88911 0.2257 0.0
C443 C 0.42213 0.84973 0.20811 0.0
loop_
_geom_bond_atom_site_label_1
_geom_bond_atom_site_label_2
_geom_bond_distance
_geom_bond_site_symmetry_2
_ccdc_geom_bond_type
Mg0 O1 2.028 . S
Mg0 O7 1.986 . S
Mg0 O9 2.114 . S
Mg0 O10 2.251 . S
Mg0 O13 2.010 . S
O1 Mg0 2.028 . S
O1 C4 1.250 . S
O2 Mg3 2.028 . S
O2 C4 1.248 . S
Mg3 O2 2.028 . S
Mg3 O8 2.032 . S
Mg3 O10 2.079 . S
C4 O1 1.250 . S
C4 O2 1.248 . S
C5 O6 1.264 . S
C5 O13 1.249 . S
O6 C5 1.264 . S
O7 Mg0 1.986 . S
O7 C11 1.246 . S
O8 Mg3 2.032 . S
O8 C11 1.259 . S
O9 Mg0 2.114 . S
O9 C12 1.252 . S
O10 Mg0 2.251 . S
O10 Mg3 2.079 . S
O10 C12 1.273 . S
C11 O7 1.246 . S
C11 O8 1.259 . S
C12 O9 1.252 . S
C12 O10 1.273 . S
O13 Mg0 2.010 . S
O13 C5 1.249 . S
Mg14 O15 2.028 . S
Mg14 O21 1.986 . S
Mg14 O23 2.114 . S
Mg14 O24 2.251 . S
Mg14 O27 2.010 . S
O15 Mg14 2.028 . S
O15 C18 1.250 . S
O16 Mg17 2.028 . S
O16 C18 1.248 . S
Mg17 O16 2.028 . S
Mg17 O22 2.032 . S
Mg17 O24 2.079 . S
C18 O15 1.250 . S
C18 O16 1.248 . S
C19 O20 1.264 . S
C19 O27 1.249 . S
O20 C19 1.264 . S
O21 Mg14 1.986 . S
O21 C25 1.246 . S
O22 Mg17 2.032 . S
O22 C25 1.259 . S
O23 Mg14 2.114 . S
O23 C26 1.252 . S
O24 Mg14 2.251 . S
O24 Mg17 2.079 . S
O24 C26 1.273 . S
C25 O21 1.246 . S
C25 O22 1.259 . S
C26 O23 1.252 . S
C26 O24 1.273 . S
O27 Mg14 2.010 . S
O27 C19 1.249 . S
Mg28 O29 2.028 . S
Mg28 O35 1.986 . S
Mg28 O37 2.114 . S
Mg28 O38 2.251 . S
Mg28 O41 2.010 . S
O29 Mg28 2.028 . S
O29 C32 1.250 . S
O30 Mg31 2.028 . S
O30 C32 1.248 . S
Mg31 O30 2.028 . S
Mg31 O36 2.032 . S
Mg31 O38 2.079 . S
C32 O29 1.250 . S
C32 O30 1.248 . S
C33 O34 1.264 . S
C33 O41 1.249 . S
O34 C33 1.264 . S
O35 Mg28 1.986 . S
O35 C39 1.246 . S
O36 Mg31 2.032 . S
O36 C39 1.259 . S
O37 Mg28 2.114 . S
O37 C40 1.252 . S
O38 Mg28 2.251 . S
O38 Mg31 2.079 . S
O38 C40 1.273 . S
C39 O35 1.246 . S
C39 O36 1.259 . S
C40 O37 1.252 . S
C40 O38 1.273 . S
O41 Mg28 2.010 . S
O41 C33 1.249 . S
Mg42 O43 2.028 . S
Mg42 O49 1.986 . S
Mg42 O51 2.114 . S
Mg42 O52 2.251 . S
Mg42 O55 2.010 . S
O43 Mg42 2.028 . S
O43 C46 1.250 . S
O44 Mg45 2.028 . S
O44 C46 1.248 . S
Mg45 O44 2.028 . S
Mg45 O50 2.032 . S
Mg45 O52 2.079 . S
C46 O43 1.250 . S
C46 O44 1.248 . S
C47 O48 1.264 . S
C47 O55 1.249 . S
O48 C47 1.264 . S
O49 Mg42 1.986 . S
O49 C53 1.246 . S
O50 Mg45 2.032 . S
O50 C53 1.259 . S
O51 Mg42 2.114 . S
O51 C54 1.252 . S
O52 Mg42 2.251 . S
O52 Mg45 2.079 . S
O52 C54 1.273 . S
C53 O49 1.246 . S
C53 O50 1.259 . S
C54 O51 1.252 . S
C54 O52 1.273 . S
O55 Mg42 2.010 . S
O55 C47 1.249 . S
Mg56 O57 2.028 . S
Mg56 O63 1.986 . S
Mg56 O65 2.114 . S
Mg56 O66 2.251 . S
Mg56 O69 2.010 . S
O57 Mg56 2.028 . S
O57 C60 1.250 . S
O58 Mg59 2.028 . S
O58 C60 1.248 . S
Mg59 O58 2.028 . S
Mg59 O64 2.032 . S
Mg59 O66 2.079 . S
C60 O57 1.250 . S
C60 O58 1.248 . S
C61 O62 1.264 . S
C61 O69 1.249 . S
O62 C61 1.264 . S
O63 Mg56 1.986 . S
O63 C67 1.246 . S
O64 Mg59 2.032 . S
O64 C67 1.259 . S
O65 Mg56 2.114 . S
O65 C68 1.252 . S
O66 Mg56 2.251 . S
O66 Mg59 2.079 . S
O66 C68 1.273 . S
C67 O63 1.246 . S
C67 O64 1.259 . S
C68 O65 1.252 . S
C68 O66 1.273 . S
O69 Mg56 2.010 . S
O69 C61 1.249 . S
Mg70 O71 2.028 . S
Mg70 O77 1.986 . S
Mg70 O79 2.114 . S
Mg70 O80 2.251 . S
Mg70 O83 2.010 . S
O71 Mg70 2.028 . S
O71 C74 1.250 . S
O72 Mg73 2.028 . S
O72 C74 1.248 . S
Mg73 O72 2.028 . S
Mg73 O78 2.032 . S
Mg73 O80 2.079 . S
C74 O71 1.250 . S
C74 O72 1.248 . S
C75 O76 1.264 . S
C75 O83 1.249 . S
O76 C75 1.264 . S
O77 Mg70 1.986 . S
O77 C81 1.246 . S
O78 Mg73 2.032 . S
O78 C81 1.259 . S
O79 Mg70 2.114 . S
O79 C82 1.252 . S
O80 Mg70 2.251 . S
O80 Mg73 2.079 . S
O80 C82 1.273 . S
C81 O77 1.246 . S
C81 O78 1.259 . S
C82 O79 1.252 . S
C82 O80 1.273 . S
O83 Mg70 2.010 . S
O83 C75 1.249 . S
H84 C85 0.951 . S
C85 H84 0.951 . S
C85 C91 1.265 . S
H86 C91 0.950 . S
H87 C95 0.949 . S
H88 C96 0.950 . S
H89 C97 0.951 . S
H90 C98 0.951 . S
C91 C85 1.265 . S
C91 H86 0.950 . S
C91 C92 1.478 . S
C92 C91 1.478 . S
C92 C93 1.397 . S
C92 C109 1.394 . S
C93 C92 1.397 . S
C93 C94 1.438 1_545 S
C93 C98 1.429 . S
C94 C93 1.438 1_565 S
C94 C95 1.428 . S
C94 C107 1.394 . S
C95 H87 0.949 . S
C95 C94 1.428 . S
C95 C96 1.345 . S
C96 H88 0.950 . S
C96 C95 1.345 . S
C96 C97 1.424 . S
C97 H89 0.951 . S
C97 C96 1.424 . S
C97 C98 1.347 1_565 S
C98 H90 0.951 . S
C98 C93 1.429 . S
C98 C97 1.347 1_545 S
H99 C100 0.951 . S
C100 H99 0.951 . S
C100 C106 1.265 . S
H101 C106 0.950 . S
H102 C110 0.949 . S
H103 C111 0.950 . S
H104 C112 0.951 . S
H105 C113 0.951 1_565 S
C106 C100 1.265 . S
C106 H101 0.950 . S
C106 C107 1.478 . S
C107 C94 1.394 . S
C107 C106 1.478 . S
C107 C108 1.397 1_565 S
C108 C107 1.397 1_545 S
C108 C109 1.438 . S
C108 C113 1.429 . S
C109 C92 1.394 . S
C109 C108 1.438 . S
C109 C110 1.428 . S
C110 H102 0.949 . S
C110 C109 1.428 . S
C110 C111 1.345 . S
C111 H103 0.950 . S
C111 C110 1.345 . S
C111 C112 1.424 . S
C112 H104 0.951 . S
C112 C111 1.424 . S
C112 C113 1.347 . S
C113 H105 0.951 1_545 S
C113 C108 1.429 . S
C113 C112 1.347 . S
H114 C115 0.951 . S
C115 H114 0.951 . S
C115 C121 1.265 . S
H116 C121 0.950 . S
H117 C125 0.949 . S
H118 C126 0.950 . S
H119 C127 0.951 . S
H120 C128 0.951 . S
C121 C115 1.265 . S
C121 H116 0.950 . S
C121 C122 1.478 . S
C122 C121 1.478 . S
C122 C123 1.397 . S
C122 C139 1.394 . S
C123 C122 1.397 . S
C123 C124 1.438 . S
C123 C128 1.429 . S
C124 C123 1.438 . S
C124 C125 1.428 . S
C124 C137 1.394 . S
C125 H117 0.949 . S
C125 C124 1.428 . S
C125 C126 1.345 . S
C126 H118 0.950 . S
C126 C125 1.345 . S
C126 C127 1.424 . S
C127 H119 0.951 . S
C127 C126 1.424 . S
C127 C128 1.347 . S
C128 H120 0.951 . S
C128 C123 1.429 . S
C128 C127 1.347 . S
H129 C130 0.951 . S
C130 H129 0.951 . S
C130 C136 1.265 . S
H131 C136 0.950 . S
H132 C140 0.949 . S
H133 C141 0.950 . S
H134 C142 0.951 . S
H135 C143 0.951 . S
C136 C130 1.265 . S
C136 H131 0.950 . S
C136 C137 1.478 . S
C137 C124 1.394 . S
C137 C136 1.478 . S
C137 C138 1.397 . S
C138 C137 1.397 . S
C138 C139 1.438 . S
C138 C143 1.429 . S
C139 C122 1.394 . S
C139 C138 1.438 . S
C139 C140 1.428 . S
C140 H132 0.949 . S
C140 C139 1.428 . S
C140 C141 1.345 . S
C141 H133 0.950 . S
C141 C140 1.345 . S
C141 C142 1.424 . S
C142 H134 0.951 . S
C142 C141 1.424 . S
C142 C143 1.347 . S
C143 H135 0.951 . S
C143 C138 1.429 . S
C143 C142 1.347 . S
H144 C145 0.951 . S
C145 H144 0.951 . S
C145 C151 1.265 . S
H146 C151 0.950 . S
H147 C155 0.949 . S
H148 C156 0.950 . S
H149 C157 0.951 . S
H150 C158 0.951 . S
C151 C145 1.265 . S
C151 H146 0.950 . S
C151 C152 1.478 . S
C152 C151 1.478 . S
C152 C153 1.397 . S
C152 C169 1.394 . S
C153 C152 1.397 . S
C153 C154 1.438 1_655 S
C153 C158 1.429 . S
C154 C153 1.438 1_455 S
C154 C155 1.428 . S
C154 C167 1.394 . S
C155 H147 0.949 . S
C155 C154 1.428 . S
C155 C156 1.345 . S
C156 H148 0.950 . S
C156 C155 1.345 . S
C156 C157 1.424 1_455 S
C157 H149 0.951 . S
C157 C156 1.424 1_655 S
C157 C158 1.347 . S
C158 H150 0.951 . S
C158 C153 1.429 . S
C158 C157 1.347 . S
H159 C160 0.951 . S
C160 H159 0.951 . S
C160 C166 1.265 . S
H161 C166 0.950 . S
H162 C170 0.949 . S
H163 C171 0.950 . S
H164 C172 0.951 . S
H165 C173 0.951 . S
C166 C160 1.265 . S
C166 H161 0.950 . S
C166 C167 1.478 . S
C167 C154 1.394 . S
C167 C166 1.478 . S
C167 C168 1.397 . S
C168 C167 1.397 . S
C168 C169 1.438 1_455 S
C168 C173 1.429 . S
C169 C152 1.394 . S
C169 C168 1.438 1_655 S
C169 C170 1.428 . S
C170 H162 0.949 . S
C170 C169 1.428 . S
C170 C171 1.345 . S
C171 H163 0.950 . S
C171 C170 1.345 . S
C171 C172 1.424 1_655 S
C172 H164 0.951 . S
C172 C171 1.424 1_455 S
C172 C173 1.347 . S
C173 H165 0.951 . S
C173 C168 1.429 . S
C173 C172 1.347 . S
H174 C175 0.951 . S
C175 H174 0.951 . S
C175 C181 1.265 . S
H176 C181 0.950 . S
H177 C185 0.949 . S
H178 C186 0.950 . S
H179 C187 0.951 . S
H180 C188 0.951 . S
C181 C175 1.265 . S
C181 H176 0.950 . S
C181 C182 1.478 . S
C182 C181 1.478 . S
C182 C183 1.397 1_554 S
C182 C199 1.394 . S
C183 C182 1.397 1_556 S
C183 C184 1.438 1_565 S
C183 C188 1.429 . S
C184 C183 1.438 1_545 S
C184 C185 1.428 . S
C184 C197 1.394 . S
C185 H177 0.949 . S
C185 C184 1.428 . S
C185 C186 1.345 1_545 S
C186 H178 0.950 . S
C186 C185 1.345 1_565 S
C186 C187 1.424 . S
C187 H179 0.951 . S
C187 C186 1.424 . S
C187 C188 1.347 . S
C188 H180 0.951 . S
C188 C183 1.429 . S
C188 C187 1.347 . S
H189 C190 0.951 . S
C190 H189 0.951 . S
C190 C196 1.265 . S
H191 C196 0.950 . S
H192 C200 0.949 . S
H193 C201 0.950 . S
H194 C202 0.951 . S
H195 C203 0.951 . S
C196 C190 1.265 . S
C196 H191 0.950 . S
C196 C197 1.478 . S
C197 C184 1.394 . S
C197 C196 1.478 . S
C197 C198 1.397 1_556 S
C198 C197 1.397 1_554 S
C198 C199 1.438 1_545 S
C198 C203 1.429 . S
C199 C182 1.394 . S
C199 C198 1.438 1_565 S
C199 C200 1.428 . S
C200 H192 0.949 . S
C200 C199 1.428 . S
C200 C201 1.345 . S
C201 H193 0.950 . S
C201 C200 1.345 . S
C201 C202 1.424 1_565 S
C202 H194 0.951 . S
C202 C201 1.424 1_545 S
C202 C203 1.347 . S
C203 H195 0.951 . S
C203 C198 1.429 . S
C203 C202 1.347 . S
H204 C205 0.951 . S
C205 H204 0.951 . S
C205 C211 1.265 . S
H206 C211 0.950 . S
H207 C215 0.949 . S
H208 C216 0.950 . S
H209 C217 0.951 . S
H210 C218 0.951 . S
C211 C205 1.265 . S
C211 H206 0.950 . S
C211 C212 1.478 . S
C212 C211 1.478 . S
C212 C213 1.397 . S
C212 C229 1.394 . S
C213 C212 1.397 . S
C213 C214 1.438 . S
C213 C218 1.429 . S
C214 C213 1.438 . S
C214 C215 1.428 . S
C214 C227 1.394 . S
C215 H207 0.949 . S
C215 C214 1.428 . S
C215 C216 1.345 . S
C216 H208 0.950 . S
C216 C215 1.345 . S
C216 C217 1.424 . S
C217 H209 0.951 . S
C217 C216 1.424 . S
C217 C218 1.347 . S
C218 H210 0.951 . S
C218 C213 1.429 . S
C218 C217 1.347 . S
H219 C220 0.951 . S
C220 H219 0.951 . S
C220 C226 1.265 . S
H221 C226 0.950 . S
H222 C230 0.949 . S
H223 C231 0.950 . S
H224 C232 0.951 . S
H225 C233 0.951 . S
C226 C220 1.265 . S
C226 H221 0.950 . S
C226 C227 1.478 . S
C227 C214 1.394 . S
C227 C226 1.478 . S
C227 C228 1.397 . S
C228 C227 1.397 . S
C228 C229 1.438 . S
C228 C233 1.429 . S
C229 C212 1.394 . S
C229 C228 1.438 . S
C229 C230 1.428 . S
C230 H222 0.949 . S
C230 C229 1.428 . S
C230 C231 1.345 . S
C231 H223 0.950 . S
C231 C230 1.345 . S
C231 C232 1.424 . S
C232 H224 0.951 . S
C232 C231 1.424 . S
C232 C233 1.347 . S
C233 H225 0.951 . S
C233 C228 1.429 . S
C233 C232 1.347 . S
H234 C235 0.951 . S
C235 H234 0.951 . S
C235 C241 1.265 . S
H236 C241 0.950 . S
H237 C245 0.949 . S
H238 C246 0.950 . S
H239 C247 0.951 . S
H240 C248 0.951 . S
C241 C235 1.265 . S
C241 H236 0.950 . S
C241 C242 1.478 . S
C242 C241 1.478 . S
C242 C243 1.397 . S
C242 C259 1.394 . S
C243 C242 1.397 . S
C243 C244 1.438 1_455 S
C243 C248 1.429 . S
C244 C243 1.438 1_655 S
C244 C245 1.428 . S
C244 C257 1.394 . S
C245 H237 0.949 . S
C245 C244 1.428 . S
C245 C246 1.345 . S
C246 H238 0.950 . S
C246 C245 1.345 . S
C246 C247 1.424 . S
C247 H239 0.951 . S
C247 C246 1.424 . S
C247 C248 1.347 1_655 S
C248 H240 0.951 . S
C248 C243 1.429 . S
C248 C247 1.347 1_455 S
H249 C250 0.951 . S
C250 H249 0.951 . S
C250 C256 1.265 . S
H251 C256 0.950 . S
H252 C260 0.949 . S
H253 C261 0.950 . S
H254 C262 0.951 . S
H255 C263 0.953 1_655 S
C256 C250 1.265 . S
C256 H251 0.950 . S
C256 C257 1.478 . S
C257 C244 1.394 . S
C257 C256 1.478 . S
C257 C258 1.397 1_655 S
C258 C257 1.397 1_455 S
C258 C259 1.438 . S
C258 C263 1.429 . S
C259 C242 1.394 . S
C259 C258 1.438 . S
C259 C260 1.428 . S
C260 H252 0.949 . S
C260 C259 1.428 . S
C260 C261 1.345 . S
C261 H253 0.950 . S
C261 C260 1.345 . S
C261 C262 1.424 . S
C262 H254 0.951 . S
C262 C261 1.424 . S
C262 C263 1.345 . S
C263 H255 0.953 1_455 S
C263 C258 1.429 . S
C263 C262 1.345 . S
H264 C265 0.951 . S
C265 H264 0.951 . S
C265 C271 1.265 . S
H266 C271 0.950 . S
H267 C275 0.949 . S
H268 C276 0.950 . S
H269 C277 0.951 . S
H270 C278 0.951 . S
C271 C265 1.265 . S
C271 H266 0.950 . S
C271 C272 1.478 . S
C272 C271 1.478 . S
C272 C273 1.397 . S
C272 C289 1.394 . S
C273 C272 1.397 . S
C273 C274 1.438 . S
C273 C278 1.429 . S
C274 C273 1.438 . S
C274 C275 1.428 . S
C274 C287 1.394 . S
C275 H267 0.949 . S
C275 C274 1.428 . S
C275 C276 1.345 . S
C276 H268 0.950 . S
C276 C275 1.345 . S
C276 C277 1.424 . S
C277 H269 0.951 . S
C277 C276 1.424 . S
C277 C278 1.347 . S
C278 H270 0.951 . S
C278 C273 1.429 . S
C278 C277 1.347 . S
H279 C280 0.951 . S
C280 H279 0.951 . S
C280 C286 1.265 . S
H281 C286 0.950 . S
H282 C290 0.949 . S
H283 C291 0.950 . S
H284 C292 0.951 . S
H285 C293 0.951 . S
C286 C280 1.265 . S
C286 H281 0.950 . S
C286 C287 1.478 . S
C287 C274 1.394 . S
C287 C286 1.478 . S
C287 C288 1.397 . S
C288 C287 1.397 . S
C288 C289 1.438 . S
C288 C293 1.429 . S
C289 C272 1.394 . S
C289 C288 1.438 . S
C289 C290 1.428 . S
C290 H282 0.949 . S
C290 C289 1.428 . S
C290 C291 1.345 . S
C291 H283 0.950 . S
C291 C290 1.345 . S
C291 C292 1.424 . S
C292 H284 0.951 . S
C292 C291 1.424 . S
C292 C293 1.347 . S
C293 H285 0.951 . S
C293 C288 1.429 . S
C293 C292 1.347 . S
H294 C295 0.951 . S
C295 H294 0.951 . S
C295 C301 1.265 . S
H296 C301 0.950 . S
H297 C305 0.949 . S
H298 C306 0.950 . S
H299 C307 0.951 . S
H300 C308 0.951 . S
C301 C295 1.265 . S
C301 H296 0.950 . S
C301 C302 1.478 . S
C302 C301 1.478 . S
C302 C303 1.397 . S
C302 C319 1.394 . S
C303 C302 1.397 . S
C303 C304 1.438 . S
C303 C308 1.429 . S
C304 C303 1.438 . S
C304 C305 1.428 . S
C304 C317 1.394 . S
C305 H297 0.949 . S
C305 C304 1.428 . S
C305 C306 1.345 . S
C306 H298 0.950 . S
C306 C305 1.345 . S
C306 C307 1.424 . S
C307 H299 0.951 . S
C307 C306 1.424 . S
C307 C308 1.347 . S
C308 H300 0.951 . S
C308 C303 1.429 . S
C308 C307 1.347 . S
H309 C310 0.951 . S
C310 H309 0.951 . S
C310 C316 1.265 . S
H311 C316 0.950 . S
H312 C320 0.949 . S
H313 C321 0.950 . S
H314 C322 0.951 . S
H315 C323 0.951 . S
C316 C310 1.265 . S
C316 H311 0.950 . S
C316 C317 1.478 . S
C317 C304 1.394 . S
C317 C316 1.478 . S
C317 C318 1.397 . S
C318 C317 1.397 . S
C318 C319 1.438 . S
C318 C323 1.429 . S
C319 C302 1.394 . S
C319 C318 1.438 . S
C319 C320 1.428 . S
C320 H312 0.949 . S
C320 C319 1.428 . S
C320 C321 1.345 . S
C321 H313 0.950 . S
C321 C320 1.345 . S
C321 C322 1.424 . S
C322 H314 0.951 . S
C322 C321 1.424 . S
C322 C323 1.347 . S
C323 H315 0.951 . S
C323 C318 1.429 . S
C323 C322 1.347 . S
H324 C325 0.951 . S
C325 H324 0.951 . S
C325 C331 1.265 . S
H326 C331 0.950 . S
H327 C335 0.949 . S
H328 C336 0.950 . S
H329 C337 0.951 . S
H330 C338 0.951 . S
C331 C325 1.265 . S
C331 H326 0.950 . S
C331 C332 1.478 . S
C332 C331 1.478 . S
C332 C333 1.397 . S
C332 C349 1.394 . S
C333 C332 1.397 . S
C333 C334 1.438 . S
C333 C338 1.429 . S
C334 C333 1.438 . S
C334 C335 1.428 . S
C334 C347 1.394 . S
C335 H327 0.949 . S
C335 C334 1.428 . S
C335 C336 1.345 . S
C336 H328 0.950 . S
C336 C335 1.345 . S
C336 C337 1.424 . S
C337 H329 0.951 . S
C337 C336 1.424 . S
C337 C338 1.347 . S
C338 H330 0.951 . S
C338 C333 1.429 . S
C338 C337 1.347 . S
H339 C340 0.951 . S
C340 H339 0.951 . S
C340 C346 1.265 . S
H341 C346 0.950 . S
H342 C350 0.949 . S
H343 C351 0.950 . S
H344 C352 0.951 . S
H345 C353 0.951 . S
C346 C340 1.265 . S
C346 H341 0.950 . S
C346 C347 1.478 . S
C347 C334 1.394 . S
C347 C346 1.478 . S
C347 C348 1.397 . S
C348 C347 1.397 . S
C348 C349 1.438 . S
C348 C353 1.429 . S
C349 C332 1.394 . S
C349 C348 1.438 . S
C349 C350 1.428 . S
C350 H342 0.949 . S
C350 C349 1.428 . S
C350 C351 1.345 . S
C351 H343 0.950 . S
C351 C350 1.345 . S
C351 C352 1.424 . S
C352 H344 0.951 . S
C352 C351 1.424 . S
C352 C353 1.347 . S
C353 H345 0.951 . S
C353 C348 1.429 . S
C353 C352 1.347 . S
H354 C355 0.951 . S
C355 H354 0.951 . S
C355 C361 1.265 . S
H356 C361 0.950 . S
H357 C365 0.962 . S
H358 C366 0.950 1_554 S
H359 C367 0.951 . S
H360 C368 0.951 . S
C361 C355 1.265 . S
C361 H356 0.950 . S
C361 C362 1.478 . S
C362 C361 1.478 . S
C362 C363 1.397 . S
C362 C379 1.394 . S
C363 C362 1.397 . S
C363 C364 1.438 . S
C363 C368 1.429 . S
C364 C363 1.438 . S
C364 C365 1.428 . S
C364 C377 1.394 . S
C365 H357 0.962 . S
C365 C364 1.428 . S
C365 C366 1.345 . S
C366 H358 0.950 1_556 S
C366 C365 1.345 . S
C366 C367 1.424 . S
C367 H359 0.951 . S
C367 C366 1.424 . S
C367 C368 1.347 . S
C368 H360 0.951 . S
C368 C363 1.429 . S
C368 C367 1.347 . S
H369 C370 0.951 1_554 S
C370 H369 0.951 1_556 S
C370 C376 1.265 . S
H371 C376 0.950 . S
H372 C380 0.949 . S
H373 C381 0.950 . S
H374 C382 0.951 . S
H375 C383 0.951 . S
C376 C370 1.265 . S
C376 H371 0.950 . S
C376 C377 1.478 . S
C377 C364 1.394 . S
C377 C376 1.478 . S
C377 C378 1.397 . S
C378 C377 1.397 . S
C378 C379 1.438 . S
C378 C383 1.429 . S
C379 C362 1.394 . S
C379 C378 1.438 . S
C379 C380 1.428 . S
C380 H372 0.949 . S
C380 C379 1.428 . S
C380 C381 1.345 . S
C381 H373 0.950 . S
C381 C380 1.345 . S
C381 C382 1.424 . S
C382 H374 0.951 . S
C382 C381 1.424 . S
C382 C383 1.347 . S
C383 H375 0.951 . S
C383 C378 1.429 . S
C383 C382 1.347 . S
H384 C385 0.951 1_556 S
C385 H384 0.951 1_554 S
C385 C391 1.265 . S
H386 C391 0.950 . S
H387 C395 0.949 . S
H388 C396 0.950 . S
H389 C397 0.951 . S
H390 C398 0.951 . S
C391 C385 1.265 . S
C391 H386 0.950 . S
C391 C392 1.478 . S
C392 C391 1.478 . S
C392 C393 1.397 . S
C392 C409 1.394 . S
C393 C392 1.397 . S
C393 C394 1.438 . S
C393 C398 1.429 . S
C394 C393 1.438 . S
C394 C395 1.428 . S
C394 C407 1.394 . S
C395 H387 0.949 . S
C395 C394 1.428 . S
C395 C396 1.345 . S
C396 H388 0.950 . S
C396 C395 1.345 . S
C396 C397 1.424 . S
C397 H389 0.951 . S
C397 C396 1.424 . S
C397 C398 1.347 . S
C398 H390 0.951 . S
C398 C393 1.429 . S
C398 C397 1.347 . S
H399 C400 0.951 . S
C400 H399 0.951 . S
C400 C406 1.265 . S
H401 C406 0.950 . S
H402 C410 0.949 . S
H403 C411 0.950 . S
H404 C412 0.951 . S
H405 C413 0.951 . S
C406 C400 1.265 . S
C406 H401 0.950 . S
C406 C407 1.478 . S
C407 C394 1.394 . S
C407 C406 1.478 . S
C407 C408 1.397 . S
C408 C407 1.397 . S
C408 C409 1.438 . S
C408 C413 1.429 . S
C409 C392 1.394 . S
C409 C408 1.438 . S
C409 C410 1.428 . S
C410 H402 0.949 . S
C410 C409 1.428 . S
C410 C411 1.345 . S
C411 H403 0.950 . S
C411 C410 1.345 . S
C411 C412 1.424 . S
C412 H404 0.951 . S
C412 C411 1.424 . S
C412 C413 1.347 . S
C413 H405 0.951 . S
C413 C408 1.429 . S
C413 C412 1.347 . S
H414 C415 0.951 . S
C415 H414 0.951 . S
C415 C421 1.265 . S
H416 C421 0.950 . S
H417 C425 0.949 . S
H418 C426 0.950 . S
H419 C427 0.951 . S
H420 C428 0.951 . S
C421 C415 1.265 . S
C421 H416 0.950 . S
C421 C422 1.478 . S
C422 C421 1.478 . S
C422 C423 1.397 . S
C422 C439 1.394 . S
C423 C422 1.397 . S
C423 C424 1.438 . S
C423 C428 1.429 . S
C424 C423 1.438 . S
C424 C425 1.428 . S
C424 C437 1.394 . S
C425 H417 0.949 . S
C425 C424 1.428 . S
C425 C426 1.345 . S
C426 H418 0.950 . S
C426 C425 1.345 . S
C426 C427 1.424 . S
C427 H419 0.951 . S
C427 C426 1.424 . S
C427 C428 1.347 . S
C428 H420 0.951 . S
C428 C423 1.429 . S
C428 C427 1.347 . S
H429 C430 0.951 . S
C430 H429 0.951 . S
C430 C436 1.265 . S
H431 C436 0.950 . S
H432 C440 0.949 . S
H433 C441 0.950 . S
H434 C442 0.951 . S
H435 C443 0.951 . S
C436 C430 1.265 . S
C436 H431 0.950 . S
C436 C437 1.478 . S
C437 C424 1.394 . S
C437 C436 1.478 . S
C437 C438 1.397 . S
C438 C437 1.397 . S
C438 C439 1.438 . S
C438 C443 1.429 . S
C439 C422 1.394 . S
C439 C438 1.438 . S
C439 C440 1.428 . S
C440 H432 0.949 . S
C440 C439 1.428 . S
C440 C441 1.345 . S
C441 H433 0.950 . S
C441 C440 1.345 . S
C441 C442 1.424 . S
C442 H434 0.951 . S
C442 C441 1.424 . S
C442 C443 1.347 . S
C443 H435 0.951 . S
C443 C438 1.429 . S
C443 C442 1.347 . S
C85 C12 1.434 . S
C100 C82 1.429 . S
C115 C5 1.069 . S
C130 C26 1.391 . S
C145 C33 1.223 . S
C160 C19 1.182 . S
C175 C54 1.430 . S
C190 C40 1.432 . S
C205 C68 1.388 . S
C220 C47 1.091 . S
C235 C75 1.173 . S
C250 C61 1.226 . S
C265 C11 1.526 . S
C280 C60 1.489 . S
C295 C81 1.381 . S
C310 C25 1.379 . S
C325 C32 1.628 . S
C340 C4 1.625 . S
C355 C18 1.478 . S
C370 C53 1.536 1_556 S
C385 C39 1.369 1_554 S
C400 C67 1.403 . S
C415 C74 1.694 . S
C430 C46 1.690 . S
