# Generated by pormake.
# Topology ulh, (4)-cn, num edge types: 1
# Building blocks:
#     Node 0, Type 0, BuildingBlock: CEKHIL_clean_sbu_0, # of connection points: 4
#     Node 1, Type 0, BuildingBlock: CEKHIL_clean_sbu_0, # of connection points: 4
#     Node 2, Type 0, BuildingBlock: CEKHIL_clean_sbu_0, # of connection points: 4
#     Node 3, Type 0, BuildingBlock: CEKHIL_clean_sbu_0, # of connection points: 4
#     Node 4, Type 0, BuildingBlock: CEKHIL_clean_sbu_0, # of connection points: 4
#     Node 5, Type 0, BuildingBlock: CEKHIL_clean_sbu_0, # of connection points: 4
#     Node 6, Type 0, BuildingBlock: CEKHIL_clean_sbu_0, # of connection points: 4
#     Node 7, Type 0, BuildingBlock: CEKHIL_clean_sbu_0, # of connection points: 4
#     Node 8, Type 0, BuildingBlock: CEKHIL_clean_sbu_0, # of connection points: 4
#     Node 9, Type 0, BuildingBlock: CEKHIL_clean_sbu_0, # of connection points: 4
#     Node 10, Type 0, BuildingBlock: CEKHIL_clean_sbu_0, # of connection points: 4
#     Node 11, Type 0, BuildingBlock: CEKHIL_clean_sbu_0, # of connection points: 4
#     Node 12, Type 0, BuildingBlock: CEKHIL_clean_sbu_0, # of connection points: 4
#     Node 13, Type 0, BuildingBlock: CEKHIL_clean_sbu_0, # of connection points: 4
#     Node 14, Type 0, BuildingBlock: CEKHIL_clean_sbu_0, # of connection points: 4
#     Node 15, Type 0, BuildingBlock: CEKHIL_clean_sbu_0, # of connection points: 4
#     Node 16, Type 0, BuildingBlock: CEKHIL_clean_sbu_0, # of connection points: 4
#     Node 17, Type 0, BuildingBlock: CEKHIL_clean_sbu_0, # of connection points: 4
#     Node 18, Type 0, BuildingBlock: CEKHIL_clean_sbu_0, # of connection points: 4
#     Node 19, Type 0, BuildingBlock: CEKHIL_clean_sbu_0, # of connection points: 4
#     Node 20, Type 0, BuildingBlock: CEKHIL_clean_sbu_0, # of connection points: 4
#     Node 21, Type 0, BuildingBlock: CEKHIL_clean_sbu_0, # of connection points: 4
#     Node 22, Type 0, BuildingBlock: CEKHIL_clean_sbu_0, # of connection points: 4
#     Node 23, Type 0, BuildingBlock: CEKHIL_clean_sbu_0, # of connection points: 4
#     Node 24, Type 0, BuildingBlock: CEKHIL_clean_sbu_0, # of connection points: 4
#     Node 25, Type 0, BuildingBlock: CEKHIL_clean_sbu_0, # of connection points: 4
#     Node 26, Type 0, BuildingBlock: CEKHIL_clean_sbu_0, # of connection points: 4
#     Node 27, Type 0, BuildingBlock: CEKHIL_clean_sbu_0, # of connection points: 4
#     Node 28, Type 0, BuildingBlock: CEKHIL_clean_sbu_0, # of connection points: 4
#     Node 29, Type 0, BuildingBlock: CEKHIL_clean_sbu_0, # of connection points: 4
#     Node 30, Type 0, BuildingBlock: CEKHIL_clean_sbu_0, # of connection points: 4
#     Node 31, Type 0, BuildingBlock: CEKHIL_clean_sbu_0, # of connection points: 4
#     Node 32, Type 0, BuildingBlock: CEKHIL_clean_sbu_0, # of connection points: 4
#     Node 33, Type 0, BuildingBlock: CEKHIL_clean_sbu_0, # of connection points: 4
#     Node 34, Type 0, BuildingBlock: CEKHIL_clean_sbu_0, # of connection points: 4
#     Node 35, Type 0, BuildingBlock: CEKHIL_clean_sbu_0, # of connection points: 4
#     Node 36, Type 0, BuildingBlock: CEKHIL_clean_sbu_0, # of connection points: 4
#     Node 37, Type 0, BuildingBlock: CEKHIL_clean_sbu_0, # of connection points: 4
#     Node 38, Type 0, BuildingBlock: CEKHIL_clean_sbu_0, # of connection points: 4
#     Node 39, Type 0, BuildingBlock: CEKHIL_clean_sbu_0, # of connection points: 4
#     Node 40, Type 0, BuildingBlock: CEKHIL_clean_sbu_0, # of connection points: 4
#     Node 41, Type 0, BuildingBlock: CEKHIL_clean_sbu_0, # of connection points: 4
#     Node 42, Type 0, BuildingBlock: CEKHIL_clean_sbu_0, # of connection points: 4
#     Node 43, Type 0, BuildingBlock: CEKHIL_clean_sbu_0, # of connection points: 4
#     Node 44, Type 0, BuildingBlock: CEKHIL_clean_sbu_0, # of connection points: 4
#     Node 45, Type 0, BuildingBlock: CEKHIL_clean_sbu_0, # of connection points: 4
#     Node 46, Type 0, BuildingBlock: CEKHIL_clean_sbu_0, # of connection points: 4
#     Node 47, Type 0, BuildingBlock: CEKHIL_clean_sbu_0, # of connection points: 4
#     Node 48, Type 0, BuildingBlock: CEKHIL_clean_sbu_0, # of connection points: 4
#     Node 49, Type 0, BuildingBlock: CEKHIL_clean_sbu_0, # of connection points: 4
#     Node 50, Type 0, BuildingBlock: CEKHIL_clean_sbu_0, # of connection points: 4
#     Node 51, Type 0, BuildingBlock: CEKHIL_clean_sbu_0, # of connection points: 4
#     Node 52, Type 0, BuildingBlock: CEKHIL_clean_sbu_0, # of connection points: 4
#     Node 53, Type 0, BuildingBlock: CEKHIL_clean_sbu_0, # of connection points: 4
#     Node 54, Type 0, BuildingBlock: CEKHIL_clean_sbu_0, # of connection points: 4
#     Node 55, Type 0, BuildingBlock: CEKHIL_clean_sbu_0, # of connection points: 4
#     Node 56, Type 0, BuildingBlock: CEKHIL_clean_sbu_0, # of connection points: 4
#     Node 57, Type 0, BuildingBlock: CEKHIL_clean_sbu_0, # of connection points: 4
#     Node 58, Type 0, BuildingBlock: CEKHIL_clean_sbu_0, # of connection points: 4
#     Node 59, Type 0, BuildingBlock: CEKHIL_clean_sbu_0, # of connection points: 4
#     Node 60, Type 0, BuildingBlock: CEKHIL_clean_sbu_0, # of connection points: 4
#     Node 61, Type 0, BuildingBlock: CEKHIL_clean_sbu_0, # of connection points: 4
#     Node 62, Type 0, BuildingBlock: CEKHIL_clean_sbu_0, # of connection points: 4
#     Node 63, Type 0, BuildingBlock: CEKHIL_clean_sbu_0, # of connection points: 4
#     Node 64, Type 0, BuildingBlock: CEKHIL_clean_sbu_0, # of connection points: 4
#     Node 65, Type 0, BuildingBlock: CEKHIL_clean_sbu_0, # of connection points: 4
#     Node 66, Type 0, BuildingBlock: CEKHIL_clean_sbu_0, # of connection points: 4
#     Node 67, Type 0, BuildingBlock: CEKHIL_clean_sbu_0, # of connection points: 4
#     Node 68, Type 0, BuildingBlock: CEKHIL_clean_sbu_0, # of connection points: 4
#     Node 69, Type 0, BuildingBlock: CEKHIL_clean_sbu_0, # of connection points: 4
#     Node 70, Type 0, BuildingBlock: CEKHIL_clean_sbu_0, # of connection points: 4
#     Node 71, Type 0, BuildingBlock: CEKHIL_clean_sbu_0, # of connection points: 4
#     Node 72, Type 0, BuildingBlock: CEKHIL_clean_sbu_0, # of connection points: 4
#     Node 73, Type 0, BuildingBlock: CEKHIL_clean_sbu_0, # of connection points: 4
#     Node 74, Type 0, BuildingBlock: CEKHIL_clean_sbu_0, # of connection points: 4
#     Node 75, Type 0, BuildingBlock: CEKHIL_clean_sbu_0, # of connection points: 4
#     Node 76, Type 0, BuildingBlock: CEKHIL_clean_sbu_0, # of connection points: 4
#     Node 77, Type 0, BuildingBlock: CEKHIL_clean_sbu_0, # of connection points: 4
#     Node 78, Type 0, BuildingBlock: CEKHIL_clean_sbu_0, # of connection points: 4
#     Node 79, Type 0, BuildingBlock: CEKHIL_clean_sbu_0, # of connection points: 4
#     Node 80, Type 0, BuildingBlock: CEKHIL_clean_sbu_0, # of connection points: 4
#     Node 81, Type 0, BuildingBlock: CEKHIL_clean_sbu_0, # of connection points: 4
#     Node 82, Type 0, BuildingBlock: CEKHIL_clean_sbu_0, # of connection points: 4
#     Node 83, Type 0, BuildingBlock: CEKHIL_clean_sbu_0, # of connection points: 4
#     Node 84, Type 0, BuildingBlock: CEKHIL_clean_sbu_0, # of connection points: 4
#     Node 85, Type 0, BuildingBlock: CEKHIL_clean_sbu_0, # of connection points: 4
#     Node 86, Type 0, BuildingBlock: CEKHIL_clean_sbu_0, # of connection points: 4
#     Node 87, Type 0, BuildingBlock: CEKHIL_clean_sbu_0, # of connection points: 4
#     Node 88, Type 0, BuildingBlock: CEKHIL_clean_sbu_0, # of connection points: 4
#     Node 89, Type 0, BuildingBlock: CEKHIL_clean_sbu_0, # of connection points: 4
#     Node 90, Type 0, BuildingBlock: CEKHIL_clean_sbu_0, # of connection points: 4
#     Node 91, Type 0, BuildingBlock: CEKHIL_clean_sbu_0, # of connection points: 4
#     Node 92, Type 0, BuildingBlock: CEKHIL_clean_sbu_0, # of connection points: 4
#     Node 93, Type 0, BuildingBlock: CEKHIL_clean_sbu_0, # of connection points: 4
#     Node 94, Type 0, BuildingBlock: CEKHIL_clean_sbu_0, # of connection points: 4
#     Node 95, Type 0, BuildingBlock: CEKHIL_clean_sbu_0, # of connection points: 4
#     Edge 96, Type (0, 0), BuildingBlock: OJICUG_clean_linker_0, # of connection points: 2
#     Edge 97, Type (0, 0), BuildingBlock: OJICUG_clean_linker_0, # of connection points: 2
#     Edge 98, Type (0, 0), BuildingBlock: OJICUG_clean_linker_0, # of connection points: 2
#     Edge 99, Type (0, 0), BuildingBlock: OJICUG_clean_linker_0, # of connection points: 2
#     Edge 100, Type (0, 0), BuildingBlock: OJICUG_clean_linker_0, # of connection points: 2
#     Edge 101, Type (0, 0), BuildingBlock: OJICUG_clean_linker_0, # of connection points: 2
#     Edge 102, Type (0, 0), BuildingBlock: OJICUG_clean_linker_0, # of connection points: 2
#     Edge 103, Type (0, 0), BuildingBlock: OJICUG_clean_linker_0, # of connection points: 2
#     Edge 104, Type (0, 0), BuildingBlock: OJICUG_clean_linker_0, # of connection points: 2
#     Edge 105, Type (0, 0), BuildingBlock: OJICUG_clean_linker_0, # of connection points: 2
#     Edge 106, Type (0, 0), BuildingBlock: OJICUG_clean_linker_0, # of connection points: 2
#     Edge 107, Type (0, 0), BuildingBlock: OJICUG_clean_linker_0, # of connection points: 2
#     Edge 108, Type (0, 0), BuildingBlock: OJICUG_clean_linker_0, # of connection points: 2
#     Edge 109, Type (0, 0), BuildingBlock: OJICUG_clean_linker_0, # of connection points: 2
#     Edge 110, Type (0, 0), BuildingBlock: OJICUG_clean_linker_0, # of connection points: 2
#     Edge 111, Type (0, 0), BuildingBlock: OJICUG_clean_linker_0, # of connection points: 2
#     Edge 112, Type (0, 0), BuildingBlock: OJICUG_clean_linker_0, # of connection points: 2
#     Edge 113, Type (0, 0), BuildingBlock: OJICUG_clean_linker_0, # of connection points: 2
#     Edge 114, Type (0, 0), BuildingBlock: OJICUG_clean_linker_0, # of connection points: 2
#     Edge 115, Type (0, 0), BuildingBlock: OJICUG_clean_linker_0, # of connection points: 2
#     Edge 116, Type (0, 0), BuildingBlock: OJICUG_clean_linker_0, # of connection points: 2
#     Edge 117, Type (0, 0), BuildingBlock: OJICUG_clean_linker_0, # of connection points: 2
#     Edge 118, Type (0, 0), BuildingBlock: OJICUG_clean_linker_0, # of connection points: 2
#     Edge 119, Type (0, 0), BuildingBlock: OJICUG_clean_linker_0, # of connection points: 2
#     Edge 120, Type (0, 0), BuildingBlock: OJICUG_clean_linker_0, # of connection points: 2
#     Edge 121, Type (0, 0), BuildingBlock: OJICUG_clean_linker_0, # of connection points: 2
#     Edge 122, Type (0, 0), BuildingBlock: OJICUG_clean_linker_0, # of connection points: 2
#     Edge 123, Type (0, 0), BuildingBlock: OJICUG_clean_linker_0, # of connection points: 2
#     Edge 124, Type (0, 0), BuildingBlock: OJICUG_clean_linker_0, # of connection points: 2
#     Edge 125, Type (0, 0), BuildingBlock: OJICUG_clean_linker_0, # of connection points: 2
#     Edge 126, Type (0, 0), BuildingBlock: OJICUG_clean_linker_0, # of connection points: 2
#     Edge 127, Type (0, 0), BuildingBlock: OJICUG_clean_linker_0, # of connection points: 2
#     Edge 128, Type (0, 0), BuildingBlock: OJICUG_clean_linker_0, # of connection points: 2
#     Edge 129, Type (0, 0), BuildingBlock: OJICUG_clean_linker_0, # of connection points: 2
#     Edge 130, Type (0, 0), BuildingBlock: OJICUG_clean_linker_0, # of connection points: 2
#     Edge 131, Type (0, 0), BuildingBlock: OJICUG_clean_linker_0, # of connection points: 2
#     Edge 132, Type (0, 0), BuildingBlock: OJICUG_clean_linker_0, # of connection points: 2
#     Edge 133, Type (0, 0), BuildingBlock: OJICUG_clean_linker_0, # of connection points: 2
#     Edge 134, Type (0, 0), BuildingBlock: OJICUG_clean_linker_0, # of connection points: 2
#     Edge 135, Type (0, 0), BuildingBlock: OJICUG_clean_linker_0, # of connection points: 2
#     Edge 136, Type (0, 0), BuildingBlock: OJICUG_clean_linker_0, # of connection points: 2
#     Edge 137, Type (0, 0), BuildingBlock: OJICUG_clean_linker_0, # of connection points: 2
#     Edge 138, Type (0, 0), BuildingBlock: OJICUG_clean_linker_0, # of connection points: 2
#     Edge 139, Type (0, 0), BuildingBlock: OJICUG_clean_linker_0, # of connection points: 2
#     Edge 140, Type (0, 0), BuildingBlock: OJICUG_clean_linker_0, # of connection points: 2
#     Edge 141, Type (0, 0), BuildingBlock: OJICUG_clean_linker_0, # of connection points: 2
#     Edge 142, Type (0, 0), BuildingBlock: OJICUG_clean_linker_0, # of connection points: 2
#     Edge 143, Type (0, 0), BuildingBlock: OJICUG_clean_linker_0, # of connection points: 2
#     Edge 144, Type (0, 0), BuildingBlock: OJICUG_clean_linker_0, # of connection points: 2
#     Edge 145, Type (0, 0), BuildingBlock: OJICUG_clean_linker_0, # of connection points: 2
#     Edge 146, Type (0, 0), BuildingBlock: OJICUG_clean_linker_0, # of connection points: 2
#     Edge 147, Type (0, 0), BuildingBlock: OJICUG_clean_linker_0, # of connection points: 2
#     Edge 148, Type (0, 0), BuildingBlock: OJICUG_clean_linker_0, # of connection points: 2
#     Edge 149, Type (0, 0), BuildingBlock: OJICUG_clean_linker_0, # of connection points: 2
#     Edge 150, Type (0, 0), BuildingBlock: OJICUG_clean_linker_0, # of connection points: 2
#     Edge 151, Type (0, 0), BuildingBlock: OJICUG_clean_linker_0, # of connection points: 2
#     Edge 152, Type (0, 0), BuildingBlock: OJICUG_clean_linker_0, # of connection points: 2
#     Edge 153, Type (0, 0), BuildingBlock: OJICUG_clean_linker_0, # of connection points: 2
#     Edge 154, Type (0, 0), BuildingBlock: OJICUG_clean_linker_0, # of connection points: 2
#     Edge 155, Type (0, 0), BuildingBlock: OJICUG_clean_linker_0, # of connection points: 2
#     Edge 156, Type (0, 0), BuildingBlock: OJICUG_clean_linker_0, # of connection points: 2
#     Edge 157, Type (0, 0), BuildingBlock: OJICUG_clean_linker_0, # of connection points: 2
#     Edge 158, Type (0, 0), BuildingBlock: OJICUG_clean_linker_0, # of connection points: 2
#     Edge 159, Type (0, 0), BuildingBlock: OJICUG_clean_linker_0, # of connection points: 2
#     Edge 160, Type (0, 0), BuildingBlock: OJICUG_clean_linker_0, # of connection points: 2
#     Edge 161, Type (0, 0), BuildingBlock: OJICUG_clean_linker_0, # of connection points: 2
#     Edge 162, Type (0, 0), BuildingBlock: OJICUG_clean_linker_0, # of connection points: 2
#     Edge 163, Type (0, 0), BuildingBlock: OJICUG_clean_linker_0, # of connection points: 2
#     Edge 164, Type (0, 0), BuildingBlock: OJICUG_clean_linker_0, # of connection points: 2
#     Edge 165, Type (0, 0), BuildingBlock: OJICUG_clean_linker_0, # of connection points: 2
#     Edge 166, Type (0, 0), BuildingBlock: OJICUG_clean_linker_0, # of connection points: 2
#     Edge 167, Type (0, 0), BuildingBlock: OJICUG_clean_linker_0, # of connection points: 2
#     Edge 168, Type (0, 0), BuildingBlock: OJICUG_clean_linker_0, # of connection points: 2
#     Edge 169, Type (0, 0), BuildingBlock: OJICUG_clean_linker_0, # of connection points: 2
#     Edge 170, Type (0, 0), BuildingBlock: OJICUG_clean_linker_0, # of connection points: 2
#     Edge 171, Type (0, 0), BuildingBlock: OJICUG_clean_linker_0, # of connection points: 2
#     Edge 172, Type (0, 0), BuildingBlock: OJICUG_clean_linker_0, # of connection points: 2
#     Edge 173, Type (0, 0), BuildingBlock: OJICUG_clean_linker_0, # of connection points: 2
#     Edge 174, Type (0, 0), BuildingBlock: OJICUG_clean_linker_0, # of connection points: 2
#     Edge 175, Type (0, 0), BuildingBlock: OJICUG_clean_linker_0, # of connection points: 2
#     Edge 176, Type (0, 0), BuildingBlock: OJICUG_clean_linker_0, # of connection points: 2
#     Edge 177, Type (0, 0), BuildingBlock: OJICUG_clean_linker_0, # of connection points: 2
#     Edge 178, Type (0, 0), BuildingBlock: OJICUG_clean_linker_0, # of connection points: 2
#     Edge 179, Type (0, 0), BuildingBlock: OJICUG_clean_linker_0, # of connection points: 2
#     Edge 180, Type (0, 0), BuildingBlock: OJICUG_clean_linker_0, # of connection points: 2
#     Edge 181, Type (0, 0), BuildingBlock: OJICUG_clean_linker_0, # of connection points: 2
#     Edge 182, Type (0, 0), BuildingBlock: OJICUG_clean_linker_0, # of connection points: 2
#     Edge 183, Type (0, 0), BuildingBlock: OJICUG_clean_linker_0, # of connection points: 2
#     Edge 184, Type (0, 0), BuildingBlock: OJICUG_clean_linker_0, # of connection points: 2
#     Edge 185, Type (0, 0), BuildingBlock: OJICUG_clean_linker_0, # of connection points: 2
#     Edge 186, Type (0, 0), BuildingBlock: OJICUG_clean_linker_0, # of connection points: 2
#     Edge 187, Type (0, 0), BuildingBlock: OJICUG_clean_linker_0, # of connection points: 2
#     Edge 188, Type (0, 0), BuildingBlock: OJICUG_clean_linker_0, # of connection points: 2
#     Edge 189, Type (0, 0), BuildingBlock: OJICUG_clean_linker_0, # of connection points: 2
#     Edge 190, Type (0, 0), BuildingBlock: OJICUG_clean_linker_0, # of connection points: 2
#     Edge 191, Type (0, 0), BuildingBlock: OJICUG_clean_linker_0, # of connection points: 2
#     Edge 192, Type (0, 0), BuildingBlock: OJICUG_clean_linker_0, # of connection points: 2
#     Edge 193, Type (0, 0), BuildingBlock: OJICUG_clean_linker_0, # of connection points: 2
#     Edge 194, Type (0, 0), BuildingBlock: OJICUG_clean_linker_0, # of connection points: 2
#     Edge 195, Type (0, 0), BuildingBlock: OJICUG_clean_linker_0, # of connection points: 2
#     Edge 196, Type (0, 0), BuildingBlock: OJICUG_clean_linker_0, # of connection points: 2
#     Edge 197, Type (0, 0), BuildingBlock: OJICUG_clean_linker_0, # of connection points: 2
#     Edge 198, Type (0, 0), BuildingBlock: OJICUG_clean_linker_0, # of connection points: 2
#     Edge 199, Type (0, 0), BuildingBlock: OJICUG_clean_linker_0, # of connection points: 2
#     Edge 200, Type (0, 0), BuildingBlock: OJICUG_clean_linker_0, # of connection points: 2
#     Edge 201, Type (0, 0), BuildingBlock: OJICUG_clean_linker_0, # of connection points: 2
#     Edge 202, Type (0, 0), BuildingBlock: OJICUG_clean_linker_0, # of connection points: 2
#     Edge 203, Type (0, 0), BuildingBlock: OJICUG_clean_linker_0, # of connection points: 2
#     Edge 204, Type (0, 0), BuildingBlock: OJICUG_clean_linker_0, # of connection points: 2
#     Edge 205, Type (0, 0), BuildingBlock: OJICUG_clean_linker_0, # of connection points: 2
#     Edge 206, Type (0, 0), BuildingBlock: OJICUG_clean_linker_0, # of connection points: 2
#     Edge 207, Type (0, 0), BuildingBlock: OJICUG_clean_linker_0, # of connection points: 2
#     Edge 208, Type (0, 0), BuildingBlock: OJICUG_clean_linker_0, # of connection points: 2
#     Edge 209, Type (0, 0), BuildingBlock: OJICUG_clean_linker_0, # of connection points: 2
#     Edge 210, Type (0, 0), BuildingBlock: OJICUG_clean_linker_0, # of connection points: 2
#     Edge 211, Type (0, 0), BuildingBlock: OJICUG_clean_linker_0, # of connection points: 2
#     Edge 212, Type (0, 0), BuildingBlock: OJICUG_clean_linker_0, # of connection points: 2
#     Edge 213, Type (0, 0), BuildingBlock: OJICUG_clean_linker_0, # of connection points: 2
#     Edge 214, Type (0, 0), BuildingBlock: OJICUG_clean_linker_0, # of connection points: 2
#     Edge 215, Type (0, 0), BuildingBlock: OJICUG_clean_linker_0, # of connection points: 2
#     Edge 216, Type (0, 0), BuildingBlock: OJICUG_clean_linker_0, # of connection points: 2
#     Edge 217, Type (0, 0), BuildingBlock: OJICUG_clean_linker_0, # of connection points: 2
#     Edge 218, Type (0, 0), BuildingBlock: OJICUG_clean_linker_0, # of connection points: 2
#     Edge 219, Type (0, 0), BuildingBlock: OJICUG_clean_linker_0, # of connection points: 2
#     Edge 220, Type (0, 0), BuildingBlock: OJICUG_clean_linker_0, # of connection points: 2
#     Edge 221, Type (0, 0), BuildingBlock: OJICUG_clean_linker_0, # of connection points: 2
#     Edge 222, Type (0, 0), BuildingBlock: OJICUG_clean_linker_0, # of connection points: 2
#     Edge 223, Type (0, 0), BuildingBlock: OJICUG_clean_linker_0, # of connection points: 2
#     Edge 224, Type (0, 0), BuildingBlock: OJICUG_clean_linker_0, # of connection points: 2
#     Edge 225, Type (0, 0), BuildingBlock: OJICUG_clean_linker_0, # of connection points: 2
#     Edge 226, Type (0, 0), BuildingBlock: OJICUG_clean_linker_0, # of connection points: 2
#     Edge 227, Type (0, 0), BuildingBlock: OJICUG_clean_linker_0, # of connection points: 2
#     Edge 228, Type (0, 0), BuildingBlock: OJICUG_clean_linker_0, # of connection points: 2
#     Edge 229, Type (0, 0), BuildingBlock: OJICUG_clean_linker_0, # of connection points: 2
#     Edge 230, Type (0, 0), BuildingBlock: OJICUG_clean_linker_0, # of connection points: 2
#     Edge 231, Type (0, 0), BuildingBlock: OJICUG_clean_linker_0, # of connection points: 2
#     Edge 232, Type (0, 0), BuildingBlock: OJICUG_clean_linker_0, # of connection points: 2
#     Edge 233, Type (0, 0), BuildingBlock: OJICUG_clean_linker_0, # of connection points: 2
#     Edge 234, Type (0, 0), BuildingBlock: OJICUG_clean_linker_0, # of connection points: 2
#     Edge 235, Type (0, 0), BuildingBlock: OJICUG_clean_linker_0, # of connection points: 2
#     Edge 236, Type (0, 0), BuildingBlock: OJICUG_clean_linker_0, # of connection points: 2
#     Edge 237, Type (0, 0), BuildingBlock: OJICUG_clean_linker_0, # of connection points: 2
#     Edge 238, Type (0, 0), BuildingBlock: OJICUG_clean_linker_0, # of connection points: 2
#     Edge 239, Type (0, 0), BuildingBlock: OJICUG_clean_linker_0, # of connection points: 2
#     Edge 240, Type (0, 0), BuildingBlock: OJICUG_clean_linker_0, # of connection points: 2
#     Edge 241, Type (0, 0), BuildingBlock: OJICUG_clean_linker_0, # of connection points: 2
#     Edge 242, Type (0, 0), BuildingBlock: OJICUG_clean_linker_0, # of connection points: 2
#     Edge 243, Type (0, 0), BuildingBlock: OJICUG_clean_linker_0, # of connection points: 2
#     Edge 244, Type (0, 0), BuildingBlock: OJICUG_clean_linker_0, # of connection points: 2
#     Edge 245, Type (0, 0), BuildingBlock: OJICUG_clean_linker_0, # of connection points: 2
#     Edge 246, Type (0, 0), BuildingBlock: OJICUG_clean_linker_0, # of connection points: 2
#     Edge 247, Type (0, 0), BuildingBlock: OJICUG_clean_linker_0, # of connection points: 2
#     Edge 248, Type (0, 0), BuildingBlock: OJICUG_clean_linker_0, # of connection points: 2
#     Edge 249, Type (0, 0), BuildingBlock: OJICUG_clean_linker_0, # of connection points: 2
#     Edge 250, Type (0, 0), BuildingBlock: OJICUG_clean_linker_0, # of connection points: 2
#     Edge 251, Type (0, 0), BuildingBlock: OJICUG_clean_linker_0, # of connection points: 2
#     Edge 252, Type (0, 0), BuildingBlock: OJICUG_clean_linker_0, # of connection points: 2
#     Edge 253, Type (0, 0), BuildingBlock: OJICUG_clean_linker_0, # of connection points: 2
#     Edge 254, Type (0, 0), BuildingBlock: OJICUG_clean_linker_0, # of connection points: 2
#     Edge 255, Type (0, 0), BuildingBlock: OJICUG_clean_linker_0, # of connection points: 2
#     Edge 256, Type (0, 0), BuildingBlock: OJICUG_clean_linker_0, # of connection points: 2
#     Edge 257, Type (0, 0), BuildingBlock: OJICUG_clean_linker_0, # of connection points: 2
#     Edge 258, Type (0, 0), BuildingBlock: OJICUG_clean_linker_0, # of connection points: 2
#     Edge 259, Type (0, 0), BuildingBlock: OJICUG_clean_linker_0, # of connection points: 2
#     Edge 260, Type (0, 0), BuildingBlock: OJICUG_clean_linker_0, # of connection points: 2
#     Edge 261, Type (0, 0), BuildingBlock: OJICUG_clean_linker_0, # of connection points: 2
#     Edge 262, Type (0, 0), BuildingBlock: OJICUG_clean_linker_0, # of connection points: 2
#     Edge 263, Type (0, 0), BuildingBlock: OJICUG_clean_linker_0, # of connection points: 2
#     Edge 264, Type (0, 0), BuildingBlock: OJICUG_clean_linker_0, # of connection points: 2
#     Edge 265, Type (0, 0), BuildingBlock: OJICUG_clean_linker_0, # of connection points: 2
#     Edge 266, Type (0, 0), BuildingBlock: OJICUG_clean_linker_0, # of connection points: 2
#     Edge 267, Type (0, 0), BuildingBlock: OJICUG_clean_linker_0, # of connection points: 2
#     Edge 268, Type (0, 0), BuildingBlock: OJICUG_clean_linker_0, # of connection points: 2
#     Edge 269, Type (0, 0), BuildingBlock: OJICUG_clean_linker_0, # of connection points: 2
#     Edge 270, Type (0, 0), BuildingBlock: OJICUG_clean_linker_0, # of connection points: 2
#     Edge 271, Type (0, 0), BuildingBlock: OJICUG_clean_linker_0, # of connection points: 2
#     Edge 272, Type (0, 0), BuildingBlock: OJICUG_clean_linker_0, # of connection points: 2
#     Edge 273, Type (0, 0), BuildingBlock: OJICUG_clean_linker_0, # of connection points: 2
#     Edge 274, Type (0, 0), BuildingBlock: OJICUG_clean_linker_0, # of connection points: 2
#     Edge 275, Type (0, 0), BuildingBlock: OJICUG_clean_linker_0, # of connection points: 2
#     Edge 276, Type (0, 0), BuildingBlock: OJICUG_clean_linker_0, # of connection points: 2
#     Edge 277, Type (0, 0), BuildingBlock: OJICUG_clean_linker_0, # of connection points: 2
#     Edge 278, Type (0, 0), BuildingBlock: OJICUG_clean_linker_0, # of connection points: 2
#     Edge 279, Type (0, 0), BuildingBlock: OJICUG_clean_linker_0, # of connection points: 2
#     Edge 280, Type (0, 0), BuildingBlock: OJICUG_clean_linker_0, # of connection points: 2
#     Edge 281, Type (0, 0), BuildingBlock: OJICUG_clean_linker_0, # of connection points: 2
#     Edge 282, Type (0, 0), BuildingBlock: OJICUG_clean_linker_0, # of connection points: 2
#     Edge 283, Type (0, 0), BuildingBlock: OJICUG_clean_linker_0, # of connection points: 2
#     Edge 284, Type (0, 0), BuildingBlock: OJICUG_clean_linker_0, # of connection points: 2
#     Edge 285, Type (0, 0), BuildingBlock: OJICUG_clean_linker_0, # of connection points: 2
#     Edge 286, Type (0, 0), BuildingBlock: OJICUG_clean_linker_0, # of connection points: 2
#     Edge 287, Type (0, 0), BuildingBlock: OJICUG_clean_linker_0, # of connection points: 2
# Relax obj value: 0.197
# Max RMSD: 0.230
# Mean RMSD: 0.230
data_MOF--net-ulh--node1-CEKHIL_clean_sbu_0--edge1-OJICUG_clean_linker_0
_symmetry_space_group_name_H-M    P1
_symmetry_Int_Tables_number       1
_symmetry_cell_setting            triclinic
loop_
_symmetry_equiv_pos_as_xyz
'x, y, z'
_cell_length_a     58.466871
_cell_length_b     58.469173
_cell_length_c     58.467981
_cell_angle_alpha  90.002877
_cell_angle_beta   89.995159
_cell_angle_gamma 89.998214
loop_
_atom_site_label
_atom_site_type_symbol
_atom_site_fract_x
_atom_site_fract_y
_atom_site_fract_z
_atom_type_partial_charge
Co0 Co 0.04063 0.31608 0.09163 0.0
O1 O 0.01834 0.29784 0.10709 0.0
O2 O 0.0512 0.28443 0.09377 0.0
C3 C 0.0407 0.34548 0.11679 0.0
O4 O 0.06764 0.3314 0.07552 0.0
Co5 Co 0.02295 0.36301 0.07299 0.0
O6 O 0.05584 0.3669 0.06564 0.0
C7 C 0.01239 0.32111 0.04766 0.0
C8 C 0.03214 0.28074 0.10473 0.0
C9 C 0.07121 0.35143 0.06687 0.0
O10 O 0.02595 0.30967 0.06075 0.0
O11 O 0.0068 0.34193 0.05136 0.0
O12 O 0.05253 0.32717 0.121 0.0
O13 O 0.02709 0.34391 0.09949 0.0
Co14 Co 0.93804 0.29119 0.34153 0.0
O15 O 0.95631 0.26874 0.35673 0.0
O16 O 0.96974 0.30165 0.34358 0.0
C17 C 0.90878 0.29119 0.36688 0.0
O18 O 0.92269 0.31833 0.32567 0.0
Co19 Co 0.89094 0.27369 0.3231 0.0
O20 O 0.88713 0.30662 0.31589 0.0
C21 C 0.93263 0.26334 0.29732 0.0
C22 C 0.97343 0.2825 0.35439 0.0
C23 C 0.90264 0.32195 0.3171 0.0
O24 O 0.94422 0.2767 0.31049 0.0
O25 O 0.91181 0.2578 0.30109 0.0
O26 O 0.92714 0.30293 0.37104 0.0
O27 O 0.91021 0.27767 0.34948 0.0
Co28 Co 0.96325 0.18811 0.59187 0.0
O29 O 0.98561 0.20628 0.60732 0.0
O30 O 0.95273 0.21977 0.59415 0.0
C31 C 0.96319 0.15867 0.617 0.0
O32 O 0.93618 0.17287 0.57579 0.0
Co33 Co 0.98081 0.14117 0.57312 0.0
O34 O 0.94791 0.13739 0.56577 0.0
C35 C 0.9913 0.18308 0.54776 0.0
C36 C 0.97182 0.2234 0.60509 0.0
C37 C 0.93258 0.15289 0.56706 0.0
O38 O 0.97786 0.19455 0.56095 0.0
O39 O 0.99686 0.16224 0.55141 0.0
O40 O 0.9514 0.17699 0.62125 0.0
O41 O 0.97676 0.16023 0.59966 0.0
Co42 Co 0.06526 0.21241 0.84293 0.0
O43 O 0.04685 0.2347 0.85821 0.0
O44 O 0.0336 0.20181 0.84481 0.0
C45 C 0.09444 0.2124 0.86834 0.0
O46 O 0.08074 0.18541 0.82697 0.0
Co47 Co 0.11234 0.23011 0.82469 0.0
O48 O 0.11631 0.19722 0.81737 0.0
C49 C 0.07067 0.24056 0.79893 0.0
C50 C 0.02979 0.22087 0.85572 0.0
C51 C 0.10083 0.18185 0.81847 0.0
O52 O 0.05911 0.22706 0.81196 0.0
O53 O 0.09146 0.24616 0.8028 0.0
O54 O 0.07612 0.20056 0.8724 0.0
O55 O 0.093 0.22599 0.85101 0.0
Co56 Co 0.04118 0.68845 0.91008 0.0
O57 O 0.01892 0.70674 0.89462 0.0
O58 O 0.05179 0.72008 0.90797 0.0
C59 C 0.0412 0.65909 0.88486 0.0
O60 O 0.06816 0.67307 0.92617 0.0
Co61 Co 0.02347 0.64149 0.92862 0.0
O62 O 0.05635 0.63756 0.93597 0.0
C63 C 0.01286 0.68335 0.954 0.0
C64 C 0.03275 0.72381 0.89699 0.0
C65 C 0.07172 0.65303 0.93478 0.0
O66 O 0.02645 0.69482 0.94097 0.0
O67 O 0.00728 0.66254 0.95024 0.0
O68 O 0.05308 0.67737 0.8807 0.0
O69 O 0.0276 0.66065 0.90217 0.0
Co70 Co 0.56464 0.29079 0.16032 0.0
O71 O 0.54624 0.26853 0.14502 0.0
O72 O 0.53299 0.30141 0.15842 0.0
C73 C 0.59385 0.29079 0.13492 0.0
O74 O 0.58016 0.31776 0.17631 0.0
Co75 Co 0.61166 0.27294 0.17859 0.0
O76 O 0.61569 0.30582 0.18593 0.0
C77 C 0.56994 0.26258 0.2043 0.0
C78 C 0.52918 0.28235 0.14751 0.0
C79 C 0.60027 0.32124 0.18482 0.0
O80 O 0.55844 0.27614 0.19127 0.0
O81 O 0.59071 0.25691 0.20044 0.0
O82 O 0.57554 0.30266 0.13086 0.0
O83 O 0.59238 0.27718 0.15224 0.0
Co84 Co 0.96209 0.81547 0.41104 0.0
O85 O 0.98432 0.79714 0.3956 0.0
O86 O 0.95155 0.78379 0.40919 0.0
C87 C 0.96189 0.84469 0.38566 0.0
O88 O 0.93516 0.8309 0.42718 0.0
Co89 Co 0.97985 0.86255 0.42924 0.0
O90 O 0.947 0.86648 0.43674 0.0
C91 C 0.9906 0.82085 0.45481 0.0
C92 C 0.97056 0.78004 0.39816 0.0
C93 C 0.93163 0.85099 0.43571 0.0
O94 O 0.97696 0.80931 0.4419 0.0
O95 O 0.99616 0.84164 0.45091 0.0
O96 O 0.95003 0.82635 0.38166 0.0
O97 O 0.97558 0.84325 0.40291 0.0
Co98 Co 0.43803 0.21208 0.66142 0.0
O99 O 0.45633 0.23439 0.64605 0.0
O100 O 0.4697 0.20151 0.65937 0.0
C101 C 0.40873 0.21203 0.63614 0.0
O102 O 0.42263 0.18507 0.67745 0.0
Co103 Co 0.39105 0.2298 0.67989 0.0
O104 O 0.38711 0.19691 0.68722 0.0
C105 C 0.43285 0.24029 0.70541 0.0
C106 C 0.47342 0.22059 0.64845 0.0
C107 C 0.40257 0.18153 0.68604 0.0
O108 O 0.44433 0.22674 0.69235 0.0
O109 O 0.41205 0.2459 0.70163 0.0
O110 O 0.42705 0.2002 0.63201 0.0
O111 O 0.41023 0.22563 0.65347 0.0
Co112 Co 0.09169 0.04011 0.3155 0.0
O113 O 0.10694 0.01766 0.29726 0.0
O114 O 0.0938 0.05057 0.28381 0.0
C115 C 0.11697 0.04011 0.3448 0.0
O116 O 0.0758 0.06727 0.33078 0.0
Co117 Co 0.07312 0.02272 0.36257 0.0
O118 O 0.06595 0.05566 0.36635 0.0
C119 C 0.04749 0.01224 0.32082 0.0
C120 C 0.10463 0.03143 0.28014 0.0
C121 C 0.06721 0.07096 0.35081 0.0
O122 O 0.06067 0.02561 0.30925 0.0
O123 O 0.05121 0.00673 0.34166 0.0
O124 O 0.12117 0.05185 0.32644 0.0
O125 O 0.09957 0.02661 0.34335 0.0
Co126 Co 0.2131 0.3413 0.56541 0.0
O127 O 0.23536 0.35654 0.54695 0.0
O128 O 0.20234 0.34335 0.53382 0.0
C129 C 0.21331 0.36666 0.59465 0.0
O130 O 0.18612 0.3254 0.58099 0.0
Co131 Co 0.23098 0.32289 0.61236 0.0
O132 O 0.19809 0.31566 0.61647 0.0
C133 C 0.24111 0.29719 0.57057 0.0
C134 C 0.22142 0.3542 0.52996 0.0
C135 C 0.18264 0.31685 0.60108 0.0
O136 O 0.2276 0.3103 0.55911 0.0
O137 O 0.24683 0.301 0.59134 0.0
O138 O 0.2014 0.37079 0.57639 0.0
O139 O 0.22684 0.34928 0.59312 0.0
Co140 Co 0.91141 0.46289 0.81484 0.0
O141 O 0.89626 0.48532 0.79653 0.0
O142 O 0.90937 0.45235 0.78317 0.0
C143 C 0.88603 0.46297 0.84407 0.0
O144 O 0.92721 0.43574 0.83022 0.0
Co145 Co 0.92985 0.48036 0.86193 0.0
O146 O 0.93696 0.44742 0.86579 0.0
C147 C 0.95565 0.49069 0.82024 0.0
C148 C 0.89858 0.4715 0.77944 0.0
C149 C 0.93573 0.43209 0.85028 0.0
O150 O 0.94247 0.47733 0.80866 0.0
O151 O 0.95187 0.49623 0.84106 0.0
O152 O 0.88188 0.45121 0.82572 0.0
O153 O 0.90346 0.47645 0.84265 0.0
Co154 Co 0.7904 0.16165 0.06444 0.0
O155 O 0.76808 0.14621 0.04621 0.0
O156 O 0.80097 0.15945 0.03279 0.0
C157 C 0.79045 0.13647 0.09383 0.0
O158 O 0.81742 0.17774 0.07975 0.0
Co159 Co 0.77273 0.18027 0.11139 0.0
O160 O 0.80562 0.18763 0.11525 0.0
C161 C 0.76219 0.20565 0.06952 0.0
C162 C 0.7819 0.14849 0.02912 0.0
C163 C 0.82099 0.1864 0.09978 0.0
O164 O 0.77573 0.19256 0.05804 0.0
O165 O 0.75661 0.20193 0.09034 0.0
O166 O 0.80228 0.13227 0.07552 0.0
O167 O 0.77686 0.15379 0.09228 0.0
Co168 Co 0.09169 0.96246 0.68851 0.0
O169 O 0.1067 0.98487 0.70699 0.0
O170 O 0.09363 0.95182 0.72015 0.0
C171 C 0.11722 0.96273 0.65941 0.0
O172 O 0.07603 0.93534 0.67293 0.0
Co173 Co 0.0735 0.98009 0.64137 0.0
O174 O 0.06643 0.94716 0.63736 0.0
C175 C 0.04741 0.99015 0.68295 0.0
C176 C 0.10434 0.97098 0.72402 0.0
C177 C 0.0676 0.93177 0.65281 0.0
O178 O 0.06056 0.97681 0.69458 0.0
O179 O 0.05129 0.99578 0.66218 0.0
O180 O 0.12131 0.95089 0.67773 0.0
O181 O 0.09976 0.97616 0.66081 0.0
Co182 Co 0.29084 0.34138 0.93823 0.0
O183 O 0.26844 0.35671 0.95646 0.0
O184 O 0.30136 0.34356 0.96989 0.0
C185 C 0.29085 0.36662 0.90888 0.0
O186 O 0.31794 0.32541 0.92292 0.0
Co187 Co 0.2733 0.32277 0.89123 0.0
O188 O 0.30622 0.31554 0.88739 0.0
C189 C 0.26285 0.29724 0.93304 0.0
C190 C 0.28225 0.35444 0.97356 0.0
C191 C 0.32155 0.31679 0.90289 0.0
O192 O 0.27627 0.3104 0.94456 0.0
O193 O 0.25731 0.30093 0.91221 0.0
O194 O 0.30263 0.37081 0.92722 0.0
O195 O 0.27731 0.34925 0.91038 0.0
Co196 Co 0.91119 0.5409 0.18704 0.0
O197 O 0.89605 0.5186 0.20553 0.0
O198 O 0.90916 0.55166 0.21863 0.0
C199 C 0.8858 0.54061 0.15784 0.0
O200 O 0.92698 0.56792 0.17143 0.0
Co201 Co 0.92959 0.52306 0.14006 0.0
O202 O 0.93669 0.55597 0.13593 0.0
C203 C 0.95543 0.51308 0.1818 0.0
C204 C 0.89837 0.53254 0.22251 0.0
C205 C 0.93547 0.57142 0.15132 0.0
O206 O 0.94226 0.52651 0.1933 0.0
O207 O 0.95164 0.50736 0.16103 0.0
O208 O 0.88166 0.5525 0.17611 0.0
O209 O 0.90322 0.52713 0.15934 0.0
Co210 Co 0.71272 0.16224 0.4372 0.0
O211 O 0.73513 0.14702 0.45549 0.0
O212 O 0.70218 0.16016 0.46887 0.0
C213 C 0.71279 0.13694 0.40791 0.0
O214 O 0.6856 0.17812 0.42182 0.0
Co215 Co 0.73027 0.18077 0.39016 0.0
O216 O 0.69733 0.18793 0.38628 0.0
C217 C 0.74062 0.20642 0.43193 0.0
C218 C 0.72132 0.14934 0.47259 0.0
C219 C 0.68199 0.18668 0.40177 0.0
O220 O 0.72721 0.19326 0.44346 0.0
O221 O 0.74619 0.20268 0.41111 0.0
O222 O 0.701 0.13275 0.42625 0.0
O223 O 0.72629 0.15434 0.40939 0.0
Co224 Co 0.31507 0.09122 0.04095 0.0
O225 O 0.29667 0.10655 0.0187 0.0
O226 O 0.28345 0.09321 0.05163 0.0
C227 C 0.34431 0.11658 0.0409 0.0
O228 O 0.33059 0.07523 0.06791 0.0
Co229 Co 0.36205 0.07286 0.02308 0.0
O230 O 0.36609 0.06553 0.05595 0.0
C231 C 0.32028 0.04719 0.01278 0.0
C232 C 0.27964 0.10414 0.03258 0.0
C233 C 0.35067 0.06667 0.07138 0.0
O234 O 0.3088 0.06027 0.02632 0.0
O235 O 0.34106 0.051 0.00712 0.0
O236 O 0.32602 0.12066 0.05278 0.0
O237 O 0.34282 0.09925 0.02731 0.0
Co238 Co 0.81465 0.91153 0.46291 0.0
O239 O 0.79636 0.89647 0.48544 0.0
O240 O 0.78297 0.90939 0.45241 0.0
C241 C 0.84392 0.88619 0.4631 0.0
O242 O 0.83 0.92724 0.43569 0.0
Co243 Co 0.86174 0.93008 0.48031 0.0
O244 O 0.86554 0.93715 0.44735 0.0
C245 C 0.82004 0.95595 0.49043 0.0
C246 C 0.77926 0.8987 0.47162 0.0
C247 C 0.85004 0.93584 0.43202 0.0
O248 O 0.80844 0.94266 0.47719 0.0
O249 O 0.84086 0.95222 0.496 0.0
O250 O 0.82557 0.88196 0.45136 0.0
O251 O 0.84247 0.90367 0.4765 0.0
Co252 Co 0.34203 0.0645 0.71332 0.0
O253 O 0.35735 0.04618 0.73565 0.0
O254 O 0.34406 0.03284 0.70276 0.0
C255 C 0.36736 0.09377 0.7133 0.0
O256 O 0.32607 0.07987 0.68626 0.0
Co257 Co 0.32359 0.11154 0.7309 0.0
O258 O 0.31631 0.11542 0.69799 0.0
C259 C 0.29797 0.06979 0.7414 0.0
C260 C 0.35496 0.0291 0.72184 0.0
C261 C 0.3175 0.09992 0.68265 0.0
O262 O 0.31106 0.05825 0.72793 0.0
O263 O 0.30175 0.09061 0.74695 0.0
O264 O 0.37149 0.07545 0.70149 0.0
O265 O 0.35 0.0923 0.72686 0.0
Co266 Co 0.1888 0.59265 0.96203 0.0
O267 O 0.20717 0.60795 0.98432 0.0
O268 O 0.22045 0.59463 0.95141 0.0
C269 C 0.15954 0.61799 0.96206 0.0
O270 O 0.17333 0.57666 0.93503 0.0
Co271 Co 0.14179 0.57427 0.97981 0.0
O272 O 0.13782 0.56692 0.94693 0.0
C273 C 0.18354 0.54857 0.99011 0.0
C274 C 0.22423 0.60553 0.97048 0.0
C275 C 0.15327 0.56807 0.93153 0.0
O276 O 0.19505 0.56168 0.97663 0.0
O277 O 0.16274 0.55237 0.99574 0.0
O278 O 0.17784 0.6221 0.9502 0.0
O279 O 0.16104 0.60065 0.97564 0.0
Co280 Co 0.16042 0.93729 0.21317 0.0
O281 O 0.14514 0.95566 0.23549 0.0
O282 O 0.15846 0.96895 0.20258 0.0
C283 C 0.13505 0.90807 0.21315 0.0
O284 O 0.17636 0.92183 0.18614 0.0
Co285 Co 0.17876 0.89026 0.23088 0.0
O286 O 0.186 0.88628 0.19798 0.0
C287 C 0.20447 0.93197 0.24127 0.0
C288 C 0.14756 0.97272 0.22167 0.0
C289 C 0.18486 0.90174 0.18259 0.0
O290 O 0.1914 0.9435 0.22777 0.0
O291 O 0.20064 0.91118 0.24689 0.0
O292 O 0.13095 0.92641 0.20134 0.0
O293 O 0.15239 0.90953 0.22674 0.0
Co294 Co 0.68883 0.91011 0.04032 0.0
O295 O 0.70728 0.89475 0.01812 0.0
O296 O 0.72045 0.9082 0.05102 0.0
C297 C 0.6596 0.88473 0.04029 0.0
O298 O 0.67329 0.92616 0.06723 0.0
Co299 Co 0.64183 0.92838 0.02242 0.0
O300 O 0.63779 0.93583 0.05527 0.0
C301 C 0.68356 0.95408 0.01208 0.0
C302 C 0.7243 0.89724 0.03199 0.0
C303 C 0.65322 0.93473 0.07069 0.0
O304 O 0.69507 0.94104 0.02563 0.0
O305 O 0.66279 0.95021 0.00641 0.0
O306 O 0.67788 0.88068 0.0522 0.0
O307 O 0.66111 0.90203 0.02667 0.0
Co308 Co 0.34283 0.43757 0.79081 0.0
O309 O 0.35817 0.456 0.76859 0.0
O310 O 0.34472 0.46921 0.80147 0.0
C311 C 0.36821 0.40836 0.79081 0.0
O312 O 0.32679 0.42202 0.81773 0.0
Co313 Co 0.32457 0.39057 0.7729 0.0
O314 O 0.3172 0.3865 0.80576 0.0
C315 C 0.29888 0.4323 0.76253 0.0
C316 C 0.35567 0.47304 0.78243 0.0
C317 C 0.31828 0.40192 0.82119 0.0
O318 O 0.3119 0.44379 0.77612 0.0
O319 O 0.30275 0.41153 0.75687 0.0
O320 O 0.37226 0.42665 0.8027 0.0
O321 O 0.35092 0.40985 0.77718 0.0
Co322 Co 0.66106 0.06589 0.28979 0.0
O323 O 0.64585 0.04738 0.26756 0.0
O324 O 0.65924 0.03427 0.3005 0.0
C325 C 0.63558 0.09502 0.2897 0.0
O326 O 0.67697 0.08152 0.31674 0.0
Co327 Co 0.67921 0.11295 0.27191 0.0
O328 O 0.68651 0.11705 0.30478 0.0
C329 C 0.70509 0.0713 0.26167 0.0
C330 C 0.64836 0.03038 0.28144 0.0
C331 C 0.68543 0.10164 0.32021 0.0
O332 O 0.69205 0.05976 0.2752 0.0
O333 O 0.70118 0.09205 0.25598 0.0
O334 O 0.63156 0.07672 0.3016 0.0
O335 O 0.65292 0.09358 0.27611 0.0
Co336 Co 0.04084 0.81495 0.59177 0.0
O337 O 0.01848 0.7965 0.60686 0.0
O338 O 0.05146 0.7833 0.59363 0.0
C339 C 0.04068 0.84406 0.61728 0.0
O340 O 0.06792 0.8305 0.576 0.0
Co341 Co 0.0232 0.86208 0.57359 0.0
O342 O 0.05612 0.86608 0.56644 0.0
C343 C 0.01292 0.82048 0.54763 0.0
C344 C 0.03233 0.77946 0.60442 0.0
C345 C 0.07149 0.85062 0.56758 0.0
O346 O 0.02635 0.80887 0.5607 0.0
O347 O 0.00732 0.84127 0.55152 0.0
O348 O 0.05253 0.82574 0.62134 0.0
O349 O 0.02719 0.84266 0.59986 0.0
Co350 Co 0.93877 0.79073 0.84126 0.0
O351 O 0.95724 0.7684 0.8564 0.0
O352 O 0.97039 0.80141 0.8432 0.0
C353 C 0.9096 0.79052 0.86672 0.0
O354 O 0.92321 0.81777 0.82545 0.0
Co355 Co 0.89172 0.77298 0.82298 0.0
O356 O 0.88768 0.80588 0.81577 0.0
C357 C 0.9334 0.76281 0.7971 0.0
C358 C 0.97425 0.78229 0.85399 0.0
C359 C 0.90312 0.82129 0.81694 0.0
O360 O 0.94494 0.77626 0.81021 0.0
O361 O 0.91262 0.75716 0.80095 0.0
O362 O 0.9279 0.8024 0.87081 0.0
O363 O 0.91106 0.77703 0.84931 0.0
Co364 Co 0.96231 0.68854 0.09072 0.0
O365 O 0.98459 0.70688 0.10608 0.0
O366 O 0.95163 0.72015 0.09288 0.0
C367 C 0.9624 0.65922 0.11599 0.0
O368 O 0.93531 0.67309 0.07473 0.0
Co369 Co 0.98007 0.64158 0.0722 0.0
O370 O 0.94717 0.63758 0.06495 0.0
C371 C 0.99048 0.68343 0.0467 0.0
C372 C 0.9707 0.72391 0.10381 0.0
C373 C 0.93177 0.65302 0.06616 0.0
O374 O 0.97692 0.6949 0.05978 0.0
O375 O 0.99611 0.66264 0.05047 0.0
O376 O 0.95052 0.6775 0.12015 0.0
O377 O 0.97596 0.66077 0.09863 0.0
Co378 Co 0.06476 0.71324 0.34261 0.0
O379 O 0.04631 0.73543 0.35798 0.0
O380 O 0.03317 0.70248 0.34463 0.0
C381 C 0.09406 0.71335 0.36791 0.0
O382 O 0.08034 0.68635 0.32657 0.0
Co383 Co 0.11163 0.7313 0.32416 0.0
O384 O 0.11577 0.69844 0.31679 0.0
C385 C 0.06978 0.7414 0.29855 0.0
C386 C 0.02931 0.72153 0.35556 0.0
C387 C 0.10042 0.68295 0.31796 0.0
O388 O 0.05838 0.72784 0.31168 0.0
O389 O 0.09055 0.74716 0.30232 0.0
O390 O 0.07581 0.70143 0.37203 0.0
O391 O 0.09248 0.72696 0.3506 0.0
Co392 Co 0.04029 0.18841 0.41052 0.0
O393 O 0.01794 0.20674 0.39525 0.0
O394 O 0.05094 0.22004 0.40831 0.0
C395 C 0.0401 0.15903 0.38532 0.0
O396 O 0.06736 0.17299 0.42643 0.0
Co397 Co 0.02258 0.14149 0.42919 0.0
O398 O 0.0555 0.13753 0.43638 0.0
C399 C 0.01246 0.18335 0.45478 0.0
C400 C 0.03181 0.22379 0.39749 0.0
C401 C 0.0709 0.15295 0.43508 0.0
O402 O 0.02587 0.19482 0.44155 0.0
O403 O 0.0068 0.16255 0.45109 0.0
O404 O 0.05195 0.1773 0.38106 0.0
O405 O 0.02661 0.16063 0.40272 0.0
Co406 Co 0.56476 0.78999 0.66106 0.0
O407 O 0.54637 0.76783 0.64559 0.0
O408 O 0.53316 0.80071 0.65905 0.0
C409 C 0.59408 0.79001 0.63578 0.0
O410 O 0.58026 0.81686 0.6772 0.0
Co411 Co 0.61167 0.77202 0.67948 0.0
O412 O 0.61573 0.80486 0.68696 0.0
C413 C 0.56983 0.76165 0.70498 0.0
C414 C 0.52935 0.78171 0.64803 0.0
C415 C 0.60032 0.8203 0.68583 0.0
O416 O 0.55839 0.77525 0.69194 0.0
O417 O 0.59061 0.75597 0.70119 0.0
O418 O 0.57581 0.80192 0.63169 0.0
O419 O 0.59252 0.77634 0.65305 0.0
Co420 Co 0.96248 0.31503 0.91075 0.0
O421 O 0.98482 0.2966 0.89558 0.0
O422 O 0.95185 0.28339 0.90883 0.0
C423 C 0.96264 0.34421 0.88533 0.0
O424 O 0.93543 0.33055 0.92659 0.0
Co425 Co 0.98014 0.36212 0.92904 0.0
O426 O 0.94723 0.3661 0.93625 0.0
C427 C 0.99048 0.32045 0.95483 0.0
C428 C 0.97097 0.27956 0.89801 0.0
C429 C 0.93185 0.35064 0.93509 0.0
O430 O 0.977 0.30888 0.94178 0.0
O431 O 0.9961 0.34123 0.95096 0.0
O432 O 0.95077 0.32591 0.88122 0.0
O433 O 0.97614 0.34275 0.90273 0.0
Co434 Co 0.43832 0.7124 0.16144 0.0
O435 O 0.45669 0.73485 0.14636 0.0
O436 O 0.46999 0.70186 0.15946 0.0
C437 C 0.40915 0.71254 0.136 0.0
O438 O 0.4229 0.68524 0.17718 0.0
Co439 Co 0.39117 0.72987 0.17978 0.0
O440 O 0.38732 0.69693 0.18692 0.0
C441 C 0.4328 0.74011 0.20572 0.0
C442 C 0.47377 0.72102 0.14872 0.0
C443 C 0.40283 0.6816 0.1857 0.0
O444 O 0.44443 0.7268 0.19254 0.0
O445 O 0.41199 0.74566 0.20191 0.0
O446 O 0.4275 0.70076 0.13187 0.0
O447 O 0.41054 0.72599 0.15345 0.0
Co448 Co 0.09272 0.54035 0.81467 0.0
O449 O 0.10796 0.51793 0.7964 0.0
O450 O 0.09472 0.55082 0.78298 0.0
C451 C 0.1181 0.54041 0.84389 0.0
O452 O 0.07682 0.56746 0.83001 0.0
Co453 Co 0.07436 0.5229 0.86181 0.0
O454 O 0.06715 0.55583 0.86562 0.0
C455 C 0.04862 0.51235 0.82015 0.0
C456 C 0.10559 0.53171 0.77929 0.0
C457 C 0.06832 0.57113 0.85008 0.0
O458 O 0.06171 0.52576 0.80854 0.0
O459 O 0.05245 0.50684 0.84097 0.0
O460 O 0.12221 0.55216 0.82552 0.0
O461 O 0.10072 0.52686 0.8425 0.0
Co462 Co 0.21199 0.84123 0.06547 0.0
O463 O 0.23429 0.85663 0.04719 0.0
O464 O 0.20142 0.8433 0.03382 0.0
C465 C 0.21195 0.86648 0.09479 0.0
O466 O 0.18498 0.82517 0.08082 0.0
Co467 Co 0.22963 0.82271 0.11246 0.0
O468 O 0.19674 0.81537 0.11635 0.0
C469 C 0.2402 0.79724 0.07064 0.0
C470 C 0.22048 0.85426 0.0301 0.0
C471 C 0.18139 0.81656 0.10086 0.0
O472 O 0.22668 0.81032 0.05913 0.0
O473 O 0.24574 0.80098 0.09146 0.0
O474 O 0.20011 0.87063 0.07649 0.0
O475 O 0.22554 0.84915 0.09328 0.0
Co476 Co 0.91024 0.96313 0.31495 0.0
O477 O 0.8951 0.98555 0.2966 0.0
O478 O 0.90829 0.95261 0.28327 0.0
C479 C 0.88483 0.96321 0.34415 0.0
O480 O 0.92604 0.93601 0.3304 0.0
Co481 Co 0.92856 0.9807 0.36207 0.0
O482 O 0.93573 0.94778 0.36597 0.0
C483 C 0.95445 0.99096 0.32043 0.0
C484 C 0.89751 0.97175 0.27951 0.0
C485 C 0.93455 0.93242 0.35048 0.0
O486 O 0.9413 0.97759 0.30883 0.0
O487 O 0.95061 0.99656 0.34122 0.0
O488 O 0.8807 0.95142 0.32581 0.0
O489 O 0.90223 0.97671 0.34272 0.0
Co490 Co 0.79023 0.66086 0.56494 0.0
O491 O 0.76785 0.64555 0.54668 0.0
O492 O 0.80077 0.65873 0.53329 0.0
C493 C 0.7902 0.63561 0.59428 0.0
O494 O 0.81731 0.67681 0.58027 0.0
Co495 Co 0.77269 0.67943 0.61197 0.0
O496 O 0.8056 0.68668 0.61581 0.0
C497 C 0.76223 0.70497 0.57017 0.0
C498 C 0.78167 0.64785 0.52959 0.0
C499 C 0.82094 0.68543 0.60031 0.0
O500 O 0.77567 0.69184 0.55864 0.0
O501 O 0.75666 0.70123 0.59099 0.0
O502 O 0.802 0.63141 0.57596 0.0
O503 O 0.77667 0.65299 0.59276 0.0
Co504 Co 0.09259 0.46392 0.18713 0.0
O505 O 0.10785 0.48621 0.20555 0.0
O506 O 0.09451 0.45328 0.21877 0.0
C507 C 0.11798 0.46394 0.15792 0.0
O508 O 0.07666 0.43691 0.17165 0.0
Co509 Co 0.07428 0.48163 0.14008 0.0
O510 O 0.06699 0.44874 0.1361 0.0
C511 C 0.04852 0.49199 0.18178 0.0
C512 C 0.1054 0.47235 0.22259 0.0
C513 C 0.06813 0.43336 0.15157 0.0
O514 O 0.06161 0.47851 0.19332 0.0
O515 O 0.05237 0.49761 0.16099 0.0
O516 O 0.12206 0.45211 0.17624 0.0
O517 O 0.10064 0.47753 0.15938 0.0
Co518 Co 0.29044 0.84232 0.43882 0.0
O519 O 0.26823 0.85772 0.4572 0.0
O520 O 0.30118 0.84445 0.47042 0.0
C521 C 0.29033 0.86754 0.40947 0.0
O522 O 0.31739 0.82626 0.42333 0.0
Co523 Co 0.27256 0.82378 0.39192 0.0
O524 O 0.30543 0.81642 0.38788 0.0
C525 C 0.26227 0.79829 0.4338 0.0
C526 C 0.28213 0.85541 0.47422 0.0
C527 C 0.32086 0.81763 0.40328 0.0
O528 O 0.27583 0.81138 0.44524 0.0
O529 O 0.25659 0.80205 0.41301 0.0
O530 O 0.30225 0.87172 0.42771 0.0
O531 O 0.27675 0.85021 0.41108 0.0
Co532 Co 0.91067 0.04043 0.68716 0.0
O533 O 0.89506 0.01824 0.70541 0.0
O534 O 0.90864 0.05099 0.71883 0.0
C535 C 0.88547 0.0407 0.65779 0.0
O536 O 0.92694 0.06733 0.67183 0.0
Co537 Co 0.92915 0.02264 0.64021 0.0
O538 O 0.93667 0.05549 0.63631 0.0
C539 C 0.95448 0.01191 0.68206 0.0
C540 C 0.89753 0.03202 0.72251 0.0
C541 C 0.93557 0.07085 0.65179 0.0
O542 O 0.94147 0.02553 0.69353 0.0
O543 O 0.95073 0.00636 0.66124 0.0
O544 O 0.88138 0.05254 0.67611 0.0
O545 O 0.90268 0.02696 0.65932 0.0
Co546 Co 0.71232 0.66138 0.93804 0.0
O547 O 0.73461 0.64606 0.9564 0.0
O548 O 0.70169 0.65937 0.96968 0.0
C549 C 0.71236 0.63603 0.9088 0.0
O550 O 0.6853 0.67735 0.92261 0.0
Co551 Co 0.72998 0.67976 0.891 0.0
O552 O 0.69708 0.68703 0.88705 0.0
C553 C 0.74052 0.70535 0.93276 0.0
C554 C 0.72075 0.64845 0.97345 0.0
C555 C 0.68172 0.68587 0.90253 0.0
O556 O 0.72697 0.69233 0.94429 0.0
O557 O 0.74609 0.70153 0.91195 0.0
O558 O 0.70049 0.63193 0.9271 0.0
O559 O 0.72592 0.65338 0.91028 0.0
Co560 Co 0.31453 0.59198 0.54072 0.0
O561 O 0.29616 0.60716 0.51833 0.0
O562 O 0.28287 0.59402 0.55131 0.0
C563 C 0.34376 0.61736 0.54059 0.0
O564 O 0.33 0.57615 0.5678 0.0
Co565 Co 0.36158 0.57359 0.52307 0.0
O566 O 0.36554 0.56642 0.55599 0.0
C567 C 0.31987 0.54784 0.51277 0.0
C568 C 0.2791 0.60481 0.53217 0.0
C569 C 0.35008 0.56762 0.57137 0.0
O570 O 0.30833 0.56095 0.52623 0.0
O571 O 0.34066 0.55167 0.50714 0.0
O572 O 0.32544 0.6215 0.55241 0.0
O573 O 0.34229 0.59996 0.52709 0.0
Co574 Co 0.81478 0.41114 0.96203 0.0
O575 O 0.7963 0.39584 0.98423 0.0
O576 O 0.78317 0.4092 0.95128 0.0
C577 C 0.844 0.38576 0.96215 0.0
O578 O 0.83038 0.42712 0.93511 0.0
Co579 Co 0.86173 0.42945 0.98002 0.0
O580 O 0.86587 0.43678 0.94715 0.0
C581 C 0.81996 0.45514 0.99024 0.0
C582 C 0.7793 0.39829 0.97033 0.0
C583 C 0.85049 0.43566 0.93168 0.0
O584 O 0.8085 0.4421 0.97664 0.0
O585 O 0.84071 0.45129 0.99596 0.0
O586 O 0.82574 0.38169 0.95022 0.0
O587 O 0.84247 0.40309 0.97574 0.0
Co588 Co 0.34232 0.56467 0.21268 0.0
O589 O 0.35731 0.54626 0.23516 0.0
O590 O 0.34426 0.533 0.20213 0.0
C591 C 0.3678 0.59379 0.2129 0.0
O592 O 0.32667 0.58013 0.18549 0.0
Co593 Co 0.32406 0.61187 0.23011 0.0
O594 O 0.31701 0.61574 0.19716 0.0
C595 C 0.29801 0.5703 0.24032 0.0
C596 C 0.35495 0.52919 0.22132 0.0
C597 C 0.31822 0.60022 0.18183 0.0
O598 O 0.31117 0.55863 0.22702 0.0
O599 O 0.30188 0.5911 0.24588 0.0
O600 O 0.37194 0.57545 0.20111 0.0
O601 O 0.35033 0.59241 0.22631 0.0
Co602 Co 0.18781 0.09239 0.46278 0.0
O603 O 0.20619 0.10785 0.48495 0.0
O604 O 0.21948 0.09417 0.45219 0.0
C605 C 0.15862 0.1178 0.46255 0.0
O606 O 0.17233 0.07621 0.43591 0.0
Co607 Co 0.14077 0.07426 0.48067 0.0
O608 O 0.13677 0.0667 0.44784 0.0
C609 C 0.18246 0.04866 0.49137 0.0
C610 C 0.22327 0.10522 0.47118 0.0
C611 C 0.15223 0.06769 0.43244 0.0
O612 O 0.19398 0.06156 0.47769 0.0
O613 O 0.16168 0.05258 0.49697 0.0
O614 O 0.17694 0.12176 0.45068 0.0
O615 O 0.16006 0.10058 0.47629 0.0
Co616 Co 0.16182 0.43758 0.71291 0.0
O617 O 0.14656 0.45606 0.73515 0.0
O618 O 0.15981 0.46917 0.70214 0.0
C619 C 0.13646 0.40835 0.7131 0.0
O620 O 0.17774 0.42201 0.68594 0.0
Co621 Co 0.1802 0.39061 0.73077 0.0
O622 O 0.18745 0.38652 0.69788 0.0
C623 C 0.20593 0.43238 0.74093 0.0
C624 C 0.14893 0.47304 0.72121 0.0
C625 C 0.18627 0.40192 0.68245 0.0
O626 O 0.19282 0.44387 0.72744 0.0
O627 O 0.20212 0.4116 0.74662 0.0
O628 O 0.13235 0.42661 0.70118 0.0
O629 O 0.15383 0.40988 0.72664 0.0
Co630 Co 0.68782 0.4107 0.54056 0.0
O631 O 0.7062 0.39539 0.51827 0.0
O632 O 0.7195 0.40886 0.55111 0.0
C633 C 0.65863 0.38529 0.54065 0.0
O634 O 0.67236 0.42671 0.56754 0.0
Co635 Co 0.64074 0.42892 0.52283 0.0
O636 O 0.63679 0.4363 0.55571 0.0
C637 C 0.68241 0.45465 0.51232 0.0
C638 C 0.72328 0.39793 0.53205 0.0
C639 C 0.65227 0.43522 0.57108 0.0
O640 O 0.69397 0.44164 0.52585 0.0
O641 O 0.66162 0.45077 0.50672 0.0
O642 O 0.67697 0.38125 0.55248 0.0
O643 O 0.66006 0.4026 0.52702 0.0
Co644 Co 0.34171 0.93744 0.29051 0.0
O645 O 0.35694 0.95568 0.26805 0.0
O646 O 0.3439 0.9691 0.30101 0.0
C647 C 0.36699 0.90812 0.29043 0.0
O648 O 0.32588 0.92215 0.31769 0.0
Co649 Co 0.32311 0.89036 0.27314 0.0
O650 O 0.31601 0.88658 0.3061 0.0
C651 C 0.29744 0.93212 0.26276 0.0
C652 C 0.35472 0.97278 0.28187 0.0
C653 C 0.3173 0.90212 0.32139 0.0
O654 O 0.31066 0.9437 0.27608 0.0
O655 O 0.30115 0.91128 0.25726 0.0
O656 O 0.37121 0.92647 0.30218 0.0
O657 O 0.34956 0.90959 0.27697 0.0
Co658 Co 0.66107 0.56513 0.79038 0.0
O659 O 0.6459 0.54673 0.76801 0.0
O660 O 0.65909 0.53348 0.80099 0.0
C661 C 0.63564 0.59431 0.79028 0.0
O662 O 0.67689 0.58062 0.81746 0.0
Co663 Co 0.67938 0.6122 0.77272 0.0
O664 O 0.68654 0.61618 0.80564 0.0
C665 C 0.70525 0.57054 0.76248 0.0
C666 C 0.64827 0.52968 0.78187 0.0
C667 C 0.68537 0.60072 0.82102 0.0
O668 O 0.69212 0.55896 0.77589 0.0
O669 O 0.70142 0.59133 0.75687 0.0
O670 O 0.63154 0.57598 0.8021 0.0
O671 O 0.65304 0.59288 0.77676 0.0
Co672 Co 0.54032 0.3147 0.59265 0.0
O673 O 0.51801 0.29633 0.60793 0.0
O674 O 0.55096 0.28307 0.59469 0.0
C675 C 0.54022 0.34398 0.61797 0.0
O676 O 0.56735 0.33016 0.57671 0.0
Co677 Co 0.52261 0.36171 0.5742 0.0
O678 O 0.55551 0.36567 0.56693 0.0
C679 C 0.51229 0.31994 0.54855 0.0
C680 C 0.53187 0.27928 0.60556 0.0
C681 C 0.5709 0.35021 0.56813 0.0
O682 O 0.52577 0.30842 0.56166 0.0
O683 O 0.50666 0.34073 0.55234 0.0
O684 O 0.55208 0.32569 0.62212 0.0
O685 O 0.52668 0.34246 0.6006 0.0
Co686 Co 0.43865 0.28982 0.84252 0.0
O687 O 0.457 0.26743 0.8577 0.0
O688 O 0.4703 0.30041 0.84457 0.0
C689 C 0.40941 0.28968 0.86789 0.0
O690 O 0.42321 0.31692 0.82669 0.0
Co691 Co 0.39157 0.27225 0.82411 0.0
O692 O 0.38767 0.30517 0.81691 0.0
C693 C 0.43329 0.26196 0.79833 0.0
C694 C 0.47407 0.28127 0.85536 0.0
C695 C 0.40316 0.32053 0.81814 0.0
O696 O 0.44486 0.27536 0.81147 0.0
O697 O 0.41248 0.25637 0.80213 0.0
O698 O 0.42772 0.3015 0.87204 0.0
O699 O 0.41088 0.2762 0.85047 0.0
Co700 Co 0.46231 0.18786 0.09258 0.0
O701 O 0.48449 0.20638 0.10786 0.0
O702 O 0.45154 0.21946 0.09445 0.0
C703 C 0.46246 0.15867 0.11799 0.0
O704 O 0.4354 0.17222 0.07661 0.0
Co705 Co 0.4803 0.14088 0.07434 0.0
O706 O 0.44744 0.13672 0.06702 0.0
C707 C 0.49055 0.18261 0.04861 0.0
C708 C 0.47059 0.22337 0.10536 0.0
C709 C 0.43197 0.1521 0.06812 0.0
O710 O 0.47693 0.19409 0.06162 0.0
O711 O 0.49627 0.16187 0.0525 0.0
O712 O 0.45051 0.17692 0.12205 0.0
O713 O 0.47605 0.1602 0.10066 0.0
Co714 Co 0.56472 0.21325 0.34148 0.0
O715 O 0.5463 0.23553 0.35673 0.0
O716 O 0.53314 0.20249 0.34363 0.0
C717 C 0.59403 0.2135 0.36677 0.0
O718 O 0.58024 0.18623 0.32558 0.0
Co719 Co 0.61166 0.23106 0.32294 0.0
O720 O 0.6157 0.19816 0.31571 0.0
C721 C 0.56982 0.24115 0.29728 0.0
C722 C 0.52931 0.22159 0.35447 0.0
C723 C 0.6003 0.18273 0.31697 0.0
O724 O 0.55835 0.22769 0.31046 0.0
O725 O 0.59061 0.24684 0.30103 0.0
O726 O 0.57578 0.2016 0.37096 0.0
O727 O 0.59245 0.227 0.34936 0.0
Co728 Co 0.54021 0.68785 0.41115 0.0
O729 O 0.51796 0.70624 0.39581 0.0
O730 O 0.55085 0.71948 0.40921 0.0
C731 C 0.54022 0.65862 0.38577 0.0
O732 O 0.56717 0.67237 0.42716 0.0
Co733 Co 0.52243 0.64082 0.42945 0.0
O734 O 0.55531 0.63683 0.43681 0.0
C735 C 0.51195 0.68255 0.4551 0.0
C736 C 0.5318 0.72328 0.39827 0.0
C737 C 0.5707 0.65229 0.43569 0.0
O738 O 0.52552 0.69407 0.44208 0.0
O739 O 0.50634 0.66177 0.45125 0.0
O740 O 0.55209 0.67693 0.38171 0.0
O741 O 0.52661 0.6601 0.40309 0.0
Co742 Co 0.06563 0.28994 0.66175 0.0
O743 O 0.04722 0.2676 0.64655 0.0
O744 O 0.03402 0.30063 0.65967 0.0
C745 C 0.09488 0.28973 0.6364 0.0
O746 O 0.08114 0.31699 0.67759 0.0
Co747 Co 0.11262 0.2722 0.68021 0.0
O748 O 0.11665 0.30511 0.68737 0.0
C749 C 0.07084 0.26206 0.70594 0.0
C750 C 0.0302 0.28151 0.64886 0.0
C751 C 0.10122 0.32052 0.68614 0.0
O752 O 0.05934 0.2755 0.69278 0.0
O753 O 0.09163 0.25639 0.70218 0.0
O754 O 0.07659 0.30159 0.63224 0.0
O755 O 0.09338 0.27624 0.65381 0.0
Co756 Co 0.46212 0.81401 0.91168 0.0
O757 O 0.48443 0.7957 0.89632 0.0
O758 O 0.45155 0.78235 0.90965 0.0
C759 C 0.46208 0.84327 0.88635 0.0
O760 O 0.4351 0.8294 0.9277 0.0
Co761 Co 0.47976 0.86107 0.93005 0.0
O762 O 0.44687 0.86496 0.9374 0.0
C763 C 0.49035 0.81933 0.95563 0.0
C764 C 0.47061 0.77862 0.8987 0.0
C765 C 0.43152 0.84946 0.93626 0.0
O766 O 0.47681 0.80777 0.94262 0.0
O767 O 0.4959 0.84013 0.9518 0.0
O768 O 0.45023 0.82496 0.88225 0.0
O769 O 0.47566 0.8418 0.90368 0.0
Co770 Co 0.93795 0.21376 0.16027 0.0
O771 O 0.95633 0.23606 0.145 0.0
O772 O 0.9696 0.20316 0.15836 0.0
C773 C 0.90874 0.21376 0.13487 0.0
O774 O 0.92249 0.18674 0.17623 0.0
Co775 Co 0.89087 0.23143 0.17857 0.0
O776 O 0.88694 0.19855 0.18591 0.0
C777 C 0.93256 0.24186 0.20431 0.0
C778 C 0.9734 0.22223 0.14747 0.0
C779 C 0.90242 0.18318 0.18477 0.0
O780 O 0.94412 0.22838 0.19125 0.0
O781 O 0.91176 0.24745 0.20047 0.0
O782 O 0.92706 0.20192 0.1308 0.0
O783 O 0.91018 0.22734 0.15222 0.0
Co784 Co 0.59171 0.03947 0.81577 0.0
O785 O 0.60695 0.01718 0.79735 0.0
O786 O 0.59362 0.05011 0.78413 0.0
C787 C 0.61714 0.03944 0.84494 0.0
O788 O 0.5758 0.06648 0.83128 0.0
Co789 Co 0.57345 0.02176 0.86284 0.0
O790 O 0.56618 0.05466 0.86684 0.0
C791 C 0.54769 0.01135 0.82116 0.0
C792 C 0.60451 0.03104 0.78031 0.0
C793 C 0.56731 0.07004 0.85137 0.0
O794 O 0.56073 0.02487 0.80961 0.0
O795 O 0.55156 0.00574 0.84195 0.0
O796 O 0.62119 0.05129 0.82662 0.0
O797 O 0.59979 0.02587 0.84351 0.0
Co798 Co 0.71217 0.34255 0.06417 0.0
O799 O 0.73447 0.35784 0.04579 0.0
O800 O 0.70152 0.34461 0.03253 0.0
C801 C 0.71229 0.36787 0.09345 0.0
O802 O 0.68515 0.32661 0.07963 0.0
Co803 Co 0.72991 0.3241 0.11115 0.0
O804 O 0.69701 0.31685 0.11515 0.0
C805 C 0.74024 0.29847 0.06936 0.0
C806 C 0.72062 0.35548 0.02874 0.0
C807 C 0.68161 0.31804 0.0997 0.0
O808 O 0.72673 0.31157 0.05787 0.0
O809 O 0.74587 0.30226 0.09016 0.0
O810 O 0.70041 0.37202 0.07517 0.0
O811 O 0.72582 0.3505 0.09192 0.0
Co812 Co 0.41083 0.4625 0.31549 0.0
O813 O 0.39541 0.48471 0.29712 0.0
O814 O 0.40879 0.45181 0.28387 0.0
C815 C 0.38555 0.46251 0.3448 0.0
O816 O 0.42691 0.43557 0.33097 0.0
Co817 Co 0.42929 0.48038 0.36242 0.0
O818 O 0.43666 0.44751 0.36646 0.0
C819 C 0.45481 0.49075 0.32058 0.0
C820 C 0.39781 0.47084 0.28009 0.0
C821 C 0.4355 0.43209 0.35104 0.0
O822 O 0.44174 0.47718 0.30913 0.0
O823 O 0.45103 0.49641 0.34137 0.0
O824 O 0.38144 0.45061 0.32653 0.0
O825 O 0.40286 0.47613 0.34325 0.0
Co826 Co 0.29048 0.16011 0.56548 0.0
O827 O 0.26821 0.14483 0.54705 0.0
O828 O 0.30117 0.15813 0.53386 0.0
C829 C 0.29034 0.13478 0.59474 0.0
O830 O 0.31746 0.17606 0.581 0.0
Co831 Co 0.27264 0.17853 0.61244 0.0
O832 O 0.30553 0.18581 0.61649 0.0
C833 C 0.2624 0.20419 0.57066 0.0
C834 C 0.28209 0.14726 0.53002 0.0
C835 C 0.32096 0.18462 0.60107 0.0
O836 O 0.27592 0.19109 0.55919 0.0
O837 O 0.25672 0.20039 0.59144 0.0
O838 O 0.30223 0.13064 0.57646 0.0
O839 O 0.27679 0.15214 0.59321 0.0
Co840 Co 0.59293 0.96279 0.18764 0.0
O841 O 0.60829 0.98515 0.20588 0.0
O842 O 0.59495 0.95232 0.21934 0.0
C843 C 0.61823 0.96264 0.15835 0.0
O844 O 0.57692 0.93572 0.17232 0.0
Co845 Co 0.57448 0.98035 0.1406 0.0
O846 O 0.5672 0.94744 0.13675 0.0
C847 C 0.5489 0.99093 0.18234 0.0
C848 C 0.60588 0.97141 0.22301 0.0
C849 C 0.56837 0.93211 0.15226 0.0
O850 O 0.56199 0.97745 0.19388 0.0
O851 O 0.55268 0.99647 0.16152 0.0
O852 O 0.62236 0.95089 0.17671 0.0
O853 O 0.6009 0.97625 0.1598 0.0
Co854 Co 0.79059 0.34328 0.4376 0.0
O855 O 0.76833 0.35858 0.45602 0.0
O856 O 0.8012 0.34513 0.46925 0.0
C857 C 0.79059 0.3687 0.40841 0.0
O858 O 0.81756 0.32729 0.42209 0.0
Co859 Co 0.77281 0.32508 0.39052 0.0
O860 O 0.80569 0.3177 0.38653 0.0
C861 C 0.76235 0.29934 0.4322 0.0
C862 C 0.78215 0.35605 0.47307 0.0
C863 C 0.82108 0.31878 0.40199 0.0
O864 O 0.77591 0.31233 0.44375 0.0
O865 O 0.75673 0.30324 0.41142 0.0
O866 O 0.80246 0.37275 0.42672 0.0
O867 O 0.77698 0.35138 0.40987 0.0
Co868 Co 0.41075 0.54046 0.68834 0.0
O869 O 0.39551 0.51812 0.7067 0.0
O870 O 0.40882 0.55103 0.72001 0.0
C871 C 0.38535 0.54045 0.65913 0.0
O872 O 0.42666 0.56751 0.67288 0.0
Co873 Co 0.42906 0.5228 0.64126 0.0
O874 O 0.43632 0.5557 0.63732 0.0
C875 C 0.45483 0.51241 0.68294 0.0
C876 C 0.39796 0.53193 0.72378 0.0
C877 C 0.43517 0.57107 0.65279 0.0
O878 O 0.44175 0.52588 0.6945 0.0
O879 O 0.451 0.50683 0.66214 0.0
O880 O 0.38126 0.55227 0.67746 0.0
O881 O 0.40271 0.52689 0.66057 0.0
Co882 Co 0.21277 0.16036 0.93882 0.0
O883 O 0.23507 0.14503 0.95717 0.0
O884 O 0.20219 0.15838 0.97048 0.0
C885 C 0.21274 0.13498 0.90959 0.0
O886 O 0.18576 0.17635 0.92341 0.0
Co887 Co 0.23042 0.17866 0.89174 0.0
O888 O 0.19753 0.18603 0.88785 0.0
C889 C 0.24093 0.20436 0.93344 0.0
C890 C 0.22124 0.14745 0.97423 0.0
C891 C 0.18218 0.1849 0.90335 0.0
O892 O 0.22744 0.19132 0.94502 0.0
O893 O 0.24649 0.20051 0.91263 0.0
O894 O 0.2009 0.13091 0.92791 0.0
O895 O 0.22633 0.15232 0.91104 0.0
Co896 Co 0.81531 0.09313 0.53944 0.0
O897 O 0.79702 0.10852 0.51714 0.0
O898 O 0.78366 0.09525 0.55003 0.0
C899 C 0.84467 0.11834 0.53947 0.0
O900 O 0.83068 0.07707 0.56645 0.0
Co901 Co 0.86226 0.07456 0.52173 0.0
O902 O 0.86617 0.0672 0.55461 0.0
C903 C 0.82042 0.04904 0.51135 0.0
C904 C 0.77994 0.10618 0.53096 0.0
C905 C 0.85071 0.06842 0.56999 0.0
O906 O 0.80894 0.06219 0.52483 0.0
O907 O 0.84123 0.05277 0.50573 0.0
O908 O 0.82636 0.12253 0.55129 0.0
O909 O 0.84312 0.10102 0.52587 0.0
Co910 Co 0.31456 0.91006 0.96332 0.0
O911 O 0.29611 0.89487 0.98563 0.0
O912 O 0.28294 0.90812 0.95265 0.0
C913 C 0.34374 0.88463 0.96346 0.0
O914 O 0.33009 0.92592 0.9363 0.0
Co915 Co 0.36162 0.92835 0.98104 0.0
O916 O 0.36563 0.9356 0.94814 0.0
C917 C 0.31994 0.95419 0.99128 0.0
C918 C 0.27909 0.89728 0.97174 0.0
C919 C 0.35017 0.93444 0.93275 0.0
O920 O 0.30838 0.94109 0.97784 0.0
O921 O 0.34073 0.95035 0.99691 0.0
O922 O 0.32545 0.88054 0.9516 0.0
O923 O 0.34228 0.90202 0.97699 0.0
Co924 Co 0.84226 0.06611 0.21233 0.0
O925 O 0.85754 0.04777 0.23467 0.0
O926 O 0.84427 0.03445 0.20176 0.0
C927 C 0.86758 0.09538 0.21236 0.0
O928 O 0.82633 0.08153 0.18528 0.0
Co929 Co 0.82383 0.11315 0.22998 0.0
O930 O 0.81659 0.11707 0.19707 0.0
C931 C 0.79812 0.07141 0.2403 0.0
C932 C 0.85514 0.03069 0.22086 0.0
C933 C 0.81778 0.1016 0.1817 0.0
O934 O 0.81127 0.05987 0.22688 0.0
O935 O 0.80189 0.09222 0.2459 0.0
O936 O 0.87173 0.07705 0.20055 0.0
O937 O 0.85022 0.0939 0.22591 0.0
Co938 Co 0.68771 0.59176 0.46275 0.0
O939 O 0.7061 0.60697 0.4851 0.0
O940 O 0.71934 0.5938 0.45211 0.0
C941 C 0.65846 0.61712 0.46291 0.0
O942 O 0.67224 0.57591 0.43569 0.0
Co943 Co 0.64067 0.57333 0.4804 0.0
O944 O 0.63671 0.56614 0.44748 0.0
C945 C 0.68242 0.54759 0.49066 0.0
C946 C 0.72314 0.60462 0.47123 0.0
C947 C 0.65218 0.56736 0.43211 0.0
O948 O 0.69395 0.56074 0.47723 0.0
O949 O 0.66161 0.55137 0.49627 0.0
O950 O 0.67677 0.62127 0.45107 0.0
O951 O 0.65995 0.59971 0.47641 0.0
Co952 Co 0.66073 0.93727 0.71346 0.0
O953 O 0.64538 0.95559 0.73575 0.0
O954 O 0.65868 0.9689 0.70284 0.0
C955 C 0.63544 0.90798 0.71345 0.0
O956 O 0.67674 0.92186 0.68645 0.0
Co957 Co 0.6792 0.89028 0.73115 0.0
O958 O 0.68651 0.88633 0.69825 0.0
C959 C 0.70478 0.93207 0.74157 0.0
C960 C 0.64774 0.97265 0.7219 0.0
C961 C 0.68532 0.9018 0.68288 0.0
O962 O 0.69168 0.94357 0.72808 0.0
O963 O 0.701 0.91126 0.74718 0.0
O964 O 0.63131 0.92629 0.70162 0.0
O965 O 0.65277 0.90947 0.72703 0.0
Co966 Co 0.18842 0.91153 0.54109 0.0
O967 O 0.20691 0.89646 0.51873 0.0
O968 O 0.22004 0.90956 0.55179 0.0
C969 C 0.15928 0.88606 0.54079 0.0
O970 O 0.17283 0.92726 0.56817 0.0
Co971 Co 0.14134 0.9298 0.52337 0.0
O972 O 0.13729 0.93691 0.55629 0.0
C973 C 0.18299 0.95576 0.51331 0.0
C974 C 0.22392 0.89881 0.53265 0.0
C975 C 0.15272 0.93573 0.5717 0.0
O976 O 0.19457 0.94262 0.5267 0.0
O977 O 0.16222 0.95191 0.50765 0.0
O978 O 0.17756 0.88195 0.55268 0.0
O979 O 0.16073 0.9035 0.52735 0.0
Co980 Co 0.8422 0.43895 0.28973 0.0
O981 O 0.85742 0.45723 0.2673 0.0
O982 O 0.84422 0.47063 0.30022 0.0
C983 C 0.86758 0.40972 0.28973 0.0
O984 O 0.82634 0.42362 0.31687 0.0
Co985 Co 0.82384 0.3918 0.27232 0.0
O986 O 0.81662 0.38801 0.30525 0.0
C987 C 0.79804 0.43345 0.26183 0.0
C988 C 0.85507 0.47434 0.28109 0.0
C989 C 0.81782 0.40356 0.32054 0.0
O990 O 0.81116 0.44509 0.2752 0.0
O991 O 0.80186 0.41263 0.25634 0.0
O992 O 0.87171 0.42808 0.3015 0.0
O993 O 0.85019 0.41113 0.27622 0.0
Co994 Co 0.16089 0.06462 0.79106 0.0
O995 O 0.14554 0.0464 0.76867 0.0
O996 O 0.15867 0.03295 0.80158 0.0
C997 C 0.1357 0.094 0.79105 0.0
O998 O 0.17687 0.07991 0.81816 0.0
Co999 Co 0.17955 0.11161 0.77352 0.0
O1000 O 0.18677 0.11543 0.80644 0.0
C1001 C 0.20507 0.06977 0.76311 0.0
C1002 C 0.14777 0.02929 0.78248 0.0
C1003 C 0.1855 0.09994 0.82178 0.0
O1004 O 0.19188 0.05825 0.77652 0.0
O1005 O 0.20138 0.0906 0.75757 0.0
O1006 O 0.13146 0.07568 0.80284 0.0
O1007 O 0.15307 0.09246 0.77752 0.0
Co1008 Co 0.54097 0.81474 0.09234 0.0
O1009 O 0.5186 0.79661 0.10783 0.0
O1010 O 0.55143 0.78306 0.09458 0.0
C1011 C 0.54109 0.84419 0.11746 0.0
O1012 O 0.56805 0.82993 0.07623 0.0
Co1013 Co 0.52349 0.86171 0.0736 0.0
O1014 O 0.5564 0.86546 0.06627 0.0
C1015 C 0.51279 0.8198 0.04832 0.0
C1016 C 0.53236 0.77947 0.10555 0.0
C1017 C 0.5717 0.84992 0.06754 0.0
O1018 O 0.52627 0.80831 0.06145 0.0
O1019 O 0.50731 0.84066 0.05198 0.0
O1020 O 0.55287 0.82587 0.1217 0.0
O1021 O 0.52751 0.84263 0.10013 0.0
Co1022 Co 0.43774 0.79007 0.3426 0.0
O1023 O 0.45615 0.76789 0.358 0.0
O1024 O 0.46937 0.80074 0.34447 0.0
C1025 C 0.40853 0.79016 0.36801 0.0
O1026 O 0.42222 0.81697 0.32652 0.0
Co1027 Co 0.39072 0.77218 0.3244 0.0
O1028 O 0.38669 0.80503 0.31693 0.0
C1029 C 0.43243 0.76171 0.29872 0.0
C1030 C 0.47319 0.78173 0.35548 0.0
C1031 C 0.40213 0.82044 0.31799 0.0
O1032 O 0.44395 0.7753 0.31171 0.0
O1033 O 0.41165 0.75608 0.30259 0.0
O1034 O 0.42684 0.80205 0.37201 0.0
O1035 O 0.41 0.77649 0.35074 0.0
Co1036 Co 0.46218 0.68805 0.59215 0.0
O1037 O 0.48453 0.70643 0.60734 0.0
O1038 O 0.45156 0.71969 0.59414 0.0
C1039 C 0.4623 0.65884 0.61754 0.0
O1040 O 0.43512 0.67257 0.57629 0.0
Co1041 Co 0.47984 0.64099 0.57379 0.0
O1042 O 0.44693 0.63703 0.56658 0.0
C1043 C 0.49013 0.68269 0.54801 0.0
C1044 C 0.47068 0.72349 0.60496 0.0
C1045 C 0.43155 0.65249 0.56777 0.0
O1046 O 0.47669 0.69424 0.56112 0.0
O1047 O 0.49574 0.6619 0.55182 0.0
O1048 O 0.45046 0.67715 0.62166 0.0
O1049 O 0.47581 0.6603 0.60015 0.0
Co1050 Co 0.56451 0.71234 0.84213 0.0
O1051 O 0.54601 0.73457 0.85738 0.0
O1052 O 0.53295 0.7015 0.84423 0.0
C1053 C 0.59378 0.71267 0.86746 0.0
O1054 O 0.58014 0.68538 0.82624 0.0
Co1055 Co 0.61141 0.73031 0.82366 0.0
O1056 O 0.61558 0.69743 0.81644 0.0
C1057 C 0.56958 0.74028 0.79796 0.0
C1058 C 0.52905 0.72058 0.85507 0.0
C1059 C 0.60022 0.68195 0.81766 0.0
O1060 O 0.55814 0.72678 0.81111 0.0
O1061 O 0.59034 0.74604 0.80173 0.0
O1062 O 0.57556 0.70071 0.87162 0.0
O1063 O 0.59219 0.72617 0.85006 0.0
Co1064 Co 0.54051 0.18725 0.91171 0.0
O1065 O 0.51829 0.20566 0.89635 0.0
O1066 O 0.55126 0.21884 0.9096 0.0
C1067 C 0.54035 0.15793 0.88646 0.0
O1068 O 0.56746 0.17174 0.92772 0.0
Co1069 Co 0.52264 0.14036 0.93027 0.0
O1070 O 0.55552 0.13627 0.93753 0.0
C1071 C 0.51234 0.18225 0.95574 0.0
C1072 C 0.53221 0.22266 0.89868 0.0
C1073 C 0.57096 0.15168 0.93631 0.0
O1074 O 0.52592 0.19367 0.94265 0.0
O1075 O 0.50665 0.16146 0.95199 0.0
O1076 O 0.55227 0.17617 0.88229 0.0
O1077 O 0.52679 0.15951 0.90381 0.0
Co1078 Co 0.0642 0.78995 0.16116 0.0
O1079 O 0.0457 0.76769 0.14597 0.0
O1080 O 0.03264 0.80079 0.15902 0.0
C1081 C 0.09347 0.78959 0.13583 0.0
O1082 O 0.07981 0.81694 0.177 0.0
Co1083 Co 0.11112 0.77203 0.17964 0.0
O1084 O 0.11525 0.80492 0.18685 0.0
C1085 C 0.06931 0.76215 0.20542 0.0
C1086 C 0.02875 0.78169 0.14821 0.0
C1087 C 0.09988 0.82039 0.1856 0.0
O1088 O 0.05784 0.77558 0.19222 0.0
O1089 O 0.09007 0.75639 0.20165 0.0
O1090 O 0.07524 0.80153 0.13165 0.0
O1091 O 0.09189 0.77612 0.15324 0.0
Co1092 Co 0.4627 0.31501 0.41151 0.0
O1093 O 0.485 0.29668 0.39617 0.0
O1094 O 0.45204 0.28339 0.40936 0.0
C1095 C 0.46278 0.34433 0.38624 0.0
O1096 O 0.43568 0.33044 0.42749 0.0
Co1097 Co 0.48043 0.36197 0.43005 0.0
O1098 O 0.44754 0.36594 0.43732 0.0
C1099 C 0.49075 0.32013 0.45561 0.0
C1100 C 0.47112 0.27964 0.39846 0.0
C1101 C 0.43214 0.35049 0.4361 0.0
O1102 O 0.47727 0.30865 0.44247 0.0
O1103 O 0.49637 0.34094 0.45187 0.0
O1104 O 0.45092 0.32604 0.38207 0.0
O1105 O 0.47633 0.3428 0.4036 0.0
Co1106 Co 0.9382 0.71277 0.66027 0.0
O1107 O 0.95656 0.73494 0.64478 0.0
O1108 O 0.96982 0.70208 0.65824 0.0
C1109 C 0.90887 0.71272 0.63501 0.0
O1110 O 0.92274 0.68588 0.67642 0.0
Co1111 Co 0.89127 0.73068 0.6787 0.0
O1112 O 0.88725 0.69783 0.68617 0.0
C1113 C 0.93311 0.74114 0.70417 0.0
C1114 C 0.9736 0.72108 0.64721 0.0
C1115 C 0.90268 0.68241 0.68504 0.0
O1116 O 0.94456 0.72753 0.69114 0.0
O1117 O 0.91232 0.74678 0.70038 0.0
O1118 O 0.92715 0.70081 0.63091 0.0
O1119 O 0.91044 0.72638 0.65228 0.0
Co1120 Co 0.59188 0.54029 0.31498 0.0
O1121 O 0.60713 0.51797 0.29659 0.0
O1122 O 0.59393 0.55095 0.28335 0.0
C1123 C 0.61721 0.54016 0.34424 0.0
O1124 O 0.57598 0.56732 0.33047 0.0
Co1125 Co 0.57345 0.52256 0.36199 0.0
O1126 O 0.56623 0.55547 0.36599 0.0
C1127 C 0.54774 0.51232 0.32024 0.0
C1128 C 0.60478 0.53185 0.27955 0.0
C1129 C 0.56743 0.57086 0.35054 0.0
O1130 O 0.56087 0.52578 0.30872 0.0
O1131 O 0.55153 0.50668 0.34103 0.0
O1132 O 0.62137 0.55201 0.32595 0.0
O1133 O 0.59984 0.52663 0.34273 0.0
Co1134 Co 0.71258 0.84196 0.5655 0.0
O1135 O 0.73491 0.85737 0.54726 0.0
O1136 O 0.70198 0.84422 0.53387 0.0
C1137 C 0.71264 0.86709 0.59494 0.0
O1138 O 0.68554 0.82592 0.58084 0.0
Co1139 Co 0.73025 0.82321 0.6124 0.0
O1140 O 0.69735 0.81595 0.61631 0.0
C1141 C 0.74063 0.79784 0.57047 0.0
C1142 C 0.72106 0.85514 0.53018 0.0
C1143 C 0.68197 0.81724 0.60086 0.0
O1144 O 0.72715 0.81102 0.55903 0.0
O1145 O 0.74624 0.8015 0.59129 0.0
O1146 O 0.7008 0.87135 0.57665 0.0
O1147 O 0.72619 0.84974 0.59333 0.0
Co1148 Co 0.41057 0.96179 0.81575 0.0
O1149 O 0.39538 0.98418 0.79741 0.0
O1150 O 0.40856 0.95123 0.78409 0.0
C1151 C 0.3852 0.96186 0.84498 0.0
O1152 O 0.42641 0.93469 0.83118 0.0
Co1153 Co 0.42896 0.97937 0.86283 0.0
O1154 O 0.43613 0.94644 0.86673 0.0
C1155 C 0.45473 0.9897 0.82112 0.0
C1156 C 0.39775 0.97036 0.78033 0.0
C1157 C 0.43493 0.93109 0.85125 0.0
O1158 O 0.4416 0.97628 0.80956 0.0
O1159 O 0.45093 0.99528 0.84193 0.0
O1160 O 0.38105 0.95007 0.82665 0.0
O1161 O 0.4026 0.97537 0.84353 0.0
Co1162 Co 0.29114 0.66071 0.06482 0.0
O1163 O 0.26895 0.64536 0.04636 0.0
O1164 O 0.30181 0.65891 0.03318 0.0
C1165 C 0.29117 0.63527 0.09398 0.0
O1166 O 0.31805 0.67676 0.08038 0.0
Co1167 Co 0.27326 0.67882 0.11189 0.0
O1168 O 0.30611 0.68625 0.11594 0.0
C1169 C 0.2627 0.70452 0.07022 0.0
C1170 C 0.28279 0.64793 0.02933 0.0
C1171 C 0.32153 0.68523 0.1005 0.0
O1172 O 0.27636 0.69162 0.05868 0.0
O1173 O 0.25707 0.70057 0.09098 0.0
O1174 O 0.30309 0.63127 0.07569 0.0
O1175 O 0.27752 0.65255 0.09252 0.0
Co1176 Co 0.59189 0.46267 0.68814 0.0
O1177 O 0.6072 0.48505 0.70639 0.0
O1178 O 0.59401 0.45215 0.71981 0.0
C1179 C 0.61716 0.46266 0.65883 0.0
O1180 O 0.57594 0.43556 0.67283 0.0
Co1181 Co 0.57336 0.48016 0.64109 0.0
O1182 O 0.56613 0.44723 0.63727 0.0
C1183 C 0.54776 0.49066 0.68286 0.0
C1184 C 0.6049 0.47125 0.7235 0.0
C1185 C 0.56736 0.43192 0.65279 0.0
O1186 O 0.5609 0.47724 0.69442 0.0
O1187 O 0.55151 0.49618 0.66203 0.0
O1188 O 0.62134 0.45087 0.67716 0.0
O1189 O 0.59979 0.47619 0.66031 0.0
Co1190 Co 0.79147 0.84191 0.93801 0.0
O1191 O 0.76924 0.85725 0.95643 0.0
O1192 O 0.80213 0.8438 0.96965 0.0
C1193 C 0.79146 0.8673 0.9088 0.0
O1194 O 0.81842 0.8259 0.92247 0.0
Co1195 Co 0.77362 0.82366 0.89099 0.0
O1196 O 0.8065 0.81633 0.88693 0.0
C1197 C 0.76309 0.79805 0.93272 0.0
C1198 C 0.78308 0.85475 0.97347 0.0
C1199 C 0.82191 0.81741 0.90236 0.0
O1200 O 0.77674 0.81099 0.94422 0.0
O1201 O 0.75745 0.80194 0.91195 0.0
O1202 O 0.80337 0.87135 0.92709 0.0
O1203 O 0.77785 0.84999 0.91029 0.0
Co1204 Co 0.41146 0.03973 0.18828 0.0
O1205 O 0.39643 0.01721 0.2066 0.0
O1206 O 0.40931 0.05027 0.21994 0.0
C1207 C 0.38608 0.03948 0.15906 0.0
O1208 O 0.4271 0.06697 0.1729 0.0
Co1209 Co 0.42997 0.02239 0.14115 0.0
O1210 O 0.43694 0.05536 0.13732 0.0
C1211 C 0.45587 0.01224 0.18283 0.0
C1212 C 0.39863 0.03106 0.22368 0.0
C1213 C 0.43562 0.07067 0.15285 0.0
O1214 O 0.44261 0.02548 0.19446 0.0
O1215 O 0.45213 0.00669 0.16201 0.0
O1216 O 0.38186 0.05123 0.1774 0.0
O1217 O 0.40359 0.02611 0.16048 0.0
Co1218 Co 0.21246 0.66138 0.43829 0.0
O1219 O 0.23473 0.64593 0.45658 0.0
O1220 O 0.20179 0.65913 0.4699 0.0
C1221 C 0.21257 0.63624 0.40885 0.0
O1222 O 0.18547 0.67745 0.4229 0.0
Co1223 Co 0.23024 0.68012 0.39143 0.0
O1224 O 0.19735 0.68742 0.38745 0.0
C1225 C 0.24059 0.70545 0.4334 0.0
C1226 C 0.22085 0.64819 0.47363 0.0
C1227 C 0.18194 0.68613 0.40288 0.0
O1228 O 0.22706 0.69229 0.4448 0.0
O1229 O 0.24624 0.70179 0.41259 0.0
O1230 O 0.20068 0.632 0.4271 0.0
O1231 O 0.22613 0.65359 0.41048 0.0
Co1232 Co 0.81474 0.59222 0.03973 0.0
O1233 O 0.7962 0.60746 0.01754 0.0
O1234 O 0.78317 0.59421 0.05059 0.0
C1235 C 0.84395 0.61761 0.03946 0.0
O1236 O 0.83038 0.57632 0.06666 0.0
Co1237 Co 0.86168 0.57387 0.02176 0.0
O1238 O 0.86585 0.5666 0.05463 0.0
C1239 C 0.8199 0.54812 0.01168 0.0
C1240 C 0.77925 0.60508 0.03152 0.0
C1241 C 0.85048 0.56777 0.0701 0.0
O1242 O 0.80843 0.56122 0.02522 0.0
O1243 O 0.84065 0.55195 0.00594 0.0
O1244 O 0.82571 0.62171 0.05143 0.0
O1245 O 0.84241 0.60024 0.02593 0.0
Co1246 Co 0.31498 0.41078 0.4632 0.0
O1247 O 0.29663 0.39547 0.4855 0.0
O1248 O 0.28336 0.40866 0.45253 0.0
C1249 C 0.3443 0.38551 0.46331 0.0
O1250 O 0.33044 0.42674 0.43619 0.0
Co1251 Co 0.36194 0.42931 0.48095 0.0
O1252 O 0.36594 0.43655 0.44805 0.0
C1253 C 0.3201 0.45489 0.49125 0.0
C1254 C 0.27959 0.39778 0.47162 0.0
C1255 C 0.3505 0.43533 0.43265 0.0
O1256 O 0.30863 0.44176 0.47775 0.0
O1257 O 0.3409 0.45114 0.49689 0.0
O1258 O 0.32601 0.38134 0.45145 0.0
O1259 O 0.34275 0.40287 0.47686 0.0
Co1260 Co 0.84225 0.56545 0.71274 0.0
O1261 O 0.85763 0.54715 0.73504 0.0
O1262 O 0.84429 0.5338 0.70216 0.0
C1263 C 0.86756 0.59474 0.71267 0.0
O1264 O 0.82623 0.58082 0.68573 0.0
Co1265 Co 0.82383 0.61249 0.73037 0.0
O1266 O 0.81648 0.61637 0.69748 0.0
C1267 C 0.79822 0.57074 0.74089 0.0
C1268 C 0.85524 0.53007 0.72122 0.0
C1269 C 0.81765 0.60087 0.68214 0.0
O1270 O 0.81132 0.55919 0.72741 0.0
O1271 O 0.80201 0.59155 0.74644 0.0
O1272 O 0.87167 0.57641 0.70085 0.0
O1273 O 0.85024 0.59326 0.72627 0.0
Co1274 Co 0.68821 0.09132 0.96297 0.0
O1275 O 0.70665 0.10661 0.98522 0.0
O1276 O 0.71978 0.09351 0.95215 0.0
C1277 C 0.65887 0.11656 0.96326 0.0
O1278 O 0.67265 0.07539 0.936 0.0
Co1279 Co 0.64137 0.0727 0.98094 0.0
O1280 O 0.63724 0.06547 0.94805 0.0
C1281 C 0.68327 0.0471 0.99089 0.0
C1282 C 0.72363 0.10436 0.97125 0.0
C1283 C 0.65259 0.06675 0.93257 0.0
O1284 O 0.69467 0.06031 0.97741 0.0
O1285 O 0.66249 0.0508 0.99664 0.0
O1286 O 0.6771 0.12077 0.95133 0.0
O1287 O 0.66048 0.09917 0.97677 0.0
Co1288 Co 0.66092 0.43822 0.21218 0.0
O1289 O 0.64566 0.45646 0.23462 0.0
O1290 O 0.6588 0.46991 0.20171 0.0
C1291 C 0.63563 0.40892 0.21218 0.0
O1292 O 0.67682 0.42291 0.18505 0.0
Co1293 Co 0.67948 0.39118 0.22966 0.0
O1294 O 0.68663 0.38735 0.19672 0.0
C1295 C 0.7051 0.43295 0.24012 0.0
C1296 C 0.64796 0.47358 0.22084 0.0
C1297 C 0.68538 0.40286 0.18139 0.0
O1298 O 0.69193 0.44449 0.22671 0.0
O1299 O 0.70137 0.41211 0.24564 0.0
O1300 O 0.63145 0.42727 0.20043 0.0
O1301 O 0.65303 0.41038 0.2257 0.0
Co1302 Co 0.18845 0.41157 0.03975 0.0
O1303 O 0.20681 0.39616 0.01752 0.0
O1304 O 0.22005 0.40943 0.05046 0.0
C1305 C 0.1591 0.38634 0.03968 0.0
O1306 O 0.17301 0.42764 0.0667 0.0
Co1307 Co 0.14153 0.43012 0.02192 0.0
O1308 O 0.13755 0.43752 0.05479 0.0
C1309 C 0.1834 0.45562 0.0116 0.0
C1310 C 0.22383 0.39847 0.03141 0.0
C1311 C 0.15298 0.43631 0.0702 0.0
O1312 O 0.19486 0.4425 0.02512 0.0
O1313 O 0.1626 0.45188 0.00595 0.0
O1314 O 0.17737 0.38218 0.05158 0.0
O1315 O 0.16068 0.40367 0.02609 0.0
Co1316 Co 0.84229 0.93814 0.79009 0.0
O1317 O 0.8572 0.95657 0.76759 0.0
O1318 O 0.84426 0.9698 0.80067 0.0
C1319 C 0.86778 0.90901 0.78977 0.0
O1320 O 0.82673 0.92262 0.8173 0.0
Co1321 Co 0.82396 0.891 0.77259 0.0
O1322 O 0.81703 0.88705 0.80556 0.0
C1323 C 0.79788 0.93259 0.7626 0.0
C1324 C 0.85487 0.97362 0.78144 0.0
C1325 C 0.81829 0.90252 0.82093 0.0
O1326 O 0.81111 0.94421 0.77588 0.0
O1327 O 0.80171 0.91181 0.75696 0.0
O1328 O 0.87195 0.92735 0.80155 0.0
O1329 O 0.85027 0.91041 0.77641 0.0
Co1330 Co 0.16105 0.56606 0.29015 0.0
O1331 O 0.14568 0.54784 0.26778 0.0
O1332 O 0.15901 0.53437 0.3006 0.0
C1333 C 0.13577 0.59536 0.2903 0.0
O1334 O 0.17708 0.58136 0.31721 0.0
Co1335 Co 0.17955 0.61309 0.2726 0.0
O1336 O 0.18683 0.61693 0.30551 0.0
C1337 C 0.20505 0.57131 0.26195 0.0
C1338 C 0.14808 0.53071 0.28152 0.0
C1339 C 0.18564 0.60142 0.32084 0.0
O1340 O 0.19197 0.5598 0.27546 0.0
O1341 O 0.20129 0.59214 0.25642 0.0
O1342 O 0.13164 0.577 0.30206 0.0
O1343 O 0.1531 0.59391 0.27669 0.0
C1344 C 0.98377 0.31143 0.0176 0.0
C1345 C 0.00664 0.31211 0.02483 0.0
H1346 H 0.96076 0.31221 0.98904 0.0
C1347 C 0.02414 0.31042 0.00844 0.0
H1348 H 0.97003 0.31322 0.0299 0.0
C1349 C 0.01888 0.31065 0.98506 0.0
C1350 C 0.99603 0.31172 0.97781 0.0
H1351 H 0.04191 0.31148 0.01361 0.0
H1352 H 0.03265 0.31185 0.97272 0.0
C1353 C 0.9785 0.31082 0.99423 0.0
C1354 C 0.9429 0.22992 0.24358 0.0
C1355 C 0.94136 0.2475 0.22725 0.0
H1356 H 0.94121 0.22123 0.27924 0.0
C1357 C 0.94199 0.27033 0.23461 0.0
H1358 H 0.94186 0.21218 0.23831 0.0
C1359 C 0.94244 0.27548 0.25801 0.0
C1360 C 0.94142 0.25788 0.27434 0.0
H1361 H 0.9403 0.28413 0.22236 0.0
H1362 H 0.94104 0.2932 0.26328 0.0
C1363 C 0.94251 0.23506 0.26698 0.0
C1364 C 0.97926 0.19372 0.50862 0.0
C1365 C 0.99689 0.19206 0.52487 0.0
H1366 H 0.97044 0.19215 0.47298 0.0
C1367 C 0.0197 0.19266 0.51744 0.0
H1368 H 0.96153 0.1927 0.51394 0.0
C1369 C 0.02477 0.19316 0.49403 0.0
C1370 C 0.00711 0.19223 0.47775 0.0
H1371 H 0.03353 0.19087 0.52964 0.0
H1372 H 0.04247 0.19171 0.48869 0.0
C1373 C 0.98432 0.19338 0.4852 0.0
C1374 C 0.06041 0.22863 0.75965 0.0
C1375 C 0.06191 0.2462 0.77598 0.0
H1376 H 0.06221 0.21995 0.72399 0.0
C1377 C 0.0613 0.26904 0.76863 0.0
H1378 H 0.06144 0.21089 0.76491 0.0
C1379 C 0.06092 0.2742 0.74523 0.0
C1380 C 0.06199 0.25659 0.7289 0.0
H1381 H 0.06295 0.28284 0.78089 0.0
H1382 H 0.06233 0.29191 0.73997 0.0
C1383 C 0.06088 0.23378 0.73625 0.0
C1384 C 0.97875 0.69348 0.00732 0.0
C1385 C 0.99619 0.69234 0.02382 0.0
H1386 H 0.97045 0.69141 0.97159 0.0
C1387 C 0.01908 0.69335 0.01669 0.0
H1388 H 0.96098 0.69214 0.01242 0.0
C1389 C 0.02447 0.69374 0.99334 0.0
C1390 C 0.00704 0.69228 0.97685 0.0
H1391 H 0.03279 0.69196 0.02909 0.0
H1392 H 0.04226 0.69261 0.98826 0.0
C1393 C 0.98414 0.69303 0.98398 0.0
C1394 C 0.56054 0.23409 0.23459 0.0
C1395 C 0.5611 0.25692 0.22722 0.0
H1396 H 0.56154 0.21123 0.26326 0.0
C1397 C 0.55943 0.2745 0.24354 0.0
H1398 H 0.56232 0.22029 0.22234 0.0
C1399 C 0.5598 0.26936 0.26694 0.0
C1400 C 0.56098 0.24656 0.27431 0.0
H1401 H 0.5604 0.29224 0.23827 0.0
H1402 H 0.56101 0.2832 0.2792 0.0
C1403 C 0.56006 0.22894 0.25798 0.0
C1404 C 0.98451 0.8104 0.51749 0.0
C1405 C 0.00738 0.81178 0.52464 0.0
H1406 H 0.96135 0.81089 0.48904 0.0
C1407 C 0.02484 0.81114 0.50814 0.0
H1408 H 0.97078 0.8114 0.52989 0.0
C1409 C 0.01946 0.81166 0.4848 0.0
C1410 C 0.99655 0.812 0.47766 0.0
H1411 H 0.04258 0.81277 0.51326 0.0
H1412 H 0.03312 0.81363 0.47244 0.0
C1413 C 0.97915 0.81008 0.49413 0.0
C1414 C 0.44352 0.22848 0.74463 0.0
C1415 C 0.44177 0.24602 0.72828 0.0
H1416 H 0.44208 0.21986 0.78032 0.0
C1417 C 0.44232 0.26887 0.73559 0.0
H1418 H 0.44255 0.21072 0.73941 0.0
C1419 C 0.44288 0.27408 0.75897 0.0
C1420 C 0.44205 0.2565 0.77534 0.0
H1421 H 0.44048 0.28263 0.72332 0.0
H1422 H 0.44139 0.29179 0.76421 0.0
C1423 C 0.44323 0.23368 0.76802 0.0
C1424 C 0.99376 0.97875 0.31072 0.0
C1425 C 0.97746 0.99639 0.3117 0.0
H1426 H 0.02938 0.97002 0.31297 0.0
C1427 C 0.98488 0.01919 0.31067 0.0
H1428 H 0.98844 0.96104 0.31209 0.0
C1429 C 0.00829 0.02428 0.31036 0.0
C1430 C 0.02457 0.00666 0.31193 0.0
H1431 H 0.97264 0.03304 0.31194 0.0
H1432 H 0.01359 0.04201 0.31144 0.0
C1433 C 0.01717 0.98385 0.31125 0.0
C1434 C 0.22895 0.25793 0.56055 0.0
C1435 C 0.24658 0.27423 0.56175 0.0
H1436 H 0.22022 0.2223 0.56257 0.0
C1437 C 0.26939 0.26682 0.56082 0.0
H1438 H 0.21124 0.26324 0.56182 0.0
C1439 C 0.27449 0.24341 0.56042 0.0
C1440 C 0.25687 0.22713 0.56181 0.0
H1441 H 0.28324 0.27905 0.56224 0.0
H1442 H 0.29222 0.23811 0.5616 0.0
C1443 C 0.23406 0.23453 0.561 0.0
C1444 C 0.99497 0.47864 0.81032 0.0
C1445 C 0.97861 0.49621 0.81143 0.0
H1446 H 0.03064 0.47006 0.81233 0.0
C1447 C 0.98592 0.51905 0.81038 0.0
H1448 H 0.98974 0.46092 0.81169 0.0
C1449 C 0.00931 0.52424 0.80993 0.0
C1450 C 0.02568 0.50669 0.81137 0.0
H1451 H 0.97363 0.53285 0.81174 0.0
H1452 H 0.01454 0.54199 0.811 0.0
C1453 C 0.01836 0.48384 0.81071 0.0
C1454 C 0.73361 0.23576 0.05984 0.0
C1455 C 0.75648 0.22852 0.06058 0.0
H1456 H 0.71058 0.26429 0.06073 0.0
C1457 C 0.77398 0.24494 0.05911 0.0
H1458 H 0.71987 0.22343 0.06148 0.0
C1459 C 0.7687 0.26831 0.05949 0.0
C1460 C 0.74584 0.27555 0.06051 0.0
H1461 H 0.79174 0.23977 0.06023 0.0
H1462 H 0.78246 0.28065 0.06086 0.0
C1463 C 0.72833 0.25912 0.05938 0.0
C1464 C 0.01703 0.01829 0.69313 0.0
C1465 C 0.02434 0.99548 0.69159 0.0
H1466 H 0.98845 0.04128 0.69262 0.0
C1467 C 0.00794 0.97791 0.69191 0.0
H1468 H 0.02936 0.0321 0.69237 0.0
C1469 C 0.98458 0.98315 0.69124 0.0
C1470 C 0.97729 0.00602 0.69105 0.0
H1471 H 0.01319 0.96022 0.69014 0.0
H1472 H 0.97232 0.96944 0.68902 0.0
C1473 C 0.99364 0.0235 0.6933 0.0
C1474 C 0.26946 0.23456 0.94298 0.0
C1475 C 0.2466 0.22731 0.9422 0.0
H1476 H 0.29249 0.2631 0.94198 0.0
C1477 C 0.22909 0.24373 0.94347 0.0
H1478 H 0.28322 0.22223 0.94149 0.0
C1479 C 0.23436 0.2671 0.94293 0.0
C1480 C 0.25722 0.27434 0.94197 0.0
H1481 H 0.21133 0.23855 0.94231 0.0
H1482 H 0.2206 0.27942 0.94143 0.0
C1483 C 0.27473 0.25793 0.94328 0.0
C1484 C 0.00931 0.4799 0.19214 0.0
C1485 C 0.02556 0.49755 0.19058 0.0
H1486 H 0.97369 0.47106 0.19046 0.0
C1487 C 0.01811 0.52035 0.19117 0.0
H1488 H 0.01465 0.46218 0.19114 0.0
C1489 C 0.99469 0.52541 0.1916 0.0
C1490 C 0.97844 0.50773 0.1906 0.0
H1491 H 0.0303 0.5342 0.18946 0.0
H1492 H 0.98935 0.5431 0.19017 0.0
C1493 C 0.98589 0.48495 0.19173 0.0
C1494 C 0.769 0.23663 0.44186 0.0
C1495 C 0.74616 0.22935 0.4408 0.0
H1496 H 0.79197 0.26523 0.44129 0.0
C1497 C 0.72861 0.24572 0.44196 0.0
H1498 H 0.7828 0.22433 0.44046 0.0
C1499 C 0.73383 0.2691 0.44162 0.0
C1500 C 0.75668 0.27639 0.44095 0.0
H1501 H 0.71087 0.24051 0.44059 0.0
H1502 H 0.72006 0.2814 0.44003 0.0
C1503 C 0.77422 0.26001 0.44236 0.0
C1504 C 0.31018 0.98455 0.01958 0.0
C1505 C 0.3112 0.97719 0.99676 0.0
H1506 H 0.31094 0.0132 0.04248 0.0
C1507 C 0.31019 0.99353 0.97917 0.0
H1508 H 0.31147 0.97227 0.0334 0.0
C1509 C 0.31071 0.01693 0.98433 0.0
C1510 C 0.31141 0.02427 0.00716 0.0
H1511 H 0.31154 0.98826 0.96145 0.0
H1512 H 0.3124 0.02918 0.97053 0.0
C1513 C 0.30985 0.00795 0.02474 0.0
C1514 C 0.81104 0.01864 0.48299 0.0
C1515 C 0.8115 0.02613 0.50578 0.0
H1516 H 0.81206 0.98983 0.4603 0.0
C1517 C 0.80969 0.00992 0.52344 0.0
H1518 H 0.81294 0.03079 0.46913 0.0
C1519 C 0.81 0.98649 0.51844 0.0
C1520 C 0.81127 0.97898 0.49568 0.0
H1521 H 0.81059 0.01529 0.54116 0.0
H1522 H 0.8111 0.9743 0.53235 0.0
C1523 C 0.81051 0.99522 0.47797 0.0
C1524 C 0.25869 0.05942 0.72954 0.0
C1525 C 0.27506 0.06093 0.74708 0.0
H1526 H 0.223 0.06115 0.72095 0.0
C1527 C 0.26776 0.06026 0.76993 0.0
H1528 H 0.26391 0.06049 0.71179 0.0
C1529 C 0.24438 0.05981 0.77514 0.0
C1530 C 0.228 0.06088 0.75759 0.0
H1531 H 0.28005 0.06192 0.7837 0.0
H1532 H 0.23915 0.0612 0.79288 0.0
C1533 C 0.2353 0.05981 0.73475 0.0
C1534 C 0.19311 0.48588 0.9832 0.0
C1535 C 0.19231 0.47853 0.00603 0.0
H1536 H 0.19228 0.51453 0.96031 0.0
C1537 C 0.1937 0.49487 0.02361 0.0
H1538 H 0.19154 0.47362 0.96939 0.0
C1539 C 0.1933 0.51826 0.01845 0.0
C1540 C 0.19236 0.52561 0.99563 0.0
H1541 H 0.19252 0.48961 0.04135 0.0
H1542 H 0.19188 0.53053 0.03227 0.0
C1543 C 0.19356 0.50928 0.97804 0.0
C1544 C 0.25813 0.94192 0.27491 0.0
C1545 C 0.27447 0.94094 0.25731 0.0
H1546 H 0.22249 0.93971 0.28355 0.0
C1547 C 0.26712 0.94204 0.23449 0.0
H1548 H 0.26341 0.9405 0.29262 0.0
C1549 C 0.24372 0.9424 0.22934 0.0
C1550 C 0.22739 0.94081 0.24692 0.0
H1551 H 0.27939 0.94077 0.22066 0.0
H1552 H 0.23846 0.94136 0.2116 0.0
C1553 C 0.23474 0.94144 0.26975 0.0
C1554 C 0.69388 0.99331 0.02412 0.0
C1555 C 0.69235 0.97704 0.0065 0.0
H1556 H 0.69206 0.02894 0.03292 0.0
C1557 C 0.69292 0.98447 0.98368 0.0
H1558 H 0.69289 0.98799 0.04185 0.0
C1559 C 0.69327 0.00788 0.9786 0.0
C1560 C 0.6922 0.02415 0.99626 0.0
H1561 H 0.69124 0.97225 0.96985 0.0
H1562 H 0.6918 0.0132 0.9609 0.0
C1563 C 0.69338 0.01673 0.01905 0.0
C1564 C 0.26864 0.44179 0.73404 0.0
C1565 C 0.27596 0.44112 0.75688 0.0
H1566 H 0.24001 0.44087 0.71112 0.0
C1567 C 0.25961 0.44265 0.77444 0.0
H1568 H 0.28091 0.44012 0.72026 0.0
C1569 C 0.23621 0.44226 0.76926 0.0
C1570 C 0.22889 0.4412 0.74643 0.0
H1571 H 0.26484 0.44159 0.79219 0.0
H1572 H 0.22393 0.44094 0.78307 0.0
C1573 C 0.24525 0.44225 0.72885 0.0
C1574 C 0.74437 0.06118 0.27372 0.0
C1575 C 0.72806 0.06255 0.25611 0.0
H1576 H 0.78001 0.06305 0.28244 0.0
C1577 C 0.73545 0.0618 0.23329 0.0
H1578 H 0.73907 0.06232 0.29145 0.0
C1579 C 0.75886 0.0614 0.22817 0.0
C1580 C 0.77516 0.06259 0.24579 0.0
H1581 H 0.72321 0.06335 0.21947 0.0
H1582 H 0.76415 0.0627 0.21045 0.0
C1583 C 0.76777 0.06163 0.2686 0.0
C1584 C 0.94308 0.77491 0.75774 0.0
C1585 C 0.94216 0.75733 0.77411 0.0
H1586 H 0.94081 0.78347 0.72209 0.0
C1587 C 0.94332 0.73451 0.7668 0.0
H1588 H 0.94162 0.79263 0.76298 0.0
C1589 C 0.94367 0.72931 0.74341 0.0
C1590 C 0.94201 0.74685 0.72705 0.0
H1591 H 0.94211 0.7207 0.7791 0.0
H1592 H 0.94268 0.71155 0.73819 0.0
C1593 C 0.94259 0.7697 0.73436 0.0
C1594 C 0.06026 0.76967 0.2681 0.0
C1595 C 0.06085 0.74689 0.27562 0.0
H1596 H 0.06113 0.79231 0.23925 0.0
C1597 C 0.05911 0.72919 0.25945 0.0
H1598 H 0.06209 0.78355 0.28023 0.0
C1599 C 0.05938 0.73416 0.236 0.0
C1600 C 0.06053 0.75691 0.22846 0.0
H1601 H 0.0601 0.71149 0.26484 0.0
H1602 H 0.06054 0.72023 0.22384 0.0
C1603 C 0.05967 0.77464 0.24467 0.0
C1604 C 0.56038 0.73317 0.73526 0.0
C1605 C 0.56092 0.756 0.72788 0.0
H1606 H 0.56138 0.71033 0.76394 0.0
C1607 C 0.55919 0.77358 0.74418 0.0
H1608 H 0.5622 0.71936 0.72303 0.0
C1609 C 0.55954 0.76846 0.76759 0.0
C1610 C 0.56075 0.74566 0.77497 0.0
H1611 H 0.56014 0.79132 0.73891 0.0
H1612 H 0.56071 0.78231 0.77984 0.0
C1613 C 0.55988 0.72803 0.75865 0.0
C1614 C 0.4422 0.72792 0.2451 0.0
C1615 C 0.44151 0.74551 0.22874 0.0
H1616 H 0.43975 0.71934 0.28074 0.0
C1617 C 0.44282 0.76832 0.23608 0.0
H1618 H 0.44062 0.71022 0.23984 0.0
C1619 C 0.44314 0.77349 0.25948 0.0
C1620 C 0.44128 0.75595 0.27582 0.0
H1621 H 0.44177 0.78215 0.22379 0.0
H1622 H 0.44228 0.79125 0.26472 0.0
C1623 C 0.44168 0.73311 0.26849 0.0
C1624 C 0.23396 0.73453 0.06075 0.0
C1625 C 0.25687 0.72743 0.06147 0.0
H1626 H 0.21076 0.76293 0.06178 0.0
C1627 C 0.27427 0.74396 0.06015 0.0
H1628 H 0.22029 0.72211 0.06227 0.0
C1629 C 0.26886 0.76729 0.06069 0.0
C1630 C 0.24596 0.77439 0.0617 0.0
H1631 H 0.29207 0.73889 0.06126 0.0
H1632 H 0.28254 0.7797 0.06215 0.0
C1633 C 0.22854 0.75787 0.06044 0.0
C1634 C 0.77423 0.74426 0.56008 0.0
C1635 C 0.75666 0.7279 0.56132 0.0
H1636 H 0.78284 0.77991 0.56214 0.0
C1637 C 0.73382 0.73523 0.56046 0.0
H1638 H 0.79196 0.73901 0.56131 0.0
C1639 C 0.72864 0.75862 0.56012 0.0
C1640 C 0.74621 0.77497 0.56148 0.0
H1641 H 0.72002 0.72295 0.56192 0.0
H1642 H 0.7109 0.76386 0.56136 0.0
C1643 C 0.76904 0.76765 0.56059 0.0
C1644 C 0.22867 0.74466 0.44391 0.0
C1645 C 0.24622 0.7283 0.44242 0.0
H1646 H 0.22008 0.78035 0.44223 0.0
C1647 C 0.26907 0.7356 0.44324 0.0
H1648 H 0.21093 0.73944 0.44273 0.0
C1649 C 0.27428 0.75898 0.44379 0.0
C1650 C 0.25672 0.77536 0.44267 0.0
H1651 H 0.28285 0.72332 0.4416 0.0
H1652 H 0.29201 0.76421 0.4425 0.0
C1653 C 0.23388 0.76805 0.44361 0.0
C1654 C 0.76919 0.73531 0.94258 0.0
C1655 C 0.74628 0.72824 0.9416 0.0
H1656 H 0.79243 0.76369 0.94185 0.0
C1657 C 0.72888 0.74478 0.94276 0.0
H1658 H 0.78287 0.72288 0.94119 0.0
C1659 C 0.73432 0.76811 0.94232 0.0
C1660 C 0.75724 0.77518 0.94156 0.0
H1661 H 0.7111 0.73972 0.94144 0.0
H1662 H 0.72066 0.78053 0.94073 0.0
C1663 C 0.77463 0.75865 0.94299 0.0
C1664 C 0.30987 0.50854 0.52481 0.0
C1665 C 0.31107 0.52488 0.50723 0.0
H1666 H 0.31191 0.47289 0.53346 0.0
C1667 C 0.31019 0.51753 0.4844 0.0
H1668 H 0.31111 0.5138 0.54254 0.0
C1669 C 0.30983 0.49413 0.47924 0.0
C1670 C 0.3112 0.4778 0.49682 0.0
H1671 H 0.31163 0.5298 0.47059 0.0
H1672 H 0.31104 0.48888 0.4615 0.0
C1673 C 0.31035 0.48515 0.51965 0.0
C1674 C 0.81038 0.48544 0.01865 0.0
C1675 C 0.81112 0.47808 0.99582 0.0
H1676 H 0.81126 0.5141 0.04152 0.0
C1677 C 0.80967 0.4944 0.97824 0.0
H1678 H 0.81199 0.47319 0.03246 0.0
C1679 C 0.81008 0.5178 0.98338 0.0
C1680 C 0.81107 0.52516 0.0062 0.0
H1681 H 0.81079 0.48913 0.9605 0.0
H1682 H 0.81145 0.53006 0.96955 0.0
C1683 C 0.80993 0.50883 0.0238 0.0
C1684 C 0.25857 0.56132 0.22806 0.0
C1685 C 0.27494 0.56169 0.24565 0.0
H1686 H 0.22296 0.56421 0.21952 0.0
C1687 C 0.26759 0.56026 0.26846 0.0
H1688 H 0.26384 0.563 0.21037 0.0
C1689 C 0.24419 0.56015 0.27363 0.0
C1690 C 0.22787 0.56233 0.25612 0.0
H1691 H 0.2799 0.56108 0.28229 0.0
H1692 H 0.23897 0.5609 0.2914 0.0
C1693 C 0.23519 0.56204 0.23326 0.0
C1694 C 0.19208 0.99522 0.52546 0.0
C1695 C 0.19169 0.97879 0.50793 0.0
H1696 H 0.18933 0.03087 0.53388 0.0
C1697 C 0.19325 0.98605 0.48511 0.0
H1698 H 0.1903 0.99001 0.54317 0.0
C1699 C 0.1935 0.00943 0.47985 0.0
C1700 C 0.19133 0.02582 0.49731 0.0
H1701 H 0.19244 0.9737 0.47131 0.0
H1702 H 0.19284 0.01459 0.46206 0.0
C1703 C 0.19149 0.01857 0.52018 0.0
C1704 C 0.69223 0.50827 0.47857 0.0
C1705 C 0.69123 0.52463 0.49615 0.0
H1706 H 0.69008 0.47261 0.47 0.0
C1707 C 0.69236 0.51732 0.51897 0.0
H1708 H 0.69079 0.51351 0.46085 0.0
C1709 C 0.69277 0.49393 0.52416 0.0
C1710 C 0.6912 0.47757 0.50662 0.0
H1711 H 0.69108 0.52961 0.53278 0.0
H1712 H 0.69176 0.48871 0.54192 0.0
C1713 C 0.69179 0.48488 0.48377 0.0
C1714 C 0.73557 0.56069 0.73417 0.0
C1715 C 0.72824 0.56177 0.757 0.0
H1716 H 0.7642 0.56137 0.71124 0.0
C1717 C 0.7446 0.56077 0.77458 0.0
H1718 H 0.72328 0.56197 0.72036 0.0
C1719 C 0.76798 0.56125 0.76939 0.0
C1720 C 0.77531 0.56188 0.74655 0.0
H1721 H 0.73934 0.56217 0.7923 0.0
H1722 H 0.78025 0.56295 0.78318 0.0
C1723 C 0.75896 0.56032 0.729 0.0
C1724 C 0.48392 0.31023 0.51826 0.0
C1725 C 0.50675 0.31111 0.5256 0.0
H1726 H 0.46101 0.31107 0.48962 0.0
C1727 C 0.52433 0.3099 0.50925 0.0
H1728 H 0.47011 0.31167 0.53054 0.0
C1729 C 0.51915 0.31038 0.48585 0.0
C1730 C 0.49632 0.31123 0.47852 0.0
H1731 H 0.54206 0.31114 0.5145 0.0
H1732 H 0.53296 0.31193 0.47359 0.0
C1733 C 0.47875 0.30986 0.49487 0.0
C1734 C 0.48384 0.19204 0.98589 0.0
C1735 C 0.5067 0.19119 0.97862 0.0
H1736 H 0.46086 0.19131 0.01447 0.0
C1737 C 0.52423 0.19262 0.995 0.0
H1738 H 0.47007 0.19045 0.97359 0.0
C1739 C 0.51899 0.1923 0.01838 0.0
C1740 C 0.49614 0.19139 0.02566 0.0
H1741 H 0.54198 0.19142 0.9898 0.0
H1742 H 0.53277 0.1909 0.0307 0.0
C1743 C 0.47861 0.19256 0.00926 0.0
C1744 C 0.52374 0.69298 0.49439 0.0
C1745 C 0.50622 0.69139 0.478 0.0
H1746 H 0.53229 0.69134 0.53008 0.0
C1747 C 0.48336 0.69199 0.48527 0.0
H1748 H 0.5415 0.69197 0.48919 0.0
C1749 C 0.47812 0.69246 0.50865 0.0
C1750 C 0.49566 0.69148 0.52505 0.0
H1751 H 0.46961 0.69027 0.47297 0.0
H1752 H 0.46038 0.69103 0.51386 0.0
C1753 C 0.51851 0.6926 0.51777 0.0
C1754 C 0.51901 0.80965 0.98565 0.0
C1755 C 0.49611 0.81052 0.97854 0.0
H1756 H 0.5422 0.8106 0.01406 0.0
C1757 C 0.47869 0.80936 0.99506 0.0
H1758 H 0.5327 0.81106 0.97324 0.0
C1759 C 0.48409 0.80991 0.0184 0.0
C1760 C 0.507 0.81079 0.02551 0.0
H1761 H 0.46091 0.81059 0.98998 0.0
H1762 H 0.47041 0.81151 0.0308 0.0
C1763 C 0.52441 0.80937 0.009 0.0
C1764 C 0.485 0.01804 0.81127 0.0
C1765 C 0.47769 0.99521 0.81233 0.0
H1766 H 0.51362 0.04099 0.81194 0.0
C1767 C 0.49406 0.97764 0.81127 0.0
H1768 H 0.47271 0.03184 0.8126 0.0
C1769 C 0.51745 0.98284 0.81171 0.0
C1770 C 0.52475 0.00569 0.81237 0.0
H1771 H 0.48883 0.95991 0.81264 0.0
H1772 H 0.52973 0.96907 0.81336 0.0
C1773 C 0.50839 0.02324 0.81087 0.0
C1774 C 0.50841 0.52443 0.31049 0.0
C1775 C 0.52477 0.50685 0.31144 0.0
H1776 H 0.47276 0.53304 0.31276 0.0
C1777 C 0.51743 0.48403 0.31035 0.0
H1778 H 0.51367 0.54215 0.31189 0.0
C1779 C 0.49403 0.47885 0.31003 0.0
C1780 C 0.47769 0.49641 0.31166 0.0
H1781 H 0.52971 0.47021 0.3116 0.0
H1782 H 0.48879 0.4611 0.31107 0.0
C1783 C 0.48502 0.51925 0.31101 0.0
C1784 C 0.50974 0.97907 0.19321 0.0
C1785 C 0.52602 0.99665 0.19124 0.0
H1786 H 0.47407 0.97029 0.19197 0.0
C1787 C 0.51862 0.01947 0.19158 0.0
H1788 H 0.51503 0.96132 0.19241 0.0
C1789 C 0.49522 0.02459 0.19215 0.0
C1790 C 0.47891 0.00695 0.19157 0.0
H1791 H 0.53083 0.03327 0.18957 0.0
H1792 H 0.4899 0.04227 0.19051 0.0
C1793 C 0.48632 0.98416 0.19295 0.0
C1794 C 0.50845 0.47873 0.69302 0.0
C1795 C 0.52484 0.49627 0.69172 0.0
H1796 H 0.47277 0.47017 0.69112 0.0
C1797 C 0.51755 0.51912 0.69258 0.0
H1798 H 0.51367 0.46099 0.69179 0.0
C1799 C 0.49416 0.52434 0.69301 0.0
C1800 C 0.47778 0.5068 0.69174 0.0
H1801 H 0.52985 0.5329 0.69107 0.0
H1802 H 0.48895 0.54209 0.69178 0.0
C1803 C 0.48507 0.48395 0.6926 0.0
C1804 C 0.73514 0.94133 0.77001 0.0
C1805 C 0.72768 0.94097 0.74721 0.0
H1806 H 0.76392 0.94028 0.79273 0.0
C1807 C 0.74391 0.94291 0.72958 0.0
H1808 H 0.72297 0.93934 0.78385 0.0
C1809 C 0.76734 0.94263 0.73461 0.0
C1810 C 0.77481 0.94127 0.75737 0.0
H1811 H 0.73857 0.94209 0.71185 0.0
H1812 H 0.77955 0.94164 0.7207 0.0
C1813 C 0.75856 0.9419 0.77506 0.0
C1814 C 0.75866 0.44321 0.27383 0.0
C1815 C 0.77505 0.44218 0.25628 0.0
H1816 H 0.723 0.44096 0.2824 0.0
C1817 C 0.76775 0.44312 0.23344 0.0
H1818 H 0.76389 0.44191 0.29157 0.0
C1819 C 0.74435 0.44339 0.22823 0.0
C1820 C 0.72799 0.44187 0.24577 0.0
H1821 H 0.78005 0.44181 0.21965 0.0
H1822 H 0.73915 0.44224 0.21048 0.0
C1823 C 0.73528 0.44264 0.26862 0.0
C1824 C 0.02565 0.2571 0.13904 0.0
C1825 C 0.02576 0.25873 0.11506 0.0
H1826 H 0.00896 0.24305 0.16856 0.0
C1827 C 0.01254 0.24335 0.10229 0.0
H1828 H 0.03523 0.26927 0.14923 0.0
C1829 C 0.99746 0.22838 0.11337 0.0
C1830 C 0.9955 0.22859 0.13733 0.0
H1831 H 0.01182 0.24477 0.08382 0.0
H1832 H 0.98549 0.21859 0.10315 0.0
C1833 C 0.01063 0.24209 0.15012 0.0
C1834 C 0.01058 0.26245 0.35194 0.0
C1835 C 0.99546 0.27604 0.36465 0.0
H1836 H 0.03508 0.23519 0.35296 0.0
C1837 C 0.9973 0.27626 0.38861 0.0
H1838 H 0.00898 0.26148 0.3335 0.0
C1839 C 0.01227 0.26124 0.39978 0.0
C1840 C 0.0255 0.24579 0.38708 0.0
H1841 H 0.98534 0.28612 0.39877 0.0
H1842 H 0.01147 0.25985 0.41824 0.0
C1843 C 0.0255 0.24739 0.3631 0.0
C1844 C 0.9914 0.26084 0.60319 0.0
C1845 C 0.97812 0.2453 0.61571 0.0
H1846 H 0.01837 0.28566 0.60451 0.0
C1847 C 0.97807 0.24666 0.6397 0.0
H1848 H 0.99224 0.25963 0.58472 0.0
C1849 C 0.99299 0.26157 0.65105 0.0
C1850 C 0.00816 0.27525 0.63851 0.0
H1851 H 0.96844 0.23436 0.64969 0.0
H1852 H 0.99455 0.2604 0.66948 0.0
C1853 C 0.00636 0.27573 0.61454 0.0
C1854 C 0.97734 0.25551 0.86396 0.0
C1855 C 0.97735 0.25744 0.88792 0.0
H1856 H 0.99398 0.24119 0.83453 0.0
C1857 C 0.99073 0.24229 0.90081 0.0
H1858 H 0.96764 0.26749 0.85367 0.0
C1859 C 0.00585 0.22729 0.88984 0.0
C1860 C 0.00768 0.22722 0.86587 0.0
H1861 H 0.99154 0.24395 0.91925 0.0
H1862 H 0.01792 0.2177 0.90012 0.0
C1863 C 0.9924 0.24044 0.85298 0.0
C1864 C 0.01334 0.76132 0.89926 0.0
C1865 C 0.02648 0.7458 0.88655 0.0
H1866 H 0.98642 0.78621 0.89828 0.0
C1867 C 0.02638 0.74732 0.86257 0.0
H1868 H 0.01263 0.76 0.91773 0.0
C1869 C 0.01142 0.76234 0.85142 0.0
C1870 C 0.99636 0.77597 0.86415 0.0
H1871 H 0.0359 0.73506 0.85244 0.0
H1872 H 0.00973 0.76129 0.83299 0.0
C1873 C 0.99834 0.77631 0.88811 0.0
C1874 C 0.49189 0.26263 0.15034 0.0
C1875 C 0.50706 0.27595 0.13741 0.0
H1876 H 0.4673 0.23543 0.14973 0.0
C1877 C 0.50515 0.27587 0.11345 0.0
H1878 H 0.49353 0.2619 0.16878 0.0
C1879 C 0.4901 0.26077 0.10252 0.0
C1880 C 0.47686 0.24553 0.11545 0.0
H1881 H 0.51715 0.28553 0.10313 0.0
H1882 H 0.49087 0.25912 0.08407 0.0
C1883 C 0.4769 0.24747 0.13941 0.0
C1884 C 0.97687 0.75609 0.36402 0.0
C1885 C 0.97693 0.75795 0.38799 0.0
H1886 H 0.99343 0.74186 0.33452 0.0
C1887 C 0.99033 0.74276 0.40081 0.0
H1888 H 0.96714 0.7681 0.35379 0.0
C1889 C 0.00542 0.72779 0.38975 0.0
C1890 C 0.00721 0.72779 0.36578 0.0
H1891 H 0.99117 0.74436 0.41925 0.0
H1892 H 0.01752 0.71817 0.39998 0.0
C1893 C 0.9919 0.74105 0.35297 0.0
C1894 C 0.5122 0.24193 0.60307 0.0
C1895 C 0.52555 0.25722 0.61583 0.0
H1896 H 0.48514 0.2172 0.60401 0.0
C1897 C 0.52566 0.25543 0.6398 0.0
H1898 H 0.51132 0.24348 0.58462 0.0
C1899 C 0.51072 0.24035 0.65091 0.0
C1900 C 0.49546 0.22696 0.63816 0.0
H1901 H 0.53535 0.26751 0.64998 0.0
H1902 H 0.5092 0.2412 0.66937 0.0
C1903 C 0.49721 0.22691 0.61419 0.0
C1904 C 0.10221 0.01163 0.24285 0.0
C1905 C 0.11495 0.02499 0.25814 0.0
H1906 H 0.10315 0.98452 0.21817 0.0
C1907 C 0.13893 0.02503 0.25642 0.0
H1908 H 0.08375 0.0108 0.24434 0.0
C1909 C 0.15005 0.01003 0.24141 0.0
C1910 C 0.1373 0.99478 0.22801 0.0
H1911 H 0.1491 0.03472 0.26851 0.0
H1912 H 0.1685 0.00847 0.24231 0.0
C1913 C 0.11333 0.99658 0.22789 0.0
C1914 C 0.24109 0.35203 0.4926 0.0
C1915 C 0.22761 0.3646 0.50792 0.0
H1916 H 0.26819 0.35329 0.46793 0.0
C1917 C 0.22731 0.38858 0.50625 0.0
H1918 H 0.24212 0.33358 0.49406 0.0
C1919 C 0.24221 0.39988 0.49127 0.0
C1920 C 0.2576 0.38732 0.47786 0.0
H1921 H 0.21752 0.39862 0.51837 0.0
H1922 H 0.24358 0.41834 0.49222 0.0
C1923 C 0.25602 0.36333 0.47766 0.0
C1924 C 0.85307 0.4926 0.7407 0.0
C1925 C 0.8657 0.50808 0.72746 0.0
H1926 H 0.8542 0.46771 0.76761 0.0
C1927 C 0.88969 0.50654 0.7274 0.0
H1928 H 0.8346 0.49395 0.74154 0.0
C1929 C 0.90092 0.4915 0.74228 0.0
C1930 C 0.88827 0.47789 0.75742 0.0
H1931 H 0.89977 0.51878 0.7178 0.0
H1932 H 0.91936 0.49253 0.74384 0.0
C1933 C 0.8643 0.4776 0.75562 0.0
C1934 C 0.76215 0.15031 0.99177 0.0
C1935 C 0.77564 0.13788 0.0072 0.0
H1936 H 0.73504 0.14882 0.96712 0.0
C1937 C 0.77592 0.11389 0.00576 0.0
H1938 H 0.76114 0.16878 0.99305 0.0
C1939 C 0.761 0.10245 0.99091 0.0
C1940 C 0.74562 0.11489 0.97737 0.0
H1941 H 0.78572 0.10396 0.01796 0.0
H1942 H 0.75962 0.084 0.99204 0.0
C1943 C 0.7472 0.13887 0.97695 0.0
C1944 C 0.14977 0.99176 0.76304 0.0
C1945 C 0.13718 0.00738 0.77617 0.0
H1946 H 0.14862 0.96683 0.73617 0.0
C1947 C 0.11318 0.00604 0.77606 0.0
H1948 H 0.16826 0.99295 0.76233 0.0
C1949 C 0.10193 0.99107 0.76113 0.0
C1950 C 0.11456 0.97731 0.7461 0.0
H1951 H 0.10314 0.01837 0.78557 0.0
H1952 H 0.08351 0.99225 0.75944 0.0
C1953 C 0.13851 0.97682 0.74807 0.0
C1954 C 0.26131 0.40036 0.0119 0.0
C1955 C 0.2458 0.3879 0.02528 0.0
H1956 H 0.28618 0.39891 0.98498 0.0
C1957 C 0.24729 0.36391 0.02557 0.0
H1958 H 0.26001 0.41882 0.01088 0.0
C1959 C 0.26228 0.35249 0.01077 0.0
C1960 C 0.27591 0.36496 0.9955 0.0
H1961 H 0.23503 0.35396 0.03527 0.0
H1962 H 0.2612 0.33404 0.00939 0.0
C1963 C 0.27627 0.38894 0.99707 0.0
C1964 C 0.86405 0.52655 0.24628 0.0
C1965 C 0.88803 0.52633 0.24457 0.0
H1966 H 0.83436 0.51022 0.26039 0.0
C1967 C 0.90067 0.51291 0.25989 0.0
H1968 H 0.85396 0.53628 0.23416 0.0
C1969 C 0.88943 0.49797 0.27487 0.0
C1970 C 0.86545 0.49633 0.27473 0.0
H1971 H 0.91912 0.51194 0.2584 0.0
H1972 H 0.89953 0.48586 0.28462 0.0
C1973 C 0.85282 0.51165 0.2613 0.0
C1974 C 0.7425 0.10392 0.51141 0.0
C1975 C 0.75794 0.1166 0.52466 0.0
H1976 H 0.71766 0.10496 0.48445 0.0
C1977 C 0.75635 0.14058 0.52468 0.0
H1978 H 0.7439 0.08545 0.51059 0.0
C1979 C 0.7413 0.15176 0.50976 0.0
C1980 C 0.72774 0.13907 0.49462 0.0
H1981 H 0.76855 0.1507 0.53429 0.0
H1982 H 0.74228 0.1702 0.50818 0.0
C1983 C 0.7275 0.1151 0.49644 0.0
C1984 C 0.22735 0.11309 0.99792 0.0
C1985 C 0.22752 0.13707 0.99626 0.0
H1986 H 0.24375 0.0834 0.01194 0.0
C1987 C 0.24092 0.14971 0.0116 0.0
H1988 H 0.21762 0.10301 0.98579 0.0
C1989 C 0.2559 0.13847 0.02654 0.0
C1990 C 0.25759 0.11449 0.02634 0.0
H1991 H 0.24185 0.16816 0.01016 0.0
H1992 H 0.26801 0.14856 0.03629 0.0
C1993 C 0.24228 0.10185 0.0129 0.0
C1994 C 0.72735 0.88971 0.50687 0.0
C1995 C 0.72732 0.86572 0.50825 0.0
H1996 H 0.74382 0.91943 0.493 0.0
C1997 C 0.74048 0.85315 0.49263 0.0
H1998 H 0.71782 0.89974 0.51922 0.0
C1999 C 0.75538 0.86444 0.47764 0.0
C2000 C 0.75725 0.8884 0.47808 0.0
H2001 H 0.74126 0.83467 0.49385 0.0
H2002 H 0.76729 0.85437 0.46763 0.0
C2003 C 0.7422 0.901 0.49185 0.0
C2004 C 0.38925 0.00539 0.72821 0.0
C2005 C 0.36528 0.00706 0.72817 0.0
H2006 H 0.41879 0.99123 0.74477 0.0
C2007 C 0.35251 0.99167 0.74138 0.0
H2008 H 0.39944 0.01756 0.71863 0.0
C2009 C 0.3636 0.97663 0.75638 0.0
C2010 C 0.38757 0.97678 0.75826 0.0
H2011 H 0.33405 0.99312 0.74215 0.0
H2012 H 0.3534 0.96682 0.76834 0.0
C2013 C 0.40035 0.99031 0.74315 0.0
C2014 C 0.24814 0.63967 0.97691 0.0
C2015 C 0.24632 0.61571 0.97686 0.0
H2016 H 0.26234 0.66912 0.9936 0.0
C2017 C 0.26156 0.60285 0.99016 0.0
H2018 H 0.23609 0.64993 0.96726 0.0
C2019 C 0.27654 0.61385 0.00528 0.0
C2020 C 0.2765 0.63781 0.00719 0.0
H2021 H 0.25999 0.58439 0.99092 0.0
H2022 H 0.2862 0.60358 0.01731 0.0
C2023 C 0.26318 0.65067 0.99197 0.0
C2024 C 0.74822 0.86308 0.02571 0.0
C2025 C 0.74641 0.88705 0.02573 0.0
H2026 H 0.76249 0.83361 0.00913 0.0
C2027 C 0.76174 0.89988 0.01249 0.0
H2028 H 0.73611 0.85284 0.03531 0.0
C2029 C 0.7768 0.88885 0.99747 0.0
C2030 C 0.77674 0.86489 0.99559 0.0
H2031 H 0.76019 0.91833 0.01171 0.0
H2032 H 0.78653 0.8991 0.98548 0.0
C2033 C 0.76333 0.85205 0.01075 0.0
C2034 C 0.38977 0.49702 0.77605 0.0
C2035 C 0.3658 0.49516 0.77611 0.0
H2036 H 0.41918 0.51135 0.75941 0.0
C2037 C 0.35291 0.51043 0.76286 0.0
H2038 H 0.40005 0.48496 0.78565 0.0
C2039 C 0.36388 0.52549 0.7478 0.0
C2040 C 0.38784 0.52551 0.74589 0.0
H2041 H 0.33446 0.50883 0.76211 0.0
H2042 H 0.35359 0.53518 0.73581 0.0
C2043 C 0.40074 0.51214 0.76105 0.0
C2044 C 0.64012 0.978 0.24673 0.0
C2045 C 0.61614 0.97785 0.24504 0.0
H2046 H 0.66957 0.99478 0.26081 0.0
C2047 C 0.60331 0.99109 0.26036 0.0
H2048 H 0.65035 0.9684 0.23462 0.0
C2049 C 0.61433 0.00623 0.27531 0.0
C2050 C 0.63828 0.00822 0.27515 0.0
H2051 H 0.58484 0.99178 0.25888 0.0
H2052 H 0.60406 0.01821 0.28504 0.0
C2053 C 0.65114 0.99307 0.26173 0.0
C2054 C 0.02627 0.75528 0.63844 0.0
C2055 C 0.02595 0.75733 0.6145 0.0
H2056 H 0.0099 0.74097 0.66803 0.0
C2057 C 0.01225 0.74237 0.60172 0.0
H2058 H 0.03623 0.76712 0.64865 0.0
C2059 C 0.99715 0.72746 0.61282 0.0
C2060 C 0.99564 0.72729 0.63681 0.0
H2061 H 0.0112 0.74413 0.5833 0.0
H2062 H 0.98485 0.71803 0.60266 0.0
C2063 C 0.01122 0.7403 0.64955 0.0
C2064 C 0.00524 0.77612 0.11365 0.0
C2065 C 0.00677 0.77562 0.13763 0.0
H2066 H 0.99143 0.7601 0.08365 0.0
C2067 C 0.99136 0.76203 0.14999 0.0
H2068 H 0.01743 0.78599 0.10377 0.0
C2069 C 0.97648 0.74721 0.13846 0.0
C2070 C 0.97684 0.74584 0.11446 0.0
H2071 H 0.99269 0.76084 0.16844 0.0
H2072 H 0.96667 0.73497 0.14833 0.0
C2073 C 0.99035 0.76132 0.10212 0.0
C2074 C 0.47676 0.74744 0.63914 0.0
C2075 C 0.47704 0.74556 0.61518 0.0
H2076 H 0.49316 0.76159 0.66878 0.0
C2077 C 0.49066 0.76065 0.60247 0.0
H2078 H 0.46686 0.7355 0.64929 0.0
C2079 C 0.50574 0.77553 0.61364 0.0
C2080 C 0.50731 0.77554 0.63763 0.0
H2081 H 0.49167 0.75902 0.58403 0.0
H2082 H 0.51799 0.78507 0.60352 0.0
C2083 C 0.49179 0.76238 0.65031 0.0
C2084 C 0.51085 0.74115 0.15125 0.0
C2085 C 0.49585 0.72744 0.13855 0.0
H2086 H 0.53531 0.76845 0.15018 0.0
C2087 C 0.49786 0.72702 0.1146 0.0
H2088 H 0.50912 0.74227 0.16967 0.0
C2089 C 0.51288 0.74197 0.10341 0.0
C2090 C 0.52599 0.75754 0.11608 0.0
H2091 H 0.48598 0.71705 0.10444 0.0
H2092 H 0.51221 0.74321 0.08493 0.0
C2093 C 0.52582 0.75614 0.14007 0.0
C2094 C 0.13992 0.52552 0.7556 0.0
C2095 C 0.11595 0.52532 0.75729 0.0
H2096 H 0.16963 0.50908 0.74164 0.0
C2097 C 0.10332 0.51179 0.74205 0.0
H2098 H 0.15001 0.53535 0.76765 0.0
C2099 C 0.11457 0.49674 0.7272 0.0
C2100 C 0.13855 0.49509 0.72738 0.0
H2101 H 0.08487 0.51084 0.74353 0.0
H2102 H 0.10448 0.48455 0.71753 0.0
C2103 C 0.15117 0.51051 0.7407 0.0
C2104 C 0.24009 0.85193 0.99271 0.0
C2105 C 0.2268 0.86464 0.0081 0.0
H2106 H 0.26715 0.85292 0.96798 0.0
C2107 C 0.22681 0.88862 0.00649 0.0
H2108 H 0.24088 0.83347 0.99411 0.0
C2109 C 0.2418 0.89977 0.99151 0.0
C2110 C 0.257 0.88705 0.97802 0.0
H2111 H 0.21717 0.89875 0.01865 0.0
H2112 H 0.24341 0.91821 0.9925 0.0
C2113 C 0.25513 0.86309 0.97777 0.0
C2114 C 0.86347 0.97818 0.25542 0.0
C2115 C 0.88743 0.97824 0.25741 0.0
H2116 H 0.83403 0.99477 0.24108 0.0
C2117 C 0.90032 0.99173 0.24235 0.0
H2118 H 0.85318 0.96839 0.26734 0.0
C2119 C 0.88934 0.00687 0.22738 0.0
C2120 C 0.86536 0.00862 0.22724 0.0
H2121 H 0.91875 0.99258 0.24405 0.0
H2122 H 0.89961 0.01901 0.21785 0.0
C2123 C 0.85249 0.99326 0.24039 0.0
C2124 C 0.77539 0.61346 0.50601 0.0
C2125 C 0.77532 0.63744 0.5076 0.0
H2126 H 0.75888 0.58381 0.49203 0.0
C2127 C 0.76198 0.6501 0.49222 0.0
H2128 H 0.78506 0.60336 0.51817 0.0
C2129 C 0.74697 0.63888 0.47729 0.0
C2130 C 0.74519 0.61492 0.47754 0.0
H2131 H 0.76114 0.66856 0.49361 0.0
H2132 H 0.73492 0.64901 0.46749 0.0
C2133 C 0.76042 0.60225 0.49103 0.0
C2134 C 0.10278 0.49198 0.25994 0.0
C2135 C 0.1156 0.47865 0.24468 0.0
H2136 H 0.10363 0.519 0.28472 0.0
C2137 C 0.13956 0.47854 0.24655 0.0
H2138 H 0.08434 0.49286 0.25834 0.0
C2139 C 0.15062 0.49345 0.26169 0.0
C2140 C 0.13782 0.50869 0.27506 0.0
H2141 H 0.14978 0.46887 0.23449 0.0
H2142 H 0.16908 0.49497 0.26092 0.0
C2143 C 0.11385 0.50695 0.27503 0.0
C2144 C 0.26106 0.9012 0.51263 0.0
C2145 C 0.246 0.88857 0.52635 0.0
H2146 H 0.28547 0.89999 0.48529 0.0
C2147 C 0.24791 0.86461 0.52679 0.0
H2148 H 0.25941 0.91962 0.5115 0.0
C2149 C 0.26284 0.85335 0.51181 0.0
C2150 C 0.27598 0.86594 0.4962 0.0
H2151 H 0.23599 0.85452 0.53677 0.0
H2152 H 0.26206 0.83487 0.51057 0.0
C2153 C 0.27595 0.88993 0.49762 0.0
C2154 C 0.85203 0.01052 0.76108 0.0
C2155 C 0.86486 0.99576 0.77493 0.0
H2156 H 0.85289 0.03471 0.73354 0.0
C2157 C 0.88879 0.99797 0.77532 0.0
H2158 H 0.83362 0.00863 0.75998 0.0
C2159 C 0.89985 0.01293 0.76022 0.0
C2160 C 0.88707 0.02577 0.74451 0.0
H2161 H 0.89905 0.98627 0.78539 0.0
H2162 H 0.91834 0.0124 0.75897 0.0
C2163 C 0.86308 0.02542 0.74593 0.0
C2164 C 0.75548 0.6394 0.02567 0.0
C2165 C 0.75717 0.61543 0.02541 0.0
H2166 H 0.74139 0.66913 0.00938 0.0
C2167 C 0.74182 0.60282 0.01201 0.0
H2168 H 0.76762 0.64948 0.0354 0.0
C2169 C 0.72683 0.61408 0.99709 0.0
C2170 C 0.72701 0.63806 0.99547 0.0
H2171 H 0.74328 0.58437 0.01101 0.0
H2172 H 0.71707 0.60401 0.98498 0.0
C2173 C 0.74045 0.65067 0.01079 0.0
C2174 C 0.24021 0.65026 0.51119 0.0
C2175 C 0.22708 0.63765 0.49559 0.0
H2176 H 0.26704 0.64913 0.53616 0.0
C2177 C 0.22713 0.61366 0.49702 0.0
H2178 H 0.24097 0.66874 0.50993 0.0
C2179 C 0.242 0.60242 0.51205 0.0
C2180 C 0.25704 0.61506 0.52579 0.0
H2181 H 0.21761 0.6036 0.48469 0.0
H2182 H 0.24365 0.58399 0.51094 0.0
C2183 C 0.25513 0.63902 0.52619 0.0
C2184 C 0.74192 0.40083 0.98994 0.0
C2185 C 0.75719 0.38806 0.97657 0.0
H2186 H 0.71722 0.39991 0.01702 0.0
C2187 C 0.75537 0.36409 0.97645 0.0
H2188 H 0.74349 0.41927 0.99082 0.0
C2189 C 0.7403 0.35299 0.99141 0.0
C2190 C 0.72694 0.36575 0.00669 0.0
H2191 H 0.76744 0.3539 0.96675 0.0
H2192 H 0.74113 0.33453 0.99292 0.0
C2193 C 0.7269 0.38972 0.00494 0.0
C2194 C 0.3523 0.49213 0.24145 0.0
C2195 C 0.36507 0.5071 0.22776 0.0
H2196 H 0.35325 0.46777 0.26883 0.0
C2197 C 0.38902 0.50507 0.22745 0.0
H2198 H 0.33388 0.49387 0.24249 0.0
C2199 C 0.40014 0.4901 0.2425 0.0
C2200 C 0.3874 0.47706 0.25806 0.0
H2201 H 0.39923 0.51692 0.2175 0.0
H2202 H 0.41861 0.49078 0.24382 0.0
C2203 C 0.36341 0.47721 0.25654 0.0
C2204 C 0.26058 0.10232 0.49084 0.0
C2205 C 0.24541 0.11528 0.47755 0.0
H2206 H 0.28523 0.10288 0.51799 0.0
C2207 C 0.24737 0.13923 0.47762 0.0
H2208 H 0.25891 0.08387 0.49158 0.0
C2209 C 0.26248 0.15013 0.49268 0.0
C2210 C 0.27573 0.13717 0.50789 0.0
H2211 H 0.23538 0.14957 0.46799 0.0
H2212 H 0.26176 0.16858 0.49433 0.0
C2213 C 0.27563 0.11322 0.50596 0.0
C2214 C 0.76252 0.35309 0.51041 0.0
C2215 C 0.77576 0.36609 0.49522 0.0
H2216 H 0.73542 0.35357 0.53511 0.0
C2217 C 0.77563 0.39004 0.49719 0.0
H2218 H 0.76183 0.33464 0.50872 0.0
C2219 C 0.76057 0.4009 0.51235 0.0
C2220 C 0.74542 0.38789 0.52562 0.0
H2221 H 0.78522 0.40041 0.48519 0.0
H2222 H 0.75888 0.41934 0.51165 0.0
C2223 C 0.7474 0.36394 0.52549 0.0
C2224 C 0.36421 0.02512 0.24733 0.0
C2225 C 0.38819 0.02471 0.24565 0.0
H2226 H 0.33436 0.00895 0.26129 0.0
C2227 C 0.40069 0.01104 0.26087 0.0
H2228 H 0.35422 0.03504 0.23528 0.0
C2229 C 0.38931 0.9961 0.27573 0.0
C2230 C 0.36531 0.99469 0.27557 0.0
H2231 H 0.41913 0.00992 0.25939 0.0
H2232 H 0.39928 0.98384 0.28541 0.0
C2233 C 0.35283 0.0102 0.26223 0.0
C2234 C 0.60276 0.49085 0.76092 0.0
C2235 C 0.61538 0.47757 0.74546 0.0
H2236 H 0.6039 0.51783 0.78574 0.0
C2237 C 0.63937 0.47753 0.74697 0.0
H2238 H 0.58429 0.49167 0.7596 0.0
C2239 C 0.65062 0.49246 0.76195 0.0
C2240 C 0.63797 0.50763 0.77555 0.0
H2241 H 0.64944 0.4679 0.73474 0.0
H2242 H 0.66905 0.49403 0.7609 0.0
C2243 C 0.61401 0.50582 0.77587 0.0
C2244 C 0.51123 0.26127 0.85301 0.0
C2245 C 0.4961 0.27491 0.86566 0.0
H2246 H 0.53567 0.23396 0.85416 0.0
C2247 C 0.49792 0.27521 0.88962 0.0
H2248 H 0.50966 0.26024 0.83457 0.0
C2249 C 0.51283 0.2602 0.90086 0.0
C2250 C 0.52604 0.24468 0.88823 0.0
H2251 H 0.48594 0.28512 0.89973 0.0
H2252 H 0.51198 0.25885 0.91932 0.0
C2253 C 0.5261 0.24622 0.86424 0.0
C2254 C 0.49194 0.24129 0.3525 0.0
C2255 C 0.50731 0.22776 0.36498 0.0
H2256 H 0.46727 0.26837 0.35395 0.0
C2257 C 0.50573 0.22739 0.38896 0.0
H2258 H 0.49333 0.24237 0.33405 0.0
C2259 C 0.4908 0.24225 0.40037 0.0
C2260 C 0.47733 0.25768 0.38791 0.0
H2261 H 0.51789 0.21757 0.39892 0.0
H2262 H 0.49182 0.24357 0.41883 0.0
C2263 C 0.47705 0.25618 0.36392 0.0
C2264 C 0.51059 0.76217 0.35296 0.0
C2265 C 0.49528 0.77549 0.36573 0.0
H2266 H 0.53531 0.7351 0.35387 0.0
C2267 C 0.49706 0.77557 0.3897 0.0
H2268 H 0.50905 0.76132 0.33451 0.0
C2269 C 0.51211 0.76061 0.4008 0.0
C2270 C 0.5255 0.74536 0.38803 0.0
H2271 H 0.48496 0.78523 0.39988 0.0
H2272 H 0.51125 0.75906 0.41925 0.0
C2273 C 0.52559 0.74716 0.36406 0.0
C2274 C 0.49163 0.74014 0.85295 0.0
C2275 C 0.50701 0.72671 0.86551 0.0
H2276 H 0.46687 0.76716 0.85423 0.0
C2277 C 0.50537 0.72643 0.88949 0.0
H2278 H 0.49305 0.74115 0.8345 0.0
C2279 C 0.49037 0.74129 0.90081 0.0
C2280 C 0.47689 0.75663 0.88825 0.0
H2281 H 0.51753 0.71669 0.89952 0.0
H2282 H 0.49134 0.74269 0.91926 0.0
C2283 C 0.47666 0.75503 0.86427 0.0
C2284 C 0.61334 0.99622 0.72811 0.0
C2285 C 0.63732 0.99466 0.72817 0.0
H2286 H 0.58368 0.01019 0.74462 0.0
C2287 C 0.64997 0.01009 0.74145 0.0
H2288 H 0.60325 0.98402 0.71848 0.0
C2289 C 0.63875 0.02505 0.75643 0.0
C2290 C 0.61478 0.02476 0.75824 0.0
H2291 H 0.66843 0.00872 0.74228 0.0
H2292 H 0.64886 0.03488 0.76845 0.0
C2293 C 0.60212 0.01122 0.74305 0.0
C2294 C 0.65028 0.51083 0.24071 0.0
C2295 C 0.6376 0.49557 0.22726 0.0
H2296 H 0.64922 0.53543 0.26789 0.0
C2297 C 0.61362 0.49725 0.22716 0.0
H2298 H 0.66874 0.50937 0.24159 0.0
C2299 C 0.60243 0.51219 0.24218 0.0
C2300 C 0.61511 0.52557 0.2575 0.0
H2301 H 0.6035 0.48517 0.2174 0.0
H2302 H 0.58398 0.51127 0.24367 0.0
C2303 C 0.63909 0.52573 0.25577 0.0
C2304 C 0.09578 0.37425 0.04067 0.0
C2305 C 0.09405 0.35759 0.05794 0.0
H2306 H 0.11762 0.396 0.02108 0.0
C2307 C 0.11416 0.34871 0.06759 0.0
H2308 H 0.08058 0.38123 0.03268 0.0
C2309 C 0.13553 0.35742 0.06103 0.0
C2310 C 0.13707 0.37492 0.04455 0.0
H2311 H 0.11333 0.33589 0.08094 0.0
H2312 H 0.15075 0.351 0.06941 0.0
C2313 C 0.11703 0.38272 0.03397 0.0
C2314 C 0.90523 0.36493 0.3179 0.0
C2315 C 0.8965 0.34479 0.30815 0.0
H2316 H 0.90275 0.40151 0.31975 0.0
C2317 C 0.87997 0.34647 0.29075 0.0
H2318 H 0.91793 0.36412 0.33135 0.0
C2319 C 0.87147 0.36768 0.28401 0.0
C2320 C 0.87909 0.38776 0.29468 0.0
H2321 H 0.87313 0.33125 0.28268 0.0
H2322 H 0.85829 0.36823 0.27101 0.0
C2323 C 0.89647 0.38627 0.31129 0.0
C2324 C 0.88676 0.1219 0.53388 0.0
C2325 C 0.8667 0.1297 0.54445 0.0
H2326 H 0.92321 0.12329 0.5327 0.0
C2327 C 0.86825 0.1471 0.56103 0.0
H2328 H 0.88617 0.10869 0.52091 0.0
C2329 C 0.88962 0.15572 0.5677 0.0
C2330 C 0.90974 0.14683 0.55806 0.0
H2331 H 0.85302 0.15352 0.56941 0.0
H2332 H 0.89046 0.16846 0.58112 0.0
C2333 C 0.90801 0.13027 0.54069 0.0
C2334 C 0.13222 0.13611 0.78556 0.0
C2335 C 0.12432 0.11603 0.796 0.0
H2336 H 0.13082 0.17256 0.78444 0.0
C2337 C 0.10675 0.11754 0.81242 0.0
H2338 H 0.14556 0.13555 0.77272 0.0
C2339 C 0.09806 0.1389 0.81904 0.0
C2340 C 0.10703 0.15903 0.80952 0.0
H2341 H 0.10026 0.10229 0.8207 0.0
H2342 H 0.08518 0.1397 0.83233 0.0
C2343 C 0.12378 0.15735 0.79233 0.0
C2344 C 0.11469 0.65567 0.93406 0.0
C2345 C 0.09455 0.64685 0.94373 0.0
H2346 H 0.15128 0.65329 0.93224 0.0
C2347 C 0.09624 0.63023 0.96103 0.0
H2348 H 0.11388 0.66846 0.92068 0.0
C2349 C 0.11747 0.62173 0.96776 0.0
C2350 C 0.13754 0.62946 0.95716 0.0
H2351 H 0.08103 0.6233 0.96904 0.0
H2352 H 0.11803 0.60848 0.98068 0.0
C2353 C 0.13604 0.64693 0.94064 0.0
C2354 C 0.62334 0.34564 0.21097 0.0
C2355 C 0.60657 0.34404 0.19379 0.0
H2356 H 0.64526 0.36732 0.23053 0.0
C2357 C 0.59771 0.36422 0.18426 0.0
H2358 H 0.63029 0.33039 0.21887 0.0
C2359 C 0.60654 0.38553 0.19085 0.0
C2360 C 0.62413 0.38695 0.20725 0.0
H2361 H 0.58482 0.36348 0.17097 0.0
H2362 H 0.60013 0.40081 0.18257 0.0
C2363 C 0.63191 0.36683 0.21771 0.0
C2364 C 0.86734 0.85708 0.44183 0.0
C2365 C 0.8659 0.87468 0.45821 0.0
H2366 H 0.88942 0.8354 0.42194 0.0
C2367 C 0.88601 0.88251 0.46866 0.0
H2368 H 0.85207 0.85063 0.43356 0.0
C2369 C 0.90721 0.87397 0.46191 0.0
C2370 C 0.90883 0.85721 0.44473 0.0
H2371 H 0.88549 0.89587 0.48148 0.0
H2372 H 0.92245 0.88097 0.46978 0.0
C2373 C 0.88866 0.84829 0.43523 0.0
C2374 C 0.37114 0.13584 0.71897 0.0
C2375 C 0.37886 0.11575 0.7084 0.0
H2376 H 0.37278 0.17227 0.72026 0.0
C2377 C 0.39636 0.11722 0.6919 0.0
H2378 H 0.35787 0.1353 0.73188 0.0
C2379 C 0.40515 0.13856 0.68533 0.0
C2380 C 0.39635 0.1587 0.69498 0.0
H2381 H 0.40271 0.10197 0.68352 0.0
H2382 H 0.41796 0.13934 0.67197 0.0
C2383 C 0.37969 0.15705 0.71226 0.0
C2384 C 0.03434 0.11696 0.38184 0.0
C2385 C 0.04496 0.13696 0.37398 0.0
H2386 H 0.033 0.08052 0.38051 0.0
C2387 C 0.06148 0.13532 0.35652 0.0
H2388 H 0.02141 0.11763 0.39509 0.0
C2389 C 0.06802 0.1139 0.34791 0.0
C2390 C 0.05833 0.09385 0.35687 0.0
H2391 H 0.06989 0.15051 0.35005 0.0
H2392 H 0.0814 0.11299 0.33512 0.0
C2393 C 0.04103 0.09567 0.37349 0.0
C2394 C 0.15817 0.29077 0.62415 0.0
C2395 C 0.15983 0.30796 0.60739 0.0
H2396 H 0.13642 0.27125 0.64605 0.0
C2397 C 0.13968 0.31753 0.59851 0.0
H2398 H 0.1734 0.28284 0.63111 0.0
C2399 C 0.11834 0.31098 0.60731 0.0
C2400 C 0.11687 0.29458 0.6249 0.0
H2401 H 0.14045 0.33081 0.58562 0.0
H2402 H 0.10309 0.31931 0.60089 0.0
C2403 C 0.13696 0.28408 0.6327 0.0
C2404 C 0.96196 0.40745 0.87294 0.0
C2405 C 0.94457 0.40921 0.85642 0.0
H2406 H 0.98159 0.38559 0.89461 0.0
C2407 C 0.93472 0.38913 0.84768 0.0
H2408 H 0.9701 0.42263 0.87979 0.0
C2409 C 0.94121 0.36775 0.85643 0.0
C2410 C 0.95782 0.36619 0.87381 0.0
H2411 H 0.92127 0.39001 0.83498 0.0
H2412 H 0.93268 0.35256 0.85015 0.0
C2413 C 0.96859 0.3862 0.88143 0.0
C2414 C 0.84548 0.21276 0.12247 0.0
C2415 C 0.84381 0.19538 0.10593 0.0
H2416 H 0.86724 0.23248 0.14418 0.0
C2417 C 0.86396 0.18565 0.09719 0.0
H2418 H 0.83026 0.22081 0.12933 0.0
C2419 C 0.8853 0.19225 0.10595 0.0
C2420 C 0.88677 0.20884 0.12336 0.0
H2421 H 0.86316 0.17221 0.08447 0.0
H2422 H 0.90054 0.1838 0.09967 0.0
C2423 C 0.8667 0.2195 0.13099 0.0
C2424 C 0.06205 0.86746 0.64634 0.0
C2425 C 0.04551 0.86599 0.62889 0.0
H2426 H 0.08195 0.88959 0.66797 0.0
C2427 C 0.0348 0.88606 0.62131 0.0
H2428 H 0.07054 0.85222 0.65259 0.0
C2429 C 0.04144 0.90726 0.62993 0.0
C2430 C 0.05877 0.90893 0.64653 0.0
H2431 H 0.02185 0.88552 0.60808 0.0
H2432 H 0.03334 0.92248 0.62312 0.0
C2433 C 0.06855 0.88879 0.65521 0.0
C2434 C 0.36452 0.31764 0.90555 0.0
C2435 C 0.34441 0.30788 0.89676 0.0
H2436 H 0.4011 0.31957 0.90313 0.0
C2437 C 0.34614 0.29052 0.8802 0.0
H2438 H 0.36367 0.33107 0.91828 0.0
C2439 C 0.36738 0.28384 0.87171 0.0
C2440 C 0.38742 0.29453 0.87939 0.0
H2441 H 0.33095 0.28244 0.87332 0.0
H2442 H 0.36798 0.27087 0.8585 0.0
C2443 C 0.38588 0.3111 0.89681 0.0
C2444 C 0.96812 0.61716 0.11967 0.0
C2445 C 0.95757 0.63723 0.12747 0.0
H2446 H 0.96945 0.58073 0.12127 0.0
C2447 C 0.94116 0.63573 0.14505 0.0
H2448 H 0.98095 0.61772 0.10633 0.0
C2449 C 0.93467 0.61438 0.15386 0.0
C2450 C 0.9443 0.59425 0.14499 0.0
H2451 H 0.93281 0.65096 0.15146 0.0
H2452 H 0.92138 0.61358 0.16675 0.0
C2453 C 0.96148 0.59594 0.12823 0.0
C2454 C 0.65733 0.21278 0.37894 0.0
C2455 C 0.65911 0.19552 0.3956 0.0
H2456 H 0.63544 0.23228 0.35717 0.0
C2457 C 0.63903 0.18579 0.40447 0.0
H2458 H 0.6725 0.22083 0.37198 0.0
C2459 C 0.61764 0.19226 0.39573 0.0
C2460 C 0.61605 0.20873 0.37823 0.0
H2461 H 0.6399 0.17244 0.41728 0.0
H2462 H 0.60244 0.18381 0.40213 0.0
C2463 C 0.63607 0.21939 0.37045 0.0
C2464 C 0.3481 0.06728 0.11435 0.0
C2465 C 0.35696 0.05773 0.09418 0.0
H2466 H 0.35052 0.06902 0.15094 0.0
C2467 C 0.37372 0.04054 0.0958 0.0
H2468 H 0.3352 0.08056 0.1136 0.0
C2469 C 0.38231 0.03384 0.117 0.0
C2470 C 0.37453 0.04433 0.1371 0.0
H2471 H 0.38068 0.03262 0.08056 0.0
H2472 H 0.39566 0.02102 0.1175 0.0
C2473 C 0.35692 0.06071 0.13567 0.0
C2474 C 0.85606 0.94157 0.36768 0.0
C2475 C 0.87337 0.95825 0.36614 0.0
H2476 H 0.83472 0.92145 0.3899 0.0
C2477 C 0.881 0.96897 0.38618 0.0
H2478 H 0.84977 0.93308 0.35246 0.0
C2479 C 0.87258 0.96221 0.40742 0.0
C2480 C 0.85612 0.94475 0.40916 0.0
H2481 H 0.89412 0.98202 0.38559 0.0
H2482 H 0.87942 0.97032 0.42262 0.0
C2483 C 0.84738 0.93495 0.38905 0.0
C2484 C 0.29129 0.12268 0.65805 0.0
C2485 C 0.30859 0.10606 0.6598 0.0
H2486 H 0.27166 0.14437 0.6362 0.0
C2487 C 0.31828 0.09719 0.6397 0.0
H2488 H 0.28326 0.12964 0.67325 0.0
C2489 C 0.31173 0.10589 0.61832 0.0
C2490 C 0.29521 0.12335 0.61676 0.0
H2491 H 0.33167 0.08441 0.64055 0.0
H2492 H 0.32015 0.09949 0.6031 0.0
C2493 C 0.28459 0.13112 0.6368 0.0
C2494 C 0.14705 0.56197 0.86724 0.0
C2495 C 0.1296 0.54542 0.86584 0.0
H2496 H 0.1686 0.58204 0.88929 0.0
C2497 C 0.12191 0.5349 0.88597 0.0
H2498 H 0.15338 0.5703 0.85196 0.0
C2499 C 0.13044 0.54172 0.90715 0.0
C2500 C 0.14705 0.55905 0.90874 0.0
H2501 H 0.10868 0.52196 0.88548 0.0
H2502 H 0.12355 0.53377 0.92241 0.0
C2503 C 0.15583 0.56864 0.88855 0.0
C2504 C 0.21098 0.87878 0.15807 0.0
C2505 C 0.19375 0.89548 0.15976 0.0
H2506 H 0.23053 0.85693 0.1363 0.0
C2507 C 0.18408 0.9043 0.13962 0.0
H2508 H 0.21898 0.87185 0.17329 0.0
C2509 C 0.19061 0.89549 0.11828 0.0
C2510 C 0.20707 0.87797 0.11678 0.0
H2511 H 0.17075 0.91713 0.14043 0.0
H2512 H 0.18222 0.90187 0.10304 0.0
C2513 C 0.21765 0.87023 0.13685 0.0
C2514 C 0.62181 0.96794 0.11622 0.0
C2515 C 0.62964 0.95757 0.13636 0.0
H2516 H 0.62329 0.96889 0.07976 0.0
C2517 C 0.64716 0.94109 0.13497 0.0
H2518 H 0.60852 0.98082 0.1167 0.0
C2519 C 0.65588 0.93435 0.11366 0.0
C2520 C 0.64698 0.9438 0.09346 0.0
H2521 H 0.6536 0.93286 0.15027 0.0
H2522 H 0.66873 0.92102 0.11294 0.0
C2523 C 0.63028 0.96105 0.09503 0.0
C2524 C 0.2854 0.37024 0.86677 0.0
C2525 C 0.2958 0.37809 0.8869 0.0
H2526 H 0.28431 0.3718 0.83032 0.0
C2527 C 0.31216 0.39571 0.88548 0.0
H2528 H 0.2726 0.35686 0.86727 0.0
C2529 C 0.31877 0.40452 0.86417 0.0
C2530 C 0.3093 0.39561 0.84398 0.0
H2531 H 0.3204 0.40217 0.90076 0.0
H2532 H 0.33203 0.41744 0.86343 0.0
C2533 C 0.29216 0.3788 0.84558 0.0
C2534 C 0.69148 0.10785 0.38451 0.0
C2535 C 0.70786 0.12546 0.38593 0.0
H2536 H 0.67162 0.08613 0.36244 0.0
C2537 C 0.71827 0.1333 0.36581 0.0
H2538 H 0.68323 0.1014 0.39978 0.0
C2539 C 0.71152 0.12476 0.34462 0.0
C2540 C 0.69437 0.10796 0.34301 0.0
H2541 H 0.73108 0.14667 0.36632 0.0
H2542 H 0.7194 0.13175 0.32937 0.0
C2543 C 0.68488 0.09905 0.36318 0.0
C2544 C 0.13581 0.85695 0.56203 0.0
C2545 C 0.13732 0.87446 0.54555 0.0
H2546 H 0.11364 0.8353 0.58184 0.0
C2547 C 0.11727 0.88213 0.53488 0.0
H2548 H 0.15103 0.85064 0.57049 0.0
C2549 C 0.09605 0.87354 0.54148 0.0
C2550 C 0.09434 0.85688 0.55875 0.0
H2551 H 0.11784 0.89541 0.52198 0.0
H2552 H 0.08084 0.88042 0.53342 0.0
C2553 C 0.11446 0.84811 0.56849 0.0
C2554 C 0.88018 0.84576 0.79077 0.0
C2555 C 0.89685 0.84412 0.80803 0.0
H2556 H 0.85834 0.86749 0.77117 0.0
C2557 C 0.90567 0.86427 0.81766 0.0
H2558 H 0.87326 0.83053 0.78279 0.0
C2559 C 0.89686 0.8856 0.8111 0.0
C2560 C 0.87934 0.88706 0.79463 0.0
H2561 H 0.91849 0.86349 0.83101 0.0
H2562 H 0.90322 0.90085 0.81947 0.0
C2563 C 0.87163 0.86697 0.78406 0.0
C2564 C 0.88597 0.62147 0.03351 0.0
C2565 C 0.86593 0.62918 0.04418 0.0
H2566 H 0.9224 0.62315 0.03204 0.0
C2567 C 0.86746 0.64672 0.06062 0.0
H2568 H 0.88538 0.60816 0.02064 0.0
C2569 C 0.88881 0.65556 0.06705 0.0
C2570 C 0.90892 0.64676 0.05732 0.0
H2571 H 0.85224 0.65307 0.06907 0.0
H2572 H 0.88964 0.6684 0.08039 0.0
C2573 C 0.9072 0.63006 0.04009 0.0
C2574 C 0.09791 0.63998 0.31843 0.0
C2575 C 0.10676 0.66019 0.30895 0.0
H2576 H 0.10032 0.60338 0.31999 0.0
C2577 C 0.12351 0.65864 0.29175 0.0
H2578 H 0.08503 0.64067 0.33172 0.0
C2579 C 0.13208 0.63747 0.28493 0.0
C2580 C 0.12429 0.61732 0.29532 0.0
H2581 H 0.13046 0.67392 0.28389 0.0
H2582 H 0.14541 0.63702 0.27208 0.0
C2583 C 0.10673 0.61869 0.31175 0.0
C2584 C 0.11657 0.12175 0.46824 0.0
C2585 C 0.13666 0.1293 0.45755 0.0
H2586 H 0.08014 0.12349 0.46956 0.0
C2587 C 0.13521 0.14662 0.44086 0.0
H2588 H 0.1171 0.10862 0.48128 0.0
C2589 C 0.11388 0.1554 0.43424 0.0
C2590 C 0.09373 0.14675 0.44402 0.0
H2591 H 0.15046 0.15284 0.43239 0.0
H2592 H 0.1131 0.16806 0.42074 0.0
C2593 C 0.09537 0.13027 0.46147 0.0
C2594 C 0.63182 0.86587 0.71889 0.0
C2595 C 0.62399 0.88599 0.70848 0.0
H2596 H 0.6303 0.82942 0.71994 0.0
C2597 C 0.60643 0.88458 0.69205 0.0
H2598 H 0.64515 0.86636 0.73174 0.0
C2599 C 0.59767 0.86326 0.68538 0.0
C2600 C 0.60658 0.84308 0.69486 0.0
H2601 H 0.59998 0.89986 0.6838 0.0
H2602 H 0.5848 0.86253 0.67208 0.0
C2603 C 0.62331 0.84467 0.71207 0.0
C2604 C 0.90729 0.37351 0.96124 0.0
C2605 C 0.90901 0.35686 0.94396 0.0
H2606 H 0.88548 0.39529 0.98083 0.0
C2607 C 0.88889 0.34803 0.93427 0.0
H2608 H 0.9225 0.38044 0.96926 0.0
C2609 C 0.86753 0.3568 0.9408 0.0
C2610 C 0.866 0.37428 0.9573 0.0
H2611 H 0.88972 0.33523 0.92091 0.0
H2612 H 0.8523 0.35043 0.93239 0.0
C2613 C 0.88606 0.38202 0.96792 0.0
C2614 C 0.40544 0.63864 0.18482 0.0
C2615 C 0.39669 0.65875 0.1946 0.0
H2616 H 0.40299 0.60205 0.1829 0.0
C2617 C 0.38018 0.65703 0.21201 0.0
H2618 H 0.41814 0.63947 0.17135 0.0
C2619 C 0.37171 0.6358 0.21872 0.0
C2620 C 0.37933 0.61576 0.20801 0.0
H2621 H 0.37334 0.67224 0.22011 0.0
H2622 H 0.35854 0.63523 0.23174 0.0
C2623 C 0.39671 0.61727 0.19139 0.0
C2624 C 0.06916 0.61408 0.84733 0.0
C2625 C 0.05943 0.594 0.85619 0.0
H2626 H 0.07107 0.65067 0.84962 0.0
C2627 C 0.04211 0.59577 0.8728 0.0
H2628 H 0.08256 0.6132 0.83456 0.0
C2629 C 0.03543 0.61703 0.88123 0.0
C2630 C 0.04609 0.63706 0.87345 0.0
H2631 H 0.03406 0.58059 0.87975 0.0
H2632 H 0.02249 0.61766 0.89446 0.0
C2633 C 0.06263 0.63547 0.85601 0.0
C2634 C 0.13844 0.8173 0.0981 0.0
C2635 C 0.15854 0.80765 0.10702 0.0
H2636 H 0.10185 0.81919 0.10039 0.0
C2637 C 0.15678 0.79041 0.12371 0.0
H2638 H 0.1393 0.83063 0.08526 0.0
C2639 C 0.13553 0.78376 0.13218 0.0
C2640 C 0.11549 0.79436 0.12436 0.0
H2641 H 0.17197 0.78242 0.1307 0.0
H2642 H 0.13491 0.77089 0.14549 0.0
C2643 C 0.11706 0.81079 0.10682 0.0
C2644 C 0.94027 0.86811 0.35679 0.0
C2645 C 0.95692 0.86664 0.37414 0.0
H2646 H 0.9202 0.89024 0.33532 0.0
C2647 C 0.96761 0.88672 0.38172 0.0
H2648 H 0.93179 0.85287 0.35055 0.0
C2649 C 0.96088 0.90792 0.37319 0.0
C2650 C 0.94346 0.90958 0.35668 0.0
H2651 H 0.98064 0.88618 0.39487 0.0
H2652 H 0.96897 0.92315 0.37999 0.0
C2653 C 0.93368 0.88944 0.34801 0.0
C2654 C 0.86389 0.68462 0.59757 0.0
C2655 C 0.8438 0.69434 0.60641 0.0
H2656 H 0.90049 0.68277 0.59985 0.0
C2657 C 0.84555 0.71171 0.62297 0.0
H2658 H 0.86303 0.67119 0.58483 0.0
C2659 C 0.86681 0.71844 0.63138 0.0
C2660 C 0.88684 0.70779 0.62363 0.0
H2661 H 0.83036 0.71976 0.62991 0.0
H2662 H 0.86742 0.73142 0.64458 0.0
C2663 C 0.88528 0.69121 0.60623 0.0
C2664 C 0.03521 0.38759 0.12024 0.0
C2665 C 0.04567 0.36752 0.12814 0.0
H2666 H 0.03407 0.42404 0.12161 0.0
C2667 C 0.06212 0.36904 0.14567 0.0
H2668 H 0.02234 0.38701 0.10693 0.0
C2669 C 0.06874 0.39041 0.15434 0.0
C2670 C 0.0592 0.41053 0.14537 0.0
H2671 H 0.07041 0.3538 0.15216 0.0
H2672 H 0.08205 0.39123 0.1672 0.0
C2673 C 0.04198 0.40883 0.12865 0.0
C2674 C 0.34528 0.79132 0.38042 0.0
C2675 C 0.34366 0.80865 0.39703 0.0
H2676 H 0.36697 0.7716 0.35863 0.0
C2677 C 0.36384 0.8183 0.40577 0.0
H2678 H 0.33003 0.78333 0.37355 0.0
C2679 C 0.38515 0.81168 0.39697 0.0
C2680 C 0.38658 0.79512 0.37952 0.0
H2681 H 0.36309 0.8317 0.41854 0.0
H2682 H 0.40042 0.82006 0.40328 0.0
C2683 C 0.36647 0.78455 0.37187 0.0
C2684 C 0.94181 0.13515 0.64594 0.0
C2685 C 0.95821 0.13663 0.62836 0.0
H2686 H 0.92187 0.11302 0.66751 0.0
C2687 C 0.9686 0.11653 0.62043 0.0
H2688 H 0.93358 0.15041 0.65246 0.0
C2689 C 0.9618 0.09531 0.62886 0.0
C2690 C 0.94462 0.09365 0.64562 0.0
H2691 H 0.98143 0.11708 0.60707 0.0
H2692 H 0.96964 0.08008 0.62179 0.0
C2693 C 0.93516 0.1138 0.65462 0.0
C2694 C 0.63583 0.71854 0.87111 0.0
C2695 C 0.61581 0.70792 0.87893 0.0
H2696 H 0.67227 0.71994 0.87262 0.0
C2697 C 0.61738 0.69151 0.89649 0.0
H2698 H 0.63521 0.73138 0.85779 0.0
C2699 C 0.63877 0.68505 0.90524 0.0
C2700 C 0.65886 0.69472 0.89633 0.0
H2701 H 0.60218 0.6831 0.90293 0.0
H2702 H 0.63963 0.67174 0.9181 0.0
C2703 C 0.65709 0.71193 0.87961 0.0
C2704 C 0.34757 0.56845 0.61435 0.0
C2705 C 0.35631 0.55873 0.59421 0.0
H2706 H 0.35007 0.57034 0.65093 0.0
C2707 C 0.37291 0.5414 0.59588 0.0
H2708 H 0.33481 0.58186 0.61355 0.0
C2709 C 0.38146 0.5347 0.61709 0.0
C2710 C 0.37382 0.54535 0.63717 0.0
H2711 H 0.37977 0.53335 0.58066 0.0
H2712 H 0.3947 0.52175 0.61763 0.0
C2713 C 0.35637 0.5619 0.63569 0.0
C2714 C 0.87362 0.46178 0.90733 0.0
C2715 C 0.85684 0.44461 0.9089 0.0
H2716 H 0.8956 0.48133 0.88568 0.0
C2717 C 0.84801 0.43509 0.8887 0.0
H2718 H 0.88056 0.46968 0.92259 0.0
C2719 C 0.85688 0.44168 0.8674 0.0
C2720 C 0.87448 0.45806 0.86602 0.0
H2721 H 0.83511 0.42181 0.88942 0.0
H2722 H 0.85049 0.43339 0.85212 0.0
C2723 C 0.88224 0.46851 0.88615 0.0
C2724 C 0.31275 0.60645 0.1175 0.0
C2725 C 0.29606 0.62376 0.11595 0.0
H2726 H 0.33277 0.58504 0.13973 0.0
C2727 C 0.28526 0.63132 0.13598 0.0
H2728 H 0.3213 0.60022 0.10229 0.0
C2729 C 0.29194 0.62283 0.15722 0.0
C2730 C 0.30939 0.60637 0.15896 0.0
H2731 H 0.27221 0.64444 0.13538 0.0
H2732 H 0.28377 0.62963 0.1724 0.0
C2733 C 0.31927 0.5977 0.13887 0.0
C2734 C 0.15488 0.06808 0.38947 0.0
C2735 C 0.14596 0.05865 0.40967 0.0
H2736 H 0.15254 0.06966 0.35287 0.0
C2737 C 0.12917 0.04149 0.4081 0.0
H2738 H 0.16779 0.08135 0.39019 0.0
C2739 C 0.12062 0.03469 0.38691 0.0
C2740 C 0.12846 0.04507 0.36677 0.0
H2741 H 0.12216 0.03366 0.42336 0.0
H2742 H 0.10725 0.02189 0.38644 0.0
C2743 C 0.14608 0.06144 0.36817 0.0
C2744 C 0.19208 0.39572 0.61814 0.0
C2745 C 0.20849 0.37815 0.61665 0.0
H2746 H 0.17226 0.4174 0.64029 0.0
C2747 C 0.21903 0.37035 0.63672 0.0
H2748 H 0.18374 0.40215 0.6029 0.0
C2749 C 0.21235 0.37889 0.65794 0.0
C2750 C 0.19516 0.39563 0.65962 0.0
H2751 H 0.23186 0.35701 0.63616 0.0
H2752 H 0.22031 0.37192 0.67316 0.0
C2753 C 0.18556 0.40452 0.63949 0.0
C2754 C 0.62933 0.46143 0.59553 0.0
C2755 C 0.64605 0.4442 0.59389 0.0
H2756 H 0.60751 0.48106 0.61726 0.0
C2757 C 0.65493 0.43465 0.61404 0.0
H2758 H 0.62236 0.46935 0.58029 0.0
C2759 C 0.64617 0.44127 0.63538 0.0
C2760 C 0.62863 0.45771 0.63684 0.0
H2761 H 0.66778 0.42133 0.61327 0.0
H2762 H 0.65259 0.43296 0.65064 0.0
C2763 C 0.62083 0.4682 0.61674 0.0
C2764 C 0.28445 0.87113 0.36743 0.0
C2765 C 0.29516 0.87891 0.38741 0.0
H2766 H 0.283 0.87254 0.33099 0.0
C2767 C 0.31174 0.89631 0.38576 0.0
H2768 H 0.27148 0.85793 0.3681 0.0
C2769 C 0.31825 0.90493 0.36434 0.0
C2770 C 0.30846 0.89606 0.34429 0.0
H2771 H 0.32023 0.90271 0.40093 0.0
H2772 H 0.33168 0.91767 0.36341 0.0
C2773 C 0.2911 0.8795 0.34613 0.0
C2774 C 0.6845 0.5982 0.86399 0.0
C2775 C 0.69423 0.60697 0.84386 0.0
H2776 H 0.68256 0.6007 0.90056 0.0
C2777 C 0.71152 0.62361 0.84555 0.0
H2778 H 0.67112 0.58541 0.86317 0.0
C2779 C 0.71817 0.63217 0.86677 0.0
C2780 C 0.70751 0.6245 0.88683 0.0
H2781 H 0.71957 0.63049 0.83034 0.0
H2782 H 0.73109 0.64543 0.86733 0.0
C2783 C 0.691 0.60702 0.88533 0.0
C2784 C 0.63521 0.35642 0.56224 0.0
C2785 C 0.63667 0.3738 0.54563 0.0
H2786 H 0.61309 0.33494 0.58231 0.0
C2787 C 0.61657 0.38145 0.53501 0.0
H2788 H 0.65046 0.35012 0.57065 0.0
C2789 C 0.59537 0.37296 0.54179 0.0
C2790 C 0.59372 0.35641 0.55917 0.0
H2791 H 0.6171 0.39464 0.52202 0.0
H2792 H 0.58014 0.37981 0.53376 0.0
C2793 C 0.61387 0.34767 0.56887 0.0
C2794 C 0.40577 0.36349 0.81895 0.0
C2795 C 0.397 0.34337 0.80922 0.0
H2796 H 0.40337 0.40008 0.8208 0.0
C2797 C 0.38046 0.34507 0.79183 0.0
H2798 H 0.41849 0.36267 0.83239 0.0
C2799 C 0.372 0.36631 0.78509 0.0
C2800 C 0.37967 0.38636 0.79574 0.0
H2801 H 0.37358 0.32987 0.78377 0.0
H2802 H 0.35881 0.36688 0.77209 0.0
C2803 C 0.39706 0.38485 0.81235 0.0
C2804 C 0.40758 0.12895 0.04203 0.0
C2805 C 0.40918 0.14573 0.0592 0.0
H2806 H 0.38591 0.10698 0.0225 0.0
C2807 C 0.389 0.15457 0.06874 0.0
H2808 H 0.42284 0.122 0.03412 0.0
C2809 C 0.36769 0.14571 0.06218 0.0
C2810 C 0.36628 0.12811 0.04579 0.0
H2811 H 0.38973 0.16748 0.08201 0.0
H2812 H 0.35241 0.15211 0.07048 0.0
C2813 C 0.3864 0.12034 0.03532 0.0
C2814 C 0.62313 0.15826 0.2907 0.0
C2815 C 0.60655 0.15991 0.30805 0.0
H2816 H 0.64489 0.13653 0.271 0.0
C2817 C 0.59782 0.13976 0.31776 0.0
H2818 H 0.62998 0.17349 0.28265 0.0
C2819 C 0.60661 0.11843 0.31117 0.0
C2820 C 0.62404 0.11698 0.2946 0.0
H2821 H 0.58506 0.14054 0.33117 0.0
H2822 H 0.60032 0.10318 0.3196 0.0
C2823 C 0.63167 0.13706 0.28396 0.0
C2824 C 0.61366 0.65493 0.43504 0.0
C2825 C 0.59351 0.64606 0.44463 0.0
H2826 H 0.65025 0.65257 0.43327 0.0
C2827 C 0.59518 0.62935 0.46186 0.0
H2828 H 0.61287 0.66778 0.42172 0.0
C2829 C 0.61639 0.62083 0.46858 0.0
C2830 C 0.63648 0.62861 0.45805 0.0
H2831 H 0.57995 0.62238 0.46981 0.0
H2832 H 0.61694 0.60751 0.48144 0.0
C2833 C 0.635 0.64616 0.44161 0.0
C2834 C 0.10745 0.38484 0.6918 0.0
C2835 C 0.12495 0.38636 0.70828 0.0
H2836 H 0.08583 0.36267 0.67195 0.0
C2837 C 0.13269 0.36631 0.7189 0.0
H2838 H 0.10108 0.40007 0.68339 0.0
C2839 C 0.12415 0.34508 0.71225 0.0
C2840 C 0.10748 0.34337 0.69499 0.0
H2841 H 0.14598 0.36688 0.73179 0.0
H2842 H 0.13107 0.32987 0.72027 0.0
C2843 C 0.09866 0.36349 0.6853 0.0
C2844 C 0.38578 0.88078 0.96924 0.0
C2845 C 0.36572 0.8731 0.95861 0.0
H2846 H 0.42222 0.87914 0.97056 0.0
C2847 C 0.36721 0.85563 0.94208 0.0
H2848 H 0.38523 0.89402 0.98217 0.0
C2849 C 0.38855 0.84685 0.93552 0.0
C2850 C 0.40869 0.85564 0.94521 0.0
H2851 H 0.35197 0.84931 0.93365 0.0
H2852 H 0.38936 0.83408 0.92212 0.0
C2853 C 0.40701 0.87225 0.96253 0.0
C2854 C 0.90515 0.14022 0.1842 0.0
C2855 C 0.89625 0.16037 0.19377 0.0
H2856 H 0.90289 0.10362 0.18254 0.0
C2857 C 0.87961 0.1587 0.21106 0.0
H2858 H 0.91796 0.14101 0.17083 0.0
C2859 C 0.87118 0.13748 0.21787 0.0
C2860 C 0.87899 0.11739 0.20737 0.0
H2861 H 0.87263 0.17393 0.21899 0.0
H2862 H 0.85792 0.13693 0.23079 0.0
C2863 C 0.89647 0.11887 0.19086 0.0
C2864 C 0.53461 0.11586 0.88287 0.0
C2865 C 0.54516 0.1359 0.87502 0.0
H2866 H 0.5333 0.07941 0.88138 0.0
C2867 C 0.56156 0.13436 0.85744 0.0
H2868 H 0.52179 0.11645 0.89622 0.0
C2869 C 0.56806 0.11299 0.84869 0.0
C2870 C 0.55845 0.09288 0.85762 0.0
H2871 H 0.56991 0.14958 0.85098 0.0
H2872 H 0.58135 0.11215 0.8358 0.0
C2873 C 0.54127 0.09461 0.87437 0.0
C2874 C 0.63591 0.28509 0.13108 0.0
C2875 C 0.61583 0.2957 0.12341 0.0
H2876 H 0.67234 0.28378 0.12943 0.0
C2877 C 0.6173 0.31224 0.10596 0.0
H2878 H 0.63537 0.27215 0.14432 0.0
C2879 C 0.63864 0.31881 0.09717 0.0
C2880 C 0.65878 0.30912 0.10593 0.0
H2881 H 0.60205 0.32065 0.09964 0.0
H2882 H 0.63943 0.33221 0.08439 0.0
C2883 C 0.65712 0.2918 0.12255 0.0
C2884 C 0.46836 0.38642 0.3826 0.0
C2885 C 0.45789 0.36633 0.37477 0.0
H2886 H 0.46954 0.42287 0.38106 0.0
C2887 C 0.44149 0.36779 0.35719 0.0
H2888 H 0.48119 0.38589 0.39595 0.0
C2889 C 0.43492 0.38913 0.34841 0.0
C2890 C 0.44445 0.40928 0.35731 0.0
H2891 H 0.4332 0.35253 0.35075 0.0
H2892 H 0.42163 0.3899 0.33552 0.0
C2893 C 0.46164 0.40764 0.37407 0.0
C2894 C 0.36392 0.18398 0.59846 0.0
C2895 C 0.34377 0.19356 0.60732 0.0
H2896 H 0.40052 0.18227 0.60079 0.0
C2897 C 0.34542 0.21081 0.62401 0.0
H2898 H 0.36314 0.17064 0.58562 0.0
C2899 C 0.36664 0.21757 0.6325 0.0
C2900 C 0.38673 0.20707 0.62471 0.0
H2901 H 0.33019 0.21875 0.63098 0.0
H2902 H 0.36717 0.23046 0.6458 0.0
C2903 C 0.38526 0.19059 0.6072 0.0
C2904 C 0.53548 0.88628 0.121 0.0
C2905 C 0.54603 0.86623 0.12883 0.0
H2906 H 0.53422 0.92272 0.12244 0.0
C2907 C 0.56251 0.86777 0.14634 0.0
H2908 H 0.52259 0.88568 0.10771 0.0
C2909 C 0.56908 0.88915 0.15503 0.0
C2910 C 0.55945 0.90926 0.14612 0.0
H2911 H 0.57086 0.85255 0.15278 0.0
H2912 H 0.58242 0.88999 0.16785 0.0
C2913 C 0.5422 0.90753 0.12944 0.0
C2914 C 0.86405 0.3193 0.40463 0.0
C2915 C 0.84387 0.30977 0.39576 0.0
H2916 H 0.90065 0.32093 0.40228 0.0
C2917 C 0.84548 0.29252 0.37906 0.0
H2918 H 0.8633 0.33264 0.41747 0.0
C2919 C 0.86668 0.28572 0.37056 0.0
C2920 C 0.8868 0.29617 0.37835 0.0
H2921 H 0.83023 0.28462 0.3721 0.0
H2922 H 0.86718 0.27283 0.35726 0.0
C2923 C 0.88537 0.31264 0.39587 0.0
C2924 C 0.46805 0.6168 0.62138 0.0
C2925 C 0.45744 0.63687 0.62907 0.0
H2926 H 0.46939 0.58036 0.62302 0.0
C2927 C 0.44094 0.63538 0.64657 0.0
H2928 H 0.48097 0.61734 0.60811 0.0
C2929 C 0.4344 0.61404 0.65536 0.0
C2930 C 0.44408 0.59391 0.64657 0.0
H2931 H 0.43253 0.65062 0.65291 0.0
H2932 H 0.42103 0.61324 0.66816 0.0
C2933 C 0.46137 0.59558 0.62992 0.0
C2934 C 0.1365 0.21805 0.87216 0.0
C2935 C 0.11641 0.20745 0.87983 0.0
H2936 H 0.17294 0.21928 0.87375 0.0
C2937 C 0.11788 0.19086 0.89724 0.0
H2938 H 0.13596 0.23103 0.85895 0.0
C2939 C 0.13922 0.18423 0.90598 0.0
C2940 C 0.15937 0.1939 0.89719 0.0
H2941 H 0.10263 0.18246 0.90356 0.0
H2942 H 0.14001 0.1708 0.91871 0.0
C2943 C 0.15771 0.21127 0.88063 0.0
C2944 C 0.85668 0.06232 0.6343 0.0
C2945 C 0.87411 0.04575 0.63578 0.0
H2946 H 0.83525 0.08242 0.61218 0.0
C2947 C 0.88188 0.03524 0.61568 0.0
H2948 H 0.85029 0.07066 0.64956 0.0
C2949 C 0.87346 0.04207 0.59446 0.0
C2950 C 0.85686 0.05941 0.59281 0.0
H2951 H 0.8951 0.02228 0.61622 0.0
H2952 H 0.88041 0.03412 0.57923 0.0
C2953 C 0.84801 0.06901 0.61296 0.0
C2954 C 0.34753 0.93378 0.88979 0.0
C2955 C 0.35639 0.94338 0.90993 0.0
H2956 H 0.34987 0.93206 0.85319 0.0
C2957 C 0.37303 0.96067 0.90828 0.0
H2958 H 0.33472 0.92042 0.89058 0.0
C2959 C 0.38151 0.96744 0.88706 0.0
C2960 C 0.37374 0.95692 0.86697 0.0
H2961 H 0.37998 0.96863 0.9235 0.0
H2962 H 0.39477 0.98036 0.88652 0.0
C2963 C 0.35626 0.94041 0.86844 0.0
C2964 C 0.7916 0.12446 0.15716 0.0
C2965 C 0.80886 0.10778 0.15887 0.0
H2966 H 0.77197 0.1462 0.13535 0.0
C2967 C 0.81847 0.09888 0.13874 0.0
H2968 H 0.78364 0.13145 0.17237 0.0
C2969 C 0.81187 0.10758 0.11738 0.0
C2970 C 0.79539 0.12508 0.11586 0.0
H2971 H 0.83181 0.08605 0.13956 0.0
H2972 H 0.82022 0.10114 0.10214 0.0
C2973 C 0.78486 0.13291 0.13592 0.0
C2974 C 0.64613 0.56156 0.36778 0.0
C2975 C 0.62866 0.54504 0.36625 0.0
H2976 H 0.66765 0.58149 0.38998 0.0
C2977 C 0.62088 0.53446 0.38631 0.0
H2978 H 0.65253 0.56995 0.35255 0.0
C2979 C 0.62935 0.54117 0.40755 0.0
C2980 C 0.64599 0.55846 0.40926 0.0
H2981 H 0.60763 0.52154 0.38572 0.0
H2982 H 0.6224 0.53317 0.42275 0.0
C2983 C 0.65485 0.56812 0.38915 0.0
C2984 C 0.71144 0.87888 0.65831 0.0
C2985 C 0.69425 0.89563 0.66004 0.0
H2986 H 0.73102 0.85714 0.63645 0.0
C2987 C 0.68472 0.90464 0.63994 0.0
H2988 H 0.71935 0.87181 0.67351 0.0
C2989 C 0.69131 0.89599 0.61855 0.0
C2990 C 0.70772 0.87842 0.617 0.0
H2991 H 0.67143 0.91753 0.64078 0.0
H2992 H 0.68302 0.90252 0.60333 0.0
C2993 C 0.71818 0.87048 0.63705 0.0
C2994 C 0.12119 0.96855 0.61739 0.0
C2995 C 0.12882 0.9579 0.63747 0.0
H2996 H 0.12293 0.96993 0.58097 0.0
C2997 C 0.14631 0.94139 0.63601 0.0
H2998 H 0.10793 0.98147 0.61793 0.0
C2999 C 0.15516 0.93487 0.61468 0.0
C3000 C 0.14643 0.94459 0.59454 0.0
H3001 H 0.1526 0.93296 0.65125 0.0
H3002 H 0.16796 0.9215 0.61389 0.0
C3003 C 0.12979 0.96188 0.59619 0.0
C3004 C 0.78474 0.37257 0.36639 0.0
C3005 C 0.79549 0.38018 0.38643 0.0
H3006 H 0.78333 0.37417 0.32996 0.0
C3007 C 0.81216 0.3975 0.38488 0.0
H3008 H 0.7717 0.35944 0.367 0.0
C3009 C 0.81873 0.40621 0.3635 0.0
C3010 C 0.8089 0.39748 0.34341 0.0
H3011 H 0.82068 0.40377 0.40008 0.0
H3012 H 0.83223 0.41887 0.36264 0.0
C3013 C 0.79145 0.38101 0.34515 0.0
C3014 C 0.18462 0.09737 0.86475 0.0
C3015 C 0.19443 0.10607 0.84463 0.0
H3016 H 0.18269 0.09986 0.90133 0.0
C3017 C 0.21185 0.12257 0.84634 0.0
H3018 H 0.17115 0.08468 0.86392 0.0
C3019 C 0.21856 0.13107 0.86756 0.0
C3020 C 0.20783 0.12348 0.88761 0.0
H3021 H 0.21996 0.12939 0.83113 0.0
H3022 H 0.23158 0.14423 0.86814 0.0
C3023 C 0.19119 0.10612 0.8861 0.0
C3024 C 0.61466 0.84724 0.06841 0.0
C3025 C 0.59457 0.85598 0.05859 0.0
H3026 H 0.65124 0.84965 0.07035 0.0
C3027 C 0.59632 0.87245 0.04114 0.0
H3028 H 0.6138 0.83458 0.0819 0.0
C3029 C 0.61757 0.88089 0.03443 0.0
C3030 C 0.6376 0.87326 0.04518 0.0
H3031 H 0.58113 0.8793 0.03303 0.0
H3032 H 0.61818 0.89403 0.0214 0.0
C3033 C 0.63604 0.85593 0.06184 0.0
C3034 C 0.37057 0.86601 0.28501 0.0
C3035 C 0.37845 0.88614 0.29538 0.0
H3036 H 0.37206 0.82956 0.28397 0.0
C3037 C 0.39606 0.88472 0.31175 0.0
H3038 H 0.3572 0.86651 0.2722 0.0
C3039 C 0.40482 0.8634 0.3184 0.0
C3040 C 0.39587 0.84322 0.30896 0.0
H3041 H 0.40254 0.9 0.31998 0.0
H3042 H 0.41773 0.86267 0.33167 0.0
C3043 C 0.37908 0.84482 0.2918 0.0
C3044 C 0.36723 0.64634 0.56198 0.0
C3045 C 0.36574 0.62886 0.54546 0.0
H3046 H 0.38939 0.66789 0.58191 0.0
C3047 C 0.38581 0.62113 0.53486 0.0
H3048 H 0.352 0.65269 0.57038 0.0
C3049 C 0.40703 0.62965 0.54157 0.0
C3050 C 0.40871 0.64628 0.55886 0.0
H3051 H 0.38525 0.60788 0.52194 0.0
H3052 H 0.42224 0.62273 0.53355 0.0
C3053 C 0.38858 0.6551 0.56854 0.0
C3054 C 0.59776 0.63897 0.8183 0.0
C3055 C 0.60656 0.65916 0.80872 0.0
H3056 H 0.60022 0.60239 0.82 0.0
C3057 C 0.62326 0.65756 0.79148 0.0
H3058 H 0.58491 0.63971 0.83163 0.0
C3059 C 0.63184 0.63638 0.78472 0.0
C3060 C 0.62411 0.61626 0.79521 0.0
H3061 H 0.63017 0.67282 0.78354 0.0
H3062 H 0.64514 0.63589 0.77184 0.0
C3063 C 0.60658 0.61767 0.81168 0.0
C3064 C 0.61392 0.15438 0.93563 0.0
C3065 C 0.5938 0.1454 0.94518 0.0
H3066 H 0.65051 0.15214 0.93383 0.0
C3067 C 0.59552 0.12857 0.96229 0.0
H3068 H 0.61309 0.16732 0.9224 0.0
C3069 C 0.61677 0.12007 0.96895 0.0
C3070 C 0.63682 0.12799 0.95846 0.0
H3071 H 0.58032 0.12152 0.97021 0.0
H3072 H 0.61736 0.10667 0.98172 0.0
C3073 C 0.63529 0.14563 0.94213 0.0
C3074 C 0.13134 0.86599 0.21864 0.0
C3075 C 0.12358 0.8861 0.20816 0.0
H3076 H 0.12975 0.82954 0.21977 0.0
C3077 C 0.1061 0.88468 0.19165 0.0
H3078 H 0.1446 0.86649 0.23156 0.0
C3079 C 0.09734 0.86336 0.18499 0.0
C3080 C 0.10617 0.84319 0.19455 0.0
H3081 H 0.09972 0.89996 0.18334 0.0
H3082 H 0.08452 0.86262 0.17163 0.0
C3083 C 0.12283 0.84479 0.21184 0.0
C3084 C 0.38637 0.38187 0.46898 0.0
C3085 C 0.36631 0.37407 0.45844 0.0
H3086 H 0.42282 0.38036 0.47024 0.0
C3087 C 0.36782 0.35654 0.44197 0.0
H3088 H 0.3858 0.39517 0.48186 0.0
C3089 C 0.38918 0.34781 0.43541 0.0
C3090 C 0.40931 0.3567 0.44502 0.0
H3091 H 0.35259 0.35012 0.43362 0.0
H3092 H 0.39 0.33497 0.42207 0.0
C3093 C 0.40761 0.37339 0.46227 0.0
C3094 C 0.89655 0.61813 0.69121 0.0
C3095 C 0.87902 0.61671 0.70768 0.0
H3096 H 0.91814 0.64018 0.6712 0.0
C3097 C 0.87124 0.63684 0.71814 0.0
H3098 H 0.90295 0.60285 0.68292 0.0
C3099 C 0.87975 0.65803 0.71133 0.0
C3100 C 0.89645 0.65963 0.69407 0.0
H3101 H 0.85795 0.63634 0.73102 0.0
H3102 H 0.8728 0.67329 0.71922 0.0
C3103 C 0.90531 0.63945 0.68454 0.0
C3104 C 0.56167 0.63517 0.35682 0.0
C3105 C 0.54512 0.63665 0.37426 0.0
H3106 H 0.58164 0.61304 0.33525 0.0
C3107 C 0.53449 0.61658 0.38193 0.0
H3108 H 0.5701 0.65041 0.3505 0.0
C3109 C 0.5412 0.59536 0.37339 0.0
C3110 C 0.55853 0.59369 0.35678 0.0
H3111 H 0.52155 0.61712 0.39516 0.0
H3112 H 0.53316 0.58014 0.38026 0.0
C3113 C 0.56824 0.61383 0.34802 0.0
C3114 C 0.639 0.81803 0.59821 0.0
C3115 C 0.65912 0.80833 0.60702 0.0
H3116 H 0.60242 0.81989 0.60056 0.0
C3117 C 0.65739 0.791 0.62362 0.0
H3118 H 0.63984 0.83144 0.58544 0.0
C3119 C 0.63615 0.78428 0.63209 0.0
C3120 C 0.6161 0.79491 0.62435 0.0
H3121 H 0.67259 0.78296 0.63054 0.0
H3122 H 0.63556 0.77133 0.64532 0.0
C3123 C 0.61764 0.81147 0.60692 0.0
C3124 C 0.46116 0.90653 0.87401 0.0
C3125 C 0.44381 0.90824 0.85744 0.0
H3126 H 0.48082 0.88473 0.89573 0.0
C3127 C 0.43405 0.88812 0.84869 0.0
H3128 H 0.46924 0.92173 0.88088 0.0
C3129 C 0.4406 0.86677 0.85745 0.0
C3130 C 0.45717 0.86525 0.87486 0.0
H3131 H 0.42063 0.88895 0.83594 0.0
H3132 H 0.43214 0.85154 0.85114 0.0
C3133 C 0.46785 0.8853 0.88252 0.0
C3134 C 0.3459 0.7114 0.12355 0.0
C3135 C 0.34431 0.69421 0.1068 0.0
H3136 H 0.36755 0.73097 0.1455 0.0
C3137 C 0.3645 0.68466 0.09798 0.0
H3138 H 0.33063 0.71931 0.13049 0.0
C3139 C 0.38581 0.69125 0.10684 0.0
C3140 C 0.3872 0.70765 0.12442 0.0
H3141 H 0.36378 0.67137 0.0851 0.0
H3142 H 0.40109 0.68294 0.10046 0.0
C3143 C 0.36708 0.71813 0.13216 0.0
C3144 C 0.53442 0.38603 0.62167 0.0
C3145 C 0.54509 0.366 0.62941 0.0
H3146 H 0.53305 0.42247 0.62318 0.0
C3147 C 0.56165 0.36757 0.64683 0.0
H3148 H 0.52146 0.38541 0.60846 0.0
C3149 C 0.5682 0.38896 0.65552 0.0
C3150 C 0.55846 0.40905 0.64668 0.0
H3151 H 0.5701 0.35237 0.65319 0.0
H3152 H 0.58161 0.38983 0.66826 0.0
C3153 C 0.54111 0.40729 0.63011 0.0
C3154 C 0.84637 0.79132 0.8793 0.0
C3155 C 0.84473 0.80852 0.89604 0.0
H3156 H 0.86809 0.77186 0.85731 0.0
C3157 C 0.86489 0.81818 0.90482 0.0
H3158 H 0.83114 0.78333 0.8724 0.0
C3159 C 0.88621 0.81171 0.89592 0.0
C3160 C 0.88766 0.7953 0.87834 0.0
H3161 H 0.86412 0.83149 0.91768 0.0
H3162 H 0.90146 0.8201 0.90225 0.0
C3163 C 0.86757 0.7847 0.87065 0.0
C3164 C 0.46185 0.0954 0.13027 0.0
C3165 C 0.44441 0.09358 0.14674 0.0
H3166 H 0.48151 0.11733 0.10869 0.0
C3167 C 0.4345 0.11363 0.15548 0.0
H3168 H 0.47004 0.08025 0.12342 0.0
C3169 C 0.44098 0.13503 0.14678 0.0
C3170 C 0.45764 0.13666 0.12945 0.0
H3171 H 0.42102 0.11271 0.16815 0.0
H3172 H 0.4324 0.15021 0.15306 0.0
C3173 C 0.46847 0.11667 0.12183 0.0
C3174 C 0.15739 0.71232 0.38001 0.0
C3175 C 0.1591 0.69506 0.39668 0.0
H3176 H 0.13557 0.73192 0.35825 0.0
C3177 C 0.13898 0.68542 0.40556 0.0
H3178 H 0.17259 0.7203 0.37303 0.0
C3179 C 0.11761 0.69199 0.39684 0.0
C3180 C 0.11609 0.70847 0.37933 0.0
H3181 H 0.1398 0.67208 0.41838 0.0
H3182 H 0.10238 0.68363 0.40326 0.0
C3183 C 0.13615 0.71903 0.37153 0.0
C3184 C 0.8567 0.56184 0.13439 0.0
C3185 C 0.8743 0.54546 0.13585 0.0
H3186 H 0.83499 0.58167 0.1123 0.0
C3187 C 0.88213 0.53499 0.11575 0.0
H3188 H 0.85025 0.57013 0.14965 0.0
C3189 C 0.87359 0.5417 0.09454 0.0
C3190 C 0.85681 0.55887 0.09291 0.0
H3191 H 0.89549 0.52218 0.11628 0.0
H3192 H 0.88058 0.5338 0.07931 0.0
C3193 C 0.8479 0.5684 0.11306 0.0
C3194 C 0.34787 0.43457 0.38969 0.0
C3195 C 0.35672 0.44422 0.40981 0.0
H3196 H 0.35022 0.43275 0.3531 0.0
C3197 C 0.3734 0.46149 0.40811 0.0
H3198 H 0.33505 0.42122 0.39051 0.0
C3199 C 0.38189 0.46819 0.38688 0.0
C3200 C 0.37411 0.45762 0.36682 0.0
H3201 H 0.38034 0.46948 0.42332 0.0
H3202 H 0.39517 0.48109 0.38631 0.0
C3203 C 0.35662 0.44113 0.36833 0.0
C3204 C 0.79138 0.62364 0.6576 0.0
C3205 C 0.80867 0.607 0.65931 0.0
H3206 H 0.77169 0.64531 0.63579 0.0
C3207 C 0.81828 0.59808 0.63919 0.0
H3208 H 0.78342 0.63063 0.67281 0.0
C3209 C 0.81165 0.60675 0.61782 0.0
C3210 C 0.79514 0.62422 0.6163 0.0
H3211 H 0.83165 0.58528 0.64001 0.0
H3212 H 0.82 0.60031 0.60258 0.0
C3213 C 0.78461 0.63205 0.63636 0.0
C3214 C 0.62963 0.04052 0.90817 0.0
C3215 C 0.64628 0.05782 0.90977 0.0
H3216 H 0.60779 0.02086 0.88649 0.0
C3217 C 0.65501 0.06747 0.8896 0.0
H3218 H 0.62278 0.03252 0.92342 0.0
C3219 C 0.64617 0.06088 0.86829 0.0
C3220 C 0.6287 0.04436 0.86688 0.0
H3221 H 0.66781 0.08085 0.89034 0.0
H3222 H 0.65247 0.06926 0.85302 0.0
C3223 C 0.62105 0.03378 0.88699 0.0
C3224 C 0.68444 0.40552 0.13843 0.0
C3225 C 0.69423 0.39672 0.15851 0.0
H3226 H 0.68243 0.40312 0.10185 0.0
C3227 C 0.71157 0.38014 0.15673 0.0
H3228 H 0.67103 0.41827 0.13931 0.0
C3229 C 0.71819 0.37165 0.13547 0.0
C3230 C 0.70747 0.37935 0.11546 0.0
H3231 H 0.71967 0.37323 0.17191 0.0
H3232 H 0.73114 0.35842 0.13485 0.0
C3233 C 0.69092 0.39678 0.11704 0.0
C3234 C 0.14689 0.44242 0.1345 0.0
C3235 C 0.12944 0.45896 0.13594 0.0
H3236 H 0.1684 0.42235 0.1124 0.0
C3237 C 0.1217 0.46948 0.11583 0.0
H3238 H 0.15327 0.43408 0.14976 0.0
C3239 C 0.13017 0.46266 0.09463 0.0
C3240 C 0.14679 0.44533 0.093 0.0
H3241 H 0.10846 0.48242 0.11635 0.0
H3242 H 0.12325 0.4706 0.07939 0.0
C3243 C 0.15562 0.43574 0.11316 0.0
C3244 C 0.78552 0.87122 0.86681 0.0
C3245 C 0.7963 0.87882 0.88683 0.0
H3246 H 0.78398 0.87294 0.83039 0.0
C3247 C 0.81292 0.8962 0.88527 0.0
H3248 H 0.77252 0.85805 0.86741 0.0
C3249 C 0.81939 0.90498 0.8639 0.0
C3250 C 0.80952 0.89629 0.84381 0.0
H3251 H 0.82146 0.90245 0.90047 0.0
H3252 H 0.83284 0.9177 0.86304 0.0
C3253 C 0.79214 0.87976 0.84557 0.0
C3254 C 0.21834 0.63274 0.36677 0.0
C3255 C 0.20776 0.62486 0.38679 0.0
H3256 H 0.2197 0.63133 0.33033 0.0
C3257 C 0.19134 0.6073 0.38519 0.0
H3258 H 0.23119 0.64607 0.36741 0.0
C3259 C 0.18486 0.59861 0.36379 0.0
C3260 C 0.19451 0.60756 0.34371 0.0
H3261 H 0.18296 0.60082 0.40038 0.0
H3262 H 0.17155 0.58575 0.3629 0.0
C3263 C 0.21171 0.62429 0.3455 0.0
loop_
_geom_bond_atom_site_label_1
_geom_bond_atom_site_label_2
_geom_bond_distance
_geom_bond_site_symmetry_2
_ccdc_geom_bond_type
Co0 O1 2.216 . S
Co0 O2 2.091 . S
Co0 O4 2.004 . S
Co0 O10 2.021 . S
Co0 O12 2.137 . S
Co0 O13 2.244 . S
O1 Co0 2.216 . S
O1 C8 1.247 . S
O2 Co0 2.091 . S
O2 C8 1.261 . S
C3 O12 1.247 . S
C3 O13 1.272 . S
O4 Co0 2.004 . S
O4 C9 1.259 . S
Co5 O6 2.061 . S
Co5 O11 2.052 . S
Co5 O13 2.135 . S
O6 Co5 2.061 . S
O6 C9 1.235 . S
C7 O10 1.238 . S
C7 O11 1.241 . S
C8 O1 1.247 . S
C8 O2 1.261 . S
C9 O4 1.259 . S
C9 O6 1.235 . S
O10 Co0 2.021 . S
O10 C7 1.238 . S
O11 Co5 2.052 . S
O11 C7 1.241 . S
O12 Co0 2.137 . S
O12 C3 1.247 . S
O13 Co0 2.244 . S
O13 C3 1.272 . S
O13 Co5 2.135 . S
Co14 O15 2.216 . S
Co14 O16 2.091 . S
Co14 O18 2.004 . S
Co14 O24 2.021 . S
Co14 O26 2.137 . S
Co14 O27 2.244 . S
O15 Co14 2.216 . S
O15 C22 1.247 . S
O16 Co14 2.091 . S
O16 C22 1.261 . S
C17 O26 1.247 . S
C17 O27 1.272 . S
O18 Co14 2.004 . S
O18 C23 1.259 . S
Co19 O20 2.061 . S
Co19 O25 2.052 . S
Co19 O27 2.135 . S
O20 Co19 2.061 . S
O20 C23 1.235 . S
C21 O24 1.238 . S
C21 O25 1.241 . S
C22 O15 1.247 . S
C22 O16 1.261 . S
C23 O18 1.259 . S
C23 O20 1.235 . S
O24 Co14 2.021 . S
O24 C21 1.238 . S
O25 Co19 2.052 . S
O25 C21 1.241 . S
O26 Co14 2.137 . S
O26 C17 1.247 . S
O27 Co14 2.244 . S
O27 C17 1.272 . S
O27 Co19 2.135 . S
Co28 O29 2.216 . S
Co28 O30 2.091 . S
Co28 O32 2.004 . S
Co28 O38 2.021 . S
Co28 O40 2.137 . S
Co28 O41 2.244 . S
O29 Co28 2.216 . S
O29 C36 1.247 . S
O30 Co28 2.091 . S
O30 C36 1.261 . S
C31 O40 1.247 . S
C31 O41 1.272 . S
O32 Co28 2.004 . S
O32 C37 1.259 . S
Co33 O34 2.061 . S
Co33 O39 2.052 . S
Co33 O41 2.135 . S
O34 Co33 2.061 . S
O34 C37 1.235 . S
C35 O38 1.238 . S
C35 O39 1.241 . S
C36 O29 1.247 . S
C36 O30 1.261 . S
C37 O32 1.259 . S
C37 O34 1.235 . S
O38 Co28 2.021 . S
O38 C35 1.238 . S
O39 Co33 2.052 . S
O39 C35 1.241 . S
O40 Co28 2.137 . S
O40 C31 1.247 . S
O41 Co28 2.244 . S
O41 C31 1.272 . S
O41 Co33 2.135 . S
Co42 O43 2.216 . S
Co42 O44 2.091 . S
Co42 O46 2.004 . S
Co42 O52 2.021 . S
Co42 O54 2.137 . S
Co42 O55 2.244 . S
O43 Co42 2.216 . S
O43 C50 1.247 . S
O44 Co42 2.091 . S
O44 C50 1.261 . S
C45 O54 1.247 . S
C45 O55 1.272 . S
O46 Co42 2.004 . S
O46 C51 1.259 . S
Co47 O48 2.061 . S
Co47 O53 2.052 . S
Co47 O55 2.135 . S
O48 Co47 2.061 . S
O48 C51 1.235 . S
C49 O52 1.238 . S
C49 O53 1.241 . S
C50 O43 1.247 . S
C50 O44 1.261 . S
C51 O46 1.259 . S
C51 O48 1.235 . S
O52 Co42 2.021 . S
O52 C49 1.238 . S
O53 Co47 2.052 . S
O53 C49 1.241 . S
O54 Co42 2.137 . S
O54 C45 1.247 . S
O55 Co42 2.244 . S
O55 C45 1.272 . S
O55 Co47 2.135 . S
Co56 O57 2.216 . S
Co56 O58 2.091 . S
Co56 O60 2.004 . S
Co56 O66 2.021 . S
Co56 O68 2.137 . S
Co56 O69 2.244 . S
O57 Co56 2.216 . S
O57 C64 1.247 . S
O58 Co56 2.091 . S
O58 C64 1.261 . S
C59 O68 1.247 . S
C59 O69 1.272 . S
O60 Co56 2.004 . S
O60 C65 1.259 . S
Co61 O62 2.061 . S
Co61 O67 2.052 . S
Co61 O69 2.135 . S
O62 Co61 2.061 . S
O62 C65 1.235 . S
C63 O66 1.238 . S
C63 O67 1.241 . S
C64 O57 1.247 . S
C64 O58 1.261 . S
C65 O60 1.259 . S
C65 O62 1.235 . S
O66 Co56 2.021 . S
O66 C63 1.238 . S
O67 Co61 2.052 . S
O67 C63 1.241 . S
O68 Co56 2.137 . S
O68 C59 1.247 . S
O69 Co56 2.244 . S
O69 C59 1.272 . S
O69 Co61 2.135 . S
Co70 O71 2.216 . S
Co70 O72 2.091 . S
Co70 O74 2.004 . S
Co70 O80 2.021 . S
Co70 O82 2.137 . S
Co70 O83 2.244 . S
O71 Co70 2.216 . S
O71 C78 1.247 . S
O72 Co70 2.091 . S
O72 C78 1.261 . S
C73 O82 1.247 . S
C73 O83 1.272 . S
O74 Co70 2.004 . S
O74 C79 1.259 . S
Co75 O76 2.061 . S
Co75 O81 2.052 . S
Co75 O83 2.135 . S
O76 Co75 2.061 . S
O76 C79 1.235 . S
C77 O80 1.238 . S
C77 O81 1.241 . S
C78 O71 1.247 . S
C78 O72 1.261 . S
C79 O74 1.259 . S
C79 O76 1.235 . S
O80 Co70 2.021 . S
O80 C77 1.238 . S
O81 Co75 2.052 . S
O81 C77 1.241 . S
O82 Co70 2.137 . S
O82 C73 1.247 . S
O83 Co70 2.244 . S
O83 C73 1.272 . S
O83 Co75 2.135 . S
Co84 O85 2.216 . S
Co84 O86 2.091 . S
Co84 O88 2.004 . S
Co84 O94 2.021 . S
Co84 O96 2.137 . S
Co84 O97 2.244 . S
O85 Co84 2.216 . S
O85 C92 1.247 . S
O86 Co84 2.091 . S
O86 C92 1.261 . S
C87 O96 1.247 . S
C87 O97 1.272 . S
O88 Co84 2.004 . S
O88 C93 1.259 . S
Co89 O90 2.061 . S
Co89 O95 2.052 . S
Co89 O97 2.135 . S
O90 Co89 2.061 . S
O90 C93 1.235 . S
C91 O94 1.238 . S
C91 O95 1.241 . S
C92 O85 1.247 . S
C92 O86 1.261 . S
C93 O88 1.259 . S
C93 O90 1.235 . S
O94 Co84 2.021 . S
O94 C91 1.238 . S
O95 Co89 2.052 . S
O95 C91 1.241 . S
O96 Co84 2.137 . S
O96 C87 1.247 . S
O97 Co84 2.244 . S
O97 C87 1.272 . S
O97 Co89 2.135 . S
Co98 O99 2.216 . S
Co98 O100 2.091 . S
Co98 O102 2.004 . S
Co98 O108 2.021 . S
Co98 O110 2.137 . S
Co98 O111 2.244 . S
O99 Co98 2.216 . S
O99 C106 1.247 . S
O100 Co98 2.091 . S
O100 C106 1.261 . S
C101 O110 1.247 . S
C101 O111 1.272 . S
O102 Co98 2.004 . S
O102 C107 1.259 . S
Co103 O104 2.061 . S
Co103 O109 2.052 . S
Co103 O111 2.135 . S
O104 Co103 2.061 . S
O104 C107 1.235 . S
C105 O108 1.238 . S
C105 O109 1.241 . S
C106 O99 1.247 . S
C106 O100 1.261 . S
C107 O102 1.259 . S
C107 O104 1.235 . S
O108 Co98 2.021 . S
O108 C105 1.238 . S
O109 Co103 2.052 . S
O109 C105 1.241 . S
O110 Co98 2.137 . S
O110 C101 1.247 . S
O111 Co98 2.244 . S
O111 C101 1.272 . S
O111 Co103 2.135 . S
Co112 O113 2.216 . S
Co112 O114 2.091 . S
Co112 O116 2.004 . S
Co112 O122 2.021 . S
Co112 O124 2.137 . S
Co112 O125 2.244 . S
O113 Co112 2.216 . S
O113 C120 1.247 . S
O114 Co112 2.091 . S
O114 C120 1.261 . S
C115 O124 1.247 . S
C115 O125 1.272 . S
O116 Co112 2.004 . S
O116 C121 1.259 . S
Co117 O118 2.061 . S
Co117 O123 2.052 . S
Co117 O125 2.135 . S
O118 Co117 2.061 . S
O118 C121 1.235 . S
C119 O122 1.238 . S
C119 O123 1.241 . S
C120 O113 1.247 . S
C120 O114 1.261 . S
C121 O116 1.259 . S
C121 O118 1.235 . S
O122 Co112 2.021 . S
O122 C119 1.238 . S
O123 Co117 2.052 . S
O123 C119 1.241 . S
O124 Co112 2.137 . S
O124 C115 1.247 . S
O125 Co112 2.244 . S
O125 C115 1.272 . S
O125 Co117 2.135 . S
Co126 O127 2.216 . S
Co126 O128 2.091 . S
Co126 O130 2.004 . S
Co126 O136 2.021 . S
Co126 O138 2.137 . S
Co126 O139 2.244 . S
O127 Co126 2.216 . S
O127 C134 1.247 . S
O128 Co126 2.091 . S
O128 C134 1.261 . S
C129 O138 1.247 . S
C129 O139 1.272 . S
O130 Co126 2.004 . S
O130 C135 1.259 . S
Co131 O132 2.061 . S
Co131 O137 2.052 . S
Co131 O139 2.135 . S
O132 Co131 2.061 . S
O132 C135 1.235 . S
C133 O136 1.238 . S
C133 O137 1.241 . S
C134 O127 1.247 . S
C134 O128 1.261 . S
C135 O130 1.259 . S
C135 O132 1.235 . S
O136 Co126 2.021 . S
O136 C133 1.238 . S
O137 Co131 2.052 . S
O137 C133 1.241 . S
O138 Co126 2.137 . S
O138 C129 1.247 . S
O139 Co126 2.244 . S
O139 C129 1.272 . S
O139 Co131 2.135 . S
Co140 O141 2.216 . S
Co140 O142 2.091 . S
Co140 O144 2.004 . S
Co140 O150 2.021 . S
Co140 O152 2.137 . S
Co140 O153 2.244 . S
O141 Co140 2.216 . S
O141 C148 1.247 . S
O142 Co140 2.091 . S
O142 C148 1.261 . S
C143 O152 1.247 . S
C143 O153 1.272 . S
O144 Co140 2.004 . S
O144 C149 1.259 . S
Co145 O146 2.061 . S
Co145 O151 2.052 . S
Co145 O153 2.135 . S
O146 Co145 2.061 . S
O146 C149 1.235 . S
C147 O150 1.238 . S
C147 O151 1.241 . S
C148 O141 1.247 . S
C148 O142 1.261 . S
C149 O144 1.259 . S
C149 O146 1.235 . S
O150 Co140 2.021 . S
O150 C147 1.238 . S
O151 Co145 2.052 . S
O151 C147 1.241 . S
O152 Co140 2.137 . S
O152 C143 1.247 . S
O153 Co140 2.244 . S
O153 C143 1.272 . S
O153 Co145 2.135 . S
Co154 O155 2.216 . S
Co154 O156 2.091 . S
Co154 O158 2.004 . S
Co154 O164 2.021 . S
Co154 O166 2.137 . S
Co154 O167 2.244 . S
O155 Co154 2.216 . S
O155 C162 1.247 . S
O156 Co154 2.091 . S
O156 C162 1.261 . S
C157 O166 1.247 . S
C157 O167 1.272 . S
O158 Co154 2.004 . S
O158 C163 1.259 . S
Co159 O160 2.061 . S
Co159 O165 2.052 . S
Co159 O167 2.135 . S
O160 Co159 2.061 . S
O160 C163 1.235 . S
C161 O164 1.238 . S
C161 O165 1.241 . S
C162 O155 1.247 . S
C162 O156 1.261 . S
C163 O158 1.259 . S
C163 O160 1.235 . S
O164 Co154 2.021 . S
O164 C161 1.238 . S
O165 Co159 2.052 . S
O165 C161 1.241 . S
O166 Co154 2.137 . S
O166 C157 1.247 . S
O167 Co154 2.244 . S
O167 C157 1.272 . S
O167 Co159 2.135 . S
Co168 O169 2.216 . S
Co168 O170 2.091 . S
Co168 O172 2.004 . S
Co168 O178 2.021 . S
Co168 O180 2.137 . S
Co168 O181 2.244 . S
O169 Co168 2.216 . S
O169 C176 1.247 . S
O170 Co168 2.091 . S
O170 C176 1.261 . S
C171 O180 1.247 . S
C171 O181 1.272 . S
O172 Co168 2.004 . S
O172 C177 1.259 . S
Co173 O174 2.061 . S
Co173 O179 2.052 . S
Co173 O181 2.135 . S
O174 Co173 2.061 . S
O174 C177 1.235 . S
C175 O178 1.238 . S
C175 O179 1.241 . S
C176 O169 1.247 . S
C176 O170 1.261 . S
C177 O172 1.259 . S
C177 O174 1.235 . S
O178 Co168 2.021 . S
O178 C175 1.238 . S
O179 Co173 2.052 . S
O179 C175 1.241 . S
O180 Co168 2.137 . S
O180 C171 1.247 . S
O181 Co168 2.244 . S
O181 C171 1.272 . S
O181 Co173 2.135 . S
Co182 O183 2.216 . S
Co182 O184 2.091 . S
Co182 O186 2.004 . S
Co182 O192 2.021 . S
Co182 O194 2.137 . S
Co182 O195 2.244 . S
O183 Co182 2.216 . S
O183 C190 1.247 . S
O184 Co182 2.091 . S
O184 C190 1.261 . S
C185 O194 1.247 . S
C185 O195 1.272 . S
O186 Co182 2.004 . S
O186 C191 1.259 . S
Co187 O188 2.061 . S
Co187 O193 2.052 . S
Co187 O195 2.135 . S
O188 Co187 2.061 . S
O188 C191 1.235 . S
C189 O192 1.238 . S
C189 O193 1.241 . S
C190 O183 1.247 . S
C190 O184 1.261 . S
C191 O186 1.259 . S
C191 O188 1.235 . S
O192 Co182 2.021 . S
O192 C189 1.238 . S
O193 Co187 2.052 . S
O193 C189 1.241 . S
O194 Co182 2.137 . S
O194 C185 1.247 . S
O195 Co182 2.244 . S
O195 C185 1.272 . S
O195 Co187 2.135 . S
Co196 O197 2.216 . S
Co196 O198 2.091 . S
Co196 O200 2.004 . S
Co196 O206 2.021 . S
Co196 O208 2.137 . S
Co196 O209 2.244 . S
O197 Co196 2.216 . S
O197 C204 1.247 . S
O198 Co196 2.091 . S
O198 C204 1.261 . S
C199 O208 1.247 . S
C199 O209 1.272 . S
O200 Co196 2.004 . S
O200 C205 1.259 . S
Co201 O202 2.061 . S
Co201 O207 2.052 . S
Co201 O209 2.135 . S
O202 Co201 2.061 . S
O202 C205 1.235 . S
C203 O206 1.238 . S
C203 O207 1.241 . S
C204 O197 1.247 . S
C204 O198 1.261 . S
C205 O200 1.259 . S
C205 O202 1.235 . S
O206 Co196 2.021 . S
O206 C203 1.238 . S
O207 Co201 2.052 . S
O207 C203 1.241 . S
O208 Co196 2.137 . S
O208 C199 1.247 . S
O209 Co196 2.244 . S
O209 C199 1.272 . S
O209 Co201 2.135 . S
Co210 O211 2.216 . S
Co210 O212 2.091 . S
Co210 O214 2.004 . S
Co210 O220 2.021 . S
Co210 O222 2.137 . S
Co210 O223 2.244 . S
O211 Co210 2.216 . S
O211 C218 1.247 . S
O212 Co210 2.091 . S
O212 C218 1.261 . S
C213 O222 1.247 . S
C213 O223 1.272 . S
O214 Co210 2.004 . S
O214 C219 1.259 . S
Co215 O216 2.061 . S
Co215 O221 2.052 . S
Co215 O223 2.135 . S
O216 Co215 2.061 . S
O216 C219 1.235 . S
C217 O220 1.238 . S
C217 O221 1.241 . S
C218 O211 1.247 . S
C218 O212 1.261 . S
C219 O214 1.259 . S
C219 O216 1.235 . S
O220 Co210 2.021 . S
O220 C217 1.238 . S
O221 Co215 2.052 . S
O221 C217 1.241 . S
O222 Co210 2.137 . S
O222 C213 1.247 . S
O223 Co210 2.244 . S
O223 C213 1.272 . S
O223 Co215 2.135 . S
Co224 O225 2.216 . S
Co224 O226 2.091 . S
Co224 O228 2.004 . S
Co224 O234 2.021 . S
Co224 O236 2.137 . S
Co224 O237 2.244 . S
O225 Co224 2.216 . S
O225 C232 1.247 . S
O226 Co224 2.091 . S
O226 C232 1.261 . S
C227 O236 1.247 . S
C227 O237 1.272 . S
O228 Co224 2.004 . S
O228 C233 1.259 . S
Co229 O230 2.061 . S
Co229 O235 2.052 . S
Co229 O237 2.135 . S
O230 Co229 2.061 . S
O230 C233 1.235 . S
C231 O234 1.238 . S
C231 O235 1.241 . S
C232 O225 1.247 . S
C232 O226 1.261 . S
C233 O228 1.259 . S
C233 O230 1.235 . S
O234 Co224 2.021 . S
O234 C231 1.238 . S
O235 Co229 2.052 . S
O235 C231 1.241 . S
O236 Co224 2.137 . S
O236 C227 1.247 . S
O237 Co224 2.244 . S
O237 C227 1.272 . S
O237 Co229 2.135 . S
Co238 O239 2.216 . S
Co238 O240 2.091 . S
Co238 O242 2.004 . S
Co238 O248 2.021 . S
Co238 O250 2.137 . S
Co238 O251 2.244 . S
O239 Co238 2.216 . S
O239 C246 1.247 . S
O240 Co238 2.091 . S
O240 C246 1.261 . S
C241 O250 1.247 . S
C241 O251 1.272 . S
O242 Co238 2.004 . S
O242 C247 1.259 . S
Co243 O244 2.061 . S
Co243 O249 2.052 . S
Co243 O251 2.135 . S
O244 Co243 2.061 . S
O244 C247 1.235 . S
C245 O248 1.238 . S
C245 O249 1.241 . S
C246 O239 1.247 . S
C246 O240 1.261 . S
C247 O242 1.259 . S
C247 O244 1.235 . S
O248 Co238 2.021 . S
O248 C245 1.238 . S
O249 Co243 2.052 . S
O249 C245 1.241 . S
O250 Co238 2.137 . S
O250 C241 1.247 . S
O251 Co238 2.244 . S
O251 C241 1.272 . S
O251 Co243 2.135 . S
Co252 O253 2.216 . S
Co252 O254 2.091 . S
Co252 O256 2.004 . S
Co252 O262 2.021 . S
Co252 O264 2.137 . S
Co252 O265 2.244 . S
O253 Co252 2.216 . S
O253 C260 1.247 . S
O254 Co252 2.091 . S
O254 C260 1.261 . S
C255 O264 1.247 . S
C255 O265 1.272 . S
O256 Co252 2.004 . S
O256 C261 1.259 . S
Co257 O258 2.061 . S
Co257 O263 2.052 . S
Co257 O265 2.135 . S
O258 Co257 2.061 . S
O258 C261 1.235 . S
C259 O262 1.238 . S
C259 O263 1.241 . S
C260 O253 1.247 . S
C260 O254 1.261 . S
C261 O256 1.259 . S
C261 O258 1.235 . S
O262 Co252 2.021 . S
O262 C259 1.238 . S
O263 Co257 2.052 . S
O263 C259 1.241 . S
O264 Co252 2.137 . S
O264 C255 1.247 . S
O265 Co252 2.244 . S
O265 C255 1.272 . S
O265 Co257 2.135 . S
Co266 O267 2.216 . S
Co266 O268 2.091 . S
Co266 O270 2.004 . S
Co266 O276 2.021 . S
Co266 O278 2.137 . S
Co266 O279 2.244 . S
O267 Co266 2.216 . S
O267 C274 1.247 . S
O268 Co266 2.091 . S
O268 C274 1.261 . S
C269 O278 1.247 . S
C269 O279 1.272 . S
O270 Co266 2.004 . S
O270 C275 1.259 . S
Co271 O272 2.061 . S
Co271 O277 2.052 . S
Co271 O279 2.135 . S
O272 Co271 2.061 . S
O272 C275 1.235 . S
C273 O276 1.238 . S
C273 O277 1.241 . S
C274 O267 1.247 . S
C274 O268 1.261 . S
C275 O270 1.259 . S
C275 O272 1.235 . S
O276 Co266 2.021 . S
O276 C273 1.238 . S
O277 Co271 2.052 . S
O277 C273 1.241 . S
O278 Co266 2.137 . S
O278 C269 1.247 . S
O279 Co266 2.244 . S
O279 C269 1.272 . S
O279 Co271 2.135 . S
Co280 O281 2.216 . S
Co280 O282 2.091 . S
Co280 O284 2.004 . S
Co280 O290 2.021 . S
Co280 O292 2.137 . S
Co280 O293 2.244 . S
O281 Co280 2.216 . S
O281 C288 1.247 . S
O282 Co280 2.091 . S
O282 C288 1.261 . S
C283 O292 1.247 . S
C283 O293 1.272 . S
O284 Co280 2.004 . S
O284 C289 1.259 . S
Co285 O286 2.061 . S
Co285 O291 2.052 . S
Co285 O293 2.135 . S
O286 Co285 2.061 . S
O286 C289 1.235 . S
C287 O290 1.238 . S
C287 O291 1.241 . S
C288 O281 1.247 . S
C288 O282 1.261 . S
C289 O284 1.259 . S
C289 O286 1.235 . S
O290 Co280 2.021 . S
O290 C287 1.238 . S
O291 Co285 2.052 . S
O291 C287 1.241 . S
O292 Co280 2.137 . S
O292 C283 1.247 . S
O293 Co280 2.244 . S
O293 C283 1.272 . S
O293 Co285 2.135 . S
Co294 O295 2.216 . S
Co294 O296 2.091 . S
Co294 O298 2.004 . S
Co294 O304 2.021 . S
Co294 O306 2.137 . S
Co294 O307 2.244 . S
O295 Co294 2.216 . S
O295 C302 1.247 . S
O296 Co294 2.091 . S
O296 C302 1.261 . S
C297 O306 1.247 . S
C297 O307 1.272 . S
O298 Co294 2.004 . S
O298 C303 1.259 . S
Co299 O300 2.061 . S
Co299 O305 2.052 . S
Co299 O307 2.135 . S
O300 Co299 2.061 . S
O300 C303 1.235 . S
C301 O304 1.238 . S
C301 O305 1.241 . S
C302 O295 1.247 . S
C302 O296 1.261 . S
C303 O298 1.259 . S
C303 O300 1.235 . S
O304 Co294 2.021 . S
O304 C301 1.238 . S
O305 Co299 2.052 . S
O305 C301 1.241 . S
O306 Co294 2.137 . S
O306 C297 1.247 . S
O307 Co294 2.244 . S
O307 C297 1.272 . S
O307 Co299 2.135 . S
Co308 O309 2.216 . S
Co308 O310 2.091 . S
Co308 O312 2.004 . S
Co308 O318 2.021 . S
Co308 O320 2.137 . S
Co308 O321 2.244 . S
O309 Co308 2.216 . S
O309 C316 1.247 . S
O310 Co308 2.091 . S
O310 C316 1.261 . S
C311 O320 1.247 . S
C311 O321 1.272 . S
O312 Co308 2.004 . S
O312 C317 1.259 . S
Co313 O314 2.061 . S
Co313 O319 2.052 . S
Co313 O321 2.135 . S
O314 Co313 2.061 . S
O314 C317 1.235 . S
C315 O318 1.238 . S
C315 O319 1.241 . S
C316 O309 1.247 . S
C316 O310 1.261 . S
C317 O312 1.259 . S
C317 O314 1.235 . S
O318 Co308 2.021 . S
O318 C315 1.238 . S
O319 Co313 2.052 . S
O319 C315 1.241 . S
O320 Co308 2.137 . S
O320 C311 1.247 . S
O321 Co308 2.244 . S
O321 C311 1.272 . S
O321 Co313 2.135 . S
Co322 O323 2.216 . S
Co322 O324 2.091 . S
Co322 O326 2.004 . S
Co322 O332 2.021 . S
Co322 O334 2.137 . S
Co322 O335 2.244 . S
O323 Co322 2.216 . S
O323 C330 1.247 . S
O324 Co322 2.091 . S
O324 C330 1.261 . S
C325 O334 1.247 . S
C325 O335 1.272 . S
O326 Co322 2.004 . S
O326 C331 1.259 . S
Co327 O328 2.061 . S
Co327 O333 2.052 . S
Co327 O335 2.135 . S
O328 Co327 2.061 . S
O328 C331 1.235 . S
C329 O332 1.238 . S
C329 O333 1.241 . S
C330 O323 1.247 . S
C330 O324 1.261 . S
C331 O326 1.259 . S
C331 O328 1.235 . S
O332 Co322 2.021 . S
O332 C329 1.238 . S
O333 Co327 2.052 . S
O333 C329 1.241 . S
O334 Co322 2.137 . S
O334 C325 1.247 . S
O335 Co322 2.244 . S
O335 C325 1.272 . S
O335 Co327 2.135 . S
Co336 O337 2.216 . S
Co336 O338 2.091 . S
Co336 O340 2.004 . S
Co336 O346 2.021 . S
Co336 O348 2.137 . S
Co336 O349 2.244 . S
O337 Co336 2.216 . S
O337 C344 1.247 . S
O338 Co336 2.091 . S
O338 C344 1.261 . S
C339 O348 1.247 . S
C339 O349 1.272 . S
O340 Co336 2.004 . S
O340 C345 1.259 . S
Co341 O342 2.061 . S
Co341 O347 2.052 . S
Co341 O349 2.135 . S
O342 Co341 2.061 . S
O342 C345 1.235 . S
C343 O346 1.238 . S
C343 O347 1.241 . S
C344 O337 1.247 . S
C344 O338 1.261 . S
C345 O340 1.259 . S
C345 O342 1.235 . S
O346 Co336 2.021 . S
O346 C343 1.238 . S
O347 Co341 2.052 . S
O347 C343 1.241 . S
O348 Co336 2.137 . S
O348 C339 1.247 . S
O349 Co336 2.244 . S
O349 C339 1.272 . S
O349 Co341 2.135 . S
Co350 O351 2.216 . S
Co350 O352 2.091 . S
Co350 O354 2.004 . S
Co350 O360 2.021 . S
Co350 O362 2.137 . S
Co350 O363 2.244 . S
O351 Co350 2.216 . S
O351 C358 1.247 . S
O352 Co350 2.091 . S
O352 C358 1.261 . S
C353 O362 1.247 . S
C353 O363 1.272 . S
O354 Co350 2.004 . S
O354 C359 1.259 . S
Co355 O356 2.061 . S
Co355 O361 2.052 . S
Co355 O363 2.135 . S
O356 Co355 2.061 . S
O356 C359 1.235 . S
C357 O360 1.238 . S
C357 O361 1.241 . S
C358 O351 1.247 . S
C358 O352 1.261 . S
C359 O354 1.259 . S
C359 O356 1.235 . S
O360 Co350 2.021 . S
O360 C357 1.238 . S
O361 Co355 2.052 . S
O361 C357 1.241 . S
O362 Co350 2.137 . S
O362 C353 1.247 . S
O363 Co350 2.244 . S
O363 C353 1.272 . S
O363 Co355 2.135 . S
Co364 O365 2.216 . S
Co364 O366 2.091 . S
Co364 O368 2.004 . S
Co364 O374 2.021 . S
Co364 O376 2.137 . S
Co364 O377 2.244 . S
O365 Co364 2.216 . S
O365 C372 1.247 . S
O366 Co364 2.091 . S
O366 C372 1.261 . S
C367 O376 1.247 . S
C367 O377 1.272 . S
O368 Co364 2.004 . S
O368 C373 1.259 . S
Co369 O370 2.061 . S
Co369 O375 2.052 . S
Co369 O377 2.135 . S
O370 Co369 2.061 . S
O370 C373 1.235 . S
C371 O374 1.238 . S
C371 O375 1.241 . S
C372 O365 1.247 . S
C372 O366 1.261 . S
C373 O368 1.259 . S
C373 O370 1.235 . S
O374 Co364 2.021 . S
O374 C371 1.238 . S
O375 Co369 2.052 . S
O375 C371 1.241 . S
O376 Co364 2.137 . S
O376 C367 1.247 . S
O377 Co364 2.244 . S
O377 C367 1.272 . S
O377 Co369 2.135 . S
Co378 O379 2.216 . S
Co378 O380 2.091 . S
Co378 O382 2.004 . S
Co378 O388 2.021 . S
Co378 O390 2.137 . S
Co378 O391 2.244 . S
O379 Co378 2.216 . S
O379 C386 1.247 . S
O380 Co378 2.091 . S
O380 C386 1.261 . S
C381 O390 1.247 . S
C381 O391 1.272 . S
O382 Co378 2.004 . S
O382 C387 1.259 . S
Co383 O384 2.061 . S
Co383 O389 2.052 . S
Co383 O391 2.135 . S
O384 Co383 2.061 . S
O384 C387 1.235 . S
C385 O388 1.238 . S
C385 O389 1.241 . S
C386 O379 1.247 . S
C386 O380 1.261 . S
C387 O382 1.259 . S
C387 O384 1.235 . S
O388 Co378 2.021 . S
O388 C385 1.238 . S
O389 Co383 2.052 . S
O389 C385 1.241 . S
O390 Co378 2.137 . S
O390 C381 1.247 . S
O391 Co378 2.244 . S
O391 C381 1.272 . S
O391 Co383 2.135 . S
Co392 O393 2.216 . S
Co392 O394 2.091 . S
Co392 O396 2.004 . S
Co392 O402 2.021 . S
Co392 O404 2.137 . S
Co392 O405 2.244 . S
O393 Co392 2.216 . S
O393 C400 1.247 . S
O394 Co392 2.091 . S
O394 C400 1.261 . S
C395 O404 1.247 . S
C395 O405 1.272 . S
O396 Co392 2.004 . S
O396 C401 1.259 . S
Co397 O398 2.061 . S
Co397 O403 2.052 . S
Co397 O405 2.135 . S
O398 Co397 2.061 . S
O398 C401 1.235 . S
C399 O402 1.238 . S
C399 O403 1.241 . S
C400 O393 1.247 . S
C400 O394 1.261 . S
C401 O396 1.259 . S
C401 O398 1.235 . S
O402 Co392 2.021 . S
O402 C399 1.238 . S
O403 Co397 2.052 . S
O403 C399 1.241 . S
O404 Co392 2.137 . S
O404 C395 1.247 . S
O405 Co392 2.244 . S
O405 C395 1.272 . S
O405 Co397 2.135 . S
Co406 O407 2.216 . S
Co406 O408 2.091 . S
Co406 O410 2.004 . S
Co406 O416 2.021 . S
Co406 O418 2.137 . S
Co406 O419 2.244 . S
O407 Co406 2.216 . S
O407 C414 1.247 . S
O408 Co406 2.091 . S
O408 C414 1.261 . S
C409 O418 1.247 . S
C409 O419 1.272 . S
O410 Co406 2.004 . S
O410 C415 1.259 . S
Co411 O412 2.061 . S
Co411 O417 2.052 . S
Co411 O419 2.135 . S
O412 Co411 2.061 . S
O412 C415 1.235 . S
C413 O416 1.238 . S
C413 O417 1.241 . S
C414 O407 1.247 . S
C414 O408 1.261 . S
C415 O410 1.259 . S
C415 O412 1.235 . S
O416 Co406 2.021 . S
O416 C413 1.238 . S
O417 Co411 2.052 . S
O417 C413 1.241 . S
O418 Co406 2.137 . S
O418 C409 1.247 . S
O419 Co406 2.244 . S
O419 C409 1.272 . S
O419 Co411 2.135 . S
Co420 O421 2.216 . S
Co420 O422 2.091 . S
Co420 O424 2.004 . S
Co420 O430 2.021 . S
Co420 O432 2.137 . S
Co420 O433 2.244 . S
O421 Co420 2.216 . S
O421 C428 1.247 . S
O422 Co420 2.091 . S
O422 C428 1.261 . S
C423 O432 1.247 . S
C423 O433 1.272 . S
O424 Co420 2.004 . S
O424 C429 1.259 . S
Co425 O426 2.061 . S
Co425 O431 2.052 . S
Co425 O433 2.135 . S
O426 Co425 2.061 . S
O426 C429 1.235 . S
C427 O430 1.238 . S
C427 O431 1.241 . S
C428 O421 1.247 . S
C428 O422 1.261 . S
C429 O424 1.259 . S
C429 O426 1.235 . S
O430 Co420 2.021 . S
O430 C427 1.238 . S
O431 Co425 2.052 . S
O431 C427 1.241 . S
O432 Co420 2.137 . S
O432 C423 1.247 . S
O433 Co420 2.244 . S
O433 C423 1.272 . S
O433 Co425 2.135 . S
Co434 O435 2.216 . S
Co434 O436 2.091 . S
Co434 O438 2.004 . S
Co434 O444 2.021 . S
Co434 O446 2.137 . S
Co434 O447 2.244 . S
O435 Co434 2.216 . S
O435 C442 1.247 . S
O436 Co434 2.091 . S
O436 C442 1.261 . S
C437 O446 1.247 . S
C437 O447 1.272 . S
O438 Co434 2.004 . S
O438 C443 1.259 . S
Co439 O440 2.061 . S
Co439 O445 2.052 . S
Co439 O447 2.135 . S
O440 Co439 2.061 . S
O440 C443 1.235 . S
C441 O444 1.238 . S
C441 O445 1.241 . S
C442 O435 1.247 . S
C442 O436 1.261 . S
C443 O438 1.259 . S
C443 O440 1.235 . S
O444 Co434 2.021 . S
O444 C441 1.238 . S
O445 Co439 2.052 . S
O445 C441 1.241 . S
O446 Co434 2.137 . S
O446 C437 1.247 . S
O447 Co434 2.244 . S
O447 C437 1.272 . S
O447 Co439 2.135 . S
Co448 O449 2.216 . S
Co448 O450 2.091 . S
Co448 O452 2.004 . S
Co448 O458 2.021 . S
Co448 O460 2.137 . S
Co448 O461 2.244 . S
O449 Co448 2.216 . S
O449 C456 1.247 . S
O450 Co448 2.091 . S
O450 C456 1.261 . S
C451 O460 1.247 . S
C451 O461 1.272 . S
O452 Co448 2.004 . S
O452 C457 1.259 . S
Co453 O454 2.061 . S
Co453 O459 2.052 . S
Co453 O461 2.135 . S
O454 Co453 2.061 . S
O454 C457 1.235 . S
C455 O458 1.238 . S
C455 O459 1.241 . S
C456 O449 1.247 . S
C456 O450 1.261 . S
C457 O452 1.259 . S
C457 O454 1.235 . S
O458 Co448 2.021 . S
O458 C455 1.238 . S
O459 Co453 2.052 . S
O459 C455 1.241 . S
O460 Co448 2.137 . S
O460 C451 1.247 . S
O461 Co448 2.244 . S
O461 C451 1.272 . S
O461 Co453 2.135 . S
Co462 O463 2.216 . S
Co462 O464 2.091 . S
Co462 O466 2.004 . S
Co462 O472 2.021 . S
Co462 O474 2.137 . S
Co462 O475 2.244 . S
O463 Co462 2.216 . S
O463 C470 1.247 . S
O464 Co462 2.091 . S
O464 C470 1.261 . S
C465 O474 1.247 . S
C465 O475 1.272 . S
O466 Co462 2.004 . S
O466 C471 1.259 . S
Co467 O468 2.061 . S
Co467 O473 2.052 . S
Co467 O475 2.135 . S
O468 Co467 2.061 . S
O468 C471 1.235 . S
C469 O472 1.238 . S
C469 O473 1.241 . S
C470 O463 1.247 . S
C470 O464 1.261 . S
C471 O466 1.259 . S
C471 O468 1.235 . S
O472 Co462 2.021 . S
O472 C469 1.238 . S
O473 Co467 2.052 . S
O473 C469 1.241 . S
O474 Co462 2.137 . S
O474 C465 1.247 . S
O475 Co462 2.244 . S
O475 C465 1.272 . S
O475 Co467 2.135 . S
Co476 O477 2.216 . S
Co476 O478 2.091 . S
Co476 O480 2.004 . S
Co476 O486 2.021 . S
Co476 O488 2.137 . S
Co476 O489 2.244 . S
O477 Co476 2.216 . S
O477 C484 1.247 . S
O478 Co476 2.091 . S
O478 C484 1.261 . S
C479 O488 1.247 . S
C479 O489 1.272 . S
O480 Co476 2.004 . S
O480 C485 1.259 . S
Co481 O482 2.061 . S
Co481 O487 2.052 . S
Co481 O489 2.135 . S
O482 Co481 2.061 . S
O482 C485 1.235 . S
C483 O486 1.238 . S
C483 O487 1.241 . S
C484 O477 1.247 . S
C484 O478 1.261 . S
C485 O480 1.259 . S
C485 O482 1.235 . S
O486 Co476 2.021 . S
O486 C483 1.238 . S
O487 Co481 2.052 . S
O487 C483 1.241 . S
O488 Co476 2.137 . S
O488 C479 1.247 . S
O489 Co476 2.244 . S
O489 C479 1.272 . S
O489 Co481 2.135 . S
Co490 O491 2.216 . S
Co490 O492 2.091 . S
Co490 O494 2.004 . S
Co490 O500 2.021 . S
Co490 O502 2.137 . S
Co490 O503 2.244 . S
O491 Co490 2.216 . S
O491 C498 1.247 . S
O492 Co490 2.091 . S
O492 C498 1.261 . S
C493 O502 1.247 . S
C493 O503 1.272 . S
O494 Co490 2.004 . S
O494 C499 1.259 . S
Co495 O496 2.061 . S
Co495 O501 2.052 . S
Co495 O503 2.135 . S
O496 Co495 2.061 . S
O496 C499 1.235 . S
C497 O500 1.238 . S
C497 O501 1.241 . S
C498 O491 1.247 . S
C498 O492 1.261 . S
C499 O494 1.259 . S
C499 O496 1.235 . S
O500 Co490 2.021 . S
O500 C497 1.238 . S
O501 Co495 2.052 . S
O501 C497 1.241 . S
O502 Co490 2.137 . S
O502 C493 1.247 . S
O503 Co490 2.244 . S
O503 C493 1.272 . S
O503 Co495 2.135 . S
Co504 O505 2.216 . S
Co504 O506 2.091 . S
Co504 O508 2.004 . S
Co504 O514 2.021 . S
Co504 O516 2.137 . S
Co504 O517 2.244 . S
O505 Co504 2.216 . S
O505 C512 1.247 . S
O506 Co504 2.091 . S
O506 C512 1.261 . S
C507 O516 1.247 . S
C507 O517 1.272 . S
O508 Co504 2.004 . S
O508 C513 1.259 . S
Co509 O510 2.061 . S
Co509 O515 2.052 . S
Co509 O517 2.135 . S
O510 Co509 2.061 . S
O510 C513 1.235 . S
C511 O514 1.238 . S
C511 O515 1.241 . S
C512 O505 1.247 . S
C512 O506 1.261 . S
C513 O508 1.259 . S
C513 O510 1.235 . S
O514 Co504 2.021 . S
O514 C511 1.238 . S
O515 Co509 2.052 . S
O515 C511 1.241 . S
O516 Co504 2.137 . S
O516 C507 1.247 . S
O517 Co504 2.244 . S
O517 C507 1.272 . S
O517 Co509 2.135 . S
Co518 O519 2.216 . S
Co518 O520 2.091 . S
Co518 O522 2.004 . S
Co518 O528 2.021 . S
Co518 O530 2.137 . S
Co518 O531 2.244 . S
O519 Co518 2.216 . S
O519 C526 1.247 . S
O520 Co518 2.091 . S
O520 C526 1.261 . S
C521 O530 1.247 . S
C521 O531 1.272 . S
O522 Co518 2.004 . S
O522 C527 1.259 . S
Co523 O524 2.061 . S
Co523 O529 2.052 . S
Co523 O531 2.135 . S
O524 Co523 2.061 . S
O524 C527 1.235 . S
C525 O528 1.238 . S
C525 O529 1.241 . S
C526 O519 1.247 . S
C526 O520 1.261 . S
C527 O522 1.259 . S
C527 O524 1.235 . S
O528 Co518 2.021 . S
O528 C525 1.238 . S
O529 Co523 2.052 . S
O529 C525 1.241 . S
O530 Co518 2.137 . S
O530 C521 1.247 . S
O531 Co518 2.244 . S
O531 C521 1.272 . S
O531 Co523 2.135 . S
Co532 O533 2.216 . S
Co532 O534 2.091 . S
Co532 O536 2.004 . S
Co532 O542 2.021 . S
Co532 O544 2.137 . S
Co532 O545 2.244 . S
O533 Co532 2.216 . S
O533 C540 1.247 . S
O534 Co532 2.091 . S
O534 C540 1.261 . S
C535 O544 1.247 . S
C535 O545 1.272 . S
O536 Co532 2.004 . S
O536 C541 1.259 . S
Co537 O538 2.061 . S
Co537 O543 2.052 . S
Co537 O545 2.135 . S
O538 Co537 2.061 . S
O538 C541 1.235 . S
C539 O542 1.238 . S
C539 O543 1.241 . S
C540 O533 1.247 . S
C540 O534 1.261 . S
C541 O536 1.259 . S
C541 O538 1.235 . S
O542 Co532 2.021 . S
O542 C539 1.238 . S
O543 Co537 2.052 . S
O543 C539 1.241 . S
O544 Co532 2.137 . S
O544 C535 1.247 . S
O545 Co532 2.244 . S
O545 C535 1.272 . S
O545 Co537 2.135 . S
Co546 O547 2.216 . S
Co546 O548 2.091 . S
Co546 O550 2.004 . S
Co546 O556 2.021 . S
Co546 O558 2.137 . S
Co546 O559 2.244 . S
O547 Co546 2.216 . S
O547 C554 1.247 . S
O548 Co546 2.091 . S
O548 C554 1.261 . S
C549 O558 1.247 . S
C549 O559 1.272 . S
O550 Co546 2.004 . S
O550 C555 1.259 . S
Co551 O552 2.061 . S
Co551 O557 2.052 . S
Co551 O559 2.135 . S
O552 Co551 2.061 . S
O552 C555 1.235 . S
C553 O556 1.238 . S
C553 O557 1.241 . S
C554 O547 1.247 . S
C554 O548 1.261 . S
C555 O550 1.259 . S
C555 O552 1.235 . S
O556 Co546 2.021 . S
O556 C553 1.238 . S
O557 Co551 2.052 . S
O557 C553 1.241 . S
O558 Co546 2.137 . S
O558 C549 1.247 . S
O559 Co546 2.244 . S
O559 C549 1.272 . S
O559 Co551 2.135 . S
Co560 O561 2.216 . S
Co560 O562 2.091 . S
Co560 O564 2.004 . S
Co560 O570 2.021 . S
Co560 O572 2.137 . S
Co560 O573 2.244 . S
O561 Co560 2.216 . S
O561 C568 1.247 . S
O562 Co560 2.091 . S
O562 C568 1.261 . S
C563 O572 1.247 . S
C563 O573 1.272 . S
O564 Co560 2.004 . S
O564 C569 1.259 . S
Co565 O566 2.061 . S
Co565 O571 2.052 . S
Co565 O573 2.135 . S
O566 Co565 2.061 . S
O566 C569 1.235 . S
C567 O570 1.238 . S
C567 O571 1.241 . S
C568 O561 1.247 . S
C568 O562 1.261 . S
C569 O564 1.259 . S
C569 O566 1.235 . S
O570 Co560 2.021 . S
O570 C567 1.238 . S
O571 Co565 2.052 . S
O571 C567 1.241 . S
O572 Co560 2.137 . S
O572 C563 1.247 . S
O573 Co560 2.244 . S
O573 C563 1.272 . S
O573 Co565 2.135 . S
Co574 O575 2.216 . S
Co574 O576 2.091 . S
Co574 O578 2.004 . S
Co574 O584 2.021 . S
Co574 O586 2.137 . S
Co574 O587 2.244 . S
O575 Co574 2.216 . S
O575 C582 1.247 . S
O576 Co574 2.091 . S
O576 C582 1.261 . S
C577 O586 1.247 . S
C577 O587 1.272 . S
O578 Co574 2.004 . S
O578 C583 1.259 . S
Co579 O580 2.061 . S
Co579 O585 2.052 . S
Co579 O587 2.135 . S
O580 Co579 2.061 . S
O580 C583 1.235 . S
C581 O584 1.238 . S
C581 O585 1.241 . S
C582 O575 1.247 . S
C582 O576 1.261 . S
C583 O578 1.259 . S
C583 O580 1.235 . S
O584 Co574 2.021 . S
O584 C581 1.238 . S
O585 Co579 2.052 . S
O585 C581 1.241 . S
O586 Co574 2.137 . S
O586 C577 1.247 . S
O587 Co574 2.244 . S
O587 C577 1.272 . S
O587 Co579 2.135 . S
Co588 O589 2.216 . S
Co588 O590 2.091 . S
Co588 O592 2.004 . S
Co588 O598 2.021 . S
Co588 O600 2.137 . S
Co588 O601 2.244 . S
O589 Co588 2.216 . S
O589 C596 1.247 . S
O590 Co588 2.091 . S
O590 C596 1.261 . S
C591 O600 1.247 . S
C591 O601 1.272 . S
O592 Co588 2.004 . S
O592 C597 1.259 . S
Co593 O594 2.061 . S
Co593 O599 2.052 . S
Co593 O601 2.135 . S
O594 Co593 2.061 . S
O594 C597 1.235 . S
C595 O598 1.238 . S
C595 O599 1.241 . S
C596 O589 1.247 . S
C596 O590 1.261 . S
C597 O592 1.259 . S
C597 O594 1.235 . S
O598 Co588 2.021 . S
O598 C595 1.238 . S
O599 Co593 2.052 . S
O599 C595 1.241 . S
O600 Co588 2.137 . S
O600 C591 1.247 . S
O601 Co588 2.244 . S
O601 C591 1.272 . S
O601 Co593 2.135 . S
Co602 O603 2.216 . S
Co602 O604 2.091 . S
Co602 O606 2.004 . S
Co602 O612 2.021 . S
Co602 O614 2.137 . S
Co602 O615 2.244 . S
O603 Co602 2.216 . S
O603 C610 1.247 . S
O604 Co602 2.091 . S
O604 C610 1.261 . S
C605 O614 1.247 . S
C605 O615 1.272 . S
O606 Co602 2.004 . S
O606 C611 1.259 . S
Co607 O608 2.061 . S
Co607 O613 2.052 . S
Co607 O615 2.135 . S
O608 Co607 2.061 . S
O608 C611 1.235 . S
C609 O612 1.238 . S
C609 O613 1.241 . S
C610 O603 1.247 . S
C610 O604 1.261 . S
C611 O606 1.259 . S
C611 O608 1.235 . S
O612 Co602 2.021 . S
O612 C609 1.238 . S
O613 Co607 2.052 . S
O613 C609 1.241 . S
O614 Co602 2.137 . S
O614 C605 1.247 . S
O615 Co602 2.244 . S
O615 C605 1.272 . S
O615 Co607 2.135 . S
Co616 O617 2.216 . S
Co616 O618 2.091 . S
Co616 O620 2.004 . S
Co616 O626 2.021 . S
Co616 O628 2.137 . S
Co616 O629 2.244 . S
O617 Co616 2.216 . S
O617 C624 1.247 . S
O618 Co616 2.091 . S
O618 C624 1.261 . S
C619 O628 1.247 . S
C619 O629 1.272 . S
O620 Co616 2.004 . S
O620 C625 1.259 . S
Co621 O622 2.061 . S
Co621 O627 2.052 . S
Co621 O629 2.135 . S
O622 Co621 2.061 . S
O622 C625 1.235 . S
C623 O626 1.238 . S
C623 O627 1.241 . S
C624 O617 1.247 . S
C624 O618 1.261 . S
C625 O620 1.259 . S
C625 O622 1.235 . S
O626 Co616 2.021 . S
O626 C623 1.238 . S
O627 Co621 2.052 . S
O627 C623 1.241 . S
O628 Co616 2.137 . S
O628 C619 1.247 . S
O629 Co616 2.244 . S
O629 C619 1.272 . S
O629 Co621 2.135 . S
Co630 O631 2.216 . S
Co630 O632 2.091 . S
Co630 O634 2.004 . S
Co630 O640 2.021 . S
Co630 O642 2.137 . S
Co630 O643 2.244 . S
O631 Co630 2.216 . S
O631 C638 1.247 . S
O632 Co630 2.091 . S
O632 C638 1.261 . S
C633 O642 1.247 . S
C633 O643 1.272 . S
O634 Co630 2.004 . S
O634 C639 1.259 . S
Co635 O636 2.061 . S
Co635 O641 2.052 . S
Co635 O643 2.135 . S
O636 Co635 2.061 . S
O636 C639 1.235 . S
C637 O640 1.238 . S
C637 O641 1.241 . S
C638 O631 1.247 . S
C638 O632 1.261 . S
C639 O634 1.259 . S
C639 O636 1.235 . S
O640 Co630 2.021 . S
O640 C637 1.238 . S
O641 Co635 2.052 . S
O641 C637 1.241 . S
O642 Co630 2.137 . S
O642 C633 1.247 . S
O643 Co630 2.244 . S
O643 C633 1.272 . S
O643 Co635 2.135 . S
Co644 O645 2.216 . S
Co644 O646 2.091 . S
Co644 O648 2.004 . S
Co644 O654 2.021 . S
Co644 O656 2.137 . S
Co644 O657 2.244 . S
O645 Co644 2.216 . S
O645 C652 1.247 . S
O646 Co644 2.091 . S
O646 C652 1.261 . S
C647 O656 1.247 . S
C647 O657 1.272 . S
O648 Co644 2.004 . S
O648 C653 1.259 . S
Co649 O650 2.061 . S
Co649 O655 2.052 . S
Co649 O657 2.135 . S
O650 Co649 2.061 . S
O650 C653 1.235 . S
C651 O654 1.238 . S
C651 O655 1.241 . S
C652 O645 1.247 . S
C652 O646 1.261 . S
C653 O648 1.259 . S
C653 O650 1.235 . S
O654 Co644 2.021 . S
O654 C651 1.238 . S
O655 Co649 2.052 . S
O655 C651 1.241 . S
O656 Co644 2.137 . S
O656 C647 1.247 . S
O657 Co644 2.244 . S
O657 C647 1.272 . S
O657 Co649 2.135 . S
Co658 O659 2.216 . S
Co658 O660 2.091 . S
Co658 O662 2.004 . S
Co658 O668 2.021 . S
Co658 O670 2.137 . S
Co658 O671 2.244 . S
O659 Co658 2.216 . S
O659 C666 1.247 . S
O660 Co658 2.091 . S
O660 C666 1.261 . S
C661 O670 1.247 . S
C661 O671 1.272 . S
O662 Co658 2.004 . S
O662 C667 1.259 . S
Co663 O664 2.061 . S
Co663 O669 2.052 . S
Co663 O671 2.135 . S
O664 Co663 2.061 . S
O664 C667 1.235 . S
C665 O668 1.238 . S
C665 O669 1.241 . S
C666 O659 1.247 . S
C666 O660 1.261 . S
C667 O662 1.259 . S
C667 O664 1.235 . S
O668 Co658 2.021 . S
O668 C665 1.238 . S
O669 Co663 2.052 . S
O669 C665 1.241 . S
O670 Co658 2.137 . S
O670 C661 1.247 . S
O671 Co658 2.244 . S
O671 C661 1.272 . S
O671 Co663 2.135 . S
Co672 O673 2.216 . S
Co672 O674 2.091 . S
Co672 O676 2.004 . S
Co672 O682 2.021 . S
Co672 O684 2.137 . S
Co672 O685 2.244 . S
O673 Co672 2.216 . S
O673 C680 1.247 . S
O674 Co672 2.091 . S
O674 C680 1.261 . S
C675 O684 1.247 . S
C675 O685 1.272 . S
O676 Co672 2.004 . S
O676 C681 1.259 . S
Co677 O678 2.061 . S
Co677 O683 2.052 . S
Co677 O685 2.135 . S
O678 Co677 2.061 . S
O678 C681 1.235 . S
C679 O682 1.238 . S
C679 O683 1.241 . S
C680 O673 1.247 . S
C680 O674 1.261 . S
C681 O676 1.259 . S
C681 O678 1.235 . S
O682 Co672 2.021 . S
O682 C679 1.238 . S
O683 Co677 2.052 . S
O683 C679 1.241 . S
O684 Co672 2.137 . S
O684 C675 1.247 . S
O685 Co672 2.244 . S
O685 C675 1.272 . S
O685 Co677 2.135 . S
Co686 O687 2.216 . S
Co686 O688 2.091 . S
Co686 O690 2.004 . S
Co686 O696 2.021 . S
Co686 O698 2.137 . S
Co686 O699 2.244 . S
O687 Co686 2.216 . S
O687 C694 1.247 . S
O688 Co686 2.091 . S
O688 C694 1.261 . S
C689 O698 1.247 . S
C689 O699 1.272 . S
O690 Co686 2.004 . S
O690 C695 1.259 . S
Co691 O692 2.061 . S
Co691 O697 2.052 . S
Co691 O699 2.135 . S
O692 Co691 2.061 . S
O692 C695 1.235 . S
C693 O696 1.238 . S
C693 O697 1.241 . S
C694 O687 1.247 . S
C694 O688 1.261 . S
C695 O690 1.259 . S
C695 O692 1.235 . S
O696 Co686 2.021 . S
O696 C693 1.238 . S
O697 Co691 2.052 . S
O697 C693 1.241 . S
O698 Co686 2.137 . S
O698 C689 1.247 . S
O699 Co686 2.244 . S
O699 C689 1.272 . S
O699 Co691 2.135 . S
Co700 O701 2.216 . S
Co700 O702 2.091 . S
Co700 O704 2.004 . S
Co700 O710 2.021 . S
Co700 O712 2.137 . S
Co700 O713 2.244 . S
O701 Co700 2.216 . S
O701 C708 1.247 . S
O702 Co700 2.091 . S
O702 C708 1.261 . S
C703 O712 1.247 . S
C703 O713 1.272 . S
O704 Co700 2.004 . S
O704 C709 1.259 . S
Co705 O706 2.061 . S
Co705 O711 2.052 . S
Co705 O713 2.135 . S
O706 Co705 2.061 . S
O706 C709 1.235 . S
C707 O710 1.238 . S
C707 O711 1.241 . S
C708 O701 1.247 . S
C708 O702 1.261 . S
C709 O704 1.259 . S
C709 O706 1.235 . S
O710 Co700 2.021 . S
O710 C707 1.238 . S
O711 Co705 2.052 . S
O711 C707 1.241 . S
O712 Co700 2.137 . S
O712 C703 1.247 . S
O713 Co700 2.244 . S
O713 C703 1.272 . S
O713 Co705 2.135 . S
Co714 O715 2.216 . S
Co714 O716 2.091 . S
Co714 O718 2.004 . S
Co714 O724 2.021 . S
Co714 O726 2.137 . S
Co714 O727 2.244 . S
O715 Co714 2.216 . S
O715 C722 1.247 . S
O716 Co714 2.091 . S
O716 C722 1.261 . S
C717 O726 1.247 . S
C717 O727 1.272 . S
O718 Co714 2.004 . S
O718 C723 1.259 . S
Co719 O720 2.061 . S
Co719 O725 2.052 . S
Co719 O727 2.135 . S
O720 Co719 2.061 . S
O720 C723 1.235 . S
C721 O724 1.238 . S
C721 O725 1.241 . S
C722 O715 1.247 . S
C722 O716 1.261 . S
C723 O718 1.259 . S
C723 O720 1.235 . S
O724 Co714 2.021 . S
O724 C721 1.238 . S
O725 Co719 2.052 . S
O725 C721 1.241 . S
O726 Co714 2.137 . S
O726 C717 1.247 . S
O727 Co714 2.244 . S
O727 C717 1.272 . S
O727 Co719 2.135 . S
Co728 O729 2.216 . S
Co728 O730 2.091 . S
Co728 O732 2.004 . S
Co728 O738 2.021 . S
Co728 O740 2.137 . S
Co728 O741 2.244 . S
O729 Co728 2.216 . S
O729 C736 1.247 . S
O730 Co728 2.091 . S
O730 C736 1.261 . S
C731 O740 1.247 . S
C731 O741 1.272 . S
O732 Co728 2.004 . S
O732 C737 1.259 . S
Co733 O734 2.061 . S
Co733 O739 2.052 . S
Co733 O741 2.135 . S
O734 Co733 2.061 . S
O734 C737 1.235 . S
C735 O738 1.238 . S
C735 O739 1.241 . S
C736 O729 1.247 . S
C736 O730 1.261 . S
C737 O732 1.259 . S
C737 O734 1.235 . S
O738 Co728 2.021 . S
O738 C735 1.238 . S
O739 Co733 2.052 . S
O739 C735 1.241 . S
O740 Co728 2.137 . S
O740 C731 1.247 . S
O741 Co728 2.244 . S
O741 C731 1.272 . S
O741 Co733 2.135 . S
Co742 O743 2.216 . S
Co742 O744 2.091 . S
Co742 O746 2.004 . S
Co742 O752 2.021 . S
Co742 O754 2.137 . S
Co742 O755 2.244 . S
O743 Co742 2.216 . S
O743 C750 1.247 . S
O744 Co742 2.091 . S
O744 C750 1.261 . S
C745 O754 1.247 . S
C745 O755 1.272 . S
O746 Co742 2.004 . S
O746 C751 1.259 . S
Co747 O748 2.061 . S
Co747 O753 2.052 . S
Co747 O755 2.135 . S
O748 Co747 2.061 . S
O748 C751 1.235 . S
C749 O752 1.238 . S
C749 O753 1.241 . S
C750 O743 1.247 . S
C750 O744 1.261 . S
C751 O746 1.259 . S
C751 O748 1.235 . S
O752 Co742 2.021 . S
O752 C749 1.238 . S
O753 Co747 2.052 . S
O753 C749 1.241 . S
O754 Co742 2.137 . S
O754 C745 1.247 . S
O755 Co742 2.244 . S
O755 C745 1.272 . S
O755 Co747 2.135 . S
Co756 O757 2.216 . S
Co756 O758 2.091 . S
Co756 O760 2.004 . S
Co756 O766 2.021 . S
Co756 O768 2.137 . S
Co756 O769 2.244 . S
O757 Co756 2.216 . S
O757 C764 1.247 . S
O758 Co756 2.091 . S
O758 C764 1.261 . S
C759 O768 1.247 . S
C759 O769 1.272 . S
O760 Co756 2.004 . S
O760 C765 1.259 . S
Co761 O762 2.061 . S
Co761 O767 2.052 . S
Co761 O769 2.135 . S
O762 Co761 2.061 . S
O762 C765 1.235 . S
C763 O766 1.238 . S
C763 O767 1.241 . S
C764 O757 1.247 . S
C764 O758 1.261 . S
C765 O760 1.259 . S
C765 O762 1.235 . S
O766 Co756 2.021 . S
O766 C763 1.238 . S
O767 Co761 2.052 . S
O767 C763 1.241 . S
O768 Co756 2.137 . S
O768 C759 1.247 . S
O769 Co756 2.244 . S
O769 C759 1.272 . S
O769 Co761 2.135 . S
Co770 O771 2.216 . S
Co770 O772 2.091 . S
Co770 O774 2.004 . S
Co770 O780 2.021 . S
Co770 O782 2.137 . S
Co770 O783 2.244 . S
O771 Co770 2.216 . S
O771 C778 1.247 . S
O772 Co770 2.091 . S
O772 C778 1.261 . S
C773 O782 1.247 . S
C773 O783 1.272 . S
O774 Co770 2.004 . S
O774 C779 1.259 . S
Co775 O776 2.061 . S
Co775 O781 2.052 . S
Co775 O783 2.135 . S
O776 Co775 2.061 . S
O776 C779 1.235 . S
C777 O780 1.238 . S
C777 O781 1.241 . S
C778 O771 1.247 . S
C778 O772 1.261 . S
C779 O774 1.259 . S
C779 O776 1.235 . S
O780 Co770 2.021 . S
O780 C777 1.238 . S
O781 Co775 2.052 . S
O781 C777 1.241 . S
O782 Co770 2.137 . S
O782 C773 1.247 . S
O783 Co770 2.244 . S
O783 C773 1.272 . S
O783 Co775 2.135 . S
Co784 O785 2.216 . S
Co784 O786 2.091 . S
Co784 O788 2.004 . S
Co784 O794 2.021 . S
Co784 O796 2.137 . S
Co784 O797 2.244 . S
O785 Co784 2.216 . S
O785 C792 1.247 . S
O786 Co784 2.091 . S
O786 C792 1.261 . S
C787 O796 1.247 . S
C787 O797 1.272 . S
O788 Co784 2.004 . S
O788 C793 1.259 . S
Co789 O790 2.061 . S
Co789 O795 2.052 . S
Co789 O797 2.135 . S
O790 Co789 2.061 . S
O790 C793 1.235 . S
C791 O794 1.238 . S
C791 O795 1.241 . S
C792 O785 1.247 . S
C792 O786 1.261 . S
C793 O788 1.259 . S
C793 O790 1.235 . S
O794 Co784 2.021 . S
O794 C791 1.238 . S
O795 Co789 2.052 . S
O795 C791 1.241 . S
O796 Co784 2.137 . S
O796 C787 1.247 . S
O797 Co784 2.244 . S
O797 C787 1.272 . S
O797 Co789 2.135 . S
Co798 O799 2.216 . S
Co798 O800 2.091 . S
Co798 O802 2.004 . S
Co798 O808 2.021 . S
Co798 O810 2.137 . S
Co798 O811 2.244 . S
O799 Co798 2.216 . S
O799 C806 1.247 . S
O800 Co798 2.091 . S
O800 C806 1.261 . S
C801 O810 1.247 . S
C801 O811 1.272 . S
O802 Co798 2.004 . S
O802 C807 1.259 . S
Co803 O804 2.061 . S
Co803 O809 2.052 . S
Co803 O811 2.135 . S
O804 Co803 2.061 . S
O804 C807 1.235 . S
C805 O808 1.238 . S
C805 O809 1.241 . S
C806 O799 1.247 . S
C806 O800 1.261 . S
C807 O802 1.259 . S
C807 O804 1.235 . S
O808 Co798 2.021 . S
O808 C805 1.238 . S
O809 Co803 2.052 . S
O809 C805 1.241 . S
O810 Co798 2.137 . S
O810 C801 1.247 . S
O811 Co798 2.244 . S
O811 C801 1.272 . S
O811 Co803 2.135 . S
Co812 O813 2.216 . S
Co812 O814 2.091 . S
Co812 O816 2.004 . S
Co812 O822 2.021 . S
Co812 O824 2.137 . S
Co812 O825 2.244 . S
O813 Co812 2.216 . S
O813 C820 1.247 . S
O814 Co812 2.091 . S
O814 C820 1.261 . S
C815 O824 1.247 . S
C815 O825 1.272 . S
O816 Co812 2.004 . S
O816 C821 1.259 . S
Co817 O818 2.061 . S
Co817 O823 2.052 . S
Co817 O825 2.135 . S
O818 Co817 2.061 . S
O818 C821 1.235 . S
C819 O822 1.238 . S
C819 O823 1.241 . S
C820 O813 1.247 . S
C820 O814 1.261 . S
C821 O816 1.259 . S
C821 O818 1.235 . S
O822 Co812 2.021 . S
O822 C819 1.238 . S
O823 Co817 2.052 . S
O823 C819 1.241 . S
O824 Co812 2.137 . S
O824 C815 1.247 . S
O825 Co812 2.244 . S
O825 C815 1.272 . S
O825 Co817 2.135 . S
Co826 O827 2.216 . S
Co826 O828 2.091 . S
Co826 O830 2.004 . S
Co826 O836 2.021 . S
Co826 O838 2.137 . S
Co826 O839 2.244 . S
O827 Co826 2.216 . S
O827 C834 1.247 . S
O828 Co826 2.091 . S
O828 C834 1.261 . S
C829 O838 1.247 . S
C829 O839 1.272 . S
O830 Co826 2.004 . S
O830 C835 1.259 . S
Co831 O832 2.061 . S
Co831 O837 2.052 . S
Co831 O839 2.135 . S
O832 Co831 2.061 . S
O832 C835 1.235 . S
C833 O836 1.238 . S
C833 O837 1.241 . S
C834 O827 1.247 . S
C834 O828 1.261 . S
C835 O830 1.259 . S
C835 O832 1.235 . S
O836 Co826 2.021 . S
O836 C833 1.238 . S
O837 Co831 2.052 . S
O837 C833 1.241 . S
O838 Co826 2.137 . S
O838 C829 1.247 . S
O839 Co826 2.244 . S
O839 C829 1.272 . S
O839 Co831 2.135 . S
Co840 O841 2.216 . S
Co840 O842 2.091 . S
Co840 O844 2.004 . S
Co840 O850 2.021 . S
Co840 O852 2.137 . S
Co840 O853 2.244 . S
O841 Co840 2.216 . S
O841 C848 1.247 . S
O842 Co840 2.091 . S
O842 C848 1.261 . S
C843 O852 1.247 . S
C843 O853 1.272 . S
O844 Co840 2.004 . S
O844 C849 1.259 . S
Co845 O846 2.061 . S
Co845 O851 2.052 . S
Co845 O853 2.135 . S
O846 Co845 2.061 . S
O846 C849 1.235 . S
C847 O850 1.238 . S
C847 O851 1.241 . S
C848 O841 1.247 . S
C848 O842 1.261 . S
C849 O844 1.259 . S
C849 O846 1.235 . S
O850 Co840 2.021 . S
O850 C847 1.238 . S
O851 Co845 2.052 . S
O851 C847 1.241 . S
O852 Co840 2.137 . S
O852 C843 1.247 . S
O853 Co840 2.244 . S
O853 C843 1.272 . S
O853 Co845 2.135 . S
Co854 O855 2.216 . S
Co854 O856 2.091 . S
Co854 O858 2.004 . S
Co854 O864 2.021 . S
Co854 O866 2.137 . S
Co854 O867 2.244 . S
O855 Co854 2.216 . S
O855 C862 1.247 . S
O856 Co854 2.091 . S
O856 C862 1.261 . S
C857 O866 1.247 . S
C857 O867 1.272 . S
O858 Co854 2.004 . S
O858 C863 1.259 . S
Co859 O860 2.061 . S
Co859 O865 2.052 . S
Co859 O867 2.135 . S
O860 Co859 2.061 . S
O860 C863 1.235 . S
C861 O864 1.238 . S
C861 O865 1.241 . S
C862 O855 1.247 . S
C862 O856 1.261 . S
C863 O858 1.259 . S
C863 O860 1.235 . S
O864 Co854 2.021 . S
O864 C861 1.238 . S
O865 Co859 2.052 . S
O865 C861 1.241 . S
O866 Co854 2.137 . S
O866 C857 1.247 . S
O867 Co854 2.244 . S
O867 C857 1.272 . S
O867 Co859 2.135 . S
Co868 O869 2.216 . S
Co868 O870 2.091 . S
Co868 O872 2.004 . S
Co868 O878 2.021 . S
Co868 O880 2.137 . S
Co868 O881 2.244 . S
O869 Co868 2.216 . S
O869 C876 1.247 . S
O870 Co868 2.091 . S
O870 C876 1.261 . S
C871 O880 1.247 . S
C871 O881 1.272 . S
O872 Co868 2.004 . S
O872 C877 1.259 . S
Co873 O874 2.061 . S
Co873 O879 2.052 . S
Co873 O881 2.135 . S
O874 Co873 2.061 . S
O874 C877 1.235 . S
C875 O878 1.238 . S
C875 O879 1.241 . S
C876 O869 1.247 . S
C876 O870 1.261 . S
C877 O872 1.259 . S
C877 O874 1.235 . S
O878 Co868 2.021 . S
O878 C875 1.238 . S
O879 Co873 2.052 . S
O879 C875 1.241 . S
O880 Co868 2.137 . S
O880 C871 1.247 . S
O881 Co868 2.244 . S
O881 C871 1.272 . S
O881 Co873 2.135 . S
Co882 O883 2.216 . S
Co882 O884 2.091 . S
Co882 O886 2.004 . S
Co882 O892 2.021 . S
Co882 O894 2.137 . S
Co882 O895 2.244 . S
O883 Co882 2.216 . S
O883 C890 1.247 . S
O884 Co882 2.091 . S
O884 C890 1.261 . S
C885 O894 1.247 . S
C885 O895 1.272 . S
O886 Co882 2.004 . S
O886 C891 1.259 . S
Co887 O888 2.061 . S
Co887 O893 2.052 . S
Co887 O895 2.135 . S
O888 Co887 2.061 . S
O888 C891 1.235 . S
C889 O892 1.238 . S
C889 O893 1.241 . S
C890 O883 1.247 . S
C890 O884 1.261 . S
C891 O886 1.259 . S
C891 O888 1.235 . S
O892 Co882 2.021 . S
O892 C889 1.238 . S
O893 Co887 2.052 . S
O893 C889 1.241 . S
O894 Co882 2.137 . S
O894 C885 1.247 . S
O895 Co882 2.244 . S
O895 C885 1.272 . S
O895 Co887 2.135 . S
Co896 O897 2.216 . S
Co896 O898 2.091 . S
Co896 O900 2.004 . S
Co896 O906 2.021 . S
Co896 O908 2.137 . S
Co896 O909 2.244 . S
O897 Co896 2.216 . S
O897 C904 1.247 . S
O898 Co896 2.091 . S
O898 C904 1.261 . S
C899 O908 1.247 . S
C899 O909 1.272 . S
O900 Co896 2.004 . S
O900 C905 1.259 . S
Co901 O902 2.061 . S
Co901 O907 2.052 . S
Co901 O909 2.135 . S
O902 Co901 2.061 . S
O902 C905 1.235 . S
C903 O906 1.238 . S
C903 O907 1.241 . S
C904 O897 1.247 . S
C904 O898 1.261 . S
C905 O900 1.259 . S
C905 O902 1.235 . S
O906 Co896 2.021 . S
O906 C903 1.238 . S
O907 Co901 2.052 . S
O907 C903 1.241 . S
O908 Co896 2.137 . S
O908 C899 1.247 . S
O909 Co896 2.244 . S
O909 C899 1.272 . S
O909 Co901 2.135 . S
Co910 O911 2.216 . S
Co910 O912 2.091 . S
Co910 O914 2.004 . S
Co910 O920 2.021 . S
Co910 O922 2.137 . S
Co910 O923 2.244 . S
O911 Co910 2.216 . S
O911 C918 1.247 . S
O912 Co910 2.091 . S
O912 C918 1.261 . S
C913 O922 1.247 . S
C913 O923 1.272 . S
O914 Co910 2.004 . S
O914 C919 1.259 . S
Co915 O916 2.061 . S
Co915 O921 2.052 . S
Co915 O923 2.135 . S
O916 Co915 2.061 . S
O916 C919 1.235 . S
C917 O920 1.238 . S
C917 O921 1.241 . S
C918 O911 1.247 . S
C918 O912 1.261 . S
C919 O914 1.259 . S
C919 O916 1.235 . S
O920 Co910 2.021 . S
O920 C917 1.238 . S
O921 Co915 2.052 . S
O921 C917 1.241 . S
O922 Co910 2.137 . S
O922 C913 1.247 . S
O923 Co910 2.244 . S
O923 C913 1.272 . S
O923 Co915 2.135 . S
Co924 O925 2.216 . S
Co924 O926 2.091 . S
Co924 O928 2.004 . S
Co924 O934 2.021 . S
Co924 O936 2.137 . S
Co924 O937 2.244 . S
O925 Co924 2.216 . S
O925 C932 1.247 . S
O926 Co924 2.091 . S
O926 C932 1.261 . S
C927 O936 1.247 . S
C927 O937 1.272 . S
O928 Co924 2.004 . S
O928 C933 1.259 . S
Co929 O930 2.061 . S
Co929 O935 2.052 . S
Co929 O937 2.135 . S
O930 Co929 2.061 . S
O930 C933 1.235 . S
C931 O934 1.238 . S
C931 O935 1.241 . S
C932 O925 1.247 . S
C932 O926 1.261 . S
C933 O928 1.259 . S
C933 O930 1.235 . S
O934 Co924 2.021 . S
O934 C931 1.238 . S
O935 Co929 2.052 . S
O935 C931 1.241 . S
O936 Co924 2.137 . S
O936 C927 1.247 . S
O937 Co924 2.244 . S
O937 C927 1.272 . S
O937 Co929 2.135 . S
Co938 O939 2.216 . S
Co938 O940 2.091 . S
Co938 O942 2.004 . S
Co938 O948 2.021 . S
Co938 O950 2.137 . S
Co938 O951 2.244 . S
O939 Co938 2.216 . S
O939 C946 1.247 . S
O940 Co938 2.091 . S
O940 C946 1.261 . S
C941 O950 1.247 . S
C941 O951 1.272 . S
O942 Co938 2.004 . S
O942 C947 1.259 . S
Co943 O944 2.061 . S
Co943 O949 2.052 . S
Co943 O951 2.135 . S
O944 Co943 2.061 . S
O944 C947 1.235 . S
C945 O948 1.238 . S
C945 O949 1.241 . S
C946 O939 1.247 . S
C946 O940 1.261 . S
C947 O942 1.259 . S
C947 O944 1.235 . S
O948 Co938 2.021 . S
O948 C945 1.238 . S
O949 Co943 2.052 . S
O949 C945 1.241 . S
O950 Co938 2.137 . S
O950 C941 1.247 . S
O951 Co938 2.244 . S
O951 C941 1.272 . S
O951 Co943 2.135 . S
Co952 O953 2.216 . S
Co952 O954 2.091 . S
Co952 O956 2.004 . S
Co952 O962 2.021 . S
Co952 O964 2.137 . S
Co952 O965 2.244 . S
O953 Co952 2.216 . S
O953 C960 1.247 . S
O954 Co952 2.091 . S
O954 C960 1.261 . S
C955 O964 1.247 . S
C955 O965 1.272 . S
O956 Co952 2.004 . S
O956 C961 1.259 . S
Co957 O958 2.061 . S
Co957 O963 2.052 . S
Co957 O965 2.135 . S
O958 Co957 2.061 . S
O958 C961 1.235 . S
C959 O962 1.238 . S
C959 O963 1.241 . S
C960 O953 1.247 . S
C960 O954 1.261 . S
C961 O956 1.259 . S
C961 O958 1.235 . S
O962 Co952 2.021 . S
O962 C959 1.238 . S
O963 Co957 2.052 . S
O963 C959 1.241 . S
O964 Co952 2.137 . S
O964 C955 1.247 . S
O965 Co952 2.244 . S
O965 C955 1.272 . S
O965 Co957 2.135 . S
Co966 O967 2.216 . S
Co966 O968 2.091 . S
Co966 O970 2.004 . S
Co966 O976 2.021 . S
Co966 O978 2.137 . S
Co966 O979 2.244 . S
O967 Co966 2.216 . S
O967 C974 1.247 . S
O968 Co966 2.091 . S
O968 C974 1.261 . S
C969 O978 1.247 . S
C969 O979 1.272 . S
O970 Co966 2.004 . S
O970 C975 1.259 . S
Co971 O972 2.061 . S
Co971 O977 2.052 . S
Co971 O979 2.135 . S
O972 Co971 2.061 . S
O972 C975 1.235 . S
C973 O976 1.238 . S
C973 O977 1.241 . S
C974 O967 1.247 . S
C974 O968 1.261 . S
C975 O970 1.259 . S
C975 O972 1.235 . S
O976 Co966 2.021 . S
O976 C973 1.238 . S
O977 Co971 2.052 . S
O977 C973 1.241 . S
O978 Co966 2.137 . S
O978 C969 1.247 . S
O979 Co966 2.244 . S
O979 C969 1.272 . S
O979 Co971 2.135 . S
Co980 O981 2.216 . S
Co980 O982 2.091 . S
Co980 O984 2.004 . S
Co980 O990 2.021 . S
Co980 O992 2.137 . S
Co980 O993 2.244 . S
O981 Co980 2.216 . S
O981 C988 1.247 . S
O982 Co980 2.091 . S
O982 C988 1.261 . S
C983 O992 1.247 . S
C983 O993 1.272 . S
O984 Co980 2.004 . S
O984 C989 1.259 . S
Co985 O986 2.061 . S
Co985 O991 2.052 . S
Co985 O993 2.135 . S
O986 Co985 2.061 . S
O986 C989 1.235 . S
C987 O990 1.238 . S
C987 O991 1.241 . S
C988 O981 1.247 . S
C988 O982 1.261 . S
C989 O984 1.259 . S
C989 O986 1.235 . S
O990 Co980 2.021 . S
O990 C987 1.238 . S
O991 Co985 2.052 . S
O991 C987 1.241 . S
O992 Co980 2.137 . S
O992 C983 1.247 . S
O993 Co980 2.244 . S
O993 C983 1.272 . S
O993 Co985 2.135 . S
Co994 O995 2.216 . S
Co994 O996 2.091 . S
Co994 O998 2.004 . S
Co994 O1004 2.021 . S
Co994 O1006 2.137 . S
Co994 O1007 2.244 . S
O995 Co994 2.216 . S
O995 C1002 1.247 . S
O996 Co994 2.091 . S
O996 C1002 1.261 . S
C997 O1006 1.247 . S
C997 O1007 1.272 . S
O998 Co994 2.004 . S
O998 C1003 1.259 . S
Co999 O1000 2.061 . S
Co999 O1005 2.052 . S
Co999 O1007 2.135 . S
O1000 Co999 2.061 . S
O1000 C1003 1.235 . S
C1001 O1004 1.238 . S
C1001 O1005 1.241 . S
C1002 O995 1.247 . S
C1002 O996 1.261 . S
C1003 O998 1.259 . S
C1003 O1000 1.235 . S
O1004 Co994 2.021 . S
O1004 C1001 1.238 . S
O1005 Co999 2.052 . S
O1005 C1001 1.241 . S
O1006 Co994 2.137 . S
O1006 C997 1.247 . S
O1007 Co994 2.244 . S
O1007 C997 1.272 . S
O1007 Co999 2.135 . S
Co1008 O1009 2.216 . S
Co1008 O1010 2.091 . S
Co1008 O1012 2.004 . S
Co1008 O1018 2.021 . S
Co1008 O1020 2.137 . S
Co1008 O1021 2.244 . S
O1009 Co1008 2.216 . S
O1009 C1016 1.247 . S
O1010 Co1008 2.091 . S
O1010 C1016 1.261 . S
C1011 O1020 1.247 . S
C1011 O1021 1.272 . S
O1012 Co1008 2.004 . S
O1012 C1017 1.259 . S
Co1013 O1014 2.061 . S
Co1013 O1019 2.052 . S
Co1013 O1021 2.135 . S
O1014 Co1013 2.061 . S
O1014 C1017 1.235 . S
C1015 O1018 1.238 . S
C1015 O1019 1.241 . S
C1016 O1009 1.247 . S
C1016 O1010 1.261 . S
C1017 O1012 1.259 . S
C1017 O1014 1.235 . S
O1018 Co1008 2.021 . S
O1018 C1015 1.238 . S
O1019 Co1013 2.052 . S
O1019 C1015 1.241 . S
O1020 Co1008 2.137 . S
O1020 C1011 1.247 . S
O1021 Co1008 2.244 . S
O1021 C1011 1.272 . S
O1021 Co1013 2.135 . S
Co1022 O1023 2.216 . S
Co1022 O1024 2.091 . S
Co1022 O1026 2.004 . S
Co1022 O1032 2.021 . S
Co1022 O1034 2.137 . S
Co1022 O1035 2.244 . S
O1023 Co1022 2.216 . S
O1023 C1030 1.247 . S
O1024 Co1022 2.091 . S
O1024 C1030 1.261 . S
C1025 O1034 1.247 . S
C1025 O1035 1.272 . S
O1026 Co1022 2.004 . S
O1026 C1031 1.259 . S
Co1027 O1028 2.061 . S
Co1027 O1033 2.052 . S
Co1027 O1035 2.135 . S
O1028 Co1027 2.061 . S
O1028 C1031 1.235 . S
C1029 O1032 1.238 . S
C1029 O1033 1.241 . S
C1030 O1023 1.247 . S
C1030 O1024 1.261 . S
C1031 O1026 1.259 . S
C1031 O1028 1.235 . S
O1032 Co1022 2.021 . S
O1032 C1029 1.238 . S
O1033 Co1027 2.052 . S
O1033 C1029 1.241 . S
O1034 Co1022 2.137 . S
O1034 C1025 1.247 . S
O1035 Co1022 2.244 . S
O1035 C1025 1.272 . S
O1035 Co1027 2.135 . S
Co1036 O1037 2.216 . S
Co1036 O1038 2.091 . S
Co1036 O1040 2.004 . S
Co1036 O1046 2.021 . S
Co1036 O1048 2.137 . S
Co1036 O1049 2.244 . S
O1037 Co1036 2.216 . S
O1037 C1044 1.247 . S
O1038 Co1036 2.091 . S
O1038 C1044 1.261 . S
C1039 O1048 1.247 . S
C1039 O1049 1.272 . S
O1040 Co1036 2.004 . S
O1040 C1045 1.259 . S
Co1041 O1042 2.061 . S
Co1041 O1047 2.052 . S
Co1041 O1049 2.135 . S
O1042 Co1041 2.061 . S
O1042 C1045 1.235 . S
C1043 O1046 1.238 . S
C1043 O1047 1.241 . S
C1044 O1037 1.247 . S
C1044 O1038 1.261 . S
C1045 O1040 1.259 . S
C1045 O1042 1.235 . S
O1046 Co1036 2.021 . S
O1046 C1043 1.238 . S
O1047 Co1041 2.052 . S
O1047 C1043 1.241 . S
O1048 Co1036 2.137 . S
O1048 C1039 1.247 . S
O1049 Co1036 2.244 . S
O1049 C1039 1.272 . S
O1049 Co1041 2.135 . S
Co1050 O1051 2.216 . S
Co1050 O1052 2.091 . S
Co1050 O1054 2.004 . S
Co1050 O1060 2.021 . S
Co1050 O1062 2.137 . S
Co1050 O1063 2.244 . S
O1051 Co1050 2.216 . S
O1051 C1058 1.247 . S
O1052 Co1050 2.091 . S
O1052 C1058 1.261 . S
C1053 O1062 1.247 . S
C1053 O1063 1.272 . S
O1054 Co1050 2.004 . S
O1054 C1059 1.259 . S
Co1055 O1056 2.061 . S
Co1055 O1061 2.052 . S
Co1055 O1063 2.135 . S
O1056 Co1055 2.061 . S
O1056 C1059 1.235 . S
C1057 O1060 1.238 . S
C1057 O1061 1.241 . S
C1058 O1051 1.247 . S
C1058 O1052 1.261 . S
C1059 O1054 1.259 . S
C1059 O1056 1.235 . S
O1060 Co1050 2.021 . S
O1060 C1057 1.238 . S
O1061 Co1055 2.052 . S
O1061 C1057 1.241 . S
O1062 Co1050 2.137 . S
O1062 C1053 1.247 . S
O1063 Co1050 2.244 . S
O1063 C1053 1.272 . S
O1063 Co1055 2.135 . S
Co1064 O1065 2.216 . S
Co1064 O1066 2.091 . S
Co1064 O1068 2.004 . S
Co1064 O1074 2.021 . S
Co1064 O1076 2.137 . S
Co1064 O1077 2.244 . S
O1065 Co1064 2.216 . S
O1065 C1072 1.247 . S
O1066 Co1064 2.091 . S
O1066 C1072 1.261 . S
C1067 O1076 1.247 . S
C1067 O1077 1.272 . S
O1068 Co1064 2.004 . S
O1068 C1073 1.259 . S
Co1069 O1070 2.061 . S
Co1069 O1075 2.052 . S
Co1069 O1077 2.135 . S
O1070 Co1069 2.061 . S
O1070 C1073 1.235 . S
C1071 O1074 1.238 . S
C1071 O1075 1.241 . S
C1072 O1065 1.247 . S
C1072 O1066 1.261 . S
C1073 O1068 1.259 . S
C1073 O1070 1.235 . S
O1074 Co1064 2.021 . S
O1074 C1071 1.238 . S
O1075 Co1069 2.052 . S
O1075 C1071 1.241 . S
O1076 Co1064 2.137 . S
O1076 C1067 1.247 . S
O1077 Co1064 2.244 . S
O1077 C1067 1.272 . S
O1077 Co1069 2.135 . S
Co1078 O1079 2.216 . S
Co1078 O1080 2.091 . S
Co1078 O1082 2.004 . S
Co1078 O1088 2.021 . S
Co1078 O1090 2.137 . S
Co1078 O1091 2.244 . S
O1079 Co1078 2.216 . S
O1079 C1086 1.247 . S
O1080 Co1078 2.091 . S
O1080 C1086 1.261 . S
C1081 O1090 1.247 . S
C1081 O1091 1.272 . S
O1082 Co1078 2.004 . S
O1082 C1087 1.259 . S
Co1083 O1084 2.061 . S
Co1083 O1089 2.052 . S
Co1083 O1091 2.135 . S
O1084 Co1083 2.061 . S
O1084 C1087 1.235 . S
C1085 O1088 1.238 . S
C1085 O1089 1.241 . S
C1086 O1079 1.247 . S
C1086 O1080 1.261 . S
C1087 O1082 1.259 . S
C1087 O1084 1.235 . S
O1088 Co1078 2.021 . S
O1088 C1085 1.238 . S
O1089 Co1083 2.052 . S
O1089 C1085 1.241 . S
O1090 Co1078 2.137 . S
O1090 C1081 1.247 . S
O1091 Co1078 2.244 . S
O1091 C1081 1.272 . S
O1091 Co1083 2.135 . S
Co1092 O1093 2.216 . S
Co1092 O1094 2.091 . S
Co1092 O1096 2.004 . S
Co1092 O1102 2.021 . S
Co1092 O1104 2.137 . S
Co1092 O1105 2.244 . S
O1093 Co1092 2.216 . S
O1093 C1100 1.247 . S
O1094 Co1092 2.091 . S
O1094 C1100 1.261 . S
C1095 O1104 1.247 . S
C1095 O1105 1.272 . S
O1096 Co1092 2.004 . S
O1096 C1101 1.259 . S
Co1097 O1098 2.061 . S
Co1097 O1103 2.052 . S
Co1097 O1105 2.135 . S
O1098 Co1097 2.061 . S
O1098 C1101 1.235 . S
C1099 O1102 1.238 . S
C1099 O1103 1.241 . S
C1100 O1093 1.247 . S
C1100 O1094 1.261 . S
C1101 O1096 1.259 . S
C1101 O1098 1.235 . S
O1102 Co1092 2.021 . S
O1102 C1099 1.238 . S
O1103 Co1097 2.052 . S
O1103 C1099 1.241 . S
O1104 Co1092 2.137 . S
O1104 C1095 1.247 . S
O1105 Co1092 2.244 . S
O1105 C1095 1.272 . S
O1105 Co1097 2.135 . S
Co1106 O1107 2.216 . S
Co1106 O1108 2.091 . S
Co1106 O1110 2.004 . S
Co1106 O1116 2.021 . S
Co1106 O1118 2.137 . S
Co1106 O1119 2.244 . S
O1107 Co1106 2.216 . S
O1107 C1114 1.247 . S
O1108 Co1106 2.091 . S
O1108 C1114 1.261 . S
C1109 O1118 1.247 . S
C1109 O1119 1.272 . S
O1110 Co1106 2.004 . S
O1110 C1115 1.259 . S
Co1111 O1112 2.061 . S
Co1111 O1117 2.052 . S
Co1111 O1119 2.135 . S
O1112 Co1111 2.061 . S
O1112 C1115 1.235 . S
C1113 O1116 1.238 . S
C1113 O1117 1.241 . S
C1114 O1107 1.247 . S
C1114 O1108 1.261 . S
C1115 O1110 1.259 . S
C1115 O1112 1.235 . S
O1116 Co1106 2.021 . S
O1116 C1113 1.238 . S
O1117 Co1111 2.052 . S
O1117 C1113 1.241 . S
O1118 Co1106 2.137 . S
O1118 C1109 1.247 . S
O1119 Co1106 2.244 . S
O1119 C1109 1.272 . S
O1119 Co1111 2.135 . S
Co1120 O1121 2.216 . S
Co1120 O1122 2.091 . S
Co1120 O1124 2.004 . S
Co1120 O1130 2.021 . S
Co1120 O1132 2.137 . S
Co1120 O1133 2.244 . S
O1121 Co1120 2.216 . S
O1121 C1128 1.247 . S
O1122 Co1120 2.091 . S
O1122 C1128 1.261 . S
C1123 O1132 1.247 . S
C1123 O1133 1.272 . S
O1124 Co1120 2.004 . S
O1124 C1129 1.259 . S
Co1125 O1126 2.061 . S
Co1125 O1131 2.052 . S
Co1125 O1133 2.135 . S
O1126 Co1125 2.061 . S
O1126 C1129 1.235 . S
C1127 O1130 1.238 . S
C1127 O1131 1.241 . S
C1128 O1121 1.247 . S
C1128 O1122 1.261 . S
C1129 O1124 1.259 . S
C1129 O1126 1.235 . S
O1130 Co1120 2.021 . S
O1130 C1127 1.238 . S
O1131 Co1125 2.052 . S
O1131 C1127 1.241 . S
O1132 Co1120 2.137 . S
O1132 C1123 1.247 . S
O1133 Co1120 2.244 . S
O1133 C1123 1.272 . S
O1133 Co1125 2.135 . S
Co1134 O1135 2.216 . S
Co1134 O1136 2.091 . S
Co1134 O1138 2.004 . S
Co1134 O1144 2.021 . S
Co1134 O1146 2.137 . S
Co1134 O1147 2.244 . S
O1135 Co1134 2.216 . S
O1135 C1142 1.247 . S
O1136 Co1134 2.091 . S
O1136 C1142 1.261 . S
C1137 O1146 1.247 . S
C1137 O1147 1.272 . S
O1138 Co1134 2.004 . S
O1138 C1143 1.259 . S
Co1139 O1140 2.061 . S
Co1139 O1145 2.052 . S
Co1139 O1147 2.135 . S
O1140 Co1139 2.061 . S
O1140 C1143 1.235 . S
C1141 O1144 1.238 . S
C1141 O1145 1.241 . S
C1142 O1135 1.247 . S
C1142 O1136 1.261 . S
C1143 O1138 1.259 . S
C1143 O1140 1.235 . S
O1144 Co1134 2.021 . S
O1144 C1141 1.238 . S
O1145 Co1139 2.052 . S
O1145 C1141 1.241 . S
O1146 Co1134 2.137 . S
O1146 C1137 1.247 . S
O1147 Co1134 2.244 . S
O1147 C1137 1.272 . S
O1147 Co1139 2.135 . S
Co1148 O1149 2.216 . S
Co1148 O1150 2.091 . S
Co1148 O1152 2.004 . S
Co1148 O1158 2.021 . S
Co1148 O1160 2.137 . S
Co1148 O1161 2.244 . S
O1149 Co1148 2.216 . S
O1149 C1156 1.247 . S
O1150 Co1148 2.091 . S
O1150 C1156 1.261 . S
C1151 O1160 1.247 . S
C1151 O1161 1.272 . S
O1152 Co1148 2.004 . S
O1152 C1157 1.259 . S
Co1153 O1154 2.061 . S
Co1153 O1159 2.052 . S
Co1153 O1161 2.135 . S
O1154 Co1153 2.061 . S
O1154 C1157 1.235 . S
C1155 O1158 1.238 . S
C1155 O1159 1.241 . S
C1156 O1149 1.247 . S
C1156 O1150 1.261 . S
C1157 O1152 1.259 . S
C1157 O1154 1.235 . S
O1158 Co1148 2.021 . S
O1158 C1155 1.238 . S
O1159 Co1153 2.052 . S
O1159 C1155 1.241 . S
O1160 Co1148 2.137 . S
O1160 C1151 1.247 . S
O1161 Co1148 2.244 . S
O1161 C1151 1.272 . S
O1161 Co1153 2.135 . S
Co1162 O1163 2.216 . S
Co1162 O1164 2.091 . S
Co1162 O1166 2.004 . S
Co1162 O1172 2.021 . S
Co1162 O1174 2.137 . S
Co1162 O1175 2.244 . S
O1163 Co1162 2.216 . S
O1163 C1170 1.247 . S
O1164 Co1162 2.091 . S
O1164 C1170 1.261 . S
C1165 O1174 1.247 . S
C1165 O1175 1.272 . S
O1166 Co1162 2.004 . S
O1166 C1171 1.259 . S
Co1167 O1168 2.061 . S
Co1167 O1173 2.052 . S
Co1167 O1175 2.135 . S
O1168 Co1167 2.061 . S
O1168 C1171 1.235 . S
C1169 O1172 1.238 . S
C1169 O1173 1.241 . S
C1170 O1163 1.247 . S
C1170 O1164 1.261 . S
C1171 O1166 1.259 . S
C1171 O1168 1.235 . S
O1172 Co1162 2.021 . S
O1172 C1169 1.238 . S
O1173 Co1167 2.052 . S
O1173 C1169 1.241 . S
O1174 Co1162 2.137 . S
O1174 C1165 1.247 . S
O1175 Co1162 2.244 . S
O1175 C1165 1.272 . S
O1175 Co1167 2.135 . S
Co1176 O1177 2.216 . S
Co1176 O1178 2.091 . S
Co1176 O1180 2.004 . S
Co1176 O1186 2.021 . S
Co1176 O1188 2.137 . S
Co1176 O1189 2.244 . S
O1177 Co1176 2.216 . S
O1177 C1184 1.247 . S
O1178 Co1176 2.091 . S
O1178 C1184 1.261 . S
C1179 O1188 1.247 . S
C1179 O1189 1.272 . S
O1180 Co1176 2.004 . S
O1180 C1185 1.259 . S
Co1181 O1182 2.061 . S
Co1181 O1187 2.052 . S
Co1181 O1189 2.135 . S
O1182 Co1181 2.061 . S
O1182 C1185 1.235 . S
C1183 O1186 1.238 . S
C1183 O1187 1.241 . S
C1184 O1177 1.247 . S
C1184 O1178 1.261 . S
C1185 O1180 1.259 . S
C1185 O1182 1.235 . S
O1186 Co1176 2.021 . S
O1186 C1183 1.238 . S
O1187 Co1181 2.052 . S
O1187 C1183 1.241 . S
O1188 Co1176 2.137 . S
O1188 C1179 1.247 . S
O1189 Co1176 2.244 . S
O1189 C1179 1.272 . S
O1189 Co1181 2.135 . S
Co1190 O1191 2.216 . S
Co1190 O1192 2.091 . S
Co1190 O1194 2.004 . S
Co1190 O1200 2.021 . S
Co1190 O1202 2.137 . S
Co1190 O1203 2.244 . S
O1191 Co1190 2.216 . S
O1191 C1198 1.247 . S
O1192 Co1190 2.091 . S
O1192 C1198 1.261 . S
C1193 O1202 1.247 . S
C1193 O1203 1.272 . S
O1194 Co1190 2.004 . S
O1194 C1199 1.259 . S
Co1195 O1196 2.061 . S
Co1195 O1201 2.052 . S
Co1195 O1203 2.135 . S
O1196 Co1195 2.061 . S
O1196 C1199 1.235 . S
C1197 O1200 1.238 . S
C1197 O1201 1.241 . S
C1198 O1191 1.247 . S
C1198 O1192 1.261 . S
C1199 O1194 1.259 . S
C1199 O1196 1.235 . S
O1200 Co1190 2.021 . S
O1200 C1197 1.238 . S
O1201 Co1195 2.052 . S
O1201 C1197 1.241 . S
O1202 Co1190 2.137 . S
O1202 C1193 1.247 . S
O1203 Co1190 2.244 . S
O1203 C1193 1.272 . S
O1203 Co1195 2.135 . S
Co1204 O1205 2.216 . S
Co1204 O1206 2.091 . S
Co1204 O1208 2.004 . S
Co1204 O1214 2.021 . S
Co1204 O1216 2.137 . S
Co1204 O1217 2.244 . S
O1205 Co1204 2.216 . S
O1205 C1212 1.247 . S
O1206 Co1204 2.091 . S
O1206 C1212 1.261 . S
C1207 O1216 1.247 . S
C1207 O1217 1.272 . S
O1208 Co1204 2.004 . S
O1208 C1213 1.259 . S
Co1209 O1210 2.061 . S
Co1209 O1215 2.052 . S
Co1209 O1217 2.135 . S
O1210 Co1209 2.061 . S
O1210 C1213 1.235 . S
C1211 O1214 1.238 . S
C1211 O1215 1.241 . S
C1212 O1205 1.247 . S
C1212 O1206 1.261 . S
C1213 O1208 1.259 . S
C1213 O1210 1.235 . S
O1214 Co1204 2.021 . S
O1214 C1211 1.238 . S
O1215 Co1209 2.052 . S
O1215 C1211 1.241 . S
O1216 Co1204 2.137 . S
O1216 C1207 1.247 . S
O1217 Co1204 2.244 . S
O1217 C1207 1.272 . S
O1217 Co1209 2.135 . S
Co1218 O1219 2.216 . S
Co1218 O1220 2.091 . S
Co1218 O1222 2.004 . S
Co1218 O1228 2.021 . S
Co1218 O1230 2.137 . S
Co1218 O1231 2.244 . S
O1219 Co1218 2.216 . S
O1219 C1226 1.247 . S
O1220 Co1218 2.091 . S
O1220 C1226 1.261 . S
C1221 O1230 1.247 . S
C1221 O1231 1.272 . S
O1222 Co1218 2.004 . S
O1222 C1227 1.259 . S
Co1223 O1224 2.061 . S
Co1223 O1229 2.052 . S
Co1223 O1231 2.135 . S
O1224 Co1223 2.061 . S
O1224 C1227 1.235 . S
C1225 O1228 1.238 . S
C1225 O1229 1.241 . S
C1226 O1219 1.247 . S
C1226 O1220 1.261 . S
C1227 O1222 1.259 . S
C1227 O1224 1.235 . S
O1228 Co1218 2.021 . S
O1228 C1225 1.238 . S
O1229 Co1223 2.052 . S
O1229 C1225 1.241 . S
O1230 Co1218 2.137 . S
O1230 C1221 1.247 . S
O1231 Co1218 2.244 . S
O1231 C1221 1.272 . S
O1231 Co1223 2.135 . S
Co1232 O1233 2.216 . S
Co1232 O1234 2.091 . S
Co1232 O1236 2.004 . S
Co1232 O1242 2.021 . S
Co1232 O1244 2.137 . S
Co1232 O1245 2.244 . S
O1233 Co1232 2.216 . S
O1233 C1240 1.247 . S
O1234 Co1232 2.091 . S
O1234 C1240 1.261 . S
C1235 O1244 1.247 . S
C1235 O1245 1.272 . S
O1236 Co1232 2.004 . S
O1236 C1241 1.259 . S
Co1237 O1238 2.061 . S
Co1237 O1243 2.052 . S
Co1237 O1245 2.135 . S
O1238 Co1237 2.061 . S
O1238 C1241 1.235 . S
C1239 O1242 1.238 . S
C1239 O1243 1.241 . S
C1240 O1233 1.247 . S
C1240 O1234 1.261 . S
C1241 O1236 1.259 . S
C1241 O1238 1.235 . S
O1242 Co1232 2.021 . S
O1242 C1239 1.238 . S
O1243 Co1237 2.052 . S
O1243 C1239 1.241 . S
O1244 Co1232 2.137 . S
O1244 C1235 1.247 . S
O1245 Co1232 2.244 . S
O1245 C1235 1.272 . S
O1245 Co1237 2.135 . S
Co1246 O1247 2.216 . S
Co1246 O1248 2.091 . S
Co1246 O1250 2.004 . S
Co1246 O1256 2.021 . S
Co1246 O1258 2.137 . S
Co1246 O1259 2.244 . S
O1247 Co1246 2.216 . S
O1247 C1254 1.247 . S
O1248 Co1246 2.091 . S
O1248 C1254 1.261 . S
C1249 O1258 1.247 . S
C1249 O1259 1.272 . S
O1250 Co1246 2.004 . S
O1250 C1255 1.259 . S
Co1251 O1252 2.061 . S
Co1251 O1257 2.052 . S
Co1251 O1259 2.135 . S
O1252 Co1251 2.061 . S
O1252 C1255 1.235 . S
C1253 O1256 1.238 . S
C1253 O1257 1.241 . S
C1254 O1247 1.247 . S
C1254 O1248 1.261 . S
C1255 O1250 1.259 . S
C1255 O1252 1.235 . S
O1256 Co1246 2.021 . S
O1256 C1253 1.238 . S
O1257 Co1251 2.052 . S
O1257 C1253 1.241 . S
O1258 Co1246 2.137 . S
O1258 C1249 1.247 . S
O1259 Co1246 2.244 . S
O1259 C1249 1.272 . S
O1259 Co1251 2.135 . S
Co1260 O1261 2.216 . S
Co1260 O1262 2.091 . S
Co1260 O1264 2.004 . S
Co1260 O1270 2.021 . S
Co1260 O1272 2.137 . S
Co1260 O1273 2.244 . S
O1261 Co1260 2.216 . S
O1261 C1268 1.247 . S
O1262 Co1260 2.091 . S
O1262 C1268 1.261 . S
C1263 O1272 1.247 . S
C1263 O1273 1.272 . S
O1264 Co1260 2.004 . S
O1264 C1269 1.259 . S
Co1265 O1266 2.061 . S
Co1265 O1271 2.052 . S
Co1265 O1273 2.135 . S
O1266 Co1265 2.061 . S
O1266 C1269 1.235 . S
C1267 O1270 1.238 . S
C1267 O1271 1.241 . S
C1268 O1261 1.247 . S
C1268 O1262 1.261 . S
C1269 O1264 1.259 . S
C1269 O1266 1.235 . S
O1270 Co1260 2.021 . S
O1270 C1267 1.238 . S
O1271 Co1265 2.052 . S
O1271 C1267 1.241 . S
O1272 Co1260 2.137 . S
O1272 C1263 1.247 . S
O1273 Co1260 2.244 . S
O1273 C1263 1.272 . S
O1273 Co1265 2.135 . S
Co1274 O1275 2.216 . S
Co1274 O1276 2.091 . S
Co1274 O1278 2.004 . S
Co1274 O1284 2.021 . S
Co1274 O1286 2.137 . S
Co1274 O1287 2.244 . S
O1275 Co1274 2.216 . S
O1275 C1282 1.247 . S
O1276 Co1274 2.091 . S
O1276 C1282 1.261 . S
C1277 O1286 1.247 . S
C1277 O1287 1.272 . S
O1278 Co1274 2.004 . S
O1278 C1283 1.259 . S
Co1279 O1280 2.061 . S
Co1279 O1285 2.052 . S
Co1279 O1287 2.135 . S
O1280 Co1279 2.061 . S
O1280 C1283 1.235 . S
C1281 O1284 1.238 . S
C1281 O1285 1.241 . S
C1282 O1275 1.247 . S
C1282 O1276 1.261 . S
C1283 O1278 1.259 . S
C1283 O1280 1.235 . S
O1284 Co1274 2.021 . S
O1284 C1281 1.238 . S
O1285 Co1279 2.052 . S
O1285 C1281 1.241 . S
O1286 Co1274 2.137 . S
O1286 C1277 1.247 . S
O1287 Co1274 2.244 . S
O1287 C1277 1.272 . S
O1287 Co1279 2.135 . S
Co1288 O1289 2.216 . S
Co1288 O1290 2.091 . S
Co1288 O1292 2.004 . S
Co1288 O1298 2.021 . S
Co1288 O1300 2.137 . S
Co1288 O1301 2.244 . S
O1289 Co1288 2.216 . S
O1289 C1296 1.247 . S
O1290 Co1288 2.091 . S
O1290 C1296 1.261 . S
C1291 O1300 1.247 . S
C1291 O1301 1.272 . S
O1292 Co1288 2.004 . S
O1292 C1297 1.259 . S
Co1293 O1294 2.061 . S
Co1293 O1299 2.052 . S
Co1293 O1301 2.135 . S
O1294 Co1293 2.061 . S
O1294 C1297 1.235 . S
C1295 O1298 1.238 . S
C1295 O1299 1.241 . S
C1296 O1289 1.247 . S
C1296 O1290 1.261 . S
C1297 O1292 1.259 . S
C1297 O1294 1.235 . S
O1298 Co1288 2.021 . S
O1298 C1295 1.238 . S
O1299 Co1293 2.052 . S
O1299 C1295 1.241 . S
O1300 Co1288 2.137 . S
O1300 C1291 1.247 . S
O1301 Co1288 2.244 . S
O1301 C1291 1.272 . S
O1301 Co1293 2.135 . S
Co1302 O1303 2.216 . S
Co1302 O1304 2.091 . S
Co1302 O1306 2.004 . S
Co1302 O1312 2.021 . S
Co1302 O1314 2.137 . S
Co1302 O1315 2.244 . S
O1303 Co1302 2.216 . S
O1303 C1310 1.247 . S
O1304 Co1302 2.091 . S
O1304 C1310 1.261 . S
C1305 O1314 1.247 . S
C1305 O1315 1.272 . S
O1306 Co1302 2.004 . S
O1306 C1311 1.259 . S
Co1307 O1308 2.061 . S
Co1307 O1313 2.052 . S
Co1307 O1315 2.135 . S
O1308 Co1307 2.061 . S
O1308 C1311 1.235 . S
C1309 O1312 1.238 . S
C1309 O1313 1.241 . S
C1310 O1303 1.247 . S
C1310 O1304 1.261 . S
C1311 O1306 1.259 . S
C1311 O1308 1.235 . S
O1312 Co1302 2.021 . S
O1312 C1309 1.238 . S
O1313 Co1307 2.052 . S
O1313 C1309 1.241 . S
O1314 Co1302 2.137 . S
O1314 C1305 1.247 . S
O1315 Co1302 2.244 . S
O1315 C1305 1.272 . S
O1315 Co1307 2.135 . S
Co1316 O1317 2.216 . S
Co1316 O1318 2.091 . S
Co1316 O1320 2.004 . S
Co1316 O1326 2.021 . S
Co1316 O1328 2.137 . S
Co1316 O1329 2.244 . S
O1317 Co1316 2.216 . S
O1317 C1324 1.247 . S
O1318 Co1316 2.091 . S
O1318 C1324 1.261 . S
C1319 O1328 1.247 . S
C1319 O1329 1.272 . S
O1320 Co1316 2.004 . S
O1320 C1325 1.259 . S
Co1321 O1322 2.061 . S
Co1321 O1327 2.052 . S
Co1321 O1329 2.135 . S
O1322 Co1321 2.061 . S
O1322 C1325 1.235 . S
C1323 O1326 1.238 . S
C1323 O1327 1.241 . S
C1324 O1317 1.247 . S
C1324 O1318 1.261 . S
C1325 O1320 1.259 . S
C1325 O1322 1.235 . S
O1326 Co1316 2.021 . S
O1326 C1323 1.238 . S
O1327 Co1321 2.052 . S
O1327 C1323 1.241 . S
O1328 Co1316 2.137 . S
O1328 C1319 1.247 . S
O1329 Co1316 2.244 . S
O1329 C1319 1.272 . S
O1329 Co1321 2.135 . S
Co1330 O1331 2.216 . S
Co1330 O1332 2.091 . S
Co1330 O1334 2.004 . S
Co1330 O1340 2.021 . S
Co1330 O1342 2.137 . S
Co1330 O1343 2.244 . S
O1331 Co1330 2.216 . S
O1331 C1338 1.247 . S
O1332 Co1330 2.091 . S
O1332 C1338 1.261 . S
C1333 O1342 1.247 . S
C1333 O1343 1.272 . S
O1334 Co1330 2.004 . S
O1334 C1339 1.259 . S
Co1335 O1336 2.061 . S
Co1335 O1341 2.052 . S
Co1335 O1343 2.135 . S
O1336 Co1335 2.061 . S
O1336 C1339 1.235 . S
C1337 O1340 1.238 . S
C1337 O1341 1.241 . S
C1338 O1331 1.247 . S
C1338 O1332 1.261 . S
C1339 O1334 1.259 . S
C1339 O1336 1.235 . S
O1340 Co1330 2.021 . S
O1340 C1337 1.238 . S
O1341 Co1335 2.052 . S
O1341 C1337 1.241 . S
O1342 Co1330 2.137 . S
O1342 C1333 1.247 . S
O1343 Co1330 2.244 . S
O1343 C1333 1.272 . S
O1343 Co1335 2.135 . S
C1344 C1345 1.387 . S
C1344 H1348 0.950 . S
C1344 C1353 1.390 1_454 S
C1345 C1344 1.387 . S
C1345 C1347 1.387 . S
H1346 C1353 0.950 . S
C1347 C1345 1.387 . S
C1347 C1349 1.390 1_454 S
C1347 H1351 0.950 . S
H1348 C1344 0.950 . S
C1349 C1347 1.390 1_656 S
C1349 C1350 1.387 . S
C1349 H1352 0.950 . S
C1350 C1349 1.387 . S
C1350 C1353 1.387 . S
H1351 C1347 0.950 . S
H1352 C1349 0.950 . S
C1353 C1344 1.390 1_656 S
C1353 H1346 0.950 . S
C1353 C1350 1.387 . S
C1354 C1355 1.387 . S
C1354 H1358 0.950 . S
C1354 C1363 1.390 . S
C1355 C1354 1.387 . S
C1355 C1357 1.387 . S
H1356 C1363 0.950 . S
C1357 C1355 1.387 . S
C1357 C1359 1.390 . S
C1357 H1361 0.950 . S
H1358 C1354 0.950 . S
C1359 C1357 1.390 . S
C1359 C1360 1.387 . S
C1359 H1362 0.950 . S
C1360 C1359 1.387 . S
C1360 C1363 1.387 . S
H1361 C1357 0.950 . S
H1362 C1359 0.950 . S
C1363 C1354 1.390 . S
C1363 H1356 0.950 . S
C1363 C1360 1.387 . S
C1364 C1365 1.387 . S
C1364 H1368 0.950 . S
C1364 C1373 1.390 1_655 S
C1365 C1364 1.387 . S
C1365 C1367 1.387 . S
H1366 C1373 0.950 . S
C1367 C1365 1.387 . S
C1367 C1369 1.390 1_655 S
C1367 H1371 0.950 . S
H1368 C1364 0.950 . S
C1369 C1367 1.390 1_455 S
C1369 C1370 1.387 . S
C1369 H1372 0.950 . S
C1370 C1369 1.387 . S
C1370 C1373 1.387 . S
H1371 C1367 0.950 . S
H1372 C1369 0.950 . S
C1373 C1364 1.390 1_455 S
C1373 H1366 0.950 . S
C1373 C1370 1.387 . S
C1374 C1375 1.387 . S
C1374 H1378 0.950 . S
C1374 C1383 1.390 . S
C1375 C1374 1.387 . S
C1375 C1377 1.387 . S
H1376 C1383 0.950 . S
C1377 C1375 1.387 . S
C1377 C1379 1.390 . S
C1377 H1381 0.950 . S
H1378 C1374 0.950 . S
C1379 C1377 1.390 . S
C1379 C1380 1.387 . S
C1379 H1382 0.950 . S
C1380 C1379 1.387 . S
C1380 C1383 1.387 . S
H1381 C1377 0.950 . S
H1382 C1379 0.950 . S
C1383 C1374 1.390 . S
C1383 H1376 0.950 . S
C1383 C1380 1.387 . S
C1384 C1385 1.387 . S
C1384 H1388 0.950 . S
C1384 C1393 1.390 1_654 S
C1385 C1384 1.387 . S
C1385 C1387 1.387 . S
H1386 C1393 0.950 . S
C1387 C1385 1.387 . S
C1387 C1389 1.390 1_654 S
C1387 H1391 0.950 . S
H1388 C1384 0.950 . S
C1389 C1387 1.390 1_456 S
C1389 C1390 1.387 . S
C1389 H1392 0.950 . S
C1390 C1389 1.387 . S
C1390 C1393 1.387 . S
H1391 C1387 0.950 . S
H1392 C1389 0.950 . S
C1393 C1384 1.390 1_456 S
C1393 H1386 0.950 . S
C1393 C1390 1.387 . S
C1394 C1395 1.387 . S
C1394 H1398 0.950 . S
C1394 C1403 1.390 . S
C1395 C1394 1.387 . S
C1395 C1397 1.387 . S
H1396 C1403 0.950 . S
C1397 C1395 1.387 . S
C1397 C1399 1.390 . S
C1397 H1401 0.950 . S
H1398 C1394 0.950 . S
C1399 C1397 1.390 . S
C1399 C1400 1.387 . S
C1399 H1402 0.950 . S
C1400 C1399 1.387 . S
C1400 C1403 1.387 . S
H1401 C1397 0.950 . S
H1402 C1399 0.950 . S
C1403 C1394 1.390 . S
C1403 H1396 0.950 . S
C1403 C1400 1.387 . S
C1404 C1405 1.387 . S
C1404 H1408 0.950 . S
C1404 C1413 1.390 1_455 S
C1405 C1404 1.387 . S
C1405 C1407 1.387 . S
H1406 C1413 0.950 . S
C1407 C1405 1.387 . S
C1407 C1409 1.390 1_455 S
C1407 H1411 0.950 . S
H1408 C1404 0.950 . S
C1409 C1407 1.390 1_655 S
C1409 C1410 1.387 . S
C1409 H1412 0.950 . S
C1410 C1409 1.387 . S
C1410 C1413 1.387 . S
H1411 C1407 0.950 . S
H1412 C1409 0.950 . S
C1413 C1404 1.390 1_655 S
C1413 H1406 0.950 . S
C1413 C1410 1.387 . S
C1414 C1415 1.387 . S
C1414 H1418 0.950 . S
C1414 C1423 1.390 . S
C1415 C1414 1.387 . S
C1415 C1417 1.387 . S
H1416 C1423 0.950 . S
C1417 C1415 1.387 . S
C1417 C1419 1.390 . S
C1417 H1421 0.950 . S
H1418 C1414 0.950 . S
C1419 C1417 1.390 . S
C1419 C1420 1.387 . S
C1419 H1422 0.950 . S
C1420 C1419 1.387 . S
C1420 C1423 1.387 . S
H1421 C1417 0.950 . S
H1422 C1419 0.950 . S
C1423 C1414 1.390 . S
C1423 H1416 0.950 . S
C1423 C1420 1.387 . S
C1424 C1425 1.387 . S
C1424 H1428 0.950 . S
C1424 C1433 1.390 1_665 S
C1425 C1424 1.387 . S
C1425 C1427 1.387 . S
H1426 C1433 0.950 . S
C1427 C1425 1.387 . S
C1427 C1429 1.390 1_665 S
C1427 H1431 0.950 . S
H1428 C1424 0.950 . S
C1429 C1427 1.390 1_445 S
C1429 C1430 1.387 . S
C1429 H1432 0.950 . S
C1430 C1429 1.387 . S
C1430 C1433 1.387 . S
H1431 C1427 0.950 . S
H1432 C1429 0.950 . S
C1433 C1424 1.390 1_445 S
C1433 H1426 0.950 . S
C1433 C1430 1.387 . S
C1434 C1435 1.387 . S
C1434 H1438 0.950 . S
C1434 C1443 1.390 . S
C1435 C1434 1.387 . S
C1435 C1437 1.387 . S
H1436 C1443 0.950 . S
C1437 C1435 1.387 . S
C1437 C1439 1.390 . S
C1437 H1441 0.950 . S
H1438 C1434 0.950 . S
C1439 C1437 1.390 . S
C1439 C1440 1.387 . S
C1439 H1442 0.950 . S
C1440 C1439 1.387 . S
C1440 C1443 1.387 . S
H1441 C1437 0.950 . S
H1442 C1439 0.950 . S
C1443 C1434 1.390 . S
C1443 H1436 0.950 . S
C1443 C1440 1.387 . S
C1444 C1445 1.387 . S
C1444 H1448 0.950 . S
C1444 C1453 1.390 1_655 S
C1445 C1444 1.387 . S
C1445 C1447 1.387 . S
H1446 C1453 0.950 . S
C1447 C1445 1.387 . S
C1447 C1449 1.390 1_655 S
C1447 H1451 0.950 . S
H1448 C1444 0.950 . S
C1449 C1447 1.390 1_455 S
C1449 C1450 1.387 . S
C1449 H1452 0.950 . S
C1450 C1449 1.387 . S
C1450 C1453 1.387 . S
H1451 C1447 0.950 . S
H1452 C1449 0.950 . S
C1453 C1444 1.390 1_455 S
C1453 H1446 0.950 . S
C1453 C1450 1.387 . S
C1454 C1455 1.387 . S
C1454 H1458 0.950 . S
C1454 C1463 1.390 . S
C1455 C1454 1.387 . S
C1455 C1457 1.387 . S
H1456 C1463 0.950 . S
C1457 C1455 1.387 . S
C1457 C1459 1.390 . S
C1457 H1461 0.950 . S
H1458 C1454 0.950 . S
C1459 C1457 1.390 . S
C1459 C1460 1.387 . S
C1459 H1462 0.950 . S
C1460 C1459 1.387 . S
C1460 C1463 1.387 . S
H1461 C1457 0.950 . S
H1462 C1459 0.950 . S
C1463 C1454 1.390 . S
C1463 H1456 0.950 . S
C1463 C1460 1.387 . S
C1464 C1465 1.387 . S
C1464 H1468 0.950 . S
C1464 C1473 1.390 1_465 S
C1465 C1464 1.387 . S
C1465 C1467 1.387 . S
H1466 C1473 0.950 . S
C1467 C1465 1.387 . S
C1467 C1469 1.390 1_465 S
C1467 H1471 0.950 . S
H1468 C1464 0.950 . S
C1469 C1467 1.390 1_645 S
C1469 C1470 1.387 . S
C1469 H1472 0.950 . S
C1470 C1469 1.387 . S
C1470 C1473 1.387 . S
H1471 C1467 0.950 . S
H1472 C1469 0.950 . S
C1473 C1464 1.390 1_645 S
C1473 H1466 0.950 . S
C1473 C1470 1.387 . S
C1474 C1475 1.387 . S
C1474 H1478 0.950 . S
C1474 C1483 1.390 . S
C1475 C1474 1.387 . S
C1475 C1477 1.387 . S
H1476 C1483 0.950 . S
C1477 C1475 1.387 . S
C1477 C1479 1.390 . S
C1477 H1481 0.950 . S
H1478 C1474 0.950 . S
C1479 C1477 1.390 . S
C1479 C1480 1.387 . S
C1479 H1482 0.950 . S
C1480 C1479 1.387 . S
C1480 C1483 1.387 . S
H1481 C1477 0.950 . S
H1482 C1479 0.950 . S
C1483 C1474 1.390 . S
C1483 H1476 0.950 . S
C1483 C1480 1.387 . S
C1484 C1485 1.387 . S
C1484 H1488 0.950 . S
C1484 C1493 1.390 1_455 S
C1485 C1484 1.387 . S
C1485 C1487 1.387 . S
H1486 C1493 0.950 . S
C1487 C1485 1.387 . S
C1487 C1489 1.390 1_455 S
C1487 H1491 0.950 . S
H1488 C1484 0.950 . S
C1489 C1487 1.390 1_655 S
C1489 C1490 1.387 . S
C1489 H1492 0.950 . S
C1490 C1489 1.387 . S
C1490 C1493 1.387 . S
H1491 C1487 0.950 . S
H1492 C1489 0.950 . S
C1493 C1484 1.390 1_655 S
C1493 H1486 0.950 . S
C1493 C1490 1.387 . S
C1494 C1495 1.387 . S
C1494 H1498 0.950 . S
C1494 C1503 1.390 . S
C1495 C1494 1.387 . S
C1495 C1497 1.387 . S
H1496 C1503 0.950 . S
C1497 C1495 1.387 . S
C1497 C1499 1.390 . S
C1497 H1501 0.950 . S
H1498 C1494 0.950 . S
C1499 C1497 1.390 . S
C1499 C1500 1.387 . S
C1499 H1502 0.950 . S
C1500 C1499 1.387 . S
C1500 C1503 1.387 . S
H1501 C1497 0.950 . S
H1502 C1499 0.950 . S
C1503 C1494 1.390 . S
C1503 H1496 0.950 . S
C1503 C1500 1.387 . S
C1504 C1505 1.387 . S
C1504 H1508 0.950 . S
C1504 C1513 1.390 1_566 S
C1505 C1504 1.387 . S
C1505 C1507 1.387 . S
H1506 C1513 0.950 . S
C1507 C1505 1.387 . S
C1507 C1509 1.390 1_566 S
C1507 H1511 0.950 . S
H1508 C1504 0.950 . S
C1509 C1507 1.390 1_544 S
C1509 C1510 1.387 . S
C1509 H1512 0.950 . S
C1510 C1509 1.387 . S
C1510 C1513 1.387 . S
H1511 C1507 0.950 . S
H1512 C1509 0.950 . S
C1513 C1504 1.390 1_544 S
C1513 H1506 0.950 . S
C1513 C1510 1.387 . S
C1514 C1515 1.387 . S
C1514 H1518 0.950 . S
C1514 C1523 1.390 1_545 S
C1515 C1514 1.387 . S
C1515 C1517 1.387 . S
H1516 C1523 0.950 . S
C1517 C1515 1.387 . S
C1517 C1519 1.390 1_545 S
C1517 H1521 0.950 . S
H1518 C1514 0.950 . S
C1519 C1517 1.390 1_565 S
C1519 C1520 1.387 . S
C1519 H1522 0.950 . S
C1520 C1519 1.387 . S
C1520 C1523 1.387 . S
H1521 C1517 0.950 . S
H1522 C1519 0.950 . S
C1523 C1514 1.390 1_565 S
C1523 H1516 0.950 . S
C1523 C1520 1.387 . S
C1524 C1525 1.387 . S
C1524 H1528 0.950 . S
C1524 C1533 1.390 . S
C1525 C1524 1.387 . S
C1525 C1527 1.387 . S
H1526 C1533 0.950 . S
C1527 C1525 1.387 . S
C1527 C1529 1.390 . S
C1527 H1531 0.950 . S
H1528 C1524 0.950 . S
C1529 C1527 1.390 . S
C1529 C1530 1.387 . S
C1529 H1532 0.950 . S
C1530 C1529 1.387 . S
C1530 C1533 1.387 . S
H1531 C1527 0.950 . S
H1532 C1529 0.950 . S
C1533 C1524 1.390 . S
C1533 H1526 0.950 . S
C1533 C1530 1.387 . S
C1534 C1535 1.387 . S
C1534 H1538 0.950 . S
C1534 C1543 1.390 1_554 S
C1535 C1534 1.387 . S
C1535 C1537 1.387 . S
H1536 C1543 0.950 . S
C1537 C1535 1.387 . S
C1537 C1539 1.390 1_554 S
C1537 H1541 0.950 . S
H1538 C1534 0.950 . S
C1539 C1537 1.390 1_556 S
C1539 C1540 1.387 . S
C1539 H1542 0.950 . S
C1540 C1539 1.387 . S
C1540 C1543 1.387 . S
H1541 C1537 0.950 . S
H1542 C1539 0.950 . S
C1543 C1534 1.390 1_556 S
C1543 H1536 0.950 . S
C1543 C1540 1.387 . S
C1544 C1545 1.387 . S
C1544 H1548 0.950 . S
C1544 C1553 1.390 . S
C1545 C1544 1.387 . S
C1545 C1547 1.387 . S
H1546 C1553 0.950 . S
C1547 C1545 1.387 . S
C1547 C1549 1.390 . S
C1547 H1551 0.950 . S
H1548 C1544 0.950 . S
C1549 C1547 1.390 . S
C1549 C1550 1.387 . S
C1549 H1552 0.950 . S
C1550 C1549 1.387 . S
C1550 C1553 1.387 . S
H1551 C1547 0.950 . S
H1552 C1549 0.950 . S
C1553 C1544 1.390 . S
C1553 H1546 0.950 . S
C1553 C1550 1.387 . S
C1554 C1555 1.387 . S
C1554 H1558 0.950 . S
C1554 C1563 1.390 1_564 S
C1555 C1554 1.387 . S
C1555 C1557 1.387 . S
H1556 C1563 0.950 . S
C1557 C1555 1.387 . S
C1557 C1559 1.390 1_564 S
C1557 H1561 0.950 . S
H1558 C1554 0.950 . S
C1559 C1557 1.390 1_546 S
C1559 C1560 1.387 . S
C1559 H1562 0.950 . S
C1560 C1559 1.387 . S
C1560 C1563 1.387 . S
H1561 C1557 0.950 . S
H1562 C1559 0.950 . S
C1563 C1554 1.390 1_546 S
C1563 H1556 0.950 . S
C1563 C1560 1.387 . S
C1564 C1565 1.387 . S
C1564 H1568 0.950 . S
C1564 C1573 1.390 . S
C1565 C1564 1.387 . S
C1565 C1567 1.387 . S
H1566 C1573 0.950 . S
C1567 C1565 1.387 . S
C1567 C1569 1.390 . S
C1567 H1571 0.950 . S
H1568 C1564 0.950 . S
C1569 C1567 1.390 . S
C1569 C1570 1.387 . S
C1569 H1572 0.950 . S
C1570 C1569 1.387 . S
C1570 C1573 1.387 . S
H1571 C1567 0.950 . S
H1572 C1569 0.950 . S
C1573 C1564 1.390 . S
C1573 H1566 0.950 . S
C1573 C1570 1.387 . S
C1574 C1575 1.387 . S
C1574 H1578 0.950 . S
C1574 C1583 1.390 . S
C1575 C1574 1.387 . S
C1575 C1577 1.387 . S
H1576 C1583 0.950 . S
C1577 C1575 1.387 . S
C1577 C1579 1.390 . S
C1577 H1581 0.950 . S
H1578 C1574 0.950 . S
C1579 C1577 1.390 . S
C1579 C1580 1.387 . S
C1579 H1582 0.950 . S
C1580 C1579 1.387 . S
C1580 C1583 1.387 . S
H1581 C1577 0.950 . S
H1582 C1579 0.950 . S
C1583 C1574 1.390 . S
C1583 H1576 0.950 . S
C1583 C1580 1.387 . S
C1584 C1585 1.387 . S
C1584 H1588 0.950 . S
C1584 C1593 1.390 . S
C1585 C1584 1.387 . S
C1585 C1587 1.387 . S
H1586 C1593 0.950 . S
C1587 C1585 1.387 . S
C1587 C1589 1.390 . S
C1587 H1591 0.950 . S
H1588 C1584 0.950 . S
C1589 C1587 1.390 . S
C1589 C1590 1.387 . S
C1589 H1592 0.950 . S
C1590 C1589 1.387 . S
C1590 C1593 1.387 . S
H1591 C1587 0.950 . S
H1592 C1589 0.950 . S
C1593 C1584 1.390 . S
C1593 H1586 0.950 . S
C1593 C1590 1.387 . S
C1594 C1595 1.387 . S
C1594 H1598 0.950 . S
C1594 C1603 1.390 . S
C1595 C1594 1.387 . S
C1595 C1597 1.387 . S
H1596 C1603 0.950 . S
C1597 C1595 1.387 . S
C1597 C1599 1.390 . S
C1597 H1601 0.950 . S
H1598 C1594 0.950 . S
C1599 C1597 1.390 . S
C1599 C1600 1.387 . S
C1599 H1602 0.950 . S
C1600 C1599 1.387 . S
C1600 C1603 1.387 . S
H1601 C1597 0.950 . S
H1602 C1599 0.950 . S
C1603 C1594 1.390 . S
C1603 H1596 0.950 . S
C1603 C1600 1.387 . S
C1604 C1605 1.387 . S
C1604 H1608 0.950 . S
C1604 C1613 1.390 . S
C1605 C1604 1.387 . S
C1605 C1607 1.387 . S
H1606 C1613 0.950 . S
C1607 C1605 1.387 . S
C1607 C1609 1.390 . S
C1607 H1611 0.950 . S
H1608 C1604 0.950 . S
C1609 C1607 1.390 . S
C1609 C1610 1.387 . S
C1609 H1612 0.950 . S
C1610 C1609 1.387 . S
C1610 C1613 1.387 . S
H1611 C1607 0.950 . S
H1612 C1609 0.950 . S
C1613 C1604 1.390 . S
C1613 H1606 0.950 . S
C1613 C1610 1.387 . S
C1614 C1615 1.387 . S
C1614 H1618 0.950 . S
C1614 C1623 1.390 . S
C1615 C1614 1.387 . S
C1615 C1617 1.387 . S
H1616 C1623 0.950 . S
C1617 C1615 1.387 . S
C1617 C1619 1.390 . S
C1617 H1621 0.950 . S
H1618 C1614 0.950 . S
C1619 C1617 1.390 . S
C1619 C1620 1.387 . S
C1619 H1622 0.950 . S
C1620 C1619 1.387 . S
C1620 C1623 1.387 . S
H1621 C1617 0.950 . S
H1622 C1619 0.950 . S
C1623 C1614 1.390 . S
C1623 H1616 0.950 . S
C1623 C1620 1.387 . S
C1624 C1625 1.387 . S
C1624 H1628 0.950 . S
C1624 C1633 1.390 . S
C1625 C1624 1.387 . S
C1625 C1627 1.387 . S
H1626 C1633 0.950 . S
C1627 C1625 1.387 . S
C1627 C1629 1.390 . S
C1627 H1631 0.950 . S
H1628 C1624 0.950 . S
C1629 C1627 1.390 . S
C1629 C1630 1.387 . S
C1629 H1632 0.950 . S
C1630 C1629 1.387 . S
C1630 C1633 1.387 . S
H1631 C1627 0.950 . S
H1632 C1629 0.950 . S
C1633 C1624 1.390 . S
C1633 H1626 0.950 . S
C1633 C1630 1.387 . S
C1634 C1635 1.387 . S
C1634 H1638 0.950 . S
C1634 C1643 1.390 . S
C1635 C1634 1.387 . S
C1635 C1637 1.387 . S
H1636 C1643 0.950 . S
C1637 C1635 1.387 . S
C1637 C1639 1.390 . S
C1637 H1641 0.950 . S
H1638 C1634 0.950 . S
C1639 C1637 1.390 . S
C1639 C1640 1.387 . S
C1639 H1642 0.950 . S
C1640 C1639 1.387 . S
C1640 C1643 1.387 . S
H1641 C1637 0.950 . S
H1642 C1639 0.950 . S
C1643 C1634 1.390 . S
C1643 H1636 0.950 . S
C1643 C1640 1.387 . S
C1644 C1645 1.387 . S
C1644 H1648 0.950 . S
C1644 C1653 1.390 . S
C1645 C1644 1.387 . S
C1645 C1647 1.387 . S
H1646 C1653 0.950 . S
C1647 C1645 1.387 . S
C1647 C1649 1.390 . S
C1647 H1651 0.950 . S
H1648 C1644 0.950 . S
C1649 C1647 1.390 . S
C1649 C1650 1.387 . S
C1649 H1652 0.950 . S
C1650 C1649 1.387 . S
C1650 C1653 1.387 . S
H1651 C1647 0.950 . S
H1652 C1649 0.950 . S
C1653 C1644 1.390 . S
C1653 H1646 0.950 . S
C1653 C1650 1.387 . S
C1654 C1655 1.387 . S
C1654 H1658 0.950 . S
C1654 C1663 1.390 . S
C1655 C1654 1.387 . S
C1655 C1657 1.387 . S
H1656 C1663 0.950 . S
C1657 C1655 1.387 . S
C1657 C1659 1.390 . S
C1657 H1661 0.950 . S
H1658 C1654 0.950 . S
C1659 C1657 1.390 . S
C1659 C1660 1.387 . S
C1659 H1662 0.950 . S
C1660 C1659 1.387 . S
C1660 C1663 1.387 . S
H1661 C1657 0.950 . S
H1662 C1659 0.950 . S
C1663 C1654 1.390 . S
C1663 H1656 0.950 . S
C1663 C1660 1.387 . S
C1664 C1665 1.387 . S
C1664 H1668 0.950 . S
C1664 C1673 1.390 . S
C1665 C1664 1.387 . S
C1665 C1667 1.387 . S
H1666 C1673 0.950 . S
C1667 C1665 1.387 . S
C1667 C1669 1.390 . S
C1667 H1671 0.950 . S
H1668 C1664 0.950 . S
C1669 C1667 1.390 . S
C1669 C1670 1.387 . S
C1669 H1672 0.950 . S
C1670 C1669 1.387 . S
C1670 C1673 1.387 . S
H1671 C1667 0.950 . S
H1672 C1669 0.950 . S
C1673 C1664 1.390 . S
C1673 H1666 0.950 . S
C1673 C1670 1.387 . S
C1674 C1675 1.387 . S
C1674 H1678 0.950 . S
C1674 C1683 1.390 1_556 S
C1675 C1674 1.387 . S
C1675 C1677 1.387 . S
H1676 C1683 0.950 . S
C1677 C1675 1.387 . S
C1677 C1679 1.390 1_556 S
C1677 H1681 0.950 . S
H1678 C1674 0.950 . S
C1679 C1677 1.390 1_554 S
C1679 C1680 1.387 . S
C1679 H1682 0.950 . S
C1680 C1679 1.387 . S
C1680 C1683 1.387 . S
H1681 C1677 0.950 . S
H1682 C1679 0.950 . S
C1683 C1674 1.390 1_554 S
C1683 H1676 0.950 . S
C1683 C1680 1.387 . S
C1684 C1685 1.387 . S
C1684 H1688 0.950 . S
C1684 C1693 1.390 . S
C1685 C1684 1.387 . S
C1685 C1687 1.387 . S
H1686 C1693 0.950 . S
C1687 C1685 1.387 . S
C1687 C1689 1.390 . S
C1687 H1691 0.950 . S
H1688 C1684 0.950 . S
C1689 C1687 1.390 . S
C1689 C1690 1.387 . S
C1689 H1692 0.950 . S
C1690 C1689 1.387 . S
C1690 C1693 1.387 . S
H1691 C1687 0.950 . S
H1692 C1689 0.950 . S
C1693 C1684 1.390 . S
C1693 H1686 0.950 . S
C1693 C1690 1.387 . S
C1694 C1695 1.387 . S
C1694 H1698 0.950 . S
C1694 C1703 1.390 1_565 S
C1695 C1694 1.387 . S
C1695 C1697 1.387 . S
H1696 C1703 0.950 . S
C1697 C1695 1.387 . S
C1697 C1699 1.390 1_565 S
C1697 H1701 0.950 . S
H1698 C1694 0.950 . S
C1699 C1697 1.390 1_545 S
C1699 C1700 1.387 . S
C1699 H1702 0.950 . S
C1700 C1699 1.387 . S
C1700 C1703 1.387 . S
H1701 C1697 0.950 . S
H1702 C1699 0.950 . S
C1703 C1694 1.390 1_545 S
C1703 H1696 0.950 . S
C1703 C1700 1.387 . S
C1704 C1705 1.387 . S
C1704 H1708 0.950 . S
C1704 C1713 1.390 . S
C1705 C1704 1.387 . S
C1705 C1707 1.387 . S
H1706 C1713 0.950 . S
C1707 C1705 1.387 . S
C1707 C1709 1.390 . S
C1707 H1711 0.950 . S
H1708 C1704 0.950 . S
C1709 C1707 1.390 . S
C1709 C1710 1.387 . S
C1709 H1712 0.950 . S
C1710 C1709 1.387 . S
C1710 C1713 1.387 . S
H1711 C1707 0.950 . S
H1712 C1709 0.950 . S
C1713 C1704 1.390 . S
C1713 H1706 0.950 . S
C1713 C1710 1.387 . S
C1714 C1715 1.387 . S
C1714 H1718 0.950 . S
C1714 C1723 1.390 . S
C1715 C1714 1.387 . S
C1715 C1717 1.387 . S
H1716 C1723 0.950 . S
C1717 C1715 1.387 . S
C1717 C1719 1.390 . S
C1717 H1721 0.950 . S
H1718 C1714 0.950 . S
C1719 C1717 1.390 . S
C1719 C1720 1.387 . S
C1719 H1722 0.950 . S
C1720 C1719 1.387 . S
C1720 C1723 1.387 . S
H1721 C1717 0.950 . S
H1722 C1719 0.950 . S
C1723 C1714 1.390 . S
C1723 H1716 0.950 . S
C1723 C1720 1.387 . S
C1724 C1725 1.387 . S
C1724 H1728 0.950 . S
C1724 C1733 1.390 . S
C1725 C1724 1.387 . S
C1725 C1727 1.387 . S
H1726 C1733 0.950 . S
C1727 C1725 1.387 . S
C1727 C1729 1.390 . S
C1727 H1731 0.950 . S
H1728 C1724 0.950 . S
C1729 C1727 1.390 . S
C1729 C1730 1.387 . S
C1729 H1732 0.950 . S
C1730 C1729 1.387 . S
C1730 C1733 1.387 . S
H1731 C1727 0.950 . S
H1732 C1729 0.950 . S
C1733 C1724 1.390 . S
C1733 H1726 0.950 . S
C1733 C1730 1.387 . S
C1734 C1735 1.387 . S
C1734 H1738 0.950 . S
C1734 C1743 1.390 1_556 S
C1735 C1734 1.387 . S
C1735 C1737 1.387 . S
H1736 C1743 0.950 . S
C1737 C1735 1.387 . S
C1737 C1739 1.390 1_556 S
C1737 H1741 0.950 . S
H1738 C1734 0.950 . S
C1739 C1737 1.390 1_554 S
C1739 C1740 1.387 . S
C1739 H1742 0.950 . S
C1740 C1739 1.387 . S
C1740 C1743 1.387 . S
H1741 C1737 0.950 . S
H1742 C1739 0.950 . S
C1743 C1734 1.390 1_554 S
C1743 H1736 0.950 . S
C1743 C1740 1.387 . S
C1744 C1745 1.387 . S
C1744 H1748 0.950 . S
C1744 C1753 1.390 . S
C1745 C1744 1.387 . S
C1745 C1747 1.387 . S
H1746 C1753 0.950 . S
C1747 C1745 1.387 . S
C1747 C1749 1.390 . S
C1747 H1751 0.950 . S
H1748 C1744 0.950 . S
C1749 C1747 1.390 . S
C1749 C1750 1.387 . S
C1749 H1752 0.950 . S
C1750 C1749 1.387 . S
C1750 C1753 1.387 . S
H1751 C1747 0.950 . S
H1752 C1749 0.950 . S
C1753 C1744 1.390 . S
C1753 H1746 0.950 . S
C1753 C1750 1.387 . S
C1754 C1755 1.387 . S
C1754 H1758 0.950 . S
C1754 C1763 1.390 1_556 S
C1755 C1754 1.387 . S
C1755 C1757 1.387 . S
H1756 C1763 0.950 . S
C1757 C1755 1.387 . S
C1757 C1759 1.390 1_556 S
C1757 H1761 0.950 . S
H1758 C1754 0.950 . S
C1759 C1757 1.390 1_554 S
C1759 C1760 1.387 . S
C1759 H1762 0.950 . S
C1760 C1759 1.387 . S
C1760 C1763 1.387 . S
H1761 C1757 0.950 . S
H1762 C1759 0.950 . S
C1763 C1754 1.390 1_554 S
C1763 H1756 0.950 . S
C1763 C1760 1.387 . S
C1764 C1765 1.387 . S
C1764 H1768 0.950 . S
C1764 C1773 1.390 1_565 S
C1765 C1764 1.387 . S
C1765 C1767 1.387 . S
H1766 C1773 0.950 . S
C1767 C1765 1.387 . S
C1767 C1769 1.390 1_565 S
C1767 H1771 0.950 . S
H1768 C1764 0.950 . S
C1769 C1767 1.390 1_545 S
C1769 C1770 1.387 . S
C1769 H1772 0.950 . S
C1770 C1769 1.387 . S
C1770 C1773 1.387 . S
H1771 C1767 0.950 . S
H1772 C1769 0.950 . S
C1773 C1764 1.390 1_545 S
C1773 H1766 0.950 . S
C1773 C1770 1.387 . S
C1774 C1775 1.387 . S
C1774 H1778 0.950 . S
C1774 C1783 1.390 . S
C1775 C1774 1.387 . S
C1775 C1777 1.387 . S
H1776 C1783 0.950 . S
C1777 C1775 1.387 . S
C1777 C1779 1.390 . S
C1777 H1781 0.950 . S
H1778 C1774 0.950 . S
C1779 C1777 1.390 . S
C1779 C1780 1.387 . S
C1779 H1782 0.950 . S
C1780 C1779 1.387 . S
C1780 C1783 1.387 . S
H1781 C1777 0.950 . S
H1782 C1779 0.950 . S
C1783 C1774 1.390 . S
C1783 H1776 0.950 . S
C1783 C1780 1.387 . S
C1784 C1785 1.387 . S
C1784 H1788 0.950 . S
C1784 C1793 1.390 1_565 S
C1785 C1784 1.387 . S
C1785 C1787 1.387 . S
H1786 C1793 0.950 . S
C1787 C1785 1.387 . S
C1787 C1789 1.390 1_565 S
C1787 H1791 0.950 . S
H1788 C1784 0.950 . S
C1789 C1787 1.390 1_545 S
C1789 C1790 1.387 . S
C1789 H1792 0.950 . S
C1790 C1789 1.387 . S
C1790 C1793 1.387 . S
H1791 C1787 0.950 . S
H1792 C1789 0.950 . S
C1793 C1784 1.390 1_545 S
C1793 H1786 0.950 . S
C1793 C1790 1.387 . S
C1794 C1795 1.387 . S
C1794 H1798 0.950 . S
C1794 C1803 1.390 . S
C1795 C1794 1.387 . S
C1795 C1797 1.387 . S
H1796 C1803 0.950 . S
C1797 C1795 1.387 . S
C1797 C1799 1.390 . S
C1797 H1801 0.950 . S
H1798 C1794 0.950 . S
C1799 C1797 1.390 . S
C1799 C1800 1.387 . S
C1799 H1802 0.950 . S
C1800 C1799 1.387 . S
C1800 C1803 1.387 . S
H1801 C1797 0.950 . S
H1802 C1799 0.950 . S
C1803 C1794 1.390 . S
C1803 H1796 0.950 . S
C1803 C1800 1.387 . S
C1804 C1805 1.387 . S
C1804 H1808 0.950 . S
C1804 C1813 1.390 . S
C1805 C1804 1.387 . S
C1805 C1807 1.387 . S
H1806 C1813 0.950 . S
C1807 C1805 1.387 . S
C1807 C1809 1.390 . S
C1807 H1811 0.950 . S
H1808 C1804 0.950 . S
C1809 C1807 1.390 . S
C1809 C1810 1.387 . S
C1809 H1812 0.950 . S
C1810 C1809 1.387 . S
C1810 C1813 1.387 . S
H1811 C1807 0.950 . S
H1812 C1809 0.950 . S
C1813 C1804 1.390 . S
C1813 H1806 0.950 . S
C1813 C1810 1.387 . S
C1814 C1815 1.387 . S
C1814 H1818 0.950 . S
C1814 C1823 1.390 . S
C1815 C1814 1.387 . S
C1815 C1817 1.387 . S
H1816 C1823 0.950 . S
C1817 C1815 1.387 . S
C1817 C1819 1.390 . S
C1817 H1821 0.950 . S
H1818 C1814 0.950 . S
C1819 C1817 1.390 . S
C1819 C1820 1.387 . S
C1819 H1822 0.950 . S
C1820 C1819 1.387 . S
C1820 C1823 1.387 . S
H1821 C1817 0.950 . S
H1822 C1819 0.950 . S
C1823 C1814 1.390 . S
C1823 H1816 0.950 . S
C1823 C1820 1.387 . S
C1824 C1825 1.387 1_655 S
C1824 H1828 0.950 . S
C1824 C1833 1.390 . S
C1825 C1824 1.387 1_455 S
C1825 C1827 1.387 . S
H1826 C1833 0.950 . S
C1827 C1825 1.387 . S
C1827 C1829 1.401 . S
C1827 H1831 0.950 . S
H1828 C1824 0.950 . S
C1829 C1827 1.401 . S
C1829 C1830 1.376 1_455 S
C1829 H1832 0.951 . S
C1830 C1829 1.376 1_655 S
C1830 C1833 1.387 . S
H1831 C1827 0.950 . S
H1832 C1829 0.951 . S
C1833 C1824 1.390 . S
C1833 H1826 0.950 . S
C1833 C1830 1.387 . S
C1834 C1835 1.387 . S
C1834 H1838 0.950 . S
C1834 C1843 1.390 1_655 S
C1835 C1834 1.387 . S
C1835 C1837 1.387 . S
H1836 C1843 0.950 . S
C1837 C1835 1.387 . S
C1837 C1839 1.390 1_655 S
C1837 H1841 0.950 . S
H1838 C1834 0.950 . S
C1839 C1837 1.390 1_455 S
C1839 C1840 1.387 . S
C1839 H1842 0.950 . S
C1840 C1839 1.387 . S
C1840 C1843 1.387 . S
H1841 C1837 0.950 . S
H1842 C1839 0.950 . S
C1843 C1834 1.390 1_455 S
C1843 H1836 0.950 . S
C1843 C1840 1.387 . S
C1844 C1845 1.387 1_455 S
C1844 H1848 0.950 . S
C1844 C1853 1.390 . S
C1845 C1844 1.387 1_655 S
C1845 C1847 1.387 . S
H1846 C1853 0.950 . S
C1847 C1845 1.387 . S
C1847 C1849 1.390 . S
C1847 H1851 0.950 . S
H1848 C1844 0.950 . S
C1849 C1847 1.390 . S
C1849 C1850 1.387 1_655 S
C1849 H1852 0.950 . S
C1850 C1849 1.387 1_455 S
C1850 C1853 1.387 . S
H1851 C1847 0.950 . S
H1852 C1849 0.950 . S
C1853 C1844 1.390 . S
C1853 H1846 0.950 . S
C1853 C1850 1.387 . S
C1854 C1855 1.387 . S
C1854 H1858 0.950 . S
C1854 C1863 1.411 . S
C1855 C1854 1.387 . S
C1855 C1857 1.387 1_655 S
H1856 C1863 0.952 . S
C1857 C1855 1.387 1_455 S
C1857 C1859 1.390 . S
C1857 H1861 0.950 . S
H1858 C1854 0.950 . S
C1859 C1857 1.390 . S
C1859 C1860 1.387 . S
C1859 H1862 0.950 . S
C1860 C1859 1.387 . S
C1860 C1863 1.366 1_455 S
H1861 C1857 0.950 . S
H1862 C1859 0.950 . S
C1863 C1854 1.411 . S
C1863 H1856 0.952 . S
C1863 C1860 1.366 1_655 S
C1864 C1865 1.387 . S
C1864 H1868 0.950 . S
C1864 C1873 1.390 1_455 S
C1865 C1864 1.387 . S
C1865 C1867 1.387 . S
H1866 C1873 0.950 . S
C1867 C1865 1.387 . S
C1867 C1869 1.390 1_455 S
C1867 H1871 0.950 . S
H1868 C1864 0.950 . S
C1869 C1867 1.390 1_655 S
C1869 C1870 1.387 . S
C1869 H1872 0.950 . S
C1870 C1869 1.387 . S
C1870 C1873 1.387 . S
H1871 C1867 0.950 . S
H1872 C1869 0.950 . S
C1873 C1864 1.390 1_655 S
C1873 H1866 0.950 . S
C1873 C1870 1.387 . S
C1874 C1875 1.387 . S
C1874 H1878 0.950 . S
C1874 C1883 1.390 . S
C1875 C1874 1.387 . S
C1875 C1877 1.387 . S
H1876 C1883 0.950 . S
C1877 C1875 1.387 . S
C1877 C1879 1.390 . S
C1877 H1881 0.950 . S
H1878 C1874 0.950 . S
C1879 C1877 1.390 . S
C1879 C1880 1.387 . S
C1879 H1882 0.950 . S
C1880 C1879 1.387 . S
C1880 C1883 1.387 . S
H1881 C1877 0.950 . S
H1882 C1879 0.950 . S
C1883 C1874 1.390 . S
C1883 H1876 0.950 . S
C1883 C1880 1.387 . S
C1884 C1885 1.387 . S
C1884 H1888 0.950 . S
C1884 C1893 1.390 1_655 S
C1885 C1884 1.387 . S
C1885 C1887 1.387 . S
H1886 C1893 0.950 . S
C1887 C1885 1.387 . S
C1887 C1889 1.390 1_655 S
C1887 H1891 0.950 . S
H1888 C1884 0.950 . S
C1889 C1887 1.390 1_455 S
C1889 C1890 1.387 . S
C1889 H1892 0.950 . S
C1890 C1889 1.387 . S
C1890 C1893 1.387 . S
H1891 C1887 0.950 . S
H1892 C1889 0.950 . S
C1893 C1884 1.390 1_455 S
C1893 H1886 0.950 . S
C1893 C1890 1.387 . S
C1894 C1895 1.387 . S
C1894 H1898 0.950 . S
C1894 C1903 1.390 . S
C1895 C1894 1.387 . S
C1895 C1897 1.387 . S
H1896 C1903 0.950 . S
C1897 C1895 1.387 . S
C1897 C1899 1.390 . S
C1897 H1901 0.950 . S
H1898 C1894 0.950 . S
C1899 C1897 1.390 . S
C1899 C1900 1.387 . S
C1899 H1902 0.950 . S
C1900 C1899 1.387 . S
C1900 C1903 1.387 . S
H1901 C1897 0.950 . S
H1902 C1899 0.950 . S
C1903 C1894 1.390 . S
C1903 H1896 0.950 . S
C1903 C1900 1.387 . S
C1904 C1905 1.387 1_565 S
C1904 H1908 0.950 . S
C1904 C1913 1.390 . S
C1905 C1904 1.387 1_545 S
C1905 C1907 1.387 . S
H1906 C1913 0.950 . S
C1907 C1905 1.387 . S
C1907 C1909 1.390 . S
C1907 H1911 0.950 . S
H1908 C1904 0.950 . S
C1909 C1907 1.390 . S
C1909 C1910 1.387 1_545 S
C1909 H1912 0.950 . S
C1910 C1909 1.387 1_565 S
C1910 C1913 1.387 . S
H1911 C1907 0.950 . S
H1912 C1909 0.950 . S
C1913 C1904 1.390 . S
C1913 H1906 0.950 . S
C1913 C1910 1.387 . S
C1914 C1915 1.387 . S
C1914 H1918 0.950 . S
C1914 C1923 1.390 . S
C1915 C1914 1.387 . S
C1915 C1917 1.387 . S
H1916 C1923 0.950 . S
C1917 C1915 1.387 . S
C1917 C1919 1.390 . S
C1917 H1921 0.950 . S
H1918 C1914 0.950 . S
C1919 C1917 1.390 . S
C1919 C1920 1.387 . S
C1919 H1922 0.950 . S
C1920 C1919 1.387 . S
C1920 C1923 1.387 . S
H1921 C1917 0.950 . S
H1922 C1919 0.950 . S
C1923 C1914 1.390 . S
C1923 H1916 0.950 . S
C1923 C1920 1.387 . S
C1924 C1925 1.387 . S
C1924 H1928 0.950 . S
C1924 C1933 1.390 . S
C1925 C1924 1.387 . S
C1925 C1927 1.387 . S
H1926 C1933 0.950 . S
C1927 C1925 1.387 . S
C1927 C1929 1.390 . S
C1927 H1931 0.950 . S
H1928 C1924 0.950 . S
C1929 C1927 1.390 . S
C1929 C1930 1.387 . S
C1929 H1932 0.950 . S
C1930 C1929 1.387 . S
C1930 C1933 1.387 . S
H1931 C1927 0.950 . S
H1932 C1929 0.950 . S
C1933 C1924 1.390 . S
C1933 H1926 0.950 . S
C1933 C1930 1.387 . S
C1934 C1935 1.387 1_556 S
C1934 H1938 0.950 . S
C1934 C1943 1.390 . S
C1935 C1934 1.387 1_554 S
C1935 C1937 1.387 . S
H1936 C1943 0.950 . S
C1937 C1935 1.387 . S
C1937 C1939 1.390 . S
C1937 H1941 0.950 . S
H1938 C1934 0.950 . S
C1939 C1937 1.390 . S
C1939 C1940 1.387 1_554 S
C1939 H1942 0.950 . S
C1940 C1939 1.387 1_556 S
C1940 C1943 1.387 . S
H1941 C1937 0.950 . S
H1942 C1939 0.950 . S
C1943 C1934 1.390 . S
C1943 H1936 0.950 . S
C1943 C1940 1.387 . S
C1944 C1945 1.387 1_565 S
C1944 H1948 0.950 . S
C1944 C1953 1.390 . S
C1945 C1944 1.387 1_545 S
C1945 C1947 1.387 . S
H1946 C1953 0.950 . S
C1947 C1945 1.387 . S
C1947 C1949 1.390 . S
C1947 H1951 0.950 . S
H1948 C1944 0.950 . S
C1949 C1947 1.390 . S
C1949 C1950 1.387 1_545 S
C1949 H1952 0.950 . S
C1950 C1949 1.387 1_565 S
C1950 C1953 1.387 . S
H1951 C1947 0.950 . S
H1952 C1949 0.950 . S
C1953 C1944 1.390 . S
C1953 H1946 0.950 . S
C1953 C1950 1.387 . S
C1954 C1955 1.387 . S
C1954 H1958 0.950 . S
C1954 C1963 1.390 1_554 S
C1955 C1954 1.387 . S
C1955 C1957 1.387 . S
H1956 C1963 0.950 . S
C1957 C1955 1.387 . S
C1957 C1959 1.390 1_554 S
C1957 H1961 0.950 . S
H1958 C1954 0.950 . S
C1959 C1957 1.390 1_556 S
C1959 C1960 1.387 . S
C1959 H1962 0.950 . S
C1960 C1959 1.387 . S
C1960 C1963 1.387 . S
H1961 C1957 0.950 . S
H1962 C1959 0.950 . S
C1963 C1954 1.390 1_556 S
C1963 H1956 0.950 . S
C1963 C1960 1.387 . S
C1964 C1965 1.387 . S
C1964 H1968 0.950 . S
C1964 C1973 1.390 . S
C1965 C1964 1.387 . S
C1965 C1967 1.387 . S
H1966 C1973 0.950 . S
C1967 C1965 1.387 . S
C1967 C1969 1.390 . S
C1967 H1971 0.950 . S
H1968 C1964 0.950 . S
C1969 C1967 1.390 . S
C1969 C1970 1.387 . S
C1969 H1972 0.950 . S
C1970 C1969 1.387 . S
C1970 C1973 1.387 . S
H1971 C1967 0.950 . S
H1972 C1969 0.950 . S
C1973 C1964 1.390 . S
C1973 H1966 0.950 . S
C1973 C1970 1.387 . S
C1974 C1975 1.387 . S
C1974 H1978 0.950 . S
C1974 C1983 1.390 . S
C1975 C1974 1.387 . S
C1975 C1977 1.387 . S
H1976 C1983 0.950 . S
C1977 C1975 1.387 . S
C1977 C1979 1.390 . S
C1977 H1981 0.950 . S
H1978 C1974 0.950 . S
C1979 C1977 1.390 . S
C1979 C1980 1.387 . S
C1979 H1982 0.950 . S
C1980 C1979 1.387 . S
C1980 C1983 1.387 . S
H1981 C1977 0.950 . S
H1982 C1979 0.950 . S
C1983 C1974 1.390 . S
C1983 H1976 0.950 . S
C1983 C1980 1.387 . S
C1984 C1985 1.387 . S
C1984 H1988 0.950 . S
C1984 C1993 1.390 . S
C1985 C1984 1.387 . S
C1985 C1987 1.387 1_556 S
H1986 C1993 0.950 . S
C1987 C1985 1.387 1_554 S
C1987 C1989 1.390 . S
C1987 H1991 0.950 . S
H1988 C1984 0.950 . S
C1989 C1987 1.390 . S
C1989 C1990 1.387 . S
C1989 H1992 0.950 . S
C1990 C1989 1.387 . S
C1990 C1993 1.387 1_554 S
H1991 C1987 0.950 . S
H1992 C1989 0.950 . S
C1993 C1984 1.390 . S
C1993 H1986 0.950 . S
C1993 C1990 1.387 1_556 S
C1994 C1995 1.387 . S
C1994 H1998 0.950 . S
C1994 C2003 1.390 . S
C1995 C1994 1.387 . S
C1995 C1997 1.387 . S
H1996 C2003 0.950 . S
C1997 C1995 1.387 . S
C1997 C1999 1.390 . S
C1997 H2001 0.950 . S
H1998 C1994 0.950 . S
C1999 C1997 1.390 . S
C1999 C2000 1.387 . S
C1999 H2002 0.950 . S
C2000 C1999 1.387 . S
C2000 C2003 1.387 . S
H2001 C1997 0.950 . S
H2002 C1999 0.950 . S
C2003 C1994 1.390 . S
C2003 H1996 0.950 . S
C2003 C2000 1.387 . S
C2004 C2005 1.387 . S
C2004 H2008 0.950 . S
C2004 C2013 1.390 . S
C2005 C2004 1.387 . S
C2005 C2007 1.387 1_545 S
H2006 C2013 0.950 . S
C2007 C2005 1.387 1_565 S
C2007 C2009 1.390 . S
C2007 H2011 0.950 . S
H2008 C2004 0.950 . S
C2009 C2007 1.390 . S
C2009 C2010 1.387 . S
C2009 H2012 0.950 . S
C2010 C2009 1.387 . S
C2010 C2013 1.387 1_565 S
H2011 C2007 0.950 . S
H2012 C2009 0.950 . S
C2013 C2004 1.390 . S
C2013 H2006 0.950 . S
C2013 C2010 1.387 1_545 S
C2014 C2015 1.387 . S
C2014 H2018 0.950 . S
C2014 C2023 1.390 . S
C2015 C2014 1.387 . S
C2015 C2017 1.387 1_556 S
H2016 C2023 0.950 . S
C2017 C2015 1.387 1_554 S
C2017 C2019 1.390 . S
C2017 H2021 0.950 . S
H2018 C2014 0.950 . S
C2019 C2017 1.390 . S
C2019 C2020 1.387 . S
C2019 H2022 0.950 . S
C2020 C2019 1.387 . S
C2020 C2023 1.387 1_554 S
H2021 C2017 0.950 . S
H2022 C2019 0.950 . S
C2023 C2014 1.390 . S
C2023 H2016 0.950 . S
C2023 C2020 1.387 1_556 S
C2024 C2025 1.387 . S
C2024 H2028 0.950 . S
C2024 C2033 1.390 1_554 S
C2025 C2024 1.387 . S
C2025 C2027 1.387 . S
H2026 C2033 0.950 . S
C2027 C2025 1.387 . S
C2027 C2029 1.390 1_554 S
C2027 H2031 0.950 . S
H2028 C2024 0.950 . S
C2029 C2027 1.390 1_556 S
C2029 C2030 1.387 . S
C2029 H2032 0.950 . S
C2030 C2029 1.387 . S
C2030 C2033 1.387 . S
H2031 C2027 0.950 . S
H2032 C2029 0.950 . S
C2033 C2024 1.390 1_556 S
C2033 H2026 0.950 . S
C2033 C2030 1.387 . S
C2034 C2035 1.387 . S
C2034 H2038 0.950 . S
C2034 C2043 1.390 . S
C2035 C2034 1.387 . S
C2035 C2037 1.387 . S
H2036 C2043 0.950 . S
C2037 C2035 1.387 . S
C2037 C2039 1.390 . S
C2037 H2041 0.950 . S
H2038 C2034 0.950 . S
C2039 C2037 1.390 . S
C2039 C2040 1.387 . S
C2039 H2042 0.950 . S
C2040 C2039 1.387 . S
C2040 C2043 1.387 . S
H2041 C2037 0.950 . S
H2042 C2039 0.950 . S
C2043 C2034 1.390 . S
C2043 H2036 0.950 . S
C2043 C2040 1.387 . S
C2044 C2045 1.387 1_545 S
C2044 H2048 0.950 . S
C2044 C2053 1.390 . S
C2045 C2044 1.387 1_565 S
C2045 C2047 1.387 . S
H2046 C2053 0.950 . S
C2047 C2045 1.387 . S
C2047 C2049 1.390 . S
C2047 H2051 0.950 . S
H2048 C2044 0.950 . S
C2049 C2047 1.390 . S
C2049 C2050 1.387 1_565 S
C2049 H2052 0.950 . S
C2050 C2049 1.387 1_545 S
C2050 C2053 1.387 . S
H2051 C2047 0.950 . S
H2052 C2049 0.950 . S
C2053 C2044 1.390 . S
C2053 H2046 0.950 . S
C2053 C2050 1.387 . S
C2054 C2055 1.387 . S
C2054 H2058 0.950 . S
C2054 C2063 1.390 1_455 S
C2055 C2054 1.387 . S
C2055 C2057 1.387 . S
H2056 C2063 0.950 . S
C2057 C2055 1.387 . S
C2057 C2059 1.390 1_455 S
C2057 H2061 0.950 . S
H2058 C2054 0.950 . S
C2059 C2057 1.390 1_655 S
C2059 C2060 1.387 . S
C2059 H2062 0.950 . S
C2060 C2059 1.387 . S
C2060 C2063 1.387 . S
H2061 C2057 0.950 . S
H2062 C2059 0.950 . S
C2063 C2054 1.390 1_655 S
C2063 H2056 0.950 . S
C2063 C2060 1.387 . S
C2064 C2065 1.387 . S
C2064 H2068 0.950 . S
C2064 C2073 1.390 1_455 S
C2065 C2064 1.387 . S
C2065 C2067 1.387 . S
H2066 C2073 0.950 . S
C2067 C2065 1.387 . S
C2067 C2069 1.390 1_455 S
C2067 H2071 0.950 . S
H2068 C2064 0.950 . S
C2069 C2067 1.390 1_655 S
C2069 C2070 1.387 . S
C2069 H2072 0.950 . S
C2070 C2069 1.387 . S
C2070 C2073 1.387 . S
H2071 C2067 0.950 . S
H2072 C2069 0.950 . S
C2073 C2064 1.390 1_655 S
C2073 H2066 0.950 . S
C2073 C2070 1.387 . S
C2074 C2075 1.387 . S
C2074 H2078 0.950 . S
C2074 C2083 1.390 . S
C2075 C2074 1.387 . S
C2075 C2077 1.387 . S
H2076 C2083 0.950 . S
C2077 C2075 1.387 . S
C2077 C2079 1.390 . S
C2077 H2081 0.950 . S
H2078 C2074 0.950 . S
C2079 C2077 1.390 . S
C2079 C2080 1.387 . S
C2079 H2082 0.950 . S
C2080 C2079 1.387 . S
C2080 C2083 1.387 . S
H2081 C2077 0.950 . S
H2082 C2079 0.950 . S
C2083 C2074 1.390 . S
C2083 H2076 0.950 . S
C2083 C2080 1.387 . S
C2084 C2085 1.387 . S
C2084 H2088 0.950 . S
C2084 C2093 1.390 . S
C2085 C2084 1.387 . S
C2085 C2087 1.387 . S
H2086 C2093 0.950 . S
C2087 C2085 1.387 . S
C2087 C2089 1.390 . S
C2087 H2091 0.950 . S
H2088 C2084 0.950 . S
C2089 C2087 1.390 . S
C2089 C2090 1.387 . S
C2089 H2092 0.950 . S
C2090 C2089 1.387 . S
C2090 C2093 1.387 . S
H2091 C2087 0.950 . S
H2092 C2089 0.950 . S
C2093 C2084 1.390 . S
C2093 H2086 0.950 . S
C2093 C2090 1.387 . S
C2094 C2095 1.387 . S
C2094 H2098 0.950 . S
C2094 C2103 1.390 . S
C2095 C2094 1.387 . S
C2095 C2097 1.387 . S
H2096 C2103 0.950 . S
C2097 C2095 1.387 . S
C2097 C2099 1.390 . S
C2097 H2101 0.950 . S
H2098 C2094 0.950 . S
C2099 C2097 1.390 . S
C2099 C2100 1.387 . S
C2099 H2102 0.950 . S
C2100 C2099 1.387 . S
C2100 C2103 1.387 . S
H2101 C2097 0.950 . S
H2102 C2099 0.950 . S
C2103 C2094 1.390 . S
C2103 H2096 0.950 . S
C2103 C2100 1.387 . S
C2104 C2105 1.387 1_556 S
C2104 H2108 0.950 . S
C2104 C2113 1.390 . S
C2105 C2104 1.387 1_554 S
C2105 C2107 1.387 . S
H2106 C2113 0.950 . S
C2107 C2105 1.387 . S
C2107 C2109 1.390 . S
C2107 H2111 0.950 . S
H2108 C2104 0.950 . S
C2109 C2107 1.390 . S
C2109 C2110 1.387 1_554 S
C2109 H2112 0.950 . S
C2110 C2109 1.387 1_556 S
C2110 C2113 1.387 . S
H2111 C2107 0.950 . S
H2112 C2109 0.950 . S
C2113 C2104 1.390 . S
C2113 H2106 0.950 . S
C2113 C2110 1.387 . S
C2114 C2115 1.387 . S
C2114 H2118 0.950 . S
C2114 C2123 1.390 1_565 S
C2115 C2114 1.387 . S
C2115 C2117 1.387 . S
H2116 C2123 0.950 . S
C2117 C2115 1.387 . S
C2117 C2119 1.390 1_565 S
C2117 H2121 0.950 . S
H2118 C2114 0.950 . S
C2119 C2117 1.390 1_545 S
C2119 C2120 1.387 . S
C2119 H2122 0.950 . S
C2120 C2119 1.387 . S
C2120 C2123 1.387 . S
H2121 C2117 0.950 . S
H2122 C2119 0.950 . S
C2123 C2114 1.390 1_545 S
C2123 H2116 0.950 . S
C2123 C2120 1.387 . S
C2124 C2125 1.387 . S
C2124 H2128 0.950 . S
C2124 C2133 1.390 . S
C2125 C2124 1.387 . S
C2125 C2127 1.387 . S
H2126 C2133 0.950 . S
C2127 C2125 1.387 . S
C2127 C2129 1.390 . S
C2127 H2131 0.950 . S
H2128 C2124 0.950 . S
C2129 C2127 1.390 . S
C2129 C2130 1.387 . S
C2129 H2132 0.950 . S
C2130 C2129 1.387 . S
C2130 C2133 1.387 . S
H2131 C2127 0.950 . S
H2132 C2129 0.950 . S
C2133 C2124 1.390 . S
C2133 H2126 0.950 . S
C2133 C2130 1.387 . S
C2134 C2135 1.387 . S
C2134 H2138 0.950 . S
C2134 C2143 1.390 . S
C2135 C2134 1.387 . S
C2135 C2137 1.387 . S
H2136 C2143 0.950 . S
C2137 C2135 1.387 . S
C2137 C2139 1.390 . S
C2137 H2141 0.950 . S
H2138 C2134 0.950 . S
C2139 C2137 1.390 . S
C2139 C2140 1.387 . S
C2139 H2142 0.950 . S
C2140 C2139 1.387 . S
C2140 C2143 1.387 . S
H2141 C2137 0.950 . S
H2142 C2139 0.950 . S
C2143 C2134 1.390 . S
C2143 H2136 0.950 . S
C2143 C2140 1.387 . S
C2144 C2145 1.387 . S
C2144 H2148 0.950 . S
C2144 C2153 1.390 . S
C2145 C2144 1.387 . S
C2145 C2147 1.387 . S
H2146 C2153 0.950 . S
C2147 C2145 1.387 . S
C2147 C2149 1.390 . S
C2147 H2151 0.950 . S
H2148 C2144 0.950 . S
C2149 C2147 1.390 . S
C2149 C2150 1.387 . S
C2149 H2152 0.950 . S
C2150 C2149 1.387 . S
C2150 C2153 1.387 . S
H2151 C2147 0.950 . S
H2152 C2149 0.950 . S
C2153 C2144 1.390 . S
C2153 H2146 0.950 . S
C2153 C2150 1.387 . S
C2154 C2155 1.387 . S
C2154 H2158 0.950 . S
C2154 C2163 1.390 . S
C2155 C2154 1.387 . S
C2155 C2157 1.385 1_565 S
H2156 C2163 0.950 . S
C2157 C2155 1.385 1_545 S
C2157 C2159 1.392 . S
C2157 H2161 0.949 . S
H2158 C2154 0.950 . S
C2159 C2157 1.392 . S
C2159 C2160 1.387 . S
C2159 H2162 0.950 . S
C2160 C2159 1.387 . S
C2160 C2163 1.387 1_545 S
H2161 C2157 0.949 . S
H2162 C2159 0.950 . S
C2163 C2154 1.390 . S
C2163 H2156 0.950 . S
C2163 C2160 1.387 1_565 S
C2164 C2165 1.387 . S
C2164 H2168 0.950 . S
C2164 C2173 1.390 1_554 S
C2165 C2164 1.387 . S
C2165 C2167 1.388 . S
H2166 C2173 0.950 . S
C2167 C2165 1.388 . S
C2167 C2169 1.390 1_554 S
C2167 H2171 0.949 . S
H2168 C2164 0.950 . S
C2169 C2167 1.390 1_556 S
C2169 C2170 1.387 . S
C2169 H2172 0.950 . S
C2170 C2169 1.387 . S
C2170 C2173 1.387 . S
H2171 C2167 0.949 . S
H2172 C2169 0.950 . S
C2173 C2164 1.390 1_556 S
C2173 H2166 0.950 . S
C2173 C2170 1.387 . S
C2174 C2175 1.387 . S
C2174 H2178 0.950 . S
C2174 C2183 1.390 . S
C2175 C2174 1.387 . S
C2175 C2177 1.387 . S
H2176 C2183 0.950 . S
C2177 C2175 1.387 . S
C2177 C2179 1.390 . S
C2177 H2181 0.950 . S
H2178 C2174 0.950 . S
C2179 C2177 1.390 . S
C2179 C2180 1.387 . S
C2179 H2182 0.950 . S
C2180 C2179 1.387 . S
C2180 C2183 1.387 . S
H2181 C2177 0.950 . S
H2182 C2179 0.950 . S
C2183 C2174 1.390 . S
C2183 H2176 0.950 . S
C2183 C2180 1.387 . S
C2184 C2185 1.387 1_554 S
C2184 H2188 0.950 . S
C2184 C2193 1.390 . S
C2185 C2184 1.387 1_556 S
C2185 C2187 1.387 . S
H2186 C2193 0.950 . S
C2187 C2185 1.387 . S
C2187 C2189 1.390 . S
C2187 H2191 0.950 . S
H2188 C2184 0.950 . S
C2189 C2187 1.390 . S
C2189 C2190 1.387 1_556 S
C2189 H2192 0.950 . S
C2190 C2189 1.387 1_554 S
C2190 C2193 1.387 . S
H2191 C2187 0.950 . S
H2192 C2189 0.950 . S
C2193 C2184 1.390 . S
C2193 H2186 0.950 . S
C2193 C2190 1.387 . S
C2194 C2195 1.387 . S
C2194 H2198 0.950 . S
C2194 C2203 1.390 . S
C2195 C2194 1.387 . S
C2195 C2197 1.387 . S
H2196 C2203 0.950 . S
C2197 C2195 1.387 . S
C2197 C2199 1.390 . S
C2197 H2201 0.950 . S
H2198 C2194 0.950 . S
C2199 C2197 1.390 . S
C2199 C2200 1.387 . S
C2199 H2202 0.950 . S
C2200 C2199 1.387 . S
C2200 C2203 1.387 . S
H2201 C2197 0.950 . S
H2202 C2199 0.950 . S
C2203 C2194 1.390 . S
C2203 H2196 0.950 . S
C2203 C2200 1.387 . S
C2204 C2205 1.387 . S
C2204 H2208 0.950 . S
C2204 C2213 1.390 . S
C2205 C2204 1.387 . S
C2205 C2207 1.387 . S
H2206 C2213 0.950 . S
C2207 C2205 1.387 . S
C2207 C2209 1.390 . S
C2207 H2211 0.950 . S
H2208 C2204 0.950 . S
C2209 C2207 1.390 . S
C2209 C2210 1.387 . S
C2209 H2212 0.950 . S
C2210 C2209 1.387 . S
C2210 C2213 1.387 . S
H2211 C2207 0.950 . S
H2212 C2209 0.950 . S
C2213 C2204 1.390 . S
C2213 H2206 0.950 . S
C2213 C2210 1.387 . S
C2214 C2215 1.387 . S
C2214 H2218 0.950 . S
C2214 C2223 1.390 . S
C2215 C2214 1.387 . S
C2215 C2217 1.387 . S
H2216 C2223 0.950 . S
C2217 C2215 1.387 . S
C2217 C2219 1.390 . S
C2217 H2221 0.950 . S
H2218 C2214 0.950 . S
C2219 C2217 1.390 . S
C2219 C2220 1.387 . S
C2219 H2222 0.950 . S
C2220 C2219 1.387 . S
C2220 C2223 1.387 . S
H2221 C2217 0.950 . S
H2222 C2219 0.950 . S
C2223 C2214 1.390 . S
C2223 H2216 0.950 . S
C2223 C2220 1.387 . S
C2224 C2225 1.387 . S
C2224 H2228 0.950 . S
C2224 C2233 1.390 . S
C2225 C2224 1.387 . S
C2225 C2227 1.387 1_545 S
H2226 C2233 0.950 . S
C2227 C2225 1.387 1_565 S
C2227 C2229 1.390 . S
C2227 H2231 0.950 . S
H2228 C2224 0.950 . S
C2229 C2227 1.390 . S
C2229 C2230 1.387 . S
C2229 H2232 0.950 . S
C2230 C2229 1.387 . S
C2230 C2233 1.387 1_565 S
H2231 C2227 0.950 . S
H2232 C2229 0.950 . S
C2233 C2224 1.390 . S
C2233 H2226 0.950 . S
C2233 C2230 1.387 1_545 S
C2234 C2235 1.387 . S
C2234 H2238 0.950 . S
C2234 C2243 1.390 . S
C2235 C2234 1.387 . S
C2235 C2237 1.387 . S
H2236 C2243 0.950 . S
C2237 C2235 1.387 . S
C2237 C2239 1.390 . S
C2237 H2241 0.950 . S
H2238 C2234 0.950 . S
C2239 C2237 1.390 . S
C2239 C2240 1.387 . S
C2239 H2242 0.950 . S
C2240 C2239 1.387 . S
C2240 C2243 1.387 . S
H2241 C2237 0.950 . S
H2242 C2239 0.950 . S
C2243 C2234 1.390 . S
C2243 H2236 0.950 . S
C2243 C2240 1.387 . S
C2244 C2245 1.387 . S
C2244 H2248 0.950 . S
C2244 C2253 1.390 . S
C2245 C2244 1.387 . S
C2245 C2247 1.387 . S
H2246 C2253 0.950 . S
C2247 C2245 1.387 . S
C2247 C2249 1.390 . S
C2247 H2251 0.950 . S
H2248 C2244 0.950 . S
C2249 C2247 1.390 . S
C2249 C2250 1.387 . S
C2249 H2252 0.950 . S
C2250 C2249 1.387 . S
C2250 C2253 1.387 . S
H2251 C2247 0.950 . S
H2252 C2249 0.950 . S
C2253 C2244 1.390 . S
C2253 H2246 0.950 . S
C2253 C2250 1.387 . S
C2254 C2255 1.387 . S
C2254 H2258 0.950 . S
C2254 C2263 1.390 . S
C2255 C2254 1.387 . S
C2255 C2257 1.387 . S
H2256 C2263 0.950 . S
C2257 C2255 1.387 . S
C2257 C2259 1.390 . S
C2257 H2261 0.950 . S
H2258 C2254 0.950 . S
C2259 C2257 1.390 . S
C2259 C2260 1.387 . S
C2259 H2262 0.950 . S
C2260 C2259 1.387 . S
C2260 C2263 1.387 . S
H2261 C2257 0.950 . S
H2262 C2259 0.950 . S
C2263 C2254 1.390 . S
C2263 H2256 0.950 . S
C2263 C2260 1.387 . S
C2264 C2265 1.387 . S
C2264 H2268 0.950 . S
C2264 C2273 1.390 . S
C2265 C2264 1.387 . S
C2265 C2267 1.387 . S
H2266 C2273 0.950 . S
C2267 C2265 1.387 . S
C2267 C2269 1.390 . S
C2267 H2271 0.950 . S
H2268 C2264 0.950 . S
C2269 C2267 1.390 . S
C2269 C2270 1.387 . S
C2269 H2272 0.950 . S
C2270 C2269 1.387 . S
C2270 C2273 1.387 . S
H2271 C2267 0.950 . S
H2272 C2269 0.950 . S
C2273 C2264 1.390 . S
C2273 H2266 0.950 . S
C2273 C2270 1.387 . S
C2274 C2275 1.387 . S
C2274 H2278 0.950 . S
C2274 C2283 1.390 . S
C2275 C2274 1.387 . S
C2275 C2277 1.387 . S
H2276 C2283 0.950 . S
C2277 C2275 1.387 . S
C2277 C2279 1.390 . S
C2277 H2281 0.950 . S
H2278 C2274 0.950 . S
C2279 C2277 1.390 . S
C2279 C2280 1.387 . S
C2279 H2282 0.950 . S
C2280 C2279 1.387 . S
C2280 C2283 1.387 . S
H2281 C2277 0.950 . S
H2282 C2279 0.950 . S
C2283 C2274 1.390 . S
C2283 H2276 0.950 . S
C2283 C2280 1.387 . S
C2284 C2285 1.387 . S
C2284 H2288 0.950 . S
C2284 C2293 1.390 . S
C2285 C2284 1.387 . S
C2285 C2287 1.387 1_565 S
H2286 C2293 0.950 . S
C2287 C2285 1.387 1_545 S
C2287 C2289 1.390 . S
C2287 H2291 0.950 . S
H2288 C2284 0.950 . S
C2289 C2287 1.390 . S
C2289 C2290 1.387 . S
C2289 H2292 0.950 . S
C2290 C2289 1.387 . S
C2290 C2293 1.387 1_545 S
H2291 C2287 0.950 . S
H2292 C2289 0.950 . S
C2293 C2284 1.390 . S
C2293 H2286 0.950 . S
C2293 C2290 1.387 1_565 S
C2294 C2295 1.387 . S
C2294 H2298 0.950 . S
C2294 C2303 1.390 . S
C2295 C2294 1.387 . S
C2295 C2297 1.387 . S
H2296 C2303 0.950 . S
C2297 C2295 1.387 . S
C2297 C2299 1.390 . S
C2297 H2301 0.950 . S
H2298 C2294 0.950 . S
C2299 C2297 1.390 . S
C2299 C2300 1.387 . S
C2299 H2302 0.950 . S
C2300 C2299 1.387 . S
C2300 C2303 1.387 . S
H2301 C2297 0.950 . S
H2302 C2299 0.950 . S
C2303 C2294 1.390 . S
C2303 H2296 0.950 . S
C2303 C2300 1.387 . S
C2304 C2305 1.387 . S
C2304 H2308 0.950 . S
C2304 C2313 1.390 . S
C2305 C2304 1.387 . S
C2305 C2307 1.387 . S
H2306 C2313 0.950 . S
C2307 C2305 1.387 . S
C2307 C2309 1.390 . S
C2307 H2311 0.950 . S
H2308 C2304 0.950 . S
C2309 C2307 1.390 . S
C2309 C2310 1.387 . S
C2309 H2312 0.950 . S
C2310 C2309 1.387 . S
C2310 C2313 1.387 . S
H2311 C2307 0.950 . S
H2312 C2309 0.950 . S
C2313 C2304 1.390 . S
C2313 H2306 0.950 . S
C2313 C2310 1.387 . S
C2314 C2315 1.387 . S
C2314 H2318 0.950 . S
C2314 C2323 1.390 . S
C2315 C2314 1.387 . S
C2315 C2317 1.387 . S
H2316 C2323 0.950 . S
C2317 C2315 1.387 . S
C2317 C2319 1.390 . S
C2317 H2321 0.950 . S
H2318 C2314 0.950 . S
C2319 C2317 1.390 . S
C2319 C2320 1.387 . S
C2319 H2322 0.950 . S
C2320 C2319 1.387 . S
C2320 C2323 1.387 . S
H2321 C2317 0.950 . S
H2322 C2319 0.950 . S
C2323 C2314 1.390 . S
C2323 H2316 0.950 . S
C2323 C2320 1.387 . S
C2324 C2325 1.387 . S
C2324 H2328 0.950 . S
C2324 C2333 1.390 . S
C2325 C2324 1.387 . S
C2325 C2327 1.387 . S
H2326 C2333 0.950 . S
C2327 C2325 1.387 . S
C2327 C2329 1.390 . S
C2327 H2331 0.950 . S
H2328 C2324 0.950 . S
C2329 C2327 1.390 . S
C2329 C2330 1.387 . S
C2329 H2332 0.950 . S
C2330 C2329 1.387 . S
C2330 C2333 1.387 . S
H2331 C2327 0.950 . S
H2332 C2329 0.950 . S
C2333 C2324 1.390 . S
C2333 H2326 0.950 . S
C2333 C2330 1.387 . S
C2334 C2335 1.387 . S
C2334 H2338 0.950 . S
C2334 C2343 1.390 . S
C2335 C2334 1.387 . S
C2335 C2337 1.387 . S
H2336 C2343 0.950 . S
C2337 C2335 1.387 . S
C2337 C2339 1.390 . S
C2337 H2341 0.950 . S
H2338 C2334 0.950 . S
C2339 C2337 1.390 . S
C2339 C2340 1.387 . S
C2339 H2342 0.950 . S
C2340 C2339 1.387 . S
C2340 C2343 1.387 . S
H2341 C2337 0.950 . S
H2342 C2339 0.950 . S
C2343 C2334 1.390 . S
C2343 H2336 0.950 . S
C2343 C2340 1.387 . S
C2344 C2345 1.387 . S
C2344 H2348 0.950 . S
C2344 C2353 1.390 . S
C2345 C2344 1.387 . S
C2345 C2347 1.387 . S
H2346 C2353 0.950 . S
C2347 C2345 1.387 . S
C2347 C2349 1.390 . S
C2347 H2351 0.950 . S
H2348 C2344 0.950 . S
C2349 C2347 1.390 . S
C2349 C2350 1.387 . S
C2349 H2352 0.950 . S
C2350 C2349 1.387 . S
C2350 C2353 1.387 . S
H2351 C2347 0.950 . S
H2352 C2349 0.950 . S
C2353 C2344 1.390 . S
C2353 H2346 0.950 . S
C2353 C2350 1.387 . S
C2354 C2355 1.387 . S
C2354 H2358 0.950 . S
C2354 C2363 1.390 . S
C2355 C2354 1.387 . S
C2355 C2357 1.387 . S
H2356 C2363 0.950 . S
C2357 C2355 1.387 . S
C2357 C2359 1.390 . S
C2357 H2361 0.950 . S
H2358 C2354 0.950 . S
C2359 C2357 1.390 . S
C2359 C2360 1.387 . S
C2359 H2362 0.950 . S
C2360 C2359 1.387 . S
C2360 C2363 1.387 . S
H2361 C2357 0.950 . S
H2362 C2359 0.950 . S
C2363 C2354 1.390 . S
C2363 H2356 0.950 . S
C2363 C2360 1.387 . S
C2364 C2365 1.387 . S
C2364 H2368 0.950 . S
C2364 C2373 1.390 . S
C2365 C2364 1.387 . S
C2365 C2367 1.387 . S
H2366 C2373 0.950 . S
C2367 C2365 1.387 . S
C2367 C2369 1.390 . S
C2367 H2371 0.950 . S
H2368 C2364 0.950 . S
C2369 C2367 1.390 . S
C2369 C2370 1.387 . S
C2369 H2372 0.950 . S
C2370 C2369 1.387 . S
C2370 C2373 1.387 . S
H2371 C2367 0.950 . S
H2372 C2369 0.950 . S
C2373 C2364 1.390 . S
C2373 H2366 0.950 . S
C2373 C2370 1.387 . S
C2374 C2375 1.387 . S
C2374 H2378 0.950 . S
C2374 C2383 1.390 . S
C2375 C2374 1.387 . S
C2375 C2377 1.387 . S
H2376 C2383 0.950 . S
C2377 C2375 1.387 . S
C2377 C2379 1.390 . S
C2377 H2381 0.950 . S
H2378 C2374 0.950 . S
C2379 C2377 1.390 . S
C2379 C2380 1.387 . S
C2379 H2382 0.950 . S
C2380 C2379 1.387 . S
C2380 C2383 1.387 . S
H2381 C2377 0.950 . S
H2382 C2379 0.950 . S
C2383 C2374 1.390 . S
C2383 H2376 0.950 . S
C2383 C2380 1.387 . S
C2384 C2385 1.387 . S
C2384 H2388 0.950 . S
C2384 C2393 1.390 . S
C2385 C2384 1.387 . S
C2385 C2387 1.387 . S
H2386 C2393 0.950 . S
C2387 C2385 1.387 . S
C2387 C2389 1.390 . S
C2387 H2391 0.950 . S
H2388 C2384 0.950 . S
C2389 C2387 1.390 . S
C2389 C2390 1.387 . S
C2389 H2392 0.950 . S
C2390 C2389 1.387 . S
C2390 C2393 1.387 . S
H2391 C2387 0.950 . S
H2392 C2389 0.950 . S
C2393 C2384 1.390 . S
C2393 H2386 0.950 . S
C2393 C2390 1.387 . S
C2394 C2395 1.387 . S
C2394 H2398 0.950 . S
C2394 C2403 1.390 . S
C2395 C2394 1.387 . S
C2395 C2397 1.387 . S
H2396 C2403 0.950 . S
C2397 C2395 1.387 . S
C2397 C2399 1.390 . S
C2397 H2401 0.950 . S
H2398 C2394 0.950 . S
C2399 C2397 1.390 . S
C2399 C2400 1.387 . S
C2399 H2402 0.950 . S
C2400 C2399 1.387 . S
C2400 C2403 1.387 . S
H2401 C2397 0.950 . S
H2402 C2399 0.950 . S
C2403 C2394 1.390 . S
C2403 H2396 0.950 . S
C2403 C2400 1.387 . S
C2404 C2405 1.387 . S
C2404 H2408 0.950 . S
C2404 C2413 1.390 . S
C2405 C2404 1.387 . S
C2405 C2407 1.387 . S
H2406 C2413 0.950 . S
C2407 C2405 1.387 . S
C2407 C2409 1.390 . S
C2407 H2411 0.950 . S
H2408 C2404 0.950 . S
C2409 C2407 1.390 . S
C2409 C2410 1.387 . S
C2409 H2412 0.950 . S
C2410 C2409 1.387 . S
C2410 C2413 1.387 . S
H2411 C2407 0.950 . S
H2412 C2409 0.950 . S
C2413 C2404 1.390 . S
C2413 H2406 0.950 . S
C2413 C2410 1.387 . S
C2414 C2415 1.387 . S
C2414 H2418 0.950 . S
C2414 C2423 1.390 . S
C2415 C2414 1.387 . S
C2415 C2417 1.387 . S
H2416 C2423 0.950 . S
C2417 C2415 1.387 . S
C2417 C2419 1.390 . S
C2417 H2421 0.950 . S
H2418 C2414 0.950 . S
C2419 C2417 1.390 . S
C2419 C2420 1.387 . S
C2419 H2422 0.950 . S
C2420 C2419 1.387 . S
C2420 C2423 1.387 . S
H2421 C2417 0.950 . S
H2422 C2419 0.950 . S
C2423 C2414 1.390 . S
C2423 H2416 0.950 . S
C2423 C2420 1.387 . S
C2424 C2425 1.387 . S
C2424 H2428 0.950 . S
C2424 C2433 1.390 . S
C2425 C2424 1.387 . S
C2425 C2427 1.387 . S
H2426 C2433 0.950 . S
C2427 C2425 1.387 . S
C2427 C2429 1.390 . S
C2427 H2431 0.950 . S
H2428 C2424 0.950 . S
C2429 C2427 1.390 . S
C2429 C2430 1.387 . S
C2429 H2432 0.950 . S
C2430 C2429 1.387 . S
C2430 C2433 1.387 . S
H2431 C2427 0.950 . S
H2432 C2429 0.950 . S
C2433 C2424 1.390 . S
C2433 H2426 0.950 . S
C2433 C2430 1.387 . S
C2434 C2435 1.387 . S
C2434 H2438 0.950 . S
C2434 C2443 1.390 . S
C2435 C2434 1.387 . S
C2435 C2437 1.387 . S
H2436 C2443 0.950 . S
C2437 C2435 1.387 . S
C2437 C2439 1.390 . S
C2437 H2441 0.950 . S
H2438 C2434 0.950 . S
C2439 C2437 1.390 . S
C2439 C2440 1.387 . S
C2439 H2442 0.950 . S
C2440 C2439 1.387 . S
C2440 C2443 1.387 . S
H2441 C2437 0.950 . S
H2442 C2439 0.950 . S
C2443 C2434 1.390 . S
C2443 H2436 0.950 . S
C2443 C2440 1.387 . S
C2444 C2445 1.387 . S
C2444 H2448 0.950 . S
C2444 C2453 1.390 . S
C2445 C2444 1.387 . S
C2445 C2447 1.387 . S
H2446 C2453 0.950 . S
C2447 C2445 1.387 . S
C2447 C2449 1.390 . S
C2447 H2451 0.950 . S
H2448 C2444 0.950 . S
C2449 C2447 1.390 . S
C2449 C2450 1.387 . S
C2449 H2452 0.950 . S
C2450 C2449 1.387 . S
C2450 C2453 1.387 . S
H2451 C2447 0.950 . S
H2452 C2449 0.950 . S
C2453 C2444 1.390 . S
C2453 H2446 0.950 . S
C2453 C2450 1.387 . S
C2454 C2455 1.387 . S
C2454 H2458 0.950 . S
C2454 C2463 1.390 . S
C2455 C2454 1.387 . S
C2455 C2457 1.387 . S
H2456 C2463 0.950 . S
C2457 C2455 1.387 . S
C2457 C2459 1.390 . S
C2457 H2461 0.950 . S
H2458 C2454 0.950 . S
C2459 C2457 1.390 . S
C2459 C2460 1.387 . S
C2459 H2462 0.950 . S
C2460 C2459 1.387 . S
C2460 C2463 1.387 . S
H2461 C2457 0.950 . S
H2462 C2459 0.950 . S
C2463 C2454 1.390 . S
C2463 H2456 0.950 . S
C2463 C2460 1.387 . S
C2464 C2465 1.387 . S
C2464 H2468 0.950 . S
C2464 C2473 1.390 . S
C2465 C2464 1.387 . S
C2465 C2467 1.387 . S
H2466 C2473 0.950 . S
C2467 C2465 1.387 . S
C2467 C2469 1.390 . S
C2467 H2471 0.950 . S
H2468 C2464 0.950 . S
C2469 C2467 1.390 . S
C2469 C2470 1.387 . S
C2469 H2472 0.950 . S
C2470 C2469 1.387 . S
C2470 C2473 1.387 . S
H2471 C2467 0.950 . S
H2472 C2469 0.950 . S
C2473 C2464 1.390 . S
C2473 H2466 0.950 . S
C2473 C2470 1.387 . S
C2474 C2475 1.387 . S
C2474 H2478 0.950 . S
C2474 C2483 1.390 . S
C2475 C2474 1.387 . S
C2475 C2477 1.387 . S
H2476 C2483 0.950 . S
C2477 C2475 1.387 . S
C2477 C2479 1.390 . S
C2477 H2481 0.950 . S
H2478 C2474 0.950 . S
C2479 C2477 1.390 . S
C2479 C2480 1.387 . S
C2479 H2482 0.950 . S
C2480 C2479 1.387 . S
C2480 C2483 1.387 . S
H2481 C2477 0.950 . S
H2482 C2479 0.950 . S
C2483 C2474 1.390 . S
C2483 H2476 0.950 . S
C2483 C2480 1.387 . S
C2484 C2485 1.387 . S
C2484 H2488 0.950 . S
C2484 C2493 1.390 . S
C2485 C2484 1.387 . S
C2485 C2487 1.387 . S
H2486 C2493 0.950 . S
C2487 C2485 1.387 . S
C2487 C2489 1.390 . S
C2487 H2491 0.950 . S
H2488 C2484 0.950 . S
C2489 C2487 1.390 . S
C2489 C2490 1.387 . S
C2489 H2492 0.950 . S
C2490 C2489 1.387 . S
C2490 C2493 1.387 . S
H2491 C2487 0.950 . S
H2492 C2489 0.950 . S
C2493 C2484 1.390 . S
C2493 H2486 0.950 . S
C2493 C2490 1.387 . S
C2494 C2495 1.387 . S
C2494 H2498 0.950 . S
C2494 C2503 1.390 . S
C2495 C2494 1.387 . S
C2495 C2497 1.387 . S
H2496 C2503 0.950 . S
C2497 C2495 1.387 . S
C2497 C2499 1.390 . S
C2497 H2501 0.950 . S
H2498 C2494 0.950 . S
C2499 C2497 1.390 . S
C2499 C2500 1.387 . S
C2499 H2502 0.950 . S
C2500 C2499 1.387 . S
C2500 C2503 1.387 . S
H2501 C2497 0.950 . S
H2502 C2499 0.950 . S
C2503 C2494 1.390 . S
C2503 H2496 0.950 . S
C2503 C2500 1.387 . S
C2504 C2505 1.387 . S
C2504 H2508 0.950 . S
C2504 C2513 1.390 . S
C2505 C2504 1.387 . S
C2505 C2507 1.387 . S
H2506 C2513 0.950 . S
C2507 C2505 1.387 . S
C2507 C2509 1.390 . S
C2507 H2511 0.950 . S
H2508 C2504 0.950 . S
C2509 C2507 1.390 . S
C2509 C2510 1.387 . S
C2509 H2512 0.950 . S
C2510 C2509 1.387 . S
C2510 C2513 1.387 . S
H2511 C2507 0.950 . S
H2512 C2509 0.950 . S
C2513 C2504 1.390 . S
C2513 H2506 0.950 . S
C2513 C2510 1.387 . S
C2514 C2515 1.387 . S
C2514 H2518 0.950 . S
C2514 C2523 1.390 . S
C2515 C2514 1.387 . S
C2515 C2517 1.387 . S
H2516 C2523 0.950 . S
C2517 C2515 1.387 . S
C2517 C2519 1.390 . S
C2517 H2521 0.950 . S
H2518 C2514 0.950 . S
C2519 C2517 1.390 . S
C2519 C2520 1.387 . S
C2519 H2522 0.950 . S
C2520 C2519 1.387 . S
C2520 C2523 1.387 . S
H2521 C2517 0.950 . S
H2522 C2519 0.950 . S
C2523 C2514 1.390 . S
C2523 H2516 0.950 . S
C2523 C2520 1.387 . S
C2524 C2525 1.387 . S
C2524 H2528 0.950 . S
C2524 C2533 1.390 . S
C2525 C2524 1.387 . S
C2525 C2527 1.387 . S
H2526 C2533 0.950 . S
C2527 C2525 1.387 . S
C2527 C2529 1.390 . S
C2527 H2531 0.950 . S
H2528 C2524 0.950 . S
C2529 C2527 1.390 . S
C2529 C2530 1.387 . S
C2529 H2532 0.950 . S
C2530 C2529 1.387 . S
C2530 C2533 1.387 . S
H2531 C2527 0.950 . S
H2532 C2529 0.950 . S
C2533 C2524 1.390 . S
C2533 H2526 0.950 . S
C2533 C2530 1.387 . S
C2534 C2535 1.387 . S
C2534 H2538 0.950 . S
C2534 C2543 1.390 . S
C2535 C2534 1.387 . S
C2535 C2537 1.387 . S
H2536 C2543 0.950 . S
C2537 C2535 1.387 . S
C2537 C2539 1.390 . S
C2537 H2541 0.950 . S
H2538 C2534 0.950 . S
C2539 C2537 1.390 . S
C2539 C2540 1.387 . S
C2539 H2542 0.950 . S
C2540 C2539 1.387 . S
C2540 C2543 1.387 . S
H2541 C2537 0.950 . S
H2542 C2539 0.950 . S
C2543 C2534 1.390 . S
C2543 H2536 0.950 . S
C2543 C2540 1.387 . S
C2544 C2545 1.387 . S
C2544 H2548 0.950 . S
C2544 C2553 1.390 . S
C2545 C2544 1.387 . S
C2545 C2547 1.387 . S
H2546 C2553 0.950 . S
C2547 C2545 1.387 . S
C2547 C2549 1.390 . S
C2547 H2551 0.950 . S
H2548 C2544 0.950 . S
C2549 C2547 1.390 . S
C2549 C2550 1.387 . S
C2549 H2552 0.950 . S
C2550 C2549 1.387 . S
C2550 C2553 1.387 . S
H2551 C2547 0.950 . S
H2552 C2549 0.950 . S
C2553 C2544 1.390 . S
C2553 H2546 0.950 . S
C2553 C2550 1.387 . S
C2554 C2555 1.387 . S
C2554 H2558 0.950 . S
C2554 C2563 1.390 . S
C2555 C2554 1.387 . S
C2555 C2557 1.387 . S
H2556 C2563 0.950 . S
C2557 C2555 1.387 . S
C2557 C2559 1.390 . S
C2557 H2561 0.950 . S
H2558 C2554 0.950 . S
C2559 C2557 1.390 . S
C2559 C2560 1.387 . S
C2559 H2562 0.950 . S
C2560 C2559 1.387 . S
C2560 C2563 1.387 . S
H2561 C2557 0.950 . S
H2562 C2559 0.950 . S
C2563 C2554 1.390 . S
C2563 H2556 0.950 . S
C2563 C2560 1.387 . S
C2564 C2565 1.387 . S
C2564 H2568 0.950 . S
C2564 C2573 1.390 . S
C2565 C2564 1.387 . S
C2565 C2567 1.387 . S
H2566 C2573 0.950 . S
C2567 C2565 1.387 . S
C2567 C2569 1.390 . S
C2567 H2571 0.950 . S
H2568 C2564 0.950 . S
C2569 C2567 1.390 . S
C2569 C2570 1.387 . S
C2569 H2572 0.950 . S
C2570 C2569 1.387 . S
C2570 C2573 1.387 . S
H2571 C2567 0.950 . S
H2572 C2569 0.950 . S
C2573 C2564 1.390 . S
C2573 H2566 0.950 . S
C2573 C2570 1.387 . S
C2574 C2575 1.387 . S
C2574 H2578 0.950 . S
C2574 C2583 1.390 . S
C2575 C2574 1.387 . S
C2575 C2577 1.387 . S
H2576 C2583 0.950 . S
C2577 C2575 1.387 . S
C2577 C2579 1.390 . S
C2577 H2581 0.950 . S
H2578 C2574 0.950 . S
C2579 C2577 1.390 . S
C2579 C2580 1.387 . S
C2579 H2582 0.950 . S
C2580 C2579 1.387 . S
C2580 C2583 1.387 . S
H2581 C2577 0.950 . S
H2582 C2579 0.950 . S
C2583 C2574 1.390 . S
C2583 H2576 0.950 . S
C2583 C2580 1.387 . S
C2584 C2585 1.387 . S
C2584 H2588 0.950 . S
C2584 C2593 1.390 . S
C2585 C2584 1.387 . S
C2585 C2587 1.387 . S
H2586 C2593 0.950 . S
C2587 C2585 1.387 . S
C2587 C2589 1.390 . S
C2587 H2591 0.950 . S
H2588 C2584 0.950 . S
C2589 C2587 1.390 . S
C2589 C2590 1.387 . S
C2589 H2592 0.950 . S
C2590 C2589 1.387 . S
C2590 C2593 1.387 . S
H2591 C2587 0.950 . S
H2592 C2589 0.950 . S
C2593 C2584 1.390 . S
C2593 H2586 0.950 . S
C2593 C2590 1.387 . S
C2594 C2595 1.387 . S
C2594 H2598 0.950 . S
C2594 C2603 1.390 . S
C2595 C2594 1.387 . S
C2595 C2597 1.387 . S
H2596 C2603 0.950 . S
C2597 C2595 1.387 . S
C2597 C2599 1.390 . S
C2597 H2601 0.950 . S
H2598 C2594 0.950 . S
C2599 C2597 1.390 . S
C2599 C2600 1.387 . S
C2599 H2602 0.950 . S
C2600 C2599 1.387 . S
C2600 C2603 1.387 . S
H2601 C2597 0.950 . S
H2602 C2599 0.950 . S
C2603 C2594 1.390 . S
C2603 H2596 0.950 . S
C2603 C2600 1.387 . S
C2604 C2605 1.387 . S
C2604 H2608 0.950 . S
C2604 C2613 1.390 . S
C2605 C2604 1.387 . S
C2605 C2607 1.387 . S
H2606 C2613 0.950 . S
C2607 C2605 1.387 . S
C2607 C2609 1.390 . S
C2607 H2611 0.950 . S
H2608 C2604 0.950 . S
C2609 C2607 1.390 . S
C2609 C2610 1.387 . S
C2609 H2612 0.950 . S
C2610 C2609 1.387 . S
C2610 C2613 1.387 . S
H2611 C2607 0.950 . S
H2612 C2609 0.950 . S
C2613 C2604 1.390 . S
C2613 H2606 0.950 . S
C2613 C2610 1.387 . S
C2614 C2615 1.387 . S
C2614 H2618 0.950 . S
C2614 C2623 1.390 . S
C2615 C2614 1.387 . S
C2615 C2617 1.387 . S
H2616 C2623 0.950 . S
C2617 C2615 1.387 . S
C2617 C2619 1.390 . S
C2617 H2621 0.950 . S
H2618 C2614 0.950 . S
C2619 C2617 1.390 . S
C2619 C2620 1.387 . S
C2619 H2622 0.950 . S
C2620 C2619 1.387 . S
C2620 C2623 1.387 . S
H2621 C2617 0.950 . S
H2622 C2619 0.950 . S
C2623 C2614 1.390 . S
C2623 H2616 0.950 . S
C2623 C2620 1.387 . S
C2624 C2625 1.387 . S
C2624 H2628 0.950 . S
C2624 C2633 1.390 . S
C2625 C2624 1.387 . S
C2625 C2627 1.387 . S
H2626 C2633 0.950 . S
C2627 C2625 1.387 . S
C2627 C2629 1.390 . S
C2627 H2631 0.950 . S
H2628 C2624 0.950 . S
C2629 C2627 1.390 . S
C2629 C2630 1.387 . S
C2629 H2632 0.950 . S
C2630 C2629 1.387 . S
C2630 C2633 1.387 . S
H2631 C2627 0.950 . S
H2632 C2629 0.950 . S
C2633 C2624 1.390 . S
C2633 H2626 0.950 . S
C2633 C2630 1.387 . S
C2634 C2635 1.387 . S
C2634 H2638 0.950 . S
C2634 C2643 1.390 . S
C2635 C2634 1.387 . S
C2635 C2637 1.387 . S
H2636 C2643 0.950 . S
C2637 C2635 1.387 . S
C2637 C2639 1.390 . S
C2637 H2641 0.950 . S
H2638 C2634 0.950 . S
C2639 C2637 1.390 . S
C2639 C2640 1.387 . S
C2639 H2642 0.950 . S
C2640 C2639 1.387 . S
C2640 C2643 1.387 . S
H2641 C2637 0.950 . S
H2642 C2639 0.950 . S
C2643 C2634 1.390 . S
C2643 H2636 0.950 . S
C2643 C2640 1.387 . S
C2644 C2645 1.387 . S
C2644 H2648 0.950 . S
C2644 C2653 1.390 . S
C2645 C2644 1.387 . S
C2645 C2647 1.387 . S
H2646 C2653 0.950 . S
C2647 C2645 1.387 . S
C2647 C2649 1.390 . S
C2647 H2651 0.950 . S
H2648 C2644 0.950 . S
C2649 C2647 1.390 . S
C2649 C2650 1.387 . S
C2649 H2652 0.950 . S
C2650 C2649 1.387 . S
C2650 C2653 1.387 . S
H2651 C2647 0.950 . S
H2652 C2649 0.950 . S
C2653 C2644 1.390 . S
C2653 H2646 0.950 . S
C2653 C2650 1.387 . S
C2654 C2655 1.387 . S
C2654 H2658 0.950 . S
C2654 C2663 1.390 . S
C2655 C2654 1.387 . S
C2655 C2657 1.387 . S
H2656 C2663 0.950 . S
C2657 C2655 1.387 . S
C2657 C2659 1.390 . S
C2657 H2661 0.950 . S
H2658 C2654 0.950 . S
C2659 C2657 1.390 . S
C2659 C2660 1.387 . S
C2659 H2662 0.950 . S
C2660 C2659 1.387 . S
C2660 C2663 1.387 . S
H2661 C2657 0.950 . S
H2662 C2659 0.950 . S
C2663 C2654 1.390 . S
C2663 H2656 0.950 . S
C2663 C2660 1.387 . S
C2664 C2665 1.387 . S
C2664 H2668 0.950 . S
C2664 C2673 1.390 . S
C2665 C2664 1.387 . S
C2665 C2667 1.387 . S
H2666 C2673 0.950 . S
C2667 C2665 1.387 . S
C2667 C2669 1.390 . S
C2667 H2671 0.950 . S
H2668 C2664 0.950 . S
C2669 C2667 1.390 . S
C2669 C2670 1.387 . S
C2669 H2672 0.950 . S
C2670 C2669 1.387 . S
C2670 C2673 1.387 . S
H2671 C2667 0.950 . S
H2672 C2669 0.950 . S
C2673 C2664 1.390 . S
C2673 H2666 0.950 . S
C2673 C2670 1.387 . S
C2674 C2675 1.387 . S
C2674 H2678 0.950 . S
C2674 C2683 1.390 . S
C2675 C2674 1.387 . S
C2675 C2677 1.387 . S
H2676 C2683 0.950 . S
C2677 C2675 1.387 . S
C2677 C2679 1.390 . S
C2677 H2681 0.950 . S
H2678 C2674 0.950 . S
C2679 C2677 1.390 . S
C2679 C2680 1.387 . S
C2679 H2682 0.950 . S
C2680 C2679 1.387 . S
C2680 C2683 1.387 . S
H2681 C2677 0.950 . S
H2682 C2679 0.950 . S
C2683 C2674 1.390 . S
C2683 H2676 0.950 . S
C2683 C2680 1.387 . S
C2684 C2685 1.387 . S
C2684 H2688 0.950 . S
C2684 C2693 1.390 . S
C2685 C2684 1.387 . S
C2685 C2687 1.387 . S
H2686 C2693 0.950 . S
C2687 C2685 1.387 . S
C2687 C2689 1.390 . S
C2687 H2691 0.950 . S
H2688 C2684 0.950 . S
C2689 C2687 1.390 . S
C2689 C2690 1.387 . S
C2689 H2692 0.950 . S
C2690 C2689 1.387 . S
C2690 C2693 1.387 . S
H2691 C2687 0.950 . S
H2692 C2689 0.950 . S
C2693 C2684 1.390 . S
C2693 H2686 0.950 . S
C2693 C2690 1.387 . S
C2694 C2695 1.387 . S
C2694 H2698 0.950 . S
C2694 C2703 1.390 . S
C2695 C2694 1.387 . S
C2695 C2697 1.387 . S
H2696 C2703 0.950 . S
C2697 C2695 1.387 . S
C2697 C2699 1.390 . S
C2697 H2701 0.950 . S
H2698 C2694 0.950 . S
C2699 C2697 1.390 . S
C2699 C2700 1.387 . S
C2699 H2702 0.950 . S
C2700 C2699 1.387 . S
C2700 C2703 1.387 . S
H2701 C2697 0.950 . S
H2702 C2699 0.950 . S
C2703 C2694 1.390 . S
C2703 H2696 0.950 . S
C2703 C2700 1.387 . S
C2704 C2705 1.387 . S
C2704 H2708 0.950 . S
C2704 C2713 1.390 . S
C2705 C2704 1.387 . S
C2705 C2707 1.387 . S
H2706 C2713 0.950 . S
C2707 C2705 1.387 . S
C2707 C2709 1.390 . S
C2707 H2711 0.950 . S
H2708 C2704 0.950 . S
C2709 C2707 1.390 . S
C2709 C2710 1.387 . S
C2709 H2712 0.950 . S
C2710 C2709 1.387 . S
C2710 C2713 1.387 . S
H2711 C2707 0.950 . S
H2712 C2709 0.950 . S
C2713 C2704 1.390 . S
C2713 H2706 0.950 . S
C2713 C2710 1.387 . S
C2714 C2715 1.387 . S
C2714 H2718 0.950 . S
C2714 C2723 1.390 . S
C2715 C2714 1.387 . S
C2715 C2717 1.387 . S
H2716 C2723 0.950 . S
C2717 C2715 1.387 . S
C2717 C2719 1.390 . S
C2717 H2721 0.950 . S
H2718 C2714 0.950 . S
C2719 C2717 1.390 . S
C2719 C2720 1.387 . S
C2719 H2722 0.950 . S
C2720 C2719 1.387 . S
C2720 C2723 1.387 . S
H2721 C2717 0.950 . S
H2722 C2719 0.950 . S
C2723 C2714 1.390 . S
C2723 H2716 0.950 . S
C2723 C2720 1.387 . S
C2724 C2725 1.387 . S
C2724 H2728 0.950 . S
C2724 C2733 1.390 . S
C2725 C2724 1.387 . S
C2725 C2727 1.387 . S
H2726 C2733 0.950 . S
C2727 C2725 1.387 . S
C2727 C2729 1.390 . S
C2727 H2731 0.950 . S
H2728 C2724 0.950 . S
C2729 C2727 1.390 . S
C2729 C2730 1.387 . S
C2729 H2732 0.950 . S
C2730 C2729 1.387 . S
C2730 C2733 1.387 . S
H2731 C2727 0.950 . S
H2732 C2729 0.950 . S
C2733 C2724 1.390 . S
C2733 H2726 0.950 . S
C2733 C2730 1.387 . S
C2734 C2735 1.387 . S
C2734 H2738 0.950 . S
C2734 C2743 1.390 . S
C2735 C2734 1.387 . S
C2735 C2737 1.387 . S
H2736 C2743 0.950 . S
C2737 C2735 1.387 . S
C2737 C2739 1.390 . S
C2737 H2741 0.950 . S
H2738 C2734 0.950 . S
C2739 C2737 1.390 . S
C2739 C2740 1.387 . S
C2739 H2742 0.950 . S
C2740 C2739 1.387 . S
C2740 C2743 1.387 . S
H2741 C2737 0.950 . S
H2742 C2739 0.950 . S
C2743 C2734 1.390 . S
C2743 H2736 0.950 . S
C2743 C2740 1.387 . S
C2744 C2745 1.387 . S
C2744 H2748 0.950 . S
C2744 C2753 1.390 . S
C2745 C2744 1.387 . S
C2745 C2747 1.387 . S
H2746 C2753 0.950 . S
C2747 C2745 1.387 . S
C2747 C2749 1.390 . S
C2747 H2751 0.950 . S
H2748 C2744 0.950 . S
C2749 C2747 1.390 . S
C2749 C2750 1.387 . S
C2749 H2752 0.950 . S
C2750 C2749 1.387 . S
C2750 C2753 1.387 . S
H2751 C2747 0.950 . S
H2752 C2749 0.950 . S
C2753 C2744 1.390 . S
C2753 H2746 0.950 . S
C2753 C2750 1.387 . S
C2754 C2755 1.387 . S
C2754 H2758 0.950 . S
C2754 C2763 1.390 . S
C2755 C2754 1.387 . S
C2755 C2757 1.387 . S
H2756 C2763 0.950 . S
C2757 C2755 1.387 . S
C2757 C2759 1.390 . S
C2757 H2761 0.950 . S
H2758 C2754 0.950 . S
C2759 C2757 1.390 . S
C2759 C2760 1.387 . S
C2759 H2762 0.950 . S
C2760 C2759 1.387 . S
C2760 C2763 1.387 . S
H2761 C2757 0.950 . S
H2762 C2759 0.950 . S
C2763 C2754 1.390 . S
C2763 H2756 0.950 . S
C2763 C2760 1.387 . S
C2764 C2765 1.387 . S
C2764 H2768 0.950 . S
C2764 C2773 1.390 . S
C2765 C2764 1.387 . S
C2765 C2767 1.387 . S
H2766 C2773 0.950 . S
C2767 C2765 1.387 . S
C2767 C2769 1.390 . S
C2767 H2771 0.950 . S
H2768 C2764 0.950 . S
C2769 C2767 1.390 . S
C2769 C2770 1.387 . S
C2769 H2772 0.950 . S
C2770 C2769 1.387 . S
C2770 C2773 1.387 . S
H2771 C2767 0.950 . S
H2772 C2769 0.950 . S
C2773 C2764 1.390 . S
C2773 H2766 0.950 . S
C2773 C2770 1.387 . S
C2774 C2775 1.387 . S
C2774 H2778 0.950 . S
C2774 C2783 1.390 . S
C2775 C2774 1.387 . S
C2775 C2777 1.387 . S
H2776 C2783 0.950 . S
C2777 C2775 1.387 . S
C2777 C2779 1.390 . S
C2777 H2781 0.950 . S
H2778 C2774 0.950 . S
C2779 C2777 1.390 . S
C2779 C2780 1.387 . S
C2779 H2782 0.950 . S
C2780 C2779 1.387 . S
C2780 C2783 1.387 . S
H2781 C2777 0.950 . S
H2782 C2779 0.950 . S
C2783 C2774 1.390 . S
C2783 H2776 0.950 . S
C2783 C2780 1.387 . S
C2784 C2785 1.387 . S
C2784 H2788 0.950 . S
C2784 C2793 1.390 . S
C2785 C2784 1.387 . S
C2785 C2787 1.387 . S
H2786 C2793 0.950 . S
C2787 C2785 1.387 . S
C2787 C2789 1.390 . S
C2787 H2791 0.950 . S
H2788 C2784 0.950 . S
C2789 C2787 1.390 . S
C2789 C2790 1.387 . S
C2789 H2792 0.950 . S
C2790 C2789 1.387 . S
C2790 C2793 1.387 . S
H2791 C2787 0.950 . S
H2792 C2789 0.950 . S
C2793 C2784 1.390 . S
C2793 H2786 0.950 . S
C2793 C2790 1.387 . S
C2794 C2795 1.387 . S
C2794 H2798 0.950 . S
C2794 C2803 1.390 . S
C2795 C2794 1.387 . S
C2795 C2797 1.387 . S
H2796 C2803 0.950 . S
C2797 C2795 1.387 . S
C2797 C2799 1.390 . S
C2797 H2801 0.950 . S
H2798 C2794 0.950 . S
C2799 C2797 1.390 . S
C2799 C2800 1.387 . S
C2799 H2802 0.950 . S
C2800 C2799 1.387 . S
C2800 C2803 1.387 . S
H2801 C2797 0.950 . S
H2802 C2799 0.950 . S
C2803 C2794 1.390 . S
C2803 H2796 0.950 . S
C2803 C2800 1.387 . S
C2804 C2805 1.387 . S
C2804 H2808 0.950 . S
C2804 C2813 1.390 . S
C2805 C2804 1.387 . S
C2805 C2807 1.387 . S
H2806 C2813 0.950 . S
C2807 C2805 1.387 . S
C2807 C2809 1.390 . S
C2807 H2811 0.950 . S
H2808 C2804 0.950 . S
C2809 C2807 1.390 . S
C2809 C2810 1.387 . S
C2809 H2812 0.950 . S
C2810 C2809 1.387 . S
C2810 C2813 1.387 . S
H2811 C2807 0.950 . S
H2812 C2809 0.950 . S
C2813 C2804 1.390 . S
C2813 H2806 0.950 . S
C2813 C2810 1.387 . S
C2814 C2815 1.387 . S
C2814 H2818 0.950 . S
C2814 C2823 1.390 . S
C2815 C2814 1.387 . S
C2815 C2817 1.387 . S
H2816 C2823 0.950 . S
C2817 C2815 1.387 . S
C2817 C2819 1.390 . S
C2817 H2821 0.950 . S
H2818 C2814 0.950 . S
C2819 C2817 1.390 . S
C2819 C2820 1.387 . S
C2819 H2822 0.950 . S
C2820 C2819 1.387 . S
C2820 C2823 1.387 . S
H2821 C2817 0.950 . S
H2822 C2819 0.950 . S
C2823 C2814 1.390 . S
C2823 H2816 0.950 . S
C2823 C2820 1.387 . S
C2824 C2825 1.387 . S
C2824 H2828 0.950 . S
C2824 C2833 1.390 . S
C2825 C2824 1.387 . S
C2825 C2827 1.387 . S
H2826 C2833 0.950 . S
C2827 C2825 1.387 . S
C2827 C2829 1.390 . S
C2827 H2831 0.950 . S
H2828 C2824 0.950 . S
C2829 C2827 1.390 . S
C2829 C2830 1.387 . S
C2829 H2832 0.950 . S
C2830 C2829 1.387 . S
C2830 C2833 1.387 . S
H2831 C2827 0.950 . S
H2832 C2829 0.950 . S
C2833 C2824 1.390 . S
C2833 H2826 0.950 . S
C2833 C2830 1.387 . S
C2834 C2835 1.387 . S
C2834 H2838 0.950 . S
C2834 C2843 1.390 . S
C2835 C2834 1.387 . S
C2835 C2837 1.387 . S
H2836 C2843 0.950 . S
C2837 C2835 1.387 . S
C2837 C2839 1.390 . S
C2837 H2841 0.950 . S
H2838 C2834 0.950 . S
C2839 C2837 1.390 . S
C2839 C2840 1.387 . S
C2839 H2842 0.950 . S
C2840 C2839 1.387 . S
C2840 C2843 1.387 . S
H2841 C2837 0.950 . S
H2842 C2839 0.950 . S
C2843 C2834 1.390 . S
C2843 H2836 0.950 . S
C2843 C2840 1.387 . S
C2844 C2845 1.387 . S
C2844 H2848 0.950 . S
C2844 C2853 1.390 . S
C2845 C2844 1.387 . S
C2845 C2847 1.387 . S
H2846 C2853 0.950 . S
C2847 C2845 1.387 . S
C2847 C2849 1.390 . S
C2847 H2851 0.950 . S
H2848 C2844 0.950 . S
C2849 C2847 1.390 . S
C2849 C2850 1.387 . S
C2849 H2852 0.950 . S
C2850 C2849 1.387 . S
C2850 C2853 1.387 . S
H2851 C2847 0.950 . S
H2852 C2849 0.950 . S
C2853 C2844 1.390 . S
C2853 H2846 0.950 . S
C2853 C2850 1.387 . S
C2854 C2855 1.387 . S
C2854 H2858 0.950 . S
C2854 C2863 1.390 . S
C2855 C2854 1.387 . S
C2855 C2857 1.387 . S
H2856 C2863 0.950 . S
C2857 C2855 1.387 . S
C2857 C2859 1.390 . S
C2857 H2861 0.950 . S
H2858 C2854 0.950 . S
C2859 C2857 1.390 . S
C2859 C2860 1.387 . S
C2859 H2862 0.950 . S
C2860 C2859 1.387 . S
C2860 C2863 1.387 . S
H2861 C2857 0.950 . S
H2862 C2859 0.950 . S
C2863 C2854 1.390 . S
C2863 H2856 0.950 . S
C2863 C2860 1.387 . S
C2864 C2865 1.387 . S
C2864 H2868 0.950 . S
C2864 C2873 1.390 . S
C2865 C2864 1.387 . S
C2865 C2867 1.387 . S
H2866 C2873 0.950 . S
C2867 C2865 1.387 . S
C2867 C2869 1.390 . S
C2867 H2871 0.950 . S
H2868 C2864 0.950 . S
C2869 C2867 1.390 . S
C2869 C2870 1.387 . S
C2869 H2872 0.950 . S
C2870 C2869 1.387 . S
C2870 C2873 1.387 . S
H2871 C2867 0.950 . S
H2872 C2869 0.950 . S
C2873 C2864 1.390 . S
C2873 H2866 0.950 . S
C2873 C2870 1.387 . S
C2874 C2875 1.387 . S
C2874 H2878 0.950 . S
C2874 C2883 1.390 . S
C2875 C2874 1.387 . S
C2875 C2877 1.387 . S
H2876 C2883 0.950 . S
C2877 C2875 1.387 . S
C2877 C2879 1.390 . S
C2877 H2881 0.950 . S
H2878 C2874 0.950 . S
C2879 C2877 1.390 . S
C2879 C2880 1.387 . S
C2879 H2882 0.950 . S
C2880 C2879 1.387 . S
C2880 C2883 1.387 . S
H2881 C2877 0.950 . S
H2882 C2879 0.950 . S
C2883 C2874 1.390 . S
C2883 H2876 0.950 . S
C2883 C2880 1.387 . S
C2884 C2885 1.387 . S
C2884 H2888 0.950 . S
C2884 C2893 1.390 . S
C2885 C2884 1.387 . S
C2885 C2887 1.387 . S
H2886 C2893 0.950 . S
C2887 C2885 1.387 . S
C2887 C2889 1.390 . S
C2887 H2891 0.950 . S
H2888 C2884 0.950 . S
C2889 C2887 1.390 . S
C2889 C2890 1.387 . S
C2889 H2892 0.950 . S
C2890 C2889 1.387 . S
C2890 C2893 1.387 . S
H2891 C2887 0.950 . S
H2892 C2889 0.950 . S
C2893 C2884 1.390 . S
C2893 H2886 0.950 . S
C2893 C2890 1.387 . S
C2894 C2895 1.387 . S
C2894 H2898 0.950 . S
C2894 C2903 1.390 . S
C2895 C2894 1.387 . S
C2895 C2897 1.387 . S
H2896 C2903 0.950 . S
C2897 C2895 1.387 . S
C2897 C2899 1.390 . S
C2897 H2901 0.950 . S
H2898 C2894 0.950 . S
C2899 C2897 1.390 . S
C2899 C2900 1.387 . S
C2899 H2902 0.950 . S
C2900 C2899 1.387 . S
C2900 C2903 1.387 . S
H2901 C2897 0.950 . S
H2902 C2899 0.950 . S
C2903 C2894 1.390 . S
C2903 H2896 0.950 . S
C2903 C2900 1.387 . S
C2904 C2905 1.387 . S
C2904 H2908 0.950 . S
C2904 C2913 1.390 . S
C2905 C2904 1.387 . S
C2905 C2907 1.387 . S
H2906 C2913 0.950 . S
C2907 C2905 1.387 . S
C2907 C2909 1.390 . S
C2907 H2911 0.950 . S
H2908 C2904 0.950 . S
C2909 C2907 1.390 . S
C2909 C2910 1.387 . S
C2909 H2912 0.950 . S
C2910 C2909 1.387 . S
C2910 C2913 1.387 . S
H2911 C2907 0.950 . S
H2912 C2909 0.950 . S
C2913 C2904 1.390 . S
C2913 H2906 0.950 . S
C2913 C2910 1.387 . S
C2914 C2915 1.387 . S
C2914 H2918 0.950 . S
C2914 C2923 1.390 . S
C2915 C2914 1.387 . S
C2915 C2917 1.387 . S
H2916 C2923 0.950 . S
C2917 C2915 1.387 . S
C2917 C2919 1.390 . S
C2917 H2921 0.950 . S
H2918 C2914 0.950 . S
C2919 C2917 1.390 . S
C2919 C2920 1.387 . S
C2919 H2922 0.950 . S
C2920 C2919 1.387 . S
C2920 C2923 1.387 . S
H2921 C2917 0.950 . S
H2922 C2919 0.950 . S
C2923 C2914 1.390 . S
C2923 H2916 0.950 . S
C2923 C2920 1.387 . S
C2924 C2925 1.387 . S
C2924 H2928 0.950 . S
C2924 C2933 1.390 . S
C2925 C2924 1.387 . S
C2925 C2927 1.387 . S
H2926 C2933 0.950 . S
C2927 C2925 1.387 . S
C2927 C2929 1.390 . S
C2927 H2931 0.950 . S
H2928 C2924 0.950 . S
C2929 C2927 1.390 . S
C2929 C2930 1.387 . S
C2929 H2932 0.950 . S
C2930 C2929 1.387 . S
C2930 C2933 1.387 . S
H2931 C2927 0.950 . S
H2932 C2929 0.950 . S
C2933 C2924 1.390 . S
C2933 H2926 0.950 . S
C2933 C2930 1.387 . S
C2934 C2935 1.387 . S
C2934 H2938 0.950 . S
C2934 C2943 1.390 . S
C2935 C2934 1.387 . S
C2935 C2937 1.387 . S
H2936 C2943 0.950 . S
C2937 C2935 1.387 . S
C2937 C2939 1.390 . S
C2937 H2941 0.950 . S
H2938 C2934 0.950 . S
C2939 C2937 1.390 . S
C2939 C2940 1.387 . S
C2939 H2942 0.950 . S
C2940 C2939 1.387 . S
C2940 C2943 1.387 . S
H2941 C2937 0.950 . S
H2942 C2939 0.950 . S
C2943 C2934 1.390 . S
C2943 H2936 0.950 . S
C2943 C2940 1.387 . S
C2944 C2945 1.387 . S
C2944 H2948 0.950 . S
C2944 C2953 1.390 . S
C2945 C2944 1.387 . S
C2945 C2947 1.387 . S
H2946 C2953 0.950 . S
C2947 C2945 1.387 . S
C2947 C2949 1.390 . S
C2947 H2951 0.950 . S
H2948 C2944 0.950 . S
C2949 C2947 1.390 . S
C2949 C2950 1.387 . S
C2949 H2952 0.950 . S
C2950 C2949 1.387 . S
C2950 C2953 1.387 . S
H2951 C2947 0.950 . S
H2952 C2949 0.950 . S
C2953 C2944 1.390 . S
C2953 H2946 0.950 . S
C2953 C2950 1.387 . S
C2954 C2955 1.387 . S
C2954 H2958 0.950 . S
C2954 C2963 1.390 . S
C2955 C2954 1.387 . S
C2955 C2957 1.387 . S
H2956 C2963 0.950 . S
C2957 C2955 1.387 . S
C2957 C2959 1.390 . S
C2957 H2961 0.950 . S
H2958 C2954 0.950 . S
C2959 C2957 1.390 . S
C2959 C2960 1.387 . S
C2959 H2962 0.950 . S
C2960 C2959 1.387 . S
C2960 C2963 1.387 . S
H2961 C2957 0.950 . S
H2962 C2959 0.950 . S
C2963 C2954 1.390 . S
C2963 H2956 0.950 . S
C2963 C2960 1.387 . S
C2964 C2965 1.387 . S
C2964 H2968 0.950 . S
C2964 C2973 1.390 . S
C2965 C2964 1.387 . S
C2965 C2967 1.387 . S
H2966 C2973 0.950 . S
C2967 C2965 1.387 . S
C2967 C2969 1.390 . S
C2967 H2971 0.950 . S
H2968 C2964 0.950 . S
C2969 C2967 1.390 . S
C2969 C2970 1.387 . S
C2969 H2972 0.950 . S
C2970 C2969 1.387 . S
C2970 C2973 1.387 . S
H2971 C2967 0.950 . S
H2972 C2969 0.950 . S
C2973 C2964 1.390 . S
C2973 H2966 0.950 . S
C2973 C2970 1.387 . S
C2974 C2975 1.387 . S
C2974 H2978 0.950 . S
C2974 C2983 1.390 . S
C2975 C2974 1.387 . S
C2975 C2977 1.387 . S
H2976 C2983 0.950 . S
C2977 C2975 1.387 . S
C2977 C2979 1.390 . S
C2977 H2981 0.950 . S
H2978 C2974 0.950 . S
C2979 C2977 1.390 . S
C2979 C2980 1.387 . S
C2979 H2982 0.950 . S
C2980 C2979 1.387 . S
C2980 C2983 1.387 . S
H2981 C2977 0.950 . S
H2982 C2979 0.950 . S
C2983 C2974 1.390 . S
C2983 H2976 0.950 . S
C2983 C2980 1.387 . S
C2984 C2985 1.387 . S
C2984 H2988 0.950 . S
C2984 C2993 1.390 . S
C2985 C2984 1.387 . S
C2985 C2987 1.387 . S
H2986 C2993 0.950 . S
C2987 C2985 1.387 . S
C2987 C2989 1.390 . S
C2987 H2991 0.950 . S
H2988 C2984 0.950 . S
C2989 C2987 1.390 . S
C2989 C2990 1.387 . S
C2989 H2992 0.950 . S
C2990 C2989 1.387 . S
C2990 C2993 1.387 . S
H2991 C2987 0.950 . S
H2992 C2989 0.950 . S
C2993 C2984 1.390 . S
C2993 H2986 0.950 . S
C2993 C2990 1.387 . S
C2994 C2995 1.387 . S
C2994 H2998 0.950 . S
C2994 C3003 1.390 . S
C2995 C2994 1.387 . S
C2995 C2997 1.387 . S
H2996 C3003 0.950 . S
C2997 C2995 1.387 . S
C2997 C2999 1.390 . S
C2997 H3001 0.950 . S
H2998 C2994 0.950 . S
C2999 C2997 1.390 . S
C2999 C3000 1.387 . S
C2999 H3002 0.950 . S
C3000 C2999 1.387 . S
C3000 C3003 1.387 . S
H3001 C2997 0.950 . S
H3002 C2999 0.950 . S
C3003 C2994 1.390 . S
C3003 H2996 0.950 . S
C3003 C3000 1.387 . S
C3004 C3005 1.387 . S
C3004 H3008 0.950 . S
C3004 C3013 1.390 . S
C3005 C3004 1.387 . S
C3005 C3007 1.387 . S
H3006 C3013 0.950 . S
C3007 C3005 1.387 . S
C3007 C3009 1.390 . S
C3007 H3011 0.950 . S
H3008 C3004 0.950 . S
C3009 C3007 1.390 . S
C3009 C3010 1.387 . S
C3009 H3012 0.950 . S
C3010 C3009 1.387 . S
C3010 C3013 1.387 . S
H3011 C3007 0.950 . S
H3012 C3009 0.950 . S
C3013 C3004 1.390 . S
C3013 H3006 0.950 . S
C3013 C3010 1.387 . S
C3014 C3015 1.387 . S
C3014 H3018 0.950 . S
C3014 C3023 1.390 . S
C3015 C3014 1.387 . S
C3015 C3017 1.387 . S
H3016 C3023 0.950 . S
C3017 C3015 1.387 . S
C3017 C3019 1.390 . S
C3017 H3021 0.950 . S
H3018 C3014 0.950 . S
C3019 C3017 1.390 . S
C3019 C3020 1.387 . S
C3019 H3022 0.950 . S
C3020 C3019 1.387 . S
C3020 C3023 1.387 . S
H3021 C3017 0.950 . S
H3022 C3019 0.950 . S
C3023 C3014 1.390 . S
C3023 H3016 0.950 . S
C3023 C3020 1.387 . S
C3024 C3025 1.387 . S
C3024 H3028 0.950 . S
C3024 C3033 1.390 . S
C3025 C3024 1.387 . S
C3025 C3027 1.387 . S
H3026 C3033 0.950 . S
C3027 C3025 1.387 . S
C3027 C3029 1.390 . S
C3027 H3031 0.950 . S
H3028 C3024 0.950 . S
C3029 C3027 1.390 . S
C3029 C3030 1.387 . S
C3029 H3032 0.950 . S
C3030 C3029 1.387 . S
C3030 C3033 1.387 . S
H3031 C3027 0.950 . S
H3032 C3029 0.950 . S
C3033 C3024 1.390 . S
C3033 H3026 0.950 . S
C3033 C3030 1.387 . S
C3034 C3035 1.387 . S
C3034 H3038 0.950 . S
C3034 C3043 1.390 . S
C3035 C3034 1.387 . S
C3035 C3037 1.387 . S
H3036 C3043 0.950 . S
C3037 C3035 1.387 . S
C3037 C3039 1.390 . S
C3037 H3041 0.950 . S
H3038 C3034 0.950 . S
C3039 C3037 1.390 . S
C3039 C3040 1.387 . S
C3039 H3042 0.950 . S
C3040 C3039 1.387 . S
C3040 C3043 1.387 . S
H3041 C3037 0.950 . S
H3042 C3039 0.950 . S
C3043 C3034 1.390 . S
C3043 H3036 0.950 . S
C3043 C3040 1.387 . S
C3044 C3045 1.387 . S
C3044 H3048 0.950 . S
C3044 C3053 1.390 . S
C3045 C3044 1.387 . S
C3045 C3047 1.387 . S
H3046 C3053 0.950 . S
C3047 C3045 1.387 . S
C3047 C3049 1.390 . S
C3047 H3051 0.950 . S
H3048 C3044 0.950 . S
C3049 C3047 1.390 . S
C3049 C3050 1.387 . S
C3049 H3052 0.950 . S
C3050 C3049 1.387 . S
C3050 C3053 1.387 . S
H3051 C3047 0.950 . S
H3052 C3049 0.950 . S
C3053 C3044 1.390 . S
C3053 H3046 0.950 . S
C3053 C3050 1.387 . S
C3054 C3055 1.387 . S
C3054 H3058 0.950 . S
C3054 C3063 1.390 . S
C3055 C3054 1.387 . S
C3055 C3057 1.387 . S
H3056 C3063 0.950 . S
C3057 C3055 1.387 . S
C3057 C3059 1.390 . S
C3057 H3061 0.950 . S
H3058 C3054 0.950 . S
C3059 C3057 1.390 . S
C3059 C3060 1.387 . S
C3059 H3062 0.950 . S
C3060 C3059 1.387 . S
C3060 C3063 1.387 . S
H3061 C3057 0.950 . S
H3062 C3059 0.950 . S
C3063 C3054 1.390 . S
C3063 H3056 0.950 . S
C3063 C3060 1.387 . S
C3064 C3065 1.387 . S
C3064 H3068 0.950 . S
C3064 C3073 1.390 . S
C3065 C3064 1.387 . S
C3065 C3067 1.387 . S
H3066 C3073 0.950 . S
C3067 C3065 1.387 . S
C3067 C3069 1.390 . S
C3067 H3071 0.950 . S
H3068 C3064 0.950 . S
C3069 C3067 1.390 . S
C3069 C3070 1.387 . S
C3069 H3072 0.950 . S
C3070 C3069 1.387 . S
C3070 C3073 1.387 . S
H3071 C3067 0.950 . S
H3072 C3069 0.950 . S
C3073 C3064 1.390 . S
C3073 H3066 0.950 . S
C3073 C3070 1.387 . S
C3074 C3075 1.387 . S
C3074 H3078 0.950 . S
C3074 C3083 1.390 . S
C3075 C3074 1.387 . S
C3075 C3077 1.387 . S
H3076 C3083 0.950 . S
C3077 C3075 1.387 . S
C3077 C3079 1.390 . S
C3077 H3081 0.950 . S
H3078 C3074 0.950 . S
C3079 C3077 1.390 . S
C3079 C3080 1.387 . S
C3079 H3082 0.950 . S
C3080 C3079 1.387 . S
C3080 C3083 1.387 . S
H3081 C3077 0.950 . S
H3082 C3079 0.950 . S
C3083 C3074 1.390 . S
C3083 H3076 0.950 . S
C3083 C3080 1.387 . S
C3084 C3085 1.387 . S
C3084 H3088 0.950 . S
C3084 C3093 1.390 . S
C3085 C3084 1.387 . S
C3085 C3087 1.387 . S
H3086 C3093 0.950 . S
C3087 C3085 1.387 . S
C3087 C3089 1.390 . S
C3087 H3091 0.950 . S
H3088 C3084 0.950 . S
C3089 C3087 1.390 . S
C3089 C3090 1.387 . S
C3089 H3092 0.950 . S
C3090 C3089 1.387 . S
C3090 C3093 1.387 . S
H3091 C3087 0.950 . S
H3092 C3089 0.950 . S
C3093 C3084 1.390 . S
C3093 H3086 0.950 . S
C3093 C3090 1.387 . S
C3094 C3095 1.387 . S
C3094 H3098 0.950 . S
C3094 C3103 1.390 . S
C3095 C3094 1.387 . S
C3095 C3097 1.387 . S
H3096 C3103 0.950 . S
C3097 C3095 1.387 . S
C3097 C3099 1.390 . S
C3097 H3101 0.950 . S
H3098 C3094 0.950 . S
C3099 C3097 1.390 . S
C3099 C3100 1.387 . S
C3099 H3102 0.950 . S
C3100 C3099 1.387 . S
C3100 C3103 1.387 . S
H3101 C3097 0.950 . S
H3102 C3099 0.950 . S
C3103 C3094 1.390 . S
C3103 H3096 0.950 . S
C3103 C3100 1.387 . S
C3104 C3105 1.387 . S
C3104 H3108 0.950 . S
C3104 C3113 1.390 . S
C3105 C3104 1.387 . S
C3105 C3107 1.387 . S
H3106 C3113 0.950 . S
C3107 C3105 1.387 . S
C3107 C3109 1.390 . S
C3107 H3111 0.950 . S
H3108 C3104 0.950 . S
C3109 C3107 1.390 . S
C3109 C3110 1.387 . S
C3109 H3112 0.950 . S
C3110 C3109 1.387 . S
C3110 C3113 1.387 . S
H3111 C3107 0.950 . S
H3112 C3109 0.950 . S
C3113 C3104 1.390 . S
C3113 H3106 0.950 . S
C3113 C3110 1.387 . S
C3114 C3115 1.387 . S
C3114 H3118 0.950 . S
C3114 C3123 1.390 . S
C3115 C3114 1.387 . S
C3115 C3117 1.387 . S
H3116 C3123 0.950 . S
C3117 C3115 1.387 . S
C3117 C3119 1.390 . S
C3117 H3121 0.950 . S
H3118 C3114 0.950 . S
C3119 C3117 1.390 . S
C3119 C3120 1.387 . S
C3119 H3122 0.950 . S
C3120 C3119 1.387 . S
C3120 C3123 1.387 . S
H3121 C3117 0.950 . S
H3122 C3119 0.950 . S
C3123 C3114 1.390 . S
C3123 H3116 0.950 . S
C3123 C3120 1.387 . S
C3124 C3125 1.387 . S
C3124 H3128 0.950 . S
C3124 C3133 1.390 . S
C3125 C3124 1.387 . S
C3125 C3127 1.387 . S
H3126 C3133 0.950 . S
C3127 C3125 1.387 . S
C3127 C3129 1.390 . S
C3127 H3131 0.950 . S
H3128 C3124 0.950 . S
C3129 C3127 1.390 . S
C3129 C3130 1.387 . S
C3129 H3132 0.950 . S
C3130 C3129 1.387 . S
C3130 C3133 1.387 . S
H3131 C3127 0.950 . S
H3132 C3129 0.950 . S
C3133 C3124 1.390 . S
C3133 H3126 0.950 . S
C3133 C3130 1.387 . S
C3134 C3135 1.387 . S
C3134 H3138 0.950 . S
C3134 C3143 1.390 . S
C3135 C3134 1.387 . S
C3135 C3137 1.387 . S
H3136 C3143 0.950 . S
C3137 C3135 1.387 . S
C3137 C3139 1.390 . S
C3137 H3141 0.950 . S
H3138 C3134 0.950 . S
C3139 C3137 1.390 . S
C3139 C3140 1.387 . S
C3139 H3142 0.950 . S
C3140 C3139 1.387 . S
C3140 C3143 1.387 . S
H3141 C3137 0.950 . S
H3142 C3139 0.950 . S
C3143 C3134 1.390 . S
C3143 H3136 0.950 . S
C3143 C3140 1.387 . S
C3144 C3145 1.387 . S
C3144 H3148 0.950 . S
C3144 C3153 1.390 . S
C3145 C3144 1.387 . S
C3145 C3147 1.387 . S
H3146 C3153 0.950 . S
C3147 C3145 1.387 . S
C3147 C3149 1.390 . S
C3147 H3151 0.950 . S
H3148 C3144 0.950 . S
C3149 C3147 1.390 . S
C3149 C3150 1.387 . S
C3149 H3152 0.950 . S
C3150 C3149 1.387 . S
C3150 C3153 1.387 . S
H3151 C3147 0.950 . S
H3152 C3149 0.950 . S
C3153 C3144 1.390 . S
C3153 H3146 0.950 . S
C3153 C3150 1.387 . S
C3154 C3155 1.387 . S
C3154 H3158 0.950 . S
C3154 C3163 1.390 . S
C3155 C3154 1.387 . S
C3155 C3157 1.387 . S
H3156 C3163 0.950 . S
C3157 C3155 1.387 . S
C3157 C3159 1.390 . S
C3157 H3161 0.950 . S
H3158 C3154 0.950 . S
C3159 C3157 1.390 . S
C3159 C3160 1.387 . S
C3159 H3162 0.950 . S
C3160 C3159 1.387 . S
C3160 C3163 1.387 . S
H3161 C3157 0.950 . S
H3162 C3159 0.950 . S
C3163 C3154 1.390 . S
C3163 H3156 0.950 . S
C3163 C3160 1.387 . S
C3164 C3165 1.387 . S
C3164 H3168 0.950 . S
C3164 C3173 1.390 . S
C3165 C3164 1.387 . S
C3165 C3167 1.387 . S
H3166 C3173 0.950 . S
C3167 C3165 1.387 . S
C3167 C3169 1.390 . S
C3167 H3171 0.950 . S
H3168 C3164 0.950 . S
C3169 C3167 1.390 . S
C3169 C3170 1.387 . S
C3169 H3172 0.950 . S
C3170 C3169 1.387 . S
C3170 C3173 1.387 . S
H3171 C3167 0.950 . S
H3172 C3169 0.950 . S
C3173 C3164 1.390 . S
C3173 H3166 0.950 . S
C3173 C3170 1.387 . S
C3174 C3175 1.387 . S
C3174 H3178 0.950 . S
C3174 C3183 1.390 . S
C3175 C3174 1.387 . S
C3175 C3177 1.387 . S
H3176 C3183 0.950 . S
C3177 C3175 1.387 . S
C3177 C3179 1.390 . S
C3177 H3181 0.950 . S
H3178 C3174 0.950 . S
C3179 C3177 1.390 . S
C3179 C3180 1.387 . S
C3179 H3182 0.950 . S
C3180 C3179 1.387 . S
C3180 C3183 1.387 . S
H3181 C3177 0.950 . S
H3182 C3179 0.950 . S
C3183 C3174 1.390 . S
C3183 H3176 0.950 . S
C3183 C3180 1.387 . S
C3184 C3185 1.387 . S
C3184 H3188 0.950 . S
C3184 C3193 1.390 . S
C3185 C3184 1.387 . S
C3185 C3187 1.387 . S
H3186 C3193 0.950 . S
C3187 C3185 1.387 . S
C3187 C3189 1.390 . S
C3187 H3191 0.950 . S
H3188 C3184 0.950 . S
C3189 C3187 1.390 . S
C3189 C3190 1.387 . S
C3189 H3192 0.950 . S
C3190 C3189 1.387 . S
C3190 C3193 1.387 . S
H3191 C3187 0.950 . S
H3192 C3189 0.950 . S
C3193 C3184 1.390 . S
C3193 H3186 0.950 . S
C3193 C3190 1.387 . S
C3194 C3195 1.387 . S
C3194 H3198 0.950 . S
C3194 C3203 1.390 . S
C3195 C3194 1.387 . S
C3195 C3197 1.387 . S
H3196 C3203 0.950 . S
C3197 C3195 1.387 . S
C3197 C3199 1.390 . S
C3197 H3201 0.950 . S
H3198 C3194 0.950 . S
C3199 C3197 1.390 . S
C3199 C3200 1.387 . S
C3199 H3202 0.950 . S
C3200 C3199 1.387 . S
C3200 C3203 1.387 . S
H3201 C3197 0.950 . S
H3202 C3199 0.950 . S
C3203 C3194 1.390 . S
C3203 H3196 0.950 . S
C3203 C3200 1.387 . S
C3204 C3205 1.387 . S
C3204 H3208 0.950 . S
C3204 C3213 1.390 . S
C3205 C3204 1.387 . S
C3205 C3207 1.387 . S
H3206 C3213 0.950 . S
C3207 C3205 1.387 . S
C3207 C3209 1.390 . S
C3207 H3211 0.950 . S
H3208 C3204 0.950 . S
C3209 C3207 1.390 . S
C3209 C3210 1.387 . S
C3209 H3212 0.950 . S
C3210 C3209 1.387 . S
C3210 C3213 1.387 . S
H3211 C3207 0.950 . S
H3212 C3209 0.950 . S
C3213 C3204 1.390 . S
C3213 H3206 0.950 . S
C3213 C3210 1.387 . S
C3214 C3215 1.387 . S
C3214 H3218 0.950 . S
C3214 C3223 1.390 . S
C3215 C3214 1.387 . S
C3215 C3217 1.387 . S
H3216 C3223 0.950 . S
C3217 C3215 1.387 . S
C3217 C3219 1.390 . S
C3217 H3221 0.950 . S
H3218 C3214 0.950 . S
C3219 C3217 1.390 . S
C3219 C3220 1.387 . S
C3219 H3222 0.950 . S
C3220 C3219 1.387 . S
C3220 C3223 1.387 . S
H3221 C3217 0.950 . S
H3222 C3219 0.950 . S
C3223 C3214 1.390 . S
C3223 H3216 0.950 . S
C3223 C3220 1.387 . S
C3224 C3225 1.387 . S
C3224 H3228 0.950 . S
C3224 C3233 1.390 . S
C3225 C3224 1.387 . S
C3225 C3227 1.387 . S
H3226 C3233 0.950 . S
C3227 C3225 1.387 . S
C3227 C3229 1.390 . S
C3227 H3231 0.950 . S
H3228 C3224 0.950 . S
C3229 C3227 1.390 . S
C3229 C3230 1.387 . S
C3229 H3232 0.950 . S
C3230 C3229 1.387 . S
C3230 C3233 1.387 . S
H3231 C3227 0.950 . S
H3232 C3229 0.950 . S
C3233 C3224 1.390 . S
C3233 H3226 0.950 . S
C3233 C3230 1.387 . S
C3234 C3235 1.387 . S
C3234 H3238 0.950 . S
C3234 C3243 1.390 . S
C3235 C3234 1.387 . S
C3235 C3237 1.387 . S
H3236 C3243 0.950 . S
C3237 C3235 1.387 . S
C3237 C3239 1.390 . S
C3237 H3241 0.950 . S
H3238 C3234 0.950 . S
C3239 C3237 1.390 . S
C3239 C3240 1.387 . S
C3239 H3242 0.950 . S
C3240 C3239 1.387 . S
C3240 C3243 1.387 . S
H3241 C3237 0.950 . S
H3242 C3239 0.950 . S
C3243 C3234 1.390 . S
C3243 H3236 0.950 . S
C3243 C3240 1.387 . S
C3244 C3245 1.387 . S
C3244 H3248 0.950 . S
C3244 C3253 1.390 . S
C3245 C3244 1.387 . S
C3245 C3247 1.387 . S
H3246 C3253 0.950 . S
C3247 C3245 1.387 . S
C3247 C3249 1.390 . S
C3247 H3251 0.950 . S
H3248 C3244 0.950 . S
C3249 C3247 1.390 . S
C3249 C3250 1.387 . S
C3249 H3252 0.950 . S
C3250 C3249 1.387 . S
C3250 C3253 1.387 . S
H3251 C3247 0.950 . S
H3252 C3249 0.950 . S
C3253 C3244 1.390 . S
C3253 H3246 0.950 . S
C3253 C3250 1.387 . S
C3254 C3255 1.387 . S
C3254 H3258 0.950 . S
C3254 C3263 1.390 . S
C3255 C3254 1.387 . S
C3255 C3257 1.387 . S
H3256 C3263 0.950 . S
C3257 C3255 1.387 . S
C3257 C3259 1.390 . S
C3257 H3261 0.950 . S
H3258 C3254 0.950 . S
C3259 C3257 1.390 . S
C3259 C3260 1.387 . S
C3259 H3262 0.950 . S
C3260 C3259 1.387 . S
C3260 C3263 1.387 . S
H3261 C3257 0.950 . S
H3262 C3259 0.950 . S
C3263 C3254 1.390 . S
C3263 H3256 0.950 . S
C3263 C3260 1.387 . S
C1345 C7 1.391 . S
C1350 C427 1.391 . S
C1355 C777 1.391 . S
C1360 C21 1.391 . S
C1365 C35 1.391 . S
C1370 C399 1.391 . S
C1375 C49 1.391 . S
C1380 C749 1.391 . S
C1385 C371 1.392 . S
C1390 C63 1.392 . S
C1395 C77 1.391 . S
C1400 C721 1.391 . S
C1405 C343 1.391 . S
C1410 C91 1.391 . S
C1415 C105 1.391 . S
C1420 C693 1.391 . S
C1425 C483 1.392 . S
C1430 C119 1.392 . S
C1435 C133 1.391 . S
C1440 C833 1.391 . S
C1445 C147 1.391 . S
C1450 C455 1.391 . S
C1455 C161 1.391 . S
C1460 C805 1.391 . S
C1465 C175 1.391 . S
C1470 C539 1.391 . S
C1475 C889 1.391 . S
C1480 C189 1.391 . S
C1485 C511 1.391 . S
C1490 C203 1.391 . S
C1495 C217 1.391 . S
C1500 C861 1.391 . S
C1505 C917 1.391 . S
C1510 C231 1.391 . S
C1515 C903 1.391 . S
C1520 C245 1.391 . S
C1525 C259 1.391 . S
C1530 C1001 1.391 . S
C1535 C1309 1.391 . S
C1540 C273 1.391 . S
C1545 C651 1.391 . S
C1550 C287 1.391 . S
C1555 C301 1.391 . S
C1560 C1281 1.391 . S
C1565 C315 1.391 . S
C1570 C623 1.391 . S
C1575 C329 1.391 . S
C1580 C931 1.391 . S
C1585 C357 1.391 . S
C1590 C1113 1.391 . S
C1595 C385 1.391 . S
C1600 C1085 1.391 . S
C1605 C413 1.391 . S
C1610 C1057 1.391 . S
C1615 C441 1.391 . S
C1620 C1029 1.391 . S
C1625 C1169 1.391 . S
C1630 C469 1.391 . S
C1635 C497 1.391 . S
C1640 C1141 1.391 . S
C1645 C1225 1.391 . S
C1650 C525 1.391 . S
C1655 C553 1.391 . S
C1660 C1197 1.391 . S
C1665 C567 1.391 . S
C1670 C1253 1.391 . S
C1675 C581 1.391 . S
C1680 C1239 1.391 . S
C1685 C595 1.391 . S
C1690 C1337 1.391 . S
C1695 C973 1.391 . S
C1700 C609 1.391 . S
C1705 C945 1.391 . S
C1710 C637 1.391 . S
C1715 C665 1.391 . S
C1720 C1267 1.391 . S
C1725 C679 1.391 . S
C1730 C1099 1.391 . S
C1735 C1071 1.391 . S
C1740 C707 1.391 . S
C1745 C735 1.391 . S
C1750 C1043 1.391 . S
C1755 C763 1.391 . S
C1760 C1015 1.391 . S
C1765 C1155 1.391 . S
C1770 C791 1.391 . S
C1775 C1127 1.391 . S
C1780 C819 1.391 . S
C1785 C847 1.391 . S
C1790 C1211 1.391 . S
C1795 C1183 1.391 . S
C1800 C875 1.391 . S
C1805 C959 1.391 . S
C1810 C1323 1.391 . S
C1815 C987 1.391 . S
C1820 C1295 1.391 . S
C1825 C8 1.434 . S
C1830 C778 1.434 . S
C1835 C22 1.434 . S
C1840 C400 1.435 . S
C1845 C36 1.434 . S
C1850 C750 1.434 . S
C1855 C428 1.435 . S
C1860 C50 1.434 . S
C1865 C64 1.434 . S
C1870 C358 1.435 . S
C1875 C78 1.434 . S
C1880 C708 1.435 . S
C1885 C92 1.435 . S
C1890 C386 1.434 . S
C1895 C680 1.434 . S
C1900 C106 1.435 . S
C1905 C120 1.434 . S
C1910 C288 1.434 . S
C1915 C134 1.434 . S
C1920 C1254 1.435 . S
C1925 C1268 1.434 . S
C1930 C148 1.435 . S
C1935 C162 1.434 . S
C1940 C1282 1.435 . S
C1945 C1002 1.434 . S
C1950 C176 1.435 . S
C1955 C1310 1.434 . S
C1960 C190 1.435 . S
C1965 C204 1.435 . S
C1970 C988 1.434 . S
C1975 C904 1.434 . S
C1980 C218 1.435 . S
C1985 C890 1.435 . S
C1990 C232 1.434 . S
C1995 C1142 1.435 . S
C2000 C246 1.434 . S
C2005 C260 1.434 . S
C2010 C1156 1.434 . S
C2015 C274 1.435 . S
C2020 C1170 1.434 . S
C2025 C302 1.435 . S
C2030 C1198 1.434 . S
C2035 C316 1.435 . S
C2040 C876 1.434 . S
C2045 C848 1.434 . S
C2050 C330 1.434 . S
C2055 C344 1.435 . S
C2060 C1114 1.434 . S
C2065 C1086 1.435 . S
C2070 C372 1.434 . S
C2075 C1044 1.435 . S
C2080 C414 1.434 . S
C2085 C442 1.434 . S
C2090 C1016 1.434 . S
C2095 C456 1.435 . S
C2100 C624 1.435 . S
C2105 C470 1.434 . S
C2110 C918 1.435 . S
C2115 C484 1.435 . S
C2120 C932 1.434 . S
C2125 C498 1.435 . S
C2130 C946 1.434 . S
C2135 C512 1.434 . S
C2140 C1338 1.434 . S
C2145 C974 1.434 . S
C2150 C526 1.435 . S
C2155 C1324 1.434 . S
C2160 C540 1.434 . S
C2165 C1240 1.435 . S
C2170 C554 1.434 . S
C2175 C1226 1.434 . S
C2180 C568 1.435 . S
C2185 C582 1.434 . S
C2190 C806 1.435 . S
C2195 C596 1.434 . S
C2200 C820 1.434 . S
C2205 C610 1.434 . S
C2210 C834 1.434 . S
C2215 C862 1.434 . S
C2220 C638 1.435 . S
C2225 C1212 1.435 . S
C2230 C652 1.434 . S
C2235 C1184 1.435 . S
C2240 C666 1.435 . S
C2245 C694 1.434 . S
C2250 C1072 1.435 . S
C2255 C722 1.434 . S
C2260 C1100 1.434 . S
C2265 C1030 1.434 . S
C2270 C736 1.435 . S
C2275 C1058 1.434 . S
C2280 C764 1.434 . S
C2285 C960 1.435 . S
C2290 C792 1.434 . S
C2295 C1296 1.434 . S
C2300 C1128 1.434 . S
C2305 C9 1.217 . S
C2310 C1305 1.364 . S
C2315 C23 1.211 . S
C2320 C983 1.362 . S
C2325 C899 1.364 . S
C2330 C37 1.217 . S
C2335 C997 1.363 . S
C2340 C51 1.216 . S
C2345 C65 1.211 . S
C2350 C269 1.362 . S
C2355 C79 1.217 . S
C2360 C1291 1.364 . S
C2365 C241 1.362 . S
C2370 C93 1.211 . S
C2375 C255 1.363 . S
C2380 C107 1.217 . S
C2385 C395 1.363 . S
C2390 C121 1.216 . S
C2395 C135 1.217 . S
C2400 C745 1.364 . S
C2405 C149 1.217 . S
C2410 C423 1.363 . S
C2415 C163 1.217 . S
C2420 C773 1.364 . S
C2425 C339 1.362 . S
C2430 C177 1.212 . S
C2435 C191 1.211 . S
C2440 C689 1.363 . S
C2445 C367 1.363 . S
C2450 C205 1.216 . S
C2455 C219 1.216 . S
C2460 C717 1.364 . S
C2465 C233 1.211 . S
C2470 C1207 1.362 . S
C2475 C479 1.362 . S
C2480 C247 1.211 . S
C2485 C261 1.217 . S
C2490 C829 1.364 . S
C2495 C451 1.362 . S
C2500 C275 1.211 . S
C2505 C289 1.216 . S
C2510 C465 1.364 . S
C2515 C843 1.363 . S
C2520 C303 1.217 . S
C2525 C185 1.364 . S
C2530 C317 1.217 . S
C2535 C213 1.363 . S
C2540 C331 1.212 . S
C2545 C969 1.362 . S
C2550 C345 1.211 . S
C2555 C359 1.217 . S
C2560 C1319 1.364 . S
C2565 C1235 1.362 . S
C2570 C373 1.214 . S
C2575 C387 1.211 . S
C2580 C1333 1.362 . S
C2585 C605 1.364 . S
C2590 C401 1.216 . S
C2595 C955 1.364 . S
C2600 C415 1.217 . S
C2605 C429 1.216 . S
C2610 C577 1.364 . S
C2615 C443 1.211 . S
C2620 C591 1.362 . S
C2625 C457 1.211 . S
C2630 C59 1.362 . S
C2635 C471 1.211 . S
C2640 C1081 1.362 . S
C2645 C87 1.362 . S
C2650 C485 1.212 . S
C2655 C499 1.211 . S
C2660 C1109 1.362 . S
C2665 C3 1.363 . S
C2670 C513 1.215 . S
C2675 C527 1.216 . S
C2680 C1025 1.364 . S
C2685 C31 1.363 . S
C2690 C541 1.211 . S
C2695 C1053 1.364 . S
C2700 C555 1.217 . S
C2705 C569 1.212 . S
C2710 C871 1.362 . S
C2715 C583 1.217 . S
C2720 C143 1.364 . S
C2725 C1165 1.362 . S
C2730 C597 1.213 . S
C2735 C611 1.211 . S
C2740 C115 1.362 . S
C2745 C129 1.364 . S
C2750 C625 1.213 . S
C2755 C639 1.217 . S
C2760 C1179 1.363 . S
C2765 C521 1.364 . S
C2770 C653 1.216 . S
C2775 C667 1.213 . S
C2780 C549 1.364 . S
C2785 C633 1.362 . S
C2790 C681 1.211 . S
C2795 C695 1.211 . S
C2800 C311 1.362 . S
C2805 C709 1.215 . S
C2810 C227 1.364 . S
C2815 C723 1.217 . S
C2820 C325 1.363 . S
C2825 C737 1.211 . S
C2830 C941 1.362 . S
C2835 C619 1.362 . S
C2840 C751 1.211 . S
C2845 C913 1.364 . S
C2850 C765 1.216 . S
C2855 C779 1.211 . S
C2860 C927 1.363 . S
C2865 C1067 1.364 . S
C2870 C793 1.217 . S
C2875 C73 1.364 . S
C2880 C807 1.217 . S
C2885 C1095 1.363 . S
C2890 C821 1.217 . S
C2895 C835 1.211 . S
C2900 C101 1.362 . S
C2905 C1011 1.363 . S
C2910 C849 1.217 . S
C2915 C863 1.211 . S
C2920 C17 1.362 . S
C2925 C1039 1.364 . S
C2930 C877 1.215 . S
C2935 C45 1.364 . S
C2940 C891 1.217 . S
C2945 C535 1.362 . S
C2950 C905 1.211 . S
C2955 C919 1.212 . S
C2960 C1151 1.362 . S
C2965 C933 1.216 . S
C2970 C157 1.364 . S
C2975 C1123 1.362 . S
C2980 C947 1.211 . S
C2985 C961 1.215 . S
C2990 C1137 1.362 . S
C2995 C171 1.364 . S
C3000 C975 1.217 . S
C3005 C857 1.364 . S
C3010 C989 1.217 . S
C3015 C1003 1.211 . S
C3020 C885 1.362 . S
C3025 C1017 1.211 . S
C3030 C297 1.362 . S
C3035 C647 1.363 . S
C3040 C1031 1.217 . S
C3045 C563 1.362 . S
C3050 C1045 1.211 . S
C3055 C1059 1.211 . S
C3060 C661 1.362 . S
C3065 C1073 1.211 . S
C3070 C1277 1.362 . S
C3075 C283 1.364 . S
C3080 C1087 1.217 . S
C3085 C1249 1.362 . S
C3090 C1101 1.215 . S
C3095 C1263 1.362 . S
C3100 C1115 1.211 . S
C3105 C731 1.362 . S
C3110 C1129 1.213 . S
C3115 C1143 1.211 . S
C3120 C409 1.362 . S
C3125 C1157 1.216 . S
C3130 C759 1.364 . S
C3135 C1171 1.217 . S
C3140 C437 1.363 . S
C3145 C675 1.364 . S
C3150 C1185 1.216 . S
C3155 C1199 1.217 . S
C3160 C353 1.364 . S
C3165 C1213 1.217 . S
C3170 C703 1.363 . S
C3175 C1227 1.216 . S
C3180 C381 1.363 . S
C3185 C199 1.362 . S
C3190 C1241 1.211 . S
C3195 C1255 1.211 . S
C3200 C815 1.362 . S
C3205 C1269 1.215 . S
C3210 C493 1.364 . S
C3215 C1283 1.217 . S
C3220 C787 1.364 . S
C3225 C1297 1.211 . S
C3230 C801 1.363 . S
C3235 C507 1.362 . S
C3240 C1311 1.211 . S
C3245 C1193 1.364 . S
C3250 C1325 1.214 . S
C3255 C1221 1.364 . S
C3260 C1339 1.215 . S
