# Generated by pormake.
# Topology smc, (6)-cn, num edge types: 1
# Building blocks:
#     Node 0, Type 0, BuildingBlock: PAMTUU_clean_sbu_0, # of connection points: 6
#     Node 1, Type 0, BuildingBlock: PAMTUU_clean_sbu_0, # of connection points: 6
#     Node 2, Type 0, BuildingBlock: PAMTUU_clean_sbu_0, # of connection points: 6
#     Node 3, Type 0, BuildingBlock: PAMTUU_clean_sbu_0, # of connection points: 6
#     Node 4, Type 0, BuildingBlock: PAMTUU_clean_sbu_0, # of connection points: 6
#     Node 5, Type 0, BuildingBlock: PAMTUU_clean_sbu_0, # of connection points: 6
#     Node 6, Type 0, BuildingBlock: PAMTUU_clean_sbu_0, # of connection points: 6
#     Node 7, Type 0, BuildingBlock: PAMTUU_clean_sbu_0, # of connection points: 6
#     Node 8, Type 0, BuildingBlock: PAMTUU_clean_sbu_0, # of connection points: 6
#     Edge 9, Type (0, 0), BuildingBlock: ZUJKAS_clean_linker_0, # of connection points: 2
#     Edge 10, Type (0, 0), BuildingBlock: ZUJKAS_clean_linker_0, # of connection points: 2
#     Edge 11, Type (0, 0), BuildingBlock: ZUJKAS_clean_linker_0, # of connection points: 2
#     Edge 12, Type (0, 0), BuildingBlock: ZUJKAS_clean_linker_0, # of connection points: 2
#     Edge 13, Type (0, 0), BuildingBlock: ZUJKAS_clean_linker_0, # of connection points: 2
#     Edge 14, Type (0, 0), BuildingBlock: ZUJKAS_clean_linker_0, # of connection points: 2
#     Edge 15, Type (0, 0), BuildingBlock: ZUJKAS_clean_linker_0, # of connection points: 2
#     Edge 16, Type (0, 0), BuildingBlock: ZUJKAS_clean_linker_0, # of connection points: 2
#     Edge 17, Type (0, 0), BuildingBlock: ZUJKAS_clean_linker_0, # of connection points: 2
#     Edge 18, Type (0, 0), BuildingBlock: ZUJKAS_clean_linker_0, # of connection points: 2
#     Edge 19, Type (0, 0), BuildingBlock: ZUJKAS_clean_linker_0, # of connection points: 2
#     Edge 20, Type (0, 0), BuildingBlock: ZUJKAS_clean_linker_0, # of connection points: 2
#     Edge 21, Type (0, 0), BuildingBlock: ZUJKAS_clean_linker_0, # of connection points: 2
#     Edge 22, Type (0, 0), BuildingBlock: ZUJKAS_clean_linker_0, # of connection points: 2
#     Edge 23, Type (0, 0), BuildingBlock: ZUJKAS_clean_linker_0, # of connection points: 2
#     Edge 24, Type (0, 0), BuildingBlock: ZUJKAS_clean_linker_0, # of connection points: 2
#     Edge 25, Type (0, 0), BuildingBlock: ZUJKAS_clean_linker_0, # of connection points: 2
#     Edge 26, Type (0, 0), BuildingBlock: ZUJKAS_clean_linker_0, # of connection points: 2
#     Edge 27, Type (0, 0), BuildingBlock: ZUJKAS_clean_linker_0, # of connection points: 2
#     Edge 28, Type (0, 0), BuildingBlock: ZUJKAS_clean_linker_0, # of connection points: 2
#     Edge 29, Type (0, 0), BuildingBlock: ZUJKAS_clean_linker_0, # of connection points: 2
#     Edge 30, Type (0, 0), BuildingBlock: ZUJKAS_clean_linker_0, # of connection points: 2
#     Edge 31, Type (0, 0), BuildingBlock: ZUJKAS_clean_linker_0, # of connection points: 2
#     Edge 32, Type (0, 0), BuildingBlock: ZUJKAS_clean_linker_0, # of connection points: 2
#     Edge 33, Type (0, 0), BuildingBlock: ZUJKAS_clean_linker_0, # of connection points: 2
#     Edge 34, Type (0, 0), BuildingBlock: ZUJKAS_clean_linker_0, # of connection points: 2
#     Edge 35, Type (0, 0), BuildingBlock: ZUJKAS_clean_linker_0, # of connection points: 2
# Relax obj value: 0.234
# Max RMSD: 0.320
# Mean RMSD: 0.291
data_MOF--net-smc--node1-PAMTUU_clean_sbu_0--edge1-ZUJKAS_clean_linker_0
_symmetry_space_group_name_H-M    P1
_symmetry_Int_Tables_number       1
_symmetry_cell_setting            triclinic
loop_
_symmetry_equiv_pos_as_xyz
'x, y, z'
_cell_length_a     52.007105
_cell_length_b     41.504294
_cell_length_c     52.587617
_cell_angle_alpha  91.205073
_cell_angle_beta   89.905583
_cell_angle_gamma 119.65707
loop_
_atom_site_label
_atom_site_type_symbol
_atom_site_fract_x
_atom_site_fract_y
_atom_site_fract_z
_atom_type_partial_charge
Tb0 Tb 0.06647 0.4139 1.00075 0.0
Tb1 Tb 0.04532 0.47265 0.01496 0.0
C2 C 1.02877 0.42948 0.96117 0.0
C3 C 0.10919 0.36969 1.01088 0.0
C4 C 0.15045 0.3689 0.045 0.0
C5 C 0.13567 0.33979 0.02696 0.0
C6 C 0.1149 0.34004 1.01009 0.0
C7 C 0.12385 0.39853 0.0289 0.0
C8 C 0.14414 0.39811 0.0458 0.0
C9 C 0.08657 0.3703 0.99467 0.0
O10 O 0.10672 0.46915 1.00438 0.0
O11 O 0.08474 0.50196 0.99262 0.0
O12 O 0.07584 0.47742 0.04599 0.0
O13 O 0.06766 0.41841 0.04209 0.0
O14 O 0.03863 0.51627 1.00397 0.0
O15 O 1.03158 0.49782 0.04267 0.0
O16 O 1.01132 0.42049 0.02949 0.0
O17 O 1.01806 0.38138 1.00254 0.0
O18 O 0.05116 0.42343 0.96442 0.0
O19 O 1.02006 0.44345 0.98 0.0
C20 C 0.10875 0.50013 0.99631 0.0
O21 O 0.062 0.36149 1.00644 0.0
O22 O 0.09548 0.40032 0.98156 0.0
C23 C 0.07722 0.44916 0.05558 0.0
C24 C 1.00147 0.5201 0.02674 0.0
C25 C 0.94858 0.52276 0.02788 0.0
C26 C 0.97573 0.55451 0.03407 0.0
C27 C 1.00196 0.55316 0.03348 0.0
C28 C 0.97453 0.48823 0.02057 0.0
C29 C 0.94819 0.48953 0.02119 0.0
C30 C 1.02926 0.5194 0.02635 0.0
C31 C 1.0014 0.38796 0.01828 0.0
H32 H 0.14032 0.31709 0.02583 0.0
H33 H 0.10343 0.31731 0.99649 0.0
H34 H 0.11964 0.42158 0.0299 0.0
H35 H 0.15565 0.42146 0.05894 0.0
H36 H 0.97667 0.58032 0.03973 0.0
H37 H 1.02264 0.5779 0.03839 0.0
H38 H 0.97392 0.46247 0.0153 0.0
H39 H 0.92761 0.46473 0.01619 0.0
Tb40 Tb 0.61095 0.62225 0.0199 0.0
Tb41 Tb 0.54867 0.5867 0.99445 0.0
C42 C 0.56084 0.59566 0.05392 0.0
C43 C 0.67934 0.63811 0.0518 0.0
C44 C 0.71935 0.61219 0.05972 0.0
C45 C 0.72831 0.64999 0.06359 0.0
C46 C 0.70844 0.66286 0.05952 0.0
C47 C 0.66977 0.60012 0.0495 0.0
C48 C 0.68961 0.58723 0.05339 0.0
C49 C 0.66027 0.65237 0.04305 0.0
O50 O 0.60013 0.56178 0.01558 0.0
O51 O 0.55318 0.53656 0.99928 0.0
O52 O 0.57823 0.59999 0.96044 0.0
O53 O 0.62327 0.62325 0.98053 0.0
O54 O 0.50617 0.5409 0.99669 0.0
O55 O 0.51565 0.58403 0.96992 0.0
O56 O 0.55596 0.64326 0.9963 0.0
O57 O 0.59864 0.66894 0.01999 0.0
O58 O 0.57997 0.58609 0.04708 0.0
O59 O 0.54847 0.604 0.03526 0.0
C60 C 0.57494 0.53176 1.00778 0.0
O61 O 0.65725 0.65169 0.01848 0.0
O62 O 0.63498 0.64007 0.05439 0.0
C63 C 0.60742 0.61402 0.9596 0.0
C64 C 0.47039 0.55798 0.99177 0.0
C65 C 0.42261 0.55124 0.0206 0.0
C66 C 0.41761 0.52957 0.99826 0.0
C67 C 0.44141 0.53276 0.98403 0.0
C68 C 0.47536 0.58174 0.01287 0.0
C69 C 0.45162 0.57823 0.02731 0.0
C70 C 0.49507 0.55487 0.98108 0.0
C71 C 0.57645 0.67196 1.00915 0.0
H72 H 0.75095 0.6698 0.06888 0.0
H73 H 0.71613 0.69231 0.06136 0.0
H74 H 0.64736 0.58064 0.04348 0.0
H75 H 0.68202 0.55805 0.04997 0.0
H76 H 0.39543 0.50831 0.99283 0.0
H77 H 0.43726 0.51399 0.96796 0.0
H78 H 0.49768 0.60134 0.01912 0.0
H79 H 0.45597 0.59535 0.04435 0.0
Tb80 Tb 0.47152 0.0349 0.01729 0.0
Tb81 Tb 0.53864 0.07902 0.03305 0.0
C82 C 0.51625 0.07021 0.97572 0.0
C83 C 0.39721 0.95161 1.00297 0.0
C84 C 0.35546 0.87438 0.99736 0.0
C85 C 0.35102 0.90129 0.9852 0.0
C86 C 0.37154 0.93933 0.98808 0.0
C87 C 0.40236 0.92487 0.01433 0.0
C88 C 0.38177 0.88689 0.01165 0.0
C89 C 0.41673 0.99198 1.00866 0.0
O90 O 0.48452 0.99065 0.0253 0.0
O91 O 0.53421 1.0255 0.02058 0.0
O92 O 0.51114 0.04965 0.067 0.0
O93 O 0.47396 0.05826 0.05477 0.0
O94 O 0.58089 0.08624 0.02784 0.0
O95 O 0.57294 0.11632 0.05807 0.0
O96 O 0.52958 0.12565 0.03256 0.0
O97 O 0.48384 0.09648 0.01278 0.0
O98 O 0.49512 0.03821 0.98297 0.0
O99 O 0.53462 0.0938 0.99314 0.0
C100 C 0.51082 0.99247 0.02249 0.0
O101 O 0.42905 1.00023 0.03116 0.0
O102 O 0.43527 1.01252 0.99128 0.0
C103 C 0.48671 0.05043 0.07288 0.0
C104 C 0.62256 0.14234 0.04215 0.0
C105 C 0.68412 0.19023 0.03648 0.0
C106 C 0.67092 0.18477 0.06057 0.0
C107 C 0.64051 0.16097 0.06336 0.0
C108 C 0.63528 0.14976 0.01784 0.0
C109 C 0.66574 0.17343 0.01504 0.0
C110 C 0.59258 0.11072 0.04632 0.0
C111 C 0.50763 0.12803 0.02175 0.0
H112 H 0.33151 0.89306 0.97355 0.0
H113 H 0.36696 0.95925 0.97912 0.0
H114 H 0.42189 0.93337 0.02603 0.0
H115 H 0.3861 0.86748 0.0216 0.0
H116 H 0.68426 0.19789 0.07744 0.0
H117 H 0.63129 0.15559 0.08231 0.0
H118 H 0.62204 0.13569 1.00109 0.0
H119 H 0.67505 0.17679 0.99621 0.0
Tb120 Tb 0.72831 0.76808 0.34306 0.0
Tb121 Tb 0.67414 0.7943 0.35935 0.0
C122 C 0.6804 0.76521 0.30219 0.0
C123 C 0.8092 0.77782 0.33592 0.0
C124 C 0.87335 0.80041 0.33682 0.0
C125 C 0.8508 0.7658 0.34607 0.0
C126 C 0.81991 0.75489 0.34554 0.0
C127 C 0.8316 0.81251 0.32691 0.0
C128 C 0.86248 0.82346 0.32744 0.0
C129 C 0.77536 0.76355 0.33182 0.0
O130 O 0.74643 0.82643 0.35356 0.0
O131 O 0.71086 0.84044 0.34101 0.0
O132 O 0.70112 0.79983 0.39445 0.0
O133 O 0.72317 0.76391 0.38402 0.0
O134 O 0.62852 0.77794 0.3599 0.0
O135 O 0.66064 0.83173 0.37484 0.0
O136 O 0.66285 0.73979 0.372 0.0
O137 O 0.6819 0.71834 0.3409 0.0
O138 O 0.70583 0.76614 0.30714 0.0
O139 O 0.66546 0.77307 0.31948 0.0
C140 C 0.73866 0.85008 0.34525 0.0
O141 O 0.75514 0.74218 0.34804 0.0
O142 O 0.76705 0.78504 0.32102 0.0
C143 C 0.7161 0.78241 0.40073 0.0
C144 C 0.61068 0.82257 0.36511 0.0
C145 C 0.56412 0.84182 0.35884 0.0
C146 C 0.5801 0.84863 0.38195 0.0
C147 C 0.60278 0.83939 0.38494 0.0
C148 C 0.59504 0.81592 0.34184 0.0
C149 C 0.57251 0.82569 0.3387 0.0
C150 C 0.63248 0.80876 0.37059 0.0
C151 C 0.65933 0.71353 0.35582 0.0
H152 H 0.85682 0.74652 0.35386 0.0
H153 H 0.80416 0.7277 0.3523 0.0
H154 H 0.82524 0.83131 0.31874 0.0
H155 H 0.87776 0.85007 0.31966 0.0
H156 H 0.57513 0.86132 0.398 0.0
H157 H 0.6138 0.84468 0.40326 0.0
H158 H 0.59986 0.80254 0.32611 0.0
H159 H 0.561 0.81948 0.32058 0.0
Tb160 Tb 0.27051 0.95505 0.33146 0.0
Tb161 Tb 0.24415 0.86941 0.33518 0.0
C162 C 0.27786 0.91524 0.28493 0.0
C163 C 0.28506 0.04982 0.34365 0.0
C164 C 0.26432 0.09534 0.36487 0.0
C165 C 0.28449 0.10781 0.34463 0.0
C166 C 0.29477 0.08517 0.33411 0.0
C167 C 0.26559 0.03762 0.36426 0.0
C168 C 0.25541 0.06026 0.37487 0.0
C169 C 0.2933 1.02461 0.33088 0.0
O170 O 0.22137 0.93563 0.33116 0.0
O171 O 0.20322 0.87363 0.33617 0.0
O172 O 0.24606 0.88457 0.37606 0.0
O173 O 0.25952 0.94587 0.37134 0.0
O174 O 0.2138 0.8221 0.31459 0.0
O175 O 0.23834 0.81791 0.34639 0.0
O176 O 0.28824 0.8861 0.34897 0.0
O177 O 0.30971 0.94458 0.33307 0.0
O178 O 0.2701 0.93949 0.29187 0.0
O179 O 0.27232 0.88793 0.30034 0.0
C180 C 0.19829 0.9017 0.33375 0.0
O181 O 0.30241 1.00744 0.34568 0.0
O182 O 0.27423 1.00215 0.31398 0.0
C183 C 0.25267 0.91749 0.38582 0.0
C184 C 0.23339 0.78316 0.30864 0.0
C185 C 0.25384 0.75367 0.27014 0.0
C186 C 0.27411 0.78285 0.28598 0.0
C187 C 0.26395 0.79785 0.30492 0.0
C188 C 0.21322 0.75419 0.2928 0.0
C189 C 0.22332 0.73961 0.2737 0.0
C190 C 0.22236 0.80145 0.3261 0.0
C191 C 0.31213 0.91659 0.34275 0.0
H192 H 0.29141 0.13444 0.33622 0.0
H193 H 0.30958 0.09478 0.31804 0.0
H194 H 0.25768 1.01023 0.37173 0.0
H195 H 0.24017 0.05004 0.39061 0.0
H196 H 0.29768 0.7937 0.28386 0.0
H197 H 0.27996 0.82104 0.31649 0.0
H198 H 0.18962 0.74311 0.29502 0.0
H199 H 0.20714 0.71632 0.2623 0.0
Tb200 Tb 0.11459 0.37071 0.35087 0.0
Tb201 Tb 0.18495 0.43287 0.36861 0.0
C202 C 0.16395 0.41037 0.31034 0.0
C203 C 0.03602 0.28998 0.34317 0.0
C204 C 0.98267 0.2229 0.34984 0.0
C205 C 0.98234 0.2545 0.34112 0.0
C206 C 1.00876 0.28763 0.33776 0.0
C207 C 0.03645 0.25912 0.35318 0.0
C208 C 1.00998 0.22587 0.35648 0.0
C209 C 0.06336 0.3233 0.33548 0.0
O210 O 0.13292 0.34322 0.37297 0.0
O211 O 0.18004 0.37914 0.35898 0.0
O212 O 0.15773 0.41543 0.40464 0.0
O213 O 0.10951 0.38698 0.38884 0.0
O214 O 0.22414 0.48488 0.36544 0.0
O215 O 0.22326 0.44346 0.38971 0.0
O216 O 0.15918 0.46104 0.36781 0.0
O217 O 0.1248 0.4246 0.33756 0.0
O218 O 0.1431 0.37836 0.31856 0.0
O219 O 0.1821 0.43657 0.32664 0.0
C220 C 0.15956 0.34836 0.36892 0.0
O221 O 0.06956 0.35484 0.34645 0.0
O222 O 0.08687 0.3201 0.33218 0.0
C223 C 0.12842 0.40034 0.40794 0.0
C224 C 0.27183 0.48852 0.37354 0.0
C225 C 0.33507 0.51957 0.36635 0.0
C226 C 0.31928 0.49166 0.38425 0.0
C227 C 0.28846 0.47661 0.38779 0.0
C228 C 0.2874 0.51596 0.35537 0.0
C229 C 0.31825 0.53098 0.35176 0.0
C230 C 0.2398 0.4762 0.38023 0.0
C231 C 0.14208 0.45729 0.34822 0.0
H232 H 0.96167 0.25337 0.33628 0.0
H233 H 1.00793 0.31111 0.33002 0.0
H234 H 0.05721 0.26019 0.35752 0.0
H235 H 1.01106 0.20202 0.36308 0.0
H236 H 0.33073 0.4813 0.39574 0.0
H237 H 0.27772 0.45607 0.40227 0.0
H238 H 0.2759 0.52671 0.34429 0.0
H239 H 0.32906 0.55259 0.338 0.0
Tb240 Tb 0.39336 0.06775 0.67899 0.0
Tb241 Tb 0.36777 0.1219 0.69096 0.0
C242 C 0.35905 0.08249 0.63726 0.0
C243 C 0.45446 0.05608 0.66823 0.0
C244 C 0.50915 0.12121 0.66216 0.0
C245 C 0.49479 0.0974 0.64117 0.0
C246 C 0.46771 0.06499 0.6442 0.0
C247 C 0.47097 0.07708 0.68963 0.0
C248 C 0.49793 0.10948 0.68659 0.0
C249 C 0.42182 0.03495 0.66972 0.0
O250 O 0.43206 0.12436 0.68317 0.0
O251 O 0.40868 0.15552 0.67102 0.0
O252 O 0.39783 0.12766 0.72287 0.0
O253 O 0.38835 0.06836 0.71989 0.0
O254 O 0.35686 0.16161 0.67903 0.0
O255 O 0.35271 0.14599 0.71839 0.0
O256 O 0.33403 0.06834 0.70401 0.0
O257 O 0.34497 1.03032 0.67949 0.0
O258 O 0.38421 0.08402 0.6426 0.0
O259 O 0.34557 0.09111 0.65524 0.0
C260 C 0.43321 0.15493 0.67516 0.0
O261 O 0.41061 0.03451 0.69197 0.0
O262 O 0.40822 0.04256 0.65208 0.0
C263 C 0.39834 0.09927 0.73318 0.0
C264 C 0.32019 0.16538 0.7033 0.0
C265 C 0.26738 0.16825 0.70663 0.0
C266 C 0.2928 0.19402 0.72024 0.0
C267 C 0.31894 0.19258 0.71856 0.0
C268 C 0.29483 0.13912 0.68992 0.0
C269 C 0.26858 0.14067 0.69148 0.0
C270 C 0.34834 0.1655 0.70165 0.0
C271 C 0.32615 0.03589 0.69328 0.0
H272 H 0.50353 0.10495 0.62218 0.0
H273 H 0.45569 0.04916 0.6274 0.0
H274 H 0.46169 0.07094 0.70853 0.0
H275 H 0.50854 0.12686 0.70324 0.0
H276 H 0.2927 0.21591 0.73174 0.0
H277 H 0.33835 0.21302 0.72899 0.0
H278 H 0.29542 0.11773 0.67818 0.0
H279 H 0.24925 0.12033 0.68092 0.0
Tb280 Tb 0.93253 0.28634 0.68935 0.0
Tb281 Tb 0.87174 0.25465 0.66225 0.0
C282 C 0.88156 0.2641 0.72192 0.0
C283 C 1.00354 0.30094 0.71303 0.0
C284 C 0.04567 0.27715 0.7129 0.0
C285 C 0.04945 0.30684 0.72891 0.0
C286 C 1.02849 0.31866 0.72895 0.0
C287 C 0.99959 0.27122 0.69717 0.0
C288 C 1.02043 0.25939 0.69712 0.0
C289 C 0.98162 0.31335 0.7126 0.0
O290 O 0.92043 0.22579 0.6827 0.0
O291 O 0.87276 0.20223 0.66837 0.0
O292 O 0.90338 0.27011 0.62968 0.0
O293 O 0.94625 0.28464 0.65086 0.0
O294 O 0.82575 0.2226 0.66677 0.0
O295 O 0.84442 0.24702 0.63072 0.0
O296 O 0.88324 0.31273 0.66155 0.0
O297 O 0.921 0.33403 0.69049 0.0
O298 O 0.89963 0.25246 0.71603 0.0
O299 O 0.87073 0.27343 0.70258 0.0
C300 C 0.89439 0.19635 0.67585 0.0
O301 O 0.97804 0.32463 0.69068 0.0
O302 O 0.95633 0.29111 0.72286 0.0
C303 C 0.93196 0.28041 0.62956 0.0
C304 C 0.80382 0.25177 0.64466 0.0
C305 C 0.77346 0.29204 0.64388 0.0
C306 C 0.77106 0.26858 0.62324 0.0
C307 C 0.78612 0.24853 0.62366 0.0
C308 C 0.80716 0.27634 0.66486 0.0
C309 C 0.79191 0.2961 0.66456 0.0
C310 C 0.82074 0.23206 0.64458 0.0
C311 C 0.90161 0.33962 0.67685 0.0
H312 H 0.06882 0.32129 0.7411 0.0
H313 H 1.03184 0.34171 0.74126 0.0
H314 H 0.9804 0.25721 0.68475 0.0
H315 H 1.01662 0.2361 0.68487 0.0
H316 H 0.75655 0.26454 0.60727 0.0
H317 H 0.78378 0.23029 0.6077 0.0
H318 H 0.82142 0.28012 0.68097 0.0
H319 H 0.79406 0.314 0.68067 0.0
Tb320 Tb 0.79034 0.69622 0.68138 0.0
Tb321 Tb 0.85806 0.74581 0.69788 0.0
C322 C 0.83373 0.73816 0.63979 0.0
C323 C 0.71396 0.6139 0.67308 0.0
C324 C 0.6726 0.536 0.67407 0.0
C325 C 0.674 0.5575 0.65311 0.0
C326 C 0.69428 0.59574 0.65267 0.0
C327 C 0.71293 0.59266 0.69401 0.0
C328 C 0.69254 0.55432 0.6945 0.0
C329 C 0.7354 0.65462 0.67186 0.0
O330 O 0.80575 0.65372 0.67926 0.0
O331 O 0.85089 0.68818 0.69846 0.0
O332 O 0.83119 0.73672 0.73337 0.0
O333 O 0.79301 0.68166 0.72014 0.0
O334 O 0.89953 0.75277 0.68872 0.0
O335 O 0.89491 0.78259 0.72116 0.0
O336 O 0.85045 0.79238 0.69435 0.0
O337 O 0.80102 0.75853 0.68291 0.0
O338 O 0.81236 0.70562 0.64562 0.0
O339 O 0.85277 0.75978 0.65771 0.0
C340 C 0.83058 0.65615 0.6884 0.0
O341 O 0.74597 0.67318 0.6932 0.0
O342 O 0.75602 0.66479 0.65486 0.0
C343 C 0.80599 0.70624 0.73837 0.0
C344 C 0.94436 0.80521 0.70399 0.0
C345 C 1.00707 0.84682 0.69952 0.0
C346 C 0.99338 0.84242 0.72333 0.0
C347 C 0.96249 0.82183 0.72552 0.0
C348 C 0.95783 0.81133 0.67999 0.0
C349 C 0.98876 0.83194 0.67778 0.0
C350 C 0.913 0.77604 0.7076 0.0
C351 C 0.82577 0.79187 0.68805 0.0
H352 H 0.65966 0.54473 0.63672 0.0
H353 H 0.69466 0.61121 0.6362 0.0
H354 H 0.72786 0.60565 0.71004 0.0
H355 H 0.69215 0.53919 0.71115 0.0
H356 H 1.00659 0.85405 0.74047 0.0
H357 H 0.95285 0.81728 0.74429 0.0
H358 H 0.94462 0.79861 0.66299 0.0
H359 H 0.99832 0.83445 0.65912 0.0
H360 H 0.36806 0.54165 1.00968 0.0
H361 H 0.32456 0.51341 0.03679 0.0
H362 H 0.3778 0.50991 0.09836 0.0
H363 H 0.42151 0.5382 0.07118 0.0
H364 H 0.3308 0.44117 0.08474 0.0
H365 H 0.29084 0.54073 0.09854 0.0
H366 H 0.30133 0.5406 0.06606 0.0
H367 H 0.32892 0.55518 0.09094 0.0
C368 C 0.37061 0.53588 0.02923 0.0
C369 C 0.39801 0.54199 0.03835 0.0
C370 C 0.34586 0.52007 0.0448 0.0
C371 C 0.34807 0.50999 0.0697 0.0
C372 C 0.37575 0.51794 0.07933 0.0
H373 H 0.16211 0.38956 0.09529 0.0
H374 H 0.21097 0.41692 0.11562 0.0
C375 C 0.40065 0.53416 0.06381 0.0
C376 C 0.32062 0.4856 0.08342 0.0
H377 H 0.25222 0.47532 0.0919 0.0
C378 C 0.31381 0.44884 0.0873 0.0
C379 C 0.29874 0.49574 0.08759 0.0
C380 C 0.30549 0.53538 0.08584 0.0
C381 C 0.28458 0.421 0.09147 0.0
C382 C 0.26188 0.43031 0.09137 0.0
C383 C 0.26949 0.46788 0.09145 0.0
C384 C 0.23099 0.40266 0.08448 0.0
C385 C 0.27799 0.38152 0.09384 0.0
C386 C 0.22559 0.38358 0.06095 0.0
C387 C 0.19787 0.36834 0.04923 0.0
C388 C 0.1752 0.37219 0.06081 0.0
C389 C 0.1795 0.38695 0.08578 0.0
C390 C 0.2073 0.40235 0.09748 0.0
H391 H 0.29593 0.38057 0.10466 0.0
H392 H 0.25659 0.36418 0.10347 0.0
H393 H 0.27704 0.36946 0.07459 0.0
H394 H 0.24359 0.38405 0.05026 0.0
H395 H 0.1953 0.35731 0.02997 0.0
H396 H 0.56354 0.99067 0.02619 0.0
H397 H 0.57368 0.93906 0.02484 0.0
H398 H 0.48064 0.86212 0.01615 0.0
H399 H 0.4703 0.91419 0.01767 0.0
H400 H 0.56225 0.87999 0.05293 0.0
H401 H 0.5082 0.81928 0.96038 0.0
H402 H 0.51467 0.8641 0.97155 0.0
H403 H 0.4839 0.82244 0.98332 0.0
C404 C 0.54487 0.9629 0.02393 0.0
C405 C 0.51581 0.95801 0.02197 0.0
C406 C 0.55089 0.93271 0.02321 0.0
C407 C 0.52839 0.89517 0.01993 0.0
C408 C 0.49917 0.89 0.01811 0.0
H409 H 0.52616 0.67683 0.99871 0.0
H410 H 0.51614 0.72813 1.00222 0.0
C411 C 0.49305 0.92037 0.01921 0.0
C412 C 0.53581 0.86252 0.01875 0.0
H413 H 0.5258 0.78566 0.98314 0.0
C414 C 0.55413 0.85953 0.03751 0.0
C415 C 0.52585 0.83457 0.999 0.0
C416 C 0.5073 0.83524 0.97726 0.0
C417 C 0.56168 0.83036 0.03755 0.0
C418 C 0.55204 0.80253 0.01758 0.0
C419 C 0.5338 0.80577 0.99876 0.0
C420 C 0.55943 0.7697 0.01605 0.0
C421 C 0.57907 0.82916 0.06004 0.0
C422 C 0.5875 0.7732 0.02239 0.0
C423 C 0.59335 0.7426 0.02076 0.0
C424 C 0.57174 0.70654 0.01206 0.0
C425 C 0.544 0.70336 1.00543 0.0
C426 C 0.53808 0.73355 1.00739 0.0
H427 H 0.57624 0.84344 0.07703 0.0
H428 H 0.5722 0.8002 0.06511 0.0
H429 H 0.60295 0.84376 0.05537 0.0
H430 H 0.60554 0.8 0.02824 0.0
H431 H 0.61516 0.74755 0.02595 0.0
H432 H 0.29461 0.84263 0.99502 0.0
H433 H 0.25729 0.77687 0.99325 0.0
H434 H 0.32579 0.7474 0.99585 0.0
H435 H 0.36355 0.81317 0.9966 0.0
H436 H 0.25891 0.71666 0.95346 0.0
H437 H 0.26029 0.69261 0.05717 0.0
H438 H 0.26923 0.73764 0.04558 0.0
H439 H 0.29456 0.72065 0.04077 0.0
C440 C 0.30199 0.8224 0.99479 0.0
C441 C 0.33244 0.83379 0.99589 0.0
C442 C 0.28047 0.78464 0.99401 0.0
C443 C 0.28867 0.75714 0.99458 0.0
C444 C 0.31889 0.76811 0.9956 0.0
H445 H 0.16521 0.51577 1.011 0.0
H446 H 0.21128 0.57604 1.00921 0.0
C447 C 0.3405 0.8059 0.99618 0.0
C448 C 0.26553 0.71705 0.99382 0.0
H449 H 0.22535 0.64276 0.03176 0.0
C450 C 0.2517 0.70041 0.97055 0.0
C451 C 0.25641 0.69564 0.01602 0.0
C452 C 0.27072 0.71227 0.04143 0.0
C453 C 0.22865 0.66325 0.96894 0.0
C454 C 0.21838 0.64225 0.99137 0.0
C455 C 0.23299 0.6586 0.01454 0.0
C456 C 0.19104 0.60473 0.99143 0.0
C457 C 0.21565 0.64689 0.94309 0.0
C458 C 0.16423 0.6005 0.98218 0.0
C459 C 0.13814 0.56629 0.983 0.0
C460 C 0.13777 0.53503 0.99342 0.0
C461 C 0.16465 0.53901 1.00259 0.0
C462 C 0.19099 0.57357 1.00171 0.0
H463 H 0.23213 0.66058 0.92785 0.0
H464 H 0.20767 0.61664 0.94201 0.0
H465 H 0.19671 0.6514 0.93924 0.0
H466 H 0.16324 0.62403 0.9748 0.0
H467 H 0.118 0.56468 0.97587 0.0
H468 H 0.47196 0.15659 0.9997 0.0
H469 H 0.48272 0.22166 0.99691 0.0
H470 H 0.56515 0.2588 0.03657 0.0
H471 H 0.5549 0.19512 0.03904 0.0
H472 H 0.4907 0.27963 0.02679 0.0
H473 H 0.60042 0.33322 0.9838 0.0
H474 H 0.57579 0.28422 0.98719 0.0
H475 H 0.59869 0.31209 0.01357 0.0
C476 C 0.49251 0.1784 1.00781 0.0
C477 C 0.5123 0.16861 0.01955 0.0
C478 C 0.49885 0.21649 1.00621 0.0
C479 C 0.52556 0.24751 0.01586 0.0
C480 C 0.54486 0.23736 0.02789 0.0
H481 H 0.61025 0.50136 0.02672 0.0
H482 H 0.5985 0.43597 0.02872 0.0
C483 C 0.53857 0.19971 0.02956 0.0
C484 C 0.5332 0.28955 0.01402 0.0
H485 H 0.58928 0.37876 1.00012 0.0
C486 C 0.51232 0.30089 0.02069 0.0
C487 C 0.56137 0.31944 1.00632 0.0
C488 C 0.58526 0.31169 0.99707 0.0
C489 C 0.51861 0.33902 0.02064 0.0
C490 C 0.5468 0.36894 0.01293 0.0
C491 C 0.56765 0.35755 1.0062 0.0
C492 C 0.55478 0.41118 0.01148 0.0
C493 C 0.49477 0.34673 0.03009 0.0
C494 C 0.53534 0.42215 1.00062 0.0
C495 C 0.54217 0.46013 0.9995 0.0
C496 C 0.56921 0.49062 1.00881 0.0
C497 C 0.58913 0.47999 0.01921 0.0
C498 C 0.58221 0.44169 0.02036 0.0
H499 H 0.47964 0.3251 0.04333 0.0
H500 H 0.50429 0.3741 0.0401 0.0
H501 H 0.48127 0.34645 0.01369 0.0
H502 H 0.5145 0.40118 0.99247 0.0
H503 H 0.52576 0.46552 0.99104 0.0
H504 H 0.72514 0.18848 0.06812 0.0
H505 H 0.77879 0.22015 0.06356 0.0
H506 H 0.77147 0.26802 0.99386 0.0
H507 H 0.71771 0.2376 0.9988 0.0
H508 H 0.81208 0.21363 0.02518 0.0
H509 H 0.83321 0.35836 0.03378 0.0
H510 H 0.79821 0.31894 0.04198 0.0
H511 H 0.80714 0.33078 1.00922 0.0
C512 C 0.73489 0.20636 0.05207 0.0
C513 C 0.717 0.21079 0.03399 0.0
C514 C 0.7656 0.22411 0.04934 0.0
C515 C 0.77923 0.24677 0.02852 0.0
C516 C 0.76152 0.25116 1.01032 0.0
H517 H 0.96502 0.3309 0.98556 0.0
H518 H 0.91083 0.29393 0.98715 0.0
C519 C 0.73073 0.23346 0.01306 0.0
C520 C 0.81193 0.26544 0.02591 0.0
H521 H 0.8741 0.35055 0.02372 0.0
C522 C 0.82567 0.24357 0.02481 0.0
C523 C 0.82966 0.30452 0.02565 0.0
C524 C 0.81641 0.32961 0.02795 0.0
C525 C 0.85663 0.25972 0.02361 0.0
C526 C 0.8743 0.29878 0.02311 0.0
C527 C 0.86053 0.32059 0.02399 0.0
C528 C 0.90719 0.31798 0.02299 0.0
C529 C 0.87019 0.23491 0.02367 0.0
C530 C 0.92318 0.34351 0.04264 0.0
C531 C 0.95396 0.36468 0.04169 0.0
C532 C 0.96954 0.36081 0.02107 0.0
C533 C 0.95368 0.33411 1.00188 0.0
C534 C 0.9227 0.31301 1.00276 0.0
H535 H 0.85427 0.2066 0.03012 0.0
H536 H 0.87706 0.23241 1.00407 0.0
H537 H 0.89011 0.24677 0.03618 0.0
H538 H 0.91173 0.34777 0.05846 0.0
H539 H 0.96549 0.38497 0.0568 0.0
H540 H 0.8954 0.47237 0.04792 0.0
H541 H 0.85093 0.47826 0.05227 0.0
H542 H 0.89541 0.58368 0.01527 0.0
H543 H 0.93942 0.57752 1.01019 0.0
H544 H 0.84878 0.53553 0.07915 0.0
H545 H 0.81554 0.53091 0.97861 0.0
H546 H 0.84061 0.51506 0.98841 0.0
H547 H 0.85389 0.56372 0.98429 0.0
C548 C 0.89542 0.49638 0.04023 0.0
C549 C 0.92088 0.52457 0.02879 0.0
C550 C 0.87011 0.49978 0.04284 0.0
C551 C 0.86984 0.53117 0.03382 0.0
C552 C 0.89499 0.5589 0.02192 0.0
H553 H 0.77485 0.64753 0.03996 0.0
H554 H 0.80946 0.62424 0.0357 0.0
C555 C 0.92023 0.55556 0.01931 0.0
C556 C 0.8443 0.53673 0.03853 0.0
H557 H 0.79675 0.55827 1.0088 0.0
C558 C 0.83697 0.53985 0.06381 0.0
C559 C 0.82902 0.54229 0.01843 0.0
C560 C 0.83495 0.53746 0.99091 0.0
C561 C 0.81587 0.55054 0.06956 0.0
C562 C 0.80158 0.55773 0.04944 0.0
C563 C 0.80798 0.55301 0.02416 0.0
C564 C 0.78122 0.57236 0.05406 0.0
C565 C 0.81007 0.55581 0.09704 0.0
C566 C 0.75408 0.55104 0.06616 0.0
C567 C 0.73434 0.56451 0.06898 0.0
C568 C 0.7414 0.59941 0.05956 0.0
C569 C 0.76893 0.6209 0.0479 0.0
C570 C 0.78861 0.60747 0.04517 0.0
H571 H 0.82694 0.55595 0.11005 0.0
H572 H 0.80977 0.58221 0.09987 0.0
H573 H 0.78808 0.53277 0.10243 0.0
H574 H 0.74786 0.52365 0.07286 0.0
H575 H 0.71337 0.54739 0.07815 0.0
H576 H 0.90168 0.75673 0.33928 0.0
H577 H 0.95417 0.77493 0.33917 0.0
H578 H 0.97722 0.88909 0.33237 0.0
H579 H 0.92502 0.87143 0.33356 0.0
H580 H 0.99899 0.80225 0.30914 0.0
H581 H 0.03731 0.9107 0.38451 0.0
H582 H 0.99853 0.88053 0.37778 0.0
H583 H 1.02006 0.92066 0.35872 0.0
C584 C 0.91754 0.78597 0.3382 0.0
C585 C 0.9073 0.81203 0.33668 0.0
C586 C 0.94837 0.79656 0.33791 0.0
C587 C 0.9714 0.83403 0.33634 0.0
C588 C 0.96125 0.86006 0.33446 0.0
H589 H 0.17354 0.94947 0.32984 0.0
H590 H 0.12114 0.934 0.33002 0.0
C591 C 0.93045 0.84952 0.33473 0.0
C592 C 1.0052 0.84531 0.33602 0.0
H593 H 0.0749 0.90758 0.36075 0.0
C594 C 1.01526 0.82524 0.3207 0.0
C595 C 1.02801 0.87549 0.35067 0.0
C596 C 1.02048 0.89787 0.36904 0.0
C597 C 0.04581 0.83436 0.31922 0.0
C598 C 0.06859 0.86441 0.33395 0.0
C599 C 0.0586 0.88462 0.34918 0.0
C600 C 0.10216 0.87468 0.33405 0.0
C601 C 0.05332 0.81199 0.30081 0.0
C602 C 0.11108 0.84764 0.33675 0.0
C603 C 0.14144 0.85661 0.33662 0.0
C604 C 0.16536 0.89338 0.334 0.0
C605 C 0.15665 0.92074 0.33176 0.0
C606 C 0.12607 0.91169 0.33193 0.0
H607 H 0.03674 0.79974 0.28511 0.0
H608 H 0.07548 0.82916 0.29237 0.0
H609 H 0.05319 0.78876 0.31098 0.0
H610 H 0.09443 0.81901 0.33939 0.0
H611 H 0.14612 0.83412 0.3387 0.0
H612 H 0.21347 0.35267 0.36698 0.0
H613 H 0.22512 0.30367 0.37506 0.0
H614 H 0.13374 0.22878 0.39271 0.0
H615 H 0.12165 0.27775 0.38446 0.0
H616 H 0.21463 0.25909 0.42041 0.0
H617 H 0.15479 0.17757 0.33325 0.0
H618 H 0.16497 0.22567 0.33781 0.0
H619 H 0.13482 0.19058 0.35529 0.0
C620 C 0.19578 0.32584 0.37261 0.0
C621 C 0.16656 0.31895 0.37481 0.0
C622 C 0.20255 0.29797 0.37737 0.0
C623 C 0.18024 0.2627 0.38429 0.0
C624 C 0.15116 0.25584 0.38716 0.0
H625 H 0.20657 0.07085 0.37707 0.0
H626 H 0.18363 0.1083 0.38795 0.0
C627 C 0.14434 0.28382 0.38246 0.0
C628 C 0.1876 0.23292 0.38711 0.0
H629 H 0.18257 0.15724 0.35588 0.0
C630 C 0.2073 0.23642 0.40657 0.0
C631 C 0.17783 0.20343 0.36907 0.0
C632 C 0.15706 0.19894 0.34754 0.0
C633 C 0.21836 0.21179 0.40793 0.0
C634 C 0.20991 0.18357 0.38902 0.0
C635 C 0.18902 0.17897 0.37035 0.0
C636 C 0.22441 0.16075 0.38658 0.0
C637 C 0.23932 0.21661 0.42935 0.0
C638 C 0.25502 0.17786 0.38254 0.0
C639 C 0.26826 0.15654 0.37655 0.0
C640 C 0.25105 0.11775 0.37421 0.0
C641 C 0.22053 0.10063 0.37909 0.0
C642 C 0.20734 0.12197 0.38518 0.0
H643 H 0.23546 0.22991 0.44637 0.0
H644 H 0.23702 0.18962 0.43482 0.0
H645 H 0.2624 0.23492 0.42314 0.0
H646 H 0.26851 0.20779 0.38294 0.0
H647 H 0.29184 0.1705 0.37313 0.0
H648 H 0.96456 0.16905 0.38582 0.0
H649 H 0.92069 0.1071 0.38411 0.0
H650 H 0.89405 0.13259 0.31318 0.0
H651 H 0.93812 0.19394 0.31429 0.0
H652 H 0.85891 0.08442 0.38036 0.0
H653 H 0.8988 0.03791 0.29682 0.0
H654 H 0.92278 0.0789 0.3156 0.0
H655 H 0.89769 0.08007 0.29268 0.0
C656 C 0.94938 0.16144 0.36984 0.0
C657 C 0.95493 0.18643 0.35015 0.0
C658 C 0.92426 0.12615 0.36898 0.0
C659 C 0.90438 0.11517 0.34836 0.0
C660 C 0.90934 0.14039 0.3291 0.0
H661 H 0.73178 0.91103 0.3386 0.0
H662 H 0.77082 0.97632 0.33856 0.0
C663 C 0.9344 0.17561 0.32993 0.0
C664 C 0.87896 0.07694 0.34657 0.0
H665 H 0.85071 0.99649 0.31123 0.0
C666 C 0.857 0.06517 0.36522 0.0
C667 C 0.87676 0.05189 0.3269 0.0
C668 C 0.90035 0.06259 0.30695 0.0
C669 C 0.83283 1.02888 0.36473 0.0
C670 C 0.83049 1.00398 0.34489 0.0
C671 C 0.85243 1.01581 0.32623 0.0
C672 C 0.80664 0.96471 0.34415 0.0
C673 C 0.81046 1.01711 0.3858 0.0
C674 C 0.81395 0.93664 0.34659 0.0
C675 C 0.79184 0.8995 0.34651 0.0
C676 C 0.76187 0.88956 0.34387 0.0
C677 C 0.75461 0.91772 0.34077 0.0
C678 C 0.77685 0.95503 0.34092 0.0
H679 H 0.81851 0.03719 0.40215 0.0
H680 H 0.78975 1.01516 0.37842 0.0
H681 H 0.80505 0.98937 0.39271 0.0
H682 H 0.83682 0.94352 0.34894 0.0
H683 H 0.79831 0.87858 0.34872 0.0
H684 H 0.28951 0.72604 0.28236 0.0
H685 H 0.27855 0.66534 0.26757 0.0
H686 H 0.22833 0.67173 0.20456 0.0
H687 H 0.2386 0.73268 0.22013 0.0
H688 H 0.19264 0.63583 0.2397 0.0
H689 H 0.26275 0.57319 0.23235 0.0
H690 H 0.28115 0.60998 0.25537 0.0
H691 H 0.27637 0.62061 0.22311 0.0
C692 C 0.27788 0.71574 0.26436 0.0
C693 C 0.26334 0.73278 0.25322 0.0
C694 C 0.27171 0.6807 0.2556 0.0
C695 C 0.25091 0.6628 0.2358 0.0
C696 C 0.24351 0.68444 0.22048 0.0
H697 H 0.11357 0.45976 0.30542 0.0
H698 H 0.13596 0.50337 0.27108 0.0
C699 C 0.24924 0.71929 0.22949 0.0
C700 C 0.22845 0.62339 0.23971 0.0
H701 H 0.22544 0.54931 0.2691 0.0
C702 C 0.19952 0.61614 0.24508 0.0
C703 C 0.23671 0.59697 0.2464 0.0
C704 C 0.26593 0.60065 0.23867 0.0
C705 C 0.18088 0.58714 0.2608 0.0
C706 C 0.19117 0.56421 0.27068 0.0
C707 C 0.21811 0.56791 0.26219 0.0
C708 C 0.17618 0.53946 0.292 0.0
C709 C 0.15177 0.58378 0.26885 0.0
C710 C 0.19096 0.54627 0.31548 0.0
C711 C 0.17826 0.52151 0.33525 0.0
C712 C 0.15066 0.48931 0.3317 0.0
C713 C 0.13488 0.4843 0.30882 0.0
C714 C 0.14768 0.50902 0.28905 0.0
H715 H 0.14921 0.60739 0.26243 0.0
H716 H 0.1333 0.55787 0.26051 0.0
H717 H 0.14969 0.58235 0.28986 0.0
H718 H 0.21284 0.57011 0.31819 0.0
H719 H 0.19107 0.52624 0.35253 0.0
H720 H 0.37817 0.53235 0.40287 0.0
H721 H 0.43174 0.56056 0.3982 0.0
H722 H 0.42324 0.57512 0.31843 0.0
H723 H 0.36963 0.54698 0.32294 0.0
H724 H 0.46748 0.54343 0.37297 0.0
H725 H 0.48795 0.67727 0.33505 0.0
H726 H 0.45264 0.64411 0.3478 0.0
H727 H 0.46236 0.63835 0.3158 0.0
C728 C 0.38742 0.54125 0.38419 0.0
C729 C 0.36871 0.53707 0.36336 0.0
C730 C 0.41849 0.55776 0.38155 0.0
C731 C 0.43246 0.57112 0.35802 0.0
C732 C 0.41382 0.56648 0.33709 0.0
H733 H 0.6233 0.68641 0.31263 0.0
H734 H 0.56874 0.64998 0.31161 0.0
C735 C 0.38273 0.55006 0.33972 0.0
C736 C 0.4661 0.58895 0.35546 0.0
H737 H 0.52863 0.66642 0.33471 0.0
C738 C 0.48067 0.57039 0.36462 0.0
C739 C 0.48415 0.62425 0.34451 0.0
C740 C 0.47107 0.64736 0.33545 0.0
C741 C 0.51185 0.58551 0.36302 0.0
C742 C 0.52988 0.6209 0.35227 0.0
C743 C 0.51534 0.6393 0.34281 0.0
C744 C 0.56369 0.64008 0.35207 0.0
C745 C 0.52509 0.56283 0.37253 0.0
C746 C 0.57991 0.64667 0.37488 0.0
C747 C 0.61113 0.66731 0.37539 0.0
C748 C 0.62774 0.68209 0.35312 0.0
C749 C 0.61168 0.67448 0.33006 0.0
C750 C 0.58021 0.65404 0.32957 0.0
H751 H 0.50859 0.53274 0.37216 0.0
H752 H 0.54442 0.56721 0.36101 0.0
H753 H 0.53257 0.57121 0.39254 0.0
H754 H 0.56838 0.63745 0.39271 0.0
H755 H 0.62236 0.67351 0.39367 0.0
H756 H 0.32768 0.8807 0.37751 0.0
H757 H 0.37064 0.87182 0.37896 0.0
H758 H 0.40521 0.93806 0.31232 0.0
H759 H 0.36252 0.94842 0.31167 0.0
H760 H 0.38976 0.83793 0.3531 0.0
H761 H 0.48141 0.98215 0.34717 0.0
H762 H 0.44374 0.97161 0.35179 0.0
H763 H 0.45677 0.96918 0.32038 0.0
C764 C 0.34471 0.89426 0.36341 0.0
C765 C 0.34137 0.9161 0.34481 0.0
C766 C 0.36954 0.88881 0.36412 0.0
C767 C 0.39242 0.90445 0.34605 0.0
C768 C 0.38911 0.92638 0.32729 0.0
H769 H 0.54718 0.86829 0.31703 0.0
H770 H 0.50704 0.88318 0.31344 0.0
C771 C 0.36433 0.93239 0.32684 0.0
C772 C 0.41838 0.89612 0.34659 0.0
H773 H 0.49439 0.9349 0.34255 0.0
C774 C 0.41255 0.85954 0.35095 0.0
C775 C 0.44881 0.92348 0.34376 0.0
C776 C 0.45816 0.96384 0.34078 0.0
C777 C 0.43528 0.84983 0.35239 0.0
C778 C 0.46554 0.87708 0.34947 0.0
C779 C 0.47151 0.91354 0.34476 0.0
C780 C 0.49097 0.86827 0.35175 0.0
C781 C 0.42652 0.8099 0.35665 0.0
C782 C 0.49639 0.85498 0.3745 0.0
C783 C 0.51974 0.84669 0.37671 0.0
C784 C 0.53879 0.85089 0.35619 0.0
C785 C 0.53326 0.86412 0.33336 0.0
C786 C 0.51014 0.87297 0.3313 0.0
H787 H 0.40269 0.79088 0.35237 0.0
H788 H 0.43987 0.80141 0.34469 0.0
H789 H 0.43063 0.80661 0.37688 0.0
H790 H 0.4826 0.85121 0.39086 0.0
H791 H 0.52253 0.83638 0.39463 0.0
H792 H 0.73658 0.28395 0.68236 0.0
H793 H 0.69292 0.2906 0.67989 0.0
H794 H 0.72095 0.34252 0.60707 0.0
H795 H 0.76411 0.33338 0.60881 0.0
H796 H 0.6706 0.33513 0.67261 0.0
H797 H 0.65147 0.2487 0.58408 0.0
H798 H 0.68355 0.2616 0.60365 0.0
H799 H 0.68111 0.29576 0.58481 0.0
C800 C 0.73397 0.29785 0.66618 0.0
C801 C 0.75314 0.3072 0.64545 0.0
C802 C 0.709 0.30185 0.66478 0.0
C803 C 0.70297 0.31572 0.64278 0.0
C804 C 0.7245 0.33031 0.62374 0.0
H805 H 0.5156 0.16906 0.62442 0.0
H806 H 0.55805 0.23032 0.61697 0.0
C807 C 0.74919 0.3253 0.62479 0.0
C808 C 0.67194 0.30672 0.63825 0.0
H809 H 0.61103 0.23784 0.60793 0.0
C810 C 0.65752 0.31482 0.65792 0.0
C811 C 0.65468 0.2809 0.61869 0.0
C812 C 0.66833 0.27106 0.5966 0.0
C813 C 0.62682 0.29331 0.66093 0.0
C814 C 0.61034 0.26367 0.64357 0.0
C815 C 0.62395 0.26016 0.6215 0.0
C816 C 0.58209 0.23096 0.65065 0.0
C817 C 0.61286 0.30037 0.68393 0.0
C818 C 0.58165 0.21086 0.67196 0.0
C819 C 0.55796 0.17538 0.67581 0.0
C820 C 0.53416 0.15927 0.65844 0.0
C821 C 0.53401 0.18019 0.63775 0.0
C822 C 0.5579 0.21556 0.63376 0.0
H823 H 0.62194 0.33065 0.68713 0.0
H824 H 0.58847 0.28672 0.68197 0.0
H825 H 0.61837 0.2896 0.701 0.0
H826 H 0.6005 0.22166 0.68482 0.0
H827 H 0.55888 0.16005 0.69187 0.0
H828 H 0.93003 0.40724 0.70771 0.0
H829 H 0.91868 0.45865 0.71034 0.0
H830 H 0.85018 0.40302 0.65381 0.0
H831 H 0.8612 0.35264 0.65114 0.0
H832 H 0.91922 0.51197 0.67969 0.0
H833 H 0.80114 0.42393 0.70142 0.0
H834 H 0.82649 0.40612 0.7018 0.0
H835 H 0.81077 0.40974 0.6722 0.0
C836 C 0.91255 0.40573 0.69572 0.0
C837 C 0.89686 0.3743 0.67916 0.0
C838 C 0.90585 0.43568 0.69727 0.0
C839 C 0.88268 0.43587 0.68276 0.0
C840 C 0.86748 0.4047 0.6661 0.0
H841 H 0.79969 0.58399 0.66451 0.0
H842 H 0.81226 0.53387 0.66315 0.0
C843 C 0.87425 0.37525 0.6644 0.0
C844 C 0.87459 0.46797 0.68439 0.0
H845 H 0.81601 0.48578 0.68988 0.0
C846 C 0.89656 0.50579 0.68217 0.0
C847 C 0.84505 0.46189 0.68728 0.0
C848 C 0.81953 0.42331 0.69105 0.0
C849 C 0.8902 0.536 0.68201 0.0
C850 C 0.86067 0.53003 0.68516 0.0
C851 C 0.83872 0.49212 0.68745 0.0
C852 C 0.85227 0.56199 0.68618 0.0
C853 C 0.91567 0.57419 0.67711 0.0
C854 C 0.86927 0.59603 0.69994 0.0
C855 C 0.86209 0.62528 0.70052 0.0
C856 C 0.83695 0.62271 0.68785 0.0
C857 C 0.81929 0.58831 0.67465 0.0
C858 C 0.82667 0.559 0.67388 0.0
H859 H 0.93342 0.57278 0.6662 0.0
H860 H 0.90844 0.59105 0.66631 0.0
H861 H 0.92545 0.58849 0.69555 0.0
H862 H 0.88834 0.60026 0.71083 0.0
H863 H 0.87659 0.65033 0.7113 0.0
H864 H 0.61567 0.49882 0.65434 0.0
H865 H 0.58012 0.43249 0.65427 0.0
H866 H 0.64256 0.41265 0.69495 0.0
H867 H 0.67867 0.47907 0.69473 0.0
H868 H 0.58506 0.37226 0.63377 0.0
H869 H 0.56768 0.35885 0.73819 0.0
H870 H 0.58545 0.40331 0.7231 0.0
H871 H 0.60537 0.37881 0.72789 0.0
C872 C 0.62217 0.48054 0.66312 0.0
C873 C 0.65041 0.49494 0.67453 0.0
C874 C 0.60158 0.44238 0.66317 0.0
C875 C 0.6083 0.41724 0.67486 0.0
C876 C 0.63642 0.43132 0.68624 0.0
H877 H 0.48882 0.17503 0.69496 0.0
H878 H 0.53373 0.23651 0.69398 0.0
C879 C 0.65713 0.46956 0.68612 0.0
C880 C 0.58593 0.37648 0.67464 0.0
H881 H 0.54147 0.30434 0.71302 0.0
C882 C 0.57568 0.35747 0.65115 0.0
C883 C 0.57372 0.35666 0.69724 0.0
C884 C 0.58337 0.37536 0.72308 0.0
C885 C 0.55347 0.31979 0.64961 0.0
C886 C 0.54036 0.30036 0.67214 0.0
C887 C 0.55127 0.319 0.69569 0.0
C888 C 0.51392 0.26189 0.67156 0.0
C889 C 0.54425 0.30126 0.62368 0.0
C890 C 0.48775 0.2552 0.65922 0.0
C891 C 0.46223 0.22022 0.65971 0.0
C892 C 0.46187 0.19058 0.67263 0.0
C893 C 0.48827 0.19693 0.68459 0.0
C894 C 0.51394 0.23226 0.68421 0.0
H895 H 0.56289 0.31379 0.6101 0.0
H896 H 0.5362 0.27107 0.62442 0.0
H897 H 0.52611 0.30525 0.61615 0.0
H898 H 0.48676 0.27744 0.64968 0.0
H899 H 0.44246 0.21668 0.65029 0.0
H900 H 0.87378 0.86025 0.70159 0.0
H901 H 0.88279 0.92323 0.69902 0.0
H902 H 0.79565 0.88232 0.66741 0.0
H903 H 0.7862 0.81794 0.67038 0.0
H904 H 0.89155 0.97155 0.66727 0.0
H905 H 0.78975 0.9553 0.71155 0.0
H906 H 0.79889 0.9187 0.71171 0.0
H907 H 0.78241 0.92596 0.68386 0.0
C908 C 0.85595 0.86375 0.69416 0.0
C909 C 0.82881 0.83175 0.68648 0.0
C910 C 0.86144 0.90104 0.69258 0.0
C911 C 0.84024 0.91006 0.68333 0.0
C912 C 0.81289 0.8782 0.67544 0.0
H913 H 0.8431 0.12988 0.66199 0.0
H914 H 0.83142 0.06509 0.66349 0.0
C915 C 0.80733 0.84038 0.677 0.0
C916 C 0.84771 0.95212 0.68171 0.0
H917 H 0.82141 1.01353 0.69375 0.0
C918 C 0.8759 0.98017 0.6733 0.0
C919 C 0.8283 0.96593 0.68918 0.0
C920 C 0.79826 0.94009 0.69982 0.0
C921 C 0.8846 1.01903 0.67174 0.0
C922 C 0.86533 0.03295 0.67945 0.0
C923 C 0.83704 1.00488 0.68772 0.0
C924 C 0.87354 0.07537 0.67862 0.0
C925 C 0.91449 0.0446 0.66071 0.0
C926 C 0.90138 0.1059 0.68676 0.0
C927 C 0.90839 0.14419 0.68575 0.0
C928 C 0.88798 0.15491 0.67674 0.0
C929 C 0.8601 0.1244 0.66897 0.0
C930 C 0.85315 0.0863 0.66995 0.0
H931 H 0.9222 1.02923 0.64819 0.0
H932 H 0.91408 0.06667 0.64946 0.0
H933 H 0.9309 0.05775 0.67642 0.0
H934 H 0.918 0.10037 0.69453 0.0
H935 H 0.93 0.16552 0.69237 0.0
H936 H 0.04361 0.89304 0.66241 0.0
H937 H 0.09733 0.92015 0.65878 0.0
H938 H 0.09952 0.86935 0.72878 0.0
H939 H 0.04589 0.84121 0.73213 0.0
H940 H 0.1419 0.96879 0.69031 0.0
H941 H 0.1461 0.83829 0.68225 0.0
H942 H 0.1121 0.8396 0.67877 0.0
H943 H 0.12668 0.84035 0.70992 0.0
C944 C 0.05542 0.88727 0.67692 0.0
C945 C 0.04014 0.86478 0.69757 0.0
C946 C 0.08625 0.90297 0.67486 0.0
C947 C 0.1026 0.89633 0.69324 0.0
C948 C 0.08748 0.87431 0.71401 0.0
H949 H 0.28775 1.02884 0.73064 0.0
H950 H 0.23385 0.99302 0.72915 0.0
C951 C 0.05672 0.85866 0.71611 0.0
C952 C 0.13551 0.91348 0.69125 0.0
H953 H 0.19215 0.89364 0.69098 0.0
C954 C 0.1528 0.95227 0.69025 0.0
C955 C 0.14996 0.89207 0.69076 0.0
C956 C 0.13276 0.85025 0.69022 0.0
C957 C 0.18393 0.97018 0.68975 0.0
C958 C 0.1984 0.94888 0.69062 0.0
C959 C 0.18116 0.91004 0.69062 0.0
C960 C 0.23135 0.96682 0.69257 0.0
C961 C 0.20111 1.01193 0.68829 0.0
C962 C 0.24816 0.96251 0.67315 0.0
C963 C 0.27932 0.98285 0.67407 0.0
C964 C 0.29413 1.00775 0.69449 0.0
C965 C 0.27713 1.01008 0.71457 0.0
C966 C 0.24622 0.9898 0.71367 0.0
H967 H 0.18725 1.02313 0.68072 0.0
H968 H 0.20879 1.02406 0.70766 0.0
H969 H 0.22085 1.02116 0.67606 0.0
H970 H 0.2372 0.94473 0.65674 0.0
H971 H 0.29169 0.98075 0.65815 0.0
H972 H 0.24202 0.18018 0.74855 0.0
H973 H 0.20138 0.19388 0.74966 0.0
H974 H 0.19146 0.17841 0.66817 0.0
H975 H 0.23213 0.16463 0.66693 0.0
H976 H 0.20313 0.25331 0.72475 0.0
H977 H 0.10592 0.12033 0.69291 0.0
H978 H 0.13988 0.12331 0.70407 0.0
H979 H 0.13736 0.13689 0.67236 0.0
C980 C 0.23093 0.17927 0.73091 0.0
C981 C 0.2403 0.17152 0.70763 0.0
C982 C 0.2077 0.18699 0.73159 0.0
C983 C 0.19333 0.18691 0.70904 0.0
C984 C 0.20191 0.17791 0.68585 0.0
H985 H 0.067 0.25738 0.67143 0.0
H986 H 0.10281 0.2354 0.67082 0.0
C987 C 0.22513 0.17006 0.68516 0.0
C988 C 0.17121 0.19947 0.70963 0.0
H989 H 0.09928 0.17301 0.69571 0.0
C990 C 0.18036 0.23569 0.71857 0.0
C991 C 0.14164 0.17646 0.70136 0.0
C992 C 0.13045 0.13696 0.69233 0.0
C993 C 0.16079 0.24973 0.71919 0.0
C994 C 0.13119 0.2267 0.71103 0.0
C995 C 0.12203 0.19052 0.70199 0.0
C996 C 0.10944 0.2398 0.71161 0.0
C997 C 0.1721 0.28936 0.72802 0.0
C998 C 0.10122 0.24926 0.73479 0.0
C999 C 0.0807 0.26171 0.73524 0.0
C1000 C 0.06792 0.26466 0.71249 0.0
C1001 C 0.07618 0.25499 0.68931 0.0
C1002 C 0.09668 0.24255 0.68889 0.0
H1003 H 0.19666 0.30581 0.72775 0.0
H1004 H 0.16306 0.30311 0.71593 0.0
H1005 H 0.16485 0.28966 0.74784 0.0
H1006 H 0.11049 0.24669 0.75256 0.0
H1007 H 0.07443 0.26836 0.75342 0.0
H1008 H 0.19563 0.4767 0.28466 0.0
H1009 H 0.18591 0.49034 0.24141 0.0
H1010 H 0.11757 0.37664 0.2307 0.0
H1011 H 0.12729 0.36258 0.27315 0.0
H1012 H 0.18236 0.45127 0.18945 0.0
H1013 H 0.07739 0.4437 0.22001 0.0
H1014 H 0.10598 0.44999 0.24232 0.0
H1015 H 0.08169 0.40491 0.22868 0.0
C1016 C 0.17902 0.45438 0.27291 0.0
C1017 C 0.16237 0.41845 0.28272 0.0
C1018 C 0.17333 0.46231 0.24818 0.0
C1019 C 0.15064 0.43468 0.23278 0.0
C1020 C 0.13492 0.39863 0.24216 0.0
H1021 H 0.09244 0.40067 0.07602 0.0
H1022 H 0.11265 0.40204 0.11806 0.0
C1023 C 0.14072 0.39062 0.26659 0.0
C1024 C 0.1424 0.44309 0.2073 0.0
H1025 H 0.08537 0.44424 0.17534 0.0
C1026 C 0.16131 0.45016 0.18646 0.0
C1027 C 0.11496 0.44183 0.20315 0.0
C1028 C 0.09385 0.435 0.22472 0.0
C1029 C 0.15306 0.45453 0.16166 0.0
C1030 C 0.12511 0.45187 0.15735 0.0
C1031 C 0.10675 0.44627 0.17839 0.0
C1032 C 0.11384 0.45252 0.13105 0.0
C1033 C 0.17426 0.46163 0.14013 0.0
C1034 C 0.10731 0.4803 0.12394 0.0
C1035 C 0.09593 0.47989 0.09944 0.0
C1036 C 0.09018 0.45122 0.08159 0.0
C1037 C 0.09659 0.4234 0.08897 0.0
C1038 C 0.10834 0.42416 0.11316 0.0
H1039 H 0.19725 0.47224 0.14717 0.0
H1040 H 0.16736 0.43526 0.12943 0.0
H1041 H 0.17404 0.48183 0.12674 0.0
H1042 H 0.11109 0.50242 0.13734 0.0
H1043 H 0.09123 0.50171 0.09465 0.0
H1044 H 0.70424 0.74981 0.25968 0.0
H1045 H 0.6806 0.72326 0.2185 0.0
H1046 H 0.6011 0.72149 0.24375 0.0
H1047 H 0.62453 0.74787 0.28513 0.0
H1048 H 0.58829 0.65573 0.21982 0.0
H1049 H 0.66399 0.77092 0.15887 0.0
H1050 H 0.6829 0.75441 0.17867 0.0
H1051 H 0.66361 0.776 0.19302 0.0
C1052 C 0.68184 0.74428 0.25652 0.0
C1053 C 0.66661 0.75156 0.27605 0.0
C1054 C 0.66828 0.72911 0.23271 0.0
C1055 C 0.63899 0.72063 0.22749 0.0
C1056 C 0.62371 0.72783 0.24694 0.0
H1057 H 0.55951 0.65831 0.07173 0.0
H1058 H 0.57575 0.68873 0.11401 0.0
C1059 C 0.63731 0.74323 0.27072 0.0
C1060 C 0.62406 0.70307 0.20224 0.0
H1061 H 0.63111 0.7137 0.13751 0.0
C1062 C 0.59765 0.66864 0.20188 0.0
C1063 C 0.63569 0.71974 0.17852 0.0
C1064 C 0.66294 0.75747 0.17718 0.0
C1065 C 0.58335 0.65014 0.17885 0.0
C1066 C 0.59568 0.66606 0.15512 0.0
C1067 C 0.62153 0.70106 0.15547 0.0
C1068 C 0.58298 0.64612 0.12989 0.0
C1069 C 0.55493 0.61363 0.18019 0.0
C1070 C 0.58105 0.61166 0.12442 0.0
C1071 C 0.57172 0.59427 0.10032 0.0
C1072 C 0.56376 0.61048 0.08076 0.0
C1073 C 0.56467 0.6444 0.08641 0.0
C1074 C 0.57437 0.6621 0.11057 0.0
H1075 H 0.5438 0.6107 0.19874 0.0
H1076 H 0.53937 0.61062 0.16468 0.0
H1077 H 0.55994 0.59065 0.17813 0.0
H1078 H 0.58799 0.59879 0.13851 0.0
H1079 H 0.57193 0.56861 0.09663 0.0
H1080 H 0.44579 0.067 0.09189 0.0
H1081 H 0.41294 0.04114 0.12792 0.0
H1082 H 0.45451 0.97676 0.14615 0.0
H1083 H 0.48821 1.00349 0.1099 0.0
H1084 H 0.37133 0.97322 0.13589 0.0
H1085 H 0.45042 1.0125 0.21655 0.0
H1086 H 0.46188 0.03177 0.18542 0.0
H1087 H 0.4557 0.98606 0.19173 0.0
C1088 C 0.4485 0.04783 0.10374 0.0
C1089 C 0.47016 0.03781 0.09776 0.0
C1090 C 0.42936 0.03275 0.12449 0.0
C1091 C 0.43082 1.00681 0.14037 0.0
C1092 C 0.4529 0.9972 0.13487 0.0
H1093 H 0.31409 0.88602 0.27117 0.0
H1094 H 0.3503 0.90527 0.23648 0.0
C1095 C 0.47236 1.01259 0.11398 0.0
C1096 C 0.40815 0.98908 0.16148 0.0
H1097 H 0.39972 0.97405 0.2259 0.0
C1098 C 0.37778 0.97356 0.15553 0.0
C1099 C 0.41583 0.98878 0.18741 0.0
C1100 C 0.44771 1.00593 0.19581 0.0
C1101 C 0.35544 0.95838 0.17425 0.0
C1102 C 0.36313 0.95888 0.20023 0.0
C1103 C 0.3934 0.97348 0.20619 0.0
C1104 C 0.34026 0.94594 0.22136 0.0
C1105 C 0.32357 0.94142 0.1658 0.0
C1106 C 0.32212 0.962 0.22496 0.0
C1107 C 0.30132 0.95095 0.24479 0.0
C1108 C 0.29767 0.92328 0.26193 0.0
C1109 C 0.31564 0.90688 0.25826 0.0
C1110 C 0.3367 0.91821 0.23843 0.0
H1111 H 0.32067 0.93257 0.14543 0.0
H1112 H 0.30892 0.91705 0.17734 0.0
H1113 H 0.31634 0.96237 0.16812 0.0
H1114 H 0.32446 0.98391 0.2127 0.0
H1115 H 0.28842 0.9648 0.24696 0.0
H1116 H 0.4936 1.0246 0.93413 0.0
H1117 H 0.47775 0.03731 0.89376 0.0
H1118 H 0.51427 0.15208 0.91673 0.0
H1119 H 0.53047 0.13938 0.95749 0.0
H1120 H 0.43705 0.06075 0.8894 0.0
H1121 H 0.54125 0.16126 0.84255 0.0
H1122 H 0.54076 0.13342 0.86869 0.0
H1123 H 0.53638 0.1732 0.87457 0.0
C1124 C 0.49908 0.05286 0.9304 0.0
C1125 C 0.51368 0.08099 0.94914 0.0
C1126 C 0.48976 0.06006 0.90724 0.0
C1127 C 0.49468 0.09569 0.90184 0.0
C1128 C 0.5105 0.12442 0.92001 0.0
H1129 H 0.42844 0.16036 0.76613 0.0
H1130 H 0.45167 0.16268 0.80752 0.0
C1131 C 0.51997 0.11718 0.94336 0.0
C1132 C 0.48099 0.10127 0.87821 0.0
H1133 H 0.4965 0.14604 0.8213 0.0
C1134 C 0.45017 0.07955 0.8746 0.0
C1135 C 0.49775 0.12606 0.85879 0.0
C1136 C 0.5309 0.14969 0.8611 0.0
C1137 C 0.43586 0.08137 0.85233 0.0
C1138 C 0.45269 0.10504 0.83244 0.0
C1139 C 0.48342 0.12775 0.83632 0.0
C1140 C 0.43889 0.10449 0.80706 0.0
C1141 C 0.40263 0.05787 0.85041 0.0
C1142 C 0.42417 0.0713 0.79261 0.0
C1143 C 0.41087 0.0699 0.76911 0.0
C1144 C 0.41186 0.10171 0.75898 0.0
C1145 C 0.42686 0.13518 0.7733 0.0
C1146 C 0.44033 0.13658 0.79697 0.0
H1147 H 0.3924 0.05106 0.86953 0.0
H1148 H 0.39286 0.07206 0.8397 0.0
H1149 H 0.39682 0.03137 0.8403 0.0
H1150 H 0.42315 0.04626 0.79943 0.0
H1151 H 0.39989 0.0436 0.75876 0.0
H1152 H 0.04257 0.40411 0.91735 0.0
H1153 H 1.01349 0.37957 0.8782 0.0
H1154 H 0.94609 0.40018 0.90915 0.0
H1155 H 0.9751 0.42458 0.94873 0.0
H1156 H 0.92155 0.33123 0.88597 0.0
H1157 H 1.00201 0.43361 0.82007 0.0
H1158 H 1.01775 0.41156 0.8384 0.0
H1159 H 1.00557 0.44051 0.85416 0.0
C1160 C 1.02172 0.4039 0.91588 0.0
C1161 C 1.01153 0.41684 0.93643 0.0
C1162 C 1.00506 0.38991 0.89323 0.0
C1163 C 0.97758 0.38838 0.89018 0.0
C1164 C 0.96723 0.40116 0.91069 0.0
H1165 H 0.88982 0.33286 0.7377 0.0
H1166 H 0.91 0.36411 0.77914 0.0
C1167 C 0.984 0.41536 0.93339 0.0
C1168 C 0.95942 0.3723 0.86603 0.0
H1169 H 0.96267 0.37832 0.80094 0.0
C1170 C 0.93054 0.34184 0.86744 0.0
C1171 C 0.97058 0.38611 0.84157 0.0
C1172 C 1.00055 0.41998 0.83839 0.0
C1173 C 0.91325 0.32417 0.84536 0.0
C1174 C 0.92502 0.3368 0.82085 0.0
C1175 C 0.95344 0.36816 0.81949 0.0
C1176 C 0.90909 0.31671 0.79652 0.0
C1177 C 0.88237 0.2921 0.84861 0.0
C1178 C 0.90106 0.27931 0.79223 0.0
C1179 C 0.88939 0.26144 0.76863 0.0
C1180 C 0.88517 0.28015 0.7484 0.0
C1181 C 0.8919 0.31712 0.75295 0.0
C1182 C 0.90391 0.33522 0.77663 0.0
H1183 H 0.8732 0.29366 0.8674 0.0
H1184 H 0.8672 0.29125 0.83344 0.0
H1185 H 0.883 0.26577 0.8476 0.0
H1186 H 0.90528 0.26431 0.80673 0.0
H1187 H 0.88521 0.23332 0.76571 0.0
H1188 H 0.80729 0.75643 0.77563 0.0
H1189 H 0.77374 0.74322 0.81187 0.0
H1190 H 0.73255 0.62629 0.79386 0.0
H1191 H 0.76503 0.63947 0.75746 0.0
H1192 H 0.69055 0.63841 0.8046 0.0
H1193 H 0.77245 0.71081 0.88179 0.0
H1194 H 0.77548 0.74148 0.85702 0.0
H1195 H 0.78329 0.70442 0.85037 0.0
C1196 C 0.79158 0.72784 0.77973 0.0
C1197 C 0.78952 0.69915 0.76345 0.0
C1198 C 0.77215 0.72014 0.80067 0.0
C1199 C 0.75023 0.6834 0.80643 0.0
C1200 C 0.74878 0.6549 0.79037 0.0
H1201 H 0.6591 0.61321 0.9526 0.0
H1202 H 0.69096 0.6294 0.91566 0.0
C1203 C 0.76781 0.66257 0.76942 0.0
C1204 C 0.72817 0.67417 0.82827 0.0
H1205 H 0.72222 0.68836 0.89224 0.0
C1206 C 0.69771 0.64944 0.82375 0.0
C1207 C 0.7367 0.68775 0.85371 0.0
C1208 C 0.76876 0.71226 0.86114 0.0
C1209 C 0.67618 0.63803 0.84333 0.0
C1210 C 0.68462 0.65231 0.86865 0.0
C1211 C 0.71506 0.67722 0.87312 0.0
C1212 C 0.66304 0.64038 0.89104 0.0
C1213 C 0.64469 0.60946 0.83665 0.0
C1214 C 0.63564 0.64014 0.89038 0.0
C1215 C 0.61664 0.62994 0.91184 0.0
C1216 C 0.62461 0.62033 0.93496 0.0
C1217 C 0.65183 0.62036 0.93539 0.0
C1218 C 0.67044 0.62997 0.91404 0.0
H1219 H 0.64346 0.59334 0.8191 0.0
H1220 H 0.63412 0.58975 0.85232 0.0
H1221 H 0.63179 0.62369 0.83311 0.0
H1222 H 0.62916 0.64885 0.87348 0.0
H1223 H 0.59631 0.63104 0.91062 0.0
H1224 H 0.72295 0.72827 0.42256 0.0
H1225 H 0.7456 0.72902 0.4631 0.0
H1226 H 0.7565 0.83685 0.4812 0.0
H1227 H 0.7331 0.83594 0.44016 0.0
H1228 H 0.80047 0.77334 0.47907 0.0
H1229 H 0.72607 0.78772 0.54844 0.0
H1230 H 0.71615 0.77631 0.51528 0.0
H1231 H 0.74151 0.82333 0.52517 0.0
C1232 C 0.7297 0.75211 0.43519 0.0
C1233 C 0.72594 0.78205 0.42775 0.0
C1234 C 0.74288 0.75252 0.45857 0.0
C1235 C 0.753 0.78288 0.47573 0.0
C1236 C 0.74858 0.8126 0.46881 0.0
H1237 H 0.84227 0.80712 0.62639 0.0
H1238 H 0.82568 0.82239 0.58675 0.0
C1239 C 0.73509 0.81211 0.44521 0.0
C1240 C 0.76928 0.7833 0.49986 0.0
H1241 H 0.76801 0.78732 0.56524 0.0
C1242 C 0.79327 0.77656 0.49785 0.0
C1243 C 0.7605 0.78774 0.52471 0.0
C1244 C 0.73451 0.79387 0.5287 0.0
C1245 C 0.80811 0.77356 0.51946 0.0
C1246 C 0.79875 0.77678 0.54429 0.0
C1247 C 0.77543 0.78478 0.54641 0.0
C1248 C 0.8114 0.76921 0.56797 0.0
C1249 C 0.83389 0.76702 0.51537 0.0
C1250 C 0.80957 0.73451 0.57094 0.0
C1251 C 0.81917 0.72588 0.59349 0.0
C1252 C 0.83123 0.75164 0.614 0.0
C1253 C 0.83404 0.78692 0.61083 0.0
C1254 C 0.82406 0.79546 0.58821 0.0
H1255 H 0.84427 0.77706 0.49658 0.0
H1256 H 0.85104 0.78105 0.53046 0.0
H1257 H 0.82591 0.73681 0.51583 0.0
H1258 H 0.7995 0.71328 0.55613 0.0
H1259 H 0.81593 0.69816 0.5953 0.0
H1260 H 0.26927 0.88696 0.4248 0.0
H1261 H 0.28323 0.91154 0.46872 0.0
H1262 H 0.25674 0.99279 0.45414 0.0
H1263 H 0.2431 0.96872 0.41067 0.0
H1264 H 0.31135 1.02575 0.47415 0.0
H1265 H 0.23899 0.90633 0.53377 0.0
H1266 H 0.25998 0.89668 0.51073 0.0
H1267 H 0.23217 0.90726 0.5002 0.0
C1268 C 0.26553 0.90925 0.43122 0.0
C1269 C 0.25489 0.92561 0.41401 0.0
C1270 C 0.27366 0.92349 0.45643 0.0
C1271 C 0.27111 0.95425 0.46512 0.0
C1272 C 0.25917 0.96929 0.4482 0.0
H1273 H 0.30043 0.05269 0.62153 0.0
H1274 H 0.27827 1.02198 0.58032 0.0
C1275 C 0.2512 0.95525 0.4232 0.0
C1276 C 0.28282 0.97293 0.49083 0.0
H1277 H 0.2775 0.95932 0.55529 0.0
C1278 C 0.3038 1.01106 0.49183 0.0
C1279 C 0.27296 0.95434 0.51421 0.0
C1280 C 0.24959 0.91398 0.51483 0.0
C1281 C 0.31535 0.03069 0.5151 0.0
C1282 C 0.30616 1.01193 0.53845 0.0
C1283 C 0.28479 0.97394 0.53757 0.0
C1284 C 0.31938 0.03111 0.56369 0.0
C1285 C 0.33713 0.07171 0.51441 0.0
C1286 C 0.34988 0.04666 0.56841 0.0
C1287 C 0.36254 0.06424 0.59184 0.0
C1288 C 0.34521 0.06704 0.61152 0.0
C1289 C 0.31463 0.05173 0.6068 0.0
C1290 C 0.30187 0.03379 0.58325 0.0
H1291 H 0.33546 0.08388 0.49629 0.0
H1292 H 0.33358 0.08683 0.53047 0.0
H1293 H 0.35994 0.07617 0.51603 0.0
H1294 H 0.36398 0.04464 0.55404 0.0
H1295 H 0.38608 0.07525 0.59464 0.0
H1296 H 0.9855 0.2838 0.62289 0.0
H1297 H 1.01872 0.3052 0.5867 0.0
H1298 H 0.95464 0.3202 0.54455 0.0
H1299 H 0.92101 0.29889 0.58122 0.0
H1300 H 1.01638 0.28151 0.53803 0.0
H1301 H 1.02737 0.42117 0.53643 0.0
H1302 H 1.0101 0.39008 0.56237 0.0
H1303 H 0.98996 0.38377 0.53321 0.0
C1304 C 0.97812 0.29139 0.60594 0.0
C1305 C 0.95019 0.28949 0.6054 0.0
C1306 C 0.99741 0.30376 0.58504 0.0
C1307 C 0.98995 0.31532 0.56263 0.0
C1308 C 0.96165 0.31243 0.5616 0.0
H1309 H 0.07949 0.40558 0.41871 0.0
H1310 H 0.04838 0.38591 0.45617 0.0
C1311 C 0.94209 0.29969 0.5826 0.0
C1312 C 1.01195 0.33032 0.54081 0.0
H1313 H 0.05088 0.40628 0.50341 0.0
C1314 C 1.0239 0.30888 0.53056 0.0
C1315 C 1.02236 0.36617 0.53076 0.0
C1316 C 1.01207 0.39186 0.54135 0.0
C1317 C 0.04481 0.32151 0.51052 0.0
C1318 C 0.05524 0.3574 0.50043 0.0
C1319 C 0.0434 0.3789 0.51083 0.0
C1320 C 0.07661 0.37216 0.47809 0.0
C1321 C 0.05466 0.29546 0.49973 0.0
C1322 C 0.10416 0.37283 0.47747 0.0
C1323 C 0.12248 0.38446 0.45559 0.0
C1324 C 0.11391 0.39599 0.43369 0.0
C1325 C 0.08715 0.39702 0.43501 0.0
C1326 C 0.06906 0.38556 0.45665 0.0
H1327 H 0.03902 0.26618 0.50449 0.0
H1328 H 0.0567 0.29741 0.47873 0.0
H1329 H 0.0766 0.30291 0.50795 0.0
H1330 H 0.11139 0.36382 0.49376 0.0
H1331 H 0.14258 0.38273 0.45544 0.0
loop_
_geom_bond_atom_site_label_1
_geom_bond_atom_site_label_2
_geom_bond_distance
_geom_bond_site_symmetry_2
_ccdc_geom_bond_type
Tb0 C9 2.764 . S
Tb0 O10 2.325 1_554 S
Tb0 O13 2.300 . S
Tb0 O17 2.322 1_455 S
Tb0 O18 2.353 1_554 S
Tb0 O21 2.414 . S
Tb0 O22 2.401 1_554 S
Tb1 O11 2.322 1_655 S
Tb1 O12 2.349 . S
Tb1 O14 2.415 1_554 S
Tb1 O15 2.399 . S
Tb1 O16 2.325 . S
Tb1 O19 2.303 1_554 S
Tb1 C30 2.764 . S
C2 O18 1.261 1_655 S
C2 O19 1.257 . S
C3 C6 1.326 1_554 S
C3 C7 1.363 . S
C3 C9 1.504 . S
C4 C5 1.373 1_554 S
C4 C8 1.308 . S
C5 C4 1.373 1_556 S
C5 C6 1.429 . S
C5 H32 0.932 . S
C6 C3 1.326 1_556 S
C6 C5 1.429 . S
C6 H33 0.930 . S
C7 C3 1.363 . S
C7 C8 1.394 . S
C7 H34 0.932 . S
C8 C4 1.308 . S
C8 C7 1.394 . S
C8 H35 0.929 . S
C9 Tb0 2.764 . S
C9 C3 1.504 . S
C9 O21 1.246 . S
C9 O22 1.256 1_554 S
O10 Tb0 2.325 1_556 S
O10 C20 1.236 1_556 S
O11 Tb1 2.322 1_455 S
O11 C20 1.257 . S
O12 Tb1 2.349 . S
O12 C23 1.261 1_655 S
O13 Tb0 2.300 . S
O13 C23 1.257 . S
O14 Tb1 2.415 1_556 S
O14 C30 1.239 1_556 S
O15 Tb1 2.399 . S
O15 C30 1.263 . S
O16 Tb1 2.325 . S
O16 C31 1.236 . S
O17 Tb0 2.322 1_655 S
O17 C31 1.257 . S
O18 Tb0 2.353 1_556 S
O18 C2 1.261 1_455 S
O19 Tb1 2.303 1_556 S
O19 C2 1.257 . S
C20 O10 1.236 1_554 S
C20 O11 1.257 . S
O21 Tb0 2.414 . S
O21 C9 1.246 . S
O22 Tb0 2.401 1_556 S
O22 C9 1.256 1_556 S
C23 O12 1.261 1_455 S
C23 O13 1.257 . S
C24 C27 1.358 . S
C24 C28 1.332 1_554 S
C24 C30 1.504 . S
C25 C26 1.373 . S
C25 C29 1.308 1_554 S
C26 C25 1.373 . S
C26 C27 1.429 . S
C26 H36 0.932 . S
C27 C24 1.358 . S
C27 C26 1.429 . S
C27 H37 0.930 . S
C28 C24 1.332 1_556 S
C28 C29 1.394 . S
C28 H38 0.932 . S
C29 C25 1.308 1_556 S
C29 C28 1.394 . S
C29 H39 0.929 . S
C30 Tb1 2.764 . S
C30 O14 1.239 1_554 S
C30 O15 1.263 . S
C30 C24 1.504 . S
C31 O16 1.236 . S
C31 O17 1.257 . S
H32 C5 0.932 . S
H33 C6 0.930 . S
H34 C7 0.932 . S
H35 C8 0.929 . S
H36 C26 0.932 . S
H37 C27 0.930 . S
H38 C28 0.932 . S
H39 C29 0.929 . S
Tb40 C49 2.764 . S
Tb40 O50 2.325 . S
Tb40 O53 2.303 1_554 S
Tb40 O57 2.322 . S
Tb40 O58 2.349 . S
Tb40 O61 2.415 1_554 S
Tb40 O62 2.399 . S
Tb41 O51 2.322 . S
Tb41 O52 2.349 . S
Tb41 O54 2.415 1_556 S
Tb41 O55 2.399 . S
Tb41 O56 2.325 . S
Tb41 O59 2.303 1_556 S
Tb41 C70 2.764 . S
C42 O58 1.261 . S
C42 O59 1.257 . S
C43 C46 1.358 . S
C43 C47 1.332 1_554 S
C43 C49 1.504 . S
C44 C45 1.373 . S
C44 C48 1.308 1_554 S
C45 C44 1.373 . S
C45 C46 1.429 . S
C45 H72 0.932 . S
C46 C43 1.358 . S
C46 C45 1.429 . S
C46 H73 0.930 . S
C47 C43 1.332 1_556 S
C47 C48 1.394 . S
C47 H74 0.932 . S
C48 C44 1.308 1_556 S
C48 C47 1.394 . S
C48 H75 0.929 . S
C49 Tb40 2.764 . S
C49 C43 1.504 . S
C49 O61 1.239 1_554 S
C49 O62 1.263 . S
O50 Tb40 2.325 . S
O50 C60 1.236 . S
O51 Tb41 2.322 . S
O51 C60 1.257 1_556 S
O52 Tb41 2.349 . S
O52 C63 1.261 . S
O53 Tb40 2.303 1_556 S
O53 C63 1.257 . S
O54 Tb41 2.415 1_554 S
O54 C70 1.239 1_554 S
O55 Tb41 2.399 . S
O55 C70 1.263 . S
O56 Tb41 2.325 . S
O56 C71 1.236 . S
O57 Tb40 2.322 . S
O57 C71 1.257 1_554 S
O58 Tb40 2.349 . S
O58 C42 1.261 . S
O59 Tb41 2.303 1_554 S
O59 C42 1.257 . S
C60 O50 1.236 . S
C60 O51 1.257 1_554 S
O61 Tb40 2.415 1_556 S
O61 C49 1.239 1_556 S
O62 Tb40 2.399 . S
O62 C49 1.263 . S
C63 O52 1.261 . S
C63 O53 1.257 . S
C64 C67 1.358 . S
C64 C68 1.332 1_556 S
C64 C70 1.504 . S
C65 C66 1.373 . S
C65 C69 1.308 1_556 S
C66 C65 1.373 . S
C66 C67 1.429 . S
C66 H76 0.932 . S
C67 C64 1.358 . S
C67 C66 1.429 . S
C67 H77 0.930 . S
C68 C64 1.332 1_554 S
C68 C69 1.394 . S
C68 H78 0.932 . S
C69 C65 1.308 1_554 S
C69 C68 1.394 . S
C69 H79 0.929 . S
C70 Tb41 2.764 . S
C70 O54 1.239 1_556 S
C70 O55 1.263 . S
C70 C64 1.504 . S
C71 O56 1.236 . S
C71 O57 1.257 1_556 S
H72 C45 0.932 . S
H73 C46 0.930 . S
H74 C47 0.932 . S
H75 C48 0.929 . S
H76 C66 0.932 . S
H77 C67 0.930 . S
H78 C68 0.932 . S
H79 C69 0.929 . S
Tb80 C89 2.763 . S
Tb80 O90 2.328 . S
Tb80 O93 2.282 1_556 S
Tb80 O97 2.321 1_566 S
Tb80 O98 2.374 . S
Tb80 O101 2.403 1_556 S
Tb80 O102 2.410 . S
Tb81 O91 2.322 1_545 S
Tb81 O92 2.349 . S
Tb81 O94 2.415 1_554 S
Tb81 O95 2.399 . S
Tb81 O96 2.325 . S
Tb81 O99 2.303 1_554 S
Tb81 C110 2.764 . S
C82 O98 1.261 1_545 S
C82 O99 1.257 . S
C83 C86 1.342 1_554 S
C83 C87 1.348 . S
C83 C89 1.502 1_554 S
C84 C85 1.373 1_554 S
C84 C88 1.308 . S
C85 C84 1.373 1_556 S
C85 C86 1.429 . S
C85 H112 0.932 . S
C86 C83 1.342 1_556 S
C86 C85 1.429 . S
C86 H113 0.930 . S
C87 C83 1.348 . S
C87 C88 1.394 . S
C87 H114 0.932 . S
C88 C84 1.308 . S
C88 C87 1.394 . S
C88 H115 0.929 . S
C89 Tb80 2.763 . S
C89 C83 1.502 1_556 S
C89 O101 1.234 1_556 S
C89 O102 1.268 . S
O90 Tb80 2.328 . S
O90 C100 1.236 1_556 S
O91 Tb81 2.322 1_565 S
O91 C100 1.257 . S
O92 Tb81 2.349 . S
O92 C103 1.261 1_545 S
O93 Tb80 2.282 1_554 S
O93 C103 1.257 . S
O94 Tb81 2.415 1_556 S
O94 C110 1.239 1_556 S
O95 Tb81 2.399 . S
O95 C110 1.263 . S
O96 Tb81 2.325 . S
O96 C111 1.236 . S
O97 Tb80 2.321 1_544 S
O97 C111 1.257 . S
O98 Tb80 2.374 . S
O98 C82 1.261 1_565 S
O99 Tb81 2.303 1_556 S
O99 C82 1.257 . S
C100 O90 1.236 1_554 S
C100 O91 1.257 . S
O101 Tb80 2.403 1_554 S
O101 C89 1.234 1_554 S
O102 Tb80 2.410 . S
O102 C89 1.268 . S
C103 O92 1.261 1_565 S
C103 O93 1.257 . S
C104 C107 1.358 . S
C104 C108 1.332 1_554 S
C104 C110 1.504 . S
C105 C106 1.373 . S
C105 C109 1.308 1_554 S
C106 C105 1.373 . S
C106 C107 1.429 . S
C106 H116 0.932 . S
C107 C104 1.358 . S
C107 C106 1.429 . S
C107 H117 0.930 . S
C108 C104 1.332 1_556 S
C108 C109 1.394 . S
C108 H118 0.932 . S
C109 C105 1.308 1_556 S
C109 C108 1.394 . S
C109 H119 0.929 . S
C110 Tb81 2.764 . S
C110 O94 1.239 1_554 S
C110 O95 1.263 . S
C110 C104 1.504 . S
C111 O96 1.236 . S
C111 O97 1.257 . S
H112 C85 0.932 . S
H113 C86 0.930 . S
H114 C87 0.932 . S
H115 C88 0.929 . S
H116 C106 0.932 . S
H117 C107 0.930 . S
H118 C108 0.932 . S
H119 C109 0.929 . S
Tb120 C129 2.764 . S
Tb120 O130 2.325 . S
Tb120 O133 2.303 . S
Tb120 O137 2.322 . S
Tb120 O138 2.349 . S
Tb120 O141 2.415 . S
Tb120 O142 2.399 . S
Tb121 O131 2.322 . S
Tb121 O132 2.349 . S
Tb121 O134 2.415 . S
Tb121 O135 2.399 . S
Tb121 O136 2.325 . S
Tb121 O139 2.303 . S
Tb121 C150 2.764 . S
C122 O138 1.261 . S
C122 O139 1.257 . S
C123 C126 1.358 . S
C123 C127 1.332 . S
C123 C129 1.504 . S
C124 C125 1.373 . S
C124 C128 1.308 . S
C125 C124 1.373 . S
C125 C126 1.429 . S
C125 H152 0.932 . S
C126 C123 1.358 . S
C126 C125 1.429 . S
C126 H153 0.930 . S
C127 C123 1.332 . S
C127 C128 1.394 . S
C127 H154 0.932 . S
C128 C124 1.308 . S
C128 C127 1.394 . S
C128 H155 0.929 . S
C129 Tb120 2.764 . S
C129 C123 1.504 . S
C129 O141 1.239 . S
C129 O142 1.263 . S
O130 Tb120 2.325 . S
O130 C140 1.236 . S
O131 Tb121 2.322 . S
O131 C140 1.257 . S
O132 Tb121 2.349 . S
O132 C143 1.261 . S
O133 Tb120 2.303 . S
O133 C143 1.257 . S
O134 Tb121 2.415 . S
O134 C150 1.239 . S
O135 Tb121 2.399 . S
O135 C150 1.263 . S
O136 Tb121 2.325 . S
O136 C151 1.236 . S
O137 Tb120 2.322 . S
O137 C151 1.257 . S
O138 Tb120 2.349 . S
O138 C122 1.261 . S
O139 Tb121 2.303 . S
O139 C122 1.257 . S
C140 O130 1.236 . S
C140 O131 1.257 . S
O141 Tb120 2.415 . S
O141 C129 1.239 . S
O142 Tb120 2.399 . S
O142 C129 1.263 . S
C143 O132 1.261 . S
C143 O133 1.257 . S
C144 C147 1.358 . S
C144 C148 1.332 . S
C144 C150 1.504 . S
C145 C146 1.373 . S
C145 C149 1.308 . S
C146 C145 1.373 . S
C146 C147 1.429 . S
C146 H156 0.932 . S
C147 C144 1.358 . S
C147 C146 1.429 . S
C147 H157 0.930 . S
C148 C144 1.332 . S
C148 C149 1.394 . S
C148 H158 0.932 . S
C149 C145 1.308 . S
C149 C148 1.394 . S
C149 H159 0.929 . S
C150 Tb121 2.764 . S
C150 O134 1.239 . S
C150 O135 1.263 . S
C150 C144 1.504 . S
C151 O136 1.236 . S
C151 O137 1.257 . S
H152 C125 0.932 . S
H153 C126 0.930 . S
H154 C127 0.932 . S
H155 C128 0.929 . S
H156 C146 0.932 . S
H157 C147 0.930 . S
H158 C148 0.932 . S
H159 C149 0.929 . S
Tb160 C169 2.764 . S
Tb160 O170 2.325 . S
Tb160 O173 2.303 . S
Tb160 O177 2.322 . S
Tb160 O178 2.349 . S
Tb160 O181 2.415 . S
Tb160 O182 2.399 . S
Tb161 O171 2.322 . S
Tb161 O172 2.349 . S
Tb161 O174 2.415 . S
Tb161 O175 2.399 . S
Tb161 O176 2.325 . S
Tb161 O179 2.303 . S
Tb161 C190 2.764 . S
C162 O178 1.261 . S
C162 O179 1.257 . S
C163 C166 1.358 . S
C163 C167 1.332 . S
C163 C169 1.504 1_545 S
C164 C165 1.373 . S
C164 C168 1.308 . S
C165 C164 1.373 . S
C165 C166 1.429 . S
C165 H192 0.932 . S
C166 C163 1.358 . S
C166 C165 1.429 . S
C166 H193 0.930 . S
C167 C163 1.332 . S
C167 C168 1.394 . S
C167 H194 0.932 . S
C168 C164 1.308 . S
C168 C167 1.394 . S
C168 H195 0.929 . S
C169 Tb160 2.764 . S
C169 C163 1.504 1_565 S
C169 O181 1.239 . S
C169 O182 1.263 . S
O170 Tb160 2.325 . S
O170 C180 1.236 . S
O171 Tb161 2.322 . S
O171 C180 1.257 . S
O172 Tb161 2.349 . S
O172 C183 1.261 . S
O173 Tb160 2.303 . S
O173 C183 1.257 . S
O174 Tb161 2.415 . S
O174 C190 1.239 . S
O175 Tb161 2.399 . S
O175 C190 1.263 . S
O176 Tb161 2.325 . S
O176 C191 1.236 . S
O177 Tb160 2.322 . S
O177 C191 1.257 . S
O178 Tb160 2.349 . S
O178 C162 1.261 . S
O179 Tb161 2.303 . S
O179 C162 1.257 . S
C180 O170 1.236 . S
C180 O171 1.257 . S
O181 Tb160 2.415 . S
O181 C169 1.239 . S
O182 Tb160 2.399 . S
O182 C169 1.263 . S
C183 O172 1.261 . S
C183 O173 1.257 . S
C184 C187 1.358 . S
C184 C188 1.332 . S
C184 C190 1.504 . S
C185 C186 1.373 . S
C185 C189 1.308 . S
C186 C185 1.373 . S
C186 C187 1.429 . S
C186 H196 0.932 . S
C187 C184 1.358 . S
C187 C186 1.429 . S
C187 H197 0.930 . S
C188 C184 1.332 . S
C188 C189 1.394 . S
C188 H198 0.932 . S
C189 C185 1.308 . S
C189 C188 1.394 . S
C189 H199 0.929 . S
C190 Tb161 2.764 . S
C190 O174 1.239 . S
C190 O175 1.263 . S
C190 C184 1.504 . S
C191 O176 1.236 . S
C191 O177 1.257 . S
H192 C165 0.932 . S
H193 C166 0.930 . S
H194 C167 0.932 . S
H195 C168 0.929 . S
H196 C186 0.932 . S
H197 C187 0.930 . S
H198 C188 0.932 . S
H199 C189 0.929 . S
Tb200 C209 2.764 . S
Tb200 O210 2.325 . S
Tb200 O213 2.303 . S
Tb200 O217 2.322 . S
Tb200 O218 2.349 . S
Tb200 O221 2.415 . S
Tb200 O222 2.399 . S
Tb201 O211 2.322 . S
Tb201 O212 2.349 . S
Tb201 O214 2.415 . S
Tb201 O215 2.399 . S
Tb201 O216 2.325 . S
Tb201 O219 2.303 . S
Tb201 C230 2.764 . S
C202 O218 1.261 . S
C202 O219 1.257 . S
C203 C206 1.358 1_455 S
C203 C207 1.332 . S
C203 C209 1.504 . S
C204 C205 1.373 . S
C204 C208 1.308 . S
C205 C204 1.373 . S
C205 C206 1.429 . S
C205 H232 0.932 . S
C206 C203 1.358 1_655 S
C206 C205 1.429 . S
C206 H233 0.930 . S
C207 C203 1.332 . S
C207 C208 1.394 1_455 S
C207 H234 0.932 . S
C208 C204 1.308 . S
C208 C207 1.394 1_655 S
C208 H235 0.929 . S
C209 Tb200 2.764 . S
C209 C203 1.504 . S
C209 O221 1.239 . S
C209 O222 1.263 . S
O210 Tb200 2.325 . S
O210 C220 1.236 . S
O211 Tb201 2.322 . S
O211 C220 1.257 . S
O212 Tb201 2.349 . S
O212 C223 1.261 . S
O213 Tb200 2.303 . S
O213 C223 1.257 . S
O214 Tb201 2.415 . S
O214 C230 1.239 . S
O215 Tb201 2.399 . S
O215 C230 1.263 . S
O216 Tb201 2.325 . S
O216 C231 1.236 . S
O217 Tb200 2.322 . S
O217 C231 1.257 . S
O218 Tb200 2.349 . S
O218 C202 1.261 . S
O219 Tb201 2.303 . S
O219 C202 1.257 . S
C220 O210 1.236 . S
C220 O211 1.257 . S
O221 Tb200 2.415 . S
O221 C209 1.239 . S
O222 Tb200 2.399 . S
O222 C209 1.263 . S
C223 O212 1.261 . S
C223 O213 1.257 . S
C224 C227 1.358 . S
C224 C228 1.332 . S
C224 C230 1.504 . S
C225 C226 1.373 . S
C225 C229 1.308 . S
C226 C225 1.373 . S
C226 C227 1.429 . S
C226 H236 0.932 . S
C227 C224 1.358 . S
C227 C226 1.429 . S
C227 H237 0.930 . S
C228 C224 1.332 . S
C228 C229 1.394 . S
C228 H238 0.932 . S
C229 C225 1.308 . S
C229 C228 1.394 . S
C229 H239 0.929 . S
C230 Tb201 2.764 . S
C230 O214 1.239 . S
C230 O215 1.263 . S
C230 C224 1.504 . S
C231 O216 1.236 . S
C231 O217 1.257 . S
H232 C205 0.932 . S
H233 C206 0.930 . S
H234 C207 0.932 . S
H235 C208 0.929 . S
H236 C226 0.932 . S
H237 C227 0.930 . S
H238 C228 0.932 . S
H239 C229 0.929 . S
Tb240 C249 2.764 . S
Tb240 O250 2.325 . S
Tb240 O253 2.303 . S
Tb240 O257 2.322 . S
Tb240 O258 2.349 . S
Tb240 O261 2.415 . S
Tb240 O262 2.399 . S
Tb241 O251 2.322 . S
Tb241 O252 2.349 . S
Tb241 O254 2.415 . S
Tb241 O255 2.399 . S
Tb241 O256 2.325 . S
Tb241 O259 2.303 . S
Tb241 C270 2.764 . S
C242 O258 1.261 . S
C242 O259 1.257 . S
C243 C246 1.358 . S
C243 C247 1.332 . S
C243 C249 1.504 . S
C244 C245 1.373 . S
C244 C248 1.308 . S
C245 C244 1.373 . S
C245 C246 1.429 . S
C245 H272 0.932 . S
C246 C243 1.358 . S
C246 C245 1.429 . S
C246 H273 0.930 . S
C247 C243 1.332 . S
C247 C248 1.394 . S
C247 H274 0.932 . S
C248 C244 1.308 . S
C248 C247 1.394 . S
C248 H275 0.929 . S
C249 Tb240 2.764 . S
C249 C243 1.504 . S
C249 O261 1.239 . S
C249 O262 1.263 . S
O250 Tb240 2.325 . S
O250 C260 1.236 . S
O251 Tb241 2.322 . S
O251 C260 1.257 . S
O252 Tb241 2.349 . S
O252 C263 1.261 . S
O253 Tb240 2.303 . S
O253 C263 1.257 . S
O254 Tb241 2.415 . S
O254 C270 1.239 . S
O255 Tb241 2.399 . S
O255 C270 1.263 . S
O256 Tb241 2.325 . S
O256 C271 1.236 . S
O257 Tb240 2.322 . S
O257 C271 1.257 . S
O258 Tb240 2.349 . S
O258 C242 1.261 . S
O259 Tb241 2.303 . S
O259 C242 1.257 . S
C260 O250 1.236 . S
C260 O251 1.257 . S
O261 Tb240 2.415 . S
O261 C249 1.239 . S
O262 Tb240 2.399 . S
O262 C249 1.263 . S
C263 O252 1.261 . S
C263 O253 1.257 . S
C264 C267 1.358 . S
C264 C268 1.332 . S
C264 C270 1.504 . S
C265 C266 1.373 . S
C265 C269 1.308 . S
C266 C265 1.373 . S
C266 C267 1.429 . S
C266 H276 0.932 . S
C267 C264 1.358 . S
C267 C266 1.429 . S
C267 H277 0.930 . S
C268 C264 1.332 . S
C268 C269 1.394 . S
C268 H278 0.932 . S
C269 C265 1.308 . S
C269 C268 1.394 . S
C269 H279 0.929 . S
C270 Tb241 2.764 . S
C270 O254 1.239 . S
C270 O255 1.263 . S
C270 C264 1.504 . S
C271 O256 1.236 . S
C271 O257 1.257 . S
H272 C245 0.932 . S
H273 C246 0.930 . S
H274 C247 0.932 . S
H275 C248 0.929 . S
H276 C266 0.932 . S
H277 C267 0.930 . S
H278 C268 0.932 . S
H279 C269 0.929 . S
Tb280 C289 2.764 . S
Tb280 O290 2.325 . S
Tb280 O293 2.303 . S
Tb280 O297 2.322 . S
Tb280 O298 2.349 . S
Tb280 O301 2.415 . S
Tb280 O302 2.399 . S
Tb281 O291 2.322 . S
Tb281 O292 2.349 . S
Tb281 O294 2.415 . S
Tb281 O295 2.399 . S
Tb281 O296 2.325 . S
Tb281 O299 2.303 . S
Tb281 C310 2.764 . S
C282 O298 1.261 . S
C282 O299 1.257 . S
C283 C286 1.358 1_655 S
C283 C287 1.332 1_655 S
C283 C289 1.504 . S
C284 C285 1.373 . S
C284 C288 1.308 . S
C285 C284 1.373 . S
C285 C286 1.429 . S
C285 H312 0.932 . S
C286 C283 1.358 1_455 S
C286 C285 1.429 . S
C286 H313 0.930 . S
C287 C283 1.332 1_455 S
C287 C288 1.394 . S
C287 H314 0.932 1_455 S
C288 C284 1.308 . S
C288 C287 1.394 . S
C288 H315 0.929 . S
C289 Tb280 2.764 . S
C289 C283 1.504 . S
C289 O301 1.239 . S
C289 O302 1.263 . S
O290 Tb280 2.325 . S
O290 C300 1.236 . S
O291 Tb281 2.322 . S
O291 C300 1.257 . S
O292 Tb281 2.349 . S
O292 C303 1.261 . S
O293 Tb280 2.303 . S
O293 C303 1.257 . S
O294 Tb281 2.415 . S
O294 C310 1.239 . S
O295 Tb281 2.399 . S
O295 C310 1.263 . S
O296 Tb281 2.325 . S
O296 C311 1.236 . S
O297 Tb280 2.322 . S
O297 C311 1.257 . S
O298 Tb280 2.349 . S
O298 C282 1.261 . S
O299 Tb281 2.303 . S
O299 C282 1.257 . S
C300 O290 1.236 . S
C300 O291 1.257 . S
O301 Tb280 2.415 . S
O301 C289 1.239 . S
O302 Tb280 2.399 . S
O302 C289 1.263 . S
C303 O292 1.261 . S
C303 O293 1.257 . S
C304 C307 1.358 . S
C304 C308 1.332 . S
C304 C310 1.504 . S
C305 C306 1.373 . S
C305 C309 1.308 . S
C306 C305 1.373 . S
C306 C307 1.429 . S
C306 H316 0.932 . S
C307 C304 1.358 . S
C307 C306 1.429 . S
C307 H317 0.930 . S
C308 C304 1.332 . S
C308 C309 1.394 . S
C308 H318 0.932 . S
C309 C305 1.308 . S
C309 C308 1.394 . S
C309 H319 0.929 . S
C310 Tb281 2.764 . S
C310 O294 1.239 . S
C310 O295 1.263 . S
C310 C304 1.504 . S
C311 O296 1.236 . S
C311 O297 1.257 . S
H312 C285 0.932 . S
H313 C286 0.930 . S
H314 C287 0.932 1_655 S
H315 C288 0.929 . S
H316 C306 0.932 . S
H317 C307 0.930 . S
H318 C308 0.932 . S
H319 C309 0.929 . S
Tb320 C329 2.764 . S
Tb320 O330 2.325 . S
Tb320 O333 2.303 . S
Tb320 O337 2.322 . S
Tb320 O338 2.349 . S
Tb320 O341 2.415 . S
Tb320 O342 2.399 . S
Tb321 O331 2.322 . S
Tb321 O332 2.349 . S
Tb321 O334 2.415 . S
Tb321 O335 2.399 . S
Tb321 O336 2.325 . S
Tb321 O339 2.303 . S
Tb321 C350 2.764 . S
C322 O338 1.261 . S
C322 O339 1.257 . S
C323 C326 1.358 . S
C323 C327 1.332 . S
C323 C329 1.504 . S
C324 C325 1.373 . S
C324 C328 1.308 . S
C325 C324 1.373 . S
C325 C326 1.429 . S
C325 H352 0.932 . S
C326 C323 1.358 . S
C326 C325 1.429 . S
C326 H353 0.930 . S
C327 C323 1.332 . S
C327 C328 1.394 . S
C327 H354 0.932 . S
C328 C324 1.308 . S
C328 C327 1.394 . S
C328 H355 0.929 . S
C329 Tb320 2.764 . S
C329 C323 1.504 . S
C329 O341 1.239 . S
C329 O342 1.263 . S
O330 Tb320 2.325 . S
O330 C340 1.236 . S
O331 Tb321 2.322 . S
O331 C340 1.257 . S
O332 Tb321 2.349 . S
O332 C343 1.261 . S
O333 Tb320 2.303 . S
O333 C343 1.257 . S
O334 Tb321 2.415 . S
O334 C350 1.239 . S
O335 Tb321 2.399 . S
O335 C350 1.263 . S
O336 Tb321 2.325 . S
O336 C351 1.236 . S
O337 Tb320 2.322 . S
O337 C351 1.257 . S
O338 Tb320 2.349 . S
O338 C322 1.261 . S
O339 Tb321 2.303 . S
O339 C322 1.257 . S
C340 O330 1.236 . S
C340 O331 1.257 . S
O341 Tb320 2.415 . S
O341 C329 1.239 . S
O342 Tb320 2.399 . S
O342 C329 1.263 . S
C343 O332 1.261 . S
C343 O333 1.257 . S
C344 C347 1.358 . S
C344 C348 1.332 . S
C344 C350 1.504 . S
C345 C346 1.373 . S
C345 C349 1.308 . S
C346 C345 1.373 . S
C346 C347 1.429 . S
C346 H356 0.932 . S
C347 C344 1.358 . S
C347 C346 1.429 . S
C347 H357 0.930 . S
C348 C344 1.332 . S
C348 C349 1.394 . S
C348 H358 0.932 . S
C349 C345 1.308 . S
C349 C348 1.394 . S
C349 H359 0.929 . S
C350 Tb321 2.764 . S
C350 O334 1.239 . S
C350 O335 1.263 . S
C350 C344 1.504 . S
C351 O336 1.236 . S
C351 O337 1.257 . S
H352 C325 0.932 . S
H353 C326 0.930 . S
H354 C327 0.932 . S
H355 C328 0.929 . S
H356 C346 0.932 . S
H357 C347 0.930 . S
H358 C348 0.932 . S
H359 C349 0.929 . S
H360 C368 0.929 . S
H361 C370 0.930 . S
H362 C372 0.930 . S
H363 C375 0.929 . S
H364 C378 0.930 . S
H365 C380 0.960 . S
H366 C380 0.960 1_556 S
H367 C380 0.960 . S
C368 H360 0.929 . S
C368 C369 1.377 . S
C368 C370 1.384 . S
C369 C368 1.377 . S
C369 C375 1.390 1_556 S
C370 H361 0.930 . S
C370 C368 1.384 . S
C370 C371 1.372 . S
C371 C370 1.372 . S
C371 C372 1.400 1_556 S
C371 C376 1.490 . S
C372 H362 0.930 . S
C372 C371 1.400 1_554 S
C372 C375 1.386 . S
H373 C389 0.930 . S
H374 C390 0.931 . S
C375 H363 0.929 . S
C375 C369 1.390 1_554 S
C375 C372 1.386 . S
C376 C371 1.490 . S
C376 C378 1.395 . S
C376 C379 1.401 1_556 S
H377 C383 0.930 . S
C378 H364 0.930 . S
C378 C376 1.395 . S
C378 C381 1.403 . S
C379 C376 1.401 1_554 S
C379 C380 1.525 . S
C379 C383 1.401 . S
C380 H365 0.960 . S
C380 H366 0.960 1_554 S
C380 H367 0.960 . S
C380 C379 1.525 . S
C381 C378 1.403 . S
C381 C382 1.392 . S
C381 C385 1.495 . S
C382 C381 1.392 . S
C382 C383 1.385 1_556 S
C382 C384 1.478 . S
C383 H377 0.930 . S
C383 C379 1.401 . S
C383 C382 1.385 1_554 S
C384 C382 1.478 . S
C384 C386 1.381 . S
C384 C390 1.383 1_556 S
C385 C381 1.495 . S
C385 H391 0.959 . S
C385 H392 0.961 1_556 S
C385 H393 0.960 . S
C386 C384 1.381 . S
C386 C387 1.394 . S
C386 H394 0.930 . S
C387 C386 1.394 . S
C387 C388 1.383 1_556 S
C387 H395 0.929 . S
C388 C387 1.383 1_554 S
C388 C389 1.377 . S
C389 H373 0.930 . S
C389 C388 1.377 . S
C389 C390 1.379 . S
C390 H374 0.931 . S
C390 C384 1.383 1_554 S
C390 C389 1.379 . S
H391 C385 0.959 . S
H392 C385 0.961 1_554 S
H393 C385 0.960 . S
H394 C386 0.930 . S
H395 C387 0.929 . S
H396 C404 0.929 . S
H397 C406 0.930 . S
H398 C408 0.930 . S
H399 C411 0.929 . S
H400 C414 0.930 . S
H401 C416 0.960 . S
H402 C416 0.960 . S
H403 C416 0.960 . S
C404 H396 0.929 . S
C404 C405 1.377 1_556 S
C404 C406 1.384 . S
C405 C404 1.377 1_554 S
C405 C411 1.390 . S
C406 H397 0.930 . S
C406 C404 1.384 . S
C406 C407 1.372 1_556 S
C407 C406 1.372 1_554 S
C407 C408 1.400 . S
C407 C412 1.490 . S
C408 H398 0.930 . S
C408 C407 1.400 . S
C408 C411 1.386 . S
H409 C425 0.930 . S
H410 C426 0.931 . S
C411 H399 0.929 . S
C411 C405 1.390 . S
C411 C408 1.386 . S
C412 C407 1.490 . S
C412 C414 1.395 . S
C412 C415 1.403 1_554 S
H413 C419 0.930 . S
C414 H400 0.930 . S
C414 C412 1.395 . S
C414 C417 1.403 . S
C415 C412 1.403 1_556 S
C415 C416 1.524 . S
C415 C419 1.400 . S
C416 H401 0.960 . S
C416 H402 0.960 . S
C416 H403 0.960 . S
C416 C415 1.524 . S
C417 C414 1.403 . S
C417 C418 1.392 . S
C417 C421 1.495 . S
C418 C417 1.392 . S
C418 C419 1.385 1_554 S
C418 C420 1.478 . S
C419 H413 0.930 . S
C419 C415 1.400 . S
C419 C418 1.385 1_556 S
C420 C418 1.478 . S
C420 C422 1.381 1_554 S
C420 C426 1.383 . S
C421 C417 1.495 . S
C421 H427 0.959 . S
C421 H428 0.961 . S
C421 H429 0.960 . S
C422 C420 1.381 1_556 S
C422 C423 1.394 . S
C422 H430 0.930 . S
C423 C422 1.394 . S
C423 C424 1.371 1_556 S
C423 H431 0.929 . S
C424 C423 1.371 1_554 S
C424 C425 1.390 . S
C425 H409 0.930 . S
C425 C424 1.390 . S
C425 C426 1.379 . S
C426 H410 0.931 . S
C426 C420 1.383 . S
C426 C425 1.379 . S
H427 C421 0.959 . S
H428 C421 0.961 . S
H429 C421 0.960 . S
H430 C422 0.930 . S
H431 C423 0.929 . S
H432 C440 0.929 . S
H433 C442 0.930 . S
H434 C444 0.930 . S
H435 C447 0.929 . S
H436 C450 0.930 . S
H437 C452 0.960 . S
H438 C452 0.960 . S
H439 C452 0.960 . S
C440 H432 0.929 . S
C440 C441 1.377 1_556 S
C440 C442 1.384 . S
C441 C440 1.377 1_554 S
C441 C447 1.390 . S
C442 H433 0.930 . S
C442 C440 1.384 . S
C442 C443 1.372 1_556 S
C443 C442 1.372 1_554 S
C443 C444 1.400 . S
C443 C448 1.490 . S
C444 H434 0.930 . S
C444 C443 1.400 . S
C444 C447 1.386 . S
H445 C461 0.930 . S
H446 C462 0.931 . S
C447 H435 0.929 . S
C447 C441 1.390 . S
C447 C444 1.386 . S
C448 C443 1.490 . S
C448 C450 1.362 1_554 S
C448 C451 1.436 . S
H449 C455 0.930 . S
C450 H436 0.930 . S
C450 C448 1.362 1_556 S
C450 C453 1.403 . S
C451 C448 1.436 . S
C451 C452 1.524 . S
C451 C455 1.400 . S
C452 H437 0.960 . S
C452 H438 0.960 . S
C452 H439 0.960 . S
C452 C451 1.524 . S
C453 C450 1.403 . S
C453 C454 1.392 . S
C453 C457 1.495 . S
C454 C453 1.392 . S
C454 C455 1.385 1_556 S
C454 C456 1.481 . S
C455 H449 0.930 . S
C455 C451 1.400 . S
C455 C454 1.385 1_554 S
C456 C454 1.481 . S
C456 C458 1.405 . S
C456 C462 1.355 1_556 S
C457 C453 1.495 . S
C457 H463 0.959 . S
C457 H464 0.961 . S
C457 H465 0.960 . S
C458 C456 1.405 . S
C458 C459 1.394 . S
C458 H466 0.930 . S
C459 C458 1.394 . S
C459 C460 1.383 1_556 S
C459 H467 0.929 . S
C460 C459 1.383 1_554 S
C460 C461 1.377 . S
C461 H445 0.930 . S
C461 C460 1.377 . S
C461 C462 1.379 . S
C462 H446 0.931 . S
C462 C456 1.355 1_554 S
C462 C461 1.379 . S
H463 C457 0.959 . S
H464 C457 0.961 . S
H465 C457 0.960 . S
H466 C458 0.930 . S
H467 C459 0.929 . S
H468 C476 0.929 . S
H469 C478 0.930 . S
H470 C480 0.930 . S
H471 C483 0.929 . S
H472 C486 0.930 . S
H473 C488 0.960 . S
H474 C488 0.960 . S
H475 C488 0.960 . S
C476 H468 0.929 . S
C476 C477 1.377 1_556 S
C476 C478 1.384 . S
C477 C476 1.377 1_554 S
C477 C483 1.390 . S
C478 H469 0.930 . S
C478 C476 1.384 . S
C478 C479 1.372 1_556 S
C479 C478 1.372 1_554 S
C479 C480 1.400 . S
C479 C484 1.490 . S
C480 H470 0.930 . S
C480 C479 1.400 . S
C480 C483 1.386 . S
H481 C497 0.930 . S
H482 C498 0.931 . S
C483 H471 0.929 . S
C483 C477 1.390 . S
C483 C480 1.386 . S
C484 C479 1.490 . S
C484 C486 1.395 . S
C484 C487 1.403 1_554 S
H485 C491 0.930 . S
C486 H472 0.930 . S
C486 C484 1.395 . S
C486 C489 1.403 . S
C487 C484 1.403 1_556 S
C487 C488 1.524 . S
C487 C491 1.400 . S
C488 H473 0.960 . S
C488 H474 0.960 . S
C488 H475 0.960 . S
C488 C487 1.524 . S
C489 C486 1.403 . S
C489 C490 1.392 . S
C489 C493 1.495 . S
C490 C489 1.392 . S
C490 C491 1.385 1_554 S
C490 C492 1.478 . S
C491 H485 0.930 . S
C491 C487 1.400 . S
C491 C490 1.385 1_556 S
C492 C490 1.478 . S
C492 C494 1.381 1_554 S
C492 C498 1.383 . S
C493 C489 1.495 . S
C493 H499 0.959 . S
C493 H500 0.961 . S
C493 H501 0.960 . S
C494 C492 1.381 1_556 S
C494 C495 1.394 . S
C494 H502 0.930 . S
C495 C494 1.394 . S
C495 C496 1.383 1_556 S
C495 H503 0.929 . S
C496 C495 1.383 1_554 S
C496 C497 1.377 . S
C497 H481 0.930 . S
C497 C496 1.377 . S
C497 C498 1.379 . S
C498 H482 0.931 . S
C498 C492 1.383 . S
C498 C497 1.379 . S
H499 C493 0.959 . S
H500 C493 0.961 . S
H501 C493 0.960 . S
H502 C494 0.930 . S
H503 C495 0.929 . S
H504 C512 0.929 . S
H505 C514 0.930 . S
H506 C516 0.930 . S
H507 C519 0.929 . S
H508 C522 0.930 . S
H509 C524 0.960 . S
H510 C524 0.960 . S
H511 C524 0.960 . S
C512 H504 0.929 . S
C512 C513 1.377 . S
C512 C514 1.384 . S
C513 C512 1.377 . S
C513 C519 1.390 1_554 S
C514 H505 0.930 . S
C514 C512 1.384 . S
C514 C515 1.372 . S
C515 C514 1.372 . S
C515 C516 1.400 1_554 S
C515 C520 1.490 . S
C516 H506 0.930 . S
C516 C515 1.400 1_556 S
C516 C519 1.386 . S
H517 C533 0.930 . S
H518 C534 0.931 . S
C519 H507 0.929 . S
C519 C513 1.390 1_556 S
C519 C516 1.386 . S
C520 C515 1.490 . S
C520 C522 1.395 . S
C520 C523 1.403 . S
H521 C527 0.930 . S
C522 H508 0.930 . S
C522 C520 1.395 . S
C522 C525 1.403 . S
C523 C520 1.403 . S
C523 C524 1.524 . S
C523 C527 1.400 . S
C524 H509 0.960 . S
C524 H510 0.960 . S
C524 H511 0.960 . S
C524 C523 1.524 . S
C525 C522 1.403 . S
C525 C526 1.392 . S
C525 C529 1.495 . S
C526 C525 1.392 . S
C526 C527 1.385 . S
C526 C528 1.478 . S
C527 H521 0.930 . S
C527 C523 1.400 . S
C527 C526 1.385 . S
C528 C526 1.478 . S
C528 C530 1.381 . S
C528 C534 1.383 1_554 S
C529 C525 1.495 . S
C529 H535 0.959 . S
C529 H536 0.961 1_554 S
C529 H537 0.960 . S
C530 C528 1.381 . S
C530 C531 1.394 . S
C530 H538 0.930 . S
C531 C530 1.394 . S
C531 C532 1.383 . S
C531 H539 0.929 . S
C532 C531 1.383 . S
C532 C533 1.377 1_554 S
C533 H517 0.930 . S
C533 C532 1.377 1_556 S
C533 C534 1.379 . S
C534 H518 0.931 . S
C534 C528 1.383 1_556 S
C534 C533 1.379 . S
H535 C529 0.959 . S
H536 C529 0.961 1_556 S
H537 C529 0.960 . S
H538 C530 0.930 . S
H539 C531 0.929 . S
H540 C548 0.929 . S
H541 C550 0.930 . S
H542 C552 0.930 . S
H543 C555 0.929 . S
H544 C558 0.930 . S
H545 C560 0.960 . S
H546 C560 0.960 . S
H547 C560 0.960 1_554 S
C548 H540 0.929 . S
C548 C549 1.377 1_556 S
C548 C550 1.384 . S
C549 C548 1.377 1_554 S
C549 C555 1.390 . S
C550 H541 0.930 . S
C550 C548 1.384 . S
C550 C551 1.372 1_556 S
C551 C550 1.372 1_554 S
C551 C552 1.400 . S
C551 C556 1.490 . S
C552 H542 0.930 . S
C552 C551 1.400 . S
C552 C555 1.386 . S
H553 C569 0.930 . S
H554 C570 0.931 . S
C555 H543 0.929 . S
C555 C549 1.390 . S
C555 C552 1.386 . S
C556 C551 1.490 . S
C556 C558 1.395 . S
C556 C559 1.403 . S
H557 C563 0.930 1_556 S
C558 H544 0.930 . S
C558 C556 1.395 . S
C558 C561 1.403 . S
C559 C556 1.403 . S
C559 C560 1.524 1_554 S
C559 C563 1.400 . S
C560 H545 0.960 . S
C560 H546 0.960 . S
C560 H547 0.960 1_556 S
C560 C559 1.524 1_556 S
C561 C558 1.403 . S
C561 C562 1.392 . S
C561 C565 1.495 . S
C562 C561 1.392 . S
C562 C563 1.385 . S
C562 C564 1.478 . S
C563 H557 0.930 1_554 S
C563 C559 1.400 . S
C563 C562 1.385 . S
C564 C562 1.478 . S
C564 C566 1.381 1_554 S
C564 C570 1.383 . S
C565 C561 1.495 . S
C565 H571 0.959 . S
C565 H572 0.961 . S
C565 H573 0.960 . S
C566 C564 1.381 1_556 S
C566 C567 1.394 . S
C566 H574 0.930 . S
C567 C566 1.394 . S
C567 C568 1.383 1_556 S
C567 H575 0.929 . S
C568 C567 1.383 1_554 S
C568 C569 1.377 . S
C569 H553 0.930 . S
C569 C568 1.377 . S
C569 C570 1.379 . S
C570 H554 0.931 . S
C570 C564 1.383 . S
C570 C569 1.379 . S
H571 C565 0.959 . S
H572 C565 0.961 . S
H573 C565 0.960 . S
H574 C566 0.930 . S
H575 C567 0.929 . S
H576 C584 0.929 . S
H577 C586 0.930 . S
H578 C588 0.930 . S
H579 C591 0.929 . S
H580 C594 0.930 . S
H581 C596 0.960 . S
H582 C596 0.960 . S
H583 C596 0.960 . S
C584 H576 0.929 . S
C584 C585 1.377 . S
C584 C586 1.384 . S
C585 C584 1.377 . S
C585 C591 1.390 . S
C586 H577 0.930 . S
C586 C584 1.384 . S
C586 C587 1.372 . S
C587 C586 1.372 . S
C587 C588 1.400 . S
C587 C592 1.490 . S
C588 H578 0.930 . S
C588 C587 1.400 . S
C588 C591 1.386 . S
H589 C605 0.930 . S
H590 C606 0.931 . S
C591 H579 0.929 . S
C591 C585 1.390 . S
C591 C588 1.386 . S
C592 C587 1.490 . S
C592 C594 1.395 . S
C592 C595 1.403 . S
H593 C599 0.930 . S
C594 H580 0.930 . S
C594 C592 1.395 . S
C594 C597 1.403 1_655 S
C595 C592 1.403 . S
C595 C596 1.524 . S
C595 C599 1.400 1_655 S
C596 H581 0.960 . S
C596 H582 0.960 . S
C596 H583 0.960 . S
C596 C595 1.524 . S
C597 C594 1.403 1_455 S
C597 C598 1.392 . S
C597 C601 1.495 . S
C598 C597 1.392 . S
C598 C599 1.385 . S
C598 C600 1.478 . S
C599 H593 0.930 . S
C599 C595 1.400 1_455 S
C599 C598 1.385 . S
C600 C598 1.478 . S
C600 C602 1.381 . S
C600 C606 1.383 . S
C601 C597 1.495 . S
C601 H607 0.959 1_455 S
C601 H608 0.961 . S
C601 H609 0.960 . S
C602 C600 1.381 . S
C602 C603 1.394 . S
C602 H610 0.930 . S
C603 C602 1.394 . S
C603 C604 1.383 . S
C603 H611 0.929 . S
C604 C603 1.383 . S
C604 C605 1.377 . S
C605 H589 0.930 . S
C605 C604 1.377 . S
C605 C606 1.379 . S
C606 H590 0.931 . S
C606 C600 1.383 . S
C606 C605 1.379 . S
H607 C601 0.959 1_655 S
H608 C601 0.961 . S
H609 C601 0.960 . S
H610 C602 0.930 . S
H611 C603 0.929 . S
H612 C620 0.929 . S
H613 C622 0.930 . S
H614 C624 0.930 . S
H615 C627 0.929 . S
H616 C630 0.930 . S
H617 C632 0.960 . S
H618 C632 0.960 . S
H619 C632 0.960 . S
C620 H612 0.929 . S
C620 C621 1.377 . S
C620 C622 1.384 . S
C621 C620 1.377 . S
C621 C627 1.390 . S
C622 H613 0.930 . S
C622 C620 1.384 . S
C622 C623 1.372 . S
C623 C622 1.372 . S
C623 C624 1.400 . S
C623 C628 1.490 . S
C624 H614 0.930 . S
C624 C623 1.400 . S
C624 C627 1.386 . S
H625 C641 0.930 . S
H626 C642 0.931 . S
C627 H615 0.929 . S
C627 C621 1.390 . S
C627 C624 1.386 . S
C628 C623 1.490 . S
C628 C630 1.395 . S
C628 C631 1.403 . S
H629 C635 0.930 . S
C630 H616 0.930 . S
C630 C628 1.395 . S
C630 C633 1.403 . S
C631 C628 1.403 . S
C631 C632 1.524 . S
C631 C635 1.400 . S
C632 H617 0.960 . S
C632 H618 0.960 . S
C632 H619 0.960 . S
C632 C631 1.524 . S
C633 C630 1.403 . S
C633 C634 1.392 . S
C633 C637 1.495 . S
C634 C633 1.392 . S
C634 C635 1.385 . S
C634 C636 1.478 . S
C635 H629 0.930 . S
C635 C631 1.400 . S
C635 C634 1.385 . S
C636 C634 1.478 . S
C636 C638 1.381 . S
C636 C642 1.383 . S
C637 C633 1.495 . S
C637 H643 0.959 . S
C637 H644 0.961 . S
C637 H645 0.960 . S
C638 C636 1.381 . S
C638 C639 1.394 . S
C638 H646 0.930 . S
C639 C638 1.394 . S
C639 C640 1.383 . S
C639 H647 0.929 . S
C640 C639 1.383 . S
C640 C641 1.377 . S
C641 H625 0.930 . S
C641 C640 1.377 . S
C641 C642 1.379 . S
C642 H626 0.931 . S
C642 C636 1.383 . S
C642 C641 1.379 . S
H643 C637 0.959 . S
H644 C637 0.961 . S
H645 C637 0.960 . S
H646 C638 0.930 . S
H647 C639 0.929 . S
H648 C656 0.929 . S
H649 C658 0.930 . S
H650 C660 0.930 . S
H651 C663 0.929 . S
H652 C666 0.930 . S
H653 C668 0.960 1_565 S
H654 C668 0.960 . S
H655 C668 0.960 . S
C656 H648 0.929 . S
C656 C657 1.377 . S
C656 C658 1.384 . S
C657 C656 1.377 . S
C657 C663 1.390 . S
C658 H649 0.930 . S
C658 C656 1.384 . S
C658 C659 1.372 . S
C659 C658 1.372 . S
C659 C660 1.400 . S
C659 C664 1.490 . S
C660 H650 0.930 . S
C660 C659 1.400 . S
C660 C663 1.386 . S
H661 C677 0.930 . S
H662 C678 0.931 . S
C663 H651 0.929 . S
C663 C657 1.390 . S
C663 C660 1.386 . S
C664 C659 1.490 . S
C664 C666 1.395 . S
C664 C667 1.403 . S
H665 C671 0.930 . S
C666 H652 0.930 . S
C666 C664 1.395 . S
C666 C669 1.403 1_545 S
C667 C664 1.403 . S
C667 C668 1.524 . S
C667 C671 1.400 1_545 S
C668 H653 0.960 1_545 S
C668 H654 0.960 . S
C668 H655 0.960 . S
C668 C667 1.524 . S
C669 C666 1.403 1_565 S
C669 C670 1.392 . S
C669 C673 1.495 . S
C670 C669 1.392 . S
C670 C671 1.385 . S
C670 C672 1.478 . S
C671 H665 0.930 . S
C671 C667 1.400 1_565 S
C671 C670 1.385 . S
C672 C670 1.478 . S
C672 C674 1.381 . S
C672 C678 1.383 . S
C673 C669 1.495 . S
C673 H679 0.959 1_565 S
C673 H680 0.961 . S
C673 H681 0.960 . S
C674 C672 1.381 . S
C674 C675 1.394 . S
C674 H682 0.930 . S
C675 C674 1.394 . S
C675 C676 1.383 . S
C675 H683 0.929 . S
C676 C675 1.383 . S
C676 C677 1.377 . S
C677 H661 0.930 . S
C677 C676 1.377 . S
C677 C678 1.379 . S
C678 H662 0.931 . S
C678 C672 1.383 . S
C678 C677 1.379 . S
H679 C673 0.959 1_545 S
H680 C673 0.961 . S
H681 C673 0.960 . S
H682 C674 0.930 . S
H683 C675 0.929 . S
H684 C692 0.929 . S
H685 C694 0.930 . S
H686 C696 0.930 . S
H687 C699 0.929 . S
H688 C702 0.930 . S
H689 C704 0.960 . S
H690 C704 0.960 . S
H691 C704 0.960 . S
C692 H684 0.929 . S
C692 C693 1.377 . S
C692 C694 1.384 . S
C693 C692 1.377 . S
C693 C699 1.390 . S
C694 H685 0.930 . S
C694 C692 1.384 . S
C694 C695 1.372 . S
C695 C694 1.372 . S
C695 C696 1.400 . S
C695 C700 1.490 . S
C696 H686 0.930 . S
C696 C695 1.400 . S
C696 C699 1.386 . S
H697 C713 0.930 . S
H698 C714 0.931 . S
C699 H687 0.929 . S
C699 C693 1.390 . S
C699 C696 1.386 . S
C700 C695 1.490 . S
C700 C702 1.395 . S
C700 C703 1.403 . S
H701 C707 0.930 . S
C702 H688 0.930 . S
C702 C700 1.395 . S
C702 C705 1.403 . S
C703 C700 1.403 . S
C703 C704 1.524 . S
C703 C707 1.400 . S
C704 H689 0.960 . S
C704 H690 0.960 . S
C704 H691 0.960 . S
C704 C703 1.524 . S
C705 C702 1.403 . S
C705 C706 1.392 . S
C705 C709 1.495 . S
C706 C705 1.392 . S
C706 C707 1.385 . S
C706 C708 1.478 . S
C707 H701 0.930 . S
C707 C703 1.400 . S
C707 C706 1.385 . S
C708 C706 1.478 . S
C708 C710 1.381 . S
C708 C714 1.383 . S
C709 C705 1.495 . S
C709 H715 0.959 . S
C709 H716 0.961 . S
C709 H717 0.960 . S
C710 C708 1.381 . S
C710 C711 1.394 . S
C710 H718 0.930 . S
C711 C710 1.394 . S
C711 C712 1.383 . S
C711 H719 0.929 . S
C712 C711 1.383 . S
C712 C713 1.377 . S
C713 H697 0.930 . S
C713 C712 1.377 . S
C713 C714 1.379 . S
C714 H698 0.931 . S
C714 C708 1.383 . S
C714 C713 1.379 . S
H715 C709 0.959 . S
H716 C709 0.961 . S
H717 C709 0.960 . S
H718 C710 0.930 . S
H719 C711 0.929 . S
H720 C728 0.929 . S
H721 C730 0.930 . S
H722 C732 0.930 . S
H723 C735 0.929 . S
H724 C738 0.930 . S
H725 C740 0.960 . S
H726 C740 0.960 . S
H727 C740 0.960 . S
C728 H720 0.929 . S
C728 C729 1.377 . S
C728 C730 1.384 . S
C729 C728 1.377 . S
C729 C735 1.390 . S
C730 H721 0.930 . S
C730 C728 1.384 . S
C730 C731 1.372 . S
C731 C730 1.372 . S
C731 C732 1.400 . S
C731 C736 1.490 . S
C732 H722 0.930 . S
C732 C731 1.400 . S
C732 C735 1.386 . S
H733 C749 0.930 . S
H734 C750 0.931 . S
C735 H723 0.929 . S
C735 C729 1.390 . S
C735 C732 1.386 . S
C736 C731 1.490 . S
C736 C738 1.395 . S
C736 C739 1.403 . S
H737 C743 0.930 . S
C738 H724 0.930 . S
C738 C736 1.395 . S
C738 C741 1.403 . S
C739 C736 1.403 . S
C739 C740 1.524 . S
C739 C743 1.400 . S
C740 H725 0.960 . S
C740 H726 0.960 . S
C740 H727 0.960 . S
C740 C739 1.524 . S
C741 C738 1.403 . S
C741 C742 1.392 . S
C741 C745 1.495 . S
C742 C741 1.392 . S
C742 C743 1.385 . S
C742 C744 1.478 . S
C743 H737 0.930 . S
C743 C739 1.400 . S
C743 C742 1.385 . S
C744 C742 1.478 . S
C744 C746 1.381 . S
C744 C750 1.383 . S
C745 C741 1.495 . S
C745 H751 0.959 . S
C745 H752 0.961 . S
C745 H753 0.960 . S
C746 C744 1.381 . S
C746 C747 1.394 . S
C746 H754 0.930 . S
C747 C746 1.394 . S
C747 C748 1.383 . S
C747 H755 0.929 . S
C748 C747 1.383 . S
C748 C749 1.377 . S
C749 H733 0.930 . S
C749 C748 1.377 . S
C749 C750 1.379 . S
C750 H734 0.931 . S
C750 C744 1.383 . S
C750 C749 1.379 . S
H751 C745 0.959 . S
H752 C745 0.961 . S
H753 C745 0.960 . S
H754 C746 0.930 . S
H755 C747 0.929 . S
H756 C764 0.929 . S
H757 C766 0.930 . S
H758 C768 0.930 . S
H759 C771 0.929 . S
H760 C774 0.930 . S
H761 C776 0.960 . S
H762 C776 0.960 . S
H763 C776 0.960 . S
C764 H756 0.929 . S
C764 C765 1.377 . S
C764 C766 1.384 . S
C765 C764 1.377 . S
C765 C771 1.390 . S
C766 H757 0.930 . S
C766 C764 1.384 . S
C766 C767 1.372 . S
C767 C766 1.372 . S
C767 C768 1.400 . S
C767 C772 1.490 . S
C768 H758 0.930 . S
C768 C767 1.400 . S
C768 C771 1.386 . S
H769 C785 0.930 . S
H770 C786 0.931 . S
C771 H759 0.929 . S
C771 C765 1.390 . S
C771 C768 1.386 . S
C772 C767 1.490 . S
C772 C774 1.395 . S
C772 C775 1.403 . S
H773 C779 0.930 . S
C774 H760 0.930 . S
C774 C772 1.395 . S
C774 C777 1.403 . S
C775 C772 1.403 . S
C775 C776 1.524 . S
C775 C779 1.400 . S
C776 H761 0.960 . S
C776 H762 0.960 . S
C776 H763 0.960 . S
C776 C775 1.524 . S
C777 C774 1.403 . S
C777 C778 1.392 . S
C777 C781 1.495 . S
C778 C777 1.392 . S
C778 C779 1.385 . S
C778 C780 1.478 . S
C779 H773 0.930 . S
C779 C775 1.400 . S
C779 C778 1.385 . S
C780 C778 1.478 . S
C780 C782 1.381 . S
C780 C786 1.383 . S
C781 C777 1.495 . S
C781 H787 0.959 . S
C781 H788 0.961 . S
C781 H789 0.960 . S
C782 C780 1.381 . S
C782 C783 1.394 . S
C782 H790 0.930 . S
C783 C782 1.394 . S
C783 C784 1.383 . S
C783 H791 0.929 . S
C784 C783 1.383 . S
C784 C785 1.377 . S
C785 H769 0.930 . S
C785 C784 1.377 . S
C785 C786 1.379 . S
C786 H770 0.931 . S
C786 C780 1.383 . S
C786 C785 1.379 . S
H787 C781 0.959 . S
H788 C781 0.961 . S
H789 C781 0.960 . S
H790 C782 0.930 . S
H791 C783 0.929 . S
H792 C800 0.929 . S
H793 C802 0.930 . S
H794 C804 0.930 . S
H795 C807 0.929 . S
H796 C810 0.930 . S
H797 C812 0.960 . S
H798 C812 0.960 . S
H799 C812 0.960 . S
C800 H792 0.929 . S
C800 C801 1.377 . S
C800 C802 1.384 . S
C801 C800 1.377 . S
C801 C807 1.390 . S
C802 H793 0.930 . S
C802 C800 1.384 . S
C802 C803 1.372 . S
C803 C802 1.372 . S
C803 C804 1.400 . S
C803 C808 1.490 . S
C804 H794 0.930 . S
C804 C803 1.400 . S
C804 C807 1.386 . S
H805 C821 0.930 . S
H806 C822 0.931 . S
C807 H795 0.929 . S
C807 C801 1.390 . S
C807 C804 1.386 . S
C808 C803 1.490 . S
C808 C810 1.395 . S
C808 C811 1.403 . S
H809 C815 0.930 . S
C810 H796 0.930 . S
C810 C808 1.395 . S
C810 C813 1.403 . S
C811 C808 1.403 . S
C811 C812 1.524 . S
C811 C815 1.400 . S
C812 H797 0.960 . S
C812 H798 0.960 . S
C812 H799 0.960 . S
C812 C811 1.524 . S
C813 C810 1.403 . S
C813 C814 1.392 . S
C813 C817 1.495 . S
C814 C813 1.392 . S
C814 C815 1.385 . S
C814 C816 1.478 . S
C815 H809 0.930 . S
C815 C811 1.400 . S
C815 C814 1.385 . S
C816 C814 1.478 . S
C816 C818 1.381 . S
C816 C822 1.383 . S
C817 C813 1.495 . S
C817 H823 0.959 . S
C817 H824 0.961 . S
C817 H825 0.960 . S
C818 C816 1.381 . S
C818 C819 1.394 . S
C818 H826 0.930 . S
C819 C818 1.394 . S
C819 C820 1.383 . S
C819 H827 0.929 . S
C820 C819 1.383 . S
C820 C821 1.377 . S
C821 H805 0.930 . S
C821 C820 1.377 . S
C821 C822 1.379 . S
C822 H806 0.931 . S
C822 C816 1.383 . S
C822 C821 1.379 . S
H823 C817 0.959 . S
H824 C817 0.961 . S
H825 C817 0.960 . S
H826 C818 0.930 . S
H827 C819 0.929 . S
H828 C836 0.929 . S
H829 C838 0.930 . S
H830 C840 0.930 . S
H831 C843 0.929 . S
H832 C846 0.930 . S
H833 C848 0.960 . S
H834 C848 0.960 . S
H835 C848 0.960 . S
C836 H828 0.929 . S
C836 C837 1.377 . S
C836 C838 1.384 . S
C837 C836 1.377 . S
C837 C843 1.390 . S
C838 H829 0.930 . S
C838 C836 1.384 . S
C838 C839 1.372 . S
C839 C838 1.372 . S
C839 C840 1.400 . S
C839 C844 1.490 . S
C840 H830 0.930 . S
C840 C839 1.400 . S
C840 C843 1.386 . S
H841 C857 0.930 . S
H842 C858 0.931 . S
C843 H831 0.929 . S
C843 C837 1.390 . S
C843 C840 1.386 . S
C844 C839 1.490 . S
C844 C846 1.395 . S
C844 C847 1.403 . S
H845 C851 0.930 . S
C846 H832 0.930 . S
C846 C844 1.395 . S
C846 C849 1.403 . S
C847 C844 1.403 . S
C847 C848 1.524 . S
C847 C851 1.400 . S
C848 H833 0.960 . S
C848 H834 0.960 . S
C848 H835 0.960 . S
C848 C847 1.524 . S
C849 C846 1.403 . S
C849 C850 1.392 . S
C849 C853 1.495 . S
C850 C849 1.392 . S
C850 C851 1.385 . S
C850 C852 1.478 . S
C851 H845 0.930 . S
C851 C847 1.400 . S
C851 C850 1.385 . S
C852 C850 1.478 . S
C852 C854 1.381 . S
C852 C858 1.383 . S
C853 C849 1.495 . S
C853 H859 0.959 . S
C853 H860 0.961 . S
C853 H861 0.960 . S
C854 C852 1.381 . S
C854 C855 1.394 . S
C854 H862 0.930 . S
C855 C854 1.394 . S
C855 C856 1.383 . S
C855 H863 0.929 . S
C856 C855 1.383 . S
C856 C857 1.377 . S
C857 H841 0.930 . S
C857 C856 1.377 . S
C857 C858 1.379 . S
C858 H842 0.931 . S
C858 C852 1.383 . S
C858 C857 1.379 . S
H859 C853 0.959 . S
H860 C853 0.961 . S
H861 C853 0.960 . S
H862 C854 0.930 . S
H863 C855 0.929 . S
H864 C872 0.929 . S
H865 C874 0.930 . S
H866 C876 0.930 . S
H867 C879 0.929 . S
H868 C882 0.930 . S
H869 C884 0.960 . S
H870 C884 0.960 . S
H871 C884 0.960 . S
C872 H864 0.929 . S
C872 C873 1.377 . S
C872 C874 1.384 . S
C873 C872 1.377 . S
C873 C879 1.390 . S
C874 H865 0.930 . S
C874 C872 1.384 . S
C874 C875 1.372 . S
C875 C874 1.372 . S
C875 C876 1.400 . S
C875 C880 1.490 . S
C876 H866 0.930 . S
C876 C875 1.400 . S
C876 C879 1.386 . S
H877 C893 0.930 . S
H878 C894 0.931 . S
C879 H867 0.929 . S
C879 C873 1.390 . S
C879 C876 1.386 . S
C880 C875 1.490 . S
C880 C882 1.395 . S
C880 C883 1.403 . S
H881 C887 0.930 . S
C882 H868 0.930 . S
C882 C880 1.395 . S
C882 C885 1.403 . S
C883 C880 1.403 . S
C883 C884 1.524 . S
C883 C887 1.400 . S
C884 H869 0.960 . S
C884 H870 0.960 . S
C884 H871 0.960 . S
C884 C883 1.524 . S
C885 C882 1.403 . S
C885 C886 1.392 . S
C885 C889 1.495 . S
C886 C885 1.392 . S
C886 C887 1.385 . S
C886 C888 1.478 . S
C887 H881 0.930 . S
C887 C883 1.400 . S
C887 C886 1.385 . S
C888 C886 1.478 . S
C888 C890 1.381 . S
C888 C894 1.383 . S
C889 C885 1.495 . S
C889 H895 0.959 . S
C889 H896 0.961 . S
C889 H897 0.960 . S
C890 C888 1.381 . S
C890 C891 1.394 . S
C890 H898 0.930 . S
C891 C890 1.394 . S
C891 C892 1.383 . S
C891 H899 0.929 . S
C892 C891 1.383 . S
C892 C893 1.377 . S
C893 H877 0.930 . S
C893 C892 1.377 . S
C893 C894 1.379 . S
C894 H878 0.931 . S
C894 C888 1.383 . S
C894 C893 1.379 . S
H895 C889 0.959 . S
H896 C889 0.961 . S
H897 C889 0.960 . S
H898 C890 0.930 . S
H899 C891 0.929 . S
H900 C908 0.929 . S
H901 C910 0.930 . S
H902 C912 0.930 . S
H903 C915 0.929 . S
H904 C918 0.930 . S
H905 C920 0.960 . S
H906 C920 0.960 . S
H907 C920 0.960 . S
C908 H900 0.929 . S
C908 C909 1.377 . S
C908 C910 1.384 . S
C909 C908 1.377 . S
C909 C915 1.390 . S
C910 H901 0.930 . S
C910 C908 1.384 . S
C910 C911 1.372 . S
C911 C910 1.372 . S
C911 C912 1.400 . S
C911 C916 1.490 . S
C912 H902 0.930 . S
C912 C911 1.400 . S
C912 C915 1.386 . S
H913 C929 0.930 . S
H914 C930 0.931 . S
C915 H903 0.929 . S
C915 C909 1.390 . S
C915 C912 1.386 . S
C916 C911 1.490 . S
C916 C918 1.395 . S
C916 C919 1.403 . S
H917 C923 0.930 . S
C918 H904 0.930 . S
C918 C916 1.395 . S
C918 C921 1.403 . S
C919 C916 1.403 . S
C919 C920 1.524 . S
C919 C923 1.400 . S
C920 H905 0.960 . S
C920 H906 0.960 . S
C920 H907 0.960 . S
C920 C919 1.524 . S
C921 C918 1.403 . S
C921 C922 1.392 . S
C921 C925 1.495 1_565 S
C922 C921 1.392 . S
C922 C923 1.385 . S
C922 C924 1.478 1_565 S
C923 H917 0.930 . S
C923 C919 1.400 . S
C923 C922 1.385 . S
C924 C922 1.478 1_545 S
C924 C926 1.381 . S
C924 C930 1.383 . S
C925 C921 1.495 1_545 S
C925 H931 0.959 1_545 S
C925 H932 0.961 . S
C925 H933 0.960 . S
C926 C924 1.381 . S
C926 C927 1.394 . S
C926 H934 0.930 . S
C927 C926 1.394 . S
C927 C928 1.383 . S
C927 H935 0.929 . S
C928 C927 1.383 . S
C928 C929 1.377 . S
C929 H913 0.930 . S
C929 C928 1.377 . S
C929 C930 1.379 . S
C930 H914 0.931 . S
C930 C924 1.383 . S
C930 C929 1.379 . S
H931 C925 0.959 1_565 S
H932 C925 0.961 . S
H933 C925 0.960 . S
H934 C926 0.930 . S
H935 C927 0.929 . S
H936 C944 0.929 . S
H937 C946 0.930 . S
H938 C948 0.930 . S
H939 C951 0.929 . S
H940 C954 0.930 . S
H941 C956 0.960 . S
H942 C956 0.960 . S
H943 C956 0.960 . S
C944 H936 0.929 . S
C944 C945 1.377 . S
C944 C946 1.384 . S
C945 C944 1.377 . S
C945 C951 1.390 . S
C946 H937 0.930 . S
C946 C944 1.384 . S
C946 C947 1.372 . S
C947 C946 1.372 . S
C947 C948 1.400 . S
C947 C952 1.490 . S
C948 H938 0.930 . S
C948 C947 1.400 . S
C948 C951 1.386 . S
H949 C965 0.930 . S
H950 C966 0.931 . S
C951 H939 0.929 . S
C951 C945 1.390 . S
C951 C948 1.386 . S
C952 C947 1.490 . S
C952 C954 1.395 . S
C952 C955 1.403 . S
H953 C959 0.930 . S
C954 H940 0.930 . S
C954 C952 1.395 . S
C954 C957 1.403 1_565 S
C955 C952 1.403 . S
C955 C956 1.524 . S
C955 C959 1.400 . S
C956 H941 0.960 . S
C956 H942 0.960 . S
C956 H943 0.960 . S
C956 C955 1.524 . S
C957 C954 1.403 1_545 S
C957 C958 1.392 1_545 S
C957 C961 1.495 . S
C958 C957 1.392 1_565 S
C958 C959 1.385 . S
C958 C960 1.478 1_565 S
C959 H953 0.930 . S
C959 C955 1.400 . S
C959 C958 1.385 . S
C960 C958 1.478 1_545 S
C960 C962 1.381 . S
C960 C966 1.383 1_545 S
C961 C957 1.495 . S
C961 H967 0.959 . S
C961 H968 0.961 . S
C961 H969 0.960 . S
C962 C960 1.381 . S
C962 C963 1.394 . S
C962 H970 0.930 . S
C963 C962 1.394 . S
C963 C964 1.383 . S
C963 H971 0.929 . S
C964 C963 1.383 . S
C964 C965 1.377 . S
C965 H949 0.930 . S
C965 C964 1.377 . S
C965 C966 1.379 1_545 S
C966 H950 0.931 . S
C966 C960 1.383 1_565 S
C966 C965 1.379 1_565 S
H967 C961 0.959 . S
H968 C961 0.961 . S
H969 C961 0.960 . S
H970 C962 0.930 . S
H971 C963 0.929 . S
H972 C980 0.929 . S
H973 C982 0.930 . S
H974 C984 0.930 . S
H975 C987 0.929 . S
H976 C990 0.930 . S
H977 C992 0.960 . S
H978 C992 0.960 . S
H979 C992 0.960 . S
C980 H972 0.929 . S
C980 C981 1.377 . S
C980 C982 1.384 . S
C981 C980 1.377 . S
C981 C987 1.390 . S
C982 H973 0.930 . S
C982 C980 1.384 . S
C982 C983 1.372 . S
C983 C982 1.372 . S
C983 C984 1.400 . S
C983 C988 1.490 . S
C984 H974 0.930 . S
C984 C983 1.400 . S
C984 C987 1.386 . S
H985 C1001 0.930 . S
H986 C1002 0.931 . S
C987 H975 0.929 . S
C987 C981 1.390 . S
C987 C984 1.386 . S
C988 C983 1.490 . S
C988 C990 1.395 . S
C988 C991 1.403 . S
H989 C995 0.930 . S
C990 H976 0.930 . S
C990 C988 1.395 . S
C990 C993 1.403 . S
C991 C988 1.403 . S
C991 C992 1.524 . S
C991 C995 1.400 . S
C992 H977 0.960 . S
C992 H978 0.960 . S
C992 H979 0.960 . S
C992 C991 1.524 . S
C993 C990 1.403 . S
C993 C994 1.392 . S
C993 C997 1.495 . S
C994 C993 1.392 . S
C994 C995 1.385 . S
C994 C996 1.478 . S
C995 H989 0.930 . S
C995 C991 1.400 . S
C995 C994 1.385 . S
C996 C994 1.478 . S
C996 C998 1.381 . S
C996 C1002 1.383 . S
C997 C993 1.495 . S
C997 H1003 0.959 . S
C997 H1004 0.961 . S
C997 H1005 0.960 . S
C998 C996 1.381 . S
C998 C999 1.394 . S
C998 H1006 0.930 . S
C999 C998 1.394 . S
C999 C1000 1.383 . S
C999 H1007 0.929 . S
C1000 C999 1.383 . S
C1000 C1001 1.377 . S
C1001 H985 0.930 . S
C1001 C1000 1.377 . S
C1001 C1002 1.379 . S
C1002 H986 0.931 . S
C1002 C996 1.383 . S
C1002 C1001 1.379 . S
H1003 C997 0.959 . S
H1004 C997 0.961 . S
H1005 C997 0.960 . S
H1006 C998 0.930 . S
H1007 C999 0.929 . S
H1008 C1016 0.929 . S
H1009 C1018 0.930 . S
H1010 C1020 0.930 . S
H1011 C1023 0.929 . S
H1012 C1026 0.930 . S
H1013 C1028 0.960 . S
H1014 C1028 0.960 . S
H1015 C1028 0.960 . S
C1016 H1008 0.929 . S
C1016 C1017 1.377 . S
C1016 C1018 1.384 . S
C1017 C1016 1.377 . S
C1017 C1023 1.390 . S
C1018 H1009 0.930 . S
C1018 C1016 1.384 . S
C1018 C1019 1.372 . S
C1019 C1018 1.372 . S
C1019 C1020 1.400 . S
C1019 C1024 1.490 . S
C1020 H1010 0.930 . S
C1020 C1019 1.400 . S
C1020 C1023 1.386 . S
H1021 C1037 0.930 1_655 S
H1022 C1038 0.931 . S
C1023 H1011 0.929 . S
C1023 C1017 1.390 . S
C1023 C1020 1.386 . S
C1024 C1019 1.490 . S
C1024 C1026 1.395 . S
C1024 C1027 1.403 . S
H1025 C1031 0.930 . S
C1026 H1012 0.930 . S
C1026 C1024 1.395 . S
C1026 C1029 1.403 . S
C1027 C1024 1.403 . S
C1027 C1028 1.524 . S
C1027 C1031 1.400 . S
C1028 H1013 0.960 . S
C1028 H1014 0.960 . S
C1028 H1015 0.960 . S
C1028 C1027 1.524 . S
C1029 C1026 1.403 . S
C1029 C1030 1.392 . S
C1029 C1033 1.495 . S
C1030 C1029 1.392 . S
C1030 C1031 1.385 . S
C1030 C1032 1.478 . S
C1031 H1025 0.930 . S
C1031 C1027 1.400 . S
C1031 C1030 1.385 . S
C1032 C1030 1.478 . S
C1032 C1034 1.381 . S
C1032 C1038 1.383 . S
C1033 C1029 1.495 . S
C1033 H1039 0.959 . S
C1033 H1040 0.961 . S
C1033 H1041 0.960 . S
C1034 C1032 1.381 . S
C1034 C1035 1.394 . S
C1034 H1042 0.930 . S
C1035 C1034 1.394 . S
C1035 C1036 1.383 . S
C1035 H1043 0.929 . S
C1036 C1035 1.383 . S
C1036 C1037 1.377 . S
C1037 H1021 0.930 1_455 S
C1037 C1036 1.377 . S
C1037 C1038 1.379 . S
C1038 H1022 0.931 . S
C1038 C1032 1.383 . S
C1038 C1037 1.379 . S
H1039 C1033 0.959 . S
H1040 C1033 0.961 . S
H1041 C1033 0.960 . S
H1042 C1034 0.930 . S
H1043 C1035 0.929 . S
H1044 C1052 0.929 . S
H1045 C1054 0.930 . S
H1046 C1056 0.930 . S
H1047 C1059 0.929 . S
H1048 C1062 0.930 . S
H1049 C1064 0.960 . S
H1050 C1064 0.960 . S
H1051 C1064 0.960 . S
C1052 H1044 0.929 . S
C1052 C1053 1.377 . S
C1052 C1054 1.384 . S
C1053 C1052 1.377 . S
C1053 C1059 1.390 . S
C1054 H1045 0.930 . S
C1054 C1052 1.384 . S
C1054 C1055 1.372 . S
C1055 C1054 1.372 . S
C1055 C1056 1.400 . S
C1055 C1060 1.490 . S
C1056 H1046 0.930 . S
C1056 C1055 1.400 . S
C1056 C1059 1.386 . S
H1057 C1073 0.930 . S
H1058 C1074 0.931 . S
C1059 H1047 0.929 . S
C1059 C1053 1.390 . S
C1059 C1056 1.386 . S
C1060 C1055 1.490 . S
C1060 C1062 1.395 . S
C1060 C1063 1.403 . S
H1061 C1067 0.930 . S
C1062 H1048 0.930 . S
C1062 C1060 1.395 . S
C1062 C1065 1.403 . S
C1063 C1060 1.403 . S
C1063 C1064 1.524 . S
C1063 C1067 1.400 . S
C1064 H1049 0.960 . S
C1064 H1050 0.960 . S
C1064 H1051 0.960 . S
C1064 C1063 1.524 . S
C1065 C1062 1.403 . S
C1065 C1066 1.392 . S
C1065 C1069 1.495 . S
C1066 C1065 1.392 . S
C1066 C1067 1.385 . S
C1066 C1068 1.478 . S
C1067 H1061 0.930 . S
C1067 C1063 1.400 . S
C1067 C1066 1.385 . S
C1068 C1066 1.478 . S
C1068 C1070 1.381 . S
C1068 C1074 1.383 . S
C1069 C1065 1.495 . S
C1069 H1075 0.959 . S
C1069 H1076 0.961 . S
C1069 H1077 0.960 . S
C1070 C1068 1.381 . S
C1070 C1071 1.394 . S
C1070 H1078 0.930 . S
C1071 C1070 1.394 . S
C1071 C1072 1.383 . S
C1071 H1079 0.929 . S
C1072 C1071 1.383 . S
C1072 C1073 1.377 . S
C1073 H1057 0.930 . S
C1073 C1072 1.377 . S
C1073 C1074 1.379 . S
C1074 H1058 0.931 . S
C1074 C1068 1.383 . S
C1074 C1073 1.379 . S
H1075 C1069 0.959 . S
H1076 C1069 0.961 . S
H1077 C1069 0.960 . S
H1078 C1070 0.930 . S
H1079 C1071 0.929 . S
H1080 C1088 0.929 1_545 S
H1081 C1090 0.930 . S
H1082 C1092 0.930 . S
H1083 C1095 0.929 . S
H1084 C1098 0.930 . S
H1085 C1100 0.960 . S
H1086 C1100 0.960 . S
H1087 C1100 0.960 . S
C1088 H1080 0.929 1_565 S
C1088 C1089 1.377 . S
C1088 C1090 1.384 . S
C1089 C1088 1.377 . S
C1089 C1095 1.390 . S
C1090 H1081 0.930 . S
C1090 C1088 1.384 . S
C1090 C1091 1.372 . S
C1091 C1090 1.372 . S
C1091 C1092 1.400 . S
C1091 C1096 1.490 . S
C1092 H1082 0.930 . S
C1092 C1091 1.400 . S
C1092 C1095 1.386 . S
H1093 C1109 0.930 . S
H1094 C1110 0.931 . S
C1095 H1083 0.929 . S
C1095 C1089 1.390 . S
C1095 C1092 1.386 . S
C1096 C1091 1.490 . S
C1096 C1098 1.395 . S
C1096 C1099 1.403 . S
H1097 C1103 0.930 . S
C1098 H1084 0.930 . S
C1098 C1096 1.395 . S
C1098 C1101 1.403 . S
C1099 C1096 1.403 . S
C1099 C1100 1.524 . S
C1099 C1103 1.400 . S
C1100 H1085 0.960 . S
C1100 H1086 0.960 . S
C1100 H1087 0.960 . S
C1100 C1099 1.524 . S
C1101 C1098 1.403 . S
C1101 C1102 1.392 . S
C1101 C1105 1.495 . S
C1102 C1101 1.392 . S
C1102 C1103 1.385 . S
C1102 C1104 1.478 . S
C1103 H1097 0.930 . S
C1103 C1099 1.400 . S
C1103 C1102 1.385 . S
C1104 C1102 1.478 . S
C1104 C1106 1.381 . S
C1104 C1110 1.383 . S
C1105 C1101 1.495 . S
C1105 H1111 0.959 . S
C1105 H1112 0.961 . S
C1105 H1113 0.960 . S
C1106 C1104 1.381 . S
C1106 C1107 1.394 . S
C1106 H1114 0.930 . S
C1107 C1106 1.394 . S
C1107 C1108 1.383 . S
C1107 H1115 0.929 . S
C1108 C1107 1.383 . S
C1108 C1109 1.377 . S
C1109 H1093 0.930 . S
C1109 C1108 1.377 . S
C1109 C1110 1.379 . S
C1110 H1094 0.931 . S
C1110 C1104 1.383 . S
C1110 C1109 1.379 . S
H1111 C1105 0.959 . S
H1112 C1105 0.961 . S
H1113 C1105 0.960 . S
H1114 C1106 0.930 . S
H1115 C1107 0.929 . S
H1116 C1124 0.929 1_565 S
H1117 C1126 0.935 . S
H1118 C1128 0.930 . S
H1119 C1131 0.929 . S
H1120 C1134 0.930 . S
H1121 C1136 0.960 . S
H1122 C1136 0.960 . S
H1123 C1136 0.960 . S
C1124 H1116 0.929 1_545 S
C1124 C1125 1.377 . S
C1124 C1126 1.384 . S
C1125 C1124 1.377 . S
C1125 C1131 1.390 . S
C1126 H1117 0.935 . S
C1126 C1124 1.384 . S
C1126 C1127 1.372 . S
C1127 C1126 1.372 . S
C1127 C1128 1.400 . S
C1127 C1132 1.490 . S
C1128 H1118 0.930 . S
C1128 C1127 1.400 . S
C1128 C1131 1.386 . S
H1129 C1145 0.930 . S
H1130 C1146 0.931 . S
C1131 H1119 0.929 . S
C1131 C1125 1.390 . S
C1131 C1128 1.386 . S
C1132 C1127 1.490 . S
C1132 C1134 1.395 . S
C1132 C1135 1.403 . S
H1133 C1139 0.930 . S
C1134 H1120 0.930 . S
C1134 C1132 1.395 . S
C1134 C1137 1.403 . S
C1135 C1132 1.403 . S
C1135 C1136 1.524 . S
C1135 C1139 1.400 . S
C1136 H1121 0.960 . S
C1136 H1122 0.960 . S
C1136 H1123 0.960 . S
C1136 C1135 1.524 . S
C1137 C1134 1.403 . S
C1137 C1138 1.392 . S
C1137 C1141 1.495 . S
C1138 C1137 1.392 . S
C1138 C1139 1.385 . S
C1138 C1140 1.478 . S
C1139 H1133 0.930 . S
C1139 C1135 1.400 . S
C1139 C1138 1.385 . S
C1140 C1138 1.478 . S
C1140 C1142 1.381 . S
C1140 C1146 1.383 . S
C1141 C1137 1.495 . S
C1141 H1147 0.959 . S
C1141 H1148 0.961 . S
C1141 H1149 0.960 . S
C1142 C1140 1.381 . S
C1142 C1143 1.394 . S
C1142 H1150 0.930 . S
C1143 C1142 1.394 . S
C1143 C1144 1.383 . S
C1143 H1151 0.929 . S
C1144 C1143 1.383 . S
C1144 C1145 1.377 . S
C1145 H1129 0.930 . S
C1145 C1144 1.377 . S
C1145 C1146 1.379 . S
C1146 H1130 0.931 . S
C1146 C1140 1.383 . S
C1146 C1145 1.379 . S
H1147 C1141 0.959 . S
H1148 C1141 0.961 . S
H1149 C1141 0.960 . S
H1150 C1142 0.930 . S
H1151 C1143 0.929 . S
H1152 C1160 0.929 1_455 S
H1153 C1162 0.930 . S
H1154 C1164 0.930 . S
H1155 C1167 0.929 . S
H1156 C1170 0.930 . S
H1157 C1172 0.960 . S
H1158 C1172 0.960 . S
H1159 C1172 0.960 . S
C1160 H1152 0.929 1_655 S
C1160 C1161 1.377 . S
C1160 C1162 1.384 . S
C1161 C1160 1.377 . S
C1161 C1167 1.390 . S
C1162 H1153 0.930 . S
C1162 C1160 1.384 . S
C1162 C1163 1.372 . S
C1163 C1162 1.372 . S
C1163 C1164 1.400 . S
C1163 C1168 1.490 . S
C1164 H1154 0.930 . S
C1164 C1163 1.400 . S
C1164 C1167 1.386 . S
H1165 C1181 0.930 . S
H1166 C1182 0.931 . S
C1167 H1155 0.929 . S
C1167 C1161 1.390 . S
C1167 C1164 1.386 . S
C1168 C1163 1.490 . S
C1168 C1170 1.395 . S
C1168 C1171 1.403 . S
H1169 C1175 0.930 . S
C1170 H1156 0.930 . S
C1170 C1168 1.395 . S
C1170 C1173 1.403 . S
C1171 C1168 1.403 . S
C1171 C1172 1.524 . S
C1171 C1175 1.400 . S
C1172 H1157 0.960 . S
C1172 H1158 0.960 . S
C1172 H1159 0.960 . S
C1172 C1171 1.524 . S
C1173 C1170 1.403 . S
C1173 C1174 1.392 . S
C1173 C1177 1.495 . S
C1174 C1173 1.392 . S
C1174 C1175 1.385 . S
C1174 C1176 1.478 . S
C1175 H1169 0.930 . S
C1175 C1171 1.400 . S
C1175 C1174 1.385 . S
C1176 C1174 1.478 . S
C1176 C1178 1.381 . S
C1176 C1182 1.383 . S
C1177 C1173 1.495 . S
C1177 H1183 0.959 . S
C1177 H1184 0.961 . S
C1177 H1185 0.960 . S
C1178 C1176 1.381 . S
C1178 C1179 1.394 . S
C1178 H1186 0.930 . S
C1179 C1178 1.394 . S
C1179 C1180 1.383 . S
C1179 H1187 0.929 . S
C1180 C1179 1.383 . S
C1180 C1181 1.377 . S
C1181 H1165 0.930 . S
C1181 C1180 1.377 . S
C1181 C1182 1.379 . S
C1182 H1166 0.931 . S
C1182 C1176 1.383 . S
C1182 C1181 1.379 . S
H1183 C1177 0.959 . S
H1184 C1177 0.961 . S
H1185 C1177 0.960 . S
H1186 C1178 0.930 . S
H1187 C1179 0.929 . S
H1188 C1196 0.929 . S
H1189 C1198 0.930 . S
H1190 C1200 0.930 . S
H1191 C1203 0.929 . S
H1192 C1206 0.930 . S
H1193 C1208 0.960 . S
H1194 C1208 0.960 . S
H1195 C1208 0.960 . S
C1196 H1188 0.929 . S
C1196 C1197 1.377 . S
C1196 C1198 1.384 . S
C1197 C1196 1.377 . S
C1197 C1203 1.390 . S
C1198 H1189 0.930 . S
C1198 C1196 1.384 . S
C1198 C1199 1.372 . S
C1199 C1198 1.372 . S
C1199 C1200 1.400 . S
C1199 C1204 1.490 . S
C1200 H1190 0.930 . S
C1200 C1199 1.400 . S
C1200 C1203 1.386 . S
H1201 C1217 0.930 . S
H1202 C1218 0.931 . S
C1203 H1191 0.929 . S
C1203 C1197 1.390 . S
C1203 C1200 1.386 . S
C1204 C1199 1.490 . S
C1204 C1206 1.395 . S
C1204 C1207 1.403 . S
H1205 C1211 0.930 . S
C1206 H1192 0.930 . S
C1206 C1204 1.395 . S
C1206 C1209 1.403 . S
C1207 C1204 1.403 . S
C1207 C1208 1.524 . S
C1207 C1211 1.400 . S
C1208 H1193 0.960 . S
C1208 H1194 0.960 . S
C1208 H1195 0.960 . S
C1208 C1207 1.524 . S
C1209 C1206 1.403 . S
C1209 C1210 1.392 . S
C1209 C1213 1.495 . S
C1210 C1209 1.392 . S
C1210 C1211 1.385 . S
C1210 C1212 1.478 . S
C1211 H1205 0.930 . S
C1211 C1207 1.400 . S
C1211 C1210 1.385 . S
C1212 C1210 1.478 . S
C1212 C1214 1.381 . S
C1212 C1218 1.383 . S
C1213 C1209 1.495 . S
C1213 H1219 0.959 . S
C1213 H1220 0.961 . S
C1213 H1221 0.960 . S
C1214 C1212 1.381 . S
C1214 C1215 1.394 . S
C1214 H1222 0.930 . S
C1215 C1214 1.394 . S
C1215 C1216 1.383 . S
C1215 H1223 0.929 . S
C1216 C1215 1.383 . S
C1216 C1217 1.377 . S
C1217 H1201 0.930 . S
C1217 C1216 1.377 . S
C1217 C1218 1.379 . S
C1218 H1202 0.931 . S
C1218 C1212 1.383 . S
C1218 C1217 1.379 . S
H1219 C1213 0.959 . S
H1220 C1213 0.961 . S
H1221 C1213 0.960 . S
H1222 C1214 0.930 . S
H1223 C1215 0.929 . S
H1224 C1232 0.929 . S
H1225 C1234 0.930 . S
H1226 C1236 0.930 . S
H1227 C1239 0.929 . S
H1228 C1242 0.930 . S
H1229 C1244 0.960 . S
H1230 C1244 0.960 . S
H1231 C1244 0.960 . S
C1232 H1224 0.929 . S
C1232 C1233 1.377 . S
C1232 C1234 1.384 . S
C1233 C1232 1.377 . S
C1233 C1239 1.390 . S
C1234 H1225 0.930 . S
C1234 C1232 1.384 . S
C1234 C1235 1.372 . S
C1235 C1234 1.372 . S
C1235 C1236 1.400 . S
C1235 C1240 1.490 . S
C1236 H1226 0.930 . S
C1236 C1235 1.400 . S
C1236 C1239 1.386 . S
H1237 C1253 0.930 . S
H1238 C1254 0.931 . S
C1239 H1227 0.929 . S
C1239 C1233 1.390 . S
C1239 C1236 1.386 . S
C1240 C1235 1.490 . S
C1240 C1242 1.395 . S
C1240 C1243 1.403 . S
H1241 C1247 0.930 . S
C1242 H1228 0.930 . S
C1242 C1240 1.395 . S
C1242 C1245 1.403 . S
C1243 C1240 1.403 . S
C1243 C1244 1.524 . S
C1243 C1247 1.400 . S
C1244 H1229 0.960 . S
C1244 H1230 0.960 . S
C1244 H1231 0.960 . S
C1244 C1243 1.524 . S
C1245 C1242 1.403 . S
C1245 C1246 1.392 . S
C1245 C1249 1.495 . S
C1246 C1245 1.392 . S
C1246 C1247 1.385 . S
C1246 C1248 1.478 . S
C1247 H1241 0.930 . S
C1247 C1243 1.400 . S
C1247 C1246 1.385 . S
C1248 C1246 1.478 . S
C1248 C1250 1.381 . S
C1248 C1254 1.383 . S
C1249 C1245 1.495 . S
C1249 H1255 0.959 . S
C1249 H1256 0.961 . S
C1249 H1257 0.960 . S
C1250 C1248 1.381 . S
C1250 C1251 1.394 . S
C1250 H1258 0.930 . S
C1251 C1250 1.394 . S
C1251 C1252 1.383 . S
C1251 H1259 0.929 . S
C1252 C1251 1.383 . S
C1252 C1253 1.377 . S
C1253 H1237 0.930 . S
C1253 C1252 1.377 . S
C1253 C1254 1.379 . S
C1254 H1238 0.931 . S
C1254 C1248 1.383 . S
C1254 C1253 1.379 . S
H1255 C1249 0.959 . S
H1256 C1249 0.961 . S
H1257 C1249 0.960 . S
H1258 C1250 0.930 . S
H1259 C1251 0.929 . S
H1260 C1268 0.929 . S
H1261 C1270 0.930 . S
H1262 C1272 0.930 . S
H1263 C1275 0.929 . S
H1264 C1278 0.930 . S
H1265 C1280 0.960 . S
H1266 C1280 0.960 . S
H1267 C1280 0.960 . S
C1268 H1260 0.929 . S
C1268 C1269 1.377 . S
C1268 C1270 1.384 . S
C1269 C1268 1.377 . S
C1269 C1275 1.390 . S
C1270 H1261 0.930 . S
C1270 C1268 1.384 . S
C1270 C1271 1.372 . S
C1271 C1270 1.372 . S
C1271 C1272 1.400 . S
C1271 C1276 1.490 . S
C1272 H1262 0.930 . S
C1272 C1271 1.400 . S
C1272 C1275 1.386 . S
H1273 C1289 0.930 . S
H1274 C1290 0.931 . S
C1275 H1263 0.929 . S
C1275 C1269 1.390 . S
C1275 C1272 1.386 . S
C1276 C1271 1.490 . S
C1276 C1278 1.395 1_565 S
C1276 C1279 1.403 . S
H1277 C1283 0.930 . S
C1278 H1264 0.930 . S
C1278 C1276 1.395 1_545 S
C1278 C1281 1.403 . S
C1279 C1276 1.403 . S
C1279 C1280 1.524 . S
C1279 C1283 1.400 . S
C1280 H1265 0.960 . S
C1280 H1266 0.960 . S
C1280 H1267 0.960 . S
C1280 C1279 1.524 . S
C1281 C1278 1.403 . S
C1281 C1282 1.392 . S
C1281 C1285 1.495 . S
C1282 C1281 1.392 . S
C1282 C1283 1.385 1_545 S
C1282 C1284 1.478 . S
C1283 H1277 0.930 . S
C1283 C1279 1.400 . S
C1283 C1282 1.385 1_565 S
C1284 C1282 1.478 . S
C1284 C1286 1.381 . S
C1284 C1290 1.383 . S
C1285 C1281 1.495 . S
C1285 H1291 0.959 . S
C1285 H1292 0.961 . S
C1285 H1293 0.960 . S
C1286 C1284 1.381 . S
C1286 C1287 1.394 . S
C1286 H1294 0.930 . S
C1287 C1286 1.394 . S
C1287 C1288 1.383 . S
C1287 H1295 0.929 . S
C1288 C1287 1.383 . S
C1288 C1289 1.377 . S
C1289 H1273 0.930 . S
C1289 C1288 1.377 . S
C1289 C1290 1.379 . S
C1290 H1274 0.931 . S
C1290 C1284 1.383 . S
C1290 C1289 1.379 . S
H1291 C1285 0.959 . S
H1292 C1285 0.961 . S
H1293 C1285 0.960 . S
H1294 C1286 0.930 . S
H1295 C1287 0.929 . S
H1296 C1304 0.929 . S
H1297 C1306 0.930 . S
H1298 C1308 0.930 . S
H1299 C1311 0.929 . S
H1300 C1314 0.930 . S
H1301 C1316 0.960 . S
H1302 C1316 0.960 . S
H1303 C1316 0.960 . S
C1304 H1296 0.929 . S
C1304 C1305 1.377 . S
C1304 C1306 1.384 . S
C1305 C1304 1.377 . S
C1305 C1311 1.390 . S
C1306 H1297 0.930 . S
C1306 C1304 1.384 . S
C1306 C1307 1.372 . S
C1307 C1306 1.372 . S
C1307 C1308 1.400 . S
C1307 C1312 1.490 . S
C1308 H1298 0.930 . S
C1308 C1307 1.400 . S
C1308 C1311 1.386 . S
H1309 C1325 0.930 . S
H1310 C1326 0.931 . S
C1311 H1299 0.929 . S
C1311 C1305 1.390 . S
C1311 C1308 1.386 . S
C1312 C1307 1.490 . S
C1312 C1314 1.395 . S
C1312 C1315 1.403 1_655 S
H1313 C1319 0.930 . S
C1314 H1300 0.930 . S
C1314 C1312 1.395 . S
C1314 C1317 1.409 . S
C1315 C1312 1.403 1_455 S
C1315 C1316 1.524 . S
C1315 C1319 1.400 . S
C1316 H1301 0.960 . S
C1316 H1302 0.960 . S
C1316 H1303 0.960 . S
C1316 C1315 1.524 . S
C1317 C1314 1.409 . S
C1317 C1318 1.389 1_655 S
C1317 C1321 1.493 . S
C1318 C1317 1.389 1_455 S
C1318 C1319 1.385 . S
C1318 C1320 1.478 . S
C1319 H1313 0.930 . S
C1319 C1315 1.400 . S
C1319 C1318 1.385 . S
C1320 C1318 1.478 . S
C1320 C1322 1.381 . S
C1320 C1326 1.383 . S
C1321 C1317 1.493 . S
C1321 H1327 0.959 . S
C1321 H1328 0.961 . S
C1321 H1329 0.960 1_655 S
C1322 C1320 1.381 . S
C1322 C1323 1.394 . S
C1322 H1330 0.930 . S
C1323 C1322 1.394 . S
C1323 C1324 1.383 . S
C1323 H1331 0.929 . S
C1324 C1323 1.383 . S
C1324 C1325 1.377 . S
C1325 H1309 0.930 . S
C1325 C1324 1.377 . S
C1325 C1326 1.379 . S
C1326 H1310 0.931 . S
C1326 C1320 1.383 . S
C1326 C1325 1.379 . S
H1327 C1321 0.959 . S
H1328 C1321 0.961 . S
H1329 C1321 0.960 1_455 S
H1330 C1322 0.930 . S
H1331 C1323 0.929 . S
C369 C65 0.356 . S
C388 C4 0.556 . S
C405 C100 3.243 . S
C424 C71 3.270 1_554 S
C441 C84 0.912 . S
C460 C20 0.907 . S
C477 C111 2.936 . S
C496 C60 2.908 . S
C513 C105 1.810 . S
C532 C31 1.820 . S
C549 C25 0.611 . S
C568 C44 0.668 . S
C585 C124 2.722 . S
C604 C180 2.733 . S
C621 C220 0.622 . S
C640 C164 0.668 . S
C657 C204 0.770 . S
C676 C140 0.768 . S
C693 C185 0.266 . S
C712 C231 0.317 . S
C729 C225 1.911 . S
C748 C151 1.907 . S
C765 C191 2.237 . S
C784 C145 2.241 . S
C801 C305 0.335 . S
C820 C244 0.397 . S
C837 C311 3.310 . S
C856 C340 3.270 . S
C873 C324 0.926 . S
C892 C260 0.921 . S
C909 C351 2.874 . S
C928 C300 2.859 . S
C945 C345 1.819 1_455 S
C964 C271 1.795 . S
C981 C265 0.592 . S
C1000 C284 0.726 . S
C1017 C202 2.353 . S
C1036 C23 2.575 . S
C1053 C122 2.074 . S
C1072 C42 2.052 . S
C1089 C103 2.935 . S
C1108 C162 2.761 . S
C1125 C82 2.363 . S
C1144 C263 2.587 . S
C1161 C2 2.036 . S
C1180 C282 1.996 . S
C1197 C343 2.931 . S
C1216 C63 2.943 . S
C1233 C143 2.628 . S
C1252 C322 2.419 . S
C1269 C183 2.188 . S
C1288 C242 2.050 . S
C1305 C303 2.900 . S
C1324 C223 2.883 . S
