# Generated by pormake.
# Topology snp, (6)-cn, num edge types: 1
# Building blocks:
#     Node 0, Type 0, BuildingBlock: BETFAJ_clean_sbu_0, # of connection points: 6
#     Node 1, Type 0, BuildingBlock: BETFAJ_clean_sbu_0, # of connection points: 6
#     Node 2, Type 0, BuildingBlock: BETFAJ_clean_sbu_0, # of connection points: 6
#     Node 3, Type 0, BuildingBlock: BETFAJ_clean_sbu_0, # of connection points: 6
#     Edge 4, Type (0, 0), BuildingBlock: UVAHIK_clean_linker_0, # of connection points: 2
#     Edge 5, Type (0, 0), BuildingBlock: UVAHIK_clean_linker_0, # of connection points: 2
#     Edge 6, Type (0, 0), BuildingBlock: UVAHIK_clean_linker_0, # of connection points: 2
#     Edge 7, Type (0, 0), BuildingBlock: UVAHIK_clean_linker_0, # of connection points: 2
#     Edge 8, Type (0, 0), BuildingBlock: UVAHIK_clean_linker_0, # of connection points: 2
#     Edge 9, Type (0, 0), BuildingBlock: UVAHIK_clean_linker_0, # of connection points: 2
#     Edge 10, Type (0, 0), BuildingBlock: UVAHIK_clean_linker_0, # of connection points: 2
#     Edge 11, Type (0, 0), BuildingBlock: UVAHIK_clean_linker_0, # of connection points: 2
#     Edge 12, Type (0, 0), BuildingBlock: UVAHIK_clean_linker_0, # of connection points: 2
#     Edge 13, Type (0, 0), BuildingBlock: UVAHIK_clean_linker_0, # of connection points: 2
#     Edge 14, Type (0, 0), BuildingBlock: UVAHIK_clean_linker_0, # of connection points: 2
#     Edge 15, Type (0, 0), BuildingBlock: UVAHIK_clean_linker_0, # of connection points: 2
# Relax obj value: 0.199
# Max RMSD: 0.204
# Mean RMSD: 0.199
data_MOF--net-snp--node1-BETFAJ_clean_sbu_0--edge1-UVAHIK_clean_linker_0
_symmetry_space_group_name_H-M    P1
_symmetry_Int_Tables_number       1
_symmetry_cell_setting            triclinic
loop_
_symmetry_equiv_pos_as_xyz
'x, y, z'
_cell_length_a     32.994909
_cell_length_b     31.9968
_cell_length_c     43.975827
_cell_angle_alpha  86.153824
_cell_angle_beta   101.22138
_cell_angle_gamma 94.587911
loop_
_atom_site_label
_atom_site_type_symbol
_atom_site_fract_x
_atom_site_fract_y
_atom_site_fract_z
_atom_type_partial_charge
Sm0 Sm 0.23807 0.14358 0.10593 0.0
Sm1 Sm 0.23389 0.06472 0.06709 0.0
C2 C 0.2324 0.20215 0.14445 0.0
C3 C 0.21635 0.20693 0.17287 0.0
C4 C 0.19216 0.1745 0.18522 0.0
C5 C 0.18026 0.17847 0.21376 0.0
C6 C 0.19241 0.215 0.23038 0.0
C7 C 0.21567 0.24779 0.21729 0.0
C8 C 0.2276 0.24369 0.18891 0.0
C9 C 0.31223 0.11868 0.0961 0.0
C10 C 0.22229 0.04971 0.13963 0.0
C11 C 0.24582 -0.00106 0.03727 0.0
C12 C 0.23715 0.98493 1.00495 0.0
C13 C 0.27018 0.98005 0.98985 0.0
C14 C 0.26277 0.96636 0.95955 0.0
C15 C 0.22211 0.95682 0.94366 0.0
C16 C 0.18904 0.96175 0.95879 0.0
C17 C 0.19644 0.9757 0.98903 0.0
C18 C 0.15937 0.1005 0.06268 0.0
C19 C 0.23266 0.15772 0.03217 0.0
O20 O 0.20523 0.19583 0.11886 0.0
O21 O 0.2641 0.17905 0.14766 0.0
O22 O 0.28257 0.09527 0.10264 0.0
O23 O 0.30419 0.15783 0.09515 0.0
O24 O 0.22056 0.0908 0.14012 0.0
O25 O 0.23075 0.03181 0.11542 0.0
O26 O 0.27375 0.03034 0.04341 0.0
O27 O 0.21423 0.0006 0.05115 0.0
O28 O 0.18718 0.09652 0.08646 0.0
O29 O 0.17036 0.0836 0.03973 0.0
O30 O 0.24773 0.12036 0.03337 0.0
O31 O 0.22091 0.17185 0.05641 0.0
H32 H 0.1832 0.1459 0.17308 0.0
H33 H 0.16258 0.1525 0.22318 0.0
H34 H 0.22486 0.27668 0.22906 0.0
H35 H 0.24623 0.26907 0.1797 0.0
H36 H 0.30187 0.98663 1.0016 0.0
H37 H 0.28899 0.96243 0.94878 0.0
H38 H 0.15732 0.95514 0.94713 0.0
H39 H 0.1702 0.97917 0.99988 0.0
Sm40 Sm 0.95283 0.22623 0.68665 0.0
Sm41 Sm 0.02241 0.25743 0.65383 0.0
C42 C 0.89688 0.1841 0.7148 0.0
C43 C 0.89208 0.17284 0.74708 0.0
C44 C 0.87532 0.13268 0.75451 0.0
C45 C 0.87107 0.12101 0.78501 0.0
C46 C 0.88335 0.1494 0.80873 0.0
C47 C 0.9 0.18976 0.8012 0.0
C48 C 0.90457 0.2013 0.77069 0.0
C49 C 0.95181 0.30912 0.66647 0.0
C50 C 0.03438 0.27012 0.72855 0.0
C51 C 0.08053 0.29234 0.62457 0.0
C52 C 0.08817 0.29043 0.59271 0.0
C53 C 0.05553 0.29122 0.56688 0.0
C54 C 0.06281 0.28563 0.53714 0.0
C55 C 0.10279 0.27869 0.5326 0.0
C56 C 0.13538 0.27822 0.55859 0.0
C57 C 0.12812 0.2841 0.58826 0.0
C58 C 0.02477 0.17473 0.67599 0.0
C59 C 0.94245 0.21344 0.61128 0.0
O60 O 0.92577 0.16601 0.70498 0.0
O61 O 0.89499 0.22373 0.70554 0.0
O62 O 0.95925 0.27955 0.6514 0.0
O63 O 0.94282 0.29546 0.69297 0.0
O64 O 0.0021 0.24312 0.72893 0.0
O65 O 0.04569 0.28445 0.70229 0.0
O66 O 0.04853 0.31202 0.62805 0.0
O67 O 0.08454 0.25729 0.64154 0.0
O68 O 0.01727 0.20495 0.69041 0.0
O69 O 0.02818 0.18773 0.64797 0.0
O70 O 0.97414 0.24109 0.61126 0.0
O71 O 0.93089 0.19925 0.63753 0.0
H72 H 0.86556 0.11024 0.73668 0.0
H73 H 0.85772 0.08986 0.78997 0.0
H74 H 0.91014 0.21216 0.819 0.0
H75 H 0.91803 0.23237 0.76562 0.0
H76 H 0.02426 0.29553 0.56969 0.0
H77 H 0.03704 0.28676 0.51771 0.0
H78 H 0.16641 0.27224 0.55619 0.0
H79 H 0.15362 0.28271 0.60791 0.0
Sm80 Sm 0.78293 0.97892 0.17607 0.0
Sm81 Sm 0.77253 0.89712 0.13972 0.0
C82 C 0.77783 0.04804 0.20443 0.0
C83 C 0.78645 0.05899 0.23718 0.0
C84 C 0.78203 0.09992 0.24488 0.0
C85 C 0.79043 0.11052 0.27597 0.0
C86 C 0.80348 0.08035 0.3 0.0
C87 C 0.80757 0.03917 0.29207 0.0
C88 C 0.79914 0.02862 0.26096 0.0
C89 C 0.85031 0.93039 0.18822 0.0
C90 C 0.76629 0.88953 0.21185 0.0
C91 C 0.77615 0.83683 0.10204 0.0
C92 C 0.79519 0.83318 0.07473 0.0
C93 C 0.82763 0.86165 0.0686 0.0
C94 C 0.84222 0.86092 0.04077 0.0
C95 C 0.82497 0.83127 1.01877 0.0
C96 C 0.7933 0.80204 0.0255 0.0
C97 C 0.77842 0.80317 0.05313 0.0
C98 C 0.70112 0.93364 0.14317 0.0
C99 C 0.80251 0.9871 0.10604 0.0
O100 O 0.7462 0.02088 0.19645 0.0
O101 O 0.81017 0.04084 0.1928 0.0
O102 O 0.82732 0.93732 0.16231 0.0
O103 O 0.83954 0.95213 0.20885 0.0
O104 O 0.75485 0.92848 0.20713 0.0
O105 O 0.77964 0.87064 0.19017 0.0
O106 O 0.80121 0.84058 0.12894 0.0
O107 O 0.74602 0.86205 0.0978 0.0
O108 O 0.73421 0.95252 0.1383 0.0
O109 O 0.70416 0.89328 0.14586 0.0
O110 O 0.79938 0.94562 0.10664 0.0
O111 O 0.79414 0.00821 0.12869 0.0
H112 H 0.77207 0.1237 0.22684 0.0
H113 H 0.7863 0.14234 0.28118 0.0
H114 H 0.81797 0.01523 0.30985 0.0
H115 H 0.80272 -0.00322 0.25543 0.0
H116 H 0.84118 0.88484 0.08513 0.0
H117 H 0.86693 0.88357 0.03645 0.0
H118 H 0.77906 0.7791 1.00894 0.0
H119 H 0.75312 0.78117 0.0573 0.0
Sm120 Sm 0.00552 0.81409 0.59238 0.0
Sm121 Sm 0.08107 0.81306 0.55887 0.0
C122 C 0.94014 0.80274 0.61942 0.0
C123 C 0.93272 0.8053 0.65137 0.0
C124 C 0.95868 0.78675 0.67708 0.0
C125 C 0.95157 0.79011 0.70717 0.0
C126 C 0.91867 0.81246 0.71226 0.0
C127 C 0.89294 0.83122 0.6865 0.0
C128 C 0.89984 0.82753 0.65638 0.0
C129 C 0.04748 0.89045 0.5846 0.0
C130 C 0.09602 0.81195 0.63633 0.0
C131 C 0.14484 0.82762 0.52991 0.0
C132 C 0.14901 0.83947 0.49752 0.0
C133 C 0.11496 0.85282 0.47564 0.0
C134 C 0.11916 0.86501 0.44516 0.0
C135 C 0.15755 0.86408 0.43581 0.0
C136 C 0.19149 0.85016 0.45779 0.0
C137 C 0.18723 0.83804 0.48833 0.0
C138 C 0.04073 0.7365 0.56935 0.0
C139 C 0.98906 0.81627 0.51668 0.0
O140 O 0.96149 0.77192 0.6144 0.0
O141 O 0.95007 0.83829 0.60527 0.0
O142 O 0.03978 0.86265 0.56487 0.0
O143 O 0.0306 0.87948 0.60845 0.0
O144 O 0.05595 0.80307 0.63478 0.0
O145 O 0.11275 0.81866 0.6111 0.0
O146 O 0.13107 0.85609 0.54453 0.0
O147 O 0.12805 0.79002 0.53498 0.0
O148 O 0.04908 0.76547 0.58797 0.0
O149 O 0.05567 0.74642 0.54441 0.0
O150 O 0.02852 0.8287 0.51826 0.0
O151 O 0.97415 0.803 0.54168 0.0
H152 H 0.98464 0.76986 0.67399 0.0
H153 H 0.97227 0.77576 0.72652 0.0
H154 H 0.86714 0.84833 0.68959 0.0
H155 H 0.8795 0.8422 0.63695 0.0
H156 H 0.08512 0.85405 0.48218 0.0
H157 H 0.0922 0.87492 0.42885 0.0
H158 H 0.22161 0.84944 0.45158 0.0
H159 H 0.21392 0.82789 0.50486 0.0
C160 C 0.90155 0.89746 0.16571 0.0
C161 C 0.89319 0.9207 0.18944 0.0
C162 C 0.9383 0.90639 0.15478 0.0
C163 C 0.03104 0.98146 0.16006 0.0
H164 H 0.97739 0.01494 0.07621 0.0
C165 C 0.10772 0.11092 0.09427 0.0
C166 C 0.11622 0.09693 0.06674 0.0
C167 C 0.07665 0.0899 0.10786 0.0
C168 C -0.00718 0.00564 0.09946 0.0
H169 H 0.91966 0.96354 0.22531 0.0
H170 H 0.98345 0.9797 0.20602 0.0
H171 H 0.942 0.96345 0.10689 0.0
H172 H 0.09386 0.05662 0.02842 0.0
H173 H 0.03927 0.02022 0.05197 0.0
H174 H 0.08156 0.02449 0.15268 0.0
C175 C 0.96186 0.95515 0.1954 0.0
C176 C 0.97295 0.97566 0.11692 0.0
C177 C 0.9252 0.94587 0.20652 0.0
C178 C 0.08827 0.06756 0.04993 0.0
C179 C 0.05716 0.04644 0.06356 0.0
C180 C 0.05095 0.01145 0.14256 0.0
C181 C 0.96643 0.9388 0.16746 0.0
C182 C 0.99161 0.96369 0.14755 0.0
C183 C 0.05361 0.05518 0.09378 0.0
C184 C 0.03164 0.02435 0.11232 0.0
H185 H 0.87747 0.87712 0.15269 0.0
H186 H 0.94189 0.89234 0.13379 0.0
H187 H 0.04598 0.97288 0.18359 0.0
H188 H 0.12859 0.13406 0.10737 0.0
H189 H 0.0734 0.09813 0.13073 0.0
C190 C 0.12106 0.9182 0.59533 0.0
C191 C 0.07901 0.92563 0.58551 0.0
C192 C 0.14886 0.94888 0.61033 0.0
C193 C 0.16272 0.0562 0.63598 0.0
H194 H 0.13902 0.00829 0.71453 0.0
C195 C 0.04292 0.10122 0.6873 0.0
C196 C 0.05324 0.14388 0.69148 0.0
C197 C 0.07419 0.07338 0.69131 0.0
C198 C 0.14813 0.02216 0.6935 0.0
H199 H 0.03415 0.97256 0.57952 0.0
H200 H 0.083 0.02712 0.604 0.0
H201 H 0.14867 0.96219 0.6751 0.0
H202 H 0.10291 0.19089 0.70623 0.0
H203 H 0.15793 0.14251 0.71137 0.0
H204 H 0.15747 0.11594 0.65298 0.0
C205 C 0.09455 -0.00264 0.60056 0.0
C206 C 0.15362 -0.0042 0.67081 0.0
C207 C 0.0665 0.96618 0.58655 0.0
C208 C 0.09448 0.15779 0.70316 0.0
C209 C 0.12592 0.13019 0.70628 0.0
C210 C 0.15849 0.08258 0.65899 0.0
C211 C 0.13505 0.98783 0.61463 0.0
C212 C 0.15603 0.0127 0.64081 0.0
C213 C 0.1161 0.08841 0.69832 0.0
C214 C 0.14609 0.0654 0.68632 0.0
H215 H 0.13184 0.88759 0.59478 0.0
H216 H 0.17979 0.94079 0.62123 0.0
H217 H 0.16485 0.06979 0.61306 0.0
H218 H 0.01131 0.09016 0.67802 0.0
H219 H 0.06577 0.04139 0.68464 0.0
C220 C 0.62523 0.9314 0.14255 0.0
C221 C 0.66272 0.95471 0.14129 0.0
C222 C 0.58845 0.95164 0.13852 0.0
C223 C 0.54196 0.04882 0.10401 0.0
H224 H 0.45772 0.01235 0.15222 0.0
C225 C 0.38853 0.13061 0.09723 0.0
C226 C 0.35315 0.10311 0.09698 0.0
C227 C 0.42773 0.11473 0.10199 0.0
C228 C 0.48091 0.02269 0.13845 0.0
H229 H 0.69174 0.01732 0.13579 0.0
H230 H 0.62768 0.05271 0.12931 0.0
H231 H 0.52387 0.98029 0.16356 0.0
H232 H 0.33048 0.03766 0.09984 0.0
H233 H 0.3984 0.01017 0.10767 0.0
H234 H 0.49866 0.0912 0.07887 0.0
C235 C 0.62646 0.01883 0.13281 0.0
C236 C 0.51871 0.0043 0.14492 0.0
C237 C 0.66314 -0.0014 0.13675 0.0
C238 C 0.35728 0.05963 0.10012 0.0
C239 C 0.39618 0.04387 0.10486 0.0
C240 C 0.50409 0.06736 0.09759 0.0
C241 C 0.58866 -0.00447 0.13328 0.0
C242 C 0.54943 0.01675 0.12751 0.0
C243 C 0.43185 0.07123 0.10663 0.0
C244 C 0.47302 0.05394 0.11445 0.0
H245 H 0.62417 0.8975 0.14595 0.0
H246 H 0.55972 0.93279 0.13868 0.0
H247 H 0.56493 0.05878 0.08997 0.0
H248 H 0.38604 0.16428 0.09485 0.0
H249 H 0.45485 0.13645 0.10322 0.0
C250 C 0.9625 0.36475 0.62583 0.0
C251 C 0.95466 0.35358 0.65567 0.0
C252 C 0.96703 0.40694 0.61594 0.0
C253 C -0.00417 0.51117 0.64627 0.0
H254 H 0.94863 0.55096 0.5626 0.0
C255 C 0.01353 0.68533 0.60698 0.0
C256 C 0.02401 0.69416 0.57766 0.0
C257 C 0.00056 0.64456 0.6159 0.0
C258 C 0.96226 0.54024 0.58594 0.0
H259 H 0.94467 0.37735 0.69842 0.0
H260 H 0.95246 0.45128 0.68109 0.0
H261 H 0.93436 0.47789 0.57945 0.0
H262 H 0.02821 0.66785 0.53435 0.0
H263 H 0.00628 0.59629 0.55014 0.0
H264 H 0.02445 0.57306 0.65267 0.0
C265 C 0.95544 0.42744 0.66545 0.0
C266 C 0.95407 0.49846 0.59561 0.0
C267 C 0.95077 0.38521 0.6753 0.0
C268 C 0.02026 0.6618 0.5571 0.0
C269 C 0.00747 0.62092 0.56607 0.0
C270 C 0.00413 0.55286 0.63659 0.0
C271 C 0.96391 0.43872 0.63575 0.0
C272 C 0.97096 0.48345 0.62581 0.0
C273 C -0.00193 0.61174 0.59577 0.0
C274 C 0.98763 0.56784 0.60628 0.0
H275 H 0.9656 0.34092 0.61023 0.0
H276 H 0.97402 0.41465 0.59307 0.0
H277 H 0.00983 0.50035 0.6695 0.0
H278 H 0.01617 0.70971 0.6233 0.0
H279 H -0.00711 0.63869 0.63873 0.0
C280 C 0.14748 0.2875 0.49188 0.0
C281 C 0.11048 0.27148 0.50105 0.0
C282 C 0.15501 0.28036 0.46252 0.0
C283 C 0.1216 0.21165 0.39591 0.0
H284 H 0.17853 0.30051 0.35271 0.0
C285 C 0.14294 0.20418 0.2679 0.0
C286 C 0.18195 0.21885 0.26154 0.0
C287 C 0.13308 0.2093 0.29698 0.0
C288 C 0.16292 0.27522 0.36457 0.0
H289 H 0.05257 0.2348 0.48624 0.0
H290 H 0.06509 0.22363 0.43468 0.0
H291 H 0.16311 0.3124 0.4032 0.0
H292 H 0.24179 0.24861 0.28145 0.0
H293 H 0.22449 0.25786 0.33176 0.0
H294 H 0.12117 0.1747 0.35688 0.0
C295 C 0.08862 0.24122 0.45044 0.0
C296 C 0.15414 0.28199 0.39361 0.0
C297 C 0.08117 0.24817 0.47992 0.0
C298 C 0.21109 0.23789 0.2852 0.0
C299 C 0.20121 0.24314 0.31411 0.0
C300 C 0.1302 0.20496 0.3667 0.0
C301 C 0.12564 0.25726 0.44131 0.0
C302 C 0.13372 0.2502 0.40986 0.0
C303 C 0.16197 0.22932 0.32029 0.0
C304 C 0.15134 0.23655 0.35084 0.0
H305 H 0.17062 0.30598 0.5073 0.0
H306 H 0.18415 0.29272 0.45657 0.0
H307 H 0.10627 0.18625 0.40785 0.0
H308 H 0.11965 0.18964 0.25019 0.0
H309 H 0.10249 0.19854 0.30095 0.0
C310 C 0.88974 0.09681 0.85408 0.0
C311 C 0.87883 0.13664 0.84115 0.0
C312 C 0.88389 0.08383 0.88398 0.0
C313 C 0.8645 0.12157 0.95779 0.0
H314 H 0.82399 0.00563 0.96944 0.0
C315 C 0.80573 0.05069 0.06909 0.0
C316 C 0.81625 0.00954 0.07882 0.0
C317 C 0.81545 0.0693 0.0413 0.0
C318 C 0.83572 0.038 0.96673 0.0
H319 H 0.85383 0.19439 0.84975 0.0
H320 H 0.84301 0.17149 0.90192 0.0
H321 H 0.83672 0.03189 0.91885 0.0
H322 H 0.84824 0.95718 0.0684 0.0
H323 H 0.86517 0.98933 1.02056 0.0
H324 H 0.8629 0.12743 1.00593 0.0
C325 C 0.85668 0.15049 0.88908 0.0
C326 C 0.84313 0.05307 0.93766 0.0
C327 C 0.86279 0.1636 0.85915 0.0
C328 C 0.83859 0.98841 0.06117 0.0
C329 C 0.84834 0.00689 0.03367 0.0
C330 C 0.8569 0.10644 0.987 0.0
C331 C 0.86666 0.11019 0.90173 0.0
C332 C 0.85804 0.09491 0.93281 0.0
C333 C 0.83594 0.04707 1.0229 0.0
C334 C 0.84286 0.0643 0.99186 0.0
H335 H 0.90295 0.07562 0.84107 0.0
H336 H 0.89291 0.05299 0.8932 0.0
H337 H 0.87624 0.15389 0.95497 0.0
H338 H 0.78864 0.06781 0.08226 0.0
H339 H 0.80551 0.10035 0.03364 0.0
C340 C 0.97283 0.84273 0.46113 0.0
C341 C 0.96057 0.8189 0.48623 0.0
C342 C 0.9456 0.84664 0.43268 0.0
C343 C 0.85544 0.79679 0.38332 0.0
H344 H 0.84366 0.90861 0.34425 0.0
C345 C 0.7948 0.83495 0.25227 0.0
C346 C 0.77229 0.87084 0.24403 0.0
C347 C 0.80979 0.82376 0.28352 0.0
C348 C 0.84612 0.87722 0.355 0.0
H349 H 0.91041 0.7796 0.50088 0.0
H350 H 0.86297 0.78598 0.45076 0.0
H351 H 0.8872 0.89942 0.39541 0.0
H352 H 0.74429 0.92055 0.26226 0.0
H353 H 0.77031 0.90088 0.31653 0.0
H354 H 0.81508 0.77457 0.34234 0.0
C355 C 0.89363 0.80179 0.45335 0.0
C356 C 0.87142 0.87196 0.38414 0.0
C357 C 0.92071 0.79834 0.48203 0.0
C358 C 0.76189 0.89296 0.26771 0.0
C359 C 0.77699 0.88187 0.29886 0.0
C360 C 0.83043 0.80201 0.35387 0.0
C361 C 0.90569 0.82639 0.42853 0.0
C362 C 0.87675 0.8317 0.39844 0.0
C363 C 0.80259 0.84829 0.30704 0.0
C364 C 0.82579 0.84229 0.33933 0.0
H365 H 0.00328 0.85898 0.46355 0.0
H366 H 0.95584 0.86543 0.4138 0.0
H367 H 0.85914 0.76539 0.39383 0.0
H368 H 0.80334 0.81718 0.23465 0.0
H369 H 0.82949 0.79773 0.28912 0.0
C370 C 0.1551 0.84886 0.6719 0.0
C371 C 0.12115 0.81894 0.66763 0.0
C372 C 0.17272 0.86199 0.70173 0.0
C373 C 0.17644 0.83429 0.78603 0.0
H374 H 0.19391 0.95446 0.79496 0.0
C375 C 0.1845 0.90778 0.90342 0.0
C376 C 0.21426 0.94108 0.91169 0.0
C377 C 0.17751 0.89244 0.87365 0.0
C378 C 0.18973 0.92079 0.79287 0.0
H379 H 0.08065 0.77769 0.69145 0.0
H380 H 0.11146 0.7999 0.74304 0.0
H381 H 0.17643 0.92706 0.74313 0.0
H382 H 0.25954 0.98479 0.89475 0.0
H383 H 0.24742 0.95789 0.84276 0.0
H384 H 0.18876 0.82801 0.83569 0.0
C385 C 0.12468 0.8134 0.7236 0.0
C386 C 0.17984 0.90505 0.76313 0.0
C387 C 0.10689 0.80068 0.69392 0.0
C388 C 0.23665 0.95886 0.88927 0.0
C389 C 0.22945 0.94368 0.85938 0.0
C390 C 0.18618 0.85 0.8157 0.0
C391 C 0.15712 0.84499 0.72789 0.0
C392 C 0.17235 0.86159 0.75933 0.0
C393 C 0.19994 0.9101 0.85123 0.0
C394 C 0.19227 0.89348 0.81954 0.0
H395 H 0.16653 0.86382 0.65211 0.0
H396 H 0.19793 0.88611 0.70422 0.0
H397 H 0.17162 0.80063 0.78402 0.0
H398 H 0.16695 0.89308 0.92014 0.0
H399 H 0.15416 0.86692 0.86809 0.0
C400 C 0.84552 0.79344 0.97637 0.0
C401 C 0.83899 0.83135 0.98853 0.0
C402 C 0.85679 0.79323 0.9473 0.0
C403 C 0.85045 0.85429 0.87285 0.0
H404 H 0.93437 0.78295 0.85967 0.0
C405 C 0.90199 0.85463 0.75407 0.0
C406 C 0.91118 0.81609 0.74431 0.0
C407 C 0.89501 0.85798 0.7842 0.0
C408 C 0.91045 0.80266 0.86277 0.0
H409 H 0.83938 0.89885 0.97964 0.0
H410 H 0.85899 0.89845 0.92878 0.0
H411 H 0.91929 0.78609 0.91153 0.0
H412 H 0.91951 0.7507 0.75849 0.0
H413 H 0.90652 0.75618 0.81069 0.0
H414 H 0.84077 0.87015 0.82404 0.0
C415 C 0.85533 0.86887 0.94179 0.0
C416 C 0.90194 0.80457 0.89259 0.0
C417 C 0.84448 0.86913 0.97104 0.0
C418 C 0.91309 0.78098 0.7654 0.0
C419 C 0.90575 0.78421 0.79543 0.0
C420 C 0.85869 0.85213 0.84294 0.0
C421 C 0.86144 0.83088 0.92951 0.0
C422 C 0.87168 0.83022 0.89799 0.0
C423 C 0.89668 0.82279 0.80533 0.0
C424 C 0.88866 0.82608 0.83741 0.0
H425 H 0.84186 0.76385 0.98935 0.0
H426 H 0.86093 0.76339 0.93844 0.0
H427 H 0.82658 0.87398 0.87613 0.0
H428 H 0.90082 0.88242 0.73852 0.0
H429 H 0.88884 0.88838 0.79103 0.0
C430 C 0.22786 0.98411 0.17529 0.0
C431 C 0.21225 0.02372 0.16685 0.0
C432 C 0.21997 0.96169 0.2024 0.0
C433 C 0.14976 0.95507 0.2597 0.0
H434 H 0.24202 0.90897 0.31697 0.0
C435 C 0.14259 0.91353 0.38847 0.0
C436 C 0.16226 0.87827 0.40347 0.0
C437 C 0.14725 0.92725 0.35835 0.0
C438 C 0.21569 0.92104 0.30111 0.0
H439 H 0.17428 0.06967 0.17936 0.0
H440 H 0.16067 0.03101 0.22608 0.0
H441 H 0.25185 0.93852 0.26606 0.0
H442 H 0.2018 0.82941 0.39799 0.0
H443 H 0.20983 0.85324 0.34544 0.0
H444 H 0.11364 0.93807 0.29469 0.0
C445 C 0.17915 0.01713 0.2121 0.0
C446 C 0.22137 0.93799 0.27184 0.0
C447 C 0.1874 0.03959 0.1854 0.0
C448 C 0.18664 0.85702 0.38739 0.0
C449 C 0.19125 0.87072 0.35719 0.0
C450 C 0.14405 0.93804 0.28886 0.0
C451 C 0.1957 0.97812 0.22125 0.0
C452 C 0.18867 0.95595 0.25098 0.0
C453 C 0.17166 0.90609 0.34223 0.0
C454 C 0.17711 0.92147 0.31025 0.0
H455 H 0.24701 0.97098 0.16144 0.0
H456 H 0.2329 0.93154 0.20864 0.0
H457 H 0.12367 0.96793 0.24402 0.0
H458 H 0.12418 0.93117 0.40025 0.0
H459 H 0.13234 0.95508 0.34795 0.0
C460 C 0.04522 0.28693 0.78398 0.0
C461 C 0.06197 0.27793 0.75844 0.0
C462 C 0.06913 0.28469 0.81391 0.0
C463 C 0.17591 0.26478 0.85931 0.0
H464 H 0.11221 0.21936 0.92078 0.0
C465 C 0.23655 0.16921 0.97557 0.0
C466 C 0.22356 0.18195 1.00196 0.0
C467 C 0.22238 0.1884 0.94623 0.0
C468 C 0.13039 0.23242 0.90394 0.0
H469 H 0.11691 0.26076 0.74364 0.0
H470 H 0.15815 0.2545 0.79588 0.0
H471 H 0.07654 0.23975 0.86909 0.0
H472 H 0.18721 0.22637 1.0183 0.0
H473 H 0.16199 0.25888 0.96717 0.0
H474 H 0.22998 0.25435 0.89441 0.0
C475 C 0.12722 0.26501 0.7931 0.0
C476 C 0.10995 0.2446 0.87423 0.0
C477 C 0.10361 0.26859 0.76304 0.0
C478 C 0.19785 0.21564 0.99856 0.0
C479 C 0.18326 0.23428 0.96927 0.0
C480 C 0.19644 0.25163 0.88899 0.0
C481 C 0.10984 0.2716 0.81911 0.0
C482 C 0.13228 0.26105 0.85137 0.0
C483 C 0.19457 0.22017 0.94277 0.0
C484 C 0.17376 0.23543 0.91153 0.0
H485 H 0.01309 0.29414 0.78091 0.0
H486 H 0.05495 0.29161 0.83305 0.0
H487 H 0.19434 0.27774 0.84264 0.0
H488 H 0.2564 0.14343 0.97738 0.0
H489 H 0.23136 0.17687 0.92607 0.0
C490 C 0.83382 0.13109 0.34111 0.0
C491 C 0.81325 0.09203 0.33309 0.0
C492 C 0.84282 0.14241 0.37199 0.0
C493 C 0.85604 0.09884 0.4532 0.0
H494 H 0.84636 0.21458 0.47027 0.0
C495 C 0.89458 0.16122 0.5783 0.0
C496 C 0.92026 0.19858 0.5808 0.0
C497 C 0.87652 0.14656 0.54895 0.0
C498 C 0.84932 0.18214 0.46591 0.0
H499 H 0.78598 0.03424 0.35159 0.0
H500 H 0.80184 0.054 0.40556 0.0
H501 H 0.82497 0.19191 0.41743 0.0
H502 H 0.94615 0.25029 0.55438 0.0
H503 H 0.91478 0.22508 0.50388 0.0
H504 H 0.88097 0.08944 0.50184 0.0
C505 C 0.81132 0.07573 0.38789 0.0
C506 C 0.83719 0.16916 0.43557 0.0
C507 C 0.80225 0.0644 0.35691 0.0
C508 C 0.92662 0.22136 0.55344 0.0
C509 C 0.90835 0.20704 0.52435 0.0
C510 C 0.86813 0.11186 0.48368 0.0
C511 C 0.83153 0.11501 0.3958 0.0
C512 C 0.84123 0.12759 0.42865 0.0
C513 C 0.88332 0.16936 0.52165 0.0
C514 C 0.86577 0.15393 0.49024 0.0
H515 H 0.84359 0.15283 0.32355 0.0
H516 H 0.85926 0.17251 0.37724 0.0
H517 H 0.8598 0.06665 0.44872 0.0
H518 H 0.88923 0.14287 0.59892 0.0
H519 H 0.85723 0.11747 0.54761 0.0
loop_
_geom_bond_atom_site_label_1
_geom_bond_atom_site_label_2
_geom_bond_distance
_geom_bond_site_symmetry_2
_ccdc_geom_bond_type
Sm0 C2 2.846 . S
Sm0 O20 2.543 . S
Sm0 O21 2.450 . S
Sm0 O22 2.681 . S
Sm0 O23 2.464 . S
Sm0 O24 2.396 . S
Sm0 O28 2.386 . S
Sm0 O31 2.408 . S
Sm1 C11 2.846 1_544 S
Sm1 O22 2.386 . S
Sm1 O25 2.408 1_545 S
Sm1 O26 2.544 . S
Sm1 O27 2.450 1_545 S
Sm1 O28 2.681 . S
Sm1 O29 2.464 . S
Sm1 O30 2.396 . S
C2 Sm0 2.846 . S
C2 C3 1.506 . S
C2 O20 1.261 . S
C2 O21 1.242 . S
C3 C2 1.506 . S
C3 C4 1.358 . S
C3 C8 1.382 . S
C4 C3 1.358 . S
C4 C5 1.385 . S
C4 H32 0.930 . S
C5 C4 1.385 . S
C5 C6 1.395 . S
C5 H33 0.929 . S
C6 C5 1.395 . S
C6 C7 1.335 . S
C7 C6 1.335 . S
C7 C8 1.398 . S
C7 H34 0.930 . S
C8 C3 1.382 . S
C8 C7 1.398 . S
C8 H35 0.929 . S
C9 O22 1.271 . S
C9 O23 1.251 . S
C10 O24 1.252 . S
C10 O25 1.272 1_545 S
C11 Sm1 2.846 1_566 S
C11 C12 1.506 . S
C11 O26 1.258 1_566 S
C11 O27 1.242 1_556 S
C12 C11 1.506 . S
C12 C13 1.358 . S
C12 C17 1.382 . S
C13 C12 1.358 . S
C13 C14 1.385 . S
C13 H36 0.930 . S
C14 C13 1.385 . S
C14 C15 1.395 . S
C14 H37 0.929 . S
C15 C14 1.395 . S
C15 C16 1.335 . S
C16 C15 1.335 . S
C16 C17 1.398 . S
C16 H38 0.930 . S
C17 C12 1.382 . S
C17 C16 1.398 . S
C17 H39 0.929 . S
C18 O28 1.271 . S
C18 O29 1.251 . S
C19 O30 1.252 . S
C19 O31 1.272 . S
O20 Sm0 2.543 . S
O20 C2 1.261 . S
O21 Sm0 2.450 . S
O21 C2 1.242 . S
O22 Sm0 2.681 . S
O22 Sm1 2.386 . S
O22 C9 1.271 . S
O23 Sm0 2.464 . S
O23 C9 1.251 . S
O24 Sm0 2.396 . S
O24 C10 1.252 . S
O25 Sm1 2.408 1_565 S
O25 C10 1.272 1_565 S
O26 Sm1 2.544 . S
O26 C11 1.258 1_544 S
O27 Sm1 2.450 1_565 S
O27 C11 1.242 1_554 S
O28 Sm0 2.386 . S
O28 Sm1 2.681 . S
O28 C18 1.271 . S
O29 Sm1 2.464 . S
O29 C18 1.251 . S
O30 Sm1 2.396 . S
O30 C19 1.252 . S
O31 Sm0 2.408 . S
O31 C19 1.272 . S
H32 C4 0.930 . S
H33 C5 0.929 . S
H34 C7 0.930 . S
H35 C8 0.929 . S
H36 C13 0.930 . S
H37 C14 0.929 . S
H38 C16 0.930 . S
H39 C17 0.929 . S
Sm40 C42 2.846 . S
Sm40 O60 2.543 . S
Sm40 O61 2.450 . S
Sm40 O62 2.681 1_655 S
Sm40 O63 2.464 . S
Sm40 O64 2.396 1_655 S
Sm40 O68 2.386 1_655 S
Sm40 O71 2.408 . S
Sm41 C51 2.846 . S
Sm41 O62 2.386 . S
Sm41 O65 2.408 . S
Sm41 O66 2.543 . S
Sm41 O67 2.450 . S
Sm41 O68 2.681 . S
Sm41 O69 2.464 . S
Sm41 O70 2.396 . S
C42 Sm40 2.846 . S
C42 C43 1.506 . S
C42 O60 1.261 . S
C42 O61 1.242 . S
C43 C42 1.506 . S
C43 C44 1.358 . S
C43 C48 1.382 . S
C44 C43 1.358 . S
C44 C45 1.385 . S
C44 H72 0.930 . S
C45 C44 1.385 . S
C45 C46 1.395 . S
C45 H73 0.929 . S
C46 C45 1.395 . S
C46 C47 1.335 . S
C47 C46 1.335 . S
C47 C48 1.398 . S
C47 H74 0.930 . S
C48 C43 1.382 . S
C48 C47 1.398 . S
C48 H75 0.929 . S
C49 O62 1.271 . S
C49 O63 1.251 1_455 S
C50 O64 1.252 . S
C50 O65 1.272 . S
C51 Sm41 2.846 . S
C51 C52 1.506 . S
C51 O66 1.261 . S
C51 O67 1.242 . S
C52 C51 1.506 . S
C52 C53 1.358 . S
C52 C57 1.382 . S
C53 C52 1.358 . S
C53 C54 1.385 . S
C53 H76 0.930 . S
C54 C53 1.385 . S
C54 C55 1.395 . S
C54 H77 0.929 . S
C55 C54 1.395 . S
C55 C56 1.335 . S
C56 C55 1.335 . S
C56 C57 1.398 . S
C56 H78 0.930 . S
C57 C52 1.382 . S
C57 C56 1.398 . S
C57 H79 0.929 . S
C58 O68 1.271 . S
C58 O69 1.251 . S
C59 O70 1.252 1_655 S
C59 O71 1.272 . S
O60 Sm40 2.543 . S
O60 C42 1.261 . S
O61 Sm40 2.450 . S
O61 C42 1.242 . S
O62 Sm40 2.681 1_455 S
O62 Sm41 2.386 . S
O62 C49 1.271 . S
O63 Sm40 2.464 . S
O63 C49 1.251 1_655 S
O64 Sm40 2.396 1_455 S
O64 C50 1.252 . S
O65 Sm41 2.408 . S
O65 C50 1.272 . S
O66 Sm41 2.543 . S
O66 C51 1.261 . S
O67 Sm41 2.450 . S
O67 C51 1.242 . S
O68 Sm40 2.386 1_455 S
O68 Sm41 2.681 . S
O68 C58 1.271 . S
O69 Sm41 2.464 . S
O69 C58 1.251 . S
O70 Sm41 2.396 . S
O70 C59 1.252 1_455 S
O71 Sm40 2.408 . S
O71 C59 1.272 . S
H72 C44 0.930 . S
H73 C45 0.929 . S
H74 C47 0.930 . S
H75 C48 0.929 . S
H76 C53 0.930 . S
H77 C54 0.929 . S
H78 C56 0.930 . S
H79 C57 0.929 . S
Sm80 C82 2.846 . S
Sm80 O100 2.543 . S
Sm80 O101 2.450 . S
Sm80 O102 2.681 1_545 S
Sm80 O103 2.464 . S
Sm80 O104 2.396 1_545 S
Sm80 O108 2.386 . S
Sm80 O111 2.408 . S
Sm81 C91 2.846 . S
Sm81 O102 2.386 . S
Sm81 O105 2.408 . S
Sm81 O106 2.543 . S
Sm81 O107 2.450 . S
Sm81 O108 2.681 1_565 S
Sm81 O109 2.464 . S
Sm81 O110 2.396 1_565 S
C82 Sm80 2.846 . S
C82 C83 1.506 . S
C82 O100 1.261 . S
C82 O101 1.242 . S
C83 C82 1.506 . S
C83 C84 1.358 . S
C83 C88 1.382 . S
C84 C83 1.358 . S
C84 C85 1.385 . S
C84 H112 0.930 . S
C85 C84 1.385 . S
C85 C86 1.395 . S
C85 H113 0.929 . S
C86 C85 1.395 . S
C86 C87 1.335 . S
C87 C86 1.335 . S
C87 C88 1.398 . S
C87 H114 0.930 . S
C88 C83 1.382 . S
C88 C87 1.398 . S
C88 H115 0.929 . S
C89 O102 1.271 1_545 S
C89 O103 1.251 . S
C90 O104 1.252 . S
C90 O105 1.272 . S
C91 Sm81 2.846 . S
C91 C92 1.506 . S
C91 O106 1.261 . S
C91 O107 1.242 . S
C92 C91 1.506 . S
C92 C93 1.358 . S
C92 C97 1.382 . S
C93 C92 1.358 . S
C93 C94 1.385 1_554 S
C93 H116 0.930 . S
C94 C93 1.385 1_556 S
C94 C95 1.395 . S
C94 H117 0.929 . S
C95 C94 1.395 . S
C95 C96 1.335 . S
C96 C95 1.335 . S
C96 C97 1.398 1_556 S
C96 H118 0.930 . S
C97 C92 1.382 . S
C97 C96 1.398 1_554 S
C97 H119 0.929 . S
C98 O108 1.271 1_565 S
C98 O109 1.251 . S
C99 O110 1.252 . S
C99 O111 1.272 . S
O100 Sm80 2.543 . S
O100 C82 1.261 . S
O101 Sm80 2.450 . S
O101 C82 1.242 . S
O102 Sm80 2.681 1_565 S
O102 Sm81 2.386 . S
O102 C89 1.271 1_565 S
O103 Sm80 2.464 . S
O103 C89 1.251 . S
O104 Sm80 2.396 1_565 S
O104 C90 1.252 . S
O105 Sm81 2.408 . S
O105 C90 1.272 . S
O106 Sm81 2.543 . S
O106 C91 1.261 . S
O107 Sm81 2.450 . S
O107 C91 1.242 . S
O108 Sm80 2.386 . S
O108 Sm81 2.681 1_545 S
O108 C98 1.271 1_545 S
O109 Sm81 2.464 . S
O109 C98 1.251 . S
O110 Sm81 2.396 1_545 S
O110 C99 1.252 . S
O111 Sm80 2.408 . S
O111 C99 1.272 . S
H112 C84 0.930 . S
H113 C85 0.929 . S
H114 C87 0.930 . S
H115 C88 0.929 . S
H116 C93 0.930 . S
H117 C94 0.929 . S
H118 C96 0.930 . S
H119 C97 0.929 . S
Sm120 C122 2.846 . S
Sm120 O140 2.543 . S
Sm120 O141 2.450 . S
Sm120 O142 2.681 1_655 S
Sm120 O143 2.464 . S
Sm120 O144 2.396 1_655 S
Sm120 O148 2.386 1_655 S
Sm120 O151 2.408 . S
Sm121 C131 2.846 . S
Sm121 O142 2.386 . S
Sm121 O145 2.408 . S
Sm121 O146 2.543 . S
Sm121 O147 2.450 . S
Sm121 O148 2.681 . S
Sm121 O149 2.464 . S
Sm121 O150 2.396 . S
C122 Sm120 2.846 . S
C122 C123 1.506 . S
C122 O140 1.261 . S
C122 O141 1.242 . S
C123 C122 1.506 . S
C123 C124 1.358 . S
C123 C128 1.382 . S
C124 C123 1.358 . S
C124 C125 1.385 . S
C124 H152 0.930 . S
C125 C124 1.385 . S
C125 C126 1.395 . S
C125 H153 0.929 . S
C126 C125 1.395 . S
C126 C127 1.335 . S
C127 C126 1.335 . S
C127 C128 1.398 . S
C127 H154 0.930 . S
C128 C123 1.382 . S
C128 C127 1.398 . S
C128 H155 0.929 . S
C129 O142 1.271 . S
C129 O143 1.251 1_455 S
C130 O144 1.252 . S
C130 O145 1.272 . S
C131 Sm121 2.846 . S
C131 C132 1.506 . S
C131 O146 1.261 . S
C131 O147 1.242 . S
C132 C131 1.506 . S
C132 C133 1.358 . S
C132 C137 1.382 . S
C133 C132 1.358 . S
C133 C134 1.385 . S
C133 H156 0.930 . S
C134 C133 1.385 . S
C134 C135 1.395 . S
C134 H157 0.929 . S
C135 C134 1.395 . S
C135 C136 1.335 . S
C136 C135 1.335 . S
C136 C137 1.398 . S
C136 H158 0.930 . S
C137 C132 1.382 . S
C137 C136 1.398 . S
C137 H159 0.929 . S
C138 O148 1.271 . S
C138 O149 1.251 . S
C139 O150 1.252 1_655 S
C139 O151 1.272 . S
O140 Sm120 2.543 . S
O140 C122 1.261 . S
O141 Sm120 2.450 . S
O141 C122 1.242 . S
O142 Sm120 2.681 1_455 S
O142 Sm121 2.386 . S
O142 C129 1.271 . S
O143 Sm120 2.464 . S
O143 C129 1.251 1_655 S
O144 Sm120 2.396 1_455 S
O144 C130 1.252 . S
O145 Sm121 2.408 . S
O145 C130 1.272 . S
O146 Sm121 2.543 . S
O146 C131 1.261 . S
O147 Sm121 2.450 . S
O147 C131 1.242 . S
O148 Sm120 2.386 1_455 S
O148 Sm121 2.681 . S
O148 C138 1.271 . S
O149 Sm121 2.464 . S
O149 C138 1.251 . S
O150 Sm121 2.396 . S
O150 C139 1.252 1_455 S
O151 Sm120 2.408 . S
O151 C139 1.272 . S
H152 C124 0.930 . S
H153 C125 0.929 . S
H154 C127 0.930 . S
H155 C128 0.929 . S
H156 C133 0.930 . S
H157 C134 0.929 . S
H158 C136 0.930 . S
H159 C137 0.929 . S
C160 C161 1.349 . S
C160 C162 1.327 1_565 S
C160 H185 0.950 . S
C161 C160 1.349 . S
C161 C177 1.349 1_565 S
C162 C160 1.327 1_545 S
C162 C181 1.429 . S
C162 H186 0.950 . S
C163 C180 1.574 . S
C163 C182 1.368 1_455 S
C163 H187 0.949 . S
H164 C168 0.949 . S
C165 C166 1.349 . S
C165 C167 1.327 . S
C165 H188 0.950 . S
C166 C165 1.349 . S
C166 C178 1.349 . S
C167 C165 1.327 . S
C167 C183 1.429 . S
C167 H189 0.950 . S
C168 H164 0.949 . S
C168 C176 1.574 1_455 S
C168 C184 1.368 . S
H169 C177 0.950 . S
H170 C175 0.950 . S
H171 C176 0.949 . S
H172 C178 0.950 . S
H173 C179 0.950 . S
H174 C180 0.949 . S
C175 H170 0.950 . S
C175 C177 1.327 . S
C175 C181 1.429 . S
C176 C168 1.574 1_655 S
C176 H171 0.949 . S
C176 C182 1.368 . S
C177 C161 1.349 1_545 S
C177 H169 0.950 . S
C177 C175 1.327 . S
C178 C166 1.349 . S
C178 H172 0.950 . S
C178 C179 1.327 . S
C179 H173 0.950 . S
C179 C178 1.327 . S
C179 C183 1.429 . S
C180 C163 1.574 . S
C180 H174 0.949 . S
C180 C184 1.368 . S
C181 C162 1.429 . S
C181 C175 1.429 . S
C181 C182 1.523 . S
C182 C163 1.368 1_655 S
C182 C176 1.368 . S
C182 C181 1.523 . S
C183 C167 1.429 . S
C183 C179 1.429 . S
C183 C184 1.523 . S
C184 C168 1.368 . S
C184 C180 1.368 . S
C184 C183 1.523 . S
H185 C160 0.950 . S
H186 C162 0.950 . S
H187 C163 0.949 . S
H188 C165 0.950 . S
H189 C167 0.950 . S
C190 C191 1.349 . S
C190 C192 1.327 . S
C190 H215 0.950 . S
C191 C190 1.349 . S
C191 C207 1.349 1_455 S
C192 C190 1.327 . S
C192 C211 1.429 . S
C192 H216 0.950 . S
C193 C210 1.570 . S
C193 C212 1.368 1_645 S
C193 H217 0.949 . S
H194 C198 0.949 . S
C195 C196 1.349 . S
C195 C197 1.327 . S
C195 H218 0.950 1_455 S
C196 C195 1.349 . S
C196 C208 1.349 . S
C197 C195 1.327 . S
C197 C213 1.429 . S
C197 H219 0.950 1_455 S
C198 H194 0.949 . S
C198 C206 1.574 1_545 S
C198 C214 1.368 . S
H199 C207 0.950 . S
H200 C205 0.950 . S
H201 C206 0.949 . S
H202 C208 0.950 . S
H203 C209 0.950 . S
H204 C210 0.960 . S
C205 H200 0.950 . S
C205 C207 1.327 . S
C205 C211 1.429 1_655 S
C206 C198 1.574 1_565 S
C206 H201 0.949 . S
C206 C212 1.368 . S
C207 C191 1.349 1_655 S
C207 H199 0.950 . S
C207 C205 1.327 . S
C208 C196 1.349 . S
C208 H202 0.950 . S
C208 C209 1.327 . S
C209 H203 0.950 . S
C209 C208 1.327 . S
C209 C213 1.429 . S
C210 C193 1.570 . S
C210 H204 0.960 . S
C210 C214 1.360 1_655 S
C211 C192 1.429 . S
C211 C205 1.429 1_455 S
C211 C212 1.523 . S
C212 C193 1.368 1_465 S
C212 C206 1.368 . S
C212 C211 1.523 . S
C213 C197 1.429 . S
C213 C209 1.429 . S
C213 C214 1.523 . S
C214 C198 1.368 . S
C214 C210 1.360 1_455 S
C214 C213 1.523 . S
H215 C190 0.950 . S
H216 C192 0.950 . S
H217 C193 0.949 . S
H218 C195 0.950 1_655 S
H219 C197 0.950 1_655 S
C220 C221 1.334 1_545 S
C220 C222 1.327 . S
C220 H245 0.950 . S
C221 C220 1.334 1_565 S
C221 C237 1.357 . S
C222 C220 1.327 . S
C222 C241 1.429 . S
C222 H246 0.950 . S
C223 C240 1.574 . S
C223 C242 1.368 . S
C223 H247 0.949 1_545 S
H224 C228 0.949 . S
C225 C226 1.349 . S
C225 C227 1.327 . S
C225 H248 0.950 . S
C226 C225 1.349 . S
C226 C238 1.349 . S
C227 C225 1.327 . S
C227 C243 1.429 . S
C227 H249 0.950 . S
C228 H224 0.949 . S
C228 C236 1.574 . S
C228 C244 1.368 . S
H229 C237 0.950 . S
H230 C235 0.950 . S
H231 C236 0.949 . S
H232 C238 0.950 . S
H233 C239 0.950 . S
H234 C240 0.949 . S
C235 H230 0.950 . S
C235 C237 1.327 . S
C235 C241 1.429 1_565 S
C236 C228 1.574 . S
C236 H231 0.949 . S
C236 C242 1.368 . S
C237 C221 1.357 . S
C237 H229 0.950 . S
C237 C235 1.327 . S
C238 C226 1.349 . S
C238 H232 0.950 . S
C238 C239 1.327 . S
C239 H233 0.950 . S
C239 C238 1.327 . S
C239 C243 1.429 . S
C240 C223 1.574 . S
C240 H234 0.949 . S
C240 C244 1.368 . S
C241 C222 1.429 . S
C241 C235 1.429 1_545 S
C241 C242 1.523 . S
C242 C223 1.368 . S
C242 C236 1.368 . S
C242 C241 1.523 . S
C243 C227 1.429 . S
C243 C239 1.429 . S
C243 C244 1.523 . S
C244 C228 1.368 . S
C244 C240 1.368 . S
C244 C243 1.523 . S
H245 C220 0.950 . S
H246 C222 0.950 . S
H247 C223 0.949 1_565 S
H248 C225 0.950 . S
H249 C227 0.950 . S
C250 C251 1.349 1_655 S
C250 C252 1.327 . S
C250 H275 0.950 . S
C251 C250 1.349 1_455 S
C251 C267 1.349 . S
C252 C250 1.327 . S
C252 C271 1.429 1_655 S
C252 H276 0.950 . S
C253 C270 1.574 . S
C253 C272 1.368 . S
C253 H277 0.949 . S
H254 C258 0.949 . S
C255 C256 1.349 . S
C255 C257 1.327 . S
C255 H278 0.950 . S
C256 C255 1.349 . S
C256 C268 1.349 1_455 S
C257 C255 1.327 . S
C257 C273 1.429 . S
C257 H279 0.950 . S
C258 H254 0.949 . S
C258 C266 1.574 . S
C258 C274 1.368 1_655 S
H259 C267 0.950 . S
H260 C265 0.950 . S
H261 C266 0.949 . S
H262 C268 0.950 . S
H263 C269 0.950 . S
H264 C270 0.949 . S
C265 H260 0.950 . S
C265 C267 1.327 . S
C265 C271 1.429 . S
C266 C258 1.574 . S
C266 H261 0.949 . S
C266 C272 1.368 1_655 S
C267 C251 1.349 . S
C267 H259 0.950 . S
C267 C265 1.327 . S
C268 C256 1.349 1_655 S
C268 H262 0.950 . S
C268 C269 1.327 . S
C269 H263 0.950 . S
C269 C268 1.327 . S
C269 C273 1.429 1_655 S
C270 C253 1.574 . S
C270 H264 0.949 . S
C270 C274 1.368 . S
C271 C252 1.429 1_455 S
C271 C265 1.429 . S
C271 C272 1.523 . S
C272 C253 1.368 . S
C272 C266 1.368 1_455 S
C272 C271 1.523 . S
C273 C257 1.429 . S
C273 C269 1.429 1_455 S
C273 C274 1.523 . S
C274 C258 1.368 1_455 S
C274 C270 1.368 . S
C274 C273 1.523 . S
H275 C250 0.950 . S
H276 C252 0.950 . S
H277 C253 0.949 . S
H278 C255 0.950 . S
H279 C257 0.950 . S
C280 C281 1.349 . S
C280 C282 1.327 . S
C280 H305 0.950 . S
C281 C280 1.349 . S
C281 C297 1.349 . S
C282 C280 1.327 . S
C282 C301 1.429 . S
C282 H306 0.950 . S
C283 C300 1.574 . S
C283 C302 1.368 . S
C283 H307 0.949 . S
H284 C288 0.949 . S
C285 C286 1.349 . S
C285 C287 1.327 . S
C285 H308 0.950 . S
C286 C285 1.349 . S
C286 C298 1.349 . S
C287 C285 1.327 . S
C287 C303 1.429 . S
C287 H309 0.950 . S
C288 H284 0.949 . S
C288 C296 1.574 . S
C288 C304 1.368 . S
H289 C297 0.950 . S
H290 C295 0.950 . S
H291 C296 0.949 . S
H292 C298 0.950 . S
H293 C299 0.950 . S
H294 C300 0.949 . S
C295 H290 0.950 . S
C295 C297 1.327 . S
C295 C301 1.429 . S
C296 C288 1.574 . S
C296 H291 0.949 . S
C296 C302 1.368 . S
C297 C281 1.349 . S
C297 H289 0.950 . S
C297 C295 1.327 . S
C298 C286 1.349 . S
C298 H292 0.950 . S
C298 C299 1.327 . S
C299 H293 0.950 . S
C299 C298 1.327 . S
C299 C303 1.429 . S
C300 C283 1.574 . S
C300 H294 0.949 . S
C300 C304 1.368 . S
C301 C282 1.429 . S
C301 C295 1.429 . S
C301 C302 1.523 . S
C302 C283 1.368 . S
C302 C296 1.368 . S
C302 C301 1.523 . S
C303 C287 1.429 . S
C303 C299 1.429 . S
C303 C304 1.523 . S
C304 C288 1.368 . S
C304 C300 1.368 . S
C304 C303 1.523 . S
H305 C280 0.950 . S
H306 C282 0.950 . S
H307 C283 0.949 . S
H308 C285 0.950 . S
H309 C287 0.950 . S
C310 C311 1.349 . S
C310 C312 1.327 . S
C310 H335 0.950 . S
C311 C310 1.349 . S
C311 C327 1.349 . S
C312 C310 1.327 . S
C312 C331 1.429 . S
C312 H336 0.950 . S
C313 C330 1.574 . S
C313 C332 1.368 . S
C313 H337 0.949 . S
H314 C318 0.949 . S
C315 C316 1.349 . S
C315 C317 1.308 1_554 S
C315 H338 0.950 . S
C316 C315 1.349 . S
C316 C328 1.349 . S
C317 C315 1.308 1_556 S
C317 C333 1.442 . S
C317 H339 0.956 . S
C318 H314 0.949 . S
C318 C326 1.574 . S
C318 C334 1.368 . S
H319 C327 0.950 . S
H320 C325 0.950 . S
H321 C326 0.949 . S
H322 C328 0.950 . S
H323 C329 0.950 1_556 S
H324 C330 0.949 . S
C325 H320 0.950 . S
C325 C327 1.327 . S
C325 C331 1.429 . S
C326 C318 1.574 . S
C326 H321 0.949 . S
C326 C332 1.368 . S
C327 C311 1.349 . S
C327 H319 0.950 . S
C327 C325 1.327 . S
C328 C316 1.349 . S
C328 H322 0.950 . S
C328 C329 1.327 . S
C329 H323 0.950 1_554 S
C329 C328 1.327 . S
C329 C333 1.429 1_554 S
C330 C313 1.574 . S
C330 H324 0.949 . S
C330 C334 1.368 . S
C331 C312 1.429 . S
C331 C325 1.429 . S
C331 C332 1.523 . S
C332 C313 1.368 . S
C332 C326 1.368 . S
C332 C331 1.523 . S
C333 C317 1.442 . S
C333 C329 1.429 1_556 S
C333 C334 1.523 . S
C334 C318 1.368 . S
C334 C330 1.368 . S
C334 C333 1.523 . S
H335 C310 0.950 . S
H336 C312 0.950 . S
H337 C313 0.949 . S
H338 C315 0.950 . S
H339 C317 0.956 . S
C340 C341 1.349 . S
C340 C342 1.327 . S
C340 H365 0.950 . S
C341 C340 1.349 . S
C341 C357 1.349 . S
C342 C340 1.327 . S
C342 C361 1.429 . S
C342 H366 0.950 . S
C343 C360 1.574 . S
C343 C362 1.368 . S
C343 H367 0.949 . S
H344 C348 0.949 . S
C345 C346 1.349 . S
C345 C347 1.327 . S
C345 H368 0.950 . S
C346 C345 1.349 . S
C346 C358 1.349 . S
C347 C345 1.327 . S
C347 C363 1.429 . S
C347 H369 0.950 . S
C348 H344 0.949 . S
C348 C356 1.574 . S
C348 C364 1.368 . S
H349 C357 0.950 . S
H350 C355 0.950 . S
H351 C356 0.949 . S
H352 C358 0.950 . S
H353 C359 0.950 . S
H354 C360 0.949 . S
C355 H350 0.950 . S
C355 C357 1.327 . S
C355 C361 1.429 . S
C356 C348 1.574 . S
C356 H351 0.949 . S
C356 C362 1.368 . S
C357 C341 1.349 . S
C357 H349 0.950 . S
C357 C355 1.327 . S
C358 C346 1.349 . S
C358 H352 0.950 . S
C358 C359 1.327 . S
C359 H353 0.950 . S
C359 C358 1.327 . S
C359 C363 1.429 . S
C360 C343 1.574 . S
C360 H354 0.949 . S
C360 C364 1.368 . S
C361 C342 1.429 . S
C361 C355 1.429 . S
C361 C362 1.523 . S
C362 C343 1.368 . S
C362 C356 1.368 . S
C362 C361 1.523 . S
C363 C347 1.429 . S
C363 C359 1.429 . S
C363 C364 1.523 . S
C364 C348 1.368 . S
C364 C360 1.368 . S
C364 C363 1.523 . S
H365 C340 0.950 . S
H366 C342 0.950 . S
H367 C343 0.949 . S
H368 C345 0.950 . S
H369 C347 0.950 . S
C370 C371 1.349 . S
C370 C372 1.327 . S
C370 H395 0.950 . S
C371 C370 1.349 . S
C371 C387 1.349 . S
C372 C370 1.327 . S
C372 C391 1.429 . S
C372 H396 0.950 . S
C373 C390 1.574 . S
C373 C392 1.368 . S
C373 H397 0.949 . S
H374 C378 0.949 . S
C375 C376 1.349 . S
C375 C377 1.327 . S
C375 H398 0.950 . S
C376 C375 1.349 . S
C376 C388 1.349 . S
C377 C375 1.327 . S
C377 C393 1.429 . S
C377 H399 0.950 . S
C378 H374 0.949 . S
C378 C386 1.574 . S
C378 C394 1.368 . S
H379 C387 0.950 . S
H380 C385 0.950 . S
H381 C386 0.949 . S
H382 C388 0.950 . S
H383 C389 0.950 . S
H384 C390 0.949 . S
C385 H380 0.950 . S
C385 C387 1.327 . S
C385 C391 1.429 . S
C386 C378 1.574 . S
C386 H381 0.949 . S
C386 C392 1.368 . S
C387 C371 1.349 . S
C387 H379 0.950 . S
C387 C385 1.327 . S
C388 C376 1.349 . S
C388 H382 0.950 . S
C388 C389 1.327 . S
C389 H383 0.950 . S
C389 C388 1.327 . S
C389 C393 1.429 . S
C390 C373 1.574 . S
C390 H384 0.949 . S
C390 C394 1.368 . S
C391 C372 1.429 . S
C391 C385 1.429 . S
C391 C392 1.523 . S
C392 C373 1.368 . S
C392 C386 1.368 . S
C392 C391 1.523 . S
C393 C377 1.429 . S
C393 C389 1.429 . S
C393 C394 1.523 . S
C394 C378 1.368 . S
C394 C390 1.368 . S
C394 C393 1.523 . S
H395 C370 0.950 . S
H396 C372 0.950 . S
H397 C373 0.949 . S
H398 C375 0.950 . S
H399 C377 0.950 . S
C400 C401 1.349 . S
C400 C402 1.327 . S
C400 H425 0.950 . S
C401 C400 1.349 . S
C401 C417 1.349 . S
C402 C400 1.327 . S
C402 C421 1.429 . S
C402 H426 0.950 . S
C403 C420 1.574 . S
C403 C422 1.368 . S
C403 H427 0.949 . S
H404 C408 0.949 . S
C405 C406 1.349 . S
C405 C407 1.327 . S
C405 H428 0.950 . S
C406 C405 1.349 . S
C406 C418 1.349 . S
C407 C405 1.327 . S
C407 C423 1.429 . S
C407 H429 0.950 . S
C408 H404 0.949 . S
C408 C416 1.574 . S
C408 C424 1.368 . S
H409 C417 0.950 . S
H410 C415 0.950 . S
H411 C416 0.949 . S
H412 C418 0.950 . S
H413 C419 0.950 . S
H414 C420 0.949 . S
C415 H410 0.950 . S
C415 C417 1.327 . S
C415 C421 1.429 . S
C416 C408 1.574 . S
C416 H411 0.949 . S
C416 C422 1.368 . S
C417 C401 1.349 . S
C417 H409 0.950 . S
C417 C415 1.327 . S
C418 C406 1.349 . S
C418 H412 0.950 . S
C418 C419 1.327 . S
C419 H413 0.950 . S
C419 C418 1.327 . S
C419 C423 1.429 . S
C420 C403 1.574 . S
C420 H414 0.949 . S
C420 C424 1.368 . S
C421 C402 1.429 . S
C421 C415 1.429 . S
C421 C422 1.523 . S
C422 C403 1.368 . S
C422 C416 1.368 . S
C422 C421 1.523 . S
C423 C407 1.429 . S
C423 C419 1.429 . S
C423 C424 1.523 . S
C424 C408 1.368 . S
C424 C420 1.368 . S
C424 C423 1.523 . S
H425 C400 0.950 . S
H426 C402 0.950 . S
H427 C403 0.949 . S
H428 C405 0.950 . S
H429 C407 0.950 . S
C430 C431 1.349 . S
C430 C432 1.327 . S
C430 H455 0.950 . S
C431 C430 1.349 . S
C431 C447 1.349 1_565 S
C432 C430 1.327 . S
C432 C451 1.429 . S
C432 H456 0.950 . S
C433 C450 1.574 . S
C433 C452 1.368 . S
C433 H457 0.949 1_565 S
H434 C438 0.949 . S
C435 C436 1.349 . S
C435 C437 1.327 . S
C435 H458 0.950 . S
C436 C435 1.349 . S
C436 C448 1.349 . S
C437 C435 1.327 . S
C437 C453 1.429 . S
C437 H459 0.950 . S
C438 H434 0.949 . S
C438 C446 1.574 . S
C438 C454 1.368 . S
H439 C447 0.950 . S
H440 C445 0.950 . S
H441 C446 0.949 . S
H442 C448 0.950 . S
H443 C449 0.950 . S
H444 C450 0.949 . S
C445 H440 0.950 . S
C445 C447 1.327 . S
C445 C451 1.429 1_545 S
C446 C438 1.574 . S
C446 H441 0.949 . S
C446 C452 1.368 . S
C447 C431 1.349 1_545 S
C447 H439 0.950 . S
C447 C445 1.327 . S
C448 C436 1.349 . S
C448 H442 0.950 . S
C448 C449 1.327 . S
C449 H443 0.950 . S
C449 C448 1.327 . S
C449 C453 1.429 . S
C450 C433 1.574 . S
C450 H444 0.949 . S
C450 C454 1.368 . S
C451 C432 1.429 . S
C451 C445 1.429 1_565 S
C451 C452 1.523 . S
C452 C433 1.368 . S
C452 C446 1.368 . S
C452 C451 1.523 . S
C453 C437 1.429 . S
C453 C449 1.429 . S
C453 C454 1.523 . S
C454 C438 1.368 . S
C454 C450 1.368 . S
C454 C453 1.523 . S
H455 C430 0.950 . S
H456 C432 0.950 . S
H457 C433 0.949 1_545 S
H458 C435 0.950 . S
H459 C437 0.950 . S
C460 C461 1.349 . S
C460 C462 1.327 . S
C460 H485 0.950 . S
C461 C460 1.349 . S
C461 C477 1.349 . S
C462 C460 1.327 . S
C462 C481 1.429 . S
C462 H486 0.950 . S
C463 C480 1.574 . S
C463 C482 1.368 . S
C463 H487 0.949 . S
H464 C468 0.949 . S
C465 C466 1.349 . S
C465 C467 1.327 . S
C465 H488 0.950 . S
C466 C465 1.349 . S
C466 C478 1.349 . S
C467 C465 1.327 . S
C467 C483 1.429 . S
C467 H489 0.950 . S
C468 H464 0.949 . S
C468 C476 1.574 . S
C468 C484 1.368 . S
H469 C477 0.950 . S
H470 C475 0.950 . S
H471 C476 0.949 . S
H472 C478 0.950 . S
H473 C479 0.950 . S
H474 C480 0.949 . S
C475 H470 0.950 . S
C475 C477 1.327 . S
C475 C481 1.429 . S
C476 C468 1.574 . S
C476 H471 0.949 . S
C476 C482 1.368 . S
C477 C461 1.349 . S
C477 H469 0.950 . S
C477 C475 1.327 . S
C478 C466 1.349 . S
C478 H472 0.950 . S
C478 C479 1.327 . S
C479 H473 0.950 . S
C479 C478 1.327 . S
C479 C483 1.429 . S
C480 C463 1.574 . S
C480 H474 0.949 . S
C480 C484 1.368 . S
C481 C462 1.429 . S
C481 C475 1.429 . S
C481 C482 1.523 . S
C482 C463 1.368 . S
C482 C476 1.368 . S
C482 C481 1.523 . S
C483 C467 1.429 . S
C483 C479 1.429 . S
C483 C484 1.523 . S
C484 C468 1.368 . S
C484 C480 1.368 . S
C484 C483 1.523 . S
H485 C460 0.950 . S
H486 C462 0.950 . S
H487 C463 0.949 . S
H488 C465 0.950 . S
H489 C467 0.950 . S
C490 C491 1.349 . S
C490 C492 1.327 . S
C490 H515 0.950 . S
C491 C490 1.349 . S
C491 C507 1.349 . S
C492 C490 1.327 . S
C492 C511 1.429 . S
C492 H516 0.950 . S
C493 C510 1.574 . S
C493 C512 1.368 . S
C493 H517 0.949 . S
H494 C498 0.949 . S
C495 C496 1.349 . S
C495 C497 1.327 . S
C495 H518 0.950 1_655 S
C496 C495 1.349 . S
C496 C508 1.349 . S
C497 C495 1.327 . S
C497 C513 1.429 . S
C497 H519 0.950 . S
C498 H494 0.949 . S
C498 C506 1.574 . S
C498 C514 1.368 . S
H499 C507 0.950 . S
H500 C505 0.950 . S
H501 C506 0.949 . S
H502 C508 0.950 . S
H503 C509 0.950 . S
H504 C510 0.949 . S
C505 H500 0.950 . S
C505 C507 1.327 . S
C505 C511 1.429 . S
C506 C498 1.574 . S
C506 H501 0.949 . S
C506 C512 1.368 . S
C507 C491 1.349 . S
C507 H499 0.950 . S
C507 C505 1.327 . S
C508 C496 1.349 . S
C508 H502 0.950 . S
C508 C509 1.327 . S
C509 H503 0.950 . S
C509 C508 1.327 . S
C509 C513 1.429 . S
C510 C493 1.574 . S
C510 H504 0.949 . S
C510 C514 1.368 . S
C511 C492 1.429 . S
C511 C505 1.429 . S
C511 C512 1.523 . S
C512 C493 1.368 . S
C512 C506 1.368 . S
C512 C511 1.523 . S
C513 C497 1.429 . S
C513 C509 1.429 . S
C513 C514 1.523 . S
C514 C498 1.368 . S
C514 C510 1.368 . S
C514 C513 1.523 . S
H515 C490 0.950 . S
H516 C492 0.950 . S
H517 C493 0.949 . S
H518 C495 0.950 1_455 S
H519 C497 0.950 . S
C161 C89 0.900 1_565 S
C166 C18 0.900 . S
C191 C129 1.105 . S
C196 C58 1.105 . S
C221 C98 0.966 . S
C226 C9 0.953 . S
C251 C49 0.931 . S
C256 C138 0.931 . S
C281 C55 0.996 . S
C286 C6 1.000 . S
C311 C46 1.721 . S
C316 C99 1.738 . S
C341 C139 2.150 . S
C346 C90 2.080 . S
C371 C130 1.338 . S
C376 C15 1.364 . S
C401 C95 1.000 . S
C406 C126 0.996 . S
C431 C10 1.738 1_565 S
C436 C135 1.721 . S
C461 C50 2.150 . S
C466 C19 2.080 1_556 S
C491 C86 1.364 . S
C496 C59 1.338 . S
