# Generated by pormake.
# Topology kag, (6)-cn, num edge types: 1
# Building blocks:
#     Node 0, Type 0, BuildingBlock: KUMBOL_clean_sbu_1, # of connection points: 6
#     Node 1, Type 0, BuildingBlock: KUMBOL_clean_sbu_1, # of connection points: 6
#     Node 2, Type 0, BuildingBlock: KUMBOL_clean_sbu_1, # of connection points: 6
#     Edge 3, Type (0, 0), BuildingBlock: ZUJKAS_clean_linker_0, # of connection points: 2
#     Edge 4, Type (0, 0), BuildingBlock: ZUJKAS_clean_linker_0, # of connection points: 2
#     Edge 5, Type (0, 0), BuildingBlock: ZUJKAS_clean_linker_0, # of connection points: 2
#     Edge 6, Type (0, 0), BuildingBlock: ZUJKAS_clean_linker_0, # of connection points: 2
#     Edge 7, Type (0, 0), BuildingBlock: ZUJKAS_clean_linker_0, # of connection points: 2
#     Edge 8, Type (0, 0), BuildingBlock: ZUJKAS_clean_linker_0, # of connection points: 2
#     Edge 9, Type (0, 0), BuildingBlock: ZUJKAS_clean_linker_0, # of connection points: 2
#     Edge 10, Type (0, 0), BuildingBlock: ZUJKAS_clean_linker_0, # of connection points: 2
#     Edge 11, Type (0, 0), BuildingBlock: ZUJKAS_clean_linker_0, # of connection points: 2
# Relax obj value: 0.071
# Max RMSD: 0.167
# Mean RMSD: 0.110
data_MOF--net-kag--node1-KUMBOL_clean_sbu_1--edge1-ZUJKAS_clean_linker_0
_symmetry_space_group_name_H-M    P1
_symmetry_Int_Tables_number       1
_symmetry_cell_setting            triclinic
loop_
_symmetry_equiv_pos_as_xyz
'x, y, z'
_cell_length_a     39.408787
_cell_length_b     49.11198
_cell_length_c     19.402594
_cell_angle_alpha  107.56153
_cell_angle_beta   96.730728
_cell_angle_gamma 102.61762
loop_
_atom_site_label
_atom_site_type_symbol
_atom_site_fract_x
_atom_site_fract_y
_atom_site_fract_z
_atom_type_partial_charge
C0 C 0.07755 0.41698 0.92073 0.0
C1 C 0.08716 0.39839 0.02162 0.0
C2 C 0.07074 0.4152 0.98786 0.0
C3 C 0.11165 0.38459 0.98837 0.0
C4 C 0.1006 0.40186 0.88509 0.0
C5 C 0.11827 0.38624 0.9201 0.0
N6 N 0.06028 0.43243 0.8886 0.0
C7 C 0.06236 0.4317 0.81838 0.0
C8 C 0.10435 0.40223 0.81441 0.0
C9 C 0.08473 0.41686 0.78049 0.0
Gd10 Gd 0.05456 0.54464 0.0438 0.0
Gd11 Gd 1.02248 0.45593 0.95391 0.0
N12 N 0.0461 0.42804 0.01725 0.0
C13 C 0.07737 0.39494 0.08617 0.0
C14 C 1.03433 0.42255 0.07647 0.0
C15 C 0.05039 0.40665 0.11297 0.0
H16 H 1.01206 0.42985 0.09502 0.0
H17 H 0.04146 0.40297 0.1609 0.0
H18 H 0.04397 0.56519 0.89429 0.0
H19 H 0.047 0.44287 0.79222 0.0
H20 H 1.00739 0.59217 0.84395 0.0
H21 H 0.08938 0.38223 0.11386 0.0
H22 H 0.12473 0.37178 0.0138 0.0
H23 H 1.0315 0.54526 0.20738 0.0
H24 H 0.12167 0.39077 0.78501 0.0
H25 H 0.08685 0.41674 0.72529 0.0
H26 H 0.93531 0.61859 0.02288 0.0
H27 H 0.1364 0.37474 0.89402 0.0
H28 H 0.94862 0.58838 0.23482 0.0
H29 H 0.98826 0.56204 0.27957 0.0
N30 N 1.01421 0.55877 0.11823 0.0
C31 C 0.99388 0.57458 0.09427 0.0
C32 C 1.01312 0.55503 0.18486 0.0
C33 C 0.96701 0.58032 0.20178 0.0
C34 C 0.98916 0.56528 0.22699 0.0
C35 C 0.96947 0.58548 0.13521 0.0
H36 H 0.92957 0.6098 0.13965 0.0
N37 N 1.02001 0.56812 0.98802 0.0
C38 C 0.99718 0.57969 0.02801 0.0
C39 C 0.9797 0.59987 0.9344 0.0
C40 C 0.97608 0.5956 0.00162 0.0
C41 C 1.02439 0.57291 0.92356 0.0
C42 C 1.00405 0.58858 0.8954 0.0
O43 O 0.0799 0.47765 0.95352 0.0
O44 O 0.09682 0.52033 0.05522 0.0
O45 O 0.0946 0.58152 0.03366 0.0
O46 O 0.07911 0.58312 0.13952 0.0
O47 O 1.02037 0.47645 0.07426 0.0
O48 O 0.06563 0.51961 0.12039 0.0
O49 O 0.99646 0.52083 0.98709 0.0
O50 O 0.9867 0.47905 0.01813 0.0
O51 O 0.98646 0.41204 0.92565 0.0
O52 O 0.98167 0.43815 0.85496 0.0
O53 O 0.06517 0.52654 0.92948 0.0
O54 O 1.01789 0.48497 0.88424 0.0
C55 C 0.10461 0.49889 0.00522 0.0
C56 C 0.04562 0.49593 0.12797 0.0
C57 C 0.12268 0.62639 0.14153 0.0
C58 C 0.16662 0.66966 0.14037 0.0
C59 C 0.14714 0.66872 0.25406 0.0
C60 C 0.12458 0.64045 0.21722 0.0
C61 C 0.16809 0.68327 0.21604 0.0
C62 C 0.14368 0.64117 0.1032 0.0
C63 C 0.09832 0.59662 0.10346 0.0
C64 C 0.95179 0.60638 0.04242 0.0
C65 C 0.94846 0.60131 0.10888 0.0
H66 H 0.96395 0.61196 0.91231 0.0
C67 C 0.97475 0.49966 0.00156 0.0
C68 C 0.04339 0.5047 0.87396 0.0
C69 C 0.92844 0.40848 0.86851 0.0
C70 C 0.87467 0.378 0.88702 0.0
C71 C 0.87229 0.42062 0.84937 0.0
C72 C 0.90857 0.42664 0.84955 0.0
C73 C 0.85538 0.39652 0.86801 0.0
C74 C 0.91124 0.38414 0.8868 0.0
C75 C 0.96704 0.41481 0.87039 0.0
H76 H 0.14833 0.6794 0.31225 0.0
H77 H 0.10855 0.62968 0.24815 0.0
H78 H 0.18517 0.70535 0.24567 0.0
H79 H 0.14252 0.63046 0.04494 0.0
H80 H 0.85722 0.43476 0.83495 0.0
H81 H 0.921 0.44564 0.83538 0.0
H82 H 0.82713 0.39222 0.86675 0.0
H83 H 0.92656 0.37033 0.90234 0.0
C84 C 0.63295 0.97787 0.09961 0.0
C85 C 0.6572 0.94743 0.00499 0.0
C86 C 0.63794 0.9685 0.02744 0.0
C87 C 0.66999 0.93488 0.05535 0.0
C88 C 0.64725 0.96637 0.15125 0.0
C89 C 0.66494 0.94426 0.12825 0.0
N90 N 0.61612 0.99956 0.12037 0.0
C91 C 0.61641 0.01303 0.19313 0.0
C92 C 0.64446 0.9782 0.225 0.0
C93 C 0.62961 0.00207 0.24626 0.0
Gd94 Gd 0.48654 0.97966 0.9496 0.0
Gd95 Gd 0.59231 0.01448 0.02538 0.0
N96 N 0.62436 0.9804 0.97934 0.0
C97 C 0.66326 0.93984 0.93273 0.0
C98 C 0.63152 0.9742 0.90997 0.0
C99 C 0.65073 0.95355 0.88533 0.0
H100 H 0.62187 0.98485 0.87345 0.0
H101 H 0.6558 0.94819 0.82983 0.0
H102 H 0.45308 0.979 0.10288 0.0
H103 H 0.6072 0.03267 0.21058 0.0
H104 H 0.42208 0.00855 0.1865 0.0
H105 H 0.67798 0.92375 0.91336 0.0
H106 H 0.68439 0.9183 0.03885 0.0
H107 H 0.47197 0.9925 0.79205 0.0
H108 H 0.65507 0.96997 0.26637 0.0
H109 H 0.6289 0.01236 0.3037 0.0
H110 H 0.39096 0.07369 0.06367 0.0
H111 H 0.6757 0.93489 0.16694 0.0
H112 H 0.41536 0.05918 0.82039 0.0
H113 H 0.44427 0.02503 0.74171 0.0
N114 N 0.4591 0.00855 0.8974 0.0
C115 C 0.44164 0.02578 0.93989 0.0
C116 C 0.45912 0.00723 0.8261 0.0
C117 C 0.42729 0.04488 0.84235 0.0
C118 C 0.44354 0.0256 0.79771 0.0
C119 C 0.42577 0.04486 0.91412 0.0
H120 H 0.39625 0.07777 0.94171 0.0
N121 N 0.45252 0.00331 0.02857 0.0
C122 C 0.43873 0.02341 0.00823 0.0
C123 C 0.41476 0.03539 0.11924 0.0
C124 C 0.41972 0.04017 0.05316 0.0
C125 C 0.44523 0.9969 0.08998 0.0
C126 C 0.42701 0.01327 0.13701 0.0
O127 O 0.56981 0.96442 0.96477 0.0
O128 O 0.51715 0.95526 0.00256 0.0
O129 O 0.43685 0.94645 0.93469 0.0
O130 O 0.46494 0.94433 0.84508 0.0
O131 O 0.57236 0.01192 0.90919 0.0
O132 O 0.52312 0.97166 0.86819 0.0
O133 O 0.51317 0.02518 0.94794 0.0
O134 O 0.55457 0.04295 0.05411 0.0
O135 O 0.62085 0.04867 0.98739 0.0
O136 O 0.6432 0.04379 0.0885 0.0
O137 O 0.50893 0.98187 0.06545 0.0
O138 O 0.5575 0.02283 0.11112 0.0
C139 C 0.5447 0.94669 0.98222 0.0
C140 C 0.54777 0.99148 0.85583 0.0
C141 C 0.44111 0.89929 0.86324 0.0
C142 C 0.4148 0.8521 0.87812 0.0
C143 C 0.47172 0.86038 0.84041 0.0
C144 C 0.47033 0.8888 0.84318 0.0
C145 C 0.4442 0.84212 0.85786 0.0
C146 C 0.41332 0.88072 0.88024 0.0
C147 C 0.44067 0.93008 0.87093 0.0
C148 C 0.40531 0.06038 0.02955 0.0
C149 C 0.40828 0.06267 0.96006 0.0
H150 H 0.40037 0.04784 0.15541 0.0
C151 C 0.53387 0.04757 0.00322 0.0
C152 C 0.53137 0.00338 0.1211 0.0
C153 C 0.6512 0.09228 0.08581 0.0
C154 C 0.67742 0.14369 0.09662 0.0
C155 C 0.64266 0.13249 0.18533 0.0
C156 C 0.63678 0.10223 0.14861 0.0
C157 C 0.663 0.1531 0.16004 0.0
C158 C 0.67109 0.113 0.05951 0.0
C159 C 0.64519 0.06033 0.04718 0.0
H160 H 0.49437 0.85258 0.82531 0.0
H161 H 0.49246 0.90264 0.83061 0.0
H162 H 0.44575 0.82007 0.85494 0.0
H163 H 0.39107 0.88884 0.89705 0.0
H164 H 0.63159 0.14001 0.2339 0.0
H165 H 0.6209 0.08661 0.16923 0.0
H166 H 0.66781 0.17641 0.19107 0.0
H167 H 0.68129 0.1051 0.00985 0.0
C168 C 0.63339 0.58124 0.06474 0.0
C169 C 0.64695 0.59384 0.95747 0.0
C170 C 0.62272 0.57995 0.99262 0.0
C171 C 0.68201 0.60849 0.99522 0.0
C172 C 0.66847 0.59613 0.10298 0.0
C173 C 0.69274 0.60962 0.06772 0.0
N174 N 0.60958 0.56733 0.09693 0.0
C175 C 0.61833 0.56929 0.1688 0.0
C176 C 0.67809 0.59706 0.17563 0.0
C177 C 0.65283 0.58378 0.20883 0.0
Gd178 Gd 0.52281 0.45539 0.97453 0.0
Gd179 Gd 0.55206 0.5453 0.0265 0.0
N180 N 0.58868 0.56541 0.95716 0.0
C181 C 0.6351 0.59285 0.88564 0.0
C182 C 0.57656 0.56578 0.88874 0.0
C183 C 0.59965 0.57903 0.85148 0.0
H184 H 0.54881 0.55694 0.86408 0.0
H185 H 0.58991 0.57913 0.79708 0.0
H186 H 0.49383 0.44699 0.12264 0.0
H187 H 0.59878 0.55973 0.1954 0.0
H188 H 0.43663 0.42945 0.15771 0.0
H189 H 0.65288 0.60328 0.8568 0.0
H190 H 0.70099 0.6192 0.96899 0.0
H191 H 0.50445 0.43384 0.78633 0.0
H192 H 0.7048 0.60829 0.20685 0.0
H193 H 0.65985 0.58489 0.26542 0.0
H194 H 0.35008 0.40273 0.93587 0.0
H195 H 0.71983 0.62111 0.09618 0.0
H196 H 0.39198 0.40589 0.71598 0.0
H197 H 0.45193 0.41681 0.68746 0.0
N198 N 0.47502 0.43728 0.87277 0.0
C199 C 0.44236 0.42908 0.88885 0.0
C200 C 0.47866 0.43133 0.8009 0.0
C201 C 0.41504 0.4145 0.76034 0.0
C202 C 0.44882 0.42077 0.74405 0.0
C203 C 0.41149 0.41777 0.83308 0.0
H204 H 0.35427 0.40052 0.80895 0.0
N205 N 0.46993 0.44093 0.0133 0.0
C206 C 0.43983 0.43024 0.96058 0.0
C207 C 0.4056 0.42034 0.05012 0.0
C208 C 0.40668 0.42024 0.97811 0.0
C209 C 0.46937 0.43981 0.08262 0.0
C210 C 0.43714 0.42981 0.10234 0.0
O211 O 0.59746 0.52304 0.0302 0.0
O212 O 0.57902 0.47252 0.96074 0.0
O213 O 0.54078 0.42733 0.03096 0.0
O214 O 0.51707 0.40887 0.91543 0.0
O215 O 0.52446 0.51609 0.91029 0.0
O216 O 0.54272 0.47323 0.88723 0.0
O217 O 0.48807 0.48469 0.02522 0.0
O218 O 0.49516 0.52001 0.97056 0.0
O219 O 0.54621 0.58737 0.01668 0.0
O220 O 0.53451 0.57573 0.11321 0.0
O221 O 0.55523 0.48349 0.08749 0.0
O222 O 0.53925 0.52755 0.11852 0.0
C223 C 0.60394 0.49758 0.9955 0.0
C224 C 0.53513 0.49479 0.86657 0.0
C225 C 0.557 0.38563 0.95919 0.0
C226 C 0.57289 0.33964 0.95425 0.0
C227 C 0.611 0.37738 0.91912 0.0
C228 C 0.5876 0.39508 0.93327 0.0
C229 C 0.60372 0.34985 0.92924 0.0
C230 C 0.54978 0.35797 0.97005 0.0
C231 C 0.53168 0.40379 0.97224 0.0
C232 C 0.37585 0.41017 0.92327 0.0
C233 C 0.37824 0.40901 0.85103 0.0
H234 H 0.38065 0.41274 0.06564 0.0
C235 C 0.47484 0.50214 0.99664 0.0
C236 C 0.54772 0.50551 0.13577 0.0
C237 C 0.52796 0.62399 0.11106 0.0
C238 C 0.52407 0.67292 0.10759 0.0
C239 C 0.50854 0.657 0.20987 0.0
C240 C 0.5161 0.63009 0.17815 0.0
C241 C 0.51249 0.67822 0.17516 0.0
C242 C 0.53214 0.64566 0.07594 0.0
C243 C 0.53676 0.59539 0.08008 0.0
H244 H 0.63473 0.38489 0.89955 0.0
H245 H 0.59316 0.41599 0.92329 0.0
H246 H 0.6223 0.33654 0.91766 0.0
H247 H 0.52574 0.35042 0.98878 0.0
H248 H 0.49968 0.66151 0.2619 0.0
H249 H 0.51285 0.61408 0.20661 0.0
H250 H 0.50682 0.69906 0.2019 0.0
H251 H 0.54126 0.64127 0.02413 0.0
H252 H 0.0963 0.5362 0.82613 0.0
H253 H 0.0982 0.53483 0.69922 0.0
H254 H 0.99619 0.47042 0.62295 0.0
H255 H 0.99391 0.47163 0.74895 0.0
H256 H 0.09136 0.48173 0.56948 0.0
H257 H 0.98615 0.5392 0.54302 0.0
H258 H 1.00967 0.54157 0.63126 0.0
H259 H 0.97514 0.50887 0.5773 0.0
C260 C 0.0742 0.52186 0.78237 0.0
C261 C 0.04487 0.50417 0.79773 0.0
C262 C 0.0754 0.52104 0.71 0.0
C263 C 0.04715 0.50278 0.65211 0.0
C264 C 1.01802 0.48495 0.66713 0.0
H265 H 0.9931 0.468 0.18322 0.0
H266 H 0.99505 0.46869 0.31017 0.0
C267 C 1.01686 0.48562 0.73921 0.0
C268 C 0.04811 0.50201 0.57561 0.0
H269 H 1.00637 0.51793 0.43421 0.0
C270 C 0.07298 0.4898 0.53988 0.0
C271 C 1.02392 0.51243 0.53738 0.0
C272 C 0.99734 0.52649 0.57415 0.0
C273 C 0.07378 0.48709 0.46597 0.0
C274 C 0.04954 0.49748 0.4276 0.0
C275 C 1.02485 0.5099 0.46369 0.0
C276 C 0.04929 0.49573 0.34994 0.0
C277 C 0.09989 0.4724 0.42904 0.0
C278 C 0.07914 0.51071 0.33023 0.0
C279 C 0.07825 0.51003 0.25752 0.0
C280 C 0.04741 0.4945 0.20331 0.0
C281 C 1.01755 0.47951 0.22323 0.0
C282 C 1.0185 0.48014 0.2959 0.0
H283 H 0.10965 0.4587 0.45896 0.0
H284 H 0.08779 0.4581 0.37117 0.0
H285 H 0.1231 0.48972 0.42833 0.0
H286 H 0.10289 0.52344 0.37139 0.0
H287 H 0.10154 0.52205 0.24397 0.0
H288 H 0.50303 0.95622 0.16191 0.0
H289 H 0.50446 0.95453 0.2868 0.0
H290 H 0.55803 0.04783 0.37669 0.0
H291 H 0.55603 0.04988 0.25142 0.0
H292 H 0.59055 0.00637 0.43126 0.0
H293 H 0.44779 0.9926 0.44446 0.0
H294 H 0.45778 0.96909 0.36282 0.0
H295 H 0.46806 0.00836 0.38136 0.0
C296 C 0.51461 0.97652 0.20816 0.0
C297 C 0.52971 0.00317 0.19682 0.0
C298 C 0.51544 0.97548 0.27948 0.0
C299 C 0.53126 1.00106 0.34083 0.0
C300 C 0.54572 0.02785 0.32991 0.0
H301 H 0.58358 0.03547 0.81188 0.0
H302 H 0.58009 0.03726 0.68708 0.0
C303 C 0.54462 0.02897 0.25846 0.0
C304 C 0.53397 0.99944 0.41622 0.0
H305 H 0.48464 0.988 0.54328 0.0
C306 C 0.56747 0.00252 0.45608 0.0
C307 C 0.50374 0.99403 0.44777 0.0
C308 C 0.46726 0.991 0.40736 0.0
C309 C 0.57152 0.99995 0.52659 0.0
C310 C 0.54131 0.99497 0.55883 0.0
C311 C 0.50778 0.99181 0.51864 0.0
C312 C 0.54397 0.99349 0.63463 0.0
C313 C 0.60799 0.00182 0.56492 0.0
C314 C 0.52413 0.96858 0.6472 0.0
C315 C 0.52579 0.9676 0.71886 0.0
C316 C 0.5473 0.99155 0.77937 0.0
C317 C 0.56717 0.01642 0.76652 0.0
C318 C 0.56531 0.01746 0.69503 0.0
H319 H 0.62559 0.99644 0.52495 0.0
H320 H 0.6203 0.02477 0.60334 0.0
H321 H 0.60666 0.98652 0.59717 0.0
H322 H 0.5073 0.9499 0.60149 0.0
H323 H 0.51002 0.94817 0.72682 0.0
H324 H 0.57481 0.46922 0.77261 0.0
H325 H 0.57642 0.46961 0.64658 0.0
H326 H 0.49614 0.51712 0.6597 0.0
H327 H 0.49387 0.51634 0.78468 0.0
H328 H 0.51039 0.44994 0.5152 0.0
H329 H 0.58919 0.5681 0.61104 0.0
H330 H 0.59134 0.54481 0.66702 0.0
H331 H 0.55295 0.55815 0.65518 0.0
C332 C 0.55727 0.47948 0.74826 0.0
C333 C 0.53465 0.49319 0.78891 0.0
C334 C 0.55827 0.47974 0.67648 0.0
C335 C 0.53672 0.49374 0.64442 0.0
C336 C 0.51327 0.50652 0.6839 0.0
H337 H 0.52174 0.54003 0.24525 0.0
H338 H 0.51854 0.53647 0.36764 0.0
C339 C 0.51209 0.50611 0.7553 0.0
C340 C 0.53914 0.49565 0.57028 0.0
H341 H 0.57006 0.54406 0.48291 0.0
C342 C 0.52354 0.47043 0.5079 0.0
C343 C 0.556 0.52251 0.56125 0.0
C344 C 0.57354 0.55003 0.62693 0.0
C345 C 0.52396 0.47147 0.43634 0.0
C346 C 0.5413 0.4983 0.42715 0.0
C347 C 0.55684 0.52352 0.48984 0.0
C348 C 0.54372 0.50066 0.35308 0.0
C349 C 0.50496 0.44405 0.37133 0.0
C350 C 0.55962 0.48219 0.30467 0.0
C351 C 0.56136 0.48408 0.23463 0.0
C352 C 0.54762 0.50478 0.2117 0.0
C353 C 0.53262 0.52386 0.26107 0.0
C354 C 0.5307 0.52181 0.33105 0.0
H355 H 0.4846 0.42872 0.38699 0.0
H356 H 0.49187 0.44983 0.32585 0.0
H357 H 0.52446 0.43202 0.35038 0.0
H358 H 0.57077 0.46627 0.32107 0.0
H359 H 0.57338 0.46919 0.19837 0.0
H360 H 0.13307 0.46532 0.89843 0.0
H361 H 0.19497 0.46548 0.89837 0.0
H362 H 0.22597 0.53477 0.11052 0.0
H363 H 0.16366 0.53436 0.11122 0.0
H364 H 0.26917 0.54631 0.01662 0.0
H365 H 0.25683 0.43125 0.01209 0.0
H366 H 0.22699 0.43347 0.9379 0.0
H367 H 0.22222 0.44951 0.03151 0.0
C368 C 0.15279 0.48013 0.94589 0.0
C369 C 0.14285 0.49926 0.0055 0.0
C370 C 0.18846 0.48029 0.94572 0.0
C371 C 0.21547 0.4997 0.00514 0.0
C372 C 0.2058 0.51934 0.06417 0.0
H373 H 0.43396 0.48795 0.09211 0.0
H374 H 0.37169 0.48718 0.09256 0.0
C375 C 0.17001 0.51906 0.06451 0.0
C376 C 0.25372 0.50006 0.00473 0.0
H377 H 0.31132 0.45634 0.99052 0.0
C378 C 0.27833 0.52662 0.01112 0.0
C379 C 0.26611 0.47453 0.99837 0.0
C380 C 0.24177 0.44565 0.9953 0.0
C381 C 0.31452 0.52827 0.01028 0.0
C382 C 0.3267 0.50252 0.00157 0.0
C383 C 0.30218 0.47606 0.99631 0.0
C384 C 0.36485 0.50276 8e-05 0.0
C385 C 0.33952 0.55785 0.02045 0.0
C386 C 0.38216 0.51144 0.94751 0.0
C387 C 0.41791 0.51166 0.94689 0.0
C388 C 0.43717 0.50289 0.99827 0.0
C389 C 0.41983 0.49428 0.05081 0.0
C390 C 0.38414 0.49398 0.05134 0.0
H391 H 0.32846 0.57653 0.04657 0.0
H392 H 0.36556 0.56098 0.05495 0.0
H393 H 0.34397 0.55886 0.96576 0.0
H394 H 0.36791 0.51774 0.90627 0.0
H395 H 0.4303 0.51823 0.90533 0.0
H396 H 0.66917 0.19837 0.10158 0.0
H397 H 0.70602 0.23527 0.06218 0.0
H398 H 0.77195 0.17689 0.99164 0.0
H399 H 0.73572 0.1398 0.03235 0.0
H400 H 0.78365 0.25971 0.11639 0.0
H401 H 0.74371 0.20454 0.81169 0.0
H402 H 0.71614 0.19537 0.87396 0.0
H403 H 0.75544 0.18286 0.86613 0.0
C404 C 0.69153 0.19322 0.07803 0.0
C405 C 0.69922 0.16587 0.07004 0.0
C406 C 0.71244 0.21435 0.05511 0.0
C407 C 0.74143 0.20863 0.02352 0.0
C408 C 0.74927 0.18145 0.01487 0.0
H409 H 0.88499 0.32231 0.8498 0.0
H410 H 0.85593 0.2808 0.88593 0.0
C411 C 0.72839 0.16025 0.03796 0.0
C412 C 0.76427 0.23186 0.00296 0.0
H413 H 0.78579 0.25111 0.8556 0.0
C414 C 0.7843 0.25784 0.05943 0.0
C415 C 0.76527 0.22906 0.92866 0.0
C416 C 0.74392 0.20157 0.86626 0.0
C417 C 0.80501 0.28142 0.04354 0.0
C418 C 0.80486 0.27921 0.96908 0.0
C419 C 0.78567 0.25281 0.91261 0.0
C420 C 0.82313 0.30452 0.94865 0.0
C421 C 0.82698 0.30839 0.10675 0.0
C422 C 0.81404 0.33149 0.97133 0.0
C423 C 0.83087 0.35533 0.95162 0.0
C424 C 0.8568 0.35256 0.9079 0.0
C425 C 0.86553 0.32535 0.88447 0.0
C426 C 0.84879 0.30153 0.90459 0.0
H427 H 0.83316 0.30289 0.15749 0.0
H428 H 0.85227 0.31833 0.0929 0.0
H429 H 0.81179 0.32525 0.11922 0.0
H430 H 0.79374 0.33407 0.00399 0.0
H431 H 0.82375 0.37603 0.97124 0.0
H432 H 0.5062 0.91229 0.04767 0.0
H433 H 0.50812 0.86317 0.04829 0.0
H434 H 0.59018 0.86377 0.91984 0.0
H435 H 0.58742 0.91298 0.91638 0.0
H436 H 0.50039 0.8093 0.90834 0.0
H437 H 0.62569 0.84384 0.11614 0.0
H438 H 0.59877 0.86911 0.11392 0.0
H439 H 0.62336 0.85917 0.04263 0.0
C440 C 0.52483 0.90218 0.01955 0.0
C441 C 0.54728 0.917 0.98315 0.0
C442 C 0.52585 0.87401 0.02007 0.0
C443 C 0.54952 0.85992 0.98486 0.0
C444 C 0.572 0.87443 0.94819 0.0
H445 H 0.57886 0.69421 0.04475 0.0
H446 H 0.58674 0.73699 0.0014 0.0
C447 C 0.57069 0.90267 0.94688 0.0
C448 C 0.54973 0.82985 0.98635 0.0
H449 H 0.59207 0.79415 0.08039 0.0
C450 C 0.52069 0.80584 0.94508 0.0
C451 C 0.57635 0.82535 0.03385 0.0
C452 C 0.60791 0.85061 0.07953 0.0
C453 C 0.51693 0.77765 0.95179 0.0
C454 C 0.54243 0.77346 0.0028 0.0
C455 C 0.57243 0.79721 0.04142 0.0
C456 C 0.5367 0.74574 0.02217 0.0
C457 C 0.48535 0.75276 0.9045 0.0
C458 C 0.50594 0.73614 0.04778 0.0
C459 C 0.5013 0.71171 0.07183 0.0
C460 C 0.52753 0.69632 0.07215 0.0
C461 C 0.55799 0.70536 0.04466 0.0
C462 C 0.56264 0.72997 0.02039 0.0
H463 H 0.47662 0.75604 0.85171 0.0
H464 H 0.49131 0.7309 0.89199 0.0
H465 H 0.46286 0.75246 0.93401 0.0
H466 H 0.48585 0.74816 0.0515 0.0
H467 H 0.47737 0.70527 0.09201 0.0
H468 H 0.92383 0.46232 0.04088 0.0
H469 H 0.86115 0.46084 0.03644 0.0
H470 H 0.87617 0.53473 0.95645 0.0
H471 H 0.93775 0.53436 0.95422 0.0
H472 H 0.82807 0.49704 0.10577 0.0
H473 H 0.79071 0.48375 0.81158 0.0
H474 H 0.83331 0.48116 0.84993 0.0
H475 H 0.82556 0.51685 0.85933 0.0
C476 C 0.91377 0.47812 0.02168 0.0
C477 C 0.93635 0.49884 -0.00099 0.0
C478 C 0.87776 0.47734 0.01946 0.0
C479 C 0.86323 0.49737 0.99505 0.0
C480 C 0.88596 0.51836 0.97352 0.0
H481 H 0.65747 0.53736 0.97042 0.0
H482 H 0.71969 0.53743 0.97401 0.0
C483 C 0.9217 0.51864 0.97397 0.0
C484 C 0.82472 0.49669 0.99389 0.0
H485 H 0.74881 0.49629 0.88665 0.0
C486 C 0.81077 0.4966 0.05745 0.0
C487 C 0.80164 0.49612 0.93112 0.0
C488 C 0.81348 0.49416 0.85898 0.0
C489 C 0.77513 0.49659 0.06055 0.0
C490 C 0.7523 0.49645 0.99822 0.0
C491 C 0.76614 0.49651 0.93467 0.0
C492 C 0.71416 0.49657 0.9979 0.0
C493 C 0.76248 0.49746 0.13142 0.0
C494 C 0.68974 0.47355 0.0095 0.0
C495 C 0.65405 0.47383 0.00859 0.0
C496 C 0.64178 0.49707 0.99582 0.0
C497 C 0.66611 0.51977 0.98308 0.0
C498 C 0.70175 0.51955 0.98404 0.0
H499 H 0.78496 0.50516 0.17912 0.0
H500 H 0.74467 0.51226 0.14314 0.0
H501 H 0.74738 0.47481 0.12626 0.0
H502 H 0.69821 0.45519 0.01882 0.0
H503 H 0.63616 0.45609 0.01914 0.0
H504 H 0.2367 0.69892 0.18516 0.0
H505 H 0.27336 0.72763 0.12431 0.0
H506 H 0.18452 0.70467 0.94598 0.0
H507 H 0.14735 0.67591 0.00691 0.0
H508 H 0.27675 0.70186 0.94603 0.0
H509 H 0.23165 0.80355 0.06005 0.0
H510 H 0.23328 0.77847 0.11119 0.0
H511 H 0.20081 0.76715 0.02819 0.0
C512 C 0.22495 0.69998 0.13301 0.0
C513 C 0.18916 0.68538 0.10091 0.0
C514 C 0.24593 0.71623 0.09828 0.0
C515 C 0.23143 0.71824 0.03117 0.0
C516 C 0.19597 0.70326 0.99794 0.0
H517 H 0.34318 0.84159 0.83485 0.0
H518 H 0.29591 0.80786 0.86437 0.0
C519 C 0.17493 0.68681 0.03254 0.0
C520 C 0.25362 0.73675 0.99749 0.0
H521 H 0.27985 0.80789 -0.00078 0.0
C522 C 0.2772 0.72494 0.9566 0.0
C523 C 0.25375 0.76667 0.01134 0.0
C524 C 0.22858 0.77996 0.05504 0.0
C525 C 0.3019 0.74271 0.93087 0.0
C526 C 0.30344 0.77315 0.94825 0.0
C527 C 0.27873 0.78459 0.98645 0.0
C528 C 0.33176 0.79377 0.93092 0.0
C529 C 0.32631 0.72879 0.88594 0.0
C530 C 0.36742 0.79751 0.9602 0.0
C531 C 0.39434 0.81666 0.94351 0.0
C532 C 0.38605 0.83267 0.89785 0.0
C533 C 0.35028 0.82958 0.87035 0.0
C534 C 0.32332 0.81027 0.88684 0.0
H535 H 0.31467 0.70454 0.85831 0.0
H536 H 0.33221 0.73901 0.84336 0.0
H537 H 0.35167 0.73212 0.92298 0.0
H538 H 0.37443 0.78565 0.99618 0.0
H539 H 0.42166 0.81909 0.96673 0.0
H540 H 0.57712 0.28779 0.85665 0.0
H541 H 0.56739 0.23913 0.87102 0.0
H542 H 0.54199 0.27499 0.08456 0.0
H543 H 0.55091 0.32374 0.06947 0.0
H544 H 0.60226 0.22246 0.96769 0.0
H545 H 0.46156 0.20129 0.99733 0.0
H546 H 0.48264 0.23121 0.96804 0.0
H547 H 0.48929 0.23516 0.0643 0.0
C548 C 0.56928 0.2853 0.90657 0.0
C549 C 0.5649 0.30969 0.96203 0.0
C550 C 0.56367 0.25741 0.91471 0.0
C551 C 0.55362 0.25312 0.97859 0.0
C552 C 0.5489 0.27741 0.03395 0.0
H553 H 0.56209 0.0999 0.11857 0.0
H554 H 0.56711 0.15046 0.11677 0.0
C555 C 0.55415 0.30534 0.02544 0.0
C556 C 0.54985 0.22357 0.98796 0.0
H557 H 0.49252 0.16733 0.0197 0.0
C558 C 0.57825 0.21055 0.9793 0.0
C559 C 0.51839 0.20766 0.00227 0.0
C560 C 0.4861 0.21937 0.0078 0.0
C561 C 0.57603 0.18229 0.98444 0.0
C562 C 0.54495 0.16677 1e-05 0.0
C563 C 0.51655 0.17961 0.00896 0.0
C564 C 0.54095 0.13637 0.00258 0.0
C565 C 0.60634 0.16854 0.97059 0.0
C566 C 0.52481 0.11184 0.93899 0.0
C567 C 0.52253 0.0831 0.93953 0.0
C568 C 0.53604 0.07823 0.0039 0.0
C569 C 0.55184 0.1029 0.06792 0.0
C570 C 0.55441 0.13175 0.06717 0.0
H571 H 0.62946 0.18398 0.96248 0.0
H572 H 0.61478 0.1614 0.01742 0.0
H573 H 0.59729 0.1484 0.92058 0.0
H574 H 0.51454 0.11498 0.88845 0.0
H575 H 0.51079 0.06474 0.88892 0.0
loop_
_geom_bond_atom_site_label_1
_geom_bond_atom_site_label_2
_geom_bond_distance
_geom_bond_site_symmetry_2
_ccdc_geom_bond_type
C0 C2 1.422 . S
C0 C4 1.415 . S
C0 N6 1.352 1_455 S
C1 C2 1.421 . S
C1 C3 1.417 . S
C1 C13 1.422 1_556 S
C2 C0 1.422 . S
C2 C1 1.421 . S
C2 N12 1.359 . S
C3 C1 1.417 . S
C3 C5 1.329 . S
C3 H22 0.930 . S
C4 C0 1.415 . S
C4 C5 1.437 . S
C4 C8 1.413 . S
C5 C3 1.329 . S
C5 C4 1.437 . S
C5 H27 0.929 . S
N6 C0 1.352 1_655 S
N6 C7 1.340 . S
N6 Gd11 2.634 . S
C7 N6 1.340 . S
C7 C9 1.378 1_655 S
C7 H19 0.929 . S
C8 C4 1.413 . S
C8 C9 1.348 . S
C8 H24 0.931 . S
C9 C7 1.378 1_455 S
C9 C8 1.348 . S
C9 H25 0.930 1_455 S
Gd10 N30 2.638 . S
Gd10 N37 2.570 1_455 S
Gd10 O44 2.353 . S
Gd10 O45 2.468 1_554 S
Gd10 O46 2.427 . S
Gd10 O48 2.388 . S
Gd10 O49 2.386 1_455 S
Gd10 O53 2.307 1_554 S
Gd10 C63 2.805 . S
Gd11 N6 2.634 . S
Gd11 N12 2.570 1_655 S
Gd11 O43 2.386 1_655 S
Gd11 O47 2.307 1_656 S
Gd11 O50 2.353 . S
Gd11 O51 2.468 1_556 S
Gd11 O52 2.427 . S
Gd11 O54 2.388 . S
Gd11 C75 2.805 . S
N12 C2 1.359 . S
N12 Gd11 2.570 1_455 S
N12 C14 1.343 1_556 S
C13 C1 1.422 1_554 S
C13 C15 1.321 . S
C13 H21 0.931 . S
C14 N12 1.343 1_554 S
C14 C15 1.390 . S
C14 H16 0.931 . S
C15 C13 1.321 . S
C15 C14 1.390 . S
C15 H17 0.930 . S
H16 C14 0.931 . S
H17 C15 0.930 . S
H18 C41 0.931 . S
H19 C7 0.929 . S
H20 C42 0.930 . S
H21 C13 0.931 . S
H22 C3 0.930 . S
H23 C32 0.929 . S
H24 C8 0.931 . S
H25 C9 0.930 1_655 S
H26 C64 0.930 . S
H27 C5 0.929 . S
H28 C33 0.931 . S
H29 C34 0.930 1_455 S
N30 Gd10 2.638 . S
N30 C31 1.346 1_455 S
N30 C32 1.341 . S
C31 N30 1.346 1_655 S
C31 C35 1.415 . S
C31 C38 1.422 . S
C32 H23 0.929 . S
C32 N30 1.341 . S
C32 C34 1.378 1_455 S
C33 H28 0.931 . S
C33 C34 1.348 . S
C33 C35 1.413 . S
C34 H29 0.930 1_655 S
C34 C32 1.378 1_655 S
C34 C33 1.348 . S
C35 C31 1.415 . S
C35 C33 1.413 . S
C35 C65 1.437 . S
H36 C65 0.929 . S
N37 Gd10 2.570 1_655 S
N37 C38 1.359 . S
N37 C41 1.343 1_554 S
C38 C31 1.422 . S
C38 N37 1.359 . S
C38 C40 1.421 . S
C39 C40 1.422 1_556 S
C39 C42 1.321 . S
C39 H66 0.931 . S
C40 C38 1.421 . S
C40 C39 1.422 1_554 S
C40 C64 1.417 . S
C41 H18 0.931 . S
C41 N37 1.343 1_556 S
C41 C42 1.390 . S
C42 H20 0.930 . S
C42 C39 1.321 . S
C42 C41 1.390 . S
O43 Gd11 2.386 1_455 S
O43 C55 1.262 1_556 S
O44 Gd10 2.353 . S
O44 C55 1.244 . S
O45 Gd10 2.468 1_556 S
O45 C63 1.263 1_556 S
O46 Gd10 2.427 . S
O46 C63 1.252 . S
O47 Gd11 2.307 1_454 S
O47 C56 1.261 . S
O48 Gd10 2.388 . S
O48 C56 1.252 . S
O49 Gd10 2.386 1_655 S
O49 C67 1.263 1_554 S
O50 Gd11 2.353 . S
O50 C67 1.243 . S
O51 Gd11 2.468 1_554 S
O51 C75 1.263 1_554 S
O52 Gd11 2.427 . S
O52 C75 1.252 . S
O53 Gd10 2.307 1_556 S
O53 C68 1.261 1_455 S
O54 Gd11 2.388 . S
O54 C68 1.252 . S
C55 O43 1.262 1_554 S
C55 O44 1.244 . S
C56 O47 1.261 . S
C56 O48 1.252 . S
C57 C60 1.394 . S
C57 C62 1.370 . S
C57 C63 1.500 . S
C58 C61 1.383 . S
C58 C62 1.395 . S
C59 C60 1.396 . S
C59 C61 1.365 . S
C59 H76 0.929 . S
C60 C57 1.394 . S
C60 C59 1.396 . S
C60 H77 0.930 . S
C61 C58 1.383 . S
C61 C59 1.365 . S
C61 H78 0.931 . S
C62 C57 1.370 . S
C62 C58 1.395 . S
C62 H79 0.930 1_554 S
C63 Gd10 2.805 . S
C63 O45 1.263 1_554 S
C63 O46 1.252 . S
C63 C57 1.500 . S
C64 H26 0.930 . S
C64 C40 1.417 . S
C64 C65 1.329 . S
C65 C35 1.437 . S
C65 H36 0.929 . S
C65 C64 1.329 . S
H66 C39 0.931 . S
C67 O49 1.263 1_556 S
C67 O50 1.243 . S
C68 O53 1.261 1_655 S
C68 O54 1.252 . S
C69 C72 1.394 . S
C69 C74 1.370 . S
C69 C75 1.500 . S
C70 C73 1.383 . S
C70 C74 1.395 . S
C71 C72 1.396 . S
C71 C73 1.365 . S
C71 H80 0.929 . S
C72 C69 1.394 . S
C72 C71 1.396 . S
C72 H81 0.930 . S
C73 C70 1.383 . S
C73 C71 1.365 . S
C73 H82 0.931 . S
C74 C69 1.370 . S
C74 C70 1.395 . S
C74 H83 0.930 1_556 S
C75 Gd11 2.805 . S
C75 O51 1.263 1_556 S
C75 O52 1.252 . S
C75 C69 1.500 . S
H76 C59 0.929 . S
H77 C60 0.930 . S
H78 C61 0.931 . S
H79 C62 0.930 1_556 S
H80 C71 0.929 . S
H81 C72 0.930 . S
H82 C73 0.931 . S
H83 C74 0.930 1_554 S
C84 C86 1.422 . S
C84 C88 1.415 . S
C84 N90 1.369 1_565 S
C85 C86 1.421 1_556 S
C85 C87 1.417 1_556 S
C85 C97 1.422 . S
C86 C84 1.422 . S
C86 C85 1.421 1_554 S
C86 N96 1.359 1_554 S
C87 C85 1.417 1_554 S
C87 C89 1.329 . S
C87 H106 0.930 . S
C88 C84 1.415 . S
C88 C89 1.437 . S
C88 C92 1.413 . S
C89 C87 1.329 . S
C89 C88 1.437 . S
C89 H111 0.929 . S
N90 C84 1.369 1_545 S
N90 C91 1.338 . S
N90 Gd95 2.622 . S
C91 N90 1.338 . S
C91 C93 1.378 . S
C91 H103 0.929 . S
C92 C88 1.413 . S
C92 C93 1.348 1_565 S
C92 H108 0.931 . S
C93 C91 1.378 . S
C93 C92 1.348 1_545 S
C93 H109 0.930 . S
Gd94 N114 2.622 . S
Gd94 N121 2.570 1_566 S
Gd94 O128 2.353 . S
Gd94 O129 2.468 1_556 S
Gd94 O130 2.427 . S
Gd94 O132 2.388 . S
Gd94 O133 2.386 1_565 S
Gd94 O137 2.307 1_566 S
Gd94 C147 2.805 . S
Gd95 N90 2.622 . S
Gd95 N96 2.570 1_544 S
Gd95 O127 2.386 1_545 S
Gd95 O131 2.307 1_544 S
Gd95 O134 2.353 . S
Gd95 O135 2.468 1_554 S
Gd95 O136 2.427 . S
Gd95 O138 2.388 . S
Gd95 C159 2.805 . S
N96 C86 1.359 1_556 S
N96 Gd95 2.570 1_566 S
N96 C98 1.343 . S
C97 C85 1.422 . S
C97 C99 1.321 . S
C97 H105 0.931 . S
C98 N96 1.343 . S
C98 C99 1.390 . S
C98 H100 0.931 . S
C99 C97 1.321 . S
C99 C98 1.390 . S
C99 H101 0.930 . S
H100 C98 0.931 . S
H101 C99 0.930 . S
H102 C125 0.931 . S
H103 C91 0.929 . S
H104 C126 0.930 . S
H105 C97 0.931 . S
H106 C87 0.930 . S
H107 C116 0.929 . S
H108 C92 0.931 . S
H109 C93 0.930 . S
H110 C148 0.930 . S
H111 C89 0.929 . S
H112 C117 0.931 . S
H113 C118 0.930 . S
N114 Gd94 2.622 . S
N114 C115 1.369 1_565 S
N114 C116 1.338 . S
C115 N114 1.369 1_545 S
C115 C119 1.415 . S
C115 C122 1.422 . S
C116 H107 0.929 . S
C116 N114 1.338 . S
C116 C118 1.378 . S
C117 H112 0.931 . S
C117 C118 1.348 1_545 S
C117 C119 1.413 . S
C118 H113 0.930 . S
C118 C116 1.378 . S
C118 C117 1.348 1_565 S
C119 C115 1.415 . S
C119 C117 1.413 . S
C119 C149 1.437 . S
H120 C149 0.929 . S
N121 Gd94 2.570 1_544 S
N121 C122 1.359 1_554 S
N121 C125 1.343 . S
C122 C115 1.422 . S
C122 N121 1.359 1_556 S
C122 C124 1.421 1_556 S
C123 C124 1.422 . S
C123 C126 1.321 . S
C123 H150 0.931 . S
C124 C122 1.421 1_554 S
C124 C123 1.422 . S
C124 C148 1.417 1_554 S
C125 H102 0.931 . S
C125 N121 1.343 . S
C125 C126 1.390 . S
C126 H104 0.930 . S
C126 C123 1.321 . S
C126 C125 1.390 . S
O127 Gd95 2.386 1_565 S
O127 C139 1.265 1_554 S
O128 Gd94 2.353 . S
O128 C139 1.242 . S
O129 Gd94 2.468 1_554 S
O129 C147 1.263 1_554 S
O130 Gd94 2.427 . S
O130 C147 1.252 . S
O131 Gd95 2.307 1_566 S
O131 C140 1.258 . S
O132 Gd94 2.388 . S
O132 C140 1.252 . S
O133 Gd94 2.386 1_545 S
O133 C151 1.265 1_556 S
O134 Gd95 2.353 . S
O134 C151 1.242 . S
O135 Gd95 2.468 1_556 S
O135 C159 1.263 1_556 S
O136 Gd95 2.427 . S
O136 C159 1.252 . S
O137 Gd94 2.307 1_544 S
O137 C152 1.261 . S
O138 Gd95 2.388 . S
O138 C152 1.252 . S
C139 O127 1.265 1_556 S
C139 O128 1.242 . S
C140 O131 1.258 . S
C140 O132 1.252 . S
C141 C144 1.394 . S
C141 C146 1.370 1_556 S
C141 C147 1.500 . S
C142 C145 1.383 1_554 S
C142 C146 1.395 . S
C143 C144 1.396 . S
C143 C145 1.365 . S
C143 H160 0.929 . S
C144 C141 1.394 . S
C144 C143 1.396 . S
C144 H161 0.930 . S
C145 C142 1.383 1_556 S
C145 C143 1.365 . S
C145 H162 0.931 . S
C146 C141 1.370 1_554 S
C146 C142 1.395 . S
C146 H163 0.930 . S
C147 Gd94 2.805 . S
C147 O129 1.263 1_556 S
C147 O130 1.252 . S
C147 C141 1.500 . S
C148 H110 0.930 . S
C148 C124 1.417 1_556 S
C148 C149 1.329 . S
C149 C119 1.437 . S
C149 H120 0.929 . S
C149 C148 1.329 . S
H150 C123 0.931 . S
C151 O133 1.265 1_554 S
C151 O134 1.242 . S
C152 O137 1.261 . S
C152 O138 1.252 . S
C153 C156 1.394 . S
C153 C158 1.370 1_554 S
C153 C159 1.500 . S
C154 C157 1.383 1_556 S
C154 C158 1.395 . S
C155 C156 1.396 . S
C155 C157 1.365 . S
C155 H164 0.929 . S
C156 C153 1.394 . S
C156 C155 1.396 . S
C156 H165 0.930 . S
C157 C154 1.383 1_554 S
C157 C155 1.365 . S
C157 H166 0.931 . S
C158 C153 1.370 1_556 S
C158 C154 1.395 . S
C158 H167 0.930 . S
C159 Gd95 2.805 . S
C159 O135 1.263 1_554 S
C159 O136 1.252 . S
C159 C153 1.500 . S
H160 C143 0.929 . S
H161 C144 0.930 . S
H162 C145 0.931 . S
H163 C146 0.930 . S
H164 C155 0.929 . S
H165 C156 0.930 . S
H166 C157 0.931 . S
H167 C158 0.930 . S
C168 C170 1.422 . S
C168 C172 1.415 . S
C168 N174 1.369 . S
C169 C170 1.421 . S
C169 C171 1.417 . S
C169 C181 1.422 1_554 S
C170 C168 1.422 . S
C170 C169 1.421 . S
C170 N180 1.359 . S
C171 C169 1.417 . S
C171 C173 1.329 . S
C171 H190 0.930 . S
C172 C168 1.415 . S
C172 C173 1.437 . S
C172 C176 1.413 . S
C173 C171 1.329 . S
C173 C172 1.437 . S
C173 H195 0.929 . S
N174 C168 1.369 . S
N174 C175 1.338 . S
N174 Gd179 2.622 . S
C175 N174 1.338 . S
C175 C177 1.378 . S
C175 H187 0.929 . S
C176 C172 1.413 . S
C176 C177 1.348 . S
C176 H192 0.931 . S
C177 C175 1.378 . S
C177 C176 1.348 . S
C177 H193 0.930 . S
Gd178 N198 2.622 . S
Gd178 N205 2.570 . S
Gd178 O212 2.353 . S
Gd178 O213 2.468 1_556 S
Gd178 O214 2.427 . S
Gd178 O216 2.388 . S
Gd178 O217 2.386 . S
Gd178 O221 2.307 1_556 S
Gd178 C231 2.805 . S
Gd179 N174 2.622 . S
Gd179 N180 2.570 . S
Gd179 O211 2.386 . S
Gd179 O215 2.307 1_554 S
Gd179 O218 2.353 . S
Gd179 O219 2.468 1_554 S
Gd179 O220 2.427 . S
Gd179 O222 2.388 . S
Gd179 C243 2.805 . S
N180 C170 1.359 . S
N180 Gd179 2.570 . S
N180 C182 1.343 1_554 S
C181 C169 1.422 1_556 S
C181 C183 1.321 . S
C181 H189 0.931 . S
C182 N180 1.343 1_556 S
C182 C183 1.390 . S
C182 H184 0.931 . S
C183 C181 1.321 . S
C183 C182 1.390 . S
C183 H185 0.930 . S
H184 C182 0.931 . S
H185 C183 0.930 . S
H186 C209 0.931 . S
H187 C175 0.929 . S
H188 C210 0.930 . S
H189 C181 0.931 . S
H190 C171 0.930 . S
H191 C200 0.929 . S
H192 C176 0.931 . S
H193 C177 0.930 . S
H194 C232 0.930 . S
H195 C173 0.929 . S
H196 C201 0.931 . S
H197 C202 0.930 . S
N198 Gd178 2.622 . S
N198 C199 1.369 . S
N198 C200 1.338 . S
C199 N198 1.369 . S
C199 C203 1.415 . S
C199 C206 1.422 . S
C200 H191 0.929 . S
C200 N198 1.338 . S
C200 C202 1.378 . S
C201 H196 0.931 . S
C201 C202 1.348 . S
C201 C203 1.413 . S
C202 H197 0.930 . S
C202 C200 1.378 . S
C202 C201 1.348 . S
C203 C199 1.415 . S
C203 C201 1.413 . S
C203 C233 1.437 . S
H204 C233 0.929 . S
N205 Gd178 2.570 . S
N205 C206 1.359 . S
N205 C209 1.343 1_556 S
C206 C199 1.422 . S
C206 N205 1.359 . S
C206 C208 1.421 . S
C207 C208 1.422 1_554 S
C207 C210 1.321 . S
C207 H234 0.931 . S
C208 C206 1.421 . S
C208 C207 1.422 1_556 S
C208 C232 1.417 . S
C209 H186 0.931 . S
C209 N205 1.343 1_554 S
C209 C210 1.390 . S
C210 H188 0.930 . S
C210 C207 1.321 . S
C210 C209 1.390 . S
O211 Gd179 2.386 . S
O211 C223 1.265 . S
O212 Gd178 2.353 . S
O212 C223 1.242 1_556 S
O213 Gd178 2.468 1_554 S
O213 C231 1.263 1_554 S
O214 Gd178 2.427 . S
O214 C231 1.252 . S
O215 Gd179 2.307 1_556 S
O215 C224 1.261 . S
O216 Gd178 2.388 . S
O216 C224 1.252 . S
O217 Gd178 2.386 . S
O217 C235 1.265 . S
O218 Gd179 2.353 . S
O218 C235 1.242 1_554 S
O219 Gd179 2.468 1_556 S
O219 C243 1.263 1_556 S
O220 Gd179 2.427 . S
O220 C243 1.252 . S
O221 Gd178 2.307 1_554 S
O221 C236 1.261 . S
O222 Gd179 2.388 . S
O222 C236 1.252 . S
C223 O211 1.265 . S
C223 O212 1.242 1_554 S
C224 O215 1.261 . S
C224 O216 1.252 . S
C225 C228 1.394 . S
C225 C230 1.381 . S
C225 C231 1.500 . S
C226 C229 1.383 . S
C226 C230 1.393 . S
C227 C228 1.396 . S
C227 C229 1.365 . S
C227 H244 0.929 . S
C228 C225 1.394 . S
C228 C227 1.396 . S
C228 H245 0.930 . S
C229 C226 1.383 . S
C229 C227 1.365 . S
C229 H246 0.931 . S
C230 C225 1.381 . S
C230 C226 1.393 . S
C230 H247 0.921 1_556 S
C231 Gd178 2.805 . S
C231 O213 1.263 1_556 S
C231 O214 1.252 . S
C231 C225 1.500 . S
C232 H194 0.930 . S
C232 C208 1.417 . S
C232 C233 1.329 . S
C233 C203 1.437 . S
C233 H204 0.929 . S
C233 C232 1.329 . S
H234 C207 0.931 . S
C235 O217 1.265 . S
C235 O218 1.242 1_556 S
C236 O221 1.261 . S
C236 O222 1.252 . S
C237 C240 1.394 . S
C237 C242 1.385 . S
C237 C243 1.500 . S
C238 C241 1.383 . S
C238 C242 1.392 . S
C239 C240 1.396 . S
C239 C241 1.365 . S
C239 H248 0.929 . S
C240 C237 1.394 . S
C240 C239 1.396 . S
C240 H249 0.930 . S
C241 C238 1.383 . S
C241 C239 1.365 . S
C241 H250 0.931 . S
C242 C237 1.385 . S
C242 C238 1.392 . S
C242 H251 0.919 1_554 S
C243 Gd179 2.805 . S
C243 O219 1.263 1_554 S
C243 O220 1.252 . S
C243 C237 1.500 . S
H244 C227 0.929 . S
H245 C228 0.930 . S
H246 C229 0.931 . S
H247 C230 0.921 1_554 S
H248 C239 0.929 . S
H249 C240 0.930 . S
H250 C241 0.931 . S
H251 C242 0.919 1_556 S
H252 C260 0.929 . S
H253 C262 0.930 . S
H254 C264 0.930 . S
H255 C267 0.929 . S
H256 C270 0.930 . S
H257 C272 0.960 . S
H258 C272 0.960 1_455 S
H259 C272 0.960 . S
C260 H252 0.929 . S
C260 C261 1.365 1_455 S
C260 C262 1.384 . S
C261 C260 1.365 1_655 S
C261 C267 1.400 . S
C262 H253 0.930 . S
C262 C260 1.384 . S
C262 C263 1.372 . S
C263 C262 1.372 . S
C263 C264 1.400 1_455 S
C263 C268 1.490 . S
C264 H254 0.930 . S
C264 C263 1.400 1_655 S
C264 C267 1.386 . S
H265 C281 0.930 . S
H266 C282 0.931 . S
C267 H255 0.929 . S
C267 C261 1.400 . S
C267 C264 1.386 . S
C268 C263 1.490 . S
C268 C270 1.395 . S
C268 C271 1.403 1_455 S
H269 C275 0.930 . S
C270 H256 0.930 . S
C270 C268 1.395 . S
C270 C273 1.403 . S
C271 C268 1.403 1_655 S
C271 C272 1.524 . S
C271 C275 1.400 . S
C272 H257 0.960 . S
C272 H258 0.960 1_655 S
C272 H259 0.960 . S
C272 C271 1.524 . S
C273 C270 1.403 . S
C273 C274 1.392 . S
C273 C277 1.495 . S
C274 C273 1.392 . S
C274 C275 1.385 1_455 S
C274 C276 1.478 . S
C275 H269 0.930 . S
C275 C271 1.400 . S
C275 C274 1.385 1_655 S
C276 C274 1.478 . S
C276 C278 1.381 . S
C276 C282 1.383 1_455 S
C277 C273 1.495 . S
C277 H283 0.959 . S
C277 H284 0.961 1_455 S
C277 H285 0.960 . S
C278 C276 1.381 . S
C278 C279 1.394 . S
C278 H286 0.930 . S
C279 C278 1.394 . S
C279 C280 1.383 . S
C279 H287 0.929 . S
C280 C279 1.383 . S
C280 C281 1.377 1_455 S
C281 H265 0.930 . S
C281 C280 1.377 1_655 S
C281 C282 1.379 . S
C282 H266 0.931 . S
C282 C276 1.383 1_655 S
C282 C281 1.379 . S
H283 C277 0.959 . S
H284 C277 0.961 1_655 S
H285 C277 0.960 . S
H286 C278 0.930 . S
H287 C279 0.929 . S
H288 C296 0.929 . S
H289 C298 0.930 . S
H290 C300 0.930 . S
H291 C303 0.929 . S
H292 C306 0.930 . S
H293 C308 0.960 . S
H294 C308 0.960 . S
H295 C308 0.960 . S
C296 H288 0.929 . S
C296 C297 1.377 1_565 S
C296 C298 1.384 . S
C297 C296 1.377 1_545 S
C297 C303 1.390 . S
C298 H289 0.930 . S
C298 C296 1.384 . S
C298 C299 1.372 1_565 S
C299 C298 1.372 1_545 S
C299 C300 1.400 . S
C299 C304 1.502 . S
C300 H290 0.930 . S
C300 C299 1.400 . S
C300 C303 1.386 . S
H301 C317 0.930 . S
H302 C318 0.931 . S
C303 H291 0.929 . S
C303 C297 1.390 . S
C303 C300 1.386 . S
C304 C299 1.502 . S
C304 C306 1.395 . S
C304 C307 1.392 1_545 S
H305 C311 0.930 . S
C306 H292 0.930 . S
C306 C304 1.395 . S
C306 C309 1.403 . S
C307 C304 1.392 1_565 S
C307 C308 1.524 . S
C307 C311 1.400 . S
C308 H293 0.960 . S
C308 H294 0.960 . S
C308 H295 0.960 . S
C308 C307 1.524 . S
C309 C306 1.403 . S
C309 C310 1.407 . S
C309 C313 1.495 . S
C310 C309 1.407 . S
C310 C311 1.386 1_545 S
C310 C312 1.468 . S
C311 H305 0.930 . S
C311 C307 1.400 . S
C311 C310 1.386 1_565 S
C312 C310 1.468 . S
C312 C314 1.371 1_545 S
C312 C318 1.388 . S
C313 C309 1.495 . S
C313 H319 0.959 . S
C313 H320 0.961 . S
C313 H321 0.960 . S
C314 C312 1.371 1_565 S
C314 C315 1.394 . S
C314 H322 0.930 . S
C315 C314 1.394 . S
C315 C316 1.383 . S
C315 H323 0.929 . S
C316 C315 1.383 . S
C316 C317 1.377 1_565 S
C317 H301 0.930 . S
C317 C316 1.377 1_545 S
C317 C318 1.379 . S
C318 H302 0.931 . S
C318 C312 1.388 . S
C318 C317 1.379 . S
H319 C313 0.959 . S
H320 C313 0.961 . S
H321 C313 0.960 . S
H322 C314 0.930 . S
H323 C315 0.929 . S
H324 C332 0.929 . S
H325 C334 0.930 . S
H326 C336 0.930 . S
H327 C339 0.929 . S
H328 C342 0.930 . S
H329 C344 0.960 . S
H330 C344 0.960 . S
H331 C344 0.960 . S
C332 H324 0.929 . S
C332 C333 1.377 . S
C332 C334 1.384 . S
C333 C332 1.377 . S
C333 C339 1.390 . S
C334 H325 0.930 . S
C334 C332 1.384 . S
C334 C335 1.372 . S
C335 C334 1.372 . S
C335 C336 1.400 . S
C335 C340 1.490 . S
C336 H326 0.930 . S
C336 C335 1.400 . S
C336 C339 1.386 . S
H337 C353 0.930 . S
H338 C354 0.931 . S
C339 H327 0.929 . S
C339 C333 1.390 . S
C339 C336 1.386 . S
C340 C335 1.490 . S
C340 C342 1.395 . S
C340 C343 1.403 . S
H341 C347 0.930 . S
C342 H328 0.930 . S
C342 C340 1.395 . S
C342 C345 1.403 . S
C343 C340 1.403 . S
C343 C344 1.524 . S
C343 C347 1.400 . S
C344 H329 0.960 . S
C344 H330 0.960 . S
C344 H331 0.960 . S
C344 C343 1.524 . S
C345 C342 1.403 . S
C345 C346 1.392 . S
C345 C349 1.495 . S
C346 C345 1.392 . S
C346 C347 1.385 . S
C346 C348 1.478 . S
C347 H341 0.930 . S
C347 C343 1.400 . S
C347 C346 1.385 . S
C348 C346 1.478 . S
C348 C350 1.381 . S
C348 C354 1.383 . S
C349 C345 1.495 . S
C349 H355 0.959 . S
C349 H356 0.961 . S
C349 H357 0.960 . S
C350 C348 1.381 . S
C350 C351 1.394 . S
C350 H358 0.930 . S
C351 C350 1.394 . S
C351 C352 1.383 . S
C351 H359 0.929 . S
C352 C351 1.383 . S
C352 C353 1.377 . S
C353 H337 0.930 . S
C353 C352 1.377 . S
C353 C354 1.379 . S
C354 H338 0.931 . S
C354 C348 1.383 . S
C354 C353 1.379 . S
H355 C349 0.959 . S
H356 C349 0.961 . S
H357 C349 0.960 . S
H358 C350 0.930 . S
H359 C351 0.929 . S
H360 C368 0.929 . S
H361 C370 0.930 . S
H362 C372 0.930 . S
H363 C375 0.929 . S
H364 C378 0.930 . S
H365 C380 0.960 . S
H366 C380 0.960 . S
H367 C380 0.960 1_554 S
C368 H360 0.929 . S
C368 C369 1.377 1_556 S
C368 C370 1.384 . S
C369 C368 1.377 1_554 S
C369 C375 1.390 . S
C370 H361 0.930 . S
C370 C368 1.384 . S
C370 C371 1.371 . S
C371 C370 1.371 . S
C371 C372 1.401 1_556 S
C371 C376 1.490 . S
C372 H362 0.930 . S
C372 C371 1.401 1_554 S
C372 C375 1.386 . S
H373 C389 0.930 . S
H374 C390 0.931 . S
C375 H363 0.929 . S
C375 C369 1.390 . S
C375 C372 1.386 . S
C376 C371 1.490 . S
C376 C378 1.395 . S
C376 C379 1.403 . S
H377 C383 0.930 . S
C378 H364 0.930 . S
C378 C376 1.395 . S
C378 C381 1.403 . S
C379 C376 1.403 . S
C379 C380 1.524 . S
C379 C383 1.400 . S
C380 H365 0.960 . S
C380 H366 0.960 . S
C380 H367 0.960 1_556 S
C380 C379 1.524 . S
C381 C378 1.403 . S
C381 C382 1.392 . S
C381 C385 1.494 . S
C382 C381 1.392 . S
C382 C383 1.385 . S
C382 C384 1.478 . S
C383 H377 0.930 . S
C383 C379 1.400 . S
C383 C382 1.385 . S
C384 C382 1.478 . S
C384 C386 1.381 . S
C384 C390 1.383 1_556 S
C385 C381 1.494 . S
C385 H391 0.960 . S
C385 H392 0.959 1_556 S
C385 H393 0.962 . S
C386 C384 1.381 . S
C386 C387 1.394 . S
C386 H394 0.930 . S
C387 C386 1.394 . S
C387 C388 1.383 . S
C387 H395 0.929 . S
C388 C387 1.383 . S
C388 C389 1.377 1_556 S
C389 H373 0.930 . S
C389 C388 1.377 1_554 S
C389 C390 1.379 . S
C390 H374 0.931 . S
C390 C384 1.383 1_554 S
C390 C389 1.379 . S
H391 C385 0.960 . S
H392 C385 0.959 1_554 S
H393 C385 0.962 . S
H394 C386 0.930 . S
H395 C387 0.929 . S
H396 C404 0.929 . S
H397 C406 0.930 1_554 S
H398 C408 0.930 . S
H399 C411 0.929 . S
H400 C414 0.930 . S
H401 C416 0.960 . S
H402 C416 0.960 . S
H403 C416 0.960 . S
C404 H396 0.929 . S
C404 C405 1.377 . S
C404 C406 1.384 . S
C405 C404 1.377 . S
C405 C411 1.390 . S
C406 H397 0.930 1_556 S
C406 C404 1.384 . S
C406 C407 1.372 . S
C407 C406 1.372 . S
C407 C408 1.400 . S
C407 C412 1.490 . S
C408 H398 0.930 . S
C408 C407 1.400 . S
C408 C411 1.386 . S
H409 C425 0.930 . S
H410 C426 0.931 . S
C411 H399 0.929 . S
C411 C405 1.390 . S
C411 C408 1.386 . S
C412 C407 1.490 . S
C412 C414 1.395 1_556 S
C412 C415 1.403 . S
H413 C419 0.930 . S
C414 H400 0.930 . S
C414 C412 1.395 1_554 S
C414 C417 1.403 . S
C415 C412 1.403 . S
C415 C416 1.524 . S
C415 C419 1.400 . S
C416 H401 0.960 . S
C416 H402 0.960 . S
C416 H403 0.960 . S
C416 C415 1.524 . S
C417 C414 1.403 . S
C417 C418 1.392 . S
C417 C421 1.495 . S
C418 C417 1.392 . S
C418 C419 1.385 1_554 S
C418 C420 1.478 . S
C419 H413 0.930 . S
C419 C415 1.400 . S
C419 C418 1.385 1_556 S
C420 C418 1.478 . S
C420 C422 1.381 . S
C420 C426 1.383 . S
C421 C417 1.495 . S
C421 H427 0.959 . S
C421 H428 0.961 . S
C421 H429 0.960 . S
C422 C420 1.381 . S
C422 C423 1.394 . S
C422 H430 0.930 . S
C423 C422 1.394 . S
C423 C424 1.383 . S
C423 H431 0.929 . S
C424 C423 1.383 . S
C424 C425 1.377 . S
C425 H409 0.930 . S
C425 C424 1.377 . S
C425 C426 1.379 . S
C426 H410 0.931 . S
C426 C420 1.383 . S
C426 C425 1.379 . S
H427 C421 0.959 . S
H428 C421 0.961 . S
H429 C421 0.960 . S
H430 C422 0.930 . S
H431 C423 0.929 . S
H432 C440 0.929 . S
H433 C442 0.930 . S
H434 C444 0.930 . S
H435 C447 0.929 . S
H436 C450 0.930 . S
H437 C452 0.960 . S
H438 C452 0.960 . S
H439 C452 0.960 . S
C440 H432 0.929 . S
C440 C441 1.377 . S
C440 C442 1.384 . S
C441 C440 1.377 . S
C441 C447 1.390 . S
C442 H433 0.930 . S
C442 C440 1.384 . S
C442 C443 1.372 . S
C443 C442 1.372 . S
C443 C444 1.400 . S
C443 C448 1.490 . S
C444 H434 0.930 . S
C444 C443 1.400 . S
C444 C447 1.386 . S
H445 C461 0.930 . S
H446 C462 0.931 . S
C447 H435 0.929 . S
C447 C441 1.390 . S
C447 C444 1.386 . S
C448 C443 1.490 . S
C448 C450 1.395 . S
C448 C451 1.403 1_556 S
H449 C455 0.930 . S
C450 H436 0.930 . S
C450 C448 1.395 . S
C450 C453 1.403 . S
C451 C448 1.403 1_554 S
C451 C452 1.524 . S
C451 C455 1.400 . S
C452 H437 0.960 . S
C452 H438 0.960 . S
C452 H439 0.960 . S
C452 C451 1.524 . S
C453 C450 1.403 . S
C453 C454 1.392 . S
C453 C457 1.495 . S
C454 C453 1.392 . S
C454 C455 1.385 1_556 S
C454 C456 1.478 . S
C455 H449 0.930 . S
C455 C451 1.400 . S
C455 C454 1.385 1_554 S
C456 C454 1.478 . S
C456 C458 1.381 . S
C456 C462 1.383 . S
C457 C453 1.495 . S
C457 H463 0.959 . S
C457 H464 0.961 . S
C457 H465 0.960 . S
C458 C456 1.381 . S
C458 C459 1.394 . S
C458 H466 0.930 . S
C459 C458 1.394 . S
C459 C460 1.383 . S
C459 H467 0.929 . S
C460 C459 1.383 . S
C460 C461 1.377 . S
C461 H445 0.930 . S
C461 C460 1.377 . S
C461 C462 1.379 . S
C462 H446 0.931 . S
C462 C456 1.383 . S
C462 C461 1.379 . S
H463 C457 0.959 . S
H464 C457 0.961 . S
H465 C457 0.960 . S
H466 C458 0.930 . S
H467 C459 0.929 . S
H468 C476 0.929 . S
H469 C478 0.930 . S
H470 C480 0.930 . S
H471 C483 0.929 . S
H472 C486 0.930 . S
H473 C488 0.960 . S
H474 C488 0.960 . S
H475 C488 0.960 . S
C476 H468 0.929 . S
C476 C477 1.377 1_554 S
C476 C478 1.384 . S
C477 C476 1.377 1_556 S
C477 C483 1.390 . S
C478 H469 0.930 . S
C478 C476 1.384 . S
C478 C479 1.372 1_554 S
C479 C478 1.372 1_556 S
C479 C480 1.400 . S
C479 C484 1.490 1_556 S
C480 H470 0.930 . S
C480 C479 1.400 . S
C480 C483 1.386 . S
H481 C497 0.930 . S
H482 C498 0.931 1_556 S
C483 H471 0.929 . S
C483 C477 1.390 . S
C483 C480 1.386 . S
C484 C479 1.490 1_554 S
C484 C486 1.395 . S
C484 C487 1.403 1_554 S
H485 C491 0.930 . S
C486 H472 0.930 . S
C486 C484 1.395 . S
C486 C489 1.403 . S
C487 C484 1.403 1_556 S
C487 C488 1.524 . S
C487 C491 1.400 . S
C488 H473 0.960 . S
C488 H474 0.960 . S
C488 H475 0.960 . S
C488 C487 1.524 . S
C489 C486 1.403 . S
C489 C490 1.392 . S
C489 C493 1.495 . S
C490 C489 1.392 . S
C490 C491 1.385 1_554 S
C490 C492 1.478 . S
C491 H485 0.930 . S
C491 C487 1.400 . S
C491 C490 1.385 1_556 S
C492 C490 1.478 . S
C492 C494 1.381 . S
C492 C498 1.383 . S
C493 C489 1.495 . S
C493 H499 0.959 . S
C493 H500 0.961 . S
C493 H501 0.960 . S
C494 C492 1.381 . S
C494 C495 1.394 . S
C494 H502 0.930 . S
C495 C494 1.394 . S
C495 C496 1.383 . S
C495 H503 0.929 . S
C496 C495 1.383 . S
C496 C497 1.377 1_554 S
C497 H481 0.930 . S
C497 C496 1.377 1_556 S
C497 C498 1.379 1_556 S
C498 H482 0.931 1_554 S
C498 C492 1.383 . S
C498 C497 1.379 1_554 S
H499 C493 0.959 . S
H500 C493 0.961 . S
H501 C493 0.960 . S
H502 C494 0.930 . S
H503 C495 0.929 . S
H504 C512 0.929 . S
H505 C514 0.930 . S
H506 C516 0.930 . S
H507 C519 0.929 . S
H508 C522 0.930 . S
H509 C524 0.960 . S
H510 C524 0.960 1_554 S
H511 C524 0.960 . S
C512 H504 0.929 . S
C512 C513 1.377 1_554 S
C512 C514 1.384 . S
C513 C512 1.377 1_556 S
C513 C519 1.390 . S
C514 H505 0.930 . S
C514 C512 1.384 . S
C514 C515 1.359 1_554 S
C515 C514 1.359 1_556 S
C515 C516 1.409 . S
C515 C520 1.494 1_556 S
C516 H506 0.930 . S
C516 C515 1.409 . S
C516 C519 1.386 . S
H517 C533 0.930 . S
H518 C534 0.931 . S
C519 H507 0.929 . S
C519 C513 1.390 . S
C519 C516 1.386 . S
C520 C515 1.494 1_554 S
C520 C522 1.395 . S
C520 C523 1.403 1_554 S
H521 C527 0.930 1_556 S
C522 H508 0.930 . S
C522 C520 1.395 . S
C522 C525 1.403 . S
C523 C520 1.403 1_556 S
C523 C524 1.524 . S
C523 C527 1.400 1_556 S
C524 H509 0.960 . S
C524 H510 0.960 1_556 S
C524 H511 0.960 . S
C524 C523 1.524 . S
C525 C522 1.403 . S
C525 C526 1.392 . S
C525 C529 1.495 . S
C526 C525 1.392 . S
C526 C527 1.385 . S
C526 C528 1.478 . S
C527 H521 0.930 1_554 S
C527 C523 1.400 1_554 S
C527 C526 1.385 . S
C528 C526 1.478 . S
C528 C530 1.381 . S
C528 C534 1.383 1_554 S
C529 C525 1.495 . S
C529 H535 0.959 . S
C529 H536 0.961 . S
C529 H537 0.960 . S
C530 C528 1.381 . S
C530 C531 1.394 . S
C530 H538 0.930 . S
C531 C530 1.394 . S
C531 C532 1.383 . S
C531 H539 0.929 . S
C532 C531 1.383 . S
C532 C533 1.377 1_554 S
C533 H517 0.930 . S
C533 C532 1.377 1_556 S
C533 C534 1.379 . S
C534 H518 0.931 . S
C534 C528 1.383 1_556 S
C534 C533 1.379 . S
H535 C529 0.959 . S
H536 C529 0.961 . S
H537 C529 0.960 . S
H538 C530 0.930 . S
H539 C531 0.929 . S
H540 C548 0.929 . S
H541 C550 0.930 . S
H542 C552 0.930 . S
H543 C555 0.929 . S
H544 C558 0.930 . S
H545 C560 0.960 . S
H546 C560 0.960 . S
H547 C560 0.960 . S
C548 H540 0.929 . S
C548 C549 1.377 1_556 S
C548 C550 1.384 . S
C549 C548 1.377 1_554 S
C549 C555 1.390 . S
C550 H541 0.930 . S
C550 C548 1.384 . S
C550 C551 1.372 1_556 S
C551 C550 1.372 1_554 S
C551 C552 1.400 . S
C551 C556 1.490 . S
C552 H542 0.930 . S
C552 C551 1.400 . S
C552 C555 1.386 . S
H553 C569 0.930 . S
H554 C570 0.931 . S
C555 H543 0.929 . S
C555 C549 1.390 . S
C555 C552 1.386 . S
C556 C551 1.490 . S
C556 C558 1.395 1_554 S
C556 C559 1.403 . S
H557 C563 0.930 . S
C558 H544 0.930 . S
C558 C556 1.395 1_556 S
C558 C561 1.403 . S
C559 C556 1.403 . S
C559 C560 1.524 . S
C559 C563 1.400 . S
C560 H545 0.960 . S
C560 H546 0.960 . S
C560 H547 0.960 . S
C560 C559 1.524 . S
C561 C558 1.403 . S
C561 C562 1.392 1_556 S
C561 C565 1.495 . S
C562 C561 1.392 1_554 S
C562 C563 1.385 . S
C562 C564 1.478 . S
C563 H557 0.930 . S
C563 C559 1.400 . S
C563 C562 1.385 . S
C564 C562 1.478 . S
C564 C566 1.381 1_554 S
C564 C570 1.383 . S
C565 C561 1.495 . S
C565 H571 0.959 . S
C565 H572 0.961 . S
C565 H573 0.960 . S
C566 C564 1.381 1_556 S
C566 C567 1.394 . S
C566 H574 0.930 . S
C567 C566 1.394 . S
C567 C568 1.383 1_556 S
C567 H575 0.929 . S
C568 C567 1.383 1_554 S
C568 C569 1.377 . S
C569 H553 0.930 . S
C569 C568 1.377 . S
C569 C570 1.379 . S
C570 H554 0.931 . S
C570 C564 1.383 . S
C570 C569 1.379 . S
H571 C565 0.959 . S
H572 C565 0.961 . S
H573 C565 0.960 . S
H574 C566 0.930 . S
H575 C567 0.929 . S
C261 C68 1.490 . S
C280 C56 1.488 . S
C297 C152 1.521 . S
C316 C140 1.531 . S
C333 C224 1.478 . S
C352 C236 1.493 . S
C369 C55 2.262 . S
C388 C235 2.272 . S
C405 C154 0.760 . S
C424 C70 0.832 1_554 S
C441 C139 1.535 . S
C460 C238 1.447 1_556 S
C477 C67 2.263 . S
C496 C223 2.274 . S
C513 C58 0.733 1_556 S
C532 C142 0.767 . S
C549 C226 1.398 1_554 S
C568 C151 1.511 . S
