# Generated by pormake.
# Topology uob, (4)-cn, num edge types: 1
# Building blocks:
#     Node 0, Type 0, BuildingBlock: ICAMEG_clean_sbu_1, # of connection points: 4
#     Node 1, Type 0, BuildingBlock: ICAMEG_clean_sbu_1, # of connection points: 4
#     Node 2, Type 0, BuildingBlock: ICAMEG_clean_sbu_1, # of connection points: 4
#     Node 3, Type 0, BuildingBlock: ICAMEG_clean_sbu_1, # of connection points: 4
#     Node 4, Type 0, BuildingBlock: ICAMEG_clean_sbu_1, # of connection points: 4
#     Node 5, Type 0, BuildingBlock: ICAMEG_clean_sbu_1, # of connection points: 4
#     Node 6, Type 0, BuildingBlock: ICAMEG_clean_sbu_1, # of connection points: 4
#     Node 7, Type 0, BuildingBlock: ICAMEG_clean_sbu_1, # of connection points: 4
#     Node 8, Type 0, BuildingBlock: ICAMEG_clean_sbu_1, # of connection points: 4
#     Node 9, Type 0, BuildingBlock: ICAMEG_clean_sbu_1, # of connection points: 4
#     Node 10, Type 0, BuildingBlock: ICAMEG_clean_sbu_1, # of connection points: 4
#     Node 11, Type 0, BuildingBlock: ICAMEG_clean_sbu_1, # of connection points: 4
#     Node 12, Type 0, BuildingBlock: ICAMEG_clean_sbu_1, # of connection points: 4
#     Node 13, Type 0, BuildingBlock: ICAMEG_clean_sbu_1, # of connection points: 4
#     Node 14, Type 0, BuildingBlock: ICAMEG_clean_sbu_1, # of connection points: 4
#     Node 15, Type 0, BuildingBlock: ICAMEG_clean_sbu_1, # of connection points: 4
#     Edge 16, Type (0, 0), BuildingBlock: XIVTED_clean_linker_0, # of connection points: 2
#     Edge 17, Type (0, 0), BuildingBlock: XIVTED_clean_linker_0, # of connection points: 2
#     Edge 18, Type (0, 0), BuildingBlock: XIVTED_clean_linker_0, # of connection points: 2
#     Edge 19, Type (0, 0), BuildingBlock: XIVTED_clean_linker_0, # of connection points: 2
#     Edge 20, Type (0, 0), BuildingBlock: XIVTED_clean_linker_0, # of connection points: 2
#     Edge 21, Type (0, 0), BuildingBlock: XIVTED_clean_linker_0, # of connection points: 2
#     Edge 22, Type (0, 0), BuildingBlock: XIVTED_clean_linker_0, # of connection points: 2
#     Edge 23, Type (0, 0), BuildingBlock: XIVTED_clean_linker_0, # of connection points: 2
#     Edge 24, Type (0, 0), BuildingBlock: XIVTED_clean_linker_0, # of connection points: 2
#     Edge 25, Type (0, 0), BuildingBlock: XIVTED_clean_linker_0, # of connection points: 2
#     Edge 26, Type (0, 0), BuildingBlock: XIVTED_clean_linker_0, # of connection points: 2
#     Edge 27, Type (0, 0), BuildingBlock: XIVTED_clean_linker_0, # of connection points: 2
#     Edge 28, Type (0, 0), BuildingBlock: XIVTED_clean_linker_0, # of connection points: 2
#     Edge 29, Type (0, 0), BuildingBlock: XIVTED_clean_linker_0, # of connection points: 2
#     Edge 30, Type (0, 0), BuildingBlock: XIVTED_clean_linker_0, # of connection points: 2
#     Edge 31, Type (0, 0), BuildingBlock: XIVTED_clean_linker_0, # of connection points: 2
#     Edge 32, Type (0, 0), BuildingBlock: XIVTED_clean_linker_0, # of connection points: 2
#     Edge 33, Type (0, 0), BuildingBlock: XIVTED_clean_linker_0, # of connection points: 2
#     Edge 34, Type (0, 0), BuildingBlock: XIVTED_clean_linker_0, # of connection points: 2
#     Edge 35, Type (0, 0), BuildingBlock: XIVTED_clean_linker_0, # of connection points: 2
#     Edge 36, Type (0, 0), BuildingBlock: XIVTED_clean_linker_0, # of connection points: 2
#     Edge 37, Type (0, 0), BuildingBlock: XIVTED_clean_linker_0, # of connection points: 2
#     Edge 38, Type (0, 0), BuildingBlock: XIVTED_clean_linker_0, # of connection points: 2
#     Edge 39, Type (0, 0), BuildingBlock: XIVTED_clean_linker_0, # of connection points: 2
#     Edge 40, Type (0, 0), BuildingBlock: XIVTED_clean_linker_0, # of connection points: 2
#     Edge 41, Type (0, 0), BuildingBlock: XIVTED_clean_linker_0, # of connection points: 2
#     Edge 42, Type (0, 0), BuildingBlock: XIVTED_clean_linker_0, # of connection points: 2
#     Edge 43, Type (0, 0), BuildingBlock: XIVTED_clean_linker_0, # of connection points: 2
#     Edge 44, Type (0, 0), BuildingBlock: XIVTED_clean_linker_0, # of connection points: 2
#     Edge 45, Type (0, 0), BuildingBlock: XIVTED_clean_linker_0, # of connection points: 2
#     Edge 46, Type (0, 0), BuildingBlock: XIVTED_clean_linker_0, # of connection points: 2
#     Edge 47, Type (0, 0), BuildingBlock: XIVTED_clean_linker_0, # of connection points: 2
# Relax obj value: 0.103
# Max RMSD: 0.130
# Mean RMSD: 0.130
data_MOF--net-uob--node1-ICAMEG_clean_sbu_1--edge1-XIVTED_clean_linker_0
_symmetry_space_group_name_H-M    P1
_symmetry_Int_Tables_number       1
_symmetry_cell_setting            triclinic
loop_
_symmetry_equiv_pos_as_xyz
'x, y, z'
_cell_length_a     57.741118
_cell_length_b     57.739022
_cell_length_c     29.619646
_cell_angle_alpha  90.052638
_cell_angle_beta   89.937565
_cell_angle_gamma 90.032977
loop_
_atom_site_label
_atom_site_type_symbol
_atom_site_fract_x
_atom_site_fract_y
_atom_site_fract_z
_atom_type_partial_charge
Co0 Co 0.10295 0.08208 0.2886 0.0
Co1 Co 0.12738 0.02887 0.31279 0.0
O2 O 0.12859 0.06004 0.28719 0.0
C3 C 0.11481 0.07811 0.19291 0.0
O4 O 0.11704 0.05574 0.19941 0.0
C5 C 0.16679 0.05126 0.35784 0.0
O6 O 0.15311 0.06912 0.36418 0.0
O7 O 0.11401 0.04065 0.37043 0.0
O8 O 0.09519 0.07321 0.35118 0.0
H9 H 0.09045 0.96185 0.39362 0.0
H10 H 0.14965 0.09807 0.26089 0.0
O11 O 0.10978 0.09144 0.22557 0.0
H12 H 0.12997 0.14419 0.39577 0.0
H13 H 0.06488 0.15875 0.25657 0.0
H14 H 0.05445 0.08087 0.32172 0.0
H15 H 0.10231 0.11562 0.36529 0.0
H16 H 0.09703 0.13064 0.25639 0.0
O17 O 0.15927 0.03325 0.33776 0.0
H18 H 0.09191 0.00114 0.36107 0.0
H19 H 0.16148 0.9903 0.31947 0.0
H20 H 0.02189 0.1085 0.32292 0.0
H21 H 0.17776 0.12657 0.29006 0.0
H22 H 0.02701 0.14776 0.29018 0.0
H23 H 0.168 0.14981 0.35807 0.0
O24 O 0.08088 0.05827 0.26597 0.0
H25 H 0.18362 0.02828 0.18319 0.0
H26 H 0.11503 0.9905 0.24977 0.0
H27 H 0.1307 0.9761 0.17752 0.0
H28 H 0.16527 0.99502 0.1438 0.0
H29 H 0.16723 0.04227 0.25515 0.0
H30 H 0.16085 0.95097 0.35193 0.0
H31 H 0.12511 0.93648 0.38915 0.0
O32 O 0.09548 0.02411 0.28871 0.0
C33 C 0.1006 0.05758 0.37944 0.0
C34 C 0.1061 0.96794 0.37736 0.0
C35 C 0.14563 0.96184 0.35402 0.0
N36 N 0.12669 0.99792 0.3381 0.0
C37 C 0.10701 0.99014 0.35877 0.0
C38 C 0.1459 0.98415 0.3358 0.0
C39 C 0.12556 0.95372 0.37488 0.0
C40 C 0.14518 0.10831 0.29019 0.0
N41 N 0.12432 0.10529 0.31118 0.0
C42 C 0.1612 0.12434 0.30668 0.0
C43 C 0.15574 0.13734 0.34489 0.0
C44 C 0.1344 0.13419 0.36608 0.0
C45 C 0.11883 0.11796 0.3487 0.0
C46 C 0.06246 0.14172 0.27105 0.0
C47 C 0.05686 0.09798 0.3077 0.0
C48 C 0.08059 0.12571 0.271 0.0
N49 N 0.07768 0.10421 0.28944 0.0
C50 C 0.03834 0.11352 0.30834 0.0
C51 C 0.04121 0.13554 0.28992 0.0
C52 C 0.07954 0.03636 0.27087 0.0
C53 C 0.16859 0.01985 0.1976 0.0
C54 C 0.13002 0.99887 0.23523 0.0
C55 C 0.13886 0.9906 0.19437 0.0
C56 C 0.15826 0.00121 0.17549 0.0
N57 N 0.14026 0.01715 0.25673 0.0
C58 C 0.1593 0.02763 0.23845 0.0
Co59 Co 0.92377 0.60698 0.53833 0.0
Co60 Co 0.97806 0.62706 0.56866 0.0
O61 O 0.9488 0.6297 0.53593 0.0
C62 C 0.93592 0.60719 0.44227 0.0
O63 O 0.95771 0.6061 0.4546 0.0
C64 C 0.95697 0.66991 0.60307 0.0
O65 O 0.93757 0.65815 0.60573 0.0
O66 O 0.96211 0.6171 0.6252 0.0
O67 O 0.92704 0.60409 0.60452 0.0
H68 H 0.03651 0.58803 0.66844 0.0
H69 H 0.91614 0.65186 0.49228 0.0
O70 O 0.91998 0.60903 0.47168 0.0
H71 H 0.85864 0.64946 0.61543 0.0
H72 H 0.84592 0.5747 0.49478 0.0
H73 H 0.91622 0.56245 0.58606 0.0
H74 H 0.88527 0.61668 0.60293 0.0
H75 H 0.87774 0.60322 0.49341 0.0
O76 O 0.9753 0.66015 0.5885 0.0
H77 H 0.99961 0.5914 0.62705 0.0
H78 H 0.01898 0.65805 0.57961 0.0
H79 H 0.88475 0.53358 0.5887 0.0
H80 H 0.88972 0.68496 0.50337 0.0
H81 H 0.84927 0.53963 0.54283 0.0
H82 H 0.86078 0.68392 0.56544 0.0
O83 O 0.94588 0.58078 0.52998 0.0
H84 H 0.99061 0.67746 0.43259 0.0
H85 H 0.01864 0.60938 0.51671 0.0
H86 H 0.03833 0.62091 0.4463 0.0
H87 H 0.02435 0.65522 0.40379 0.0
H88 H 0.97129 0.66517 0.50295 0.0
H89 H 0.05601 0.65549 0.6208 0.0
H90 H 0.065 0.62024 0.66546 0.0
O91 O 0.98111 0.59407 0.54965 0.0
C92 C 0.94244 0.60814 0.63414 0.0
C93 C 0.03282 0.60345 0.64898 0.0
C94 C 0.04375 0.64133 0.6223 0.0
N95 N 0.00724 0.62482 0.60069 0.0
C96 C 0.01199 0.60543 0.62538 0.0
C97 C 0.02274 0.6427 0.59914 0.0
C98 C 0.04879 0.62154 0.64733 0.0
C99 C 0.90342 0.65119 0.51906 0.0
N100 N 0.90216 0.63233 0.54676 0.0
C101 C 0.88858 0.67002 0.5253 0.0
C102 C 0.87237 0.66943 0.56017 0.0
C103 C 0.87117 0.65011 0.58825 0.0
C104 C 0.88631 0.63162 0.58105 0.0
C105 C 0.86126 0.57191 0.51501 0.0
C106 C 0.90077 0.56528 0.56624 0.0
C107 C 0.87934 0.58797 0.51433 0.0
N108 N 0.89871 0.58461 0.53999 0.0
C109 C 0.88304 0.54884 0.56776 0.0
C110 C 0.86315 0.55223 0.54198 0.0
C111 C 0.96762 0.57805 0.53581 0.0
C112 C 0.99689 0.66251 0.45087 0.0
C113 C 0.01239 0.62426 0.4983 0.0
C114 C 0.02365 0.63075 0.45851 0.0
C115 C 0.01581 0.65001 0.43469 0.0
N116 N 0.99389 0.63664 0.51399 0.0
C117 C 0.98607 0.65552 0.4908 0.0
Co118 Co 0.39276 0.42247 0.78629 0.0
Co119 Co 0.37126 0.47585 0.81893 0.0
O120 O 0.36953 0.44701 0.78447 0.0
C121 C 0.39301 0.43525 0.69046 0.0
O122 O 0.39446 0.45701 0.70304 0.0
C123 C 0.32848 0.45346 0.85027 0.0
O124 O 0.34053 0.43423 0.85208 0.0
O125 O 0.38081 0.45931 0.87497 0.0
O126 O 0.39531 0.42511 0.8526 0.0
H127 H 0.40803 0.53357 0.92377 0.0
H128 H 0.34823 0.41426 0.73925 0.0
O129 O 0.39097 0.41924 0.7196 0.0
H130 H 0.35148 0.35554 0.85989 0.0
H131 H 0.42693 0.34584 0.73997 0.0
H132 H 0.43727 0.41549 0.83433 0.0
H133 H 0.38367 0.38309 0.8491 0.0
H134 H 0.3977 0.37698 0.73955 0.0
O135 O 0.33804 0.47219 0.8372 0.0
H136 H 0.40583 0.49723 0.8801 0.0
H137 H 0.33942 0.51601 0.83078 0.0
H138 H 0.46684 0.38468 0.83604 0.0
H139 H 0.31573 0.38692 0.74864 0.0
H140 H 0.46175 0.34954 0.78862 0.0
H141 H 0.3172 0.35736 0.80943 0.0
O142 O 0.41849 0.44527 0.77929 0.0
H143 H 0.32224 0.48935 0.68141 0.0
H144 H 0.38883 0.51744 0.77004 0.0
H145 H 0.37776 0.53789 0.70028 0.0
H146 H 0.3442 0.52389 0.6555 0.0
H147 H 0.33406 0.4693 0.7512 0.0
H148 H 0.3408 0.55247 0.87422 0.0
H149 H 0.37534 0.56148 0.92099 0.0
O150 O 0.4044 0.47979 0.80155 0.0
C151 C 0.39036 0.43984 0.88301 0.0
C152 C 0.39292 0.52987 0.9034 0.0
C153 C 0.35517 0.54047 0.87564 0.0
N154 N 0.3726 0.5046 0.85268 0.0
C155 C 0.39161 0.50936 0.87851 0.0
C156 C 0.35446 0.51978 0.85121 0.0
C157 C 0.37456 0.54551 0.90186 0.0
C158 C 0.34909 0.40128 0.76549 0.0
N159 N 0.36786 0.4002 0.79344 0.0
C160 C 0.3306 0.38592 0.77076 0.0
C161 C 0.33142 0.36936 0.80492 0.0
C162 C 0.35064 0.36834 0.83326 0.0
C163 C 0.3688 0.38401 0.82704 0.0
C164 C 0.42931 0.36103 0.76088 0.0
C165 C 0.43486 0.40017 0.81384 0.0
C166 C 0.41283 0.37874 0.76074 0.0
N167 N 0.41567 0.39792 0.78725 0.0
C168 C 0.45169 0.38282 0.81484 0.0
C169 C 0.44884 0.36312 0.78819 0.0
C170 C 0.42075 0.46693 0.78691 0.0
C171 C 0.33686 0.49565 0.70069 0.0
C172 C 0.37428 0.51118 0.75064 0.0
C173 C 0.36805 0.52287 0.71123 0.0
C174 C 0.34921 0.51501 0.68614 0.0
N175 N 0.36204 0.49225 0.76475 0.0
C176 C 0.34358 0.48441 0.7403 0.0
Co177 Co 0.58288 0.89037 0.02757 0.0
Co178 Co 0.52884 0.8717 0.06276 0.0
O179 O 0.55762 0.8679 0.02878 0.0
C180 C 0.56884 0.88789 0.93289 0.0
O181 O 0.54736 0.88857 0.94734 0.0
C182 C 0.55014 0.82949 0.09948 0.0
O183 O 0.56963 0.84118 0.10025 0.0
O184 O 0.54565 0.88299 0.11726 0.0
O185 O 0.58065 0.89498 0.09372 0.0
H186 H 0.4721 0.91366 0.16218 0.0
H187 H 0.58943 0.84438 0.98503 0.0
O188 O 0.58551 0.88679 0.96084 0.0
H189 H 0.64879 0.84917 0.10429 0.0
H190 H 0.6602 0.92086 0.976 0.0
H191 H 0.5915 0.936 0.07056 0.0
H192 H 0.62225 0.88187 0.09053 0.0
H193 H 0.62821 0.89257 0.97948 0.0
O194 O 0.53165 0.83909 0.08537 0.0
H195 H 0.5084 0.90895 0.11914 0.0
H196 H 0.48785 0.84141 0.07874 0.0
H197 H 0.62315 0.96468 0.06833 0.0
H198 H 0.61572 0.81131 -0.00256 0.0
H199 H 0.65782 0.95718 0.02079 0.0
H200 H 0.6456 0.81357 0.05755 0.0
O201 O 0.56091 0.91652 0.01833 0.0
H202 H 0.51377 0.81799 0.93247 0.0
H203 H 0.48787 0.88865 0.01132 0.0
H204 H 0.46705 0.87556 0.94326 0.0
H205 H 0.47995 0.83995 0.90342 0.0
H206 H 0.53422 0.83183 0.00043 0.0
H207 H 0.45141 0.84531 0.12165 0.0
H208 H 0.44331 0.88169 0.16361 0.0
O209 O 0.52578 0.90428 0.04105 0.0
C210 C 0.56549 0.892 0.12437 0.0
C211 C 0.4754 0.89776 0.14391 0.0
C212 C 0.4638 0.85938 0.12122 0.0
N213 N 0.50014 0.875 0.09618 0.0
C214 C 0.49588 0.89502 0.11939 0.0
C215 C 0.48448 0.85725 0.09707 0.0
C216 C 0.45926 0.8798 0.14474 0.0
C217 C 0.60255 0.84556 0.01094 0.0
N218 N 0.60439 0.86506 0.03686 0.0
C219 C 0.61732 0.82676 0.01794 0.0
C220 C 0.63406 0.82802 0.05172 0.0
C221 C 0.63585 0.84799 0.07797 0.0
C222 C 0.62076 0.86643 0.07006 0.0
C223 C 0.64522 0.92429 -0.00304 0.0
C224 C 0.60661 0.93253 0.05007 0.0
C225 C 0.62704 0.90835 -0.00097 0.0
N226 N 0.60813 0.91252 0.02561 0.0
C227 C 0.62444 0.94887 0.04882 0.0
C228 C 0.64387 0.94466 0.0221 0.0
C229 C 0.53932 0.91974 0.02513 0.0
C230 C 0.50794 0.83349 0.94961 0.0
C231 C 0.49364 0.87319 -0.00592 0.0
C232 C 0.48174 0.86583 0.95562 0.0
C233 C 0.48899 0.84584 0.93329 0.0
N234 N 0.51216 0.86094 0.00996 0.0
C235 C 0.5194 0.84136 0.9882 0.0
Co236 Co 0.1043 0.41609 0.03083 0.0
Co237 Co 0.12465 0.47131 0.00849 0.0
O238 O 0.12806 0.44012 0.03323 0.0
C239 C 0.11424 0.42148 0.12715 0.0
O240 O 0.11556 0.44388 0.12006 0.0
C241 C 0.16433 0.45125 0.96047 0.0
O242 O 0.15135 0.4328 0.9551 0.0
O243 O 0.11105 0.45929 0.95133 0.0
O244 O 0.09703 0.42398 0.96756 0.0
H245 H 0.08284 0.53655 0.93152 0.0
H246 H 0.15162 0.4042 0.06166 0.0
O247 O 0.11061 0.40764 0.09458 0.0
H248 H 0.13797 0.35562 0.92727 0.0
H249 H 0.07154 0.33695 0.06283 0.0
H250 H 0.05658 0.41325 -0.00585 0.0
H251 H 0.1076 0.382 0.9553 0.0
H252 H 0.10146 0.36745 0.06419 0.0
O253 O 0.15638 0.46887 0.98134 0.0
H254 H 0.08695 0.49725 0.96307 0.0
H255 H 0.1564 0.51181 0.0008 0.0
H256 H 0.02624 0.38319 -0.00825 0.0
H257 H 0.18243 0.37794 0.03497 0.0
H258 H 0.03364 0.34471 0.02627 0.0
H259 H 0.17572 0.35348 0.9672 0.0
O260 O 0.08008 0.43818 0.0516 0.0
H261 H 0.18271 0.47445 0.13462 0.0
H262 H 0.11098 0.50838 0.07333 0.0
H263 H 0.12689 0.52326 0.14497 0.0
H264 H 0.16303 0.50628 0.17602 0.0
H265 H 0.16608 0.45994 0.0633 0.0
H266 H 0.1531 0.55122 0.96932 0.0
H267 H 0.11608 0.56384 0.93454 0.0
O268 O 0.09285 0.47396 0.03454 0.0
C269 C 0.10019 0.44085 0.9407 0.0
C270 C 0.09903 0.53129 0.94673 0.0
C271 C 0.13848 0.53951 0.96789 0.0
N272 N 0.12182 0.50233 0.98411 0.0
C273 C 0.10144 0.50908 0.96477 0.0
C274 C 0.14026 0.51716 0.98558 0.0
C275 C 0.1177 0.54658 0.94839 0.0
C276 C 0.14849 0.39342 0.03245 0.0
N277 N 0.1278 0.39453 0.01024 0.0
C278 C 0.16603 0.37867 0.01737 0.0
C279 C 0.16227 0.36497 0.9793 0.0
C280 C 0.1411 0.36617 0.95687 0.0
C281 C 0.12397 0.38116 0.97286 0.0
C282 C 0.06813 0.35362 0.04758 0.0
C283 C 0.05999 0.3965 0.00898 0.0
C284 C 0.08499 0.37097 0.0483 0.0
N285 N 0.08084 0.39204 0.02893 0.0
C286 C 0.04272 0.37957 0.00763 0.0
C287 C 0.04687 0.35799 0.02705 0.0
C288 C 0.07747 0.46011 0.04977 0.0
C289 C 0.16699 0.48203 0.12136 0.0
C290 C 0.12668 0.50086 0.0867 0.0
C291 C 0.13563 0.50939 0.12722 0.0
C292 C 0.15592 0.49987 0.14461 0.0
N293 N 0.13766 0.48339 0.06406 0.0
C294 C 0.15755 0.47396 0.08089 0.0
Co295 Co 0.57869 0.60501 0.28234 0.0
Co296 Co 0.52458 0.62434 0.24993 0.0
O297 O 0.5545 0.62854 0.27966 0.0
C298 C 0.57072 0.61696 0.37729 0.0
O299 O 0.54843 0.61714 0.36858 0.0
C300 C 0.54557 0.66455 0.20525 0.0
O301 O 0.56428 0.65179 0.20157 0.0
O302 O 0.53938 0.61111 0.19486 0.0
O303 O 0.57277 0.59576 0.2193 0.0
H304 H 0.46389 0.58107 0.1623 0.0
H305 H 0.58952 0.65325 0.30936 0.0
O306 O 0.58528 0.61333 0.34595 0.0
H307 H 0.64191 0.63614 0.18205 0.0
H308 H 0.65703 0.57407 0.32607 0.0
H309 H 0.58271 0.5562 0.25192 0.0
H310 H 0.61483 0.60643 0.21027 0.0
H311 H 0.62643 0.60372 0.32068 0.0
O312 O 0.52742 0.65622 0.22365 0.0
H313 H 0.50157 0.58607 0.20028 0.0
H314 H 0.48384 0.65511 0.23578 0.0
H315 H 0.6129 0.5261 0.25627 0.0
H316 H 0.61645 0.68343 0.28241 0.0
H317 H 0.65039 0.53496 0.29357 0.0
H318 H 0.64283 0.67496 0.2182 0.0
O319 O 0.5561 0.58127 0.30306 0.0
H320 H 0.51458 0.68204 0.37558 0.0
H321 H 0.48517 0.60963 0.30831 0.0
H322 H 0.46683 0.62502 0.37733 0.0
H323 H 0.48152 0.66151 0.41138 0.0
H324 H 0.53254 0.66592 0.30681 0.0
H325 H 0.44604 0.65092 0.19786 0.0
H326 H 0.43583 0.61365 0.16093 0.0
O327 O 0.52158 0.59239 0.27529 0.0
C328 C 0.55771 0.59919 0.18884 0.0
C329 C 0.46811 0.59736 0.17841 0.0
C330 C 0.4581 0.63658 0.19831 0.0
N331 N 0.4948 0.62079 0.22054 0.0
C332 C 0.48938 0.60028 0.20008 0.0
C333 C 0.47954 0.63887 0.21965 0.0
C334 C 0.45238 0.61566 0.17761 0.0
C335 C 0.60113 0.64936 0.28173 0.0
N336 N 0.6007 0.62807 0.2616 0.0
C337 C 0.61626 0.66655 0.26648 0.0
C338 C 0.63103 0.6618 0.23041 0.0
C339 C 0.63052 0.64003 0.21009 0.0
C340 C 0.61512 0.62328 0.22617 0.0
C341 C 0.64079 0.57002 0.30963 0.0
C342 C 0.59903 0.56024 0.26795 0.0
C343 C 0.62339 0.58672 0.30654 0.0
N344 N 0.60287 0.58176 0.28567 0.0
C345 C 0.61604 0.5431 0.27042 0.0
C346 C 0.63706 0.54808 0.29139 0.0
C347 C 0.5346 0.57784 0.2955 0.0
C348 C 0.50798 0.66617 0.36099 0.0
C349 C 0.4917 0.62547 0.32301 0.0
C350 C 0.48122 0.63414 0.36203 0.0
C351 C 0.48945 0.65462 0.3811 0.0
N352 N 0.50984 0.63693 0.30345 0.0
C353 C 0.51802 0.65701 0.32195 0.0
Co354 Co 0.39169 0.08893 0.53379 0.0
Co355 Co 0.37229 0.03383 0.50762 0.0
O356 O 0.36825 0.06456 0.53417 0.0
C357 C 0.38087 0.0821 0.62933 0.0
O358 O 0.38025 0.05981 0.62081 0.0
C359 C 0.33185 0.05361 0.4617 0.0
O360 O 0.34427 0.07249 0.45678 0.0
O361 O 0.38552 0.04703 0.45112 0.0
O362 O 0.39981 0.08184 0.47044 0.0
H363 H 0.41534 0.97065 0.42637 0.0
H364 H 0.3439 0.0999 0.56347 0.0
O365 O 0.38451 0.09651 0.59773 0.0
H366 H 0.35829 0.15 0.43163 0.0
H367 H 0.42286 0.16817 0.57065 0.0
H368 H 0.43978 0.09287 0.49922 0.0
H369 H 0.38871 0.1237 0.45959 0.0
H370 H 0.39341 0.13721 0.56949 0.0
O371 O 0.34047 0.03594 0.48116 0.0
H372 H 0.41043 0.0094 0.4602 0.0
H373 H 0.34141 0.99276 0.49794 0.0
H374 H 0.46966 0.1234 0.49932 0.0
H375 H 0.31304 0.12606 0.53682 0.0
H376 H 0.46128 0.16138 0.53523 0.0
H377 H 0.32013 0.15128 0.47034 0.0
O378 O 0.41604 0.06696 0.55435 0.0
H379 H 0.31458 0.02753 0.63417 0.0
H380 H 0.3869 0.99611 0.57004 0.0
H381 H 0.37148 0.97983 0.64094 0.0
H382 H 0.33504 0.99554 0.67341 0.0
H383 H 0.33073 0.04346 0.56358 0.0
H384 H 0.34551 0.95389 0.46417 0.0
H385 H 0.38272 0.9426 0.42824 0.0
O386 O 0.40418 0.03146 0.5331 0.0
C387 C 0.39667 0.06555 0.44221 0.0
C388 C 0.39906 0.97534 0.44206 0.0
C389 C 0.35986 0.96595 0.46323 0.0
N390 N 0.37573 0.00325 0.48135 0.0
C391 C 0.3962 0.99723 0.46139 0.0
C392 C 0.35763 0.98799 0.48221 0.0
C393 C 0.38075 0.95962 0.44308 0.0
C394 C 0.34719 0.11102 0.53484 0.0
N395 N 0.36811 0.11039 0.5133 0.0
C396 C 0.32962 0.12572 0.51977 0.0
C397 C 0.3336 0.13984 0.48242 0.0
C398 C 0.35501 0.13912 0.46067 0.0
C399 C 0.37215 0.12417 0.47662 0.0
C400 C 0.4267 0.15172 0.5548 0.0
C401 C 0.43594 0.1094 0.51465 0.0
C402 C 0.41011 0.13411 0.55409 0.0
N403 N 0.4148 0.11333 0.53394 0.0
C404 C 0.45296 0.1266 0.51472 0.0
C405 C 0.44825 0.1479 0.53491 0.0
C406 C 0.41915 0.04518 0.55017 0.0
C407 C 0.33043 0.0205 0.62028 0.0
C408 C 0.37107 0.00309 0.58404 0.0
C409 C 0.3624 0.99376 0.62413 0.0
C410 C 0.34194 0.00257 0.64232 0.0
N411 N 0.35966 0.02065 0.5626 0.0
C412 C 0.3396 0.02937 0.58021 0.0
Co413 Co 0.9272 0.89323 0.79011 0.0
Co414 Co 0.98044 0.87618 0.7482 0.0
O415 O 0.9526 0.87119 0.78442 0.0
C416 C 0.94234 0.88762 0.88392 0.0
O417 O 0.96367 0.89049 0.86963 0.0
C418 C 0.95855 0.8348 0.70975 0.0
O419 O 0.93925 0.84675 0.71087 0.0
O420 O 0.96219 0.88818 0.69615 0.0
O421 O 0.92822 0.90019 0.7247 0.0
H422 H 0.03428 0.921 0.64747 0.0
H423 H 0.92175 0.84569 0.82623 0.0
O424 O 0.92561 0.88703 0.8561 0.0
H425 H 0.86037 0.85419 0.71182 0.0
H426 H 0.85054 0.92096 0.85052 0.0
H427 H 0.91756 0.94019 0.75422 0.0
H428 H 0.8868 0.88663 0.72868 0.0
H429 H 0.88266 0.89321 0.84113 0.0
O430 O 0.97739 0.84395 0.7234 0.0
H431 H 0.99908 0.91486 0.69322 0.0
H432 H 0.02131 0.84682 0.72598 0.0
H433 H 0.88574 0.96838 0.7624 0.0
H434 H 0.89559 0.81284 0.81063 0.0
H435 H 0.85192 0.95882 0.81083 0.0
H436 H 0.86469 0.81696 0.75292 0.0
O437 O 0.94919 0.91915 0.80152 0.0
H438 H 0.99941 0.82028 0.87273 0.0
H439 H 0.02236 0.89282 0.79712 0.0
H440 H 0.045 0.87879 0.86215 0.0
H441 H 0.03359 0.84224 0.90034 0.0
H442 H 0.97713 0.83505 0.80783 0.0
H443 H 0.05666 0.85214 0.68026 0.0
H444 H 0.06336 0.88949 0.64078 0.0
O445 O 0.98355 0.90839 0.77224 0.0
C446 C 0.94234 0.89761 0.6921 0.0
C447 C 0.03159 0.90468 0.66462 0.0
C448 C 0.04414 0.86602 0.68298 0.0
N449 N 0.00825 0.88058 0.71251 0.0
C450 C 0.01173 0.90112 0.69068 0.0
C451 C 0.02407 0.86308 0.70873 0.0
C452 C 0.04789 0.88698 0.66085 0.0
C453 C 0.90818 0.84768 0.80143 0.0
N454 N 0.90572 0.86807 0.77858 0.0
C455 C 0.89349 0.829 0.79259 0.0
C456 C 0.87618 0.83131 0.76016 0.0
C457 C 0.87375 0.85219 0.73707 0.0
C458 C 0.88879 0.87048 0.74672 0.0
C459 C 0.86515 0.92529 0.82921 0.0
C460 C 0.90282 0.93584 0.77508 0.0
C461 C 0.88339 0.90966 0.8238 0.0
N462 N 0.90184 0.91498 0.79674 0.0
C463 C 0.88489 0.9519 0.7797 0.0
C464 C 0.86593 0.94653 0.80693 0.0
C465 C 0.97043 0.92302 0.79211 0.0
C466 C 0.00459 0.8362 0.85629 0.0
C467 C 0.01724 0.87694 0.81366 0.0
C468 C 0.03016 0.86906 0.8504 0.0
C469 C 0.02375 0.84854 0.8718 0.0
N470 N 0.99852 0.86469 0.79857 0.0
C471 C 0.99209 0.8446 0.81943 0.0
Co472 Co 0.60413 0.58145 0.78744 0.0
Co473 Co 0.62678 0.5269 0.80716 0.0
O474 O 0.6286 0.55827 0.7824 0.0
C475 C 0.61193 0.5771 0.69029 0.0
O476 O 0.61411 0.55472 0.69658 0.0
C477 C 0.6675 0.54772 0.85046 0.0
O478 O 0.6544 0.56592 0.85762 0.0
O479 O 0.61482 0.53844 0.86615 0.0
O480 O 0.59848 0.57282 0.85089 0.0
H481 H 0.58935 0.46034 0.8886 0.0
H482 H 0.65027 0.59537 0.75298 0.0
O483 O 0.60875 0.59061 0.72354 0.0
H484 H 0.63784 0.64224 0.89014 0.0
H485 H 0.56805 0.65965 0.76101 0.0
H486 H 0.55707 0.58219 0.82768 0.0
H487 H 0.60786 0.61495 0.86385 0.0
H488 H 0.59897 0.63028 0.75618 0.0
O489 O 0.65926 0.53007 0.83021 0.0
H490 H 0.59141 0.49985 0.85726 0.0
H491 H 0.65969 0.48722 0.80988 0.0
H492 H 0.52577 0.61108 0.83354 0.0
H493 H 0.68066 0.62259 0.77789 0.0
H494 H 0.53116 0.65014 0.80006 0.0
H495 H 0.67455 0.64619 0.84703 0.0
O496 O 0.58029 0.5587 0.76804 0.0
H497 H 0.68057 0.52572 0.67368 0.0
H498 H 0.61189 0.48971 0.74362 0.0
H499 H 0.6257 0.47554 0.66975 0.0
H500 H 0.66029 0.49358 0.63433 0.0
H501 H 0.66604 0.53948 0.74732 0.0
H502 H 0.65846 0.44762 0.84103 0.0
H503 H 0.62305 0.43392 0.88055 0.0
O504 O 0.59423 0.52342 0.7853 0.0
C505 C 0.60324 0.5563 0.87761 0.0
C506 C 0.60484 0.46608 0.87131 0.0
C507 C 0.64364 0.45895 0.84467 0.0
N508 N 0.62557 0.49575 0.83142 0.0
C509 C 0.60608 0.48841 0.85338 0.0
C510 C 0.64426 0.4814 0.82718 0.0
C511 C 0.62377 0.45127 0.86683 0.0
C512 C 0.6474 0.60578 0.78282 0.0
N513 N 0.62728 0.60369 0.80677 0.0
C514 C 0.6647 0.62108 0.79687 0.0
C515 C 0.66128 0.63429 0.83571 0.0
C516 C 0.64069 0.63207 0.85993 0.0
C517 C 0.62379 0.61657 0.84492 0.0
C518 C 0.56552 0.64272 0.77585 0.0
C519 C 0.55961 0.5992 0.8133 0.0
C520 C 0.58295 0.62601 0.77319 0.0
N521 N 0.57991 0.60462 0.79204 0.0
C522 C 0.5418 0.61546 0.8166 0.0
C523 C 0.54483 0.63737 0.79777 0.0
C524 C 0.57821 0.53674 0.77095 0.0
C525 C 0.66552 0.51768 0.68884 0.0
C526 C 0.62692 0.49768 0.72836 0.0
C527 C 0.63469 0.48955 0.68658 0.0
C528 C 0.65411 0.49967 0.66674 0.0
N529 N 0.63822 0.51533 0.74983 0.0
C530 C 0.65728 0.52533 0.73062 0.0
Co531 Co 0.4218 0.0983 0.04064 0.0
Co532 Co 0.47499 0.12387 0.06031 0.0
O533 O 0.4433 0.1244 0.03714 0.0
C534 C 0.42338 0.11005 0.94467 0.0
O535 O 0.44585 0.11253 0.94923 0.0
C536 C 0.45334 0.16348 0.10639 0.0
O537 O 0.43571 0.14975 0.11463 0.0
O538 O 0.46443 0.11107 0.11927 0.0
O539 O 0.43223 0.09094 0.10254 0.0
H540 H 0.54395 0.08855 0.13727 0.0
H541 H 0.40429 0.14458 0.01409 0.0
O542 O 0.41087 0.10477 0.9784 0.0
H543 H 0.36162 0.12432 0.15288 0.0
H544 H 0.34524 0.05857 0.01536 0.0
H545 H 0.42464 0.04997 0.07414 0.0
H546 H 0.39005 0.09719 0.12016 0.0
H547 H 0.37271 0.09127 0.01253 0.0
O548 O 0.4708 0.15597 0.08453 0.0
H549 H 0.50401 0.08925 0.10781 0.0
H550 H 0.51332 0.15844 0.06271 0.0
H551 H 0.39769 0.01687 0.07799 0.0
H552 H 0.37587 0.17215 0.04547 0.0
H553 H 0.35766 0.02107 0.04845 0.0
H554 H 0.35438 0.1621 0.11544 0.0
O555 O 0.44544 0.07664 0.01606 0.0
H556 H 0.47231 0.17872 0.92883 0.0
H557 H 0.51222 0.11129 -0.0052 0.0
H558 H 0.52492 0.12635 0.92092 0.0
H559 H 0.50493 0.16033 0.88749 0.0
H560 H 0.46001 0.16294 0.00242 0.0
H561 H 0.55329 0.15857 0.09207 0.0
H562 H 0.56888 0.12339 0.12947 0.0
O563 O 0.47968 0.09175 0.03701 0.0
C564 C 0.44807 0.09723 0.12971 0.0
C565 C 0.53738 0.10395 0.12092 0.0
C566 C 0.54261 0.14327 0.0956 0.0
N567 N 0.50642 0.1238 0.08326 0.0
C568 C 0.5148 0.10443 0.10406 0.0
C569 C 0.51995 0.14311 0.07915 0.0
C570 C 0.55135 0.12352 0.11657 0.0
C571 C 0.39481 0.13999 0.04427 0.0
N572 N 0.39872 0.11926 0.0651 0.0
C573 C 0.37882 0.15571 0.062 0.0
C574 C 0.36679 0.15008 0.1013 0.0
C575 C 0.37086 0.12888 0.12234 0.0
C576 C 0.38701 0.11361 0.1037 0.0
C577 C 0.36262 0.05655 0.02846 0.0
C578 C 0.4072 0.05198 0.06154 0.0
C579 C 0.37826 0.07499 0.02689 0.0
N580 N 0.40019 0.0726 0.04357 0.0
C581 C 0.39204 0.03315 0.06366 0.0
C582 C 0.36959 0.03551 0.04704 0.0
C583 C 0.46742 0.07561 0.01984 0.0
C584 C 0.4812 0.16394 0.9431 0.0
C585 C 0.50337 0.12602 0.9804 0.0
C586 C 0.51069 0.13451 0.93861 0.0
C587 C 0.49948 0.15359 0.91989 0.0
N588 N 0.48543 0.13627 0.00296 0.0
C589 C 0.47438 0.155 0.98486 0.0
Co590 Co 0.89249 0.92369 0.28624 0.0
Co591 Co 0.87412 0.97867 0.31594 0.0
O592 O 0.87045 0.94926 0.28399 0.0
C593 C 0.89164 0.93551 0.19021 0.0
O594 O 0.89284 0.95731 0.20257 0.0
C595 C 0.83141 0.95835 0.35225 0.0
O596 O 0.84309 0.93891 0.35479 0.0
O597 O 0.88434 0.96293 0.37235 0.0
O598 O 0.89604 0.92728 0.35237 0.0
H599 H 0.91536 0.03704 0.41282 0.0
H600 H 0.84709 0.91687 0.2417 0.0
O601 O 0.88987 0.91961 0.21967 0.0
H602 H 0.849 0.86011 0.36596 0.0
H603 H 0.92253 0.84488 0.24307 0.0
H604 H 0.93725 0.91541 0.33259 0.0
H605 H 0.88237 0.88582 0.35184 0.0
H606 H 0.89474 0.87732 0.24213 0.0
O607 O 0.84116 0.97658 0.33715 0.0
H608 H 0.91082 0.99992 0.37246 0.0
H609 H 0.84408 0.02022 0.32721 0.0
H610 H 0.96541 0.88333 0.33477 0.0
H611 H 0.81339 0.89139 0.25442 0.0
H612 H 0.95812 0.84774 0.28979 0.0
H613 H 0.81419 0.86282 0.31705 0.0
O614 O 0.91909 0.94511 0.27666 0.0
H615 H 0.82251 0.99162 0.18184 0.0
H616 H 0.89236 0.01833 0.26221 0.0
H617 H 0.88053 0.03786 0.1919 0.0
H618 H 0.84534 0.02455 0.15128 0.0
H619 H 0.83508 0.97244 0.25206 0.0
H620 H 0.84781 0.05749 0.3674 0.0
H621 H 0.8837 0.06612 0.41043 0.0
O622 O 0.90705 0.9809 0.29565 0.0
C623 C 0.89279 0.9431 0.38161 0.0
C624 C 0.89967 0.03351 0.39407 0.0
C625 C 0.86174 0.04497 0.36862 0.0
N626 N 0.87729 0.008 0.34724 0.0
C627 C 0.89703 0.01255 0.37105 0.0
C628 C 0.85971 0.02383 0.34603 0.0
C629 C 0.88189 0.04981 0.39275 0.0
C630 C 0.84764 0.90431 0.26871 0.0
N631 N 0.8667 0.90274 0.29583 0.0
C632 C 0.82848 0.89 0.27588 0.0
C633 C 0.82893 0.874 0.31106 0.0
C634 C 0.84845 0.87248 0.33853 0.0
C635 C 0.86728 0.88709 0.33042 0.0
C636 C 0.92586 0.86026 0.26292 0.0
C637 C 0.93387 0.89991 0.31318 0.0
C638 C 0.91021 0.87869 0.26249 0.0
N639 N 0.91425 0.89812 0.28768 0.0
C640 C 0.94992 0.88183 0.31444 0.0
C641 C 0.94583 0.86188 0.28915 0.0
C642 C 0.92253 0.96681 0.2817 0.0
C643 C 0.83784 0.99762 0.1993 0.0
C644 C 0.87707 0.01239 0.24465 0.0
C645 C 0.87043 0.02355 0.2049 0.0
C646 C 0.85067 0.01608 0.18214 0.0
N647 N 0.86434 0.99435 0.26133 0.0
C648 C 0.84499 0.98688 0.23916 0.0
Co649 Co 0.07972 0.39493 0.53656 0.0
Co650 Co 0.02603 0.37261 0.56411 0.0
O651 O 0.05676 0.37015 0.53673 0.0
C652 C 0.07456 0.38287 0.44113 0.0
O653 O 0.05217 0.38139 0.44836 0.0
C654 C 0.0478 0.33271 0.60815 0.0
O655 O 0.06593 0.34612 0.61379 0.0
O656 O 0.03903 0.38565 0.62098 0.0
O657 O 0.07171 0.40354 0.59921 0.0
H658 H 0.96153 0.41185 0.64871 0.0
H659 H 0.09386 0.34754 0.50978 0.0
O660 O 0.0883 0.38732 0.47341 0.0
H661 H 0.1418 0.36675 0.64233 0.0
H662 H 0.15733 0.43027 0.50071 0.0
H663 H 0.08029 0.44378 0.56768 0.0
H664 H 0.11395 0.3951 0.61198 0.0
H665 H 0.12823 0.39899 0.50273 0.0
O666 O 0.02969 0.34057 0.58899 0.0
H667 H 1.00027 0.40905 0.61391 0.0
H668 H 0.98639 0.33989 0.5731 0.0
H669 H 0.10891 0.47549 0.56665 0.0
H670 H 0.12163 0.31872 0.53882 0.0
H671 H 0.14776 0.46883 0.533 0.0
H672 H 0.14577 0.32824 0.60567 0.0
O673 O 0.05647 0.41747 0.51409 0.0
H674 H 0.02137 0.31627 0.43497 0.0
H675 H 0.9874 0.38644 0.50313 0.0
H676 H 0.97139 0.37126 0.43182 0.0
H677 H 0.98838 0.33591 0.39732 0.0
H678 H 0.03701 0.33217 0.50601 0.0
H679 H 0.94757 0.34187 0.60779 0.0
H680 H 0.93489 0.37809 0.64576 0.0
O681 O 0.02213 0.40476 0.54019 0.0
C682 C 0.05639 0.39874 0.62858 0.0
C683 C 0.96683 0.396 0.63213 0.0
C684 C 0.95901 0.35671 0.60921 0.0
N685 N 0.99549 0.3744 0.59117 0.0
C686 C 0.98871 0.39434 0.61225 0.0
C687 C 0.98102 0.35568 0.58972 0.0
C688 C 0.9519 0.37704 0.6305 0.0
C689 C 0.10451 0.35189 0.53855 0.0
N690 N 0.10239 0.37301 0.55898 0.0
C691 C 0.12012 0.33547 0.55498 0.0
C692 C 0.13363 0.34081 0.59254 0.0
C693 C 0.1314 0.36241 0.61315 0.0
C694 C 0.11557 0.37837 0.59585 0.0
C695 C 0.14049 0.43337 0.5156 0.0
C696 C 0.09721 0.44069 0.55327 0.0
C697 C 0.12394 0.41573 0.5168 0.0
N698 N 0.10267 0.41948 0.53576 0.0
C699 C 0.11332 0.45874 0.55265 0.0
C700 C 0.13511 0.45499 0.53372 0.0
C701 C 0.03478 0.41995 0.52076 0.0
C702 C 0.01378 0.33165 0.44975 0.0
C703 C 0.99494 0.37109 0.48825 0.0
C704 C 0.98576 0.36255 0.44793 0.0
C705 C 0.99529 0.3427 0.4286 0.0
N706 N 0.01306 0.36014 0.5088 0.0
C707 C 0.02249 0.34067 0.49008 0.0
Co708 Co 0.60433 0.93296 0.53152 0.0
Co709 Co 0.62481 0.98588 0.49425 0.0
O710 O 0.62778 0.95726 0.52891 0.0
C711 C 0.60944 0.9454 0.62718 0.0
O712 O 0.60682 0.96716 0.61549 0.0
C713 C 0.66639 0.96343 0.45765 0.0
O714 O 0.65401 0.94438 0.45635 0.0
O715 O 0.61356 0.96886 0.43985 0.0
O716 O 0.5982 0.93575 0.46604 0.0
H717 H 0.58449 0.04294 0.39338 0.0
H718 H 0.65111 0.92418 0.5689 0.0
O719 O 0.60981 0.92952 0.59746 0.0
H720 H 0.64062 0.86592 0.44878 0.0
H721 H 0.57203 0.85651 0.58371 0.0
H722 H 0.5573 0.92661 0.49323 0.0
H723 H 0.60948 0.89367 0.46672 0.0
H724 H 0.60149 0.88735 0.57837 0.0
O725 O 0.65743 0.98217 0.47221 0.0
H726 H 0.58825 0.00679 0.43712 0.0
H727 H 0.65612 0.02603 0.47765 0.0
H728 H 0.52744 0.89612 0.49736 0.0
H729 H 0.68264 0.89663 0.55229 0.0
H730 H 0.53473 0.86075 0.54285 0.0
H731 H 0.67752 0.8673 0.49172 0.0
O732 O 0.57944 0.95601 0.54387 0.0
H733 H 0.67805 1.00038 0.62533 0.0
H734 H 0.60876 0.02778 0.54426 0.0
H735 H 0.62198 0.04869 0.61215 0.0
H736 H 0.65691 0.03503 0.65311 0.0
H737 H 0.66409 0.97985 0.55752 0.0
H738 H 0.65319 0.06229 0.43403 0.0
H739 H 0.61713 0.07098 0.39166 0.0
O740 O 0.59223 0.98986 0.5156 0.0
C741 C 0.60276 0.9498 0.43423 0.0
C742 C 0.60027 0.03939 0.41181 0.0
C743 C 0.63884 0.05023 0.43457 0.0
N744 N 0.62231 0.01441 0.46015 0.0
C745 C 0.60247 0.01898 0.43672 0.0
C746 C 0.64042 0.02965 0.45911 0.0
C747 C 0.6186 0.0551 0.41082 0.0
C748 C 0.64867 0.9113 0.54283 0.0
N749 N 0.62844 0.91046 0.51898 0.0
C750 C 0.66662 0.89581 0.53344 0.0
C751 C 0.66374 0.87938 0.49941 0.0
C752 C 0.64305 0.87861 0.47528 0.0
C753 C 0.62549 0.89439 0.48554 0.0
C754 C 0.56868 0.8718 0.56366 0.0
C755 C 0.56067 0.91119 0.51281 0.0
C756 C 0.58528 0.88934 0.56055 0.0
N757 N 0.58121 0.90864 0.53508 0.0
C758 C 0.54366 0.89402 0.51515 0.0
C759 C 0.54776 0.87419 0.54072 0.0
C760 C 0.57675 0.97744 0.53464 0.0
C761 C 0.66284 0.00653 0.60772 0.0
C762 C 0.62391 0.02167 0.56202 0.0
C763 C 0.63135 0.03362 0.60037 0.0
C764 C 0.65095 0.02596 0.62332 0.0
N765 N 0.63569 0.00266 0.54687 0.0
C766 C 0.6549 0.99502 0.56922 0.0
Co767 Co 0.08364 0.10578 0.78345 0.0
Co768 Co 0.02937 0.12749 0.758 0.0
O769 O 0.06036 0.13033 0.78393 0.0
C770 C 0.07819 0.11749 0.87894 0.0
O771 O 0.05583 0.11885 0.87151 0.0
C772 C 0.05007 0.16754 0.71168 0.0
O773 O 0.06872 0.15484 0.70634 0.0
O774 O 0.04191 0.11395 0.70107 0.0
O775 O 0.07573 0.09759 0.72066 0.0
H776 H 0.96436 0.0867 0.67802 0.0
H777 H 0.09702 0.15323 0.81152 0.0
O778 O 0.09207 0.11307 0.84679 0.0
H779 H 0.14538 0.13576 0.67846 0.0
H780 H 0.16177 0.07155 0.8184 0.0
H781 H 0.08521 0.05731 0.75015 0.0
H782 H 0.1179 0.10676 0.70798 0.0
H783 H 0.1321 0.10226 0.81751 0.0
O784 O 0.03238 0.15923 0.73165 0.0
H785 H 0.00341 0.09027 0.71101 0.0
H786 H 0.98935 0.15976 0.74933 0.0
H787 H 0.11443 0.02618 0.74998 0.0
H788 H 0.12441 0.18268 0.78331 0.0
H789 H 0.15304 0.03321 0.78429 0.0
H790 H 0.14877 0.17404 0.71623 0.0
O791 O 0.06077 0.08249 0.80537 0.0
H792 H 0.02601 0.1851 0.8851 0.0
H793 H 0.99126 0.11432 0.82102 0.0
H794 H 0.97597 0.13021 0.89239 0.0
H795 H 0.99336 0.16587 0.92485 0.0
H796 H 0.04092 0.16848 0.81404 0.0
H797 H 0.95021 0.15701 0.71639 0.0
H798 H 0.93747 0.12024 0.68058 0.0
O799 O 0.02592 0.09574 0.7835 0.0
C800 C 0.05975 0.10172 0.69231 0.0
C801 C 0.96969 0.10279 0.69364 0.0
C802 C 0.96176 0.14227 0.71512 0.0
N803 N 0.99857 0.12514 0.73237 0.0
C804 C 0.99175 0.10489 0.71249 0.0
C805 C 0.98395 0.14374 0.73363 0.0
C806 C 0.95462 0.12163 0.69506 0.0
C807 C 0.10775 0.14926 0.78261 0.0
N808 N 0.10597 0.12826 0.7616 0.0
C809 C 0.12315 0.16604 0.76667 0.0
C810 C 0.13678 0.16119 0.72898 0.0
C811 C 0.13488 0.13972 0.70776 0.0
C812 C 0.11926 0.12338 0.72458 0.0
C813 C 0.14503 0.06829 0.80325 0.0
C814 C 0.10202 0.06055 0.76488 0.0
C815 C 0.12815 0.0856 0.80271 0.0
N816 N 0.10701 0.08164 0.78344 0.0
C817 C 0.11848 0.04283 0.7648 0.0
C818 C 0.14013 0.04678 0.7841 0.0
C819 C 0.03888 0.08032 0.80111 0.0
C820 C 0.01825 0.16958 0.87123 0.0
C821 C 0.99897 0.12979 0.83502 0.0
C822 C 0.9902 0.13874 0.87538 0.0
C823 C 0.99995 0.15877 0.89356 0.0
N824 N 0.01692 0.14051 0.81332 0.0
C825 C 0.02655 0.16015 0.8309 0.0
Co826 Co 0.89202 0.57301 0.04267 0.0
Co827 Co 0.87249 0.52092 -0.0007 0.0
O828 O 0.86889 0.54854 0.03678 0.0
C829 C 0.88693 0.55721 0.13633 0.0
O830 O 0.88932 0.5359 0.12155 0.0
C831 C 0.83115 0.54414 0.96323 0.0
O832 O 0.84315 0.56342 0.96515 0.0
O833 O 0.88461 0.53936 0.94747 0.0
O834 O 0.89827 0.57247 0.97701 0.0
H835 H 0.91454 0.46683 0.89457 0.0
H836 H 0.84509 0.57983 0.08108 0.0
O837 O 0.88649 0.57411 0.10891 0.0
H838 H 0.85489 0.64223 0.96907 0.0
H839 H 0.92324 0.64789 0.10511 0.0
H840 H 0.9389 0.58143 0.00496 0.0
H841 H 0.88637 0.61432 0.98321 0.0
H842 H 0.89423 0.61689 0.09564 0.0
O843 O 0.84024 0.52511 0.97582 0.0
H844 H 0.90999 0.50168 0.94201 0.0
H845 H 0.84161 0.48118 0.97677 0.0
H846 H 0.96832 0.61212 0.01318 0.0
H847 H 0.81321 0.60748 0.06823 0.0
H848 H 0.96057 0.64566 0.06356 0.0
H849 H 0.81798 0.6389 0.01175 0.0
O850 O 0.9173 0.54997 0.05205 0.0
H851 H 0.8172 0.50278 0.12553 0.0
H852 H 0.88786 0.47776 0.04566 0.0
H853 H 0.87362 0.45499 0.1104 0.0
H854 H 0.83799 0.46744 0.15074 0.0
H855 H 0.83219 0.52516 0.06087 0.0
H856 H 0.84534 0.44621 0.92938 0.0
H857 H 0.88206 0.43881 0.88803 0.0
O858 O 0.90469 0.51646 0.02194 0.0
C859 C 0.89476 0.5589 0.9439 0.0
C860 C 0.89849 0.46983 0.91253 0.0
C861 C 0.85963 0.45827 0.93202 0.0
N862 N 0.87563 0.49335 0.96237 0.0
C863 C 0.89583 0.48949 0.93954 0.0
C864 C 0.8576 0.47812 0.9587 0.0
C865 C 0.88024 0.45412 0.90884 0.0
C866 C 0.84737 0.59361 0.05678 0.0
N867 N 0.8676 0.59553 0.0331 0.0
C868 C 0.82923 0.60915 0.04951 0.0
C869 C 0.83191 0.62675 0.01777 0.0
C870 C 0.85261 0.62862 -0.00621 0.0
C871 C 0.87036 0.61275 0.00189 0.0
C872 C 0.9268 0.6334 0.08296 0.0
C873 C 0.93533 0.59605 0.02669 0.0
C874 C 0.91045 0.61578 0.07751 0.0
N875 N 0.91478 0.59749 0.04941 0.0
C876 C 0.95209 0.61334 0.03132 0.0
C877 C 0.94774 0.63214 0.05963 0.0
C878 C 0.9201 0.52869 0.04158 0.0
C879 C 0.83271 0.49715 0.10817 0.0
C880 C 0.87242 0.48335 0.06317 0.0
C881 C 0.8644 0.47035 0.09973 0.0
C882 C 0.8444 0.47734 0.12233 0.0
N883 N 0.86082 0.50272 0.04942 0.0
C884 C 0.84123 0.50971 0.07145 0.0
Co885 Co 0.42564 0.389 0.29144 0.0
Co886 Co 0.4779 0.37057 0.24709 0.0
O887 O 0.45089 0.36674 0.28609 0.0
C888 C 0.44307 0.38657 0.38438 0.0
O889 O 0.46406 0.38925 0.36818 0.0
C890 C 0.45526 0.32806 0.2148 0.0
O891 O 0.43573 0.33959 0.21729 0.0
O892 O 0.45854 0.38141 0.19557 0.0
O893 O 0.42497 0.39371 0.22539 0.0
H894 H 0.52945 0.41253 0.13753 0.0
H895 H 0.42125 0.3428 0.33417 0.0
O896 O 0.42577 0.38501 0.35805 0.0
H897 H 0.35688 0.34744 0.22527 0.0
H898 H 0.35053 0.41869 0.35559 0.0
H899 H 0.41482 0.43456 0.25029 0.0
H900 H 0.38372 0.38032 0.23505 0.0
H901 H 0.38253 0.39075 0.34681 0.0
O902 O 0.47427 0.33785 0.22551 0.0
H903 H 0.4954 0.40775 0.18704 0.0
H904 H 0.51814 0.34047 0.2241 0.0
H905 H 0.38308 0.46288 0.25776 0.0
H906 H 0.39473 0.30958 0.32569 0.0
H907 H 0.35063 0.45501 0.31072 0.0
H908 H 0.36232 0.31175 0.27079 0.0
O909 O 0.44782 0.41534 0.29734 0.0
H910 H 0.49919 0.31773 0.37519 0.0
H911 H 0.52118 0.38784 0.29042 0.0
H912 H 0.54518 0.37523 0.35468 0.0
H913 H 0.53425 0.33989 0.39748 0.0
H914 H 0.47557 0.3311 0.31095 0.0
H915 H 0.55235 0.34443 0.17469 0.0
H916 H 0.55821 0.38071 0.13112 0.0
O917 O 0.4817 0.40324 0.2679 0.0
C918 C 0.43847 0.39044 0.19208 0.0
C919 C 0.52713 0.39667 0.15646 0.0
C920 C 0.53996 0.35843 0.17726 0.0
N921 N 0.5049 0.37393 0.20867 0.0
C922 C 0.50792 0.3939 0.18464 0.0
C923 C 0.52054 0.35627 0.20509 0.0
C924 C 0.54324 0.3788 0.15284 0.0
C925 C 0.40704 0.34396 0.31055 0.0
N926 N 0.40396 0.36351 0.28531 0.0
C927 C 0.39214 0.32506 0.30576 0.0
C928 C 0.37398 0.32628 0.2749 0.0
C929 C 0.37093 0.34629 0.24933 0.0
C930 C 0.3862 0.36484 0.25496 0.0
C931 C 0.36454 0.42229 0.33232 0.0
C932 C 0.40068 0.43094 0.27318 0.0
C933 C 0.38272 0.40655 0.32725 0.0
N934 N 0.4004 0.41092 0.29773 0.0
C935 C 0.38279 0.44707 0.27737 0.0
C936 C 0.36461 0.44266 0.30712 0.0
C937 C 0.46897 0.41865 0.28641 0.0
C938 C 0.50416 0.33312 0.35674 0.0
C939 C 0.51625 0.37252 0.30901 0.0
C940 C 0.52994 0.36542 0.34529 0.0
C941 C 0.52381 0.34558 0.36927 0.0
N942 N 0.49704 0.36017 0.29687 0.0
C943 C 0.49089 0.34073 0.32026 0.0
H944 H 0.30376 0.01582 0.45208 0.0
H945 H 0.19157 0.08906 0.38589 0.0
H946 H 0.30476 0.09012 0.43574 0.0
H947 H 0.19724 0.01525 0.36509 0.0
H948 H 0.23194 0.08983 0.41101 0.0
H949 H 0.26348 0.01531 0.42688 0.0
C950 C 0.29551 0.03203 0.44316 0.0
C951 C 0.30764 0.05304 0.44587 0.0
C952 C 0.22432 0.07349 0.40088 0.0
C953 C 0.26154 0.05258 0.41731 0.0
C954 C 0.20127 0.07302 0.38675 0.0
C955 C 0.19104 0.05205 0.37344 0.0
C956 C 0.23711 0.05282 0.40218 0.0
C957 C 0.20446 0.03181 0.37495 0.0
C958 C 0.27255 0.03171 0.42867 0.0
C959 C 0.29609 0.07351 0.43387 0.0
N960 N 0.22677 0.03268 0.38924 0.0
N961 N 0.27363 0.07279 0.42028 0.0
H962 H 0.92081 0.80845 0.68847 0.0
H963 H 0.99492 0.69805 0.61215 0.0
H964 H 0.99551 0.80609 0.69371 0.0
H965 H 0.92051 0.69756 0.62695 0.0
H966 H 0.99552 0.73835 0.63748 0.0
H967 H 0.92045 0.76851 0.66157 0.0
C968 C 0.93716 0.79955 0.68386 0.0
C969 C 0.95824 0.81064 0.6933 0.0
C970 C 0.97908 0.72942 0.6352 0.0
C971 C 0.95792 0.76485 0.66248 0.0
C972 C 0.9787 0.70642 0.62063 0.0
C973 C 0.95763 0.69439 0.61755 0.0
C974 C 0.95822 0.74051 0.64651 0.0
C975 C 0.93716 0.70611 0.62902 0.0
C976 C 0.93692 0.77671 0.66859 0.0
C977 C 0.97886 0.7982 0.68689 0.0
N978 N 0.93798 0.72852 0.64294 0.0
N979 N 0.97819 0.77597 0.67178 0.0
H980 H 0.30037 0.49091 0.86481 0.0
H981 H 0.18919 0.41471 0.92736 0.0
H982 H 0.30075 0.41614 0.86812 0.0
H983 H 0.19398 0.48814 0.9536 0.0
H984 H 0.22891 0.41525 0.89886 0.0
H985 H 0.26012 0.49053 0.89047 0.0
C986 C 0.29197 0.47441 0.87078 0.0
C987 C 0.30396 0.45351 0.86449 0.0
C988 C 0.22126 0.43124 0.91086 0.0
C989 C 0.25792 0.45299 0.89376 0.0
C990 C 0.19857 0.43097 0.927 0.0
C991 C 0.18826 0.45142 0.94288 0.0
C992 C 0.2337 0.45214 0.91024 0.0
C993 C 0.20127 0.47195 0.9418 0.0
C994 C 0.26902 0.47422 0.88557 0.0
C995 C 0.29221 0.43266 0.87279 0.0
N996 N 0.22331 0.4718 0.92565 0.0
N997 N 0.26983 0.43293 0.88695 0.0
H998 H 0.587 0.80163 0.11964 0.0
H999 H 0.50887 0.69431 0.19714 0.0
H1000 H 0.51228 0.80185 0.11393 0.0
H1001 H 0.58282 0.68999 0.17696 0.0
H1002 H 0.50985 0.73447 0.17108 0.0
H1003 H 0.58588 0.76141 0.14508 0.0
C1004 C 0.57035 0.79324 0.12381 0.0
C1005 C 0.54969 0.80513 0.11472 0.0
C1006 C 0.52584 0.72471 0.17224 0.0
C1007 C 0.5483 0.75909 0.14387 0.0
C1008 C 0.52531 0.70179 0.18719 0.0
C1009 C 0.54579 0.68875 0.18911 0.0
C1010 C 0.54703 0.73472 0.15948 0.0
C1011 C 0.56659 0.69935 0.17581 0.0
C1012 C 0.56973 0.77024 0.1382 0.0
C1013 C 0.52863 0.79333 0.12049 0.0
N1014 N 0.56668 0.72173 0.1617 0.0
N1015 N 0.52848 0.77098 0.13485 0.0
H1016 H 0.69267 0.58414 0.88353 0.0
H1017 H 0.80355 0.50709 0.94257 0.0
H1018 H 0.69754 0.51109 0.8536 0.0
H1019 H 0.8039 0.58186 0.94571 0.0
H1020 H 0.7638 0.50799 0.91454 0.0
H1021 H 0.7326 0.58342 0.9108 0.0
C1022 C 0.70212 0.56794 0.88271 0.0
C1023 C 0.69174 0.54762 0.86635 0.0
C1024 C 0.77259 0.5242 0.92126 0.0
C1025 C 0.73741 0.54669 0.89762 0.0
C1026 C 0.79526 0.5237 0.9374 0.0
C1027 C 0.80708 0.54444 0.94641 0.0
C1028 C 0.76155 0.54557 0.91443 0.0
C1029 C 0.79548 0.56546 0.93901 0.0
C1030 C 0.72494 0.56757 0.89818 0.0
C1031 C 0.70486 0.52717 0.86588 0.0
N1032 N 0.77333 0.56548 0.92358 0.0
N1033 N 0.72698 0.52721 0.88146 0.0
H1034 H 0.49253 0.30098 0.19312 0.0
H1035 H 0.41705 0.1876 0.14319 0.0
H1036 H 0.41788 0.29963 0.20185 0.0
H1037 H 0.48918 0.19443 0.10687 0.0
H1038 H 0.41737 0.22765 0.17033 0.0
H1039 H 0.492 0.26082 0.16716 0.0
C1040 C 0.47603 0.29223 0.18964 0.0
C1041 C 0.45521 0.3037 0.1995 0.0
C1042 C 0.4331 0.22037 0.15636 0.0
C1043 C 0.4545 0.2577 0.16992 0.0
C1044 C 0.43296 0.1975 0.14098 0.0
C1045 C 0.45312 0.18766 0.12275 0.0
C1046 C 0.45361 0.23341 0.15383 0.0
C1047 C 0.47321 0.20132 0.12056 0.0
C1048 C 0.47574 0.26932 0.17469 0.0
C1049 C 0.43434 0.2915 0.19436 0.0
N1050 N 0.47296 0.22346 0.13604 0.0
N1051 N 0.43451 0.26913 0.18 0.0
H1052 H 0.80379 0.92176 0.37513 0.0
H1053 H 0.69554 1.00036 0.44535 0.0
H1054 H 0.80342 0.9963 0.36325 0.0
H1055 H 0.69266 0.92582 0.43473 0.0
H1056 H 0.73571 0.99933 0.41921 0.0
H1057 H 0.76364 0.92304 0.40072 0.0
C1058 C 0.79527 0.93842 0.37794 0.0
C1059 C 0.807 0.95897 0.36712 0.0
C1060 C 0.72626 0.98322 0.42252 0.0
C1061 C 0.76099 0.96054 0.3965 0.0
C1062 C 0.70335 0.98378 0.43757 0.0
C1063 C 0.69071 0.96314 0.44215 0.0
C1064 C 0.73666 0.96186 0.41231 0.0
C1065 C 0.70171 0.94216 0.43152 0.0
C1066 C 0.77231 0.93912 0.39246 0.0
C1067 C 0.79503 0.98003 0.37119 0.0
N1068 N 0.72406 0.94206 0.41719 0.0
N1069 N 0.77269 0.98028 0.38571 0.0
H1070 H 0.08568 0.30762 0.63423 0.0
H1071 H 0.01241 0.19573 0.70247 0.0
H1072 H 0.01167 0.30233 0.61607 0.0
H1073 H 0.08661 0.19439 0.68426 0.0
H1074 H 0.01193 0.2359 0.67685 0.0
H1075 H 0.08647 0.26716 0.65871 0.0
C1076 C 0.06959 0.29797 0.63552 0.0
C1077 C 0.04856 0.30836 0.62321 0.0
C1078 C 0.0283 0.2268 0.67831 0.0
C1079 C 0.04937 0.26216 0.65122 0.0
C1080 C 0.02861 0.20389 0.69305 0.0
C1081 C 0.04959 0.19169 0.69543 0.0
C1082 C 0.04914 0.23772 0.66633 0.0
C1083 C 0.07004 0.20312 0.68271 0.0
C1084 C 0.07008 0.27487 0.64929 0.0
C1085 C 0.02827 0.29501 0.62522 0.0
N1086 N 0.06932 0.22556 0.6689 0.0
N1087 N 0.02917 0.27263 0.63916 0.0
H1088 H 0.07047 0.98979 0.26938 0.0
H1089 H 0.96034 0.94319 0.24947 0.0
H1090 H 0.03792 0.05628 0.24853 0.0
H1091 H 0.9378 0.01171 0.28851 0.0
H1092 H 0.99901 0.95847 0.23568 0.0
H1093 H 0.0328 0.97133 0.26427 0.0
C1094 C 0.05546 1.0005 0.26267 0.0
C1095 C 0.05743 0.02469 0.25969 0.0
C1096 C 0.98573 0.97013 0.24779 0.0
C1097 C 0.01397 0.00351 0.25321 0.0
C1098 C 0.96351 0.96144 0.25535 0.0
C1099 C 0.9458 0.97609 0.27095 0.0
C1100 C 0.99036 0.99363 0.25623 0.0
C1101 C 0.95093 0.99967 0.27707 0.0
C1102 C 0.03385 0.98986 0.25941 0.0
C1103 C 0.03729 0.03759 0.25114 0.0
N1104 N 0.97275 0.00766 0.26991 0.0
N1105 N 0.01637 0.02687 0.24892 0.0
H1106 H 0.01357 0.56652 0.53283 0.0
H1107 H 0.05579 0.45798 0.48323 0.0
H1108 H 0.94524 0.5372 0.51626 0.0
H1109 H 0.98982 0.43403 0.53412 0.0
H1110 H 0.04002 0.49698 0.47792 0.0
H1111 H 0.03027 0.52853 0.51985 0.0
C1112 C 0.00205 0.55216 0.52583 0.0
C1113 C 0.97792 0.55515 0.52563 0.0
C1114 C 0.02904 0.48325 0.49057 0.0
C1115 C 0.99708 0.5114 0.50965 0.0
C1116 C 0.03794 0.46085 0.49306 0.0
C1117 C 0.02429 0.4427 0.51009 0.0
C1118 C 0.00637 0.48761 0.50556 0.0
C1119 C 0.00114 0.4475 0.52149 0.0
C1120 C 0.01166 0.53042 0.51783 0.0
C1121 C 0.96393 0.53576 0.51663 0.0
N1122 N 0.99298 0.46955 0.51942 0.0
N1123 N 0.97372 0.51465 0.50952 0.0
H1124 H 0.43169 0.51304 0.79077 0.0
H1125 H 0.53897 0.5588 0.74151 0.0
H1126 H 0.46177 0.44601 0.76295 0.0
H1127 H 0.56473 0.49127 0.77911 0.0
H1128 H 0.50002 0.54281 0.73748 0.0
H1129 H 0.46926 0.5308 0.7788 0.0
C1130 C 0.44612 0.50204 0.78152 0.0
C1131 C 0.44346 0.47794 0.77779 0.0
C1132 C 0.51413 0.53152 0.74703 0.0
C1133 C 0.48675 0.49839 0.7629 0.0
C1134 C 0.53649 0.54058 0.74876 0.0
C1135 C 0.55518 0.52649 0.76156 0.0
C1136 C 0.51033 0.50823 0.75861 0.0
C1137 C 0.55085 0.5029 0.76974 0.0
C1138 C 0.46763 0.51229 0.77412 0.0
C1139 C 0.46295 0.46466 0.76608 0.0
N1140 N 0.52884 0.49456 0.76851 0.0
N1141 N 0.48383 0.47505 0.75948 0.0
H1142 H 0.56179 0.95781 -0.00907 0.0
H1143 H 0.51406 0.06719 0.01562 0.0
H1144 H 0.49431 0.93427 0.03446 0.0
H1145 H 0.44772 0.03374 -0.00172 0.0
H1146 H 0.53294 0.0298 0.00862 0.0
H1147 H 0.54573 0.99627 0.97832 0.0
C1148 C 0.5436 0.96071 -0.00203 0.0
C1149 C 0.5295 0.9428 0.01456 0.0
C1150 C 0.51433 0.03061 0.00495 0.0
C1151 C 0.51109 0.98708 0.00121 0.0
C1152 C 0.50346 0.05205 0.00931 0.0
C1153 C 0.4792 0.05368 0.00785 0.0
C1154 C 0.50085 0.01055 -0.0008 0.0
C1155 C 0.46644 0.03337 -0.00026 0.0
C1156 C 0.53448 0.9828 -0.00889 0.0
C1157 C 0.50596 0.94757 0.02223 0.0
N1158 N 0.47741 0.01262 -0.00355 0.0
N1159 N 0.49755 0.96927 0.01571 0.0
H1160 H 0.03886 0.43679 0.0792 0.0
H1161 H 0.93109 0.48268 0.03585 0.0
H1162 H 0.06348 0.50558 0.04743 0.0
H1163 H 0.96046 0.54919 0.0705 0.0
H1164 H 0.96867 0.4649 0.04742 0.0
H1165 H 0.99981 0.4522 0.08701 0.0
C1166 C 0.03612 0.45516 0.07408 0.0
C1167 C 0.0545 0.4698 0.06167 0.0
C1168 C 0.96686 0.48326 0.05376 0.0
C1169 C 0.00954 0.48743 0.06908 0.0
C1170 C 0.94536 0.49353 0.04662 0.0
C1171 C 0.94253 0.51752 0.05214 0.0
C1172 C 0.98583 0.49706 0.0664 0.0
C1173 C 0.96178 0.53063 0.0659 0.0
C1174 C 0.0137 0.4639 0.078 0.0
C1175 C 0.04984 0.49353 0.05631 0.0
N1176 N 0.98269 0.52026 0.07198 0.0
N1177 N 0.02779 0.50156 0.05963 0.0
H1178 H 0.51478 0.43081 0.2823 0.0
H1179 H 0.55723 0.53988 0.32955 0.0
H1180 H 0.44702 0.45903 0.31068 0.0
H1181 H 0.48967 0.56292 0.28593 0.0
H1182 H 0.54221 0.50055 0.33566 0.0
H1183 H 0.53148 0.46905 0.29326 0.0
C1184 C 0.50341 0.44498 0.29145 0.0
C1185 C 0.47942 0.44161 0.29562 0.0
C1186 C 0.53071 0.51418 0.3245 0.0
C1187 C 0.4986 0.48561 0.30906 0.0
C1188 C 0.53919 0.53675 0.32154 0.0
C1189 C 0.52483 0.55476 0.30635 0.0
C1190 C 0.50771 0.50952 0.31203 0.0
C1191 C 0.50151 0.54959 0.29713 0.0
C1192 C 0.51304 0.46684 0.29824 0.0
C1193 C 0.46562 0.46075 0.30728 0.0
N1194 N 0.49373 0.52741 0.2998 0.0
N1195 N 0.47538 0.48199 0.31304 0.0
H1196 H 0.45782 0.06865 0.57887 0.0
H1197 H 0.56563 0.0235 0.53046 0.0
H1198 H 0.43343 0.99987 0.54635 0.0
H1199 H 0.53662 0.9567 0.564 0.0
H1200 H 0.52809 0.04113 0.54392 0.0
H1201 H 0.49708 0.05349 0.58465 0.0
C1202 C 0.46065 0.05033 0.57323 0.0
C1203 C 0.44228 0.03563 0.56118 0.0
C1204 C 0.52998 0.02272 0.54959 0.0
C1205 C 0.48742 0.01829 0.56626 0.0
C1206 C 0.55146 0.01255 0.54136 0.0
C1207 C 0.55437 0.98853 0.54603 0.0
C1208 C 0.51115 0.0088 0.56244 0.0
C1209 C 0.53524 0.97528 0.56001 0.0
C1210 C 0.48318 0.04174 0.57595 0.0
C1211 C 0.44706 0.01197 0.555 0.0
N1212 N 0.51437 0.98556 0.56715 0.0
N1213 N 0.46919 0.00409 0.55722 0.0
H1214 H 0.99268 0.0704 0.80861 0.0
H1215 H 0.94848 0.95971 0.83273 0.0
H1216 H 0.06027 0.03887 0.81928 0.0
H1217 H 0.01486 0.93868 0.7791 0.0
H1218 H 0.96417 0.99823 0.84669 0.0
H1219 H 0.97505 0.03239 0.81532 0.0
C1220 C 0.00383 0.05554 0.81342 0.0
C1221 C 0.02804 0.0579 0.81312 0.0
C1222 C 0.97525 0.98529 0.83146 0.0
C1223 C 0.00784 0.01405 0.82135 0.0
C1224 C 0.96635 0.96316 0.82381 0.0
C1225 C 0.98022 0.94596 0.80392 0.0
C1226 C 0.99816 0.99034 0.81886 0.0
C1227 C 0.00338 0.95143 0.7939 0.0
C1228 C 0.99369 0.03374 0.81761 0.0
C1229 C 0.04155 0.03793 0.81929 0.0
N1230 N 0.01157 0.97317 0.80125 0.0
N1231 N 0.03126 0.0168 0.82237 0.0
H1232 H 0.09097 0.06897 0.66602 0.0
H1233 H 0.06444 0.08467 0.4058 0.0
H1234 H 0.03511 0.11136 0.61523 0.0
H1235 H 0.11484 0.03618 0.4574 0.0
H1236 H 0.05114 0.09191 0.48221 0.0
H1237 H 0.09761 0.05428 0.59045 0.0
C1238 C 0.07999 0.07516 0.639 0.0
C1239 C 0.06264 0.09174 0.6469 0.0
C1240 C 0.06494 0.07952 0.47689 0.0
C1241 C 0.07029 0.07488 0.55999 0.0
C1242 C 0.07265 0.0754 0.43321 0.0
C1243 C 0.09108 0.06006 0.42527 0.0
C1244 C 0.07589 0.06841 0.51305 0.0
C1245 C 0.10074 0.0483 0.46206 0.0
C1246 C 0.08377 0.06664 0.5958 0.0
C1247 C 0.04881 0.09878 0.61059 0.0
N1248 N 0.0932 0.05296 0.50454 0.0
N1249 N 0.05312 0.09049 0.5685 0.0
H1250 H 0.96788 0.61669 0.71082 0.0
H1251 H 0.92213 0.59627 0.92477 0.0
H1252 H 0.90467 0.58433 0.66458 0.0
H1253 H 0.88643 0.53912 0.86109 0.0
H1254 H 0.93554 0.60905 0.85114 0.0
H1255 H 0.95836 0.60484 0.78785 0.0
C1256 C 0.95194 0.6073 0.71686 0.0
C1257 C 0.93698 0.6017 0.68118 0.0
C1258 C 0.92516 0.59347 0.85329 0.0
C1259 C 0.92585 0.58836 0.76911 0.0
C1260 C 0.91723 0.58626 0.89535 0.0
C1261 C 0.90313 0.5665 0.89921 0.0
C1262 C 0.9189 0.5809 0.81469 0.0
C1263 C 0.89731 0.55438 0.85976 0.0
C1264 C 0.94642 0.60068 0.76089 0.0
C1265 C 0.91667 0.58923 0.69096 0.0
N1266 N 0.90509 0.5619 0.81904 0.0
N1267 N 0.91177 0.5829 0.73396 0.0
H1268 H 0.39901 0.41458 0.17259 0.0
H1269 H 0.37911 0.46309 0.96107 0.0
H1270 H 0.45915 0.38381 0.10951 0.0
H1271 H 0.41563 0.40278 0.91184 0.0
H1272 H 0.39002 0.45244 0.03804 0.0
H1273 H 0.38606 0.42796 0.0991 0.0
C1274 C 0.4096 0.41071 0.14334 0.0
C1275 C 0.43032 0.39811 0.14734 0.0
C1276 C 0.39529 0.44137 0.01039 0.0
C1277 C 0.41571 0.41388 0.06309 0.0
C1278 C 0.38924 0.44755 0.96643 0.0
C1279 C 0.3963 0.43374 0.92994 0.0
C1280 C 0.40854 0.4213 0.0177 0.0
C1281 C 0.40962 0.41389 0.93885 0.0
C1282 C 0.40227 0.41863 0.1014 0.0
C1283 C 0.44314 0.39354 0.10809 0.0
N1284 N 0.4154 0.40836 0.98181 0.0
N1285 N 0.43553 0.40133 0.06749 0.0
H1286 H 0.57051 0.91744 0.41105 0.0
H1287 H 0.60301 0.91763 0.15058 0.0
H1288 H 0.61917 0.96588 0.35303 0.0
H1289 H 0.54061 0.88593 0.20256 0.0
H1290 H 0.61109 0.93308 0.22543 0.0
H1291 H 0.56092 0.90378 0.33563 0.0
C1292 C 0.57912 0.92531 0.38241 0.0
C1293 C 0.59576 0.9428 0.38836 0.0
C1294 C 0.59561 0.92278 0.2204 0.0
C1295 C 0.58495 0.92701 0.30189 0.0
C1296 C 0.59102 0.91381 0.17772 0.0
C1297 C 0.57107 0.9004 0.17019 0.0
C1298 C 0.58032 0.91813 0.25601 0.0
C1299 C 0.5562 0.89614 0.20675 0.0
C1300 C 0.57358 0.91751 0.33935 0.0
C1301 C 0.60623 0.9524 0.34995 0.0
N1302 N 0.56118 0.90492 0.24817 0.0
N1303 N 0.60079 0.94422 0.30826 0.0
H1304 H 0.08587 0.43347 0.65231 0.0
H1305 H 0.10302 0.47173 0.87039 0.0
H1306 H 0.03446 0.3871 0.70785 0.0
H1307 H 0.07547 0.40458 0.90637 0.0
H1308 H 0.08866 0.46611 0.79372 0.0
H1309 H 0.09398 0.44779 0.72729 0.0
C1310 C 0.076 0.4265 0.68028 0.0
C1311 C 0.0596 0.40884 0.6738 0.0
C1312 C 0.08605 0.45248 0.81825 0.0
C1313 C 0.06845 0.42574 0.7602 0.0
C1314 C 0.09412 0.45576 0.86213 0.0
C1315 C 0.09095 0.43838 0.8946 0.0
C1316 C 0.07495 0.4316 0.80685 0.0
C1317 C 0.07875 0.41828 0.88229 0.0
C1318 C 0.08045 0.43499 0.72324 0.0
C1319 C 0.04731 0.40064 0.71136 0.0
N1320 N 0.07133 0.4154 0.83932 0.0
N1321 N 0.05225 0.40895 0.75317 0.0
H1322 H 0.5921 0.56886 0.16672 0.0
H1323 H 0.61214 0.528 0.95028 0.0
H1324 H 0.53405 0.6058 0.10943 0.0
H1325 H 0.57431 0.58937 0.91108 0.0
H1326 H 0.59862 0.53355 0.02778 0.0
H1327 H 0.6016 0.55399 0.09266 0.0
C1328 C 0.58111 0.57363 0.13862 0.0
C1329 C 0.56234 0.58886 0.14428 0.0
C1330 C 0.59353 0.54593 0.00226 0.0
C1331 C 0.57288 0.57124 0.05912 0.0
C1332 C 0.60111 0.54266 0.95797 0.0
C1333 C 0.59477 0.5585 0.92432 0.0
C1334 C 0.57963 0.5652 0.0127 0.0
C1335 C 0.58004 0.57693 0.93597 0.0
C1336 C 0.58642 0.5648 0.09625 0.0
C1337 C 0.54875 0.59426 0.10659 0.0
N1338 N 0.57307 0.5798 0.9792 0.0
N1339 N 0.5545 0.58568 0.0654 0.0
H1340 H 0.42477 0.10063 0.41339 0.0
H1341 H 0.42591 0.05848 0.15884 0.0
H1342 H 0.39295 0.03684 0.36852 0.0
H1343 H 0.465 0.11732 0.20679 0.0
H1344 H 0.41667 0.0483 0.23638 0.0
H1345 H 0.44188 0.10545 0.33914 0.0
C1346 C 0.42134 0.08759 0.38795 0.0
C1347 C 0.40712 0.0684 0.39713 0.0
C1348 C 0.42752 0.06327 0.23009 0.0
C1349 C 0.42685 0.07389 0.31184 0.0
C1350 C 0.43279 0.06912 0.1858 0.0
C1351 C 0.44593 0.089 0.17644 0.0
C1352 C 0.43519 0.07757 0.26529 0.0
C1353 C 0.4547 0.10193 0.21261 0.0
C1354 C 0.43128 0.09032 0.34556 0.0
C1355 C 0.40358 0.05201 0.36285 0.0
N1356 N 0.44885 0.09618 0.25558 0.0
N1357 N 0.41325 0.05524 0.32154 0.0
H1358 H 0.90491 0.92469 0.67232 0.0
H1359 H 0.88474 0.96922 0.4576 0.0
H1360 H 0.96259 0.88935 0.60972 0.0
H1361 H 0.91666 0.90552 0.41269 0.0
H1362 H 0.89684 0.96035 0.5347 0.0
H1363 H 0.89222 0.93763 0.59832 0.0
C1364 C 0.91505 0.91979 0.64306 0.0
C1365 C 0.93492 0.90592 0.6473 0.0
C1366 C 0.90086 0.94818 0.50802 0.0
C1367 C 0.92061 0.92109 0.56241 0.0
C1368 C 0.89411 0.95331 0.46395 0.0
C1369 C 0.89948 0.938 0.42864 0.0
C1370 C 0.91312 0.92764 0.51667 0.0
C1371 C 0.91192 0.91776 0.43881 0.0
C1372 C 0.90788 0.92743 0.6008 0.0
C1373 C 0.94724 0.90008 0.60808 0.0
N1374 N 0.9184 0.91323 0.48187 0.0
N1375 N 0.93974 0.90754 0.56715 0.0
H1376 H 0.05691 0.13344 0.95538 0.0
H1377 H 0.1324 0.05852 0.11612 0.0
H1378 H 0.1197 0.10086 0.90778 0.0
H1379 H 0.09662 0.11919 0.16541 0.0
H1380 H 0.12731 0.07272 0.03885 0.0
H1381 H 0.07016 0.12781 0.03315 0.0
C1382 C 0.07358 0.1254 0.96131 0.0
C1383 C 0.08711 0.11737 0.92531 0.0
C1384 C 0.12095 0.08306 0.06676 0.0
C1385 C 0.10209 0.11061 0.01345 0.0
C1386 C 0.12375 0.07492 0.11068 0.0
C1387 C 0.11471 0.08758 0.14697 0.0
C1388 C 0.10859 0.10364 0.05937 0.0
C1389 C 0.10377 0.10884 0.13828 0.0
C1390 C 0.08116 0.12228 0.00552 0.0
C1391 C 0.10867 0.1072 0.93465 0.0
N1392 N 0.10062 0.11601 0.0952 0.0
N1393 N 0.11532 0.1037 0.97794 0.0
H1394 H 0.96041 0.58247 0.37997 0.0
H1395 H 0.86949 0.59396 0.18251 0.0
H1396 H 0.89584 0.61879 0.39958 0.0
H1397 H 0.91236 0.5333 0.19807 0.0
H1398 H 0.88113 0.60684 0.25797 0.0
H1399 H 0.9463 0.56871 0.30673 0.0
C1400 C 0.94345 0.58788 0.36847 0.0
C1401 C 0.92924 0.60179 0.39562 0.0
C1402 C 0.88769 0.59055 0.24506 0.0
C1403 C 0.91305 0.58601 0.31265 0.0
C1404 C 0.881 0.58316 0.20226 0.0
C1405 C 0.88996 0.56254 0.18437 0.0
C1406 C 0.90387 0.57749 0.26939 0.0
C1407 C 0.90492 0.5492 0.21096 0.0
C1408 C 0.93532 0.57977 0.3271 0.0
C1409 C 0.90728 0.60806 0.37951 0.0
N1410 N 0.91176 0.55712 0.25201 0.0
N1411 N 0.89985 0.60017 0.33887 0.0
H1412 H 0.37948 0.39598 0.64735 0.0
H1413 H 0.46787 0.41263 0.44409 0.0
H1414 H 0.41922 0.45861 0.6288 0.0
H1415 H 0.40697 0.36963 0.43295 0.0
H1416 H 0.45508 0.42471 0.5195 0.0
H1417 H 0.39323 0.38203 0.57407 0.0
C1418 C 0.39086 0.40691 0.62748 0.0
C1419 C 0.39816 0.42851 0.64379 0.0
C1420 C 0.4447 0.41245 0.5006 0.0
C1421 C 0.41441 0.41241 0.5611 0.0
C1422 C 0.45213 0.40532 0.458 0.0
C1423 C 0.43838 0.39018 0.43251 0.0
C1424 C 0.42364 0.40405 0.51775 0.0
C1425 C 0.41797 0.38141 0.45166 0.0
C1426 C 0.39876 0.3989 0.58593 0.0
C1427 C 0.413 0.44196 0.61706 0.0
N1428 N 0.41116 0.38852 0.49323 0.0
N1429 N 0.42089 0.43356 0.57708 0.0
H1430 H 0.62805 0.90737 0.66717 0.0
H1431 H 0.54186 0.9118 0.87374 0.0
H1432 H 0.58486 0.96682 0.69367 0.0
H1433 H 0.60831 0.87812 0.88589 0.0
H1434 H 0.55367 0.92693 0.80007 0.0
H1435 H 0.61837 0.89215 0.74211 0.0
C1436 C 0.61685 0.91737 0.68915 0.0
C1437 C 0.60727 0.93838 0.67456 0.0
C1438 C 0.56556 0.9161 0.81885 0.0
C1439 C 0.59559 0.92078 0.75893 0.0
C1440 C 0.55874 0.90721 0.86049 0.0
C1441 C 0.57416 0.8937 0.88574 0.0
C1442 C 0.58772 0.91104 0.80217 0.0
C1443 C 0.59595 0.88851 0.86733 0.0
C1444 C 0.6113 0.90866 0.73163 0.0
C1445 C 0.59275 0.95067 0.70396 0.0
N1446 N 0.60211 0.89717 0.82644 0.0
N1447 N 0.58703 0.94148 0.74464 0.0
H1448 H 0.05375 0.36691 0.36417 0.0
H1449 H 0.13 0.44212 0.20431 0.0
H1450 H 0.11596 0.40013 0.41295 0.0
H1451 H 0.09608 0.38041 0.15494 0.0
H1452 H 0.12379 0.42851 0.28174 0.0
H1453 H 0.06743 0.37274 0.28661 0.0
C1454 C 0.07038 0.37514 0.35855 0.0
C1455 C 0.08365 0.38323 0.39483 0.0
C1456 C 0.11807 0.41783 0.2538 0.0
C1457 C 0.09907 0.39023 0.30696 0.0
C1458 C 0.12151 0.42562 0.2098 0.0
C1459 C 0.11339 0.41245 0.17341 0.0
C1460 C 0.10595 0.39708 0.26114 0.0
C1461 C 0.10258 0.39111 0.18215 0.0
C1462 C 0.07819 0.37837 0.31447 0.0
C1463 C 0.10514 0.39368 0.38588 0.0
N1464 N 0.09879 0.38426 0.22527 0.0
N1465 N 0.11201 0.39728 0.34272 0.0
H1466 H 0.62898 0.5589 0.61196 0.0
H1467 H 0.54697 0.62872 0.4542 0.0
H1468 H 0.58937 0.61627 0.66492 0.0
H1469 H 0.61347 0.60438 0.40688 0.0
H1470 H 0.56004 0.62261 0.53211 0.0
H1471 H 0.62148 0.57305 0.53534 0.0
C1472 C 0.61892 0.57456 0.60739 0.0
C1473 C 0.60972 0.58642 0.64451 0.0
C1474 C 0.5718 0.61901 0.50448 0.0
C1475 C 0.6008 0.60233 0.55778 0.0
C1476 C 0.56436 0.62241 0.4602 0.0
C1477 C 0.57905 0.61681 0.42415 0.0
C1478 C 0.5938 0.60948 0.51229 0.0
C1479 C 0.6015 0.6088 0.43366 0.0
C1480 C 0.61474 0.58266 0.56389 0.0
C1481 C 0.59682 0.60668 0.63704 0.0
N1482 N 0.60804 0.60496 0.47687 0.0
N1483 N 0.59239 0.61381 0.59434 0.0
H1484 H 0.39681 0.12362 0.66016 0.0
H1485 H 0.38213 0.09125 0.91939 0.0
H1486 H 0.36613 0.05935 0.70499 0.0
H1487 H 0.4405 0.12991 0.86784 0.0
H1488 H 0.36684 0.08821 0.84272 0.0
H1489 H 0.40313 0.13459 0.73883 0.0
C1490 C 0.39098 0.11201 0.68655 0.0
C1491 C 0.38123 0.09037 0.67621 0.0
C1492 C 0.38281 0.09761 0.84845 0.0
C1493 C 0.38827 0.10297 0.76571 0.0
C1494 C 0.39154 0.09943 0.89204 0.0
C1495 C 0.41278 0.1106 0.89968 0.0
C1496 C 0.39522 0.10737 0.81258 0.0
C1497 C 0.42423 0.12089 0.86314 0.0
C1498 C 0.3947 0.11828 0.73129 0.0
C1499 C 0.37399 0.07604 0.71166 0.0
N1500 N 0.41532 0.11895 0.82093 0.0
N1501 N 0.37779 0.08256 0.75506 0.0
H1502 H 0.91602 0.96024 0.12793 0.0
H1503 H 0.90523 0.87006 0.92903 0.0
H1504 H 0.88035 0.89527 0.14737 0.0
H1505 H 0.96602 0.91262 0.94673 0.0
H1506 H 0.89209 0.88131 0.00465 0.0
H1507 H 0.92982 0.94633 0.0546 0.0
C1508 C 0.91076 0.94323 0.11638 0.0
C1509 C 0.89702 0.92885 0.14353 0.0
C1510 C 0.90846 0.88787 -0.00787 0.0
C1511 C 0.91285 0.91289 0.06037 0.0
C1512 C 0.91599 0.88141 0.94926 0.0
C1513 C 0.93674 0.89041 0.93192 0.0
C1514 C 0.92149 0.90387 0.01707 0.0
C1515 C 0.95002 0.90516 0.95913 0.0
C1516 C 0.91888 0.93521 0.07494 0.0
C1517 C 0.89094 0.90684 0.12731 0.0
N1518 N 0.94196 0.91178 0.00022 0.0
N1519 N 0.89884 0.89951 0.08656 0.0
loop_
_geom_bond_atom_site_label_1
_geom_bond_atom_site_label_2
_geom_bond_distance
_geom_bond_site_symmetry_2
_ccdc_geom_bond_type
Co0 O2 2.143 . S
Co0 O8 2.074 . S
Co0 O11 2.093 . S
Co0 O24 2.097 . S
Co0 N41 2.151 . S
Co0 N49 2.214 . S
Co1 O2 2.160 . S
Co1 O7 2.058 . S
Co1 O17 2.057 . S
Co1 O32 2.037 . S
Co1 N36 2.145 . S
Co1 N57 2.257 . S
O2 Co0 2.143 . S
O2 Co1 2.160 . S
C3 O4 1.278 . S
C3 O11 1.224 . S
O4 C3 1.278 . S
C5 O6 1.245 . S
C5 O17 1.232 . S
O6 C5 1.245 . S
O7 Co1 2.058 . S
O7 C33 1.269 . S
O8 Co0 2.074 . S
O8 C33 1.257 . S
H9 C34 0.930 . S
H10 C40 0.930 . S
O11 Co0 2.093 . S
O11 C3 1.224 . S
H12 C44 0.929 . S
H13 C46 0.930 . S
H14 C47 0.930 . S
H15 C45 0.929 . S
H16 C48 0.928 . S
O17 Co1 2.057 . S
O17 C5 1.232 . S
H18 C37 0.929 . S
H19 C38 0.929 . S
H20 C50 0.931 . S
H21 C42 0.929 . S
H22 C51 0.930 1_655 S
H23 C43 0.931 . S
O24 Co0 2.097 . S
O24 C52 1.214 . S
H25 C53 0.929 . S
H26 C54 0.929 . S
H27 C55 0.930 . S
H28 C56 0.929 . S
H29 C58 0.930 . S
H30 C35 0.930 . S
H31 C39 0.930 . S
O32 Co1 2.037 . S
O32 C52 1.234 . S
C33 O7 1.269 . S
C33 O8 1.257 . S
C34 H9 0.930 . S
C34 C37 1.388 1_565 S
C34 C39 1.418 . S
C35 H30 0.930 . S
C35 C38 1.404 1_565 S
C35 C39 1.353 . S
N36 Co1 2.145 . S
N36 C37 1.397 . S
N36 C38 1.334 . S
C37 H18 0.929 . S
C37 C34 1.388 1_545 S
C37 N36 1.397 . S
C38 H19 0.929 . S
C38 C35 1.404 1_545 S
C38 N36 1.334 . S
C39 H31 0.930 . S
C39 C34 1.418 . S
C39 C35 1.353 . S
C40 H10 0.930 . S
C40 N41 1.330 . S
C40 C42 1.446 . S
N41 Co0 2.151 . S
N41 C40 1.330 . S
N41 C45 1.418 . S
C42 H21 0.929 . S
C42 C40 1.446 . S
C42 C43 1.332 . S
C43 H23 0.931 . S
C43 C42 1.332 . S
C43 C44 1.267 . S
C44 H12 0.929 . S
C44 C43 1.267 . S
C44 C45 1.251 . S
C45 H15 0.929 . S
C45 N41 1.418 . S
C45 C44 1.251 . S
C46 H13 0.930 . S
C46 C48 1.406 . S
C46 C51 1.261 . S
C47 H14 0.930 . S
C47 N49 1.325 . S
C47 C50 1.357 . S
C48 H16 0.928 . S
C48 C46 1.406 . S
C48 N49 1.261 . S
N49 Co0 2.214 . S
N49 C47 1.325 . S
N49 C48 1.261 . S
C50 H20 0.931 . S
C50 C47 1.357 . S
C50 C51 1.312 . S
C51 H22 0.930 1_455 S
C51 C46 1.261 . S
C51 C50 1.312 . S
C52 O24 1.214 . S
C52 O32 1.234 . S
C53 H25 0.929 . S
C53 C56 1.391 1_545 S
C53 C58 1.391 . S
C54 H26 0.929 . S
C54 C55 1.390 . S
C54 N57 1.391 1_565 S
C55 H27 0.930 . S
C55 C54 1.390 . S
C55 C56 1.392 . S
C56 H28 0.929 . S
C56 C53 1.391 1_565 S
C56 C55 1.392 . S
N57 Co1 2.257 . S
N57 C54 1.391 1_545 S
N57 C58 1.388 . S
C58 H29 0.930 . S
C58 C53 1.391 . S
C58 N57 1.388 . S
Co59 O61 2.143 . S
Co59 O67 2.074 . S
Co59 O70 2.093 . S
Co59 O83 2.097 . S
Co59 N100 2.151 . S
Co59 N108 2.214 . S
Co60 O61 2.160 . S
Co60 O66 2.058 . S
Co60 O76 2.057 . S
Co60 O91 2.037 . S
Co60 N95 2.145 . S
Co60 N116 2.257 . S
O61 Co59 2.143 . S
O61 Co60 2.160 . S
C62 O63 1.278 . S
C62 O70 1.224 . S
O63 C62 1.278 . S
C64 O65 1.245 . S
C64 O76 1.232 . S
O65 C64 1.245 . S
O66 Co60 2.058 . S
O66 C92 1.269 . S
O67 Co59 2.074 . S
O67 C92 1.257 . S
H68 C93 0.930 . S
H69 C99 0.930 . S
O70 Co59 2.093 . S
O70 C62 1.224 . S
H71 C103 0.929 . S
H72 C105 0.930 . S
H73 C106 0.930 . S
H74 C104 0.929 . S
H75 C107 0.928 . S
O76 Co60 2.057 . S
O76 C64 1.232 . S
H77 C96 0.929 . S
H78 C97 0.929 . S
H79 C109 0.931 . S
H80 C101 0.929 . S
H81 C110 0.930 . S
H82 C102 0.931 . S
O83 Co59 2.097 . S
O83 C111 1.214 . S
H84 C112 0.929 . S
H85 C113 0.929 . S
H86 C114 0.930 . S
H87 C115 0.929 . S
H88 C117 0.930 . S
H89 C94 0.930 . S
H90 C98 0.930 . S
O91 Co60 2.037 . S
O91 C111 1.234 . S
C92 O66 1.269 . S
C92 O67 1.257 . S
C93 H68 0.930 . S
C93 C96 1.388 1_455 S
C93 C98 1.418 . S
C94 H89 0.930 . S
C94 C97 1.404 1_455 S
C94 C98 1.353 . S
N95 Co60 2.145 . S
N95 C96 1.397 . S
N95 C97 1.334 . S
C96 H77 0.929 . S
C96 C93 1.388 1_655 S
C96 N95 1.397 . S
C97 H78 0.929 . S
C97 C94 1.404 1_655 S
C97 N95 1.334 . S
C98 H90 0.930 . S
C98 C93 1.418 . S
C98 C94 1.353 . S
C99 H69 0.930 . S
C99 N100 1.330 . S
C99 C101 1.446 . S
N100 Co59 2.151 . S
N100 C99 1.330 . S
N100 C104 1.418 . S
C101 H80 0.929 . S
C101 C99 1.446 . S
C101 C102 1.332 . S
C102 H82 0.931 . S
C102 C101 1.332 . S
C102 C103 1.267 . S
C103 H71 0.929 . S
C103 C102 1.267 . S
C103 C104 1.251 . S
C104 H74 0.929 . S
C104 N100 1.418 . S
C104 C103 1.251 . S
C105 H72 0.930 . S
C105 C107 1.406 . S
C105 C110 1.261 . S
C106 H73 0.930 . S
C106 N108 1.325 . S
C106 C109 1.357 . S
C107 H75 0.928 . S
C107 C105 1.406 . S
C107 N108 1.261 . S
N108 Co59 2.214 . S
N108 C106 1.325 . S
N108 C107 1.261 . S
C109 H79 0.931 . S
C109 C106 1.357 . S
C109 C110 1.312 . S
C110 H81 0.930 . S
C110 C105 1.261 . S
C110 C109 1.312 . S
C111 O83 1.214 . S
C111 O91 1.234 . S
C112 H84 0.929 . S
C112 C115 1.391 1_655 S
C112 C117 1.391 . S
C113 H85 0.929 . S
C113 C114 1.390 . S
C113 N116 1.391 1_455 S
C114 H86 0.930 . S
C114 C113 1.390 . S
C114 C115 1.392 . S
C115 H87 0.929 . S
C115 C112 1.391 1_455 S
C115 C114 1.392 . S
N116 Co60 2.257 . S
N116 C113 1.391 1_655 S
N116 C117 1.388 . S
C117 H88 0.930 . S
C117 C112 1.391 . S
C117 N116 1.388 . S
Co118 O120 2.143 . S
Co118 O126 2.074 . S
Co118 O129 2.093 . S
Co118 O142 2.097 . S
Co118 N159 2.151 . S
Co118 N167 2.214 . S
Co119 O120 2.160 . S
Co119 O125 2.058 . S
Co119 O135 2.057 . S
Co119 O150 2.037 . S
Co119 N154 2.145 . S
Co119 N175 2.257 . S
O120 Co118 2.143 . S
O120 Co119 2.160 . S
C121 O122 1.278 . S
C121 O129 1.224 . S
O122 C121 1.278 . S
C123 O124 1.245 . S
C123 O135 1.232 . S
O124 C123 1.245 . S
O125 Co119 2.058 . S
O125 C151 1.269 . S
O126 Co118 2.074 . S
O126 C151 1.257 . S
H127 C152 0.930 . S
H128 C158 0.930 . S
O129 Co118 2.093 . S
O129 C121 1.224 . S
H130 C162 0.929 . S
H131 C164 0.930 . S
H132 C165 0.930 . S
H133 C163 0.929 . S
H134 C166 0.928 . S
O135 Co119 2.057 . S
O135 C123 1.232 . S
H136 C155 0.929 . S
H137 C156 0.929 . S
H138 C168 0.931 . S
H139 C160 0.929 . S
H140 C169 0.930 . S
H141 C161 0.931 . S
O142 Co118 2.097 . S
O142 C170 1.214 . S
H143 C171 0.929 . S
H144 C172 0.929 . S
H145 C173 0.930 . S
H146 C174 0.929 . S
H147 C176 0.930 . S
H148 C153 0.930 . S
H149 C157 0.930 . S
O150 Co119 2.037 . S
O150 C170 1.234 . S
C151 O125 1.269 . S
C151 O126 1.257 . S
C152 H127 0.930 . S
C152 C155 1.388 . S
C152 C157 1.418 . S
C153 H148 0.930 . S
C153 C156 1.404 . S
C153 C157 1.353 . S
N154 Co119 2.145 . S
N154 C155 1.397 . S
N154 C156 1.334 . S
C155 H136 0.929 . S
C155 C152 1.388 . S
C155 N154 1.397 . S
C156 H137 0.929 . S
C156 C153 1.404 . S
C156 N154 1.334 . S
C157 H149 0.930 . S
C157 C152 1.418 . S
C157 C153 1.353 . S
C158 H128 0.930 . S
C158 N159 1.330 . S
C158 C160 1.446 . S
N159 Co118 2.151 . S
N159 C158 1.330 . S
N159 C163 1.418 . S
C160 H139 0.929 . S
C160 C158 1.446 . S
C160 C161 1.332 . S
C161 H141 0.931 . S
C161 C160 1.332 . S
C161 C162 1.267 . S
C162 H130 0.929 . S
C162 C161 1.267 . S
C162 C163 1.251 . S
C163 H133 0.929 . S
C163 N159 1.418 . S
C163 C162 1.251 . S
C164 H131 0.930 . S
C164 C166 1.406 . S
C164 C169 1.261 . S
C165 H132 0.930 . S
C165 N167 1.325 . S
C165 C168 1.357 . S
C166 H134 0.928 . S
C166 C164 1.406 . S
C166 N167 1.261 . S
N167 Co118 2.214 . S
N167 C165 1.325 . S
N167 C166 1.261 . S
C168 H138 0.931 . S
C168 C165 1.357 . S
C168 C169 1.312 . S
C169 H140 0.930 . S
C169 C164 1.261 . S
C169 C168 1.312 . S
C170 O142 1.214 . S
C170 O150 1.234 . S
C171 H143 0.929 . S
C171 C174 1.391 . S
C171 C176 1.391 . S
C172 H144 0.929 . S
C172 C173 1.390 . S
C172 N175 1.391 . S
C173 H145 0.930 . S
C173 C172 1.390 . S
C173 C174 1.392 . S
C174 H146 0.929 . S
C174 C171 1.391 . S
C174 C173 1.392 . S
N175 Co119 2.257 . S
N175 C172 1.391 . S
N175 C176 1.388 . S
C176 H147 0.930 . S
C176 C171 1.391 . S
C176 N175 1.388 . S
Co177 O179 2.143 . S
Co177 O185 2.074 . S
Co177 O188 2.093 1_554 S
Co177 O201 2.097 . S
Co177 N218 2.151 . S
Co177 N226 2.214 . S
Co178 O179 2.160 . S
Co178 O184 2.058 . S
Co178 O194 2.057 . S
Co178 O209 2.037 . S
Co178 N213 2.145 . S
Co178 N234 2.257 . S
O179 Co177 2.143 . S
O179 Co178 2.160 . S
C180 O181 1.278 . S
C180 O188 1.224 . S
O181 C180 1.278 . S
C182 O183 1.245 . S
C182 O194 1.232 . S
O183 C182 1.245 . S
O184 Co178 2.058 . S
O184 C210 1.269 . S
O185 Co177 2.074 . S
O185 C210 1.257 . S
H186 C211 0.930 . S
H187 C217 0.930 . S
O188 Co177 2.093 1_556 S
O188 C180 1.224 . S
H189 C221 0.929 . S
H190 C223 0.930 . S
H191 C224 0.930 . S
H192 C222 0.929 . S
H193 C225 0.928 . S
O194 Co178 2.057 . S
O194 C182 1.232 . S
H195 C214 0.929 . S
H196 C215 0.929 . S
H197 C227 0.931 . S
H198 C219 0.929 . S
H199 C228 0.930 1_545 S
H200 C220 0.931 . S
O201 Co177 2.097 . S
O201 C229 1.214 . S
H202 C230 0.929 . S
H203 C231 0.929 . S
H204 C232 0.930 . S
H205 C233 0.929 . S
H206 C235 0.930 . S
H207 C212 0.930 . S
H208 C216 0.930 . S
O209 Co178 2.037 . S
O209 C229 1.234 . S
C210 O184 1.269 . S
C210 O185 1.257 . S
C211 H186 0.930 . S
C211 C214 1.388 . S
C211 C216 1.418 . S
C212 H207 0.930 . S
C212 C215 1.404 . S
C212 C216 1.353 . S
N213 Co178 2.145 . S
N213 C214 1.397 . S
N213 C215 1.334 . S
C214 H195 0.929 . S
C214 C211 1.388 . S
C214 N213 1.397 . S
C215 H196 0.929 . S
C215 C212 1.404 . S
C215 N213 1.334 . S
C216 H208 0.930 . S
C216 C211 1.418 . S
C216 C212 1.353 . S
C217 H187 0.930 . S
C217 N218 1.330 . S
C217 C219 1.446 . S
N218 Co177 2.151 . S
N218 C217 1.330 . S
N218 C222 1.418 . S
C219 H198 0.929 . S
C219 C217 1.446 . S
C219 C220 1.332 . S
C220 H200 0.931 . S
C220 C219 1.332 . S
C220 C221 1.267 . S
C221 H189 0.929 . S
C221 C220 1.267 . S
C221 C222 1.251 . S
C222 H192 0.929 . S
C222 N218 1.418 . S
C222 C221 1.251 . S
C223 H190 0.930 . S
C223 C225 1.406 . S
C223 C228 1.261 . S
C224 H191 0.930 . S
C224 N226 1.325 . S
C224 C227 1.357 . S
C225 H193 0.928 . S
C225 C223 1.406 . S
C225 N226 1.261 . S
N226 Co177 2.214 . S
N226 C224 1.325 . S
N226 C225 1.261 . S
C227 H197 0.931 . S
C227 C224 1.357 . S
C227 C228 1.312 . S
C228 H199 0.930 1_565 S
C228 C223 1.261 . S
C228 C227 1.312 . S
C229 O201 1.214 . S
C229 O209 1.234 . S
C230 H202 0.929 . S
C230 C233 1.391 . S
C230 C235 1.391 1_556 S
C231 H203 0.929 . S
C231 C232 1.390 . S
C231 N234 1.391 . S
C232 H204 0.930 . S
C232 C231 1.390 . S
C232 C233 1.392 1_554 S
C233 H205 0.929 . S
C233 C230 1.391 . S
C233 C232 1.392 1_556 S
N234 Co178 2.257 . S
N234 C231 1.391 . S
N234 C235 1.388 . S
C235 H206 0.930 . S
C235 C230 1.391 1_554 S
C235 N234 1.388 . S
Co236 O238 2.143 . S
Co236 O244 2.074 1_554 S
Co236 O247 2.093 . S
Co236 O260 2.097 . S
Co236 N277 2.151 . S
Co236 N285 2.214 . S
Co237 O238 2.160 1_556 S
Co237 O243 2.058 . S
Co237 O253 2.057 . S
Co237 O268 2.037 . S
Co237 N272 2.145 . S
Co237 N293 2.257 1_556 S
O238 Co236 2.143 . S
O238 Co237 2.160 1_554 S
C239 O240 1.278 . S
C239 O247 1.224 . S
O240 C239 1.278 . S
C241 O242 1.245 1_556 S
C241 O253 1.232 . S
O242 C241 1.245 1_554 S
O243 Co237 2.058 . S
O243 C269 1.269 . S
O244 Co236 2.074 1_556 S
O244 C269 1.257 . S
H245 C270 0.930 . S
H246 C276 0.930 . S
O247 Co236 2.093 . S
O247 C239 1.224 . S
H248 C280 0.929 . S
H249 C282 0.930 . S
H250 C283 0.930 1_556 S
H251 C281 0.929 . S
H252 C284 0.928 . S
O253 Co237 2.057 . S
O253 C241 1.232 . S
H254 C273 0.929 . S
H255 C274 0.929 . S
H256 C286 0.931 . S
H257 C278 0.929 . S
H258 C287 0.930 1_655 S
H259 C279 0.931 . S
O260 Co236 2.097 . S
O260 C288 1.214 . S
H261 C289 0.929 . S
H262 C290 0.929 . S
H263 C291 0.930 . S
H264 C292 0.929 . S
H265 C294 0.930 . S
H266 C271 0.930 . S
H267 C275 0.930 . S
O268 Co237 2.037 . S
O268 C288 1.234 1_556 S
C269 O243 1.269 . S
C269 O244 1.257 . S
C270 H245 0.930 . S
C270 C273 1.388 . S
C270 C275 1.418 . S
C271 H266 0.930 . S
C271 C274 1.404 . S
C271 C275 1.353 . S
N272 Co237 2.145 . S
N272 C273 1.397 . S
N272 C274 1.334 . S
C273 H254 0.929 . S
C273 C270 1.388 . S
C273 N272 1.397 . S
C274 H255 0.929 . S
C274 C271 1.404 . S
C274 N272 1.334 . S
C275 H267 0.930 . S
C275 C270 1.418 . S
C275 C271 1.353 . S
C276 H246 0.930 . S
C276 N277 1.330 . S
C276 C278 1.446 . S
N277 Co236 2.151 . S
N277 C276 1.330 . S
N277 C281 1.418 1_554 S
C278 H257 0.929 . S
C278 C276 1.446 . S
C278 C279 1.332 . S
C279 H259 0.931 . S
C279 C278 1.332 . S
C279 C280 1.267 1_554 S
C280 H248 0.929 . S
C280 C279 1.267 1_556 S
C280 C281 1.251 . S
C281 H251 0.929 . S
C281 N277 1.418 1_556 S
C281 C280 1.251 . S
C282 H249 0.930 . S
C282 C284 1.406 . S
C282 C287 1.261 . S
C283 H250 0.930 1_554 S
C283 N285 1.325 . S
C283 C286 1.357 1_554 S
C284 H252 0.928 . S
C284 C282 1.406 . S
C284 N285 1.261 . S
N285 Co236 2.214 . S
N285 C283 1.325 . S
N285 C284 1.261 . S
C286 H256 0.931 . S
C286 C283 1.357 1_556 S
C286 C287 1.312 1_556 S
C287 H258 0.930 1_455 S
C287 C282 1.261 . S
C287 C286 1.312 1_554 S
C288 O260 1.214 . S
C288 O268 1.234 1_554 S
C289 H261 0.929 . S
C289 C292 1.391 . S
C289 C294 1.391 . S
C290 H262 0.929 . S
C290 C291 1.390 . S
C290 N293 1.391 . S
C291 H263 0.930 . S
C291 C290 1.390 . S
C291 C292 1.392 . S
C292 H264 0.929 . S
C292 C289 1.391 . S
C292 C291 1.392 . S
N293 Co237 2.257 1_554 S
N293 C290 1.391 . S
N293 C294 1.388 . S
C294 H265 0.930 . S
C294 C289 1.391 . S
C294 N293 1.388 . S
Co295 O297 2.143 . S
Co295 O303 2.074 . S
Co295 O306 2.093 . S
Co295 O319 2.097 . S
Co295 N336 2.151 . S
Co295 N344 2.214 . S
Co296 O297 2.160 . S
Co296 O302 2.058 . S
Co296 O312 2.057 . S
Co296 O327 2.037 . S
Co296 N331 2.145 . S
Co296 N352 2.257 . S
O297 Co295 2.143 . S
O297 Co296 2.160 . S
C298 O299 1.278 . S
C298 O306 1.224 . S
O299 C298 1.278 . S
C300 O301 1.245 . S
C300 O312 1.232 . S
O301 C300 1.245 . S
O302 Co296 2.058 . S
O302 C328 1.269 . S
O303 Co295 2.074 . S
O303 C328 1.257 . S
H304 C329 0.930 . S
H305 C335 0.930 . S
O306 Co295 2.093 . S
O306 C298 1.224 . S
H307 C339 0.929 . S
H308 C341 0.930 . S
H309 C342 0.930 . S
H310 C340 0.929 . S
H311 C343 0.928 . S
O312 Co296 2.057 . S
O312 C300 1.232 . S
H313 C332 0.929 . S
H314 C333 0.929 . S
H315 C345 0.931 . S
H316 C337 0.929 . S
H317 C346 0.930 . S
H318 C338 0.931 . S
O319 Co295 2.097 . S
O319 C347 1.214 . S
H320 C348 0.929 . S
H321 C349 0.929 . S
H322 C350 0.930 . S
H323 C351 0.929 . S
H324 C353 0.930 . S
H325 C330 0.930 . S
H326 C334 0.930 . S
O327 Co296 2.037 . S
O327 C347 1.234 . S
C328 O302 1.269 . S
C328 O303 1.257 . S
C329 H304 0.930 . S
C329 C332 1.388 . S
C329 C334 1.418 . S
C330 H325 0.930 . S
C330 C333 1.404 . S
C330 C334 1.353 . S
N331 Co296 2.145 . S
N331 C332 1.397 . S
N331 C333 1.334 . S
C332 H313 0.929 . S
C332 C329 1.388 . S
C332 N331 1.397 . S
C333 H314 0.929 . S
C333 C330 1.404 . S
C333 N331 1.334 . S
C334 H326 0.930 . S
C334 C329 1.418 . S
C334 C330 1.353 . S
C335 H305 0.930 . S
C335 N336 1.330 . S
C335 C337 1.446 . S
N336 Co295 2.151 . S
N336 C335 1.330 . S
N336 C340 1.418 . S
C337 H316 0.929 . S
C337 C335 1.446 . S
C337 C338 1.332 . S
C338 H318 0.931 . S
C338 C337 1.332 . S
C338 C339 1.267 . S
C339 H307 0.929 . S
C339 C338 1.267 . S
C339 C340 1.251 . S
C340 H310 0.929 . S
C340 N336 1.418 . S
C340 C339 1.251 . S
C341 H308 0.930 . S
C341 C343 1.406 . S
C341 C346 1.261 . S
C342 H309 0.930 . S
C342 N344 1.325 . S
C342 C345 1.357 . S
C343 H311 0.928 . S
C343 C341 1.406 . S
C343 N344 1.261 . S
N344 Co295 2.214 . S
N344 C342 1.325 . S
N344 C343 1.261 . S
C345 H315 0.931 . S
C345 C342 1.357 . S
C345 C346 1.312 . S
C346 H317 0.930 . S
C346 C341 1.261 . S
C346 C345 1.312 . S
C347 O319 1.214 . S
C347 O327 1.234 . S
C348 H320 0.929 . S
C348 C351 1.391 . S
C348 C353 1.391 . S
C349 H321 0.929 . S
C349 C350 1.390 . S
C349 N352 1.391 . S
C350 H322 0.930 . S
C350 C349 1.390 . S
C350 C351 1.392 . S
C351 H323 0.929 . S
C351 C348 1.391 . S
C351 C350 1.392 . S
N352 Co296 2.257 . S
N352 C349 1.391 . S
N352 C353 1.388 . S
C353 H324 0.930 . S
C353 C348 1.391 . S
C353 N352 1.388 . S
Co354 O356 2.143 . S
Co354 O362 2.074 . S
Co354 O365 2.093 . S
Co354 O378 2.097 . S
Co354 N395 2.151 . S
Co354 N403 2.214 . S
Co355 O356 2.160 . S
Co355 O361 2.058 . S
Co355 O371 2.057 . S
Co355 O386 2.037 . S
Co355 N390 2.145 . S
Co355 N411 2.257 . S
O356 Co354 2.143 . S
O356 Co355 2.160 . S
C357 O358 1.278 . S
C357 O365 1.224 . S
O358 C357 1.278 . S
C359 O360 1.245 . S
C359 O371 1.232 . S
O360 C359 1.245 . S
O361 Co355 2.058 . S
O361 C387 1.269 . S
O362 Co354 2.074 . S
O362 C387 1.257 . S
H363 C388 0.930 . S
H364 C394 0.930 . S
O365 Co354 2.093 . S
O365 C357 1.224 . S
H366 C398 0.929 . S
H367 C400 0.930 . S
H368 C401 0.930 . S
H369 C399 0.929 . S
H370 C402 0.928 . S
O371 Co355 2.057 . S
O371 C359 1.232 . S
H372 C391 0.929 . S
H373 C392 0.929 . S
H374 C404 0.931 . S
H375 C396 0.929 . S
H376 C405 0.930 . S
H377 C397 0.931 . S
O378 Co354 2.097 . S
O378 C406 1.214 . S
H379 C407 0.929 . S
H380 C408 0.929 . S
H381 C409 0.930 . S
H382 C410 0.929 . S
H383 C412 0.930 . S
H384 C389 0.930 . S
H385 C393 0.930 . S
O386 Co355 2.037 . S
O386 C406 1.234 . S
C387 O361 1.269 . S
C387 O362 1.257 . S
C388 H363 0.930 . S
C388 C391 1.388 1_565 S
C388 C393 1.418 . S
C389 H384 0.930 . S
C389 C392 1.404 1_565 S
C389 C393 1.353 . S
N390 Co355 2.145 . S
N390 C391 1.397 . S
N390 C392 1.334 . S
C391 H372 0.929 . S
C391 C388 1.388 1_545 S
C391 N390 1.397 . S
C392 H373 0.929 . S
C392 C389 1.404 1_545 S
C392 N390 1.334 . S
C393 H385 0.930 . S
C393 C388 1.418 . S
C393 C389 1.353 . S
C394 H364 0.930 . S
C394 N395 1.330 . S
C394 C396 1.446 . S
N395 Co354 2.151 . S
N395 C394 1.330 . S
N395 C399 1.418 . S
C396 H375 0.929 . S
C396 C394 1.446 . S
C396 C397 1.332 . S
C397 H377 0.931 . S
C397 C396 1.332 . S
C397 C398 1.267 . S
C398 H366 0.929 . S
C398 C397 1.267 . S
C398 C399 1.251 . S
C399 H369 0.929 . S
C399 N395 1.418 . S
C399 C398 1.251 . S
C400 H367 0.930 . S
C400 C402 1.406 . S
C400 C405 1.261 . S
C401 H368 0.930 . S
C401 N403 1.325 . S
C401 C404 1.357 . S
C402 H370 0.928 . S
C402 C400 1.406 . S
C402 N403 1.261 . S
N403 Co354 2.214 . S
N403 C401 1.325 . S
N403 C402 1.261 . S
C404 H374 0.931 . S
C404 C401 1.357 . S
C404 C405 1.312 . S
C405 H376 0.930 . S
C405 C400 1.261 . S
C405 C404 1.312 . S
C406 O378 1.214 . S
C406 O386 1.234 . S
C407 H379 0.929 . S
C407 C410 1.391 1_545 S
C407 C412 1.391 . S
C408 H380 0.929 . S
C408 C409 1.390 . S
C408 N411 1.391 1_565 S
C409 H381 0.930 . S
C409 C408 1.390 . S
C409 C410 1.392 . S
C410 H382 0.929 . S
C410 C407 1.391 1_565 S
C410 C409 1.392 . S
N411 Co355 2.257 . S
N411 C408 1.391 1_545 S
N411 C412 1.388 . S
C412 H383 0.930 . S
C412 C407 1.391 . S
C412 N411 1.388 . S
Co413 O415 2.143 . S
Co413 O421 2.074 . S
Co413 O424 2.093 . S
Co413 O437 2.097 . S
Co413 N454 2.151 . S
Co413 N462 2.214 . S
Co414 O415 2.160 . S
Co414 O420 2.058 . S
Co414 O430 2.057 . S
Co414 O445 2.037 . S
Co414 N449 2.145 . S
Co414 N470 2.257 . S
O415 Co413 2.143 . S
O415 Co414 2.160 . S
C416 O417 1.278 . S
C416 O424 1.224 . S
O417 C416 1.278 . S
C418 O419 1.245 . S
C418 O430 1.232 . S
O419 C418 1.245 . S
O420 Co414 2.058 . S
O420 C446 1.269 . S
O421 Co413 2.074 . S
O421 C446 1.257 . S
H422 C447 0.930 . S
H423 C453 0.930 . S
O424 Co413 2.093 . S
O424 C416 1.224 . S
H425 C457 0.929 . S
H426 C459 0.930 . S
H427 C460 0.930 . S
H428 C458 0.929 . S
H429 C461 0.928 . S
O430 Co414 2.057 . S
O430 C418 1.232 . S
H431 C450 0.929 . S
H432 C451 0.929 . S
H433 C463 0.931 . S
H434 C455 0.929 . S
H435 C464 0.930 1_545 S
H436 C456 0.931 . S
O437 Co413 2.097 . S
O437 C465 1.214 . S
H438 C466 0.929 . S
H439 C467 0.929 . S
H440 C468 0.930 . S
H441 C469 0.929 . S
H442 C471 0.930 . S
H443 C448 0.930 . S
H444 C452 0.930 . S
O445 Co414 2.037 . S
O445 C465 1.234 . S
C446 O420 1.269 . S
C446 O421 1.257 . S
C447 H422 0.930 . S
C447 C450 1.388 1_455 S
C447 C452 1.418 . S
C448 H443 0.930 . S
C448 C451 1.404 1_455 S
C448 C452 1.353 . S
N449 Co414 2.145 . S
N449 C450 1.397 . S
N449 C451 1.334 . S
C450 H431 0.929 . S
C450 C447 1.388 1_655 S
C450 N449 1.397 . S
C451 H432 0.929 . S
C451 C448 1.404 1_655 S
C451 N449 1.334 . S
C452 H444 0.930 . S
C452 C447 1.418 . S
C452 C448 1.353 . S
C453 H423 0.930 . S
C453 N454 1.330 . S
C453 C455 1.446 . S
N454 Co413 2.151 . S
N454 C453 1.330 . S
N454 C458 1.418 . S
C455 H434 0.929 . S
C455 C453 1.446 . S
C455 C456 1.332 . S
C456 H436 0.931 . S
C456 C455 1.332 . S
C456 C457 1.267 . S
C457 H425 0.929 . S
C457 C456 1.267 . S
C457 C458 1.251 . S
C458 H428 0.929 . S
C458 N454 1.418 . S
C458 C457 1.251 . S
C459 H426 0.930 . S
C459 C461 1.406 . S
C459 C464 1.261 . S
C460 H427 0.930 . S
C460 N462 1.325 . S
C460 C463 1.357 . S
C461 H429 0.928 . S
C461 C459 1.406 . S
C461 N462 1.261 . S
N462 Co413 2.214 . S
N462 C460 1.325 . S
N462 C461 1.261 . S
C463 H433 0.931 . S
C463 C460 1.357 . S
C463 C464 1.312 . S
C464 H435 0.930 1_565 S
C464 C459 1.261 . S
C464 C463 1.312 . S
C465 O437 1.214 . S
C465 O445 1.234 . S
C466 H438 0.929 . S
C466 C469 1.391 1_655 S
C466 C471 1.391 . S
C467 H439 0.929 . S
C467 C468 1.390 . S
C467 N470 1.391 1_455 S
C468 H440 0.930 . S
C468 C467 1.390 . S
C468 C469 1.392 . S
C469 H441 0.929 . S
C469 C466 1.391 1_455 S
C469 C468 1.392 . S
N470 Co414 2.257 . S
N470 C467 1.391 1_655 S
N470 C471 1.388 . S
C471 H442 0.930 . S
C471 C466 1.391 . S
C471 N470 1.388 . S
Co472 O474 2.143 . S
Co472 O480 2.074 . S
Co472 O483 2.093 . S
Co472 O496 2.097 . S
Co472 N513 2.151 . S
Co472 N521 2.214 . S
Co473 O474 2.160 . S
Co473 O479 2.058 . S
Co473 O489 2.057 . S
Co473 O504 2.037 . S
Co473 N508 2.145 . S
Co473 N529 2.257 . S
O474 Co472 2.143 . S
O474 Co473 2.160 . S
C475 O476 1.278 . S
C475 O483 1.224 . S
O476 C475 1.278 . S
C477 O478 1.245 . S
C477 O489 1.232 . S
O478 C477 1.245 . S
O479 Co473 2.058 . S
O479 C505 1.269 . S
O480 Co472 2.074 . S
O480 C505 1.257 . S
H481 C506 0.930 . S
H482 C512 0.930 . S
O483 Co472 2.093 . S
O483 C475 1.224 . S
H484 C516 0.929 . S
H485 C518 0.930 . S
H486 C519 0.930 . S
H487 C517 0.929 . S
H488 C520 0.928 . S
O489 Co473 2.057 . S
O489 C477 1.232 . S
H490 C509 0.929 . S
H491 C510 0.929 . S
H492 C522 0.931 . S
H493 C514 0.929 . S
H494 C523 0.930 . S
H495 C515 0.931 . S
O496 Co472 2.097 . S
O496 C524 1.214 . S
H497 C525 0.929 . S
H498 C526 0.929 . S
H499 C527 0.930 . S
H500 C528 0.929 . S
H501 C530 0.930 . S
H502 C507 0.930 . S
H503 C511 0.930 . S
O504 Co473 2.037 . S
O504 C524 1.234 . S
C505 O479 1.269 . S
C505 O480 1.257 . S
C506 H481 0.930 . S
C506 C509 1.388 . S
C506 C511 1.418 . S
C507 H502 0.930 . S
C507 C510 1.404 . S
C507 C511 1.353 . S
N508 Co473 2.145 . S
N508 C509 1.397 . S
N508 C510 1.334 . S
C509 H490 0.929 . S
C509 C506 1.388 . S
C509 N508 1.397 . S
C510 H491 0.929 . S
C510 C507 1.404 . S
C510 N508 1.334 . S
C511 H503 0.930 . S
C511 C506 1.418 . S
C511 C507 1.353 . S
C512 H482 0.930 . S
C512 N513 1.330 . S
C512 C514 1.446 . S
N513 Co472 2.151 . S
N513 C512 1.330 . S
N513 C517 1.418 . S
C514 H493 0.929 . S
C514 C512 1.446 . S
C514 C515 1.332 . S
C515 H495 0.931 . S
C515 C514 1.332 . S
C515 C516 1.267 . S
C516 H484 0.929 . S
C516 C515 1.267 . S
C516 C517 1.251 . S
C517 H487 0.929 . S
C517 N513 1.418 . S
C517 C516 1.251 . S
C518 H485 0.930 . S
C518 C520 1.406 . S
C518 C523 1.261 . S
C519 H486 0.930 . S
C519 N521 1.325 . S
C519 C522 1.357 . S
C520 H488 0.928 . S
C520 C518 1.406 . S
C520 N521 1.261 . S
N521 Co472 2.214 . S
N521 C519 1.325 . S
N521 C520 1.261 . S
C522 H492 0.931 . S
C522 C519 1.357 . S
C522 C523 1.312 . S
C523 H494 0.930 . S
C523 C518 1.261 . S
C523 C522 1.312 . S
C524 O496 1.214 . S
C524 O504 1.234 . S
C525 H497 0.929 . S
C525 C528 1.391 . S
C525 C530 1.391 . S
C526 H498 0.929 . S
C526 C527 1.390 . S
C526 N529 1.391 . S
C527 H499 0.930 . S
C527 C526 1.390 . S
C527 C528 1.392 . S
C528 H500 0.929 . S
C528 C525 1.391 . S
C528 C527 1.392 . S
N529 Co473 2.257 . S
N529 C526 1.391 . S
N529 C530 1.388 . S
C530 H501 0.930 . S
C530 C525 1.391 . S
C530 N529 1.388 . S
Co531 O533 2.143 . S
Co531 O539 2.074 . S
Co531 O542 2.093 1_554 S
Co531 O555 2.097 . S
Co531 N572 2.151 . S
Co531 N580 2.214 . S
Co532 O533 2.160 . S
Co532 O538 2.058 . S
Co532 O548 2.057 . S
Co532 O563 2.037 . S
Co532 N567 2.145 . S
Co532 N588 2.257 . S
O533 Co531 2.143 . S
O533 Co532 2.160 . S
C534 O535 1.278 . S
C534 O542 1.224 . S
O535 C534 1.278 . S
C536 O537 1.245 . S
C536 O548 1.232 . S
O537 C536 1.245 . S
O538 Co532 2.058 . S
O538 C564 1.269 . S
O539 Co531 2.074 . S
O539 C564 1.257 . S
H540 C565 0.930 . S
H541 C571 0.930 . S
O542 Co531 2.093 1_556 S
O542 C534 1.224 . S
H543 C575 0.929 . S
H544 C577 0.930 . S
H545 C578 0.930 . S
H546 C576 0.929 . S
H547 C579 0.928 . S
O548 Co532 2.057 . S
O548 C536 1.232 . S
H549 C568 0.929 . S
H550 C569 0.929 . S
H551 C581 0.931 . S
H552 C573 0.929 . S
H553 C582 0.930 1_565 S
H554 C574 0.931 . S
O555 Co531 2.097 . S
O555 C583 1.214 . S
H556 C584 0.929 . S
H557 C585 0.929 . S
H558 C586 0.930 . S
H559 C587 0.929 . S
H560 C589 0.930 . S
H561 C566 0.930 . S
H562 C570 0.930 . S
O563 Co532 2.037 . S
O563 C583 1.234 . S
C564 O538 1.269 . S
C564 O539 1.257 . S
C565 H540 0.930 . S
C565 C568 1.388 . S
C565 C570 1.418 . S
C566 H561 0.930 . S
C566 C569 1.404 . S
C566 C570 1.353 . S
N567 Co532 2.145 . S
N567 C568 1.397 . S
N567 C569 1.334 . S
C568 H549 0.929 . S
C568 C565 1.388 . S
C568 N567 1.397 . S
C569 H550 0.929 . S
C569 C566 1.404 . S
C569 N567 1.334 . S
C570 H562 0.930 . S
C570 C565 1.418 . S
C570 C566 1.353 . S
C571 H541 0.930 . S
C571 N572 1.330 . S
C571 C573 1.446 . S
N572 Co531 2.151 . S
N572 C571 1.330 . S
N572 C576 1.418 . S
C573 H552 0.929 . S
C573 C571 1.446 . S
C573 C574 1.332 . S
C574 H554 0.931 . S
C574 C573 1.332 . S
C574 C575 1.267 . S
C575 H543 0.929 . S
C575 C574 1.267 . S
C575 C576 1.251 . S
C576 H546 0.929 . S
C576 N572 1.418 . S
C576 C575 1.251 . S
C577 H544 0.930 . S
C577 C579 1.406 . S
C577 C582 1.261 . S
C578 H545 0.930 . S
C578 N580 1.325 . S
C578 C581 1.357 . S
C579 H547 0.928 . S
C579 C577 1.406 . S
C579 N580 1.261 . S
N580 Co531 2.214 . S
N580 C578 1.325 . S
N580 C579 1.261 . S
C581 H551 0.931 . S
C581 C578 1.357 . S
C581 C582 1.312 . S
C582 H553 0.930 1_545 S
C582 C577 1.261 . S
C582 C581 1.312 . S
C583 O555 1.214 . S
C583 O563 1.234 . S
C584 H556 0.929 . S
C584 C587 1.391 . S
C584 C589 1.391 1_556 S
C585 H557 0.929 . S
C585 C586 1.390 . S
C585 N588 1.391 . S
C586 H558 0.930 . S
C586 C585 1.390 . S
C586 C587 1.392 1_554 S
C587 H559 0.929 . S
C587 C584 1.391 . S
C587 C586 1.392 1_556 S
N588 Co532 2.257 . S
N588 C585 1.391 . S
N588 C589 1.388 . S
C589 H560 0.930 . S
C589 C584 1.391 1_554 S
C589 N588 1.388 . S
Co590 O592 2.143 . S
Co590 O598 2.074 . S
Co590 O601 2.093 . S
Co590 O614 2.097 . S
Co590 N631 2.151 . S
Co590 N639 2.214 . S
Co591 O592 2.160 . S
Co591 O597 2.058 . S
Co591 O607 2.057 . S
Co591 O622 2.037 . S
Co591 N626 2.145 . S
Co591 N647 2.257 . S
O592 Co590 2.143 . S
O592 Co591 2.160 . S
C593 O594 1.278 . S
C593 O601 1.224 . S
O594 C593 1.278 . S
C595 O596 1.245 . S
C595 O607 1.232 . S
O596 C595 1.245 . S
O597 Co591 2.058 . S
O597 C623 1.269 . S
O598 Co590 2.074 . S
O598 C623 1.257 . S
H599 C624 0.930 . S
H600 C630 0.930 . S
O601 Co590 2.093 . S
O601 C593 1.224 . S
H602 C634 0.929 . S
H603 C636 0.930 . S
H604 C637 0.930 . S
H605 C635 0.929 . S
H606 C638 0.928 . S
O607 Co591 2.057 . S
O607 C595 1.232 . S
H608 C627 0.929 . S
H609 C628 0.929 . S
H610 C640 0.931 . S
H611 C632 0.929 . S
H612 C641 0.930 1_455 S
H613 C633 0.931 . S
O614 Co590 2.097 . S
O614 C642 1.214 . S
H615 C643 0.929 . S
H616 C644 0.929 . S
H617 C645 0.930 . S
H618 C646 0.929 . S
H619 C648 0.930 . S
H620 C625 0.930 . S
H621 C629 0.930 . S
O622 Co591 2.037 . S
O622 C642 1.234 . S
C623 O597 1.269 . S
C623 O598 1.257 . S
C624 H599 0.930 . S
C624 C627 1.388 1_545 S
C624 C629 1.418 . S
C625 H620 0.930 . S
C625 C628 1.404 1_545 S
C625 C629 1.353 . S
N626 Co591 2.145 . S
N626 C627 1.397 . S
N626 C628 1.334 . S
C627 H608 0.929 . S
C627 C624 1.388 1_565 S
C627 N626 1.397 . S
C628 H609 0.929 . S
C628 C625 1.404 1_565 S
C628 N626 1.334 . S
C629 H621 0.930 . S
C629 C624 1.418 . S
C629 C625 1.353 . S
C630 H600 0.930 . S
C630 N631 1.330 . S
C630 C632 1.446 . S
N631 Co590 2.151 . S
N631 C630 1.330 . S
N631 C635 1.418 . S
C632 H611 0.929 . S
C632 C630 1.446 . S
C632 C633 1.332 . S
C633 H613 0.931 . S
C633 C632 1.332 . S
C633 C634 1.267 . S
C634 H602 0.929 . S
C634 C633 1.267 . S
C634 C635 1.251 . S
C635 H605 0.929 . S
C635 N631 1.418 . S
C635 C634 1.251 . S
C636 H603 0.930 . S
C636 C638 1.406 . S
C636 C641 1.261 . S
C637 H604 0.930 . S
C637 N639 1.325 . S
C637 C640 1.357 . S
C638 H606 0.928 . S
C638 C636 1.406 . S
C638 N639 1.261 . S
N639 Co590 2.214 . S
N639 C637 1.325 . S
N639 C638 1.261 . S
C640 H610 0.931 . S
C640 C637 1.357 . S
C640 C641 1.312 . S
C641 H612 0.930 1_655 S
C641 C636 1.261 . S
C641 C640 1.312 . S
C642 O614 1.214 . S
C642 O622 1.234 . S
C643 H615 0.929 . S
C643 C646 1.391 1_565 S
C643 C648 1.391 . S
C644 H616 0.929 . S
C644 C645 1.390 . S
C644 N647 1.391 1_545 S
C645 H617 0.930 . S
C645 C644 1.390 . S
C645 C646 1.392 . S
C646 H618 0.929 . S
C646 C643 1.391 1_545 S
C646 C645 1.392 . S
N647 Co591 2.257 . S
N647 C644 1.391 1_565 S
N647 C648 1.388 . S
C648 H619 0.930 . S
C648 C643 1.391 . S
C648 N647 1.388 . S
Co649 O651 2.143 . S
Co649 O657 2.074 . S
Co649 O660 2.093 . S
Co649 O673 2.097 . S
Co649 N690 2.151 . S
Co649 N698 2.214 . S
Co650 O651 2.160 . S
Co650 O656 2.058 . S
Co650 O666 2.057 . S
Co650 O681 2.037 . S
Co650 N685 2.145 . S
Co650 N706 2.257 . S
O651 Co649 2.143 . S
O651 Co650 2.160 . S
C652 O653 1.278 . S
C652 O660 1.224 . S
O653 C652 1.278 . S
C654 O655 1.245 . S
C654 O666 1.232 . S
O655 C654 1.245 . S
O656 Co650 2.058 . S
O656 C682 1.269 . S
O657 Co649 2.074 . S
O657 C682 1.257 . S
H658 C683 0.930 . S
H659 C689 0.930 . S
O660 Co649 2.093 . S
O660 C652 1.224 . S
H661 C693 0.929 . S
H662 C695 0.930 . S
H663 C696 0.930 . S
H664 C694 0.929 . S
H665 C697 0.928 . S
O666 Co650 2.057 . S
O666 C654 1.232 . S
H667 C686 0.929 . S
H668 C687 0.929 . S
H669 C699 0.931 . S
H670 C691 0.929 . S
H671 C700 0.930 . S
H672 C692 0.931 . S
O673 Co649 2.097 . S
O673 C701 1.214 . S
H674 C702 0.929 . S
H675 C703 0.929 . S
H676 C704 0.930 . S
H677 C705 0.929 . S
H678 C707 0.930 . S
H679 C684 0.930 . S
H680 C688 0.930 . S
O681 Co650 2.037 . S
O681 C701 1.234 . S
C682 O656 1.269 . S
C682 O657 1.257 . S
C683 H658 0.930 . S
C683 C686 1.388 1_655 S
C683 C688 1.418 . S
C684 H679 0.930 . S
C684 C687 1.404 1_655 S
C684 C688 1.353 . S
N685 Co650 2.145 . S
N685 C686 1.397 . S
N685 C687 1.334 . S
C686 H667 0.929 . S
C686 C683 1.388 1_455 S
C686 N685 1.397 . S
C687 H668 0.929 . S
C687 C684 1.404 1_455 S
C687 N685 1.334 . S
C688 H680 0.930 . S
C688 C683 1.418 . S
C688 C684 1.353 . S
C689 H659 0.930 . S
C689 N690 1.330 . S
C689 C691 1.446 . S
N690 Co649 2.151 . S
N690 C689 1.330 . S
N690 C694 1.418 . S
C691 H670 0.929 . S
C691 C689 1.446 . S
C691 C692 1.332 . S
C692 H672 0.931 . S
C692 C691 1.332 . S
C692 C693 1.267 . S
C693 H661 0.929 . S
C693 C692 1.267 . S
C693 C694 1.251 . S
C694 H664 0.929 . S
C694 N690 1.418 . S
C694 C693 1.251 . S
C695 H662 0.930 . S
C695 C697 1.406 . S
C695 C700 1.261 . S
C696 H663 0.930 . S
C696 N698 1.325 . S
C696 C699 1.357 . S
C697 H665 0.928 . S
C697 C695 1.406 . S
C697 N698 1.261 . S
N698 Co649 2.214 . S
N698 C696 1.325 . S
N698 C697 1.261 . S
C699 H669 0.931 . S
C699 C696 1.357 . S
C699 C700 1.312 . S
C700 H671 0.930 . S
C700 C695 1.261 . S
C700 C699 1.312 . S
C701 O673 1.214 . S
C701 O681 1.234 . S
C702 H674 0.929 . S
C702 C705 1.391 1_455 S
C702 C707 1.391 . S
C703 H675 0.929 . S
C703 C704 1.390 . S
C703 N706 1.391 1_655 S
C704 H676 0.930 . S
C704 C703 1.390 . S
C704 C705 1.392 . S
C705 H677 0.929 . S
C705 C702 1.391 1_655 S
C705 C704 1.392 . S
N706 Co650 2.257 . S
N706 C703 1.391 1_455 S
N706 C707 1.388 . S
C707 H678 0.930 . S
C707 C702 1.391 . S
C707 N706 1.388 . S
Co708 O710 2.143 . S
Co708 O716 2.074 . S
Co708 O719 2.093 . S
Co708 O732 2.097 . S
Co708 N749 2.151 . S
Co708 N757 2.214 . S
Co709 O710 2.160 . S
Co709 O715 2.058 . S
Co709 O725 2.057 . S
Co709 O740 2.037 . S
Co709 N744 2.145 . S
Co709 N765 2.257 . S
O710 Co708 2.143 . S
O710 Co709 2.160 . S
C711 O712 1.278 . S
C711 O719 1.224 . S
O712 C711 1.278 . S
C713 O714 1.245 . S
C713 O725 1.232 . S
O714 C713 1.245 . S
O715 Co709 2.058 . S
O715 C741 1.269 . S
O716 Co708 2.074 . S
O716 C741 1.257 . S
H717 C742 0.930 . S
H718 C748 0.930 . S
O719 Co708 2.093 . S
O719 C711 1.224 . S
H720 C752 0.929 . S
H721 C754 0.930 . S
H722 C755 0.930 . S
H723 C753 0.929 . S
H724 C756 0.928 . S
O725 Co709 2.057 . S
O725 C713 1.232 . S
H726 C745 0.929 . S
H727 C746 0.929 . S
H728 C758 0.931 . S
H729 C750 0.929 . S
H730 C759 0.930 . S
H731 C751 0.931 . S
O732 Co708 2.097 . S
O732 C760 1.214 . S
H733 C761 0.929 . S
H734 C762 0.929 . S
H735 C763 0.930 . S
H736 C764 0.929 . S
H737 C766 0.930 . S
H738 C743 0.930 . S
H739 C747 0.930 . S
O740 Co709 2.037 . S
O740 C760 1.234 . S
C741 O715 1.269 . S
C741 O716 1.257 . S
C742 H717 0.930 . S
C742 C745 1.388 1_545 S
C742 C747 1.418 . S
C743 H738 0.930 . S
C743 C746 1.404 1_545 S
C743 C747 1.353 . S
N744 Co709 2.145 . S
N744 C745 1.397 . S
N744 C746 1.334 . S
C745 H726 0.929 . S
C745 C742 1.388 1_565 S
C745 N744 1.397 . S
C746 H727 0.929 . S
C746 C743 1.404 1_565 S
C746 N744 1.334 . S
C747 H739 0.930 . S
C747 C742 1.418 . S
C747 C743 1.353 . S
C748 H718 0.930 . S
C748 N749 1.330 . S
C748 C750 1.446 . S
N749 Co708 2.151 . S
N749 C748 1.330 . S
N749 C753 1.418 . S
C750 H729 0.929 . S
C750 C748 1.446 . S
C750 C751 1.332 . S
C751 H731 0.931 . S
C751 C750 1.332 . S
C751 C752 1.267 . S
C752 H720 0.929 . S
C752 C751 1.267 . S
C752 C753 1.251 . S
C753 H723 0.929 . S
C753 N749 1.418 . S
C753 C752 1.251 . S
C754 H721 0.930 . S
C754 C756 1.406 . S
C754 C759 1.261 . S
C755 H722 0.930 . S
C755 N757 1.325 . S
C755 C758 1.357 . S
C756 H724 0.928 . S
C756 C754 1.406 . S
C756 N757 1.261 . S
N757 Co708 2.214 . S
N757 C755 1.325 . S
N757 C756 1.261 . S
C758 H728 0.931 . S
C758 C755 1.357 . S
C758 C759 1.312 . S
C759 H730 0.930 . S
C759 C754 1.261 . S
C759 C758 1.312 . S
C760 O732 1.214 . S
C760 O740 1.234 . S
C761 H733 0.929 . S
C761 C764 1.391 1_565 S
C761 C766 1.391 . S
C762 H734 0.929 . S
C762 C763 1.390 . S
C762 N765 1.391 1_545 S
C763 H735 0.930 . S
C763 C762 1.390 . S
C763 C764 1.392 . S
C764 H736 0.929 . S
C764 C761 1.391 1_545 S
C764 C763 1.392 . S
N765 Co709 2.257 . S
N765 C762 1.391 1_565 S
N765 C766 1.388 . S
C766 H737 0.930 . S
C766 C761 1.391 . S
C766 N765 1.388 . S
Co767 O769 2.143 . S
Co767 O775 2.074 . S
Co767 O778 2.093 . S
Co767 O791 2.097 . S
Co767 N808 2.151 . S
Co767 N816 2.214 . S
Co768 O769 2.160 . S
Co768 O774 2.058 . S
Co768 O784 2.057 . S
Co768 O799 2.037 . S
Co768 N803 2.145 . S
Co768 N824 2.257 . S
O769 Co767 2.143 . S
O769 Co768 2.160 . S
C770 O771 1.278 . S
C770 O778 1.224 . S
O771 C770 1.278 . S
C772 O773 1.245 . S
C772 O784 1.232 . S
O773 C772 1.245 . S
O774 Co768 2.058 . S
O774 C800 1.269 . S
O775 Co767 2.074 . S
O775 C800 1.257 . S
H776 C801 0.930 . S
H777 C807 0.930 . S
O778 Co767 2.093 . S
O778 C770 1.224 . S
H779 C811 0.929 . S
H780 C813 0.930 . S
H781 C814 0.930 . S
H782 C812 0.929 . S
H783 C815 0.928 . S
O784 Co768 2.057 . S
O784 C772 1.232 . S
H785 C804 0.929 . S
H786 C805 0.929 . S
H787 C817 0.931 . S
H788 C809 0.929 . S
H789 C818 0.930 1_565 S
H790 C810 0.931 . S
O791 Co767 2.097 . S
O791 C819 1.214 . S
H792 C820 0.929 . S
H793 C821 0.929 . S
H794 C822 0.930 . S
H795 C823 0.929 . S
H796 C825 0.930 . S
H797 C802 0.930 . S
H798 C806 0.930 . S
O799 Co768 2.037 . S
O799 C819 1.234 . S
C800 O774 1.269 . S
C800 O775 1.257 . S
C801 H776 0.930 . S
C801 C804 1.388 1_655 S
C801 C806 1.418 . S
C802 H797 0.930 . S
C802 C805 1.404 1_655 S
C802 C806 1.353 . S
N803 Co768 2.145 . S
N803 C804 1.397 . S
N803 C805 1.334 . S
C804 H785 0.929 . S
C804 C801 1.388 1_455 S
C804 N803 1.397 . S
C805 H786 0.929 . S
C805 C802 1.404 1_455 S
C805 N803 1.334 . S
C806 H798 0.930 . S
C806 C801 1.418 . S
C806 C802 1.353 . S
C807 H777 0.930 . S
C807 N808 1.330 . S
C807 C809 1.446 . S
N808 Co767 2.151 . S
N808 C807 1.330 . S
N808 C812 1.418 . S
C809 H788 0.929 . S
C809 C807 1.446 . S
C809 C810 1.332 . S
C810 H790 0.931 . S
C810 C809 1.332 . S
C810 C811 1.267 . S
C811 H779 0.929 . S
C811 C810 1.267 . S
C811 C812 1.251 . S
C812 H782 0.929 . S
C812 N808 1.418 . S
C812 C811 1.251 . S
C813 H780 0.930 . S
C813 C815 1.406 . S
C813 C818 1.261 . S
C814 H781 0.930 . S
C814 N816 1.325 . S
C814 C817 1.357 . S
C815 H783 0.928 . S
C815 C813 1.406 . S
C815 N816 1.261 . S
N816 Co767 2.214 . S
N816 C814 1.325 . S
N816 C815 1.261 . S
C817 H787 0.931 . S
C817 C814 1.357 . S
C817 C818 1.312 . S
C818 H789 0.930 1_545 S
C818 C813 1.261 . S
C818 C817 1.312 . S
C819 O791 1.214 . S
C819 O799 1.234 . S
C820 H792 0.929 . S
C820 C823 1.391 1_455 S
C820 C825 1.391 . S
C821 H793 0.929 . S
C821 C822 1.390 . S
C821 N824 1.391 1_655 S
C822 H794 0.930 . S
C822 C821 1.390 . S
C822 C823 1.392 . S
C823 H795 0.929 . S
C823 C820 1.391 1_655 S
C823 C822 1.392 . S
N824 Co768 2.257 . S
N824 C821 1.391 1_455 S
N824 C825 1.388 . S
C825 H796 0.930 . S
C825 C820 1.391 . S
C825 N824 1.388 . S
Co826 O828 2.143 . S
Co826 O834 2.074 1_554 S
Co826 O837 2.093 . S
Co826 O850 2.097 . S
Co826 N867 2.151 . S
Co826 N875 2.214 . S
Co827 O828 2.160 1_556 S
Co827 O833 2.058 . S
Co827 O843 2.057 . S
Co827 O858 2.037 . S
Co827 N862 2.145 . S
Co827 N883 2.257 1_556 S
O828 Co826 2.143 . S
O828 Co827 2.160 1_554 S
C829 O830 1.278 . S
C829 O837 1.224 . S
O830 C829 1.278 . S
C831 O832 1.245 1_556 S
C831 O843 1.232 . S
O832 C831 1.245 1_554 S
O833 Co827 2.058 . S
O833 C859 1.269 . S
O834 Co826 2.074 1_556 S
O834 C859 1.257 . S
H835 C860 0.930 . S
H836 C866 0.930 . S
O837 Co826 2.093 . S
O837 C829 1.224 . S
H838 C870 0.929 . S
H839 C872 0.930 . S
H840 C873 0.930 1_556 S
H841 C871 0.929 . S
H842 C874 0.928 . S
O843 Co827 2.057 . S
O843 C831 1.232 . S
H844 C863 0.929 . S
H845 C864 0.929 . S
H846 C876 0.931 . S
H847 C868 0.929 . S
H848 C877 0.930 1_455 S
H849 C869 0.931 . S
O850 Co826 2.097 . S
O850 C878 1.214 . S
H851 C879 0.929 . S
H852 C880 0.929 . S
H853 C881 0.930 . S
H854 C882 0.929 . S
H855 C884 0.930 . S
H856 C861 0.930 . S
H857 C865 0.930 . S
O858 Co827 2.037 . S
O858 C878 1.234 1_556 S
C859 O833 1.269 . S
C859 O834 1.257 . S
C860 H835 0.930 . S
C860 C863 1.388 . S
C860 C865 1.418 . S
C861 H856 0.930 . S
C861 C864 1.404 . S
C861 C865 1.353 . S
N862 Co827 2.145 . S
N862 C863 1.397 . S
N862 C864 1.334 . S
C863 H844 0.929 . S
C863 C860 1.388 . S
C863 N862 1.397 . S
C864 H845 0.929 . S
C864 C861 1.404 . S
C864 N862 1.334 . S
C865 H857 0.930 . S
C865 C860 1.418 . S
C865 C861 1.353 . S
C866 H836 0.930 . S
C866 N867 1.330 . S
C866 C868 1.446 . S
N867 Co826 2.151 . S
N867 C866 1.330 . S
N867 C871 1.418 1_554 S
C868 H847 0.929 . S
C868 C866 1.446 . S
C868 C869 1.332 . S
C869 H849 0.931 . S
C869 C868 1.332 . S
C869 C870 1.267 1_554 S
C870 H838 0.929 . S
C870 C869 1.267 1_556 S
C870 C871 1.251 . S
C871 H841 0.929 . S
C871 N867 1.418 1_556 S
C871 C870 1.251 . S
C872 H839 0.930 . S
C872 C874 1.406 . S
C872 C877 1.261 . S
C873 H840 0.930 1_554 S
C873 N875 1.325 . S
C873 C876 1.357 1_554 S
C874 H842 0.928 . S
C874 C872 1.406 . S
C874 N875 1.261 . S
N875 Co826 2.214 . S
N875 C873 1.325 . S
N875 C874 1.261 . S
C876 H846 0.931 . S
C876 C873 1.357 1_556 S
C876 C877 1.312 1_556 S
C877 H848 0.930 1_655 S
C877 C872 1.261 . S
C877 C876 1.312 1_554 S
C878 O850 1.214 . S
C878 O858 1.234 1_554 S
C879 H851 0.929 . S
C879 C882 1.391 . S
C879 C884 1.391 . S
C880 H852 0.929 . S
C880 C881 1.390 . S
C880 N883 1.391 . S
C881 H853 0.930 . S
C881 C880 1.390 . S
C881 C882 1.392 . S
C882 H854 0.929 . S
C882 C879 1.391 . S
C882 C881 1.392 . S
N883 Co827 2.257 1_554 S
N883 C880 1.391 . S
N883 C884 1.388 . S
C884 H855 0.930 . S
C884 C879 1.391 . S
C884 N883 1.388 . S
Co885 O887 2.143 . S
Co885 O893 2.074 . S
Co885 O896 2.093 . S
Co885 O909 2.097 . S
Co885 N926 2.151 . S
Co885 N934 2.214 . S
Co886 O887 2.160 . S
Co886 O892 2.058 . S
Co886 O902 2.057 . S
Co886 O917 2.037 . S
Co886 N921 2.145 . S
Co886 N942 2.257 . S
O887 Co885 2.143 . S
O887 Co886 2.160 . S
C888 O889 1.278 . S
C888 O896 1.224 . S
O889 C888 1.278 . S
C890 O891 1.245 . S
C890 O902 1.232 . S
O891 C890 1.245 . S
O892 Co886 2.058 . S
O892 C918 1.269 . S
O893 Co885 2.074 . S
O893 C918 1.257 . S
H894 C919 0.930 . S
H895 C925 0.930 . S
O896 Co885 2.093 . S
O896 C888 1.224 . S
H897 C929 0.929 . S
H898 C931 0.930 . S
H899 C932 0.930 . S
H900 C930 0.929 . S
H901 C933 0.928 . S
O902 Co886 2.057 . S
O902 C890 1.232 . S
H903 C922 0.929 . S
H904 C923 0.929 . S
H905 C935 0.931 . S
H906 C927 0.929 . S
H907 C936 0.930 . S
H908 C928 0.931 . S
O909 Co885 2.097 . S
O909 C937 1.214 . S
H910 C938 0.929 . S
H911 C939 0.929 . S
H912 C940 0.930 . S
H913 C941 0.929 . S
H914 C943 0.930 . S
H915 C920 0.930 . S
H916 C924 0.930 . S
O917 Co886 2.037 . S
O917 C937 1.234 . S
C918 O892 1.269 . S
C918 O893 1.257 . S
C919 H894 0.930 . S
C919 C922 1.388 . S
C919 C924 1.418 . S
C920 H915 0.930 . S
C920 C923 1.404 . S
C920 C924 1.353 . S
N921 Co886 2.145 . S
N921 C922 1.397 . S
N921 C923 1.334 . S
C922 H903 0.929 . S
C922 C919 1.388 . S
C922 N921 1.397 . S
C923 H904 0.929 . S
C923 C920 1.404 . S
C923 N921 1.334 . S
C924 H916 0.930 . S
C924 C919 1.418 . S
C924 C920 1.353 . S
C925 H895 0.930 . S
C925 N926 1.330 . S
C925 C927 1.446 . S
N926 Co885 2.151 . S
N926 C925 1.330 . S
N926 C930 1.418 . S
C927 H906 0.929 . S
C927 C925 1.446 . S
C927 C928 1.332 . S
C928 H908 0.931 . S
C928 C927 1.332 . S
C928 C929 1.267 . S
C929 H897 0.929 . S
C929 C928 1.267 . S
C929 C930 1.251 . S
C930 H900 0.929 . S
C930 N926 1.418 . S
C930 C929 1.251 . S
C931 H898 0.930 . S
C931 C933 1.406 . S
C931 C936 1.261 . S
C932 H899 0.930 . S
C932 N934 1.325 . S
C932 C935 1.357 . S
C933 H901 0.928 . S
C933 C931 1.406 . S
C933 N934 1.261 . S
N934 Co885 2.214 . S
N934 C932 1.325 . S
N934 C933 1.261 . S
C935 H905 0.931 . S
C935 C932 1.357 . S
C935 C936 1.312 . S
C936 H907 0.930 . S
C936 C931 1.261 . S
C936 C935 1.312 . S
C937 O909 1.214 . S
C937 O917 1.234 . S
C938 H910 0.929 . S
C938 C941 1.391 . S
C938 C943 1.391 . S
C939 H911 0.929 . S
C939 C940 1.390 . S
C939 N942 1.391 . S
C940 H912 0.930 . S
C940 C939 1.390 . S
C940 C941 1.392 . S
C941 H913 0.929 . S
C941 C938 1.391 . S
C941 C940 1.392 . S
N942 Co886 2.257 . S
N942 C939 1.391 . S
N942 C943 1.388 . S
C943 H914 0.930 . S
C943 C938 1.391 . S
C943 N942 1.388 . S
H944 C950 0.930 . S
H945 C954 0.930 . S
H946 C959 0.929 . S
H947 C957 0.929 . S
H948 C952 0.929 . S
H949 C958 0.929 . S
C950 H944 0.930 . S
C950 C951 1.367 . S
C950 C958 1.378 . S
C951 C950 1.367 . S
C951 C959 1.433 . S
C952 H948 0.929 . S
C952 C954 1.378 . S
C952 C956 1.350 . S
C953 C956 1.463 . S
C953 C958 1.350 . S
C953 N961 1.427 . S
C954 H945 0.930 . S
C954 C952 1.378 . S
C954 C955 1.367 . S
C955 C954 1.367 . S
C955 C957 1.433 . S
C956 C952 1.350 . S
C956 C953 1.463 . S
C956 N960 1.427 . S
C957 H947 0.929 . S
C957 C955 1.433 . S
C957 N960 1.384 . S
C958 H949 0.929 . S
C958 C950 1.378 . S
C958 C953 1.350 . S
C959 H946 0.929 . S
C959 C951 1.433 . S
C959 N961 1.384 . S
N960 C956 1.427 . S
N960 C957 1.384 . S
N961 C953 1.427 . S
N961 C959 1.384 . S
H962 C968 0.930 . S
H963 C972 0.930 . S
H964 C977 0.929 . S
H965 C975 0.929 . S
H966 C970 0.929 . S
H967 C976 0.929 . S
C968 H962 0.930 . S
C968 C969 1.367 . S
C968 C976 1.378 . S
C969 C968 1.367 . S
C969 C977 1.433 . S
C970 H966 0.929 . S
C970 C972 1.378 . S
C970 C974 1.350 . S
C971 C974 1.463 . S
C971 C976 1.350 . S
C971 N979 1.427 . S
C972 H963 0.930 . S
C972 C970 1.378 . S
C972 C973 1.367 . S
C973 C972 1.367 . S
C973 C975 1.433 . S
C974 C970 1.350 . S
C974 C971 1.463 . S
C974 N978 1.427 . S
C975 H965 0.929 . S
C975 C973 1.433 . S
C975 N978 1.384 . S
C976 H967 0.929 . S
C976 C968 1.378 . S
C976 C971 1.350 . S
C977 H964 0.929 . S
C977 C969 1.433 . S
C977 N979 1.384 . S
N978 C974 1.427 . S
N978 C975 1.384 . S
N979 C971 1.427 . S
N979 C977 1.384 . S
H980 C986 0.930 . S
H981 C990 0.930 . S
H982 C995 0.929 . S
H983 C993 0.929 1_554 S
H984 C988 0.929 . S
H985 C994 0.929 . S
C986 H980 0.930 . S
C986 C987 1.367 . S
C986 C994 1.378 . S
C987 C986 1.367 . S
C987 C995 1.433 . S
C988 H984 0.929 . S
C988 C990 1.378 . S
C988 C992 1.350 . S
C989 C992 1.463 . S
C989 C994 1.350 . S
C989 N997 1.427 . S
C990 H981 0.930 . S
C990 C988 1.378 . S
C990 C991 1.367 . S
C991 C990 1.367 . S
C991 C993 1.433 . S
C992 C988 1.350 . S
C992 C989 1.463 . S
C992 N996 1.427 . S
C993 H983 0.929 1_556 S
C993 C991 1.433 . S
C993 N996 1.384 . S
C994 H985 0.929 . S
C994 C986 1.378 . S
C994 C989 1.350 . S
C995 H982 0.929 . S
C995 C987 1.433 . S
C995 N997 1.384 . S
N996 C992 1.427 . S
N996 C993 1.384 . S
N997 C989 1.427 . S
N997 C995 1.384 . S
H998 C1004 0.930 . S
H999 C1008 0.930 . S
H1000 C1013 0.929 . S
H1001 C1011 0.929 . S
H1002 C1006 0.929 . S
H1003 C1012 0.929 . S
C1004 H998 0.930 . S
C1004 C1005 1.367 . S
C1004 C1012 1.378 . S
C1005 C1004 1.367 . S
C1005 C1013 1.433 . S
C1006 H1002 0.929 . S
C1006 C1008 1.378 . S
C1006 C1010 1.350 . S
C1007 C1010 1.463 . S
C1007 C1012 1.350 . S
C1007 N1015 1.427 . S
C1008 H999 0.930 . S
C1008 C1006 1.378 . S
C1008 C1009 1.367 . S
C1009 C1008 1.367 . S
C1009 C1011 1.433 . S
C1010 C1006 1.350 . S
C1010 C1007 1.463 . S
C1010 N1014 1.427 . S
C1011 H1001 0.929 . S
C1011 C1009 1.433 . S
C1011 N1014 1.384 . S
C1012 H1003 0.929 . S
C1012 C1004 1.378 . S
C1012 C1007 1.350 . S
C1013 H1000 0.929 . S
C1013 C1005 1.433 . S
C1013 N1015 1.384 . S
N1014 C1010 1.427 . S
N1014 C1011 1.384 . S
N1015 C1007 1.427 . S
N1015 C1013 1.384 . S
H1016 C1022 0.930 . S
H1017 C1026 0.930 . S
H1018 C1031 0.929 . S
H1019 C1029 0.929 . S
H1020 C1024 0.929 . S
H1021 C1030 0.929 . S
C1022 H1016 0.930 . S
C1022 C1023 1.367 . S
C1022 C1030 1.378 . S
C1023 C1022 1.367 . S
C1023 C1031 1.433 . S
C1024 H1020 0.929 . S
C1024 C1026 1.378 . S
C1024 C1028 1.350 . S
C1025 C1028 1.463 . S
C1025 C1030 1.350 . S
C1025 N1033 1.427 . S
C1026 H1017 0.930 . S
C1026 C1024 1.378 . S
C1026 C1027 1.367 . S
C1027 C1026 1.367 . S
C1027 C1029 1.433 . S
C1028 C1024 1.350 . S
C1028 C1025 1.463 . S
C1028 N1032 1.427 . S
C1029 H1019 0.929 . S
C1029 C1027 1.433 . S
C1029 N1032 1.384 . S
C1030 H1021 0.929 . S
C1030 C1022 1.378 . S
C1030 C1025 1.350 . S
C1031 H1018 0.929 . S
C1031 C1023 1.433 . S
C1031 N1033 1.384 . S
N1032 C1028 1.427 . S
N1032 C1029 1.384 . S
N1033 C1025 1.427 . S
N1033 C1031 1.384 . S
H1034 C1040 0.930 . S
H1035 C1044 0.930 . S
H1036 C1049 0.929 . S
H1037 C1047 0.929 . S
H1038 C1042 0.929 . S
H1039 C1048 0.929 . S
C1040 H1034 0.930 . S
C1040 C1041 1.367 . S
C1040 C1048 1.378 . S
C1041 C1040 1.367 . S
C1041 C1049 1.433 . S
C1042 H1038 0.929 . S
C1042 C1044 1.378 . S
C1042 C1046 1.350 . S
C1043 C1046 1.463 . S
C1043 C1048 1.350 . S
C1043 N1051 1.427 . S
C1044 H1035 0.930 . S
C1044 C1042 1.378 . S
C1044 C1045 1.367 . S
C1045 C1044 1.367 . S
C1045 C1047 1.433 . S
C1046 C1042 1.350 . S
C1046 C1043 1.463 . S
C1046 N1050 1.427 . S
C1047 H1037 0.929 . S
C1047 C1045 1.433 . S
C1047 N1050 1.384 . S
C1048 H1039 0.929 . S
C1048 C1040 1.378 . S
C1048 C1043 1.350 . S
C1049 H1036 0.929 . S
C1049 C1041 1.433 . S
C1049 N1051 1.384 . S
N1050 C1046 1.427 . S
N1050 C1047 1.384 . S
N1051 C1043 1.427 . S
N1051 C1049 1.384 . S
H1052 C1058 0.930 . S
H1053 C1062 0.930 . S
H1054 C1067 0.929 . S
H1055 C1065 0.929 . S
H1056 C1060 0.929 . S
H1057 C1066 0.929 . S
C1058 H1052 0.930 . S
C1058 C1059 1.367 . S
C1058 C1066 1.378 . S
C1059 C1058 1.367 . S
C1059 C1067 1.433 . S
C1060 H1056 0.929 . S
C1060 C1062 1.378 . S
C1060 C1064 1.350 . S
C1061 C1064 1.463 . S
C1061 C1066 1.350 . S
C1061 N1069 1.427 . S
C1062 H1053 0.930 . S
C1062 C1060 1.378 . S
C1062 C1063 1.367 . S
C1063 C1062 1.367 . S
C1063 C1065 1.433 . S
C1064 C1060 1.350 . S
C1064 C1061 1.463 . S
C1064 N1068 1.427 . S
C1065 H1055 0.929 . S
C1065 C1063 1.433 . S
C1065 N1068 1.384 . S
C1066 H1057 0.929 . S
C1066 C1058 1.378 . S
C1066 C1061 1.350 . S
C1067 H1054 0.929 . S
C1067 C1059 1.433 . S
C1067 N1069 1.384 . S
N1068 C1064 1.427 . S
N1068 C1065 1.384 . S
N1069 C1061 1.427 . S
N1069 C1067 1.384 . S
H1070 C1076 0.930 . S
H1071 C1080 0.930 . S
H1072 C1085 0.929 . S
H1073 C1083 0.929 . S
H1074 C1078 0.929 . S
H1075 C1084 0.929 . S
C1076 H1070 0.930 . S
C1076 C1077 1.367 . S
C1076 C1084 1.378 . S
C1077 C1076 1.367 . S
C1077 C1085 1.433 . S
C1078 H1074 0.929 . S
C1078 C1080 1.378 . S
C1078 C1082 1.350 . S
C1079 C1082 1.463 . S
C1079 C1084 1.350 . S
C1079 N1087 1.427 . S
C1080 H1071 0.930 . S
C1080 C1078 1.378 . S
C1080 C1081 1.367 . S
C1081 C1080 1.367 . S
C1081 C1083 1.433 . S
C1082 C1078 1.350 . S
C1082 C1079 1.463 . S
C1082 N1086 1.427 . S
C1083 H1073 0.929 . S
C1083 C1081 1.433 . S
C1083 N1086 1.384 . S
C1084 H1075 0.929 . S
C1084 C1076 1.378 . S
C1084 C1079 1.350 . S
C1085 H1072 0.929 . S
C1085 C1077 1.433 . S
C1085 N1087 1.384 . S
N1086 C1082 1.427 . S
N1086 C1083 1.384 . S
N1087 C1079 1.427 . S
N1087 C1085 1.384 . S
H1088 C1094 0.930 . S
H1089 C1098 0.930 . S
H1090 C1103 0.929 . S
H1091 C1101 0.929 . S
H1092 C1096 0.929 1_545 S
H1093 C1102 0.929 1_565 S
C1094 H1088 0.930 . S
C1094 C1095 1.367 . S
C1094 C1102 1.378 . S
C1095 C1094 1.367 . S
C1095 C1103 1.433 . S
C1096 H1092 0.929 1_565 S
C1096 C1098 1.378 . S
C1096 C1100 1.350 . S
C1097 C1100 1.463 1_445 S
C1097 C1102 1.350 . S
C1097 N1105 1.427 . S
C1098 H1089 0.930 . S
C1098 C1096 1.378 . S
C1098 C1099 1.367 . S
C1099 C1098 1.367 . S
C1099 C1101 1.433 . S
C1100 C1096 1.350 . S
C1100 C1097 1.463 1_665 S
C1100 N1104 1.427 . S
C1101 H1091 0.929 . S
C1101 C1099 1.433 . S
C1101 N1104 1.384 . S
C1102 H1093 0.929 1_545 S
C1102 C1094 1.378 . S
C1102 C1097 1.350 . S
C1103 H1090 0.929 . S
C1103 C1095 1.433 . S
C1103 N1105 1.384 . S
N1104 C1100 1.427 . S
N1104 C1101 1.384 . S
N1105 C1097 1.427 . S
N1105 C1103 1.384 . S
H1106 C1112 0.930 . S
H1107 C1116 0.930 . S
H1108 C1121 0.929 . S
H1109 C1119 0.929 . S
H1110 C1114 0.929 . S
H1111 C1120 0.929 . S
C1112 H1106 0.930 . S
C1112 C1113 1.367 . S
C1112 C1120 1.378 1_655 S
C1113 C1112 1.367 . S
C1113 C1121 1.433 . S
C1114 H1110 0.929 . S
C1114 C1116 1.378 1_655 S
C1114 C1118 1.350 1_655 S
C1115 C1118 1.463 1_655 S
C1115 C1120 1.350 1_655 S
C1115 N1123 1.427 . S
C1116 H1107 0.930 . S
C1116 C1114 1.378 1_455 S
C1116 C1117 1.367 . S
C1117 C1116 1.367 . S
C1117 C1119 1.433 . S
C1118 C1114 1.350 1_455 S
C1118 C1115 1.463 1_455 S
C1118 N1122 1.427 . S
C1119 H1109 0.929 . S
C1119 C1117 1.433 . S
C1119 N1122 1.384 . S
C1120 H1111 0.929 . S
C1120 C1112 1.378 1_455 S
C1120 C1115 1.350 1_455 S
C1121 H1108 0.929 . S
C1121 C1113 1.433 . S
C1121 N1123 1.384 . S
N1122 C1118 1.427 . S
N1122 C1119 1.384 . S
N1123 C1115 1.427 . S
N1123 C1121 1.384 . S
H1124 C1130 0.930 . S
H1125 C1134 0.930 . S
H1126 C1139 0.929 . S
H1127 C1137 0.929 . S
H1128 C1132 0.929 . S
H1129 C1138 0.929 . S
C1130 H1124 0.930 . S
C1130 C1131 1.367 . S
C1130 C1138 1.378 . S
C1131 C1130 1.367 . S
C1131 C1139 1.433 . S
C1132 H1128 0.929 . S
C1132 C1134 1.378 . S
C1132 C1136 1.350 . S
C1133 C1136 1.463 . S
C1133 C1138 1.350 . S
C1133 N1141 1.427 . S
C1134 H1125 0.930 . S
C1134 C1132 1.378 . S
C1134 C1135 1.367 . S
C1135 C1134 1.367 . S
C1135 C1137 1.433 . S
C1136 C1132 1.350 . S
C1136 C1133 1.463 . S
C1136 N1140 1.427 . S
C1137 H1127 0.929 . S
C1137 C1135 1.433 . S
C1137 N1140 1.384 . S
C1138 H1129 0.929 . S
C1138 C1130 1.378 . S
C1138 C1133 1.350 . S
C1139 H1126 0.929 . S
C1139 C1131 1.433 . S
C1139 N1141 1.384 . S
N1140 C1136 1.427 . S
N1140 C1137 1.384 . S
N1141 C1133 1.427 . S
N1141 C1139 1.384 . S
H1142 C1148 0.930 . S
H1143 C1152 0.930 . S
H1144 C1157 0.929 . S
H1145 C1155 0.929 . S
H1146 C1150 0.929 . S
H1147 C1156 0.929 . S
C1148 H1142 0.930 . S
C1148 C1149 1.367 . S
C1148 C1156 1.378 . S
C1149 C1148 1.367 . S
C1149 C1157 1.433 . S
C1150 H1146 0.929 . S
C1150 C1152 1.378 . S
C1150 C1154 1.350 . S
C1151 C1154 1.463 1_565 S
C1151 C1156 1.350 . S
C1151 N1159 1.427 . S
C1152 H1143 0.930 . S
C1152 C1150 1.378 . S
C1152 C1153 1.367 . S
C1153 C1152 1.367 . S
C1153 C1155 1.433 . S
C1154 C1150 1.350 . S
C1154 C1151 1.463 1_545 S
C1154 N1158 1.427 . S
C1155 H1145 0.929 . S
C1155 C1153 1.433 . S
C1155 N1158 1.384 . S
C1156 H1147 0.929 . S
C1156 C1148 1.378 . S
C1156 C1151 1.350 . S
C1157 H1144 0.929 . S
C1157 C1149 1.433 . S
C1157 N1159 1.384 . S
N1158 C1154 1.427 . S
N1158 C1155 1.384 . S
N1159 C1151 1.427 . S
N1159 C1157 1.384 . S
H1160 C1166 0.930 . S
H1161 C1170 0.930 . S
H1162 C1175 0.929 . S
H1163 C1173 0.929 . S
H1164 C1168 0.929 . S
H1165 C1174 0.929 . S
C1166 H1160 0.930 . S
C1166 C1167 1.367 . S
C1166 C1174 1.378 . S
C1167 C1166 1.367 . S
C1167 C1175 1.433 1_554 S
C1168 H1164 0.929 . S
C1168 C1170 1.378 . S
C1168 C1172 1.350 1_556 S
C1169 C1172 1.463 1_455 S
C1169 C1174 1.350 . S
C1169 N1177 1.427 1_554 S
C1170 H1161 0.930 . S
C1170 C1168 1.378 . S
C1170 C1171 1.367 1_556 S
C1171 C1170 1.367 1_554 S
C1171 C1173 1.433 . S
C1172 C1168 1.350 1_554 S
C1172 C1169 1.463 1_655 S
C1172 N1176 1.427 . S
C1173 H1163 0.929 . S
C1173 C1171 1.433 . S
C1173 N1176 1.384 . S
C1174 H1165 0.929 . S
C1174 C1166 1.378 . S
C1174 C1169 1.350 . S
C1175 H1162 0.929 . S
C1175 C1167 1.433 1_556 S
C1175 N1177 1.384 . S
N1176 C1172 1.427 . S
N1176 C1173 1.384 . S
N1177 C1169 1.427 1_556 S
N1177 C1175 1.384 . S
H1178 C1184 0.930 . S
H1179 C1188 0.930 . S
H1180 C1193 0.929 . S
H1181 C1191 0.929 . S
H1182 C1186 0.929 . S
H1183 C1192 0.929 . S
C1184 H1178 0.930 . S
C1184 C1185 1.367 . S
C1184 C1192 1.378 . S
C1185 C1184 1.367 . S
C1185 C1193 1.433 . S
C1186 H1182 0.929 . S
C1186 C1188 1.378 . S
C1186 C1190 1.350 . S
C1187 C1190 1.463 . S
C1187 C1192 1.350 . S
C1187 N1195 1.427 . S
C1188 H1179 0.930 . S
C1188 C1186 1.378 . S
C1188 C1189 1.367 . S
C1189 C1188 1.367 . S
C1189 C1191 1.433 . S
C1190 C1186 1.350 . S
C1190 C1187 1.463 . S
C1190 N1194 1.427 . S
C1191 H1181 0.929 . S
C1191 C1189 1.433 . S
C1191 N1194 1.384 . S
C1192 H1183 0.929 . S
C1192 C1184 1.378 . S
C1192 C1187 1.350 . S
C1193 H1180 0.929 . S
C1193 C1185 1.433 . S
C1193 N1195 1.384 . S
N1194 C1190 1.427 . S
N1194 C1191 1.384 . S
N1195 C1187 1.427 . S
N1195 C1193 1.384 . S
H1196 C1202 0.930 . S
H1197 C1206 0.930 . S
H1198 C1211 0.929 . S
H1199 C1209 0.929 . S
H1200 C1204 0.929 1_545 S
H1201 C1210 0.929 1_565 S
C1202 H1196 0.930 . S
C1202 C1203 1.367 . S
C1202 C1210 1.378 . S
C1203 C1202 1.367 . S
C1203 C1211 1.433 . S
C1204 H1200 0.929 1_565 S
C1204 C1206 1.378 . S
C1204 C1208 1.350 . S
C1205 C1208 1.463 1_545 S
C1205 C1210 1.350 . S
C1205 N1213 1.427 . S
C1206 H1197 0.930 . S
C1206 C1204 1.378 . S
C1206 C1207 1.367 . S
C1207 C1206 1.367 . S
C1207 C1209 1.433 . S
C1208 C1204 1.350 . S
C1208 C1205 1.463 1_565 S
C1208 N1212 1.427 . S
C1209 H1199 0.929 . S
C1209 C1207 1.433 . S
C1209 N1212 1.384 . S
C1210 H1201 0.929 1_545 S
C1210 C1202 1.378 . S
C1210 C1205 1.350 . S
C1211 H1198 0.929 . S
C1211 C1203 1.433 . S
C1211 N1213 1.384 . S
N1212 C1208 1.427 . S
N1212 C1209 1.384 . S
N1213 C1205 1.427 . S
N1213 C1211 1.384 . S
H1214 C1220 0.930 . S
H1215 C1224 0.930 . S
H1216 C1229 0.929 . S
H1217 C1227 0.929 . S
H1218 C1222 0.929 . S
H1219 C1228 0.929 . S
C1220 H1214 0.930 . S
C1220 C1221 1.367 . S
C1220 C1228 1.378 . S
C1221 C1220 1.367 . S
C1221 C1229 1.433 . S
C1222 H1218 0.929 . S
C1222 C1224 1.378 . S
C1222 C1226 1.350 . S
C1223 C1226 1.463 1_445 S
C1223 C1228 1.350 . S
C1223 N1231 1.427 . S
C1224 H1215 0.930 . S
C1224 C1222 1.378 . S
C1224 C1225 1.367 . S
C1225 C1224 1.367 . S
C1225 C1227 1.433 . S
C1226 C1222 1.350 . S
C1226 C1223 1.463 1_665 S
C1226 N1230 1.427 . S
C1227 H1217 0.929 . S
C1227 C1225 1.433 . S
C1227 N1230 1.384 . S
C1228 H1219 0.929 . S
C1228 C1220 1.378 . S
C1228 C1223 1.350 . S
C1229 H1216 0.929 . S
C1229 C1221 1.433 . S
C1229 N1231 1.384 . S
N1230 C1226 1.427 . S
N1230 C1227 1.384 . S
N1231 C1223 1.427 . S
N1231 C1229 1.384 . S
H1232 C1238 0.930 . S
H1233 C1242 0.930 . S
H1234 C1247 0.929 . S
H1235 C1245 0.929 . S
H1236 C1240 0.929 . S
H1237 C1246 0.929 . S
C1238 H1232 0.930 . S
C1238 C1239 1.367 . S
C1238 C1246 1.378 . S
C1239 C1238 1.367 . S
C1239 C1247 1.433 . S
C1240 H1236 0.929 . S
C1240 C1242 1.378 . S
C1240 C1244 1.350 . S
C1241 C1244 1.463 . S
C1241 C1246 1.350 . S
C1241 N1249 1.427 . S
C1242 H1233 0.930 . S
C1242 C1240 1.378 . S
C1242 C1243 1.367 . S
C1243 C1242 1.367 . S
C1243 C1245 1.433 . S
C1244 C1240 1.350 . S
C1244 C1241 1.463 . S
C1244 N1248 1.427 . S
C1245 H1235 0.929 . S
C1245 C1243 1.433 . S
C1245 N1248 1.384 . S
C1246 H1237 0.929 . S
C1246 C1238 1.378 . S
C1246 C1241 1.350 . S
C1247 H1234 0.929 . S
C1247 C1239 1.433 . S
C1247 N1249 1.384 . S
N1248 C1244 1.427 . S
N1248 C1245 1.384 . S
N1249 C1241 1.427 . S
N1249 C1247 1.384 . S
H1250 C1256 0.930 . S
H1251 C1260 0.930 . S
H1252 C1265 0.929 . S
H1253 C1263 0.929 . S
H1254 C1258 0.929 . S
H1255 C1264 0.929 . S
C1256 H1250 0.930 . S
C1256 C1257 1.367 . S
C1256 C1264 1.378 . S
C1257 C1256 1.367 . S
C1257 C1265 1.433 . S
C1258 H1254 0.929 . S
C1258 C1260 1.378 . S
C1258 C1262 1.350 . S
C1259 C1262 1.463 . S
C1259 C1264 1.350 . S
C1259 N1267 1.427 . S
C1260 H1251 0.930 . S
C1260 C1258 1.378 . S
C1260 C1261 1.367 . S
C1261 C1260 1.367 . S
C1261 C1263 1.433 . S
C1262 C1258 1.350 . S
C1262 C1259 1.463 . S
C1262 N1266 1.427 . S
C1263 H1253 0.929 . S
C1263 C1261 1.433 . S
C1263 N1266 1.384 . S
C1264 H1255 0.929 . S
C1264 C1256 1.378 . S
C1264 C1259 1.350 . S
C1265 H1252 0.929 . S
C1265 C1257 1.433 . S
C1265 N1267 1.384 . S
N1266 C1262 1.427 . S
N1266 C1263 1.384 . S
N1267 C1259 1.427 . S
N1267 C1265 1.384 . S
H1268 C1274 0.930 . S
H1269 C1278 0.930 . S
H1270 C1283 0.929 . S
H1271 C1281 0.929 . S
H1272 C1276 0.929 1_554 S
H1273 C1282 0.929 . S
C1274 H1268 0.930 . S
C1274 C1275 1.367 . S
C1274 C1282 1.378 . S
C1275 C1274 1.367 . S
C1275 C1283 1.433 . S
C1276 H1272 0.929 1_556 S
C1276 C1278 1.378 . S
C1276 C1280 1.350 1_556 S
C1277 C1280 1.463 . S
C1277 C1282 1.350 . S
C1277 N1285 1.427 . S
C1278 H1269 0.930 . S
C1278 C1276 1.378 . S
C1278 C1279 1.367 . S
C1279 C1278 1.367 . S
C1279 C1281 1.433 . S
C1280 C1276 1.350 1_554 S
C1280 C1277 1.463 . S
C1280 N1284 1.427 1_554 S
C1281 H1271 0.929 . S
C1281 C1279 1.433 . S
C1281 N1284 1.384 . S
C1282 H1273 0.929 . S
C1282 C1274 1.378 . S
C1282 C1277 1.350 . S
C1283 H1270 0.929 . S
C1283 C1275 1.433 . S
C1283 N1285 1.384 . S
N1284 C1280 1.427 1_556 S
N1284 C1281 1.384 . S
N1285 C1277 1.427 . S
N1285 C1283 1.384 . S
H1286 C1292 0.930 . S
H1287 C1296 0.930 . S
H1288 C1301 0.929 . S
H1289 C1299 0.929 . S
H1290 C1294 0.929 . S
H1291 C1300 0.929 . S
C1292 H1286 0.930 . S
C1292 C1293 1.367 . S
C1292 C1300 1.378 . S
C1293 C1292 1.367 . S
C1293 C1301 1.433 . S
C1294 H1290 0.929 . S
C1294 C1296 1.378 . S
C1294 C1298 1.350 . S
C1295 C1298 1.463 . S
C1295 C1300 1.350 . S
C1295 N1303 1.427 . S
C1296 H1287 0.930 . S
C1296 C1294 1.378 . S
C1296 C1297 1.367 . S
C1297 C1296 1.367 . S
C1297 C1299 1.433 . S
C1298 C1294 1.350 . S
C1298 C1295 1.463 . S
C1298 N1302 1.427 . S
C1299 H1289 0.929 . S
C1299 C1297 1.433 . S
C1299 N1302 1.384 . S
C1300 H1291 0.929 . S
C1300 C1292 1.378 . S
C1300 C1295 1.350 . S
C1301 H1288 0.929 . S
C1301 C1293 1.433 . S
C1301 N1303 1.384 . S
N1302 C1298 1.427 . S
N1302 C1299 1.384 . S
N1303 C1295 1.427 . S
N1303 C1301 1.384 . S
H1304 C1310 0.930 . S
H1305 C1314 0.930 . S
H1306 C1319 0.929 . S
H1307 C1317 0.929 . S
H1308 C1312 0.929 . S
H1309 C1318 0.929 . S
C1310 H1304 0.930 . S
C1310 C1311 1.367 . S
C1310 C1318 1.378 . S
C1311 C1310 1.367 . S
C1311 C1319 1.433 . S
C1312 H1308 0.929 . S
C1312 C1314 1.378 . S
C1312 C1316 1.350 . S
C1313 C1316 1.463 . S
C1313 C1318 1.350 . S
C1313 N1321 1.427 . S
C1314 H1305 0.930 . S
C1314 C1312 1.378 . S
C1314 C1315 1.367 . S
C1315 C1314 1.367 . S
C1315 C1317 1.433 . S
C1316 C1312 1.350 . S
C1316 C1313 1.463 . S
C1316 N1320 1.427 . S
C1317 H1307 0.929 . S
C1317 C1315 1.433 . S
C1317 N1320 1.384 . S
C1318 H1309 0.929 . S
C1318 C1310 1.378 . S
C1318 C1313 1.350 . S
C1319 H1306 0.929 . S
C1319 C1311 1.433 . S
C1319 N1321 1.384 . S
N1320 C1316 1.427 . S
N1320 C1317 1.384 . S
N1321 C1313 1.427 . S
N1321 C1319 1.384 . S
H1322 C1328 0.930 . S
H1323 C1332 0.930 . S
H1324 C1337 0.929 . S
H1325 C1335 0.929 . S
H1326 C1330 0.929 1_554 S
H1327 C1336 0.929 . S
C1328 H1322 0.930 . S
C1328 C1329 1.367 . S
C1328 C1336 1.378 . S
C1329 C1328 1.367 . S
C1329 C1337 1.433 . S
C1330 H1326 0.929 1_556 S
C1330 C1332 1.378 . S
C1330 C1334 1.350 1_556 S
C1331 C1334 1.463 . S
C1331 C1336 1.350 . S
C1331 N1339 1.427 . S
C1332 H1323 0.930 . S
C1332 C1330 1.378 . S
C1332 C1333 1.367 . S
C1333 C1332 1.367 . S
C1333 C1335 1.433 . S
C1334 C1330 1.350 1_554 S
C1334 C1331 1.463 . S
C1334 N1338 1.427 1_554 S
C1335 H1325 0.929 . S
C1335 C1333 1.433 . S
C1335 N1338 1.384 . S
C1336 H1327 0.929 . S
C1336 C1328 1.378 . S
C1336 C1331 1.350 . S
C1337 H1324 0.929 . S
C1337 C1329 1.433 . S
C1337 N1339 1.384 . S
N1338 C1334 1.427 1_556 S
N1338 C1335 1.384 . S
N1339 C1331 1.427 . S
N1339 C1337 1.384 . S
H1340 C1346 0.930 . S
H1341 C1350 0.930 . S
H1342 C1355 0.929 . S
H1343 C1353 0.929 . S
H1344 C1348 0.929 . S
H1345 C1354 0.929 . S
C1346 H1340 0.930 . S
C1346 C1347 1.367 . S
C1346 C1354 1.378 . S
C1347 C1346 1.367 . S
C1347 C1355 1.433 . S
C1348 H1344 0.929 . S
C1348 C1350 1.378 . S
C1348 C1352 1.350 . S
C1349 C1352 1.463 . S
C1349 C1354 1.350 . S
C1349 N1357 1.427 . S
C1350 H1341 0.930 . S
C1350 C1348 1.378 . S
C1350 C1351 1.367 . S
C1351 C1350 1.367 . S
C1351 C1353 1.433 . S
C1352 C1348 1.350 . S
C1352 C1349 1.463 . S
C1352 N1356 1.427 . S
C1353 H1343 0.929 . S
C1353 C1351 1.433 . S
C1353 N1356 1.384 . S
C1354 H1345 0.929 . S
C1354 C1346 1.378 . S
C1354 C1349 1.350 . S
C1355 H1342 0.929 . S
C1355 C1347 1.433 . S
C1355 N1357 1.384 . S
N1356 C1352 1.427 . S
N1356 C1353 1.384 . S
N1357 C1349 1.427 . S
N1357 C1355 1.384 . S
H1358 C1364 0.930 . S
H1359 C1368 0.930 . S
H1360 C1373 0.929 . S
H1361 C1371 0.929 . S
H1362 C1366 0.929 . S
H1363 C1372 0.929 . S
C1364 H1358 0.930 . S
C1364 C1365 1.367 . S
C1364 C1372 1.378 . S
C1365 C1364 1.367 . S
C1365 C1373 1.433 . S
C1366 H1362 0.929 . S
C1366 C1368 1.378 . S
C1366 C1370 1.350 . S
C1367 C1370 1.463 . S
C1367 C1372 1.350 . S
C1367 N1375 1.427 . S
C1368 H1359 0.930 . S
C1368 C1366 1.378 . S
C1368 C1369 1.367 . S
C1369 C1368 1.367 . S
C1369 C1371 1.433 . S
C1370 C1366 1.350 . S
C1370 C1367 1.463 . S
C1370 N1374 1.427 . S
C1371 H1361 0.929 . S
C1371 C1369 1.433 . S
C1371 N1374 1.384 . S
C1372 H1363 0.929 . S
C1372 C1364 1.378 . S
C1372 C1367 1.350 . S
C1373 H1360 0.929 . S
C1373 C1365 1.433 . S
C1373 N1375 1.384 . S
N1374 C1370 1.427 . S
N1374 C1371 1.384 . S
N1375 C1367 1.427 . S
N1375 C1373 1.384 . S
H1376 C1382 0.930 . S
H1377 C1386 0.930 . S
H1378 C1391 0.929 . S
H1379 C1389 0.929 . S
H1380 C1384 0.929 . S
H1381 C1390 0.929 . S
C1382 H1376 0.930 . S
C1382 C1383 1.367 . S
C1382 C1390 1.378 1_556 S
C1383 C1382 1.367 . S
C1383 C1391 1.433 . S
C1384 H1380 0.929 . S
C1384 C1386 1.378 . S
C1384 C1388 1.350 . S
C1385 C1388 1.463 . S
C1385 C1390 1.350 . S
C1385 N1393 1.427 1_554 S
C1386 H1377 0.930 . S
C1386 C1384 1.378 . S
C1386 C1387 1.367 . S
C1387 C1386 1.367 . S
C1387 C1389 1.433 . S
C1388 C1384 1.350 . S
C1388 C1385 1.463 . S
C1388 N1392 1.427 . S
C1389 H1379 0.929 . S
C1389 C1387 1.433 . S
C1389 N1392 1.384 . S
C1390 H1381 0.929 . S
C1390 C1382 1.378 1_554 S
C1390 C1385 1.350 . S
C1391 H1378 0.929 . S
C1391 C1383 1.433 . S
C1391 N1393 1.384 . S
N1392 C1388 1.427 . S
N1392 C1389 1.384 . S
N1393 C1385 1.427 1_556 S
N1393 C1391 1.384 . S
H1394 C1400 0.930 . S
H1395 C1404 0.930 . S
H1396 C1409 0.929 . S
H1397 C1407 0.929 . S
H1398 C1402 0.929 . S
H1399 C1408 0.929 . S
C1400 H1394 0.930 . S
C1400 C1401 1.367 . S
C1400 C1408 1.378 . S
C1401 C1400 1.367 . S
C1401 C1409 1.433 . S
C1402 H1398 0.929 . S
C1402 C1404 1.378 . S
C1402 C1406 1.350 . S
C1403 C1406 1.463 . S
C1403 C1408 1.350 . S
C1403 N1411 1.427 . S
C1404 H1395 0.930 . S
C1404 C1402 1.378 . S
C1404 C1405 1.367 . S
C1405 C1404 1.367 . S
C1405 C1407 1.433 . S
C1406 C1402 1.350 . S
C1406 C1403 1.463 . S
C1406 N1410 1.427 . S
C1407 H1397 0.929 . S
C1407 C1405 1.433 . S
C1407 N1410 1.384 . S
C1408 H1399 0.929 . S
C1408 C1400 1.378 . S
C1408 C1403 1.350 . S
C1409 H1396 0.929 . S
C1409 C1401 1.433 . S
C1409 N1411 1.384 . S
N1410 C1406 1.427 . S
N1410 C1407 1.384 . S
N1411 C1403 1.427 . S
N1411 C1409 1.384 . S
H1412 C1418 0.930 . S
H1413 C1422 0.930 . S
H1414 C1427 0.929 . S
H1415 C1425 0.929 . S
H1416 C1420 0.929 . S
H1417 C1426 0.929 . S
C1418 H1412 0.930 . S
C1418 C1419 1.367 . S
C1418 C1426 1.378 . S
C1419 C1418 1.367 . S
C1419 C1427 1.433 . S
C1420 H1416 0.929 . S
C1420 C1422 1.378 . S
C1420 C1424 1.350 . S
C1421 C1424 1.463 . S
C1421 C1426 1.350 . S
C1421 N1429 1.427 . S
C1422 H1413 0.930 . S
C1422 C1420 1.378 . S
C1422 C1423 1.367 . S
C1423 C1422 1.367 . S
C1423 C1425 1.433 . S
C1424 C1420 1.350 . S
C1424 C1421 1.463 . S
C1424 N1428 1.427 . S
C1425 H1415 0.929 . S
C1425 C1423 1.433 . S
C1425 N1428 1.384 . S
C1426 H1417 0.929 . S
C1426 C1418 1.378 . S
C1426 C1421 1.350 . S
C1427 H1414 0.929 . S
C1427 C1419 1.433 . S
C1427 N1429 1.384 . S
N1428 C1424 1.427 . S
N1428 C1425 1.384 . S
N1429 C1421 1.427 . S
N1429 C1427 1.384 . S
H1430 C1436 0.930 . S
H1431 C1440 0.930 . S
H1432 C1445 0.929 . S
H1433 C1443 0.929 . S
H1434 C1438 0.929 . S
H1435 C1444 0.929 . S
C1436 H1430 0.930 . S
C1436 C1437 1.367 . S
C1436 C1444 1.378 . S
C1437 C1436 1.367 . S
C1437 C1445 1.433 . S
C1438 H1434 0.929 . S
C1438 C1440 1.378 . S
C1438 C1442 1.350 . S
C1439 C1442 1.463 . S
C1439 C1444 1.350 . S
C1439 N1447 1.427 . S
C1440 H1431 0.930 . S
C1440 C1438 1.378 . S
C1440 C1441 1.367 . S
C1441 C1440 1.367 . S
C1441 C1443 1.433 . S
C1442 C1438 1.350 . S
C1442 C1439 1.463 . S
C1442 N1446 1.427 . S
C1443 H1433 0.929 . S
C1443 C1441 1.433 . S
C1443 N1446 1.384 . S
C1444 H1435 0.929 . S
C1444 C1436 1.378 . S
C1444 C1439 1.350 . S
C1445 H1432 0.929 . S
C1445 C1437 1.433 . S
C1445 N1447 1.384 . S
N1446 C1442 1.427 . S
N1446 C1443 1.384 . S
N1447 C1439 1.427 . S
N1447 C1445 1.384 . S
H1448 C1454 0.930 . S
H1449 C1458 0.930 . S
H1450 C1463 0.929 . S
H1451 C1461 0.929 . S
H1452 C1456 0.929 . S
H1453 C1462 0.929 . S
C1454 H1448 0.930 . S
C1454 C1455 1.367 . S
C1454 C1462 1.378 . S
C1455 C1454 1.367 . S
C1455 C1463 1.433 . S
C1456 H1452 0.929 . S
C1456 C1458 1.378 . S
C1456 C1460 1.350 . S
C1457 C1460 1.463 . S
C1457 C1462 1.350 . S
C1457 N1465 1.427 . S
C1458 H1449 0.930 . S
C1458 C1456 1.378 . S
C1458 C1459 1.367 . S
C1459 C1458 1.367 . S
C1459 C1461 1.433 . S
C1460 C1456 1.350 . S
C1460 C1457 1.463 . S
C1460 N1464 1.427 . S
C1461 H1451 0.929 . S
C1461 C1459 1.433 . S
C1461 N1464 1.384 . S
C1462 H1453 0.929 . S
C1462 C1454 1.378 . S
C1462 C1457 1.350 . S
C1463 H1450 0.929 . S
C1463 C1455 1.433 . S
C1463 N1465 1.384 . S
N1464 C1460 1.427 . S
N1464 C1461 1.384 . S
N1465 C1457 1.427 . S
N1465 C1463 1.384 . S
H1466 C1472 0.930 . S
H1467 C1476 0.930 . S
H1468 C1481 0.929 . S
H1469 C1479 0.929 . S
H1470 C1474 0.929 . S
H1471 C1480 0.929 . S
C1472 H1466 0.930 . S
C1472 C1473 1.367 . S
C1472 C1480 1.378 . S
C1473 C1472 1.367 . S
C1473 C1481 1.433 . S
C1474 H1470 0.929 . S
C1474 C1476 1.378 . S
C1474 C1478 1.350 . S
C1475 C1478 1.463 . S
C1475 C1480 1.350 . S
C1475 N1483 1.427 . S
C1476 H1467 0.930 . S
C1476 C1474 1.378 . S
C1476 C1477 1.367 . S
C1477 C1476 1.367 . S
C1477 C1479 1.433 . S
C1478 C1474 1.350 . S
C1478 C1475 1.463 . S
C1478 N1482 1.427 . S
C1479 H1469 0.929 . S
C1479 C1477 1.433 . S
C1479 N1482 1.384 . S
C1480 H1471 0.929 . S
C1480 C1472 1.378 . S
C1480 C1475 1.350 . S
C1481 H1468 0.929 . S
C1481 C1473 1.433 . S
C1481 N1483 1.384 . S
N1482 C1478 1.427 . S
N1482 C1479 1.384 . S
N1483 C1475 1.427 . S
N1483 C1481 1.384 . S
H1484 C1490 0.930 . S
H1485 C1494 0.930 . S
H1486 C1499 0.929 . S
H1487 C1497 0.929 . S
H1488 C1492 0.929 . S
H1489 C1498 0.929 . S
C1490 H1484 0.930 . S
C1490 C1491 1.367 . S
C1490 C1498 1.378 . S
C1491 C1490 1.367 . S
C1491 C1499 1.433 . S
C1492 H1488 0.929 . S
C1492 C1494 1.378 . S
C1492 C1496 1.350 . S
C1493 C1496 1.463 . S
C1493 C1498 1.350 . S
C1493 N1501 1.427 . S
C1494 H1485 0.930 . S
C1494 C1492 1.378 . S
C1494 C1495 1.367 . S
C1495 C1494 1.367 . S
C1495 C1497 1.433 . S
C1496 C1492 1.350 . S
C1496 C1493 1.463 . S
C1496 N1500 1.427 . S
C1497 H1487 0.929 . S
C1497 C1495 1.433 . S
C1497 N1500 1.384 . S
C1498 H1489 0.929 . S
C1498 C1490 1.378 . S
C1498 C1493 1.350 . S
C1499 H1486 0.929 . S
C1499 C1491 1.433 . S
C1499 N1501 1.384 . S
N1500 C1496 1.427 . S
N1500 C1497 1.384 . S
N1501 C1493 1.427 . S
N1501 C1499 1.384 . S
H1502 C1508 0.930 . S
H1503 C1512 0.930 . S
H1504 C1517 0.929 . S
H1505 C1515 0.929 . S
H1506 C1510 0.919 1_554 S
H1507 C1516 0.929 . S
C1508 H1502 0.930 . S
C1508 C1509 1.367 . S
C1508 C1516 1.378 . S
C1509 C1508 1.367 . S
C1509 C1517 1.433 . S
C1510 H1506 0.919 1_556 S
C1510 C1512 1.396 . S
C1510 C1514 1.342 1_556 S
C1511 C1514 1.463 . S
C1511 C1516 1.350 . S
C1511 N1519 1.427 . S
C1512 H1503 0.930 . S
C1512 C1510 1.396 . S
C1512 C1513 1.367 . S
C1513 C1512 1.367 . S
C1513 C1515 1.433 . S
C1514 C1510 1.342 1_554 S
C1514 C1511 1.463 . S
C1514 N1518 1.427 1_554 S
C1515 H1505 0.929 . S
C1515 C1513 1.433 . S
C1515 N1518 1.384 . S
C1516 H1507 0.929 . S
C1516 C1508 1.378 . S
C1516 C1511 1.350 . S
C1517 H1504 0.929 . S
C1517 C1509 1.433 . S
C1517 N1519 1.384 . S
N1518 C1514 1.427 1_556 S
N1518 C1515 1.384 . S
N1519 C1511 1.427 . S
N1519 C1517 1.384 . S
C951 C359 1.528 . S
C955 C5 1.526 . S
C969 C418 1.528 . S
C973 C64 1.529 . S
C987 C123 1.522 . S
C991 C241 1.520 . S
C1005 C182 1.524 . S
C1009 C300 1.526 . S
C1023 C477 1.523 . S
C1027 C831 1.526 . S
C1041 C890 1.529 . S
C1045 C536 1.529 . S
C1059 C595 1.518 . S
C1063 C713 1.519 . S
C1077 C654 1.528 . S
C1081 C772 1.529 . S
C1095 C52 1.464 . S
C1099 C642 1.461 . S
C1113 C111 1.464 . S
C1117 C701 1.462 . S
C1131 C170 1.462 . S
C1135 C524 1.460 . S
C1149 C229 1.460 . S
C1153 C583 1.462 . S
C1167 C288 1.461 . S
C1171 C878 1.464 . S
C1185 C937 1.464 . S
C1189 C347 1.461 . S
C1203 C406 1.461 . S
C1207 C760 1.463 . S
C1221 C819 1.462 . S
C1225 C465 1.460 . S
C1239 C800 0.502 . S
C1243 C33 0.497 . S
C1257 C92 0.489 . S
C1261 C859 0.482 . S
C1275 C918 0.485 . S
C1279 C151 0.493 . S
C1293 C741 0.503 . S
C1297 C210 0.503 . S
C1311 C682 0.492 . S
C1315 C269 0.498 . S
C1329 C328 0.491 . S
C1333 C505 0.498 . S
C1347 C387 0.501 . S
C1351 C564 0.496 . S
C1365 C446 0.484 . S
C1369 C623 0.491 . S
C1383 C770 1.593 . S
C1387 C3 1.594 . S
C1401 C62 1.589 . S
C1405 C829 1.597 . S
C1419 C121 1.597 . S
C1423 C888 1.588 . S
C1437 C711 1.597 . S
C1441 C180 1.588 . S
C1455 C652 1.597 . S
C1459 C239 1.590 . S
C1473 C475 1.597 . S
C1477 C298 1.589 . S
C1491 C357 1.596 . S
C1495 C534 1.589 . S
C1509 C593 1.588 . S
C1513 C416 1.598 . S
