# Generated by pormake.
# Topology acs-a, (4)-cn, num edge types: 1
# Building blocks:
#     Node 0, Type 0, BuildingBlock: UXUYUI_clean_sbu_0, # of connection points: 4
#     Node 1, Type 0, BuildingBlock: UXUYUI_clean_sbu_0, # of connection points: 4
#     Node 2, Type 0, BuildingBlock: UXUYUI_clean_sbu_0, # of connection points: 4
#     Node 3, Type 0, BuildingBlock: UXUYUI_clean_sbu_0, # of connection points: 4
#     Node 4, Type 0, BuildingBlock: UXUYUI_clean_sbu_0, # of connection points: 4
#     Node 5, Type 0, BuildingBlock: UXUYUI_clean_sbu_0, # of connection points: 4
#     Node 6, Type 0, BuildingBlock: UXUYUI_clean_sbu_0, # of connection points: 4
#     Node 7, Type 0, BuildingBlock: UXUYUI_clean_sbu_0, # of connection points: 4
#     Node 8, Type 0, BuildingBlock: UXUYUI_clean_sbu_0, # of connection points: 4
#     Node 9, Type 0, BuildingBlock: UXUYUI_clean_sbu_0, # of connection points: 4
#     Node 10, Type 0, BuildingBlock: UXUYUI_clean_sbu_0, # of connection points: 4
#     Node 11, Type 0, BuildingBlock: UXUYUI_clean_sbu_0, # of connection points: 4
#     Edge 12, Type (0, 0), BuildingBlock: AJUNOK_clean_linker_0, # of connection points: 2
#     Edge 13, Type (0, 0), BuildingBlock: AJUNOK_clean_linker_0, # of connection points: 2
#     Edge 14, Type (0, 0), BuildingBlock: AJUNOK_clean_linker_0, # of connection points: 2
#     Edge 15, Type (0, 0), BuildingBlock: AJUNOK_clean_linker_0, # of connection points: 2
#     Edge 16, Type (0, 0), BuildingBlock: AJUNOK_clean_linker_0, # of connection points: 2
#     Edge 17, Type (0, 0), BuildingBlock: AJUNOK_clean_linker_0, # of connection points: 2
#     Edge 18, Type (0, 0), BuildingBlock: AJUNOK_clean_linker_0, # of connection points: 2
#     Edge 19, Type (0, 0), BuildingBlock: AJUNOK_clean_linker_0, # of connection points: 2
#     Edge 20, Type (0, 0), BuildingBlock: AJUNOK_clean_linker_0, # of connection points: 2
#     Edge 21, Type (0, 0), BuildingBlock: AJUNOK_clean_linker_0, # of connection points: 2
#     Edge 22, Type (0, 0), BuildingBlock: AJUNOK_clean_linker_0, # of connection points: 2
#     Edge 23, Type (0, 0), BuildingBlock: AJUNOK_clean_linker_0, # of connection points: 2
#     Edge 24, Type (0, 0), BuildingBlock: AJUNOK_clean_linker_0, # of connection points: 2
#     Edge 25, Type (0, 0), BuildingBlock: AJUNOK_clean_linker_0, # of connection points: 2
#     Edge 26, Type (0, 0), BuildingBlock: AJUNOK_clean_linker_0, # of connection points: 2
#     Edge 27, Type (0, 0), BuildingBlock: AJUNOK_clean_linker_0, # of connection points: 2
#     Edge 28, Type (0, 0), BuildingBlock: AJUNOK_clean_linker_0, # of connection points: 2
#     Edge 29, Type (0, 0), BuildingBlock: AJUNOK_clean_linker_0, # of connection points: 2
#     Edge 30, Type (0, 0), BuildingBlock: AJUNOK_clean_linker_0, # of connection points: 2
#     Edge 31, Type (0, 0), BuildingBlock: AJUNOK_clean_linker_0, # of connection points: 2
#     Edge 32, Type (0, 0), BuildingBlock: AJUNOK_clean_linker_0, # of connection points: 2
#     Edge 33, Type (0, 0), BuildingBlock: AJUNOK_clean_linker_0, # of connection points: 2
#     Edge 34, Type (0, 0), BuildingBlock: AJUNOK_clean_linker_0, # of connection points: 2
#     Edge 35, Type (0, 0), BuildingBlock: AJUNOK_clean_linker_0, # of connection points: 2
# Relax obj value: 0.500
# Max RMSD: 0.243
# Mean RMSD: 0.227
data_MOF--net-acs-a--node1-UXUYUI_clean_sbu_0--edge1-AJUNOK_clean_linker_0
_symmetry_space_group_name_H-M    P1
_symmetry_Int_Tables_number       1
_symmetry_cell_setting            triclinic
loop_
_symmetry_equiv_pos_as_xyz
'x, y, z'
_cell_length_a     46.72555
_cell_length_b     57.607111
_cell_length_c     56.56788
_cell_angle_alpha  90.020034
_cell_angle_beta   89.99806
_cell_angle_gamma 110.97985
loop_
_atom_site_label
_atom_site_type_symbol
_atom_site_fract_x
_atom_site_fract_y
_atom_site_fract_z
_atom_type_partial_charge
Li0 Li 0.57666 0.13394 0.09451 0.0
Li1 Li 0.62731 0.13049 0.09003 0.0
Li2 Li 0.58072 0.09511 0.08341 0.0
Li3 Li 0.59588 0.11097 0.12282 0.0
C4 C 0.59095 0.11964 0.04277 0.0
N5 N 0.58103 0.10254 0.99672 0.0
C6 C 0.61544 0.11902 0.02891 0.0
C7 C 0.56145 0.11174 0.03313 0.0
C8 C 0.60995 0.1103 0.00568 0.0
C9 C 0.55689 0.10307 0.00985 0.0
C10 C 0.63562 0.16958 0.11647 0.0
C11 C 0.68768 0.19538 0.12601 0.0
N12 N 0.68339 0.21498 0.11524 0.0
C13 C 0.63173 0.19002 0.10554 0.0
C14 C 0.66379 0.17231 0.12689 0.0
C15 C 0.65614 0.2128 0.10512 0.0
C16 C 0.54177 0.16185 0.11049 0.0
N17 N 0.55336 0.15483 0.09087 0.0
C18 C 0.53165 0.17789 0.06617 0.0
C19 C 0.54884 0.16262 0.06898 0.0
C20 C 0.51875 0.18496 0.08609 0.0
C21 C 0.52396 0.17666 0.10848 0.0
H22 H 0.54639 0.15591 0.12774 0.0
H23 H 0.55903 0.15733 0.05373 0.0
C24 C 0.69162 0.14166 0.08761 0.0
N25 N 0.66783 0.14766 0.07935 0.0
C26 C 0.72172 0.15676 0.08233 0.0
C27 C 0.70203 0.18279 0.05881 0.0
C28 C 0.67238 0.16739 0.06477 0.0
C29 C 0.7271 0.17782 0.06809 0.0
H30 H 0.68728 0.12582 0.0991 0.0
H31 H 0.65295 0.17174 0.05863 0.0
C32 C 0.52679 0.10145 0.11408 0.0
N33 N 0.47098 0.105 0.12554 0.0
C34 C 0.5198 0.10462 0.13762 0.0
C35 C 0.50531 0.10002 0.09639 0.0
C36 C 0.49147 0.10636 0.14305 0.0
C37 C 0.47727 0.10191 0.10253 0.0
C38 C 0.62257 0.0791 0.11547 0.0
C39 C 0.60266 0.05432 0.11488 0.0
C40 C 0.64637 0.08652 0.13203 0.0
C41 C 0.60685 0.03737 0.13092 0.0
C42 C 0.64972 0.06903 0.14783 0.0
N43 N 0.63006 0.04503 0.14695 0.0
C44 C 0.5808 0.06045 0.04885 0.0
C45 C 0.53238 0.05361 0.06652 0.0
C46 C 0.56751 0.04155 0.03253 0.0
N47 N 0.56294 0.06661 0.06477 0.0
C48 C 0.51819 0.03437 0.05077 0.0
C49 C 0.53576 0.02873 0.03316 0.0
H50 H 0.60519 0.07084 0.04832 0.0
H51 H 0.51894 0.05856 0.07976 0.0
C52 C 0.61641 0.11719 0.16985 0.0
N53 N 0.5955 0.10169 0.1549 0.0
C54 C 0.61719 0.11063 0.19345 0.0
C55 C 0.57435 0.07252 0.18599 0.0
C56 C 0.57477 0.07962 0.16236 0.0
C57 C 0.59591 0.08813 0.20168 0.0
H58 H 0.63243 0.13464 0.16346 0.0
H59 H 0.55845 0.06768 0.14996 0.0
O60 O 0.59577 0.12766 0.06571 0.0
O61 O 0.61222 0.14692 0.11651 0.0
O62 O 0.55454 0.09993 0.10836 0.0
O63 O 0.61831 0.09613 0.10035 0.0
H64 H 0.63838 0.12486 0.0361 0.0
H65 H 0.54221 0.112 0.0436 0.0
H66 H 0.62866 0.10959 0.99481 0.0
H67 H 0.53414 0.09669 0.00225 0.0
H68 H 0.7097 0.19764 0.13373 0.0
H69 H 0.61023 0.18831 0.09727 0.0
H70 H 0.66751 0.15662 0.13498 0.0
H71 H 0.65346 0.22873 0.09665 0.0
H72 H 0.52926 0.18461 0.04869 0.0
H73 H 0.51458 0.18175 0.12432 0.0
H74 H 0.74059 0.15254 0.0899 0.0
H75 H 0.70535 0.1992 0.04821 0.0
H76 H 0.5362 0.10608 0.15153 0.0
H77 H 0.51038 0.09781 0.07806 0.0
H78 H 0.48583 0.10891 0.16117 0.0
H79 H 0.46054 0.10099 0.08899 0.0
H80 H 0.58397 0.04824 0.10235 0.0
H81 H 0.66161 0.10572 0.13311 0.0
H82 H 0.59154 0.01816 0.13071 0.0
H83 H 0.66782 0.07459 0.1609 0.0
H84 H 0.5817 0.03728 0.01934 0.0
H85 H 0.49362 0.02463 0.05174 0.0
H86 H 0.63377 0.12325 0.2053 0.0
H87 H 0.5575 0.05512 0.19194 0.0
Li88 Li 0.51178 0.64437 0.58482 0.0
Li89 Li 0.51112 0.61857 0.61956 0.0
Li90 Li 0.50264 0.60109 0.57826 0.0
Li91 Li 0.46486 0.61433 0.59677 0.0
C92 C 0.56707 0.64413 0.58563 0.0
N93 N 0.62053 0.68162 0.57216 0.0
C94 C 0.58759 0.6581 0.60275 0.0
C95 C 0.57377 0.64907 0.56167 0.0
C96 C 0.6145 0.67702 0.59557 0.0
C97 C 0.60091 0.66815 0.55522 0.0
C98 C 0.47158 0.65302 0.62469 0.0
C99 C 0.43823 0.6558 0.65625 0.0
N100 N 0.42948 0.67182 0.64301 0.0
C101 C 0.46249 0.66972 0.61151 0.0
C102 C 0.45953 0.64614 0.64732 0.0
C103 C 0.44108 0.67892 0.62102 0.0
C104 C 0.51402 0.68362 0.55509 0.0
N105 N 0.52721 0.67776 0.57447 0.0
C106 C 0.54271 0.7194 0.5887 0.0
C107 C 0.54267 0.69525 0.59057 0.0
C108 C 0.52584 0.72512 0.57053 0.0
C109 C 0.51314 0.70746 0.5527 0.0
H110 H 0.50103 0.66913 0.54304 0.0
H111 H 0.55192 0.68983 0.60626 0.0
C112 C 0.53051 0.5962 0.65767 0.0
N113 N 0.52784 0.61758 0.64968 0.0
C114 C 0.53707 0.59394 0.68145 0.0
C115 C 0.54042 0.63641 0.68767 0.0
C116 C 0.53355 0.63777 0.66385 0.0
C117 C 0.54128 0.61402 0.69683 0.0
H118 H 0.52562 0.58042 0.64592 0.0
H119 H 0.53105 0.65444 0.65693 0.0
C120 C 0.46057 0.60673 0.54771 0.0
N121 N 0.42037 0.5767 0.51485 0.0
C122 C 0.43994 0.58333 0.55426 0.0
C123 C 0.46079 0.61481 0.52439 0.0
C124 C 0.41979 0.56844 0.53743 0.0
C125 C 0.44028 0.59938 0.50805 0.0
C126 C 0.45829 0.57025 0.62195 0.0
C127 C 0.44037 0.54699 0.61285 0.0
C128 C 0.45547 0.57548 0.6458 0.0
C129 C 0.41983 0.52948 0.6277 0.0
C130 C 0.43476 0.55744 0.6601 0.0
N131 N 0.41749 0.53501 0.65083 0.0
C132 C 0.50196 0.55359 0.56835 0.0
C133 C 0.51351 0.58063 0.53524 0.0
C134 C 0.50072 0.53355 0.55407 0.0
N135 N 0.50762 0.57637 0.55867 0.0
C136 C 0.51284 0.56115 0.52031 0.0
C137 C 0.50593 0.53716 0.52967 0.0
H138 H 0.4974 0.55083 0.58707 0.0
H139 H 0.51776 0.59897 0.52806 0.0
C140 C 0.41375 0.62435 0.58251 0.0
N141 N 0.42222 0.6104 0.59852 0.0
C142 C 0.38422 0.62495 0.58275 0.0
C143 C 0.37214 0.59646 0.61574 0.0
C144 C 0.40205 0.5965 0.61493 0.0
C145 C 0.36316 0.61112 0.59972 0.0
H146 H 0.43026 0.6356 0.56987 0.0
H147 H 0.40909 0.58586 0.62776 0.0
O148 O 0.54044 0.6258 0.59229 0.0
O149 O 0.49182 0.64319 0.61539 0.0
O150 O 0.48108 0.62146 0.56374 0.0
O151 O 0.4791 0.58742 0.60776 0.0
H152 H 0.58266 0.65448 0.62138 0.0
H153 H 0.55802 0.63841 0.54824 0.0
H154 H 0.63056 0.68807 0.60862 0.0
H155 H 0.60635 0.67228 0.53674 0.0
H156 H 0.42862 0.65054 0.67369 0.0
H157 H 0.47137 0.67517 0.59392 0.0
H158 H 0.46646 0.63342 0.65788 0.0
H159 H 0.4336 0.69163 0.61089 0.0
H160 H 0.55313 0.73268 0.6026 0.0
H161 H 0.49978 0.71113 0.53851 0.0
H162 H 0.53738 0.57637 0.68799 0.0
H163 H 0.5429 0.65211 0.69909 0.0
H164 H 0.43944 0.57675 0.57214 0.0
H165 H 0.4768 0.63273 0.51889 0.0
H166 H 0.40372 0.55031 0.54231 0.0
H167 H 0.44025 0.6054 0.48994 0.0
H168 H 0.44228 0.54241 0.59452 0.0
H169 H 0.46871 0.59337 0.65317 0.0
H170 H 0.40582 0.51145 0.62086 0.0
H171 H 0.43232 0.56133 0.67855 0.0
H172 H 0.49465 0.51528 0.56194 0.0
H173 H 0.51716 0.56471 0.50161 0.0
H174 H 0.37798 0.63624 0.56989 0.0
H175 H 0.35646 0.58561 0.62913 0.0
Li176 Li 0.85048 0.37818 0.09151 0.0
Li177 Li 0.89368 0.37523 0.11678 0.0
Li178 Li 0.90134 0.39263 0.07531 0.0
Li179 Li 0.87632 0.34966 0.0818 0.0
C180 C 0.87552 0.42233 0.11298 0.0
N181 N 0.851 0.45573 0.13111 0.0
C182 C 0.87547 0.42625 0.13737 0.0
C183 C 0.86346 0.43567 0.09781 0.0
C184 C 0.86289 0.44315 0.14619 0.0
C185 C 0.85106 0.45239 0.10731 0.0
C186 C 0.83446 0.32678 0.11523 0.0
C187 C 0.82497 0.28728 0.13426 0.0
N188 N 0.79776 0.27774 0.12263 0.0
C189 C 0.80634 0.31665 0.10357 0.0
C190 C 0.84385 0.31205 0.13078 0.0
C191 C 0.78815 0.29178 0.10748 0.0
C192 C 0.79427 0.37633 0.07275 0.0
N193 N 0.81155 0.38151 0.09272 0.0
C194 C 0.77166 0.3891 0.11407 0.0
C195 C 0.8007 0.38737 0.11329 0.0
C196 C 0.75341 0.38417 0.0936 0.0
C197 C 0.76495 0.37743 0.07282 0.0
H198 H 0.803 0.3708 0.05687 0.0
H199 H 0.81451 0.39057 0.12913 0.0
C200 C 0.93785 0.38669 0.15402 0.0
N201 N 0.9076 0.37745 0.14821 0.0
C202 C 0.94671 0.3888 0.17778 0.0
C203 C 0.89313 0.37216 0.18882 0.0
C204 C 0.88535 0.37008 0.16497 0.0
C205 C 0.92409 0.38167 0.1954 0.0
H206 H 0.95498 0.39263 0.14024 0.0
H207 H 0.8615 0.36304 0.15975 0.0
C208 C 0.86647 0.37876 0.03746 0.0
N209 N 0.87459 0.39609 0.99147 0.0
C210 C 0.877 0.36642 0.02015 0.0
C211 C 0.85974 0.39973 0.03129 0.0
C212 C 0.88101 0.3755 -0.00299 0.0
C213 C 0.86412 0.40827 0.00798 0.0
C214 C 0.9343 0.3537 0.08626 0.0
C215 C 0.93801 0.34712 0.06299 0.0
C216 C 0.94594 0.34379 0.10488 0.0
C217 C 0.95311 0.33054 0.05874 0.0
C218 C 0.96098 0.32731 0.09989 0.0
N219 N 0.96419 0.32106 0.07712 0.0
C220 C 0.93197 0.44207 0.06192 0.0
C221 C 0.94117 0.41293 0.03631 0.0
C222 C 0.94847 0.46163 0.04716 0.0
N223 N 0.92808 0.41826 0.05603 0.0
C224 C 0.95769 0.43192 0.02091 0.0
C225 C 0.96118 0.4566 0.0262 0.0
H226 H 0.92188 0.4459 0.0779 0.0
H227 H 0.938 0.39391 0.0321 0.0
C228 C 0.84298 0.30932 0.05444 0.0
N229 N 0.86564 0.31623 0.07089 0.0
C230 C 0.82684 0.28428 0.04993 0.0
C231 C 0.85903 0.27375 0.07818 0.0
C232 C 0.87443 0.29909 0.08231 0.0
C233 C 0.83406 0.2661 0.06249 0.0
H234 H 0.83541 0.32315 0.04643 0.0
H235 H 0.89142 0.30484 0.09614 0.0
O236 O 0.8876 0.40574 0.10401 0.0
O237 O 0.85287 0.35093 0.11126 0.0
O238 O 0.86268 0.3703 0.06028 0.0
O239 O 0.91977 0.37004 0.0908 0.0
H240 H 0.88507 0.41642 0.14938 0.0
H241 H 0.86352 0.43306 0.0789 0.0
H242 H 0.8626 0.44628 0.16503 0.0
H243 H 0.84146 0.46269 0.09577 0.0
H244 H 0.832 0.2756 0.14613 0.0
H245 H 0.79883 0.32779 0.09139 0.0
H246 H 0.86565 0.3196 0.13984 0.0
H247 H 0.76645 0.28361 0.09843 0.0
H248 H 0.76354 0.39416 0.13051 0.0
H249 H 0.75123 0.37249 0.0569 0.0
H250 H 0.97081 0.39639 0.18236 0.0
H251 H 0.87515 0.36646 0.20202 0.0
H252 H 0.88238 0.35017 0.02456 0.0
H253 H 0.85129 0.40936 0.04437 0.0
H254 H 0.88933 0.36623 0.98348 0.0
H255 H 0.85918 0.42458 0.00301 0.0
H256 H 0.92898 0.35447 0.04841 0.0
H257 H 0.94319 0.34859 0.123 0.0
H258 H 0.95597 0.32516 0.04082 0.0
H259 H 0.97001 0.31942 0.11413 0.0
H260 H 0.95103 0.48047 0.05197 0.0
H261 H 0.96681 0.42726 0.00474 0.0
H262 H 0.80708 0.27934 0.03837 0.0
H263 H 0.86504 0.2603 0.08845 0.0
Li264 Li 0.40681 0.89151 0.57579 0.0
Li265 Li 0.38823 0.86784 0.61028 0.0
Li266 Li 0.4124 0.85124 0.5817 0.0
Li267 Li 0.3592 0.85262 0.5754 0.0
C268 C 0.46208 0.89375 0.59533 0.0
N269 N 0.52361 0.9173 0.58511 0.0
C270 C 0.48188 0.90909 0.61215 0.0
C271 C 0.47366 0.8904 0.57335 0.0
C272 C 0.51288 0.92083 0.60664 0.0
C273 C 0.50479 0.90244 0.5685 0.0
C274 C 0.3595 0.90034 0.60639 0.0
C275 C 0.32249 0.91185 0.6285 0.0
N276 N 0.34572 0.93071 0.63875 0.0
C277 C 0.383 0.91988 0.61708 0.0
C278 C 0.32898 0.89629 0.61208 0.0
C279 C 0.37557 0.935 0.63343 0.0
C280 C 0.41489 0.92431 0.53878 0.0
N281 N 0.42438 0.92253 0.56116 0.0
C282 C 0.46388 0.96242 0.55839 0.0
C283 C 0.4475 0.94139 0.57148 0.0
C284 C 0.45618 0.96372 0.53463 0.0
C285 C 0.43073 0.94489 0.525 0.0
H286 H 0.3961 0.90909 0.53125 0.0
H287 H 0.45412 0.93966 0.58949 0.0
C288 C 0.40959 0.87732 0.65658 0.0
N289 N 0.3836 0.87042 0.64341 0.0
C290 C 0.4082 0.88006 0.68094 0.0
C291 C 0.35316 0.86814 0.67786 0.0
C292 C 0.35563 0.86562 0.65349 0.0
C293 C 0.37973 0.87548 0.69182 0.0
H294 H 0.43139 0.8805 0.64814 0.0
H295 H 0.33526 0.85981 0.64263 0.0
C296 C 0.40106 0.85656 0.53119 0.0
N297 N 0.41189 0.84379 0.48579 0.0
C298 C 0.38137 0.83462 0.52084 0.0
C299 C 0.42606 0.87218 0.51822 0.0
C300 C 0.3873 0.82842 0.49794 0.0
C301 C 0.43119 0.86536 0.49537 0.0
C302 C 0.36319 0.82003 0.61831 0.0
C303 C 0.38396 0.81556 0.63378 0.0
C304 C 0.332 0.81138 0.62391 0.0
C305 C 0.37316 0.80275 0.65484 0.0
C306 C 0.32211 0.79859 0.64511 0.0
N307 N 0.34273 0.79461 0.66003 0.0
C308 C 0.45894 0.83367 0.59422 0.0
C309 C 0.43342 0.81577 0.5588 0.0
C310 C 0.47713 0.81908 0.59305 0.0
N311 N 0.43756 0.83175 0.57728 0.0
C312 C 0.45107 0.80073 0.55698 0.0
C313 C 0.47286 0.80201 0.57449 0.0
H314 H 0.46148 0.84622 0.60894 0.0
H315 H 0.41587 0.8141 0.54587 0.0
C316 C 0.30037 0.84901 0.55923 0.0
N317 N 0.31992 0.83658 0.56263 0.0
C318 C 0.26989 0.83599 0.55285 0.0
C319 C 0.28115 0.79812 0.55224 0.0
C320 C 0.31103 0.81169 0.55917 0.0
C321 C 0.26017 0.81025 0.54946 0.0
H322 H 0.30816 0.86883 0.56232 0.0
H323 H 0.32692 0.80229 0.5626 0.0
O324 O 0.43151 0.88252 0.60038 0.0
O325 O 0.3664 0.88508 0.59067 0.0
O326 O 0.39522 0.86309 0.5535 0.0
O327 O 0.37338 0.83298 0.59786 0.0
H328 H 0.47334 0.91216 0.62919 0.0
H329 H 0.45886 0.87841 0.5603 0.0
H330 H 0.52841 0.93282 0.61947 0.0
H331 H 0.51399 0.89994 0.55154 0.0
H332 H 0.29898 0.90888 0.63316 0.0
H333 H 0.40673 0.92304 0.61311 0.0
H334 H 0.31051 0.8811 0.60416 0.0
H335 H 0.39354 0.95009 0.64195 0.0
H336 H 0.48337 0.97679 0.56628 0.0
H337 H 0.42405 0.94563 0.50676 0.0
H338 H 0.42913 0.8854 0.69123 0.0
H339 H 0.33082 0.8646 0.68566 0.0
H340 H 0.36191 0.82232 0.53045 0.0
H341 H 0.44132 0.88951 0.52558 0.0
H342 H 0.37233 0.81139 0.48984 0.0
H343 H 0.45048 0.87728 0.48521 0.0
H344 H 0.40818 0.8222 0.62971 0.0
H345 H 0.31566 0.81477 0.61214 0.0
H346 H 0.38899 0.79932 0.66708 0.0
H347 H 0.29807 0.79191 0.64976 0.0
H348 H 0.49389 0.82074 0.60679 0.0
H349 H 0.44686 0.78754 0.54256 0.0
H350 H 0.25398 0.84571 0.55118 0.0
H351 H 0.27403 0.77813 0.55024 0.0
Li352 Li 0.47856 0.36852 0.11817 0.0
Li353 Li 0.47601 0.34068 0.08496 0.0
Li354 Li 0.52352 0.37157 0.09389 0.0
Li355 Li 0.48388 0.38317 0.07588 0.0
C356 C 0.5192 0.33477 0.12338 0.0
N357 N 0.56217 0.31639 0.14068 0.0
C358 C 0.52889 0.31886 0.10953 0.0
C359 C 0.5313 0.34127 0.14605 0.0
C360 C 0.55063 0.30977 0.11859 0.0
C361 C 0.55304 0.33181 0.15446 0.0
C362 C 0.42092 0.34034 0.08625 0.0
C363 C 0.38652 0.31508 0.05676 0.0
N364 N 0.3681 0.30141 0.07422 0.0
C365 C 0.40163 0.32615 0.10392 0.0
C366 C 0.41333 0.33488 0.06249 0.0
C367 C 0.37503 0.3065 0.09746 0.0
C368 C 0.46216 0.39301 0.1563 0.0
N369 N 0.464 0.3712 0.1487 0.0
C370 C 0.45443 0.35413 0.18753 0.0
C371 C 0.45914 0.3516 0.16349 0.0
C372 C 0.45499 0.37709 0.19623 0.0
C373 C 0.45776 0.39643 0.18027 0.0
H374 H 0.46618 0.40825 0.14402 0.0
H375 H 0.46075 0.33451 0.15683 0.0
C376 C 0.46911 0.29834 0.05731 0.0
N377 N 0.46002 0.30652 0.07747 0.0
C378 C 0.47024 0.27444 0.05646 0.0
C379 C 0.44976 0.26734 0.09619 0.0
C380 C 0.44894 0.29126 0.09626 0.0
C381 C 0.46225 0.25933 0.07666 0.0
H382 H 0.47885 0.31122 0.04304 0.0
H383 H 0.44307 0.29865 0.11236 0.0
C384 C 0.53068 0.4172 0.11685 0.0
N385 N 0.572 0.45495 0.14311 0.0
C386 C 0.54707 0.44008 0.10631 0.0
C387 C 0.53525 0.41364 0.14081 0.0
C388 C 0.56791 0.45888 0.11985 0.0
C389 C 0.55622 0.43292 0.15377 0.0
C390 C 0.52403 0.37576 0.04441 0.0
C391 C 0.54388 0.40004 0.04895 0.0
C392 C 0.52344 0.36561 0.02189 0.0
C393 C 0.56287 0.41375 0.03092 0.0
C394 C 0.54279 0.37992 0.00431 0.0
N395 N 0.56193 0.4035 0.00915 0.0
C396 C 0.57771 0.36645 0.07693 0.0
C397 C 0.58493 0.38801 0.11338 0.0
C398 C 0.60843 0.3688 0.07644 0.0
N399 N 0.56667 0.37658 0.09489 0.0
C400 C 0.61575 0.39044 0.1138 0.0
C401 C 0.62781 0.38106 0.09498 0.0
H402 H 0.56256 0.35607 0.06313 0.0
H403 H 0.57561 0.3947 0.12813 0.0
C404 C 0.48227 0.42958 0.065 0.0
N405 N 0.47754 0.4068 0.05561 0.0
C406 C 0.48371 0.44938 0.05035 0.0
C407 C 0.4735 0.42152 0.01679 0.0
C408 C 0.47247 0.40224 0.03211 0.0
C409 C 0.47986 0.44551 0.02591 0.0
H410 H 0.48611 0.43256 0.08378 0.0
H411 H 0.46901 0.38394 0.02516 0.0
O412 O 0.49836 0.34425 0.11466 0.0
O413 O 0.44733 0.35933 0.09219 0.0
O414 O 0.50941 0.39884 0.10402 0.0
O415 O 0.50476 0.36204 0.06166 0.0
H416 H 0.52007 0.31387 0.09183 0.0
H417 H 0.52414 0.35362 0.15698 0.0
H418 H 0.55841 0.29752 0.10803 0.0
H419 H 0.56269 0.33676 0.17194 0.0
H420 H 0.3804 0.31054 0.03844 0.0
H421 H 0.40731 0.33016 0.12239 0.0
H422 H 0.42815 0.34569 0.04864 0.0
H423 H 0.35992 0.29527 0.11092 0.0
H424 H 0.45255 0.33889 0.19939 0.0
H425 H 0.45813 0.41434 0.18645 0.0
H426 H 0.48049 0.26899 0.04127 0.0
H427 H 0.44369 0.2562 0.11212 0.0
H428 H 0.54368 0.44341 0.08789 0.0
H429 H 0.52335 0.396 0.14925 0.0
H430 H 0.58074 0.47664 0.11189 0.0
H431 H 0.56005 0.43031 0.17229 0.0
H432 H 0.54474 0.40816 0.06622 0.0
H433 H 0.50809 0.34691 0.01798 0.0
H434 H 0.57834 0.43255 0.03425 0.0
H435 H 0.54254 0.37229 0.9868 0.0
H436 H 0.61684 0.36067 0.06199 0.0
H437 H 0.63003 0.39959 0.12862 0.0
H438 H 0.48842 0.46765 0.05795 0.0
H439 H 0.47069 0.41797 -0.00203 0.0
Li440 Li 0.09705 0.62065 0.61643 0.0
Li441 Li 0.14257 0.61807 0.59357 0.0
Li442 Li 0.11554 0.64511 0.58132 0.0
Li443 Li 0.0906 0.60125 0.57609 0.0
C444 C 0.14911 0.67074 0.61665 0.0
N445 N 0.17064 0.72135 0.62486 0.0
C446 C 0.17897 0.68541 0.61012 0.0
C447 C 0.13029 0.68172 0.62757 0.0
C448 C 0.18939 0.711 0.61434 0.0
C449 C 0.1416 0.70736 0.63154 0.0
C450 C 0.10963 0.56817 0.60567 0.0
C451 C 0.1228 0.53662 0.58527 0.0
N452 N 0.11736 0.52283 0.60542 0.0
C453 C 0.10414 0.55371 0.62616 0.0
C454 C 0.11905 0.5596 0.58506 0.0
C455 C 0.1082 0.53083 0.62568 0.0
C456 C 0.05469 0.6191 0.65394 0.0
N457 N 0.08238 0.61827 0.64761 0.0
C458 C 0.09508 0.61427 0.68782 0.0
C459 C 0.10241 0.61578 0.6639 0.0
C460 C 0.06694 0.61551 0.69502 0.0
C461 C 0.04648 0.61789 0.67782 0.0
H462 H 0.03906 0.62072 0.64052 0.0
H463 H 0.12421 0.61512 0.6582 0.0
C464 C 0.20353 0.62964 0.581 0.0
N465 N 0.1816 0.6154 0.59604 0.0
C466 C 0.23318 0.62931 0.58203 0.0
C467 C 0.21721 0.59973 0.61414 0.0
C468 C 0.18781 0.60069 0.61252 0.0
C469 C 0.24034 0.61434 0.59887 0.0
H470 H 0.19793 0.64135 0.56825 0.0
H471 H 0.17008 0.58991 0.62457 0.0
C472 C 0.05483 0.63661 0.57876 0.0
N473 N 0.02027 0.66063 0.55704 0.0
C474 C 0.05093 0.63529 0.55426 0.0
C475 C 0.04099 0.65001 0.59227 0.0
C476 C 0.03345 0.64762 0.54359 0.0
C477 C 0.02362 0.66205 0.58094 0.0
C478 C 0.13605 0.62117 0.53862 0.0
C479 C 0.12621 0.63406 0.52138 0.0
C480 C 0.15358 0.60705 0.53191 0.0
C481 C 0.13367 0.63226 0.49771 0.0
C482 C 0.16055 0.60572 0.50805 0.0
N483 N 0.15052 0.61823 0.49159 0.0
C484 C 0.15311 0.68358 0.5554 0.0
C485 C 0.11278 0.69433 0.57165 0.0
C486 C 0.16744 0.70752 0.54691 0.0
N487 N 0.12636 0.67737 0.56753 0.0
C488 C 0.12664 0.71882 0.56363 0.0
C489 C 0.15453 0.72564 0.55131 0.0
H490 H 0.16447 0.67032 0.55362 0.0
H491 H 0.09243 0.68945 0.5824 0.0
C492 C 0.04826 0.55282 0.56883 0.0
N493 N 0.06483 0.57431 0.5576 0.0
C494 C 0.03224 0.53155 0.55578 0.0
C495 C 0.0492 0.55538 0.51995 0.0
C496 C 0.06484 0.57608 0.53366 0.0
C497 C 0.03323 0.53265 0.53101 0.0
H498 H 0.04818 0.552 0.58793 0.0
H499 H 0.07738 0.59336 0.52506 0.0
O500 O 0.13802 0.64585 0.61179 0.0
O501 O 0.10576 0.59061 0.60586 0.0
O502 O 0.07177 0.62459 0.58952 0.0
O503 O 0.12956 0.62314 0.562 0.0
H504 H 0.19374 0.67716 0.60156 0.0
H505 H 0.10704 0.67061 0.63257 0.0
H506 H 0.21234 0.72264 0.60917 0.0
H507 H 0.12723 0.71615 0.63981 0.0
H508 H 0.12998 0.52972 0.56941 0.0
H509 H 0.09684 0.56012 0.64227 0.0
H510 H 0.12309 0.57047 0.56903 0.0
H511 H 0.10406 0.51943 0.64142 0.0
H512 H 0.11148 0.6126 0.70062 0.0
H513 H 0.02444 0.61862 0.6828 0.0
H514 H 0.25028 0.64052 0.56969 0.0
H515 H 0.22197 0.58806 0.62742 0.0
H516 H 0.06136 0.62493 0.5436 0.0
H517 H 0.04398 0.65142 0.61123 0.0
H518 H 0.03035 0.64682 0.52461 0.0
H519 H 0.01292 0.67259 0.59115 0.0
H520 H 0.11273 0.64518 0.52618 0.0
H521 H 0.16196 0.59734 0.54498 0.0
H522 H 0.12605 0.64203 0.4842 0.0
H523 H 0.17405 0.59481 0.50263 0.0
H524 H 0.18967 0.71222 0.53856 0.0
H525 H 0.11655 0.73252 0.568 0.0
H526 H 0.01949 0.51445 0.56492 0.0
H527 H 0.05034 0.55697 0.50086 0.0
Li528 Li 0.86749 0.38057 0.39922 0.0
Li529 Li 0.91756 0.38967 0.41674 0.0
Li530 Li 0.90917 0.37651 0.37546 0.0
Li531 Li 0.88782 0.34709 0.40746 0.0
C532 C 0.90217 0.42652 0.37886 0.0
N533 N 0.89224 0.46577 0.35676 0.0
C534 C 0.91164 0.44992 0.38963 0.0
C535 C 0.88784 0.42317 0.35679 0.0
C536 C 0.90635 0.4695 0.37819 0.0
C537 C 0.88299 0.44321 0.34591 0.0
C538 C 0.86864 0.38171 0.44803 0.0
C539 C 0.84549 0.38253 0.486 0.0
N540 N 0.85153 0.4073 0.48335 0.0
C541 C 0.8747 0.40719 0.44575 0.0
C542 C 0.85399 0.36928 0.46836 0.0
C543 C 0.86585 0.41979 0.46377 0.0
C544 C 0.80411 0.36687 0.39789 0.0
N545 N 0.83028 0.38723 0.39883 0.0
C546 C 0.80137 0.41409 0.39964 0.0
C547 C 0.8294 0.41056 0.39993 0.0
C548 C 0.77399 0.39339 0.39862 0.0
C549 C 0.77558 0.36953 0.39768 0.0
H550 H 0.80546 0.34852 0.39735 0.0
H551 H 0.85031 0.42649 0.40123 0.0
C552 C 0.9648 0.43316 0.42938 0.0
N553 N 0.94535 0.41127 0.43815 0.0
C554 C 0.98161 0.45202 0.44473 0.0
C555 C 0.9596 0.42474 0.47774 0.0
C556 C 0.94314 0.40642 0.46174 0.0
C557 C 0.9784 0.44808 0.46922 0.0
H558 H 0.96606 0.43637 0.41051 0.0
H559 H 0.92735 0.38885 0.4682 0.0
C560 C 0.85158 0.3423 0.35895 0.0
N561 N 0.82067 0.32126 0.31807 0.0
C562 C 0.85057 0.31886 0.35159 0.0
C563 C 0.83623 0.35477 0.34578 0.0
C564 C 0.83502 0.30861 0.3308 0.0
C565 C 0.8209 0.34391 0.3251 0.0
C566 C 0.94983 0.35763 0.41515 0.0
C567 C 0.97835 0.35767 0.40768 0.0
C568 C 0.93977 0.35 0.43811 0.0
C569 C 0.9964 0.3501 0.42337 0.0
C570 C 0.95849 0.34258 0.45327 0.0
N571 N 0.98618 0.34278 0.44564 0.0
C572 C 0.9397 0.40269 0.33486 0.0
C573 C 0.92114 0.35877 0.33163 0.0
C574 C 0.94648 0.40517 0.31076 0.0
N575 N 0.92576 0.37976 0.34445 0.0
C576 C 0.92769 0.36035 0.30751 0.0
C577 C 0.93948 0.38379 0.29669 0.0
H578 H 0.94424 0.41911 0.34564 0.0
H579 H 0.91111 0.34079 0.33993 0.0
C580 C 0.85329 0.30536 0.43271 0.0
N581 N 0.87554 0.31337 0.41605 0.0
C582 C 0.83908 0.28006 0.43713 0.0
C583 C 0.87181 0.27177 0.40772 0.0
C584 C 0.88575 0.29737 0.40412 0.0
C585 C 0.84763 0.26291 0.424 0.0
H586 H 0.84531 0.31853 0.44152 0.0
H587 H 0.90336 0.3044 0.39079 0.0
O588 O 0.90687 0.40706 0.38998 0.0
O589 O 0.87723 0.36896 0.43065 0.0
O590 O 0.86657 0.35253 0.37937 0.0
O591 O 0.93203 0.36507 0.39992 0.0
H592 H 0.92265 0.45291 0.40676 0.0
H593 H 0.88089 0.40538 0.348 0.0
H594 H 0.91341 0.48766 0.38639 0.0
H595 H 0.87194 0.44084 0.32881 0.0
H596 H 0.83412 0.37312 0.50182 0.0
H597 H 0.88629 0.4172 0.43035 0.0
H598 H 0.84933 0.34962 0.47059 0.0
H599 H 0.87043 0.43951 0.46219 0.0
H600 H 0.80116 0.43282 0.40004 0.0
H601 H 0.75497 0.35308 0.39709 0.0
H602 H 0.9961 0.4698 0.4376 0.0
H603 H 0.95633 0.42119 0.49653 0.0
H604 H 0.86194 0.30876 0.36167 0.0
H605 H 0.83577 0.37251 0.35155 0.0
H606 H 0.83435 0.29059 0.32479 0.0
H607 H 0.80905 0.35342 0.31471 0.0
H608 H 0.98645 0.36352 0.38995 0.0
H609 H 0.91777 0.3498 0.44424 0.0
H610 H 0.01854 0.35006 0.41783 0.0
H611 H 0.95099 0.33666 0.47109 0.0
H612 H 0.95585 0.42355 0.30301 0.0
H613 H 0.92181 0.34343 0.2972 0.0
H614 H 0.81996 0.27393 0.44934 0.0
H615 H 0.87867 0.25901 0.39708 0.0
Li616 Li 0.39651 0.87445 0.87423 0.0
Li617 Li 0.41536 0.89255 0.91245 0.0
Li618 Li 0.41615 0.85274 0.90118 0.0
Li619 Li 0.36712 0.85809 0.90913 0.0
C620 C 0.46691 0.88369 0.88221 0.0
N621 N 0.52326 0.87929 0.87478 0.0
C622 C 0.49267 0.89867 0.89476 0.0
C623 C 0.47002 0.86686 0.86549 0.0
C624 C 0.52091 0.89609 0.89084 0.0
C625 C 0.49861 0.86477 0.86212 0.0
C626 C 0.38018 0.91483 0.88746 0.0
C627 C 0.36094 0.94822 0.88273 0.0
N628 N 0.38644 0.96127 0.87016 0.0
C629 C 0.40622 0.92859 0.87447 0.0
C630 C 0.35734 0.92471 0.8916 0.0
C631 C 0.40894 0.95201 0.86588 0.0
C632 C 0.36412 0.8779 0.83331 0.0
N633 N 0.39238 0.88079 0.84186 0.0
C634 C 0.41386 0.88812 0.80317 0.0
C635 C 0.41723 0.88652 0.8275 0.0
C636 C 0.38464 0.88371 0.7937 0.0
C637 C 0.35964 0.87912 0.80903 0.0
H638 H 0.34489 0.87372 0.84529 0.0
H639 H 0.43948 0.88916 0.83485 0.0
C640 C 0.45765 0.91516 0.94613 0.0
N641 N 0.4375 0.92005 0.93144 0.0
C642 C 0.47486 0.933 0.96214 0.0
C643 C 0.45033 0.96075 0.94765 0.0
C644 C 0.43333 0.94223 0.93201 0.0
C645 C 0.47129 0.95609 0.96293 0.0
H646 H 0.46012 0.89721 0.94547 0.0
H647 H 0.41655 0.94552 0.92077 0.0
C648 C 0.36198 0.82814 0.86347 0.0
N649 N 0.33104 0.8078 0.82237 0.0
C650 C 0.3303 0.82227 0.86187 0.0
C651 C 0.37781 0.82327 0.84425 0.0
C652 C 0.31509 0.81206 0.84094 0.0
C653 C 0.36181 0.81314 0.82359 0.0
C654 C 0.39311 0.86626 0.95358 0.0
C655 C 0.40194 0.85571 0.9732 0.0
C656 C 0.37629 0.88179 0.95684 0.0
C657 C 0.39373 0.86084 0.99582 0.0
C658 C 0.36854 0.88646 0.97974 0.0
N659 N 0.37735 0.87598 -0.00141 0.0
C660 C 0.4617 0.83792 0.92176 0.0
C661 C 0.43204 0.81072 0.89213 0.0
C662 C 0.47951 0.82316 0.92476 0.0
N663 N 0.43867 0.83152 0.90556 0.0
C664 C 0.44928 0.79551 0.89448 0.0
C665 C 0.4735 0.80179 0.91083 0.0
H666 H 0.46634 0.85461 0.9322 0.0
H667 H 0.41339 0.80599 0.87958 0.0
C668 C 0.30462 0.85109 0.91517 0.0
N669 N 0.32736 0.84283 0.92153 0.0
C670 C 0.27418 0.83705 0.92065 0.0
C671 C 0.29164 0.80736 0.94055 0.0
C672 C 0.32166 0.82187 0.93457 0.0
C673 C 0.26743 0.81444 0.93276 0.0
H674 H 0.30994 0.86774 0.9046 0.0
H675 H 0.3403 0.81575 0.93915 0.0
O676 O 0.43892 0.88567 0.88609 0.0
O677 O 0.37662 0.89168 0.89588 0.0
O678 O 0.37737 0.83862 0.8837 0.0
O679 O 0.40148 0.86168 0.93139 0.0
H680 H 0.49101 0.91228 0.90728 0.0
H681 H 0.45045 0.85524 0.85549 0.0
H682 H 0.54098 0.90749 0.90053 0.0
H683 H 0.50119 0.85157 0.84946 0.0
H684 H 0.34345 0.9561 0.88584 0.0
H685 H 0.42426 0.92142 0.87112 0.0
H686 H 0.33705 0.91434 0.90161 0.0
H687 H 0.42897 0.96285 0.85583 0.0
H688 H 0.43365 0.89174 0.7918 0.0
H689 H 0.33687 0.87599 0.80228 0.0
H690 H 0.49078 0.92882 0.9738 0.0
H691 H 0.44662 0.97826 0.94824 0.0
H692 H 0.31753 0.82567 0.87652 0.0
H693 H 0.40226 0.82757 0.8451 0.0
H694 H 0.29062 0.80758 0.83945 0.0
H695 H 0.37386 0.80958 0.8085 0.0
H696 H 0.41511 0.84375 0.97095 0.0
H697 H 0.36939 0.89026 0.9419 0.0
H698 H 0.40044 0.85281 0.01117 0.0
H699 H 0.35556 0.89846 0.98252 0.0
H700 H 0.49785 0.82844 0.93767 0.0
H701 H 0.44341 0.77876 0.88391 0.0
H702 H 0.25602 0.84304 0.91441 0.0
H703 H 0.28725 0.78989 0.94967 0.0
Li704 Li 0.50497 0.39446 0.41708 0.0
Li705 Li 0.50056 0.35284 0.40947 0.0
Li706 Li 0.54816 0.38659 0.40118 0.0
Li707 Li 0.50163 0.37857 0.3752 0.0
C708 C 0.52968 0.38239 0.45527 0.0
N709 N 0.5311 0.39608 0.50224 0.0
C710 C 0.50993 0.36627 0.47162 0.0
C711 C 0.55038 0.40536 0.4629 0.0
C712 C 0.51098 0.37355 0.49527 0.0
C713 C 0.55065 0.41198 0.48668 0.0
C714 C 0.44299 0.34968 0.40562 0.0
C715 C 0.39597 0.31806 0.39267 0.0
N716 N 0.38848 0.3115 0.41558 0.0
C717 C 0.43474 0.34275 0.42903 0.0
C718 C 0.42342 0.33734 0.38726 0.0
C719 C 0.40713 0.32334 0.4337 0.0
C720 C 0.50634 0.4417 0.42897 0.0
N721 N 0.49524 0.41767 0.43639 0.0
C722 C 0.47915 0.42965 0.47301 0.0
C723 C 0.48058 0.41124 0.4575 0.0
C724 C 0.49215 0.45468 0.46627 0.0
C725 C 0.50492 0.46063 0.44369 0.0
H726 H 0.5173 0.44632 0.41193 0.0
H727 H 0.47124 0.39198 0.46277 0.0
C728 C 0.50742 0.31404 0.43436 0.0
N729 N 0.48815 0.31876 0.41869 0.0
C730 C 0.5075 0.29005 0.43697 0.0
C731 C 0.46642 0.27571 0.40842 0.0
C732 C 0.46727 0.30011 0.40623 0.0
C733 C 0.48756 0.27064 0.42328 0.0
H734 H 0.5249 0.32927 0.44308 0.0
H735 H 0.45335 0.30438 0.39294 0.0
C736 C 0.55565 0.42959 0.38131 0.0
N737 N 0.60824 0.46695 0.36596 0.0
C738 C 0.5614 0.43369 0.35714 0.0
C739 C 0.57645 0.44472 0.39767 0.0
C740 C 0.58816 0.45262 0.34973 0.0
C741 C 0.60296 0.46344 0.38957 0.0
C742 C 0.52957 0.33638 0.37507 0.0
C743 C 0.55201 0.3295 0.38624 0.0
C744 C 0.51007 0.32046 0.35849 0.0
C745 C 0.55439 0.30662 0.38075 0.0
C746 C 0.51324 0.29776 0.35345 0.0
N747 N 0.53515 0.29137 0.36459 0.0
C748 C 0.60555 0.39301 0.42093 0.0
C749 C 0.60627 0.39884 0.37941 0.0
C750 C 0.63636 0.39555 0.42079 0.0
N751 N 0.5912 0.3946 0.40044 0.0
C752 C 0.63721 0.40168 0.37847 0.0
C753 C 0.65254 0.39979 0.39934 0.0
H754 H 0.59275 0.38866 0.43725 0.0
H755 H 0.59401 0.39922 0.36329 0.0
C756 C 0.46311 0.38439 0.33841 0.0
N757 N 0.489 0.37988 0.34381 0.0
C758 C 0.45503 0.38567 0.31477 0.0
C759 C 0.50068 0.37801 0.30301 0.0
C760 C 0.50759 0.37652 0.32675 0.0
C761 C 0.47423 0.38277 0.29686 0.0
H762 H 0.44886 0.38707 0.35243 0.0
H763 H 0.52806 0.37302 0.33167 0.0
O764 O 0.52886 0.37568 0.43198 0.0
O765 O 0.46989 0.36866 0.4007 0.0
O766 O 0.52976 0.41092 0.38894 0.0
O767 O 0.52663 0.35857 0.38041 0.0
H768 H 0.49368 0.34846 0.4661 0.0
H769 H 0.56597 0.41799 0.45058 0.0
H770 H 0.4957 0.36132 0.50807 0.0
H771 H 0.56639 0.42978 0.49277 0.0
H772 H 0.38066 0.30826 0.37864 0.0
H773 H 0.44961 0.35213 0.44342 0.0
H774 H 0.42949 0.34242 0.36904 0.0
H775 H 0.40054 0.31769 0.45174 0.0
H776 H 0.46878 0.42449 0.49026 0.0
H777 H 0.51502 0.4798 0.43796 0.0
H778 H 0.52501 0.28729 0.44793 0.0
H779 H 0.45098 0.26131 0.39733 0.0
H780 H 0.54543 0.42241 0.34421 0.0
H781 H 0.57222 0.442 0.41642 0.0
H782 H 0.59296 0.45591 0.33107 0.0
H783 H 0.61934 0.47517 0.40205 0.0
H784 H 0.56718 0.34156 0.39922 0.0
H785 H 0.49248 0.32549 0.34979 0.0
H786 H 0.57148 0.30094 0.38939 0.0
H787 H 0.49821 0.28518 0.34075 0.0
H788 H 0.64699 0.39311 0.43714 0.0
H789 H 0.64885 0.40473 0.36156 0.0
H790 H 0.43441 0.38927 0.3105 0.0
H791 H 0.51574 0.37537 0.28956 0.0
Li792 Li 0.08386 0.60124 0.91362 0.0
Li793 Li 0.13258 0.61294 0.89764 0.0
Li794 Li 0.11327 0.64498 0.91226 0.0
Li795 Li 0.09206 0.61918 0.87434 0.0
C796 C 0.11769 0.61029 0.95247 0.0
N797 N 0.10618 0.5909 -0.00237 0.0
C798 C 0.11935 0.58703 0.95741 0.0
C799 C 0.11052 0.62382 0.97057 0.0
C800 C 0.1133 0.57749 0.98032 0.0
C801 C 0.10475 0.61368 0.99328 0.0
C802 C 0.10654 0.57134 0.87419 0.0
C803 C 0.12236 0.55478 0.83944 0.0
N804 N 0.1304 0.53882 0.8533 0.0
C805 C 0.11483 0.55467 0.88807 0.0
C806 C 0.11026 0.57137 0.84966 0.0
C807 C 0.12693 0.53843 0.87719 0.0
C808 C 0.04788 0.55219 0.92455 0.0
N809 N 0.05476 0.57596 0.93213 0.0
C810 C 0.02655 0.56175 0.96779 0.0
C811 C 0.04367 0.58107 0.95296 0.0
C812 C 0.02099 0.5371 0.96103 0.0
C813 C 0.03102 0.53235 0.93884 0.0
H814 H 0.05628 0.54858 0.90771 0.0
H815 H 0.04922 0.60009 0.95857 0.0
C816 C 0.18571 0.60834 0.91651 0.0
N817 N 0.17025 0.6067 0.89586 0.0
C818 C 0.2139 0.60517 0.91686 0.0
C819 C 0.21012 0.59885 0.87459 0.0
C820 C 0.18193 0.60212 0.87506 0.0
C821 C 0.22645 0.6004 0.8957 0.0
H822 H 0.17644 0.61256 0.93274 0.0
H823 H 0.16975 0.60153 0.85875 0.0
C824 C 0.04179 0.62227 0.91087 0.0
N825 N 0.98411 0.60909 0.93057 0.0
C826 C 0.01733 0.60266 0.90126 0.0
C827 C 0.03693 0.63537 0.9303 0.0
C828 C 0.98834 0.59622 0.91156 0.0
C829 C 0.00757 0.62838 0.94005 0.0
C830 C 0.1621 0.65282 0.87151 0.0
C831 C 0.18716 0.66636 0.88552 0.0
C832 C 0.1667 0.64821 0.84781 0.0
C833 C 0.21648 0.675 0.8756 0.0
C834 C 0.19637 0.6572 0.83853 0.0
N835 N 0.22044 0.67028 0.85251 0.0
C836 C 0.15106 0.68323 0.93981 0.0
C837 C 0.11635 0.69487 0.91631 0.0
C838 C 0.1678 0.70801 0.94502 0.0
N839 N 0.12664 0.67729 0.92499 0.0
C840 C 0.13235 0.71999 0.92122 0.0
C841 C 0.15937 0.72681 0.93474 0.0
H842 H 0.15907 0.66886 0.94599 0.0
H843 H 0.09705 0.68953 0.90431 0.0
C844 C 0.05439 0.59914 0.83516 0.0
N845 N 0.07609 0.62003 0.84389 0.0
C846 C 0.04592 0.59798 0.81141 0.0
C847 C 0.08073 0.64045 0.80666 0.0
C848 C 0.08851 0.64078 0.83049 0.0
C849 C 0.0598 0.61861 0.79673 0.0
H850 H 0.04497 0.58294 0.84633 0.0
H851 H 0.10568 0.65713 0.83801 0.0
O852 O 0.12325 0.61984 0.93008 0.0
O853 O 0.0946 0.58737 0.88455 0.0
O854 O 0.07037 0.62873 0.90121 0.0
O855 O 0.13328 0.64388 0.88101 0.0
H856 H 0.12502 0.57638 0.94365 0.0
H857 H 0.10893 0.64178 0.96705 0.0
H858 H 0.11422 0.55941 0.98434 0.0
H859 H 0.09896 0.62386 0.00742 0.0
H860 H 0.12552 0.55471 0.8205 0.0
H861 H 0.11211 0.55435 0.90705 0.0
H862 H 0.10442 0.58431 0.83862 0.0
H863 H 0.13357 0.52553 0.88774 0.0
H864 H 0.01898 0.56602 0.9848 0.0
H865 H 0.02647 0.51349 0.93288 0.0
H866 H 0.22587 0.60659 0.93351 0.0
H867 H 0.21942 0.59582 0.85782 0.0
H868 H 0.02081 0.59239 0.88619 0.0
H869 H 0.05569 0.65062 0.93787 0.0
H870 H 0.96921 0.58097 0.90444 0.0
H871 H 0.00346 0.63824 0.95518 0.0
H872 H 0.18408 0.66989 0.90393 0.0
H873 H 0.14765 0.63744 0.83679 0.0
H874 H 0.2361 0.68539 0.88627 0.0
H875 H 0.20029 0.65365 0.82026 0.0
H876 H 0.18865 0.71243 0.95529 0.0
H877 H 0.12489 0.73395 0.91326 0.0
H878 H 0.02973 0.58082 0.80435 0.0
H879 H 0.09241 0.65657 0.79583 0.0
Li880 Li 0.59065 0.13872 0.40576 0.0
Li881 Li 0.63918 0.13121 0.4119 0.0
Li882 Li 0.60349 0.10942 0.38136 0.0
Li883 Li 0.59119 0.10101 0.42129 0.0
C884 C 0.6434 0.17047 0.38177 0.0
N885 N 0.67899 0.22036 0.37832 0.0
C886 C 0.64835 0.18586 0.40165 0.0
C887 C 0.65653 0.18048 0.36015 0.0
C888 C 0.66643 0.21102 0.39954 0.0
C889 C 0.67444 0.20574 0.35876 0.0
C890 C 0.60867 0.12859 0.45907 0.0
C891 C 0.62683 0.11167 0.49239 0.0
N892 N 0.60474 0.11502 0.50614 0.0
C893 C 0.58628 0.13202 0.47355 0.0
C894 C 0.62922 0.11844 0.46856 0.0
C895 C 0.58462 0.12498 0.49729 0.0
C896 C 0.54464 0.15412 0.42237 0.0
N897 N 0.56888 0.16097 0.40728 0.0
C898 C 0.5589 0.19728 0.39606 0.0
C899 C 0.57575 0.18172 0.39372 0.0
C900 C 0.53443 0.19117 0.41219 0.0
C901 C 0.52697 0.169 0.42512 0.0
H902 H 0.53895 0.13696 0.43219 0.0
H903 H 0.59422 0.18628 0.38105 0.0
C904 C 0.70181 0.14151 0.40475 0.0
N905 N 0.68116 0.14624 0.41903 0.0
C906 C 0.73307 0.15511 0.40732 0.0
C907 C 0.72102 0.17735 0.43983 0.0
C908 C 0.69009 0.16326 0.4367 0.0
C909 C 0.74291 0.17374 0.42468 0.0
H910 H 0.69386 0.12795 0.39071 0.0
H911 H 0.67306 0.16684 0.44755 0.0
C912 C 0.54345 0.10678 0.3799 0.0
N913 N 0.50221 0.11021 0.34629 0.0
C914 C 0.5128 0.09091 0.38088 0.0
C915 C 0.55312 0.12444 0.36181 0.0
C916 C 0.49231 0.09292 0.36373 0.0
C917 C 0.53192 0.12586 0.345 0.0
C918 C 0.61857 0.07084 0.39921 0.0
C919 C 0.58832 0.05515 0.39503 0.0
C920 C 0.6421 0.06125 0.39818 0.0
C921 C 0.58213 0.0301 0.38991 0.0
C922 C 0.63498 0.03609 0.39299 0.0
N923 N 0.60539 0.02116 0.389 0.0
C924 C 0.62606 0.10896 0.33636 0.0
C925 C 0.57675 0.07819 0.34191 0.0
C926 C 0.62556 0.10295 0.3125 0.0
N927 N 0.60164 0.09697 0.35034 0.0
C928 C 0.57535 0.07142 0.31813 0.0
C929 C 0.5998 0.08416 0.30304 0.0
H930 H 0.64551 0.12379 0.34365 0.0
H931 H 0.5576 0.06897 0.35345 0.0
C932 C 0.54102 0.07552 0.44843 0.0
N933 N 0.56987 0.07666 0.44325 0.0
C934 C 0.52318 0.05789 0.46436 0.0
C935 C 0.56532 0.0432 0.46944 0.0
C936 C 0.58247 0.06127 0.45353 0.0
C937 C 0.53524 0.04129 0.47472 0.0
H938 H 0.53192 0.08828 0.44005 0.0
H939 H 0.60571 0.06299 0.4493 0.0
O940 O 0.62633 0.14564 0.38342 0.0
O941 O 0.61024 0.13477 0.43564 0.0
O942 O 0.56359 0.10484 0.39667 0.0
O943 O 0.62542 0.09547 0.40435 0.0
H944 H 0.63822 0.17857 0.4185 0.0
H945 H 0.65292 0.16887 0.34458 0.0
H946 H 0.67044 0.22312 0.41478 0.0
H947 H 0.68474 0.21373 0.34212 0.0
H948 H 0.64244 0.10363 0.49993 0.0
H949 H 0.57029 0.13995 0.46655 0.0
H950 H 0.64651 0.11543 0.45754 0.0
H951 H 0.56731 0.12742 0.50868 0.0
H952 H 0.56528 0.21414 0.38564 0.0
H953 H 0.50767 0.16319 0.43715 0.0
H954 H 0.74924 0.15192 0.39521 0.0
H955 H 0.72745 0.19204 0.45293 0.0
H956 H 0.50496 0.07715 0.39477 0.0
H957 H 0.57668 0.13691 0.36066 0.0
H958 H 0.46852 0.08073 0.36428 0.0
H959 H 0.5391 0.13941 0.3309 0.0
H960 H 0.56974 0.06212 0.39582 0.0
H961 H 0.66563 0.07316 0.40137 0.0
H962 H 0.55883 0.01776 0.38668 0.0
H963 H 0.65297 0.02842 0.39214 0.0
H964 H 0.64453 0.11373 0.30138 0.0
H965 H 0.55507 0.05688 0.31146 0.0
H966 H 0.5 0.0568 0.4681 0.0
H967 H 0.57532 0.03079 0.47744 0.0
Li968 Li 0.49994 0.63785 0.91036 0.0
Li969 Li 0.49347 0.59548 0.91823 0.0
Li970 Li 0.49824 0.6117 0.87623 0.0
Li971 Li 0.45154 0.60509 0.90152 0.0
C972 C 0.55695 0.63743 0.90958 0.0
N973 N 0.61257 0.67106 0.92467 0.0
C974 C 0.56317 0.64121 0.93372 0.0
C975 C 0.57911 0.65056 0.89309 0.0
C976 C 0.59138 0.65837 0.94101 0.0
C977 C 0.60708 0.66752 0.90108 0.0
C978 C 0.4691 0.61059 0.95628 0.0
C979 C 0.44609 0.5843 0.98953 0.0
N980 N 0.46586 0.60112 0.00431 0.0
C981 C 0.48911 0.62767 0.97183 0.0
C982 C 0.44729 0.58879 0.96521 0.0
C983 C 0.48712 0.62253 0.99604 0.0
C984 C 0.49284 0.67755 0.93299 0.0
N985 N 0.51346 0.67199 0.91938 0.0
C986 C 0.53953 0.71502 0.91051 0.0
C987 C 0.53704 0.69016 0.90866 0.0
C988 C 0.51694 0.72098 0.92282 0.0
C989 C 0.4942 0.70198 0.93502 0.0
H990 H 0.47354 0.66274 0.94045 0.0
H991 H 0.55234 0.68532 0.89705 0.0
C992 C 0.49368 0.54826 0.92687 0.0
N993 N 0.50106 0.57097 0.93719 0.0
C994 C 0.49253 0.52767 0.94025 0.0
C995 C 0.50893 0.55448 0.97433 0.0
C996 C 0.51012 0.57465 0.96017 0.0
C997 C 0.49888 0.53049 0.96453 0.0
H998 H 0.48753 0.54591 0.90839 0.0
H999 H 0.5169 0.59296 0.96786 0.0
C1000 C 0.47307 0.65515 0.87468 0.0
N1001 N 0.46975 0.70024 0.86148 0.0
C1002 C 0.4504 0.66293 0.88421 0.0
C1003 C 0.49402 0.67025 0.85842 0.0
C1004 C 0.44919 0.68586 0.87738 0.0
C1005 C 0.49194 0.69298 0.85195 0.0
C1006 C 0.44223 0.56081 0.88415 0.0
C1007 C 0.43357 0.55559 0.86053 0.0
C1008 C 0.42362 0.54643 0.90205 0.0
C1009 C 0.40614 0.53624 0.85522 0.0
C1010 C 0.39637 0.52724 0.89603 0.0
N1011 N 0.38825 0.5226 0.87294 0.0
C1012 C 0.53828 0.60807 0.83942 0.0
C1013 C 0.49103 0.61143 0.82798 0.0
C1014 C 0.54654 0.60737 0.81574 0.0
N1015 N 0.51097 0.61016 0.84494 0.0
C1016 C 0.49814 0.61044 0.80421 0.0
C1017 C 0.5262 0.60849 0.79791 0.0
H1018 H 0.55356 0.60696 0.85337 0.0
H1019 H 0.46955 0.61316 0.83301 0.0
C1020 C 0.39402 0.5996 0.92039 0.0
N1021 N 0.40877 0.59813 0.90007 0.0
C1022 C 0.3635 0.59781 0.9198 0.0
C1023 C 0.36371 0.59272 0.87737 0.0
C1024 C 0.39434 0.59468 0.87878 0.0
C1025 C 0.34812 0.59465 0.89806 0.0
H1026 H 0.40628 0.60316 0.93696 0.0
H1027 H 0.40697 0.5944 0.86282 0.0
O1028 O 0.52947 0.62072 0.90213 0.0
O1029 O 0.47052 0.61539 0.93252 0.0
O1030 O 0.47458 0.63274 0.88105 0.0
O1031 O 0.46875 0.57994 0.88975 0.0
H1032 H 0.54635 0.63107 0.94667 0.0
H1033 H 0.57463 0.64789 0.87433 0.0
H1034 H 0.59645 0.66157 0.95964 0.0
H1035 H 0.62439 0.67792 0.88853 0.0
H1036 H 0.42943 0.56744 0.99664 0.0
H1037 H 0.5062 0.64462 0.96531 0.0
H1038 H 0.43153 0.57541 0.95351 0.0
H1039 H 0.50254 0.63553 0.00824 0.0
H1040 H 0.55773 0.72914 0.90113 0.0
H1041 H 0.47597 0.70557 0.94437 0.0
H1042 H 0.48589 0.50962 0.93183 0.0
H1043 H 0.51444 0.55746 0.99295 0.0
H1044 H 0.43408 0.65147 0.89688 0.0
H1045 H 0.51173 0.66447 0.85093 0.0
H1046 H 0.4319 0.69221 0.88471 0.0
H1047 H 0.508 0.7049 0.8394 0.0
H1048 H 0.44778 0.56641 0.84644 0.0
H1049 H 0.43013 0.55009 0.9204 0.0
H1050 H 0.39907 0.53207 0.83702 0.0
H1051 H 0.38169 0.51604 0.90972 0.0
H1052 H 0.56832 0.60574 0.81138 0.0
H1053 H 0.48205 0.61153 0.79085 0.0
H1054 H 0.35224 0.5995 0.9361 0.0
H1055 H 0.35279 0.59085 0.86022 0.0
C1056 C 0.57061 0.08001 0.26535 0.0
C1057 C 0.59718 0.08009 0.27715 0.0
C1058 C 0.56961 0.08093 0.24064 0.0
C1059 C 0.5952 0.08213 0.22702 0.0
H1060 H 0.55112 0.08076 0.27525 0.0
H1061 H 0.54941 0.08224 0.23223 0.0
S1062 S 0.66814 0.07853 0.24894 0.0
N1063 N 0.64804 0.07796 0.2731 0.0
N1064 N 0.64633 0.08041 0.22659 0.0
C1065 C 0.62106 0.08051 0.23841 0.0
C1066 C 0.622 0.07931 0.26353 0.0
C1067 C 0.51729 0.59121 0.73326 0.0
C1068 C 0.54154 0.61056 0.72272 0.0
C1069 C 0.51338 0.58999 0.7578 0.0
C1070 C 0.53379 0.60788 0.77264 0.0
H1071 H 0.50018 0.57773 0.7224 0.0
H1072 H 0.4936 0.57547 0.76518 0.0
S1073 S 0.60261 0.6608 0.75402 0.0
N1074 N 0.58751 0.64692 0.72904 0.0
N1075 N 0.58021 0.6445 0.77536 0.0
C1076 C 0.55913 0.62647 0.76249 0.0
C1077 C 0.56296 0.62787 0.73745 0.0
C1078 C 0.91992 0.39856 0.23515 0.0
C1079 C 0.93218 0.38458 0.22072 0.0
C1080 C 0.92398 0.39928 0.25966 0.0
C1081 C 0.94012 0.38579 0.27062 0.0
H1082 H 0.90637 0.40847 0.22746 0.0
H1083 H 0.91309 0.4095 0.2702 0.0
S1084 S 0.9784 0.34768 0.24047 0.0
N1085 N 0.96253 0.3581 0.21881 0.0
N1086 N 0.97001 0.35927 0.26512 0.0
C1087 C 0.9535 0.3725 0.2563 0.0
C1088 C 0.94963 0.37199 0.23126 0.0
C1089 C 0.39918 0.9018 0.7535 0.0
C1090 C 0.38035 0.88243 0.76782 0.0
C1091 C 0.39805 0.89973 0.72886 0.0
C1092 C 0.37814 0.87816 0.71771 0.0
H1093 H 0.41532 0.91848 0.76145 0.0
H1094 H 0.41326 0.91493 0.71844 0.0
S1095 S 0.32456 0.82202 0.74738 0.0
N1096 N 0.34126 0.84105 0.76924 0.0
N1097 N 0.33924 0.83706 0.72281 0.0
C1098 C 0.35868 0.85889 0.73182 0.0
C1099 C 0.35977 0.86104 0.75693 0.0
C1100 C 0.4403 0.36671 0.26192 0.0
C1101 C 0.46691 0.38428 0.27169 0.0
C1102 C 0.43562 0.36524 0.23739 0.0
C1103 C 0.45716 0.38159 0.222 0.0
H1104 H 0.42387 0.3532 0.27319 0.0
H1105 H 0.41563 0.35069 0.23033 0.0
S1106 S 0.52937 0.43206 0.23919 0.0
N1107 N 0.51405 0.41921 0.26448 0.0
N1108 N 0.50526 0.4166 0.2184 0.0
C1109 C 0.48301 0.40008 0.23174 0.0
C1110 C 0.4879 0.40137 0.25661 0.0
C1111 C 0.06294 0.59565 0.73458 0.0
C1112 C 0.05978 0.61471 0.72053 0.0
C1113 C 0.06101 0.59636 0.75922 0.0
C1114 C 0.05608 0.61626 0.77073 0.0
H1115 H 0.06803 0.58052 0.72648 0.0
H1116 H 0.06508 0.58189 0.76937 0.0
S1117 S 0.04355 0.6696 0.74184 0.0
N1118 N 0.04945 0.65315 0.71969 0.0
N1119 N 0.04561 0.65442 0.76617 0.0
C1120 C 0.05131 0.63477 0.75683 0.0
C1121 C 0.05312 0.63398 0.73168 0.0
C1122 C 0.50224 0.986 0.02152 0.0
C1123 C 0.52062 0.01025 0.01491 0.0
C1124 C 0.48662 0.96846 0.00448 0.0
C1125 C 0.48854 0.9748 0.98039 0.0
H1126 H 0.49996 0.9806 0.03998 0.0
H1127 H 0.47253 0.94993 0.0102 0.0
S1128 S 0.53354 0.03593 0.95415 0.0
N1129 N 0.53996 0.03983 0.98285 0.0
N1130 N 0.51036 0.00677 0.95071 0.0
C1131 C 0.50686 -0.00102 0.97357 0.0
C1132 C 0.52303 0.01674 0.99088 0.0
C1133 C 0.48577 0.51295 0.49272 0.0
C1134 C 0.50259 0.51579 0.51387 0.0
C1135 C 0.48198 0.49286 0.47754 0.0
C1136 C 0.49451 0.47475 0.48317 0.0
H1137 H 0.47526 0.52627 0.48791 0.0
H1138 H 0.46915 0.49143 0.46131 0.0
S1139 S 0.54198 0.47419 0.53546 0.0
N1140 N 0.53317 0.49931 0.53895 0.0
N1141 N 0.52524 0.46117 0.51063 0.0
C1142 C 0.51132 0.47726 0.50418 0.0
C1143 C 0.51553 0.49787 0.5195 0.0
C1144 C 0.97758 0.51368 0.98756 0.0
C1145 C 0.00608 0.51645 0.97751 0.0
C1146 C 0.96321 0.49422 0.00328 0.0
C1147 C 0.977 0.47701 0.0096 0.0
H1148 H 0.96617 0.52647 0.98302 0.0
H1149 H 0.94099 0.49248 0.01035 0.0
S1150 S 0.05289 0.47767 0.98965 0.0
N1151 N 0.04841 0.50138 0.97581 0.0
N1152 N 0.02156 0.4649 0.0056 0.0
C1153 C 0.00576 0.47987 -6e-05 0.0
C1154 C 0.02029 0.4996 0.98385 0.0
C1155 C 0.50173 0.02729 0.51012 0.0
C1156 C 0.51586 0.02141 0.49023 0.0
C1157 C 0.48244 0.0085 0.52463 0.0
C1158 C 0.47636 0.98337 0.51933 0.0
H1159 H 0.50574 0.04651 0.5145 0.0
H1160 H 0.47195 0.01358 0.53989 0.0
S1161 S 0.50788 0.95842 0.46937 0.0
N1162 N 0.52266 0.9889 0.46603 0.0
N1163 N 0.48629 0.95352 0.49331 0.0
C1164 C 0.49042 0.9773 0.49955 0.0
C1165 C 0.51025 -0.00363 0.48498 0.0
C1166 C 0.51601 0.50829 0.99642 0.0
C1167 C 0.49377 0.50843 0.97973 0.0
C1168 C 0.51126 0.48783 0.0113 0.0
C1169 C 0.48417 0.46679 0.00996 0.0
H1170 H 0.53731 0.52403 -0.00213 0.0
H1171 H 0.52905 0.48836 0.02381 0.0
S1172 S 0.41792 0.45855 0.97059 0.0
N1173 N 0.4429 0.48624 0.96369 0.0
N1174 N 0.43438 0.44761 0.99144 0.0
C1175 C 0.4617 0.4667 0.99351 0.0
C1176 C 0.46639 0.48757 0.97845 0.0
C1177 C 0.9871 0.49133 0.48207 0.0
C1178 C 0.99227 0.46901 0.48565 0.0
C1179 C -0.00017 0.51159 0.49721 0.0
C1180 C 0.01821 0.51027 0.51645 0.0
H1181 H 0.97296 0.49311 0.46751 0.0
H1182 H 0.99532 0.52847 0.49378 0.0
S1183 S 0.03938 0.45621 0.533 0.0
N1184 N 0.01714 0.44671 0.50956 0.0
N1185 N 0.04148 0.48502 0.53802 0.0
C1186 C 0.02338 0.48798 0.52034 0.0
C1187 C 0.0103 0.46728 0.50493 0.0
C1188 C 0.50848 0.22239 0.09995 0.0
C1189 C 0.50203 0.20249 0.08391 0.0
C1190 C 0.49449 0.24003 0.09784 0.0
C1191 C 0.47365 0.23865 0.07951 0.0
H1192 H 0.52522 0.22485 0.11388 0.0
H1193 H 0.50089 0.25542 0.11021 0.0
S1194 S 0.44707 0.18951 0.03385 0.0
N1195 N 0.47169 0.18161 0.0499 0.0
N1196 N 0.44616 0.21551 0.04557 0.0
C1197 C 0.4665 0.21876 0.06354 0.0
C1198 C 0.4805 0.2005 0.06583 0.0
C1199 C 0.30609 0.59026 0.60052 0.0
C1200 C 0.33205 0.61227 0.60075 0.0
C1201 C 0.27644 0.59106 0.6003 0.0
C1202 C 0.2718 0.61389 0.60034 0.0
H1203 H 0.30873 0.57234 0.59993 0.0
H1204 H 0.25704 0.57372 0.59953 0.0
S1205 S 0.33222 0.67661 0.60384 0.0
N1206 N 0.35126 0.65738 0.60299 0.0
N1207 N 0.29557 0.65891 0.60263 0.0
C1208 C 0.29758 0.63598 0.60137 0.0
C1209 C 0.3277 0.63516 0.60158 0.0
C1210 C 0.80117 0.22866 0.08464 0.0
C1211 C 0.81185 0.24014 0.06276 0.0
C1212 C 0.77485 0.20722 0.08603 0.0
C1213 C 0.75828 0.19654 0.06559 0.0
H1214 H 0.81176 0.23729 0.10101 0.0
H1215 H 0.76619 0.20005 0.10334 0.0
S1216 S 0.77999 0.21631 0.0038 0.0
N1217 N 0.80654 0.2369 0.01998 0.0
N1218 N 0.75658 0.19672 0.0227 0.0
C1219 C 0.77011 0.2065 0.0435 0.0
C1220 C 0.79706 0.22824 0.04205 0.0
C1221 C 0.50378 0.78038 0.55378 0.0
C1222 C 0.48917 0.78418 0.57439 0.0
C1223 C 0.51703 0.76202 0.5529 0.0
C1224 C 0.51613 0.7469 0.57262 0.0
H1225 H 0.50453 0.79139 0.53812 0.0
H1226 H 0.52742 0.75925 0.53654 0.0
S1227 S 0.47901 0.74856 0.63034 0.0
N1228 N 0.47379 0.77088 0.61468 0.0
N1229 N 0.49853 0.73648 0.61309 0.0
C1230 C 0.50189 0.75078 0.59342 0.0
C1231 C 0.48845 0.76939 0.59429 0.0
C1232 C 0.6719 0.37314 0.11353 0.0
C1233 C 0.66028 0.38328 0.09492 0.0
C1234 C 0.70218 0.37383 0.11313 0.0
C1235 C 0.72196 0.3849 0.0942 0.0
H1236 H 0.65723 0.36403 0.12817 0.0
H1237 H 0.70989 0.36506 0.12747 0.0
S1238 S 0.70313 0.41649 0.04251 0.0
N1239 N 0.67099 0.40601 0.05788 0.0
N1240 N 0.72824 0.40804 0.05736 0.0
C1241 C 0.71077 0.39587 0.07589 0.0
C1242 C 0.67986 0.39489 0.0762 0.0
C1243 C 0.18158 0.76837 0.56643 0.0
C1244 C 0.17367 0.75197 0.54706 0.0
C1245 C 0.20827 0.78964 0.56597 0.0
C1246 C 0.22766 0.79497 0.54616 0.0
H1247 H 0.16914 0.76336 0.58295 0.0
H1248 H 0.21544 0.80039 0.58205 0.0
S1249 S 0.21323 0.76131 0.48913 0.0
N1250 N 0.18397 0.74523 0.50599 0.0
N1251 N 0.23471 0.78489 0.50547 0.0
C1252 C 0.21801 0.78053 0.52574 0.0
C1253 C 0.19071 0.75909 0.52608 0.0
C1254 C 0.72136 0.38334 0.38192 0.0
C1255 C 0.74379 0.39647 0.39847 0.0
C1256 C 0.69224 0.38512 0.38191 0.0
C1257 C 0.6844 0.40004 0.39851 0.0
H1258 H 0.72629 0.37147 0.36892 0.0
H1259 H 0.67548 0.37417 0.36921 0.0
S1260 S 0.73513 0.43877 0.44513 0.0
N1261 N 0.7563 0.42512 0.43175 0.0
N1262 N 0.70178 0.42897 0.43132 0.0
C1263 C 0.7068 0.41368 0.41485 0.0
C1264 C 0.73645 0.41182 0.41489 0.0
C1265 C 0.2241 0.78423 0.95544 0.0
C1266 C 0.23571 0.79624 0.934 0.0
C1267 C 0.19745 0.7629 0.95592 0.0
C1268 C 0.18171 0.75273 0.93494 0.0
H1269 H 0.23664 0.79057 0.97174 0.0
H1270 H 0.19018 0.75342 0.97262 0.0
S1271 S 0.20216 0.77812 0.87439 0.0
N1272 N 0.22865 0.79742 0.89153 0.0
N1273 N 0.17894 0.75717 0.8923 0.0
C1274 C 0.19204 0.76557 0.9136 0.0
C1275 C 0.21901 0.78736 0.91317 0.0
C1276 C 0.50863 0.21904 0.39603 0.0
C1277 C 0.51752 0.20835 0.41573 0.0
C1278 C 0.4966 0.23791 0.39876 0.0
C1279 C 0.49309 0.24688 0.42131 0.0
H1280 H 0.512 0.21339 0.3783 0.0
H1281 H 0.49175 0.24649 0.38299 0.0
S1282 S 0.50921 0.22297 0.4787 0.0
N1283 N 0.5196 0.20668 0.45866 0.0
N1284 N 0.49612 0.2417 0.46376 0.0
C1285 C 0.49983 0.23514 0.44121 0.0
C1286 C 0.51222 0.21597 0.43844 0.0
C1287 C 0.28152 0.61643 0.90759 0.0
C1288 C 0.25719 0.59838 0.89572 0.0
C1289 C 0.31076 0.61499 0.90821 0.0
C1290 C 0.31682 0.59547 0.89697 0.0
H1291 H 0.27801 0.63195 0.9163 0.0
H1292 H 0.32888 0.62946 0.91737 0.0
S1293 S 0.26074 0.54287 0.86445 0.0
N1294 N 0.24081 0.55995 0.87307 0.0
N1295 N 0.29602 0.55733 0.87416 0.0
C1296 C 0.29276 0.57728 0.88503 0.0
C1297 C 0.26289 0.57871 0.88442 0.0
C1298 C 0.78721 0.20378 0.40314 0.0
C1299 C 0.77466 0.19211 0.42455 0.0
C1300 C 0.81314 0.22558 0.40296 0.0
C1301 C 0.82731 0.23649 0.42418 0.0
H1302 H 0.77548 0.19729 0.38655 0.0
H1303 H 0.82042 0.23511 0.38627 0.0
S1304 S 0.80765 0.21021 0.48433 0.0
N1305 N 0.78156 0.19061 0.46706 0.0
N1306 N 0.83017 0.23197 0.4667 0.0
C1307 C 0.81694 0.22366 0.44544 0.0
C1308 C 0.79062 0.20136 0.44562 0.0
C1309 C 0.50429 0.75634 0.93975 0.0
C1310 C 0.51356 0.74557 0.92022 0.0
C1311 C 0.49322 0.77577 0.93679 0.0
C1312 C 0.49097 0.78507 0.91418 0.0
H1313 H 0.504 0.74877 0.95732 0.0
H1314 H 0.48455 0.78245 0.95211 0.0
S1315 S 0.51704 0.76651 0.8578 0.0
N1316 N 0.52318 0.74794 0.87779 0.0
N1317 N 0.50278 0.78469 0.87243 0.0
C1318 C 0.50261 0.77604 0.89481 0.0
C1319 C 0.51392 0.75628 0.89778 0.0
loop_
_geom_bond_atom_site_label_1
_geom_bond_atom_site_label_2
_geom_bond_distance
_geom_bond_site_symmetry_2
_ccdc_geom_bond_type
Li0 N17 1.990 . S
Li0 O60 1.956 . S
Li0 O61 1.970 . S
Li0 O62 1.961 . S
Li1 N25 1.990 . S
Li1 O60 1.970 . S
Li1 O61 1.956 . S
Li1 O63 1.961 . S
Li2 N47 1.990 . S
Li2 O60 1.961 . S
Li2 O62 1.956 . S
Li2 O63 1.970 . S
Li3 N53 1.990 . S
Li3 O61 1.961 . S
Li3 O62 1.970 . S
Li3 O63 1.956 . S
C4 C6 1.348 . S
C4 C7 1.356 . S
C4 O60 1.325 . S
N5 C8 1.287 1_556 S
N5 C9 1.279 . S
C6 C4 1.348 . S
C6 C8 1.394 . S
C6 H64 0.929 . S
C7 C4 1.356 . S
C7 C9 1.358 1_554 S
C7 H65 0.930 . S
C8 N5 1.287 1_554 S
C8 C6 1.394 . S
C8 H66 0.916 1_554 S
C9 N5 1.279 . S
C9 C7 1.358 1_556 S
C9 H67 0.930 . S
C10 C13 1.348 . S
C10 C14 1.356 . S
C10 O61 1.325 . S
C11 N12 1.279 . S
C11 C14 1.358 . S
C11 H68 0.930 . S
N12 C11 1.279 . S
N12 C15 1.314 . S
C13 C10 1.348 . S
C13 C15 1.353 . S
C13 H69 0.929 . S
C14 C10 1.356 . S
C14 C11 1.358 . S
C14 H70 0.930 . S
C15 N12 1.314 . S
C15 C13 1.353 . S
C15 H71 0.930 . S
C16 N17 1.314 . S
C16 C21 1.353 . S
C16 H22 0.930 . S
N17 Li0 1.990 . S
N17 C16 1.314 . S
N17 C19 1.279 . S
C18 C19 1.358 . S
C18 C20 1.356 . S
C18 H72 0.930 . S
C19 N17 1.279 . S
C19 C18 1.358 . S
C19 H23 0.930 . S
C20 C18 1.356 . S
C20 C21 1.348 . S
C21 C16 1.353 . S
C21 C20 1.348 . S
C21 H73 0.929 . S
H22 C16 0.930 . S
H23 C19 0.930 . S
C24 N25 1.314 . S
C24 C26 1.353 . S
C24 H30 0.930 . S
N25 Li1 1.990 . S
N25 C24 1.314 . S
N25 C28 1.279 . S
C26 C24 1.353 . S
C26 C29 1.348 . S
C26 H74 0.929 . S
C27 C28 1.358 . S
C27 C29 1.356 . S
C27 H75 0.930 . S
C28 N25 1.279 . S
C28 C27 1.358 . S
C28 H31 0.930 . S
C29 C26 1.348 . S
C29 C27 1.356 . S
H30 C24 0.930 . S
H31 C28 0.930 . S
C32 C34 1.348 . S
C32 C35 1.356 . S
C32 O62 1.325 . S
N33 C36 1.314 . S
N33 C37 1.279 . S
C34 C32 1.348 . S
C34 C36 1.353 . S
C34 H76 0.929 . S
C35 C32 1.356 . S
C35 C37 1.358 . S
C35 H77 0.930 . S
C36 N33 1.314 . S
C36 C34 1.353 . S
C36 H78 0.930 . S
C37 N33 1.279 . S
C37 C35 1.358 . S
C37 H79 0.930 . S
C38 C39 1.348 . S
C38 C40 1.356 . S
C38 O63 1.325 . S
C39 C38 1.348 . S
C39 C41 1.353 . S
C39 H80 0.929 . S
C40 C38 1.356 . S
C40 C42 1.358 . S
C40 H81 0.930 . S
C41 C39 1.353 . S
C41 N43 1.314 . S
C41 H82 0.930 . S
C42 C40 1.358 . S
C42 N43 1.279 . S
C42 H83 0.930 . S
N43 C41 1.314 . S
N43 C42 1.279 . S
C44 C46 1.353 . S
C44 N47 1.314 . S
C44 H50 0.930 . S
C45 N47 1.279 . S
C45 C48 1.358 . S
C45 H51 0.930 . S
C46 C44 1.353 . S
C46 C49 1.348 . S
C46 H84 0.914 1_554 S
N47 Li2 1.990 . S
N47 C44 1.314 . S
N47 C45 1.279 . S
C48 C45 1.358 . S
C48 C49 1.356 . S
C48 H85 0.930 . S
C49 C46 1.348 . S
C49 C48 1.356 . S
H50 C44 0.930 . S
H51 C45 0.930 . S
C52 N53 1.314 . S
C52 C54 1.353 . S
C52 H58 0.930 . S
N53 Li3 1.990 . S
N53 C52 1.314 . S
N53 C56 1.279 . S
C54 C52 1.353 . S
C54 C57 1.348 . S
C54 H86 0.929 . S
C55 C56 1.358 . S
C55 C57 1.356 . S
C55 H87 0.930 . S
C56 N53 1.279 . S
C56 C55 1.358 . S
C56 H59 0.930 . S
C57 C54 1.348 . S
C57 C55 1.356 . S
H58 C52 0.930 . S
H59 C56 0.930 . S
O60 Li0 1.956 . S
O60 Li1 1.970 . S
O60 Li2 1.961 . S
O60 C4 1.325 . S
O61 Li0 1.970 . S
O61 Li1 1.956 . S
O61 Li3 1.961 . S
O61 C10 1.325 . S
O62 Li0 1.961 . S
O62 Li2 1.956 . S
O62 Li3 1.970 . S
O62 C32 1.325 . S
O63 Li1 1.961 . S
O63 Li2 1.970 . S
O63 Li3 1.956 . S
O63 C38 1.325 . S
H64 C6 0.929 . S
H65 C7 0.930 . S
H66 C8 0.916 1_556 S
H67 C9 0.930 . S
H68 C11 0.930 . S
H69 C13 0.929 . S
H70 C14 0.930 . S
H71 C15 0.930 . S
H72 C18 0.930 . S
H73 C21 0.929 . S
H74 C26 0.929 . S
H75 C27 0.930 . S
H76 C34 0.929 . S
H77 C35 0.930 . S
H78 C36 0.930 . S
H79 C37 0.930 . S
H80 C39 0.929 . S
H81 C40 0.930 . S
H82 C41 0.930 . S
H83 C42 0.930 . S
H84 C46 0.914 1_556 S
H85 C48 0.930 . S
H86 C54 0.929 . S
H87 C55 0.930 . S
Li88 N105 1.990 . S
Li88 O148 1.956 . S
Li88 O149 1.970 . S
Li88 O150 1.961 . S
Li89 N113 1.990 . S
Li89 O148 1.970 . S
Li89 O149 1.956 . S
Li89 O151 1.961 . S
Li90 N135 1.990 . S
Li90 O148 1.961 . S
Li90 O150 1.956 . S
Li90 O151 1.970 . S
Li91 N141 1.990 . S
Li91 O149 1.961 . S
Li91 O150 1.970 . S
Li91 O151 1.956 . S
C92 C94 1.348 . S
C92 C95 1.356 . S
C92 O148 1.325 . S
N93 C96 1.314 . S
N93 C97 1.279 . S
C94 C92 1.348 . S
C94 C96 1.353 . S
C94 H152 0.929 . S
C95 C92 1.356 . S
C95 C97 1.358 . S
C95 H153 0.930 . S
C96 N93 1.314 . S
C96 C94 1.353 . S
C96 H154 0.930 . S
C97 N93 1.279 . S
C97 C95 1.358 . S
C97 H155 0.930 . S
C98 C101 1.348 . S
C98 C102 1.356 . S
C98 O149 1.325 . S
C99 N100 1.279 . S
C99 C102 1.358 . S
C99 H156 0.930 . S
N100 C99 1.279 . S
N100 C103 1.314 . S
C101 C98 1.348 . S
C101 C103 1.353 . S
C101 H157 0.929 . S
C102 C98 1.356 . S
C102 C99 1.358 . S
C102 H158 0.930 . S
C103 N100 1.314 . S
C103 C101 1.353 . S
C103 H159 0.930 . S
C104 N105 1.314 . S
C104 C109 1.353 . S
C104 H110 0.930 . S
N105 Li88 1.990 . S
N105 C104 1.314 . S
N105 C107 1.279 . S
C106 C107 1.358 . S
C106 C108 1.356 . S
C106 H160 0.930 . S
C107 N105 1.279 . S
C107 C106 1.358 . S
C107 H111 0.930 . S
C108 C106 1.356 . S
C108 C109 1.348 . S
C109 C104 1.353 . S
C109 C108 1.348 . S
C109 H161 0.929 . S
H110 C104 0.930 . S
H111 C107 0.930 . S
C112 N113 1.314 . S
C112 C114 1.353 . S
C112 H118 0.930 . S
N113 Li89 1.990 . S
N113 C112 1.314 . S
N113 C116 1.279 . S
C114 C112 1.353 . S
C114 C117 1.348 . S
C114 H162 0.929 . S
C115 C116 1.358 . S
C115 C117 1.356 . S
C115 H163 0.930 . S
C116 N113 1.279 . S
C116 C115 1.358 . S
C116 H119 0.930 . S
C117 C114 1.348 . S
C117 C115 1.356 . S
H118 C112 0.930 . S
H119 C116 0.930 . S
C120 C122 1.348 . S
C120 C123 1.356 . S
C120 O150 1.325 . S
N121 C124 1.314 . S
N121 C125 1.279 . S
C122 C120 1.348 . S
C122 C124 1.353 . S
C122 H164 0.929 . S
C123 C120 1.356 . S
C123 C125 1.358 . S
C123 H165 0.930 . S
C124 N121 1.314 . S
C124 C122 1.353 . S
C124 H166 0.930 . S
C125 N121 1.279 . S
C125 C123 1.358 . S
C125 H167 0.930 . S
C126 C127 1.348 . S
C126 C128 1.356 . S
C126 O151 1.325 . S
C127 C126 1.348 . S
C127 C129 1.353 . S
C127 H168 0.929 . S
C128 C126 1.356 . S
C128 C130 1.358 . S
C128 H169 0.930 . S
C129 C127 1.353 . S
C129 N131 1.314 . S
C129 H170 0.930 . S
C130 C128 1.358 . S
C130 N131 1.279 . S
C130 H171 0.930 . S
N131 C129 1.314 . S
N131 C130 1.279 . S
C132 C134 1.353 . S
C132 N135 1.314 . S
C132 H138 0.930 . S
C133 N135 1.279 . S
C133 C136 1.358 . S
C133 H139 0.930 . S
C134 C132 1.353 . S
C134 C137 1.348 . S
C134 H172 0.929 . S
N135 Li90 1.990 . S
N135 C132 1.314 . S
N135 C133 1.279 . S
C136 C133 1.358 . S
C136 C137 1.356 . S
C136 H173 0.930 . S
C137 C134 1.348 . S
C137 C136 1.356 . S
H138 C132 0.930 . S
H139 C133 0.930 . S
C140 N141 1.314 . S
C140 C142 1.353 . S
C140 H146 0.930 . S
N141 Li91 1.990 . S
N141 C140 1.314 . S
N141 C144 1.279 . S
C142 C140 1.353 . S
C142 C145 1.348 . S
C142 H174 0.929 . S
C143 C144 1.358 . S
C143 C145 1.356 . S
C143 H175 0.930 . S
C144 N141 1.279 . S
C144 C143 1.358 . S
C144 H147 0.930 . S
C145 C142 1.348 . S
C145 C143 1.356 . S
H146 C140 0.930 . S
H147 C144 0.930 . S
O148 Li88 1.956 . S
O148 Li89 1.970 . S
O148 Li90 1.961 . S
O148 C92 1.325 . S
O149 Li88 1.970 . S
O149 Li89 1.956 . S
O149 Li91 1.961 . S
O149 C98 1.325 . S
O150 Li88 1.961 . S
O150 Li90 1.956 . S
O150 Li91 1.970 . S
O150 C120 1.325 . S
O151 Li89 1.961 . S
O151 Li90 1.970 . S
O151 Li91 1.956 . S
O151 C126 1.325 . S
H152 C94 0.929 . S
H153 C95 0.930 . S
H154 C96 0.930 . S
H155 C97 0.930 . S
H156 C99 0.930 . S
H157 C101 0.929 . S
H158 C102 0.930 . S
H159 C103 0.930 . S
H160 C106 0.930 . S
H161 C109 0.929 . S
H162 C114 0.929 . S
H163 C115 0.930 . S
H164 C122 0.929 . S
H165 C123 0.930 . S
H166 C124 0.930 . S
H167 C125 0.930 . S
H168 C127 0.929 . S
H169 C128 0.930 . S
H170 C129 0.930 . S
H171 C130 0.930 . S
H172 C134 0.929 . S
H173 C136 0.930 . S
H174 C142 0.929 . S
H175 C143 0.930 . S
Li176 N193 1.990 . S
Li176 O236 1.956 . S
Li176 O237 1.970 . S
Li176 O238 1.961 . S
Li177 N201 1.990 . S
Li177 O236 1.970 . S
Li177 O237 1.956 . S
Li177 O239 1.961 . S
Li178 N223 1.990 . S
Li178 O236 1.961 . S
Li178 O238 1.956 . S
Li178 O239 1.970 . S
Li179 N229 1.990 . S
Li179 O237 1.961 . S
Li179 O238 1.970 . S
Li179 O239 1.956 . S
C180 C182 1.348 . S
C180 C183 1.356 . S
C180 O236 1.325 . S
N181 C184 1.314 . S
N181 C185 1.279 . S
C182 C180 1.348 . S
C182 C184 1.353 . S
C182 H240 0.929 . S
C183 C180 1.356 . S
C183 C185 1.358 . S
C183 H241 0.930 . S
C184 N181 1.314 . S
C184 C182 1.353 . S
C184 H242 0.930 . S
C185 N181 1.279 . S
C185 C183 1.358 . S
C185 H243 0.930 . S
C186 C189 1.348 . S
C186 C190 1.356 . S
C186 O237 1.325 . S
C187 N188 1.279 . S
C187 C190 1.358 . S
C187 H244 0.930 . S
N188 C187 1.279 . S
N188 C191 1.314 . S
C189 C186 1.348 . S
C189 C191 1.353 . S
C189 H245 0.929 . S
C190 C186 1.356 . S
C190 C187 1.358 . S
C190 H246 0.930 . S
C191 N188 1.314 . S
C191 C189 1.353 . S
C191 H247 0.930 . S
C192 N193 1.314 . S
C192 C197 1.353 . S
C192 H198 0.930 . S
N193 Li176 1.990 . S
N193 C192 1.314 . S
N193 C195 1.279 . S
C194 C195 1.358 . S
C194 C196 1.356 . S
C194 H248 0.930 . S
C195 N193 1.279 . S
C195 C194 1.358 . S
C195 H199 0.930 . S
C196 C194 1.356 . S
C196 C197 1.348 . S
C197 C192 1.353 . S
C197 C196 1.348 . S
C197 H249 0.929 . S
H198 C192 0.930 . S
H199 C195 0.930 . S
C200 N201 1.314 . S
C200 C202 1.353 . S
C200 H206 0.930 . S
N201 Li177 1.990 . S
N201 C200 1.314 . S
N201 C204 1.279 . S
C202 C200 1.353 . S
C202 C205 1.348 . S
C202 H250 0.929 . S
C203 C204 1.358 . S
C203 C205 1.356 . S
C203 H251 0.930 . S
C204 N201 1.279 . S
C204 C203 1.358 . S
C204 H207 0.930 . S
C205 C202 1.348 . S
C205 C203 1.356 . S
H206 C200 0.930 . S
H207 C204 0.930 . S
C208 C210 1.348 . S
C208 C211 1.356 . S
C208 O238 1.325 . S
N209 C212 1.314 . S
N209 C213 1.279 . S
C210 C208 1.348 . S
C210 C212 1.353 1_554 S
C210 H252 0.929 . S
C211 C208 1.356 . S
C211 C213 1.358 1_554 S
C211 H253 0.930 . S
C212 N209 1.314 . S
C212 C210 1.353 1_556 S
C212 H254 0.930 . S
C213 N209 1.279 . S
C213 C211 1.358 1_556 S
C213 H255 0.930 . S
C214 C215 1.348 . S
C214 C216 1.356 . S
C214 O239 1.325 . S
C215 C214 1.348 . S
C215 C217 1.353 . S
C215 H256 0.929 . S
C216 C214 1.356 . S
C216 C218 1.358 . S
C216 H257 0.930 . S
C217 C215 1.353 . S
C217 N219 1.314 . S
C217 H258 0.930 . S
C218 C216 1.358 . S
C218 N219 1.279 . S
C218 H259 0.930 . S
N219 C217 1.314 . S
N219 C218 1.279 . S
C220 C222 1.353 . S
C220 N223 1.314 . S
C220 H226 0.930 . S
C221 N223 1.279 . S
C221 C224 1.358 . S
C221 H227 0.930 . S
C222 C220 1.353 . S
C222 C225 1.348 . S
C222 H260 0.929 1_655 S
N223 Li178 1.990 . S
N223 C220 1.314 . S
N223 C221 1.279 . S
C224 C221 1.358 . S
C224 C225 1.356 . S
C224 H261 0.930 1_554 S
C225 C222 1.348 . S
C225 C224 1.356 . S
H226 C220 0.930 . S
H227 C221 0.930 . S
C228 N229 1.314 . S
C228 C230 1.353 . S
C228 H234 0.930 . S
N229 Li179 1.990 . S
N229 C228 1.314 . S
N229 C232 1.279 . S
C230 C228 1.353 . S
C230 C233 1.348 . S
C230 H262 0.929 . S
C231 C232 1.358 . S
C231 C233 1.356 . S
C231 H263 0.930 . S
C232 N229 1.279 . S
C232 C231 1.358 . S
C232 H235 0.930 . S
C233 C230 1.348 . S
C233 C231 1.356 . S
H234 C228 0.930 . S
H235 C232 0.930 . S
O236 Li176 1.956 . S
O236 Li177 1.970 . S
O236 Li178 1.961 . S
O236 C180 1.325 . S
O237 Li176 1.970 . S
O237 Li177 1.956 . S
O237 Li179 1.961 . S
O237 C186 1.325 . S
O238 Li176 1.961 . S
O238 Li178 1.956 . S
O238 Li179 1.970 . S
O238 C208 1.325 . S
O239 Li177 1.961 . S
O239 Li178 1.970 . S
O239 Li179 1.956 . S
O239 C214 1.325 . S
H240 C182 0.929 . S
H241 C183 0.930 . S
H242 C184 0.930 . S
H243 C185 0.930 . S
H244 C187 0.930 . S
H245 C189 0.929 . S
H246 C190 0.930 . S
H247 C191 0.930 . S
H248 C194 0.930 . S
H249 C197 0.929 . S
H250 C202 0.929 . S
H251 C203 0.930 . S
H252 C210 0.929 . S
H253 C211 0.930 . S
H254 C212 0.930 . S
H255 C213 0.930 . S
H256 C215 0.929 . S
H257 C216 0.930 . S
H258 C217 0.930 . S
H259 C218 0.930 . S
H260 C222 0.929 1_455 S
H261 C224 0.930 1_556 S
H262 C230 0.929 . S
H263 C231 0.930 . S
Li264 N281 1.990 . S
Li264 O324 1.956 . S
Li264 O325 1.970 . S
Li264 O326 1.961 . S
Li265 N289 1.990 . S
Li265 O324 1.970 . S
Li265 O325 1.956 . S
Li265 O327 1.961 . S
Li266 N311 1.990 . S
Li266 O324 1.961 . S
Li266 O326 1.956 . S
Li266 O327 1.970 . S
Li267 N317 1.990 . S
Li267 O325 1.961 . S
Li267 O326 1.970 . S
Li267 O327 1.956 . S
C268 C270 1.348 . S
C268 C271 1.356 . S
C268 O324 1.325 . S
N269 C272 1.314 . S
N269 C273 1.279 . S
C270 C268 1.348 . S
C270 C272 1.353 . S
C270 H328 0.929 . S
C271 C268 1.356 . S
C271 C273 1.358 . S
C271 H329 0.930 . S
C272 N269 1.314 . S
C272 C270 1.353 . S
C272 H330 0.930 . S
C273 N269 1.279 . S
C273 C271 1.358 . S
C273 H331 0.930 . S
C274 C277 1.348 . S
C274 C278 1.356 . S
C274 O325 1.325 . S
C275 N276 1.279 . S
C275 C278 1.358 . S
C275 H332 0.930 . S
N276 C275 1.279 . S
N276 C279 1.314 . S
C277 C274 1.348 . S
C277 C279 1.353 . S
C277 H333 0.929 . S
C278 C274 1.356 . S
C278 C275 1.358 . S
C278 H334 0.930 . S
C279 N276 1.314 . S
C279 C277 1.353 . S
C279 H335 0.930 . S
C280 N281 1.314 . S
C280 C285 1.353 . S
C280 H286 0.930 . S
N281 Li264 1.990 . S
N281 C280 1.314 . S
N281 C283 1.279 . S
C282 C283 1.358 . S
C282 C284 1.356 . S
C282 H336 0.930 . S
C283 N281 1.279 . S
C283 C282 1.358 . S
C283 H287 0.930 . S
C284 C282 1.356 . S
C284 C285 1.348 . S
C285 C280 1.353 . S
C285 C284 1.348 . S
C285 H337 0.929 . S
H286 C280 0.930 . S
H287 C283 0.930 . S
C288 N289 1.314 . S
C288 C290 1.353 . S
C288 H294 0.930 . S
N289 Li265 1.990 . S
N289 C288 1.314 . S
N289 C292 1.279 . S
C290 C288 1.353 . S
C290 C293 1.348 . S
C290 H338 0.929 . S
C291 C292 1.358 . S
C291 C293 1.356 . S
C291 H339 0.930 . S
C292 N289 1.279 . S
C292 C291 1.358 . S
C292 H295 0.930 . S
C293 C290 1.348 . S
C293 C291 1.356 . S
H294 C288 0.930 . S
H295 C292 0.930 . S
C296 C298 1.348 . S
C296 C299 1.356 . S
C296 O326 1.325 . S
N297 C300 1.314 . S
N297 C301 1.279 . S
C298 C296 1.348 . S
C298 C300 1.353 . S
C298 H340 0.929 . S
C299 C296 1.356 . S
C299 C301 1.358 . S
C299 H341 0.930 . S
C300 N297 1.314 . S
C300 C298 1.353 . S
C300 H342 0.930 . S
C301 N297 1.279 . S
C301 C299 1.358 . S
C301 H343 0.930 . S
C302 C303 1.348 . S
C302 C304 1.356 . S
C302 O327 1.325 . S
C303 C302 1.348 . S
C303 C305 1.353 . S
C303 H344 0.929 . S
C304 C302 1.356 . S
C304 C306 1.358 . S
C304 H345 0.930 . S
C305 C303 1.353 . S
C305 N307 1.314 . S
C305 H346 0.930 . S
C306 C304 1.358 . S
C306 N307 1.279 . S
C306 H347 0.930 . S
N307 C305 1.314 . S
N307 C306 1.279 . S
C308 C310 1.353 . S
C308 N311 1.314 . S
C308 H314 0.930 . S
C309 N311 1.279 . S
C309 C312 1.358 . S
C309 H315 0.930 . S
C310 C308 1.353 . S
C310 C313 1.348 . S
C310 H348 0.929 . S
N311 Li266 1.990 . S
N311 C308 1.314 . S
N311 C309 1.279 . S
C312 C309 1.358 . S
C312 C313 1.356 . S
C312 H349 0.930 . S
C313 C310 1.348 . S
C313 C312 1.356 . S
H314 C308 0.930 . S
H315 C309 0.930 . S
C316 N317 1.314 . S
C316 C318 1.353 . S
C316 H322 0.930 . S
N317 Li267 1.990 . S
N317 C316 1.314 . S
N317 C320 1.279 . S
C318 C316 1.353 . S
C318 C321 1.348 . S
C318 H350 0.929 . S
C319 C320 1.358 . S
C319 C321 1.356 . S
C319 H351 0.930 . S
C320 N317 1.279 . S
C320 C319 1.358 . S
C320 H323 0.930 . S
C321 C318 1.348 . S
C321 C319 1.356 . S
H322 C316 0.930 . S
H323 C320 0.930 . S
O324 Li264 1.956 . S
O324 Li265 1.970 . S
O324 Li266 1.961 . S
O324 C268 1.325 . S
O325 Li264 1.970 . S
O325 Li265 1.956 . S
O325 Li267 1.961 . S
O325 C274 1.325 . S
O326 Li264 1.961 . S
O326 Li266 1.956 . S
O326 Li267 1.970 . S
O326 C296 1.325 . S
O327 Li265 1.961 . S
O327 Li266 1.970 . S
O327 Li267 1.956 . S
O327 C302 1.325 . S
H328 C270 0.929 . S
H329 C271 0.930 . S
H330 C272 0.930 . S
H331 C273 0.930 . S
H332 C275 0.930 . S
H333 C277 0.929 . S
H334 C278 0.930 . S
H335 C279 0.930 . S
H336 C282 0.930 . S
H337 C285 0.929 . S
H338 C290 0.929 . S
H339 C291 0.930 . S
H340 C298 0.929 . S
H341 C299 0.930 . S
H342 C300 0.930 . S
H343 C301 0.930 . S
H344 C303 0.929 . S
H345 C304 0.930 . S
H346 C305 0.930 . S
H347 C306 0.930 . S
H348 C310 0.929 . S
H349 C312 0.930 . S
H350 C318 0.929 . S
H351 C319 0.930 . S
Li352 N369 1.990 . S
Li352 O412 1.956 . S
Li352 O413 1.970 . S
Li352 O414 1.961 . S
Li353 N377 1.990 . S
Li353 O412 1.970 . S
Li353 O413 1.956 . S
Li353 O415 1.961 . S
Li354 N399 1.990 . S
Li354 O412 1.961 . S
Li354 O414 1.956 . S
Li354 O415 1.970 . S
Li355 N405 1.990 . S
Li355 O413 1.961 . S
Li355 O414 1.970 . S
Li355 O415 1.956 . S
C356 C358 1.348 . S
C356 C359 1.356 . S
C356 O412 1.325 . S
N357 C360 1.314 . S
N357 C361 1.279 . S
C358 C356 1.348 . S
C358 C360 1.353 . S
C358 H416 0.929 . S
C359 C356 1.356 . S
C359 C361 1.358 . S
C359 H417 0.930 . S
C360 N357 1.314 . S
C360 C358 1.353 . S
C360 H418 0.930 . S
C361 N357 1.279 . S
C361 C359 1.358 . S
C361 H419 0.930 . S
C362 C365 1.348 . S
C362 C366 1.356 . S
C362 O413 1.325 . S
C363 N364 1.279 . S
C363 C366 1.358 . S
C363 H420 0.930 . S
N364 C363 1.279 . S
N364 C367 1.314 . S
C365 C362 1.348 . S
C365 C367 1.353 . S
C365 H421 0.929 . S
C366 C362 1.356 . S
C366 C363 1.358 . S
C366 H422 0.930 . S
C367 N364 1.314 . S
C367 C365 1.353 . S
C367 H423 0.930 . S
C368 N369 1.314 . S
C368 C373 1.353 . S
C368 H374 0.930 . S
N369 Li352 1.990 . S
N369 C368 1.314 . S
N369 C371 1.279 . S
C370 C371 1.358 . S
C370 C372 1.356 . S
C370 H424 0.930 . S
C371 N369 1.279 . S
C371 C370 1.358 . S
C371 H375 0.930 . S
C372 C370 1.356 . S
C372 C373 1.348 . S
C373 C368 1.353 . S
C373 C372 1.348 . S
C373 H425 0.929 . S
H374 C368 0.930 . S
H375 C371 0.930 . S
C376 N377 1.314 . S
C376 C378 1.353 . S
C376 H382 0.930 . S
N377 Li353 1.990 . S
N377 C376 1.314 . S
N377 C380 1.279 . S
C378 C376 1.353 . S
C378 C381 1.348 . S
C378 H426 0.929 . S
C379 C380 1.358 . S
C379 C381 1.356 . S
C379 H427 0.930 . S
C380 N377 1.279 . S
C380 C379 1.358 . S
C380 H383 0.930 . S
C381 C378 1.348 . S
C381 C379 1.356 . S
H382 C376 0.930 . S
H383 C380 0.930 . S
C384 C386 1.348 . S
C384 C387 1.356 . S
C384 O414 1.325 . S
N385 C388 1.314 . S
N385 C389 1.279 . S
C386 C384 1.348 . S
C386 C388 1.353 . S
C386 H428 0.929 . S
C387 C384 1.356 . S
C387 C389 1.358 . S
C387 H429 0.930 . S
C388 N385 1.314 . S
C388 C386 1.353 . S
C388 H430 0.930 . S
C389 N385 1.279 . S
C389 C387 1.358 . S
C389 H431 0.930 . S
C390 C391 1.348 . S
C390 C392 1.356 . S
C390 O415 1.325 . S
C391 C390 1.348 . S
C391 C393 1.353 . S
C391 H432 0.929 . S
C392 C390 1.356 . S
C392 C394 1.358 1_554 S
C392 H433 0.930 . S
C393 C391 1.353 . S
C393 N395 1.314 1_554 S
C393 H434 0.921 1_554 S
C394 C392 1.358 1_556 S
C394 N395 1.279 . S
C394 H435 0.930 . S
N395 C393 1.314 1_556 S
N395 C394 1.279 . S
C396 C398 1.353 . S
C396 N399 1.314 . S
C396 H402 0.930 . S
C397 N399 1.279 . S
C397 C400 1.358 . S
C397 H403 0.930 . S
C398 C396 1.353 . S
C398 C401 1.348 . S
C398 H436 0.929 . S
N399 Li354 1.990 . S
N399 C396 1.314 . S
N399 C397 1.279 . S
C400 C397 1.358 . S
C400 C401 1.356 . S
C400 H437 0.930 . S
C401 C398 1.348 . S
C401 C400 1.356 . S
H402 C396 0.930 . S
H403 C397 0.930 . S
C404 N405 1.314 . S
C404 C406 1.353 . S
C404 H410 0.930 . S
N405 Li355 1.990 . S
N405 C404 1.314 . S
N405 C408 1.279 . S
C406 C404 1.353 . S
C406 C409 1.348 . S
C406 H438 0.929 . S
C407 C408 1.358 . S
C407 C409 1.356 . S
C407 H439 0.930 1_554 S
C408 N405 1.279 . S
C408 C407 1.358 . S
C408 H411 0.930 . S
C409 C406 1.348 . S
C409 C407 1.356 . S
H410 C404 0.930 . S
H411 C408 0.930 . S
O412 Li352 1.956 . S
O412 Li353 1.970 . S
O412 Li354 1.961 . S
O412 C356 1.325 . S
O413 Li352 1.970 . S
O413 Li353 1.956 . S
O413 Li355 1.961 . S
O413 C362 1.325 . S
O414 Li352 1.961 . S
O414 Li354 1.956 . S
O414 Li355 1.970 . S
O414 C384 1.325 . S
O415 Li353 1.961 . S
O415 Li354 1.970 . S
O415 Li355 1.956 . S
O415 C390 1.325 . S
H416 C358 0.929 . S
H417 C359 0.930 . S
H418 C360 0.930 . S
H419 C361 0.930 . S
H420 C363 0.930 . S
H421 C365 0.929 . S
H422 C366 0.930 . S
H423 C367 0.930 . S
H424 C370 0.930 . S
H425 C373 0.929 . S
H426 C378 0.929 . S
H427 C379 0.930 . S
H428 C386 0.929 . S
H429 C387 0.930 . S
H430 C388 0.930 . S
H431 C389 0.930 . S
H432 C391 0.929 . S
H433 C392 0.930 . S
H434 C393 0.921 1_556 S
H435 C394 0.930 . S
H436 C398 0.929 . S
H437 C400 0.930 . S
H438 C406 0.929 . S
H439 C407 0.930 1_556 S
Li440 N457 1.990 . S
Li440 O500 1.956 . S
Li440 O501 1.970 . S
Li440 O502 1.961 . S
Li441 N465 1.990 . S
Li441 O500 1.970 . S
Li441 O501 1.956 . S
Li441 O503 1.961 . S
Li442 N487 1.990 . S
Li442 O500 1.961 . S
Li442 O502 1.956 . S
Li442 O503 1.970 . S
Li443 N493 1.990 . S
Li443 O501 1.961 . S
Li443 O502 1.970 . S
Li443 O503 1.956 . S
C444 C446 1.348 . S
C444 C447 1.356 . S
C444 O500 1.325 . S
N445 C448 1.314 . S
N445 C449 1.279 . S
C446 C444 1.348 . S
C446 C448 1.353 . S
C446 H504 0.929 . S
C447 C444 1.356 . S
C447 C449 1.358 . S
C447 H505 0.930 . S
C448 N445 1.314 . S
C448 C446 1.353 . S
C448 H506 0.930 . S
C449 N445 1.279 . S
C449 C447 1.358 . S
C449 H507 0.930 . S
C450 C453 1.348 . S
C450 C454 1.356 . S
C450 O501 1.325 . S
C451 N452 1.279 . S
C451 C454 1.358 . S
C451 H508 0.930 . S
N452 C451 1.279 . S
N452 C455 1.314 . S
C453 C450 1.348 . S
C453 C455 1.353 . S
C453 H509 0.929 . S
C454 C450 1.356 . S
C454 C451 1.358 . S
C454 H510 0.930 . S
C455 N452 1.314 . S
C455 C453 1.353 . S
C455 H511 0.930 . S
C456 N457 1.314 . S
C456 C461 1.353 . S
C456 H462 0.930 . S
N457 Li440 1.990 . S
N457 C456 1.314 . S
N457 C459 1.279 . S
C458 C459 1.358 . S
C458 C460 1.356 . S
C458 H512 0.930 . S
C459 N457 1.279 . S
C459 C458 1.358 . S
C459 H463 0.930 . S
C460 C458 1.356 . S
C460 C461 1.348 . S
C461 C456 1.353 . S
C461 C460 1.348 . S
C461 H513 0.929 . S
H462 C456 0.930 . S
H463 C459 0.930 . S
C464 N465 1.314 . S
C464 C466 1.353 . S
C464 H470 0.930 . S
N465 Li441 1.990 . S
N465 C464 1.314 . S
N465 C468 1.279 . S
C466 C464 1.353 . S
C466 C469 1.348 . S
C466 H514 0.929 . S
C467 C468 1.358 . S
C467 C469 1.356 . S
C467 H515 0.930 . S
C468 N465 1.279 . S
C468 C467 1.358 . S
C468 H471 0.930 . S
C469 C466 1.348 . S
C469 C467 1.356 . S
H470 C464 0.930 . S
H471 C468 0.930 . S
C472 C474 1.348 . S
C472 C475 1.356 . S
C472 O502 1.325 . S
N473 C476 1.314 . S
N473 C477 1.279 . S
C474 C472 1.348 . S
C474 C476 1.353 . S
C474 H516 0.929 . S
C475 C472 1.356 . S
C475 C477 1.358 . S
C475 H517 0.930 . S
C476 N473 1.314 . S
C476 C474 1.353 . S
C476 H518 0.930 . S
C477 N473 1.279 . S
C477 C475 1.358 . S
C477 H519 0.930 . S
C478 C479 1.348 . S
C478 C480 1.356 . S
C478 O503 1.325 . S
C479 C478 1.348 . S
C479 C481 1.353 . S
C479 H520 0.929 . S
C480 C478 1.356 . S
C480 C482 1.358 . S
C480 H521 0.930 . S
C481 C479 1.353 . S
C481 N483 1.314 . S
C481 H522 0.930 . S
C482 C480 1.358 . S
C482 N483 1.279 . S
C482 H523 0.930 . S
N483 C481 1.314 . S
N483 C482 1.279 . S
C484 C486 1.353 . S
C484 N487 1.314 . S
C484 H490 0.930 . S
C485 N487 1.279 . S
C485 C488 1.358 . S
C485 H491 0.930 . S
C486 C484 1.353 . S
C486 C489 1.348 . S
C486 H524 0.929 . S
N487 Li442 1.990 . S
N487 C484 1.314 . S
N487 C485 1.279 . S
C488 C485 1.358 . S
C488 C489 1.356 . S
C488 H525 0.930 . S
C489 C486 1.348 . S
C489 C488 1.356 . S
H490 C484 0.930 . S
H491 C485 0.930 . S
C492 N493 1.314 . S
C492 C494 1.353 . S
C492 H498 0.930 . S
N493 Li443 1.990 . S
N493 C492 1.314 . S
N493 C496 1.279 . S
C494 C492 1.353 . S
C494 C497 1.348 . S
C494 H526 0.929 1_455 S
C495 C496 1.358 . S
C495 C497 1.356 . S
C495 H527 0.930 . S
C496 N493 1.279 . S
C496 C495 1.358 . S
C496 H499 0.930 . S
C497 C494 1.348 . S
C497 C495 1.356 . S
H498 C492 0.930 . S
H499 C496 0.930 . S
O500 Li440 1.956 . S
O500 Li441 1.970 . S
O500 Li442 1.961 . S
O500 C444 1.325 . S
O501 Li440 1.970 . S
O501 Li441 1.956 . S
O501 Li443 1.961 . S
O501 C450 1.325 . S
O502 Li440 1.961 . S
O502 Li442 1.956 . S
O502 Li443 1.970 . S
O502 C472 1.325 . S
O503 Li441 1.961 . S
O503 Li442 1.970 . S
O503 Li443 1.956 . S
O503 C478 1.325 . S
H504 C446 0.929 . S
H505 C447 0.930 . S
H506 C448 0.930 . S
H507 C449 0.930 . S
H508 C451 0.930 . S
H509 C453 0.929 . S
H510 C454 0.930 . S
H511 C455 0.930 . S
H512 C458 0.930 . S
H513 C461 0.929 . S
H514 C466 0.929 . S
H515 C467 0.930 . S
H516 C474 0.929 . S
H517 C475 0.930 . S
H518 C476 0.930 . S
H519 C477 0.930 . S
H520 C479 0.929 . S
H521 C480 0.930 . S
H522 C481 0.930 . S
H523 C482 0.930 . S
H524 C486 0.929 . S
H525 C488 0.930 . S
H526 C494 0.929 1_655 S
H527 C495 0.930 . S
Li528 N545 1.990 . S
Li528 O588 1.956 . S
Li528 O589 1.970 . S
Li528 O590 1.961 . S
Li529 N553 1.990 . S
Li529 O588 1.970 . S
Li529 O589 1.956 . S
Li529 O591 1.961 . S
Li530 N575 1.990 . S
Li530 O588 1.961 . S
Li530 O590 1.956 . S
Li530 O591 1.970 . S
Li531 N581 1.990 . S
Li531 O589 1.961 . S
Li531 O590 1.970 . S
Li531 O591 1.956 . S
C532 C534 1.348 . S
C532 C535 1.356 . S
C532 O588 1.325 . S
N533 C536 1.314 . S
N533 C537 1.279 . S
C534 C532 1.348 . S
C534 C536 1.353 . S
C534 H592 0.929 . S
C535 C532 1.356 . S
C535 C537 1.358 . S
C535 H593 0.930 . S
C536 N533 1.314 . S
C536 C534 1.353 . S
C536 H594 0.930 . S
C537 N533 1.279 . S
C537 C535 1.358 . S
C537 H595 0.930 . S
C538 C541 1.348 . S
C538 C542 1.356 . S
C538 O589 1.325 . S
C539 N540 1.279 . S
C539 C542 1.358 . S
C539 H596 0.930 . S
N540 C539 1.279 . S
N540 C543 1.314 . S
C541 C538 1.348 . S
C541 C543 1.353 . S
C541 H597 0.929 . S
C542 C538 1.356 . S
C542 C539 1.358 . S
C542 H598 0.930 . S
C543 N540 1.314 . S
C543 C541 1.353 . S
C543 H599 0.930 . S
C544 N545 1.314 . S
C544 C549 1.353 . S
C544 H550 0.930 . S
N545 Li528 1.990 . S
N545 C544 1.314 . S
N545 C547 1.279 . S
C546 C547 1.358 . S
C546 C548 1.356 . S
C546 H600 0.930 . S
C547 N545 1.279 . S
C547 C546 1.358 . S
C547 H551 0.930 . S
C548 C546 1.356 . S
C548 C549 1.348 . S
C549 C544 1.353 . S
C549 C548 1.348 . S
C549 H601 0.929 . S
H550 C544 0.930 . S
H551 C547 0.930 . S
C552 N553 1.314 . S
C552 C554 1.353 . S
C552 H558 0.930 . S
N553 Li529 1.990 . S
N553 C552 1.314 . S
N553 C556 1.279 . S
C554 C552 1.353 . S
C554 C557 1.348 . S
C554 H602 0.929 1_655 S
C555 C556 1.358 . S
C555 C557 1.356 . S
C555 H603 0.930 . S
C556 N553 1.279 . S
C556 C555 1.358 . S
C556 H559 0.930 . S
C557 C554 1.348 . S
C557 C555 1.356 . S
H558 C552 0.930 . S
H559 C556 0.930 . S
C560 C562 1.348 . S
C560 C563 1.356 . S
C560 O590 1.325 . S
N561 C564 1.314 . S
N561 C565 1.279 . S
C562 C560 1.348 . S
C562 C564 1.353 . S
C562 H604 0.929 . S
C563 C560 1.356 . S
C563 C565 1.358 . S
C563 H605 0.930 . S
C564 N561 1.314 . S
C564 C562 1.353 . S
C564 H606 0.930 . S
C565 N561 1.279 . S
C565 C563 1.358 . S
C565 H607 0.930 . S
C566 C567 1.348 . S
C566 C568 1.356 . S
C566 O591 1.325 . S
C567 C566 1.348 . S
C567 C569 1.353 . S
C567 H608 0.929 . S
C568 C566 1.356 . S
C568 C570 1.358 . S
C568 H609 0.930 . S
C569 C567 1.353 . S
C569 N571 1.314 . S
C569 H610 0.930 . S
C570 C568 1.358 . S
C570 N571 1.279 . S
C570 H611 0.930 . S
N571 C569 1.314 . S
N571 C570 1.279 . S
C572 C574 1.353 . S
C572 N575 1.314 . S
C572 H578 0.930 . S
C573 N575 1.279 . S
C573 C576 1.358 . S
C573 H579 0.930 . S
C574 C572 1.353 . S
C574 C577 1.348 . S
C574 H612 0.929 . S
N575 Li530 1.990 . S
N575 C572 1.314 . S
N575 C573 1.279 . S
C576 C573 1.358 . S
C576 C577 1.356 . S
C576 H613 0.930 . S
C577 C574 1.348 . S
C577 C576 1.356 . S
H578 C572 0.930 . S
H579 C573 0.930 . S
C580 N581 1.314 . S
C580 C582 1.353 . S
C580 H586 0.930 . S
N581 Li531 1.990 . S
N581 C580 1.314 . S
N581 C584 1.279 . S
C582 C580 1.353 . S
C582 C585 1.348 . S
C582 H614 0.929 . S
C583 C584 1.358 . S
C583 C585 1.356 . S
C583 H615 0.930 . S
C584 N581 1.279 . S
C584 C583 1.358 . S
C584 H587 0.930 . S
C585 C582 1.348 . S
C585 C583 1.356 . S
H586 C580 0.930 . S
H587 C584 0.930 . S
O588 Li528 1.956 . S
O588 Li529 1.970 . S
O588 Li530 1.961 . S
O588 C532 1.325 . S
O589 Li528 1.970 . S
O589 Li529 1.956 . S
O589 Li531 1.961 . S
O589 C538 1.325 . S
O590 Li528 1.961 . S
O590 Li530 1.956 . S
O590 Li531 1.970 . S
O590 C560 1.325 . S
O591 Li529 1.961 . S
O591 Li530 1.970 . S
O591 Li531 1.956 . S
O591 C566 1.325 . S
H592 C534 0.929 . S
H593 C535 0.930 . S
H594 C536 0.930 . S
H595 C537 0.930 . S
H596 C539 0.930 . S
H597 C541 0.929 . S
H598 C542 0.930 . S
H599 C543 0.930 . S
H600 C546 0.930 . S
H601 C549 0.929 . S
H602 C554 0.929 1_455 S
H603 C555 0.930 . S
H604 C562 0.929 . S
H605 C563 0.930 . S
H606 C564 0.930 . S
H607 C565 0.930 . S
H608 C567 0.929 . S
H609 C568 0.930 . S
H610 C569 0.930 . S
H611 C570 0.930 . S
H612 C574 0.929 . S
H613 C576 0.930 . S
H614 C582 0.929 . S
H615 C583 0.930 . S
Li616 N633 1.990 . S
Li616 O676 1.956 . S
Li616 O677 1.970 . S
Li616 O678 1.961 . S
Li617 N641 1.990 . S
Li617 O676 1.970 . S
Li617 O677 1.956 . S
Li617 O679 1.961 . S
Li618 N663 1.990 . S
Li618 O676 1.961 . S
Li618 O678 1.956 . S
Li618 O679 1.970 . S
Li619 N669 1.990 . S
Li619 O677 1.961 . S
Li619 O678 1.970 . S
Li619 O679 1.956 . S
C620 C622 1.348 . S
C620 C623 1.356 . S
C620 O676 1.325 . S
N621 C624 1.314 . S
N621 C625 1.279 . S
C622 C620 1.348 . S
C622 C624 1.353 . S
C622 H680 0.929 . S
C623 C620 1.356 . S
C623 C625 1.358 . S
C623 H681 0.930 . S
C624 N621 1.314 . S
C624 C622 1.353 . S
C624 H682 0.930 . S
C625 N621 1.279 . S
C625 C623 1.358 . S
C625 H683 0.930 . S
C626 C629 1.348 . S
C626 C630 1.356 . S
C626 O677 1.325 . S
C627 N628 1.279 . S
C627 C630 1.358 . S
C627 H684 0.930 . S
N628 C627 1.279 . S
N628 C631 1.314 . S
C629 C626 1.348 . S
C629 C631 1.353 . S
C629 H685 0.929 . S
C630 C626 1.356 . S
C630 C627 1.358 . S
C630 H686 0.930 . S
C631 N628 1.314 . S
C631 C629 1.353 . S
C631 H687 0.930 . S
C632 N633 1.314 . S
C632 C637 1.353 . S
C632 H638 0.930 . S
N633 Li616 1.990 . S
N633 C632 1.314 . S
N633 C635 1.279 . S
C634 C635 1.358 . S
C634 C636 1.356 . S
C634 H688 0.930 . S
C635 N633 1.279 . S
C635 C634 1.358 . S
C635 H639 0.930 . S
C636 C634 1.356 . S
C636 C637 1.348 . S
C637 C632 1.353 . S
C637 C636 1.348 . S
C637 H689 0.929 . S
H638 C632 0.930 . S
H639 C635 0.930 . S
C640 N641 1.314 . S
C640 C642 1.353 . S
C640 H646 0.930 . S
N641 Li617 1.990 . S
N641 C640 1.314 . S
N641 C644 1.279 . S
C642 C640 1.353 . S
C642 C645 1.348 . S
C642 H690 0.929 . S
C643 C644 1.358 . S
C643 C645 1.356 . S
C643 H691 0.930 . S
C644 N641 1.279 . S
C644 C643 1.358 . S
C644 H647 0.930 . S
C645 C642 1.348 . S
C645 C643 1.356 . S
H646 C640 0.930 . S
H647 C644 0.930 . S
C648 C650 1.348 . S
C648 C651 1.356 . S
C648 O678 1.325 . S
N649 C652 1.314 . S
N649 C653 1.279 . S
C650 C648 1.348 . S
C650 C652 1.353 . S
C650 H692 0.929 . S
C651 C648 1.356 . S
C651 C653 1.358 . S
C651 H693 0.930 . S
C652 N649 1.314 . S
C652 C650 1.353 . S
C652 H694 0.930 . S
C653 N649 1.279 . S
C653 C651 1.358 . S
C653 H695 0.930 . S
C654 C655 1.348 . S
C654 C656 1.356 . S
C654 O679 1.325 . S
C655 C654 1.348 . S
C655 C657 1.353 . S
C655 H696 0.929 . S
C656 C654 1.356 . S
C656 C658 1.358 1_556 S
C656 H697 0.930 . S
C657 C655 1.353 . S
C657 N659 1.314 1_556 S
C657 H698 0.930 1_556 S
C658 C656 1.358 1_554 S
C658 N659 1.279 . S
C658 H699 0.930 . S
N659 C657 1.314 1_554 S
N659 C658 1.279 . S
C660 C662 1.353 . S
C660 N663 1.314 . S
C660 H666 0.930 . S
C661 N663 1.279 . S
C661 C664 1.358 . S
C661 H667 0.930 . S
C662 C660 1.353 . S
C662 C665 1.348 . S
C662 H700 0.929 . S
N663 Li618 1.990 . S
N663 C660 1.314 . S
N663 C661 1.279 . S
C664 C661 1.358 . S
C664 C665 1.356 . S
C664 H701 0.930 . S
C665 C662 1.348 . S
C665 C664 1.356 . S
H666 C660 0.930 . S
H667 C661 0.930 . S
C668 N669 1.314 . S
C668 C670 1.353 . S
C668 H674 0.930 . S
N669 Li619 1.990 . S
N669 C668 1.314 . S
N669 C672 1.279 . S
C670 C668 1.353 . S
C670 C673 1.348 . S
C670 H702 0.929 . S
C671 C672 1.358 . S
C671 C673 1.356 . S
C671 H703 0.930 . S
C672 N669 1.279 . S
C672 C671 1.358 . S
C672 H675 0.930 . S
C673 C670 1.348 . S
C673 C671 1.356 . S
H674 C668 0.930 . S
H675 C672 0.930 . S
O676 Li616 1.956 . S
O676 Li617 1.970 . S
O676 Li618 1.961 . S
O676 C620 1.325 . S
O677 Li616 1.970 . S
O677 Li617 1.956 . S
O677 Li619 1.961 . S
O677 C626 1.325 . S
O678 Li616 1.961 . S
O678 Li618 1.956 . S
O678 Li619 1.970 . S
O678 C648 1.325 . S
O679 Li617 1.961 . S
O679 Li618 1.970 . S
O679 Li619 1.956 . S
O679 C654 1.325 . S
H680 C622 0.929 . S
H681 C623 0.930 . S
H682 C624 0.930 . S
H683 C625 0.930 . S
H684 C627 0.930 . S
H685 C629 0.929 . S
H686 C630 0.930 . S
H687 C631 0.930 . S
H688 C634 0.930 . S
H689 C637 0.929 . S
H690 C642 0.929 . S
H691 C643 0.930 . S
H692 C650 0.929 . S
H693 C651 0.930 . S
H694 C652 0.930 . S
H695 C653 0.930 . S
H696 C655 0.929 . S
H697 C656 0.930 . S
H698 C657 0.930 1_554 S
H699 C658 0.930 . S
H700 C662 0.929 . S
H701 C664 0.930 . S
H702 C670 0.929 . S
H703 C671 0.930 . S
Li704 N721 1.990 . S
Li704 O764 1.956 . S
Li704 O765 1.970 . S
Li704 O766 1.961 . S
Li705 N729 1.990 . S
Li705 O764 1.970 . S
Li705 O765 1.956 . S
Li705 O767 1.961 . S
Li706 N751 1.990 . S
Li706 O764 1.961 . S
Li706 O766 1.956 . S
Li706 O767 1.970 . S
Li707 N757 1.990 . S
Li707 O765 1.961 . S
Li707 O766 1.970 . S
Li707 O767 1.956 . S
C708 C710 1.348 . S
C708 C711 1.356 . S
C708 O764 1.325 . S
N709 C712 1.314 . S
N709 C713 1.279 . S
C710 C708 1.348 . S
C710 C712 1.353 . S
C710 H768 0.929 . S
C711 C708 1.356 . S
C711 C713 1.358 . S
C711 H769 0.930 . S
C712 N709 1.314 . S
C712 C710 1.353 . S
C712 H770 0.930 . S
C713 N709 1.279 . S
C713 C711 1.358 . S
C713 H771 0.930 . S
C714 C717 1.348 . S
C714 C718 1.356 . S
C714 O765 1.325 . S
C715 N716 1.279 . S
C715 C718 1.358 . S
C715 H772 0.930 . S
N716 C715 1.279 . S
N716 C719 1.314 . S
C717 C714 1.348 . S
C717 C719 1.353 . S
C717 H773 0.929 . S
C718 C714 1.356 . S
C718 C715 1.358 . S
C718 H774 0.930 . S
C719 N716 1.314 . S
C719 C717 1.353 . S
C719 H775 0.930 . S
C720 N721 1.314 . S
C720 C725 1.353 . S
C720 H726 0.930 . S
N721 Li704 1.990 . S
N721 C720 1.314 . S
N721 C723 1.279 . S
C722 C723 1.358 . S
C722 C724 1.356 . S
C722 H776 0.930 . S
C723 N721 1.279 . S
C723 C722 1.358 . S
C723 H727 0.930 . S
C724 C722 1.356 . S
C724 C725 1.348 . S
C725 C720 1.353 . S
C725 C724 1.348 . S
C725 H777 0.929 . S
H726 C720 0.930 . S
H727 C723 0.930 . S
C728 N729 1.314 . S
C728 C730 1.353 . S
C728 H734 0.930 . S
N729 Li705 1.990 . S
N729 C728 1.314 . S
N729 C732 1.279 . S
C730 C728 1.353 . S
C730 C733 1.348 . S
C730 H778 0.929 . S
C731 C732 1.358 . S
C731 C733 1.356 . S
C731 H779 0.930 . S
C732 N729 1.279 . S
C732 C731 1.358 . S
C732 H735 0.930 . S
C733 C730 1.348 . S
C733 C731 1.356 . S
H734 C728 0.930 . S
H735 C732 0.930 . S
C736 C738 1.348 . S
C736 C739 1.356 . S
C736 O766 1.325 . S
N737 C740 1.314 . S
N737 C741 1.279 . S
C738 C736 1.348 . S
C738 C740 1.353 . S
C738 H780 0.929 . S
C739 C736 1.356 . S
C739 C741 1.358 . S
C739 H781 0.930 . S
C740 N737 1.314 . S
C740 C738 1.353 . S
C740 H782 0.930 . S
C741 N737 1.279 . S
C741 C739 1.358 . S
C741 H783 0.930 . S
C742 C743 1.348 . S
C742 C744 1.356 . S
C742 O767 1.325 . S
C743 C742 1.348 . S
C743 C745 1.353 . S
C743 H784 0.929 . S
C744 C742 1.356 . S
C744 C746 1.358 . S
C744 H785 0.930 . S
C745 C743 1.353 . S
C745 N747 1.314 . S
C745 H786 0.930 . S
C746 C744 1.358 . S
C746 N747 1.279 . S
C746 H787 0.930 . S
N747 C745 1.314 . S
N747 C746 1.279 . S
C748 C750 1.353 . S
C748 N751 1.314 . S
C748 H754 0.930 . S
C749 N751 1.279 . S
C749 C752 1.358 . S
C749 H755 0.930 . S
C750 C748 1.353 . S
C750 C753 1.348 . S
C750 H788 0.929 . S
N751 Li706 1.990 . S
N751 C748 1.314 . S
N751 C749 1.279 . S
C752 C749 1.358 . S
C752 C753 1.356 . S
C752 H789 0.930 . S
C753 C750 1.348 . S
C753 C752 1.356 . S
H754 C748 0.930 . S
H755 C749 0.930 . S
C756 N757 1.314 . S
C756 C758 1.353 . S
C756 H762 0.930 . S
N757 Li707 1.990 . S
N757 C756 1.314 . S
N757 C760 1.279 . S
C758 C756 1.353 . S
C758 C761 1.348 . S
C758 H790 0.929 . S
C759 C760 1.358 . S
C759 C761 1.356 . S
C759 H791 0.930 . S
C760 N757 1.279 . S
C760 C759 1.358 . S
C760 H763 0.930 . S
C761 C758 1.348 . S
C761 C759 1.356 . S
H762 C756 0.930 . S
H763 C760 0.930 . S
O764 Li704 1.956 . S
O764 Li705 1.970 . S
O764 Li706 1.961 . S
O764 C708 1.325 . S
O765 Li704 1.970 . S
O765 Li705 1.956 . S
O765 Li707 1.961 . S
O765 C714 1.325 . S
O766 Li704 1.961 . S
O766 Li706 1.956 . S
O766 Li707 1.970 . S
O766 C736 1.325 . S
O767 Li705 1.961 . S
O767 Li706 1.970 . S
O767 Li707 1.956 . S
O767 C742 1.325 . S
H768 C710 0.929 . S
H769 C711 0.930 . S
H770 C712 0.930 . S
H771 C713 0.930 . S
H772 C715 0.930 . S
H773 C717 0.929 . S
H774 C718 0.930 . S
H775 C719 0.930 . S
H776 C722 0.930 . S
H777 C725 0.929 . S
H778 C730 0.929 . S
H779 C731 0.930 . S
H780 C738 0.929 . S
H781 C739 0.930 . S
H782 C740 0.930 . S
H783 C741 0.930 . S
H784 C743 0.929 . S
H785 C744 0.930 . S
H786 C745 0.930 . S
H787 C746 0.930 . S
H788 C750 0.929 . S
H789 C752 0.930 . S
H790 C758 0.929 . S
H791 C759 0.930 . S
Li792 N809 1.990 . S
Li792 O852 1.956 . S
Li792 O853 1.970 . S
Li792 O854 1.961 . S
Li793 N817 1.990 . S
Li793 O852 1.970 . S
Li793 O853 1.956 . S
Li793 O855 1.961 . S
Li794 N839 1.990 . S
Li794 O852 1.961 . S
Li794 O854 1.956 . S
Li794 O855 1.970 . S
Li795 N845 1.990 . S
Li795 O853 1.961 . S
Li795 O854 1.970 . S
Li795 O855 1.956 . S
C796 C798 1.348 . S
C796 C799 1.356 . S
C796 O852 1.325 . S
N797 C800 1.314 1_554 S
N797 C801 1.279 . S
C798 C796 1.348 . S
C798 C800 1.353 . S
C798 H856 0.929 . S
C799 C796 1.356 . S
C799 C801 1.358 1_556 S
C799 H857 0.930 . S
C800 N797 1.314 1_556 S
C800 C798 1.353 . S
C800 H858 0.930 1_556 S
C801 N797 1.279 . S
C801 C799 1.358 1_554 S
C801 H859 0.930 . S
C802 C805 1.348 . S
C802 C806 1.356 . S
C802 O853 1.325 . S
C803 N804 1.279 . S
C803 C806 1.358 . S
C803 H860 0.930 . S
N804 C803 1.279 . S
N804 C807 1.314 . S
C805 C802 1.348 . S
C805 C807 1.353 . S
C805 H861 0.929 . S
C806 C802 1.356 . S
C806 C803 1.358 . S
C806 H862 0.930 . S
C807 N804 1.314 . S
C807 C805 1.353 . S
C807 H863 0.930 . S
C808 N809 1.314 . S
C808 C813 1.353 . S
C808 H814 0.930 . S
N809 Li792 1.990 . S
N809 C808 1.314 . S
N809 C811 1.279 . S
C810 C811 1.358 . S
C810 C812 1.356 . S
C810 H864 0.930 1_556 S
C811 N809 1.279 . S
C811 C810 1.358 . S
C811 H815 0.930 . S
C812 C810 1.356 . S
C812 C813 1.348 . S
C813 C808 1.353 . S
C813 C812 1.348 . S
C813 H865 0.929 1_455 S
H814 C808 0.930 . S
H815 C811 0.930 . S
C816 N817 1.314 . S
C816 C818 1.353 . S
C816 H822 0.930 . S
N817 Li793 1.990 . S
N817 C816 1.314 . S
N817 C820 1.279 . S
C818 C816 1.353 . S
C818 C821 1.348 . S
C818 H866 0.929 . S
C819 C820 1.358 . S
C819 C821 1.356 . S
C819 H867 0.930 . S
C820 N817 1.279 . S
C820 C819 1.358 . S
C820 H823 0.930 . S
C821 C818 1.348 . S
C821 C819 1.356 . S
H822 C816 0.930 . S
H823 C820 0.930 . S
C824 C826 1.348 . S
C824 C827 1.356 . S
C824 O854 1.325 . S
N825 C828 1.314 . S
N825 C829 1.279 . S
C826 C824 1.348 . S
C826 C828 1.353 . S
C826 H868 0.929 . S
C827 C824 1.356 . S
C827 C829 1.358 . S
C827 H869 0.930 . S
C828 N825 1.314 . S
C828 C826 1.353 . S
C828 H870 0.930 . S
C829 N825 1.279 . S
C829 C827 1.358 . S
C829 H871 0.930 . S
C830 C831 1.348 . S
C830 C832 1.356 . S
C830 O855 1.325 . S
C831 C830 1.348 . S
C831 C833 1.353 . S
C831 H872 0.929 . S
C832 C830 1.356 . S
C832 C834 1.358 . S
C832 H873 0.930 . S
C833 C831 1.353 . S
C833 N835 1.314 . S
C833 H874 0.930 . S
C834 C832 1.358 . S
C834 N835 1.279 . S
C834 H875 0.930 . S
N835 C833 1.314 . S
N835 C834 1.279 . S
C836 C838 1.353 . S
C836 N839 1.314 . S
C836 H842 0.930 . S
C837 N839 1.279 . S
C837 C840 1.358 . S
C837 H843 0.930 . S
C838 C836 1.353 . S
C838 C841 1.348 . S
C838 H876 0.929 . S
N839 Li794 1.990 . S
N839 C836 1.314 . S
N839 C837 1.279 . S
C840 C837 1.358 . S
C840 C841 1.356 . S
C840 H877 0.930 . S
C841 C838 1.348 . S
C841 C840 1.356 . S
H842 C836 0.930 . S
H843 C837 0.930 . S
C844 N845 1.314 . S
C844 C846 1.353 . S
C844 H850 0.930 . S
N845 Li795 1.990 . S
N845 C844 1.314 . S
N845 C848 1.279 . S
C846 C844 1.353 . S
C846 C849 1.348 . S
C846 H878 0.929 . S
C847 C848 1.358 . S
C847 C849 1.356 . S
C847 H879 0.930 . S
C848 N845 1.279 . S
C848 C847 1.358 . S
C848 H851 0.930 . S
C849 C846 1.348 . S
C849 C847 1.356 . S
H850 C844 0.930 . S
H851 C848 0.930 . S
O852 Li792 1.956 . S
O852 Li793 1.970 . S
O852 Li794 1.961 . S
O852 C796 1.325 . S
O853 Li792 1.970 . S
O853 Li793 1.956 . S
O853 Li795 1.961 . S
O853 C802 1.325 . S
O854 Li792 1.961 . S
O854 Li794 1.956 . S
O854 Li795 1.970 . S
O854 C824 1.325 . S
O855 Li793 1.961 . S
O855 Li794 1.970 . S
O855 Li795 1.956 . S
O855 C830 1.325 . S
H856 C798 0.929 . S
H857 C799 0.930 . S
H858 C800 0.930 1_554 S
H859 C801 0.930 . S
H860 C803 0.930 . S
H861 C805 0.929 . S
H862 C806 0.930 . S
H863 C807 0.930 . S
H864 C810 0.930 1_554 S
H865 C813 0.929 1_655 S
H866 C818 0.929 . S
H867 C819 0.930 . S
H868 C826 0.929 . S
H869 C827 0.930 . S
H870 C828 0.930 . S
H871 C829 0.930 . S
H872 C831 0.929 . S
H873 C832 0.930 . S
H874 C833 0.930 . S
H875 C834 0.930 . S
H876 C838 0.929 . S
H877 C840 0.930 . S
H878 C846 0.929 . S
H879 C847 0.930 . S
Li880 N897 1.990 . S
Li880 O940 1.956 . S
Li880 O941 1.970 . S
Li880 O942 1.961 . S
Li881 N905 1.990 . S
Li881 O940 1.970 . S
Li881 O941 1.956 . S
Li881 O943 1.961 . S
Li882 N927 1.990 . S
Li882 O940 1.961 . S
Li882 O942 1.956 . S
Li882 O943 1.970 . S
Li883 N933 1.990 . S
Li883 O941 1.961 . S
Li883 O942 1.970 . S
Li883 O943 1.956 . S
C884 C886 1.348 . S
C884 C887 1.356 . S
C884 O940 1.325 . S
N885 C888 1.314 . S
N885 C889 1.279 . S
C886 C884 1.348 . S
C886 C888 1.353 . S
C886 H944 0.929 . S
C887 C884 1.356 . S
C887 C889 1.358 . S
C887 H945 0.930 . S
C888 N885 1.314 . S
C888 C886 1.353 . S
C888 H946 0.930 . S
C889 N885 1.279 . S
C889 C887 1.358 . S
C889 H947 0.930 . S
C890 C893 1.348 . S
C890 C894 1.356 . S
C890 O941 1.325 . S
C891 N892 1.279 . S
C891 C894 1.358 . S
C891 H948 0.930 . S
N892 C891 1.279 . S
N892 C895 1.314 . S
C893 C890 1.348 . S
C893 C895 1.353 . S
C893 H949 0.929 . S
C894 C890 1.356 . S
C894 C891 1.358 . S
C894 H950 0.930 . S
C895 N892 1.314 . S
C895 C893 1.353 . S
C895 H951 0.930 . S
C896 N897 1.314 . S
C896 C901 1.353 . S
C896 H902 0.930 . S
N897 Li880 1.990 . S
N897 C896 1.314 . S
N897 C899 1.279 . S
C898 C899 1.358 . S
C898 C900 1.356 . S
C898 H952 0.930 . S
C899 N897 1.279 . S
C899 C898 1.358 . S
C899 H903 0.930 . S
C900 C898 1.356 . S
C900 C901 1.348 . S
C901 C896 1.353 . S
C901 C900 1.348 . S
C901 H953 0.929 . S
H902 C896 0.930 . S
H903 C899 0.930 . S
C904 N905 1.314 . S
C904 C906 1.353 . S
C904 H910 0.930 . S
N905 Li881 1.990 . S
N905 C904 1.314 . S
N905 C908 1.279 . S
C906 C904 1.353 . S
C906 C909 1.348 . S
C906 H954 0.929 . S
C907 C908 1.358 . S
C907 C909 1.356 . S
C907 H955 0.930 . S
C908 N905 1.279 . S
C908 C907 1.358 . S
C908 H911 0.930 . S
C909 C906 1.348 . S
C909 C907 1.356 . S
H910 C904 0.930 . S
H911 C908 0.930 . S
C912 C914 1.348 . S
C912 C915 1.356 . S
C912 O942 1.325 . S
N913 C916 1.314 . S
N913 C917 1.279 . S
C914 C912 1.348 . S
C914 C916 1.353 . S
C914 H956 0.929 . S
C915 C912 1.356 . S
C915 C917 1.358 . S
C915 H957 0.930 . S
C916 N913 1.314 . S
C916 C914 1.353 . S
C916 H958 0.930 . S
C917 N913 1.279 . S
C917 C915 1.358 . S
C917 H959 0.930 . S
C918 C919 1.348 . S
C918 C920 1.356 . S
C918 O943 1.325 . S
C919 C918 1.348 . S
C919 C921 1.353 . S
C919 H960 0.929 . S
C920 C918 1.356 . S
C920 C922 1.358 . S
C920 H961 0.930 . S
C921 C919 1.353 . S
C921 N923 1.314 . S
C921 H962 0.930 . S
C922 C920 1.358 . S
C922 N923 1.279 . S
C922 H963 0.930 . S
N923 C921 1.314 . S
N923 C922 1.279 . S
C924 C926 1.353 . S
C924 N927 1.314 . S
C924 H930 0.930 . S
C925 N927 1.279 . S
C925 C928 1.358 . S
C925 H931 0.930 . S
C926 C924 1.353 . S
C926 C929 1.348 . S
C926 H964 0.929 . S
N927 Li882 1.990 . S
N927 C924 1.314 . S
N927 C925 1.279 . S
C928 C925 1.358 . S
C928 C929 1.356 . S
C928 H965 0.930 . S
C929 C926 1.348 . S
C929 C928 1.356 . S
H930 C924 0.930 . S
H931 C925 0.930 . S
C932 N933 1.314 . S
C932 C934 1.353 . S
C932 H938 0.930 . S
N933 Li883 1.990 . S
N933 C932 1.314 . S
N933 C936 1.279 . S
C934 C932 1.353 . S
C934 C937 1.348 . S
C934 H966 0.929 . S
C935 C936 1.358 . S
C935 C937 1.356 . S
C935 H967 0.930 . S
C936 N933 1.279 . S
C936 C935 1.358 . S
C936 H939 0.930 . S
C937 C934 1.348 . S
C937 C935 1.356 . S
H938 C932 0.930 . S
H939 C936 0.930 . S
O940 Li880 1.956 . S
O940 Li881 1.970 . S
O940 Li882 1.961 . S
O940 C884 1.325 . S
O941 Li880 1.970 . S
O941 Li881 1.956 . S
O941 Li883 1.961 . S
O941 C890 1.325 . S
O942 Li880 1.961 . S
O942 Li882 1.956 . S
O942 Li883 1.970 . S
O942 C912 1.325 . S
O943 Li881 1.961 . S
O943 Li882 1.970 . S
O943 Li883 1.956 . S
O943 C918 1.325 . S
H944 C886 0.929 . S
H945 C887 0.930 . S
H946 C888 0.930 . S
H947 C889 0.930 . S
H948 C891 0.930 . S
H949 C893 0.929 . S
H950 C894 0.930 . S
H951 C895 0.930 . S
H952 C898 0.930 . S
H953 C901 0.929 . S
H954 C906 0.929 . S
H955 C907 0.930 . S
H956 C914 0.929 . S
H957 C915 0.930 . S
H958 C916 0.930 . S
H959 C917 0.930 . S
H960 C919 0.929 . S
H961 C920 0.930 . S
H962 C921 0.930 . S
H963 C922 0.930 . S
H964 C926 0.929 . S
H965 C928 0.930 . S
H966 C934 0.929 . S
H967 C935 0.930 . S
Li968 N985 1.990 . S
Li968 O1028 1.956 . S
Li968 O1029 1.970 . S
Li968 O1030 1.961 . S
Li969 N993 1.990 . S
Li969 O1028 1.970 . S
Li969 O1029 1.956 . S
Li969 O1031 1.961 . S
Li970 N1015 1.990 . S
Li970 O1028 1.961 . S
Li970 O1030 1.956 . S
Li970 O1031 1.970 . S
Li971 N1021 1.990 . S
Li971 O1029 1.961 . S
Li971 O1030 1.970 . S
Li971 O1031 1.956 . S
C972 C974 1.348 . S
C972 C975 1.356 . S
C972 O1028 1.325 . S
N973 C976 1.314 . S
N973 C977 1.279 . S
C974 C972 1.348 . S
C974 C976 1.353 . S
C974 H1032 0.929 . S
C975 C972 1.356 . S
C975 C977 1.358 . S
C975 H1033 0.930 . S
C976 N973 1.314 . S
C976 C974 1.353 . S
C976 H1034 0.930 . S
C977 N973 1.279 . S
C977 C975 1.358 . S
C977 H1035 0.930 . S
C978 C981 1.348 . S
C978 C982 1.356 . S
C978 O1029 1.325 . S
C979 N980 1.280 1_556 S
C979 C982 1.357 . S
C979 H1036 0.931 1_556 S
N980 C979 1.280 1_554 S
N980 C983 1.314 . S
C981 C978 1.348 . S
C981 C983 1.353 1_556 S
C981 H1037 0.929 . S
C982 C978 1.356 . S
C982 C979 1.357 . S
C982 H1038 0.930 . S
C983 N980 1.314 . S
C983 C981 1.353 1_554 S
C983 H1039 0.930 . S
C984 N985 1.314 . S
C984 C989 1.353 . S
C984 H990 0.930 . S
N985 Li968 1.990 . S
N985 C984 1.314 . S
N985 C987 1.279 . S
C986 C987 1.358 . S
C986 C988 1.356 . S
C986 H1040 0.930 . S
C987 N985 1.279 . S
C987 C986 1.358 . S
C987 H991 0.930 . S
C988 C986 1.356 . S
C988 C989 1.348 . S
C989 C984 1.353 . S
C989 C988 1.348 . S
C989 H1041 0.929 . S
H990 C984 0.930 . S
H991 C987 0.930 . S
C992 N993 1.314 . S
C992 C994 1.353 . S
C992 H998 0.930 . S
N993 Li969 1.990 . S
N993 C992 1.314 . S
N993 C996 1.279 . S
C994 C992 1.353 . S
C994 C997 1.348 . S
C994 H1042 0.929 . S
C995 C996 1.358 . S
C995 C997 1.356 . S
C995 H1043 0.930 1_556 S
C996 N993 1.279 . S
C996 C995 1.358 . S
C996 H999 0.930 . S
C997 C994 1.348 . S
C997 C995 1.356 . S
H998 C992 0.930 . S
H999 C996 0.930 . S
C1000 C1002 1.348 . S
C1000 C1003 1.356 . S
C1000 O1030 1.325 . S
N1001 C1004 1.314 . S
N1001 C1005 1.279 . S
C1002 C1000 1.348 . S
C1002 C1004 1.353 . S
C1002 H1044 0.929 . S
C1003 C1000 1.356 . S
C1003 C1005 1.358 . S
C1003 H1045 0.930 . S
C1004 N1001 1.314 . S
C1004 C1002 1.353 . S
C1004 H1046 0.930 . S
C1005 N1001 1.279 . S
C1005 C1003 1.358 . S
C1005 H1047 0.930 . S
C1006 C1007 1.348 . S
C1006 C1008 1.356 . S
C1006 O1031 1.325 . S
C1007 C1006 1.348 . S
C1007 C1009 1.353 . S
C1007 H1048 0.929 . S
C1008 C1006 1.356 . S
C1008 C1010 1.358 . S
C1008 H1049 0.930 . S
C1009 C1007 1.353 . S
C1009 N1011 1.314 . S
C1009 H1050 0.930 . S
C1010 C1008 1.358 . S
C1010 N1011 1.279 . S
C1010 H1051 0.930 . S
N1011 C1009 1.314 . S
N1011 C1010 1.279 . S
C1012 C1014 1.353 . S
C1012 N1015 1.314 . S
C1012 H1018 0.930 . S
C1013 N1015 1.279 . S
C1013 C1016 1.358 . S
C1013 H1019 0.930 . S
C1014 C1012 1.353 . S
C1014 C1017 1.348 . S
C1014 H1052 0.929 . S
N1015 Li970 1.990 . S
N1015 C1012 1.314 . S
N1015 C1013 1.279 . S
C1016 C1013 1.358 . S
C1016 C1017 1.356 . S
C1016 H1053 0.930 . S
C1017 C1014 1.348 . S
C1017 C1016 1.356 . S
H1018 C1012 0.930 . S
H1019 C1013 0.930 . S
C1020 N1021 1.314 . S
C1020 C1022 1.353 . S
C1020 H1026 0.930 . S
N1021 Li971 1.990 . S
N1021 C1020 1.314 . S
N1021 C1024 1.279 . S
C1022 C1020 1.353 . S
C1022 C1025 1.348 . S
C1022 H1054 0.929 . S
C1023 C1024 1.358 . S
C1023 C1025 1.356 . S
C1023 H1055 0.930 . S
C1024 N1021 1.279 . S
C1024 C1023 1.358 . S
C1024 H1027 0.930 . S
C1025 C1022 1.348 . S
C1025 C1023 1.356 . S
H1026 C1020 0.930 . S
H1027 C1024 0.930 . S
O1028 Li968 1.956 . S
O1028 Li969 1.970 . S
O1028 Li970 1.961 . S
O1028 C972 1.325 . S
O1029 Li968 1.970 . S
O1029 Li969 1.956 . S
O1029 Li971 1.961 . S
O1029 C978 1.325 . S
O1030 Li968 1.961 . S
O1030 Li970 1.956 . S
O1030 Li971 1.970 . S
O1030 C1000 1.325 . S
O1031 Li969 1.961 . S
O1031 Li970 1.970 . S
O1031 Li971 1.956 . S
O1031 C1006 1.325 . S
H1032 C974 0.929 . S
H1033 C975 0.930 . S
H1034 C976 0.930 . S
H1035 C977 0.930 . S
H1036 C979 0.931 1_554 S
H1037 C981 0.929 . S
H1038 C982 0.930 . S
H1039 C983 0.930 . S
H1040 C986 0.930 . S
H1041 C989 0.929 . S
H1042 C994 0.929 . S
H1043 C995 0.930 1_554 S
H1044 C1002 0.929 . S
H1045 C1003 0.930 . S
H1046 C1004 0.930 . S
H1047 C1005 0.930 . S
H1048 C1007 0.929 . S
H1049 C1008 0.930 . S
H1050 C1009 0.930 . S
H1051 C1010 0.930 . S
H1052 C1014 0.929 . S
H1053 C1016 0.930 . S
H1054 C1022 0.929 . S
H1055 C1023 0.930 . S
C1056 C1057 1.369 . S
C1056 C1058 1.419 . S
C1056 H1060 0.930 . S
C1057 C1056 1.369 . S
C1057 C1066 1.429 . S
C1058 C1056 1.419 . S
C1058 C1059 1.363 . S
C1058 H1061 0.929 . S
C1059 C1058 1.363 . S
C1059 C1065 1.428 . S
H1060 C1056 0.930 . S
H1061 C1058 0.929 . S
S1062 N1063 1.613 . S
S1062 N1064 1.610 . S
N1063 S1062 1.613 . S
N1063 C1066 1.350 . S
N1064 S1062 1.610 . S
N1064 C1065 1.351 . S
C1065 C1059 1.428 . S
C1065 N1064 1.351 . S
C1065 C1066 1.434 . S
C1066 C1057 1.429 . S
C1066 N1063 1.350 . S
C1066 C1065 1.434 . S
C1067 C1068 1.369 . S
C1067 C1069 1.419 . S
C1067 H1071 0.930 . S
C1068 C1067 1.369 . S
C1068 C1077 1.429 . S
C1069 C1067 1.419 . S
C1069 C1070 1.363 . S
C1069 H1072 0.929 . S
C1070 C1069 1.363 . S
C1070 C1076 1.428 . S
H1071 C1067 0.930 . S
H1072 C1069 0.929 . S
S1073 N1074 1.613 . S
S1073 N1075 1.610 . S
N1074 S1073 1.613 . S
N1074 C1077 1.350 . S
N1075 S1073 1.610 . S
N1075 C1076 1.351 . S
C1076 C1070 1.428 . S
C1076 N1075 1.351 . S
C1076 C1077 1.434 . S
C1077 C1068 1.429 . S
C1077 N1074 1.350 . S
C1077 C1076 1.434 . S
C1078 C1079 1.369 . S
C1078 C1080 1.419 . S
C1078 H1082 0.930 . S
C1079 C1078 1.369 . S
C1079 C1088 1.429 . S
C1080 C1078 1.419 . S
C1080 C1081 1.363 . S
C1080 H1083 0.929 . S
C1081 C1080 1.363 . S
C1081 C1087 1.428 . S
H1082 C1078 0.930 . S
H1083 C1080 0.929 . S
S1084 N1085 1.613 . S
S1084 N1086 1.610 . S
N1085 S1084 1.613 . S
N1085 C1088 1.350 . S
N1086 S1084 1.610 . S
N1086 C1087 1.351 . S
C1087 C1081 1.428 . S
C1087 N1086 1.351 . S
C1087 C1088 1.434 . S
C1088 C1079 1.429 . S
C1088 N1085 1.350 . S
C1088 C1087 1.434 . S
C1089 C1090 1.369 . S
C1089 C1091 1.419 . S
C1089 H1093 0.930 . S
C1090 C1089 1.369 . S
C1090 C1099 1.429 . S
C1091 C1089 1.419 . S
C1091 C1092 1.363 . S
C1091 H1094 0.929 . S
C1092 C1091 1.363 . S
C1092 C1098 1.428 . S
H1093 C1089 0.930 . S
H1094 C1091 0.929 . S
S1095 N1096 1.613 . S
S1095 N1097 1.610 . S
N1096 S1095 1.613 . S
N1096 C1099 1.350 . S
N1097 S1095 1.610 . S
N1097 C1098 1.351 . S
C1098 C1092 1.428 . S
C1098 N1097 1.351 . S
C1098 C1099 1.434 . S
C1099 C1090 1.429 . S
C1099 N1096 1.350 . S
C1099 C1098 1.434 . S
C1100 C1101 1.369 . S
C1100 C1102 1.419 . S
C1100 H1104 0.930 . S
C1101 C1100 1.369 . S
C1101 C1110 1.429 . S
C1102 C1100 1.419 . S
C1102 C1103 1.363 . S
C1102 H1105 0.929 . S
C1103 C1102 1.363 . S
C1103 C1109 1.428 . S
H1104 C1100 0.930 . S
H1105 C1102 0.929 . S
S1106 N1107 1.613 . S
S1106 N1108 1.610 . S
N1107 S1106 1.613 . S
N1107 C1110 1.350 . S
N1108 S1106 1.610 . S
N1108 C1109 1.351 . S
C1109 C1103 1.428 . S
C1109 N1108 1.351 . S
C1109 C1110 1.434 . S
C1110 C1101 1.429 . S
C1110 N1107 1.350 . S
C1110 C1109 1.434 . S
C1111 C1112 1.369 . S
C1111 C1113 1.419 . S
C1111 H1115 0.930 . S
C1112 C1111 1.369 . S
C1112 C1121 1.429 . S
C1113 C1111 1.419 . S
C1113 C1114 1.363 . S
C1113 H1116 0.929 . S
C1114 C1113 1.363 . S
C1114 C1120 1.428 . S
H1115 C1111 0.930 . S
H1116 C1113 0.929 . S
S1117 N1118 1.613 . S
S1117 N1119 1.610 . S
N1118 S1117 1.613 . S
N1118 C1121 1.350 . S
N1119 S1117 1.610 . S
N1119 C1120 1.351 . S
C1120 C1114 1.428 . S
C1120 N1119 1.351 . S
C1120 C1121 1.434 . S
C1121 C1112 1.429 . S
C1121 N1118 1.350 . S
C1121 C1120 1.434 . S
C1122 C1123 1.369 . S
C1122 C1124 1.419 1_545 S
C1122 H1126 0.930 . S
C1123 C1122 1.369 . S
C1123 C1132 1.429 1_554 S
C1124 C1122 1.419 1_565 S
C1124 C1125 1.363 1_554 S
C1124 H1127 0.929 . S
C1125 C1124 1.363 1_556 S
C1125 C1131 1.428 . S
H1126 C1122 0.930 . S
H1127 C1124 0.929 . S
S1128 N1129 1.613 . S
S1128 N1130 1.610 1_545 S
N1129 S1128 1.613 . S
N1129 C1132 1.350 . S
N1130 S1128 1.610 1_565 S
N1130 C1131 1.351 . S
C1131 C1125 1.428 . S
C1131 N1130 1.351 . S
C1131 C1132 1.434 1_565 S
C1132 C1123 1.429 1_556 S
C1132 N1129 1.350 . S
C1132 C1131 1.434 1_545 S
C1133 C1134 1.369 . S
C1133 C1135 1.419 . S
C1133 H1137 0.930 . S
C1134 C1133 1.369 . S
C1134 C1143 1.429 . S
C1135 C1133 1.419 . S
C1135 C1136 1.363 . S
C1135 H1138 0.929 . S
C1136 C1135 1.363 . S
C1136 C1142 1.428 . S
H1137 C1133 0.930 . S
H1138 C1135 0.929 . S
S1139 N1140 1.613 . S
S1139 N1141 1.610 . S
N1140 S1139 1.613 . S
N1140 C1143 1.350 . S
N1141 S1139 1.610 . S
N1141 C1142 1.351 . S
C1142 C1136 1.428 . S
C1142 N1141 1.351 . S
C1142 C1143 1.434 . S
C1143 C1134 1.429 . S
C1143 N1140 1.350 . S
C1143 C1142 1.434 . S
C1144 C1145 1.369 1_554 S
C1144 C1146 1.419 . S
C1144 H1148 0.930 . S
C1145 C1144 1.369 1_556 S
C1145 C1154 1.429 . S
C1146 C1144 1.419 . S
C1146 C1147 1.363 . S
C1146 H1149 0.929 . S
C1147 C1146 1.363 . S
C1147 C1153 1.430 1_654 S
H1148 C1144 0.930 . S
H1149 C1146 0.929 . S
S1150 N1151 1.617 . S
S1150 N1152 1.610 . S
N1151 S1150 1.617 . S
N1151 C1154 1.350 1_455 S
N1152 S1150 1.610 . S
N1152 C1153 1.357 . S
C1153 C1147 1.430 1_456 S
C1153 N1152 1.357 . S
C1153 C1154 1.425 1_455 S
C1154 C1145 1.429 . S
C1154 N1151 1.350 1_655 S
C1154 C1153 1.425 1_655 S
C1155 C1156 1.369 . S
C1155 C1157 1.419 . S
C1155 H1159 0.930 . S
C1156 C1155 1.369 . S
C1156 C1165 1.429 1_545 S
C1157 C1155 1.419 . S
C1157 C1158 1.363 1_545 S
C1157 H1160 0.929 . S
C1158 C1157 1.363 1_565 S
C1158 C1164 1.428 . S
H1159 C1155 0.930 . S
H1160 C1157 0.929 . S
S1161 N1162 1.613 . S
S1161 N1163 1.610 . S
N1162 S1161 1.613 . S
N1162 C1165 1.350 . S
N1163 S1161 1.610 . S
N1163 C1164 1.351 . S
C1164 C1158 1.428 . S
C1164 N1163 1.351 . S
C1164 C1165 1.434 . S
C1165 C1156 1.429 1_565 S
C1165 N1162 1.350 . S
C1165 C1164 1.434 . S
C1166 C1167 1.369 1_554 S
C1166 C1168 1.419 . S
C1166 H1170 0.930 . S
C1167 C1166 1.369 1_556 S
C1167 C1176 1.429 . S
C1168 C1166 1.419 . S
C1168 C1169 1.363 . S
C1168 H1171 0.929 . S
C1169 C1168 1.363 . S
C1169 C1175 1.428 1_554 S
H1170 C1166 0.930 . S
H1171 C1168 0.929 . S
S1172 N1173 1.613 . S
S1172 N1174 1.610 . S
N1173 S1172 1.613 . S
N1173 C1176 1.350 . S
N1174 S1172 1.610 . S
N1174 C1175 1.351 . S
C1175 C1169 1.428 1_556 S
C1175 N1174 1.351 . S
C1175 C1176 1.434 . S
C1176 C1167 1.429 . S
C1176 N1173 1.350 . S
C1176 C1175 1.434 . S
C1177 C1178 1.369 1_655 S
C1177 C1179 1.419 . S
C1177 H1181 0.930 . S
C1178 C1177 1.369 1_455 S
C1178 C1187 1.429 . S
C1179 C1177 1.419 . S
C1179 C1180 1.363 1_655 S
C1179 H1182 0.929 . S
C1180 C1179 1.363 1_455 S
C1180 C1186 1.428 . S
H1181 C1177 0.930 . S
H1182 C1179 0.929 . S
S1183 N1184 1.613 . S
S1183 N1185 1.610 . S
N1184 S1183 1.613 . S
N1184 C1187 1.350 . S
N1185 S1183 1.610 . S
N1185 C1186 1.351 . S
C1186 C1180 1.428 . S
C1186 N1185 1.351 . S
C1186 C1187 1.434 . S
C1187 C1178 1.429 . S
C1187 N1184 1.350 . S
C1187 C1186 1.434 . S
C1188 C1189 1.369 . S
C1188 C1190 1.419 . S
C1188 H1192 0.930 . S
C1189 C1188 1.369 . S
C1189 C1198 1.429 . S
C1190 C1188 1.419 . S
C1190 C1191 1.363 . S
C1190 H1193 0.929 . S
C1191 C1190 1.363 . S
C1191 C1197 1.428 . S
H1192 C1188 0.930 . S
H1193 C1190 0.929 . S
S1194 N1195 1.613 . S
S1194 N1196 1.610 . S
N1195 S1194 1.613 . S
N1195 C1198 1.350 . S
N1196 S1194 1.610 . S
N1196 C1197 1.351 . S
C1197 C1191 1.428 . S
C1197 N1196 1.351 . S
C1197 C1198 1.434 . S
C1198 C1189 1.429 . S
C1198 N1195 1.350 . S
C1198 C1197 1.434 . S
C1199 C1200 1.369 . S
C1199 C1201 1.419 . S
C1199 H1203 0.930 . S
C1200 C1199 1.369 . S
C1200 C1209 1.429 . S
C1201 C1199 1.419 . S
C1201 C1202 1.363 . S
C1201 H1204 0.929 . S
C1202 C1201 1.363 . S
C1202 C1208 1.428 . S
H1203 C1199 0.930 . S
H1204 C1201 0.929 . S
S1205 N1206 1.613 . S
S1205 N1207 1.610 . S
N1206 S1205 1.613 . S
N1206 C1209 1.350 . S
N1207 S1205 1.610 . S
N1207 C1208 1.351 . S
C1208 C1202 1.428 . S
C1208 N1207 1.351 . S
C1208 C1209 1.434 . S
C1209 C1200 1.429 . S
C1209 N1206 1.350 . S
C1209 C1208 1.434 . S
C1210 C1211 1.369 . S
C1210 C1212 1.419 . S
C1210 H1214 0.930 . S
C1211 C1210 1.369 . S
C1211 C1220 1.429 . S
C1212 C1210 1.419 . S
C1212 C1213 1.363 . S
C1212 H1215 0.929 . S
C1213 C1212 1.363 . S
C1213 C1219 1.428 . S
H1214 C1210 0.930 . S
H1215 C1212 0.929 . S
S1216 N1217 1.613 . S
S1216 N1218 1.610 . S
N1217 S1216 1.613 . S
N1217 C1220 1.350 . S
N1218 S1216 1.610 . S
N1218 C1219 1.351 . S
C1219 C1213 1.428 . S
C1219 N1218 1.351 . S
C1219 C1220 1.434 . S
C1220 C1211 1.429 . S
C1220 N1217 1.350 . S
C1220 C1219 1.434 . S
C1221 C1222 1.369 . S
C1221 C1223 1.419 . S
C1221 H1225 0.930 . S
C1222 C1221 1.369 . S
C1222 C1231 1.429 . S
C1223 C1221 1.419 . S
C1223 C1224 1.363 . S
C1223 H1226 0.929 . S
C1224 C1223 1.363 . S
C1224 C1230 1.428 . S
H1225 C1221 0.930 . S
H1226 C1223 0.929 . S
S1227 N1228 1.613 . S
S1227 N1229 1.610 . S
N1228 S1227 1.613 . S
N1228 C1231 1.350 . S
N1229 S1227 1.610 . S
N1229 C1230 1.351 . S
C1230 C1224 1.428 . S
C1230 N1229 1.351 . S
C1230 C1231 1.434 . S
C1231 C1222 1.429 . S
C1231 N1228 1.350 . S
C1231 C1230 1.434 . S
C1232 C1233 1.369 . S
C1232 C1234 1.419 . S
C1232 H1236 0.930 . S
C1233 C1232 1.369 . S
C1233 C1242 1.429 . S
C1234 C1232 1.419 . S
C1234 C1235 1.363 . S
C1234 H1237 0.929 . S
C1235 C1234 1.363 . S
C1235 C1241 1.428 . S
H1236 C1232 0.930 . S
H1237 C1234 0.929 . S
S1238 N1239 1.613 . S
S1238 N1240 1.610 . S
N1239 S1238 1.613 . S
N1239 C1242 1.350 . S
N1240 S1238 1.610 . S
N1240 C1241 1.351 . S
C1241 C1235 1.428 . S
C1241 N1240 1.351 . S
C1241 C1242 1.434 . S
C1242 C1233 1.429 . S
C1242 N1239 1.350 . S
C1242 C1241 1.434 . S
C1243 C1244 1.369 . S
C1243 C1245 1.419 . S
C1243 H1247 0.930 . S
C1244 C1243 1.369 . S
C1244 C1253 1.429 . S
C1245 C1243 1.419 . S
C1245 C1246 1.363 . S
C1245 H1248 0.929 . S
C1246 C1245 1.363 . S
C1246 C1252 1.428 . S
H1247 C1243 0.930 . S
H1248 C1245 0.929 . S
S1249 N1250 1.613 . S
S1249 N1251 1.610 . S
N1250 S1249 1.613 . S
N1250 C1253 1.350 . S
N1251 S1249 1.610 . S
N1251 C1252 1.351 . S
C1252 C1246 1.428 . S
C1252 N1251 1.351 . S
C1252 C1253 1.434 . S
C1253 C1244 1.429 . S
C1253 N1250 1.350 . S
C1253 C1252 1.434 . S
C1254 C1255 1.369 . S
C1254 C1256 1.419 . S
C1254 H1258 0.930 . S
C1255 C1254 1.369 . S
C1255 C1264 1.429 . S
C1256 C1254 1.419 . S
C1256 C1257 1.363 . S
C1256 H1259 0.929 . S
C1257 C1256 1.363 . S
C1257 C1263 1.428 . S
H1258 C1254 0.930 . S
H1259 C1256 0.929 . S
S1260 N1261 1.613 . S
S1260 N1262 1.610 . S
N1261 S1260 1.613 . S
N1261 C1264 1.350 . S
N1262 S1260 1.610 . S
N1262 C1263 1.351 . S
C1263 C1257 1.428 . S
C1263 N1262 1.351 . S
C1263 C1264 1.434 . S
C1264 C1255 1.429 . S
C1264 N1261 1.350 . S
C1264 C1263 1.434 . S
C1265 C1266 1.369 . S
C1265 C1267 1.419 . S
C1265 H1269 0.930 . S
C1266 C1265 1.369 . S
C1266 C1275 1.429 . S
C1267 C1265 1.419 . S
C1267 C1268 1.363 . S
C1267 H1270 0.929 . S
C1268 C1267 1.363 . S
C1268 C1274 1.428 . S
H1269 C1265 0.930 . S
H1270 C1267 0.929 . S
S1271 N1272 1.613 . S
S1271 N1273 1.610 . S
N1272 S1271 1.613 . S
N1272 C1275 1.350 . S
N1273 S1271 1.610 . S
N1273 C1274 1.351 . S
C1274 C1268 1.428 . S
C1274 N1273 1.351 . S
C1274 C1275 1.434 . S
C1275 C1266 1.429 . S
C1275 N1272 1.350 . S
C1275 C1274 1.434 . S
C1276 C1277 1.369 . S
C1276 C1278 1.419 . S
C1276 H1280 0.930 . S
C1277 C1276 1.369 . S
C1277 C1286 1.429 . S
C1278 C1276 1.419 . S
C1278 C1279 1.363 . S
C1278 H1281 0.929 . S
C1279 C1278 1.363 . S
C1279 C1285 1.428 . S
H1280 C1276 0.930 . S
H1281 C1278 0.929 . S
S1282 N1283 1.613 . S
S1282 N1284 1.610 . S
N1283 S1282 1.613 . S
N1283 C1286 1.350 . S
N1284 S1282 1.610 . S
N1284 C1285 1.351 . S
C1285 C1279 1.428 . S
C1285 N1284 1.351 . S
C1285 C1286 1.434 . S
C1286 C1277 1.429 . S
C1286 N1283 1.350 . S
C1286 C1285 1.434 . S
C1287 C1288 1.369 . S
C1287 C1289 1.419 . S
C1287 H1291 0.930 . S
C1288 C1287 1.369 . S
C1288 C1297 1.429 . S
C1289 C1287 1.419 . S
C1289 C1290 1.363 . S
C1289 H1292 0.929 . S
C1290 C1289 1.363 . S
C1290 C1296 1.428 . S
H1291 C1287 0.930 . S
H1292 C1289 0.929 . S
S1293 N1294 1.613 . S
S1293 N1295 1.610 . S
N1294 S1293 1.613 . S
N1294 C1297 1.350 . S
N1295 S1293 1.610 . S
N1295 C1296 1.351 . S
C1296 C1290 1.428 . S
C1296 N1295 1.351 . S
C1296 C1297 1.434 . S
C1297 C1288 1.429 . S
C1297 N1294 1.350 . S
C1297 C1296 1.434 . S
C1298 C1299 1.369 . S
C1298 C1300 1.419 . S
C1298 H1302 0.930 . S
C1299 C1298 1.369 . S
C1299 C1308 1.429 . S
C1300 C1298 1.419 . S
C1300 C1301 1.363 . S
C1300 H1303 0.929 . S
C1301 C1300 1.363 . S
C1301 C1307 1.428 . S
H1302 C1298 0.930 . S
H1303 C1300 0.929 . S
S1304 N1305 1.613 . S
S1304 N1306 1.610 . S
N1305 S1304 1.613 . S
N1305 C1308 1.350 . S
N1306 S1304 1.610 . S
N1306 C1307 1.351 . S
C1307 C1301 1.428 . S
C1307 N1306 1.351 . S
C1307 C1308 1.434 . S
C1308 C1299 1.429 . S
C1308 N1305 1.350 . S
C1308 C1307 1.434 . S
C1309 C1310 1.369 . S
C1309 C1311 1.419 . S
C1309 H1313 0.930 . S
C1310 C1309 1.369 . S
C1310 C1319 1.429 . S
C1311 C1309 1.419 . S
C1311 C1312 1.363 . S
C1311 H1314 0.929 . S
C1312 C1311 1.363 . S
C1312 C1318 1.428 . S
H1313 C1309 0.930 . S
H1314 C1311 0.929 . S
S1315 N1316 1.613 . S
S1315 N1317 1.610 . S
N1316 S1315 1.613 . S
N1316 C1319 1.350 . S
N1317 S1315 1.610 . S
N1317 C1318 1.351 . S
C1318 C1312 1.428 . S
C1318 N1317 1.351 . S
C1318 C1319 1.434 . S
C1319 C1310 1.429 . S
C1319 N1316 1.350 . S
C1319 C1318 1.434 . S
C1057 C929 1.636 . S
C1059 C57 1.637 . S
C1068 C117 1.574 . S
C1070 C1017 1.576 . S
C1079 C205 1.614 . S
C1081 C577 1.612 . S
C1090 C636 1.633 . S
C1092 C293 1.635 . S
C1101 C761 1.575 . S
C1103 C372 1.572 . S
C1112 C460 1.614 . S
C1114 C849 1.612 . S
C1123 C49 0.845 . S
C1125 C645 0.844 . S
C1134 C137 1.709 . S
C1136 C724 1.673 . S
C1145 C812 1.619 1_655 S
C1147 C225 1.600 . S
C1156 C937 0.847 . S
C1158 C284 0.842 . S
C1167 C997 1.672 . S
C1169 C409 1.707 . S
C1178 C557 1.625 1_455 S
C1180 C497 1.594 . S
C1189 C20 1.447 . S
C1191 C381 1.249 . S
C1200 C145 0.980 . S
C1202 C469 0.984 . S
C1211 C233 1.196 . S
C1213 C29 1.289 . S
C1222 C313 1.448 . S
C1224 C108 1.235 . S
C1233 C401 0.981 . S
C1235 C196 0.986 . S
C1244 C489 1.180 . S
C1246 C321 1.284 . S
C1255 C548 0.986 . S
C1257 C753 0.986 . S
C1266 C673 1.298 . S
C1268 C841 1.202 . S
C1277 C900 1.440 . S
C1279 C733 1.225 . S
C1288 C821 0.988 . S
C1290 C1025 0.988 . S
C1299 C909 1.299 . S
C1301 C585 1.204 . S
C1310 C988 1.223 . S
C1312 C665 1.439 . S
