# Generated by pormake.
# Topology vbp, (6)-cn, num edge types: 1
# Building blocks:
#     Node 0, Type 0, BuildingBlock: OJICUG_clean_sbu_0, # of connection points: 6
#     Node 1, Type 0, BuildingBlock: OJICUG_clean_sbu_0, # of connection points: 6
#     Node 2, Type 0, BuildingBlock: OJICUG_clean_sbu_0, # of connection points: 6
#     Node 3, Type 0, BuildingBlock: OJICUG_clean_sbu_0, # of connection points: 6
#     Node 4, Type 0, BuildingBlock: OJICUG_clean_sbu_0, # of connection points: 6
#     Node 5, Type 0, BuildingBlock: OJICUG_clean_sbu_0, # of connection points: 6
#     Node 6, Type 0, BuildingBlock: OJICUG_clean_sbu_0, # of connection points: 6
#     Node 7, Type 0, BuildingBlock: OJICUG_clean_sbu_0, # of connection points: 6
#     Node 8, Type 0, BuildingBlock: OJICUG_clean_sbu_0, # of connection points: 6
#     Node 9, Type 0, BuildingBlock: OJICUG_clean_sbu_0, # of connection points: 6
#     Node 10, Type 0, BuildingBlock: OJICUG_clean_sbu_0, # of connection points: 6
#     Node 11, Type 0, BuildingBlock: OJICUG_clean_sbu_0, # of connection points: 6
#     Node 12, Type 0, BuildingBlock: OJICUG_clean_sbu_0, # of connection points: 6
#     Node 13, Type 0, BuildingBlock: OJICUG_clean_sbu_0, # of connection points: 6
#     Node 14, Type 0, BuildingBlock: OJICUG_clean_sbu_0, # of connection points: 6
#     Node 15, Type 0, BuildingBlock: OJICUG_clean_sbu_0, # of connection points: 6
#     Edge 16, Type (0, 0), BuildingBlock: XIVTED_clean_linker_0, # of connection points: 2
#     Edge 17, Type (0, 0), BuildingBlock: XIVTED_clean_linker_0, # of connection points: 2
#     Edge 18, Type (0, 0), BuildingBlock: XIVTED_clean_linker_0, # of connection points: 2
#     Edge 19, Type (0, 0), BuildingBlock: XIVTED_clean_linker_0, # of connection points: 2
#     Edge 20, Type (0, 0), BuildingBlock: XIVTED_clean_linker_0, # of connection points: 2
#     Edge 21, Type (0, 0), BuildingBlock: XIVTED_clean_linker_0, # of connection points: 2
#     Edge 22, Type (0, 0), BuildingBlock: XIVTED_clean_linker_0, # of connection points: 2
#     Edge 23, Type (0, 0), BuildingBlock: XIVTED_clean_linker_0, # of connection points: 2
#     Edge 24, Type (0, 0), BuildingBlock: XIVTED_clean_linker_0, # of connection points: 2
#     Edge 25, Type (0, 0), BuildingBlock: XIVTED_clean_linker_0, # of connection points: 2
#     Edge 26, Type (0, 0), BuildingBlock: XIVTED_clean_linker_0, # of connection points: 2
#     Edge 27, Type (0, 0), BuildingBlock: XIVTED_clean_linker_0, # of connection points: 2
#     Edge 28, Type (0, 0), BuildingBlock: XIVTED_clean_linker_0, # of connection points: 2
#     Edge 29, Type (0, 0), BuildingBlock: XIVTED_clean_linker_0, # of connection points: 2
#     Edge 30, Type (0, 0), BuildingBlock: XIVTED_clean_linker_0, # of connection points: 2
#     Edge 31, Type (0, 0), BuildingBlock: XIVTED_clean_linker_0, # of connection points: 2
#     Edge 32, Type (0, 0), BuildingBlock: XIVTED_clean_linker_0, # of connection points: 2
#     Edge 33, Type (0, 0), BuildingBlock: XIVTED_clean_linker_0, # of connection points: 2
#     Edge 34, Type (0, 0), BuildingBlock: XIVTED_clean_linker_0, # of connection points: 2
#     Edge 35, Type (0, 0), BuildingBlock: XIVTED_clean_linker_0, # of connection points: 2
#     Edge 36, Type (0, 0), BuildingBlock: XIVTED_clean_linker_0, # of connection points: 2
#     Edge 37, Type (0, 0), BuildingBlock: XIVTED_clean_linker_0, # of connection points: 2
#     Edge 38, Type (0, 0), BuildingBlock: XIVTED_clean_linker_0, # of connection points: 2
#     Edge 39, Type (0, 0), BuildingBlock: XIVTED_clean_linker_0, # of connection points: 2
#     Edge 40, Type (0, 0), BuildingBlock: XIVTED_clean_linker_0, # of connection points: 2
#     Edge 41, Type (0, 0), BuildingBlock: XIVTED_clean_linker_0, # of connection points: 2
#     Edge 42, Type (0, 0), BuildingBlock: XIVTED_clean_linker_0, # of connection points: 2
#     Edge 43, Type (0, 0), BuildingBlock: XIVTED_clean_linker_0, # of connection points: 2
#     Edge 44, Type (0, 0), BuildingBlock: XIVTED_clean_linker_0, # of connection points: 2
#     Edge 45, Type (0, 0), BuildingBlock: XIVTED_clean_linker_0, # of connection points: 2
#     Edge 46, Type (0, 0), BuildingBlock: XIVTED_clean_linker_0, # of connection points: 2
#     Edge 47, Type (0, 0), BuildingBlock: XIVTED_clean_linker_0, # of connection points: 2
#     Edge 48, Type (0, 0), BuildingBlock: XIVTED_clean_linker_0, # of connection points: 2
#     Edge 49, Type (0, 0), BuildingBlock: XIVTED_clean_linker_0, # of connection points: 2
#     Edge 50, Type (0, 0), BuildingBlock: XIVTED_clean_linker_0, # of connection points: 2
#     Edge 51, Type (0, 0), BuildingBlock: XIVTED_clean_linker_0, # of connection points: 2
#     Edge 52, Type (0, 0), BuildingBlock: XIVTED_clean_linker_0, # of connection points: 2
#     Edge 53, Type (0, 0), BuildingBlock: XIVTED_clean_linker_0, # of connection points: 2
#     Edge 54, Type (0, 0), BuildingBlock: XIVTED_clean_linker_0, # of connection points: 2
#     Edge 55, Type (0, 0), BuildingBlock: XIVTED_clean_linker_0, # of connection points: 2
#     Edge 56, Type (0, 0), BuildingBlock: XIVTED_clean_linker_0, # of connection points: 2
#     Edge 57, Type (0, 0), BuildingBlock: XIVTED_clean_linker_0, # of connection points: 2
#     Edge 58, Type (0, 0), BuildingBlock: XIVTED_clean_linker_0, # of connection points: 2
#     Edge 59, Type (0, 0), BuildingBlock: XIVTED_clean_linker_0, # of connection points: 2
#     Edge 60, Type (0, 0), BuildingBlock: XIVTED_clean_linker_0, # of connection points: 2
#     Edge 61, Type (0, 0), BuildingBlock: XIVTED_clean_linker_0, # of connection points: 2
#     Edge 62, Type (0, 0), BuildingBlock: XIVTED_clean_linker_0, # of connection points: 2
#     Edge 63, Type (0, 0), BuildingBlock: XIVTED_clean_linker_0, # of connection points: 2
# Relax obj value: 0.262
# Max RMSD: 0.268
# Mean RMSD: 0.268
data_MOF--net-vbp--node1-OJICUG_clean_sbu_0--edge1-XIVTED_clean_linker_0
_symmetry_space_group_name_H-M    P1
_symmetry_Int_Tables_number       1
_symmetry_cell_setting            triclinic
loop_
_symmetry_equiv_pos_as_xyz
'x, y, z'
_cell_length_a     29.950734
_cell_length_b     42.949007
_cell_length_c     55.271133
_cell_angle_alpha  89.982177
_cell_angle_beta   89.982458
_cell_angle_gamma 90.025278
loop_
_atom_site_label
_atom_site_type_symbol
_atom_site_fract_x
_atom_site_fract_y
_atom_site_fract_z
_atom_type_partial_charge
Sc0 Sc 0.32017 0.10797 0.14625 0.0
Sc1 Sc 0.36779 0.03727 0.12879 0.0
Sc2 Sc 0.41122 0.10668 0.10663 0.0
O3 O 0.36675 0.084 0.12751 0.0
C4 C 0.31973 0.13998 0.09394 0.0
C5 C 0.26566 0.04797 0.12839 0.0
C6 C 0.39647 0.04908 0.0738 0.0
C7 C 0.344 0.05513 0.18381 0.0
C8 C 0.40679 0.15204 0.15089 0.0
C9 C 0.46961 0.05233 0.13055 0.0
O10 O 0.29824 0.12929 0.11215 0.0
O11 O 0.29881 0.03418 0.11884 0.0
O12 O 0.39817 0.07845 0.07563 0.0
O13 O 0.33759 0.08441 0.18053 0.0
O14 O 0.42935 0.1367 0.13562 0.0
O15 O 0.43669 0.0371 0.13896 0.0
O16 O 0.36543 0.14678 0.15483 0.0
O17 O 0.35045 0.03647 0.16633 0.0
O18 O 0.46507 0.07644 0.11738 0.0
O19 O 0.26958 0.073 0.14051 0.0
O20 O 0.36212 0.13874 0.09267 0.0
O21 O 0.38761 0.03155 0.09167 0.0
Sc22 Sc 0.66775 0.38509 0.14632 0.0
Sc23 Sc 0.62566 0.45766 0.13016 0.0
Sc24 Sc 0.57852 0.3904 0.10646 0.0
O25 O 0.62339 0.41112 0.12806 0.0
C26 C 0.66761 0.35599 0.09346 0.0
C27 C 0.72664 0.44406 0.13086 0.0
C28 C 0.59997 0.44756 0.07456 0.0
C29 C 0.64677 0.43654 0.18474 0.0
C30 C 0.57801 0.34389 0.14945 0.0
C31 C 0.52305 0.44651 0.13005 0.0
O32 O 0.69001 0.36612 0.11151 0.0
O33 O 0.69486 0.45845 0.12053 0.0
O34 O 0.5968 0.41818 0.076 0.0
O35 O 0.6488 0.40712 0.18078 0.0
O36 O 0.55624 0.36145 0.13531 0.0
O37 O 0.55632 0.46003 0.13979 0.0
O38 O 0.62005 0.34692 0.15274 0.0
O39 O 0.64318 0.4565 0.16784 0.0
O40 O 0.527 0.42297 0.11624 0.0
O41 O 0.72061 0.41914 0.14288 0.0
O42 O 0.62515 0.35581 0.09361 0.0
O43 O 0.60746 0.46462 0.0929 0.0
Sc44 Sc 0.3151 0.88716 0.38093 0.0
Sc45 Sc 0.36288 0.95798 0.39724 0.0
Sc46 Sc 0.40716 0.88884 0.41939 0.0
O47 O 0.36223 0.91131 0.39882 0.0
C48 C 0.31609 0.85675 0.4337 0.0
C49 C 0.26146 0.94726 0.39903 0.0
C50 C 0.39314 0.94655 0.45197 0.0
C51 C 0.33542 0.93939 0.34286 0.0
C52 C 0.40109 0.84262 0.37595 0.0
C53 C 0.46439 0.94302 0.3942 0.0
O54 O 0.29398 0.86722 0.41565 0.0
O55 O 0.29474 0.96082 0.40862 0.0
O56 O 0.39447 0.91718 0.45028 0.0
O57 O 0.33217 0.9099 0.34635 0.0
O58 O 0.42454 0.85854 0.39046 0.0
O59 O 0.43117 0.95797 0.3858 0.0
O60 O 0.35959 0.84795 0.3726 0.0
O61 O 0.34204 0.95846 0.36008 0.0
O62 O 0.4603 0.91929 0.40786 0.0
O63 O 0.26518 0.92251 0.38656 0.0
O64 O 0.35858 0.85672 0.43395 0.0
O65 O 0.38488 0.96401 0.43397 0.0
Sc66 Sc 0.56396 0.60239 0.42206 0.0
Sc67 Sc 0.59786 0.53362 0.3953 0.0
Sc68 Sc 0.65016 0.60359 0.37983 0.0
O69 O 0.60383 0.57983 0.39863 0.0
C70 C 0.56293 0.64764 0.37816 0.0
C71 C 0.49866 0.55088 0.40052 0.0
C72 C 0.61931 0.55426 0.34067 0.0
C73 C 0.58196 0.54395 0.45212 0.0
C74 C 0.65588 0.63448 0.43207 0.0
C75 C 0.70124 0.54026 0.39327 0.0
O76 O 0.54124 0.63174 0.39358 0.0
O77 O 0.52792 0.53754 0.38757 0.0
O78 O 0.63003 0.58263 0.3451 0.0
O79 O 0.58481 0.57343 0.45137 0.0
O80 O 0.67615 0.6223 0.41408 0.0
O81 O 0.66752 0.52642 0.40222 0.0
O82 O 0.61362 0.63593 0.43273 0.0
O83 O 0.583 0.52718 0.43314 0.0
O84 O 0.69889 0.56698 0.38335 0.0
O85 O 0.50799 0.572 0.41575 0.0
O86 O 0.60441 0.64305 0.37371 0.0
O87 O 0.61039 0.53479 0.35727 0.0
Sc88 Sc 0.57242 0.89324 0.91878 0.0
Sc89 Sc 0.61546 0.96121 0.89321 0.0
Sc90 Sc 0.66383 0.88871 0.87916 0.0
O91 O 0.61712 0.9144 0.89685 0.0
C92 C 0.66336 0.85918 0.93268 0.0
C93 C 0.58881 0.95389 0.9489 0.0
C94 C 0.71871 0.94976 0.89441 0.0
C95 C 0.51311 0.94521 0.89275 0.0
C96 C 0.5764 0.84546 0.87547 0.0
C97 C 0.63916 0.93916 0.83922 0.0
O98 O 0.62165 0.86356 0.93507 0.0
O99 O 0.59916 0.97003 0.93048 0.0
O100 O 0.71535 0.92285 0.88499 0.0
O101 O 0.518 0.92126 0.90598 0.0
O102 O 0.61719 0.85098 0.8703 0.0
O103 O 0.62933 0.95905 0.85531 0.0
O104 O 0.55545 0.86019 0.89172 0.0
O105 O 0.54576 0.96101 0.88469 0.0
O106 O 0.64901 0.91081 0.84411 0.0
O107 O 0.58363 0.92463 0.94804 0.0
O108 O 0.6845 0.86738 0.91359 0.0
O109 O 0.68513 0.96557 0.90125 0.0
Sc110 Sc 0.32441 0.60918 0.88208 0.0
Sc111 Sc 0.38475 0.54008 0.89414 0.0
Sc112 Sc 0.42196 0.61095 0.91796 0.0
O113 O 0.377 0.58672 0.89791 0.0
C114 C 0.40303 0.6587 0.87505 0.0
C115 C 0.35299 0.55941 0.84111 0.0
C116 C 0.48517 0.5648 0.88977 0.0
C117 C 0.27958 0.54554 0.89913 0.0
C118 C 0.32874 0.63833 0.93611 0.0
C119 C 0.41664 0.54794 0.94819 0.0
O120 O 0.3653 0.64771 0.86871 0.0
O121 O 0.37292 0.54228 0.85634 0.0
O122 O 0.47837 0.59095 0.89982 0.0
O123 O 0.27767 0.57404 0.89315 0.0
O124 O 0.36996 0.63227 0.93874 0.0
O125 O 0.3983 0.53189 0.93169 0.0
O126 O 0.30788 0.63288 0.91633 0.0
O127 O 0.31563 0.53014 0.90039 0.0
O128 O 0.42666 0.57639 0.94553 0.0
O129 O 0.33367 0.58495 0.84705 0.0
O130 O 0.42525 0.64806 0.89265 0.0
O131 O 0.45478 0.54447 0.88697 0.0
Sc132 Sc 0.56051 0.10986 0.6089 0.0
Sc133 Sc 0.59895 0.04145 0.63637 0.0
Sc134 Sc 0.65793 0.11218 0.64472 0.0
O135 O 0.60583 0.08782 0.63016 0.0
C136 C 0.65265 0.1381 0.58975 0.0
C137 C 0.57076 0.04513 0.5814 0.0
C138 C 0.70441 0.04784 0.63156 0.0
C139 C 0.49749 0.06432 0.63804 0.0
C140 C 0.57712 0.16058 0.64994 0.0
C141 C 0.62956 0.06556 0.68813 0.0
O142 O 0.61167 0.1312 0.5875 0.0
O143 O 0.58778 0.03022 0.59896 0.0
O144 O 0.70578 0.07705 0.63502 0.0
O145 O 0.50404 0.08991 0.6271 0.0
O146 O 0.61548 0.15084 0.6565 0.0
O147 O 0.60854 0.04723 0.67423 0.0
O148 O 0.55509 0.1483 0.6329 0.0
O149 O 0.52843 0.04485 0.64218 0.0
O150 O 0.64975 0.09009 0.68064 0.0
O151 O 0.55932 0.07348 0.58278 0.0
O152 O 0.67381 0.13403 0.60963 0.0
O153 O 0.66865 0.03202 0.6318 0.0
Sc154 Sc 0.40039 0.39542 0.60714 0.0
Sc155 Sc 0.3542 0.46178 0.63232 0.0
Sc156 Sc 0.31051 0.38897 0.6468 0.0
O157 O 0.35544 0.41523 0.62911 0.0
C158 C 0.31143 0.35942 0.59366 0.0
C159 C 0.38513 0.4546 0.5774 0.0
C160 C 0.2536 0.4482 0.62935 0.0
C161 C 0.45567 0.4492 0.63433 0.0
C162 C 0.4002 0.3478 0.65009 0.0
C163 C 0.32748 0.44025 0.68582 0.0
O164 O 0.35357 0.36251 0.5921 0.0
O165 O 0.37806 0.47068 0.59626 0.0
O166 O 0.25819 0.42319 0.64157 0.0
O167 O 0.45184 0.427 0.61916 0.0
O168 O 0.35861 0.35153 0.65445 0.0
O169 O 0.33159 0.46039 0.66915 0.0
O170 O 0.42118 0.36424 0.63481 0.0
O171 O 0.42225 0.46227 0.64432 0.0
O172 O 0.32712 0.41093 0.68157 0.0
O173 O 0.3835 0.42517 0.57762 0.0
O174 O 0.28964 0.36846 0.61228 0.0
O175 O 0.28648 0.46289 0.62029 0.0
Sc176 Sc 0.81 0.61285 0.64588 0.0
Sc177 Sc 0.8539 0.54072 0.63027 0.0
Sc178 Sc 0.90085 0.60827 0.60693 0.0
O179 O 0.85551 0.58726 0.62807 0.0
C180 C 0.81115 0.64172 0.59286 0.0
C181 C 0.75295 0.55347 0.62971 0.0
C182 C 0.88191 0.55059 0.57503 0.0
C183 C 0.83059 0.56169 0.68459 0.0
C184 C 0.89824 0.65541 0.64952 0.0
C185 C 0.95623 0.55281 0.63161 0.0
O186 O 0.78853 0.63163 0.61087 0.0
O187 O 0.78534 0.53947 0.61965 0.0
O188 O 0.88501 0.57996 0.5764 0.0
O189 O 0.82844 0.59111 0.68057 0.0
O190 O 0.92105 0.63802 0.63574 0.0
O191 O 0.9227 0.53902 0.64084 0.0
O192 O 0.85631 0.65162 0.65256 0.0
O193 O 0.83474 0.54179 0.66771 0.0
O194 O 0.95264 0.57637 0.61775 0.0
O195 O 0.7581 0.57825 0.64201 0.0
O196 O 0.85365 0.64188 0.59305 0.0
O197 O 0.87377 0.53361 0.59332 0.0
Sc198 Sc 0.15364 0.89361 0.64643 0.0
Sc199 Sc 0.10154 0.96365 0.63138 0.0
Sc200 Sc 0.06648 0.89505 0.60478 0.0
O201 O 0.10699 0.91742 0.62797 0.0
C202 C 0.15854 0.86322 0.59393 0.0
C203 C 0.20464 0.95685 0.63252 0.0
C204 C 0.08226 0.95378 0.57491 0.0
C205 C 0.12439 0.94298 0.68579 0.0
C206 C 0.06695 0.84891 0.64814 0.0
C207 C 0.00212 0.9466 0.62737 0.0
O208 O 0.17901 0.87508 0.61199 0.0
O209 O 0.17093 0.97053 0.62342 0.0
O210 O 0.08617 0.92437 0.57545 0.0
O211 O 0.13392 0.91439 0.68136 0.0
O212 O 0.0447 0.86503 0.63311 0.0
O213 O 0.03194 0.95981 0.64004 0.0
O214 O 0.10836 0.8539 0.65252 0.0
O215 O 0.116 0.96249 0.66916 0.0
O216 O 0.01074 0.92538 0.61206 0.0
O217 O 0.20219 0.93036 0.6428 0.0
O218 O 0.11623 0.86202 0.59323 0.0
O219 O 0.0844 0.97036 0.59393 0.0
Sc220 Sc 0.82812 0.39526 0.88056 0.0
Sc221 Sc 0.88127 0.46477 0.89624 0.0
Sc222 Sc 0.91537 0.39537 0.92214 0.0
O223 O 0.87512 0.4185 0.89923 0.0
C224 C 0.82299 0.36392 0.93269 0.0
C225 C 0.77795 0.45858 0.89475 0.0
C226 C 0.89897 0.45368 0.95279 0.0
C227 C 0.85819 0.44502 0.84157 0.0
C228 C 0.91416 0.35027 0.87816 0.0
C229 C 0.98059 0.44687 0.90033 0.0
O230 O 0.8026 0.3763 0.91483 0.0
O231 O 0.81181 0.47216 0.90378 0.0
O232 O 0.89628 0.4242 0.95187 0.0
O233 O 0.84786 0.41652 0.84584 0.0
O234 O 0.93668 0.36589 0.89338 0.0
O235 O 0.95102 0.46076 0.88794 0.0
O236 O 0.87278 0.35549 0.87398 0.0
O237 O 0.8675 0.46418 0.85832 0.0
O238 O 0.97158 0.42534 0.91529 0.0
O239 O 0.78009 0.43206 0.88456 0.0
O240 O 0.86527 0.36235 0.93326 0.0
O241 O 0.8972 0.47069 0.93396 0.0
Sc242 Sc 0.07168 0.10857 0.91936 0.0
Sc243 Sc 0.11723 0.04049 0.89583 0.0
Sc244 Sc 0.16417 0.11237 0.88114 0.0
O245 O 0.11729 0.08718 0.8985 0.0
C246 C 0.07781 0.15631 0.87665 0.0
C247 C 0.01534 0.05508 0.89272 0.0
C248 C 0.14458 0.06122 0.84207 0.0
C249 C 0.08611 0.04935 0.9506 0.0
C250 C 0.16228 0.14176 0.93432 0.0
C251 C 0.21858 0.05205 0.8982 0.0
O252 O 0.05462 0.14023 0.89119 0.0
O253 O 0.0488 0.04027 0.88442 0.0
O254 O 0.1476 0.09054 0.84619 0.0
O255 O 0.08353 0.07875 0.94956 0.0
O256 O 0.1846 0.13223 0.91601 0.0
O257 O 0.18534 0.03776 0.90719 0.0
O258 O 0.11989 0.13992 0.93517 0.0
O259 O 0.09543 0.03276 0.9323 0.0
O260 O 0.21472 0.07736 0.88643 0.0
O261 O 0.01903 0.07861 0.9066 0.0
O262 O 0.11927 0.15126 0.87312 0.0
O263 O 0.13822 0.0414 0.85877 0.0
Sc264 Sc 0.0564 0.38656 0.41682 0.0
Sc265 Sc 0.0945 0.45768 0.39386 0.0
Sc266 Sc 0.15508 0.38878 0.38184 0.0
O267 O 0.10201 0.411 0.39733 0.0
C268 C 0.14925 0.35934 0.43575 0.0
C269 C 0.06197 0.44922 0.44758 0.0
C270 C 0.19971 0.45221 0.39914 0.0
C271 C -0.00611 0.43324 0.3889 0.0
C272 C 0.077 0.33914 0.37394 0.0
C273 C 0.12666 0.43879 0.34092 0.0
O274 O 0.10795 0.36537 0.43809 0.0
O275 O 0.08165 0.46528 0.43153 0.0
O276 O 0.20169 0.42362 0.39351 0.0
O277 O 0.00047 0.40657 0.39817 0.0
O278 O 0.11461 0.35052 0.36785 0.0
O279 O 0.1059 0.45562 0.35602 0.0
O280 O 0.05413 0.34938 0.39144 0.0
O281 O 0.02437 0.45367 0.38693 0.0
O282 O 0.14667 0.41352 0.34695 0.0
O283 O 0.0507 0.42108 0.44437 0.0
O284 O 0.17056 0.36473 0.41608 0.0
O285 O 0.16367 0.46764 0.3999 0.0
Sc286 Sc 0.81623 0.10874 0.37815 0.0
Sc287 Sc 0.86412 0.03739 0.39548 0.0
Sc288 Sc 0.9063 0.10686 0.41904 0.0
O289 O 0.86243 0.08434 0.39736 0.0
C290 C 0.90241 0.15314 0.37456 0.0
C291 C 0.84357 0.05621 0.3403 0.0
C292 C 0.96681 0.0542 0.39502 0.0
C293 C 0.76086 0.04853 0.39466 0.0
C294 C 0.81373 0.13982 0.4313 0.0
C295 C 0.88866 0.04739 0.45096 0.0
O296 O 0.86241 0.14642 0.36862 0.0
O297 O 0.85266 0.03765 0.35746 0.0
O298 O 0.96175 0.07942 0.40672 0.0
O299 O 0.76457 0.07486 0.38436 0.0
O300 O 0.85531 0.13572 0.43458 0.0
O301 O 0.87729 0.0305 0.43319 0.0
O302 O 0.79399 0.13142 0.4118 0.0
O303 O 0.79413 0.03321 0.40243 0.0
O304 O 0.89642 0.07626 0.44894 0.0
O305 O 0.83285 0.08476 0.34395 0.0
O306 O 0.92265 0.13966 0.39169 0.0
O307 O 0.93433 0.03722 0.38831 0.0
Sc308 Sc 0.07753 0.60423 0.10859 0.0
Sc309 Sc 0.12446 0.53769 0.13356 0.0
Sc310 Sc 0.16875 0.61073 0.14735 0.0
O311 O 0.12317 0.58431 0.13016 0.0
C312 C 0.16666 0.63958 0.09401 0.0
C313 C 0.09275 0.54458 0.07874 0.0
C314 C 0.22541 0.55126 0.13031 0.0
C315 C 0.02249 0.55052 0.1361 0.0
C316 C 0.07999 0.6527 0.15095 0.0
C317 C 0.15174 0.55993 0.18685 0.0
O318 O 0.12448 0.63644 0.09271 0.0
O319 O 0.1012 0.52854 0.09746 0.0
O320 O 0.22089 0.57655 0.14211 0.0
O321 O 0.026 0.57325 0.12139 0.0
O322 O 0.12156 0.64858 0.155 0.0
O323 O 0.14662 0.53959 0.17043 0.0
O324 O 0.05816 0.63607 0.13617 0.0
O325 O 0.05614 0.53688 0.14539 0.0
O326 O 0.15286 0.58919 0.18237 0.0
O327 O 0.09244 0.57404 0.07905 0.0
O328 O 0.18884 0.6308 0.11256 0.0
O329 O 0.19244 0.53621 0.12172 0.0
Sc330 Sc 0.91189 0.88976 0.1063 0.0
Sc331 Sc 0.86691 0.9578 0.12979 0.0
Sc332 Sc 0.8194 0.88616 0.14458 0.0
O333 O 0.86646 0.91116 0.12722 0.0
C334 C 0.8217 0.85606 0.09165 0.0
C335 C 0.89818 0.94862 0.07507 0.0
C336 C 0.76554 0.94645 0.12668 0.0
C337 C 0.96842 0.94335 0.13279 0.0
C338 C 0.90648 0.84276 0.14953 0.0
C339 C 0.83764 0.93771 0.18343 0.0
O340 O 0.86409 0.8578 0.09089 0.0
O341 O 0.88992 0.96526 0.09349 0.0
O342 O 0.76889 0.92123 0.13868 0.0
O343 O 0.96445 0.92021 0.11853 0.0
O344 O 0.86488 0.84754 0.15305 0.0
O345 O 0.84473 0.95728 0.16664 0.0
O346 O 0.92938 0.85869 0.13475 0.0
O347 O 0.93506 0.95767 0.14172 0.0
O348 O 0.83498 0.90834 0.1795 0.0
O349 O 0.89903 0.91916 0.07597 0.0
O350 O 0.79934 0.86588 0.10983 0.0
O351 O 0.79914 0.96053 0.11788 0.0
H352 H 0.42689 0.07821 0.03279 0.0
H353 H 0.56614 0.92856 0.99264 0.0
H354 H 0.414 0.98742 0.06586 0.0
H355 H 0.56921 0.01585 0.95376 0.0
H356 H 0.51563 0.95179 0.02203 0.0
H357 H 0.47943 0.05633 1.00372 0.0
C358 C 0.43426 0.05354 0.03364 0.0
C359 C 0.4165 0.03476 0.0521 0.0
C360 C 0.5277 0.96596 1.00719 0.0
C361 C 0.47751 0.00986 0.0193 0.0
C362 C 0.55705 0.95284 0.99057 0.0
C363 C 0.57128 0.97009 0.97041 0.0
C364 C 0.51255 0.99653 1.00365 0.0
C365 C 0.55878 0.00154 0.96886 0.0
C366 C 0.46472 0.04117 0.01721 0.0
C367 C 0.42713 0.00292 0.05214 0.0
N368 N 0.52951 0.01364 0.98507 0.0
N369 N 0.45746 0.99158 0.03622 0.0
H370 H 0.5954 0.50994 0.06488 0.0
H371 H 0.42702 0.48513 0.95473 0.0
H372 H 0.56536 0.41985 0.03404 0.0
H373 H 0.45243 0.5739 0.98889 0.0
H374 H 0.47735 0.46048 0.9836 0.0
H375 H 0.54777 0.53412 0.03462 0.0
C376 C 0.57961 0.49526 0.05143 0.0
C377 C 0.58359 0.46273 0.05237 0.0
C378 C 0.47156 0.48531 0.98489 0.0
C379 C 0.52816 0.49024 0.01808 0.0
C380 C 0.44228 0.49935 0.96865 0.0
C381 C 0.43593 0.53172 0.96919 0.0
C382 C 0.49448 0.50379 1.00175 0.0
C383 C 0.45675 0.54893 0.9876 0.0
C384 C 0.55193 0.50908 0.03434 0.0
C385 C 0.56275 0.44499 0.03426 0.0
N386 N 0.48551 0.53479 1.00297 0.0
N387 N 0.53529 0.45896 0.01806 0.0
H388 H 0.42117 0.91745 0.49346 0.0
H389 H 0.55361 0.06851 0.53665 0.0
H390 H 0.40954 0.00821 0.46021 0.0
H391 H 0.55038 0.98324 0.57804 0.0
H392 H 0.50727 0.04405 0.50591 0.0
H393 H 0.47015 0.93986 0.52412 0.0
C394 C 0.42812 0.94219 0.49285 0.0
C395 C 0.41178 0.96088 0.47396 0.0
C396 C 0.51702 0.03055 0.52159 0.0
C397 C 0.46855 0.98634 0.50859 0.0
C398 C 0.54394 0.04437 0.53898 0.0
C399 C 0.55528 0.02798 0.56003 0.0
C400 C 0.50129 0.00016 0.52532 0.0
C401 C 0.54228 0.99671 0.56207 0.0
C402 C 0.45648 0.95486 0.51022 0.0
C403 C 0.42168 0.9928 0.47424 0.0
N404 N 0.5153 0.98388 0.54505 0.0
N405 N 0.44993 0.00443 0.49109 0.0
H406 H 0.5692 0.482 0.46118 0.0
H407 H 0.40687 0.5162 0.5724 0.0
H408 H 0.55328 0.57299 0.49345 0.0
H409 H 0.41589 0.42747 0.53581 0.0
H410 H 0.46124 0.5375 0.54413 0.0
H411 H 0.51862 0.46063 0.49135 0.0
C412 C 0.55593 0.49739 0.47495 0.0
C413 C 0.56467 0.52949 0.47441 0.0
C414 C 0.45101 0.51345 0.54218 0.0
C415 C 0.50594 0.50528 0.5086 0.0
C416 C 0.41949 0.50134 0.55812 0.0
C417 C 0.40722 0.46983 0.55672 0.0
C418 C 0.4703 0.49391 0.52474 0.0
C419 C 0.42464 0.4518 0.53776 0.0
C420 C 0.52657 0.48522 0.49199 0.0
C421 C 0.547 0.54817 0.49293 0.0
N422 N 0.45574 0.46402 0.52269 0.0
N423 N 0.5178 0.53586 0.50906 0.0
H424 H 0.88581 0.4882 0.56541 0.0
H425 H 0.05427 0.512 0.4551 0.0
H426 H 0.91767 0.5781 0.53472 0.0
H427 H 0.02463 0.42288 0.48772 0.0
H428 H 0.00525 0.53696 0.48447 0.0
H429 H 0.93274 0.46364 0.535 0.0
C430 C 0.9019 0.50276 0.55198 0.0
C431 C 0.89854 0.53532 0.55295 0.0
C432 C 0.00981 0.51198 0.48531 0.0
C433 C 0.95313 0.50739 0.51849 0.0
C434 C 0.03833 0.49774 0.46878 0.0
C435 C 0.0431 0.46524 0.46876 0.0
C436 C 0.98609 0.49355 0.50189 0.0
C437 C 0.02149 0.44798 0.48687 0.0
C438 C 0.92914 0.48873 0.53479 0.0
C439 C 0.91976 0.55294 0.53488 0.0
N440 N -0.00649 0.46232 0.50255 0.0
N441 N 0.94676 0.53875 0.51858 0.0
H442 H 0.05093 0.92451 0.53424 0.0
H443 H 0.91284 0.07443 0.49381 0.0
H444 H 0.06466 0.01536 0.56707 0.0
H445 H 0.90315 0.98518 0.4581 0.0
H446 H 0.96321 0.05147 0.52337 0.0
H447 H -0.00324 0.94612 0.50601 0.0
C448 C 0.04346 0.94916 0.53517 0.0
C449 C 0.06181 0.96803 0.55337 0.0
C450 C 0.94966 0.03683 0.50922 0.0
C451 C -0.00108 0.99259 0.52159 0.0
C452 C 0.92038 0.04982 0.49252 0.0
C453 C 0.90466 0.0319 0.47307 0.0
C454 C 0.9632 0.00576 0.50641 0.0
C455 C 0.91499 2e-05 0.47256 0.0
C456 C 0.01196 0.96136 0.51927 0.0
C457 C 0.05092 -0.00019 0.55357 0.0
N458 N 0.94437 0.98808 0.48873 0.0
N459 N 0.01968 0.011 0.53814 0.0
H460 H 0.91052 0.51558 0.96233 0.0
H461 H 0.07224 0.48272 0.074 0.0
H462 H 0.92938 0.42427 0.99361 0.0
H463 H 0.06332 0.57092 0.0366 0.0
H464 H 0.01909 0.46071 0.04536 0.0
H465 H 0.96079 0.53712 0.99255 0.0
C466 C 0.92441 0.50013 0.97588 0.0
C467 C 0.9165 0.46794 0.97508 0.0
C468 C 0.02913 0.4848 0.04332 0.0
C469 C 0.97489 0.49236 1.00932 0.0
C470 C 0.05995 0.49731 0.05946 0.0
C471 C 0.07178 0.52889 0.05795 0.0
C472 C 0.0101 0.50402 0.02558 0.0
C473 C 0.05481 0.54656 0.03867 0.0
C474 C 0.95359 0.51241 0.99294 0.0
C475 C 0.93496 0.44918 0.99332 0.0
N476 N 0.02436 0.53397 0.02342 0.0
N477 N 0.96394 0.46161 1.0095 0.0
H478 H 0.05572 0.07622 0.99241 0.0
H479 H 0.93025 0.92124 0.03381 0.0
H480 H 0.0724 0.98699 0.95737 0.0
H481 H 0.91235 0.01086 0.06808 0.0
H482 H 0.98069 0.9453 1.00475 0.0
H483 H 0.00607 0.0519 0.02171 0.0
C484 C 0.04973 0.05139 0.99115 0.0
C485 C 0.06757 0.03375 0.97209 0.0
C486 C 0.96541 0.95973 0.01852 0.0
C487 C 0.00997 0.006 1.00521 0.0
C488 C 0.93614 0.94609 0.03495 0.0
C489 C 0.91765 0.96395 0.0537 0.0
C490 C 0.97615 0.99139 0.02088 0.0
C491 C 0.92626 0.99608 0.05412 0.0
C492 C 0.02092 0.03761 1.00773 0.0
C493 C 0.05896 0.00162 0.97156 0.0
N494 N 0.9554 0.0087 0.03814 0.0
N495 N 0.03021 0.98885 0.98768 0.0
H496 H 0.30859 0.07685 0.22745 0.0
H497 H 0.35917 0.91563 0.29781 0.0
H498 H 0.37858 0.99876 0.19615 0.0
H499 H 0.30327 0.99684 0.33228 0.0
H500 H 0.36106 0.94458 0.25933 0.0
H501 H 0.30321 0.04757 0.26576 0.0
C502 C 0.32317 0.05383 0.22863 0.0
C503 C 0.3438 0.04037 0.20836 0.0
C504 C 0.34813 0.95597 0.27533 0.0
C505 C 0.33716 0.00644 0.25196 0.0
C506 C 0.34669 0.93928 0.29723 0.0
C507 C 0.33138 0.95379 0.31838 0.0
C508 C 0.33386 0.98731 0.27455 0.0
C509 C 0.3159 0.98473 0.31652 0.0
C510 C 0.31981 0.03697 0.25043 0.0
C511 C 0.36184 0.01019 0.21106 0.0
N512 N 0.31769 0.00039 0.29516 0.0
N513 N 0.35792 0.99436 0.23223 0.0
H514 H 0.6984 0.48444 0.19949 0.0
H515 H 0.56419 0.50959 0.32312 0.0
H516 H 0.59778 0.42095 0.22542 0.0
H517 H 0.67534 0.56735 0.302 0.0
H518 H 0.57354 0.47898 0.28636 0.0
H519 H 0.6906 0.51511 0.23648 0.0
C520 C 0.67531 0.47656 0.21331 0.0
C521 C 0.649 0.44988 0.20947 0.0
C522 C 0.59573 0.49847 0.28956 0.0
C523 C 0.63877 0.48568 0.25169 0.0
C524 C 0.59016 0.51623 0.31047 0.0
C525 C 0.61901 0.54122 0.31572 0.0
C526 C 0.63055 0.50549 0.27351 0.0
C527 C 0.65201 0.5486 0.29862 0.0
C528 C 0.6706 0.49429 0.23433 0.0
C529 C 0.61924 0.441 0.2278 0.0
N530 N 0.65709 0.53066 0.27837 0.0
N531 N 0.61461 0.45904 0.24801 0.0
H532 H 0.70899 0.94705 0.80752 0.0
H533 H 0.56152 0.05438 0.71911 0.0
H534 H 0.56772 0.96226 0.81557 0.0
H535 H 0.70453 0.0482 0.71311 0.0
H536 H 0.5641 0.02099 0.75485 0.0
H537 H 0.70874 0.98153 0.77181 0.0
C538 C 0.67768 0.95668 0.8012 0.0
C539 C 0.63807 0.95114 0.8141 0.0
C540 C 0.59515 0.02732 0.74611 0.0
C541 C 0.63778 0.9917 0.77408 0.0
C542 C 0.59369 0.04688 0.72592 0.0
C543 C 0.63295 0.05481 0.71352 0.0
C544 C 0.63616 0.01485 0.75382 0.0
C545 C 0.67363 0.04343 0.72259 0.0
C546 C 0.67766 0.97686 0.78114 0.0
C547 C 0.59876 0.96534 0.8058 0.0
N548 N 0.67418 0.02376 0.74204 0.0
N549 N 0.59964 0.98493 0.78647 0.0
H550 H 0.28873 0.56935 0.80562 0.0
H551 H 0.3728 0.4227 0.72707 0.0
H552 H 0.40909 0.51748 0.82034 0.0
H553 H 0.27635 0.4887 0.70034 0.0
H554 H 0.37852 0.45324 0.76462 0.0
H555 H 0.27816 0.53803 0.76867 0.0
C556 C 0.31334 0.55192 0.80089 0.0
C557 C 0.34976 0.5461 0.81624 0.0
C558 C 0.35564 0.46081 0.75064 0.0
C559 C 0.3371 0.50947 0.77454 0.0
C560 C 0.35192 0.44307 0.7294 0.0
C561 C 0.32396 0.45311 0.71065 0.0
C562 C 0.33099 0.48862 0.75317 0.0
C563 C 0.29831 0.48015 0.71441 0.0
C564 C 0.30703 0.53375 0.77998 0.0
C565 C 0.38024 0.52275 0.80927 0.0
N566 N 0.30253 0.497 0.73513 0.0
N567 N 0.37301 0.50522 0.78921 0.0
H568 H 0.80822 0.42707 0.80157 0.0
H569 H 0.87087 0.58253 0.72674 0.0
H570 H 0.90457 0.49524 0.8253 0.0
H571 H 0.78793 0.50907 0.69836 0.0
H572 H 0.87868 0.55272 0.7646 0.0
H573 H 0.79822 0.45715 0.764 0.0
C574 C 0.82788 0.44792 0.79872 0.0
C575 C 0.85717 0.45857 0.81672 0.0
C576 C 0.85839 0.54328 0.75014 0.0
C577 C 0.84504 0.49364 0.77414 0.0
C578 C 0.85347 0.56056 0.72869 0.0
C579 C 0.82873 0.54832 0.70939 0.0
C580 C 0.83824 0.51367 0.7523 0.0
C581 C 0.80751 0.51935 0.71277 0.0
C582 C 0.82178 0.46535 0.77741 0.0
C583 C 0.88129 0.48615 0.81209 0.0
N584 N 0.81289 0.50303 0.73364 0.0
N585 N 0.87447 0.50273 0.79148 0.0
H586 H 0.10511 0.08096 0.79946 0.0
H587 H 0.17599 0.92657 0.72563 0.0
H588 H 0.19008 0.00952 0.82906 0.0
H589 H 0.0744 0.99109 0.7023 0.0
H590 H 0.18459 0.95718 0.76309 0.0
H591 H 0.09933 0.05052 0.76182 0.0
C592 C 0.12345 0.05934 0.7978 0.0
C593 C 0.14819 0.04783 0.81736 0.0
C594 C 0.16016 0.96443 0.7498 0.0
C595 C 0.14093 0.01242 0.77473 0.0
C596 C 0.15486 0.94667 0.72858 0.0
C597 C 0.1245 0.9562 0.71073 0.0
C598 C 0.13507 0.99193 0.75308 0.0
C599 C 0.09852 0.9829 0.71543 0.0
C600 C 0.11966 0.04168 0.77648 0.0
C601 C 0.17058 0.01925 0.81439 0.0
N602 N 0.10463 -0.00016 0.73591 0.0
N603 N 0.16629 0.00252 0.79363 0.0
H604 H 0.19321 0.43104 0.30638 0.0
H605 H 0.10411 0.57598 0.2276 0.0
H606 H 0.06882 0.47887 0.31944 0.0
H607 H 0.20588 0.51339 0.20178 0.0
H608 H 0.09862 0.54487 0.26488 0.0
H609 H 0.20384 0.46314 0.26983 0.0
C610 C 0.16774 0.44771 0.30134 0.0
C611 C 0.13014 0.45221 0.31611 0.0
C612 C 0.12265 0.53821 0.25119 0.0
C613 C 0.14282 0.48976 0.27493 0.0
C614 C 0.12624 0.5563 0.23013 0.0
C615 C 0.15569 0.54737 0.21172 0.0
C616 C 0.14886 0.51112 0.25386 0.0
C617 C 0.18287 0.52111 0.21565 0.0
C618 C 0.17408 0.46634 0.28067 0.0
C619 C 0.09857 0.47465 0.30879 0.0
N620 N 0.17871 0.50387 0.23618 0.0
N621 N 0.10583 0.49267 0.28899 0.0
H622 H 0.79716 0.07306 0.29863 0.0
H623 H 0.87067 0.91712 0.22748 0.0
H624 H 0.89142 0.00576 0.32606 0.0
H625 H 0.79376 0.99074 0.19475 0.0
H626 H 0.87231 0.94717 0.26544 0.0
H627 H 0.79194 0.04248 0.26098 0.0
C628 C 0.81725 0.05226 0.29663 0.0
C629 C 0.84458 0.04202 0.31566 0.0
C630 C 0.8547 0.9566 0.24998 0.0
C631 C 0.83798 0.00646 0.27297 0.0
C632 C 0.85332 0.9392 0.22845 0.0
C633 C 0.83214 0.95143 0.20794 0.0
C634 C 0.83453 0.9863 0.251 0.0
C635 C 0.81073 0.9805 0.21012 0.0
C636 C 0.81393 0.03458 0.27526 0.0
C637 C 0.86948 0.01453 0.31206 0.0
N638 N 0.81262 0.99694 0.23111 0.0
N639 N 0.86535 0.99774 0.29137 0.0
H640 H 0.35555 0.16043 0.05101 0.0
H641 H 0.12483 0.1578 0.97796 0.0
H642 H 0.22853 0.14087 0.08473 0.0
H643 H 0.25325 0.14548 0.94377 0.0
H644 H 0.16197 0.1631 0.01698 0.0
H645 H 0.31784 0.16652 1.01222 0.0
C646 C 0.31957 0.15797 0.05049 0.0
C647 C 0.2954 0.14991 0.07149 0.0
C648 C 0.18208 0.15962 1.00092 0.0
C649 C 0.25184 0.15688 0.0265 0.0
C650 C 0.16094 0.15678 0.97845 0.0
C651 C 0.18575 0.15101 0.95722 0.0
C652 C 0.22866 0.15706 1.00247 0.0
C653 C 0.23253 0.1499 0.95944 0.0
C654 C 0.29812 0.16128 0.02814 0.0
C655 C 0.24876 0.14709 0.06924 0.0
N656 N 0.25236 0.15274 0.9816 0.0
N657 N 0.22862 0.1504 0.04719 0.0
H658 H 0.85807 0.34116 0.97498 0.0
H659 H 0.62897 0.34383 0.04943 0.0
H660 H 0.73198 0.36634 0.9426 0.0
H661 H 0.75828 0.35278 0.08322 0.0
H662 H 0.66523 0.34102 1.00996 0.0
H663 H 0.82067 0.33433 0.01376 0.0
C664 C 0.82232 0.34477 0.9758 0.0
C665 C 0.79834 0.3545 0.95518 0.0
C666 C 0.68571 0.34323 0.02602 0.0
C667 C 0.75512 0.34664 1.00018 0.0
C668 C 0.66509 0.34458 0.04873 0.0
C669 C 0.69045 0.34856 0.07 0.0
C670 C 0.7323 0.34544 0.02429 0.0
C671 C 0.73718 0.34963 0.06752 0.0
C672 C 0.80106 0.34103 0.99815 0.0
C673 C 0.75201 0.3588 0.9578 0.0
N674 N 0.7565 0.34816 0.04514 0.0
N675 N 0.73201 0.35494 0.97985 0.0
H676 H 0.35374 0.84304 0.47775 0.0
H677 H 0.12344 0.84184 0.55121 0.0
H678 H 0.22519 0.85409 0.44349 0.0
H679 H 0.24975 0.8647 0.58438 0.0
H680 H 0.16122 0.83526 0.5125 0.0
H681 H 0.3168 0.83988 0.51702 0.0
C682 C 0.31763 0.84418 0.47829 0.0
C683 C 0.29271 0.84888 0.45694 0.0
C684 C 0.18078 0.84139 0.52827 0.0
C685 C 0.25007 0.84535 0.50246 0.0
C686 C 0.1593 0.84499 0.55058 0.0
C687 C 0.18325 0.85399 0.57141 0.0
C688 C 0.22691 0.84641 0.52649 0.0
C689 C 0.22973 0.85773 0.56902 0.0
C690 C 0.29662 0.84262 0.5009 0.0
C691 C 0.24597 0.85038 0.45925 0.0
N692 N 0.24994 0.85402 0.54701 0.0
N693 N 0.22627 0.84871 0.48152 0.0
H694 H 0.62101 0.65733 0.47436 0.0
H695 H 0.85004 0.6536 0.54881 0.0
H696 H 0.7469 0.63172 0.44193 0.0
H697 H 0.72056 0.64537 0.58257 0.0
H698 H 0.81388 0.65655 0.50933 0.0
H699 H 0.65847 0.66397 0.51314 0.0
C700 C 0.65673 0.65358 0.47517 0.0
C701 C 0.68063 0.64378 0.45454 0.0
C702 C 0.79335 0.65447 0.52538 0.0
C703 C 0.72393 0.65143 0.49952 0.0
C704 C 0.81391 0.65303 0.5481 0.0
C705 C 0.78846 0.64921 0.56938 0.0
C706 C 0.74673 0.65251 0.52364 0.0
C707 C 0.74173 0.64838 0.56687 0.0
C708 C 0.67803 0.65722 0.49751 0.0
C709 C 0.72693 0.63932 0.45714 0.0
N710 N 0.72247 0.64993 0.54449 0.0
N711 N 0.74697 0.64307 0.47918 0.0
H712 H 0.62796 0.83818 0.97547 0.0
H713 H 0.8592 0.84005 0.04801 0.0
H714 H 0.75476 0.85715 0.94133 0.0
H715 H 0.73081 0.85208 0.08229 0.0
H716 H 0.82196 0.8347 1.00899 0.0
H717 H 0.66604 0.83148 0.01406 0.0
C718 C 0.66397 0.84041 0.97587 0.0
C719 C 0.68796 0.84855 0.95483 0.0
C720 C 0.80189 0.83811 0.02507 0.0
C721 C 0.73199 0.84086 0.99959 0.0
C722 C 0.82308 0.84097 0.04754 0.0
C723 C 0.79829 0.8467 0.06878 0.0
C724 C 0.7553 0.84059 0.02357 0.0
C725 C 0.75151 0.8477 0.0666 0.0
C726 C 0.68564 0.83673 0.9981 0.0
C727 C 0.73468 0.8509 0.95687 0.0
N728 N 0.73165 0.84485 0.04446 0.0
N729 N 0.75505 0.84731 0.97884 0.0
H730 H 0.36378 0.65645 0.97972 0.0
H731 H 0.13011 0.65559 0.05012 0.0
H732 H 0.23725 0.64183 0.94408 0.0
H733 H 0.25764 0.64452 0.08549 0.0
H734 H 0.16846 0.66137 1.01143 0.0
H735 H 0.32478 0.66296 0.01806 0.0
C736 C 0.32767 0.65508 0.97977 0.0
C737 C 0.30397 0.64829 0.95838 0.0
C738 C 0.1881 0.65808 0.02768 0.0
C739 C 0.25886 0.65571 1.00283 0.0
C740 C 0.16626 0.65495 0.04995 0.0
C741 C 0.19049 0.64935 0.07139 0.0
C742 C 0.23478 0.65589 0.02659 0.0
C743 C 0.23734 0.64878 0.06963 0.0
C744 C 0.30544 0.65868 1.00184 0.0
C745 C 0.25711 0.64704 0.95993 0.0
N746 N 0.25783 0.65178 0.04767 0.0
N747 N 0.23619 0.65045 0.98176 0.0
H748 H 0.72195 0.13991 0.43819 0.0
H749 H 0.74351 0.14718 0.58225 0.0
H750 H 0.84553 0.16117 0.47483 0.0
H751 H 0.61699 0.14941 0.54487 0.0
H752 H 0.78148 0.15426 0.54322 0.0
H753 H 0.68242 0.14561 0.47685 0.0
C754 C 0.74072 0.14646 0.45415 0.0
C755 C 0.78736 0.14987 0.45302 0.0
C756 C 0.74535 0.1536 0.54364 0.0
C757 C 0.74227 0.15562 0.4977 0.0
C758 C 0.72361 0.14968 0.56601 0.0
C759 C 0.67681 0.14752 0.5671 0.0
C760 C 0.72028 0.15504 0.52208 0.0
C761 C 0.65307 0.15073 0.54517 0.0
C762 C 0.71813 0.14948 0.47633 0.0
C763 C 0.80967 0.15805 0.47461 0.0
N764 N 0.67495 0.15391 0.52371 0.0
N765 N 0.78714 0.16018 0.49596 0.0
H766 H 0.34729 0.34175 0.54999 0.0
H767 H 0.11357 0.34299 0.47967 0.0
H768 H 0.22026 0.3556 0.58532 0.0
H769 H 0.24058 0.35467 0.44385 0.0
H770 H 0.15232 0.33682 0.51813 0.0
H771 H 0.30867 0.33569 0.51143 0.0
C772 C 0.31118 0.34295 0.54985 0.0
C773 C 0.2872 0.34941 0.57123 0.0
C774 C 0.1718 0.34038 0.50185 0.0
C775 C 0.24258 0.34256 0.52655 0.0
C776 C 0.14971 0.34377 0.47971 0.0
C777 C 0.17365 0.34963 0.45821 0.0
C778 C 0.21848 0.3426 0.5028 0.0
C779 C 0.22053 0.35019 0.45977 0.0
C780 C 0.28918 0.33966 0.52764 0.0
C781 C 0.24037 0.35065 0.56951 0.0
N782 N 0.24132 0.34699 0.48165 0.0
N783 N 0.21972 0.34749 0.54761 0.0
H784 H 0.49382 -0.00025 0.15533 0.0
H785 H 0.74451 0.00264 0.10604 0.0
H786 H 0.54826 0.07464 0.11215 0.0
H787 H 0.68652 0.9256 0.14541 0.0
H788 H 0.67358 0.03022 0.10903 0.0
H789 H 0.56622 0.97407 0.15431 0.0
C790 C 0.5211 0.01102 0.14589 0.0
C791 C 0.51476 0.03924 0.13357 0.0
C792 C 0.6764 0.00723 0.11693 0.0
C793 C 0.59755 0.0097 0.13206 0.0
C794 C 0.7168 0.99137 0.11509 0.0
C795 C 0.72157 0.96177 0.12556 0.0
C796 C 0.6406 0.99343 0.12933 0.0
C797 C 0.68448 0.94838 0.1371 0.0
C798 C 0.56238 0.99621 0.14518 0.0
C799 C 0.55147 0.05279 0.12176 0.0
N800 N 0.64563 0.96439 0.13877 0.0
N801 N 0.59123 0.03774 0.12112 0.0
H802 H 0.4434 0.42217 0.11518 0.0
H803 H 0.30428 0.57527 0.14706 0.0
H804 H 0.50058 0.50264 0.15045 0.0
H805 H 0.24886 0.49504 0.11065 0.0
H806 H 0.37646 0.5492 0.14851 0.0
H807 H 0.37127 0.44808 0.1147 0.0
C808 C 0.44076 0.44519 0.12303 0.0
C809 C 0.47825 0.46034 0.13273 0.0
C810 C 0.34854 0.53737 0.14013 0.0
C811 C 0.39564 0.49027 0.13198 0.0
C812 C 0.30731 0.55229 0.13917 0.0
C813 C 0.27031 0.53728 0.1288 0.0
C814 C 0.35281 0.50722 0.13067 0.0
C815 C 0.27637 0.50752 0.11886 0.0
C816 C 0.39951 0.46003 0.12265 0.0
C817 C 0.47262 0.49008 0.14277 0.0
N818 N 0.3168 0.49342 0.12014 0.0
N819 N 0.43209 0.50418 0.14199 0.0
H820 H 0.54418 0.91765 0.40803 0.0
H821 H 0.68159 0.07223 0.37828 0.0
H822 H 0.48743 0.99816 0.37259 0.0
H823 H 0.73892 0.9909 0.4123 0.0
H824 H 0.61027 0.04523 0.37573 0.0
H825 H 0.6167 0.94322 0.40795 0.0
C826 C 0.54702 0.94055 0.39996 0.0
C827 C 0.5095 0.95592 0.39054 0.0
C828 C 0.63844 0.03333 0.38379 0.0
C829 C 0.59237 0.98546 0.39071 0.0
C830 C 0.67916 0.0488 0.38541 0.0
C831 C 0.71641 0.0338 0.39547 0.0
C832 C 0.63491 0.00266 0.39232 0.0
C833 C 0.71116 0.00341 0.40438 0.0
C834 C 0.58845 0.9552 0.40003 0.0
C835 C 0.51535 0.98547 0.38017 0.0
N836 N 0.67117 0.98881 0.40252 0.0
N837 N 0.55596 0.99941 0.38074 0.0
H838 H 0.44631 0.53785 0.36138 0.0
H839 H 0.2713 0.43563 0.42664 0.0
H840 H 0.44876 0.53576 0.43941 0.0
H841 H 0.22349 0.50603 0.37738 0.0
H842 H 0.34419 0.4622 0.42785 0.0
H843 H 0.37028 0.51579 0.36237 0.0
C844 C 0.43069 0.53278 0.37862 0.0
C845 C 0.4531 0.53872 0.40034 0.0
C846 C 0.31742 0.47182 0.417 0.0
C847 C 0.36817 0.51306 0.40154 0.0
C848 C 0.27619 0.45681 0.41631 0.0
C849 C 0.24174 0.46903 0.4021 0.0
C850 C 0.32424 0.49831 0.40264 0.0
C851 C 0.24936 0.4963 0.38879 0.0
C852 C 0.38765 0.52041 0.37918 0.0
C853 C 0.43198 0.53176 0.42233 0.0
N854 N 0.29027 0.50985 0.38904 0.0
N855 N 0.39072 0.51879 0.4224 0.0
H856 H 0.29753 0.07515 0.88119 0.0
H857 H 0.43429 0.91984 0.90837 0.0
H858 H 0.24001 0.99418 0.9157 0.0
H859 H 0.48834 0.99931 0.87028 0.0
H860 H 0.36189 0.94558 0.90967 0.0
H861 H 0.36783 0.04741 0.87722 0.0
C862 C 0.29975 0.05162 0.88815 0.0
C863 C 0.2627 0.03693 0.89872 0.0
C864 C 0.38952 0.95724 0.90085 0.0
C865 C 0.34309 0.0049 0.89392 0.0
C866 C 0.43084 0.94249 0.89995 0.0
C867 C 0.46766 0.95762 0.88949 0.0
C868 C 0.38507 0.98732 0.89128 0.0
C869 C 0.46105 0.98685 0.87874 0.0
C870 C 0.33988 0.03572 0.8857 0.0
C871 C 0.26768 0.00644 0.90743 0.0
N872 N 0.42063 0.0009 0.88015 0.0
N873 N 0.30716 0.99136 0.90475 0.0
H874 H 0.7003 0.43881 0.87413 0.0
H875 H 0.56271 0.59155 0.90602 0.0
H876 H 0.75836 0.51723 0.91174 0.0
H877 H 0.51289 0.51603 0.86202 0.0
H878 H 0.63667 0.56761 0.90537 0.0
H879 H 0.63237 0.46844 0.86835 0.0
C880 C 0.69872 0.46221 0.88138 0.0
C881 C 0.73517 0.47548 0.89354 0.0
C882 C 0.60967 0.55658 0.89555 0.0
C883 C 0.65718 0.50981 0.88668 0.0
C884 C 0.56752 0.57035 0.89574 0.0
C885 C 0.5314 0.55539 0.88447 0.0
C886 C 0.61545 0.52773 0.88406 0.0
C887 C 0.53959 0.52804 0.87137 0.0
C888 C 0.65992 0.47926 0.87785 0.0
C889 C 0.73102 0.50601 0.90236 0.0
N890 N 0.58062 0.51486 0.87182 0.0
N891 N 0.69259 0.52216 0.8988 0.0
H892 H 0.2822 0.93725 0.65345 0.0
H893 H 0.41987 0.09012 0.6209 0.0
H894 H 0.22471 0.01514 0.61495 0.0
H895 H 0.46971 0.01517 0.6655 0.0
H896 H 0.34628 0.06561 0.62112 0.0
H897 H 0.35037 0.96687 0.65893 0.0
C898 C 0.28396 0.96051 0.64595 0.0
C899 C 0.24758 0.97365 0.63364 0.0
C900 C 0.3732 0.0548 0.63113 0.0
C901 C 0.3258 0.00796 0.64015 0.0
C902 C 0.41516 0.06891 0.63119 0.0
C903 C 0.45123 0.05434 0.64282 0.0
C904 C 0.3675 0.026 0.64273 0.0
C905 C 0.44309 0.02694 0.65591 0.0
C906 C 0.32289 0.97755 0.64929 0.0
C907 C 0.25196 0.00401 0.62447 0.0
N908 N 0.40224 0.01344 0.65523 0.0
N909 N 0.29046 0.02015 0.62789 0.0
H910 H 0.47818 0.5036 0.6574 0.0
H911 H 0.72921 0.49815 0.60874 0.0
H912 H 0.53532 0.42574 0.61877 0.0
H913 H 0.67577 0.57447 0.65066 0.0
H914 H 0.65787 0.4714 0.61235 0.0
H915 H 0.55098 0.52921 0.65672 0.0
C916 C 0.50612 0.49167 0.64911 0.0
C917 C 0.50049 0.46263 0.63788 0.0
C918 C 0.66172 0.49403 0.62073 0.0
C919 C 0.58352 0.49199 0.6367 0.0
C920 C 0.70239 0.50944 0.61853 0.0
C921 C 0.70858 0.5386 0.62945 0.0
C922 C 0.62692 0.50788 0.63391 0.0
C923 C 0.67256 0.55201 0.64196 0.0
C924 C 0.54759 0.50641 0.64858 0.0
C925 C 0.53791 0.44828 0.62742 0.0
N926 N 0.63327 0.53649 0.6439 0.0
N927 N 0.57772 0.46324 0.6269 0.0
H928 H 0.23012 0.5027 0.60704 0.0
H929 H 0.97829 0.49827 0.65458 0.0
H930 H 0.17554 0.42701 0.6493 0.0
H931 H 0.03593 0.57523 0.61498 0.0
H932 H 0.05065 0.4722 0.65381 0.0
H933 H 0.15841 0.52913 0.60934 0.0
C934 C 0.20298 0.49147 0.61662 0.0
C935 C 0.20899 0.46262 0.62809 0.0
C936 C 0.04746 0.49488 0.64544 0.0
C937 C 0.12689 0.493 0.63103 0.0
C938 C 0.00623 0.50989 0.64601 0.0
C939 C 0.00088 0.53889 0.63464 0.0
C940 C 0.08347 0.50896 0.6334 0.0
C941 C 0.03832 0.5528 0.62382 0.0
C942 C 0.16208 0.5067 0.61805 0.0
C943 C 0.17251 0.44924 0.64022 0.0
N944 N 0.07792 0.53759 0.62331 0.0
N945 N 0.13303 0.46463 0.64146 0.0
H946 H 0.72752 0.99505 0.6551 0.0
H947 H 0.95256 0.96264 0.58859 0.0
H948 H 0.77713 0.063 0.60424 0.0
H949 H 0.95018 0.9602 0.66662 0.0
H950 H 0.87842 0.98704 0.5888 0.0
H951 H 0.80054 0.969 0.6543 0.0
C952 C 0.75366 0.00413 0.64351 0.0
C953 C 0.74671 0.03101 0.62963 0.0
C954 C 0.89418 0.98091 0.60579 0.0
C955 C 0.82896 0.00136 0.62845 0.0
C956 C 0.93601 0.96688 0.60572 0.0
C957 C 0.95692 0.95941 0.62765 0.0
C958 C 0.8729 0.98653 0.62789 0.0
C959 C 0.93479 0.96571 0.64941 0.0
C960 C 0.79509 0.98949 0.64325 0.0
C961 C 0.78153 0.04228 0.61516 0.0
N962 N 0.89344 0.97868 0.64901 0.0
N963 N 0.82131 0.02714 0.61472 0.0
H964 H 0.20806 0.56172 0.92683 0.0
H965 H 0.03219 0.46098 0.86106 0.0
H966 H 0.25566 0.49218 0.8768 0.0
H967 H 0.03132 0.4608 0.93912 0.0
H968 H 0.10822 0.48309 0.86196 0.0
H969 H 0.13514 0.53515 0.92786 0.0
C970 C 0.20311 0.54073 0.91629 0.0
C971 C 0.23751 0.52873 0.90193 0.0
C972 C 0.09119 0.47795 0.87879 0.0
C973 C 0.15499 0.49948 0.90226 0.0
C974 C 0.04816 0.46555 0.87829 0.0
C975 C 0.02619 0.45896 0.90004 0.0
C976 C 0.11109 0.48469 0.90116 0.0
C977 C 0.04775 0.46531 0.92201 0.0
C978 C 0.16187 0.52573 0.91687 0.0
C979 C 0.22982 0.50172 0.88833 0.0
N980 N 0.08897 0.47832 0.92205 0.0
N981 N 0.18891 0.48817 0.88849 0.0
H982 H 0.93517 0.08134 0.90475 0.0
H983 H 0.79842 0.92519 0.87947 0.0
H984 H -0.00721 0.99901 0.87243 0.0
H985 H 0.74028 0.00835 0.91023 0.0
H986 H 0.86975 0.95209 0.87635 0.0
H987 H 0.86259 0.05583 0.9049 0.0
C988 C 0.9325 0.05805 0.89739 0.0
C989 C 0.97029 0.04217 0.88882 0.0
C990 C 0.84141 0.96442 0.88383 0.0
C991 C 0.88732 0.01269 0.88928 0.0
C992 C 0.80067 0.94901 0.88578 0.0
C993 C 0.76317 0.96453 0.89509 0.0
C994 C 0.84473 0.99556 0.89125 0.0
C995 C 0.76822 0.99542 0.90293 0.0
C996 C 0.89103 0.04344 0.8976 0.0
C997 C 0.96465 0.01212 0.87932 0.0
N998 N 0.80824 0.00994 0.90076 0.0
N999 N 0.92399 0.99822 0.88004 0.0
H1000 H 0.91573 0.40659 0.40443 0.0
H1001 H 0.77878 0.55991 0.37225 0.0
H1002 H 0.96725 0.48284 0.36175 0.0
H1003 H 0.72112 0.48184 0.41051 0.0
H1004 H 0.84694 0.53028 0.36669 0.0
H1005 H 0.84199 0.4309 0.4036 0.0
C1006 C 0.91134 0.42803 0.39439 0.0
C1007 C 0.94784 0.44304 0.38352 0.0
C1008 C 0.81941 0.51956 0.3763 0.0
C1009 C 0.86404 0.47116 0.38293 0.0
C1010 C 0.7805 0.5366 0.37968 0.0
C1011 C 0.74411 0.52343 0.39198 0.0
C1012 C 0.82227 0.48912 0.38538 0.0
C1013 C 0.74839 0.493 0.40102 0.0
C1014 C 0.86932 0.44203 0.39412 0.0
C1015 C 0.94021 0.47076 0.37077 0.0
N1016 N 0.78686 0.47687 0.39758 0.0
N1017 N 0.89929 0.48413 0.37112 0.0
H1018 H 0.1824 0.92482 0.38183 0.0
H1019 H 0.04534 0.07921 0.41154 0.0
H1020 H 0.24047 0.00488 0.41727 0.0
H1021 H -0.00784 0.00084 0.37182 0.0
H1022 H 0.11795 0.05361 0.41252 0.0
H1023 H 0.11225 0.95273 0.37837 0.0
C1024 C 0.18034 0.94819 0.38909 0.0
C1025 C 0.21749 0.96257 0.39979 0.0
C1026 C 0.09045 0.04219 0.40342 0.0
C1027 C 0.13717 0.99482 0.3956 0.0
C1028 C 0.04902 0.05687 0.4027 0.0
C1029 C 0.01239 0.04196 0.39186 0.0
C1030 C 0.09515 0.01243 0.39328 0.0
C1031 C 0.01927 0.01308 0.38062 0.0
C1032 C 0.14027 0.96421 0.38695 0.0
C1033 C 0.21268 0.99287 0.40891 0.0
N1034 N 0.05974 0.99912 0.38184 0.0
N1035 N 0.17321 0.00808 0.40653 0.0
H1036 H 0.94228 0.57615 0.12374 0.0
H1037 H 0.8035 0.42127 0.15114 0.0
H1038 H 0.00033 0.49414 0.15629 0.0
H1039 H 0.75138 0.50054 0.11213 0.0
H1040 H 0.87471 0.44834 0.1554 0.0
H1041 H 0.87011 0.55022 0.1231 0.0
C1042 C 0.93978 0.55281 0.13105 0.0
C1043 C 0.9776 0.53717 0.13983 0.0
C1044 C 0.84771 0.45973 0.14585 0.0
C1045 C 0.89497 0.50717 0.13882 0.0
C1046 C 0.80708 0.44423 0.14328 0.0
C1047 C 0.7713 0.45864 0.13125 0.0
C1048 C 0.85255 0.48986 0.1364 0.0
C1049 C 0.77796 0.48845 0.12151 0.0
C1050 C 0.89853 0.53794 0.13054 0.0
C1051 C 0.97214 0.50706 0.14927 0.0
N1052 N 0.81773 0.5031 0.12438 0.0
N1053 N 0.93162 0.49289 0.1483 0.0
H1054 H 0.24391 0.99117 0.10897 0.0
H1055 H -0.00843 0.99756 0.15588 0.0
H1056 H 0.18694 0.0696 0.147 0.0
H1057 H 0.04801 0.91952 0.11714 0.0
H1058 H 0.06437 0.02296 0.15504 0.0
H1059 H 0.17263 0.96408 0.11247 0.0
C1060 C 0.21635 0.00285 0.11784 0.0
C1061 C 0.22152 0.03271 0.12775 0.0
C1062 C 0.06086 0.00017 0.14688 0.0
C1063 C 0.14006 0.00162 0.13211 0.0
C1064 C 0.01935 0.98553 0.14752 0.0
C1065 C 0.01348 0.95649 0.13632 0.0
C1066 C 0.09667 0.98569 0.13496 0.0
C1067 C 0.0508 0.94204 0.1258 0.0
C1068 C 0.17574 0.98725 0.11999 0.0
C1069 C 0.18461 0.04659 0.13912 0.0
N1070 N 0.0907 0.95692 0.12519 0.0
N1071 N 0.1455 0.03088 0.14106 0.0
H1072 H 0.49418 0.15604 0.1637 0.0
H1073 H 0.4888 0.34022 0.1588 0.0
H1074 H 0.37251 0.20961 0.16246 0.0
H1075 H 0.61023 0.28663 0.16376 0.0
H1076 H 0.44572 0.29352 0.168 0.0
H1077 H 0.53633 0.20348 0.17189 0.0
C1078 C 0.47619 0.17778 0.16573 0.0
C1079 C 0.42979 0.17895 0.16211 0.0
C1080 C 0.4818 0.29197 0.1675 0.0
C1081 C 0.47812 0.23365 0.17095 0.0
C1082 C 0.50651 0.31868 0.16224 0.0
C1083 C 0.55325 0.31726 0.16011 0.0
C1084 C 0.5038 0.26338 0.17038 0.0
C1085 C 0.5743 0.2888 0.16509 0.0
C1086 C 0.50035 0.20491 0.17033 0.0
C1087 C 0.40821 0.20766 0.1651 0.0
N1088 N 0.54937 0.26286 0.16954 0.0
N1089 N 0.43268 0.23399 0.16886 0.0
H1090 H 0.47394 0.65172 0.36917 0.0
H1091 H 0.36202 0.79026 0.35609 0.0
H1092 H 0.59626 0.70397 0.36242 0.0
H1093 H 0.49036 0.8316 0.37119 0.0
H1094 H 0.39946 0.7412 0.34672 0.0
H1095 H 0.43167 0.69817 0.35974 0.0
C1096 C 0.49198 0.67295 0.36509 0.0
C1097 C 0.53873 0.67404 0.36694 0.0
C1098 C 0.41958 0.76087 0.35217 0.0
C1099 C 0.49019 0.72799 0.35582 0.0
C1100 C 0.39809 0.78913 0.35716 0.0
C1101 C 0.42288 0.81487 0.36513 0.0
C1102 C 0.46615 0.75833 0.35547 0.0
C1103 C 0.46967 0.81214 0.36578 0.0
C1104 C 0.46767 0.69966 0.35947 0.0
C1105 C 0.56028 0.70209 0.36127 0.0
N1106 N 0.48961 0.78433 0.36143 0.0
N1107 N 0.53577 0.7281 0.35647 0.0
H1108 H 0.60885 0.79017 0.85715 0.0
H1109 H 0.36576 0.715 0.86261 0.0
H1110 H 0.48713 0.84223 0.86724 0.0
H1111 H 0.48818 0.6625 0.85942 0.0
H1112 H 0.40801 0.7624 0.85265 0.0
H1113 H 0.56405 0.74428 0.84649 0.0
C1114 C 0.57281 0.79216 0.85652 0.0
C1115 C 0.55167 0.8198 0.8636 0.0
C1116 C 0.42546 0.74035 0.85351 0.0
C1117 C 0.50021 0.76753 0.85172 0.0
C1118 C 0.40121 0.71331 0.85895 0.0
C1119 C 0.4237 0.68503 0.86207 0.0
C1120 C 0.47232 0.73888 0.85128 0.0
C1121 C 0.46978 0.68405 0.85742 0.0
C1122 C 0.54718 0.76595 0.85058 0.0
C1123 C 0.50479 0.82112 0.86243 0.0
N1124 N 0.49267 0.71062 0.85265 0.0
N1125 N 0.48068 0.79528 0.85703 0.0
H1126 H 0.36891 0.29165 0.66745 0.0
H1127 H 0.61318 0.2176 0.66178 0.0
H1128 H 0.4899 0.34474 0.65766 0.0
H1129 H 0.49113 0.16451 0.66422 0.0
H1130 H 0.57019 0.26489 0.67112 0.0
H1131 H 0.41435 0.24578 0.6771 0.0
C1132 C 0.40493 0.29386 0.6679 0.0
C1133 C 0.42562 0.32187 0.66125 0.0
C1134 C 0.55297 0.24275 0.67018 0.0
C1135 C 0.47786 0.26953 0.67197 0.0
C1136 C 0.57762 0.21578 0.66507 0.0
C1137 C 0.55552 0.18732 0.66197 0.0
C1138 C 0.50609 0.24103 0.67218 0.0
C1139 C 0.50929 0.18618 0.66618 0.0
C1140 C 0.43093 0.26764 0.67327 0.0
C1141 C 0.47252 0.3234 0.66217 0.0
N1142 N 0.48605 0.21266 0.67072 0.0
N1143 N 0.49701 0.29754 0.66702 0.0
H1144 H 0.10276 0.79312 0.66323 0.0
H1145 H 0.86248 0.71171 0.66341 0.0
H1146 H 0.97787 0.84239 0.6566 0.0
H1147 H 0.98731 0.662 0.65845 0.0
H1148 H 0.9042 0.7597 0.67162 0.0
H1149 H 0.06101 0.74527 0.67213 0.0
C1150 C 0.06667 0.79405 0.66424 0.0
C1151 C 0.04376 0.82164 0.65876 0.0
C1152 C 0.92241 0.73815 0.66916 0.0
C1153 C -0.00421 0.76707 0.66869 0.0
C1154 C 0.89855 0.71072 0.66463 0.0
C1155 C 0.92144 0.68292 0.6598 0.0
C1156 C 0.96942 0.73771 0.66893 0.0
C1157 C 0.96829 0.68304 0.66161 0.0
C1158 C 0.0428 0.7667 0.66916 0.0
C1159 C -0.00311 0.82148 0.66028 0.0
N1160 N -0.0093 0.71004 0.6657 0.0
N1161 N 0.9745 0.7946 0.66479 0.0
H1162 H 0.87729 0.29546 0.86181 0.0
H1163 H 0.11542 0.21175 0.86218 0.0
H1164 H 0.00318 0.34323 0.86974 0.0
H1165 H -0.01071 0.16356 0.86688 0.0
H1166 H 0.07505 0.26012 0.85335 0.0
H1167 H 0.91805 0.24751 0.85214 0.0
C1168 C 0.91341 0.29606 0.86093 0.0
C1169 C 0.93689 0.32319 0.86706 0.0
C1170 C 0.05629 0.2388 0.85585 0.0
C1171 C 0.98369 0.26853 0.85623 0.0
C1172 C 0.07936 0.21116 0.86073 0.0
C1173 C 0.05564 0.18375 0.86574 0.0
C1174 C 0.00927 0.2389 0.85591 0.0
C1175 C 0.00887 0.18434 0.86362 0.0
C1176 C 0.9367 0.26866 0.85555 0.0
C1177 C 0.98374 0.32265 0.86562 0.0
N1178 N 0.98722 0.21152 0.85921 0.0
N1179 N 0.00558 0.29569 0.86068 0.0
H1180 H 0.86912 0.20703 0.35427 0.0
H1181 H -0.00129 0.33922 0.34984 0.0
H1182 H -0.00805 0.15786 0.36806 0.0
H1183 H 0.10823 0.27957 0.36956 0.0
H1184 H 0.95438 0.2938 0.33942 0.0
H1185 H 0.91219 0.25314 0.34357 0.0
C1186 C 0.90523 0.20577 0.35444 0.0
C1187 C 0.9269 0.17883 0.36256 0.0
C1188 C 0.98811 0.29019 0.34568 0.0
C1189 C 0.9772 0.23176 0.35062 0.0
C1190 C 0.01377 0.31635 0.35126 0.0
C1191 C 0.05707 0.31301 0.36053 0.0
C1192 C 0.00555 0.26032 0.3501 0.0
C1193 C 0.07504 0.28306 0.36229 0.0
C1194 C 0.93019 0.2323 0.34844 0.0
C1195 C 0.97381 0.17842 0.36241 0.0
N1196 N 0.04888 0.25784 0.35757 0.0
N1197 N -0.00278 0.20454 0.35695 0.0
H1198 H 0.87119 0.78633 0.16357 0.0
H1199 H 0.11376 0.70905 0.16624 0.0
H1200 H -0.00532 0.83791 0.16064 0.0
H1201 H -0.00928 0.6575 0.15953 0.0
H1202 H 0.07026 0.7561 0.17504 0.0
H1203 H 0.91384 0.73906 0.17297 0.0
C1204 C 0.9071 0.78789 0.16555 0.0
C1205 C 0.92947 0.81594 0.16089 0.0
C1206 C 0.05283 0.73434 0.17209 0.0
C1207 C 0.97851 0.76206 0.17132 0.0
C1208 C 0.07772 0.70744 0.16722 0.0
C1209 C 0.05584 0.67947 0.16169 0.0
C1210 C 0.00584 0.73314 0.17147 0.0
C1211 C 0.00897 0.67875 0.16321 0.0
C1212 C 0.93151 0.76088 0.17074 0.0
C1213 C 0.97613 0.81661 0.16364 0.0
N1214 N 0.98557 0.70523 0.16761 0.0
N1215 N -0.00089 0.79003 0.16833 0.0
loop_
_geom_bond_atom_site_label_1
_geom_bond_atom_site_label_2
_geom_bond_distance
_geom_bond_site_symmetry_2
_ccdc_geom_bond_type
Sc0 O3 2.025 . S
Sc0 O10 2.105 . S
Sc0 O13 2.105 . S
Sc0 O16 2.105 . S
Sc0 O19 2.105 . S
Sc1 O3 2.025 . S
Sc1 O11 2.105 . S
Sc1 O15 2.105 . S
Sc1 O17 2.105 . S
Sc1 O21 2.105 . S
Sc2 O3 2.025 . S
Sc2 O12 2.105 . S
Sc2 O14 2.105 . S
Sc2 O18 2.105 . S
Sc2 O20 2.105 . S
O3 Sc0 2.025 . S
O3 Sc1 2.025 . S
O3 Sc2 2.025 . S
C4 O10 1.268 . S
C4 O20 1.268 . S
C5 O11 1.268 . S
C5 O19 1.268 . S
C6 O12 1.268 . S
C6 O21 1.268 . S
C7 O13 1.268 . S
C7 O17 1.268 . S
C8 O14 1.268 . S
C8 O16 1.268 . S
C9 O15 1.268 . S
C9 O18 1.268 . S
O10 Sc0 2.105 . S
O10 C4 1.268 . S
O11 Sc1 2.105 . S
O11 C5 1.268 . S
O12 Sc2 2.105 . S
O12 C6 1.268 . S
O13 Sc0 2.105 . S
O13 C7 1.268 . S
O14 Sc2 2.105 . S
O14 C8 1.268 . S
O15 Sc1 2.105 . S
O15 C9 1.268 . S
O16 Sc0 2.105 . S
O16 C8 1.268 . S
O17 Sc1 2.105 . S
O17 C7 1.268 . S
O18 Sc2 2.105 . S
O18 C9 1.268 . S
O19 Sc0 2.105 . S
O19 C5 1.268 . S
O20 Sc2 2.105 . S
O20 C4 1.268 . S
O21 Sc1 2.105 . S
O21 C6 1.268 . S
Sc22 O25 2.025 . S
Sc22 O32 2.105 . S
Sc22 O35 2.105 . S
Sc22 O38 2.105 . S
Sc22 O41 2.105 . S
Sc23 O25 2.025 . S
Sc23 O33 2.105 . S
Sc23 O37 2.105 . S
Sc23 O39 2.105 . S
Sc23 O43 2.105 . S
Sc24 O25 2.025 . S
Sc24 O34 2.105 . S
Sc24 O36 2.105 . S
Sc24 O40 2.105 . S
Sc24 O42 2.105 . S
O25 Sc22 2.025 . S
O25 Sc23 2.025 . S
O25 Sc24 2.025 . S
C26 O32 1.268 . S
C26 O42 1.268 . S
C27 O33 1.268 . S
C27 O41 1.268 . S
C28 O34 1.268 . S
C28 O43 1.268 . S
C29 O35 1.268 . S
C29 O39 1.268 . S
C30 O36 1.268 . S
C30 O38 1.268 . S
C31 O37 1.268 . S
C31 O40 1.268 . S
O32 Sc22 2.105 . S
O32 C26 1.268 . S
O33 Sc23 2.105 . S
O33 C27 1.268 . S
O34 Sc24 2.105 . S
O34 C28 1.268 . S
O35 Sc22 2.105 . S
O35 C29 1.268 . S
O36 Sc24 2.105 . S
O36 C30 1.268 . S
O37 Sc23 2.105 . S
O37 C31 1.268 . S
O38 Sc22 2.105 . S
O38 C30 1.268 . S
O39 Sc23 2.105 . S
O39 C29 1.268 . S
O40 Sc24 2.105 . S
O40 C31 1.268 . S
O41 Sc22 2.105 . S
O41 C27 1.268 . S
O42 Sc24 2.105 . S
O42 C26 1.268 . S
O43 Sc23 2.105 . S
O43 C28 1.268 . S
Sc44 O47 2.025 . S
Sc44 O54 2.105 . S
Sc44 O57 2.105 . S
Sc44 O60 2.105 . S
Sc44 O63 2.105 . S
Sc45 O47 2.025 . S
Sc45 O55 2.105 . S
Sc45 O59 2.105 . S
Sc45 O61 2.105 . S
Sc45 O65 2.105 . S
Sc46 O47 2.025 . S
Sc46 O56 2.105 . S
Sc46 O58 2.105 . S
Sc46 O62 2.105 . S
Sc46 O64 2.105 . S
O47 Sc44 2.025 . S
O47 Sc45 2.025 . S
O47 Sc46 2.025 . S
C48 O54 1.268 . S
C48 O64 1.268 . S
C49 O55 1.268 . S
C49 O63 1.268 . S
C50 O56 1.268 . S
C50 O65 1.268 . S
C51 O57 1.268 . S
C51 O61 1.268 . S
C52 O58 1.268 . S
C52 O60 1.268 . S
C53 O59 1.268 . S
C53 O62 1.268 . S
O54 Sc44 2.105 . S
O54 C48 1.268 . S
O55 Sc45 2.105 . S
O55 C49 1.268 . S
O56 Sc46 2.105 . S
O56 C50 1.268 . S
O57 Sc44 2.105 . S
O57 C51 1.268 . S
O58 Sc46 2.105 . S
O58 C52 1.268 . S
O59 Sc45 2.105 . S
O59 C53 1.268 . S
O60 Sc44 2.105 . S
O60 C52 1.268 . S
O61 Sc45 2.105 . S
O61 C51 1.268 . S
O62 Sc46 2.105 . S
O62 C53 1.268 . S
O63 Sc44 2.105 . S
O63 C49 1.268 . S
O64 Sc46 2.105 . S
O64 C48 1.268 . S
O65 Sc45 2.105 . S
O65 C50 1.268 . S
Sc66 O69 2.025 . S
Sc66 O76 2.105 . S
Sc66 O79 2.105 . S
Sc66 O82 2.105 . S
Sc66 O85 2.105 . S
Sc67 O69 2.025 . S
Sc67 O77 2.105 . S
Sc67 O81 2.105 . S
Sc67 O83 2.105 . S
Sc67 O87 2.105 . S
Sc68 O69 2.025 . S
Sc68 O78 2.105 . S
Sc68 O80 2.105 . S
Sc68 O84 2.105 . S
Sc68 O86 2.105 . S
O69 Sc66 2.025 . S
O69 Sc67 2.025 . S
O69 Sc68 2.025 . S
C70 O76 1.268 . S
C70 O86 1.268 . S
C71 O77 1.268 . S
C71 O85 1.268 . S
C72 O78 1.268 . S
C72 O87 1.268 . S
C73 O79 1.268 . S
C73 O83 1.268 . S
C74 O80 1.268 . S
C74 O82 1.268 . S
C75 O81 1.268 . S
C75 O84 1.268 . S
O76 Sc66 2.105 . S
O76 C70 1.268 . S
O77 Sc67 2.105 . S
O77 C71 1.268 . S
O78 Sc68 2.105 . S
O78 C72 1.268 . S
O79 Sc66 2.105 . S
O79 C73 1.268 . S
O80 Sc68 2.105 . S
O80 C74 1.268 . S
O81 Sc67 2.105 . S
O81 C75 1.268 . S
O82 Sc66 2.105 . S
O82 C74 1.268 . S
O83 Sc67 2.105 . S
O83 C73 1.268 . S
O84 Sc68 2.105 . S
O84 C75 1.268 . S
O85 Sc66 2.105 . S
O85 C71 1.268 . S
O86 Sc68 2.105 . S
O86 C70 1.268 . S
O87 Sc67 2.105 . S
O87 C72 1.268 . S
Sc88 O91 2.025 . S
Sc88 O98 2.105 . S
Sc88 O101 2.105 . S
Sc88 O104 2.105 . S
Sc88 O107 2.105 . S
Sc89 O91 2.025 . S
Sc89 O99 2.105 . S
Sc89 O103 2.105 . S
Sc89 O105 2.105 . S
Sc89 O109 2.105 . S
Sc90 O91 2.025 . S
Sc90 O100 2.105 . S
Sc90 O102 2.105 . S
Sc90 O106 2.105 . S
Sc90 O108 2.105 . S
O91 Sc88 2.025 . S
O91 Sc89 2.025 . S
O91 Sc90 2.025 . S
C92 O98 1.268 . S
C92 O108 1.268 . S
C93 O99 1.268 . S
C93 O107 1.268 . S
C94 O100 1.268 . S
C94 O109 1.268 . S
C95 O101 1.268 . S
C95 O105 1.268 . S
C96 O102 1.268 . S
C96 O104 1.268 . S
C97 O103 1.268 . S
C97 O106 1.268 . S
O98 Sc88 2.105 . S
O98 C92 1.268 . S
O99 Sc89 2.105 . S
O99 C93 1.268 . S
O100 Sc90 2.105 . S
O100 C94 1.268 . S
O101 Sc88 2.105 . S
O101 C95 1.268 . S
O102 Sc90 2.105 . S
O102 C96 1.268 . S
O103 Sc89 2.105 . S
O103 C97 1.268 . S
O104 Sc88 2.105 . S
O104 C96 1.268 . S
O105 Sc89 2.105 . S
O105 C95 1.268 . S
O106 Sc90 2.105 . S
O106 C97 1.268 . S
O107 Sc88 2.105 . S
O107 C93 1.268 . S
O108 Sc90 2.105 . S
O108 C92 1.268 . S
O109 Sc89 2.105 . S
O109 C94 1.268 . S
Sc110 O113 2.025 . S
Sc110 O120 2.105 . S
Sc110 O123 2.105 . S
Sc110 O126 2.105 . S
Sc110 O129 2.105 . S
Sc111 O113 2.025 . S
Sc111 O121 2.105 . S
Sc111 O125 2.105 . S
Sc111 O127 2.105 . S
Sc111 O131 2.105 . S
Sc112 O113 2.025 . S
Sc112 O122 2.105 . S
Sc112 O124 2.105 . S
Sc112 O128 2.105 . S
Sc112 O130 2.105 . S
O113 Sc110 2.025 . S
O113 Sc111 2.025 . S
O113 Sc112 2.025 . S
C114 O120 1.268 . S
C114 O130 1.268 . S
C115 O121 1.268 . S
C115 O129 1.268 . S
C116 O122 1.268 . S
C116 O131 1.268 . S
C117 O123 1.268 . S
C117 O127 1.268 . S
C118 O124 1.268 . S
C118 O126 1.268 . S
C119 O125 1.268 . S
C119 O128 1.268 . S
O120 Sc110 2.105 . S
O120 C114 1.268 . S
O121 Sc111 2.105 . S
O121 C115 1.268 . S
O122 Sc112 2.105 . S
O122 C116 1.268 . S
O123 Sc110 2.105 . S
O123 C117 1.268 . S
O124 Sc112 2.105 . S
O124 C118 1.268 . S
O125 Sc111 2.105 . S
O125 C119 1.268 . S
O126 Sc110 2.105 . S
O126 C118 1.268 . S
O127 Sc111 2.105 . S
O127 C117 1.268 . S
O128 Sc112 2.105 . S
O128 C119 1.268 . S
O129 Sc110 2.105 . S
O129 C115 1.268 . S
O130 Sc112 2.105 . S
O130 C114 1.268 . S
O131 Sc111 2.105 . S
O131 C116 1.268 . S
Sc132 O135 2.025 . S
Sc132 O142 2.105 . S
Sc132 O145 2.105 . S
Sc132 O148 2.105 . S
Sc132 O151 2.105 . S
Sc133 O135 2.025 . S
Sc133 O143 2.105 . S
Sc133 O147 2.105 . S
Sc133 O149 2.105 . S
Sc133 O153 2.105 . S
Sc134 O135 2.025 . S
Sc134 O144 2.105 . S
Sc134 O146 2.105 . S
Sc134 O150 2.105 . S
Sc134 O152 2.105 . S
O135 Sc132 2.025 . S
O135 Sc133 2.025 . S
O135 Sc134 2.025 . S
C136 O142 1.268 . S
C136 O152 1.268 . S
C137 O143 1.268 . S
C137 O151 1.268 . S
C138 O144 1.268 . S
C138 O153 1.268 . S
C139 O145 1.268 . S
C139 O149 1.268 . S
C140 O146 1.268 . S
C140 O148 1.268 . S
C141 O147 1.268 . S
C141 O150 1.268 . S
O142 Sc132 2.105 . S
O142 C136 1.268 . S
O143 Sc133 2.105 . S
O143 C137 1.268 . S
O144 Sc134 2.105 . S
O144 C138 1.268 . S
O145 Sc132 2.105 . S
O145 C139 1.268 . S
O146 Sc134 2.105 . S
O146 C140 1.268 . S
O147 Sc133 2.105 . S
O147 C141 1.268 . S
O148 Sc132 2.105 . S
O148 C140 1.268 . S
O149 Sc133 2.105 . S
O149 C139 1.268 . S
O150 Sc134 2.105 . S
O150 C141 1.268 . S
O151 Sc132 2.105 . S
O151 C137 1.268 . S
O152 Sc134 2.105 . S
O152 C136 1.268 . S
O153 Sc133 2.105 . S
O153 C138 1.268 . S
Sc154 O157 2.025 . S
Sc154 O164 2.105 . S
Sc154 O167 2.105 . S
Sc154 O170 2.105 . S
Sc154 O173 2.105 . S
Sc155 O157 2.025 . S
Sc155 O165 2.105 . S
Sc155 O169 2.105 . S
Sc155 O171 2.105 . S
Sc155 O175 2.105 . S
Sc156 O157 2.025 . S
Sc156 O166 2.105 . S
Sc156 O168 2.105 . S
Sc156 O172 2.105 . S
Sc156 O174 2.105 . S
O157 Sc154 2.025 . S
O157 Sc155 2.025 . S
O157 Sc156 2.025 . S
C158 O164 1.268 . S
C158 O174 1.268 . S
C159 O165 1.268 . S
C159 O173 1.268 . S
C160 O166 1.268 . S
C160 O175 1.268 . S
C161 O167 1.268 . S
C161 O171 1.268 . S
C162 O168 1.268 . S
C162 O170 1.268 . S
C163 O169 1.268 . S
C163 O172 1.268 . S
O164 Sc154 2.105 . S
O164 C158 1.268 . S
O165 Sc155 2.105 . S
O165 C159 1.268 . S
O166 Sc156 2.105 . S
O166 C160 1.268 . S
O167 Sc154 2.105 . S
O167 C161 1.268 . S
O168 Sc156 2.105 . S
O168 C162 1.268 . S
O169 Sc155 2.105 . S
O169 C163 1.268 . S
O170 Sc154 2.105 . S
O170 C162 1.268 . S
O171 Sc155 2.105 . S
O171 C161 1.268 . S
O172 Sc156 2.105 . S
O172 C163 1.268 . S
O173 Sc154 2.105 . S
O173 C159 1.268 . S
O174 Sc156 2.105 . S
O174 C158 1.268 . S
O175 Sc155 2.105 . S
O175 C160 1.268 . S
Sc176 O179 2.025 . S
Sc176 O186 2.105 . S
Sc176 O189 2.105 . S
Sc176 O192 2.105 . S
Sc176 O195 2.105 . S
Sc177 O179 2.025 . S
Sc177 O187 2.105 . S
Sc177 O191 2.105 1_655 S
Sc177 O193 2.105 . S
Sc177 O197 2.105 . S
Sc178 O179 2.025 . S
Sc178 O188 2.105 . S
Sc178 O190 2.105 . S
Sc178 O194 2.105 1_655 S
Sc178 O196 2.105 . S
O179 Sc176 2.025 . S
O179 Sc177 2.025 . S
O179 Sc178 2.025 . S
C180 O186 1.268 . S
C180 O196 1.268 . S
C181 O187 1.268 . S
C181 O195 1.268 . S
C182 O188 1.268 . S
C182 O197 1.268 . S
C183 O189 1.268 . S
C183 O193 1.268 . S
C184 O190 1.268 . S
C184 O192 1.268 . S
C185 O191 1.268 . S
C185 O194 1.268 . S
O186 Sc176 2.105 . S
O186 C180 1.268 . S
O187 Sc177 2.105 . S
O187 C181 1.268 . S
O188 Sc178 2.105 . S
O188 C182 1.268 . S
O189 Sc176 2.105 . S
O189 C183 1.268 . S
O190 Sc178 2.105 . S
O190 C184 1.268 . S
O191 Sc177 2.105 1_455 S
O191 C185 1.268 . S
O192 Sc176 2.105 . S
O192 C184 1.268 . S
O193 Sc177 2.105 . S
O193 C183 1.268 . S
O194 Sc178 2.105 1_455 S
O194 C185 1.268 . S
O195 Sc176 2.105 . S
O195 C181 1.268 . S
O196 Sc178 2.105 . S
O196 C180 1.268 . S
O197 Sc177 2.105 . S
O197 C182 1.268 . S
Sc198 O201 2.025 . S
Sc198 O208 2.105 . S
Sc198 O211 2.105 . S
Sc198 O214 2.105 . S
Sc198 O217 2.105 . S
Sc199 O201 2.025 . S
Sc199 O209 2.105 . S
Sc199 O213 2.105 1_455 S
Sc199 O215 2.105 . S
Sc199 O219 2.105 . S
Sc200 O201 2.025 . S
Sc200 O210 2.105 . S
Sc200 O212 2.105 . S
Sc200 O216 2.105 1_455 S
Sc200 O218 2.105 . S
O201 Sc198 2.025 . S
O201 Sc199 2.025 . S
O201 Sc200 2.025 . S
C202 O208 1.268 . S
C202 O218 1.268 . S
C203 O209 1.268 . S
C203 O217 1.268 . S
C204 O210 1.268 . S
C204 O219 1.268 . S
C205 O211 1.268 . S
C205 O215 1.268 . S
C206 O212 1.268 . S
C206 O214 1.268 . S
C207 O213 1.268 . S
C207 O216 1.268 . S
O208 Sc198 2.105 . S
O208 C202 1.268 . S
O209 Sc199 2.105 . S
O209 C203 1.268 . S
O210 Sc200 2.105 . S
O210 C204 1.268 . S
O211 Sc198 2.105 . S
O211 C205 1.268 . S
O212 Sc200 2.105 . S
O212 C206 1.268 . S
O213 Sc199 2.105 1_655 S
O213 C207 1.268 . S
O214 Sc198 2.105 . S
O214 C206 1.268 . S
O215 Sc199 2.105 . S
O215 C205 1.268 . S
O216 Sc200 2.105 1_655 S
O216 C207 1.268 . S
O217 Sc198 2.105 . S
O217 C203 1.268 . S
O218 Sc200 2.105 . S
O218 C202 1.268 . S
O219 Sc199 2.105 . S
O219 C204 1.268 . S
Sc220 O223 2.025 . S
Sc220 O230 2.105 . S
Sc220 O233 2.105 . S
Sc220 O236 2.105 . S
Sc220 O239 2.105 . S
Sc221 O223 2.025 . S
Sc221 O231 2.105 . S
Sc221 O235 2.105 1_655 S
Sc221 O237 2.105 . S
Sc221 O241 2.105 . S
Sc222 O223 2.025 . S
Sc222 O232 2.105 . S
Sc222 O234 2.105 . S
Sc222 O238 2.105 1_655 S
Sc222 O240 2.105 . S
O223 Sc220 2.025 . S
O223 Sc221 2.025 . S
O223 Sc222 2.025 . S
C224 O230 1.268 . S
C224 O240 1.268 . S
C225 O231 1.268 . S
C225 O239 1.268 . S
C226 O232 1.268 . S
C226 O241 1.268 . S
C227 O233 1.268 . S
C227 O237 1.268 . S
C228 O234 1.268 . S
C228 O236 1.268 . S
C229 O235 1.268 . S
C229 O238 1.268 . S
O230 Sc220 2.105 . S
O230 C224 1.268 . S
O231 Sc221 2.105 . S
O231 C225 1.268 . S
O232 Sc222 2.105 . S
O232 C226 1.268 . S
O233 Sc220 2.105 . S
O233 C227 1.268 . S
O234 Sc222 2.105 . S
O234 C228 1.268 . S
O235 Sc221 2.105 1_455 S
O235 C229 1.268 . S
O236 Sc220 2.105 . S
O236 C228 1.268 . S
O237 Sc221 2.105 . S
O237 C227 1.268 . S
O238 Sc222 2.105 1_455 S
O238 C229 1.268 . S
O239 Sc220 2.105 . S
O239 C225 1.268 . S
O240 Sc222 2.105 . S
O240 C224 1.268 . S
O241 Sc221 2.105 . S
O241 C226 1.268 . S
Sc242 O245 2.025 . S
Sc242 O252 2.105 . S
Sc242 O255 2.105 . S
Sc242 O258 2.105 . S
Sc242 O261 2.105 1_455 S
Sc243 O245 2.025 . S
Sc243 O253 2.105 1_455 S
Sc243 O257 2.105 . S
Sc243 O259 2.105 . S
Sc243 O263 2.105 . S
Sc244 O245 2.025 . S
Sc244 O254 2.105 . S
Sc244 O256 2.105 . S
Sc244 O260 2.105 . S
Sc244 O262 2.105 . S
O245 Sc242 2.025 . S
O245 Sc243 2.025 . S
O245 Sc244 2.025 . S
C246 O252 1.268 . S
C246 O262 1.268 . S
C247 O253 1.268 . S
C247 O261 1.268 . S
C248 O254 1.268 . S
C248 O263 1.268 . S
C249 O255 1.268 . S
C249 O259 1.268 . S
C250 O256 1.268 . S
C250 O258 1.268 . S
C251 O257 1.268 . S
C251 O260 1.268 . S
O252 Sc242 2.105 . S
O252 C246 1.268 . S
O253 Sc243 2.105 1_655 S
O253 C247 1.268 . S
O254 Sc244 2.105 . S
O254 C248 1.268 . S
O255 Sc242 2.105 . S
O255 C249 1.268 . S
O256 Sc244 2.105 . S
O256 C250 1.268 . S
O257 Sc243 2.105 . S
O257 C251 1.268 . S
O258 Sc242 2.105 . S
O258 C250 1.268 . S
O259 Sc243 2.105 . S
O259 C249 1.268 . S
O260 Sc244 2.105 . S
O260 C251 1.268 . S
O261 Sc242 2.105 1_655 S
O261 C247 1.268 . S
O262 Sc244 2.105 . S
O262 C246 1.268 . S
O263 Sc243 2.105 . S
O263 C248 1.268 . S
Sc264 O267 2.025 . S
Sc264 O274 2.105 . S
Sc264 O277 2.105 1_455 S
Sc264 O280 2.105 . S
Sc264 O283 2.105 . S
Sc265 O267 2.025 . S
Sc265 O275 2.105 . S
Sc265 O279 2.105 . S
Sc265 O281 2.105 1_455 S
Sc265 O285 2.105 . S
Sc266 O267 2.025 . S
Sc266 O276 2.105 . S
Sc266 O278 2.105 . S
Sc266 O282 2.105 . S
Sc266 O284 2.105 . S
O267 Sc264 2.025 . S
O267 Sc265 2.025 . S
O267 Sc266 2.025 . S
C268 O274 1.268 . S
C268 O284 1.268 . S
C269 O275 1.268 . S
C269 O283 1.268 . S
C270 O276 1.268 . S
C270 O285 1.268 . S
C271 O277 1.268 . S
C271 O281 1.268 . S
C272 O278 1.268 . S
C272 O280 1.268 . S
C273 O279 1.268 . S
C273 O282 1.268 . S
O274 Sc264 2.105 . S
O274 C268 1.268 . S
O275 Sc265 2.105 . S
O275 C269 1.268 . S
O276 Sc266 2.105 . S
O276 C270 1.268 . S
O277 Sc264 2.105 1_655 S
O277 C271 1.268 . S
O278 Sc266 2.105 . S
O278 C272 1.268 . S
O279 Sc265 2.105 . S
O279 C273 1.268 . S
O280 Sc264 2.105 . S
O280 C272 1.268 . S
O281 Sc265 2.105 1_655 S
O281 C271 1.268 . S
O282 Sc266 2.105 . S
O282 C273 1.268 . S
O283 Sc264 2.105 . S
O283 C269 1.268 . S
O284 Sc266 2.105 . S
O284 C268 1.268 . S
O285 Sc265 2.105 . S
O285 C270 1.268 . S
Sc286 O289 2.025 . S
Sc286 O296 2.105 . S
Sc286 O299 2.105 . S
Sc286 O302 2.105 . S
Sc286 O305 2.105 . S
Sc287 O289 2.025 . S
Sc287 O297 2.105 . S
Sc287 O301 2.105 . S
Sc287 O303 2.105 . S
Sc287 O307 2.105 1_655 S
Sc288 O289 2.025 . S
Sc288 O298 2.105 1_655 S
Sc288 O300 2.105 . S
Sc288 O304 2.105 . S
Sc288 O306 2.105 . S
O289 Sc286 2.025 . S
O289 Sc287 2.025 . S
O289 Sc288 2.025 . S
C290 O296 1.268 . S
C290 O306 1.268 . S
C291 O297 1.268 . S
C291 O305 1.268 . S
C292 O298 1.268 . S
C292 O307 1.268 . S
C293 O299 1.268 . S
C293 O303 1.268 . S
C294 O300 1.268 . S
C294 O302 1.268 . S
C295 O301 1.268 . S
C295 O304 1.268 . S
O296 Sc286 2.105 . S
O296 C290 1.268 . S
O297 Sc287 2.105 . S
O297 C291 1.268 . S
O298 Sc288 2.105 1_455 S
O298 C292 1.268 . S
O299 Sc286 2.105 . S
O299 C293 1.268 . S
O300 Sc288 2.105 . S
O300 C294 1.268 . S
O301 Sc287 2.105 . S
O301 C295 1.268 . S
O302 Sc286 2.105 . S
O302 C294 1.268 . S
O303 Sc287 2.105 . S
O303 C293 1.268 . S
O304 Sc288 2.105 . S
O304 C295 1.268 . S
O305 Sc286 2.105 . S
O305 C291 1.268 . S
O306 Sc288 2.105 . S
O306 C290 1.268 . S
O307 Sc287 2.105 1_455 S
O307 C292 1.268 . S
Sc308 O311 2.025 . S
Sc308 O318 2.105 . S
Sc308 O321 2.105 1_455 S
Sc308 O324 2.105 . S
Sc308 O327 2.105 . S
Sc309 O311 2.025 . S
Sc309 O319 2.105 . S
Sc309 O323 2.105 . S
Sc309 O325 2.105 1_455 S
Sc309 O329 2.105 . S
Sc310 O311 2.025 . S
Sc310 O320 2.105 . S
Sc310 O322 2.105 . S
Sc310 O326 2.105 . S
Sc310 O328 2.105 . S
O311 Sc308 2.025 . S
O311 Sc309 2.025 . S
O311 Sc310 2.025 . S
C312 O318 1.268 . S
C312 O328 1.268 . S
C313 O319 1.268 . S
C313 O327 1.268 . S
C314 O320 1.268 . S
C314 O329 1.268 . S
C315 O321 1.268 . S
C315 O325 1.268 . S
C316 O322 1.268 . S
C316 O324 1.268 . S
C317 O323 1.268 . S
C317 O326 1.268 . S
O318 Sc308 2.105 . S
O318 C312 1.268 . S
O319 Sc309 2.105 . S
O319 C313 1.268 . S
O320 Sc310 2.105 . S
O320 C314 1.268 . S
O321 Sc308 2.105 1_655 S
O321 C315 1.268 . S
O322 Sc310 2.105 . S
O322 C316 1.268 . S
O323 Sc309 2.105 . S
O323 C317 1.268 . S
O324 Sc308 2.105 . S
O324 C316 1.268 . S
O325 Sc309 2.105 1_655 S
O325 C315 1.268 . S
O326 Sc310 2.105 . S
O326 C317 1.268 . S
O327 Sc308 2.105 . S
O327 C313 1.268 . S
O328 Sc310 2.105 . S
O328 C312 1.268 . S
O329 Sc309 2.105 . S
O329 C314 1.268 . S
Sc330 O333 2.025 . S
Sc330 O340 2.105 . S
Sc330 O343 2.105 1_655 S
Sc330 O346 2.105 . S
Sc330 O349 2.105 . S
Sc331 O333 2.025 . S
Sc331 O341 2.105 . S
Sc331 O345 2.105 . S
Sc331 O347 2.105 1_655 S
Sc331 O351 2.105 . S
Sc332 O333 2.025 . S
Sc332 O342 2.105 . S
Sc332 O344 2.105 . S
Sc332 O348 2.105 . S
Sc332 O350 2.105 . S
O333 Sc330 2.025 . S
O333 Sc331 2.025 . S
O333 Sc332 2.025 . S
C334 O340 1.268 . S
C334 O350 1.268 . S
C335 O341 1.268 . S
C335 O349 1.268 . S
C336 O342 1.268 . S
C336 O351 1.268 . S
C337 O343 1.268 . S
C337 O347 1.268 . S
C338 O344 1.268 . S
C338 O346 1.268 . S
C339 O345 1.268 . S
C339 O348 1.268 . S
O340 Sc330 2.105 . S
O340 C334 1.268 . S
O341 Sc331 2.105 . S
O341 C335 1.268 . S
O342 Sc332 2.105 . S
O342 C336 1.268 . S
O343 Sc330 2.105 1_455 S
O343 C337 1.268 . S
O344 Sc332 2.105 . S
O344 C338 1.268 . S
O345 Sc331 2.105 . S
O345 C339 1.268 . S
O346 Sc330 2.105 . S
O346 C338 1.268 . S
O347 Sc331 2.105 1_455 S
O347 C337 1.268 . S
O348 Sc332 2.105 . S
O348 C339 1.268 . S
O349 Sc330 2.105 . S
O349 C335 1.268 . S
O350 Sc332 2.105 . S
O350 C334 1.268 . S
O351 Sc331 2.105 . S
O351 C336 1.268 . S
H352 C358 0.930 . S
H353 C362 0.930 . S
H354 C367 0.929 . S
H355 C365 0.929 . S
H356 C360 0.929 . S
H357 C366 0.929 . S
C358 H352 0.930 . S
C358 C359 1.367 . S
C358 C366 1.378 . S
C359 C358 1.367 . S
C359 C367 1.433 1_545 S
C360 H356 0.929 . S
C360 C362 1.378 . S
C360 C364 1.350 . S
C361 C364 1.463 1_544 S
C361 C366 1.350 . S
C361 N369 1.427 1_545 S
C362 H353 0.930 . S
C362 C360 1.378 . S
C362 C363 1.367 . S
C363 C362 1.367 . S
C363 C365 1.433 1_565 S
C364 C360 1.350 . S
C364 C361 1.463 1_566 S
C364 N368 1.427 1_565 S
C365 H355 0.929 . S
C365 C363 1.433 1_545 S
C365 N368 1.384 . S
C366 H357 0.929 . S
C366 C358 1.378 . S
C366 C361 1.350 . S
C367 H354 0.929 . S
C367 C359 1.433 1_565 S
C367 N369 1.384 . S
N368 C364 1.427 1_545 S
N368 C365 1.384 . S
N369 C361 1.427 1_565 S
N369 C367 1.384 . S
H370 C376 0.930 . S
H371 C380 0.930 . S
H372 C385 0.929 . S
H373 C383 0.929 . S
H374 C378 0.929 . S
H375 C384 0.929 . S
C376 H370 0.930 . S
C376 C377 1.367 . S
C376 C384 1.378 . S
C377 C376 1.367 . S
C377 C385 1.433 . S
C378 H374 0.929 . S
C378 C380 1.378 . S
C378 C382 1.350 . S
C379 C382 1.463 1_554 S
C379 C384 1.350 . S
C379 N387 1.427 . S
C380 H371 0.930 . S
C380 C378 1.378 . S
C380 C381 1.367 . S
C381 C380 1.367 . S
C381 C383 1.433 . S
C382 C378 1.350 . S
C382 C379 1.463 1_556 S
C382 N386 1.427 . S
C383 H373 0.929 . S
C383 C381 1.433 . S
C383 N386 1.384 . S
C384 H375 0.929 . S
C384 C376 1.378 . S
C384 C379 1.350 . S
C385 H372 0.929 . S
C385 C377 1.433 . S
C385 N387 1.384 . S
N386 C382 1.427 . S
N386 C383 1.384 . S
N387 C379 1.427 . S
N387 C385 1.384 . S
H388 C394 0.930 . S
H389 C398 0.930 . S
H390 C403 0.929 . S
H391 C401 0.929 . S
H392 C396 0.929 . S
H393 C402 0.929 . S
C394 H388 0.930 . S
C394 C395 1.367 . S
C394 C402 1.378 . S
C395 C394 1.367 . S
C395 C403 1.433 . S
C396 H392 0.929 . S
C396 C398 1.378 . S
C396 C400 1.350 . S
C397 C400 1.463 1_565 S
C397 C402 1.350 . S
C397 N405 1.429 . S
C398 H389 0.930 . S
C398 C396 1.378 . S
C398 C399 1.367 . S
C399 C398 1.367 . S
C399 C401 1.433 . S
C400 C396 1.350 . S
C400 C397 1.463 1_545 S
C400 N404 1.429 . S
C401 H391 0.929 . S
C401 C399 1.433 . S
C401 N404 1.387 . S
C402 H393 0.929 . S
C402 C394 1.378 . S
C402 C397 1.350 . S
C403 H390 0.929 . S
C403 C395 1.433 . S
C403 N405 1.387 . S
N404 C400 1.429 . S
N404 C401 1.387 . S
N405 C397 1.429 . S
N405 C403 1.387 . S
H406 C412 0.930 . S
H407 C416 0.930 . S
H408 C421 0.929 . S
H409 C419 0.929 . S
H410 C414 0.929 . S
H411 C420 0.929 . S
C412 H406 0.930 . S
C412 C413 1.367 . S
C412 C420 1.378 . S
C413 C412 1.367 . S
C413 C421 1.433 . S
C414 H410 0.929 . S
C414 C416 1.378 . S
C414 C418 1.350 . S
C415 C418 1.463 . S
C415 C420 1.350 . S
C415 N423 1.427 . S
C416 H407 0.930 . S
C416 C414 1.378 . S
C416 C417 1.367 . S
C417 C416 1.367 . S
C417 C419 1.433 . S
C418 C414 1.350 . S
C418 C415 1.463 . S
C418 N422 1.427 . S
C419 H409 0.929 . S
C419 C417 1.433 . S
C419 N422 1.384 . S
C420 H411 0.929 . S
C420 C412 1.378 . S
C420 C415 1.350 . S
C421 H408 0.929 . S
C421 C413 1.433 . S
C421 N423 1.384 . S
N422 C418 1.427 . S
N422 C419 1.384 . S
N423 C415 1.427 . S
N423 C421 1.384 . S
H424 C430 0.930 . S
H425 C434 0.930 . S
H426 C439 0.929 . S
H427 C437 0.929 . S
H428 C432 0.929 1_655 S
H429 C438 0.929 1_455 S
C430 H424 0.930 . S
C430 C431 1.367 . S
C430 C438 1.378 . S
C431 C430 1.367 . S
C431 C439 1.433 . S
C432 H428 0.929 1_455 S
C432 C434 1.378 . S
C432 C436 1.350 . S
C433 C436 1.463 1_655 S
C433 C438 1.350 . S
C433 N441 1.427 . S
C434 H425 0.930 . S
C434 C432 1.378 . S
C434 C435 1.367 . S
C435 C434 1.367 . S
C435 C437 1.433 . S
C436 C432 1.350 . S
C436 C433 1.463 1_455 S
C436 N440 1.427 . S
C437 H427 0.929 . S
C437 C435 1.433 . S
C437 N440 1.384 . S
C438 H429 0.929 1_655 S
C438 C430 1.378 . S
C438 C433 1.350 . S
C439 H426 0.929 . S
C439 C431 1.433 . S
C439 N441 1.384 . S
N440 C436 1.427 . S
N440 C437 1.384 . S
N441 C433 1.427 . S
N441 C439 1.384 . S
H442 C448 0.930 . S
H443 C452 0.930 . S
H444 C457 0.929 . S
H445 C455 0.929 . S
H446 C450 0.929 . S
H447 C456 0.929 . S
C448 H442 0.930 . S
C448 C449 1.367 1_545 S
C448 C456 1.378 . S
C449 C448 1.367 1_565 S
C449 C457 1.433 . S
C450 H446 0.929 . S
C450 C452 1.378 . S
C450 C454 1.350 1_565 S
C451 C454 1.463 1_465 S
C451 C456 1.350 1_565 S
C451 N459 1.427 1_455 S
C452 H443 0.930 . S
C452 C450 1.378 . S
C452 C453 1.367 1_565 S
C453 C452 1.367 1_545 S
C453 C455 1.433 . S
C454 C450 1.350 1_545 S
C454 C451 1.463 1_645 S
C454 N458 1.427 1_655 S
C455 H445 0.929 . S
C455 C453 1.433 . S
C455 N458 1.384 1_655 S
C456 H447 0.929 . S
C456 C448 1.378 . S
C456 C451 1.350 1_545 S
C457 H444 0.929 . S
C457 C449 1.433 . S
C457 N459 1.384 1_455 S
N458 C454 1.427 1_455 S
N458 C455 1.384 1_455 S
N459 C451 1.427 1_655 S
N459 C457 1.384 1_655 S
H460 C466 0.930 . S
H461 C470 0.930 . S
H462 C475 0.929 . S
H463 C473 0.929 . S
H464 C468 0.929 . S
H465 C474 0.929 . S
C466 H460 0.930 . S
C466 C467 1.367 . S
C466 C474 1.378 . S
C467 C466 1.367 . S
C467 C475 1.433 . S
C468 H464 0.929 . S
C468 C470 1.378 . S
C468 C472 1.350 . S
C469 C472 1.463 1_656 S
C469 C474 1.350 . S
C469 N477 1.427 . S
C470 H461 0.930 . S
C470 C468 1.378 . S
C470 C471 1.367 . S
C471 C470 1.367 . S
C471 C473 1.433 . S
C472 C468 1.350 . S
C472 C469 1.463 1_454 S
C472 N476 1.427 . S
C473 H463 0.929 . S
C473 C471 1.433 . S
C473 N476 1.384 . S
C474 H465 0.929 . S
C474 C466 1.378 . S
C474 C469 1.350 . S
C475 H462 0.929 . S
C475 C467 1.433 . S
C475 N477 1.384 . S
N476 C472 1.427 . S
N476 C473 1.384 . S
N477 C469 1.427 . S
N477 C475 1.384 . S
H478 C484 0.930 . S
H479 C488 0.930 . S
H480 C493 0.929 . S
H481 C491 0.929 . S
H482 C486 0.929 . S
H483 C492 0.929 . S
C484 H478 0.930 . S
C484 C485 1.367 1_565 S
C484 C492 1.378 . S
C485 C484 1.367 1_545 S
C485 C493 1.433 . S
C486 H482 0.929 . S
C486 C488 1.378 . S
C486 C490 1.350 1_545 S
C487 C490 1.463 1_446 S
C487 C492 1.350 1_545 S
C487 N495 1.427 . S
C488 H479 0.930 . S
C488 C486 1.378 . S
C488 C489 1.367 1_545 S
C489 C488 1.367 1_565 S
C489 C491 1.433 . S
C490 C486 1.350 1_565 S
C490 C487 1.463 1_664 S
C490 N494 1.427 . S
C491 H481 0.929 . S
C491 C489 1.433 . S
C491 N494 1.384 . S
C492 H483 0.929 . S
C492 C484 1.378 . S
C492 C487 1.350 1_565 S
C493 H480 0.929 . S
C493 C485 1.433 . S
C493 N495 1.384 . S
N494 C490 1.427 . S
N494 C491 1.384 . S
N495 C487 1.427 . S
N495 C493 1.384 . S
H496 C502 0.930 . S
H497 C506 0.930 . S
H498 C511 0.929 . S
H499 C509 0.929 . S
H500 C504 0.929 . S
H501 C510 0.929 . S
C502 H496 0.930 . S
C502 C503 1.367 . S
C502 C510 1.378 . S
C503 C502 1.367 . S
C503 C511 1.433 . S
C504 H500 0.929 . S
C504 C506 1.378 . S
C504 C508 1.350 . S
C505 C508 1.463 1_545 S
C505 C510 1.350 . S
C505 N513 1.425 1_545 S
C506 H497 0.930 . S
C506 C504 1.378 . S
C506 C507 1.367 . S
C507 C506 1.367 . S
C507 C509 1.433 . S
C508 C504 1.350 . S
C508 C505 1.463 1_565 S
C508 N512 1.425 1_565 S
C509 H499 0.929 . S
C509 C507 1.433 . S
C509 N512 1.380 1_565 S
C510 H501 0.929 . S
C510 C502 1.378 . S
C510 C505 1.350 . S
C511 H498 0.929 . S
C511 C503 1.433 . S
C511 N513 1.380 1_545 S
N512 C508 1.425 1_545 S
N512 C509 1.380 1_545 S
N513 C505 1.425 1_565 S
N513 C511 1.380 1_565 S
H514 C520 0.930 . S
H515 C524 0.930 . S
H516 C529 0.929 . S
H517 C527 0.929 . S
H518 C522 0.929 . S
H519 C528 0.929 . S
C520 H514 0.930 . S
C520 C521 1.367 . S
C520 C528 1.378 . S
C521 C520 1.367 . S
C521 C529 1.433 . S
C522 H518 0.929 . S
C522 C524 1.378 . S
C522 C526 1.350 . S
C523 C526 1.463 . S
C523 C528 1.350 . S
C523 N531 1.427 . S
C524 H515 0.930 . S
C524 C522 1.378 . S
C524 C525 1.367 . S
C525 C524 1.367 . S
C525 C527 1.433 . S
C526 C522 1.350 . S
C526 C523 1.463 . S
C526 N530 1.427 . S
C527 H517 0.929 . S
C527 C525 1.433 . S
C527 N530 1.384 . S
C528 H519 0.929 . S
C528 C520 1.378 . S
C528 C523 1.350 . S
C529 H516 0.929 . S
C529 C521 1.433 . S
C529 N531 1.384 . S
N530 C526 1.427 . S
N530 C527 1.384 . S
N531 C523 1.427 . S
N531 C529 1.384 . S
H532 C538 0.930 . S
H533 C542 0.930 . S
H534 C547 0.929 . S
H535 C545 0.929 . S
H536 C540 0.929 . S
H537 C546 0.929 . S
C538 H532 0.930 . S
C538 C539 1.367 . S
C538 C546 1.378 1_565 S
C539 C538 1.367 . S
C539 C547 1.433 . S
C540 H536 0.929 . S
C540 C542 1.378 1_565 S
C540 C544 1.350 1_565 S
C541 C544 1.463 1_565 S
C541 C546 1.350 1_565 S
C541 N549 1.427 . S
C542 H533 0.930 . S
C542 C540 1.378 1_545 S
C542 C543 1.367 . S
C543 C542 1.367 . S
C543 C545 1.433 . S
C544 C540 1.350 1_545 S
C544 C541 1.463 1_545 S
C544 N548 1.427 . S
C545 H535 0.929 . S
C545 C543 1.433 . S
C545 N548 1.384 . S
C546 H537 0.929 . S
C546 C538 1.378 1_545 S
C546 C541 1.350 1_545 S
C547 H534 0.929 . S
C547 C539 1.433 . S
C547 N549 1.384 . S
N548 C544 1.427 . S
N548 C545 1.384 . S
N549 C541 1.427 . S
N549 C547 1.384 . S
H550 C556 0.930 . S
H551 C560 0.930 . S
H552 C565 0.929 . S
H553 C563 0.929 . S
H554 C558 0.929 . S
H555 C564 0.929 . S
C556 H550 0.930 . S
C556 C557 1.367 . S
C556 C564 1.378 . S
C557 C556 1.367 . S
C557 C565 1.433 . S
C558 H554 0.929 . S
C558 C560 1.378 . S
C558 C562 1.350 . S
C559 C562 1.463 . S
C559 C564 1.350 . S
C559 N567 1.427 . S
C560 H551 0.930 . S
C560 C558 1.378 . S
C560 C561 1.367 . S
C561 C560 1.367 . S
C561 C563 1.433 . S
C562 C558 1.350 . S
C562 C559 1.463 . S
C562 N566 1.427 . S
C563 H553 0.929 . S
C563 C561 1.433 . S
C563 N566 1.384 . S
C564 H555 0.929 . S
C564 C556 1.378 . S
C564 C559 1.350 . S
C565 H552 0.929 . S
C565 C557 1.433 . S
C565 N567 1.384 . S
N566 C562 1.427 . S
N566 C563 1.384 . S
N567 C559 1.427 . S
N567 C565 1.384 . S
H568 C574 0.930 . S
H569 C578 0.930 . S
H570 C583 0.929 . S
H571 C581 0.929 . S
H572 C576 0.929 . S
H573 C582 0.929 . S
C574 H568 0.930 . S
C574 C575 1.367 . S
C574 C582 1.378 . S
C575 C574 1.367 . S
C575 C583 1.433 . S
C576 H572 0.929 . S
C576 C578 1.378 . S
C576 C580 1.350 . S
C577 C580 1.463 . S
C577 C582 1.350 . S
C577 N585 1.427 . S
C578 H569 0.930 . S
C578 C576 1.378 . S
C578 C579 1.367 . S
C579 C578 1.367 . S
C579 C581 1.433 . S
C580 C576 1.350 . S
C580 C577 1.463 . S
C580 N584 1.427 . S
C581 H571 0.929 . S
C581 C579 1.433 . S
C581 N584 1.384 . S
C582 H573 0.929 . S
C582 C574 1.378 . S
C582 C577 1.350 . S
C583 H570 0.929 . S
C583 C575 1.433 . S
C583 N585 1.384 . S
N584 C580 1.427 . S
N584 C581 1.384 . S
N585 C577 1.427 . S
N585 C583 1.384 . S
H586 C592 0.930 . S
H587 C596 0.930 . S
H588 C601 0.929 . S
H589 C599 0.929 . S
H590 C594 0.944 . S
H591 C600 0.944 . S
C592 H586 0.930 . S
C592 C593 1.367 . S
C592 C600 1.368 1_545 S
C593 C592 1.367 . S
C593 C601 1.433 . S
C594 H590 0.944 . S
C594 C596 1.368 1_545 S
C594 C598 1.345 1_545 S
C595 C598 1.463 1_545 S
C595 C600 1.345 1_545 S
C595 N603 1.427 . S
C596 H587 0.930 . S
C596 C594 1.368 1_565 S
C596 C597 1.367 . S
C597 C596 1.367 . S
C597 C599 1.433 . S
C598 C594 1.345 1_565 S
C598 C595 1.463 1_565 S
C598 N602 1.427 . S
C599 H589 0.929 . S
C599 C597 1.433 . S
C599 N602 1.384 . S
C600 H591 0.944 . S
C600 C592 1.368 1_565 S
C600 C595 1.345 1_565 S
C601 H588 0.929 . S
C601 C593 1.433 . S
C601 N603 1.384 . S
N602 C598 1.427 . S
N602 C599 1.384 . S
N603 C595 1.427 . S
N603 C601 1.384 . S
H604 C610 0.930 . S
H605 C614 0.930 . S
H606 C619 0.929 . S
H607 C617 0.929 . S
H608 C612 0.929 . S
H609 C618 0.929 . S
C610 H604 0.930 . S
C610 C611 1.367 . S
C610 C618 1.378 . S
C611 C610 1.367 . S
C611 C619 1.433 . S
C612 H608 0.929 . S
C612 C614 1.378 . S
C612 C616 1.350 . S
C613 C616 1.463 . S
C613 C618 1.350 . S
C613 N621 1.427 . S
C614 H605 0.930 . S
C614 C612 1.378 . S
C614 C615 1.367 . S
C615 C614 1.367 . S
C615 C617 1.433 . S
C616 C612 1.350 . S
C616 C613 1.463 . S
C616 N620 1.427 . S
C617 H607 0.929 . S
C617 C615 1.433 . S
C617 N620 1.384 . S
C618 H609 0.929 . S
C618 C610 1.378 . S
C618 C613 1.350 . S
C619 H606 0.929 . S
C619 C611 1.433 . S
C619 N621 1.384 . S
N620 C616 1.427 . S
N620 C617 1.384 . S
N621 C613 1.427 . S
N621 C619 1.384 . S
H622 C628 0.930 . S
H623 C632 0.930 . S
H624 C637 0.929 . S
H625 C635 0.929 . S
H626 C630 0.929 . S
H627 C636 0.929 . S
C628 H622 0.930 . S
C628 C629 1.367 . S
C628 C636 1.378 . S
C629 C628 1.367 . S
C629 C637 1.433 . S
C630 H626 0.929 . S
C630 C632 1.378 . S
C630 C634 1.350 . S
C631 C634 1.463 1_545 S
C631 C636 1.350 . S
C631 N639 1.427 1_545 S
C632 H623 0.930 . S
C632 C630 1.378 . S
C632 C633 1.367 . S
C633 C632 1.367 . S
C633 C635 1.433 . S
C634 C630 1.350 . S
C634 C631 1.463 1_565 S
C634 N638 1.427 1_565 S
C635 H625 0.929 . S
C635 C633 1.433 . S
C635 N638 1.384 1_565 S
C636 H627 0.929 . S
C636 C628 1.378 . S
C636 C631 1.350 . S
C637 H624 0.929 . S
C637 C629 1.433 . S
C637 N639 1.384 1_545 S
N638 C634 1.427 1_545 S
N638 C635 1.384 1_545 S
N639 C631 1.427 1_565 S
N639 C637 1.384 1_565 S
H640 C646 0.930 . S
H641 C650 0.930 . S
H642 C655 0.929 . S
H643 C653 0.929 . S
H644 C648 0.929 1_554 S
H645 C654 0.929 1_556 S
C646 H640 0.930 . S
C646 C647 1.367 . S
C646 C654 1.378 . S
C647 C646 1.367 . S
C647 C655 1.433 . S
C648 H644 0.929 1_556 S
C648 C650 1.378 . S
C648 C652 1.350 . S
C649 C652 1.463 1_554 S
C649 C654 1.350 . S
C649 N657 1.427 . S
C650 H641 0.930 . S
C650 C648 1.378 . S
C650 C651 1.367 . S
C651 C650 1.367 . S
C651 C653 1.433 . S
C652 C648 1.350 . S
C652 C649 1.463 1_556 S
C652 N656 1.427 . S
C653 H643 0.929 . S
C653 C651 1.433 . S
C653 N656 1.384 . S
C654 H645 0.929 1_554 S
C654 C646 1.378 . S
C654 C649 1.350 . S
C655 H642 0.929 . S
C655 C647 1.433 . S
C655 N657 1.384 . S
N656 C652 1.427 . S
N656 C653 1.384 . S
N657 C649 1.427 . S
N657 C655 1.384 . S
H658 C664 0.930 . S
H659 C668 0.930 . S
H660 C673 0.929 . S
H661 C671 0.929 . S
H662 C666 0.929 1_556 S
H663 C672 0.929 1_554 S
C664 H658 0.930 . S
C664 C665 1.367 . S
C664 C672 1.378 . S
C665 C664 1.367 . S
C665 C673 1.433 . S
C666 H662 0.929 1_554 S
C666 C668 1.378 . S
C666 C670 1.350 . S
C667 C670 1.463 1_556 S
C667 C672 1.350 . S
C667 N675 1.427 . S
C668 H659 0.930 . S
C668 C666 1.378 . S
C668 C669 1.367 . S
C669 C668 1.367 . S
C669 C671 1.433 . S
C670 C666 1.350 . S
C670 C667 1.463 1_554 S
C670 N674 1.427 . S
C671 H661 0.929 . S
C671 C669 1.433 . S
C671 N674 1.384 . S
C672 H663 0.929 1_556 S
C672 C664 1.378 . S
C672 C667 1.350 . S
C673 H660 0.929 . S
C673 C665 1.433 . S
C673 N675 1.384 . S
N674 C670 1.427 . S
N674 C671 1.384 . S
N675 C667 1.427 . S
N675 C673 1.384 . S
H676 C682 0.930 . S
H677 C686 0.930 . S
H678 C691 0.929 . S
H679 C689 0.929 . S
H680 C684 0.929 . S
H681 C690 0.929 . S
C682 H676 0.930 . S
C682 C683 1.367 . S
C682 C690 1.378 . S
C683 C682 1.367 . S
C683 C691 1.433 . S
C684 H680 0.929 . S
C684 C686 1.378 . S
C684 C688 1.350 . S
C685 C688 1.463 . S
C685 C690 1.350 . S
C685 N693 1.427 . S
C686 H677 0.930 . S
C686 C684 1.378 . S
C686 C687 1.367 . S
C687 C686 1.367 . S
C687 C689 1.433 . S
C688 C684 1.350 . S
C688 C685 1.463 . S
C688 N692 1.427 . S
C689 H679 0.929 . S
C689 C687 1.433 . S
C689 N692 1.384 . S
C690 H681 0.929 . S
C690 C682 1.378 . S
C690 C685 1.350 . S
C691 H678 0.929 . S
C691 C683 1.433 . S
C691 N693 1.384 . S
N692 C688 1.427 . S
N692 C689 1.384 . S
N693 C685 1.427 . S
N693 C691 1.384 . S
H694 C700 0.930 . S
H695 C704 0.930 . S
H696 C709 0.929 . S
H697 C707 0.929 . S
H698 C702 0.929 . S
H699 C708 0.929 . S
C700 H694 0.930 . S
C700 C701 1.367 . S
C700 C708 1.378 . S
C701 C700 1.367 . S
C701 C709 1.433 . S
C702 H698 0.929 . S
C702 C704 1.378 . S
C702 C706 1.350 . S
C703 C706 1.463 . S
C703 C708 1.350 . S
C703 N711 1.427 . S
C704 H695 0.930 . S
C704 C702 1.378 . S
C704 C705 1.367 . S
C705 C704 1.367 . S
C705 C707 1.433 . S
C706 C702 1.350 . S
C706 C703 1.463 . S
C706 N710 1.427 . S
C707 H697 0.929 . S
C707 C705 1.433 . S
C707 N710 1.384 . S
C708 H699 0.929 . S
C708 C700 1.378 . S
C708 C703 1.350 . S
C709 H696 0.929 . S
C709 C701 1.433 . S
C709 N711 1.384 . S
N710 C706 1.427 . S
N710 C707 1.384 . S
N711 C703 1.427 . S
N711 C709 1.384 . S
H712 C718 0.930 . S
H713 C722 0.930 . S
H714 C727 0.929 . S
H715 C725 0.929 . S
H716 C720 0.929 . S
H717 C726 0.929 . S
C718 H712 0.930 . S
C718 C719 1.367 . S
C718 C726 1.378 . S
C719 C718 1.367 . S
C719 C727 1.433 . S
C720 H716 0.929 . S
C720 C722 1.378 . S
C720 C724 1.350 . S
C721 C724 1.463 1_556 S
C721 C726 1.350 . S
C721 N729 1.427 . S
C722 H713 0.930 . S
C722 C720 1.378 . S
C722 C723 1.367 . S
C723 C722 1.367 . S
C723 C725 1.433 . S
C724 C720 1.350 . S
C724 C721 1.463 1_554 S
C724 N728 1.427 . S
C725 H715 0.929 . S
C725 C723 1.433 . S
C725 N728 1.384 . S
C726 H717 0.929 . S
C726 C718 1.378 . S
C726 C721 1.350 . S
C727 H714 0.929 . S
C727 C719 1.433 . S
C727 N729 1.384 . S
N728 C724 1.427 . S
N728 C725 1.384 . S
N729 C721 1.427 . S
N729 C727 1.384 . S
H730 C736 0.930 . S
H731 C740 0.930 . S
H732 C745 0.929 . S
H733 C743 0.929 . S
H734 C738 0.929 . S
H735 C744 0.929 . S
C736 H730 0.930 . S
C736 C737 1.367 . S
C736 C744 1.378 . S
C737 C736 1.367 . S
C737 C745 1.433 . S
C738 H734 0.929 . S
C738 C740 1.378 . S
C738 C742 1.350 . S
C739 C742 1.463 1_556 S
C739 C744 1.350 . S
C739 N747 1.427 . S
C740 H731 0.930 . S
C740 C738 1.378 . S
C740 C741 1.367 . S
C741 C740 1.367 . S
C741 C743 1.433 . S
C742 C738 1.350 . S
C742 C739 1.463 1_554 S
C742 N746 1.427 . S
C743 H733 0.929 . S
C743 C741 1.433 . S
C743 N746 1.384 . S
C744 H735 0.929 . S
C744 C736 1.378 . S
C744 C739 1.350 . S
C745 H732 0.929 . S
C745 C737 1.433 . S
C745 N747 1.384 . S
N746 C742 1.427 . S
N746 C743 1.384 . S
N747 C739 1.427 . S
N747 C745 1.384 . S
H748 C754 0.930 . S
H749 C758 0.930 . S
H750 C763 0.929 . S
H751 C761 0.929 . S
H752 C756 0.929 . S
H753 C762 0.929 . S
C754 H748 0.930 . S
C754 C755 1.367 . S
C754 C762 1.378 . S
C755 C754 1.367 . S
C755 C763 1.433 . S
C756 H752 0.929 . S
C756 C758 1.378 . S
C756 C760 1.350 . S
C757 C760 1.463 . S
C757 C762 1.350 . S
C757 N765 1.427 . S
C758 H749 0.930 . S
C758 C756 1.378 . S
C758 C759 1.367 . S
C759 C758 1.367 . S
C759 C761 1.433 . S
C760 C756 1.350 . S
C760 C757 1.463 . S
C760 N764 1.427 . S
C761 H751 0.929 . S
C761 C759 1.433 . S
C761 N764 1.384 . S
C762 H753 0.929 . S
C762 C754 1.378 . S
C762 C757 1.350 . S
C763 H750 0.929 . S
C763 C755 1.433 . S
C763 N765 1.384 . S
N764 C760 1.427 . S
N764 C761 1.384 . S
N765 C757 1.427 . S
N765 C763 1.384 . S
H766 C772 0.930 . S
H767 C776 0.930 . S
H768 C781 0.929 . S
H769 C779 0.929 . S
H770 C774 0.929 . S
H771 C780 0.929 . S
C772 H766 0.930 . S
C772 C773 1.367 . S
C772 C780 1.378 . S
C773 C772 1.367 . S
C773 C781 1.433 . S
C774 H770 0.929 . S
C774 C776 1.378 . S
C774 C778 1.350 . S
C775 C778 1.463 . S
C775 C780 1.350 . S
C775 N783 1.427 . S
C776 H767 0.930 . S
C776 C774 1.378 . S
C776 C777 1.367 . S
C777 C776 1.367 . S
C777 C779 1.433 . S
C778 C774 1.350 . S
C778 C775 1.463 . S
C778 N782 1.427 . S
C779 H769 0.929 . S
C779 C777 1.433 . S
C779 N782 1.384 . S
C780 H771 0.929 . S
C780 C772 1.378 . S
C780 C775 1.350 . S
C781 H768 0.929 . S
C781 C773 1.433 . S
C781 N783 1.384 . S
N782 C778 1.427 . S
N782 C779 1.384 . S
N783 C775 1.427 . S
N783 C781 1.384 . S
H784 C790 0.930 . S
H785 C794 0.930 . S
H786 C799 0.929 . S
H787 C797 0.929 . S
H788 C792 0.929 . S
H789 C798 0.929 1_565 S
C790 H784 0.930 . S
C790 C791 1.367 . S
C790 C798 1.378 . S
C791 C790 1.367 . S
C791 C799 1.433 . S
C792 H788 0.929 . S
C792 C794 1.378 . S
C792 C796 1.350 . S
C793 C796 1.463 . S
C793 C798 1.350 . S
C793 N801 1.427 . S
C794 H785 0.930 . S
C794 C792 1.378 . S
C794 C795 1.367 1_545 S
C795 C794 1.367 1_565 S
C795 C797 1.433 . S
C796 C792 1.350 . S
C796 C793 1.463 . S
C796 N800 1.427 1_545 S
C797 H787 0.929 . S
C797 C795 1.433 . S
C797 N800 1.384 . S
C798 H789 0.929 1_545 S
C798 C790 1.378 . S
C798 C793 1.350 . S
C799 H786 0.929 . S
C799 C791 1.433 . S
C799 N801 1.384 . S
N800 C796 1.427 1_565 S
N800 C797 1.384 . S
N801 C793 1.427 . S
N801 C799 1.384 . S
H802 C808 0.930 . S
H803 C812 0.930 . S
H804 C817 0.929 . S
H805 C815 0.929 . S
H806 C810 0.929 . S
H807 C816 0.929 . S
C808 H802 0.930 . S
C808 C809 1.367 . S
C808 C816 1.378 . S
C809 C808 1.367 . S
C809 C817 1.433 . S
C810 H806 0.929 . S
C810 C812 1.378 . S
C810 C814 1.350 . S
C811 C814 1.463 . S
C811 C816 1.350 . S
C811 N819 1.427 . S
C812 H803 0.930 . S
C812 C810 1.378 . S
C812 C813 1.367 . S
C813 C812 1.367 . S
C813 C815 1.433 . S
C814 C810 1.350 . S
C814 C811 1.463 . S
C814 N818 1.427 . S
C815 H805 0.929 . S
C815 C813 1.433 . S
C815 N818 1.384 . S
C816 H807 0.929 . S
C816 C808 1.378 . S
C816 C811 1.350 . S
C817 H804 0.929 . S
C817 C809 1.433 . S
C817 N819 1.384 . S
N818 C814 1.427 . S
N818 C815 1.384 . S
N819 C811 1.427 . S
N819 C817 1.384 . S
H820 C826 0.930 . S
H821 C830 0.930 . S
H822 C835 0.929 . S
H823 C833 0.929 . S
H824 C828 0.929 . S
H825 C834 0.929 . S
C826 H820 0.930 . S
C826 C827 1.367 . S
C826 C834 1.378 . S
C827 C826 1.367 . S
C827 C835 1.433 . S
C828 H824 0.929 . S
C828 C830 1.378 1_565 S
C828 C832 1.350 . S
C829 C832 1.463 . S
C829 C834 1.350 . S
C829 N837 1.427 . S
C830 H821 0.930 . S
C830 C828 1.378 1_545 S
C830 C831 1.367 . S
C831 C830 1.367 . S
C831 C833 1.433 . S
C832 C828 1.350 . S
C832 C829 1.463 . S
C832 N836 1.427 . S
C833 H823 0.929 . S
C833 C831 1.433 . S
C833 N836 1.384 1_545 S
C834 H825 0.929 . S
C834 C826 1.378 . S
C834 C829 1.350 . S
C835 H822 0.929 . S
C835 C827 1.433 . S
C835 N837 1.384 . S
N836 C832 1.427 . S
N836 C833 1.384 1_565 S
N837 C829 1.427 . S
N837 C835 1.384 . S
H838 C844 0.930 . S
H839 C848 0.930 . S
H840 C853 0.929 . S
H841 C851 0.929 . S
H842 C846 0.929 . S
H843 C852 0.929 . S
C844 H838 0.930 . S
C844 C845 1.367 . S
C844 C852 1.378 . S
C845 C844 1.367 . S
C845 C853 1.433 . S
C846 H842 0.929 . S
C846 C848 1.378 . S
C846 C850 1.350 . S
C847 C850 1.463 . S
C847 C852 1.350 . S
C847 N855 1.427 . S
C848 H839 0.930 . S
C848 C846 1.378 . S
C848 C849 1.367 . S
C849 C848 1.367 . S
C849 C851 1.433 . S
C850 C846 1.350 . S
C850 C847 1.463 . S
C850 N854 1.427 . S
C851 H841 0.929 . S
C851 C849 1.433 . S
C851 N854 1.384 . S
C852 H843 0.929 . S
C852 C844 1.378 . S
C852 C847 1.350 . S
C853 H840 0.929 . S
C853 C845 1.433 . S
C853 N855 1.384 . S
N854 C850 1.427 . S
N854 C851 1.384 . S
N855 C847 1.427 . S
N855 C853 1.384 . S
H856 C862 0.930 . S
H857 C866 0.930 . S
H858 C871 0.929 . S
H859 C869 0.929 . S
H860 C864 0.929 . S
H861 C870 0.929 . S
C862 H856 0.930 . S
C862 C863 1.367 . S
C862 C870 1.378 . S
C863 C862 1.367 . S
C863 C871 1.433 1_545 S
C864 H860 0.929 . S
C864 C866 1.378 . S
C864 C868 1.350 . S
C865 C868 1.463 . S
C865 C870 1.350 1_565 S
C865 N873 1.427 . S
C866 H857 0.930 . S
C866 C864 1.378 . S
C866 C867 1.367 . S
C867 C866 1.367 . S
C867 C869 1.433 . S
C868 C864 1.350 . S
C868 C865 1.463 . S
C868 N872 1.427 . S
C869 H859 0.929 . S
C869 C867 1.433 . S
C869 N872 1.384 . S
C870 H861 0.929 . S
C870 C862 1.378 . S
C870 C865 1.350 1_545 S
C871 H858 0.929 . S
C871 C863 1.433 1_565 S
C871 N873 1.384 . S
N872 C868 1.427 . S
N872 C869 1.384 . S
N873 C865 1.427 . S
N873 C871 1.384 . S
H874 C880 0.930 . S
H875 C884 0.930 . S
H876 C889 0.929 . S
H877 C887 0.929 . S
H878 C882 0.929 . S
H879 C888 0.929 . S
C880 H874 0.930 . S
C880 C881 1.367 . S
C880 C888 1.378 . S
C881 C880 1.367 . S
C881 C889 1.433 . S
C882 H878 0.929 . S
C882 C884 1.378 . S
C882 C886 1.350 . S
C883 C886 1.463 . S
C883 C888 1.350 . S
C883 N891 1.427 . S
C884 H875 0.930 . S
C884 C882 1.378 . S
C884 C885 1.367 . S
C885 C884 1.367 . S
C885 C887 1.433 . S
C886 C882 1.350 . S
C886 C883 1.463 . S
C886 N890 1.427 . S
C887 H877 0.929 . S
C887 C885 1.433 . S
C887 N890 1.384 . S
C888 H879 0.929 . S
C888 C880 1.378 . S
C888 C883 1.350 . S
C889 H876 0.929 . S
C889 C881 1.433 . S
C889 N891 1.384 . S
N890 C886 1.427 . S
N890 C887 1.384 . S
N891 C883 1.427 . S
N891 C889 1.384 . S
H892 C898 0.930 . S
H893 C902 0.930 . S
H894 C907 0.929 . S
H895 C905 0.929 . S
H896 C900 0.929 . S
H897 C906 0.929 . S
C898 H892 0.930 . S
C898 C899 1.367 . S
C898 C906 1.378 . S
C899 C898 1.367 . S
C899 C907 1.433 1_565 S
C900 H896 0.929 . S
C900 C902 1.378 . S
C900 C904 1.350 . S
C901 C904 1.463 . S
C901 C906 1.350 1_545 S
C901 N909 1.427 . S
C902 H893 0.930 . S
C902 C900 1.378 . S
C902 C903 1.367 . S
C903 C902 1.367 . S
C903 C905 1.433 . S
C904 C900 1.350 . S
C904 C901 1.463 . S
C904 N908 1.427 . S
C905 H895 0.929 . S
C905 C903 1.433 . S
C905 N908 1.384 . S
C906 H897 0.929 . S
C906 C898 1.378 . S
C906 C901 1.350 1_565 S
C907 H894 0.929 . S
C907 C899 1.433 1_545 S
C907 N909 1.384 . S
N908 C904 1.427 . S
N908 C905 1.384 . S
N909 C901 1.427 . S
N909 C907 1.384 . S
H910 C916 0.930 . S
H911 C920 0.930 . S
H912 C925 0.929 . S
H913 C923 0.929 . S
H914 C918 0.929 . S
H915 C924 0.929 . S
C916 H910 0.930 . S
C916 C917 1.367 . S
C916 C924 1.378 . S
C917 C916 1.367 . S
C917 C925 1.433 . S
C918 H914 0.929 . S
C918 C920 1.378 . S
C918 C922 1.350 . S
C919 C922 1.463 . S
C919 C924 1.350 . S
C919 N927 1.427 . S
C920 H911 0.930 . S
C920 C918 1.378 . S
C920 C921 1.367 . S
C921 C920 1.367 . S
C921 C923 1.433 . S
C922 C918 1.350 . S
C922 C919 1.463 . S
C922 N926 1.427 . S
C923 H913 0.929 . S
C923 C921 1.433 . S
C923 N926 1.384 . S
C924 H915 0.929 . S
C924 C916 1.378 . S
C924 C919 1.350 . S
C925 H912 0.929 . S
C925 C917 1.433 . S
C925 N927 1.384 . S
N926 C922 1.427 . S
N926 C923 1.384 . S
N927 C919 1.427 . S
N927 C925 1.384 . S
H928 C934 0.930 . S
H929 C938 0.930 . S
H930 C943 0.929 . S
H931 C941 0.929 . S
H932 C936 0.929 . S
H933 C942 0.929 . S
C934 H928 0.930 . S
C934 C935 1.367 . S
C934 C942 1.378 . S
C935 C934 1.367 . S
C935 C943 1.433 . S
C936 H932 0.929 . S
C936 C938 1.378 . S
C936 C940 1.350 . S
C937 C940 1.463 . S
C937 C942 1.350 . S
C937 N945 1.427 . S
C938 H929 0.930 . S
C938 C936 1.378 . S
C938 C939 1.367 . S
C939 C938 1.367 . S
C939 C941 1.433 . S
C940 C936 1.350 . S
C940 C937 1.463 . S
C940 N944 1.427 . S
C941 H931 0.929 . S
C941 C939 1.433 . S
C941 N944 1.384 . S
C942 H933 0.929 . S
C942 C934 1.378 . S
C942 C937 1.350 . S
C943 H930 0.929 . S
C943 C935 1.433 . S
C943 N945 1.384 . S
N944 C940 1.427 . S
N944 C941 1.384 . S
N945 C937 1.427 . S
N945 C943 1.384 . S
H946 C952 0.930 . S
H947 C956 0.930 . S
H948 C961 0.929 . S
H949 C959 0.929 . S
H950 C954 0.929 . S
H951 C960 0.929 . S
C952 H946 0.930 . S
C952 C953 1.367 1_565 S
C952 C960 1.378 . S
C953 C952 1.367 1_545 S
C953 C961 1.433 . S
C954 H950 0.929 . S
C954 C956 1.378 . S
C954 C958 1.350 . S
C955 C958 1.463 . S
C955 C960 1.350 . S
C955 N963 1.427 1_565 S
C956 H947 0.930 . S
C956 C954 1.378 . S
C956 C957 1.367 . S
C957 C956 1.367 . S
C957 C959 1.433 . S
C958 C954 1.350 . S
C958 C955 1.463 . S
C958 N962 1.427 . S
C959 H949 0.929 . S
C959 C957 1.433 . S
C959 N962 1.384 . S
C960 H951 0.929 . S
C960 C952 1.378 . S
C960 C955 1.350 . S
C961 H948 0.929 . S
C961 C953 1.433 . S
C961 N963 1.384 . S
N962 C958 1.427 . S
N962 C959 1.384 . S
N963 C955 1.427 1_545 S
N963 C961 1.384 . S
H964 C970 0.930 . S
H965 C974 0.930 . S
H966 C979 0.929 . S
H967 C977 0.929 . S
H968 C972 0.929 . S
H969 C978 0.929 . S
C970 H964 0.930 . S
C970 C971 1.367 . S
C970 C978 1.378 . S
C971 C970 1.367 . S
C971 C979 1.433 . S
C972 H968 0.929 . S
C972 C974 1.378 . S
C972 C976 1.350 . S
C973 C976 1.463 . S
C973 C978 1.350 . S
C973 N981 1.427 . S
C974 H965 0.930 . S
C974 C972 1.378 . S
C974 C975 1.367 . S
C975 C974 1.367 . S
C975 C977 1.433 . S
C976 C972 1.350 . S
C976 C973 1.463 . S
C976 N980 1.427 . S
C977 H967 0.929 . S
C977 C975 1.433 . S
C977 N980 1.384 . S
C978 H969 0.929 . S
C978 C970 1.378 . S
C978 C973 1.350 . S
C979 H966 0.929 . S
C979 C971 1.433 . S
C979 N981 1.384 . S
N980 C976 1.427 . S
N980 C977 1.384 . S
N981 C973 1.427 . S
N981 C979 1.384 . S
H982 C988 0.930 . S
H983 C992 0.930 . S
H984 C997 0.929 . S
H985 C995 0.929 . S
H986 C990 0.929 . S
H987 C996 0.929 . S
C988 H982 0.930 . S
C988 C989 1.367 . S
C988 C996 1.378 . S
C989 C988 1.367 . S
C989 C997 1.433 . S
C990 H986 0.929 . S
C990 C992 1.378 1_545 S
C990 C994 1.350 . S
C991 C994 1.463 . S
C991 C996 1.350 . S
C991 N999 1.427 . S
C992 H983 0.930 . S
C992 C990 1.378 1_565 S
C992 C993 1.367 . S
C993 C992 1.367 . S
C993 C995 1.433 . S
C994 C990 1.350 . S
C994 C991 1.463 . S
C994 N998 1.427 . S
C995 H985 0.929 . S
C995 C993 1.433 . S
C995 N998 1.384 1_565 S
C996 H987 0.929 . S
C996 C988 1.378 . S
C996 C991 1.350 . S
C997 H984 0.929 . S
C997 C989 1.433 . S
C997 N999 1.384 . S
N998 C994 1.427 . S
N998 C995 1.384 1_545 S
N999 C991 1.427 . S
N999 C997 1.384 . S
H1000 C1006 0.930 . S
H1001 C1010 0.930 . S
H1002 C1015 0.929 . S
H1003 C1013 0.929 . S
H1004 C1008 0.929 . S
H1005 C1014 0.929 . S
C1006 H1000 0.930 . S
C1006 C1007 1.367 . S
C1006 C1014 1.378 . S
C1007 C1006 1.367 . S
C1007 C1015 1.433 . S
C1008 H1004 0.929 . S
C1008 C1010 1.378 . S
C1008 C1012 1.350 . S
C1009 C1012 1.463 . S
C1009 C1014 1.350 . S
C1009 N1017 1.427 . S
C1010 H1001 0.930 . S
C1010 C1008 1.378 . S
C1010 C1011 1.367 . S
C1011 C1010 1.367 . S
C1011 C1013 1.433 . S
C1012 C1008 1.350 . S
C1012 C1009 1.463 . S
C1012 N1016 1.427 . S
C1013 H1003 0.929 . S
C1013 C1011 1.433 . S
C1013 N1016 1.384 . S
C1014 H1005 0.929 . S
C1014 C1006 1.378 . S
C1014 C1009 1.350 . S
C1015 H1002 0.929 . S
C1015 C1007 1.433 . S
C1015 N1017 1.384 . S
N1016 C1012 1.427 . S
N1016 C1013 1.384 . S
N1017 C1009 1.427 . S
N1017 C1015 1.384 . S
H1018 C1024 0.930 . S
H1019 C1028 0.930 . S
H1020 C1033 0.929 . S
H1021 C1031 0.929 . S
H1022 C1026 0.929 . S
H1023 C1032 0.929 . S
C1024 H1018 0.930 . S
C1024 C1025 1.367 . S
C1024 C1032 1.378 . S
C1025 C1024 1.367 . S
C1025 C1033 1.433 1_565 S
C1026 H1022 0.929 . S
C1026 C1028 1.378 . S
C1026 C1030 1.350 . S
C1027 C1030 1.463 . S
C1027 C1032 1.350 1_545 S
C1027 N1035 1.427 . S
C1028 H1019 0.930 . S
C1028 C1026 1.378 . S
C1028 C1029 1.367 . S
C1029 C1028 1.367 . S
C1029 C1031 1.433 . S
C1030 C1026 1.350 . S
C1030 C1027 1.463 . S
C1030 N1034 1.427 . S
C1031 H1021 0.929 . S
C1031 C1029 1.433 . S
C1031 N1034 1.384 . S
C1032 H1023 0.929 . S
C1032 C1024 1.378 . S
C1032 C1027 1.350 1_565 S
C1033 H1020 0.929 . S
C1033 C1025 1.433 1_545 S
C1033 N1035 1.384 . S
N1034 C1030 1.427 . S
N1034 C1031 1.384 . S
N1035 C1027 1.427 . S
N1035 C1033 1.384 . S
H1036 C1042 0.930 . S
H1037 C1046 0.930 . S
H1038 C1051 0.929 . S
H1039 C1049 0.929 . S
H1040 C1044 0.929 . S
H1041 C1050 0.929 . S
C1042 H1036 0.930 . S
C1042 C1043 1.367 . S
C1042 C1050 1.378 . S
C1043 C1042 1.367 . S
C1043 C1051 1.433 . S
C1044 H1040 0.929 . S
C1044 C1046 1.378 . S
C1044 C1048 1.350 . S
C1045 C1048 1.463 . S
C1045 C1050 1.350 . S
C1045 N1053 1.427 . S
C1046 H1037 0.930 . S
C1046 C1044 1.378 . S
C1046 C1047 1.367 . S
C1047 C1046 1.367 . S
C1047 C1049 1.433 . S
C1048 C1044 1.350 . S
C1048 C1045 1.463 . S
C1048 N1052 1.427 . S
C1049 H1039 0.929 . S
C1049 C1047 1.433 . S
C1049 N1052 1.384 . S
C1050 H1041 0.929 . S
C1050 C1042 1.378 . S
C1050 C1045 1.350 . S
C1051 H1038 0.929 . S
C1051 C1043 1.433 . S
C1051 N1053 1.384 . S
N1052 C1048 1.427 . S
N1052 C1049 1.384 . S
N1053 C1045 1.427 . S
N1053 C1051 1.384 . S
H1054 C1060 0.930 . S
H1055 C1064 0.930 . S
H1056 C1069 0.929 . S
H1057 C1067 0.929 . S
H1058 C1062 0.929 1_545 S
H1059 C1068 0.929 . S
C1060 H1054 0.930 . S
C1060 C1061 1.367 1_565 S
C1060 C1068 1.378 . S
C1061 C1060 1.367 1_545 S
C1061 C1069 1.433 . S
C1062 H1058 0.929 1_565 S
C1062 C1064 1.378 . S
C1062 C1066 1.350 . S
C1063 C1066 1.463 . S
C1063 C1068 1.350 . S
C1063 N1071 1.427 1_565 S
C1064 H1055 0.930 . S
C1064 C1062 1.378 . S
C1064 C1065 1.367 . S
C1065 C1064 1.367 . S
C1065 C1067 1.433 . S
C1066 C1062 1.350 . S
C1066 C1063 1.463 . S
C1066 N1070 1.427 . S
C1067 H1057 0.929 . S
C1067 C1065 1.433 . S
C1067 N1070 1.384 . S
C1068 H1059 0.929 . S
C1068 C1060 1.378 . S
C1068 C1063 1.350 . S
C1069 H1056 0.929 . S
C1069 C1061 1.433 . S
C1069 N1071 1.384 . S
N1070 C1066 1.427 . S
N1070 C1067 1.384 . S
N1071 C1063 1.427 1_545 S
N1071 C1069 1.384 . S
H1072 C1078 0.930 . S
H1073 C1082 0.930 . S
H1074 C1087 0.929 . S
H1075 C1085 0.929 . S
H1076 C1080 0.929 . S
H1077 C1086 0.929 . S
C1078 H1072 0.930 . S
C1078 C1079 1.367 . S
C1078 C1086 1.378 . S
C1079 C1078 1.367 . S
C1079 C1087 1.433 . S
C1080 H1076 0.929 . S
C1080 C1082 1.378 . S
C1080 C1084 1.350 . S
C1081 C1084 1.463 . S
C1081 C1086 1.350 . S
C1081 N1089 1.427 . S
C1082 H1073 0.930 . S
C1082 C1080 1.378 . S
C1082 C1083 1.367 . S
C1083 C1082 1.367 . S
C1083 C1085 1.433 . S
C1084 C1080 1.350 . S
C1084 C1081 1.463 . S
C1084 N1088 1.427 . S
C1085 H1075 0.929 . S
C1085 C1083 1.433 . S
C1085 N1088 1.384 . S
C1086 H1077 0.929 . S
C1086 C1078 1.378 . S
C1086 C1081 1.350 . S
C1087 H1074 0.929 . S
C1087 C1079 1.433 . S
C1087 N1089 1.384 . S
N1088 C1084 1.427 . S
N1088 C1085 1.384 . S
N1089 C1081 1.427 . S
N1089 C1087 1.384 . S
H1090 C1096 0.930 . S
H1091 C1100 0.930 . S
H1092 C1105 0.929 . S
H1093 C1103 0.929 . S
H1094 C1098 0.929 . S
H1095 C1104 0.929 . S
C1096 H1090 0.930 . S
C1096 C1097 1.367 . S
C1096 C1104 1.378 . S
C1097 C1096 1.367 . S
C1097 C1105 1.433 . S
C1098 H1094 0.929 . S
C1098 C1100 1.378 . S
C1098 C1102 1.350 . S
C1099 C1102 1.463 . S
C1099 C1104 1.350 . S
C1099 N1107 1.427 . S
C1100 H1091 0.930 . S
C1100 C1098 1.378 . S
C1100 C1101 1.367 . S
C1101 C1100 1.367 . S
C1101 C1103 1.433 . S
C1102 C1098 1.350 . S
C1102 C1099 1.463 . S
C1102 N1106 1.427 . S
C1103 H1093 0.929 . S
C1103 C1101 1.433 . S
C1103 N1106 1.384 . S
C1104 H1095 0.929 . S
C1104 C1096 1.378 . S
C1104 C1099 1.350 . S
C1105 H1092 0.929 . S
C1105 C1097 1.433 . S
C1105 N1107 1.384 . S
N1106 C1102 1.427 . S
N1106 C1103 1.384 . S
N1107 C1099 1.427 . S
N1107 C1105 1.384 . S
H1108 C1114 0.930 . S
H1109 C1118 0.930 . S
H1110 C1123 0.929 . S
H1111 C1121 0.929 . S
H1112 C1116 0.929 . S
H1113 C1122 0.929 . S
C1114 H1108 0.930 . S
C1114 C1115 1.367 . S
C1114 C1122 1.378 . S
C1115 C1114 1.367 . S
C1115 C1123 1.433 . S
C1116 H1112 0.929 . S
C1116 C1118 1.378 . S
C1116 C1120 1.350 . S
C1117 C1120 1.463 . S
C1117 C1122 1.350 . S
C1117 N1125 1.427 . S
C1118 H1109 0.930 . S
C1118 C1116 1.378 . S
C1118 C1119 1.367 . S
C1119 C1118 1.367 . S
C1119 C1121 1.433 . S
C1120 C1116 1.350 . S
C1120 C1117 1.463 . S
C1120 N1124 1.427 . S
C1121 H1111 0.929 . S
C1121 C1119 1.433 . S
C1121 N1124 1.384 . S
C1122 H1113 0.929 . S
C1122 C1114 1.378 . S
C1122 C1117 1.350 . S
C1123 H1110 0.929 . S
C1123 C1115 1.433 . S
C1123 N1125 1.384 . S
N1124 C1120 1.427 . S
N1124 C1121 1.384 . S
N1125 C1117 1.427 . S
N1125 C1123 1.384 . S
H1126 C1132 0.930 . S
H1127 C1136 0.930 . S
H1128 C1141 0.929 . S
H1129 C1139 0.929 . S
H1130 C1134 0.929 . S
H1131 C1140 0.929 . S
C1132 H1126 0.930 . S
C1132 C1133 1.367 . S
C1132 C1140 1.378 . S
C1133 C1132 1.367 . S
C1133 C1141 1.433 . S
C1134 H1130 0.929 . S
C1134 C1136 1.378 . S
C1134 C1138 1.350 . S
C1135 C1138 1.463 . S
C1135 C1140 1.350 . S
C1135 N1143 1.427 . S
C1136 H1127 0.930 . S
C1136 C1134 1.378 . S
C1136 C1137 1.367 . S
C1137 C1136 1.367 . S
C1137 C1139 1.433 . S
C1138 C1134 1.350 . S
C1138 C1135 1.463 . S
C1138 N1142 1.427 . S
C1139 H1129 0.929 . S
C1139 C1137 1.433 . S
C1139 N1142 1.384 . S
C1140 H1131 0.929 . S
C1140 C1132 1.378 . S
C1140 C1135 1.350 . S
C1141 H1128 0.929 . S
C1141 C1133 1.433 . S
C1141 N1143 1.384 . S
N1142 C1138 1.427 . S
N1142 C1139 1.384 . S
N1143 C1135 1.427 . S
N1143 C1141 1.384 . S
H1144 C1150 0.930 . S
H1145 C1154 0.930 . S
H1146 C1159 0.929 . S
H1147 C1157 0.929 . S
H1148 C1152 0.929 . S
H1149 C1158 0.929 . S
C1150 H1144 0.930 . S
C1150 C1151 1.367 . S
C1150 C1158 1.378 . S
C1151 C1150 1.367 . S
C1151 C1159 1.433 . S
C1152 H1148 0.929 . S
C1152 C1154 1.378 . S
C1152 C1156 1.350 . S
C1153 C1156 1.463 1_455 S
C1153 C1158 1.350 . S
C1153 N1161 1.427 1_455 S
C1154 H1145 0.930 . S
C1154 C1152 1.378 . S
C1154 C1155 1.367 . S
C1155 C1154 1.367 . S
C1155 C1157 1.433 . S
C1156 C1152 1.350 . S
C1156 C1153 1.463 1_655 S
C1156 N1160 1.427 1_655 S
C1157 H1147 0.929 . S
C1157 C1155 1.433 . S
C1157 N1160 1.384 1_655 S
C1158 H1149 0.929 . S
C1158 C1150 1.378 . S
C1158 C1153 1.350 . S
C1159 H1146 0.929 . S
C1159 C1151 1.433 . S
C1159 N1161 1.384 1_455 S
N1160 C1156 1.427 1_455 S
N1160 C1157 1.384 1_455 S
N1161 C1153 1.427 1_655 S
N1161 C1159 1.384 1_655 S
H1162 C1168 0.930 . S
H1163 C1172 0.930 . S
H1164 C1177 0.923 1_455 S
H1165 C1175 0.923 1_655 S
H1166 C1170 0.929 . S
H1167 C1176 0.929 . S
C1168 H1162 0.930 . S
C1168 C1169 1.367 . S
C1168 C1176 1.378 . S
C1169 C1168 1.367 . S
C1169 C1177 1.445 . S
C1170 H1166 0.929 . S
C1170 C1172 1.378 . S
C1170 C1174 1.350 . S
C1171 C1174 1.463 1_655 S
C1171 C1176 1.350 . S
C1171 N1179 1.427 1_655 S
C1172 H1163 0.930 . S
C1172 C1170 1.378 . S
C1172 C1173 1.367 . S
C1173 C1172 1.367 . S
C1173 C1175 1.445 . S
C1174 C1170 1.350 . S
C1174 C1171 1.463 1_455 S
C1174 N1178 1.427 1_455 S
C1175 H1165 0.923 1_455 S
C1175 C1173 1.445 . S
C1175 N1178 1.379 1_455 S
C1176 H1167 0.929 . S
C1176 C1168 1.378 . S
C1176 C1171 1.350 . S
C1177 H1164 0.923 1_655 S
C1177 C1169 1.445 . S
C1177 N1179 1.379 1_655 S
N1178 C1174 1.427 1_655 S
N1178 C1175 1.379 1_655 S
N1179 C1171 1.427 1_455 S
N1179 C1177 1.379 1_455 S
H1180 C1186 0.930 . S
H1181 C1190 0.930 . S
H1182 C1195 0.929 . S
H1183 C1193 0.929 . S
H1184 C1188 0.929 . S
H1185 C1194 0.929 . S
C1186 H1180 0.930 . S
C1186 C1187 1.367 . S
C1186 C1194 1.378 . S
C1187 C1186 1.367 . S
C1187 C1195 1.433 . S
C1188 H1184 0.929 . S
C1188 C1190 1.378 . S
C1188 C1192 1.350 . S
C1189 C1192 1.463 1_655 S
C1189 C1194 1.350 . S
C1189 N1197 1.427 . S
C1190 H1181 0.930 . S
C1190 C1188 1.378 . S
C1190 C1191 1.367 . S
C1191 C1190 1.367 . S
C1191 C1193 1.433 . S
C1192 C1188 1.350 . S
C1192 C1189 1.463 1_455 S
C1192 N1196 1.427 . S
C1193 H1183 0.929 . S
C1193 C1191 1.433 . S
C1193 N1196 1.384 . S
C1194 H1185 0.929 . S
C1194 C1186 1.378 . S
C1194 C1189 1.350 . S
C1195 H1182 0.929 . S
C1195 C1187 1.433 . S
C1195 N1197 1.384 . S
N1196 C1192 1.427 . S
N1196 C1193 1.384 . S
N1197 C1189 1.427 . S
N1197 C1195 1.384 . S
H1198 C1204 0.930 . S
H1199 C1208 0.930 . S
H1200 C1213 0.929 1_455 S
H1201 C1211 0.929 1_655 S
H1202 C1206 0.929 . S
H1203 C1212 0.929 . S
C1204 H1198 0.930 . S
C1204 C1205 1.367 . S
C1204 C1212 1.378 . S
C1205 C1204 1.367 . S
C1205 C1213 1.433 . S
C1206 H1202 0.929 . S
C1206 C1208 1.378 . S
C1206 C1210 1.350 . S
C1207 C1210 1.463 1_655 S
C1207 C1212 1.350 . S
C1207 N1215 1.427 1_655 S
C1208 H1199 0.930 . S
C1208 C1206 1.378 . S
C1208 C1209 1.367 . S
C1209 C1208 1.367 . S
C1209 C1211 1.433 . S
C1210 C1206 1.350 . S
C1210 C1207 1.463 1_455 S
C1210 N1214 1.427 1_455 S
C1211 H1201 0.929 1_455 S
C1211 C1209 1.433 . S
C1211 N1214 1.384 1_455 S
C1212 H1203 0.929 . S
C1212 C1204 1.378 . S
C1212 C1207 1.350 . S
C1213 H1200 0.929 1_655 S
C1213 C1205 1.433 . S
C1213 N1215 1.384 1_655 S
N1214 C1210 1.427 1_655 S
N1214 C1211 1.384 1_655 S
N1215 C1207 1.427 1_455 S
N1215 C1213 1.384 1_455 S
C359 C6 0.881 . S
C363 C93 0.881 . S
C377 C28 0.866 . S
C381 C119 0.866 . S
C395 C50 0.893 . S
C399 C137 0.893 . S
C413 C73 0.898 . S
C417 C159 0.898 . S
C431 C182 0.868 . S
C435 C269 0.868 . S
C449 C204 0.899 . S
C453 C295 0.899 . S
C467 C226 0.898 . S
C471 C313 0.898 . S
C485 C249 0.898 . S
C489 C335 0.898 . S
C503 C7 1.813 . S
C507 C51 1.817 . S
C521 C29 1.802 . S
C525 C72 1.807 . S
C539 C97 1.801 . S
C543 C141 1.805 . S
C557 C115 1.806 . S
C561 C163 1.812 . S
C575 C227 1.808 . S
C579 C183 1.814 . S
C593 C248 1.805 . S
C597 C205 1.801 . S
C611 C273 1.802 . S
C615 C317 1.806 . S
C629 C291 1.813 . S
C633 C339 1.817 . S
C647 C4 1.905 . S
C651 C250 1.908 . S
C665 C224 1.907 . S
C669 C26 1.906 . S
C683 C48 1.908 . S
C687 C202 1.905 . S
C701 C74 1.908 . S
C705 C180 1.906 . S
C719 C92 1.908 . S
C723 C334 1.905 . S
C737 C118 1.905 . S
C741 C312 1.909 . S
C755 C294 1.906 . S
C759 C136 1.909 . S
C773 C158 1.905 . S
C777 C268 1.908 . S
C791 C9 1.236 . S
C795 C336 1.285 . S
C809 C31 1.245 . S
C813 C314 1.279 . S
C827 C53 1.229 . S
C831 C293 1.275 . S
C845 C71 1.245 . S
C849 C270 1.281 . S
C863 C251 1.280 . S
C867 C95 1.245 . S
C881 C225 1.275 . S
C885 C116 1.230 . S
C899 C203 1.275 . S
C903 C139 1.237 . S
C917 C161 1.242 . S
C921 C181 1.285 . S
C935 C160 1.283 . S
C939 C185 1.244 . S
C953 C138 1.276 . S
C957 C207 1.226 . S
C971 C117 1.281 . S
C975 C229 1.245 . S
C989 C247 1.227 . S
C993 C94 1.275 . S
C1007 C271 1.234 . S
C1011 C75 1.274 . S
C1025 C49 1.274 . S
C1029 C292 1.233 . S
C1043 C315 1.227 . S
C1047 C27 1.275 . S
C1061 C5 1.284 . S
C1065 C337 1.231 . S
C1079 C8 1.443 . S
C1083 C30 1.431 . S
C1097 C70 1.442 . S
C1101 C52 1.428 . S
C1115 C96 1.441 . S
C1119 C114 1.428 . S
C1133 C162 1.436 . S
C1137 C140 1.429 . S
C1151 C206 1.428 . S
C1155 C184 1.440 . S
C1169 C228 1.428 . S
C1173 C246 1.439 . S
C1187 C290 1.429 . S
C1191 C272 1.442 . S
C1205 C338 1.440 . S
C1209 C316 1.428 . S
