# Generated by pormake.
# Topology uof, (4)-cn, num edge types: 1
# Building blocks:
#     Node 0, Type 0, BuildingBlock: AZAVOO_clean_sbu_0, # of connection points: 4
#     Node 1, Type 0, BuildingBlock: AZAVOO_clean_sbu_0, # of connection points: 4
#     Node 2, Type 0, BuildingBlock: AZAVOO_clean_sbu_0, # of connection points: 4
#     Node 3, Type 0, BuildingBlock: AZAVOO_clean_sbu_0, # of connection points: 4
#     Node 4, Type 0, BuildingBlock: AZAVOO_clean_sbu_0, # of connection points: 4
#     Node 5, Type 0, BuildingBlock: AZAVOO_clean_sbu_0, # of connection points: 4
#     Node 6, Type 0, BuildingBlock: AZAVOO_clean_sbu_0, # of connection points: 4
#     Node 7, Type 0, BuildingBlock: AZAVOO_clean_sbu_0, # of connection points: 4
#     Node 8, Type 0, BuildingBlock: AZAVOO_clean_sbu_0, # of connection points: 4
#     Node 9, Type 0, BuildingBlock: AZAVOO_clean_sbu_0, # of connection points: 4
#     Node 10, Type 0, BuildingBlock: AZAVOO_clean_sbu_0, # of connection points: 4
#     Node 11, Type 0, BuildingBlock: AZAVOO_clean_sbu_0, # of connection points: 4
#     Edge 12, Type (0, 0), BuildingBlock: ZUJKAS_clean_linker_0, # of connection points: 2
#     Edge 13, Type (0, 0), BuildingBlock: ZUJKAS_clean_linker_0, # of connection points: 2
#     Edge 14, Type (0, 0), BuildingBlock: ZUJKAS_clean_linker_0, # of connection points: 2
#     Edge 15, Type (0, 0), BuildingBlock: ZUJKAS_clean_linker_0, # of connection points: 2
#     Edge 16, Type (0, 0), BuildingBlock: ZUJKAS_clean_linker_0, # of connection points: 2
#     Edge 17, Type (0, 0), BuildingBlock: ZUJKAS_clean_linker_0, # of connection points: 2
#     Edge 18, Type (0, 0), BuildingBlock: ZUJKAS_clean_linker_0, # of connection points: 2
#     Edge 19, Type (0, 0), BuildingBlock: ZUJKAS_clean_linker_0, # of connection points: 2
#     Edge 20, Type (0, 0), BuildingBlock: ZUJKAS_clean_linker_0, # of connection points: 2
#     Edge 21, Type (0, 0), BuildingBlock: ZUJKAS_clean_linker_0, # of connection points: 2
#     Edge 22, Type (0, 0), BuildingBlock: ZUJKAS_clean_linker_0, # of connection points: 2
#     Edge 23, Type (0, 0), BuildingBlock: ZUJKAS_clean_linker_0, # of connection points: 2
#     Edge 24, Type (0, 0), BuildingBlock: ZUJKAS_clean_linker_0, # of connection points: 2
#     Edge 25, Type (0, 0), BuildingBlock: ZUJKAS_clean_linker_0, # of connection points: 2
#     Edge 26, Type (0, 0), BuildingBlock: ZUJKAS_clean_linker_0, # of connection points: 2
#     Edge 27, Type (0, 0), BuildingBlock: ZUJKAS_clean_linker_0, # of connection points: 2
#     Edge 28, Type (0, 0), BuildingBlock: ZUJKAS_clean_linker_0, # of connection points: 2
#     Edge 29, Type (0, 0), BuildingBlock: ZUJKAS_clean_linker_0, # of connection points: 2
#     Edge 30, Type (0, 0), BuildingBlock: ZUJKAS_clean_linker_0, # of connection points: 2
#     Edge 31, Type (0, 0), BuildingBlock: ZUJKAS_clean_linker_0, # of connection points: 2
#     Edge 32, Type (0, 0), BuildingBlock: ZUJKAS_clean_linker_0, # of connection points: 2
#     Edge 33, Type (0, 0), BuildingBlock: ZUJKAS_clean_linker_0, # of connection points: 2
#     Edge 34, Type (0, 0), BuildingBlock: ZUJKAS_clean_linker_0, # of connection points: 2
#     Edge 35, Type (0, 0), BuildingBlock: ZUJKAS_clean_linker_0, # of connection points: 2
# Relax obj value: 0.251
# Max RMSD: 0.197
# Mean RMSD: 0.197
data_MOF--net-uof--node1-AZAVOO_clean_sbu_0--edge1-ZUJKAS_clean_linker_0
_symmetry_space_group_name_H-M    P1
_symmetry_Int_Tables_number       1
_symmetry_cell_setting            triclinic
loop_
_symmetry_equiv_pos_as_xyz
'x, y, z'
_cell_length_a     41.028242
_cell_length_b     41.005064
_cell_length_c     80.224006
_cell_angle_alpha  89.997538
_cell_angle_beta   90.001191
_cell_angle_gamma 119.95988
loop_
_atom_site_label
_atom_site_type_symbol
_atom_site_fract_x
_atom_site_fract_y
_atom_site_fract_z
_atom_type_partial_charge
Mg0 Mg 0.26321 0.35253 0.21196 0.0
O1 O 0.28616 0.31475 0.2033 0.0
O2 O 0.34721 0.3416 0.20967 0.0
Mg3 Mg 0.362 0.39497 0.22437 0.0
C4 C 0.31737 0.31495 0.20315 0.0
C5 C 0.17616 0.30961 0.20968 0.0
O6 O 0.1821 0.33942 0.21823 0.0
O7 O 0.25961 0.33072 0.23855 0.0
O8 O 0.32081 0.35767 0.24469 0.0
O9 O 0.28393 0.38474 0.18812 0.0
O10 O 0.31708 0.39907 0.21144 0.0
C11 C 0.28622 0.33654 0.24856 0.0
C12 C 0.3156 0.40491 0.19577 0.0
O13 O 0.20409 0.30591 0.20568 0.0
Mg14 Mg 0.88367 0.25272 0.55349 0.0
O15 O 0.94287 0.27497 0.54322 0.0
O16 O 0.97897 0.33618 0.54888 0.0
Mg17 Mg 0.94313 0.35181 0.56521 0.0
C18 C 0.97409 0.30577 0.54224 0.0
C19 C 0.87464 0.18719 0.53154 0.0
O20 O 0.88702 0.21511 0.52083 0.0
O21 O 0.90579 0.24914 0.57929 0.0
O22 O 0.94166 0.31048 0.58483 0.0
O23 O 0.86966 0.27393 0.53038 0.0
O24 O 0.89194 0.30711 0.5535 0.0
C25 C 0.92849 0.27596 0.5888 0.0
C26 C 0.88308 0.30585 0.53804 0.0
O27 O 0.87024 0.19332 0.54669 0.0
Mg28 Mg 0.64719 0.90398 0.88079 0.0
O29 O 0.68434 0.9647 0.87199 0.0
O30 O 0.65681 0.99831 0.87845 0.0
Mg31 Mg 0.60368 0.95959 0.89326 0.0
C32 C 0.68362 0.99547 0.87186 0.0
C33 C 0.70593 0.89499 0.85979 0.0
O34 O 0.69192 0.90758 0.84841 0.0
O35 O 0.66963 0.92305 0.90733 0.0
O36 O 0.64135 0.95611 0.91342 0.0
O37 O 0.61418 0.89211 0.85702 0.0
O38 O 0.60031 0.91097 0.88039 0.0
C39 C 0.66311 0.94339 0.91735 0.0
C40 C 0.59414 0.90364 0.86476 0.0
O41 O 0.69406 0.89125 0.8747 0.0
Mg42 Mg 0.7392 0.65014 0.20989 0.0
O43 O 0.71683 0.68806 0.20056 0.0
O44 O 0.65598 0.6618 0.20732 0.0
Mg45 Mg 0.64069 0.609 0.22257 0.0
C46 C 0.68564 0.68797 0.20046 0.0
C47 C 0.82155 0.68223 0.2019 0.0
O48 O 0.80914 0.64658 0.2053 0.0
O49 O 0.74362 0.6742 0.23611 0.0
O50 O 0.68254 0.64717 0.24246 0.0
O51 O 0.7178 0.61622 0.18647 0.0
O52 O 0.68511 0.60405 0.20982 0.0
C53 C 0.71717 0.66867 0.24617 0.0
C54 C 0.68622 0.59691 0.19429 0.0
O55 O 0.79895 0.69479 0.20322 0.0
Mg56 Mg 0.09056 0.73599 0.54804 0.0
O57 O 0.03213 0.71629 0.53688 0.0
O58 O 0.99373 0.65589 0.5435 0.0
Mg59 Mg 0.02586 0.63916 0.56144 0.0
C60 C 0.00026 0.68604 0.53602 0.0
C61 C 0.13791 0.81213 0.53061 0.0
O62 O 0.15521 0.79362 0.52649 0.0
O63 O 0.06928 0.74395 0.57332 0.0
O64 O 0.02842 0.68371 0.57949 0.0
O65 O 0.10301 0.71054 0.52593 0.0
O66 O 0.07862 0.68049 0.54958 0.0
C67 C 0.0441 0.71885 0.58272 0.0
C68 C 0.08784 0.67946 0.53435 0.0
O69 O 0.10915 0.79615 0.53999 0.0
Mg70 Mg 0.35674 0.09323 0.87946 0.0
O71 O 0.31888 0.03281 0.87056 0.0
O72 O 0.34523 0.99816 0.87709 0.0
Mg73 Mg 0.39869 0.03615 0.8919 0.0
C74 C 0.31886 0.00167 0.87043 0.0
C75 C 0.29948 0.10436 0.85831 0.0
O76 O 0.31395 0.09244 0.84685 0.0
O77 O 0.33405 0.07425 0.90599 0.0
O78 O 0.36183 0.04072 0.91213 0.0
O79 O 0.38996 0.10471 0.85573 0.0
O80 O 0.40304 0.08531 0.87915 0.0
C81 C 0.34048 0.05391 0.91605 0.0
C82 C 0.40955 0.09274 0.86355 0.0
O83 O 0.31054 0.10695 0.87331 0.0
Mg84 Mg 0.65455 0.74822 0.44695 0.0
O85 O 0.69206 0.72473 0.45534 0.0
O86 O 0.66488 0.66364 0.44891 0.0
Mg87 Mg 0.61166 0.64932 0.43423 0.0
C88 C 0.69164 0.6934 0.45543 0.0
C89 C 0.71362 0.81293 0.4684 0.0
O90 O 0.70111 0.78408 0.4786 0.0
O91 O 0.6768 0.75236 0.42034 0.0
O92 O 0.64897 0.6911 0.41421 0.0
O93 O 0.62221 0.72691 0.47078 0.0
O94 O 0.60809 0.69418 0.44738 0.0
C95 C 0.6704 0.72561 0.41028 0.0
C96 C 0.60246 0.69523 0.4631 0.0
O97 O 0.7009 0.80749 0.45359 0.0
Mg98 Mg 0.90922 0.64599 0.78631 0.0
O99 O 0.96959 0.68394 0.79546 0.0
O100 O 0.00433 0.65759 0.78912 0.0
Mg101 Mg 0.96711 0.60514 0.77369 0.0
C102 C 0.00064 0.68381 0.79582 0.0
C103 C 0.90027 0.70416 0.80765 0.0
O104 O 0.9151 0.6914 0.81855 0.0
O105 O 0.9281 0.66917 0.75987 0.0
O106 O 0.96353 0.64338 0.75381 0.0
O107 O 0.89755 0.61234 0.80984 0.0
O108 O 0.91746 0.59988 0.78639 0.0
C109 C 0.94976 0.6643 0.74998 0.0
C110 C 0.90979 0.59303 0.80197 0.0
O111 O 0.89503 0.69173 0.79279 0.0
Mg112 Mg 0.26625 0.90863 0.11548 0.0
O113 O 0.28775 0.9681 0.12578 0.0
O114 O 0.34848 0.00404 0.11906 0.0
Mg115 Mg 0.36412 0.96882 0.10245 0.0
C116 C 0.31869 -0.0006 0.12626 0.0
C117 C 0.18669 0.8586 0.12788 0.0
O118 O 0.20172 0.83683 0.128 0.0
O119 O 0.26046 0.92944 0.08973 0.0
O120 O 0.32124 0.96618 0.08337 0.0
O121 O 0.28898 0.89556 0.13831 0.0
O122 O 0.32089 0.91804 0.11489 0.0
C123 C 0.28639 0.95224 0.0799 0.0
C124 C 0.32052 0.9093 0.13032 0.0
O125 O 0.20643 0.89225 0.12274 0.0
Mg126 Mg 0.33827 0.26672 0.45315 0.0
O127 O 0.29463 0.28129 0.46347 0.0
O128 O 0.3117 0.33994 0.45533 0.0
Mg129 Mg 0.3636 0.36159 0.4389 0.0
C130 C 0.2897 0.30974 0.46321 0.0
C131 C 0.31546 0.19059 0.46958 0.0
O132 O 0.35104 0.21117 0.47379 0.0
O133 O 0.3106 0.25657 0.42736 0.0
O134 O 0.32682 0.31558 0.42032 0.0
O135 O 0.3744 0.29301 0.47573 0.0
O136 O 0.37759 0.32403 0.45268 0.0
C137 C 0.30983 0.28033 0.41731 0.0
C138 C 0.3876 0.32477 0.46797 0.0
O139 O 0.30075 0.2052 0.46049 0.0
Mg140 Mg 0.09059 0.34903 0.78587 0.0
O141 O 0.03096 0.31305 0.79615 0.0
O142 O 0.99704 0.3406 0.79037 0.0
Mg143 Mg 0.03405 0.39211 0.77432 0.0
C144 C 0.00044 0.31415 0.79701 0.0
C145 C 0.10003 0.29104 0.80713 0.0
O146 O 0.08695 0.30501 0.8183 0.0
O147 O 0.06817 0.3243 0.75993 0.0
O148 O 0.03425 0.352 0.7545 0.0
O149 O 0.10554 0.38412 0.80912 0.0
O150 O 0.08407 0.39619 0.78605 0.0
C151 C 0.0463 0.32976 0.75044 0.0
C152 C 0.09331 0.40368 0.80147 0.0
O153 O 0.10381 0.30254 0.79215 0.0
Mg154 Mg 0.74491 0.09894 0.1165 0.0
O155 O 0.71994 0.03868 0.12624 0.0
O156 O 0.65874 0.00559 0.12001 0.0
Mg157 Mg 0.64584 0.04397 0.10407 0.0
C158 C 0.68816 0.00835 0.12681 0.0
C159 C 0.8091 0.1048 0.13853 0.0
O160 O 0.78044 0.09022 0.14888 0.0
O161 O 0.74819 0.07756 0.09044 0.0
O162 O 0.68684 0.04476 0.08448 0.0
O163 O 0.72436 0.11337 0.1397 0.0
O164 O 0.69161 0.09322 0.11637 0.0
C165 C 0.72117 0.05654 0.08064 0.0
C166 C 0.69288 0.10167 0.13188 0.0
O167 O 0.80366 0.11081 0.12351 0.0
H168 H 0.87512 0.13805 0.12089 0.0
H169 H 0.93902 0.16588 0.13205 0.0
H170 H 0.89406 0.13049 0.18155 0.0
H171 H 0.83028 0.10199 0.17051 0.0
H172 H 0.96932 0.22318 0.15411 0.0
H173 H 0.97461 0.10112 0.18041 0.0
H174 H 0.93847 0.0959 0.16601 0.0
H175 H 0.93486 0.10401 0.18781 0.0
C176 C 0.87882 0.13557 0.13411 0.0
C177 C 0.8476 0.11791 0.14482 0.0
C178 C 0.91535 0.1515 0.14046 0.0
C179 C 0.92132 0.1499 0.15761 0.0
C180 C 0.89017 0.13133 0.16824 0.0
H181 H 0.11078 0.31014 0.21545 0.0
H182 H 0.0493 0.26971 0.20275 0.0
C183 C 0.85368 0.11528 0.1619 0.0
C184 C 0.95985 0.1708 0.16462 0.0
H185 H 0.02193 0.16216 0.19002 0.0
C186 C 0.98097 0.20974 0.16181 0.0
C187 C 0.97517 0.15321 0.17455 0.0
C188 C 0.95475 0.11119 0.17724 0.0
C189 C 0.0165 0.23178 0.16906 0.0
C190 C 0.03095 0.21451 0.1797 0.0
C191 C 0.01047 0.17539 0.18207 0.0
C192 C 0.06733 0.23681 0.18843 0.0
C193 C 0.03831 0.27335 0.16521 0.0
C194 C 0.09737 0.23061 0.18513 0.0
C195 C 0.13251 0.2535 0.19247 0.0
C196 C 0.13814 0.28293 0.20327 0.0
C197 C 0.1075 0.28797 0.20708 0.0
C198 C 0.07239 0.26502 0.19977 0.0
H199 H 0.02821 0.28012 0.15357 0.0
H200 H 0.03462 0.28914 0.17557 0.0
H201 H 0.06882 0.28336 0.16389 0.0
H202 H 0.09391 0.20879 0.17651 0.0
H203 H 0.15548 0.24876 0.18932 0.0
H204 H 0.87152 0.16357 0.4995 0.0
H205 H 0.84995 0.0996 0.48973 0.0
H206 H 0.83345 0.06038 0.54059 0.0
H207 H 0.85405 0.12425 0.55049 0.0
H208 H 0.87502 0.04991 0.49494 0.0
H209 H 0.73073 0.99318 0.52034 0.0
H210 H 0.76394 0.04295 0.51927 0.0
H211 H 0.7672 0.01486 0.5357 0.0
C212 C 0.86339 0.14139 0.50863 0.0
C213 C 0.86403 0.1489 0.52577 0.0
C214 C 0.85115 0.10485 0.50302 0.0
C215 C 0.83943 0.07513 0.51442 0.0
C216 C 0.8415 0.08276 0.53157 0.0
H217 H 0.73902 0.83393 0.50021 0.0
H218 H 0.77378 0.89779 0.51141 0.0
C219 C 0.85344 0.11929 0.53721 0.0
C220 C 0.82411 0.03611 0.50825 0.0
H221 H 0.74505 0.94934 0.50819 0.0
C222 C 0.84663 0.02789 0.49784 0.0
C223 C 0.78695 0.0075 0.51198 0.0
C224 C 0.76063 0.01503 0.5223 0.0
C225 C 0.833 0.99172 0.49115 0.0
C226 C 0.79593 0.96325 0.49491 0.0
C227 C 0.77358 0.97131 0.50544 0.0
C228 C 0.77907 0.92505 0.4877 0.0
C229 C 0.8583 0.98407 0.48019 0.0
C230 C 0.77096 0.91936 0.4706 0.0
C231 C 0.75088 0.88287 0.46414 0.0
C232 C 0.73856 0.8515 0.47471 0.0
C233 C 0.74803 0.85744 0.49173 0.0
C234 C 0.7679 0.89389 0.49817 0.0
H235 H 0.88828 0.00638 0.48137 0.0
H236 H 0.85568 0.95648 0.48333 0.0
H237 H 0.84975 0.98295 0.46699 0.0
H238 H 0.77892 0.94311 0.46237 0.0
H239 H 0.74403 0.87925 0.45099 0.0
H240 H 0.74197 0.86946 0.88019 0.0
H241 H 0.78223 0.84398 0.87187 0.0
H242 H 0.76946 0.86497 0.82027 0.0
H243 H 0.72999 0.89122 0.82847 0.0
H244 H 0.76128 0.78261 0.85265 0.0
H245 H 0.88151 0.90575 0.8228 0.0
H246 H 0.84781 0.91001 0.83573 0.0
H247 H 0.83699 0.89563 0.8143 0.0
C248 C 0.7482 0.86918 0.86708 0.0
C249 C 0.73274 0.88236 0.85499 0.0
C250 C 0.77121 0.85461 0.86235 0.0
C251 C 0.7793 0.85302 0.84546 0.0
C252 C 0.76442 0.86674 0.8334 0.0
H253 H 0.86778 0.73565 0.78851 0.0
H254 H 0.84085 0.77392 0.79808 0.0
C255 C 0.74159 0.88151 0.83811 0.0
C256 C 0.80063 0.8342 0.84037 0.0
H257 H 0.87596 0.84567 0.81751 0.0
C258 C 0.7866 0.79656 0.84513 0.0
C259 C 0.83359 0.85237 0.83049 0.0
C260 C 0.85109 0.89328 0.82567 0.0
C261 C 0.80406 0.77633 0.83996 0.0
C262 C 0.83662 0.79432 0.82988 0.0
C263 C 0.85091 0.83201 0.82521 0.0
C264 C 0.85576 0.77401 0.82394 0.0
C265 C 0.78702 0.73554 0.84494 0.0
C266 C 0.87382 0.76226 0.83528 0.0
C267 C 0.88928 0.74049 0.82987 0.0
C268 C 0.88689 0.73004 0.81302 0.0
C269 C 0.86994 0.74305 0.80159 0.0
C270 C 0.8546 0.76496 0.80701 0.0
H271 H 0.75809 0.72393 0.84997 0.0
H272 H 0.78608 0.71817 0.83413 0.0
H273 H 0.80472 0.73298 0.85473 0.0
H274 H 0.87535 0.76937 0.84837 0.0
H275 H 0.90231 0.73115 0.839 0.0
H276 H 0.87487 0.66217 0.19701 0.0
H277 H 0.93631 0.69906 0.18385 0.0
H278 H 0.91687 0.79252 0.17813 0.0
H279 H 0.85504 0.75575 0.19141 0.0
H280 H 0.94636 0.73041 0.15046 0.0
H281 H 0.02456 0.83864 0.19921 0.0
H282 H 0.98272 0.79447 0.20392 0.0
H283 H 0.97891 0.83075 0.19316 0.0
C284 C 0.88371 0.6907 0.19314 0.0
C285 C 0.86 0.70599 0.19522 0.0
C286 C 0.91883 0.71171 0.1856 0.0
C287 C 0.9311 0.74848 0.1801 0.0
C288 C 0.908 0.76429 0.18248 0.0
H289 H 0.14827 0.89708 0.13155 0.0
H290 H 0.08475 0.87291 0.14291 0.0
C291 C 0.87269 0.74321 0.19002 0.0
C292 C 0.96726 0.76915 0.17109 0.0
H293 H 0.05783 0.84106 0.17488 0.0
C294 C 0.97068 0.7548 0.15572 0.0
C295 C 0.99871 0.80114 0.17793 0.0
C296 C 0.9964 0.81723 0.1945 0.0
C297 C 0.00506 0.77101 0.1472 0.0
C298 C 0.03701 0.80191 0.1544 0.0
C299 C 0.03326 0.81728 0.16943 0.0
C300 C 0.075 0.81664 0.14718 0.0
C301 C 0.00697 0.75467 0.13061 0.0
C302 C 0.09057 0.79308 0.14599 0.0
C303 C 0.12664 0.8067 0.13954 0.0
C304 C 0.14802 0.84428 0.13422 0.0
C305 C 0.13243 0.86794 0.13546 0.0
C306 C 0.09623 0.85424 0.14197 0.0
H307 H 0.97889 0.73946 0.12455 0.0
H308 H 0.02692 0.77696 0.12202 0.0
H309 H 0.01684 0.73422 0.1326 0.0
H310 H 0.07494 0.76418 0.15026 0.0
H311 H 0.13784 0.78776 0.13885 0.0
H312 H 0.24117 0.13982 0.46336 0.0
H313 H 0.20434 0.07533 0.47399 0.0
H314 H 0.30207 0.08829 0.50002 0.0
H315 H 0.33891 0.1526 0.48964 0.0
H316 H 0.21711 0.01491 0.46951 0.0
H317 H 0.22126 0.04985 0.53647 0.0
H318 H 0.23302 0.08431 0.52015 0.0
H319 H 0.26701 0.07167 0.52701 0.0
C320 C 0.25478 0.12897 0.4714 0.0
C321 C 0.29295 0.15142 0.47571 0.0
C322 C 0.23369 0.09215 0.47746 0.0
C323 C 0.25032 0.07731 0.48803 0.0
C324 C 0.28847 0.0995 0.49219 0.0
H325 H 0.19787 0.85279 0.51013 0.0
H326 H 0.22094 0.91632 0.49949 0.0
C327 C 0.30955 0.1362 0.48614 0.0
C328 C 0.22838 0.03818 0.4943 0.0
H329 H 0.20326 0.98598 0.53003 0.0
C330 C 0.21367 0.00855 0.48274 0.0
C331 C 0.2234 0.02996 0.51155 0.0
C332 C 0.23666 0.06062 0.52452 0.0
C333 C 0.19563 0.97087 0.48799 0.0
C334 C 0.19277 0.96273 0.50525 0.0
C335 C 0.20588 0.9923 0.51681 0.0
C336 C 0.17799 0.92387 0.51154 0.0
C337 C 0.18004 0.94013 0.47502 0.0
C338 C 0.14671 0.90736 0.52221 0.0
C339 C 0.13352 0.87099 0.52843 0.0
C340 C 0.15162 0.85068 0.52417 0.0
C341 C 0.18314 0.86752 0.5136 0.0
C342 C 0.19624 0.90377 0.50739 0.0
H343 H 0.17437 0.95011 0.46308 0.0
H344 H 0.20094 0.93107 0.47252 0.0
H345 H 0.15361 0.91528 0.47939 0.0
H346 H 0.13244 0.92257 0.52567 0.0
H347 H 0.10922 0.85885 0.53658 0.0
H348 H 0.27775 0.11127 0.82692 0.0
H349 H 0.23854 0.13805 0.81891 0.0
H350 H 0.22139 0.15313 0.87074 0.0
H351 H 0.26134 0.12718 0.87888 0.0
H352 H 0.1651 0.11821 0.82566 0.0
H353 H 0.26361 0.25878 0.85222 0.0
H354 H 0.27619 0.22275 0.84966 0.0
H355 H 0.24759 0.22102 0.86701 0.0
C356 C 0.26553 0.12012 0.83664 0.0
C357 C 0.27307 0.11752 0.85355 0.0
C358 C 0.24307 0.13538 0.83203 0.0
C359 C 0.22767 0.14828 0.84421 0.0
C360 C 0.23376 0.1442 0.86112 0.0
H361 H 0.10145 0.26621 0.83857 0.0
H362 H 0.12899 0.22823 0.8475 0.0
C363 C 0.25644 0.12917 0.86575 0.0
C364 C 0.20616 0.16693 0.83916 0.0
H365 H 0.20578 0.24986 0.84183 0.0
C366 C 0.17397 0.14699 0.82919 0.0
C367 C 0.21792 0.20458 0.8437 0.0
C368 C 0.2534 0.22821 0.8536 0.0
C369 C 0.15299 0.16358 0.8238 0.0
C370 C 0.16474 0.20113 0.8284 0.0
C371 C 0.19675 0.22097 0.83843 0.0
C372 C 0.14486 0.22091 0.82267 0.0
C373 C 0.11821 0.14075 0.8134 0.0
C374 C 0.14445 0.22914 0.80572 0.0
C375 C 0.12883 0.25098 0.80056 0.0
C376 C 0.11346 0.26506 0.81229 0.0
C377 C 0.11304 0.25585 0.82921 0.0
C378 C 0.12878 0.23416 0.83435 0.0
H379 H 0.10812 0.11011 0.81422 0.0
H380 H 0.09518 0.14582 0.81735 0.0
H381 H 0.12478 0.14935 0.80015 0.0
H382 H 0.15728 0.21969 0.79654 0.0
H383 H 0.12967 0.25761 0.78744 0.0
H384 H 0.6249 0.53663 0.20707 0.0
H385 H 0.56252 0.50185 0.19464 0.0
H386 H 0.60437 0.56702 0.14952 0.0
H387 H 0.66756 0.60189 0.16196 0.0
H388 H 0.54297 0.56926 0.1647 0.0
H389 H 0.51104 0.42236 0.15779 0.0
H390 H 0.53308 0.44156 0.17746 0.0
H391 H 0.55866 0.4617 0.15844 0.0
C392 C 0.62108 0.54283 0.19433 0.0
C393 C 0.65093 0.57186 0.18546 0.0
C394 C 0.5855 0.52276 0.18718 0.0
C395 C 0.57894 0.5315 0.17107 0.0
C396 C 0.60905 0.55953 0.16188 0.0
H397 H 0.33316 0.39818 0.16346 0.0
H398 H 0.39586 0.43234 0.15053 0.0
C399 C 0.64503 0.57931 0.16897 0.0
C400 C 0.5396 0.5151 0.16531 0.0
H401 H 0.45783 0.4309 0.16541 0.0
C402 C 0.52439 0.53901 0.1642 0.0
C403 C 0.51543 0.47573 0.16438 0.0
C404 C 0.53049 0.44889 0.1644 0.0
C405 C 0.48534 0.5244 0.1643 0.0
C406 C 0.46122 0.48508 0.16565 0.0
C407 C 0.47638 0.46112 0.1646 0.0
C408 C 0.42211 0.46896 0.17169 0.0
C409 C 0.47028 0.55124 0.16423 0.0
C410 C 0.41617 0.47853 0.18775 0.0
C411 C 0.38085 0.45887 0.19517 0.0
C412 C 0.35065 0.42941 0.18665 0.0
C413 C 0.35595 0.42109 0.17021 0.0
C414 C 0.39166 0.44047 0.16284 0.0
H415 H 0.48941 0.57743 0.15732 0.0
H416 H 0.44183 0.53815 0.15853 0.0
H417 H 0.46832 0.55923 0.17725 0.0
H418 H 0.43943 0.49981 0.19495 0.0
H419 H 0.37751 0.46577 0.20786 0.0
H420 H 0.0688 0.66024 0.50154 0.0
H421 H 0.03521 0.59596 0.4901 0.0
H422 H 0.04297 0.55196 0.53785 0.0
H423 H 0.07624 0.6155 0.54924 0.0
H424 H 0.0542 0.5157 0.50876 0.0
H425 H 0.92408 0.52673 0.50654 0.0
H426 H 0.9657 0.56105 0.49575 0.0
H427 H 0.9649 0.56027 0.5181 0.0
C428 C 0.0642 0.63685 0.50941 0.0
C429 C 0.07479 0.64268 0.5263 0.0
C430 C 0.04485 0.60023 0.5029 0.0
C431 C 0.03632 0.56929 0.5132 0.0
C432 C 0.0493 0.57548 0.5297 0.0
H433 H 0.89129 0.37062 0.55062 0.0
H434 H 0.9246 0.43288 0.53792 0.0
C435 C 0.0682 0.61178 0.53621 0.0
C436 C 0.01052 0.53009 0.50786 0.0
H437 H 0.91653 0.46628 0.50725 0.0
C438 C 0.02414 0.50479 0.50777 0.0
C439 C 0.97135 0.51616 0.50666 0.0
C440 C 0.95534 0.54225 0.50679 0.0
C441 C -0.00057 0.46575 0.50814 0.0
C442 C 0.96019 0.45189 0.50848 0.0
C443 C 0.94664 0.47712 0.50693 0.0
C444 C 0.93392 0.41323 0.51433 0.0
C445 C 0.01542 0.4398 0.50987 0.0
C446 C 0.92675 0.38135 0.505 0.0
C447 C 0.90741 0.34548 0.51226 0.0
C448 C 0.89541 0.34135 0.52895 0.0
C449 C 0.90041 0.37306 0.53777 0.0
C450 C 0.91934 0.40862 0.53051 0.0
H451 H 0.04667 0.45538 0.51031 0.0
H452 H 0.00463 0.42273 0.52142 0.0
H453 H 0.00633 0.42011 0.49915 0.0
H454 H 0.93761 0.38439 0.49245 0.0
H455 H 0.90406 0.32146 0.50522 0.0
H456 H 0.47038 0.09233 0.87603 0.0
H457 H 0.5033 0.0622 0.86413 0.0
H458 H 0.43539 0.03513 0.8197 0.0
H459 H 0.40224 0.06582 0.83165 0.0
H460 H 0.43281 0.97279 0.83534 0.0
H461 H 0.58047 0.08452 0.82729 0.0
H462 H 0.56276 0.08878 0.84712 0.0
H463 H 0.54217 0.09436 0.82826 0.0
C464 C 0.46322 0.08098 0.86352 0.0
C465 C 0.43388 0.08144 0.85474 0.0
C466 C 0.48222 0.06397 0.85667 0.0
C467 C 0.47218 0.04687 0.84093 0.0
C468 C 0.4439 0.04863 0.83177 0.0
H469 H 0.60118 0.92942 0.83267 0.0
H470 H 0.56789 0.95956 0.82035 0.0
C471 C 0.42512 0.06625 0.83857 0.0
C472 C 0.48761 0.02269 0.83557 0.0
H473 H 0.57058 0.02246 0.83536 0.0
C474 C 0.46292 0.98369 0.83473 0.0
C475 C 0.52681 0.03682 0.83449 0.0
C476 C 0.55452 0.07849 0.83415 0.0
C477 C 0.47658 0.9584 0.83482 0.0
C478 C 0.51578 0.97257 0.83592 0.0
C479 C 0.54046 0.01153 0.83475 0.0
C480 C 0.53127 0.94864 0.84156 0.0
C481 C 0.44886 0.91672 0.83482 0.0
C482 C 0.52137 0.93216 0.85743 0.0
C483 C 0.54046 0.91545 0.8645 0.0
C484 C 0.56976 0.91469 0.85582 0.0
C485 C 0.57836 0.92926 0.83953 0.0
C486 C 0.5595 0.94655 0.83252 0.0
H487 H 0.42286 0.91038 0.82793 0.0
H488 H 0.46117 0.9006 0.82914 0.0
H489 H 0.44074 0.907 0.84786 0.0
H490 H 0.50033 0.93419 0.86481 0.0
H491 H 0.53338 0.90456 0.87709 0.0
H492 H 0.6077 0.67954 0.49597 0.0
H493 H 0.57589 0.61688 0.50916 0.0
H494 H 0.51439 0.56872 0.46372 0.0
H495 H 0.54573 0.63057 0.45054 0.0
H496 H 0.48168 0.55189 0.50641 0.0
H497 H 0.58994 0.5229 0.48016 0.0
H498 H 0.60025 0.56942 0.48654 0.0
H499 H 0.57667 0.55013 0.46713 0.0
C500 C 0.58672 0.65566 0.48897 0.0
C501 C 0.57929 0.65975 0.4722 0.0
C502 C 0.56878 0.62001 0.49649 0.0
C503 C 0.54317 0.58842 0.48731 0.0
C504 C 0.53427 0.5929 0.47093 0.0
H505 H 0.3799 0.38656 0.4658 0.0
H506 H 0.41989 0.44818 0.47771 0.0
C507 C 0.55219 0.6282 0.46343 0.0
C508 C 0.52705 0.54987 0.4939 0.0
H509 H 0.52838 0.46964 0.48439 0.0
C510 C 0.49244 0.53392 0.50222 0.0
C511 C 0.54153 0.52671 0.48869 0.0
C512 C 0.57932 0.54307 0.48024 0.0
C513 C 0.46994 0.49471 0.50371 0.0
C514 C 0.48213 0.47129 0.49631 0.0
C515 C 0.5188 0.48753 0.48992 0.0
C516 C 0.45503 0.43199 0.49146 0.0
C517 C 0.43216 0.4787 0.51212 0.0
C518 C 0.46159 0.40218 0.49501 0.0
C519 C 0.4387 0.36658 0.48789 0.0
C520 C 0.40975 0.36082 0.47681 0.0
C521 C 0.40262 0.39034 0.4738 0.0
C522 C 0.42503 0.42551 0.48098 0.0
H523 H 0.43354 0.49691 0.52267 0.0
H524 H 0.41129 0.47781 0.50306 0.0
H525 H 0.42218 0.44977 0.51685 0.0
H526 H 0.48494 0.40673 0.50288 0.0
H527 H 0.4446 0.3441 0.49046 0.0
H528 H 0.91108 0.53273 0.78931 0.0
H529 H 0.94042 0.49924 0.80145 0.0
H530 H 0.96542 0.56586 0.84621 0.0
H531 H 0.93542 0.59948 0.83405 0.0
H532 H 0.02858 0.56839 0.83065 0.0
H533 H 0.9154 0.42109 0.83852 0.0
H534 H 0.91178 0.43948 0.81875 0.0
H535 H 0.90634 0.45994 0.83768 0.0
C536 C 0.92184 0.53951 0.80193 0.0
C537 C 0.92096 0.56858 0.81076 0.0
C538 C 0.93839 0.52019 0.80891 0.0
C539 C 0.95465 0.5297 0.82482 0.0
C540 C 0.95255 0.55777 0.834 0.0
H541 H 0.06913 0.39811 0.83374 0.0
H542 H 0.04025 0.43258 0.84611 0.0
C543 C 0.93535 0.57682 0.82707 0.0
C544 C 0.9783 0.51387 0.8304 0.0
H545 H 0.97729 0.43027 0.83092 0.0
C546 C 0.01734 0.53821 0.83133 0.0
C547 C 0.96368 0.4746 0.83157 0.0
C548 C 0.92193 0.44731 0.83176 0.0
C549 C 0.04222 0.52407 0.83138 0.0
C550 C 0.02758 0.48477 0.83036 0.0
C551 C 0.98856 0.46046 0.83148 0.0
C552 C 0.05107 0.46879 0.82473 0.0
C553 C 0.08397 0.55137 0.83138 0.0
C554 C 0.06709 0.4781 0.80877 0.0
C555 C 0.08302 0.45831 0.80167 0.0
C556 C 0.08351 0.42896 0.81044 0.0
C557 C 0.06953 0.421 0.82682 0.0
C558 C 0.05295 0.44053 0.83386 0.0
H559 H 0.09064 0.57763 0.83814 0.0
H560 H 0.09973 0.53881 0.8372 0.0
H561 H 0.0938 0.55912 0.81833 0.0
H562 H 0.0652 0.49916 0.80134 0.0
H563 H 0.09344 0.46484 0.78899 0.0
H564 H 0.33712 0.92683 0.16342 0.0
H565 H 0.40023 0.95804 0.17604 0.0
H566 H 0.44754 0.9507 0.12913 0.0
H567 H 0.38515 0.91969 0.11658 0.0
H568 H 0.47959 0.93615 0.15876 0.0
H569 H 0.47413 0.06936 0.16125 0.0
H570 H 0.43785 0.02772 0.17131 0.0
H571 H 0.44072 0.02981 0.149 0.0
C572 C 0.36094 0.93105 0.15597 0.0
C573 C 0.35642 0.92122 0.13898 0.0
C574 C 0.3969 0.94903 0.16316 0.0
C575 C 0.42848 0.95698 0.15345 0.0
C576 C 0.4235 0.9448 0.13683 0.0
H577 H 0.6302 0.0977 0.11902 0.0
H578 H 0.56747 0.06644 0.13123 0.0
C579 C 0.38787 0.92722 0.12966 0.0
C580 C 0.46732 0.98133 0.15955 0.0
H581 H 0.53356 0.07452 0.16145 0.0
C582 C 0.49144 0.96633 0.16001 0.0
C583 C 0.48247 0.02065 0.16111 0.0
C584 C 0.45767 0.03813 0.16063 0.0
C585 C 0.53065 0.98989 0.16028 0.0
C586 C 0.54587 0.02939 0.16026 0.0
C587 C 0.52167 0.04421 0.16152 0.0
C588 C 0.58508 0.05478 0.15484 0.0
C589 C 0.55544 0.97251 0.15884 0.0
C590 C 0.61605 0.06003 0.16437 0.0
C591 C 0.65221 0.07815 0.15738 0.0
C592 C 0.6575 0.09085 0.14078 0.0
C593 C 0.62683 0.08795 0.13179 0.0
C594 C 0.591 0.07021 0.13878 0.0
H595 H 0.53891 0.9413 0.1581 0.0
H596 H 0.57345 0.98334 0.14757 0.0
H597 H 0.57423 0.9804 0.16986 0.0
H598 H 0.61201 0.04852 0.17684 0.0
H599 H 0.67542 0.07993 0.16454 0.0
H600 H 0.25936 0.00504 0.13839 0.0
H601 H 0.26127 0.05951 0.15176 0.0
H602 H 0.38228 0.12077 0.14787 0.0
H603 H 0.3807 0.06679 0.13419 0.0
H604 H 0.29567 0.09672 0.18063 0.0
H605 H 0.35379 0.19259 0.12621 0.0
H606 H 0.33546 0.14251 0.12461 0.0
H607 H 0.38194 0.17263 0.13274 0.0
C608 C 0.28642 0.03008 0.14038 0.0
C609 C 0.31986 0.03168 0.13507 0.0
C610 C 0.28743 0.06117 0.14802 0.0
C611 C 0.32185 0.09439 0.1505 0.0
C612 C 0.35536 0.09573 0.14567 0.0
H613 H 0.37952 0.30851 0.19668 0.0
H614 H 0.38117 0.2548 0.18427 0.0
C615 C 0.35438 0.06476 0.13793 0.0
C616 C 0.32258 0.12749 0.15826 0.0
H617 H 0.34892 0.21967 0.15155 0.0
C618 C 0.30722 0.12357 0.17426 0.0
C619 C 0.33765 0.16247 0.14989 0.0
C620 C 0.35283 0.16784 0.13236 0.0
C621 C 0.30681 0.15384 0.18219 0.0
C622 C 0.32191 0.18873 0.17383 0.0
C623 C 0.33753 0.19281 0.15791 0.0
C624 C 0.32086 0.22111 0.18128 0.0
C625 C 0.29056 0.14847 0.19951 0.0
C626 C 0.28641 0.21995 0.18343 0.0
C627 C 0.28532 0.25056 0.19042 0.0
C628 C 0.31873 0.28288 0.1954 0.0
C629 C 0.35327 0.28401 0.19306 0.0
C630 C 0.35431 0.25342 0.18597 0.0
H631 H 0.28727 0.12259 0.20553 0.0
H632 H 0.3087 0.17307 0.20751 0.0
H633 H 0.26242 0.14604 0.19879 0.0
H634 H 0.26036 0.19537 0.17966 0.0
H635 H 0.25823 0.24873 0.19201 0.0
H636 H 0.04246 0.36634 0.53398 0.0
H637 H 0.09529 0.3654 0.52031 0.0
H638 H 0.03085 0.24422 0.51766 0.0
H639 H 0.97772 0.24482 0.53093 0.0
H640 H 0.13485 0.33193 0.53118 0.0
H641 H 0.06791 0.27187 0.47019 0.0
H642 H 0.04776 0.28989 0.48503 0.0
H643 H 0.04171 0.24361 0.48767 0.0
C644 C 0.03942 0.3395 0.53038 0.0
C645 C 0.00581 0.30568 0.53351 0.0
C646 C 0.06962 0.33902 0.52258 0.0
C647 C 0.06675 0.30478 0.51777 0.0
C648 C 0.03333 0.271 0.52091 0.0
H649 H 0.22803 0.24745 0.47604 0.0
H650 H 0.17386 0.24516 0.49014 0.0
C651 C 0.00305 0.27144 0.52859 0.0
C652 C 0.09923 0.30426 0.51004 0.0
H653 H 0.12695 0.27605 0.47542 0.0
C654 C 0.13318 0.31986 0.51896 0.0
C655 C 0.09688 0.28836 0.49412 0.0
C656 C 0.06172 0.2728 0.48361 0.0
C657 C 0.16481 0.31976 0.51241 0.0
C658 C 0.16236 0.30382 0.49654 0.0
C659 C 0.12844 0.28795 0.48766 0.0
C660 C 0.19538 0.30514 0.48856 0.0
C661 C 0.20059 0.33648 0.52251 0.0
C662 C 0.22506 0.33961 0.48301 0.0
C663 C 0.25578 0.34103 0.47489 0.0
C664 C 0.25741 0.30795 0.47222 0.0
C665 C 0.22769 0.27343 0.47796 0.0
C666 C 0.19674 0.27203 0.48597 0.0
H667 H 0.1957 0.34068 0.53576 0.0
H668 H 0.21331 0.31812 0.52199 0.0
H669 H 0.22118 0.36424 0.51719 0.0
H670 H 0.22422 0.36537 0.48477 0.0
H671 H 0.27822 0.36811 0.47069 0.0
H672 H 0.99356 0.24854 0.80898 0.0
H673 H 0.93845 0.19611 0.82192 0.0
H674 H 0.87835 0.2571 0.81782 0.0
H675 H 0.93305 0.30945 0.80451 0.0
H676 H 0.90085 0.19317 0.85056 0.0
H677 H 0.80631 0.15753 0.79575 0.0
H678 H 0.85644 0.18896 0.79438 0.0
H679 H 0.82645 0.20545 0.80258 0.0
C680 C 0.96865 0.25089 0.81081 0.0
C681 C 0.96763 0.28311 0.80556 0.0
C682 C 0.93718 0.22086 0.81821 0.0
C683 C 0.90411 0.22244 0.82053 0.0
C684 C 0.90329 0.25493 0.81575 0.0
H685 H 0.68938 0.06396 0.86582 0.0
H686 H 0.74281 0.11988 0.85366 0.0
C687 C 0.93468 0.28492 0.80824 0.0
C688 C 0.87069 0.1901 0.82809 0.0
H689 H 0.7788 0.12443 0.82078 0.0
C690 C 0.87418 0.17811 0.84405 0.0
C691 C 0.83594 0.17052 0.81954 0.0
C692 C 0.83101 0.18098 0.80206 0.0
C693 C 0.84379 0.14711 0.85171 0.0
C694 C 0.80919 0.12754 0.84313 0.0
C695 C 0.80546 0.13971 0.82729 0.0
C696 C 0.77681 0.09366 0.85026 0.0
C697 C 0.84874 0.13557 0.86896 0.0
C698 C 0.77822 0.0604 0.85208 0.0
C699 C 0.74777 0.02837 0.85892 0.0
C700 C 0.71537 0.02911 0.86411 0.0
C701 C 0.71395 0.06247 0.86205 0.0
C702 C 0.74438 0.09442 0.85509 0.0
H703 H 0.87439 0.15795 0.87519 0.0
H704 H 0.82391 0.12873 0.87686 0.0
H705 H 0.85132 0.10994 0.86807 0.0
H706 H 0.80292 0.05924 0.8482 0.0
H707 H 0.74982 0.00318 0.86028 0.0
H708 H 0.74607 -3e-05 0.13858 0.0
H709 H 0.74237 0.94416 0.15128 0.0
H710 H 0.6214 0.88596 0.14729 0.0
H711 H 0.62477 0.94144 0.13421 0.0
H712 H 0.70752 0.90641 0.17985 0.0
H713 H 0.64716 0.81296 0.12477 0.0
H714 H 0.66661 0.86326 0.12358 0.0
H715 H 0.62015 0.83376 0.13185 0.0
C716 C 0.71862 0.97533 0.14038 0.0
C717 C 0.68571 0.97506 0.13521 0.0
C718 C 0.71659 0.94345 0.14765 0.0
C719 C 0.68168 0.91071 0.14993 0.0
C720 C 0.64869 0.91063 0.14525 0.0
H721 H 0.62339 0.69439 0.19428 0.0
H722 H 0.6215 0.74828 0.18225 0.0
C723 C 0.65068 0.94245 0.13786 0.0
C724 C 0.68004 0.87684 0.15733 0.0
H725 H 0.65287 0.78481 0.14956 0.0
C726 C 0.6956 0.87984 0.17322 0.0
C727 C 0.66448 0.84222 0.14863 0.0
C728 C 0.64895 0.8378 0.1312 0.0
C729 C 0.69593 0.84909 0.18069 0.0
C730 C 0.68057 0.81462 0.17196 0.0
C731 C 0.66455 0.81138 0.15618 0.0
C732 C 0.68171 0.78186 0.17889 0.0
C733 C 0.7125 0.85353 0.19789 0.0
C734 C 0.71618 0.78284 0.18067 0.0
C735 C 0.71741 0.75211 0.18744 0.0
C736 C 0.68413 0.71986 0.1926 0.0
C737 C 0.64956 0.71883 0.19053 0.0
C738 C 0.64837 0.74953 0.18365 0.0
H739 H 0.716 0.87913 0.20428 0.0
H740 H 0.69446 0.82855 0.20572 0.0
H741 H 0.74058 0.85591 0.19688 0.0
H742 H 0.74214 0.80746 0.17684 0.0
H743 H 0.7445 0.75388 0.18882 0.0
H744 H 0.75777 0.75223 0.46677 0.0
H745 H 0.81059 0.7497 0.47938 0.0
H746 H 0.75025 0.6287 0.47494 0.0
H747 H 0.69749 0.63092 0.46196 0.0
H748 H 0.81229 0.71494 0.50802 0.0
H749 H 0.85091 0.65641 0.45405 0.0
H750 H 0.8194 0.67499 0.45219 0.0
H751 H 0.80265 0.62842 0.46033 0.0
C752 C 0.75572 0.72504 0.46839 0.0
C753 C 0.72346 0.69177 0.46325 0.0
C754 C 0.78596 0.72368 0.4756 0.0
C755 C 0.78459 0.68909 0.47782 0.0
C756 C 0.75227 0.65577 0.47295 0.0
H757 H 0.93213 0.62565 0.52756 0.0
H758 H 0.88009 0.62653 0.51308 0.0
C759 C 0.72205 0.65709 0.46562 0.0
C760 C 0.81658 0.68797 0.48575 0.0
H761 H 0.8816 0.66027 0.47974 0.0
C762 C 0.82756 0.70316 0.50181 0.0
C763 C 0.83642 0.67257 0.47759 0.0
C764 C 0.82703 0.65748 0.46003 0.0
C765 C 0.85762 0.70297 0.51002 0.0
C766 C 0.87728 0.68744 0.50189 0.0
C767 C 0.8663 0.6721 0.48588 0.0
C768 C 0.9094 0.68695 0.5099 0.0
C769 C 0.86787 0.71888 0.52742 0.0
C770 C 0.94322 0.72063 0.51255 0.0
C771 C 0.97307 0.72029 0.52075 0.0
C772 C 0.96948 0.68622 0.52648 0.0
C773 C 0.93574 0.65241 0.52343 0.0
C774 C 0.90601 0.65279 0.51513 0.0
H775 H 0.84567 0.7233 0.53309 0.0
H776 H 0.87273 0.69986 0.53559 0.0
H777 H 0.89435 0.74642 0.52697 0.0
H778 H 0.94637 0.7472 0.50841 0.0
H779 H 0.99866 0.74681 0.52286 0.0
H780 H 0.3115 0.93246 0.86448 0.0
H781 H 0.25845 0.87792 0.85138 0.0
H782 H 0.20063 0.94084 0.84577 0.0
H783 H 0.25368 0.99569 0.85848 0.0
H784 H 0.18482 0.83798 0.86136 0.0
H785 H 0.19482 0.90084 0.79905 0.0
H786 H 0.232 0.92223 0.8143 0.0
H787 H 0.19156 0.92829 0.8157 0.0
C788 C 0.2876 0.93479 0.86038 0.0
C789 C 0.28697 0.96855 0.86245 0.0
C790 C 0.25731 0.90358 0.85291 0.0
C791 C 0.22593 0.90556 0.84735 0.0
C792 C 0.22499 0.93901 0.84959 0.0
H793 H 0.00711 0.74948 0.80753 0.0
H794 H 0.06215 0.80229 0.82045 0.0
C795 C 0.2553 0.97028 0.85695 0.0
C796 C 0.19364 0.87234 0.83964 0.0
H797 H 0.13876 0.84282 0.80473 0.0
C798 C 0.17493 0.83891 0.84892 0.0
C799 C 0.18089 0.87366 0.8234 0.0
C800 C 0.20108 0.90806 0.81246 0.0
C801 C 0.14317 0.80702 0.84254 0.0
C802 C 0.13005 0.80868 0.82646 0.0
C803 C 0.1489 0.84189 0.81711 0.0
C804 C 0.09665 0.77619 0.81912 0.0
C805 C 0.12331 0.772 0.85311 0.0
C806 C 0.09809 0.74422 0.81407 0.0
C807 C 0.06681 0.71405 0.80659 0.0
C808 C 0.03354 0.71537 0.80408 0.0
C809 C 0.03222 0.74746 0.8093 0.0
C810 C 0.06361 0.77769 0.81667 0.0
H811 H 0.13325 0.77728 0.86624 0.0
H812 H 0.09245 0.76082 0.85295 0.0
H813 H 0.12857 0.74999 0.84789 0.0
H814 H 0.12357 0.74282 0.81574 0.0
H815 H 0.06879 0.68978 0.80275 0.0
H816 H 0.25803 0.29672 0.40578 0.0
H817 H 0.23541 0.2902 0.37713 0.0
H818 H 0.29624 0.23318 0.36398 0.0
H819 H 0.31733 0.2381 0.39295 0.0
H820 H 0.28404 0.32674 0.35392 0.0
H821 H 0.2054 0.17732 0.3348 0.0
H822 H 0.21406 0.19145 0.35642 0.0
H823 H 0.24965 0.18916 0.34416 0.0
C824 C 0.26525 0.28144 0.39689 0.0
C825 C 0.28929 0.26785 0.40146 0.0
C826 C 0.2524 0.27777 0.38053 0.0
C827 C 0.26402 0.26116 0.36834 0.0
C828 C 0.28611 0.24532 0.37318 0.0
H829 H 0.33501 0.3326 0.27034 0.0
H830 H 0.32291 0.30922 0.29885 0.0
C831 C 0.29833 0.24828 0.38971 0.0
C832 C 0.25894 0.26677 0.35044 0.0
H833 H 0.23368 0.22315 0.31248 0.0
C834 C 0.27219 0.30386 0.34497 0.0
C835 C 0.24359 0.23705 0.33867 0.0
C836 C 0.22702 0.19649 0.34385 0.0
C837 C 0.27198 0.31222 0.32809 0.0
C838 C 0.25871 0.28287 0.31627 0.0
C839 C 0.24399 0.24556 0.32165 0.0
C840 C 0.26372 0.2916 0.29828 0.0
C841 C 0.28731 0.35266 0.32287 0.0
C842 C 0.2341 0.28865 0.28845 0.0
C843 C 0.24089 0.30217 0.27203 0.0
C844 C 0.27748 0.31899 0.26533 0.0
C845 C 0.30659 0.3203 0.27511 0.0
C846 C 0.29974 0.30672 0.2914 0.0
H847 H 0.28999 0.37099 0.3336 0.0
H848 H 0.31558 0.36346 0.31726 0.0
H849 H 0.26886 0.35479 0.31332 0.0
H850 H 0.20614 0.27721 0.29367 0.0
H851 H 0.21786 0.30062 0.2648 0.0
H852 H 0.97931 0.32661 0.61061 0.0
H853 H -0.0003 0.3147 0.63708 0.0
H854 H 0.92762 0.19516 0.63022 0.0
H855 H 0.90631 0.20688 0.60338 0.0
H856 H 0.91985 0.21833 0.66103 0.0
H857 H 0.07076 0.27702 0.64874 0.0
H858 H 0.05697 0.31008 0.6421 0.0
H859 H 0.03682 0.26466 0.63213 0.0
C860 C 0.96783 0.29764 0.61454 0.0
C861 C 0.94105 0.26768 0.60479 0.0
C862 C 0.97997 0.29088 0.62966 0.0
C863 C 0.96602 0.25401 0.63544 0.0
C864 C 0.93921 0.22383 0.62584 0.0
H865 H 0.06813 0.28339 0.73501 0.0
H866 H 0.04663 0.25191 0.70785 0.0
C867 C 0.92698 0.23059 0.61056 0.0
C868 C 0.97717 0.24829 0.65229 0.0
H869 H 0.0544 0.28502 0.6775 0.0
C870 C 0.94926 0.2318 0.66458 0.0
C871 C 0.01547 0.2648 0.65696 0.0
C872 C 0.04662 0.27971 0.6442 0.0
C873 C 0.95879 0.23553 0.68154 0.0
C874 C 0.99708 0.25697 0.68626 0.0
C875 C 0.02499 0.26932 0.67393 0.0
C876 C 0.00821 0.27267 0.7033 0.0
C877 C 0.92764 0.21834 0.69427 0.0
C878 C 0.99425 0.2952 0.70958 0.0
C879 C 0.00651 0.31324 0.72488 0.0
C880 C 0.03339 0.30954 0.73431 0.0
C881 C 0.04737 0.28679 0.72808 0.0
C882 C 0.03505 0.2687 0.71261 0.0
H883 H 0.90353 0.19183 0.68946 0.0
H884 H 0.93746 0.21225 0.70615 0.0
H885 H 0.91723 0.23816 0.69684 0.0
H886 H 0.97448 0.29974 0.70241 0.0
H887 H 0.99505 0.33049 0.72919 0.0
H888 H 0.78978 0.07537 0.06636 0.0
H889 H 0.80048 0.05542 0.03895 0.0
H890 H 0.68064 0.99102 0.03092 0.0
H891 H 0.66968 0.01003 0.05795 0.0
H892 H 0.71917 0.95249 0.02195 0.0
H893 H 0.78409 0.09665 0.99458 0.0
H894 H 0.80443 0.08943 0.01311 0.0
H895 H 0.75893 0.08552 0.0141 0.0
C896 C 0.76577 0.05686 0.05875 0.0
C897 C 0.72888 0.0446 0.06434 0.0
C898 C 0.77194 0.04553 0.04311 0.0
C899 C 0.74132 0.02186 0.03289 0.0
C900 C 0.70468 0.00912 0.03863 0.0
H901 H 0.65274 0.9837 0.94157 0.0
H902 H 0.68277 0.00222 0.96862 0.0
C903 C 0.6985 0.0203 0.05411 0.0
C904 C 0.74616 0.01136 0.01577 0.0
H905 H 0.76132 0.0459 0.97612 0.0
C906 C 0.72947 0.9729 0.01189 0.0
C907 C 0.75971 0.03815 0.00274 0.0
C908 C 0.77773 0.07979 0.00619 0.0
C909 C 0.72258 0.96032 0.9953 0.0
C910 C 0.73314 0.987 0.98232 0.0
C911 C 0.75324 0.02557 0.98615 0.0
C912 C 0.7167 0.97584 0.96542 0.0
C913 C 0.70093 0.91858 0.99184 0.0
C914 C 0.7257 0.95459 0.95458 0.0
C915 C 0.70823 0.9436 0.93892 0.0
C916 C 0.68162 0.95381 0.93393 0.0
C917 C 0.67302 0.97522 0.9449 0.0
C918 C 0.69033 0.98607 0.9604 0.0
H919 H 0.69277 0.90157 0.00346 0.0
H920 H 0.67506 0.9113 0.98464 0.0
H921 H 0.71841 0.91063 0.9842 0.0
H922 H 0.7462 0.94662 0.9582 0.0
H923 H 0.71566 0.92731 0.93074 0.0
H924 H 0.78658 0.71999 0.2592 0.0
H925 H 0.7993 0.7512 0.28654 0.0
H926 H 0.68044 0.69189 0.29731 0.0
H927 H 0.66746 0.6613 0.27034 0.0
H928 H 0.71747 0.7697 0.30532 0.0
H929 H 0.79034 0.69677 0.33123 0.0
H930 H 0.80757 0.72327 0.31221 0.0
H931 H 0.76289 0.68062 0.31235 0.0
C932 C 0.76321 0.71367 0.26741 0.0
C933 C 0.72602 0.68794 0.26257 0.0
C934 C 0.77054 0.73152 0.28301 0.0
C935 C 0.74079 0.72376 0.29394 0.0
C936 C 0.7038 0.69848 0.28902 0.0
H937 H 0.66139 0.67492 0.38632 0.0
H938 H 0.68995 0.68669 0.35896 0.0
C939 C 0.69648 0.68081 0.27357 0.0
C940 C 0.74702 0.74 0.31092 0.0
H941 H 0.76782 0.72413 0.35017 0.0
C942 C 0.72955 0.76086 0.31514 0.0
C943 C 0.76295 0.72848 0.32362 0.0
C944 C 0.78196 0.70595 0.31977 0.0
C945 C 0.72414 0.76715 0.33186 0.0
C946 C 0.73702 0.75256 0.34459 0.0
C947 C 0.75796 0.73519 0.34033 0.0
C948 C 0.72191 0.74721 0.36175 0.0
C949 C 0.70153 0.78603 0.33577 0.0
C950 C 0.73035 0.7775 0.37248 0.0
C951 C 0.71369 0.77086 0.38833 0.0
C952 C 0.68845 0.73385 0.39361 0.0
C953 C 0.68057 0.70382 0.38277 0.0
C954 C 0.69707 0.71045 0.36709 0.0
H955 H 0.69173 0.79385 0.32434 0.0
H956 H 0.67661 0.76707 0.34344 0.0
H957 H 0.71899 0.81197 0.34312 0.0
H958 H 0.74967 0.80611 0.36861 0.0
H959 H 0.72054 0.7946 0.39641 0.0
H960 H 0.97297 0.69473 0.5928 0.0
H961 H 0.95231 0.70048 0.62065 0.0
H962 H 0.06817 0.76963 0.63574 0.0
H963 H 0.08873 0.76545 0.6075 0.0
H964 H 0.96658 0.67 0.64551 0.0
H965 H 0.02197 0.81952 0.66168 0.0
H966 H 0.02035 0.80407 0.64046 0.0
H967 H 0.05854 0.81168 0.65402 0.0
C968 C 0.99391 0.7123 0.60192 0.0
C969 C 0.03237 0.72963 0.59812 0.0
C970 C 0.98212 0.71557 0.61783 0.0
C971 C 0.0086 0.73554 0.63035 0.0
C972 C 0.0471 0.75482 0.62624 0.0
H973 H 0.00806 0.67577 0.73005 0.0
H974 H 0.02 0.69832 0.7014 0.0
C975 C 0.0589 0.75226 0.61014 0.0
C976 C 0.99623 0.73047 0.64805 0.0
H977 H 0.00717 0.77642 0.68501 0.0
C978 C 0.97477 0.69342 0.65399 0.0
C979 C 0.00684 0.76088 0.65923 0.0
C980 C 0.02786 0.80125 0.65346 0.0
C981 C 0.96512 0.68593 0.67084 0.0
C982 C 0.9777 0.71619 0.68215 0.0
C983 C 0.99774 0.75331 0.67624 0.0
C984 C 0.97348 0.70892 0.70027 0.0
C985 C 0.9428 0.64556 0.67661 0.0
C986 C 0.94382 0.70838 0.70922 0.0
C987 C 0.93678 0.69538 0.72574 0.0
C988 C 0.95915 0.68248 0.73336 0.0
C989 C 0.98992 0.68496 0.72451 0.0
C990 C 0.99702 0.6981 0.70816 0.0
H991 H 0.92945 0.62576 0.66604 0.0
H992 H 0.96182 0.63786 0.68317 0.0
H993 H 0.92054 0.64199 0.68553 0.0
H994 H 0.92525 0.71645 0.70322 0.0
H995 H 0.91294 0.69388 0.73224 0.0
H996 H 0.33272 0.01127 0.06021 0.0
H997 H 0.3198 0.02739 0.03289 0.0
H998 H 0.20537 0.93561 0.03569 0.0
H999 H 0.21833 0.91874 0.06334 0.0
H1000 H 0.2393 0.93406 0.0072 0.0
H1001 H 0.26432 0.07785 0.01522 0.0
H1002 H 0.30252 0.07485 0.02441 0.0
H1003 H 0.25565 0.04675 0.03271 0.0
C1004 C 0.30458 0.99465 0.05519 0.0
C1005 C 0.27663 0.96347 0.06393 0.0
C1006 C 0.29708 0.00431 0.03961 0.0
C1007 C 0.26139 0.98327 0.03236 0.0
C1008 C 0.23298 0.95258 0.04117 0.0
H1009 H 0.28386 0.06505 0.92844 0.0
H1010 H 0.2528 0.04494 0.95579 0.0
C1011 C 0.24044 0.94294 0.05693 0.0
C1012 C 0.25625 0.9908 0.01475 0.0
H1013 H 0.28354 0.06458 0.98793 0.0
C1014 C 0.24771 0.96232 0.00299 0.0
C1015 C 0.26629 0.02738 0.00915 0.0
C1016 C 0.27226 0.05826 0.0211 0.0
C1017 C 0.25333 0.97054 0.98591 0.0
C1018 C 0.26854 0.00827 0.98055 0.0
C1019 C 0.27272 0.03581 0.99208 0.0
C1020 C 0.28616 0.02043 0.9639 0.0
C1021 C 0.24511 0.93911 0.97386 0.0
C1022 C 0.31585 0.01437 0.95969 0.0
C1023 C 0.33355 0.02578 0.94429 0.0
C1024 C 0.32228 0.04395 0.93269 0.0
C1025 C 0.29315 0.05105 0.93707 0.0
C1026 C 0.27529 0.03946 0.95263 0.0
H1027 H 0.22166 0.91189 0.97845 0.0
H1028 H 0.23773 0.94493 0.96131 0.0
H1029 H 0.27038 0.936 0.97269 0.0
H1030 H 0.32557 0.00088 0.96841 0.0
H1031 H 0.35617 0.02024 0.94151 0.0
loop_
_geom_bond_atom_site_label_1
_geom_bond_atom_site_label_2
_geom_bond_distance
_geom_bond_site_symmetry_2
_ccdc_geom_bond_type
Mg0 O1 2.028 . S
Mg0 O7 1.986 . S
Mg0 O9 2.114 . S
Mg0 O10 2.251 . S
Mg0 O13 2.010 . S
O1 Mg0 2.028 . S
O1 C4 1.250 . S
O2 Mg3 2.028 . S
O2 C4 1.248 . S
Mg3 O2 2.028 . S
Mg3 O8 2.032 . S
Mg3 O10 2.079 . S
C4 O1 1.250 . S
C4 O2 1.248 . S
C5 O6 1.264 . S
C5 O13 1.249 . S
O6 C5 1.264 . S
O7 Mg0 1.986 . S
O7 C11 1.246 . S
O8 Mg3 2.032 . S
O8 C11 1.259 . S
O9 Mg0 2.114 . S
O9 C12 1.252 . S
O10 Mg0 2.251 . S
O10 Mg3 2.079 . S
O10 C12 1.273 . S
C11 O7 1.246 . S
C11 O8 1.259 . S
C12 O9 1.252 . S
C12 O10 1.273 . S
O13 Mg0 2.010 . S
O13 C5 1.249 . S
Mg14 O15 2.028 . S
Mg14 O21 1.986 . S
Mg14 O23 2.114 . S
Mg14 O24 2.251 . S
Mg14 O27 2.010 . S
O15 Mg14 2.028 . S
O15 C18 1.250 1_655 S
O16 Mg17 2.028 . S
O16 C18 1.248 . S
Mg17 O16 2.028 . S
Mg17 O22 2.032 1_455 S
Mg17 O24 2.079 1_455 S
C18 O15 1.250 1_455 S
C18 O16 1.248 . S
C19 O20 1.264 . S
C19 O27 1.249 . S
O20 C19 1.264 . S
O21 Mg14 1.986 . S
O21 C25 1.246 . S
O22 Mg17 2.032 1_655 S
O22 C25 1.259 . S
O23 Mg14 2.114 . S
O23 C26 1.252 . S
O24 Mg14 2.251 . S
O24 Mg17 2.079 1_655 S
O24 C26 1.273 . S
C25 O21 1.246 . S
C25 O22 1.259 . S
C26 O23 1.252 . S
C26 O24 1.273 . S
O27 Mg14 2.010 . S
O27 C19 1.249 . S
Mg28 O29 2.028 . S
Mg28 O35 1.986 . S
Mg28 O37 2.114 . S
Mg28 O38 2.251 . S
Mg28 O41 2.010 . S
O29 Mg28 2.028 . S
O29 C32 1.250 1_565 S
O30 Mg31 2.028 . S
O30 C32 1.248 . S
Mg31 O30 2.028 . S
Mg31 O36 2.032 1_545 S
Mg31 O38 2.079 1_545 S
C32 O29 1.250 1_545 S
C32 O30 1.248 . S
C33 O34 1.264 . S
C33 O41 1.249 . S
O34 C33 1.264 . S
O35 Mg28 1.986 . S
O35 C39 1.246 . S
O36 Mg31 2.032 1_565 S
O36 C39 1.259 . S
O37 Mg28 2.114 . S
O37 C40 1.252 . S
O38 Mg28 2.251 . S
O38 Mg31 2.079 1_565 S
O38 C40 1.273 . S
C39 O35 1.246 . S
C39 O36 1.259 . S
C40 O37 1.252 . S
C40 O38 1.273 . S
O41 Mg28 2.010 . S
O41 C33 1.249 . S
Mg42 O43 2.028 . S
Mg42 O49 1.986 . S
Mg42 O51 2.114 . S
Mg42 O52 2.251 . S
Mg42 O55 2.010 . S
O43 Mg42 2.028 . S
O43 C46 1.250 . S
O44 Mg45 2.028 . S
O44 C46 1.248 . S
Mg45 O44 2.028 . S
Mg45 O50 2.032 . S
Mg45 O52 2.079 . S
C46 O43 1.250 . S
C46 O44 1.248 . S
C47 O48 1.264 . S
C47 O55 1.249 . S
O48 C47 1.264 . S
O49 Mg42 1.986 . S
O49 C53 1.246 . S
O50 Mg45 2.032 . S
O50 C53 1.259 . S
O51 Mg42 2.114 . S
O51 C54 1.252 . S
O52 Mg42 2.251 . S
O52 Mg45 2.079 . S
O52 C54 1.273 . S
C53 O49 1.246 . S
C53 O50 1.259 . S
C54 O51 1.252 . S
C54 O52 1.273 . S
O55 Mg42 2.010 . S
O55 C47 1.249 . S
Mg56 O57 2.028 . S
Mg56 O63 1.986 . S
Mg56 O65 2.114 . S
Mg56 O66 2.251 . S
Mg56 O69 2.010 . S
O57 Mg56 2.028 . S
O57 C60 1.250 1_455 S
O58 Mg59 2.028 . S
O58 C60 1.248 . S
Mg59 O58 2.028 . S
Mg59 O64 2.032 1_655 S
Mg59 O66 2.079 1_655 S
C60 O57 1.250 1_655 S
C60 O58 1.248 . S
C61 O62 1.264 . S
C61 O69 1.249 . S
O62 C61 1.264 . S
O63 Mg56 1.986 . S
O63 C67 1.246 . S
O64 Mg59 2.032 1_455 S
O64 C67 1.259 . S
O65 Mg56 2.114 . S
O65 C68 1.252 . S
O66 Mg56 2.251 . S
O66 Mg59 2.079 1_455 S
O66 C68 1.273 . S
C67 O63 1.246 . S
C67 O64 1.259 . S
C68 O65 1.252 . S
C68 O66 1.273 . S
O69 Mg56 2.010 . S
O69 C61 1.249 . S
Mg70 O71 2.028 . S
Mg70 O77 1.986 . S
Mg70 O79 2.114 . S
Mg70 O80 2.251 . S
Mg70 O83 2.010 . S
O71 Mg70 2.028 . S
O71 C74 1.250 1_545 S
O72 Mg73 2.028 . S
O72 C74 1.248 . S
Mg73 O72 2.028 . S
Mg73 O78 2.032 1_565 S
Mg73 O80 2.079 1_565 S
C74 O71 1.250 1_565 S
C74 O72 1.248 . S
C75 O76 1.264 . S
C75 O83 1.249 . S
O76 C75 1.264 . S
O77 Mg70 1.986 . S
O77 C81 1.246 . S
O78 Mg73 2.032 1_545 S
O78 C81 1.259 . S
O79 Mg70 2.114 . S
O79 C82 1.252 . S
O80 Mg70 2.251 . S
O80 Mg73 2.079 1_545 S
O80 C82 1.273 . S
C81 O77 1.246 . S
C81 O78 1.259 . S
C82 O79 1.252 . S
C82 O80 1.273 . S
O83 Mg70 2.010 . S
O83 C75 1.249 . S
Mg84 O85 2.028 . S
Mg84 O91 1.986 . S
Mg84 O93 2.114 . S
Mg84 O94 2.251 . S
Mg84 O97 2.010 . S
O85 Mg84 2.028 . S
O85 C88 1.250 . S
O86 Mg87 2.028 . S
O86 C88 1.248 . S
Mg87 O86 2.028 . S
Mg87 O92 2.032 . S
Mg87 O94 2.079 . S
C88 O85 1.250 . S
C88 O86 1.248 . S
C89 O90 1.264 . S
C89 O97 1.249 . S
O90 C89 1.264 . S
O91 Mg84 1.986 . S
O91 C95 1.246 . S
O92 Mg87 2.032 . S
O92 C95 1.259 . S
O93 Mg84 2.114 . S
O93 C96 1.252 . S
O94 Mg84 2.251 . S
O94 Mg87 2.079 . S
O94 C96 1.273 . S
C95 O91 1.246 . S
C95 O92 1.259 . S
C96 O93 1.252 . S
C96 O94 1.273 . S
O97 Mg84 2.010 . S
O97 C89 1.249 . S
Mg98 O99 2.028 . S
Mg98 O105 1.986 . S
Mg98 O107 2.114 . S
Mg98 O108 2.251 . S
Mg98 O111 2.010 . S
O99 Mg98 2.028 . S
O99 C102 1.250 1_655 S
O100 Mg101 2.028 . S
O100 C102 1.248 . S
Mg101 O100 2.028 . S
Mg101 O106 2.032 1_455 S
Mg101 O108 2.079 1_455 S
C102 O99 1.250 1_455 S
C102 O100 1.248 . S
C103 O104 1.264 . S
C103 O111 1.249 . S
O104 C103 1.264 . S
O105 Mg98 1.986 . S
O105 C109 1.246 . S
O106 Mg101 2.032 1_655 S
O106 C109 1.259 . S
O107 Mg98 2.114 . S
O107 C110 1.252 . S
O108 Mg98 2.251 . S
O108 Mg101 2.079 1_655 S
O108 C110 1.273 . S
C109 O105 1.246 . S
C109 O106 1.259 . S
C110 O107 1.252 . S
C110 O108 1.273 . S
O111 Mg98 2.010 . S
O111 C103 1.249 . S
Mg112 O113 2.028 . S
Mg112 O119 1.986 . S
Mg112 O121 2.114 . S
Mg112 O122 2.251 . S
Mg112 O125 2.010 . S
O113 Mg112 2.028 . S
O113 C116 1.250 1_565 S
O114 Mg115 2.028 . S
O114 C116 1.248 . S
Mg115 O114 2.028 . S
Mg115 O120 2.032 1_545 S
Mg115 O122 2.079 1_545 S
C116 O113 1.250 1_545 S
C116 O114 1.248 . S
C117 O118 1.264 . S
C117 O125 1.249 . S
O118 C117 1.264 . S
O119 Mg112 1.986 . S
O119 C123 1.246 . S
O120 Mg115 2.032 1_565 S
O120 C123 1.259 . S
O121 Mg112 2.114 . S
O121 C124 1.252 . S
O122 Mg112 2.251 . S
O122 Mg115 2.079 1_565 S
O122 C124 1.273 . S
C123 O119 1.246 . S
C123 O120 1.259 . S
C124 O121 1.252 . S
C124 O122 1.273 . S
O125 Mg112 2.010 . S
O125 C117 1.249 . S
Mg126 O127 2.028 . S
Mg126 O133 1.986 . S
Mg126 O135 2.114 . S
Mg126 O136 2.251 . S
Mg126 O139 2.010 . S
O127 Mg126 2.028 . S
O127 C130 1.250 . S
O128 Mg129 2.028 . S
O128 C130 1.248 . S
Mg129 O128 2.028 . S
Mg129 O134 2.032 . S
Mg129 O136 2.079 . S
C130 O127 1.250 . S
C130 O128 1.248 . S
C131 O132 1.264 . S
C131 O139 1.249 . S
O132 C131 1.264 . S
O133 Mg126 1.986 . S
O133 C137 1.246 . S
O134 Mg129 2.032 . S
O134 C137 1.259 . S
O135 Mg126 2.114 . S
O135 C138 1.252 . S
O136 Mg126 2.251 . S
O136 Mg129 2.079 . S
O136 C138 1.273 . S
C137 O133 1.246 . S
C137 O134 1.259 . S
C138 O135 1.252 . S
C138 O136 1.273 . S
O139 Mg126 2.010 . S
O139 C131 1.249 . S
Mg140 O141 2.028 . S
Mg140 O147 1.986 . S
Mg140 O149 2.114 . S
Mg140 O150 2.251 . S
Mg140 O153 2.010 . S
O141 Mg140 2.028 . S
O141 C144 1.250 1_455 S
O142 Mg143 2.028 . S
O142 C144 1.248 . S
Mg143 O142 2.028 . S
Mg143 O148 2.032 1_655 S
Mg143 O150 2.079 1_655 S
C144 O141 1.250 1_655 S
C144 O142 1.248 . S
C145 O146 1.264 . S
C145 O153 1.249 . S
O146 C145 1.264 . S
O147 Mg140 1.986 . S
O147 C151 1.246 . S
O148 Mg143 2.032 1_455 S
O148 C151 1.259 . S
O149 Mg140 2.114 . S
O149 C152 1.252 . S
O150 Mg140 2.251 . S
O150 Mg143 2.079 1_455 S
O150 C152 1.273 . S
C151 O147 1.246 . S
C151 O148 1.259 . S
C152 O149 1.252 . S
C152 O150 1.273 . S
O153 Mg140 2.010 . S
O153 C145 1.249 . S
Mg154 O155 2.028 . S
Mg154 O161 1.986 . S
Mg154 O163 2.114 . S
Mg154 O164 2.251 . S
Mg154 O167 2.010 . S
O155 Mg154 2.028 . S
O155 C158 1.250 1_545 S
O156 Mg157 2.028 . S
O156 C158 1.248 . S
Mg157 O156 2.028 . S
Mg157 O162 2.032 1_565 S
Mg157 O164 2.079 1_565 S
C158 O155 1.250 1_565 S
C158 O156 1.248 . S
C159 O160 1.264 . S
C159 O167 1.249 . S
O160 C159 1.264 . S
O161 Mg154 1.986 . S
O161 C165 1.246 . S
O162 Mg157 2.032 1_545 S
O162 C165 1.259 . S
O163 Mg154 2.114 . S
O163 C166 1.252 . S
O164 Mg154 2.251 . S
O164 Mg157 2.079 1_545 S
O164 C166 1.273 . S
C165 O161 1.246 . S
C165 O162 1.259 . S
C166 O163 1.252 . S
C166 O164 1.273 . S
O167 Mg154 2.010 . S
O167 C159 1.249 . S
H168 C176 0.929 . S
H169 C178 0.930 . S
H170 C180 0.930 . S
H171 C183 0.929 . S
H172 C186 0.930 . S
H173 C188 0.960 . S
H174 C188 0.960 . S
H175 C188 0.960 . S
C176 H168 0.929 . S
C176 C177 1.377 . S
C176 C178 1.384 . S
C177 C176 1.377 . S
C177 C183 1.390 . S
C178 H169 0.930 . S
C178 C176 1.384 . S
C178 C179 1.372 . S
C179 C178 1.372 . S
C179 C180 1.400 . S
C179 C184 1.490 . S
C180 H170 0.930 . S
C180 C179 1.400 . S
C180 C183 1.386 . S
H181 C197 0.930 . S
H182 C198 0.931 . S
C183 H171 0.929 . S
C183 C177 1.390 . S
C183 C180 1.386 . S
C184 C179 1.490 . S
C184 C186 1.395 . S
C184 C187 1.403 . S
H185 C191 0.930 . S
C186 H172 0.930 . S
C186 C184 1.395 . S
C186 C189 1.403 1_655 S
C187 C184 1.403 . S
C187 C188 1.524 . S
C187 C191 1.400 1_655 S
C188 H173 0.960 . S
C188 H174 0.960 . S
C188 H175 0.960 . S
C188 C187 1.524 . S
C189 C186 1.403 1_455 S
C189 C190 1.392 . S
C189 C193 1.495 . S
C190 C189 1.392 . S
C190 C191 1.385 . S
C190 C192 1.478 . S
C191 H185 0.930 . S
C191 C187 1.400 1_455 S
C191 C190 1.385 . S
C192 C190 1.478 . S
C192 C194 1.381 . S
C192 C198 1.383 . S
C193 C189 1.495 . S
C193 H199 0.959 . S
C193 H200 0.961 . S
C193 H201 0.960 . S
C194 C192 1.381 . S
C194 C195 1.394 . S
C194 H202 0.930 . S
C195 C194 1.394 . S
C195 C196 1.383 . S
C195 H203 0.929 . S
C196 C195 1.383 . S
C196 C197 1.377 . S
C197 H181 0.930 . S
C197 C196 1.377 . S
C197 C198 1.379 . S
C198 H182 0.931 . S
C198 C192 1.383 . S
C198 C197 1.379 . S
H199 C193 0.959 . S
H200 C193 0.961 . S
H201 C193 0.960 . S
H202 C194 0.930 . S
H203 C195 0.929 . S
H204 C212 0.929 . S
H205 C214 0.930 . S
H206 C216 0.930 . S
H207 C219 0.929 . S
H208 C222 0.930 . S
H209 C224 0.960 . S
H210 C224 0.960 . S
H211 C224 0.960 . S
C212 H204 0.929 . S
C212 C213 1.377 . S
C212 C214 1.384 . S
C213 C212 1.377 . S
C213 C219 1.390 . S
C214 H205 0.930 . S
C214 C212 1.384 . S
C214 C215 1.372 . S
C215 C214 1.372 . S
C215 C216 1.400 . S
C215 C220 1.490 . S
C216 H206 0.930 . S
C216 C215 1.400 . S
C216 C219 1.386 . S
H217 C233 0.930 . S
H218 C234 0.931 . S
C219 H207 0.929 . S
C219 C213 1.390 . S
C219 C216 1.386 . S
C220 C215 1.490 . S
C220 C222 1.395 . S
C220 C223 1.403 . S
H221 C227 0.930 . S
C222 H208 0.930 . S
C222 C220 1.395 . S
C222 C225 1.403 1_545 S
C223 C220 1.403 . S
C223 C224 1.524 . S
C223 C227 1.400 1_545 S
C224 H209 0.960 . S
C224 H210 0.960 . S
C224 H211 0.960 . S
C224 C223 1.524 . S
C225 C222 1.403 1_565 S
C225 C226 1.392 . S
C225 C229 1.495 . S
C226 C225 1.392 . S
C226 C227 1.385 . S
C226 C228 1.478 . S
C227 H221 0.930 . S
C227 C223 1.400 1_565 S
C227 C226 1.385 . S
C228 C226 1.478 . S
C228 C230 1.381 . S
C228 C234 1.383 . S
C229 C225 1.495 . S
C229 H235 0.959 . S
C229 H236 0.961 . S
C229 H237 0.960 . S
C230 C228 1.381 . S
C230 C231 1.394 . S
C230 H238 0.930 . S
C231 C230 1.394 . S
C231 C232 1.383 . S
C231 H239 0.929 . S
C232 C231 1.383 . S
C232 C233 1.377 . S
C233 H217 0.930 . S
C233 C232 1.377 . S
C233 C234 1.379 . S
C234 H218 0.931 . S
C234 C228 1.383 . S
C234 C233 1.379 . S
H235 C229 0.959 . S
H236 C229 0.961 . S
H237 C229 0.960 . S
H238 C230 0.930 . S
H239 C231 0.929 . S
H240 C248 0.929 . S
H241 C250 0.930 . S
H242 C252 0.930 . S
H243 C255 0.929 . S
H244 C258 0.930 . S
H245 C260 0.960 . S
H246 C260 0.960 . S
H247 C260 0.960 . S
C248 H240 0.929 . S
C248 C249 1.377 . S
C248 C250 1.384 . S
C249 C248 1.377 . S
C249 C255 1.390 . S
C250 H241 0.930 . S
C250 C248 1.384 . S
C250 C251 1.372 . S
C251 C250 1.372 . S
C251 C252 1.400 . S
C251 C256 1.490 . S
C252 H242 0.930 . S
C252 C251 1.400 . S
C252 C255 1.386 . S
H253 C269 0.930 . S
H254 C270 0.931 . S
C255 H243 0.929 . S
C255 C249 1.390 . S
C255 C252 1.386 . S
C256 C251 1.490 . S
C256 C258 1.395 . S
C256 C259 1.403 . S
H257 C263 0.930 . S
C258 H244 0.930 . S
C258 C256 1.395 . S
C258 C261 1.403 . S
C259 C256 1.403 . S
C259 C260 1.524 . S
C259 C263 1.400 . S
C260 H245 0.960 . S
C260 H246 0.960 . S
C260 H247 0.960 . S
C260 C259 1.524 . S
C261 C258 1.403 . S
C261 C262 1.392 . S
C261 C265 1.495 . S
C262 C261 1.392 . S
C262 C263 1.385 . S
C262 C264 1.478 . S
C263 H257 0.930 . S
C263 C259 1.400 . S
C263 C262 1.385 . S
C264 C262 1.478 . S
C264 C266 1.381 . S
C264 C270 1.383 . S
C265 C261 1.495 . S
C265 H271 0.959 . S
C265 H272 0.961 . S
C265 H273 0.960 . S
C266 C264 1.381 . S
C266 C267 1.394 . S
C266 H274 0.930 . S
C267 C266 1.394 . S
C267 C268 1.383 . S
C267 H275 0.929 . S
C268 C267 1.383 . S
C268 C269 1.377 . S
C269 H253 0.930 . S
C269 C268 1.377 . S
C269 C270 1.379 . S
C270 H254 0.931 . S
C270 C264 1.383 . S
C270 C269 1.379 . S
H271 C265 0.959 . S
H272 C265 0.961 . S
H273 C265 0.960 . S
H274 C266 0.930 . S
H275 C267 0.929 . S
H276 C284 0.929 . S
H277 C286 0.930 . S
H278 C288 0.930 . S
H279 C291 0.929 . S
H280 C294 0.930 . S
H281 C296 0.960 1_455 S
H282 C296 0.960 . S
H283 C296 0.960 . S
C284 H276 0.929 . S
C284 C285 1.377 . S
C284 C286 1.384 . S
C285 C284 1.377 . S
C285 C291 1.390 . S
C286 H277 0.930 . S
C286 C284 1.384 . S
C286 C287 1.372 . S
C287 C286 1.372 . S
C287 C288 1.400 . S
C287 C292 1.490 . S
C288 H278 0.930 . S
C288 C287 1.400 . S
C288 C291 1.386 . S
H289 C305 0.930 . S
H290 C306 0.931 . S
C291 H279 0.929 . S
C291 C285 1.390 . S
C291 C288 1.386 . S
C292 C287 1.490 . S
C292 C294 1.395 . S
C292 C295 1.403 . S
H293 C299 0.930 . S
C294 H280 0.930 . S
C294 C292 1.395 . S
C294 C297 1.403 1_655 S
C295 C292 1.403 . S
C295 C296 1.524 . S
C295 C299 1.400 1_655 S
C296 H281 0.960 1_655 S
C296 H282 0.960 . S
C296 H283 0.960 . S
C296 C295 1.524 . S
C297 C294 1.403 1_455 S
C297 C298 1.392 . S
C297 C301 1.495 . S
C298 C297 1.392 . S
C298 C299 1.385 . S
C298 C300 1.478 . S
C299 H293 0.930 . S
C299 C295 1.400 1_455 S
C299 C298 1.385 . S
C300 C298 1.478 . S
C300 C302 1.381 . S
C300 C306 1.383 . S
C301 C297 1.495 . S
C301 H307 0.959 1_455 S
C301 H308 0.961 . S
C301 H309 0.960 . S
C302 C300 1.381 . S
C302 C303 1.394 . S
C302 H310 0.930 . S
C303 C302 1.394 . S
C303 C304 1.383 . S
C303 H311 0.929 . S
C304 C303 1.383 . S
C304 C305 1.377 . S
C305 H289 0.930 . S
C305 C304 1.377 . S
C305 C306 1.379 . S
C306 H290 0.931 . S
C306 C300 1.383 . S
C306 C305 1.379 . S
H307 C301 0.959 1_655 S
H308 C301 0.961 . S
H309 C301 0.960 . S
H310 C302 0.930 . S
H311 C303 0.929 . S
H312 C320 0.929 . S
H313 C322 0.930 . S
H314 C324 0.930 . S
H315 C327 0.929 . S
H316 C330 0.930 . S
H317 C332 0.960 . S
H318 C332 0.960 . S
H319 C332 0.960 . S
C320 H312 0.929 . S
C320 C321 1.377 . S
C320 C322 1.384 . S
C321 C320 1.377 . S
C321 C327 1.390 . S
C322 H313 0.930 . S
C322 C320 1.384 . S
C322 C323 1.372 . S
C323 C322 1.372 . S
C323 C324 1.400 . S
C323 C328 1.490 . S
C324 H314 0.930 . S
C324 C323 1.400 . S
C324 C327 1.386 . S
H325 C341 0.930 . S
H326 C342 0.931 . S
C327 H315 0.929 . S
C327 C321 1.390 . S
C327 C324 1.386 . S
C328 C323 1.490 . S
C328 C330 1.395 . S
C328 C331 1.403 . S
H329 C335 0.930 . S
C330 H316 0.930 . S
C330 C328 1.395 . S
C330 C333 1.403 1_545 S
C331 C328 1.403 . S
C331 C332 1.524 . S
C331 C335 1.400 1_545 S
C332 H317 0.960 . S
C332 H318 0.960 . S
C332 H319 0.960 . S
C332 C331 1.524 . S
C333 C330 1.403 1_565 S
C333 C334 1.392 . S
C333 C337 1.495 . S
C334 C333 1.392 . S
C334 C335 1.385 . S
C334 C336 1.478 . S
C335 H329 0.930 . S
C335 C331 1.400 1_565 S
C335 C334 1.385 . S
C336 C334 1.478 . S
C336 C338 1.381 . S
C336 C342 1.383 . S
C337 C333 1.495 . S
C337 H343 0.959 . S
C337 H344 0.961 . S
C337 H345 0.960 . S
C338 C336 1.381 . S
C338 C339 1.394 . S
C338 H346 0.930 . S
C339 C338 1.394 . S
C339 C340 1.383 . S
C339 H347 0.929 . S
C340 C339 1.383 . S
C340 C341 1.377 . S
C341 H325 0.930 . S
C341 C340 1.377 . S
C341 C342 1.379 . S
C342 H326 0.931 . S
C342 C336 1.383 . S
C342 C341 1.379 . S
H343 C337 0.959 . S
H344 C337 0.961 . S
H345 C337 0.960 . S
H346 C338 0.930 . S
H347 C339 0.929 . S
H348 C356 0.929 . S
H349 C358 0.930 . S
H350 C360 0.930 . S
H351 C363 0.929 . S
H352 C366 0.930 . S
H353 C368 0.960 . S
H354 C368 0.960 . S
H355 C368 0.960 . S
C356 H348 0.929 . S
C356 C357 1.377 . S
C356 C358 1.384 . S
C357 C356 1.377 . S
C357 C363 1.390 . S
C358 H349 0.930 . S
C358 C356 1.384 . S
C358 C359 1.372 . S
C359 C358 1.372 . S
C359 C360 1.400 . S
C359 C364 1.490 . S
C360 H350 0.930 . S
C360 C359 1.400 . S
C360 C363 1.386 . S
H361 C377 0.930 . S
H362 C378 0.931 . S
C363 H351 0.929 . S
C363 C357 1.390 . S
C363 C360 1.386 . S
C364 C359 1.490 . S
C364 C366 1.395 . S
C364 C367 1.403 . S
H365 C371 0.930 . S
C366 H352 0.930 . S
C366 C364 1.395 . S
C366 C369 1.403 . S
C367 C364 1.403 . S
C367 C368 1.524 . S
C367 C371 1.400 . S
C368 H353 0.960 . S
C368 H354 0.960 . S
C368 H355 0.960 . S
C368 C367 1.524 . S
C369 C366 1.403 . S
C369 C370 1.392 . S
C369 C373 1.495 . S
C370 C369 1.392 . S
C370 C371 1.385 . S
C370 C372 1.478 . S
C371 H365 0.930 . S
C371 C367 1.400 . S
C371 C370 1.385 . S
C372 C370 1.478 . S
C372 C374 1.381 . S
C372 C378 1.383 . S
C373 C369 1.495 . S
C373 H379 0.959 . S
C373 H380 0.961 . S
C373 H381 0.960 . S
C374 C372 1.381 . S
C374 C375 1.394 . S
C374 H382 0.930 . S
C375 C374 1.394 . S
C375 C376 1.383 . S
C375 H383 0.929 . S
C376 C375 1.383 . S
C376 C377 1.377 . S
C377 H361 0.930 . S
C377 C376 1.377 . S
C377 C378 1.379 . S
C378 H362 0.931 . S
C378 C372 1.383 . S
C378 C377 1.379 . S
H379 C373 0.959 . S
H380 C373 0.961 . S
H381 C373 0.960 . S
H382 C374 0.930 . S
H383 C375 0.929 . S
H384 C392 0.929 . S
H385 C394 0.930 . S
H386 C396 0.930 . S
H387 C399 0.929 . S
H388 C402 0.930 . S
H389 C404 0.960 . S
H390 C404 0.960 . S
H391 C404 0.960 . S
C392 H384 0.929 . S
C392 C393 1.377 . S
C392 C394 1.384 . S
C393 C392 1.377 . S
C393 C399 1.390 . S
C394 H385 0.930 . S
C394 C392 1.384 . S
C394 C395 1.372 . S
C395 C394 1.372 . S
C395 C396 1.400 . S
C395 C400 1.490 . S
C396 H386 0.930 . S
C396 C395 1.400 . S
C396 C399 1.386 . S
H397 C413 0.930 . S
H398 C414 0.931 . S
C399 H387 0.929 . S
C399 C393 1.390 . S
C399 C396 1.386 . S
C400 C395 1.490 . S
C400 C402 1.395 . S
C400 C403 1.403 . S
H401 C407 0.930 . S
C402 H388 0.930 . S
C402 C400 1.395 . S
C402 C405 1.403 . S
C403 C400 1.403 . S
C403 C404 1.524 . S
C403 C407 1.400 . S
C404 H389 0.960 . S
C404 H390 0.960 . S
C404 H391 0.960 . S
C404 C403 1.524 . S
C405 C402 1.403 . S
C405 C406 1.392 . S
C405 C409 1.495 . S
C406 C405 1.392 . S
C406 C407 1.385 . S
C406 C408 1.478 . S
C407 H401 0.930 . S
C407 C403 1.400 . S
C407 C406 1.385 . S
C408 C406 1.478 . S
C408 C410 1.381 . S
C408 C414 1.383 . S
C409 C405 1.495 . S
C409 H415 0.959 . S
C409 H416 0.961 . S
C409 H417 0.960 . S
C410 C408 1.381 . S
C410 C411 1.394 . S
C410 H418 0.930 . S
C411 C410 1.394 . S
C411 C412 1.383 . S
C411 H419 0.929 . S
C412 C411 1.383 . S
C412 C413 1.377 . S
C413 H397 0.930 . S
C413 C412 1.377 . S
C413 C414 1.379 . S
C414 H398 0.931 . S
C414 C408 1.383 . S
C414 C413 1.379 . S
H415 C409 0.959 . S
H416 C409 0.961 . S
H417 C409 0.960 . S
H418 C410 0.930 . S
H419 C411 0.929 . S
H420 C428 0.929 . S
H421 C430 0.930 . S
H422 C432 0.930 . S
H423 C435 0.929 . S
H424 C438 0.930 . S
H425 C440 0.960 . S
H426 C440 0.960 . S
H427 C440 0.960 . S
C428 H420 0.929 . S
C428 C429 1.377 . S
C428 C430 1.384 . S
C429 C428 1.377 . S
C429 C435 1.390 . S
C430 H421 0.930 . S
C430 C428 1.384 . S
C430 C431 1.372 . S
C431 C430 1.372 . S
C431 C432 1.400 . S
C431 C436 1.490 . S
C432 H422 0.930 . S
C432 C431 1.400 . S
C432 C435 1.386 . S
H433 C449 0.930 . S
H434 C450 0.931 1_455 S
C435 H423 0.929 . S
C435 C429 1.390 . S
C435 C432 1.386 . S
C436 C431 1.490 . S
C436 C438 1.395 . S
C436 C439 1.403 1_455 S
H437 C443 0.930 . S
C438 H424 0.930 . S
C438 C436 1.395 . S
C438 C441 1.403 . S
C439 C436 1.403 1_655 S
C439 C440 1.524 . S
C439 C443 1.400 . S
C440 H425 0.960 . S
C440 H426 0.960 . S
C440 H427 0.960 . S
C440 C439 1.524 . S
C441 C438 1.403 . S
C441 C442 1.392 1_455 S
C441 C445 1.495 . S
C442 C441 1.392 1_655 S
C442 C443 1.385 . S
C442 C444 1.478 . S
C443 H437 0.930 . S
C443 C439 1.400 . S
C443 C442 1.385 . S
C444 C442 1.478 . S
C444 C446 1.381 . S
C444 C450 1.383 . S
C445 C441 1.495 . S
C445 H451 0.959 . S
C445 H452 0.961 . S
C445 H453 0.960 . S
C446 C444 1.381 . S
C446 C447 1.394 . S
C446 H454 0.930 . S
C447 C446 1.394 . S
C447 C448 1.383 . S
C447 H455 0.929 . S
C448 C447 1.383 . S
C448 C449 1.377 . S
C449 H433 0.930 . S
C449 C448 1.377 . S
C449 C450 1.379 . S
C450 H434 0.931 1_655 S
C450 C444 1.383 . S
C450 C449 1.379 . S
H451 C445 0.959 . S
H452 C445 0.961 . S
H453 C445 0.960 . S
H454 C446 0.930 . S
H455 C447 0.929 . S
H456 C464 0.929 . S
H457 C466 0.930 . S
H458 C468 0.930 . S
H459 C471 0.929 . S
H460 C474 0.930 . S
H461 C476 0.960 . S
H462 C476 0.960 . S
H463 C476 0.960 . S
C464 H456 0.929 . S
C464 C465 1.377 . S
C464 C466 1.384 . S
C465 C464 1.377 . S
C465 C471 1.390 . S
C466 H457 0.930 . S
C466 C464 1.384 . S
C466 C467 1.372 . S
C467 C466 1.372 . S
C467 C468 1.400 . S
C467 C472 1.490 . S
C468 H458 0.930 . S
C468 C467 1.400 . S
C468 C471 1.386 . S
H469 C485 0.930 . S
H470 C486 0.931 . S
C471 H459 0.929 . S
C471 C465 1.390 . S
C471 C468 1.386 . S
C472 C467 1.490 . S
C472 C474 1.395 1_545 S
C472 C475 1.403 . S
H473 C479 0.930 . S
C474 H460 0.930 . S
C474 C472 1.395 1_565 S
C474 C477 1.403 . S
C475 C472 1.403 . S
C475 C476 1.524 . S
C475 C479 1.400 . S
C476 H461 0.960 . S
C476 H462 0.960 . S
C476 H463 0.960 . S
C476 C475 1.524 . S
C477 C474 1.403 . S
C477 C478 1.392 . S
C477 C481 1.495 . S
C478 C477 1.392 . S
C478 C479 1.385 1_565 S
C478 C480 1.478 . S
C479 H473 0.930 . S
C479 C475 1.400 . S
C479 C478 1.385 1_545 S
C480 C478 1.478 . S
C480 C482 1.381 . S
C480 C486 1.383 . S
C481 C477 1.495 . S
C481 H487 0.959 . S
C481 H488 0.961 . S
C481 H489 0.960 . S
C482 C480 1.381 . S
C482 C483 1.394 . S
C482 H490 0.930 . S
C483 C482 1.394 . S
C483 C484 1.383 . S
C483 H491 0.929 . S
C484 C483 1.383 . S
C484 C485 1.377 . S
C485 H469 0.930 . S
C485 C484 1.377 . S
C485 C486 1.379 . S
C486 H470 0.931 . S
C486 C480 1.383 . S
C486 C485 1.379 . S
H487 C481 0.959 . S
H488 C481 0.961 . S
H489 C481 0.960 . S
H490 C482 0.930 . S
H491 C483 0.929 . S
H492 C500 0.929 . S
H493 C502 0.930 . S
H494 C504 0.930 . S
H495 C507 0.929 . S
H496 C510 0.930 . S
H497 C512 0.960 . S
H498 C512 0.960 . S
H499 C512 0.960 . S
C500 H492 0.929 . S
C500 C501 1.377 . S
C500 C502 1.384 . S
C501 C500 1.377 . S
C501 C507 1.390 . S
C502 H493 0.930 . S
C502 C500 1.384 . S
C502 C503 1.372 . S
C503 C502 1.372 . S
C503 C504 1.400 . S
C503 C508 1.490 . S
C504 H494 0.930 . S
C504 C503 1.400 . S
C504 C507 1.386 . S
H505 C521 0.930 . S
H506 C522 0.931 . S
C507 H495 0.929 . S
C507 C501 1.390 . S
C507 C504 1.386 . S
C508 C503 1.490 . S
C508 C510 1.395 . S
C508 C511 1.403 . S
H509 C515 0.930 . S
C510 H496 0.930 . S
C510 C508 1.395 . S
C510 C513 1.403 . S
C511 C508 1.403 . S
C511 C512 1.524 . S
C511 C515 1.400 . S
C512 H497 0.960 . S
C512 H498 0.960 . S
C512 H499 0.960 . S
C512 C511 1.524 . S
C513 C510 1.403 . S
C513 C514 1.392 . S
C513 C517 1.495 . S
C514 C513 1.392 . S
C514 C515 1.385 . S
C514 C516 1.478 . S
C515 H509 0.930 . S
C515 C511 1.400 . S
C515 C514 1.385 . S
C516 C514 1.478 . S
C516 C518 1.381 . S
C516 C522 1.383 . S
C517 C513 1.495 . S
C517 H523 0.959 . S
C517 H524 0.961 . S
C517 H525 0.960 . S
C518 C516 1.381 . S
C518 C519 1.394 . S
C518 H526 0.930 . S
C519 C518 1.394 . S
C519 C520 1.383 . S
C519 H527 0.929 . S
C520 C519 1.383 . S
C520 C521 1.377 . S
C521 H505 0.930 . S
C521 C520 1.377 . S
C521 C522 1.379 . S
C522 H506 0.931 . S
C522 C516 1.383 . S
C522 C521 1.379 . S
H523 C517 0.959 . S
H524 C517 0.961 . S
H525 C517 0.960 . S
H526 C518 0.930 . S
H527 C519 0.929 . S
H528 C536 0.929 . S
H529 C538 0.930 . S
H530 C540 0.930 . S
H531 C543 0.929 . S
H532 C546 0.930 . S
H533 C548 0.960 . S
H534 C548 0.960 . S
H535 C548 0.960 . S
C536 H528 0.929 . S
C536 C537 1.377 . S
C536 C538 1.384 . S
C537 C536 1.377 . S
C537 C543 1.390 . S
C538 H529 0.930 . S
C538 C536 1.384 . S
C538 C539 1.372 . S
C539 C538 1.372 . S
C539 C540 1.400 . S
C539 C544 1.490 . S
C540 H530 0.930 . S
C540 C539 1.400 . S
C540 C543 1.386 . S
H541 C557 0.930 . S
H542 C558 0.931 . S
C543 H531 0.929 . S
C543 C537 1.390 . S
C543 C540 1.386 . S
C544 C539 1.490 . S
C544 C546 1.395 1_655 S
C544 C547 1.403 . S
H545 C551 0.930 . S
C546 H532 0.930 . S
C546 C544 1.395 1_455 S
C546 C549 1.403 . S
C547 C544 1.403 . S
C547 C548 1.524 . S
C547 C551 1.400 . S
C548 H533 0.960 . S
C548 H534 0.960 . S
C548 H535 0.960 . S
C548 C547 1.524 . S
C549 C546 1.403 . S
C549 C550 1.392 . S
C549 C553 1.495 . S
C550 C549 1.392 . S
C550 C551 1.385 1_455 S
C550 C552 1.478 . S
C551 H545 0.930 . S
C551 C547 1.400 . S
C551 C550 1.385 1_655 S
C552 C550 1.478 . S
C552 C554 1.381 . S
C552 C558 1.383 . S
C553 C549 1.495 . S
C553 H559 0.959 . S
C553 H560 0.961 . S
C553 H561 0.960 . S
C554 C552 1.381 . S
C554 C555 1.394 . S
C554 H562 0.930 . S
C555 C554 1.394 . S
C555 C556 1.383 . S
C555 H563 0.929 . S
C556 C555 1.383 . S
C556 C557 1.377 . S
C557 H541 0.930 . S
C557 C556 1.377 . S
C557 C558 1.379 . S
C558 H542 0.931 . S
C558 C552 1.383 . S
C558 C557 1.379 . S
H559 C553 0.959 . S
H560 C553 0.961 . S
H561 C553 0.960 . S
H562 C554 0.930 . S
H563 C555 0.929 . S
H564 C572 0.929 . S
H565 C574 0.930 . S
H566 C576 0.930 . S
H567 C579 0.929 . S
H568 C582 0.930 . S
H569 C584 0.960 . S
H570 C584 0.960 . S
H571 C584 0.960 . S
C572 H564 0.929 . S
C572 C573 1.377 . S
C572 C574 1.384 . S
C573 C572 1.377 . S
C573 C579 1.390 . S
C574 H565 0.930 . S
C574 C572 1.384 . S
C574 C575 1.372 . S
C575 C574 1.372 . S
C575 C576 1.400 . S
C575 C580 1.490 . S
C576 H566 0.930 . S
C576 C575 1.400 . S
C576 C579 1.386 . S
H577 C593 0.930 . S
H578 C594 0.931 . S
C579 H567 0.929 . S
C579 C573 1.390 . S
C579 C576 1.386 . S
C580 C575 1.490 . S
C580 C582 1.395 . S
C580 C583 1.403 1_565 S
H581 C587 0.930 . S
C582 H568 0.930 . S
C582 C580 1.395 . S
C582 C585 1.403 . S
C583 C580 1.403 1_545 S
C583 C584 1.524 . S
C583 C587 1.400 . S
C584 H569 0.960 . S
C584 H570 0.960 . S
C584 H571 0.960 . S
C584 C583 1.524 . S
C585 C582 1.403 . S
C585 C586 1.392 1_565 S
C585 C589 1.495 . S
C586 C585 1.392 1_545 S
C586 C587 1.385 . S
C586 C588 1.478 . S
C587 H581 0.930 . S
C587 C583 1.400 . S
C587 C586 1.385 . S
C588 C586 1.478 . S
C588 C590 1.381 . S
C588 C594 1.383 . S
C589 C585 1.495 . S
C589 H595 0.959 . S
C589 H596 0.961 . S
C589 H597 0.960 . S
C590 C588 1.381 . S
C590 C591 1.394 . S
C590 H598 0.930 . S
C591 C590 1.394 . S
C591 C592 1.383 . S
C591 H599 0.929 . S
C592 C591 1.383 . S
C592 C593 1.377 . S
C593 H577 0.930 . S
C593 C592 1.377 . S
C593 C594 1.379 . S
C594 H578 0.931 . S
C594 C588 1.383 . S
C594 C593 1.379 . S
H595 C589 0.959 . S
H596 C589 0.961 . S
H597 C589 0.960 . S
H598 C590 0.930 . S
H599 C591 0.929 . S
H600 C608 0.929 1_565 S
H601 C610 0.930 . S
H602 C612 0.930 . S
H603 C615 0.929 . S
H604 C618 0.930 . S
H605 C620 0.960 . S
H606 C620 0.960 . S
H607 C620 0.960 . S
C608 H600 0.929 1_545 S
C608 C609 1.377 . S
C608 C610 1.384 . S
C609 C608 1.377 . S
C609 C615 1.390 . S
C610 H601 0.930 . S
C610 C608 1.384 . S
C610 C611 1.372 . S
C611 C610 1.372 . S
C611 C612 1.400 . S
C611 C616 1.490 . S
C612 H602 0.930 . S
C612 C611 1.400 . S
C612 C615 1.386 . S
H613 C629 0.930 . S
H614 C630 0.931 . S
C615 H603 0.929 . S
C615 C609 1.390 . S
C615 C612 1.386 . S
C616 C611 1.490 . S
C616 C618 1.395 . S
C616 C619 1.403 . S
H617 C623 0.930 . S
C618 H604 0.930 . S
C618 C616 1.395 . S
C618 C621 1.403 . S
C619 C616 1.403 . S
C619 C620 1.524 . S
C619 C623 1.400 . S
C620 H605 0.960 . S
C620 H606 0.960 . S
C620 H607 0.960 . S
C620 C619 1.524 . S
C621 C618 1.403 . S
C621 C622 1.392 . S
C621 C625 1.495 . S
C622 C621 1.392 . S
C622 C623 1.385 . S
C622 C624 1.478 . S
C623 H617 0.930 . S
C623 C619 1.400 . S
C623 C622 1.385 . S
C624 C622 1.478 . S
C624 C626 1.381 . S
C624 C630 1.383 . S
C625 C621 1.495 . S
C625 H631 0.959 . S
C625 H632 0.961 . S
C625 H633 0.960 . S
C626 C624 1.381 . S
C626 C627 1.394 . S
C626 H634 0.930 . S
C627 C626 1.394 . S
C627 C628 1.383 . S
C627 H635 0.929 . S
C628 C627 1.383 . S
C628 C629 1.377 . S
C629 H613 0.930 . S
C629 C628 1.377 . S
C629 C630 1.379 . S
C630 H614 0.931 . S
C630 C624 1.383 . S
C630 C629 1.379 . S
H631 C625 0.959 . S
H632 C625 0.961 . S
H633 C625 0.960 . S
H634 C626 0.930 . S
H635 C627 0.929 . S
H636 C644 0.929 . S
H637 C646 0.930 . S
H638 C648 0.930 . S
H639 C651 0.928 1_655 S
H640 C654 0.930 . S
H641 C656 0.960 . S
H642 C656 0.960 . S
H643 C656 0.960 . S
C644 H636 0.929 . S
C644 C645 1.377 . S
C644 C646 1.384 . S
C645 C644 1.377 . S
C645 C651 1.390 . S
C646 H637 0.930 . S
C646 C644 1.384 . S
C646 C647 1.372 . S
C647 C646 1.372 . S
C647 C648 1.400 . S
C647 C652 1.490 . S
C648 H638 0.930 . S
C648 C647 1.400 . S
C648 C651 1.386 . S
H649 C665 0.930 . S
H650 C666 0.931 . S
C651 H639 0.928 1_455 S
C651 C645 1.390 . S
C651 C648 1.386 . S
C652 C647 1.490 . S
C652 C654 1.395 . S
C652 C655 1.403 . S
H653 C659 0.930 . S
C654 H640 0.930 . S
C654 C652 1.395 . S
C654 C657 1.403 . S
C655 C652 1.403 . S
C655 C656 1.524 . S
C655 C659 1.400 . S
C656 H641 0.960 . S
C656 H642 0.960 . S
C656 H643 0.960 . S
C656 C655 1.524 . S
C657 C654 1.403 . S
C657 C658 1.392 . S
C657 C661 1.495 . S
C658 C657 1.392 . S
C658 C659 1.385 . S
C658 C660 1.478 . S
C659 H653 0.930 . S
C659 C655 1.400 . S
C659 C658 1.385 . S
C660 C658 1.478 . S
C660 C662 1.381 . S
C660 C666 1.383 . S
C661 C657 1.495 . S
C661 H667 0.959 . S
C661 H668 0.961 . S
C661 H669 0.960 . S
C662 C660 1.381 . S
C662 C663 1.394 . S
C662 H670 0.930 . S
C663 C662 1.394 . S
C663 C664 1.383 . S
C663 H671 0.929 . S
C664 C663 1.383 . S
C664 C665 1.377 . S
C665 H649 0.930 . S
C665 C664 1.377 . S
C665 C666 1.379 . S
C666 H650 0.931 . S
C666 C660 1.383 . S
C666 C665 1.379 . S
H667 C661 0.959 . S
H668 C661 0.961 . S
H669 C661 0.960 . S
H670 C662 0.930 . S
H671 C663 0.929 . S
H672 C680 0.929 1_455 S
H673 C682 0.930 . S
H674 C684 0.930 . S
H675 C687 0.929 . S
H676 C690 0.930 . S
H677 C692 0.960 . S
H678 C692 0.960 . S
H679 C692 0.960 . S
C680 H672 0.929 1_655 S
C680 C681 1.377 . S
C680 C682 1.384 . S
C681 C680 1.377 . S
C681 C687 1.390 . S
C682 H673 0.930 . S
C682 C680 1.384 . S
C682 C683 1.372 . S
C683 C682 1.372 . S
C683 C684 1.400 . S
C683 C688 1.490 . S
C684 H674 0.930 . S
C684 C683 1.400 . S
C684 C687 1.386 . S
H685 C701 0.930 . S
H686 C702 0.931 . S
C687 H675 0.929 . S
C687 C681 1.390 . S
C687 C684 1.386 . S
C688 C683 1.490 . S
C688 C690 1.395 . S
C688 C691 1.403 . S
H689 C695 0.930 . S
C690 H676 0.930 . S
C690 C688 1.395 . S
C690 C693 1.403 . S
C691 C688 1.403 . S
C691 C692 1.524 . S
C691 C695 1.400 . S
C692 H677 0.960 . S
C692 H678 0.960 . S
C692 H679 0.960 . S
C692 C691 1.524 . S
C693 C690 1.403 . S
C693 C694 1.392 . S
C693 C697 1.495 . S
C694 C693 1.392 . S
C694 C695 1.385 . S
C694 C696 1.478 . S
C695 H689 0.930 . S
C695 C691 1.400 . S
C695 C694 1.385 . S
C696 C694 1.478 . S
C696 C698 1.381 . S
C696 C702 1.383 . S
C697 C693 1.495 . S
C697 H703 0.959 . S
C697 H704 0.961 . S
C697 H705 0.960 . S
C698 C696 1.381 . S
C698 C699 1.394 . S
C698 H706 0.930 . S
C699 C698 1.394 . S
C699 C700 1.383 . S
C699 H707 0.929 1_545 S
C700 C699 1.383 . S
C700 C701 1.377 . S
C701 H685 0.930 . S
C701 C700 1.377 . S
C701 C702 1.379 . S
C702 H686 0.931 . S
C702 C696 1.383 . S
C702 C701 1.379 . S
H703 C697 0.959 . S
H704 C697 0.961 . S
H705 C697 0.960 . S
H706 C698 0.930 . S
H707 C699 0.929 1_565 S
H708 C716 0.929 . S
H709 C718 0.930 . S
H710 C720 0.930 . S
H711 C723 0.929 . S
H712 C726 0.930 . S
H713 C728 0.960 . S
H714 C728 0.960 . S
H715 C728 0.960 . S
C716 H708 0.929 . S
C716 C717 1.377 . S
C716 C718 1.384 . S
C717 C716 1.377 . S
C717 C723 1.390 . S
C718 H709 0.930 . S
C718 C716 1.384 . S
C718 C719 1.372 . S
C719 C718 1.372 . S
C719 C720 1.400 . S
C719 C724 1.490 . S
C720 H710 0.930 . S
C720 C719 1.400 . S
C720 C723 1.386 . S
H721 C737 0.930 . S
H722 C738 0.931 . S
C723 H711 0.929 . S
C723 C717 1.390 . S
C723 C720 1.386 . S
C724 C719 1.490 . S
C724 C726 1.395 . S
C724 C727 1.403 . S
H725 C731 0.930 . S
C726 H712 0.930 . S
C726 C724 1.395 . S
C726 C729 1.403 . S
C727 C724 1.403 . S
C727 C728 1.524 . S
C727 C731 1.400 . S
C728 H713 0.960 . S
C728 H714 0.960 . S
C728 H715 0.960 . S
C728 C727 1.524 . S
C729 C726 1.403 . S
C729 C730 1.392 . S
C729 C733 1.495 . S
C730 C729 1.392 . S
C730 C731 1.385 . S
C730 C732 1.478 . S
C731 H725 0.930 . S
C731 C727 1.400 . S
C731 C730 1.385 . S
C732 C730 1.478 . S
C732 C734 1.381 . S
C732 C738 1.383 . S
C733 C729 1.495 . S
C733 H739 0.959 . S
C733 H740 0.961 . S
C733 H741 0.960 . S
C734 C732 1.381 . S
C734 C735 1.394 . S
C734 H742 0.930 . S
C735 C734 1.394 . S
C735 C736 1.383 . S
C735 H743 0.929 . S
C736 C735 1.383 . S
C736 C737 1.377 . S
C737 H721 0.930 . S
C737 C736 1.377 . S
C737 C738 1.379 . S
C738 H722 0.931 . S
C738 C732 1.383 . S
C738 C737 1.379 . S
H739 C733 0.959 . S
H740 C733 0.961 . S
H741 C733 0.960 . S
H742 C734 0.930 . S
H743 C735 0.929 . S
H744 C752 0.929 . S
H745 C754 0.930 . S
H746 C756 0.930 . S
H747 C759 0.929 . S
H748 C762 0.930 . S
H749 C764 0.960 . S
H750 C764 0.960 . S
H751 C764 0.960 . S
C752 H744 0.929 . S
C752 C753 1.377 . S
C752 C754 1.384 . S
C753 C752 1.377 . S
C753 C759 1.390 . S
C754 H745 0.930 . S
C754 C752 1.384 . S
C754 C755 1.372 . S
C755 C754 1.372 . S
C755 C756 1.400 . S
C755 C760 1.490 . S
C756 H746 0.930 . S
C756 C755 1.400 . S
C756 C759 1.386 . S
H757 C773 0.930 . S
H758 C774 0.931 . S
C759 H747 0.929 . S
C759 C753 1.390 . S
C759 C756 1.386 . S
C760 C755 1.490 . S
C760 C762 1.395 . S
C760 C763 1.403 . S
H761 C767 0.930 . S
C762 H748 0.930 . S
C762 C760 1.395 . S
C762 C765 1.403 . S
C763 C760 1.403 . S
C763 C764 1.524 . S
C763 C767 1.400 . S
C764 H749 0.960 . S
C764 H750 0.960 . S
C764 H751 0.960 . S
C764 C763 1.524 . S
C765 C762 1.403 . S
C765 C766 1.392 . S
C765 C769 1.495 . S
C766 C765 1.392 . S
C766 C767 1.385 . S
C766 C768 1.478 . S
C767 H761 0.930 . S
C767 C763 1.400 . S
C767 C766 1.385 . S
C768 C766 1.478 . S
C768 C770 1.381 . S
C768 C774 1.383 . S
C769 C765 1.495 . S
C769 H775 0.959 . S
C769 H776 0.961 . S
C769 H777 0.960 . S
C770 C768 1.381 . S
C770 C771 1.394 . S
C770 H778 0.930 . S
C771 C770 1.394 . S
C771 C772 1.383 . S
C771 H779 0.929 1_655 S
C772 C771 1.383 . S
C772 C773 1.377 . S
C773 H757 0.930 . S
C773 C772 1.377 . S
C773 C774 1.379 . S
C774 H758 0.931 . S
C774 C768 1.383 . S
C774 C773 1.379 . S
H775 C769 0.959 . S
H776 C769 0.961 . S
H777 C769 0.960 . S
H778 C770 0.930 . S
H779 C771 0.929 1_455 S
H780 C788 0.929 . S
H781 C790 0.930 . S
H782 C792 0.930 . S
H783 C795 0.929 1_545 S
H784 C798 0.930 . S
H785 C800 0.960 . S
H786 C800 0.960 . S
H787 C800 0.960 . S
C788 H780 0.929 . S
C788 C789 1.377 . S
C788 C790 1.384 . S
C789 C788 1.377 . S
C789 C795 1.390 . S
C790 H781 0.930 . S
C790 C788 1.384 . S
C790 C791 1.372 . S
C791 C790 1.372 . S
C791 C792 1.400 . S
C791 C796 1.490 . S
C792 H782 0.930 . S
C792 C791 1.400 . S
C792 C795 1.386 . S
H793 C809 0.930 1_655 S
H794 C810 0.931 . S
C795 H783 0.929 1_565 S
C795 C789 1.390 . S
C795 C792 1.386 . S
C796 C791 1.490 . S
C796 C798 1.395 . S
C796 C799 1.403 . S
H797 C803 0.930 . S
C798 H784 0.930 . S
C798 C796 1.395 . S
C798 C801 1.403 . S
C799 C796 1.403 . S
C799 C800 1.524 . S
C799 C803 1.400 . S
C800 H785 0.960 . S
C800 H786 0.960 . S
C800 H787 0.960 . S
C800 C799 1.524 . S
C801 C798 1.403 . S
C801 C802 1.392 . S
C801 C805 1.495 . S
C802 C801 1.392 . S
C802 C803 1.385 . S
C802 C804 1.478 . S
C803 H797 0.930 . S
C803 C799 1.400 . S
C803 C802 1.385 . S
C804 C802 1.478 . S
C804 C806 1.381 . S
C804 C810 1.383 . S
C805 C801 1.495 . S
C805 H811 0.959 . S
C805 H812 0.961 . S
C805 H813 0.960 . S
C806 C804 1.381 . S
C806 C807 1.394 . S
C806 H814 0.930 . S
C807 C806 1.394 . S
C807 C808 1.383 . S
C807 H815 0.929 . S
C808 C807 1.383 . S
C808 C809 1.377 . S
C809 H793 0.930 1_455 S
C809 C808 1.377 . S
C809 C810 1.379 . S
C810 H794 0.931 . S
C810 C804 1.383 . S
C810 C809 1.379 . S
H811 C805 0.959 . S
H812 C805 0.961 . S
H813 C805 0.960 . S
H814 C806 0.930 . S
H815 C807 0.929 . S
H816 C824 0.929 . S
H817 C826 0.930 . S
H818 C828 0.930 . S
H819 C831 0.929 . S
H820 C834 0.930 . S
H821 C836 0.960 . S
H822 C836 0.960 . S
H823 C836 0.960 . S
C824 H816 0.929 . S
C824 C825 1.377 . S
C824 C826 1.384 . S
C825 C824 1.377 . S
C825 C831 1.390 . S
C826 H817 0.930 . S
C826 C824 1.384 . S
C826 C827 1.372 . S
C827 C826 1.372 . S
C827 C828 1.400 . S
C827 C832 1.490 . S
C828 H818 0.930 . S
C828 C827 1.400 . S
C828 C831 1.386 . S
H829 C845 0.930 . S
H830 C846 0.931 . S
C831 H819 0.929 . S
C831 C825 1.390 . S
C831 C828 1.386 . S
C832 C827 1.490 . S
C832 C834 1.395 . S
C832 C835 1.403 . S
H833 C839 0.930 . S
C834 H820 0.930 . S
C834 C832 1.395 . S
C834 C837 1.403 . S
C835 C832 1.403 . S
C835 C836 1.524 . S
C835 C839 1.400 . S
C836 H821 0.960 . S
C836 H822 0.960 . S
C836 H823 0.960 . S
C836 C835 1.524 . S
C837 C834 1.403 . S
C837 C838 1.392 . S
C837 C841 1.495 . S
C838 C837 1.392 . S
C838 C839 1.385 . S
C838 C840 1.478 . S
C839 H833 0.930 . S
C839 C835 1.400 . S
C839 C838 1.385 . S
C840 C838 1.478 . S
C840 C842 1.381 . S
C840 C846 1.383 . S
C841 C837 1.495 . S
C841 H847 0.959 . S
C841 H848 0.961 . S
C841 H849 0.960 . S
C842 C840 1.381 . S
C842 C843 1.394 . S
C842 H850 0.930 . S
C843 C842 1.394 . S
C843 C844 1.383 . S
C843 H851 0.929 . S
C844 C843 1.383 . S
C844 C845 1.377 . S
C845 H829 0.930 . S
C845 C844 1.377 . S
C845 C846 1.379 . S
C846 H830 0.931 . S
C846 C840 1.383 . S
C846 C845 1.379 . S
H847 C841 0.959 . S
H848 C841 0.961 . S
H849 C841 0.960 . S
H850 C842 0.930 . S
H851 C843 0.929 . S
H852 C860 0.929 . S
H853 C862 0.930 . S
H854 C864 0.930 1_455 S
H855 C867 0.929 1_455 S
H856 C870 0.930 . S
H857 C872 0.960 . S
H858 C872 0.960 . S
H859 C872 0.960 . S
C860 H852 0.929 . S
C860 C861 1.377 . S
C860 C862 1.384 . S
C861 C860 1.377 . S
C861 C867 1.390 . S
C862 H853 0.930 . S
C862 C860 1.384 . S
C862 C863 1.372 . S
C863 C862 1.372 . S
C863 C864 1.400 . S
C863 C868 1.490 . S
C864 H854 0.930 1_655 S
C864 C863 1.400 . S
C864 C867 1.386 . S
H865 C881 0.930 . S
H866 C882 0.931 . S
C867 H855 0.929 1_655 S
C867 C861 1.390 . S
C867 C864 1.386 . S
C868 C863 1.490 . S
C868 C870 1.395 . S
C868 C871 1.403 1_655 S
H869 C875 0.930 . S
C870 H856 0.930 . S
C870 C868 1.395 . S
C870 C873 1.403 . S
C871 C868 1.403 1_455 S
C871 C872 1.524 . S
C871 C875 1.400 . S
C872 H857 0.960 . S
C872 H858 0.960 . S
C872 H859 0.960 . S
C872 C871 1.524 . S
C873 C870 1.403 . S
C873 C874 1.392 1_655 S
C873 C877 1.495 . S
C874 C873 1.392 1_455 S
C874 C875 1.385 . S
C874 C876 1.478 . S
C875 H869 0.930 . S
C875 C871 1.400 . S
C875 C874 1.385 . S
C876 C874 1.478 . S
C876 C878 1.381 1_455 S
C876 C882 1.383 . S
C877 C873 1.495 . S
C877 H883 0.959 . S
C877 H884 0.961 . S
C877 H885 0.960 . S
C878 C876 1.381 1_655 S
C878 C879 1.394 1_655 S
C878 H886 0.930 . S
C879 C878 1.394 1_455 S
C879 C880 1.383 . S
C879 H887 0.943 . S
C880 C879 1.383 . S
C880 C881 1.377 . S
C881 H865 0.930 . S
C881 C880 1.377 . S
C881 C882 1.379 . S
C882 H866 0.931 . S
C882 C876 1.383 . S
C882 C881 1.379 . S
H883 C877 0.959 . S
H884 C877 0.961 . S
H885 C877 0.960 . S
H886 C878 0.930 . S
H887 C879 0.943 . S
H888 C896 0.929 . S
H889 C898 0.930 . S
H890 C900 0.930 . S
H891 C903 0.929 . S
H892 C906 0.930 . S
H893 C908 0.960 1_556 S
H894 C908 0.960 . S
H895 C908 0.960 . S
C896 H888 0.929 . S
C896 C897 1.377 . S
C896 C898 1.384 . S
C897 C896 1.377 . S
C897 C903 1.390 . S
C898 H889 0.930 . S
C898 C896 1.384 . S
C898 C899 1.372 . S
C899 C898 1.372 . S
C899 C900 1.400 . S
C899 C904 1.490 . S
C900 H890 0.930 . S
C900 C899 1.400 . S
C900 C903 1.386 . S
H901 C917 0.930 . S
H902 C918 0.931 . S
C903 H891 0.929 . S
C903 C897 1.390 . S
C903 C900 1.386 . S
C904 C899 1.490 . S
C904 C906 1.395 1_545 S
C904 C907 1.403 . S
H905 C911 0.930 . S
C906 H892 0.930 . S
C906 C904 1.395 1_565 S
C906 C909 1.403 1_554 S
C907 C904 1.403 . S
C907 C908 1.524 . S
C907 C911 1.400 1_554 S
C908 H893 0.960 1_554 S
C908 H894 0.960 . S
C908 H895 0.960 . S
C908 C907 1.524 . S
C909 C906 1.403 1_556 S
C909 C910 1.392 . S
C909 C913 1.495 . S
C910 C909 1.392 . S
C910 C911 1.385 1_565 S
C910 C912 1.478 . S
C911 H905 0.930 . S
C911 C907 1.400 1_556 S
C911 C910 1.385 1_545 S
C912 C910 1.478 . S
C912 C914 1.381 . S
C912 C918 1.383 . S
C913 C909 1.495 . S
C913 H919 0.959 1_556 S
C913 H920 0.961 . S
C913 H921 0.960 . S
C914 C912 1.381 . S
C914 C915 1.394 . S
C914 H922 0.930 . S
C915 C914 1.394 . S
C915 C916 1.383 . S
C915 H923 0.929 . S
C916 C915 1.383 . S
C916 C917 1.377 . S
C917 H901 0.930 . S
C917 C916 1.377 . S
C917 C918 1.379 . S
C918 H902 0.931 . S
C918 C912 1.383 . S
C918 C917 1.379 . S
H919 C913 0.959 1_554 S
H920 C913 0.961 . S
H921 C913 0.960 . S
H922 C914 0.930 . S
H923 C915 0.929 . S
H924 C932 0.929 . S
H925 C934 0.930 . S
H926 C936 0.930 . S
H927 C939 0.929 . S
H928 C942 0.930 . S
H929 C944 0.960 . S
H930 C944 0.960 . S
H931 C944 0.960 . S
C932 H924 0.929 . S
C932 C933 1.377 . S
C932 C934 1.384 . S
C933 C932 1.377 . S
C933 C939 1.390 . S
C934 H925 0.930 . S
C934 C932 1.384 . S
C934 C935 1.372 . S
C935 C934 1.372 . S
C935 C936 1.400 . S
C935 C940 1.490 . S
C936 H926 0.930 . S
C936 C935 1.400 . S
C936 C939 1.386 . S
H937 C953 0.930 . S
H938 C954 0.931 . S
C939 H927 0.929 . S
C939 C933 1.390 . S
C939 C936 1.386 . S
C940 C935 1.490 . S
C940 C942 1.395 . S
C940 C943 1.403 . S
H941 C947 0.930 . S
C942 H928 0.930 . S
C942 C940 1.395 . S
C942 C945 1.403 . S
C943 C940 1.403 . S
C943 C944 1.524 . S
C943 C947 1.400 . S
C944 H929 0.960 . S
C944 H930 0.960 . S
C944 H931 0.960 . S
C944 C943 1.524 . S
C945 C942 1.403 . S
C945 C946 1.392 . S
C945 C949 1.495 . S
C946 C945 1.392 . S
C946 C947 1.385 . S
C946 C948 1.478 . S
C947 H941 0.930 . S
C947 C943 1.400 . S
C947 C946 1.385 . S
C948 C946 1.478 . S
C948 C950 1.381 . S
C948 C954 1.383 . S
C949 C945 1.495 . S
C949 H955 0.959 . S
C949 H956 0.961 . S
C949 H957 0.960 . S
C950 C948 1.381 . S
C950 C951 1.394 . S
C950 H958 0.930 . S
C951 C950 1.394 . S
C951 C952 1.383 . S
C951 H959 0.929 . S
C952 C951 1.383 . S
C952 C953 1.377 . S
C953 H937 0.930 . S
C953 C952 1.377 . S
C953 C954 1.379 . S
C954 H938 0.931 . S
C954 C948 1.383 . S
C954 C953 1.379 . S
H955 C949 0.959 . S
H956 C949 0.961 . S
H957 C949 0.960 . S
H958 C950 0.930 . S
H959 C951 0.929 . S
H960 C968 0.929 1_655 S
H961 C970 0.930 . S
H962 C972 0.930 . S
H963 C975 0.929 . S
H964 C978 0.930 . S
H965 C980 0.960 . S
H966 C980 0.960 . S
H967 C980 0.960 1_455 S
C968 H960 0.929 1_455 S
C968 C969 1.377 . S
C968 C970 1.384 1_455 S
C969 C968 1.377 . S
C969 C975 1.390 . S
C970 H961 0.930 . S
C970 C968 1.384 1_655 S
C970 C971 1.372 1_655 S
C971 C970 1.372 1_455 S
C971 C972 1.400 . S
C971 C976 1.490 . S
C972 H962 0.930 . S
C972 C971 1.400 . S
C972 C975 1.386 . S
H973 C989 0.930 1_455 S
H974 C990 0.931 . S
C975 H963 0.929 . S
C975 C969 1.390 . S
C975 C972 1.386 . S
C976 C971 1.490 . S
C976 C978 1.395 . S
C976 C979 1.403 1_455 S
H977 C983 0.930 . S
C978 H964 0.930 . S
C978 C976 1.395 . S
C978 C981 1.403 1_455 S
C979 C976 1.403 1_655 S
C979 C980 1.524 . S
C979 C983 1.400 . S
C980 H965 0.960 . S
C980 H966 0.960 . S
C980 H967 0.960 1_655 S
C980 C979 1.524 . S
C981 C978 1.403 1_655 S
C981 C982 1.392 . S
C981 C985 1.511 . S
C982 C981 1.392 . S
C982 C983 1.385 . S
C982 C984 1.478 . S
C983 H977 0.930 . S
C983 C979 1.400 . S
C983 C982 1.385 . S
C984 C982 1.478 . S
C984 C986 1.381 . S
C984 C990 1.383 1_655 S
C985 C981 1.511 . S
C985 H991 0.941 1_655 S
C985 H992 0.941 1_655 S
C985 H993 0.983 . S
C986 C984 1.381 . S
C986 C987 1.394 . S
C986 H994 0.930 . S
C987 C986 1.394 . S
C987 C988 1.383 . S
C987 H995 0.929 . S
C988 C987 1.383 . S
C988 C989 1.377 . S
C989 H973 0.930 1_655 S
C989 C988 1.377 . S
C989 C990 1.379 1_655 S
C990 H974 0.931 . S
C990 C984 1.383 1_455 S
C990 C989 1.379 1_455 S
H991 C985 0.941 1_455 S
H992 C985 0.941 1_455 S
H993 C985 0.983 . S
H994 C986 0.930 . S
H995 C987 0.929 . S
H996 C1004 0.929 . S
H997 C1006 0.930 1_545 S
H998 C1008 0.930 . S
H999 C1011 0.929 . S
H1000 C1014 0.930 . S
H1001 C1016 0.960 . S
H1002 C1016 0.960 . S
H1003 C1016 0.956 1_565 S
C1004 H996 0.929 . S
C1004 C1005 1.377 . S
C1004 C1006 1.384 . S
C1005 C1004 1.377 . S
C1005 C1011 1.390 . S
C1006 H997 0.930 1_565 S
C1006 C1004 1.384 . S
C1006 C1007 1.372 . S
C1007 C1006 1.372 . S
C1007 C1008 1.400 . S
C1007 C1012 1.490 . S
C1008 H998 0.930 . S
C1008 C1007 1.400 . S
C1008 C1011 1.386 . S
H1009 C1025 0.930 1_565 S
H1010 C1026 0.931 . S
C1011 H999 0.929 . S
C1011 C1005 1.390 . S
C1011 C1008 1.386 . S
C1012 C1007 1.490 . S
C1012 C1014 1.395 . S
C1012 C1015 1.403 1_565 S
H1013 C1019 0.930 . S
C1014 H1000 0.930 . S
C1014 C1012 1.395 . S
C1014 C1017 1.403 1_554 S
C1015 C1012 1.403 1_545 S
C1015 C1016 1.524 . S
C1015 C1019 1.400 1_554 S
C1016 H1001 0.960 . S
C1016 H1002 0.960 . S
C1016 H1003 0.956 1_545 S
C1016 C1015 1.524 . S
C1017 C1014 1.403 1_556 S
C1017 C1018 1.392 1_565 S
C1017 C1021 1.495 . S
C1018 C1017 1.392 1_545 S
C1018 C1019 1.385 . S
C1018 C1020 1.478 . S
C1019 H1013 0.930 . S
C1019 C1015 1.400 1_556 S
C1019 C1018 1.385 . S
C1020 C1018 1.478 . S
C1020 C1022 1.381 . S
C1020 C1026 1.383 1_545 S
C1021 C1017 1.495 . S
C1021 H1027 0.959 . S
C1021 H1028 0.961 . S
C1021 H1029 0.960 1_565 S
C1022 C1020 1.381 . S
C1022 C1023 1.394 . S
C1022 H1030 0.930 . S
C1023 C1022 1.394 . S
C1023 C1024 1.383 . S
C1023 H1031 0.929 . S
C1024 C1023 1.383 . S
C1024 C1025 1.377 . S
C1025 H1009 0.930 1_545 S
C1025 C1024 1.377 . S
C1025 C1026 1.379 1_545 S
C1026 H1010 0.931 . S
C1026 C1020 1.383 1_565 S
C1026 C1025 1.379 1_565 S
H1027 C1021 0.959 . S
H1028 C1021 0.961 . S
H1029 C1021 0.960 1_545 S
H1030 C1022 0.930 . S
H1031 C1023 0.929 . S
C177 C159 1.225 . S
C196 C5 1.216 . S
C213 C19 1.215 . S
C232 C89 1.244 . S
C249 C33 1.220 . S
C268 C103 1.190 . S
C285 C47 1.209 . S
C304 C117 1.169 . S
C321 C131 1.227 . S
C340 C61 1.243 . S
C357 C75 1.211 . S
C376 C145 1.223 . S
C393 C54 0.929 . S
C412 C12 0.967 . S
C429 C68 0.928 . S
C448 C26 0.930 . S
C465 C82 0.931 . S
C484 C40 0.964 . S
C501 C96 0.926 . S
C520 C138 0.957 . S
C537 C110 0.932 . S
C556 C152 0.961 . S
C573 C124 0.932 . S
C592 C166 0.908 . S
C609 C116 0.508 . S
C628 C4 0.495 . S
C645 C18 0.517 . S
C664 C130 0.500 . S
C681 C144 0.509 . S
C700 C32 0.490 . S
C717 C158 0.499 . S
C736 C46 0.547 . S
C753 C88 0.513 . S
C772 C60 0.477 . S
C789 C74 0.514 . S
C808 C102 0.512 . S
C825 C137 1.538 . S
C844 C11 1.530 . S
C861 C25 1.534 . S
C880 C151 1.521 . S
C897 C165 1.543 . S
C916 C39 1.557 . S
C933 C53 1.542 . S
C952 C95 1.551 . S
C969 C67 1.535 . S
C988 C109 1.517 . S
C1005 C123 1.534 . S
C1024 C81 1.513 . S
