# Generated by pormake.
# Topology ums, (4)-cn, num edge types: 1
# Building blocks:
#     Node 0, Type 0, BuildingBlock: AZAVOO_clean_sbu_0, # of connection points: 4
#     Node 1, Type 0, BuildingBlock: AZAVOO_clean_sbu_0, # of connection points: 4
#     Node 2, Type 0, BuildingBlock: AZAVOO_clean_sbu_0, # of connection points: 4
#     Node 3, Type 0, BuildingBlock: AZAVOO_clean_sbu_0, # of connection points: 4
#     Node 4, Type 0, BuildingBlock: AZAVOO_clean_sbu_0, # of connection points: 4
#     Node 5, Type 0, BuildingBlock: AZAVOO_clean_sbu_0, # of connection points: 4
#     Node 6, Type 0, BuildingBlock: AZAVOO_clean_sbu_0, # of connection points: 4
#     Node 7, Type 0, BuildingBlock: AZAVOO_clean_sbu_0, # of connection points: 4
#     Node 8, Type 0, BuildingBlock: AZAVOO_clean_sbu_0, # of connection points: 4
#     Node 9, Type 0, BuildingBlock: AZAVOO_clean_sbu_0, # of connection points: 4
#     Node 10, Type 0, BuildingBlock: AZAVOO_clean_sbu_0, # of connection points: 4
#     Node 11, Type 0, BuildingBlock: AZAVOO_clean_sbu_0, # of connection points: 4
#     Node 12, Type 0, BuildingBlock: AZAVOO_clean_sbu_0, # of connection points: 4
#     Node 13, Type 0, BuildingBlock: AZAVOO_clean_sbu_0, # of connection points: 4
#     Node 14, Type 0, BuildingBlock: AZAVOO_clean_sbu_0, # of connection points: 4
#     Node 15, Type 0, BuildingBlock: AZAVOO_clean_sbu_0, # of connection points: 4
#     Node 16, Type 0, BuildingBlock: AZAVOO_clean_sbu_0, # of connection points: 4
#     Node 17, Type 0, BuildingBlock: AZAVOO_clean_sbu_0, # of connection points: 4
#     Node 18, Type 0, BuildingBlock: AZAVOO_clean_sbu_0, # of connection points: 4
#     Node 19, Type 0, BuildingBlock: AZAVOO_clean_sbu_0, # of connection points: 4
#     Node 20, Type 0, BuildingBlock: AZAVOO_clean_sbu_0, # of connection points: 4
#     Node 21, Type 0, BuildingBlock: AZAVOO_clean_sbu_0, # of connection points: 4
#     Node 22, Type 0, BuildingBlock: AZAVOO_clean_sbu_0, # of connection points: 4
#     Node 23, Type 0, BuildingBlock: AZAVOO_clean_sbu_0, # of connection points: 4
#     Node 24, Type 0, BuildingBlock: AZAVOO_clean_sbu_0, # of connection points: 4
#     Node 25, Type 0, BuildingBlock: AZAVOO_clean_sbu_0, # of connection points: 4
#     Node 26, Type 0, BuildingBlock: AZAVOO_clean_sbu_0, # of connection points: 4
#     Node 27, Type 0, BuildingBlock: AZAVOO_clean_sbu_0, # of connection points: 4
#     Node 28, Type 0, BuildingBlock: AZAVOO_clean_sbu_0, # of connection points: 4
#     Node 29, Type 0, BuildingBlock: AZAVOO_clean_sbu_0, # of connection points: 4
#     Node 30, Type 0, BuildingBlock: AZAVOO_clean_sbu_0, # of connection points: 4
#     Node 31, Type 0, BuildingBlock: AZAVOO_clean_sbu_0, # of connection points: 4
#     Node 32, Type 0, BuildingBlock: AZAVOO_clean_sbu_0, # of connection points: 4
#     Node 33, Type 0, BuildingBlock: AZAVOO_clean_sbu_0, # of connection points: 4
#     Node 34, Type 0, BuildingBlock: AZAVOO_clean_sbu_0, # of connection points: 4
#     Node 35, Type 0, BuildingBlock: AZAVOO_clean_sbu_0, # of connection points: 4
#     Edge 36, Type (0, 0), BuildingBlock: KIFKEQ_clean_linker_1, # of connection points: 2
#     Edge 37, Type (0, 0), BuildingBlock: KIFKEQ_clean_linker_1, # of connection points: 2
#     Edge 38, Type (0, 0), BuildingBlock: KIFKEQ_clean_linker_1, # of connection points: 2
#     Edge 39, Type (0, 0), BuildingBlock: KIFKEQ_clean_linker_1, # of connection points: 2
#     Edge 40, Type (0, 0), BuildingBlock: KIFKEQ_clean_linker_1, # of connection points: 2
#     Edge 41, Type (0, 0), BuildingBlock: KIFKEQ_clean_linker_1, # of connection points: 2
#     Edge 42, Type (0, 0), BuildingBlock: KIFKEQ_clean_linker_1, # of connection points: 2
#     Edge 43, Type (0, 0), BuildingBlock: KIFKEQ_clean_linker_1, # of connection points: 2
#     Edge 44, Type (0, 0), BuildingBlock: KIFKEQ_clean_linker_1, # of connection points: 2
#     Edge 45, Type (0, 0), BuildingBlock: KIFKEQ_clean_linker_1, # of connection points: 2
#     Edge 46, Type (0, 0), BuildingBlock: KIFKEQ_clean_linker_1, # of connection points: 2
#     Edge 47, Type (0, 0), BuildingBlock: KIFKEQ_clean_linker_1, # of connection points: 2
#     Edge 48, Type (0, 0), BuildingBlock: KIFKEQ_clean_linker_1, # of connection points: 2
#     Edge 49, Type (0, 0), BuildingBlock: KIFKEQ_clean_linker_1, # of connection points: 2
#     Edge 50, Type (0, 0), BuildingBlock: KIFKEQ_clean_linker_1, # of connection points: 2
#     Edge 51, Type (0, 0), BuildingBlock: KIFKEQ_clean_linker_1, # of connection points: 2
#     Edge 52, Type (0, 0), BuildingBlock: KIFKEQ_clean_linker_1, # of connection points: 2
#     Edge 53, Type (0, 0), BuildingBlock: KIFKEQ_clean_linker_1, # of connection points: 2
#     Edge 54, Type (0, 0), BuildingBlock: KIFKEQ_clean_linker_1, # of connection points: 2
#     Edge 55, Type (0, 0), BuildingBlock: KIFKEQ_clean_linker_1, # of connection points: 2
#     Edge 56, Type (0, 0), BuildingBlock: KIFKEQ_clean_linker_1, # of connection points: 2
#     Edge 57, Type (0, 0), BuildingBlock: KIFKEQ_clean_linker_1, # of connection points: 2
#     Edge 58, Type (0, 0), BuildingBlock: KIFKEQ_clean_linker_1, # of connection points: 2
#     Edge 59, Type (0, 0), BuildingBlock: KIFKEQ_clean_linker_1, # of connection points: 2
#     Edge 60, Type (0, 0), BuildingBlock: KIFKEQ_clean_linker_1, # of connection points: 2
#     Edge 61, Type (0, 0), BuildingBlock: KIFKEQ_clean_linker_1, # of connection points: 2
#     Edge 62, Type (0, 0), BuildingBlock: KIFKEQ_clean_linker_1, # of connection points: 2
#     Edge 63, Type (0, 0), BuildingBlock: KIFKEQ_clean_linker_1, # of connection points: 2
#     Edge 64, Type (0, 0), BuildingBlock: KIFKEQ_clean_linker_1, # of connection points: 2
#     Edge 65, Type (0, 0), BuildingBlock: KIFKEQ_clean_linker_1, # of connection points: 2
#     Edge 66, Type (0, 0), BuildingBlock: KIFKEQ_clean_linker_1, # of connection points: 2
#     Edge 67, Type (0, 0), BuildingBlock: KIFKEQ_clean_linker_1, # of connection points: 2
#     Edge 68, Type (0, 0), BuildingBlock: KIFKEQ_clean_linker_1, # of connection points: 2
#     Edge 69, Type (0, 0), BuildingBlock: KIFKEQ_clean_linker_1, # of connection points: 2
#     Edge 70, Type (0, 0), BuildingBlock: KIFKEQ_clean_linker_1, # of connection points: 2
#     Edge 71, Type (0, 0), BuildingBlock: KIFKEQ_clean_linker_1, # of connection points: 2
#     Edge 72, Type (0, 0), BuildingBlock: KIFKEQ_clean_linker_1, # of connection points: 2
#     Edge 73, Type (0, 0), BuildingBlock: KIFKEQ_clean_linker_1, # of connection points: 2
#     Edge 74, Type (0, 0), BuildingBlock: KIFKEQ_clean_linker_1, # of connection points: 2
#     Edge 75, Type (0, 0), BuildingBlock: KIFKEQ_clean_linker_1, # of connection points: 2
#     Edge 76, Type (0, 0), BuildingBlock: KIFKEQ_clean_linker_1, # of connection points: 2
#     Edge 77, Type (0, 0), BuildingBlock: KIFKEQ_clean_linker_1, # of connection points: 2
#     Edge 78, Type (0, 0), BuildingBlock: KIFKEQ_clean_linker_1, # of connection points: 2
#     Edge 79, Type (0, 0), BuildingBlock: KIFKEQ_clean_linker_1, # of connection points: 2
#     Edge 80, Type (0, 0), BuildingBlock: KIFKEQ_clean_linker_1, # of connection points: 2
#     Edge 81, Type (0, 0), BuildingBlock: KIFKEQ_clean_linker_1, # of connection points: 2
#     Edge 82, Type (0, 0), BuildingBlock: KIFKEQ_clean_linker_1, # of connection points: 2
#     Edge 83, Type (0, 0), BuildingBlock: KIFKEQ_clean_linker_1, # of connection points: 2
#     Edge 84, Type (0, 0), BuildingBlock: KIFKEQ_clean_linker_1, # of connection points: 2
#     Edge 85, Type (0, 0), BuildingBlock: KIFKEQ_clean_linker_1, # of connection points: 2
#     Edge 86, Type (0, 0), BuildingBlock: KIFKEQ_clean_linker_1, # of connection points: 2
#     Edge 87, Type (0, 0), BuildingBlock: KIFKEQ_clean_linker_1, # of connection points: 2
#     Edge 88, Type (0, 0), BuildingBlock: KIFKEQ_clean_linker_1, # of connection points: 2
#     Edge 89, Type (0, 0), BuildingBlock: KIFKEQ_clean_linker_1, # of connection points: 2
#     Edge 90, Type (0, 0), BuildingBlock: KIFKEQ_clean_linker_1, # of connection points: 2
#     Edge 91, Type (0, 0), BuildingBlock: KIFKEQ_clean_linker_1, # of connection points: 2
#     Edge 92, Type (0, 0), BuildingBlock: KIFKEQ_clean_linker_1, # of connection points: 2
#     Edge 93, Type (0, 0), BuildingBlock: KIFKEQ_clean_linker_1, # of connection points: 2
#     Edge 94, Type (0, 0), BuildingBlock: KIFKEQ_clean_linker_1, # of connection points: 2
#     Edge 95, Type (0, 0), BuildingBlock: KIFKEQ_clean_linker_1, # of connection points: 2
#     Edge 96, Type (0, 0), BuildingBlock: KIFKEQ_clean_linker_1, # of connection points: 2
#     Edge 97, Type (0, 0), BuildingBlock: KIFKEQ_clean_linker_1, # of connection points: 2
#     Edge 98, Type (0, 0), BuildingBlock: KIFKEQ_clean_linker_1, # of connection points: 2
#     Edge 99, Type (0, 0), BuildingBlock: KIFKEQ_clean_linker_1, # of connection points: 2
#     Edge 100, Type (0, 0), BuildingBlock: KIFKEQ_clean_linker_1, # of connection points: 2
#     Edge 101, Type (0, 0), BuildingBlock: KIFKEQ_clean_linker_1, # of connection points: 2
#     Edge 102, Type (0, 0), BuildingBlock: KIFKEQ_clean_linker_1, # of connection points: 2
#     Edge 103, Type (0, 0), BuildingBlock: KIFKEQ_clean_linker_1, # of connection points: 2
#     Edge 104, Type (0, 0), BuildingBlock: KIFKEQ_clean_linker_1, # of connection points: 2
#     Edge 105, Type (0, 0), BuildingBlock: KIFKEQ_clean_linker_1, # of connection points: 2
#     Edge 106, Type (0, 0), BuildingBlock: KIFKEQ_clean_linker_1, # of connection points: 2
#     Edge 107, Type (0, 0), BuildingBlock: KIFKEQ_clean_linker_1, # of connection points: 2
# Relax obj value: 0.200
# Max RMSD: 0.160
# Mean RMSD: 0.152
data_MOF--net-ums--node1-AZAVOO_clean_sbu_0--edge1-KIFKEQ_clean_linker_1
_symmetry_space_group_name_H-M    P1
_symmetry_Int_Tables_number       1
_symmetry_cell_setting            triclinic
loop_
_symmetry_equiv_pos_as_xyz
'x, y, z'
_cell_length_a     103.18209
_cell_length_b     102.40653
_cell_length_c     23.579221
_cell_angle_alpha  89.094157
_cell_angle_beta   90.025872
_cell_angle_gamma 120.26844
loop_
_atom_site_label
_atom_site_type_symbol
_atom_site_fract_x
_atom_site_fract_y
_atom_site_fract_z
_atom_type_partial_charge
Mg0 Mg 0.16598 0.25269 0.19793 0.0
O1 O 0.17553 0.27792 0.1724 0.0
O2 O 0.15561 0.27992 0.14858 0.0
Mg3 Mg 0.13402 0.25744 0.16172 0.0
C4 C 0.16976 0.2857 0.15426 0.0
C5 C 0.19823 0.25782 0.19853 0.0
O6 O 0.19633 0.25897 0.14397 0.0
O7 O 0.15779 0.25595 0.28415 0.0
O8 O 0.13837 0.25858 0.25712 0.0
O9 O 0.16651 0.24734 0.10619 0.0
O10 O 0.14708 0.2463 0.14992 0.0
C11 C 0.1468 0.25797 0.29544 0.0
C12 C 0.15307 0.24526 0.10384 0.0
O13 O 0.18836 0.25701 0.23303 0.0
Mg14 Mg 0.73697 0.90979 0.23556 0.0
O15 O 0.71231 0.89269 0.22806 0.0
O16 O 0.69988 0.89169 0.30663 0.0
Mg17 Mg 0.71815 0.9072 0.36935 0.0
C18 C 0.70013 0.88758 0.25603 0.0
C19 C 0.74824 0.91669 0.10539 0.0
O20 O 0.76088 0.92797 0.12409 0.0
O21 O 0.73174 0.92869 0.23028 0.0
O22 O 0.72202 0.92799 0.31581 0.0
O23 O 0.74153 0.89204 0.2675 0.0
O24 O 0.73637 0.90614 0.32281 0.0
C25 C 0.72652 0.93402 0.26651 0.0
C26 C 0.73933 0.89537 0.31803 0.0
O27 O 0.73774 0.90856 0.14017 0.0
Mg28 Mg 0.06717 0.83061 0.17732 0.0
O29 O 0.08451 0.82444 0.14447 0.0
O30 O 0.1039 0.84567 0.10836 0.0
Mg31 Mg 0.09974 0.86516 0.12199 0.0
C32 C 0.09723 0.83148 0.11891 0.0
C33 C 0.04737 0.79595 0.19207 0.0
O34 O 0.0504 0.79728 0.13748 0.0
O35 O 0.08097 0.84185 0.25619 0.0
O36 O 0.1007 0.86253 0.21869 0.0
O37 O 0.05784 0.82595 0.09093 0.0
O38 O 0.07556 0.84854 0.11907 0.0
C39 C 0.09354 0.85406 0.26119 0.0
C40 C 0.06815 0.83965 0.07823 0.0
O41 O 0.0537 0.80771 0.22233 0.0
Mg42 Mg 0.24738 0.16747 0.3154 0.0
O43 O 0.27227 0.18301 0.33882 0.0
O44 O 0.28227 0.16814 0.35007 0.0
Mg45 Mg 0.26406 0.14355 0.34016 0.0
C46 C 0.28335 0.18111 0.35 0.0
C47 C 0.23566 0.18935 0.31103 0.0
O48 O 0.22726 0.17916 0.3496 0.0
O49 O 0.25282 0.16283 0.22583 0.0
O50 O 0.26199 0.14766 0.24646 0.0
O51 O 0.24197 0.16565 0.40778 0.0
O52 O 0.24762 0.15032 0.36276 0.0
C53 C 0.25813 0.15451 0.21071 0.0
C54 C 0.24517 0.15497 0.40982 0.0
O55 O 0.24565 0.18784 0.28541 0.0
Mg56 Mg 0.81576 0.06401 0.23325 0.0
O57 O 0.80903 0.08131 0.2559 0.0
O58 O 0.79741 0.08455 0.18185 0.0
Mg59 Mg 0.79838 0.07039 0.10932 0.0
C60 C 0.80212 0.08736 0.23278 0.0
C61 C 0.83134 0.0629 0.34275 0.0
O62 O 0.84081 0.06356 0.30396 0.0
O63 O 0.79152 0.04555 0.23829 0.0
O64 O 0.78164 0.04846 0.15802 0.0
O65 O 0.83797 0.08226 0.20344 0.0
O66 O 0.8181 0.07069 0.1482 0.0
C67 C 0.78055 0.04128 0.20429 0.0
C68 C 0.83193 0.08115 0.15428 0.0
O69 O 0.81904 0.06169 0.32692 0.0
Mg70 Mg 0.91172 0.72643 0.31669 0.0
O71 O 0.89759 0.7004 0.33031 0.0
O72 O 0.87374 0.69509 0.33635 0.0
Mg73 Mg 0.87229 0.71645 0.32838 0.0
C74 C 0.88355 0.69099 0.33674 0.0
C75 C 0.94388 0.7358 0.32351 0.0
O76 O 0.94104 0.74347 0.36068 0.0
O77 O 0.90441 0.72518 0.2236 0.0
O78 O 0.88064 0.7196 0.23705 0.0
O79 O 0.91285 0.72888 0.41118 0.0
O80 O 0.89544 0.72904 0.35718 0.0
C81 C 0.89169 0.72248 0.20459 0.0
C82 C 0.9006 0.72936 0.40701 0.0
O83 O 0.93305 0.72602 0.29428 0.0
Mg84 Mg 0.81785 0.73011 0.79101 0.0
O85 O 0.83606 0.7362 0.85723 0.0
O86 O 0.85742 0.75639 0.82789 0.0
Mg87 Mg 0.85228 0.76402 0.74297 0.0
C88 C 0.84993 0.74578 0.86401 0.0
C89 C 0.7922 0.70025 0.83594 0.0
O90 O 0.79246 0.69796 0.78138 0.0
O91 O 0.81409 0.74925 0.81676 0.0
O92 O 0.83482 0.76918 0.78102 0.0
O93 O 0.82607 0.71655 0.74743 0.0
O94 O 0.83415 0.74069 0.7282 0.0
C95 C 0.822 0.76341 0.80558 0.0
C96 C 0.83522 0.72887 0.72 0.0
O97 O 0.80091 0.71339 0.85463 0.0
Mg98 Mg 0.26258 0.08069 0.78634 0.0
O99 O 0.25504 0.09001 0.85918 0.0
O100 O 0.2334 0.08857 0.83551 0.0
Mg101 Mg 0.22616 0.07659 0.75072 0.0
C102 C 0.24436 0.09256 0.86933 0.0
C103 C 0.29402 0.0883 0.82474 0.0
O104 O 0.29655 0.09374 0.77251 0.0
O105 O 0.24598 0.05623 0.81004 0.0
O106 O 0.2243 0.05449 0.78436 0.0
O107 O 0.27337 0.10352 0.74584 0.0
O108 O 0.25001 0.0855 0.72957 0.0
C109 C 0.23179 0.04856 0.80357 0.0
C110 C 0.26057 0.09931 0.72207 0.0
O111 O 0.28062 0.08138 0.84358 0.0
Mg112 Mg 0.89646 0.15892 0.69419 0.0
O113 O 0.88972 0.14637 0.77984 0.0
O114 O 0.89536 0.12798 0.77876 0.0
Mg115 Mg 0.90521 0.12837 0.69166 0.0
C116 C 0.8901 0.1353 0.80375 0.0
C117 C 0.88176 0.17785 0.72894 0.0
O118 O 0.87054 0.16677 0.70212 0.0
O119 O 0.92143 0.17063 0.71516 0.0
O120 O 0.92586 0.15144 0.70906 0.0
O121 O 0.87382 0.1427 0.66072 0.0
O122 O 0.8933 0.13933 0.6553 0.0
C123 C 0.93035 0.1654 0.71679 0.0
C124 C 0.87924 0.13422 0.64672 0.0
O125 O 0.89412 0.17798 0.73275 0.0
Mg126 Mg 0.73818 0.82392 0.76905 0.0
O127 O 0.74659 0.83842 0.68853 0.0
O128 O 0.76802 0.85969 0.70579 0.0
Mg129 Mg 0.77392 0.8582 0.79861 0.0
C130 C 0.75742 0.85124 0.67243 0.0
C131 C 0.70868 0.79447 0.73484 0.0
O132 O 0.7062 0.79397 0.7897 0.0
O133 O 0.75539 0.81632 0.76049 0.0
O134 O 0.77642 0.83744 0.78403 0.0
O135 O 0.72691 0.8368 0.79352 0.0
O136 O 0.74996 0.84306 0.81833 0.0
C137 C 0.76945 0.82348 0.7709 0.0
C138 C 0.73939 0.84624 0.81761 0.0
O139 O 0.72107 0.80491 0.7145 0.0
Mg140 Mg 0.16583 0.90317 0.72731 0.0
O141 O 0.15143 0.90008 0.64896 0.0
O142 O 0.13211 0.90296 0.67399 0.0
Mg143 Mg 0.1355 0.9102 0.76668 0.0
C144 C 0.13925 0.89989 0.63738 0.0
C145 C 0.19712 0.90844 0.68012 0.0
O146 O 0.20223 0.91432 0.73002 0.0
O147 O 0.17684 0.92883 0.72247 0.0
O148 O 0.15778 0.93203 0.74824 0.0
O149 O 0.15044 0.87877 0.75098 0.0
O150 O 0.14742 0.89761 0.77896 0.0
C151 C 0.17147 0.93734 0.73362 0.0
C152 C 0.14234 0.8833 0.77645 0.0
O153 O 0.18338 0.90335 0.66866 0.0
Mg154 Mg 0.07445 0.25776 0.74001 0.0
O155 O 0.0842 0.25177 0.66407 0.0
O156 O 0.08293 0.22967 0.68224 0.0
Mg157 Mg 0.07014 0.22045 0.76596 0.0
C158 C 0.08694 0.24136 0.6508 0.0
C159 C 0.08267 0.29018 0.70993 0.0
O160 O 0.08717 0.29129 0.76269 0.0
O161 O 0.05051 0.24166 0.71317 0.0
O162 O 0.04863 0.21929 0.73183 0.0
O163 O 0.09677 0.26775 0.78058 0.0
O164 O 0.07879 0.24391 0.79274 0.0
C165 C 0.04294 0.22724 0.71508 0.0
C166 C 0.09245 0.25437 0.80125 0.0
O167 O 0.07587 0.27721 0.68773 0.0
Mg168 Mg 0.8282 0.55405 0.55448 0.0
O169 O 0.83678 0.57841 0.52082 0.0
O170 O 0.81654 0.57824 0.48566 0.0
Mg171 Mg 0.79574 0.55481 0.49523 0.0
C172 C 0.83057 0.58507 0.49629 0.0
C173 C 0.86101 0.56186 0.57372 0.0
O174 O 0.86048 0.56188 0.51806 0.0
O175 O 0.81717 0.55803 0.63229 0.0
O176 O 0.79697 0.55673 0.59155 0.0
O177 O 0.83203 0.5481 0.46696 0.0
O178 O 0.81065 0.54555 0.49761 0.0
C179 C 0.80475 0.55798 0.63539 0.0
C180 C 0.8185 0.54507 0.4564 0.0
O181 O 0.84993 0.5607 0.60165 0.0
Mg182 Mg 0.40862 0.25297 0.59294 0.0
O183 O 0.38361 0.23954 0.57922 0.0
O184 O 0.37129 0.24229 0.65131 0.0
Mg185 Mg 0.38948 0.25546 0.71796 0.0
C186 C 0.3715 0.23713 0.60265 0.0
C187 C 0.4223 0.25661 0.46759 0.0
O188 O 0.43529 0.26651 0.48909 0.0
O189 O 0.40832 0.27472 0.57961 0.0
O190 O 0.39831 0.27682 0.66061 0.0
O191 O 0.40818 0.23293 0.63061 0.0
O192 O 0.40593 0.24979 0.68085 0.0
C193 C 0.40434 0.28199 0.61187 0.0
C194 C 0.40625 0.23735 0.67945 0.0
O195 O 0.41069 0.25045 0.49907 0.0
Mg196 Mg 0.76636 0.18229 0.40273 0.0
O197 O 0.77643 0.16688 0.40942 0.0
O198 O 0.80112 0.18116 0.39363 0.0
Mg199 Mg 0.80697 0.20562 0.37876 0.0
C200 C 0.78941 0.16834 0.40368 0.0
C201 C 0.73636 0.15163 0.41342 0.0
O202 O 0.74146 0.14986 0.36482 0.0
O203 O 0.77539 0.19239 0.49028 0.0
O204 O 0.79965 0.20738 0.46811 0.0
O205 O 0.76408 0.17787 0.3094 0.0
O206 O 0.78397 0.19681 0.34865 0.0
C207 C 0.78874 0.20244 0.50339 0.0
C208 C 0.77777 0.1889 0.30442 0.0
O209 O 0.7443 0.16366 0.44094 0.0
Mg210 Mg 0.91987 0.48518 0.75809 0.0
O211 O 0.94548 0.50098 0.75658 0.0
O212 O 0.95589 0.48664 0.77165 0.0
Mg213 Mg 0.93745 0.46201 0.77828 0.0
C214 C 0.95698 0.49952 0.76367 0.0
C215 C 0.90669 0.50601 0.74872 0.0
O216 O 0.89938 0.49707 0.79207 0.0
O217 O 0.92004 0.47672 0.66848 0.0
O218 O 0.93079 0.46288 0.6867 0.0
O219 O 0.92091 0.48808 0.85205 0.0
O220 O 0.92259 0.46994 0.80924 0.0
C221 C 0.92491 0.46812 0.65225 0.0
C222 C 0.92372 0.47712 0.85506 0.0
O223 O 0.91652 0.50418 0.72341 0.0
Mg224 Mg 0.501 0.41338 0.56703 0.0
O225 O 0.49319 0.4271 0.61819 0.0
O226 O 0.47882 0.4313 0.55806 0.0
Mg227 Mg 0.48079 0.42433 0.46765 0.0
C228 C 0.48413 0.4319 0.60763 0.0
C229 C 0.50661 0.40456 0.69912 0.0
O230 O 0.50633 0.39383 0.73131 0.0
O231 O 0.47699 0.39443 0.56708 0.0
O232 O 0.4654 0.39946 0.49721 0.0
O233 O 0.523 0.43346 0.53779 0.0
O234 O 0.50157 0.42488 0.49336 0.0
C235 C 0.46552 0.39077 0.53649 0.0
C236 C 0.51572 0.43442 0.49462 0.0
O237 O 0.50442 0.40226 0.64624 0.0
Mg238 Mg 0.60771 0.10376 0.61489 0.0
O239 O 0.59121 0.07862 0.63919 0.0
O240 O 0.57022 0.07782 0.66937 0.0
Mg241 Mg 0.57271 0.10113 0.66325 0.0
C242 C 0.57782 0.07139 0.65927 0.0
C243 C 0.62962 0.10417 0.52368 0.0
O244 O 0.62417 0.11164 0.49662 0.0
O245 O 0.59492 0.1018 0.53286 0.0
O246 O 0.57386 0.10019 0.56658 0.0
O247 O 0.61503 0.107 0.70488 0.0
O248 O 0.59695 0.1105 0.67102 0.0
C249 C 0.58206 0.10052 0.52546 0.0
C250 C 0.60409 0.10947 0.714 0.0
O251 O 0.62413 0.09823 0.57191 0.0
Mg252 Mg 0.50794 0.08408 0.06702 0.0
O253 O 0.52363 0.09362 0.14305 0.0
O254 O 0.54361 0.11576 0.11694 0.0
Mg255 Mg 0.5397 0.12115 0.02601 0.0
C256 C 0.53641 0.10515 0.15344 0.0
C257 C 0.47772 0.0556 0.10557 0.0
O258 O 0.47519 0.0553 0.05086 0.0
O259 O 0.49918 0.10024 0.08075 0.0
O260 O 0.51875 0.12217 0.05127 0.0
O261 O 0.52108 0.07353 0.03714 0.0
O262 O 0.52619 0.09664 0.01314 0.0
C263 C 0.50528 0.11438 0.06986 0.0
C264 C 0.52996 0.08641 0.01251 0.0
O265 O 0.48995 0.06621 0.12498 0.0
Mg266 Mg 0.93211 0.40568 0.20938 0.0
O267 O 0.92173 0.41438 0.27274 0.0
O268 O 0.90981 0.42453 0.2274 0.0
Mg269 Mg 0.91226 0.42174 0.13209 0.0
C270 C 0.91418 0.42112 0.27308 0.0
C271 C 0.94414 0.39555 0.32045 0.0
O272 O 0.94212 0.38543 0.35969 0.0
O273 O 0.90922 0.3855 0.18903 0.0
O274 O 0.89834 0.39576 0.13722 0.0
O275 O 0.95277 0.42913 0.20457 0.0
O276 O 0.93282 0.42097 0.14995 0.0
C277 C 0.89836 0.38426 0.15899 0.0
C278 C 0.94553 0.43185 0.16573 0.0
O279 O 0.93468 0.39178 0.28062 0.0
Mg280 Mg 0.57595 0.50978 0.02327 0.0
O281 O 0.56509 0.49342 0.09889 0.0
O282 O 0.56591 0.4724 0.08454 0.0
Mg283 Mg 0.57626 0.47495 0.99573 0.0
C284 C 0.56254 0.48041 0.11536 0.0
C285 C 0.57577 0.53922 0.06253 0.0
O286 O 0.57421 0.54097 0.00812 0.0
O287 O 0.59933 0.51503 0.05042 0.0
O288 O 0.59894 0.4936 0.02906 0.0
O289 O 0.55382 0.49943 0.97792 0.0
O290 O 0.57054 0.49219 0.96822 0.0
C291 C 0.60571 0.50713 0.0473 0.0
C292 C 0.55774 0.49055 0.95467 0.0
O293 O 0.57698 0.52805 0.07951 0.0
Mg294 Mg 0.41133 0.16292 0.1223 0.0
O295 O 0.41572 0.17813 0.0442 0.0
O296 O 0.43688 0.20007 0.0567 0.0
Mg297 Mg 0.44668 0.19838 0.14201 0.0
C298 C 0.42534 0.19148 0.02741 0.0
C299 C 0.37972 0.13701 0.09195 0.0
O300 O 0.37713 0.14128 0.14085 0.0
O301 O 0.42907 0.15728 0.09503 0.0
O302 O 0.45013 0.17903 0.11222 0.0
O303 O 0.39982 0.174 0.16191 0.0
O304 O 0.42395 0.1818 0.17188 0.0
C305 C 0.44337 0.16525 0.09684 0.0
C306 C 0.41287 0.18395 0.18065 0.0
O307 O 0.3931 0.14341 0.07297 0.0
Mg308 Mg 0.85893 0.2594 0.95963 0.0
O309 O 0.84107 0.25156 0.89149 0.0
O310 O 0.81838 0.24186 0.93153 0.0
Mg311 Mg 0.82187 0.24324 0.02809 0.0
C312 C 0.82683 0.24528 0.88773 0.0
C313 C 0.88231 0.27106 0.85131 0.0
O314 O 0.89146 0.28204 0.81666 0.0
O315 O 0.85617 0.27952 0.97995 0.0
O316 O 0.8344 0.26926 0.02767 0.0
O317 O 0.8558 0.2358 0.96323 0.0
O318 O 0.84315 0.24357 0.01457 0.0
C319 C 0.84633 0.28076 0.00837 0.0
C320 C 0.8451 0.23276 -0.00102 0.0
O321 O 0.87686 0.27423 0.89368 0.0
Mg322 Mg 0.75116 0.57581 0.11144 0.0
O323 O 0.75783 0.569 0.0287 0.0
O324 O 0.75126 0.54464 0.03779 0.0
Mg325 Mg 0.74081 0.53611 0.12556 0.0
C326 C 0.7571 0.55706 0.00937 0.0
C327 C 0.7627 0.6099 0.08528 0.0
O328 O 0.77091 0.61126 0.12983 0.0
O329 O 0.72635 0.56271 0.09001 0.0
O330 O 0.72055 0.53868 0.10195 0.0
O331 O 0.77374 0.58257 0.14517 0.0
O332 O 0.75393 0.55962 0.15532 0.0
C333 C 0.71684 0.54858 0.09032 0.0
C334 C 0.76814 0.56862 0.16175 0.0
O335 O 0.75353 0.59679 0.06738 0.0
Mg336 Mg 0.51834 0.93309 0.86841 0.0
O337 O 0.52829 0.95833 0.8437 0.0
O338 O 0.5087 0.96176 0.83117 0.0
Mg339 Mg 0.48688 0.93969 0.84753 0.0
C340 C 0.5228 0.96675 0.83111 0.0
C341 C 0.54259 0.92961 0.93312 0.0
O342 O 0.53109 0.92224 0.96784 0.0
O343 O 0.51249 0.93659 0.95899 0.0
O344 O 0.49308 0.94001 0.94054 0.0
O345 O 0.51685 0.92802 0.7761 0.0
O346 O 0.49865 0.92761 0.82705 0.0
C347 C 0.50201 0.93893 0.97518 0.0
C348 C 0.50371 0.92669 0.77839 0.0
O349 O 0.54136 0.93684 0.89122 0.0
Mg350 Mg 0.08954 0.60019 0.93029 0.0
O351 O 0.06505 0.58363 0.91136 0.0
O352 O 0.05099 0.58146 0.98671 0.0
Mg353 Mg 0.06713 0.59606 0.05618 0.0
C354 C 0.05231 0.57818 0.93581 0.0
C355 C 0.10465 0.59864 0.8212 0.0
O356 O 0.11339 0.59806 0.8605 0.0
O357 O 0.08481 0.61935 0.92297 0.0
O358 O 0.07251 0.6175 0.00346 0.0
O359 O 0.09262 0.58155 0.96182 0.0
O360 O 0.08571 0.5944 0.01646 0.0
C361 C 0.07848 0.62419 0.9563 0.0
C362 C 0.08834 0.58341 0.01113 0.0
O363 O 0.09418 0.60098 0.83613 0.0
Mg364 Mg 0.41645 0.48271 0.8992 0.0
O365 O 0.43074 0.47108 0.88985 0.0
O366 O 0.45441 0.48994 0.87586 0.0
Mg367 Mg 0.45559 0.51268 0.87555 0.0
C368 C 0.44469 0.47588 0.88046 0.0
C369 C 0.38823 0.45053 0.8994 0.0
O370 O 0.39372 0.45111 0.84855 0.0
O371 O 0.42518 0.49101 0.989 0.0
O372 O 0.44862 0.50923 0.96833 0.0
O373 O 0.41307 0.48088 0.80575 0.0
O374 O 0.4322 0.50018 0.84738 0.0
C375 C 0.43809 0.5016 0.00399 0.0
C376 C 0.42601 0.4931 0.80146 0.0
O377 O 0.3958 0.4613 0.93319 0.0
Mg378 Mg 0.57747 0.83326 0.96561 0.0
O379 O 0.60052 0.83931 0.00232 0.0
O380 O 0.60033 0.81771 0.02053 0.0
Mg381 Mg 0.57813 0.7982 0.99061 0.0
C382 C 0.60676 0.8321 0.0217 0.0
C383 C 0.5818 0.86222 0.90114 0.0
O384 O 0.57359 0.8521 0.86341 0.0
O385 O 0.58335 0.82815 0.87813 0.0
O386 O 0.58358 0.80685 0.89878 0.0
O387 O 0.56977 0.83137 0.05462 0.0
O388 O 0.56795 0.81221 0.00575 0.0
C389 C 0.5851 0.81716 0.86376 0.0
C390 C 0.56712 0.8176 0.05373 0.0
O391 O 0.58612 0.85804 0.94462 0.0
Mg392 Mg 0.15694 0.75879 0.90379 0.0
O393 O 0.14685 0.77361 0.9191 0.0
O394 O 0.13358 0.77312 0.84382 0.0
Mg395 Mg 0.13777 0.75968 0.77586 0.0
C396 C 0.13823 0.77733 0.89412 0.0
C397 C 0.17137 0.75774 0.01678 0.0
O398 O 0.17943 0.75505 0.98074 0.0
O399 O 0.13397 0.73806 0.91111 0.0
O400 O 0.12327 0.73762 0.82812 0.0
O401 O 0.17791 0.77835 0.87092 0.0
O402 O 0.15872 0.76328 0.8169 0.0
C403 C 0.1231 0.7317 0.87652 0.0
C404 C 0.172 0.77495 0.82096 0.0
O405 O 0.16048 0.75895 -0.00175 0.0
Mg406 Mg 0.26248 0.42582 0.98433 0.0
O407 O 0.24407 0.40175 0.01308 0.0
O408 O 0.22558 0.40425 0.05095 0.0
Mg409 Mg 0.23101 0.42866 0.04139 0.0
C410 C 0.23134 0.39616 0.03833 0.0
C411 C 0.28081 0.40986 0.97173 0.0
O412 O 0.27545 0.40588 0.02362 0.0
O413 O 0.24901 0.4246 0.90453 0.0
O414 O 0.23048 0.42663 0.94462 0.0
O415 O 0.27133 0.42936 0.07264 0.0
O416 O 0.25473 0.43547 0.04244 0.0
C417 C 0.23697 0.42526 0.90087 0.0
C418 C 0.262 0.43392 0.08378 0.0
O419 O 0.27605 0.4168 0.9406 0.0
Mg420 Mg 0.16554 0.41392 0.4319 0.0
O421 O 0.17993 0.42127 0.51209 0.0
O422 O 0.19976 0.44425 0.49654 0.0
Mg423 Mg 0.19726 0.45202 0.40745 0.0
C424 C 0.19228 0.43253 0.52818 0.0
C425 C 0.14047 0.38136 0.46121 0.0
O426 O 0.14475 0.37952 0.41095 0.0
O427 O 0.15585 0.42905 0.4496 0.0
O428 O 0.17554 0.45201 0.43133 0.0
O429 O 0.17985 0.40505 0.39935 0.0
O430 O 0.1841 0.4282 0.3822 0.0
C431 C 0.16174 0.44337 0.44505 0.0
C432 C 0.18834 0.41841 0.37735 0.0
O433 O 0.14686 0.39449 0.48211 0.0
Mg434 Mg 0.59087 0.74594 0.43211 0.0
O435 O 0.58493 0.75751 0.50094 0.0
O436 O 0.56304 0.75597 0.48136 0.0
Mg437 Mg 0.55403 0.74164 0.4019 0.0
C438 C 0.57466 0.76055 0.51209 0.0
C439 C 0.62135 0.7483 0.47198 0.0
O440 O 0.62274 0.74632 0.41788 0.0
O441 O 0.57437 0.7225 0.46795 0.0
O442 O 0.55252 0.72059 0.4441 0.0
O443 O 0.60065 0.76735 0.37965 0.0
O444 O 0.57712 0.74875 0.37501 0.0
C445 C 0.56005 0.71496 0.46542 0.0
C446 C 0.5873 0.7621 0.3592 0.0
O447 O 0.60967 0.74826 0.48927 0.0
Mg448 Mg 0.25022 0.84679 0.37689 0.0
O449 O 0.24103 0.83217 0.45698 0.0
O450 O 0.24067 0.81042 0.44535 0.0
Mg451 Mg 0.25027 0.81144 0.35656 0.0
C452 C 0.23801 0.81914 0.47508 0.0
C453 C 0.24737 0.87468 0.40771 0.0
O454 O 0.24296 0.87298 0.35469 0.0
O455 O 0.27421 0.85294 0.3968 0.0
O456 O 0.2736 0.83138 0.37702 0.0
O457 O 0.22705 0.83565 0.34231 0.0
O458 O 0.24286 0.82733 0.32892 0.0
C459 C 0.28077 0.84528 0.39077 0.0
C460 C 0.22959 0.82539 0.32286 0.0
O461 O 0.25206 0.86626 0.42796 0.0
Mg462 Mg 0.0745 0.5018 0.46307 0.0
O463 O 0.08012 0.51594 0.3809 0.0
O464 O 0.10394 0.53476 0.38519 0.0
Mg465 Mg 0.11341 0.53318 0.47076 0.0
C466 C 0.09146 0.52763 0.35935 0.0
C467 C 0.0427 0.4859 0.41087 0.0
O468 O 0.0446 0.49922 0.42294 0.0
O469 O 0.08853 0.49122 0.43649 0.0
O470 O 0.11178 0.51089 0.4461 0.0
O471 O 0.06733 0.51677 0.50327 0.0
O472 O 0.09046 0.52086 0.50633 0.0
C473 C 0.10278 0.49703 0.43488 0.0
C474 C 0.08116 0.52535 0.518 0.0
O475 O 0.05323 0.48319 0.42158 0.0
Mg476 Mg 0.51002 0.57212 0.42821 0.0
O477 O 0.49187 0.56448 0.36111 0.0
O478 O 0.47069 0.56159 0.39865 0.0
Mg479 Mg 0.47611 0.56908 0.4912 0.0
C480 C 0.4781 0.56073 0.35697 0.0
C481 C 0.53995 0.57903 0.36656 0.0
O482 O 0.54452 0.57967 0.419 0.0
O483 O 0.5144 0.59617 0.42467 0.0
O484 O 0.494 0.5936 0.46817 0.0
O485 O 0.50132 0.54794 0.45174 0.0
O486 O 0.49329 0.56229 0.48973 0.0
C487 C 0.50689 0.60183 0.44506 0.0
C488 C 0.49185 0.54913 0.48412 0.0
O489 O 0.52687 0.57684 0.35777 0.0
Mg490 Mg 0.42375 0.93468 0.39933 0.0
O491 O 0.43546 0.92887 0.33039 0.0
O492 O 0.43563 0.90784 0.3553 0.0
Mg493 Mg 0.42248 0.89931 0.43905 0.0
C494 C 0.43924 0.91899 0.32131 0.0
C495 C 0.42553 0.96454 0.35888 0.0
O496 O 0.42559 0.96607 0.41413 0.0
O497 O 0.40058 0.91653 0.37091 0.0
O498 O 0.40035 0.89563 0.40135 0.0
O499 O 0.44554 0.94679 0.44484 0.0
O500 O 0.42861 0.92266 0.45892 0.0
C501 C 0.39382 0.90221 0.37886 0.0
C502 C 0.44172 0.93391 0.46922 0.0
O503 O 0.42412 0.95241 0.33928 0.0
H504 H 0.21465 0.19464 0.35727 0.0
H505 H 0.25119 0.21304 0.23559 0.0
H506 H 0.20953 0.21467 0.33364 0.0
H507 H 0.24628 0.23354 0.21278 0.0
H508 H 0.21524 0.25026 0.13324 0.0
H509 H 0.22729 0.23624 0.16404 0.0
H510 H 0.21793 0.24099 0.33875 0.0
H511 H 0.20533 0.25455 0.3077 0.0
C512 C 0.22174 0.20309 0.32589 0.0
C513 C 0.23325 0.20215 0.29795 0.0
C514 C 0.2189 0.21473 0.31277 0.0
C515 C 0.22755 0.22583 0.27152 0.0
C516 C 0.23933 0.22512 0.24446 0.0
C517 C 0.24216 0.21339 0.25756 0.0
C518 C 0.21606 0.24865 0.17833 0.0
C519 C 0.209 0.25321 0.21796 0.0
C520 C 0.22305 0.24063 0.19605 0.0
C521 C 0.22325 0.23714 0.25383 0.0
C522 C 0.21757 0.24309 0.29378 0.0
C523 C 0.21045 0.25098 0.27603 0.0
H524 H 0.75758 0.02413 0.13168 0.0
H525 H 0.77244 0.02514 0.30384 0.0
H526 H 0.73827 0.99764 0.14556 0.0
H527 H 0.75348 0.99878 0.31719 0.0
H528 H 0.72048 0.95139 0.33697 0.0
H529 H 0.72783 0.97785 0.32178 0.0
H530 H 0.74248 0.97633 0.15163 0.0
H531 H 0.73488 0.94994 0.16614 0.0
C532 C 0.7565 0.01884 0.1729 0.0
C533 C 0.76679 0.02662 0.21621 0.0
C534 C 0.74546 0.00365 0.18076 0.0
C535 C 0.7445 0.99603 0.23211 0.0
C536 C 0.75383 0.00428 0.27715 0.0
C537 C 0.76485 0.0194 0.26928 0.0
C538 C 0.72487 0.95658 0.29576 0.0
C539 C 0.72749 0.94867 0.25331 0.0
C540 C 0.7291 0.97175 0.28714 0.0
C541 C 0.73601 0.97927 0.23595 0.0
C542 C 0.73715 0.9709 0.19154 0.0
C543 C 0.73293 0.95576 0.20011 0.0
H544 H 0.9549 0.72432 0.24401 0.0
H545 H 0.96861 0.75707 0.37724 0.0
H546 H 0.98123 0.73433 0.21795 0.0
H547 H 0.99447 0.76749 0.34989 0.0
H548 H 0.04078 0.78645 0.30277 0.0
H549 H 0.01651 0.76712 0.34085 0.0
H550 H 0.99947 0.75592 0.17012 0.0
H551 H 0.02391 0.77442 0.13259 0.0
C552 C 0.96351 0.73352 0.2681 0.0
C553 C 0.95964 0.74006 0.31204 0.0
C554 C 0.97861 0.73933 0.25301 0.0
C555 C 0.99009 0.75188 0.28125 0.0
C556 C 0.98613 0.75771 0.32744 0.0
C557 C 0.97115 0.75182 0.3428 0.0
C558 C 0.03194 0.7795 0.27353 0.0
C559 C 0.03414 0.78214 0.21482 0.0
C560 C 0.01797 0.7685 0.29526 0.0
C561 C 0.00579 0.76024 0.25873 0.0
C562 C 0.00848 0.76196 0.19982 0.0
C563 C 0.02255 0.77269 0.17814 0.0
H564 H 0.83474 0.79355 0.78031 0.0
H565 H 0.79365 0.75506 0.84352 0.0
H566 H 0.82217 0.80808 0.77182 0.0
H567 H 0.78117 0.76988 0.83672 0.0
H568 H 0.75913 0.79365 0.74709 0.0
H569 H 0.77218 0.77958 0.76176 0.0
H570 H 0.81111 0.8201 0.82087 0.0
H571 H 0.79836 0.83423 0.8045 0.0
C572 C 0.8231 0.78827 0.7937 0.0
C573 C 0.81519 0.77305 0.8121 0.0
C574 C 0.81588 0.79665 0.78887 0.0
C575 C 0.80058 0.79009 0.80277 0.0
C576 C 0.79288 0.77516 0.82436 0.0
C577 C 0.80009 0.76673 0.82898 0.0
C578 C 0.77054 0.79959 0.7626 0.0
C579 C 0.77769 0.8151 0.7744 0.0
C580 C 0.77795 0.79148 0.7717 0.0
C581 C 0.79266 0.79867 0.79304 0.0
C582 C 0.79986 0.81422 0.8039 0.0
C583 C 0.79251 0.82234 0.79449 0.0
H584 H 0.24365 0.03067 0.7819 0.0
H585 H 0.20246 0.02894 0.83018 0.0
H586 H 0.2298 0.00375 0.7628 0.0
H587 H 0.18863 0.00181 0.81463 0.0
H588 H 0.1649 0.95958 0.71418 0.0
H589 H 0.1802 0.98619 0.73665 0.0
H590 H 0.21587 0.97854 0.79201 0.0
H591 H 0.20077 0.95207 0.76608 0.0
C592 C 0.23169 0.0244 0.7905 0.0
C593 C 0.2241 0.03191 0.80716 0.0
C594 C 0.2237 0.00893 0.77936 0.0
C595 C 0.20799 0.00059 0.7857 0.0
C596 C 0.20063 0.00793 0.80711 0.0
C597 C 0.20857 0.02345 0.81701 0.0
C598 C 0.17613 0.96369 0.73011 0.0
C599 C 0.18167 0.9538 0.73821 0.0
C600 C 0.18484 0.9789 0.74397 0.0
C601 C 0.19919 0.98454 0.76763 0.0
C602 C 0.20493 0.9747 0.77369 0.0
C603 C 0.1963 0.95951 0.75864 0.0
H604 H 0.02426 0.23879 0.72497 0.0
H605 H 0.0246 0.19793 0.68534 0.0
H606 H 0.99691 0.22465 0.72761 0.0
H607 H 0.99732 0.18393 0.68534 0.0
H608 H 0.94655 0.1953 0.68506 0.0
H609 H 0.97385 0.21101 0.67857 0.0
H610 H 0.97816 0.17469 0.75456 0.0
H611 H 0.95102 0.15889 0.75858 0.0
C612 C 0.01848 0.22687 0.71527 0.0
C613 C 0.02658 0.21943 0.70548 0.0
C614 C 0.00278 0.21875 0.71685 0.0
C615 C 0.99487 0.20306 0.70796 0.0
C616 C 0.00302 0.19589 0.69433 0.0
C617 C 0.01867 0.20394 0.69362 0.0
C618 C 0.95338 0.1908 0.70111 0.0
C619 C 0.94667 0.17584 0.72194 0.0
C620 C 0.96903 0.19978 0.69729 0.0
C621 C 0.97825 0.19402 0.71488 0.0
C622 C 0.97145 0.17934 0.73875 0.0
C623 C 0.95587 0.17033 0.74176 0.0
H624 H 0.88119 0.55555 0.52509 0.0
H625 H 0.86582 0.56144 0.68792 0.0
H626 H 0.89474 0.54482 0.57165 0.0
H627 H 0.87999 0.5513 0.73499 0.0
H628 H 0.92121 0.52828 0.66748 0.0
H629 H 0.91376 0.5459 0.63028 0.0
H630 H 0.8757 0.52652 0.74532 0.0
H631 H 0.88347 0.50948 0.78368 0.0
C632 C 0.88108 0.55501 0.57101 0.0
C633 C 0.87216 0.55907 0.60272 0.0
C634 C 0.88895 0.54889 0.59787 0.0
C635 C 0.88823 0.54686 0.65717 0.0
C636 C 0.88044 0.55227 0.68914 0.0
C637 C 0.87242 0.55822 0.66221 0.0
C638 C 0.91135 0.52793 0.68517 0.0
C639 C 0.90286 0.51739 0.7282 0.0
C640 C 0.90705 0.53801 0.66374 0.0
C641 C 0.89408 0.53766 0.68455 0.0
C642 C 0.8859 0.52738 0.72882 0.0
C643 C 0.89028 0.51745 0.75053 0.0
H644 H 0.41687 0.2968 0.51144 0.0
H645 H 0.40048 0.30235 0.67285 0.0
H646 H 0.42757 0.32364 0.49058 0.0
H647 H 0.41106 0.3292 0.65134 0.0
H648 H 0.45731 0.37457 0.63499 0.0
H649 H 0.43813 0.34826 0.64908 0.0
H650 H 0.42454 0.34622 0.47457 0.0
H651 H 0.44396 0.37283 0.46031 0.0
C652 C 0.41523 0.30366 0.54193 0.0
C653 C 0.40813 0.29749 0.59446 0.0
C654 C 0.42125 0.31903 0.52966 0.0
C655 C 0.42031 0.32854 0.56967 0.0
C656 C 0.41212 0.32215 0.62008 0.0
C657 C 0.40606 0.30676 0.63234 0.0
C658 C 0.45006 0.36861 0.59983 0.0
C659 C 0.45226 0.37566 0.54633 0.0
C660 C 0.43895 0.35356 0.60808 0.0
C661 C 0.42986 0.34516 0.56286 0.0
C662 C 0.43147 0.35243 0.51005 0.0
C663 C 0.44252 0.36764 0.50196 0.0
H664 H 0.71427 0.12863 0.35286 0.0
H665 H 0.72325 0.15007 0.51594 0.0
H666 H 0.68778 0.11303 0.37873 0.0
H667 H 0.69679 0.13444 0.54167 0.0
H668 H 0.64947 0.09959 0.58564 0.0
H669 H 0.6754 0.10766 0.55965 0.0
H670 H 0.6683 0.12077 0.39278 0.0
H671 H 0.64246 0.11279 0.41863 0.0
C672 C 0.71066 0.12983 0.3946 0.0
C673 C 0.72083 0.14072 0.43213 0.0
C674 C 0.69548 0.12091 0.40928 0.0
C675 C 0.69022 0.12256 0.46207 0.0
C676 C 0.70054 0.13281 0.50087 0.0
C677 C 0.71568 0.14185 0.48597 0.0
C678 C 0.65332 0.10382 0.54291 0.0
C679 C 0.64398 0.10573 0.50435 0.0
C680 C 0.66819 0.10852 0.52822 0.0
C681 C 0.6739 0.11499 0.47446 0.0
C682 C 0.6642 0.11576 0.43445 0.0
C683 C 0.64941 0.11124 0.44935 0.0
H684 H 0.51321 0.14304 0.03548 0.0
H685 H 0.4768 0.10272 0.11376 0.0
H686 H 0.49807 0.155 0.03705 0.0
H687 H 0.46176 0.11497 0.11706 0.0
H688 H 0.43366 0.13608 0.06455 0.0
H689 H 0.44855 0.12372 0.05701 0.0
H690 H 0.48834 0.16546 0.10167 0.0
H691 H 0.47368 0.17787 0.10734 0.0
C692 C 0.50203 0.13676 0.05375 0.0
C693 C 0.49626 0.1219 0.0747 0.0
C694 C 0.49334 0.14367 0.05474 0.0
C695 C 0.47869 0.13597 0.0772 0.0
C696 C 0.47292 0.12115 0.09865 0.0
C697 C 0.4816 0.11417 0.09729 0.0
C698 C 0.44563 0.14266 0.07203 0.0
C699 C 0.45245 0.15799 0.08654 0.0
C700 C 0.45413 0.13553 0.06828 0.0
C701 C 0.46963 0.14356 0.07908 0.0
C702 C 0.47647 0.15895 0.09233 0.0
C703 C 0.46802 0.16609 0.09577 0.0
H704 H 0.86513 0.30791 0.95606 0.0
H705 H 0.83598 0.28801 0.10219 0.0
H706 H 0.87431 0.33307 0.99468 0.0
H707 H 0.84546 0.31318 0.14119 0.0
H708 H 0.88041 0.37684 0.06603 0.0
H709 H 0.86458 0.35162 0.02787 0.0
H710 H 0.8738 0.33193 0.17434 0.0
H711 H 0.88994 0.35716 0.21227 0.0
C712 C 0.86047 0.30893 0.99581 0.0
C713 C 0.84988 0.29599 0.02616 0.0
C714 C 0.86568 0.32331 0.01778 0.0
C715 C 0.86061 0.32499 0.07096 0.0
C716 C 0.84954 0.31214 0.10015 0.0
C717 C 0.84408 0.29777 0.07761 0.0
C718 C 0.8788 0.36713 0.09085 0.0
C719 C 0.88653 0.369 0.14203 0.0
C720 C 0.86979 0.35273 0.06877 0.0
C721 C 0.86807 0.33992 0.0981 0.0
C722 C 0.87491 0.34167 0.15113 0.0
C723 C 0.88417 0.35609 0.1727 0.0
H724 H 0.62753 0.53685 0.03656 0.0
H725 H 0.62022 0.49293 0.08701 0.0
H726 H 0.65456 0.54745 0.04497 0.0
H727 H 0.64707 0.50356 0.09872 0.0
H728 H 0.69522 0.52122 0.05207 0.0
H729 H 0.66851 0.51195 0.04349 0.0
H730 H 0.67536 0.5547 0.1031 0.0
H731 H 0.70225 0.56421 0.1085 0.0
C732 C 0.63171 0.52955 0.05081 0.0
C733 C 0.62181 0.51405 0.06074 0.0
C734 C 0.64721 0.53562 0.05572 0.0
C735 C 0.65311 0.52634 0.07165 0.0
C736 C 0.64305 0.51099 0.08452 0.0
C737 C 0.62762 0.50489 0.07849 0.0
C738 C 0.69102 0.52867 0.06283 0.0
C739 C 0.70082 0.54343 0.08101 0.0
C740 C 0.67565 0.52331 0.05855 0.0
C741 C 0.66964 0.53245 0.07355 0.0
C742 C 0.67954 0.54735 0.09064 0.0
C743 C 0.69497 0.55282 0.09387 0.0
H744 H 0.56334 0.93548 0.84946 0.0
H745 H 0.54919 0.91521 0.01669 0.0
H746 H 0.57854 0.92354 0.83966 0.0
H747 H 0.56435 0.90331 0.00676 0.0
H748 H 0.5726 0.87456 0.81796 0.0
H749 H 0.56859 0.8959 0.82725 0.0
H750 H 0.58912 0.90506 0.99247 0.0
H751 H 0.59312 0.88367 0.98341 0.0
C752 C 0.56382 0.92887 0.88486 0.0
C753 C 0.55481 0.92603 0.93348 0.0
C754 C 0.57249 0.92198 0.87904 0.0
C755 C 0.57246 0.91232 0.92202 0.0
C756 C 0.56466 0.91075 0.97292 0.0
C757 C 0.55589 0.91751 0.97853 0.0
C758 C 0.57665 0.88137 0.85559 0.0
C759 C 0.58287 0.8772 0.90042 0.0
C760 C 0.57444 0.89368 0.86079 0.0
C761 C 0.57835 0.90203 0.911 0.0
C762 C 0.58581 0.8987 0.95365 0.0
C763 C 0.58812 0.88645 0.94829 0.0
H764 H 0.08742 0.63989 0.85576 0.0
H765 H 0.07121 0.64125 0.02338 0.0
H766 H 0.09304 0.66557 0.83699 0.0
H767 H 0.07662 0.66702 0.00396 0.0
H768 H 0.1171 0.71696 0.97896 0.0
H769 H 0.10112 0.69005 0.99691 0.0
H770 H 0.08513 0.68423 0.82458 0.0
H771 H 0.10143 0.71128 0.80606 0.0
C772 C 0.08474 0.64555 0.88821 0.0
C773 C 0.0792 0.63863 0.94157 0.0
C774 C 0.08781 0.66025 0.87716 0.0
C775 C 0.08541 0.66839 0.91921 0.0
C776 C 0.07877 0.66108 0.97101 0.0
C777 C 0.07565 0.64631 0.98206 0.0
C778 C 0.10994 0.71003 0.94515 0.0
C779 C 0.11083 0.71621 0.89065 0.0
C780 C 0.10064 0.69458 0.95565 0.0
C781 C 0.09202 0.68497 0.91188 0.0
C782 C 0.09184 0.69135 0.85886 0.0
C783 C 0.10114 0.70685 0.84835 0.0
H784 H 0.29639 0.41928 0.87111 0.0
H785 H 0.29701 0.40094 0.03678 0.0
H786 H 0.322 0.42495 0.85386 0.0
H787 H 0.32263 0.40658 0.01927 0.0
H788 H 0.37306 0.4461 -0.0004 0.0
H789 H 0.34598 0.43174 0.01443 0.0
H790 H 0.34004 0.41573 0.84275 0.0
H791 H 0.36715 0.43012 0.8277 0.0
C792 C 0.30182 0.41608 0.90324 0.0
C793 C 0.29472 0.4099 0.9557 0.0
C794 C 0.31651 0.41928 0.89326 0.0
C795 C 0.32441 0.41641 0.93559 0.0
C796 C 0.3169 0.40914 0.98623 0.0
C797 C 0.30218 0.40584 0.99607 0.0
C798 C 0.36602 0.43924 0.96541 0.0
C799 C 0.37227 0.43944 0.91224 0.0
C800 C 0.35048 0.43094 0.97399 0.0
C801 C 0.34086 0.42272 0.92952 0.0
C802 C 0.34716 0.4221 0.87756 0.0
C803 C 0.36272 0.43031 0.86911 0.0
H804 H 0.09125 0.46742 0.46746 0.0
H805 H 0.12956 0.50505 0.38551 0.0
H806 H 0.10484 0.4536 0.47257 0.0
H807 H 0.14288 0.49111 0.38806 0.0
H808 H 0.1703 0.47283 0.46391 0.0
H809 H 0.15491 0.48457 0.45831 0.0
H810 H 0.11585 0.44106 0.42578 0.0
H811 H 0.13121 0.42922 0.43383 0.0
C812 C 0.1024 0.47253 0.44895 0.0
C813 C 0.10941 0.48734 0.42649 0.0
C814 C 0.11022 0.46465 0.45202 0.0
C815 C 0.12513 0.47138 0.43202 0.0
C816 C 0.13164 0.48576 0.40576 0.0
C817 C 0.12394 0.4937 0.40354 0.0
C818 C 0.15839 0.46574 0.45627 0.0
C819 C 0.15201 0.45011 0.44909 0.0
C820 C 0.14957 0.47249 0.45235 0.0
C821 C 0.13416 0.46384 0.44021 0.0
C822 C 0.12765 0.44809 0.43528 0.0
C823 C 0.13646 0.44129 0.43996 0.0
H824 H 0.53399 0.62346 0.40033 0.0
H825 H 0.49621 0.61793 0.49933 0.0
H826 H 0.54671 0.65066 0.4144 0.0
H827 H 0.50912 0.645 0.51472 0.0
H828 H 0.52977 0.6956 0.46799 0.0
H829 H 0.51678 0.66824 0.465 0.0
H830 H 0.55886 0.6693 0.48752 0.0
H831 H 0.57203 0.69686 0.48869 0.0
C832 C 0.52836 0.62803 0.4249 0.0
C833 C 0.51404 0.61848 0.44849 0.0
C834 C 0.53575 0.64361 0.43361 0.0
C835 C 0.52901 0.64999 0.4663 0.0
C836 C 0.51459 0.64048 0.48902 0.0
C837 C 0.50718 0.62493 0.48008 0.0
C838 C 0.53627 0.69004 0.47336 0.0
C839 C 0.552 0.69848 0.47777 0.0
C840 C 0.52878 0.67429 0.47177 0.0
C841 C 0.53681 0.66658 0.47494 0.0
C842 C 0.5524 0.67494 0.48353 0.0
C843 C 0.55993 0.69073 0.48499 0.0
H844 H 0.3753 0.87206 0.40103 0.0
H845 H 0.37493 0.91192 0.33997 0.0
H846 H 0.34814 0.8583 0.40542 0.0
H847 H 0.34757 0.89787 0.34238 0.0
H848 H 0.30052 0.87458 0.42047 0.0
H849 H 0.32782 0.88799 0.41258 0.0
H850 H 0.32578 0.84731 0.35274 0.0
H851 H 0.29869 0.83382 0.36262 0.0
C852 C 0.36944 0.87783 0.38726 0.0
C853 C 0.37736 0.89317 0.37057 0.0
C854 C 0.35379 0.86988 0.38971 0.0
C855 C 0.34564 0.87702 0.37498 0.0
C856 C 0.35352 0.89213 0.35535 0.0
C857 C 0.36921 0.90013 0.35324 0.0
C858 C 0.30592 0.86845 0.40638 0.0
C859 C 0.29738 0.85311 0.39236 0.0
C860 C 0.32157 0.87619 0.40112 0.0
C861 C 0.32902 0.86878 0.38141 0.0
C862 C 0.32047 0.85336 0.36859 0.0
C863 C 0.30488 0.84561 0.37428 0.0
H864 H 0.08659 0.2274 0.84825 0.0
H865 H 0.12185 0.27398 0.82625 0.0
H866 H 0.10271 0.22264 0.90952 0.0
H867 H 0.13782 0.2693 0.88973 0.0
H868 H 0.16522 0.25528 0.9975 0.0
H869 H 0.15164 0.2555 0.91215 0.0
H870 H 0.10981 0.23169 0.00585 0.0
H871 H 0.12321 0.2314 0.08973 0.0
C872 C 0.09786 0.23657 0.8556 0.0
C873 C 0.10287 0.25112 0.83286 0.0
C874 C 0.10708 0.23384 0.89092 0.0
C875 C 0.12144 0.24563 0.90491 0.0
C876 C 0.12684 0.25996 0.87933 0.0
C877 C 0.11763 0.26267 0.8435 0.0
C878 C 0.15309 0.2498 -0.00094 0.0
C879 C 0.14523 0.24343 0.05003 0.0
C880 C 0.14536 0.25 0.95053 0.0
C881 C 0.12968 0.24362 0.9524 0.0
C882 C 0.12185 0.23651 0.00271 0.0
C883 C 0.12954 0.23646 0.05096 0.0
H884 H 0.77051 0.92549 0.02506 0.0
H885 H 0.72289 0.89591 0.0527 0.0
H886 H 0.76894 0.91219 0.93791 0.0
H887 H 0.72142 0.88241 0.96747 0.0
H888 H 0.72057 0.85789 0.8152 0.0
H889 H 0.72333 0.87952 0.86793 0.0
H890 H 0.76596 0.88749 0.93171 0.0
H891 H 0.76336 0.86631 0.87874 0.0
C892 C 0.75966 0.91641 0.01187 0.0
C893 C 0.74691 0.91147 0.0465 0.0
C894 C 0.75877 0.90874 0.96213 0.0
C895 C 0.74513 0.896 0.94642 0.0
C896 C 0.73211 0.89215 0.97802 0.0
C897 C 0.73299 0.89982 0.02743 0.0
C898 C 0.73064 0.86447 0.8397 0.0
C899 C 0.74166 0.86029 0.84331 0.0
C900 C 0.73223 0.87685 0.86984 0.0
C901 C 0.74483 0.88521 0.90432 0.0
C902 C 0.75623 0.88152 0.90494 0.0
C903 C 0.75466 0.86923 0.87482 0.0
H904 H 0.08211 0.86751 0.02844 0.0
H905 H 0.06849 0.82082 -0.001 0.0
H906 H 0.09681 0.87494 0.94069 0.0
H907 H 0.08349 0.82831 0.9115 0.0
H908 H 0.1349 0.85806 0.84029 0.0
H909 H 0.11278 0.8446 0.90231 0.0
H910 H 0.09485 0.87139 0.83223 0.0
H911 H 0.11668 0.88449 0.76981 0.0
C912 C 0.08194 0.85882 0.00227 0.0
C913 C 0.07414 0.84363 0.0201 0.0
C914 C 0.09031 0.86304 0.95209 0.0
C915 C 0.09125 0.85216 0.91949 0.0
C916 C 0.08289 0.83686 0.93593 0.0
C917 C 0.07424 0.8326 0.98563 0.0
C918 C 0.12597 0.86067 0.83693 0.0
C919 C 0.12767 0.87265 0.80198 0.0
C920 C 0.11333 0.85298 0.87224 0.0
C921 C 0.10231 0.85722 0.87264 0.0
C922 C 0.10336 0.86815 0.83342 0.0
C923 C 0.11592 0.87575 0.79822 0.0
H924 H 0.23469 0.09379 0.67004 0.0
H925 H 0.28068 0.12892 0.69641 0.0
H926 H 0.23116 0.11041 0.60561 0.0
H927 H 0.27713 0.1455 0.63048 0.0
H928 H 0.26884 0.15164 0.43685 0.0
H929 H 0.27269 0.14104 0.5235 0.0
H930 H 0.23174 0.13607 0.5937 0.0
H931 H 0.22796 0.14695 0.50577 0.0
C932 C 0.24395 0.10517 0.66329 0.0
C933 C 0.258 0.11 0.68819 0.0
C934 C 0.24188 0.11472 0.62652 0.0
C935 C 0.25387 0.1292 0.61328 0.0
C936 C 0.26772 0.13435 0.64016 0.0
C937 C 0.26975 0.12484 0.67762 0.0
C938 C 0.26068 0.14833 0.47059 0.0
C939 C 0.24792 0.14972 0.46425 0.0
C940 C 0.26301 0.14251 0.52067 0.0
C941 C 0.25252 0.13778 0.56515 0.0
C942 C 0.23999 0.13967 0.5598 0.0
C943 C 0.23781 0.14582 0.50977 0.0
H944 H 0.85952 0.07372 0.38433 0.0
H945 H 0.8147 0.0625 0.43384 0.0
H946 H 0.86924 0.08731 0.47154 0.0
H947 H 0.82437 0.07563 0.52283 0.0
H948 H 0.88581 0.11181 0.62847 0.0
H949 H 0.87208 0.08968 0.5702 0.0
H950 H 0.83806 0.10181 0.54123 0.0
H951 H 0.85142 0.12347 0.60198 0.0
C952 C 0.85165 0.07371 0.41476 0.0
C953 C 0.8364 0.06736 0.40154 0.0
C954 C 0.85722 0.08145 0.46521 0.0
C955 C 0.84763 0.08286 0.5039 0.0
C956 C 0.83212 0.07513 0.49327 0.0
C957 C 0.82657 0.06751 0.44245 0.0
C958 C 0.87523 0.10957 0.61086 0.0
C959 C 0.86982 0.11954 0.6192 0.0
C960 C 0.86737 0.09689 0.57712 0.0
C961 C 0.85409 0.09406 0.55005 0.0
C962 C 0.84816 0.10348 0.5617 0.0
C963 C 0.85591 0.11603 0.59623 0.0
H964 H 0.84273 0.70713 0.70204 0.0
H965 H 0.85368 0.75226 0.64995 0.0
H966 H 0.86029 0.70778 0.63052 0.0
H967 H 0.8712 0.75291 0.57971 0.0
H968 H 0.87911 0.73702 0.40925 0.0
H969 H 0.86483 0.7373 0.49048 0.0
H970 H 0.88881 0.7226 0.59973 0.0
H971 H 0.90329 0.72228 0.51752 0.0
C972 C 0.84902 0.71724 0.67598 0.0
C973 C 0.84675 0.72959 0.68123 0.0
C974 C 0.85912 0.71764 0.6355 0.0
C975 C 0.86695 0.73035 0.59959 0.0
C976 C 0.86516 0.74293 0.60664 0.0
C977 C 0.85517 0.74256 0.64703 0.0
C978 C 0.88136 0.73381 0.45048 0.0
C979 C 0.89227 0.72959 0.45715 0.0
C980 C 0.87326 0.73409 0.49702 0.0
C981 C 0.87584 0.73008 0.55121 0.0
C982 C 0.88667 0.72573 0.55817 0.0
C983 C 0.89495 0.72562 0.51139 0.0
H984 H 0.83729 0.72864 0.95943 0.0
H985 H 0.88021 0.75732 0.87767 0.0
H986 H 0.84956 0.72253 0.03435 0.0
H987 H 0.89254 0.75078 0.95224 0.0
H988 H 0.86996 0.70225 0.13712 0.0
H989 H 0.86134 0.70802 0.04912 0.0
H990 H 0.89907 0.75371 0.0514 0.0
H991 H 0.90802 0.74754 0.13824 0.0
C992 C 0.84937 0.73366 0.95744 0.0
C993 C 0.85775 0.74344 0.91244 0.0
C994 C 0.85642 0.72999 0.0001 0.0
C995 C 0.87203 0.73586 -0.00128 0.0
C996 C 0.8805 0.74604 0.95463 0.0
C997 C 0.87344 0.74982 0.91198 0.0
C998 C 0.87672 0.71331 0.11733 0.0
C999 C 0.88966 0.72443 0.144 0.0
C1000 C 0.87167 0.71673 0.06753 0.0
C1001 C 0.87923 0.73149 0.04416 0.0
C1002 C 0.89294 0.74224 0.06821 0.0
C1003 C 0.89815 0.7387 0.11772 0.0
H1004 H 0.26078 0.09704 0.96541 0.0
H1005 H 0.23139 0.1099 0.88293 0.0
H1006 H 0.26473 0.11428 0.04187 0.0
H1007 H 0.23594 0.12778 0.95777 0.0
H1008 H 0.2349 0.14521 0.13753 0.0
H1009 H 0.2313 0.13061 0.0523 0.0
H1010 H 0.27695 0.13971 0.06458 0.0
H1011 H 0.28005 0.15343 0.15167 0.0
C1012 C 0.25518 0.10358 0.96362 0.0
C1013 C 0.24572 0.10203 0.9183 0.0
C1014 C 0.2576 0.11366 0.00708 0.0
C1015 C 0.25087 0.12271 0.00579 0.0
C1016 C 0.24122 0.12097 0.9607 0.0
C1017 C 0.23859 0.11067 0.91772 0.0
C1018 C 0.24428 0.14448 0.12075 0.0
C1019 C 0.25774 0.15041 0.15095 0.0
C1020 C 0.24222 0.13603 0.072 0.0
C1021 C 0.2537 0.13358 0.05214 0.0
C1022 C 0.26766 0.14084 0.07964 0.0
C1023 C 0.26957 0.14897 0.12894 0.0
H1024 H 0.86218 0.10018 0.14953 0.0
H1025 H 0.82184 0.08502 0.05136 0.0
H1026 H 0.87724 0.11534 0.06838 0.0
H1027 H 0.83695 0.1004 0.97068 0.0
H1028 H 0.86911 0.14016 0.85429 0.0
H1029 H 0.85543 0.12881 0.94291 0.0
H1030 H 0.88151 0.10701 0.96954 0.0
H1031 H 0.89508 0.11814 0.88072 0.0
C1032 C 0.8565 0.10025 0.11097 0.0
C1033 C 0.8408 0.09135 0.1068 0.0
C1034 C 0.86514 0.10889 0.06458 0.0
C1035 C 0.85824 0.10901 0.01346 0.0
C1036 C 0.84252 0.10059 0.00988 0.0
C1037 C 0.83389 0.09175 0.05599 0.0
C1038 C 0.87208 0.13313 0.87946 0.0
C1039 C 0.88312 0.12997 0.86043 0.0
C1040 C 0.86419 0.12658 0.92992 0.0
C1041 C 0.86741 0.11703 0.96275 0.0
C1042 C 0.87889 0.11442 0.94509 0.0
C1043 C 0.8866 0.12074 0.89418 0.0
H1044 H 0.74258 0.87047 0.32184 0.0
H1045 H 0.7406 0.90336 0.42855 0.0
H1046 H 0.74806 0.85951 0.40486 0.0
H1047 H 0.7461 0.89241 0.51123 0.0
H1048 H 0.77292 0.88052 0.63305 0.0
H1049 H 0.7685 0.89066 0.5455 0.0
H1050 H 0.73525 0.84556 0.49637 0.0
H1051 H 0.73961 0.83535 0.58382 0.0
C1052 C 0.74318 0.87527 0.36303 0.0
C1053 C 0.74116 0.88778 0.36867 0.0
C1054 C 0.74633 0.869 0.41047 0.0
C1055 C 0.74768 0.87523 0.46429 0.0
C1056 C 0.74537 0.88755 0.47006 0.0
C1057 C 0.74206 0.8937 0.4228 0.0
C1058 C 0.76486 0.87273 0.60318 0.0
C1059 C 0.75656 0.85713 0.61564 0.0
C1060 C 0.76223 0.87856 0.55332 0.0
C1061 C 0.75139 0.86891 0.51458 0.0
C1062 C 0.74368 0.85325 0.52547 0.0
C1063 C 0.74617 0.84743 0.57562 0.0
H1064 H 0.07891 0.85619 0.35299 0.0
H1065 H 0.12208 0.86432 0.29613 0.0
H1066 H 0.08977 0.86819 0.44251 0.0
H1067 H 0.13286 0.87502 0.38744 0.0
H1068 H 0.15292 0.90635 0.53353 0.0
H1069 H 0.14158 0.89532 0.44315 0.0
H1070 H 0.0988 0.8677 0.52856 0.0
H1071 H 0.11001 0.8799 0.61718 0.0
C1072 C 0.09068 0.86019 0.36059 0.0
C1073 C 0.09968 0.85934 0.31804 0.0
C1074 C 0.09697 0.86704 0.41211 0.0
C1075 C 0.11234 0.87278 0.423 0.0
C1076 C 0.12114 0.87127 0.38067 0.0
C1077 C 0.11494 0.8649 0.32847 0.0
C1078 C 0.14103 0.8981 0.53235 0.0
C1079 C 0.13229 0.89409 0.58194 0.0
C1080 C 0.13451 0.89155 0.48067 0.0
C1081 C 0.11918 0.88037 0.47778 0.0
C1082 C 0.11051 0.87645 0.52799 0.0
C1083 C 0.11693 0.8834 0.57916 0.0
H1084 H 0.10724 0.23215 0.63586 0.0
H1085 H 0.08802 0.25615 0.55227 0.0
H1086 H 0.12439 0.23794 0.55621 0.0
H1087 H 0.1043 0.26103 0.47058 0.0
H1088 H 0.1411 0.27822 0.34504 0.0
H1089 H 0.12811 0.27502 0.43488 0.0
H1090 H 0.12714 0.23269 0.46451 0.0
H1091 H 0.14123 0.23673 0.37679 0.0
C1092 C 0.10649 0.23841 0.59975 0.0
C1093 C 0.09628 0.24366 0.60006 0.0
C1094 C 0.11632 0.24173 0.55389 0.0
C1095 C 0.11592 0.25008 0.50658 0.0
C1096 C 0.10536 0.25499 0.50666 0.0
C1097 C 0.09583 0.25201 0.55317 0.0
C1098 C 0.13851 0.26852 0.37199 0.0
C1099 C 0.14222 0.25779 0.35457 0.0
C1100 C 0.1308 0.26649 0.423 0.0
C1101 C 0.12612 0.25336 0.45673 0.0
C1102 C 0.1306 0.24302 0.44036 0.0
C1103 C 0.13872 0.24531 0.39005 0.0
H1104 H 0.83458 0.55971 0.36061 0.0
H1105 H 0.78983 0.52884 0.42287 0.0
H1106 H 0.82409 0.56338 0.27248 0.0
H1107 H 0.77936 0.53259 0.33645 0.0
H1108 H 0.76125 0.5394 0.18194 0.0
H1109 H 0.77555 0.5308 0.23657 0.0
H1110 H 0.81078 0.57716 0.25756 0.0
H1111 H 0.79672 0.58573 0.20051 0.0
C1112 C 0.82256 0.5533 0.35449 0.0
C1113 C 0.81296 0.54408 0.39837 0.0
C1114 C 0.81654 0.55551 0.30444 0.0
C1115 C 0.80089 0.54843 0.29768 0.0
C1116 C 0.79145 0.53812 0.33972 0.0
C1117 C 0.79743 0.53601 0.38953 0.0
C1118 C 0.77216 0.54776 0.19701 0.0
C1119 C 0.7777 0.56327 0.18776 0.0
C1120 C 0.78038 0.54281 0.22843 0.0
C1121 C 0.79419 0.55329 0.25226 0.0
C1122 C 0.80024 0.56876 0.23947 0.0
C1123 C 0.7921 0.57369 0.20725 0.0
H1124 H 0.43683 0.20299 0.24389 0.0
H1125 H 0.39436 0.19586 0.18218 0.0
H1126 H 0.43981 0.22396 0.29983 0.0
H1127 H 0.39764 0.21743 0.23629 0.0
H1128 H 0.3971 0.23591 0.41377 0.0
H1129 H 0.39567 0.2212 0.33261 0.0
H1130 H 0.44375 0.24858 0.30896 0.0
H1131 H 0.44525 0.26296 0.39282 0.0
C1132 C 0.42827 0.20614 0.24132 0.0
C1133 C 0.41524 0.19764 0.20948 0.0
C1134 C 0.43006 0.21832 0.27298 0.0
C1135 C 0.41893 0.22239 0.27298 0.0
C1136 C 0.4063 0.21442 0.23823 0.0
C1137 C 0.40441 0.20207 0.20718 0.0
C1138 C 0.40738 0.239 0.39082 0.0
C1139 C 0.42136 0.25035 0.4107 0.0
C1140 C 0.40653 0.23062 0.34363 0.0
C1141 C 0.41963 0.23348 0.31464 0.0
C1142 C 0.43348 0.24581 0.33125 0.0
C1143 C 0.43434 0.25414 0.37903 0.0
H1144 H 0.85186 0.21761 0.07693 0.0
H1145 H 0.81559 0.21507 0.97785 0.0
H1146 H 0.83388 0.20109 0.14942 0.0
H1147 H 0.79758 0.19856 0.05001 0.0
H1148 H 0.80593 0.21203 0.28119 0.0
H1149 H 0.82164 0.21537 0.19988 0.0
H1150 H 0.78577 0.17506 0.1257 0.0
H1151 H 0.76999 0.17115 0.20973 0.0
C1152 C 0.83997 0.21266 0.06887 0.0
C1153 C 0.83504 0.21761 0.02235 0.0
C1154 C 0.82969 0.20333 0.11052 0.0
C1155 C 0.81442 0.19887 0.10566 0.0
C1156 C 0.80928 0.20183 0.05472 0.0
C1157 C 0.81958 0.21126 0.01334 0.0
C1158 C 0.80144 0.20358 0.24863 0.0
C1159 C 0.78679 0.19116 0.25262 0.0
C1160 C 0.81049 0.20548 0.20199 0.0
C1161 C 0.80506 0.19521 0.15737 0.0
C1162 C 0.79029 0.18294 0.16025 0.0
C1163 C 0.78126 0.18082 0.20792 0.0
H1164 H 0.93283 0.49366 0.95273 0.0
H1165 H 0.92874 0.45383 0.87496 0.0
H1166 H 0.94406 0.48886 0.0366 0.0
H1167 H 0.94032 0.44947 0.95675 0.0
H1168 H 0.93474 0.45051 0.18482 0.0
H1169 H 0.9332 0.46652 0.11059 0.0
H1170 H 0.96537 0.4616 0.00994 0.0
H1171 H 0.96676 0.44547 0.08433 0.0
C1172 C 0.93443 0.48399 0.95324 0.0
C1173 C 0.93006 0.47422 0.90681 0.0
C1174 C 0.94098 0.48135 0.00093 0.0
C1175 C 0.94346 0.46906 0.00241 0.0
C1176 C 0.93905 0.45935 0.95601 0.0
C1177 C 0.93232 0.46182 0.90911 0.0
C1178 C 0.94218 0.45366 0.14838 0.0
C1179 C 0.95083 0.44679 0.13991 0.0
C1180 C 0.94125 0.46277 0.10573 0.0
C1181 C 0.94888 0.46496 0.05406 0.0
C1182 C 0.95923 0.4599 0.04923 0.0
C1183 C 0.96019 0.45085 0.09204 0.0
H1184 H 0.567 0.4778 0.87692 0.0
H1185 H 0.52744 0.47802 0.93551 0.0
H1186 H 0.55215 0.45922 0.80619 0.0
H1187 H 0.51238 0.45894 0.86465 0.0
H1188 H 0.49617 0.40779 0.79985 0.0
H1189 H 0.50667 0.4307 0.85601 0.0
H1190 H 0.53597 0.45631 0.71618 0.0
H1191 H 0.52518 0.43333 0.65941 0.0
C1192 C 0.5551 0.47387 0.87467 0.0
C1193 C 0.54835 0.47925 0.91217 0.0
C1194 C 0.54665 0.46338 0.83359 0.0
C1195 C 0.53117 0.45779 0.82953 0.0
C1196 C 0.52434 0.46318 0.86674 0.0
C1197 C 0.53291 0.47401 0.90731 0.0
C1198 C 0.50447 0.41844 0.78045 0.0
C1199 C 0.50994 0.41885 0.72551 0.0
C1200 C 0.51043 0.43154 0.81251 0.0
C1201 C 0.52222 0.4452 0.79059 0.0
C1202 C 0.52691 0.44586 0.73403 0.0
C1203 C 0.5207 0.43277 0.70147 0.0
H1204 H 0.60154 0.0901 0.79972 0.0
H1205 H 0.59185 0.12529 0.75462 0.0
H1206 H 0.58615 0.08435 0.88611 0.0
H1207 H 0.57682 0.11981 0.84069 0.0
H1208 H 0.55662 0.11298 0.00963 0.0
H1209 H 0.57812 0.11952 0.94874 0.0
H1210 H 0.55717 0.07323 0.89441 0.0
H1211 H 0.53539 0.06672 0.95517 0.0
C1212 C 0.59656 0.09693 0.80941 0.0
C1213 C 0.59787 0.10818 0.77105 0.0
C1214 C 0.58768 0.09357 0.85837 0.0
C1215 C 0.58035 0.10166 0.86996 0.0
C1216 C 0.58251 0.11353 0.83318 0.0
C1217 C 0.59107 0.11666 0.78392 0.0
C1218 C 0.55655 0.1042 0.98479 0.0
C1219 C 0.54408 0.0895 0.9852 0.0
C1220 C 0.56897 0.1079 0.95055 0.0
C1221 C 0.56916 0.09694 0.91627 0.0
C1222 C 0.5573 0.08189 0.92063 0.0
C1223 C 0.54483 0.07818 0.95509 0.0
H1224 H 0.56592 0.115 0.17126 0.0
H1225 H 0.52311 0.09558 0.25722 0.0
H1226 H 0.5775 0.11289 0.25818 0.0
H1227 H 0.53476 0.09457 0.34558 0.0
H1228 H 0.55447 0.08093 0.48578 0.0
H1229 H 0.54397 0.08184 0.39451 0.0
H1230 H 0.58626 0.1214 0.34663 0.0
H1231 H 0.59697 0.11948 0.43644 0.0
C1232 C 0.55908 0.11061 0.20934 0.0
C1233 C 0.54364 0.10545 0.20771 0.0
C1234 C 0.56571 0.10943 0.2594 0.0
C1235 C 0.55713 0.10342 0.30947 0.0
C1236 C 0.54173 0.0988 0.30787 0.0
C1237 C 0.53504 0.09956 0.25739 0.0
C1238 C 0.56155 0.0896 0.45501 0.0
C1239 C 0.5765 0.10009 0.4677 0.0
C1240 C 0.55549 0.09032 0.40293 0.0
C1241 C 0.56409 0.10191 0.36301 0.0
C1242 C 0.57925 0.11218 0.37553 0.0
C1243 C 0.58544 0.11114 0.42709 0.0
H1244 H 0.90849 0.44419 0.29178 0.0
H1245 H 0.91572 0.41095 0.37864 0.0
H1246 H 0.91031 0.45641 0.38221 0.0
H1247 H 0.91718 0.42288 0.46843 0.0
H1248 H 0.9414 0.4584 0.59722 0.0
H1249 H 0.93683 0.4468 0.50509 0.0
H1250 H 0.89966 0.4544 0.47998 0.0
H1251 H 0.90446 0.46641 0.57302 0.0
C1252 C 0.91007 0.43926 0.33027 0.0
C1253 C 0.91217 0.42671 0.32798 0.0
C1254 C 0.91113 0.44628 0.38201 0.0
C1255 C 0.91425 0.44083 0.4322 0.0
C1256 C 0.9152 0.42762 0.43025 0.0
C1257 C 0.91425 0.4207 0.3788 0.0
C1258 C 0.93231 0.45773 0.57204 0.0
C1259 C 0.92316 0.46314 0.59276 0.0
C1260 C 0.92961 0.45096 0.51933 0.0
C1261 C 0.91762 0.4493 0.48592 0.0
C1262 C 0.90893 0.45545 0.505 0.0
C1263 C 0.9117 0.46235 0.5581 0.0
H1264 H 0.50355 0.44314 0.40926 0.0
H1265 H 0.54544 0.44787 0.46659 0.0
H1266 H 0.51544 0.45554 0.31924 0.0
H1267 H 0.55726 0.4601 0.37612 0.0
H1268 H 0.54715 0.48993 0.18143 0.0
H1269 H 0.5366 0.48084 0.27648 0.0
H1270 H 0.55266 0.44926 0.27477 0.0
H1271 H 0.56304 0.45814 0.17951 0.0
C1272 C 0.51536 0.44707 0.40311 0.0
C1273 C 0.52353 0.44448 0.44508 0.0
C1274 C 0.52217 0.45419 0.35152 0.0
C1275 C 0.53723 0.45862 0.34042 0.0
C1276 C 0.54558 0.45664 0.38331 0.0
C1277 C 0.53884 0.44977 0.43531 0.0
C1278 C 0.54842 0.48103 0.20127 0.0
C1279 C 0.5559 0.47472 0.1727 0.0
C1280 C 0.54236 0.47583 0.25566 0.0
C1281 C 0.5439 0.46442 0.28317 0.0
C1282 C 0.55146 0.4582 0.25486 0.0
C1283 C 0.55729 0.4632 0.2001 0.0
H1284 H 0.40402 0.20972 0.68857 0.0
H1285 H 0.40893 0.24688 0.78884 0.0
H1286 H 0.4081 0.1982 0.7728 0.0
H1287 H 0.41293 0.23526 0.87334 0.0
H1288 H 0.44 0.22074 0.98735 0.0
H1289 H 0.43369 0.23103 0.90485 0.0
H1290 H 0.39719 0.18644 0.86658 0.0
H1291 H 0.40351 0.17606 0.94882 0.0
C1292 C 0.40572 0.2153 0.7288 0.0
C1293 C 0.40623 0.22926 0.73199 0.0
C1294 C 0.40803 0.20868 0.77707 0.0
C1295 C 0.41102 0.21592 0.82953 0.0
C1296 C 0.4109 0.22955 0.83325 0.0
C1297 C 0.40845 0.23612 0.78499 0.0
C1298 C 0.4307 0.21309 0.96116 0.0
C1299 C 0.42229 0.19756 0.97477 0.0
C1300 C 0.42699 0.21903 0.91424 0.0
C1301 C 0.41485 0.20957 0.87957 0.0
C1302 C 0.40663 0.194 0.89241 0.0
C1303 C 0.41026 0.18807 0.93958 0.0
H1304 H 0.77522 0.18954 0.60612 0.0
H1305 H 0.80963 0.2311 0.52792 0.0
H1306 H 0.78327 0.20082 0.69998 0.0
H1307 H 0.81721 0.24248 0.62029 0.0
H1308 H 0.84136 0.24934 0.78687 0.0
H1309 H 0.83058 0.23924 0.69571 0.0
H1310 H 0.78598 0.2201 0.76726 0.0
H1311 H 0.79686 0.22992 0.86007 0.0
C1312 C 0.7843 0.20114 0.609 0.0
C1313 C 0.79201 0.20934 0.55996 0.0
C1314 C 0.78887 0.20763 0.66259 0.0
C1315 C 0.80109 0.22247 0.66769 0.0
C1316 C 0.80807 0.23089 0.61812 0.0
C1317 C 0.80369 0.22437 0.5651 0.0
C1318 C 0.82924 0.24314 0.78339 0.0
C1319 C 0.81999 0.24049 0.831 0.0
C1320 C 0.82303 0.23738 0.73079 0.0
C1321 C 0.80738 0.22891 0.72396 0.0
C1322 C 0.79807 0.22647 0.77122 0.0
C1323 C 0.80432 0.23222 0.82424 0.0
H1324 H 0.75041 0.53371 0.93884 0.0
H1325 H 0.7798 0.58192 0.95506 0.0
H1326 H 0.76273 0.53453 0.84937 0.0
H1327 H 0.79231 0.58261 0.86566 0.0
H1328 H 0.81955 0.56911 0.73625 0.0
H1329 H 0.80831 0.56961 0.82768 0.0
H1330 H 0.76453 0.54831 0.75103 0.0
H1331 H 0.77556 0.54799 0.66042 0.0
C1332 C 0.75948 0.54448 0.92328 0.0
C1333 C 0.76407 0.55776 0.95377 0.0
C1334 C 0.76653 0.54493 0.87218 0.0
C1335 C 0.77849 0.55861 0.85103 0.0
C1336 C 0.78318 0.57191 0.88149 0.0
C1337 C 0.77593 0.57152 0.93219 0.0
C1338 C 0.80755 0.56458 0.73907 0.0
C1339 C 0.79846 0.55854 0.69112 0.0
C1340 C 0.80115 0.56494 0.79112 0.0
C1341 C 0.78558 0.55896 0.7961 0.0
C1342 C 0.77655 0.55291 0.74828 0.0
C1343 C 0.78292 0.55281 0.69637 0.0
H1344 H 0.43563 0.90866 0.52997 0.0
H1345 H 0.47106 0.95445 0.49326 0.0
H1346 H 0.4517 0.90546 0.59676 0.0
H1347 H 0.4871 0.95132 0.56223 0.0
H1348 H 0.51449 0.93554 0.6698 0.0
H1349 H 0.50036 0.93642 0.5873 0.0
H1350 H 0.46009 0.91729 0.69045 0.0
H1351 H 0.47401 0.91632 0.77176 0.0
C1352 C 0.44693 0.91799 0.53543 0.0
C1353 C 0.45205 0.93184 0.50642 0.0
C1354 C 0.4561 0.91616 0.57402 0.0
C1355 C 0.47057 0.92817 0.58493 0.0
C1356 C 0.47601 0.94184 0.5542 0.0
C1357 C 0.4668 0.94367 0.51522 0.0
C1358 C 0.50257 0.93132 0.67429 0.0
C1359 C 0.49531 0.92591 0.72699 0.0
C1360 C 0.49455 0.93193 0.62739 0.0
C1361 C 0.47916 0.92689 0.63261 0.0
C1362 C 0.4719 0.92107 0.68499 0.0
C1363 C 0.47989 0.92061 0.73166 0.0
H1364 H 0.12154 0.58702 0.78236 0.0
H1365 H 0.08728 0.59709 0.73073 0.0
H1366 H 0.11717 0.57223 0.69807 0.0
H1367 H 0.08328 0.58271 0.6446 0.0
H1368 H 0.10987 0.54781 0.54008 0.0
H1369 H 0.11771 0.56958 0.59965 0.0
H1370 H 0.07125 0.55638 0.62781 0.0
H1371 H 0.06348 0.53505 0.56549 0.0
C1372 C 0.11339 0.58647 0.7521 0.0
C1373 C 0.10455 0.59298 0.76383 0.0
C1374 C 0.11092 0.57802 0.70333 0.0
C1375 C 0.09967 0.57604 0.66478 0.0
C1376 C 0.09177 0.58369 0.67408 0.0
C1377 C 0.09414 0.59204 0.72322 0.0
C1378 C 0.10133 0.54971 0.55783 0.0
C1379 C 0.08603 0.53958 0.54839 0.0
C1380 C 0.10584 0.56218 0.59243 0.0
C1381 C 0.09514 0.56466 0.61935 0.0
C1382 C 0.07985 0.55498 0.60737 0.0
C1383 C 0.07536 0.54263 0.57197 0.0
H1384 H 0.41424 0.48979 0.69551 0.0
H1385 H 0.45606 0.50568 0.78374 0.0
H1386 H 0.42811 0.49843 0.60523 0.0
H1387 H 0.46976 0.51443 0.69533 0.0
H1388 H 0.49318 0.52576 0.53423 0.0
H1389 H 0.47495 0.50728 0.60211 0.0
H1390 H 0.44515 0.52458 0.56859 0.0
H1391 H 0.46305 0.54254 0.5 0.0
C1392 C 0.42636 0.49505 0.69561 0.0
C1393 C 0.43413 0.49756 0.74687 0.0
C1394 C 0.43426 0.49992 0.64413 0.0
C1395 C 0.45001 0.50708 0.64329 0.0
C1396 C 0.45762 0.5088 0.6944 0.0
C1397 C 0.44977 0.50412 0.74552 0.0
C1398 C 0.48252 0.52525 0.54027 0.0
C1399 C 0.47971 0.53592 0.51388 0.0
C1400 C 0.47214 0.51474 0.5791 0.0
C1401 C 0.4588 0.51475 0.59149 0.0
C1402 C 0.45534 0.52434 0.56016 0.0
C1403 C 0.46574 0.53485 0.5217 0.0
H1404 H 0.57825 0.82972 0.1573 0.0
H1405 H 0.55605 0.78755 0.06781 0.0
H1406 H 0.58224 0.81688 0.23809 0.0
H1407 H 0.56037 0.77488 0.14709 0.0
H1408 H 0.60502 0.7917 0.32367 0.0
H1409 H 0.59829 0.80566 0.25593 0.0
H1410 H 0.55371 0.76678 0.24352 0.0
H1411 H 0.56059 0.75272 0.30761 0.0
C1412 C 0.57393 0.81765 0.15546 0.0
C1413 C 0.56687 0.8096 0.10637 0.0
C1414 C 0.5764 0.81037 0.2013 0.0
C1415 C 0.57173 0.79491 0.19877 0.0
C1416 C 0.56397 0.78677 0.15072 0.0
C1417 C 0.56154 0.79402 0.10512 0.0
C1418 C 0.59379 0.78621 0.30654 0.0
C1419 C 0.58335 0.77112 0.32119 0.0
C1420 C 0.58988 0.79423 0.26829 0.0
C1421 C 0.57547 0.78728 0.24432 0.0
C1422 C 0.56495 0.77239 0.26065 0.0
C1423 C 0.56888 0.76438 0.29806 0.0
H1424 H 0.2052 0.82288 0.26847 0.0
H1425 H 0.22729 0.79776 0.3107 0.0
H1426 H 0.18838 0.80276 0.20587 0.0
H1427 H 0.21022 0.77742 0.24998 0.0
H1428 H 0.15757 0.76434 0.1014 0.0
H1429 H 0.16888 0.77736 0.18919 0.0
H1430 H 0.20892 0.77566 0.14979 0.0
H1431 H 0.19747 0.76227 0.06347 0.0
C1432 C 0.20622 0.81289 0.26551 0.0
C1433 C 0.21783 0.81209 0.29333 0.0
C1434 C 0.19651 0.80128 0.22993 0.0
C1435 C 0.1981 0.78855 0.22217 0.0
C1436 C 0.20894 0.78724 0.25382 0.0
C1437 C 0.21876 0.79893 0.28868 0.0
C1438 C 0.16865 0.76642 0.11229 0.0
C1439 C 0.17675 0.76254 0.075 0.0
C1440 C 0.17516 0.77397 0.16242 0.0
C1441 C 0.18991 0.77782 0.17607 0.0
C1442 C 0.1975 0.77281 0.14097 0.0
C1443 C 0.19096 0.76519 0.09111 0.0
H1444 H 0.24788 0.40946 0.15291 0.0
H1445 H 0.26351 0.45718 0.14221 0.0
H1446 H 0.23251 0.40691 0.23506 0.0
H1447 H 0.24928 0.45513 0.22779 0.0
H1448 H 0.20331 0.44152 0.30212 0.0
H1449 H 0.22447 0.4466 0.24288 0.0
H1450 H 0.22697 0.41 0.32662 0.0
H1451 H 0.2049 0.40431 0.38355 0.0
C1452 C 0.24855 0.41953 0.17013 0.0
C1453 C 0.25677 0.4335 0.14174 0.0
C1454 C 0.23976 0.41812 0.21742 0.0
C1455 C 0.23932 0.43076 0.23777 0.0
C1456 C 0.24887 0.44503 0.21232 0.0
C1457 C 0.25724 0.44631 0.16389 0.0
C1458 C 0.20848 0.43465 0.30834 0.0
C1459 C 0.20236 0.4224 0.3469 0.0
C1460 C 0.2208 0.43768 0.27467 0.0
C1461 C 0.22757 0.42873 0.27955 0.0
C1462 C 0.2219 0.41695 0.32064 0.0
C1463 C 0.20931 0.41372 0.35352 0.0
H1464 H 0.20868 0.41958 0.87976 0.0
H1465 H 0.25018 0.43054 0.79501 0.0
H1466 H 0.19807 0.42118 0.78979 0.0
H1467 H 0.23938 0.43203 0.70413 0.0
H1468 H 0.22036 0.45168 0.56978 0.0
H1469 H 0.23124 0.449 0.65809 0.0
H1470 H 0.18975 0.40801 0.69906 0.0
H1471 H 0.1788 0.41068 0.6112 0.0
C1472 C 0.21553 0.42223 0.84181 0.0
C1473 C 0.23033 0.42499 0.84472 0.0
C1474 C 0.20939 0.42306 0.79011 0.0
C1475 C 0.21788 0.42677 0.73983 0.0
C1476 C 0.23261 0.42929 0.74232 0.0
C1477 C 0.23875 0.42832 0.79424 0.0
C1478 C 0.21351 0.44214 0.59775 0.0
C1479 C 0.19865 0.43144 0.58339 0.0
C1480 C 0.21981 0.44053 0.64807 0.0
C1481 C 0.21139 0.42826 0.68544 0.0
C1482 C 0.19651 0.41764 0.67135 0.0
C1483 C 0.19024 0.41918 0.62091 0.0
H1484 H 0.60738 0.81446 0.8151 0.0
H1485 H 0.56566 0.81286 0.77957 0.0
H1486 H 0.60635 0.80319 0.72374 0.0
H1487 H 0.56377 0.80042 0.69036 0.0
H1488 H 0.56517 0.78093 0.52206 0.0
H1489 H 0.57019 0.7984 0.59916 0.0
H1490 H 0.59353 0.77928 0.68908 0.0
H1491 H 0.58939 0.76272 0.61023 0.0
C1492 C 0.59817 0.81199 0.78685 0.0
C1493 C 0.58668 0.81461 0.80374 0.0
C1494 C 0.59737 0.80523 0.73498 0.0
C1495 C 0.58473 0.80038 0.69998 0.0
C1496 C 0.57374 0.80402 0.71553 0.0
C1497 C 0.5748 0.81121 0.76671 0.0
C1498 C 0.57136 0.78051 0.55849 0.0
C1499 C 0.57683 0.77044 0.56037 0.0
C1500 C 0.57425 0.79052 0.60283 0.0
C1501 C 0.58238 0.79043 0.65072 0.0
C1502 C 0.58764 0.78012 0.65251 0.0
C1503 C 0.58508 0.77042 0.6076 0.0
H1504 H 0.19905 0.80119 0.81664 0.0
H1505 H 0.16545 0.76679 0.71032 0.0
H1506 H 0.21561 0.81241 0.73429 0.0
H1507 H 0.18204 0.77803 0.62806 0.0
H1508 H 0.22293 0.78994 0.51553 0.0
H1509 H 0.20666 0.78018 0.5991 0.0
H1510 H 0.21751 0.82548 0.64051 0.0
H1511 H 0.23382 0.83533 0.55701 0.0
C1512 C 0.19511 0.79616 0.77556 0.0
C1513 C 0.18096 0.78307 0.77 0.0
C1514 C 0.2046 0.80259 0.72845 0.0
C1515 C 0.20019 0.79596 0.67498 0.0
C1516 C 0.18582 0.78322 0.66901 0.0
C1517 C 0.17626 0.77689 0.71599 0.0
C1518 C 0.22202 0.79786 0.5428 0.0
C1519 C 0.22967 0.81342 0.52945 0.0
C1520 C 0.21257 0.79224 0.59031 0.0
C1521 C 0.21067 0.80205 0.62584 0.0
C1522 C 0.21876 0.81766 0.61386 0.0
C1523 C 0.2281 0.82328 0.56601 0.0
H1524 H 0.07531 0.58083 0.11536 0.0
H1525 H 0.09832 0.5634 0.0163 0.0
H1526 H 0.07475 0.56543 0.19676 0.0
H1527 H 0.09797 0.5483 0.09795 0.0
H1528 H 0.06578 0.52406 0.3114 0.0
H1529 H 0.06365 0.53628 0.22451 0.0
H1530 H 0.11141 0.55716 0.19646 0.0
H1531 H 0.11364 0.54524 0.28357 0.0
C1532 C 0.0801 0.57363 0.11073 0.0
C1533 C 0.08688 0.57337 0.05943 0.0
C1534 C 0.07973 0.56479 0.15722 0.0
C1535 C 0.08635 0.55575 0.15343 0.0
C1536 C 0.09285 0.55524 0.1019 0.0
C1537 C 0.093 0.56386 0.05521 0.0
C1538 C 0.07579 0.53112 0.2863 0.0
C1539 C 0.08989 0.53374 0.30427 0.0
C1540 C 0.07457 0.53816 0.23691 0.0
C1541 C 0.08737 0.54763 0.20408 0.0
C1542 C 0.10136 0.54982 0.22096 0.0
C1543 C 0.10264 0.54305 0.27085 0.0
H1544 H 0.42031 0.5064 0.07674 0.0
H1545 H 0.46304 0.50857 0.06303 0.0
H1546 H 0.42867 0.52117 0.16381 0.0
H1547 H 0.47119 0.5227 0.15039 0.0
H1548 H 0.49017 0.56427 0.25161 0.0
H1549 H 0.47865 0.54842 0.17002 0.0
H1550 H 0.43683 0.52336 0.26298 0.0
H1551 H 0.44833 0.53966 0.34453 0.0
C1552 C 0.43126 0.50956 0.09359 0.0
C1553 C 0.44109 0.50646 0.0633 0.0
C1554 C 0.43609 0.51809 0.14314 0.0
C1555 C 0.45077 0.52351 0.16306 0.0
C1556 C 0.46002 0.51918 0.13514 0.0
C1557 C 0.45529 0.51089 0.08558 0.0
C1558 C 0.47844 0.55556 0.25432 0.0
C1559 C 0.4702 0.55314 0.30459 0.0
C1560 C 0.47187 0.54634 0.20781 0.0
C1561 C 0.45694 0.5343 0.2106 0.0
C1562 C 0.44837 0.53248 0.25957 0.0
C1563 C 0.45494 0.54186 0.30616 0.0
H1564 H 0.49899 0.95975 0.03355 0.0
H1565 H 0.49545 0.9161 0.0505 0.0
H1566 H 0.48545 0.95542 0.12287 0.0
H1567 H 0.48098 0.91116 0.13808 0.0
H1568 H 0.459 0.90878 0.30896 0.0
H1569 H 0.47744 0.9152 0.23308 0.0
H1570 H 0.46022 0.94088 0.14711 0.0
H1571 H 0.44245 0.93509 0.22414 0.0
C1572 C 0.49564 0.94938 0.05745 0.0
C1573 C 0.49832 0.9383 0.03567 0.0
C1574 C 0.48761 0.94673 0.10803 0.0
C1575 C 0.48164 0.93272 0.13696 0.0
C1576 C 0.48538 0.9221 0.11726 0.0
C1577 C 0.49376 0.92493 0.06719 0.0
C1578 C 0.45913 0.91572 0.27356 0.0
C1579 C 0.44928 0.92144 0.27252 0.0
C1580 C 0.46972 0.91943 0.23004 0.0
C1581 C 0.47056 0.92879 0.18413 0.0
C1582 C 0.46033 0.93408 0.18252 0.0
C1583 C 0.44995 0.93059 0.22637 0.0
H1584 H 0.23863 0.37419 0.01726 0.0
H1585 H 0.20538 0.38136 0.09993 0.0
H1586 H 0.22446 0.34743 0.04598 0.0
H1587 H 0.19158 0.35499 0.12916 0.0
H1588 H 0.16102 0.3049 0.11142 0.0
H1589 H 0.17651 0.33116 0.08295 0.0
H1590 H 0.2163 0.32991 0.13048 0.0
H1591 H 0.20067 0.30319 0.15836 0.0
C1592 C 0.22835 0.3701 0.04157 0.0
C1593 C 0.22306 0.37993 0.05558 0.0
C1594 C 0.2203 0.35481 0.05836 0.0
C1595 C 0.20681 0.34904 0.0894 0.0
C1596 C 0.20176 0.35896 0.10429 0.0
C1597 C 0.20973 0.37415 0.08756 0.0
C1598 C 0.17307 0.31013 0.11608 0.0
C1599 C 0.17956 0.30188 0.13771 0.0
C1600 C 0.18196 0.32527 0.09988 0.0
C1601 C 0.19764 0.3327 0.10496 0.0
C1602 C 0.20425 0.32447 0.1258 0.0
C1603 C 0.19529 0.3092 0.14213 0.0
H1604 H 0.69645 0.87092 0.16231 0.0
H1605 H 0.67191 0.88238 0.28065 0.0
H1606 H 0.67404 0.85745 0.10482 0.0
H1607 H 0.64939 0.86882 0.2227 0.0
H1608 H 0.61983 0.8607 0.06393 0.0
H1609 H 0.64204 0.87316 0.12368 0.0
H1610 H 0.64813 0.83459 0.1101 0.0
H1611 H 0.62597 0.8221 0.05043 0.0
C1612 C 0.68621 0.8704 0.17646 0.0
C1613 C 0.68596 0.87774 0.22604 0.0
C1614 C 0.67337 0.86266 0.14352 0.0
C1615 C 0.66002 0.86221 0.15903 0.0
C1616 C 0.65961 0.86916 0.20943 0.0
C1617 C 0.67243 0.87677 0.24289 0.0
C1618 C 0.62601 0.85495 0.07305 0.0
C1619 C 0.62115 0.84042 0.05226 0.0
C1620 C 0.63861 0.86201 0.10784 0.0
C1621 C 0.6467 0.85477 0.12195 0.0
C1622 C 0.64211 0.84044 0.09983 0.0
C1623 C 0.62943 0.83331 0.06563 0.0
H1624 H 0.1506 0.79394 0.98878 0.0
H1625 H 0.11344 0.77993 0.87375 0.0
H1626 H 0.14075 0.80648 0.04706 0.0
H1627 H 0.10356 0.79248 0.93259 0.0
H1628 H 0.08249 0.80177 0.08873 0.0
H1629 H 0.09263 0.78877 0.03405 0.0
H1630 H 0.13654 0.82884 0.03619 0.0
H1631 H 0.12646 0.84187 0.09042 0.0
C1632 C 0.14037 0.7936 0.97573 0.0
C1633 C 0.13281 0.78595 0.92653 0.0
C1634 C 0.13476 0.8008 0.00913 0.0
C1635 C 0.12135 0.80034 0.99456 0.0
C1636 C 0.11384 0.79284 0.94512 0.0
C1637 C 0.11958 0.7858 0.91117 0.0
C1638 C 0.09436 0.8077 0.07848 0.0
C1639 C 0.10369 0.82283 0.09403 0.0
C1640 C 0.10011 0.80032 0.04661 0.0
C1641 C 0.11533 0.80785 0.03052 0.0
C1642 C 0.12478 0.82275 0.04814 0.0
C1643 C 0.119 0.8302 0.0792 0.0
H1644 H 0.28453 0.19914 0.43483 0.0
H1645 H 0.31239 0.18976 0.32651 0.0
H1646 H 0.30564 0.21333 0.4976 0.0
H1647 H 0.33393 0.20495 0.38634 0.0
H1648 H 0.3631 0.21279 0.53705 0.0
H1649 H 0.34218 0.20137 0.47206 0.0
H1650 H 0.32871 0.23329 0.52284 0.0
H1651 H 0.34921 0.24394 0.59103 0.0
C1652 C 0.29541 0.20076 0.42307 0.0
C1653 C 0.2969 0.19341 0.37591 0.0
C1654 C 0.30755 0.20885 0.45924 0.0
C1655 C 0.32151 0.21001 0.44822 0.0
C1656 C 0.32325 0.20383 0.39773 0.0
C1657 C 0.31101 0.19538 0.3626 0.0
C1658 C 0.35548 0.21716 0.53489 0.0
C1659 C 0.35766 0.22913 0.56924 0.0
C1660 C 0.34361 0.21081 0.49682 0.0
C1661 C 0.33384 0.21659 0.49075 0.0
C1662 C 0.33587 0.22842 0.52632 0.0
C1663 C 0.34758 0.23452 0.5656 0.0
H1664 H 0.81487 0.16634 0.40266 0.0
H1665 H 0.76658 0.13927 0.3897 0.0
H1666 H 0.81711 0.14512 0.36966 0.0
H1667 H 0.76891 0.11809 0.35676 0.0
H1668 H 0.78332 0.09819 0.20817 0.0
H1669 H 0.77941 0.11598 0.2625 0.0
H1670 H 0.81087 0.11813 0.38802 0.0
H1671 H 0.81484 0.1003 0.3338 0.0
C1672 C 0.80471 0.15575 0.39423 0.0
C1673 C 0.79056 0.15458 0.39804 0.0
C1674 C 0.80601 0.14359 0.37544 0.0
C1675 C 0.7932 0.13007 0.35973 0.0
C1676 C 0.77898 0.12849 0.36775 0.0
C1677 C 0.77766 0.1406 0.38708 0.0
C1678 C 0.78937 0.10239 0.24744 0.0
C1679 C 0.79946 0.09789 0.26641 0.0
C1680 C 0.787 0.11246 0.27886 0.0
C1681 C 0.79478 0.11836 0.32964 0.0
C1682 C 0.80476 0.11377 0.34898 0.0
C1683 C 0.807 0.10355 0.31789 0.0
H1684 H 0.85754 0.66674 0.30368 0.0
H1685 H 0.89718 0.67914 0.40249 0.0
H1686 H 0.84604 0.64098 0.34085 0.0
H1687 H 0.88539 0.65335 0.44204 0.0
H1688 H 0.86094 0.60113 0.47384 0.0
H1689 H 0.87525 0.62635 0.42969 0.0
H1690 H 0.83533 0.63005 0.43032 0.0
H1691 H 0.8211 0.60492 0.47227 0.0
C1692 C 0.86386 0.66386 0.33291 0.0
C1693 C 0.87819 0.67493 0.3505 0.0
C1694 C 0.85722 0.64914 0.35478 0.0
C1695 C 0.8646 0.64517 0.39581 0.0
C1696 C 0.87938 0.656 0.41062 0.0
C1697 C 0.88615 0.67077 0.38789 0.0
C1698 C 0.8553 0.60743 0.46492 0.0
C1699 C 0.83985 0.60096 0.47605 0.0
C1700 C 0.86349 0.62187 0.43958 0.0
C1701 C 0.85638 0.63012 0.42522 0.0
C1702 C 0.84109 0.62385 0.43891 0.0
C1703 C 0.83293 0.60946 0.46356 0.0
H1704 H 0.77568 0.67043 0.80976 0.0
H1705 H 0.79086 0.70057 0.95199 0.0
H1706 H 0.76655 0.64887 0.87435 0.0
H1707 H 0.78122 0.67886 0.01708 0.0
H1708 H 0.78466 0.63929 0.09942 0.0
H1709 H 0.78914 0.66127 0.04276 0.0
H1710 H 0.74922 0.63324 0.94598 0.0
H1711 H 0.74505 0.61116 0.00144 0.0
C1712 C 0.77674 0.67244 0.85494 0.0
C1713 C 0.78419 0.68723 0.87567 0.0
C1714 C 0.77141 0.66004 0.89212 0.0
C1715 C 0.77329 0.66211 0.951 0.0
C1716 C 0.77987 0.67688 0.97192 0.0
C1717 C 0.78529 0.68932 0.93463 0.0
C1718 C 0.77676 0.63784 0.06639 0.0
C1719 C 0.76462 0.62346 0.05443 0.0
C1720 C 0.77925 0.65048 0.03415 0.0
C1721 C 0.76958 0.64903 0.98954 0.0
C1722 C 0.75705 0.63472 0.97932 0.0
C1723 C 0.75463 0.62207 0.01123 0.0
H1724 H 0.34979 0.12496 0.11268 0.0
H1725 H 0.38105 0.12516 0.99029 0.0
H1726 H 0.3292 0.1105 0.04844 0.0
H1727 H 0.36033 0.1102 0.92654 0.0
H1728 H 0.29288 0.0787 0.93466 0.0
H1729 H 0.31367 0.08735 0.00094 0.0
H1730 H 0.34452 0.11538 0.86816 0.0
H1731 H 0.32389 0.10637 0.80177 0.0
C1732 C 0.35224 0.12165 0.07252 0.0
C1733 C 0.36708 0.12639 0.0563 0.0
C1734 C 0.34039 0.11324 0.03574 0.0
C1735 C 0.3431 0.10927 0.98202 0.0
C1736 C 0.35787 0.11331 0.96714 0.0
C1737 C 0.36975 0.12181 0.00381 0.0
C1738 C 0.30415 0.08651 0.91945 0.0
C1739 C 0.30672 0.09197 0.8631 0.0
C1740 C 0.31605 0.09154 0.95752 0.0
C1741 C 0.33076 0.10219 0.94012 0.0
C1742 C 0.33338 0.10705 0.883 0.0
C1743 C 0.32151 0.10196 0.84491 0.0
H1744 H 0.90121 0.20052 0.79806 0.0
H1745 H 0.85851 0.1831 0.71422 0.0
H1746 H 0.89894 0.22155 0.83358 0.0
H1747 H 0.85628 0.20414 0.74985 0.0
H1748 H 0.87239 0.25612 0.75296 0.0
H1749 H 0.87048 0.2321 0.7284 0.0
H1750 H 0.88329 0.22759 0.89886 0.0
H1751 H 0.8852 0.25172 0.92311 0.0
C1752 C 0.8913 0.20111 0.78753 0.0
C1753 C 0.8801 0.1902 0.75294 0.0
C1754 C 0.88994 0.21309 0.80829 0.0
C1755 C 0.87743 0.21447 0.79447 0.0
C1756 C 0.86609 0.2034 0.76086 0.0
C1757 C 0.86737 0.19135 0.74057 0.0
C1758 C 0.87445 0.24977 0.78538 0.0
C1759 C 0.87872 0.25554 0.84003 0.0
C1760 C 0.87333 0.23604 0.77147 0.0
C1761 C 0.87677 0.228 0.81171 0.0
C1762 C 0.88064 0.2336 0.86697 0.0
C1763 C 0.88157 0.24727 0.88104 0.0
H1764 H 0.68082 0.77092 0.76326 0.0
H1765 H 0.70876 0.79562 0.61892 0.0
H1766 H 0.65964 0.75691 0.70027 0.0
H1767 H 0.68753 0.78198 0.55632 0.0
H1768 H 0.64839 0.75028 0.44984 0.0
H1769 H 0.66961 0.75854 0.51396 0.0
H1770 H 0.64372 0.76332 0.6476 0.0
H1771 H 0.6225 0.75471 0.58437 0.0
C1772 C 0.68249 0.77326 0.71806 0.0
C1773 C 0.69644 0.78451 0.69623 0.0
C1774 C 0.67032 0.76529 0.68197 0.0
C1775 C 0.6718 0.76845 0.62326 0.0
C1776 C 0.68598 0.77914 0.60118 0.0
C1777 C 0.69816 0.78704 0.63722 0.0
C1778 C 0.64718 0.75291 0.49314 0.0
C1779 C 0.63379 0.75194 0.51181 0.0
C1780 C 0.65937 0.75771 0.52982 0.0
C1781 C 0.65842 0.76167 0.58592 0.0
C1782 C 0.64482 0.76016 0.60501 0.0
C1783 C 0.63265 0.75533 0.56849 0.0
H1784 H 0.19018 0.89846 0.57188 0.0
H1785 H 0.22621 0.91491 0.69331 0.0
H1786 H 0.2052 0.89377 0.50526 0.0
H1787 H 0.24146 0.91044 0.62561 0.0
H1788 H 0.2506 0.87683 0.52292 0.0
H1789 H 0.24074 0.8881 0.58735 0.0
H1790 H 0.22712 0.90511 0.44427 0.0
H1791 H 0.23666 0.89349 0.37966 0.0
C1792 C 0.20141 0.90127 0.58413 0.0
C1793 C 0.20694 0.90693 0.63818 0.0
C1794 C 0.2101 0.89871 0.54559 0.0
C1795 C 0.22456 0.90175 0.56 0.0
C1796 C 0.23031 0.90786 0.61342 0.0
C1797 C 0.22159 0.91047 0.6521 0.0
C1798 C 0.24578 0.88322 0.50511 0.0
C1799 C 0.24418 0.88404 0.44612 0.0
C1800 C 0.24018 0.88976 0.54214 0.0
C1801 C 0.23293 0.8973 0.52097 0.0
C1802 C 0.23236 0.89909 0.46191 0.0
C1803 C 0.23791 0.8925 0.42488 0.0
H1804 H 0.12735 0.38145 0.56181 0.0
H1805 H 0.12811 0.35148 0.43655 0.0
H1806 H 0.11035 0.35969 0.62081 0.0
H1807 H 0.11156 0.3298 0.49621 0.0
H1808 H 0.10108 0.31945 0.74024 0.0
H1809 H 0.11273 0.34165 0.67827 0.0
H1810 H 0.0871 0.31444 0.53714 0.0
H1811 H 0.07578 0.29205 0.59903 0.0
C1812 C 0.12383 0.37022 0.54675 0.0
C1813 C 0.12919 0.36819 0.49477 0.0
C1814 C 0.11413 0.35775 0.58066 0.0
C1815 C 0.10966 0.34299 0.56351 0.0
C1816 C 0.11459 0.34097 0.51047 0.0
C1817 C 0.12419 0.35343 0.4764 0.0
C1818 C 0.09774 0.31822 0.69621 0.0
C1819 C 0.08767 0.30395 0.6744 0.0
C1820 C 0.10436 0.331 0.66064 0.0
C1821 C 0.10098 0.32982 0.6025 0.0
C1822 C 0.09019 0.31569 0.58146 0.0
C1823 C 0.08362 0.30287 0.61701 0.0
H1824 H 0.02296 0.56727 0.96623 0.0
H1825 H 0.05083 0.56609 0.83174 0.0
H1826 H 0.0006 0.55014 0.9133 0.0
H1827 H 0.02842 0.54904 0.77888 0.0
H1828 H 0.98441 0.50167 0.75911 0.0
H1829 H 0.00801 0.52227 0.79387 0.0
H1830 H 0.98679 0.5487 0.82357 0.0
H1831 H 0.96307 0.52803 0.78902 0.0
C1832 C 0.02433 0.56342 0.92534 0.0
C1833 C 0.03869 0.56797 0.90349 0.0
C1834 C 0.01152 0.55374 0.89475 0.0
C1835 C 0.01279 0.54832 0.84185 0.0
C1836 C 0.02712 0.55299 0.81965 0.0
C1837 C 0.03994 0.56276 0.85001 0.0
C1838 C 0.98484 0.512 0.7718 0.0
C1839 C 0.97183 0.51315 0.7719 0.0
C1840 C 0.99838 0.52382 0.79156 0.0
C1841 C 0.99916 0.53698 0.81219 0.0
C1842 C 0.98642 0.53857 0.80869 0.0
C1843 C 0.97289 0.52679 0.78838 0.0
H1844 H 0.42758 0.44809 0.83331 0.0
H1845 H 0.47298 0.48009 0.88232 0.0
H1846 H 0.43697 0.43521 0.77434 0.0
H1847 H 0.48234 0.46737 0.82289 0.0
H1848 H 0.46108 0.43774 0.60564 0.0
H1849 H 0.45088 0.44502 0.68372 0.0
H1850 H 0.48381 0.44481 0.7963 0.0
H1851 H 0.49418 0.4376 0.71749 0.0
C1852 C 0.43949 0.45204 0.83327 0.0
C1853 C 0.44955 0.46525 0.86182 0.0
C1854 C 0.4449 0.44478 0.79886 0.0
C1855 C 0.46043 0.45053 0.79279 0.0
C1856 C 0.47033 0.46269 0.82641 0.0
C1857 C 0.46494 0.46999 0.8605 0.0
C1858 C 0.46621 0.43926 0.6469 0.0
C1859 C 0.47852 0.43712 0.65513 0.0
C1860 C 0.4602 0.44322 0.69196 0.0
C1861 C 0.46636 0.44524 0.7465 0.0
C1862 C 0.47877 0.44327 0.75484 0.0
C1863 C 0.48473 0.43917 0.70967 0.0
H1864 H 0.5504 0.9789 0.77907 0.0
H1865 H 0.5176 0.99014 0.83737 0.0
H1866 H 0.56466 0.00388 0.73305 0.0
H1867 H 0.53198 0.01508 0.79361 0.0
H1868 H 0.54834 0.05012 0.65761 0.0
H1869 H 0.53629 0.02483 0.6993 0.0
H1870 H 0.57969 0.03115 0.74433 0.0
H1871 H 0.59182 0.05647 0.70022 0.0
C1872 C 0.54643 0.98683 0.78311 0.0
C1873 C 0.5328 0.98252 0.81127 0.0
C1874 C 0.55457 0.00112 0.75669 0.0
C1875 C 0.54928 0.01137 0.75841 0.0
C1876 C 0.53613 0.00731 0.78966 0.0
C1877 C 0.52795 0.99305 0.81531 0.0
C1878 C 0.55533 0.04602 0.67561 0.0
C1879 C 0.571 0.05528 0.67602 0.0
C1880 C 0.54842 0.03158 0.7001 0.0
C1881 C 0.55699 0.02609 0.72666 0.0
C1882 C 0.57275 0.03503 0.72434 0.0
C1883 C 0.5797 0.0495 0.69897 0.0
H1884 H 0.45167 0.02997 0.07713 0.0
H1885 H 0.48016 0.0526 0.2197 0.0
H1886 H 0.43598 0.00804 0.13802 0.0
H1887 H 0.46473 0.03065 0.27997 0.0
H1888 H 0.43068 0.99258 0.38686 0.0
H1889 H 0.44054 0.01499 0.32536 0.0
H1890 H 0.43936 0.98846 0.1827 0.0
H1891 H 0.42921 0.96603 0.24371 0.0
C1892 C 0.45451 0.03034 0.12153 0.0
C1893 C 0.46726 0.04298 0.14343 0.0
C1894 C 0.44555 0.01775 0.15635 0.0
C1895 C 0.44914 0.01755 0.21378 0.0
C1896 C 0.46151 0.03047 0.23613 0.0
C1897 C 0.47045 0.04303 0.20139 0.0
C1898 C 0.43227 0.99148 0.34217 0.0
C1899 C 0.42934 0.97756 0.32034 0.0
C1900 C 0.438 0.00434 0.30699 0.0
C1901 C 0.44091 0.00356 0.24927 0.0
C1902 C 0.43714 0.98945 0.22684 0.0
C1903 C 0.4314 0.97659 0.26196 0.0
H1904 H 0.0363 0.45922 0.36199 0.0
H1905 H 0.01614 0.48561 0.40982 0.0
H1906 H 0.01177 0.4389 0.33136 0.0
H1907 H 0.99166 0.46522 0.37997 0.0
H1908 H 0.9515 0.41455 0.40826 0.0
H1909 H 0.97534 0.43796 0.42255 0.0
H1910 H 0.99058 0.43366 0.25711 0.0
H1911 H 0.96647 0.41033 0.24248 0.0
C1912 C 0.02668 0.46073 0.36556 0.0
C1913 C 0.02814 0.47397 0.38867 0.0
C1914 C 0.01267 0.44916 0.34764 0.0
C1915 C -0.00015 0.45053 0.35334 0.0
C1916 C 0.00137 0.46389 0.37526 0.0
C1917 C 0.01539 0.47555 0.39226 0.0
C1918 C 0.95981 0.41887 0.37445 0.0
C1919 C 0.9572 0.41085 0.3241 0.0
C1920 C 0.97342 0.43223 0.38255 0.0
C1921 C 0.98479 0.43756 0.34098 0.0
C1922 C 0.98199 0.42974 0.28982 0.0
C1923 C 0.96822 0.41652 0.28126 0.0
H1924 H 0.57829 0.53815 0.17734 0.0
H1925 H 0.57027 0.56249 0.04351 0.0
H1926 H 0.57277 0.55168 0.24778 0.0
H1927 H 0.56508 0.57641 0.11455 0.0
H1928 H 0.53242 0.57536 0.25458 0.0
H1929 H 0.54434 0.5693 0.17891 0.0
H1930 H 0.57954 0.5751 0.29326 0.0
H1931 H 0.56732 0.58076 0.36979 0.0
C1932 C 0.57562 0.54661 0.1629 0.0
C1933 C 0.57449 0.54907 0.10474 0.0
C1934 C 0.57259 0.5545 0.20344 0.0
C1935 C 0.5684 0.56509 0.18689 0.0
C1936 C 0.56808 0.56817 0.12868 0.0
C1937 C 0.5711 0.56023 0.08799 0.0
C1938 C 0.54285 0.57561 0.26346 0.0
C1939 C 0.54877 0.57826 0.31855 0.0
C1940 C 0.54977 0.57224 0.21981 0.0
C1941 C 0.56281 0.57152 0.23015 0.0
C1942 C 0.56934 0.57528 0.28421 0.0
C1943 C 0.56238 0.5786 0.328 0.0
loop_
_geom_bond_atom_site_label_1
_geom_bond_atom_site_label_2
_geom_bond_distance
_geom_bond_site_symmetry_2
_ccdc_geom_bond_type
Mg0 O1 2.028 . S
Mg0 O7 1.986 . S
Mg0 O9 2.114 . S
Mg0 O10 2.251 . S
Mg0 O13 2.010 . S
O1 Mg0 2.028 . S
O1 C4 1.250 . S
O2 Mg3 2.028 . S
O2 C4 1.248 . S
Mg3 O2 2.028 . S
Mg3 O8 2.032 . S
Mg3 O10 2.079 . S
C4 O1 1.250 . S
C4 O2 1.248 . S
C5 O6 1.264 . S
C5 O13 1.249 . S
O6 C5 1.264 . S
O7 Mg0 1.986 . S
O7 C11 1.246 . S
O8 Mg3 2.032 . S
O8 C11 1.259 . S
O9 Mg0 2.114 . S
O9 C12 1.252 . S
O10 Mg0 2.251 . S
O10 Mg3 2.079 . S
O10 C12 1.273 . S
C11 O7 1.246 . S
C11 O8 1.259 . S
C12 O9 1.252 . S
C12 O10 1.273 . S
O13 Mg0 2.010 . S
O13 C5 1.249 . S
Mg14 O15 2.028 . S
Mg14 O21 1.986 . S
Mg14 O23 2.114 . S
Mg14 O24 2.251 . S
Mg14 O27 2.010 . S
O15 Mg14 2.028 . S
O15 C18 1.250 . S
O16 Mg17 2.028 . S
O16 C18 1.248 . S
Mg17 O16 2.028 . S
Mg17 O22 2.032 . S
Mg17 O24 2.079 . S
C18 O15 1.250 . S
C18 O16 1.248 . S
C19 O20 1.264 . S
C19 O27 1.249 . S
O20 C19 1.264 . S
O21 Mg14 1.986 . S
O21 C25 1.246 . S
O22 Mg17 2.032 . S
O22 C25 1.259 . S
O23 Mg14 2.114 . S
O23 C26 1.252 . S
O24 Mg14 2.251 . S
O24 Mg17 2.079 . S
O24 C26 1.273 . S
C25 O21 1.246 . S
C25 O22 1.259 . S
C26 O23 1.252 . S
C26 O24 1.273 . S
O27 Mg14 2.010 . S
O27 C19 1.249 . S
Mg28 O29 2.028 . S
Mg28 O35 1.986 . S
Mg28 O37 2.114 . S
Mg28 O38 2.251 . S
Mg28 O41 2.010 . S
O29 Mg28 2.028 . S
O29 C32 1.250 . S
O30 Mg31 2.028 . S
O30 C32 1.248 . S
Mg31 O30 2.028 . S
Mg31 O36 2.032 . S
Mg31 O38 2.079 . S
C32 O29 1.250 . S
C32 O30 1.248 . S
C33 O34 1.264 . S
C33 O41 1.249 . S
O34 C33 1.264 . S
O35 Mg28 1.986 . S
O35 C39 1.246 . S
O36 Mg31 2.032 . S
O36 C39 1.259 . S
O37 Mg28 2.114 . S
O37 C40 1.252 . S
O38 Mg28 2.251 . S
O38 Mg31 2.079 . S
O38 C40 1.273 . S
C39 O35 1.246 . S
C39 O36 1.259 . S
C40 O37 1.252 . S
C40 O38 1.273 . S
O41 Mg28 2.010 . S
O41 C33 1.249 . S
Mg42 O43 2.028 . S
Mg42 O49 1.986 . S
Mg42 O51 2.114 . S
Mg42 O52 2.251 . S
Mg42 O55 2.010 . S
O43 Mg42 2.028 . S
O43 C46 1.250 . S
O44 Mg45 2.028 . S
O44 C46 1.248 . S
Mg45 O44 2.028 . S
Mg45 O50 2.032 . S
Mg45 O52 2.079 . S
C46 O43 1.250 . S
C46 O44 1.248 . S
C47 O48 1.264 . S
C47 O55 1.249 . S
O48 C47 1.264 . S
O49 Mg42 1.986 . S
O49 C53 1.246 . S
O50 Mg45 2.032 . S
O50 C53 1.259 . S
O51 Mg42 2.114 . S
O51 C54 1.252 . S
O52 Mg42 2.251 . S
O52 Mg45 2.079 . S
O52 C54 1.273 . S
C53 O49 1.246 . S
C53 O50 1.259 . S
C54 O51 1.252 . S
C54 O52 1.273 . S
O55 Mg42 2.010 . S
O55 C47 1.249 . S
Mg56 O57 2.028 . S
Mg56 O63 1.986 . S
Mg56 O65 2.114 . S
Mg56 O66 2.251 . S
Mg56 O69 2.010 . S
O57 Mg56 2.028 . S
O57 C60 1.250 . S
O58 Mg59 2.028 . S
O58 C60 1.248 . S
Mg59 O58 2.028 . S
Mg59 O64 2.032 . S
Mg59 O66 2.079 . S
C60 O57 1.250 . S
C60 O58 1.248 . S
C61 O62 1.264 . S
C61 O69 1.249 . S
O62 C61 1.264 . S
O63 Mg56 1.986 . S
O63 C67 1.246 . S
O64 Mg59 2.032 . S
O64 C67 1.259 . S
O65 Mg56 2.114 . S
O65 C68 1.252 . S
O66 Mg56 2.251 . S
O66 Mg59 2.079 . S
O66 C68 1.273 . S
C67 O63 1.246 . S
C67 O64 1.259 . S
C68 O65 1.252 . S
C68 O66 1.273 . S
O69 Mg56 2.010 . S
O69 C61 1.249 . S
Mg70 O71 2.028 . S
Mg70 O77 1.986 . S
Mg70 O79 2.114 . S
Mg70 O80 2.251 . S
Mg70 O83 2.010 . S
O71 Mg70 2.028 . S
O71 C74 1.250 . S
O72 Mg73 2.028 . S
O72 C74 1.248 . S
Mg73 O72 2.028 . S
Mg73 O78 2.032 . S
Mg73 O80 2.079 . S
C74 O71 1.250 . S
C74 O72 1.248 . S
C75 O76 1.264 . S
C75 O83 1.249 . S
O76 C75 1.264 . S
O77 Mg70 1.986 . S
O77 C81 1.246 . S
O78 Mg73 2.032 . S
O78 C81 1.259 . S
O79 Mg70 2.114 . S
O79 C82 1.252 . S
O80 Mg70 2.251 . S
O80 Mg73 2.079 . S
O80 C82 1.273 . S
C81 O77 1.246 . S
C81 O78 1.259 . S
C82 O79 1.252 . S
C82 O80 1.273 . S
O83 Mg70 2.010 . S
O83 C75 1.249 . S
Mg84 O85 2.028 . S
Mg84 O91 1.986 . S
Mg84 O93 2.114 . S
Mg84 O94 2.251 . S
Mg84 O97 2.010 . S
O85 Mg84 2.028 . S
O85 C88 1.250 . S
O86 Mg87 2.028 . S
O86 C88 1.248 . S
Mg87 O86 2.028 . S
Mg87 O92 2.032 . S
Mg87 O94 2.079 . S
C88 O85 1.250 . S
C88 O86 1.248 . S
C89 O90 1.264 . S
C89 O97 1.249 . S
O90 C89 1.264 . S
O91 Mg84 1.986 . S
O91 C95 1.246 . S
O92 Mg87 2.032 . S
O92 C95 1.259 . S
O93 Mg84 2.114 . S
O93 C96 1.252 . S
O94 Mg84 2.251 . S
O94 Mg87 2.079 . S
O94 C96 1.273 . S
C95 O91 1.246 . S
C95 O92 1.259 . S
C96 O93 1.252 . S
C96 O94 1.273 . S
O97 Mg84 2.010 . S
O97 C89 1.249 . S
Mg98 O99 2.028 . S
Mg98 O105 1.986 . S
Mg98 O107 2.114 . S
Mg98 O108 2.251 . S
Mg98 O111 2.010 . S
O99 Mg98 2.028 . S
O99 C102 1.250 . S
O100 Mg101 2.028 . S
O100 C102 1.248 . S
Mg101 O100 2.028 . S
Mg101 O106 2.032 . S
Mg101 O108 2.079 . S
C102 O99 1.250 . S
C102 O100 1.248 . S
C103 O104 1.264 . S
C103 O111 1.249 . S
O104 C103 1.264 . S
O105 Mg98 1.986 . S
O105 C109 1.246 . S
O106 Mg101 2.032 . S
O106 C109 1.259 . S
O107 Mg98 2.114 . S
O107 C110 1.252 . S
O108 Mg98 2.251 . S
O108 Mg101 2.079 . S
O108 C110 1.273 . S
C109 O105 1.246 . S
C109 O106 1.259 . S
C110 O107 1.252 . S
C110 O108 1.273 . S
O111 Mg98 2.010 . S
O111 C103 1.249 . S
Mg112 O113 2.028 . S
Mg112 O119 1.986 . S
Mg112 O121 2.114 . S
Mg112 O122 2.251 . S
Mg112 O125 2.010 . S
O113 Mg112 2.028 . S
O113 C116 1.250 . S
O114 Mg115 2.028 . S
O114 C116 1.248 . S
Mg115 O114 2.028 . S
Mg115 O120 2.032 . S
Mg115 O122 2.079 . S
C116 O113 1.250 . S
C116 O114 1.248 . S
C117 O118 1.264 . S
C117 O125 1.249 . S
O118 C117 1.264 . S
O119 Mg112 1.986 . S
O119 C123 1.246 . S
O120 Mg115 2.032 . S
O120 C123 1.259 . S
O121 Mg112 2.114 . S
O121 C124 1.252 . S
O122 Mg112 2.251 . S
O122 Mg115 2.079 . S
O122 C124 1.273 . S
C123 O119 1.246 . S
C123 O120 1.259 . S
C124 O121 1.252 . S
C124 O122 1.273 . S
O125 Mg112 2.010 . S
O125 C117 1.249 . S
Mg126 O127 2.028 . S
Mg126 O133 1.986 . S
Mg126 O135 2.114 . S
Mg126 O136 2.251 . S
Mg126 O139 2.010 . S
O127 Mg126 2.028 . S
O127 C130 1.250 . S
O128 Mg129 2.028 . S
O128 C130 1.248 . S
Mg129 O128 2.028 . S
Mg129 O134 2.032 . S
Mg129 O136 2.079 . S
C130 O127 1.250 . S
C130 O128 1.248 . S
C131 O132 1.264 . S
C131 O139 1.249 . S
O132 C131 1.264 . S
O133 Mg126 1.986 . S
O133 C137 1.246 . S
O134 Mg129 2.032 . S
O134 C137 1.259 . S
O135 Mg126 2.114 . S
O135 C138 1.252 . S
O136 Mg126 2.251 . S
O136 Mg129 2.079 . S
O136 C138 1.273 . S
C137 O133 1.246 . S
C137 O134 1.259 . S
C138 O135 1.252 . S
C138 O136 1.273 . S
O139 Mg126 2.010 . S
O139 C131 1.249 . S
Mg140 O141 2.028 . S
Mg140 O147 1.986 . S
Mg140 O149 2.114 . S
Mg140 O150 2.251 . S
Mg140 O153 2.010 . S
O141 Mg140 2.028 . S
O141 C144 1.250 . S
O142 Mg143 2.028 . S
O142 C144 1.248 . S
Mg143 O142 2.028 . S
Mg143 O148 2.032 . S
Mg143 O150 2.079 . S
C144 O141 1.250 . S
C144 O142 1.248 . S
C145 O146 1.264 . S
C145 O153 1.249 . S
O146 C145 1.264 . S
O147 Mg140 1.986 . S
O147 C151 1.246 . S
O148 Mg143 2.032 . S
O148 C151 1.259 . S
O149 Mg140 2.114 . S
O149 C152 1.252 . S
O150 Mg140 2.251 . S
O150 Mg143 2.079 . S
O150 C152 1.273 . S
C151 O147 1.246 . S
C151 O148 1.259 . S
C152 O149 1.252 . S
C152 O150 1.273 . S
O153 Mg140 2.010 . S
O153 C145 1.249 . S
Mg154 O155 2.028 . S
Mg154 O161 1.986 . S
Mg154 O163 2.114 . S
Mg154 O164 2.251 . S
Mg154 O167 2.010 . S
O155 Mg154 2.028 . S
O155 C158 1.250 . S
O156 Mg157 2.028 . S
O156 C158 1.248 . S
Mg157 O156 2.028 . S
Mg157 O162 2.032 . S
Mg157 O164 2.079 . S
C158 O155 1.250 . S
C158 O156 1.248 . S
C159 O160 1.264 . S
C159 O167 1.249 . S
O160 C159 1.264 . S
O161 Mg154 1.986 . S
O161 C165 1.246 . S
O162 Mg157 2.032 . S
O162 C165 1.259 . S
O163 Mg154 2.114 . S
O163 C166 1.252 . S
O164 Mg154 2.251 . S
O164 Mg157 2.079 . S
O164 C166 1.273 . S
C165 O161 1.246 . S
C165 O162 1.259 . S
C166 O163 1.252 . S
C166 O164 1.273 . S
O167 Mg154 2.010 . S
O167 C159 1.249 . S
Mg168 O169 2.028 . S
Mg168 O175 1.986 . S
Mg168 O177 2.114 . S
Mg168 O178 2.251 . S
Mg168 O181 2.010 . S
O169 Mg168 2.028 . S
O169 C172 1.250 . S
O170 Mg171 2.028 . S
O170 C172 1.248 . S
Mg171 O170 2.028 . S
Mg171 O176 2.032 . S
Mg171 O178 2.079 . S
C172 O169 1.250 . S
C172 O170 1.248 . S
C173 O174 1.264 . S
C173 O181 1.249 . S
O174 C173 1.264 . S
O175 Mg168 1.986 . S
O175 C179 1.246 . S
O176 Mg171 2.032 . S
O176 C179 1.259 . S
O177 Mg168 2.114 . S
O177 C180 1.252 . S
O178 Mg168 2.251 . S
O178 Mg171 2.079 . S
O178 C180 1.273 . S
C179 O175 1.246 . S
C179 O176 1.259 . S
C180 O177 1.252 . S
C180 O178 1.273 . S
O181 Mg168 2.010 . S
O181 C173 1.249 . S
Mg182 O183 2.028 . S
Mg182 O189 1.986 . S
Mg182 O191 2.114 . S
Mg182 O192 2.251 . S
Mg182 O195 2.010 . S
O183 Mg182 2.028 . S
O183 C186 1.250 . S
O184 Mg185 2.028 . S
O184 C186 1.248 . S
Mg185 O184 2.028 . S
Mg185 O190 2.032 . S
Mg185 O192 2.079 . S
C186 O183 1.250 . S
C186 O184 1.248 . S
C187 O188 1.264 . S
C187 O195 1.249 . S
O188 C187 1.264 . S
O189 Mg182 1.986 . S
O189 C193 1.246 . S
O190 Mg185 2.032 . S
O190 C193 1.259 . S
O191 Mg182 2.114 . S
O191 C194 1.252 . S
O192 Mg182 2.251 . S
O192 Mg185 2.079 . S
O192 C194 1.273 . S
C193 O189 1.246 . S
C193 O190 1.259 . S
C194 O191 1.252 . S
C194 O192 1.273 . S
O195 Mg182 2.010 . S
O195 C187 1.249 . S
Mg196 O197 2.028 . S
Mg196 O203 1.986 . S
Mg196 O205 2.114 . S
Mg196 O206 2.251 . S
Mg196 O209 2.010 . S
O197 Mg196 2.028 . S
O197 C200 1.250 . S
O198 Mg199 2.028 . S
O198 C200 1.248 . S
Mg199 O198 2.028 . S
Mg199 O204 2.032 . S
Mg199 O206 2.079 . S
C200 O197 1.250 . S
C200 O198 1.248 . S
C201 O202 1.264 . S
C201 O209 1.249 . S
O202 C201 1.264 . S
O203 Mg196 1.986 . S
O203 C207 1.246 . S
O204 Mg199 2.032 . S
O204 C207 1.259 . S
O205 Mg196 2.114 . S
O205 C208 1.252 . S
O206 Mg196 2.251 . S
O206 Mg199 2.079 . S
O206 C208 1.273 . S
C207 O203 1.246 . S
C207 O204 1.259 . S
C208 O205 1.252 . S
C208 O206 1.273 . S
O209 Mg196 2.010 . S
O209 C201 1.249 . S
Mg210 O211 2.028 . S
Mg210 O217 1.986 . S
Mg210 O219 2.114 . S
Mg210 O220 2.251 . S
Mg210 O223 2.010 . S
O211 Mg210 2.028 . S
O211 C214 1.250 . S
O212 Mg213 2.028 . S
O212 C214 1.248 . S
Mg213 O212 2.028 . S
Mg213 O218 2.032 . S
Mg213 O220 2.079 . S
C214 O211 1.250 . S
C214 O212 1.248 . S
C215 O216 1.264 . S
C215 O223 1.249 . S
O216 C215 1.264 . S
O217 Mg210 1.986 . S
O217 C221 1.246 . S
O218 Mg213 2.032 . S
O218 C221 1.259 . S
O219 Mg210 2.114 . S
O219 C222 1.252 . S
O220 Mg210 2.251 . S
O220 Mg213 2.079 . S
O220 C222 1.273 . S
C221 O217 1.246 . S
C221 O218 1.259 . S
C222 O219 1.252 . S
C222 O220 1.273 . S
O223 Mg210 2.010 . S
O223 C215 1.249 . S
Mg224 O225 2.028 . S
Mg224 O231 1.986 . S
Mg224 O233 2.114 . S
Mg224 O234 2.251 . S
Mg224 O237 2.010 . S
O225 Mg224 2.028 . S
O225 C228 1.250 . S
O226 Mg227 2.028 . S
O226 C228 1.248 . S
Mg227 O226 2.028 . S
Mg227 O232 2.032 . S
Mg227 O234 2.079 . S
C228 O225 1.250 . S
C228 O226 1.248 . S
C229 O230 1.264 . S
C229 O237 1.249 . S
O230 C229 1.264 . S
O231 Mg224 1.986 . S
O231 C235 1.246 . S
O232 Mg227 2.032 . S
O232 C235 1.259 . S
O233 Mg224 2.114 . S
O233 C236 1.252 . S
O234 Mg224 2.251 . S
O234 Mg227 2.079 . S
O234 C236 1.273 . S
C235 O231 1.246 . S
C235 O232 1.259 . S
C236 O233 1.252 . S
C236 O234 1.273 . S
O237 Mg224 2.010 . S
O237 C229 1.249 . S
Mg238 O239 2.028 . S
Mg238 O245 1.986 . S
Mg238 O247 2.114 . S
Mg238 O248 2.251 . S
Mg238 O251 2.010 . S
O239 Mg238 2.028 . S
O239 C242 1.250 . S
O240 Mg241 2.028 . S
O240 C242 1.248 . S
Mg241 O240 2.028 . S
Mg241 O246 2.032 . S
Mg241 O248 2.079 . S
C242 O239 1.250 . S
C242 O240 1.248 . S
C243 O244 1.264 . S
C243 O251 1.249 . S
O244 C243 1.264 . S
O245 Mg238 1.986 . S
O245 C249 1.246 . S
O246 Mg241 2.032 . S
O246 C249 1.259 . S
O247 Mg238 2.114 . S
O247 C250 1.252 . S
O248 Mg238 2.251 . S
O248 Mg241 2.079 . S
O248 C250 1.273 . S
C249 O245 1.246 . S
C249 O246 1.259 . S
C250 O247 1.252 . S
C250 O248 1.273 . S
O251 Mg238 2.010 . S
O251 C243 1.249 . S
Mg252 O253 2.028 . S
Mg252 O259 1.986 . S
Mg252 O261 2.114 . S
Mg252 O262 2.251 . S
Mg252 O265 2.010 . S
O253 Mg252 2.028 . S
O253 C256 1.250 . S
O254 Mg255 2.028 . S
O254 C256 1.248 . S
Mg255 O254 2.028 . S
Mg255 O260 2.032 . S
Mg255 O262 2.079 . S
C256 O253 1.250 . S
C256 O254 1.248 . S
C257 O258 1.264 . S
C257 O265 1.249 . S
O258 C257 1.264 . S
O259 Mg252 1.986 . S
O259 C263 1.246 . S
O260 Mg255 2.032 . S
O260 C263 1.259 . S
O261 Mg252 2.114 . S
O261 C264 1.252 . S
O262 Mg252 2.251 . S
O262 Mg255 2.079 . S
O262 C264 1.273 . S
C263 O259 1.246 . S
C263 O260 1.259 . S
C264 O261 1.252 . S
C264 O262 1.273 . S
O265 Mg252 2.010 . S
O265 C257 1.249 . S
Mg266 O267 2.028 . S
Mg266 O273 1.986 . S
Mg266 O275 2.114 . S
Mg266 O276 2.251 . S
Mg266 O279 2.010 . S
O267 Mg266 2.028 . S
O267 C270 1.250 . S
O268 Mg269 2.028 . S
O268 C270 1.248 . S
Mg269 O268 2.028 . S
Mg269 O274 2.032 . S
Mg269 O276 2.079 . S
C270 O267 1.250 . S
C270 O268 1.248 . S
C271 O272 1.264 . S
C271 O279 1.249 . S
O272 C271 1.264 . S
O273 Mg266 1.986 . S
O273 C277 1.246 . S
O274 Mg269 2.032 . S
O274 C277 1.259 . S
O275 Mg266 2.114 . S
O275 C278 1.252 . S
O276 Mg266 2.251 . S
O276 Mg269 2.079 . S
O276 C278 1.273 . S
C277 O273 1.246 . S
C277 O274 1.259 . S
C278 O275 1.252 . S
C278 O276 1.273 . S
O279 Mg266 2.010 . S
O279 C271 1.249 . S
Mg280 O281 2.028 . S
Mg280 O287 1.986 . S
Mg280 O289 2.114 . S
Mg280 O290 2.251 . S
Mg280 O293 2.010 . S
O281 Mg280 2.028 . S
O281 C284 1.250 . S
O282 Mg283 2.028 . S
O282 C284 1.248 . S
Mg283 O282 2.028 . S
Mg283 O288 2.032 . S
Mg283 O290 2.079 . S
C284 O281 1.250 . S
C284 O282 1.248 . S
C285 O286 1.264 . S
C285 O293 1.249 . S
O286 C285 1.264 . S
O287 Mg280 1.986 . S
O287 C291 1.246 . S
O288 Mg283 2.032 . S
O288 C291 1.259 . S
O289 Mg280 2.114 . S
O289 C292 1.252 . S
O290 Mg280 2.251 . S
O290 Mg283 2.079 . S
O290 C292 1.273 . S
C291 O287 1.246 . S
C291 O288 1.259 . S
C292 O289 1.252 . S
C292 O290 1.273 . S
O293 Mg280 2.010 . S
O293 C285 1.249 . S
Mg294 O295 2.028 1_554 S
Mg294 O301 1.986 . S
Mg294 O303 2.114 . S
Mg294 O304 2.251 . S
Mg294 O307 2.010 . S
O295 Mg294 2.028 1_556 S
O295 C298 1.250 . S
O296 Mg297 2.028 1_556 S
O296 C298 1.248 . S
Mg297 O296 2.028 1_554 S
Mg297 O302 2.032 . S
Mg297 O304 2.079 . S
C298 O295 1.250 . S
C298 O296 1.248 . S
C299 O300 1.264 1_556 S
C299 O307 1.249 1_556 S
O300 C299 1.264 1_554 S
O301 Mg294 1.986 . S
O301 C305 1.246 . S
O302 Mg297 2.032 . S
O302 C305 1.259 . S
O303 Mg294 2.114 . S
O303 C306 1.252 . S
O304 Mg294 2.251 . S
O304 Mg297 2.079 . S
O304 C306 1.273 . S
C305 O301 1.246 . S
C305 O302 1.259 . S
C306 O303 1.252 . S
C306 O304 1.273 . S
O307 Mg294 2.010 . S
O307 C299 1.249 1_554 S
Mg308 O309 2.028 1_554 S
Mg308 O315 1.986 . S
Mg308 O317 2.114 . S
Mg308 O318 2.251 . S
Mg308 O321 2.010 . S
O309 Mg308 2.028 1_556 S
O309 C312 1.250 . S
O310 Mg311 2.028 1_556 S
O310 C312 1.248 . S
Mg311 O310 2.028 1_554 S
Mg311 O316 2.032 . S
Mg311 O318 2.079 . S
C312 O309 1.250 . S
C312 O310 1.248 . S
C313 O314 1.264 . S
C313 O321 1.249 . S
O314 C313 1.264 . S
O315 Mg308 1.986 . S
O315 C319 1.246 . S
O316 Mg311 2.032 . S
O316 C319 1.259 . S
O317 Mg308 2.114 . S
O317 C320 1.252 . S
O318 Mg308 2.251 . S
O318 Mg311 2.079 . S
O318 C320 1.273 . S
C319 O315 1.246 . S
C319 O316 1.259 . S
C320 O317 1.252 . S
C320 O318 1.273 . S
O321 Mg308 2.010 . S
O321 C313 1.249 . S
Mg322 O323 2.028 1_554 S
Mg322 O329 1.986 . S
Mg322 O331 2.114 . S
Mg322 O332 2.251 . S
Mg322 O335 2.010 . S
O323 Mg322 2.028 1_556 S
O323 C326 1.250 . S
O324 Mg325 2.028 1_556 S
O324 C326 1.248 . S
Mg325 O324 2.028 1_554 S
Mg325 O330 2.032 . S
Mg325 O332 2.079 . S
C326 O323 1.250 . S
C326 O324 1.248 . S
C327 O328 1.264 . S
C327 O335 1.249 . S
O328 C327 1.264 . S
O329 Mg322 1.986 . S
O329 C333 1.246 . S
O330 Mg325 2.032 . S
O330 C333 1.259 . S
O331 Mg322 2.114 . S
O331 C334 1.252 . S
O332 Mg322 2.251 . S
O332 Mg325 2.079 . S
O332 C334 1.273 . S
C333 O329 1.246 . S
C333 O330 1.259 . S
C334 O331 1.252 . S
C334 O332 1.273 . S
O335 Mg322 2.010 . S
O335 C327 1.249 . S
Mg336 O337 2.028 . S
Mg336 O343 1.986 . S
Mg336 O345 2.114 . S
Mg336 O346 2.251 . S
Mg336 O349 2.010 . S
O337 Mg336 2.028 . S
O337 C340 1.250 . S
O338 Mg339 2.028 . S
O338 C340 1.248 . S
Mg339 O338 2.028 . S
Mg339 O344 2.032 . S
Mg339 O346 2.079 . S
C340 O337 1.250 . S
C340 O338 1.248 . S
C341 O342 1.264 . S
C341 O349 1.249 . S
O342 C341 1.264 . S
O343 Mg336 1.986 . S
O343 C347 1.246 . S
O344 Mg339 2.032 . S
O344 C347 1.259 . S
O345 Mg336 2.114 . S
O345 C348 1.252 . S
O346 Mg336 2.251 . S
O346 Mg339 2.079 . S
O346 C348 1.273 . S
C347 O343 1.246 . S
C347 O344 1.259 . S
C348 O345 1.252 . S
C348 O346 1.273 . S
O349 Mg336 2.010 . S
O349 C341 1.249 . S
Mg350 O351 2.028 . S
Mg350 O357 1.986 . S
Mg350 O359 2.114 . S
Mg350 O360 2.251 . S
Mg350 O363 2.010 . S
O351 Mg350 2.028 . S
O351 C354 1.250 . S
O352 Mg353 2.028 . S
O352 C354 1.248 . S
Mg353 O352 2.028 . S
Mg353 O358 2.032 . S
Mg353 O360 2.079 . S
C354 O351 1.250 . S
C354 O352 1.248 . S
C355 O356 1.264 . S
C355 O363 1.249 . S
O356 C355 1.264 . S
O357 Mg350 1.986 . S
O357 C361 1.246 . S
O358 Mg353 2.032 . S
O358 C361 1.259 . S
O359 Mg350 2.114 . S
O359 C362 1.252 . S
O360 Mg350 2.251 . S
O360 Mg353 2.079 . S
O360 C362 1.273 . S
C361 O357 1.246 . S
C361 O358 1.259 . S
C362 O359 1.252 . S
C362 O360 1.273 . S
O363 Mg350 2.010 . S
O363 C355 1.249 . S
Mg364 O365 2.028 . S
Mg364 O371 1.986 . S
Mg364 O373 2.114 . S
Mg364 O374 2.251 . S
Mg364 O377 2.010 . S
O365 Mg364 2.028 . S
O365 C368 1.250 . S
O366 Mg367 2.028 . S
O366 C368 1.248 . S
Mg367 O366 2.028 . S
Mg367 O372 2.032 . S
Mg367 O374 2.079 . S
C368 O365 1.250 . S
C368 O366 1.248 . S
C369 O370 1.264 . S
C369 O377 1.249 . S
O370 C369 1.264 . S
O371 Mg364 1.986 . S
O371 C375 1.246 . S
O372 Mg367 2.032 . S
O372 C375 1.259 . S
O373 Mg364 2.114 . S
O373 C376 1.252 . S
O374 Mg364 2.251 . S
O374 Mg367 2.079 . S
O374 C376 1.273 . S
C375 O371 1.246 . S
C375 O372 1.259 . S
C376 O373 1.252 . S
C376 O374 1.273 . S
O377 Mg364 2.010 . S
O377 C369 1.249 . S
Mg378 O379 2.028 . S
Mg378 O385 1.986 . S
Mg378 O387 2.114 1_556 S
Mg378 O388 2.251 1_556 S
Mg378 O391 2.010 . S
O379 Mg378 2.028 . S
O379 C382 1.250 1_556 S
O380 Mg381 2.029 . S
O380 C382 1.248 . S
Mg381 O380 2.029 . S
Mg381 O386 2.028 1_554 S
Mg381 O388 2.081 . S
C382 O379 1.250 1_554 S
C382 O380 1.248 . S
C383 O384 1.264 . S
C383 O391 1.249 . S
O384 C383 1.264 . S
O385 Mg378 1.986 . S
O385 C389 1.246 . S
O386 Mg381 2.028 1_556 S
O386 C389 1.259 . S
O387 Mg378 2.114 1_554 S
O387 C390 1.252 . S
O388 Mg378 2.251 1_554 S
O388 Mg381 2.081 . S
O388 C390 1.273 . S
C389 O385 1.246 . S
C389 O386 1.259 . S
C390 O387 1.252 . S
C390 O388 1.273 . S
O391 Mg378 2.010 . S
O391 C383 1.249 . S
Mg392 O393 2.028 1_556 S
Mg392 O399 1.986 1_556 S
Mg392 O401 2.114 . S
Mg392 O402 2.251 . S
Mg392 O405 2.010 1_556 S
O393 Mg392 2.028 1_554 S
O393 C396 1.242 1_554 S
O394 Mg395 2.028 . S
O394 C396 1.265 . S
Mg395 O394 2.028 . S
Mg395 O400 2.032 . S
Mg395 O402 2.079 . S
C396 O393 1.242 1_556 S
C396 O394 1.265 . S
C397 O398 1.264 . S
C397 O405 1.249 . S
O398 C397 1.264 . S
O399 Mg392 1.986 1_554 S
O399 C403 1.246 1_554 S
O400 Mg395 2.032 . S
O400 C403 1.259 . S
O401 Mg392 2.114 . S
O401 C404 1.252 . S
O402 Mg392 2.251 . S
O402 Mg395 2.079 . S
O402 C404 1.273 . S
C403 O399 1.246 1_556 S
C403 O400 1.259 . S
C404 O401 1.252 . S
C404 O402 1.273 . S
O405 Mg392 2.010 1_554 S
O405 C397 1.249 . S
Mg406 O407 2.028 . S
Mg406 O413 1.986 . S
Mg406 O415 2.114 1_556 S
Mg406 O416 2.251 1_556 S
Mg406 O419 2.010 . S
O407 Mg406 2.028 . S
O407 C410 1.250 1_556 S
O408 Mg409 2.028 1_554 S
O408 C410 1.248 . S
Mg409 O408 2.028 1_556 S
Mg409 O414 2.032 . S
Mg409 O416 2.079 1_556 S
C410 O407 1.250 1_554 S
C410 O408 1.248 . S
C411 O412 1.264 . S
C411 O419 1.249 . S
O412 C411 1.264 . S
O413 Mg406 1.986 . S
O413 C417 1.246 . S
O414 Mg409 2.032 . S
O414 C417 1.259 . S
O415 Mg406 2.114 1_554 S
O415 C418 1.252 . S
O416 Mg406 2.251 1_554 S
O416 Mg409 2.079 1_554 S
O416 C418 1.273 . S
C417 O413 1.246 . S
C417 O414 1.259 . S
C418 O415 1.252 . S
C418 O416 1.273 . S
O419 Mg406 2.010 . S
O419 C411 1.249 . S
Mg420 O421 2.028 . S
Mg420 O427 1.986 . S
Mg420 O429 2.114 . S
Mg420 O430 2.251 . S
Mg420 O433 2.010 . S
O421 Mg420 2.028 . S
O421 C424 1.250 . S
O422 Mg423 2.028 . S
O422 C424 1.248 . S
Mg423 O422 2.028 . S
Mg423 O428 2.032 . S
Mg423 O430 2.079 . S
C424 O421 1.250 . S
C424 O422 1.248 . S
C425 O426 1.264 . S
C425 O433 1.249 . S
O426 C425 1.264 . S
O427 Mg420 1.986 . S
O427 C431 1.246 . S
O428 Mg423 2.032 . S
O428 C431 1.259 . S
O429 Mg420 2.114 . S
O429 C432 1.252 . S
O430 Mg420 2.251 . S
O430 Mg423 2.079 . S
O430 C432 1.273 . S
C431 O427 1.246 . S
C431 O428 1.259 . S
C432 O429 1.252 . S
C432 O430 1.273 . S
O433 Mg420 2.010 . S
O433 C425 1.249 . S
Mg434 O435 2.028 . S
Mg434 O441 1.986 . S
Mg434 O443 2.114 . S
Mg434 O444 2.251 . S
Mg434 O447 2.010 . S
O435 Mg434 2.028 . S
O435 C438 1.250 . S
O436 Mg437 2.028 . S
O436 C438 1.248 . S
Mg437 O436 2.028 . S
Mg437 O442 2.032 . S
Mg437 O444 2.079 . S
C438 O435 1.250 . S
C438 O436 1.248 . S
C439 O440 1.264 . S
C439 O447 1.249 . S
O440 C439 1.264 . S
O441 Mg434 1.986 . S
O441 C445 1.246 . S
O442 Mg437 2.032 . S
O442 C445 1.259 . S
O443 Mg434 2.114 . S
O443 C446 1.252 . S
O444 Mg434 2.251 . S
O444 Mg437 2.079 . S
O444 C446 1.273 . S
C445 O441 1.246 . S
C445 O442 1.259 . S
C446 O443 1.252 . S
C446 O444 1.273 . S
O447 Mg434 2.010 . S
O447 C439 1.249 . S
Mg448 O449 2.028 . S
Mg448 O455 1.986 . S
Mg448 O457 2.114 . S
Mg448 O458 2.251 . S
Mg448 O461 2.010 . S
O449 Mg448 2.028 . S
O449 C452 1.250 . S
O450 Mg451 2.028 . S
O450 C452 1.248 . S
Mg451 O450 2.028 . S
Mg451 O456 2.032 . S
Mg451 O458 2.079 . S
C452 O449 1.250 . S
C452 O450 1.248 . S
C453 O454 1.264 . S
C453 O461 1.249 . S
O454 C453 1.264 . S
O455 Mg448 1.986 . S
O455 C459 1.246 . S
O456 Mg451 2.032 . S
O456 C459 1.259 . S
O457 Mg448 2.114 . S
O457 C460 1.252 . S
O458 Mg448 2.251 . S
O458 Mg451 2.079 . S
O458 C460 1.273 . S
C459 O455 1.246 . S
C459 O456 1.259 . S
C460 O457 1.252 . S
C460 O458 1.273 . S
O461 Mg448 2.010 . S
O461 C453 1.249 . S
Mg462 O463 2.028 . S
Mg462 O469 1.986 . S
Mg462 O471 2.114 . S
Mg462 O472 2.251 . S
Mg462 O475 2.010 . S
O463 Mg462 2.028 . S
O463 C466 1.250 . S
O464 Mg465 2.028 . S
O464 C466 1.248 . S
Mg465 O464 2.028 . S
Mg465 O470 2.032 . S
Mg465 O472 2.079 . S
C466 O463 1.250 . S
C466 O464 1.248 . S
C467 O468 1.264 . S
C467 O475 1.249 . S
O468 C467 1.264 . S
O469 Mg462 1.986 . S
O469 C473 1.246 . S
O470 Mg465 2.032 . S
O470 C473 1.259 . S
O471 Mg462 2.114 . S
O471 C474 1.252 . S
O472 Mg462 2.251 . S
O472 Mg465 2.079 . S
O472 C474 1.273 . S
C473 O469 1.246 . S
C473 O470 1.259 . S
C474 O471 1.252 . S
C474 O472 1.273 . S
O475 Mg462 2.010 . S
O475 C467 1.249 . S
Mg476 O477 2.028 . S
Mg476 O483 1.986 . S
Mg476 O485 2.114 . S
Mg476 O486 2.251 . S
Mg476 O489 2.010 . S
O477 Mg476 2.028 . S
O477 C480 1.250 . S
O478 Mg479 2.028 . S
O478 C480 1.248 . S
Mg479 O478 2.028 . S
Mg479 O484 2.032 . S
Mg479 O486 2.079 . S
C480 O477 1.250 . S
C480 O478 1.248 . S
C481 O482 1.264 . S
C481 O489 1.249 . S
O482 C481 1.264 . S
O483 Mg476 1.986 . S
O483 C487 1.246 . S
O484 Mg479 2.032 . S
O484 C487 1.259 . S
O485 Mg476 2.114 . S
O485 C488 1.252 . S
O486 Mg476 2.251 . S
O486 Mg479 2.079 . S
O486 C488 1.273 . S
C487 O483 1.246 . S
C487 O484 1.259 . S
C488 O485 1.252 . S
C488 O486 1.273 . S
O489 Mg476 2.010 . S
O489 C481 1.249 . S
Mg490 O491 2.028 . S
Mg490 O497 1.986 . S
Mg490 O499 2.114 . S
Mg490 O500 2.251 . S
Mg490 O503 2.010 . S
O491 Mg490 2.028 . S
O491 C494 1.250 . S
O492 Mg493 2.028 . S
O492 C494 1.248 . S
Mg493 O492 2.028 . S
Mg493 O498 2.032 . S
Mg493 O500 2.079 . S
C494 O491 1.250 . S
C494 O492 1.248 . S
C495 O496 1.264 . S
C495 O503 1.249 . S
O496 C495 1.264 . S
O497 Mg490 1.986 . S
O497 C501 1.246 . S
O498 Mg493 2.032 . S
O498 C501 1.259 . S
O499 Mg490 2.114 . S
O499 C502 1.252 . S
O500 Mg490 2.251 . S
O500 Mg493 2.079 . S
O500 C502 1.273 . S
C501 O497 1.246 . S
C501 O498 1.259 . S
C502 O499 1.252 . S
C502 O500 1.273 . S
O503 Mg490 2.010 . S
O503 C495 1.249 . S
H504 C512 0.950 . S
H505 C517 0.950 . S
H506 C514 0.950 . S
H507 C516 0.950 . S
H508 C518 0.950 . S
H509 C520 0.950 . S
H510 C522 0.950 . S
H511 C523 0.950 . S
C512 H504 0.950 . S
C512 C513 1.386 . S
C512 C514 1.391 . S
C513 C512 1.386 . S
C513 C517 1.393 . S
C514 H506 0.950 . S
C514 C512 1.391 . S
C514 C515 1.400 . S
C515 C514 1.400 . S
C515 C516 1.398 . S
C515 C521 1.491 . S
C516 H507 0.950 . S
C516 C515 1.398 . S
C516 C517 1.391 . S
C517 H505 0.950 . S
C517 C513 1.393 . S
C517 C516 1.391 . S
C518 H508 0.950 . S
C518 C519 1.386 . S
C518 C520 1.391 . S
C519 C518 1.386 . S
C519 C523 1.393 . S
C520 H509 0.950 . S
C520 C518 1.391 . S
C520 C521 1.400 . S
C521 C515 1.491 . S
C521 C520 1.400 . S
C521 C522 1.398 . S
C522 H510 0.950 . S
C522 C521 1.398 . S
C522 C523 1.391 . S
C523 H511 0.950 . S
C523 C519 1.393 . S
C523 C522 1.391 . S
H524 C532 0.950 . S
H525 C537 0.950 . S
H526 C534 0.950 . S
H527 C536 0.950 . S
H528 C538 0.950 . S
H529 C540 0.950 . S
H530 C542 0.950 . S
H531 C543 0.950 . S
C532 H524 0.950 . S
C532 C533 1.386 . S
C532 C534 1.391 . S
C533 C532 1.386 . S
C533 C537 1.393 . S
C534 H526 0.950 . S
C534 C532 1.391 . S
C534 C535 1.400 . S
C535 C534 1.400 . S
C535 C536 1.398 . S
C535 C541 1.491 1_545 S
C536 H527 0.950 . S
C536 C535 1.398 . S
C536 C537 1.391 . S
C537 H525 0.950 . S
C537 C533 1.393 . S
C537 C536 1.391 . S
C538 H528 0.950 . S
C538 C539 1.386 . S
C538 C540 1.391 . S
C539 C538 1.386 . S
C539 C543 1.393 . S
C540 H529 0.950 . S
C540 C538 1.391 . S
C540 C541 1.400 . S
C541 C535 1.491 1_565 S
C541 C540 1.400 . S
C541 C542 1.398 . S
C542 H530 0.950 . S
C542 C541 1.398 . S
C542 C543 1.391 . S
C543 H531 0.950 . S
C543 C539 1.393 . S
C543 C542 1.391 . S
H544 C552 0.950 . S
H545 C557 0.950 . S
H546 C554 0.950 . S
H547 C556 0.950 . S
H548 C558 0.950 . S
H549 C560 0.950 . S
H550 C562 0.950 . S
H551 C563 0.950 . S
C552 H544 0.950 . S
C552 C553 1.386 . S
C552 C554 1.391 . S
C553 C552 1.386 . S
C553 C557 1.393 . S
C554 H546 0.950 . S
C554 C552 1.391 . S
C554 C555 1.400 . S
C555 C554 1.400 . S
C555 C556 1.398 . S
C555 C561 1.491 1_655 S
C556 H547 0.950 . S
C556 C555 1.398 . S
C556 C557 1.391 . S
C557 H545 0.950 . S
C557 C553 1.393 . S
C557 C556 1.391 . S
C558 H548 0.950 . S
C558 C559 1.386 . S
C558 C560 1.391 . S
C559 C558 1.386 . S
C559 C563 1.393 . S
C560 H549 0.950 . S
C560 C558 1.391 . S
C560 C561 1.400 . S
C561 C555 1.491 1_455 S
C561 C560 1.400 . S
C561 C562 1.398 . S
C562 H550 0.950 . S
C562 C561 1.398 . S
C562 C563 1.391 . S
C563 H551 0.950 . S
C563 C559 1.393 . S
C563 C562 1.391 . S
H564 C572 0.950 . S
H565 C577 0.950 . S
H566 C574 0.950 . S
H567 C576 0.950 . S
H568 C578 0.950 . S
H569 C580 0.950 . S
H570 C582 0.950 . S
H571 C583 0.950 . S
C572 H564 0.950 . S
C572 C573 1.386 . S
C572 C574 1.391 . S
C573 C572 1.386 . S
C573 C577 1.393 . S
C574 H566 0.950 . S
C574 C572 1.391 . S
C574 C575 1.400 . S
C575 C574 1.400 . S
C575 C576 1.398 . S
C575 C581 1.491 . S
C576 H567 0.950 . S
C576 C575 1.398 . S
C576 C577 1.391 . S
C577 H565 0.950 . S
C577 C573 1.393 . S
C577 C576 1.391 . S
C578 H568 0.950 . S
C578 C579 1.386 . S
C578 C580 1.391 . S
C579 C578 1.386 . S
C579 C583 1.393 . S
C580 H569 0.950 . S
C580 C578 1.391 . S
C580 C581 1.400 . S
C581 C575 1.491 . S
C581 C580 1.400 . S
C581 C582 1.398 . S
C582 H570 0.950 . S
C582 C581 1.398 . S
C582 C583 1.391 . S
C583 H571 0.950 . S
C583 C579 1.393 . S
C583 C582 1.391 . S
H584 C592 0.950 . S
H585 C597 0.950 . S
H586 C594 0.950 . S
H587 C596 0.950 . S
H588 C598 0.950 . S
H589 C600 0.950 . S
H590 C602 0.950 . S
H591 C603 0.950 . S
C592 H584 0.950 . S
C592 C593 1.386 . S
C592 C594 1.391 . S
C593 C592 1.386 . S
C593 C597 1.393 . S
C594 H586 0.950 . S
C594 C592 1.391 . S
C594 C595 1.400 . S
C595 C594 1.400 . S
C595 C596 1.398 . S
C595 C601 1.491 1_545 S
C596 H587 0.950 . S
C596 C595 1.398 . S
C596 C597 1.391 . S
C597 H585 0.950 . S
C597 C593 1.393 . S
C597 C596 1.391 . S
C598 H588 0.950 . S
C598 C599 1.386 . S
C598 C600 1.391 . S
C599 C598 1.386 . S
C599 C603 1.393 . S
C600 H589 0.950 . S
C600 C598 1.391 . S
C600 C601 1.400 . S
C601 C595 1.491 1_565 S
C601 C600 1.400 . S
C601 C602 1.398 . S
C602 H590 0.950 . S
C602 C601 1.398 . S
C602 C603 1.391 . S
C603 H591 0.950 . S
C603 C599 1.393 . S
C603 C602 1.391 . S
H604 C612 0.950 . S
H605 C617 0.950 . S
H606 C614 0.950 . S
H607 C616 0.995 . S
H608 C618 0.950 . S
H609 C620 0.950 . S
H610 C622 0.950 . S
H611 C623 0.950 . S
C612 H604 0.950 . S
C612 C613 1.386 . S
C612 C614 1.391 . S
C613 C612 1.386 . S
C613 C617 1.393 . S
C614 H606 0.950 . S
C614 C612 1.391 . S
C614 C615 1.400 . S
C615 C614 1.400 . S
C615 C616 1.398 . S
C615 C621 1.491 1_455 S
C616 H607 0.995 . S
C616 C615 1.398 . S
C616 C617 1.391 . S
C617 H605 0.950 . S
C617 C613 1.393 . S
C617 C616 1.391 . S
C618 H608 0.950 . S
C618 C619 1.386 . S
C618 C620 1.391 . S
C619 C618 1.386 . S
C619 C623 1.393 . S
C620 H609 0.950 . S
C620 C618 1.391 . S
C620 C621 1.400 . S
C621 C615 1.491 1_655 S
C621 C620 1.400 . S
C621 C622 1.398 . S
C622 H610 0.950 . S
C622 C621 1.398 . S
C622 C623 1.391 . S
C623 H611 0.950 . S
C623 C619 1.393 . S
C623 C622 1.391 . S
H624 C632 0.950 . S
H625 C637 0.950 . S
H626 C634 0.950 . S
H627 C636 0.950 . S
H628 C638 0.950 . S
H629 C640 0.950 . S
H630 C642 0.950 . S
H631 C643 0.950 . S
C632 H624 0.950 . S
C632 C633 1.386 . S
C632 C634 1.391 . S
C633 C632 1.386 . S
C633 C637 1.393 . S
C634 H626 0.950 . S
C634 C632 1.391 . S
C634 C635 1.400 . S
C635 C634 1.400 . S
C635 C636 1.398 . S
C635 C641 1.491 . S
C636 H627 0.950 . S
C636 C635 1.398 . S
C636 C637 1.391 . S
C637 H625 0.950 . S
C637 C633 1.393 . S
C637 C636 1.391 . S
C638 H628 0.950 . S
C638 C639 1.386 . S
C638 C640 1.391 . S
C639 C638 1.386 . S
C639 C643 1.393 . S
C640 H629 0.950 . S
C640 C638 1.391 . S
C640 C641 1.400 . S
C641 C635 1.491 . S
C641 C640 1.400 . S
C641 C642 1.398 . S
C642 H630 0.950 . S
C642 C641 1.398 . S
C642 C643 1.391 . S
C643 H631 0.950 . S
C643 C639 1.393 . S
C643 C642 1.391 . S
H644 C652 0.950 . S
H645 C657 0.950 . S
H646 C654 0.950 . S
H647 C656 0.950 . S
H648 C658 0.950 . S
H649 C660 0.950 . S
H650 C662 0.950 . S
H651 C663 0.950 . S
C652 H644 0.950 . S
C652 C653 1.386 . S
C652 C654 1.391 . S
C653 C652 1.386 . S
C653 C657 1.393 . S
C654 H646 0.950 . S
C654 C652 1.391 . S
C654 C655 1.400 . S
C655 C654 1.400 . S
C655 C656 1.398 . S
C655 C661 1.491 . S
C656 H647 0.950 . S
C656 C655 1.398 . S
C656 C657 1.391 . S
C657 H645 0.950 . S
C657 C653 1.393 . S
C657 C656 1.391 . S
C658 H648 0.950 . S
C658 C659 1.386 . S
C658 C660 1.391 . S
C659 C658 1.386 . S
C659 C663 1.393 . S
C660 H649 0.950 . S
C660 C658 1.391 . S
C660 C661 1.400 . S
C661 C655 1.491 . S
C661 C660 1.400 . S
C661 C662 1.398 . S
C662 H650 0.950 . S
C662 C661 1.398 . S
C662 C663 1.391 . S
C663 H651 0.950 . S
C663 C659 1.393 . S
C663 C662 1.391 . S
H664 C672 0.950 . S
H665 C677 0.950 . S
H666 C674 0.950 . S
H667 C676 0.950 . S
H668 C678 0.950 . S
H669 C680 0.950 . S
H670 C682 0.950 . S
H671 C683 0.950 . S
C672 H664 0.950 . S
C672 C673 1.386 . S
C672 C674 1.391 . S
C673 C672 1.386 . S
C673 C677 1.393 . S
C674 H666 0.950 . S
C674 C672 1.391 . S
C674 C675 1.400 . S
C675 C674 1.400 . S
C675 C676 1.398 . S
C675 C681 1.491 . S
C676 H667 0.950 . S
C676 C675 1.398 . S
C676 C677 1.391 . S
C677 H665 0.950 . S
C677 C673 1.393 . S
C677 C676 1.391 . S
C678 H668 0.950 . S
C678 C679 1.386 . S
C678 C680 1.391 . S
C679 C678 1.386 . S
C679 C683 1.393 . S
C680 H669 0.950 . S
C680 C678 1.391 . S
C680 C681 1.400 . S
C681 C675 1.491 . S
C681 C680 1.400 . S
C681 C682 1.398 . S
C682 H670 0.950 . S
C682 C681 1.398 . S
C682 C683 1.391 . S
C683 H671 0.950 . S
C683 C679 1.393 . S
C683 C682 1.391 . S
H684 C692 0.950 . S
H685 C697 0.950 . S
H686 C694 0.950 . S
H687 C696 0.950 . S
H688 C698 0.950 . S
H689 C700 0.950 1_556 S
H690 C702 0.950 . S
H691 C703 0.950 . S
C692 H684 0.950 . S
C692 C693 1.386 . S
C692 C694 1.391 . S
C693 C692 1.386 . S
C693 C697 1.393 . S
C694 H686 0.950 . S
C694 C692 1.391 . S
C694 C695 1.400 . S
C695 C694 1.400 . S
C695 C696 1.398 . S
C695 C701 1.491 . S
C696 H687 0.950 . S
C696 C695 1.398 . S
C696 C697 1.391 . S
C697 H685 0.950 . S
C697 C693 1.393 . S
C697 C696 1.391 . S
C698 H688 0.950 . S
C698 C699 1.386 1_556 S
C698 C700 1.391 1_556 S
C699 C698 1.386 1_554 S
C699 C703 1.393 . S
C700 H689 0.950 1_554 S
C700 C698 1.391 1_554 S
C700 C701 1.400 . S
C701 C695 1.491 . S
C701 C700 1.400 . S
C701 C702 1.398 . S
C702 H690 0.950 . S
C702 C701 1.398 . S
C702 C703 1.391 . S
C703 H691 0.950 . S
C703 C699 1.393 . S
C703 C702 1.391 . S
H704 C712 0.950 . S
H705 C717 0.950 1_556 S
H706 C714 0.950 . S
H707 C716 0.950 . S
H708 C718 0.950 . S
H709 C720 0.950 . S
H710 C722 0.950 . S
H711 C723 0.950 . S
C712 H704 0.950 . S
C712 C713 1.386 . S
C712 C714 1.391 . S
C713 C712 1.386 . S
C713 C717 1.393 . S
C714 H706 0.950 . S
C714 C712 1.391 . S
C714 C715 1.400 . S
C715 C714 1.400 . S
C715 C716 1.398 . S
C715 C721 1.491 . S
C716 H707 0.950 . S
C716 C715 1.398 . S
C716 C717 1.391 . S
C717 H705 0.950 1_554 S
C717 C713 1.393 . S
C717 C716 1.391 . S
C718 H708 0.950 . S
C718 C719 1.386 . S
C718 C720 1.391 . S
C719 C718 1.386 . S
C719 C723 1.393 . S
C720 H709 0.950 . S
C720 C718 1.391 . S
C720 C721 1.400 . S
C721 C715 1.491 . S
C721 C720 1.400 . S
C721 C722 1.398 . S
C722 H710 0.950 . S
C722 C721 1.398 . S
C722 C723 1.391 . S
C723 H711 0.950 . S
C723 C719 1.393 . S
C723 C722 1.391 . S
H724 C732 0.950 . S
H725 C737 0.950 . S
H726 C734 0.950 . S
H727 C736 0.950 . S
H728 C738 0.950 1_556 S
H729 C740 0.950 . S
H730 C742 0.950 . S
H731 C743 0.950 . S
C732 H724 0.950 . S
C732 C733 1.386 . S
C732 C734 1.391 . S
C733 C732 1.386 . S
C733 C737 1.393 . S
C734 H726 0.950 . S
C734 C732 1.391 . S
C734 C735 1.400 . S
C735 C734 1.400 . S
C735 C736 1.398 . S
C735 C741 1.491 . S
C736 H727 0.950 . S
C736 C735 1.398 . S
C736 C737 1.391 . S
C737 H725 0.950 . S
C737 C733 1.393 . S
C737 C736 1.391 . S
C738 H728 0.950 1_554 S
C738 C739 1.386 . S
C738 C740 1.391 . S
C739 C738 1.386 . S
C739 C743 1.393 . S
C740 H729 0.950 . S
C740 C738 1.391 . S
C740 C741 1.400 . S
C741 C735 1.491 . S
C741 C740 1.400 . S
C741 C742 1.398 . S
C742 H730 0.950 . S
C742 C741 1.398 . S
C742 C743 1.391 . S
C743 H731 0.950 . S
C743 C739 1.393 . S
C743 C742 1.391 . S
H744 C752 0.950 . S
H745 C757 0.950 . S
H746 C754 0.950 . S
H747 C756 0.950 . S
H748 C758 0.950 . S
H749 C760 0.950 . S
H750 C762 0.950 . S
H751 C763 0.950 . S
C752 H744 0.950 . S
C752 C753 1.386 . S
C752 C754 1.391 . S
C753 C752 1.386 . S
C753 C757 1.393 . S
C754 H746 0.950 . S
C754 C752 1.391 . S
C754 C755 1.400 . S
C755 C754 1.400 . S
C755 C756 1.398 . S
C755 C761 1.491 . S
C756 H747 0.950 . S
C756 C755 1.398 . S
C756 C757 1.391 . S
C757 H745 0.950 . S
C757 C753 1.393 . S
C757 C756 1.391 . S
C758 H748 0.950 . S
C758 C759 1.386 . S
C758 C760 1.391 . S
C759 C758 1.386 . S
C759 C763 1.393 . S
C760 H749 0.950 . S
C760 C758 1.391 . S
C760 C761 1.400 . S
C761 C755 1.491 . S
C761 C760 1.400 . S
C761 C762 1.398 . S
C762 H750 0.950 . S
C762 C761 1.398 . S
C762 C763 1.391 . S
C763 H751 0.950 . S
C763 C759 1.393 . S
C763 C762 1.391 . S
H764 C772 0.950 . S
H765 C777 0.950 . S
H766 C774 0.950 . S
H767 C776 0.950 . S
H768 C778 0.950 1_554 S
H769 C780 0.950 . S
H770 C782 0.950 . S
H771 C783 0.950 . S
C772 H764 0.950 . S
C772 C773 1.386 . S
C772 C774 1.391 . S
C773 C772 1.386 . S
C773 C777 1.393 . S
C774 H766 0.950 . S
C774 C772 1.391 . S
C774 C775 1.400 . S
C775 C774 1.400 . S
C775 C776 1.398 . S
C775 C781 1.491 . S
C776 H767 0.950 . S
C776 C775 1.398 . S
C776 C777 1.391 . S
C777 H765 0.950 . S
C777 C773 1.393 . S
C777 C776 1.391 . S
C778 H768 0.950 1_556 S
C778 C779 1.386 . S
C778 C780 1.391 . S
C779 C778 1.386 . S
C779 C783 1.393 . S
C780 H769 0.950 . S
C780 C778 1.391 . S
C780 C781 1.400 . S
C781 C775 1.491 . S
C781 C780 1.400 . S
C781 C782 1.398 . S
C782 H770 0.950 . S
C782 C781 1.398 . S
C782 C783 1.391 . S
C783 H771 0.950 . S
C783 C779 1.393 . S
C783 C782 1.391 . S
H784 C792 0.950 . S
H785 C797 0.950 1_554 S
H786 C794 0.950 . S
H787 C796 0.950 . S
H788 C798 0.950 . S
H789 C800 0.950 . S
H790 C802 0.950 . S
H791 C803 0.950 . S
C792 H784 0.950 . S
C792 C793 1.386 . S
C792 C794 1.391 . S
C793 C792 1.386 . S
C793 C797 1.393 . S
C794 H786 0.950 . S
C794 C792 1.391 . S
C794 C795 1.400 . S
C795 C794 1.400 . S
C795 C796 1.398 . S
C795 C801 1.491 . S
C796 H787 0.950 . S
C796 C795 1.398 . S
C796 C797 1.391 . S
C797 H785 0.950 1_556 S
C797 C793 1.393 . S
C797 C796 1.391 . S
C798 H788 0.950 . S
C798 C799 1.386 . S
C798 C800 1.391 . S
C799 C798 1.386 . S
C799 C803 1.393 . S
C800 H789 0.950 . S
C800 C798 1.391 . S
C800 C801 1.400 . S
C801 C795 1.491 . S
C801 C800 1.400 . S
C801 C802 1.398 . S
C802 H790 0.950 . S
C802 C801 1.398 . S
C802 C803 1.391 . S
C803 H791 0.950 . S
C803 C799 1.393 . S
C803 C802 1.391 . S
H804 C812 0.950 . S
H805 C817 0.950 . S
H806 C814 0.950 . S
H807 C816 0.950 . S
H808 C818 0.950 . S
H809 C820 0.950 . S
H810 C822 0.950 . S
H811 C823 0.950 . S
C812 H804 0.950 . S
C812 C813 1.386 . S
C812 C814 1.391 . S
C813 C812 1.386 . S
C813 C817 1.393 . S
C814 H806 0.950 . S
C814 C812 1.391 . S
C814 C815 1.400 . S
C815 C814 1.400 . S
C815 C816 1.398 . S
C815 C821 1.491 . S
C816 H807 0.950 . S
C816 C815 1.398 . S
C816 C817 1.391 . S
C817 H805 0.950 . S
C817 C813 1.393 . S
C817 C816 1.391 . S
C818 H808 0.950 . S
C818 C819 1.386 . S
C818 C820 1.391 . S
C819 C818 1.386 . S
C819 C823 1.393 . S
C820 H809 0.950 . S
C820 C818 1.391 . S
C820 C821 1.400 . S
C821 C815 1.491 . S
C821 C820 1.400 . S
C821 C822 1.398 . S
C822 H810 0.950 . S
C822 C821 1.398 . S
C822 C823 1.391 . S
C823 H811 0.950 . S
C823 C819 1.393 . S
C823 C822 1.391 . S
H824 C832 0.950 . S
H825 C837 0.950 . S
H826 C834 0.950 . S
H827 C836 0.950 . S
H828 C838 0.950 . S
H829 C840 0.950 . S
H830 C842 0.950 . S
H831 C843 0.950 . S
C832 H824 0.950 . S
C832 C833 1.386 . S
C832 C834 1.391 . S
C833 C832 1.386 . S
C833 C837 1.393 . S
C834 H826 0.950 . S
C834 C832 1.391 . S
C834 C835 1.400 . S
C835 C834 1.400 . S
C835 C836 1.398 . S
C835 C841 1.491 . S
C836 H827 0.950 . S
C836 C835 1.398 . S
C836 C837 1.391 . S
C837 H825 0.950 . S
C837 C833 1.393 . S
C837 C836 1.391 . S
C838 H828 0.950 . S
C838 C839 1.386 . S
C838 C840 1.391 . S
C839 C838 1.386 . S
C839 C843 1.393 . S
C840 H829 0.950 . S
C840 C838 1.391 . S
C840 C841 1.400 . S
C841 C835 1.491 . S
C841 C840 1.400 . S
C841 C842 1.398 . S
C842 H830 0.950 . S
C842 C841 1.398 . S
C842 C843 1.391 . S
C843 H831 0.950 . S
C843 C839 1.393 . S
C843 C842 1.391 . S
H844 C852 0.950 . S
H845 C857 0.950 . S
H846 C854 0.950 . S
H847 C856 0.950 . S
H848 C858 0.950 . S
H849 C860 0.950 . S
H850 C862 0.950 . S
H851 C863 0.950 . S
C852 H844 0.950 . S
C852 C853 1.386 . S
C852 C854 1.391 . S
C853 C852 1.386 . S
C853 C857 1.393 . S
C854 H846 0.950 . S
C854 C852 1.391 . S
C854 C855 1.400 . S
C855 C854 1.400 . S
C855 C856 1.398 . S
C855 C861 1.491 . S
C856 H847 0.950 . S
C856 C855 1.398 . S
C856 C857 1.391 . S
C857 H845 0.950 . S
C857 C853 1.393 . S
C857 C856 1.391 . S
C858 H848 0.950 . S
C858 C859 1.386 . S
C858 C860 1.391 . S
C859 C858 1.386 . S
C859 C863 1.393 . S
C860 H849 0.950 . S
C860 C858 1.391 . S
C860 C861 1.400 . S
C861 C855 1.491 . S
C861 C860 1.400 . S
C861 C862 1.398 . S
C862 H850 0.950 . S
C862 C861 1.398 . S
C862 C863 1.391 . S
C863 H851 0.950 . S
C863 C859 1.393 . S
C863 C862 1.391 . S
H864 C872 0.950 . S
H865 C877 0.950 . S
H866 C874 0.950 . S
H867 C876 0.950 . S
H868 C878 0.950 . S
H869 C880 0.950 . S
H870 C882 0.950 . S
H871 C883 0.950 . S
C872 H864 0.950 . S
C872 C873 1.386 . S
C872 C874 1.391 . S
C873 C872 1.386 . S
C873 C877 1.393 . S
C874 H866 0.950 . S
C874 C872 1.391 . S
C874 C875 1.400 . S
C875 C874 1.400 . S
C875 C876 1.398 . S
C875 C881 1.491 . S
C876 H867 0.950 . S
C876 C875 1.398 . S
C876 C877 1.391 . S
C877 H865 0.950 . S
C877 C873 1.393 . S
C877 C876 1.391 . S
C878 H868 0.950 . S
C878 C879 1.386 . S
C878 C880 1.391 1_554 S
C879 C878 1.386 . S
C879 C883 1.393 . S
C880 H869 0.950 . S
C880 C878 1.391 1_556 S
C880 C881 1.400 . S
C881 C875 1.491 . S
C881 C880 1.400 . S
C881 C882 1.398 1_556 S
C882 H870 0.950 . S
C882 C881 1.398 1_554 S
C882 C883 1.391 . S
C883 H871 0.950 . S
C883 C879 1.393 . S
C883 C882 1.391 . S
H884 C892 0.947 1_554 S
H885 C897 0.950 . S
H886 C894 0.950 . S
H887 C896 0.950 . S
H888 C898 0.950 . S
H889 C900 0.950 . S
H890 C902 0.950 . S
H891 C903 0.950 . S
C892 H884 0.947 1_556 S
C892 C893 1.386 1_556 S
C892 C894 1.391 . S
C893 C892 1.386 1_554 S
C893 C897 1.393 . S
C894 H886 0.950 . S
C894 C892 1.391 . S
C894 C895 1.400 . S
C895 C894 1.400 . S
C895 C896 1.398 . S
C895 C901 1.491 . S
C896 H887 0.950 . S
C896 C895 1.398 . S
C896 C897 1.391 1_556 S
C897 H885 0.950 . S
C897 C893 1.393 . S
C897 C896 1.391 1_554 S
C898 H888 0.950 . S
C898 C899 1.386 . S
C898 C900 1.391 . S
C899 C898 1.386 . S
C899 C903 1.393 . S
C900 H889 0.950 . S
C900 C898 1.391 . S
C900 C901 1.400 . S
C901 C895 1.491 . S
C901 C900 1.400 . S
C901 C902 1.398 . S
C902 H890 0.950 . S
C902 C901 1.398 . S
C902 C903 1.391 . S
C903 H891 0.950 . S
C903 C899 1.393 . S
C903 C902 1.391 . S
H904 C912 0.950 . S
H905 C917 0.950 . S
H906 C914 0.950 . S
H907 C916 0.950 . S
H908 C918 0.950 . S
H909 C920 0.950 . S
H910 C922 0.950 . S
H911 C923 0.950 . S
C912 H904 0.950 . S
C912 C913 1.386 . S
C912 C914 1.391 . S
C913 C912 1.386 . S
C913 C917 1.393 1_554 S
C914 H906 0.950 . S
C914 C912 1.391 . S
C914 C915 1.400 1_554 S
C915 C914 1.400 1_556 S
C915 C916 1.398 . S
C915 C921 1.491 . S
C916 H907 0.950 . S
C916 C915 1.398 . S
C916 C917 1.391 . S
C917 H905 0.950 . S
C917 C913 1.393 1_556 S
C917 C916 1.391 . S
C918 H908 0.950 . S
C918 C919 1.386 . S
C918 C920 1.391 . S
C919 C918 1.386 . S
C919 C923 1.393 . S
C920 H909 0.950 . S
C920 C918 1.391 . S
C920 C921 1.400 . S
C921 C915 1.491 . S
C921 C920 1.400 . S
C921 C922 1.398 . S
C922 H910 0.950 . S
C922 C921 1.398 . S
C922 C923 1.391 . S
C923 H911 0.950 . S
C923 C919 1.393 . S
C923 C922 1.391 . S
H924 C932 0.950 . S
H925 C937 0.950 . S
H926 C934 0.950 . S
H927 C936 0.950 . S
H928 C938 0.950 . S
H929 C940 0.950 . S
H930 C942 0.950 . S
H931 C943 0.950 . S
C932 H924 0.950 . S
C932 C933 1.386 . S
C932 C934 1.391 . S
C933 C932 1.386 . S
C933 C937 1.393 . S
C934 H926 0.950 . S
C934 C932 1.391 . S
C934 C935 1.400 . S
C935 C934 1.400 . S
C935 C936 1.398 . S
C935 C941 1.491 . S
C936 H927 0.950 . S
C936 C935 1.398 . S
C936 C937 1.391 . S
C937 H925 0.950 . S
C937 C933 1.393 . S
C937 C936 1.391 . S
C938 H928 0.950 . S
C938 C939 1.386 . S
C938 C940 1.391 . S
C939 C938 1.386 . S
C939 C943 1.393 . S
C940 H929 0.950 . S
C940 C938 1.391 . S
C940 C941 1.400 . S
C941 C935 1.491 . S
C941 C940 1.400 . S
C941 C942 1.398 . S
C942 H930 0.950 . S
C942 C941 1.398 . S
C942 C943 1.391 . S
C943 H931 0.950 . S
C943 C939 1.393 . S
C943 C942 1.391 . S
H944 C952 0.950 . S
H945 C957 0.950 . S
H946 C954 0.950 . S
H947 C956 0.950 . S
H948 C958 0.950 . S
H949 C960 0.950 . S
H950 C962 0.950 . S
H951 C963 0.950 . S
C952 H944 0.950 . S
C952 C953 1.386 . S
C952 C954 1.391 . S
C953 C952 1.386 . S
C953 C957 1.393 . S
C954 H946 0.950 . S
C954 C952 1.391 . S
C954 C955 1.400 . S
C955 C954 1.400 . S
C955 C956 1.398 . S
C955 C961 1.491 . S
C956 H947 0.950 . S
C956 C955 1.398 . S
C956 C957 1.391 . S
C957 H945 0.950 . S
C957 C953 1.393 . S
C957 C956 1.391 . S
C958 H948 0.950 . S
C958 C959 1.386 . S
C958 C960 1.391 . S
C959 C958 1.386 . S
C959 C963 1.393 . S
C960 H949 0.950 . S
C960 C958 1.391 . S
C960 C961 1.400 . S
C961 C955 1.491 . S
C961 C960 1.400 . S
C961 C962 1.398 . S
C962 H950 0.950 . S
C962 C961 1.398 . S
C962 C963 1.391 . S
C963 H951 0.950 . S
C963 C959 1.393 . S
C963 C962 1.391 . S
H964 C972 0.950 . S
H965 C977 0.950 . S
H966 C974 0.950 . S
H967 C976 0.950 . S
H968 C978 0.950 . S
H969 C980 0.950 . S
H970 C982 0.950 . S
H971 C983 0.950 . S
C972 H964 0.950 . S
C972 C973 1.386 . S
C972 C974 1.391 . S
C973 C972 1.386 . S
C973 C977 1.393 . S
C974 H966 0.950 . S
C974 C972 1.391 . S
C974 C975 1.400 . S
C975 C974 1.400 . S
C975 C976 1.398 . S
C975 C981 1.491 . S
C976 H967 0.950 . S
C976 C975 1.398 . S
C976 C977 1.391 . S
C977 H965 0.950 . S
C977 C973 1.393 . S
C977 C976 1.391 . S
C978 H968 0.950 . S
C978 C979 1.386 . S
C978 C980 1.391 . S
C979 C978 1.386 . S
C979 C983 1.393 . S
C980 H969 0.950 . S
C980 C978 1.391 . S
C980 C981 1.400 . S
C981 C975 1.491 . S
C981 C980 1.400 . S
C981 C982 1.398 . S
C982 H970 0.950 . S
C982 C981 1.398 . S
C982 C983 1.391 . S
C983 H971 0.950 . S
C983 C979 1.393 . S
C983 C982 1.391 . S
H984 C992 0.950 . S
H985 C997 0.950 . S
H986 C994 0.950 . S
H987 C996 0.950 . S
H988 C998 0.950 . S
H989 C1000 0.950 . S
H990 C1002 0.950 . S
H991 C1003 0.950 . S
C992 H984 0.950 . S
C992 C993 1.386 . S
C992 C994 1.391 1_556 S
C993 C992 1.386 . S
C993 C997 1.393 . S
C994 H986 0.950 . S
C994 C992 1.391 1_554 S
C994 C995 1.400 . S
C995 C994 1.400 . S
C995 C996 1.398 1_554 S
C995 C1001 1.491 . S
C996 H987 0.950 . S
C996 C995 1.398 1_556 S
C996 C997 1.391 . S
C997 H985 0.950 . S
C997 C993 1.393 . S
C997 C996 1.391 . S
C998 H988 0.950 . S
C998 C999 1.386 . S
C998 C1000 1.391 . S
C999 C998 1.386 . S
C999 C1003 1.393 . S
C1000 H989 0.950 . S
C1000 C998 1.391 . S
C1000 C1001 1.400 . S
C1001 C995 1.491 . S
C1001 C1000 1.400 . S
C1001 C1002 1.398 . S
C1002 H990 0.950 . S
C1002 C1001 1.398 . S
C1002 C1003 1.391 . S
C1003 H991 0.950 . S
C1003 C999 1.393 . S
C1003 C1002 1.391 . S
H1004 C1012 0.950 . S
H1005 C1017 0.950 . S
H1006 C1014 0.950 . S
H1007 C1016 0.950 . S
H1008 C1018 0.950 . S
H1009 C1020 0.950 . S
H1010 C1022 0.950 . S
H1011 C1023 0.950 . S
C1012 H1004 0.950 . S
C1012 C1013 1.386 . S
C1012 C1014 1.391 1_556 S
C1013 C1012 1.386 . S
C1013 C1017 1.393 . S
C1014 H1006 0.950 . S
C1014 C1012 1.391 1_554 S
C1014 C1015 1.400 . S
C1015 C1014 1.400 . S
C1015 C1016 1.398 1_554 S
C1015 C1021 1.491 . S
C1016 H1007 0.950 . S
C1016 C1015 1.398 1_556 S
C1016 C1017 1.391 . S
C1017 H1005 0.950 . S
C1017 C1013 1.393 . S
C1017 C1016 1.391 . S
C1018 H1008 0.950 . S
C1018 C1019 1.386 . S
C1018 C1020 1.391 . S
C1019 C1018 1.386 . S
C1019 C1023 1.393 . S
C1020 H1009 0.950 . S
C1020 C1018 1.391 . S
C1020 C1021 1.400 . S
C1021 C1015 1.491 . S
C1021 C1020 1.400 . S
C1021 C1022 1.398 . S
C1022 H1010 0.950 . S
C1022 C1021 1.398 . S
C1022 C1023 1.391 . S
C1023 H1011 0.950 . S
C1023 C1019 1.393 . S
C1023 C1022 1.391 . S
H1024 C1032 0.950 . S
H1025 C1037 0.950 . S
H1026 C1034 0.950 . S
H1027 C1036 0.950 . S
H1028 C1038 0.950 . S
H1029 C1040 0.948 1_556 S
H1030 C1042 0.950 . S
H1031 C1043 0.950 . S
C1032 H1024 0.950 . S
C1032 C1033 1.386 . S
C1032 C1034 1.391 . S
C1033 C1032 1.386 . S
C1033 C1037 1.393 . S
C1034 H1026 0.950 . S
C1034 C1032 1.391 . S
C1034 C1035 1.400 . S
C1035 C1034 1.400 . S
C1035 C1036 1.398 . S
C1035 C1041 1.491 . S
C1036 H1027 0.950 . S
C1036 C1035 1.398 . S
C1036 C1037 1.391 . S
C1037 H1025 0.950 . S
C1037 C1033 1.393 . S
C1037 C1036 1.391 . S
C1038 H1028 0.950 . S
C1038 C1039 1.386 . S
C1038 C1040 1.391 1_556 S
C1039 C1038 1.386 . S
C1039 C1043 1.393 1_556 S
C1040 H1029 0.948 1_554 S
C1040 C1038 1.391 1_554 S
C1040 C1041 1.400 . S
C1041 C1035 1.491 . S
C1041 C1040 1.400 . S
C1041 C1042 1.398 . S
C1042 H1030 0.950 . S
C1042 C1041 1.398 . S
C1042 C1043 1.391 . S
C1043 H1031 0.950 . S
C1043 C1039 1.393 1_554 S
C1043 C1042 1.391 . S
H1044 C1052 0.950 . S
H1045 C1057 0.950 . S
H1046 C1054 0.950 . S
H1047 C1056 0.950 . S
H1048 C1058 0.950 . S
H1049 C1060 0.950 . S
H1050 C1062 0.950 . S
H1051 C1063 0.950 . S
C1052 H1044 0.950 . S
C1052 C1053 1.386 . S
C1052 C1054 1.391 . S
C1053 C1052 1.386 . S
C1053 C1057 1.393 . S
C1054 H1046 0.950 . S
C1054 C1052 1.391 . S
C1054 C1055 1.400 . S
C1055 C1054 1.400 . S
C1055 C1056 1.398 . S
C1055 C1061 1.491 . S
C1056 H1047 0.950 . S
C1056 C1055 1.398 . S
C1056 C1057 1.391 . S
C1057 H1045 0.950 . S
C1057 C1053 1.393 . S
C1057 C1056 1.391 . S
C1058 H1048 0.950 . S
C1058 C1059 1.386 . S
C1058 C1060 1.391 . S
C1059 C1058 1.386 . S
C1059 C1063 1.393 . S
C1060 H1049 0.950 . S
C1060 C1058 1.391 . S
C1060 C1061 1.400 . S
C1061 C1055 1.491 . S
C1061 C1060 1.400 . S
C1061 C1062 1.398 . S
C1062 H1050 0.950 . S
C1062 C1061 1.398 . S
C1062 C1063 1.391 . S
C1063 H1051 0.950 . S
C1063 C1059 1.393 . S
C1063 C1062 1.391 . S
H1064 C1072 0.950 . S
H1065 C1077 0.950 . S
H1066 C1074 0.950 . S
H1067 C1076 0.950 . S
H1068 C1078 0.950 . S
H1069 C1080 0.950 . S
H1070 C1082 0.950 . S
H1071 C1083 0.950 . S
C1072 H1064 0.950 . S
C1072 C1073 1.386 . S
C1072 C1074 1.391 . S
C1073 C1072 1.386 . S
C1073 C1077 1.393 . S
C1074 H1066 0.950 . S
C1074 C1072 1.391 . S
C1074 C1075 1.400 . S
C1075 C1074 1.400 . S
C1075 C1076 1.398 . S
C1075 C1081 1.491 . S
C1076 H1067 0.950 . S
C1076 C1075 1.398 . S
C1076 C1077 1.391 . S
C1077 H1065 0.950 . S
C1077 C1073 1.393 . S
C1077 C1076 1.391 . S
C1078 H1068 0.950 . S
C1078 C1079 1.386 . S
C1078 C1080 1.391 . S
C1079 C1078 1.386 . S
C1079 C1083 1.393 . S
C1080 H1069 0.950 . S
C1080 C1078 1.391 . S
C1080 C1081 1.400 . S
C1081 C1075 1.491 . S
C1081 C1080 1.400 . S
C1081 C1082 1.398 . S
C1082 H1070 0.950 . S
C1082 C1081 1.398 . S
C1082 C1083 1.391 . S
C1083 H1071 0.950 . S
C1083 C1079 1.393 . S
C1083 C1082 1.391 . S
H1084 C1092 0.950 . S
H1085 C1097 0.950 . S
H1086 C1094 0.950 . S
H1087 C1096 0.950 . S
H1088 C1098 0.950 . S
H1089 C1100 0.950 . S
H1090 C1102 0.950 . S
H1091 C1103 0.950 . S
C1092 H1084 0.950 . S
C1092 C1093 1.386 . S
C1092 C1094 1.391 . S
C1093 C1092 1.386 . S
C1093 C1097 1.393 . S
C1094 H1086 0.950 . S
C1094 C1092 1.391 . S
C1094 C1095 1.400 . S
C1095 C1094 1.400 . S
C1095 C1096 1.398 . S
C1095 C1101 1.491 . S
C1096 H1087 0.950 . S
C1096 C1095 1.398 . S
C1096 C1097 1.391 . S
C1097 H1085 0.950 . S
C1097 C1093 1.393 . S
C1097 C1096 1.391 . S
C1098 H1088 0.950 . S
C1098 C1099 1.386 . S
C1098 C1100 1.391 . S
C1099 C1098 1.386 . S
C1099 C1103 1.393 . S
C1100 H1089 0.950 . S
C1100 C1098 1.391 . S
C1100 C1101 1.400 . S
C1101 C1095 1.491 . S
C1101 C1100 1.400 . S
C1101 C1102 1.398 . S
C1102 H1090 0.950 . S
C1102 C1101 1.398 . S
C1102 C1103 1.391 . S
C1103 H1091 0.950 . S
C1103 C1099 1.393 . S
C1103 C1102 1.391 . S
H1104 C1112 0.950 . S
H1105 C1117 0.950 . S
H1106 C1114 0.950 . S
H1107 C1116 0.950 . S
H1108 C1118 0.950 . S
H1109 C1120 0.950 . S
H1110 C1122 0.950 . S
H1111 C1123 0.950 . S
C1112 H1104 0.950 . S
C1112 C1113 1.386 . S
C1112 C1114 1.391 . S
C1113 C1112 1.386 . S
C1113 C1117 1.393 . S
C1114 H1106 0.950 . S
C1114 C1112 1.391 . S
C1114 C1115 1.400 . S
C1115 C1114 1.400 . S
C1115 C1116 1.398 . S
C1115 C1121 1.491 . S
C1116 H1107 0.950 . S
C1116 C1115 1.398 . S
C1116 C1117 1.391 . S
C1117 H1105 0.950 . S
C1117 C1113 1.393 . S
C1117 C1116 1.391 . S
C1118 H1108 0.950 . S
C1118 C1119 1.386 . S
C1118 C1120 1.391 . S
C1119 C1118 1.386 . S
C1119 C1123 1.393 . S
C1120 H1109 0.950 . S
C1120 C1118 1.391 . S
C1120 C1121 1.400 . S
C1121 C1115 1.491 . S
C1121 C1120 1.400 . S
C1121 C1122 1.398 . S
C1122 H1110 0.950 . S
C1122 C1121 1.398 . S
C1122 C1123 1.391 . S
C1123 H1111 0.950 . S
C1123 C1119 1.393 . S
C1123 C1122 1.391 . S
H1124 C1132 0.950 . S
H1125 C1137 0.950 . S
H1126 C1134 0.950 . S
H1127 C1136 0.950 . S
H1128 C1138 0.950 . S
H1129 C1140 0.950 . S
H1130 C1142 0.950 . S
H1131 C1143 0.950 . S
C1132 H1124 0.950 . S
C1132 C1133 1.386 . S
C1132 C1134 1.391 . S
C1133 C1132 1.386 . S
C1133 C1137 1.393 . S
C1134 H1126 0.950 . S
C1134 C1132 1.391 . S
C1134 C1135 1.400 . S
C1135 C1134 1.400 . S
C1135 C1136 1.398 . S
C1135 C1141 1.491 . S
C1136 H1127 0.950 . S
C1136 C1135 1.398 . S
C1136 C1137 1.391 . S
C1137 H1125 0.950 . S
C1137 C1133 1.393 . S
C1137 C1136 1.391 . S
C1138 H1128 0.950 . S
C1138 C1139 1.386 . S
C1138 C1140 1.391 . S
C1139 C1138 1.386 . S
C1139 C1143 1.393 . S
C1140 H1129 0.950 . S
C1140 C1138 1.391 . S
C1140 C1141 1.400 . S
C1141 C1135 1.491 . S
C1141 C1140 1.400 . S
C1141 C1142 1.398 . S
C1142 H1130 0.950 . S
C1142 C1141 1.398 . S
C1142 C1143 1.391 . S
C1143 H1131 0.950 . S
C1143 C1139 1.393 . S
C1143 C1142 1.391 . S
H1144 C1152 0.950 . S
H1145 C1157 0.950 . S
H1146 C1154 0.950 . S
H1147 C1156 0.950 . S
H1148 C1158 0.950 . S
H1149 C1160 0.950 . S
H1150 C1162 0.950 . S
H1151 C1163 0.950 . S
C1152 H1144 0.950 . S
C1152 C1153 1.386 . S
C1152 C1154 1.391 . S
C1153 C1152 1.386 . S
C1153 C1157 1.393 . S
C1154 H1146 0.950 . S
C1154 C1152 1.391 . S
C1154 C1155 1.400 . S
C1155 C1154 1.400 . S
C1155 C1156 1.398 . S
C1155 C1161 1.491 . S
C1156 H1147 0.950 . S
C1156 C1155 1.398 . S
C1156 C1157 1.391 . S
C1157 H1145 0.950 . S
C1157 C1153 1.393 . S
C1157 C1156 1.391 . S
C1158 H1148 0.950 . S
C1158 C1159 1.386 . S
C1158 C1160 1.391 . S
C1159 C1158 1.386 . S
C1159 C1163 1.393 . S
C1160 H1149 0.950 . S
C1160 C1158 1.391 . S
C1160 C1161 1.400 . S
C1161 C1155 1.491 . S
C1161 C1160 1.400 . S
C1161 C1162 1.398 . S
C1162 H1150 0.950 . S
C1162 C1161 1.398 . S
C1162 C1163 1.391 . S
C1163 H1151 0.950 . S
C1163 C1159 1.393 . S
C1163 C1162 1.391 . S
H1164 C1172 0.950 . S
H1165 C1177 0.950 . S
H1166 C1174 0.950 . S
H1167 C1176 0.950 . S
H1168 C1178 0.950 1_554 S
H1169 C1180 0.950 . S
H1170 C1182 0.950 . S
H1171 C1183 0.950 . S
C1172 H1164 0.950 . S
C1172 C1173 1.386 . S
C1172 C1174 1.391 . S
C1173 C1172 1.386 . S
C1173 C1177 1.393 . S
C1174 H1166 0.950 . S
C1174 C1172 1.391 . S
C1174 C1175 1.400 . S
C1175 C1174 1.400 . S
C1175 C1176 1.398 . S
C1175 C1181 1.491 . S
C1176 H1167 0.950 . S
C1176 C1175 1.398 . S
C1176 C1177 1.391 . S
C1177 H1165 0.950 . S
C1177 C1173 1.393 . S
C1177 C1176 1.391 . S
C1178 H1168 0.950 1_556 S
C1178 C1179 1.386 1_556 S
C1178 C1180 1.391 . S
C1179 C1178 1.386 1_554 S
C1179 C1183 1.393 . S
C1180 H1169 0.950 . S
C1180 C1178 1.391 . S
C1180 C1181 1.400 . S
C1181 C1175 1.491 . S
C1181 C1180 1.400 . S
C1181 C1182 1.398 . S
C1182 H1170 0.950 . S
C1182 C1181 1.398 . S
C1182 C1183 1.391 1_556 S
C1183 H1171 0.950 . S
C1183 C1179 1.393 . S
C1183 C1182 1.391 1_554 S
H1184 C1192 0.950 1_556 S
H1185 C1197 0.950 . S
H1186 C1194 0.950 . S
H1187 C1196 0.950 . S
H1188 C1198 0.950 . S
H1189 C1200 0.950 . S
H1190 C1202 0.950 . S
H1191 C1203 0.950 . S
C1192 H1184 0.950 1_554 S
C1192 C1193 1.386 . S
C1192 C1194 1.391 1_554 S
C1193 C1192 1.386 . S
C1193 C1197 1.393 . S
C1194 H1186 0.950 . S
C1194 C1192 1.391 1_556 S
C1194 C1195 1.400 . S
C1195 C1194 1.400 . S
C1195 C1196 1.398 1_556 S
C1195 C1201 1.491 . S
C1196 H1187 0.950 . S
C1196 C1195 1.398 1_554 S
C1196 C1197 1.391 . S
C1197 H1185 0.950 . S
C1197 C1193 1.393 . S
C1197 C1196 1.391 . S
C1198 H1188 0.950 . S
C1198 C1199 1.386 . S
C1198 C1200 1.391 . S
C1199 C1198 1.386 . S
C1199 C1203 1.393 . S
C1200 H1189 0.950 . S
C1200 C1198 1.391 . S
C1200 C1201 1.400 . S
C1201 C1195 1.491 . S
C1201 C1200 1.400 . S
C1201 C1202 1.398 . S
C1202 H1190 0.950 . S
C1202 C1201 1.398 . S
C1202 C1203 1.391 . S
C1203 H1191 0.950 . S
C1203 C1199 1.393 . S
C1203 C1202 1.391 . S
H1204 C1212 0.950 . S
H1205 C1217 0.950 . S
H1206 C1214 0.950 . S
H1207 C1216 0.950 . S
H1208 C1218 0.950 . S
H1209 C1220 0.950 . S
H1210 C1222 0.950 . S
H1211 C1223 0.950 . S
C1212 H1204 0.950 . S
C1212 C1213 1.386 . S
C1212 C1214 1.391 . S
C1213 C1212 1.386 . S
C1213 C1217 1.393 . S
C1214 H1206 0.950 . S
C1214 C1212 1.391 . S
C1214 C1215 1.400 . S
C1215 C1214 1.400 . S
C1215 C1216 1.398 . S
C1215 C1221 1.491 . S
C1216 H1207 0.950 . S
C1216 C1215 1.398 . S
C1216 C1217 1.391 . S
C1217 H1205 0.950 . S
C1217 C1213 1.393 . S
C1217 C1216 1.391 . S
C1218 H1208 0.950 . S
C1218 C1219 1.386 1_556 S
C1218 C1220 1.391 . S
C1219 C1218 1.386 1_554 S
C1219 C1223 1.393 . S
C1220 H1209 0.950 . S
C1220 C1218 1.391 . S
C1220 C1221 1.400 . S
C1221 C1215 1.491 . S
C1221 C1220 1.400 . S
C1221 C1222 1.398 . S
C1222 H1210 0.950 . S
C1222 C1221 1.398 . S
C1222 C1223 1.391 1_556 S
C1223 H1211 0.950 . S
C1223 C1219 1.393 . S
C1223 C1222 1.391 1_554 S
H1224 C1232 0.950 . S
H1225 C1237 0.950 . S
H1226 C1234 0.950 . S
H1227 C1236 0.950 . S
H1228 C1238 0.950 . S
H1229 C1240 0.950 . S
H1230 C1242 0.950 . S
H1231 C1243 0.950 . S
C1232 H1224 0.950 . S
C1232 C1233 1.386 . S
C1232 C1234 1.391 . S
C1233 C1232 1.386 . S
C1233 C1237 1.393 . S
C1234 H1226 0.950 . S
C1234 C1232 1.391 . S
C1234 C1235 1.400 . S
C1235 C1234 1.400 . S
C1235 C1236 1.398 . S
C1235 C1241 1.491 . S
C1236 H1227 0.950 . S
C1236 C1235 1.398 . S
C1236 C1237 1.391 . S
C1237 H1225 0.950 . S
C1237 C1233 1.393 . S
C1237 C1236 1.391 . S
C1238 H1228 0.950 . S
C1238 C1239 1.386 . S
C1238 C1240 1.391 . S
C1239 C1238 1.386 . S
C1239 C1243 1.393 . S
C1240 H1229 0.950 . S
C1240 C1238 1.391 . S
C1240 C1241 1.400 . S
C1241 C1235 1.491 . S
C1241 C1240 1.400 . S
C1241 C1242 1.398 . S
C1242 H1230 0.950 . S
C1242 C1241 1.398 . S
C1242 C1243 1.391 . S
C1243 H1231 0.950 . S
C1243 C1239 1.393 . S
C1243 C1242 1.391 . S
H1244 C1252 0.950 . S
H1245 C1257 0.950 . S
H1246 C1254 0.950 . S
H1247 C1256 0.950 . S
H1248 C1258 0.950 . S
H1249 C1260 0.950 . S
H1250 C1262 0.950 . S
H1251 C1263 0.950 . S
C1252 H1244 0.950 . S
C1252 C1253 1.386 . S
C1252 C1254 1.391 . S
C1253 C1252 1.386 . S
C1253 C1257 1.393 . S
C1254 H1246 0.950 . S
C1254 C1252 1.391 . S
C1254 C1255 1.400 . S
C1255 C1254 1.400 . S
C1255 C1256 1.398 . S
C1255 C1261 1.491 . S
C1256 H1247 0.950 . S
C1256 C1255 1.398 . S
C1256 C1257 1.391 . S
C1257 H1245 0.950 . S
C1257 C1253 1.393 . S
C1257 C1256 1.391 . S
C1258 H1248 0.950 . S
C1258 C1259 1.386 . S
C1258 C1260 1.391 . S
C1259 C1258 1.386 . S
C1259 C1263 1.393 . S
C1260 H1249 0.950 . S
C1260 C1258 1.391 . S
C1260 C1261 1.400 . S
C1261 C1255 1.491 . S
C1261 C1260 1.400 . S
C1261 C1262 1.398 . S
C1262 H1250 0.950 . S
C1262 C1261 1.398 . S
C1262 C1263 1.391 . S
C1263 H1251 0.950 . S
C1263 C1259 1.393 . S
C1263 C1262 1.391 . S
H1264 C1272 0.950 . S
H1265 C1277 0.950 . S
H1266 C1274 0.950 . S
H1267 C1276 0.950 . S
H1268 C1278 0.950 . S
H1269 C1280 0.950 . S
H1270 C1282 0.950 . S
H1271 C1283 0.950 . S
C1272 H1264 0.950 . S
C1272 C1273 1.386 . S
C1272 C1274 1.391 . S
C1273 C1272 1.386 . S
C1273 C1277 1.393 . S
C1274 H1266 0.950 . S
C1274 C1272 1.391 . S
C1274 C1275 1.400 . S
C1275 C1274 1.400 . S
C1275 C1276 1.398 . S
C1275 C1281 1.491 . S
C1276 H1267 0.950 . S
C1276 C1275 1.398 . S
C1276 C1277 1.391 . S
C1277 H1265 0.950 . S
C1277 C1273 1.393 . S
C1277 C1276 1.391 . S
C1278 H1268 0.950 . S
C1278 C1279 1.386 . S
C1278 C1280 1.391 . S
C1279 C1278 1.386 . S
C1279 C1283 1.393 . S
C1280 H1269 0.950 . S
C1280 C1278 1.391 . S
C1280 C1281 1.400 . S
C1281 C1275 1.491 . S
C1281 C1280 1.400 . S
C1281 C1282 1.398 . S
C1282 H1270 0.950 . S
C1282 C1281 1.398 . S
C1282 C1283 1.391 . S
C1283 H1271 0.950 . S
C1283 C1279 1.393 . S
C1283 C1282 1.391 . S
H1284 C1292 0.950 . S
H1285 C1297 0.950 . S
H1286 C1294 0.950 . S
H1287 C1296 0.950 . S
H1288 C1298 0.950 . S
H1289 C1300 0.950 . S
H1290 C1302 0.950 . S
H1291 C1303 0.950 . S
C1292 H1284 0.950 . S
C1292 C1293 1.386 . S
C1292 C1294 1.391 . S
C1293 C1292 1.386 . S
C1293 C1297 1.393 . S
C1294 H1286 0.950 . S
C1294 C1292 1.391 . S
C1294 C1295 1.400 . S
C1295 C1294 1.400 . S
C1295 C1296 1.398 . S
C1295 C1301 1.491 . S
C1296 H1287 0.950 . S
C1296 C1295 1.398 . S
C1296 C1297 1.391 . S
C1297 H1285 0.950 . S
C1297 C1293 1.393 . S
C1297 C1296 1.391 . S
C1298 H1288 0.950 . S
C1298 C1299 1.386 . S
C1298 C1300 1.391 . S
C1299 C1298 1.386 . S
C1299 C1303 1.393 . S
C1300 H1289 0.950 . S
C1300 C1298 1.391 . S
C1300 C1301 1.400 . S
C1301 C1295 1.491 . S
C1301 C1300 1.400 . S
C1301 C1302 1.398 . S
C1302 H1290 0.950 . S
C1302 C1301 1.398 . S
C1302 C1303 1.391 . S
C1303 H1291 0.950 . S
C1303 C1299 1.393 . S
C1303 C1302 1.391 . S
H1304 C1312 0.950 . S
H1305 C1317 0.950 . S
H1306 C1314 0.950 . S
H1307 C1316 0.950 . S
H1308 C1318 0.950 . S
H1309 C1320 0.950 . S
H1310 C1322 0.950 . S
H1311 C1323 0.950 . S
C1312 H1304 0.950 . S
C1312 C1313 1.386 . S
C1312 C1314 1.391 . S
C1313 C1312 1.386 . S
C1313 C1317 1.393 . S
C1314 H1306 0.950 . S
C1314 C1312 1.391 . S
C1314 C1315 1.400 . S
C1315 C1314 1.400 . S
C1315 C1316 1.398 . S
C1315 C1321 1.491 . S
C1316 H1307 0.950 . S
C1316 C1315 1.398 . S
C1316 C1317 1.391 . S
C1317 H1305 0.950 . S
C1317 C1313 1.393 . S
C1317 C1316 1.391 . S
C1318 H1308 0.950 . S
C1318 C1319 1.386 . S
C1318 C1320 1.391 . S
C1319 C1318 1.386 . S
C1319 C1323 1.393 . S
C1320 H1309 0.950 . S
C1320 C1318 1.391 . S
C1320 C1321 1.400 . S
C1321 C1315 1.491 . S
C1321 C1320 1.400 . S
C1321 C1322 1.398 . S
C1322 H1310 0.950 . S
C1322 C1321 1.398 . S
C1322 C1323 1.391 . S
C1323 H1311 0.950 . S
C1323 C1319 1.393 . S
C1323 C1322 1.391 . S
H1324 C1332 0.950 . S
H1325 C1337 0.950 . S
H1326 C1334 0.950 . S
H1327 C1336 0.950 . S
H1328 C1338 0.950 . S
H1329 C1340 0.950 . S
H1330 C1342 0.950 . S
H1331 C1343 0.950 . S
C1332 H1324 0.950 . S
C1332 C1333 1.386 . S
C1332 C1334 1.391 . S
C1333 C1332 1.386 . S
C1333 C1337 1.393 . S
C1334 H1326 0.950 . S
C1334 C1332 1.391 . S
C1334 C1335 1.400 . S
C1335 C1334 1.400 . S
C1335 C1336 1.398 . S
C1335 C1341 1.491 . S
C1336 H1327 0.950 . S
C1336 C1335 1.398 . S
C1336 C1337 1.391 . S
C1337 H1325 0.950 . S
C1337 C1333 1.393 . S
C1337 C1336 1.391 . S
C1338 H1328 0.950 . S
C1338 C1339 1.386 . S
C1338 C1340 1.391 . S
C1339 C1338 1.386 . S
C1339 C1343 1.393 . S
C1340 H1329 0.950 . S
C1340 C1338 1.391 . S
C1340 C1341 1.400 . S
C1341 C1335 1.491 . S
C1341 C1340 1.400 . S
C1341 C1342 1.398 . S
C1342 H1330 0.950 . S
C1342 C1341 1.398 . S
C1342 C1343 1.391 . S
C1343 H1331 0.950 . S
C1343 C1339 1.393 . S
C1343 C1342 1.391 . S
H1344 C1352 0.950 . S
H1345 C1357 0.950 . S
H1346 C1354 0.950 . S
H1347 C1356 0.950 . S
H1348 C1358 0.950 . S
H1349 C1360 0.950 . S
H1350 C1362 0.950 . S
H1351 C1363 0.950 . S
C1352 H1344 0.950 . S
C1352 C1353 1.386 . S
C1352 C1354 1.391 . S
C1353 C1352 1.386 . S
C1353 C1357 1.393 . S
C1354 H1346 0.950 . S
C1354 C1352 1.391 . S
C1354 C1355 1.400 . S
C1355 C1354 1.400 . S
C1355 C1356 1.398 . S
C1355 C1361 1.491 . S
C1356 H1347 0.950 . S
C1356 C1355 1.398 . S
C1356 C1357 1.391 . S
C1357 H1345 0.950 . S
C1357 C1353 1.393 . S
C1357 C1356 1.391 . S
C1358 H1348 0.950 . S
C1358 C1359 1.386 . S
C1358 C1360 1.391 . S
C1359 C1358 1.386 . S
C1359 C1363 1.393 . S
C1360 H1349 0.950 . S
C1360 C1358 1.391 . S
C1360 C1361 1.400 . S
C1361 C1355 1.491 . S
C1361 C1360 1.400 . S
C1361 C1362 1.398 . S
C1362 H1350 0.950 . S
C1362 C1361 1.398 . S
C1362 C1363 1.391 . S
C1363 H1351 0.950 . S
C1363 C1359 1.393 . S
C1363 C1362 1.391 . S
H1364 C1372 0.950 . S
H1365 C1377 0.950 . S
H1366 C1374 0.950 . S
H1367 C1376 0.950 . S
H1368 C1378 0.950 . S
H1369 C1380 0.950 . S
H1370 C1382 0.950 . S
H1371 C1383 0.950 . S
C1372 H1364 0.950 . S
C1372 C1373 1.386 . S
C1372 C1374 1.391 . S
C1373 C1372 1.386 . S
C1373 C1377 1.393 . S
C1374 H1366 0.950 . S
C1374 C1372 1.391 . S
C1374 C1375 1.400 . S
C1375 C1374 1.400 . S
C1375 C1376 1.398 . S
C1375 C1381 1.491 . S
C1376 H1367 0.950 . S
C1376 C1375 1.398 . S
C1376 C1377 1.391 . S
C1377 H1365 0.950 . S
C1377 C1373 1.393 . S
C1377 C1376 1.391 . S
C1378 H1368 0.950 . S
C1378 C1379 1.386 . S
C1378 C1380 1.391 . S
C1379 C1378 1.386 . S
C1379 C1383 1.393 . S
C1380 H1369 0.950 . S
C1380 C1378 1.391 . S
C1380 C1381 1.400 . S
C1381 C1375 1.491 . S
C1381 C1380 1.400 . S
C1381 C1382 1.398 . S
C1382 H1370 0.950 . S
C1382 C1381 1.398 . S
C1382 C1383 1.391 . S
C1383 H1371 0.950 . S
C1383 C1379 1.393 . S
C1383 C1382 1.391 . S
H1384 C1392 0.950 . S
H1385 C1397 0.950 . S
H1386 C1394 0.950 . S
H1387 C1396 0.950 . S
H1388 C1398 0.950 . S
H1389 C1400 0.950 . S
H1390 C1402 0.950 . S
H1391 C1403 0.950 . S
C1392 H1384 0.950 . S
C1392 C1393 1.386 . S
C1392 C1394 1.391 . S
C1393 C1392 1.386 . S
C1393 C1397 1.393 . S
C1394 H1386 0.950 . S
C1394 C1392 1.391 . S
C1394 C1395 1.400 . S
C1395 C1394 1.400 . S
C1395 C1396 1.398 . S
C1395 C1401 1.491 . S
C1396 H1387 0.950 . S
C1396 C1395 1.398 . S
C1396 C1397 1.391 . S
C1397 H1385 0.950 . S
C1397 C1393 1.393 . S
C1397 C1396 1.391 . S
C1398 H1388 0.950 . S
C1398 C1399 1.386 . S
C1398 C1400 1.391 . S
C1399 C1398 1.386 . S
C1399 C1403 1.393 . S
C1400 H1389 0.950 . S
C1400 C1398 1.391 . S
C1400 C1401 1.400 . S
C1401 C1395 1.491 . S
C1401 C1400 1.400 . S
C1401 C1402 1.398 . S
C1402 H1390 0.950 . S
C1402 C1401 1.398 . S
C1402 C1403 1.391 . S
C1403 H1391 0.950 . S
C1403 C1399 1.393 . S
C1403 C1402 1.391 . S
H1404 C1412 0.950 . S
H1405 C1417 0.950 . S
H1406 C1414 0.950 . S
H1407 C1416 0.950 . S
H1408 C1418 0.950 . S
H1409 C1420 0.950 . S
H1410 C1422 0.950 . S
H1411 C1423 0.950 . S
C1412 H1404 0.950 . S
C1412 C1413 1.386 . S
C1412 C1414 1.391 . S
C1413 C1412 1.386 . S
C1413 C1417 1.393 . S
C1414 H1406 0.950 . S
C1414 C1412 1.391 . S
C1414 C1415 1.400 . S
C1415 C1414 1.400 . S
C1415 C1416 1.398 . S
C1415 C1421 1.491 . S
C1416 H1407 0.950 . S
C1416 C1415 1.398 . S
C1416 C1417 1.391 . S
C1417 H1405 0.950 . S
C1417 C1413 1.393 . S
C1417 C1416 1.391 . S
C1418 H1408 0.950 . S
C1418 C1419 1.386 . S
C1418 C1420 1.391 . S
C1419 C1418 1.386 . S
C1419 C1423 1.393 . S
C1420 H1409 0.950 . S
C1420 C1418 1.391 . S
C1420 C1421 1.400 . S
C1421 C1415 1.491 . S
C1421 C1420 1.400 . S
C1421 C1422 1.398 . S
C1422 H1410 0.950 . S
C1422 C1421 1.398 . S
C1422 C1423 1.391 . S
C1423 H1411 0.950 . S
C1423 C1419 1.393 . S
C1423 C1422 1.391 . S
H1424 C1432 0.950 . S
H1425 C1437 0.950 . S
H1426 C1434 0.950 . S
H1427 C1436 0.950 . S
H1428 C1438 0.950 . S
H1429 C1440 0.950 . S
H1430 C1442 0.950 . S
H1431 C1443 0.950 . S
C1432 H1424 0.950 . S
C1432 C1433 1.386 . S
C1432 C1434 1.391 . S
C1433 C1432 1.386 . S
C1433 C1437 1.393 . S
C1434 H1426 0.950 . S
C1434 C1432 1.391 . S
C1434 C1435 1.400 . S
C1435 C1434 1.400 . S
C1435 C1436 1.398 . S
C1435 C1441 1.491 . S
C1436 H1427 0.950 . S
C1436 C1435 1.398 . S
C1436 C1437 1.391 . S
C1437 H1425 0.950 . S
C1437 C1433 1.393 . S
C1437 C1436 1.391 . S
C1438 H1428 0.950 . S
C1438 C1439 1.386 . S
C1438 C1440 1.391 . S
C1439 C1438 1.386 . S
C1439 C1443 1.393 . S
C1440 H1429 0.950 . S
C1440 C1438 1.391 . S
C1440 C1441 1.400 . S
C1441 C1435 1.491 . S
C1441 C1440 1.400 . S
C1441 C1442 1.398 . S
C1442 H1430 0.950 . S
C1442 C1441 1.398 . S
C1442 C1443 1.391 . S
C1443 H1431 0.950 . S
C1443 C1439 1.393 . S
C1443 C1442 1.391 . S
H1444 C1452 0.950 . S
H1445 C1457 0.950 . S
H1446 C1454 0.950 . S
H1447 C1456 0.950 . S
H1448 C1458 0.950 . S
H1449 C1460 0.950 . S
H1450 C1462 0.950 . S
H1451 C1463 0.950 . S
C1452 H1444 0.950 . S
C1452 C1453 1.386 . S
C1452 C1454 1.391 . S
C1453 C1452 1.386 . S
C1453 C1457 1.393 . S
C1454 H1446 0.950 . S
C1454 C1452 1.391 . S
C1454 C1455 1.400 . S
C1455 C1454 1.400 . S
C1455 C1456 1.398 . S
C1455 C1461 1.491 . S
C1456 H1447 0.950 . S
C1456 C1455 1.398 . S
C1456 C1457 1.391 . S
C1457 H1445 0.950 . S
C1457 C1453 1.393 . S
C1457 C1456 1.391 . S
C1458 H1448 0.950 . S
C1458 C1459 1.386 . S
C1458 C1460 1.391 . S
C1459 C1458 1.386 . S
C1459 C1463 1.393 . S
C1460 H1449 0.950 . S
C1460 C1458 1.391 . S
C1460 C1461 1.400 . S
C1461 C1455 1.491 . S
C1461 C1460 1.400 . S
C1461 C1462 1.398 . S
C1462 H1450 0.950 . S
C1462 C1461 1.398 . S
C1462 C1463 1.391 . S
C1463 H1451 0.950 . S
C1463 C1459 1.393 . S
C1463 C1462 1.391 . S
H1464 C1472 0.950 . S
H1465 C1477 0.950 . S
H1466 C1474 0.950 . S
H1467 C1476 0.950 . S
H1468 C1478 0.950 . S
H1469 C1480 0.950 . S
H1470 C1482 0.950 . S
H1471 C1483 0.950 . S
C1472 H1464 0.950 . S
C1472 C1473 1.386 . S
C1472 C1474 1.391 . S
C1473 C1472 1.386 . S
C1473 C1477 1.393 . S
C1474 H1466 0.950 . S
C1474 C1472 1.391 . S
C1474 C1475 1.400 . S
C1475 C1474 1.400 . S
C1475 C1476 1.398 . S
C1475 C1481 1.491 . S
C1476 H1467 0.950 . S
C1476 C1475 1.398 . S
C1476 C1477 1.391 . S
C1477 H1465 0.950 . S
C1477 C1473 1.393 . S
C1477 C1476 1.391 . S
C1478 H1468 0.950 . S
C1478 C1479 1.386 . S
C1478 C1480 1.391 . S
C1479 C1478 1.386 . S
C1479 C1483 1.393 . S
C1480 H1469 0.950 . S
C1480 C1478 1.391 . S
C1480 C1481 1.400 . S
C1481 C1475 1.491 . S
C1481 C1480 1.400 . S
C1481 C1482 1.398 . S
C1482 H1470 0.950 . S
C1482 C1481 1.398 . S
C1482 C1483 1.391 . S
C1483 H1471 0.950 . S
C1483 C1479 1.393 . S
C1483 C1482 1.391 . S
H1484 C1492 0.950 . S
H1485 C1497 0.950 . S
H1486 C1494 0.950 . S
H1487 C1496 0.950 . S
H1488 C1498 0.950 . S
H1489 C1500 0.950 . S
H1490 C1502 0.950 . S
H1491 C1503 0.950 . S
C1492 H1484 0.950 . S
C1492 C1493 1.386 . S
C1492 C1494 1.391 . S
C1493 C1492 1.386 . S
C1493 C1497 1.393 . S
C1494 H1486 0.950 . S
C1494 C1492 1.391 . S
C1494 C1495 1.400 . S
C1495 C1494 1.400 . S
C1495 C1496 1.398 . S
C1495 C1501 1.491 . S
C1496 H1487 0.950 . S
C1496 C1495 1.398 . S
C1496 C1497 1.391 . S
C1497 H1485 0.950 . S
C1497 C1493 1.393 . S
C1497 C1496 1.391 . S
C1498 H1488 0.950 . S
C1498 C1499 1.386 . S
C1498 C1500 1.391 . S
C1499 C1498 1.386 . S
C1499 C1503 1.393 . S
C1500 H1489 0.950 . S
C1500 C1498 1.391 . S
C1500 C1501 1.400 . S
C1501 C1495 1.491 . S
C1501 C1500 1.400 . S
C1501 C1502 1.398 . S
C1502 H1490 0.950 . S
C1502 C1501 1.398 . S
C1502 C1503 1.391 . S
C1503 H1491 0.950 . S
C1503 C1499 1.393 . S
C1503 C1502 1.391 . S
H1504 C1512 0.950 . S
H1505 C1517 0.950 . S
H1506 C1514 0.950 . S
H1507 C1516 0.950 . S
H1508 C1518 0.950 . S
H1509 C1520 0.950 . S
H1510 C1522 0.950 . S
H1511 C1523 0.950 . S
C1512 H1504 0.950 . S
C1512 C1513 1.386 . S
C1512 C1514 1.391 . S
C1513 C1512 1.386 . S
C1513 C1517 1.393 . S
C1514 H1506 0.950 . S
C1514 C1512 1.391 . S
C1514 C1515 1.400 . S
C1515 C1514 1.400 . S
C1515 C1516 1.398 . S
C1515 C1521 1.491 . S
C1516 H1507 0.950 . S
C1516 C1515 1.398 . S
C1516 C1517 1.391 . S
C1517 H1505 0.950 . S
C1517 C1513 1.393 . S
C1517 C1516 1.391 . S
C1518 H1508 0.950 . S
C1518 C1519 1.386 . S
C1518 C1520 1.391 . S
C1519 C1518 1.386 . S
C1519 C1523 1.393 . S
C1520 H1509 0.950 . S
C1520 C1518 1.391 . S
C1520 C1521 1.400 . S
C1521 C1515 1.491 . S
C1521 C1520 1.400 . S
C1521 C1522 1.398 . S
C1522 H1510 0.950 . S
C1522 C1521 1.398 . S
C1522 C1523 1.391 . S
C1523 H1511 0.950 . S
C1523 C1519 1.393 . S
C1523 C1522 1.391 . S
H1524 C1532 0.950 1_556 S
H1525 C1537 0.950 . S
H1526 C1534 0.950 . S
H1527 C1536 0.950 . S
H1528 C1538 0.950 . S
H1529 C1540 0.950 . S
H1530 C1542 0.950 . S
H1531 C1543 0.950 . S
C1532 H1524 0.950 1_554 S
C1532 C1533 1.386 1_554 S
C1532 C1534 1.391 . S
C1533 C1532 1.386 1_556 S
C1533 C1537 1.393 . S
C1534 H1526 0.950 . S
C1534 C1532 1.391 . S
C1534 C1535 1.400 . S
C1535 C1534 1.400 . S
C1535 C1536 1.398 . S
C1535 C1541 1.491 . S
C1536 H1527 0.950 . S
C1536 C1535 1.398 . S
C1536 C1537 1.391 1_554 S
C1537 H1525 0.950 . S
C1537 C1533 1.393 . S
C1537 C1536 1.391 1_556 S
C1538 H1528 0.950 . S
C1538 C1539 1.386 . S
C1538 C1540 1.391 . S
C1539 C1538 1.386 . S
C1539 C1543 1.393 . S
C1540 H1529 0.950 . S
C1540 C1538 1.391 . S
C1540 C1541 1.400 . S
C1541 C1535 1.491 . S
C1541 C1540 1.400 . S
C1541 C1542 1.398 . S
C1542 H1530 0.950 . S
C1542 C1541 1.398 . S
C1542 C1543 1.391 . S
C1543 H1531 0.950 . S
C1543 C1539 1.393 . S
C1543 C1542 1.391 . S
H1544 C1552 0.950 . S
H1545 C1557 0.950 1_556 S
H1546 C1554 0.950 . S
H1547 C1556 0.950 . S
H1548 C1558 0.950 . S
H1549 C1560 0.950 . S
H1550 C1562 0.950 . S
H1551 C1563 0.950 . S
C1552 H1544 0.950 . S
C1552 C1553 1.386 1_554 S
C1552 C1554 1.391 . S
C1553 C1552 1.386 1_556 S
C1553 C1557 1.393 1_556 S
C1554 H1546 0.950 . S
C1554 C1552 1.391 . S
C1554 C1555 1.400 . S
C1555 C1554 1.400 . S
C1555 C1556 1.398 . S
C1555 C1561 1.491 . S
C1556 H1547 0.950 . S
C1556 C1555 1.398 . S
C1556 C1557 1.391 . S
C1557 H1545 0.950 1_554 S
C1557 C1553 1.393 1_554 S
C1557 C1556 1.391 . S
C1558 H1548 0.950 . S
C1558 C1559 1.386 . S
C1558 C1560 1.391 . S
C1559 C1558 1.386 . S
C1559 C1563 1.393 . S
C1560 H1549 0.950 . S
C1560 C1558 1.391 . S
C1560 C1561 1.400 . S
C1561 C1555 1.491 . S
C1561 C1560 1.400 . S
C1561 C1562 1.398 . S
C1562 H1550 0.950 . S
C1562 C1561 1.398 . S
C1562 C1563 1.391 . S
C1563 H1551 0.950 . S
C1563 C1559 1.393 . S
C1563 C1562 1.391 . S
H1564 C1572 0.950 1_556 S
H1565 C1577 0.950 . S
H1566 C1574 0.950 . S
H1567 C1576 0.950 . S
H1568 C1578 0.950 . S
H1569 C1580 0.950 . S
H1570 C1582 0.950 . S
H1571 C1583 0.950 . S
C1572 H1564 0.950 1_554 S
C1572 C1573 1.386 1_554 S
C1572 C1574 1.391 . S
C1573 C1572 1.386 1_556 S
C1573 C1577 1.393 1_556 S
C1574 H1566 0.950 . S
C1574 C1572 1.391 . S
C1574 C1575 1.400 . S
C1575 C1574 1.400 . S
C1575 C1576 1.398 . S
C1575 C1581 1.491 . S
C1576 H1567 0.950 . S
C1576 C1575 1.398 . S
C1576 C1577 1.391 . S
C1577 H1565 0.950 . S
C1577 C1573 1.393 1_554 S
C1577 C1576 1.391 . S
C1578 H1568 0.950 . S
C1578 C1579 1.386 . S
C1578 C1580 1.391 . S
C1579 C1578 1.386 . S
C1579 C1583 1.393 . S
C1580 H1569 0.950 . S
C1580 C1578 1.391 . S
C1580 C1581 1.400 . S
C1581 C1575 1.491 . S
C1581 C1580 1.400 . S
C1581 C1582 1.398 . S
C1582 H1570 0.950 . S
C1582 C1581 1.398 . S
C1582 C1583 1.391 . S
C1583 H1571 0.950 . S
C1583 C1579 1.393 . S
C1583 C1582 1.391 . S
H1584 C1592 0.950 1_556 S
H1585 C1597 0.950 . S
H1586 C1594 0.950 . S
H1587 C1596 0.950 . S
H1588 C1598 0.950 . S
H1589 C1600 0.950 . S
H1590 C1602 0.950 . S
H1591 C1603 0.950 . S
C1592 H1584 0.950 1_554 S
C1592 C1593 1.386 . S
C1592 C1594 1.391 . S
C1593 C1592 1.386 . S
C1593 C1597 1.393 . S
C1594 H1586 0.950 . S
C1594 C1592 1.391 . S
C1594 C1595 1.400 . S
C1595 C1594 1.400 . S
C1595 C1596 1.398 . S
C1595 C1601 1.491 . S
C1596 H1587 0.950 . S
C1596 C1595 1.398 . S
C1596 C1597 1.391 . S
C1597 H1585 0.950 . S
C1597 C1593 1.393 . S
C1597 C1596 1.391 . S
C1598 H1588 0.950 . S
C1598 C1599 1.386 . S
C1598 C1600 1.391 . S
C1599 C1598 1.386 . S
C1599 C1603 1.393 . S
C1600 H1589 0.950 . S
C1600 C1598 1.391 . S
C1600 C1601 1.400 . S
C1601 C1595 1.491 . S
C1601 C1600 1.400 . S
C1601 C1602 1.398 . S
C1602 H1590 0.950 . S
C1602 C1601 1.398 . S
C1602 C1603 1.391 . S
C1603 H1591 0.950 . S
C1603 C1599 1.393 . S
C1603 C1602 1.391 . S
H1604 C1612 0.950 . S
H1605 C1617 0.950 . S
H1606 C1614 0.950 . S
H1607 C1616 0.950 . S
H1608 C1618 0.950 1_556 S
H1609 C1620 0.950 . S
H1610 C1622 0.950 . S
H1611 C1623 0.950 . S
C1612 H1604 0.950 . S
C1612 C1613 1.386 . S
C1612 C1614 1.391 . S
C1613 C1612 1.386 . S
C1613 C1617 1.393 . S
C1614 H1606 0.950 . S
C1614 C1612 1.391 . S
C1614 C1615 1.400 . S
C1615 C1614 1.400 . S
C1615 C1616 1.398 . S
C1615 C1621 1.491 . S
C1616 H1607 0.950 . S
C1616 C1615 1.398 . S
C1616 C1617 1.391 . S
C1617 H1605 0.950 . S
C1617 C1613 1.393 . S
C1617 C1616 1.391 . S
C1618 H1608 0.950 1_554 S
C1618 C1619 1.386 . S
C1618 C1620 1.391 . S
C1619 C1618 1.386 . S
C1619 C1623 1.393 . S
C1620 H1609 0.950 . S
C1620 C1618 1.391 . S
C1620 C1621 1.400 . S
C1621 C1615 1.491 . S
C1621 C1620 1.400 . S
C1621 C1622 1.398 . S
C1622 H1610 0.950 . S
C1622 C1621 1.398 . S
C1622 C1623 1.391 . S
C1623 H1611 0.950 . S
C1623 C1619 1.393 . S
C1623 C1622 1.391 . S
H1624 C1632 0.950 1_556 S
H1625 C1637 0.950 . S
H1626 C1634 0.950 . S
H1627 C1636 0.950 . S
H1628 C1638 0.950 . S
H1629 C1640 0.950 . S
H1630 C1642 0.950 . S
H1631 C1643 0.950 . S
C1632 H1624 0.950 1_554 S
C1632 C1633 1.386 . S
C1632 C1634 1.391 . S
C1633 C1632 1.386 . S
C1633 C1637 1.393 . S
C1634 H1626 0.950 . S
C1634 C1632 1.391 . S
C1634 C1635 1.400 . S
C1635 C1634 1.400 . S
C1635 C1636 1.398 . S
C1635 C1641 1.491 . S
C1636 H1627 0.950 . S
C1636 C1635 1.398 . S
C1636 C1637 1.391 . S
C1637 H1625 0.950 . S
C1637 C1633 1.393 . S
C1637 C1636 1.391 . S
C1638 H1628 0.950 . S
C1638 C1639 1.386 . S
C1638 C1640 1.391 . S
C1639 C1638 1.386 . S
C1639 C1643 1.393 . S
C1640 H1629 0.950 . S
C1640 C1638 1.391 . S
C1640 C1641 1.400 . S
C1641 C1635 1.491 . S
C1641 C1640 1.400 . S
C1641 C1642 1.398 . S
C1642 H1630 0.950 . S
C1642 C1641 1.398 . S
C1642 C1643 1.391 . S
C1643 H1631 0.950 . S
C1643 C1639 1.393 . S
C1643 C1642 1.391 . S
H1644 C1652 0.950 . S
H1645 C1657 0.950 . S
H1646 C1654 0.950 . S
H1647 C1656 0.950 . S
H1648 C1658 0.950 . S
H1649 C1660 0.950 . S
H1650 C1662 0.950 . S
H1651 C1663 0.950 . S
C1652 H1644 0.950 . S
C1652 C1653 1.386 . S
C1652 C1654 1.391 . S
C1653 C1652 1.386 . S
C1653 C1657 1.393 . S
C1654 H1646 0.950 . S
C1654 C1652 1.391 . S
C1654 C1655 1.400 . S
C1655 C1654 1.400 . S
C1655 C1656 1.398 . S
C1655 C1661 1.491 . S
C1656 H1647 0.950 . S
C1656 C1655 1.398 . S
C1656 C1657 1.391 . S
C1657 H1645 0.950 . S
C1657 C1653 1.393 . S
C1657 C1656 1.391 . S
C1658 H1648 0.950 . S
C1658 C1659 1.386 . S
C1658 C1660 1.391 . S
C1659 C1658 1.386 . S
C1659 C1663 1.393 . S
C1660 H1649 0.950 . S
C1660 C1658 1.391 . S
C1660 C1661 1.400 . S
C1661 C1655 1.491 . S
C1661 C1660 1.400 . S
C1661 C1662 1.398 . S
C1662 H1650 0.950 . S
C1662 C1661 1.398 . S
C1662 C1663 1.391 . S
C1663 H1651 0.950 . S
C1663 C1659 1.393 . S
C1663 C1662 1.391 . S
H1664 C1672 0.950 . S
H1665 C1677 0.950 . S
H1666 C1674 0.950 . S
H1667 C1676 0.950 . S
H1668 C1678 0.950 . S
H1669 C1680 0.950 . S
H1670 C1682 0.950 . S
H1671 C1683 0.950 . S
C1672 H1664 0.950 . S
C1672 C1673 1.386 . S
C1672 C1674 1.391 . S
C1673 C1672 1.386 . S
C1673 C1677 1.393 . S
C1674 H1666 0.950 . S
C1674 C1672 1.391 . S
C1674 C1675 1.400 . S
C1675 C1674 1.400 . S
C1675 C1676 1.398 . S
C1675 C1681 1.491 . S
C1676 H1667 0.950 . S
C1676 C1675 1.398 . S
C1676 C1677 1.391 . S
C1677 H1665 0.950 . S
C1677 C1673 1.393 . S
C1677 C1676 1.391 . S
C1678 H1668 0.950 . S
C1678 C1679 1.386 . S
C1678 C1680 1.391 . S
C1679 C1678 1.386 . S
C1679 C1683 1.393 . S
C1680 H1669 0.950 . S
C1680 C1678 1.391 . S
C1680 C1681 1.400 . S
C1681 C1675 1.491 . S
C1681 C1680 1.400 . S
C1681 C1682 1.398 . S
C1682 H1670 0.950 . S
C1682 C1681 1.398 . S
C1682 C1683 1.391 . S
C1683 H1671 0.950 . S
C1683 C1679 1.393 . S
C1683 C1682 1.391 . S
H1684 C1692 0.950 . S
H1685 C1697 0.950 . S
H1686 C1694 0.950 . S
H1687 C1696 0.950 . S
H1688 C1698 0.950 . S
H1689 C1700 0.950 . S
H1690 C1702 0.950 . S
H1691 C1703 0.950 . S
C1692 H1684 0.950 . S
C1692 C1693 1.386 . S
C1692 C1694 1.391 . S
C1693 C1692 1.386 . S
C1693 C1697 1.393 . S
C1694 H1686 0.950 . S
C1694 C1692 1.391 . S
C1694 C1695 1.400 . S
C1695 C1694 1.400 . S
C1695 C1696 1.398 . S
C1695 C1701 1.491 . S
C1696 H1687 0.950 . S
C1696 C1695 1.398 . S
C1696 C1697 1.391 . S
C1697 H1685 0.950 . S
C1697 C1693 1.393 . S
C1697 C1696 1.391 . S
C1698 H1688 0.950 . S
C1698 C1699 1.386 . S
C1698 C1700 1.391 . S
C1699 C1698 1.386 . S
C1699 C1703 1.393 . S
C1700 H1689 0.950 . S
C1700 C1698 1.391 . S
C1700 C1701 1.400 . S
C1701 C1695 1.491 . S
C1701 C1700 1.400 . S
C1701 C1702 1.398 . S
C1702 H1690 0.950 . S
C1702 C1701 1.398 . S
C1702 C1703 1.391 . S
C1703 H1691 0.950 . S
C1703 C1699 1.393 . S
C1703 C1702 1.391 . S
H1704 C1712 0.950 . S
H1705 C1717 0.950 . S
H1706 C1714 0.950 . S
H1707 C1716 0.950 . S
H1708 C1718 0.950 . S
H1709 C1720 0.950 1_554 S
H1710 C1722 0.950 . S
H1711 C1723 0.950 . S
C1712 H1704 0.950 . S
C1712 C1713 1.386 . S
C1712 C1714 1.391 . S
C1713 C1712 1.386 . S
C1713 C1717 1.393 . S
C1714 H1706 0.950 . S
C1714 C1712 1.391 . S
C1714 C1715 1.400 . S
C1715 C1714 1.400 . S
C1715 C1716 1.398 . S
C1715 C1721 1.491 . S
C1716 H1707 0.950 . S
C1716 C1715 1.398 . S
C1716 C1717 1.391 . S
C1717 H1705 0.950 . S
C1717 C1713 1.393 . S
C1717 C1716 1.391 . S
C1718 H1708 0.950 . S
C1718 C1719 1.386 1_554 S
C1718 C1720 1.391 1_554 S
C1719 C1718 1.386 1_556 S
C1719 C1723 1.393 . S
C1720 H1709 0.950 1_556 S
C1720 C1718 1.391 1_556 S
C1720 C1721 1.400 . S
C1721 C1715 1.491 . S
C1721 C1720 1.400 . S
C1721 C1722 1.398 . S
C1722 H1710 0.950 . S
C1722 C1721 1.398 . S
C1722 C1723 1.391 . S
C1723 H1711 0.950 . S
C1723 C1719 1.393 . S
C1723 C1722 1.391 . S
H1724 C1732 0.950 . S
H1725 C1737 0.950 . S
H1726 C1734 0.950 . S
H1727 C1736 0.950 . S
H1728 C1738 0.950 . S
H1729 C1740 0.950 . S
H1730 C1742 0.950 . S
H1731 C1743 0.950 . S
C1732 H1724 0.950 . S
C1732 C1733 1.386 . S
C1732 C1734 1.391 . S
C1733 C1732 1.386 . S
C1733 C1737 1.393 . S
C1734 H1726 0.950 . S
C1734 C1732 1.391 . S
C1734 C1735 1.400 . S
C1735 C1734 1.400 . S
C1735 C1736 1.398 . S
C1735 C1741 1.491 . S
C1736 H1727 0.950 . S
C1736 C1735 1.398 . S
C1736 C1737 1.391 . S
C1737 H1725 0.950 . S
C1737 C1733 1.393 . S
C1737 C1736 1.391 . S
C1738 H1728 0.950 . S
C1738 C1739 1.386 . S
C1738 C1740 1.391 . S
C1739 C1738 1.386 . S
C1739 C1743 1.393 . S
C1740 H1729 0.950 . S
C1740 C1738 1.391 . S
C1740 C1741 1.400 . S
C1741 C1735 1.491 . S
C1741 C1740 1.400 . S
C1741 C1742 1.398 . S
C1742 H1730 0.950 . S
C1742 C1741 1.398 . S
C1742 C1743 1.391 . S
C1743 H1731 0.950 . S
C1743 C1739 1.393 . S
C1743 C1742 1.391 . S
H1744 C1752 0.950 . S
H1745 C1757 0.950 . S
H1746 C1754 0.950 . S
H1747 C1756 0.950 . S
H1748 C1758 0.950 . S
H1749 C1760 0.950 . S
H1750 C1762 0.950 1_554 S
H1751 C1763 0.950 . S
C1752 H1744 0.950 . S
C1752 C1753 1.386 . S
C1752 C1754 1.391 . S
C1753 C1752 1.386 . S
C1753 C1757 1.393 . S
C1754 H1746 0.950 . S
C1754 C1752 1.391 . S
C1754 C1755 1.400 . S
C1755 C1754 1.400 . S
C1755 C1756 1.398 . S
C1755 C1761 1.491 . S
C1756 H1747 0.950 . S
C1756 C1755 1.398 . S
C1756 C1757 1.391 . S
C1757 H1745 0.950 . S
C1757 C1753 1.393 . S
C1757 C1756 1.391 . S
C1758 H1748 0.950 . S
C1758 C1759 1.386 . S
C1758 C1760 1.391 . S
C1759 C1758 1.386 . S
C1759 C1763 1.393 1_556 S
C1760 H1749 0.950 . S
C1760 C1758 1.391 . S
C1760 C1761 1.400 . S
C1761 C1755 1.491 . S
C1761 C1760 1.400 . S
C1761 C1762 1.398 . S
C1762 H1750 0.950 1_556 S
C1762 C1761 1.398 . S
C1762 C1763 1.391 1_556 S
C1763 H1751 0.950 . S
C1763 C1759 1.393 1_554 S
C1763 C1762 1.391 1_554 S
H1764 C1772 0.950 . S
H1765 C1777 0.950 . S
H1766 C1774 0.950 . S
H1767 C1776 0.950 . S
H1768 C1778 0.950 . S
H1769 C1780 0.950 . S
H1770 C1782 0.950 . S
H1771 C1783 0.950 . S
C1772 H1764 0.950 . S
C1772 C1773 1.386 . S
C1772 C1774 1.391 . S
C1773 C1772 1.386 . S
C1773 C1777 1.393 . S
C1774 H1766 0.950 . S
C1774 C1772 1.391 . S
C1774 C1775 1.400 . S
C1775 C1774 1.400 . S
C1775 C1776 1.398 . S
C1775 C1781 1.491 . S
C1776 H1767 0.950 . S
C1776 C1775 1.398 . S
C1776 C1777 1.391 . S
C1777 H1765 0.950 . S
C1777 C1773 1.393 . S
C1777 C1776 1.391 . S
C1778 H1768 0.950 . S
C1778 C1779 1.386 . S
C1778 C1780 1.391 . S
C1779 C1778 1.386 . S
C1779 C1783 1.393 . S
C1780 H1769 0.950 . S
C1780 C1778 1.391 . S
C1780 C1781 1.400 . S
C1781 C1775 1.491 . S
C1781 C1780 1.400 . S
C1781 C1782 1.398 . S
C1782 H1770 0.950 . S
C1782 C1781 1.398 . S
C1782 C1783 1.391 . S
C1783 H1771 0.950 . S
C1783 C1779 1.393 . S
C1783 C1782 1.391 . S
H1784 C1792 0.950 . S
H1785 C1797 0.950 . S
H1786 C1794 0.950 . S
H1787 C1796 0.950 . S
H1788 C1798 0.950 . S
H1789 C1800 0.950 . S
H1790 C1802 0.950 . S
H1791 C1803 0.950 . S
C1792 H1784 0.950 . S
C1792 C1793 1.386 . S
C1792 C1794 1.391 . S
C1793 C1792 1.386 . S
C1793 C1797 1.393 . S
C1794 H1786 0.950 . S
C1794 C1792 1.391 . S
C1794 C1795 1.400 . S
C1795 C1794 1.400 . S
C1795 C1796 1.398 . S
C1795 C1801 1.491 . S
C1796 H1787 0.950 . S
C1796 C1795 1.398 . S
C1796 C1797 1.391 . S
C1797 H1785 0.950 . S
C1797 C1793 1.393 . S
C1797 C1796 1.391 . S
C1798 H1788 0.950 . S
C1798 C1799 1.386 . S
C1798 C1800 1.391 . S
C1799 C1798 1.386 . S
C1799 C1803 1.393 . S
C1800 H1789 0.950 . S
C1800 C1798 1.391 . S
C1800 C1801 1.400 . S
C1801 C1795 1.491 . S
C1801 C1800 1.400 . S
C1801 C1802 1.398 . S
C1802 H1790 0.950 . S
C1802 C1801 1.398 . S
C1802 C1803 1.391 . S
C1803 H1791 0.950 . S
C1803 C1799 1.393 . S
C1803 C1802 1.391 . S
H1804 C1812 0.950 . S
H1805 C1817 0.950 . S
H1806 C1814 0.950 . S
H1807 C1816 0.950 . S
H1808 C1818 0.950 . S
H1809 C1820 0.950 . S
H1810 C1822 0.950 . S
H1811 C1823 0.950 . S
C1812 H1804 0.950 . S
C1812 C1813 1.386 . S
C1812 C1814 1.391 . S
C1813 C1812 1.386 . S
C1813 C1817 1.393 . S
C1814 H1806 0.950 . S
C1814 C1812 1.391 . S
C1814 C1815 1.400 . S
C1815 C1814 1.400 . S
C1815 C1816 1.398 . S
C1815 C1821 1.491 . S
C1816 H1807 0.950 . S
C1816 C1815 1.398 . S
C1816 C1817 1.391 . S
C1817 H1805 0.950 . S
C1817 C1813 1.393 . S
C1817 C1816 1.391 . S
C1818 H1808 0.950 . S
C1818 C1819 1.386 . S
C1818 C1820 1.391 . S
C1819 C1818 1.386 . S
C1819 C1823 1.393 . S
C1820 H1809 0.950 . S
C1820 C1818 1.391 . S
C1820 C1821 1.400 . S
C1821 C1815 1.491 . S
C1821 C1820 1.400 . S
C1821 C1822 1.398 . S
C1822 H1810 0.950 . S
C1822 C1821 1.398 . S
C1822 C1823 1.391 . S
C1823 H1811 0.950 . S
C1823 C1819 1.393 . S
C1823 C1822 1.391 . S
H1824 C1832 0.950 . S
H1825 C1837 0.950 . S
H1826 C1834 0.950 . S
H1827 C1836 0.950 . S
H1828 C1838 0.950 . S
H1829 C1840 0.950 . S
H1830 C1842 0.950 . S
H1831 C1843 0.950 . S
C1832 H1824 0.950 . S
C1832 C1833 1.386 . S
C1832 C1834 1.391 . S
C1833 C1832 1.386 . S
C1833 C1837 1.393 . S
C1834 H1826 0.950 . S
C1834 C1832 1.391 . S
C1834 C1835 1.400 . S
C1835 C1834 1.400 . S
C1835 C1836 1.398 . S
C1835 C1841 1.491 1_455 S
C1836 H1827 0.950 . S
C1836 C1835 1.398 . S
C1836 C1837 1.391 . S
C1837 H1825 0.950 . S
C1837 C1833 1.393 . S
C1837 C1836 1.391 . S
C1838 H1828 0.950 . S
C1838 C1839 1.386 . S
C1838 C1840 1.391 . S
C1839 C1838 1.386 . S
C1839 C1843 1.393 . S
C1840 H1829 0.950 . S
C1840 C1838 1.391 . S
C1840 C1841 1.400 . S
C1841 C1835 1.491 1_655 S
C1841 C1840 1.400 . S
C1841 C1842 1.398 . S
C1842 H1830 0.950 . S
C1842 C1841 1.398 . S
C1842 C1843 1.391 . S
C1843 H1831 0.950 . S
C1843 C1839 1.393 . S
C1843 C1842 1.391 . S
H1844 C1852 0.950 . S
H1845 C1857 0.950 . S
H1846 C1854 0.950 . S
H1847 C1856 0.950 . S
H1848 C1858 0.950 . S
H1849 C1860 0.950 . S
H1850 C1862 0.950 . S
H1851 C1863 0.950 . S
C1852 H1844 0.950 . S
C1852 C1853 1.386 . S
C1852 C1854 1.391 . S
C1853 C1852 1.386 . S
C1853 C1857 1.393 . S
C1854 H1846 0.950 . S
C1854 C1852 1.391 . S
C1854 C1855 1.400 . S
C1855 C1854 1.400 . S
C1855 C1856 1.398 . S
C1855 C1861 1.491 . S
C1856 H1847 0.950 . S
C1856 C1855 1.398 . S
C1856 C1857 1.391 . S
C1857 H1845 0.950 . S
C1857 C1853 1.393 . S
C1857 C1856 1.391 . S
C1858 H1848 0.950 . S
C1858 C1859 1.386 . S
C1858 C1860 1.391 . S
C1859 C1858 1.386 . S
C1859 C1863 1.393 . S
C1860 H1849 0.950 . S
C1860 C1858 1.391 . S
C1860 C1861 1.400 . S
C1861 C1855 1.491 . S
C1861 C1860 1.400 . S
C1861 C1862 1.398 . S
C1862 H1850 0.950 . S
C1862 C1861 1.398 . S
C1862 C1863 1.391 . S
C1863 H1851 0.950 . S
C1863 C1859 1.393 . S
C1863 C1862 1.391 . S
H1864 C1872 0.950 . S
H1865 C1877 0.950 . S
H1866 C1874 0.950 . S
H1867 C1876 0.950 . S
H1868 C1878 0.950 . S
H1869 C1880 0.950 . S
H1870 C1882 0.950 . S
H1871 C1883 0.950 . S
C1872 H1864 0.950 . S
C1872 C1873 1.386 . S
C1872 C1874 1.391 . S
C1873 C1872 1.386 . S
C1873 C1877 1.393 . S
C1874 H1866 0.950 . S
C1874 C1872 1.391 . S
C1874 C1875 1.400 . S
C1875 C1874 1.400 . S
C1875 C1876 1.398 . S
C1875 C1881 1.491 1_565 S
C1876 H1867 0.950 . S
C1876 C1875 1.398 . S
C1876 C1877 1.391 . S
C1877 H1865 0.950 . S
C1877 C1873 1.393 . S
C1877 C1876 1.391 . S
C1878 H1868 0.950 . S
C1878 C1879 1.386 . S
C1878 C1880 1.391 . S
C1879 C1878 1.386 . S
C1879 C1883 1.393 . S
C1880 H1869 0.950 . S
C1880 C1878 1.391 . S
C1880 C1881 1.400 . S
C1881 C1875 1.491 1_545 S
C1881 C1880 1.400 . S
C1881 C1882 1.398 . S
C1882 H1870 0.950 . S
C1882 C1881 1.398 . S
C1882 C1883 1.391 . S
C1883 H1871 0.950 . S
C1883 C1879 1.393 . S
C1883 C1882 1.391 . S
H1884 C1892 0.950 . S
H1885 C1897 0.950 . S
H1886 C1894 0.950 . S
H1887 C1896 0.950 . S
H1888 C1898 0.950 . S
H1889 C1900 0.950 . S
H1890 C1902 0.950 . S
H1891 C1903 0.950 . S
C1892 H1884 0.950 . S
C1892 C1893 1.386 . S
C1892 C1894 1.391 . S
C1893 C1892 1.386 . S
C1893 C1897 1.393 . S
C1894 H1886 0.950 . S
C1894 C1892 1.391 . S
C1894 C1895 1.400 . S
C1895 C1894 1.400 . S
C1895 C1896 1.398 . S
C1895 C1901 1.491 1_545 S
C1896 H1887 0.950 . S
C1896 C1895 1.398 . S
C1896 C1897 1.391 . S
C1897 H1885 0.950 . S
C1897 C1893 1.393 . S
C1897 C1896 1.391 . S
C1898 H1888 0.950 . S
C1898 C1899 1.386 . S
C1898 C1900 1.391 . S
C1899 C1898 1.386 . S
C1899 C1903 1.393 . S
C1900 H1889 0.950 . S
C1900 C1898 1.391 . S
C1900 C1901 1.400 . S
C1901 C1895 1.491 1_565 S
C1901 C1900 1.400 . S
C1901 C1902 1.398 . S
C1902 H1890 0.950 . S
C1902 C1901 1.398 . S
C1902 C1903 1.391 . S
C1903 H1891 0.950 . S
C1903 C1899 1.393 . S
C1903 C1902 1.391 . S
H1904 C1912 0.950 . S
H1905 C1917 0.950 . S
H1906 C1914 0.950 . S
H1907 C1916 0.950 . S
H1908 C1918 0.950 . S
H1909 C1920 0.950 . S
H1910 C1922 0.950 . S
H1911 C1923 0.950 . S
C1912 H1904 0.950 . S
C1912 C1913 1.386 . S
C1912 C1914 1.391 . S
C1913 C1912 1.386 . S
C1913 C1917 1.393 . S
C1914 H1906 0.950 . S
C1914 C1912 1.391 . S
C1914 C1915 1.400 . S
C1915 C1914 1.400 . S
C1915 C1916 1.398 . S
C1915 C1921 1.491 1_455 S
C1916 H1907 0.950 . S
C1916 C1915 1.398 . S
C1916 C1917 1.391 . S
C1917 H1905 0.950 . S
C1917 C1913 1.393 . S
C1917 C1916 1.391 . S
C1918 H1908 0.950 . S
C1918 C1919 1.386 . S
C1918 C1920 1.391 . S
C1919 C1918 1.386 . S
C1919 C1923 1.393 . S
C1920 H1909 0.950 . S
C1920 C1918 1.391 . S
C1920 C1921 1.400 . S
C1921 C1915 1.491 1_655 S
C1921 C1920 1.400 . S
C1921 C1922 1.398 . S
C1922 H1910 0.950 . S
C1922 C1921 1.398 . S
C1922 C1923 1.391 . S
C1923 H1911 0.950 . S
C1923 C1919 1.393 . S
C1923 C1922 1.391 . S
H1924 C1932 0.950 . S
H1925 C1937 0.950 . S
H1926 C1934 0.950 . S
H1927 C1936 0.950 . S
H1928 C1938 0.950 . S
H1929 C1940 0.950 . S
H1930 C1942 0.950 . S
H1931 C1943 0.950 . S
C1932 H1924 0.950 . S
C1932 C1933 1.386 . S
C1932 C1934 1.391 . S
C1933 C1932 1.386 . S
C1933 C1937 1.393 . S
C1934 H1926 0.950 . S
C1934 C1932 1.391 . S
C1934 C1935 1.400 . S
C1935 C1934 1.400 . S
C1935 C1936 1.398 . S
C1935 C1941 1.491 . S
C1936 H1927 0.950 . S
C1936 C1935 1.398 . S
C1936 C1937 1.391 . S
C1937 H1925 0.950 . S
C1937 C1933 1.393 . S
C1937 C1936 1.391 . S
C1938 H1928 0.950 . S
C1938 C1939 1.386 . S
C1938 C1940 1.391 . S
C1939 C1938 1.386 . S
C1939 C1943 1.393 . S
C1940 H1929 0.950 . S
C1940 C1938 1.391 . S
C1940 C1941 1.400 . S
C1941 C1935 1.491 . S
C1941 C1940 1.400 . S
C1941 C1942 1.398 . S
C1942 H1930 0.950 . S
C1942 C1941 1.398 . S
C1942 C1943 1.391 . S
C1943 H1931 0.950 . S
C1943 C1939 1.393 . S
C1943 C1942 1.391 . S
C513 C47 1.075 . S
C519 C5 1.013 . S
C533 C67 1.170 . S
C539 C25 1.161 . S
C553 C75 1.013 . S
C559 C33 1.070 . S
C573 C95 1.211 . S
C579 C137 1.203 . S
C593 C109 1.176 . S
C599 C151 1.185 . S
C613 C165 1.221 . S
C619 C123 1.210 . S
C633 C173 1.057 . S
C639 C215 1.039 . S
C653 C193 1.188 . S
C659 C235 1.188 . S
C673 C201 1.057 . S
C679 C243 1.039 . S
C693 C263 1.194 . S
C699 C305 1.211 . S
C713 C319 1.173 . S
C719 C277 1.166 . S
C733 C291 1.221 . S
C739 C333 1.229 . S
C753 C341 1.046 . S
C759 C383 1.028 . S
C773 C361 1.155 . S
C779 C403 1.162 . S
C793 C411 1.026 . S
C799 C369 1.067 . S
C813 C473 1.227 . S
C819 C431 1.229 . S
C833 C487 1.158 . S
C839 C445 1.174 . S
C853 C501 1.206 . S
C859 C459 1.198 . S
C873 C166 1.191 . S
C879 C12 1.171 . S
C893 C19 0.991 . S
C899 C138 1.096 . S
C913 C40 1.097 . S
C919 C152 1.119 . S
C933 C110 1.122 . S
C939 C54 1.111 . S
C953 C61 1.032 . S
C959 C124 1.100 . S
C973 C96 1.186 . S
C979 C82 1.189 . S
C993 C88 1.342 . S
C999 C81 1.333 . S
C1013 C102 1.363 . S
C1019 C53 1.349 . S
C1033 C68 1.332 . S
C1039 C116 1.332 . S
C1053 C26 1.327 . S
C1059 C130 1.322 . S
C1073 C39 1.365 . S
C1079 C144 1.379 . S
C1093 C158 1.349 . S
C1099 C11 1.337 . S
C1113 C180 1.181 . S
C1119 C334 1.178 . S
C1133 C306 1.078 . S
C1139 C187 0.973 . S
C1153 C320 1.117 . S
C1159 C208 1.113 . S
C1173 C222 1.115 . S
C1179 C278 1.116 . S
C1193 C292 1.095 . S
C1199 C229 1.021 . S
C1213 C250 1.186 . S
C1219 C264 1.183 . S
C1233 C256 1.341 . S
C1239 C249 1.323 . S
C1253 C270 1.365 . S
C1259 C221 1.351 . S
C1273 C236 1.343 . S
C1279 C284 1.340 . S
C1293 C194 1.343 . S
C1299 C298 1.344 . S
C1313 C207 1.338 . S
C1319 C312 1.359 . S
C1333 C326 1.353 . S
C1339 C179 1.344 . S
C1353 C502 1.190 . S
C1359 C348 1.168 . S
C1373 C355 1.028 . S
C1379 C474 1.094 . S
C1393 C376 1.106 . S
C1399 C488 1.120 . S
C1413 C390 1.115 . S
C1419 C446 1.114 . S
C1433 C460 1.116 . S
C1439 C397 1.048 . S
C1453 C418 1.178 . S
C1459 C432 1.183 . S
C1473 C417 1.341 . S
C1479 C424 1.350 . S
C1493 C389 1.343 . S
C1499 C438 1.358 . S
C1513 C404 1.307 . S
C1519 C452 1.301 . S
C1533 C362 1.343 . S
C1539 C466 1.341 . S
C1553 C375 1.350 . S
C1559 C480 1.366 . S
C1573 C347 1.319 . S
C1579 C494 1.333 . S
C1593 C410 1.653 . S
C1599 C4 1.639 . S
C1613 C18 1.762 . S
C1619 C382 1.658 . S
C1633 C396 1.760 1_554 S
C1639 C32 1.661 . S
C1653 C46 1.652 . S
C1659 C186 1.771 . S
C1673 C200 1.674 . S
C1679 C60 1.766 . S
C1693 C74 1.652 . S
C1699 C172 1.656 . S
C1713 C89 1.059 . S
C1719 C327 1.036 1_556 S
C1733 C299 1.049 . S
C1739 C103 1.057 . S
C1753 C117 1.007 . S
C1759 C313 1.035 1_556 S
C1773 C131 1.047 . S
C1779 C439 1.039 . S
C1793 C145 1.028 . S
C1799 C453 1.045 . S
C1813 C425 1.021 . S
C1819 C159 1.026 . S
C1833 C354 1.766 . S
C1839 C214 1.648 . S
C1853 C368 1.650 . S
C1859 C228 1.768 . S
C1873 C340 1.645 . S
C1879 C242 1.643 . S
C1893 C257 1.029 . S
C1899 C495 1.016 . S
C1913 C467 1.009 . S
C1919 C271 1.037 . S
C1933 C285 1.028 . S
C1939 C481 1.050 . S
