# Generated by pormake.
# Topology uof, (4)-cn, num edge types: 1
# Building blocks:
#     Node 0, Type 0, BuildingBlock: KUFVIS_clean_sbu_0, # of connection points: 4
#     Node 1, Type 0, BuildingBlock: KUFVIS_clean_sbu_0, # of connection points: 4
#     Node 2, Type 0, BuildingBlock: KUFVIS_clean_sbu_0, # of connection points: 4
#     Node 3, Type 0, BuildingBlock: KUFVIS_clean_sbu_0, # of connection points: 4
#     Node 4, Type 0, BuildingBlock: KUFVIS_clean_sbu_0, # of connection points: 4
#     Node 5, Type 0, BuildingBlock: KUFVIS_clean_sbu_0, # of connection points: 4
#     Node 6, Type 0, BuildingBlock: KUFVIS_clean_sbu_0, # of connection points: 4
#     Node 7, Type 0, BuildingBlock: KUFVIS_clean_sbu_0, # of connection points: 4
#     Node 8, Type 0, BuildingBlock: KUFVIS_clean_sbu_0, # of connection points: 4
#     Node 9, Type 0, BuildingBlock: KUFVIS_clean_sbu_0, # of connection points: 4
#     Node 10, Type 0, BuildingBlock: KUFVIS_clean_sbu_0, # of connection points: 4
#     Node 11, Type 0, BuildingBlock: KUFVIS_clean_sbu_0, # of connection points: 4
#     Edge 12, Type (0, 0), BuildingBlock: UVAHIK_clean_linker_0, # of connection points: 2
#     Edge 13, Type (0, 0), BuildingBlock: UVAHIK_clean_linker_0, # of connection points: 2
#     Edge 14, Type (0, 0), BuildingBlock: UVAHIK_clean_linker_0, # of connection points: 2
#     Edge 15, Type (0, 0), BuildingBlock: UVAHIK_clean_linker_0, # of connection points: 2
#     Edge 16, Type (0, 0), BuildingBlock: UVAHIK_clean_linker_0, # of connection points: 2
#     Edge 17, Type (0, 0), BuildingBlock: UVAHIK_clean_linker_0, # of connection points: 2
#     Edge 18, Type (0, 0), BuildingBlock: UVAHIK_clean_linker_0, # of connection points: 2
#     Edge 19, Type (0, 0), BuildingBlock: UVAHIK_clean_linker_0, # of connection points: 2
#     Edge 20, Type (0, 0), BuildingBlock: UVAHIK_clean_linker_0, # of connection points: 2
#     Edge 21, Type (0, 0), BuildingBlock: UVAHIK_clean_linker_0, # of connection points: 2
#     Edge 22, Type (0, 0), BuildingBlock: UVAHIK_clean_linker_0, # of connection points: 2
#     Edge 23, Type (0, 0), BuildingBlock: UVAHIK_clean_linker_0, # of connection points: 2
#     Edge 24, Type (0, 0), BuildingBlock: UVAHIK_clean_linker_0, # of connection points: 2
#     Edge 25, Type (0, 0), BuildingBlock: UVAHIK_clean_linker_0, # of connection points: 2
#     Edge 26, Type (0, 0), BuildingBlock: UVAHIK_clean_linker_0, # of connection points: 2
#     Edge 27, Type (0, 0), BuildingBlock: UVAHIK_clean_linker_0, # of connection points: 2
#     Edge 28, Type (0, 0), BuildingBlock: UVAHIK_clean_linker_0, # of connection points: 2
#     Edge 29, Type (0, 0), BuildingBlock: UVAHIK_clean_linker_0, # of connection points: 2
#     Edge 30, Type (0, 0), BuildingBlock: UVAHIK_clean_linker_0, # of connection points: 2
#     Edge 31, Type (0, 0), BuildingBlock: UVAHIK_clean_linker_0, # of connection points: 2
#     Edge 32, Type (0, 0), BuildingBlock: UVAHIK_clean_linker_0, # of connection points: 2
#     Edge 33, Type (0, 0), BuildingBlock: UVAHIK_clean_linker_0, # of connection points: 2
#     Edge 34, Type (0, 0), BuildingBlock: UVAHIK_clean_linker_0, # of connection points: 2
#     Edge 35, Type (0, 0), BuildingBlock: UVAHIK_clean_linker_0, # of connection points: 2
# Relax obj value: 0.185
# Max RMSD: 0.140
# Mean RMSD: 0.140
data_MOF--net-uof--node1-KUFVIS_clean_sbu_0--edge1-UVAHIK_clean_linker_0
_symmetry_space_group_name_H-M    P1
_symmetry_Int_Tables_number       1
_symmetry_cell_setting            triclinic
loop_
_symmetry_equiv_pos_as_xyz
'x, y, z'
_cell_length_a     41.860837
_cell_length_b     41.877758
_cell_length_c     80.440953
_cell_angle_alpha  90.000571
_cell_angle_beta   89.994968
_cell_angle_gamma 120.00514
loop_
_atom_site_label
_atom_site_type_symbol
_atom_site_fract_x
_atom_site_fract_y
_atom_site_fract_z
_atom_type_partial_charge
Mn0 Mn 0.23236 0.31446 0.21819 0.0
Mn1 Mn 0.29238 0.28957 0.23323 0.0
C2 C 0.25017 0.27968 0.20247 0.0
C3 C 0.17117 0.29988 0.21278 0.0
C4 C 0.31585 0.36668 0.22122 0.0
O5 O 0.23005 0.32137 0.24344 0.0
O6 O 0.26937 0.3019 0.25156 0.0
C7 C 0.23992 0.22047 0.25048 0.0
N8 N 0.26684 0.23843 0.23891 0.0
C9 C 0.26901 0.18333 0.23278 0.0
C10 C 0.24137 0.16424 0.24466 0.0
C11 C 0.22662 0.18286 0.25349 0.0
C12 C 0.2809 0.22068 0.23021 0.0
H13 H 0.22881 0.23478 0.25741 0.0
C14 C 0.24718 0.31382 0.2546 0.0
O15 O 0.19819 0.3338 0.2124 0.0
O16 O 0.17943 0.27541 0.21759 0.0
N17 N 0.31618 0.27648 0.21646 0.0
C18 C 0.34138 0.29845 0.20487 0.0
C19 C 0.35768 0.28361 0.19449 0.0
C20 C 0.34832 0.24657 0.1963 0.0
C21 C 0.32262 0.22463 0.20844 0.0
C22 C 0.30704 0.24083 0.21832 0.0
H23 H 0.34893 0.32703 0.20355 0.0
O24 O 0.23792 0.29906 0.1952 0.0
O25 O 0.25238 0.28196 0.21849 0.0
O26 O 0.28413 0.36118 0.21676 0.0
O27 O 0.3214 0.34203 0.22759 0.0
C28 C 0.31177 0.18732 0.2111 0.0
C29 C 0.28508 0.16673 0.22331 0.0
H30 H 0.23115 0.13527 0.24705 0.0
H31 H 0.20524 0.16832 0.26266 0.0
H32 H 0.37753 0.30074 0.18517 0.0
H33 H 0.36099 0.23524 0.18829 0.0
H34 H 0.32346 0.17406 0.20371 0.0
H35 H 0.27668 0.13795 0.22512 0.0
Mn36 Mn 0.91637 0.22993 0.54904 0.0
Mn37 Mn 1.00313 0.2816 0.56402 0.0
C38 C 0.96722 0.24369 0.5327 0.0
C39 C 0.86527 0.17126 0.5436 0.0
C40 C 0.95526 0.31371 0.55374 0.0
O41 O 0.90806 0.22757 0.57439 0.0
O42 O 0.96794 0.25925 0.58243 0.0
C43 C 0.01272 0.22201 0.5786 0.0
N44 N 0.02432 0.25114 0.56803 0.0
C45 C 0.07766 0.24712 0.5602 0.0
C46 C 0.06636 0.21714 0.57104 0.0
C47 C 0.03366 0.20444 0.58022 0.0
C48 C 0.05549 0.26331 0.559 0.0
H49 H 0.98772 0.21233 0.58575 0.0
C50 C 0.93341 0.24059 0.58552 0.0
O51 O 0.8622 0.20067 0.54351 0.0
O52 O 0.89698 0.17574 0.54798 0.0
N53 N 0.04019 0.30469 0.54726 0.0
C54 C 0.04633 0.33285 0.53684 0.0
C55 C 0.07767 0.3484 0.52657 0.0
C56 C 0.1026 0.33522 0.52731 0.0
C57 C 0.09579 0.30635 0.5382 0.0
C58 C 0.06406 0.29188 0.54809 0.0
H59 H 0.02753 0.34343 0.5364 0.0
O60 O 0.93582 0.23441 0.52579 0.0
O61 O 0.96787 0.24494 0.54875 0.0
O62 O 0.92745 0.28396 0.54842 0.0
O63 O 0.98398 0.31531 0.56007 0.0
C64 C 0.11915 0.29126 0.5396 0.0
C65 C 0.1099 0.26142 0.55045 0.0
H66 H 0.0825 0.20358 0.57236 0.0
H67 H 0.0247 0.18126 0.58859 0.0
H68 H 0.08273 0.37067 0.51819 0.0
H69 H 0.1268 0.3474 0.51941 0.0
H70 H 0.14411 0.30213 0.53225 0.0
H71 H 0.12773 0.24962 0.55118 0.0
Mn72 Mn 0.68997 0.91538 0.88188 0.0
Mn73 Mn 0.72475 1.00149 0.89759 0.0
C74 C 0.72729 0.96688 0.86595 0.0
C75 C 0.69768 0.86451 0.87605 0.0
C76 C 0.64488 0.95397 0.887 0.0
O77 O 0.68364 0.90608 0.90716 0.0
O78 O 0.71184 0.96562 0.91569 0.0
C79 C 0.79388 0.01076 0.9121 0.0
N80 N 0.77639 0.02265 0.90166 0.0
C81 C 0.83375 0.0764 0.89419 0.0
C82 C 0.8524 0.06479 0.90489 0.0
C83 C 0.83238 0.03173 0.91383 0.0
C84 C 0.79541 0.05418 0.89287 0.0
H85 H 0.77855 0.98549 0.91905 0.0
C86 C 0.69594 0.93098 0.91849 0.0
O87 O 0.66519 0.86144 0.87595 0.0
O88 O 0.72484 0.89608 0.88064 0.0
N89 N 0.73878 0.03916 0.88113 0.0
C90 C 0.71681 0.04559 0.8708 0.0
C91 C 0.73262 0.07729 0.86077 0.0
C92 C 0.77072 0.10227 0.86164 0.0
C93 C 0.79273 0.09516 0.87244 0.0
C94 C 0.77545 0.06308 0.88209 0.0
H95 H 0.68744 0.02675 0.87027 0.0
O96 O 0.70532 0.93576 0.85878 0.0
O97 O 0.72641 0.96688 0.882 0.0
O98 O 0.64697 0.92644 0.88139 0.0
O99 O 0.67189 0.98238 0.89359 0.0
C100 C 0.83116 0.11855 0.87396 0.0
C101 C 0.85171 0.10899 0.88469 0.0
H102 H 0.88208 0.08095 0.90629 0.0
H103 H 0.84657 0.02254 0.92208 0.0
H104 H 0.71546 0.08259 0.85247 0.0
H105 H 0.78278 0.12674 0.85392 0.0
H106 H 0.84527 0.14377 0.86679 0.0
H107 H 0.88132 0.12686 0.88552 0.0
Mn108 Mn 0.77636 0.68994 0.2189 0.0
Mn109 Mn 0.72046 0.71809 0.23585 0.0
C110 C 0.75819 0.72531 0.20388 0.0
C111 C 0.83638 0.70258 0.21206 0.0
C112 C 0.69316 0.63988 0.22408 0.0
O113 O 0.78106 0.68328 0.24401 0.0
O114 O 0.74534 0.70605 0.25339 0.0
C115 C 0.77637 0.78767 0.25163 0.0
N116 N 0.7477 0.76951 0.24088 0.0
C117 C 0.7457 0.82485 0.23516 0.0
C118 C 0.77517 0.84418 0.2462 0.0
C119 C 0.79069 0.82553 0.2544 0.0
C120 C 0.73285 0.78726 0.23278 0.0
H121 H 0.78807 0.77333 0.2581 0.0
C122 C 0.76658 0.69271 0.2557 0.0
O123 O 0.80866 0.66899 0.21212 0.0
O124 O 0.82958 0.72782 0.21724 0.0
N125 N 0.69488 0.73094 0.2199 0.0
C126 C 0.66779 0.70866 0.20907 0.0
C127 C 0.6504 0.72341 0.19936 0.0
C128 C 0.66059 0.7607 0.20109 0.0
C129 C 0.68822 0.78295 0.21247 0.0
C130 C 0.70484 0.76682 0.22168 0.0
H131 H 0.65958 0.67988 0.20784 0.0
O132 O 0.76893 0.70513 0.1962 0.0
O133 O 0.75791 0.72376 0.21993 0.0
O134 O 0.72368 0.64424 0.21842 0.0
O135 O 0.68974 0.66541 0.23098 0.0
C136 C 0.70001 0.82051 0.21501 0.0
C137 C 0.72869 0.84144 0.22637 0.0
H138 H 0.78619 0.87335 0.24842 0.0
H139 H 0.81347 0.84025 0.26292 0.0
H140 H 0.62905 0.70604 0.19063 0.0
H141 H 0.64706 0.77197 0.1936 0.0
H142 H 0.68754 0.83373 0.20813 0.0
H143 H 0.73784 0.87042 0.22805 0.0
Mn144 Mn 0.09002 0.77589 0.55044 0.0
Mn145 Mn 0.00425 0.72558 0.56667 0.0
C146 C 0.03822 0.76281 0.53495 0.0
C147 C 0.14133 0.83417 0.54458 0.0
C148 C 0.05039 0.6922 0.55535 0.0
O149 O 0.1001 0.7782 0.57565 0.0
O150 O 0.04078 0.74805 0.58455 0.0
C151 C 0.99651 0.78599 0.58158 0.0
N152 N 0.98386 0.75656 0.57113 0.0
C153 C 0.93016 0.76083 0.56431 0.0
C154 C 0.94255 0.79113 0.57504 0.0
C155 C 0.97596 0.80387 0.58365 0.0
C156 C 0.952 0.74437 0.56263 0.0
H157 H 0.02205 0.79569 0.58829 0.0
C158 C 0.07555 0.76607 0.58714 0.0
O159 O 0.14383 0.80444 0.54417 0.0
O160 O 0.11012 0.8302 0.54949 0.0
N161 N 0.96594 0.70239 0.55045 0.0
C162 C 0.95874 0.67389 0.54005 0.0
C163 C 0.92657 0.65823 0.53033 0.0
C164 C 0.90192 0.67168 0.53158 0.0
C165 C 0.90983 0.70092 0.54244 0.0
C166 C 0.94235 0.71547 0.55178 0.0
H167 H 0.97731 0.66307 0.53923 0.0
O168 O 0.06902 0.77163 0.52753 0.0
O169 O 0.03871 0.76167 0.55098 0.0
O170 O 0.07799 0.72155 0.54959 0.0
O171 O 0.02254 0.69132 0.56228 0.0
C172 C 0.88681 0.71629 0.54434 0.0
C173 C 0.89716 0.74647 0.55512 0.0
H174 H 0.92671 0.80492 0.57671 0.0
H175 H 0.98575 0.8273 0.59192 0.0
H176 H 0.92066 0.63568 0.52197 0.0
H177 H 0.87706 0.65941 0.52411 0.0
H178 H 0.86127 0.70538 0.53742 0.0
H179 H 0.87956 0.75847 0.55623 0.0
Mn180 Mn 0.31711 0.08867 0.88193 0.0
Mn181 Mn 0.2819 0.00301 0.89822 0.0
C182 C 0.27891 0.03677 0.8664 0.0
C183 C 0.30977 0.13968 0.87587 0.0
C184 C 0.36155 0.04945 0.88712 0.0
O185 O 0.3243 0.09884 0.90714 0.0
O186 O 0.2957 0.03958 0.91607 0.0
C187 C 0.21351 0.99504 0.913 0.0
N188 N 0.23045 0.98249 0.90258 0.0
C189 C 0.1726 0.92878 0.89564 0.0
C190 C 0.15451 0.94108 0.90633 0.0
C191 C 0.17505 0.97444 0.91498 0.0
C192 C 0.21093 0.95065 0.89406 0.0
H193 H 0.22925 0.02055 0.91974 0.0
C194 C 0.31206 0.07433 0.91863 0.0
O195 O 0.34213 0.14243 0.87561 0.0
O196 O 0.28259 0.1084 0.88073 0.0
N197 N 0.26703 0.96469 0.88204 0.0
C198 C 0.2885 0.95755 0.8717 0.0
C199 C 0.27214 0.92544 0.86195 0.0
C200 C 0.23401 0.90077 0.8631 0.0
C201 C 0.21252 0.90861 0.8739 0.0
C202 C 0.23034 0.94107 0.88327 0.0
H203 H 0.3179 0.97615 0.87096 0.0
O204 O 0.3009 0.06757 0.859 0.0
O205 O 0.28025 0.03731 0.88245 0.0
O206 O 0.35972 0.077 0.88135 0.0
O207 O 0.33453 0.02146 0.89394 0.0
C208 C 0.1741 0.88558 0.87569 0.0
C209 C 0.15409 0.89583 0.88642 0.0
H210 H 0.12487 0.92521 0.90793 0.0
H211 H 0.16129 0.98415 0.92322 0.0
H212 H 0.2889 0.91958 0.85365 0.0
H213 H 0.22154 0.87597 0.85561 0.0
H214 H 0.15957 0.86009 0.86873 0.0
H215 H 0.12448 0.87822 0.88745 0.0
Mn216 Mn 0.68974 0.77542 0.44866 0.0
Mn217 Mn 0.72566 0.72383 0.43457 0.0
C218 C 0.72629 0.76203 0.46558 0.0
C219 C 0.69713 0.83416 0.45368 0.0
C220 C 0.64525 0.69158 0.44419 0.0
O221 O 0.68471 0.77741 0.42323 0.0
O222 O 0.71345 0.74587 0.41583 0.0
C223 C 0.79532 0.78342 0.42034 0.0
N224 N 0.77745 0.75439 0.43093 0.0
C225 C 0.83458 0.75859 0.43934 0.0
C226 C 0.85361 0.78847 0.42849 0.0
C227 C 0.8339 0.80105 0.419 0.0
C228 C 0.79617 0.74237 0.44026 0.0
H229 H 0.78023 0.79299 0.41296 0.0
C230 C 0.69762 0.76439 0.41238 0.0
O231 O 0.66463 0.80475 0.45365 0.0
O232 O 0.7245 0.82962 0.44964 0.0
N233 N 0.73908 0.70103 0.45169 0.0
C234 C 0.71671 0.67295 0.46208 0.0
C235 C 0.73216 0.65752 0.47261 0.0
C236 C 0.77031 0.67072 0.47217 0.0
C237 C 0.79274 0.69952 0.46131 0.0
C238 C 0.77581 0.7139 0.45116 0.0
H239 H 0.6873 0.66232 0.46228 0.0
O240 O 0.70384 0.77131 0.47213 0.0
O241 O 0.72631 0.76057 0.44954 0.0
O242 O 0.64681 0.72133 0.44923 0.0
O243 O 0.67268 0.69002 0.43821 0.0
C244 C 0.83124 0.71461 0.46019 0.0
C245 C 0.8522 0.74439 0.44936 0.0
H246 H 0.88336 0.80206 0.42738 0.0
H247 H 0.8484 0.82416 0.41063 0.0
H248 H 0.71468 0.6353 0.48096 0.0
H249 H 0.78207 0.65862 0.48026 0.0
H250 H 0.84509 0.70378 0.46773 0.0
H251 H 0.88185 0.75619 0.44884 0.0
Mn252 Mn 0.91698 0.68816 0.78047 0.0
Mn253 Mn 0.00421 0.72385 0.76599 0.0
C254 C 0.9673 0.72494 0.79715 0.0
C255 C 0.86575 0.69568 0.78567 0.0
C256 C 0.95625 0.64362 0.77588 0.0
O257 O 0.90942 0.68268 0.75508 0.0
O258 O 0.96956 0.71136 0.7474 0.0
C259 C 0.01403 0.79329 0.75163 0.0
N260 N 0.02539 0.77557 0.76221 0.0
C261 C 0.07848 0.83279 0.77038 0.0
C262 C 0.06743 0.85167 0.75954 0.0
C263 C 0.03496 0.83183 0.75018 0.0
C264 C 0.05632 0.79441 0.77142 0.0
H265 H 0.98922 0.7781 0.74435 0.0
C266 C 0.93511 0.6954 0.7441 0.0
O267 O 0.86264 0.66318 0.7857 0.0
O268 O 0.89758 0.72294 0.78146 0.0
N269 N 0.0408 0.7375 0.78296 0.0
C270 C 0.04673 0.71528 0.79334 0.0
C271 C 0.07783 0.73086 0.80375 0.0
C272 C 0.10274 0.76899 0.8032 0.0
C273 C 0.09615 0.79127 0.79234 0.0
C274 C 0.06465 0.77421 0.78231 0.0
H275 H 0.02797 0.68588 0.79363 0.0
O276 O 0.9357 0.70263 0.80385 0.0
O277 O 0.96844 0.72472 0.7811 0.0
O278 O 0.92818 0.64526 0.78107 0.0
O279 O 0.98508 0.67096 0.76975 0.0
C280 C 0.11951 0.82975 0.79112 0.0
C281 C 0.11048 0.85054 0.78028 0.0
H282 H 0.08356 0.88138 0.75835 0.0
H283 H 0.0262 0.84621 0.74181 0.0
H284 H 0.08272 0.7135 0.8121 0.0
H285 H 0.12677 0.78086 0.8112 0.0
H286 H 0.1443 0.8437 0.79859 0.0
H287 H 0.12831 0.88018 0.77969 0.0
Mn288 Mn 0.23095 0.91751 0.11155 0.0
Mn289 Mn 0.28856 0.00293 0.09636 0.0
C290 C 0.24805 0.96973 0.12744 0.0
C291 C 0.17025 0.8699 0.1171 0.0
C292 C 0.31444 0.95057 0.10762 0.0
O293 O 0.22829 0.90848 0.08626 0.0
O294 O 0.26502 0.96775 0.07805 0.0
C295 C 0.23427 0.01854 0.08023 0.0
N296 N 0.26194 0.02781 0.09143 0.0
C297 C 0.26381 0.08477 0.09796 0.0
C298 C 0.23538 0.07589 0.08647 0.0
C299 C 0.2204 0.04251 0.07764 0.0
C300 C 0.27619 0.05959 0.10015 0.0
H301 H 0.22303 0.99314 0.07327 0.0
C302 C 0.24383 0.93345 0.07506 0.0
O303 O 0.1978 0.86377 0.11732 0.0
O304 O 0.17773 0.90246 0.11241 0.0
N305 N 0.31287 0.03974 0.11312 0.0
C306 C 0.33899 0.04336 0.12426 0.0
C307 C 0.35566 0.07453 0.13461 0.0
C308 C 0.34577 0.10191 0.13318 0.0
C309 C 0.31914 0.09776 0.12147 0.0
C310 C 0.30318 0.06592 0.11164 0.0
H311 H 0.347 0.02261 0.12526 0.0
O312 O 0.23658 0.93813 0.13462 0.0
O313 O 0.24974 0.96983 0.11141 0.0
O314 O 0.2834 0.92402 0.11261 0.0
O315 O 0.31865 0.98025 0.10121 0.0
C316 C 0.30779 0.12395 0.11917 0.0
C317 C 0.28027 0.11753 0.10736 0.0
H318 H 0.22475 0.09442 0.08437 0.0
H319 H 0.19842 0.03543 0.06877 0.0
H320 H 0.37624 0.07756 0.14359 0.0
H321 H 0.35876 0.12597 0.14115 0.0
H322 H 0.31977 0.14896 0.12653 0.0
H323 H 0.27152 0.13772 0.10582 0.0
Mn324 Mn 0.31704 0.22921 0.44811 0.0
Mn325 Mn 0.28184 0.27984 0.43204 0.0
C326 C 0.27914 0.24303 0.46381 0.0
C327 C 0.30967 0.17079 0.45403 0.0
C328 C 0.36165 0.31284 0.44288 0.0
O329 O 0.32394 0.22628 0.42288 0.0
O330 O 0.29519 0.2569 0.41409 0.0
C331 C 0.21308 0.21955 0.41747 0.0
N332 N 0.23029 0.24906 0.42786 0.0
C333 C 0.17266 0.24517 0.43504 0.0
C334 C 0.1543 0.21478 0.42439 0.0
C335 C 0.1746 0.20182 0.41562 0.0
C336 C 0.211 0.2615 0.43649 0.0
H337 H 0.22863 0.20967 0.41064 0.0
C338 C 0.31151 0.23849 0.41145 0.0
O339 O 0.34205 0.20035 0.45425 0.0
O340 O 0.28246 0.17499 0.44931 0.0
N341 N 0.26737 0.30343 0.44833 0.0
C342 C 0.28908 0.332 0.45863 0.0
C343 C 0.27297 0.34785 0.4685 0.0
C344 C 0.23485 0.33453 0.46749 0.0
C345 C 0.21311 0.30524 0.45672 0.0
C346 C 0.23068 0.29049 0.44724 0.0
H347 H 0.31847 0.34269 0.45927 0.0
O348 O 0.30115 0.2341 0.47112 0.0
O349 O 0.28029 0.24385 0.44776 0.0
O350 O 0.35973 0.28342 0.44865 0.0
O351 O 0.33459 0.31388 0.43614 0.0
C352 C 0.17467 0.28999 0.45507 0.0
C353 C 0.15441 0.25974 0.44437 0.0
H354 H 0.12464 0.2011 0.42289 0.0
H355 H 0.16063 0.17834 0.4074 0.0
H356 H 0.28993 0.37044 0.47678 0.0
H357 H 0.22257 0.34693 0.47507 0.0
H358 H 0.16034 0.30105 0.46211 0.0
H359 H 0.12479 0.24784 0.44345 0.0
Mn360 Mn 0.08976 0.31503 0.7797 0.0
Mn361 Mn 1.00296 0.28028 0.76482 0.0
C362 C 0.03895 0.27816 0.7961 0.0
C363 C 0.14072 0.30715 0.78504 0.0
C364 C 0.05125 0.36027 0.77503 0.0
O365 O 0.0979 0.32099 0.75433 0.0
O366 O 0.03795 0.29265 0.74637 0.0
C367 C 0.99266 0.21073 0.75037 0.0
N368 N 0.98136 0.22856 0.76092 0.0
C369 C 0.92774 0.17153 0.76886 0.0
C370 C 0.93872 0.15254 0.75804 0.0
C371 C 0.97142 0.17223 0.74882 0.0
C372 C 0.9502 0.20986 0.76999 0.0
H373 H 0.01765 0.2258 0.7432 0.0
C374 C 0.07247 0.30848 0.74323 0.0
O375 O 0.14396 0.3397 0.78515 0.0
O376 O 0.10892 0.28003 0.78069 0.0
N377 N 0.96609 0.26677 0.78164 0.0
C378 C 0.96029 0.28905 0.79205 0.0
C379 C 0.92904 0.27359 0.80237 0.0
C380 C 0.90383 0.23554 0.8017 0.0
C381 C 0.91028 0.21321 0.79081 0.0
C382 C 0.94195 0.23014 0.78088 0.0
H383 H 0.9793 0.31839 0.79244 0.0
O384 O 0.07044 0.30013 0.80297 0.0
O385 O 0.03821 0.27875 0.78005 0.0
O386 O 0.07893 0.35815 0.78039 0.0
O387 O 0.0225 0.33324 0.76867 0.0
C388 C 0.88663 0.1748 0.78948 0.0
C389 C 0.89554 0.15392 0.77864 0.0
H390 H 0.92236 0.12286 0.75677 0.0
H391 H 0.98013 0.15776 0.74047 0.0
H392 H 0.92425 0.29101 0.81074 0.0
H393 H 0.8797 0.22377 0.80963 0.0
H394 H 0.86169 0.16097 0.79686 0.0
H395 H 0.87749 0.12433 0.77796 0.0
Mn396 Mn 0.77489 0.08515 0.11213 0.0
Mn397 Mn 0.71585 1.00047 0.09659 0.0
C398 C 0.75601 0.03238 0.12786 0.0
C399 C 0.83573 0.13158 0.11826 0.0
C400 C 0.6917 0.0541 0.1079 0.0
O401 O 0.77868 0.09467 0.08686 0.0
O402 O 0.74026 0.03591 0.07844 0.0
C403 C 0.76925 0.98362 0.08042 0.0
N404 N 0.74155 0.9747 0.09157 0.0
C405 C 0.73842 0.9171 0.09799 0.0
C406 C 0.76686 0.92562 0.08655 0.0
C407 C 0.78248 0.95913 0.0778 0.0
C408 C 0.72664 0.94275 0.1002 0.0
H409 H 0.78102 0.00915 0.07354 0.0
C410 C 0.76251 0.07007 0.07557 0.0
O411 O 0.80877 0.13858 0.11814 0.0
O412 O 0.82774 0.09892 0.11347 0.0
N413 N 0.69072 0.96348 0.11319 0.0
C414 C 0.6648 0.96032 0.12436 0.0
C415 C 0.64759 0.92908 0.13464 0.0
C416 C 0.65677 0.9012 0.13315 0.0
C417 C 0.68322 0.9049 0.12144 0.0
C418 C 0.69971 0.9368 0.11165 0.0
H419 H 0.65739 0.98151 0.12542 0.0
O420 O 0.76791 0.06395 0.13514 0.0
O421 O 0.75483 0.03262 0.11182 0.0
O422 O 0.72306 0.08012 0.11286 0.0
O423 O 0.68664 0.02408 0.10152 0.0
C424 C 0.69394 0.87824 0.11911 0.0
C425 C 0.72142 0.88428 0.10734 0.0
H426 H 0.77703 0.90671 0.08444 0.0
H427 H 0.80448 0.96593 0.06897 0.0
H428 H 0.62717 0.92641 0.14364 0.0
H429 H 0.64338 0.8771 0.14108 0.0
H430 H 0.68154 0.85317 0.12644 0.0
H431 H 0.72971 0.86375 0.1058 0.0
C432 C 0.8966 0.14342 0.12927 0.0
C433 C 0.87223 0.15668 0.12605 0.0
C434 C 0.92817 0.16371 0.13897 0.0
C435 C 0.9994 0.25139 0.15309 0.0
H436 H 0.99833 0.20144 0.19384 0.0
C437 C 0.12541 0.31346 0.19838 0.0
C438 C 0.13392 0.28819 0.20579 0.0
C439 C 0.09193 0.30106 0.18978 0.0
C440 C 0.99953 0.21575 0.18245 0.0
H441 H 0.86326 0.20283 0.1299 0.0
H442 H 0.91967 0.23911 0.14648 0.0
H443 H 0.94493 0.17389 0.1755 0.0
H444 H 0.11328 0.23 0.21021 0.0
H445 H 0.05631 0.20859 0.1951 0.0
H446 H 0.05481 0.29224 0.15945 0.0
C447 C 0.91366 0.21259 0.14158 0.0
C448 C 0.96864 0.20001 0.17202 0.0
C449 C 0.88146 0.19186 0.13208 0.0
C450 C 0.10769 0.25041 0.20481 0.0
C451 C 0.07462 0.23805 0.19615 0.0
C452 C 0.03076 0.26691 0.1634 0.0
C453 C 0.93674 0.19818 0.14547 0.0
C454 C 0.96841 0.21733 0.15712 0.0
C455 C 0.06622 0.26304 0.1883 0.0
C456 C 0.0316 0.24892 0.17811 0.0
H457 H 0.8905 0.11647 0.12492 0.0
H458 H 0.9456 0.15207 0.14172 0.0
H459 H 0.99996 0.26522 0.14162 0.0
H460 H 0.14501 0.34276 0.19882 0.0
H461 H 0.08644 0.32131 0.18416 0.0
C462 C 0.83761 0.10296 0.54029 0.0
C463 C 0.83649 0.13526 0.53671 0.0
C464 C 0.81507 0.07012 0.53169 0.0
C465 C 0.7527 0.99972 0.51578 0.0
H466 H 0.7581 0.00899 0.46775 0.0
C467 C 0.68045 0.87208 0.47223 0.0
C468 C 0.70419 0.87023 0.46039 0.0
C469 C 0.69104 0.90491 0.48101 0.0
C470 C 0.75609 0.00594 0.48115 0.0
H471 H 0.80992 0.15801 0.52155 0.0
H472 H 0.77084 0.10064 0.5063 0.0
H473 H 0.78579 0.06446 0.4851 0.0
H474 H 0.75673 0.90196 0.44786 0.0
H475 H 0.77459 0.95928 0.46273 0.0
H476 H 0.72364 0.94119 0.51184 0.0
C477 C 0.78909 0.10078 0.51588 0.0
C478 C 0.77173 0.03773 0.49109 0.0
C479 C 0.8112 0.13354 0.52473 0.0
C480 C 0.73771 0.90248 0.45684 0.0
C481 C 0.74796 0.93539 0.46537 0.0
C482 C 0.73654 0.96793 0.50584 0.0
C483 C 0.79125 0.06883 0.51905 0.0
C484 C 0.77089 0.03504 0.50854 0.0
C485 C 0.72526 0.93679 0.4779 0.0
C486 C 0.73867 0.97061 0.48839 0.0
H487 H 0.85691 0.10338 0.54939 0.0
H488 H 0.81767 0.04617 0.53438 0.0
H489 H 0.75142 0.99666 0.52918 0.0
H490 H 0.65463 0.84766 0.47539 0.0
H491 H 0.67281 0.90515 0.49051 0.0
C492 C 0.68141 0.81066 0.85705 0.0
C493 C 0.70499 0.83589 0.86904 0.0
C494 C 0.69205 0.78858 0.84816 0.0
C495 C 0.73753 0.77102 0.82333 0.0
H496 H 0.78613 0.72303 0.84404 0.0
C497 C 0.83814 0.73637 0.78887 0.0
C498 C 0.83689 0.70289 0.79246 0.0
C499 C 0.81566 0.74678 0.79746 0.0
C500 C 0.77225 0.7359 0.83805 0.0
H501 H 0.75735 0.85626 0.88168 0.0
H502 H 0.77531 0.81711 0.8666 0.0
H503 H 0.75864 0.75098 0.8614 0.0
H504 H 0.81013 0.65358 0.80762 0.0
H505 H 0.77112 0.67203 0.82282 0.0
H506 H 0.75237 0.75716 0.79998 0.0
C507 C 0.74875 0.81452 0.86393 0.0
C508 C 0.75674 0.75216 0.84801 0.0
C509 C 0.73845 0.83702 0.87258 0.0
C510 C 0.8115 0.67936 0.80442 0.0
C511 C 0.78943 0.69011 0.81325 0.0
C512 C 0.75357 0.75527 0.81337 0.0
C513 C 0.72617 0.79073 0.8513 0.0
C514 C 0.73954 0.77031 0.84078 0.0
C515 C 0.79176 0.7243 0.81009 0.0
C516 C 0.77151 0.73787 0.8206 0.0
H517 H 0.65563 0.80937 0.8539 0.0
H518 H 0.6739 0.77035 0.83858 0.0
H519 H 0.72481 0.78504 0.81735 0.0
H520 H 0.85753 0.75524 0.7798 0.0
H521 H 0.81838 0.77338 0.79477 0.0
C522 C 0.88002 0.68656 0.19723 0.0
C523 C 0.87251 0.71306 0.2041 0.0
C524 C 0.91201 0.6975 0.18765 0.0
C525 C 0.96747 0.7629 0.15758 0.0
H526 H 0.05623 0.76291 0.17131 0.0
C527 C 0.10589 0.85381 0.12458 0.0
C528 C 0.1332 0.84363 0.12409 0.0
C529 C 0.07289 0.8326 0.13324 0.0
C530 C 0.03148 0.76246 0.16706 0.0
H531 H 0.89362 0.77191 0.20663 0.0
H532 H 0.94848 0.79057 0.18973 0.0
H533 H 1.00152 0.73488 0.18925 0.0
H534 H 0.14635 0.80205 0.13193 0.0
H535 H 0.08802 0.76413 0.14666 0.0
H536 H 0.99651 0.78996 0.13541 0.0
C537 C 0.92984 0.76145 0.19189 0.0
C538 C 1.00021 0.74651 0.17742 0.0
C539 C 0.89838 0.75064 0.20163 0.0
C540 C 0.12589 0.81067 0.13198 0.0
C541 C 0.09255 0.78915 0.14061 0.0
C542 C 0.99836 0.77828 0.14713 0.0
C543 C 0.9367 0.73508 0.18459 0.0
C544 C 0.96823 0.74734 0.17291 0.0
C545 C 0.06575 0.80015 0.14161 0.0
C546 C 0.0313 0.77931 0.15188 0.0
H547 H 0.86064 0.65742 0.19881 0.0
H548 H 0.91672 0.67666 0.18208 0.0
H549 H 0.94305 0.76372 0.1538 0.0
H550 H 0.11051 0.87912 0.11878 0.0
H551 H 0.05364 0.84269 0.13388 0.0
C552 C 0.26909 0.10251 0.45741 0.0
C553 C 0.30246 0.13488 0.46101 0.0
C554 C 0.25881 0.0697 0.46602 0.0
C555 C 0.2505 0.99931 0.48193 0.0
H556 H 0.25535 0.00857 0.52996 0.0
C557 C 0.19494 0.8715 0.5254 0.0
C558 C 0.17011 0.87003 0.53757 0.0
C559 C 0.21708 0.90423 0.51652 0.0
C560 C 0.254 0.00551 0.51657 0.0
H561 H 0.35172 0.15775 0.47623 0.0
H562 H 0.33352 0.1004 0.49147 0.0
H563 H 0.28303 0.06403 0.51263 0.0
H564 H 0.15052 0.90232 0.55053 0.0
H565 H 0.18971 0.95939 0.53545 0.0
H566 H 0.22076 0.94079 0.48587 0.0
C567 C 0.3154 0.10048 0.48188 0.0
C568 C 0.27012 0.03731 0.50663 0.0
C569 C 0.326 0.13324 0.47303 0.0
C570 C 0.16945 0.90252 0.54129 0.0
C571 C 0.19198 0.9353 0.53265 0.0
C572 C 0.23486 0.96751 0.49187 0.0
C573 C 0.28134 0.06847 0.47869 0.0
C574 C 0.26794 0.03464 0.48918 0.0
C575 C 0.21537 0.93638 0.51984 0.0
C576 C 0.23575 0.97018 0.50933 0.0
H577 H 0.25022 0.10284 0.44828 0.0
H578 H 0.2323 0.04571 0.46331 0.0
H579 H 0.24848 0.99625 0.46854 0.0
H580 H 0.19588 0.8469 0.52211 0.0
H581 H 0.235 0.90419 0.50682 0.0
C582 C 0.26936 0.16758 0.87247 0.0
C583 C 0.30252 0.16824 0.86874 0.0
C584 C 0.25894 0.18988 0.86374 0.0
C585 C 0.25074 0.25175 0.84744 0.0
H586 H 0.25326 0.24475 0.79944 0.0
C587 C 0.19515 0.32352 0.80369 0.0
C588 C 0.16942 0.29975 0.7919 0.0
C589 C 0.21727 0.31283 0.81252 0.0
C590 C 0.25257 0.24719 0.81282 0.0
H591 H 0.35124 0.19374 0.85316 0.0
H592 H 0.33276 0.23242 0.8377 0.0
H593 H 0.28118 0.21729 0.81684 0.0
H594 H 0.14819 0.24699 0.77954 0.0
H595 H 0.18738 0.22892 0.79451 0.0
H596 H 0.22148 0.281 0.84344 0.0
C597 C 0.31494 0.21471 0.84749 0.0
C598 C 0.26882 0.23169 0.8228 0.0
C599 C 0.32571 0.19283 0.85646 0.0
C600 C 0.16783 0.26604 0.78848 0.0
C601 C 0.19035 0.25567 0.79707 0.0
C602 C 0.235 0.26775 0.83746 0.0
C603 C 0.28108 0.213 0.85082 0.0
C604 C 0.26749 0.23314 0.84025 0.0
C605 C 0.21465 0.27845 0.80952 0.0
C606 C 0.23507 0.26506 0.82003 0.0
H607 H 0.25076 0.14883 0.88179 0.0
H608 H 0.23259 0.18763 0.86657 0.0
H609 H 0.24936 0.25351 0.86083 0.0
H610 H 0.19682 0.3495 0.80674 0.0
H611 H 0.2359 0.33114 0.82194 0.0
C612 C 0.64409 0.59059 0.20642 0.0
C613 C 0.65854 0.60447 0.22225 0.0
C614 C 0.60645 0.56455 0.20453 0.0
C615 C 0.51916 0.53857 0.22601 0.0
H616 H 0.47505 0.4531 0.19713 0.0
C617 C 0.36918 0.42212 0.233 0.0
C618 C 0.34909 0.40289 0.2189 0.0
C619 C 0.40589 0.45018 0.23156 0.0
C620 C 0.48692 0.4773 0.20502 0.0
H621 H 0.64607 0.60041 0.24852 0.0
H622 H 0.58112 0.55431 0.24536 0.0
H623 H 0.54231 0.49191 0.19832 0.0
H624 H 0.35106 0.39804 0.19221 0.0
H625 H 0.41545 0.44781 0.18955 0.0
H626 H 0.46417 0.52409 0.23285 0.0
C627 C 0.5983 0.56393 0.23435 0.0
C628 C 0.52548 0.49938 0.20576 0.0
C629 C 0.6356 0.58989 0.2362 0.0
C630 C 0.36577 0.41328 0.20319 0.0
C631 C 0.40276 0.44126 0.20174 0.0
C632 C 0.48081 0.51669 0.22523 0.0
C633 C 0.58287 0.55223 0.21846 0.0
C634 C 0.54203 0.52975 0.21659 0.0
C635 C 0.42357 0.45931 0.21598 0.0
C636 C 0.46415 0.48528 0.21502 0.0
H637 H 0.66108 0.60205 0.19545 0.0
H638 H 0.59539 0.55602 0.19213 0.0
H639 H 0.53097 0.56241 0.23413 0.0
H640 H 0.35716 0.41381 0.24528 0.0
H641 H 0.42108 0.46301 0.24283 0.0
C642 C 0.0412 0.63454 0.56824 0.0
C643 C 0.04892 0.65638 0.55396 0.0
C644 C 0.03098 0.5974 0.56698 0.0
C645 C 0.02437 0.52431 0.53828 0.0
H646 H 0.94828 0.46094 0.56954 0.0
C647 C 0.95369 0.3637 0.53724 0.0
C648 C 0.95561 0.34902 0.55267 0.0
C649 C 0.96196 0.40053 0.53607 0.0
C650 C 0.96949 0.47825 0.56071 0.0
H651 H 0.05302 0.65705 0.52716 0.0
H652 H 0.03448 0.59159 0.52479 0.0
H653 H 0.97162 0.52704 0.56996 0.0
H654 H 0.9664 0.36047 0.57893 0.0
H655 H 0.97933 0.42401 0.57704 0.0
H656 H 0.02167 0.47489 0.52901 0.0
C657 C 0.03707 0.60332 0.53705 0.0
C658 C 0.98319 0.51627 0.56103 0.0
C659 C 0.0479 0.64086 0.53837 0.0
C660 C 0.96423 0.37107 0.56694 0.0
C661 C 0.9717 0.40743 0.56584 0.0
C662 C 0.0103 0.48606 0.53786 0.0
C663 C 0.0273 0.58082 0.55133 0.0
C664 C 0.01147 0.54001 0.55011 0.0
C665 C 0.97153 0.42289 0.55036 0.0
C666 C 0.98324 0.46274 0.54931 0.0
H667 H 0.04165 0.64592 0.5804 0.0
H668 H 0.02487 0.5814 0.5783 0.0
H669 H 0.04615 0.54162 0.5297 0.0
H670 H 0.94783 0.34739 0.52603 0.0
H671 H 0.96151 0.41172 0.52399 0.0
C672 C 0.41035 0.04643 0.87034 0.0
C673 C 0.39604 0.0482 0.88587 0.0
C674 C 0.43711 0.03562 0.86922 0.0
C675 C 0.47075 0.98303 0.8939 0.0
H676 H 0.54992 0.0197 0.86155 0.0
C677 C 0.59685 0.96378 0.90008 0.0
C678 C 0.60996 0.95446 0.88589 0.0
C679 C 0.56802 0.97133 0.89889 0.0
C680 C 0.52758 0.00883 0.87049 0.0
H681 H 0.39957 0.04222 0.91239 0.0
H682 H 0.44742 0.02549 0.91063 0.0
H683 H 0.50776 0.04432 0.86193 0.0
H684 H 0.60323 0.94547 0.85933 0.0
H685 H 0.55267 0.95929 0.85714 0.0
H686 H 0.49126 0.94847 0.9028 0.0
C687 C 0.43737 0.03103 0.89921 0.0
C688 C 0.50344 0.02298 0.87074 0.0
C689 C 0.41039 0.04123 0.90028 0.0
C690 C 0.59306 0.9519 0.87049 0.0
C691 C 0.56454 0.96024 0.86922 0.0
C692 C 0.495 0.96924 0.89375 0.0
C693 C 0.45007 0.02659 0.88365 0.0
C694 C 0.47508 0.01073 0.88267 0.0
C695 C 0.5521 0.97054 0.8834 0.0
C696 C 0.52402 0.98232 0.88222 0.0
H697 H 0.39908 0.05093 0.85903 0.0
H698 H 0.44608 0.03243 0.85702 0.0
H699 H 0.44858 0.97194 0.90293 0.0
H700 H 0.60982 0.96641 0.91205 0.0
H701 H 0.55933 0.9795 0.91001 0.0
C702 C 0.59546 0.6356 0.43076 0.0
C703 C 0.61052 0.6561 0.44531 0.0
C704 C 0.56835 0.59841 0.4316 0.0
C705 C 0.50349 0.52303 0.45994 0.0
H706 H 0.51384 0.46196 0.42655 0.0
C707 C 0.4141 0.36234 0.45928 0.0
C708 C 0.39642 0.34844 0.44397 0.0
C709 C 0.44258 0.3992 0.4606 0.0
C710 C 0.5106 0.47863 0.43597 0.0
H711 H 0.60886 0.65434 0.47217 0.0
H712 H 0.56164 0.58891 0.47377 0.0
H713 H 0.55646 0.52811 0.42671 0.0
H714 H 0.39527 0.36134 0.418 0.0
H715 H 0.4456 0.42491 0.42012 0.0
H716 H 0.4576 0.47293 0.46921 0.0
C717 C 0.57005 0.60169 0.46165 0.0
C718 C 0.53482 0.51668 0.43598 0.0
C719 C 0.59693 0.63922 0.46078 0.0
C720 C 0.40876 0.37133 0.4299 0.0
C721 C 0.43753 0.40772 0.43113 0.0
C722 C 0.4794 0.48475 0.46001 0.0
C723 C 0.55628 0.58049 0.44705 0.0
C724 C 0.53117 0.53961 0.44773 0.0
C725 C 0.45422 0.42239 0.44655 0.0
C726 C 0.4823 0.46224 0.44782 0.0
H727 H 0.60586 0.648 0.41869 0.0
H728 H 0.55772 0.58341 0.42007 0.0
H729 H 0.4997 0.5397 0.46915 0.0
H730 H 0.40459 0.34537 0.47035 0.0
H731 H 0.45506 0.40977 0.47262 0.0
C732 C 0.96384 0.59467 0.76248 0.0
C733 C 0.95704 0.60891 0.77697 0.0
C734 C 0.97395 0.56761 0.76342 0.0
C735 C 0.98205 0.50123 0.79162 0.0
H736 H 0.05684 0.51406 0.75957 0.0
C737 C 0.05323 0.41183 0.79166 0.0
C738 C 0.05096 0.39525 0.7762 0.0
C739 C 0.04487 0.44032 0.79298 0.0
C740 C 0.03599 0.51013 0.76861 0.0
H741 H 0.95459 0.60569 0.8038 0.0
H742 H 0.97285 0.5585 0.80558 0.0
H743 H 0.03318 0.55657 0.75957 0.0
H744 H 0.0395 0.39588 0.75001 0.0
H745 H 0.02639 0.44633 0.75216 0.0
H746 H 0.98541 0.45472 0.80066 0.0
C747 C 0.96958 0.5676 0.79342 0.0
C748 C 0.0221 0.53429 0.76853 0.0
C749 C 0.9589 0.59445 0.79244 0.0
C750 C 0.04194 0.40864 0.76202 0.0
C751 C 0.03436 0.43744 0.76328 0.0
C752 C 0.99628 0.47718 0.79178 0.0
C753 C 0.97845 0.55474 0.77892 0.0
C754 C 0.99432 0.52974 0.77978 0.0
C755 C 0.03483 0.45302 0.77881 0.0
C756 C 0.02291 0.48098 0.78006 0.0
H757 H 0.96288 0.60569 0.75041 0.0
H758 H 0.97942 0.55767 0.75195 0.0
H759 H 0.96065 0.49676 0.80043 0.0
H760 H 0.0594 0.40141 0.8028 0.0
H761 H 0.04557 0.45193 0.8051 0.0
C762 C 0.37013 0.95427 0.0953 0.0
C763 C 0.34861 0.94903 0.1095 0.0
C764 C 0.40753 0.96562 0.09676 0.0
C765 C 0.48289 0.97973 0.12527 0.0
H766 H 0.54189 0.05943 0.09466 0.0
C767 C 0.64292 0.05441 0.1256 0.0
C768 C 0.65822 0.05688 0.1098 0.0
C769 C 0.60596 0.0455 0.12719 0.0
C770 C 0.52589 0.03716 0.10327 0.0
H771 H 0.34868 0.9499 0.13638 0.0
H772 H 0.41444 0.9695 0.13902 0.0
H773 H 0.47502 0.03071 0.09419 0.0
H774 H 0.64782 0.05336 0.08336 0.0
H775 H 0.58405 0.03891 0.086 0.0
H776 H 0.53404 0.98591 0.13412 0.0
C777 C 0.40223 0.96441 0.12675 0.0
C778 C 0.48749 0.02053 0.10295 0.0
C779 C 0.36454 0.95283 0.12527 0.0
C780 C 0.63683 0.05247 0.09566 0.0
C781 C 0.60021 0.04402 0.09721 0.0
C782 C 0.52149 0.99637 0.12555 0.0
C783 C 0.42445 0.97253 0.11246 0.0
C784 C 0.46543 0.99106 0.11367 0.0
C785 C 0.58389 0.0392 0.11298 0.0
C786 C 0.5434 0.02481 0.11431 0.0
H787 H 0.35854 0.95203 0.08302 0.0
H788 H 0.42364 0.97076 0.08551 0.0
H789 H 0.4667 0.95718 0.13372 0.0
H790 H 0.65865 0.05673 0.13669 0.0
H791 H 0.5943 0.04228 0.13951 0.0
C792 C 0.22275 0.01127 0.12992 0.0
C793 C 0.24622 0.99931 0.13616 0.0
C794 C 0.22131 0.04039 0.13742 0.0
C795 C 0.24477 0.09558 0.17579 0.0
H796 H 0.24171 0.16766 0.14651 0.0
C797 C 0.22585 0.21287 0.20085 0.0
C798 C 0.2483 0.24796 0.19403 0.0
C799 C 0.22424 0.18204 0.19356 0.0
C800 C 0.24294 0.14798 0.15484 0.0
H801 H 0.28476 0.00601 0.15558 0.0
H802 H 0.28338 0.0583 0.16861 0.0
H803 H 0.24038 0.11364 0.1348 0.0
H804 H 0.2848 0.27881 0.17383 0.0
H805 H 0.2829 0.2246 0.16107 0.0
H806 H 0.24537 0.12899 0.19585 0.0
C807 C 0.26586 0.04503 0.15796 0.0
C808 C 0.24207 0.11691 0.14814 0.0
C809 C 0.26688 0.01539 0.15053 0.0
C810 C 0.26775 0.25185 0.17933 0.0
C811 C 0.26646 0.2209 0.17206 0.0
C812 C 0.24489 0.12627 0.1825 0.0
C813 C 0.24342 0.05813 0.1513 0.0
C814 C 0.24352 0.09064 0.15852 0.0
C815 C 0.24503 0.18578 0.17927 0.0
C816 C 0.24448 0.15304 0.1721 0.0
H817 H 0.20578 0.99832 0.11907 0.0
H818 H 0.203 0.0491 0.13225 0.0
H819 H 0.24501 0.07541 0.18414 0.0
H820 H 0.20976 0.20933 0.21197 0.0
H821 H 0.20674 0.1553 0.19916 0.0
C822 C 0.00457 0.21396 0.52923 0.0
C823 C 0.99527 0.2399 0.52359 0.0
C824 C 0.03308 0.21137 0.52176 0.0
C825 C 0.0854 0.20114 0.49988 0.0
H826 H 0.17589 0.29413 0.49346 0.0
C827 C 0.21193 0.21328 0.46684 0.0
C828 C 0.247 0.23946 0.47256 0.0
C829 C 0.18059 0.21091 0.47394 0.0
C830 C 0.15088 0.26797 0.49529 0.0
H831 H 0.00552 0.28124 0.50501 0.0
H832 H 0.05636 0.27709 0.49179 0.0
H833 H 0.11962 0.29409 0.50117 0.0
H834 H 0.27754 0.28152 0.49096 0.0
H835 H 0.22214 0.27773 0.50353 0.0
H836 H 0.11653 0.175 0.49376 0.0
C837 C 0.04192 0.25921 0.50219 0.0
C838 C 0.11857 0.26794 0.49948 0.0
C839 C 0.01296 0.26155 0.50964 0.0
C840 C 0.25054 0.26162 0.48625 0.0
C841 C 0.21902 0.2595 0.49333 0.0
C842 C 0.11751 0.20116 0.49536 0.0
C843 C 0.05264 0.23457 0.50843 0.0
C844 C 0.08567 0.23454 0.50206 0.0
C845 C 0.18383 0.23458 0.48698 0.0
C846 C 0.15056 0.23458 0.49303 0.0
H847 H 0.99053 0.19647 0.5398 0.0
H848 H 0.04092 0.19242 0.52696 0.0
H849 H 0.06034 0.17497 0.50171 0.0
H850 H 0.20881 0.19541 0.45647 0.0
H851 H 0.15395 0.19171 0.46867 0.0
C852 C 0.99324 0.25059 0.81919 0.0
C853 C 0.01081 0.24644 0.80523 0.0
C854 C 0.96418 0.21942 0.82666 0.0
C855 C 0.92041 0.11791 0.82911 0.0
H856 H 0.83012 0.12076 0.83568 0.0
C857 C 0.79443 0.00442 0.86275 0.0
C858 C 0.75926 0.99533 0.85707 0.0
C859 C 0.82564 0.03326 0.85551 0.0
C860 C 0.85508 0.11952 0.83381 0.0
H861 H 0.01521 0.20755 0.78903 0.0
H862 H 0.96466 0.15332 0.80192 0.0
H863 H 0.88639 0.17681 0.82777 0.0
H864 H 0.72842 0.00638 0.83865 0.0
H865 H 0.78362 0.05778 0.82583 0.0
H866 H 0.88926 0.06075 0.83542 0.0
C867 C 0.97267 0.18016 0.8071 0.0
C868 C 0.88738 0.1517 0.8295 0.0
C869 C 1.00127 0.21114 0.79961 0.0
C870 C 0.7555 0.01364 0.84331 0.0
C871 C 0.7869 0.04292 0.83609 0.0
C872 C 0.88832 0.08594 0.83376 0.0
C873 C 0.95325 0.18399 0.82044 0.0
C874 C 0.92021 0.15106 0.82688 0.0
C875 C 0.82218 0.05336 0.84238 0.0
C876 C 0.85536 0.08646 0.83615 0.0
H877 H 1.00086 0.27778 0.8238 0.0
H878 H 0.94985 0.22301 0.83707 0.0
H879 H 0.94542 0.1167 0.82726 0.0
H880 H 0.79773 0.98993 0.87317 0.0
H881 H 0.85237 0.04086 0.86072 0.0
C882 C 0.77964 0.98942 0.13019 0.0
C883 C 0.75699 0.00229 0.13654 0.0
C884 C 0.78046 0.96 0.13771 0.0
C885 C 0.75912 0.90699 0.17645 0.0
H886 H 0.75836 0.83238 0.14756 0.0
C887 C 0.78187 0.79197 0.2015 0.0
C888 C 0.75863 0.75633 0.19541 0.0
C889 C 0.7822 0.82211 0.19412 0.0
C890 C 0.75819 0.85276 0.15579 0.0
H891 H 0.71933 0.99687 0.15616 0.0
H892 H 0.71989 0.94421 0.16932 0.0
H893 H 0.75855 0.88561 0.13554 0.0
H894 H 0.71938 0.72377 0.17634 0.0
H895 H 0.71912 0.77675 0.16343 0.0
H896 H 0.76092 0.8752 0.1967 0.0
C897 C 0.73705 0.95691 0.15852 0.0
C898 C 0.75838 0.88335 0.14891 0.0
C899 C 0.73654 0.98677 0.15102 0.0
C900 C 0.73706 0.75117 0.1813 0.0
C901 C 0.73711 0.78141 0.17393 0.0
C902 C 0.75971 0.87679 0.18334 0.0
C903 C 0.75868 0.94297 0.15176 0.0
C904 C 0.75845 0.91057 0.15915 0.0
C905 C 0.75938 0.81712 0.18044 0.0
C906 C 0.75883 0.84916 0.17309 0.0
H907 H 0.7965 1.00194 0.11927 0.0
H908 H 0.79813 0.95056 0.13247 0.0
H909 H 0.76002 0.92792 0.18467 0.0
H910 H 0.79956 0.79646 0.21212 0.0
H911 H 0.80034 0.84932 0.19914 0.0
C912 C 0.75348 0.74467 0.4891 0.0
C913 C 0.75785 0.76612 0.47503 0.0
C914 C 0.78457 0.74724 0.49688 0.0
C915 C 0.85241 0.73855 0.50009 0.0
H916 H 0.94348 0.83141 0.50575 0.0
C917 C 0.99072 0.74458 0.51268 0.0
C918 C 0.00962 0.7666 0.52636 0.0
C919 C 0.96124 0.74683 0.50578 0.0
C920 C 0.91825 0.80528 0.50417 0.0
H921 H 0.797 0.80946 0.45891 0.0
H922 H 0.85109 0.81392 0.4723 0.0
H923 H 0.88736 0.83153 0.49778 0.0
H924 H 0.01588 0.81055 0.54263 0.0
H925 H 0.96457 0.8145 0.53073 0.0
H926 H 0.88349 0.7123 0.50605 0.0
C927 C 0.82414 0.79496 0.47737 0.0
C928 C 0.88618 0.80534 0.49964 0.0
C929 C 0.79325 0.79213 0.46958 0.0
C930 C 1.00092 0.79279 0.53226 0.0
C931 C 0.97187 0.7953 0.52534 0.0
C932 C 0.88468 0.73847 0.50425 0.0
C933 C 0.82013 0.77193 0.49083 0.0
C934 C 0.85301 0.77197 0.49745 0.0
C935 C 0.95116 0.77173 0.51232 0.0
C936 C 0.91781 0.77183 0.50646 0.0
H937 H 0.7262 0.72491 0.49358 0.0
H938 H 0.78084 0.72946 0.50736 0.0
H939 H 0.82729 0.71242 0.49841 0.0
H940 H 0.99767 0.72467 0.50785 0.0
H941 H 0.94593 0.7287 0.49559 0.0
C942 C 0.24994 0.9893 0.84411 0.0
C943 C 0.24663 0.00815 0.85777 0.0
C944 C 0.21829 0.95985 0.83715 0.0
C945 C 0.11685 0.91699 0.8353 0.0
H946 H 0.11864 0.82599 0.82956 0.0
C947 C 0.01232 0.75228 0.82049 0.0
C948 C 0.99503 0.75656 0.80647 0.0
C949 C 0.04104 0.78339 0.82816 0.0
C950 C 0.11767 0.85113 0.83124 0.0
H951 H 0.20872 0.01434 0.87392 0.0
H952 H 0.15363 0.96309 0.86191 0.0
H953 H 0.17498 0.8821 0.83729 0.0
H954 H 0.9907 0.7956 0.79034 0.0
H955 H 0.0407 0.84973 0.80354 0.0
H956 H 0.0597 0.88618 0.82889 0.0
C957 C 0.1802 0.9704 0.85659 0.0
C958 C 0.15002 0.88334 0.83543 0.0
C959 C 0.21166 0.99942 0.86357 0.0
C960 C 0.00444 0.79191 0.80097 0.0
C961 C 0.03272 0.82283 0.80865 0.0
C962 C 0.0847 0.88496 0.83076 0.0
C963 C 0.18321 0.94975 0.84359 0.0
C964 C 0.14983 0.91648 0.83764 0.0
C965 C 0.05192 0.81889 0.82204 0.0
C966 C 0.08486 0.85178 0.82859 0.0
H967 H 0.27686 0.99628 0.83934 0.0
H968 H 0.22124 0.94458 0.82697 0.0
H969 H 0.11596 0.94222 0.83687 0.0
H970 H 0.00478 0.72503 0.82501 0.0
H971 H 0.05521 0.77971 0.8386 0.0
C972 C 0.34144 0.26302 0.38471 0.0
C973 C 0.3152 0.23252 0.39378 0.0
C974 C 0.33375 0.2691 0.36847 0.0
C975 C 0.2506 0.24945 0.345 0.0
H976 H 0.32069 0.30582 0.3104 0.0
C977 C 0.21397 0.28342 0.28012 0.0
C978 C 0.24082 0.31588 0.27238 0.0
C979 C 0.22 0.27444 0.29614 0.0
C980 C 0.30087 0.29058 0.32009 0.0
H981 H 0.26263 0.18205 0.39241 0.0
H982 H 0.24984 0.19153 0.36378 0.0
H983 H 0.34008 0.28202 0.33355 0.0
H984 H 0.29237 0.36663 0.27599 0.0
H985 H 0.30211 0.35197 0.30422 0.0
H986 H 0.21135 0.25791 0.3314 0.0
C987 C 0.27587 0.21147 0.36932 0.0
C988 C 0.31195 0.27666 0.3333 0.0
C989 C 0.28361 0.20549 0.38557 0.0
C990 C 0.27095 0.34169 0.28179 0.0
C991 C 0.27698 0.33283 0.29779 0.0
C992 C 0.23946 0.26323 0.33172 0.0
C993 C 0.29968 0.24461 0.36103 0.0
C994 C 0.28706 0.25612 0.34601 0.0
C995 C 0.25291 0.29798 0.30465 0.0
C996 C 0.26459 0.28432 0.3192 0.0
H997 H 0.36557 0.28471 0.39089 0.0
H998 H 0.35284 0.29491 0.36252 0.0
H999 H 0.23083 0.23447 0.35474 0.0
H1000 H 0.19093 0.26271 0.27299 0.0
H1001 H 0.20079 0.24745 0.30108 0.0
C1002 C 0.92985 0.26582 0.61241 0.0
C1003 C 0.92482 0.23508 0.6033 0.0
C1004 C 0.94389 0.27174 0.6286 0.0
C1005 C 0.00653 0.2507 0.652 0.0
H1006 H 0.99303 0.30639 0.687 0.0
C1007 C 0.07479 0.27949 0.71717 0.0
C1008 C 0.08093 0.31161 0.72543 0.0
C1009 C 0.0603 0.27197 0.70104 0.0
C1010 C 0.99758 0.29137 0.6772 0.0
H1011 H 0.9263 0.18428 0.60452 0.0
H1012 H 0.94908 0.19351 0.63307 0.0
H1013 H 0.95046 0.28415 0.66358 0.0
H1014 H 0.08105 0.36301 0.72271 0.0
H1015 H 0.05739 0.35084 0.69431 0.0
H1016 H 0.05357 0.25779 0.66573 0.0
C1017 C 0.94326 0.21369 0.6276 0.0
C1018 C 0.97292 0.27834 0.66383 0.0
C1019 C 0.92925 0.20786 0.6114 0.0
C1020 C 0.07727 0.33838 0.7165 0.0
C1021 C 0.06278 0.33093 0.70039 0.0
C1022 C 0.03112 0.26363 0.66541 0.0
C1023 C 0.95307 0.24689 0.63596 0.0
C1024 C 0.97711 0.25793 0.65101 0.0
C1025 C 0.05178 0.29656 0.69294 0.0
C1026 C 0.02712 0.28437 0.67812 0.0
H1027 H 0.92759 0.28767 0.6063 0.0
H1028 H 0.95102 0.29761 0.6346 0.0
H1029 H 0.01122 0.23585 0.64217 0.0
H1030 H 0.07655 0.25803 0.72393 0.0
H1031 H 0.05228 0.24528 0.69568 0.0
C1032 C 0.79594 0.07231 0.05021 0.0
C1033 C 0.76955 0.07881 0.05784 0.0
C1034 C 0.7899 0.05747 0.03415 0.0
C1035 C 0.70891 0.99429 0.01 0.0
H1036 H 0.77856 0.00732 0.9753 0.0
C1037 C 0.66693 0.92636 0.94542 0.0
C1038 C 0.69276 0.92171 0.9362 0.0
C1039 C 0.67506 0.94017 0.96163 0.0
C1040 C 0.75888 0.00276 0.98505 0.0
H1041 H 0.71891 0.0797 0.054 0.0
H1042 H 0.70912 0.05548 0.02574 0.0
H1043 H 0.79867 0.05001 -0.00125 0.0
H1044 H 0.74516 0.92338 0.93728 0.0
H1045 H 0.75869 0.94566 0.9659 0.0
H1046 H 0.66918 0.94693 0.99649 0.0
C1047 C 0.73392 0.06073 0.03226 0.0
C1048 C 0.77039 0.02757 0.99839 0.0
C1049 C 0.73999 0.07552 0.0483 0.0
C1050 C 0.72446 0.92608 0.94424 0.0
C1051 C 0.73264 0.93983 0.96048 0.0
C1052 C 0.69747 0.96937 0.99675 0.0
C1053 C 0.75741 0.04912 0.02551 0.0
C1054 C 0.74541 0.02388 0.01092 0.0
C1055 C 0.70919 0.94943 0.96893 0.0
C1056 C 0.72219 0.97341 0.98401 0.0
H1057 H 0.8185 0.07382 0.05744 0.0
H1058 H 0.80864 0.04901 0.02928 0.0
H1059 H 0.6892 0.99 0.0197 0.0
H1060 H 0.64275 0.9241 0.93936 0.0
H1061 H 0.65625 0.94713 0.9677 0.0
C1062 C 0.80141 0.72226 0.28098 0.0
C1063 C 0.77414 0.69003 0.27327 0.0
C1064 C 0.7963 0.73077 0.29724 0.0
C1065 C 0.73318 0.69593 0.33408 0.0
H1066 H 0.75043 0.79602 0.33502 0.0
C1067 C 0.66912 0.73874 0.38549 0.0
C1068 C 0.69512 0.76952 0.39451 0.0
C1069 C 0.67752 0.73183 0.36954 0.0
C1070 C 0.74553 0.76805 0.33496 0.0
H1071 H 0.72273 0.63929 0.27707 0.0
H1072 H 0.7141 0.65334 0.30544 0.0
H1073 H 0.77327 0.77581 0.31172 0.0
H1074 H 0.74823 0.8194 0.39327 0.0
H1075 H 0.76257 0.8081 0.36525 0.0
H1076 H 0.70495 0.68805 0.3572 0.0
C1077 C 0.73938 0.6724 0.2991 0.0
C1078 C 0.759 0.75652 0.32171 0.0
C1079 C 0.74457 0.66396 0.28286 0.0
C1080 C 0.72735 0.7959 0.38644 0.0
C1081 C 0.73579 0.78907 0.37046 0.0
C1082 C 0.71954 0.70739 0.34726 0.0
C1083 C 0.76387 0.70705 0.30604 0.0
C1084 C 0.75287 0.72023 0.32104 0.0
C1085 C 0.71205 0.7557 0.36234 0.0
C1086 C 0.72527 0.74349 0.34781 0.0
H1087 H 0.82414 0.74311 0.27375 0.0
H1088 H 0.81627 0.75726 0.30238 0.0
H1089 H 0.72825 0.66796 0.3341 0.0
H1090 H 0.64443 0.71761 0.39157 0.0
H1091 H 0.65826 0.70629 0.36343 0.0
C1092 C 0.08142 0.74089 0.6136 0.0
C1093 C 0.08535 0.77158 0.6048 0.0
C1094 C 0.06718 0.73387 0.62977 0.0
C1095 C 0.03602 0.7697 0.66491 0.0
H1096 H 0.95419 0.66907 0.66622 0.0
C1097 C 0.93225 0.72435 0.71812 0.0
C1098 C 0.92706 0.69247 0.72627 0.0
C1099 C 0.94689 0.73251 0.70203 0.0
C1100 C 0.97697 0.69719 0.66612 0.0
H1101 H 0.08222 0.82142 0.60664 0.0
H1102 H 0.05839 0.80991 0.63494 0.0
H1103 H 0.99736 0.68923 0.64303 0.0
H1104 H 0.92909 0.64221 0.72343 0.0
H1105 H 0.9536 0.65568 0.69529 0.0
H1106 H 0.01576 0.77761 0.68805 0.0
C1107 C 0.06589 0.79097 0.62944 0.0
C1108 C 1.00198 0.7087 0.65289 0.0
C1109 C 0.08016 0.79794 0.61328 0.0
C1110 C 0.93194 0.66653 0.71726 0.0
C1111 C 0.94661 0.67463 0.70118 0.0
C1112 C 0.01105 0.75815 0.67818 0.0
C1113 C 0.05678 0.75754 0.63738 0.0
C1114 C 0.03192 0.74506 0.65214 0.0
C1115 C 0.95657 0.70886 0.69383 0.0
C1116 C 0.98118 0.72172 0.67897 0.0
H1117 H 0.08456 0.7198 0.60725 0.0
H1118 H 0.06139 0.70833 0.63573 0.0
H1119 H 0.05877 0.79783 0.66474 0.0
H1120 H 0.9294 0.74514 0.72491 0.0
H1121 H 0.9533 0.75868 0.69655 0.0
C1122 C 0.2112 0.93122 0.04946 0.0
C1123 C 0.23749 0.92488 0.05729 0.0
C1124 C 0.21773 0.94635 0.03345 0.0
C1125 C 0.29946 0.01028 0.00978 0.0
H1126 H 0.2303 0.9981 0.97499 0.0
C1127 C 0.34174 0.07938 0.9454 0.0
C1128 C 0.31586 0.08417 0.93628 0.0
C1129 C 0.3337 0.06543 0.9616 0.0
C1130 C 0.24984 0.00241 0.98477 0.0
H1131 H 0.28854 0.92459 0.05385 0.0
H1132 H 0.29919 0.94927 0.02565 0.0
H1133 H 0.20988 0.95478 0.99819 0.0
H1134 H 0.26369 0.08293 0.93758 0.0
H1135 H 0.25032 0.06036 0.96615 0.0
H1136 H 0.33937 0.05797 0.9965 0.0
C1137 C 0.27409 0.9437 0.03199 0.0
C1138 C 0.23816 0.97725 0.99797 0.0
C1139 C 0.26752 0.92863 0.04798 0.0
C1140 C 0.28439 0.08006 0.94445 0.0
C1141 C 0.2763 0.06615 0.96067 0.0
C1142 C 0.31108 0.03552 0.99665 0.0
C1143 C 0.25062 0.95516 0.02506 0.0
C1144 C 0.26294 0.98066 0.01054 0.0
C1145 C 0.29965 0.05622 0.96897 0.0
C1146 C 0.28652 0.03182 0.9839 0.0
H1147 H 0.18826 0.92934 0.05651 0.0
H1148 H 0.19898 0.95468 0.02845 0.0
H1149 H 0.31902 0.01437 0.01952 0.0
H1150 H 0.36576 0.0815 0.93925 0.0
H1151 H 0.35244 0.05826 0.96756 0.0
loop_
_geom_bond_atom_site_label_1
_geom_bond_atom_site_label_2
_geom_bond_distance
_geom_bond_site_symmetry_2
_ccdc_geom_bond_type
Mn0 O5 2.095 . S
Mn0 O15 2.162 . S
Mn0 O16 2.297 . S
Mn0 O24 2.385 . S
Mn0 O25 2.209 . S
Mn0 O26 2.094 . S
Mn1 O6 2.121 . S
Mn1 N8 2.257 . S
Mn1 N17 2.282 . S
Mn1 O25 2.215 . S
Mn1 O27 2.117 . S
C2 O24 1.234 . S
C2 O25 1.283 . S
C3 O15 1.281 . S
C3 O16 1.236 . S
C4 O26 1.240 . S
C4 O27 1.264 . S
O5 Mn0 2.095 . S
O5 C14 1.250 . S
O6 Mn1 2.121 . S
O6 C14 1.258 . S
C7 N8 1.326 . S
C7 C11 1.460 . S
C7 H13 0.929 . S
N8 Mn1 2.257 . S
N8 C7 1.326 . S
N8 C12 1.362 . S
C9 C10 1.258 . S
C9 C12 1.431 . S
C9 C29 1.449 . S
C10 C9 1.258 . S
C10 C11 1.477 . S
C10 H30 0.931 . S
C11 C7 1.460 . S
C11 C10 1.477 . S
C11 H31 0.930 . S
C12 N8 1.362 . S
C12 C9 1.431 . S
C12 C22 1.476 . S
H13 C7 0.929 . S
C14 O5 1.250 . S
C14 O6 1.258 . S
O15 Mn0 2.162 . S
O15 C3 1.281 . S
O16 Mn0 2.297 . S
O16 C3 1.236 . S
N17 Mn1 2.282 . S
N17 C18 1.328 . S
N17 C22 1.318 . S
C18 N17 1.328 . S
C18 C19 1.457 . S
C18 H23 0.929 . S
C19 C18 1.457 . S
C19 C20 1.291 . S
C19 H32 0.931 . S
C20 C19 1.291 . S
C20 C21 1.373 . S
C20 H33 0.929 . S
C21 C20 1.373 . S
C21 C22 1.396 . S
C21 C28 1.403 . S
C22 C12 1.476 . S
C22 N17 1.318 . S
C22 C21 1.396 . S
H23 C18 0.929 . S
O24 Mn0 2.385 . S
O24 C2 1.234 . S
O25 Mn0 2.209 . S
O25 Mn1 2.215 . S
O25 C2 1.283 . S
O26 Mn0 2.094 . S
O26 C4 1.240 . S
O27 Mn1 2.117 . S
O27 C4 1.264 . S
C28 C21 1.403 . S
C28 C29 1.399 . S
C28 H34 0.929 . S
C29 C9 1.449 . S
C29 C28 1.399 . S
C29 H35 0.930 . S
H30 C10 0.931 . S
H31 C11 0.930 . S
H32 C19 0.931 . S
H33 C20 0.929 . S
H34 C28 0.929 . S
H35 C29 0.930 . S
Mn36 O41 2.095 . S
Mn36 O51 2.162 . S
Mn36 O52 2.297 . S
Mn36 O60 2.385 . S
Mn36 O61 2.209 1_655 S
Mn36 O62 2.094 . S
Mn37 O42 2.121 1_455 S
Mn37 N44 2.257 . S
Mn37 N53 2.282 . S
Mn37 O61 2.215 . S
Mn37 O63 2.117 1_455 S
C38 O60 1.234 1_455 S
C38 O61 1.283 . S
C39 O51 1.281 . S
C39 O52 1.236 . S
C40 O62 1.240 . S
C40 O63 1.264 . S
O41 Mn36 2.095 . S
O41 C50 1.250 . S
O42 Mn37 2.121 1_655 S
O42 C50 1.258 . S
C43 N44 1.326 . S
C43 C47 1.460 . S
C43 H49 0.929 . S
N44 Mn37 2.257 . S
N44 C43 1.326 . S
N44 C48 1.362 . S
C45 C46 1.258 . S
C45 C48 1.431 . S
C45 C65 1.449 . S
C46 C45 1.258 . S
C46 C47 1.477 . S
C46 H66 0.931 . S
C47 C43 1.460 . S
C47 C46 1.477 . S
C47 H67 0.930 . S
C48 N44 1.362 . S
C48 C45 1.431 . S
C48 C58 1.476 . S
H49 C43 0.929 . S
C50 O41 1.250 . S
C50 O42 1.258 . S
O51 Mn36 2.162 . S
O51 C39 1.281 . S
O52 Mn36 2.297 . S
O52 C39 1.236 . S
N53 Mn37 2.282 . S
N53 C54 1.328 . S
N53 C58 1.318 . S
C54 N53 1.328 . S
C54 C55 1.457 . S
C54 H59 0.929 . S
C55 C54 1.457 . S
C55 C56 1.291 . S
C55 H68 0.931 . S
C56 C55 1.291 . S
C56 C57 1.373 . S
C56 H69 0.929 . S
C57 C56 1.373 . S
C57 C58 1.396 . S
C57 C64 1.403 . S
C58 C48 1.476 . S
C58 N53 1.318 . S
C58 C57 1.396 . S
H59 C54 0.929 . S
O60 Mn36 2.385 . S
O60 C38 1.234 1_655 S
O61 Mn36 2.209 1_455 S
O61 Mn37 2.215 . S
O61 C38 1.283 . S
O62 Mn36 2.094 . S
O62 C40 1.240 . S
O63 Mn37 2.117 1_655 S
O63 C40 1.264 . S
C64 C57 1.403 . S
C64 C65 1.399 . S
C64 H70 0.929 . S
C65 C45 1.449 . S
C65 C64 1.399 . S
C65 H71 0.930 . S
H66 C46 0.931 . S
H67 C47 0.930 . S
H68 C55 0.931 . S
H69 C56 0.929 . S
H70 C64 0.929 . S
H71 C65 0.930 . S
Mn72 O77 2.095 . S
Mn72 O87 2.162 . S
Mn72 O88 2.297 . S
Mn72 O96 2.385 . S
Mn72 O97 2.209 1_565 S
Mn72 O98 2.094 . S
Mn73 O78 2.121 1_545 S
Mn73 N80 2.257 . S
Mn73 N89 2.282 . S
Mn73 O97 2.215 . S
Mn73 O99 2.117 1_545 S
C74 O96 1.234 1_545 S
C74 O97 1.283 . S
C75 O87 1.281 . S
C75 O88 1.236 . S
C76 O98 1.240 . S
C76 O99 1.264 . S
O77 Mn72 2.095 . S
O77 C86 1.250 . S
O78 Mn73 2.121 1_565 S
O78 C86 1.258 . S
C79 N80 1.326 . S
C79 C83 1.460 . S
C79 H85 0.929 . S
N80 Mn73 2.257 . S
N80 C79 1.326 . S
N80 C84 1.362 . S
C81 C82 1.258 . S
C81 C84 1.431 . S
C81 C101 1.449 . S
C82 C81 1.258 . S
C82 C83 1.477 . S
C82 H102 0.931 . S
C83 C79 1.460 . S
C83 C82 1.477 . S
C83 H103 0.930 . S
C84 N80 1.362 . S
C84 C81 1.431 . S
C84 C94 1.476 . S
H85 C79 0.929 . S
C86 O77 1.250 . S
C86 O78 1.258 . S
O87 Mn72 2.162 . S
O87 C75 1.281 . S
O88 Mn72 2.297 . S
O88 C75 1.236 . S
N89 Mn73 2.282 . S
N89 C90 1.328 . S
N89 C94 1.318 . S
C90 N89 1.328 . S
C90 C91 1.457 . S
C90 H95 0.929 . S
C91 C90 1.457 . S
C91 C92 1.291 . S
C91 H104 0.931 . S
C92 C91 1.291 . S
C92 C93 1.373 . S
C92 H105 0.929 . S
C93 C92 1.373 . S
C93 C94 1.396 . S
C93 C100 1.403 . S
C94 C84 1.476 . S
C94 N89 1.318 . S
C94 C93 1.396 . S
H95 C90 0.929 . S
O96 Mn72 2.385 . S
O96 C74 1.234 1_565 S
O97 Mn72 2.209 1_545 S
O97 Mn73 2.215 . S
O97 C74 1.283 . S
O98 Mn72 2.094 . S
O98 C76 1.240 . S
O99 Mn73 2.117 1_565 S
O99 C76 1.264 . S
C100 C93 1.403 . S
C100 C101 1.399 . S
C100 H106 0.929 . S
C101 C81 1.449 . S
C101 C100 1.399 . S
C101 H107 0.930 . S
H102 C82 0.931 . S
H103 C83 0.930 . S
H104 C91 0.931 . S
H105 C92 0.929 . S
H106 C100 0.929 . S
H107 C101 0.930 . S
Mn108 O113 2.095 . S
Mn108 O123 2.162 . S
Mn108 O124 2.297 . S
Mn108 O132 2.385 . S
Mn108 O133 2.209 . S
Mn108 O134 2.094 . S
Mn109 O114 2.121 . S
Mn109 N116 2.257 . S
Mn109 N125 2.282 . S
Mn109 O133 2.215 . S
Mn109 O135 2.117 . S
C110 O132 1.234 . S
C110 O133 1.283 . S
C111 O123 1.281 . S
C111 O124 1.236 . S
C112 O134 1.240 . S
C112 O135 1.264 . S
O113 Mn108 2.095 . S
O113 C122 1.250 . S
O114 Mn109 2.121 . S
O114 C122 1.258 . S
C115 N116 1.326 . S
C115 C119 1.460 . S
C115 H121 0.929 . S
N116 Mn109 2.257 . S
N116 C115 1.326 . S
N116 C120 1.362 . S
C117 C118 1.258 . S
C117 C120 1.431 . S
C117 C137 1.449 . S
C118 C117 1.258 . S
C118 C119 1.477 . S
C118 H138 0.931 . S
C119 C115 1.460 . S
C119 C118 1.477 . S
C119 H139 0.930 . S
C120 N116 1.362 . S
C120 C117 1.431 . S
C120 C130 1.476 . S
H121 C115 0.929 . S
C122 O113 1.250 . S
C122 O114 1.258 . S
O123 Mn108 2.162 . S
O123 C111 1.281 . S
O124 Mn108 2.297 . S
O124 C111 1.236 . S
N125 Mn109 2.282 . S
N125 C126 1.328 . S
N125 C130 1.318 . S
C126 N125 1.328 . S
C126 C127 1.457 . S
C126 H131 0.929 . S
C127 C126 1.457 . S
C127 C128 1.291 . S
C127 H140 0.931 . S
C128 C127 1.291 . S
C128 C129 1.373 . S
C128 H141 0.929 . S
C129 C128 1.373 . S
C129 C130 1.396 . S
C129 C136 1.403 . S
C130 C120 1.476 . S
C130 N125 1.318 . S
C130 C129 1.396 . S
H131 C126 0.929 . S
O132 Mn108 2.385 . S
O132 C110 1.234 . S
O133 Mn108 2.209 . S
O133 Mn109 2.215 . S
O133 C110 1.283 . S
O134 Mn108 2.094 . S
O134 C112 1.240 . S
O135 Mn109 2.117 . S
O135 C112 1.264 . S
C136 C129 1.403 . S
C136 C137 1.399 . S
C136 H142 0.929 . S
C137 C117 1.449 . S
C137 C136 1.399 . S
C137 H143 0.930 . S
H138 C118 0.931 . S
H139 C119 0.930 . S
H140 C127 0.931 . S
H141 C128 0.929 . S
H142 C136 0.929 . S
H143 C137 0.930 . S
Mn144 O149 2.095 . S
Mn144 O159 2.162 . S
Mn144 O160 2.297 . S
Mn144 O168 2.385 . S
Mn144 O169 2.209 1_455 S
Mn144 O170 2.094 . S
Mn145 O150 2.121 1_655 S
Mn145 N152 2.257 . S
Mn145 N161 2.282 . S
Mn145 O169 2.215 . S
Mn145 O171 2.117 1_655 S
C146 O168 1.234 1_655 S
C146 O169 1.283 . S
C147 O159 1.281 . S
C147 O160 1.236 . S
C148 O170 1.240 . S
C148 O171 1.264 . S
O149 Mn144 2.095 . S
O149 C158 1.250 . S
O150 Mn145 2.121 1_455 S
O150 C158 1.258 . S
C151 N152 1.326 . S
C151 C155 1.460 . S
C151 H157 0.929 . S
N152 Mn145 2.257 . S
N152 C151 1.326 . S
N152 C156 1.362 . S
C153 C154 1.258 . S
C153 C156 1.431 . S
C153 C173 1.449 . S
C154 C153 1.258 . S
C154 C155 1.477 . S
C154 H174 0.931 . S
C155 C151 1.460 . S
C155 C154 1.477 . S
C155 H175 0.930 . S
C156 N152 1.362 . S
C156 C153 1.431 . S
C156 C166 1.476 . S
H157 C151 0.929 . S
C158 O149 1.250 . S
C158 O150 1.258 . S
O159 Mn144 2.162 . S
O159 C147 1.281 . S
O160 Mn144 2.297 . S
O160 C147 1.236 . S
N161 Mn145 2.282 . S
N161 C162 1.328 . S
N161 C166 1.318 . S
C162 N161 1.328 . S
C162 C163 1.457 . S
C162 H167 0.929 . S
C163 C162 1.457 . S
C163 C164 1.291 . S
C163 H176 0.931 . S
C164 C163 1.291 . S
C164 C165 1.373 . S
C164 H177 0.929 . S
C165 C164 1.373 . S
C165 C166 1.396 . S
C165 C172 1.403 . S
C166 C156 1.476 . S
C166 N161 1.318 . S
C166 C165 1.396 . S
H167 C162 0.929 . S
O168 Mn144 2.385 . S
O168 C146 1.234 1_455 S
O169 Mn144 2.209 1_655 S
O169 Mn145 2.215 . S
O169 C146 1.283 . S
O170 Mn144 2.094 . S
O170 C148 1.240 . S
O171 Mn145 2.117 1_455 S
O171 C148 1.264 . S
C172 C165 1.403 . S
C172 C173 1.399 . S
C172 H178 0.929 . S
C173 C153 1.449 . S
C173 C172 1.399 . S
C173 H179 0.930 . S
H174 C154 0.931 . S
H175 C155 0.930 . S
H176 C163 0.931 . S
H177 C164 0.929 . S
H178 C172 0.929 . S
H179 C173 0.930 . S
Mn180 O185 2.095 . S
Mn180 O195 2.162 . S
Mn180 O196 2.297 . S
Mn180 O204 2.385 . S
Mn180 O205 2.209 1_545 S
Mn180 O206 2.094 . S
Mn181 O186 2.121 1_565 S
Mn181 N188 2.257 . S
Mn181 N197 2.282 . S
Mn181 O205 2.215 . S
Mn181 O207 2.117 1_565 S
C182 O204 1.234 1_565 S
C182 O205 1.283 . S
C183 O195 1.281 . S
C183 O196 1.236 . S
C184 O206 1.240 . S
C184 O207 1.264 . S
O185 Mn180 2.095 . S
O185 C194 1.250 . S
O186 Mn181 2.121 1_545 S
O186 C194 1.258 . S
C187 N188 1.326 . S
C187 C191 1.460 . S
C187 H193 0.929 . S
N188 Mn181 2.257 . S
N188 C187 1.326 . S
N188 C192 1.362 . S
C189 C190 1.258 . S
C189 C192 1.431 . S
C189 C209 1.449 . S
C190 C189 1.258 . S
C190 C191 1.477 . S
C190 H210 0.931 . S
C191 C187 1.460 . S
C191 C190 1.477 . S
C191 H211 0.930 . S
C192 N188 1.362 . S
C192 C189 1.431 . S
C192 C202 1.476 . S
H193 C187 0.929 . S
C194 O185 1.250 . S
C194 O186 1.258 . S
O195 Mn180 2.162 . S
O195 C183 1.281 . S
O196 Mn180 2.297 . S
O196 C183 1.236 . S
N197 Mn181 2.282 . S
N197 C198 1.328 . S
N197 C202 1.318 . S
C198 N197 1.328 . S
C198 C199 1.457 . S
C198 H203 0.929 . S
C199 C198 1.457 . S
C199 C200 1.291 . S
C199 H212 0.931 . S
C200 C199 1.291 . S
C200 C201 1.373 . S
C200 H213 0.929 . S
C201 C200 1.373 . S
C201 C202 1.396 . S
C201 C208 1.403 . S
C202 C192 1.476 . S
C202 N197 1.318 . S
C202 C201 1.396 . S
H203 C198 0.929 . S
O204 Mn180 2.385 . S
O204 C182 1.234 1_545 S
O205 Mn180 2.209 1_565 S
O205 Mn181 2.215 . S
O205 C182 1.283 . S
O206 Mn180 2.094 . S
O206 C184 1.240 . S
O207 Mn181 2.117 1_545 S
O207 C184 1.264 . S
C208 C201 1.403 . S
C208 C209 1.399 . S
C208 H214 0.929 . S
C209 C189 1.449 . S
C209 C208 1.399 . S
C209 H215 0.930 . S
H210 C190 0.931 . S
H211 C191 0.930 . S
H212 C199 0.931 . S
H213 C200 0.929 . S
H214 C208 0.929 . S
H215 C209 0.930 . S
Mn216 O221 2.095 . S
Mn216 O231 2.162 . S
Mn216 O232 2.297 . S
Mn216 O240 2.385 . S
Mn216 O241 2.209 . S
Mn216 O242 2.094 . S
Mn217 O222 2.121 . S
Mn217 N224 2.257 . S
Mn217 N233 2.282 . S
Mn217 O241 2.215 . S
Mn217 O243 2.117 . S
C218 O240 1.234 . S
C218 O241 1.283 . S
C219 O231 1.281 . S
C219 O232 1.236 . S
C220 O242 1.240 . S
C220 O243 1.264 . S
O221 Mn216 2.095 . S
O221 C230 1.250 . S
O222 Mn217 2.121 . S
O222 C230 1.258 . S
C223 N224 1.326 . S
C223 C227 1.460 . S
C223 H229 0.929 . S
N224 Mn217 2.257 . S
N224 C223 1.326 . S
N224 C228 1.362 . S
C225 C226 1.258 . S
C225 C228 1.431 . S
C225 C245 1.449 . S
C226 C225 1.258 . S
C226 C227 1.477 . S
C226 H246 0.931 . S
C227 C223 1.460 . S
C227 C226 1.477 . S
C227 H247 0.930 . S
C228 N224 1.362 . S
C228 C225 1.431 . S
C228 C238 1.476 . S
H229 C223 0.929 . S
C230 O221 1.250 . S
C230 O222 1.258 . S
O231 Mn216 2.162 . S
O231 C219 1.281 . S
O232 Mn216 2.297 . S
O232 C219 1.236 . S
N233 Mn217 2.282 . S
N233 C234 1.328 . S
N233 C238 1.318 . S
C234 N233 1.328 . S
C234 C235 1.457 . S
C234 H239 0.929 . S
C235 C234 1.457 . S
C235 C236 1.291 . S
C235 H248 0.931 . S
C236 C235 1.291 . S
C236 C237 1.373 . S
C236 H249 0.929 . S
C237 C236 1.373 . S
C237 C238 1.396 . S
C237 C244 1.403 . S
C238 C228 1.476 . S
C238 N233 1.318 . S
C238 C237 1.396 . S
H239 C234 0.929 . S
O240 Mn216 2.385 . S
O240 C218 1.234 . S
O241 Mn216 2.209 . S
O241 Mn217 2.215 . S
O241 C218 1.283 . S
O242 Mn216 2.094 . S
O242 C220 1.240 . S
O243 Mn217 2.117 . S
O243 C220 1.264 . S
C244 C237 1.403 . S
C244 C245 1.399 . S
C244 H250 0.929 . S
C245 C225 1.449 . S
C245 C244 1.399 . S
C245 H251 0.930 . S
H246 C226 0.931 . S
H247 C227 0.930 . S
H248 C235 0.931 . S
H249 C236 0.929 . S
H250 C244 0.929 . S
H251 C245 0.930 . S
Mn252 O257 2.095 . S
Mn252 O267 2.162 . S
Mn252 O268 2.297 . S
Mn252 O276 2.385 . S
Mn252 O277 2.209 1_655 S
Mn252 O278 2.094 . S
Mn253 O258 2.121 1_455 S
Mn253 N260 2.257 . S
Mn253 N269 2.282 . S
Mn253 O277 2.215 . S
Mn253 O279 2.117 1_455 S
C254 O276 1.234 1_455 S
C254 O277 1.283 . S
C255 O267 1.281 . S
C255 O268 1.236 . S
C256 O278 1.240 . S
C256 O279 1.264 . S
O257 Mn252 2.095 . S
O257 C266 1.250 . S
O258 Mn253 2.121 1_655 S
O258 C266 1.258 . S
C259 N260 1.326 . S
C259 C263 1.460 . S
C259 H265 0.929 . S
N260 Mn253 2.257 . S
N260 C259 1.326 . S
N260 C264 1.362 . S
C261 C262 1.258 . S
C261 C264 1.431 . S
C261 C281 1.449 . S
C262 C261 1.258 . S
C262 C263 1.477 . S
C262 H282 0.931 . S
C263 C259 1.460 . S
C263 C262 1.477 . S
C263 H283 0.930 . S
C264 N260 1.362 . S
C264 C261 1.431 . S
C264 C274 1.476 . S
H265 C259 0.929 . S
C266 O257 1.250 . S
C266 O258 1.258 . S
O267 Mn252 2.162 . S
O267 C255 1.281 . S
O268 Mn252 2.297 . S
O268 C255 1.236 . S
N269 Mn253 2.282 . S
N269 C270 1.328 . S
N269 C274 1.318 . S
C270 N269 1.328 . S
C270 C271 1.457 . S
C270 H275 0.929 . S
C271 C270 1.457 . S
C271 C272 1.291 . S
C271 H284 0.931 . S
C272 C271 1.291 . S
C272 C273 1.373 . S
C272 H285 0.929 . S
C273 C272 1.373 . S
C273 C274 1.396 . S
C273 C280 1.403 . S
C274 C264 1.476 . S
C274 N269 1.318 . S
C274 C273 1.396 . S
H275 C270 0.929 . S
O276 Mn252 2.385 . S
O276 C254 1.234 1_655 S
O277 Mn252 2.209 1_455 S
O277 Mn253 2.215 . S
O277 C254 1.283 . S
O278 Mn252 2.094 . S
O278 C256 1.240 . S
O279 Mn253 2.117 1_655 S
O279 C256 1.264 . S
C280 C273 1.403 . S
C280 C281 1.399 . S
C280 H286 0.929 . S
C281 C261 1.449 . S
C281 C280 1.399 . S
C281 H287 0.930 . S
H282 C262 0.931 . S
H283 C263 0.930 . S
H284 C271 0.931 . S
H285 C272 0.929 . S
H286 C280 0.929 . S
H287 C281 0.930 . S
Mn288 O293 2.095 . S
Mn288 O303 2.162 . S
Mn288 O304 2.297 . S
Mn288 O312 2.385 . S
Mn288 O313 2.209 1_565 S
Mn288 O314 2.094 . S
Mn289 O294 2.121 1_545 S
Mn289 N296 2.257 . S
Mn289 N305 2.282 . S
Mn289 O313 2.215 . S
Mn289 O315 2.117 1_545 S
C290 O312 1.234 1_545 S
C290 O313 1.283 . S
C291 O303 1.281 . S
C291 O304 1.236 . S
C292 O314 1.240 . S
C292 O315 1.264 . S
O293 Mn288 2.095 . S
O293 C302 1.250 . S
O294 Mn289 2.121 1_565 S
O294 C302 1.258 . S
C295 N296 1.326 . S
C295 C299 1.460 . S
C295 H301 0.929 . S
N296 Mn289 2.257 . S
N296 C295 1.326 . S
N296 C300 1.362 . S
C297 C298 1.258 . S
C297 C300 1.431 . S
C297 C317 1.449 . S
C298 C297 1.258 . S
C298 C299 1.477 . S
C298 H318 0.931 . S
C299 C295 1.460 . S
C299 C298 1.477 . S
C299 H319 0.930 . S
C300 N296 1.362 . S
C300 C297 1.431 . S
C300 C310 1.476 . S
H301 C295 0.929 . S
C302 O293 1.250 . S
C302 O294 1.258 . S
O303 Mn288 2.162 . S
O303 C291 1.281 . S
O304 Mn288 2.297 . S
O304 C291 1.236 . S
N305 Mn289 2.282 . S
N305 C306 1.328 . S
N305 C310 1.318 . S
C306 N305 1.328 . S
C306 C307 1.457 . S
C306 H311 0.929 . S
C307 C306 1.457 . S
C307 C308 1.291 . S
C307 H320 0.931 . S
C308 C307 1.291 . S
C308 C309 1.373 . S
C308 H321 0.929 . S
C309 C308 1.373 . S
C309 C310 1.396 . S
C309 C316 1.403 . S
C310 C300 1.476 . S
C310 N305 1.318 . S
C310 C309 1.396 . S
H311 C306 0.929 . S
O312 Mn288 2.385 . S
O312 C290 1.234 1_565 S
O313 Mn288 2.209 1_545 S
O313 Mn289 2.215 . S
O313 C290 1.283 . S
O314 Mn288 2.094 . S
O314 C292 1.240 . S
O315 Mn289 2.117 1_565 S
O315 C292 1.264 . S
C316 C309 1.403 . S
C316 C317 1.399 . S
C316 H322 0.929 . S
C317 C297 1.449 . S
C317 C316 1.399 . S
C317 H323 0.930 . S
H318 C298 0.931 . S
H319 C299 0.930 . S
H320 C307 0.931 . S
H321 C308 0.929 . S
H322 C316 0.929 . S
H323 C317 0.930 . S
Mn324 O329 2.095 . S
Mn324 O339 2.162 . S
Mn324 O340 2.297 . S
Mn324 O348 2.385 . S
Mn324 O349 2.209 . S
Mn324 O350 2.094 . S
Mn325 O330 2.121 . S
Mn325 N332 2.257 . S
Mn325 N341 2.282 . S
Mn325 O349 2.215 . S
Mn325 O351 2.117 . S
C326 O348 1.234 . S
C326 O349 1.283 . S
C327 O339 1.281 . S
C327 O340 1.236 . S
C328 O350 1.240 . S
C328 O351 1.264 . S
O329 Mn324 2.095 . S
O329 C338 1.250 . S
O330 Mn325 2.121 . S
O330 C338 1.258 . S
C331 N332 1.326 . S
C331 C335 1.460 . S
C331 H337 0.929 . S
N332 Mn325 2.257 . S
N332 C331 1.326 . S
N332 C336 1.362 . S
C333 C334 1.258 . S
C333 C336 1.431 . S
C333 C353 1.449 . S
C334 C333 1.258 . S
C334 C335 1.477 . S
C334 H354 0.931 . S
C335 C331 1.460 . S
C335 C334 1.477 . S
C335 H355 0.930 . S
C336 N332 1.362 . S
C336 C333 1.431 . S
C336 C346 1.476 . S
H337 C331 0.929 . S
C338 O329 1.250 . S
C338 O330 1.258 . S
O339 Mn324 2.162 . S
O339 C327 1.281 . S
O340 Mn324 2.297 . S
O340 C327 1.236 . S
N341 Mn325 2.282 . S
N341 C342 1.328 . S
N341 C346 1.318 . S
C342 N341 1.328 . S
C342 C343 1.457 . S
C342 H347 0.929 . S
C343 C342 1.457 . S
C343 C344 1.291 . S
C343 H356 0.931 . S
C344 C343 1.291 . S
C344 C345 1.373 . S
C344 H357 0.929 . S
C345 C344 1.373 . S
C345 C346 1.396 . S
C345 C352 1.403 . S
C346 C336 1.476 . S
C346 N341 1.318 . S
C346 C345 1.396 . S
H347 C342 0.929 . S
O348 Mn324 2.385 . S
O348 C326 1.234 . S
O349 Mn324 2.209 . S
O349 Mn325 2.215 . S
O349 C326 1.283 . S
O350 Mn324 2.094 . S
O350 C328 1.240 . S
O351 Mn325 2.117 . S
O351 C328 1.264 . S
C352 C345 1.403 . S
C352 C353 1.399 . S
C352 H358 0.929 . S
C353 C333 1.449 . S
C353 C352 1.399 . S
C353 H359 0.930 . S
H354 C334 0.931 . S
H355 C335 0.930 . S
H356 C343 0.931 . S
H357 C344 0.929 . S
H358 C352 0.929 . S
H359 C353 0.930 . S
Mn360 O365 2.095 . S
Mn360 O375 2.162 . S
Mn360 O376 2.297 . S
Mn360 O384 2.385 . S
Mn360 O385 2.209 1_455 S
Mn360 O386 2.094 . S
Mn361 O366 2.121 1_655 S
Mn361 N368 2.257 . S
Mn361 N377 2.282 . S
Mn361 O385 2.215 . S
Mn361 O387 2.117 1_655 S
C362 O384 1.234 1_655 S
C362 O385 1.283 . S
C363 O375 1.281 . S
C363 O376 1.236 . S
C364 O386 1.240 . S
C364 O387 1.264 . S
O365 Mn360 2.095 . S
O365 C374 1.250 . S
O366 Mn361 2.121 1_455 S
O366 C374 1.258 . S
C367 N368 1.326 . S
C367 C371 1.460 . S
C367 H373 0.929 . S
N368 Mn361 2.257 . S
N368 C367 1.326 . S
N368 C372 1.362 . S
C369 C370 1.258 . S
C369 C372 1.431 . S
C369 C389 1.449 . S
C370 C369 1.258 . S
C370 C371 1.477 . S
C370 H390 0.931 . S
C371 C367 1.460 . S
C371 C370 1.477 . S
C371 H391 0.930 . S
C372 N368 1.362 . S
C372 C369 1.431 . S
C372 C382 1.476 . S
H373 C367 0.929 . S
C374 O365 1.250 . S
C374 O366 1.258 . S
O375 Mn360 2.162 . S
O375 C363 1.281 . S
O376 Mn360 2.297 . S
O376 C363 1.236 . S
N377 Mn361 2.282 . S
N377 C378 1.328 . S
N377 C382 1.318 . S
C378 N377 1.328 . S
C378 C379 1.457 . S
C378 H383 0.929 . S
C379 C378 1.457 . S
C379 C380 1.291 . S
C379 H392 0.931 . S
C380 C379 1.291 . S
C380 C381 1.373 . S
C380 H393 0.929 . S
C381 C380 1.373 . S
C381 C382 1.396 . S
C381 C388 1.403 . S
C382 C372 1.476 . S
C382 N377 1.318 . S
C382 C381 1.396 . S
H383 C378 0.929 . S
O384 Mn360 2.385 . S
O384 C362 1.234 1_455 S
O385 Mn360 2.209 1_655 S
O385 Mn361 2.215 . S
O385 C362 1.283 . S
O386 Mn360 2.094 . S
O386 C364 1.240 . S
O387 Mn361 2.117 1_455 S
O387 C364 1.264 . S
C388 C381 1.403 . S
C388 C389 1.399 . S
C388 H394 0.929 . S
C389 C369 1.449 . S
C389 C388 1.399 . S
C389 H395 0.930 . S
H390 C370 0.931 . S
H391 C371 0.930 . S
H392 C379 0.931 . S
H393 C380 0.929 . S
H394 C388 0.929 . S
H395 C389 0.930 . S
Mn396 O401 2.095 . S
Mn396 O411 2.162 . S
Mn396 O412 2.297 . S
Mn396 O420 2.385 . S
Mn396 O421 2.209 1_545 S
Mn396 O422 2.094 . S
Mn397 O402 2.121 1_565 S
Mn397 N404 2.257 . S
Mn397 N413 2.282 . S
Mn397 O421 2.215 . S
Mn397 O423 2.117 1_565 S
C398 O420 1.234 1_565 S
C398 O421 1.283 . S
C399 O411 1.281 . S
C399 O412 1.236 . S
C400 O422 1.240 . S
C400 O423 1.264 . S
O401 Mn396 2.095 . S
O401 C410 1.250 . S
O402 Mn397 2.121 1_545 S
O402 C410 1.258 . S
C403 N404 1.326 . S
C403 C407 1.460 . S
C403 H409 0.929 . S
N404 Mn397 2.257 . S
N404 C403 1.326 . S
N404 C408 1.362 . S
C405 C406 1.258 . S
C405 C408 1.431 . S
C405 C425 1.449 . S
C406 C405 1.258 . S
C406 C407 1.477 . S
C406 H426 0.931 . S
C407 C403 1.460 . S
C407 C406 1.477 . S
C407 H427 0.930 . S
C408 N404 1.362 . S
C408 C405 1.431 . S
C408 C418 1.476 . S
H409 C403 0.929 . S
C410 O401 1.250 . S
C410 O402 1.258 . S
O411 Mn396 2.162 . S
O411 C399 1.281 . S
O412 Mn396 2.297 . S
O412 C399 1.236 . S
N413 Mn397 2.282 . S
N413 C414 1.328 . S
N413 C418 1.318 . S
C414 N413 1.328 . S
C414 C415 1.457 . S
C414 H419 0.929 . S
C415 C414 1.457 . S
C415 C416 1.291 . S
C415 H428 0.931 . S
C416 C415 1.291 . S
C416 C417 1.373 . S
C416 H429 0.929 . S
C417 C416 1.373 . S
C417 C418 1.396 . S
C417 C424 1.403 . S
C418 C408 1.476 . S
C418 N413 1.318 . S
C418 C417 1.396 . S
H419 C414 0.929 . S
O420 Mn396 2.385 . S
O420 C398 1.234 1_545 S
O421 Mn396 2.209 1_565 S
O421 Mn397 2.215 . S
O421 C398 1.283 . S
O422 Mn396 2.094 . S
O422 C400 1.240 . S
O423 Mn397 2.117 1_545 S
O423 C400 1.264 . S
C424 C417 1.403 . S
C424 C425 1.399 . S
C424 H430 0.929 . S
C425 C405 1.449 . S
C425 C424 1.399 . S
C425 H431 0.930 . S
H426 C406 0.931 . S
H427 C407 0.930 . S
H428 C415 0.931 . S
H429 C416 0.929 . S
H430 C424 0.929 . S
H431 C425 0.930 . S
C432 C433 1.349 . S
C432 C434 1.327 . S
C432 H457 0.950 . S
C433 C432 1.349 . S
C433 C449 1.349 . S
C434 C432 1.327 . S
C434 C453 1.429 . S
C434 H458 0.950 . S
C435 C452 1.574 1_655 S
C435 C454 1.368 . S
C435 H459 0.949 . S
H436 C440 0.949 . S
C437 C438 1.349 . S
C437 C439 1.327 . S
C437 H460 0.950 . S
C438 C437 1.349 . S
C438 C450 1.349 . S
C439 C437 1.327 . S
C439 C455 1.429 . S
C439 H461 0.950 . S
C440 H436 0.949 . S
C440 C448 1.574 1_455 S
C440 C456 1.368 . S
H441 C449 0.950 . S
H442 C447 0.950 . S
H443 C448 0.949 . S
H444 C450 0.950 . S
H445 C451 0.950 . S
H446 C452 0.949 . S
C447 H442 0.950 . S
C447 C449 1.327 . S
C447 C453 1.429 . S
C448 C440 1.574 1_655 S
C448 H443 0.949 . S
C448 C454 1.368 . S
C449 C433 1.349 . S
C449 H441 0.950 . S
C449 C447 1.327 . S
C450 C438 1.349 . S
C450 H444 0.950 . S
C450 C451 1.327 . S
C451 H445 0.950 . S
C451 C450 1.327 . S
C451 C455 1.429 . S
C452 C435 1.574 1_455 S
C452 H446 0.949 . S
C452 C456 1.368 . S
C453 C434 1.429 . S
C453 C447 1.429 . S
C453 C454 1.523 . S
C454 C435 1.368 . S
C454 C448 1.368 . S
C454 C453 1.523 . S
C455 C439 1.429 . S
C455 C451 1.429 . S
C455 C456 1.523 . S
C456 C440 1.368 . S
C456 C452 1.368 . S
C456 C455 1.523 . S
H457 C432 0.950 . S
H458 C434 0.950 . S
H459 C435 0.949 . S
H460 C437 0.950 . S
H461 C439 0.950 . S
C462 C463 1.349 . S
C462 C464 1.327 . S
C462 H487 0.950 . S
C463 C462 1.349 . S
C463 C479 1.349 . S
C464 C462 1.327 . S
C464 C483 1.429 . S
C464 H488 0.950 . S
C465 C482 1.574 1_545 S
C465 C484 1.368 . S
C465 H489 0.949 . S
H466 C470 0.949 . S
C467 C468 1.349 . S
C467 C469 1.327 . S
C467 H490 0.950 . S
C468 C467 1.349 . S
C468 C480 1.349 . S
C469 C467 1.327 . S
C469 C485 1.429 . S
C469 H491 0.950 . S
C470 H466 0.949 . S
C470 C478 1.574 1_565 S
C470 C486 1.368 . S
H471 C479 0.950 . S
H472 C477 0.950 . S
H473 C478 0.949 . S
H474 C480 0.950 . S
H475 C481 0.950 . S
H476 C482 0.949 . S
C477 H472 0.950 . S
C477 C479 1.327 . S
C477 C483 1.429 . S
C478 C470 1.574 1_545 S
C478 H473 0.949 . S
C478 C484 1.368 . S
C479 C463 1.349 . S
C479 H471 0.950 . S
C479 C477 1.327 . S
C480 C468 1.349 . S
C480 H474 0.950 . S
C480 C481 1.327 . S
C481 H475 0.950 . S
C481 C480 1.327 . S
C481 C485 1.429 . S
C482 C465 1.574 1_565 S
C482 H476 0.949 . S
C482 C486 1.368 . S
C483 C464 1.429 . S
C483 C477 1.429 . S
C483 C484 1.523 . S
C484 C465 1.368 . S
C484 C478 1.368 . S
C484 C483 1.523 . S
C485 C469 1.429 . S
C485 C481 1.429 . S
C485 C486 1.523 . S
C486 C470 1.368 . S
C486 C482 1.368 . S
C486 C485 1.523 . S
H487 C462 0.950 . S
H488 C464 0.950 . S
H489 C465 0.949 . S
H490 C467 0.950 . S
H491 C469 0.950 . S
C492 C493 1.349 . S
C492 C494 1.327 . S
C492 H517 0.950 . S
C493 C492 1.349 . S
C493 C509 1.349 . S
C494 C492 1.327 . S
C494 C513 1.429 . S
C494 H518 0.950 . S
C495 C512 1.574 . S
C495 C514 1.368 . S
C495 H519 0.949 . S
H496 C500 0.949 . S
C497 C498 1.349 . S
C497 C499 1.327 . S
C497 H520 0.950 . S
C498 C497 1.349 . S
C498 C510 1.349 . S
C499 C497 1.327 . S
C499 C515 1.429 . S
C499 H521 0.950 . S
C500 H496 0.949 . S
C500 C508 1.574 . S
C500 C516 1.368 . S
H501 C509 0.950 . S
H502 C507 0.950 . S
H503 C508 0.949 . S
H504 C510 0.950 . S
H505 C511 0.950 . S
H506 C512 0.949 . S
C507 H502 0.950 . S
C507 C509 1.327 . S
C507 C513 1.429 . S
C508 C500 1.574 . S
C508 H503 0.949 . S
C508 C514 1.368 . S
C509 C493 1.349 . S
C509 H501 0.950 . S
C509 C507 1.327 . S
C510 C498 1.349 . S
C510 H504 0.950 . S
C510 C511 1.327 . S
C511 H505 0.950 . S
C511 C510 1.327 . S
C511 C515 1.429 . S
C512 C495 1.574 . S
C512 H506 0.949 . S
C512 C516 1.368 . S
C513 C494 1.429 . S
C513 C507 1.429 . S
C513 C514 1.523 . S
C514 C495 1.368 . S
C514 C508 1.368 . S
C514 C513 1.523 . S
C515 C499 1.429 . S
C515 C511 1.429 . S
C515 C516 1.523 . S
C516 C500 1.368 . S
C516 C512 1.368 . S
C516 C515 1.523 . S
H517 C492 0.950 . S
H518 C494 0.950 . S
H519 C495 0.949 . S
H520 C497 0.950 . S
H521 C499 0.950 . S
C522 C523 1.349 . S
C522 C524 1.327 . S
C522 H547 0.950 . S
C523 C522 1.349 . S
C523 C539 1.349 . S
C524 C522 1.327 . S
C524 C543 1.429 . S
C524 H548 0.950 . S
C525 C542 1.574 1_655 S
C525 C544 1.368 . S
C525 H549 0.949 . S
H526 C530 0.949 . S
C527 C528 1.349 . S
C527 C529 1.327 . S
C527 H550 0.950 . S
C528 C527 1.349 . S
C528 C540 1.349 . S
C529 C527 1.327 . S
C529 C545 1.429 . S
C529 H551 0.950 . S
C530 H526 0.949 . S
C530 C538 1.574 1_455 S
C530 C546 1.368 . S
H531 C539 0.950 . S
H532 C537 0.950 . S
H533 C538 0.949 . S
H534 C540 0.950 . S
H535 C541 0.950 . S
H536 C542 0.949 . S
C537 H532 0.950 . S
C537 C539 1.327 . S
C537 C543 1.429 . S
C538 C530 1.574 1_655 S
C538 H533 0.949 . S
C538 C544 1.368 . S
C539 C523 1.349 . S
C539 H531 0.950 . S
C539 C537 1.327 . S
C540 C528 1.349 . S
C540 H534 0.950 . S
C540 C541 1.327 . S
C541 H535 0.950 . S
C541 C540 1.327 . S
C541 C545 1.429 . S
C542 C525 1.574 1_455 S
C542 H536 0.949 . S
C542 C546 1.368 . S
C543 C524 1.429 . S
C543 C537 1.429 . S
C543 C544 1.523 . S
C544 C525 1.368 . S
C544 C538 1.368 . S
C544 C543 1.523 . S
C545 C529 1.429 . S
C545 C541 1.429 . S
C545 C546 1.523 . S
C546 C530 1.368 . S
C546 C542 1.368 . S
C546 C545 1.523 . S
H547 C522 0.950 . S
H548 C524 0.950 . S
H549 C525 0.949 . S
H550 C527 0.950 . S
H551 C529 0.950 . S
C552 C553 1.349 . S
C552 C554 1.327 . S
C552 H577 0.950 . S
C553 C552 1.349 . S
C553 C569 1.349 . S
C554 C552 1.327 . S
C554 C573 1.429 . S
C554 H578 0.950 . S
C555 C572 1.574 1_545 S
C555 C574 1.368 . S
C555 H579 0.949 . S
H556 C560 0.949 . S
C557 C558 1.349 . S
C557 C559 1.327 . S
C557 H580 0.950 . S
C558 C557 1.349 . S
C558 C570 1.349 . S
C559 C557 1.327 . S
C559 C575 1.429 . S
C559 H581 0.950 . S
C560 H556 0.949 . S
C560 C568 1.574 1_565 S
C560 C576 1.368 . S
H561 C569 0.950 . S
H562 C567 0.950 . S
H563 C568 0.949 . S
H564 C570 0.950 . S
H565 C571 0.950 . S
H566 C572 0.949 . S
C567 H562 0.950 . S
C567 C569 1.327 . S
C567 C573 1.429 . S
C568 C560 1.574 1_545 S
C568 H563 0.949 . S
C568 C574 1.368 . S
C569 C553 1.349 . S
C569 H561 0.950 . S
C569 C567 1.327 . S
C570 C558 1.349 . S
C570 H564 0.950 . S
C570 C571 1.327 . S
C571 H565 0.950 . S
C571 C570 1.327 . S
C571 C575 1.429 . S
C572 C555 1.574 1_565 S
C572 H566 0.949 . S
C572 C576 1.368 . S
C573 C554 1.429 . S
C573 C567 1.429 . S
C573 C574 1.523 . S
C574 C555 1.368 . S
C574 C568 1.368 . S
C574 C573 1.523 . S
C575 C559 1.429 . S
C575 C571 1.429 . S
C575 C576 1.523 . S
C576 C560 1.368 . S
C576 C572 1.368 . S
C576 C575 1.523 . S
H577 C552 0.950 . S
H578 C554 0.950 . S
H579 C555 0.949 . S
H580 C557 0.950 . S
H581 C559 0.950 . S
C582 C583 1.349 . S
C582 C584 1.327 . S
C582 H607 0.950 . S
C583 C582 1.349 . S
C583 C599 1.349 . S
C584 C582 1.327 . S
C584 C603 1.429 . S
C584 H608 0.950 . S
C585 C602 1.574 . S
C585 C604 1.368 . S
C585 H609 0.949 . S
H586 C590 0.949 . S
C587 C588 1.349 . S
C587 C589 1.327 . S
C587 H610 0.950 . S
C588 C587 1.349 . S
C588 C600 1.349 . S
C589 C587 1.327 . S
C589 C605 1.429 . S
C589 H611 0.950 . S
C590 H586 0.949 . S
C590 C598 1.574 . S
C590 C606 1.368 . S
H591 C599 0.950 . S
H592 C597 0.950 . S
H593 C598 0.949 . S
H594 C600 0.950 . S
H595 C601 0.950 . S
H596 C602 0.949 . S
C597 H592 0.950 . S
C597 C599 1.327 . S
C597 C603 1.429 . S
C598 C590 1.574 . S
C598 H593 0.949 . S
C598 C604 1.368 . S
C599 C583 1.349 . S
C599 H591 0.950 . S
C599 C597 1.327 . S
C600 C588 1.349 . S
C600 H594 0.950 . S
C600 C601 1.327 . S
C601 H595 0.950 . S
C601 C600 1.327 . S
C601 C605 1.429 . S
C602 C585 1.574 . S
C602 H596 0.949 . S
C602 C606 1.368 . S
C603 C584 1.429 . S
C603 C597 1.429 . S
C603 C604 1.523 . S
C604 C585 1.368 . S
C604 C598 1.368 . S
C604 C603 1.523 . S
C605 C589 1.429 . S
C605 C601 1.429 . S
C605 C606 1.523 . S
C606 C590 1.368 . S
C606 C602 1.368 . S
C606 C605 1.523 . S
H607 C582 0.950 . S
H608 C584 0.950 . S
H609 C585 0.949 . S
H610 C587 0.950 . S
H611 C589 0.950 . S
C612 C613 1.349 . S
C612 C614 1.327 . S
C612 H637 0.950 . S
C613 C612 1.349 . S
C613 C629 1.349 . S
C614 C612 1.327 . S
C614 C633 1.429 . S
C614 H638 0.950 . S
C615 C632 1.574 . S
C615 C634 1.368 . S
C615 H639 0.949 . S
H616 C620 0.949 . S
C617 C618 1.349 . S
C617 C619 1.327 . S
C617 H640 0.950 . S
C618 C617 1.349 . S
C618 C630 1.349 . S
C619 C617 1.327 . S
C619 C635 1.429 . S
C619 H641 0.950 . S
C620 H616 0.949 . S
C620 C628 1.574 . S
C620 C636 1.368 . S
H621 C629 0.950 . S
H622 C627 0.950 . S
H623 C628 0.949 . S
H624 C630 0.950 . S
H625 C631 0.950 . S
H626 C632 0.949 . S
C627 H622 0.950 . S
C627 C629 1.327 . S
C627 C633 1.429 . S
C628 C620 1.574 . S
C628 H623 0.949 . S
C628 C634 1.368 . S
C629 C613 1.349 . S
C629 H621 0.950 . S
C629 C627 1.327 . S
C630 C618 1.349 . S
C630 H624 0.950 . S
C630 C631 1.327 . S
C631 H625 0.950 . S
C631 C630 1.327 . S
C631 C635 1.429 . S
C632 C615 1.574 . S
C632 H626 0.949 . S
C632 C636 1.368 . S
C633 C614 1.429 . S
C633 C627 1.429 . S
C633 C634 1.523 . S
C634 C615 1.368 . S
C634 C628 1.368 . S
C634 C633 1.523 . S
C635 C619 1.429 . S
C635 C631 1.429 . S
C635 C636 1.523 . S
C636 C620 1.368 . S
C636 C632 1.368 . S
C636 C635 1.523 . S
H637 C612 0.950 . S
H638 C614 0.950 . S
H639 C615 0.949 . S
H640 C617 0.950 . S
H641 C619 0.950 . S
C642 C643 1.349 . S
C642 C644 1.327 . S
C642 H667 0.950 . S
C643 C642 1.349 . S
C643 C659 1.349 . S
C644 C642 1.327 . S
C644 C663 1.429 . S
C644 H668 0.950 1_455 S
C645 C662 1.574 . S
C645 C664 1.368 . S
C645 H669 0.949 . S
H646 C650 0.949 . S
C647 C648 1.349 . S
C647 C649 1.327 . S
C647 H670 0.950 . S
C648 C647 1.349 . S
C648 C660 1.349 . S
C649 C647 1.327 . S
C649 C665 1.429 . S
C649 H671 0.950 1_655 S
C650 H646 0.949 . S
C650 C658 1.574 . S
C650 C666 1.368 . S
H651 C659 0.950 . S
H652 C657 0.950 . S
H653 C658 0.949 . S
H654 C660 0.950 . S
H655 C661 0.950 . S
H656 C662 0.949 . S
C657 H652 0.950 . S
C657 C659 1.327 . S
C657 C663 1.429 . S
C658 C650 1.574 . S
C658 H653 0.949 . S
C658 C664 1.368 1_655 S
C659 C643 1.349 . S
C659 H651 0.950 . S
C659 C657 1.327 . S
C660 C648 1.349 . S
C660 H654 0.950 . S
C660 C661 1.327 . S
C661 H655 0.950 . S
C661 C660 1.327 . S
C661 C665 1.429 . S
C662 C645 1.574 . S
C662 H656 0.949 . S
C662 C666 1.368 1_455 S
C663 C644 1.429 . S
C663 C657 1.429 . S
C663 C664 1.523 . S
C664 C645 1.368 . S
C664 C658 1.368 1_455 S
C664 C663 1.523 . S
C665 C649 1.429 . S
C665 C661 1.429 . S
C665 C666 1.523 . S
C666 C650 1.368 . S
C666 C662 1.368 1_655 S
C666 C665 1.523 . S
H667 C642 0.950 . S
H668 C644 0.950 1_655 S
H669 C645 0.949 . S
H670 C647 0.950 . S
H671 C649 0.950 1_455 S
C672 C673 1.349 . S
C672 C674 1.327 . S
C672 H697 0.950 . S
C673 C672 1.349 . S
C673 C689 1.349 . S
C674 C672 1.327 . S
C674 C693 1.429 . S
C674 H698 0.950 . S
C675 C692 1.574 . S
C675 C694 1.368 1_565 S
C675 H699 0.949 . S
H676 C680 0.949 . S
C677 C678 1.349 . S
C677 C679 1.327 . S
C677 H700 0.950 . S
C678 C677 1.349 . S
C678 C690 1.349 . S
C679 C677 1.327 . S
C679 C695 1.429 . S
C679 H701 0.950 . S
C680 H676 0.949 . S
C680 C688 1.574 . S
C680 C696 1.368 1_545 S
H681 C689 0.950 . S
H682 C687 0.950 1_565 S
H683 C688 0.949 . S
H684 C690 0.950 . S
H685 C691 0.950 1_545 S
H686 C692 0.949 . S
C687 H682 0.950 1_545 S
C687 C689 1.327 . S
C687 C693 1.429 . S
C688 C680 1.574 . S
C688 H683 0.949 . S
C688 C694 1.368 . S
C689 C673 1.349 . S
C689 H681 0.950 . S
C689 C687 1.327 . S
C690 C678 1.349 . S
C690 H684 0.950 . S
C690 C691 1.327 . S
C691 H685 0.950 1_565 S
C691 C690 1.327 . S
C691 C695 1.429 . S
C692 C675 1.574 . S
C692 H686 0.949 . S
C692 C696 1.368 . S
C693 C674 1.429 . S
C693 C687 1.429 . S
C693 C694 1.523 . S
C694 C675 1.368 1_545 S
C694 C688 1.368 . S
C694 C693 1.523 . S
C695 C679 1.429 . S
C695 C691 1.429 . S
C695 C696 1.523 . S
C696 C680 1.368 1_565 S
C696 C692 1.368 . S
C696 C695 1.523 . S
H697 C672 0.950 . S
H698 C674 0.950 . S
H699 C675 0.949 . S
H700 C677 0.950 . S
H701 C679 0.950 . S
C702 C703 1.349 . S
C702 C704 1.327 . S
C702 H727 0.950 . S
C703 C702 1.349 . S
C703 C719 1.349 . S
C704 C702 1.327 . S
C704 C723 1.429 . S
C704 H728 0.950 . S
C705 C722 1.574 . S
C705 C724 1.368 . S
C705 H729 0.949 . S
H706 C710 0.949 . S
C707 C708 1.349 . S
C707 C709 1.327 . S
C707 H730 0.950 . S
C708 C707 1.349 . S
C708 C720 1.349 . S
C709 C707 1.327 . S
C709 C725 1.429 . S
C709 H731 0.950 . S
C710 H706 0.949 . S
C710 C718 1.574 . S
C710 C726 1.368 . S
H711 C719 0.950 . S
H712 C717 0.950 . S
H713 C718 0.949 . S
H714 C720 0.950 . S
H715 C721 0.950 . S
H716 C722 0.949 . S
C717 H712 0.950 . S
C717 C719 1.327 . S
C717 C723 1.429 . S
C718 C710 1.574 . S
C718 H713 0.949 . S
C718 C724 1.368 . S
C719 C703 1.349 . S
C719 H711 0.950 . S
C719 C717 1.327 . S
C720 C708 1.349 . S
C720 H714 0.950 . S
C720 C721 1.327 . S
C721 H715 0.950 . S
C721 C720 1.327 . S
C721 C725 1.429 . S
C722 C705 1.574 . S
C722 H716 0.949 . S
C722 C726 1.368 . S
C723 C704 1.429 . S
C723 C717 1.429 . S
C723 C724 1.523 . S
C724 C705 1.368 . S
C724 C718 1.368 . S
C724 C723 1.523 . S
C725 C709 1.429 . S
C725 C721 1.429 . S
C725 C726 1.523 . S
C726 C710 1.368 . S
C726 C722 1.368 . S
C726 C725 1.523 . S
H727 C702 0.950 . S
H728 C704 0.950 . S
H729 C705 0.949 . S
H730 C707 0.950 . S
H731 C709 0.950 . S
C732 C733 1.349 . S
C732 C734 1.327 . S
C732 H757 0.950 . S
C733 C732 1.349 . S
C733 C749 1.349 . S
C734 C732 1.327 . S
C734 C753 1.429 . S
C734 H758 0.950 1_655 S
C735 C752 1.574 . S
C735 C754 1.368 . S
C735 H759 0.949 . S
H736 C740 0.949 . S
C737 C738 1.349 . S
C737 C739 1.327 . S
C737 H760 0.950 . S
C738 C737 1.349 . S
C738 C750 1.349 . S
C739 C737 1.327 . S
C739 C755 1.429 . S
C739 H761 0.950 1_455 S
C740 H736 0.949 . S
C740 C748 1.574 . S
C740 C756 1.368 . S
H741 C749 0.950 . S
H742 C747 0.950 . S
H743 C748 0.949 . S
H744 C750 0.950 . S
H745 C751 0.950 . S
H746 C752 0.949 . S
C747 H742 0.950 . S
C747 C749 1.327 . S
C747 C753 1.429 . S
C748 C740 1.574 . S
C748 H743 0.949 . S
C748 C754 1.368 1_455 S
C749 C733 1.349 . S
C749 H741 0.950 . S
C749 C747 1.327 . S
C750 C738 1.349 . S
C750 H744 0.950 . S
C750 C751 1.327 . S
C751 H745 0.950 . S
C751 C750 1.327 . S
C751 C755 1.429 . S
C752 C735 1.574 . S
C752 H746 0.949 . S
C752 C756 1.368 1_655 S
C753 C734 1.429 . S
C753 C747 1.429 . S
C753 C754 1.523 . S
C754 C735 1.368 . S
C754 C748 1.368 1_655 S
C754 C753 1.523 . S
C755 C739 1.429 . S
C755 C751 1.429 . S
C755 C756 1.523 . S
C756 C740 1.368 . S
C756 C752 1.368 1_455 S
C756 C755 1.523 . S
H757 C732 0.950 . S
H758 C734 0.950 1_455 S
H759 C735 0.949 . S
H760 C737 0.950 . S
H761 C739 0.950 1_655 S
C762 C763 1.349 . S
C762 C764 1.327 . S
C762 H787 0.950 . S
C763 C762 1.349 . S
C763 C779 1.349 . S
C764 C762 1.327 . S
C764 C783 1.429 . S
C764 H788 0.950 1_565 S
C765 C782 1.574 . S
C765 C784 1.368 . S
C765 H789 0.949 . S
H766 C770 0.949 . S
C767 C768 1.349 . S
C767 C769 1.327 . S
C767 H790 0.950 . S
C768 C767 1.349 . S
C768 C780 1.349 . S
C769 C767 1.327 . S
C769 C785 1.429 . S
C769 H791 0.950 1_545 S
C770 H766 0.949 . S
C770 C778 1.574 . S
C770 C786 1.368 . S
H771 C779 0.950 . S
H772 C777 0.950 . S
H773 C778 0.949 . S
H774 C780 0.950 . S
H775 C781 0.950 . S
H776 C782 0.949 . S
C777 H772 0.950 . S
C777 C779 1.327 . S
C777 C783 1.429 . S
C778 C770 1.574 . S
C778 H773 0.949 . S
C778 C784 1.368 1_545 S
C779 C763 1.349 . S
C779 H771 0.950 . S
C779 C777 1.327 . S
C780 C768 1.349 . S
C780 H774 0.950 . S
C780 C781 1.327 . S
C781 H775 0.950 . S
C781 C780 1.327 . S
C781 C785 1.429 . S
C782 C765 1.574 . S
C782 H776 0.949 . S
C782 C786 1.368 1_565 S
C783 C764 1.429 . S
C783 C777 1.429 . S
C783 C784 1.523 . S
C784 C765 1.368 . S
C784 C778 1.368 1_565 S
C784 C783 1.523 . S
C785 C769 1.429 . S
C785 C781 1.429 . S
C785 C786 1.523 . S
C786 C770 1.368 . S
C786 C782 1.368 1_545 S
C786 C785 1.523 . S
H787 C762 0.950 . S
H788 C764 0.950 1_545 S
H789 C765 0.949 . S
H790 C767 0.950 . S
H791 C769 0.950 1_565 S
C792 C793 1.349 . S
C792 C794 1.327 . S
C792 H817 0.950 . S
C793 C792 1.349 . S
C793 C809 1.349 . S
C794 C792 1.327 . S
C794 C813 1.429 . S
C794 H818 0.950 . S
C795 C812 1.574 . S
C795 C814 1.368 . S
C795 H819 0.949 . S
H796 C800 0.949 . S
C797 C798 1.349 . S
C797 C799 1.327 . S
C797 H820 0.950 . S
C798 C797 1.349 . S
C798 C810 1.349 . S
C799 C797 1.327 . S
C799 C815 1.429 . S
C799 H821 0.950 . S
C800 H796 0.949 . S
C800 C808 1.574 . S
C800 C816 1.368 . S
H801 C809 0.950 1_565 S
H802 C807 0.950 . S
H803 C808 0.949 . S
H804 C810 0.950 . S
H805 C811 0.950 . S
H806 C812 0.949 . S
C807 H802 0.950 . S
C807 C809 1.327 . S
C807 C813 1.429 . S
C808 C800 1.574 . S
C808 H803 0.949 . S
C808 C814 1.368 . S
C809 C793 1.349 . S
C809 H801 0.950 1_545 S
C809 C807 1.327 . S
C810 C798 1.349 . S
C810 H804 0.950 . S
C810 C811 1.327 . S
C811 H805 0.950 . S
C811 C810 1.327 . S
C811 C815 1.429 . S
C812 C795 1.574 . S
C812 H806 0.949 . S
C812 C816 1.368 . S
C813 C794 1.429 . S
C813 C807 1.429 . S
C813 C814 1.523 . S
C814 C795 1.368 . S
C814 C808 1.368 . S
C814 C813 1.523 . S
C815 C799 1.429 . S
C815 C811 1.429 . S
C815 C816 1.523 . S
C816 C800 1.368 . S
C816 C812 1.368 . S
C816 C815 1.523 . S
H817 C792 0.950 . S
H818 C794 0.950 . S
H819 C795 0.949 . S
H820 C797 0.950 . S
H821 C799 0.950 . S
C822 C823 1.349 . S
C822 C824 1.327 . S
C822 H847 0.950 . S
C823 C822 1.349 . S
C823 C839 1.349 . S
C824 C822 1.327 . S
C824 C843 1.429 . S
C824 H848 0.950 . S
C825 C842 1.574 . S
C825 C844 1.368 . S
C825 H849 0.949 . S
H826 C830 0.949 . S
C827 C828 1.349 . S
C827 C829 1.327 . S
C827 H850 0.950 . S
C828 C827 1.349 . S
C828 C840 1.349 . S
C829 C827 1.327 . S
C829 C845 1.429 . S
C829 H851 0.950 . S
C830 H826 0.949 . S
C830 C838 1.574 . S
C830 C846 1.368 . S
H831 C839 0.950 1_655 S
H832 C837 0.950 . S
H833 C838 0.949 . S
H834 C840 0.950 . S
H835 C841 0.950 . S
H836 C842 0.949 . S
C837 H832 0.950 . S
C837 C839 1.327 . S
C837 C843 1.429 . S
C838 C830 1.574 . S
C838 H833 0.949 . S
C838 C844 1.368 . S
C839 C823 1.349 . S
C839 H831 0.950 1_455 S
C839 C837 1.327 . S
C840 C828 1.349 . S
C840 H834 0.950 . S
C840 C841 1.327 . S
C841 H835 0.950 . S
C841 C840 1.327 . S
C841 C845 1.429 . S
C842 C825 1.574 . S
C842 H836 0.949 . S
C842 C846 1.368 . S
C843 C824 1.429 . S
C843 C837 1.429 . S
C843 C844 1.523 . S
C844 C825 1.368 . S
C844 C838 1.368 . S
C844 C843 1.523 . S
C845 C829 1.429 . S
C845 C841 1.429 . S
C845 C846 1.523 . S
C846 C830 1.368 . S
C846 C842 1.368 . S
C846 C845 1.523 . S
H847 C822 0.950 . S
H848 C824 0.950 . S
H849 C825 0.949 . S
H850 C827 0.950 . S
H851 C829 0.950 . S
C852 C853 1.349 . S
C852 C854 1.327 . S
C852 H877 0.950 . S
C853 C852 1.349 . S
C853 C869 1.349 . S
C854 C852 1.327 . S
C854 C873 1.429 . S
C854 H878 0.950 . S
C855 C872 1.574 . S
C855 C874 1.368 . S
C855 H879 0.949 . S
H856 C860 0.949 . S
C857 C858 1.349 . S
C857 C859 1.327 . S
C857 H880 0.950 1_545 S
C858 C857 1.349 . S
C858 C870 1.349 . S
C859 C857 1.327 . S
C859 C875 1.429 . S
C859 H881 0.950 . S
C860 H856 0.949 . S
C860 C868 1.574 . S
C860 C876 1.368 . S
H861 C869 0.950 1_455 S
H862 C867 0.950 . S
H863 C868 0.949 . S
H864 C870 0.950 . S
H865 C871 0.950 . S
H866 C872 0.949 . S
C867 H862 0.950 . S
C867 C869 1.327 . S
C867 C873 1.429 . S
C868 C860 1.574 . S
C868 H863 0.949 . S
C868 C874 1.368 . S
C869 C853 1.349 . S
C869 H861 0.950 1_655 S
C869 C867 1.327 . S
C870 C858 1.349 . S
C870 H864 0.950 . S
C870 C871 1.327 . S
C871 H865 0.950 . S
C871 C870 1.327 . S
C871 C875 1.429 . S
C872 C855 1.574 . S
C872 H866 0.949 . S
C872 C876 1.368 . S
C873 C854 1.429 . S
C873 C867 1.429 . S
C873 C874 1.523 . S
C874 C855 1.368 . S
C874 C868 1.368 . S
C874 C873 1.523 . S
C875 C859 1.429 . S
C875 C871 1.429 . S
C875 C876 1.523 . S
C876 C860 1.368 . S
C876 C872 1.368 . S
C876 C875 1.523 . S
H877 C852 0.950 . S
H878 C854 0.950 . S
H879 C855 0.949 . S
H880 C857 0.950 1_565 S
H881 C859 0.950 . S
C882 C883 1.349 . S
C882 C884 1.327 . S
C882 H907 0.950 . S
C883 C882 1.349 . S
C883 C899 1.349 . S
C884 C882 1.327 . S
C884 C903 1.429 . S
C884 H908 0.950 . S
C885 C902 1.574 . S
C885 C904 1.368 . S
C885 H909 0.949 . S
H886 C890 0.949 . S
C887 C888 1.349 . S
C887 C889 1.327 . S
C887 H910 0.950 . S
C888 C887 1.349 . S
C888 C900 1.349 . S
C889 C887 1.327 . S
C889 C905 1.429 . S
C889 H911 0.950 . S
C890 H886 0.949 . S
C890 C898 1.574 . S
C890 C906 1.368 . S
H891 C899 0.950 . S
H892 C897 0.950 . S
H893 C898 0.949 . S
H894 C900 0.950 . S
H895 C901 0.950 . S
H896 C902 0.949 . S
C897 H892 0.950 . S
C897 C899 1.327 . S
C897 C903 1.429 . S
C898 C890 1.574 . S
C898 H893 0.949 . S
C898 C904 1.368 . S
C899 C883 1.349 . S
C899 H891 0.950 . S
C899 C897 1.327 . S
C900 C888 1.349 . S
C900 H894 0.950 . S
C900 C901 1.327 . S
C901 H895 0.950 . S
C901 C900 1.327 . S
C901 C905 1.429 . S
C902 C885 1.574 . S
C902 H896 0.949 . S
C902 C906 1.368 . S
C903 C884 1.429 . S
C903 C897 1.429 . S
C903 C904 1.523 . S
C904 C885 1.368 . S
C904 C898 1.368 . S
C904 C903 1.523 . S
C905 C889 1.429 . S
C905 C901 1.429 . S
C905 C906 1.523 . S
C906 C890 1.368 . S
C906 C902 1.368 . S
C906 C905 1.523 . S
H907 C882 0.950 . S
H908 C884 0.950 . S
H909 C885 0.949 . S
H910 C887 0.950 . S
H911 C889 0.950 . S
C912 C913 1.349 . S
C912 C914 1.327 . S
C912 H937 0.950 . S
C913 C912 1.349 . S
C913 C929 1.349 . S
C914 C912 1.327 . S
C914 C933 1.429 . S
C914 H938 0.950 . S
C915 C932 1.574 . S
C915 C934 1.368 . S
C915 H939 0.949 . S
H916 C920 0.949 . S
C917 C918 1.349 . S
C917 C919 1.327 . S
C917 H940 0.950 . S
C918 C917 1.349 . S
C918 C930 1.349 . S
C919 C917 1.327 . S
C919 C935 1.429 . S
C919 H941 0.950 . S
C920 H916 0.949 . S
C920 C928 1.574 . S
C920 C936 1.368 . S
H921 C929 0.950 . S
H922 C927 0.950 . S
H923 C928 0.949 . S
H924 C930 0.950 . S
H925 C931 0.950 . S
H926 C932 0.949 . S
C927 H922 0.950 . S
C927 C929 1.327 . S
C927 C933 1.429 . S
C928 C920 1.574 . S
C928 H923 0.949 . S
C928 C934 1.368 . S
C929 C913 1.349 . S
C929 H921 0.950 . S
C929 C927 1.327 . S
C930 C918 1.349 . S
C930 H924 0.950 . S
C930 C931 1.327 . S
C931 H925 0.950 . S
C931 C930 1.327 . S
C931 C935 1.429 . S
C932 C915 1.574 . S
C932 H926 0.949 . S
C932 C936 1.368 . S
C933 C914 1.429 . S
C933 C927 1.429 . S
C933 C934 1.523 . S
C934 C915 1.368 . S
C934 C928 1.368 . S
C934 C933 1.523 . S
C935 C919 1.429 . S
C935 C931 1.429 . S
C935 C936 1.523 . S
C936 C920 1.368 . S
C936 C932 1.368 . S
C936 C935 1.523 . S
H937 C912 0.950 . S
H938 C914 0.950 . S
H939 C915 0.949 . S
H940 C917 0.950 . S
H941 C919 0.950 . S
C942 C943 1.349 . S
C942 C944 1.327 . S
C942 H967 0.950 . S
C943 C942 1.349 . S
C943 C959 1.349 . S
C944 C942 1.327 . S
C944 C963 1.429 . S
C944 H968 0.950 . S
C945 C962 1.574 . S
C945 C964 1.368 . S
C945 H969 0.949 . S
H946 C950 0.949 . S
C947 C948 1.349 . S
C947 C949 1.327 . S
C947 H970 0.950 1_455 S
C948 C947 1.349 . S
C948 C960 1.349 . S
C949 C947 1.327 . S
C949 C965 1.429 . S
C949 H971 0.950 . S
C950 H946 0.949 . S
C950 C958 1.574 . S
C950 C966 1.368 . S
H951 C959 0.956 . S
H952 C957 0.950 . S
H953 C958 0.949 . S
H954 C960 0.950 . S
H955 C961 0.950 . S
H956 C962 0.949 . S
C957 H952 0.950 . S
C957 C959 1.327 . S
C957 C963 1.429 . S
C958 C950 1.574 . S
C958 H953 0.949 . S
C958 C964 1.368 . S
C959 C943 1.349 . S
C959 H951 0.956 . S
C959 C957 1.327 . S
C960 C948 1.349 . S
C960 H954 0.950 . S
C960 C961 1.327 . S
C961 H955 0.950 . S
C961 C960 1.327 . S
C961 C965 1.429 . S
C962 C945 1.574 . S
C962 H956 0.949 . S
C962 C966 1.368 . S
C963 C944 1.429 . S
C963 C957 1.429 . S
C963 C964 1.523 . S
C964 C945 1.368 . S
C964 C958 1.368 . S
C964 C963 1.523 . S
C965 C949 1.429 . S
C965 C961 1.429 . S
C965 C966 1.523 . S
C966 C950 1.368 . S
C966 C962 1.368 . S
C966 C965 1.523 . S
H967 C942 0.950 . S
H968 C944 0.950 . S
H969 C945 0.949 . S
H970 C947 0.950 1_655 S
H971 C949 0.950 . S
C972 C973 1.349 . S
C972 C974 1.327 . S
C972 H997 0.950 . S
C973 C972 1.349 . S
C973 C989 1.349 . S
C974 C972 1.327 . S
C974 C993 1.429 . S
C974 H998 0.950 . S
C975 C992 1.574 . S
C975 C994 1.368 . S
C975 H999 0.949 . S
H976 C980 0.949 . S
C977 C978 1.349 . S
C977 C979 1.327 . S
C977 H1000 0.950 . S
C978 C977 1.349 . S
C978 C990 1.349 . S
C979 C977 1.327 . S
C979 C995 1.429 . S
C979 H1001 0.950 . S
C980 H976 0.949 . S
C980 C988 1.574 . S
C980 C996 1.368 . S
H981 C989 0.950 . S
H982 C987 0.950 . S
H983 C988 0.949 . S
H984 C990 0.950 . S
H985 C991 0.950 . S
H986 C992 0.949 . S
C987 H982 0.950 . S
C987 C989 1.327 . S
C987 C993 1.429 . S
C988 C980 1.574 . S
C988 H983 0.949 . S
C988 C994 1.368 . S
C989 C973 1.349 . S
C989 H981 0.950 . S
C989 C987 1.327 . S
C990 C978 1.349 . S
C990 H984 0.950 . S
C990 C991 1.327 . S
C991 H985 0.950 . S
C991 C990 1.327 . S
C991 C995 1.429 . S
C992 C975 1.574 . S
C992 H986 0.949 . S
C992 C996 1.368 . S
C993 C974 1.429 . S
C993 C987 1.429 . S
C993 C994 1.523 . S
C994 C975 1.368 . S
C994 C988 1.368 . S
C994 C993 1.523 . S
C995 C979 1.429 . S
C995 C991 1.429 . S
C995 C996 1.523 . S
C996 C980 1.368 . S
C996 C992 1.368 . S
C996 C995 1.523 . S
H997 C972 0.950 . S
H998 C974 0.950 . S
H999 C975 0.949 . S
H1000 C977 0.950 . S
H1001 C979 0.950 . S
C1002 C1003 1.349 . S
C1002 C1004 1.327 . S
C1002 H1027 0.950 . S
C1003 C1002 1.349 . S
C1003 C1019 1.349 . S
C1004 C1002 1.327 . S
C1004 C1023 1.429 . S
C1004 H1028 0.950 . S
C1005 C1022 1.573 1_655 S
C1005 C1024 1.372 . S
C1005 H1029 0.955 . S
H1006 C1010 0.955 . S
C1007 C1008 1.349 . S
C1007 C1009 1.327 . S
C1007 H1030 0.950 . S
C1008 C1007 1.349 . S
C1008 C1020 1.349 . S
C1009 C1007 1.327 . S
C1009 C1025 1.429 . S
C1009 H1031 0.950 . S
C1010 H1006 0.955 . S
C1010 C1018 1.573 1_455 S
C1010 C1026 1.371 . S
H1011 C1019 0.950 . S
H1012 C1017 0.950 . S
H1013 C1018 0.949 . S
H1014 C1020 0.950 . S
H1015 C1021 0.950 . S
H1016 C1022 0.949 . S
C1017 H1012 0.950 . S
C1017 C1019 1.327 . S
C1017 C1023 1.429 . S
C1018 C1010 1.573 1_655 S
C1018 H1013 0.949 . S
C1018 C1024 1.368 . S
C1019 C1003 1.349 . S
C1019 H1011 0.950 . S
C1019 C1017 1.327 . S
C1020 C1008 1.349 . S
C1020 H1014 0.950 . S
C1020 C1021 1.327 . S
C1021 H1015 0.950 . S
C1021 C1020 1.327 . S
C1021 C1025 1.429 . S
C1022 C1005 1.573 1_455 S
C1022 H1016 0.949 . S
C1022 C1026 1.368 . S
C1023 C1004 1.429 . S
C1023 C1017 1.429 . S
C1023 C1024 1.523 . S
C1024 C1005 1.372 . S
C1024 C1018 1.368 . S
C1024 C1023 1.523 . S
C1025 C1009 1.429 . S
C1025 C1021 1.429 . S
C1025 C1026 1.523 . S
C1026 C1010 1.371 . S
C1026 C1022 1.368 . S
C1026 C1025 1.523 . S
H1027 C1002 0.950 . S
H1028 C1004 0.950 . S
H1029 C1005 0.955 . S
H1030 C1007 0.950 . S
H1031 C1009 0.950 . S
C1032 C1033 1.349 . S
C1032 C1034 1.327 . S
C1032 H1057 0.950 . S
C1033 C1032 1.349 . S
C1033 C1049 1.349 . S
C1034 C1032 1.327 . S
C1034 C1053 1.429 . S
C1034 H1058 0.950 . S
C1035 C1052 1.574 1_554 S
C1035 C1054 1.368 1_565 S
C1035 H1059 0.949 . S
H1036 C1040 0.949 . S
C1037 C1038 1.349 . S
C1037 C1039 1.327 . S
C1037 H1060 0.950 . S
C1038 C1037 1.349 . S
C1038 C1050 1.349 . S
C1039 C1037 1.327 . S
C1039 C1055 1.429 . S
C1039 H1061 0.950 . S
C1040 H1036 0.949 . S
C1040 C1048 1.574 1_556 S
C1040 C1056 1.368 1_545 S
H1041 C1049 0.950 1_565 S
H1042 C1047 0.950 . S
H1043 C1048 0.949 . S
H1044 C1050 0.950 1_545 S
H1045 C1051 0.950 . S
H1046 C1052 0.949 . S
C1047 H1042 0.950 . S
C1047 C1049 1.327 1_565 S
C1047 C1053 1.429 1_565 S
C1048 C1040 1.574 1_554 S
C1048 H1043 0.949 . S
C1048 C1054 1.368 . S
C1049 C1033 1.349 . S
C1049 H1041 0.950 1_545 S
C1049 C1047 1.327 1_545 S
C1050 C1038 1.349 . S
C1050 H1044 0.950 1_565 S
C1050 C1051 1.327 1_565 S
C1051 H1045 0.950 . S
C1051 C1050 1.327 1_545 S
C1051 C1055 1.429 1_545 S
C1052 C1035 1.574 1_556 S
C1052 H1046 0.949 . S
C1052 C1056 1.368 . S
C1053 C1034 1.429 . S
C1053 C1047 1.429 1_545 S
C1053 C1054 1.523 . S
C1054 C1035 1.368 1_545 S
C1054 C1048 1.368 . S
C1054 C1053 1.523 . S
C1055 C1039 1.429 . S
C1055 C1051 1.429 1_565 S
C1055 C1056 1.523 . S
C1056 C1040 1.368 1_565 S
C1056 C1052 1.368 . S
C1056 C1055 1.523 . S
H1057 C1032 0.950 . S
H1058 C1034 0.950 . S
H1059 C1035 0.949 . S
H1060 C1037 0.950 . S
H1061 C1039 0.950 . S
C1062 C1063 1.349 . S
C1062 C1064 1.327 . S
C1062 H1087 0.950 . S
C1063 C1062 1.349 . S
C1063 C1079 1.349 . S
C1064 C1062 1.327 . S
C1064 C1083 1.429 . S
C1064 H1088 0.950 . S
C1065 C1082 1.574 . S
C1065 C1084 1.368 . S
C1065 H1089 0.949 . S
H1066 C1070 0.949 . S
C1067 C1068 1.349 . S
C1067 C1069 1.327 . S
C1067 H1090 0.950 . S
C1068 C1067 1.349 . S
C1068 C1080 1.349 . S
C1069 C1067 1.327 . S
C1069 C1085 1.429 . S
C1069 H1091 0.950 . S
C1070 H1066 0.949 . S
C1070 C1078 1.574 . S
C1070 C1086 1.368 . S
H1071 C1079 0.950 . S
H1072 C1077 0.950 . S
H1073 C1078 0.949 . S
H1074 C1080 0.950 . S
H1075 C1081 0.950 . S
H1076 C1082 0.949 . S
C1077 H1072 0.950 . S
C1077 C1079 1.327 . S
C1077 C1083 1.429 . S
C1078 C1070 1.574 . S
C1078 H1073 0.949 . S
C1078 C1084 1.368 . S
C1079 C1063 1.349 . S
C1079 H1071 0.950 . S
C1079 C1077 1.327 . S
C1080 C1068 1.349 . S
C1080 H1074 0.950 . S
C1080 C1081 1.327 . S
C1081 H1075 0.950 . S
C1081 C1080 1.327 . S
C1081 C1085 1.429 . S
C1082 C1065 1.574 . S
C1082 H1076 0.949 . S
C1082 C1086 1.368 . S
C1083 C1064 1.429 . S
C1083 C1077 1.429 . S
C1083 C1084 1.523 . S
C1084 C1065 1.368 . S
C1084 C1078 1.368 . S
C1084 C1083 1.523 . S
C1085 C1069 1.429 . S
C1085 C1081 1.429 . S
C1085 C1086 1.523 . S
C1086 C1070 1.368 . S
C1086 C1082 1.368 . S
C1086 C1085 1.523 . S
H1087 C1062 0.950 . S
H1088 C1064 0.950 . S
H1089 C1065 0.949 . S
H1090 C1067 0.950 . S
H1091 C1069 0.950 . S
C1092 C1093 1.349 . S
C1092 C1094 1.327 . S
C1092 H1117 0.950 . S
C1093 C1092 1.349 . S
C1093 C1109 1.349 . S
C1094 C1092 1.327 . S
C1094 C1113 1.429 . S
C1094 H1118 0.950 . S
C1095 C1112 1.574 . S
C1095 C1114 1.368 . S
C1095 H1119 0.949 . S
H1096 C1100 0.949 . S
C1097 C1098 1.349 . S
C1097 C1099 1.327 . S
C1097 H1120 0.950 . S
C1098 C1097 1.349 . S
C1098 C1110 1.349 . S
C1099 C1097 1.327 . S
C1099 C1115 1.429 . S
C1099 H1121 0.950 . S
C1100 H1096 0.949 . S
C1100 C1108 1.574 . S
C1100 C1116 1.368 . S
H1101 C1109 0.950 . S
H1102 C1107 0.950 . S
H1103 C1108 0.949 . S
H1104 C1110 0.950 . S
H1105 C1111 0.950 . S
H1106 C1112 0.949 . S
C1107 H1102 0.950 . S
C1107 C1109 1.327 . S
C1107 C1113 1.429 . S
C1108 C1100 1.574 . S
C1108 H1103 0.949 . S
C1108 C1114 1.368 1_655 S
C1109 C1093 1.349 . S
C1109 H1101 0.950 . S
C1109 C1107 1.327 . S
C1110 C1098 1.349 . S
C1110 H1104 0.950 . S
C1110 C1111 1.327 . S
C1111 H1105 0.950 . S
C1111 C1110 1.327 . S
C1111 C1115 1.429 . S
C1112 C1095 1.574 . S
C1112 H1106 0.949 . S
C1112 C1116 1.368 1_455 S
C1113 C1094 1.429 . S
C1113 C1107 1.429 . S
C1113 C1114 1.523 . S
C1114 C1095 1.368 . S
C1114 C1108 1.368 1_455 S
C1114 C1113 1.523 . S
C1115 C1099 1.429 . S
C1115 C1111 1.429 . S
C1115 C1116 1.523 . S
C1116 C1100 1.368 . S
C1116 C1112 1.368 1_655 S
C1116 C1115 1.523 . S
H1117 C1092 0.950 . S
H1118 C1094 0.950 . S
H1119 C1095 0.949 . S
H1120 C1097 0.950 . S
H1121 C1099 0.950 . S
C1122 C1123 1.349 . S
C1122 C1124 1.327 . S
C1122 H1147 0.950 . S
C1123 C1122 1.349 . S
C1123 C1139 1.349 . S
C1124 C1122 1.327 . S
C1124 C1143 1.429 . S
C1124 H1148 0.950 . S
C1125 C1142 1.574 1_554 S
C1125 C1144 1.368 1_545 S
C1125 H1149 0.949 . S
H1126 C1130 0.949 . S
C1127 C1128 1.349 . S
C1127 C1129 1.327 . S
C1127 H1150 0.950 . S
C1128 C1127 1.349 . S
C1128 C1140 1.349 . S
C1129 C1127 1.327 . S
C1129 C1145 1.429 . S
C1129 H1151 0.950 . S
C1130 H1126 0.949 . S
C1130 C1138 1.574 1_556 S
C1130 C1146 1.368 1_565 S
H1131 C1139 0.950 . S
H1132 C1137 0.950 1_545 S
H1133 C1138 0.949 . S
H1134 C1140 0.950 . S
H1135 C1141 0.950 1_565 S
H1136 C1142 0.949 . S
C1137 H1132 0.950 1_565 S
C1137 C1139 1.327 . S
C1137 C1143 1.429 . S
C1138 C1130 1.574 1_554 S
C1138 H1133 0.949 . S
C1138 C1144 1.368 . S
C1139 C1123 1.349 . S
C1139 H1131 0.950 . S
C1139 C1137 1.327 . S
C1140 C1128 1.349 . S
C1140 H1134 0.950 . S
C1140 C1141 1.327 . S
C1141 H1135 0.950 1_545 S
C1141 C1140 1.327 . S
C1141 C1145 1.429 . S
C1142 C1125 1.574 1_556 S
C1142 H1136 0.949 . S
C1142 C1146 1.368 . S
C1143 C1124 1.429 . S
C1143 C1137 1.429 . S
C1143 C1144 1.523 . S
C1144 C1125 1.368 1_565 S
C1144 C1138 1.368 . S
C1144 C1143 1.523 . S
C1145 C1129 1.429 . S
C1145 C1141 1.429 . S
C1145 C1146 1.523 . S
C1146 C1130 1.368 1_545 S
C1146 C1142 1.368 . S
C1146 C1145 1.523 . S
H1147 C1122 0.950 . S
H1148 C1124 0.950 . S
H1149 C1125 0.949 . S
H1150 C1127 0.950 . S
H1151 C1129 0.950 . S
C433 C399 1.616 . S
C438 C3 1.616 . S
C463 C39 1.616 . S
C468 C219 1.616 . S
C493 C75 1.616 . S
C498 C255 1.616 . S
C523 C111 1.616 . S
C528 C291 1.616 . S
C553 C327 1.616 . S
C558 C147 1.616 . S
C583 C183 1.616 . S
C588 C363 1.616 . S
C613 C112 1.122 . S
C618 C4 1.122 . S
C643 C148 1.122 . S
C648 C40 1.122 . S
C673 C184 1.121 . S
C678 C76 1.122 . S
C703 C220 1.122 . S
C708 C328 1.122 . S
C733 C256 1.122 . S
C738 C364 1.122 . S
C763 C292 1.122 . S
C768 C400 1.122 . S
C793 C290 0.179 . S
C798 C2 0.179 . S
C823 C38 0.179 . S
C828 C326 0.179 . S
C853 C362 0.178 . S
C858 C74 0.178 . S
C883 C398 0.179 . S
C888 C110 0.179 . S
C913 C218 0.179 . S
C918 C146 0.179 . S
C943 C182 0.178 . S
C948 C254 0.178 . S
C973 C338 1.509 . S
C978 C14 1.509 . S
C1003 C50 1.509 . S
C1008 C374 1.509 . S
C1033 C410 1.509 . S
C1038 C86 1.509 . S
C1063 C122 1.509 . S
C1068 C230 1.509 . S
C1093 C158 1.509 . S
C1098 C266 1.509 . S
C1123 C302 1.509 . S
C1128 C194 1.509 . S
