# Generated by pormake.
# Topology rob, (6)-cn, num edge types: 1
# Building blocks:
#     Node 0, Type 0, BuildingBlock: PAMTUU_clean_sbu_0, # of connection points: 6
#     Node 1, Type 0, BuildingBlock: PAMTUU_clean_sbu_0, # of connection points: 6
#     Node 2, Type 0, BuildingBlock: PAMTUU_clean_sbu_0, # of connection points: 6
#     Node 3, Type 0, BuildingBlock: PAMTUU_clean_sbu_0, # of connection points: 6
#     Edge 4, Type (0, 0), BuildingBlock: OJICUG_clean_linker_0, # of connection points: 2
#     Edge 5, Type (0, 0), BuildingBlock: OJICUG_clean_linker_0, # of connection points: 2
#     Edge 6, Type (0, 0), BuildingBlock: OJICUG_clean_linker_0, # of connection points: 2
#     Edge 7, Type (0, 0), BuildingBlock: OJICUG_clean_linker_0, # of connection points: 2
#     Edge 8, Type (0, 0), BuildingBlock: OJICUG_clean_linker_0, # of connection points: 2
#     Edge 9, Type (0, 0), BuildingBlock: OJICUG_clean_linker_0, # of connection points: 2
#     Edge 10, Type (0, 0), BuildingBlock: OJICUG_clean_linker_0, # of connection points: 2
#     Edge 11, Type (0, 0), BuildingBlock: OJICUG_clean_linker_0, # of connection points: 2
#     Edge 12, Type (0, 0), BuildingBlock: OJICUG_clean_linker_0, # of connection points: 2
#     Edge 13, Type (0, 0), BuildingBlock: OJICUG_clean_linker_0, # of connection points: 2
#     Edge 14, Type (0, 0), BuildingBlock: OJICUG_clean_linker_0, # of connection points: 2
#     Edge 15, Type (0, 0), BuildingBlock: OJICUG_clean_linker_0, # of connection points: 2
# Relax obj value: 0.240
# Max RMSD: 0.261
# Mean RMSD: 0.261
data_MOF--net-rob--node1-PAMTUU_clean_sbu_0--edge1-OJICUG_clean_linker_0
_symmetry_space_group_name_H-M    P1
_symmetry_Int_Tables_number       1
_symmetry_cell_setting            triclinic
loop_
_symmetry_equiv_pos_as_xyz
'x, y, z'
_cell_length_a     15.164001
_cell_length_b     15.868018
_cell_length_c     28.670552
_cell_angle_alpha  90.149093
_cell_angle_beta   47.990708
_cell_angle_gamma 90.115269
loop_
_atom_site_label
_atom_site_type_symbol
_atom_site_fract_x
_atom_site_fract_y
_atom_site_fract_z
_atom_type_partial_charge
Tb0 Tb 0.18485 0.2997 1.00663 0.0
Tb1 Tb 0.33923 0.1623 0.01546 0.0
C2 C 0.38516 0.35533 1.00398 0.0
C3 C 0.0645 0.39954 0.94203 0.0
C4 C 0.03616 0.40464 0.85377 0.0
C5 C 0.08994 0.47201 0.85874 0.0
C6 C 0.10339 0.46961 0.90257 0.0
C7 C 0.01095 0.33204 0.93706 0.0
C8 C 0.99667 0.33472 0.89363 0.0
C9 C 0.08144 0.39766 0.9874 0.0
O10 O 0.34627 0.26717 0.9126 0.0
O11 O 0.39395 0.13632 0.92463 0.0
O12 O 0.17866 0.09921 0.04772 0.0
O13 O 0.1425 0.17611 0.99452 0.0
O14 O 0.49752 0.12825 0.99425 0.0
O15 O 0.34112 0.05069 0.05359 0.0
O16 O 0.2326 0.23458 0.10153 0.0
O17 O 0.08103 0.27847 0.10691 0.0
O18 O 0.27808 0.37232 0.02648 0.0
O19 O 0.43435 0.28157 0.97881 0.0
C20 C 0.39392 0.1922 0.89085 0.0
O21 O 0.02721 0.33827 0.02982 0.0
O22 O 0.18937 0.40981 0.96428 0.0
C23 C 0.12978 0.10732 0.02361 0.0
C24 C 0.45895 0.05901 0.08058 0.0
C25 C 0.48674 0.03969 0.16868 0.0
C26 C 0.38064 0.01585 0.18397 0.0
C27 C 0.36694 0.02527 0.14061 0.0
C28 C 0.56587 0.08166 0.06477 0.0
C29 C 0.57964 0.07215 0.10827 0.0
C30 C 0.44617 0.0653 0.0335 0.0
C31 C 0.12552 0.2645 0.13299 0.0
H32 H 0.12078 0.52699 0.82912 0.0
H33 H 0.14476 0.52256 0.90547 0.0
H34 H 0.98068 0.27675 0.96639 0.0
H35 H 0.9565 0.28111 0.89052 0.0
H36 H 0.30811 -0.01102 0.22944 0.0
H37 H 0.28417 0.00527 0.15419 0.0
H38 H 0.63918 0.10641 0.01861 0.0
H39 H 0.66246 0.09159 0.09486 0.0
Tb40 Tb 0.65589 0.77538 0.04425 0.0
Tb41 Tb 0.81027 0.63798 0.05308 0.0
C42 C 0.86534 0.83036 0.0361 0.0
C43 C 0.53617 0.87867 0.97913 0.0
C44 C 0.50838 0.89799 0.89104 0.0
C45 C 0.61448 0.92182 0.87574 0.0
C46 C 0.62818 0.9124 0.9191 0.0
C47 C 0.42924 0.85603 0.99494 0.0
C48 C 0.41547 0.86554 0.95145 0.0
C49 C 0.54894 0.87238 0.02621 0.0
O50 O 0.76252 0.7031 0.95818 0.0
O51 O 0.91409 0.65921 0.95281 0.0
O52 O 0.71704 0.56536 0.03324 0.0
O53 O 0.56077 0.65611 0.08091 0.0
O54 O 0.9679 0.59941 0.0299 0.0
O55 O 0.80574 0.52787 0.09544 0.0
O56 O 0.64884 0.67051 0.14712 0.0
O57 O 0.60117 0.80136 0.13508 0.0
O58 O 0.81646 0.83847 1.012 0.0
O59 O 0.85261 0.76157 0.0652 0.0
C60 C 0.8696 0.67318 0.92673 0.0
O61 O 0.4976 0.80944 0.06546 0.0
O62 O 0.654 0.88699 1.00613 0.0
C63 C 0.60995 0.58235 0.05573 0.0
C64 C 0.93061 0.53814 0.11768 0.0
C65 C 0.95896 0.53304 0.20595 0.0
C66 C 0.90517 0.46566 0.20098 0.0
C67 C 0.89172 0.46807 0.15715 0.0
C68 C 0.98416 0.60564 0.12266 0.0
C69 C -0.00156 0.60296 0.16608 0.0
C70 C 0.91367 0.54002 0.07232 0.0
C71 C 0.60119 0.74549 0.16887 0.0
H72 H 0.68701 0.94868 0.83027 0.0
H73 H 0.71095 0.9324 0.90552 0.0
H74 H 0.35593 0.83128 0.04111 0.0
H75 H 0.33265 0.8461 0.96486 0.0
H76 H 0.87434 0.41069 0.23059 0.0
H77 H 0.85035 0.41512 0.15425 0.0
H78 H 0.01443 0.66093 0.09333 0.0
H79 H 0.03861 0.65657 0.16919 0.0
Tb80 Tb 0.31032 0.80013 0.55315 0.0
Tb81 Tb 0.15606 0.66225 0.54423 0.0
C82 C 0.11013 0.85537 0.55551 0.0
C83 C 0.43069 0.90155 0.61792 0.0
C84 C 0.45985 0.90842 0.7059 0.0
C85 C 0.39743 -0.02791 0.70433 0.0
C86 C 0.38363 -0.03113 0.66063 0.0
C87 C 0.49357 0.83805 0.61924 0.0
C88 C 0.50814 0.84158 0.66255 0.0
C89 C 0.4134 0.89867 0.57265 0.0
O90 O 0.14861 0.76802 0.6471 0.0
O91 O 0.10146 0.63677 0.63501 0.0
O92 O 0.31603 0.59873 0.5123 0.0
O93 O 0.35353 0.67663 0.5648 0.0
O94 O 0.99734 0.62775 0.56586 0.0
O95 O 0.15417 0.55078 0.50572 0.0
O96 O 0.2629 0.73408 0.45812 0.0
O97 O 0.41415 0.77922 0.45281 0.0
O98 O 0.21705 0.87256 0.53332 0.0
O99 O 0.06096 0.78159 0.58054 0.0
C100 C 0.10131 0.69299 0.66883 0.0
O101 O 0.4678 0.83916 0.53016 0.0
O102 O 0.30547 0.91047 0.59573 0.0
C103 C 0.36556 0.60737 0.53606 0.0
C104 C 0.03606 0.55984 0.47902 0.0
C105 C 0.00871 0.5426 0.39061 0.0
C106 C 0.11785 0.52476 0.37362 0.0
C107 C 0.13135 0.53317 0.41712 0.0
C108 C 0.9264 0.57675 0.49641 0.0
C109 C 0.91277 0.56816 0.45278 0.0
C110 C 0.04891 0.56522 0.52609 0.0
C111 C 0.36969 0.76465 0.42673 0.0
H112 H 0.36001 0.02484 0.73654 0.0
H113 H 0.33559 0.01904 0.66038 0.0
H114 H 0.53095 0.78513 0.58714 0.0
H115 H 0.55546 0.79086 0.66283 0.0
H116 H 0.19303 0.50337 0.32664 0.0
H117 H 0.21672 0.5181 0.40209 0.0
H118 H 0.85084 0.59612 0.54393 0.0
H119 H 0.82755 0.5829 0.46752 0.0
Tb120 Tb 0.83905 0.27542 0.51548 0.0
Tb121 Tb 0.6848 0.13754 0.50657 0.0
C122 C 0.62955 0.3303 0.52366 0.0
C123 C 0.95906 0.37783 0.5807 0.0
C124 C 0.9864 0.39507 0.6691 0.0
C125 C 0.87727 0.4129 0.68609 0.0
C126 C 0.86376 0.40449 0.64259 0.0
C127 C 0.06872 0.36093 0.56331 0.0
C128 C 0.08234 0.36952 0.60694 0.0
C129 C 0.94621 0.37245 0.53362 0.0
O130 O 0.73222 0.2036 0.6016 0.0
O131 O 0.58096 0.15846 0.60691 0.0
O132 O 0.77806 0.06511 0.5264 0.0
O133 O 0.93415 0.15608 0.47918 0.0
O134 O 0.52731 0.09851 0.52955 0.0
O135 O 0.68964 0.02721 0.46399 0.0
O136 O 0.84651 0.16965 0.41262 0.0
O137 O 0.89366 0.3009 0.4247 0.0
O138 O 0.67909 0.33894 0.54741 0.0
O139 O 0.64158 0.26104 0.49491 0.0
C140 C 0.62542 0.17302 0.63299 0.0
O141 O -0.00222 0.30992 0.49385 0.0
O142 O 0.84095 0.38689 0.55399 0.0
C143 C 0.88498 0.08231 0.50421 0.0
C144 C 0.56442 0.03612 0.4418 0.0
C145 C 0.53526 0.02925 0.35382 0.0
C146 C 0.5977 0.96559 0.35539 0.0
C147 C 0.6115 0.9688 0.39908 0.0
C148 C 0.50153 0.09962 0.44049 0.0
C149 C 0.48695 0.09608 0.39717 0.0
C150 C 0.58171 0.03901 0.48707 0.0
C151 C 0.8938 0.24467 0.39088 0.0
H152 H 0.80208 0.4343 0.73307 0.0
H153 H 0.77839 0.41956 0.65763 0.0
H154 H 0.14429 0.34155 0.51578 0.0
H155 H 0.16757 0.35478 0.59219 0.0
H156 H 0.63513 0.91285 0.32317 0.0
H157 H 0.65954 0.91864 0.39933 0.0
H158 H 0.46413 0.15253 0.47259 0.0
H159 H 0.43962 0.1468 0.3969 0.0
C160 C 0.61059 0.45047 1.0072 0.0
C161 C 0.55048 0.52247 0.04467 0.0
H162 H 0.60673 0.34221 0.96397 0.0
C163 C 0.43688 0.54024 0.06713 0.0
H164 H 0.69884 0.43541 0.98841 0.0
C165 C 0.38453 0.48721 0.05252 0.0
C166 C 0.44463 0.41521 0.01505 0.0
H167 H 0.38839 0.59547 0.09574 0.0
H168 H 0.29627 0.50227 0.07131 0.0
C169 C 0.55824 0.39745 0.99259 0.0
C170 C 0.43972 0.45812 0.50753 0.0
C171 C 0.43404 0.5366 0.53221 0.0
H172 H 0.50497 0.33163 0.48579 0.0
C173 C 0.49258 0.54647 0.55456 0.0
H174 H 0.39511 0.44805 0.4903 0.0
C175 C 0.5554 0.47955 0.55219 0.0
C176 C 0.56108 0.40108 0.52751 0.0
H177 H 0.49015 0.60604 0.57393 0.0
H178 H 0.60001 0.48962 0.56942 0.0
C179 C 0.50254 0.39121 0.50516 0.0
C180 C 0.05406 0.95867 0.05295 0.0
C181 C 0.0612 0.03658 0.02749 0.0
H182 H 0.98744 0.83258 0.07534 0.0
C183 C 0.00403 0.04594 1.00437 0.0
H184 H 0.09762 0.94907 0.07078 0.0
C185 C 0.94105 -0.02099 1.00676 0.0
C186 C 0.93392 0.9011 0.03223 0.0
H187 H 0.00767 0.1051 0.98437 0.0
H188 H 0.8975 -0.01139 0.98893 0.0
C189 C 0.99109 0.89174 0.05534 0.0
C190 C 0.05699 0.04134 0.49408 0.0
C191 C 0.94458 0.02251 0.51517 0.0
H192 H 0.1966 0.00432 0.49089 0.0
C193 C 0.88576 0.94936 0.55116 0.0
H194 H 0.10452 0.09747 0.46667 0.0
C195 C 0.93812 0.89633 0.56564 0.0
C196 C 0.05053 0.91517 0.54455 0.0
H197 H 0.79851 0.93335 0.56882 0.0
H198 H 0.89059 0.8402 0.59305 0.0
C199 C 0.10935 -0.01169 0.50856 0.0
C200 C 0.61688 0.00381 0.24394 0.0
C201 C 0.52166 0.02712 0.30678 0.0
H202 H 0.68078 -0.01107 0.15128 0.0
C203 C 0.41397 0.05115 0.32403 0.0
H204 H 0.70127 -0.01487 0.22887 0.0
C205 C 0.40255 0.054 0.27951 0.0
C206 C 0.49854 0.03294 0.21632 0.0
H207 H 0.33823 0.06821 0.37209 0.0
H208 H 0.31892 0.07477 0.29451 0.0
C209 C 0.60559 0.00694 0.19923 0.0
C210 C 0.60807 0.73614 0.25278 0.0
C211 C 0.55076 0.76601 0.23272 0.0
H212 H 0.59665 0.71539 0.33059 0.0
C213 C 0.44257 0.80872 0.27535 0.0
H214 H 0.69289 0.70423 0.22026 0.0
C215 C 0.38702 0.8139 0.33858 0.0
C216 C 0.44078 0.77871 0.35934 0.0
H217 H 0.39758 0.83302 0.26074 0.0
H218 H 0.29944 0.84184 0.37187 0.0
C219 C 0.55402 0.74327 0.31556 0.0
C220 C 0.38952 0.93074 0.86048 0.0
C221 C 0.49658 0.90473 0.8434 0.0
H222 H 0.29385 0.95256 0.83085 0.0
C223 C 0.59256 0.88366 0.7802 0.0
H224 H 0.31434 0.94876 0.90844 0.0
C225 C 0.58114 0.88651 0.73569 0.0
C226 C 0.47346 0.91055 0.75293 0.0
H227 H 0.67618 0.86289 0.76521 0.0
H228 H 0.65688 0.86944 0.68763 0.0
C229 C 0.37824 0.93388 0.81577 0.0
C230 C 0.44111 0.19443 0.74415 0.0
C231 C 0.55434 0.15897 0.70038 0.0
H232 H 0.30224 0.23348 0.83945 0.0
C233 C 0.60809 0.12376 0.72114 0.0
H234 H 0.3985 0.2223 0.72911 0.0
C235 C 0.55253 0.12894 0.78437 0.0
C236 C 0.44436 0.17168 0.82699 0.0
H237 H 0.69565 0.09581 0.68785 0.0
H238 H 0.59752 0.10464 0.79898 0.0
C239 C 0.38706 0.20155 0.80693 0.0
C240 C 0.88139 0.50167 0.31428 0.0
C241 C 0.97304 0.53133 0.25277 0.0
H242 H 0.82056 0.48144 0.40582 0.0
C243 C 0.07754 0.56179 0.23667 0.0
H244 H 0.79953 0.4779 0.32842 0.0
C245 C 0.08918 0.56447 0.2811 0.0
C246 C 0.99666 0.53674 0.34303 0.0
H247 H 0.15063 0.5839 0.18957 0.0
H248 H 0.17011 0.59016 0.26711 0.0
C249 C 0.89288 0.50461 0.35891 0.0
C250 C 0.0509 0.30935 0.28486 0.0
C251 C 0.9442 0.26477 0.32702 0.0
H252 H 0.19294 0.34433 0.18868 0.0
C253 C 0.88817 0.23308 0.30656 0.0
H254 H 0.09485 0.3351 0.29978 0.0
C255 C 0.9421 0.24043 0.24384 0.0
C256 C 0.05397 0.278 0.20049 0.0
H257 H 0.80445 0.19971 0.33871 0.0
H258 H 0.9006 0.21122 0.22846 0.0
C259 C 0.10638 0.31482 0.22165 0.0
C260 C 0.90593 0.3732 0.77862 0.0
C261 C -0.00155 0.40093 0.71669 0.0
H262 H 0.84449 0.35377 0.87014 0.0
C263 C 0.10223 0.43307 0.7008 0.0
H264 H 0.82501 0.34751 0.79261 0.0
C265 C 0.11372 0.43601 0.74544 0.0
C266 C 0.02207 0.40634 0.80695 0.0
H267 H 0.17455 0.45624 0.6539 0.0
H268 H 0.19558 0.45978 0.7313 0.0
C269 C 0.91758 0.37589 0.82304 0.0
C270 C 0.10696 0.70457 0.75315 0.0
C271 C 0.05092 0.6729 0.73269 0.0
H272 H 0.09454 0.72644 0.83124 0.0
C273 C 0.94421 0.62833 0.77486 0.0
H274 H 0.19069 0.73794 0.721 0.0
C275 C 0.88872 0.62287 0.83807 0.0
C276 C 0.94115 0.65969 0.85922 0.0
H277 H 0.90024 0.60259 0.75995 0.0
H278 H 0.80216 0.59337 0.87104 0.0
C279 C 0.05303 0.69724 0.81587 0.0
loop_
_geom_bond_atom_site_label_1
_geom_bond_atom_site_label_2
_geom_bond_distance
_geom_bond_site_symmetry_2
_ccdc_geom_bond_type
Tb0 C9 2.764 1_554 S
Tb0 O10 2.325 1_554 S
Tb0 O13 2.303 . S
Tb0 O17 2.322 . S
Tb0 O18 2.349 . S
Tb0 O21 2.415 1_554 S
Tb0 O22 2.399 1_554 S
Tb1 O11 2.322 1_554 S
Tb1 O12 2.349 . S
Tb1 O14 2.415 . S
Tb1 O15 2.399 . S
Tb1 O16 2.325 . S
Tb1 O19 2.303 . S
Tb1 C30 2.764 . S
C2 O18 1.261 . S
C2 O19 1.257 . S
C3 C6 1.358 . S
C3 C7 1.332 . S
C3 C9 1.504 . S
C4 C5 1.373 . S
C4 C8 1.308 . S
C5 C4 1.373 . S
C5 C6 1.429 . S
C5 H32 0.932 . S
C6 C3 1.358 . S
C6 C5 1.429 . S
C6 H33 0.930 . S
C7 C3 1.332 . S
C7 C8 1.394 . S
C7 H34 0.932 . S
C8 C4 1.308 . S
C8 C7 1.394 . S
C8 H35 0.929 . S
C9 Tb0 2.764 1_556 S
C9 C3 1.504 . S
C9 O21 1.239 . S
C9 O22 1.263 . S
O10 Tb0 2.325 1_556 S
O10 C20 1.236 . S
O11 Tb1 2.322 1_556 S
O11 C20 1.257 . S
O12 Tb1 2.349 . S
O12 C23 1.261 . S
O13 Tb0 2.303 . S
O13 C23 1.257 . S
O14 Tb1 2.415 . S
O14 C30 1.239 . S
O15 Tb1 2.399 . S
O15 C30 1.263 . S
O16 Tb1 2.325 . S
O16 C31 1.236 . S
O17 Tb0 2.322 . S
O17 C31 1.257 . S
O18 Tb0 2.349 . S
O18 C2 1.261 . S
O19 Tb1 2.303 . S
O19 C2 1.257 . S
C20 O10 1.236 . S
C20 O11 1.257 . S
O21 Tb0 2.415 1_556 S
O21 C9 1.239 . S
O22 Tb0 2.399 1_556 S
O22 C9 1.263 . S
C23 O12 1.261 . S
C23 O13 1.257 . S
C24 C27 1.358 . S
C24 C28 1.332 . S
C24 C30 1.504 . S
C25 C26 1.373 1_545 S
C25 C29 1.308 . S
C26 C25 1.373 1_565 S
C26 C27 1.429 1_565 S
C26 H36 0.932 . S
C27 C24 1.358 . S
C27 C26 1.429 1_545 S
C27 H37 0.930 1_545 S
C28 C24 1.332 . S
C28 C29 1.394 . S
C28 H38 0.932 . S
C29 C25 1.308 . S
C29 C28 1.394 . S
C29 H39 0.929 . S
C30 Tb1 2.764 . S
C30 O14 1.239 . S
C30 O15 1.263 . S
C30 C24 1.504 . S
C31 O16 1.236 . S
C31 O17 1.257 . S
H32 C5 0.932 . S
H33 C6 0.930 . S
H34 C7 0.932 . S
H35 C8 0.929 . S
H36 C26 0.932 . S
H37 C27 0.930 1_565 S
H38 C28 0.932 . S
H39 C29 0.929 . S
Tb40 C49 2.764 1_554 S
Tb40 O50 2.325 1_554 S
Tb40 O53 2.303 . S
Tb40 O57 2.322 . S
Tb40 O58 2.349 . S
Tb40 O61 2.415 1_554 S
Tb40 O62 2.399 1_554 S
Tb41 O51 2.322 1_554 S
Tb41 O52 2.349 . S
Tb41 O54 2.415 . S
Tb41 O55 2.399 . S
Tb41 O56 2.325 . S
Tb41 O59 2.303 . S
Tb41 C70 2.764 . S
C42 O58 1.261 . S
C42 O59 1.257 . S
C43 C46 1.358 . S
C43 C47 1.332 . S
C43 C49 1.504 . S
C44 C45 1.373 1_565 S
C44 C48 1.308 . S
C45 C44 1.373 1_545 S
C45 C46 1.429 1_545 S
C45 H72 0.932 . S
C46 C43 1.358 . S
C46 C45 1.429 1_565 S
C46 H73 0.930 1_565 S
C47 C43 1.332 . S
C47 C48 1.394 . S
C47 H74 0.932 . S
C48 C44 1.308 . S
C48 C47 1.394 . S
C48 H75 0.929 . S
C49 Tb40 2.764 1_556 S
C49 C43 1.504 . S
C49 O61 1.239 . S
C49 O62 1.263 . S
O50 Tb40 2.325 1_556 S
O50 C60 1.236 . S
O51 Tb41 2.322 1_556 S
O51 C60 1.257 . S
O52 Tb41 2.349 . S
O52 C63 1.261 . S
O53 Tb40 2.303 . S
O53 C63 1.257 . S
O54 Tb41 2.415 . S
O54 C70 1.239 . S
O55 Tb41 2.399 . S
O55 C70 1.263 . S
O56 Tb41 2.325 . S
O56 C71 1.236 . S
O57 Tb40 2.322 . S
O57 C71 1.257 . S
O58 Tb40 2.349 . S
O58 C42 1.261 . S
O59 Tb41 2.303 . S
O59 C42 1.257 . S
C60 O50 1.236 . S
C60 O51 1.257 . S
O61 Tb40 2.415 1_556 S
O61 C49 1.239 . S
O62 Tb40 2.399 1_556 S
O62 C49 1.263 . S
C63 O52 1.261 . S
C63 O53 1.257 . S
C64 C67 1.358 . S
C64 C68 1.332 . S
C64 C70 1.504 . S
C65 C66 1.373 . S
C65 C69 1.308 . S
C66 C65 1.373 . S
C66 C67 1.429 . S
C66 H76 0.932 . S
C67 C64 1.358 . S
C67 C66 1.429 . S
C67 H77 0.930 . S
C68 C64 1.332 . S
C68 C69 1.394 . S
C68 H78 0.932 . S
C69 C65 1.308 . S
C69 C68 1.394 . S
C69 H79 0.929 . S
C70 Tb41 2.764 . S
C70 O54 1.239 . S
C70 O55 1.263 . S
C70 C64 1.504 . S
C71 O56 1.236 . S
C71 O57 1.257 . S
H72 C45 0.932 . S
H73 C46 0.930 1_545 S
H74 C47 0.932 . S
H75 C48 0.929 . S
H76 C66 0.932 . S
H77 C67 0.930 . S
H78 C68 0.932 . S
H79 C69 0.929 . S
Tb80 C89 2.764 . S
Tb80 O90 2.325 . S
Tb80 O93 2.303 . S
Tb80 O97 2.322 . S
Tb80 O98 2.349 . S
Tb80 O101 2.415 . S
Tb80 O102 2.399 . S
Tb81 O91 2.322 . S
Tb81 O92 2.349 . S
Tb81 O94 2.415 . S
Tb81 O95 2.399 . S
Tb81 O96 2.325 . S
Tb81 O99 2.303 . S
Tb81 C110 2.764 . S
C82 O98 1.261 . S
C82 O99 1.257 . S
C83 C86 1.358 . S
C83 C87 1.332 . S
C83 C89 1.504 . S
C84 C85 1.373 1_565 S
C84 C88 1.308 . S
C85 C84 1.373 1_545 S
C85 C86 1.429 1_545 S
C85 H112 0.932 . S
C86 C83 1.358 . S
C86 C85 1.429 1_565 S
C86 H113 0.930 1_565 S
C87 C83 1.332 . S
C87 C88 1.394 . S
C87 H114 0.932 . S
C88 C84 1.308 . S
C88 C87 1.394 . S
C88 H115 0.929 . S
C89 Tb80 2.764 . S
C89 C83 1.504 . S
C89 O101 1.239 . S
C89 O102 1.263 . S
O90 Tb80 2.325 . S
O90 C100 1.236 . S
O91 Tb81 2.322 . S
O91 C100 1.257 . S
O92 Tb81 2.349 . S
O92 C103 1.261 . S
O93 Tb80 2.303 . S
O93 C103 1.257 . S
O94 Tb81 2.415 . S
O94 C110 1.239 . S
O95 Tb81 2.399 . S
O95 C110 1.263 . S
O96 Tb81 2.325 . S
O96 C111 1.236 . S
O97 Tb80 2.322 . S
O97 C111 1.257 . S
O98 Tb80 2.349 . S
O98 C82 1.261 . S
O99 Tb81 2.303 . S
O99 C82 1.257 . S
C100 O90 1.236 . S
C100 O91 1.257 . S
O101 Tb80 2.415 . S
O101 C89 1.239 . S
O102 Tb80 2.399 . S
O102 C89 1.263 . S
C103 O92 1.261 . S
C103 O93 1.257 . S
C104 C107 1.358 . S
C104 C108 1.332 . S
C104 C110 1.504 . S
C105 C106 1.373 . S
C105 C109 1.308 . S
C106 C105 1.373 . S
C106 C107 1.429 . S
C106 H116 0.932 . S
C107 C104 1.358 . S
C107 C106 1.429 . S
C107 H117 0.930 . S
C108 C104 1.332 . S
C108 C109 1.394 . S
C108 H118 0.932 . S
C109 C105 1.308 . S
C109 C108 1.394 . S
C109 H119 0.929 . S
C110 Tb81 2.764 . S
C110 O94 1.239 . S
C110 O95 1.263 . S
C110 C104 1.504 . S
C111 O96 1.236 . S
C111 O97 1.257 . S
H112 C85 0.932 . S
H113 C86 0.930 1_545 S
H114 C87 0.932 . S
H115 C88 0.929 . S
H116 C106 0.932 . S
H117 C107 0.930 . S
H118 C108 0.932 . S
H119 C109 0.929 . S
Tb120 C129 2.764 . S
Tb120 O130 2.325 . S
Tb120 O133 2.303 . S
Tb120 O137 2.322 . S
Tb120 O138 2.349 . S
Tb120 O141 2.415 . S
Tb120 O142 2.399 . S
Tb121 O131 2.322 . S
Tb121 O132 2.349 . S
Tb121 O134 2.415 . S
Tb121 O135 2.399 . S
Tb121 O136 2.325 . S
Tb121 O139 2.303 . S
Tb121 C150 2.764 . S
C122 O138 1.261 . S
C122 O139 1.257 . S
C123 C126 1.358 . S
C123 C127 1.332 . S
C123 C129 1.504 . S
C124 C125 1.373 . S
C124 C128 1.308 . S
C125 C124 1.373 . S
C125 C126 1.429 . S
C125 H152 0.932 . S
C126 C123 1.358 . S
C126 C125 1.429 . S
C126 H153 0.930 . S
C127 C123 1.332 . S
C127 C128 1.394 . S
C127 H154 0.932 . S
C128 C124 1.308 . S
C128 C127 1.394 . S
C128 H155 0.929 . S
C129 Tb120 2.764 . S
C129 C123 1.504 . S
C129 O141 1.239 . S
C129 O142 1.263 . S
O130 Tb120 2.325 . S
O130 C140 1.236 . S
O131 Tb121 2.322 . S
O131 C140 1.257 . S
O132 Tb121 2.349 . S
O132 C143 1.261 . S
O133 Tb120 2.303 . S
O133 C143 1.257 . S
O134 Tb121 2.415 . S
O134 C150 1.239 . S
O135 Tb121 2.399 . S
O135 C150 1.263 . S
O136 Tb121 2.325 . S
O136 C151 1.236 . S
O137 Tb120 2.322 . S
O137 C151 1.257 . S
O138 Tb120 2.349 . S
O138 C122 1.261 . S
O139 Tb121 2.303 . S
O139 C122 1.257 . S
C140 O130 1.236 . S
C140 O131 1.257 . S
O141 Tb120 2.415 . S
O141 C129 1.239 . S
O142 Tb120 2.399 . S
O142 C129 1.263 . S
C143 O132 1.261 . S
C143 O133 1.257 . S
C144 C147 1.358 . S
C144 C148 1.332 . S
C144 C150 1.504 . S
C145 C146 1.373 1_545 S
C145 C149 1.308 . S
C146 C145 1.373 1_565 S
C146 C147 1.429 1_565 S
C146 H156 0.932 . S
C147 C144 1.358 . S
C147 C146 1.429 1_545 S
C147 H157 0.930 1_545 S
C148 C144 1.332 . S
C148 C149 1.394 . S
C148 H158 0.932 . S
C149 C145 1.308 . S
C149 C148 1.394 . S
C149 H159 0.929 . S
C150 Tb121 2.764 . S
C150 O134 1.239 . S
C150 O135 1.263 . S
C150 C144 1.504 . S
C151 O136 1.236 . S
C151 O137 1.257 . S
H152 C125 0.932 . S
H153 C126 0.930 . S
H154 C127 0.932 . S
H155 C128 0.929 . S
H156 C146 0.932 . S
H157 C147 0.930 1_565 S
H158 C148 0.932 . S
H159 C149 0.929 . S
C160 C161 1.387 1_556 S
C160 H164 0.950 . S
C160 C169 1.390 . S
C161 C160 1.387 1_554 S
C161 C163 1.387 . S
H162 C169 0.950 . S
C163 C161 1.387 . S
C163 C165 1.390 . S
C163 H167 0.950 . S
H164 C160 0.950 . S
C165 C163 1.390 . S
C165 C166 1.387 . S
C165 H168 0.950 . S
C166 C165 1.387 . S
C166 C169 1.387 1_554 S
H167 C163 0.950 . S
H168 C165 0.950 . S
C169 C160 1.390 . S
C169 H162 0.950 . S
C169 C166 1.387 1_556 S
C170 C171 1.387 . S
C170 H174 0.950 . S
C170 C179 1.390 . S
C171 C170 1.387 . S
C171 C173 1.387 . S
H172 C179 0.950 . S
C173 C171 1.387 . S
C173 C175 1.390 . S
C173 H177 0.950 . S
H174 C170 0.950 . S
C175 C173 1.390 . S
C175 C176 1.387 . S
C175 H178 0.950 . S
C176 C175 1.387 . S
C176 C179 1.387 . S
H177 C173 0.950 . S
H178 C175 0.950 . S
C179 C170 1.390 . S
C179 H172 0.950 . S
C179 C176 1.387 . S
C180 C181 1.387 1_556 S
C180 H184 0.950 . S
C180 C189 1.390 1_455 S
C181 C180 1.387 1_554 S
C181 C183 1.387 1_545 S
H182 C189 0.950 . S
C183 C181 1.387 1_565 S
C183 C185 1.390 1_455 S
C183 H187 0.950 . S
H184 C180 0.950 . S
C185 C183 1.390 1_655 S
C185 C186 1.387 . S
C185 H188 0.950 . S
C186 C185 1.387 . S
C186 C189 1.387 1_564 S
H187 C183 0.950 . S
H188 C185 0.950 . S
C189 C180 1.390 1_655 S
C189 H182 0.950 . S
C189 C186 1.387 1_546 S
C190 C191 1.387 1_565 S
C190 H194 0.950 . S
C190 C199 1.390 1_655 S
C191 C190 1.387 1_545 S
C191 C193 1.387 . S
H192 C199 0.950 . S
C193 C191 1.387 . S
C193 C195 1.390 1_655 S
C193 H197 0.950 . S
H194 C190 0.950 . S
C195 C193 1.390 1_455 S
C195 C196 1.387 1_545 S
C195 H198 0.950 . S
C196 C195 1.387 1_565 S
C196 C199 1.387 . S
H197 C193 0.950 . S
H198 C195 0.950 . S
C199 C190 1.390 1_455 S
C199 H192 0.950 . S
C199 C196 1.387 . S
C200 C201 1.387 . S
C200 H204 0.950 . S
C200 C209 1.390 . S
C201 C200 1.387 . S
C201 C203 1.387 1_545 S
H202 C209 0.950 . S
C203 C201 1.387 1_565 S
C203 C205 1.390 . S
C203 H207 0.950 . S
H204 C200 0.950 . S
C205 C203 1.390 . S
C205 C206 1.387 1_565 S
C205 H208 0.950 . S
C206 C205 1.387 1_545 S
C206 C209 1.387 . S
H207 C203 0.950 . S
H208 C205 0.950 . S
C209 C200 1.390 . S
C209 H202 0.950 . S
C209 C206 1.387 . S
C210 C211 1.387 . S
C210 H214 0.950 . S
C210 C219 1.390 . S
C211 C210 1.387 . S
C211 C213 1.387 . S
H212 C219 0.950 . S
C213 C211 1.387 . S
C213 C215 1.390 . S
C213 H217 0.950 . S
H214 C210 0.950 . S
C215 C213 1.390 . S
C215 C216 1.387 . S
C215 H218 0.950 . S
C216 C215 1.387 . S
C216 C219 1.387 . S
H217 C213 0.950 . S
H218 C215 0.950 . S
C219 C210 1.390 . S
C219 H212 0.950 . S
C219 C216 1.387 . S
C220 C221 1.387 . S
C220 H224 0.950 . S
C220 C229 1.390 . S
C221 C220 1.387 . S
C221 C223 1.387 1_565 S
H222 C229 0.950 . S
C223 C221 1.387 1_545 S
C223 C225 1.390 . S
C223 H227 0.950 . S
H224 C220 0.950 . S
C225 C223 1.390 . S
C225 C226 1.387 1_545 S
C225 H228 0.950 . S
C226 C225 1.387 1_565 S
C226 C229 1.387 . S
H227 C223 0.950 . S
H228 C225 0.950 . S
C229 C220 1.390 . S
C229 H222 0.950 . S
C229 C226 1.387 . S
C230 C231 1.387 . S
C230 H234 0.950 . S
C230 C239 1.390 . S
C231 C230 1.387 . S
C231 C233 1.387 . S
H232 C239 0.950 . S
C233 C231 1.387 . S
C233 C235 1.390 . S
C233 H237 0.950 . S
H234 C230 0.950 . S
C235 C233 1.390 . S
C235 C236 1.387 . S
C235 H238 0.950 . S
C236 C235 1.387 . S
C236 C239 1.387 . S
H237 C233 0.950 . S
H238 C235 0.950 . S
C239 C230 1.390 . S
C239 H232 0.950 . S
C239 C236 1.387 . S
C240 C241 1.387 . S
C240 H244 0.950 . S
C240 C249 1.390 1_455 S
C241 C240 1.387 . S
C241 C243 1.387 . S
H242 C249 0.950 . S
C243 C241 1.387 . S
C243 C245 1.390 1_455 S
C243 H247 0.950 . S
H244 C240 0.950 . S
C245 C243 1.390 1_655 S
C245 C246 1.387 . S
C245 H248 0.950 . S
C246 C245 1.387 . S
C246 C249 1.387 . S
H247 C243 0.950 . S
H248 C245 0.950 . S
C249 C240 1.390 1_655 S
C249 H242 0.950 . S
C249 C246 1.387 . S
C250 C251 1.387 . S
C250 H254 0.950 . S
C250 C259 1.390 1_655 S
C251 C250 1.387 . S
C251 C253 1.387 . S
H252 C259 0.950 . S
C253 C251 1.387 . S
C253 C255 1.390 1_655 S
C253 H257 0.950 . S
H254 C250 0.950 . S
C255 C253 1.390 1_455 S
C255 C256 1.387 . S
C255 H258 0.950 . S
C256 C255 1.387 . S
C256 C259 1.387 . S
H257 C253 0.950 . S
H258 C255 0.950 . S
C259 C250 1.390 1_455 S
C259 H252 0.950 . S
C259 C256 1.387 . S
C260 C261 1.387 . S
C260 H264 0.950 . S
C260 C269 1.390 1_455 S
C261 C260 1.387 . S
C261 C263 1.387 . S
H262 C269 0.950 . S
C263 C261 1.387 . S
C263 C265 1.390 1_455 S
C263 H267 0.950 . S
H264 C260 0.950 . S
C265 C263 1.390 1_655 S
C265 C266 1.387 . S
C265 H268 0.950 . S
C266 C265 1.387 . S
C266 C269 1.387 . S
H267 C263 0.950 . S
H268 C265 0.950 . S
C269 C260 1.390 1_655 S
C269 H262 0.950 . S
C269 C266 1.387 . S
C270 C271 1.387 . S
C270 H274 0.950 . S
C270 C279 1.390 1_455 S
C271 C270 1.387 . S
C271 C273 1.387 . S
H272 C279 0.950 . S
C273 C271 1.387 . S
C273 C275 1.390 1_455 S
C273 H277 0.950 . S
H274 C270 0.950 . S
C275 C273 1.390 1_655 S
C275 C276 1.387 . S
C275 H278 0.950 . S
C276 C275 1.387 . S
C276 C279 1.387 . S
H277 C273 0.950 . S
H278 C275 0.950 . S
C279 C270 1.390 1_655 S
C279 H272 0.950 . S
C279 C276 1.387 . S
C161 C63 1.740 . S
C166 C2 1.740 . S
C171 C103 1.740 . S
C176 C122 1.740 . S
C181 C23 1.740 . S
C186 C42 1.740 . S
C191 C143 1.740 . S
C196 C82 1.740 . S
C201 C145 1.309 . S
C206 C25 1.309 . S
C211 C71 1.684 . S
C216 C111 1.684 . S
C221 C44 1.306 . S
C226 C84 1.306 . S
C231 C140 1.685 . S
C236 C20 1.685 . S
C241 C65 1.306 1_455 S
C246 C105 1.306 1_655 S
C251 C151 1.685 . S
C256 C31 1.685 . S
C261 C124 1.306 1_455 S
C266 C4 1.306 1_655 S
C271 C100 1.685 . S
C276 C60 1.685 . S
