# Generated by pormake.
# Topology wnh, (7)-cn, num edge types: 1
# Building blocks:
#     Node 0, Type 0, BuildingBlock: OLANEW_clean_sbu_0, # of connection points: 7
#     Node 1, Type 0, BuildingBlock: OLANEW_clean_sbu_0, # of connection points: 7
#     Node 2, Type 0, BuildingBlock: OLANEW_clean_sbu_0, # of connection points: 7
#     Node 3, Type 0, BuildingBlock: OLANEW_clean_sbu_0, # of connection points: 7
#     Node 4, Type 0, BuildingBlock: OLANEW_clean_sbu_0, # of connection points: 7
#     Node 5, Type 0, BuildingBlock: OLANEW_clean_sbu_0, # of connection points: 7
#     Node 6, Type 0, BuildingBlock: OLANEW_clean_sbu_0, # of connection points: 7
#     Node 7, Type 0, BuildingBlock: OLANEW_clean_sbu_0, # of connection points: 7
#     Node 8, Type 0, BuildingBlock: OLANEW_clean_sbu_0, # of connection points: 7
#     Node 9, Type 0, BuildingBlock: OLANEW_clean_sbu_0, # of connection points: 7
#     Node 10, Type 0, BuildingBlock: OLANEW_clean_sbu_0, # of connection points: 7
#     Node 11, Type 0, BuildingBlock: OLANEW_clean_sbu_0, # of connection points: 7
#     Node 12, Type 0, BuildingBlock: OLANEW_clean_sbu_0, # of connection points: 7
#     Node 13, Type 0, BuildingBlock: OLANEW_clean_sbu_0, # of connection points: 7
#     Node 14, Type 0, BuildingBlock: OLANEW_clean_sbu_0, # of connection points: 7
#     Node 15, Type 0, BuildingBlock: OLANEW_clean_sbu_0, # of connection points: 7
#     Node 16, Type 0, BuildingBlock: OLANEW_clean_sbu_0, # of connection points: 7
#     Node 17, Type 0, BuildingBlock: OLANEW_clean_sbu_0, # of connection points: 7
#     Node 18, Type 0, BuildingBlock: OLANEW_clean_sbu_0, # of connection points: 7
#     Node 19, Type 0, BuildingBlock: OLANEW_clean_sbu_0, # of connection points: 7
#     Node 20, Type 0, BuildingBlock: OLANEW_clean_sbu_0, # of connection points: 7
#     Node 21, Type 0, BuildingBlock: OLANEW_clean_sbu_0, # of connection points: 7
#     Node 22, Type 0, BuildingBlock: OLANEW_clean_sbu_0, # of connection points: 7
#     Node 23, Type 0, BuildingBlock: OLANEW_clean_sbu_0, # of connection points: 7
#     Node 24, Type 0, BuildingBlock: OLANEW_clean_sbu_0, # of connection points: 7
#     Node 25, Type 0, BuildingBlock: OLANEW_clean_sbu_0, # of connection points: 7
#     Node 26, Type 0, BuildingBlock: OLANEW_clean_sbu_0, # of connection points: 7
#     Node 27, Type 0, BuildingBlock: OLANEW_clean_sbu_0, # of connection points: 7
#     Node 28, Type 0, BuildingBlock: OLANEW_clean_sbu_0, # of connection points: 7
#     Node 29, Type 0, BuildingBlock: OLANEW_clean_sbu_0, # of connection points: 7
#     Node 30, Type 0, BuildingBlock: OLANEW_clean_sbu_0, # of connection points: 7
#     Node 31, Type 0, BuildingBlock: OLANEW_clean_sbu_0, # of connection points: 7
#     Node 32, Type 0, BuildingBlock: OLANEW_clean_sbu_0, # of connection points: 7
#     Node 33, Type 0, BuildingBlock: OLANEW_clean_sbu_0, # of connection points: 7
#     Node 34, Type 0, BuildingBlock: OLANEW_clean_sbu_0, # of connection points: 7
#     Node 35, Type 0, BuildingBlock: OLANEW_clean_sbu_0, # of connection points: 7
#     Edge 36, Type (0, 0), BuildingBlock: XIVTED_clean_linker_0, # of connection points: 2
#     Edge 37, Type (0, 0), BuildingBlock: XIVTED_clean_linker_0, # of connection points: 2
#     Edge 38, Type (0, 0), BuildingBlock: XIVTED_clean_linker_0, # of connection points: 2
#     Edge 39, Type (0, 0), BuildingBlock: XIVTED_clean_linker_0, # of connection points: 2
#     Edge 40, Type (0, 0), BuildingBlock: XIVTED_clean_linker_0, # of connection points: 2
#     Edge 41, Type (0, 0), BuildingBlock: XIVTED_clean_linker_0, # of connection points: 2
#     Edge 42, Type (0, 0), BuildingBlock: XIVTED_clean_linker_0, # of connection points: 2
#     Edge 43, Type (0, 0), BuildingBlock: XIVTED_clean_linker_0, # of connection points: 2
#     Edge 44, Type (0, 0), BuildingBlock: XIVTED_clean_linker_0, # of connection points: 2
#     Edge 45, Type (0, 0), BuildingBlock: XIVTED_clean_linker_0, # of connection points: 2
#     Edge 46, Type (0, 0), BuildingBlock: XIVTED_clean_linker_0, # of connection points: 2
#     Edge 47, Type (0, 0), BuildingBlock: XIVTED_clean_linker_0, # of connection points: 2
#     Edge 48, Type (0, 0), BuildingBlock: XIVTED_clean_linker_0, # of connection points: 2
#     Edge 49, Type (0, 0), BuildingBlock: XIVTED_clean_linker_0, # of connection points: 2
#     Edge 50, Type (0, 0), BuildingBlock: XIVTED_clean_linker_0, # of connection points: 2
#     Edge 51, Type (0, 0), BuildingBlock: XIVTED_clean_linker_0, # of connection points: 2
#     Edge 52, Type (0, 0), BuildingBlock: XIVTED_clean_linker_0, # of connection points: 2
#     Edge 53, Type (0, 0), BuildingBlock: XIVTED_clean_linker_0, # of connection points: 2
#     Edge 54, Type (0, 0), BuildingBlock: XIVTED_clean_linker_0, # of connection points: 2
#     Edge 55, Type (0, 0), BuildingBlock: XIVTED_clean_linker_0, # of connection points: 2
#     Edge 56, Type (0, 0), BuildingBlock: XIVTED_clean_linker_0, # of connection points: 2
#     Edge 57, Type (0, 0), BuildingBlock: XIVTED_clean_linker_0, # of connection points: 2
#     Edge 58, Type (0, 0), BuildingBlock: XIVTED_clean_linker_0, # of connection points: 2
#     Edge 59, Type (0, 0), BuildingBlock: XIVTED_clean_linker_0, # of connection points: 2
#     Edge 60, Type (0, 0), BuildingBlock: XIVTED_clean_linker_0, # of connection points: 2
#     Edge 61, Type (0, 0), BuildingBlock: XIVTED_clean_linker_0, # of connection points: 2
#     Edge 62, Type (0, 0), BuildingBlock: XIVTED_clean_linker_0, # of connection points: 2
#     Edge 63, Type (0, 0), BuildingBlock: XIVTED_clean_linker_0, # of connection points: 2
#     Edge 64, Type (0, 0), BuildingBlock: XIVTED_clean_linker_0, # of connection points: 2
#     Edge 65, Type (0, 0), BuildingBlock: XIVTED_clean_linker_0, # of connection points: 2
#     Edge 66, Type (0, 0), BuildingBlock: XIVTED_clean_linker_0, # of connection points: 2
#     Edge 67, Type (0, 0), BuildingBlock: XIVTED_clean_linker_0, # of connection points: 2
#     Edge 68, Type (0, 0), BuildingBlock: XIVTED_clean_linker_0, # of connection points: 2
#     Edge 69, Type (0, 0), BuildingBlock: XIVTED_clean_linker_0, # of connection points: 2
#     Edge 70, Type (0, 0), BuildingBlock: XIVTED_clean_linker_0, # of connection points: 2
#     Edge 71, Type (0, 0), BuildingBlock: XIVTED_clean_linker_0, # of connection points: 2
#     Edge 72, Type (0, 0), BuildingBlock: XIVTED_clean_linker_0, # of connection points: 2
#     Edge 73, Type (0, 0), BuildingBlock: XIVTED_clean_linker_0, # of connection points: 2
#     Edge 74, Type (0, 0), BuildingBlock: XIVTED_clean_linker_0, # of connection points: 2
#     Edge 75, Type (0, 0), BuildingBlock: XIVTED_clean_linker_0, # of connection points: 2
#     Edge 76, Type (0, 0), BuildingBlock: XIVTED_clean_linker_0, # of connection points: 2
#     Edge 77, Type (0, 0), BuildingBlock: XIVTED_clean_linker_0, # of connection points: 2
#     Edge 78, Type (0, 0), BuildingBlock: XIVTED_clean_linker_0, # of connection points: 2
#     Edge 79, Type (0, 0), BuildingBlock: XIVTED_clean_linker_0, # of connection points: 2
#     Edge 80, Type (0, 0), BuildingBlock: XIVTED_clean_linker_0, # of connection points: 2
#     Edge 81, Type (0, 0), BuildingBlock: XIVTED_clean_linker_0, # of connection points: 2
#     Edge 82, Type (0, 0), BuildingBlock: XIVTED_clean_linker_0, # of connection points: 2
#     Edge 83, Type (0, 0), BuildingBlock: XIVTED_clean_linker_0, # of connection points: 2
#     Edge 84, Type (0, 0), BuildingBlock: XIVTED_clean_linker_0, # of connection points: 2
#     Edge 85, Type (0, 0), BuildingBlock: XIVTED_clean_linker_0, # of connection points: 2
#     Edge 86, Type (0, 0), BuildingBlock: XIVTED_clean_linker_0, # of connection points: 2
#     Edge 87, Type (0, 0), BuildingBlock: XIVTED_clean_linker_0, # of connection points: 2
#     Edge 88, Type (0, 0), BuildingBlock: XIVTED_clean_linker_0, # of connection points: 2
#     Edge 89, Type (0, 0), BuildingBlock: XIVTED_clean_linker_0, # of connection points: 2
#     Edge 90, Type (0, 0), BuildingBlock: XIVTED_clean_linker_0, # of connection points: 2
#     Edge 91, Type (0, 0), BuildingBlock: XIVTED_clean_linker_0, # of connection points: 2
#     Edge 92, Type (0, 0), BuildingBlock: XIVTED_clean_linker_0, # of connection points: 2
#     Edge 93, Type (0, 0), BuildingBlock: XIVTED_clean_linker_0, # of connection points: 2
#     Edge 94, Type (0, 0), BuildingBlock: XIVTED_clean_linker_0, # of connection points: 2
#     Edge 95, Type (0, 0), BuildingBlock: XIVTED_clean_linker_0, # of connection points: 2
#     Edge 96, Type (0, 0), BuildingBlock: XIVTED_clean_linker_0, # of connection points: 2
#     Edge 97, Type (0, 0), BuildingBlock: XIVTED_clean_linker_0, # of connection points: 2
#     Edge 98, Type (0, 0), BuildingBlock: XIVTED_clean_linker_0, # of connection points: 2
#     Edge 99, Type (0, 0), BuildingBlock: XIVTED_clean_linker_0, # of connection points: 2
#     Edge 100, Type (0, 0), BuildingBlock: XIVTED_clean_linker_0, # of connection points: 2
#     Edge 101, Type (0, 0), BuildingBlock: XIVTED_clean_linker_0, # of connection points: 2
#     Edge 102, Type (0, 0), BuildingBlock: XIVTED_clean_linker_0, # of connection points: 2
#     Edge 103, Type (0, 0), BuildingBlock: XIVTED_clean_linker_0, # of connection points: 2
#     Edge 104, Type (0, 0), BuildingBlock: XIVTED_clean_linker_0, # of connection points: 2
#     Edge 105, Type (0, 0), BuildingBlock: XIVTED_clean_linker_0, # of connection points: 2
#     Edge 106, Type (0, 0), BuildingBlock: XIVTED_clean_linker_0, # of connection points: 2
#     Edge 107, Type (0, 0), BuildingBlock: XIVTED_clean_linker_0, # of connection points: 2
#     Edge 108, Type (0, 0), BuildingBlock: XIVTED_clean_linker_0, # of connection points: 2
#     Edge 109, Type (0, 0), BuildingBlock: XIVTED_clean_linker_0, # of connection points: 2
#     Edge 110, Type (0, 0), BuildingBlock: XIVTED_clean_linker_0, # of connection points: 2
#     Edge 111, Type (0, 0), BuildingBlock: XIVTED_clean_linker_0, # of connection points: 2
#     Edge 112, Type (0, 0), BuildingBlock: XIVTED_clean_linker_0, # of connection points: 2
#     Edge 113, Type (0, 0), BuildingBlock: XIVTED_clean_linker_0, # of connection points: 2
#     Edge 114, Type (0, 0), BuildingBlock: XIVTED_clean_linker_0, # of connection points: 2
#     Edge 115, Type (0, 0), BuildingBlock: XIVTED_clean_linker_0, # of connection points: 2
#     Edge 116, Type (0, 0), BuildingBlock: XIVTED_clean_linker_0, # of connection points: 2
#     Edge 117, Type (0, 0), BuildingBlock: XIVTED_clean_linker_0, # of connection points: 2
#     Edge 118, Type (0, 0), BuildingBlock: XIVTED_clean_linker_0, # of connection points: 2
#     Edge 119, Type (0, 0), BuildingBlock: XIVTED_clean_linker_0, # of connection points: 2
#     Edge 120, Type (0, 0), BuildingBlock: XIVTED_clean_linker_0, # of connection points: 2
#     Edge 121, Type (0, 0), BuildingBlock: XIVTED_clean_linker_0, # of connection points: 2
#     Edge 122, Type (0, 0), BuildingBlock: XIVTED_clean_linker_0, # of connection points: 2
#     Edge 123, Type (0, 0), BuildingBlock: XIVTED_clean_linker_0, # of connection points: 2
#     Edge 124, Type (0, 0), BuildingBlock: XIVTED_clean_linker_0, # of connection points: 2
#     Edge 125, Type (0, 0), BuildingBlock: XIVTED_clean_linker_0, # of connection points: 2
#     Edge 126, Type (0, 0), BuildingBlock: XIVTED_clean_linker_0, # of connection points: 2
#     Edge 127, Type (0, 0), BuildingBlock: XIVTED_clean_linker_0, # of connection points: 2
#     Edge 128, Type (0, 0), BuildingBlock: XIVTED_clean_linker_0, # of connection points: 2
#     Edge 129, Type (0, 0), BuildingBlock: XIVTED_clean_linker_0, # of connection points: 2
#     Edge 130, Type (0, 0), BuildingBlock: XIVTED_clean_linker_0, # of connection points: 2
#     Edge 131, Type (0, 0), BuildingBlock: XIVTED_clean_linker_0, # of connection points: 2
#     Edge 132, Type (0, 0), BuildingBlock: XIVTED_clean_linker_0, # of connection points: 2
#     Edge 133, Type (0, 0), BuildingBlock: XIVTED_clean_linker_0, # of connection points: 2
#     Edge 134, Type (0, 0), BuildingBlock: XIVTED_clean_linker_0, # of connection points: 2
#     Edge 135, Type (0, 0), BuildingBlock: XIVTED_clean_linker_0, # of connection points: 2
#     Edge 136, Type (0, 0), BuildingBlock: XIVTED_clean_linker_0, # of connection points: 2
#     Edge 137, Type (0, 0), BuildingBlock: XIVTED_clean_linker_0, # of connection points: 2
#     Edge 138, Type (0, 0), BuildingBlock: XIVTED_clean_linker_0, # of connection points: 2
#     Edge 139, Type (0, 0), BuildingBlock: XIVTED_clean_linker_0, # of connection points: 2
#     Edge 140, Type (0, 0), BuildingBlock: XIVTED_clean_linker_0, # of connection points: 2
#     Edge 141, Type (0, 0), BuildingBlock: XIVTED_clean_linker_0, # of connection points: 2
#     Edge 142, Type (0, 0), BuildingBlock: XIVTED_clean_linker_0, # of connection points: 2
#     Edge 143, Type (0, 0), BuildingBlock: XIVTED_clean_linker_0, # of connection points: 2
#     Edge 144, Type (0, 0), BuildingBlock: XIVTED_clean_linker_0, # of connection points: 2
#     Edge 145, Type (0, 0), BuildingBlock: XIVTED_clean_linker_0, # of connection points: 2
#     Edge 146, Type (0, 0), BuildingBlock: XIVTED_clean_linker_0, # of connection points: 2
#     Edge 147, Type (0, 0), BuildingBlock: XIVTED_clean_linker_0, # of connection points: 2
#     Edge 148, Type (0, 0), BuildingBlock: XIVTED_clean_linker_0, # of connection points: 2
#     Edge 149, Type (0, 0), BuildingBlock: XIVTED_clean_linker_0, # of connection points: 2
#     Edge 150, Type (0, 0), BuildingBlock: XIVTED_clean_linker_0, # of connection points: 2
#     Edge 151, Type (0, 0), BuildingBlock: XIVTED_clean_linker_0, # of connection points: 2
#     Edge 152, Type (0, 0), BuildingBlock: XIVTED_clean_linker_0, # of connection points: 2
#     Edge 153, Type (0, 0), BuildingBlock: XIVTED_clean_linker_0, # of connection points: 2
#     Edge 154, Type (0, 0), BuildingBlock: XIVTED_clean_linker_0, # of connection points: 2
#     Edge 155, Type (0, 0), BuildingBlock: XIVTED_clean_linker_0, # of connection points: 2
#     Edge 156, Type (0, 0), BuildingBlock: XIVTED_clean_linker_0, # of connection points: 2
#     Edge 157, Type (0, 0), BuildingBlock: XIVTED_clean_linker_0, # of connection points: 2
#     Edge 158, Type (0, 0), BuildingBlock: XIVTED_clean_linker_0, # of connection points: 2
#     Edge 159, Type (0, 0), BuildingBlock: XIVTED_clean_linker_0, # of connection points: 2
#     Edge 160, Type (0, 0), BuildingBlock: XIVTED_clean_linker_0, # of connection points: 2
#     Edge 161, Type (0, 0), BuildingBlock: XIVTED_clean_linker_0, # of connection points: 2
# Relax obj value: 0.121
# Max RMSD: 0.238
# Mean RMSD: 0.238
data_MOF--net-wnh--node1-OLANEW_clean_sbu_0--edge1-XIVTED_clean_linker_0
_symmetry_space_group_name_H-M    P1
_symmetry_Int_Tables_number       1
_symmetry_cell_setting            triclinic
loop_
_symmetry_equiv_pos_as_xyz
'x, y, z'
_cell_length_a     85.315889
_cell_length_b     85.293385
_cell_length_c     47.610389
_cell_angle_alpha  90.015381
_cell_angle_beta   89.97295
_cell_angle_gamma 119.98979
loop_
_atom_site_label
_atom_site_type_symbol
_atom_site_fract_x
_atom_site_fract_y
_atom_site_fract_z
_atom_type_partial_charge
Cd0 Cd 0.23623 0.10943 0.99436 0.0
C1 C 0.27075 0.11091 0.97639 0.0
C2 C 0.19231 0.05646 0.12941 0.0
O3 O 0.18116 0.03903 0.13293 0.0
Cd4 Cd 0.28617 0.15594 0.97861 0.0
C5 C 0.18798 0.07008 0.13966 0.0
C6 C 0.1876 0.10074 0.15939 0.0
C7 C 0.20159 0.10207 0.14238 0.0
N8 N 0.20057 0.08687 0.13282 0.0
C9 C 0.17354 0.06762 0.15668 0.0
C10 C 0.17337 0.08322 0.16634 0.0
Co11 Co 0.22104 0.08939 0.11563 0.0
C12 C 0.21845 0.11836 0.13399 0.0
O13 O 0.2217 0.13482 0.1396 0.0
C14 C 0.24626 0.12939 0.10621 0.0
C15 C 0.2474 0.13376 0.07759 0.0
C16 C 0.26384 0.14741 0.06618 0.0
C17 C 0.27886 0.15667 0.08376 0.0
C18 C 0.27782 0.15182 0.11203 0.0
C19 C 0.26136 0.13854 0.12333 0.0
C20 C 0.26651 0.14978 0.03561 0.0
C21 C 0.21204 0.05183 0.09721 0.0
C22 C 0.19849 0.04038 0.07837 0.0
C23 C 0.22813 0.05125 0.09868 0.0
C24 C 0.23079 0.03973 0.08095 0.0
C25 C 0.2172 0.02829 0.06231 0.0
C26 C 0.20061 0.02808 0.06158 0.0
N27 N 0.20865 0.06304 0.11591 0.0
N28 N 0.22993 0.11519 0.11808 0.0
N29 N 0.2127 0.08876 0.07709 0.0
C30 C 0.19621 0.08821 0.06907 0.0
C31 C 0.1824 0.073 0.05554 0.0
C32 C 0.19366 0.10282 0.07534 0.0
C33 C 0.16572 0.07192 0.04957 0.0
H34 H 0.18465 0.06201 0.04988 0.0
C35 C 0.16313 0.08641 0.05718 0.0
C36 C 0.17704 0.10192 0.07016 0.0
C37 C 0.15089 0.05559 0.03587 0.0
H38 H 0.20473 0.11503 0.08392 0.0
H39 H 0.15028 0.08561 0.05297 0.0
C40 C 0.17418 0.11712 0.07842 0.0
O41 O 0.13489 0.05464 0.0304 0.0
O42 O 0.15301 0.04288 0.02952 0.0
O43 O 0.18596 0.13016 0.09114 0.0
O44 O 0.15855 0.11668 0.07188 0.0
H45 H 0.12503 0.04411 0.02156 0.0
H46 H 0.15648 0.12649 0.07693 0.0
N47 N 0.2418 0.0923 0.09921 0.0
C48 C 0.25534 0.09536 0.11651 0.0
C49 C 0.27164 0.09825 0.10487 0.0
C50 C 0.27288 0.0979 0.07526 0.0
C51 C 0.25801 0.09463 0.05809 0.0
C52 C 0.24214 0.09181 0.07127 0.0
N53 N 0.23289 0.09034 0.15137 0.0
C54 C 0.25027 0.09417 0.14628 0.0
O55 O 0.261 0.09468 0.16651 0.0
C56 C 0.22524 0.089 0.05842 0.0
O57 O 0.22049 0.12322 0.01269 0.0
O58 O 0.20568 0.10286 0.98063 0.0
C59 C 0.2247 0.08399 0.17854 0.0
C60 C 0.22847 0.09653 0.20042 0.0
C61 C 0.22265 0.09039 0.22793 0.0
C62 C 0.21308 0.07181 0.23341 0.0
C63 C 0.20995 0.0592 0.21236 0.0
C64 C 0.21589 0.06531 0.1849 0.0
O65 O 0.256 0.09593 0.97776 0.0
O66 O 0.26988 0.12448 0.98425 0.0
O67 O 0.25696 0.13675 0.01933 0.0
O68 O 0.28011 0.16364 0.02527 0.0
O69 O 0.2221 0.08559 0.03059 0.0
C70 C 0.25284 0.13554 0.92851 0.0
O71 O 0.26708 0.14982 0.93694 0.0
O72 O 0.24313 0.12231 0.94509 0.0
C73 C 0.20632 0.1147 0.99783 0.0
H74 H 0.1878 0.11269 0.1675 0.0
H75 H 0.16305 0.05423 0.16288 0.0
H76 H 0.16246 0.08175 0.17973 0.0
H77 H 0.23573 0.1263 0.06422 0.0
H78 H 0.29181 0.16664 0.07505 0.0
H79 H 0.26048 0.13439 0.14506 0.0
H80 H 0.1859 0.04054 0.07767 0.0
H81 H 0.23839 0.05921 0.11397 0.0
H82 H 0.21933 0.01896 0.04973 0.0
H83 H 0.28294 0.10061 0.11806 0.0
H84 H 0.28533 0.10015 0.06565 0.0
H85 H 0.25899 0.0945 0.03547 0.0
H86 H 0.23644 0.11091 0.19616 0.0
H87 H 0.20887 0.06711 0.25477 0.0
H88 H 0.21457 0.05567 0.169 0.0
Cd89 Cd 0.88446 0.12634 0.99512 0.0
C90 C 0.88451 0.16364 0.98157 0.0
C91 C 0.93717 0.133 0.12792 0.0
O92 O 0.95453 0.13886 0.13131 0.0
Cd93 Cd 0.84363 0.13605 0.98294 0.0
C94 C 0.92327 0.11494 0.13731 0.0
C95 C 0.89222 0.08352 0.15494 0.0
C96 C 0.89123 0.09697 0.13955 0.0
N97 N 0.90661 0.11137 0.13107 0.0
C98 C 0.92539 0.10215 0.15272 0.0
C99 C 0.90959 0.08621 0.16137 0.0
Co100 Co 0.90455 0.12988 0.11501 0.0
C101 C 0.87516 0.09803 0.13144 0.0
O102 O 0.85859 0.08479 0.13619 0.0
C103 C 0.86473 0.11589 0.10523 0.0
C104 C 0.86058 0.11355 0.07644 0.0
C105 C 0.84699 0.11665 0.06568 0.0
C106 C 0.83763 0.1219 0.08407 0.0
C107 C 0.84234 0.12493 0.11248 0.0
C108 C 0.85551 0.12139 0.1231 0.0
C109 C 0.84466 0.11781 0.03522 0.0
C110 C 0.94247 0.15883 0.09859 0.0
C111 C 0.95409 0.15747 0.07915 0.0
C112 C 0.9434 0.17554 0.10245 0.0
C113 C 0.95549 0.19053 0.08658 0.0
C114 C 0.96716 0.18912 0.06744 0.0
C115 C 0.967 0.17263 0.06429 0.0
N116 N 0.93092 0.14345 0.11574 0.0
N117 N 0.87869 0.1132 0.11665 0.0
N118 N 0.9054 0.12291 0.07612 0.0
C119 C 0.90549 0.10685 0.06729 0.0
C120 C 0.92093 0.10802 0.05496 0.0
C121 C 0.89031 0.0898 0.07201 0.0
C122 C 0.92165 0.09226 0.04872 0.0
H123 H 0.9324 0.12121 0.05057 0.0
C124 C 0.90655 0.07525 0.05476 0.0
C125 C 0.89081 0.07388 0.06651 0.0
C126 C 0.93825 0.0935 0.0365 0.0
H127 H 0.87804 0.08891 0.07987 0.0
H128 H 0.90705 0.06304 0.05038 0.0
C129 C 0.87503 0.05589 0.07341 0.0
O130 O 0.93893 0.0783 0.03107 0.0
O131 O 0.95144 0.10827 0.03138 0.0
O132 O 0.86185 0.05481 0.08542 0.0
O133 O 0.87513 0.04058 0.06649 0.0
H134 H 0.94963 0.07879 0.02321 0.0
H135 H 0.86496 0.02874 0.07069 0.0
N136 N 0.90213 0.14828 0.09961 0.0
C137 C 0.8992 0.15859 0.11747 0.0
C138 C 0.89709 0.17266 0.10658 0.0
C139 C 0.89811 0.1751 0.0771 0.0
C140 C 0.90124 0.16364 0.05932 0.0
C141 C 0.90316 0.14984 0.07175 0.0
N142 N 0.90345 0.14014 0.15139 0.0
C143 C 0.89994 0.15398 0.14703 0.0
O144 O 0.89953 0.16395 0.16777 0.0
C145 C 0.90568 0.13576 0.05814 0.0
O146 O 0.86672 0.09579 0.00883 0.0
O147 O 0.88988 0.10147 0.98252 0.0
C148 C 0.90956 0.13769 0.1784 0.0
C149 C 0.89706 0.12957 0.20054 0.0
C150 C 0.90319 0.12906 0.22776 0.0
C151 C 0.92169 0.13618 0.23253 0.0
C152 C 0.93437 0.14533 0.21137 0.0
C153 C 0.92824 0.14649 0.18447 0.0
O154 O 0.89389 0.15679 0.97283 0.0
O155 O 0.87347 0.15543 1.00121 0.0
O156 O 0.85733 0.12098 0.0183 0.0
O157 O 0.83116 0.1185 0.02558 0.0
O158 O 0.90886 0.13625 0.03021 0.0
C159 C 0.86344 0.12266 0.92919 0.0
O160 O 0.85108 0.12543 0.93907 0.0
O161 O 0.87587 0.12316 0.94483 0.0
C162 C 0.87609 0.09004 0.99655 0.0
H163 H 0.88011 0.07156 0.16211 0.0
H164 H 0.93868 0.1045 0.15836 0.0
H165 H 0.9108 0.07613 0.17346 0.0
H166 H 0.86811 0.10974 0.06249 0.0
H167 H 0.82768 0.12509 0.07596 0.0
H168 H 0.85953 0.12402 0.14497 0.0
H169 H 0.9536 0.14464 0.07661 0.0
H170 H 0.93532 0.17724 0.11829 0.0
H171 H 0.97693 0.20119 0.05644 0.0
H172 H 0.89492 0.18155 0.12025 0.0
H173 H 0.89656 0.18588 0.06806 0.0
H174 H 0.90207 0.1655 0.0368 0.0
H175 H 0.88278 0.12444 0.19678 0.0
H176 H 0.92637 0.13614 0.25372 0.0
H177 H 0.93799 0.15482 0.16872 0.0
Cd178 Cd 0.86769 0.75767 0.99582 0.0
C179 C 0.83004 0.7188 0.98214 0.0
C180 C 0.85929 0.8011 0.13243 0.0
O181 O 0.85373 0.81277 0.13686 0.0
Cd182 Cd 0.86015 0.70891 0.98022 0.0
C183 C 0.87714 0.80461 0.1418 0.0
C184 C 0.90754 0.80317 0.1599 0.0
C185 C 0.89457 0.78993 0.14228 0.0
N186 N 0.88075 0.79183 0.13347 0.0
C187 C 0.88949 0.81835 0.15948 0.0
C188 C 0.90494 0.81762 0.1683 0.0
Co189 Co 0.86211 0.77196 0.11608 0.0
C190 C 0.89318 0.7729 0.13273 0.0
O191 O 0.90589 0.76881 0.13752 0.0
C192 C 0.87528 0.74575 0.10414 0.0
C193 C 0.87872 0.7448 0.0755 0.0
C194 C 0.8756 0.72827 0.06382 0.0
C195 C 0.86896 0.71293 0.08105 0.0
C196 C 0.86526 0.71408 0.10921 0.0
C197 C 0.86874 0.73046 0.12084 0.0
C198 C 0.8762 0.72588 0.03331 0.0
C199 C 0.83467 0.78285 0.0997 0.0
C200 C 0.83747 0.79692 0.08144 0.0
C201 C 0.81764 0.76716 0.10066 0.0
C202 C 0.80385 0.76531 0.08278 0.0
C203 C 0.80676 0.77933 0.0645 0.0
C204 C 0.82349 0.79555 0.06438 0.0
N205 N 0.84899 0.78518 0.11813 0.0
N206 N 0.87827 0.76218 0.11676 0.0
N207 N 0.86957 0.78062 0.07756 0.0
C208 C 0.88572 0.7969 0.06943 0.0
C209 C 0.88465 0.81086 0.05577 0.0
C210 C 0.90274 0.79902 0.0754 0.0
C211 C 0.90044 0.82728 0.04943 0.0
H212 H 0.87149 0.80891 0.05027 0.0
C213 C 0.91738 0.82951 0.05692 0.0
C214 C 0.91866 0.81545 0.07004 0.0
C215 C 0.89929 0.84223 0.03541 0.0
H216 H 0.90363 0.78779 0.08384 0.0
H217 H 0.9296 0.84219 0.05251 0.0
C218 C 0.93657 0.81795 0.07837 0.0
O219 O 0.91453 0.85797 0.02954 0.0
O220 O 0.88458 0.84041 0.02913 0.0
O221 O 0.93753 0.80611 0.09139 0.0
O222 O 0.95193 0.83336 0.07163 0.0
H223 H 0.9141 0.8679 0.02045 0.0
H224 H 0.96372 0.83521 0.07674 0.0
N225 N 0.84353 0.75174 0.09951 0.0
C226 C 0.83266 0.73829 0.11666 0.0
C227 C 0.81839 0.72259 0.10492 0.0
C228 C 0.81646 0.72177 0.07535 0.0
C229 C 0.82856 0.73648 0.05833 0.0
C230 C 0.84243 0.75176 0.07162 0.0
N231 N 0.85131 0.75985 0.15176 0.0
C232 C 0.83703 0.7429 0.14647 0.0
O233 O 0.82667 0.73223 0.16666 0.0
C234 C 0.85693 0.76845 0.05889 0.0
O235 O 0.89757 0.76891 0.01217 0.0
O236 O 0.89358 0.78796 0.98694 0.0
C237 C 0.85378 0.76787 0.17922 0.0
C238 C 0.86339 0.7643 0.1999 0.0
C239 C 0.86417 0.7704 0.22756 0.0
C240 C 0.8555 0.78013 0.23426 0.0
C241 C 0.84435 0.78226 0.21493 0.0
C242 C 0.84371 0.77624 0.18714 0.0
O243 O 0.83763 0.73516 0.97364 0.0
O244 O 0.83798 0.71506 1.00111 0.0
O245 O 0.87322 0.73542 0.01623 0.0
O246 O 0.87685 0.71244 0.02333 0.0
O247 O 0.85703 0.77156 0.03099 0.0
C248 C 0.87238 0.74383 0.92858 0.0
O249 O 0.86985 0.72869 0.93797 0.0
O250 O 0.87156 0.75542 0.94468 0.0
C251 C 0.90415 0.7846 1.00146 0.0
H252 H 0.91899 0.80221 0.16747 0.0
H253 H 0.88707 0.82896 0.16687 0.0
H254 H 0.91463 0.82796 0.18222 0.0
H255 H 0.88352 0.7567 0.06247 0.0
H256 H 0.86544 0.69984 0.07227 0.0
H257 H 0.86563 0.7312 0.14273 0.0
H258 H 0.85047 0.80926 0.08123 0.0
H259 H 0.8148 0.75656 0.1156 0.0
H260 H 0.79561 0.77782 0.05169 0.0
H261 H 0.80905 0.71142 0.118 0.0
H262 H 0.80558 0.70978 0.06566 0.0
H263 H 0.82711 0.73589 0.03573 0.0
H264 H 0.86963 0.75631 0.19465 0.0
H265 H 0.85643 0.78494 0.25561 0.0
H266 H 0.83467 0.77713 0.1721 0.0
Cd267 Cd 0.10644 0.23589 0.51685 0.0
C268 C 0.10683 0.27404 0.53097 0.0
C269 C 0.05275 0.19001 0.38405 0.0
O270 O 0.03533 0.1787 0.38067 0.0
Cd271 Cd 0.14708 0.28543 0.52984 0.0
C272 C 0.06648 0.18557 0.37474 0.0
C273 C 0.09735 0.18486 0.35708 0.0
C274 C 0.09849 0.19916 0.37305 0.0
N275 N 0.08319 0.19833 0.38159 0.0
C276 C 0.0642 0.17081 0.35875 0.0
C277 C 0.07991 0.17048 0.35012 0.0
Co278 Co 0.08551 0.21893 0.39794 0.0
C279 C 0.11465 0.21614 0.3814 0.0
O280 O 0.13117 0.21935 0.37644 0.0
C281 C 0.12539 0.24453 0.40744 0.0
C282 C 0.12934 0.24673 0.43625 0.0
C283 C 0.14363 0.26316 0.44646 0.0
C284 C 0.15416 0.27697 0.4274 0.0
C285 C 0.14956 0.27519 0.39884 0.0
C286 C 0.13531 0.25874 0.38901 0.0
C287 C 0.1459 0.26726 0.4768 0.0
C288 C 0.04792 0.21029 0.41468 0.0
C289 C 0.03694 0.19741 0.43466 0.0
C290 C 0.04705 0.22617 0.41166 0.0
C291 C 0.03575 0.22931 0.42911 0.0
C292 C 0.02485 0.21642 0.44906 0.0
C293 C 0.02495 0.20003 0.45139 0.0
N294 N 0.05921 0.20657 0.3968 0.0
N295 N 0.11129 0.22782 0.39643 0.0
N296 N 0.08441 0.21084 0.43676 0.0
C297 C 0.08474 0.19488 0.44549 0.0
C298 C 0.0695 0.18039 0.45785 0.0
C299 C 0.10021 0.19349 0.44089 0.0
C300 C 0.06927 0.16416 0.4642 0.0
H301 H 0.05783 0.18175 0.46228 0.0
C302 C 0.08464 0.16271 0.45818 0.0
C303 C 0.10018 0.17731 0.44641 0.0
C304 C 0.05291 0.14858 0.47655 0.0
H305 H 0.11238 0.20507 0.43325 0.0
H306 H 0.0845 0.15018 0.46259 0.0
C307 C 0.11623 0.17557 0.43948 0.0
O308 O 0.05273 0.13296 0.48217 0.0
O309 O 0.03947 0.14974 0.48163 0.0
O310 O 0.12906 0.18767 0.42684 0.0
O311 O 0.11677 0.16058 0.44706 0.0
H312 H 0.0422 0.12262 0.49014 0.0
H313 H 0.12714 0.15924 0.44288 0.0
N314 N 0.08814 0.23977 0.41365 0.0
C315 C 0.09107 0.25308 0.39596 0.0
C316 C 0.09303 0.26917 0.40705 0.0
C317 C 0.09189 0.27042 0.43654 0.0
C318 C 0.08875 0.25575 0.45414 0.0
C319 C 0.08692 0.24012 0.44151 0.0
N320 N 0.08694 0.23055 0.36181 0.0
C321 C 0.09042 0.24787 0.36635 0.0
O322 O 0.09096 0.25837 0.3457 0.0
C323 C 0.08422 0.22339 0.4549 0.0
O324 O 0.12613 0.22579 0.50153 0.0
O325 O 0.1032 0.20615 0.52637 0.0
C326 C 0.08106 0.22215 0.33468 0.0
C327 C 0.09391 0.22608 0.31323 0.0
C328 C 0.08817 0.22017 0.2856 0.0
C329 C 0.06966 0.21023 0.27966 0.0
C330 C 0.0568 0.2072 0.30019 0.0
C331 C 0.0625 0.21326 0.32771 0.0
O332 O 0.09838 0.25775 0.53974 0.0
O333 O 0.11787 0.27762 0.51104 0.0
O334 O 0.13341 0.25791 0.49405 0.0
O335 O 0.15956 0.28137 0.48623 0.0
O336 O 0.08138 0.22077 0.4829 0.0
C337 C 0.12629 0.25146 0.58319 0.0
O338 O 0.13864 0.26659 0.57328 0.0
O339 O 0.11379 0.23959 0.56756 0.0
C340 C 0.11745 0.21007 0.51226 0.0
H341 H 0.10939 0.18491 0.34981 0.0
H342 H 0.05088 0.16015 0.35261 0.0
H343 H 0.07859 0.15931 0.33755 0.0
H344 H 0.12122 0.23582 0.45058 0.0
H345 H 0.16523 0.28962 0.43514 0.0
H346 H 0.13121 0.25702 0.36718 0.0
H347 H 0.0373 0.18496 0.43641 0.0
H348 H 0.05471 0.23589 0.39551 0.0
H349 H 0.01568 0.21891 0.46147 0.0
H350 H 0.09516 0.28026 0.39352 0.0
H351 H 0.09334 0.28268 0.44573 0.0
H352 H 0.08782 0.25665 0.47667 0.0
H353 H 0.10821 0.23443 0.31782 0.0
H354 H 0.06522 0.2062 0.25816 0.0
H355 H 0.05265 0.21212 0.3431 0.0
Cd356 Cd 0.7572 0.86884 0.51583 0.0
C357 C 0.72253 0.83846 0.53875 0.0
C358 C 0.80071 0.85928 0.37968 0.0
O359 O 0.81216 0.85335 0.37634 0.0
Cd360 Cd 0.71107 0.87125 0.5335 0.0
C361 C 0.80472 0.87718 0.36962 0.0
C362 C 0.80429 0.90785 0.35005 0.0
C363 C 0.79058 0.89511 0.36734 0.0
N364 N 0.792 0.88113 0.37685 0.0
C365 C 0.8189 0.88928 0.35232 0.0
C366 C 0.81867 0.90488 0.34276 0.0
Co367 Co 0.77176 0.86293 0.39417 0.0
C368 C 0.77359 0.89416 0.37603 0.0
O369 O 0.76997 0.90714 0.37064 0.0
C370 C 0.74622 0.87702 0.40454 0.0
C371 C 0.74574 0.88151 0.43274 0.0
C372 C 0.72945 0.87879 0.44461 0.0
C373 C 0.71382 0.87163 0.42802 0.0
C374 C 0.71441 0.86667 0.40031 0.0
C375 C 0.73061 0.8697 0.38844 0.0
C376 C 0.72773 0.88021 0.47503 0.0
C377 C 0.78113 0.83456 0.41147 0.0
C378 C 0.79418 0.83686 0.43143 0.0
C379 C 0.76557 0.81758 0.40843 0.0
C380 C 0.76281 0.80328 0.4259 0.0
C381 C 0.7758 0.80566 0.44589 0.0
C382 C 0.79195 0.82239 0.44819 0.0
N383 N 0.78448 0.84934 0.39334 0.0
N384 N 0.76246 0.87944 0.39205 0.0
N385 N 0.78016 0.87071 0.43277 0.0
C386 C 0.7966 0.88671 0.44091 0.0
C387 C 0.81007 0.88537 0.45569 0.0
C388 C 0.79929 0.90385 0.43414 0.0
C389 C 0.82655 0.90098 0.4624 0.0
H390 H 0.80768 0.87215 0.46184 0.0
C391 C 0.82933 0.91803 0.45423 0.0
C392 C 0.81576 0.9196 0.44002 0.0
C393 C 0.84097 0.89953 0.47762 0.0
H394 H 0.78843 0.905 0.4248 0.0
H395 H 0.84205 0.93011 0.45903 0.0
C396 C 0.81877 0.93765 0.43133 0.0
O397 O 0.85675 0.91461 0.48396 0.0
O398 O 0.83868 0.88472 0.48448 0.0
O399 O 0.80726 0.93888 0.41778 0.0
O400 O 0.83425 0.95284 0.43837 0.0
H401 H 0.86633 0.91398 0.49383 0.0
H402 H 0.83643 0.96471 0.43303 0.0
N403 N 0.75125 0.84474 0.41076 0.0
C404 C 0.7381 0.83345 0.39352 0.0
C405 C 0.72257 0.81894 0.40522 0.0
C406 C 0.72152 0.81726 0.43481 0.0
C407 C 0.73592 0.82978 0.45194 0.0
C408 C 0.75112 0.84378 0.4387 0.0
N409 N 0.7599 0.8519 0.35854 0.0
C410 C 0.74298 0.83754 0.36372 0.0
O411 O 0.73246 0.8271 0.34348 0.0
C412 C 0.76777 0.85832 0.45152 0.0
O413 O 0.77343 0.89839 0.49742 0.0
O414 O 0.78776 0.89257 0.52996 0.0
C415 C 0.76784 0.85501 0.33096 0.0
C416 C 0.76379 0.86464 0.311 0.0
C417 C 0.76984 0.86606 0.28319 0.0
C418 C 0.78003 0.858 0.27562 0.0
C419 C 0.78253 0.8467 0.29417 0.0
C420 C 0.77662 0.84551 0.32218 0.0
O421 O 0.73592 0.83611 0.53483 0.0
O422 O 0.72431 0.85294 0.52907 0.0
O423 O 0.73695 0.8765 0.49167 0.0
O424 O 0.7152 0.88234 0.48533 0.0
O425 O 0.77084 0.85839 0.47948 0.0
C426 C 0.7446 0.88266 0.58142 0.0
O427 O 0.73243 0.88584 0.57186 0.0
O428 O 0.75239 0.87622 0.5659 0.0
C429 C 0.78738 0.90391 0.5128 0.0
H430 H 0.80375 0.91943 0.34197 0.0
H431 H 0.82949 0.8866 0.34581 0.0
H432 H 0.82937 0.91439 0.32914 0.0
H433 H 0.75784 0.88673 0.44543 0.0
H434 H 0.70093 0.86845 0.43719 0.0
H435 H 0.73096 0.86569 0.36693 0.0
H436 H 0.80644 0.84986 0.43307 0.0
H437 H 0.75584 0.81517 0.39213 0.0
H438 H 0.77362 0.79411 0.45829 0.0
H439 H 0.71172 0.80919 0.39206 0.0
H440 H 0.70964 0.80622 0.44445 0.0
H441 H 0.73516 0.82848 0.47457 0.0
H442 H 0.75543 0.87037 0.31689 0.0
H443 H 0.78481 0.85947 0.25416 0.0
H444 H 0.77784 0.83644 0.33674 0.0
Cd445 Cd 0.12315 0.88378 0.51806 0.0
C446 C 0.15533 0.87824 0.53491 0.0
C447 C 0.12917 0.93765 0.38494 0.0
O448 O 0.13341 0.95463 0.38163 0.0
Cd449 Cd 0.11747 0.83359 0.5368 0.0
C450 C 0.11199 0.92257 0.37469 0.0
C451 C 0.08321 0.88991 0.3552 0.0
C452 C 0.09701 0.89047 0.37179 0.0
N453 N 0.11001 0.9065 0.38119 0.0
C454 C 0.09877 0.92314 0.35804 0.0
C455 C 0.08416 0.90652 0.34848 0.0
Co456 Co 0.12942 0.90667 0.39833 0.0
C457 C 0.09981 0.87551 0.38049 0.0
O458 O 0.08783 0.85843 0.37577 0.0
C459 C 0.11875 0.86799 0.40998 0.0
C460 C 0.11219 0.86153 0.43709 0.0
C461 C 0.1157 0.84866 0.44968 0.0
C462 C 0.12594 0.84262 0.43511 0.0
C463 C 0.13303 0.84977 0.40875 0.0
C464 C 0.12906 0.86208 0.396 0.0
C465 C 0.11127 0.84327 0.47917 0.0
C466 C 0.15542 0.94538 0.41503 0.0
C467 C 0.15267 0.95587 0.43492 0.0
C468 C 0.17286 0.94807 0.41104 0.0
C469 C 0.18715 0.96039 0.42779 0.0
C470 C 0.18428 0.9706 0.44791 0.0
C471 C 0.16708 0.96888 0.45088 0.0
N472 N 0.14059 0.9329 0.39786 0.0
N473 N 0.11502 0.88059 0.3962 0.0
N474 N 0.12116 0.90615 0.43695 0.0
C475 C 0.10483 0.90595 0.44503 0.0
C476 C 0.1056 0.92049 0.45987 0.0
C477 C 0.08795 0.89134 0.43755 0.0
C478 C 0.08969 0.92094 0.466 0.0
H479 H 0.11863 0.93149 0.46637 0.0
C480 C 0.07291 0.90651 0.45719 0.0
C481 C 0.07192 0.89164 0.44285 0.0
C482 C 0.09055 0.93657 0.48115 0.0
H483 H 0.08725 0.87958 0.42795 0.0
H484 H 0.06061 0.90682 0.46153 0.0
C485 C 0.05417 0.87649 0.43339 0.0
O486 O 0.0752 0.9369 0.48686 0.0
O487 O 0.10513 0.94926 0.48848 0.0
O488 O 0.05346 0.86406 0.41955 0.0
O489 O 0.03868 0.87629 0.44006 0.0
H490 H 0.07544 0.94696 0.49665 0.0
H491 H 0.02699 0.86649 0.43424 0.0
N492 N 0.14883 0.90647 0.41472 0.0
C493 C 0.16079 0.90587 0.39737 0.0
C494 C 0.17606 0.90624 0.40893 0.0
C495 C 0.17765 0.90667 0.43852 0.0
C496 C 0.1643 0.90696 0.45576 0.0
C497 C 0.14956 0.90684 0.44266 0.0
N498 N 0.14113 0.9073 0.36255 0.0
C499 C 0.15642 0.9063 0.36761 0.0
O500 O 0.16748 0.9076 0.34734 0.0
C501 C 0.13399 0.90701 0.45562 0.0
O502 O 0.09448 0.86994 0.49681 0.0
O503 O 0.09853 0.88961 0.52943 0.0
C504 C 0.13799 0.9126 0.33535 0.0
C505 C 0.13032 0.8996 0.31379 0.0
C506 C 0.12939 0.90503 0.28627 0.0
C507 C 0.13581 0.92332 0.28056 0.0
C508 C 0.14448 0.93658 0.30117 0.0
C509 C 0.14581 0.93114 0.32856 0.0
O510 O 0.15621 0.89333 0.53012 0.0
O511 O 0.13989 0.86445 0.53308 0.0
O512 O 0.11447 0.85497 0.49785 0.0
O513 O 0.10775 0.82773 0.48748 0.0
O514 O 0.13325 0.90896 0.48375 0.0
C515 C 0.10997 0.85978 0.58464 0.0
O516 O 0.10598 0.84405 0.5756 0.0
O517 O 0.11677 0.87381 0.5687 0.0
C518 C 0.08809 0.87798 0.5113 0.0
H519 H 0.07231 0.87722 0.34732 0.0
H520 H 0.09985 0.93589 0.35209 0.0
H521 H 0.07379 0.90654 0.33542 0.0
H522 H 0.1045 0.86649 0.44815 0.0
H523 H 0.12936 0.83324 0.44491 0.0
H524 H 0.13405 0.86716 0.37509 0.0
H525 H 0.13936 0.95438 0.43718 0.0
H526 H 0.17564 0.94119 0.39447 0.0
H527 H 0.19575 0.9806 0.4598 0.0
H528 H 0.18639 0.90629 0.39569 0.0
H529 H 0.18926 0.90687 0.44806 0.0
H530 H 0.16553 0.90735 0.47837 0.0
H531 H 0.12591 0.88554 0.31821 0.0
H532 H 0.13565 0.92741 0.25902 0.0
H533 H 0.15348 0.9413 0.34424 0.0
Cd534 Cd 0.7573 0.88642 0.01654 0.0
C535 C 0.71768 0.88354 0.0279 0.0
C536 C 0.80032 0.93702 0.88038 0.0
O537 O 0.81221 0.95415 0.87578 0.0
Cd538 Cd 0.7087 0.84378 0.03242 0.0
C539 C 0.80333 0.92238 0.87084 0.0
C540 C 0.80113 0.89016 0.85282 0.0
C541 C 0.7879 0.89023 0.87009 0.0
N542 N 0.79014 0.90611 0.87876 0.0
C543 C 0.81707 0.92343 0.85347 0.0
C544 C 0.81593 0.90705 0.84467 0.0
Co545 Co 0.77054 0.9054 0.89625 0.0
C546 C 0.77075 0.87483 0.87985 0.0
O547 O 0.76647 0.85791 0.87563 0.0
C548 C 0.74421 0.86628 0.90965 0.0
C549 C 0.74439 0.86145 0.93786 0.0
C550 C 0.72828 0.84812 0.95065 0.0
C551 C 0.7122 0.83998 0.93504 0.0
C552 C 0.71218 0.84539 0.90749 0.0
C553 C 0.72814 0.85817 0.89465 0.0
C554 C 0.72701 0.84472 0.98107 0.0
C555 C 0.7818 0.944 0.91173 0.0
C556 C 0.79565 0.95545 0.93017 0.0
C557 C 0.7662 0.94544 0.90969 0.0
C558 C 0.76413 0.95757 0.92682 0.0
C559 C 0.77787 0.96878 0.9454 0.0
C560 C 0.79405 0.96822 0.9465 0.0
N561 N 0.78428 0.93172 0.89419 0.0
N562 N 0.76027 0.87938 0.89574 0.0
N563 N 0.77926 0.90654 0.93466 0.0
C564 C 0.79573 0.90702 0.94264 0.0
C565 C 0.80951 0.92216 0.95637 0.0
C566 C 0.79821 0.89236 0.93648 0.0
C567 C 0.82608 0.92311 0.96268 0.0
H568 H 0.80731 0.9332 0.96194 0.0
C569 C 0.82862 0.90858 0.95516 0.0
C570 C 0.81475 0.89314 0.94196 0.0
C571 C 0.84084 0.93933 0.97672 0.0
H572 H 0.78716 0.8802 0.92779 0.0
H573 H 0.8414 0.90928 0.95962 0.0
C574 C 0.81757 0.87791 0.93374 0.0
O575 O 0.85674 0.94017 0.98254 0.0
O576 O 0.83873 0.95205 0.98306 0.0
O577 O 0.8058 0.86492 0.92092 0.0
O578 O 0.83316 0.8783 0.94036 0.0
H579 H 0.86655 0.95062 0.99162 0.0
H580 H 0.83522 0.86849 0.93529 0.0
N581 N 0.75057 0.90423 0.91293 0.0
C582 C 0.73713 0.90179 0.89589 0.0
C583 C 0.72167 0.90087 0.90772 0.0
C584 C 0.72102 0.90221 0.93727 0.0
C585 C 0.73566 0.90454 0.95418 0.0
C586 C 0.7507 0.90547 0.9408 0.0
N587 N 0.75842 0.90423 0.86061 0.0
C588 C 0.74156 0.90177 0.86606 0.0
O589 O 0.73101 0.90183 0.84599 0.0
C590 C 0.7673 0.90737 0.95338 0.0
O591 O 0.77123 0.87014 1.00037 0.0
O592 O 0.78757 0.89204 0.02947 0.0
C593 C 0.76659 0.91058 0.83341 0.0
C594 C 0.7625 0.89815 0.81123 0.0
C595 C 0.76823 0.90448 0.78373 0.0
C596 C 0.77809 0.92308 0.77861 0.0
C597 C 0.78145 0.93554 0.79996 0.0
C598 C 0.77553 0.9293 0.82733 0.0
O599 O 0.73391 0.8935 0.03634 0.0
O600 O 0.71484 0.87162 0.00975 0.0
O601 O 0.73605 0.85747 0.99809 0.0
O602 O 0.71406 0.8303 0.99118 0.0
O603 O 0.77064 0.91066 0.98115 0.0
C604 C 0.74272 0.8686 0.08413 0.0
O605 O 0.72791 0.85536 0.07497 0.0
O606 O 0.75414 0.88085 0.06769 0.0
C607 C 0.78594 0.87911 0.01389 0.0
H608 H 0.79993 0.8776 0.84542 0.0
H609 H 0.828 0.93635 0.84637 0.0
H610 H 0.82627 0.90743 0.83103 0.0
H611 H 0.75684 0.86815 0.94974 0.0
H612 H 0.69946 0.83042 0.94481 0.0
H613 H 0.72801 0.86228 0.87313 0.0
H614 H 0.80799 0.95479 0.93113 0.0
H615 H 0.75585 0.93764 0.89443 0.0
H616 H 0.77621 0.97855 0.95763 0.0
H617 H 0.71057 0.89928 0.89471 0.0
H618 H 0.70922 0.90149 0.94703 0.0
H619 H 0.7352 0.90557 0.97677 0.0
H620 H 0.75425 0.88376 0.8152 0.0
H621 H 0.78218 0.92794 0.75728 0.0
H622 H 0.77695 0.93889 0.84339 0.0
Cd623 Cd 0.11041 0.87089 0.01813 0.0
C624 C 0.11629 0.83866 0.03439 0.0
C625 C 0.05593 0.86428 0.88624 0.0
O626 O 0.0389 0.85995 0.88339 0.0
Cd627 Cd 0.16081 0.877 0.03677 0.0
C628 C 0.07087 0.88153 0.87584 0.0
C629 C 0.10332 0.9105 0.85608 0.0
C630 C 0.10296 0.89667 0.87235 0.0
N631 N 0.08702 0.88355 0.88183 0.0
C632 C 0.07011 0.89477 0.85953 0.0
C633 C 0.08662 0.90947 0.84981 0.0
Co634 Co 0.08711 0.86423 0.89881 0.0
C635 C 0.11805 0.894 0.8808 0.0
O636 O 0.13507 0.90612 0.87599 0.0
C637 C 0.12589 0.87527 0.91023 0.0
C638 C 0.13229 0.88177 0.93739 0.0
C639 C 0.14541 0.87854 0.94979 0.0
C640 C 0.15176 0.86867 0.93496 0.0
C641 C 0.14466 0.86163 0.90859 0.0
C642 C 0.13207 0.86526 0.89606 0.0
C643 C 0.15087 0.883 0.97925 0.0
C644 C 0.04853 0.83758 0.91511 0.0
C645 C 0.03807 0.83977 0.93574 0.0
C646 C 0.04583 0.82028 0.90961 0.0
C647 C 0.03338 0.80549 0.9254 0.0
C648 C 0.02309 0.80775 0.94611 0.0
C649 C 0.0249 0.82488 0.95078 0.0
N650 N 0.06089 0.85286 0.89861 0.0
N651 N 0.11315 0.87883 0.89651 0.0
N652 N 0.08765 0.87244 0.93744 0.0
C653 C 0.08786 0.88877 0.94561 0.0
C654 C 0.07331 0.88796 0.96046 0.0
C655 C 0.10247 0.90566 0.93819 0.0
C656 C 0.07286 0.90387 0.96667 0.0
H657 H 0.06231 0.87492 0.96692 0.0
C658 C 0.0873 0.92066 0.95792 0.0
C659 C 0.10216 0.92169 0.94357 0.0
C660 C 0.05722 0.90298 0.98183 0.0
H661 H 0.11422 0.90639 0.92855 0.0
H662 H 0.08698 0.93296 0.96232 0.0
C663 C 0.1173 0.93945 0.93409 0.0
O664 O 0.05686 0.91831 0.98755 0.0
O665 O 0.04455 0.88838 0.98917 0.0
O666 O 0.12973 0.94018 0.92024 0.0
O667 O 0.11747 0.95493 0.94073 0.0
H668 H 0.04679 0.91805 0.99734 0.0
H669 H 0.12724 0.96663 0.93488 0.0
N670 N 0.08754 0.84491 0.91506 0.0
C671 C 0.08833 0.83308 0.89762 0.0
C672 C 0.08827 0.81795 0.90908 0.0
C673 C 0.08787 0.8163 0.93867 0.0
C674 C 0.08734 0.82951 0.956 0.0
C675 C 0.08721 0.84415 0.943 0.0
N676 N 0.0865 0.85261 0.86294 0.0
C677 C 0.08779 0.83747 0.86788 0.0
O678 O 0.08657 0.82647 0.84756 0.0
C679 C 0.08691 0.85965 0.95605 0.0
O680 O 0.12419 0.89972 0.99706 0.0
O681 O 0.10496 0.89569 0.03038 0.0
C682 C 0.08102 0.85567 0.83581 0.0
C683 C 0.09382 0.86312 0.81394 0.0
C684 C 0.08819 0.86403 0.78655 0.0
C685 C 0.06991 0.85782 0.78128 0.0
C686 C 0.05682 0.84933 0.80218 0.0
C687 C 0.06244 0.84799 0.82942 0.0
O688 O 0.10125 0.83787 0.02963 0.0
O689 O 0.13013 0.8541 0.03302 0.0
O690 O 0.13923 0.87974 0.99805 0.0
O691 O 0.16648 0.88668 0.98741 0.0
O692 O 0.08505 0.86042 0.98419 0.0
C693 C 0.13405 0.88354 0.08487 0.0
O694 O 0.14987 0.88782 0.07589 0.0
O695 O 0.12008 0.87677 0.06881 0.0
C696 C 0.11647 0.90618 0.01216 0.0
H697 H 0.11593 0.9215 0.84814 0.0
H698 H 0.05729 0.89366 0.85397 0.0
H699 H 0.08644 0.91987 0.83701 0.0
H700 H 0.12711 0.88921 0.94862 0.0
H701 H 0.16141 0.86553 0.94452 0.0
H702 H 0.12704 0.8603 0.87512 0.0
H703 H 0.03973 0.85305 0.93922 0.0
H704 H 0.0528 0.81802 0.89258 0.0
H705 H 0.01298 0.79588 0.95713 0.0
H706 H 0.08843 0.80774 0.89578 0.0
H707 H 0.08789 0.80478 0.94814 0.0
H708 H 0.08699 0.82823 0.9786 0.0
H709 H 0.10789 0.8674 0.81803 0.0
H710 H 0.06564 0.85799 0.75986 0.0
H711 H 0.05238 0.84039 0.84526 0.0
Cd712 Cd 0.12517 0.23845 0.01809 0.0
C713 C 0.15755 0.27541 0.03578 0.0
C714 C 0.13067 0.192 0.88254 0.0
O715 O 0.1352 0.17953 0.87844 0.0
Cd716 Cd 0.12165 0.28428 0.03866 0.0
C717 C 0.11332 0.18967 0.87276 0.0
C718 C 0.08403 0.19307 0.85447 0.0
C719 C 0.09776 0.20626 0.87121 0.0
N720 N 0.11103 0.20347 0.88 0.0
C721 C 0.10018 0.17593 0.85595 0.0
C722 C 0.08531 0.17768 0.847 0.0
Co723 Co 0.13032 0.22274 0.89733 0.0
C724 C 0.10028 0.22381 0.88051 0.0
O725 O 0.08811 0.22871 0.87615 0.0
C726 C 0.11913 0.25034 0.90985 0.0
C727 C 0.11379 0.25053 0.93771 0.0
C728 C 0.11703 0.26692 0.95004 0.0
C729 C 0.12571 0.28292 0.93435 0.0
C730 C 0.13159 0.28256 0.90721 0.0
C731 C 0.12796 0.26631 0.89481 0.0
C732 C 0.11408 0.26825 0.98012 0.0
C733 C 0.15663 0.21023 0.91328 0.0
C734 C 0.1539 0.19645 0.93213 0.0
C735 C 0.17396 0.22536 0.9105 0.0
C736 C 0.18813 0.22706 0.9273 0.0
C737 C 0.18529 0.2134 0.94627 0.0
C738 C 0.16823 0.19763 0.94807 0.0
N739 N 0.14192 0.20806 0.89592 0.0
N740 N 0.11547 0.23397 0.89622 0.0
N741 N 0.12232 0.21448 0.93586 0.0
C742 C 0.10594 0.19839 0.94383 0.0
C743 C 0.10661 0.18423 0.95756 0.0
C744 C 0.08911 0.19661 0.93747 0.0
C745 C 0.0906 0.16797 0.9637 0.0
H746 H 0.11963 0.1859 0.96321 0.0
C747 C 0.07384 0.16613 0.95602 0.0
C748 C 0.07296 0.18039 0.94278 0.0
C749 C 0.09133 0.1528 0.97771 0.0
H750 H 0.08853 0.20795 0.92872 0.0
H751 H 0.06145 0.15359 0.96034 0.0
C752 C 0.05524 0.1783 0.93434 0.0
O753 O 0.07589 0.1372 0.98336 0.0
O754 O 0.10589 0.15429 0.98416 0.0
O755 O 0.05462 0.19033 0.92131 0.0
O756 O 0.03968 0.16309 0.94101 0.0
H757 H 0.07605 0.12712 0.99242 0.0
H758 H 0.028 0.16151 0.93584 0.0
N759 N 0.14955 0.24237 0.91393 0.0
C760 C 0.16105 0.25543 0.89675 0.0
C761 C 0.17594 0.27062 0.90849 0.0
C762 C 0.17768 0.27149 0.93807 0.0
C763 C 0.16481 0.25731 0.95513 0.0
C764 C 0.1504 0.24246 0.94187 0.0
N765 N 0.14173 0.23439 0.86154 0.0
C766 C 0.15664 0.25092 0.86692 0.0
O767 O 0.16751 0.26115 0.8468 0.0
C768 C 0.13513 0.22635 0.95465 0.0
O769 O 0.09609 0.22508 0.99795 0.0
O770 O 0.09948 0.20849 0.02954 0.0
C771 C 0.13918 0.22621 0.83414 0.0
C772 C 0.13157 0.23138 0.81218 0.0
C773 C 0.13105 0.22509 0.78465 0.0
C774 C 0.13779 0.21343 0.77939 0.0
C775 C 0.14633 0.20902 0.80042 0.0
C776 C 0.14742 0.21583 0.82766 0.0
O777 O 0.15855 0.26129 0.03095 0.0
O778 O 0.1421 0.27361 0.03345 0.0
O779 O 0.11739 0.25928 0.99777 0.0
O780 O 0.11138 0.28059 0.9896 0.0
O781 O 0.13456 0.22331 0.98267 0.0
C782 C 0.11361 0.24984 0.0858 0.0
O783 O 0.11064 0.26248 0.07775 0.0
O784 O 0.11936 0.24202 0.06902 0.0
C785 C 0.08919 0.21053 0.01217 0.0
H786 H 0.07293 0.19468 0.84704 0.0
H787 H 0.1015 0.16449 0.84943 0.0
H788 H 0.07499 0.16733 0.83382 0.0
H789 H 0.10728 0.23808 0.94955 0.0
H790 H 0.12899 0.29579 0.94375 0.0
H791 H 0.1322 0.26607 0.8734 0.0
H792 H 0.14068 0.18444 0.93362 0.0
H793 H 0.17674 0.23555 0.89484 0.0
H794 H 0.19669 0.21473 0.9582 0.0
H795 H 0.18588 0.28137 0.89538 0.0
H796 H 0.18901 0.28311 0.94775 0.0
H797 H 0.1661 0.25798 0.97773 0.0
H798 H 0.12671 0.2407 0.81638 0.0
H799 H 0.1377 0.20889 0.75805 0.0
H800 H 0.15515 0.21355 0.84348 0.0
Cd801 Cd 0.88808 0.7603 0.49424 0.0
C802 C 0.89219 0.72595 0.47544 0.0
C803 C 0.93816 0.80385 0.63061 0.0
O804 O 0.95538 0.81559 0.63484 0.0
Cd805 Cd 0.85117 0.70843 0.47875 0.0
C806 C 0.92375 0.80735 0.63975 0.0
C807 C 0.89182 0.80627 0.65644 0.0
C808 C 0.89163 0.79266 0.6398 0.0
N809 N 0.9074 0.79432 0.63189 0.0
C810 C 0.92507 0.82147 0.65645 0.0
C811 C 0.90883 0.82088 0.66462 0.0
Co812 Co 0.90629 0.7745 0.61462 0.0
C813 C 0.87606 0.77565 0.63004 0.0
O814 O 0.85922 0.77159 0.63441 0.0
C815 C 0.86712 0.74802 0.60273 0.0
C816 C 0.86369 0.74588 0.57371 0.0
C817 C 0.85123 0.72872 0.5627 0.0
C818 C 0.84235 0.714 0.58108 0.0
C819 C 0.84641 0.71627 0.60967 0.0
C820 C 0.8583 0.73331 0.6205 0.0
C821 C 0.84969 0.72522 0.53223 0.0
C822 C 0.94456 0.78453 0.60016 0.0
C823 C 0.95552 0.79764 0.58047 0.0
C824 C 0.94605 0.76903 0.60356 0.0
C825 C 0.95793 0.76641 0.58666 0.0
C826 C 0.96878 0.77949 0.5669 0.0
C827 C 0.96805 0.79555 0.5643 0.0
N828 N 0.93253 0.78761 0.61729 0.0
N829 N 0.88038 0.76484 0.61451 0.0
N830 N 0.90801 0.78345 0.5762 0.0
C831 C 0.90718 0.79922 0.56792 0.0
C832 C 0.92226 0.8141 0.55597 0.0
C833 C 0.89124 0.79984 0.57185 0.0
C834 C 0.92182 0.82994 0.54926 0.0
H835 H 0.93432 0.8133 0.55201 0.0
C836 C 0.90596 0.83064 0.55465 0.0
C837 C 0.8906 0.81565 0.56606 0.0
C838 C 0.93792 0.84583 0.53698 0.0
H839 H 0.8792 0.78792 0.57898 0.0
H840 H 0.90557 0.84286 0.54992 0.0
C841 C 0.87397 0.81655 0.5721 0.0
O842 O 0.93742 0.86105 0.53086 0.0
O843 O 0.95174 0.84528 0.53237 0.0
O844 O 0.86112 0.80398 0.58398 0.0
O845 O 0.87293 0.83127 0.56455 0.0
H846 H 0.94777 0.87157 0.52289 0.0
H847 H 0.86218 0.83207 0.56816 0.0
N848 N 0.90486 0.75441 0.59793 0.0
C849 C 0.90223 0.74089 0.61493 0.0
C850 C 0.90158 0.72554 0.60314 0.0
C851 C 0.90356 0.72516 0.57368 0.0
C852 C 0.90629 0.73997 0.55683 0.0
C853 C 0.90685 0.75486 0.57014 0.0
N854 N 0.90447 0.7621 0.65033 0.0
C855 C 0.9019 0.74519 0.64477 0.0
O856 O 0.90157 0.73444 0.66484 0.0
C857 C 0.90907 0.7716 0.55755 0.0
O858 O 0.86738 0.76954 0.50863 0.0
O859 O 0.89091 0.79006 0.48597 0.0
C860 C 0.91021 0.76988 0.67795 0.0
C861 C 0.89732 0.76498 0.69972 0.0
C862 C 0.90306 0.77008 0.72765 0.0
C863 C 0.92154 0.78001 0.73363 0.0
C864 C 0.93448 0.78421 0.71271 0.0
C865 C 0.92881 0.77902 0.68488 0.0
O866 O 0.89986 0.74246 0.46785 0.0
O867 O 0.88158 0.72148 0.49617 0.0
O868 O 0.86193 0.73583 0.51553 0.0
O869 O 0.83729 0.71039 0.52223 0.0
O870 O 0.91229 0.77492 0.52973 0.0
C871 C 0.86841 0.74363 0.42751 0.0
O872 O 0.85719 0.72773 0.43645 0.0
O873 O 0.88002 0.75585 0.44379 0.0
C874 C 0.87613 0.78553 0.49893 0.0
H875 H 0.87937 0.80553 0.66329 0.0
H876 H 0.93807 0.83231 0.66347 0.0
H877 H 0.90942 0.83152 0.67773 0.0
H878 H 0.87098 0.75733 0.55985 0.0
H879 H 0.83356 0.70048 0.57297 0.0
H880 H 0.86155 0.735 0.64273 0.0
H881 H 0.95468 0.80982 0.57848 0.0
H882 H 0.93842 0.75918 0.61959 0.0
H883 H 0.97838 0.77744 0.55488 0.0
H884 H 0.89985 0.71437 0.61613 0.0
H885 H 0.90314 0.71348 0.56397 0.0
H886 H 0.90796 0.73979 0.53434 0.0
H887 H 0.88304 0.7567 0.69503 0.0
H888 H 0.92594 0.78369 0.75523 0.0
H889 H 0.93878 0.78104 0.66914 0.0
Cd890 Cd 0.23565 0.12566 0.495 0.0
C891 C 0.27567 0.16254 0.48375 0.0
C892 C 0.19113 0.13278 0.62874 0.0
O893 O 0.17906 0.13793 0.63215 0.0
Cd894 Cd 0.28384 0.13111 0.47995 0.0
C895 C 0.18795 0.11511 0.63857 0.0
C896 C 0.18974 0.08495 0.65708 0.0
C897 C 0.20345 0.09848 0.64075 0.0
N898 N 0.20143 0.11221 0.63186 0.0
C899 C 0.17372 0.10221 0.65498 0.0
C900 C 0.17467 0.0869 0.66406 0.0
Co901 Co 0.22126 0.13107 0.61485 0.0
C902 C 0.22076 0.10025 0.63177 0.0
O903 O 0.2249 0.08753 0.63619 0.0
C904 C 0.24764 0.11823 0.6026 0.0
C905 C 0.24777 0.11335 0.5744 0.0
C906 C 0.26401 0.11616 0.56207 0.0
C907 C 0.27989 0.12391 0.57815 0.0
C908 C 0.27965 0.12941 0.60559 0.0
C909 C 0.26353 0.12619 0.61797 0.0
C910 C 0.26566 0.11435 0.53166 0.0
C911 C 0.21087 0.15894 0.59932 0.0
C912 C 0.19813 0.15697 0.57907 0.0
C913 C 0.226 0.17602 0.604 0.0
C914 C 0.22861 0.19081 0.58791 0.0
C915 C 0.21586 0.18878 0.5677 0.0
C916 C 0.20013 0.17187 0.56376 0.0
N917 N 0.20757 0.14366 0.61613 0.0
N918 N 0.23146 0.1153 0.61606 0.0
N919 N 0.21299 0.1235 0.57622 0.0
C920 C 0.19667 0.10741 0.5679 0.0
C921 C 0.18299 0.10861 0.55353 0.0
C922 C 0.19421 0.09033 0.57445 0.0
C923 C 0.16651 0.09291 0.54712 0.0
H924 H 0.18519 0.12178 0.54755 0.0
C925 C 0.16396 0.07592 0.55513 0.0
C926 C 0.17775 0.0745 0.5689 0.0
C927 C 0.15184 0.09421 0.53248 0.0
H928 H 0.20522 0.0893 0.58348 0.0
H929 H 0.15125 0.06377 0.55059 0.0
C930 C 0.17494 0.05653 0.57758 0.0
O931 O 0.13602 0.07906 0.52657 0.0
O932 O 0.15393 0.10897 0.52575 0.0
O933 O 0.18661 0.05543 0.59091 0.0
O934 O 0.15947 0.04125 0.5708 0.0
H935 H 0.12626 0.07959 0.5171 0.0
H936 H 0.15742 0.02942 0.57612 0.0
N937 N 0.24142 0.14989 0.59857 0.0
C938 C 0.2545 0.16114 0.61591 0.0
C939 C 0.26977 0.17607 0.60442 0.0
C940 C 0.27069 0.17813 0.57488 0.0
C941 C 0.25641 0.16557 0.55764 0.0
C942 C 0.24147 0.15114 0.5707 0.0
N943 N 0.23294 0.14206 0.65076 0.0
C944 C 0.24976 0.15662 0.64565 0.0
O945 O 0.26001 0.1673 0.66593 0.0
C946 C 0.22506 0.13641 0.55776 0.0
O947 O 0.22264 0.09564 0.51128 0.0
O948 O 0.20509 0.10081 0.48426 0.0
C949 C 0.2245 0.14001 0.6778 0.0
C950 C 0.22901 0.13221 0.70026 0.0
C951 C 0.22284 0.13246 0.7276 0.0
C952 C 0.21203 0.14026 0.73222 0.0
C953 C 0.20831 0.14892 0.71062 0.0
C954 C 0.21482 0.14909 0.6835 0.0
O955 O 0.25943 0.15594 0.47512 0.0
O956 O 0.27872 0.15368 0.50204 0.0
O957 O 0.25673 0.1181 0.51447 0.0
O958 O 0.27864 0.11284 0.52178 0.0
O959 O 0.22197 0.13647 0.52992 0.0
C960 C 0.24957 0.12125 0.42804 0.0
O961 O 0.26437 0.12306 0.43767 0.0
O962 O 0.23807 0.12232 0.44397 0.0
C963 C 0.20739 0.08973 0.49934 0.0
H964 H 0.19071 0.07348 0.66455 0.0
H965 H 0.16252 0.10403 0.6611 0.0
H966 H 0.16393 0.07675 0.67692 0.0
H967 H 0.23546 0.1077 0.56218 0.0
H968 H 0.29273 0.12711 0.56873 0.0
H969 H 0.26341 0.13037 0.63945 0.0
H970 H 0.18622 0.14384 0.57613 0.0
H971 H 0.23548 0.1781 0.62055 0.0
H972 H 0.21787 0.20067 0.55645 0.0
H973 H 0.28053 0.18583 0.61769 0.0
H974 H 0.28238 0.18949 0.5654 0.0
H975 H 0.25704 0.16716 0.53506 0.0
H976 H 0.23786 0.12671 0.69663 0.0
H977 H 0.2076 0.14083 0.7534 0.0
H978 H 0.21315 0.15705 0.66736 0.0
Cd979 Cd 0.86783 0.10984 0.49691 0.0
C980 C 0.83209 0.11769 0.48393 0.0
C981 C 0.85922 0.05555 0.63092 0.0
O982 O 0.85381 0.03832 0.63496 0.0
Cd983 Cd 0.87021 0.15464 0.48114 0.0
C984 C 0.87693 0.06991 0.64073 0.0
C985 C 0.90713 0.10162 0.65967 0.0
C986 C 0.8939 0.102 0.64282 0.0
N987 N 0.88016 0.08635 0.63361 0.0
C988 C 0.88952 0.06839 0.65764 0.0
C989 C 0.90487 0.08452 0.6669 0.0
Co990 Co 0.86136 0.08757 0.61674 0.0
C991 C 0.89227 0.11765 0.6342 0.0
O992 O 0.90502 0.13443 0.63901 0.0
C993 C 0.87453 0.12699 0.60561 0.0
C994 C 0.87992 0.13243 0.57777 0.0
C995 C 0.87788 0.14643 0.56597 0.0
C996 C 0.87034 0.15473 0.58211 0.0
C997 C 0.8644 0.14865 0.60929 0.0
C998 C 0.86683 0.13511 0.62121 0.0
C999 C 0.88056 0.15047 0.53589 0.0
C1000 C 0.83425 0.04925 0.59899 0.0
C1001 C 0.83693 0.03789 0.58072 0.0
C1002 C 0.81715 0.04775 0.60037 0.0
C1003 C 0.80318 0.03551 0.58301 0.0
C1004 C 0.80595 0.02425 0.56486 0.0
C1005 C 0.82275 0.02491 0.56437 0.0
N1006 N 0.84864 0.06118 0.61743 0.0
N1007 N 0.87722 0.11351 0.61868 0.0
N1008 N 0.869 0.08728 0.57796 0.0
C1009 C 0.88502 0.08704 0.56938 0.0
C1010 C 0.88369 0.07219 0.55474 0.0
C1011 C 0.90215 0.10174 0.57547 0.0
C1012 C 0.89935 0.07158 0.54728 0.0
H1013 H 0.87044 0.06112 0.5493 0.0
C1014 C 0.91643 0.08622 0.55445 0.0
C1015 C 0.91796 0.10137 0.56859 0.0
C1016 C 0.89793 0.05565 0.53231 0.0
H1017 H 0.90322 0.11366 0.58507 0.0
H1018 H 0.92855 0.08583 0.54896 0.0
C1019 C 0.93604 0.11678 0.57618 0.0
O1020 O 0.91304 0.05517 0.52533 0.0
O1021 O 0.8831 0.04284 0.52628 0.0
O1022 O 0.93728 0.12944 0.58998 0.0
O1023 O 0.95125 0.11693 0.56783 0.0
H1024 H 0.91243 0.04491 0.51563 0.0
H1025 H 0.96314 0.1269 0.57238 0.0
N1026 N 0.84264 0.08922 0.60068 0.0
C1027 C 0.83158 0.09127 0.61819 0.0
C1028 C 0.81726 0.09276 0.60685 0.0
C1029 C 0.81557 0.09249 0.57728 0.0
C1030 C 0.82793 0.09057 0.55983 0.0
C1031 C 0.84177 0.08891 0.57274 0.0
N1032 N 0.85035 0.08808 0.65275 0.0
C1033 C 0.83592 0.09057 0.64787 0.0
O1034 O 0.82552 0.09054 0.66829 0.0
C1035 C 0.85644 0.08724 0.55954 0.0
O1036 O 0.8978 0.12851 0.51263 0.0
O1037 O 0.89342 0.10488 0.48866 0.0
C1038 C 0.85329 0.08291 0.68021 0.0
C1039 C 0.86102 0.09603 0.70165 0.0
C1040 C 0.86176 0.09072 0.72935 0.0
C1041 C 0.85518 0.07244 0.73533 0.0
C1042 C 0.84655 0.05913 0.71478 0.0
C1043 C 0.8452 0.06442 0.68735 0.0
O1044 O 0.83902 0.10791 0.47728 0.0
O1045 O 0.84108 0.13168 0.49887 0.0
O1046 O 0.87657 0.13801 0.51821 0.0
O1047 O 0.88464 0.16591 0.52644 0.0
O1048 O 0.8566 0.08479 0.53145 0.0
C1049 C 0.87521 0.12676 0.42961 0.0
O1050 O 0.87609 0.14113 0.43932 0.0
O1051 O 0.8715 0.11326 0.44549 0.0
C1052 C 0.90417 0.11904 0.50259 0.0
H1053 H 0.91854 0.11397 0.66748 0.0
H1054 H 0.8874 0.0553 0.66405 0.0
H1055 H 0.91476 0.08378 0.68019 0.0
H1056 H 0.88549 0.12575 0.5654 0.0
H1057 H 0.86779 0.16488 0.57291 0.0
H1058 H 0.86233 0.13056 0.64251 0.0
H1059 H 0.84998 0.03865 0.58009 0.0
H1060 H 0.81435 0.05548 0.6154 0.0
H1061 H 0.79467 0.01436 0.55253 0.0
H1062 H 0.80774 0.09411 0.62025 0.0
H1063 H 0.8047 0.09376 0.5679 0.0
H1064 H 0.82675 0.0905 0.5372 0.0
H1065 H 0.86572 0.11013 0.69693 0.0
H1066 H 0.85541 0.0684 0.75688 0.0
H1067 H 0.83732 0.05417 0.67192 0.0
Cd1068 Cd 0.90155 0.44141 0.32937 0.0
C1069 C 0.94097 0.44407 0.31787 0.0
C1070 C 0.85737 0.38933 0.46547 0.0
O1071 O 0.8455 0.37214 0.4696 0.0
Cd1072 Cd 0.95072 0.48428 0.31536 0.0
C1073 C 0.85405 0.40386 0.47466 0.0
C1074 C 0.85583 0.43595 0.4924 0.0
C1075 C 0.86919 0.43601 0.4753 0.0
N1076 N 0.86713 0.42018 0.4667 0.0
C1077 C 0.84018 0.40268 0.49184 0.0
C1078 C 0.8411 0.41899 0.50049 0.0
Co1079 Co 0.88694 0.42108 0.44964 0.0
C1080 C 0.88638 0.45149 0.46582 0.0
O1081 O 0.89059 0.46838 0.47014 0.0
C1082 C 0.91328 0.46015 0.4368 0.0
C1083 C 0.91351 0.46542 0.40872 0.0
C1084 C 0.92987 0.47876 0.39656 0.0
C1085 C 0.94574 0.48644 0.41265 0.0
C1086 C 0.94538 0.48038 0.43989 0.0
C1087 C 0.92915 0.46765 0.45215 0.0
C1088 C 0.93163 0.4826 0.36627 0.0
C1089 C 0.87644 0.38271 0.4348 0.0
C1090 C 0.86342 0.37198 0.41485 0.0
C1091 C 0.89156 0.38067 0.43889 0.0
C1092 C 0.89394 0.36849 0.42241 0.0
C1093 C 0.88098 0.35788 0.40238 0.0
C1094 C 0.86525 0.35915 0.39904 0.0
N1095 N 0.87348 0.39484 0.45184 0.0
N1096 N 0.89701 0.44703 0.45016 0.0
N1097 N 0.87851 0.42002 0.41098 0.0
C1098 C 0.86226 0.41988 0.40256 0.0
C1099 C 0.84854 0.40497 0.38831 0.0
C1100 C 0.85996 0.43466 0.40864 0.0
C1101 C 0.83217 0.40432 0.38155 0.0
H1102 H 0.85064 0.39389 0.38263 0.0
C1103 C 0.82977 0.41893 0.3891 0.0
C1104 C 0.84361 0.43418 0.40273 0.0
C1105 C 0.81746 0.38832 0.36702 0.0
H1106 H 0.87102 0.44673 0.41752 0.0
H1107 H 0.81713 0.41846 0.3843 0.0
C1108 C 0.84096 0.44952 0.41092 0.0
O1109 O 0.80174 0.38777 0.36076 0.0
O1110 O 0.81943 0.37551 0.36068 0.0
O1111 O 0.85264 0.46229 0.42422 0.0
O1112 O 0.82563 0.44948 0.40372 0.0
H1113 H 0.79196 0.37747 0.35135 0.0
H1114 H 0.82369 0.45938 0.40874 0.0
N1115 N 0.90706 0.42232 0.43334 0.0
C1116 C 0.92005 0.42397 0.4507 0.0
C1117 C 0.93519 0.42401 0.43925 0.0
C1118 C 0.93611 0.42285 0.40972 0.0
C1119 C 0.92194 0.42135 0.39244 0.0
C1120 C 0.90709 0.42105 0.40546 0.0
N1121 N 0.89873 0.42213 0.48551 0.0
C1122 C 0.91538 0.42395 0.48045 0.0
O1123 O 0.92562 0.42361 0.50081 0.0
C1124 C 0.89071 0.41944 0.39247 0.0
O1125 O 0.88782 0.45772 0.34599 0.0
O1126 O 0.87137 0.43608 0.31656 0.0
C1127 C 0.89029 0.4163 0.51265 0.0
C1128 C 0.89285 0.42928 0.53315 0.0
C1129 C 0.88639 0.42376 0.56062 0.0
C1130 C 0.8773 0.40534 0.56726 0.0
C1131 C 0.87641 0.39238 0.54828 0.0
C1132 C 0.88262 0.39792 0.52062 0.0
O1133 O 0.92474 0.43417 0.30941 0.0
O1134 O 0.94379 0.45576 0.33644 0.0
O1135 O 0.9228 0.47012 0.34871 0.0
O1136 O 0.94486 0.49709 0.35686 0.0
O1137 O 0.88781 0.41674 0.36448 0.0
C1138 C 0.91683 0.4611 0.26273 0.0
O1139 O 0.93158 0.47393 0.27278 0.0
O1140 O 0.90519 0.4483 0.27826 0.0
C1141 C 0.87312 0.44897 0.33239 0.0
H1142 H 0.85689 0.44845 0.49975 0.0
H1143 H 0.82932 0.38972 0.49896 0.0
H1144 H 0.83067 0.41851 0.51399 0.0
H1145 H 0.9012 0.45906 0.39648 0.0
H1146 H 0.95865 0.49603 0.40335 0.0
H1147 H 0.9289 0.46319 0.47357 0.0
H1148 H 0.85149 0.37324 0.41246 0.0
H1149 H 0.90123 0.38802 0.45526 0.0
H1150 H 0.88285 0.34803 0.39075 0.0
H1151 H 0.94585 0.42481 0.45254 0.0
H1152 H 0.9477 0.42296 0.40026 0.0
H1153 H 0.92256 0.42034 0.36986 0.0
H1154 H 0.90048 0.44355 0.52801 0.0
H1155 H 0.8723 0.40127 0.58849 0.0
H1156 H 0.88248 0.38825 0.50575 0.0
Cd1157 Cd 0.55418 0.45984 0.32822 0.0
C1158 C 0.55617 0.4988 0.31053 0.0
C1159 C 0.60416 0.46642 0.46423 0.0
O1160 O 0.62142 0.47198 0.46821 0.0
Cd1161 Cd 0.51599 0.47146 0.3119 0.0
C1162 C 0.58988 0.44845 0.47336 0.0
C1163 C 0.55817 0.41738 0.49011 0.0
C1164 C 0.55776 0.43087 0.47394 0.0
N1165 N 0.57344 0.44508 0.46598 0.0
C1166 C 0.59141 0.4356 0.48958 0.0
C1167 C 0.57528 0.41984 0.49778 0.0
Co1168 Co 0.57208 0.46375 0.4491 0.0
C1169 C 0.54204 0.43222 0.46464 0.0
O1170 O 0.52529 0.4192 0.4688 0.0
C1171 C 0.53261 0.45047 0.43714 0.0
C1172 C 0.52945 0.44892 0.40802 0.0
C1173 C 0.5164 0.45252 0.3964 0.0
C1174 C 0.50646 0.45734 0.41424 0.0
C1175 C 0.51019 0.45962 0.44299 0.0
C1176 C 0.52289 0.45567 0.45444 0.0
C1177 C 0.51503 0.45442 0.36587 0.0
C1178 C 0.61022 0.49208 0.4339 0.0
C1179 C 0.62129 0.49002 0.41429 0.0
C1180 C 0.61138 0.50896 0.43687 0.0
C1181 C 0.62303 0.52339 0.41966 0.0
C1182 C 0.63396 0.52122 0.39998 0.0
C1183 C 0.63356 0.50458 0.39775 0.0
N1184 N 0.59837 0.47701 0.45126 0.0
N1185 N 0.54612 0.44742 0.44947 0.0
N1186 N 0.57362 0.45662 0.41054 0.0
C1187 C 0.573 0.44014 0.40208 0.0
C1188 C 0.58822 0.44054 0.39029 0.0
C1189 C 0.55711 0.42348 0.40573 0.0
C1190 C 0.58796 0.42436 0.38345 0.0
H1191 H 0.60023 0.45345 0.38657 0.0
C1192 C 0.5721 0.40771 0.38831 0.0
C1193 C 0.55659 0.40714 0.3995 0.0
C1194 C 0.60427 0.42477 0.37162 0.0
H1195 H 0.54502 0.42322 0.41302 0.0
H1196 H 0.57182 0.39518 0.38338 0.0
C1197 C 0.53993 0.38952 0.40486 0.0
O1198 O 0.60396 0.40915 0.36543 0.0
O1199 O 0.6181 0.43921 0.36749 0.0
O1200 O 0.527 0.38902 0.41683 0.0
O1201 O 0.53894 0.3739 0.39657 0.0
H1202 H 0.61445 0.4091 0.35777 0.0
H1203 H 0.52817 0.3623 0.39971 0.0
N1204 N 0.57036 0.48232 0.43279 0.0
C1205 C 0.56731 0.49283 0.45004 0.0
C1206 C 0.5657 0.50703 0.43845 0.0
C1207 C 0.56731 0.50938 0.40895 0.0
C1208 C 0.57055 0.49772 0.39184 0.0
C1209 C 0.572 0.48382 0.40494 0.0
N1210 N 0.57044 0.4742 0.48502 0.0
C1211 C 0.56735 0.48823 0.47983 0.0
O1212 O 0.56673 0.49837 0.50013 0.0
C1213 C 0.57453 0.46953 0.39206 0.0
O1214 O 0.53232 0.4302 0.34204 0.0
O1215 O 0.55597 0.43226 0.32102 0.0
C1216 C 0.57605 0.47178 0.51252 0.0
C1217 C 0.56308 0.46344 0.53402 0.0
C1218 C 0.56864 0.46282 0.56161 0.0
C1219 C 0.58705 0.47016 0.56743 0.0
C1220 C 0.60022 0.47938 0.54689 0.0
C1221 C 0.59464 0.4806 0.51956 0.0
O1222 O 0.56306 0.48925 0.30275 0.0
O1223 O 0.54516 0.49295 0.33082 0.0
O1224 O 0.52763 0.45669 0.34947 0.0
O1225 O 0.50208 0.45569 0.35535 0.0
O1226 O 0.57807 0.46974 0.36428 0.0
C1227 C 0.53659 0.45639 0.26079 0.0
O1228 O 0.52472 0.46008 0.27005 0.0
O1229 O 0.54853 0.45633 0.27698 0.0
C1230 C 0.54077 0.42243 0.3332 0.0
H1231 H 0.54581 0.40557 0.49696 0.0
H1232 H 0.60449 0.43778 0.49619 0.0
H1233 H 0.57603 0.40973 0.51051 0.0
H1234 H 0.53733 0.4453 0.39451 0.0
H1235 H 0.49684 0.46081 0.40554 0.0
H1236 H 0.52619 0.45778 0.47661 0.0
H1237 H 0.62072 0.47711 0.41258 0.0
H1238 H 0.60365 0.51114 0.45278 0.0
H1239 H 0.64335 0.53282 0.38767 0.0
H1240 H 0.56344 0.51607 0.4516 0.0
H1241 H 0.56612 0.52024 0.39939 0.0
H1242 H 0.57179 0.49948 0.3693 0.0
H1243 H 0.54886 0.45809 0.52943 0.0
H1244 H 0.59123 0.47 0.58891 0.0
H1245 H 0.6047 0.48886 0.50413 0.0
Cd1246 Cd 0.53498 0.09182 0.32877 0.0
C1247 C 0.49655 0.05415 0.31096 0.0
C1248 C 0.52452 0.13499 0.46375 0.0
O1249 O 0.51818 0.14606 0.46773 0.0
Cd1250 Cd 0.52501 0.04231 0.31473 0.0
C1251 C 0.54251 0.1393 0.47372 0.0
C1252 C 0.57373 0.13973 0.4925 0.0
C1253 C 0.56109 0.12589 0.47526 0.0
N1254 N 0.54679 0.12687 0.46624 0.0
C1255 C 0.55447 0.15359 0.49098 0.0
C1256 C 0.57033 0.15378 0.50017 0.0
Co1257 Co 0.52887 0.10652 0.44875 0.0
C1258 C 0.56059 0.10916 0.46628 0.0
O1259 O 0.57381 0.1059 0.47161 0.0
C1260 C 0.54357 0.08125 0.43887 0.0
C1261 C 0.54557 0.07945 0.40996 0.0
C1262 C 0.54277 0.0629 0.39906 0.0
C1263 C 0.53838 0.04849 0.41744 0.0
C1264 C 0.53561 0.05009 0.44598 0.0
C1265 C 0.53875 0.06665 0.45673 0.0
C1266 C 0.54122 0.05929 0.36863 0.0
C1267 C 0.50036 0.11566 0.43106 0.0
C1268 C 0.50267 0.12937 0.41243 0.0
C1269 C 0.48368 0.09955 0.43204 0.0
C1270 C 0.46973 0.09704 0.41396 0.0
C1271 C 0.47211 0.11078 0.39545 0.0
C1272 C 0.48849 0.12737 0.39525 0.0
N1273 N 0.51482 0.1188 0.44983 0.0
N1274 N 0.54588 0.09773 0.45044 0.0
N1275 N 0.53651 0.11528 0.41034 0.0
C1276 C 0.55286 0.1314 0.40237 0.0
C1277 C 0.55216 0.14593 0.39006 0.0
C1278 C 0.56969 0.13273 0.40702 0.0
C1279 C 0.56818 0.16211 0.38362 0.0
H1280 H 0.53912 0.1446 0.38564 0.0
C1281 C 0.58498 0.16347 0.38949 0.0
C1282 C 0.58586 0.14883 0.40128 0.0
C1283 C 0.56744 0.17768 0.37112 0.0
H1284 H 0.57022 0.12113 0.41473 0.0
H1285 H 0.59738 0.17593 0.3849 0.0
C1286 C 0.60364 0.15042 0.40777 0.0
O1287 O 0.5829 0.19321 0.36521 0.0
O1288 O 0.55287 0.17659 0.36616 0.0
O1289 O 0.60434 0.13821 0.42012 0.0
O1290 O 0.61917 0.16537 0.4001 0.0
H1291 H 0.58274 0.20353 0.35712 0.0
H1292 H 0.63087 0.16661 0.404 0.0
N1293 N 0.51104 0.08591 0.43196 0.0
C1294 C 0.50058 0.07219 0.44897 0.0
C1295 C 0.48699 0.05611 0.43703 0.0
C1296 C 0.4852 0.05529 0.40744 0.0
C1297 C 0.49679 0.07036 0.39059 0.0
C1298 C 0.51005 0.08596 0.40404 0.0
N1299 N 0.51802 0.09423 0.48433 0.0
C1300 C 0.50452 0.07689 0.47884 0.0
O1301 O 0.49427 0.06592 0.49885 0.0
C1302 C 0.52419 0.10296 0.39148 0.0
O1303 O 0.56478 0.1013 0.34398 0.0
O1304 O 0.56168 0.12171 0.32107 0.0
C1305 C 0.51951 0.10209 0.51172 0.0
C1306 C 0.52803 0.09807 0.53367 0.0
C1307 C 0.52717 0.10331 0.56138 0.0
C1308 C 0.51788 0.11259 0.56698 0.0
C1309 C 0.50869 0.11602 0.54582 0.0
C1310 C 0.50935 0.11059 0.51819 0.0
O1311 O 0.50595 0.07058 0.30306 0.0
O1312 O 0.50239 0.04913 0.33146 0.0
O1313 O 0.53874 0.0692 0.35161 0.0
O1314 O 0.54044 0.04511 0.35881 0.0
O1315 O 0.5244 0.10606 0.36354 0.0
C1316 C 0.54028 0.07706 0.26254 0.0
O1317 O 0.53703 0.06181 0.27253 0.0
O1318 O 0.5394 0.08893 0.27787 0.0
C1319 C 0.57191 0.11732 0.33441 0.0
H1320 H 0.58554 0.13952 0.50026 0.0
H1321 H 0.5515 0.16395 0.4977 0.0
H1322 H 0.57975 0.16457 0.51375 0.0
H1323 H 0.5489 0.0907 0.39604 0.0
H1324 H 0.53554 0.03546 0.40926 0.0
H1325 H 0.53626 0.06796 0.4787 0.0
H1326 H 0.51542 0.14198 0.41214 0.0
H1327 H 0.48124 0.08914 0.44714 0.0
H1328 H 0.4608 0.10875 0.38254 0.0
H1329 H 0.47801 0.04467 0.44999 0.0
H1330 H 0.47482 0.04304 0.3976 0.0
H1331 H 0.49546 0.06978 0.36798 0.0
H1332 H 0.53468 0.09033 0.52929 0.0
H1333 H 0.51696 0.11637 0.58845 0.0
H1334 H 0.50116 0.11203 0.50221 0.0
Cd1335 Cd 0.77351 0.56976 0.85063 0.0
C1336 C 0.77492 0.60898 0.86285 0.0
C1337 C 0.72219 0.52504 0.71522 0.0
O1338 O 0.70509 0.51302 0.71078 0.0
Cd1339 Cd 0.81473 0.61889 0.86602 0.0
C1340 C 0.73691 0.52213 0.70573 0.0
C1341 C 0.76923 0.52434 0.68827 0.0
C1342 C 0.76905 0.53773 0.70501 0.0
N1343 N 0.75313 0.53552 0.71335 0.0
C1344 C 0.73595 0.50822 0.68891 0.0
C1345 C 0.75239 0.50938 0.68037 0.0
Co1346 Co 0.75368 0.55506 0.73077 0.0
C1347 C 0.78436 0.55497 0.71459 0.0
O1348 O 0.80131 0.5594 0.71031 0.0
C1349 C 0.79275 0.58196 0.74312 0.0
C1350 C 0.79756 0.58271 0.77152 0.0
C1351 C 0.8108 0.59925 0.78331 0.0
C1352 C 0.81888 0.61481 0.76648 0.0
C1353 C 0.8133 0.61397 0.73874 0.0
C1354 C 0.80071 0.59749 0.72692 0.0
C1355 C 0.81408 0.60144 0.81377 0.0
C1356 C 0.71503 0.54379 0.74574 0.0
C1357 C 0.70363 0.53016 0.76448 0.0
C1358 C 0.71324 0.55913 0.74254 0.0
C1359 C 0.70063 0.56107 0.75864 0.0
C1360 C 0.68932 0.54745 0.77733 0.0
C1361 C 0.69033 0.53153 0.77964 0.0
N1362 N 0.72741 0.54115 0.72875 0.0
N1363 N 0.7797 0.56547 0.73021 0.0
N1364 N 0.7527 0.5464 0.76919 0.0
C1365 C 0.75299 0.53033 0.77723 0.0
C1366 C 0.73791 0.51594 0.79007 0.0
C1367 C 0.76839 0.52889 0.77212 0.0
C1368 C 0.73778 0.49979 0.79661 0.0
H1369 H 0.72628 0.51736 0.7948 0.0
C1370 C 0.75309 0.4983 0.79023 0.0
C1371 C 0.76846 0.51279 0.77787 0.0
C1372 C 0.72162 0.48438 0.80971 0.0
H1373 H 0.78044 0.54041 0.76405 0.0
H1374 H 0.75304 0.48585 0.79488 0.0
C1375 C 0.78451 0.51107 0.7708 0.0
O1376 O 0.72159 0.46889 0.8158 0.0
O1377 O 0.70823 0.48557 0.81501 0.0
O1378 O 0.79732 0.52321 0.75818 0.0
O1379 O 0.78507 0.49608 0.77828 0.0
H1380 H 0.7112 0.45867 0.82429 0.0
H1381 H 0.79545 0.49476 0.77405 0.0
N1382 N 0.75464 0.57493 0.74751 0.0
C1383 C 0.75686 0.58831 0.73052 0.0
C1384 C 0.75746 0.60362 0.74239 0.0
C1385 C 0.75614 0.60424 0.77194 0.0
C1386 C 0.75406 0.58967 0.78882 0.0
C1387 C 0.75335 0.57474 0.7754 0.0
N1388 N 0.75466 0.56713 0.69511 0.0
C1389 C 0.75695 0.58393 0.70067 0.0
O1390 O 0.75681 0.59449 0.68064 0.0
C1391 C 0.75175 0.55826 0.78796 0.0
O1392 O 0.7926 0.55896 0.83468 0.0
O1393 O 0.77036 0.54008 0.86134 0.0
C1394 C 0.74837 0.55906 0.66781 0.0
C1395 C 0.76083 0.56382 0.64548 0.0
C1396 C 0.75456 0.55876 0.61781 0.0
C1397 C 0.73598 0.54876 0.6126 0.0
C1398 C 0.72343 0.54457 0.63412 0.0
C1399 C 0.72963 0.54989 0.66172 0.0
O1400 O 0.76603 0.59269 0.87165 0.0
O1401 O 0.78664 0.61247 0.84405 0.0
O1402 O 0.80158 0.59202 0.83097 0.0
O1403 O 0.82821 0.61489 0.8236 0.0
O1404 O 0.74888 0.55506 0.81585 0.0
C1405 C 0.79141 0.58399 0.9177 0.0
O1406 O 0.80403 0.59912 0.90826 0.0
O1407 O 0.77915 0.57227 0.90161 0.0
C1408 C 0.78424 0.54358 0.84655 0.0
H1409 H 0.78182 0.52551 0.68115 0.0
H1410 H 0.72306 0.4971 0.68209 0.0
H1411 H 0.75208 0.49889 0.66718 0.0
H1412 H 0.79089 0.57064 0.7843 0.0
H1413 H 0.82832 0.62786 0.77551 0.0
H1414 H 0.79662 0.5968 0.70517 0.0
H1415 H 0.70468 0.51807 0.76634 0.0
H1416 H 0.72106 0.56931 0.72705 0.0
H1417 H 0.67916 0.54897 0.78865 0.0
H1418 H 0.75879 0.61463 0.72941 0.0
H1419 H 0.75664 0.61594 0.78173 0.0
H1420 H 0.75306 0.59011 0.81142 0.0
H1421 H 0.7752 0.5722 0.64951 0.0
H1422 H 0.73121 0.54508 0.59114 0.0
H1423 H 0.71996 0.54792 0.67797 0.0
Cd1424 Cd 0.4227 0.20231 0.84958 0.0
C1425 C 0.38262 0.16435 0.86476 0.0
C1426 C 0.46714 0.19484 0.71429 0.0
O1427 O 0.47888 0.18938 0.70993 0.0
Cd1428 Cd 0.37533 0.1962 0.8658 0.0
C1429 C 0.47053 0.21263 0.70481 0.0
C1430 C 0.46917 0.24313 0.68697 0.0
C1431 C 0.45559 0.22981 0.70376 0.0
N1432 N 0.45739 0.21588 0.7123 0.0
C1433 C 0.48461 0.22532 0.68796 0.0
C1434 C 0.48389 0.24081 0.67923 0.0
Co1435 Co 0.43747 0.19711 0.72934 0.0
C1436 C 0.43845 0.22828 0.71297 0.0
O1437 O 0.43443 0.24108 0.70848 0.0
C1438 C 0.41115 0.2102 0.74111 0.0
C1439 C 0.41019 0.21362 0.76976 0.0
C1440 C 0.39373 0.21069 0.78136 0.0
C1441 C 0.37847 0.20438 0.76406 0.0
C1442 C 0.37956 0.20053 0.73595 0.0
C1443 C 0.3959 0.20381 0.72439 0.0
C1444 C 0.39128 0.21105 0.81186 0.0
C1445 C 0.44809 0.1693 0.74517 0.0
C1446 C 0.46182 0.1714 0.76362 0.0
C1447 C 0.43246 0.15232 0.74264 0.0
C1448 C 0.43036 0.13783 0.75904 0.0
C1449 C 0.44411 0.13999 0.77734 0.0
C1450 C 0.4603 0.15671 0.77899 0.0
N1451 N 0.45091 0.18421 0.72769 0.0
N1452 N 0.42757 0.21318 0.72847 0.0
N1453 N 0.44588 0.20451 0.76794 0.0
C1454 C 0.46193 0.22078 0.77635 0.0
C1455 C 0.47615 0.21991 0.78944 0.0
C1456 C 0.46344 0.23768 0.77165 0.0
C1457 C 0.49219 0.23584 0.79675 0.0
H1458 H 0.47468 0.2068 0.79382 0.0
C1459 C 0.49372 0.25272 0.79091 0.0
C1460 C 0.4794 0.25378 0.77828 0.0
C1461 C 0.50741 0.23492 0.8102 0.0
H1462 H 0.45205 0.23834 0.7633 0.0
H1463 H 0.50607 0.26506 0.79623 0.0
C1464 C 0.48114 0.27165 0.77197 0.0
O1465 O 0.52279 0.25029 0.81701 0.0
O1466 O 0.50615 0.22027 0.81516 0.0
O1467 O 0.46912 0.27252 0.75934 0.0
O1468 O 0.49602 0.28708 0.78016 0.0
H1469 H 0.53288 0.25001 0.82574 0.0
H1470 H 0.49735 0.29884 0.77642 0.0
N1471 N 0.41722 0.17842 0.74568 0.0
C1472 C 0.40385 0.16758 0.72842 0.0
C1473 C 0.38816 0.15319 0.74001 0.0
C1474 C 0.38719 0.15122 0.76956 0.0
C1475 C 0.40178 0.16335 0.78673 0.0
C1476 C 0.41711 0.17725 0.77358 0.0
N1477 N 0.42553 0.1863 0.69342 0.0
C1478 C 0.40854 0.17204 0.69864 0.0
O1479 O 0.39793 0.16169 0.67839 0.0
C1480 C 0.43369 0.19178 0.78648 0.0
O1481 O 0.43278 0.23251 0.83552 0.0
O1482 O 0.45285 0.22857 0.85781 0.0
C1483 C 0.43352 0.18871 0.66589 0.0
C1484 C 0.42843 0.19654 0.64419 0.0
C1485 C 0.43441 0.19691 0.61652 0.0
C1486 C 0.44574 0.18984 0.61083 0.0
C1487 C 0.45015 0.18113 0.63161 0.0
C1488 C 0.44352 0.18011 0.65901 0.0
O1489 O 0.39911 0.17297 0.87276 0.0
O1490 O 0.37775 0.1714 0.84585 0.0
O1491 O 0.40081 0.20797 0.82879 0.0
O1492 O 0.37811 0.21208 0.82206 0.0
O1493 O 0.43671 0.19181 0.8144 0.0
C1494 C 0.41025 0.20677 0.91703 0.0
O1495 O 0.39535 0.20488 0.90767 0.0
O1496 O 0.42159 0.20562 0.90083 0.0
C1497 C 0.44877 0.23923 0.84506 0.0
H1498 H 0.4683 0.25468 0.67964 0.0
H1499 H 0.49553 0.22319 0.68122 0.0
H1500 H 0.49451 0.25078 0.66599 0.0
H1501 H 0.42201 0.21822 0.78291 0.0
H1502 H 0.36542 0.201 0.77284 0.0
H1503 H 0.39662 0.20066 0.70251 0.0
H1504 H 0.47411 0.1844 0.76508 0.0
H1505 H 0.42216 0.15002 0.72743 0.0
H1506 H 0.44243 0.12831 0.78884 0.0
H1507 H 0.3771 0.14379 0.72681 0.0
H1508 H 0.37518 0.14029 0.77913 0.0
H1509 H 0.40103 0.16193 0.80935 0.0
H1510 H 0.41937 0.20167 0.64871 0.0
H1511 H 0.45001 0.18984 0.58934 0.0
H1512 H 0.44566 0.17216 0.67461 0.0
Cd1513 Cd 0.79188 0.22074 0.84865 0.0
C1514 C 0.82853 0.21739 0.86066 0.0
C1515 C 0.80021 0.27157 0.71089 0.0
O1516 O 0.80595 0.28879 0.70603 0.0
Cd1517 Cd 0.79715 0.17796 0.86463 0.0
C1518 C 0.7822 0.25728 0.70197 0.0
C1519 C 0.75135 0.22549 0.68498 0.0
C1520 C 0.7644 0.22521 0.7024 0.0
N1521 N 0.77845 0.24093 0.71069 0.0
C1522 C 0.76979 0.2587 0.68446 0.0
C1523 C 0.75411 0.24253 0.67622 0.0
Co1524 Co 0.79704 0.2396 0.72803 0.0
C1525 C 0.76561 0.20953 0.71231 0.0
O1526 O 0.75262 0.19275 0.70821 0.0
C1527 C 0.78327 0.20026 0.74136 0.0
C1528 C 0.7791 0.19583 0.76987 0.0
C1529 C 0.7815 0.1821 0.78209 0.0
C1530 C 0.78815 0.17312 0.76555 0.0
C1531 C 0.79281 0.17816 0.73766 0.0
C1532 C 0.79001 0.19136 0.72544 0.0
C1533 C 0.78039 0.17913 0.81262 0.0
C1534 C 0.82493 0.27801 0.74341 0.0
C1535 C 0.82236 0.28951 0.7615 0.0
C1536 C 0.84194 0.27933 0.74206 0.0
C1537 C 0.85599 0.2916 0.75926 0.0
C1538 C 0.85335 0.30301 0.77727 0.0
C1539 C 0.83659 0.30245 0.77787 0.0
N1540 N 0.81042 0.2659 0.72534 0.0
N1541 N 0.78061 0.21371 0.728 0.0
N1542 N 0.78988 0.2413 0.76657 0.0
C1543 C 0.77392 0.24177 0.77489 0.0
C1544 C 0.77536 0.25697 0.78856 0.0
C1545 C 0.75674 0.22696 0.76946 0.0
C1546 C 0.75977 0.25784 0.79546 0.0
H1547 H 0.78863 0.26809 0.7937 0.0
C1548 C 0.74264 0.24316 0.78864 0.0
C1549 C 0.741 0.22765 0.77556 0.0
C1550 C 0.7613 0.27411 0.80945 0.0
H1551 H 0.75557 0.21472 0.76101 0.0
H1552 H 0.73057 0.24379 0.79357 0.0
C1553 C 0.72288 0.21223 0.76816 0.0
O1554 O 0.74626 0.27484 0.81591 0.0
O1555 O 0.77617 0.28698 0.81515 0.0
O1556 O 0.72156 0.19923 0.75523 0.0
O1557 O 0.70772 0.21245 0.77567 0.0
H1558 H 0.74694 0.28532 0.82498 0.0
H1559 H 0.6958 0.20251 0.77118 0.0
N1560 N 0.81557 0.23787 0.74457 0.0
C1561 C 0.82634 0.23513 0.72744 0.0
C1562 C 0.84075 0.23393 0.73913 0.0
C1563 C 0.84287 0.23531 0.76866 0.0
C1564 C 0.83084 0.23804 0.78568 0.0
C1565 C 0.81687 0.23929 0.77243 0.0
N1566 N 0.80754 0.23778 0.69231 0.0
C1567 C 0.82179 0.23506 0.69766 0.0
O1568 O 0.83203 0.23452 0.67745 0.0
C1569 C 0.80254 0.24175 0.78517 0.0
O1570 O 0.76172 0.20363 0.83292 0.0
O1571 O 0.76699 0.22626 0.86023 0.0
C1572 C 0.80526 0.24341 0.66479 0.0
C1573 C 0.79531 0.23026 0.64421 0.0
C1574 C 0.79492 0.23556 0.61639 0.0
C1575 C 0.80436 0.25393 0.60941 0.0
C1576 C 0.81577 0.26709 0.62868 0.0
C1577 C 0.81597 0.26175 0.65664 0.0
O1578 O 0.82199 0.22709 0.86932 0.0
O1579 O 0.81966 0.20555 0.84231 0.0
O1580 O 0.78429 0.192 0.82949 0.0
O1581 O 0.77897 0.16474 0.8228 0.0
O1582 O 0.80265 0.245 0.81302 0.0
C1583 C 0.7871 0.20246 0.916 0.0
O1584 O 0.78881 0.18932 0.90676 0.0
O1585 O 0.7884 0.215 0.89976 0.0
C1586 C 0.7558 0.21282 0.84536 0.0
H1587 H 0.7397 0.21307 0.67787 0.0
H1588 H 0.77231 0.2717 0.67681 0.0
H1589 H 0.74436 0.24318 0.66246 0.0
H1590 H 0.7743 0.20314 0.78241 0.0
H1591 H 0.79113 0.16328 0.77482 0.0
H1592 H 0.79372 0.19524 0.70369 0.0
H1593 H 0.80932 0.28877 0.76202 0.0
H1594 H 0.84457 0.27133 0.72727 0.0
H1595 H 0.86471 0.31287 0.78949 0.0
H1596 H 0.85007 0.23207 0.72603 0.0
H1597 H 0.85384 0.23435 0.77831 0.0
H1598 H 0.83243 0.23912 0.80826 0.0
H1599 H 0.78853 0.21602 0.64966 0.0
H1600 H 0.80377 0.25782 0.58793 0.0
H1601 H 0.82517 0.27156 0.67165 0.0
Cd1602 Cd 0.42317 0.2204 0.34903 0.0
C1603 C 0.38569 0.22009 0.36366 0.0
C1604 C 0.46599 0.27248 0.21374 0.0
O1605 O 0.47702 0.28994 0.21023 0.0
Cd1606 Cd 0.37302 0.17946 0.36291 0.0
C1607 C 0.47076 0.25897 0.2045 0.0
C1608 C 0.47204 0.22837 0.18695 0.0
C1609 C 0.45782 0.227 0.20339 0.0
N1610 N 0.45839 0.2422 0.21185 0.0
C1611 C 0.48543 0.26146 0.18804 0.0
C1612 C 0.48605 0.24589 0.17947 0.0
Co1613 Co 0.43775 0.23951 0.22855 0.0
C1614 C 0.44113 0.21065 0.21224 0.0
O1615 O 0.43826 0.19423 0.20755 0.0
C1616 C 0.41308 0.19958 0.23948 0.0
C1617 C 0.41158 0.19586 0.26844 0.0
C1618 C 0.39517 0.18207 0.27971 0.0
C1619 C 0.38057 0.17204 0.26166 0.0
C1620 C 0.38182 0.17643 0.23315 0.0
C1621 C 0.39828 0.18979 0.22201 0.0
C1622 C 0.3918 0.18015 0.31024 0.0
C1623 C 0.44551 0.277 0.24444 0.0
C1624 C 0.4583 0.28834 0.26425 0.0
C1625 C 0.42956 0.27763 0.24092 0.0
C1626 C 0.42633 0.28923 0.25749 0.0
C1627 C 0.4392 0.30064 0.27707 0.0
C1628 C 0.45566 0.3007 0.28003 0.0
N1629 N 0.44954 0.26577 0.22691 0.0
N1630 N 0.42939 0.21379 0.22754 0.0
N1631 N 0.44625 0.24112 0.26723 0.0
C1632 C 0.46254 0.24142 0.27584 0.0
C1633 C 0.47662 0.25682 0.28858 0.0
C1634 C 0.46454 0.22629 0.27129 0.0
C1635 C 0.49303 0.25756 0.29538 0.0
H1636 H 0.47478 0.26821 0.29304 0.0
C1637 C 0.49508 0.24252 0.28946 0.0
C1638 C 0.4809 0.22681 0.27734 0.0
C1639 C 0.50814 0.27407 0.30823 0.0
H1640 H 0.45327 0.21397 0.26341 0.0
H1641 H 0.50774 0.24303 0.29431 0.0
C1642 C 0.48322 0.21105 0.27078 0.0
O1643 O 0.52391 0.27471 0.3144 0.0
O1644 O 0.50646 0.28721 0.31324 0.0
O1645 O 0.47134 0.19793 0.25835 0.0
O1646 O 0.49847 0.21109 0.27852 0.0
H1647 H 0.53395 0.28535 0.32271 0.0
H1648 H 0.50019 0.20091 0.27459 0.0
N1649 N 0.41686 0.23651 0.24457 0.0
C1650 C 0.40334 0.23321 0.22709 0.0
C1651 C 0.3872 0.23095 0.23842 0.0
C1652 C 0.38615 0.2323 0.26791 0.0
C1653 C 0.40106 0.23593 0.28526 0.0
C1654 C 0.41671 0.23795 0.27241 0.0
N1655 N 0.42578 0.23763 0.19255 0.0
C1656 C 0.40839 0.23382 0.19738 0.0
O1657 O 0.39763 0.2329 0.17689 0.0
C1658 C 0.4337 0.24116 0.28554 0.0
O1659 O 0.43508 0.20202 0.33469 0.0
O1660 O 0.45353 0.22537 0.35988 0.0
C1661 C 0.434 0.24355 0.16526 0.0
C1662 C 0.43108 0.2306 0.14451 0.0
C1663 C 0.43732 0.23616 0.11699 0.0
C1664 C 0.44659 0.25459 0.11047 0.0
C1665 C 0.44804 0.26762 0.12982 0.0
C1666 C 0.44187 0.26199 0.1575 0.0
O1667 O 0.40201 0.22934 0.37198 0.0
O1668 O 0.38251 0.20897 0.34399 0.0
O1669 O 0.40133 0.19302 0.32682 0.0
O1670 O 0.37776 0.16669 0.32031 0.0
O1671 O 0.43668 0.24459 0.31338 0.0
C1672 C 0.40683 0.20029 0.41576 0.0
O1673 O 0.39165 0.18782 0.40627 0.0
O1674 O 0.41862 0.21259 0.39974 0.0
C1675 C 0.45052 0.21128 0.34607 0.0
H1676 H 0.4722 0.21642 0.1797 0.0
H1677 H 0.49577 0.27483 0.18147 0.0
H1678 H 0.49714 0.24738 0.16653 0.0
H1679 H 0.42293 0.20391 0.28211 0.0
H1680 H 0.36762 0.16189 0.27013 0.0
H1681 H 0.39935 0.19357 0.20006 0.0
H1682 H 0.47071 0.28796 0.26646 0.0
H1683 H 0.41986 0.26963 0.22494 0.0
H1684 H 0.43661 0.31002 0.28865 0.0
H1685 H 0.37592 0.22846 0.22507 0.0
H1686 H 0.37386 0.23066 0.27729 0.0
H1687 H 0.40035 0.23711 0.30777 0.0
H1688 H 0.42341 0.21631 0.14957 0.0
H1689 H 0.45152 0.25865 0.08921 0.0
H1690 H 0.44222 0.27167 0.17254 0.0
Cd1691 Cd 0.77226 0.20214 0.34921 0.0
C1692 C 0.77114 0.16399 0.3641 0.0
C1693 C 0.72162 0.19493 0.21502 0.0
O1694 O 0.70426 0.18907 0.21167 0.0
Cd1695 Cd 0.81175 0.19153 0.36447 0.0
C1696 C 0.73557 0.21292 0.2054 0.0
C1697 C 0.76676 0.24415 0.18755 0.0
C1698 C 0.76765 0.23087 0.2036 0.0
N1699 N 0.7522 0.21658 0.21213 0.0
C1700 C 0.73356 0.22553 0.18931 0.0
C1701 C 0.74943 0.24138 0.18056 0.0
Co1702 Co 0.75416 0.19826 0.22905 0.0
C1703 C 0.78366 0.2299 0.21241 0.0
O1704 O 0.80027 0.24309 0.20776 0.0
C1705 C 0.79386 0.21232 0.24006 0.0
C1706 C 0.79729 0.21425 0.26909 0.0
C1707 C 0.81062 0.21103 0.28065 0.0
C1708 C 0.82051 0.20614 0.26279 0.0
C1709 C 0.81653 0.2035 0.23411 0.0
C1710 C 0.80358 0.20712 0.22274 0.0
C1711 C 0.81221 0.20945 0.31124 0.0
C1712 C 0.71635 0.16929 0.24484 0.0
C1713 C 0.70534 0.17092 0.26506 0.0
C1714 C 0.71528 0.15253 0.24078 0.0
C1715 C 0.70362 0.13772 0.25732 0.0
C1716 C 0.69259 0.13939 0.2774 0.0
C1717 C 0.69295 0.15597 0.28087 0.0
N1718 N 0.72786 0.18461 0.22765 0.0
N1719 N 0.78003 0.21493 0.22789 0.0
N1720 N 0.75282 0.20551 0.26759 0.0
C1721 C 0.75298 0.22179 0.27594 0.0
C1722 C 0.73777 0.22098 0.28857 0.0
C1723 C 0.76831 0.23869 0.27097 0.0
C1724 C 0.73744 0.23694 0.29484 0.0
H1725 H 0.72621 0.20792 0.29331 0.0
C1726 C 0.75266 0.25379 0.28843 0.0
C1727 C 0.76816 0.2548 0.27639 0.0
C1728 C 0.72114 0.23608 0.3076 0.0
H1729 H 0.78048 0.23935 0.26321 0.0
H1730 H 0.75244 0.26614 0.29282 0.0
C1731 C 0.78409 0.27262 0.2692 0.0
O1732 O 0.72088 0.25148 0.31326 0.0
O1733 O 0.70783 0.22146 0.31299 0.0
O1734 O 0.79705 0.2734 0.2569 0.0
O1735 O 0.78438 0.28812 0.2762 0.0
H1736 H 0.71039 0.25124 0.32151 0.0
H1737 H 0.79467 0.29986 0.27185 0.0
N1738 N 0.75644 0.18002 0.24534 0.0
C1739 C 0.75945 0.1695 0.22806 0.0
C1740 C 0.76107 0.15529 0.23962 0.0
C1741 C 0.75943 0.15291 0.2691 0.0
C1742 C 0.75613 0.16453 0.28622 0.0
C1743 C 0.75475 0.17847 0.27315 0.0
N1744 N 0.75563 0.18773 0.19319 0.0
C1745 C 0.75909 0.17393 0.19829 0.0
O1746 O 0.75954 0.16369 0.17801 0.0
C1747 C 0.75201 0.19262 0.28601 0.0
O1748 O 0.79188 0.2322 0.33475 0.0
O1749 O 0.76836 0.22831 0.35854 0.0
C1750 C 0.74916 0.18949 0.16605 0.0
C1751 C 0.76155 0.19792 0.14386 0.0
C1752 C 0.75522 0.19752 0.11643 0.0
C1753 C 0.73659 0.18882 0.11139 0.0
C1754 C 0.72415 0.17968 0.13277 0.0
C1755 C 0.73044 0.17979 0.16004 0.0
O1756 O 0.76266 0.17193 0.37225 0.0
O1757 O 0.78254 0.17143 0.34459 0.0
O1758 O 0.79939 0.20662 0.32759 0.0
O1759 O 0.82538 0.20852 0.32169 0.0
O1760 O 0.74827 0.19222 0.3137 0.0
C1761 C 0.79066 0.20508 0.4165 0.0
O1762 O 0.80287 0.20184 0.40739 0.0
O1763 O 0.77884 0.20519 0.40011 0.0
C1764 C 0.78281 0.23892 0.34508 0.0
H1765 H 0.77892 0.25604 0.18031 0.0
H1766 H 0.72031 0.22311 0.18323 0.0
H1767 H 0.74831 0.25132 0.16795 0.0
H1768 H 0.78938 0.21784 0.2826 0.0
H1769 H 0.83031 0.20291 0.27146 0.0
H1770 H 0.80007 0.20473 0.20065 0.0
H1771 H 0.70602 0.18383 0.26767 0.0
H1772 H 0.72302 0.15073 0.22447 0.0
H1773 H 0.68314 0.12745 0.28899 0.0
H1774 H 0.76326 0.14622 0.22644 0.0
H1775 H 0.76056 0.142 0.27864 0.0
H1776 H 0.7547 0.16265 0.30871 0.0
H1777 H 0.77594 0.20415 0.14781 0.0
H1778 H 0.73168 0.1882 0.09015 0.0
H1779 H 0.72086 0.17155 0.17605 0.0
Cd1780 Cd 0.78881 0.57145 0.3489 0.0
C1781 C 0.81815 0.61725 0.36848 0.0
C1782 C 0.80044 0.52752 0.21519 0.0
O1783 O 0.8057 0.51557 0.21144 0.0
Cd1784 Cd 0.77194 0.60335 0.3692 0.0
C1785 C 0.78301 0.52453 0.2046 0.0
C1786 C 0.75356 0.52688 0.18414 0.0
C1787 C 0.76653 0.54015 0.20174 0.0
N1788 N 0.77986 0.53781 0.21169 0.0
C1789 C 0.77067 0.51076 0.18694 0.0
C1790 C 0.75569 0.51196 0.17693 0.0
Co1791 Co 0.79852 0.55751 0.22936 0.0
C1792 C 0.76826 0.55746 0.21058 0.0
O1793 O 0.75565 0.56167 0.20567 0.0
C1794 C 0.78534 0.5836 0.24147 0.0
C1795 C 0.77795 0.58212 0.26831 0.0
C1796 C 0.7794 0.59751 0.28159 0.0
C1797 C 0.78845 0.6143 0.26812 0.0
C1798 C 0.79637 0.61568 0.24198 0.0
C1799 C 0.79456 0.60035 0.22847 0.0
C1800 C 0.77367 0.5968 0.31069 0.0
C1801 C 0.82515 0.54595 0.24779 0.0
C1802 C 0.82222 0.53198 0.26636 0.0
C1803 C 0.84231 0.56146 0.24646 0.0
C1804 C 0.85611 0.56323 0.26424 0.0
C1805 C 0.85308 0.5493 0.28278 0.0
C1806 C 0.83622 0.53324 0.28324 0.0
N1807 N 0.8109 0.54356 0.22915 0.0
N1808 N 0.78309 0.56805 0.22675 0.0
N1809 N 0.79012 0.54931 0.26782 0.0
C1810 C 0.77419 0.53273 0.27572 0.0
C1811 C 0.77563 0.51956 0.29121 0.0
C1812 C 0.75701 0.52963 0.26811 0.0
C1813 C 0.76012 0.50302 0.29805 0.0
H1814 H 0.78888 0.52222 0.29777 0.0
C1815 C 0.74303 0.49994 0.28947 0.0
C1816 C 0.74135 0.51319 0.27446 0.0
C1817 C 0.7617 0.48887 0.31385 0.0
H1818 H 0.75577 0.54015 0.25772 0.0
H1819 H 0.73102 0.48723 0.29452 0.0
C1820 C 0.72326 0.50987 0.26543 0.0
O1821 O 0.74672 0.47303 0.32028 0.0
O1822 O 0.77655 0.49142 0.32107 0.0
O1823 O 0.72192 0.52107 0.25117 0.0
O1824 O 0.70813 0.49447 0.27298 0.0
H1825 H 0.74744 0.4636 0.3305 0.0
H1826 H 0.69623 0.4921 0.26745 0.0
N1827 N 0.81711 0.5776 0.24617 0.0
C1828 C 0.82844 0.59083 0.22907 0.0
C1829 C 0.84248 0.60663 0.24094 0.0
C1830 C 0.84362 0.60788 0.27058 0.0
C1831 C 0.83094 0.59349 0.28756 0.0
C1832 C 0.81738 0.57805 0.27414 0.0
N1833 N 0.8102 0.56912 0.19386 0.0
C1834 C 0.8246 0.58598 0.19923 0.0
O1835 O 0.83549 0.59633 0.17921 0.0
C1836 C 0.80236 0.56168 0.28676 0.0
O1837 O 0.75935 0.55745 0.32954 0.0
O1838 O 0.76401 0.54097 0.35962 0.0
C1839 C 0.8082 0.56075 0.16681 0.0
C1840 C 0.79942 0.56443 0.14485 0.0
C1841 C 0.79939 0.55813 0.11752 0.0
C1842 C 0.80804 0.54814 0.11239 0.0
C1843 C 0.81746 0.54509 0.13358 0.0
C1844 C 0.81775 0.5516 0.16075 0.0
O1845 O 0.8164 0.60192 0.3615 0.0
O1846 O 0.80452 0.61941 0.37143 0.0
O1847 O 0.77762 0.58881 0.32914 0.0
O1848 O 0.76619 0.60553 0.31903 0.0
O1849 O 0.80164 0.55885 0.31487 0.0
C1850 C 0.77358 0.57324 0.41432 0.0
O1851 O 0.76326 0.57808 0.40233 0.0
O1852 O 0.78555 0.57164 0.40046 0.0
C1853 C 0.75325 0.54261 0.3428 0.0
H1854 H 0.74246 0.52815 0.17576 0.0
H1855 H 0.77273 0.49975 0.1805 0.0
H1856 H 0.74601 0.50159 0.16305 0.0
H1857 H 0.77109 0.56912 0.27868 0.0
H1858 H 0.79021 0.6264 0.27853 0.0
H1859 H 0.80039 0.60145 0.20781 0.0
H1860 H 0.80911 0.51975 0.26686 0.0
H1861 H 0.84529 0.57191 0.23117 0.0
H1862 H 0.86424 0.55072 0.29547 0.0
H1863 H 0.85218 0.61761 0.22791 0.0
H1864 H 0.85426 0.61999 0.28036 0.0
H1865 H 0.83167 0.5945 0.31023 0.0
H1866 H 0.79321 0.5726 0.1489 0.0
H1867 H 0.80837 0.5436 0.0912 0.0
H1868 H 0.82595 0.55019 0.17679 0.0
Cd1869 Cd 0.55361 0.09102 0.82721 0.0
C1870 C 0.55479 0.05399 0.81183 0.0
C1871 C 0.60395 0.13645 0.96315 0.0
O1872 O 0.62102 0.14857 0.96757 0.0
Cd1873 Cd 0.51396 0.04011 0.81219 0.0
C1874 C 0.58916 0.13937 0.97224 0.0
C1875 C 0.55673 0.13714 0.98913 0.0
C1876 C 0.55702 0.12369 0.9727 0.0
N1877 N 0.57299 0.12591 0.96462 0.0
C1878 C 0.59001 0.15335 0.98876 0.0
C1879 C 0.57352 0.15218 0.99702 0.0
Co1880 Co 0.57256 0.10629 0.94767 0.0
C1881 C 0.54178 0.10639 0.96315 0.0
O1882 O 0.5248 0.10191 0.96729 0.0
C1883 C 0.53357 0.07923 0.93517 0.0
C1884 C 0.52934 0.07783 0.9064 0.0
C1885 C 0.51635 0.061 0.89501 0.0
C1886 C 0.50784 0.04587 0.9127 0.0
C1887 C 0.51276 0.04744 0.94087 0.0
C1888 C 0.52516 0.06412 0.95218 0.0
C1889 C 0.51376 0.05806 0.8645 0.0
C1890 C 0.61123 0.11768 0.93291 0.0
C1891 C 0.62244 0.13126 0.91396 0.0
C1892 C 0.61294 0.10227 0.93577 0.0
C1893 C 0.62518 0.10015 0.91897 0.0
C1894 C 0.63619 0.11365 0.89989 0.0
C1895 C 0.6353 0.12964 0.89794 0.0
N1896 N 0.59883 0.12023 0.95002 0.0
N1897 N 0.54654 0.0959 0.94771 0.0
N1898 N 0.57377 0.11474 0.90903 0.0
C1899 C 0.5734 0.13074 0.90077 0.0
C1900 C 0.58861 0.14531 0.88851 0.0
C1901 C 0.55801 0.13216 0.90597 0.0
C1902 C 0.58893 0.16168 0.88298 0.0
H1903 H 0.60022 0.14391 0.88362 0.0
C1904 C 0.57369 0.16319 0.88978 0.0
C1905 C 0.55816 0.14849 0.9014 0.0
C1906 C 0.60527 0.17732 0.87071 0.0
H1907 H 0.54585 0.1205 0.91344 0.0
H1908 H 0.57391 0.17583 0.88605 0.0
C1909 C 0.54225 0.15028 0.90923 0.0
O1910 O 0.60558 0.19309 0.86598 0.0
O1911 O 0.61856 0.17607 0.8649 0.0
O1912 O 0.52922 0.13782 0.92095 0.0
O1913 O 0.5421 0.16572 0.90356 0.0
H1914 H 0.6161 0.20348 0.85808 0.0
H1915 H 0.53186 0.16714 0.90843 0.0
N1916 N 0.5717 0.08633 0.93142 0.0
C1917 C 0.56936 0.07303 0.94871 0.0
C1918 C 0.56874 0.05762 0.93721 0.0
C1919 C 0.57021 0.05684 0.90771 0.0
C1920 C 0.57244 0.07134 0.89051 0.0
C1921 C 0.57313 0.08637 0.90356 0.0
N1922 N 0.57133 0.09436 0.98367 0.0
C1923 C 0.56911 0.07755 0.97847 0.0
O1924 O 0.56905 0.06705 0.99875 0.0
C1925 C 0.57483 0.10279 0.89058 0.0
O1926 O 0.53559 0.10333 0.84248 0.0
O1927 O 0.55762 0.12068 0.81426 0.0
C1928 C 0.57695 0.10242 0.01117 0.0
C1929 C 0.56415 0.09712 0.03312 0.0
C1930 C 0.5699 0.10313 0.06074 0.0
C1931 C 0.58826 0.11478 0.06613 0.0
C1932 C 0.60126 0.11935 0.04513 0.0
C1933 C 0.59557 0.11264 0.01781 0.0
O1934 O 0.5632 0.07041 0.8036 0.0
O1935 O 0.54357 0.05008 0.83159 0.0
O1936 O 0.52622 0.0679 0.84752 0.0
O1937 O 0.5004 0.04384 0.85469 0.0
O1938 O 0.57789 0.10584 0.86267 0.0
C1939 C 0.53375 0.075 0.76061 0.0
O1940 O 0.52178 0.05944 0.76968 0.0
O1941 O 0.54578 0.08688 0.77681 0.0
C1942 C 0.54416 0.11822 0.82927 0.0
H1943 H 0.5441 0.13596 0.99603 0.0
H1944 H 0.60286 0.16453 0.99558 0.0
H1945 H 0.57375 0.16272 0.00997 0.0
H1946 H 0.53628 0.08961 0.89304 0.0
H1947 H 0.49855 0.03258 0.90423 0.0
H1948 H 0.52886 0.06529 0.9742 0.0
H1949 H 0.62156 0.14345 0.9124 0.0
H1950 H 0.60527 0.09213 0.95139 0.0
H1951 H 0.64604 0.11198 0.8879 0.0
H1952 H 0.56728 0.04665 0.95043 0.0
H1953 H 0.5697 0.04507 0.89821 0.0
H1954 H 0.57355 0.07077 0.86795 0.0
H1955 H 0.54998 0.08781 0.02886 0.0
H1956 H 0.59261 0.11911 0.08757 0.0
H1957 H 0.60562 0.11483 1.00212 0.0
Cd1958 Cd 0.90347 0.45852 0.82761 0.0
C1959 C 0.93994 0.49056 0.80997 0.0
C1960 C 0.85886 0.46611 0.96311 0.0
O1961 O 0.8471 0.47161 0.96697 0.0
Cd1962 Cd 0.95007 0.45604 0.80814 0.0
C1963 C 0.85549 0.44844 0.97325 0.0
C1964 C 0.85698 0.4183 0.99265 0.0
C1965 C 0.87056 0.4314 0.9756 0.0
N1966 N 0.86866 0.44512 0.96623 0.0
C1967 C 0.84142 0.43598 0.99036 0.0
C1968 C 0.8422 0.42066 0.99987 0.0
Co1969 Co 0.88859 0.4637 0.94891 0.0
C1970 C 0.88773 0.43284 0.96668 0.0
O1971 O 0.89169 0.42005 0.97165 0.0
C1972 C 0.91471 0.45027 0.93749 0.0
C1973 C 0.91491 0.44566 0.90919 0.0
C1974 C 0.93107 0.44817 0.89694 0.0
C1975 C 0.94682 0.4553 0.91324 0.0
C1976 C 0.94648 0.46024 0.94101 0.0
C1977 C 0.93045 0.45742 0.95325 0.0
C1978 C 0.93263 0.44642 0.86649 0.0
C1979 C 0.87799 0.49128 0.93159 0.0
C1980 C 0.86433 0.48902 0.91282 0.0
C1981 C 0.89389 0.50812 0.93322 0.0
C1982 C 0.89649 0.52216 0.91525 0.0
C1983 C 0.883 0.51971 0.89623 0.0
C1984 C 0.86651 0.50327 0.89564 0.0
N1985 N 0.87511 0.4766 0.94971 0.0
N1986 N 0.89856 0.44769 0.95069 0.0
N1987 N 0.88026 0.45588 0.91037 0.0
C1988 C 0.86371 0.43996 0.90243 0.0
C1989 C 0.85011 0.44143 0.88832 0.0
C1990 C 0.86091 0.42279 0.90927 0.0
C1991 C 0.83341 0.4259 0.88223 0.0
H1992 H 0.85254 0.45469 0.88233 0.0
C1993 C 0.83055 0.40882 0.89045 0.0
C1994 C 0.84422 0.40713 0.9041 0.0
C1995 C 0.81886 0.42746 0.86771 0.0
H1996 H 0.87183 0.42158 0.91829 0.0
H1997 H 0.81766 0.3968 0.88618 0.0
C1998 C 0.84107 0.38908 0.91305 0.0
O1999 O 0.80285 0.41247 0.86206 0.0
O2000 O 0.82123 0.4423 0.86082 0.0
O2001 O 0.8527 0.38778 0.92614 0.0
O2002 O 0.82532 0.37396 0.90679 0.0
H2003 H 0.79317 0.41318 0.85266 0.0
H2004 H 0.82304 0.36208 0.91231 0.0
N2005 N 0.90889 0.48218 0.93238 0.0
C2006 C 0.92225 0.49313 0.94961 0.0
C2007 C 0.93803 0.5073 0.93791 0.0
C2008 C 0.93909 0.50901 0.90832 0.0
C2009 C 0.9245 0.49678 0.89122 0.0
C2010 C 0.9091 0.48303 0.90444 0.0
N2011 N 0.90039 0.47487 0.98467 0.0
C2012 C 0.91743 0.48902 0.97942 0.0
O2013 O 0.92796 0.49956 0.99957 0.0
C2014 C 0.8925 0.46842 0.89164 0.0
O2015 O 0.88769 0.42908 0.84673 0.0
O2016 O 0.87309 0.43438 0.81395 0.0
C2017 C 0.89225 0.47263 0.01201 0.0
C2018 C 0.89697 0.46464 0.03393 0.0
C2019 C 0.89067 0.46425 0.06138 0.0
C2020 C 0.87936 0.47139 0.06662 0.0
C2021 C 0.87538 0.48028 0.04562 0.0
C2022 C 0.88231 0.48135 0.01845 0.0
O2023 O 0.92591 0.49187 0.81386 0.0
O2024 O 0.9379 0.47512 0.81398 0.0
O2025 O 0.92366 0.45031 0.84966 0.0
O2026 O 0.94508 0.44414 0.85625 0.0
O2027 O 0.88932 0.46839 0.86375 0.0
C2028 C 0.91631 0.44776 0.75987 0.0
O2029 O 0.9293 0.44531 0.76784 0.0
O2030 O 0.908 0.45282 0.77686 0.0
C2031 C 0.87367 0.42329 0.83144 0.0
H2032 H 0.85788 0.40689 1.00057 0.0
H2033 H 0.83048 0.43816 0.99673 0.0
H2034 H 0.83159 0.41086 0.01331 0.0
H2035 H 0.9027 0.4404 0.89681 0.0
H2036 H 0.95961 0.4583 0.90386 0.0
H2037 H 0.93034 0.46143 0.97484 0.0
H2038 H 0.85171 0.47627 0.91216 0.0
H2039 H 0.90407 0.51065 0.94877 0.0
H2040 H 0.88506 0.53101 0.88326 0.0
H2041 H 0.9491 0.51674 0.95105 0.0
H2042 H 0.95116 0.5198 0.89867 0.0
H2043 H 0.92532 0.49803 0.86861 0.0
H2044 H 0.90601 0.45943 0.02978 0.0
H2045 H 0.8748 0.47132 0.08794 0.0
H2046 H 0.8804 0.48936 1.00268 0.0
Cd2047 Cd 0.53335 0.4407 0.82909 0.0
C2048 C 0.49658 0.44347 0.81838 0.0
C2049 C 0.52614 0.38949 0.96551 0.0
O2050 O 0.52071 0.37227 0.96957 0.0
Cd2051 Cd 0.52734 0.48351 0.81451 0.0
C2052 C 0.54408 0.40391 0.97454 0.0
C2053 C 0.57465 0.43586 0.99194 0.0
C2054 C 0.56135 0.43606 0.97504 0.0
N2055 N 0.54744 0.42028 0.96659 0.0
C2056 C 0.55675 0.4026 0.99153 0.0
C2057 C 0.57229 0.41885 1.0 0.0
Co2058 Co 0.52862 0.42139 0.94973 0.0
C2059 C 0.55982 0.45164 0.96555 0.0
O2060 O 0.57266 0.46848 0.9697 0.0
C2061 C 0.54177 0.46057 0.93657 0.0
C2062 C 0.54622 0.46533 0.90818 0.0
C2063 C 0.54336 0.47878 0.89599 0.0
C2064 C 0.53595 0.48711 0.9124 0.0
C2065 C 0.53096 0.48166 0.94005 0.0
C2066 C 0.53423 0.46877 0.95228 0.0
C2067 C 0.54487 0.48218 0.86555 0.0
C2068 C 0.50043 0.38311 0.93503 0.0
C2069 C 0.50248 0.37219 0.91509 0.0
C2070 C 0.48346 0.3816 0.93878 0.0
C2071 C 0.46892 0.36987 0.92188 0.0
C2072 C 0.47108 0.35919 0.90174 0.0
C2073 C 0.48782 0.35988 0.89874 0.0
N2074 N 0.51557 0.39513 0.95208 0.0
N2075 N 0.54474 0.44732 0.94995 0.0
N2076 N 0.53572 0.42004 0.911 0.0
C2077 C 0.55173 0.4197 0.90252 0.0
C2078 C 0.55039 0.40461 0.88864 0.0
C2079 C 0.56887 0.4344 0.90854 0.0
C2080 C 0.56603 0.40369 0.88226 0.0
H2081 H 0.53717 0.39358 0.88304 0.0
C2082 C 0.58308 0.41819 0.88988 0.0
C2083 C 0.58463 0.43361 0.90315 0.0
C2084 C 0.5646 0.38752 0.8681 0.0
H2085 H 0.57 0.44659 0.91709 0.0
H2086 H 0.59517 0.41749 0.88544 0.0
C2087 C 0.60265 0.44878 0.91159 0.0
O2088 O 0.57968 0.3867 0.86228 0.0
O2089 O 0.54979 0.37482 0.86166 0.0
O2090 O 0.60384 0.46171 0.92455 0.0
O2091 O 0.61786 0.44839 0.90504 0.0
H2092 H 0.57907 0.37627 0.85312 0.0
H2093 H 0.62972 0.45817 0.91025 0.0
N2094 N 0.50984 0.42288 0.93363 0.0
C2095 C 0.49889 0.42511 0.95109 0.0
C2096 C 0.48408 0.42574 0.93978 0.0
C2097 C 0.48179 0.4244 0.91028 0.0
C2098 C 0.49404 0.42224 0.8929 0.0
C2099 C 0.50839 0.4215 0.90577 0.0
N2100 N 0.51818 0.4228 0.98574 0.0
C2101 C 0.50363 0.42511 0.9808 0.0
O2102 O 0.49331 0.4252 1.00125 0.0
C2103 C 0.52289 0.41946 0.89264 0.0
O2104 O 0.56338 0.45705 0.84556 0.0
O2105 O 0.55819 0.43542 0.81608 0.0
C2106 C 0.52079 0.41708 0.01299 0.0
C2107 C 0.53096 0.43014 0.03355 0.0
C2108 C 0.53189 0.4247 0.06109 0.0
C2109 C 0.52272 0.40628 0.0678 0.0
C2110 C 0.51102 0.39317 0.04866 0.0
C2111 C 0.51036 0.39867 0.02095 0.0
O2112 O 0.50272 0.43342 0.80978 0.0
O2113 O 0.50579 0.45535 0.83651 0.0
O2114 O 0.54101 0.46948 0.84832 0.0
O2115 O 0.54613 0.4966 0.85582 0.0
O2116 O 0.52276 0.41637 0.86472 0.0
C2117 C 0.53759 0.45984 0.76204 0.0
O2118 O 0.53577 0.47281 0.77183 0.0
O2119 O 0.53648 0.44719 0.77786 0.0
C2120 C 0.56932 0.4483 0.83192 0.0
H2121 H 0.58622 0.44831 0.99914 0.0
H2122 H 0.55456 0.3896 0.99862 0.0
H2123 H 0.58224 0.41826 0.01335 0.0
H2124 H 0.55159 0.45849 0.89574 0.0
H2125 H 0.53274 0.4968 0.90319 0.0
H2126 H 0.5304 0.46469 0.97394 0.0
H2127 H 0.51548 0.37297 0.91294 0.0
H2128 H 0.48128 0.38909 0.9551 0.0
H2129 H 0.45938 0.34973 0.88968 0.0
H2130 H 0.47456 0.42711 0.95315 0.0
H2131 H 0.4705 0.42491 0.90093 0.0
H2132 H 0.49228 0.42113 0.87035 0.0
H2133 H 0.53755 0.4444 0.02834 0.0
H2134 H 0.52376 0.40231 0.08903 0.0
H2135 H 0.50107 0.3889 1.00598 0.0
Cd2136 Cd 0.56976 0.77658 0.66116 0.0
C2137 C 0.60431 0.78063 0.63791 0.0
C2138 C 0.52659 0.72315 0.79612 0.0
O2139 O 0.51521 0.70575 0.79952 0.0
Cd2140 Cd 0.61606 0.82505 0.64302 0.0
C2141 C 0.52265 0.73696 0.80677 0.0
C2142 C 0.52303 0.76789 0.82707 0.0
C2143 C 0.53677 0.76899 0.8097 0.0
N2144 N 0.5354 0.75367 0.79991 0.0
C2145 C 0.50844 0.73473 0.82415 0.0
C2146 C 0.50865 0.75047 0.8341 0.0
Co2147 Co 0.55555 0.75585 0.7821 0.0
C2148 C 0.55368 0.7851 0.80101 0.0
O2149 O 0.55725 0.80165 0.8067 0.0
C2150 C 0.581 0.79563 0.77233 0.0
C2151 C 0.58166 0.80037 0.74399 0.0
C2152 C 0.59796 0.81405 0.73226 0.0
C2153 C 0.61342 0.8228 0.74914 0.0
C2154 C 0.61261 0.81767 0.77712 0.0
C2155 C 0.5964 0.80441 0.78882 0.0
C2156 C 0.5998 0.81717 0.70184 0.0
C2157 C 0.54605 0.71816 0.76386 0.0
C2158 C 0.53258 0.70702 0.74471 0.0
C2159 C 0.56181 0.71701 0.76595 0.0
C2160 C 0.56421 0.7052 0.74856 0.0
C2161 C 0.55067 0.69403 0.72965 0.0
C2162 C 0.53438 0.6944 0.72828 0.0
N2163 N 0.54283 0.72952 0.78242 0.0
N2164 N 0.56478 0.78166 0.78465 0.0
N2165 N 0.54691 0.75536 0.74376 0.0
C2166 C 0.53038 0.75488 0.73612 0.0
C2167 C 0.51668 0.73993 0.7219 0.0
C2168 C 0.5278 0.76938 0.74302 0.0
C2169 C 0.50008 0.73898 0.71588 0.0
H2170 H 0.51898 0.72905 0.7157 0.0
C2171 C 0.49744 0.75333 0.72413 0.0
C2172 C 0.51123 0.7686 0.73779 0.0
C2173 C 0.4854 0.72295 0.70135 0.0
H2174 H 0.53881 0.78145 0.75202 0.0
H2175 H 0.48463 0.75264 0.71986 0.0
C2176 C 0.50834 0.78368 0.74663 0.0
O2177 O 0.46949 0.72214 0.69574 0.0
O2178 O 0.48758 0.71036 0.69444 0.0
O2179 O 0.52002 0.7965 0.75985 0.0
O2180 O 0.49277 0.78336 0.7401 0.0
H2181 H 0.45972 0.71181 0.68635 0.0
H2182 H 0.49067 0.79309 0.74554 0.0
N2183 N 0.57602 0.75838 0.76501 0.0
C2184 C 0.58953 0.76084 0.7819 0.0
C2185 C 0.60533 0.76272 0.76979 0.0
C2186 C 0.60619 0.76221 0.74015 0.0
C2187 C 0.59141 0.75968 0.72341 0.0
C2188 C 0.576 0.75773 0.73706 0.0
N2189 N 0.56772 0.75662 0.81745 0.0
C2190 C 0.58484 0.75987 0.8118 0.0
O2191 O 0.59563 0.76002 0.83166 0.0
C2192 C 0.55916 0.75538 0.7247 0.0
O2193 O 0.55467 0.79078 0.68064 0.0
O2194 O 0.53907 0.77026 0.64916 0.0
C2195 C 0.55988 0.75057 0.8449 0.0
C2196 C 0.56451 0.76328 0.8668 0.0
C2197 C 0.5593 0.75734 0.89456 0.0
C2198 C 0.5495 0.73881 0.9003 0.0
C2199 C 0.54547 0.72603 0.87917 0.0
C2200 C 0.55077 0.73192 0.85144 0.0
O2201 O 0.59093 0.76494 0.64228 0.0
O2202 O 0.60253 0.79346 0.64698 0.0
O2203 O 0.59042 0.80435 0.68515 0.0
O2204 O 0.61235 0.83181 0.69156 0.0
O2205 O 0.55585 0.7523 0.69683 0.0
C2206 C 0.58215 0.80261 0.59542 0.0
O2207 O 0.59469 0.81792 0.60452 0.0
O2208 O 0.57423 0.78855 0.61123 0.0
C2209 C 0.54021 0.7823 0.6664 0.0
H2210 H 0.52353 0.77994 0.83536 0.0
H2211 H 0.49782 0.7214 0.83038 0.0
H2212 H 0.49793 0.74918 0.84775 0.0
H2213 H 0.56968 0.79327 0.73112 0.0
H2214 H 0.62636 0.83258 0.74013 0.0
H2215 H 0.59592 0.80026 0.81049 0.0
H2216 H 0.52024 0.70765 0.74364 0.0
H2217 H 0.57197 0.72472 0.78152 0.0
H2218 H 0.55259 0.68442 0.71744 0.0
H2219 H 0.61653 0.76442 0.78265 0.0
H2220 H 0.61827 0.76369 0.73019 0.0
H2221 H 0.59207 0.75935 0.70075 0.0
H2222 H 0.57269 0.77762 0.86233 0.0
H2223 H 0.54576 0.73426 0.92184 0.0
H2224 H 0.5488 0.7221 0.83544 0.0
Cd2225 Cd 0.21941 0.79317 0.66022 0.0
C2226 C 0.22055 0.83118 0.64391 0.0
C2227 C 0.27082 0.79956 0.79591 0.0
O2228 O 0.2879 0.80455 0.80035 0.0
Cd2229 Cd 0.17964 0.80394 0.64528 0.0
C2230 C 0.25605 0.78194 0.8053 0.0
C2231 C 0.22368 0.75203 0.82306 0.0
C2232 C 0.22392 0.76555 0.80615 0.0
N2233 N 0.23986 0.77916 0.79762 0.0
C2234 C 0.25695 0.76902 0.82228 0.0
C2235 C 0.24049 0.75384 0.83096 0.0
Co2236 Co 0.2394 0.79827 0.78047 0.0
C2237 C 0.20866 0.76762 0.79672 0.0
O2238 O 0.19169 0.75524 0.80127 0.0
C2239 C 0.20038 0.78642 0.76851 0.0
C2240 C 0.19584 0.78314 0.73989 0.0
C2241 C 0.18276 0.78684 0.72851 0.0
C2242 C 0.17442 0.79371 0.74606 0.0
C2243 C 0.17962 0.79749 0.77406 0.0
C2244 C 0.19221 0.79346 0.78537 0.0
C2245 C 0.17987 0.78671 0.69804 0.0
C2246 C 0.27805 0.82522 0.76484 0.0
C2247 C 0.28931 0.82258 0.74631 0.0
C2248 C 0.27986 0.84242 0.76707 0.0
C2249 C 0.29225 0.85657 0.75012 0.0
C2250 C 0.30335 0.85384 0.73157 0.0
C2251 C 0.30239 0.83691 0.7303 0.0
N2252 N 0.26569 0.81054 0.78243 0.0
N2253 N 0.21338 0.78276 0.78101 0.0
N2254 N 0.2403 0.79075 0.74189 0.0
C2255 C 0.23983 0.77432 0.73365 0.0
C2256 C 0.25477 0.77489 0.7205 0.0
C2257 C 0.22446 0.75754 0.73913 0.0
C2258 C 0.2548 0.75879 0.71408 0.0
H2259 H 0.26638 0.78789 0.71548 0.0
C2260 C 0.23957 0.74206 0.72101 0.0
C2261 C 0.22434 0.74131 0.73368 0.0
C2262 C 0.27078 0.75939 0.70056 0.0
H2263 H 0.21247 0.75709 0.74729 0.0
H2264 H 0.23956 0.7296 0.71653 0.0
C2265 C 0.2084 0.72362 0.74144 0.0
O2266 O 0.27073 0.74387 0.69468 0.0
O2267 O 0.28409 0.77391 0.6947 0.0
O2268 O 0.19565 0.72308 0.75406 0.0
O2269 O 0.20789 0.70799 0.73462 0.0
H2270 H 0.281 0.74394 0.68592 0.0
H2271 H 0.1976 0.69634 0.73937 0.0
N2272 N 0.23851 0.81732 0.76405 0.0
C2273 C 0.23636 0.82843 0.78127 0.0
C2274 C 0.2356 0.84311 0.76963 0.0
C2275 C 0.23676 0.8451 0.74008 0.0
C2276 C 0.2388 0.83268 0.72297 0.0
C2277 C 0.23964 0.81846 0.73615 0.0
N2278 N 0.23845 0.80924 0.81633 0.0
C2279 C 0.23632 0.82387 0.81106 0.0
O2280 O 0.23632 0.83437 0.83128 0.0
C2281 C 0.24117 0.80361 0.7233 0.0
O2282 O 0.20089 0.76312 0.676 0.0
O2283 O 0.22385 0.76741 0.65031 0.0
C2284 C 0.24361 0.80649 0.84395 0.0
C2285 C 0.23049 0.79894 0.86543 0.0
C2286 C 0.23577 0.79829 0.8932 0.0
C2287 C 0.25403 0.80478 0.89921 0.0
C2288 C 0.26736 0.81324 0.87867 0.0
C2289 C 0.26211 0.81455 0.85116 0.0
O2290 O 0.22881 0.823 0.63586 0.0
O2291 O 0.20941 0.82414 0.66385 0.0
O2292 O 0.19218 0.78913 0.68088 0.0
O2293 O 0.16635 0.78731 0.68831 0.0
O2294 O 0.24396 0.80338 0.69534 0.0
C2295 C 0.19912 0.78837 0.59382 0.0
O2296 O 0.18716 0.79188 0.60321 0.0
O2297 O 0.2115 0.78891 0.60966 0.0
C2298 C 0.20995 0.75665 0.66473 0.0
H2299 H 0.21107 0.74072 0.83036 0.0
H2300 H 0.26982 0.77077 0.82917 0.0
H2301 H 0.24075 0.7437 0.8443 0.0
H2302 H 0.20261 0.77806 0.72664 0.0
H2303 H 0.16499 0.79752 0.73757 0.0
H2304 H 0.19613 0.79634 0.80728 0.0
H2305 H 0.28834 0.80945 0.74516 0.0
H2306 H 0.27218 0.84511 0.78237 0.0
H2307 H 0.31336 0.86523 0.71954 0.0
H2308 H 0.23426 0.85272 0.78279 0.0
H2309 H 0.23613 0.85627 0.73048 0.0
H2310 H 0.23965 0.83414 0.70036 0.0
H2311 H 0.21641 0.79428 0.86068 0.0
H2312 H 0.25804 0.8046 0.92079 0.0
H2313 H 0.2724 0.82234 0.83574 0.0
Cd2314 Cd 0.20174 0.42454 0.66196 0.0
C2315 C 0.16508 0.38376 0.65048 0.0
C2316 C 0.19374 0.46908 0.79703 0.0
O2317 O 0.18883 0.48127 0.80117 0.0
Cd2318 Cd 0.19778 0.37703 0.6468 0.0
C2319 C 0.21125 0.47181 0.80682 0.0
C2320 C 0.24091 0.46911 0.82524 0.0
C2321 C 0.22744 0.45585 0.80823 0.0
N2322 N 0.21398 0.45832 0.79937 0.0
C2323 C 0.2241 0.48559 0.82391 0.0
C2324 C 0.23917 0.48419 0.83293 0.0
Co2325 Co 0.19494 0.43882 0.782 0.0
C2326 C 0.22537 0.43851 0.79879 0.0
O2327 O 0.23783 0.434 0.80308 0.0
C2328 C 0.20716 0.41206 0.76896 0.0
C2329 C 0.21287 0.4123 0.74115 0.0
C2330 C 0.21024 0.39616 0.72866 0.0
C2331 C 0.20177 0.38003 0.74409 0.0
C2332 C 0.19546 0.37995 0.77105 0.0
C2333 C 0.1985 0.39594 0.78365 0.0
C2334 C 0.21326 0.39494 0.69857 0.0
C2335 C 0.16811 0.45059 0.7659 0.0
C2336 C 0.17075 0.46432 0.74702 0.0
C2337 C 0.15092 0.43523 0.76832 0.0
C2338 C 0.13679 0.43326 0.75116 0.0
C2339 C 0.13954 0.44688 0.73215 0.0
C2340 C 0.15646 0.46285 0.73065 0.0
N2341 N 0.18279 0.45298 0.78353 0.0
N2342 N 0.2103 0.42816 0.78295 0.0
N2343 N 0.20278 0.44722 0.74349 0.0
C2344 C 0.21899 0.46347 0.7354 0.0
C2345 C 0.21797 0.47734 0.7213 0.0
C2346 C 0.23598 0.46562 0.74167 0.0
C2347 C 0.23379 0.49366 0.7147 0.0
H2348 H 0.20484 0.47538 0.71566 0.0
C2349 C 0.25072 0.49586 0.72223 0.0
C2350 C 0.25194 0.48189 0.7358 0.0
C2351 C 0.23269 0.50852 0.7003 0.0
H2352 H 0.23683 0.4545 0.7507 0.0
H2353 H 0.26296 0.50845 0.71749 0.0
C2354 C 0.26985 0.48433 0.74396 0.0
O2355 O 0.24795 0.5242 0.69422 0.0
O2356 O 0.21799 0.50671 0.69392 0.0
O2357 O 0.27079 0.47254 0.75719 0.0
O2358 O 0.28523 0.4996 0.73682 0.0
H2359 H 0.24755 0.53408 0.68491 0.0
H2360 H 0.29702 0.50141 0.74182 0.0
N2361 N 0.17596 0.41894 0.7654 0.0
C2362 C 0.16465 0.40575 0.78254 0.0
C2363 C 0.14999 0.39037 0.77077 0.0
C2364 C 0.1483 0.38944 0.74117 0.0
C2365 C 0.16098 0.40379 0.72414 0.0
C2366 C 0.17512 0.41883 0.73746 0.0
N2367 N 0.18369 0.42698 0.81778 0.0
C2368 C 0.16901 0.41029 0.81238 0.0
O2369 O 0.15826 0.3999 0.83248 0.0
C2370 C 0.19012 0.43516 0.72474 0.0
O2371 O 0.23156 0.43741 0.67927 0.0
O2372 O 0.22705 0.45473 0.65071 0.0
C2373 C 0.18602 0.4351 0.84518 0.0
C2374 C 0.19383 0.43019 0.86716 0.0
C2375 C 0.19417 0.43641 0.89468 0.0
C2376 C 0.1871 0.44779 0.89991 0.0
C2377 C 0.17837 0.45193 0.87886 0.0
C2378 C 0.1774 0.44513 0.85164 0.0
O2379 O 0.17179 0.40007 0.64204 0.0
O2380 O 0.17391 0.3804 0.66843 0.0
O2381 O 0.20966 0.40366 0.68077 0.0
O2382 O 0.21552 0.38229 0.68925 0.0
O2383 O 0.19055 0.43818 0.69676 0.0
C2384 C 0.20727 0.41135 0.59506 0.0
O2385 O 0.20596 0.39681 0.60492 0.0
O2386 O 0.20539 0.4225 0.61072 0.0
C2387 C 0.23787 0.45242 0.66643 0.0
H2388 H 0.25214 0.46774 0.83275 0.0
H2389 H 0.22241 0.49677 0.83062 0.0
H2390 H 0.24926 0.49457 0.84634 0.0
H2391 H 0.21914 0.42481 0.72942 0.0
H2392 H 0.19889 0.36731 0.73457 0.0
H2393 H 0.19394 0.39585 0.80496 0.0
H2394 H 0.18386 0.47648 0.74578 0.0
H2395 H 0.14821 0.42503 0.78394 0.0
H2396 H 0.12816 0.44532 0.71991 0.0
H2397 H 0.1402 0.37949 0.78385 0.0
H2398 H 0.13717 0.37766 0.73147 0.0
H2399 H 0.15976 0.40308 0.7015 0.0
H2400 H 0.19898 0.42109 0.86299 0.0
H2401 H 0.18711 0.4523 0.92124 0.0
H2402 H 0.1695 0.44718 0.83583 0.0
Cd2403 Cd 0.44163 0.9049 0.18502 0.0
C2404 C 0.44603 0.94149 0.20136 0.0
C2405 C 0.38867 0.85885 0.04968 0.0
O2406 O 0.37148 0.84683 0.046 0.0
Cd2407 Cd 0.49091 0.95203 0.20215 0.0
C2408 C 0.40319 0.85574 0.03971 0.0
C2409 C 0.43515 0.85775 0.02076 0.0
C2410 C 0.43531 0.87127 0.0376 0.0
N2411 N 0.41956 0.86913 0.04673 0.0
C2412 C 0.40189 0.84172 0.02281 0.0
C2413 C 0.41815 0.84277 0.01352 0.0
Co2414 Co 0.42048 0.8889 0.06395 0.0
C2415 C 0.45082 0.88856 0.04664 0.0
O2416 O 0.46768 0.89281 0.04198 0.0
C2417 C 0.45963 0.91536 0.07593 0.0
C2418 C 0.46529 0.91536 0.10366 0.0
C2419 C 0.47872 0.93164 0.11586 0.0
C2420 C 0.48611 0.94768 0.10024 0.0
C2421 C 0.47969 0.94754 0.07331 0.0
C2422 C 0.46689 0.93137 0.06095 0.0
C2423 C 0.48296 0.933 0.14592 0.0
C2424 C 0.38213 0.87814 0.08001 0.0
C2425 C 0.37119 0.86501 0.09971 0.0
C2426 C 0.3802 0.89335 0.07604 0.0
C2427 C 0.36797 0.89571 0.09241 0.0
C2428 C 0.35715 0.88263 0.11216 0.0
C2429 C 0.35825 0.86679 0.1153 0.0
N2430 N 0.39419 0.87512 0.06285 0.0
N2431 N 0.44644 0.89919 0.06247 0.0
N2432 N 0.42009 0.88071 0.10257 0.0
C2433 C 0.41962 0.86424 0.11052 0.0
C2434 C 0.4045 0.85044 0.12424 0.0
C2435 C 0.43404 0.86155 0.10353 0.0
C2436 C 0.4032 0.83359 0.1294 0.0
H2437 H 0.39369 0.85282 0.13053 0.0
C2438 C 0.41745 0.83083 0.12096 0.0
C2439 C 0.43295 0.84476 0.10797 0.0
C2440 C 0.38685 0.81872 0.14301 0.0
H2441 H 0.44621 0.87259 0.09484 0.0
H2442 H 0.41649 0.81784 0.12454 0.0
C2443 C 0.44791 0.84175 0.09883 0.0
O2444 O 0.3856 0.80249 0.14746 0.0
O2445 O 0.37437 0.82102 0.15014 0.0
O2446 O 0.46106 0.8537 0.08654 0.0
O2447 O 0.44709 0.82578 0.10399 0.0
H2448 H 0.37504 0.79259 0.15619 0.0
H2449 H 0.4567 0.82357 0.09825 0.0
N2450 N 0.42178 0.90902 0.08039 0.0
C2451 C 0.42336 0.92203 0.0631 0.0
C2452 C 0.42374 0.9373 0.07468 0.0
C2453 C 0.42296 0.93833 0.10424 0.0
C2454 C 0.42159 0.92418 0.12144 0.0
C2455 C 0.42099 0.90921 0.10832 0.0
N2456 N 0.42095 0.90055 0.0281 0.0
C2457 C 0.42299 0.91728 0.03332 0.0
O2458 O 0.42244 0.92751 0.01312 0.0
C2459 C 0.41969 0.89294 0.12126 0.0
O2460 O 0.45275 0.88684 0.16606 0.0
O2461 O 0.43492 0.87505 0.20222 0.0
C2462 C 0.41482 0.89224 1.00091 0.0
C2463 C 0.42738 0.89676 0.97879 0.0
C2464 C 0.42127 0.89112 0.95117 0.0
C2465 C 0.4027 0.88098 0.94585 0.0
C2466 C 0.39007 0.87722 0.9671 0.0
C2467 C 0.39611 0.88292 0.99464 0.0
O2468 O 0.43067 0.92735 0.19816 0.0
O2469 O 0.45943 0.9395 0.19699 0.0
O2470 O 0.47048 0.92458 0.16357 0.0
O2471 O 0.49795 0.94559 0.15517 0.0
O2472 O 0.41718 0.89009 0.14931 0.0
C2473 C 0.46695 0.91901 0.25147 0.0
O2474 O 0.48221 0.93187 0.24275 0.0
O2475 O 0.45325 0.9105 0.23512 0.0
C2476 C 0.44522 0.87398 0.18369 0.0
H2477 H 0.44759 0.85884 0.01305 0.0
H2478 H 0.38888 0.83061 0.01643 0.0
H2479 H 0.41758 0.83219 1.00026 0.0
H2480 H 0.4592 0.90293 0.11562 0.0
H2481 H 0.4958 0.96049 0.10971 0.0
H2482 H 0.46227 0.93122 0.03968 0.0
H2483 H 0.37228 0.85298 0.10199 0.0
H2484 H 0.38762 0.90307 0.05978 0.0
H2485 H 0.34725 0.88447 0.12365 0.0
H2486 H 0.4245 0.94798 0.06146 0.0
H2487 H 0.42331 0.95001 0.1138 0.0
H2488 H 0.42094 0.92492 0.14404 0.0
H2489 H 0.44172 0.90527 0.98292 0.0
H2490 H 0.398 0.87703 0.92443 0.0
H2491 H 0.38638 0.88114 0.01068 0.0
Cd2492 Cd 0.0893 0.5346 0.18385 0.0
C2493 C 0.05101 0.49754 0.19758 0.0
C2494 C 0.13336 0.52772 0.04899 0.0
O2495 O 0.14508 0.52217 0.04516 0.0
Cd2496 Cd 0.04024 0.52694 0.19918 0.0
C2497 C 0.13695 0.54556 0.03937 0.0
C2498 C 0.13591 0.57616 0.02111 0.0
C2499 C 0.1222 0.56292 0.03783 0.0
N2500 N 0.12386 0.54895 0.0466 0.0
C2501 C 0.15115 0.55816 0.02259 0.0
C2502 C 0.15059 0.57369 0.01365 0.0
Co2503 Co 0.1038 0.53031 0.06357 0.0
C2504 C 0.10508 0.56156 0.04687 0.0
O2505 O 0.10124 0.57446 0.04222 0.0
C2506 C 0.07776 0.54378 0.07522 0.0
C2507 C 0.07682 0.54695 0.10399 0.0
C2508 C 0.06038 0.54392 0.11582 0.0
C2509 C 0.0451 0.5377 0.09858 0.0
C2510 C 0.04617 0.53421 0.0703 0.0
C2511 C 0.0625 0.53761 0.05852 0.0
C2512 C 0.0579 0.54395 0.14641 0.0
C2513 C 0.11382 0.50219 0.07953 0.0
C2514 C 0.12702 0.50429 0.09904 0.0
C2515 C 0.09828 0.48522 0.07627 0.0
C2516 C 0.09577 0.47069 0.09297 0.0
C2517 C 0.10899 0.47285 0.11238 0.0
C2518 C 0.12507 0.48962 0.11495 0.0
N2519 N 0.117 0.51719 0.06206 0.0
N2520 N 0.09412 0.54656 0.06253 0.0
N2521 N 0.11221 0.53762 0.1022 0.0
C2522 C 0.12833 0.55383 0.11066 0.0
C2523 C 0.1424 0.55287 0.12417 0.0
C2524 C 0.13015 0.57081 0.10533 0.0
C2525 C 0.15862 0.56874 0.131 0.0
H2526 H 0.14068 0.53975 0.1292 0.0
C2527 C 0.16049 0.58566 0.12437 0.0
C2528 C 0.1463 0.58683 0.11149 0.0
C2529 C 0.17371 0.56771 0.14471 0.0
H2530 H 0.11886 0.57158 0.09684 0.0
H2531 H 0.17299 0.59795 0.12931 0.0
C2532 C 0.14838 0.60475 0.10439 0.0
O2533 O 0.18929 0.58302 0.15096 0.0
O2534 O 0.17217 0.55302 0.15036 0.0
O2535 O 0.13635 0.60568 0.0919 0.0
O2536 O 0.16359 0.62015 0.11167 0.0
H2537 H 0.19932 0.58266 0.15983 0.0
H2538 H 0.16517 0.63194 0.10732 0.0
N2539 N 0.08343 0.51174 0.0798 0.0
C2540 C 0.07005 0.501 0.06248 0.0
C2541 C 0.05435 0.48658 0.07397 0.0
C2542 C 0.05347 0.48436 0.10348 0.0
C2543 C 0.06813 0.49631 0.12069 0.0
C2544 C 0.0834 0.51035 0.10765 0.0
N2545 N 0.09193 0.5196 0.02766 0.0
C2546 C 0.07483 0.5055 0.03275 0.0
O2547 O 0.06431 0.4951 0.01246 0.0
C2548 C 0.10006 0.52472 0.1206 0.0
O2549 O 0.10119 0.56466 0.16864 0.0
O2550 O 0.11978 0.55968 0.19339 0.0
C2551 C 0.10021 0.52139 1.00056 0.0
C2552 C 0.09606 0.52957 0.97825 0.0
C2553 C 0.10204 0.52916 0.95086 0.0
C2554 C 0.11233 0.52081 0.946 0.0
C2555 C 0.1158 0.51189 0.96751 0.0
C2556 C 0.10941 0.51185 0.99468 0.0
O2557 O 0.06733 0.50445 0.20593 0.0
O2558 O 0.04784 0.50581 0.17846 0.0
O2559 O 0.06739 0.54062 0.16307 0.0
O2560 O 0.04437 0.54432 0.15668 0.0
O2561 O 0.10322 0.52439 0.14837 0.0
C2562 C 0.07509 0.53958 0.25087 0.0
O2563 O 0.05991 0.53695 0.24147 0.0
O2564 O 0.08666 0.5387 0.23485 0.0
C2565 C 0.11677 0.57074 0.17953 0.0
H2566 H 0.13517 0.58775 0.01363 0.0
H2567 H 0.16202 0.55591 0.01605 0.0
H2568 H 0.1613 0.5836 1.00047 0.0
H2569 H 0.08865 0.55138 0.11708 0.0
H2570 H 0.03203 0.53416 0.10749 0.0
H2571 H 0.06316 0.53456 0.03657 0.0
H2572 H 0.13919 0.51732 0.10099 0.0
H2573 H 0.08835 0.48302 0.06041 0.0
H2574 H 0.10699 0.46114 0.12414 0.0
H2575 H 0.04326 0.4773 0.06072 0.0
H2576 H 0.04149 0.47335 0.11297 0.0
H2577 H 0.06751 0.49462 0.14325 0.0
H2578 H 0.08767 0.53558 0.98206 0.0
H2579 H 0.11671 0.52022 0.9248 0.0
H2580 H 0.11086 0.50372 0.01076 0.0
Cd2581 Cd 0.45718 0.54964 0.18286 0.0
C2582 C 0.48917 0.54137 0.19978 0.0
C2583 C 0.46524 0.60411 0.0487 0.0
O2584 O 0.47005 0.62121 0.0449 0.0
Cd2585 Cd 0.44627 0.49881 0.20214 0.0
C2586 C 0.4478 0.58933 0.03871 0.0
C2587 C 0.41847 0.55703 0.01938 0.0
C2588 C 0.4319 0.5572 0.03641 0.0
N2589 N 0.44518 0.57309 0.0458 0.0
C2590 C 0.43497 0.59029 0.0216 0.0
C2591 C 0.42007 0.57386 0.01215 0.0
Co2592 Co 0.46433 0.57268 0.06288 0.0
C2593 C 0.43415 0.54195 0.04535 0.0
O2594 O 0.42178 0.52497 0.04081 0.0
C2595 C 0.45238 0.53377 0.07526 0.0
C2596 C 0.44591 0.52786 0.1026 0.0
C2597 C 0.44851 0.51443 0.11531 0.0
C2598 C 0.4577 0.50723 0.10065 0.0
C2599 C 0.46465 0.51381 0.07406 0.0
C2600 C 0.46172 0.52677 0.06122 0.0
C2601 C 0.44363 0.509 0.14464 0.0
C2602 C 0.49084 0.6112 0.07984 0.0
C2603 C 0.48802 0.62205 0.09892 0.0
C2604 C 0.50817 0.6134 0.07708 0.0
C2605 C 0.5223 0.62583 0.09399 0.0
C2606 C 0.51939 0.63656 0.11306 0.0
C2607 C 0.50229 0.63519 0.11494 0.0
N2608 N 0.47623 0.59896 0.06207 0.0
N2609 N 0.44925 0.54667 0.0611 0.0
N2610 N 0.4564 0.57263 0.10159 0.0
C2611 C 0.44048 0.5732 0.1098 0.0
C2612 C 0.44196 0.58799 0.12485 0.0
C2613 C 0.42332 0.55915 0.10217 0.0
C2614 C 0.42651 0.58929 0.13089 0.0
H2615 H 0.45519 0.59852 0.13155 0.0
C2616 C 0.40945 0.57543 0.12188 0.0
C2617 C 0.40773 0.5603 0.10742 0.0
C2618 C 0.42814 0.60524 0.14611 0.0
H2619 H 0.42204 0.54717 0.09245 0.0
H2620 H 0.3975 0.57641 0.12615 0.0
C2621 C 0.38971 0.54576 0.09771 0.0
O2622 O 0.41323 0.6064 0.15172 0.0
O2623 O 0.44297 0.61745 0.15358 0.0
O2624 O 0.38838 0.53305 0.08391 0.0
O2625 O 0.37463 0.54644 0.10409 0.0
H2626 H 0.41398 0.6167 0.16153 0.0
H2627 H 0.36277 0.53707 0.09807 0.0
N2628 N 0.48344 0.57183 0.0791 0.0
C2629 C 0.49489 0.5704 0.06164 0.0
C2630 C 0.50963 0.56968 0.07306 0.0
C2631 C 0.51128 0.57 0.10264 0.0
C2632 C 0.49844 0.57118 0.12001 0.0
C2633 C 0.48418 0.57205 0.10705 0.0
N2634 N 0.47565 0.57269 0.02697 0.0
C2635 C 0.49051 0.57093 0.03193 0.0
O2636 O 0.50128 0.57164 0.01157 0.0
C2637 C 0.46902 0.57292 0.12016 0.0
O2638 O 0.42833 0.53726 0.16238 0.0
O2639 O 0.43378 0.55687 0.1958 0.0
C2640 C 0.4729 0.57841 0.99985 0.0
C2641 C 0.46443 0.56557 0.97827 0.0
C2642 C 0.46357 0.57129 0.9509 0.0
C2643 C 0.4709 0.58976 0.94543 0.0
C2644 C 0.4802 0.60279 0.96612 0.0
C2645 C 0.48153 0.59703 0.99324 0.0
O2646 O 0.48896 0.55587 0.19408 0.0
O2647 O 0.4743 0.52666 0.20058 0.0
O2648 O 0.44719 0.52058 0.16369 0.0
O2649 O 0.43839 0.49296 0.15248 0.0
O2650 O 0.46843 0.57489 0.14833 0.0
C2651 C 0.44222 0.52691 0.24898 0.0
O2652 O 0.4352 0.51091 0.23879 0.0
O2653 O 0.45133 0.54112 0.23388 0.0
C2654 C 0.42278 0.54572 0.17769 0.0
H2655 H 0.40738 0.54447 0.01148 0.0
H2656 H 0.4366 0.60319 0.01517 0.0
H2657 H 0.41001 0.57418 0.99871 0.0
H2658 H 0.43887 0.53356 0.11366 0.0
H2659 H 0.46031 0.49727 0.11041 0.0
H2660 H 0.46676 0.5315 0.04019 0.0
H2661 H 0.47475 0.62074 0.10041 0.0
H2662 H 0.511 0.60608 0.06132 0.0
H2663 H 0.53079 0.64662 0.125 0.0
H2664 H 0.5195 0.5689 0.05972 0.0
H2665 H 0.52248 0.56936 0.11208 0.0
H2666 H 0.49966 0.57137 0.14263 0.0
H2667 H 0.45915 0.55133 0.9826 0.0
H2668 H 0.47069 0.59413 0.92409 0.0
H2669 H 0.48967 0.60698 0.00891 0.0
Cd2670 Cd 0.09024 0.55441 0.68409 0.0
C2671 C 0.05346 0.55539 0.70127 0.0
C2672 C 0.13453 0.60571 0.54827 0.0
O2673 O 0.14634 0.62292 0.54409 0.0
Cd2674 Cd 0.0394 0.51453 0.69906 0.0
C2675 C 0.13788 0.59126 0.53884 0.0
C2676 C 0.1363 0.55931 0.5209 0.0
C2677 C 0.12286 0.55913 0.53793 0.0
N2678 N 0.12478 0.5749 0.54655 0.0
C2679 C 0.15183 0.59257 0.52173 0.0
C2680 C 0.15101 0.57632 0.51297 0.0
Co2681 Co 0.10491 0.57384 0.56363 0.0
C2682 C 0.10571 0.54357 0.5473 0.0
O2683 O 0.10154 0.52673 0.54265 0.0
C2684 C 0.07841 0.53458 0.57541 0.0
C2685 C 0.07703 0.53035 0.60418 0.0
C2686 C 0.06024 0.51726 0.61558 0.0
C2687 C 0.04515 0.5086 0.59788 0.0
C2688 C 0.04668 0.51348 0.56969 0.0
C2689 C 0.06331 0.52603 0.55837 0.0
C2690 C 0.0573 0.51479 0.6461 0.0
C2691 C 0.11554 0.61216 0.57937 0.0
C2692 C 0.12898 0.62315 0.59864 0.0
C2693 C 0.10003 0.61371 0.57677 0.0
C2694 C 0.09768 0.62558 0.5941 0.0
C2695 C 0.11105 0.6364 0.61348 0.0
C2696 C 0.12714 0.63568 0.61523 0.0
N2697 N 0.11833 0.60014 0.56171 0.0
N2698 N 0.09499 0.54789 0.56303 0.0
N2699 N 0.11337 0.57496 0.60224 0.0
C2700 C 0.12942 0.57468 0.61053 0.0
C2701 C 0.14374 0.58976 0.62351 0.0
C2702 C 0.13102 0.55941 0.6051 0.0
C2703 C 0.16003 0.59006 0.62961 0.0
H2704 H 0.14219 0.60125 0.62862 0.0
C2705 C 0.16172 0.57493 0.62268 0.0
C2706 C 0.14727 0.55954 0.61032 0.0
C2707 C 0.1754 0.60624 0.64271 0.0
H2708 H 0.11953 0.54731 0.59712 0.0
H2709 H 0.17429 0.57513 0.62692 0.0
C2710 C 0.14921 0.5437 0.60259 0.0
O2711 O 0.19109 0.60651 0.6481 0.0
O2712 O 0.17401 0.61945 0.64862 0.0
O2713 O 0.13698 0.53077 0.59034 0.0
O2714 O 0.16453 0.54349 0.60899 0.0
H2715 H 0.20129 0.61693 0.65656 0.0
H2716 H 0.16603 0.53328 0.60423 0.0
N2717 N 0.08472 0.5724 0.57998 0.0
C2718 C 0.07146 0.57015 0.5627 0.0
C2719 C 0.05605 0.56951 0.57424 0.0
C2720 C 0.05521 0.57082 0.60376 0.0
C2721 C 0.06968 0.57298 0.62095 0.0
C2722 C 0.08475 0.57377 0.60785 0.0
N2723 N 0.09298 0.57266 0.5277 0.0
C2724 C 0.07609 0.5702 0.53292 0.0
O2725 O 0.06562 0.57024 0.51267 0.0
C2726 C 0.10128 0.57571 0.62077 0.0
O2727 O 0.10263 0.53644 0.66901 0.0
O2728 O 0.12053 0.55941 0.69528 0.0
C2729 C 0.10128 0.579 0.50052 0.0
C2730 C 0.09752 0.56655 0.47845 0.0
C2731 C 0.10385 0.57283 0.45109 0.0
C2732 C 0.1141 0.59146 0.44611 0.0
C2733 C 0.11709 0.60394 0.46727 0.0
C2734 C 0.11031 0.59771 0.49434 0.0
O2735 O 0.06996 0.56382 0.70908 0.0
O2736 O 0.04944 0.54446 0.68105 0.0
O2737 O 0.06722 0.52726 0.66301 0.0
O2738 O 0.04308 0.50145 0.656 0.0
O2739 O 0.10434 0.57878 0.64866 0.0
C2740 C 0.07433 0.53381 0.75043 0.0
O2741 O 0.05878 0.52185 0.74133 0.0
O2742 O 0.08612 0.54603 0.73435 0.0
C2743 C 0.1179 0.54565 0.68094 0.0
H2744 H 0.13534 0.54686 0.51351 0.0
H2745 H 0.1627 0.60558 0.51479 0.0
H2746 H 0.16151 0.5769 0.49952 0.0
H2747 H 0.08876 0.53741 0.61758 0.0
H2748 H 0.03188 0.49928 0.60637 0.0
H2749 H 0.06438 0.52985 0.53641 0.0
H2750 H 0.14122 0.62236 0.59998 0.0
H2751 H 0.08997 0.60617 0.56097 0.0
H2752 H 0.1092 0.646 0.62585 0.0
H2753 H 0.04513 0.56818 0.56102 0.0
H2754 H 0.04343 0.57028 0.61328 0.0
H2755 H 0.0691 0.57404 0.64352 0.0
H2756 H 0.08923 0.55217 0.48242 0.0
H2757 H 0.11875 0.59634 0.42496 0.0
H2758 H 0.11153 0.60733 0.5102 0.0
Cd2759 Cd 0.44038 0.53474 0.68417 0.0
C2760 C 0.4396 0.49662 0.699 0.0
C2761 C 0.38923 0.52854 0.5502 0.0
O2762 O 0.37195 0.52294 0.54632 0.0
Cd2763 Cd 0.47991 0.52438 0.69908 0.0
C2764 C 0.40343 0.54646 0.54083 0.0
C2765 C 0.43498 0.57749 0.52353 0.0
C2766 C 0.43553 0.564 0.53948 0.0
N2767 N 0.41993 0.54979 0.54771 0.0
C2768 C 0.40175 0.5593 0.52482 0.0
C2769 C 0.4178 0.57504 0.51634 0.0
Co2770 Co 0.42144 0.53111 0.56427 0.0
C2771 C 0.45133 0.56266 0.54826 0.0
O2772 O 0.46804 0.57571 0.54385 0.0
C2773 C 0.46108 0.54451 0.57521 0.0
C2774 C 0.46475 0.54653 0.60417 0.0
C2775 C 0.47819 0.54336 0.6154 0.0
C2776 C 0.48791 0.5384 0.59735 0.0
C2777 C 0.48368 0.53566 0.56878 0.0
C2778 C 0.47064 0.53924 0.55768 0.0
C2779 C 0.48006 0.54192 0.6459 0.0
C2780 C 0.38329 0.50288 0.58043 0.0
C2781 C 0.37185 0.50479 0.59953 0.0
C2782 C 0.38229 0.48605 0.57776 0.0
C2783 C 0.37046 0.47156 0.59473 0.0
C2784 C 0.35912 0.47358 0.61378 0.0
C2785 C 0.3593 0.49013 0.6156 0.0
N2786 N 0.39509 0.51792 0.56292 0.0
N2787 N 0.4474 0.54743 0.56322 0.0
N2788 N 0.42035 0.53827 0.60292 0.0
C2789 C 0.42091 0.55467 0.61154 0.0
C2790 C 0.40562 0.55417 0.62327 0.0
C2791 C 0.43675 0.57137 0.60795 0.0
C2792 C 0.40579 0.57029 0.63021 0.0
H2793 H 0.39362 0.54122 0.62679 0.0
C2794 C 0.42165 0.58699 0.62559 0.0
C2795 C 0.43722 0.58766 0.61443 0.0
C2796 C 0.3894 0.56978 0.64191 0.0
H2797 H 0.44883 0.57171 0.60044 0.0
H2798 H 0.42188 0.59948 0.6307 0.0
C2799 C 0.45389 0.60534 0.60944 0.0
O2800 O 0.38962 0.58534 0.64817 0.0
O2801 O 0.37558 0.5553 0.64585 0.0
O2802 O 0.46706 0.60592 0.59819 0.0
O2803 O 0.45465 0.62092 0.61736 0.0
H2804 H 0.37908 0.58533 0.65572 0.0
H2805 H 0.46543 0.63255 0.61449 0.0
N2806 N 0.42335 0.51254 0.58018 0.0
C2807 C 0.42634 0.5021 0.56269 0.0
C2808 C 0.42815 0.48794 0.57401 0.0
C2809 C 0.42679 0.48558 0.60351 0.0
C2810 C 0.42363 0.49718 0.62088 0.0
C2811 C 0.42202 0.51105 0.60803 0.0
N2812 N 0.42266 0.5206 0.52819 0.0
C2813 C 0.42596 0.50667 0.53301 0.0
O2814 O 0.42633 0.4965 0.51254 0.0
C2815 C 0.4196 0.52533 0.62117 0.0
O2816 O 0.46102 0.56492 0.67138 0.0
O2817 O 0.43662 0.56111 0.69226 0.0
C2818 C 0.41639 0.52273 0.5011 0.0
C2819 C 0.42879 0.53061 0.47878 0.0
C2820 C 0.42252 0.53096 0.45161 0.0
C2821 C 0.40402 0.52402 0.44707 0.0
C2822 C 0.39148 0.51513 0.46843 0.0
C2823 C 0.39766 0.51395 0.49523 0.0
O2824 O 0.43134 0.50471 0.70755 0.0
O2825 O 0.45077 0.50393 0.67919 0.0
O2826 O 0.46737 0.53913 0.66249 0.0
O2827 O 0.49337 0.54113 0.6561 0.0
O2828 O 0.4162 0.52501 0.64897 0.0
C2829 C 0.45889 0.53817 0.75107 0.0
O2830 O 0.47111 0.53497 0.74183 0.0
O2831 O 0.44685 0.538 0.73489 0.0
C2832 C 0.45173 0.57175 0.68039 0.0
H2833 H 0.44728 0.5893 0.51647 0.0
H2834 H 0.38861 0.55713 0.5186 0.0
H2835 H 0.41694 0.58515 0.50377 0.0
H2836 H 0.45699 0.55018 0.6179 0.0
H2837 H 0.49778 0.53518 0.60579 0.0
H2838 H 0.46699 0.53683 0.53565 0.0
H2839 H 0.37226 0.51764 0.60108 0.0
H2840 H 0.39021 0.48391 0.56217 0.0
H2841 H 0.34956 0.46192 0.62581 0.0
H2842 H 0.43034 0.47894 0.56066 0.0
H2843 H 0.42811 0.47474 0.61288 0.0
H2844 H 0.42256 0.4954 0.64341 0.0
H2845 H 0.44307 0.53566 0.48235 0.0
H2846 H 0.3992 0.52408 0.42598 0.0
H2847 H 0.38793 0.50571 0.51105 0.0
Cd2848 Cd 0.4588 0.90535 0.6848 0.0
C2849 C 0.49132 0.94096 0.7016 0.0
C2850 C 0.46582 0.85863 0.55095 0.0
O2851 O 0.47172 0.84714 0.54759 0.0
Cd2852 Cd 0.45955 0.95405 0.69993 0.0
C2853 C 0.44796 0.85462 0.54085 0.0
C2854 C 0.41734 0.85493 0.52088 0.0
C2855 C 0.43026 0.86893 0.53756 0.0
N2856 N 0.44422 0.86758 0.54731 0.0
C2857 C 0.43569 0.84014 0.52417 0.0
C2858 C 0.42013 0.84032 0.51439 0.0
Co2859 Co 0.46262 0.88808 0.56378 0.0
C2860 C 0.43136 0.88612 0.54537 0.0
O2861 O 0.41836 0.88967 0.53972 0.0
C2862 C 0.44855 0.91397 0.57277 0.0
C2863 C 0.44518 0.91521 0.60131 0.0
C2864 C 0.44764 0.9316 0.61239 0.0
C2865 C 0.45325 0.9465 0.59458 0.0
C2866 C 0.45713 0.94535 0.56639 0.0
C2867 C 0.45433 0.92896 0.55543 0.0
C2868 C 0.44755 0.93439 0.64287 0.0
C2869 C 0.4905 0.87823 0.58271 0.0
C2870 C 0.48814 0.86458 0.60157 0.0
C2871 C 0.50736 0.8941 0.58116 0.0
C2872 C 0.52144 0.89646 0.59883 0.0
C2873 C 0.51902 0.88276 0.61746 0.0
C2874 C 0.50246 0.86636 0.61821 0.0
N2875 N 0.47601 0.87509 0.56398 0.0
N2876 N 0.44619 0.89754 0.56098 0.0
N2877 N 0.45507 0.88046 0.60264 0.0
C2878 C 0.43909 0.86415 0.61115 0.0
C2879 C 0.44041 0.85044 0.62518 0.0
C2880 C 0.42198 0.86158 0.60453 0.0
C2881 C 0.42478 0.83381 0.63125 0.0
H2882 H 0.45362 0.85271 0.63105 0.0
C2883 C 0.40775 0.83117 0.62327 0.0
C2884 C 0.40622 0.84499 0.60981 0.0
C2885 C 0.4262 0.81905 0.64538 0.0
H2886 H 0.4209 0.87258 0.59551 0.0
H2887 H 0.39567 0.81835 0.62755 0.0
C2888 C 0.38822 0.84208 0.60112 0.0
O2889 O 0.41113 0.80308 0.65088 0.0
O2890 O 0.44099 0.82121 0.65205 0.0
O2891 O 0.38704 0.85381 0.5881 0.0
O2892 O 0.37301 0.82647 0.60759 0.0
H2893 H 0.41173 0.79325 0.65999 0.0
H2894 H 0.36116 0.82435 0.60224 0.0
N2895 N 0.48092 0.90889 0.57943 0.0
C2896 C 0.49152 0.92204 0.56162 0.0
C2897 C 0.50528 0.93836 0.57264 0.0
C2898 C 0.50707 0.94006 0.60219 0.0
C2899 C 0.49531 0.9256 0.61993 0.0
C2900 C 0.48191 0.90968 0.60736 0.0
N2901 N 0.47346 0.89926 0.52762 0.0
C2902 C 0.48735 0.91655 0.53204 0.0
O2903 O 0.49752 0.92686 0.5114 0.0
C2904 C 0.46764 0.89315 0.62087 0.0
O2905 O 0.42926 0.88948 0.66683 0.0
O2906 O 0.43503 0.87484 0.69894 0.0
C2907 C 0.47072 0.89072 0.50054 0.0
C2908 C 0.46233 0.89513 0.47892 0.0
C2909 C 0.4613 0.88838 0.45165 0.0
C2910 C 0.46821 0.87688 0.44633 0.0
C2911 C 0.4776 0.87324 0.46695 0.0
C2912 C 0.47926 0.88062 0.49395 0.0
O2913 O 0.49221 0.92658 0.69972 0.0
O2914 O 0.47632 0.93933 0.69522 0.0
O2915 O 0.45138 0.92532 0.65962 0.0
O2916 O 0.44646 0.94764 0.65277 0.0
O2917 O 0.468 0.89046 0.64886 0.0
C2918 C 0.44828 0.92109 0.7505 0.0
O2919 O 0.44721 0.93468 0.74147 0.0
O2920 O 0.45262 0.91177 0.73442 0.0
C2921 C 0.42375 0.87536 0.6818 0.0
H2922 H 0.40577 0.85541 0.51264 0.0
H2923 H 0.43823 0.82935 0.51828 0.0
H2924 H 0.41049 0.82939 0.50125 0.0
H2925 H 0.44095 0.9036 0.61484 0.0
H2926 H 0.45595 0.95943 0.60302 0.0
H2927 H 0.45761 0.92801 0.53371 0.0
H2928 H 0.47526 0.85212 0.60236 0.0
H2929 H 0.50988 0.90441 0.56583 0.0
H2930 H 0.53042 0.88463 0.62996 0.0
H2931 H 0.51435 0.94935 0.55903 0.0
H2932 H 0.51755 0.95254 0.61133 0.0
H2933 H 0.49657 0.92694 0.64251 0.0
H2934 H 0.45736 0.90438 0.48309 0.0
H2935 H 0.46783 0.87213 0.42504 0.0
H2936 H 0.48761 0.879 0.50942 0.0
Cd2937 Cd 0.2184 0.42482 0.1619 0.0
C2938 C 0.22012 0.3878 0.14507 0.0
C2939 C 0.27147 0.47218 0.29491 0.0
O2940 O 0.28867 0.48426 0.29842 0.0
Cd2941 Cd 0.17947 0.37482 0.1489 0.0
C2942 C 0.25699 0.47542 0.30457 0.0
C2943 C 0.22513 0.47392 0.32277 0.0
C2944 C 0.22487 0.46 0.30686 0.0
N2945 N 0.24059 0.46188 0.29809 0.0
C2946 C 0.25838 0.48985 0.32049 0.0
C2947 C 0.24217 0.48905 0.32941 0.0
Co2948 Co 0.2396 0.44186 0.2817 0.0
C2949 C 0.2093 0.4425 0.29869 0.0
O2950 O 0.19248 0.43821 0.30385 0.0
C2951 C 0.2003 0.41434 0.27268 0.0
C2952 C 0.19564 0.41222 0.24413 0.0
C2953 C 0.18369 0.39491 0.23334 0.0
C2954 C 0.17696 0.37988 0.25122 0.0
C2955 C 0.18209 0.38197 0.27953 0.0
C2956 C 0.193 0.39939 0.29036 0.0
C2957 C 0.1806 0.39172 0.20295 0.0
C2958 C 0.27791 0.45288 0.26445 0.0
C2959 C 0.28908 0.46636 0.24531 0.0
C2960 C 0.27942 0.43734 0.26709 0.0
C2961 C 0.29137 0.43499 0.24993 0.0
C2962 C 0.30237 0.44842 0.23075 0.0
C2963 C 0.30177 0.46457 0.22907 0.0
N2964 N 0.26595 0.45576 0.28219 0.0
N2965 N 0.21356 0.43146 0.28371 0.0
N2966 N 0.23973 0.44949 0.24284 0.0
C2967 C 0.23946 0.46548 0.2342 0.0
C2968 C 0.25453 0.47971 0.22106 0.0
C2969 C 0.22422 0.46714 0.23957 0.0
C2970 C 0.25485 0.49597 0.21459 0.0
H2971 H 0.26602 0.47811 0.21614 0.0
C2972 C 0.23971 0.49769 0.22124 0.0
C2973 C 0.22432 0.48334 0.23382 0.0
C2974 C 0.27106 0.51127 0.2014 0.0
H2975 H 0.21219 0.45574 0.248 0.0
H2976 H 0.23991 0.51023 0.21666 0.0
C2977 C 0.2085 0.48536 0.24127 0.0
O2978 O 0.27133 0.52692 0.19562 0.0
O2979 O 0.28429 0.50986 0.19578 0.0
O2980 O 0.19568 0.47334 0.25402 0.0
O2981 O 0.20818 0.50051 0.23403 0.0
H2982 H 0.28177 0.53708 0.18711 0.0
H2983 H 0.19797 0.50205 0.23858 0.0
N2984 N 0.23822 0.42153 0.26598 0.0
C2985 C 0.23623 0.40856 0.28371 0.0
C2986 C 0.23463 0.39262 0.27262 0.0
C2987 C 0.23505 0.39111 0.24306 0.0
C2988 C 0.23717 0.40539 0.22541 0.0
C2989 C 0.23872 0.42091 0.23806 0.0
N2990 N 0.23941 0.43073 0.31791 0.0
C2991 C 0.23714 0.41386 0.31332 0.0
O2992 O 0.23801 0.404 0.33383 0.0
C2993 C 0.24028 0.43716 0.22462 0.0
O2994 O 0.19855 0.4351 0.17651 0.0
O2995 O 0.222 0.45471 0.15257 0.0
C2996 C 0.24512 0.43923 0.34504 0.0
C2997 C 0.23239 0.43414 0.36699 0.0
C2998 C 0.23818 0.44035 0.3945 0.0
C2999 C 0.25658 0.45195 0.3998 0.0
C3000 C 0.26947 0.45625 0.37873 0.0
C3001 C 0.26375 0.44952 0.35147 0.0
O3002 O 0.22721 0.40414 0.13665 0.0
O3003 O 0.20934 0.38315 0.16563 0.0
O3004 O 0.19252 0.40185 0.18547 0.0
O3005 O 0.16713 0.37744 0.19355 0.0
O3006 O 0.2431 0.43987 0.1966 0.0
C3007 C 0.19797 0.40898 0.0959 0.0
O3008 O 0.18615 0.39364 0.10589 0.0
O3009 O 0.21047 0.42103 0.11131 0.0
C3010 C 0.2076 0.45089 0.16613 0.0
H3011 H 0.21273 0.47305 0.33021 0.0
H3012 H 0.27143 0.50113 0.32634 0.0
H3013 H 0.24281 0.49996 0.34192 0.0
H3014 H 0.2016 0.42388 0.23037 0.0
H3015 H 0.16904 0.36642 0.24244 0.0
H3016 H 0.19682 0.40141 0.31233 0.0
H3017 H 0.2884 0.47866 0.24386 0.0
H3018 H 0.27189 0.4273 0.28288 0.0
H3019 H 0.31205 0.44659 0.21856 0.0
H3020 H 0.23319 0.38179 0.28617 0.0
H3021 H 0.23379 0.37893 0.23386 0.0
H3022 H 0.23746 0.40426 0.20282 0.0
H3023 H 0.21821 0.42477 0.36286 0.0
H3024 H 0.26105 0.45645 0.42114 0.0
H3025 H 0.27375 0.45164 0.33572 0.0
Cd3026 Cd 0.56914 0.79172 0.1621 0.0
C3027 C 0.60868 0.8286 0.14989 0.0
C3028 C 0.52571 0.80113 0.29747 0.0
O3029 O 0.51442 0.8071 0.30241 0.0
Cd3030 Cd 0.61793 0.79788 0.14772 0.0
C3031 C 0.522 0.78329 0.3072 0.0
C3032 C 0.52295 0.75276 0.32594 0.0
C3033 C 0.53633 0.76556 0.30828 0.0
N3034 N 0.53468 0.77948 0.29921 0.0
C3035 C 0.50815 0.77115 0.32494 0.0
C3036 C 0.50863 0.75562 0.33408 0.0
Co3037 Co 0.55471 0.79789 0.28169 0.0
C3038 C 0.55323 0.76662 0.29888 0.0
O3039 O 0.557 0.75369 0.30379 0.0
C3040 C 0.58037 0.7839 0.27011 0.0
C3041 C 0.58094 0.77976 0.24167 0.0
C3042 C 0.59713 0.78195 0.23004 0.0
C3043 C 0.61249 0.78827 0.24714 0.0
C3044 C 0.61181 0.79284 0.27499 0.0
C3045 C 0.59574 0.7903 0.2866 0.0
C3046 C 0.5994 0.78098 0.19956 0.0
C3047 C 0.54422 0.82571 0.26484 0.0
C3048 C 0.52989 0.82337 0.24757 0.0
C3049 C 0.56015 0.84257 0.26542 0.0
C3050 C 0.56189 0.85663 0.24826 0.0
C3051 C 0.54752 0.85421 0.23119 0.0
C3052 C 0.5311 0.83768 0.23159 0.0
N3053 N 0.54171 0.81126 0.2832 0.0
N3054 N 0.56415 0.78142 0.28285 0.0
N3055 N 0.54607 0.79031 0.24326 0.0
C3056 C 0.52946 0.77447 0.23536 0.0
C3057 C 0.51572 0.77606 0.22201 0.0
C3058 C 0.52674 0.75724 0.24159 0.0
C3059 C 0.49894 0.76059 0.21611 0.0
H3060 H 0.5181 0.78938 0.21648 0.0
C3061 C 0.49615 0.74344 0.22374 0.0
C3062 C 0.50997 0.74164 0.23663 0.0
C3063 C 0.48421 0.76229 0.20247 0.0
H3064 H 0.53775 0.75596 0.25004 0.0
H3065 H 0.48319 0.73147 0.21967 0.0
C3066 C 0.50685 0.72354 0.24518 0.0
O3067 O 0.46812 0.74737 0.19704 0.0
O3068 O 0.48652 0.77719 0.19611 0.0
O3069 O 0.51853 0.72216 0.25799 0.0
O3070 O 0.49107 0.70846 0.23891 0.0
H3071 H 0.45832 0.74816 0.18821 0.0
H3072 H 0.48881 0.69655 0.24419 0.0
N3073 N 0.57509 0.81619 0.26503 0.0
C3074 C 0.58864 0.82692 0.2821 0.0
C3075 C 0.60446 0.84099 0.27028 0.0
C3076 C 0.60532 0.84282 0.2407 0.0
C3077 C 0.59052 0.83082 0.22376 0.0
C3078 C 0.57512 0.81717 0.23713 0.0
N3079 N 0.56687 0.80879 0.31731 0.0
C3080 C 0.58399 0.82274 0.31193 0.0
O3081 O 0.59472 0.83316 0.33202 0.0
C3082 C 0.55834 0.80279 0.22451 0.0
O3083 O 0.55551 0.76168 0.17882 0.0
O3084 O 0.5389 0.76689 0.14978 0.0
C3085 C 0.55876 0.80714 0.3445 0.0
C3086 C 0.56253 0.79849 0.36654 0.0
C3087 C 0.55666 0.79895 0.39397 0.0
C3088 C 0.54692 0.80781 0.39916 0.0
C3089 C 0.54387 0.81721 0.37796 0.0
C3090 C 0.55006 0.81714 0.35067 0.0
O3091 O 0.59242 0.82188 0.14131 0.0
O3092 O 0.61175 0.82002 0.16865 0.0
O3093 O 0.59042 0.78465 0.18233 0.0
O3094 O 0.61263 0.77986 0.18982 0.0
O3095 O 0.55526 0.80267 0.19662 0.0
C3096 C 0.58394 0.78722 0.09537 0.0
O3097 O 0.59877 0.78914 0.10507 0.0
O3098 O 0.5724 0.78831 0.11122 0.0
C3099 C 0.54068 0.75579 0.16563 0.0
H3100 H 0.52371 0.74123 0.3337 0.0
H3101 H 0.49763 0.77377 0.33211 0.0
H3102 H 0.4982 0.74608 0.34803 0.0
H3103 H 0.56902 0.77516 0.22875 0.0
H3104 H 0.62537 0.79112 0.23831 0.0
H3105 H 0.59534 0.79401 0.30828 0.0
H3106 H 0.51737 0.81052 0.24754 0.0
H3107 H 0.57099 0.84513 0.27969 0.0
H3108 H 0.54892 0.86557 0.21903 0.0
H3109 H 0.61569 0.85028 0.28331 0.0
H3110 H 0.6174 0.85353 0.23094 0.0
H3111 H 0.59113 0.83218 0.20115 0.0
H3112 H 0.57062 0.79218 0.36252 0.0
H3113 H 0.54269 0.80843 0.42046 0.0
H3114 H 0.5489 0.82554 0.33474 0.0
Cd3115 Cd 0.20021 0.77453 0.1601 0.0
C3116 C 0.16202 0.77219 0.14282 0.0
C3117 C 0.19216 0.72244 0.29498 0.0
O3118 O 0.18622 0.70513 0.2993 0.0
Cd3119 Cd 0.18776 0.81328 0.14571 0.0
C3120 C 0.2102 0.73646 0.30418 0.0
C3121 C 0.24164 0.7678 0.32085 0.0
C3122 C 0.22824 0.76852 0.30495 0.0
N3123 N 0.21381 0.75301 0.29702 0.0
C3124 C 0.22294 0.7346 0.32015 0.0
C3125 C 0.23889 0.75055 0.32832 0.0
Co3126 Co 0.19541 0.75478 0.27995 0.0
C3127 C 0.22726 0.78442 0.29565 0.0
O3128 O 0.24041 0.80109 0.30005 0.0
C3129 C 0.20921 0.79432 0.26885 0.0
C3130 C 0.21083 0.79813 0.23994 0.0
C3131 C 0.20697 0.81128 0.22933 0.0
C3132 C 0.20158 0.82043 0.248 0.0
C3133 C 0.19955 0.81604 0.27646 0.0
C3134 C 0.20388 0.80347 0.2869 0.0
C3135 C 0.20538 0.81339 0.19892 0.0
C3136 C 0.16639 0.71675 0.2652 0.0
C3137 C 0.16781 0.70488 0.24653 0.0
C3138 C 0.14964 0.71583 0.26863 0.0
C3139 C 0.1347 0.70352 0.25282 0.0
C3140 C 0.13621 0.69158 0.23437 0.0
C3141 C 0.1527 0.69176 0.2321 0.0
N3142 N 0.18177 0.72852 0.28206 0.0
N3143 N 0.2122 0.78061 0.28034 0.0
N3144 N 0.20258 0.7532 0.24144 0.0
C3145 C 0.21877 0.75316 0.23333 0.0
C3146 C 0.21782 0.7376 0.22191 0.0
C3147 C 0.23571 0.76854 0.23781 0.0
C3148 C 0.23372 0.73702 0.2162 0.0
H3149 H 0.2047 0.72594 0.21776 0.0
C3150 C 0.25061 0.75229 0.22224 0.0
C3151 C 0.25174 0.76809 0.23326 0.0
C3152 C 0.23273 0.72042 0.20448 0.0
H3153 H 0.23643 0.78092 0.24471 0.0
H3154 H 0.26291 0.75185 0.21846 0.0
C3155 C 0.26958 0.78396 0.24052 0.0
O3156 O 0.24806 0.71993 0.19936 0.0
O3157 O 0.21807 0.70708 0.19941 0.0
O3158 O 0.2704 0.79706 0.25245 0.0
O3159 O 0.28503 0.78402 0.23411 0.0
H3160 H 0.24774 0.70924 0.19176 0.0
H3161 H 0.29678 0.79425 0.23858 0.0
N3162 N 0.17711 0.75693 0.26345 0.0
C3163 C 0.16646 0.75983 0.28061 0.0
C3164 C 0.15205 0.76106 0.26893 0.0
C3165 C 0.1498 0.75948 0.23944 0.0
C3166 C 0.16168 0.75653 0.22242 0.0
C3167 C 0.17566 0.7553 0.23561 0.0
N3168 N 0.18488 0.75653 0.31577 0.0
C3169 C 0.17092 0.75971 0.31042 0.0
O3170 O 0.16064 0.76022 0.33059 0.0
C3171 C 0.18993 0.75274 0.22284 0.0
O3172 O 0.23016 0.79364 0.17588 0.0
O3173 O 0.22642 0.77075 0.15053 0.0
C3174 C 0.18678 0.75048 0.34321 0.0
C3175 C 0.19459 0.7631 0.36527 0.0
C3176 C 0.19463 0.7571 0.39278 0.0
C3177 C 0.18742 0.73863 0.39794 0.0
C3178 C 0.17867 0.72585 0.37679 0.0
C3179 C 0.1778 0.73179 0.34962 0.0
O3180 O 0.17052 0.76423 0.13482 0.0
O3181 O 0.16865 0.78304 0.16318 0.0
O3182 O 0.20319 0.80113 0.18181 0.0
O3183 O 0.20384 0.82642 0.18933 0.0
O3184 O 0.19002 0.74979 0.19491 0.0
C3185 C 0.2044 0.79516 0.09378 0.0
O3186 O 0.20044 0.80683 0.10311 0.0
O3187 O 0.20431 0.78303 0.10972 0.0
C3188 C 0.23693 0.78478 0.16491 0.0
H3189 H 0.25364 0.78003 0.32759 0.0
H3190 H 0.22056 0.72141 0.32655 0.0
H3191 H 0.24895 0.74955 0.34081 0.0
H3192 H 0.21463 0.79064 0.22589 0.0
H3193 H 0.19743 0.82975 0.24021 0.0
H3194 H 0.20205 0.79994 0.30904 0.0
H3195 H 0.18056 0.7051 0.24456 0.0
H3196 H 0.14786 0.72407 0.28407 0.0
H3197 H 0.12428 0.68154 0.22338 0.0
H3198 H 0.14276 0.76296 0.28204 0.0
H3199 H 0.13879 0.76039 0.22982 0.0
H3200 H 0.15992 0.7552 0.19989 0.0
H3201 H 0.19992 0.77738 0.36118 0.0
H3202 H 0.18733 0.73403 0.41923 0.0
H3203 H 0.16967 0.7219 0.33392 0.0
H3204 H 0.27495 0.09377 0.93003 0.0
H3205 H 0.38214 0.16348 0.92257 0.0
H3206 H 0.30495 0.13484 0.99201 0.0
H3207 H 0.34967 0.13642 0.8499 0.0
H3208 H 0.35525 0.14672 0.9523 0.0
H3209 H 0.30346 0.10317 0.90444 0.0
C3210 C 0.28757 0.1044 0.93861 0.0
C3211 C 0.28763 0.11356 0.96312 0.0
C3212 C 0.3541 0.14415 0.92991 0.0
C3213 C 0.32016 0.12435 0.93417 0.0
C3214 C 0.36951 0.15357 0.91298 0.0
C3215 C 0.36815 0.15129 0.88372 0.0
C3216 C 0.33726 0.13224 0.91753 0.0
C3217 C 0.3513 0.13854 0.87239 0.0
C3218 C 0.3038 0.10986 0.92394 0.0
C3219 C 0.30433 0.12747 0.97312 0.0
N3220 N 0.33651 0.1296 0.88924 0.0
N3221 N 0.31985 0.13246 0.95863 0.0
H3222 H 0.8497 0.20391 0.84322 0.0
H3223 H 0.87127 0.18509 0.99845 0.0
H3224 H 0.83608 0.22353 0.9175 0.0
H3225 H 0.88902 0.16952 0.92411 0.0
H3226 H 0.86087 0.2016 0.96922 0.0
H3227 H 0.86661 0.19385 0.87218 0.0
C3228 C 0.85056 0.20642 0.86563 0.0
C3229 C 0.84146 0.21461 0.87791 0.0
C3230 C 0.86726 0.19481 0.95924 0.0
C3231 C 0.86064 0.20277 0.91143 0.0
C3232 C 0.87325 0.1854 0.97593 0.0
C3233 C 0.88106 0.1759 0.96374 0.0
C3234 C 0.86886 0.19465 0.92993 0.0
C3235 C 0.88323 0.17675 0.93445 0.0
C3236 C 0.86019 0.2006 0.88218 0.0
C3237 C 0.84301 0.21744 0.90707 0.0
N3238 N 0.87696 0.18577 0.91853 0.0
N3239 N 0.85221 0.21132 0.92286 0.0
H3240 H 0.76854 0.60967 0.91976 0.0
H3241 H 0.82423 0.71834 0.92489 0.0
H3242 H 0.78774 0.64371 0.84626 0.0
H3243 H 0.80701 0.68428 0.99844 0.0
H3244 H 0.80698 0.69132 0.8956 0.0
H3245 H 0.77847 0.63682 0.9488 0.0
C3246 C 0.77442 0.62278 0.90966 0.0
C3247 C 0.77734 0.6244 0.88053 0.0
C3248 C 0.80672 0.68979 0.9182 0.0
C3249 C 0.78903 0.6556 0.91363 0.0
C3250 C 0.81646 0.70526 0.93493 0.0
C3251 C 0.81707 0.70357 0.96416 0.0
C3252 C 0.79753 0.67253 0.9308 0.0
C3253 C 0.80696 0.6862 0.97597 0.0
C3254 C 0.78024 0.63833 0.92625 0.0
C3255 C 0.7853 0.64183 0.86866 0.0
N3256 N 0.79777 0.67139 0.9593 0.0
N3257 N 0.79099 0.65669 0.88521 0.0
H3258 H 0.15598 0.38311 0.59458 0.0
H3259 H 0.10285 0.27443 0.58863 0.0
H3260 H 0.14404 0.3489 0.66739 0.0
H3261 H 0.1185 0.30874 0.5154 0.0
H3262 H 0.11349 0.30139 0.61837 0.0
H3263 H 0.13795 0.35601 0.56583 0.0
C3264 C 0.14922 0.36996 0.60464 0.0
C3265 C 0.15157 0.36828 0.63343 0.0
C3266 C 0.11432 0.30299 0.59576 0.0
C3267 C 0.13113 0.33716 0.60063 0.0
C3268 C 0.1081 0.28756 0.57878 0.0
C3269 C 0.10981 0.28933 0.54947 0.0
C3270 C 0.12226 0.32029 0.58334 0.0
C3271 C 0.11699 0.30676 0.53791 0.0
C3272 C 0.13904 0.35445 0.58819 0.0
C3273 C 0.14267 0.35082 0.64524 0.0
N3274 N 0.12306 0.32152 0.55481 0.0
N3275 N 0.13301 0.33599 0.62881 0.0
H3276 H 0.7076 0.85058 0.57621 0.0
H3277 H 0.62311 0.7617 0.63219 0.0
H3278 H 0.70136 0.80078 0.54289 0.0
H3279 H 0.62231 0.80931 0.60389 0.0
H3280 H 0.65304 0.77337 0.60902 0.0
H3281 H 0.67866 0.8337 0.59972 0.0
C3282 C 0.70022 0.836 0.57411 0.0
C3283 C 0.70683 0.82715 0.55719 0.0
C3284 C 0.64606 0.78102 0.60772 0.0
C3285 C 0.67326 0.80756 0.5841 0.0
C3286 C 0.62902 0.77437 0.62078 0.0
C3287 C 0.62038 0.78475 0.62048 0.0
C3288 C 0.65434 0.79815 0.59477 0.0
C3289 C 0.62863 0.80107 0.60544 0.0
C3290 C 0.68362 0.82636 0.58751 0.0
C3291 C 0.69671 0.80812 0.55574 0.0
N3292 N 0.64513 0.80732 0.59364 0.0
N3293 N 0.68019 0.79887 0.56879 0.0
H3294 H 0.16398 0.85317 0.51845 0.0
H3295 H 0.21511 0.85882 0.65817 0.0
H3296 H 0.18037 0.89769 0.57594 0.0
H3297 H 0.21796 0.82982 0.58603 0.0
H3298 H 0.20359 0.87411 0.62817 0.0
H3299 H 0.18462 0.84522 0.54177 0.0
C3300 C 0.1723 0.86154 0.53562 0.0
C3301 C 0.17059 0.8762 0.54516 0.0
C3302 C 0.20712 0.86473 0.61872 0.0
C3303 C 0.19381 0.86677 0.57266 0.0
C3304 C 0.21374 0.85603 0.63583 0.0
C3305 C 0.21762 0.84312 0.62457 0.0
C3306 C 0.20385 0.86017 0.59016 0.0
C3307 C 0.21534 0.83982 0.59555 0.0
C3308 C 0.18405 0.85697 0.54896 0.0
C3309 C 0.18147 0.88644 0.56771 0.0
N3310 N 0.20828 0.84802 0.57945 0.0
N3311 N 0.19236 0.88132 0.58106 0.0
H3312 H 0.68288 0.86948 0.01104 0.0
H3313 H 0.64341 0.85012 0.16669 0.0
H3314 H 0.71655 0.8899 0.0847 0.0
H3315 H 0.6097 0.83541 0.09288 0.0
H3316 H 0.67015 0.86699 0.1372 0.0
H3317 H 0.65606 0.85933 0.04044 0.0
C3318 C 0.68464 0.87214 0.03341 0.0
C3319 C 0.70202 0.8806 0.0454 0.0
C3320 C 0.65692 0.86035 0.12742 0.0
C3321 C 0.6712 0.86866 0.07941 0.0
C3322 C 0.64161 0.85073 0.14426 0.0
C3323 C 0.62425 0.84134 0.13227 0.0
C3324 C 0.65499 0.86048 0.09817 0.0
C3325 C 0.62277 0.84256 0.10308 0.0
C3326 C 0.66929 0.86628 0.0502 0.0
C3327 C 0.70346 0.88361 0.07451 0.0
N3328 N 0.63796 0.85174 0.08701 0.0
N3329 N 0.68824 0.87743 0.09055 0.0
H3330 H 0.13412 0.77729 0.15651 0.0
H3331 H 0.14175 0.83044 0.01842 0.0
H3332 H 0.16403 0.77529 0.08495 0.0
H3333 H 0.09614 0.81279 0.07403 0.0
H3334 H 0.14938 0.80945 0.04132 0.0
H3335 H 0.11916 0.78908 0.12636 0.0
C3336 C 0.1372 0.77892 0.13425 0.0
C3337 C 0.15029 0.77524 0.12322 0.0
C3338 C 0.13746 0.80982 0.04816 0.0
C3339 C 0.13361 0.78932 0.08868 0.0
C3340 C 0.13308 0.82178 0.03506 0.0
C3341 C 0.11822 0.82324 0.04424 0.0
C3342 C 0.12725 0.79959 0.07125 0.0
C3343 C 0.10757 0.8119 0.06611 0.0
C3344 C 0.12868 0.78569 0.11706 0.0
C3345 C 0.15393 0.77781 0.09431 0.0
N3346 N 0.1125 0.8008 0.07926 0.0
N3347 N 0.14591 0.78504 0.07815 0.0
H3348 H 0.16616 0.30897 0.01877 0.0
H3349 H 0.21633 0.3553 0.15922 0.0
H3350 H 0.18214 0.28134 0.07786 0.0
H3351 H 0.21727 0.38638 0.08724 0.0
H3352 H 0.20556 0.32854 0.12927 0.0
H3353 H 0.18624 0.33767 0.04218 0.0
C3354 C 0.17428 0.30905 0.03633 0.0
C3355 C 0.17261 0.29279 0.04627 0.0
C3356 C 0.20851 0.34128 0.11984 0.0
C3357 C 0.19521 0.3256 0.07389 0.0
C3358 C 0.21471 0.35659 0.13692 0.0
C3359 C 0.2178 0.37314 0.12571 0.0
C3360 C 0.2049 0.34234 0.09135 0.0
C3361 C 0.21525 0.37398 0.09674 0.0
C3362 C 0.18572 0.32545 0.04973 0.0
C3363 C 0.18323 0.2936 0.06931 0.0
N3364 N 0.20863 0.35872 0.08068 0.0
N3365 N 0.19383 0.30969 0.08269 0.0
H3366 H 0.83283 0.65127 0.34766 0.0
H3367 H 0.88582 0.69234 0.48778 0.0
H3368 H 0.84267 0.61942 0.40768 0.0
H3369 H 0.88996 0.72592 0.41733 0.0
H3370 H 0.87312 0.66598 0.45685 0.0
H3371 H 0.85652 0.6789 0.36975 0.0
C3372 C 0.84048 0.65012 0.36492 0.0
C3373 C 0.83591 0.63304 0.37572 0.0
C3374 C 0.87714 0.67913 0.44793 0.0
C3375 C 0.86256 0.66467 0.40196 0.0
C3376 C 0.88446 0.69422 0.46559 0.0
C3377 C 0.88888 0.71136 0.45519 0.0
C3378 C 0.87377 0.68102 0.41963 0.0
C3379 C 0.88673 0.71299 0.42629 0.0
C3380 C 0.85393 0.66592 0.37766 0.0
C3381 C 0.84596 0.63231 0.39845 0.0
N3382 N 0.87896 0.69794 0.40964 0.0
N3383 N 0.85855 0.6479 0.4112 0.0
H3384 H 0.38525 0.22414 0.42132 0.0
H3385 H 0.27648 0.17116 0.42754 0.0
H3386 H 0.35085 0.20742 0.34818 0.0
H3387 H 0.31066 0.18294 0.50034 0.0
H3388 H 0.30363 0.18861 0.39862 0.0
H3389 H 0.35825 0.21331 0.45109 0.0
C3390 C 0.37208 0.21859 0.41151 0.0
C3391 C 0.3703 0.21669 0.38222 0.0
C3392 C 0.30518 0.1876 0.42101 0.0
C3393 C 0.33932 0.20407 0.4161 0.0
C3394 C 0.28964 0.17775 0.43755 0.0
C3395 C 0.29129 0.17556 0.46641 0.0
C3396 C 0.32247 0.19535 0.43341 0.0
C3397 C 0.30876 0.18422 0.47814 0.0
C3398 C 0.35664 0.21227 0.4285 0.0
C3399 C 0.35283 0.2091 0.37068 0.0
N3400 N 0.32362 0.19358 0.46164 0.0
N3401 N 0.33807 0.20299 0.38758 0.0
H3402 H 0.76685 0.16008 0.42177 0.0
H3403 H 0.82114 0.10605 0.42978 0.0
H3404 H 0.7822 0.14035 0.34946 0.0
H3405 H 0.80865 0.12842 0.50188 0.0
H3406 H 0.80163 0.11313 0.40103 0.0
H3407 H 0.77704 0.1437 0.45224 0.0
C3408 C 0.77191 0.15193 0.41228 0.0
C3409 C 0.77371 0.15161 0.38302 0.0
C3410 C 0.80284 0.11613 0.42328 0.0
C3411 C 0.78562 0.13301 0.41771 0.0
C3412 C 0.81381 0.11186 0.43977 0.0
C3413 C 0.81658 0.1167 0.46826 0.0
C3414 C 0.79459 0.1253 0.43539 0.0
C3415 C 0.80696 0.12454 0.47995 0.0
C3416 C 0.77786 0.14268 0.42968 0.0
C3417 C 0.78065 0.14104 0.37193 0.0
N3418 N 0.79663 0.12881 0.46345 0.0
N3419 N 0.78648 0.13232 0.38922 0.0
H3420 H 0.05054 0.49222 0.25499 0.0
H3421 H 0.94175 0.43693 0.26135 0.0
H3422 H 0.01613 0.47578 0.18186 0.0
H3423 H 0.97604 0.45896 0.33412 0.0
H3424 H 0.96887 0.4469 0.23222 0.0
H3425 H 0.02352 0.47596 0.28465 0.0
C3426 C 0.03736 0.48484 0.24513 0.0
C3427 C 0.03559 0.48533 0.2159 0.0
C3428 C 0.97045 0.44932 0.25464 0.0
C3429 C 0.00458 0.4669 0.24967 0.0
C3430 C 0.95494 0.44349 0.27129 0.0
C3431 C 0.95662 0.44711 0.30023 0.0
C3432 C 0.98775 0.45876 0.26701 0.0
C3433 C 0.97411 0.45594 0.31188 0.0
C3434 C 0.02191 0.47568 0.26207 0.0
C3435 C 0.01811 0.47577 0.20432 0.0
N3436 N 0.98894 0.46153 0.29528 0.0
N3437 N 0.00333 0.46708 0.22118 0.0
H3438 H 0.55229 0.52779 0.32234 0.0
H3439 H 0.49855 0.51682 0.18411 0.0
H3440 H 0.55353 0.49611 0.25274 0.0
H3441 H 0.51583 0.56354 0.23714 0.0
H3442 H 0.52006 0.51026 0.2075 0.0
H3443 H 0.5409 0.54255 0.29088 0.0
C3444 C 0.55061 0.52429 0.30024 0.0
C3445 C 0.55386 0.51068 0.29018 0.0
C3446 C 0.51959 0.52225 0.21357 0.0
C3447 C 0.54026 0.52713 0.25418 0.0
C3448 C 0.50735 0.52605 0.20013 0.0
C3449 C 0.50553 0.54084 0.20853 0.0
C3450 C 0.52987 0.53306 0.23616 0.0
C3451 C 0.517 0.55217 0.22977 0.0
C3452 C 0.54406 0.53269 0.2823 0.0
C3453 C 0.55129 0.50655 0.26141 0.0
N3454 N 0.52845 0.54782 0.24328 0.0
N3455 N 0.54427 0.51445 0.24457 0.0
H3456 H 0.49944 0.05358 0.25335 0.0
H3457 H 0.42611 0.94755 0.24129 0.0
H3458 H 0.46713 0.02164 0.32323 0.0
H3459 H 0.47317 0.97505 0.18826 0.0
H3460 H 0.43521 0.97649 0.26532 0.0
H3461 H 0.48392 0.02676 0.22307 0.0
C3462 C 0.48869 0.0411 0.26212 0.0
C3463 C 0.48456 0.03983 0.29087 0.0
C3464 C 0.44333 0.9762 0.24805 0.0
C3465 C 0.4668 0.00909 0.25641 0.0
C3466 C 0.43806 0.95974 0.23424 0.0
C3467 C 0.44893 0.95892 0.21283 0.0
C3468 C 0.45936 0.99195 0.23999 0.0
C3469 C 0.46445 0.97509 0.20476 0.0
C3470 C 0.47995 0.02574 0.2449 0.0
C3471 C 0.4707 0.02318 0.30117 0.0
N3472 N 0.46921 0.99088 0.21834 0.0
N3473 N 0.46239 0.00846 0.28404 0.0
H3474 H 0.4992 0.97463 0.6863 0.0
H3475 H 0.54921 0.02098 0.82686 0.0
H3476 H 0.51523 0.9468 0.745 0.0
H3477 H 0.55223 0.05226 0.7539 0.0
H3478 H 0.5376 0.9939 0.79741 0.0
H3479 H 0.51894 0.00318 0.71029 0.0
C3480 C 0.50716 0.9746 0.70401 0.0
C3481 C 0.50562 0.95832 0.71361 0.0
C3482 C 0.54117 0.00673 0.78768 0.0
C3483 C 0.528 0.99102 0.74173 0.0
C3484 C 0.54786 0.02222 0.80446 0.0
C3485 C 0.55183 0.03895 0.79281 0.0
C3486 C 0.53793 0.0078 0.75905 0.0
C3487 C 0.54955 0.03972 0.76373 0.0
C3488 C 0.51845 0.99093 0.71769 0.0
C3489 C 0.51615 0.95906 0.73675 0.0
N3490 N 0.54244 0.0243 0.74795 0.0
N3491 N 0.52666 0.9751 0.75035 0.0
H3492 H 0.94572 0.51615 0.76955 0.0
H3493 H 0.05253 0.55211 0.75908 0.0
H3494 H 0.97361 0.49729 0.82305 0.0
H3495 H 0.02018 0.54982 0.68799 0.0
H3496 H 0.0253 0.53963 0.78877 0.0
H3497 H 0.9746 0.5361 0.74543 0.0
C3498 C 0.95798 0.51657 0.77669 0.0
C3499 C 0.95731 0.50509 0.79831 0.0
C3500 C 0.02427 0.54224 0.76678 0.0
C3501 C 0.99027 0.52782 0.77106 0.0
C3502 C 0.03984 0.5495 0.7499 0.0
C3503 C 0.03861 0.55203 0.72102 0.0
C3504 C 0.00746 0.53781 0.75481 0.0
C3505 C 0.02171 0.54811 0.71018 0.0
C3506 C 0.9744 0.52783 0.76282 0.0
C3507 C 0.97356 0.50593 0.80643 0.0
N3508 N 0.00682 0.54117 0.727 0.0
N3509 N 0.98932 0.51705 0.79284 0.0
H3510 H 0.48675 0.4348 0.76265 0.0
H3511 H 0.43672 0.49343 0.75688 0.0
H3512 H 0.47748 0.45944 0.83513 0.0
H3513 H 0.44986 0.47248 0.68366 0.0
H3514 H 0.44735 0.47713 0.78667 0.0
H3515 H 0.46916 0.44453 0.73414 0.0
C3516 C 0.48071 0.4419 0.77269 0.0
C3517 C 0.48364 0.44635 0.80132 0.0
C3518 C 0.44763 0.47586 0.76407 0.0
C3519 C 0.46366 0.45773 0.7688 0.0
C3520 C 0.44139 0.48504 0.74708 0.0
C3521 C 0.44239 0.48431 0.71773 0.0
C3522 C 0.45486 0.46583 0.75163 0.0
C3523 C 0.44889 0.47345 0.7062 0.0
C3524 C 0.47076 0.44759 0.75638 0.0
C3525 C 0.47565 0.4558 0.8131 0.0
N3526 N 0.45498 0.46478 0.72311 0.0
N3527 N 0.46618 0.46127 0.79682 0.0
H3528 H 0.19944 0.0139 0.00916 0.0
H3529 H 0.10668 0.92623 0.04557 0.0
H3530 H 0.16557 0.0091 0.07982 0.0
H3531 H 0.14103 0.93077 0.97582 0.0
H3532 H 0.12351 0.95924 0.0503 0.0
H3533 H 0.17421 0.98645 0.98914 0.0
C3534 C 0.18664 0.00723 0.02025 0.0
C3535 C 0.18476 0.0136 0.04646 0.0
C3536 C 0.1271 0.95302 0.03357 0.0
C3537 C 0.15588 0.9822 0.02384 0.0
C3538 C 0.11746 0.93418 0.03086 0.0
C3539 C 0.12285 0.92574 0.01088 0.0
C3540 C 0.14228 0.96334 0.01635 0.0
C3541 C 0.13674 0.93669 0.99207 0.0
C3542 C 0.1722 0.99162 0.00877 0.0
C3543 C 0.16772 0.00469 0.05959 0.0
N3544 N 0.1462 0.95488 0.99561 0.0
N3545 N 0.15406 0.98927 0.04841 0.0
H3546 H 0.06531 0.21169 0.9756 0.0
H3547 H 0.98415 0.1539 0.07878 0.0
H3548 H 0.06808 0.18109 0.04569 0.0
H3549 H 0.98354 0.1894 0.01463 0.0
H3550 H 0.01125 0.15641 0.05786 0.0
H3551 H 0.03256 0.19625 0.98051 0.0
C3552 C 0.05899 0.20146 0.99176 0.0
C3553 C 0.06948 0.19802 0.01081 0.0
C3554 C 0.00503 0.16341 0.04804 0.0
C3555 C 0.03196 0.18054 0.01682 0.0
C3556 C 0.98941 0.16189 0.05985 0.0
C3557 C 0.98164 0.17173 0.04874 0.0
C3558 C 0.01317 0.17503 0.02516 0.0
C3559 C 0.98933 0.18199 0.02438 0.0
C3560 C 0.04026 0.19266 0.99454 0.0
C3561 C 0.06053 0.18437 0.03088 0.0
N3562 N 0.00484 0.18361 0.01367 0.0
N3563 N 0.04226 0.17639 0.03376 0.0
H3564 H 0.81491 0.88889 0.04924 0.0
H3565 H 0.81259 0.79779 0.01101 0.0
H3566 H 0.7875 0.85547 0.97744 0.0
H3567 H 0.83928 0.83024 0.084 0.0
H3568 H 0.81103 0.82338 0.99105 0.0
H3569 H 0.83169 0.87267 0.0546 0.0
C3570 C 0.81276 0.87847 0.0342 0.0
C3571 C 0.79941 0.87309 0.01344 0.0
C3572 C 0.81755 0.82503 0.01121 0.0
C3573 C 0.81831 0.85445 0.01951 0.0
C3574 C 0.81835 0.81039 0.02262 0.0
C3575 C 0.82565 0.81175 0.04945 0.0
C3576 C 0.82376 0.84099 0.02703 0.0
C3577 C 0.83338 0.82853 0.06332 0.0
C3578 C 0.8223 0.86918 0.03727 0.0
C3579 C 0.79732 0.85968 0.99428 0.0
N3580 N 0.83187 0.84237 0.05223 0.0
N3581 N 0.80641 0.8506 0.99808 0.0
H3582 H 0.01191 0.20104 0.50384 0.0
H3583 H 0.92439 0.10668 0.47545 0.0
H3584 H 0.00626 0.16414 0.43729 0.0
H3585 H 0.92833 0.14608 0.53614 0.0
H3586 H 0.95749 0.12272 0.47234 0.0
H3587 H 0.9849 0.17665 0.52624 0.0
C3588 C 0.00516 0.18776 0.49418 0.0
C3589 C 0.01108 0.18479 0.46829 0.0
C3590 C 0.95109 0.12763 0.48676 0.0
C3591 C 0.98021 0.15688 0.49366 0.0
C3592 C 0.93222 0.11848 0.48851 0.0
C3593 C 0.92367 0.12554 0.50516 0.0
C3594 C 0.9613 0.14392 0.50165 0.0
C3595 C 0.9344 0.1406 0.52217 0.0
C3596 C 0.98982 0.17381 0.50704 0.0
C3597 C 0.00216 0.16716 0.45714 0.0
N3598 N 0.95265 0.1495 0.51957 0.0
N3599 N 0.98697 0.15399 0.46958 0.0
H3600 H 0.79126 0.80828 0.50044 0.0
H3601 H 0.88754 0.81843 0.47327 0.0
H3602 H 0.82788 0.84034 0.43416 0.0
H3603 H 0.84702 0.77995 0.52984 0.0
H3604 H 0.8703 0.83432 0.47006 0.0
H3605 H 0.81584 0.80576 0.52229 0.0
C3606 C 0.80452 0.81502 0.49073 0.0
C3607 C 0.80735 0.82408 0.46504 0.0
C3608 C 0.86539 0.82259 0.48359 0.0
C3609 C 0.83548 0.82125 0.4898 0.0
C3610 C 0.87521 0.81353 0.48538 0.0
C3611 C 0.86833 0.7975 0.501 0.0
C3612 C 0.84864 0.81548 0.49748 0.0
C3613 C 0.8525 0.79192 0.51675 0.0
C3614 C 0.81857 0.81367 0.50327 0.0
C3615 C 0.82496 0.83307 0.45385 0.0
N3616 N 0.84304 0.80072 0.51422 0.0
N3617 N 0.83826 0.8311 0.46599 0.0
H3618 H 0.17618 0.07017 0.46852 0.0
H3619 H 0.17982 0.98195 0.50362 0.0
H3620 H 0.20781 0.06512 0.53489 0.0
H3621 H 0.14933 0.98661 0.43508 0.0
H3622 H 0.18206 0.00912 0.52468 0.0
H3623 H 0.15843 0.03706 0.46543 0.0
C3624 C 0.17912 0.0621 0.48283 0.0
C3625 C 0.19387 0.07033 0.50126 0.0
C3626 C 0.17453 0.00399 0.50533 0.0
C3627 C 0.17382 0.03269 0.49784 0.0
C3628 C 0.17332 0.98852 0.49331 0.0
C3629 C 0.16483 0.98235 0.46726 0.0
C3630 C 0.16759 0.01356 0.49079 0.0
C3631 C 0.1562 0.99104 0.45508 0.0
C3632 C 0.169 0.04323 0.4811 0.0
C3633 C 0.19693 0.0593 0.51967 0.0
N3634 N 0.15818 0.00648 0.46659 0.0
N3635 N 0.18722 0.04107 0.51716 0.0
H3636 H 0.79557 0.98142 0.99957 0.0
H3637 H 0.88673 0.0708 0.96275 0.0
H3638 H 0.82888 0.98732 0.92765 0.0
H3639 H 0.85128 0.06485 0.03162 0.0
H3640 H 0.87086 0.03775 0.95779 0.0
H3641 H 0.82069 0.0089 0.01963 0.0
C3642 C 0.80827 0.98836 0.98824 0.0
C3643 C 0.81001 0.98238 0.96165 0.0
C3644 C 0.86684 0.04369 0.97439 0.0
C3645 C 0.83868 0.01391 0.98412 0.0
C3646 C 0.87591 0.06254 0.97721 0.0
C3647 C 0.8699 0.07053 0.99702 0.0
C3648 C 0.85173 0.03295 0.99148 0.0
C3649 C 0.85598 0.05924 0.01548 0.0
C3650 C 0.82264 0.004 0.99969 0.0
C3651 C 0.8269 0.99157 0.94813 0.0
N3652 N 0.84718 0.04105 0.01197 0.0
N3653 N 0.84046 0.00712 0.95921 0.0
H3654 H 0.92768 0.78261 0.03765 0.0
H3655 H 0.00903 0.84526 0.93948 0.0
H3656 H 0.92508 0.81598 0.9718 0.0
H3657 H 0.00988 0.80861 1.00123 0.0
H3658 H 0.98219 0.84265 0.96177 0.0
H3659 H 0.96055 0.79975 0.03527 0.0
C3660 C 0.93406 0.79373 0.02288 0.0
C3661 C 0.92368 0.7975 1.00416 0.0
C3662 C 0.98846 0.83549 0.97085 0.0
C3663 C 0.96132 0.81697 1.00103 0.0
C3664 C 0.00391 0.83705 0.95824 0.0
C3665 C 0.01145 0.82671 0.96806 0.0
C3666 C 0.98035 0.82333 0.99317 0.0
C3667 C 0.00414 0.81633 0.9924 0.0
C3668 C 0.95285 0.80355 0.02161 0.0
C3669 C 0.93262 0.81239 0.98615 0.0
N3670 N 0.98876 0.8146 1.00378 0.0
N3671 N 0.95099 0.82134 0.98452 0.0
H3672 H 0.17734 0.10492 0.96235 0.0
H3673 H 0.18027 0.19599 1.0008 0.0
H3674 H 0.20427 0.13775 0.0349 0.0
H3675 H 0.15124 0.16264 0.92979 0.0
H3676 H 0.18191 0.17047 0.02082 0.0
H3677 H 0.16038 0.12098 0.95745 0.0
C3678 C 0.17934 0.11515 0.97765 0.0
C3679 C 0.1926 0.12038 0.99854 0.0
C3680 C 0.17485 0.16859 1.00111 0.0
C3681 C 0.17352 0.13891 0.99294 0.0
C3682 C 0.174 0.1832 0.98968 0.0
C3683 C 0.16602 0.18155 0.96335 0.0
C3684 C 0.16805 0.15238 0.98573 0.0
C3685 C 0.15768 0.16455 0.95008 0.0
C3686 C 0.16969 0.12435 0.97485 0.0
C3687 C 0.1945 0.13358 0.01801 0.0
N3688 N 0.15928 0.15075 0.96109 0.0
N3689 N 0.18535 0.14261 0.01443 0.0
H3690 H 0.06824 0.88903 0.54267 0.0
H3691 H 0.98147 0.79515 0.51195 0.0
H3692 H 0.06354 0.85287 0.47558 0.0
H3693 H 0.98597 0.83128 0.57899 0.0
H3694 H 0.00814 0.82009 0.48976 0.0
H3695 H 0.03523 0.87267 0.54705 0.0
C3696 C 0.06026 0.87793 0.52845 0.0
C3697 C 0.06863 0.87188 0.50946 0.0
C3698 C 0.00306 0.82266 0.50903 0.0
C3699 C 0.03105 0.853 0.51455 0.0
C3700 C 0.98791 0.80838 0.52176 0.0
C3701 C 0.98177 0.81101 0.54767 0.0
C3702 C 0.0123 0.83955 0.52263 0.0
C3703 C 0.99029 0.82856 0.55909 0.0
C3704 C 0.04142 0.86858 0.53094 0.0
C3705 C 0.05766 0.85765 0.49118 0.0
N3706 N 0.00534 0.84205 0.54681 0.0
N3707 N 0.03947 0.84845 0.49456 0.0
H3708 H 0.14418 0.21355 0.47741 0.0
H3709 H 0.16391 0.15184 0.57573 0.0
H3710 H 0.10753 0.17863 0.54142 0.0
H3711 H 0.20115 0.1882 0.5134 0.0
H3712 H 0.13958 0.15413 0.55344 0.0
H3713 H 0.1608 0.19733 0.4803 0.0
C3714 C 0.1395 0.20229 0.4919 0.0
C3715 C 0.12484 0.1978 0.50994 0.0
C3716 C 0.15298 0.16133 0.54425 0.0
C3717 C 0.14401 0.17935 0.51364 0.0
C3718 C 0.16695 0.15995 0.55688 0.0
C3719 C 0.18479 0.17025 0.54684 0.0
C3720 C 0.1569 0.17332 0.52175 0.0
C3721 C 0.18775 0.18053 0.52243 0.0
C3722 C 0.14897 0.19299 0.49345 0.0
C3723 C 0.11901 0.18276 0.52759 0.0
N3724 N 0.17401 0.1821 0.51104 0.0
N3725 N 0.12891 0.17431 0.5295 0.0
H3726 H 0.81151 0.01096 0.51148 0.0
H3727 H 0.81469 0.9229 0.55101 0.0
H3728 H 0.8386 0.00629 0.58481 0.0
H3729 H 0.79053 0.92937 0.47552 0.0
H3730 H 0.83054 0.95579 0.55761 0.0
H3731 H 0.8104 0.98387 0.49211 0.0
C3732 C 0.81744 0.00436 0.52329 0.0
C3733 C 0.82482 0.01065 0.54997 0.0
C3734 C 0.82213 0.95004 0.5392 0.0
C3735 C 0.82343 0.97956 0.52825 0.0
C3736 C 0.81314 0.93126 0.5354 0.0
C3737 C 0.80093 0.92339 0.5131 0.0
C3738 C 0.81869 0.96083 0.52067 0.0
C3739 C 0.79953 0.93485 0.49337 0.0
C3740 C 0.8169 0.98895 0.51222 0.0
C3741 C 0.83268 0.00185 0.56418 0.0
N3742 N 0.808 0.95294 0.4979 0.0
N3743 N 0.83145 0.98654 0.55342 0.0
H3744 H 0.8291 0.3428 0.41153 0.0
H3745 H 0.80928 0.2626 0.31032 0.0
H3746 H 0.86604 0.34453 0.34792 0.0
H3747 H 0.77266 0.25998 0.37511 0.0
H3748 H 0.82572 0.29541 0.314 0.0
H3749 H 0.80467 0.3164 0.38881 0.0
C3750 C 0.83204 0.33796 0.39233 0.0
C3751 C 0.84983 0.34564 0.38203 0.0
C3752 C 0.81393 0.28775 0.32714 0.0
C3753 C 0.82185 0.31499 0.3564 0.0
C3754 C 0.80456 0.26898 0.32514 0.0
C3755 C 0.78997 0.25857 0.34314 0.0
C3756 C 0.80897 0.29616 0.34782 0.0
C3757 C 0.78409 0.26753 0.36126 0.0
C3758 C 0.81802 0.32275 0.37945 0.0
C3759 C 0.85268 0.33866 0.35714 0.0
N3760 N 0.79391 0.28585 0.36365 0.0
N3761 N 0.83891 0.32349 0.34549 0.0
H3762 H 0.73384 0.51185 0.37447 0.0
H3763 H 0.64646 0.51799 0.34502 0.0
H3764 H 0.72842 0.54258 0.30699 0.0
H3765 H 0.65202 0.48732 0.41249 0.0
H3766 H 0.67299 0.51972 0.3223 0.0
H3767 H 0.70089 0.49499 0.37937 0.0
C3768 C 0.72571 0.51476 0.36027 0.0
C3769 C 0.73384 0.52909 0.34109 0.0
C3770 C 0.66817 0.51227 0.34179 0.0
C3771 C 0.69632 0.51015 0.34677 0.0
C3772 C 0.6531 0.51141 0.35483 0.0
C3773 C 0.64729 0.50291 0.38099 0.0
C3774 C 0.67764 0.50485 0.35532 0.0
C3775 C 0.65607 0.49414 0.39241 0.0
C3776 C 0.70689 0.50516 0.36307 0.0
C3777 C 0.72269 0.53204 0.32278 0.0
N3778 N 0.67101 0.49566 0.37979 0.0
N3779 N 0.70451 0.52295 0.32649 0.0
H3780 H 0.48111 0.2218 0.37799 0.0
H3781 H 0.47654 0.12892 0.34224 0.0
H3782 H 0.44922 0.18541 0.31149 0.0
H3783 H 0.50401 0.16223 0.41418 0.0
H3784 H 0.47436 0.15416 0.32217 0.0
H3785 H 0.49755 0.20515 0.38252 0.0
C3786 C 0.47786 0.21059 0.36394 0.0
C3787 C 0.46343 0.20457 0.345 0.0
C3788 C 0.48118 0.15605 0.34211 0.0
C3789 C 0.48195 0.1855 0.35008 0.0
C3790 C 0.48232 0.14161 0.35361 0.0
C3791 C 0.49006 0.14331 0.38018 0.0
C3792 C 0.48755 0.17217 0.35756 0.0
C3793 C 0.49781 0.16023 0.39368 0.0
C3794 C 0.4872 0.20107 0.36653 0.0
C3795 C 0.4599 0.19014 0.32702 0.0
N3796 N 0.49604 0.17388 0.38248 0.0
N3797 N 0.46888 0.18091 0.33031 0.0
H3798 H 0.67331 0.49622 0.76249 0.0
H3799 H 0.59392 0.47105 0.86979 0.0
H3800 H 0.67486 0.53025 0.83084 0.0
H3801 H 0.58916 0.44002 0.79546 0.0
H3802 H 0.62665 0.48718 0.86466 0.0
H3803 H 0.64636 0.47093 0.78291 0.0
C3804 C 0.66827 0.49829 0.78221 0.0
C3805 C 0.67614 0.51551 0.79472 0.0
C3806 C 0.61852 0.47664 0.84971 0.0
C3807 C 0.64505 0.48662 0.81783 0.0
C3808 C 0.59981 0.46739 0.85262 0.0
C3809 C 0.58882 0.45453 0.83255 0.0
C3810 C 0.62629 0.47334 0.82613 0.0
C3811 C 0.59716 0.45007 0.81112 0.0
C3812 C 0.6528 0.48382 0.79376 0.0
C3813 C 0.66893 0.51734 0.82013 0.0
N3814 N 0.61545 0.45981 0.80805 0.0
N3815 N 0.6536 0.50313 0.83062 0.0
H3816 H 0.49536 0.17409 0.76053 0.0
H3817 H 0.52065 0.11922 0.86658 0.0
H3818 H 0.46198 0.14267 0.83012 0.0
H3819 H 0.55194 0.14619 0.79282 0.0
H3820 H 0.50427 0.1356 0.8616 0.0
H3821 H 0.52051 0.17176 0.77992 0.0
C3822 C 0.49342 0.16708 0.78031 0.0
C3823 C 0.47638 0.15823 0.79347 0.0
C3824 C 0.51489 0.13819 0.84671 0.0
C3825 C 0.50512 0.15522 0.81541 0.0
C3826 C 0.52427 0.12884 0.84954 0.0
C3827 C 0.53735 0.13104 0.82966 0.0
C3828 C 0.51826 0.14947 0.82338 0.0
C3829 C 0.54175 0.14392 0.80837 0.0
C3830 C 0.50781 0.16567 0.79126 0.0
C3831 C 0.47472 0.14927 0.81891 0.0
N3832 N 0.5319 0.15237 0.80537 0.0
N3833 N 0.48883 0.14775 0.82882 0.0
H3834 H 0.87067 0.39827 0.86961 0.0
H3835 H 0.81896 0.31996 0.75949 0.0
H3836 H 0.84622 0.40382 0.79374 0.0
H3837 H 0.84959 0.31748 0.82982 0.0
H3838 H 0.82029 0.34677 0.77984 0.0
H3839 H 0.85422 0.36559 0.86363 0.0
C3840 C 0.86149 0.39257 0.85197 0.0
C3841 C 0.86014 0.4038 0.83174 0.0
C3842 C 0.82642 0.34018 0.79111 0.0
C3843 C 0.84169 0.36636 0.82433 0.0
C3844 C 0.8256 0.32476 0.77959 0.0
C3845 C 0.83454 0.31665 0.79269 0.0
C3846 C 0.8364 0.34766 0.81575 0.0
C3847 C 0.84298 0.3236 0.8186 0.0
C3848 C 0.85215 0.37388 0.84854 0.0
C3849 C 0.84787 0.39566 0.80959 0.0
N3850 N 0.84395 0.33888 0.82905 0.0
N3851 N 0.83943 0.3774 0.80608 0.0
H3852 H 0.51158 0.39982 0.36481 0.0
H3853 H 0.49196 0.31792 0.26771 0.0
H3854 H 0.55039 0.39986 0.30663 0.0
H3855 H 0.45439 0.31642 0.33004 0.0
H3856 H 0.516 0.34461 0.29007 0.0
H3857 H 0.49364 0.36704 0.36094 0.0
C3858 C 0.51645 0.39288 0.35142 0.0
C3859 C 0.53219 0.40259 0.33525 0.0
C3860 C 0.50258 0.33829 0.29921 0.0
C3861 C 0.51154 0.36504 0.33044 0.0
C3862 C 0.48875 0.32286 0.28654 0.0
C3863 C 0.47088 0.315 0.2966 0.0
C3864 C 0.49854 0.34623 0.32176 0.0
C3865 C 0.46778 0.32234 0.32094 0.0
C3866 C 0.50621 0.37412 0.34932 0.0
C3867 C 0.53813 0.39289 0.31898 0.0
N3868 N 0.48139 0.33775 0.33235 0.0
N3869 N 0.52756 0.37463 0.31647 0.0
H3870 H 0.67599 0.17541 0.26947 0.0
H3871 H 0.59515 0.11295 0.36809 0.0
H3872 H 0.67785 0.13926 0.33125 0.0
H3873 H 0.59352 0.14934 0.30676 0.0
H3874 H 0.62799 0.12894 0.36468 0.0
H3875 H 0.6495 0.17284 0.29249 0.0
C3876 C 0.67117 0.16726 0.28833 0.0
C3877 C 0.67901 0.15716 0.298 0.0
C3878 C 0.62053 0.13366 0.35227 0.0
C3879 C 0.64806 0.1537 0.32392 0.0
C3880 C 0.60175 0.12449 0.35412 0.0
C3881 C 0.5916 0.12945 0.33688 0.0
C3882 C 0.62921 0.14765 0.33259 0.0
C3883 C 0.60084 0.14482 0.31991 0.0
C3884 C 0.65586 0.16572 0.30138 0.0
C3885 C 0.6719 0.14678 0.32243 0.0
N3886 N 0.61916 0.15314 0.31766 0.0
N3887 N 0.6566 0.14502 0.33422 0.0
H3888 H 0.84397 0.43939 0.29752 0.0
H3889 H 0.84736 0.53093 0.33639 0.0
H3890 H 0.87215 0.4729 0.36885 0.0
H3891 H 0.82001 0.49853 0.26368 0.0
H3892 H 0.84886 0.50524 0.35607 0.0
H3893 H 0.8274 0.45585 0.29258 0.0
C3894 C 0.84634 0.44989 0.31254 0.0
C3895 C 0.85983 0.45519 0.33305 0.0
C3896 C 0.8422 0.50362 0.33605 0.0
C3897 C 0.84117 0.47411 0.32747 0.0
C3898 C 0.84143 0.51832 0.3248 0.0
C3899 C 0.83396 0.51699 0.29813 0.0
C3900 C 0.83579 0.48764 0.3202 0.0
C3901 C 0.82604 0.5002 0.28426 0.0
C3902 C 0.83692 0.45931 0.30971 0.0
C3903 C 0.86222 0.46872 0.3522 0.0
N3904 N 0.82751 0.4863 0.29517 0.0
N3905 N 0.85323 0.47792 0.34864 0.0
H3906 H 0.64853 0.13045 0.84509 0.0
H3907 H 0.7363 0.22332 0.8787 0.0
H3908 H 0.65365 0.16488 0.91506 0.0
H3909 H 0.73086 0.18796 0.80997 0.0
H3910 H 0.7033 0.20695 0.8839 0.0
H3911 H 0.67538 0.15572 0.82387 0.0
C3912 C 0.65517 0.14341 0.85575 0.0
C3913 C 0.64916 0.14546 0.88213 0.0
C3914 C 0.70932 0.20305 0.86726 0.0
C3915 C 0.67994 0.17433 0.85831 0.0
C3916 C 0.72815 0.21242 0.86429 0.0
C3917 C 0.73629 0.20656 0.84453 0.0
C3918 C 0.69875 0.18775 0.85042 0.0
C3919 C 0.72513 0.19254 0.82611 0.0
C3920 C 0.67043 0.15787 0.84362 0.0
C3921 C 0.65793 0.16265 0.89476 0.0
N3922 N 0.70697 0.18341 0.82982 0.0
N3923 N 0.67312 0.17632 0.88303 0.0
H3924 H 0.81044 0.54639 0.81126 0.0
H3925 H 0.86476 0.5118 0.84065 0.0
H3926 H 0.77503 0.51283 0.87744 0.0
H3927 H 0.83258 0.49139 0.91578 0.0
H3928 H 0.84045 0.51469 0.81895 0.0
H3929 H 0.82709 0.53051 0.81421 0.0
C3930 C 0.80597 0.53538 0.82617 0.0
C3931 C 0.79163 0.53125 0.84467 0.0
C3932 C 0.83862 0.5097 0.84024 0.0
C3933 C 0.81077 0.51265 0.84829 0.0
C3934 C 0.85249 0.50788 0.85247 0.0
C3935 C 0.85084 0.50186 0.88023 0.0
C3936 C 0.82332 0.50611 0.85638 0.0
C3937 C 0.83448 0.49636 0.89441 0.0
C3938 C 0.81546 0.52609 0.82773 0.0
C3939 C 0.7862 0.51663 0.86309 0.0
N3940 N 0.82153 0.49901 0.88256 0.0
N3941 N 0.79606 0.50811 0.86488 0.0
H3942 H 0.47362 0.34716 0.84636 0.0
H3943 H 0.4816 0.25976 0.87135 0.0
H3944 H 0.50561 0.34159 0.91165 0.0
H3945 H 0.44452 0.26349 0.81382 0.0
H3946 H 0.49826 0.29287 0.87515 0.0
H3947 H 0.47083 0.3202 0.82351 0.0
C3948 C 0.48029 0.34043 0.85564 0.0
C3949 C 0.48938 0.34631 0.88136 0.0
C3950 C 0.48668 0.28642 0.86127 0.0
C3951 C 0.4862 0.31548 0.85551 0.0
C3952 C 0.47718 0.26755 0.85914 0.0
C3953 C 0.46129 0.2589 0.84313 0.0
C3954 C 0.48014 0.29655 0.84734 0.0
C3955 C 0.45635 0.26961 0.82724 0.0
C3956 C 0.47879 0.32511 0.84253 0.0
C3957 C 0.49828 0.33745 0.89199 0.0
N3958 N 0.46554 0.28785 0.83013 0.0
N3959 N 0.49613 0.32224 0.87935 0.0
H3960 H 0.499 0.6769 0.74536 0.0
H3961 H 0.43749 0.59217 0.70121 0.0
H3962 H 0.53322 0.67886 0.67701 0.0
H3963 H 0.48278 0.59628 0.65457 0.0
H3964 H 0.45317 0.6252 0.70448 0.0
H3965 H 0.47432 0.64961 0.72598 0.0
C3966 C 0.5012 0.67194 0.72567 0.0
C3967 C 0.51842 0.68007 0.71312 0.0
C3968 C 0.45976 0.61892 0.69365 0.0
C3969 C 0.48991 0.64828 0.69069 0.0
C3970 C 0.4507 0.60004 0.69162 0.0
C3971 C 0.45919 0.59148 0.6787 0.0
C3972 C 0.47749 0.62914 0.68302 0.0
C3973 C 0.47601 0.60228 0.66571 0.0
C3974 C 0.48693 0.65617 0.71449 0.0
C3975 C 0.52035 0.67276 0.68786 0.0
N3976 N 0.48471 0.6205 0.66861 0.0
N3977 N 0.50638 0.65709 0.6778 0.0
H3978 H 0.31625 0.84856 0.67752 0.0
H3979 H 0.40468 0.84677 0.71804 0.0
H3980 H 0.32073 0.82058 0.74984 0.0
H3981 H 0.39864 0.87267 0.64427 0.0
H3982 H 0.37166 0.82969 0.72294 0.0
H3983 H 0.34354 0.85017 0.65808 0.0
C3984 C 0.32284 0.84252 0.68906 0.0
C3985 C 0.31651 0.83482 0.71555 0.0
C3986 C 0.37757 0.83879 0.70527 0.0
C3987 C 0.34784 0.83684 0.69384 0.0
C3988 C 0.39642 0.8485 0.70247 0.0
C3989 C 0.40439 0.86151 0.68122 0.0
C3990 C 0.36681 0.84232 0.6868 0.0
C3991 C 0.39306 0.86309 0.66144 0.0
C3992 C 0.33837 0.84335 0.67796 0.0
C3993 C 0.32527 0.82679 0.7294 0.0
N3994 N 0.37489 0.85389 0.665 0.0
N3995 N 0.34073 0.82837 0.71868 0.0
H3996 H 0.14449 0.46411 0.67768 0.0
H3997 H 0.14824 0.5563 0.7135 0.0
H3998 H 0.17304 0.49794 0.74855 0.0
H3999 H 0.11745 0.52037 0.64586 0.0
H4000 H 0.16517 0.54016 0.71795 0.0
H4001 H 0.14242 0.48931 0.65727 0.0
C4002 C 0.15057 0.47694 0.68869 0.0
C4003 C 0.15851 0.4788 0.71512 0.0
C4004 C 0.15498 0.53608 0.70172 0.0
C4005 C 0.156 0.50758 0.69225 0.0
C4006 C 0.14534 0.5453 0.69918 0.0
C4007 C 0.13106 0.53926 0.67992 0.0
C4008 C 0.15018 0.52076 0.6849 0.0
C4009 C 0.128 0.52512 0.66162 0.0
C4010 C 0.14946 0.49135 0.67704 0.0
C4011 C 0.16662 0.49585 0.72821 0.0
N4012 N 0.13725 0.51617 0.66486 0.0
N4013 N 0.1648 0.50946 0.71695 0.0
H4014 H 0.26042 0.81056 0.20078 0.0
H4015 H 0.34169 0.8308 0.1016 0.0
H4016 H 0.25806 0.77484 0.13465 0.0
H4017 H 0.34307 0.86705 0.16615 0.0
H4018 H 0.31478 0.80626 0.12309 0.0
H4019 H 0.29327 0.82663 0.19812 0.0
C4020 C 0.26685 0.80595 0.18587 0.0
C4021 C 0.25652 0.79173 0.16723 0.0
C4022 C 0.32116 0.81948 0.13293 0.0
C4023 C 0.29416 0.81033 0.16372 0.0
C4024 C 0.33666 0.83355 0.12076 0.0
C4025 C 0.34442 0.8512 0.13168 0.0
C4026 C 0.31318 0.82312 0.15589 0.0
C4027 C 0.33717 0.85382 0.15648 0.0
C4028 C 0.28564 0.81512 0.18444 0.0
C4029 C 0.26555 0.78599 0.14899 0.0
N4030 N 0.32173 0.84001 0.16743 0.0
N4031 N 0.28391 0.79561 0.14719 0.0
H4032 H 0.18171 0.44866 0.20178 0.0
H4033 H 0.16102 0.50859 0.10076 0.0
H4034 H 0.2174 0.48174 0.13544 0.0
H4035 H 0.12491 0.47441 0.16602 0.0
H4036 H 0.18556 0.50635 0.12245 0.0
H4037 H 0.16539 0.46519 0.19841 0.0
C4038 C 0.18625 0.45958 0.18668 0.0
C4039 C 0.20052 0.46345 0.16815 0.0
C4040 C 0.17237 0.49963 0.13238 0.0
C4041 C 0.18166 0.48221 0.16385 0.0
C4042 C 0.15829 0.50097 0.12009 0.0
C4043 C 0.14067 0.49126 0.13119 0.0
C4044 C 0.16879 0.48826 0.15565 0.0
C4045 C 0.13811 0.4816 0.1562 0.0
C4046 C 0.17694 0.46907 0.18484 0.0
C4047 C 0.2062 0.47809 0.14969 0.0
N4048 N 0.15193 0.48005 0.16728 0.0
N4049 N 0.19645 0.48668 0.1475 0.0
H4050 H 0.53869 0.73141 0.2041 0.0
H4051 H 0.4836 0.65188 0.09806 0.0
H4052 H 0.51203 0.73593 0.13012 0.0
H4053 H 0.51569 0.65007 0.16675 0.0
H4054 H 0.48508 0.67869 0.11865 0.0
H4055 H 0.52144 0.69861 0.19998 0.0
C4056 C 0.52894 0.72546 0.18721 0.0
C4057 C 0.52715 0.73637 0.1669 0.0
C4058 C 0.49146 0.67222 0.12956 0.0
C4059 C 0.50773 0.69883 0.16165 0.0
C4060 C 0.49056 0.65681 0.11791 0.0
C4061 C 0.49994 0.64896 0.13039 0.0
C4062 C 0.50197 0.67995 0.15366 0.0
C4063 C 0.50874 0.65602 0.156 0.0
C4064 C 0.51909 0.70672 0.18489 0.0
C4065 C 0.51404 0.72798 0.14591 0.0
N4066 N 0.50983 0.67132 0.16653 0.0
N4067 N 0.50513 0.70964 0.14338 0.0
H4068 H 0.1276 0.64888 0.66805 0.0
H4069 H 0.22123 0.73634 0.63511 0.0
H4070 H 0.16257 0.65397 0.59886 0.0
H4071 H 0.18348 0.73238 0.69894 0.0
H4072 H 0.20493 0.70324 0.6316 0.0
H4073 H 0.15262 0.67595 0.68924 0.0
C4074 C 0.14061 0.65553 0.65756 0.0
C4075 C 0.14286 0.64947 0.63133 0.0
C4076 C 0.20046 0.70963 0.6468 0.0
C4077 C 0.17145 0.68046 0.65518 0.0
C4078 C 0.20976 0.72851 0.64877 0.0
C4079 C 0.20327 0.73707 0.66658 0.0
C4080 C 0.18461 0.69942 0.66267 0.0
C4081 C 0.18857 0.72631 0.6842 0.0
C4082 C 0.15492 0.67092 0.66969 0.0
C4083 C 0.16015 0.65826 0.61901 0.0
N4084 N 0.17954 0.70807 0.68145 0.0
N4085 N 0.17367 0.67354 0.63074 0.0
H4086 H 0.25791 0.48266 0.63386 0.0
H4087 H 0.34535 0.47676 0.66791 0.0
H4088 H 0.26243 0.45178 0.70198 0.0
H4089 H 0.34058 0.50665 0.59847 0.0
H4090 H 0.31812 0.47464 0.68866 0.0
H4091 H 0.29091 0.49893 0.62912 0.0
C4092 C 0.26586 0.4796 0.64822 0.0
C4093 C 0.25744 0.46545 0.66766 0.0
C4094 C 0.32324 0.48198 0.66915 0.0
C4095 C 0.29501 0.48376 0.66225 0.0
C4096 C 0.33872 0.48308 0.65726 0.0
C4097 C 0.345 0.49152 0.63117 0.0
C4098 C 0.31384 0.48908 0.65455 0.0
C4099 C 0.33618 0.49991 0.61857 0.0
C4100 C 0.28469 0.48886 0.64551 0.0
C4101 C 0.26837 0.46222 0.68606 0.0
N4102 N 0.32085 0.49817 0.6301 0.0
N4103 N 0.28656 0.47105 0.68256 0.0
H4104 H 0.51084 0.77271 0.63195 0.0
H4105 H 0.51493 0.8646 0.67072 0.0
H4106 H 0.53912 0.80589 0.70353 0.0
H4107 H 0.48632 0.83151 0.59921 0.0
H4108 H 0.51686 0.8391 0.69027 0.0
H4109 H 0.49442 0.78932 0.62733 0.0
C4110 C 0.51325 0.78315 0.64711 0.0
C4111 C 0.52674 0.78832 0.66759 0.0
C4112 C 0.50983 0.8373 0.67056 0.0
C4113 C 0.50831 0.80749 0.66227 0.0
C4114 C 0.50884 0.85191 0.65936 0.0
C4115 C 0.50081 0.85032 0.63306 0.0
C4116 C 0.50306 0.82114 0.65506 0.0
C4117 C 0.49272 0.83341 0.61952 0.0
C4118 C 0.50393 0.79268 0.64445 0.0
C4119 C 0.52917 0.80179 0.68691 0.0
N4120 N 0.49436 0.8196 0.6304 0.0
N4121 N 0.52033 0.81114 0.68345 0.0
H4122 H 0.31521 0.46563 0.17626 0.0
H4123 H 0.40414 0.55617 0.21306 0.0
H4124 H 0.32058 0.4996 0.24702 0.0
H4125 H 0.39747 0.52314 0.1404 0.0
H4126 H 0.3712 0.54056 0.21837 0.0
H4127 H 0.34244 0.4908 0.1557 0.0
C4128 C 0.32197 0.47847 0.18722 0.0
C4129 C 0.31588 0.48041 0.21361 0.0
C4130 C 0.37694 0.53704 0.20084 0.0
C4131 C 0.34711 0.50917 0.19055 0.0
C4132 C 0.39575 0.546 0.1978 0.0
C4133 C 0.40352 0.54053 0.17681 0.0
C4134 C 0.36601 0.52249 0.18291 0.0
C4135 C 0.39204 0.52744 0.15738 0.0
C4136 C 0.33746 0.49288 0.17546 0.0
C4137 C 0.32487 0.49746 0.22667 0.0
N4138 N 0.37389 0.51862 0.16123 0.0
N4139 N 0.34026 0.51107 0.2153 0.0
H4140 H 0.52701 0.84839 0.17906 0.0
H4141 H 0.43875 0.84899 0.2252 0.0
H4142 H 0.49761 0.82337 0.25515 0.0
H4143 H 0.46507 0.86813 0.145 0.0
H4144 H 0.45573 0.83311 0.23197 0.0
H4145 H 0.50073 0.84975 0.16171 0.0
C4146 C 0.51493 0.84298 0.19191 0.0
C4147 C 0.51457 0.83605 0.21869 0.0
C4148 C 0.4574 0.84038 0.21253 0.0
C4149 C 0.48455 0.83772 0.19931 0.0
C4150 C 0.44764 0.84937 0.20863 0.0
C4151 C 0.4508 0.86018 0.18477 0.0
C4152 C 0.47045 0.84241 0.19251 0.0
C4153 C 0.4624 0.86014 0.16391 0.0
C4154 C 0.49988 0.84365 0.182 0.0
C4155 C 0.49847 0.82889 0.23436 0.0
N4156 N 0.47206 0.85172 0.16849 0.0
N4157 N 0.48423 0.83023 0.22467 0.0
H4158 H 0.16535 0.67154 0.25583 0.0
H4159 H 0.14905 0.59005 0.20777 0.0
H4160 H 0.14212 0.67758 0.17906 0.0
H4161 H 0.11414 0.59601 0.14847 0.0
H4162 H 0.16551 0.62281 0.21453 0.0
H4163 H 0.16432 0.64472 0.2371 0.0
C4164 C 0.1605 0.66742 0.23457 0.0
C4165 C 0.15371 0.67666 0.21894 0.0
C4166 C 0.15421 0.617 0.20012 0.0
C4167 C 0.15271 0.6459 0.19685 0.0
C4168 C 0.14497 0.59829 0.19599 0.0
C4169 C 0.12969 0.5903 0.17863 0.0
C4170 C 0.14775 0.62754 0.18716 0.0
C4171 C 0.12538 0.60158 0.16306 0.0
C4172 C 0.16005 0.65211 0.22367 0.0
C4173 C 0.14725 0.67063 0.19182 0.0
N4174 N 0.1341 0.6196 0.16816 0.0
N4175 N 0.14671 0.65546 0.18172 0.0
H4176 H 0.17964 0.96299 0.31136 0.0
H4177 H 0.17679 0.03106 0.19732 0.0
H4178 H 0.1311 0.95367 0.26888 0.0
H4179 H 0.2236 0.04416 0.24793 0.0
H4180 H 0.16058 0.00131 0.22037 0.0
H4181 H 0.19642 0.99237 0.28755 0.0
C4182 C 0.17243 0.96732 0.29756 0.0
C4183 C 0.15395 0.95586 0.2921 0.0
C4184 C 0.17448 0.0106 0.2262 0.0
C4185 C 0.17313 0.98916 0.26405 0.0
C4186 C 0.18377 0.02743 0.21274 0.0
C4187 C 0.20153 0.03993 0.22067 0.0
C4188 C 0.18304 0.00631 0.24773 0.0
C4189 C 0.20991 0.03478 0.24118 0.0
C4190 C 0.18205 0.98396 0.28364 0.0
C4191 C 0.14537 0.96203 0.27357 0.0
N4192 N 0.20058 0.01843 0.25411 0.0
N4193 N 0.15503 0.97814 0.26007 0.0
H4194 H 0.04376 0.22476 0.26949 0.0
H4195 H 0.95824 0.18154 0.20581 0.0
H4196 H 0.02776 0.17314 0.30748 0.0
H4197 H 0.95398 0.13217 0.23702 0.0
H4198 H 0.98761 0.19871 0.22851 0.0
H4199 H 0.01507 0.21152 0.24465 0.0
C4200 C 0.03382 0.21068 0.27319 0.0
C4201 C 0.03791 0.20007 0.29085 0.0
C4202 C 0.98065 0.18413 0.23003 0.0
C4203 C 0.00485 0.18443 0.26204 0.0
C4204 C 0.96383 0.17431 0.21674 0.0
C4205 C 0.95377 0.15543 0.21935 0.0
C4206 C 0.98753 0.17496 0.24595 0.0
C4207 C 0.96138 0.14674 0.23443 0.0
C4208 C 0.01737 0.20299 0.25882 0.0
C4209 C 0.02491 0.18181 0.29442 0.0
N4210 N 0.97771 0.15655 0.24724 0.0
N4211 N 0.00901 0.17454 0.27998 0.0
H4212 H 0.77684 0.83087 0.24198 0.0
H4213 H 0.82677 0.77571 0.26555 0.0
H4214 H 0.8043 0.83542 0.32041 0.0
H4215 H 0.83455 0.80497 0.18799 0.0
H4216 H 0.81143 0.79078 0.28533 0.0
H4217 H 0.79108 0.81488 0.22171 0.0
C4218 C 0.78602 0.82875 0.25499 0.0
C4219 C 0.78984 0.83522 0.28287 0.0
C4220 C 0.81652 0.79388 0.26401 0.0
C4221 C 0.80538 0.81586 0.25977 0.0
C4222 C 0.82539 0.78539 0.25262 0.0
C4223 C 0.83266 0.78955 0.22524 0.0
C4224 C 0.81421 0.80619 0.24771 0.0
C4225 C 0.82941 0.80146 0.2092 0.0
C4226 C 0.794 0.81945 0.2433 0.0
C4227 C 0.80101 0.83091 0.29887 0.0
N4228 N 0.82042 0.80939 0.22069 0.0
N4229 N 0.80837 0.82146 0.28709 0.0
H4230 H 0.86108 0.0423 0.74473 0.0
H4231 H 0.76639 0.95123 0.76893 0.0
H4232 H 0.8112 0.03258 0.70659 0.0
H4233 H 0.81573 0.96294 0.81102 0.0
H4234 H 0.78223 0.98107 0.7465 0.0
H4235 H 0.84481 0.0128 0.7678 0.0
C4236 C 0.84672 0.03377 0.74087 0.0
C4237 C 0.83747 0.03988 0.72374 0.0
C4238 C 0.78958 0.97727 0.76091 0.0
C4239 C 0.81862 0.00618 0.75055 0.0
C4240 C 0.78049 0.96036 0.77394 0.0
C4241 C 0.78978 0.95482 0.79205 0.0
C4242 C 0.80818 0.98866 0.76573 0.0
C4243 C 0.80808 0.96688 0.7975 0.0
C4244 C 0.8374 0.017 0.75424 0.0
C4245 C 0.81887 0.02831 0.71941 0.0
N4246 N 0.81674 0.9832 0.7842 0.0
N4247 N 0.81002 0.01207 0.73292 0.0
H4248 H 0.03042 0.81414 0.81201 0.0
H4249 H 0.96218 0.81803 0.69949 0.0
H4250 H 0.03963 0.86312 0.77111 0.0
H4251 H 0.94978 0.77035 0.74735 0.0
H4252 H 0.99174 0.83425 0.72306 0.0
H4253 H 0.00102 0.79758 0.78828 0.0
C4254 C 0.02605 0.82149 0.79861 0.0
C4255 C 0.03748 0.84003 0.79352 0.0
C4256 C 0.98265 0.82017 0.72819 0.0
C4257 C 0.00416 0.82111 0.76556 0.0
C4258 C 0.96593 0.81089 0.71443 0.0
C4259 C 0.95368 0.79287 0.72144 0.0
C4260 C 0.98708 0.81133 0.74908 0.0
C4261 C 0.95896 0.78426 0.74134 0.0
C4262 C 0.00939 0.812 0.78473 0.0
C4263 C 0.03126 0.8488 0.7755 0.0
N4264 N 0.97521 0.79357 0.75457 0.0
N4265 N 0.01515 0.83927 0.76201 0.0
H4266 H 0.17225 0.13724 0.70919 0.0
H4267 H 0.18236 0.2198 0.80404 0.0
H4268 H 0.22367 0.18289 0.73209 0.0
H4269 H 0.1312 0.17587 0.77579 0.0
H4270 H 0.19784 0.20589 0.77982 0.0
H4271 H 0.15691 0.15129 0.73327 0.0
C4272 C 0.18026 0.1505 0.71858 0.0
C4273 C 0.19917 0.15915 0.71823 0.0
C4274 C 0.18321 0.19917 0.7792 0.0
C4275 C 0.18189 0.17499 0.74682 0.0
C4276 C 0.17439 0.20696 0.79339 0.0
C4277 C 0.1555 0.19886 0.79204 0.0
C4278 C 0.17303 0.18316 0.76361 0.0
C4279 C 0.14579 0.18246 0.77741 0.0
C4280 C 0.17156 0.15842 0.73267 0.0
C4281 C 0.20903 0.17603 0.73148 0.0
N4282 N 0.15465 0.17521 0.76368 0.0
N4283 N 0.20029 0.18337 0.74539 0.0
H4284 H 0.83384 0.27725 0.57834 0.0
H4285 H 0.88394 0.38291 0.59947 0.0
H4286 H 0.8265 0.3 0.65489 0.0
H4287 H 0.85596 0.35916 0.52177 0.0
H4288 H 0.87081 0.35278 0.61997 0.0
H4289 H 0.84989 0.30749 0.55786 0.0
C4290 C 0.83551 0.28857 0.59091 0.0
C4291 C 0.8281 0.28588 0.61816 0.0
C4292 C 0.86759 0.3542 0.59845 0.0
C4293 C 0.84734 0.32071 0.59494 0.0
C4294 C 0.87495 0.3714 0.58665 0.0
C4295 C 0.87049 0.37375 0.55904 0.0
C4296 C 0.85618 0.33905 0.58233 0.0
C4297 C 0.85961 0.35811 0.54317 0.0
C4298 C 0.84478 0.30582 0.57913 0.0
C4299 C 0.83171 0.30131 0.63378 0.0
N4300 N 0.85278 0.34139 0.55508 0.0
N4301 N 0.84105 0.31809 0.62191 0.0
H4302 H 0.69633 0.51025 0.64612 0.0
H4303 H 0.62612 0.51503 0.5385 0.0
H4304 H 0.7072 0.55884 0.60235 0.0
H4305 H 0.61789 0.46574 0.577 0.0
H4306 H 0.65567 0.5316 0.56193 0.0
H4307 H 0.6665 0.49415 0.62337 0.0
C4308 C 0.69218 0.5176 0.63231 0.0
C4309 C 0.70407 0.53587 0.62624 0.0
C4310 C 0.64747 0.51712 0.56505 0.0
C4311 C 0.67033 0.51756 0.59946 0.0
C4312 C 0.63072 0.50764 0.55135 0.0
C4313 C 0.61953 0.48899 0.55583 0.0
C4314 C 0.65305 0.50788 0.58336 0.0
C4315 C 0.62605 0.48014 0.57312 0.0
C4316 C 0.6753 0.5084 0.619 0.0
C4317 C 0.69828 0.54475 0.60769 0.0
N4318 N 0.64226 0.48965 0.58637 0.0
N4319 N 0.68188 0.53552 0.59485 0.0
H4320 H 0.48183 0.19558 0.60257 0.0
H4321 H 0.47838 0.10096 0.57807 0.0
H4322 H 0.44093 0.14556 0.6394 0.0
H4323 H 0.5149 0.15006 0.53435 0.0
H4324 H 0.46435 0.11671 0.6008 0.0
H4325 H 0.495 0.17925 0.57951 0.0
C4326 C 0.47581 0.18116 0.60617 0.0
C4327 C 0.46026 0.17191 0.62292 0.0
C4328 C 0.47525 0.12401 0.58596 0.0
C4329 C 0.47507 0.15298 0.59607 0.0
C4330 C 0.48311 0.11498 0.57278 0.0
C4331 C 0.49763 0.12421 0.5541 0.0
C4332 C 0.48215 0.14253 0.58077 0.0
C4333 C 0.50354 0.14243 0.5483 0.0
C4334 C 0.48323 0.17181 0.59278 0.0
C4335 C 0.45301 0.15324 0.62688 0.0
N4336 N 0.49589 0.15104 0.56178 0.0
N4337 N 0.4604 0.14435 0.61338 0.0
H4338 H 0.46946 0.3002 0.15738 0.0
H4339 H 0.49927 0.36047 0.02109 0.0
H4340 H 0.44167 0.27844 0.07883 0.0
H4341 H 0.4944 0.38254 0.10016 0.0
H4342 H 0.48191 0.32993 0.04142 0.0
H4343 H 0.48281 0.3308 0.13717 0.0
C4344 C 0.46607 0.30178 0.13606 0.0
C4345 C 0.45481 0.28656 0.11963 0.0
C4346 C 0.48472 0.34157 0.05418 0.0
C4347 C 0.47039 0.32141 0.09625 0.0
C4348 C 0.49455 0.35898 0.04256 0.0
C4349 C 0.49888 0.37427 0.05907 0.0
C4350 C 0.47946 0.33946 0.08258 0.0
C4351 C 0.4922 0.37133 0.08686 0.0
C4352 C 0.47375 0.31922 0.1245 0.0
C4353 C 0.45088 0.2896 0.09204 0.0
N4354 N 0.48317 0.35438 0.09785 0.0
N4355 N 0.45889 0.30657 0.08109 0.0
H4356 H 0.62725 0.10966 0.03831 0.0
H4357 H 0.69793 0.18865 0.14031 0.0
H4358 H 0.61874 0.15155 0.07276 0.0
H4359 H 0.70732 0.14756 0.10516 0.0
H4360 H 0.66829 0.17453 0.11699 0.0
H4361 H 0.65685 0.12347 0.06177 0.0
C4362 C 0.63184 0.12203 0.05022 0.0
C4363 C 0.6206 0.12953 0.05355 0.0
C4364 C 0.67669 0.16841 0.11468 0.0
C4365 C 0.65413 0.1451 0.0811 0.0
C4366 C 0.69345 0.17633 0.12833 0.0
C4367 C 0.70483 0.16903 0.12495 0.0
C4368 C 0.67135 0.15316 0.09739 0.0
C4369 C 0.69873 0.15338 0.10855 0.0
C4370 C 0.6486 0.12976 0.06394 0.0
C4371 C 0.62702 0.14535 0.06969 0.0
N4372 N 0.68245 0.146 0.09527 0.0
N4373 N 0.64327 0.15253 0.08297 0.0
H4374 H 0.85106 0.56077 0.11049 0.0
H4375 H 0.84208 0.46534 0.06953 0.0
H4376 H 0.80661 0.50921 0.13603 0.0
H4377 H 0.88659 0.51651 0.04252 0.0
H4378 H 0.82866 0.4813 0.0931 0.0
H4379 H 0.86494 0.54514 0.08675 0.0
C4380 C 0.84453 0.54615 0.11174 0.0
C4381 C 0.8279 0.53621 0.12565 0.0
C4382 C 0.84125 0.4891 0.08179 0.0
C4383 C 0.84322 0.5182 0.09765 0.0
C4384 C 0.8488 0.47997 0.06808 0.0
C4385 C 0.86537 0.48963 0.05391 0.0
C4386 C 0.85041 0.50811 0.08161 0.0
C4387 C 0.87366 0.50857 0.0529 0.0
C4388 C 0.85229 0.53722 0.09788 0.0
C4389 C 0.81963 0.51731 0.12599 0.0
N4390 N 0.86617 0.51721 0.0668 0.0
N4391 N 0.82733 0.50891 0.11208 0.0
H4392 H 0.51588 0.62848 0.97452 0.0
H4393 H 0.51151 0.69858 0.8663 0.0
H4394 H 0.46658 0.62077 0.93679 0.0
H4395 H 0.5595 0.71034 0.91268 0.0
H4396 H 0.4954 0.66878 0.88919 0.0
H4397 H 0.53251 0.65815 0.95142 0.0
C4398 C 0.5085 0.63322 0.96192 0.0
C4399 C 0.48983 0.62215 0.95754 0.0
C4400 C 0.50952 0.67778 0.89413 0.0
C4401 C 0.50879 0.65577 0.93037 0.0
C4402 C 0.51874 0.69464 0.88076 0.0
C4403 C 0.53682 0.70676 0.88753 0.0
C4404 C 0.5185 0.67306 0.91436 0.0
C4405 C 0.54555 0.70125 0.90684 0.0
C4406 C 0.51802 0.65004 0.94842 0.0
C4407 C 0.481 0.62884 0.94058 0.0
N4408 N 0.53631 0.68484 0.91967 0.0
N4409 N 0.49055 0.64509 0.92747 0.0
H4410 H 0.37467 0.89262 0.93622 0.0
H4411 H 0.28382 0.79827 0.90847 0.0
H4412 H 0.36251 0.84273 0.97696 0.0
H4413 H 0.29421 0.84859 0.87109 0.0
H4414 H 0.31306 0.81421 0.93232 0.0
H4415 H 0.34515 0.87705 0.91281 0.0
C4416 C 0.3655 0.87845 0.94075 0.0
C4417 C 0.37084 0.86894 0.95876 0.0
C4418 C 0.30908 0.82179 0.91873 0.0
C4419 C 0.33735 0.85085 0.9313 0.0
C4420 C 0.29246 0.81266 0.9049 0.0
C4421 C 0.28659 0.82212 0.88777 0.0
C4422 C 0.32001 0.84059 0.91553 0.0
C4423 C 0.29829 0.84075 0.88389 0.0
C4424 C 0.34877 0.86951 0.92714 0.0
C4425 C 0.35873 0.85055 0.96354 0.0
N4426 N 0.31438 0.84941 0.89785 0.0
N4427 N 0.34259 0.84205 0.94971 0.0
H4428 H 0.15181 0.52351 0.96914 0.0
H4429 H 0.14217 0.4406 0.87568 0.0
H4430 H 0.10045 0.47789 0.94591 0.0
H4431 H 0.19319 0.48524 0.90284 0.0
H4432 H 0.12648 0.45441 0.89958 0.0
H4433 H 0.16721 0.50942 0.94541 0.0
C4434 C 0.14382 0.51024 0.95974 0.0
C4435 C 0.12491 0.50162 0.95991 0.0
C4436 C 0.14113 0.46131 0.90002 0.0
C4437 C 0.14229 0.48571 0.93173 0.0
C4438 C 0.15006 0.45356 0.88602 0.0
C4439 C 0.16898 0.4619 0.88714 0.0
C4440 C 0.15122 0.47751 0.91519 0.0
C4441 C 0.17858 0.47846 0.90139 0.0
C4442 C 0.15256 0.5023 0.94585 0.0
C4443 C 0.11509 0.48474 0.94665 0.0
N4444 N 0.16962 0.48566 0.91494 0.0
N4445 N 0.12387 0.47736 0.93296 0.0
H4446 H 0.19423 0.70665 0.39465 0.0
H4447 H 0.10132 0.6238 0.45296 0.0
H4448 H 0.14226 0.7019 0.37979 0.0
H4449 H 0.1531 0.627 0.46066 0.0
H4450 H 0.11597 0.65307 0.42833 0.0
H4451 H 0.17928 0.67744 0.41887 0.0
C4452 C 0.17959 0.69915 0.3959 0.0
C4453 C 0.16942 0.7065 0.38489 0.0
C4454 C 0.12419 0.64753 0.43577 0.0
C4455 C 0.15217 0.67337 0.41358 0.0
C4456 C 0.11588 0.631 0.4502 0.0
C4457 C 0.12614 0.62328 0.45932 0.0
C4458 C 0.14289 0.65629 0.43028 0.0
C4459 C 0.14483 0.63275 0.45443 0.0
C4460 C 0.17105 0.68259 0.41002 0.0
C4461 C 0.15052 0.69649 0.38757 0.0
N4462 N 0.15259 0.64871 0.44019 0.0
N4463 N 0.14249 0.68049 0.40187 0.0
H4464 H 0.36875 0.47888 0.46137 0.0
H4465 H 0.28944 0.49146 0.39444 0.0
H4466 H 0.37106 0.53036 0.45549 0.0
H4467 H 0.29234 0.4428 0.38459 0.0
H4468 H 0.31867 0.50564 0.41876 0.0
H4469 H 0.3393 0.46456 0.43728 0.0
C4470 C 0.36274 0.48702 0.45575 0.0
C4471 C 0.37209 0.50572 0.46078 0.0
C4472 C 0.31309 0.49195 0.41094 0.0
C4473 C 0.33885 0.48968 0.4325 0.0
C4474 C 0.29654 0.48397 0.39679 0.0
C4475 C 0.28874 0.46612 0.38707 0.0
C4476 C 0.32176 0.48187 0.41594 0.0
C4477 C 0.29816 0.45674 0.39128 0.0
C4478 C 0.34612 0.47894 0.44161 0.0
C4479 C 0.36407 0.51584 0.45235 0.0
N4480 N 0.31412 0.46467 0.40563 0.0
N4481 N 0.34795 0.50772 0.43858 0.0
H4482 H 0.46331 0.84083 0.44002 0.0
H4483 H 0.55914 0.8487 0.40731 0.0
H4484 H 0.51368 0.884 0.47229 0.0
H4485 H 0.50904 0.80911 0.36926 0.0
H4486 H 0.54314 0.86214 0.43105 0.0
H4487 H 0.47989 0.82829 0.41592 0.0
C4488 C 0.47787 0.84745 0.44247 0.0
C4489 C 0.48714 0.86345 0.45821 0.0
C4490 C 0.53565 0.85071 0.41718 0.0
C4491 C 0.50632 0.84941 0.43007 0.0
C4492 C 0.54483 0.8432 0.40336 0.0
C4493 C 0.53538 0.82801 0.386 0.0
C4494 C 0.51683 0.84275 0.41394 0.0
C4495 C 0.5168 0.82104 0.38209 0.0
C4496 C 0.48736 0.84041 0.42845 0.0
C4497 C 0.506 0.87154 0.46061 0.0
N4498 N 0.5081 0.82837 0.39615 0.0
N4499 N 0.515 0.86451 0.44649 0.0
H4500 H 0.22287 0.10846 0.90196 0.0
H4501 H 0.25714 0.14938 0.74804 0.0
H4502 H 0.27295 0.15791 0.88535 0.0
H4503 H 0.20319 0.10603 0.76566 0.0
H4504 H 0.26532 0.1489 0.79727 0.0
H4505 H 0.21705 0.10455 0.85142 0.0
C4506 C 0.23261 0.11855 0.88776 0.0
C4507 C 0.24838 0.13362 0.89807 0.0
C4508 C 0.25181 0.13917 0.79024 0.0
C4509 C 0.24192 0.12901 0.84004 0.0
C4510 C 0.24727 0.13921 0.76204 0.0
C4511 C 0.22954 0.12758 0.75283 0.0
C4512 C 0.2385 0.12742 0.80928 0.0
C4513 C 0.21706 0.11505 0.77197 0.0
C4514 C 0.22931 0.11625 0.85887 0.0
C4515 C 0.26054 0.14616 0.87851 0.0
N4516 N 0.2217 0.11544 0.79938 0.0
N4517 N 0.25706 0.14356 0.85051 0.0
H4518 H 0.84012 0.12164 0.88836 0.0
H4519 H 0.89064 0.10161 0.76399 0.0
H4520 H 0.88854 0.11821 0.89949 0.0
H4521 H 0.8428 0.10562 0.75147 0.0
H4522 H 0.89236 0.11184 0.81248 0.0
H4523 H 0.84225 0.11854 0.83765 0.0
C4524 C 0.85118 0.1202 0.88021 0.0
C4525 C 0.86411 0.12008 0.89839 0.0
C4526 C 0.88172 0.11095 0.79901 0.0
C4527 C 0.86675 0.11675 0.84012 0.0
C4528 C 0.88095 0.10541 0.7712 0.0
C4529 C 0.86674 0.10307 0.75368 0.0
C4530 C 0.868 0.11388 0.80953 0.0
C4531 C 0.85416 0.10761 0.76421 0.0
C4532 C 0.85244 0.11854 0.85118 0.0
C4533 C 0.87819 0.11827 0.88644 0.0
N4534 N 0.85491 0.11253 0.79161 0.0
N4535 N 0.87909 0.11664 0.85816 0.0
H4536 H 0.8854 0.73606 0.74937 0.0
H4537 H 0.87805 0.77417 0.89968 0.0
H4538 H 0.89503 0.79006 0.76298 0.0
H4539 H 0.87201 0.72129 0.88699 0.0
H4540 H 0.88085 0.77898 0.8489 0.0
H4541 H 0.87564 0.72866 0.79842 0.0
C4542 C 0.88463 0.74608 0.76238 0.0
C4543 C 0.89072 0.7636 0.75209 0.0
C4544 C 0.87886 0.7663 0.85722 0.0
C4545 C 0.88042 0.75557 0.80847 0.0
C4546 C 0.87735 0.76357 0.88629 0.0
C4547 C 0.87489 0.74733 0.8978 0.0
C4548 C 0.87786 0.7527 0.83938 0.0
C4549 C 0.874 0.73408 0.87921 0.0
C4550 C 0.87942 0.74199 0.79052 0.0
C4551 C 0.89012 0.77632 0.77006 0.0
N4552 N 0.87551 0.73707 0.851 0.0
N4553 N 0.88531 0.77214 0.79745 0.0
H4554 H 0.14921 0.25893 0.76207 0.0
H4555 H 0.10174 0.22154 0.61282 0.0
H4556 H 0.10275 0.20609 0.74929 0.0
H4557 H 0.14926 0.27407 0.62417 0.0
H4558 H 0.10027 0.21693 0.66353 0.0
H4559 H 0.1471 0.26651 0.71299 0.0
C4560 C 0.13808 0.24923 0.74924 0.0
C4561 C 0.12595 0.23197 0.75979 0.0
C4562 C 0.11101 0.22949 0.65497 0.0
C4563 C 0.12388 0.24018 0.7034 0.0
C4564 C 0.11192 0.23211 0.62591 0.0
C4565 C 0.12571 0.24819 0.61401 0.0
C4566 C 0.12398 0.24302 0.67248 0.0
C4567 C 0.13843 0.2614 0.63227 0.0
C4568 C 0.13707 0.25342 0.72109 0.0
C4569 C 0.11217 0.21964 0.74203 0.0
N4570 N 0.13728 0.25851 0.66052 0.0
N4571 N 0.11164 0.2239 0.71466 0.0
H4572 H 0.72676 0.89057 0.62177 0.0
H4573 H 0.78788 0.89514 0.74971 0.0
H4574 H 0.76974 0.87819 0.6116 0.0
H4575 H 0.73522 0.88966 0.75953 0.0
H4576 H 0.78143 0.88752 0.69978 0.0
H4577 H 0.73037 0.89071 0.67243 0.0
C4578 C 0.73709 0.88802 0.63011 0.0
C4579 C 0.74804 0.88446 0.61219 0.0
C4580 C 0.77105 0.88742 0.71301 0.0
C4581 C 0.75206 0.88438 0.67066 0.0
C4582 C 0.77462 0.89145 0.74157 0.0
C4583 C 0.76193 0.8927 0.75874 0.0
C4584 C 0.75485 0.88508 0.70154 0.0
C4585 C 0.74519 0.88846 0.74706 0.0
C4586 C 0.73898 0.8879 0.65917 0.0
C4587 C 0.76106 0.8811 0.6245 0.0
N4588 N 0.74227 0.88521 0.71906 0.0
N4589 N 0.76277 0.88124 0.65297 0.0
H4590 H 0.10045 0.84303 0.76406 0.0
H4591 H 0.11604 0.89037 0.6134 0.0
H4592 H 0.10012 0.89282 0.75112 0.0
H4593 H 0.10109 0.83445 0.62617 0.0
H4594 H 0.11585 0.8941 0.66442 0.0
H4595 H 0.10802 0.84309 0.71441 0.0
C4596 C 0.10287 0.85444 0.75103 0.0
C4597 C 0.09992 0.86808 0.76167 0.0
C4598 C 0.11263 0.88103 0.65596 0.0
C4599 C 0.10779 0.86788 0.70472 0.0
C4600 C 0.11261 0.87885 0.62683 0.0
C4601 C 0.10845 0.86203 0.61531 0.0
C4602 C 0.10866 0.86637 0.67375 0.0
C4603 C 0.10427 0.84765 0.63391 0.0
C4604 C 0.1068 0.85428 0.72257 0.0
C4605 C 0.10258 0.88224 0.7437 0.0
N4606 N 0.10452 0.85017 0.66212 0.0
N4607 N 0.10614 0.88167 0.71599 0.0
H4608 H 0.77229 0.89486 0.11242 0.0
H4609 H 0.73552 0.85052 0.26336 0.0
H4610 H 0.72047 0.84684 0.12628 0.0
H4611 H 0.78943 0.89473 0.24847 0.0
H4612 H 0.7275 0.85298 0.2148 0.0
H4613 H 0.77701 0.89806 0.16318 0.0
C4614 C 0.76191 0.88496 0.12608 0.0
C4615 C 0.74603 0.87045 0.11491 0.0
C4616 C 0.74095 0.86251 0.22235 0.0
C4617 C 0.75127 0.8742 0.17325 0.0
C4618 C 0.7454 0.86134 0.25023 0.0
C4619 C 0.76311 0.87254 0.2599 0.0
C4620 C 0.75435 0.87496 0.20409 0.0
C4621 C 0.77558 0.88598 0.24182 0.0
C4622 C 0.76457 0.88686 0.15511 0.0
C4623 C 0.733 0.85816 0.13381 0.0
N4624 N 0.77106 0.88662 0.21464 0.0
N4625 N 0.73595 0.86027 0.16198 0.0
H4626 H 0.14991 0.89204 0.26439 0.0
H4627 H 0.10338 0.87747 0.11333 0.0
H4628 H 0.10061 0.8932 0.25089 0.0
H4629 H 0.15901 0.89162 0.12669 0.0
H4630 H 0.09935 0.87728 0.16432 0.0
H4631 H 0.14981 0.88423 0.21485 0.0
C4632 C 0.13858 0.88974 0.25127 0.0
C4633 C 0.12513 0.89304 0.26169 0.0
C4634 C 0.11242 0.8804 0.156 0.0
C4635 C 0.12529 0.8849 0.20488 0.0
C4636 C 0.11478 0.88063 0.12689 0.0
C4637 C 0.13161 0.88472 0.11556 0.0
C4638 C 0.12693 0.88408 0.17395 0.0
C4639 C 0.14582 0.88855 0.13431 0.0
C4640 C 0.13872 0.88567 0.22288 0.0
C4641 C 0.11106 0.8905 0.24363 0.0
N4642 N 0.14314 0.88811 0.1625 0.0
N4643 N 0.11162 0.88682 0.21598 0.0
H4644 H 0.11497 0.22174 0.11202 0.0
H4645 H 0.10643 0.25456 0.266 0.0
H4646 H 0.10929 0.26838 0.12927 0.0
H4647 H 0.09566 0.20054 0.24837 0.0
H4648 H 0.11546 0.26284 0.21696 0.0
H4649 H 0.11416 0.21618 0.16268 0.0
C4650 C 0.11349 0.23077 0.12637 0.0
C4651 C 0.11201 0.24545 0.11624 0.0
C4652 C 0.11161 0.24931 0.22398 0.0
C4653 C 0.11154 0.2394 0.17422 0.0
C4654 C 0.10683 0.2447 0.25209 0.0
C4655 C 0.10047 0.2269 0.26118 0.0
C4656 C 0.11004 0.23599 0.20494 0.0
C4657 C 0.1007 0.21446 0.24213 0.0
C4658 C 0.11313 0.22764 0.15528 0.0
C4659 C 0.11027 0.25677 0.13595 0.0
N4660 N 0.10514 0.21916 0.21477 0.0
N4661 N 0.11011 0.25352 0.16391 0.0
H4662 H 0.85013 0.73623 0.24785 0.0
H4663 H 0.89093 0.77528 0.39973 0.0
H4664 H 0.89176 0.79131 0.26319 0.0
H4665 H 0.84839 0.72027 0.38507 0.0
H4666 H 0.8936 0.78048 0.34913 0.0
H4667 H 0.8526 0.72876 0.29675 0.0
C4668 C 0.86041 0.74654 0.26119 0.0
C4669 C 0.87089 0.76437 0.25149 0.0
C4670 C 0.88369 0.76725 0.35696 0.0
C4671 C 0.87322 0.7562 0.3077 0.0
C4672 C 0.88206 0.7643 0.38593 0.0
C4673 C 0.86931 0.74733 0.39685 0.0
C4674 C 0.8725 0.75316 0.33858 0.0
C4675 C 0.85832 0.73362 0.37774 0.0
C4676 C 0.86156 0.74238 0.28926 0.0
C4677 C 0.8836 0.77736 0.26985 0.0
N4678 N 0.86015 0.73684 0.3496 0.0
N4679 N 0.88421 0.7731 0.29718 0.0
H4680 H 0.27297 0.12338 0.38672 0.0
H4681 H 0.20105 0.09617 0.26322 0.0
H4682 H 0.21908 0.11482 0.39891 0.0
H4683 H 0.25644 0.11011 0.24978 0.0
H4684 H 0.20835 0.10641 0.31193 0.0
H4685 H 0.26786 0.12074 0.33612 0.0
C4686 C 0.26003 0.12089 0.37881 0.0
C4687 C 0.24638 0.11918 0.39725 0.0
C4688 C 0.21906 0.10771 0.2982 0.0
C4689 C 0.24051 0.11633 0.33904 0.0
C4690 C 0.21494 0.10213 0.2703 0.0
C4691 C 0.22823 0.10255 0.2525 0.0
C4692 C 0.23655 0.11346 0.30847 0.0
C4693 C 0.24591 0.10989 0.26279 0.0
C4694 C 0.25718 0.11953 0.34983 0.0
C4695 C 0.22997 0.11615 0.3856 0.0
N4696 N 0.2495 0.11477 0.29027 0.0
N4697 N 0.22747 0.11472 0.35729 0.0
H4698 H 0.87372 0.09842 0.39958 0.0
H4699 H 0.88911 0.14832 0.25103 0.0
H4700 H 0.88076 0.15187 0.38909 0.0
H4701 H 0.89309 0.10038 0.26287 0.0
H4702 H 0.88 0.14662 0.30027 0.0
H4703 H 0.87597 0.09635 0.34857 0.0
C4704 C 0.87578 0.10974 0.38663 0.0
C4705 C 0.87716 0.12539 0.3988 0.0
C4706 C 0.88238 0.13617 0.29195 0.0
C4707 C 0.87948 0.12297 0.3403 0.0
C4708 C 0.88724 0.13696 0.26372 0.0
C4709 C 0.89152 0.12427 0.25287 0.0
C4710 C 0.88182 0.1226 0.30939 0.0
C4711 C 0.88957 0.11021 0.27042 0.0
C4712 C 0.87698 0.10851 0.35749 0.0
C4713 C 0.8797 0.13955 0.38081 0.0
N4714 N 0.88503 0.10983 0.2979 0.0
N4715 N 0.88078 0.13801 0.35255 0.0
H4716 H 0.872 0.43489 0.095 0.0
H4717 H 0.9385 0.48584 0.22309 0.0
H4718 H 0.9238 0.48325 0.08551 0.0
H4719 H 0.88879 0.43478 0.23164 0.0
H4720 H 0.93425 0.48409 0.17231 0.0
H4721 H 0.87937 0.43273 0.14405 0.0
C4722 C 0.88525 0.4446 0.10301 0.0
C4723 C 0.89745 0.45906 0.08617 0.0
C4724 C 0.92431 0.47322 0.18525 0.0
C4725 C 0.90565 0.45731 0.14258 0.0
C4726 C 0.92666 0.47425 0.21436 0.0
C4727 C 0.91394 0.46047 0.23185 0.0
C4728 C 0.90909 0.45831 0.17336 0.0
C4729 C 0.89891 0.44579 0.21911 0.0
C4730 C 0.88935 0.44357 0.13111 0.0
C4731 C 0.91421 0.47168 0.09771 0.0
N4732 N 0.89689 0.44513 0.1907 0.0
N4733 N 0.91771 0.47069 0.12533 0.0
H4734 H 0.55961 0.43042 0.09583 0.0
H4735 H 0.51649 0.46006 0.21904 0.0
H4736 H 0.51919 0.44577 0.08234 0.0
H4737 H 0.55929 0.44777 0.23202 0.0
H4738 H 0.51915 0.45743 0.16848 0.0
H4739 H 0.56273 0.44072 0.14456 0.0
C4740 C 0.552 0.43675 0.10285 0.0
C4741 C 0.53926 0.43743 0.08502 0.0
C4742 C 0.52802 0.45537 0.18235 0.0
C4743 C 0.54206 0.44842 0.14109 0.0
C4744 C 0.52641 0.45672 0.21133 0.0
C4745 C 0.53758 0.45398 0.23001 0.0
C4746 C 0.54086 0.45118 0.17175 0.0
C4747 C 0.5503 0.44989 0.21855 0.0
C4748 C 0.55353 0.44233 0.1308 0.0
C4749 C 0.52936 0.44528 0.09531 0.0
N4750 N 0.55153 0.44854 0.19023 0.0
N4751 N 0.53071 0.45015 0.12282 0.0
H4752 H 0.55668 0.12005 0.09336 0.0
H4753 H 0.54577 0.05639 0.22391 0.0
H4754 H 0.55868 0.07078 0.08609 0.0
H4755 H 0.54123 0.10444 0.23066 0.0
H4756 H 0.54871 0.06045 0.17306 0.0
H4757 H 0.54764 0.11282 0.14266 0.0
C4758 C 0.55442 0.10731 0.1019 0.0
C4759 C 0.55801 0.09579 0.08557 0.0
C4760 C 0.54701 0.07009 0.18563 0.0
C4761 C 0.5487 0.08788 0.1423 0.0
C4762 C 0.54544 0.06784 0.21476 0.0
C4763 C 0.54332 0.08014 0.23176 0.0
C4764 C 0.54642 0.08472 0.1732 0.0
C4765 C 0.54297 0.09469 0.21853 0.0
C4766 C 0.54959 0.10333 0.13016 0.0
C4767 C 0.55558 0.07977 0.09784 0.0
N4768 N 0.54451 0.09656 0.1901 0.0
N4769 N 0.55134 0.07642 0.12558 0.0
H4770 H 0.76848 0.55267 0.94593 0.0
H4771 H 0.81184 0.59209 0.09675 0.0
H4772 H 0.81176 0.60746 0.95969 0.0
H4773 H 0.77304 0.53604 0.08107 0.0
H4774 H 0.80795 0.59931 0.04826 0.0
H4775 H 0.7668 0.54743 0.99655 0.0
C4776 C 0.77763 0.56362 0.95955 0.0
C4777 C 0.79039 0.58049 0.9484 0.0
C4778 C 0.79996 0.58549 0.05561 0.0
C4779 C 0.7884 0.57461 0.00658 0.0
C4780 C 0.80196 0.58145 0.0834 0.0
C4781 C 0.79264 0.56348 0.09284 0.0
C4782 C 0.7886 0.57143 0.03725 0.0
C4783 C 0.78035 0.55008 0.07454 0.0
C4784 C 0.77662 0.56063 0.98851 0.0
C4785 C 0.80183 0.59417 0.96722 0.0
N4786 N 0.77885 0.55428 0.04753 0.0
N4787 N 0.80059 0.59091 0.99533 0.0
H4788 H 0.38755 0.20587 0.95862 0.0
H4789 H 0.45874 0.22967 0.08208 0.0
H4790 H 0.44032 0.21166 0.94594 0.0
H4791 H 0.40351 0.21621 0.09566 0.0
H4792 H 0.45138 0.21979 0.03318 0.0
H4793 H 0.39263 0.20783 0.0092 0.0
C4794 C 0.40025 0.20761 0.96641 0.0
C4795 C 0.41358 0.20872 0.94783 0.0
C4796 C 0.44071 0.21849 0.047 0.0
C4797 C 0.41939 0.21077 0.00607 0.0
C4798 C 0.44486 0.22382 0.07503 0.0
C4799 C 0.43165 0.22354 0.09293 0.0
C4800 C 0.42331 0.21312 0.03673 0.0
C4801 C 0.41398 0.21636 0.08263 0.0
C4802 C 0.40307 0.20858 0.99539 0.0
C4803 C 0.42968 0.21083 0.95936 0.0
N4804 N 0.4104 0.21177 0.05505 0.0
N4805 N 0.43217 0.21187 0.98769 0.0
H4806 H 0.78015 0.22653 0.94396 0.0
H4807 H 0.77532 0.18354 0.09552 0.0
H4808 H 0.78891 0.18149 0.95821 0.0
H4809 H 0.76033 0.22401 0.07965 0.0
H4810 H 0.78567 0.18638 0.04671 0.0
H4811 H 0.77694 0.2287 0.9946 0.0
C4812 C 0.7814 0.21709 0.95769 0.0
C4813 C 0.78469 0.20372 0.94667 0.0
C4814 C 0.78053 0.19498 0.05407 0.0
C4815 C 0.78123 0.2063 1.00486 0.0
C4816 C 0.77495 0.19358 0.08204 0.0
C4817 C 0.76718 0.20371 0.09157 0.0
C4818 C 0.77826 0.20656 0.0356 0.0
C4819 C 0.76646 0.21614 0.07309 0.0
C4820 C 0.77963 0.21839 0.98665 0.0
C4821 C 0.78624 0.19192 0.96563 0.0
N4822 N 0.7717 0.21706 0.0459 0.0
N4823 N 0.78447 0.19347 0.99373 0.0
H4824 H 0.40028 0.1794 0.59504 0.0
H4825 H 0.43711 0.22495 0.44455 0.0
H4826 H 0.45349 0.22496 0.58077 0.0
H4827 H 0.38425 0.17816 0.45747 0.0
H4828 H 0.44203 0.22704 0.49521 0.0
H4829 H 0.39234 0.1814 0.54613 0.0
C4830 C 0.41 0.19033 0.58192 0.0
C4831 C 0.42747 0.2022 0.59196 0.0
C4832 C 0.42932 0.21634 0.487 0.0
C4833 C 0.41884 0.20412 0.53579 0.0
C4834 C 0.42653 0.21507 0.45798 0.0
C4835 C 0.41028 0.20128 0.44654 0.0
C4836 C 0.41579 0.20374 0.50492 0.0
C4837 C 0.39706 0.18896 0.4652 0.0
C4838 C 0.4056 0.19127 0.55387 0.0
C4839 C 0.43979 0.21574 0.57387 0.0
N4840 N 0.40012 0.19045 0.4934 0.0
N4841 N 0.43533 0.21619 0.5466 0.0
H4842 H 0.76773 0.21371 0.44424 0.0
H4843 H 0.80774 0.21431 0.59639 0.0
H4844 H 0.81005 0.20097 0.45912 0.0
H4845 H 0.76763 0.22979 0.58072 0.0
H4846 H 0.80495 0.20418 0.54753 0.0
H4847 H 0.7648 0.21598 0.49489 0.0
C4848 C 0.77645 0.21142 0.45811 0.0
C4849 C 0.78926 0.20728 0.44724 0.0
C4850 C 0.79638 0.20932 0.55494 0.0
C4851 C 0.78579 0.20962 0.50553 0.0
C4852 C 0.7977 0.21474 0.58299 0.0
C4853 C 0.78776 0.22272 0.5926 0.0
C4854 C 0.78508 0.21199 0.53641 0.0
C4855 C 0.77535 0.2235 0.57415 0.0
C4856 C 0.77469 0.21262 0.48709 0.0
C4857 C 0.80009 0.20436 0.46641 0.0
N4858 N 0.77458 0.21852 0.54683 0.0
N4859 N 0.79814 0.20563 0.49455 0.0
H4860 H 0.77028 0.54265 0.5887 0.0
H4861 H 0.75653 0.5844 0.45092 0.0
H4862 H 0.76298 0.58907 0.58881 0.0
H4863 H 0.78949 0.55907 0.44886 0.0
H4864 H 0.75726 0.58414 0.50195 0.0
H4865 H 0.77781 0.54755 0.53839 0.0
C4866 C 0.77116 0.55439 0.5784 0.0
C4867 C 0.76635 0.56568 0.59289 0.0
C4868 C 0.76441 0.5787 0.49037 0.0
C4869 C 0.77376 0.57068 0.53539 0.0
C4870 C 0.76382 0.57862 0.46115 0.0
C4871 C 0.77289 0.57164 0.44543 0.0
C4872 C 0.77388 0.57148 0.50426 0.0
C4873 C 0.78225 0.56453 0.4601 0.0
C4874 C 0.77516 0.55702 0.54967 0.0
C4875 C 0.76698 0.5803 0.57844 0.0
N4876 N 0.78237 0.56447 0.48874 0.0
N4877 N 0.77017 0.58214 0.55036 0.0
H4878 H 0.51415 0.06908 0.58123 0.0
H4879 H 0.55592 0.10692 0.73334 0.0
H4880 H 0.55336 0.12478 0.59839 0.0
H4881 H 0.51368 0.05186 0.71801 0.0
H4882 H 0.55777 0.11275 0.68295 0.0
H4883 H 0.51732 0.06128 0.62971 0.0
C4884 C 0.524 0.07951 0.59491 0.0
C4885 C 0.53367 0.09755 0.58586 0.0
C4886 C 0.54812 0.09937 0.69058 0.0
C4887 C 0.53685 0.08895 0.64146 0.0
C4888 C 0.547 0.09604 0.71942 0.0
C4889 C 0.53453 0.07889 0.73007 0.0
C4890 C 0.53674 0.08547 0.67208 0.0
C4891 C 0.52339 0.06534 0.71086 0.0
C4892 C 0.52558 0.07514 0.62269 0.0
C4893 C 0.54584 0.11069 0.60458 0.0
N4894 N 0.52474 0.06893 0.68284 0.0
N4895 N 0.54693 0.10618 0.63158 0.0
H4896 H 0.93657 0.44665 0.71622 0.0
H4897 H 0.86512 0.42943 0.59731 0.0
H4898 H 0.88689 0.44661 0.73375 0.0
H4899 H 0.92048 0.44452 0.58032 0.0
H4900 H 0.87308 0.43813 0.64654 0.0
H4901 H 0.9308 0.44659 0.66615 0.0
C4902 C 0.92435 0.44649 0.70959 0.0
C4903 C 0.91212 0.44648 0.72938 0.0
C4904 C 0.88364 0.44011 0.6319 0.0
C4905 C 0.90552 0.44663 0.67167 0.0
C4906 C 0.87915 0.43545 0.6037 0.0
C4907 C 0.8922 0.43636 0.58474 0.0
C4908 C 0.90123 0.44545 0.64119 0.0
C4909 C 0.91008 0.4438 0.59419 0.0
C4910 C 0.92117 0.44668 0.68089 0.0
C4911 C 0.89666 0.44653 0.71932 0.0
N4912 N 0.91399 0.44765 0.62189 0.0
N4913 N 0.89372 0.44645 0.69117 0.0
H4914 H 0.5593 0.43407 0.59604 0.0
H4915 H 0.53833 0.48301 0.72133 0.0
H4916 H 0.55226 0.48021 0.58424 0.0
H4917 H 0.54159 0.43445 0.73205 0.0
H4918 H 0.54112 0.48089 0.67066 0.0
H4919 H 0.5492 0.43176 0.64476 0.0
C4920 C 0.55486 0.44322 0.60345 0.0
C4921 C 0.55632 0.45716 0.58606 0.0
C4922 C 0.54114 0.47064 0.68406 0.0
C4923 C 0.54564 0.45525 0.64215 0.0
C4924 C 0.53966 0.47189 0.7131 0.0
C4925 C 0.53982 0.45894 0.73118 0.0
C4926 C 0.54286 0.45634 0.67282 0.0
C4927 C 0.54148 0.44481 0.71907 0.0
C4928 C 0.54939 0.44212 0.63139 0.0
C4929 C 0.55096 0.46906 0.59686 0.0
N4930 N 0.543 0.44394 0.69072 0.0
N4931 N 0.54615 0.46803 0.62436 0.0
H4932 H 0.60064 0.82734 0.5541 0.0
H4933 H 0.53642 0.77077 0.42902 0.0
H4934 H 0.55561 0.77329 0.56658 0.0
H4935 H 0.59013 0.81594 0.41682 0.0
H4936 H 0.5433 0.76996 0.4788 0.0
H4937 H 0.59642 0.82312 0.50358 0.0
C4938 C 0.58974 0.81461 0.54629 0.0
C4939 C 0.57839 0.80068 0.56479 0.0
C4940 C 0.55379 0.77969 0.46509 0.0
C4941 C 0.57366 0.79568 0.50657 0.0
C4942 C 0.54996 0.77993 0.43662 0.0
C4943 C 0.56283 0.79327 0.41886 0.0
C4944 C 0.57047 0.79315 0.47584 0.0
C4945 C 0.57998 0.80525 0.4298 0.0
C4946 C 0.58749 0.81214 0.51733 0.0
C4947 C 0.56463 0.78444 0.55319 0.0
N4948 N 0.58319 0.80517 0.45774 0.0
N4949 N 0.56258 0.78242 0.52482 0.0
H4950 H 0.2247 0.78465 0.56417 0.0
H4951 H 0.17566 0.77166 0.41564 0.0
H4952 H 0.17488 0.78551 0.55331 0.0
H4953 H 0.2233 0.76721 0.4277 0.0
H4954 H 0.17758 0.78117 0.46473 0.0
H4955 H 0.22614 0.7814 0.51344 0.0
C4956 C 0.21399 0.78404 0.55119 0.0
C4957 C 0.1996 0.78527 0.56319 0.0
C4958 C 0.18791 0.77859 0.45648 0.0
C4959 C 0.2013 0.78175 0.50482 0.0
C4960 C 0.187 0.77351 0.42834 0.0
C4961 C 0.19955 0.769 0.41761 0.0
C4962 C 0.20143 0.77907 0.47396 0.0
C4963 C 0.21358 0.77091 0.43515 0.0
C4964 C 0.21489 0.7823 0.52215 0.0
C4965 C 0.18622 0.78457 0.54512 0.0
N4966 N 0.21405 0.77562 0.46254 0.0
N4967 N 0.18738 0.78282 0.5169 0.0
H4968 H 0.21214 0.39089 0.55527 0.0
H4969 H 0.22609 0.45773 0.42839 0.0
H4970 H 0.20773 0.43892 0.56433 0.0
H4971 H 0.22546 0.40728 0.41817 0.0
H4972 H 0.21612 0.44953 0.47713 0.0
H4973 H 0.21516 0.39571 0.50461 0.0
C4974 C 0.21181 0.40247 0.54667 0.0
C4975 C 0.20976 0.41457 0.56427 0.0
C4976 C 0.2177 0.44002 0.46409 0.0
C4977 C 0.21304 0.42006 0.50593 0.0
C4978 C 0.22311 0.44459 0.43617 0.0
C4979 C 0.22624 0.433 0.41922 0.0
C4980 C 0.21581 0.4239 0.47528 0.0
C4981 C 0.22279 0.41638 0.43046 0.0
C4982 C 0.21344 0.40515 0.51764 0.0
C4983 C 0.20939 0.42929 0.55172 0.0
N4984 N 0.21804 0.41244 0.45793 0.0
N4985 N 0.21107 0.43164 0.52338 0.0
H4986 H 0.43343 0.8697 0.41526 0.0
H4987 H 0.49094 0.93766 0.29365 0.0
H4988 H 0.47961 0.92237 0.43047 0.0
H4989 H 0.43775 0.89164 0.2793 0.0
H4990 H 0.48648 0.93231 0.34399 0.0
H4991 H 0.43317 0.87812 0.36614 0.0
C4992 C 0.44299 0.88334 0.40847 0.0
C4993 C 0.45642 0.89545 0.42689 0.0
C4994 C 0.47574 0.92342 0.32987 0.0
C4995 C 0.45686 0.90487 0.37058 0.0
C4996 C 0.47834 0.92634 0.30101 0.0
C4997 C 0.46474 0.91501 0.28204 0.0
C4998 C 0.45948 0.90895 0.34004 0.0
C4999 C 0.44865 0.90068 0.29306 0.0
C5000 C 0.44304 0.88805 0.38037 0.0
C5001 C 0.46887 0.91277 0.41698 0.0
N5002 N 0.44651 0.898 0.32131 0.0
N5003 N 0.46902 0.91685 0.38934 0.0
H5004 H 0.12537 0.56747 0.41488 0.0
H5005 H 0.05194 0.53761 0.2926 0.0
H5006 H 0.06993 0.55307 0.42929 0.0
H5007 H 0.10629 0.54767 0.27945 0.0
H5008 H 0.05769 0.5413 0.34306 0.0
H5009 H 0.1178 0.55713 0.36624 0.0
C5010 C 0.11143 0.56143 0.40802 0.0
C5011 C 0.0982 0.56089 0.42614 0.0
C5012 C 0.06834 0.54263 0.32917 0.0
C5013 C 0.08955 0.54979 0.37018 0.0
C5014 C 0.06512 0.54065 0.30025 0.0
C5015 C 0.07869 0.54243 0.28157 0.0
C5016 C 0.08529 0.54651 0.33966 0.0
C5017 C 0.09543 0.54623 0.29293 0.0
C5018 C 0.10715 0.55578 0.38015 0.0
C5019 C 0.08044 0.55341 0.41608 0.0
N5020 N 0.09827 0.54822 0.32117 0.0
N5021 N 0.07668 0.54842 0.38864 0.0
H5022 H 0.43465 0.56038 0.41746 0.0
H5023 H 0.43059 0.50028 0.28881 0.0
H5024 H 0.43367 0.50972 0.427 0.0
H5025 H 0.45204 0.55784 0.27978 0.0
H5026 H 0.4309 0.50366 0.33961 0.0
H5027 H 0.44204 0.56076 0.36755 0.0
C5028 C 0.43685 0.54979 0.40925 0.0
C5029 C 0.4339 0.53518 0.42633 0.0
C5030 C 0.43562 0.51557 0.32655 0.0
C5031 C 0.44123 0.53492 0.36919 0.0
C5032 C 0.43526 0.51364 0.29744 0.0
C5033 C 0.44119 0.5288 0.27984 0.0
C5034 C 0.44175 0.53275 0.33833 0.0
C5035 C 0.44726 0.54577 0.29246 0.0
C5036 C 0.44077 0.54984 0.38073 0.0
C5037 C 0.43623 0.5214 0.41458 0.0
N5038 N 0.44725 0.54727 0.32095 0.0
N5039 N 0.43938 0.52141 0.38659 0.0
H5040 H 0.06789 0.51419 0.92989 0.0
H5041 H 0.10578 0.55683 0.77817 0.0
H5042 H 0.12291 0.55575 0.91391 0.0
H5043 H 0.05148 0.51275 0.79263 0.0
H5044 H 0.11127 0.55883 0.82867 0.0
H5045 H 0.06021 0.51657 0.881 0.0
C5046 C 0.07815 0.52436 0.91636 0.0
C5047 C 0.09599 0.53495 0.92589 0.0
C5048 C 0.09813 0.54873 0.82082 0.0
C5049 C 0.08758 0.53726 0.86984 0.0
C5050 C 0.09501 0.54751 0.79191 0.0
C5051 C 0.07816 0.53452 0.78098 0.0
C5052 C 0.08433 0.5369 0.8391 0.0
C5053 C 0.06473 0.5229 0.79999 0.0
C5054 C 0.07387 0.52549 0.88835 0.0
C5055 C 0.10895 0.54752 0.90735 0.0
N5056 N 0.06811 0.52435 0.82807 0.0
N5057 N 0.10455 0.54818 0.88013 0.0
H5058 H 0.43623 0.54713 0.77865 0.0
H5059 H 0.47841 0.55175 0.93051 0.0
H5060 H 0.47895 0.53497 0.79359 0.0
H5061 H 0.43661 0.56483 0.91421 0.0
H5062 H 0.47577 0.54113 0.8819 0.0
H5063 H 0.43406 0.55054 0.82912 0.0
C5064 C 0.44518 0.54519 0.79251 0.0
C5065 C 0.45788 0.54088 0.78171 0.0
C5066 C 0.46685 0.5459 0.88913 0.0
C5067 C 0.45532 0.5446 0.83984 0.0
C5068 C 0.46814 0.55165 0.91701 0.0
C5069 C 0.4576 0.55903 0.92634 0.0
C5070 C 0.455 0.54765 0.87055 0.0
C5071 C 0.44485 0.55908 0.90781 0.0
C5072 C 0.44387 0.54706 0.82141 0.0
C5073 C 0.46906 0.53847 0.80085 0.0
N5074 N 0.44409 0.55375 0.88072 0.0
N5075 N 0.46755 0.54041 0.82894 0.0
H5076 H 0.44446 0.94097 0.79243 0.0
H5077 H 0.42929 0.87151 0.9149 0.0
H5078 H 0.44735 0.89242 0.77873 0.0
H5079 H 0.43796 0.92508 0.92955 0.0
H5080 H 0.43812 0.87952 0.86572 0.0
H5081 H 0.44275 0.93548 0.84284 0.0
C5082 C 0.44462 0.92907 0.79994 0.0
C5083 C 0.44595 0.91709 0.78112 0.0
C5084 C 0.43861 0.88972 0.87982 0.0
C5085 C 0.44419 0.91083 0.83923 0.0
C5086 C 0.43387 0.88523 0.90798 0.0
C5087 C 0.43321 0.89776 0.92632 0.0
C5088 C 0.44235 0.90675 0.86984 0.0
C5089 C 0.43866 0.91517 0.91617 0.0
C5090 C 0.44382 0.92604 0.82885 0.0
C5091 C 0.44626 0.902 0.79235 0.0
N5092 N 0.44268 0.91906 0.88848 0.0
N5093 N 0.4453 0.89926 0.82062 0.0
H5094 H 0.22307 0.45539 0.92896 0.0
H5095 H 0.17405 0.38647 0.05588 0.0
H5096 H 0.17563 0.40299 0.91837 0.0
H5097 H 0.2225 0.4385 0.06537 0.0
H5098 H 0.17553 0.39124 1.00511 0.0
H5099 H 0.22512 0.44787 0.97793 0.0
C5100 C 0.21354 0.44199 0.93672 0.0
C5101 C 0.19937 0.42966 0.91954 0.0
C5102 C 0.18587 0.40159 0.01829 0.0
C5103 C 0.201 0.42124 0.97595 0.0
C5104 C 0.18498 0.39894 0.04737 0.0
C5105 C 0.19812 0.41214 0.06512 0.0
C5106 C 0.20002 0.41756 0.0067 0.0
C5107 C 0.21199 0.42797 0.05267 0.0
C5108 C 0.2145 0.4378 0.9648 0.0
C5109 C 0.18698 0.4127 0.9308 0.0
N5110 N 0.21255 0.43022 0.02432 0.0
N5111 N 0.18792 0.40908 0.95842 0.0
H5112 H 0.55456 0.78341 0.06579 0.0
H5113 H 0.59311 0.77482 0.91673 0.0
H5114 H 0.60633 0.78665 0.05443 0.0
H5115 H 0.53912 0.76546 0.9293 0.0
H5116 H 0.60028 0.78475 0.96572 0.0
H5117 H 0.55027 0.78106 0.0149 0.0
C5118 C 0.56502 0.78358 0.05266 0.0
C5119 C 0.58078 0.7851 0.06456 0.0
C5120 C 0.58701 0.781 0.9576 0.0
C5121 C 0.57603 0.78264 0.0061 0.0
C5122 C 0.58305 0.77567 0.92951 0.0
C5123 C 0.5656 0.76961 0.919 0.0
C5124 C 0.57336 0.78013 0.97522 0.0
C5125 C 0.55281 0.77033 0.93661 0.0
C5126 C 0.56259 0.78234 0.02356 0.0
C5127 C 0.5939 0.78538 0.04633 0.0
N5128 N 0.55686 0.77526 0.96396 0.0
N5129 N 0.59121 0.78412 0.01808 0.0
H5130 H 0.20973 0.7704 0.06477 0.0
H5131 H 0.22095 0.81741 0.91499 0.0
H5132 H 0.2054 0.81826 0.0525 0.0
H5133 H 0.22493 0.7696 0.92829 0.0
H5134 H 0.21126 0.8158 0.96396 0.0
H5135 H 0.21273 0.76852 0.01412 0.0
C5136 C 0.20952 0.7806 0.05149 0.0
C5137 C 0.20741 0.79458 0.0631 0.0
C5138 C 0.21377 0.80537 0.95599 0.0
C5139 C 0.21065 0.79236 1.00471 0.0
C5140 C 0.21895 0.8061 0.9279 0.0
C5141 C 0.22346 0.79345 0.91757 0.0
C5142 C 0.21321 0.79195 0.97383 0.0
C5143 C 0.22129 0.77942 0.9354 0.0
C5144 C 0.2111 0.77943 0.02247 0.0
C5145 C 0.20708 0.80728 0.04462 0.0
N5146 N 0.21656 0.77918 0.96273 0.0
N5147 N 0.20873 0.8059 0.0164 0.0
H5148 H 0.35072 0.17507 0.24922 0.0
H5149 H 0.30854 0.15246 0.09553 0.0
H5150 H 0.37599 0.16439 0.17887 0.0
H5151 H 0.28409 0.16405 0.16601 0.0
H5152 H 0.33378 0.15743 0.12537 0.0
H5153 H 0.32557 0.16985 0.21924 0.0
C5154 C 0.35072 0.17115 0.22758 0.0
C5155 C 0.36533 0.17001 0.21642 0.0
C5156 C 0.323 0.15907 0.13426 0.0
C5157 C 0.33699 0.16474 0.18183 0.0
C5158 C 0.30875 0.15651 0.11716 0.0
C5159 C 0.29436 0.15798 0.12846 0.0
C5160 C 0.32272 0.16302 0.16276 0.0
C5161 C 0.29498 0.16277 0.15669 0.0
C5162 C 0.3365 0.16846 0.21037 0.0
C5163 C 0.36494 0.16542 0.18811 0.0
N5164 N 0.30893 0.16502 0.17301 0.0
N5165 N 0.35098 0.16304 0.17164 0.0
H5166 H 0.82985 0.21108 0.18065 0.0
H5167 H 0.83011 0.11789 0.16653 0.0
H5168 H 0.81719 0.17313 0.24869 0.0
H5169 H 0.84171 0.15533 0.09808 0.0
H5170 H 0.82517 0.13798 0.19722 0.0
H5171 H 0.83534 0.19123 0.15022 0.0
C5172 C 0.82854 0.19871 0.18922 0.0
C5173 C 0.82316 0.1937 0.21708 0.0
C5174 C 0.82861 0.1417 0.17541 0.0
C5175 C 0.82904 0.17093 0.18266 0.0
C5176 C 0.83131 0.13021 0.15795 0.0
C5177 C 0.83619 0.13498 0.12987 0.0
C5178 C 0.83093 0.15804 0.16458 0.0
C5179 C 0.83765 0.15104 0.11956 0.0
C5180 C 0.83155 0.18736 0.17191 0.0
C5181 C 0.82161 0.17759 0.22739 0.0
N5182 N 0.83513 0.16209 0.13702 0.0
N5183 N 0.82442 0.16668 0.21006 0.0
H5184 H 0.82925 0.69492 0.11413 0.0
H5185 H 0.83263 0.63444 0.2385 0.0
H5186 H 0.87855 0.69808 0.1432 0.0
H5187 H 0.7844 0.63518 0.21407 0.0
H5188 H 0.85017 0.65879 0.20517 0.0
H5189 H 0.81239 0.67248 0.15037 0.0
C5190 C 0.83634 0.69042 0.12786 0.0
C5191 C 0.85507 0.69792 0.12592 0.0
C5192 C 0.83582 0.65389 0.20741 0.0
C5193 C 0.83631 0.67297 0.1675 0.0
C5194 C 0.82593 0.64019 0.22651 0.0
C5195 C 0.80726 0.63308 0.22858 0.0
C5196 C 0.82677 0.66021 0.19031 0.0
C5197 C 0.79888 0.64059 0.21285 0.0
C5198 C 0.82685 0.67789 0.14869 0.0
C5199 C 0.864 0.69222 0.14416 0.0
N5200 N 0.80873 0.65373 0.19395 0.0
N5201 N 0.85448 0.68 0.16443 0.0
H5202 H 0.20422 0.37925 0.31816 0.0
H5203 H 0.1566 0.27646 0.34215 0.0
H5204 H 0.15163 0.34807 0.27926 0.0
H5205 H 0.16053 0.31032 0.4127 0.0
H5206 H 0.16498 0.30229 0.31085 0.0
H5207 H 0.19824 0.35292 0.34589 0.0
C5208 C 0.19137 0.36699 0.31553 0.0
C5209 C 0.17827 0.36604 0.29667 0.0
C5210 C 0.16419 0.30387 0.3333 0.0
C5211 C 0.17203 0.33578 0.32704 0.0
C5212 C 0.1594 0.28926 0.35114 0.0
C5213 C 0.15772 0.29113 0.38016 0.0
C5214 C 0.16786 0.32042 0.34479 0.0
C5215 C 0.16198 0.30821 0.39067 0.0
C5216 C 0.18818 0.35197 0.33103 0.0
C5217 C 0.16215 0.34943 0.29343 0.0
N5218 N 0.16692 0.32226 0.37292 0.0
N5219 N 0.15945 0.33482 0.30856 0.0
H5220 H 0.63031 0.78042 0.30527 0.0
H5221 H 0.69345 0.87777 0.37391 0.0
H5222 H 0.62981 0.82878 0.28081 0.0
H5223 H 0.69852 0.83099 0.39159 0.0
H5224 H 0.66833 0.85937 0.3419 0.0
H5225 H 0.65514 0.79847 0.33797 0.0
C5226 C 0.63574 0.79491 0.30661 0.0
C5227 C 0.62834 0.80336 0.29078 0.0
C5228 C 0.67489 0.8531 0.35289 0.0
C5229 C 0.65589 0.82378 0.32799 0.0
C5230 C 0.689 0.86353 0.37121 0.0
C5231 C 0.69781 0.85567 0.38485 0.0
C5232 C 0.66986 0.83487 0.34846 0.0
C5233 C 0.69192 0.83732 0.38099 0.0
C5234 C 0.64969 0.80515 0.32529 0.0
C5235 C 0.63539 0.82202 0.293 0.0
N5236 N 0.6783 0.82747 0.36291 0.0
N5237 N 0.64878 0.83167 0.31153 0.0
H5238 H 0.16688 0.79454 0.29844 0.0
H5239 H 0.16643 0.87242 0.38853 0.0
H5240 H 0.21029 0.84994 0.29611 0.0
H5241 H 0.12619 0.81597 0.39585 0.0
H5242 H 0.18374 0.86458 0.35659 0.0
H5243 H 0.15178 0.80238 0.33438 0.0
C5244 C 0.17305 0.80843 0.30548 0.0
C5245 C 0.1897 0.82167 0.29476 0.0
C5246 C 0.17126 0.85388 0.36543 0.0
C5247 C 0.17289 0.83074 0.33586 0.0
C5248 C 0.16147 0.85835 0.38364 0.0
C5249 C 0.1449 0.8448 0.39424 0.0
C5250 C 0.16421 0.83574 0.35776 0.0
C5251 C 0.13894 0.82673 0.38784 0.0
C5252 C 0.16458 0.81288 0.32609 0.0
C5253 C 0.19736 0.83949 0.30411 0.0
N5254 N 0.14854 0.82269 0.36956 0.0
N5255 N 0.18886 0.84357 0.32443 0.0
H5256 H 0.63175 0.80073 0.7801 0.0
H5257 H 0.69402 0.86344 0.90426 0.0
H5258 H 0.62933 0.84688 0.81131 0.0
H5259 H 0.69322 0.81495 0.87669 0.0
H5260 H 0.66987 0.85749 0.87099 0.0
H5261 H 0.65511 0.80633 0.81463 0.0
C5262 C 0.63657 0.8123 0.79397 0.0
C5263 C 0.62901 0.82351 0.79315 0.0
C5264 C 0.67475 0.84799 0.87246 0.0
C5265 C 0.6551 0.82978 0.83273 0.0
C5266 C 0.68836 0.85133 0.89148 0.0
C5267 C 0.69532 0.8396 0.89278 0.0
C5268 C 0.6683 0.83287 0.85475 0.0
C5269 C 0.68792 0.82414 0.87606 0.0
C5270 C 0.64967 0.81539 0.81379 0.0
C5271 C 0.63519 0.83817 0.81146 0.0
N5272 N 0.67478 0.82124 0.85741 0.0
N5273 N 0.64796 0.8409 0.83076 0.0
H5274 H 0.12289 0.82771 0.88975 0.0
H5275 H 0.20056 0.8311 0.79357 0.0
H5276 H 0.17859 0.8704 0.89306 0.0
H5277 H 0.14582 0.78633 0.79375 0.0
H5278 H 0.19245 0.84611 0.82945 0.0
H5279 H 0.13103 0.81154 0.85591 0.0
C5280 C 0.1369 0.83342 0.8836 0.0
C5281 C 0.15012 0.85033 0.89361 0.0
C5282 C 0.18215 0.83306 0.82161 0.0
C5283 C 0.15948 0.83239 0.85493 0.0
C5284 C 0.18674 0.82465 0.80105 0.0
C5285 C 0.17377 0.80761 0.79121 0.0
C5286 C 0.16447 0.82422 0.83228 0.0
C5287 C 0.15604 0.79956 0.80109 0.0
C5288 C 0.14153 0.82433 0.86425 0.0
C5289 C 0.16811 0.85734 0.88555 0.0
N5290 N 0.15187 0.80795 0.82145 0.0
N5291 N 0.17228 0.84838 0.86623 0.0
H5292 H 0.16622 0.29642 0.89159 0.0
H5293 H 0.16042 0.36497 0.78497 0.0
H5294 H 0.12068 0.30505 0.88654 0.0
H5295 H 0.20683 0.35788 0.79196 0.0
H5296 H 0.14478 0.3416 0.82037 0.0
H5297 H 0.18167 0.31927 0.85541 0.0
C5298 C 0.15975 0.30354 0.88314 0.0
C5299 C 0.14232 0.29907 0.89154 0.0
C5300 C 0.1583 0.34497 0.81399 0.0
C5301 C 0.15939 0.32458 0.85013 0.0
C5302 C 0.16707 0.35811 0.79371 0.0
C5303 C 0.1848 0.36319 0.78617 0.0
C5304 C 0.16751 0.33708 0.82666 0.0
C5305 C 0.19309 0.35412 0.79755 0.0
C5306 C 0.16841 0.31637 0.8624 0.0
C5307 C 0.13422 0.30838 0.88037 0.0
N5308 N 0.18438 0.34151 0.81768 0.0
N5309 N 0.14281 0.32069 0.85983 0.0
H5310 H 0.84758 0.64038 0.72598 0.0
H5311 H 0.81216 0.69023 0.62347 0.0
H5312 H 0.79136 0.62446 0.7155 0.0
H5313 H 0.86848 0.70735 0.63635 0.0
H5314 H 0.80402 0.66569 0.65736 0.0
H5315 H 0.85581 0.66594 0.69422 0.0
C5316 C 0.83706 0.64249 0.71718 0.0
C5317 C 0.81884 0.63041 0.72271 0.0
C5318 C 0.81817 0.67483 0.65273 0.0
C5319 C 0.82786 0.65904 0.68674 0.0
C5320 C 0.82271 0.68864 0.63338 0.0
C5321 C 0.84092 0.70067 0.62773 0.0
C5322 C 0.83202 0.67322 0.66603 0.0
C5323 C 0.8543 0.69832 0.64072 0.0
C5324 C 0.84167 0.65691 0.69904 0.0
C5325 C 0.80554 0.63348 0.71116 0.0
N5326 N 0.84958 0.68484 0.65943 0.0
N5327 N 0.81031 0.64749 0.69348 0.0
H5328 H 0.35963 0.2128 0.70939 0.0
H5329 H 0.30247 0.11912 0.62748 0.0
H5330 H 0.36373 0.16522 0.72478 0.0
H5331 H 0.29403 0.16458 0.61785 0.0
H5332 H 0.32721 0.13696 0.66033 0.0
H5333 H 0.33592 0.19578 0.6745 0.0
C5334 C 0.35519 0.19865 0.70564 0.0
C5335 C 0.36333 0.19017 0.71949 0.0
C5336 C 0.32002 0.14308 0.65087 0.0
C5337 C 0.33713 0.17101 0.67976 0.0
C5338 C 0.30614 0.13299 0.63204 0.0
C5339 C 0.29638 0.14055 0.62063 0.0
C5340 C 0.32386 0.16065 0.65804 0.0
C5341 C 0.30132 0.15844 0.62682 0.0
C5342 C 0.34193 0.18903 0.68568 0.0
C5343 C 0.35758 0.172 0.71416 0.0
N5344 N 0.3147 0.16793 0.64542 0.0
N5345 N 0.34484 0.16297 0.69445 0.0
H5346 H 0.87623 0.18077 0.63569 0.0
H5347 H 0.78043 0.14642 0.70978 0.0
H5348 H 0.82865 0.12957 0.61784 0.0
H5349 H 0.82861 0.19658 0.72999 0.0
H5350 H 0.79796 0.13953 0.67622 0.0
H5351 H 0.85857 0.18766 0.66898 0.0
C5352 C 0.86195 0.17121 0.63854 0.0
C5353 C 0.85367 0.15464 0.62455 0.0
C5354 C 0.80474 0.15198 0.68816 0.0
C5355 C 0.83373 0.16192 0.66248 0.0
C5356 C 0.7948 0.15574 0.70738 0.0
C5357 C 0.80331 0.17201 0.72216 0.0
C5358 C 0.82311 0.16477 0.68388 0.0
C5359 C 0.82181 0.18393 0.71859 0.0
C5360 C 0.85195 0.17496 0.65762 0.0
C5361 C 0.8353 0.14243 0.62867 0.0
N5362 N 0.83115 0.18014 0.69952 0.0
N5363 N 0.82588 0.14626 0.64755 0.0
H5364 H 0.03417 0.53488 0.55209 0.0
H5365 H 0.95817 0.45879 0.45607 0.0
H5366 H 0.0237 0.48001 0.54883 0.0
H5367 H 0.96978 0.51406 0.45804 0.0
H5368 H 0.98304 0.46647 0.48848 0.0
H5369 H 0.01035 0.52742 0.51776 0.0
C5370 C 0.02658 0.52119 0.54421 0.0
C5371 C 0.03068 0.508 0.55277 0.0
C5372 C 0.98029 0.47698 0.48171 0.0
C5373 C 0.00388 0.49938 0.51355 0.0
C5374 C 0.96621 0.4726 0.46322 0.0
C5375 C 0.96204 0.48582 0.45505 0.0
C5376 C 0.99007 0.4947 0.49201 0.0
C5377 C 0.97275 0.50359 0.46423 0.0
C5378 C 0.01315 0.51695 0.52456 0.0
C5379 C 0.0207 0.49041 0.54245 0.0
N5380 N 0.98629 0.50754 0.48264 0.0
N5381 N 0.00768 0.48658 0.52304 0.0
H5382 H 0.48411 0.50516 0.58308 0.0
H5383 H 0.51009 0.49033 0.42881 0.0
H5384 H 0.49685 0.54331 0.51531 0.0
H5385 H 0.49646 0.45172 0.49617 0.0
H5386 H 0.50443 0.50954 0.45989 0.0
H5387 H 0.4896 0.48584 0.5519 0.0
C5388 C 0.48852 0.50966 0.56176 0.0
C5389 C 0.49016 0.52583 0.55162 0.0
C5390 C 0.50249 0.49679 0.46783 0.0
C5391 C 0.49578 0.50358 0.51573 0.0
C5392 C 0.50545 0.4857 0.45 0.0
C5393 C 0.50362 0.46942 0.46006 0.0
C5394 C 0.49781 0.49159 0.49588 0.0
C5395 C 0.49806 0.46425 0.4878 0.0
C5396 C 0.49137 0.49851 0.54389 0.0
C5397 C 0.49542 0.53086 0.52374 0.0
N5398 N 0.49545 0.47541 0.50491 0.0
N5399 N 0.49796 0.51967 0.50661 0.0
H5400 H 0.45021 0.95092 0.51266 0.0
H5401 H 0.54276 0.04501 0.5001 0.0
H5402 H 0.48699 0.9765 0.58189 0.0
H5403 H 0.50578 0.01874 0.43127 0.0
H5404 H 0.52279 0.01976 0.53063 0.0
H5405 H 0.47025 0.9763 0.4826 0.0
C5406 C 0.46238 0.96207 0.52153 0.0
C5407 C 0.46703 0.96179 0.54959 0.0
C5408 C 0.51918 0.01946 0.50875 0.0
C5409 C 0.49005 0.99049 0.51562 0.0
C5410 C 0.5306 0.03376 0.4914 0.0
C5411 C 0.52589 0.03381 0.46326 0.0
C5412 C 0.503 0.0053 0.49774 0.0
C5413 C 0.51004 0.01903 0.45278 0.0
C5414 C 0.47385 0.97646 0.50444 0.0
C5415 C 0.48287 0.97643 0.56035 0.0
N5416 N 0.49907 0.00539 0.47013 0.0
N5417 N 0.49395 0.9902 0.54322 0.0
H5418 H 0.47857 0.02321 0.95745 0.0
H5419 H 0.51392 0.97336 0.05974 0.0
H5420 H 0.53423 0.03634 0.96355 0.0
H5421 H 0.458 0.95923 0.05279 0.0
H5422 H 0.5221 -0.00168 0.02687 0.0
H5423 H 0.47048 -0.00036 0.99309 0.0
C5424 C 0.48894 0.02083 0.96608 0.0
C5425 C 0.507 0.03152 0.95815 0.0
C5426 C 0.50804 0.98984 0.03274 0.0
C5427 C 0.49823 0.00537 0.99862 0.0
C5428 C 0.50348 0.97581 0.0516 0.0
C5429 C 0.48531 0.96431 0.05825 0.0
C5430 C 0.49424 0.99211 0.02078 0.0
C5431 C 0.47211 0.96779 0.04753 0.0
C5432 C 0.48446 0.00764 0.9865 0.0
C5433 C 0.52018 0.02828 0.9696 0.0
N5434 N 0.47681 0.98135 0.02896 0.0
N5435 N 0.51555 0.01549 0.98952 0.0
H5436 H 0.96445 0.44814 0.97306 0.0
H5437 H 0.02935 0.54673 0.03635 0.0
H5438 H 0.96521 0.49637 0.94422 0.0
H5439 H 0.02722 0.49815 0.06682 0.0
H5440 H 0.00547 0.52851 1.00239 0.0
H5441 H 0.98884 0.46654 0.00614 0.0
C5442 C 0.97012 0.46269 0.97346 0.0
C5443 C 0.96317 0.47099 0.9563 0.0
C5444 C 0.01012 0.52181 0.01665 0.0
C5445 C 0.99017 0.49184 0.99407 0.0
C5446 C 0.0235 0.53216 0.03607 0.0
C5447 C 0.02985 0.52368 0.05406 0.0
C5448 C 0.00347 0.50305 0.0153 0.0
C5449 C 0.02234 0.50492 0.05311 0.0
C5450 C 0.98379 0.47314 0.9924 0.0
C5451 C 0.97049 0.48973 0.95737 0.0
N5452 N 0.00956 0.49515 0.03378 0.0
N5453 N 0.98358 0.4996 0.97624 0.0
H5454 H 0.49551 0.46224 0.9511 0.0
H5455 H 0.50021 0.53353 0.06331 0.0
H5456 H 0.54304 0.51413 0.96525 0.0
H5457 H 0.45323 0.481 0.05065 0.0
H5458 H 0.51663 0.52638 0.02842 0.0
H5459 H 0.47932 0.46924 0.98661 0.0
C5460 C 0.50231 0.47527 0.96147 0.0
C5461 C 0.52044 0.48767 0.95579 0.0
C5462 C 0.50282 0.51629 0.03348 0.0
C5463 C 0.50249 0.49565 0.99637 0.0
C5464 C 0.49359 0.52033 0.05347 0.0
C5465 C 0.47553 0.50779 0.05935 0.0
C5466 C 0.49373 0.49966 0.0194 0.0
C5467 C 0.46726 0.49086 0.04646 0.0
C5468 C 0.49322 0.47921 0.9818 0.0
C5469 C 0.52897 0.50438 0.96933 0.0
N5470 N 0.47643 0.4873 0.02668 0.0
N5471 N 0.51989 0.50789 0.98937 0.0
loop_
_geom_bond_atom_site_label_1
_geom_bond_atom_site_label_2
_geom_bond_distance
_geom_bond_site_symmetry_2
_ccdc_geom_bond_type
Cd0 O57 2.350 . S
Cd0 O58 2.277 1_554 S
Cd0 O65 2.173 1_554 S
Cd0 O67 2.263 . S
Cd0 O69 2.366 . S
Cd0 O72 2.329 1_554 S
C1 O65 1.277 . S
C1 O66 1.230 . S
C2 O3 1.246 . S
C2 C5 1.481 . S
C2 N27 1.329 . S
O3 C2 1.246 . S
Cd4 O66 2.250 . S
Cd4 O68 2.308 1_556 S
Cd4 O71 2.352 . S
C5 C2 1.481 . S
C5 N8 1.327 . S
C5 C9 1.407 . S
C6 C7 1.346 . S
C6 C10 1.390 . S
C6 H74 0.930 . S
C7 C6 1.346 . S
C7 N8 1.342 . S
C7 C12 1.516 . S
N8 C5 1.327 . S
N8 C7 1.342 . S
N8 Co11 1.864 . S
C9 C5 1.407 . S
C9 C10 1.364 . S
C9 H75 0.930 . S
C10 C6 1.390 . S
C10 C9 1.364 . S
C10 H76 0.931 . S
Co11 N8 1.864 . S
Co11 N27 1.955 . S
Co11 N28 1.958 . S
Co11 N29 1.953 . S
Co11 N47 1.869 . S
Co11 N53 1.974 . S
C12 C7 1.516 . S
C12 O13 1.238 . S
C12 N28 1.324 . S
O13 C12 1.238 . S
C14 C15 1.394 . S
C14 C19 1.395 . S
C14 N28 1.427 . S
C15 C14 1.394 . S
C15 C16 1.380 . S
C15 H77 0.929 . S
C16 C15 1.380 . S
C16 C17 1.384 . S
C16 C20 1.495 . S
C17 C16 1.384 . S
C17 C18 1.382 . S
C17 H78 0.930 . S
C18 C17 1.382 . S
C18 C19 1.398 . S
C19 C14 1.395 . S
C19 C18 1.398 . S
C19 H79 0.930 . S
C20 C16 1.495 . S
C20 O67 1.258 . S
C20 O68 1.274 . S
C21 C22 1.385 . S
C21 C23 1.381 . S
C21 N27 1.432 . S
C22 C21 1.385 . S
C22 C26 1.388 . S
C22 H80 0.929 . S
C23 C21 1.381 . S
C23 C24 1.371 . S
C23 H81 0.932 . S
C24 C23 1.371 . S
C24 C25 1.400 . S
C25 C24 1.400 . S
C25 C26 1.351 . S
C25 H82 0.930 . S
C26 C22 1.388 . S
C26 C25 1.351 . S
N27 C2 1.329 . S
N27 Co11 1.955 . S
N27 C21 1.432 . S
N28 Co11 1.958 . S
N28 C12 1.324 . S
N28 C14 1.427 . S
N29 Co11 1.953 . S
N29 C30 1.436 . S
N29 C56 1.316 . S
C30 N29 1.436 . S
C30 C31 1.421 . S
C30 C32 1.360 . S
C31 C30 1.421 . S
C31 C33 1.379 . S
C31 H34 0.929 . S
C32 C30 1.360 . S
C32 C36 1.393 . S
C32 H38 0.931 . S
C33 C31 1.379 . S
C33 C35 1.417 . S
C33 C37 1.505 . S
H34 C31 0.929 . S
C35 C33 1.417 . S
C35 C36 1.352 . S
C35 H39 0.929 . S
C36 C32 1.393 . S
C36 C35 1.352 . S
C36 C40 1.482 . S
C37 C33 1.505 . S
C37 O41 1.259 . S
C37 O42 1.229 . S
H38 C32 0.931 . S
H39 C35 0.929 . S
C40 C36 1.482 . S
C40 O43 1.207 . S
C40 O44 1.289 . S
O41 C37 1.259 . S
O41 H45 0.822 . S
O42 C37 1.229 . S
O43 C40 1.207 . S
O44 C40 1.289 . S
O44 H46 0.819 . S
H45 O41 0.822 . S
H46 O44 0.819 . S
N47 Co11 1.869 . S
N47 C48 1.330 . S
N47 C52 1.325 . S
C48 N47 1.330 . S
C48 C49 1.359 . S
C48 C54 1.504 . S
C49 C48 1.359 . S
C49 C50 1.366 . S
C49 H83 0.929 . S
C50 C49 1.366 . S
C50 C51 1.415 . S
C50 H84 0.932 . S
C51 C50 1.415 . S
C51 C52 1.366 . S
C51 H85 0.931 . S
C52 N47 1.325 . S
C52 C51 1.366 . S
C52 C56 1.516 . S
N53 Co11 1.974 . S
N53 C54 1.309 . S
N53 C59 1.423 . S
C54 C48 1.504 . S
C54 N53 1.309 . S
C54 O55 1.258 . S
O55 C54 1.258 . S
C56 N29 1.316 . S
C56 C52 1.516 . S
C56 O69 1.263 . S
O57 Cd0 2.350 . S
O57 C73 1.270 . S
O58 Cd0 2.277 1_556 S
O58 C73 1.248 1_556 S
C59 N53 1.423 . S
C59 C60 1.370 . S
C59 C64 1.403 . S
C60 C59 1.370 . S
C60 C61 1.389 . S
C60 H86 0.931 . S
C61 C60 1.389 . S
C61 C62 1.389 . S
C62 C61 1.389 . S
C62 C63 1.379 . S
C62 H87 0.929 . S
C63 C62 1.379 . S
C63 C64 1.405 . S
C64 C59 1.403 . S
C64 C63 1.405 . S
C64 H88 0.932 . S
O65 Cd0 2.173 1_556 S
O65 C1 1.277 . S
O66 C1 1.230 . S
O66 Cd4 2.250 . S
O67 Cd0 2.263 . S
O67 C20 1.258 . S
O68 Cd4 2.308 1_554 S
O68 C20 1.274 . S
O69 Cd0 2.366 . S
O69 C56 1.263 . S
C70 O71 1.235 . S
C70 O72 1.270 . S
O71 Cd4 2.352 . S
O71 C70 1.235 . S
O72 Cd0 2.329 1_556 S
O72 C70 1.270 . S
C73 O57 1.270 . S
C73 O58 1.248 1_554 S
H74 C6 0.930 . S
H75 C9 0.930 . S
H76 C10 0.931 . S
H77 C15 0.929 . S
H78 C17 0.930 . S
H79 C19 0.930 . S
H80 C22 0.929 . S
H81 C23 0.932 . S
H82 C25 0.930 . S
H83 C49 0.929 . S
H84 C50 0.932 . S
H85 C51 0.931 . S
H86 C60 0.931 . S
H87 C62 0.929 . S
H88 C64 0.932 . S
Cd89 O146 2.350 . S
Cd89 O147 2.277 1_554 S
Cd89 O154 2.173 1_554 S
Cd89 O156 2.263 . S
Cd89 O158 2.366 . S
Cd89 O161 2.329 1_554 S
C90 O154 1.277 . S
C90 O155 1.230 . S
C91 O92 1.246 . S
C91 C94 1.481 . S
C91 N116 1.329 . S
O92 C91 1.246 . S
Cd93 O155 2.250 . S
Cd93 O157 2.308 1_556 S
Cd93 O160 2.352 . S
C94 C91 1.481 . S
C94 N97 1.327 . S
C94 C98 1.407 . S
C95 C96 1.346 . S
C95 C99 1.390 . S
C95 H163 0.930 . S
C96 C95 1.346 . S
C96 N97 1.342 . S
C96 C101 1.516 . S
N97 C94 1.327 . S
N97 C96 1.342 . S
N97 Co100 1.864 . S
C98 C94 1.407 . S
C98 C99 1.364 . S
C98 H164 0.930 . S
C99 C95 1.390 . S
C99 C98 1.364 . S
C99 H165 0.931 . S
Co100 N97 1.864 . S
Co100 N116 1.955 . S
Co100 N117 1.958 . S
Co100 N118 1.953 . S
Co100 N136 1.869 . S
Co100 N142 1.974 . S
C101 C96 1.516 . S
C101 O102 1.238 . S
C101 N117 1.324 . S
O102 C101 1.238 . S
C103 C104 1.394 . S
C103 C108 1.395 . S
C103 N117 1.427 . S
C104 C103 1.394 . S
C104 C105 1.380 . S
C104 H166 0.929 . S
C105 C104 1.380 . S
C105 C106 1.384 . S
C105 C109 1.495 . S
C106 C105 1.384 . S
C106 C107 1.382 . S
C106 H167 0.930 . S
C107 C106 1.382 . S
C107 C108 1.398 . S
C108 C103 1.395 . S
C108 C107 1.398 . S
C108 H168 0.930 . S
C109 C105 1.495 . S
C109 O156 1.258 . S
C109 O157 1.274 . S
C110 C111 1.385 . S
C110 C112 1.381 . S
C110 N116 1.432 . S
C111 C110 1.385 . S
C111 C115 1.388 . S
C111 H169 0.929 . S
C112 C110 1.381 . S
C112 C113 1.371 . S
C112 H170 0.932 . S
C113 C112 1.371 . S
C113 C114 1.400 . S
C114 C113 1.400 . S
C114 C115 1.351 . S
C114 H171 0.930 . S
C115 C111 1.388 . S
C115 C114 1.351 . S
N116 C91 1.329 . S
N116 Co100 1.955 . S
N116 C110 1.432 . S
N117 Co100 1.958 . S
N117 C101 1.324 . S
N117 C103 1.427 . S
N118 Co100 1.953 . S
N118 C119 1.436 . S
N118 C145 1.316 . S
C119 N118 1.436 . S
C119 C120 1.421 . S
C119 C121 1.360 . S
C120 C119 1.421 . S
C120 C122 1.379 . S
C120 H123 0.929 . S
C121 C119 1.360 . S
C121 C125 1.393 . S
C121 H127 0.931 . S
C122 C120 1.379 . S
C122 C124 1.417 . S
C122 C126 1.505 . S
H123 C120 0.929 . S
C124 C122 1.417 . S
C124 C125 1.352 . S
C124 H128 0.929 . S
C125 C121 1.393 . S
C125 C124 1.352 . S
C125 C129 1.482 . S
C126 C122 1.505 . S
C126 O130 1.259 . S
C126 O131 1.229 . S
H127 C121 0.931 . S
H128 C124 0.929 . S
C129 C125 1.482 . S
C129 O132 1.207 . S
C129 O133 1.289 . S
O130 C126 1.259 . S
O130 H134 0.822 . S
O131 C126 1.229 . S
O132 C129 1.207 . S
O133 C129 1.289 . S
O133 H135 0.819 . S
H134 O130 0.822 . S
H135 O133 0.819 . S
N136 Co100 1.869 . S
N136 C137 1.330 . S
N136 C141 1.325 . S
C137 N136 1.330 . S
C137 C138 1.359 . S
C137 C143 1.504 . S
C138 C137 1.359 . S
C138 C139 1.366 . S
C138 H172 0.929 . S
C139 C138 1.366 . S
C139 C140 1.415 . S
C139 H173 0.932 . S
C140 C139 1.415 . S
C140 C141 1.366 . S
C140 H174 0.931 . S
C141 N136 1.325 . S
C141 C140 1.366 . S
C141 C145 1.516 . S
N142 Co100 1.974 . S
N142 C143 1.309 . S
N142 C148 1.423 . S
C143 C137 1.504 . S
C143 N142 1.309 . S
C143 O144 1.258 . S
O144 C143 1.258 . S
C145 N118 1.316 . S
C145 C141 1.516 . S
C145 O158 1.263 . S
O146 Cd89 2.350 . S
O146 C162 1.270 . S
O147 Cd89 2.277 1_556 S
O147 C162 1.248 1_556 S
C148 N142 1.423 . S
C148 C149 1.370 . S
C148 C153 1.403 . S
C149 C148 1.370 . S
C149 C150 1.389 . S
C149 H175 0.931 . S
C150 C149 1.389 . S
C150 C151 1.389 . S
C151 C150 1.389 . S
C151 C152 1.379 . S
C151 H176 0.929 . S
C152 C151 1.379 . S
C152 C153 1.405 . S
C153 C148 1.403 . S
C153 C152 1.405 . S
C153 H177 0.932 . S
O154 Cd89 2.173 1_556 S
O154 C90 1.277 . S
O155 C90 1.230 . S
O155 Cd93 2.250 . S
O156 Cd89 2.263 . S
O156 C109 1.258 . S
O157 Cd93 2.308 1_554 S
O157 C109 1.274 . S
O158 Cd89 2.366 . S
O158 C145 1.263 . S
C159 O160 1.235 . S
C159 O161 1.270 . S
O160 Cd93 2.352 . S
O160 C159 1.235 . S
O161 Cd89 2.329 1_556 S
O161 C159 1.270 . S
C162 O146 1.270 . S
C162 O147 1.248 1_554 S
H163 C95 0.930 . S
H164 C98 0.930 . S
H165 C99 0.931 . S
H166 C104 0.929 . S
H167 C106 0.930 . S
H168 C108 0.930 . S
H169 C111 0.929 . S
H170 C112 0.932 . S
H171 C114 0.930 . S
H172 C138 0.929 . S
H173 C139 0.932 . S
H174 C140 0.931 . S
H175 C149 0.931 . S
H176 C151 0.929 . S
H177 C153 0.932 . S
Cd178 O235 2.350 . S
Cd178 O236 2.277 1_554 S
Cd178 O243 2.173 1_554 S
Cd178 O245 2.263 . S
Cd178 O247 2.366 . S
Cd178 O250 2.329 1_554 S
C179 O243 1.277 . S
C179 O244 1.230 . S
C180 O181 1.246 . S
C180 C183 1.481 . S
C180 N205 1.329 . S
O181 C180 1.246 . S
Cd182 O244 2.250 . S
Cd182 O246 2.308 1_556 S
Cd182 O249 2.352 . S
C183 C180 1.481 . S
C183 N186 1.327 . S
C183 C187 1.407 . S
C184 C185 1.346 . S
C184 C188 1.390 . S
C184 H252 0.930 . S
C185 C184 1.346 . S
C185 N186 1.342 . S
C185 C190 1.516 . S
N186 C183 1.327 . S
N186 C185 1.342 . S
N186 Co189 1.864 . S
C187 C183 1.407 . S
C187 C188 1.364 . S
C187 H253 0.930 . S
C188 C184 1.390 . S
C188 C187 1.364 . S
C188 H254 0.931 . S
Co189 N186 1.864 . S
Co189 N205 1.955 . S
Co189 N206 1.958 . S
Co189 N207 1.953 . S
Co189 N225 1.869 . S
Co189 N231 1.974 . S
C190 C185 1.516 . S
C190 O191 1.238 . S
C190 N206 1.324 . S
O191 C190 1.238 . S
C192 C193 1.394 . S
C192 C197 1.395 . S
C192 N206 1.427 . S
C193 C192 1.394 . S
C193 C194 1.380 . S
C193 H255 0.929 . S
C194 C193 1.380 . S
C194 C195 1.384 . S
C194 C198 1.495 . S
C195 C194 1.384 . S
C195 C196 1.382 . S
C195 H256 0.930 . S
C196 C195 1.382 . S
C196 C197 1.398 . S
C197 C192 1.395 . S
C197 C196 1.398 . S
C197 H257 0.930 . S
C198 C194 1.495 . S
C198 O245 1.258 . S
C198 O246 1.274 . S
C199 C200 1.385 . S
C199 C201 1.381 . S
C199 N205 1.432 . S
C200 C199 1.385 . S
C200 C204 1.388 . S
C200 H258 0.929 . S
C201 C199 1.381 . S
C201 C202 1.371 . S
C201 H259 0.932 . S
C202 C201 1.371 . S
C202 C203 1.400 . S
C203 C202 1.400 . S
C203 C204 1.351 . S
C203 H260 0.930 . S
C204 C200 1.388 . S
C204 C203 1.351 . S
N205 C180 1.329 . S
N205 Co189 1.955 . S
N205 C199 1.432 . S
N206 Co189 1.958 . S
N206 C190 1.324 . S
N206 C192 1.427 . S
N207 Co189 1.953 . S
N207 C208 1.436 . S
N207 C234 1.316 . S
C208 N207 1.436 . S
C208 C209 1.421 . S
C208 C210 1.360 . S
C209 C208 1.421 . S
C209 C211 1.379 . S
C209 H212 0.929 . S
C210 C208 1.360 . S
C210 C214 1.393 . S
C210 H216 0.931 . S
C211 C209 1.379 . S
C211 C213 1.417 . S
C211 C215 1.505 . S
H212 C209 0.929 . S
C213 C211 1.417 . S
C213 C214 1.352 . S
C213 H217 0.929 . S
C214 C210 1.393 . S
C214 C213 1.352 . S
C214 C218 1.482 . S
C215 C211 1.505 . S
C215 O219 1.259 . S
C215 O220 1.229 . S
H216 C210 0.931 . S
H217 C213 0.929 . S
C218 C214 1.482 . S
C218 O221 1.207 . S
C218 O222 1.289 . S
O219 C215 1.259 . S
O219 H223 0.822 . S
O220 C215 1.229 . S
O221 C218 1.207 . S
O222 C218 1.289 . S
O222 H224 0.819 . S
H223 O219 0.822 . S
H224 O222 0.819 . S
N225 Co189 1.869 . S
N225 C226 1.330 . S
N225 C230 1.325 . S
C226 N225 1.330 . S
C226 C227 1.359 . S
C226 C232 1.504 . S
C227 C226 1.359 . S
C227 C228 1.366 . S
C227 H261 0.929 . S
C228 C227 1.366 . S
C228 C229 1.415 . S
C228 H262 0.932 . S
C229 C228 1.415 . S
C229 C230 1.366 . S
C229 H263 0.931 . S
C230 N225 1.325 . S
C230 C229 1.366 . S
C230 C234 1.516 . S
N231 Co189 1.974 . S
N231 C232 1.309 . S
N231 C237 1.423 . S
C232 C226 1.504 . S
C232 N231 1.309 . S
C232 O233 1.258 . S
O233 C232 1.258 . S
C234 N207 1.316 . S
C234 C230 1.516 . S
C234 O247 1.263 . S
O235 Cd178 2.350 . S
O235 C251 1.270 . S
O236 Cd178 2.277 1_556 S
O236 C251 1.248 1_556 S
C237 N231 1.423 . S
C237 C238 1.370 . S
C237 C242 1.403 . S
C238 C237 1.370 . S
C238 C239 1.389 . S
C238 H264 0.931 . S
C239 C238 1.389 . S
C239 C240 1.389 . S
C240 C239 1.389 . S
C240 C241 1.379 . S
C240 H265 0.929 . S
C241 C240 1.379 . S
C241 C242 1.405 . S
C242 C237 1.403 . S
C242 C241 1.405 . S
C242 H266 0.932 . S
O243 Cd178 2.173 1_556 S
O243 C179 1.277 . S
O244 C179 1.230 . S
O244 Cd182 2.250 . S
O245 Cd178 2.263 . S
O245 C198 1.258 . S
O246 Cd182 2.308 1_554 S
O246 C198 1.274 . S
O247 Cd178 2.366 . S
O247 C234 1.263 . S
C248 O249 1.235 . S
C248 O250 1.270 . S
O249 Cd182 2.352 . S
O249 C248 1.235 . S
O250 Cd178 2.329 1_556 S
O250 C248 1.270 . S
C251 O235 1.270 . S
C251 O236 1.248 1_554 S
H252 C184 0.930 . S
H253 C187 0.930 . S
H254 C188 0.931 . S
H255 C193 0.929 . S
H256 C195 0.930 . S
H257 C197 0.930 . S
H258 C200 0.929 . S
H259 C201 0.932 . S
H260 C203 0.930 . S
H261 C227 0.929 . S
H262 C228 0.932 . S
H263 C229 0.931 . S
H264 C238 0.931 . S
H265 C240 0.929 . S
H266 C242 0.932 . S
Cd267 O324 2.350 . S
Cd267 O325 2.277 . S
Cd267 O332 2.173 . S
Cd267 O334 2.263 . S
Cd267 O336 2.366 . S
Cd267 O339 2.329 . S
C268 O332 1.277 . S
C268 O333 1.230 . S
C269 O270 1.246 . S
C269 C272 1.481 . S
C269 N294 1.329 . S
O270 C269 1.246 . S
Cd271 O333 2.250 . S
Cd271 O335 2.308 . S
Cd271 O338 2.352 . S
C272 C269 1.481 . S
C272 N275 1.327 . S
C272 C276 1.407 . S
C273 C274 1.346 . S
C273 C277 1.390 . S
C273 H341 0.930 . S
C274 C273 1.346 . S
C274 N275 1.342 . S
C274 C279 1.516 . S
N275 C272 1.327 . S
N275 C274 1.342 . S
N275 Co278 1.864 . S
C276 C272 1.407 . S
C276 C277 1.364 . S
C276 H342 0.930 . S
C277 C273 1.390 . S
C277 C276 1.364 . S
C277 H343 0.931 . S
Co278 N275 1.864 . S
Co278 N294 1.955 . S
Co278 N295 1.958 . S
Co278 N296 1.953 . S
Co278 N314 1.869 . S
Co278 N320 1.974 . S
C279 C274 1.516 . S
C279 O280 1.238 . S
C279 N295 1.324 . S
O280 C279 1.238 . S
C281 C282 1.394 . S
C281 C286 1.395 . S
C281 N295 1.427 . S
C282 C281 1.394 . S
C282 C283 1.380 . S
C282 H344 0.929 . S
C283 C282 1.380 . S
C283 C284 1.384 . S
C283 C287 1.495 . S
C284 C283 1.384 . S
C284 C285 1.382 . S
C284 H345 0.930 . S
C285 C284 1.382 . S
C285 C286 1.398 . S
C286 C281 1.395 . S
C286 C285 1.398 . S
C286 H346 0.930 . S
C287 C283 1.495 . S
C287 O334 1.258 . S
C287 O335 1.274 . S
C288 C289 1.385 . S
C288 C290 1.381 . S
C288 N294 1.432 . S
C289 C288 1.385 . S
C289 C293 1.388 . S
C289 H347 0.929 . S
C290 C288 1.381 . S
C290 C291 1.371 . S
C290 H348 0.932 . S
C291 C290 1.371 . S
C291 C292 1.400 . S
C292 C291 1.400 . S
C292 C293 1.351 . S
C292 H349 0.930 . S
C293 C289 1.388 . S
C293 C292 1.351 . S
N294 C269 1.329 . S
N294 Co278 1.955 . S
N294 C288 1.432 . S
N295 Co278 1.958 . S
N295 C279 1.324 . S
N295 C281 1.427 . S
N296 Co278 1.953 . S
N296 C297 1.436 . S
N296 C323 1.316 . S
C297 N296 1.436 . S
C297 C298 1.421 . S
C297 C299 1.360 . S
C298 C297 1.421 . S
C298 C300 1.379 . S
C298 H301 0.929 . S
C299 C297 1.360 . S
C299 C303 1.393 . S
C299 H305 0.931 . S
C300 C298 1.379 . S
C300 C302 1.417 . S
C300 C304 1.505 . S
H301 C298 0.929 . S
C302 C300 1.417 . S
C302 C303 1.352 . S
C302 H306 0.929 . S
C303 C299 1.393 . S
C303 C302 1.352 . S
C303 C307 1.482 . S
C304 C300 1.505 . S
C304 O308 1.259 . S
C304 O309 1.229 . S
H305 C299 0.931 . S
H306 C302 0.929 . S
C307 C303 1.482 . S
C307 O310 1.207 . S
C307 O311 1.289 . S
O308 C304 1.259 . S
O308 H312 0.822 . S
O309 C304 1.229 . S
O310 C307 1.207 . S
O311 C307 1.289 . S
O311 H313 0.819 . S
H312 O308 0.822 . S
H313 O311 0.819 . S
N314 Co278 1.869 . S
N314 C315 1.330 . S
N314 C319 1.325 . S
C315 N314 1.330 . S
C315 C316 1.359 . S
C315 C321 1.504 . S
C316 C315 1.359 . S
C316 C317 1.366 . S
C316 H350 0.929 . S
C317 C316 1.366 . S
C317 C318 1.415 . S
C317 H351 0.932 . S
C318 C317 1.415 . S
C318 C319 1.366 . S
C318 H352 0.931 . S
C319 N314 1.325 . S
C319 C318 1.366 . S
C319 C323 1.516 . S
N320 Co278 1.974 . S
N320 C321 1.309 . S
N320 C326 1.423 . S
C321 C315 1.504 . S
C321 N320 1.309 . S
C321 O322 1.258 . S
O322 C321 1.258 . S
C323 N296 1.316 . S
C323 C319 1.516 . S
C323 O336 1.263 . S
O324 Cd267 2.350 . S
O324 C340 1.270 . S
O325 Cd267 2.277 . S
O325 C340 1.248 . S
C326 N320 1.423 . S
C326 C327 1.370 . S
C326 C331 1.403 . S
C327 C326 1.370 . S
C327 C328 1.389 . S
C327 H353 0.931 . S
C328 C327 1.389 . S
C328 C329 1.389 . S
C329 C328 1.389 . S
C329 C330 1.379 . S
C329 H354 0.929 . S
C330 C329 1.379 . S
C330 C331 1.405 . S
C331 C326 1.403 . S
C331 C330 1.405 . S
C331 H355 0.932 . S
O332 Cd267 2.173 . S
O332 C268 1.277 . S
O333 C268 1.230 . S
O333 Cd271 2.250 . S
O334 Cd267 2.263 . S
O334 C287 1.258 . S
O335 Cd271 2.308 . S
O335 C287 1.274 . S
O336 Cd267 2.366 . S
O336 C323 1.263 . S
C337 O338 1.235 . S
C337 O339 1.270 . S
O338 Cd271 2.352 . S
O338 C337 1.235 . S
O339 Cd267 2.329 . S
O339 C337 1.270 . S
C340 O324 1.270 . S
C340 O325 1.248 . S
H341 C273 0.930 . S
H342 C276 0.930 . S
H343 C277 0.931 . S
H344 C282 0.929 . S
H345 C284 0.930 . S
H346 C286 0.930 . S
H347 C289 0.929 . S
H348 C290 0.932 . S
H349 C292 0.930 . S
H350 C316 0.929 . S
H351 C317 0.932 . S
H352 C318 0.931 . S
H353 C327 0.931 . S
H354 C329 0.929 . S
H355 C331 0.932 . S
Cd356 O413 2.350 . S
Cd356 O414 2.277 . S
Cd356 O421 2.173 . S
Cd356 O423 2.263 . S
Cd356 O425 2.366 . S
Cd356 O428 2.329 . S
C357 O421 1.277 . S
C357 O422 1.230 . S
C358 O359 1.246 . S
C358 C361 1.481 . S
C358 N383 1.329 . S
O359 C358 1.246 . S
Cd360 O422 2.250 . S
Cd360 O424 2.308 . S
Cd360 O427 2.352 . S
C361 C358 1.481 . S
C361 N364 1.327 . S
C361 C365 1.407 . S
C362 C363 1.346 . S
C362 C366 1.390 . S
C362 H430 0.930 . S
C363 C362 1.346 . S
C363 N364 1.342 . S
C363 C368 1.516 . S
N364 C361 1.327 . S
N364 C363 1.342 . S
N364 Co367 1.864 . S
C365 C361 1.407 . S
C365 C366 1.364 . S
C365 H431 0.930 . S
C366 C362 1.390 . S
C366 C365 1.364 . S
C366 H432 0.931 . S
Co367 N364 1.864 . S
Co367 N383 1.955 . S
Co367 N384 1.958 . S
Co367 N385 1.953 . S
Co367 N403 1.869 . S
Co367 N409 1.974 . S
C368 C363 1.516 . S
C368 O369 1.238 . S
C368 N384 1.324 . S
O369 C368 1.238 . S
C370 C371 1.394 . S
C370 C375 1.395 . S
C370 N384 1.427 . S
C371 C370 1.394 . S
C371 C372 1.380 . S
C371 H433 0.929 . S
C372 C371 1.380 . S
C372 C373 1.384 . S
C372 C376 1.495 . S
C373 C372 1.384 . S
C373 C374 1.382 . S
C373 H434 0.930 . S
C374 C373 1.382 . S
C374 C375 1.398 . S
C375 C370 1.395 . S
C375 C374 1.398 . S
C375 H435 0.930 . S
C376 C372 1.495 . S
C376 O423 1.258 . S
C376 O424 1.274 . S
C377 C378 1.385 . S
C377 C379 1.381 . S
C377 N383 1.432 . S
C378 C377 1.385 . S
C378 C382 1.388 . S
C378 H436 0.929 . S
C379 C377 1.381 . S
C379 C380 1.371 . S
C379 H437 0.932 . S
C380 C379 1.371 . S
C380 C381 1.400 . S
C381 C380 1.400 . S
C381 C382 1.351 . S
C381 H438 0.930 . S
C382 C378 1.388 . S
C382 C381 1.351 . S
N383 C358 1.329 . S
N383 Co367 1.955 . S
N383 C377 1.432 . S
N384 Co367 1.958 . S
N384 C368 1.324 . S
N384 C370 1.427 . S
N385 Co367 1.953 . S
N385 C386 1.436 . S
N385 C412 1.316 . S
C386 N385 1.436 . S
C386 C387 1.421 . S
C386 C388 1.360 . S
C387 C386 1.421 . S
C387 C389 1.379 . S
C387 H390 0.929 . S
C388 C386 1.360 . S
C388 C392 1.393 . S
C388 H394 0.931 . S
C389 C387 1.379 . S
C389 C391 1.417 . S
C389 C393 1.505 . S
H390 C387 0.929 . S
C391 C389 1.417 . S
C391 C392 1.352 . S
C391 H395 0.929 . S
C392 C388 1.393 . S
C392 C391 1.352 . S
C392 C396 1.482 . S
C393 C389 1.505 . S
C393 O397 1.259 . S
C393 O398 1.229 . S
H394 C388 0.931 . S
H395 C391 0.929 . S
C396 C392 1.482 . S
C396 O399 1.207 . S
C396 O400 1.289 . S
O397 C393 1.259 . S
O397 H401 0.822 . S
O398 C393 1.229 . S
O399 C396 1.207 . S
O400 C396 1.289 . S
O400 H402 0.819 . S
H401 O397 0.822 . S
H402 O400 0.819 . S
N403 Co367 1.869 . S
N403 C404 1.330 . S
N403 C408 1.325 . S
C404 N403 1.330 . S
C404 C405 1.359 . S
C404 C410 1.504 . S
C405 C404 1.359 . S
C405 C406 1.366 . S
C405 H439 0.929 . S
C406 C405 1.366 . S
C406 C407 1.415 . S
C406 H440 0.932 . S
C407 C406 1.415 . S
C407 C408 1.366 . S
C407 H441 0.931 . S
C408 N403 1.325 . S
C408 C407 1.366 . S
C408 C412 1.516 . S
N409 Co367 1.974 . S
N409 C410 1.309 . S
N409 C415 1.423 . S
C410 C404 1.504 . S
C410 N409 1.309 . S
C410 O411 1.258 . S
O411 C410 1.258 . S
C412 N385 1.316 . S
C412 C408 1.516 . S
C412 O425 1.263 . S
O413 Cd356 2.350 . S
O413 C429 1.270 . S
O414 Cd356 2.277 . S
O414 C429 1.248 . S
C415 N409 1.423 . S
C415 C416 1.370 . S
C415 C420 1.403 . S
C416 C415 1.370 . S
C416 C417 1.389 . S
C416 H442 0.931 . S
C417 C416 1.389 . S
C417 C418 1.389 . S
C418 C417 1.389 . S
C418 C419 1.379 . S
C418 H443 0.929 . S
C419 C418 1.379 . S
C419 C420 1.405 . S
C420 C415 1.403 . S
C420 C419 1.405 . S
C420 H444 0.932 . S
O421 Cd356 2.173 . S
O421 C357 1.277 . S
O422 C357 1.230 . S
O422 Cd360 2.250 . S
O423 Cd356 2.263 . S
O423 C376 1.258 . S
O424 Cd360 2.308 . S
O424 C376 1.274 . S
O425 Cd356 2.366 . S
O425 C412 1.263 . S
C426 O427 1.235 . S
C426 O428 1.270 . S
O427 Cd360 2.352 . S
O427 C426 1.235 . S
O428 Cd356 2.329 . S
O428 C426 1.270 . S
C429 O413 1.270 . S
C429 O414 1.248 . S
H430 C362 0.930 . S
H431 C365 0.930 . S
H432 C366 0.931 . S
H433 C371 0.929 . S
H434 C373 0.930 . S
H435 C375 0.930 . S
H436 C378 0.929 . S
H437 C379 0.932 . S
H438 C381 0.930 . S
H439 C405 0.929 . S
H440 C406 0.932 . S
H441 C407 0.931 . S
H442 C416 0.931 . S
H443 C418 0.929 . S
H444 C420 0.932 . S
Cd445 O502 2.350 . S
Cd445 O503 2.277 . S
Cd445 O510 2.173 . S
Cd445 O512 2.263 . S
Cd445 O514 2.366 . S
Cd445 O517 2.329 . S
C446 O510 1.277 . S
C446 O511 1.230 . S
C447 O448 1.246 . S
C447 C450 1.481 . S
C447 N472 1.329 . S
O448 C447 1.246 . S
Cd449 O511 2.250 . S
Cd449 O513 2.308 . S
Cd449 O516 2.352 . S
C450 C447 1.481 . S
C450 N453 1.327 . S
C450 C454 1.407 . S
C451 C452 1.346 . S
C451 C455 1.390 . S
C451 H519 0.930 . S
C452 C451 1.346 . S
C452 N453 1.342 . S
C452 C457 1.516 . S
N453 C450 1.327 . S
N453 C452 1.342 . S
N453 Co456 1.864 . S
C454 C450 1.407 . S
C454 C455 1.364 . S
C454 H520 0.930 . S
C455 C451 1.390 . S
C455 C454 1.364 . S
C455 H521 0.931 . S
Co456 N453 1.864 . S
Co456 N472 1.955 . S
Co456 N473 1.958 . S
Co456 N474 1.953 . S
Co456 N492 1.869 . S
Co456 N498 1.974 . S
C457 C452 1.516 . S
C457 O458 1.238 . S
C457 N473 1.324 . S
O458 C457 1.238 . S
C459 C460 1.394 . S
C459 C464 1.395 . S
C459 N473 1.427 . S
C460 C459 1.394 . S
C460 C461 1.380 . S
C460 H522 0.929 . S
C461 C460 1.380 . S
C461 C462 1.384 . S
C461 C465 1.495 . S
C462 C461 1.384 . S
C462 C463 1.382 . S
C462 H523 0.930 . S
C463 C462 1.382 . S
C463 C464 1.398 . S
C464 C459 1.395 . S
C464 C463 1.398 . S
C464 H524 0.930 . S
C465 C461 1.495 . S
C465 O512 1.258 . S
C465 O513 1.274 . S
C466 C467 1.385 . S
C466 C468 1.381 . S
C466 N472 1.432 . S
C467 C466 1.385 . S
C467 C471 1.388 . S
C467 H525 0.929 . S
C468 C466 1.381 . S
C468 C469 1.371 . S
C468 H526 0.932 . S
C469 C468 1.371 . S
C469 C470 1.400 . S
C470 C469 1.400 . S
C470 C471 1.351 . S
C470 H527 0.930 . S
C471 C467 1.388 . S
C471 C470 1.351 . S
N472 C447 1.329 . S
N472 Co456 1.955 . S
N472 C466 1.432 . S
N473 Co456 1.958 . S
N473 C457 1.324 . S
N473 C459 1.427 . S
N474 Co456 1.953 . S
N474 C475 1.436 . S
N474 C501 1.316 . S
C475 N474 1.436 . S
C475 C476 1.421 . S
C475 C477 1.360 . S
C476 C475 1.421 . S
C476 C478 1.379 . S
C476 H479 0.929 . S
C477 C475 1.360 . S
C477 C481 1.393 . S
C477 H483 0.931 . S
C478 C476 1.379 . S
C478 C480 1.417 . S
C478 C482 1.505 . S
H479 C476 0.929 . S
C480 C478 1.417 . S
C480 C481 1.352 . S
C480 H484 0.929 . S
C481 C477 1.393 . S
C481 C480 1.352 . S
C481 C485 1.482 . S
C482 C478 1.505 . S
C482 O486 1.259 . S
C482 O487 1.229 . S
H483 C477 0.931 . S
H484 C480 0.929 . S
C485 C481 1.482 . S
C485 O488 1.207 . S
C485 O489 1.289 . S
O486 C482 1.259 . S
O486 H490 0.822 . S
O487 C482 1.229 . S
O488 C485 1.207 . S
O489 C485 1.289 . S
O489 H491 0.819 . S
H490 O486 0.822 . S
H491 O489 0.819 . S
N492 Co456 1.869 . S
N492 C493 1.330 . S
N492 C497 1.325 . S
C493 N492 1.330 . S
C493 C494 1.359 . S
C493 C499 1.504 . S
C494 C493 1.359 . S
C494 C495 1.366 . S
C494 H528 0.929 . S
C495 C494 1.366 . S
C495 C496 1.415 . S
C495 H529 0.932 . S
C496 C495 1.415 . S
C496 C497 1.366 . S
C496 H530 0.931 . S
C497 N492 1.325 . S
C497 C496 1.366 . S
C497 C501 1.516 . S
N498 Co456 1.974 . S
N498 C499 1.309 . S
N498 C504 1.423 . S
C499 C493 1.504 . S
C499 N498 1.309 . S
C499 O500 1.258 . S
O500 C499 1.258 . S
C501 N474 1.316 . S
C501 C497 1.516 . S
C501 O514 1.263 . S
O502 Cd445 2.350 . S
O502 C518 1.270 . S
O503 Cd445 2.277 . S
O503 C518 1.248 . S
C504 N498 1.423 . S
C504 C505 1.370 . S
C504 C509 1.403 . S
C505 C504 1.370 . S
C505 C506 1.389 . S
C505 H531 0.931 . S
C506 C505 1.389 . S
C506 C507 1.389 . S
C507 C506 1.389 . S
C507 C508 1.379 . S
C507 H532 0.929 . S
C508 C507 1.379 . S
C508 C509 1.405 . S
C509 C504 1.403 . S
C509 C508 1.405 . S
C509 H533 0.932 . S
O510 Cd445 2.173 . S
O510 C446 1.277 . S
O511 C446 1.230 . S
O511 Cd449 2.250 . S
O512 Cd445 2.263 . S
O512 C465 1.258 . S
O513 Cd449 2.308 . S
O513 C465 1.274 . S
O514 Cd445 2.366 . S
O514 C501 1.263 . S
C515 O516 1.235 . S
C515 O517 1.270 . S
O516 Cd449 2.352 . S
O516 C515 1.235 . S
O517 Cd445 2.329 . S
O517 C515 1.270 . S
C518 O502 1.270 . S
C518 O503 1.248 . S
H519 C451 0.930 . S
H520 C454 0.930 . S
H521 C455 0.931 . S
H522 C460 0.929 . S
H523 C462 0.930 . S
H524 C464 0.930 . S
H525 C467 0.929 . S
H526 C468 0.932 . S
H527 C470 0.930 . S
H528 C494 0.929 . S
H529 C495 0.932 . S
H530 C496 0.931 . S
H531 C505 0.931 . S
H532 C507 0.929 . S
H533 C509 0.932 . S
Cd534 O591 2.350 . S
Cd534 O592 2.277 1_556 S
Cd534 O599 2.173 1_556 S
Cd534 O601 2.263 . S
Cd534 O603 2.366 . S
Cd534 O606 2.329 1_556 S
C535 O599 1.277 . S
C535 O600 1.230 . S
C536 O537 1.246 . S
C536 C539 1.481 . S
C536 N561 1.329 . S
O537 C536 1.246 . S
Cd538 O600 2.250 . S
Cd538 O602 2.308 1_554 S
Cd538 O605 2.352 . S
C539 C536 1.481 . S
C539 N542 1.327 . S
C539 C543 1.407 . S
C540 C541 1.346 . S
C540 C544 1.390 . S
C540 H608 0.930 . S
C541 C540 1.346 . S
C541 N542 1.342 . S
C541 C546 1.516 . S
N542 C539 1.327 . S
N542 C541 1.342 . S
N542 Co545 1.864 . S
C543 C539 1.407 . S
C543 C544 1.364 . S
C543 H609 0.930 . S
C544 C540 1.390 . S
C544 C543 1.364 . S
C544 H610 0.931 . S
Co545 N542 1.864 . S
Co545 N561 1.955 . S
Co545 N562 1.958 . S
Co545 N563 1.953 . S
Co545 N581 1.869 . S
Co545 N587 1.974 . S
C546 C541 1.516 . S
C546 O547 1.238 . S
C546 N562 1.324 . S
O547 C546 1.238 . S
C548 C549 1.394 . S
C548 C553 1.395 . S
C548 N562 1.427 . S
C549 C548 1.394 . S
C549 C550 1.380 . S
C549 H611 0.929 . S
C550 C549 1.380 . S
C550 C551 1.384 . S
C550 C554 1.495 . S
C551 C550 1.384 . S
C551 C552 1.382 . S
C551 H612 0.930 . S
C552 C551 1.382 . S
C552 C553 1.398 . S
C553 C548 1.395 . S
C553 C552 1.398 . S
C553 H613 0.930 . S
C554 C550 1.495 . S
C554 O601 1.258 . S
C554 O602 1.274 . S
C555 C556 1.385 . S
C555 C557 1.381 . S
C555 N561 1.432 . S
C556 C555 1.385 . S
C556 C560 1.388 . S
C556 H614 0.929 . S
C557 C555 1.381 . S
C557 C558 1.371 . S
C557 H615 0.932 . S
C558 C557 1.371 . S
C558 C559 1.400 . S
C559 C558 1.400 . S
C559 C560 1.351 . S
C559 H616 0.930 . S
C560 C556 1.388 . S
C560 C559 1.351 . S
N561 C536 1.329 . S
N561 Co545 1.955 . S
N561 C555 1.432 . S
N562 Co545 1.958 . S
N562 C546 1.324 . S
N562 C548 1.427 . S
N563 Co545 1.953 . S
N563 C564 1.436 . S
N563 C590 1.316 . S
C564 N563 1.436 . S
C564 C565 1.421 . S
C564 C566 1.360 . S
C565 C564 1.421 . S
C565 C567 1.379 . S
C565 H568 0.929 . S
C566 C564 1.360 . S
C566 C570 1.393 . S
C566 H572 0.931 . S
C567 C565 1.379 . S
C567 C569 1.417 . S
C567 C571 1.505 . S
H568 C565 0.929 . S
C569 C567 1.417 . S
C569 C570 1.352 . S
C569 H573 0.929 . S
C570 C566 1.393 . S
C570 C569 1.352 . S
C570 C574 1.482 . S
C571 C567 1.505 . S
C571 O575 1.259 . S
C571 O576 1.229 . S
H572 C566 0.931 . S
H573 C569 0.929 . S
C574 C570 1.482 . S
C574 O577 1.207 . S
C574 O578 1.289 . S
O575 C571 1.259 . S
O575 H579 0.822 . S
O576 C571 1.229 . S
O577 C574 1.207 . S
O578 C574 1.289 . S
O578 H580 0.819 . S
H579 O575 0.822 . S
H580 O578 0.819 . S
N581 Co545 1.869 . S
N581 C582 1.330 . S
N581 C586 1.325 . S
C582 N581 1.330 . S
C582 C583 1.359 . S
C582 C588 1.504 . S
C583 C582 1.359 . S
C583 C584 1.366 . S
C583 H617 0.929 . S
C584 C583 1.366 . S
C584 C585 1.415 . S
C584 H618 0.932 . S
C585 C584 1.415 . S
C585 C586 1.366 . S
C585 H619 0.931 . S
C586 N581 1.325 . S
C586 C585 1.366 . S
C586 C590 1.516 . S
N587 Co545 1.974 . S
N587 C588 1.309 . S
N587 C593 1.423 . S
C588 C582 1.504 . S
C588 N587 1.309 . S
C588 O589 1.258 . S
O589 C588 1.258 . S
C590 N563 1.316 . S
C590 C586 1.516 . S
C590 O603 1.263 . S
O591 Cd534 2.350 . S
O591 C607 1.270 . S
O592 Cd534 2.277 1_554 S
O592 C607 1.248 1_554 S
C593 N587 1.423 . S
C593 C594 1.370 . S
C593 C598 1.403 . S
C594 C593 1.370 . S
C594 C595 1.389 . S
C594 H620 0.931 . S
C595 C594 1.389 . S
C595 C596 1.389 . S
C596 C595 1.389 . S
C596 C597 1.379 . S
C596 H621 0.929 . S
C597 C596 1.379 . S
C597 C598 1.405 . S
C598 C593 1.403 . S
C598 C597 1.405 . S
C598 H622 0.932 . S
O599 Cd534 2.173 1_554 S
O599 C535 1.277 . S
O600 C535 1.230 . S
O600 Cd538 2.250 . S
O601 Cd534 2.263 . S
O601 C554 1.258 . S
O602 Cd538 2.308 1_556 S
O602 C554 1.274 . S
O603 Cd534 2.366 . S
O603 C590 1.263 . S
C604 O605 1.235 . S
C604 O606 1.270 . S
O605 Cd538 2.352 . S
O605 C604 1.235 . S
O606 Cd534 2.329 1_554 S
O606 C604 1.270 . S
C607 O591 1.270 . S
C607 O592 1.248 1_556 S
H608 C540 0.930 . S
H609 C543 0.930 . S
H610 C544 0.931 . S
H611 C549 0.929 . S
H612 C551 0.930 . S
H613 C553 0.930 . S
H614 C556 0.929 . S
H615 C557 0.932 . S
H616 C559 0.930 . S
H617 C583 0.929 . S
H618 C584 0.932 . S
H619 C585 0.931 . S
H620 C594 0.931 . S
H621 C596 0.929 . S
H622 C598 0.932 . S
Cd623 O680 2.350 . S
Cd623 O681 2.277 1_556 S
Cd623 O688 2.173 1_556 S
Cd623 O690 2.263 . S
Cd623 O692 2.366 . S
Cd623 O695 2.329 1_556 S
C624 O688 1.277 . S
C624 O689 1.230 . S
C625 O626 1.246 . S
C625 C628 1.481 . S
C625 N650 1.329 . S
O626 C625 1.246 . S
Cd627 O689 2.250 . S
Cd627 O691 2.308 1_554 S
Cd627 O694 2.352 . S
C628 C625 1.481 . S
C628 N631 1.327 . S
C628 C632 1.407 . S
C629 C630 1.346 . S
C629 C633 1.390 . S
C629 H697 0.930 . S
C630 C629 1.346 . S
C630 N631 1.342 . S
C630 C635 1.516 . S
N631 C628 1.327 . S
N631 C630 1.342 . S
N631 Co634 1.864 . S
C632 C628 1.407 . S
C632 C633 1.364 . S
C632 H698 0.930 . S
C633 C629 1.390 . S
C633 C632 1.364 . S
C633 H699 0.931 . S
Co634 N631 1.864 . S
Co634 N650 1.955 . S
Co634 N651 1.958 . S
Co634 N652 1.953 . S
Co634 N670 1.869 . S
Co634 N676 1.974 . S
C635 C630 1.516 . S
C635 O636 1.238 . S
C635 N651 1.324 . S
O636 C635 1.238 . S
C637 C638 1.394 . S
C637 C642 1.395 . S
C637 N651 1.427 . S
C638 C637 1.394 . S
C638 C639 1.380 . S
C638 H700 0.929 . S
C639 C638 1.380 . S
C639 C640 1.384 . S
C639 C643 1.495 . S
C640 C639 1.384 . S
C640 C641 1.382 . S
C640 H701 0.930 . S
C641 C640 1.382 . S
C641 C642 1.398 . S
C642 C637 1.395 . S
C642 C641 1.398 . S
C642 H702 0.930 . S
C643 C639 1.495 . S
C643 O690 1.258 . S
C643 O691 1.274 . S
C644 C645 1.385 . S
C644 C646 1.381 . S
C644 N650 1.432 . S
C645 C644 1.385 . S
C645 C649 1.388 . S
C645 H703 0.929 . S
C646 C644 1.381 . S
C646 C647 1.371 . S
C646 H704 0.932 . S
C647 C646 1.371 . S
C647 C648 1.400 . S
C648 C647 1.400 . S
C648 C649 1.351 . S
C648 H705 0.930 . S
C649 C645 1.388 . S
C649 C648 1.351 . S
N650 C625 1.329 . S
N650 Co634 1.955 . S
N650 C644 1.432 . S
N651 Co634 1.958 . S
N651 C635 1.324 . S
N651 C637 1.427 . S
N652 Co634 1.953 . S
N652 C653 1.436 . S
N652 C679 1.316 . S
C653 N652 1.436 . S
C653 C654 1.421 . S
C653 C655 1.360 . S
C654 C653 1.421 . S
C654 C656 1.379 . S
C654 H657 0.929 . S
C655 C653 1.360 . S
C655 C659 1.393 . S
C655 H661 0.931 . S
C656 C654 1.379 . S
C656 C658 1.417 . S
C656 C660 1.505 . S
H657 C654 0.929 . S
C658 C656 1.417 . S
C658 C659 1.352 . S
C658 H662 0.929 . S
C659 C655 1.393 . S
C659 C658 1.352 . S
C659 C663 1.482 . S
C660 C656 1.505 . S
C660 O664 1.259 . S
C660 O665 1.229 . S
H661 C655 0.931 . S
H662 C658 0.929 . S
C663 C659 1.482 . S
C663 O666 1.207 . S
C663 O667 1.289 . S
O664 C660 1.259 . S
O664 H668 0.822 . S
O665 C660 1.229 . S
O666 C663 1.207 . S
O667 C663 1.289 . S
O667 H669 0.819 . S
H668 O664 0.822 . S
H669 O667 0.819 . S
N670 Co634 1.869 . S
N670 C671 1.330 . S
N670 C675 1.325 . S
C671 N670 1.330 . S
C671 C672 1.359 . S
C671 C677 1.504 . S
C672 C671 1.359 . S
C672 C673 1.366 . S
C672 H706 0.929 . S
C673 C672 1.366 . S
C673 C674 1.415 . S
C673 H707 0.932 . S
C674 C673 1.415 . S
C674 C675 1.366 . S
C674 H708 0.931 . S
C675 N670 1.325 . S
C675 C674 1.366 . S
C675 C679 1.516 . S
N676 Co634 1.974 . S
N676 C677 1.309 . S
N676 C682 1.423 . S
C677 C671 1.504 . S
C677 N676 1.309 . S
C677 O678 1.258 . S
O678 C677 1.258 . S
C679 N652 1.316 . S
C679 C675 1.516 . S
C679 O692 1.263 . S
O680 Cd623 2.350 . S
O680 C696 1.270 . S
O681 Cd623 2.277 1_554 S
O681 C696 1.248 1_554 S
C682 N676 1.423 . S
C682 C683 1.370 . S
C682 C687 1.403 . S
C683 C682 1.370 . S
C683 C684 1.389 . S
C683 H709 0.931 . S
C684 C683 1.389 . S
C684 C685 1.389 . S
C685 C684 1.389 . S
C685 C686 1.379 . S
C685 H710 0.929 . S
C686 C685 1.379 . S
C686 C687 1.405 . S
C687 C682 1.403 . S
C687 C686 1.405 . S
C687 H711 0.932 . S
O688 Cd623 2.173 1_554 S
O688 C624 1.277 . S
O689 C624 1.230 . S
O689 Cd627 2.250 . S
O690 Cd623 2.263 . S
O690 C643 1.258 . S
O691 Cd627 2.308 1_556 S
O691 C643 1.274 . S
O692 Cd623 2.366 . S
O692 C679 1.263 . S
C693 O694 1.235 . S
C693 O695 1.270 . S
O694 Cd627 2.352 . S
O694 C693 1.235 . S
O695 Cd623 2.329 1_554 S
O695 C693 1.270 . S
C696 O680 1.270 . S
C696 O681 1.248 1_556 S
H697 C629 0.930 . S
H698 C632 0.930 . S
H699 C633 0.931 . S
H700 C638 0.929 . S
H701 C640 0.930 . S
H702 C642 0.930 . S
H703 C645 0.929 . S
H704 C646 0.932 . S
H705 C648 0.930 . S
H706 C672 0.929 . S
H707 C673 0.932 . S
H708 C674 0.931 . S
H709 C683 0.931 . S
H710 C685 0.929 . S
H711 C687 0.932 . S
Cd712 O769 2.350 . S
Cd712 O770 2.277 1_556 S
Cd712 O777 2.173 1_556 S
Cd712 O779 2.263 . S
Cd712 O781 2.366 . S
Cd712 O784 2.329 1_556 S
C713 O777 1.277 . S
C713 O778 1.230 . S
C714 O715 1.246 . S
C714 C717 1.481 . S
C714 N739 1.329 . S
O715 C714 1.246 . S
Cd716 O778 2.250 . S
Cd716 O780 2.308 1_554 S
Cd716 O783 2.352 . S
C717 C714 1.481 . S
C717 N720 1.327 . S
C717 C721 1.407 . S
C718 C719 1.346 . S
C718 C722 1.390 . S
C718 H786 0.930 . S
C719 C718 1.346 . S
C719 N720 1.342 . S
C719 C724 1.516 . S
N720 C717 1.327 . S
N720 C719 1.342 . S
N720 Co723 1.864 . S
C721 C717 1.407 . S
C721 C722 1.364 . S
C721 H787 0.930 . S
C722 C718 1.390 . S
C722 C721 1.364 . S
C722 H788 0.931 . S
Co723 N720 1.864 . S
Co723 N739 1.955 . S
Co723 N740 1.958 . S
Co723 N741 1.953 . S
Co723 N759 1.869 . S
Co723 N765 1.974 . S
C724 C719 1.516 . S
C724 O725 1.238 . S
C724 N740 1.324 . S
O725 C724 1.238 . S
C726 C727 1.394 . S
C726 C731 1.395 . S
C726 N740 1.427 . S
C727 C726 1.394 . S
C727 C728 1.380 . S
C727 H789 0.929 . S
C728 C727 1.380 . S
C728 C729 1.384 . S
C728 C732 1.495 . S
C729 C728 1.384 . S
C729 C730 1.382 . S
C729 H790 0.930 . S
C730 C729 1.382 . S
C730 C731 1.398 . S
C731 C726 1.395 . S
C731 C730 1.398 . S
C731 H791 0.930 . S
C732 C728 1.495 . S
C732 O779 1.258 . S
C732 O780 1.274 . S
C733 C734 1.385 . S
C733 C735 1.381 . S
C733 N739 1.432 . S
C734 C733 1.385 . S
C734 C738 1.388 . S
C734 H792 0.929 . S
C735 C733 1.381 . S
C735 C736 1.371 . S
C735 H793 0.932 . S
C736 C735 1.371 . S
C736 C737 1.400 . S
C737 C736 1.400 . S
C737 C738 1.351 . S
C737 H794 0.930 . S
C738 C734 1.388 . S
C738 C737 1.351 . S
N739 C714 1.329 . S
N739 Co723 1.955 . S
N739 C733 1.432 . S
N740 Co723 1.958 . S
N740 C724 1.324 . S
N740 C726 1.427 . S
N741 Co723 1.953 . S
N741 C742 1.436 . S
N741 C768 1.316 . S
C742 N741 1.436 . S
C742 C743 1.421 . S
C742 C744 1.360 . S
C743 C742 1.421 . S
C743 C745 1.379 . S
C743 H746 0.929 . S
C744 C742 1.360 . S
C744 C748 1.393 . S
C744 H750 0.931 . S
C745 C743 1.379 . S
C745 C747 1.417 . S
C745 C749 1.505 . S
H746 C743 0.929 . S
C747 C745 1.417 . S
C747 C748 1.352 . S
C747 H751 0.929 . S
C748 C744 1.393 . S
C748 C747 1.352 . S
C748 C752 1.482 . S
C749 C745 1.505 . S
C749 O753 1.259 . S
C749 O754 1.229 . S
H750 C744 0.931 . S
H751 C747 0.929 . S
C752 C748 1.482 . S
C752 O755 1.207 . S
C752 O756 1.289 . S
O753 C749 1.259 . S
O753 H757 0.822 . S
O754 C749 1.229 . S
O755 C752 1.207 . S
O756 C752 1.289 . S
O756 H758 0.819 . S
H757 O753 0.822 . S
H758 O756 0.819 . S
N759 Co723 1.869 . S
N759 C760 1.330 . S
N759 C764 1.325 . S
C760 N759 1.330 . S
C760 C761 1.359 . S
C760 C766 1.504 . S
C761 C760 1.359 . S
C761 C762 1.366 . S
C761 H795 0.929 . S
C762 C761 1.366 . S
C762 C763 1.415 . S
C762 H796 0.932 . S
C763 C762 1.415 . S
C763 C764 1.366 . S
C763 H797 0.931 . S
C764 N759 1.325 . S
C764 C763 1.366 . S
C764 C768 1.516 . S
N765 Co723 1.974 . S
N765 C766 1.309 . S
N765 C771 1.423 . S
C766 C760 1.504 . S
C766 N765 1.309 . S
C766 O767 1.258 . S
O767 C766 1.258 . S
C768 N741 1.316 . S
C768 C764 1.516 . S
C768 O781 1.263 . S
O769 Cd712 2.350 . S
O769 C785 1.270 . S
O770 Cd712 2.277 1_554 S
O770 C785 1.248 1_554 S
C771 N765 1.423 . S
C771 C772 1.370 . S
C771 C776 1.403 . S
C772 C771 1.370 . S
C772 C773 1.389 . S
C772 H798 0.931 . S
C773 C772 1.389 . S
C773 C774 1.389 . S
C774 C773 1.389 . S
C774 C775 1.379 . S
C774 H799 0.929 . S
C775 C774 1.379 . S
C775 C776 1.405 . S
C776 C771 1.403 . S
C776 C775 1.405 . S
C776 H800 0.932 . S
O777 Cd712 2.173 1_554 S
O777 C713 1.277 . S
O778 C713 1.230 . S
O778 Cd716 2.250 . S
O779 Cd712 2.263 . S
O779 C732 1.258 . S
O780 Cd716 2.308 1_556 S
O780 C732 1.274 . S
O781 Cd712 2.366 . S
O781 C768 1.263 . S
C782 O783 1.235 . S
C782 O784 1.270 . S
O783 Cd716 2.352 . S
O783 C782 1.235 . S
O784 Cd712 2.329 1_554 S
O784 C782 1.270 . S
C785 O769 1.270 . S
C785 O770 1.248 1_556 S
H786 C718 0.930 . S
H787 C721 0.930 . S
H788 C722 0.931 . S
H789 C727 0.929 . S
H790 C729 0.930 . S
H791 C731 0.930 . S
H792 C734 0.929 . S
H793 C735 0.932 . S
H794 C737 0.930 . S
H795 C761 0.929 . S
H796 C762 0.932 . S
H797 C763 0.931 . S
H798 C772 0.931 . S
H799 C774 0.929 . S
H800 C776 0.932 . S
Cd801 O858 2.350 . S
Cd801 O859 2.277 . S
Cd801 O866 2.173 . S
Cd801 O868 2.263 . S
Cd801 O870 2.366 . S
Cd801 O873 2.329 . S
C802 O866 1.277 . S
C802 O867 1.230 . S
C803 O804 1.246 . S
C803 C806 1.481 . S
C803 N828 1.329 . S
O804 C803 1.246 . S
Cd805 O867 2.250 . S
Cd805 O869 2.308 . S
Cd805 O872 2.352 . S
C806 C803 1.481 . S
C806 N809 1.327 . S
C806 C810 1.407 . S
C807 C808 1.346 . S
C807 C811 1.390 . S
C807 H875 0.930 . S
C808 C807 1.346 . S
C808 N809 1.342 . S
C808 C813 1.516 . S
N809 C806 1.327 . S
N809 C808 1.342 . S
N809 Co812 1.864 . S
C810 C806 1.407 . S
C810 C811 1.364 . S
C810 H876 0.930 . S
C811 C807 1.390 . S
C811 C810 1.364 . S
C811 H877 0.931 . S
Co812 N809 1.864 . S
Co812 N828 1.955 . S
Co812 N829 1.958 . S
Co812 N830 1.953 . S
Co812 N848 1.869 . S
Co812 N854 1.974 . S
C813 C808 1.516 . S
C813 O814 1.238 . S
C813 N829 1.324 . S
O814 C813 1.238 . S
C815 C816 1.394 . S
C815 C820 1.395 . S
C815 N829 1.427 . S
C816 C815 1.394 . S
C816 C817 1.380 . S
C816 H878 0.929 . S
C817 C816 1.380 . S
C817 C818 1.384 . S
C817 C821 1.495 . S
C818 C817 1.384 . S
C818 C819 1.382 . S
C818 H879 0.930 . S
C819 C818 1.382 . S
C819 C820 1.398 . S
C820 C815 1.395 . S
C820 C819 1.398 . S
C820 H880 0.930 . S
C821 C817 1.495 . S
C821 O868 1.258 . S
C821 O869 1.274 . S
C822 C823 1.385 . S
C822 C824 1.381 . S
C822 N828 1.432 . S
C823 C822 1.385 . S
C823 C827 1.388 . S
C823 H881 0.929 . S
C824 C822 1.381 . S
C824 C825 1.371 . S
C824 H882 0.932 . S
C825 C824 1.371 . S
C825 C826 1.400 . S
C826 C825 1.400 . S
C826 C827 1.351 . S
C826 H883 0.930 . S
C827 C823 1.388 . S
C827 C826 1.351 . S
N828 C803 1.329 . S
N828 Co812 1.955 . S
N828 C822 1.432 . S
N829 Co812 1.958 . S
N829 C813 1.324 . S
N829 C815 1.427 . S
N830 Co812 1.953 . S
N830 C831 1.436 . S
N830 C857 1.316 . S
C831 N830 1.436 . S
C831 C832 1.421 . S
C831 C833 1.360 . S
C832 C831 1.421 . S
C832 C834 1.379 . S
C832 H835 0.929 . S
C833 C831 1.360 . S
C833 C837 1.393 . S
C833 H839 0.931 . S
C834 C832 1.379 . S
C834 C836 1.417 . S
C834 C838 1.505 . S
H835 C832 0.929 . S
C836 C834 1.417 . S
C836 C837 1.352 . S
C836 H840 0.929 . S
C837 C833 1.393 . S
C837 C836 1.352 . S
C837 C841 1.482 . S
C838 C834 1.505 . S
C838 O842 1.259 . S
C838 O843 1.229 . S
H839 C833 0.931 . S
H840 C836 0.929 . S
C841 C837 1.482 . S
C841 O844 1.207 . S
C841 O845 1.289 . S
O842 C838 1.259 . S
O842 H846 0.822 . S
O843 C838 1.229 . S
O844 C841 1.207 . S
O845 C841 1.289 . S
O845 H847 0.819 . S
H846 O842 0.822 . S
H847 O845 0.819 . S
N848 Co812 1.869 . S
N848 C849 1.330 . S
N848 C853 1.325 . S
C849 N848 1.330 . S
C849 C850 1.359 . S
C849 C855 1.504 . S
C850 C849 1.359 . S
C850 C851 1.366 . S
C850 H884 0.929 . S
C851 C850 1.366 . S
C851 C852 1.415 . S
C851 H885 0.932 . S
C852 C851 1.415 . S
C852 C853 1.366 . S
C852 H886 0.931 . S
C853 N848 1.325 . S
C853 C852 1.366 . S
C853 C857 1.516 . S
N854 Co812 1.974 . S
N854 C855 1.309 . S
N854 C860 1.423 . S
C855 C849 1.504 . S
C855 N854 1.309 . S
C855 O856 1.258 . S
O856 C855 1.258 . S
C857 N830 1.316 . S
C857 C853 1.516 . S
C857 O870 1.263 . S
O858 Cd801 2.350 . S
O858 C874 1.270 . S
O859 Cd801 2.277 . S
O859 C874 1.248 . S
C860 N854 1.423 . S
C860 C861 1.370 . S
C860 C865 1.403 . S
C861 C860 1.370 . S
C861 C862 1.389 . S
C861 H887 0.931 . S
C862 C861 1.389 . S
C862 C863 1.389 . S
C863 C862 1.389 . S
C863 C864 1.379 . S
C863 H888 0.929 . S
C864 C863 1.379 . S
C864 C865 1.405 . S
C865 C860 1.403 . S
C865 C864 1.405 . S
C865 H889 0.932 . S
O866 Cd801 2.173 . S
O866 C802 1.277 . S
O867 C802 1.230 . S
O867 Cd805 2.250 . S
O868 Cd801 2.263 . S
O868 C821 1.258 . S
O869 Cd805 2.308 . S
O869 C821 1.274 . S
O870 Cd801 2.366 . S
O870 C857 1.263 . S
C871 O872 1.235 . S
C871 O873 1.270 . S
O872 Cd805 2.352 . S
O872 C871 1.235 . S
O873 Cd801 2.329 . S
O873 C871 1.270 . S
C874 O858 1.270 . S
C874 O859 1.248 . S
H875 C807 0.930 . S
H876 C810 0.930 . S
H877 C811 0.931 . S
H878 C816 0.929 . S
H879 C818 0.930 . S
H880 C820 0.930 . S
H881 C823 0.929 . S
H882 C824 0.932 . S
H883 C826 0.930 . S
H884 C850 0.929 . S
H885 C851 0.932 . S
H886 C852 0.931 . S
H887 C861 0.931 . S
H888 C863 0.929 . S
H889 C865 0.932 . S
Cd890 O947 2.350 . S
Cd890 O948 2.277 . S
Cd890 O955 2.173 . S
Cd890 O957 2.263 . S
Cd890 O959 2.366 . S
Cd890 O962 2.329 . S
C891 O955 1.277 . S
C891 O956 1.230 . S
C892 O893 1.246 . S
C892 C895 1.481 . S
C892 N917 1.329 . S
O893 C892 1.246 . S
Cd894 O956 2.250 . S
Cd894 O958 2.308 . S
Cd894 O961 2.352 . S
C895 C892 1.481 . S
C895 N898 1.327 . S
C895 C899 1.407 . S
C896 C897 1.346 . S
C896 C900 1.390 . S
C896 H964 0.930 . S
C897 C896 1.346 . S
C897 N898 1.342 . S
C897 C902 1.516 . S
N898 C895 1.327 . S
N898 C897 1.342 . S
N898 Co901 1.864 . S
C899 C895 1.407 . S
C899 C900 1.364 . S
C899 H965 0.930 . S
C900 C896 1.390 . S
C900 C899 1.364 . S
C900 H966 0.931 . S
Co901 N898 1.864 . S
Co901 N917 1.955 . S
Co901 N918 1.958 . S
Co901 N919 1.953 . S
Co901 N937 1.869 . S
Co901 N943 1.974 . S
C902 C897 1.516 . S
C902 O903 1.238 . S
C902 N918 1.324 . S
O903 C902 1.238 . S
C904 C905 1.394 . S
C904 C909 1.395 . S
C904 N918 1.427 . S
C905 C904 1.394 . S
C905 C906 1.380 . S
C905 H967 0.929 . S
C906 C905 1.380 . S
C906 C907 1.384 . S
C906 C910 1.495 . S
C907 C906 1.384 . S
C907 C908 1.382 . S
C907 H968 0.930 . S
C908 C907 1.382 . S
C908 C909 1.398 . S
C909 C904 1.395 . S
C909 C908 1.398 . S
C909 H969 0.930 . S
C910 C906 1.495 . S
C910 O957 1.258 . S
C910 O958 1.274 . S
C911 C912 1.385 . S
C911 C913 1.381 . S
C911 N917 1.432 . S
C912 C911 1.385 . S
C912 C916 1.388 . S
C912 H970 0.929 . S
C913 C911 1.381 . S
C913 C914 1.371 . S
C913 H971 0.932 . S
C914 C913 1.371 . S
C914 C915 1.400 . S
C915 C914 1.400 . S
C915 C916 1.351 . S
C915 H972 0.930 . S
C916 C912 1.388 . S
C916 C915 1.351 . S
N917 C892 1.329 . S
N917 Co901 1.955 . S
N917 C911 1.432 . S
N918 Co901 1.958 . S
N918 C902 1.324 . S
N918 C904 1.427 . S
N919 Co901 1.953 . S
N919 C920 1.436 . S
N919 C946 1.316 . S
C920 N919 1.436 . S
C920 C921 1.421 . S
C920 C922 1.360 . S
C921 C920 1.421 . S
C921 C923 1.379 . S
C921 H924 0.929 . S
C922 C920 1.360 . S
C922 C926 1.393 . S
C922 H928 0.931 . S
C923 C921 1.379 . S
C923 C925 1.417 . S
C923 C927 1.505 . S
H924 C921 0.929 . S
C925 C923 1.417 . S
C925 C926 1.352 . S
C925 H929 0.929 . S
C926 C922 1.393 . S
C926 C925 1.352 . S
C926 C930 1.482 . S
C927 C923 1.505 . S
C927 O931 1.259 . S
C927 O932 1.229 . S
H928 C922 0.931 . S
H929 C925 0.929 . S
C930 C926 1.482 . S
C930 O933 1.207 . S
C930 O934 1.289 . S
O931 C927 1.259 . S
O931 H935 0.822 . S
O932 C927 1.229 . S
O933 C930 1.207 . S
O934 C930 1.289 . S
O934 H936 0.819 . S
H935 O931 0.822 . S
H936 O934 0.819 . S
N937 Co901 1.869 . S
N937 C938 1.330 . S
N937 C942 1.325 . S
C938 N937 1.330 . S
C938 C939 1.359 . S
C938 C944 1.504 . S
C939 C938 1.359 . S
C939 C940 1.366 . S
C939 H973 0.929 . S
C940 C939 1.366 . S
C940 C941 1.415 . S
C940 H974 0.932 . S
C941 C940 1.415 . S
C941 C942 1.366 . S
C941 H975 0.931 . S
C942 N937 1.325 . S
C942 C941 1.366 . S
C942 C946 1.516 . S
N943 Co901 1.974 . S
N943 C944 1.309 . S
N943 C949 1.423 . S
C944 C938 1.504 . S
C944 N943 1.309 . S
C944 O945 1.258 . S
O945 C944 1.258 . S
C946 N919 1.316 . S
C946 C942 1.516 . S
C946 O959 1.263 . S
O947 Cd890 2.350 . S
O947 C963 1.270 . S
O948 Cd890 2.277 . S
O948 C963 1.248 . S
C949 N943 1.423 . S
C949 C950 1.370 . S
C949 C954 1.403 . S
C950 C949 1.370 . S
C950 C951 1.389 . S
C950 H976 0.931 . S
C951 C950 1.389 . S
C951 C952 1.389 . S
C952 C951 1.389 . S
C952 C953 1.379 . S
C952 H977 0.929 . S
C953 C952 1.379 . S
C953 C954 1.405 . S
C954 C949 1.403 . S
C954 C953 1.405 . S
C954 H978 0.932 . S
O955 Cd890 2.173 . S
O955 C891 1.277 . S
O956 C891 1.230 . S
O956 Cd894 2.250 . S
O957 Cd890 2.263 . S
O957 C910 1.258 . S
O958 Cd894 2.308 . S
O958 C910 1.274 . S
O959 Cd890 2.366 . S
O959 C946 1.263 . S
C960 O961 1.235 . S
C960 O962 1.270 . S
O961 Cd894 2.352 . S
O961 C960 1.235 . S
O962 Cd890 2.329 . S
O962 C960 1.270 . S
C963 O947 1.270 . S
C963 O948 1.248 . S
H964 C896 0.930 . S
H965 C899 0.930 . S
H966 C900 0.931 . S
H967 C905 0.929 . S
H968 C907 0.930 . S
H969 C909 0.930 . S
H970 C912 0.929 . S
H971 C913 0.932 . S
H972 C915 0.930 . S
H973 C939 0.929 . S
H974 C940 0.932 . S
H975 C941 0.931 . S
H976 C950 0.931 . S
H977 C952 0.929 . S
H978 C954 0.932 . S
Cd979 O1036 2.350 . S
Cd979 O1037 2.277 . S
Cd979 O1044 2.173 . S
Cd979 O1046 2.263 . S
Cd979 O1048 2.366 . S
Cd979 O1051 2.329 . S
C980 O1044 1.277 . S
C980 O1045 1.230 . S
C981 O982 1.246 . S
C981 C984 1.481 . S
C981 N1006 1.329 . S
O982 C981 1.246 . S
Cd983 O1045 2.250 . S
Cd983 O1047 2.308 . S
Cd983 O1050 2.352 . S
C984 C981 1.481 . S
C984 N987 1.327 . S
C984 C988 1.407 . S
C985 C986 1.346 . S
C985 C989 1.390 . S
C985 H1053 0.930 . S
C986 C985 1.346 . S
C986 N987 1.342 . S
C986 C991 1.516 . S
N987 C984 1.327 . S
N987 C986 1.342 . S
N987 Co990 1.864 . S
C988 C984 1.407 . S
C988 C989 1.364 . S
C988 H1054 0.930 . S
C989 C985 1.390 . S
C989 C988 1.364 . S
C989 H1055 0.931 . S
Co990 N987 1.864 . S
Co990 N1006 1.955 . S
Co990 N1007 1.958 . S
Co990 N1008 1.953 . S
Co990 N1026 1.869 . S
Co990 N1032 1.974 . S
C991 C986 1.516 . S
C991 O992 1.238 . S
C991 N1007 1.324 . S
O992 C991 1.238 . S
C993 C994 1.394 . S
C993 C998 1.395 . S
C993 N1007 1.427 . S
C994 C993 1.394 . S
C994 C995 1.380 . S
C994 H1056 0.929 . S
C995 C994 1.380 . S
C995 C996 1.384 . S
C995 C999 1.495 . S
C996 C995 1.384 . S
C996 C997 1.382 . S
C996 H1057 0.930 . S
C997 C996 1.382 . S
C997 C998 1.398 . S
C998 C993 1.395 . S
C998 C997 1.398 . S
C998 H1058 0.930 . S
C999 C995 1.495 . S
C999 O1046 1.258 . S
C999 O1047 1.274 . S
C1000 C1001 1.385 . S
C1000 C1002 1.381 . S
C1000 N1006 1.432 . S
C1001 C1000 1.385 . S
C1001 C1005 1.388 . S
C1001 H1059 0.929 . S
C1002 C1000 1.381 . S
C1002 C1003 1.371 . S
C1002 H1060 0.932 . S
C1003 C1002 1.371 . S
C1003 C1004 1.400 . S
C1004 C1003 1.400 . S
C1004 C1005 1.351 . S
C1004 H1061 0.930 . S
C1005 C1001 1.388 . S
C1005 C1004 1.351 . S
N1006 C981 1.329 . S
N1006 Co990 1.955 . S
N1006 C1000 1.432 . S
N1007 Co990 1.958 . S
N1007 C991 1.324 . S
N1007 C993 1.427 . S
N1008 Co990 1.953 . S
N1008 C1009 1.436 . S
N1008 C1035 1.316 . S
C1009 N1008 1.436 . S
C1009 C1010 1.421 . S
C1009 C1011 1.360 . S
C1010 C1009 1.421 . S
C1010 C1012 1.379 . S
C1010 H1013 0.929 . S
C1011 C1009 1.360 . S
C1011 C1015 1.393 . S
C1011 H1017 0.931 . S
C1012 C1010 1.379 . S
C1012 C1014 1.417 . S
C1012 C1016 1.505 . S
H1013 C1010 0.929 . S
C1014 C1012 1.417 . S
C1014 C1015 1.352 . S
C1014 H1018 0.929 . S
C1015 C1011 1.393 . S
C1015 C1014 1.352 . S
C1015 C1019 1.482 . S
C1016 C1012 1.505 . S
C1016 O1020 1.259 . S
C1016 O1021 1.229 . S
H1017 C1011 0.931 . S
H1018 C1014 0.929 . S
C1019 C1015 1.482 . S
C1019 O1022 1.207 . S
C1019 O1023 1.289 . S
O1020 C1016 1.259 . S
O1020 H1024 0.822 . S
O1021 C1016 1.229 . S
O1022 C1019 1.207 . S
O1023 C1019 1.289 . S
O1023 H1025 0.819 . S
H1024 O1020 0.822 . S
H1025 O1023 0.819 . S
N1026 Co990 1.869 . S
N1026 C1027 1.330 . S
N1026 C1031 1.325 . S
C1027 N1026 1.330 . S
C1027 C1028 1.359 . S
C1027 C1033 1.504 . S
C1028 C1027 1.359 . S
C1028 C1029 1.366 . S
C1028 H1062 0.929 . S
C1029 C1028 1.366 . S
C1029 C1030 1.415 . S
C1029 H1063 0.932 . S
C1030 C1029 1.415 . S
C1030 C1031 1.366 . S
C1030 H1064 0.931 . S
C1031 N1026 1.325 . S
C1031 C1030 1.366 . S
C1031 C1035 1.516 . S
N1032 Co990 1.974 . S
N1032 C1033 1.309 . S
N1032 C1038 1.423 . S
C1033 C1027 1.504 . S
C1033 N1032 1.309 . S
C1033 O1034 1.258 . S
O1034 C1033 1.258 . S
C1035 N1008 1.316 . S
C1035 C1031 1.516 . S
C1035 O1048 1.263 . S
O1036 Cd979 2.350 . S
O1036 C1052 1.270 . S
O1037 Cd979 2.277 . S
O1037 C1052 1.248 . S
C1038 N1032 1.423 . S
C1038 C1039 1.370 . S
C1038 C1043 1.403 . S
C1039 C1038 1.370 . S
C1039 C1040 1.389 . S
C1039 H1065 0.931 . S
C1040 C1039 1.389 . S
C1040 C1041 1.389 . S
C1041 C1040 1.389 . S
C1041 C1042 1.379 . S
C1041 H1066 0.929 . S
C1042 C1041 1.379 . S
C1042 C1043 1.405 . S
C1043 C1038 1.403 . S
C1043 C1042 1.405 . S
C1043 H1067 0.932 . S
O1044 Cd979 2.173 . S
O1044 C980 1.277 . S
O1045 C980 1.230 . S
O1045 Cd983 2.250 . S
O1046 Cd979 2.263 . S
O1046 C999 1.258 . S
O1047 Cd983 2.308 . S
O1047 C999 1.274 . S
O1048 Cd979 2.366 . S
O1048 C1035 1.263 . S
C1049 O1050 1.235 . S
C1049 O1051 1.270 . S
O1050 Cd983 2.352 . S
O1050 C1049 1.235 . S
O1051 Cd979 2.329 . S
O1051 C1049 1.270 . S
C1052 O1036 1.270 . S
C1052 O1037 1.248 . S
H1053 C985 0.930 . S
H1054 C988 0.930 . S
H1055 C989 0.931 . S
H1056 C994 0.929 . S
H1057 C996 0.930 . S
H1058 C998 0.930 . S
H1059 C1001 0.929 . S
H1060 C1002 0.932 . S
H1061 C1004 0.930 . S
H1062 C1028 0.929 . S
H1063 C1029 0.932 . S
H1064 C1030 0.931 . S
H1065 C1039 0.931 . S
H1066 C1041 0.929 . S
H1067 C1043 0.932 . S
Cd1068 O1125 2.350 . S
Cd1068 O1126 2.277 . S
Cd1068 O1133 2.173 . S
Cd1068 O1135 2.263 . S
Cd1068 O1137 2.366 . S
Cd1068 O1140 2.329 . S
C1069 O1133 1.277 . S
C1069 O1134 1.230 . S
C1070 O1071 1.246 . S
C1070 C1073 1.481 . S
C1070 N1095 1.329 . S
O1071 C1070 1.246 . S
Cd1072 O1134 2.250 . S
Cd1072 O1136 2.308 . S
Cd1072 O1139 2.352 . S
C1073 C1070 1.481 . S
C1073 N1076 1.327 . S
C1073 C1077 1.407 . S
C1074 C1075 1.346 . S
C1074 C1078 1.390 . S
C1074 H1142 0.930 . S
C1075 C1074 1.346 . S
C1075 N1076 1.342 . S
C1075 C1080 1.516 . S
N1076 C1073 1.327 . S
N1076 C1075 1.342 . S
N1076 Co1079 1.864 . S
C1077 C1073 1.407 . S
C1077 C1078 1.364 . S
C1077 H1143 0.930 . S
C1078 C1074 1.390 . S
C1078 C1077 1.364 . S
C1078 H1144 0.931 . S
Co1079 N1076 1.864 . S
Co1079 N1095 1.955 . S
Co1079 N1096 1.958 . S
Co1079 N1097 1.953 . S
Co1079 N1115 1.869 . S
Co1079 N1121 1.974 . S
C1080 C1075 1.516 . S
C1080 O1081 1.238 . S
C1080 N1096 1.324 . S
O1081 C1080 1.238 . S
C1082 C1083 1.394 . S
C1082 C1087 1.395 . S
C1082 N1096 1.427 . S
C1083 C1082 1.394 . S
C1083 C1084 1.380 . S
C1083 H1145 0.929 . S
C1084 C1083 1.380 . S
C1084 C1085 1.384 . S
C1084 C1088 1.495 . S
C1085 C1084 1.384 . S
C1085 C1086 1.382 . S
C1085 H1146 0.930 . S
C1086 C1085 1.382 . S
C1086 C1087 1.398 . S
C1087 C1082 1.395 . S
C1087 C1086 1.398 . S
C1087 H1147 0.930 . S
C1088 C1084 1.495 . S
C1088 O1135 1.258 . S
C1088 O1136 1.274 . S
C1089 C1090 1.385 . S
C1089 C1091 1.381 . S
C1089 N1095 1.432 . S
C1090 C1089 1.385 . S
C1090 C1094 1.388 . S
C1090 H1148 0.929 . S
C1091 C1089 1.381 . S
C1091 C1092 1.371 . S
C1091 H1149 0.932 . S
C1092 C1091 1.371 . S
C1092 C1093 1.400 . S
C1093 C1092 1.400 . S
C1093 C1094 1.351 . S
C1093 H1150 0.930 . S
C1094 C1090 1.388 . S
C1094 C1093 1.351 . S
N1095 C1070 1.329 . S
N1095 Co1079 1.955 . S
N1095 C1089 1.432 . S
N1096 Co1079 1.958 . S
N1096 C1080 1.324 . S
N1096 C1082 1.427 . S
N1097 Co1079 1.953 . S
N1097 C1098 1.436 . S
N1097 C1124 1.316 . S
C1098 N1097 1.436 . S
C1098 C1099 1.421 . S
C1098 C1100 1.360 . S
C1099 C1098 1.421 . S
C1099 C1101 1.379 . S
C1099 H1102 0.929 . S
C1100 C1098 1.360 . S
C1100 C1104 1.393 . S
C1100 H1106 0.931 . S
C1101 C1099 1.379 . S
C1101 C1103 1.417 . S
C1101 C1105 1.505 . S
H1102 C1099 0.929 . S
C1103 C1101 1.417 . S
C1103 C1104 1.352 . S
C1103 H1107 0.929 . S
C1104 C1100 1.393 . S
C1104 C1103 1.352 . S
C1104 C1108 1.482 . S
C1105 C1101 1.505 . S
C1105 O1109 1.259 . S
C1105 O1110 1.229 . S
H1106 C1100 0.931 . S
H1107 C1103 0.929 . S
C1108 C1104 1.482 . S
C1108 O1111 1.207 . S
C1108 O1112 1.289 . S
O1109 C1105 1.259 . S
O1109 H1113 0.822 . S
O1110 C1105 1.229 . S
O1111 C1108 1.207 . S
O1112 C1108 1.289 . S
O1112 H1114 0.819 . S
H1113 O1109 0.822 . S
H1114 O1112 0.819 . S
N1115 Co1079 1.869 . S
N1115 C1116 1.330 . S
N1115 C1120 1.325 . S
C1116 N1115 1.330 . S
C1116 C1117 1.359 . S
C1116 C1122 1.504 . S
C1117 C1116 1.359 . S
C1117 C1118 1.366 . S
C1117 H1151 0.929 . S
C1118 C1117 1.366 . S
C1118 C1119 1.415 . S
C1118 H1152 0.932 . S
C1119 C1118 1.415 . S
C1119 C1120 1.366 . S
C1119 H1153 0.931 . S
C1120 N1115 1.325 . S
C1120 C1119 1.366 . S
C1120 C1124 1.516 . S
N1121 Co1079 1.974 . S
N1121 C1122 1.309 . S
N1121 C1127 1.423 . S
C1122 C1116 1.504 . S
C1122 N1121 1.309 . S
C1122 O1123 1.258 . S
O1123 C1122 1.258 . S
C1124 N1097 1.316 . S
C1124 C1120 1.516 . S
C1124 O1137 1.263 . S
O1125 Cd1068 2.350 . S
O1125 C1141 1.270 . S
O1126 Cd1068 2.277 . S
O1126 C1141 1.248 . S
C1127 N1121 1.423 . S
C1127 C1128 1.370 . S
C1127 C1132 1.403 . S
C1128 C1127 1.370 . S
C1128 C1129 1.389 . S
C1128 H1154 0.931 . S
C1129 C1128 1.389 . S
C1129 C1130 1.389 . S
C1130 C1129 1.389 . S
C1130 C1131 1.379 . S
C1130 H1155 0.929 . S
C1131 C1130 1.379 . S
C1131 C1132 1.405 . S
C1132 C1127 1.403 . S
C1132 C1131 1.405 . S
C1132 H1156 0.932 . S
O1133 Cd1068 2.173 . S
O1133 C1069 1.277 . S
O1134 C1069 1.230 . S
O1134 Cd1072 2.250 . S
O1135 Cd1068 2.263 . S
O1135 C1088 1.258 . S
O1136 Cd1072 2.308 . S
O1136 C1088 1.274 . S
O1137 Cd1068 2.366 . S
O1137 C1124 1.263 . S
C1138 O1139 1.235 . S
C1138 O1140 1.270 . S
O1139 Cd1072 2.352 . S
O1139 C1138 1.235 . S
O1140 Cd1068 2.329 . S
O1140 C1138 1.270 . S
C1141 O1125 1.270 . S
C1141 O1126 1.248 . S
H1142 C1074 0.930 . S
H1143 C1077 0.930 . S
H1144 C1078 0.931 . S
H1145 C1083 0.929 . S
H1146 C1085 0.930 . S
H1147 C1087 0.930 . S
H1148 C1090 0.929 . S
H1149 C1091 0.932 . S
H1150 C1093 0.930 . S
H1151 C1117 0.929 . S
H1152 C1118 0.932 . S
H1153 C1119 0.931 . S
H1154 C1128 0.931 . S
H1155 C1130 0.929 . S
H1156 C1132 0.932 . S
Cd1157 O1214 2.350 . S
Cd1157 O1215 2.277 . S
Cd1157 O1222 2.173 . S
Cd1157 O1224 2.263 . S
Cd1157 O1226 2.366 . S
Cd1157 O1229 2.329 . S
C1158 O1222 1.277 . S
C1158 O1223 1.230 . S
C1159 O1160 1.246 . S
C1159 C1162 1.481 . S
C1159 N1184 1.329 . S
O1160 C1159 1.246 . S
Cd1161 O1223 2.250 . S
Cd1161 O1225 2.308 . S
Cd1161 O1228 2.352 . S
C1162 C1159 1.481 . S
C1162 N1165 1.327 . S
C1162 C1166 1.407 . S
C1163 C1164 1.346 . S
C1163 C1167 1.390 . S
C1163 H1231 0.930 . S
C1164 C1163 1.346 . S
C1164 N1165 1.342 . S
C1164 C1169 1.516 . S
N1165 C1162 1.327 . S
N1165 C1164 1.342 . S
N1165 Co1168 1.864 . S
C1166 C1162 1.407 . S
C1166 C1167 1.364 . S
C1166 H1232 0.930 . S
C1167 C1163 1.390 . S
C1167 C1166 1.364 . S
C1167 H1233 0.931 . S
Co1168 N1165 1.864 . S
Co1168 N1184 1.955 . S
Co1168 N1185 1.958 . S
Co1168 N1186 1.953 . S
Co1168 N1204 1.869 . S
Co1168 N1210 1.974 . S
C1169 C1164 1.516 . S
C1169 O1170 1.238 . S
C1169 N1185 1.324 . S
O1170 C1169 1.238 . S
C1171 C1172 1.394 . S
C1171 C1176 1.395 . S
C1171 N1185 1.427 . S
C1172 C1171 1.394 . S
C1172 C1173 1.380 . S
C1172 H1234 0.929 . S
C1173 C1172 1.380 . S
C1173 C1174 1.384 . S
C1173 C1177 1.495 . S
C1174 C1173 1.384 . S
C1174 C1175 1.382 . S
C1174 H1235 0.930 . S
C1175 C1174 1.382 . S
C1175 C1176 1.398 . S
C1176 C1171 1.395 . S
C1176 C1175 1.398 . S
C1176 H1236 0.930 . S
C1177 C1173 1.495 . S
C1177 O1224 1.258 . S
C1177 O1225 1.274 . S
C1178 C1179 1.385 . S
C1178 C1180 1.381 . S
C1178 N1184 1.432 . S
C1179 C1178 1.385 . S
C1179 C1183 1.388 . S
C1179 H1237 0.929 . S
C1180 C1178 1.381 . S
C1180 C1181 1.371 . S
C1180 H1238 0.932 . S
C1181 C1180 1.371 . S
C1181 C1182 1.400 . S
C1182 C1181 1.400 . S
C1182 C1183 1.351 . S
C1182 H1239 0.930 . S
C1183 C1179 1.388 . S
C1183 C1182 1.351 . S
N1184 C1159 1.329 . S
N1184 Co1168 1.955 . S
N1184 C1178 1.432 . S
N1185 Co1168 1.958 . S
N1185 C1169 1.324 . S
N1185 C1171 1.427 . S
N1186 Co1168 1.953 . S
N1186 C1187 1.436 . S
N1186 C1213 1.316 . S
C1187 N1186 1.436 . S
C1187 C1188 1.421 . S
C1187 C1189 1.360 . S
C1188 C1187 1.421 . S
C1188 C1190 1.379 . S
C1188 H1191 0.929 . S
C1189 C1187 1.360 . S
C1189 C1193 1.393 . S
C1189 H1195 0.931 . S
C1190 C1188 1.379 . S
C1190 C1192 1.417 . S
C1190 C1194 1.505 . S
H1191 C1188 0.929 . S
C1192 C1190 1.417 . S
C1192 C1193 1.352 . S
C1192 H1196 0.929 . S
C1193 C1189 1.393 . S
C1193 C1192 1.352 . S
C1193 C1197 1.482 . S
C1194 C1190 1.505 . S
C1194 O1198 1.259 . S
C1194 O1199 1.229 . S
H1195 C1189 0.931 . S
H1196 C1192 0.929 . S
C1197 C1193 1.482 . S
C1197 O1200 1.207 . S
C1197 O1201 1.289 . S
O1198 C1194 1.259 . S
O1198 H1202 0.822 . S
O1199 C1194 1.229 . S
O1200 C1197 1.207 . S
O1201 C1197 1.289 . S
O1201 H1203 0.819 . S
H1202 O1198 0.822 . S
H1203 O1201 0.819 . S
N1204 Co1168 1.869 . S
N1204 C1205 1.330 . S
N1204 C1209 1.325 . S
C1205 N1204 1.330 . S
C1205 C1206 1.359 . S
C1205 C1211 1.504 . S
C1206 C1205 1.359 . S
C1206 C1207 1.366 . S
C1206 H1240 0.929 . S
C1207 C1206 1.366 . S
C1207 C1208 1.415 . S
C1207 H1241 0.932 . S
C1208 C1207 1.415 . S
C1208 C1209 1.366 . S
C1208 H1242 0.931 . S
C1209 N1204 1.325 . S
C1209 C1208 1.366 . S
C1209 C1213 1.516 . S
N1210 Co1168 1.974 . S
N1210 C1211 1.309 . S
N1210 C1216 1.423 . S
C1211 C1205 1.504 . S
C1211 N1210 1.309 . S
C1211 O1212 1.258 . S
O1212 C1211 1.258 . S
C1213 N1186 1.316 . S
C1213 C1209 1.516 . S
C1213 O1226 1.263 . S
O1214 Cd1157 2.350 . S
O1214 C1230 1.270 . S
O1215 Cd1157 2.277 . S
O1215 C1230 1.248 . S
C1216 N1210 1.423 . S
C1216 C1217 1.370 . S
C1216 C1221 1.403 . S
C1217 C1216 1.370 . S
C1217 C1218 1.389 . S
C1217 H1243 0.931 . S
C1218 C1217 1.389 . S
C1218 C1219 1.389 . S
C1219 C1218 1.389 . S
C1219 C1220 1.379 . S
C1219 H1244 0.929 . S
C1220 C1219 1.379 . S
C1220 C1221 1.405 . S
C1221 C1216 1.403 . S
C1221 C1220 1.405 . S
C1221 H1245 0.932 . S
O1222 Cd1157 2.173 . S
O1222 C1158 1.277 . S
O1223 C1158 1.230 . S
O1223 Cd1161 2.250 . S
O1224 Cd1157 2.263 . S
O1224 C1177 1.258 . S
O1225 Cd1161 2.308 . S
O1225 C1177 1.274 . S
O1226 Cd1157 2.366 . S
O1226 C1213 1.263 . S
C1227 O1228 1.235 . S
C1227 O1229 1.270 . S
O1228 Cd1161 2.352 . S
O1228 C1227 1.235 . S
O1229 Cd1157 2.329 . S
O1229 C1227 1.270 . S
C1230 O1214 1.270 . S
C1230 O1215 1.248 . S
H1231 C1163 0.930 . S
H1232 C1166 0.930 . S
H1233 C1167 0.931 . S
H1234 C1172 0.929 . S
H1235 C1174 0.930 . S
H1236 C1176 0.930 . S
H1237 C1179 0.929 . S
H1238 C1180 0.932 . S
H1239 C1182 0.930 . S
H1240 C1206 0.929 . S
H1241 C1207 0.932 . S
H1242 C1208 0.931 . S
H1243 C1217 0.931 . S
H1244 C1219 0.929 . S
H1245 C1221 0.932 . S
Cd1246 O1303 2.350 . S
Cd1246 O1304 2.277 . S
Cd1246 O1311 2.173 . S
Cd1246 O1313 2.263 . S
Cd1246 O1315 2.366 . S
Cd1246 O1318 2.329 . S
C1247 O1311 1.277 . S
C1247 O1312 1.230 . S
C1248 O1249 1.246 . S
C1248 C1251 1.481 . S
C1248 N1273 1.329 . S
O1249 C1248 1.246 . S
Cd1250 O1312 2.250 . S
Cd1250 O1314 2.308 . S
Cd1250 O1317 2.352 . S
C1251 C1248 1.481 . S
C1251 N1254 1.327 . S
C1251 C1255 1.407 . S
C1252 C1253 1.346 . S
C1252 C1256 1.390 . S
C1252 H1320 0.930 . S
C1253 C1252 1.346 . S
C1253 N1254 1.342 . S
C1253 C1258 1.516 . S
N1254 C1251 1.327 . S
N1254 C1253 1.342 . S
N1254 Co1257 1.864 . S
C1255 C1251 1.407 . S
C1255 C1256 1.364 . S
C1255 H1321 0.930 . S
C1256 C1252 1.390 . S
C1256 C1255 1.364 . S
C1256 H1322 0.931 . S
Co1257 N1254 1.864 . S
Co1257 N1273 1.955 . S
Co1257 N1274 1.958 . S
Co1257 N1275 1.953 . S
Co1257 N1293 1.869 . S
Co1257 N1299 1.974 . S
C1258 C1253 1.516 . S
C1258 O1259 1.238 . S
C1258 N1274 1.324 . S
O1259 C1258 1.238 . S
C1260 C1261 1.394 . S
C1260 C1265 1.395 . S
C1260 N1274 1.427 . S
C1261 C1260 1.394 . S
C1261 C1262 1.380 . S
C1261 H1323 0.929 . S
C1262 C1261 1.380 . S
C1262 C1263 1.384 . S
C1262 C1266 1.495 . S
C1263 C1262 1.384 . S
C1263 C1264 1.382 . S
C1263 H1324 0.930 . S
C1264 C1263 1.382 . S
C1264 C1265 1.398 . S
C1265 C1260 1.395 . S
C1265 C1264 1.398 . S
C1265 H1325 0.930 . S
C1266 C1262 1.495 . S
C1266 O1313 1.258 . S
C1266 O1314 1.274 . S
C1267 C1268 1.385 . S
C1267 C1269 1.381 . S
C1267 N1273 1.432 . S
C1268 C1267 1.385 . S
C1268 C1272 1.388 . S
C1268 H1326 0.929 . S
C1269 C1267 1.381 . S
C1269 C1270 1.371 . S
C1269 H1327 0.932 . S
C1270 C1269 1.371 . S
C1270 C1271 1.400 . S
C1271 C1270 1.400 . S
C1271 C1272 1.351 . S
C1271 H1328 0.930 . S
C1272 C1268 1.388 . S
C1272 C1271 1.351 . S
N1273 C1248 1.329 . S
N1273 Co1257 1.955 . S
N1273 C1267 1.432 . S
N1274 Co1257 1.958 . S
N1274 C1258 1.324 . S
N1274 C1260 1.427 . S
N1275 Co1257 1.953 . S
N1275 C1276 1.436 . S
N1275 C1302 1.316 . S
C1276 N1275 1.436 . S
C1276 C1277 1.421 . S
C1276 C1278 1.360 . S
C1277 C1276 1.421 . S
C1277 C1279 1.379 . S
C1277 H1280 0.929 . S
C1278 C1276 1.360 . S
C1278 C1282 1.393 . S
C1278 H1284 0.931 . S
C1279 C1277 1.379 . S
C1279 C1281 1.417 . S
C1279 C1283 1.505 . S
H1280 C1277 0.929 . S
C1281 C1279 1.417 . S
C1281 C1282 1.352 . S
C1281 H1285 0.929 . S
C1282 C1278 1.393 . S
C1282 C1281 1.352 . S
C1282 C1286 1.482 . S
C1283 C1279 1.505 . S
C1283 O1287 1.259 . S
C1283 O1288 1.229 . S
H1284 C1278 0.931 . S
H1285 C1281 0.929 . S
C1286 C1282 1.482 . S
C1286 O1289 1.207 . S
C1286 O1290 1.289 . S
O1287 C1283 1.259 . S
O1287 H1291 0.822 . S
O1288 C1283 1.229 . S
O1289 C1286 1.207 . S
O1290 C1286 1.289 . S
O1290 H1292 0.819 . S
H1291 O1287 0.822 . S
H1292 O1290 0.819 . S
N1293 Co1257 1.869 . S
N1293 C1294 1.330 . S
N1293 C1298 1.325 . S
C1294 N1293 1.330 . S
C1294 C1295 1.359 . S
C1294 C1300 1.504 . S
C1295 C1294 1.359 . S
C1295 C1296 1.366 . S
C1295 H1329 0.929 . S
C1296 C1295 1.366 . S
C1296 C1297 1.415 . S
C1296 H1330 0.932 . S
C1297 C1296 1.415 . S
C1297 C1298 1.366 . S
C1297 H1331 0.931 . S
C1298 N1293 1.325 . S
C1298 C1297 1.366 . S
C1298 C1302 1.516 . S
N1299 Co1257 1.974 . S
N1299 C1300 1.309 . S
N1299 C1305 1.423 . S
C1300 C1294 1.504 . S
C1300 N1299 1.309 . S
C1300 O1301 1.258 . S
O1301 C1300 1.258 . S
C1302 N1275 1.316 . S
C1302 C1298 1.516 . S
C1302 O1315 1.263 . S
O1303 Cd1246 2.350 . S
O1303 C1319 1.270 . S
O1304 Cd1246 2.277 . S
O1304 C1319 1.248 . S
C1305 N1299 1.423 . S
C1305 C1306 1.370 . S
C1305 C1310 1.403 . S
C1306 C1305 1.370 . S
C1306 C1307 1.389 . S
C1306 H1332 0.931 . S
C1307 C1306 1.389 . S
C1307 C1308 1.389 . S
C1308 C1307 1.389 . S
C1308 C1309 1.379 . S
C1308 H1333 0.929 . S
C1309 C1308 1.379 . S
C1309 C1310 1.405 . S
C1310 C1305 1.403 . S
C1310 C1309 1.405 . S
C1310 H1334 0.932 . S
O1311 Cd1246 2.173 . S
O1311 C1247 1.277 . S
O1312 C1247 1.230 . S
O1312 Cd1250 2.250 . S
O1313 Cd1246 2.263 . S
O1313 C1266 1.258 . S
O1314 Cd1250 2.308 . S
O1314 C1266 1.274 . S
O1315 Cd1246 2.366 . S
O1315 C1302 1.263 . S
C1316 O1317 1.235 . S
C1316 O1318 1.270 . S
O1317 Cd1250 2.352 . S
O1317 C1316 1.235 . S
O1318 Cd1246 2.329 . S
O1318 C1316 1.270 . S
C1319 O1303 1.270 . S
C1319 O1304 1.248 . S
H1320 C1252 0.930 . S
H1321 C1255 0.930 . S
H1322 C1256 0.931 . S
H1323 C1261 0.929 . S
H1324 C1263 0.930 . S
H1325 C1265 0.930 . S
H1326 C1268 0.929 . S
H1327 C1269 0.932 . S
H1328 C1271 0.930 . S
H1329 C1295 0.929 . S
H1330 C1296 0.932 . S
H1331 C1297 0.931 . S
H1332 C1306 0.931 . S
H1333 C1308 0.929 . S
H1334 C1310 0.932 . S
Cd1335 O1392 2.350 . S
Cd1335 O1393 2.277 . S
Cd1335 O1400 2.173 . S
Cd1335 O1402 2.263 . S
Cd1335 O1404 2.366 . S
Cd1335 O1407 2.329 . S
C1336 O1400 1.277 . S
C1336 O1401 1.230 . S
C1337 O1338 1.246 . S
C1337 C1340 1.481 . S
C1337 N1362 1.329 . S
O1338 C1337 1.246 . S
Cd1339 O1401 2.250 . S
Cd1339 O1403 2.308 . S
Cd1339 O1406 2.352 . S
C1340 C1337 1.481 . S
C1340 N1343 1.327 . S
C1340 C1344 1.407 . S
C1341 C1342 1.346 . S
C1341 C1345 1.390 . S
C1341 H1409 0.930 . S
C1342 C1341 1.346 . S
C1342 N1343 1.342 . S
C1342 C1347 1.516 . S
N1343 C1340 1.327 . S
N1343 C1342 1.342 . S
N1343 Co1346 1.864 . S
C1344 C1340 1.407 . S
C1344 C1345 1.364 . S
C1344 H1410 0.930 . S
C1345 C1341 1.390 . S
C1345 C1344 1.364 . S
C1345 H1411 0.931 . S
Co1346 N1343 1.864 . S
Co1346 N1362 1.955 . S
Co1346 N1363 1.958 . S
Co1346 N1364 1.953 . S
Co1346 N1382 1.869 . S
Co1346 N1388 1.974 . S
C1347 C1342 1.516 . S
C1347 O1348 1.238 . S
C1347 N1363 1.324 . S
O1348 C1347 1.238 . S
C1349 C1350 1.394 . S
C1349 C1354 1.395 . S
C1349 N1363 1.427 . S
C1350 C1349 1.394 . S
C1350 C1351 1.380 . S
C1350 H1412 0.929 . S
C1351 C1350 1.380 . S
C1351 C1352 1.384 . S
C1351 C1355 1.495 . S
C1352 C1351 1.384 . S
C1352 C1353 1.382 . S
C1352 H1413 0.930 . S
C1353 C1352 1.382 . S
C1353 C1354 1.398 . S
C1354 C1349 1.395 . S
C1354 C1353 1.398 . S
C1354 H1414 0.930 . S
C1355 C1351 1.495 . S
C1355 O1402 1.258 . S
C1355 O1403 1.274 . S
C1356 C1357 1.385 . S
C1356 C1358 1.381 . S
C1356 N1362 1.432 . S
C1357 C1356 1.385 . S
C1357 C1361 1.388 . S
C1357 H1415 0.929 . S
C1358 C1356 1.381 . S
C1358 C1359 1.371 . S
C1358 H1416 0.932 . S
C1359 C1358 1.371 . S
C1359 C1360 1.400 . S
C1360 C1359 1.400 . S
C1360 C1361 1.351 . S
C1360 H1417 0.930 . S
C1361 C1357 1.388 . S
C1361 C1360 1.351 . S
N1362 C1337 1.329 . S
N1362 Co1346 1.955 . S
N1362 C1356 1.432 . S
N1363 Co1346 1.958 . S
N1363 C1347 1.324 . S
N1363 C1349 1.427 . S
N1364 Co1346 1.953 . S
N1364 C1365 1.436 . S
N1364 C1391 1.316 . S
C1365 N1364 1.436 . S
C1365 C1366 1.421 . S
C1365 C1367 1.360 . S
C1366 C1365 1.421 . S
C1366 C1368 1.379 . S
C1366 H1369 0.929 . S
C1367 C1365 1.360 . S
C1367 C1371 1.393 . S
C1367 H1373 0.931 . S
C1368 C1366 1.379 . S
C1368 C1370 1.417 . S
C1368 C1372 1.505 . S
H1369 C1366 0.929 . S
C1370 C1368 1.417 . S
C1370 C1371 1.352 . S
C1370 H1374 0.929 . S
C1371 C1367 1.393 . S
C1371 C1370 1.352 . S
C1371 C1375 1.482 . S
C1372 C1368 1.505 . S
C1372 O1376 1.259 . S
C1372 O1377 1.229 . S
H1373 C1367 0.931 . S
H1374 C1370 0.929 . S
C1375 C1371 1.482 . S
C1375 O1378 1.207 . S
C1375 O1379 1.289 . S
O1376 C1372 1.259 . S
O1376 H1380 0.822 . S
O1377 C1372 1.229 . S
O1378 C1375 1.207 . S
O1379 C1375 1.289 . S
O1379 H1381 0.819 . S
H1380 O1376 0.822 . S
H1381 O1379 0.819 . S
N1382 Co1346 1.869 . S
N1382 C1383 1.330 . S
N1382 C1387 1.325 . S
C1383 N1382 1.330 . S
C1383 C1384 1.359 . S
C1383 C1389 1.504 . S
C1384 C1383 1.359 . S
C1384 C1385 1.366 . S
C1384 H1418 0.929 . S
C1385 C1384 1.366 . S
C1385 C1386 1.415 . S
C1385 H1419 0.932 . S
C1386 C1385 1.415 . S
C1386 C1387 1.366 . S
C1386 H1420 0.931 . S
C1387 N1382 1.325 . S
C1387 C1386 1.366 . S
C1387 C1391 1.516 . S
N1388 Co1346 1.974 . S
N1388 C1389 1.309 . S
N1388 C1394 1.423 . S
C1389 C1383 1.504 . S
C1389 N1388 1.309 . S
C1389 O1390 1.258 . S
O1390 C1389 1.258 . S
C1391 N1364 1.316 . S
C1391 C1387 1.516 . S
C1391 O1404 1.263 . S
O1392 Cd1335 2.350 . S
O1392 C1408 1.270 . S
O1393 Cd1335 2.277 . S
O1393 C1408 1.248 . S
C1394 N1388 1.423 . S
C1394 C1395 1.370 . S
C1394 C1399 1.403 . S
C1395 C1394 1.370 . S
C1395 C1396 1.389 . S
C1395 H1421 0.931 . S
C1396 C1395 1.389 . S
C1396 C1397 1.389 . S
C1397 C1396 1.389 . S
C1397 C1398 1.379 . S
C1397 H1422 0.929 . S
C1398 C1397 1.379 . S
C1398 C1399 1.405 . S
C1399 C1394 1.403 . S
C1399 C1398 1.405 . S
C1399 H1423 0.932 . S
O1400 Cd1335 2.173 . S
O1400 C1336 1.277 . S
O1401 C1336 1.230 . S
O1401 Cd1339 2.250 . S
O1402 Cd1335 2.263 . S
O1402 C1355 1.258 . S
O1403 Cd1339 2.308 . S
O1403 C1355 1.274 . S
O1404 Cd1335 2.366 . S
O1404 C1391 1.263 . S
C1405 O1406 1.235 . S
C1405 O1407 1.270 . S
O1406 Cd1339 2.352 . S
O1406 C1405 1.235 . S
O1407 Cd1335 2.329 . S
O1407 C1405 1.270 . S
C1408 O1392 1.270 . S
C1408 O1393 1.248 . S
H1409 C1341 0.930 . S
H1410 C1344 0.930 . S
H1411 C1345 0.931 . S
H1412 C1350 0.929 . S
H1413 C1352 0.930 . S
H1414 C1354 0.930 . S
H1415 C1357 0.929 . S
H1416 C1358 0.932 . S
H1417 C1360 0.930 . S
H1418 C1384 0.929 . S
H1419 C1385 0.932 . S
H1420 C1386 0.931 . S
H1421 C1395 0.931 . S
H1422 C1397 0.929 . S
H1423 C1399 0.932 . S
Cd1424 O1481 2.350 . S
Cd1424 O1482 2.277 . S
Cd1424 O1489 2.173 . S
Cd1424 O1491 2.263 . S
Cd1424 O1493 2.366 . S
Cd1424 O1496 2.329 . S
C1425 O1489 1.277 . S
C1425 O1490 1.230 . S
C1426 O1427 1.246 . S
C1426 C1429 1.481 . S
C1426 N1451 1.329 . S
O1427 C1426 1.246 . S
Cd1428 O1490 2.250 . S
Cd1428 O1492 2.308 . S
Cd1428 O1495 2.352 . S
C1429 C1426 1.481 . S
C1429 N1432 1.327 . S
C1429 C1433 1.407 . S
C1430 C1431 1.346 . S
C1430 C1434 1.390 . S
C1430 H1498 0.930 . S
C1431 C1430 1.346 . S
C1431 N1432 1.342 . S
C1431 C1436 1.516 . S
N1432 C1429 1.327 . S
N1432 C1431 1.342 . S
N1432 Co1435 1.864 . S
C1433 C1429 1.407 . S
C1433 C1434 1.364 . S
C1433 H1499 0.930 . S
C1434 C1430 1.390 . S
C1434 C1433 1.364 . S
C1434 H1500 0.931 . S
Co1435 N1432 1.864 . S
Co1435 N1451 1.955 . S
Co1435 N1452 1.958 . S
Co1435 N1453 1.953 . S
Co1435 N1471 1.869 . S
Co1435 N1477 1.974 . S
C1436 C1431 1.516 . S
C1436 O1437 1.238 . S
C1436 N1452 1.324 . S
O1437 C1436 1.238 . S
C1438 C1439 1.394 . S
C1438 C1443 1.395 . S
C1438 N1452 1.427 . S
C1439 C1438 1.394 . S
C1439 C1440 1.380 . S
C1439 H1501 0.929 . S
C1440 C1439 1.380 . S
C1440 C1441 1.384 . S
C1440 C1444 1.495 . S
C1441 C1440 1.384 . S
C1441 C1442 1.382 . S
C1441 H1502 0.930 . S
C1442 C1441 1.382 . S
C1442 C1443 1.398 . S
C1443 C1438 1.395 . S
C1443 C1442 1.398 . S
C1443 H1503 0.930 . S
C1444 C1440 1.495 . S
C1444 O1491 1.258 . S
C1444 O1492 1.274 . S
C1445 C1446 1.385 . S
C1445 C1447 1.381 . S
C1445 N1451 1.432 . S
C1446 C1445 1.385 . S
C1446 C1450 1.388 . S
C1446 H1504 0.929 . S
C1447 C1445 1.381 . S
C1447 C1448 1.371 . S
C1447 H1505 0.932 . S
C1448 C1447 1.371 . S
C1448 C1449 1.400 . S
C1449 C1448 1.400 . S
C1449 C1450 1.351 . S
C1449 H1506 0.930 . S
C1450 C1446 1.388 . S
C1450 C1449 1.351 . S
N1451 C1426 1.329 . S
N1451 Co1435 1.955 . S
N1451 C1445 1.432 . S
N1452 Co1435 1.958 . S
N1452 C1436 1.324 . S
N1452 C1438 1.427 . S
N1453 Co1435 1.953 . S
N1453 C1454 1.436 . S
N1453 C1480 1.316 . S
C1454 N1453 1.436 . S
C1454 C1455 1.421 . S
C1454 C1456 1.360 . S
C1455 C1454 1.421 . S
C1455 C1457 1.379 . S
C1455 H1458 0.929 . S
C1456 C1454 1.360 . S
C1456 C1460 1.393 . S
C1456 H1462 0.931 . S
C1457 C1455 1.379 . S
C1457 C1459 1.417 . S
C1457 C1461 1.505 . S
H1458 C1455 0.929 . S
C1459 C1457 1.417 . S
C1459 C1460 1.352 . S
C1459 H1463 0.929 . S
C1460 C1456 1.393 . S
C1460 C1459 1.352 . S
C1460 C1464 1.482 . S
C1461 C1457 1.505 . S
C1461 O1465 1.259 . S
C1461 O1466 1.229 . S
H1462 C1456 0.931 . S
H1463 C1459 0.929 . S
C1464 C1460 1.482 . S
C1464 O1467 1.207 . S
C1464 O1468 1.289 . S
O1465 C1461 1.259 . S
O1465 H1469 0.822 . S
O1466 C1461 1.229 . S
O1467 C1464 1.207 . S
O1468 C1464 1.289 . S
O1468 H1470 0.819 . S
H1469 O1465 0.822 . S
H1470 O1468 0.819 . S
N1471 Co1435 1.869 . S
N1471 C1472 1.330 . S
N1471 C1476 1.325 . S
C1472 N1471 1.330 . S
C1472 C1473 1.359 . S
C1472 C1478 1.504 . S
C1473 C1472 1.359 . S
C1473 C1474 1.366 . S
C1473 H1507 0.929 . S
C1474 C1473 1.366 . S
C1474 C1475 1.415 . S
C1474 H1508 0.932 . S
C1475 C1474 1.415 . S
C1475 C1476 1.366 . S
C1475 H1509 0.931 . S
C1476 N1471 1.325 . S
C1476 C1475 1.366 . S
C1476 C1480 1.516 . S
N1477 Co1435 1.974 . S
N1477 C1478 1.309 . S
N1477 C1483 1.423 . S
C1478 C1472 1.504 . S
C1478 N1477 1.309 . S
C1478 O1479 1.258 . S
O1479 C1478 1.258 . S
C1480 N1453 1.316 . S
C1480 C1476 1.516 . S
C1480 O1493 1.263 . S
O1481 Cd1424 2.350 . S
O1481 C1497 1.270 . S
O1482 Cd1424 2.277 . S
O1482 C1497 1.248 . S
C1483 N1477 1.423 . S
C1483 C1484 1.370 . S
C1483 C1488 1.403 . S
C1484 C1483 1.370 . S
C1484 C1485 1.389 . S
C1484 H1510 0.931 . S
C1485 C1484 1.389 . S
C1485 C1486 1.389 . S
C1486 C1485 1.389 . S
C1486 C1487 1.379 . S
C1486 H1511 0.929 . S
C1487 C1486 1.379 . S
C1487 C1488 1.405 . S
C1488 C1483 1.403 . S
C1488 C1487 1.405 . S
C1488 H1512 0.932 . S
O1489 Cd1424 2.173 . S
O1489 C1425 1.277 . S
O1490 C1425 1.230 . S
O1490 Cd1428 2.250 . S
O1491 Cd1424 2.263 . S
O1491 C1444 1.258 . S
O1492 Cd1428 2.308 . S
O1492 C1444 1.274 . S
O1493 Cd1424 2.366 . S
O1493 C1480 1.263 . S
C1494 O1495 1.235 . S
C1494 O1496 1.270 . S
O1495 Cd1428 2.352 . S
O1495 C1494 1.235 . S
O1496 Cd1424 2.329 . S
O1496 C1494 1.270 . S
C1497 O1481 1.270 . S
C1497 O1482 1.248 . S
H1498 C1430 0.930 . S
H1499 C1433 0.930 . S
H1500 C1434 0.931 . S
H1501 C1439 0.929 . S
H1502 C1441 0.930 . S
H1503 C1443 0.930 . S
H1504 C1446 0.929 . S
H1505 C1447 0.932 . S
H1506 C1449 0.930 . S
H1507 C1473 0.929 . S
H1508 C1474 0.932 . S
H1509 C1475 0.931 . S
H1510 C1484 0.931 . S
H1511 C1486 0.929 . S
H1512 C1488 0.932 . S
Cd1513 O1570 2.350 . S
Cd1513 O1571 2.277 . S
Cd1513 O1578 2.173 . S
Cd1513 O1580 2.263 . S
Cd1513 O1582 2.366 . S
Cd1513 O1585 2.329 . S
C1514 O1578 1.277 . S
C1514 O1579 1.230 . S
C1515 O1516 1.246 . S
C1515 C1518 1.481 . S
C1515 N1540 1.329 . S
O1516 C1515 1.246 . S
Cd1517 O1579 2.250 . S
Cd1517 O1581 2.308 . S
Cd1517 O1584 2.352 . S
C1518 C1515 1.481 . S
C1518 N1521 1.327 . S
C1518 C1522 1.407 . S
C1519 C1520 1.346 . S
C1519 C1523 1.390 . S
C1519 H1587 0.930 . S
C1520 C1519 1.346 . S
C1520 N1521 1.342 . S
C1520 C1525 1.516 . S
N1521 C1518 1.327 . S
N1521 C1520 1.342 . S
N1521 Co1524 1.864 . S
C1522 C1518 1.407 . S
C1522 C1523 1.364 . S
C1522 H1588 0.930 . S
C1523 C1519 1.390 . S
C1523 C1522 1.364 . S
C1523 H1589 0.931 . S
Co1524 N1521 1.864 . S
Co1524 N1540 1.955 . S
Co1524 N1541 1.958 . S
Co1524 N1542 1.953 . S
Co1524 N1560 1.869 . S
Co1524 N1566 1.974 . S
C1525 C1520 1.516 . S
C1525 O1526 1.238 . S
C1525 N1541 1.324 . S
O1526 C1525 1.238 . S
C1527 C1528 1.394 . S
C1527 C1532 1.395 . S
C1527 N1541 1.427 . S
C1528 C1527 1.394 . S
C1528 C1529 1.380 . S
C1528 H1590 0.929 . S
C1529 C1528 1.380 . S
C1529 C1530 1.384 . S
C1529 C1533 1.495 . S
C1530 C1529 1.384 . S
C1530 C1531 1.382 . S
C1530 H1591 0.930 . S
C1531 C1530 1.382 . S
C1531 C1532 1.398 . S
C1532 C1527 1.395 . S
C1532 C1531 1.398 . S
C1532 H1592 0.930 . S
C1533 C1529 1.495 . S
C1533 O1580 1.258 . S
C1533 O1581 1.274 . S
C1534 C1535 1.385 . S
C1534 C1536 1.381 . S
C1534 N1540 1.432 . S
C1535 C1534 1.385 . S
C1535 C1539 1.388 . S
C1535 H1593 0.929 . S
C1536 C1534 1.381 . S
C1536 C1537 1.371 . S
C1536 H1594 0.932 . S
C1537 C1536 1.371 . S
C1537 C1538 1.400 . S
C1538 C1537 1.400 . S
C1538 C1539 1.351 . S
C1538 H1595 0.930 . S
C1539 C1535 1.388 . S
C1539 C1538 1.351 . S
N1540 C1515 1.329 . S
N1540 Co1524 1.955 . S
N1540 C1534 1.432 . S
N1541 Co1524 1.958 . S
N1541 C1525 1.324 . S
N1541 C1527 1.427 . S
N1542 Co1524 1.953 . S
N1542 C1543 1.436 . S
N1542 C1569 1.316 . S
C1543 N1542 1.436 . S
C1543 C1544 1.421 . S
C1543 C1545 1.360 . S
C1544 C1543 1.421 . S
C1544 C1546 1.379 . S
C1544 H1547 0.929 . S
C1545 C1543 1.360 . S
C1545 C1549 1.393 . S
C1545 H1551 0.931 . S
C1546 C1544 1.379 . S
C1546 C1548 1.417 . S
C1546 C1550 1.505 . S
H1547 C1544 0.929 . S
C1548 C1546 1.417 . S
C1548 C1549 1.352 . S
C1548 H1552 0.929 . S
C1549 C1545 1.393 . S
C1549 C1548 1.352 . S
C1549 C1553 1.482 . S
C1550 C1546 1.505 . S
C1550 O1554 1.259 . S
C1550 O1555 1.229 . S
H1551 C1545 0.931 . S
H1552 C1548 0.929 . S
C1553 C1549 1.482 . S
C1553 O1556 1.207 . S
C1553 O1557 1.289 . S
O1554 C1550 1.259 . S
O1554 H1558 0.822 . S
O1555 C1550 1.229 . S
O1556 C1553 1.207 . S
O1557 C1553 1.289 . S
O1557 H1559 0.819 . S
H1558 O1554 0.822 . S
H1559 O1557 0.819 . S
N1560 Co1524 1.869 . S
N1560 C1561 1.330 . S
N1560 C1565 1.325 . S
C1561 N1560 1.330 . S
C1561 C1562 1.359 . S
C1561 C1567 1.504 . S
C1562 C1561 1.359 . S
C1562 C1563 1.366 . S
C1562 H1596 0.929 . S
C1563 C1562 1.366 . S
C1563 C1564 1.415 . S
C1563 H1597 0.932 . S
C1564 C1563 1.415 . S
C1564 C1565 1.366 . S
C1564 H1598 0.931 . S
C1565 N1560 1.325 . S
C1565 C1564 1.366 . S
C1565 C1569 1.516 . S
N1566 Co1524 1.974 . S
N1566 C1567 1.309 . S
N1566 C1572 1.423 . S
C1567 C1561 1.504 . S
C1567 N1566 1.309 . S
C1567 O1568 1.258 . S
O1568 C1567 1.258 . S
C1569 N1542 1.316 . S
C1569 C1565 1.516 . S
C1569 O1582 1.263 . S
O1570 Cd1513 2.350 . S
O1570 C1586 1.270 . S
O1571 Cd1513 2.277 . S
O1571 C1586 1.248 . S
C1572 N1566 1.423 . S
C1572 C1573 1.370 . S
C1572 C1577 1.403 . S
C1573 C1572 1.370 . S
C1573 C1574 1.389 . S
C1573 H1599 0.931 . S
C1574 C1573 1.389 . S
C1574 C1575 1.389 . S
C1575 C1574 1.389 . S
C1575 C1576 1.379 . S
C1575 H1600 0.929 . S
C1576 C1575 1.379 . S
C1576 C1577 1.405 . S
C1577 C1572 1.403 . S
C1577 C1576 1.405 . S
C1577 H1601 0.932 . S
O1578 Cd1513 2.173 . S
O1578 C1514 1.277 . S
O1579 C1514 1.230 . S
O1579 Cd1517 2.250 . S
O1580 Cd1513 2.263 . S
O1580 C1533 1.258 . S
O1581 Cd1517 2.308 . S
O1581 C1533 1.274 . S
O1582 Cd1513 2.366 . S
O1582 C1569 1.263 . S
C1583 O1584 1.235 . S
C1583 O1585 1.270 . S
O1584 Cd1517 2.352 . S
O1584 C1583 1.235 . S
O1585 Cd1513 2.329 . S
O1585 C1583 1.270 . S
C1586 O1570 1.270 . S
C1586 O1571 1.248 . S
H1587 C1519 0.930 . S
H1588 C1522 0.930 . S
H1589 C1523 0.931 . S
H1590 C1528 0.929 . S
H1591 C1530 0.930 . S
H1592 C1532 0.930 . S
H1593 C1535 0.929 . S
H1594 C1536 0.932 . S
H1595 C1538 0.930 . S
H1596 C1562 0.929 . S
H1597 C1563 0.932 . S
H1598 C1564 0.931 . S
H1599 C1573 0.931 . S
H1600 C1575 0.929 . S
H1601 C1577 0.932 . S
Cd1602 O1659 2.350 . S
Cd1602 O1660 2.277 . S
Cd1602 O1667 2.173 . S
Cd1602 O1669 2.263 . S
Cd1602 O1671 2.366 . S
Cd1602 O1674 2.329 . S
C1603 O1667 1.277 . S
C1603 O1668 1.230 . S
C1604 O1605 1.246 . S
C1604 C1607 1.481 . S
C1604 N1629 1.329 . S
O1605 C1604 1.246 . S
Cd1606 O1668 2.250 . S
Cd1606 O1670 2.308 . S
Cd1606 O1673 2.352 . S
C1607 C1604 1.481 . S
C1607 N1610 1.327 . S
C1607 C1611 1.407 . S
C1608 C1609 1.346 . S
C1608 C1612 1.390 . S
C1608 H1676 0.930 . S
C1609 C1608 1.346 . S
C1609 N1610 1.342 . S
C1609 C1614 1.516 . S
N1610 C1607 1.327 . S
N1610 C1609 1.342 . S
N1610 Co1613 1.864 . S
C1611 C1607 1.407 . S
C1611 C1612 1.364 . S
C1611 H1677 0.930 . S
C1612 C1608 1.390 . S
C1612 C1611 1.364 . S
C1612 H1678 0.931 . S
Co1613 N1610 1.864 . S
Co1613 N1629 1.955 . S
Co1613 N1630 1.958 . S
Co1613 N1631 1.953 . S
Co1613 N1649 1.869 . S
Co1613 N1655 1.974 . S
C1614 C1609 1.516 . S
C1614 O1615 1.238 . S
C1614 N1630 1.324 . S
O1615 C1614 1.238 . S
C1616 C1617 1.394 . S
C1616 C1621 1.395 . S
C1616 N1630 1.427 . S
C1617 C1616 1.394 . S
C1617 C1618 1.380 . S
C1617 H1679 0.929 . S
C1618 C1617 1.380 . S
C1618 C1619 1.384 . S
C1618 C1622 1.495 . S
C1619 C1618 1.384 . S
C1619 C1620 1.382 . S
C1619 H1680 0.930 . S
C1620 C1619 1.382 . S
C1620 C1621 1.398 . S
C1621 C1616 1.395 . S
C1621 C1620 1.398 . S
C1621 H1681 0.930 . S
C1622 C1618 1.495 . S
C1622 O1669 1.258 . S
C1622 O1670 1.274 . S
C1623 C1624 1.385 . S
C1623 C1625 1.381 . S
C1623 N1629 1.432 . S
C1624 C1623 1.385 . S
C1624 C1628 1.388 . S
C1624 H1682 0.929 . S
C1625 C1623 1.381 . S
C1625 C1626 1.371 . S
C1625 H1683 0.932 . S
C1626 C1625 1.371 . S
C1626 C1627 1.400 . S
C1627 C1626 1.400 . S
C1627 C1628 1.351 . S
C1627 H1684 0.930 . S
C1628 C1624 1.388 . S
C1628 C1627 1.351 . S
N1629 C1604 1.329 . S
N1629 Co1613 1.955 . S
N1629 C1623 1.432 . S
N1630 Co1613 1.958 . S
N1630 C1614 1.324 . S
N1630 C1616 1.427 . S
N1631 Co1613 1.953 . S
N1631 C1632 1.436 . S
N1631 C1658 1.316 . S
C1632 N1631 1.436 . S
C1632 C1633 1.421 . S
C1632 C1634 1.360 . S
C1633 C1632 1.421 . S
C1633 C1635 1.379 . S
C1633 H1636 0.929 . S
C1634 C1632 1.360 . S
C1634 C1638 1.393 . S
C1634 H1640 0.931 . S
C1635 C1633 1.379 . S
C1635 C1637 1.417 . S
C1635 C1639 1.505 . S
H1636 C1633 0.929 . S
C1637 C1635 1.417 . S
C1637 C1638 1.352 . S
C1637 H1641 0.929 . S
C1638 C1634 1.393 . S
C1638 C1637 1.352 . S
C1638 C1642 1.482 . S
C1639 C1635 1.505 . S
C1639 O1643 1.259 . S
C1639 O1644 1.229 . S
H1640 C1634 0.931 . S
H1641 C1637 0.929 . S
C1642 C1638 1.482 . S
C1642 O1645 1.207 . S
C1642 O1646 1.289 . S
O1643 C1639 1.259 . S
O1643 H1647 0.822 . S
O1644 C1639 1.229 . S
O1645 C1642 1.207 . S
O1646 C1642 1.289 . S
O1646 H1648 0.819 . S
H1647 O1643 0.822 . S
H1648 O1646 0.819 . S
N1649 Co1613 1.869 . S
N1649 C1650 1.330 . S
N1649 C1654 1.325 . S
C1650 N1649 1.330 . S
C1650 C1651 1.359 . S
C1650 C1656 1.504 . S
C1651 C1650 1.359 . S
C1651 C1652 1.366 . S
C1651 H1685 0.929 . S
C1652 C1651 1.366 . S
C1652 C1653 1.415 . S
C1652 H1686 0.932 . S
C1653 C1652 1.415 . S
C1653 C1654 1.366 . S
C1653 H1687 0.931 . S
C1654 N1649 1.325 . S
C1654 C1653 1.366 . S
C1654 C1658 1.516 . S
N1655 Co1613 1.974 . S
N1655 C1656 1.309 . S
N1655 C1661 1.423 . S
C1656 C1650 1.504 . S
C1656 N1655 1.309 . S
C1656 O1657 1.258 . S
O1657 C1656 1.258 . S
C1658 N1631 1.316 . S
C1658 C1654 1.516 . S
C1658 O1671 1.263 . S
O1659 Cd1602 2.350 . S
O1659 C1675 1.270 . S
O1660 Cd1602 2.277 . S
O1660 C1675 1.248 . S
C1661 N1655 1.423 . S
C1661 C1662 1.370 . S
C1661 C1666 1.403 . S
C1662 C1661 1.370 . S
C1662 C1663 1.389 . S
C1662 H1688 0.931 . S
C1663 C1662 1.389 . S
C1663 C1664 1.389 . S
C1664 C1663 1.389 . S
C1664 C1665 1.379 . S
C1664 H1689 0.929 . S
C1665 C1664 1.379 . S
C1665 C1666 1.405 . S
C1666 C1661 1.403 . S
C1666 C1665 1.405 . S
C1666 H1690 0.932 . S
O1667 Cd1602 2.173 . S
O1667 C1603 1.277 . S
O1668 C1603 1.230 . S
O1668 Cd1606 2.250 . S
O1669 Cd1602 2.263 . S
O1669 C1622 1.258 . S
O1670 Cd1606 2.308 . S
O1670 C1622 1.274 . S
O1671 Cd1602 2.366 . S
O1671 C1658 1.263 . S
C1672 O1673 1.235 . S
C1672 O1674 1.270 . S
O1673 Cd1606 2.352 . S
O1673 C1672 1.235 . S
O1674 Cd1602 2.329 . S
O1674 C1672 1.270 . S
C1675 O1659 1.270 . S
C1675 O1660 1.248 . S
H1676 C1608 0.930 . S
H1677 C1611 0.930 . S
H1678 C1612 0.931 . S
H1679 C1617 0.929 . S
H1680 C1619 0.930 . S
H1681 C1621 0.930 . S
H1682 C1624 0.929 . S
H1683 C1625 0.932 . S
H1684 C1627 0.930 . S
H1685 C1651 0.929 . S
H1686 C1652 0.932 . S
H1687 C1653 0.931 . S
H1688 C1662 0.931 . S
H1689 C1664 0.929 . S
H1690 C1666 0.932 . S
Cd1691 O1748 2.350 . S
Cd1691 O1749 2.277 . S
Cd1691 O1756 2.173 . S
Cd1691 O1758 2.263 . S
Cd1691 O1760 2.366 . S
Cd1691 O1763 2.329 . S
C1692 O1756 1.277 . S
C1692 O1757 1.230 . S
C1693 O1694 1.246 . S
C1693 C1696 1.481 . S
C1693 N1718 1.329 . S
O1694 C1693 1.246 . S
Cd1695 O1757 2.250 . S
Cd1695 O1759 2.308 . S
Cd1695 O1762 2.352 . S
C1696 C1693 1.481 . S
C1696 N1699 1.327 . S
C1696 C1700 1.407 . S
C1697 C1698 1.346 . S
C1697 C1701 1.390 . S
C1697 H1765 0.930 . S
C1698 C1697 1.346 . S
C1698 N1699 1.342 . S
C1698 C1703 1.516 . S
N1699 C1696 1.327 . S
N1699 C1698 1.342 . S
N1699 Co1702 1.864 . S
C1700 C1696 1.407 . S
C1700 C1701 1.364 . S
C1700 H1766 0.930 . S
C1701 C1697 1.390 . S
C1701 C1700 1.364 . S
C1701 H1767 0.931 . S
Co1702 N1699 1.864 . S
Co1702 N1718 1.955 . S
Co1702 N1719 1.958 . S
Co1702 N1720 1.953 . S
Co1702 N1738 1.869 . S
Co1702 N1744 1.974 . S
C1703 C1698 1.516 . S
C1703 O1704 1.238 . S
C1703 N1719 1.324 . S
O1704 C1703 1.238 . S
C1705 C1706 1.394 . S
C1705 C1710 1.395 . S
C1705 N1719 1.427 . S
C1706 C1705 1.394 . S
C1706 C1707 1.380 . S
C1706 H1768 0.929 . S
C1707 C1706 1.380 . S
C1707 C1708 1.384 . S
C1707 C1711 1.495 . S
C1708 C1707 1.384 . S
C1708 C1709 1.382 . S
C1708 H1769 0.930 . S
C1709 C1708 1.382 . S
C1709 C1710 1.398 . S
C1710 C1705 1.395 . S
C1710 C1709 1.398 . S
C1710 H1770 0.930 . S
C1711 C1707 1.495 . S
C1711 O1758 1.258 . S
C1711 O1759 1.274 . S
C1712 C1713 1.385 . S
C1712 C1714 1.381 . S
C1712 N1718 1.432 . S
C1713 C1712 1.385 . S
C1713 C1717 1.388 . S
C1713 H1771 0.929 . S
C1714 C1712 1.381 . S
C1714 C1715 1.371 . S
C1714 H1772 0.932 . S
C1715 C1714 1.371 . S
C1715 C1716 1.400 . S
C1716 C1715 1.400 . S
C1716 C1717 1.351 . S
C1716 H1773 0.930 . S
C1717 C1713 1.388 . S
C1717 C1716 1.351 . S
N1718 C1693 1.329 . S
N1718 Co1702 1.955 . S
N1718 C1712 1.432 . S
N1719 Co1702 1.958 . S
N1719 C1703 1.324 . S
N1719 C1705 1.427 . S
N1720 Co1702 1.953 . S
N1720 C1721 1.436 . S
N1720 C1747 1.316 . S
C1721 N1720 1.436 . S
C1721 C1722 1.421 . S
C1721 C1723 1.360 . S
C1722 C1721 1.421 . S
C1722 C1724 1.379 . S
C1722 H1725 0.929 . S
C1723 C1721 1.360 . S
C1723 C1727 1.393 . S
C1723 H1729 0.931 . S
C1724 C1722 1.379 . S
C1724 C1726 1.417 . S
C1724 C1728 1.505 . S
H1725 C1722 0.929 . S
C1726 C1724 1.417 . S
C1726 C1727 1.352 . S
C1726 H1730 0.929 . S
C1727 C1723 1.393 . S
C1727 C1726 1.352 . S
C1727 C1731 1.482 . S
C1728 C1724 1.505 . S
C1728 O1732 1.259 . S
C1728 O1733 1.229 . S
H1729 C1723 0.931 . S
H1730 C1726 0.929 . S
C1731 C1727 1.482 . S
C1731 O1734 1.207 . S
C1731 O1735 1.289 . S
O1732 C1728 1.259 . S
O1732 H1736 0.822 . S
O1733 C1728 1.229 . S
O1734 C1731 1.207 . S
O1735 C1731 1.289 . S
O1735 H1737 0.819 . S
H1736 O1732 0.822 . S
H1737 O1735 0.819 . S
N1738 Co1702 1.869 . S
N1738 C1739 1.330 . S
N1738 C1743 1.325 . S
C1739 N1738 1.330 . S
C1739 C1740 1.359 . S
C1739 C1745 1.504 . S
C1740 C1739 1.359 . S
C1740 C1741 1.366 . S
C1740 H1774 0.929 . S
C1741 C1740 1.366 . S
C1741 C1742 1.415 . S
C1741 H1775 0.932 . S
C1742 C1741 1.415 . S
C1742 C1743 1.366 . S
C1742 H1776 0.931 . S
C1743 N1738 1.325 . S
C1743 C1742 1.366 . S
C1743 C1747 1.516 . S
N1744 Co1702 1.974 . S
N1744 C1745 1.309 . S
N1744 C1750 1.423 . S
C1745 C1739 1.504 . S
C1745 N1744 1.309 . S
C1745 O1746 1.258 . S
O1746 C1745 1.258 . S
C1747 N1720 1.316 . S
C1747 C1743 1.516 . S
C1747 O1760 1.263 . S
O1748 Cd1691 2.350 . S
O1748 C1764 1.270 . S
O1749 Cd1691 2.277 . S
O1749 C1764 1.248 . S
C1750 N1744 1.423 . S
C1750 C1751 1.370 . S
C1750 C1755 1.403 . S
C1751 C1750 1.370 . S
C1751 C1752 1.389 . S
C1751 H1777 0.931 . S
C1752 C1751 1.389 . S
C1752 C1753 1.389 . S
C1753 C1752 1.389 . S
C1753 C1754 1.379 . S
C1753 H1778 0.929 . S
C1754 C1753 1.379 . S
C1754 C1755 1.405 . S
C1755 C1750 1.403 . S
C1755 C1754 1.405 . S
C1755 H1779 0.932 . S
O1756 Cd1691 2.173 . S
O1756 C1692 1.277 . S
O1757 C1692 1.230 . S
O1757 Cd1695 2.250 . S
O1758 Cd1691 2.263 . S
O1758 C1711 1.258 . S
O1759 Cd1695 2.308 . S
O1759 C1711 1.274 . S
O1760 Cd1691 2.366 . S
O1760 C1747 1.263 . S
C1761 O1762 1.235 . S
C1761 O1763 1.270 . S
O1762 Cd1695 2.352 . S
O1762 C1761 1.235 . S
O1763 Cd1691 2.329 . S
O1763 C1761 1.270 . S
C1764 O1748 1.270 . S
C1764 O1749 1.248 . S
H1765 C1697 0.930 . S
H1766 C1700 0.930 . S
H1767 C1701 0.931 . S
H1768 C1706 0.929 . S
H1769 C1708 0.930 . S
H1770 C1710 0.930 . S
H1771 C1713 0.929 . S
H1772 C1714 0.932 . S
H1773 C1716 0.930 . S
H1774 C1740 0.929 . S
H1775 C1741 0.932 . S
H1776 C1742 0.931 . S
H1777 C1751 0.931 . S
H1778 C1753 0.929 . S
H1779 C1755 0.932 . S
Cd1780 O1837 2.350 . S
Cd1780 O1838 2.277 . S
Cd1780 O1845 2.173 . S
Cd1780 O1847 2.263 . S
Cd1780 O1849 2.366 . S
Cd1780 O1852 2.329 . S
C1781 O1845 1.277 . S
C1781 O1846 1.230 . S
C1782 O1783 1.246 . S
C1782 C1785 1.481 . S
C1782 N1807 1.329 . S
O1783 C1782 1.246 . S
Cd1784 O1846 2.250 . S
Cd1784 O1848 2.308 . S
Cd1784 O1851 2.352 . S
C1785 C1782 1.481 . S
C1785 N1788 1.327 . S
C1785 C1789 1.407 . S
C1786 C1787 1.346 . S
C1786 C1790 1.390 . S
C1786 H1854 0.930 . S
C1787 C1786 1.346 . S
C1787 N1788 1.342 . S
C1787 C1792 1.516 . S
N1788 C1785 1.327 . S
N1788 C1787 1.342 . S
N1788 Co1791 1.864 . S
C1789 C1785 1.407 . S
C1789 C1790 1.364 . S
C1789 H1855 0.930 . S
C1790 C1786 1.390 . S
C1790 C1789 1.364 . S
C1790 H1856 0.931 . S
Co1791 N1788 1.864 . S
Co1791 N1807 1.955 . S
Co1791 N1808 1.958 . S
Co1791 N1809 1.953 . S
Co1791 N1827 1.869 . S
Co1791 N1833 1.974 . S
C1792 C1787 1.516 . S
C1792 O1793 1.238 . S
C1792 N1808 1.324 . S
O1793 C1792 1.238 . S
C1794 C1795 1.394 . S
C1794 C1799 1.395 . S
C1794 N1808 1.427 . S
C1795 C1794 1.394 . S
C1795 C1796 1.380 . S
C1795 H1857 0.929 . S
C1796 C1795 1.380 . S
C1796 C1797 1.384 . S
C1796 C1800 1.495 . S
C1797 C1796 1.384 . S
C1797 C1798 1.382 . S
C1797 H1858 0.930 . S
C1798 C1797 1.382 . S
C1798 C1799 1.398 . S
C1799 C1794 1.395 . S
C1799 C1798 1.398 . S
C1799 H1859 0.930 . S
C1800 C1796 1.495 . S
C1800 O1847 1.258 . S
C1800 O1848 1.274 . S
C1801 C1802 1.385 . S
C1801 C1803 1.381 . S
C1801 N1807 1.432 . S
C1802 C1801 1.385 . S
C1802 C1806 1.388 . S
C1802 H1860 0.929 . S
C1803 C1801 1.381 . S
C1803 C1804 1.371 . S
C1803 H1861 0.932 . S
C1804 C1803 1.371 . S
C1804 C1805 1.400 . S
C1805 C1804 1.400 . S
C1805 C1806 1.351 . S
C1805 H1862 0.930 . S
C1806 C1802 1.388 . S
C1806 C1805 1.351 . S
N1807 C1782 1.329 . S
N1807 Co1791 1.955 . S
N1807 C1801 1.432 . S
N1808 Co1791 1.958 . S
N1808 C1792 1.324 . S
N1808 C1794 1.427 . S
N1809 Co1791 1.953 . S
N1809 C1810 1.436 . S
N1809 C1836 1.316 . S
C1810 N1809 1.436 . S
C1810 C1811 1.421 . S
C1810 C1812 1.360 . S
C1811 C1810 1.421 . S
C1811 C1813 1.379 . S
C1811 H1814 0.929 . S
C1812 C1810 1.360 . S
C1812 C1816 1.393 . S
C1812 H1818 0.931 . S
C1813 C1811 1.379 . S
C1813 C1815 1.417 . S
C1813 C1817 1.505 . S
H1814 C1811 0.929 . S
C1815 C1813 1.417 . S
C1815 C1816 1.352 . S
C1815 H1819 0.929 . S
C1816 C1812 1.393 . S
C1816 C1815 1.352 . S
C1816 C1820 1.482 . S
C1817 C1813 1.505 . S
C1817 O1821 1.259 . S
C1817 O1822 1.229 . S
H1818 C1812 0.931 . S
H1819 C1815 0.929 . S
C1820 C1816 1.482 . S
C1820 O1823 1.207 . S
C1820 O1824 1.289 . S
O1821 C1817 1.259 . S
O1821 H1825 0.822 . S
O1822 C1817 1.229 . S
O1823 C1820 1.207 . S
O1824 C1820 1.289 . S
O1824 H1826 0.819 . S
H1825 O1821 0.822 . S
H1826 O1824 0.819 . S
N1827 Co1791 1.869 . S
N1827 C1828 1.330 . S
N1827 C1832 1.325 . S
C1828 N1827 1.330 . S
C1828 C1829 1.359 . S
C1828 C1834 1.504 . S
C1829 C1828 1.359 . S
C1829 C1830 1.366 . S
C1829 H1863 0.929 . S
C1830 C1829 1.366 . S
C1830 C1831 1.415 . S
C1830 H1864 0.932 . S
C1831 C1830 1.415 . S
C1831 C1832 1.366 . S
C1831 H1865 0.931 . S
C1832 N1827 1.325 . S
C1832 C1831 1.366 . S
C1832 C1836 1.516 . S
N1833 Co1791 1.974 . S
N1833 C1834 1.309 . S
N1833 C1839 1.423 . S
C1834 C1828 1.504 . S
C1834 N1833 1.309 . S
C1834 O1835 1.258 . S
O1835 C1834 1.258 . S
C1836 N1809 1.316 . S
C1836 C1832 1.516 . S
C1836 O1849 1.263 . S
O1837 Cd1780 2.350 . S
O1837 C1853 1.270 . S
O1838 Cd1780 2.277 . S
O1838 C1853 1.248 . S
C1839 N1833 1.423 . S
C1839 C1840 1.370 . S
C1839 C1844 1.403 . S
C1840 C1839 1.370 . S
C1840 C1841 1.389 . S
C1840 H1866 0.931 . S
C1841 C1840 1.389 . S
C1841 C1842 1.389 . S
C1842 C1841 1.389 . S
C1842 C1843 1.379 . S
C1842 H1867 0.929 . S
C1843 C1842 1.379 . S
C1843 C1844 1.405 . S
C1844 C1839 1.403 . S
C1844 C1843 1.405 . S
C1844 H1868 0.932 . S
O1845 Cd1780 2.173 . S
O1845 C1781 1.277 . S
O1846 C1781 1.230 . S
O1846 Cd1784 2.250 . S
O1847 Cd1780 2.263 . S
O1847 C1800 1.258 . S
O1848 Cd1784 2.308 . S
O1848 C1800 1.274 . S
O1849 Cd1780 2.366 . S
O1849 C1836 1.263 . S
C1850 O1851 1.235 . S
C1850 O1852 1.270 . S
O1851 Cd1784 2.352 . S
O1851 C1850 1.235 . S
O1852 Cd1780 2.329 . S
O1852 C1850 1.270 . S
C1853 O1837 1.270 . S
C1853 O1838 1.248 . S
H1854 C1786 0.930 . S
H1855 C1789 0.930 . S
H1856 C1790 0.931 . S
H1857 C1795 0.929 . S
H1858 C1797 0.930 . S
H1859 C1799 0.930 . S
H1860 C1802 0.929 . S
H1861 C1803 0.932 . S
H1862 C1805 0.930 . S
H1863 C1829 0.929 . S
H1864 C1830 0.932 . S
H1865 C1831 0.931 . S
H1866 C1840 0.931 . S
H1867 C1842 0.929 . S
H1868 C1844 0.932 . S
Cd1869 O1926 2.350 . S
Cd1869 O1927 2.277 . S
Cd1869 O1934 2.173 . S
Cd1869 O1936 2.263 . S
Cd1869 O1938 2.366 . S
Cd1869 O1941 2.329 . S
C1870 O1934 1.277 . S
C1870 O1935 1.230 . S
C1871 O1872 1.246 . S
C1871 C1874 1.481 . S
C1871 N1896 1.329 . S
O1872 C1871 1.246 . S
Cd1873 O1935 2.250 . S
Cd1873 O1937 2.308 . S
Cd1873 O1940 2.352 . S
C1874 C1871 1.481 . S
C1874 N1877 1.327 . S
C1874 C1878 1.407 . S
C1875 C1876 1.371 . S
C1875 C1879 1.387 1_556 S
C1875 H1943 0.910 1_556 S
C1876 C1875 1.371 . S
C1876 N1877 1.342 . S
C1876 C1881 1.516 . S
N1877 C1874 1.327 . S
N1877 C1876 1.342 . S
N1877 Co1880 1.864 . S
C1878 C1874 1.407 . S
C1878 C1879 1.364 1_556 S
C1878 H1944 0.930 . S
C1879 C1875 1.387 1_554 S
C1879 C1878 1.364 1_554 S
C1879 H1945 0.931 . S
Co1880 N1877 1.864 . S
Co1880 N1896 1.955 . S
Co1880 N1897 1.958 . S
Co1880 N1898 1.953 . S
Co1880 N1916 1.869 . S
Co1880 N1922 1.974 . S
C1881 C1876 1.516 . S
C1881 O1882 1.238 . S
C1881 N1897 1.324 . S
O1882 C1881 1.238 . S
C1883 C1884 1.394 . S
C1883 C1888 1.395 . S
C1883 N1897 1.427 . S
C1884 C1883 1.394 . S
C1884 C1885 1.380 . S
C1884 H1946 0.929 . S
C1885 C1884 1.380 . S
C1885 C1886 1.384 . S
C1885 C1889 1.495 . S
C1886 C1885 1.384 . S
C1886 C1887 1.382 . S
C1886 H1947 0.930 . S
C1887 C1886 1.382 . S
C1887 C1888 1.398 . S
C1888 C1883 1.395 . S
C1888 C1887 1.398 . S
C1888 H1948 0.930 . S
C1889 C1885 1.495 . S
C1889 O1936 1.258 . S
C1889 O1937 1.274 . S
C1890 C1891 1.385 . S
C1890 C1892 1.381 . S
C1890 N1896 1.432 . S
C1891 C1890 1.385 . S
C1891 C1895 1.388 . S
C1891 H1949 0.929 . S
C1892 C1890 1.381 . S
C1892 C1893 1.371 . S
C1892 H1950 0.932 . S
C1893 C1892 1.371 . S
C1893 C1894 1.400 . S
C1894 C1893 1.400 . S
C1894 C1895 1.351 . S
C1894 H1951 0.930 . S
C1895 C1891 1.388 . S
C1895 C1894 1.351 . S
N1896 C1871 1.329 . S
N1896 Co1880 1.955 . S
N1896 C1890 1.432 . S
N1897 Co1880 1.958 . S
N1897 C1881 1.324 . S
N1897 C1883 1.427 . S
N1898 Co1880 1.953 . S
N1898 C1899 1.436 . S
N1898 C1925 1.316 . S
C1899 N1898 1.436 . S
C1899 C1900 1.421 . S
C1899 C1901 1.360 . S
C1900 C1899 1.421 . S
C1900 C1902 1.379 . S
C1900 H1903 0.929 . S
C1901 C1899 1.360 . S
C1901 C1905 1.393 . S
C1901 H1907 0.931 . S
C1902 C1900 1.379 . S
C1902 C1904 1.417 . S
C1902 C1906 1.505 . S
H1903 C1900 0.929 . S
C1904 C1902 1.417 . S
C1904 C1905 1.352 . S
C1904 H1908 0.929 . S
C1905 C1901 1.393 . S
C1905 C1904 1.352 . S
C1905 C1909 1.482 . S
C1906 C1902 1.505 . S
C1906 O1910 1.259 . S
C1906 O1911 1.229 . S
H1907 C1901 0.931 . S
H1908 C1904 0.929 . S
C1909 C1905 1.482 . S
C1909 O1912 1.207 . S
C1909 O1913 1.289 . S
O1910 C1906 1.259 . S
O1910 H1914 0.822 . S
O1911 C1906 1.229 . S
O1912 C1909 1.207 . S
O1913 C1909 1.289 . S
O1913 H1915 0.819 . S
H1914 O1910 0.822 . S
H1915 O1913 0.819 . S
N1916 Co1880 1.869 . S
N1916 C1917 1.330 . S
N1916 C1921 1.325 . S
C1917 N1916 1.330 . S
C1917 C1918 1.359 . S
C1917 C1923 1.504 . S
C1918 C1917 1.359 . S
C1918 C1919 1.366 . S
C1918 H1952 0.929 . S
C1919 C1918 1.366 . S
C1919 C1920 1.415 . S
C1919 H1953 0.932 . S
C1920 C1919 1.415 . S
C1920 C1921 1.366 . S
C1920 H1954 0.931 . S
C1921 N1916 1.325 . S
C1921 C1920 1.366 . S
C1921 C1925 1.516 . S
N1922 Co1880 1.974 . S
N1922 C1923 1.309 . S
N1922 C1928 1.423 . S
C1923 C1917 1.504 . S
C1923 N1922 1.309 . S
C1923 O1924 1.258 . S
O1924 C1923 1.258 . S
C1925 N1898 1.316 . S
C1925 C1921 1.516 . S
C1925 O1938 1.263 . S
O1926 Cd1869 2.350 . S
O1926 C1942 1.270 . S
O1927 Cd1869 2.277 . S
O1927 C1942 1.248 . S
C1928 N1922 1.423 . S
C1928 C1929 1.370 1_556 S
C1928 C1933 1.403 1_556 S
C1929 C1928 1.370 1_554 S
C1929 C1930 1.389 . S
C1929 H1955 0.931 . S
C1930 C1929 1.389 . S
C1930 C1931 1.389 . S
C1931 C1930 1.389 . S
C1931 C1932 1.379 . S
C1931 H1956 0.929 . S
C1932 C1931 1.379 . S
C1932 C1933 1.405 . S
C1933 C1928 1.403 1_554 S
C1933 C1932 1.405 . S
C1933 H1957 0.932 1_554 S
O1934 Cd1869 2.173 . S
O1934 C1870 1.277 . S
O1935 C1870 1.230 . S
O1935 Cd1873 2.250 . S
O1936 Cd1869 2.263 . S
O1936 C1889 1.258 . S
O1937 Cd1873 2.308 . S
O1937 C1889 1.274 . S
O1938 Cd1869 2.366 . S
O1938 C1925 1.263 . S
C1939 O1940 1.235 . S
C1939 O1941 1.270 . S
O1940 Cd1873 2.352 . S
O1940 C1939 1.235 . S
O1941 Cd1869 2.329 . S
O1941 C1939 1.270 . S
C1942 O1926 1.270 . S
C1942 O1927 1.248 . S
H1943 C1875 0.910 1_554 S
H1944 C1878 0.930 . S
H1945 C1879 0.931 . S
H1946 C1884 0.929 . S
H1947 C1886 0.930 . S
H1948 C1888 0.930 . S
H1949 C1891 0.929 . S
H1950 C1892 0.932 . S
H1951 C1894 0.930 . S
H1952 C1918 0.929 . S
H1953 C1919 0.932 . S
H1954 C1920 0.931 . S
H1955 C1929 0.931 . S
H1956 C1931 0.929 . S
H1957 C1933 0.932 1_556 S
Cd1958 O2015 2.350 . S
Cd1958 O2016 2.277 . S
Cd1958 O2023 2.173 . S
Cd1958 O2025 2.263 . S
Cd1958 O2027 2.366 . S
Cd1958 O2030 2.329 . S
C1959 O2023 1.277 . S
C1959 O2024 1.230 . S
C1960 O1961 1.246 . S
C1960 C1963 1.481 . S
C1960 N1985 1.329 . S
O1961 C1960 1.246 . S
Cd1962 O2024 2.250 . S
Cd1962 O2026 2.308 . S
Cd1962 O2029 2.352 . S
C1963 C1960 1.481 . S
C1963 N1966 1.327 . S
C1963 C1967 1.407 . S
C1964 C1965 1.371 . S
C1964 C1968 1.387 1_556 S
C1964 H2032 0.910 1_556 S
C1965 C1964 1.371 . S
C1965 N1966 1.342 . S
C1965 C1970 1.516 . S
N1966 C1963 1.327 . S
N1966 C1965 1.342 . S
N1966 Co1969 1.864 . S
C1967 C1963 1.407 . S
C1967 C1968 1.364 1_556 S
C1967 H2033 0.930 . S
C1968 C1964 1.387 1_554 S
C1968 C1967 1.364 1_554 S
C1968 H2034 0.931 . S
Co1969 N1966 1.864 . S
Co1969 N1985 1.955 . S
Co1969 N1986 1.958 . S
Co1969 N1987 1.953 . S
Co1969 N2005 1.869 . S
Co1969 N2011 1.974 . S
C1970 C1965 1.516 . S
C1970 O1971 1.238 . S
C1970 N1986 1.324 . S
O1971 C1970 1.238 . S
C1972 C1973 1.394 . S
C1972 C1977 1.395 . S
C1972 N1986 1.427 . S
C1973 C1972 1.394 . S
C1973 C1974 1.380 . S
C1973 H2035 0.929 . S
C1974 C1973 1.380 . S
C1974 C1975 1.384 . S
C1974 C1978 1.495 . S
C1975 C1974 1.384 . S
C1975 C1976 1.382 . S
C1975 H2036 0.930 . S
C1976 C1975 1.382 . S
C1976 C1977 1.398 . S
C1977 C1972 1.395 . S
C1977 C1976 1.398 . S
C1977 H2037 0.930 . S
C1978 C1974 1.495 . S
C1978 O2025 1.258 . S
C1978 O2026 1.274 . S
C1979 C1980 1.385 . S
C1979 C1981 1.381 . S
C1979 N1985 1.432 . S
C1980 C1979 1.385 . S
C1980 C1984 1.388 . S
C1980 H2038 0.929 . S
C1981 C1979 1.381 . S
C1981 C1982 1.371 . S
C1981 H2039 0.932 . S
C1982 C1981 1.371 . S
C1982 C1983 1.400 . S
C1983 C1982 1.400 . S
C1983 C1984 1.351 . S
C1983 H2040 0.930 . S
C1984 C1980 1.388 . S
C1984 C1983 1.351 . S
N1985 C1960 1.329 . S
N1985 Co1969 1.955 . S
N1985 C1979 1.432 . S
N1986 Co1969 1.958 . S
N1986 C1970 1.324 . S
N1986 C1972 1.427 . S
N1987 Co1969 1.953 . S
N1987 C1988 1.436 . S
N1987 C2014 1.316 . S
C1988 N1987 1.436 . S
C1988 C1989 1.421 . S
C1988 C1990 1.360 . S
C1989 C1988 1.421 . S
C1989 C1991 1.379 . S
C1989 H1992 0.929 . S
C1990 C1988 1.360 . S
C1990 C1994 1.393 . S
C1990 H1996 0.931 . S
C1991 C1989 1.379 . S
C1991 C1993 1.417 . S
C1991 C1995 1.505 . S
H1992 C1989 0.929 . S
C1993 C1991 1.417 . S
C1993 C1994 1.352 . S
C1993 H1997 0.929 . S
C1994 C1990 1.393 . S
C1994 C1993 1.352 . S
C1994 C1998 1.482 . S
C1995 C1991 1.505 . S
C1995 O1999 1.259 . S
C1995 O2000 1.229 . S
H1996 C1990 0.931 . S
H1997 C1993 0.929 . S
C1998 C1994 1.482 . S
C1998 O2001 1.207 . S
C1998 O2002 1.289 . S
O1999 C1995 1.259 . S
O1999 H2003 0.822 . S
O2000 C1995 1.229 . S
O2001 C1998 1.207 . S
O2002 C1998 1.289 . S
O2002 H2004 0.819 . S
H2003 O1999 0.822 . S
H2004 O2002 0.819 . S
N2005 Co1969 1.869 . S
N2005 C2006 1.330 . S
N2005 C2010 1.325 . S
C2006 N2005 1.330 . S
C2006 C2007 1.359 . S
C2006 C2012 1.504 . S
C2007 C2006 1.359 . S
C2007 C2008 1.366 . S
C2007 H2041 0.929 . S
C2008 C2007 1.366 . S
C2008 C2009 1.415 . S
C2008 H2042 0.932 . S
C2009 C2008 1.415 . S
C2009 C2010 1.366 . S
C2009 H2043 0.931 . S
C2010 N2005 1.325 . S
C2010 C2009 1.366 . S
C2010 C2014 1.516 . S
N2011 Co1969 1.974 . S
N2011 C2012 1.309 . S
N2011 C2017 1.423 . S
C2012 C2006 1.504 . S
C2012 N2011 1.309 . S
C2012 O2013 1.258 . S
O2013 C2012 1.258 . S
C2014 N1987 1.316 . S
C2014 C2010 1.516 . S
C2014 O2027 1.263 . S
O2015 Cd1958 2.350 . S
O2015 C2031 1.270 . S
O2016 Cd1958 2.277 . S
O2016 C2031 1.248 . S
C2017 N2011 1.423 . S
C2017 C2018 1.370 1_556 S
C2017 C2022 1.403 1_556 S
C2018 C2017 1.370 1_554 S
C2018 C2019 1.389 . S
C2018 H2044 0.931 . S
C2019 C2018 1.389 . S
C2019 C2020 1.389 . S
C2020 C2019 1.389 . S
C2020 C2021 1.379 . S
C2020 H2045 0.929 . S
C2021 C2020 1.379 . S
C2021 C2022 1.405 . S
C2022 C2017 1.403 1_554 S
C2022 C2021 1.405 . S
C2022 H2046 0.932 1_554 S
O2023 Cd1958 2.173 . S
O2023 C1959 1.277 . S
O2024 C1959 1.230 . S
O2024 Cd1962 2.250 . S
O2025 Cd1958 2.263 . S
O2025 C1978 1.258 . S
O2026 Cd1962 2.308 . S
O2026 C1978 1.274 . S
O2027 Cd1958 2.366 . S
O2027 C2014 1.263 . S
C2028 O2029 1.235 . S
C2028 O2030 1.270 . S
O2029 Cd1962 2.352 . S
O2029 C2028 1.235 . S
O2030 Cd1958 2.329 . S
O2030 C2028 1.270 . S
C2031 O2015 1.270 . S
C2031 O2016 1.248 . S
H2032 C1964 0.910 1_554 S
H2033 C1967 0.930 . S
H2034 C1968 0.931 . S
H2035 C1973 0.929 . S
H2036 C1975 0.930 . S
H2037 C1977 0.930 . S
H2038 C1980 0.929 . S
H2039 C1981 0.932 . S
H2040 C1983 0.930 . S
H2041 C2007 0.929 . S
H2042 C2008 0.932 . S
H2043 C2009 0.931 . S
H2044 C2018 0.931 . S
H2045 C2020 0.929 . S
H2046 C2022 0.932 1_556 S
Cd2047 O2104 2.350 . S
Cd2047 O2105 2.277 . S
Cd2047 O2112 2.173 . S
Cd2047 O2114 2.263 . S
Cd2047 O2116 2.366 . S
Cd2047 O2119 2.329 . S
C2048 O2112 1.277 . S
C2048 O2113 1.230 . S
C2049 O2050 1.246 . S
C2049 C2052 1.481 . S
C2049 N2074 1.329 . S
O2050 C2049 1.246 . S
Cd2051 O2113 2.250 . S
Cd2051 O2115 2.308 . S
Cd2051 O2118 2.352 . S
C2052 C2049 1.481 . S
C2052 N2055 1.327 . S
C2052 C2056 1.407 . S
C2053 C2054 1.371 . S
C2053 C2057 1.387 1_556 S
C2053 H2121 0.910 1_556 S
C2054 C2053 1.371 . S
C2054 N2055 1.342 . S
C2054 C2059 1.516 . S
N2055 C2052 1.327 . S
N2055 C2054 1.342 . S
N2055 Co2058 1.864 . S
C2056 C2052 1.407 . S
C2056 C2057 1.364 1_556 S
C2056 H2122 0.930 . S
C2057 C2053 1.387 1_554 S
C2057 C2056 1.364 1_554 S
C2057 H2123 0.931 . S
Co2058 N2055 1.864 . S
Co2058 N2074 1.955 . S
Co2058 N2075 1.958 . S
Co2058 N2076 1.953 . S
Co2058 N2094 1.869 . S
Co2058 N2100 1.974 . S
C2059 C2054 1.516 . S
C2059 O2060 1.238 . S
C2059 N2075 1.324 . S
O2060 C2059 1.238 . S
C2061 C2062 1.394 . S
C2061 C2066 1.395 . S
C2061 N2075 1.427 . S
C2062 C2061 1.394 . S
C2062 C2063 1.380 . S
C2062 H2124 0.929 . S
C2063 C2062 1.380 . S
C2063 C2064 1.384 . S
C2063 C2067 1.495 . S
C2064 C2063 1.384 . S
C2064 C2065 1.382 . S
C2064 H2125 0.930 . S
C2065 C2064 1.382 . S
C2065 C2066 1.398 . S
C2066 C2061 1.395 . S
C2066 C2065 1.398 . S
C2066 H2126 0.930 . S
C2067 C2063 1.495 . S
C2067 O2114 1.258 . S
C2067 O2115 1.274 . S
C2068 C2069 1.385 . S
C2068 C2070 1.381 . S
C2068 N2074 1.432 . S
C2069 C2068 1.385 . S
C2069 C2073 1.388 . S
C2069 H2127 0.929 . S
C2070 C2068 1.381 . S
C2070 C2071 1.371 . S
C2070 H2128 0.932 . S
C2071 C2070 1.371 . S
C2071 C2072 1.400 . S
C2072 C2071 1.400 . S
C2072 C2073 1.351 . S
C2072 H2129 0.930 . S
C2073 C2069 1.388 . S
C2073 C2072 1.351 . S
N2074 C2049 1.329 . S
N2074 Co2058 1.955 . S
N2074 C2068 1.432 . S
N2075 Co2058 1.958 . S
N2075 C2059 1.324 . S
N2075 C2061 1.427 . S
N2076 Co2058 1.953 . S
N2076 C2077 1.436 . S
N2076 C2103 1.316 . S
C2077 N2076 1.436 . S
C2077 C2078 1.421 . S
C2077 C2079 1.360 . S
C2078 C2077 1.421 . S
C2078 C2080 1.379 . S
C2078 H2081 0.929 . S
C2079 C2077 1.360 . S
C2079 C2083 1.393 . S
C2079 H2085 0.931 . S
C2080 C2078 1.379 . S
C2080 C2082 1.417 . S
C2080 C2084 1.505 . S
H2081 C2078 0.929 . S
C2082 C2080 1.417 . S
C2082 C2083 1.352 . S
C2082 H2086 0.929 . S
C2083 C2079 1.393 . S
C2083 C2082 1.352 . S
C2083 C2087 1.482 . S
C2084 C2080 1.505 . S
C2084 O2088 1.259 . S
C2084 O2089 1.229 . S
H2085 C2079 0.931 . S
H2086 C2082 0.929 . S
C2087 C2083 1.482 . S
C2087 O2090 1.207 . S
C2087 O2091 1.289 . S
O2088 C2084 1.259 . S
O2088 H2092 0.822 . S
O2089 C2084 1.229 . S
O2090 C2087 1.207 . S
O2091 C2087 1.289 . S
O2091 H2093 0.819 . S
H2092 O2088 0.822 . S
H2093 O2091 0.819 . S
N2094 Co2058 1.869 . S
N2094 C2095 1.330 . S
N2094 C2099 1.325 . S
C2095 N2094 1.330 . S
C2095 C2096 1.359 . S
C2095 C2101 1.504 . S
C2096 C2095 1.359 . S
C2096 C2097 1.366 . S
C2096 H2130 0.929 . S
C2097 C2096 1.366 . S
C2097 C2098 1.415 . S
C2097 H2131 0.932 . S
C2098 C2097 1.415 . S
C2098 C2099 1.366 . S
C2098 H2132 0.931 . S
C2099 N2094 1.325 . S
C2099 C2098 1.366 . S
C2099 C2103 1.516 . S
N2100 Co2058 1.974 . S
N2100 C2101 1.309 . S
N2100 C2106 1.423 . S
C2101 C2095 1.504 . S
C2101 N2100 1.309 . S
C2101 O2102 1.258 . S
O2102 C2101 1.258 . S
C2103 N2076 1.316 . S
C2103 C2099 1.516 . S
C2103 O2116 1.263 . S
O2104 Cd2047 2.350 . S
O2104 C2120 1.270 . S
O2105 Cd2047 2.277 . S
O2105 C2120 1.248 . S
C2106 N2100 1.423 . S
C2106 C2107 1.370 1_556 S
C2106 C2111 1.403 1_556 S
C2107 C2106 1.370 1_554 S
C2107 C2108 1.389 . S
C2107 H2133 0.931 . S
C2108 C2107 1.389 . S
C2108 C2109 1.389 . S
C2109 C2108 1.389 . S
C2109 C2110 1.379 . S
C2109 H2134 0.929 . S
C2110 C2109 1.379 . S
C2110 C2111 1.405 . S
C2111 C2106 1.403 1_554 S
C2111 C2110 1.405 . S
C2111 H2135 0.932 1_554 S
O2112 Cd2047 2.173 . S
O2112 C2048 1.277 . S
O2113 C2048 1.230 . S
O2113 Cd2051 2.250 . S
O2114 Cd2047 2.263 . S
O2114 C2067 1.258 . S
O2115 Cd2051 2.308 . S
O2115 C2067 1.274 . S
O2116 Cd2047 2.366 . S
O2116 C2103 1.263 . S
C2117 O2118 1.235 . S
C2117 O2119 1.270 . S
O2118 Cd2051 2.352 . S
O2118 C2117 1.235 . S
O2119 Cd2047 2.329 . S
O2119 C2117 1.270 . S
C2120 O2104 1.270 . S
C2120 O2105 1.248 . S
H2121 C2053 0.910 1_554 S
H2122 C2056 0.930 . S
H2123 C2057 0.931 . S
H2124 C2062 0.929 . S
H2125 C2064 0.930 . S
H2126 C2066 0.930 . S
H2127 C2069 0.929 . S
H2128 C2070 0.932 . S
H2129 C2072 0.930 . S
H2130 C2096 0.929 . S
H2131 C2097 0.932 . S
H2132 C2098 0.931 . S
H2133 C2107 0.931 . S
H2134 C2109 0.929 . S
H2135 C2111 0.932 1_556 S
Cd2136 O2193 2.350 . S
Cd2136 O2194 2.277 . S
Cd2136 O2201 2.173 . S
Cd2136 O2203 2.263 . S
Cd2136 O2205 2.366 . S
Cd2136 O2208 2.329 . S
C2137 O2201 1.277 . S
C2137 O2202 1.230 . S
C2138 O2139 1.246 . S
C2138 C2141 1.481 . S
C2138 N2163 1.329 . S
O2139 C2138 1.246 . S
Cd2140 O2202 2.250 . S
Cd2140 O2204 2.308 . S
Cd2140 O2207 2.352 . S
C2141 C2138 1.481 . S
C2141 N2144 1.327 . S
C2141 C2145 1.407 . S
C2142 C2143 1.346 . S
C2142 C2146 1.390 . S
C2142 H2210 0.930 . S
C2143 C2142 1.346 . S
C2143 N2144 1.342 . S
C2143 C2148 1.516 . S
N2144 C2141 1.327 . S
N2144 C2143 1.342 . S
N2144 Co2147 1.864 . S
C2145 C2141 1.407 . S
C2145 C2146 1.364 . S
C2145 H2211 0.930 . S
C2146 C2142 1.390 . S
C2146 C2145 1.364 . S
C2146 H2212 0.931 . S
Co2147 N2144 1.864 . S
Co2147 N2163 1.955 . S
Co2147 N2164 1.958 . S
Co2147 N2165 1.953 . S
Co2147 N2183 1.869 . S
Co2147 N2189 1.974 . S
C2148 C2143 1.516 . S
C2148 O2149 1.238 . S
C2148 N2164 1.324 . S
O2149 C2148 1.238 . S
C2150 C2151 1.394 . S
C2150 C2155 1.395 . S
C2150 N2164 1.427 . S
C2151 C2150 1.394 . S
C2151 C2152 1.380 . S
C2151 H2213 0.929 . S
C2152 C2151 1.380 . S
C2152 C2153 1.384 . S
C2152 C2156 1.495 . S
C2153 C2152 1.384 . S
C2153 C2154 1.382 . S
C2153 H2214 0.930 . S
C2154 C2153 1.382 . S
C2154 C2155 1.398 . S
C2155 C2150 1.395 . S
C2155 C2154 1.398 . S
C2155 H2215 0.930 . S
C2156 C2152 1.495 . S
C2156 O2203 1.258 . S
C2156 O2204 1.274 . S
C2157 C2158 1.385 . S
C2157 C2159 1.381 . S
C2157 N2163 1.432 . S
C2158 C2157 1.385 . S
C2158 C2162 1.388 . S
C2158 H2216 0.929 . S
C2159 C2157 1.381 . S
C2159 C2160 1.371 . S
C2159 H2217 0.932 . S
C2160 C2159 1.371 . S
C2160 C2161 1.400 . S
C2161 C2160 1.400 . S
C2161 C2162 1.351 . S
C2161 H2218 0.930 . S
C2162 C2158 1.388 . S
C2162 C2161 1.351 . S
N2163 C2138 1.329 . S
N2163 Co2147 1.955 . S
N2163 C2157 1.432 . S
N2164 Co2147 1.958 . S
N2164 C2148 1.324 . S
N2164 C2150 1.427 . S
N2165 Co2147 1.953 . S
N2165 C2166 1.436 . S
N2165 C2192 1.316 . S
C2166 N2165 1.436 . S
C2166 C2167 1.421 . S
C2166 C2168 1.360 . S
C2167 C2166 1.421 . S
C2167 C2169 1.379 . S
C2167 H2170 0.929 . S
C2168 C2166 1.360 . S
C2168 C2172 1.393 . S
C2168 H2174 0.931 . S
C2169 C2167 1.379 . S
C2169 C2171 1.417 . S
C2169 C2173 1.505 . S
H2170 C2167 0.929 . S
C2171 C2169 1.417 . S
C2171 C2172 1.352 . S
C2171 H2175 0.929 . S
C2172 C2168 1.393 . S
C2172 C2171 1.352 . S
C2172 C2176 1.482 . S
C2173 C2169 1.505 . S
C2173 O2177 1.259 . S
C2173 O2178 1.229 . S
H2174 C2168 0.931 . S
H2175 C2171 0.929 . S
C2176 C2172 1.482 . S
C2176 O2179 1.207 . S
C2176 O2180 1.289 . S
O2177 C2173 1.259 . S
O2177 H2181 0.822 . S
O2178 C2173 1.229 . S
O2179 C2176 1.207 . S
O2180 C2176 1.289 . S
O2180 H2182 0.819 . S
H2181 O2177 0.822 . S
H2182 O2180 0.819 . S
N2183 Co2147 1.869 . S
N2183 C2184 1.330 . S
N2183 C2188 1.325 . S
C2184 N2183 1.330 . S
C2184 C2185 1.359 . S
C2184 C2190 1.504 . S
C2185 C2184 1.359 . S
C2185 C2186 1.366 . S
C2185 H2219 0.929 . S
C2186 C2185 1.366 . S
C2186 C2187 1.415 . S
C2186 H2220 0.932 . S
C2187 C2186 1.415 . S
C2187 C2188 1.366 . S
C2187 H2221 0.931 . S
C2188 N2183 1.325 . S
C2188 C2187 1.366 . S
C2188 C2192 1.516 . S
N2189 Co2147 1.974 . S
N2189 C2190 1.309 . S
N2189 C2195 1.423 . S
C2190 C2184 1.504 . S
C2190 N2189 1.309 . S
C2190 O2191 1.258 . S
O2191 C2190 1.258 . S
C2192 N2165 1.316 . S
C2192 C2188 1.516 . S
C2192 O2205 1.263 . S
O2193 Cd2136 2.350 . S
O2193 C2209 1.270 . S
O2194 Cd2136 2.277 . S
O2194 C2209 1.248 . S
C2195 N2189 1.423 . S
C2195 C2196 1.370 . S
C2195 C2200 1.403 . S
C2196 C2195 1.370 . S
C2196 C2197 1.389 . S
C2196 H2222 0.931 . S
C2197 C2196 1.389 . S
C2197 C2198 1.389 . S
C2198 C2197 1.389 . S
C2198 C2199 1.379 . S
C2198 H2223 0.929 . S
C2199 C2198 1.379 . S
C2199 C2200 1.405 . S
C2200 C2195 1.403 . S
C2200 C2199 1.405 . S
C2200 H2224 0.932 . S
O2201 Cd2136 2.173 . S
O2201 C2137 1.277 . S
O2202 C2137 1.230 . S
O2202 Cd2140 2.250 . S
O2203 Cd2136 2.263 . S
O2203 C2156 1.258 . S
O2204 Cd2140 2.308 . S
O2204 C2156 1.274 . S
O2205 Cd2136 2.366 . S
O2205 C2192 1.263 . S
C2206 O2207 1.235 . S
C2206 O2208 1.270 . S
O2207 Cd2140 2.352 . S
O2207 C2206 1.235 . S
O2208 Cd2136 2.329 . S
O2208 C2206 1.270 . S
C2209 O2193 1.270 . S
C2209 O2194 1.248 . S
H2210 C2142 0.930 . S
H2211 C2145 0.930 . S
H2212 C2146 0.931 . S
H2213 C2151 0.929 . S
H2214 C2153 0.930 . S
H2215 C2155 0.930 . S
H2216 C2158 0.929 . S
H2217 C2159 0.932 . S
H2218 C2161 0.930 . S
H2219 C2185 0.929 . S
H2220 C2186 0.932 . S
H2221 C2187 0.931 . S
H2222 C2196 0.931 . S
H2223 C2198 0.929 . S
H2224 C2200 0.932 . S
Cd2225 O2282 2.350 . S
Cd2225 O2283 2.277 . S
Cd2225 O2290 2.173 . S
Cd2225 O2292 2.263 . S
Cd2225 O2294 2.366 . S
Cd2225 O2297 2.329 . S
C2226 O2290 1.277 . S
C2226 O2291 1.230 . S
C2227 O2228 1.246 . S
C2227 C2230 1.481 . S
C2227 N2252 1.329 . S
O2228 C2227 1.246 . S
Cd2229 O2291 2.250 . S
Cd2229 O2293 2.308 . S
Cd2229 O2296 2.352 . S
C2230 C2227 1.481 . S
C2230 N2233 1.327 . S
C2230 C2234 1.407 . S
C2231 C2232 1.346 . S
C2231 C2235 1.390 . S
C2231 H2299 0.930 . S
C2232 C2231 1.346 . S
C2232 N2233 1.342 . S
C2232 C2237 1.516 . S
N2233 C2230 1.327 . S
N2233 C2232 1.342 . S
N2233 Co2236 1.864 . S
C2234 C2230 1.407 . S
C2234 C2235 1.364 . S
C2234 H2300 0.930 . S
C2235 C2231 1.390 . S
C2235 C2234 1.364 . S
C2235 H2301 0.931 . S
Co2236 N2233 1.864 . S
Co2236 N2252 1.955 . S
Co2236 N2253 1.958 . S
Co2236 N2254 1.953 . S
Co2236 N2272 1.869 . S
Co2236 N2278 1.974 . S
C2237 C2232 1.516 . S
C2237 O2238 1.238 . S
C2237 N2253 1.324 . S
O2238 C2237 1.238 . S
C2239 C2240 1.394 . S
C2239 C2244 1.395 . S
C2239 N2253 1.427 . S
C2240 C2239 1.394 . S
C2240 C2241 1.380 . S
C2240 H2302 0.929 . S
C2241 C2240 1.380 . S
C2241 C2242 1.384 . S
C2241 C2245 1.495 . S
C2242 C2241 1.384 . S
C2242 C2243 1.382 . S
C2242 H2303 0.930 . S
C2243 C2242 1.382 . S
C2243 C2244 1.398 . S
C2244 C2239 1.395 . S
C2244 C2243 1.398 . S
C2244 H2304 0.930 . S
C2245 C2241 1.495 . S
C2245 O2292 1.258 . S
C2245 O2293 1.274 . S
C2246 C2247 1.385 . S
C2246 C2248 1.381 . S
C2246 N2252 1.432 . S
C2247 C2246 1.385 . S
C2247 C2251 1.388 . S
C2247 H2305 0.929 . S
C2248 C2246 1.381 . S
C2248 C2249 1.371 . S
C2248 H2306 0.932 . S
C2249 C2248 1.371 . S
C2249 C2250 1.400 . S
C2250 C2249 1.400 . S
C2250 C2251 1.351 . S
C2250 H2307 0.930 . S
C2251 C2247 1.388 . S
C2251 C2250 1.351 . S
N2252 C2227 1.329 . S
N2252 Co2236 1.955 . S
N2252 C2246 1.432 . S
N2253 Co2236 1.958 . S
N2253 C2237 1.324 . S
N2253 C2239 1.427 . S
N2254 Co2236 1.953 . S
N2254 C2255 1.436 . S
N2254 C2281 1.316 . S
C2255 N2254 1.436 . S
C2255 C2256 1.421 . S
C2255 C2257 1.360 . S
C2256 C2255 1.421 . S
C2256 C2258 1.379 . S
C2256 H2259 0.929 . S
C2257 C2255 1.360 . S
C2257 C2261 1.393 . S
C2257 H2263 0.931 . S
C2258 C2256 1.379 . S
C2258 C2260 1.417 . S
C2258 C2262 1.505 . S
H2259 C2256 0.929 . S
C2260 C2258 1.417 . S
C2260 C2261 1.352 . S
C2260 H2264 0.929 . S
C2261 C2257 1.393 . S
C2261 C2260 1.352 . S
C2261 C2265 1.482 . S
C2262 C2258 1.505 . S
C2262 O2266 1.259 . S
C2262 O2267 1.229 . S
H2263 C2257 0.931 . S
H2264 C2260 0.929 . S
C2265 C2261 1.482 . S
C2265 O2268 1.207 . S
C2265 O2269 1.289 . S
O2266 C2262 1.259 . S
O2266 H2270 0.822 . S
O2267 C2262 1.229 . S
O2268 C2265 1.207 . S
O2269 C2265 1.289 . S
O2269 H2271 0.819 . S
H2270 O2266 0.822 . S
H2271 O2269 0.819 . S
N2272 Co2236 1.869 . S
N2272 C2273 1.330 . S
N2272 C2277 1.325 . S
C2273 N2272 1.330 . S
C2273 C2274 1.359 . S
C2273 C2279 1.504 . S
C2274 C2273 1.359 . S
C2274 C2275 1.366 . S
C2274 H2308 0.929 . S
C2275 C2274 1.366 . S
C2275 C2276 1.415 . S
C2275 H2309 0.932 . S
C2276 C2275 1.415 . S
C2276 C2277 1.366 . S
C2276 H2310 0.931 . S
C2277 N2272 1.325 . S
C2277 C2276 1.366 . S
C2277 C2281 1.516 . S
N2278 Co2236 1.974 . S
N2278 C2279 1.309 . S
N2278 C2284 1.423 . S
C2279 C2273 1.504 . S
C2279 N2278 1.309 . S
C2279 O2280 1.258 . S
O2280 C2279 1.258 . S
C2281 N2254 1.316 . S
C2281 C2277 1.516 . S
C2281 O2294 1.263 . S
O2282 Cd2225 2.350 . S
O2282 C2298 1.270 . S
O2283 Cd2225 2.277 . S
O2283 C2298 1.248 . S
C2284 N2278 1.423 . S
C2284 C2285 1.370 . S
C2284 C2289 1.403 . S
C2285 C2284 1.370 . S
C2285 C2286 1.389 . S
C2285 H2311 0.931 . S
C2286 C2285 1.389 . S
C2286 C2287 1.389 . S
C2287 C2286 1.389 . S
C2287 C2288 1.379 . S
C2287 H2312 0.929 . S
C2288 C2287 1.379 . S
C2288 C2289 1.405 . S
C2289 C2284 1.403 . S
C2289 C2288 1.405 . S
C2289 H2313 0.932 . S
O2290 Cd2225 2.173 . S
O2290 C2226 1.277 . S
O2291 C2226 1.230 . S
O2291 Cd2229 2.250 . S
O2292 Cd2225 2.263 . S
O2292 C2245 1.258 . S
O2293 Cd2229 2.308 . S
O2293 C2245 1.274 . S
O2294 Cd2225 2.366 . S
O2294 C2281 1.263 . S
C2295 O2296 1.235 . S
C2295 O2297 1.270 . S
O2296 Cd2229 2.352 . S
O2296 C2295 1.235 . S
O2297 Cd2225 2.329 . S
O2297 C2295 1.270 . S
C2298 O2282 1.270 . S
C2298 O2283 1.248 . S
H2299 C2231 0.930 . S
H2300 C2234 0.930 . S
H2301 C2235 0.931 . S
H2302 C2240 0.929 . S
H2303 C2242 0.930 . S
H2304 C2244 0.930 . S
H2305 C2247 0.929 . S
H2306 C2248 0.932 . S
H2307 C2250 0.930 . S
H2308 C2274 0.929 . S
H2309 C2275 0.932 . S
H2310 C2276 0.931 . S
H2311 C2285 0.931 . S
H2312 C2287 0.929 . S
H2313 C2289 0.932 . S
Cd2314 O2371 2.350 . S
Cd2314 O2372 2.277 . S
Cd2314 O2379 2.173 . S
Cd2314 O2381 2.263 . S
Cd2314 O2383 2.366 . S
Cd2314 O2386 2.329 . S
C2315 O2379 1.277 . S
C2315 O2380 1.230 . S
C2316 O2317 1.246 . S
C2316 C2319 1.481 . S
C2316 N2341 1.329 . S
O2317 C2316 1.246 . S
Cd2318 O2380 2.250 . S
Cd2318 O2382 2.308 . S
Cd2318 O2385 2.352 . S
C2319 C2316 1.481 . S
C2319 N2322 1.327 . S
C2319 C2323 1.407 . S
C2320 C2321 1.346 . S
C2320 C2324 1.390 . S
C2320 H2388 0.930 . S
C2321 C2320 1.346 . S
C2321 N2322 1.342 . S
C2321 C2326 1.516 . S
N2322 C2319 1.327 . S
N2322 C2321 1.342 . S
N2322 Co2325 1.864 . S
C2323 C2319 1.407 . S
C2323 C2324 1.364 . S
C2323 H2389 0.930 . S
C2324 C2320 1.390 . S
C2324 C2323 1.364 . S
C2324 H2390 0.931 . S
Co2325 N2322 1.864 . S
Co2325 N2341 1.955 . S
Co2325 N2342 1.958 . S
Co2325 N2343 1.953 . S
Co2325 N2361 1.869 . S
Co2325 N2367 1.974 . S
C2326 C2321 1.516 . S
C2326 O2327 1.238 . S
C2326 N2342 1.324 . S
O2327 C2326 1.238 . S
C2328 C2329 1.394 . S
C2328 C2333 1.395 . S
C2328 N2342 1.427 . S
C2329 C2328 1.394 . S
C2329 C2330 1.380 . S
C2329 H2391 0.929 . S
C2330 C2329 1.380 . S
C2330 C2331 1.384 . S
C2330 C2334 1.495 . S
C2331 C2330 1.384 . S
C2331 C2332 1.382 . S
C2331 H2392 0.930 . S
C2332 C2331 1.382 . S
C2332 C2333 1.398 . S
C2333 C2328 1.395 . S
C2333 C2332 1.398 . S
C2333 H2393 0.930 . S
C2334 C2330 1.495 . S
C2334 O2381 1.258 . S
C2334 O2382 1.274 . S
C2335 C2336 1.385 . S
C2335 C2337 1.381 . S
C2335 N2341 1.432 . S
C2336 C2335 1.385 . S
C2336 C2340 1.388 . S
C2336 H2394 0.929 . S
C2337 C2335 1.381 . S
C2337 C2338 1.371 . S
C2337 H2395 0.932 . S
C2338 C2337 1.371 . S
C2338 C2339 1.400 . S
C2339 C2338 1.400 . S
C2339 C2340 1.351 . S
C2339 H2396 0.930 . S
C2340 C2336 1.388 . S
C2340 C2339 1.351 . S
N2341 C2316 1.329 . S
N2341 Co2325 1.955 . S
N2341 C2335 1.432 . S
N2342 Co2325 1.958 . S
N2342 C2326 1.324 . S
N2342 C2328 1.427 . S
N2343 Co2325 1.953 . S
N2343 C2344 1.436 . S
N2343 C2370 1.316 . S
C2344 N2343 1.436 . S
C2344 C2345 1.421 . S
C2344 C2346 1.360 . S
C2345 C2344 1.421 . S
C2345 C2347 1.379 . S
C2345 H2348 0.929 . S
C2346 C2344 1.360 . S
C2346 C2350 1.393 . S
C2346 H2352 0.931 . S
C2347 C2345 1.379 . S
C2347 C2349 1.417 . S
C2347 C2351 1.505 . S
H2348 C2345 0.929 . S
C2349 C2347 1.417 . S
C2349 C2350 1.352 . S
C2349 H2353 0.929 . S
C2350 C2346 1.393 . S
C2350 C2349 1.352 . S
C2350 C2354 1.482 . S
C2351 C2347 1.505 . S
C2351 O2355 1.259 . S
C2351 O2356 1.229 . S
H2352 C2346 0.931 . S
H2353 C2349 0.929 . S
C2354 C2350 1.482 . S
C2354 O2357 1.207 . S
C2354 O2358 1.289 . S
O2355 C2351 1.259 . S
O2355 H2359 0.822 . S
O2356 C2351 1.229 . S
O2357 C2354 1.207 . S
O2358 C2354 1.289 . S
O2358 H2360 0.819 . S
H2359 O2355 0.822 . S
H2360 O2358 0.819 . S
N2361 Co2325 1.869 . S
N2361 C2362 1.330 . S
N2361 C2366 1.325 . S
C2362 N2361 1.330 . S
C2362 C2363 1.359 . S
C2362 C2368 1.504 . S
C2363 C2362 1.359 . S
C2363 C2364 1.366 . S
C2363 H2397 0.929 . S
C2364 C2363 1.366 . S
C2364 C2365 1.415 . S
C2364 H2398 0.932 . S
C2365 C2364 1.415 . S
C2365 C2366 1.366 . S
C2365 H2399 0.931 . S
C2366 N2361 1.325 . S
C2366 C2365 1.366 . S
C2366 C2370 1.516 . S
N2367 Co2325 1.974 . S
N2367 C2368 1.309 . S
N2367 C2373 1.423 . S
C2368 C2362 1.504 . S
C2368 N2367 1.309 . S
C2368 O2369 1.258 . S
O2369 C2368 1.258 . S
C2370 N2343 1.316 . S
C2370 C2366 1.516 . S
C2370 O2383 1.263 . S
O2371 Cd2314 2.350 . S
O2371 C2387 1.270 . S
O2372 Cd2314 2.277 . S
O2372 C2387 1.248 . S
C2373 N2367 1.423 . S
C2373 C2374 1.370 . S
C2373 C2378 1.403 . S
C2374 C2373 1.370 . S
C2374 C2375 1.389 . S
C2374 H2400 0.931 . S
C2375 C2374 1.389 . S
C2375 C2376 1.389 . S
C2376 C2375 1.389 . S
C2376 C2377 1.379 . S
C2376 H2401 0.929 . S
C2377 C2376 1.379 . S
C2377 C2378 1.405 . S
C2378 C2373 1.403 . S
C2378 C2377 1.405 . S
C2378 H2402 0.932 . S
O2379 Cd2314 2.173 . S
O2379 C2315 1.277 . S
O2380 C2315 1.230 . S
O2380 Cd2318 2.250 . S
O2381 Cd2314 2.263 . S
O2381 C2334 1.258 . S
O2382 Cd2318 2.308 . S
O2382 C2334 1.274 . S
O2383 Cd2314 2.366 . S
O2383 C2370 1.263 . S
C2384 O2385 1.235 . S
C2384 O2386 1.270 . S
O2385 Cd2318 2.352 . S
O2385 C2384 1.235 . S
O2386 Cd2314 2.329 . S
O2386 C2384 1.270 . S
C2387 O2371 1.270 . S
C2387 O2372 1.248 . S
H2388 C2320 0.930 . S
H2389 C2323 0.930 . S
H2390 C2324 0.931 . S
H2391 C2329 0.929 . S
H2392 C2331 0.930 . S
H2393 C2333 0.930 . S
H2394 C2336 0.929 . S
H2395 C2337 0.932 . S
H2396 C2339 0.930 . S
H2397 C2363 0.929 . S
H2398 C2364 0.932 . S
H2399 C2365 0.931 . S
H2400 C2374 0.931 . S
H2401 C2376 0.929 . S
H2402 C2378 0.932 . S
Cd2403 O2460 2.350 . S
Cd2403 O2461 2.277 . S
Cd2403 O2468 2.173 . S
Cd2403 O2470 2.263 . S
Cd2403 O2472 2.366 . S
Cd2403 O2475 2.329 . S
C2404 O2468 1.277 . S
C2404 O2469 1.230 . S
C2405 O2406 1.246 . S
C2405 C2408 1.481 . S
C2405 N2430 1.329 . S
O2406 C2405 1.246 . S
Cd2407 O2469 2.250 . S
Cd2407 O2471 2.308 . S
Cd2407 O2474 2.352 . S
C2408 C2405 1.481 . S
C2408 N2411 1.327 . S
C2408 C2412 1.407 . S
C2409 C2410 1.371 . S
C2409 C2413 1.387 1_554 S
C2409 H2477 0.910 1_554 S
C2410 C2409 1.371 . S
C2410 N2411 1.342 . S
C2410 C2415 1.516 . S
N2411 C2408 1.327 . S
N2411 C2410 1.342 . S
N2411 Co2414 1.864 . S
C2412 C2408 1.407 . S
C2412 C2413 1.364 1_554 S
C2412 H2478 0.930 . S
C2413 C2409 1.387 1_556 S
C2413 C2412 1.364 1_556 S
C2413 H2479 0.931 . S
Co2414 N2411 1.864 . S
Co2414 N2430 1.955 . S
Co2414 N2431 1.958 . S
Co2414 N2432 1.953 . S
Co2414 N2450 1.869 . S
Co2414 N2456 1.974 . S
C2415 C2410 1.516 . S
C2415 O2416 1.238 . S
C2415 N2431 1.324 . S
O2416 C2415 1.238 . S
C2417 C2418 1.394 . S
C2417 C2422 1.395 . S
C2417 N2431 1.427 . S
C2418 C2417 1.394 . S
C2418 C2419 1.380 . S
C2418 H2480 0.929 . S
C2419 C2418 1.380 . S
C2419 C2420 1.384 . S
C2419 C2423 1.495 . S
C2420 C2419 1.384 . S
C2420 C2421 1.382 . S
C2420 H2481 0.930 . S
C2421 C2420 1.382 . S
C2421 C2422 1.398 . S
C2422 C2417 1.395 . S
C2422 C2421 1.398 . S
C2422 H2482 0.930 . S
C2423 C2419 1.495 . S
C2423 O2470 1.258 . S
C2423 O2471 1.274 . S
C2424 C2425 1.385 . S
C2424 C2426 1.381 . S
C2424 N2430 1.432 . S
C2425 C2424 1.385 . S
C2425 C2429 1.388 . S
C2425 H2483 0.929 . S
C2426 C2424 1.381 . S
C2426 C2427 1.371 . S
C2426 H2484 0.932 . S
C2427 C2426 1.371 . S
C2427 C2428 1.400 . S
C2428 C2427 1.400 . S
C2428 C2429 1.351 . S
C2428 H2485 0.930 . S
C2429 C2425 1.388 . S
C2429 C2428 1.351 . S
N2430 C2405 1.329 . S
N2430 Co2414 1.955 . S
N2430 C2424 1.432 . S
N2431 Co2414 1.958 . S
N2431 C2415 1.324 . S
N2431 C2417 1.427 . S
N2432 Co2414 1.953 . S
N2432 C2433 1.436 . S
N2432 C2459 1.316 . S
C2433 N2432 1.436 . S
C2433 C2434 1.421 . S
C2433 C2435 1.360 . S
C2434 C2433 1.421 . S
C2434 C2436 1.379 . S
C2434 H2437 0.929 . S
C2435 C2433 1.360 . S
C2435 C2439 1.393 . S
C2435 H2441 0.931 . S
C2436 C2434 1.379 . S
C2436 C2438 1.417 . S
C2436 C2440 1.505 . S
H2437 C2434 0.929 . S
C2438 C2436 1.417 . S
C2438 C2439 1.352 . S
C2438 H2442 0.929 . S
C2439 C2435 1.393 . S
C2439 C2438 1.352 . S
C2439 C2443 1.482 . S
C2440 C2436 1.505 . S
C2440 O2444 1.259 . S
C2440 O2445 1.229 . S
H2441 C2435 0.931 . S
H2442 C2438 0.929 . S
C2443 C2439 1.482 . S
C2443 O2446 1.207 . S
C2443 O2447 1.289 . S
O2444 C2440 1.259 . S
O2444 H2448 0.822 . S
O2445 C2440 1.229 . S
O2446 C2443 1.207 . S
O2447 C2443 1.289 . S
O2447 H2449 0.819 . S
H2448 O2444 0.822 . S
H2449 O2447 0.819 . S
N2450 Co2414 1.869 . S
N2450 C2451 1.330 . S
N2450 C2455 1.325 . S
C2451 N2450 1.330 . S
C2451 C2452 1.359 . S
C2451 C2457 1.504 . S
C2452 C2451 1.359 . S
C2452 C2453 1.366 . S
C2452 H2486 0.929 . S
C2453 C2452 1.366 . S
C2453 C2454 1.415 . S
C2453 H2487 0.932 . S
C2454 C2453 1.415 . S
C2454 C2455 1.366 . S
C2454 H2488 0.931 . S
C2455 N2450 1.325 . S
C2455 C2454 1.366 . S
C2455 C2459 1.516 . S
N2456 Co2414 1.974 . S
N2456 C2457 1.309 . S
N2456 C2462 1.423 . S
C2457 C2451 1.504 . S
C2457 N2456 1.309 . S
C2457 O2458 1.258 . S
O2458 C2457 1.258 . S
C2459 N2432 1.316 . S
C2459 C2455 1.516 . S
C2459 O2472 1.263 . S
O2460 Cd2403 2.350 . S
O2460 C2476 1.270 . S
O2461 Cd2403 2.277 . S
O2461 C2476 1.248 . S
C2462 N2456 1.423 . S
C2462 C2463 1.370 1_554 S
C2462 C2467 1.403 1_554 S
C2463 C2462 1.370 1_556 S
C2463 C2464 1.389 . S
C2463 H2489 0.931 . S
C2464 C2463 1.389 . S
C2464 C2465 1.389 . S
C2465 C2464 1.389 . S
C2465 C2466 1.379 . S
C2465 H2490 0.929 . S
C2466 C2465 1.379 . S
C2466 C2467 1.405 . S
C2467 C2462 1.403 1_556 S
C2467 C2466 1.405 . S
C2467 H2491 0.932 1_556 S
O2468 Cd2403 2.173 . S
O2468 C2404 1.277 . S
O2469 C2404 1.230 . S
O2469 Cd2407 2.250 . S
O2470 Cd2403 2.263 . S
O2470 C2423 1.258 . S
O2471 Cd2407 2.308 . S
O2471 C2423 1.274 . S
O2472 Cd2403 2.366 . S
O2472 C2459 1.263 . S
C2473 O2474 1.235 . S
C2473 O2475 1.270 . S
O2474 Cd2407 2.352 . S
O2474 C2473 1.235 . S
O2475 Cd2403 2.329 . S
O2475 C2473 1.270 . S
C2476 O2460 1.270 . S
C2476 O2461 1.248 . S
H2477 C2409 0.910 1_556 S
H2478 C2412 0.930 . S
H2479 C2413 0.931 . S
H2480 C2418 0.929 . S
H2481 C2420 0.930 . S
H2482 C2422 0.930 . S
H2483 C2425 0.929 . S
H2484 C2426 0.932 . S
H2485 C2428 0.930 . S
H2486 C2452 0.929 . S
H2487 C2453 0.932 . S
H2488 C2454 0.931 . S
H2489 C2463 0.931 . S
H2490 C2465 0.929 . S
H2491 C2467 0.932 1_554 S
Cd2492 O2549 2.350 . S
Cd2492 O2550 2.277 . S
Cd2492 O2557 2.173 . S
Cd2492 O2559 2.263 . S
Cd2492 O2561 2.366 . S
Cd2492 O2564 2.329 . S
C2493 O2557 1.277 . S
C2493 O2558 1.230 . S
C2494 O2495 1.246 . S
C2494 C2497 1.481 . S
C2494 N2519 1.329 . S
O2495 C2494 1.246 . S
Cd2496 O2558 2.250 . S
Cd2496 O2560 2.308 . S
Cd2496 O2563 2.352 . S
C2497 C2494 1.481 . S
C2497 N2500 1.327 . S
C2497 C2501 1.407 . S
C2498 C2499 1.371 . S
C2498 C2502 1.387 1_554 S
C2498 H2566 0.910 1_554 S
C2499 C2498 1.371 . S
C2499 N2500 1.342 . S
C2499 C2504 1.516 . S
N2500 C2497 1.327 . S
N2500 C2499 1.342 . S
N2500 Co2503 1.864 . S
C2501 C2497 1.407 . S
C2501 C2502 1.364 1_554 S
C2501 H2567 0.930 . S
C2502 C2498 1.387 1_556 S
C2502 C2501 1.364 1_556 S
C2502 H2568 0.931 . S
Co2503 N2500 1.864 . S
Co2503 N2519 1.955 . S
Co2503 N2520 1.958 . S
Co2503 N2521 1.953 . S
Co2503 N2539 1.869 . S
Co2503 N2545 1.974 . S
C2504 C2499 1.516 . S
C2504 O2505 1.238 . S
C2504 N2520 1.324 . S
O2505 C2504 1.238 . S
C2506 C2507 1.394 . S
C2506 C2511 1.395 . S
C2506 N2520 1.427 . S
C2507 C2506 1.394 . S
C2507 C2508 1.380 . S
C2507 H2569 0.929 . S
C2508 C2507 1.380 . S
C2508 C2509 1.384 . S
C2508 C2512 1.495 . S
C2509 C2508 1.384 . S
C2509 C2510 1.382 . S
C2509 H2570 0.930 . S
C2510 C2509 1.382 . S
C2510 C2511 1.398 . S
C2511 C2506 1.395 . S
C2511 C2510 1.398 . S
C2511 H2571 0.930 . S
C2512 C2508 1.495 . S
C2512 O2559 1.258 . S
C2512 O2560 1.274 . S
C2513 C2514 1.385 . S
C2513 C2515 1.381 . S
C2513 N2519 1.432 . S
C2514 C2513 1.385 . S
C2514 C2518 1.388 . S
C2514 H2572 0.929 . S
C2515 C2513 1.381 . S
C2515 C2516 1.371 . S
C2515 H2573 0.932 . S
C2516 C2515 1.371 . S
C2516 C2517 1.400 . S
C2517 C2516 1.400 . S
C2517 C2518 1.351 . S
C2517 H2574 0.930 . S
C2518 C2514 1.388 . S
C2518 C2517 1.351 . S
N2519 C2494 1.329 . S
N2519 Co2503 1.955 . S
N2519 C2513 1.432 . S
N2520 Co2503 1.958 . S
N2520 C2504 1.324 . S
N2520 C2506 1.427 . S
N2521 Co2503 1.953 . S
N2521 C2522 1.436 . S
N2521 C2548 1.316 . S
C2522 N2521 1.436 . S
C2522 C2523 1.421 . S
C2522 C2524 1.360 . S
C2523 C2522 1.421 . S
C2523 C2525 1.379 . S
C2523 H2526 0.929 . S
C2524 C2522 1.360 . S
C2524 C2528 1.393 . S
C2524 H2530 0.931 . S
C2525 C2523 1.379 . S
C2525 C2527 1.417 . S
C2525 C2529 1.505 . S
H2526 C2523 0.929 . S
C2527 C2525 1.417 . S
C2527 C2528 1.352 . S
C2527 H2531 0.929 . S
C2528 C2524 1.393 . S
C2528 C2527 1.352 . S
C2528 C2532 1.482 . S
C2529 C2525 1.505 . S
C2529 O2533 1.259 . S
C2529 O2534 1.229 . S
H2530 C2524 0.931 . S
H2531 C2527 0.929 . S
C2532 C2528 1.482 . S
C2532 O2535 1.207 . S
C2532 O2536 1.289 . S
O2533 C2529 1.259 . S
O2533 H2537 0.822 . S
O2534 C2529 1.229 . S
O2535 C2532 1.207 . S
O2536 C2532 1.289 . S
O2536 H2538 0.819 . S
H2537 O2533 0.822 . S
H2538 O2536 0.819 . S
N2539 Co2503 1.869 . S
N2539 C2540 1.330 . S
N2539 C2544 1.325 . S
C2540 N2539 1.330 . S
C2540 C2541 1.359 . S
C2540 C2546 1.504 . S
C2541 C2540 1.359 . S
C2541 C2542 1.366 . S
C2541 H2575 0.929 . S
C2542 C2541 1.366 . S
C2542 C2543 1.415 . S
C2542 H2576 0.932 . S
C2543 C2542 1.415 . S
C2543 C2544 1.366 . S
C2543 H2577 0.931 . S
C2544 N2539 1.325 . S
C2544 C2543 1.366 . S
C2544 C2548 1.516 . S
N2545 Co2503 1.974 . S
N2545 C2546 1.309 . S
N2545 C2551 1.423 . S
C2546 C2540 1.504 . S
C2546 N2545 1.309 . S
C2546 O2547 1.258 . S
O2547 C2546 1.258 . S
C2548 N2521 1.316 . S
C2548 C2544 1.516 . S
C2548 O2561 1.263 . S
O2549 Cd2492 2.350 . S
O2549 C2565 1.270 . S
O2550 Cd2492 2.277 . S
O2550 C2565 1.248 . S
C2551 N2545 1.423 . S
C2551 C2552 1.370 1_554 S
C2551 C2556 1.403 1_554 S
C2552 C2551 1.370 1_556 S
C2552 C2553 1.389 . S
C2552 H2578 0.931 . S
C2553 C2552 1.389 . S
C2553 C2554 1.389 . S
C2554 C2553 1.389 . S
C2554 C2555 1.379 . S
C2554 H2579 0.929 . S
C2555 C2554 1.379 . S
C2555 C2556 1.405 . S
C2556 C2551 1.403 1_556 S
C2556 C2555 1.405 . S
C2556 H2580 0.932 1_556 S
O2557 Cd2492 2.173 . S
O2557 C2493 1.277 . S
O2558 C2493 1.230 . S
O2558 Cd2496 2.250 . S
O2559 Cd2492 2.263 . S
O2559 C2512 1.258 . S
O2560 Cd2496 2.308 . S
O2560 C2512 1.274 . S
O2561 Cd2492 2.366 . S
O2561 C2548 1.263 . S
C2562 O2563 1.235 . S
C2562 O2564 1.270 . S
O2563 Cd2496 2.352 . S
O2563 C2562 1.235 . S
O2564 Cd2492 2.329 . S
O2564 C2562 1.270 . S
C2565 O2549 1.270 . S
C2565 O2550 1.248 . S
H2566 C2498 0.910 1_556 S
H2567 C2501 0.930 . S
H2568 C2502 0.931 . S
H2569 C2507 0.929 . S
H2570 C2509 0.930 . S
H2571 C2511 0.930 . S
H2572 C2514 0.929 . S
H2573 C2515 0.932 . S
H2574 C2517 0.930 . S
H2575 C2541 0.929 . S
H2576 C2542 0.932 . S
H2577 C2543 0.931 . S
H2578 C2552 0.931 . S
H2579 C2554 0.929 . S
H2580 C2556 0.932 1_554 S
Cd2581 O2638 2.350 . S
Cd2581 O2639 2.277 . S
Cd2581 O2646 2.173 . S
Cd2581 O2648 2.263 . S
Cd2581 O2650 2.366 . S
Cd2581 O2653 2.329 . S
C2582 O2646 1.277 . S
C2582 O2647 1.230 . S
C2583 O2584 1.246 . S
C2583 C2586 1.481 . S
C2583 N2608 1.329 . S
O2584 C2583 1.246 . S
Cd2585 O2647 2.250 . S
Cd2585 O2649 2.308 . S
Cd2585 O2652 2.352 . S
C2586 C2583 1.481 . S
C2586 N2589 1.327 . S
C2586 C2590 1.407 . S
C2587 C2588 1.371 . S
C2587 C2591 1.387 1_554 S
C2587 H2655 0.910 1_554 S
C2588 C2587 1.371 . S
C2588 N2589 1.342 . S
C2588 C2593 1.516 . S
N2589 C2586 1.327 . S
N2589 C2588 1.342 . S
N2589 Co2592 1.864 . S
C2590 C2586 1.407 . S
C2590 C2591 1.364 1_554 S
C2590 H2656 0.930 . S
C2591 C2587 1.387 1_556 S
C2591 C2590 1.364 1_556 S
C2591 H2657 0.931 . S
Co2592 N2589 1.864 . S
Co2592 N2608 1.955 . S
Co2592 N2609 1.958 . S
Co2592 N2610 1.953 . S
Co2592 N2628 1.869 . S
Co2592 N2634 1.974 . S
C2593 C2588 1.516 . S
C2593 O2594 1.238 . S
C2593 N2609 1.324 . S
O2594 C2593 1.238 . S
C2595 C2596 1.394 . S
C2595 C2600 1.395 . S
C2595 N2609 1.427 . S
C2596 C2595 1.394 . S
C2596 C2597 1.380 . S
C2596 H2658 0.929 . S
C2597 C2596 1.380 . S
C2597 C2598 1.384 . S
C2597 C2601 1.495 . S
C2598 C2597 1.384 . S
C2598 C2599 1.382 . S
C2598 H2659 0.930 . S
C2599 C2598 1.382 . S
C2599 C2600 1.398 . S
C2600 C2595 1.395 . S
C2600 C2599 1.398 . S
C2600 H2660 0.930 . S
C2601 C2597 1.495 . S
C2601 O2648 1.258 . S
C2601 O2649 1.274 . S
C2602 C2603 1.385 . S
C2602 C2604 1.381 . S
C2602 N2608 1.432 . S
C2603 C2602 1.385 . S
C2603 C2607 1.388 . S
C2603 H2661 0.929 . S
C2604 C2602 1.381 . S
C2604 C2605 1.371 . S
C2604 H2662 0.932 . S
C2605 C2604 1.371 . S
C2605 C2606 1.400 . S
C2606 C2605 1.400 . S
C2606 C2607 1.351 . S
C2606 H2663 0.930 . S
C2607 C2603 1.388 . S
C2607 C2606 1.351 . S
N2608 C2583 1.329 . S
N2608 Co2592 1.955 . S
N2608 C2602 1.432 . S
N2609 Co2592 1.958 . S
N2609 C2593 1.324 . S
N2609 C2595 1.427 . S
N2610 Co2592 1.953 . S
N2610 C2611 1.436 . S
N2610 C2637 1.316 . S
C2611 N2610 1.436 . S
C2611 C2612 1.421 . S
C2611 C2613 1.360 . S
C2612 C2611 1.421 . S
C2612 C2614 1.379 . S
C2612 H2615 0.929 . S
C2613 C2611 1.360 . S
C2613 C2617 1.393 . S
C2613 H2619 0.931 . S
C2614 C2612 1.379 . S
C2614 C2616 1.417 . S
C2614 C2618 1.505 . S
H2615 C2612 0.929 . S
C2616 C2614 1.417 . S
C2616 C2617 1.352 . S
C2616 H2620 0.929 . S
C2617 C2613 1.393 . S
C2617 C2616 1.352 . S
C2617 C2621 1.482 . S
C2618 C2614 1.505 . S
C2618 O2622 1.259 . S
C2618 O2623 1.229 . S
H2619 C2613 0.931 . S
H2620 C2616 0.929 . S
C2621 C2617 1.482 . S
C2621 O2624 1.207 . S
C2621 O2625 1.289 . S
O2622 C2618 1.259 . S
O2622 H2626 0.822 . S
O2623 C2618 1.229 . S
O2624 C2621 1.207 . S
O2625 C2621 1.289 . S
O2625 H2627 0.819 . S
H2626 O2622 0.822 . S
H2627 O2625 0.819 . S
N2628 Co2592 1.869 . S
N2628 C2629 1.330 . S
N2628 C2633 1.325 . S
C2629 N2628 1.330 . S
C2629 C2630 1.359 . S
C2629 C2635 1.504 . S
C2630 C2629 1.359 . S
C2630 C2631 1.366 . S
C2630 H2664 0.929 . S
C2631 C2630 1.366 . S
C2631 C2632 1.415 . S
C2631 H2665 0.932 . S
C2632 C2631 1.415 . S
C2632 C2633 1.366 . S
C2632 H2666 0.931 . S
C2633 N2628 1.325 . S
C2633 C2632 1.366 . S
C2633 C2637 1.516 . S
N2634 Co2592 1.974 . S
N2634 C2635 1.309 . S
N2634 C2640 1.423 . S
C2635 C2629 1.504 . S
C2635 N2634 1.309 . S
C2635 O2636 1.258 . S
O2636 C2635 1.258 . S
C2637 N2610 1.316 . S
C2637 C2633 1.516 . S
C2637 O2650 1.263 . S
O2638 Cd2581 2.350 . S
O2638 C2654 1.270 . S
O2639 Cd2581 2.277 . S
O2639 C2654 1.248 . S
C2640 N2634 1.423 . S
C2640 C2641 1.370 1_554 S
C2640 C2645 1.403 1_554 S
C2641 C2640 1.370 1_556 S
C2641 C2642 1.389 . S
C2641 H2667 0.931 . S
C2642 C2641 1.389 . S
C2642 C2643 1.389 . S
C2643 C2642 1.389 . S
C2643 C2644 1.379 . S
C2643 H2668 0.929 . S
C2644 C2643 1.379 . S
C2644 C2645 1.405 . S
C2645 C2640 1.403 1_556 S
C2645 C2644 1.405 . S
C2645 H2669 0.932 1_556 S
O2646 Cd2581 2.173 . S
O2646 C2582 1.277 . S
O2647 C2582 1.230 . S
O2647 Cd2585 2.250 . S
O2648 Cd2581 2.263 . S
O2648 C2601 1.258 . S
O2649 Cd2585 2.308 . S
O2649 C2601 1.274 . S
O2650 Cd2581 2.366 . S
O2650 C2637 1.263 . S
C2651 O2652 1.235 . S
C2651 O2653 1.270 . S
O2652 Cd2585 2.352 . S
O2652 C2651 1.235 . S
O2653 Cd2581 2.329 . S
O2653 C2651 1.270 . S
C2654 O2638 1.270 . S
C2654 O2639 1.248 . S
H2655 C2587 0.910 1_556 S
H2656 C2590 0.930 . S
H2657 C2591 0.931 . S
H2658 C2596 0.929 . S
H2659 C2598 0.930 . S
H2660 C2600 0.930 . S
H2661 C2603 0.929 . S
H2662 C2604 0.932 . S
H2663 C2606 0.930 . S
H2664 C2630 0.929 . S
H2665 C2631 0.932 . S
H2666 C2632 0.931 . S
H2667 C2641 0.931 . S
H2668 C2643 0.929 . S
H2669 C2645 0.932 1_554 S
Cd2670 O2727 2.350 . S
Cd2670 O2728 2.277 . S
Cd2670 O2735 2.173 . S
Cd2670 O2737 2.263 . S
Cd2670 O2739 2.366 . S
Cd2670 O2742 2.329 . S
C2671 O2735 1.277 . S
C2671 O2736 1.230 . S
C2672 O2673 1.246 . S
C2672 C2675 1.481 . S
C2672 N2697 1.329 . S
O2673 C2672 1.246 . S
Cd2674 O2736 2.250 . S
Cd2674 O2738 2.308 . S
Cd2674 O2741 2.352 . S
C2675 C2672 1.481 . S
C2675 N2678 1.327 . S
C2675 C2679 1.407 . S
C2676 C2677 1.346 . S
C2676 C2680 1.390 . S
C2676 H2744 0.930 . S
C2677 C2676 1.346 . S
C2677 N2678 1.342 . S
C2677 C2682 1.516 . S
N2678 C2675 1.327 . S
N2678 C2677 1.342 . S
N2678 Co2681 1.864 . S
C2679 C2675 1.407 . S
C2679 C2680 1.364 . S
C2679 H2745 0.930 . S
C2680 C2676 1.390 . S
C2680 C2679 1.364 . S
C2680 H2746 0.931 . S
Co2681 N2678 1.864 . S
Co2681 N2697 1.955 . S
Co2681 N2698 1.958 . S
Co2681 N2699 1.953 . S
Co2681 N2717 1.869 . S
Co2681 N2723 1.974 . S
C2682 C2677 1.516 . S
C2682 O2683 1.238 . S
C2682 N2698 1.324 . S
O2683 C2682 1.238 . S
C2684 C2685 1.394 . S
C2684 C2689 1.395 . S
C2684 N2698 1.427 . S
C2685 C2684 1.394 . S
C2685 C2686 1.380 . S
C2685 H2747 0.929 . S
C2686 C2685 1.380 . S
C2686 C2687 1.384 . S
C2686 C2690 1.495 . S
C2687 C2686 1.384 . S
C2687 C2688 1.382 . S
C2687 H2748 0.930 . S
C2688 C2687 1.382 . S
C2688 C2689 1.398 . S
C2689 C2684 1.395 . S
C2689 C2688 1.398 . S
C2689 H2749 0.930 . S
C2690 C2686 1.495 . S
C2690 O2737 1.258 . S
C2690 O2738 1.274 . S
C2691 C2692 1.385 . S
C2691 C2693 1.381 . S
C2691 N2697 1.432 . S
C2692 C2691 1.385 . S
C2692 C2696 1.388 . S
C2692 H2750 0.929 . S
C2693 C2691 1.381 . S
C2693 C2694 1.371 . S
C2693 H2751 0.932 . S
C2694 C2693 1.371 . S
C2694 C2695 1.400 . S
C2695 C2694 1.400 . S
C2695 C2696 1.351 . S
C2695 H2752 0.930 . S
C2696 C2692 1.388 . S
C2696 C2695 1.351 . S
N2697 C2672 1.329 . S
N2697 Co2681 1.955 . S
N2697 C2691 1.432 . S
N2698 Co2681 1.958 . S
N2698 C2682 1.324 . S
N2698 C2684 1.427 . S
N2699 Co2681 1.953 . S
N2699 C2700 1.436 . S
N2699 C2726 1.316 . S
C2700 N2699 1.436 . S
C2700 C2701 1.421 . S
C2700 C2702 1.360 . S
C2701 C2700 1.421 . S
C2701 C2703 1.379 . S
C2701 H2704 0.929 . S
C2702 C2700 1.360 . S
C2702 C2706 1.393 . S
C2702 H2708 0.931 . S
C2703 C2701 1.379 . S
C2703 C2705 1.417 . S
C2703 C2707 1.505 . S
H2704 C2701 0.929 . S
C2705 C2703 1.417 . S
C2705 C2706 1.352 . S
C2705 H2709 0.929 . S
C2706 C2702 1.393 . S
C2706 C2705 1.352 . S
C2706 C2710 1.482 . S
C2707 C2703 1.505 . S
C2707 O2711 1.259 . S
C2707 O2712 1.229 . S
H2708 C2702 0.931 . S
H2709 C2705 0.929 . S
C2710 C2706 1.482 . S
C2710 O2713 1.207 . S
C2710 O2714 1.289 . S
O2711 C2707 1.259 . S
O2711 H2715 0.822 . S
O2712 C2707 1.229 . S
O2713 C2710 1.207 . S
O2714 C2710 1.289 . S
O2714 H2716 0.819 . S
H2715 O2711 0.822 . S
H2716 O2714 0.819 . S
N2717 Co2681 1.869 . S
N2717 C2718 1.330 . S
N2717 C2722 1.325 . S
C2718 N2717 1.330 . S
C2718 C2719 1.359 . S
C2718 C2724 1.504 . S
C2719 C2718 1.359 . S
C2719 C2720 1.366 . S
C2719 H2753 0.929 . S
C2720 C2719 1.366 . S
C2720 C2721 1.415 . S
C2720 H2754 0.932 . S
C2721 C2720 1.415 . S
C2721 C2722 1.366 . S
C2721 H2755 0.931 . S
C2722 N2717 1.325 . S
C2722 C2721 1.366 . S
C2722 C2726 1.516 . S
N2723 Co2681 1.974 . S
N2723 C2724 1.309 . S
N2723 C2729 1.423 . S
C2724 C2718 1.504 . S
C2724 N2723 1.309 . S
C2724 O2725 1.258 . S
O2725 C2724 1.258 . S
C2726 N2699 1.316 . S
C2726 C2722 1.516 . S
C2726 O2739 1.263 . S
O2727 Cd2670 2.350 . S
O2727 C2743 1.270 . S
O2728 Cd2670 2.277 . S
O2728 C2743 1.248 . S
C2729 N2723 1.423 . S
C2729 C2730 1.370 . S
C2729 C2734 1.403 . S
C2730 C2729 1.370 . S
C2730 C2731 1.389 . S
C2730 H2756 0.931 . S
C2731 C2730 1.389 . S
C2731 C2732 1.389 . S
C2732 C2731 1.389 . S
C2732 C2733 1.379 . S
C2732 H2757 0.929 . S
C2733 C2732 1.379 . S
C2733 C2734 1.405 . S
C2734 C2729 1.403 . S
C2734 C2733 1.405 . S
C2734 H2758 0.932 . S
O2735 Cd2670 2.173 . S
O2735 C2671 1.277 . S
O2736 C2671 1.230 . S
O2736 Cd2674 2.250 . S
O2737 Cd2670 2.263 . S
O2737 C2690 1.258 . S
O2738 Cd2674 2.308 . S
O2738 C2690 1.274 . S
O2739 Cd2670 2.366 . S
O2739 C2726 1.263 . S
C2740 O2741 1.235 . S
C2740 O2742 1.270 . S
O2741 Cd2674 2.352 . S
O2741 C2740 1.235 . S
O2742 Cd2670 2.329 . S
O2742 C2740 1.270 . S
C2743 O2727 1.270 . S
C2743 O2728 1.248 . S
H2744 C2676 0.930 . S
H2745 C2679 0.930 . S
H2746 C2680 0.931 . S
H2747 C2685 0.929 . S
H2748 C2687 0.930 . S
H2749 C2689 0.930 . S
H2750 C2692 0.929 . S
H2751 C2693 0.932 . S
H2752 C2695 0.930 . S
H2753 C2719 0.929 . S
H2754 C2720 0.932 . S
H2755 C2721 0.931 . S
H2756 C2730 0.931 . S
H2757 C2732 0.929 . S
H2758 C2734 0.932 . S
Cd2759 O2816 2.350 . S
Cd2759 O2817 2.277 . S
Cd2759 O2824 2.173 . S
Cd2759 O2826 2.263 . S
Cd2759 O2828 2.366 . S
Cd2759 O2831 2.329 . S
C2760 O2824 1.277 . S
C2760 O2825 1.230 . S
C2761 O2762 1.246 . S
C2761 C2764 1.481 . S
C2761 N2786 1.329 . S
O2762 C2761 1.246 . S
Cd2763 O2825 2.250 . S
Cd2763 O2827 2.308 . S
Cd2763 O2830 2.352 . S
C2764 C2761 1.481 . S
C2764 N2767 1.327 . S
C2764 C2768 1.407 . S
C2765 C2766 1.346 . S
C2765 C2769 1.390 . S
C2765 H2833 0.930 . S
C2766 C2765 1.346 . S
C2766 N2767 1.342 . S
C2766 C2771 1.516 . S
N2767 C2764 1.327 . S
N2767 C2766 1.342 . S
N2767 Co2770 1.864 . S
C2768 C2764 1.407 . S
C2768 C2769 1.364 . S
C2768 H2834 0.930 . S
C2769 C2765 1.390 . S
C2769 C2768 1.364 . S
C2769 H2835 0.931 . S
Co2770 N2767 1.864 . S
Co2770 N2786 1.955 . S
Co2770 N2787 1.958 . S
Co2770 N2788 1.953 . S
Co2770 N2806 1.869 . S
Co2770 N2812 1.974 . S
C2771 C2766 1.516 . S
C2771 O2772 1.238 . S
C2771 N2787 1.324 . S
O2772 C2771 1.238 . S
C2773 C2774 1.394 . S
C2773 C2778 1.395 . S
C2773 N2787 1.427 . S
C2774 C2773 1.394 . S
C2774 C2775 1.380 . S
C2774 H2836 0.929 . S
C2775 C2774 1.380 . S
C2775 C2776 1.384 . S
C2775 C2779 1.495 . S
C2776 C2775 1.384 . S
C2776 C2777 1.382 . S
C2776 H2837 0.930 . S
C2777 C2776 1.382 . S
C2777 C2778 1.398 . S
C2778 C2773 1.395 . S
C2778 C2777 1.398 . S
C2778 H2838 0.930 . S
C2779 C2775 1.495 . S
C2779 O2826 1.258 . S
C2779 O2827 1.274 . S
C2780 C2781 1.385 . S
C2780 C2782 1.381 . S
C2780 N2786 1.432 . S
C2781 C2780 1.385 . S
C2781 C2785 1.388 . S
C2781 H2839 0.929 . S
C2782 C2780 1.381 . S
C2782 C2783 1.371 . S
C2782 H2840 0.932 . S
C2783 C2782 1.371 . S
C2783 C2784 1.400 . S
C2784 C2783 1.400 . S
C2784 C2785 1.351 . S
C2784 H2841 0.930 . S
C2785 C2781 1.388 . S
C2785 C2784 1.351 . S
N2786 C2761 1.329 . S
N2786 Co2770 1.955 . S
N2786 C2780 1.432 . S
N2787 Co2770 1.958 . S
N2787 C2771 1.324 . S
N2787 C2773 1.427 . S
N2788 Co2770 1.953 . S
N2788 C2789 1.436 . S
N2788 C2815 1.316 . S
C2789 N2788 1.436 . S
C2789 C2790 1.421 . S
C2789 C2791 1.360 . S
C2790 C2789 1.421 . S
C2790 C2792 1.379 . S
C2790 H2793 0.929 . S
C2791 C2789 1.360 . S
C2791 C2795 1.393 . S
C2791 H2797 0.931 . S
C2792 C2790 1.379 . S
C2792 C2794 1.417 . S
C2792 C2796 1.505 . S
H2793 C2790 0.929 . S
C2794 C2792 1.417 . S
C2794 C2795 1.352 . S
C2794 H2798 0.929 . S
C2795 C2791 1.393 . S
C2795 C2794 1.352 . S
C2795 C2799 1.482 . S
C2796 C2792 1.505 . S
C2796 O2800 1.259 . S
C2796 O2801 1.229 . S
H2797 C2791 0.931 . S
H2798 C2794 0.929 . S
C2799 C2795 1.482 . S
C2799 O2802 1.207 . S
C2799 O2803 1.289 . S
O2800 C2796 1.259 . S
O2800 H2804 0.822 . S
O2801 C2796 1.229 . S
O2802 C2799 1.207 . S
O2803 C2799 1.289 . S
O2803 H2805 0.819 . S
H2804 O2800 0.822 . S
H2805 O2803 0.819 . S
N2806 Co2770 1.869 . S
N2806 C2807 1.330 . S
N2806 C2811 1.325 . S
C2807 N2806 1.330 . S
C2807 C2808 1.359 . S
C2807 C2813 1.504 . S
C2808 C2807 1.359 . S
C2808 C2809 1.366 . S
C2808 H2842 0.929 . S
C2809 C2808 1.366 . S
C2809 C2810 1.415 . S
C2809 H2843 0.932 . S
C2810 C2809 1.415 . S
C2810 C2811 1.366 . S
C2810 H2844 0.931 . S
C2811 N2806 1.325 . S
C2811 C2810 1.366 . S
C2811 C2815 1.516 . S
N2812 Co2770 1.974 . S
N2812 C2813 1.309 . S
N2812 C2818 1.423 . S
C2813 C2807 1.504 . S
C2813 N2812 1.309 . S
C2813 O2814 1.258 . S
O2814 C2813 1.258 . S
C2815 N2788 1.316 . S
C2815 C2811 1.516 . S
C2815 O2828 1.263 . S
O2816 Cd2759 2.350 . S
O2816 C2832 1.270 . S
O2817 Cd2759 2.277 . S
O2817 C2832 1.248 . S
C2818 N2812 1.423 . S
C2818 C2819 1.370 . S
C2818 C2823 1.403 . S
C2819 C2818 1.370 . S
C2819 C2820 1.389 . S
C2819 H2845 0.931 . S
C2820 C2819 1.389 . S
C2820 C2821 1.389 . S
C2821 C2820 1.389 . S
C2821 C2822 1.379 . S
C2821 H2846 0.929 . S
C2822 C2821 1.379 . S
C2822 C2823 1.405 . S
C2823 C2818 1.403 . S
C2823 C2822 1.405 . S
C2823 H2847 0.932 . S
O2824 Cd2759 2.173 . S
O2824 C2760 1.277 . S
O2825 C2760 1.230 . S
O2825 Cd2763 2.250 . S
O2826 Cd2759 2.263 . S
O2826 C2779 1.258 . S
O2827 Cd2763 2.308 . S
O2827 C2779 1.274 . S
O2828 Cd2759 2.366 . S
O2828 C2815 1.263 . S
C2829 O2830 1.235 . S
C2829 O2831 1.270 . S
O2830 Cd2763 2.352 . S
O2830 C2829 1.235 . S
O2831 Cd2759 2.329 . S
O2831 C2829 1.270 . S
C2832 O2816 1.270 . S
C2832 O2817 1.248 . S
H2833 C2765 0.930 . S
H2834 C2768 0.930 . S
H2835 C2769 0.931 . S
H2836 C2774 0.929 . S
H2837 C2776 0.930 . S
H2838 C2778 0.930 . S
H2839 C2781 0.929 . S
H2840 C2782 0.932 . S
H2841 C2784 0.930 . S
H2842 C2808 0.929 . S
H2843 C2809 0.932 . S
H2844 C2810 0.931 . S
H2845 C2819 0.931 . S
H2846 C2821 0.929 . S
H2847 C2823 0.932 . S
Cd2848 O2905 2.350 . S
Cd2848 O2906 2.277 . S
Cd2848 O2913 2.173 . S
Cd2848 O2915 2.263 . S
Cd2848 O2917 2.366 . S
Cd2848 O2920 2.329 . S
C2849 O2913 1.277 . S
C2849 O2914 1.230 . S
C2850 O2851 1.246 . S
C2850 C2853 1.481 . S
C2850 N2875 1.329 . S
O2851 C2850 1.246 . S
Cd2852 O2914 2.250 . S
Cd2852 O2916 2.308 . S
Cd2852 O2919 2.352 . S
C2853 C2850 1.481 . S
C2853 N2856 1.327 . S
C2853 C2857 1.407 . S
C2854 C2855 1.346 . S
C2854 C2858 1.390 . S
C2854 H2922 0.930 . S
C2855 C2854 1.346 . S
C2855 N2856 1.342 . S
C2855 C2860 1.516 . S
N2856 C2853 1.327 . S
N2856 C2855 1.342 . S
N2856 Co2859 1.864 . S
C2857 C2853 1.407 . S
C2857 C2858 1.364 . S
C2857 H2923 0.930 . S
C2858 C2854 1.390 . S
C2858 C2857 1.364 . S
C2858 H2924 0.931 . S
Co2859 N2856 1.864 . S
Co2859 N2875 1.955 . S
Co2859 N2876 1.958 . S
Co2859 N2877 1.953 . S
Co2859 N2895 1.869 . S
Co2859 N2901 1.974 . S
C2860 C2855 1.516 . S
C2860 O2861 1.238 . S
C2860 N2876 1.324 . S
O2861 C2860 1.238 . S
C2862 C2863 1.394 . S
C2862 C2867 1.395 . S
C2862 N2876 1.427 . S
C2863 C2862 1.394 . S
C2863 C2864 1.380 . S
C2863 H2925 0.929 . S
C2864 C2863 1.380 . S
C2864 C2865 1.384 . S
C2864 C2868 1.495 . S
C2865 C2864 1.384 . S
C2865 C2866 1.382 . S
C2865 H2926 0.930 . S
C2866 C2865 1.382 . S
C2866 C2867 1.398 . S
C2867 C2862 1.395 . S
C2867 C2866 1.398 . S
C2867 H2927 0.930 . S
C2868 C2864 1.495 . S
C2868 O2915 1.258 . S
C2868 O2916 1.274 . S
C2869 C2870 1.385 . S
C2869 C2871 1.381 . S
C2869 N2875 1.432 . S
C2870 C2869 1.385 . S
C2870 C2874 1.388 . S
C2870 H2928 0.929 . S
C2871 C2869 1.381 . S
C2871 C2872 1.371 . S
C2871 H2929 0.932 . S
C2872 C2871 1.371 . S
C2872 C2873 1.400 . S
C2873 C2872 1.400 . S
C2873 C2874 1.351 . S
C2873 H2930 0.930 . S
C2874 C2870 1.388 . S
C2874 C2873 1.351 . S
N2875 C2850 1.329 . S
N2875 Co2859 1.955 . S
N2875 C2869 1.432 . S
N2876 Co2859 1.958 . S
N2876 C2860 1.324 . S
N2876 C2862 1.427 . S
N2877 Co2859 1.953 . S
N2877 C2878 1.436 . S
N2877 C2904 1.316 . S
C2878 N2877 1.436 . S
C2878 C2879 1.421 . S
C2878 C2880 1.360 . S
C2879 C2878 1.421 . S
C2879 C2881 1.379 . S
C2879 H2882 0.929 . S
C2880 C2878 1.360 . S
C2880 C2884 1.393 . S
C2880 H2886 0.931 . S
C2881 C2879 1.379 . S
C2881 C2883 1.417 . S
C2881 C2885 1.505 . S
H2882 C2879 0.929 . S
C2883 C2881 1.417 . S
C2883 C2884 1.352 . S
C2883 H2887 0.929 . S
C2884 C2880 1.393 . S
C2884 C2883 1.352 . S
C2884 C2888 1.482 . S
C2885 C2881 1.505 . S
C2885 O2889 1.259 . S
C2885 O2890 1.229 . S
H2886 C2880 0.931 . S
H2887 C2883 0.929 . S
C2888 C2884 1.482 . S
C2888 O2891 1.207 . S
C2888 O2892 1.289 . S
O2889 C2885 1.259 . S
O2889 H2893 0.822 . S
O2890 C2885 1.229 . S
O2891 C2888 1.207 . S
O2892 C2888 1.289 . S
O2892 H2894 0.819 . S
H2893 O2889 0.822 . S
H2894 O2892 0.819 . S
N2895 Co2859 1.869 . S
N2895 C2896 1.330 . S
N2895 C2900 1.325 . S
C2896 N2895 1.330 . S
C2896 C2897 1.359 . S
C2896 C2902 1.504 . S
C2897 C2896 1.359 . S
C2897 C2898 1.366 . S
C2897 H2931 0.929 . S
C2898 C2897 1.366 . S
C2898 C2899 1.415 . S
C2898 H2932 0.932 . S
C2899 C2898 1.415 . S
C2899 C2900 1.366 . S
C2899 H2933 0.931 . S
C2900 N2895 1.325 . S
C2900 C2899 1.366 . S
C2900 C2904 1.516 . S
N2901 Co2859 1.974 . S
N2901 C2902 1.309 . S
N2901 C2907 1.423 . S
C2902 C2896 1.504 . S
C2902 N2901 1.309 . S
C2902 O2903 1.258 . S
O2903 C2902 1.258 . S
C2904 N2877 1.316 . S
C2904 C2900 1.516 . S
C2904 O2917 1.263 . S
O2905 Cd2848 2.350 . S
O2905 C2921 1.270 . S
O2906 Cd2848 2.277 . S
O2906 C2921 1.248 . S
C2907 N2901 1.423 . S
C2907 C2908 1.370 . S
C2907 C2912 1.403 . S
C2908 C2907 1.370 . S
C2908 C2909 1.389 . S
C2908 H2934 0.931 . S
C2909 C2908 1.389 . S
C2909 C2910 1.389 . S
C2910 C2909 1.389 . S
C2910 C2911 1.379 . S
C2910 H2935 0.929 . S
C2911 C2910 1.379 . S
C2911 C2912 1.405 . S
C2912 C2907 1.403 . S
C2912 C2911 1.405 . S
C2912 H2936 0.932 . S
O2913 Cd2848 2.173 . S
O2913 C2849 1.277 . S
O2914 C2849 1.230 . S
O2914 Cd2852 2.250 . S
O2915 Cd2848 2.263 . S
O2915 C2868 1.258 . S
O2916 Cd2852 2.308 . S
O2916 C2868 1.274 . S
O2917 Cd2848 2.366 . S
O2917 C2904 1.263 . S
C2918 O2919 1.235 . S
C2918 O2920 1.270 . S
O2919 Cd2852 2.352 . S
O2919 C2918 1.235 . S
O2920 Cd2848 2.329 . S
O2920 C2918 1.270 . S
C2921 O2905 1.270 . S
C2921 O2906 1.248 . S
H2922 C2854 0.930 . S
H2923 C2857 0.930 . S
H2924 C2858 0.931 . S
H2925 C2863 0.929 . S
H2926 C2865 0.930 . S
H2927 C2867 0.930 . S
H2928 C2870 0.929 . S
H2929 C2871 0.932 . S
H2930 C2873 0.930 . S
H2931 C2897 0.929 . S
H2932 C2898 0.932 . S
H2933 C2899 0.931 . S
H2934 C2908 0.931 . S
H2935 C2910 0.929 . S
H2936 C2912 0.932 . S
Cd2937 O2994 2.350 . S
Cd2937 O2995 2.277 . S
Cd2937 O3002 2.173 . S
Cd2937 O3004 2.263 . S
Cd2937 O3006 2.366 . S
Cd2937 O3009 2.329 . S
C2938 O3002 1.277 . S
C2938 O3003 1.230 . S
C2939 O2940 1.246 . S
C2939 C2942 1.481 . S
C2939 N2964 1.329 . S
O2940 C2939 1.246 . S
Cd2941 O3003 2.250 . S
Cd2941 O3005 2.308 . S
Cd2941 O3008 2.352 . S
C2942 C2939 1.481 . S
C2942 N2945 1.327 . S
C2942 C2946 1.407 . S
C2943 C2944 1.346 . S
C2943 C2947 1.390 . S
C2943 H3011 0.930 . S
C2944 C2943 1.346 . S
C2944 N2945 1.342 . S
C2944 C2949 1.516 . S
N2945 C2942 1.327 . S
N2945 C2944 1.342 . S
N2945 Co2948 1.864 . S
C2946 C2942 1.407 . S
C2946 C2947 1.364 . S
C2946 H3012 0.930 . S
C2947 C2943 1.390 . S
C2947 C2946 1.364 . S
C2947 H3013 0.931 . S
Co2948 N2945 1.864 . S
Co2948 N2964 1.955 . S
Co2948 N2965 1.958 . S
Co2948 N2966 1.953 . S
Co2948 N2984 1.869 . S
Co2948 N2990 1.974 . S
C2949 C2944 1.516 . S
C2949 O2950 1.238 . S
C2949 N2965 1.324 . S
O2950 C2949 1.238 . S
C2951 C2952 1.394 . S
C2951 C2956 1.395 . S
C2951 N2965 1.427 . S
C2952 C2951 1.394 . S
C2952 C2953 1.380 . S
C2952 H3014 0.929 . S
C2953 C2952 1.380 . S
C2953 C2954 1.384 . S
C2953 C2957 1.495 . S
C2954 C2953 1.384 . S
C2954 C2955 1.382 . S
C2954 H3015 0.930 . S
C2955 C2954 1.382 . S
C2955 C2956 1.398 . S
C2956 C2951 1.395 . S
C2956 C2955 1.398 . S
C2956 H3016 0.930 . S
C2957 C2953 1.495 . S
C2957 O3004 1.258 . S
C2957 O3005 1.274 . S
C2958 C2959 1.385 . S
C2958 C2960 1.381 . S
C2958 N2964 1.432 . S
C2959 C2958 1.385 . S
C2959 C2963 1.388 . S
C2959 H3017 0.929 . S
C2960 C2958 1.381 . S
C2960 C2961 1.371 . S
C2960 H3018 0.932 . S
C2961 C2960 1.371 . S
C2961 C2962 1.400 . S
C2962 C2961 1.400 . S
C2962 C2963 1.351 . S
C2962 H3019 0.930 . S
C2963 C2959 1.388 . S
C2963 C2962 1.351 . S
N2964 C2939 1.329 . S
N2964 Co2948 1.955 . S
N2964 C2958 1.432 . S
N2965 Co2948 1.958 . S
N2965 C2949 1.324 . S
N2965 C2951 1.427 . S
N2966 Co2948 1.953 . S
N2966 C2967 1.436 . S
N2966 C2993 1.316 . S
C2967 N2966 1.436 . S
C2967 C2968 1.421 . S
C2967 C2969 1.360 . S
C2968 C2967 1.421 . S
C2968 C2970 1.379 . S
C2968 H2971 0.929 . S
C2969 C2967 1.360 . S
C2969 C2973 1.393 . S
C2969 H2975 0.931 . S
C2970 C2968 1.379 . S
C2970 C2972 1.417 . S
C2970 C2974 1.505 . S
H2971 C2968 0.929 . S
C2972 C2970 1.417 . S
C2972 C2973 1.352 . S
C2972 H2976 0.929 . S
C2973 C2969 1.393 . S
C2973 C2972 1.352 . S
C2973 C2977 1.482 . S
C2974 C2970 1.505 . S
C2974 O2978 1.259 . S
C2974 O2979 1.229 . S
H2975 C2969 0.931 . S
H2976 C2972 0.929 . S
C2977 C2973 1.482 . S
C2977 O2980 1.207 . S
C2977 O2981 1.289 . S
O2978 C2974 1.259 . S
O2978 H2982 0.822 . S
O2979 C2974 1.229 . S
O2980 C2977 1.207 . S
O2981 C2977 1.289 . S
O2981 H2983 0.819 . S
H2982 O2978 0.822 . S
H2983 O2981 0.819 . S
N2984 Co2948 1.869 . S
N2984 C2985 1.330 . S
N2984 C2989 1.325 . S
C2985 N2984 1.330 . S
C2985 C2986 1.359 . S
C2985 C2991 1.504 . S
C2986 C2985 1.359 . S
C2986 C2987 1.366 . S
C2986 H3020 0.929 . S
C2987 C2986 1.366 . S
C2987 C2988 1.415 . S
C2987 H3021 0.932 . S
C2988 C2987 1.415 . S
C2988 C2989 1.366 . S
C2988 H3022 0.931 . S
C2989 N2984 1.325 . S
C2989 C2988 1.366 . S
C2989 C2993 1.516 . S
N2990 Co2948 1.974 . S
N2990 C2991 1.309 . S
N2990 C2996 1.423 . S
C2991 C2985 1.504 . S
C2991 N2990 1.309 . S
C2991 O2992 1.258 . S
O2992 C2991 1.258 . S
C2993 N2966 1.316 . S
C2993 C2989 1.516 . S
C2993 O3006 1.263 . S
O2994 Cd2937 2.350 . S
O2994 C3010 1.270 . S
O2995 Cd2937 2.277 . S
O2995 C3010 1.248 . S
C2996 N2990 1.423 . S
C2996 C2997 1.370 . S
C2996 C3001 1.403 . S
C2997 C2996 1.370 . S
C2997 C2998 1.389 . S
C2997 H3023 0.931 . S
C2998 C2997 1.389 . S
C2998 C2999 1.389 . S
C2999 C2998 1.389 . S
C2999 C3000 1.379 . S
C2999 H3024 0.929 . S
C3000 C2999 1.379 . S
C3000 C3001 1.405 . S
C3001 C2996 1.403 . S
C3001 C3000 1.405 . S
C3001 H3025 0.932 . S
O3002 Cd2937 2.173 . S
O3002 C2938 1.277 . S
O3003 C2938 1.230 . S
O3003 Cd2941 2.250 . S
O3004 Cd2937 2.263 . S
O3004 C2957 1.258 . S
O3005 Cd2941 2.308 . S
O3005 C2957 1.274 . S
O3006 Cd2937 2.366 . S
O3006 C2993 1.263 . S
C3007 O3008 1.235 . S
C3007 O3009 1.270 . S
O3008 Cd2941 2.352 . S
O3008 C3007 1.235 . S
O3009 Cd2937 2.329 . S
O3009 C3007 1.270 . S
C3010 O2994 1.270 . S
C3010 O2995 1.248 . S
H3011 C2943 0.930 . S
H3012 C2946 0.930 . S
H3013 C2947 0.931 . S
H3014 C2952 0.929 . S
H3015 C2954 0.930 . S
H3016 C2956 0.930 . S
H3017 C2959 0.929 . S
H3018 C2960 0.932 . S
H3019 C2962 0.930 . S
H3020 C2986 0.929 . S
H3021 C2987 0.932 . S
H3022 C2988 0.931 . S
H3023 C2997 0.931 . S
H3024 C2999 0.929 . S
H3025 C3001 0.932 . S
Cd3026 O3083 2.350 . S
Cd3026 O3084 2.277 . S
Cd3026 O3091 2.173 . S
Cd3026 O3093 2.263 . S
Cd3026 O3095 2.366 . S
Cd3026 O3098 2.329 . S
C3027 O3091 1.277 . S
C3027 O3092 1.230 . S
C3028 O3029 1.246 . S
C3028 C3031 1.481 . S
C3028 N3053 1.329 . S
O3029 C3028 1.246 . S
Cd3030 O3092 2.250 . S
Cd3030 O3094 2.308 . S
Cd3030 O3097 2.352 . S
C3031 C3028 1.481 . S
C3031 N3034 1.327 . S
C3031 C3035 1.407 . S
C3032 C3033 1.346 . S
C3032 C3036 1.390 . S
C3032 H3100 0.930 . S
C3033 C3032 1.346 . S
C3033 N3034 1.342 . S
C3033 C3038 1.516 . S
N3034 C3031 1.327 . S
N3034 C3033 1.342 . S
N3034 Co3037 1.864 . S
C3035 C3031 1.407 . S
C3035 C3036 1.364 . S
C3035 H3101 0.930 . S
C3036 C3032 1.390 . S
C3036 C3035 1.364 . S
C3036 H3102 0.931 . S
Co3037 N3034 1.864 . S
Co3037 N3053 1.955 . S
Co3037 N3054 1.958 . S
Co3037 N3055 1.953 . S
Co3037 N3073 1.869 . S
Co3037 N3079 1.974 . S
C3038 C3033 1.516 . S
C3038 O3039 1.238 . S
C3038 N3054 1.324 . S
O3039 C3038 1.238 . S
C3040 C3041 1.394 . S
C3040 C3045 1.395 . S
C3040 N3054 1.427 . S
C3041 C3040 1.394 . S
C3041 C3042 1.380 . S
C3041 H3103 0.929 . S
C3042 C3041 1.380 . S
C3042 C3043 1.384 . S
C3042 C3046 1.495 . S
C3043 C3042 1.384 . S
C3043 C3044 1.382 . S
C3043 H3104 0.930 . S
C3044 C3043 1.382 . S
C3044 C3045 1.398 . S
C3045 C3040 1.395 . S
C3045 C3044 1.398 . S
C3045 H3105 0.930 . S
C3046 C3042 1.495 . S
C3046 O3093 1.258 . S
C3046 O3094 1.274 . S
C3047 C3048 1.385 . S
C3047 C3049 1.381 . S
C3047 N3053 1.432 . S
C3048 C3047 1.385 . S
C3048 C3052 1.388 . S
C3048 H3106 0.929 . S
C3049 C3047 1.381 . S
C3049 C3050 1.371 . S
C3049 H3107 0.932 . S
C3050 C3049 1.371 . S
C3050 C3051 1.400 . S
C3051 C3050 1.400 . S
C3051 C3052 1.351 . S
C3051 H3108 0.930 . S
C3052 C3048 1.388 . S
C3052 C3051 1.351 . S
N3053 C3028 1.329 . S
N3053 Co3037 1.955 . S
N3053 C3047 1.432 . S
N3054 Co3037 1.958 . S
N3054 C3038 1.324 . S
N3054 C3040 1.427 . S
N3055 Co3037 1.953 . S
N3055 C3056 1.436 . S
N3055 C3082 1.316 . S
C3056 N3055 1.436 . S
C3056 C3057 1.421 . S
C3056 C3058 1.360 . S
C3057 C3056 1.421 . S
C3057 C3059 1.379 . S
C3057 H3060 0.929 . S
C3058 C3056 1.360 . S
C3058 C3062 1.393 . S
C3058 H3064 0.931 . S
C3059 C3057 1.379 . S
C3059 C3061 1.417 . S
C3059 C3063 1.505 . S
H3060 C3057 0.929 . S
C3061 C3059 1.417 . S
C3061 C3062 1.352 . S
C3061 H3065 0.929 . S
C3062 C3058 1.393 . S
C3062 C3061 1.352 . S
C3062 C3066 1.482 . S
C3063 C3059 1.505 . S
C3063 O3067 1.259 . S
C3063 O3068 1.229 . S
H3064 C3058 0.931 . S
H3065 C3061 0.929 . S
C3066 C3062 1.482 . S
C3066 O3069 1.207 . S
C3066 O3070 1.289 . S
O3067 C3063 1.259 . S
O3067 H3071 0.822 . S
O3068 C3063 1.229 . S
O3069 C3066 1.207 . S
O3070 C3066 1.289 . S
O3070 H3072 0.819 . S
H3071 O3067 0.822 . S
H3072 O3070 0.819 . S
N3073 Co3037 1.869 . S
N3073 C3074 1.330 . S
N3073 C3078 1.325 . S
C3074 N3073 1.330 . S
C3074 C3075 1.359 . S
C3074 C3080 1.504 . S
C3075 C3074 1.359 . S
C3075 C3076 1.366 . S
C3075 H3109 0.929 . S
C3076 C3075 1.366 . S
C3076 C3077 1.415 . S
C3076 H3110 0.932 . S
C3077 C3076 1.415 . S
C3077 C3078 1.366 . S
C3077 H3111 0.931 . S
C3078 N3073 1.325 . S
C3078 C3077 1.366 . S
C3078 C3082 1.516 . S
N3079 Co3037 1.974 . S
N3079 C3080 1.309 . S
N3079 C3085 1.423 . S
C3080 C3074 1.504 . S
C3080 N3079 1.309 . S
C3080 O3081 1.258 . S
O3081 C3080 1.258 . S
C3082 N3055 1.316 . S
C3082 C3078 1.516 . S
C3082 O3095 1.263 . S
O3083 Cd3026 2.350 . S
O3083 C3099 1.270 . S
O3084 Cd3026 2.277 . S
O3084 C3099 1.248 . S
C3085 N3079 1.423 . S
C3085 C3086 1.370 . S
C3085 C3090 1.403 . S
C3086 C3085 1.370 . S
C3086 C3087 1.389 . S
C3086 H3112 0.931 . S
C3087 C3086 1.389 . S
C3087 C3088 1.389 . S
C3088 C3087 1.389 . S
C3088 C3089 1.379 . S
C3088 H3113 0.929 . S
C3089 C3088 1.379 . S
C3089 C3090 1.405 . S
C3090 C3085 1.403 . S
C3090 C3089 1.405 . S
C3090 H3114 0.932 . S
O3091 Cd3026 2.173 . S
O3091 C3027 1.277 . S
O3092 C3027 1.230 . S
O3092 Cd3030 2.250 . S
O3093 Cd3026 2.263 . S
O3093 C3046 1.258 . S
O3094 Cd3030 2.308 . S
O3094 C3046 1.274 . S
O3095 Cd3026 2.366 . S
O3095 C3082 1.263 . S
C3096 O3097 1.235 . S
C3096 O3098 1.270 . S
O3097 Cd3030 2.352 . S
O3097 C3096 1.235 . S
O3098 Cd3026 2.329 . S
O3098 C3096 1.270 . S
C3099 O3083 1.270 . S
C3099 O3084 1.248 . S
H3100 C3032 0.930 . S
H3101 C3035 0.930 . S
H3102 C3036 0.931 . S
H3103 C3041 0.929 . S
H3104 C3043 0.930 . S
H3105 C3045 0.930 . S
H3106 C3048 0.929 . S
H3107 C3049 0.932 . S
H3108 C3051 0.930 . S
H3109 C3075 0.929 . S
H3110 C3076 0.932 . S
H3111 C3077 0.931 . S
H3112 C3086 0.931 . S
H3113 C3088 0.929 . S
H3114 C3090 0.932 . S
Cd3115 O3172 2.350 . S
Cd3115 O3173 2.277 . S
Cd3115 O3180 2.173 . S
Cd3115 O3182 2.263 . S
Cd3115 O3184 2.366 . S
Cd3115 O3187 2.329 . S
C3116 O3180 1.277 . S
C3116 O3181 1.230 . S
C3117 O3118 1.246 . S
C3117 C3120 1.481 . S
C3117 N3142 1.329 . S
O3118 C3117 1.246 . S
Cd3119 O3181 2.250 . S
Cd3119 O3183 2.308 . S
Cd3119 O3186 2.352 . S
C3120 C3117 1.481 . S
C3120 N3123 1.327 . S
C3120 C3124 1.407 . S
C3121 C3122 1.346 . S
C3121 C3125 1.390 . S
C3121 H3189 0.930 . S
C3122 C3121 1.346 . S
C3122 N3123 1.342 . S
C3122 C3127 1.516 . S
N3123 C3120 1.327 . S
N3123 C3122 1.342 . S
N3123 Co3126 1.864 . S
C3124 C3120 1.407 . S
C3124 C3125 1.364 . S
C3124 H3190 0.930 . S
C3125 C3121 1.390 . S
C3125 C3124 1.364 . S
C3125 H3191 0.931 . S
Co3126 N3123 1.864 . S
Co3126 N3142 1.955 . S
Co3126 N3143 1.958 . S
Co3126 N3144 1.953 . S
Co3126 N3162 1.869 . S
Co3126 N3168 1.974 . S
C3127 C3122 1.516 . S
C3127 O3128 1.238 . S
C3127 N3143 1.324 . S
O3128 C3127 1.238 . S
C3129 C3130 1.394 . S
C3129 C3134 1.395 . S
C3129 N3143 1.427 . S
C3130 C3129 1.394 . S
C3130 C3131 1.380 . S
C3130 H3192 0.929 . S
C3131 C3130 1.380 . S
C3131 C3132 1.384 . S
C3131 C3135 1.495 . S
C3132 C3131 1.384 . S
C3132 C3133 1.382 . S
C3132 H3193 0.930 . S
C3133 C3132 1.382 . S
C3133 C3134 1.398 . S
C3134 C3129 1.395 . S
C3134 C3133 1.398 . S
C3134 H3194 0.930 . S
C3135 C3131 1.495 . S
C3135 O3182 1.258 . S
C3135 O3183 1.274 . S
C3136 C3137 1.385 . S
C3136 C3138 1.381 . S
C3136 N3142 1.432 . S
C3137 C3136 1.385 . S
C3137 C3141 1.388 . S
C3137 H3195 0.929 . S
C3138 C3136 1.381 . S
C3138 C3139 1.371 . S
C3138 H3196 0.932 . S
C3139 C3138 1.371 . S
C3139 C3140 1.400 . S
C3140 C3139 1.400 . S
C3140 C3141 1.351 . S
C3140 H3197 0.930 . S
C3141 C3137 1.388 . S
C3141 C3140 1.351 . S
N3142 C3117 1.329 . S
N3142 Co3126 1.955 . S
N3142 C3136 1.432 . S
N3143 Co3126 1.958 . S
N3143 C3127 1.324 . S
N3143 C3129 1.427 . S
N3144 Co3126 1.953 . S
N3144 C3145 1.436 . S
N3144 C3171 1.316 . S
C3145 N3144 1.436 . S
C3145 C3146 1.421 . S
C3145 C3147 1.360 . S
C3146 C3145 1.421 . S
C3146 C3148 1.379 . S
C3146 H3149 0.929 . S
C3147 C3145 1.360 . S
C3147 C3151 1.393 . S
C3147 H3153 0.931 . S
C3148 C3146 1.379 . S
C3148 C3150 1.417 . S
C3148 C3152 1.505 . S
H3149 C3146 0.929 . S
C3150 C3148 1.417 . S
C3150 C3151 1.352 . S
C3150 H3154 0.929 . S
C3151 C3147 1.393 . S
C3151 C3150 1.352 . S
C3151 C3155 1.482 . S
C3152 C3148 1.505 . S
C3152 O3156 1.259 . S
C3152 O3157 1.229 . S
H3153 C3147 0.931 . S
H3154 C3150 0.929 . S
C3155 C3151 1.482 . S
C3155 O3158 1.207 . S
C3155 O3159 1.289 . S
O3156 C3152 1.259 . S
O3156 H3160 0.822 . S
O3157 C3152 1.229 . S
O3158 C3155 1.207 . S
O3159 C3155 1.289 . S
O3159 H3161 0.819 . S
H3160 O3156 0.822 . S
H3161 O3159 0.819 . S
N3162 Co3126 1.869 . S
N3162 C3163 1.330 . S
N3162 C3167 1.325 . S
C3163 N3162 1.330 . S
C3163 C3164 1.359 . S
C3163 C3169 1.504 . S
C3164 C3163 1.359 . S
C3164 C3165 1.366 . S
C3164 H3198 0.929 . S
C3165 C3164 1.366 . S
C3165 C3166 1.415 . S
C3165 H3199 0.932 . S
C3166 C3165 1.415 . S
C3166 C3167 1.366 . S
C3166 H3200 0.931 . S
C3167 N3162 1.325 . S
C3167 C3166 1.366 . S
C3167 C3171 1.516 . S
N3168 Co3126 1.974 . S
N3168 C3169 1.309 . S
N3168 C3174 1.423 . S
C3169 C3163 1.504 . S
C3169 N3168 1.309 . S
C3169 O3170 1.258 . S
O3170 C3169 1.258 . S
C3171 N3144 1.316 . S
C3171 C3167 1.516 . S
C3171 O3184 1.263 . S
O3172 Cd3115 2.350 . S
O3172 C3188 1.270 . S
O3173 Cd3115 2.277 . S
O3173 C3188 1.248 . S
C3174 N3168 1.423 . S
C3174 C3175 1.370 . S
C3174 C3179 1.403 . S
C3175 C3174 1.370 . S
C3175 C3176 1.389 . S
C3175 H3201 0.931 . S
C3176 C3175 1.389 . S
C3176 C3177 1.389 . S
C3177 C3176 1.389 . S
C3177 C3178 1.379 . S
C3177 H3202 0.929 . S
C3178 C3177 1.379 . S
C3178 C3179 1.405 . S
C3179 C3174 1.403 . S
C3179 C3178 1.405 . S
C3179 H3203 0.932 . S
O3180 Cd3115 2.173 . S
O3180 C3116 1.277 . S
O3181 C3116 1.230 . S
O3181 Cd3119 2.250 . S
O3182 Cd3115 2.263 . S
O3182 C3135 1.258 . S
O3183 Cd3119 2.308 . S
O3183 C3135 1.274 . S
O3184 Cd3115 2.366 . S
O3184 C3171 1.263 . S
C3185 O3186 1.235 . S
C3185 O3187 1.270 . S
O3186 Cd3119 2.352 . S
O3186 C3185 1.235 . S
O3187 Cd3115 2.329 . S
O3187 C3185 1.270 . S
C3188 O3172 1.270 . S
C3188 O3173 1.248 . S
H3189 C3121 0.930 . S
H3190 C3124 0.930 . S
H3191 C3125 0.931 . S
H3192 C3130 0.929 . S
H3193 C3132 0.930 . S
H3194 C3134 0.930 . S
H3195 C3137 0.929 . S
H3196 C3138 0.932 . S
H3197 C3140 0.930 . S
H3198 C3164 0.929 . S
H3199 C3165 0.932 . S
H3200 C3166 0.931 . S
H3201 C3175 0.931 . S
H3202 C3177 0.929 . S
H3203 C3179 0.932 . S
H3204 C3210 0.930 . S
H3205 C3214 0.930 . S
H3206 C3219 0.929 . S
H3207 C3217 0.929 . S
H3208 C3212 0.929 . S
H3209 C3218 0.929 . S
C3210 H3204 0.930 . S
C3210 C3211 1.367 . S
C3210 C3218 1.378 . S
C3211 C3210 1.367 . S
C3211 C3219 1.433 . S
C3212 H3208 0.929 . S
C3212 C3214 1.378 . S
C3212 C3216 1.350 . S
C3213 C3216 1.463 . S
C3213 C3218 1.350 . S
C3213 N3221 1.427 . S
C3214 H3205 0.930 . S
C3214 C3212 1.378 . S
C3214 C3215 1.367 . S
C3215 C3214 1.367 . S
C3215 C3217 1.433 . S
C3216 C3212 1.350 . S
C3216 C3213 1.463 . S
C3216 N3220 1.427 . S
C3217 H3207 0.929 . S
C3217 C3215 1.433 . S
C3217 N3220 1.384 . S
C3218 H3209 0.929 . S
C3218 C3210 1.378 . S
C3218 C3213 1.350 . S
C3219 H3206 0.929 . S
C3219 C3211 1.433 . S
C3219 N3221 1.384 . S
N3220 C3216 1.427 . S
N3220 C3217 1.384 . S
N3221 C3213 1.427 . S
N3221 C3219 1.384 . S
H3222 C3228 0.930 . S
H3223 C3232 0.930 . S
H3224 C3237 0.929 . S
H3225 C3235 0.929 . S
H3226 C3230 0.929 . S
H3227 C3236 0.929 . S
C3228 H3222 0.930 . S
C3228 C3229 1.367 . S
C3228 C3236 1.378 . S
C3229 C3228 1.367 . S
C3229 C3237 1.433 . S
C3230 H3226 0.929 . S
C3230 C3232 1.378 . S
C3230 C3234 1.350 . S
C3231 C3234 1.463 . S
C3231 C3236 1.350 . S
C3231 N3239 1.427 . S
C3232 H3223 0.930 . S
C3232 C3230 1.378 . S
C3232 C3233 1.367 . S
C3233 C3232 1.367 . S
C3233 C3235 1.433 . S
C3234 C3230 1.350 . S
C3234 C3231 1.463 . S
C3234 N3238 1.427 . S
C3235 H3225 0.929 . S
C3235 C3233 1.433 . S
C3235 N3238 1.384 . S
C3236 H3227 0.929 . S
C3236 C3228 1.378 . S
C3236 C3231 1.350 . S
C3237 H3224 0.929 . S
C3237 C3229 1.433 . S
C3237 N3239 1.384 . S
N3238 C3234 1.427 . S
N3238 C3235 1.384 . S
N3239 C3231 1.427 . S
N3239 C3237 1.384 . S
H3240 C3246 0.930 . S
H3241 C3250 0.930 . S
H3242 C3255 0.929 . S
H3243 C3253 0.929 . S
H3244 C3248 0.929 . S
H3245 C3254 0.929 . S
C3246 H3240 0.930 . S
C3246 C3247 1.367 . S
C3246 C3254 1.378 . S
C3247 C3246 1.367 . S
C3247 C3255 1.433 . S
C3248 H3244 0.929 . S
C3248 C3250 1.378 . S
C3248 C3252 1.350 . S
C3249 C3252 1.463 . S
C3249 C3254 1.350 . S
C3249 N3257 1.427 . S
C3250 H3241 0.930 . S
C3250 C3248 1.378 . S
C3250 C3251 1.367 . S
C3251 C3250 1.367 . S
C3251 C3253 1.433 . S
C3252 C3248 1.350 . S
C3252 C3249 1.463 . S
C3252 N3256 1.427 . S
C3253 H3243 0.929 . S
C3253 C3251 1.433 . S
C3253 N3256 1.384 . S
C3254 H3245 0.929 . S
C3254 C3246 1.378 . S
C3254 C3249 1.350 . S
C3255 H3242 0.929 . S
C3255 C3247 1.433 . S
C3255 N3257 1.384 . S
N3256 C3252 1.427 . S
N3256 C3253 1.384 . S
N3257 C3249 1.427 . S
N3257 C3255 1.384 . S
H3258 C3264 0.930 . S
H3259 C3268 0.930 . S
H3260 C3273 0.929 . S
H3261 C3271 0.929 . S
H3262 C3266 0.929 . S
H3263 C3272 0.929 . S
C3264 H3258 0.930 . S
C3264 C3265 1.367 . S
C3264 C3272 1.378 . S
C3265 C3264 1.367 . S
C3265 C3273 1.433 . S
C3266 H3262 0.929 . S
C3266 C3268 1.378 . S
C3266 C3270 1.350 . S
C3267 C3270 1.463 . S
C3267 C3272 1.350 . S
C3267 N3275 1.427 . S
C3268 H3259 0.930 . S
C3268 C3266 1.378 . S
C3268 C3269 1.367 . S
C3269 C3268 1.367 . S
C3269 C3271 1.433 . S
C3270 C3266 1.350 . S
C3270 C3267 1.463 . S
C3270 N3274 1.427 . S
C3271 H3261 0.929 . S
C3271 C3269 1.433 . S
C3271 N3274 1.384 . S
C3272 H3263 0.929 . S
C3272 C3264 1.378 . S
C3272 C3267 1.350 . S
C3273 H3260 0.929 . S
C3273 C3265 1.433 . S
C3273 N3275 1.384 . S
N3274 C3270 1.427 . S
N3274 C3271 1.384 . S
N3275 C3267 1.427 . S
N3275 C3273 1.384 . S
H3276 C3282 0.930 . S
H3277 C3286 0.930 . S
H3278 C3291 0.929 . S
H3279 C3289 0.929 . S
H3280 C3284 0.929 . S
H3281 C3290 0.929 . S
C3282 H3276 0.930 . S
C3282 C3283 1.367 . S
C3282 C3290 1.378 . S
C3283 C3282 1.367 . S
C3283 C3291 1.433 . S
C3284 H3280 0.929 . S
C3284 C3286 1.378 . S
C3284 C3288 1.350 . S
C3285 C3288 1.463 . S
C3285 C3290 1.350 . S
C3285 N3293 1.427 . S
C3286 H3277 0.930 . S
C3286 C3284 1.378 . S
C3286 C3287 1.367 . S
C3287 C3286 1.367 . S
C3287 C3289 1.433 . S
C3288 C3284 1.350 . S
C3288 C3285 1.463 . S
C3288 N3292 1.427 . S
C3289 H3279 0.929 . S
C3289 C3287 1.433 . S
C3289 N3292 1.384 . S
C3290 H3281 0.929 . S
C3290 C3282 1.378 . S
C3290 C3285 1.350 . S
C3291 H3278 0.929 . S
C3291 C3283 1.433 . S
C3291 N3293 1.384 . S
N3292 C3288 1.427 . S
N3292 C3289 1.384 . S
N3293 C3285 1.427 . S
N3293 C3291 1.384 . S
H3294 C3300 0.930 . S
H3295 C3304 0.930 . S
H3296 C3309 0.929 . S
H3297 C3307 0.929 . S
H3298 C3302 0.929 . S
H3299 C3308 0.929 . S
C3300 H3294 0.930 . S
C3300 C3301 1.367 . S
C3300 C3308 1.378 . S
C3301 C3300 1.367 . S
C3301 C3309 1.433 . S
C3302 H3298 0.929 . S
C3302 C3304 1.378 . S
C3302 C3306 1.350 . S
C3303 C3306 1.463 . S
C3303 C3308 1.350 . S
C3303 N3311 1.427 . S
C3304 H3295 0.930 . S
C3304 C3302 1.378 . S
C3304 C3305 1.367 . S
C3305 C3304 1.367 . S
C3305 C3307 1.433 . S
C3306 C3302 1.350 . S
C3306 C3303 1.463 . S
C3306 N3310 1.427 . S
C3307 H3297 0.929 . S
C3307 C3305 1.433 . S
C3307 N3310 1.384 . S
C3308 H3299 0.929 . S
C3308 C3300 1.378 . S
C3308 C3303 1.350 . S
C3309 H3296 0.929 . S
C3309 C3301 1.433 . S
C3309 N3311 1.384 . S
N3310 C3306 1.427 . S
N3310 C3307 1.384 . S
N3311 C3303 1.427 . S
N3311 C3309 1.384 . S
H3312 C3318 0.930 . S
H3313 C3322 0.930 . S
H3314 C3327 0.929 . S
H3315 C3325 0.929 . S
H3316 C3320 0.929 . S
H3317 C3326 0.929 . S
C3318 H3312 0.930 . S
C3318 C3319 1.367 . S
C3318 C3326 1.378 . S
C3319 C3318 1.367 . S
C3319 C3327 1.433 . S
C3320 H3316 0.929 . S
C3320 C3322 1.378 . S
C3320 C3324 1.350 . S
C3321 C3324 1.463 . S
C3321 C3326 1.350 . S
C3321 N3329 1.427 . S
C3322 H3313 0.930 . S
C3322 C3320 1.378 . S
C3322 C3323 1.367 . S
C3323 C3322 1.367 . S
C3323 C3325 1.433 . S
C3324 C3320 1.350 . S
C3324 C3321 1.463 . S
C3324 N3328 1.427 . S
C3325 H3315 0.929 . S
C3325 C3323 1.433 . S
C3325 N3328 1.384 . S
C3326 H3317 0.929 . S
C3326 C3318 1.378 . S
C3326 C3321 1.350 . S
C3327 H3314 0.929 . S
C3327 C3319 1.433 . S
C3327 N3329 1.384 . S
N3328 C3324 1.427 . S
N3328 C3325 1.384 . S
N3329 C3321 1.427 . S
N3329 C3327 1.384 . S
H3330 C3336 0.930 . S
H3331 C3340 0.930 . S
H3332 C3345 0.929 . S
H3333 C3343 0.929 . S
H3334 C3338 0.929 . S
H3335 C3344 0.929 . S
C3336 H3330 0.930 . S
C3336 C3337 1.367 . S
C3336 C3344 1.378 . S
C3337 C3336 1.367 . S
C3337 C3345 1.433 . S
C3338 H3334 0.929 . S
C3338 C3340 1.378 . S
C3338 C3342 1.350 . S
C3339 C3342 1.463 . S
C3339 C3344 1.350 . S
C3339 N3347 1.427 . S
C3340 H3331 0.930 . S
C3340 C3338 1.378 . S
C3340 C3341 1.367 . S
C3341 C3340 1.367 . S
C3341 C3343 1.433 . S
C3342 C3338 1.350 . S
C3342 C3339 1.463 . S
C3342 N3346 1.427 . S
C3343 H3333 0.929 . S
C3343 C3341 1.433 . S
C3343 N3346 1.384 . S
C3344 H3335 0.929 . S
C3344 C3336 1.378 . S
C3344 C3339 1.350 . S
C3345 H3332 0.929 . S
C3345 C3337 1.433 . S
C3345 N3347 1.384 . S
N3346 C3342 1.427 . S
N3346 C3343 1.384 . S
N3347 C3339 1.427 . S
N3347 C3345 1.384 . S
H3348 C3354 0.930 . S
H3349 C3358 0.930 . S
H3350 C3363 0.929 . S
H3351 C3361 0.929 . S
H3352 C3356 0.929 . S
H3353 C3362 0.929 . S
C3354 H3348 0.930 . S
C3354 C3355 1.367 . S
C3354 C3362 1.378 . S
C3355 C3354 1.367 . S
C3355 C3363 1.433 . S
C3356 H3352 0.929 . S
C3356 C3358 1.378 . S
C3356 C3360 1.350 . S
C3357 C3360 1.463 . S
C3357 C3362 1.350 . S
C3357 N3365 1.427 . S
C3358 H3349 0.930 . S
C3358 C3356 1.378 . S
C3358 C3359 1.367 . S
C3359 C3358 1.367 . S
C3359 C3361 1.433 . S
C3360 C3356 1.350 . S
C3360 C3357 1.463 . S
C3360 N3364 1.427 . S
C3361 H3351 0.929 . S
C3361 C3359 1.433 . S
C3361 N3364 1.384 . S
C3362 H3353 0.929 . S
C3362 C3354 1.378 . S
C3362 C3357 1.350 . S
C3363 H3350 0.929 . S
C3363 C3355 1.433 . S
C3363 N3365 1.384 . S
N3364 C3360 1.427 . S
N3364 C3361 1.384 . S
N3365 C3357 1.427 . S
N3365 C3363 1.384 . S
H3366 C3372 0.930 . S
H3367 C3376 0.930 . S
H3368 C3381 0.929 . S
H3369 C3379 0.929 . S
H3370 C3374 0.929 . S
H3371 C3380 0.929 . S
C3372 H3366 0.930 . S
C3372 C3373 1.367 . S
C3372 C3380 1.378 . S
C3373 C3372 1.367 . S
C3373 C3381 1.433 . S
C3374 H3370 0.929 . S
C3374 C3376 1.378 . S
C3374 C3378 1.350 . S
C3375 C3378 1.463 . S
C3375 C3380 1.350 . S
C3375 N3383 1.427 . S
C3376 H3367 0.930 . S
C3376 C3374 1.378 . S
C3376 C3377 1.367 . S
C3377 C3376 1.367 . S
C3377 C3379 1.433 . S
C3378 C3374 1.350 . S
C3378 C3375 1.463 . S
C3378 N3382 1.427 . S
C3379 H3369 0.929 . S
C3379 C3377 1.433 . S
C3379 N3382 1.384 . S
C3380 H3371 0.929 . S
C3380 C3372 1.378 . S
C3380 C3375 1.350 . S
C3381 H3368 0.929 . S
C3381 C3373 1.433 . S
C3381 N3383 1.384 . S
N3382 C3378 1.427 . S
N3382 C3379 1.384 . S
N3383 C3375 1.427 . S
N3383 C3381 1.384 . S
H3384 C3390 0.930 . S
H3385 C3394 0.930 . S
H3386 C3399 0.929 . S
H3387 C3397 0.929 . S
H3388 C3392 0.929 . S
H3389 C3398 0.929 . S
C3390 H3384 0.930 . S
C3390 C3391 1.367 . S
C3390 C3398 1.378 . S
C3391 C3390 1.367 . S
C3391 C3399 1.433 . S
C3392 H3388 0.929 . S
C3392 C3394 1.378 . S
C3392 C3396 1.350 . S
C3393 C3396 1.463 . S
C3393 C3398 1.350 . S
C3393 N3401 1.427 . S
C3394 H3385 0.930 . S
C3394 C3392 1.378 . S
C3394 C3395 1.367 . S
C3395 C3394 1.367 . S
C3395 C3397 1.433 . S
C3396 C3392 1.350 . S
C3396 C3393 1.463 . S
C3396 N3400 1.427 . S
C3397 H3387 0.929 . S
C3397 C3395 1.433 . S
C3397 N3400 1.384 . S
C3398 H3389 0.929 . S
C3398 C3390 1.378 . S
C3398 C3393 1.350 . S
C3399 H3386 0.929 . S
C3399 C3391 1.433 . S
C3399 N3401 1.384 . S
N3400 C3396 1.427 . S
N3400 C3397 1.384 . S
N3401 C3393 1.427 . S
N3401 C3399 1.384 . S
H3402 C3408 0.930 . S
H3403 C3412 0.930 . S
H3404 C3417 0.929 . S
H3405 C3415 0.929 . S
H3406 C3410 0.929 . S
H3407 C3416 0.929 . S
C3408 H3402 0.930 . S
C3408 C3409 1.367 . S
C3408 C3416 1.378 . S
C3409 C3408 1.367 . S
C3409 C3417 1.433 . S
C3410 H3406 0.929 . S
C3410 C3412 1.378 . S
C3410 C3414 1.350 . S
C3411 C3414 1.463 . S
C3411 C3416 1.350 . S
C3411 N3419 1.427 . S
C3412 H3403 0.930 . S
C3412 C3410 1.378 . S
C3412 C3413 1.367 . S
C3413 C3412 1.367 . S
C3413 C3415 1.433 . S
C3414 C3410 1.350 . S
C3414 C3411 1.463 . S
C3414 N3418 1.427 . S
C3415 H3405 0.929 . S
C3415 C3413 1.433 . S
C3415 N3418 1.384 . S
C3416 H3407 0.929 . S
C3416 C3408 1.378 . S
C3416 C3411 1.350 . S
C3417 H3404 0.929 . S
C3417 C3409 1.433 . S
C3417 N3419 1.384 . S
N3418 C3414 1.427 . S
N3418 C3415 1.384 . S
N3419 C3411 1.427 . S
N3419 C3417 1.384 . S
H3420 C3426 0.930 . S
H3421 C3430 0.930 . S
H3422 C3435 0.929 . S
H3423 C3433 0.929 . S
H3424 C3428 0.929 . S
H3425 C3434 0.929 . S
C3426 H3420 0.930 . S
C3426 C3427 1.367 . S
C3426 C3434 1.378 . S
C3427 C3426 1.367 . S
C3427 C3435 1.433 . S
C3428 H3424 0.929 . S
C3428 C3430 1.378 . S
C3428 C3432 1.350 . S
C3429 C3432 1.463 1_455 S
C3429 C3434 1.350 . S
C3429 N3437 1.427 . S
C3430 H3421 0.930 . S
C3430 C3428 1.378 . S
C3430 C3431 1.367 . S
C3431 C3430 1.367 . S
C3431 C3433 1.433 . S
C3432 C3428 1.350 . S
C3432 C3429 1.463 1_655 S
C3432 N3436 1.427 . S
C3433 H3423 0.929 . S
C3433 C3431 1.433 . S
C3433 N3436 1.384 . S
C3434 H3425 0.929 . S
C3434 C3426 1.378 . S
C3434 C3429 1.350 . S
C3435 H3422 0.929 . S
C3435 C3427 1.433 . S
C3435 N3437 1.384 . S
N3436 C3432 1.427 . S
N3436 C3433 1.384 . S
N3437 C3429 1.427 . S
N3437 C3435 1.384 . S
H3438 C3444 0.930 . S
H3439 C3448 0.930 . S
H3440 C3453 0.929 . S
H3441 C3451 0.929 . S
H3442 C3446 0.929 . S
H3443 C3452 0.929 . S
C3444 H3438 0.930 . S
C3444 C3445 1.367 . S
C3444 C3452 1.378 . S
C3445 C3444 1.367 . S
C3445 C3453 1.433 . S
C3446 H3442 0.929 . S
C3446 C3448 1.378 . S
C3446 C3450 1.350 . S
C3447 C3450 1.463 . S
C3447 C3452 1.350 . S
C3447 N3455 1.427 . S
C3448 H3439 0.930 . S
C3448 C3446 1.378 . S
C3448 C3449 1.367 . S
C3449 C3448 1.367 . S
C3449 C3451 1.433 . S
C3450 C3446 1.350 . S
C3450 C3447 1.463 . S
C3450 N3454 1.427 . S
C3451 H3441 0.929 . S
C3451 C3449 1.433 . S
C3451 N3454 1.384 . S
C3452 H3443 0.929 . S
C3452 C3444 1.378 . S
C3452 C3447 1.350 . S
C3453 H3440 0.929 . S
C3453 C3445 1.433 . S
C3453 N3455 1.384 . S
N3454 C3450 1.427 . S
N3454 C3451 1.384 . S
N3455 C3447 1.427 . S
N3455 C3453 1.384 . S
H3456 C3462 0.930 . S
H3457 C3466 0.930 . S
H3458 C3471 0.929 . S
H3459 C3469 0.929 . S
H3460 C3464 0.929 . S
H3461 C3470 0.929 . S
C3462 H3456 0.930 . S
C3462 C3463 1.367 . S
C3462 C3470 1.378 . S
C3463 C3462 1.367 . S
C3463 C3471 1.433 . S
C3464 H3460 0.929 . S
C3464 C3466 1.378 . S
C3464 C3468 1.350 . S
C3465 C3468 1.463 1_545 S
C3465 C3470 1.350 . S
C3465 N3473 1.427 . S
C3466 H3457 0.930 . S
C3466 C3464 1.378 . S
C3466 C3467 1.367 . S
C3467 C3466 1.367 . S
C3467 C3469 1.433 . S
C3468 C3464 1.350 . S
C3468 C3465 1.463 1_565 S
C3468 N3472 1.427 . S
C3469 H3459 0.929 . S
C3469 C3467 1.433 . S
C3469 N3472 1.384 . S
C3470 H3461 0.929 . S
C3470 C3462 1.378 . S
C3470 C3465 1.350 . S
C3471 H3458 0.929 . S
C3471 C3463 1.433 . S
C3471 N3473 1.384 . S
N3472 C3468 1.427 . S
N3472 C3469 1.384 . S
N3473 C3465 1.427 . S
N3473 C3471 1.384 . S
H3474 C3480 0.930 . S
H3475 C3484 0.930 . S
H3476 C3489 0.929 . S
H3477 C3487 0.929 . S
H3478 C3482 0.929 1_565 S
H3479 C3488 0.929 1_545 S
C3480 H3474 0.930 . S
C3480 C3481 1.367 . S
C3480 C3488 1.378 . S
C3481 C3480 1.367 . S
C3481 C3489 1.433 . S
C3482 H3478 0.929 1_545 S
C3482 C3484 1.378 . S
C3482 C3486 1.350 . S
C3483 C3486 1.463 1_565 S
C3483 C3488 1.350 . S
C3483 N3491 1.427 . S
C3484 H3475 0.930 . S
C3484 C3482 1.378 . S
C3484 C3485 1.367 . S
C3485 C3484 1.367 . S
C3485 C3487 1.433 . S
C3486 C3482 1.350 . S
C3486 C3483 1.463 1_545 S
C3486 N3490 1.427 . S
C3487 H3477 0.929 . S
C3487 C3485 1.433 . S
C3487 N3490 1.384 . S
C3488 H3479 0.929 1_565 S
C3488 C3480 1.378 . S
C3488 C3483 1.350 . S
C3489 H3476 0.929 . S
C3489 C3481 1.433 . S
C3489 N3491 1.384 . S
N3490 C3486 1.427 . S
N3490 C3487 1.384 . S
N3491 C3483 1.427 . S
N3491 C3489 1.384 . S
H3492 C3498 0.930 . S
H3493 C3502 0.930 . S
H3494 C3507 0.929 . S
H3495 C3505 0.929 . S
H3496 C3500 0.929 . S
H3497 C3506 0.929 . S
C3498 H3492 0.930 . S
C3498 C3499 1.367 . S
C3498 C3506 1.378 . S
C3499 C3498 1.367 . S
C3499 C3507 1.433 . S
C3500 H3496 0.929 . S
C3500 C3502 1.378 . S
C3500 C3504 1.350 . S
C3501 C3504 1.463 1_655 S
C3501 C3506 1.350 . S
C3501 N3509 1.427 . S
C3502 H3493 0.930 . S
C3502 C3500 1.378 . S
C3502 C3503 1.367 . S
C3503 C3502 1.367 . S
C3503 C3505 1.433 . S
C3504 C3500 1.350 . S
C3504 C3501 1.463 1_455 S
C3504 N3508 1.427 . S
C3505 H3495 0.929 . S
C3505 C3503 1.433 . S
C3505 N3508 1.384 . S
C3506 H3497 0.929 . S
C3506 C3498 1.378 . S
C3506 C3501 1.350 . S
C3507 H3494 0.929 . S
C3507 C3499 1.433 . S
C3507 N3509 1.384 . S
N3508 C3504 1.427 . S
N3508 C3505 1.384 . S
N3509 C3501 1.427 . S
N3509 C3507 1.384 . S
H3510 C3516 0.930 . S
H3511 C3520 0.930 . S
H3512 C3525 0.929 . S
H3513 C3523 0.929 . S
H3514 C3518 0.929 . S
H3515 C3524 0.929 . S
C3516 H3510 0.930 . S
C3516 C3517 1.367 . S
C3516 C3524 1.378 . S
C3517 C3516 1.367 . S
C3517 C3525 1.433 . S
C3518 H3514 0.929 . S
C3518 C3520 1.378 . S
C3518 C3522 1.350 . S
C3519 C3522 1.463 . S
C3519 C3524 1.350 . S
C3519 N3527 1.427 . S
C3520 H3511 0.930 . S
C3520 C3518 1.378 . S
C3520 C3521 1.367 . S
C3521 C3520 1.367 . S
C3521 C3523 1.433 . S
C3522 C3518 1.350 . S
C3522 C3519 1.463 . S
C3522 N3526 1.427 . S
C3523 H3513 0.929 . S
C3523 C3521 1.433 . S
C3523 N3526 1.384 . S
C3524 H3515 0.929 . S
C3524 C3516 1.378 . S
C3524 C3519 1.350 . S
C3525 H3512 0.929 . S
C3525 C3517 1.433 . S
C3525 N3527 1.384 . S
N3526 C3522 1.427 . S
N3526 C3523 1.384 . S
N3527 C3519 1.427 . S
N3527 C3525 1.384 . S
H3528 C3534 0.930 . S
H3529 C3538 0.930 . S
H3530 C3543 0.929 . S
H3531 C3541 0.929 . S
H3532 C3536 0.929 . S
H3533 C3542 0.929 1_556 S
C3534 H3528 0.930 . S
C3534 C3535 1.367 . S
C3534 C3542 1.378 1_545 S
C3535 C3534 1.367 . S
C3535 C3543 1.433 . S
C3536 H3532 0.929 . S
C3536 C3538 1.378 . S
C3536 C3540 1.350 . S
C3537 C3540 1.463 . S
C3537 C3542 1.350 . S
C3537 N3545 1.427 . S
C3538 H3529 0.930 . S
C3538 C3536 1.378 . S
C3538 C3539 1.367 . S
C3539 C3538 1.367 . S
C3539 C3541 1.433 1_554 S
C3540 C3536 1.350 . S
C3540 C3537 1.463 . S
C3540 N3544 1.427 1_554 S
C3541 H3531 0.929 . S
C3541 C3539 1.433 1_556 S
C3541 N3544 1.384 . S
C3542 H3533 0.929 1_554 S
C3542 C3534 1.378 1_565 S
C3542 C3537 1.350 . S
C3543 H3530 0.929 . S
C3543 C3535 1.433 . S
C3543 N3545 1.384 1_545 S
N3544 C3540 1.427 1_556 S
N3544 C3541 1.384 . S
N3545 C3537 1.427 . S
N3545 C3543 1.384 1_565 S
H3546 C3552 0.930 . S
H3547 C3556 0.930 . S
H3548 C3561 0.929 . S
H3549 C3559 0.929 . S
H3550 C3554 0.929 . S
H3551 C3560 0.929 . S
C3552 H3546 0.930 . S
C3552 C3553 1.365 1_556 S
C3552 C3560 1.378 1_556 S
C3553 C3552 1.365 1_554 S
C3553 C3561 1.441 . S
C3554 H3550 0.929 . S
C3554 C3556 1.378 1_455 S
C3554 C3558 1.350 . S
C3555 C3558 1.463 . S
C3555 C3560 1.350 . S
C3555 N3563 1.427 . S
C3556 H3547 0.930 . S
C3556 C3554 1.378 1_655 S
C3556 C3557 1.367 . S
C3557 C3556 1.367 . S
C3557 C3559 1.433 . S
C3558 C3554 1.350 . S
C3558 C3555 1.463 . S
C3558 N3562 1.427 . S
C3559 H3549 0.929 . S
C3559 C3557 1.433 . S
C3559 N3562 1.384 1_655 S
C3560 H3551 0.929 . S
C3560 C3552 1.378 1_554 S
C3560 C3555 1.350 . S
C3561 H3548 0.929 . S
C3561 C3553 1.441 . S
C3561 N3563 1.384 . S
N3562 C3558 1.427 . S
N3562 C3559 1.384 1_455 S
N3563 C3555 1.427 . S
N3563 C3561 1.384 . S
H3564 C3570 0.930 . S
H3565 C3574 0.930 1_556 S
H3566 C3579 0.929 . S
H3567 C3577 0.929 . S
H3568 C3572 0.929 . S
H3569 C3578 0.929 . S
C3570 H3564 0.930 . S
C3570 C3571 1.367 . S
C3570 C3578 1.378 . S
C3571 C3570 1.367 . S
C3571 C3579 1.433 1_554 S
C3572 H3568 0.929 . S
C3572 C3574 1.378 1_556 S
C3572 C3576 1.350 1_556 S
C3573 C3576 1.463 . S
C3573 C3578 1.350 . S
C3573 N3581 1.427 1_554 S
C3574 H3565 0.930 1_554 S
C3574 C3572 1.378 1_554 S
C3574 C3575 1.367 . S
C3575 C3574 1.367 . S
C3575 C3577 1.433 . S
C3576 C3572 1.350 1_554 S
C3576 C3573 1.463 . S
C3576 N3580 1.427 . S
C3577 H3567 0.929 . S
C3577 C3575 1.433 . S
C3577 N3580 1.384 . S
C3578 H3569 0.929 . S
C3578 C3570 1.378 . S
C3578 C3573 1.350 . S
C3579 H3566 0.929 . S
C3579 C3571 1.433 1_556 S
C3579 N3581 1.384 . S
N3580 C3576 1.427 . S
N3580 C3577 1.384 . S
N3581 C3573 1.427 1_556 S
N3581 C3579 1.384 . S
H3582 C3588 0.930 . S
H3583 C3592 0.930 . S
H3584 C3597 0.929 . S
H3585 C3595 0.929 . S
H3586 C3590 0.929 . S
H3587 C3596 0.929 . S
C3588 H3582 0.930 . S
C3588 C3589 1.367 . S
C3588 C3596 1.378 1_455 S
C3589 C3588 1.367 . S
C3589 C3597 1.433 . S
C3590 H3586 0.929 . S
C3590 C3592 1.378 . S
C3590 C3594 1.350 . S
C3591 C3594 1.463 . S
C3591 C3596 1.350 . S
C3591 N3599 1.427 . S
C3592 H3583 0.930 . S
C3592 C3590 1.378 . S
C3592 C3593 1.367 . S
C3593 C3592 1.367 . S
C3593 C3595 1.433 . S
C3594 C3590 1.350 . S
C3594 C3591 1.463 . S
C3594 N3598 1.427 . S
C3595 H3585 0.929 . S
C3595 C3593 1.433 . S
C3595 N3598 1.384 . S
C3596 H3587 0.929 . S
C3596 C3588 1.378 1_655 S
C3596 C3591 1.350 . S
C3597 H3584 0.929 . S
C3597 C3589 1.433 . S
C3597 N3599 1.384 1_455 S
N3598 C3594 1.427 . S
N3598 C3595 1.384 . S
N3599 C3591 1.427 . S
N3599 C3597 1.384 1_655 S
H3600 C3606 0.930 . S
H3601 C3610 0.930 . S
H3602 C3615 0.929 . S
H3603 C3613 0.929 . S
H3604 C3608 0.929 . S
H3605 C3614 0.929 . S
C3606 H3600 0.930 . S
C3606 C3607 1.367 . S
C3606 C3614 1.378 . S
C3607 C3606 1.367 . S
C3607 C3615 1.433 . S
C3608 H3604 0.929 . S
C3608 C3610 1.378 . S
C3608 C3612 1.350 . S
C3609 C3612 1.463 . S
C3609 C3614 1.350 . S
C3609 N3617 1.427 . S
C3610 H3601 0.930 . S
C3610 C3608 1.378 . S
C3610 C3611 1.367 . S
C3611 C3610 1.367 . S
C3611 C3613 1.433 . S
C3612 C3608 1.350 . S
C3612 C3609 1.463 . S
C3612 N3616 1.427 . S
C3613 H3603 0.929 . S
C3613 C3611 1.433 . S
C3613 N3616 1.384 . S
C3614 H3605 0.929 . S
C3614 C3606 1.378 . S
C3614 C3609 1.350 . S
C3615 H3602 0.929 . S
C3615 C3607 1.433 . S
C3615 N3617 1.384 . S
N3616 C3612 1.427 . S
N3616 C3613 1.384 . S
N3617 C3609 1.427 . S
N3617 C3615 1.384 . S
H3618 C3624 0.930 . S
H3619 C3628 0.930 . S
H3620 C3633 0.929 . S
H3621 C3631 0.929 . S
H3622 C3626 0.929 . S
H3623 C3632 0.929 . S
C3624 H3618 0.930 . S
C3624 C3625 1.367 . S
C3624 C3632 1.378 . S
C3625 C3624 1.367 . S
C3625 C3633 1.433 . S
C3626 H3622 0.929 . S
C3626 C3628 1.378 1_545 S
C3626 C3630 1.350 . S
C3627 C3630 1.463 . S
C3627 C3632 1.350 . S
C3627 N3635 1.427 . S
C3628 H3619 0.930 . S
C3628 C3626 1.378 1_565 S
C3628 C3629 1.367 . S
C3629 C3628 1.367 . S
C3629 C3631 1.433 . S
C3630 C3626 1.350 . S
C3630 C3627 1.463 . S
C3630 N3634 1.427 . S
C3631 H3621 0.929 . S
C3631 C3629 1.433 . S
C3631 N3634 1.384 1_565 S
C3632 H3623 0.929 . S
C3632 C3624 1.378 . S
C3632 C3627 1.350 . S
C3633 H3620 0.929 . S
C3633 C3625 1.433 . S
C3633 N3635 1.384 . S
N3634 C3630 1.427 . S
N3634 C3631 1.384 1_545 S
N3635 C3627 1.427 . S
N3635 C3633 1.384 . S
H3636 C3642 0.930 1_554 S
H3637 C3646 0.930 . S
H3638 C3651 0.929 . S
H3639 C3649 0.929 . S
H3640 C3644 0.929 . S
H3641 C3650 0.932 . S
C3642 H3636 0.930 1_556 S
C3642 C3643 1.367 . S
C3642 C3650 1.377 1_566 S
C3643 C3642 1.367 . S
C3643 C3651 1.433 . S
C3644 H3640 0.929 . S
C3644 C3646 1.378 . S
C3644 C3648 1.350 . S
C3645 C3648 1.463 . S
C3645 C3650 1.347 1_556 S
C3645 N3653 1.427 . S
C3646 H3637 0.930 . S
C3646 C3644 1.378 . S
C3646 C3647 1.367 . S
C3647 C3646 1.367 . S
C3647 C3649 1.433 1_556 S
C3648 C3644 1.350 . S
C3648 C3645 1.463 . S
C3648 N3652 1.427 1_556 S
C3649 H3639 0.929 . S
C3649 C3647 1.433 1_554 S
C3649 N3652 1.384 . S
C3650 H3641 0.932 . S
C3650 C3642 1.377 1_544 S
C3650 C3645 1.347 1_554 S
C3651 H3638 0.929 . S
C3651 C3643 1.433 . S
C3651 N3653 1.384 1_565 S
N3652 C3648 1.427 1_554 S
N3652 C3649 1.384 . S
N3653 C3645 1.427 . S
N3653 C3651 1.384 1_545 S
H3654 C3660 0.930 . S
H3655 C3664 0.930 . S
H3656 C3669 0.929 . S
H3657 C3667 0.929 . S
H3658 C3662 0.929 . S
H3659 C3668 0.929 . S
C3660 H3654 0.930 . S
C3660 C3661 1.360 1_554 S
C3660 C3668 1.378 . S
C3661 C3660 1.360 1_556 S
C3661 C3669 1.444 . S
C3662 H3658 0.929 . S
C3662 C3664 1.378 1_655 S
C3662 C3666 1.350 . S
C3663 C3666 1.463 . S
C3663 C3668 1.350 1_556 S
C3663 N3671 1.427 . S
C3664 H3655 0.930 . S
C3664 C3662 1.378 1_455 S
C3664 C3665 1.367 . S
C3665 C3664 1.367 . S
C3665 C3667 1.433 . S
C3666 C3662 1.350 . S
C3666 C3663 1.463 . S
C3666 N3670 1.427 . S
C3667 H3657 0.929 . S
C3667 C3665 1.433 . S
C3667 N3670 1.384 1_455 S
C3668 H3659 0.929 . S
C3668 C3660 1.378 . S
C3668 C3663 1.350 1_554 S
C3669 H3656 0.929 . S
C3669 C3661 1.444 . S
C3669 N3671 1.384 . S
N3670 C3666 1.427 . S
N3670 C3667 1.384 1_655 S
N3671 C3663 1.427 . S
N3671 C3669 1.384 . S
H3672 C3678 0.930 . S
H3673 C3682 0.930 1_554 S
H3674 C3687 0.929 . S
H3675 C3685 0.929 . S
H3676 C3680 0.929 . S
H3677 C3686 0.929 . S
C3678 H3672 0.930 . S
C3678 C3679 1.367 . S
C3678 C3686 1.378 . S
C3679 C3678 1.367 . S
C3679 C3687 1.433 1_556 S
C3680 H3676 0.929 . S
C3680 C3682 1.378 1_554 S
C3680 C3684 1.350 1_554 S
C3681 C3684 1.463 . S
C3681 C3686 1.350 . S
C3681 N3689 1.427 1_556 S
C3682 H3673 0.930 1_556 S
C3682 C3680 1.378 1_556 S
C3682 C3683 1.367 . S
C3683 C3682 1.367 . S
C3683 C3685 1.433 . S
C3684 C3680 1.350 1_556 S
C3684 C3681 1.463 . S
C3684 N3688 1.427 . S
C3685 H3675 0.929 . S
C3685 C3683 1.433 . S
C3685 N3688 1.384 . S
C3686 H3677 0.929 . S
C3686 C3678 1.378 . S
C3686 C3681 1.350 . S
C3687 H3674 0.929 . S
C3687 C3679 1.433 1_554 S
C3687 N3689 1.384 . S
N3688 C3684 1.427 . S
N3688 C3685 1.384 . S
N3689 C3681 1.427 1_554 S
N3689 C3687 1.384 . S
H3690 C3696 0.930 . S
H3691 C3700 0.930 . S
H3692 C3705 0.929 . S
H3693 C3703 0.929 . S
H3694 C3698 0.929 . S
H3695 C3704 0.929 . S
C3696 H3690 0.930 . S
C3696 C3697 1.367 . S
C3696 C3704 1.378 . S
C3697 C3696 1.367 . S
C3697 C3705 1.433 . S
C3698 H3694 0.929 . S
C3698 C3700 1.378 1_455 S
C3698 C3702 1.350 . S
C3699 C3702 1.463 . S
C3699 C3704 1.350 . S
C3699 N3707 1.427 . S
C3700 H3691 0.930 . S
C3700 C3698 1.378 1_655 S
C3700 C3701 1.367 . S
C3701 C3700 1.367 . S
C3701 C3703 1.433 . S
C3702 C3698 1.350 . S
C3702 C3699 1.463 . S
C3702 N3706 1.427 . S
C3703 H3693 0.929 . S
C3703 C3701 1.433 . S
C3703 N3706 1.384 1_655 S
C3704 H3695 0.929 . S
C3704 C3696 1.378 . S
C3704 C3699 1.350 . S
C3705 H3692 0.929 . S
C3705 C3697 1.433 . S
C3705 N3707 1.384 . S
N3706 C3702 1.427 . S
N3706 C3703 1.384 1_455 S
N3707 C3699 1.427 . S
N3707 C3705 1.384 . S
H3708 C3714 0.930 . S
H3709 C3718 0.930 . S
H3710 C3723 0.929 . S
H3711 C3721 0.929 . S
H3712 C3716 0.929 . S
H3713 C3722 0.929 . S
C3714 H3708 0.930 . S
C3714 C3715 1.367 . S
C3714 C3722 1.378 . S
C3715 C3714 1.367 . S
C3715 C3723 1.433 . S
C3716 H3712 0.929 . S
C3716 C3718 1.378 . S
C3716 C3720 1.350 . S
C3717 C3720 1.463 . S
C3717 C3722 1.350 . S
C3717 N3725 1.427 . S
C3718 H3709 0.930 . S
C3718 C3716 1.378 . S
C3718 C3719 1.367 . S
C3719 C3718 1.367 . S
C3719 C3721 1.433 . S
C3720 C3716 1.350 . S
C3720 C3717 1.463 . S
C3720 N3724 1.427 . S
C3721 H3711 0.929 . S
C3721 C3719 1.433 . S
C3721 N3724 1.384 . S
C3722 H3713 0.929 . S
C3722 C3714 1.378 . S
C3722 C3717 1.350 . S
C3723 H3710 0.929 . S
C3723 C3715 1.433 . S
C3723 N3725 1.384 . S
N3724 C3720 1.427 . S
N3724 C3721 1.384 . S
N3725 C3717 1.427 . S
N3725 C3723 1.384 . S
H3726 C3732 0.930 . S
H3727 C3736 0.930 . S
H3728 C3741 0.929 . S
H3729 C3739 0.929 . S
H3730 C3734 0.929 . S
H3731 C3740 0.929 . S
C3732 H3726 0.930 . S
C3732 C3733 1.367 . S
C3732 C3740 1.378 1_545 S
C3733 C3732 1.367 . S
C3733 C3741 1.433 . S
C3734 H3730 0.929 . S
C3734 C3736 1.378 . S
C3734 C3738 1.350 . S
C3735 C3738 1.463 . S
C3735 C3740 1.350 . S
C3735 N3743 1.427 . S
C3736 H3727 0.930 . S
C3736 C3734 1.378 . S
C3736 C3737 1.367 . S
C3737 C3736 1.367 . S
C3737 C3739 1.433 . S
C3738 C3734 1.350 . S
C3738 C3735 1.463 . S
C3738 N3742 1.427 . S
C3739 H3729 0.929 . S
C3739 C3737 1.433 . S
C3739 N3742 1.384 . S
C3740 H3731 0.929 . S
C3740 C3732 1.378 1_565 S
C3740 C3735 1.350 . S
C3741 H3728 0.929 . S
C3741 C3733 1.433 . S
C3741 N3743 1.384 1_545 S
N3742 C3738 1.427 . S
N3742 C3739 1.384 . S
N3743 C3735 1.427 . S
N3743 C3741 1.384 1_565 S
H3744 C3750 0.930 . S
H3745 C3754 0.930 . S
H3746 C3759 0.929 . S
H3747 C3757 0.929 . S
H3748 C3752 0.929 . S
H3749 C3758 0.929 . S
C3750 H3744 0.930 . S
C3750 C3751 1.367 . S
C3750 C3758 1.378 . S
C3751 C3750 1.367 . S
C3751 C3759 1.433 . S
C3752 H3748 0.929 . S
C3752 C3754 1.378 . S
C3752 C3756 1.350 . S
C3753 C3756 1.463 . S
C3753 C3758 1.350 . S
C3753 N3761 1.427 . S
C3754 H3745 0.930 . S
C3754 C3752 1.378 . S
C3754 C3755 1.367 . S
C3755 C3754 1.367 . S
C3755 C3757 1.433 . S
C3756 C3752 1.350 . S
C3756 C3753 1.463 . S
C3756 N3760 1.427 . S
C3757 H3747 0.929 . S
C3757 C3755 1.433 . S
C3757 N3760 1.384 . S
C3758 H3749 0.929 . S
C3758 C3750 1.378 . S
C3758 C3753 1.350 . S
C3759 H3746 0.929 . S
C3759 C3751 1.433 . S
C3759 N3761 1.384 . S
N3760 C3756 1.427 . S
N3760 C3757 1.384 . S
N3761 C3753 1.427 . S
N3761 C3759 1.384 . S
H3762 C3768 0.930 . S
H3763 C3772 0.930 . S
H3764 C3777 0.929 . S
H3765 C3775 0.929 . S
H3766 C3770 0.929 . S
H3767 C3776 0.929 . S
C3768 H3762 0.930 . S
C3768 C3769 1.367 . S
C3768 C3776 1.378 . S
C3769 C3768 1.367 . S
C3769 C3777 1.433 . S
C3770 H3766 0.929 . S
C3770 C3772 1.378 . S
C3770 C3774 1.350 . S
C3771 C3774 1.463 . S
C3771 C3776 1.350 . S
C3771 N3779 1.427 . S
C3772 H3763 0.930 . S
C3772 C3770 1.378 . S
C3772 C3773 1.367 . S
C3773 C3772 1.367 . S
C3773 C3775 1.433 . S
C3774 C3770 1.350 . S
C3774 C3771 1.463 . S
C3774 N3778 1.427 . S
C3775 H3765 0.929 . S
C3775 C3773 1.433 . S
C3775 N3778 1.384 . S
C3776 H3767 0.929 . S
C3776 C3768 1.378 . S
C3776 C3771 1.350 . S
C3777 H3764 0.929 . S
C3777 C3769 1.433 . S
C3777 N3779 1.384 . S
N3778 C3774 1.427 . S
N3778 C3775 1.384 . S
N3779 C3771 1.427 . S
N3779 C3777 1.384 . S
H3780 C3786 0.930 . S
H3781 C3790 0.930 . S
H3782 C3795 0.929 . S
H3783 C3793 0.929 . S
H3784 C3788 0.929 . S
H3785 C3794 0.929 . S
C3786 H3780 0.930 . S
C3786 C3787 1.367 . S
C3786 C3794 1.378 . S
C3787 C3786 1.367 . S
C3787 C3795 1.433 . S
C3788 H3784 0.929 . S
C3788 C3790 1.378 . S
C3788 C3792 1.350 . S
C3789 C3792 1.463 . S
C3789 C3794 1.350 . S
C3789 N3797 1.427 . S
C3790 H3781 0.930 . S
C3790 C3788 1.378 . S
C3790 C3791 1.367 . S
C3791 C3790 1.367 . S
C3791 C3793 1.433 . S
C3792 C3788 1.350 . S
C3792 C3789 1.463 . S
C3792 N3796 1.427 . S
C3793 H3783 0.929 . S
C3793 C3791 1.433 . S
C3793 N3796 1.384 . S
C3794 H3785 0.929 . S
C3794 C3786 1.378 . S
C3794 C3789 1.350 . S
C3795 H3782 0.929 . S
C3795 C3787 1.433 . S
C3795 N3797 1.384 . S
N3796 C3792 1.427 . S
N3796 C3793 1.384 . S
N3797 C3789 1.427 . S
N3797 C3795 1.384 . S
H3798 C3804 0.930 . S
H3799 C3808 0.930 . S
H3800 C3813 0.929 . S
H3801 C3811 0.929 . S
H3802 C3806 0.929 . S
H3803 C3812 0.929 . S
C3804 H3798 0.930 . S
C3804 C3805 1.367 . S
C3804 C3812 1.378 . S
C3805 C3804 1.367 . S
C3805 C3813 1.433 . S
C3806 H3802 0.929 . S
C3806 C3808 1.378 . S
C3806 C3810 1.350 . S
C3807 C3810 1.463 . S
C3807 C3812 1.350 . S
C3807 N3815 1.427 . S
C3808 H3799 0.930 . S
C3808 C3806 1.378 . S
C3808 C3809 1.367 . S
C3809 C3808 1.367 . S
C3809 C3811 1.433 . S
C3810 C3806 1.350 . S
C3810 C3807 1.463 . S
C3810 N3814 1.427 . S
C3811 H3801 0.929 . S
C3811 C3809 1.433 . S
C3811 N3814 1.384 . S
C3812 H3803 0.929 . S
C3812 C3804 1.378 . S
C3812 C3807 1.350 . S
C3813 H3800 0.929 . S
C3813 C3805 1.433 . S
C3813 N3815 1.384 . S
N3814 C3810 1.427 . S
N3814 C3811 1.384 . S
N3815 C3807 1.427 . S
N3815 C3813 1.384 . S
H3816 C3822 0.930 . S
H3817 C3826 0.930 . S
H3818 C3831 0.929 . S
H3819 C3829 0.929 . S
H3820 C3824 0.929 . S
H3821 C3830 0.929 . S
C3822 H3816 0.930 . S
C3822 C3823 1.367 . S
C3822 C3830 1.378 . S
C3823 C3822 1.367 . S
C3823 C3831 1.433 . S
C3824 H3820 0.929 . S
C3824 C3826 1.378 . S
C3824 C3828 1.350 . S
C3825 C3828 1.463 . S
C3825 C3830 1.350 . S
C3825 N3833 1.427 . S
C3826 H3817 0.930 . S
C3826 C3824 1.378 . S
C3826 C3827 1.367 . S
C3827 C3826 1.367 . S
C3827 C3829 1.433 . S
C3828 C3824 1.350 . S
C3828 C3825 1.463 . S
C3828 N3832 1.427 . S
C3829 H3819 0.929 . S
C3829 C3827 1.433 . S
C3829 N3832 1.384 . S
C3830 H3821 0.929 . S
C3830 C3822 1.378 . S
C3830 C3825 1.350 . S
C3831 H3818 0.929 . S
C3831 C3823 1.433 . S
C3831 N3833 1.384 . S
N3832 C3828 1.427 . S
N3832 C3829 1.384 . S
N3833 C3825 1.427 . S
N3833 C3831 1.384 . S
H3834 C3840 0.930 . S
H3835 C3844 0.930 . S
H3836 C3849 0.929 . S
H3837 C3847 0.929 . S
H3838 C3842 0.929 . S
H3839 C3848 0.929 . S
C3840 H3834 0.930 . S
C3840 C3841 1.367 . S
C3840 C3848 1.378 . S
C3841 C3840 1.367 . S
C3841 C3849 1.433 . S
C3842 H3838 0.929 . S
C3842 C3844 1.378 . S
C3842 C3846 1.350 . S
C3843 C3846 1.463 . S
C3843 C3848 1.350 . S
C3843 N3851 1.427 . S
C3844 H3835 0.930 . S
C3844 C3842 1.378 . S
C3844 C3845 1.367 . S
C3845 C3844 1.367 . S
C3845 C3847 1.433 . S
C3846 C3842 1.350 . S
C3846 C3843 1.463 . S
C3846 N3850 1.427 . S
C3847 H3837 0.929 . S
C3847 C3845 1.433 . S
C3847 N3850 1.384 . S
C3848 H3839 0.929 . S
C3848 C3840 1.378 . S
C3848 C3843 1.350 . S
C3849 H3836 0.929 . S
C3849 C3841 1.433 . S
C3849 N3851 1.384 . S
N3850 C3846 1.427 . S
N3850 C3847 1.384 . S
N3851 C3843 1.427 . S
N3851 C3849 1.384 . S
H3852 C3858 0.930 . S
H3853 C3862 0.930 . S
H3854 C3867 0.929 . S
H3855 C3865 0.929 . S
H3856 C3860 0.929 . S
H3857 C3866 0.929 . S
C3858 H3852 0.930 . S
C3858 C3859 1.367 . S
C3858 C3866 1.378 . S
C3859 C3858 1.367 . S
C3859 C3867 1.433 . S
C3860 H3856 0.929 . S
C3860 C3862 1.378 . S
C3860 C3864 1.350 . S
C3861 C3864 1.463 . S
C3861 C3866 1.350 . S
C3861 N3869 1.427 . S
C3862 H3853 0.930 . S
C3862 C3860 1.378 . S
C3862 C3863 1.367 . S
C3863 C3862 1.367 . S
C3863 C3865 1.433 . S
C3864 C3860 1.350 . S
C3864 C3861 1.463 . S
C3864 N3868 1.427 . S
C3865 H3855 0.929 . S
C3865 C3863 1.433 . S
C3865 N3868 1.384 . S
C3866 H3857 0.929 . S
C3866 C3858 1.378 . S
C3866 C3861 1.350 . S
C3867 H3854 0.929 . S
C3867 C3859 1.433 . S
C3867 N3869 1.384 . S
N3868 C3864 1.427 . S
N3868 C3865 1.384 . S
N3869 C3861 1.427 . S
N3869 C3867 1.384 . S
H3870 C3876 0.930 . S
H3871 C3880 0.930 . S
H3872 C3885 0.929 . S
H3873 C3883 0.929 . S
H3874 C3878 0.929 . S
H3875 C3884 0.929 . S
C3876 H3870 0.930 . S
C3876 C3877 1.367 . S
C3876 C3884 1.378 . S
C3877 C3876 1.367 . S
C3877 C3885 1.433 . S
C3878 H3874 0.929 . S
C3878 C3880 1.378 . S
C3878 C3882 1.350 . S
C3879 C3882 1.463 . S
C3879 C3884 1.350 . S
C3879 N3887 1.427 . S
C3880 H3871 0.930 . S
C3880 C3878 1.378 . S
C3880 C3881 1.367 . S
C3881 C3880 1.367 . S
C3881 C3883 1.433 . S
C3882 C3878 1.350 . S
C3882 C3879 1.463 . S
C3882 N3886 1.427 . S
C3883 H3873 0.929 . S
C3883 C3881 1.433 . S
C3883 N3886 1.384 . S
C3884 H3875 0.929 . S
C3884 C3876 1.378 . S
C3884 C3879 1.350 . S
C3885 H3872 0.929 . S
C3885 C3877 1.433 . S
C3885 N3887 1.384 . S
N3886 C3882 1.427 . S
N3886 C3883 1.384 . S
N3887 C3879 1.427 . S
N3887 C3885 1.384 . S
H3888 C3894 0.930 . S
H3889 C3898 0.930 . S
H3890 C3903 0.929 . S
H3891 C3901 0.929 . S
H3892 C3896 0.929 . S
H3893 C3902 0.929 . S
C3894 H3888 0.930 . S
C3894 C3895 1.367 . S
C3894 C3902 1.378 . S
C3895 C3894 1.367 . S
C3895 C3903 1.433 . S
C3896 H3892 0.929 . S
C3896 C3898 1.378 . S
C3896 C3900 1.350 . S
C3897 C3900 1.463 . S
C3897 C3902 1.350 . S
C3897 N3905 1.427 . S
C3898 H3889 0.930 . S
C3898 C3896 1.378 . S
C3898 C3899 1.367 . S
C3899 C3898 1.367 . S
C3899 C3901 1.433 . S
C3900 C3896 1.350 . S
C3900 C3897 1.463 . S
C3900 N3904 1.427 . S
C3901 H3891 0.929 . S
C3901 C3899 1.433 . S
C3901 N3904 1.384 . S
C3902 H3893 0.929 . S
C3902 C3894 1.378 . S
C3902 C3897 1.350 . S
C3903 H3890 0.929 . S
C3903 C3895 1.433 . S
C3903 N3905 1.384 . S
N3904 C3900 1.427 . S
N3904 C3901 1.384 . S
N3905 C3897 1.427 . S
N3905 C3903 1.384 . S
H3906 C3912 0.930 . S
H3907 C3916 0.930 . S
H3908 C3921 0.929 . S
H3909 C3919 0.929 . S
H3910 C3914 0.929 . S
H3911 C3920 0.929 . S
C3912 H3906 0.930 . S
C3912 C3913 1.367 . S
C3912 C3920 1.378 . S
C3913 C3912 1.367 . S
C3913 C3921 1.433 . S
C3914 H3910 0.929 . S
C3914 C3916 1.378 . S
C3914 C3918 1.350 . S
C3915 C3918 1.463 . S
C3915 C3920 1.350 . S
C3915 N3923 1.427 . S
C3916 H3907 0.930 . S
C3916 C3914 1.378 . S
C3916 C3917 1.367 . S
C3917 C3916 1.367 . S
C3917 C3919 1.433 . S
C3918 C3914 1.350 . S
C3918 C3915 1.463 . S
C3918 N3922 1.427 . S
C3919 H3909 0.929 . S
C3919 C3917 1.433 . S
C3919 N3922 1.384 . S
C3920 H3911 0.929 . S
C3920 C3912 1.378 . S
C3920 C3915 1.350 . S
C3921 H3908 0.929 . S
C3921 C3913 1.433 . S
C3921 N3923 1.384 . S
N3922 C3918 1.427 . S
N3922 C3919 1.384 . S
N3923 C3915 1.427 . S
N3923 C3921 1.384 . S
H3924 C3930 0.930 . S
H3925 C3934 0.930 . S
H3926 C3939 0.929 . S
H3927 C3937 0.929 . S
H3928 C3932 0.929 . S
H3929 C3938 0.929 . S
C3930 H3924 0.930 . S
C3930 C3931 1.367 . S
C3930 C3938 1.378 . S
C3931 C3930 1.367 . S
C3931 C3939 1.433 . S
C3932 H3928 0.929 . S
C3932 C3934 1.378 . S
C3932 C3936 1.350 . S
C3933 C3936 1.463 . S
C3933 C3938 1.350 . S
C3933 N3941 1.427 . S
C3934 H3925 0.930 . S
C3934 C3932 1.378 . S
C3934 C3935 1.367 . S
C3935 C3934 1.367 . S
C3935 C3937 1.433 . S
C3936 C3932 1.350 . S
C3936 C3933 1.463 . S
C3936 N3940 1.427 . S
C3937 H3927 0.929 . S
C3937 C3935 1.433 . S
C3937 N3940 1.384 . S
C3938 H3929 0.929 . S
C3938 C3930 1.378 . S
C3938 C3933 1.350 . S
C3939 H3926 0.929 . S
C3939 C3931 1.433 . S
C3939 N3941 1.384 . S
N3940 C3936 1.427 . S
N3940 C3937 1.384 . S
N3941 C3933 1.427 . S
N3941 C3939 1.384 . S
H3942 C3948 0.930 . S
H3943 C3952 0.930 . S
H3944 C3957 0.929 . S
H3945 C3955 0.929 . S
H3946 C3950 0.929 . S
H3947 C3956 0.929 . S
C3948 H3942 0.930 . S
C3948 C3949 1.367 . S
C3948 C3956 1.378 . S
C3949 C3948 1.367 . S
C3949 C3957 1.433 . S
C3950 H3946 0.929 . S
C3950 C3952 1.378 . S
C3950 C3954 1.350 . S
C3951 C3954 1.463 . S
C3951 C3956 1.350 . S
C3951 N3959 1.427 . S
C3952 H3943 0.930 . S
C3952 C3950 1.378 . S
C3952 C3953 1.367 . S
C3953 C3952 1.367 . S
C3953 C3955 1.433 . S
C3954 C3950 1.350 . S
C3954 C3951 1.463 . S
C3954 N3958 1.427 . S
C3955 H3945 0.929 . S
C3955 C3953 1.433 . S
C3955 N3958 1.384 . S
C3956 H3947 0.929 . S
C3956 C3948 1.378 . S
C3956 C3951 1.350 . S
C3957 H3944 0.929 . S
C3957 C3949 1.433 . S
C3957 N3959 1.384 . S
N3958 C3954 1.427 . S
N3958 C3955 1.384 . S
N3959 C3951 1.427 . S
N3959 C3957 1.384 . S
H3960 C3966 0.930 . S
H3961 C3970 0.930 . S
H3962 C3975 0.929 . S
H3963 C3973 0.929 . S
H3964 C3968 0.929 . S
H3965 C3974 0.929 . S
C3966 H3960 0.930 . S
C3966 C3967 1.367 . S
C3966 C3974 1.378 . S
C3967 C3966 1.367 . S
C3967 C3975 1.433 . S
C3968 H3964 0.929 . S
C3968 C3970 1.378 . S
C3968 C3972 1.350 . S
C3969 C3972 1.463 . S
C3969 C3974 1.350 . S
C3969 N3977 1.427 . S
C3970 H3961 0.930 . S
C3970 C3968 1.378 . S
C3970 C3971 1.367 . S
C3971 C3970 1.367 . S
C3971 C3973 1.433 . S
C3972 C3968 1.350 . S
C3972 C3969 1.463 . S
C3972 N3976 1.427 . S
C3973 H3963 0.929 . S
C3973 C3971 1.433 . S
C3973 N3976 1.384 . S
C3974 H3965 0.929 . S
C3974 C3966 1.378 . S
C3974 C3969 1.350 . S
C3975 H3962 0.929 . S
C3975 C3967 1.433 . S
C3975 N3977 1.384 . S
N3976 C3972 1.427 . S
N3976 C3973 1.384 . S
N3977 C3969 1.427 . S
N3977 C3975 1.384 . S
H3978 C3984 0.930 . S
H3979 C3988 0.930 . S
H3980 C3993 0.929 . S
H3981 C3991 0.929 . S
H3982 C3986 0.929 . S
H3983 C3992 0.929 . S
C3984 H3978 0.930 . S
C3984 C3985 1.367 . S
C3984 C3992 1.378 . S
C3985 C3984 1.367 . S
C3985 C3993 1.433 . S
C3986 H3982 0.929 . S
C3986 C3988 1.378 . S
C3986 C3990 1.350 . S
C3987 C3990 1.463 . S
C3987 C3992 1.350 . S
C3987 N3995 1.427 . S
C3988 H3979 0.930 . S
C3988 C3986 1.378 . S
C3988 C3989 1.367 . S
C3989 C3988 1.367 . S
C3989 C3991 1.433 . S
C3990 C3986 1.350 . S
C3990 C3987 1.463 . S
C3990 N3994 1.427 . S
C3991 H3981 0.929 . S
C3991 C3989 1.433 . S
C3991 N3994 1.384 . S
C3992 H3983 0.929 . S
C3992 C3984 1.378 . S
C3992 C3987 1.350 . S
C3993 H3980 0.929 . S
C3993 C3985 1.433 . S
C3993 N3995 1.384 . S
N3994 C3990 1.427 . S
N3994 C3991 1.384 . S
N3995 C3987 1.427 . S
N3995 C3993 1.384 . S
H3996 C4002 0.930 . S
H3997 C4006 0.930 . S
H3998 C4011 0.929 . S
H3999 C4009 0.929 . S
H4000 C4004 0.929 . S
H4001 C4010 0.929 . S
C4002 H3996 0.930 . S
C4002 C4003 1.367 . S
C4002 C4010 1.378 . S
C4003 C4002 1.367 . S
C4003 C4011 1.433 . S
C4004 H4000 0.929 . S
C4004 C4006 1.378 . S
C4004 C4008 1.350 . S
C4005 C4008 1.463 . S
C4005 C4010 1.350 . S
C4005 N4013 1.427 . S
C4006 H3997 0.930 . S
C4006 C4004 1.378 . S
C4006 C4007 1.367 . S
C4007 C4006 1.367 . S
C4007 C4009 1.433 . S
C4008 C4004 1.350 . S
C4008 C4005 1.463 . S
C4008 N4012 1.427 . S
C4009 H3999 0.929 . S
C4009 C4007 1.433 . S
C4009 N4012 1.384 . S
C4010 H4001 0.929 . S
C4010 C4002 1.378 . S
C4010 C4005 1.350 . S
C4011 H3998 0.929 . S
C4011 C4003 1.433 . S
C4011 N4013 1.384 . S
N4012 C4008 1.427 . S
N4012 C4009 1.384 . S
N4013 C4005 1.427 . S
N4013 C4011 1.384 . S
H4014 C4020 0.930 . S
H4015 C4024 0.930 . S
H4016 C4029 0.929 . S
H4017 C4027 0.929 . S
H4018 C4022 0.929 . S
H4019 C4028 0.929 . S
C4020 H4014 0.930 . S
C4020 C4021 1.367 . S
C4020 C4028 1.378 . S
C4021 C4020 1.367 . S
C4021 C4029 1.433 . S
C4022 H4018 0.929 . S
C4022 C4024 1.378 . S
C4022 C4026 1.350 . S
C4023 C4026 1.463 . S
C4023 C4028 1.350 . S
C4023 N4031 1.427 . S
C4024 H4015 0.930 . S
C4024 C4022 1.378 . S
C4024 C4025 1.367 . S
C4025 C4024 1.367 . S
C4025 C4027 1.433 . S
C4026 C4022 1.350 . S
C4026 C4023 1.463 . S
C4026 N4030 1.427 . S
C4027 H4017 0.929 . S
C4027 C4025 1.433 . S
C4027 N4030 1.384 . S
C4028 H4019 0.929 . S
C4028 C4020 1.378 . S
C4028 C4023 1.350 . S
C4029 H4016 0.929 . S
C4029 C4021 1.433 . S
C4029 N4031 1.384 . S
N4030 C4026 1.427 . S
N4030 C4027 1.384 . S
N4031 C4023 1.427 . S
N4031 C4029 1.384 . S
H4032 C4038 0.930 . S
H4033 C4042 0.930 . S
H4034 C4047 0.929 . S
H4035 C4045 0.929 . S
H4036 C4040 0.929 . S
H4037 C4046 0.929 . S
C4038 H4032 0.930 . S
C4038 C4039 1.367 . S
C4038 C4046 1.378 . S
C4039 C4038 1.367 . S
C4039 C4047 1.433 . S
C4040 H4036 0.929 . S
C4040 C4042 1.378 . S
C4040 C4044 1.350 . S
C4041 C4044 1.463 . S
C4041 C4046 1.350 . S
C4041 N4049 1.427 . S
C4042 H4033 0.930 . S
C4042 C4040 1.378 . S
C4042 C4043 1.367 . S
C4043 C4042 1.367 . S
C4043 C4045 1.433 . S
C4044 C4040 1.350 . S
C4044 C4041 1.463 . S
C4044 N4048 1.427 . S
C4045 H4035 0.929 . S
C4045 C4043 1.433 . S
C4045 N4048 1.384 . S
C4046 H4037 0.929 . S
C4046 C4038 1.378 . S
C4046 C4041 1.350 . S
C4047 H4034 0.929 . S
C4047 C4039 1.433 . S
C4047 N4049 1.384 . S
N4048 C4044 1.427 . S
N4048 C4045 1.384 . S
N4049 C4041 1.427 . S
N4049 C4047 1.384 . S
H4050 C4056 0.930 . S
H4051 C4060 0.930 . S
H4052 C4065 0.929 . S
H4053 C4063 0.929 . S
H4054 C4058 0.929 . S
H4055 C4064 0.929 . S
C4056 H4050 0.930 . S
C4056 C4057 1.367 . S
C4056 C4064 1.378 . S
C4057 C4056 1.367 . S
C4057 C4065 1.433 . S
C4058 H4054 0.929 . S
C4058 C4060 1.378 . S
C4058 C4062 1.350 . S
C4059 C4062 1.463 . S
C4059 C4064 1.350 . S
C4059 N4067 1.427 . S
C4060 H4051 0.930 . S
C4060 C4058 1.378 . S
C4060 C4061 1.367 . S
C4061 C4060 1.367 . S
C4061 C4063 1.433 . S
C4062 C4058 1.350 . S
C4062 C4059 1.463 . S
C4062 N4066 1.427 . S
C4063 H4053 0.929 . S
C4063 C4061 1.433 . S
C4063 N4066 1.384 . S
C4064 H4055 0.929 . S
C4064 C4056 1.378 . S
C4064 C4059 1.350 . S
C4065 H4052 0.929 . S
C4065 C4057 1.433 . S
C4065 N4067 1.384 . S
N4066 C4062 1.427 . S
N4066 C4063 1.384 . S
N4067 C4059 1.427 . S
N4067 C4065 1.384 . S
H4068 C4074 0.930 . S
H4069 C4078 0.930 . S
H4070 C4083 0.929 . S
H4071 C4081 0.929 . S
H4072 C4076 0.929 . S
H4073 C4082 0.929 . S
C4074 H4068 0.930 . S
C4074 C4075 1.367 . S
C4074 C4082 1.378 . S
C4075 C4074 1.367 . S
C4075 C4083 1.433 . S
C4076 H4072 0.929 . S
C4076 C4078 1.378 . S
C4076 C4080 1.350 . S
C4077 C4080 1.463 . S
C4077 C4082 1.350 . S
C4077 N4085 1.427 . S
C4078 H4069 0.930 . S
C4078 C4076 1.378 . S
C4078 C4079 1.367 . S
C4079 C4078 1.367 . S
C4079 C4081 1.433 . S
C4080 C4076 1.350 . S
C4080 C4077 1.463 . S
C4080 N4084 1.427 . S
C4081 H4071 0.929 . S
C4081 C4079 1.433 . S
C4081 N4084 1.384 . S
C4082 H4073 0.929 . S
C4082 C4074 1.378 . S
C4082 C4077 1.350 . S
C4083 H4070 0.929 . S
C4083 C4075 1.433 . S
C4083 N4085 1.384 . S
N4084 C4080 1.427 . S
N4084 C4081 1.384 . S
N4085 C4077 1.427 . S
N4085 C4083 1.384 . S
H4086 C4092 0.930 . S
H4087 C4096 0.930 . S
H4088 C4101 0.929 . S
H4089 C4099 0.929 . S
H4090 C4094 0.929 . S
H4091 C4100 0.929 . S
C4092 H4086 0.930 . S
C4092 C4093 1.367 . S
C4092 C4100 1.378 . S
C4093 C4092 1.367 . S
C4093 C4101 1.433 . S
C4094 H4090 0.929 . S
C4094 C4096 1.378 . S
C4094 C4098 1.350 . S
C4095 C4098 1.463 . S
C4095 C4100 1.350 . S
C4095 N4103 1.427 . S
C4096 H4087 0.930 . S
C4096 C4094 1.378 . S
C4096 C4097 1.367 . S
C4097 C4096 1.367 . S
C4097 C4099 1.433 . S
C4098 C4094 1.350 . S
C4098 C4095 1.463 . S
C4098 N4102 1.427 . S
C4099 H4089 0.929 . S
C4099 C4097 1.433 . S
C4099 N4102 1.384 . S
C4100 H4091 0.929 . S
C4100 C4092 1.378 . S
C4100 C4095 1.350 . S
C4101 H4088 0.929 . S
C4101 C4093 1.433 . S
C4101 N4103 1.384 . S
N4102 C4098 1.427 . S
N4102 C4099 1.384 . S
N4103 C4095 1.427 . S
N4103 C4101 1.384 . S
H4104 C4110 0.930 . S
H4105 C4114 0.930 . S
H4106 C4119 0.929 . S
H4107 C4117 0.929 . S
H4108 C4112 0.929 . S
H4109 C4118 0.929 . S
C4110 H4104 0.930 . S
C4110 C4111 1.367 . S
C4110 C4118 1.378 . S
C4111 C4110 1.367 . S
C4111 C4119 1.433 . S
C4112 H4108 0.929 . S
C4112 C4114 1.378 . S
C4112 C4116 1.350 . S
C4113 C4116 1.463 . S
C4113 C4118 1.350 . S
C4113 N4121 1.427 . S
C4114 H4105 0.930 . S
C4114 C4112 1.378 . S
C4114 C4115 1.367 . S
C4115 C4114 1.367 . S
C4115 C4117 1.433 . S
C4116 C4112 1.350 . S
C4116 C4113 1.463 . S
C4116 N4120 1.427 . S
C4117 H4107 0.929 . S
C4117 C4115 1.433 . S
C4117 N4120 1.384 . S
C4118 H4109 0.929 . S
C4118 C4110 1.378 . S
C4118 C4113 1.350 . S
C4119 H4106 0.929 . S
C4119 C4111 1.433 . S
C4119 N4121 1.384 . S
N4120 C4116 1.427 . S
N4120 C4117 1.384 . S
N4121 C4113 1.427 . S
N4121 C4119 1.384 . S
H4122 C4128 0.930 . S
H4123 C4132 0.930 . S
H4124 C4137 0.929 . S
H4125 C4135 0.929 . S
H4126 C4130 0.929 . S
H4127 C4136 0.929 . S
C4128 H4122 0.930 . S
C4128 C4129 1.367 . S
C4128 C4136 1.378 . S
C4129 C4128 1.367 . S
C4129 C4137 1.433 . S
C4130 H4126 0.929 . S
C4130 C4132 1.378 . S
C4130 C4134 1.350 . S
C4131 C4134 1.463 . S
C4131 C4136 1.350 . S
C4131 N4139 1.427 . S
C4132 H4123 0.930 . S
C4132 C4130 1.378 . S
C4132 C4133 1.367 . S
C4133 C4132 1.367 . S
C4133 C4135 1.433 . S
C4134 C4130 1.350 . S
C4134 C4131 1.463 . S
C4134 N4138 1.427 . S
C4135 H4125 0.929 . S
C4135 C4133 1.433 . S
C4135 N4138 1.384 . S
C4136 H4127 0.929 . S
C4136 C4128 1.378 . S
C4136 C4131 1.350 . S
C4137 H4124 0.929 . S
C4137 C4129 1.433 . S
C4137 N4139 1.384 . S
N4138 C4134 1.427 . S
N4138 C4135 1.384 . S
N4139 C4131 1.427 . S
N4139 C4137 1.384 . S
H4140 C4146 0.930 . S
H4141 C4150 0.930 . S
H4142 C4155 0.929 . S
H4143 C4153 0.929 . S
H4144 C4148 0.929 . S
H4145 C4154 0.929 . S
C4146 H4140 0.930 . S
C4146 C4147 1.367 . S
C4146 C4154 1.378 . S
C4147 C4146 1.367 . S
C4147 C4155 1.433 . S
C4148 H4144 0.929 . S
C4148 C4150 1.378 . S
C4148 C4152 1.350 . S
C4149 C4152 1.463 . S
C4149 C4154 1.350 . S
C4149 N4157 1.427 . S
C4150 H4141 0.930 . S
C4150 C4148 1.378 . S
C4150 C4151 1.367 . S
C4151 C4150 1.367 . S
C4151 C4153 1.433 . S
C4152 C4148 1.350 . S
C4152 C4149 1.463 . S
C4152 N4156 1.427 . S
C4153 H4143 0.929 . S
C4153 C4151 1.433 . S
C4153 N4156 1.384 . S
C4154 H4145 0.929 . S
C4154 C4146 1.378 . S
C4154 C4149 1.350 . S
C4155 H4142 0.929 . S
C4155 C4147 1.433 . S
C4155 N4157 1.384 . S
N4156 C4152 1.427 . S
N4156 C4153 1.384 . S
N4157 C4149 1.427 . S
N4157 C4155 1.384 . S
H4158 C4164 0.930 . S
H4159 C4168 0.930 . S
H4160 C4173 0.929 . S
H4161 C4171 0.929 . S
H4162 C4166 0.929 . S
H4163 C4172 0.929 . S
C4164 H4158 0.930 . S
C4164 C4165 1.367 . S
C4164 C4172 1.378 . S
C4165 C4164 1.367 . S
C4165 C4173 1.433 . S
C4166 H4162 0.929 . S
C4166 C4168 1.378 . S
C4166 C4170 1.350 . S
C4167 C4170 1.463 . S
C4167 C4172 1.350 . S
C4167 N4175 1.427 . S
C4168 H4159 0.930 . S
C4168 C4166 1.378 . S
C4168 C4169 1.367 . S
C4169 C4168 1.367 . S
C4169 C4171 1.433 . S
C4170 C4166 1.350 . S
C4170 C4167 1.463 . S
C4170 N4174 1.427 . S
C4171 H4161 0.929 . S
C4171 C4169 1.433 . S
C4171 N4174 1.384 . S
C4172 H4163 0.929 . S
C4172 C4164 1.378 . S
C4172 C4167 1.350 . S
C4173 H4160 0.929 . S
C4173 C4165 1.433 . S
C4173 N4175 1.384 . S
N4174 C4170 1.427 . S
N4174 C4171 1.384 . S
N4175 C4167 1.427 . S
N4175 C4173 1.384 . S
H4176 C4182 0.930 . S
H4177 C4186 0.930 . S
H4178 C4191 0.929 . S
H4179 C4189 0.929 . S
H4180 C4184 0.929 1_565 S
H4181 C4190 0.929 1_545 S
C4182 H4176 0.930 . S
C4182 C4183 1.367 . S
C4182 C4190 1.378 . S
C4183 C4182 1.367 . S
C4183 C4191 1.433 . S
C4184 H4180 0.929 1_545 S
C4184 C4186 1.378 . S
C4184 C4188 1.350 . S
C4185 C4188 1.463 1_565 S
C4185 C4190 1.350 . S
C4185 N4193 1.427 . S
C4186 H4177 0.930 . S
C4186 C4184 1.378 . S
C4186 C4187 1.367 . S
C4187 C4186 1.367 . S
C4187 C4189 1.433 . S
C4188 C4184 1.350 . S
C4188 C4185 1.463 1_545 S
C4188 N4192 1.427 . S
C4189 H4179 0.929 . S
C4189 C4187 1.433 . S
C4189 N4192 1.384 . S
C4190 H4181 0.929 1_565 S
C4190 C4182 1.378 . S
C4190 C4185 1.350 . S
C4191 H4178 0.929 . S
C4191 C4183 1.433 . S
C4191 N4193 1.384 . S
N4192 C4188 1.427 . S
N4192 C4189 1.384 . S
N4193 C4185 1.427 . S
N4193 C4191 1.384 . S
H4194 C4200 0.930 . S
H4195 C4204 0.930 . S
H4196 C4209 0.929 . S
H4197 C4207 0.929 . S
H4198 C4202 0.929 . S
H4199 C4208 0.929 . S
C4200 H4194 0.930 . S
C4200 C4201 1.367 . S
C4200 C4208 1.378 . S
C4201 C4200 1.367 . S
C4201 C4209 1.433 . S
C4202 H4198 0.929 . S
C4202 C4204 1.378 . S
C4202 C4206 1.350 . S
C4203 C4206 1.463 1_455 S
C4203 C4208 1.350 . S
C4203 N4211 1.427 . S
C4204 H4195 0.930 . S
C4204 C4202 1.378 . S
C4204 C4205 1.367 . S
C4205 C4204 1.367 . S
C4205 C4207 1.433 . S
C4206 C4202 1.350 . S
C4206 C4203 1.463 1_655 S
C4206 N4210 1.427 . S
C4207 H4197 0.929 . S
C4207 C4205 1.433 . S
C4207 N4210 1.384 . S
C4208 H4199 0.929 . S
C4208 C4200 1.378 . S
C4208 C4203 1.350 . S
C4209 H4196 0.929 . S
C4209 C4201 1.433 . S
C4209 N4211 1.384 . S
N4210 C4206 1.427 . S
N4210 C4207 1.384 . S
N4211 C4203 1.427 . S
N4211 C4209 1.384 . S
H4212 C4218 0.930 . S
H4213 C4222 0.930 . S
H4214 C4227 0.929 . S
H4215 C4225 0.929 . S
H4216 C4220 0.929 . S
H4217 C4226 0.929 . S
C4218 H4212 0.930 . S
C4218 C4219 1.367 . S
C4218 C4226 1.378 . S
C4219 C4218 1.367 . S
C4219 C4227 1.433 . S
C4220 H4216 0.929 . S
C4220 C4222 1.378 . S
C4220 C4224 1.350 . S
C4221 C4224 1.463 . S
C4221 C4226 1.350 . S
C4221 N4229 1.427 . S
C4222 H4213 0.930 . S
C4222 C4220 1.378 . S
C4222 C4223 1.367 . S
C4223 C4222 1.367 . S
C4223 C4225 1.433 . S
C4224 C4220 1.350 . S
C4224 C4221 1.463 . S
C4224 N4228 1.427 . S
C4225 H4215 0.929 . S
C4225 C4223 1.433 . S
C4225 N4228 1.384 . S
C4226 H4217 0.929 . S
C4226 C4218 1.378 . S
C4226 C4221 1.350 . S
C4227 H4214 0.929 . S
C4227 C4219 1.433 . S
C4227 N4229 1.384 . S
N4228 C4224 1.427 . S
N4228 C4225 1.384 . S
N4229 C4221 1.427 . S
N4229 C4227 1.384 . S
H4230 C4236 0.930 . S
H4231 C4240 0.930 . S
H4232 C4245 0.929 . S
H4233 C4243 0.929 . S
H4234 C4238 0.929 . S
H4235 C4244 0.929 . S
C4236 H4230 0.930 . S
C4236 C4237 1.367 . S
C4236 C4244 1.378 . S
C4237 C4236 1.367 . S
C4237 C4245 1.433 . S
C4238 H4234 0.929 . S
C4238 C4240 1.378 . S
C4238 C4242 1.350 . S
C4239 C4242 1.463 1_545 S
C4239 C4244 1.350 . S
C4239 N4247 1.427 . S
C4240 H4231 0.930 . S
C4240 C4238 1.378 . S
C4240 C4241 1.367 . S
C4241 C4240 1.367 . S
C4241 C4243 1.433 . S
C4242 C4238 1.350 . S
C4242 C4239 1.463 1_565 S
C4242 N4246 1.427 . S
C4243 H4233 0.929 . S
C4243 C4241 1.433 . S
C4243 N4246 1.384 . S
C4244 H4235 0.929 . S
C4244 C4236 1.378 . S
C4244 C4239 1.350 . S
C4245 H4232 0.929 . S
C4245 C4237 1.433 . S
C4245 N4247 1.384 . S
N4246 C4242 1.427 . S
N4246 C4243 1.384 . S
N4247 C4239 1.427 . S
N4247 C4245 1.384 . S
H4248 C4254 0.930 . S
H4249 C4258 0.930 . S
H4250 C4263 0.929 . S
H4251 C4261 0.929 . S
H4252 C4256 0.928 1_455 S
H4253 C4262 0.928 1_655 S
C4254 H4248 0.930 . S
C4254 C4255 1.367 . S
C4254 C4262 1.378 . S
C4255 C4254 1.367 . S
C4255 C4263 1.433 . S
C4256 H4252 0.928 1_655 S
C4256 C4258 1.378 . S
C4256 C4260 1.350 . S
C4257 C4260 1.463 1_455 S
C4257 C4262 1.350 . S
C4257 N4265 1.427 . S
C4258 H4249 0.930 . S
C4258 C4256 1.378 . S
C4258 C4259 1.367 . S
C4259 C4258 1.367 . S
C4259 C4261 1.433 . S
C4260 C4256 1.350 . S
C4260 C4257 1.463 1_655 S
C4260 N4264 1.427 . S
C4261 H4251 0.929 . S
C4261 C4259 1.433 . S
C4261 N4264 1.384 . S
C4262 H4253 0.928 1_455 S
C4262 C4254 1.378 . S
C4262 C4257 1.350 . S
C4263 H4250 0.929 . S
C4263 C4255 1.433 . S
C4263 N4265 1.384 . S
N4264 C4260 1.427 . S
N4264 C4261 1.384 . S
N4265 C4257 1.427 . S
N4265 C4263 1.384 . S
H4266 C4272 0.930 . S
H4267 C4276 0.930 . S
H4268 C4281 0.929 . S
H4269 C4279 0.929 . S
H4270 C4274 0.929 . S
H4271 C4280 0.929 . S
C4272 H4266 0.930 . S
C4272 C4273 1.367 . S
C4272 C4280 1.378 . S
C4273 C4272 1.367 . S
C4273 C4281 1.433 . S
C4274 H4270 0.929 . S
C4274 C4276 1.378 . S
C4274 C4278 1.350 . S
C4275 C4278 1.463 . S
C4275 C4280 1.350 . S
C4275 N4283 1.427 . S
C4276 H4267 0.930 . S
C4276 C4274 1.378 . S
C4276 C4277 1.367 . S
C4277 C4276 1.367 . S
C4277 C4279 1.433 . S
C4278 C4274 1.350 . S
C4278 C4275 1.463 . S
C4278 N4282 1.427 . S
C4279 H4269 0.929 . S
C4279 C4277 1.433 . S
C4279 N4282 1.384 . S
C4280 H4271 0.929 . S
C4280 C4272 1.378 . S
C4280 C4275 1.350 . S
C4281 H4268 0.929 . S
C4281 C4273 1.433 . S
C4281 N4283 1.384 . S
N4282 C4278 1.427 . S
N4282 C4279 1.384 . S
N4283 C4275 1.427 . S
N4283 C4281 1.384 . S
H4284 C4290 0.930 . S
H4285 C4294 0.930 . S
H4286 C4299 0.929 . S
H4287 C4297 0.929 . S
H4288 C4292 0.929 . S
H4289 C4298 0.929 . S
C4290 H4284 0.930 . S
C4290 C4291 1.367 . S
C4290 C4298 1.378 . S
C4291 C4290 1.367 . S
C4291 C4299 1.433 . S
C4292 H4288 0.929 . S
C4292 C4294 1.378 . S
C4292 C4296 1.350 . S
C4293 C4296 1.463 . S
C4293 C4298 1.350 . S
C4293 N4301 1.427 . S
C4294 H4285 0.930 . S
C4294 C4292 1.378 . S
C4294 C4295 1.367 . S
C4295 C4294 1.367 . S
C4295 C4297 1.433 . S
C4296 C4292 1.350 . S
C4296 C4293 1.463 . S
C4296 N4300 1.427 . S
C4297 H4287 0.929 . S
C4297 C4295 1.433 . S
C4297 N4300 1.384 . S
C4298 H4289 0.929 . S
C4298 C4290 1.378 . S
C4298 C4293 1.350 . S
C4299 H4286 0.929 . S
C4299 C4291 1.433 . S
C4299 N4301 1.384 . S
N4300 C4296 1.427 . S
N4300 C4297 1.384 . S
N4301 C4293 1.427 . S
N4301 C4299 1.384 . S
H4302 C4308 0.930 . S
H4303 C4312 0.930 . S
H4304 C4317 0.929 . S
H4305 C4315 0.929 . S
H4306 C4310 0.929 . S
H4307 C4316 0.929 . S
C4308 H4302 0.930 . S
C4308 C4309 1.367 . S
C4308 C4316 1.378 . S
C4309 C4308 1.367 . S
C4309 C4317 1.433 . S
C4310 H4306 0.929 . S
C4310 C4312 1.378 . S
C4310 C4314 1.350 . S
C4311 C4314 1.463 . S
C4311 C4316 1.350 . S
C4311 N4319 1.427 . S
C4312 H4303 0.930 . S
C4312 C4310 1.378 . S
C4312 C4313 1.367 . S
C4313 C4312 1.367 . S
C4313 C4315 1.433 . S
C4314 C4310 1.350 . S
C4314 C4311 1.463 . S
C4314 N4318 1.427 . S
C4315 H4305 0.929 . S
C4315 C4313 1.433 . S
C4315 N4318 1.384 . S
C4316 H4307 0.929 . S
C4316 C4308 1.378 . S
C4316 C4311 1.350 . S
C4317 H4304 0.929 . S
C4317 C4309 1.433 . S
C4317 N4319 1.384 . S
N4318 C4314 1.427 . S
N4318 C4315 1.384 . S
N4319 C4311 1.427 . S
N4319 C4317 1.384 . S
H4320 C4326 0.930 . S
H4321 C4330 0.930 . S
H4322 C4335 0.929 . S
H4323 C4333 0.929 . S
H4324 C4328 0.929 . S
H4325 C4334 0.929 . S
C4326 H4320 0.930 . S
C4326 C4327 1.367 . S
C4326 C4334 1.378 . S
C4327 C4326 1.367 . S
C4327 C4335 1.433 . S
C4328 H4324 0.929 . S
C4328 C4330 1.378 . S
C4328 C4332 1.350 . S
C4329 C4332 1.463 . S
C4329 C4334 1.350 . S
C4329 N4337 1.427 . S
C4330 H4321 0.930 . S
C4330 C4328 1.378 . S
C4330 C4331 1.367 . S
C4331 C4330 1.367 . S
C4331 C4333 1.433 . S
C4332 C4328 1.350 . S
C4332 C4329 1.463 . S
C4332 N4336 1.427 . S
C4333 H4323 0.929 . S
C4333 C4331 1.433 . S
C4333 N4336 1.384 . S
C4334 H4325 0.929 . S
C4334 C4326 1.378 . S
C4334 C4329 1.350 . S
C4335 H4322 0.929 . S
C4335 C4327 1.433 . S
C4335 N4337 1.384 . S
N4336 C4332 1.427 . S
N4336 C4333 1.384 . S
N4337 C4329 1.427 . S
N4337 C4335 1.384 . S
H4338 C4344 0.930 . S
H4339 C4348 0.930 . S
H4340 C4353 0.929 . S
H4341 C4351 0.929 . S
H4342 C4346 0.929 . S
H4343 C4352 0.929 . S
C4344 H4338 0.930 . S
C4344 C4345 1.367 . S
C4344 C4352 1.378 . S
C4345 C4344 1.367 . S
C4345 C4353 1.433 . S
C4346 H4342 0.929 . S
C4346 C4348 1.378 . S
C4346 C4350 1.350 . S
C4347 C4350 1.463 . S
C4347 C4352 1.350 . S
C4347 N4355 1.427 . S
C4348 H4339 0.930 . S
C4348 C4346 1.378 . S
C4348 C4349 1.367 . S
C4349 C4348 1.367 . S
C4349 C4351 1.433 . S
C4350 C4346 1.350 . S
C4350 C4347 1.463 . S
C4350 N4354 1.427 . S
C4351 H4341 0.929 . S
C4351 C4349 1.433 . S
C4351 N4354 1.384 . S
C4352 H4343 0.929 . S
C4352 C4344 1.378 . S
C4352 C4347 1.350 . S
C4353 H4340 0.929 . S
C4353 C4345 1.433 . S
C4353 N4355 1.384 . S
N4354 C4350 1.427 . S
N4354 C4351 1.384 . S
N4355 C4347 1.427 . S
N4355 C4353 1.384 . S
H4356 C4362 0.930 . S
H4357 C4366 0.930 . S
H4358 C4371 0.929 . S
H4359 C4369 0.929 . S
H4360 C4364 0.929 . S
H4361 C4370 0.929 . S
C4362 H4356 0.930 . S
C4362 C4363 1.367 . S
C4362 C4370 1.378 . S
C4363 C4362 1.367 . S
C4363 C4371 1.433 . S
C4364 H4360 0.929 . S
C4364 C4366 1.378 . S
C4364 C4368 1.350 . S
C4365 C4368 1.463 . S
C4365 C4370 1.350 . S
C4365 N4373 1.427 . S
C4366 H4357 0.930 . S
C4366 C4364 1.378 . S
C4366 C4367 1.367 . S
C4367 C4366 1.367 . S
C4367 C4369 1.433 . S
C4368 C4364 1.350 . S
C4368 C4365 1.463 . S
C4368 N4372 1.427 . S
C4369 H4359 0.929 . S
C4369 C4367 1.433 . S
C4369 N4372 1.384 . S
C4370 H4361 0.929 . S
C4370 C4362 1.378 . S
C4370 C4365 1.350 . S
C4371 H4358 0.929 . S
C4371 C4363 1.433 . S
C4371 N4373 1.384 . S
N4372 C4368 1.427 . S
N4372 C4369 1.384 . S
N4373 C4365 1.427 . S
N4373 C4371 1.384 . S
H4374 C4380 0.930 . S
H4375 C4384 0.930 . S
H4376 C4389 0.929 . S
H4377 C4387 0.929 . S
H4378 C4382 0.929 . S
H4379 C4388 0.929 . S
C4380 H4374 0.930 . S
C4380 C4381 1.367 . S
C4380 C4388 1.378 . S
C4381 C4380 1.367 . S
C4381 C4389 1.433 . S
C4382 H4378 0.929 . S
C4382 C4384 1.378 . S
C4382 C4386 1.350 . S
C4383 C4386 1.463 . S
C4383 C4388 1.350 . S
C4383 N4391 1.427 . S
C4384 H4375 0.930 . S
C4384 C4382 1.378 . S
C4384 C4385 1.367 . S
C4385 C4384 1.367 . S
C4385 C4387 1.433 . S
C4386 C4382 1.350 . S
C4386 C4383 1.463 . S
C4386 N4390 1.427 . S
C4387 H4377 0.929 . S
C4387 C4385 1.433 . S
C4387 N4390 1.384 . S
C4388 H4379 0.929 . S
C4388 C4380 1.378 . S
C4388 C4383 1.350 . S
C4389 H4376 0.929 . S
C4389 C4381 1.433 . S
C4389 N4391 1.384 . S
N4390 C4386 1.427 . S
N4390 C4387 1.384 . S
N4391 C4383 1.427 . S
N4391 C4389 1.384 . S
H4392 C4398 0.930 . S
H4393 C4402 0.930 . S
H4394 C4407 0.929 . S
H4395 C4405 0.929 . S
H4396 C4400 0.929 . S
H4397 C4406 0.929 . S
C4398 H4392 0.930 . S
C4398 C4399 1.367 . S
C4398 C4406 1.378 . S
C4399 C4398 1.367 . S
C4399 C4407 1.433 . S
C4400 H4396 0.929 . S
C4400 C4402 1.378 . S
C4400 C4404 1.350 . S
C4401 C4404 1.463 . S
C4401 C4406 1.350 . S
C4401 N4409 1.427 . S
C4402 H4393 0.930 . S
C4402 C4400 1.378 . S
C4402 C4403 1.367 . S
C4403 C4402 1.367 . S
C4403 C4405 1.433 . S
C4404 C4400 1.350 . S
C4404 C4401 1.463 . S
C4404 N4408 1.427 . S
C4405 H4395 0.929 . S
C4405 C4403 1.433 . S
C4405 N4408 1.384 . S
C4406 H4397 0.929 . S
C4406 C4398 1.378 . S
C4406 C4401 1.350 . S
C4407 H4394 0.929 . S
C4407 C4399 1.433 . S
C4407 N4409 1.384 . S
N4408 C4404 1.427 . S
N4408 C4405 1.384 . S
N4409 C4401 1.427 . S
N4409 C4407 1.384 . S
H4410 C4416 0.930 . S
H4411 C4420 0.930 . S
H4412 C4425 0.929 . S
H4413 C4423 0.929 . S
H4414 C4418 0.929 . S
H4415 C4424 0.929 . S
C4416 H4410 0.930 . S
C4416 C4417 1.367 . S
C4416 C4424 1.378 . S
C4417 C4416 1.367 . S
C4417 C4425 1.433 . S
C4418 H4414 0.929 . S
C4418 C4420 1.378 . S
C4418 C4422 1.350 . S
C4419 C4422 1.463 . S
C4419 C4424 1.350 . S
C4419 N4427 1.427 . S
C4420 H4411 0.930 . S
C4420 C4418 1.378 . S
C4420 C4421 1.367 . S
C4421 C4420 1.367 . S
C4421 C4423 1.433 . S
C4422 C4418 1.350 . S
C4422 C4419 1.463 . S
C4422 N4426 1.427 . S
C4423 H4413 0.929 . S
C4423 C4421 1.433 . S
C4423 N4426 1.384 . S
C4424 H4415 0.929 . S
C4424 C4416 1.378 . S
C4424 C4419 1.350 . S
C4425 H4412 0.929 . S
C4425 C4417 1.433 . S
C4425 N4427 1.384 . S
N4426 C4422 1.427 . S
N4426 C4423 1.384 . S
N4427 C4419 1.427 . S
N4427 C4425 1.384 . S
H4428 C4434 0.930 . S
H4429 C4438 0.930 . S
H4430 C4443 0.929 . S
H4431 C4441 0.929 . S
H4432 C4436 0.929 . S
H4433 C4442 0.929 . S
C4434 H4428 0.930 . S
C4434 C4435 1.367 . S
C4434 C4442 1.378 . S
C4435 C4434 1.367 . S
C4435 C4443 1.433 . S
C4436 H4432 0.929 . S
C4436 C4438 1.378 . S
C4436 C4440 1.350 . S
C4437 C4440 1.463 . S
C4437 C4442 1.350 . S
C4437 N4445 1.427 . S
C4438 H4429 0.930 . S
C4438 C4436 1.378 . S
C4438 C4439 1.367 . S
C4439 C4438 1.367 . S
C4439 C4441 1.433 . S
C4440 C4436 1.350 . S
C4440 C4437 1.463 . S
C4440 N4444 1.427 . S
C4441 H4431 0.929 . S
C4441 C4439 1.433 . S
C4441 N4444 1.384 . S
C4442 H4433 0.929 . S
C4442 C4434 1.378 . S
C4442 C4437 1.350 . S
C4443 H4430 0.929 . S
C4443 C4435 1.433 . S
C4443 N4445 1.384 . S
N4444 C4440 1.427 . S
N4444 C4441 1.384 . S
N4445 C4437 1.427 . S
N4445 C4443 1.384 . S
H4446 C4452 0.930 . S
H4447 C4456 0.930 . S
H4448 C4461 0.929 . S
H4449 C4459 0.929 . S
H4450 C4454 0.929 . S
H4451 C4460 0.929 . S
C4452 H4446 0.930 . S
C4452 C4453 1.367 . S
C4452 C4460 1.378 . S
C4453 C4452 1.367 . S
C4453 C4461 1.433 . S
C4454 H4450 0.929 . S
C4454 C4456 1.378 . S
C4454 C4458 1.350 . S
C4455 C4458 1.463 . S
C4455 C4460 1.350 . S
C4455 N4463 1.427 . S
C4456 H4447 0.930 . S
C4456 C4454 1.378 . S
C4456 C4457 1.367 . S
C4457 C4456 1.367 . S
C4457 C4459 1.433 . S
C4458 C4454 1.350 . S
C4458 C4455 1.463 . S
C4458 N4462 1.427 . S
C4459 H4449 0.929 . S
C4459 C4457 1.433 . S
C4459 N4462 1.384 . S
C4460 H4451 0.929 . S
C4460 C4452 1.378 . S
C4460 C4455 1.350 . S
C4461 H4448 0.929 . S
C4461 C4453 1.433 . S
C4461 N4463 1.384 . S
N4462 C4458 1.427 . S
N4462 C4459 1.384 . S
N4463 C4455 1.427 . S
N4463 C4461 1.384 . S
H4464 C4470 0.930 . S
H4465 C4474 0.930 . S
H4466 C4479 0.929 . S
H4467 C4477 0.929 . S
H4468 C4472 0.929 . S
H4469 C4478 0.929 . S
C4470 H4464 0.930 . S
C4470 C4471 1.367 . S
C4470 C4478 1.378 . S
C4471 C4470 1.367 . S
C4471 C4479 1.433 . S
C4472 H4468 0.929 . S
C4472 C4474 1.378 . S
C4472 C4476 1.350 . S
C4473 C4476 1.463 . S
C4473 C4478 1.350 . S
C4473 N4481 1.427 . S
C4474 H4465 0.930 . S
C4474 C4472 1.378 . S
C4474 C4475 1.367 . S
C4475 C4474 1.367 . S
C4475 C4477 1.433 . S
C4476 C4472 1.350 . S
C4476 C4473 1.463 . S
C4476 N4480 1.427 . S
C4477 H4467 0.929 . S
C4477 C4475 1.433 . S
C4477 N4480 1.384 . S
C4478 H4469 0.929 . S
C4478 C4470 1.378 . S
C4478 C4473 1.350 . S
C4479 H4466 0.929 . S
C4479 C4471 1.433 . S
C4479 N4481 1.384 . S
N4480 C4476 1.427 . S
N4480 C4477 1.384 . S
N4481 C4473 1.427 . S
N4481 C4479 1.384 . S
H4482 C4488 0.930 . S
H4483 C4492 0.930 . S
H4484 C4497 0.929 . S
H4485 C4495 0.929 . S
H4486 C4490 0.929 . S
H4487 C4496 0.929 . S
C4488 H4482 0.930 . S
C4488 C4489 1.367 . S
C4488 C4496 1.378 . S
C4489 C4488 1.367 . S
C4489 C4497 1.433 . S
C4490 H4486 0.929 . S
C4490 C4492 1.378 . S
C4490 C4494 1.350 . S
C4491 C4494 1.463 . S
C4491 C4496 1.350 . S
C4491 N4499 1.427 . S
C4492 H4483 0.930 . S
C4492 C4490 1.378 . S
C4492 C4493 1.367 . S
C4493 C4492 1.367 . S
C4493 C4495 1.433 . S
C4494 C4490 1.350 . S
C4494 C4491 1.463 . S
C4494 N4498 1.427 . S
C4495 H4485 0.929 . S
C4495 C4493 1.433 . S
C4495 N4498 1.384 . S
C4496 H4487 0.929 . S
C4496 C4488 1.378 . S
C4496 C4491 1.350 . S
C4497 H4484 0.929 . S
C4497 C4489 1.433 . S
C4497 N4499 1.384 . S
N4498 C4494 1.427 . S
N4498 C4495 1.384 . S
N4499 C4491 1.427 . S
N4499 C4497 1.384 . S
H4500 C4506 0.930 . S
H4501 C4510 0.930 . S
H4502 C4515 0.929 . S
H4503 C4513 0.929 . S
H4504 C4508 0.929 . S
H4505 C4514 0.929 . S
C4506 H4500 0.930 . S
C4506 C4507 1.367 . S
C4506 C4514 1.378 . S
C4507 C4506 1.367 . S
C4507 C4515 1.433 . S
C4508 H4504 0.929 . S
C4508 C4510 1.378 . S
C4508 C4512 1.350 . S
C4509 C4512 1.463 . S
C4509 C4514 1.350 . S
C4509 N4517 1.427 . S
C4510 H4501 0.930 . S
C4510 C4508 1.378 . S
C4510 C4511 1.367 . S
C4511 C4510 1.367 . S
C4511 C4513 1.433 . S
C4512 C4508 1.350 . S
C4512 C4509 1.463 . S
C4512 N4516 1.427 . S
C4513 H4503 0.929 . S
C4513 C4511 1.433 . S
C4513 N4516 1.384 . S
C4514 H4505 0.929 . S
C4514 C4506 1.378 . S
C4514 C4509 1.350 . S
C4515 H4502 0.929 . S
C4515 C4507 1.433 . S
C4515 N4517 1.384 . S
N4516 C4512 1.427 . S
N4516 C4513 1.384 . S
N4517 C4509 1.427 . S
N4517 C4515 1.384 . S
H4518 C4524 0.930 . S
H4519 C4528 0.930 . S
H4520 C4533 0.929 . S
H4521 C4531 0.929 . S
H4522 C4526 0.929 . S
H4523 C4532 0.929 . S
C4524 H4518 0.930 . S
C4524 C4525 1.367 . S
C4524 C4532 1.378 . S
C4525 C4524 1.367 . S
C4525 C4533 1.433 . S
C4526 H4522 0.929 . S
C4526 C4528 1.378 . S
C4526 C4530 1.350 . S
C4527 C4530 1.463 . S
C4527 C4532 1.350 . S
C4527 N4535 1.427 . S
C4528 H4519 0.930 . S
C4528 C4526 1.378 . S
C4528 C4529 1.367 . S
C4529 C4528 1.367 . S
C4529 C4531 1.433 . S
C4530 C4526 1.350 . S
C4530 C4527 1.463 . S
C4530 N4534 1.427 . S
C4531 H4521 0.929 . S
C4531 C4529 1.433 . S
C4531 N4534 1.384 . S
C4532 H4523 0.929 . S
C4532 C4524 1.378 . S
C4532 C4527 1.350 . S
C4533 H4520 0.929 . S
C4533 C4525 1.433 . S
C4533 N4535 1.384 . S
N4534 C4530 1.427 . S
N4534 C4531 1.384 . S
N4535 C4527 1.427 . S
N4535 C4533 1.384 . S
H4536 C4542 0.930 . S
H4537 C4546 0.930 . S
H4538 C4551 0.929 . S
H4539 C4549 0.929 . S
H4540 C4544 0.929 . S
H4541 C4550 0.929 . S
C4542 H4536 0.930 . S
C4542 C4543 1.367 . S
C4542 C4550 1.378 . S
C4543 C4542 1.367 . S
C4543 C4551 1.433 . S
C4544 H4540 0.929 . S
C4544 C4546 1.378 . S
C4544 C4548 1.350 . S
C4545 C4548 1.463 . S
C4545 C4550 1.350 . S
C4545 N4553 1.427 . S
C4546 H4537 0.930 . S
C4546 C4544 1.378 . S
C4546 C4547 1.367 . S
C4547 C4546 1.367 . S
C4547 C4549 1.433 . S
C4548 C4544 1.350 . S
C4548 C4545 1.463 . S
C4548 N4552 1.427 . S
C4549 H4539 0.929 . S
C4549 C4547 1.433 . S
C4549 N4552 1.384 . S
C4550 H4541 0.929 . S
C4550 C4542 1.378 . S
C4550 C4545 1.350 . S
C4551 H4538 0.929 . S
C4551 C4543 1.433 . S
C4551 N4553 1.384 . S
N4552 C4548 1.427 . S
N4552 C4549 1.384 . S
N4553 C4545 1.427 . S
N4553 C4551 1.384 . S
H4554 C4560 0.930 . S
H4555 C4564 0.930 . S
H4556 C4569 0.929 . S
H4557 C4567 0.929 . S
H4558 C4562 0.929 . S
H4559 C4568 0.929 . S
C4560 H4554 0.930 . S
C4560 C4561 1.367 . S
C4560 C4568 1.378 . S
C4561 C4560 1.367 . S
C4561 C4569 1.433 . S
C4562 H4558 0.929 . S
C4562 C4564 1.378 . S
C4562 C4566 1.350 . S
C4563 C4566 1.463 . S
C4563 C4568 1.350 . S
C4563 N4571 1.427 . S
C4564 H4555 0.930 . S
C4564 C4562 1.378 . S
C4564 C4565 1.367 . S
C4565 C4564 1.367 . S
C4565 C4567 1.433 . S
C4566 C4562 1.350 . S
C4566 C4563 1.463 . S
C4566 N4570 1.427 . S
C4567 H4557 0.929 . S
C4567 C4565 1.433 . S
C4567 N4570 1.384 . S
C4568 H4559 0.929 . S
C4568 C4560 1.378 . S
C4568 C4563 1.350 . S
C4569 H4556 0.929 . S
C4569 C4561 1.433 . S
C4569 N4571 1.384 . S
N4570 C4566 1.427 . S
N4570 C4567 1.384 . S
N4571 C4563 1.427 . S
N4571 C4569 1.384 . S
H4572 C4578 0.930 . S
H4573 C4582 0.930 . S
H4574 C4587 0.929 . S
H4575 C4585 0.929 . S
H4576 C4580 0.929 . S
H4577 C4586 0.929 . S
C4578 H4572 0.930 . S
C4578 C4579 1.367 . S
C4578 C4586 1.378 . S
C4579 C4578 1.367 . S
C4579 C4587 1.433 . S
C4580 H4576 0.929 . S
C4580 C4582 1.378 . S
C4580 C4584 1.350 . S
C4581 C4584 1.463 . S
C4581 C4586 1.350 . S
C4581 N4589 1.427 . S
C4582 H4573 0.930 . S
C4582 C4580 1.378 . S
C4582 C4583 1.367 . S
C4583 C4582 1.367 . S
C4583 C4585 1.433 . S
C4584 C4580 1.350 . S
C4584 C4581 1.463 . S
C4584 N4588 1.427 . S
C4585 H4575 0.929 . S
C4585 C4583 1.433 . S
C4585 N4588 1.384 . S
C4586 H4577 0.929 . S
C4586 C4578 1.378 . S
C4586 C4581 1.350 . S
C4587 H4574 0.929 . S
C4587 C4579 1.433 . S
C4587 N4589 1.384 . S
N4588 C4584 1.427 . S
N4588 C4585 1.384 . S
N4589 C4581 1.427 . S
N4589 C4587 1.384 . S
H4590 C4596 0.930 . S
H4591 C4600 0.930 . S
H4592 C4605 0.929 . S
H4593 C4603 0.929 . S
H4594 C4598 0.929 . S
H4595 C4604 0.929 . S
C4596 H4590 0.930 . S
C4596 C4597 1.367 . S
C4596 C4604 1.378 . S
C4597 C4596 1.367 . S
C4597 C4605 1.433 . S
C4598 H4594 0.929 . S
C4598 C4600 1.378 . S
C4598 C4602 1.350 . S
C4599 C4602 1.463 . S
C4599 C4604 1.350 . S
C4599 N4607 1.427 . S
C4600 H4591 0.930 . S
C4600 C4598 1.378 . S
C4600 C4601 1.367 . S
C4601 C4600 1.367 . S
C4601 C4603 1.433 . S
C4602 C4598 1.350 . S
C4602 C4599 1.463 . S
C4602 N4606 1.427 . S
C4603 H4593 0.929 . S
C4603 C4601 1.433 . S
C4603 N4606 1.384 . S
C4604 H4595 0.929 . S
C4604 C4596 1.378 . S
C4604 C4599 1.350 . S
C4605 H4592 0.929 . S
C4605 C4597 1.433 . S
C4605 N4607 1.384 . S
N4606 C4602 1.427 . S
N4606 C4603 1.384 . S
N4607 C4599 1.427 . S
N4607 C4605 1.384 . S
H4608 C4614 0.930 . S
H4609 C4618 0.930 . S
H4610 C4623 0.929 . S
H4611 C4621 0.929 . S
H4612 C4616 0.929 . S
H4613 C4622 0.929 . S
C4614 H4608 0.930 . S
C4614 C4615 1.367 . S
C4614 C4622 1.378 . S
C4615 C4614 1.367 . S
C4615 C4623 1.433 . S
C4616 H4612 0.929 . S
C4616 C4618 1.378 . S
C4616 C4620 1.350 . S
C4617 C4620 1.463 . S
C4617 C4622 1.350 . S
C4617 N4625 1.427 . S
C4618 H4609 0.930 . S
C4618 C4616 1.378 . S
C4618 C4619 1.367 . S
C4619 C4618 1.367 . S
C4619 C4621 1.433 . S
C4620 C4616 1.350 . S
C4620 C4617 1.463 . S
C4620 N4624 1.427 . S
C4621 H4611 0.929 . S
C4621 C4619 1.433 . S
C4621 N4624 1.384 . S
C4622 H4613 0.929 . S
C4622 C4614 1.378 . S
C4622 C4617 1.350 . S
C4623 H4610 0.929 . S
C4623 C4615 1.433 . S
C4623 N4625 1.384 . S
N4624 C4620 1.427 . S
N4624 C4621 1.384 . S
N4625 C4617 1.427 . S
N4625 C4623 1.384 . S
H4626 C4632 0.930 . S
H4627 C4636 0.930 . S
H4628 C4641 0.929 . S
H4629 C4639 0.929 . S
H4630 C4634 0.929 . S
H4631 C4640 0.929 . S
C4632 H4626 0.930 . S
C4632 C4633 1.367 . S
C4632 C4640 1.378 . S
C4633 C4632 1.367 . S
C4633 C4641 1.433 . S
C4634 H4630 0.929 . S
C4634 C4636 1.378 . S
C4634 C4638 1.350 . S
C4635 C4638 1.463 . S
C4635 C4640 1.350 . S
C4635 N4643 1.427 . S
C4636 H4627 0.930 . S
C4636 C4634 1.378 . S
C4636 C4637 1.367 . S
C4637 C4636 1.367 . S
C4637 C4639 1.433 . S
C4638 C4634 1.350 . S
C4638 C4635 1.463 . S
C4638 N4642 1.427 . S
C4639 H4629 0.929 . S
C4639 C4637 1.433 . S
C4639 N4642 1.384 . S
C4640 H4631 0.929 . S
C4640 C4632 1.378 . S
C4640 C4635 1.350 . S
C4641 H4628 0.929 . S
C4641 C4633 1.433 . S
C4641 N4643 1.384 . S
N4642 C4638 1.427 . S
N4642 C4639 1.384 . S
N4643 C4635 1.427 . S
N4643 C4641 1.384 . S
H4644 C4650 0.930 . S
H4645 C4654 0.930 . S
H4646 C4659 0.929 . S
H4647 C4657 0.929 . S
H4648 C4652 0.929 . S
H4649 C4658 0.929 . S
C4650 H4644 0.930 . S
C4650 C4651 1.367 . S
C4650 C4658 1.378 . S
C4651 C4650 1.367 . S
C4651 C4659 1.433 . S
C4652 H4648 0.929 . S
C4652 C4654 1.378 . S
C4652 C4656 1.350 . S
C4653 C4656 1.463 . S
C4653 C4658 1.350 . S
C4653 N4661 1.427 . S
C4654 H4645 0.930 . S
C4654 C4652 1.378 . S
C4654 C4655 1.367 . S
C4655 C4654 1.367 . S
C4655 C4657 1.433 . S
C4656 C4652 1.350 . S
C4656 C4653 1.463 . S
C4656 N4660 1.427 . S
C4657 H4647 0.929 . S
C4657 C4655 1.433 . S
C4657 N4660 1.384 . S
C4658 H4649 0.929 . S
C4658 C4650 1.378 . S
C4658 C4653 1.350 . S
C4659 H4646 0.929 . S
C4659 C4651 1.433 . S
C4659 N4661 1.384 . S
N4660 C4656 1.427 . S
N4660 C4657 1.384 . S
N4661 C4653 1.427 . S
N4661 C4659 1.384 . S
H4662 C4668 0.930 . S
H4663 C4672 0.930 . S
H4664 C4677 0.929 . S
H4665 C4675 0.929 . S
H4666 C4670 0.929 . S
H4667 C4676 0.929 . S
C4668 H4662 0.930 . S
C4668 C4669 1.367 . S
C4668 C4676 1.378 . S
C4669 C4668 1.367 . S
C4669 C4677 1.433 . S
C4670 H4666 0.929 . S
C4670 C4672 1.378 . S
C4670 C4674 1.350 . S
C4671 C4674 1.463 . S
C4671 C4676 1.350 . S
C4671 N4679 1.427 . S
C4672 H4663 0.930 . S
C4672 C4670 1.378 . S
C4672 C4673 1.367 . S
C4673 C4672 1.367 . S
C4673 C4675 1.433 . S
C4674 C4670 1.350 . S
C4674 C4671 1.463 . S
C4674 N4678 1.427 . S
C4675 H4665 0.929 . S
C4675 C4673 1.433 . S
C4675 N4678 1.384 . S
C4676 H4667 0.929 . S
C4676 C4668 1.378 . S
C4676 C4671 1.350 . S
C4677 H4664 0.929 . S
C4677 C4669 1.433 . S
C4677 N4679 1.384 . S
N4678 C4674 1.427 . S
N4678 C4675 1.384 . S
N4679 C4671 1.427 . S
N4679 C4677 1.384 . S
H4680 C4686 0.930 . S
H4681 C4690 0.930 . S
H4682 C4695 0.929 . S
H4683 C4693 0.929 . S
H4684 C4688 0.929 . S
H4685 C4694 0.929 . S
C4686 H4680 0.930 . S
C4686 C4687 1.367 . S
C4686 C4694 1.378 . S
C4687 C4686 1.367 . S
C4687 C4695 1.433 . S
C4688 H4684 0.929 . S
C4688 C4690 1.378 . S
C4688 C4692 1.350 . S
C4689 C4692 1.463 . S
C4689 C4694 1.350 . S
C4689 N4697 1.427 . S
C4690 H4681 0.930 . S
C4690 C4688 1.378 . S
C4690 C4691 1.367 . S
C4691 C4690 1.367 . S
C4691 C4693 1.433 . S
C4692 C4688 1.350 . S
C4692 C4689 1.463 . S
C4692 N4696 1.427 . S
C4693 H4683 0.929 . S
C4693 C4691 1.433 . S
C4693 N4696 1.384 . S
C4694 H4685 0.929 . S
C4694 C4686 1.378 . S
C4694 C4689 1.350 . S
C4695 H4682 0.929 . S
C4695 C4687 1.433 . S
C4695 N4697 1.384 . S
N4696 C4692 1.427 . S
N4696 C4693 1.384 . S
N4697 C4689 1.427 . S
N4697 C4695 1.384 . S
H4698 C4704 0.930 . S
H4699 C4708 0.930 . S
H4700 C4713 0.929 . S
H4701 C4711 0.929 . S
H4702 C4706 0.929 . S
H4703 C4712 0.929 . S
C4704 H4698 0.930 . S
C4704 C4705 1.367 . S
C4704 C4712 1.378 . S
C4705 C4704 1.367 . S
C4705 C4713 1.433 . S
C4706 H4702 0.929 . S
C4706 C4708 1.378 . S
C4706 C4710 1.350 . S
C4707 C4710 1.463 . S
C4707 C4712 1.350 . S
C4707 N4715 1.427 . S
C4708 H4699 0.930 . S
C4708 C4706 1.378 . S
C4708 C4709 1.367 . S
C4709 C4708 1.367 . S
C4709 C4711 1.433 . S
C4710 C4706 1.350 . S
C4710 C4707 1.463 . S
C4710 N4714 1.427 . S
C4711 H4701 0.929 . S
C4711 C4709 1.433 . S
C4711 N4714 1.384 . S
C4712 H4703 0.929 . S
C4712 C4704 1.378 . S
C4712 C4707 1.350 . S
C4713 H4700 0.929 . S
C4713 C4705 1.433 . S
C4713 N4715 1.384 . S
N4714 C4710 1.427 . S
N4714 C4711 1.384 . S
N4715 C4707 1.427 . S
N4715 C4713 1.384 . S
H4716 C4722 0.930 . S
H4717 C4726 0.930 . S
H4718 C4731 0.929 . S
H4719 C4729 0.929 . S
H4720 C4724 0.929 . S
H4721 C4730 0.929 . S
C4722 H4716 0.930 . S
C4722 C4723 1.367 . S
C4722 C4730 1.378 . S
C4723 C4722 1.367 . S
C4723 C4731 1.433 . S
C4724 H4720 0.929 . S
C4724 C4726 1.378 . S
C4724 C4728 1.350 . S
C4725 C4728 1.463 . S
C4725 C4730 1.350 . S
C4725 N4733 1.427 . S
C4726 H4717 0.930 . S
C4726 C4724 1.378 . S
C4726 C4727 1.367 . S
C4727 C4726 1.367 . S
C4727 C4729 1.433 . S
C4728 C4724 1.350 . S
C4728 C4725 1.463 . S
C4728 N4732 1.427 . S
C4729 H4719 0.929 . S
C4729 C4727 1.433 . S
C4729 N4732 1.384 . S
C4730 H4721 0.929 . S
C4730 C4722 1.378 . S
C4730 C4725 1.350 . S
C4731 H4718 0.929 . S
C4731 C4723 1.433 . S
C4731 N4733 1.384 . S
N4732 C4728 1.427 . S
N4732 C4729 1.384 . S
N4733 C4725 1.427 . S
N4733 C4731 1.384 . S
H4734 C4740 0.930 . S
H4735 C4744 0.930 . S
H4736 C4749 0.929 . S
H4737 C4747 0.929 . S
H4738 C4742 0.929 . S
H4739 C4748 0.929 . S
C4740 H4734 0.930 . S
C4740 C4741 1.367 . S
C4740 C4748 1.378 . S
C4741 C4740 1.367 . S
C4741 C4749 1.433 . S
C4742 H4738 0.929 . S
C4742 C4744 1.378 . S
C4742 C4746 1.350 . S
C4743 C4746 1.463 . S
C4743 C4748 1.350 . S
C4743 N4751 1.427 . S
C4744 H4735 0.930 . S
C4744 C4742 1.378 . S
C4744 C4745 1.367 . S
C4745 C4744 1.367 . S
C4745 C4747 1.433 . S
C4746 C4742 1.350 . S
C4746 C4743 1.463 . S
C4746 N4750 1.427 . S
C4747 H4737 0.929 . S
C4747 C4745 1.433 . S
C4747 N4750 1.384 . S
C4748 H4739 0.929 . S
C4748 C4740 1.378 . S
C4748 C4743 1.350 . S
C4749 H4736 0.929 . S
C4749 C4741 1.433 . S
C4749 N4751 1.384 . S
N4750 C4746 1.427 . S
N4750 C4747 1.384 . S
N4751 C4743 1.427 . S
N4751 C4749 1.384 . S
H4752 C4758 0.930 . S
H4753 C4762 0.930 . S
H4754 C4767 0.929 . S
H4755 C4765 0.929 . S
H4756 C4760 0.929 . S
H4757 C4766 0.929 . S
C4758 H4752 0.930 . S
C4758 C4759 1.367 . S
C4758 C4766 1.378 . S
C4759 C4758 1.367 . S
C4759 C4767 1.433 . S
C4760 H4756 0.929 . S
C4760 C4762 1.378 . S
C4760 C4764 1.350 . S
C4761 C4764 1.463 . S
C4761 C4766 1.350 . S
C4761 N4769 1.427 . S
C4762 H4753 0.930 . S
C4762 C4760 1.378 . S
C4762 C4763 1.367 . S
C4763 C4762 1.367 . S
C4763 C4765 1.433 . S
C4764 C4760 1.350 . S
C4764 C4761 1.463 . S
C4764 N4768 1.427 . S
C4765 H4755 0.929 . S
C4765 C4763 1.433 . S
C4765 N4768 1.384 . S
C4766 H4757 0.929 . S
C4766 C4758 1.378 . S
C4766 C4761 1.350 . S
C4767 H4754 0.929 . S
C4767 C4759 1.433 . S
C4767 N4769 1.384 . S
N4768 C4764 1.427 . S
N4768 C4765 1.384 . S
N4769 C4761 1.427 . S
N4769 C4767 1.384 . S
H4770 C4776 0.930 . S
H4771 C4780 0.930 . S
H4772 C4785 0.929 . S
H4773 C4783 0.929 . S
H4774 C4778 0.929 . S
H4775 C4784 0.929 . S
C4776 H4770 0.930 . S
C4776 C4777 1.367 . S
C4776 C4784 1.378 . S
C4777 C4776 1.367 . S
C4777 C4785 1.433 . S
C4778 H4774 0.929 . S
C4778 C4780 1.378 . S
C4778 C4782 1.350 . S
C4779 C4782 1.463 1_556 S
C4779 C4784 1.350 . S
C4779 N4787 1.427 . S
C4780 H4771 0.930 . S
C4780 C4778 1.378 . S
C4780 C4781 1.367 . S
C4781 C4780 1.367 . S
C4781 C4783 1.433 . S
C4782 C4778 1.350 . S
C4782 C4779 1.463 1_554 S
C4782 N4786 1.427 . S
C4783 H4773 0.929 . S
C4783 C4781 1.433 . S
C4783 N4786 1.384 . S
C4784 H4775 0.929 . S
C4784 C4776 1.378 . S
C4784 C4779 1.350 . S
C4785 H4772 0.929 . S
C4785 C4777 1.433 . S
C4785 N4787 1.384 . S
N4786 C4782 1.427 . S
N4786 C4783 1.384 . S
N4787 C4779 1.427 . S
N4787 C4785 1.384 . S
H4788 C4794 0.930 . S
H4789 C4798 0.930 . S
H4790 C4803 0.929 . S
H4791 C4801 0.929 . S
H4792 C4796 0.929 . S
H4793 C4802 0.929 . S
C4794 H4788 0.930 . S
C4794 C4795 1.367 . S
C4794 C4802 1.378 . S
C4795 C4794 1.367 . S
C4795 C4803 1.433 . S
C4796 H4792 0.929 . S
C4796 C4798 1.378 . S
C4796 C4800 1.350 . S
C4797 C4800 1.463 1_556 S
C4797 C4802 1.350 . S
C4797 N4805 1.427 . S
C4798 H4789 0.930 . S
C4798 C4796 1.378 . S
C4798 C4799 1.367 . S
C4799 C4798 1.367 . S
C4799 C4801 1.433 . S
C4800 C4796 1.350 . S
C4800 C4797 1.463 1_554 S
C4800 N4804 1.427 . S
C4801 H4791 0.929 . S
C4801 C4799 1.433 . S
C4801 N4804 1.384 . S
C4802 H4793 0.929 . S
C4802 C4794 1.378 . S
C4802 C4797 1.350 . S
C4803 H4790 0.929 . S
C4803 C4795 1.433 . S
C4803 N4805 1.384 . S
N4804 C4800 1.427 . S
N4804 C4801 1.384 . S
N4805 C4797 1.427 . S
N4805 C4803 1.384 . S
H4806 C4812 0.930 . S
H4807 C4816 0.930 . S
H4808 C4821 0.929 . S
H4809 C4819 0.929 . S
H4810 C4814 0.929 . S
H4811 C4820 0.929 . S
C4812 H4806 0.930 . S
C4812 C4813 1.367 . S
C4812 C4820 1.378 . S
C4813 C4812 1.367 . S
C4813 C4821 1.433 . S
C4814 H4810 0.929 . S
C4814 C4816 1.378 . S
C4814 C4818 1.350 . S
C4815 C4818 1.463 1_556 S
C4815 C4820 1.350 . S
C4815 N4823 1.427 . S
C4816 H4807 0.930 . S
C4816 C4814 1.378 . S
C4816 C4817 1.367 . S
C4817 C4816 1.367 . S
C4817 C4819 1.433 . S
C4818 C4814 1.350 . S
C4818 C4815 1.463 1_554 S
C4818 N4822 1.427 . S
C4819 H4809 0.929 . S
C4819 C4817 1.433 . S
C4819 N4822 1.384 . S
C4820 H4811 0.929 . S
C4820 C4812 1.378 . S
C4820 C4815 1.350 . S
C4821 H4808 0.929 . S
C4821 C4813 1.433 . S
C4821 N4823 1.384 . S
N4822 C4818 1.427 . S
N4822 C4819 1.384 . S
N4823 C4815 1.427 . S
N4823 C4821 1.384 . S
H4824 C4830 0.930 . S
H4825 C4834 0.930 . S
H4826 C4839 0.929 . S
H4827 C4837 0.929 . S
H4828 C4832 0.929 . S
H4829 C4838 0.929 . S
C4830 H4824 0.930 . S
C4830 C4831 1.367 . S
C4830 C4838 1.378 . S
C4831 C4830 1.367 . S
C4831 C4839 1.433 . S
C4832 H4828 0.929 . S
C4832 C4834 1.378 . S
C4832 C4836 1.350 . S
C4833 C4836 1.463 . S
C4833 C4838 1.350 . S
C4833 N4841 1.427 . S
C4834 H4825 0.930 . S
C4834 C4832 1.378 . S
C4834 C4835 1.367 . S
C4835 C4834 1.367 . S
C4835 C4837 1.433 . S
C4836 C4832 1.350 . S
C4836 C4833 1.463 . S
C4836 N4840 1.427 . S
C4837 H4827 0.929 . S
C4837 C4835 1.433 . S
C4837 N4840 1.384 . S
C4838 H4829 0.929 . S
C4838 C4830 1.378 . S
C4838 C4833 1.350 . S
C4839 H4826 0.929 . S
C4839 C4831 1.433 . S
C4839 N4841 1.384 . S
N4840 C4836 1.427 . S
N4840 C4837 1.384 . S
N4841 C4833 1.427 . S
N4841 C4839 1.384 . S
H4842 C4848 0.930 . S
H4843 C4852 0.930 . S
H4844 C4857 0.929 . S
H4845 C4855 0.929 . S
H4846 C4850 0.929 . S
H4847 C4856 0.929 . S
C4848 H4842 0.930 . S
C4848 C4849 1.367 . S
C4848 C4856 1.378 . S
C4849 C4848 1.367 . S
C4849 C4857 1.433 . S
C4850 H4846 0.929 . S
C4850 C4852 1.378 . S
C4850 C4854 1.350 . S
C4851 C4854 1.463 . S
C4851 C4856 1.350 . S
C4851 N4859 1.427 . S
C4852 H4843 0.930 . S
C4852 C4850 1.378 . S
C4852 C4853 1.367 . S
C4853 C4852 1.367 . S
C4853 C4855 1.433 . S
C4854 C4850 1.350 . S
C4854 C4851 1.463 . S
C4854 N4858 1.427 . S
C4855 H4845 0.929 . S
C4855 C4853 1.433 . S
C4855 N4858 1.384 . S
C4856 H4847 0.929 . S
C4856 C4848 1.378 . S
C4856 C4851 1.350 . S
C4857 H4844 0.929 . S
C4857 C4849 1.433 . S
C4857 N4859 1.384 . S
N4858 C4854 1.427 . S
N4858 C4855 1.384 . S
N4859 C4851 1.427 . S
N4859 C4857 1.384 . S
H4860 C4866 0.930 . S
H4861 C4870 0.930 . S
H4862 C4875 0.929 . S
H4863 C4873 0.929 . S
H4864 C4868 0.929 . S
H4865 C4874 0.929 . S
C4866 H4860 0.930 . S
C4866 C4867 1.367 . S
C4866 C4874 1.378 . S
C4867 C4866 1.367 . S
C4867 C4875 1.433 . S
C4868 H4864 0.929 . S
C4868 C4870 1.378 . S
C4868 C4872 1.350 . S
C4869 C4872 1.463 . S
C4869 C4874 1.350 . S
C4869 N4877 1.427 . S
C4870 H4861 0.930 . S
C4870 C4868 1.378 . S
C4870 C4871 1.367 . S
C4871 C4870 1.367 . S
C4871 C4873 1.433 . S
C4872 C4868 1.350 . S
C4872 C4869 1.463 . S
C4872 N4876 1.427 . S
C4873 H4863 0.929 . S
C4873 C4871 1.433 . S
C4873 N4876 1.384 . S
C4874 H4865 0.929 . S
C4874 C4866 1.378 . S
C4874 C4869 1.350 . S
C4875 H4862 0.929 . S
C4875 C4867 1.433 . S
C4875 N4877 1.384 . S
N4876 C4872 1.427 . S
N4876 C4873 1.384 . S
N4877 C4869 1.427 . S
N4877 C4875 1.384 . S
H4878 C4884 0.930 . S
H4879 C4888 0.930 . S
H4880 C4893 0.929 . S
H4881 C4891 0.929 . S
H4882 C4886 0.929 . S
H4883 C4892 0.929 . S
C4884 H4878 0.930 . S
C4884 C4885 1.367 . S
C4884 C4892 1.378 . S
C4885 C4884 1.367 . S
C4885 C4893 1.433 . S
C4886 H4882 0.929 . S
C4886 C4888 1.378 . S
C4886 C4890 1.350 . S
C4887 C4890 1.463 . S
C4887 C4892 1.350 . S
C4887 N4895 1.427 . S
C4888 H4879 0.930 . S
C4888 C4886 1.378 . S
C4888 C4889 1.367 . S
C4889 C4888 1.367 . S
C4889 C4891 1.433 . S
C4890 C4886 1.350 . S
C4890 C4887 1.463 . S
C4890 N4894 1.427 . S
C4891 H4881 0.929 . S
C4891 C4889 1.433 . S
C4891 N4894 1.384 . S
C4892 H4883 0.929 . S
C4892 C4884 1.378 . S
C4892 C4887 1.350 . S
C4893 H4880 0.929 . S
C4893 C4885 1.433 . S
C4893 N4895 1.384 . S
N4894 C4890 1.427 . S
N4894 C4891 1.384 . S
N4895 C4887 1.427 . S
N4895 C4893 1.384 . S
H4896 C4902 0.930 . S
H4897 C4906 0.930 . S
H4898 C4911 0.929 . S
H4899 C4909 0.929 . S
H4900 C4904 0.929 . S
H4901 C4910 0.929 . S
C4902 H4896 0.930 . S
C4902 C4903 1.367 . S
C4902 C4910 1.378 . S
C4903 C4902 1.367 . S
C4903 C4911 1.433 . S
C4904 H4900 0.929 . S
C4904 C4906 1.378 . S
C4904 C4908 1.350 . S
C4905 C4908 1.463 . S
C4905 C4910 1.350 . S
C4905 N4913 1.427 . S
C4906 H4897 0.930 . S
C4906 C4904 1.378 . S
C4906 C4907 1.367 . S
C4907 C4906 1.367 . S
C4907 C4909 1.433 . S
C4908 C4904 1.350 . S
C4908 C4905 1.463 . S
C4908 N4912 1.427 . S
C4909 H4899 0.929 . S
C4909 C4907 1.433 . S
C4909 N4912 1.384 . S
C4910 H4901 0.929 . S
C4910 C4902 1.378 . S
C4910 C4905 1.350 . S
C4911 H4898 0.929 . S
C4911 C4903 1.433 . S
C4911 N4913 1.384 . S
N4912 C4908 1.427 . S
N4912 C4909 1.384 . S
N4913 C4905 1.427 . S
N4913 C4911 1.384 . S
H4914 C4920 0.930 . S
H4915 C4924 0.930 . S
H4916 C4929 0.929 . S
H4917 C4927 0.929 . S
H4918 C4922 0.929 . S
H4919 C4928 0.929 . S
C4920 H4914 0.930 . S
C4920 C4921 1.367 . S
C4920 C4928 1.378 . S
C4921 C4920 1.367 . S
C4921 C4929 1.433 . S
C4922 H4918 0.929 . S
C4922 C4924 1.378 . S
C4922 C4926 1.350 . S
C4923 C4926 1.463 . S
C4923 C4928 1.350 . S
C4923 N4931 1.427 . S
C4924 H4915 0.930 . S
C4924 C4922 1.378 . S
C4924 C4925 1.367 . S
C4925 C4924 1.367 . S
C4925 C4927 1.433 . S
C4926 C4922 1.350 . S
C4926 C4923 1.463 . S
C4926 N4930 1.427 . S
C4927 H4917 0.929 . S
C4927 C4925 1.433 . S
C4927 N4930 1.384 . S
C4928 H4919 0.929 . S
C4928 C4920 1.378 . S
C4928 C4923 1.350 . S
C4929 H4916 0.929 . S
C4929 C4921 1.433 . S
C4929 N4931 1.384 . S
N4930 C4926 1.427 . S
N4930 C4927 1.384 . S
N4931 C4923 1.427 . S
N4931 C4929 1.384 . S
H4932 C4938 0.930 . S
H4933 C4942 0.930 . S
H4934 C4947 0.929 . S
H4935 C4945 0.929 . S
H4936 C4940 0.929 . S
H4937 C4946 0.929 . S
C4938 H4932 0.930 . S
C4938 C4939 1.367 . S
C4938 C4946 1.378 . S
C4939 C4938 1.367 . S
C4939 C4947 1.433 . S
C4940 H4936 0.929 . S
C4940 C4942 1.378 . S
C4940 C4944 1.350 . S
C4941 C4944 1.463 . S
C4941 C4946 1.350 . S
C4941 N4949 1.427 . S
C4942 H4933 0.930 . S
C4942 C4940 1.378 . S
C4942 C4943 1.367 . S
C4943 C4942 1.367 . S
C4943 C4945 1.433 . S
C4944 C4940 1.350 . S
C4944 C4941 1.463 . S
C4944 N4948 1.427 . S
C4945 H4935 0.929 . S
C4945 C4943 1.433 . S
C4945 N4948 1.384 . S
C4946 H4937 0.929 . S
C4946 C4938 1.378 . S
C4946 C4941 1.350 . S
C4947 H4934 0.929 . S
C4947 C4939 1.433 . S
C4947 N4949 1.384 . S
N4948 C4944 1.427 . S
N4948 C4945 1.384 . S
N4949 C4941 1.427 . S
N4949 C4947 1.384 . S
H4950 C4956 0.930 . S
H4951 C4960 0.930 . S
H4952 C4965 0.929 . S
H4953 C4963 0.929 . S
H4954 C4958 0.929 . S
H4955 C4964 0.929 . S
C4956 H4950 0.930 . S
C4956 C4957 1.367 . S
C4956 C4964 1.378 . S
C4957 C4956 1.367 . S
C4957 C4965 1.433 . S
C4958 H4954 0.929 . S
C4958 C4960 1.378 . S
C4958 C4962 1.350 . S
C4959 C4962 1.463 . S
C4959 C4964 1.350 . S
C4959 N4967 1.427 . S
C4960 H4951 0.930 . S
C4960 C4958 1.378 . S
C4960 C4961 1.367 . S
C4961 C4960 1.367 . S
C4961 C4963 1.433 . S
C4962 C4958 1.350 . S
C4962 C4959 1.463 . S
C4962 N4966 1.427 . S
C4963 H4953 0.929 . S
C4963 C4961 1.433 . S
C4963 N4966 1.384 . S
C4964 H4955 0.929 . S
C4964 C4956 1.378 . S
C4964 C4959 1.350 . S
C4965 H4952 0.929 . S
C4965 C4957 1.433 . S
C4965 N4967 1.384 . S
N4966 C4962 1.427 . S
N4966 C4963 1.384 . S
N4967 C4959 1.427 . S
N4967 C4965 1.384 . S
H4968 C4974 0.930 . S
H4969 C4978 0.930 . S
H4970 C4983 0.929 . S
H4971 C4981 0.929 . S
H4972 C4976 0.929 . S
H4973 C4982 0.929 . S
C4974 H4968 0.930 . S
C4974 C4975 1.367 . S
C4974 C4982 1.378 . S
C4975 C4974 1.367 . S
C4975 C4983 1.433 . S
C4976 H4972 0.929 . S
C4976 C4978 1.378 . S
C4976 C4980 1.350 . S
C4977 C4980 1.463 . S
C4977 C4982 1.350 . S
C4977 N4985 1.427 . S
C4978 H4969 0.930 . S
C4978 C4976 1.378 . S
C4978 C4979 1.367 . S
C4979 C4978 1.367 . S
C4979 C4981 1.433 . S
C4980 C4976 1.350 . S
C4980 C4977 1.463 . S
C4980 N4984 1.427 . S
C4981 H4971 0.929 . S
C4981 C4979 1.433 . S
C4981 N4984 1.384 . S
C4982 H4973 0.929 . S
C4982 C4974 1.378 . S
C4982 C4977 1.350 . S
C4983 H4970 0.929 . S
C4983 C4975 1.433 . S
C4983 N4985 1.384 . S
N4984 C4980 1.427 . S
N4984 C4981 1.384 . S
N4985 C4977 1.427 . S
N4985 C4983 1.384 . S
H4986 C4992 0.930 . S
H4987 C4996 0.930 . S
H4988 C5001 0.929 . S
H4989 C4999 0.929 . S
H4990 C4994 0.929 . S
H4991 C5000 0.929 . S
C4992 H4986 0.930 . S
C4992 C4993 1.367 . S
C4992 C5000 1.378 . S
C4993 C4992 1.367 . S
C4993 C5001 1.433 . S
C4994 H4990 0.929 . S
C4994 C4996 1.378 . S
C4994 C4998 1.350 . S
C4995 C4998 1.463 . S
C4995 C5000 1.350 . S
C4995 N5003 1.427 . S
C4996 H4987 0.930 . S
C4996 C4994 1.378 . S
C4996 C4997 1.367 . S
C4997 C4996 1.367 . S
C4997 C4999 1.433 . S
C4998 C4994 1.350 . S
C4998 C4995 1.463 . S
C4998 N5002 1.427 . S
C4999 H4989 0.929 . S
C4999 C4997 1.433 . S
C4999 N5002 1.384 . S
C5000 H4991 0.929 . S
C5000 C4992 1.378 . S
C5000 C4995 1.350 . S
C5001 H4988 0.929 . S
C5001 C4993 1.433 . S
C5001 N5003 1.384 . S
N5002 C4998 1.427 . S
N5002 C4999 1.384 . S
N5003 C4995 1.427 . S
N5003 C5001 1.384 . S
H5004 C5010 0.930 . S
H5005 C5014 0.930 . S
H5006 C5019 0.929 . S
H5007 C5017 0.929 . S
H5008 C5012 0.929 . S
H5009 C5018 0.929 . S
C5010 H5004 0.930 . S
C5010 C5011 1.367 . S
C5010 C5018 1.378 . S
C5011 C5010 1.367 . S
C5011 C5019 1.433 . S
C5012 H5008 0.929 . S
C5012 C5014 1.378 . S
C5012 C5016 1.350 . S
C5013 C5016 1.463 . S
C5013 C5018 1.350 . S
C5013 N5021 1.427 . S
C5014 H5005 0.930 . S
C5014 C5012 1.378 . S
C5014 C5015 1.367 . S
C5015 C5014 1.367 . S
C5015 C5017 1.433 . S
C5016 C5012 1.350 . S
C5016 C5013 1.463 . S
C5016 N5020 1.427 . S
C5017 H5007 0.929 . S
C5017 C5015 1.433 . S
C5017 N5020 1.384 . S
C5018 H5009 0.929 . S
C5018 C5010 1.378 . S
C5018 C5013 1.350 . S
C5019 H5006 0.929 . S
C5019 C5011 1.433 . S
C5019 N5021 1.384 . S
N5020 C5016 1.427 . S
N5020 C5017 1.384 . S
N5021 C5013 1.427 . S
N5021 C5019 1.384 . S
H5022 C5028 0.930 . S
H5023 C5032 0.930 . S
H5024 C5037 0.929 . S
H5025 C5035 0.929 . S
H5026 C5030 0.929 . S
H5027 C5036 0.929 . S
C5028 H5022 0.930 . S
C5028 C5029 1.367 . S
C5028 C5036 1.378 . S
C5029 C5028 1.367 . S
C5029 C5037 1.433 . S
C5030 H5026 0.929 . S
C5030 C5032 1.378 . S
C5030 C5034 1.350 . S
C5031 C5034 1.463 . S
C5031 C5036 1.350 . S
C5031 N5039 1.427 . S
C5032 H5023 0.930 . S
C5032 C5030 1.378 . S
C5032 C5033 1.367 . S
C5033 C5032 1.367 . S
C5033 C5035 1.433 . S
C5034 C5030 1.350 . S
C5034 C5031 1.463 . S
C5034 N5038 1.427 . S
C5035 H5025 0.929 . S
C5035 C5033 1.433 . S
C5035 N5038 1.384 . S
C5036 H5027 0.929 . S
C5036 C5028 1.378 . S
C5036 C5031 1.350 . S
C5037 H5024 0.929 . S
C5037 C5029 1.433 . S
C5037 N5039 1.384 . S
N5038 C5034 1.427 . S
N5038 C5035 1.384 . S
N5039 C5031 1.427 . S
N5039 C5037 1.384 . S
H5040 C5046 0.930 . S
H5041 C5050 0.930 . S
H5042 C5055 0.929 . S
H5043 C5053 0.929 . S
H5044 C5048 0.929 . S
H5045 C5054 0.929 . S
C5046 H5040 0.930 . S
C5046 C5047 1.367 . S
C5046 C5054 1.378 . S
C5047 C5046 1.367 . S
C5047 C5055 1.433 . S
C5048 H5044 0.929 . S
C5048 C5050 1.378 . S
C5048 C5052 1.350 . S
C5049 C5052 1.463 . S
C5049 C5054 1.350 . S
C5049 N5057 1.427 . S
C5050 H5041 0.930 . S
C5050 C5048 1.378 . S
C5050 C5051 1.367 . S
C5051 C5050 1.367 . S
C5051 C5053 1.433 . S
C5052 C5048 1.350 . S
C5052 C5049 1.463 . S
C5052 N5056 1.427 . S
C5053 H5043 0.929 . S
C5053 C5051 1.433 . S
C5053 N5056 1.384 . S
C5054 H5045 0.929 . S
C5054 C5046 1.378 . S
C5054 C5049 1.350 . S
C5055 H5042 0.929 . S
C5055 C5047 1.433 . S
C5055 N5057 1.384 . S
N5056 C5052 1.427 . S
N5056 C5053 1.384 . S
N5057 C5049 1.427 . S
N5057 C5055 1.384 . S
H5058 C5064 0.930 . S
H5059 C5068 0.930 . S
H5060 C5073 0.929 . S
H5061 C5071 0.929 . S
H5062 C5066 0.929 . S
H5063 C5072 0.929 . S
C5064 H5058 0.930 . S
C5064 C5065 1.367 . S
C5064 C5072 1.378 . S
C5065 C5064 1.367 . S
C5065 C5073 1.433 . S
C5066 H5062 0.929 . S
C5066 C5068 1.378 . S
C5066 C5070 1.350 . S
C5067 C5070 1.463 . S
C5067 C5072 1.350 . S
C5067 N5075 1.427 . S
C5068 H5059 0.930 . S
C5068 C5066 1.378 . S
C5068 C5069 1.367 . S
C5069 C5068 1.367 . S
C5069 C5071 1.433 . S
C5070 C5066 1.350 . S
C5070 C5067 1.463 . S
C5070 N5074 1.427 . S
C5071 H5061 0.929 . S
C5071 C5069 1.433 . S
C5071 N5074 1.384 . S
C5072 H5063 0.929 . S
C5072 C5064 1.378 . S
C5072 C5067 1.350 . S
C5073 H5060 0.929 . S
C5073 C5065 1.433 . S
C5073 N5075 1.384 . S
N5074 C5070 1.427 . S
N5074 C5071 1.384 . S
N5075 C5067 1.427 . S
N5075 C5073 1.384 . S
H5076 C5082 0.930 . S
H5077 C5086 0.930 . S
H5078 C5091 0.929 . S
H5079 C5089 0.929 . S
H5080 C5084 0.929 . S
H5081 C5090 0.929 . S
C5082 H5076 0.930 . S
C5082 C5083 1.367 . S
C5082 C5090 1.378 . S
C5083 C5082 1.367 . S
C5083 C5091 1.433 . S
C5084 H5080 0.929 . S
C5084 C5086 1.378 . S
C5084 C5088 1.350 . S
C5085 C5088 1.463 . S
C5085 C5090 1.350 . S
C5085 N5093 1.427 . S
C5086 H5077 0.930 . S
C5086 C5084 1.378 . S
C5086 C5087 1.367 . S
C5087 C5086 1.367 . S
C5087 C5089 1.433 . S
C5088 C5084 1.350 . S
C5088 C5085 1.463 . S
C5088 N5092 1.427 . S
C5089 H5079 0.929 . S
C5089 C5087 1.433 . S
C5089 N5092 1.384 . S
C5090 H5081 0.929 . S
C5090 C5082 1.378 . S
C5090 C5085 1.350 . S
C5091 H5078 0.929 . S
C5091 C5083 1.433 . S
C5091 N5093 1.384 . S
N5092 C5088 1.427 . S
N5092 C5089 1.384 . S
N5093 C5085 1.427 . S
N5093 C5091 1.384 . S
H5094 C5100 0.930 . S
H5095 C5104 0.930 . S
H5096 C5109 0.929 . S
H5097 C5107 0.929 . S
H5098 C5102 0.929 . S
H5099 C5108 0.929 . S
C5100 H5094 0.930 . S
C5100 C5101 1.367 . S
C5100 C5108 1.378 . S
C5101 C5100 1.367 . S
C5101 C5109 1.433 . S
C5102 H5098 0.929 . S
C5102 C5104 1.378 . S
C5102 C5106 1.350 . S
C5103 C5106 1.463 1_556 S
C5103 C5108 1.350 . S
C5103 N5111 1.427 . S
C5104 H5095 0.930 . S
C5104 C5102 1.378 . S
C5104 C5105 1.367 . S
C5105 C5104 1.367 . S
C5105 C5107 1.433 . S
C5106 C5102 1.350 . S
C5106 C5103 1.463 1_554 S
C5106 N5110 1.427 . S
C5107 H5097 0.929 . S
C5107 C5105 1.433 . S
C5107 N5110 1.384 . S
C5108 H5099 0.929 . S
C5108 C5100 1.378 . S
C5108 C5103 1.350 . S
C5109 H5096 0.929 . S
C5109 C5101 1.433 . S
C5109 N5111 1.384 . S
N5110 C5106 1.427 . S
N5110 C5107 1.384 . S
N5111 C5103 1.427 . S
N5111 C5109 1.384 . S
H5112 C5118 0.930 . S
H5113 C5122 0.930 . S
H5114 C5127 0.929 . S
H5115 C5125 0.929 . S
H5116 C5120 0.929 . S
H5117 C5126 0.929 . S
C5118 H5112 0.930 . S
C5118 C5119 1.367 . S
C5118 C5126 1.378 . S
C5119 C5118 1.367 . S
C5119 C5127 1.433 . S
C5120 H5116 0.929 . S
C5120 C5122 1.378 . S
C5120 C5124 1.350 . S
C5121 C5124 1.463 1_554 S
C5121 C5126 1.350 . S
C5121 N5129 1.427 . S
C5122 H5113 0.930 . S
C5122 C5120 1.378 . S
C5122 C5123 1.367 . S
C5123 C5122 1.367 . S
C5123 C5125 1.433 . S
C5124 C5120 1.350 . S
C5124 C5121 1.463 1_556 S
C5124 N5128 1.427 . S
C5125 H5115 0.929 . S
C5125 C5123 1.433 . S
C5125 N5128 1.384 . S
C5126 H5117 0.929 . S
C5126 C5118 1.378 . S
C5126 C5121 1.350 . S
C5127 H5114 0.929 . S
C5127 C5119 1.433 . S
C5127 N5129 1.384 . S
N5128 C5124 1.427 . S
N5128 C5125 1.384 . S
N5129 C5121 1.427 . S
N5129 C5127 1.384 . S
H5130 C5136 0.930 . S
H5131 C5140 0.930 . S
H5132 C5145 0.929 . S
H5133 C5143 0.929 . S
H5134 C5138 0.929 . S
H5135 C5144 0.929 . S
C5136 H5130 0.930 . S
C5136 C5137 1.367 . S
C5136 C5144 1.378 . S
C5137 C5136 1.367 . S
C5137 C5145 1.433 . S
C5138 H5134 0.929 . S
C5138 C5140 1.378 . S
C5138 C5142 1.350 . S
C5139 C5142 1.463 1_554 S
C5139 C5144 1.350 . S
C5139 N5147 1.427 . S
C5140 H5131 0.930 . S
C5140 C5138 1.378 . S
C5140 C5141 1.367 . S
C5141 C5140 1.367 . S
C5141 C5143 1.433 . S
C5142 C5138 1.350 . S
C5142 C5139 1.463 1_556 S
C5142 N5146 1.427 . S
C5143 H5133 0.929 . S
C5143 C5141 1.433 . S
C5143 N5146 1.384 . S
C5144 H5135 0.929 . S
C5144 C5136 1.378 . S
C5144 C5139 1.350 . S
C5145 H5132 0.929 . S
C5145 C5137 1.433 . S
C5145 N5147 1.384 . S
N5146 C5142 1.427 . S
N5146 C5143 1.384 . S
N5147 C5139 1.427 . S
N5147 C5145 1.384 . S
H5148 C5154 0.930 . S
H5149 C5158 0.930 . S
H5150 C5163 0.929 . S
H5151 C5161 0.929 . S
H5152 C5156 0.929 . S
H5153 C5162 0.929 . S
C5154 H5148 0.930 . S
C5154 C5155 1.367 . S
C5154 C5162 1.378 . S
C5155 C5154 1.367 . S
C5155 C5163 1.433 . S
C5156 H5152 0.929 . S
C5156 C5158 1.378 . S
C5156 C5160 1.350 . S
C5157 C5160 1.463 . S
C5157 C5162 1.350 . S
C5157 N5165 1.427 . S
C5158 H5149 0.930 . S
C5158 C5156 1.378 . S
C5158 C5159 1.367 . S
C5159 C5158 1.367 . S
C5159 C5161 1.433 . S
C5160 C5156 1.350 . S
C5160 C5157 1.463 . S
C5160 N5164 1.427 . S
C5161 H5151 0.929 . S
C5161 C5159 1.433 . S
C5161 N5164 1.384 . S
C5162 H5153 0.929 . S
C5162 C5154 1.378 . S
C5162 C5157 1.350 . S
C5163 H5150 0.929 . S
C5163 C5155 1.433 . S
C5163 N5165 1.384 . S
N5164 C5160 1.427 . S
N5164 C5161 1.384 . S
N5165 C5157 1.427 . S
N5165 C5163 1.384 . S
H5166 C5172 0.930 . S
H5167 C5176 0.930 . S
H5168 C5181 0.929 . S
H5169 C5179 0.929 . S
H5170 C5174 0.929 . S
H5171 C5180 0.929 . S
C5172 H5166 0.930 . S
C5172 C5173 1.367 . S
C5172 C5180 1.378 . S
C5173 C5172 1.367 . S
C5173 C5181 1.433 . S
C5174 H5170 0.929 . S
C5174 C5176 1.378 . S
C5174 C5178 1.350 . S
C5175 C5178 1.463 . S
C5175 C5180 1.350 . S
C5175 N5183 1.427 . S
C5176 H5167 0.930 . S
C5176 C5174 1.378 . S
C5176 C5177 1.367 . S
C5177 C5176 1.367 . S
C5177 C5179 1.433 . S
C5178 C5174 1.350 . S
C5178 C5175 1.463 . S
C5178 N5182 1.427 . S
C5179 H5169 0.929 . S
C5179 C5177 1.433 . S
C5179 N5182 1.384 . S
C5180 H5171 0.929 . S
C5180 C5172 1.378 . S
C5180 C5175 1.350 . S
C5181 H5168 0.929 . S
C5181 C5173 1.433 . S
C5181 N5183 1.384 . S
N5182 C5178 1.427 . S
N5182 C5179 1.384 . S
N5183 C5175 1.427 . S
N5183 C5181 1.384 . S
H5184 C5190 0.930 . S
H5185 C5194 0.930 . S
H5186 C5199 0.929 . S
H5187 C5197 0.929 . S
H5188 C5192 0.929 . S
H5189 C5198 0.929 . S
C5190 H5184 0.930 . S
C5190 C5191 1.367 . S
C5190 C5198 1.378 . S
C5191 C5190 1.367 . S
C5191 C5199 1.433 . S
C5192 H5188 0.929 . S
C5192 C5194 1.378 . S
C5192 C5196 1.350 . S
C5193 C5196 1.463 . S
C5193 C5198 1.350 . S
C5193 N5201 1.427 . S
C5194 H5185 0.930 . S
C5194 C5192 1.378 . S
C5194 C5195 1.367 . S
C5195 C5194 1.367 . S
C5195 C5197 1.433 . S
C5196 C5192 1.350 . S
C5196 C5193 1.463 . S
C5196 N5200 1.427 . S
C5197 H5187 0.929 . S
C5197 C5195 1.433 . S
C5197 N5200 1.384 . S
C5198 H5189 0.929 . S
C5198 C5190 1.378 . S
C5198 C5193 1.350 . S
C5199 H5186 0.929 . S
C5199 C5191 1.433 . S
C5199 N5201 1.384 . S
N5200 C5196 1.427 . S
N5200 C5197 1.384 . S
N5201 C5193 1.427 . S
N5201 C5199 1.384 . S
H5202 C5208 0.930 . S
H5203 C5212 0.930 . S
H5204 C5217 0.929 . S
H5205 C5215 0.929 . S
H5206 C5210 0.929 . S
H5207 C5216 0.929 . S
C5208 H5202 0.930 . S
C5208 C5209 1.367 . S
C5208 C5216 1.378 . S
C5209 C5208 1.367 . S
C5209 C5217 1.433 . S
C5210 H5206 0.929 . S
C5210 C5212 1.378 . S
C5210 C5214 1.350 . S
C5211 C5214 1.463 . S
C5211 C5216 1.350 . S
C5211 N5219 1.427 . S
C5212 H5203 0.930 . S
C5212 C5210 1.378 . S
C5212 C5213 1.367 . S
C5213 C5212 1.367 . S
C5213 C5215 1.433 . S
C5214 C5210 1.350 . S
C5214 C5211 1.463 . S
C5214 N5218 1.427 . S
C5215 H5205 0.929 . S
C5215 C5213 1.433 . S
C5215 N5218 1.384 . S
C5216 H5207 0.929 . S
C5216 C5208 1.378 . S
C5216 C5211 1.350 . S
C5217 H5204 0.929 . S
C5217 C5209 1.433 . S
C5217 N5219 1.384 . S
N5218 C5214 1.427 . S
N5218 C5215 1.384 . S
N5219 C5211 1.427 . S
N5219 C5217 1.384 . S
H5220 C5226 0.930 . S
H5221 C5230 0.930 . S
H5222 C5235 0.929 . S
H5223 C5233 0.929 . S
H5224 C5228 0.929 . S
H5225 C5234 0.929 . S
C5226 H5220 0.930 . S
C5226 C5227 1.367 . S
C5226 C5234 1.378 . S
C5227 C5226 1.367 . S
C5227 C5235 1.433 . S
C5228 H5224 0.929 . S
C5228 C5230 1.378 . S
C5228 C5232 1.350 . S
C5229 C5232 1.463 . S
C5229 C5234 1.350 . S
C5229 N5237 1.427 . S
C5230 H5221 0.930 . S
C5230 C5228 1.378 . S
C5230 C5231 1.367 . S
C5231 C5230 1.367 . S
C5231 C5233 1.433 . S
C5232 C5228 1.350 . S
C5232 C5229 1.463 . S
C5232 N5236 1.427 . S
C5233 H5223 0.929 . S
C5233 C5231 1.433 . S
C5233 N5236 1.384 . S
C5234 H5225 0.929 . S
C5234 C5226 1.378 . S
C5234 C5229 1.350 . S
C5235 H5222 0.929 . S
C5235 C5227 1.433 . S
C5235 N5237 1.384 . S
N5236 C5232 1.427 . S
N5236 C5233 1.384 . S
N5237 C5229 1.427 . S
N5237 C5235 1.384 . S
H5238 C5244 0.930 . S
H5239 C5248 0.930 . S
H5240 C5253 0.929 . S
H5241 C5251 0.929 . S
H5242 C5246 0.929 . S
H5243 C5252 0.929 . S
C5244 H5238 0.930 . S
C5244 C5245 1.367 . S
C5244 C5252 1.378 . S
C5245 C5244 1.367 . S
C5245 C5253 1.433 . S
C5246 H5242 0.929 . S
C5246 C5248 1.378 . S
C5246 C5250 1.350 . S
C5247 C5250 1.463 . S
C5247 C5252 1.350 . S
C5247 N5255 1.427 . S
C5248 H5239 0.930 . S
C5248 C5246 1.378 . S
C5248 C5249 1.367 . S
C5249 C5248 1.367 . S
C5249 C5251 1.433 . S
C5250 C5246 1.350 . S
C5250 C5247 1.463 . S
C5250 N5254 1.427 . S
C5251 H5241 0.929 . S
C5251 C5249 1.433 . S
C5251 N5254 1.384 . S
C5252 H5243 0.929 . S
C5252 C5244 1.378 . S
C5252 C5247 1.350 . S
C5253 H5240 0.929 . S
C5253 C5245 1.433 . S
C5253 N5255 1.384 . S
N5254 C5250 1.427 . S
N5254 C5251 1.384 . S
N5255 C5247 1.427 . S
N5255 C5253 1.384 . S
H5256 C5262 0.930 . S
H5257 C5266 0.930 . S
H5258 C5271 0.929 . S
H5259 C5269 0.929 . S
H5260 C5264 0.929 . S
H5261 C5270 0.929 . S
C5262 H5256 0.930 . S
C5262 C5263 1.367 . S
C5262 C5270 1.378 . S
C5263 C5262 1.367 . S
C5263 C5271 1.433 . S
C5264 H5260 0.929 . S
C5264 C5266 1.378 . S
C5264 C5268 1.350 . S
C5265 C5268 1.463 . S
C5265 C5270 1.350 . S
C5265 N5273 1.427 . S
C5266 H5257 0.930 . S
C5266 C5264 1.378 . S
C5266 C5267 1.367 . S
C5267 C5266 1.367 . S
C5267 C5269 1.433 . S
C5268 C5264 1.350 . S
C5268 C5265 1.463 . S
C5268 N5272 1.427 . S
C5269 H5259 0.929 . S
C5269 C5267 1.433 . S
C5269 N5272 1.384 . S
C5270 H5261 0.929 . S
C5270 C5262 1.378 . S
C5270 C5265 1.350 . S
C5271 H5258 0.929 . S
C5271 C5263 1.433 . S
C5271 N5273 1.384 . S
N5272 C5268 1.427 . S
N5272 C5269 1.384 . S
N5273 C5265 1.427 . S
N5273 C5271 1.384 . S
H5274 C5280 0.930 . S
H5275 C5284 0.930 . S
H5276 C5289 0.929 . S
H5277 C5287 0.929 . S
H5278 C5282 0.929 . S
H5279 C5288 0.929 . S
C5280 H5274 0.930 . S
C5280 C5281 1.367 . S
C5280 C5288 1.378 . S
C5281 C5280 1.367 . S
C5281 C5289 1.433 . S
C5282 H5278 0.929 . S
C5282 C5284 1.378 . S
C5282 C5286 1.350 . S
C5283 C5286 1.463 . S
C5283 C5288 1.350 . S
C5283 N5291 1.427 . S
C5284 H5275 0.930 . S
C5284 C5282 1.378 . S
C5284 C5285 1.367 . S
C5285 C5284 1.367 . S
C5285 C5287 1.433 . S
C5286 C5282 1.350 . S
C5286 C5283 1.463 . S
C5286 N5290 1.427 . S
C5287 H5277 0.929 . S
C5287 C5285 1.433 . S
C5287 N5290 1.384 . S
C5288 H5279 0.929 . S
C5288 C5280 1.378 . S
C5288 C5283 1.350 . S
C5289 H5276 0.929 . S
C5289 C5281 1.433 . S
C5289 N5291 1.384 . S
N5290 C5286 1.427 . S
N5290 C5287 1.384 . S
N5291 C5283 1.427 . S
N5291 C5289 1.384 . S
H5292 C5298 0.930 . S
H5293 C5302 0.930 . S
H5294 C5307 0.929 . S
H5295 C5305 0.929 . S
H5296 C5300 0.929 . S
H5297 C5306 0.929 . S
C5298 H5292 0.930 . S
C5298 C5299 1.367 . S
C5298 C5306 1.378 . S
C5299 C5298 1.367 . S
C5299 C5307 1.433 . S
C5300 H5296 0.929 . S
C5300 C5302 1.378 . S
C5300 C5304 1.350 . S
C5301 C5304 1.463 . S
C5301 C5306 1.350 . S
C5301 N5309 1.427 . S
C5302 H5293 0.930 . S
C5302 C5300 1.378 . S
C5302 C5303 1.367 . S
C5303 C5302 1.367 . S
C5303 C5305 1.433 . S
C5304 C5300 1.350 . S
C5304 C5301 1.463 . S
C5304 N5308 1.427 . S
C5305 H5295 0.929 . S
C5305 C5303 1.433 . S
C5305 N5308 1.384 . S
C5306 H5297 0.929 . S
C5306 C5298 1.378 . S
C5306 C5301 1.350 . S
C5307 H5294 0.929 . S
C5307 C5299 1.433 . S
C5307 N5309 1.384 . S
N5308 C5304 1.427 . S
N5308 C5305 1.384 . S
N5309 C5301 1.427 . S
N5309 C5307 1.384 . S
H5310 C5316 0.930 . S
H5311 C5320 0.930 . S
H5312 C5325 0.929 . S
H5313 C5323 0.929 . S
H5314 C5318 0.929 . S
H5315 C5324 0.929 . S
C5316 H5310 0.930 . S
C5316 C5317 1.367 . S
C5316 C5324 1.378 . S
C5317 C5316 1.367 . S
C5317 C5325 1.433 . S
C5318 H5314 0.929 . S
C5318 C5320 1.378 . S
C5318 C5322 1.350 . S
C5319 C5322 1.463 . S
C5319 C5324 1.350 . S
C5319 N5327 1.427 . S
C5320 H5311 0.930 . S
C5320 C5318 1.378 . S
C5320 C5321 1.367 . S
C5321 C5320 1.367 . S
C5321 C5323 1.433 . S
C5322 C5318 1.350 . S
C5322 C5319 1.463 . S
C5322 N5326 1.427 . S
C5323 H5313 0.929 . S
C5323 C5321 1.433 . S
C5323 N5326 1.384 . S
C5324 H5315 0.929 . S
C5324 C5316 1.378 . S
C5324 C5319 1.350 . S
C5325 H5312 0.929 . S
C5325 C5317 1.433 . S
C5325 N5327 1.384 . S
N5326 C5322 1.427 . S
N5326 C5323 1.384 . S
N5327 C5319 1.427 . S
N5327 C5325 1.384 . S
H5328 C5334 0.930 . S
H5329 C5338 0.930 . S
H5330 C5343 0.929 . S
H5331 C5341 0.929 . S
H5332 C5336 0.929 . S
H5333 C5342 0.929 . S
C5334 H5328 0.930 . S
C5334 C5335 1.367 . S
C5334 C5342 1.378 . S
C5335 C5334 1.367 . S
C5335 C5343 1.433 . S
C5336 H5332 0.929 . S
C5336 C5338 1.378 . S
C5336 C5340 1.350 . S
C5337 C5340 1.463 . S
C5337 C5342 1.350 . S
C5337 N5345 1.427 . S
C5338 H5329 0.930 . S
C5338 C5336 1.378 . S
C5338 C5339 1.367 . S
C5339 C5338 1.367 . S
C5339 C5341 1.433 . S
C5340 C5336 1.350 . S
C5340 C5337 1.463 . S
C5340 N5344 1.427 . S
C5341 H5331 0.929 . S
C5341 C5339 1.433 . S
C5341 N5344 1.384 . S
C5342 H5333 0.929 . S
C5342 C5334 1.378 . S
C5342 C5337 1.350 . S
C5343 H5330 0.929 . S
C5343 C5335 1.433 . S
C5343 N5345 1.384 . S
N5344 C5340 1.427 . S
N5344 C5341 1.384 . S
N5345 C5337 1.427 . S
N5345 C5343 1.384 . S
H5346 C5352 0.930 . S
H5347 C5356 0.930 . S
H5348 C5361 0.929 . S
H5349 C5359 0.929 . S
H5350 C5354 0.929 . S
H5351 C5360 0.929 . S
C5352 H5346 0.930 . S
C5352 C5353 1.367 . S
C5352 C5360 1.378 . S
C5353 C5352 1.367 . S
C5353 C5361 1.433 . S
C5354 H5350 0.929 . S
C5354 C5356 1.378 . S
C5354 C5358 1.350 . S
C5355 C5358 1.463 . S
C5355 C5360 1.350 . S
C5355 N5363 1.427 . S
C5356 H5347 0.930 . S
C5356 C5354 1.378 . S
C5356 C5357 1.367 . S
C5357 C5356 1.367 . S
C5357 C5359 1.433 . S
C5358 C5354 1.350 . S
C5358 C5355 1.463 . S
C5358 N5362 1.427 . S
C5359 H5349 0.929 . S
C5359 C5357 1.433 . S
C5359 N5362 1.384 . S
C5360 H5351 0.929 . S
C5360 C5352 1.378 . S
C5360 C5355 1.350 . S
C5361 H5348 0.929 . S
C5361 C5353 1.433 . S
C5361 N5363 1.384 . S
N5362 C5358 1.427 . S
N5362 C5359 1.384 . S
N5363 C5355 1.427 . S
N5363 C5361 1.384 . S
H5364 C5370 0.930 . S
H5365 C5374 0.930 . S
H5366 C5379 0.929 . S
H5367 C5377 0.929 . S
H5368 C5372 0.929 . S
H5369 C5378 0.929 . S
C5370 H5364 0.930 . S
C5370 C5371 1.367 . S
C5370 C5378 1.378 . S
C5371 C5370 1.367 . S
C5371 C5379 1.433 . S
C5372 H5368 0.929 . S
C5372 C5374 1.378 . S
C5372 C5376 1.350 . S
C5373 C5376 1.463 1_455 S
C5373 C5378 1.350 . S
C5373 N5381 1.427 . S
C5374 H5365 0.930 . S
C5374 C5372 1.378 . S
C5374 C5375 1.367 . S
C5375 C5374 1.367 . S
C5375 C5377 1.433 . S
C5376 C5372 1.350 . S
C5376 C5373 1.463 1_655 S
C5376 N5380 1.427 . S
C5377 H5367 0.929 . S
C5377 C5375 1.433 . S
C5377 N5380 1.384 . S
C5378 H5369 0.929 . S
C5378 C5370 1.378 . S
C5378 C5373 1.350 . S
C5379 H5366 0.929 . S
C5379 C5371 1.433 . S
C5379 N5381 1.384 . S
N5380 C5376 1.427 . S
N5380 C5377 1.384 . S
N5381 C5373 1.427 . S
N5381 C5379 1.384 . S
H5382 C5388 0.930 . S
H5383 C5392 0.930 . S
H5384 C5397 0.929 . S
H5385 C5395 0.929 . S
H5386 C5390 0.929 . S
H5387 C5396 0.929 . S
C5388 H5382 0.930 . S
C5388 C5389 1.367 . S
C5388 C5396 1.378 . S
C5389 C5388 1.367 . S
C5389 C5397 1.433 . S
C5390 H5386 0.929 . S
C5390 C5392 1.378 . S
C5390 C5394 1.350 . S
C5391 C5394 1.463 . S
C5391 C5396 1.350 . S
C5391 N5399 1.427 . S
C5392 H5383 0.930 . S
C5392 C5390 1.378 . S
C5392 C5393 1.367 . S
C5393 C5392 1.367 . S
C5393 C5395 1.433 . S
C5394 C5390 1.350 . S
C5394 C5391 1.463 . S
C5394 N5398 1.427 . S
C5395 H5385 0.929 . S
C5395 C5393 1.433 . S
C5395 N5398 1.384 . S
C5396 H5387 0.929 . S
C5396 C5388 1.378 . S
C5396 C5391 1.350 . S
C5397 H5384 0.929 . S
C5397 C5389 1.433 . S
C5397 N5399 1.384 . S
N5398 C5394 1.427 . S
N5398 C5395 1.384 . S
N5399 C5391 1.427 . S
N5399 C5397 1.384 . S
H5400 C5406 0.930 . S
H5401 C5410 0.930 . S
H5402 C5415 0.929 . S
H5403 C5413 0.929 . S
H5404 C5408 0.929 . S
H5405 C5414 0.929 . S
C5406 H5400 0.930 . S
C5406 C5407 1.367 . S
C5406 C5414 1.378 . S
C5407 C5406 1.367 . S
C5407 C5415 1.433 . S
C5408 H5404 0.929 . S
C5408 C5410 1.378 . S
C5408 C5412 1.350 . S
C5409 C5412 1.463 1_565 S
C5409 C5414 1.350 . S
C5409 N5417 1.427 . S
C5410 H5401 0.930 . S
C5410 C5408 1.378 . S
C5410 C5411 1.367 . S
C5411 C5410 1.367 . S
C5411 C5413 1.433 . S
C5412 C5408 1.350 . S
C5412 C5409 1.463 1_545 S
C5412 N5416 1.427 . S
C5413 H5403 0.929 . S
C5413 C5411 1.433 . S
C5413 N5416 1.384 . S
C5414 H5405 0.929 . S
C5414 C5406 1.378 . S
C5414 C5409 1.350 . S
C5415 H5402 0.929 . S
C5415 C5407 1.433 . S
C5415 N5417 1.384 . S
N5416 C5412 1.427 . S
N5416 C5413 1.384 . S
N5417 C5409 1.427 . S
N5417 C5415 1.384 . S
H5418 C5424 0.930 . S
H5419 C5428 0.930 . S
H5420 C5433 0.929 . S
H5421 C5431 0.929 . S
H5422 C5426 0.929 1_545 S
H5423 C5432 0.929 1_565 S
C5424 H5418 0.930 . S
C5424 C5425 1.367 . S
C5424 C5432 1.378 . S
C5425 C5424 1.367 . S
C5425 C5433 1.433 . S
C5426 H5422 0.929 1_565 S
C5426 C5428 1.378 . S
C5426 C5430 1.350 . S
C5427 C5430 1.463 1_546 S
C5427 C5432 1.350 . S
C5427 N5435 1.427 1_556 S
C5428 H5419 0.930 . S
C5428 C5426 1.378 . S
C5428 C5429 1.367 . S
C5429 C5428 1.367 . S
C5429 C5431 1.433 . S
C5430 C5426 1.350 . S
C5430 C5427 1.463 1_564 S
C5430 N5434 1.427 1_554 S
C5431 H5421 0.929 . S
C5431 C5429 1.433 . S
C5431 N5434 1.384 1_554 S
C5432 H5423 0.929 1_545 S
C5432 C5424 1.378 . S
C5432 C5427 1.350 . S
C5433 H5420 0.929 . S
C5433 C5425 1.433 . S
C5433 N5435 1.384 1_556 S
N5434 C5430 1.427 1_556 S
N5434 C5431 1.384 1_556 S
N5435 C5427 1.427 1_554 S
N5435 C5433 1.384 1_554 S
H5436 C5442 0.930 . S
H5437 C5446 0.930 . S
H5438 C5451 0.929 . S
H5439 C5449 0.929 . S
H5440 C5444 0.929 . S
H5441 C5450 0.929 . S
C5442 H5436 0.930 . S
C5442 C5443 1.367 . S
C5442 C5450 1.378 . S
C5443 C5442 1.367 . S
C5443 C5451 1.433 . S
C5444 H5440 0.929 . S
C5444 C5446 1.378 . S
C5444 C5448 1.350 . S
C5445 C5448 1.463 1_656 S
C5445 C5450 1.350 . S
C5445 N5453 1.427 . S
C5446 H5437 0.930 . S
C5446 C5444 1.378 . S
C5446 C5447 1.367 . S
C5447 C5446 1.367 . S
C5447 C5449 1.433 . S
C5448 C5444 1.350 . S
C5448 C5445 1.463 1_454 S
C5448 N5452 1.427 . S
C5449 H5439 0.929 . S
C5449 C5447 1.433 . S
C5449 N5452 1.384 . S
C5450 H5441 0.929 . S
C5450 C5442 1.378 . S
C5450 C5445 1.350 . S
C5451 H5438 0.929 . S
C5451 C5443 1.433 . S
C5451 N5453 1.384 . S
N5452 C5448 1.427 . S
N5452 C5449 1.384 . S
N5453 C5445 1.427 . S
N5453 C5451 1.384 . S
H5454 C5460 0.930 . S
H5455 C5464 0.930 . S
H5456 C5469 0.929 . S
H5457 C5467 0.929 . S
H5458 C5462 0.929 1_556 S
H5459 C5468 0.929 1_554 S
C5460 H5454 0.930 . S
C5460 C5461 1.367 . S
C5460 C5468 1.378 . S
C5461 C5460 1.367 . S
C5461 C5469 1.433 . S
C5462 H5458 0.929 1_554 S
C5462 C5464 1.378 . S
C5462 C5466 1.350 . S
C5463 C5466 1.463 1_556 S
C5463 C5468 1.350 . S
C5463 N5471 1.427 . S
C5464 H5455 0.930 . S
C5464 C5462 1.378 . S
C5464 C5465 1.367 . S
C5465 C5464 1.367 . S
C5465 C5467 1.433 . S
C5466 C5462 1.350 . S
C5466 C5463 1.463 1_554 S
C5466 N5470 1.427 . S
C5467 H5457 0.929 . S
C5467 C5465 1.433 . S
C5467 N5470 1.384 . S
C5468 H5459 0.929 1_556 S
C5468 C5460 1.378 . S
C5468 C5463 1.350 . S
C5469 H5456 0.929 . S
C5469 C5461 1.433 . S
C5469 N5471 1.384 . S
N5470 C5466 1.427 . S
N5470 C5467 1.384 . S
N5471 C5463 1.427 . S
N5471 C5469 1.384 . S
C3211 C1 1.955 . S
C3215 C1425 1.946 . S
C3229 C1514 1.948 . S
C3233 C90 1.953 . S
C3247 C1336 1.956 . S
C3251 C179 1.945 . S
C3265 C2315 1.948 . S
C3269 C268 1.953 . S
C3283 C357 1.941 . S
C3287 C2137 1.960 . S
C3301 C446 1.944 . S
C3305 C2226 1.958 . S
C3319 C535 1.949 . S
C3323 C3027 1.951 . S
C3337 C3116 1.958 . S
C3341 C624 1.943 . S
C3355 C713 1.945 . S
C3359 C2938 1.955 . S
C3373 C1781 1.941 . S
C3377 C802 1.960 . S
C3391 C1603 1.946 . S
C3395 C891 1.955 . S
C3409 C1692 1.951 . S
C3413 C980 1.951 . S
C3427 C2493 1.955 . S
C3431 C1069 1.946 . S
C3445 C1158 1.960 . S
C3449 C2582 1.941 . S
C3463 C1247 1.941 . S
C3467 C2404 1.960 . S
C3481 C2849 1.944 . S
C3485 C1870 1.957 . S
C3499 C1959 1.960 . S
C3503 C2671 1.941 . S
C3517 C2048 1.952 . S
C3521 C2760 1.950 . S
C3535 C26 1.337 . S
C3539 C696 1.409 1_554 S
C3553 C785 1.391 1_554 S
C3557 C115 1.344 . S
C3571 C607 1.396 1_554 S
C3575 C204 1.350 . S
C3589 C293 1.336 . S
C3593 C1052 1.409 . S
C3607 C382 1.334 . S
C3611 C874 1.411 . S
C3625 C963 1.401 . S
C3629 C471 1.347 . S
C3643 C560 1.350 . S
C3647 C162 1.395 1_556 S
C3661 C251 1.395 1_556 S
C3665 C649 1.338 . S
C3679 C73 1.402 1_556 S
C3683 C738 1.345 . S
C3697 C518 1.411 . S
C3701 C827 1.334 . S
C3715 C340 1.395 . S
C3719 C916 1.341 . S
C3733 C1005 1.350 . S
C3737 C429 1.397 . S
C3751 C1094 1.338 . S
C3755 C1764 1.396 . S
C3769 C1853 1.407 . S
C3773 C1183 1.339 . S
C3787 C1675 1.399 . S
C3791 C1272 1.349 . S
C3805 C1361 1.325 . S
C3809 C2120 1.409 . S
C3823 C1450 1.324 . S
C3827 C1942 1.412 . S
C3841 C2031 1.401 . S
C3845 C1539 1.332 . S
C3859 C1230 1.392 . S
C3863 C1628 1.347 . S
C3877 C1717 1.343 . S
C3881 C1319 1.393 . S
C3895 C1141 1.396 . S
C3899 C1806 1.350 . S
C3913 C1895 1.348 . S
C3917 C1586 1.398 . S
C3931 C1408 1.392 . S
C3935 C1984 1.350 . S
C3949 C2073 1.332 . S
C3953 C1497 1.411 . S
C3967 C2162 1.325 . S
C3971 C2832 1.413 . S
C3985 C2251 1.349 . S
C3989 C2921 1.398 . S
C4003 C2340 1.351 . S
C4007 C2743 1.395 . S
C4021 C3188 1.399 . S
C4025 C2429 1.334 . S
C4039 C3010 1.402 . S
C4043 C2518 1.331 . S
C4057 C3099 1.409 . S
C4061 C2607 1.325 . S
C4075 C2696 1.347 . S
C4079 C2298 1.400 . S
C4093 C2387 1.398 . S
C4097 C2785 1.349 . S
C4111 C2209 1.404 . S
C4115 C2874 1.343 . S
C4129 C2963 1.350 . S
C4133 C2654 1.396 . S
C4147 C3052 1.351 . S
C4151 C2476 1.393 . S
C4165 C3141 1.326 . S
C4169 C2565 1.413 . S
C4183 C508 1.174 . S
C4187 C63 1.172 . S
C4201 C330 1.160 . S
C4205 C152 1.162 . S
C4219 C419 1.160 . S
C4223 C241 1.162 . S
C4237 C1042 1.161 . S
C4241 C597 1.163 . S
C4255 C686 1.173 . S
C4259 C864 1.170 . S
C4273 C953 1.166 . S
C4277 C775 1.170 . S
C4291 C1576 1.161 . S
C4295 C1131 1.161 . S
C4309 C1398 1.172 . S
C4313 C1220 1.173 . S
C4327 C1487 1.161 . S
C4331 C1309 1.162 . S
C4345 C1665 1.173 . S
C4349 C2110 1.174 . S
C4363 C1932 1.170 . S
C4367 C1754 1.166 . S
C4381 C1843 1.166 . S
C4385 C2021 1.162 . S
C4399 C2644 1.173 . S
C4403 C2199 1.171 . S
C4417 C2466 1.162 . S
C4421 C2288 1.161 . S
C4435 C2555 1.166 . S
C4439 C2377 1.169 . S
C4453 C3178 1.165 . S
C4457 C2733 1.168 . S
C4471 C2822 1.168 . S
C4475 C3000 1.164 . S
C4489 C2911 1.161 . S
C4493 C3089 1.164 . S
C4507 C70 2.481 . S
C4511 C951 2.331 . S
C4525 C159 2.476 . S
C4529 C1040 2.339 . S
C4543 C862 2.330 . S
C4547 C248 2.481 . S
C4561 C773 2.329 . S
C4565 C337 2.480 . S
C4579 C426 2.478 . S
C4583 C595 2.341 . S
C4597 C684 2.328 . S
C4601 C515 2.478 . S
C4615 C604 2.480 . S
C4619 C417 2.328 . S
C4633 C506 2.328 . S
C4637 C693 2.478 . S
C4651 C782 2.481 . S
C4655 C328 2.329 . S
C4669 C239 2.332 . S
C4673 C871 2.481 . S
C4687 C960 2.475 . S
C4691 C61 2.332 . S
C4705 C1049 2.477 . S
C4709 C150 2.328 . S
C4723 C2019 2.341 . S
C4727 C1138 2.478 . S
C4741 C2108 2.332 . S
C4745 C1227 2.475 . S
C4759 C1930 2.340 . S
C4763 C1316 2.480 . S
C4777 C1405 2.482 . S
C4781 C1841 2.337 . S
C4795 C1494 2.476 . S
C4799 C1663 2.340 . S
C4813 C1583 2.482 . S
C4817 C1752 2.336 . S
C4831 C1485 2.330 . S
C4835 C1672 2.481 . S
C4849 C1761 2.481 . S
C4853 C1574 2.337 . S
C4867 C1396 2.340 . S
C4871 C1850 2.480 . S
C4885 C1307 2.334 . S
C4889 C1939 2.482 . S
C4903 C2028 2.475 . S
C4907 C1129 2.331 . S
C4921 C1218 2.337 . S
C4925 C2117 2.475 . S
C4939 C2206 2.476 . S
C4943 C3087 2.340 . S
C4957 C2295 2.478 . S
C4961 C3176 2.328 . S
C4975 C2384 2.479 . S
C4979 C2998 2.341 . S
C4993 C2909 2.339 . S
C4997 C2473 2.476 . S
C5011 C2731 2.331 . S
C5015 C2562 2.475 . S
C5029 C2820 2.341 . S
C5033 C2651 2.479 . S
C5047 C2553 2.331 . S
C5051 C2740 2.481 . S
C5065 C2829 2.481 . S
C5069 C2642 2.339 . S
C5083 C2918 2.475 . S
C5087 C2464 2.337 . S
C5101 C2375 2.341 . S
C5105 C3007 2.477 . S
C5119 C3096 2.479 . S
C5123 C2197 2.328 . S
C5137 C3185 2.479 . S
C5141 C2286 2.328 . S
C5155 C1620 0.435 . S
C5159 C18 0.435 . S
C5173 C1709 0.429 . S
C5177 C107 0.429 . S
C5191 C196 0.443 . S
C5195 C1798 0.443 . S
C5209 C2955 0.430 . S
C5213 C285 0.430 . S
C5227 C3044 0.419 . S
C5231 C374 0.419 . S
C5245 C3133 0.432 . S
C5249 C463 0.432 . S
C5263 C2154 0.441 . S
C5267 C552 0.441 . S
C5281 C641 0.435 . S
C5285 C2243 0.435 . S
C5299 C730 0.433 . S
C5303 C2332 0.433 . S
C5317 C1353 0.425 . S
C5321 C819 0.425 . S
C5335 C1442 0.419 . S
C5339 C908 0.419 . S
C5353 C997 0.418 . S
C5357 C1531 0.418 . S
C5371 C2688 0.434 . S
C5375 C1086 0.434 . S
C5389 C2777 0.437 . S
C5393 C1175 0.437 . S
C5407 C2866 0.426 . S
C5411 C1264 0.426 . S
C5425 C1887 0.429 . S
C5429 C2421 0.429 . S
C5443 C1976 0.418 . S
C5447 C2510 0.418 . S
C5461 C2065 0.438 . S
C5465 C2599 0.438 . S
