# Generated by pormake.
# Topology smu, (6)-cn, num edge types: 1
# Building blocks:
#     Node 0, Type 0, BuildingBlock: UKALOJ_clean_sbu_0, # of connection points: 6
#     Node 1, Type 0, BuildingBlock: UKALOJ_clean_sbu_0, # of connection points: 6
#     Node 2, Type 0, BuildingBlock: UKALOJ_clean_sbu_0, # of connection points: 6
#     Node 3, Type 0, BuildingBlock: UKALOJ_clean_sbu_0, # of connection points: 6
#     Node 4, Type 0, BuildingBlock: UKALOJ_clean_sbu_0, # of connection points: 6
#     Node 5, Type 0, BuildingBlock: UKALOJ_clean_sbu_0, # of connection points: 6
#     Edge 6, Type (0, 0), BuildingBlock: XUDNAN_clean_linker_2, # of connection points: 2
#     Edge 7, Type (0, 0), BuildingBlock: XUDNAN_clean_linker_2, # of connection points: 2
#     Edge 8, Type (0, 0), BuildingBlock: XUDNAN_clean_linker_2, # of connection points: 2
#     Edge 9, Type (0, 0), BuildingBlock: XUDNAN_clean_linker_2, # of connection points: 2
#     Edge 10, Type (0, 0), BuildingBlock: XUDNAN_clean_linker_2, # of connection points: 2
#     Edge 11, Type (0, 0), BuildingBlock: XUDNAN_clean_linker_2, # of connection points: 2
#     Edge 12, Type (0, 0), BuildingBlock: XUDNAN_clean_linker_2, # of connection points: 2
#     Edge 13, Type (0, 0), BuildingBlock: XUDNAN_clean_linker_2, # of connection points: 2
#     Edge 14, Type (0, 0), BuildingBlock: XUDNAN_clean_linker_2, # of connection points: 2
#     Edge 15, Type (0, 0), BuildingBlock: XUDNAN_clean_linker_2, # of connection points: 2
#     Edge 16, Type (0, 0), BuildingBlock: XUDNAN_clean_linker_2, # of connection points: 2
#     Edge 17, Type (0, 0), BuildingBlock: XUDNAN_clean_linker_2, # of connection points: 2
#     Edge 18, Type (0, 0), BuildingBlock: XUDNAN_clean_linker_2, # of connection points: 2
#     Edge 19, Type (0, 0), BuildingBlock: XUDNAN_clean_linker_2, # of connection points: 2
#     Edge 20, Type (0, 0), BuildingBlock: XUDNAN_clean_linker_2, # of connection points: 2
#     Edge 21, Type (0, 0), BuildingBlock: XUDNAN_clean_linker_2, # of connection points: 2
#     Edge 22, Type (0, 0), BuildingBlock: XUDNAN_clean_linker_2, # of connection points: 2
#     Edge 23, Type (0, 0), BuildingBlock: XUDNAN_clean_linker_2, # of connection points: 2
# Relax obj value: 0.182
# Max RMSD: 0.229
# Mean RMSD: 0.229
data_MOF--net-smu--node1-UKALOJ_clean_sbu_0--edge1-XUDNAN_clean_linker_2
_symmetry_space_group_name_H-M    P1
_symmetry_Int_Tables_number       1
_symmetry_cell_setting            triclinic
loop_
_symmetry_equiv_pos_as_xyz
'x, y, z'
_cell_length_a     27.436247
_cell_length_b     27.507876
_cell_length_c     39.819682
_cell_angle_alpha  89.98662
_cell_angle_beta   90.153397
_cell_angle_gamma 119.87383
loop_
_atom_site_label
_atom_site_type_symbol
_atom_site_fract_x
_atom_site_fract_y
_atom_site_fract_z
_atom_type_partial_charge
Zn0 Zn 0.32297 0.0515 0.29336 0.0
O1 O 0.26995 0.08444 0.30268 0.0
C2 C 0.2364 0.95541 0.25613 0.0
Zn3 Zn 0.32608 0.07032 0.2388 0.0
C4 C 0.25194 0.10032 0.27803 0.0
O5 O 0.26538 0.09485 0.24833 0.0
C6 C 0.4032 0.02915 0.2556 0.0
O7 O 0.38864 0.15352 0.24716 0.0
O8 O 0.39057 0.13264 0.3002 0.0
N9 N 0.32257 0.08654 0.18862 0.0
C10 C 0.32689 0.06272 0.15992 0.0
C11 C 0.30583 0.12494 0.14628 0.0
N12 N 0.30953 0.12514 0.17997 0.0
N13 N 0.3161 0.08593 0.13292 0.0
C14 C 0.28937 0.0131 0.36846 0.0
C15 C 0.3705 0.0397 0.38916 0.0
N16 N 0.32708 0.03623 0.34333 0.0
N17 N 0.37729 0.05244 0.35633 0.0
N18 N 0.31576 0.0149 0.39773 0.0
H19 H 0.21805 0.00575 0.34067 0.0
H20 H 0.21047 0.00277 0.38584 0.0
H21 H 0.20584 0.94426 0.36263 0.0
C22 C 0.22749 0.99066 0.36416 0.0
C23 C 0.34658 0.02073 0.1588 0.0
H24 H 0.39028 0.04069 0.16843 0.0
H25 H 0.34699 0.00571 0.13312 0.0
H26 H 0.3199 0.98475 0.17536 0.0
O27 O 0.38882 0.04875 0.23102 0.0
O28 O 0.37857 0.02195 0.28362 0.0
C29 C 0.408 0.16853 0.2767 0.0
O30 O 0.25387 0.97144 0.2859 0.0
O31 O 0.26196 0.98761 0.2316 0.0
Zn32 Zn 0.71758 0.65999 0.24993 0.0
O33 O 0.75096 0.60475 0.2422 0.0
C34 C 0.62266 0.57219 0.28853 0.0
Zn35 Zn 0.73476 0.66703 0.30553 0.0
C36 C 0.77276 0.59611 0.26819 0.0
O37 O 0.76861 0.61517 0.2964 0.0
C38 C 0.68952 0.73861 0.28732 0.0
O39 O 0.81588 0.73566 0.29745 0.0
O40 O 0.79851 0.72763 0.24306 0.0
N41 N 0.74922 0.66374 0.35623 0.0
C42 C 0.74816 0.69117 0.3842 0.0
C43 C 0.75711 0.62211 0.40012 0.0
N44 N 0.75498 0.62107 0.36641 0.0
N45 N 0.75246 0.66537 0.41215 0.0
C46 C 0.72338 0.68178 0.17115 0.0
C47 C 0.63682 0.63314 0.15799 0.0
N48 N 0.69548 0.65593 0.19947 0.0
N49 N 0.64173 0.62543 0.19098 0.0
N50 N 0.68749 0.66864 0.14491 0.0
H51 H 0.79786 0.76021 0.17793 0.0
H52 H 0.80031 0.7206 0.14253 0.0
H53 H 0.80642 0.69971 0.18453 0.0
C54 C 0.78577 0.71758 0.16881 0.0
C55 C 0.74611 0.74453 0.38386 0.0
H56 H 0.76922 0.77029 0.36181 0.0
H57 H 0.76499 0.76917 0.40708 0.0
H58 H 0.70165 0.73434 0.38216 0.0
O59 O 0.70318 0.7205 0.3129 0.0
O60 O 0.68908 0.7184 0.25846 0.0
C61 C 0.83241 0.75089 0.26743 0.0
O62 O 0.63745 0.59078 0.25895 0.0
O63 O 0.65535 0.59762 0.31288 0.0
Zn64 Zn 0.91859 0.2589 0.30458 0.0
O65 O 0.89609 0.1752 0.31253 0.0
C66 C 0.0279 0.28149 0.27851 0.0
Zn67 Zn 0.91447 0.24578 0.24872 0.0
C68 C 0.88408 0.14183 0.28788 0.0
O69 O 0.89111 0.16084 0.25809 0.0
C70 C 0.93979 0.36045 0.26579 0.0
O71 O 0.82885 0.21998 0.24716 0.0
O72 O 0.83154 0.23075 0.30221 0.0
N73 N 0.91835 0.23318 0.19812 0.0
C74 C 0.91132 0.25655 0.17 0.0
C75 C 0.94583 0.20562 0.15524 0.0
N76 N 0.9395 0.20138 0.18875 0.0
N77 N 0.92906 0.24041 0.14254 0.0
C78 C 0.95235 0.26701 0.38042 0.0
C79 C 0.90816 0.30357 0.40325 0.0
N80 N 0.92094 0.27251 0.35609 0.0
N81 N 0.89321 0.2949 0.37049 0.0
N82 N 0.94554 0.28667 0.41011 0.0
H83 H 0.9729 0.21049 0.35435 0.0
H84 H 0.98815 0.21799 0.39883 0.0
H85 H 0.03173 0.27326 0.37051 0.0
C86 C 0.98796 0.24028 0.37563 0.0
C87 C 0.88436 0.29235 0.16984 0.0
H88 H 0.85561 0.28195 0.19154 0.0
H89 H 0.86032 0.28623 0.14626 0.0
H90 H 0.91736 0.33708 0.17201 0.0
O91 O 0.9338 0.32944 0.24067 0.0
O92 O 0.93772 0.34213 0.29539 0.0
C93 C 0.8037 0.21501 0.27482 0.0
O94 O 0.00453 0.28371 0.30545 0.0
O95 O 0.00018 0.26906 0.25125 0.0
Zn96 Zn 0.05956 0.32332 0.7993 0.0
O97 O 0.14134 0.38449 0.81227 0.0
C98 C 0.03611 0.40749 0.77271 0.0
Zn99 Zn 0.07713 0.33278 0.74395 0.0
C100 C 0.17648 0.40691 0.78853 0.0
O101 O 0.16 0.39464 0.75817 0.0
C102 C 0.96251 0.24361 0.75569 0.0
O103 O 0.10547 0.27461 0.74285 0.0
O104 O 0.08928 0.26598 0.79723 0.0
N105 N 0.09657 0.35251 0.69375 0.0
C106 C 0.07547 0.32315 0.665 0.0
C107 C 0.13478 0.40692 0.65108 0.0
N108 N 0.13357 0.40449 0.68491 0.0
N109 N 0.09832 0.3565 0.63792 0.0
C110 C 0.03833 0.32751 0.87737 0.0
C111 C -0.00522 0.23994 0.88759 0.0
N112 N 0.03629 0.30076 0.84845 0.0
N113 N 0.00923 0.24646 0.85505 0.0
N114 N 0.01209 0.28993 0.90256 0.0
H115 H 0.09793 0.4104 0.85977 0.0
H116 H 0.09034 0.40361 0.90489 0.0
H117 H 0.03624 0.40409 0.8791 0.0
C118 C 0.06771 0.39003 0.88053 0.0
C119 C 0.03506 0.26145 0.66337 0.0
H120 H 0.03988 0.23994 0.68562 0.0
H121 H 0.04184 0.24319 0.64021 0.0
H122 H 0.99167 0.25447 0.66266 0.0
O123 O -0.00452 0.26967 0.73163 0.0
O124 O 0.97845 0.25967 0.7856 0.0
C125 C 0.10814 0.25448 0.77108 0.0
O126 O 0.03383 0.38378 0.80053 0.0
O127 O 0.05068 0.39224 0.74625 0.0
Zn128 Zn 0.25072 0.91812 0.79751 0.0
O129 O 0.2213 0.8311 0.79762 0.0
C130 C 0.36512 0.94314 0.78004 0.0
Zn131 Zn 0.26416 0.92396 0.7419 0.0
C132 C 0.21879 0.80806 0.76948 0.0
O133 O 0.23777 0.83813 0.74327 0.0
C134 C 0.28832 0.03237 0.76874 0.0
O135 O 0.18017 0.90056 0.7342 0.0
O136 O 0.16729 0.89873 0.78874 0.0
N137 N 0.27806 0.92502 0.69131 0.0
C138 C 0.25619 0.93707 0.66429 0.0
C139 C 0.31834 0.91859 0.64634 0.0
N140 N 0.31661 0.91353 0.68002 0.0
N141 N 0.28066 0.93308 0.63591 0.0
C142 C 0.26909 0.95771 0.87235 0.0
C143 C 0.19726 0.89284 0.89695 0.0
N144 N 0.23892 0.91849 0.8489 0.0
N145 N 0.19441 0.87814 0.86434 0.0
N146 N 0.24352 0.94296 0.90266 0.0
H147 H 0.34633 0.00432 0.84398 0.0
H148 H 0.35257 0.01983 0.88817 0.0
H149 H 0.31783 0.04487 0.8606 0.0
C150 C 0.32474 0.00927 0.86587 0.0
C151 C 0.21319 0.9554 0.66573 0.0
H152 H 0.17067 0.91782 0.66481 0.0
H153 H 0.21748 0.98239 0.64394 0.0
H154 H 0.21732 0.97851 0.68932 0.0
O155 O 0.28708 0.00916 0.74095 0.0
O156 O 0.27758 0.00436 0.79577 0.0
C157 C 0.14758 0.89048 0.75901 0.0
O158 O 0.3326 0.93371 0.80479 0.0
O159 O 0.34794 0.94414 0.75056 0.0
Zn160 Zn 0.65807 0.7238 0.74783 0.0
O161 O 0.71801 0.80572 0.73718 0.0
C162 C 0.74653 0.69682 0.76809 0.0
Zn163 Zn 0.67941 0.73774 0.80273 0.0
C164 C 0.74755 0.83914 0.76024 0.0
O165 O 0.74222 0.82125 0.7902 0.0
C166 C 0.58313 0.62507 0.79012 0.0
O167 O 0.62374 0.76679 0.80833 0.0
O168 O 0.60011 0.75335 0.75474 0.0
N169 N 0.70495 0.75523 0.85199 0.0
C170 C 0.68001 0.73939 0.88234 0.0
C171 C 0.76716 0.7958 0.89097 0.0
N172 N 0.75904 0.79015 0.85758 0.0
N173 N 0.71834 0.76427 0.90723 0.0
C174 C 0.67529 0.71622 0.671 0.0
C175 C 0.59224 0.67479 0.65094 0.0
N176 N 0.64011 0.70854 0.69677 0.0
N177 N 0.5885 0.6831 0.68411 0.0
N178 N 0.64634 0.69491 0.64215 0.0
H179 H 0.75489 0.77419 0.69517 0.0
H180 H 0.75734 0.77029 0.65018 0.0
H181 H 0.75214 0.71462 0.6759 0.0
C182 C 0.73832 0.7459 0.67341 0.0
C183 C 0.61817 0.70213 0.88735 0.0
H184 H 0.59437 0.7047 0.86552 0.0
H185 H 0.60425 0.71379 0.91062 0.0
H186 H 0.60897 0.65821 0.88986 0.0
O187 O 0.61434 0.65582 0.81394 0.0
O188 O 0.59477 0.64231 0.75994 0.0
C189 C 0.5961 0.77058 0.78383 0.0
O190 O 0.7182 0.69702 0.74287 0.0
O191 O 0.7364 0.70992 0.79667 0.0
H192 H 0.22927 0.89973 0.96572 0.0
H193 H 0.28701 0.0554 0.91133 0.0
H194 H 0.31812 0.10821 0.96417 0.0
H195 H 0.17135 0.94137 0.03452 0.0
H196 H 0.18861 0.90531 0.06606 0.0
H197 H 0.17488 0.87963 0.0235 0.0
H198 H 0.2717 0.88473 1.0218 0.0
H199 H 0.28599 0.91107 0.06424 0.0
H200 H 0.33445 0.95016 0.03111 0.0
H201 H 0.34521 0.14487 0.02242 0.0
H202 H 0.35551 0.16238 0.08356 0.0
H203 H 0.26851 0.98326 0.10182 0.0
C204 C 0.24883 0.94496 0.96501 0.0
C205 C 0.25894 0.97362 0.93401 0.0
C206 C 0.28261 0.03266 0.93425 0.0
C207 C 0.29962 0.06308 0.96432 0.0
C208 C 0.29099 0.03382 0.99424 0.0
C209 C 0.26492 0.97601 0.99501 0.0
C210 C 0.257 0.95491 0.03095 0.0
C211 C 0.19423 0.91814 0.03924 0.0
C212 C 0.28921 0.92335 0.03739 0.0
C213 C 0.28315 0.00998 0.05011 0.0
C214 C 0.30315 0.0549 0.02831 0.0
C215 C 0.3296 0.11004 0.03977 0.0
C216 C 0.33533 0.1196 0.07448 0.0
C217 C 0.31441 0.0744 0.09747 0.0
C218 C 0.28736 0.01878 0.08498 0.0
H219 H 0.62076 0.7155 0.57924 0.0
H220 H 0.71552 0.65267 0.63296 0.0
H221 H 0.759 0.64756 0.58016 0.0
H222 H 0.59089 0.62213 0.50754 0.0
H223 H 0.59475 0.67247 0.47713 0.0
H224 H 0.57347 0.67482 0.51957 0.0
H225 H 0.65264 0.77845 0.52423 0.0
H226 H 0.67468 0.77609 0.48195 0.0
H227 H 0.72432 0.79646 0.5161 0.0
H228 H 0.79432 0.65133 0.52274 0.0
H229 H 0.80915 0.64953 0.46186 0.0
H230 H 0.68487 0.69991 0.44272 0.0
C231 C 0.65075 0.70082 0.57968 0.0
C232 C 0.66722 0.68742 0.61046 0.0
C233 C 0.70513 0.66658 0.61005 0.0
C234 C 0.72954 0.6629 0.58009 0.0
C235 C 0.71444 0.67864 0.55039 0.0
C236 C 0.67493 0.69584 0.54965 0.0
C237 C 0.66371 0.7064 0.5137 0.0
C238 C 0.60204 0.66657 0.50391 0.0
C239 C 0.6798 0.76802 0.50872 0.0
C240 C 0.70327 0.69262 0.49459 0.0
C241 C 0.73259 0.67755 0.51649 0.0
C242 C 0.7715 0.66286 0.50528 0.0
C243 C 0.77975 0.66209 0.47068 0.0
C244 C 0.74902 0.67542 0.44743 0.0
C245 C 0.71047 0.69133 0.4597 0.0
H246 H 0.93239 0.18119 0.08953 0.0
H247 H 0.94707 0.34093 0.11601 0.0
H248 H 0.96592 0.37033 0.05688 0.0
H249 H 0.04933 0.24032 0.035 0.0
H250 H 0.01977 0.18219 1.00604 0.0
H251 H -0.00019 0.17088 0.04959 0.0
H252 H 0.89481 0.12639 0.03279 0.0
H253 H 0.91441 0.13706 0.98914 0.0
H254 H 0.87273 0.16506 1.00629 0.0
H255 H 0.98366 0.38171 0.993 0.0
H256 H 0.00365 0.37597 0.93339 0.0
H257 H 0.99241 0.21517 0.95191 0.0
C258 C 0.93857 0.22206 0.08292 0.0
C259 C 0.93553 0.25743 0.10762 0.0
C260 C 0.94565 0.31129 0.09776 0.0
C261 C 0.95747 0.32891 0.06408 0.0
C262 C 0.96052 0.29289 0.04059 0.0
C263 C 0.95186 0.24077 0.0498 0.0
C264 C 0.96178 0.21145 1.02072 0.0
C265 C 0.01058 0.2006 0.0283 0.0
C266 C 0.90771 0.15677 1.0117 0.0
C267 C 0.97736 0.25512 0.99356 0.0
C268 C 0.97575 0.30155 1.00519 0.0
C269 C 0.98629 0.34602 0.98388 0.0
C270 C -0.00124 0.34283 0.94991 0.0
C271 C 0.00223 0.29615 0.93768 0.0
C272 C 0.99116 0.25198 0.96022 0.0
H273 H 0.37342 0.06157 0.4547 0.0
H274 H 0.21334 0.92757 0.4183 0.0
H275 H 0.18257 0.89934 0.47654 0.0
H276 H 0.38922 0.9792 0.51596 0.0
H277 H 0.42405 0.03537 0.54593 0.0
H278 H 0.42971 0.05072 0.50174 0.0
H279 H 0.39158 0.1189 0.51152 0.0
H280 H 0.38577 0.10373 0.55583 0.0
H281 H 0.3252 0.09411 0.5325 0.0
H282 H 0.17113 0.88285 0.53974 0.0
H283 H 0.18451 0.87396 0.60079 0.0
H284 H 0.35533 0.01147 0.59432 0.0
C285 C 0.33145 0.02683 0.45888 0.0
C286 C 0.29508 -0.00141 0.4316 0.0
C287 C 0.24109 0.95229 0.43837 0.0
C288 C 0.2234 0.93536 0.47157 0.0
C289 C 0.26053 0.96439 0.49774 0.0
C290 C 0.31375 0.00873 0.49164 0.0
C291 C 0.34811 0.02933 0.52357 0.0
C292 C 0.40086 0.02326 0.52167 0.0
C293 C 0.36355 0.09012 0.5313 0.0
C294 C 0.30627 0.98904 0.54867 0.0
C295 C 0.2555 0.95262 0.53351 0.0
C296 C 0.21065 0.91127 0.55181 0.0
C297 C 0.21839 0.90655 0.58632 0.0
C298 C 0.27076 0.94221 0.60176 0.0
C299 C 0.31493 0.98407 0.5828 0.0
H300 H 0.65995 0.66997 0.94536 0.0
H301 H 0.76669 0.85039 0.95042 0.0
H302 H 0.76833 0.8455 1.01232 0.0
H303 H 0.57813 0.65544 0.02244 0.0
H304 H 0.57482 0.59065 0.03437 0.0
H305 H 0.57828 0.6089 0.99062 0.0
H306 H 0.6661 0.59786 0.98364 0.0
H307 H 0.66341 0.58036 0.02743 0.0
H308 H 0.72655 0.63784 1.01018 0.0
H309 H 0.76335 0.82109 0.07293 0.0
H310 H 0.74887 0.77865 0.12929 0.0
H311 H 0.64565 0.61362 0.086 0.0
C312 C 0.68207 0.70846 0.95962 0.0
C313 C 0.71241 0.76079 0.94321 0.0
C314 C 0.74284 0.81009 0.96264 0.0
C315 C 0.74402 0.80768 0.99774 0.0
C316 C 0.71459 0.7555 1.01316 0.0
C317 C 0.68377 0.70675 0.99485 0.0
C318 C 0.658 0.65593 1.01779 0.0
C319 C 0.59347 0.62597 1.01621 0.0
C320 C 0.67984 0.61564 1.00924 0.0
C321 C 0.67984 0.68377 0.05168 0.0
C322 C 0.71234 0.74125 0.04834 0.0
C323 C 0.73808 0.77611 0.07587 0.0
C324 C 0.73024 0.75164 0.10772 0.0
C325 C 0.69738 0.69285 0.11181 0.0
C326 C 0.67141 0.65863 0.08341 0.0
H327 H 0.90461 0.26387 0.47381 0.0
H328 H 0.05848 0.336 0.41604 0.0
H329 H 0.11379 0.35604 0.46829 0.0
H330 H 0.95881 0.36345 0.54087 0.0
H331 H 0.92051 0.31345 0.57348 0.0
H332 H 0.89262 0.30164 0.53142 0.0
H333 H 0.88671 0.20468 0.53058 0.0
H334 H 0.91482 0.21632 0.57263 0.0
H335 H 0.94885 0.20018 0.53932 0.0
H336 H 0.15301 0.37365 0.52669 0.0
H337 H 0.17323 0.38654 0.58772 0.0
H338 H -0.00522 0.30289 0.60849 0.0
C339 C 0.9499 0.28329 0.47233 0.0
C340 C 0.97722 0.29679 0.44083 0.0
C341 C 0.0366 0.32321 0.43977 0.0
C342 C 0.0684 0.33527 0.46936 0.0
C343 C 0.04027 0.32086 0.49999 0.0
C344 C 0.98236 0.29539 0.50178 0.0
C345 C 0.96291 0.28593 0.53808 0.0
C346 C 0.93189 0.31804 0.54645 0.0
C347 C 0.92614 0.22303 0.54559 0.0
C348 C 0.01894 0.31069 0.55634 0.0
C349 C 0.06299 0.33056 0.53383 0.0
C350 C 0.11884 0.35759 0.54455 0.0
C351 C 0.12999 0.36478 0.57916 0.0
C352 C 0.08566 0.34456 0.60271 0.0
C353 C 0.0294 0.31703 0.59106 0.0
H354 H 0.48902 0.08319 0.21093 0.0
H355 H 0.44048 0.98068 0.30088 0.0
H356 H 0.53993 0.01292 0.31302 0.0
H357 H 0.6204 0.07122 0.19165 0.0
H358 H 0.65713 0.14292 0.17741 0.0
H359 H 0.58227 0.1006 0.17116 0.0
H360 H 0.5694 0.17659 0.20156 0.0
H361 H 0.64365 0.21803 0.20936 0.0
H362 H 0.59503 0.19627 0.24395 0.0
H363 H 0.64141 0.07388 0.3235 0.0
H364 H 0.74238 0.144 0.32465 0.0
H365 H 0.72724 0.20525 0.22695 0.0
C366 C 0.49907 0.06498 0.23208 0.0
C367 C 0.45711 0.02961 0.25504 0.0
C368 C 0.472 0.00776 0.28295 0.0
C369 C 0.52844 0.02608 0.29016 0.0
C370 C 0.56916 0.06521 0.26881 0.0
C371 C 0.55534 0.0829 0.23962 0.0
C372 C 0.60728 0.12939 0.22286 0.0
C373 C 0.61738 0.10985 0.18875 0.0
C374 C 0.60356 0.18321 0.21925 0.0
C375 C 0.65179 0.13711 0.24819 0.0
C376 C 0.62881 0.09966 0.27447 0.0
C377 C 0.66028 0.10232 0.3026 0.0
C378 C 0.7173 0.14296 0.30331 0.0
C379 C 0.74226 0.17998 0.27593 0.0
C380 C 0.70903 0.17716 0.2481 0.0
H381 H 0.56147 0.4948 0.24053 0.0
H382 H 0.57964 0.52033 0.34848 0.0
H383 H 0.52302 0.41832 0.3571 0.0
H384 H 0.41583 0.36691 0.24188 0.0
H385 H 0.43356 0.33609 0.20746 0.0
H386 H 0.4649 0.41117 0.21031 0.0
H387 H 0.56342 0.42019 0.20717 0.0
H388 H 0.53272 0.34525 0.20574 0.0
H389 H 0.58313 0.38509 0.23803 0.0
H390 H 0.4813 0.31496 0.3538 0.0
H391 H 0.44023 0.21513 0.33912 0.0
H392 H 0.45012 0.25723 0.23322 0.0
C393 C 0.55143 0.47921 0.26601 0.0
C394 C 0.57505 0.51537 0.29383 0.0
C395 C 0.56184 0.49328 0.3268 0.0
C396 C 0.52998 0.4354 0.33196 0.0
C397 C 0.51118 0.40061 0.3039 0.0
C398 C 0.51996 0.42161 0.27158 0.0
C399 C 0.49945 0.3752 0.24573 0.0
C400 C 0.45051 0.37215 0.22514 0.0
C401 C 0.54756 0.38187 0.22284 0.0
C402 C 0.47978 0.3251 0.26858 0.0
C403 C 0.4868 0.34064 0.30201 0.0
C404 C 0.47442 0.30204 0.32774 0.0
C405 C 0.45183 0.24556 0.3191 0.0
C406 C 0.44184 0.22843 0.28501 0.0
C407 C 0.45717 0.26901 0.25949 0.0
H408 H 0.87284 0.37744 0.22268 0.0
H409 H -0.00308 0.45699 0.30158 0.0
H410 H 0.9755 0.53409 0.30401 0.0
H411 H 0.88742 0.51031 0.18299 0.0
H412 H 0.8126 0.4771 0.17627 0.0
H413 H 0.84731 0.43611 0.17456 0.0
H414 H 0.77878 0.36923 0.21953 0.0
H415 H 0.74461 0.41043 0.22199 0.0
H416 H 0.77352 0.39742 0.25937 0.0
H417 H 0.93033 0.59137 0.30553 0.0
H418 H 0.86593 0.62896 0.30533 0.0
H419 H 0.76688 0.51225 0.22635 0.0
C420 C 0.89748 0.41271 0.23916 0.0
C421 C 0.93767 0.41242 0.26134 0.0
C422 C 0.96696 0.45738 0.28396 0.0
C423 C 0.95497 0.50119 0.28548 0.0
C424 C 0.91323 0.49901 0.26442 0.0
C425 C 0.88509 0.45623 0.24144 0.0
C426 C 0.83655 0.45963 0.22534 0.0
C427 C 0.84659 0.47151 0.18754 0.0
C428 C 0.78006 0.406 0.23197 0.0
C429 C 0.84034 0.50954 0.24394 0.0
C430 C 0.88554 0.53191 0.26592 0.0
C431 C 0.89546 0.57493 0.28803 0.0
C432 C 0.85818 0.59554 0.28794 0.0
C433 C 0.81124 0.57325 0.26592 0.0
C434 C 0.80276 0.53036 0.24314 0.0
H435 H 0.07062 0.48684 0.82175 0.0
H436 H 0.00619 0.44928 0.71986 0.0
H437 H 0.03898 0.54928 0.71026 0.0
H438 H 0.04746 0.61318 0.83505 0.0
H439 H 0.11203 0.64919 0.85869 0.0
H440 H 0.07004 0.57382 0.86054 0.0
H441 H 0.15713 0.56706 0.84278 0.0
H442 H 0.19891 0.64203 0.83947 0.0
H443 H 0.19201 0.59859 0.80384 0.0
H444 H 0.09845 0.65127 0.70675 0.0
H445 H 0.16586 0.75183 0.71281 0.0
H446 H 0.19163 0.72632 0.81756 0.0
C447 C 0.06034 0.49932 0.79818 0.0
C448 C 0.03543 0.46053 0.7716 0.0
C449 C 0.02468 0.47846 0.74057 0.0
C450 C 0.04342 0.53518 0.73486 0.0
C451 C 0.07216 0.57314 0.76059 0.0
C452 C 0.07915 0.55605 0.79203 0.0
C453 C 0.11734 0.60602 0.81388 0.0
C454 C 0.08476 0.61084 0.84381 0.0
C455 C 0.1694 0.60321 0.82566 0.0
C456 C 0.13322 0.65338 0.78914 0.0
C457 C 0.10641 0.63329 0.75865 0.0
C458 C 0.11843 0.66781 0.73076 0.0
C459 C 0.15755 0.72475 0.73435 0.0
C460 C 0.184 0.74682 0.76568 0.0
C461 C 0.1717 0.71057 0.79341 0.0
H462 H 0.4209 0.91793 0.73304 0.0
H463 H 0.42228 0.95729 0.8387 0.0
H464 H 0.48897 0.92382 0.85005 0.0
H465 H 0.41153 0.7935 0.74418 0.0
H466 H 0.45616 0.79642 0.71018 0.0
H467 H 0.42063 0.83634 0.70785 0.0
H468 H 0.51511 0.92832 0.69936 0.0
H469 H 0.55108 0.88851 0.70039 0.0
H470 H 0.5719 0.94678 0.72867 0.0
H471 H 0.53815 0.86943 0.85191 0.0
H472 H 0.57927 0.80893 0.84324 0.0
H473 H 0.54497 0.80282 0.73623 0.0
C474 C 0.43744 0.92216 0.75826 0.0
C475 C 0.41678 0.9404 0.785 0.0
C476 C 0.43795 0.94373 0.81787 0.0
C477 C 0.47569 0.92469 0.82455 0.0
C478 C 0.49196 0.90299 0.79803 0.0
C479 C 0.47464 0.90279 0.76537 0.0
C480 C 0.49302 0.8713 0.74217 0.0
C481 C 0.4423 0.82146 0.72512 0.0
C482 C 0.53531 0.91111 0.71611 0.0
C483 C 0.52094 0.85157 0.76719 0.0
C484 C 0.52033 0.87085 0.79916 0.0
C485 C 0.54017 0.8552 0.82689 0.0
C486 C 0.56291 0.82031 0.82169 0.0
C487 C 0.56551 0.8013 0.78899 0.0
C488 C 0.54365 0.81674 0.76148 0.0
H489 H 0.26327 0.44811 0.74377 0.0
H490 H 0.22704 0.43803 0.85046 0.0
H491 H 0.32853 0.48149 0.86301 0.0
H492 H 0.37521 0.41611 0.74969 0.0
H493 H 0.41628 0.46441 0.71696 0.0
H494 H 0.34075 0.43184 0.7163 0.0
H495 H 0.3477 0.52942 0.71443 0.0
H496 H 0.42306 0.56202 0.71405 0.0
H497 H 0.38888 0.58105 0.74582 0.0
H498 H 0.43446 0.52793 0.86362 0.0
H499 H 0.53599 0.58492 0.85198 0.0
H500 H 0.50118 0.56064 0.745 0.0
C501 C 0.27655 0.45544 0.7698 0.0
C502 C 0.2372 0.43978 0.79613 0.0
C503 C 0.25647 0.44991 0.82984 0.0
C504 C 0.31395 0.47402 0.83724 0.0
C505 C 0.35143 0.48733 0.81066 0.0
C506 C 0.3335 0.479 0.77763 0.0
C507 C 0.38222 0.49892 0.75356 0.0
C508 C 0.37836 0.44988 0.73292 0.0
C509 C 0.38567 0.54564 0.73064 0.0
C510 C 0.43065 0.52108 0.77819 0.0
C511 C 0.4121 0.51332 0.81103 0.0
C512 C 0.44948 0.53386 0.83801 0.0
C513 C 0.50718 0.56589 0.83116 0.0
C514 C 0.52668 0.57741 0.79758 0.0
C515 C 0.48789 0.55219 0.77096 0.0
H516 H 0.1899 0.12256 0.23311 0.0
H517 H 0.25042 0.15233 0.33606 0.0
H518 H 0.21264 0.21631 0.34403 0.0
H519 H 0.21483 0.26243 0.21518 0.0
H520 H 0.15096 0.23769 0.1912 0.0
H521 H 0.18596 0.197 0.19263 0.0
H522 H 0.09486 0.1105 0.2143 0.0
H523 H 0.0594 0.15051 0.21191 0.0
H524 H 0.0604 0.11769 0.2509 0.0
H525 H 0.16778 0.27633 0.34098 0.0
H526 H 0.1028 0.31249 0.33086 0.0
H527 H 0.06911 0.24076 0.23068 0.0
C528 C 0.19509 0.14248 0.25734 0.0
C529 C 0.22314 0.13264 0.28394 0.0
C530 C 0.2287 0.15902 0.31539 0.0
C531 C 0.20812 0.19603 0.32002 0.0
C532 C 0.18189 0.20593 0.29301 0.0
C533 C 0.17426 0.17901 0.26252 0.0
C534 C 0.14026 0.19304 0.23852 0.0
C535 C 0.17511 0.22441 0.20755 0.0
C536 C 0.08549 0.13979 0.22833 0.0
C537 C 0.12895 0.23115 0.26053 0.0
C538 C 0.15448 0.23917 0.29158 0.0
C539 C 0.14748 0.27027 0.31678 0.0
C540 C 0.11046 0.2906 0.31084 0.0
C541 C 0.0801 0.27853 0.28028 0.0
C542 C 0.09201 0.25117 0.25422 0.0
H543 H 0.92081 0.78692 0.31163 0.0
H544 H 0.88112 0.79358 0.20672 0.0
H545 H 0.98005 0.83048 0.19183 0.0
H546 H 0.05293 0.91789 0.30995 0.0
H547 H 0.08624 0.8935 0.33923 0.0
H548 H 0.01146 0.86566 0.34085 0.0
H549 H -0.00275 0.76537 0.33519 0.0
H550 H 0.07208 0.79335 0.33214 0.0
H551 H 0.02617 0.74834 0.29947 0.0
H552 H 0.08135 0.86282 0.18767 0.0
H553 H 0.18375 0.91465 0.19601 0.0
H554 H 0.1595 0.89158 0.30386 0.0
C555 C 0.933 0.79698 0.2856 0.0
C556 C 0.89279 0.786 0.26018 0.0
C557 C 0.91072 0.80027 0.2265 0.0
C558 C 0.96685 0.82087 0.21773 0.0
C559 C 0.0047 0.8278 0.24306 0.0
C560 C 0.98912 0.81828 0.27642 0.0
C561 C 0.03926 0.83379 0.29894 0.0
C562 C 0.048 0.8805 0.32368 0.0
C563 C 0.03331 0.78212 0.31753 0.0
C564 C 0.0855 0.85452 0.27294 0.0
C565 C 0.06425 0.84902 0.24081 0.0
C566 C 0.09871 0.86759 0.21268 0.0
C567 C 0.15685 0.89661 0.21768 0.0
C568 C 0.17952 0.90774 0.25062 0.0
C569 C 0.14344 0.88341 0.27839 0.0
H570 H 0.85286 0.057 0.24171 0.0
H571 H 0.8409 0.08859 0.34742 0.0
H572 H 0.77432 0.98817 0.35603 0.0
H573 H 0.70811 0.94909 0.22962 0.0
H574 H 0.725 0.90708 0.20253 0.0
H575 H 0.77024 0.98209 0.20385 0.0
H576 H 0.85589 0.97038 0.21914 0.0
H577 H 0.81122 0.89558 0.21658 0.0
H578 H 0.85091 0.92693 0.25435 0.0
H579 H 0.71053 0.88487 0.35372 0.0
H580 H 0.66919 0.78359 0.34298 0.0
H581 H 0.722 0.81863 0.239 0.0
C582 C 0.83659 0.04274 0.26673 0.0
C583 C 0.85205 0.08075 0.29385 0.0
C584 C 0.82996 0.06032 0.32623 0.0
C585 C 0.79145 0.00343 0.33132 0.0
C586 C 0.77556 0.96744 0.30383 0.0
C587 C 0.79835 0.98598 0.27234 0.0
C588 C 0.77747 0.93784 0.24764 0.0
C589 C 0.74316 0.94445 0.21923 0.0
C590 C 0.82679 0.93235 0.23363 0.0
C591 C 0.74025 0.88921 0.27037 0.0
C592 C 0.73881 0.9074 0.30251 0.0
C593 C 0.71091 0.87005 0.3286 0.0
C594 C 0.68717 0.81258 0.32223 0.0
C595 C 0.6922 0.79328 0.29018 0.0
C596 C 0.71617 0.83196 0.26352 0.0
H597 H 0.13173 0.19623 0.7237 0.0
H598 H 0.16385 0.25385 0.82717 0.0
H599 H 0.23046 0.21915 0.83313 0.0
H600 H 0.12922 0.0685 0.74004 0.0
H601 H 0.16131 0.06761 0.70077 0.0
H602 H 0.12139 0.10308 0.70366 0.0
H603 H 0.20779 0.19396 0.68174 0.0
H604 H 0.24838 0.15885 0.67979 0.0
H605 H 0.27384 0.22248 0.70386 0.0
H606 H 0.28945 0.17535 0.82946 0.0
H607 H 0.32188 0.10759 0.82013 0.0
H608 H 0.25002 0.07444 0.71997 0.0
C609 C 0.15298 0.20155 0.74752 0.0
C610 C 0.14271 0.22765 0.77495 0.0
C611 C 0.17069 0.23343 0.8059 0.0
C612 C 0.20934 0.21474 0.80939 0.0
C613 C 0.21931 0.19001 0.78179 0.0
C614 C 0.19109 0.18213 0.75168 0.0
C615 C 0.2046 0.14813 0.72742 0.0
C616 C 0.15096 0.0936 0.71741 0.0
C617 C 0.2355 0.18296 0.69636 0.0
C618 C 0.2433 0.13666 0.74907 0.0
C619 C 0.25255 0.1628 0.77995 0.0
C620 C 0.28298 0.15497 0.80531 0.0
C621 C 0.3013 0.11647 0.7998 0.0
C622 C 0.28829 0.0858 0.76945 0.0
C623 C 0.26169 0.0983 0.74313 0.0
H624 H 0.0655 0.85808 0.80646 0.0
H625 H 0.0915 0.84781 0.69974 0.0
H626 H 0.99065 0.7798 0.69268 0.0
H627 H 0.96116 0.71195 0.81818 0.0
H628 H 0.92043 0.72718 0.84738 0.0
H629 H -0.00468 0.77334 0.84453 0.0
H630 H 0.98097 0.8582 0.83234 0.0
H631 H 0.90647 0.81264 0.83658 0.0
H632 H 0.93441 0.85319 0.79879 0.0
H633 H 0.88677 0.71413 0.69712 0.0
H634 H 0.78603 0.67276 0.71062 0.0
H635 H 0.82954 0.72561 0.81423 0.0
C636 C 0.05 0.84196 0.78153 0.0
C637 C 0.08637 0.85834 0.75368 0.0
C638 C 0.06435 0.83625 0.72146 0.0
C639 C 0.0073 0.79685 0.71726 0.0
C640 C 0.97306 0.7799 0.74554 0.0
C641 C -0.00661 0.8026 0.7769 0.0
C642 C 0.94722 0.78068 0.80278 0.0
C643 C 0.95662 0.74624 0.82981 0.0
C644 C 0.94194 0.82903 0.81852 0.0
C645 C 0.89731 0.74361 0.78082 0.0
C646 C 0.91318 0.7425 0.74805 0.0
C647 C 0.87381 0.71474 0.72269 0.0
C648 C 0.81672 0.69147 0.73053 0.0
C649 C 0.80018 0.69774 0.76312 0.0
C650 C 0.84076 0.72015 0.78902 0.0
H651 H 0.9049 0.16367 0.80276 0.0
H652 H 0.91283 0.19521 0.69557 0.0
H653 H 0.85533 0.09354 0.68514 0.0
H654 H 0.9271 0.05436 0.79865 0.0
H655 H 0.8802 0.01298 0.83186 0.0
H656 H 0.9108 0.08795 0.83218 0.0
H657 H 0.81223 0.07887 0.83434 0.0
H658 H 0.78111 0.0037 0.83544 0.0
H659 H 0.75984 0.03606 0.80365 0.0
H660 H 0.81189 0.98918 0.68602 0.0
H661 H 0.77175 0.8886 0.69843 0.0
H662 H 0.79472 0.92605 0.80519 0.0
C663 C 0.89253 0.14958 0.77714 0.0
C664 C 0.91375 0.18736 0.7499 0.0
C665 C 0.89736 0.16698 0.71676 0.0
C666 C 0.86481 0.10929 0.71061 0.0
C667 C 0.8486 0.07292 0.73794 0.0
C668 C 0.86063 0.09228 0.77062 0.0
C669 C 0.84281 0.04465 0.79536 0.0
C670 C 0.89324 0.05037 0.81569 0.0
C671 C 0.79621 0.04057 0.81856 0.0
C672 C 0.82064 -0.00441 0.77141 0.0
C673 C 0.82403 0.01272 0.73844 0.0
C674 C 0.80805 0.97513 0.71177 0.0
C675 C 0.78587 0.9182 0.71908 0.0
C676 C 0.78014 0.89953 0.7528 0.0
C677 C 0.79885 0.93902 0.77918 0.0
loop_
_geom_bond_atom_site_label_1
_geom_bond_atom_site_label_2
_geom_bond_distance
_geom_bond_site_symmetry_2
_ccdc_geom_bond_type
Zn0 O1 2.055 . S
Zn0 O8 2.046 . S
Zn0 N16 2.036 . S
Zn0 O28 2.053 . S
Zn0 O30 2.066 . S
O1 Zn0 2.055 . S
O1 C4 1.259 . S
C2 O30 1.256 . S
C2 O31 1.244 . S
Zn3 O5 2.046 . S
Zn3 O7 2.055 . S
Zn3 N9 2.036 . S
Zn3 O27 2.066 . S
Zn3 O31 2.053 . S
C4 O1 1.259 . S
C4 O5 1.254 . S
O5 Zn3 2.046 . S
O5 C4 1.254 . S
C6 O27 1.256 . S
C6 O28 1.244 . S
O7 Zn3 2.055 . S
O7 C29 1.259 . S
O8 Zn0 2.046 . S
O8 C29 1.254 . S
N9 Zn3 2.036 . S
N9 C10 1.298 . S
N9 N12 1.398 . S
C10 N9 1.298 . S
C10 N13 1.367 . S
C10 C23 1.481 . S
C11 N12 1.299 . S
C11 N13 1.379 . S
N12 N9 1.398 . S
N12 C11 1.299 . S
N13 C10 1.367 . S
N13 C11 1.379 . S
C14 N16 1.298 . S
C14 N18 1.367 . S
C14 C22 1.481 . S
C15 N17 1.299 . S
C15 N18 1.379 . S
N16 Zn0 2.036 . S
N16 C14 1.298 . S
N16 N17 1.398 . S
N17 C15 1.299 . S
N17 N16 1.398 . S
N18 C14 1.367 . S
N18 C15 1.379 . S
H19 C22 0.980 . S
H20 C22 0.981 . S
H21 C22 0.981 . S
C22 C14 1.481 . S
C22 H19 0.980 . S
C22 H20 0.981 . S
C22 H21 0.981 . S
C23 C10 1.481 . S
C23 H24 0.980 . S
C23 H25 0.981 . S
C23 H26 0.981 . S
H24 C23 0.980 . S
H25 C23 0.981 . S
H26 C23 0.981 . S
O27 Zn3 2.066 . S
O27 C6 1.256 . S
O28 Zn0 2.053 . S
O28 C6 1.244 . S
C29 O7 1.259 . S
C29 O8 1.254 . S
O30 Zn0 2.066 . S
O30 C2 1.256 . S
O31 C2 1.244 . S
O31 Zn3 2.053 . S
Zn32 O33 2.055 . S
Zn32 O40 2.046 . S
Zn32 N48 2.036 . S
Zn32 O60 2.053 . S
Zn32 O62 2.066 . S
O33 Zn32 2.055 . S
O33 C36 1.259 . S
C34 O62 1.256 . S
C34 O63 1.244 . S
Zn35 O37 2.046 . S
Zn35 O39 2.055 . S
Zn35 N41 2.036 . S
Zn35 O59 2.066 . S
Zn35 O63 2.053 . S
C36 O33 1.259 . S
C36 O37 1.254 . S
O37 Zn35 2.046 . S
O37 C36 1.254 . S
C38 O59 1.256 . S
C38 O60 1.244 . S
O39 Zn35 2.055 . S
O39 C61 1.259 . S
O40 Zn32 2.046 . S
O40 C61 1.254 . S
N41 Zn35 2.036 . S
N41 C42 1.298 . S
N41 N44 1.398 . S
C42 N41 1.298 . S
C42 N45 1.367 . S
C42 C55 1.481 . S
C43 N44 1.299 . S
C43 N45 1.379 . S
N44 N41 1.398 . S
N44 C43 1.299 . S
N45 C42 1.367 . S
N45 C43 1.379 . S
C46 N48 1.298 . S
C46 N50 1.367 . S
C46 C54 1.481 . S
C47 N49 1.299 . S
C47 N50 1.379 . S
N48 Zn32 2.036 . S
N48 C46 1.298 . S
N48 N49 1.398 . S
N49 C47 1.299 . S
N49 N48 1.398 . S
N50 C46 1.367 . S
N50 C47 1.379 . S
H51 C54 0.980 . S
H52 C54 0.981 . S
H53 C54 0.981 . S
C54 C46 1.481 . S
C54 H51 0.980 . S
C54 H52 0.981 . S
C54 H53 0.981 . S
C55 C42 1.481 . S
C55 H56 0.980 . S
C55 H57 0.981 . S
C55 H58 0.981 . S
H56 C55 0.980 . S
H57 C55 0.981 . S
H58 C55 0.981 . S
O59 Zn35 2.066 . S
O59 C38 1.256 . S
O60 Zn32 2.053 . S
O60 C38 1.244 . S
C61 O39 1.259 . S
C61 O40 1.254 . S
O62 Zn32 2.066 . S
O62 C34 1.256 . S
O63 C34 1.244 . S
O63 Zn35 2.053 . S
Zn64 O65 2.055 . S
Zn64 O72 2.046 . S
Zn64 N80 2.036 . S
Zn64 O92 2.053 . S
Zn64 O94 2.066 . S
O65 Zn64 2.055 . S
O65 C68 1.259 . S
C66 O94 1.256 . S
C66 O95 1.244 . S
Zn67 O69 2.046 . S
Zn67 O71 2.055 . S
Zn67 N73 2.036 . S
Zn67 O91 2.066 . S
Zn67 O95 2.053 . S
C68 O65 1.259 . S
C68 O69 1.254 . S
O69 Zn67 2.046 . S
O69 C68 1.254 . S
C70 O91 1.256 . S
C70 O92 1.244 . S
O71 Zn67 2.055 . S
O71 C93 1.259 . S
O72 Zn64 2.046 . S
O72 C93 1.254 . S
N73 Zn67 2.036 . S
N73 C74 1.298 . S
N73 N76 1.398 . S
C74 N73 1.298 . S
C74 N77 1.367 . S
C74 C87 1.481 . S
C75 N76 1.299 . S
C75 N77 1.379 . S
N76 N73 1.398 . S
N76 C75 1.299 . S
N77 C74 1.367 . S
N77 C75 1.379 . S
C78 N80 1.298 . S
C78 N82 1.367 . S
C78 C86 1.481 . S
C79 N81 1.299 . S
C79 N82 1.379 . S
N80 Zn64 2.036 . S
N80 C78 1.298 . S
N80 N81 1.398 . S
N81 C79 1.299 . S
N81 N80 1.398 . S
N82 C78 1.367 . S
N82 C79 1.379 . S
H83 C86 0.980 . S
H84 C86 0.981 . S
H85 C86 0.981 . S
C86 C78 1.481 . S
C86 H83 0.980 . S
C86 H84 0.981 . S
C86 H85 0.981 . S
C87 C74 1.481 . S
C87 H88 0.980 . S
C87 H89 0.981 . S
C87 H90 0.981 . S
H88 C87 0.980 . S
H89 C87 0.981 . S
H90 C87 0.981 . S
O91 Zn67 2.066 . S
O91 C70 1.256 . S
O92 Zn64 2.053 . S
O92 C70 1.244 . S
C93 O71 1.259 . S
C93 O72 1.254 . S
O94 Zn64 2.066 . S
O94 C66 1.256 . S
O95 C66 1.244 . S
O95 Zn67 2.053 . S
Zn96 O97 2.055 . S
Zn96 O104 2.046 . S
Zn96 N112 2.036 . S
Zn96 O124 2.053 . S
Zn96 O126 2.066 . S
O97 Zn96 2.055 . S
O97 C100 1.259 . S
C98 O126 1.256 . S
C98 O127 1.244 . S
Zn99 O101 2.046 . S
Zn99 O103 2.055 . S
Zn99 N105 2.036 . S
Zn99 O123 2.066 . S
Zn99 O127 2.053 . S
C100 O97 1.259 . S
C100 O101 1.254 . S
O101 Zn99 2.046 . S
O101 C100 1.254 . S
C102 O123 1.256 . S
C102 O124 1.244 . S
O103 Zn99 2.055 . S
O103 C125 1.259 . S
O104 Zn96 2.046 . S
O104 C125 1.254 . S
N105 Zn99 2.036 . S
N105 C106 1.298 . S
N105 N108 1.398 . S
C106 N105 1.298 . S
C106 N109 1.367 . S
C106 C119 1.481 . S
C107 N108 1.299 . S
C107 N109 1.379 . S
N108 N105 1.398 . S
N108 C107 1.299 . S
N109 C106 1.367 . S
N109 C107 1.379 . S
C110 N112 1.298 . S
C110 N114 1.367 . S
C110 C118 1.481 . S
C111 N113 1.299 . S
C111 N114 1.379 . S
N112 Zn96 2.036 . S
N112 C110 1.298 . S
N112 N113 1.398 . S
N113 C111 1.299 . S
N113 N112 1.398 . S
N114 C110 1.367 . S
N114 C111 1.379 . S
H115 C118 0.980 . S
H116 C118 0.981 . S
H117 C118 0.981 . S
C118 C110 1.481 . S
C118 H115 0.980 . S
C118 H116 0.981 . S
C118 H117 0.981 . S
C119 C106 1.481 . S
C119 H120 0.980 . S
C119 H121 0.981 . S
C119 H122 0.981 . S
H120 C119 0.980 . S
H121 C119 0.981 . S
H122 C119 0.981 . S
O123 Zn99 2.066 . S
O123 C102 1.256 . S
O124 Zn96 2.053 . S
O124 C102 1.244 . S
C125 O103 1.259 . S
C125 O104 1.254 . S
O126 Zn96 2.066 . S
O126 C98 1.256 . S
O127 C98 1.244 . S
O127 Zn99 2.053 . S
Zn128 O129 2.055 . S
Zn128 O136 2.046 . S
Zn128 N144 2.036 . S
Zn128 O156 2.053 . S
Zn128 O158 2.066 . S
O129 Zn128 2.055 . S
O129 C132 1.259 . S
C130 O158 1.256 . S
C130 O159 1.244 . S
Zn131 O133 2.046 . S
Zn131 O135 2.055 . S
Zn131 N137 2.036 . S
Zn131 O155 2.066 . S
Zn131 O159 2.053 . S
C132 O129 1.259 . S
C132 O133 1.254 . S
O133 Zn131 2.046 . S
O133 C132 1.254 . S
C134 O155 1.256 . S
C134 O156 1.244 . S
O135 Zn131 2.055 . S
O135 C157 1.259 . S
O136 Zn128 2.046 . S
O136 C157 1.254 . S
N137 Zn131 2.036 . S
N137 C138 1.298 . S
N137 N140 1.398 . S
C138 N137 1.298 . S
C138 N141 1.367 . S
C138 C151 1.481 . S
C139 N140 1.299 . S
C139 N141 1.379 . S
N140 N137 1.398 . S
N140 C139 1.299 . S
N141 C138 1.367 . S
N141 C139 1.379 . S
C142 N144 1.298 . S
C142 N146 1.367 . S
C142 C150 1.481 . S
C143 N145 1.299 . S
C143 N146 1.379 . S
N144 Zn128 2.036 . S
N144 C142 1.298 . S
N144 N145 1.398 . S
N145 C143 1.299 . S
N145 N144 1.398 . S
N146 C142 1.367 . S
N146 C143 1.379 . S
H147 C150 0.980 . S
H148 C150 0.981 . S
H149 C150 0.981 . S
C150 C142 1.481 . S
C150 H147 0.980 . S
C150 H148 0.981 . S
C150 H149 0.981 . S
C151 C138 1.481 . S
C151 H152 0.980 . S
C151 H153 0.981 . S
C151 H154 0.981 . S
H152 C151 0.980 . S
H153 C151 0.981 . S
H154 C151 0.981 . S
O155 Zn131 2.066 . S
O155 C134 1.256 . S
O156 Zn128 2.053 . S
O156 C134 1.244 . S
C157 O135 1.259 . S
C157 O136 1.254 . S
O158 Zn128 2.066 . S
O158 C130 1.256 . S
O159 C130 1.244 . S
O159 Zn131 2.053 . S
Zn160 O161 2.055 . S
Zn160 O168 2.046 . S
Zn160 N176 2.036 . S
Zn160 O188 2.053 . S
Zn160 O190 2.066 . S
O161 Zn160 2.055 . S
O161 C164 1.259 . S
C162 O190 1.256 . S
C162 O191 1.244 . S
Zn163 O165 2.046 . S
Zn163 O167 2.055 . S
Zn163 N169 2.036 . S
Zn163 O187 2.066 . S
Zn163 O191 2.053 . S
C164 O161 1.259 . S
C164 O165 1.254 . S
O165 Zn163 2.046 . S
O165 C164 1.254 . S
C166 O187 1.256 . S
C166 O188 1.244 . S
O167 Zn163 2.055 . S
O167 C189 1.259 . S
O168 Zn160 2.046 . S
O168 C189 1.254 . S
N169 Zn163 2.036 . S
N169 C170 1.298 . S
N169 N172 1.398 . S
C170 N169 1.298 . S
C170 N173 1.367 . S
C170 C183 1.481 . S
C171 N172 1.299 . S
C171 N173 1.379 . S
N172 N169 1.398 . S
N172 C171 1.299 . S
N173 C170 1.367 . S
N173 C171 1.379 . S
C174 N176 1.298 . S
C174 N178 1.367 . S
C174 C182 1.481 . S
C175 N177 1.299 . S
C175 N178 1.379 . S
N176 Zn160 2.036 . S
N176 C174 1.298 . S
N176 N177 1.398 . S
N177 C175 1.299 . S
N177 N176 1.398 . S
N178 C174 1.367 . S
N178 C175 1.379 . S
H179 C182 0.980 . S
H180 C182 0.981 . S
H181 C182 0.981 . S
C182 C174 1.481 . S
C182 H179 0.980 . S
C182 H180 0.981 . S
C182 H181 0.981 . S
C183 C170 1.481 . S
C183 H184 0.980 . S
C183 H185 0.981 . S
C183 H186 0.981 . S
H184 C183 0.980 . S
H185 C183 0.981 . S
H186 C183 0.981 . S
O187 Zn163 2.066 . S
O187 C166 1.256 . S
O188 Zn160 2.053 . S
O188 C166 1.244 . S
C189 O167 1.259 . S
C189 O168 1.254 . S
O190 Zn160 2.066 . S
O190 C162 1.256 . S
O191 C162 1.244 . S
O191 Zn163 2.053 . S
H192 C204 0.930 . S
H193 C206 0.930 1_545 S
H194 C207 0.930 . S
H195 C211 0.959 . S
H196 C211 0.959 . S
H197 C211 0.961 . S
H198 C212 0.960 . S
H199 C212 0.961 . S
H200 C212 0.959 . S
H201 C215 0.929 1_556 S
H202 C216 0.931 . S
H203 C218 0.930 1_565 S
C204 H192 0.930 . S
C204 C205 1.399 . S
C204 C209 1.399 . S
C205 C204 1.399 . S
C205 C206 1.376 . S
C206 H193 0.930 1_565 S
C206 C205 1.376 . S
C206 C207 1.388 1_565 S
C207 H194 0.930 . S
C207 C206 1.388 1_545 S
C207 C208 1.390 . S
C208 C207 1.390 . S
C208 C209 1.394 1_545 S
C208 C214 1.465 1_556 S
C209 C204 1.399 . S
C209 C208 1.394 1_565 S
C209 C210 1.516 1_556 S
C210 C209 1.516 1_554 S
C210 C211 1.502 . S
C210 C212 1.561 . S
C210 C213 1.526 1_565 S
C211 H195 0.959 . S
C211 H196 0.959 . S
C211 H197 0.961 . S
C211 C210 1.502 . S
C212 H198 0.960 . S
C212 H199 0.961 . S
C212 H200 0.959 . S
C212 C210 1.561 . S
C213 C210 1.526 1_545 S
C213 C214 1.396 . S
C213 C218 1.390 . S
C214 C208 1.465 1_554 S
C214 C213 1.396 . S
C214 C215 1.399 . S
C215 H201 0.929 1_554 S
C215 C214 1.399 . S
C215 C216 1.385 . S
C216 H202 0.931 . S
C216 C215 1.385 . S
C216 C217 1.389 . S
C217 C216 1.389 . S
C217 C218 1.387 . S
C218 H203 0.930 1_545 S
C218 C213 1.390 . S
C218 C217 1.387 . S
H219 C231 0.930 . S
H220 C233 0.930 . S
H221 C234 0.930 . S
H222 C238 0.959 . S
H223 C238 0.959 . S
H224 C238 0.961 . S
H225 C239 0.960 . S
H226 C239 0.961 . S
H227 C239 0.959 . S
H228 C242 0.929 . S
H229 C243 0.931 . S
H230 C245 0.930 . S
C231 H219 0.930 . S
C231 C232 1.399 . S
C231 C236 1.399 . S
C232 C231 1.399 . S
C232 C233 1.376 . S
C233 H220 0.930 . S
C233 C232 1.376 . S
C233 C234 1.388 . S
C234 H221 0.930 . S
C234 C233 1.388 . S
C234 C235 1.390 . S
C235 C234 1.390 . S
C235 C236 1.394 . S
C235 C241 1.465 . S
C236 C231 1.399 . S
C236 C235 1.394 . S
C236 C237 1.516 . S
C237 C236 1.516 . S
C237 C238 1.502 . S
C237 C239 1.561 . S
C237 C240 1.526 . S
C238 H222 0.959 . S
C238 H223 0.959 . S
C238 H224 0.961 . S
C238 C237 1.502 . S
C239 H225 0.960 . S
C239 H226 0.961 . S
C239 H227 0.959 . S
C239 C237 1.561 . S
C240 C237 1.526 . S
C240 C241 1.396 . S
C240 C245 1.390 . S
C241 C235 1.465 . S
C241 C240 1.396 . S
C241 C242 1.399 . S
C242 H228 0.929 . S
C242 C241 1.399 . S
C242 C243 1.385 . S
C243 H229 0.931 . S
C243 C242 1.385 . S
C243 C244 1.389 . S
C244 C243 1.389 . S
C244 C245 1.387 . S
C245 H230 0.930 . S
C245 C240 1.390 . S
C245 C244 1.387 . S
H246 C258 0.930 . S
H247 C260 0.930 . S
H248 C261 0.930 . S
H249 C265 0.969 . S
H250 C265 0.939 1_556 S
H251 C265 0.977 1_655 S
H252 C266 0.960 . S
H253 C266 0.961 . S
H254 C266 0.959 . S
H255 C269 0.929 . S
H256 C270 0.931 . S
H257 C272 0.930 . S
C258 H246 0.930 . S
C258 C259 1.399 . S
C258 C263 1.399 . S
C259 C258 1.399 . S
C259 C260 1.376 . S
C260 H247 0.930 . S
C260 C259 1.376 . S
C260 C261 1.388 . S
C261 H248 0.930 . S
C261 C260 1.388 . S
C261 C262 1.390 . S
C262 C261 1.390 . S
C262 C263 1.394 . S
C262 C268 1.465 1_654 S
C263 C258 1.399 . S
C263 C262 1.394 . S
C263 C264 1.516 1_554 S
C264 C263 1.516 1_556 S
C264 C265 1.497 1_656 S
C264 C266 1.561 . S
C264 C267 1.526 1_655 S
C265 H249 0.969 . S
C265 H250 0.939 1_554 S
C265 H251 0.977 1_455 S
C265 C264 1.497 1_454 S
C266 H252 0.960 . S
C266 H253 0.961 . S
C266 H254 0.959 . S
C266 C264 1.561 . S
C267 C264 1.526 1_455 S
C267 C268 1.396 . S
C267 C272 1.390 . S
C268 C262 1.465 1_456 S
C268 C267 1.396 . S
C268 C269 1.399 . S
C269 H255 0.929 . S
C269 C268 1.399 . S
C269 C270 1.385 . S
C270 H256 0.931 . S
C270 C269 1.385 . S
C270 C271 1.389 . S
C271 C270 1.389 . S
C271 C272 1.387 . S
C272 H257 0.930 . S
C272 C267 1.390 . S
C272 C271 1.387 . S
H273 C285 0.930 . S
H274 C287 0.930 1_565 S
H275 C288 0.930 . S
H276 C292 0.959 . S
H277 C292 0.959 . S
H278 C292 0.961 . S
H279 C293 0.960 . S
H280 C293 0.961 . S
H281 C293 0.959 . S
H282 C296 0.929 . S
H283 C297 0.931 . S
H284 C299 0.930 1_545 S
C285 H273 0.930 . S
C285 C286 1.399 . S
C285 C290 1.399 . S
C286 C285 1.399 . S
C286 C287 1.376 . S
C287 H274 0.930 1_545 S
C287 C286 1.376 . S
C287 C288 1.388 1_545 S
C288 H275 0.930 . S
C288 C287 1.388 1_565 S
C288 C289 1.390 . S
C289 C288 1.390 . S
C289 C290 1.394 1_565 S
C289 C295 1.465 . S
C290 C285 1.399 . S
C290 C289 1.394 1_545 S
C290 C291 1.516 . S
C291 C290 1.516 . S
C291 C292 1.502 . S
C291 C293 1.561 . S
C291 C294 1.526 . S
C292 H276 0.959 . S
C292 H277 0.959 . S
C292 H278 0.961 . S
C292 C291 1.502 . S
C293 H279 0.960 . S
C293 H280 0.961 . S
C293 H281 0.959 . S
C293 C291 1.561 . S
C294 C291 1.526 . S
C294 C295 1.396 1_545 S
C294 C299 1.390 1_545 S
C295 C289 1.465 . S
C295 C294 1.396 1_565 S
C295 C296 1.399 . S
C296 H282 0.929 . S
C296 C295 1.399 . S
C296 C297 1.385 . S
C297 H283 0.931 . S
C297 C296 1.385 . S
C297 C298 1.389 . S
C298 C297 1.389 . S
C298 C299 1.387 . S
C299 H284 0.930 1_565 S
C299 C294 1.390 1_565 S
C299 C298 1.387 . S
H300 C312 0.930 . S
H301 C314 0.930 . S
H302 C315 0.930 . S
H303 C319 0.959 . S
H304 C319 0.959 . S
H305 C319 0.961 1_556 S
H306 C320 0.960 . S
H307 C320 0.984 . S
H308 C320 0.959 . S
H309 C323 0.929 . S
H310 C324 0.931 . S
H311 C326 0.930 . S
C312 H300 0.930 . S
C312 C313 1.399 . S
C312 C317 1.399 . S
C313 C312 1.399 . S
C313 C314 1.376 . S
C314 H301 0.930 . S
C314 C313 1.376 . S
C314 C315 1.388 . S
C315 H302 0.930 . S
C315 C314 1.388 . S
C315 C316 1.390 . S
C316 C315 1.390 . S
C316 C317 1.394 . S
C316 C322 1.465 1_556 S
C317 C312 1.399 . S
C317 C316 1.394 . S
C317 C318 1.540 . S
C318 C317 1.540 . S
C318 C319 1.489 1_556 S
C318 C320 1.576 . S
C318 C321 1.503 1_556 S
C319 H303 0.959 . S
C319 H304 0.959 . S
C319 H305 0.961 1_554 S
C319 C318 1.489 1_554 S
C320 H306 0.960 . S
C320 H307 0.984 . S
C320 H308 0.959 . S
C320 C318 1.576 . S
C321 C318 1.503 1_554 S
C321 C322 1.396 . S
C321 C326 1.390 . S
C322 C316 1.465 1_554 S
C322 C321 1.396 . S
C322 C323 1.399 . S
C323 H309 0.929 . S
C323 C322 1.399 . S
C323 C324 1.385 . S
C324 H310 0.931 . S
C324 C323 1.385 . S
C324 C325 1.389 . S
C325 C324 1.389 . S
C325 C326 1.387 . S
C326 H311 0.930 . S
C326 C321 1.390 . S
C326 C325 1.387 . S
H327 C339 0.930 . S
H328 C341 0.930 1_455 S
H329 C342 0.930 . S
H330 C346 0.959 . S
H331 C346 0.959 . S
H332 C346 0.961 . S
H333 C347 0.960 . S
H334 C347 0.961 . S
H335 C347 0.959 1_455 S
H336 C350 0.929 . S
H337 C351 0.931 . S
H338 C353 0.930 1_655 S
C339 H327 0.930 . S
C339 C340 1.399 . S
C339 C344 1.399 . S
C340 C339 1.399 . S
C340 C341 1.376 . S
C341 H328 0.930 1_655 S
C341 C340 1.376 . S
C341 C342 1.388 1_655 S
C342 H329 0.930 . S
C342 C341 1.388 1_455 S
C342 C343 1.390 . S
C343 C342 1.390 . S
C343 C344 1.394 1_455 S
C343 C349 1.465 . S
C344 C339 1.399 . S
C344 C343 1.394 1_655 S
C344 C345 1.516 . S
C345 C344 1.516 . S
C345 C346 1.502 . S
C345 C347 1.561 . S
C345 C348 1.526 1_655 S
C346 H330 0.959 . S
C346 H331 0.959 . S
C346 H332 0.961 . S
C346 C345 1.502 . S
C347 H333 0.960 . S
C347 H334 0.961 . S
C347 H335 0.959 1_655 S
C347 C345 1.561 . S
C348 C345 1.526 1_455 S
C348 C349 1.396 . S
C348 C353 1.390 . S
C349 C343 1.465 . S
C349 C348 1.396 . S
C349 C350 1.399 . S
C350 H336 0.929 . S
C350 C349 1.399 . S
C350 C351 1.385 . S
C351 H337 0.931 . S
C351 C350 1.385 . S
C351 C352 1.389 . S
C352 C351 1.389 . S
C352 C353 1.387 . S
C353 H338 0.930 1_455 S
C353 C348 1.390 . S
C353 C352 1.387 . S
H354 C366 0.930 . S
H355 C368 0.930 . S
H356 C369 0.930 . S
H357 C373 0.959 . S
H358 C373 0.959 . S
H359 C373 0.961 . S
H360 C374 0.960 . S
H361 C374 0.961 . S
H362 C374 0.959 . S
H363 C377 0.929 . S
H364 C378 0.931 . S
H365 C380 0.930 . S
C366 H354 0.930 . S
C366 C367 1.399 . S
C366 C371 1.399 . S
C367 C366 1.399 . S
C367 C368 1.376 . S
C368 H355 0.930 . S
C368 C367 1.376 . S
C368 C369 1.388 . S
C369 H356 0.930 . S
C369 C368 1.388 . S
C369 C370 1.390 . S
C370 C369 1.390 . S
C370 C371 1.394 . S
C370 C376 1.465 . S
C371 C366 1.399 . S
C371 C370 1.394 . S
C371 C372 1.516 . S
C372 C371 1.516 . S
C372 C373 1.502 . S
C372 C374 1.561 . S
C372 C375 1.526 . S
C373 H357 0.959 . S
C373 H358 0.959 . S
C373 H359 0.961 . S
C373 C372 1.502 . S
C374 H360 0.960 . S
C374 H361 0.961 . S
C374 H362 0.959 . S
C374 C372 1.561 . S
C375 C372 1.526 . S
C375 C376 1.396 . S
C375 C380 1.390 . S
C376 C370 1.465 . S
C376 C375 1.396 . S
C376 C377 1.399 . S
C377 H363 0.929 . S
C377 C376 1.399 . S
C377 C378 1.385 . S
C378 H364 0.931 . S
C378 C377 1.385 . S
C378 C379 1.389 . S
C379 C378 1.389 . S
C379 C380 1.387 . S
C380 H365 0.930 . S
C380 C375 1.390 . S
C380 C379 1.387 . S
H381 C393 0.930 . S
H382 C395 0.930 . S
H383 C396 0.930 . S
H384 C400 0.959 . S
H385 C400 0.959 . S
H386 C400 0.961 . S
H387 C401 0.960 . S
H388 C401 0.961 . S
H389 C401 0.959 . S
H390 C404 0.929 . S
H391 C405 0.931 . S
H392 C407 0.930 . S
C393 H381 0.930 . S
C393 C394 1.399 . S
C393 C398 1.399 . S
C394 C393 1.399 . S
C394 C395 1.376 . S
C395 H382 0.930 . S
C395 C394 1.376 . S
C395 C396 1.388 . S
C396 H383 0.930 . S
C396 C395 1.388 . S
C396 C397 1.390 . S
C397 C396 1.390 . S
C397 C398 1.394 . S
C397 C403 1.465 . S
C398 C393 1.399 . S
C398 C397 1.394 . S
C398 C399 1.516 . S
C399 C398 1.516 . S
C399 C400 1.502 . S
C399 C401 1.561 . S
C399 C402 1.526 . S
C400 H384 0.959 . S
C400 H385 0.959 . S
C400 H386 0.961 . S
C400 C399 1.502 . S
C401 H387 0.960 . S
C401 H388 0.961 . S
C401 H389 0.959 . S
C401 C399 1.561 . S
C402 C399 1.526 . S
C402 C403 1.396 . S
C402 C407 1.390 . S
C403 C397 1.465 . S
C403 C402 1.396 . S
C403 C404 1.399 . S
C404 H390 0.929 . S
C404 C403 1.399 . S
C404 C405 1.385 . S
C405 H391 0.931 . S
C405 C404 1.385 . S
C405 C406 1.389 . S
C406 C405 1.389 . S
C406 C407 1.387 . S
C407 H392 0.930 . S
C407 C402 1.390 . S
C407 C406 1.387 . S
H408 C420 0.930 . S
H409 C422 0.930 . S
H410 C423 0.930 . S
H411 C427 0.959 . S
H412 C427 0.959 . S
H413 C427 0.961 1_455 S
H414 C428 0.960 . S
H415 C428 0.961 . S
H416 C428 0.959 . S
H417 C431 0.929 . S
H418 C432 0.931 . S
H419 C434 0.930 . S
C420 H408 0.930 . S
C420 C421 1.399 . S
C420 C425 1.399 . S
C421 C420 1.399 . S
C421 C422 1.376 . S
C422 H409 0.930 . S
C422 C421 1.376 . S
C422 C423 1.388 . S
C423 H410 0.930 . S
C423 C422 1.388 . S
C423 C424 1.390 . S
C424 C423 1.390 . S
C424 C425 1.394 . S
C424 C430 1.465 . S
C425 C420 1.399 . S
C425 C424 1.394 . S
C425 C426 1.516 . S
C426 C425 1.516 . S
C426 C427 1.502 . S
C426 C428 1.561 . S
C426 C429 1.526 . S
C427 H411 0.959 . S
C427 H412 0.959 . S
C427 H413 0.961 1_655 S
C427 C426 1.502 . S
C428 H414 0.960 . S
C428 H415 0.961 . S
C428 H416 0.959 . S
C428 C426 1.561 . S
C429 C426 1.526 . S
C429 C430 1.396 . S
C429 C434 1.390 . S
C430 C424 1.465 . S
C430 C429 1.396 . S
C430 C431 1.399 . S
C431 H417 0.929 . S
C431 C430 1.399 . S
C431 C432 1.385 . S
C432 H418 0.931 . S
C432 C431 1.385 . S
C432 C433 1.389 . S
C433 C432 1.389 . S
C433 C434 1.387 . S
C434 H419 0.930 . S
C434 C429 1.390 . S
C434 C433 1.387 . S
H435 C447 0.930 . S
H436 C449 0.930 . S
H437 C450 0.930 . S
H438 C454 0.959 . S
H439 C454 0.959 . S
H440 C454 0.961 . S
H441 C455 0.960 . S
H442 C455 0.961 . S
H443 C455 0.959 . S
H444 C458 0.929 . S
H445 C459 0.931 . S
H446 C461 0.930 . S
C447 H435 0.930 . S
C447 C448 1.399 . S
C447 C452 1.399 . S
C448 C447 1.399 . S
C448 C449 1.376 . S
C449 H436 0.930 . S
C449 C448 1.376 . S
C449 C450 1.388 . S
C450 H437 0.930 . S
C450 C449 1.388 . S
C450 C451 1.390 . S
C451 C450 1.390 . S
C451 C452 1.394 . S
C451 C457 1.465 . S
C452 C447 1.399 . S
C452 C451 1.394 . S
C452 C453 1.516 . S
C453 C452 1.516 . S
C453 C454 1.502 . S
C453 C455 1.561 . S
C453 C456 1.526 . S
C454 H438 0.959 . S
C454 H439 0.959 . S
C454 H440 0.961 . S
C454 C453 1.502 . S
C455 H441 0.960 . S
C455 H442 0.961 . S
C455 H443 0.959 . S
C455 C453 1.561 . S
C456 C453 1.526 . S
C456 C457 1.396 . S
C456 C461 1.390 . S
C457 C451 1.465 . S
C457 C456 1.396 . S
C457 C458 1.399 . S
C458 H444 0.929 . S
C458 C457 1.399 . S
C458 C459 1.385 . S
C459 H445 0.931 . S
C459 C458 1.385 . S
C459 C460 1.389 . S
C460 C459 1.389 . S
C460 C461 1.387 . S
C461 H446 0.930 . S
C461 C456 1.390 . S
C461 C460 1.387 . S
H462 C474 0.930 . S
H463 C476 0.930 . S
H464 C477 0.930 . S
H465 C481 0.959 . S
H466 C481 0.959 . S
H467 C481 0.961 . S
H468 C482 0.960 . S
H469 C482 0.961 . S
H470 C482 0.959 . S
H471 C485 0.929 . S
H472 C486 0.931 . S
H473 C488 0.930 . S
C474 H462 0.930 . S
C474 C475 1.399 . S
C474 C479 1.399 . S
C475 C474 1.399 . S
C475 C476 1.376 . S
C476 H463 0.930 . S
C476 C475 1.376 . S
C476 C477 1.388 . S
C477 H464 0.930 . S
C477 C476 1.388 . S
C477 C478 1.390 . S
C478 C477 1.390 . S
C478 C479 1.394 . S
C478 C484 1.465 . S
C479 C474 1.399 . S
C479 C478 1.394 . S
C479 C480 1.516 . S
C480 C479 1.516 . S
C480 C481 1.502 . S
C480 C482 1.561 . S
C480 C483 1.526 . S
C481 H465 0.959 . S
C481 H466 0.959 . S
C481 H467 0.961 . S
C481 C480 1.502 . S
C482 H468 0.960 . S
C482 H469 0.961 . S
C482 H470 0.959 . S
C482 C480 1.561 . S
C483 C480 1.526 . S
C483 C484 1.396 . S
C483 C488 1.390 . S
C484 C478 1.465 . S
C484 C483 1.396 . S
C484 C485 1.399 . S
C485 H471 0.929 . S
C485 C484 1.399 . S
C485 C486 1.385 . S
C486 H472 0.931 . S
C486 C485 1.385 . S
C486 C487 1.389 . S
C487 C486 1.389 . S
C487 C488 1.387 . S
C488 H473 0.930 . S
C488 C483 1.390 . S
C488 C487 1.387 . S
H489 C501 0.930 . S
H490 C503 0.930 . S
H491 C504 0.930 . S
H492 C508 0.959 . S
H493 C508 0.959 . S
H494 C508 0.961 . S
H495 C509 0.960 . S
H496 C509 0.961 . S
H497 C509 0.959 . S
H498 C512 0.929 . S
H499 C513 0.931 . S
H500 C515 0.930 . S
C501 H489 0.930 . S
C501 C502 1.399 . S
C501 C506 1.399 . S
C502 C501 1.399 . S
C502 C503 1.376 . S
C503 H490 0.930 . S
C503 C502 1.376 . S
C503 C504 1.388 . S
C504 H491 0.930 . S
C504 C503 1.388 . S
C504 C505 1.390 . S
C505 C504 1.390 . S
C505 C506 1.394 . S
C505 C511 1.465 . S
C506 C501 1.399 . S
C506 C505 1.394 . S
C506 C507 1.516 . S
C507 C506 1.516 . S
C507 C508 1.502 . S
C507 C509 1.561 . S
C507 C510 1.526 . S
C508 H492 0.959 . S
C508 H493 0.959 . S
C508 H494 0.961 . S
C508 C507 1.502 . S
C509 H495 0.960 . S
C509 H496 0.961 . S
C509 H497 0.959 . S
C509 C507 1.561 . S
C510 C507 1.526 . S
C510 C511 1.396 . S
C510 C515 1.390 . S
C511 C505 1.465 . S
C511 C510 1.396 . S
C511 C512 1.399 . S
C512 H498 0.929 . S
C512 C511 1.399 . S
C512 C513 1.385 . S
C513 H499 0.931 . S
C513 C512 1.385 . S
C513 C514 1.389 . S
C514 C513 1.389 . S
C514 C515 1.387 . S
C515 H500 0.930 . S
C515 C510 1.390 . S
C515 C514 1.387 . S
H516 C528 0.930 . S
H517 C530 0.930 . S
H518 C531 0.930 . S
H519 C535 0.959 . S
H520 C535 0.959 . S
H521 C535 0.961 . S
H522 C536 0.960 . S
H523 C536 0.961 . S
H524 C536 0.959 . S
H525 C539 0.929 . S
H526 C540 0.931 1_655 S
H527 C542 0.930 . S
C528 H516 0.930 . S
C528 C529 1.399 . S
C528 C533 1.399 . S
C529 C528 1.399 . S
C529 C530 1.376 . S
C530 H517 0.930 . S
C530 C529 1.376 . S
C530 C531 1.388 . S
C531 H518 0.930 . S
C531 C530 1.388 . S
C531 C532 1.390 . S
C532 C531 1.390 . S
C532 C533 1.394 . S
C532 C538 1.465 . S
C533 C528 1.399 . S
C533 C532 1.394 . S
C533 C534 1.516 . S
C534 C533 1.516 . S
C534 C535 1.502 . S
C534 C536 1.561 . S
C534 C537 1.526 . S
C535 H519 0.959 . S
C535 H520 0.959 . S
C535 H521 0.961 . S
C535 C534 1.502 . S
C536 H522 0.960 . S
C536 H523 0.961 . S
C536 H524 0.959 . S
C536 C534 1.561 . S
C537 C534 1.526 . S
C537 C538 1.396 . S
C537 C542 1.390 . S
C538 C532 1.465 . S
C538 C537 1.396 . S
C538 C539 1.399 . S
C539 H525 0.929 . S
C539 C538 1.399 . S
C539 C540 1.385 . S
C540 H526 0.931 1_455 S
C540 C539 1.385 . S
C540 C541 1.389 . S
C541 C540 1.389 . S
C541 C542 1.387 . S
C542 H527 0.930 . S
C542 C537 1.390 . S
C542 C541 1.387 . S
H543 C555 0.930 . S
H544 C557 0.930 . S
H545 C558 0.930 . S
H546 C562 0.959 . S
H547 C562 0.959 . S
H548 C562 0.961 . S
H549 C563 0.960 . S
H550 C563 0.961 . S
H551 C563 0.959 . S
H552 C566 0.929 . S
H553 C567 0.931 . S
H554 C569 0.930 . S
C555 H543 0.930 . S
C555 C556 1.399 . S
C555 C560 1.399 1_655 S
C556 C555 1.399 . S
C556 C557 1.376 . S
C557 H544 0.930 . S
C557 C556 1.376 . S
C557 C558 1.388 1_655 S
C558 H545 0.930 . S
C558 C557 1.388 1_455 S
C558 C559 1.390 . S
C559 C558 1.390 . S
C559 C560 1.394 . S
C559 C565 1.465 . S
C560 C555 1.399 1_455 S
C560 C559 1.394 . S
C560 C561 1.516 . S
C561 C560 1.516 . S
C561 C562 1.502 . S
C561 C563 1.561 . S
C561 C564 1.526 . S
C562 H546 0.959 . S
C562 H547 0.959 . S
C562 H548 0.961 . S
C562 C561 1.502 . S
C563 H549 0.960 . S
C563 H550 0.961 . S
C563 H551 0.959 . S
C563 C561 1.561 . S
C564 C561 1.526 . S
C564 C565 1.396 . S
C564 C569 1.390 . S
C565 C559 1.465 . S
C565 C564 1.396 . S
C565 C566 1.399 . S
C566 H552 0.929 . S
C566 C565 1.399 . S
C566 C567 1.385 . S
C567 H553 0.931 . S
C567 C566 1.385 . S
C567 C568 1.389 . S
C568 C567 1.389 . S
C568 C569 1.387 . S
C569 H554 0.930 . S
C569 C564 1.390 . S
C569 C568 1.387 . S
H570 C582 0.930 . S
H571 C584 0.930 . S
H572 C585 0.930 . S
H573 C589 0.959 . S
H574 C589 0.959 . S
H575 C589 0.961 . S
H576 C590 0.960 . S
H577 C590 0.961 . S
H578 C590 0.959 . S
H579 C593 0.929 . S
H580 C594 0.931 . S
H581 C596 0.930 . S
C582 H570 0.930 . S
C582 C583 1.399 . S
C582 C587 1.399 1_545 S
C583 C582 1.399 . S
C583 C584 1.376 . S
C584 H571 0.930 . S
C584 C583 1.376 . S
C584 C585 1.388 . S
C585 H572 0.930 . S
C585 C584 1.388 . S
C585 C586 1.390 1_545 S
C586 C585 1.390 1_565 S
C586 C587 1.394 . S
C586 C592 1.465 . S
C587 C582 1.399 1_565 S
C587 C586 1.394 . S
C587 C588 1.516 . S
C588 C587 1.516 . S
C588 C589 1.502 . S
C588 C590 1.561 . S
C588 C591 1.526 . S
C589 H573 0.959 . S
C589 H574 0.959 . S
C589 H575 0.961 . S
C589 C588 1.502 . S
C590 H576 0.960 . S
C590 H577 0.961 . S
C590 H578 0.959 . S
C590 C588 1.561 . S
C591 C588 1.526 . S
C591 C592 1.396 . S
C591 C596 1.390 . S
C592 C586 1.465 . S
C592 C591 1.396 . S
C592 C593 1.399 . S
C593 H579 0.929 . S
C593 C592 1.399 . S
C593 C594 1.385 . S
C594 H580 0.931 . S
C594 C593 1.385 . S
C594 C595 1.389 . S
C595 C594 1.389 . S
C595 C596 1.387 . S
C596 H581 0.930 . S
C596 C591 1.390 . S
C596 C595 1.387 . S
H597 C609 0.930 . S
H598 C611 0.930 . S
H599 C612 0.930 . S
H600 C616 0.959 . S
H601 C616 0.959 . S
H602 C616 0.961 . S
H603 C617 0.960 . S
H604 C617 0.961 . S
H605 C617 0.959 . S
H606 C620 0.929 . S
H607 C621 0.931 . S
H608 C623 0.930 . S
C609 H597 0.930 . S
C609 C610 1.399 . S
C609 C614 1.399 . S
C610 C609 1.399 . S
C610 C611 1.376 . S
C611 H598 0.930 . S
C611 C610 1.376 . S
C611 C612 1.388 . S
C612 H599 0.930 . S
C612 C611 1.388 . S
C612 C613 1.390 . S
C613 C612 1.390 . S
C613 C614 1.394 . S
C613 C619 1.465 . S
C614 C609 1.399 . S
C614 C613 1.394 . S
C614 C615 1.516 . S
C615 C614 1.516 . S
C615 C616 1.502 . S
C615 C617 1.561 . S
C615 C618 1.526 . S
C616 H600 0.959 . S
C616 H601 0.959 . S
C616 H602 0.961 . S
C616 C615 1.502 . S
C617 H603 0.960 . S
C617 H604 0.961 . S
C617 H605 0.959 . S
C617 C615 1.561 . S
C618 C615 1.526 . S
C618 C619 1.396 . S
C618 C623 1.390 . S
C619 C613 1.465 . S
C619 C618 1.396 . S
C619 C620 1.399 . S
C620 H606 0.929 . S
C620 C619 1.399 . S
C620 C621 1.385 . S
C621 H607 0.931 . S
C621 C620 1.385 . S
C621 C622 1.389 . S
C622 C621 1.389 . S
C622 C623 1.387 . S
C623 H608 0.930 . S
C623 C618 1.390 . S
C623 C622 1.387 . S
H624 C636 0.930 . S
H625 C638 0.930 . S
H626 C639 0.935 . S
H627 C643 0.959 . S
H628 C643 0.959 . S
H629 C643 0.961 . S
H630 C644 0.960 . S
H631 C644 0.961 . S
H632 C644 0.959 . S
H633 C647 0.929 . S
H634 C648 0.931 . S
H635 C650 0.930 . S
C636 H624 0.930 . S
C636 C637 1.399 . S
C636 C641 1.399 1_455 S
C637 C636 1.399 . S
C637 C638 1.376 . S
C638 H625 0.930 . S
C638 C637 1.376 . S
C638 C639 1.388 . S
C639 H626 0.935 . S
C639 C638 1.388 . S
C639 C640 1.390 1_455 S
C640 C639 1.390 1_655 S
C640 C641 1.394 . S
C640 C646 1.465 . S
C641 C636 1.399 1_655 S
C641 C640 1.394 . S
C641 C642 1.516 . S
C642 C641 1.516 . S
C642 C643 1.502 . S
C642 C644 1.561 . S
C642 C645 1.526 . S
C643 H627 0.959 . S
C643 H628 0.959 . S
C643 H629 0.961 . S
C643 C642 1.502 . S
C644 H630 0.960 . S
C644 H631 0.961 . S
C644 H632 0.959 . S
C644 C642 1.561 . S
C645 C642 1.526 . S
C645 C646 1.396 . S
C645 C650 1.390 . S
C646 C640 1.465 . S
C646 C645 1.396 . S
C646 C647 1.399 . S
C647 H633 0.929 . S
C647 C646 1.399 . S
C647 C648 1.385 . S
C648 H634 0.931 . S
C648 C647 1.385 . S
C648 C649 1.389 . S
C649 C648 1.389 . S
C649 C650 1.387 . S
C650 H635 0.930 . S
C650 C645 1.390 . S
C650 C649 1.387 . S
H651 C663 0.930 . S
H652 C665 0.930 . S
H653 C666 0.930 . S
H654 C670 0.959 . S
H655 C670 0.959 . S
H656 C670 0.961 . S
H657 C671 0.960 . S
H658 C671 0.961 . S
H659 C671 0.959 . S
H660 C674 0.929 1_545 S
H661 C675 0.931 . S
H662 C677 0.930 . S
C663 H651 0.930 . S
C663 C664 1.399 . S
C663 C668 1.399 . S
C664 C663 1.399 . S
C664 C665 1.376 . S
C665 H652 0.930 . S
C665 C664 1.376 . S
C665 C666 1.388 . S
C666 H653 0.930 . S
C666 C665 1.388 . S
C666 C667 1.390 . S
C667 C666 1.390 . S
C667 C668 1.394 . S
C667 C673 1.465 . S
C668 C663 1.399 . S
C668 C667 1.394 . S
C668 C669 1.516 . S
C669 C668 1.516 . S
C669 C670 1.502 . S
C669 C671 1.561 . S
C669 C672 1.526 . S
C670 H654 0.959 . S
C670 H655 0.959 . S
C670 H656 0.961 . S
C670 C669 1.502 . S
C671 H657 0.960 . S
C671 H658 0.961 . S
C671 H659 0.959 . S
C671 C669 1.561 . S
C672 C669 1.526 . S
C672 C673 1.396 . S
C672 C677 1.390 1_545 S
C673 C667 1.465 . S
C673 C672 1.396 . S
C673 C674 1.399 1_545 S
C674 H660 0.929 1_565 S
C674 C673 1.399 1_565 S
C674 C675 1.385 . S
C675 H661 0.931 . S
C675 C674 1.385 . S
C675 C676 1.389 . S
C676 C675 1.389 . S
C676 C677 1.387 . S
C677 H662 0.930 . S
C677 C672 1.390 1_565 S
C677 C676 1.387 . S
C205 N146 1.833 . S
C217 N13 1.888 . S
C232 N178 1.719 . S
C244 N45 1.713 . S
C259 N77 1.891 . S
C271 N114 1.891 . S
C286 N18 1.748 . S
C298 N141 1.743 . S
C313 N173 1.815 . S
C325 N50 1.835 . S
C340 N82 1.719 . S
C352 N109 1.714 . S
C367 C6 1.252 . S
C379 C93 1.319 . S
C394 C34 1.253 . S
C406 C29 1.318 . S
C421 C70 1.244 . S
C433 C36 1.332 . S
C448 C98 1.256 . S
C460 C132 1.316 . S
C475 C130 1.318 . S
C487 C189 1.295 . S
C502 C100 1.325 . S
C514 C166 1.276 . S
C529 C4 0.916 . S
C541 C66 0.852 1_455 S
C556 C61 0.853 . S
C568 C2 0.906 1_565 S
C583 C68 0.922 . S
C595 C38 0.835 . S
C610 C125 0.849 . S
C622 C134 0.915 1_545 S
C637 C157 0.915 . S
C649 C162 0.854 . S
C664 C102 0.906 1_655 S
C676 C164 0.884 . S
