# Generated by pormake.
# Topology upa, (4)-cn, num edge types: 1
# Building blocks:
#     Node 0, Type 0, BuildingBlock: QUQFOY_clean_sbu_3, # of connection points: 4
#     Node 1, Type 0, BuildingBlock: QUQFOY_clean_sbu_3, # of connection points: 4
#     Node 2, Type 0, BuildingBlock: QUQFOY_clean_sbu_3, # of connection points: 4
#     Node 3, Type 0, BuildingBlock: QUQFOY_clean_sbu_3, # of connection points: 4
#     Node 4, Type 0, BuildingBlock: QUQFOY_clean_sbu_3, # of connection points: 4
#     Node 5, Type 0, BuildingBlock: QUQFOY_clean_sbu_3, # of connection points: 4
#     Node 6, Type 0, BuildingBlock: QUQFOY_clean_sbu_3, # of connection points: 4
#     Node 7, Type 0, BuildingBlock: QUQFOY_clean_sbu_3, # of connection points: 4
#     Edge 8, Type (0, 0), BuildingBlock: XUDNAN_clean_linker_2, # of connection points: 2
#     Edge 9, Type (0, 0), BuildingBlock: XUDNAN_clean_linker_2, # of connection points: 2
#     Edge 10, Type (0, 0), BuildingBlock: XUDNAN_clean_linker_2, # of connection points: 2
#     Edge 11, Type (0, 0), BuildingBlock: XUDNAN_clean_linker_2, # of connection points: 2
#     Edge 12, Type (0, 0), BuildingBlock: XUDNAN_clean_linker_2, # of connection points: 2
#     Edge 13, Type (0, 0), BuildingBlock: XUDNAN_clean_linker_2, # of connection points: 2
#     Edge 14, Type (0, 0), BuildingBlock: XUDNAN_clean_linker_2, # of connection points: 2
#     Edge 15, Type (0, 0), BuildingBlock: XUDNAN_clean_linker_2, # of connection points: 2
#     Edge 16, Type (0, 0), BuildingBlock: XUDNAN_clean_linker_2, # of connection points: 2
#     Edge 17, Type (0, 0), BuildingBlock: XUDNAN_clean_linker_2, # of connection points: 2
#     Edge 18, Type (0, 0), BuildingBlock: XUDNAN_clean_linker_2, # of connection points: 2
#     Edge 19, Type (0, 0), BuildingBlock: XUDNAN_clean_linker_2, # of connection points: 2
#     Edge 20, Type (0, 0), BuildingBlock: XUDNAN_clean_linker_2, # of connection points: 2
#     Edge 21, Type (0, 0), BuildingBlock: XUDNAN_clean_linker_2, # of connection points: 2
#     Edge 22, Type (0, 0), BuildingBlock: XUDNAN_clean_linker_2, # of connection points: 2
#     Edge 23, Type (0, 0), BuildingBlock: XUDNAN_clean_linker_2, # of connection points: 2
# Relax obj value: 0.208
# Max RMSD: 0.129
# Mean RMSD: 0.129
data_MOF--net-upa--node1-QUQFOY_clean_sbu_3--edge1-XUDNAN_clean_linker_2
_symmetry_space_group_name_H-M    P1
_symmetry_Int_Tables_number       1
_symmetry_cell_setting            triclinic
loop_
_symmetry_equiv_pos_as_xyz
'x, y, z'
_cell_length_a     27.190897
_cell_length_b     27.002686
_cell_length_c     45.507199
_cell_angle_alpha  89.924897
_cell_angle_beta   90.131177
_cell_angle_gamma 90.304874
loop_
_atom_site_label
_atom_site_type_symbol
_atom_site_fract_x
_atom_site_fract_y
_atom_site_fract_z
_atom_type_partial_charge
C0 C 0.06239 0.28277 0.30953 0.0
O1 O 0.06136 0.29824 0.33588 0.0
Cd2 Cd 0.10923 0.26673 0.37626 0.0
O3 O 0.09582 0.25294 0.30105 0.0
Cd4 Cd 0.17101 0.21367 0.32396 0.0
C5 C 0.08686 0.14405 0.36041 0.0
O6 O 0.19412 0.26759 0.3655 0.0
O7 O 0.21883 0.19171 0.36704 0.0
O8 O 0.23593 0.23904 0.28918 0.0
C9 C 0.21898 0.2344 0.37855 0.0
O10 O 0.08275 0.18053 0.37796 0.0
C11 C 0.24804 0.19513 0.28228 0.0
O12 O 0.11406 0.14659 0.33763 0.0
O13 O 0.2218 0.16034 0.29289 0.0
C14 C 0.19007 0.56385 0.80684 0.0
O15 O 0.18423 0.55693 0.83421 0.0
Cd16 Cd 0.23397 0.59848 0.87038 0.0
O17 O 0.21599 0.60007 0.79743 0.0
Cd18 Cd 0.26066 0.67388 0.81811 0.0
C19 C 0.3444 0.58603 0.83344 0.0
O20 O 0.2252 0.68545 0.86721 0.0
O21 O 0.29856 0.71448 0.86022 0.0
O22 O 0.21251 0.73825 0.79425 0.0
C23 C 0.26156 0.71023 0.87699 0.0
O24 O 0.31692 0.57547 0.85525 0.0
C25 C 0.24827 0.75899 0.78106 0.0
O26 O 0.33228 0.61931 0.81488 0.0
O27 O 0.28991 0.73798 0.78316 0.0
C28 C 0.89748 0.72293 0.30133 0.0
O29 O 0.90981 0.70415 0.32585 0.0
Cd30 Cd 0.86931 0.72483 0.37142 0.0
O31 O 0.85818 0.74831 0.29923 0.0
Cd32 Cd 0.78886 0.77582 0.33108 0.0
C33 C 0.87356 0.85122 0.36128 0.0
O34 O 0.78221 0.71598 0.37156 0.0
O35 O 0.75695 0.79054 0.37983 0.0
O36 O 0.71927 0.7393 0.30552 0.0
C37 C 0.76084 0.74618 0.38875 0.0
O38 O 0.88656 0.81306 0.3758 0.0
C39 C 0.69928 0.77981 0.29808 0.0
O40 O 0.84059 0.84871 0.34131 0.0
O41 O 0.72251 0.81952 0.30421 0.0
C42 C 0.78292 0.41493 0.81499 0.0
O43 O 0.77616 0.42826 0.84141 0.0
Cd44 Cd 0.74219 0.38126 0.88068 0.0
O45 O 0.77202 0.37105 0.80656 0.0
Cd46 Cd 0.73119 0.29733 0.83103 0.0
C47 C 0.63279 0.37174 0.8448 0.0
O48 O 0.7746 0.30009 0.87743 0.0
O49 O 0.70793 0.25734 0.87866 0.0
O50 O 0.77945 0.23266 0.80699 0.0
C51 C 0.74681 0.27129 0.8918 0.0
O52 O 0.6555 0.38649 0.86771 0.0
C53 C 0.74303 0.21004 0.79558 0.0
O54 O 0.65292 0.3419 0.82684 0.0
O55 O 0.70095 0.22922 0.79937 0.0
C56 C 0.5645 0.18809 0.17903 0.0
O57 O 0.56481 0.16852 0.15368 0.0
Cd58 Cd 0.59893 0.21474 0.11378 0.0
O59 O 0.59429 0.22335 0.18528 0.0
Cd60 Cd 0.66698 0.2674 0.1619 0.0
C61 C 0.56881 0.33192 0.13955 0.0
O62 O 0.68596 0.22018 0.11704 0.0
O63 O 0.7053 0.29808 0.11741 0.0
O64 O 0.73555 0.23883 0.19358 0.0
C65 C 0.70631 0.25677 0.10424 0.0
O66 O 0.56016 0.29465 0.12316 0.0
C67 C 0.74809 0.28202 0.20199 0.0
O68 O 0.60657 0.33363 0.15617 0.0
O69 O 0.72122 0.31753 0.19324 0.0
C70 C 0.25614 0.07273 0.67085 0.0
O71 O 0.27673 0.06373 0.64641 0.0
Cd72 Cd 0.26048 0.11018 0.60189 0.0
O73 O 0.23044 0.11177 0.67405 0.0
Cd74 Cd 0.20297 0.18561 0.64548 0.0
C75 C 0.1354 0.09958 0.60877 0.0
O76 O 0.26562 0.19762 0.60771 0.0
O77 O 0.19386 0.22777 0.59852 0.0
O78 O 0.2267 0.25218 0.67942 0.0
C79 C 0.23794 0.22163 0.59025 0.0
O80 O 0.17398 0.08978 0.59408 0.0
C81 C 0.18299 0.26586 0.68487 0.0
O82 O 0.13614 0.13042 0.62999 0.0
O83 O 0.14845 0.24118 0.67283 0.0
C84 C 0.40085 0.78033 0.1797 0.0
O85 O 0.41739 0.79032 0.1543 0.0
Cd86 Cd 0.3832 0.75525 0.11065 0.0
O87 O 0.35974 0.75763 0.18265 0.0
Cd88 Cd 0.28995 0.72467 0.15155 0.0
C89 C 0.37123 0.63434 0.13565 0.0
O90 O 0.29823 0.77489 0.10738 0.0
O91 O 0.2582 0.7064 0.1021 0.0
O92 O 0.22043 0.76895 0.17304 0.0
C93 C 0.27373 0.74637 0.09065 0.0
O94 O 0.394 0.66678 0.12043 0.0
C95 C 0.19886 0.73085 0.18331 0.0
O96 O 0.33202 0.64501 0.14953 0.0
O97 O 0.22052 0.68965 0.17999 0.0
C98 C 0.73708 0.90387 0.67839 0.0
O99 O 0.71478 0.91317 0.65444 0.0
Cd100 Cd 0.72726 0.86632 0.60944 0.0
O101 O 0.76276 0.8647 0.68094 0.0
Cd102 Cd 0.78665 0.79089 0.65179 0.0
C103 C 0.85256 0.87569 0.61326 0.0
O104 O 0.71997 0.77881 0.61546 0.0
O105 O 0.79045 0.74478 0.60691 0.0
O106 O 0.76701 0.73296 0.69166 0.0
C107 C 0.74621 0.75124 0.59916 0.0
O108 O 0.81315 0.88529 0.59922 0.0
C109 C 0.8079 0.71034 0.69053 0.0
O110 O 0.85295 0.84558 0.63489 0.0
O111 O 0.83976 0.727 0.67262 0.0
H112 H 0.04152 0.08382 0.32012 0.0
H113 H 0.06373 0.10517 0.4137 0.0
H114 H 0.00867 0.03423 0.42405 0.0
H115 H 0.91276 0.05423 0.32542 0.0
H116 H 0.91369 0.00891 0.29638 0.0
H117 H 0.9568 0.05981 0.29603 0.0
H118 H 0.02949 -0.00174 0.29337 0.0
H119 H 0.98659 0.94723 0.29333 0.0
H120 H 0.03463 0.95007 0.32065 0.0
H121 H 0.95385 0.96017 0.42427 0.0
H122 H 0.90072 0.88753 0.41437 0.0
H123 H 0.90804 0.918 0.32089 0.0
C124 C 0.03528 0.07296 0.34274 0.0
C125 C 0.05719 0.09935 0.36616 0.0
C126 C 0.04736 0.0851 0.39551 0.0
C127 C 0.01613 0.04502 0.40158 0.0
C128 C -0.00561 0.02025 0.37805 0.0
C129 C 0.00328 0.03368 0.34922 0.0
C130 C 0.97391 0.00172 0.3281 0.0
C131 C 0.93711 0.03305 0.31044 0.0
C132 C 0.00821 0.97259 0.30767 0.0
C133 C 0.94773 0.96778 0.34958 0.0
C134 C 0.96031 0.97907 0.37827 0.0
C135 C 0.94318 0.9513 0.40196 0.0
C136 C 0.91305 0.91026 0.39616 0.0
C137 C 0.8998 0.89797 0.36698 0.0
C138 C 0.91667 0.92756 0.34344 0.0
H139 H 0.40233 0.54391 0.87537 0.0
H140 H 0.38561 0.55934 0.78101 0.0
H141 H 0.45428 0.50076 0.77348 0.0
H142 H 0.53524 0.53984 0.87489 0.0
H143 H 0.53819 0.49634 0.90491 0.0
H144 H 0.48747 0.53869 0.9023 0.0
H145 H 0.42664 0.46447 0.90397 0.0
H146 H 0.47724 0.42182 0.90603 0.0
H147 H 0.43201 0.4156 0.87724 0.0
H148 H 0.52242 0.43716 0.77668 0.0
H149 H 0.59315 0.38442 0.78999 0.0
H150 H 0.56728 0.41477 0.88227 0.0
C151 C 0.41337 0.53518 0.85312 0.0
C152 C 0.38878 0.55594 0.82874 0.0
C153 C 0.40437 0.54406 0.79995 0.0
C154 C 0.44294 0.5105 0.79549 0.0
C155 C 0.46578 0.48985 0.82007 0.0
C156 C 0.45221 0.50258 0.84831 0.0
C157 C 0.48401 0.47711 0.87101 0.0
C158 C 0.51295 0.51527 0.88934 0.0
C159 C 0.45311 0.44271 0.89072 0.0
C160 C 0.51756 0.44783 0.85117 0.0
C161 C 0.50601 0.45498 0.82188 0.0
C162 C 0.53192 0.43148 0.79953 0.0
C163 C 0.57175 0.40125 0.80732 0.0
C164 C 0.58564 0.39551 0.83716 0.0
C165 C 0.55749 0.41843 0.85928 0.0
H166 H 0.58455 0.4323 0.13846 0.0
H167 H 0.47016 0.32012 0.14309 0.0
H168 H 0.40682 0.38542 0.14459 0.0
H169 H 0.52644 0.52428 0.18493 0.0
H170 H 0.54608 0.57582 0.16258 0.0
H171 H 0.58257 0.52038 0.16407 0.0
H172 H 0.5781 0.51317 0.10733 0.0
H173 H 0.54157 0.56852 0.10568 0.0
H174 H 0.51889 0.51198 0.08943 0.0
H175 H 0.35615 0.46287 0.14619 0.0
H176 H 0.32111 0.54722 0.1434 0.0
H177 H 0.46797 0.60844 0.13337 0.0
C178 C 0.54616 0.42175 0.14006 0.0
C179 C 0.53195 0.37149 0.14082 0.0
C180 C 0.48149 0.35864 0.14239 0.0
C181 C 0.44537 0.39537 0.14339 0.0
C182 C 0.46039 0.44471 0.1423 0.0
C183 C 0.5095 0.45799 0.14032 0.0
C184 C 0.51548 0.51358 0.13758 0.0
C185 C 0.54435 0.53475 0.16386 0.0
C186 C 0.53995 0.52762 0.10826 0.0
C187 C 0.46214 0.52937 0.1383 0.0
C188 C 0.43098 0.48917 0.14152 0.0
C189 C 0.38012 0.49465 0.14348 0.0
C190 C 0.36057 0.54257 0.14193 0.0
C191 C 0.39182 0.58406 0.13786 0.0
C192 C 0.4432 0.57722 0.13606 0.0
H193 H 0.07404 0.05881 0.64923 0.0
H194 H 0.09868 0.07192 0.55546 0.0
H195 H 0.0288 0.01479 0.54607 0.0
H196 H 0.04947 0.92972 0.64811 0.0
H197 H 0.00363 0.93149 0.67663 0.0
H198 H 0.05218 0.97709 0.67595 0.0
H199 H -0.01207 0.04769 0.67539 0.0
H200 H 0.93919 0.00232 0.67655 0.0
H201 H 0.94059 0.04789 0.64759 0.0
H202 H 0.95565 0.95718 0.54723 0.0
H203 H 0.88639 0.90052 0.55887 0.0
H204 H 0.91606 0.91844 0.6519 0.0
C205 C 0.06388 0.05048 0.62673 0.0
C206 C 0.09076 0.0703 0.60298 0.0
C207 C 0.07786 0.05737 0.57384 0.0
C208 C 0.03844 0.02498 0.56835 0.0
C209 C 0.01322 0.00517 0.59231 0.0
C210 C 0.02559 0.0172 0.62092 0.0
C211 C -0.00526 0.98849 0.64278 0.0
C212 C 0.02694 0.9547 0.66199 0.0
C213 C 0.96377 0.0237 0.66168 0.0
C214 C 0.96286 0.95862 0.622 0.0
C215 C 0.97368 0.96919 0.59298 0.0
C216 C 0.94724 0.94813 0.56985 0.0
C217 C 0.9082 0.91598 0.57661 0.0
C218 C 0.89691 0.90453 0.60619 0.0
C219 C 0.92501 0.92559 0.62909 0.0
H220 H 0.17595 0.28359 0.4241 0.0
H221 H 0.30327 0.19634 0.40093 0.0
H222 H 0.32945 0.19523 0.453 0.0
H223 H 0.23199 0.35372 0.4875 0.0
H224 H 0.17614 0.34883 0.50859 0.0
H225 H 0.17326 0.35209 0.46905 0.0
H226 H 0.12285 0.27039 0.46802 0.0
H227 H 0.12578 0.26675 0.50742 0.0
H228 H 0.14753 0.21589 0.48547 0.0
H229 H 0.33615 0.19445 0.50787 0.0
H230 H 0.32014 0.18956 0.56122 0.0
H231 H 0.18592 0.27341 0.54901 0.0
C232 C 0.21037 0.26607 0.42993 0.0
C233 C 0.23835 0.24105 0.40857 0.0
C234 C 0.2819 0.21637 0.41703 0.0
C235 C 0.29707 0.21568 0.44651 0.0
C236 C 0.26795 0.23941 0.46729 0.0
C237 C 0.2254 0.26409 0.4594 0.0
C238 C 0.19703 0.28037 0.4863 0.0
C239 C 0.19447 0.33713 0.48795 0.0
C240 C 0.14527 0.25693 0.48682 0.0
C241 C 0.22937 0.25961 0.51047 0.0
C242 C 0.27067 0.23713 0.4991 0.0
C243 C 0.30432 0.21258 0.51707 0.0
C244 C 0.29494 0.21 0.54737 0.0
C245 C 0.25186 0.23117 0.5593 0.0
C246 C 0.21939 0.25721 0.54059 0.0
H247 H 0.21232 0.67322 0.92481 0.0
H248 H 0.31696 0.78642 0.89829 0.0
H249 H 0.32532 0.8133 0.94997 0.0
H250 H 0.15415 0.74228 0.98529 0.0
H251 H 0.14945 0.68819 0.00838 0.0
H252 H 0.14703 0.68185 0.96898 0.0
H253 H 0.21943 0.61989 0.971 0.0
H254 H 0.2221 0.62608 0.01033 0.0
H255 H 0.27618 0.63812 0.98858 0.0
H256 H 0.32584 0.82486 0.00462 0.0
H257 H 0.32279 0.81676 0.05864 0.0
H258 H 0.22091 0.6933 0.04992 0.0
C259 C 0.23613 0.70436 0.92985 0.0
C260 C 0.26358 0.72821 0.9076 0.0
C261 C 0.29546 0.76787 0.91507 0.0
C262 C 0.30028 0.78351 0.94431 0.0
C263 C 0.27327 0.75879 0.96584 0.0
C264 C 0.24202 0.71987 0.95903 0.0
C265 C 0.22067 0.69672 0.98657 0.0
C266 C 0.16448 0.70263 0.98734 0.0
C267 C 0.2355 0.64197 0.98927 0.0
C268 C 0.24541 0.72816 0.00993 0.0
C269 C 0.27496 0.76427 -0.00251 0.0
C270 C 0.3026 0.79693 0.01462 0.0
C271 C 0.30058 0.79207 0.04529 0.0
C272 C 0.27164 0.7544 0.0585 0.0
C273 C 0.24326 0.72255 0.04049 0.0
H274 H 0.70813 0.80876 0.55558 0.0
H275 H 0.75618 0.65999 0.57576 0.0
H276 H 0.75199 0.63817 0.52311 0.0
H277 H 0.62897 0.77729 0.48864 0.0
H278 H 0.64977 0.83228 0.46981 0.0
H279 H 0.64393 0.83232 0.50927 0.0
H280 H 0.73484 0.86046 0.51389 0.0
H281 H 0.74126 0.85977 0.47462 0.0
H282 H 0.78232 0.82372 0.49715 0.0
H283 H 0.75746 0.63688 0.46847 0.0
H284 H 0.77127 0.65607 0.416 0.0
H285 H 0.72262 0.80675 0.43096 0.0
C286 C 0.71506 0.77093 0.54893 0.0
C287 C 0.73097 0.73549 0.56959 0.0
C288 C 0.74272 0.68711 0.56017 0.0
C289 C 0.74051 0.67448 0.53034 0.0
C290 C 0.72688 0.71084 0.5102 0.0
C291 C 0.71395 0.75805 0.51909 0.0
C292 C 0.70802 0.79225 0.4929 0.0
C293 C 0.65448 0.80954 0.48998 0.0
C294 C 0.74375 0.83663 0.49476 0.0
C295 C 0.7217 0.75755 0.46812 0.0
C296 C 0.73152 0.71052 0.47846 0.0
C297 C 0.74886 0.67329 0.46 0.0
C298 C 0.7568 0.68456 0.43025 0.0
C299 C 0.74788 0.73281 0.41935 0.0
C300 C 0.72927 0.76934 0.43853 0.0
H301 H 0.68631 0.22246 0.93111 0.0
H302 H 0.82308 0.30556 0.92505 0.0
H303 H 0.83166 0.30275 0.97887 0.0
H304 H 0.64114 0.28144 -0.00673 0.0
H305 H 0.61408 0.22717 0.00989 0.0
H306 H 0.62117 0.23036 0.97064 0.0
H307 H 0.67059 0.14862 0.97139 0.0
H308 H 0.66352 0.14507 0.01072 0.0
H309 H 0.72405 0.14358 -0.00531 0.0
H310 H 0.81984 0.3019 0.03286 0.0
H311 H 0.7906 0.29813 0.0842 0.0
H312 H 0.66437 0.2112 0.05651 0.0
C313 C 0.71858 0.2391 0.94108 0.0
C314 C 0.75401 0.26427 0.92382 0.0
C315 C 0.79545 0.28605 0.93775 0.0
C316 C 0.80074 0.28457 0.96835 0.0
C317 C 0.76466 0.26058 0.98478 0.0
C318 C 0.72466 0.23765 0.97171 0.0
C319 C 0.6898 0.21692 -0.00529 0.0
C320 C 0.63853 0.24039 -0.00805 0.0
C321 C 0.68683 0.16017 -0.00724 0.0
C322 C 0.71566 0.2333 0.02267 0.0
C323 C 0.75887 0.25832 0.01635 0.0
C324 C 0.78679 0.28131 0.03818 0.0
C325 C 0.76991 0.2791 0.06721 0.0
C326 C 0.72598 0.25351 0.0742 0.0
C327 C 0.69894 0.22961 0.05174 0.0
H328 H 0.51306 0.25271 0.21325 0.0
H329 H 0.51837 0.09885 0.18645 0.0
H330 H 0.43835 0.08357 0.2107 0.0
H331 H 0.44968 0.23421 0.28438 0.0
H332 H 0.41322 0.28925 0.27979 0.0
H333 H 0.47367 0.28603 0.2638 0.0
H334 H 0.43643 0.30685 0.21284 0.0
H335 H 0.37576 0.30916 0.22852 0.0
H336 H 0.38799 0.2683 0.19814 0.0
H337 H 0.35517 0.08644 0.23497 0.0
H338 H 0.27645 0.10628 0.25914 0.0
H339 H 0.32299 0.2596 0.2677 0.0
C340 C 0.49824 0.2154 0.21347 0.0
C341 C 0.52248 0.17659 0.1986 0.0
C342 C 0.50082 0.1288 0.19819 0.0
C343 C 0.45527 0.11989 0.21176 0.0
C344 C 0.43147 0.15934 0.22532 0.0
C345 C 0.45231 0.20611 0.22642 0.0
C346 C 0.41749 0.24288 0.24045 0.0
C347 C 0.43985 0.26435 0.26879 0.0
C348 C 0.40361 0.28423 0.21869 0.0
C349 C 0.37377 0.20953 0.24701 0.0
C350 C 0.38271 0.16144 0.23822 0.0
C351 C 0.34785 0.12394 0.24201 0.0
C352 C 0.30311 0.13563 0.25564 0.0
C353 C 0.29327 0.18454 0.26516 0.0
C354 C 0.32906 0.22197 0.26041 0.0
H355 H 0.30627 0.80294 0.73831 0.0
H356 H 0.17739 0.82671 0.79249 0.0
H357 H 0.17044 0.91171 0.7732 0.0
H358 H 0.35754 0.92612 0.74317 0.0
H359 H 0.37644 0.92881 0.70526 0.0
H360 H 0.37304 0.87001 0.72394 0.0
H361 H 0.31407 0.83621 0.68382 0.0
H362 H 0.31794 0.89462 0.6648 0.0
H363 H 0.25878 0.86984 0.67517 0.0
H364 H 0.17891 -0.00506 0.74982 0.0
H365 H 0.19331 0.06667 0.71748 0.0
H366 H 0.31303 0.98837 0.67526 0.0
C367 C 0.27654 0.82606 0.74599 0.0
C368 C 0.24245 0.80821 0.767 0.0
C369 C 0.20378 0.83941 0.77632 0.0
C370 C 0.19976 0.88796 0.76569 0.0
C371 C 0.23426 0.90471 0.74537 0.0
C372 C 0.27127 0.87448 0.73507 0.0
C373 C 0.30151 0.90094 0.71176 0.0
C374 C 0.35533 0.90681 0.72163 0.0
C375 C 0.29783 0.87379 0.68213 0.0
C376 C 0.2757 0.95068 0.71066 0.0
C377 C 0.23764 0.95225 0.73068 0.0
C378 C 0.20848 -0.00589 0.73395 0.0
C379 C 0.21724 0.03491 0.71557 0.0
C380 C 0.25435 0.03341 0.69375 0.0
C381 C 0.28452 -0.00911 0.69175 0.0
H382 H 0.66249 0.83472 0.25189 0.0
H383 H 0.62272 0.72483 0.31728 0.0
H384 H 0.53748 0.72359 0.29847 0.0
H385 H 0.54344 0.90035 0.24829 0.0
H386 H 0.54581 0.90737 0.20893 0.0
H387 H 0.602 0.90543 0.23 0.0
H388 H 0.63307 0.8324 0.19826 0.0
H389 H 0.57734 0.8346 0.17695 0.0
H390 H 0.59534 0.77765 0.19456 0.0
H391 H 0.4579 0.7312 0.27163 0.0
H392 H 0.39321 0.73642 0.23374 0.0
H393 H 0.48536 0.83653 0.183 0.0
C394 C 0.63546 0.8111 0.26243 0.0
C395 C 0.64876 0.78023 0.28619 0.0
C396 C 0.61302 0.74875 0.29905 0.0
C397 C 0.56447 0.74815 0.28871 0.0
C398 C 0.55233 0.77875 0.26517 0.0
C399 C 0.58693 0.80901 0.2518 0.0
C400 C 0.56563 0.83345 0.2246 0.0
C401 C 0.56414 0.89001 0.22818 0.0
C402 C 0.59455 0.81861 0.19696 0.0
C403 C 0.51416 0.81137 0.22449 0.0
C404 C 0.50688 0.78105 0.24856 0.0
C405 C 0.46301 0.75506 0.25275 0.0
C406 C 0.42629 0.7585 0.23114 0.0
C407 C 0.43406 0.78689 0.20536 0.0
C408 C 0.47808 0.8148 0.20255 0.0
H409 H 0.68379 0.16721 0.7532 0.0
H410 H 0.81583 0.14322 0.80489 0.0
H411 H 0.82419 0.0599 0.78332 0.0
H412 H 0.63621 0.042 0.75532 0.0
H413 H 0.61561 0.0421 0.71764 0.0
H414 H 0.61813 0.09922 0.73804 0.0
H415 H 0.67407 0.13833 0.69816 0.0
H416 H 0.67119 0.08157 0.6775 0.0
H417 H 0.73 0.10738 0.68782 0.0
H418 H 0.81707 0.97852 0.7576 0.0
H419 H 0.80291 0.90898 0.72366 0.0
H420 H 0.67905 0.98699 0.68528 0.0
C421 C 0.7144 0.14432 0.75993 0.0
C422 C 0.74906 0.16155 0.78085 0.0
C423 C 0.78898 0.13085 0.78885 0.0
C424 C 0.79382 0.08331 0.77689 0.0
C425 C 0.75887 0.06718 0.75657 0.0
C426 C 0.72048 0.09703 0.74765 0.0
C427 C 0.68997 0.07171 0.72397 0.0
C428 C 0.63683 0.06326 0.73438 0.0
C429 C 0.69142 0.10152 0.69516 0.0
C430 C 0.71723 0.02302 0.72105 0.0
C431 C 0.75626 0.02094 0.7405 0.0
C432 C 0.78676 0.97978 0.74217 0.0
C433 C 0.77815 0.94025 0.72287 0.0
C434 C 0.73983 0.94232 0.70172 0.0
C435 C 0.70855 0.98412 0.70121 0.0
H436 H 0.01114 0.21966 0.27343 0.0
H437 H 0.01575 0.37132 0.3044 0.0
H438 H 0.93676 0.38794 0.27929 0.0
H439 H 0.95088 0.24285 0.2019 0.0
H440 H 0.91356 0.18762 0.20429 0.0
H441 H 0.97317 0.18952 0.22164 0.0
H442 H 0.93316 0.16521 0.27121 0.0
H443 H 0.87334 0.16402 0.25417 0.0
H444 H 0.88429 0.20267 0.2858 0.0
H445 H 0.85522 0.3869 0.25331 0.0
H446 H 0.77735 0.36901 0.22739 0.0
H447 H 0.82262 0.21647 0.21536 0.0
C448 C -0.00374 0.25677 0.27404 0.0
C449 C 0.0201 0.29465 0.29024 0.0
C450 C -0.00154 0.34214 0.29168 0.0
C451 C 0.95353 0.35181 0.27759 0.0
C452 C 0.93019 0.31335 0.26252 0.0
C453 C 0.95078 0.26676 0.26058 0.0
C454 C 0.9163 0.23107 0.24485 0.0
C455 C 0.93989 0.21163 0.21648 0.0
C456 C 0.90087 0.18822 0.26523 0.0
C457 C 0.8732 0.2649 0.23821 0.0
C458 C 0.88215 0.31223 0.24851 0.0
C459 C 0.84787 0.35 0.24509 0.0
C460 C 0.8036 0.33941 0.23041 0.0
C461 C 0.79358 0.2913 0.21943 0.0
C462 C 0.8289 0.25353 0.22367 0.0
H463 H 0.24354 0.3452 0.69543 0.0
H464 H 0.09918 0.2856 0.71585 0.0
H465 H 0.08214 0.35893 0.74675 0.0
H466 H 0.27012 0.39802 0.7652 0.0
H467 H 0.30002 0.4523 0.75043 0.0
H468 H 0.30015 0.39532 0.72996 0.0
H469 H 0.26131 0.44065 0.68542 0.0
H470 H 0.26062 0.49771 0.7059 0.0
H471 H 0.20448 0.47379 0.69011 0.0
H472 H 0.08425 0.43559 0.7789 0.0
H473 H 0.10388 0.51111 0.80765 0.0
H474 H 0.24313 0.52446 0.76217 0.0
C475 C 0.20838 0.34756 0.70646 0.0
C476 C 0.17281 0.30953 0.70351 0.0
C477 C 0.12696 0.31429 0.7179 0.0
C478 C 0.11696 0.35582 0.73544 0.0
C479 C 0.15278 0.39278 0.73782 0.0
C480 C 0.19737 0.38927 0.72346 0.0
C481 C 0.22952 0.43416 0.72945 0.0
C482 C 0.27779 0.41903 0.74467 0.0
C483 C 0.23956 0.46329 0.70103 0.0
C484 C 0.19658 0.46297 0.75 0.0
C485 C 0.15253 0.43842 0.75469 0.0
C486 C 0.1181 0.4557 0.77488 0.0
C487 C 0.12942 0.49863 0.79103 0.0
C488 C 0.17427 0.52429 0.78645 0.0
C489 C 0.20773 0.50663 0.76526 0.0
H490 H 0.15857 0.67212 0.22672 0.0
H491 H 0.12756 0.79731 0.16995 0.0
H492 H 0.04359 0.80219 0.19029 0.0
H493 H 0.03614 0.616 0.22617 0.0
H494 H 0.03767 0.59995 0.26462 0.0
H495 H 0.09403 0.60309 0.24391 0.0
H496 H 0.13008 0.66611 0.28118 0.0
H497 H 0.07411 0.66267 0.30214 0.0
H498 H 0.0964 0.72179 0.28924 0.0
H499 H 0.96323 0.79372 0.21654 0.0
H500 H 0.89642 0.78161 0.25233 0.0
H501 H 0.9809 0.66595 0.29514 0.0
C502 C 0.13387 0.70027 0.21847 0.0
C503 C 0.14933 0.73413 0.19659 0.0
C504 C 0.11643 0.77108 0.18672 0.0
C505 C 0.06854 0.77386 0.19796 0.0
C506 C 0.05427 0.73988 0.21942 0.0
C507 C 0.08619 0.70437 0.23001 0.0
C508 C 0.06293 0.67533 0.25502 0.0
C509 C 0.05737 0.62033 0.24694 0.0
C510 C 0.09264 0.68189 0.28358 0.0
C511 C 0.01319 0.70038 0.25695 0.0
C512 C 0.00863 0.73672 0.23574 0.0
C513 C 0.96636 0.76538 0.23327 0.0
C514 C 0.9284 0.75796 0.25365 0.0
C515 C 0.9332 0.7228 0.27663 0.0
C516 C 0.97587 0.69294 0.27778 0.0
H517 H 0.75291 0.51012 0.81476 0.0
H518 H 0.84266 0.40638 0.76627 0.0
H519 H 0.86411 0.4731 0.73071 0.0
H520 H 0.70212 0.5682 0.75171 0.0
H521 H 0.69954 0.62864 0.76838 0.0
H522 H 0.69548 0.57403 0.79096 0.0
H523 H 0.76935 0.60516 0.82209 0.0
H524 H 0.77381 0.65983 0.7995 0.0
H525 H 0.82654 0.62039 0.80416 0.0
H526 H 0.87608 0.55293 0.70109 0.0
H527 H 0.86897 0.63416 0.67621 0.0
H528 H 0.76482 0.68188 0.74225 0.0
C529 C 0.77772 0.50158 0.79689 0.0
C530 C 0.79704 0.45348 0.79349 0.0
C531 C 0.82796 0.44321 0.76933 0.0
C532 C 0.8404 0.48088 0.74918 0.0
C533 C 0.82071 0.52811 0.7533 0.0
C534 C 0.78935 0.53816 0.77633 0.0
C535 C 0.7697 0.59044 0.77475 0.0
C536 C 0.71338 0.59029 0.77123 0.0
C537 C 0.78583 0.62073 0.80173 0.0
C538 C 0.7949 0.60861 0.74717 0.0
C539 C 0.82494 0.57254 0.73539 0.0
C540 C 0.85249 0.58125 0.71009 0.0
C541 C 0.84842 0.62758 0.69621 0.0
C542 C 0.81628 0.66419 0.70731 0.0
C543 C 0.78957 0.65454 0.73325 0.0
loop_
_geom_bond_atom_site_label_1
_geom_bond_atom_site_label_2
_geom_bond_distance
_geom_bond_site_symmetry_2
_ccdc_geom_bond_type
C0 O1 1.306 . S
C0 O3 1.160 . S
O1 C0 1.306 . S
O1 Cd2 2.228 . S
Cd2 O1 2.228 . S
Cd2 O6 2.273 . S
Cd2 O10 2.277 . S
O3 C0 1.160 . S
O3 Cd4 2.203 . S
Cd4 O3 2.203 . S
Cd4 O6 2.411 . S
Cd4 O7 2.333 . S
Cd4 O8 2.352 . S
Cd4 O12 2.277 . S
Cd4 O13 2.356 . S
C5 O10 1.209 . S
C5 O12 1.226 . S
O6 Cd2 2.273 . S
O6 Cd4 2.411 . S
O6 C9 1.320 . S
O7 Cd4 2.333 . S
O7 C9 1.214 . S
O8 Cd4 2.352 . S
O8 C11 1.258 . S
C9 O6 1.320 . S
C9 O7 1.214 . S
O10 Cd2 2.277 . S
O10 C5 1.209 . S
C11 O8 1.258 . S
C11 O13 1.282 . S
O12 Cd4 2.277 . S
O12 C5 1.226 . S
O13 Cd4 2.356 . S
O13 C11 1.282 . S
C14 O15 1.306 . S
C14 O17 1.160 . S
O15 C14 1.306 . S
O15 Cd16 2.228 . S
Cd16 O15 2.228 . S
Cd16 O20 2.273 . S
Cd16 O24 2.277 . S
O17 C14 1.160 . S
O17 Cd18 2.203 . S
Cd18 O17 2.203 . S
Cd18 O20 2.411 . S
Cd18 O21 2.333 . S
Cd18 O22 2.352 . S
Cd18 O26 2.277 . S
Cd18 O27 2.356 . S
C19 O24 1.209 . S
C19 O26 1.226 . S
O20 Cd16 2.273 . S
O20 Cd18 2.411 . S
O20 C23 1.320 . S
O21 Cd18 2.333 . S
O21 C23 1.214 . S
O22 Cd18 2.352 . S
O22 C25 1.258 . S
C23 O20 1.320 . S
C23 O21 1.214 . S
O24 Cd16 2.277 . S
O24 C19 1.209 . S
C25 O22 1.258 . S
C25 O27 1.282 . S
O26 Cd18 2.277 . S
O26 C19 1.226 . S
O27 Cd18 2.356 . S
O27 C25 1.282 . S
C28 O29 1.306 . S
C28 O31 1.160 . S
O29 C28 1.306 . S
O29 Cd30 2.228 . S
Cd30 O29 2.228 . S
Cd30 O34 2.273 . S
Cd30 O38 2.277 . S
O31 C28 1.160 . S
O31 Cd32 2.203 . S
Cd32 O31 2.203 . S
Cd32 O34 2.411 . S
Cd32 O35 2.333 . S
Cd32 O36 2.352 . S
Cd32 O40 2.277 . S
Cd32 O41 2.356 . S
C33 O38 1.209 . S
C33 O40 1.226 . S
O34 Cd30 2.273 . S
O34 Cd32 2.411 . S
O34 C37 1.320 . S
O35 Cd32 2.333 . S
O35 C37 1.214 . S
O36 Cd32 2.352 . S
O36 C39 1.258 . S
C37 O34 1.320 . S
C37 O35 1.214 . S
O38 Cd30 2.277 . S
O38 C33 1.209 . S
C39 O36 1.258 . S
C39 O41 1.282 . S
O40 Cd32 2.277 . S
O40 C33 1.226 . S
O41 Cd32 2.356 . S
O41 C39 1.282 . S
C42 O43 1.306 . S
C42 O45 1.160 . S
O43 C42 1.306 . S
O43 Cd44 2.228 . S
Cd44 O43 2.228 . S
Cd44 O48 2.273 . S
Cd44 O52 2.277 . S
O45 C42 1.160 . S
O45 Cd46 2.203 . S
Cd46 O45 2.203 . S
Cd46 O48 2.411 . S
Cd46 O49 2.333 . S
Cd46 O50 2.352 . S
Cd46 O54 2.277 . S
Cd46 O55 2.356 . S
C47 O52 1.209 . S
C47 O54 1.226 . S
O48 Cd44 2.273 . S
O48 Cd46 2.411 . S
O48 C51 1.320 . S
O49 Cd46 2.333 . S
O49 C51 1.214 . S
O50 Cd46 2.352 . S
O50 C53 1.258 . S
C51 O48 1.320 . S
C51 O49 1.214 . S
O52 Cd44 2.277 . S
O52 C47 1.209 . S
C53 O50 1.258 . S
C53 O55 1.282 . S
O54 Cd46 2.277 . S
O54 C47 1.226 . S
O55 Cd46 2.356 . S
O55 C53 1.282 . S
C56 O57 1.306 . S
C56 O59 1.160 . S
O57 C56 1.306 . S
O57 Cd58 2.228 . S
Cd58 O57 2.228 . S
Cd58 O62 2.273 . S
Cd58 O66 2.277 . S
O59 C56 1.160 . S
O59 Cd60 2.203 . S
Cd60 O59 2.203 . S
Cd60 O62 2.411 . S
Cd60 O63 2.333 . S
Cd60 O64 2.352 . S
Cd60 O68 2.277 . S
Cd60 O69 2.356 . S
C61 O66 1.209 . S
C61 O68 1.226 . S
O62 Cd58 2.273 . S
O62 Cd60 2.411 . S
O62 C65 1.320 . S
O63 Cd60 2.333 . S
O63 C65 1.214 . S
O64 Cd60 2.352 . S
O64 C67 1.258 . S
C65 O62 1.320 . S
C65 O63 1.214 . S
O66 Cd58 2.277 . S
O66 C61 1.209 . S
C67 O64 1.258 . S
C67 O69 1.282 . S
O68 Cd60 2.277 . S
O68 C61 1.226 . S
O69 Cd60 2.356 . S
O69 C67 1.282 . S
C70 O71 1.306 . S
C70 O73 1.160 . S
O71 C70 1.306 . S
O71 Cd72 2.228 . S
Cd72 O71 2.228 . S
Cd72 O76 2.273 . S
Cd72 O80 2.277 . S
O73 C70 1.160 . S
O73 Cd74 2.203 . S
Cd74 O73 2.203 . S
Cd74 O76 2.411 . S
Cd74 O77 2.333 . S
Cd74 O78 2.352 . S
Cd74 O82 2.277 . S
Cd74 O83 2.356 . S
C75 O80 1.209 . S
C75 O82 1.226 . S
O76 Cd72 2.273 . S
O76 Cd74 2.411 . S
O76 C79 1.320 . S
O77 Cd74 2.333 . S
O77 C79 1.214 . S
O78 Cd74 2.352 . S
O78 C81 1.258 . S
C79 O76 1.320 . S
C79 O77 1.214 . S
O80 Cd72 2.277 . S
O80 C75 1.209 . S
C81 O78 1.258 . S
C81 O83 1.282 . S
O82 Cd74 2.277 . S
O82 C75 1.226 . S
O83 Cd74 2.356 . S
O83 C81 1.282 . S
C84 O85 1.306 . S
C84 O87 1.160 . S
O85 C84 1.306 . S
O85 Cd86 2.228 . S
Cd86 O85 2.228 . S
Cd86 O90 2.273 . S
Cd86 O94 2.277 . S
O87 C84 1.160 . S
O87 Cd88 2.203 . S
Cd88 O87 2.203 . S
Cd88 O90 2.411 . S
Cd88 O91 2.333 . S
Cd88 O92 2.352 . S
Cd88 O96 2.277 . S
Cd88 O97 2.356 . S
C89 O94 1.209 . S
C89 O96 1.226 . S
O90 Cd86 2.273 . S
O90 Cd88 2.411 . S
O90 C93 1.320 . S
O91 Cd88 2.333 . S
O91 C93 1.214 . S
O92 Cd88 2.352 . S
O92 C95 1.258 . S
C93 O90 1.320 . S
C93 O91 1.214 . S
O94 Cd86 2.277 . S
O94 C89 1.209 . S
C95 O92 1.258 . S
C95 O97 1.282 . S
O96 Cd88 2.277 . S
O96 C89 1.226 . S
O97 Cd88 2.356 . S
O97 C95 1.282 . S
C98 O99 1.306 . S
C98 O101 1.160 . S
O99 C98 1.306 . S
O99 Cd100 2.228 . S
Cd100 O99 2.228 . S
Cd100 O104 2.273 . S
Cd100 O108 2.277 . S
O101 C98 1.160 . S
O101 Cd102 2.203 . S
Cd102 O101 2.203 . S
Cd102 O104 2.411 . S
Cd102 O105 2.333 . S
Cd102 O106 2.352 . S
Cd102 O110 2.277 . S
Cd102 O111 2.356 . S
C103 O108 1.209 . S
C103 O110 1.226 . S
O104 Cd100 2.273 . S
O104 Cd102 2.411 . S
O104 C107 1.320 . S
O105 Cd102 2.333 . S
O105 C107 1.214 . S
O106 Cd102 2.352 . S
O106 C109 1.258 . S
C107 O104 1.320 . S
C107 O105 1.214 . S
O108 Cd100 2.277 . S
O108 C103 1.209 . S
C109 O106 1.258 . S
C109 O111 1.282 . S
O110 Cd102 2.277 . S
O110 C103 1.226 . S
O111 Cd102 2.356 . S
O111 C109 1.282 . S
H112 C124 0.930 . S
H113 C126 0.930 . S
H114 C127 0.930 . S
H115 C131 0.959 . S
H116 C131 0.959 . S
H117 C131 0.961 . S
H118 C132 0.969 1_455 S
H119 C132 0.956 1_565 S
H120 C132 0.952 1_465 S
H121 C135 0.929 1_455 S
H122 C136 0.931 . S
H123 C138 0.930 . S
C124 H112 0.930 . S
C124 C125 1.399 . S
C124 C129 1.399 . S
C125 C124 1.399 . S
C125 C126 1.376 . S
C126 H113 0.930 . S
C126 C125 1.376 . S
C126 C127 1.388 . S
C127 H114 0.930 . S
C127 C126 1.388 . S
C127 C128 1.390 . S
C128 C127 1.390 . S
C128 C129 1.394 . S
C128 C134 1.465 1_445 S
C129 C124 1.399 . S
C129 C128 1.394 . S
C129 C130 1.516 1_455 S
C130 C129 1.516 1_655 S
C130 C131 1.502 . S
C130 C132 1.564 . S
C130 C133 1.526 1_545 S
C131 H115 0.959 . S
C131 H116 0.959 . S
C131 H117 0.961 . S
C131 C130 1.502 . S
C132 H118 0.969 1_655 S
C132 H119 0.956 1_545 S
C132 H120 0.952 1_645 S
C132 C130 1.564 . S
C133 C130 1.526 1_565 S
C133 C134 1.396 . S
C133 C138 1.390 . S
C134 C128 1.465 1_665 S
C134 C133 1.396 . S
C134 C135 1.399 . S
C135 H121 0.929 1_655 S
C135 C134 1.399 . S
C135 C136 1.385 . S
C136 H122 0.931 . S
C136 C135 1.385 . S
C136 C137 1.389 . S
C137 C136 1.389 . S
C137 C138 1.387 . S
C138 H123 0.930 . S
C138 C133 1.390 . S
C138 C137 1.387 . S
H139 C151 0.930 . S
H140 C153 0.930 . S
H141 C154 0.930 . S
H142 C158 0.959 . S
H143 C158 0.959 . S
H144 C158 0.961 . S
H145 C159 0.960 . S
H146 C159 0.961 . S
H147 C159 0.959 . S
H148 C162 0.929 . S
H149 C163 0.931 . S
H150 C165 0.930 . S
C151 H139 0.930 . S
C151 C152 1.399 . S
C151 C156 1.399 . S
C152 C151 1.399 . S
C152 C153 1.376 . S
C153 H140 0.930 . S
C153 C152 1.376 . S
C153 C154 1.388 . S
C154 H141 0.930 . S
C154 C153 1.388 . S
C154 C155 1.390 . S
C155 C154 1.390 . S
C155 C156 1.394 . S
C155 C161 1.465 . S
C156 C151 1.399 . S
C156 C155 1.394 . S
C156 C157 1.516 . S
C157 C156 1.516 . S
C157 C158 1.502 . S
C157 C159 1.561 . S
C157 C160 1.526 . S
C158 H142 0.959 . S
C158 H143 0.959 . S
C158 H144 0.961 . S
C158 C157 1.502 . S
C159 H145 0.960 . S
C159 H146 0.961 . S
C159 H147 0.959 . S
C159 C157 1.561 . S
C160 C157 1.526 . S
C160 C161 1.396 . S
C160 C165 1.390 . S
C161 C155 1.465 . S
C161 C160 1.396 . S
C161 C162 1.399 . S
C162 H148 0.929 . S
C162 C161 1.399 . S
C162 C163 1.385 . S
C163 H149 0.931 . S
C163 C162 1.385 . S
C163 C164 1.389 . S
C164 C163 1.389 . S
C164 C165 1.387 . S
C165 H150 0.930 . S
C165 C160 1.390 . S
C165 C164 1.387 . S
H166 C178 0.930 . S
H167 C180 0.930 . S
H168 C181 0.930 . S
H169 C185 0.959 . S
H170 C185 0.959 . S
H171 C185 0.961 . S
H172 C186 0.960 . S
H173 C186 0.961 . S
H174 C186 0.959 . S
H175 C189 0.929 . S
H176 C190 0.931 . S
H177 C192 0.930 . S
C178 H166 0.930 . S
C178 C179 1.399 . S
C178 C183 1.399 . S
C179 C178 1.399 . S
C179 C180 1.376 . S
C180 H167 0.930 . S
C180 C179 1.376 . S
C180 C181 1.388 . S
C181 H168 0.930 . S
C181 C180 1.388 . S
C181 C182 1.390 . S
C182 C181 1.390 . S
C182 C183 1.394 . S
C182 C188 1.465 . S
C183 C178 1.399 . S
C183 C182 1.394 . S
C183 C184 1.516 . S
C184 C183 1.516 . S
C184 C185 1.502 . S
C184 C186 1.561 . S
C184 C187 1.526 . S
C185 H169 0.959 . S
C185 H170 0.959 . S
C185 H171 0.961 . S
C185 C184 1.502 . S
C186 H172 0.960 . S
C186 H173 0.961 . S
C186 H174 0.959 . S
C186 C184 1.561 . S
C187 C184 1.526 . S
C187 C188 1.396 . S
C187 C192 1.390 . S
C188 C182 1.465 . S
C188 C187 1.396 . S
C188 C189 1.399 . S
C189 H175 0.929 . S
C189 C188 1.399 . S
C189 C190 1.385 . S
C190 H176 0.931 . S
C190 C189 1.385 . S
C190 C191 1.389 . S
C191 C190 1.389 . S
C191 C192 1.387 . S
C192 H177 0.930 . S
C192 C187 1.390 . S
C192 C191 1.387 . S
H193 C205 0.930 . S
H194 C207 0.930 . S
H195 C208 0.930 . S
H196 C212 0.959 . S
H197 C212 0.959 1_655 S
H198 C212 0.961 . S
H199 C213 0.960 . S
H200 C213 0.961 . S
H201 C213 0.959 . S
H202 C216 0.929 . S
H203 C217 0.931 . S
H204 C219 0.930 . S
C205 H193 0.930 . S
C205 C206 1.399 . S
C205 C210 1.399 . S
C206 C205 1.399 . S
C206 C207 1.376 . S
C207 H194 0.930 . S
C207 C206 1.376 . S
C207 C208 1.388 . S
C208 H195 0.930 . S
C208 C207 1.388 . S
C208 C209 1.390 . S
C209 C208 1.390 . S
C209 C210 1.394 . S
C209 C215 1.465 1_445 S
C210 C205 1.399 . S
C210 C209 1.394 . S
C210 C211 1.516 1_455 S
C211 C210 1.516 1_655 S
C211 C212 1.502 1_645 S
C211 C213 1.561 . S
C211 C214 1.526 1_545 S
C212 H196 0.959 . S
C212 H197 0.959 1_455 S
C212 H198 0.961 . S
C212 C211 1.502 1_465 S
C213 H199 0.960 . S
C213 H200 0.961 . S
C213 H201 0.959 . S
C213 C211 1.561 . S
C214 C211 1.526 1_565 S
C214 C215 1.396 . S
C214 C219 1.390 . S
C215 C209 1.465 1_665 S
C215 C214 1.396 . S
C215 C216 1.399 . S
C216 H202 0.929 . S
C216 C215 1.399 . S
C216 C217 1.385 . S
C217 H203 0.931 . S
C217 C216 1.385 . S
C217 C218 1.389 . S
C218 C217 1.389 . S
C218 C219 1.387 . S
C219 H204 0.930 . S
C219 C214 1.390 . S
C219 C218 1.387 . S
H220 C232 0.930 . S
H221 C234 0.930 . S
H222 C235 0.930 . S
H223 C239 0.959 . S
H224 C239 0.959 . S
H225 C239 0.961 . S
H226 C240 0.960 . S
H227 C240 0.961 . S
H228 C240 0.959 . S
H229 C243 0.929 . S
H230 C244 0.931 . S
H231 C246 0.930 . S
C232 H220 0.930 . S
C232 C233 1.399 . S
C232 C237 1.399 . S
C233 C232 1.399 . S
C233 C234 1.376 . S
C234 H221 0.930 . S
C234 C233 1.376 . S
C234 C235 1.388 . S
C235 H222 0.930 . S
C235 C234 1.388 . S
C235 C236 1.390 . S
C236 C235 1.390 . S
C236 C237 1.394 . S
C236 C242 1.465 . S
C237 C232 1.399 . S
C237 C236 1.394 . S
C237 C238 1.516 . S
C238 C237 1.516 . S
C238 C239 1.502 . S
C238 C240 1.561 . S
C238 C241 1.526 . S
C239 H223 0.959 . S
C239 H224 0.959 . S
C239 H225 0.961 . S
C239 C238 1.502 . S
C240 H226 0.960 . S
C240 H227 0.961 . S
C240 H228 0.959 . S
C240 C238 1.561 . S
C241 C238 1.526 . S
C241 C242 1.396 . S
C241 C246 1.390 . S
C242 C236 1.465 . S
C242 C241 1.396 . S
C242 C243 1.399 . S
C243 H229 0.929 . S
C243 C242 1.399 . S
C243 C244 1.385 . S
C244 H230 0.931 . S
C244 C243 1.385 . S
C244 C245 1.389 . S
C245 C244 1.389 . S
C245 C246 1.387 . S
C246 H231 0.930 . S
C246 C241 1.390 . S
C246 C245 1.387 . S
H247 C259 0.930 . S
H248 C261 0.930 . S
H249 C262 0.930 . S
H250 C266 0.959 . S
H251 C266 0.959 . S
H252 C266 0.961 . S
H253 C267 0.960 1_556 S
H254 C267 0.961 . S
H255 C267 0.959 . S
H256 C270 0.929 . S
H257 C271 0.931 . S
H258 C273 0.930 . S
C259 H247 0.930 . S
C259 C260 1.399 . S
C259 C264 1.399 . S
C260 C259 1.399 . S
C260 C261 1.376 . S
C261 H248 0.930 . S
C261 C260 1.376 . S
C261 C262 1.388 . S
C262 H249 0.930 . S
C262 C261 1.388 . S
C262 C263 1.390 . S
C263 C262 1.390 . S
C263 C264 1.394 . S
C263 C269 1.465 1_556 S
C264 C259 1.399 . S
C264 C263 1.394 . S
C264 C265 1.516 1_556 S
C265 C264 1.516 1_554 S
C265 C266 1.502 . S
C265 C267 1.561 . S
C265 C268 1.526 . S
C266 H250 0.959 . S
C266 H251 0.959 . S
C266 H252 0.961 . S
C266 C265 1.502 . S
C267 H253 0.960 1_554 S
C267 H254 0.961 . S
C267 H255 0.959 . S
C267 C265 1.561 . S
C268 C265 1.526 . S
C268 C269 1.396 . S
C268 C273 1.390 . S
C269 C263 1.465 1_554 S
C269 C268 1.396 . S
C269 C270 1.399 . S
C270 H256 0.929 . S
C270 C269 1.399 . S
C270 C271 1.385 . S
C271 H257 0.931 . S
C271 C270 1.385 . S
C271 C272 1.389 . S
C272 C271 1.389 . S
C272 C273 1.387 . S
C273 H258 0.930 . S
C273 C268 1.390 . S
C273 C272 1.387 . S
H274 C286 0.930 . S
H275 C288 0.930 . S
H276 C289 0.930 . S
H277 C293 0.959 . S
H278 C293 0.959 . S
H279 C293 0.961 . S
H280 C294 0.960 . S
H281 C294 0.961 . S
H282 C294 0.959 . S
H283 C297 0.929 . S
H284 C298 0.931 . S
H285 C300 0.930 . S
C286 H274 0.930 . S
C286 C287 1.399 . S
C286 C291 1.399 . S
C287 C286 1.399 . S
C287 C288 1.376 . S
C288 H275 0.930 . S
C288 C287 1.376 . S
C288 C289 1.388 . S
C289 H276 0.930 . S
C289 C288 1.388 . S
C289 C290 1.390 . S
C290 C289 1.390 . S
C290 C291 1.394 . S
C290 C296 1.465 . S
C291 C286 1.399 . S
C291 C290 1.394 . S
C291 C292 1.516 . S
C292 C291 1.516 . S
C292 C293 1.502 . S
C292 C294 1.561 . S
C292 C295 1.526 . S
C293 H277 0.959 . S
C293 H278 0.959 . S
C293 H279 0.961 . S
C293 C292 1.502 . S
C294 H280 0.960 . S
C294 H281 0.961 . S
C294 H282 0.959 . S
C294 C292 1.561 . S
C295 C292 1.526 . S
C295 C296 1.396 . S
C295 C300 1.390 . S
C296 C290 1.465 . S
C296 C295 1.396 . S
C296 C297 1.399 . S
C297 H283 0.929 . S
C297 C296 1.399 . S
C297 C298 1.385 . S
C298 H284 0.931 . S
C298 C297 1.385 . S
C298 C299 1.389 . S
C299 C298 1.389 . S
C299 C300 1.387 . S
C300 H285 0.930 . S
C300 C295 1.390 . S
C300 C299 1.387 . S
H301 C313 0.930 . S
H302 C315 0.930 . S
H303 C316 0.930 . S
H304 C320 0.959 . S
H305 C320 0.959 . S
H306 C320 0.961 . S
H307 C321 0.960 . S
H308 C321 0.961 . S
H309 C321 0.959 . S
H310 C324 0.929 . S
H311 C325 0.931 . S
H312 C327 0.930 . S
C313 H301 0.930 . S
C313 C314 1.399 . S
C313 C318 1.399 . S
C314 C313 1.399 . S
C314 C315 1.376 . S
C315 H302 0.930 . S
C315 C314 1.376 . S
C315 C316 1.388 . S
C316 H303 0.930 . S
C316 C315 1.388 . S
C316 C317 1.390 . S
C317 C316 1.390 . S
C317 C318 1.394 . S
C317 C323 1.465 1_556 S
C318 C313 1.399 . S
C318 C317 1.394 . S
C318 C319 1.516 . S
C319 C318 1.516 . S
C319 C320 1.502 . S
C319 C321 1.561 . S
C319 C322 1.526 1_556 S
C320 H304 0.959 . S
C320 H305 0.959 . S
C320 H306 0.961 . S
C320 C319 1.502 . S
C321 H307 0.960 . S
C321 H308 0.961 . S
C321 H309 0.959 . S
C321 C319 1.561 . S
C322 C319 1.526 1_554 S
C322 C323 1.396 . S
C322 C327 1.390 . S
C323 C317 1.465 1_554 S
C323 C322 1.396 . S
C323 C324 1.399 . S
C324 H310 0.929 . S
C324 C323 1.399 . S
C324 C325 1.385 . S
C325 H311 0.931 . S
C325 C324 1.385 . S
C325 C326 1.389 . S
C326 C325 1.389 . S
C326 C327 1.387 . S
C327 H312 0.930 . S
C327 C322 1.390 . S
C327 C326 1.387 . S
H328 C340 0.930 . S
H329 C342 0.930 . S
H330 C343 0.930 . S
H331 C347 0.959 . S
H332 C347 0.959 . S
H333 C347 0.961 . S
H334 C348 0.960 . S
H335 C348 0.961 . S
H336 C348 0.959 . S
H337 C351 0.929 . S
H338 C352 0.931 . S
H339 C354 0.930 . S
C340 H328 0.930 . S
C340 C341 1.399 . S
C340 C345 1.399 . S
C341 C340 1.399 . S
C341 C342 1.376 . S
C342 H329 0.930 . S
C342 C341 1.376 . S
C342 C343 1.388 . S
C343 H330 0.930 . S
C343 C342 1.388 . S
C343 C344 1.390 . S
C344 C343 1.390 . S
C344 C345 1.394 . S
C344 C350 1.465 . S
C345 C340 1.399 . S
C345 C344 1.394 . S
C345 C346 1.516 . S
C346 C345 1.516 . S
C346 C347 1.502 . S
C346 C348 1.561 . S
C346 C349 1.526 . S
C347 H331 0.959 . S
C347 H332 0.959 . S
C347 H333 0.961 . S
C347 C346 1.502 . S
C348 H334 0.960 . S
C348 H335 0.961 . S
C348 H336 0.959 . S
C348 C346 1.561 . S
C349 C346 1.526 . S
C349 C350 1.396 . S
C349 C354 1.390 . S
C350 C344 1.465 . S
C350 C349 1.396 . S
C350 C351 1.399 . S
C351 H337 0.929 . S
C351 C350 1.399 . S
C351 C352 1.385 . S
C352 H338 0.931 . S
C352 C351 1.385 . S
C352 C353 1.389 . S
C353 C352 1.389 . S
C353 C354 1.387 . S
C354 H339 0.930 . S
C354 C349 1.390 . S
C354 C353 1.387 . S
H355 C367 0.930 . S
H356 C369 0.930 . S
H357 C370 0.930 . S
H358 C374 0.959 . S
H359 C374 0.959 . S
H360 C374 0.961 . S
H361 C375 0.960 . S
H362 C375 0.961 . S
H363 C375 0.959 . S
H364 C378 0.929 . S
H365 C379 0.931 . S
H366 C381 0.930 . S
C367 H355 0.930 . S
C367 C368 1.399 . S
C367 C372 1.399 . S
C368 C367 1.399 . S
C368 C369 1.376 . S
C369 H356 0.930 . S
C369 C368 1.376 . S
C369 C370 1.388 . S
C370 H357 0.930 . S
C370 C369 1.388 . S
C370 C371 1.390 . S
C371 C370 1.390 . S
C371 C372 1.394 . S
C371 C377 1.465 . S
C372 C367 1.399 . S
C372 C371 1.394 . S
C372 C373 1.516 . S
C373 C372 1.516 . S
C373 C374 1.502 . S
C373 C375 1.561 . S
C373 C376 1.526 . S
C374 H358 0.959 . S
C374 H359 0.959 . S
C374 H360 0.961 . S
C374 C373 1.502 . S
C375 H361 0.960 . S
C375 H362 0.961 . S
C375 H363 0.959 . S
C375 C373 1.561 . S
C376 C373 1.526 . S
C376 C377 1.396 . S
C376 C381 1.390 . S
C377 C371 1.465 . S
C377 C376 1.396 . S
C377 C378 1.399 . S
C378 H364 0.929 . S
C378 C377 1.399 . S
C378 C379 1.385 1_565 S
C379 H365 0.931 . S
C379 C378 1.385 1_545 S
C379 C380 1.389 . S
C380 C379 1.389 . S
C380 C381 1.387 1_545 S
C381 H366 0.930 . S
C381 C376 1.390 . S
C381 C380 1.387 1_565 S
H382 C394 0.930 . S
H383 C396 0.930 . S
H384 C397 0.930 . S
H385 C401 0.959 . S
H386 C401 0.959 . S
H387 C401 0.961 . S
H388 C402 0.960 . S
H389 C402 0.961 . S
H390 C402 0.959 . S
H391 C405 0.929 . S
H392 C406 0.931 . S
H393 C408 0.930 . S
C394 H382 0.930 . S
C394 C395 1.399 . S
C394 C399 1.399 . S
C395 C394 1.399 . S
C395 C396 1.376 . S
C396 H383 0.930 . S
C396 C395 1.376 . S
C396 C397 1.388 . S
C397 H384 0.930 . S
C397 C396 1.388 . S
C397 C398 1.390 . S
C398 C397 1.390 . S
C398 C399 1.394 . S
C398 C404 1.465 . S
C399 C394 1.399 . S
C399 C398 1.394 . S
C399 C400 1.516 . S
C400 C399 1.516 . S
C400 C401 1.502 . S
C400 C402 1.561 . S
C400 C403 1.526 . S
C401 H385 0.959 . S
C401 H386 0.959 . S
C401 H387 0.961 . S
C401 C400 1.502 . S
C402 H388 0.960 . S
C402 H389 0.961 . S
C402 H390 0.959 . S
C402 C400 1.561 . S
C403 C400 1.526 . S
C403 C404 1.396 . S
C403 C408 1.390 . S
C404 C398 1.465 . S
C404 C403 1.396 . S
C404 C405 1.399 . S
C405 H391 0.929 . S
C405 C404 1.399 . S
C405 C406 1.385 . S
C406 H392 0.931 . S
C406 C405 1.385 . S
C406 C407 1.389 . S
C407 C406 1.389 . S
C407 C408 1.387 . S
C408 H393 0.930 . S
C408 C403 1.390 . S
C408 C407 1.387 . S
H409 C421 0.930 . S
H410 C423 0.930 . S
H411 C424 0.930 . S
H412 C428 0.959 . S
H413 C428 0.959 . S
H414 C428 0.961 . S
H415 C429 0.960 . S
H416 C429 0.961 . S
H417 C429 0.959 . S
H418 C432 0.929 . S
H419 C433 0.931 . S
H420 C435 0.930 . S
C421 H409 0.930 . S
C421 C422 1.399 . S
C421 C426 1.399 . S
C422 C421 1.399 . S
C422 C423 1.376 . S
C423 H410 0.930 . S
C423 C422 1.376 . S
C423 C424 1.388 . S
C424 H411 0.930 . S
C424 C423 1.388 . S
C424 C425 1.390 . S
C425 C424 1.390 . S
C425 C426 1.394 . S
C425 C431 1.465 . S
C426 C421 1.399 . S
C426 C425 1.394 . S
C426 C427 1.516 . S
C427 C426 1.516 . S
C427 C428 1.502 . S
C427 C429 1.561 . S
C427 C430 1.526 . S
C428 H412 0.959 . S
C428 H413 0.959 . S
C428 H414 0.961 . S
C428 C427 1.502 . S
C429 H415 0.960 . S
C429 H416 0.961 . S
C429 H417 0.959 . S
C429 C427 1.561 . S
C430 C427 1.526 . S
C430 C431 1.396 . S
C430 C435 1.390 . S
C431 C425 1.465 . S
C431 C430 1.396 . S
C431 C432 1.399 . S
C432 H418 0.929 . S
C432 C431 1.399 . S
C432 C433 1.385 1_545 S
C433 H419 0.931 . S
C433 C432 1.385 1_565 S
C433 C434 1.389 . S
C434 C433 1.389 . S
C434 C435 1.387 1_565 S
C435 H420 0.930 . S
C435 C430 1.390 . S
C435 C434 1.387 1_545 S
H436 C448 0.930 . S
H437 C450 0.930 . S
H438 C451 0.930 . S
H439 C455 0.959 . S
H440 C455 0.959 . S
H441 C455 0.961 . S
H442 C456 0.960 . S
H443 C456 0.961 . S
H444 C456 0.959 . S
H445 C459 0.929 . S
H446 C460 0.931 . S
H447 C462 0.930 . S
C448 H436 0.930 . S
C448 C449 1.399 1_655 S
C448 C453 1.399 . S
C449 C448 1.399 1_455 S
C449 C450 1.376 . S
C450 H437 0.930 . S
C450 C449 1.376 . S
C450 C451 1.388 1_455 S
C451 H438 0.930 . S
C451 C450 1.388 1_655 S
C451 C452 1.390 . S
C452 C451 1.390 . S
C452 C453 1.394 . S
C452 C458 1.465 . S
C453 C448 1.399 . S
C453 C452 1.394 . S
C453 C454 1.516 . S
C454 C453 1.516 . S
C454 C455 1.502 . S
C454 C456 1.561 . S
C454 C457 1.526 . S
C455 H439 0.959 . S
C455 H440 0.959 . S
C455 H441 0.961 . S
C455 C454 1.502 . S
C456 H442 0.960 . S
C456 H443 0.961 . S
C456 H444 0.959 . S
C456 C454 1.561 . S
C457 C454 1.526 . S
C457 C458 1.396 . S
C457 C462 1.390 . S
C458 C452 1.465 . S
C458 C457 1.396 . S
C458 C459 1.399 . S
C459 H445 0.929 . S
C459 C458 1.399 . S
C459 C460 1.385 . S
C460 H446 0.931 . S
C460 C459 1.385 . S
C460 C461 1.389 . S
C461 C460 1.389 . S
C461 C462 1.387 . S
C462 H447 0.930 . S
C462 C457 1.390 . S
C462 C461 1.387 . S
H463 C475 0.930 . S
H464 C477 0.930 . S
H465 C478 0.930 . S
H466 C482 0.959 . S
H467 C482 0.959 . S
H468 C482 0.961 . S
H469 C483 0.960 . S
H470 C483 0.961 . S
H471 C483 0.959 . S
H472 C486 0.929 . S
H473 C487 0.931 . S
H474 C489 0.930 . S
C475 H463 0.930 . S
C475 C476 1.399 . S
C475 C480 1.399 . S
C476 C475 1.399 . S
C476 C477 1.376 . S
C477 H464 0.930 . S
C477 C476 1.376 . S
C477 C478 1.388 . S
C478 H465 0.930 . S
C478 C477 1.388 . S
C478 C479 1.390 . S
C479 C478 1.390 . S
C479 C480 1.394 . S
C479 C485 1.465 . S
C480 C475 1.399 . S
C480 C479 1.394 . S
C480 C481 1.516 . S
C481 C480 1.516 . S
C481 C482 1.502 . S
C481 C483 1.561 . S
C481 C484 1.526 . S
C482 H466 0.959 . S
C482 H467 0.959 . S
C482 H468 0.961 . S
C482 C481 1.502 . S
C483 H469 0.960 . S
C483 H470 0.961 . S
C483 H471 0.959 . S
C483 C481 1.561 . S
C484 C481 1.526 . S
C484 C485 1.396 . S
C484 C489 1.390 . S
C485 C479 1.465 . S
C485 C484 1.396 . S
C485 C486 1.399 . S
C486 H472 0.929 . S
C486 C485 1.399 . S
C486 C487 1.385 . S
C487 H473 0.931 . S
C487 C486 1.385 . S
C487 C488 1.389 . S
C488 C487 1.389 . S
C488 C489 1.387 . S
C489 H474 0.930 . S
C489 C484 1.390 . S
C489 C488 1.387 . S
H490 C502 0.930 . S
H491 C504 0.930 . S
H492 C505 0.930 . S
H493 C509 0.959 . S
H494 C509 0.959 . S
H495 C509 0.961 . S
H496 C510 0.960 . S
H497 C510 0.961 . S
H498 C510 0.959 . S
H499 C513 0.929 . S
H500 C514 0.931 . S
H501 C516 0.930 . S
C502 H490 0.930 . S
C502 C503 1.399 . S
C502 C507 1.399 . S
C503 C502 1.399 . S
C503 C504 1.376 . S
C504 H491 0.930 . S
C504 C503 1.376 . S
C504 C505 1.388 . S
C505 H492 0.930 . S
C505 C504 1.388 . S
C505 C506 1.390 . S
C506 C505 1.390 . S
C506 C507 1.394 . S
C506 C512 1.465 . S
C507 C502 1.399 . S
C507 C506 1.394 . S
C507 C508 1.516 . S
C508 C507 1.516 . S
C508 C509 1.502 . S
C508 C510 1.561 . S
C508 C511 1.526 . S
C509 H493 0.959 . S
C509 H494 0.959 . S
C509 H495 0.961 . S
C509 C508 1.502 . S
C510 H496 0.960 . S
C510 H497 0.961 . S
C510 H498 0.959 . S
C510 C508 1.561 . S
C511 C508 1.526 . S
C511 C512 1.396 . S
C511 C516 1.390 . S
C512 C506 1.465 . S
C512 C511 1.396 . S
C512 C513 1.399 . S
C513 H499 0.929 . S
C513 C512 1.399 . S
C513 C514 1.385 . S
C514 H500 0.931 . S
C514 C513 1.385 . S
C514 C515 1.389 1_455 S
C515 C514 1.389 1_655 S
C515 C516 1.387 1_655 S
C516 H501 0.930 . S
C516 C511 1.390 . S
C516 C515 1.387 1_455 S
H517 C529 0.930 . S
H518 C531 0.930 . S
H519 C532 0.930 . S
H520 C536 0.959 . S
H521 C536 0.959 . S
H522 C536 0.961 . S
H523 C537 0.960 . S
H524 C537 0.961 . S
H525 C537 0.959 . S
H526 C540 0.929 . S
H527 C541 0.931 . S
H528 C543 0.930 . S
C529 H517 0.930 . S
C529 C530 1.399 . S
C529 C534 1.399 . S
C530 C529 1.399 . S
C530 C531 1.376 . S
C531 H518 0.930 . S
C531 C530 1.376 . S
C531 C532 1.388 . S
C532 H519 0.930 . S
C532 C531 1.388 . S
C532 C533 1.390 . S
C533 C532 1.390 . S
C533 C534 1.394 . S
C533 C539 1.465 . S
C534 C529 1.399 . S
C534 C533 1.394 . S
C534 C535 1.516 . S
C535 C534 1.516 . S
C535 C536 1.502 . S
C535 C537 1.561 . S
C535 C538 1.526 . S
C536 H520 0.959 . S
C536 H521 0.959 . S
C536 H522 0.961 . S
C536 C535 1.502 . S
C537 H523 0.960 . S
C537 H524 0.961 . S
C537 H525 0.959 . S
C537 C535 1.561 . S
C538 C535 1.526 . S
C538 C539 1.396 . S
C538 C543 1.390 . S
C539 C533 1.465 . S
C539 C538 1.396 . S
C539 C540 1.399 . S
C540 H526 0.929 . S
C540 C539 1.399 . S
C540 C541 1.385 . S
C541 H527 0.931 . S
C541 C540 1.385 . S
C541 C542 1.389 . S
C542 C541 1.389 . S
C542 C543 1.387 . S
C543 H528 0.930 . S
C543 C538 1.390 . S
C543 C542 1.387 . S
C125 C5 0.544 . S
C137 C33 0.476 . S
C152 C19 0.459 . S
C164 C47 0.521 . S
C179 C61 0.473 . S
C191 C89 0.544 . S
C206 C75 0.528 . S
C218 C103 0.502 . S
C233 C9 1.369 . S
C245 C79 1.370 . S
C260 C23 1.351 . S
C272 C93 1.407 . S
C287 C107 1.363 . S
C299 C37 1.407 . S
C314 C51 1.409 . S
C326 C65 1.359 . S
C341 C56 1.707 . S
C353 C11 1.710 . S
C368 C25 1.758 . S
C380 C70 1.687 . S
C395 C39 1.759 . S
C407 C84 1.648 . S
C422 C53 1.766 . S
C434 C98 1.666 . S
C449 C0 1.729 . S
C461 C67 1.716 . S
C476 C81 1.740 . S
C488 C14 1.659 . S
C503 C95 1.755 . S
C515 C28 1.649 . S
C530 C42 1.727 . S
C542 C109 1.723 . S
