# Generated by pormake.
# Topology dft, (4)-cn, num edge types: 1
# Building blocks:
#     Node 0, Type 0, BuildingBlock: UXUYUI_clean_sbu_0, # of connection points: 4
#     Node 1, Type 0, BuildingBlock: UXUYUI_clean_sbu_0, # of connection points: 4
#     Node 2, Type 0, BuildingBlock: UXUYUI_clean_sbu_0, # of connection points: 4
#     Node 3, Type 0, BuildingBlock: UXUYUI_clean_sbu_0, # of connection points: 4
#     Node 4, Type 0, BuildingBlock: UXUYUI_clean_sbu_0, # of connection points: 4
#     Node 5, Type 0, BuildingBlock: UXUYUI_clean_sbu_0, # of connection points: 4
#     Node 6, Type 0, BuildingBlock: UXUYUI_clean_sbu_0, # of connection points: 4
#     Node 7, Type 0, BuildingBlock: UXUYUI_clean_sbu_0, # of connection points: 4
#     Edge 8, Type (0, 0), BuildingBlock: EZIPEK_clean_linker_0, # of connection points: 2
#     Edge 9, Type (0, 0), BuildingBlock: EZIPEK_clean_linker_0, # of connection points: 2
#     Edge 10, Type (0, 0), BuildingBlock: EZIPEK_clean_linker_0, # of connection points: 2
#     Edge 11, Type (0, 0), BuildingBlock: EZIPEK_clean_linker_0, # of connection points: 2
#     Edge 12, Type (0, 0), BuildingBlock: EZIPEK_clean_linker_0, # of connection points: 2
#     Edge 13, Type (0, 0), BuildingBlock: EZIPEK_clean_linker_0, # of connection points: 2
#     Edge 14, Type (0, 0), BuildingBlock: EZIPEK_clean_linker_0, # of connection points: 2
#     Edge 15, Type (0, 0), BuildingBlock: EZIPEK_clean_linker_0, # of connection points: 2
#     Edge 16, Type (0, 0), BuildingBlock: EZIPEK_clean_linker_0, # of connection points: 2
#     Edge 17, Type (0, 0), BuildingBlock: EZIPEK_clean_linker_0, # of connection points: 2
#     Edge 18, Type (0, 0), BuildingBlock: EZIPEK_clean_linker_0, # of connection points: 2
#     Edge 19, Type (0, 0), BuildingBlock: EZIPEK_clean_linker_0, # of connection points: 2
#     Edge 20, Type (0, 0), BuildingBlock: EZIPEK_clean_linker_0, # of connection points: 2
#     Edge 21, Type (0, 0), BuildingBlock: EZIPEK_clean_linker_0, # of connection points: 2
#     Edge 22, Type (0, 0), BuildingBlock: EZIPEK_clean_linker_0, # of connection points: 2
#     Edge 23, Type (0, 0), BuildingBlock: EZIPEK_clean_linker_0, # of connection points: 2
# Relax obj value: 0.226
# Max RMSD: 0.178
# Mean RMSD: 0.177
data_MOF--net-dft--node1-UXUYUI_clean_sbu_0--edge1-EZIPEK_clean_linker_0
_symmetry_space_group_name_H-M    P1
_symmetry_Int_Tables_number       1
_symmetry_cell_setting            triclinic
loop_
_symmetry_equiv_pos_as_xyz
'x, y, z'
_cell_length_a     41.299604
_cell_length_b     41.252128
_cell_length_c     47.880752
_cell_angle_alpha  89.992682
_cell_angle_beta   90.007475
_cell_angle_gamma 90.008085
loop_
_atom_site_label
_atom_site_type_symbol
_atom_site_fract_x
_atom_site_fract_y
_atom_site_fract_z
_atom_type_partial_charge
Li0 Li 0.27197 0.01903 0.19619 0.0
Li1 Li 0.32168 0.99088 0.19753 0.0
Li2 Li 0.29053 0.99202 0.15391 0.0
Li3 Li 0.27163 0.9603 0.19727 0.0
C4 C 0.31792 0.05882 0.16534 0.0
N5 N 0.33275 0.1209 0.14773 0.0
C6 C 0.33967 0.07786 0.18057 0.0
C7 C 0.30423 0.07117 0.14084 0.0
C8 C 0.3467 0.10924 0.17142 0.0
C9 C 0.31188 0.10266 0.13237 0.0
C10 C 0.29738 0.00463 0.25039 0.0
C11 C 0.30572 0.00388 0.30023 0.0
N12 N 0.31787 0.03449 0.2989 0.0
C13 C 0.30985 0.03608 0.24953 0.0
C14 C 0.29518 0.98838 0.27592 0.0
C15 C 0.32011 0.05077 0.27427 0.0
C16 C 0.2305 0.04974 0.23402 0.0
N17 N 0.24711 0.05487 0.20988 0.0
C18 C 0.22396 0.10773 0.20538 0.0
C19 C 0.24419 0.08318 0.19551 0.0
C20 C 0.20663 0.1029 0.23017 0.0
C21 C 0.21015 0.07368 0.24472 0.0
H22 H 0.23249 0.0267 0.24465 0.0
H23 H 0.25666 0.08645 0.17598 0.0
C24 C 0.38706 0.00353 0.19197 0.0
N25 N 0.36511 0.99098 0.21011 0.0
C26 C 0.41989 0.00319 0.1985 0.0
C27 C 0.40693 0.97744 0.24255 0.0
C28 C 0.37425 0.97802 0.23503 0.0
C29 C 0.42998 0.98991 0.22395 0.0
H30 H 0.37903 0.01323 0.17215 0.0
H31 H 0.3563 0.96761 0.24878 0.0
C32 C 0.21814 0.00532 0.16906 0.0
N33 N 0.1604 0.03877 0.16493 0.0
C34 C 0.19268 -0.00165 0.18732 0.0
C35 C 0.2142 0.0292 0.14863 0.0
C36 C 0.16368 0.01555 0.1849 0.0
C37 C 0.18485 0.0459 0.14693 0.0
C38 C 0.33752 0.93522 0.17506 0.0
C39 C 0.36187 0.93792 0.15494 0.0
C40 C 0.34188 0.91469 0.19798 0.0
C41 C 0.3904 0.92011 0.1582 0.0
C42 C 0.37074 0.89727 0.20046 0.0
N43 N 0.39419 0.90031 0.18068 0.0
C44 C 0.32036 0.00156 0.1018 0.0
C45 C 0.26564 0.98408 0.09967 0.0
C46 C 0.322 0.00308 0.07271 0.0
N47 N 0.29242 0.99235 0.11455 0.0
C48 C 0.26614 0.98543 0.07056 0.0
C49 C 0.29455 0.99515 0.05691 0.0
H50 H 0.34121 0.00807 0.11429 0.0
H51 H 0.24383 0.97673 0.11045 0.0
C52 C 0.2283 0.92704 0.23123 0.0
N53 N 0.24926 0.92326 0.20962 0.0
C54 C 0.20914 0.90112 0.23993 0.0
C55 C 0.23473 0.86751 0.20484 0.0
C56 C 0.25311 0.89426 0.19654 0.0
C57 C 0.212 0.87113 0.22638 0.0
H58 H 0.22598 0.95043 0.24125 0.0
H59 H 0.27004 0.8921 0.17941 0.0
O60 O 0.31138 0.02773 0.17361 0.0
O61 O 0.28738 0.9896 0.22643 0.0
O62 O 0.24685 0.98899 0.17128 0.0
O63 O 0.30978 0.95307 0.17266 0.0
H64 H 0.35128 0.06845 0.19914 0.0
H65 H 0.2876 0.05677 0.12861 0.0
H66 H 0.36338 0.12426 0.18308 0.0
H67 H 0.30124 0.11258 0.11358 0.0
H68 H 0.30424 0.99156 0.32013 0.0
H69 H 0.31134 0.04906 0.23002 0.0
H70 H 0.28555 0.96399 0.2769 0.0
H71 H 0.3298 0.07513 0.2739 0.0
H72 H 0.22131 0.12996 0.19355 0.0
H73 H 0.19672 0.0692 0.26377 0.0
H74 H 0.4373 0.01287 0.18377 0.0
H75 H 0.41424 0.96689 0.26228 0.0
H76 H 0.19533 0.97999 0.20326 0.0
H77 H 0.23367 0.03495 0.13438 0.0
H78 H 0.14381 0.01051 0.19897 0.0
H79 H 0.18152 0.06455 0.13131 0.0
H80 H 0.35889 0.95382 0.13716 0.0
H81 H 0.32332 0.91257 0.21384 0.0
H82 H 0.40955 0.92207 0.14288 0.0
H83 H 0.37455 0.88142 0.21815 0.0
H84 H 0.34424 0.01062 0.06264 0.0
H85 H 0.24464 0.97911 0.0588 0.0
H86 H 0.19185 0.90453 0.25668 0.0
H87 H 0.23747 0.84456 0.19411 0.0
Li88 Li 0.9971 0.28663 0.65808 0.0
Li89 Li 0.99638 0.32 0.70046 0.0
Li90 Li 0.02703 0.26955 0.69894 0.0
Li91 Li 0.96806 0.26978 0.70018 0.0
C92 C 0.05123 0.32309 0.65577 0.0
N93 N 0.08454 0.35186 0.61227 0.0
C94 C 0.05037 0.35674 0.6523 0.0
C95 C 0.06917 0.30411 0.63718 0.0
C96 C 0.06738 0.37082 0.63019 0.0
C97 C 0.08576 0.3191 0.61528 0.0
C98 C 0.92708 0.30556 0.67338 0.0
C99 C 0.87329 0.31075 0.69246 0.0
N100 N 0.86094 0.29699 0.66894 0.0
C101 C 0.91387 0.29164 0.64934 0.0
C102 C 0.90666 0.3154 0.69506 0.0
C103 C 0.88036 0.28748 0.64751 0.0
C104 C 0.99157 0.25812 0.60496 0.0
N105 N 0.99583 0.28679 0.61846 0.0
C106 C -0.00105 0.31523 0.5751 0.0
C107 C -0.00143 0.31519 0.60423 0.0
C108 C 0.9951 0.28591 0.56065 0.0
C109 C 0.99083 0.25715 0.57585 0.0
H110 H 0.98866 0.23602 0.61683 0.0
H111 H 0.00075 0.33777 0.61549 0.0
C112 C 0.02401 0.37551 0.72551 0.0
N113 N 0.99721 0.36361 0.71254 0.0
C114 C 0.02678 0.40867 0.7307 0.0
C115 C 0.97418 0.41648 0.7094 0.0
C116 C 0.97227 0.38317 0.7049 0.0
C117 C 0.00198 0.42945 0.72188 0.0
H118 H 0.04385 0.35946 0.73057 0.0
H119 H 0.9516 0.37311 0.69412 0.0
C120 C 0.01033 0.21392 0.67585 0.0
N121 N 0.04024 0.15408 0.6779 0.0
C122 C -0.00037 0.1904 0.69473 0.0
C123 C 0.03604 0.20694 0.65786 0.0
C124 C 0.01511 0.16029 0.69546 0.0
C125 C 0.0509 0.17656 0.65927 0.0
C126 C 0.00288 0.30262 0.75288 0.0
C127 C 0.03344 0.30349 0.7654 0.0
C128 C 0.97745 0.32051 0.76443 0.0
C129 C 0.03811 0.32249 0.78922 0.0
C130 C 0.98311 0.33927 0.78821 0.0
N131 N 0.01307 0.33987 0.80001 0.0
C132 C 0.09388 0.25323 0.70025 0.0
C133 C 0.06003 0.22405 0.73144 0.0
C134 C 0.12066 0.23485 0.70835 0.0
N135 N 0.06428 0.24712 0.71151 0.0
C136 C 0.08604 0.20497 0.74 0.0
C137 C 0.11659 0.2101 0.72809 0.0
H138 H 0.09664 0.27205 0.68477 0.0
H139 H 0.03624 0.22009 0.74025 0.0
C140 C 0.91708 0.22567 0.69418 0.0
N141 N 0.93179 0.24583 0.71272 0.0
C142 C 0.8922 0.20522 0.70296 0.0
C143 C 0.8977 0.22715 0.74961 0.0
C144 C 0.92251 0.2472 0.73993 0.0
C145 C 0.88273 0.2056 0.73103 0.0
H146 H 0.92538 0.22485 0.67277 0.0
H147 H 0.93497 0.26313 0.75425 0.0
O148 O 0.03463 0.30884 0.67724 0.0
O149 O 0.95987 0.309 0.67592 0.0
O150 O 0.99602 0.24381 0.67525 0.0
O151 O 0.9979 0.2844 0.72941 0.0
H152 H 0.03655 0.37186 0.66635 0.0
H153 H 0.06993 0.27804 0.63942 0.0
H154 H 0.06684 0.39681 0.62722 0.0
H155 H 0.09954 0.30467 0.60063 0.0
H156 H 0.85721 0.318 0.70916 0.0
H157 H 0.92933 0.28383 0.63239 0.0
H158 H 0.91653 0.32611 0.71385 0.0
H159 H 0.8698 0.27657 0.62909 0.0
H160 H 0.00203 0.33786 0.56394 0.0
H161 H 0.98746 0.2342 0.56525 0.0
H162 H 0.04866 0.41822 0.74009 0.0
H163 H 0.95484 0.43213 0.7022 0.0
H164 H 0.97991 0.19546 0.70894 0.0
H165 H 0.04459 0.22487 0.64312 0.0
H166 H 0.00723 0.14193 0.71009 0.0
H167 H 0.07096 0.17089 0.64559 0.0
H168 H 0.05342 0.28988 0.75671 0.0
H169 H 0.95369 0.32024 0.7549 0.0
H170 H 0.06166 0.32351 0.79907 0.0
H171 H 0.96372 0.35342 0.79726 0.0
H172 H 0.1441 0.23939 0.699 0.0
H173 H 0.08232 0.18609 0.7554 0.0
H174 H 0.88116 0.18858 0.68827 0.0
H175 H 0.89095 0.22768 0.77146 0.0
Li176 Li 0.67662 0.00367 0.20233 0.0
Li177 Li 0.72669 0.97497 0.20166 0.0
Li178 Li 0.72621 0.03317 0.20264 0.0
Li179 Li 0.70991 0.00509 0.16118 0.0
C180 C 0.70022 0.02086 0.25455 0.0
N181 N 0.68046 0.05656 0.30031 0.0
C182 C 0.71012 0.01198 0.28138 0.0
C183 C 0.68021 0.04789 0.25099 0.0
C184 C 0.69989 0.03034 0.30425 0.0
C185 C 0.67049 0.06562 0.27439 0.0
C186 C 0.67198 0.93964 0.18604 0.0
C187 C 0.63759 0.89405 0.17534 0.0
N188 N 0.63808 0.88522 0.20271 0.0
C189 C 0.67216 0.93011 0.21406 0.0
C190 C 0.65459 0.92148 0.16651 0.0
C191 C 0.65487 0.90253 0.22207 0.0
C192 C 0.61096 0.0137 0.19546 0.0
N193 N 0.63299 0.00211 0.21399 0.0
C194 C 0.59103 0.98539 0.24515 0.0
C195 C 0.62384 0.98843 0.23863 0.0
C196 C 0.5679 0.99674 0.22611 0.0
C197 C 0.578 0.01134 0.2012 0.0
H198 H 0.61908 0.02412 0.17595 0.0
H199 H 0.64195 0.97922 0.25288 0.0
C200 C 0.76815 0.94324 0.23805 0.0
N201 N 0.75019 0.93859 0.21461 0.0
C202 C 0.78797 0.91852 0.24811 0.0
C203 C 0.77025 0.88459 0.20979 0.0
C204 C 0.75053 0.90991 0.20058 0.0
C205 C 0.7894 0.88903 0.23366 0.0
H206 H 0.76751 0.96643 0.24856 0.0
H207 H 0.73603 0.90694 0.18196 0.0
C208 C 0.69216 0.06941 0.16351 0.0
N209 N 0.70125 0.12444 0.13153 0.0
C210 C 0.72304 0.0774 0.15372 0.0
C211 C 0.66592 0.08943 0.15705 0.0
C212 C 0.72714 0.10531 0.13759 0.0
C213 C 0.67101 0.11714 0.14084 0.0
C214 C 0.77495 0.98722 0.16336 0.0
C215 C 0.80769 0.99578 0.16314 0.0
C216 C 0.7645 0.96051 0.14779 0.0
C217 C 0.82947 0.97741 0.14739 0.0
C218 C 0.78702 0.94278 0.1323 0.0
N219 N 0.81877 0.95152 0.13243 0.0
C220 C 0.78102 0.06393 0.22213 0.0
C221 C 0.73523 0.09871 0.22128 0.0
C222 C 0.80053 0.089 0.23191 0.0
N223 N 0.74916 0.06926 0.21684 0.0
C224 C 0.75385 0.12449 0.23131 0.0
C225 C 0.78693 0.11965 0.23644 0.0
H226 H 0.79124 0.04015 0.21861 0.0
H227 H 0.70979 0.10223 0.2169 0.0
C228 C 0.6811 0.99509 0.10912 0.0
N229 N 0.70851 0.00619 0.12158 0.0
C230 C 0.67869 0.99452 0.08005 0.0
C231 C 0.73266 0.01715 0.07726 0.0
C232 C 0.73398 0.01743 0.10637 0.0
C233 C 0.70483 0.00543 0.06393 0.0
H234 H 0.6612 0.98652 0.12182 0.0
H235 H 0.75541 0.02634 0.1168 0.0
O236 O 0.71022 0.00302 0.23205 0.0
O237 O 0.68835 0.96678 0.17762 0.0
O238 O 0.68732 0.0422 0.17933 0.0
O239 O 0.75348 0.00496 0.17889 0.0
H240 H 0.72557 0.99109 0.28449 0.0
H241 H 0.67217 0.05516 0.23046 0.0
H242 H 0.7074 0.02374 0.32514 0.0
H243 H 0.65502 0.08658 0.27193 0.0
H244 H 0.624 0.87978 0.16045 0.0
H245 H 0.68537 0.94387 0.22953 0.0
H246 H 0.65419 0.92856 0.14474 0.0
H247 H 0.65476 0.89492 0.24369 0.0
H248 H 0.58373 0.97386 0.26447 0.0
H249 H 0.56052 0.02009 0.1861 0.0
H250 H 0.80264 0.92258 0.26654 0.0
H251 H 0.77105 0.86206 0.1982 0.0
H252 H 0.7437 0.06234 0.15853 0.0
H253 H 0.64186 0.08361 0.16449 0.0
H254 H 0.75091 0.11178 0.1299 0.0
H255 H 0.6509 0.13285 0.13568 0.0
H256 H 0.8162 0.01641 0.17501 0.0
H257 H 0.73929 0.9535 0.14759 0.0
H258 H 0.85488 0.98376 0.14706 0.0
H259 H 0.77924 0.92207 0.12017 0.0
H260 H 0.82598 0.08459 0.23588 0.0
H261 H 0.74276 0.14793 0.2348 0.0
H262 H 0.65688 0.98541 0.07022 0.0
H263 H 0.75316 0.02578 0.06525 0.0
Li264 Li 0.96756 0.72751 0.69875 0.0
Li265 Li 0.03026 0.72902 0.69716 0.0
Li266 Li 0.99689 0.71281 0.65696 0.0
Li267 Li 0.00114 0.67858 0.69492 0.0
C268 C 0.99443 0.77711 0.65525 0.0
N269 N 0.98885 0.81953 0.61085 0.0
C270 C 0.02141 0.78432 0.63878 0.0
C271 C 0.96463 0.79162 0.64926 0.0
C272 C 0.01808 0.80574 0.61636 0.0
C273 C 0.96232 0.81301 0.62672 0.0
C274 C -0.00154 0.69116 0.74867 0.0
C275 C 0.02334 0.66251 0.78696 0.0
N276 N 0.99418 0.64911 0.79341 0.0
C277 C 0.96872 0.67727 0.75576 0.0
C278 C 0.02601 0.68385 0.76442 0.0
C279 C 0.96707 0.656 0.77842 0.0
C280 C 0.90308 0.73376 0.71966 0.0
N281 N 0.93176 0.74892 0.7147 0.0
C282 C 0.91095 0.79903 0.73181 0.0
C283 C 0.93626 0.78074 0.72086 0.0
C284 C 0.88095 0.78424 0.73666 0.0
C285 C 0.87707 0.75115 0.73083 0.0
H286 H 0.90037 0.70831 0.71473 0.0
H287 H 0.95948 0.79197 0.71689 0.0
C288 C 0.08985 0.76229 0.69253 0.0
N289 N 0.06607 0.75286 0.7104 0.0
C290 C 0.11465 0.7826 0.70182 0.0
C291 C 0.0908 0.78167 0.74799 0.0
C292 C 0.06618 0.76187 0.7377 0.0
C293 C 0.11497 0.79274 0.72978 0.0
H294 H 0.08914 0.75457 0.67096 0.0
H295 H 0.04668 0.75434 0.7513 0.0
C296 C 0.94169 0.68073 0.65306 0.0
N297 N 0.90408 0.66415 0.60752 0.0
C298 C 0.95132 0.65559 0.63533 0.0
C299 C 0.91272 0.69717 0.64783 0.0
C300 C 0.93205 0.64768 0.61234 0.0
C301 C 0.89408 0.68846 0.62466 0.0
C302 C 0.05878 0.66837 0.67054 0.0
C303 C 0.05269 0.64106 0.65407 0.0
C304 C 0.08705 0.66987 0.68655 0.0
C305 C 0.07475 0.61539 0.65429 0.0
C306 C 0.10853 0.64371 0.68616 0.0
N307 N 0.10196 0.61723 0.67021 0.0
C308 C 0.021 0.70357 0.60249 0.0
C309 C 0.96935 0.72866 0.6036 0.0
C310 C 0.02098 0.70404 0.57335 0.0
N311 N 0.99529 0.71546 0.61698 0.0
C312 C 0.96828 0.72956 0.5745 0.0
C313 C 0.99427 0.71696 0.55921 0.0
H314 H 0.04152 0.69364 0.61354 0.0
H315 H 0.94939 0.73836 0.61549 0.0
C316 C 0.97692 0.61539 0.70043 0.0
N317 N 0.00293 0.63428 0.70661 0.0
C318 C 0.97758 0.58228 0.70612 0.0
C319 C 0.03118 0.58881 0.72571 0.0
C320 C 0.0294 0.62188 0.71978 0.0
C321 C 0.00523 0.56874 0.71833 0.0
H322 H 0.9559 0.6259 0.69056 0.0
H323 H 0.04947 0.63746 0.72509 0.0
O324 O 0.99705 0.75567 0.67693 0.0
O325 O 0.00066 0.71136 0.72612 0.0
O326 O 0.96039 0.68903 0.67554 0.0
O327 O 0.03754 0.69381 0.67056 0.0
H328 H 0.04454 0.77307 0.64296 0.0
H329 H 0.9434 0.78604 0.66157 0.0
H330 H 0.0387 0.81132 0.60328 0.0
H331 H 0.93938 0.82427 0.62174 0.0
H332 H 0.04448 0.65645 0.79923 0.0
H333 H 0.94724 0.68252 0.74363 0.0
H334 H 0.04929 0.69412 0.75902 0.0
H335 H 0.94425 0.64489 0.78403 0.0
H336 H 0.91462 0.82451 0.73629 0.0
H337 H 0.85416 0.73913 0.73458 0.0
H338 H 0.13301 0.79083 0.68731 0.0
H339 H 0.09042 0.78923 0.76966 0.0
H340 H 0.97354 0.64249 0.63919 0.0
H341 H 0.90497 0.71679 0.66123 0.0
H342 H 0.93935 0.62847 0.59832 0.0
H343 H 0.87173 0.70114 0.62023 0.0
H344 H 0.03111 0.63964 0.64135 0.0
H345 H 0.09219 0.69082 0.69937 0.0
H346 H 0.07025 0.59403 0.64178 0.0
H347 H 0.13038 0.64443 0.6986 0.0
H348 H 0.04143 0.69428 0.56196 0.0
H349 H 0.94742 0.73981 0.56402 0.0
H350 H 0.9572 0.5672 0.70026 0.0
H351 H 0.05281 0.57886 0.73519 0.0
Li352 Li 0.27305 0.0309 0.79737 0.0
Li353 Li 0.28932 0.00291 0.83899 0.0
Li354 Li 0.32268 0.0015 0.79788 0.0
Li355 Li 0.27275 0.97266 0.79849 0.0
C356 C 0.30688 0.06727 0.8366 0.0
N357 N 0.29749 0.12236 0.86843 0.0
C358 C 0.27594 0.07514 0.84635 0.0
C359 C 0.33301 0.08745 0.84303 0.0
C360 C 0.2717 0.10309 0.8624 0.0
C361 C 0.32778 0.11518 0.85916 0.0
C362 C 0.2241 0.98506 0.83647 0.0
C363 C 0.21151 0.94105 0.86783 0.0
N364 N 0.17972 0.94959 0.86702 0.0
C365 C 0.19132 0.99342 0.83598 0.0
C366 C 0.23431 0.95867 0.85254 0.0
C367 C 0.16925 0.97518 0.85154 0.0
C368 C 0.2184 0.06107 0.77691 0.0
N369 N 0.24999 0.06683 0.78302 0.0
C370 C 0.24479 0.12227 0.76933 0.0
C371 C 0.26357 0.09658 0.77929 0.0
C372 C 0.21196 0.11699 0.76341 0.0
C373 C 0.19877 0.08601 0.76707 0.0
H374 H 0.20848 0.03705 0.77987 0.0
H375 H 0.28882 0.10042 0.78424 0.0
C376 C 0.31782 0.99277 0.89118 0.0
N377 N 0.29052 0.00402 0.87862 0.0
C378 C 0.31996 0.99188 0.92025 0.0
C379 C 0.26599 0.01454 0.92286 0.0
C380 C 0.26495 0.01515 0.89375 0.0
C381 C 0.29367 0.00259 0.93629 0.0
H382 H 0.33779 0.98427 0.87854 0.0
H383 H 0.2436 0.02414 0.88324 0.0
C384 C 0.29931 0.01861 0.74562 0.0
N385 N 0.3193 0.05439 0.69996 0.0
C386 C 0.28998 0.00945 0.7187 0.0
C387 C 0.31887 0.04595 0.74931 0.0
C388 C 0.30032 0.02786 0.69588 0.0
C389 C 0.3287 0.06371 0.72597 0.0
C390 C 0.32737 0.93746 0.81423 0.0
C391 C 0.32719 0.92792 0.78622 0.0
C392 C 0.34475 0.9193 0.83378 0.0
C393 C 0.34447 0.90034 0.77822 0.0
C394 C 0.36173 0.89186 0.82496 0.0
N395 N 0.36125 0.88303 0.79759 0.0
C396 C 0.38831 0.01229 0.80447 0.0
C397 C 0.37545 0.98656 0.76151 0.0
C398 C 0.42125 0.01055 0.79847 0.0
N399 N 0.3663 0.00021 0.78615 0.0
C400 C 0.40824 0.98415 0.75471 0.0
C401 C 0.43135 0.99607 0.7735 0.0
H402 H 0.3802 0.02272 0.82398 0.0
H403 H 0.35736 0.977 0.74741 0.0
C404 C 0.2322 0.94047 0.76167 0.0
N405 N 0.2493 0.9362 0.78562 0.0
C406 C 0.21204 0.91593 0.75181 0.0
C407 C 0.22765 0.88294 0.7914 0.0
C408 C 0.2479 0.90799 0.8003 0.0
C409 C 0.20923 0.88706 0.76706 0.0
H410 H 0.23366 0.9633 0.75063 0.0
H411 H 0.26184 0.90528 0.81927 0.0
O412 O 0.31185 0.04005 0.82082 0.0
O413 O 0.24586 0.00266 0.82112 0.0
O414 O 0.2892 0.00071 0.76807 0.0
O415 O 0.311 0.96459 0.82265 0.0
H416 H 0.25536 0.05998 0.84153 0.0
H417 H 0.3571 0.08172 0.83561 0.0
H418 H 0.2479 0.10946 0.87005 0.0
H419 H 0.3478 0.131 0.8643 0.0
H420 H 0.2191 0.92058 0.88034 0.0
H421 H 0.183 0.01381 0.82369 0.0
H422 H 0.25955 0.95179 0.85325 0.0
H423 H 0.1438 0.98138 0.85133 0.0
H424 H 0.25556 0.14599 0.76653 0.0
H425 H 0.17351 0.08129 0.76251 0.0
H426 H 0.34165 0.98261 0.93015 0.0
H427 H 0.24538 0.023 0.9348 0.0
H428 H 0.2749 0.98832 0.71547 0.0
H429 H 0.32649 0.05342 0.76991 0.0
H430 H 0.29325 0.02105 0.67493 0.0
H431 H 0.34383 0.08492 0.72854 0.0
H432 H 0.31399 0.94167 0.77074 0.0
H433 H 0.34514 0.92638 0.85555 0.0
H434 H 0.34458 0.89272 0.7566 0.0
H435 H 0.37532 0.8776 0.83986 0.0
H436 H 0.43872 0.01975 0.81337 0.0
H437 H 0.41555 0.97271 0.73535 0.0
H438 H 0.19797 0.91977 0.733 0.0
H439 H 0.22582 0.86091 0.80361 0.0
Li440 Li 0.00467 0.31777 0.30106 0.0
Li441 Li 0.00221 0.28507 0.34244 0.0
Li442 Li 0.03292 0.26688 0.29937 0.0
Li443 Li 0.97338 0.27003 0.30044 0.0
C444 C 0.0696 0.32178 0.32215 0.0
N445 N 0.12599 0.35745 0.31689 0.0
C446 C 0.07875 0.3436 0.34308 0.0
C447 C 0.08924 0.31812 0.29856 0.0
C448 C 0.10729 0.36143 0.34001 0.0
C449 C 0.11763 0.33635 0.29629 0.0
C450 C 0.95748 0.33391 0.34056 0.0
C451 C 0.91692 0.369 0.36056 0.0
N452 N 0.94068 0.38694 0.37272 0.0
C453 C 0.98147 0.35272 0.35326 0.0
C454 C 0.92492 0.3421 0.34422 0.0
C455 C 0.97251 0.37941 0.36944 0.0
C456 C 0.97319 0.37388 0.28302 0.0
N457 N 0.00331 0.36211 0.28861 0.0
C458 C 0.02635 0.41473 0.28246 0.0
C459 C 0.02983 0.38164 0.28742 0.0
C460 C 0.99539 0.42758 0.27831 0.0
C461 C 0.96863 0.40679 0.27768 0.0
H462 H 0.95249 0.35786 0.28381 0.0
H463 H 0.0536 0.37209 0.29114 0.0
C464 C 0.02816 0.29229 0.39654 0.0
N465 N 0.00124 0.28403 0.38186 0.0
C466 C 0.02736 0.29295 0.42565 0.0
C467 C 0.97154 0.2752 0.42395 0.0
C468 C 0.97317 0.27573 0.39485 0.0
C469 C -0.00119 0.28417 0.43962 0.0
H470 H 0.05019 0.29845 0.38562 0.0
H471 H 0.95204 0.26972 0.38256 0.0
C472 C -0.00159 0.30405 0.24829 0.0
N473 N 0.98859 0.34564 0.20387 0.0
C474 C 0.96703 0.31047 0.23887 0.0
C475 C 0.02482 0.31853 0.23497 0.0
C476 C 0.96257 0.33161 0.2164 0.0
C477 C 0.01934 0.33958 0.21261 0.0
C478 C 0.98857 0.21254 0.32167 0.0
C479 C -0.0015 0.19109 0.30075 0.0
C480 C 0.96375 0.20352 0.33992 0.0
C481 C 0.98323 0.16099 0.29834 0.0
C482 C 0.94912 0.1732 0.33685 0.0
N483 N 0.95905 0.15276 0.31627 0.0
C484 C 0.08678 0.22626 0.30605 0.0
C485 C 0.07223 0.23692 0.25894 0.0
C486 C 0.11097 0.20488 0.29742 0.0
N487 N 0.0679 0.24142 0.28681 0.0
C488 C 0.09622 0.21589 0.24939 0.0
C489 C 0.11551 0.19934 0.26881 0.0
H490 H 0.08242 0.23018 0.32807 0.0
H491 H 0.05653 0.2491 0.24422 0.0
C492 C 0.90743 0.25227 0.30205 0.0
N493 N 0.9357 0.24866 0.28785 0.0
C494 C 0.88017 0.23443 0.29423 0.0
C495 C 0.91177 0.20981 0.2573 0.0
C496 C 0.93825 0.22841 0.26558 0.0
C497 C 0.88252 0.21249 0.27195 0.0
H498 H 0.90633 0.26838 0.31983 0.0
H499 H 0.96115 0.22609 0.2548 0.0
O500 O 0.04193 0.30376 0.32502 0.0
O501 O 0.96558 0.30785 0.32427 0.0
O502 O 0.00319 0.28405 0.27069 0.0
O503 O 0.00279 0.24236 0.32403 0.0
H504 H 0.06393 0.34697 0.36147 0.0
H505 H 0.08248 0.30185 0.28194 0.0
H506 H 0.11457 0.37844 0.35601 0.0
H507 H 0.13294 0.33382 0.2781 0.0
H508 H 0.89182 0.37563 0.36353 0.0
H509 H 0.00673 0.34693 0.35055 0.0
H510 H 0.90603 0.32791 0.33442 0.0
H511 H 0.99086 0.3942 0.37932 0.0
H512 H 0.04744 0.43035 0.2829 0.0
H513 H 0.94442 0.41619 0.27452 0.0
H514 H 0.04881 0.29996 0.4372 0.0
H515 H 0.94916 0.26832 0.43416 0.0
H516 H 0.94631 0.29959 0.24904 0.0
H517 H 0.04926 0.31381 0.24197 0.0
H518 H 0.93841 0.33697 0.209 0.0
H519 H 0.03954 0.35115 0.20222 0.0
H520 H 0.01752 0.19771 0.28632 0.0
H521 H 0.95568 0.21986 0.35614 0.0
H522 H 0.99054 0.14423 0.28216 0.0
H523 H 0.9298 0.16596 0.35076 0.0
H524 H 0.12544 0.19222 0.31281 0.0
H525 H 0.09916 0.21185 0.22718 0.0
H526 H 0.85782 0.23693 0.30587 0.0
H527 H 0.91421 0.19305 0.24001 0.0
Li528 Li 0.70779 -0.00163 0.84627 0.0
Li529 Li 0.72766 0.96687 0.80321 0.0
Li530 Li 0.72645 0.0256 0.80416 0.0
Li531 Li 0.67719 0.99669 0.80235 0.0
C532 C 0.78042 0.01223 0.83155 0.0
N533 N 0.83844 0.04511 0.8361 0.0
C534 C 0.80619 0.00458 0.81384 0.0
C535 C 0.78414 0.03656 0.85159 0.0
C536 C 0.83533 0.02151 0.81645 0.0
C537 C 0.81365 0.05296 0.85353 0.0
C538 C 0.66201 0.9407 0.82484 0.0
C539 C 0.62991 0.90197 0.79924 0.0
N540 N 0.60625 0.90442 0.81889 0.0
C541 C 0.63744 0.94279 0.84482 0.0
C542 C 0.65832 0.9201 0.80189 0.0
C543 C 0.60938 0.92429 0.8414 0.0
C544 C 0.67749 0.00698 0.89839 0.0
N545 N 0.70564 -0.00149 0.88561 0.0
C546 C 0.73196 0.99151 0.92956 0.0
C547 C 0.73256 0.99062 0.90045 0.0
C548 C 0.70333 0.00042 0.94326 0.0
C549 C 0.67576 0.00805 0.9275 0.0
H550 H 0.65653 0.01319 0.88594 0.0
H551 H 0.75453 0.98385 0.88963 0.0
C552 C 0.77091 0.93317 0.76931 0.0
N553 N 0.75045 0.92991 0.79134 0.0
C554 C 0.78984 0.90703 0.76074 0.0
C555 C 0.76528 0.87435 0.79701 0.0
C556 C 0.74705 0.90128 0.8051 0.0
C557 C 0.78732 0.87739 0.77489 0.0
H558 H 0.77291 0.95629 0.75878 0.0
H559 H 0.73052 0.89953 0.82256 0.0
C560 C 0.67933 0.06447 0.83508 0.0
N561 N 0.6631 0.12582 0.85358 0.0
C562 C 0.65695 0.08318 0.82025 0.0
C563 C 0.69301 0.07677 0.85961 0.0
C564 C 0.6492 0.1142 0.82985 0.0
C565 C 0.68461 0.10789 0.86854 0.0
C566 C 0.7023 0.01142 0.74992 0.0
C567 C 0.68887 0.04245 0.75121 0.0
C568 C 0.70588 0.99613 0.72407 0.0
C569 C 0.67909 0.0577 0.72657 0.0
C570 C 0.69578 0.01216 0.69988 0.0
N571 N 0.6827 0.04236 0.70162 0.0
C572 C 0.76935 0.05598 0.76756 0.0
C573 C 0.75162 0.09101 0.80372 0.0
C574 C 0.78962 0.08005 0.75695 0.0
N575 N 0.75091 0.06178 0.79057 0.0
C576 C 0.77156 0.1158 0.79381 0.0
C577 C 0.79091 0.11022 0.77029 0.0
H578 H 0.76888 0.03233 0.75784 0.0
H579 H 0.73752 0.09496 0.82229 0.0
C580 C 0.6115 0.00769 0.80745 0.0
N581 N 0.63396 0.99595 0.78938 0.0
C582 C 0.57876 0.00645 0.8007 0.0
C583 C 0.59283 0.98157 0.75654 0.0
C584 C 0.62542 0.98304 0.76428 0.0
C585 C 0.56927 0.99312 0.7751 0.0
H586 H 0.61907 0.01738 0.8274 0.0
H587 H 0.64379 0.97331 0.75057 0.0
O588 O 0.75168 0.99596 0.82929 0.0
O589 O 0.68931 0.95919 0.82743 0.0
O590 O 0.68661 0.03372 0.82634 0.0
O591 O 0.7119 0.99587 0.77375 0.0
H592 H 0.8037 0.98585 0.7982 0.0
H593 H 0.76444 0.0428 0.86545 0.0
H594 H 0.85547 0.01592 0.80283 0.0
H595 H 0.81685 0.07191 0.8689 0.0
H596 H 0.62662 0.88605 0.78152 0.0
H597 H 0.63991 0.95874 0.86263 0.0
H598 H 0.67705 0.91843 0.78614 0.0
H599 H 0.59008 0.92578 0.8566 0.0
H600 H 0.75355 0.98544 0.94129 0.0
H601 H 0.65334 0.01496 0.93761 0.0
H602 H 0.80662 0.90998 0.74353 0.0
H603 H 0.76281 0.85167 0.80821 0.0
H604 H 0.64544 0.0738 0.80162 0.0
H605 H 0.71015 0.06262 0.87152 0.0
H606 H 0.63202 0.12898 0.81851 0.0
H607 H 0.6952 0.11777 0.88737 0.0
H608 H 0.68625 0.0547 0.77099 0.0
H609 H 0.71626 0.97208 0.72275 0.0
H610 H 0.66868 0.08175 0.72728 0.0
H611 H 0.69834 0.0006 0.67973 0.0
H612 H 0.80465 0.07502 0.73892 0.0
H613 H 0.77247 0.13879 0.8047 0.0
H614 H 0.56095 0.01544 0.8154 0.0
H615 H 0.586 0.971 0.73669 0.0
Li616 Li 0.96487 0.72597 0.29971 0.0
Li617 Li 0.02568 0.7246 0.29819 0.0
Li618 Li 0.99415 0.67652 0.30065 0.0
Li619 Li 0.99672 0.70904 0.34127 0.0
C620 C 0.99608 0.68876 0.24804 0.0
N621 N 0.00026 0.64448 0.20493 0.0
C622 C 0.02634 0.67907 0.23802 0.0
C623 C 0.96792 0.6761 0.23606 0.0
C624 C 0.02794 0.65662 0.21622 0.0
C625 C 0.97056 0.65369 0.2143 0.0
C626 C 0.99705 0.78358 0.32707 0.0
C627 C 0.01023 0.82918 0.35654 0.0
N628 N 0.99726 0.84957 0.33723 0.0
C629 C 0.98378 0.80504 0.30756 0.0
C630 C 0.01031 0.79576 0.35182 0.0
C631 C 0.98415 0.83829 0.31306 0.0
C632 C 0.90926 0.76398 0.3074 0.0
N633 N 0.92847 0.74972 0.2879 0.0
C634 C 0.89951 0.77541 0.25092 0.0
C635 C 0.92394 0.75469 0.26011 0.0
C636 C 0.88005 0.79127 0.27061 0.0
C637 C 0.88467 0.78512 0.29912 0.0
H638 H 0.91388 0.75985 0.32935 0.0
H639 H 0.94008 0.74353 0.24517 0.0
C640 C 0.09157 0.73086 0.2808 0.0
N641 N 0.06257 0.74627 0.28336 0.0
C642 C 0.11856 0.74755 0.27061 0.0
C643 C 0.08507 0.79526 0.26531 0.0
C644 C 0.05879 0.77762 0.27533 0.0
C645 C 0.11537 0.78026 0.26314 0.0
H646 H 0.09378 0.70567 0.28672 0.0
H647 H 0.03535 0.78894 0.27661 0.0
C648 C 0.94771 0.66405 0.34211 0.0
N649 N 0.92844 0.61412 0.37683 0.0
C650 C 0.97048 0.64196 0.35239 0.0
C651 C 0.91516 0.66074 0.34952 0.0
C652 C 0.96025 0.61688 0.36988 0.0
C653 C 0.90589 0.63534 0.3671 0.0
C654 C 0.06145 0.69059 0.33767 0.0
C655 C 0.08151 0.66418 0.34354 0.0
C656 C 0.06985 0.72137 0.34749 0.0
C657 C 0.10967 0.66901 0.35917 0.0
C658 C 0.09822 0.72523 0.36301 0.0
N659 N 0.11738 0.69918 0.36849 0.0
C660 C 0.02041 0.61594 0.2867 0.0
C661 C 0.96299 0.61841 0.28474 0.0
C662 C 0.01976 0.5827 0.28155 0.0
N663 N 0.99225 0.6328 0.28875 0.0
C664 C 0.96121 0.58518 0.27966 0.0
C665 C 0.98985 0.56705 0.27867 0.0
H666 H 0.04325 0.62816 0.29005 0.0
H667 H 0.94104 0.63254 0.28656 0.0
C668 C 0.97737 0.73327 0.39339 0.0
N669 N 0.99666 0.71082 0.38093 0.0
C670 C 0.97609 0.73542 0.42247 0.0
C671 C 0.01395 0.69078 0.42529 0.0
C672 C 0.01457 0.68955 0.39619 0.0
C673 C 0.99462 0.71399 0.43859 0.0
H674 H 0.96298 0.74948 0.38069 0.0
H675 H 0.02908 0.67139 0.38584 0.0
O676 O 0.99407 0.70996 0.26992 0.0
O677 O 0.99627 0.75082 0.32236 0.0
O678 O 0.95697 0.68879 0.3248 0.0
O679 O 0.03368 0.68598 0.32258 0.0
H680 H 0.04834 0.6885 0.24719 0.0
H681 H 0.94431 0.68307 0.2438 0.0
H682 H 0.0512 0.64875 0.20835 0.0
H683 H 0.94899 0.64349 0.20495 0.0
H684 H 0.02044 0.83889 0.37559 0.0
H685 H 0.97371 0.79621 0.28816 0.0
H686 H 0.02051 0.77962 0.3673 0.0
H687 H 0.97406 0.85512 0.29808 0.0
H688 H 0.89657 0.77999 0.22878 0.0
H689 H 0.87009 0.79729 0.31473 0.0
H690 H 0.14164 0.73528 0.26878 0.0
H691 H 0.08183 0.82037 0.25928 0.0
H692 H 0.99576 0.64401 0.34688 0.0
H693 H 0.89725 0.67764 0.34174 0.0
H694 H 0.9776 0.59959 0.37792 0.0
H695 H 0.88077 0.6325 0.37301 0.0
H696 H 0.07529 0.64015 0.33619 0.0
H697 H 0.05483 0.74209 0.34299 0.0
H698 H 0.12539 0.64876 0.36389 0.0
H699 H 0.10503 0.74894 0.37066 0.0
H700 H 0.04219 0.56909 0.28107 0.0
H701 H 0.93782 0.57351 0.27769 0.0
H702 H 0.96079 0.75343 0.43229 0.0
H703 H 0.02828 0.67378 0.43733 0.0
C704 C 0.29531 0.02786 0.01268 0.0
C705 C 0.29539 0.99712 0.026 0.0
C706 C 0.29215 0.97009 0.98055 0.0
C707 C 0.29481 0.00069 0.96719 0.0
N708 N 0.30468 0.05821 0.97009 0.0
N709 N 0.29996 0.93894 0.02291 0.0
C710 C 0.29807 0.02948 0.98314 0.0
C711 C 0.29558 0.96818 0.01 0.0
N712 N 0.29142 0.05543 0.02817 0.0
N713 N 0.28515 0.94303 0.9652 0.0
H714 H 0.30268 0.93659 0.04448 0.0
H715 H 0.30379 0.91737 0.01211 0.0
H716 H 0.28231 0.94341 0.94355 0.0
H717 H 0.27939 0.92073 0.97411 0.0
H718 H 0.2876 0.07821 0.0194 0.0
H719 H 0.28928 0.05526 0.04988 0.0
H720 H 0.31074 0.07935 0.98076 0.0
H721 H 0.30688 0.06032 0.94846 0.0
C722 C 0.02026 0.26747 0.51555 0.0
C723 C 0.99582 0.28529 0.52962 0.0
C724 C 0.97577 0.3054 0.48473 0.0
C725 C 0.99755 0.28439 0.47064 0.0
N726 N 0.03549 0.23988 0.473 0.0
N727 N 0.9458 0.31554 0.52721 0.0
C728 C 0.01837 0.26377 0.48615 0.0
C729 C 0.97222 0.30265 0.5141 0.0
N730 N 0.046 0.25514 0.53002 0.0
N731 N 0.95942 0.32883 0.47029 0.0
H732 H 0.94173 0.31317 0.54861 0.0
H733 H 0.92635 0.32566 0.51643 0.0
H734 H 0.96214 0.33241 0.44886 0.0
H735 H 0.94573 0.34677 0.48005 0.0
H736 H 0.06602 0.24473 0.52028 0.0
H737 H 0.04898 0.2583 0.55148 0.0
H738 H 0.04854 0.22223 0.48376 0.0
H739 H 0.03398 0.23563 0.45157 0.0
C740 C 0.70222 0.03221 0.98796 0.0
C741 C 0.70238 0.00175 0.97419 0.0
C742 C 0.70606 0.97381 0.0192 0.0
C743 C 0.70332 0.00411 0.03302 0.0
N744 N 0.69297 0.0616 0.03106 0.0
N745 N 0.69831 0.94349 0.97638 0.0
C746 C 0.69969 0.0332 0.01753 0.0
C747 C 0.70249 0.97249 0.98973 0.0
N748 N 0.70569 0.06014 0.97285 0.0
N749 N 0.71326 0.94647 0.03412 0.0
H750 H 0.69554 0.94158 0.95479 0.0
H751 H 0.69472 0.92165 0.98685 0.0
H752 H 0.71615 0.94643 0.05577 0.0
H753 H 0.7191 0.92439 0.02487 0.0
H754 H 0.70936 0.08278 0.98193 0.0
H755 H 0.70758 0.06044 0.95113 0.0
H756 H 0.68665 0.08291 0.02076 0.0
H757 H 0.69095 0.06324 0.05274 0.0
C758 C 0.97423 0.69307 0.48444 0.0
C759 C 0.99359 0.71555 0.46948 0.0
C760 C 0.01034 0.74125 0.51331 0.0
C761 C 0.99342 0.71691 0.5283 0.0
N762 N 0.96242 0.66736 0.52886 0.0
N763 N 0.0332 0.7585 0.46908 0.0
C764 C 0.97614 0.6922 0.51406 0.0
C765 C 0.01247 0.73904 0.48375 0.0
N766 N 0.95345 0.67312 0.47031 0.0
N767 N 0.0237 0.76685 0.52734 0.0
H768 H 0.03507 0.75791 0.44736 0.0
H769 H 0.05028 0.77354 0.47845 0.0
H770 H 0.02291 0.76905 0.54904 0.0
H771 H 0.0333 0.78718 0.51747 0.0
H772 H 0.93615 0.65868 0.48007 0.0
H773 H 0.95168 0.67285 0.44857 0.0
H774 H 0.95267 0.64671 0.51962 0.0
H775 H 0.96284 0.66618 0.55062 0.0
C776 C 0.48323 0.96141 0.22172 0.0
C777 C 0.46499 0.98872 0.23039 0.0
C778 C 0.51472 0.01715 0.24372 0.0
C779 C 0.5329 0.99195 0.23114 0.0
N780 N 0.53568 0.94001 0.20821 0.0
N781 N 0.4621 0.04239 0.25002 0.0
C782 C 0.51751 0.96377 0.22053 0.0
C783 C 0.48037 0.0164 0.2419 0.0
N784 N 0.46764 0.93336 0.21458 0.0
N785 N 0.53043 0.04167 0.25735 0.0
H786 H 0.43683 0.04198 0.25014 0.0
H787 H 0.47172 0.06482 0.25548 0.0
H788 H 0.55562 0.04295 0.25868 0.0
H789 H 0.51877 0.05933 0.26914 0.0
H790 H 0.47942 0.91157 0.21054 0.0
H791 H 0.4425 0.93111 0.21483 0.0
H792 H 0.52592 0.92073 0.19701 0.0
H793 H 0.56094 0.94032 0.20798 0.0
C794 C 0.99313 0.48306 0.74539 0.0
C795 C 0.00629 0.46502 0.72288 0.0
C796 C 0.02079 0.51506 0.69836 0.0
C797 C 0.00789 0.53313 0.72098 0.0
N798 N 0.98688 0.53556 0.76782 0.0
N799 N 0.03751 0.46276 0.68031 0.0
C800 C 0.99567 0.51746 0.74513 0.0
C801 C 0.02177 0.48073 0.70013 0.0
N802 N 0.97745 0.46726 0.76654 0.0
N803 N 0.03091 0.53076 0.67472 0.0
H804 H 0.03771 0.43748 0.68024 0.0
H805 H 0.05237 0.47269 0.66499 0.0
H806 H 0.03164 0.55594 0.67296 0.0
H807 H 0.0368 0.51903 0.65617 0.0
H808 H 0.96412 0.47891 0.782 0.0
H809 H 0.97636 0.44204 0.7679 0.0
H810 H 0.98066 0.52572 0.7871 0.0
H811 H 0.98803 0.56083 0.76803 0.0
C812 C 0.51814 0.01811 0.75712 0.0
C813 C 0.53436 0.99084 0.76851 0.0
C814 C 0.48261 0.96437 0.7785 0.0
C815 C 0.46639 0.99218 0.7681 0.0
N816 N 0.46729 0.042 0.74198 0.0
N817 N 0.53334 0.93531 0.78401 0.0
C818 C 0.48378 0.0179 0.75548 0.0
C819 C 0.51693 0.96297 0.77711 0.0
N820 N 0.53564 0.04463 0.74899 0.0
N821 N 0.4652 0.94004 0.79083 0.0
H822 H 0.55854 0.93376 0.78354 0.0
H823 H 0.5222 0.91318 0.78802 0.0
H824 H 0.43994 0.93967 0.79121 0.0
H825 H 0.47558 0.92097 0.80189 0.0
H826 H 0.52537 0.06679 0.74361 0.0
H827 H 0.5609 0.04491 0.74874 0.0
H828 H 0.47839 0.06003 0.73017 0.0
H829 H 0.44207 0.04256 0.74076 0.0
C830 C 0.99498 0.48033 0.25222 0.0
C831 C 0.99093 0.46313 0.27763 0.0
C832 C 0.98531 0.51404 0.30347 0.0
C833 C 0.98854 0.53125 0.27795 0.0
N834 N 0.99147 0.53185 0.22774 0.0
N835 N 0.97721 0.46243 0.32664 0.0
C836 C 0.99185 0.51468 0.25218 0.0
C837 C 0.98443 0.47967 0.30301 0.0
N838 N 0.00259 0.4638 0.22835 0.0
N839 N 0.98438 0.53061 0.32823 0.0
H840 H 0.97769 0.43719 0.32754 0.0
H841 H 0.96849 0.4729 0.34492 0.0
H842 H 0.98403 0.55585 0.32949 0.0
H843 H 0.98609 0.51957 0.34772 0.0
H844 H 0.00943 0.47493 0.20977 0.0
H845 H 0.00374 0.43854 0.22748 0.0
H846 H 0.99062 0.52122 0.20806 0.0
H847 H 0.98971 0.55708 0.22713 0.0
C848 C 0.17273 0.18147 0.25994 0.0
C849 C 0.13907 0.17469 0.25918 0.0
C850 C 0.14973 0.12224 0.23714 0.0
C851 C 0.18345 0.12776 0.24014 0.0
N852 N 0.22739 0.16006 0.25821 0.0
N853 N 0.09555 0.13653 0.25198 0.0
C854 C 0.19509 0.1567 0.25261 0.0
C855 C 0.12755 0.14445 0.24917 0.0
N856 N 0.18324 0.21186 0.26687 0.0
N857 N 0.13889 0.09631 0.22201 0.0
H858 H 0.07848 0.15211 0.2608 0.0
H859 H 0.08641 0.11349 0.24787 0.0
H860 H 0.15441 0.07948 0.21283 0.0
H861 H 0.11473 0.09302 0.21647 0.0
H862 H 0.20721 0.21932 0.26489 0.0
H863 H 0.16753 0.23055 0.27249 0.0
H864 H 0.23692 0.17903 0.26996 0.0
H865 H 0.24448 0.14243 0.25304 0.0
C866 C 0.87016 0.15375 0.75584 0.0
C867 C 0.85893 0.18161 0.74142 0.0
C868 C 0.8031 0.16174 0.74437 0.0
C869 C 0.81413 0.13521 0.76066 0.0
N870 N 0.85697 0.10861 0.78609 0.0
N871 N 0.81487 0.2149 0.72511 0.0
C872 C 0.84736 0.13198 0.7676 0.0
C873 C 0.82539 0.18642 0.73656 0.0
N874 N 0.90265 0.14753 0.75745 0.0
N875 N 0.77157 0.16279 0.73571 0.0
H876 H 0.83061 0.23332 0.71887 0.0
H877 H 0.79056 0.22138 0.72372 0.0
H878 H 0.75451 0.14531 0.74135 0.0
H879 H 0.76281 0.17954 0.72132 0.0
H880 H 0.91215 0.1258 0.76487 0.0
H881 H 0.92023 0.16296 0.7492 0.0
H882 H 0.88023 0.1073 0.79441 0.0
H883 H 0.84095 0.09206 0.79501 0.0
C884 C 0.86818 0.84627 0.25114 0.0
C885 C 0.85653 0.81616 0.26136 0.0
C886 C 0.80061 0.83474 0.25545 0.0
C887 C 0.81234 0.86352 0.24276 0.0
N888 N 0.85692 0.89401 0.22344 0.0
N889 N 0.8121 0.7794 0.26938 0.0
C890 C 0.84605 0.86854 0.23914 0.0
C891 C 0.82282 0.8097 0.26245 0.0
N892 N 0.90023 0.85406 0.25378 0.0
N893 N 0.76843 0.83179 0.26165 0.0
H894 H 0.82771 0.76051 0.27473 0.0
H895 H 0.78801 0.77222 0.26764 0.0
H896 H 0.75143 0.84964 0.25681 0.0
H897 H 0.75897 0.81293 0.27358 0.0
H898 H 0.90941 0.87704 0.24946 0.0
H899 H 0.91724 0.83855 0.26277 0.0
H900 H 0.88105 0.89687 0.21762 0.0
H901 H 0.84145 0.91071 0.21396 0.0
C902 C 0.12924 0.84811 0.74745 0.0
C903 C 0.13938 0.81653 0.73962 0.0
C904 C 0.19592 0.83178 0.74796 0.0
C905 C 0.18534 0.86218 0.75839 0.0
N906 N 0.14151 0.89639 0.77405 0.0
N907 N 0.18159 0.77617 0.73728 0.0
C908 C 0.15184 0.8695 0.75992 0.0
C909 C 0.17254 0.8077 0.74126 0.0
N910 N 0.09835 0.85821 0.74195 0.0
N911 N 0.22815 0.82629 0.74355 0.0
H912 H 0.16508 0.7578 0.73264 0.0
H913 H 0.20495 0.76771 0.74104 0.0
H914 H 0.24598 0.84342 0.74807 0.0
H915 H 0.23697 0.80591 0.73322 0.0
H916 H 0.09075 0.88209 0.7446 0.0
H917 H 0.08116 0.84361 0.73212 0.0
H918 H 0.1172 0.90103 0.77825 0.0
H919 H 0.1573 0.91237 0.78404 0.0
C920 C 0.83482 0.84091 0.78425 0.0
C921 C 0.80857 0.85 0.76678 0.0
C922 C 0.82833 0.81388 0.72995 0.0
C923 C 0.85389 0.80395 0.74783 0.0
N924 N 0.87693 0.80159 0.794 0.0
N925 N 0.7758 0.83974 0.72608 0.0
C926 C 0.8556 0.81538 0.77569 0.0
C927 C 0.80386 0.83468 0.74058 0.0
N928 N 0.84099 0.85776 0.80826 0.0
N929 N 0.82829 0.80482 0.70249 0.0
H930 H 0.75731 0.85471 0.73342 0.0
H931 H 0.76957 0.82681 0.70818 0.0
H932 H 0.84571 0.78951 0.69386 0.0
H933 H 0.81242 0.81439 0.68774 0.0
H934 H 0.8619 0.85459 0.82011 0.0
H935 H 0.82658 0.87687 0.81524 0.0
H936 H 0.87712 0.80668 0.81531 0.0
H937 H 0.8924 0.78269 0.78835 0.0
C938 C 0.19317 0.82982 0.26113 0.0
C939 C 0.19015 0.84412 0.23432 0.0
C940 C 0.14349 0.80939 0.22437 0.0
C941 C 0.14334 0.79919 0.25263 0.0
N942 N 0.16612 0.80192 0.29903 0.0
N943 N 0.16006 0.85053 0.19136 0.0
C944 C 0.16786 0.80971 0.27131 0.0
C945 C 0.16486 0.8345 0.21601 0.0
N946 N 0.22041 0.83519 0.27667 0.0
N947 N 0.12334 0.79483 0.20551 0.0
H948 H 0.1748 0.86944 0.18453 0.0
H949 H 0.1398 0.84695 0.17877 0.0
H950 H 0.10753 0.77615 0.21099 0.0
H951 H 0.12457 0.79903 0.18408 0.0
H952 H 0.22542 0.82296 0.2952 0.0
H953 H 0.2395 0.84963 0.26966 0.0
H954 H 0.18121 0.81201 0.31413 0.0
H955 H 0.14799 0.78723 0.30737 0.0
C956 C 0.15808 0.19185 0.76281 0.0
C957 C 0.14398 0.1888 0.73594 0.0
C958 C 0.18027 0.14354 0.72528 0.0
C959 C 0.19095 0.14366 0.75341 0.0
N960 N 0.18796 0.16567 0.80006 0.0
N961 N 0.13875 0.1597 0.69241 0.0
C962 C 0.17954 0.1674 0.77248 0.0
C963 C 0.15446 0.16425 0.71725 0.0
N964 N 0.15129 0.2184 0.77887 0.0
N965 N 0.19516 0.1239 0.7062 0.0
H966 H 0.11973 0.17437 0.68569 0.0
H967 H 0.14284 0.13987 0.67943 0.0
H968 H 0.21426 0.1085 0.71143 0.0
H969 H 0.19067 0.12505 0.68482 0.0
H970 H 0.16329 0.22367 0.79745 0.0
H971 H 0.13566 0.23677 0.77235 0.0
H972 H 0.17744 0.17998 0.8155 0.0
H973 H 0.20379 0.14825 0.80797 0.0
C974 C 0.84601 0.16525 0.28224 0.0
C975 C 0.85488 0.19127 0.2644 0.0
C976 C 0.81758 0.1715 0.22847 0.0
C977 C 0.80774 0.14632 0.2468 0.0
N978 N 0.80639 0.12385 0.29325 0.0
N979 N 0.844 0.22368 0.22358 0.0
C980 C 0.81997 0.14474 0.27442 0.0
C981 C 0.83898 0.19584 0.23845 0.0
N982 N 0.86349 0.15904 0.3059 0.0
N983 N 0.80779 0.1713 0.20119 0.0
H984 H 0.85939 0.2421 0.23045 0.0
H985 H 0.8307 0.22986 0.20589 0.0
H986 H 0.79208 0.15392 0.19304 0.0
H987 H 0.81716 0.18688 0.18611 0.0
H988 H 0.86046 0.13822 0.31792 0.0
H989 H 0.88293 0.17329 0.31235 0.0
H990 H 0.81213 0.12387 0.31443 0.0
H991 H 0.78708 0.10862 0.2882 0.0
loop_
_geom_bond_atom_site_label_1
_geom_bond_atom_site_label_2
_geom_bond_distance
_geom_bond_site_symmetry_2
_ccdc_geom_bond_type
Li0 N17 1.990 . S
Li0 O60 1.956 . S
Li0 O61 1.970 . S
Li0 O62 1.972 . S
Li1 N25 1.990 1_545 S
Li1 O60 1.977 . S
Li1 O61 1.956 . S
Li1 O63 1.955 1_545 S
Li2 N47 1.990 . S
Li2 O60 1.961 . S
Li2 O62 1.956 . S
Li2 O63 1.970 1_545 S
Li3 N53 1.990 . S
Li3 O61 1.961 1_565 S
Li3 O62 1.959 1_565 S
Li3 O63 1.956 . S
C4 C6 1.348 . S
C4 C7 1.356 . S
C4 O60 1.325 . S
N5 C8 1.314 . S
N5 C9 1.279 . S
C6 C4 1.348 . S
C6 C8 1.353 . S
C6 H64 0.929 . S
C7 C4 1.356 . S
C7 C9 1.358 . S
C7 H65 0.930 . S
C8 N5 1.314 . S
C8 C6 1.353 . S
C8 H66 0.930 . S
C9 N5 1.279 . S
C9 C7 1.358 . S
C9 H67 0.930 . S
C10 C13 1.370 . S
C10 C14 1.334 1_545 S
C10 O61 1.325 . S
C11 N12 1.297 . S
C11 C14 1.358 . S
C11 H68 0.930 . S
N12 C11 1.297 . S
N12 C15 1.296 1_565 S
C13 C10 1.370 . S
C13 C15 1.353 . S
C13 H69 0.929 . S
C14 C10 1.334 1_565 S
C14 C11 1.358 . S
C14 H70 0.930 . S
C15 N12 1.296 1_545 S
C15 C13 1.353 . S
C15 H71 0.930 . S
C16 N17 1.314 . S
C16 C21 1.353 . S
C16 H22 0.930 . S
N17 Li0 1.990 . S
N17 C16 1.314 . S
N17 C19 1.279 . S
C18 C19 1.358 . S
C18 C20 1.356 . S
C18 H72 0.930 . S
C19 N17 1.279 . S
C19 C18 1.358 . S
C19 H23 0.930 . S
C20 C18 1.356 . S
C20 C21 1.348 . S
C21 C16 1.353 . S
C21 C20 1.348 . S
C21 H73 0.929 . S
H22 C16 0.930 . S
H23 C19 0.930 . S
C24 N25 1.314 . S
C24 C26 1.353 . S
C24 H30 0.930 . S
N25 Li1 1.990 1_565 S
N25 C24 1.314 . S
N25 C28 1.279 1_565 S
C26 C24 1.353 . S
C26 C29 1.338 1_565 S
C26 H74 0.929 . S
C27 C28 1.358 . S
C27 C29 1.362 . S
C27 H75 0.930 . S
C28 N25 1.279 1_545 S
C28 C27 1.358 . S
C28 H31 0.930 . S
C29 C26 1.338 1_545 S
C29 C27 1.362 . S
H30 C24 0.930 . S
H31 C28 0.930 . S
C32 C34 1.319 1_545 S
C32 C35 1.385 . S
C32 O62 1.325 . S
N33 C36 1.314 1_545 S
N33 C37 1.279 . S
C34 C32 1.319 1_565 S
C34 C36 1.353 . S
C34 H76 0.929 . S
C35 C32 1.385 . S
C35 C37 1.358 . S
C35 H77 0.930 . S
C36 N33 1.314 1_565 S
C36 C34 1.353 . S
C36 H78 0.930 . S
C37 N33 1.279 . S
C37 C35 1.358 . S
C37 H79 0.930 . S
C38 C39 1.348 . S
C38 C40 1.356 . S
C38 O63 1.325 . S
C39 C38 1.348 . S
C39 C41 1.353 . S
C39 H80 0.929 . S
C40 C38 1.356 . S
C40 C42 1.358 . S
C40 H81 0.930 . S
C41 C39 1.353 . S
C41 N43 1.314 . S
C41 H82 0.930 . S
C42 C40 1.358 . S
C42 N43 1.279 . S
C42 H83 0.930 . S
N43 C41 1.314 . S
N43 C42 1.279 . S
C44 C46 1.353 . S
C44 N47 1.314 . S
C44 H50 0.930 . S
C45 N47 1.279 1_565 S
C45 C48 1.358 . S
C45 H51 0.930 . S
C46 C44 1.353 . S
C46 C49 1.357 . S
C46 H84 0.929 . S
N47 Li2 1.990 . S
N47 C44 1.314 . S
N47 C45 1.279 1_545 S
C48 C45 1.358 . S
C48 C49 1.351 1_565 S
C48 H85 0.930 . S
C49 C46 1.357 . S
C49 C48 1.351 1_545 S
H50 C44 0.930 . S
H51 C45 0.930 . S
C52 N53 1.314 . S
C52 C54 1.353 . S
C52 H58 0.930 . S
N53 Li3 1.990 . S
N53 C52 1.314 . S
N53 C56 1.279 . S
C54 C52 1.353 . S
C54 C57 1.348 . S
C54 H86 0.929 . S
C55 C56 1.358 . S
C55 C57 1.356 . S
C55 H87 0.930 . S
C56 N53 1.279 . S
C56 C55 1.358 . S
C56 H59 0.930 . S
C57 C54 1.348 . S
C57 C55 1.356 . S
H58 C52 0.930 . S
H59 C56 0.930 . S
O60 Li0 1.956 . S
O60 Li1 1.977 . S
O60 Li2 1.961 . S
O60 C4 1.325 . S
O61 Li0 1.970 . S
O61 Li1 1.956 . S
O61 Li3 1.961 1_545 S
O61 C10 1.325 . S
O62 Li0 1.972 . S
O62 Li2 1.956 . S
O62 Li3 1.959 1_545 S
O62 C32 1.325 . S
O63 Li1 1.955 1_565 S
O63 Li2 1.970 1_565 S
O63 Li3 1.956 . S
O63 C38 1.325 . S
H64 C6 0.929 . S
H65 C7 0.930 . S
H66 C8 0.930 . S
H67 C9 0.930 . S
H68 C11 0.930 . S
H69 C13 0.929 . S
H70 C14 0.930 . S
H71 C15 0.930 . S
H72 C18 0.930 . S
H73 C21 0.929 . S
H74 C26 0.929 . S
H75 C27 0.930 . S
H76 C34 0.929 . S
H77 C35 0.930 . S
H78 C36 0.930 . S
H79 C37 0.930 . S
H80 C39 0.929 . S
H81 C40 0.930 . S
H82 C41 0.930 . S
H83 C42 0.930 . S
H84 C46 0.929 . S
H85 C48 0.930 . S
H86 C54 0.929 . S
H87 C55 0.930 . S
Li88 N105 1.990 . S
Li88 O148 1.956 . S
Li88 O149 1.970 1_455 S
Li88 O150 1.960 1_455 S
Li89 N113 1.992 . S
Li89 O148 1.951 1_655 S
Li89 O149 1.974 . S
Li89 O151 1.960 1_655 S
Li90 N135 1.990 . S
Li90 O148 1.961 . S
Li90 O150 1.943 1_455 S
Li90 O151 1.970 . S
Li91 N141 1.990 . S
Li91 O149 1.961 . S
Li91 O150 1.982 . S
Li91 O151 1.956 1_655 S
C92 C94 1.348 . S
C92 C95 1.356 . S
C92 O148 1.325 . S
N93 C96 1.314 . S
N93 C97 1.279 . S
C94 C92 1.348 . S
C94 C96 1.353 . S
C94 H152 0.929 . S
C95 C92 1.356 . S
C95 C97 1.358 . S
C95 H153 0.930 . S
C96 N93 1.314 . S
C96 C94 1.353 . S
C96 H154 0.930 . S
C97 N93 1.279 . S
C97 C95 1.358 . S
C97 H155 0.930 . S
C98 C101 1.348 . S
C98 C102 1.356 . S
C98 O149 1.325 . S
C99 N100 1.279 . S
C99 C102 1.358 . S
C99 H156 0.930 . S
N100 C99 1.279 . S
N100 C103 1.314 . S
C101 C98 1.348 . S
C101 C103 1.353 . S
C101 H157 0.929 . S
C102 C98 1.356 . S
C102 C99 1.358 . S
C102 H158 0.930 . S
C103 N100 1.314 . S
C103 C101 1.353 . S
C103 H159 0.930 . S
C104 N105 1.314 1_655 S
C104 C109 1.353 . S
C104 H110 0.930 . S
N105 Li88 1.990 . S
N105 C104 1.314 1_455 S
N105 C107 1.279 . S
C106 C107 1.358 . S
C106 C108 1.374 . S
C106 H160 0.930 . S
C107 N105 1.279 . S
C107 C106 1.358 . S
C107 H111 0.930 . S
C108 C106 1.374 . S
C108 C109 1.333 1_455 S
C109 C104 1.353 . S
C109 C108 1.333 1_655 S
C109 H161 0.929 . S
H110 C104 0.930 . S
H111 C107 0.930 . S
C112 N113 1.314 1_455 S
C112 C114 1.353 . S
C112 H118 0.930 . S
N113 Li89 1.992 . S
N113 C112 1.314 1_655 S
N113 C116 1.279 . S
C114 C112 1.353 . S
C114 C117 1.360 . S
C114 H162 0.929 . S
C115 C116 1.358 . S
C115 C117 1.341 1_655 S
C115 H163 0.930 . S
C116 N113 1.279 . S
C116 C115 1.358 . S
C116 H119 0.930 . S
C117 C114 1.360 . S
C117 C115 1.341 1_455 S
H118 C112 0.930 . S
H119 C116 0.930 . S
C120 C122 1.334 1_455 S
C120 C123 1.373 . S
C120 O150 1.324 1_455 S
N121 C124 1.314 1_455 S
N121 C125 1.279 . S
C122 C120 1.334 1_655 S
C122 C124 1.353 . S
C122 H164 0.929 . S
C123 C120 1.373 . S
C123 C125 1.358 . S
C123 H165 0.930 . S
C124 N121 1.314 1_655 S
C124 C122 1.353 . S
C124 H166 0.930 . S
C125 N121 1.279 . S
C125 C123 1.358 . S
C125 H167 0.930 . S
C126 C127 1.361 . S
C126 C128 1.340 1_455 S
C126 O151 1.326 . S
C127 C126 1.361 . S
C127 C129 1.353 . S
C127 H168 0.929 . S
C128 C126 1.340 1_655 S
C128 C130 1.358 . S
C128 H169 0.930 . S
C129 C127 1.353 . S
C129 N131 1.314 1_455 S
C129 H170 0.930 . S
C130 C128 1.358 . S
C130 N131 1.279 . S
C130 H171 0.930 . S
N131 C129 1.314 1_655 S
N131 C130 1.279 . S
C132 C134 1.353 . S
C132 N135 1.314 . S
C132 H138 0.930 . S
C133 N135 1.279 . S
C133 C136 1.358 . S
C133 H139 0.930 . S
C134 C132 1.353 . S
C134 C137 1.348 . S
C134 H172 0.929 . S
N135 Li90 1.990 . S
N135 C132 1.314 . S
N135 C133 1.279 . S
C136 C133 1.358 . S
C136 C137 1.356 . S
C136 H173 0.930 . S
C137 C134 1.348 . S
C137 C136 1.356 . S
H138 C132 0.930 . S
H139 C133 0.930 . S
C140 N141 1.314 . S
C140 C142 1.353 . S
C140 H146 0.930 . S
N141 Li91 1.990 . S
N141 C140 1.314 . S
N141 C144 1.279 . S
C142 C140 1.353 . S
C142 C145 1.348 . S
C142 H174 0.929 . S
C143 C144 1.358 . S
C143 C145 1.356 . S
C143 H175 0.930 . S
C144 N141 1.279 . S
C144 C143 1.358 . S
C144 H147 0.930 . S
C145 C142 1.348 . S
C145 C143 1.356 . S
H146 C140 0.930 . S
H147 C144 0.930 . S
O148 Li88 1.956 . S
O148 Li89 1.951 1_455 S
O148 Li90 1.961 . S
O148 C92 1.325 . S
O149 Li88 1.970 1_655 S
O149 Li89 1.974 . S
O149 Li91 1.961 . S
O149 C98 1.325 . S
O150 Li88 1.960 1_655 S
O150 Li90 1.943 1_655 S
O150 Li91 1.982 . S
O150 C120 1.324 1_655 S
O151 Li89 1.960 1_455 S
O151 Li90 1.970 . S
O151 Li91 1.956 1_455 S
O151 C126 1.326 . S
H152 C94 0.929 . S
H153 C95 0.930 . S
H154 C96 0.930 . S
H155 C97 0.930 . S
H156 C99 0.930 . S
H157 C101 0.929 . S
H158 C102 0.930 . S
H159 C103 0.930 . S
H160 C106 0.930 . S
H161 C109 0.929 . S
H162 C114 0.929 . S
H163 C115 0.930 . S
H164 C122 0.929 . S
H165 C123 0.930 . S
H166 C124 0.930 . S
H167 C125 0.930 . S
H168 C127 0.929 . S
H169 C128 0.930 . S
H170 C129 0.930 . S
H171 C130 0.930 . S
H172 C134 0.929 . S
H173 C136 0.930 . S
H174 C142 0.929 . S
H175 C143 0.930 . S
Li176 N193 1.990 . S
Li176 O236 1.956 . S
Li176 O237 1.970 1_545 S
Li176 O238 1.961 . S
Li177 N201 1.990 . S
Li177 O236 1.970 1_565 S
Li177 O237 1.956 . S
Li177 O239 1.961 1_565 S
Li178 N223 1.990 . S
Li178 O236 1.961 . S
Li178 O238 1.956 . S
Li178 O239 1.970 . S
Li179 N229 1.989 1_545 S
Li179 O237 1.961 1_545 S
Li179 O238 1.970 . S
Li179 O239 1.956 . S
C180 C182 1.348 1_545 S
C180 C183 1.356 . S
C180 O236 1.325 . S
N181 C184 1.314 1_545 S
N181 C185 1.279 . S
C182 C180 1.348 1_565 S
C182 C184 1.353 . S
C182 H240 0.929 . S
C183 C180 1.356 . S
C183 C185 1.358 . S
C183 H241 0.930 . S
C184 N181 1.314 1_565 S
C184 C182 1.353 . S
C184 H242 0.930 . S
C185 N181 1.279 . S
C185 C183 1.358 . S
C185 H243 0.930 . S
C186 C189 1.348 . S
C186 C190 1.356 . S
C186 O237 1.325 . S
C187 N188 1.279 . S
C187 C190 1.358 . S
C187 H244 0.930 . S
N188 C187 1.279 . S
N188 C191 1.314 . S
C189 C186 1.348 . S
C189 C191 1.353 . S
C189 H245 0.929 . S
C190 C186 1.356 . S
C190 C187 1.358 . S
C190 H246 0.930 . S
C191 N188 1.314 . S
C191 C189 1.353 . S
C191 H247 0.930 . S
C192 N193 1.314 . S
C192 C197 1.353 . S
C192 H198 0.930 . S
N193 Li176 1.990 . S
N193 C192 1.314 . S
N193 C195 1.279 1_545 S
C194 C195 1.358 . S
C194 C196 1.356 1_565 S
C194 H248 0.930 . S
C195 N193 1.279 1_565 S
C195 C194 1.358 . S
C195 H199 0.930 . S
C196 C194 1.356 1_545 S
C196 C197 1.348 . S
C197 C192 1.353 . S
C197 C196 1.348 . S
C197 H249 0.929 . S
H198 C192 0.930 . S
H199 C195 0.930 . S
C200 N201 1.314 . S
C200 C202 1.353 . S
C200 H206 0.930 . S
N201 Li177 1.990 . S
N201 C200 1.314 . S
N201 C204 1.279 . S
C202 C200 1.353 . S
C202 C205 1.348 . S
C202 H250 0.929 . S
C203 C204 1.358 . S
C203 C205 1.356 . S
C203 H251 0.930 . S
C204 N201 1.279 . S
C204 C203 1.358 . S
C204 H207 0.930 . S
C205 C202 1.348 . S
C205 C203 1.356 . S
H206 C200 0.930 . S
H207 C204 0.930 . S
C208 C210 1.348 . S
C208 C211 1.356 . S
C208 O238 1.325 . S
N209 C212 1.314 . S
N209 C213 1.279 . S
C210 C208 1.348 . S
C210 C212 1.353 . S
C210 H252 0.929 . S
C211 C208 1.356 . S
C211 C213 1.358 . S
C211 H253 0.930 . S
C212 N209 1.314 . S
C212 C210 1.353 . S
C212 H254 0.930 . S
C213 N209 1.279 . S
C213 C211 1.358 . S
C213 H255 0.930 . S
C214 C215 1.348 . S
C214 C216 1.356 1_545 S
C214 O239 1.325 . S
C215 C214 1.348 . S
C215 C217 1.353 . S
C215 H256 0.929 . S
C216 C214 1.356 1_565 S
C216 C218 1.358 . S
C216 H257 0.930 . S
C217 C215 1.353 . S
C217 N219 1.321 . S
C217 H258 0.930 . S
C218 C216 1.358 . S
C218 N219 1.273 1_565 S
C218 H259 0.930 . S
N219 C217 1.321 . S
N219 C218 1.273 1_545 S
C220 C222 1.353 . S
C220 N223 1.314 . S
C220 H226 0.930 . S
C221 N223 1.279 . S
C221 C224 1.358 . S
C221 H227 0.930 . S
C222 C220 1.353 . S
C222 C225 1.348 . S
C222 H260 0.929 . S
N223 Li178 1.990 . S
N223 C220 1.314 . S
N223 C221 1.279 . S
C224 C221 1.358 . S
C224 C225 1.356 . S
C224 H261 0.930 . S
C225 C222 1.348 . S
C225 C224 1.356 . S
H226 C220 0.930 . S
H227 C221 0.930 . S
C228 N229 1.320 . S
C228 C230 1.353 . S
C228 H234 0.930 . S
N229 Li179 1.989 1_565 S
N229 C228 1.320 . S
N229 C232 1.274 1_565 S
C230 C228 1.353 . S
C230 C233 1.348 1_565 S
C230 H262 0.929 . S
C231 C232 1.358 . S
C231 C233 1.356 . S
C231 H263 0.930 . S
C232 N229 1.274 1_545 S
C232 C231 1.358 . S
C232 H235 0.930 . S
C233 C230 1.348 1_545 S
C233 C231 1.356 . S
H234 C228 0.930 . S
H235 C232 0.930 . S
O236 Li176 1.956 . S
O236 Li177 1.970 1_545 S
O236 Li178 1.961 . S
O236 C180 1.325 . S
O237 Li176 1.970 1_565 S
O237 Li177 1.956 . S
O237 Li179 1.961 1_565 S
O237 C186 1.325 . S
O238 Li176 1.961 . S
O238 Li178 1.956 . S
O238 Li179 1.970 . S
O238 C208 1.325 . S
O239 Li177 1.961 1_545 S
O239 Li178 1.970 . S
O239 Li179 1.956 . S
O239 C214 1.325 . S
H240 C182 0.929 . S
H241 C183 0.930 . S
H242 C184 0.930 . S
H243 C185 0.930 . S
H244 C187 0.930 . S
H245 C189 0.929 . S
H246 C190 0.930 . S
H247 C191 0.930 . S
H248 C194 0.930 . S
H249 C197 0.929 . S
H250 C202 0.929 . S
H251 C203 0.930 . S
H252 C210 0.929 . S
H253 C211 0.930 . S
H254 C212 0.930 . S
H255 C213 0.930 . S
H256 C215 0.929 . S
H257 C216 0.930 . S
H258 C217 0.930 . S
H259 C218 0.930 . S
H260 C222 0.929 . S
H261 C224 0.930 . S
H262 C230 0.929 . S
H263 C231 0.930 . S
Li264 N281 1.990 . S
Li264 O324 1.956 1_655 S
Li264 O325 1.968 1_655 S
Li264 O326 1.961 . S
Li265 N289 1.990 . S
Li265 O324 1.970 . S
Li265 O325 1.959 . S
Li265 O327 1.961 . S
Li266 N311 1.990 1_455 S
Li266 O324 1.961 . S
Li266 O326 1.958 1_455 S
Li266 O327 1.968 . S
Li267 N317 1.990 . S
Li267 O325 1.961 . S
Li267 O326 1.970 1_455 S
Li267 O327 1.956 . S
C268 C270 1.348 . S
C268 C271 1.356 1_455 S
C268 O324 1.325 . S
N269 C272 1.314 1_655 S
N269 C273 1.279 . S
C270 C268 1.348 . S
C270 C272 1.353 . S
C270 H328 0.929 . S
C271 C268 1.356 1_655 S
C271 C273 1.358 . S
C271 H329 0.930 . S
C272 N269 1.314 1_455 S
C272 C270 1.353 . S
C272 H330 0.930 . S
C273 N269 1.279 . S
C273 C271 1.358 . S
C273 H331 0.930 . S
C274 C277 1.348 1_455 S
C274 C278 1.356 . S
C274 O325 1.325 . S
C275 N276 1.279 . S
C275 C278 1.358 . S
C275 H332 0.930 . S
N276 C275 1.279 . S
N276 C279 1.314 1_455 S
C277 C274 1.348 1_655 S
C277 C279 1.353 . S
C277 H333 0.929 . S
C278 C274 1.356 . S
C278 C275 1.358 . S
C278 H334 0.930 . S
C279 N276 1.314 1_655 S
C279 C277 1.353 . S
C279 H335 0.930 . S
C280 N281 1.314 . S
C280 C285 1.353 . S
C280 H286 0.930 . S
N281 Li264 1.990 . S
N281 C280 1.314 . S
N281 C283 1.279 . S
C282 C283 1.358 . S
C282 C284 1.356 . S
C282 H336 0.930 . S
C283 N281 1.279 . S
C283 C282 1.358 . S
C283 H287 0.930 . S
C284 C282 1.356 . S
C284 C285 1.348 . S
C285 C280 1.353 . S
C285 C284 1.348 . S
C285 H337 0.929 . S
H286 C280 0.930 . S
H287 C283 0.930 . S
C288 N289 1.314 . S
C288 C290 1.353 . S
C288 H294 0.930 . S
N289 Li265 1.990 . S
N289 C288 1.314 . S
N289 C292 1.279 . S
C290 C288 1.353 . S
C290 C293 1.348 . S
C290 H338 0.929 . S
C291 C292 1.358 . S
C291 C293 1.356 . S
C291 H339 0.930 . S
C292 N289 1.279 . S
C292 C291 1.358 . S
C292 H295 0.930 . S
C293 C290 1.348 . S
C293 C291 1.356 . S
H294 C288 0.930 . S
H295 C292 0.930 . S
C296 C298 1.348 . S
C296 C299 1.356 . S
C296 O326 1.325 . S
N297 C300 1.314 . S
N297 C301 1.279 . S
C298 C296 1.348 . S
C298 C300 1.353 . S
C298 H340 0.929 . S
C299 C296 1.356 . S
C299 C301 1.358 . S
C299 H341 0.930 . S
C300 N297 1.314 . S
C300 C298 1.353 . S
C300 H342 0.930 . S
C301 N297 1.279 . S
C301 C299 1.358 . S
C301 H343 0.930 . S
C302 C303 1.348 . S
C302 C304 1.356 . S
C302 O327 1.325 . S
C303 C302 1.348 . S
C303 C305 1.353 . S
C303 H344 0.929 . S
C304 C302 1.356 . S
C304 C306 1.358 . S
C304 H345 0.930 . S
C305 C303 1.353 . S
C305 N307 1.314 . S
C305 H346 0.930 . S
C306 C304 1.358 . S
C306 N307 1.279 . S
C306 H347 0.930 . S
N307 C305 1.314 . S
N307 C306 1.279 . S
C308 C310 1.353 . S
C308 N311 1.314 1_455 S
C308 H314 0.930 . S
C309 N311 1.279 . S
C309 C312 1.358 . S
C309 H315 0.930 . S
C310 C308 1.353 . S
C310 C313 1.348 . S
C310 H348 0.929 . S
N311 Li266 1.990 1_655 S
N311 C308 1.314 1_655 S
N311 C309 1.279 . S
C312 C309 1.358 . S
C312 C313 1.356 1_655 S
C312 H349 0.930 . S
C313 C310 1.348 . S
C313 C312 1.356 1_455 S
H314 C308 0.930 . S
H315 C309 0.930 . S
C316 N317 1.314 1_655 S
C316 C318 1.353 . S
C316 H322 0.930 . S
N317 Li267 1.990 . S
N317 C316 1.314 1_455 S
N317 C320 1.279 . S
C318 C316 1.353 . S
C318 C321 1.348 1_655 S
C318 H350 0.929 . S
C319 C320 1.358 . S
C319 C321 1.356 . S
C319 H351 0.930 . S
C320 N317 1.279 . S
C320 C319 1.358 . S
C320 H323 0.930 . S
C321 C318 1.348 1_455 S
C321 C319 1.356 . S
H322 C316 0.930 . S
H323 C320 0.930 . S
O324 Li264 1.956 1_455 S
O324 Li265 1.970 . S
O324 Li266 1.961 . S
O324 C268 1.325 . S
O325 Li264 1.968 1_455 S
O325 Li265 1.959 . S
O325 Li267 1.961 . S
O325 C274 1.325 . S
O326 Li264 1.961 . S
O326 Li266 1.958 1_655 S
O326 Li267 1.970 1_655 S
O326 C296 1.325 . S
O327 Li265 1.961 . S
O327 Li266 1.968 . S
O327 Li267 1.956 . S
O327 C302 1.325 . S
H328 C270 0.929 . S
H329 C271 0.930 . S
H330 C272 0.930 . S
H331 C273 0.930 . S
H332 C275 0.930 . S
H333 C277 0.929 . S
H334 C278 0.930 . S
H335 C279 0.930 . S
H336 C282 0.930 . S
H337 C285 0.929 . S
H338 C290 0.929 . S
H339 C291 0.930 . S
H340 C298 0.929 . S
H341 C299 0.930 . S
H342 C300 0.930 . S
H343 C301 0.930 . S
H344 C303 0.929 . S
H345 C304 0.930 . S
H346 C305 0.930 . S
H347 C306 0.930 . S
H348 C310 0.929 . S
H349 C312 0.930 . S
H350 C318 0.929 . S
H351 C319 0.930 . S
Li352 N369 1.990 . S
Li352 O412 1.956 . S
Li352 O413 1.970 . S
Li352 O414 1.961 . S
Li353 N377 1.989 1_545 S
Li353 O412 1.970 . S
Li353 O413 1.956 . S
Li353 O415 1.961 1_545 S
Li354 N399 1.990 . S
Li354 O412 1.961 . S
Li354 O414 1.956 . S
Li354 O415 1.970 1_545 S
Li355 N405 1.990 . S
Li355 O413 1.961 1_565 S
Li355 O414 1.970 1_565 S
Li355 O415 1.956 . S
C356 C358 1.348 . S
C356 C359 1.356 . S
C356 O412 1.325 . S
N357 C360 1.314 . S
N357 C361 1.279 . S
C358 C356 1.348 . S
C358 C360 1.353 . S
C358 H416 0.929 . S
C359 C356 1.356 . S
C359 C361 1.358 . S
C359 H417 0.930 . S
C360 N357 1.314 . S
C360 C358 1.353 . S
C360 H418 0.930 . S
C361 N357 1.279 . S
C361 C359 1.358 . S
C361 H419 0.930 . S
C362 C365 1.348 . S
C362 C366 1.356 1_545 S
C362 O413 1.325 . S
C363 N364 1.273 1_565 S
C363 C366 1.358 . S
C363 H420 0.930 . S
N364 C363 1.273 1_545 S
N364 C367 1.321 . S
C365 C362 1.348 . S
C365 C367 1.353 . S
C365 H421 0.929 . S
C366 C362 1.356 1_565 S
C366 C363 1.358 . S
C366 H422 0.930 . S
C367 N364 1.321 . S
C367 C365 1.353 . S
C367 H423 0.930 . S
C368 N369 1.314 . S
C368 C373 1.353 . S
C368 H374 0.930 . S
N369 Li352 1.990 . S
N369 C368 1.314 . S
N369 C371 1.279 . S
C370 C371 1.358 . S
C370 C372 1.356 . S
C370 H424 0.930 . S
C371 N369 1.279 . S
C371 C370 1.358 . S
C371 H375 0.930 . S
C372 C370 1.356 . S
C372 C373 1.348 . S
C373 C368 1.353 . S
C373 C372 1.348 . S
C373 H425 0.929 . S
H374 C368 0.930 . S
H375 C371 0.930 . S
C376 N377 1.320 . S
C376 C378 1.353 . S
C376 H382 0.930 . S
N377 Li353 1.989 1_565 S
N377 C376 1.320 . S
N377 C380 1.274 1_565 S
C378 C376 1.353 . S
C378 C381 1.348 1_565 S
C378 H426 0.929 . S
C379 C380 1.358 . S
C379 C381 1.356 . S
C379 H427 0.930 . S
C380 N377 1.274 1_545 S
C380 C379 1.358 . S
C380 H383 0.930 . S
C381 C378 1.348 1_545 S
C381 C379 1.356 . S
H382 C376 0.930 . S
H383 C380 0.930 . S
C384 C386 1.348 1_545 S
C384 C387 1.356 . S
C384 O414 1.325 . S
N385 C388 1.314 1_545 S
N385 C389 1.279 . S
C386 C384 1.348 1_565 S
C386 C388 1.353 . S
C386 H428 0.929 . S
C387 C384 1.356 . S
C387 C389 1.358 . S
C387 H429 0.930 . S
C388 N385 1.314 1_565 S
C388 C386 1.353 . S
C388 H430 0.930 . S
C389 N385 1.279 . S
C389 C387 1.358 . S
C389 H431 0.930 . S
C390 C391 1.348 . S
C390 C392 1.356 . S
C390 O415 1.325 . S
C391 C390 1.348 . S
C391 C393 1.353 . S
C391 H432 0.929 . S
C392 C390 1.356 . S
C392 C394 1.358 . S
C392 H433 0.930 . S
C393 C391 1.353 . S
C393 N395 1.314 . S
C393 H434 0.930 . S
C394 C392 1.358 . S
C394 N395 1.279 . S
C394 H435 0.930 . S
N395 C393 1.314 . S
N395 C394 1.279 . S
C396 C398 1.353 . S
C396 N399 1.314 . S
C396 H402 0.930 . S
C397 N399 1.279 1_565 S
C397 C400 1.358 . S
C397 H403 0.930 . S
C398 C396 1.353 . S
C398 C401 1.348 . S
C398 H436 0.929 . S
N399 Li354 1.990 . S
N399 C396 1.314 . S
N399 C397 1.279 1_545 S
C400 C397 1.358 . S
C400 C401 1.356 1_565 S
C400 H437 0.930 . S
C401 C398 1.348 . S
C401 C400 1.356 1_545 S
H402 C396 0.930 . S
H403 C397 0.930 . S
C404 N405 1.314 . S
C404 C406 1.353 . S
C404 H410 0.930 . S
N405 Li355 1.990 . S
N405 C404 1.314 . S
N405 C408 1.279 . S
C406 C404 1.353 . S
C406 C409 1.348 . S
C406 H438 0.929 . S
C407 C408 1.358 . S
C407 C409 1.356 . S
C407 H439 0.930 . S
C408 N405 1.279 . S
C408 C407 1.358 . S
C408 H411 0.930 . S
C409 C406 1.348 . S
C409 C407 1.356 . S
H410 C404 0.930 . S
H411 C408 0.930 . S
O412 Li352 1.956 . S
O412 Li353 1.970 . S
O412 Li354 1.961 . S
O412 C356 1.325 . S
O413 Li352 1.970 . S
O413 Li353 1.956 . S
O413 Li355 1.961 1_545 S
O413 C362 1.325 . S
O414 Li352 1.961 . S
O414 Li354 1.956 . S
O414 Li355 1.970 1_545 S
O414 C384 1.325 . S
O415 Li353 1.961 1_565 S
O415 Li354 1.970 1_565 S
O415 Li355 1.956 . S
O415 C390 1.325 . S
H416 C358 0.929 . S
H417 C359 0.930 . S
H418 C360 0.930 . S
H419 C361 0.930 . S
H420 C363 0.930 . S
H421 C365 0.929 . S
H422 C366 0.930 . S
H423 C367 0.930 . S
H424 C370 0.930 . S
H425 C373 0.929 . S
H426 C378 0.929 . S
H427 C379 0.930 . S
H428 C386 0.929 . S
H429 C387 0.930 . S
H430 C388 0.930 . S
H431 C389 0.930 . S
H432 C391 0.929 . S
H433 C392 0.930 . S
H434 C393 0.930 . S
H435 C394 0.930 . S
H436 C398 0.929 . S
H437 C400 0.930 . S
H438 C406 0.929 . S
H439 C407 0.930 . S
Li440 N457 1.990 . S
Li440 O500 1.956 . S
Li440 O501 1.970 1_455 S
Li440 O502 1.961 . S
Li441 N465 1.990 1_455 S
Li441 O500 1.968 . S
Li441 O501 1.958 1_455 S
Li441 O503 1.961 . S
Li442 N487 1.990 . S
Li442 O500 1.961 . S
Li442 O502 1.959 . S
Li442 O503 1.970 . S
Li443 N493 1.990 . S
Li443 O501 1.961 . S
Li443 O502 1.968 1_655 S
Li443 O503 1.956 1_655 S
C444 C446 1.348 . S
C444 C447 1.356 . S
C444 O500 1.325 . S
N445 C448 1.314 . S
N445 C449 1.279 . S
C446 C444 1.348 . S
C446 C448 1.353 . S
C446 H504 0.929 . S
C447 C444 1.356 . S
C447 C449 1.358 . S
C447 H505 0.930 . S
C448 N445 1.314 . S
C448 C446 1.353 . S
C448 H506 0.930 . S
C449 N445 1.279 . S
C449 C447 1.358 . S
C449 H507 0.930 . S
C450 C453 1.348 . S
C450 C454 1.356 . S
C450 O501 1.325 . S
C451 N452 1.279 . S
C451 C454 1.358 . S
C451 H508 0.930 . S
N452 C451 1.279 . S
N452 C455 1.314 . S
C453 C450 1.348 . S
C453 C455 1.353 . S
C453 H509 0.929 . S
C454 C450 1.356 . S
C454 C451 1.358 . S
C454 H510 0.930 . S
C455 N452 1.314 . S
C455 C453 1.353 . S
C455 H511 0.930 . S
C456 N457 1.314 1_655 S
C456 C461 1.353 . S
C456 H462 0.930 . S
N457 Li440 1.990 . S
N457 C456 1.314 1_455 S
N457 C459 1.279 . S
C458 C459 1.358 . S
C458 C460 1.356 . S
C458 H512 0.930 . S
C459 N457 1.279 . S
C459 C458 1.358 . S
C459 H463 0.930 . S
C460 C458 1.356 . S
C460 C461 1.348 1_455 S
C461 C456 1.353 . S
C461 C460 1.348 1_655 S
C461 H513 0.929 . S
H462 C456 0.930 . S
H463 C459 0.930 . S
C464 N465 1.314 1_455 S
C464 C466 1.353 . S
C464 H470 0.930 . S
N465 Li441 1.990 1_655 S
N465 C464 1.314 1_655 S
N465 C468 1.279 . S
C466 C464 1.353 . S
C466 C469 1.348 . S
C466 H514 0.929 . S
C467 C468 1.358 . S
C467 C469 1.356 1_655 S
C467 H515 0.930 . S
C468 N465 1.279 . S
C468 C467 1.358 . S
C468 H471 0.930 . S
C469 C466 1.348 . S
C469 C467 1.356 1_455 S
H470 C464 0.930 . S
H471 C468 0.930 . S
C472 C474 1.348 1_455 S
C472 C475 1.356 . S
C472 O502 1.325 . S
N473 C476 1.314 1_455 S
N473 C477 1.279 . S
C474 C472 1.348 1_655 S
C474 C476 1.353 . S
C474 H516 0.929 . S
C475 C472 1.356 . S
C475 C477 1.358 . S
C475 H517 0.930 . S
C476 N473 1.314 1_655 S
C476 C474 1.353 . S
C476 H518 0.930 . S
C477 N473 1.279 . S
C477 C475 1.358 . S
C477 H519 0.930 . S
C478 C479 1.348 . S
C478 C480 1.356 1_455 S
C478 O503 1.325 . S
C479 C478 1.348 . S
C479 C481 1.353 . S
C479 H520 0.929 . S
C480 C478 1.356 1_655 S
C480 C482 1.358 . S
C480 H521 0.930 . S
C481 C479 1.353 . S
C481 N483 1.314 1_455 S
C481 H522 0.930 . S
C482 C480 1.358 . S
C482 N483 1.279 . S
C482 H523 0.930 . S
N483 C481 1.314 1_655 S
N483 C482 1.279 . S
C484 C486 1.353 . S
C484 N487 1.314 . S
C484 H490 0.930 . S
C485 N487 1.279 . S
C485 C488 1.358 . S
C485 H491 0.930 . S
C486 C484 1.353 . S
C486 C489 1.348 . S
C486 H524 0.929 . S
N487 Li442 1.990 . S
N487 C484 1.314 . S
N487 C485 1.279 . S
C488 C485 1.358 . S
C488 C489 1.356 . S
C488 H525 0.930 . S
C489 C486 1.348 . S
C489 C488 1.356 . S
H490 C484 0.930 . S
H491 C485 0.930 . S
C492 N493 1.314 . S
C492 C494 1.353 . S
C492 H498 0.930 . S
N493 Li443 1.990 . S
N493 C492 1.314 . S
N493 C496 1.279 . S
C494 C492 1.353 . S
C494 C497 1.348 . S
C494 H526 0.929 . S
C495 C496 1.358 . S
C495 C497 1.356 . S
C495 H527 0.930 . S
C496 N493 1.279 . S
C496 C495 1.358 . S
C496 H499 0.930 . S
C497 C494 1.348 . S
C497 C495 1.356 . S
H498 C492 0.930 . S
H499 C496 0.930 . S
O500 Li440 1.956 . S
O500 Li441 1.968 . S
O500 Li442 1.961 . S
O500 C444 1.325 . S
O501 Li440 1.970 1_655 S
O501 Li441 1.958 1_655 S
O501 Li443 1.961 . S
O501 C450 1.325 . S
O502 Li440 1.961 . S
O502 Li442 1.959 . S
O502 Li443 1.968 1_455 S
O502 C472 1.325 . S
O503 Li441 1.961 . S
O503 Li442 1.970 . S
O503 Li443 1.956 1_455 S
O503 C478 1.325 . S
H504 C446 0.929 . S
H505 C447 0.930 . S
H506 C448 0.930 . S
H507 C449 0.930 . S
H508 C451 0.930 . S
H509 C453 0.929 . S
H510 C454 0.930 . S
H511 C455 0.930 . S
H512 C458 0.930 . S
H513 C461 0.929 . S
H514 C466 0.929 . S
H515 C467 0.930 . S
H516 C474 0.929 . S
H517 C475 0.930 . S
H518 C476 0.930 . S
H519 C477 0.930 . S
H520 C479 0.929 . S
H521 C480 0.930 . S
H522 C481 0.930 . S
H523 C482 0.930 . S
H524 C486 0.929 . S
H525 C488 0.930 . S
H526 C494 0.929 . S
H527 C495 0.930 . S
Li528 N545 1.990 . S
Li528 O588 1.956 . S
Li528 O589 1.970 1_545 S
Li528 O590 1.961 . S
Li529 N553 1.990 . S
Li529 O588 1.959 1_565 S
Li529 O589 1.956 . S
Li529 O591 1.961 1_565 S
Li530 N575 1.990 . S
Li530 O588 1.972 . S
Li530 O590 1.956 . S
Li530 O591 1.970 . S
Li531 N581 1.990 1_545 S
Li531 O589 1.954 1_545 S
Li531 O590 1.977 . S
Li531 O591 1.956 . S
C532 C534 1.319 1_545 S
C532 C535 1.385 . S
C532 O588 1.325 . S
N533 C536 1.314 1_545 S
N533 C537 1.279 . S
C534 C532 1.319 1_565 S
C534 C536 1.353 . S
C534 H592 0.929 . S
C535 C532 1.385 . S
C535 C537 1.358 . S
C535 H593 0.930 . S
C536 N533 1.314 1_565 S
C536 C534 1.353 . S
C536 H594 0.930 . S
C537 N533 1.279 . S
C537 C535 1.358 . S
C537 H595 0.930 . S
C538 C541 1.348 . S
C538 C542 1.356 . S
C538 O589 1.325 . S
C539 N540 1.279 . S
C539 C542 1.358 . S
C539 H596 0.930 . S
N540 C539 1.279 . S
N540 C543 1.314 . S
C541 C538 1.348 . S
C541 C543 1.353 . S
C541 H597 0.929 . S
C542 C538 1.356 . S
C542 C539 1.358 . S
C542 H598 0.930 . S
C543 N540 1.314 . S
C543 C541 1.353 . S
C543 H599 0.930 . S
C544 N545 1.314 . S
C544 C549 1.353 . S
C544 H550 0.930 . S
N545 Li528 1.990 . S
N545 C544 1.314 . S
N545 C547 1.279 1_545 S
C546 C547 1.358 . S
C546 C548 1.351 1_565 S
C546 H600 0.930 . S
C547 N545 1.279 1_565 S
C547 C546 1.358 . S
C547 H551 0.930 . S
C548 C546 1.351 1_545 S
C548 C549 1.357 . S
C549 C544 1.353 . S
C549 C548 1.357 . S
C549 H601 0.929 . S
H550 C544 0.930 . S
H551 C547 0.930 . S
C552 N553 1.314 . S
C552 C554 1.353 . S
C552 H558 0.930 . S
N553 Li529 1.990 . S
N553 C552 1.314 . S
N553 C556 1.279 . S
C554 C552 1.353 . S
C554 C557 1.348 . S
C554 H602 0.929 . S
C555 C556 1.358 . S
C555 C557 1.356 . S
C555 H603 0.930 . S
C556 N553 1.279 . S
C556 C555 1.358 . S
C556 H559 0.930 . S
C557 C554 1.348 . S
C557 C555 1.356 . S
H558 C552 0.930 . S
H559 C556 0.930 . S
C560 C562 1.348 . S
C560 C563 1.356 . S
C560 O590 1.325 . S
N561 C564 1.314 . S
N561 C565 1.279 . S
C562 C560 1.348 . S
C562 C564 1.353 . S
C562 H604 0.929 . S
C563 C560 1.356 . S
C563 C565 1.358 . S
C563 H605 0.930 . S
C564 N561 1.314 . S
C564 C562 1.353 . S
C564 H606 0.930 . S
C565 N561 1.279 . S
C565 C563 1.358 . S
C565 H607 0.930 . S
C566 C567 1.370 . S
C566 C568 1.334 1_545 S
C566 O591 1.325 . S
C567 C566 1.370 . S
C567 C569 1.353 . S
C567 H608 0.929 . S
C568 C566 1.334 1_565 S
C568 C570 1.358 . S
C568 H609 0.930 . S
C569 C567 1.353 . S
C569 N571 1.296 1_545 S
C569 H610 0.930 . S
C570 C568 1.358 . S
C570 N571 1.297 . S
C570 H611 0.930 . S
N571 C569 1.296 1_565 S
N571 C570 1.297 . S
C572 C574 1.353 . S
C572 N575 1.314 . S
C572 H578 0.930 . S
C573 N575 1.279 . S
C573 C576 1.358 . S
C573 H579 0.930 . S
C574 C572 1.353 . S
C574 C577 1.348 . S
C574 H612 0.929 . S
N575 Li530 1.990 . S
N575 C572 1.314 . S
N575 C573 1.279 . S
C576 C573 1.358 . S
C576 C577 1.356 . S
C576 H613 0.930 . S
C577 C574 1.348 . S
C577 C576 1.356 . S
H578 C572 0.930 . S
H579 C573 0.930 . S
C580 N581 1.314 . S
C580 C582 1.353 . S
C580 H586 0.930 . S
N581 Li531 1.990 1_565 S
N581 C580 1.314 . S
N581 C584 1.279 1_565 S
C582 C580 1.353 . S
C582 C585 1.338 1_565 S
C582 H614 0.929 . S
C583 C584 1.358 . S
C583 C585 1.362 . S
C583 H615 0.930 . S
C584 N581 1.279 1_545 S
C584 C583 1.358 . S
C584 H587 0.930 . S
C585 C582 1.338 1_545 S
C585 C583 1.362 . S
H586 C580 0.930 . S
H587 C584 0.930 . S
O588 Li528 1.956 . S
O588 Li529 1.959 1_545 S
O588 Li530 1.972 . S
O588 C532 1.325 . S
O589 Li528 1.970 1_565 S
O589 Li529 1.956 . S
O589 Li531 1.954 1_565 S
O589 C538 1.325 . S
O590 Li528 1.961 . S
O590 Li530 1.956 . S
O590 Li531 1.977 . S
O590 C560 1.325 . S
O591 Li529 1.961 1_545 S
O591 Li530 1.970 . S
O591 Li531 1.956 . S
O591 C566 1.325 . S
H592 C534 0.929 . S
H593 C535 0.930 . S
H594 C536 0.930 . S
H595 C537 0.930 . S
H596 C539 0.930 . S
H597 C541 0.929 . S
H598 C542 0.930 . S
H599 C543 0.930 . S
H600 C546 0.930 . S
H601 C549 0.929 . S
H602 C554 0.929 . S
H603 C555 0.930 . S
H604 C562 0.929 . S
H605 C563 0.930 . S
H606 C564 0.930 . S
H607 C565 0.930 . S
H608 C567 0.929 . S
H609 C568 0.930 . S
H610 C569 0.930 . S
H611 C570 0.930 . S
H612 C574 0.929 . S
H613 C576 0.930 . S
H614 C582 0.929 . S
H615 C583 0.930 . S
Li616 N633 1.990 . S
Li616 O676 1.956 1_655 S
Li616 O677 1.982 . S
Li616 O678 1.961 . S
Li617 N641 1.990 . S
Li617 O676 1.970 . S
Li617 O677 1.943 1_455 S
Li617 O679 1.961 . S
Li618 N663 1.992 . S
Li618 O676 1.960 1_655 S
Li618 O678 1.974 . S
Li618 O679 1.951 1_655 S
Li619 N669 1.990 . S
Li619 O677 1.960 1_455 S
Li619 O678 1.970 1_455 S
Li619 O679 1.956 . S
C620 C622 1.361 . S
C620 C623 1.340 1_455 S
C620 O676 1.326 . S
N621 C624 1.314 1_655 S
N621 C625 1.279 . S
C622 C620 1.361 . S
C622 C624 1.353 . S
C622 H680 0.929 . S
C623 C620 1.340 1_655 S
C623 C625 1.358 . S
C623 H681 0.930 . S
C624 N621 1.314 1_455 S
C624 C622 1.353 . S
C624 H682 0.930 . S
C625 N621 1.279 . S
C625 C623 1.358 . S
C625 H683 0.930 . S
C626 C629 1.334 1_455 S
C626 C630 1.373 . S
C626 O677 1.324 1_455 S
C627 N628 1.279 . S
C627 C630 1.358 . S
C627 H684 0.930 . S
N628 C627 1.279 . S
N628 C631 1.314 1_455 S
C629 C626 1.334 1_655 S
C629 C631 1.353 . S
C629 H685 0.929 . S
C630 C626 1.373 . S
C630 C627 1.358 . S
C630 H686 0.930 . S
C631 N628 1.314 1_655 S
C631 C629 1.353 . S
C631 H687 0.930 . S
C632 N633 1.314 . S
C632 C637 1.353 . S
C632 H638 0.930 . S
N633 Li616 1.990 . S
N633 C632 1.314 . S
N633 C635 1.279 . S
C634 C635 1.358 . S
C634 C636 1.356 . S
C634 H688 0.930 . S
C635 N633 1.279 . S
C635 C634 1.358 . S
C635 H639 0.930 . S
C636 C634 1.356 . S
C636 C637 1.348 . S
C637 C632 1.353 . S
C637 C636 1.348 . S
C637 H689 0.929 . S
H638 C632 0.930 . S
H639 C635 0.930 . S
C640 N641 1.314 . S
C640 C642 1.353 . S
C640 H646 0.930 . S
N641 Li617 1.990 . S
N641 C640 1.314 . S
N641 C644 1.279 . S
C642 C640 1.353 . S
C642 C645 1.348 . S
C642 H690 0.929 . S
C643 C644 1.358 . S
C643 C645 1.356 . S
C643 H691 0.930 . S
C644 N641 1.279 . S
C644 C643 1.358 . S
C644 H647 0.930 . S
C645 C642 1.348 . S
C645 C643 1.356 . S
H646 C640 0.930 . S
H647 C644 0.930 . S
C648 C650 1.348 . S
C648 C651 1.356 . S
C648 O678 1.325 . S
N649 C652 1.314 . S
N649 C653 1.279 . S
C650 C648 1.348 . S
C650 C652 1.353 . S
C650 H692 0.929 . S
C651 C648 1.356 . S
C651 C653 1.358 . S
C651 H693 0.930 . S
C652 N649 1.314 . S
C652 C650 1.353 . S
C652 H694 0.930 . S
C653 N649 1.279 . S
C653 C651 1.358 . S
C653 H695 0.930 . S
C654 C655 1.348 . S
C654 C656 1.356 . S
C654 O679 1.325 . S
C655 C654 1.348 . S
C655 C657 1.353 . S
C655 H696 0.929 . S
C656 C654 1.356 . S
C656 C658 1.358 . S
C656 H697 0.930 . S
C657 C655 1.353 . S
C657 N659 1.314 . S
C657 H698 0.930 . S
C658 C656 1.358 . S
C658 N659 1.279 . S
C658 H699 0.930 . S
N659 C657 1.314 . S
N659 C658 1.279 . S
C660 C662 1.353 . S
C660 N663 1.314 1_455 S
C660 H666 0.930 . S
C661 N663 1.279 . S
C661 C664 1.358 . S
C661 H667 0.930 . S
C662 C660 1.353 . S
C662 C665 1.360 . S
C662 H700 0.929 . S
N663 Li618 1.992 . S
N663 C660 1.314 1_655 S
N663 C661 1.279 . S
C664 C661 1.358 . S
C664 C665 1.341 1_655 S
C664 H701 0.930 . S
C665 C662 1.360 . S
C665 C664 1.341 1_455 S
H666 C660 0.930 . S
H667 C661 0.930 . S
C668 N669 1.314 1_655 S
C668 C670 1.353 . S
C668 H674 0.930 . S
N669 Li619 1.990 . S
N669 C668 1.314 1_455 S
N669 C672 1.279 . S
C670 C668 1.353 . S
C670 C673 1.333 1_655 S
C670 H702 0.929 . S
C671 C672 1.358 . S
C671 C673 1.374 . S
C671 H703 0.930 . S
C672 N669 1.279 . S
C672 C671 1.358 . S
C672 H675 0.930 . S
C673 C670 1.333 1_455 S
C673 C671 1.374 . S
H674 C668 0.930 . S
H675 C672 0.930 . S
O676 Li616 1.956 1_455 S
O676 Li617 1.970 . S
O676 Li618 1.960 1_455 S
O676 C620 1.326 . S
O677 Li616 1.982 . S
O677 Li617 1.943 1_655 S
O677 Li619 1.960 1_655 S
O677 C626 1.324 1_655 S
O678 Li616 1.961 . S
O678 Li618 1.974 . S
O678 Li619 1.970 1_655 S
O678 C648 1.325 . S
O679 Li617 1.961 . S
O679 Li618 1.951 1_455 S
O679 Li619 1.956 . S
O679 C654 1.325 . S
H680 C622 0.929 . S
H681 C623 0.930 . S
H682 C624 0.930 . S
H683 C625 0.930 . S
H684 C627 0.930 . S
H685 C629 0.929 . S
H686 C630 0.930 . S
H687 C631 0.930 . S
H688 C634 0.930 . S
H689 C637 0.929 . S
H690 C642 0.929 . S
H691 C643 0.930 . S
H692 C650 0.929 . S
H693 C651 0.930 . S
H694 C652 0.930 . S
H695 C653 0.930 . S
H696 C655 0.929 . S
H697 C656 0.930 . S
H698 C657 0.930 . S
H699 C658 0.930 . S
H700 C662 0.929 . S
H701 C664 0.930 . S
H702 C670 0.929 . S
H703 C671 0.930 . S
C704 C705 1.381 . S
C704 C710 1.379 1_554 S
C704 N712 1.356 . S
C705 C704 1.381 . S
C705 C711 1.346 1_545 S
C706 C707 1.363 1_565 S
C706 C711 1.379 1_556 S
C706 N713 1.356 . S
C707 C706 1.363 1_545 S
C707 C710 1.363 . S
N708 C710 1.356 . S
N708 H720 0.984 . S
N708 H721 0.985 . S
N709 C711 1.356 . S
N709 H714 0.984 . S
N709 H715 0.985 . S
C710 C704 1.379 1_556 S
C710 C707 1.363 . S
C710 N708 1.356 . S
C711 C705 1.346 1_565 S
C711 C706 1.379 1_554 S
C711 N709 1.356 . S
N712 C704 1.356 . S
N712 H718 0.984 . S
N712 H719 0.984 . S
N713 C706 1.356 . S
N713 H716 0.984 . S
N713 H717 0.985 . S
H714 N709 0.984 . S
H715 N709 0.985 . S
H716 N713 0.984 . S
H717 N713 0.985 . S
H718 N712 0.984 . S
H719 N712 0.984 . S
H720 N708 0.984 . S
H721 N708 0.985 . S
C722 C723 1.370 . S
C722 C728 1.379 . S
C722 N730 1.356 . S
C723 C722 1.370 . S
C723 C729 1.356 1_455 S
C724 C725 1.363 1_655 S
C724 C729 1.379 . S
C724 N731 1.356 . S
C725 C724 1.363 1_455 S
C725 C728 1.363 . S
N726 C728 1.356 . S
N726 H738 0.984 . S
N726 H739 0.985 . S
N727 C729 1.356 . S
N727 H732 0.984 . S
N727 H733 0.985 . S
C728 C722 1.379 . S
C728 C725 1.363 . S
C728 N726 1.356 . S
C729 C723 1.356 1_655 S
C729 C724 1.379 . S
C729 N727 1.356 . S
N730 C722 1.356 . S
N730 H736 0.984 . S
N730 H737 0.984 . S
N731 C724 1.356 . S
N731 H734 0.984 . S
N731 H735 0.985 . S
H732 N727 0.984 . S
H733 N727 0.985 . S
H734 N731 0.984 . S
H735 N731 0.985 . S
H736 N730 0.984 . S
H737 N730 0.984 . S
H738 N726 0.984 . S
H739 N726 0.985 . S
C740 C741 1.381 . S
C740 C746 1.379 1_556 S
C740 N748 1.356 . S
C741 C740 1.381 . S
C741 C747 1.346 1_545 S
C742 C743 1.363 1_565 S
C742 C747 1.379 1_554 S
C742 N749 1.356 . S
C743 C742 1.363 1_545 S
C743 C746 1.363 . S
N744 C746 1.356 . S
N744 H756 0.984 . S
N744 H757 0.985 . S
N745 C747 1.356 . S
N745 H750 0.984 . S
N745 H751 0.985 . S
C746 C740 1.379 1_554 S
C746 C743 1.363 . S
C746 N744 1.356 . S
C747 C741 1.346 1_565 S
C747 C742 1.379 1_556 S
C747 N745 1.356 . S
N748 C740 1.356 . S
N748 H754 0.984 . S
N748 H755 0.984 . S
N749 C742 1.356 . S
N749 H752 0.984 . S
N749 H753 0.985 . S
H750 N745 0.984 . S
H751 N745 0.985 . S
H752 N749 0.984 . S
H753 N749 0.985 . S
H754 N748 0.984 . S
H755 N748 0.984 . S
H756 N744 0.984 . S
H757 N744 0.985 . S
C758 C759 1.356 1_655 S
C758 C764 1.379 . S
C758 N766 1.356 . S
C759 C758 1.356 1_455 S
C759 C765 1.370 . S
C760 C761 1.363 . S
C760 C765 1.379 . S
C760 N767 1.356 . S
C761 C760 1.363 . S
C761 C764 1.363 1_455 S
N762 C764 1.356 . S
N762 H774 0.984 . S
N762 H775 0.985 . S
N763 C765 1.356 . S
N763 H768 0.984 . S
N763 H769 0.985 . S
C764 C758 1.379 . S
C764 C761 1.363 1_655 S
C764 N762 1.356 . S
C765 C759 1.370 . S
C765 C760 1.379 . S
C765 N763 1.356 . S
N766 C758 1.356 . S
N766 H772 0.984 . S
N766 H773 0.984 . S
N767 C760 1.356 . S
N767 H770 0.984 . S
N767 H771 0.985 . S
H768 N763 0.984 . S
H769 N763 0.985 . S
H770 N767 0.984 . S
H771 N767 0.985 . S
H772 N766 0.984 . S
H773 N766 0.984 . S
H774 N762 0.984 . S
H775 N762 0.985 . S
C776 C777 1.363 1_565 S
C776 C782 1.379 . S
C776 N784 1.356 . S
C777 C776 1.363 1_545 S
C777 C783 1.363 . S
C778 C779 1.363 . S
C778 C783 1.379 . S
C778 N785 1.356 . S
C779 C778 1.363 . S
C779 C782 1.363 1_545 S
N780 C782 1.356 . S
N780 H792 0.984 . S
N780 H793 0.985 . S
N781 C783 1.356 . S
N781 H786 0.984 . S
N781 H787 0.985 . S
C782 C776 1.379 . S
C782 C779 1.363 1_565 S
C782 N780 1.356 . S
C783 C777 1.363 . S
C783 C778 1.379 . S
C783 N781 1.356 . S
N784 C776 1.356 . S
N784 H790 0.984 . S
N784 H791 0.984 . S
N785 C778 1.356 . S
N785 H788 0.984 . S
N785 H789 0.985 . S
H786 N781 0.984 . S
H787 N781 0.985 . S
H788 N785 0.984 . S
H789 N785 0.985 . S
H790 N784 0.984 . S
H791 N784 0.984 . S
H792 N780 0.984 . S
H793 N780 0.985 . S
C794 C795 1.363 1_655 S
C794 C800 1.379 . S
C794 N802 1.356 . S
C795 C794 1.363 1_455 S
C795 C801 1.363 . S
C796 C797 1.378 . S
C796 C801 1.379 . S
C796 N803 1.356 . S
C797 C796 1.378 . S
C797 C800 1.348 1_455 S
N798 C800 1.356 . S
N798 H810 0.984 . S
N798 H811 0.985 . S
N799 C801 1.356 . S
N799 H804 0.984 . S
N799 H805 0.985 . S
C800 C794 1.379 . S
C800 C797 1.348 1_655 S
C800 N798 1.356 . S
C801 C795 1.363 . S
C801 C796 1.379 . S
C801 N799 1.356 . S
N802 C794 1.356 . S
N802 H808 0.984 . S
N802 H809 0.984 . S
N803 C796 1.356 . S
N803 H806 0.984 . S
N803 H807 0.985 . S
H804 N799 0.984 . S
H805 N799 0.985 . S
H806 N803 0.984 . S
H807 N803 0.985 . S
H808 N802 0.984 . S
H809 N802 0.984 . S
H810 N798 0.984 . S
H811 N798 0.985 . S
C812 C813 1.363 . S
C812 C818 1.379 . S
C812 N820 1.356 . S
C813 C812 1.363 . S
C813 C819 1.363 1_545 S
C814 C815 1.363 1_565 S
C814 C819 1.379 . S
C814 N821 1.356 . S
C815 C814 1.363 1_545 S
C815 C818 1.363 . S
N816 C818 1.356 . S
N816 H828 0.984 . S
N816 H829 0.985 . S
N817 C819 1.356 . S
N817 H822 0.984 . S
N817 H823 0.985 . S
C818 C812 1.379 . S
C818 C815 1.363 . S
C818 N816 1.356 . S
C819 C813 1.363 1_565 S
C819 C814 1.379 . S
C819 N817 1.356 . S
N820 C812 1.356 . S
N820 H826 0.984 . S
N820 H827 0.984 . S
N821 C814 1.356 . S
N821 H824 0.984 . S
N821 H825 0.985 . S
H822 N817 0.984 . S
H823 N817 0.985 . S
H824 N821 0.984 . S
H825 N821 0.985 . S
H826 N820 0.984 . S
H827 N820 0.984 . S
H828 N816 0.984 . S
H829 N816 0.985 . S
C830 C831 1.378 . S
C830 C836 1.379 . S
C830 N838 1.356 . S
C831 C830 1.378 . S
C831 C837 1.348 1_455 S
C832 C833 1.363 1_655 S
C832 C837 1.379 . S
C832 N839 1.356 . S
C833 C832 1.363 1_455 S
C833 C836 1.363 . S
N834 C836 1.356 . S
N834 H846 0.984 . S
N834 H847 0.985 . S
N835 C837 1.356 . S
N835 H840 0.984 . S
N835 H841 0.985 . S
C836 C830 1.379 . S
C836 C833 1.363 . S
C836 N834 1.356 . S
C837 C831 1.348 1_655 S
C837 C832 1.379 . S
C837 N835 1.356 . S
N838 C830 1.356 . S
N838 H844 0.984 . S
N838 H845 0.984 . S
N839 C832 1.356 . S
N839 H842 0.984 . S
N839 H843 0.985 . S
H840 N835 0.984 . S
H841 N835 0.985 . S
H842 N839 0.984 . S
H843 N839 0.985 . S
H844 N838 0.984 . S
H845 N838 0.984 . S
H846 N834 0.984 . S
H847 N834 0.985 . S
C848 C849 1.363 . S
C848 C854 1.379 . S
C848 N856 1.356 . S
C849 C848 1.363 . S
C849 C855 1.363 . S
C850 C851 1.363 . S
C850 C855 1.379 . S
C850 N857 1.356 . S
C851 C850 1.363 . S
C851 C854 1.363 . S
N852 C854 1.356 . S
N852 H864 0.984 . S
N852 H865 0.985 . S
N853 C855 1.356 . S
N853 H858 0.984 . S
N853 H859 0.985 . S
C854 C848 1.379 . S
C854 C851 1.363 . S
C854 N852 1.356 . S
C855 C849 1.363 . S
C855 C850 1.379 . S
C855 N853 1.356 . S
N856 C848 1.356 . S
N856 H862 0.984 . S
N856 H863 0.984 . S
N857 C850 1.356 . S
N857 H860 0.984 . S
N857 H861 0.985 . S
H858 N853 0.984 . S
H859 N853 0.985 . S
H860 N857 0.984 . S
H861 N857 0.985 . S
H862 N856 0.984 . S
H863 N856 0.984 . S
H864 N852 0.984 . S
H865 N852 0.985 . S
C866 C867 1.363 . S
C866 C872 1.379 . S
C866 N874 1.356 . S
C867 C866 1.363 . S
C867 C873 1.363 . S
C868 C869 1.363 . S
C868 C873 1.379 . S
C868 N875 1.356 . S
C869 C868 1.363 . S
C869 C872 1.363 . S
N870 C872 1.356 . S
N870 H882 0.984 . S
N870 H883 0.985 . S
N871 C873 1.356 . S
N871 H876 0.984 . S
N871 H877 0.985 . S
C872 C866 1.379 . S
C872 C869 1.363 . S
C872 N870 1.356 . S
C873 C867 1.363 . S
C873 C868 1.379 . S
C873 N871 1.356 . S
N874 C866 1.356 . S
N874 H880 0.984 . S
N874 H881 0.984 . S
N875 C868 1.356 . S
N875 H878 0.984 . S
N875 H879 0.985 . S
H876 N871 0.984 . S
H877 N871 0.985 . S
H878 N875 0.984 . S
H879 N875 0.985 . S
H880 N874 0.984 . S
H881 N874 0.984 . S
H882 N870 0.984 . S
H883 N870 0.985 . S
C884 C885 1.363 . S
C884 C890 1.379 . S
C884 N892 1.356 . S
C885 C884 1.363 . S
C885 C891 1.363 . S
C886 C887 1.363 . S
C886 C891 1.379 . S
C886 N893 1.356 . S
C887 C886 1.363 . S
C887 C890 1.363 . S
N888 C890 1.356 . S
N888 H900 0.984 . S
N888 H901 0.985 . S
N889 C891 1.356 . S
N889 H894 0.984 . S
N889 H895 0.985 . S
C890 C884 1.379 . S
C890 C887 1.363 . S
C890 N888 1.356 . S
C891 C885 1.363 . S
C891 C886 1.379 . S
C891 N889 1.356 . S
N892 C884 1.356 . S
N892 H898 0.984 . S
N892 H899 0.984 . S
N893 C886 1.356 . S
N893 H896 0.984 . S
N893 H897 0.985 . S
H894 N889 0.984 . S
H895 N889 0.985 . S
H896 N893 0.984 . S
H897 N893 0.985 . S
H898 N892 0.984 . S
H899 N892 0.984 . S
H900 N888 0.984 . S
H901 N888 0.985 . S
C902 C903 1.363 . S
C902 C908 1.379 . S
C902 N910 1.356 . S
C903 C902 1.363 . S
C903 C909 1.363 . S
C904 C905 1.363 . S
C904 C909 1.379 . S
C904 N911 1.356 . S
C905 C904 1.363 . S
C905 C908 1.363 . S
N906 C908 1.356 . S
N906 H918 0.984 . S
N906 H919 0.985 . S
N907 C909 1.356 . S
N907 H912 0.984 . S
N907 H913 0.985 . S
C908 C902 1.379 . S
C908 C905 1.363 . S
C908 N906 1.356 . S
C909 C903 1.363 . S
C909 C904 1.379 . S
C909 N907 1.356 . S
N910 C902 1.356 . S
N910 H916 0.984 . S
N910 H917 0.984 . S
N911 C904 1.356 . S
N911 H914 0.984 . S
N911 H915 0.985 . S
H912 N907 0.984 . S
H913 N907 0.985 . S
H914 N911 0.984 . S
H915 N911 0.985 . S
H916 N910 0.984 . S
H917 N910 0.984 . S
H918 N906 0.984 . S
H919 N906 0.985 . S
C920 C921 1.363 . S
C920 C926 1.379 . S
C920 N928 1.356 . S
C921 C920 1.363 . S
C921 C927 1.363 . S
C922 C923 1.363 . S
C922 C927 1.379 . S
C922 N929 1.356 . S
C923 C922 1.363 . S
C923 C926 1.363 . S
N924 C926 1.356 . S
N924 H936 0.984 . S
N924 H937 0.985 . S
N925 C927 1.356 . S
N925 H930 0.984 . S
N925 H931 0.985 . S
C926 C920 1.379 . S
C926 C923 1.363 . S
C926 N924 1.356 . S
C927 C921 1.363 . S
C927 C922 1.379 . S
C927 N925 1.356 . S
N928 C920 1.356 . S
N928 H934 0.984 . S
N928 H935 0.984 . S
N929 C922 1.356 . S
N929 H932 0.984 . S
N929 H933 0.985 . S
H930 N925 0.984 . S
H931 N925 0.985 . S
H932 N929 0.984 . S
H933 N929 0.985 . S
H934 N928 0.984 . S
H935 N928 0.984 . S
H936 N924 0.984 . S
H937 N924 0.985 . S
C938 C939 1.363 . S
C938 C944 1.379 . S
C938 N946 1.356 . S
C939 C938 1.363 . S
C939 C945 1.363 . S
C940 C941 1.363 . S
C940 C945 1.379 . S
C940 N947 1.356 . S
C941 C940 1.363 . S
C941 C944 1.363 . S
N942 C944 1.356 . S
N942 H954 0.984 . S
N942 H955 0.985 . S
N943 C945 1.356 . S
N943 H948 0.984 . S
N943 H949 0.985 . S
C944 C938 1.379 . S
C944 C941 1.363 . S
C944 N942 1.356 . S
C945 C939 1.363 . S
C945 C940 1.379 . S
C945 N943 1.356 . S
N946 C938 1.356 . S
N946 H952 0.984 . S
N946 H953 0.984 . S
N947 C940 1.356 . S
N947 H950 0.984 . S
N947 H951 0.985 . S
H948 N943 0.984 . S
H949 N943 0.985 . S
H950 N947 0.984 . S
H951 N947 0.985 . S
H952 N946 0.984 . S
H953 N946 0.984 . S
H954 N942 0.984 . S
H955 N942 0.985 . S
C956 C957 1.363 . S
C956 C962 1.379 . S
C956 N964 1.356 . S
C957 C956 1.363 . S
C957 C963 1.363 . S
C958 C959 1.363 . S
C958 C963 1.379 . S
C958 N965 1.356 . S
C959 C958 1.363 . S
C959 C962 1.363 . S
N960 C962 1.356 . S
N960 H972 0.984 . S
N960 H973 0.985 . S
N961 C963 1.356 . S
N961 H966 0.984 . S
N961 H967 0.985 . S
C962 C956 1.379 . S
C962 C959 1.363 . S
C962 N960 1.356 . S
C963 C957 1.363 . S
C963 C958 1.379 . S
C963 N961 1.356 . S
N964 C956 1.356 . S
N964 H970 0.984 . S
N964 H971 0.984 . S
N965 C958 1.356 . S
N965 H968 0.984 . S
N965 H969 0.985 . S
H966 N961 0.984 . S
H967 N961 0.985 . S
H968 N965 0.984 . S
H969 N965 0.985 . S
H970 N964 0.984 . S
H971 N964 0.984 . S
H972 N960 0.984 . S
H973 N960 0.985 . S
C974 C975 1.363 . S
C974 C980 1.379 . S
C974 N982 1.356 . S
C975 C974 1.363 . S
C975 C981 1.363 . S
C976 C977 1.363 . S
C976 C981 1.379 . S
C976 N983 1.356 . S
C977 C976 1.363 . S
C977 C980 1.363 . S
N978 C980 1.356 . S
N978 H990 0.984 . S
N978 H991 0.985 . S
N979 C981 1.356 . S
N979 H984 0.984 . S
N979 H985 0.985 . S
C980 C974 1.379 . S
C980 C977 1.363 . S
C980 N978 1.356 . S
C981 C975 1.363 . S
C981 C976 1.379 . S
C981 N979 1.356 . S
N982 C974 1.356 . S
N982 H988 0.984 . S
N982 H989 0.984 . S
N983 C976 1.356 . S
N983 H986 0.984 . S
N983 H987 0.985 . S
H984 N979 0.984 . S
H985 N979 0.985 . S
H986 N983 0.984 . S
H987 N983 0.985 . S
H988 N982 0.984 . S
H989 N982 0.984 . S
H990 N978 0.984 . S
H991 N978 0.985 . S
C705 C49 1.583 . S
C707 C381 1.583 . S
C723 C108 1.581 . S
C725 C469 1.581 . S
C741 C548 1.583 . S
C743 C233 1.583 . S
C759 C673 1.581 . S
C761 C313 1.581 . S
C777 C29 0.930 . S
C779 C196 0.928 . S
C795 C117 0.932 . S
C797 C321 0.932 . S
C813 C585 0.930 . S
C815 C401 0.928 . S
C831 C460 0.932 . S
C833 C665 0.932 . S
C849 C489 1.393 . S
C851 C20 1.383 . S
C867 C145 1.393 . S
C869 C577 1.383 . S
C885 C636 1.393 . S
C887 C205 1.383 . S
C903 C293 1.393 . S
C905 C409 1.383 . S
C921 C557 1.392 . S
C923 C284 1.381 . S
C939 C57 1.392 . S
C941 C645 1.381 . S
C957 C137 1.381 . S
C959 C372 1.392 . S
C975 C497 1.381 . S
C977 C225 1.392 . S
