# Generated by pormake.
# Topology vby, (6)-cn, num edge types: 1
# Building blocks:
#     Node 0, Type 0, BuildingBlock: JUFBIX_clean_sbu_0, # of connection points: 6
#     Node 1, Type 0, BuildingBlock: JUFBIX_clean_sbu_0, # of connection points: 6
#     Node 2, Type 0, BuildingBlock: JUFBIX_clean_sbu_0, # of connection points: 6
#     Node 3, Type 0, BuildingBlock: JUFBIX_clean_sbu_0, # of connection points: 6
#     Node 4, Type 0, BuildingBlock: JUFBIX_clean_sbu_0, # of connection points: 6
#     Node 5, Type 0, BuildingBlock: JUFBIX_clean_sbu_0, # of connection points: 6
#     Node 6, Type 0, BuildingBlock: JUFBIX_clean_sbu_0, # of connection points: 6
#     Node 7, Type 0, BuildingBlock: JUFBIX_clean_sbu_0, # of connection points: 6
#     Edge 8, Type (0, 0), BuildingBlock: CIFDUS_clean_linker_0, # of connection points: 2
#     Edge 9, Type (0, 0), BuildingBlock: CIFDUS_clean_linker_0, # of connection points: 2
#     Edge 10, Type (0, 0), BuildingBlock: CIFDUS_clean_linker_0, # of connection points: 2
#     Edge 11, Type (0, 0), BuildingBlock: CIFDUS_clean_linker_0, # of connection points: 2
#     Edge 12, Type (0, 0), BuildingBlock: CIFDUS_clean_linker_0, # of connection points: 2
#     Edge 13, Type (0, 0), BuildingBlock: CIFDUS_clean_linker_0, # of connection points: 2
#     Edge 14, Type (0, 0), BuildingBlock: CIFDUS_clean_linker_0, # of connection points: 2
#     Edge 15, Type (0, 0), BuildingBlock: CIFDUS_clean_linker_0, # of connection points: 2
#     Edge 16, Type (0, 0), BuildingBlock: CIFDUS_clean_linker_0, # of connection points: 2
#     Edge 17, Type (0, 0), BuildingBlock: CIFDUS_clean_linker_0, # of connection points: 2
#     Edge 18, Type (0, 0), BuildingBlock: CIFDUS_clean_linker_0, # of connection points: 2
#     Edge 19, Type (0, 0), BuildingBlock: CIFDUS_clean_linker_0, # of connection points: 2
#     Edge 20, Type (0, 0), BuildingBlock: CIFDUS_clean_linker_0, # of connection points: 2
#     Edge 21, Type (0, 0), BuildingBlock: CIFDUS_clean_linker_0, # of connection points: 2
#     Edge 22, Type (0, 0), BuildingBlock: CIFDUS_clean_linker_0, # of connection points: 2
#     Edge 23, Type (0, 0), BuildingBlock: CIFDUS_clean_linker_0, # of connection points: 2
#     Edge 24, Type (0, 0), BuildingBlock: CIFDUS_clean_linker_0, # of connection points: 2
#     Edge 25, Type (0, 0), BuildingBlock: CIFDUS_clean_linker_0, # of connection points: 2
#     Edge 26, Type (0, 0), BuildingBlock: CIFDUS_clean_linker_0, # of connection points: 2
#     Edge 27, Type (0, 0), BuildingBlock: CIFDUS_clean_linker_0, # of connection points: 2
#     Edge 28, Type (0, 0), BuildingBlock: CIFDUS_clean_linker_0, # of connection points: 2
#     Edge 29, Type (0, 0), BuildingBlock: CIFDUS_clean_linker_0, # of connection points: 2
#     Edge 30, Type (0, 0), BuildingBlock: CIFDUS_clean_linker_0, # of connection points: 2
#     Edge 31, Type (0, 0), BuildingBlock: CIFDUS_clean_linker_0, # of connection points: 2
# Relax obj value: 0.168
# Max RMSD: 0.165
# Mean RMSD: 0.165
data_MOF--net-vby--node1-JUFBIX_clean_sbu_0--edge1-CIFDUS_clean_linker_0
_symmetry_space_group_name_H-M    P1
_symmetry_Int_Tables_number       1
_symmetry_cell_setting            triclinic
loop_
_symmetry_equiv_pos_as_xyz
'x, y, z'
_cell_length_a     17.506108
_cell_length_b     48.142221
_cell_length_c     25.486374
_cell_angle_alpha  90.454722
_cell_angle_beta   94.57413
_cell_angle_gamma 89.966626
loop_
_atom_site_label
_atom_site_type_symbol
_atom_site_fract_x
_atom_site_fract_y
_atom_site_fract_z
_atom_type_partial_charge
Co0 Co 0.03034 0.36978 0.03247 0.0
C1 C 0.09036 0.37936 0.93694 0.0
Co2 Co 0.15034 0.38513 0.04036 0.0
C3 C 0.86416 0.36667 0.03804 0.0
C4 C 0.90925 0.33271 0.99553 0.0
N5 N 0.93049 0.35594 0.02281 0.0
N6 N 0.80258 0.35097 0.0214 0.0
C7 C 0.83115 0.32957 0.99475 0.0
H8 H 0.86115 0.38567 0.06076 0.0
H9 H 0.9479 0.31919 0.97627 0.0
C10 C 0.0827 0.37649 0.13556 0.0
N11 N 0.25034 0.39893 0.05003 0.0
C12 C 0.31636 0.38845 0.03376 0.0
C13 C 0.27223 0.42154 0.07903 0.0
N14 N 0.37827 0.40371 0.05139 0.0
C15 C 0.35034 0.42459 0.07972 0.0
C16 C 0.04225 0.42721 0.03498 0.0
O17 O 0.02576 0.36894 0.10499 0.0
O18 O 0.14452 0.38392 0.11611 0.0
O19 O 0.11275 0.42117 0.03941 0.0
O20 O 0.99284 0.40766 0.0315 0.0
O21 O 0.15202 0.38625 0.96422 0.0
H22 H 0.23401 0.43464 0.09958 0.0
H23 H 0.31901 0.36988 1.00977 0.0
O24 O 0.03346 0.37101 0.96011 0.0
O25 O 0.07221 0.33212 0.03336 0.0
O26 O 0.18849 0.34923 0.04098 0.0
C27 C 0.14469 0.32833 0.03705 0.0
H28 H 0.79777 0.31322 0.97459 0.0
H29 H 0.38424 0.44044 0.10102 0.0
Co30 Co 0.89811 0.63442 0.01743 0.0
C31 C 0.96208 0.64289 0.9217 0.0
Co32 Co 1.016 0.65005 0.02499 0.0
C33 C 0.73863 0.63232 0.03272 0.0
C34 C 0.76989 0.60119 0.97793 0.0
N35 N 0.79909 0.62155 1.01019 0.0
N36 N 0.67249 0.61986 1.01523 0.0
C37 C 0.69181 0.60015 0.98084 0.0
H38 H 0.74262 0.64999 0.05932 0.0
H39 H 0.8029 0.58859 0.95264 0.0
C40 C 0.95993 0.64063 0.12104 0.0
N41 N 0.11487 0.66295 0.03215 0.0
C42 C 0.17549 0.65186 1.0103 0.0
C43 C 0.14367 0.68396 0.06295 0.0
N44 N 0.24131 0.66483 0.0267 0.0
C45 C 0.22172 0.6851 0.05985 0.0
C46 C 0.90477 0.69169 0.0209 0.0
O47 O 0.89845 0.63351 0.09393 0.0
O48 O 1.01619 0.64912 0.09755 0.0
O49 O 0.97715 0.68796 0.02462 0.0
O50 O 0.86136 0.67071 0.01692 0.0
O51 O 1.01852 0.65074 0.95223 0.0
H52 H 0.11039 0.69701 0.08729 0.0
H53 H 0.17183 0.63378 0.9847 0.0
O54 O 0.90075 0.63524 0.94133 0.0
O55 O 0.93259 0.59819 0.01797 0.0
O56 O 0.05213 0.61177 0.02569 0.0
C57 C 1.00295 0.59216 0.02223 0.0
H58 H 0.65225 0.58643 0.95852 0.0
H59 H 0.26108 0.69934 0.08103 0.0
Co60 Co 0.15114 0.63462 0.53141 0.0
C61 C 0.08605 0.64383 0.62699 0.0
Co62 Co 0.03435 0.6505 0.52375 0.0
C63 C 0.30929 0.6341 0.51815 0.0
C64 C 0.28051 0.60291 0.57264 0.0
N65 N 0.24975 0.62236 0.53954 0.0
N66 N 0.37646 0.62346 0.53766 0.0
C67 C 0.35891 0.60354 0.57154 0.0
H68 H 0.30352 0.65106 0.4905 0.0
H69 H 0.24836 0.59025 0.59801 0.0
C70 C 0.0915 0.64029 0.42779 0.0
N71 N 0.93588 0.66279 0.51533 0.0
C72 C 0.8756 0.65024 0.53427 0.0
C73 C 0.90606 0.68302 0.48364 0.0
N74 N 0.80888 0.66116 0.51455 0.0
C75 C 0.82748 0.68206 0.48308 0.0
C76 C 0.14369 0.69221 0.52845 0.0
O77 O 0.1527 0.63326 0.45499 0.0
O78 O 0.03522 0.64891 0.45127 0.0
O79 O 0.07141 0.68851 0.52415 0.0
O80 O 0.18683 0.6712 0.53264 0.0
O81 O 0.03016 0.65192 0.59647 0.0
H82 H 0.93903 0.69642 0.46013 0.0
H83 H 0.88065 0.63265 0.56049 0.0
O84 O 0.14715 0.63579 0.60737 0.0
O85 O 0.11845 0.59826 0.5304 0.0
O86 O 0.99928 0.61198 0.52315 0.0
C87 C 0.04812 0.5923 0.52661 0.0
H88 H 0.39981 0.59161 0.59623 0.0
H89 H 0.78732 0.69455 0.45891 0.0
Co90 Co 1.01731 0.36998 0.53426 0.0
C91 C 0.95846 0.38021 0.63032 0.0
Co92 Co 0.89741 0.38549 0.52723 0.0
C93 C 0.18356 0.36682 0.52858 0.0
C94 C 0.1384 0.33289 0.57011 0.0
N95 N 0.11717 0.35607 0.54338 0.0
N96 N 0.24515 0.35118 0.54495 0.0
C97 C 0.21653 0.32979 0.57097 0.0
H98 H 0.18664 0.38582 0.50644 0.0
H99 H 0.09975 0.3194 0.58904 0.0
C100 C 0.9639 0.37616 0.43152 0.0
N101 N 0.79741 0.39936 0.51822 0.0
C102 C 0.73147 0.38891 0.53441 0.0
C103 C 0.77539 0.42193 0.48984 0.0
N104 N 0.66949 0.40415 0.5173 0.0
C105 C 0.69729 0.42499 0.48942 0.0
C106 C 1.00589 0.42741 0.53159 0.0
O107 O 1.02088 0.36851 0.46172 0.0
O108 O 0.90249 0.38391 0.45137 0.0
O109 O 0.93531 0.42149 0.52831 0.0
O110 O 0.05506 0.40779 0.53471 0.0
O111 O 0.89651 0.38696 0.60342 0.0
H112 H 0.81347 0.43498 0.46945 0.0
H113 H 0.72891 0.37036 0.55792 0.0
O114 O 1.01516 0.37183 0.60673 0.0
O115 O 0.9751 0.33237 0.53362 0.0
O116 O 0.859 0.34963 0.52635 0.0
C117 C 0.90258 0.32869 0.53003 0.0
H118 H 0.24989 0.31349 0.59083 0.0
H119 H 0.6633 0.4408 0.46855 0.0
Co120 Co 0.53125 0.86983 0.02473 0.0
C121 C 0.59153 0.87961 0.92928 0.0
Co122 Co 0.65122 0.88521 0.03284 0.0
C123 C 0.36502 0.86672 0.03007 0.0
C124 C 0.41012 0.8329 0.98717 0.0
N125 N 0.43137 0.85602 1.0148 0.0
N126 N 0.30341 0.8511 1.01314 0.0
C127 C 0.33199 0.82979 0.98624 0.0
H128 H 0.36202 0.88564 0.05304 0.0
H129 H 0.44879 0.81945 0.96778 0.0
C130 C 0.58307 0.87641 0.12792 0.0
N131 N 0.75124 0.89899 0.04272 0.0
C132 C 0.81723 0.88857 0.02627 0.0
C133 C 0.7732 0.9215 0.07198 0.0
N134 N 0.87919 0.90376 0.04405 0.0
C135 C 0.85133 0.92455 0.07265 0.0
C136 C 0.54319 0.92727 0.02803 0.0
O137 O 0.52646 0.86874 0.09718 0.0
O138 O 0.64497 0.88394 0.10866 0.0
O139 O 0.61369 0.92123 0.03203 0.0
O140 O 0.49377 0.90772 0.02435 0.0
O141 O 0.6532 0.8864 0.95666 0.0
H142 H 0.73502 0.93454 0.09269 0.0
H143 H 0.81981 0.87008 1.00203 0.0
O144 O 0.5345 0.87131 0.95237 0.0
O145 O 0.57324 0.83213 0.02519 0.0
O146 O 0.6894 0.84934 0.0334 0.0
C147 C 0.64577 0.82841 0.02911 0.0
H148 H 0.2986 0.81352 0.96581 0.0
H149 H 0.88527 0.94033 0.09411 0.0
Co150 Co 0.3961 0.13446 0.02309 0.0
C151 C 0.46318 0.1434 0.92773 0.0
Co152 Co 0.51611 0.1498 0.03073 0.0
C153 C 0.23012 0.13107 0.02994 0.0
C154 C 0.27418 0.09803 0.98452 0.0
N155 N 0.29611 0.12063 1.01354 0.0
N156 N 0.16821 0.11581 1.01235 0.0
C157 C 0.19609 0.09495 0.98394 0.0
H158 H 0.22749 0.14964 0.05396 0.0
H159 H 0.31234 0.08496 0.96385 0.0
C160 C 0.4567 0.13998 0.12641 0.0
N161 N 0.61596 0.16366 0.04031 0.0
C162 C 0.68231 0.15292 0.02511 0.0
C163 C 0.63719 0.18686 0.06767 0.0
N164 N 0.74388 0.16861 0.04184 0.0
C165 C 0.7153 0.18999 0.06852 0.0
C166 C 0.40166 0.19124 0.02701 0.0
O167 O 0.39481 0.1332 0.09926 0.0
O168 O 0.51353 0.14825 0.10309 0.0
O169 O 0.47415 0.18745 0.03058 0.0
O170 O 0.35786 0.17034 0.02285 0.0
O171 O 0.52016 0.15097 0.95823 0.0
H172 H 0.59855 0.20036 0.08699 0.0
H173 H 0.68535 0.13393 1.00238 0.0
O174 O 0.40154 0.13583 0.94727 0.0
O175 O 0.43375 0.09844 0.02359 0.0
O176 O 0.55367 0.11193 0.0308 0.0
C177 C 0.50423 0.09239 0.02725 0.0
H178 H 0.16216 0.07911 0.96263 0.0
H179 H 0.74867 0.20632 0.08876 0.0
Co180 Co 0.64941 0.13512 0.5362 0.0
C181 C 0.58224 0.14386 0.63182 0.0
Co182 Co 0.52946 0.15053 0.52903 0.0
C183 C 0.81538 0.13178 0.52923 0.0
C184 C 0.77136 0.09864 0.57344 0.0
N185 N 0.74941 0.12128 0.54525 0.0
N186 N 0.87731 0.11649 0.54625 0.0
C187 C 0.84946 0.09558 0.5739 0.0
H188 H 0.81799 0.15038 0.50588 0.0
H189 H 0.73321 0.08552 0.59363 0.0
C190 C 0.58895 0.14083 0.43304 0.0
N191 N 0.42962 0.16442 0.51994 0.0
C192 C 0.36324 0.15364 0.53469 0.0
C193 C 0.40843 0.18769 0.49349 0.0
N194 N 0.30169 0.16937 0.51856 0.0
C195 C 0.33033 0.19083 0.49274 0.0
C196 C 0.64403 0.19192 0.53452 0.0
O197 O 0.65074 0.13398 0.46001 0.0
O198 O 0.53216 0.14917 0.45659 0.0
O199 O 0.57152 0.18819 0.53074 0.0
O200 O 0.68769 0.17099 0.5378 0.0
O201 O 0.5253 0.1515 0.60158 0.0
H202 H 0.44711 0.20124 0.47473 0.0
H203 H 0.36016 0.13459 0.55667 0.0
O204 O 0.6439 0.13635 0.61203 0.0
O205 O 0.61174 0.09913 0.53435 0.0
O206 O 0.49185 0.11266 0.5274 0.0
C207 C 0.54124 0.0931 0.53028 0.0
H208 H 0.8834 0.07971 0.59462 0.0
H209 H 0.29698 0.20721 0.47313 0.0
Co210 Co 0.51503 0.87014 0.52603 0.0
C211 C 0.45969 0.88003 0.62251 0.0
Co212 Co 0.39715 0.88579 0.5192 0.0
C213 C 0.67454 0.86822 0.51113 0.0
C214 C 0.64272 0.83634 0.56327 0.0
N215 N 0.6139 0.85722 0.53276 0.0
N216 N 0.74038 0.85534 0.52741 0.0
C217 C 0.72078 0.8352 0.56022 0.0
H218 H 0.67088 0.88622 0.48584 0.0
H219 H 0.60946 0.8234 0.58744 0.0
C220 C 0.46042 0.87683 0.42305 0.0
N221 N 0.29814 0.89869 0.51242 0.0
C222 C 0.23767 0.88798 0.53474 0.0
C223 C 0.26895 0.91899 0.48064 0.0
N224 N 0.17155 0.90043 0.51755 0.0
C225 C 0.19089 0.92006 0.48361 0.0
C226 C 0.50202 0.92801 0.52374 0.0
O227 O 0.51693 0.86894 0.45324 0.0
O228 O 0.39939 0.8847 0.44305 0.0
O229 O 0.43167 0.92198 0.5202 0.0
O230 O 0.55121 0.90841 0.52666 0.0
O231 O 0.39794 0.88696 0.59574 0.0
H232 H 0.30195 0.93151 0.4556 0.0
H233 H 0.24163 0.87036 0.56092 0.0
O234 O 0.51586 0.87155 0.59864 0.0
O235 O 0.47609 0.83223 0.52562 0.0
O236 O 0.36036 0.84953 0.51817 0.0
C237 C 0.40369 0.82854 0.52192 0.0
H238 H 0.76014 0.82107 0.58125 0.0
H239 H 0.15134 0.93374 0.46159 0.0
H240 H 0.44616 0.35377 0.04007 0.0
H241 H 0.49094 0.44183 0.04775 0.0
H242 H 0.62724 0.43333 0.04083 0.0
H243 H 0.73423 0.40088 0.03218 0.0
H244 H 0.6897 0.31278 0.02504 0.0
H245 H 0.55337 0.32127 0.03162 0.0
C246 C 0.48561 0.37109 0.03963 0.0
C247 C 0.45814 0.39841 0.04448 0.0
C248 C 0.56428 0.36604 0.03585 0.0
C249 C 0.51049 0.42059 0.04466 0.0
C250 C 0.58853 0.41575 0.04056 0.0
C251 C 0.69489 0.38353 0.03265 0.0
C252 C 0.72252 0.35623 0.02797 0.0
C253 C 0.61624 0.38856 0.03643 0.0
C254 C 0.67017 0.33402 0.02789 0.0
C255 C 0.59205 0.33885 0.03183 0.0
H256 H 0.36847 0.66793 0.09257 0.0
H257 H 0.28346 0.64216 0.93634 0.0
H258 H 0.41046 0.62481 0.91933 0.0
H259 H 0.54535 0.61717 0.94904 0.0
H260 H 0.63018 0.64268 0.10553 0.0
H261 H 0.50343 0.66027 0.1223 0.0
C262 C 0.37811 0.65887 0.0546 0.0
C263 C 0.31702 0.65636 1.01571 0.0
C264 C 0.45092 0.64882 0.04532 0.0
C265 C 0.32973 0.64409 0.96697 0.0
C266 C 0.40219 0.63422 0.95724 0.0
C267 C 0.53579 0.6262 0.98704 0.0
C268 C 0.59683 0.62856 0.02605 0.0
C269 C 0.46302 0.63631 0.99628 0.0
C270 C 0.58407 0.64085 0.07477 0.0
C271 C 0.51171 0.65086 0.08439 0.0
H272 H 0.67692 0.68943 0.50847 0.0
H273 H 0.77324 0.60753 0.53215 0.0
H274 H 0.64648 0.58849 0.54151 0.0
H275 H 0.50796 0.59503 0.54218 0.0
H276 H 0.41161 0.67681 0.51765 0.0
H277 H 0.53825 0.69586 0.50789 0.0
C278 C 0.66991 0.66742 0.51532 0.0
C279 C 0.73416 0.65004 0.52016 0.0
C280 C 0.59686 0.65652 0.51997 0.0
C281 C 0.72474 0.62152 0.52949 0.0
C282 C 0.65223 0.61052 0.53436 0.0
C283 C 0.515 0.617 0.53489 0.0
C284 C 0.45083 0.63441 0.53039 0.0
C285 C 0.58797 0.62785 0.52975 0.0
C286 C 0.46012 0.66285 0.52036 0.0
C287 C 0.53256 0.67383 0.5152 0.0
H288 H 0.60178 0.35418 0.52729 0.0
H289 H 0.55667 0.44222 0.52203 0.0
H290 H 0.42036 0.43364 0.5285 0.0
H291 H 0.31338 0.40113 0.53588 0.0
H292 H 0.35828 0.31306 0.5406 0.0
H293 H 0.49466 0.32163 0.53465 0.0
C294 C 0.56226 0.37149 0.52817 0.0
C295 C 0.58964 0.39881 0.52409 0.0
C296 C 0.48358 0.36639 0.53166 0.0
C297 C 0.5372 0.42097 0.5245 0.0
C298 C 0.45914 0.41609 0.52834 0.0
C299 C 0.35282 0.38381 0.53503 0.0
C300 C 0.32527 0.35649 0.53881 0.0
C301 C 0.43151 0.38888 0.53162 0.0
C302 C 0.37774 0.33432 0.53842 0.0
C303 C 0.45589 0.33919 0.53484 0.0
H304 H 0.94696 0.85386 0.03185 0.0
H305 H 0.99197 0.94189 0.04092 0.0
H306 H 0.12823 0.9334 0.0338 0.0
H307 H 0.23516 0.90098 0.02464 0.0
H308 H 0.19038 0.81291 1.01608 0.0
H309 H 0.05408 0.82139 0.0228 0.0
C310 C 0.98645 0.87118 0.03167 0.0
C311 C 0.95905 0.89848 0.03699 0.0
C312 C 0.0651 0.86614 0.02776 0.0
C313 C 1.01145 0.92066 0.03748 0.0
C314 C 0.08948 0.91583 0.03326 0.0
C315 C 0.19577 0.88363 0.02482 0.0
C316 C 0.22333 0.85635 0.01971 0.0
C317 C 0.11712 0.88866 0.02869 0.0
C318 C 0.17091 0.83415 0.01926 0.0
C319 C 0.09281 0.83897 0.02329 0.0
H320 H 0.10035 0.16575 0.02358 0.0
H321 H 0.05556 0.07769 1.01613 0.0
H322 H 0.91924 0.08621 0.02293 0.0
H323 H 0.8122 0.11868 0.03131 0.0
H324 H 0.85678 0.20678 0.03823 0.0
H325 H 0.99315 0.19827 0.03184 0.0
C326 C 0.06089 0.14843 0.02405 0.0
C327 C 0.08835 0.12111 0.01928 0.0
C328 C 0.98222 0.15349 0.02774 0.0
C329 C 0.03601 0.09893 0.01915 0.0
C330 C 0.95795 0.10378 0.02317 0.0
C331 C 0.85157 0.13602 0.03084 0.0
C332 C 0.82395 0.16333 0.03539 0.0
C333 C 0.93024 0.13098 0.02718 0.0
C334 C 0.87631 0.18553 0.03547 0.0
C335 C 0.95445 0.18069 0.03165 0.0
H336 H 0.23329 0.11943 0.52723 0.0
H337 H 0.1888 0.20753 0.52356 0.0
H338 H 0.05243 0.19901 0.52967 0.0
H339 H 0.94519 0.16647 0.5368 0.0
H340 H 0.98994 0.0784 0.54102 0.0
H341 H 0.12625 0.08694 0.53446 0.0
C342 C 0.19395 0.13676 0.52835 0.0
C343 C 0.2216 0.16408 0.5248 0.0
C344 C 0.11527 0.13171 0.53185 0.0
C345 C 0.16925 0.18628 0.52554 0.0
C346 C 0.09111 0.18143 0.52921 0.0
C347 C 0.98464 0.14915 0.53568 0.0
C348 C 0.95717 0.12182 0.53947 0.0
C349 C 0.06332 0.15422 0.53213 0.0
C350 C 1.00949 0.09965 0.53876 0.0
C351 C 0.08755 0.10451 0.53487 0.0
H352 H 0.86735 0.85249 0.59345 0.0
H353 H 0.78279 0.87781 0.43761 0.0
H354 H 0.90981 0.89516 0.42118 0.0
H355 H 0.04458 0.90292 0.45126 0.0
H356 H 0.12902 0.87783 0.6073 0.0
H357 H 1.00222 0.86026 0.62353 0.0
C358 C 0.87709 0.86144 0.55567 0.0
C359 C 0.81612 0.86383 0.51673 0.0
C360 C 0.94991 0.8715 0.54673 0.0
C361 C 0.82896 0.87597 0.46827 0.0
C362 C 0.90143 0.88585 0.45887 0.0
C363 C 0.03493 0.89399 0.48906 0.0
C364 C 0.09586 0.89175 0.5281 0.0
C365 C 0.96215 0.88389 0.49797 0.0
C366 C 0.08299 0.87958 0.57654 0.0
C367 C 1.0106 0.86958 0.58584 0.0
H368 H 0.90633 0.54826 0.01725 0.0
H369 H 0.14715 0.56916 0.03272 0.0
H370 H 0.17942 0.51967 0.03864 0.0
H371 H 0.13897 0.47111 0.03975 0.0
H372 H 0.89812 0.45023 0.02438 0.0
H373 H 0.86588 0.49971 0.01838 0.0
C374 C 0.9661 0.54212 0.02184 0.0
C375 C 0.02446 0.56245 0.02454 0.0
C376 C 0.98395 0.51382 0.02543 0.0
C377 C 0.10131 0.55398 0.03049 0.0
C378 C 0.11964 0.52573 0.03395 0.0
C379 C 0.0792 0.47725 0.03518 0.0
C380 C 1.02082 0.45693 0.03255 0.0
C381 C 0.06136 0.50555 0.03159 0.0
C382 C 0.94397 0.4654 0.02657 0.0
C383 C 0.92566 0.49365 0.02307 0.0
H384 H 0.90989 0.47151 0.52531 0.0
H385 H 0.1504 0.45012 0.53744 0.0
H386 H 0.18355 0.49955 0.5368 0.0
H387 H 0.14402 0.54822 0.5328 0.0
H388 H 0.90352 0.56964 0.52057 0.0
H389 H 0.87033 0.52019 0.52117 0.0
C390 C 0.96977 0.47753 0.52782 0.0
C391 C 0.02779 0.45708 0.53144 0.0
C392 C 0.98814 0.50581 0.52736 0.0
C393 C 0.10481 0.46538 0.53466 0.0
C394 C 0.12365 0.49361 0.53427 0.0
C395 C 0.08412 0.5422 0.53022 0.0
C396 C 0.02613 0.56265 0.5266 0.0
C397 C 0.06573 0.51392 0.53063 0.0
C398 C 0.94909 0.55436 0.52333 0.0
C399 C 0.93023 0.52613 0.5237 0.0
H400 H 0.63998 0.97115 0.03381 0.0
H401 H 0.39904 0.95037 0.02049 0.0
H402 H 0.36687 0.99993 0.01886 0.0
H403 H 0.40742 0.04852 0.02125 0.0
H404 H 0.64836 0.06928 0.03458 0.0
H405 H 0.68052 0.01972 0.03612 0.0
C406 C 0.58021 0.97732 0.03058 0.0
C407 C 0.52179 0.95701 0.02729 0.0
C408 C 0.5624 1.00567 0.02962 0.0
C409 C 0.44493 0.96553 0.02308 0.0
C410 C 0.42665 0.99383 0.02214 0.0
C411 C 0.46719 0.04234 0.02445 0.0
C412 C 0.52561 0.06265 0.0278 0.0
C413 C 0.48499 0.01399 0.02536 0.0
C414 C 0.60247 0.05413 0.03195 0.0
C415 C 0.62074 0.02583 0.03285 0.0
H416 H 0.63798 0.04922 0.53447 0.0
H417 H 0.39706 0.07002 0.52181 0.0
H418 H 0.36484 0.02047 0.51824 0.0
H419 H 0.40533 0.97188 0.51882 0.0
H420 H 0.64623 0.95108 0.53169 0.0
H421 H 0.67847 1.00064 0.53494 0.0
C422 C 0.5782 0.04305 0.53097 0.0
C423 C 0.5198 0.06337 0.52844 0.0
C424 C 0.56037 0.01471 0.52891 0.0
C425 C 0.44294 0.05486 0.52385 0.0
C426 C 0.42463 0.02657 0.52179 0.0
C427 C 0.46511 0.97805 0.52231 0.0
C428 C 0.52351 0.95774 0.52505 0.0
C429 C 0.48294 1.0064 0.52427 0.0
C430 C 0.60037 0.96624 0.52952 0.0
C431 C 0.61868 0.99454 0.53141 0.0
H432 H 0.29641 0.31631 0.04192 0.0
H433 H 0.07323 0.27743 0.02801 0.0
H434 H 0.13411 0.23173 0.02324 0.0
H435 H 0.24995 0.20325 0.02252 0.0
H436 H 0.47313 0.24212 0.03636 0.0
H437 H 0.41226 0.28782 0.04129 0.0
C438 C 0.2607 0.29789 0.03793 0.0
C439 C 0.18004 0.30034 0.03539 0.0
C440 C 0.29604 0.27183 0.03496 0.0
C441 C 0.13518 0.27618 0.03016 0.0
C442 C 0.17003 0.25007 0.02734 0.0
C443 C 0.28567 0.22166 0.02654 0.0
C444 C 0.36632 0.21922 0.02898 0.0
C445 C 0.25033 0.24772 0.02957 0.0
C446 C 0.41118 0.24338 0.03428 0.0
C447 C 0.37634 0.26948 0.03719 0.0
H448 H 0.79767 0.81664 0.034 0.0
H449 H 0.57503 0.77736 0.02016 0.0
H450 H 0.63662 0.73175 1.01594 0.0
H451 H 0.75291 0.70345 1.01594 0.0
H452 H 0.97551 0.74274 0.02967 0.0
H453 H 0.91395 0.78836 0.03386 0.0
C454 C 0.76221 0.79816 0.03014 0.0
C455 C 0.68149 0.80047 0.02749 0.0
C456 C 0.79795 0.77215 0.02752 0.0
C457 C 0.637 0.77622 0.02239 0.0
C458 C 0.67226 0.75017 0.0199 0.0
C459 C 0.78834 0.72194 0.01977 0.0
C460 C 0.86905 0.71963 0.02242 0.0
C461 C 0.7526 0.74795 0.02234 0.0
C462 C 0.91354 0.74389 0.02745 0.0
C463 C 0.8783 0.76994 0.02993 0.0
H464 H 0.29556 0.70387 0.53549 0.0
H465 H 0.07331 0.74322 0.51841 0.0
H466 H 0.13525 0.78871 0.51445 0.0
H467 H 0.25176 0.81688 0.51534 0.0
H468 H 0.47415 0.77752 0.53189 0.0
H469 H 0.41224 0.73203 0.53607 0.0
C470 C 0.26034 0.72234 0.53088 0.0
C471 C 0.17962 0.72009 0.52724 0.0
C472 C 0.29632 0.74827 0.52829 0.0
C473 C 0.1353 0.74433 0.52139 0.0
C474 C 0.17076 0.77031 0.51902 0.0
C475 C 0.28709 0.7984 0.51977 0.0
C476 C 0.36783 0.80065 0.52324 0.0
C477 C 0.25115 0.77246 0.5223 0.0
C478 C 0.41216 0.77641 0.52902 0.0
C479 C 0.37671 0.75043 0.5315 0.0
H480 H 0.75072 0.3169 0.52501 0.0
H481 H 0.97346 0.2777 0.53789 0.0
H482 H 0.91202 0.23207 0.54098 0.0
H483 H 0.79585 0.20375 0.54014 0.0
H484 H 0.57308 0.24293 0.52713 0.0
H485 H 0.63451 0.28857 0.52432 0.0
C486 C 0.78622 0.29843 0.52844 0.0
C487 C 0.86692 0.30076 0.53114 0.0
C488 C 0.75055 0.27242 0.53036 0.0
C489 C 0.91149 0.27653 0.53565 0.0
C490 C 0.87632 0.25048 0.53749 0.0
C491 C 0.76033 0.22222 0.53676 0.0
C492 C 0.67963 0.21987 0.53389 0.0
C493 C 0.79599 0.24824 0.53493 0.0
C494 C 0.63505 0.2441 0.52949 0.0
C495 C 0.67021 0.27017 0.5278 0.0
H496 H 0.95022 0.37712 0.18338 0.0
H497 H 0.19598 0.37803 0.21635 0.0
H498 H 0.17992 0.37791 0.311 0.0
H499 H 0.0962 0.3768 0.38366 0.0
H500 H 0.85045 0.37781 0.35082 0.0
H501 H 0.86645 0.37798 0.25613 0.0
C502 C 1.00044 0.37722 0.21122 0.0
C503 C 0.07437 0.37728 0.19288 0.0
C504 C 0.99067 0.37749 0.26532 0.0
C505 C 0.13863 0.37791 0.22947 0.0
C506 C 0.12939 0.37779 0.2835 0.0
C507 C 0.04597 0.37696 0.35583 0.0
C508 C 0.97206 0.37696 0.37421 0.0
C509 C 0.05571 0.37743 0.30176 0.0
C510 C 0.90778 0.37771 0.33767 0.0
C511 C 0.91699 0.37777 0.28362 0.0
H512 H 0.09425 0.63815 0.18058 0.0
H513 H 0.84941 0.63742 0.19169 0.0
H514 H 0.87007 0.6363 0.28805 0.0
H515 H 0.95745 0.63753 0.3681 0.0
H516 H 0.20231 0.63736 0.35709 0.0
H517 H 0.18172 0.63665 0.26065 0.0
C518 C 0.04516 0.63776 0.20399 0.0
C519 C 0.97013 0.63825 0.17904 0.0
C520 C 0.05761 0.63697 0.25897 0.0
C521 C 0.90746 0.63716 0.20993 0.0
C522 C 0.91938 0.63659 0.26491 0.0
C523 C 1.00658 0.63732 0.3447 0.0
C524 C 0.08157 0.63786 0.3697 0.0
C525 C 0.99416 0.63682 0.2897 0.0
C526 C 0.14429 0.63703 0.33881 0.0
C527 C 0.1324 0.63672 0.28379 0.0
H528 H 0.09514 0.64183 0.87488 0.0
H529 H 0.84972 0.64142 0.84009 0.0
H530 H 0.86743 0.64174 0.74558 0.0
H531 H 0.95266 0.64312 0.67362 0.0
H532 H 0.19801 0.64157 0.70854 0.0
H533 H 0.18023 0.641 0.80298 0.0
C534 C 0.04533 0.64187 0.84668 0.0
C535 C 0.97102 0.64194 0.86445 0.0
C536 C 0.05606 0.64173 0.79273 0.0
C537 C 0.90732 0.64146 0.8274 0.0
C538 C 0.91752 0.6417 0.77346 0.0
C539 C 1.0024 0.64275 0.70186 0.0
C540 C 0.07675 0.64274 0.68415 0.0
C541 C 0.99161 0.64204 0.75579 0.0
C542 C 0.14038 0.6417 0.72119 0.0
C543 C 0.13015 0.6414 0.77509 0.0
H544 H 0.09278 0.38275 0.6899 0.0
H545 H 0.84794 0.38329 0.70116 0.0
H546 H 0.86874 0.38397 0.79755 0.0
H547 H 0.95622 0.38231 0.87743 0.0
H548 H 0.20107 0.38244 0.86627 0.0
H549 H 0.18033 0.38373 0.7699 0.0
C550 C 0.04369 0.38303 0.71333 0.0
C551 C 0.96864 0.3826 0.6884 0.0
C552 C 0.05622 0.38348 0.76832 0.0
C553 C 0.906 0.38351 0.71936 0.0
C554 C 0.91801 0.38382 0.77436 0.0
C555 C 1.00533 0.3826 0.85403 0.0
C556 C 0.08036 0.38188 0.87895 0.0
C557 C 0.99283 0.38344 0.79909 0.0
C558 C 0.14303 0.38286 0.84805 0.0
C559 C 0.13105 0.38353 0.79307 0.0
H560 H 0.44987 0.87746 0.17491 0.0
H561 H 0.69537 0.87799 0.20939 0.0
H562 H 0.67799 0.87822 0.30389 0.0
H563 H 0.59324 0.8774 0.37594 0.0
H564 H 0.34775 0.87878 0.3417 0.0
H565 H 0.36503 0.87875 0.24712 0.0
C566 C 0.49975 0.87755 0.20305 0.0
C567 C 0.574 0.87738 0.18517 0.0
C568 C 0.48921 0.87802 0.25705 0.0
C569 C 0.6378 0.87802 0.22214 0.0
C570 C 0.6278 0.87811 0.27609 0.0
C571 C 0.54331 0.87762 0.34784 0.0
C572 C 0.4691 0.87775 0.36578 0.0
C573 C 0.55381 0.87794 0.29387 0.0
C574 C 0.40528 0.87857 0.32888 0.0
C575 C 0.41523 0.87851 0.2749 0.0
H576 H 0.59095 0.1373 0.1859 0.0
H577 H 0.34612 0.1372 0.19722 0.0
H578 H 0.367 0.13659 0.29361 0.0
H579 H 0.45462 0.13814 0.37353 0.0
H580 H 0.69944 0.13756 0.36217 0.0
H581 H 0.67854 0.13626 0.26579 0.0
C582 C 0.54187 0.13714 0.20933 0.0
C583 C 0.46681 0.13767 0.18444 0.0
C584 C 0.55445 0.13673 0.2643 0.0
C585 C 0.40419 0.1369 0.2154 0.0
C586 C 0.41625 0.13663 0.2704 0.0
C587 C 0.50369 0.13775 0.35008 0.0
C588 C 0.57876 0.13834 0.37498 0.0
C589 C 0.4911 0.1369 0.29511 0.0
C590 C 0.64136 0.13724 0.344 0.0
C591 C 0.6293 0.13656 0.28901 0.0
H592 H 0.59558 0.14275 0.87992 0.0
H593 H 0.34984 0.14188 0.84691 0.0
H594 H 0.36595 0.14197 0.75225 0.0
H595 H 0.44978 0.1431 0.67959 0.0
H596 H 0.69551 0.14208 0.71258 0.0
H597 H 0.67939 0.14186 0.80723 0.0
C598 C 0.54538 0.14266 0.85206 0.0
C599 C 0.47144 0.14262 0.8704 0.0
C600 C 0.55518 0.14237 0.79798 0.0
C601 C 0.4072 0.14199 0.8338 0.0
C602 C 0.41646 0.14209 0.77976 0.0
C603 C 0.49998 0.14291 0.70744 0.0
C604 C 0.57392 0.14292 0.68911 0.0
C605 C 0.49017 0.14244 0.76151 0.0
C606 C 0.63815 0.14216 0.72569 0.0
C607 C 0.62888 0.14208 0.77973 0.0
H608 H 0.59424 0.88185 0.68208 0.0
H609 H 0.34946 0.88379 0.69338 0.0
H610 H 0.37028 0.88477 0.78974 0.0
H611 H 0.45763 0.88309 0.86966 0.0
H612 H 0.70246 0.88194 0.85859 0.0
H613 H 0.68184 0.88282 0.76218 0.0
C614 C 0.54519 0.88249 0.70552 0.0
C615 C 0.47012 0.88238 0.6806 0.0
C616 C 0.55773 0.88317 0.76054 0.0
C617 C 0.40754 0.88375 0.71157 0.0
C618 C 0.41954 0.88425 0.76656 0.0
C619 C 0.50677 0.88303 0.84628 0.0
C620 C 0.58173 0.88206 0.87125 0.0
C621 C 0.49433 0.88363 0.7913 0.0
C622 C 0.64445 0.88257 0.84035 0.0
C623 C 0.63254 0.883 0.78534 0.0
loop_
_geom_bond_atom_site_label_1
_geom_bond_atom_site_label_2
_geom_bond_distance
_geom_bond_site_symmetry_2
_ccdc_geom_bond_type
Co0 N5 2.057 1_554 S
Co0 O17 2.021 . S
Co0 O20 2.062 . S
Co0 O24 2.117 1_654 S
Co0 O25 2.020 1_655 S
C1 O21 1.259 . S
C1 O24 1.258 . S
Co2 N11 2.057 . S
Co2 O18 2.117 . S
Co2 O19 2.020 . S
Co2 O21 2.021 1_554 S
Co2 O26 2.062 . S
C3 N5 1.316 1_554 S
C3 N6 1.347 . S
C3 H8 0.931 . S
C4 N5 1.375 . S
C4 C7 1.350 . S
C4 H9 0.930 . S
N5 Co0 2.057 1_556 S
N5 C3 1.316 1_556 S
N5 C4 1.375 . S
N6 C3 1.347 . S
N6 C7 1.373 1_554 S
C7 C4 1.350 . S
C7 N6 1.373 1_556 S
C7 H28 0.931 . S
H8 C3 0.931 . S
H9 C4 0.930 . S
C10 O17 1.259 1_455 S
C10 O18 1.258 . S
N11 Co2 2.057 . S
N11 C12 1.316 1_554 S
N11 C13 1.375 . S
C12 N11 1.316 1_556 S
C12 N14 1.347 1_556 S
C12 H23 0.931 . S
C13 N11 1.375 . S
C13 C15 1.350 . S
C13 H22 0.930 . S
N14 C12 1.347 1_554 S
N14 C15 1.373 . S
C15 C13 1.350 . S
C15 N14 1.373 . S
C15 H29 0.931 . S
C16 O19 1.256 . S
C16 O20 1.255 1_455 S
O17 Co0 2.021 . S
O17 C10 1.259 1_655 S
O18 Co2 2.117 . S
O18 C10 1.258 . S
O19 Co2 2.020 . S
O19 C16 1.256 . S
O20 Co0 2.062 . S
O20 C16 1.255 1_655 S
O21 C1 1.259 . S
O21 Co2 2.021 1_556 S
H22 C13 0.930 . S
H23 C12 0.931 . S
O24 Co0 2.117 1_456 S
O24 C1 1.258 . S
O25 Co0 2.020 1_455 S
O25 C27 1.256 . S
O26 Co2 2.062 . S
O26 C27 1.255 . S
C27 O25 1.256 . S
C27 O26 1.255 . S
H28 C7 0.931 . S
H29 C15 0.931 . S
Co30 N35 2.057 1_554 S
Co30 O47 2.021 . S
Co30 O50 2.062 . S
Co30 O54 2.117 1_554 S
Co30 O55 2.020 . S
C31 O51 1.259 1_655 S
C31 O54 1.258 . S
Co32 N41 2.057 . S
Co32 O48 2.117 1_455 S
Co32 O49 2.020 1_455 S
Co32 O51 2.021 1_554 S
Co32 O56 2.062 . S
C33 N35 1.316 1_554 S
C33 N36 1.348 1_554 S
C33 H38 0.931 . S
C34 N35 1.375 . S
C34 C37 1.350 . S
C34 H39 0.930 . S
N35 Co30 2.057 1_556 S
N35 C33 1.316 1_556 S
N35 C34 1.375 . S
N36 C33 1.348 1_556 S
N36 C37 1.371 . S
C37 C34 1.350 . S
C37 N36 1.371 . S
C37 H58 0.931 . S
H38 C33 0.931 . S
H39 C34 0.930 . S
C40 O47 1.259 . S
C40 O48 1.258 . S
N41 Co32 2.057 . S
N41 C42 1.316 1_554 S
N41 C43 1.375 . S
C42 N41 1.316 1_556 S
C42 N44 1.347 1_556 S
C42 H53 0.931 . S
C43 N41 1.375 . S
C43 C45 1.350 . S
C43 H52 0.930 . S
N44 C42 1.347 1_554 S
N44 C45 1.373 . S
C45 C43 1.350 . S
C45 N44 1.373 . S
C45 H59 0.931 . S
C46 O49 1.256 . S
C46 O50 1.255 . S
O47 Co30 2.021 . S
O47 C40 1.259 . S
O48 Co32 2.117 1_655 S
O48 C40 1.258 . S
O49 Co32 2.020 1_655 S
O49 C46 1.256 . S
O50 Co30 2.062 . S
O50 C46 1.255 . S
O51 C31 1.259 1_455 S
O51 Co32 2.021 1_556 S
H52 C43 0.930 . S
H53 C42 0.931 . S
O54 Co30 2.117 1_556 S
O54 C31 1.258 . S
O55 Co30 2.020 . S
O55 C57 1.256 . S
O56 Co32 2.062 . S
O56 C57 1.255 1_455 S
C57 O55 1.256 . S
C57 O56 1.255 1_655 S
H58 C37 0.931 . S
H59 C45 0.931 . S
Co60 N65 2.057 . S
Co60 O77 2.021 . S
Co60 O80 2.062 . S
Co60 O84 2.117 . S
Co60 O85 2.020 . S
C61 O81 1.259 1_455 S
C61 O84 1.258 . S
Co62 N71 2.057 . S
Co62 O78 2.117 1_655 S
Co62 O79 2.020 1_655 S
Co62 O81 2.021 . S
Co62 O86 2.062 . S
C63 N65 1.316 . S
C63 N66 1.347 . S
C63 H68 0.931 . S
C64 N65 1.375 . S
C64 C67 1.350 . S
C64 H69 0.930 . S
N65 Co60 2.057 . S
N65 C63 1.316 . S
N65 C64 1.375 . S
N66 C63 1.347 . S
N66 C67 1.373 . S
C67 C64 1.350 . S
C67 N66 1.373 . S
C67 H88 0.931 . S
H68 C63 0.931 . S
H69 C64 0.930 . S
C70 O77 1.259 . S
C70 O78 1.258 . S
N71 Co62 2.057 . S
N71 C72 1.316 . S
N71 C73 1.375 . S
C72 N71 1.316 . S
C72 N74 1.347 . S
C72 H83 0.931 . S
C73 N71 1.375 . S
C73 C75 1.350 . S
C73 H82 0.930 . S
N74 C72 1.347 . S
N74 C75 1.373 . S
C75 C73 1.350 . S
C75 N74 1.373 . S
C75 H89 0.931 . S
C76 O79 1.256 . S
C76 O80 1.255 . S
O77 Co60 2.021 . S
O77 C70 1.259 . S
O78 Co62 2.117 1_455 S
O78 C70 1.258 . S
O79 Co62 2.020 1_455 S
O79 C76 1.256 . S
O80 Co60 2.062 . S
O80 C76 1.255 . S
O81 C61 1.259 1_655 S
O81 Co62 2.021 . S
H82 C73 0.930 . S
H83 C72 0.931 . S
O84 Co60 2.117 . S
O84 C61 1.258 . S
O85 Co60 2.020 . S
O85 C87 1.256 . S
O86 Co62 2.062 . S
O86 C87 1.255 1_655 S
C87 O85 1.256 . S
C87 O86 1.255 1_455 S
H88 C67 0.931 . S
H89 C75 0.931 . S
Co90 N95 2.057 . S
Co90 O107 2.021 . S
Co90 O110 2.062 . S
Co90 O114 2.117 1_455 S
Co90 O115 2.020 1_455 S
C91 O111 1.259 . S
C91 O114 1.258 . S
Co92 N101 2.057 . S
Co92 O108 2.117 . S
Co92 O109 2.020 . S
Co92 O111 2.021 . S
Co92 O116 2.062 . S
C93 N95 1.316 . S
C93 N96 1.347 . S
C93 H98 0.931 . S
C94 N95 1.375 . S
C94 C97 1.350 . S
C94 H99 0.930 . S
N95 Co90 2.057 . S
N95 C93 1.316 . S
N95 C94 1.375 . S
N96 C93 1.347 . S
N96 C97 1.373 . S
C97 C94 1.350 . S
C97 N96 1.373 . S
C97 H118 0.931 . S
H98 C93 0.931 . S
H99 C94 0.930 . S
C100 O107 1.259 1_655 S
C100 O108 1.258 . S
N101 Co92 2.057 . S
N101 C102 1.316 . S
N101 C103 1.375 . S
C102 N101 1.316 . S
C102 N104 1.347 . S
C102 H113 0.931 . S
C103 N101 1.375 . S
C103 C105 1.350 . S
C103 H112 0.930 . S
N104 C102 1.347 . S
N104 C105 1.373 . S
C105 C103 1.350 . S
C105 N104 1.373 . S
C105 H119 0.931 . S
C106 O109 1.256 . S
C106 O110 1.255 1_655 S
O107 Co90 2.021 . S
O107 C100 1.259 1_455 S
O108 Co92 2.117 . S
O108 C100 1.258 . S
O109 Co92 2.020 . S
O109 C106 1.256 . S
O110 Co90 2.062 . S
O110 C106 1.255 1_455 S
O111 C91 1.259 . S
O111 Co92 2.021 . S
H112 C103 0.930 . S
H113 C102 0.931 . S
O114 Co90 2.117 1_655 S
O114 C91 1.258 . S
O115 Co90 2.020 1_655 S
O115 C117 1.256 . S
O116 Co92 2.062 . S
O116 C117 1.255 . S
C117 O115 1.256 . S
C117 O116 1.255 . S
H118 C97 0.931 . S
H119 C105 0.931 . S
Co120 N125 2.057 1_554 S
Co120 O137 2.021 . S
Co120 O140 2.062 . S
Co120 O144 2.117 1_554 S
Co120 O145 2.020 . S
C121 O141 1.259 . S
C121 O144 1.258 . S
Co122 N131 2.057 . S
Co122 O138 2.117 . S
Co122 O139 2.020 . S
Co122 O141 2.021 1_554 S
Co122 O146 2.062 . S
C123 N125 1.316 1_554 S
C123 N126 1.347 . S
C123 H128 0.931 . S
C124 N125 1.375 . S
C124 C127 1.350 . S
C124 H129 0.930 . S
N125 Co120 2.057 1_556 S
N125 C123 1.316 1_556 S
N125 C124 1.375 . S
N126 C123 1.347 . S
N126 C127 1.373 1_554 S
C127 C124 1.350 . S
C127 N126 1.373 1_556 S
C127 H148 0.931 . S
H128 C123 0.931 . S
H129 C124 0.930 . S
C130 O137 1.259 . S
C130 O138 1.258 . S
N131 Co122 2.057 . S
N131 C132 1.316 1_554 S
N131 C133 1.375 . S
C132 N131 1.316 1_556 S
C132 N134 1.347 1_556 S
C132 H143 0.931 . S
C133 N131 1.375 . S
C133 C135 1.350 . S
C133 H142 0.930 . S
N134 C132 1.347 1_554 S
N134 C135 1.373 . S
C135 C133 1.350 . S
C135 N134 1.373 . S
C135 H149 0.931 . S
C136 O139 1.256 . S
C136 O140 1.255 . S
O137 Co120 2.021 . S
O137 C130 1.259 . S
O138 Co122 2.117 . S
O138 C130 1.258 . S
O139 Co122 2.020 . S
O139 C136 1.256 . S
O140 Co120 2.062 . S
O140 C136 1.255 . S
O141 C121 1.259 . S
O141 Co122 2.021 1_556 S
H142 C133 0.930 . S
H143 C132 0.931 . S
O144 Co120 2.117 1_556 S
O144 C121 1.258 . S
O145 Co120 2.020 . S
O145 C147 1.256 . S
O146 Co122 2.062 . S
O146 C147 1.255 . S
C147 O145 1.256 . S
C147 O146 1.255 . S
H148 C127 0.931 . S
H149 C135 0.931 . S
Co150 N155 2.057 1_554 S
Co150 O167 2.021 . S
Co150 O170 2.062 . S
Co150 O174 2.117 1_554 S
Co150 O175 2.020 . S
C151 O171 1.259 . S
C151 O174 1.258 . S
Co152 N161 2.057 . S
Co152 O168 2.117 . S
Co152 O169 2.020 . S
Co152 O171 2.021 1_554 S
Co152 O176 2.062 . S
C153 N155 1.316 1_554 S
C153 N156 1.348 1_554 S
C153 H158 0.931 . S
C154 N155 1.375 . S
C154 C157 1.350 . S
C154 H159 0.930 . S
N155 Co150 2.057 1_556 S
N155 C153 1.316 1_556 S
N155 C154 1.375 . S
N156 C153 1.348 1_556 S
N156 C157 1.371 . S
C157 C154 1.350 . S
C157 N156 1.371 . S
C157 H178 0.931 . S
H158 C153 0.931 . S
H159 C154 0.930 . S
C160 O167 1.259 . S
C160 O168 1.258 . S
N161 Co152 2.057 . S
N161 C162 1.316 1_554 S
N161 C163 1.375 . S
C162 N161 1.316 1_556 S
C162 N164 1.347 1_556 S
C162 H173 0.931 . S
C163 N161 1.375 . S
C163 C165 1.350 . S
C163 H172 0.930 . S
N164 C162 1.347 1_554 S
N164 C165 1.373 . S
C165 C163 1.350 . S
C165 N164 1.373 . S
C165 H179 0.931 . S
C166 O169 1.256 . S
C166 O170 1.255 . S
O167 Co150 2.021 . S
O167 C160 1.259 . S
O168 Co152 2.117 . S
O168 C160 1.258 . S
O169 Co152 2.020 . S
O169 C166 1.256 . S
O170 Co150 2.062 . S
O170 C166 1.255 . S
O171 C151 1.259 . S
O171 Co152 2.021 1_556 S
H172 C163 0.930 . S
H173 C162 0.931 . S
O174 Co150 2.117 1_556 S
O174 C151 1.258 . S
O175 Co150 2.020 . S
O175 C177 1.256 . S
O176 Co152 2.062 . S
O176 C177 1.255 . S
C177 O175 1.256 . S
C177 O176 1.255 . S
H178 C157 0.931 . S
H179 C165 0.931 . S
Co180 N185 2.057 . S
Co180 O197 2.021 . S
Co180 O200 2.062 . S
Co180 O204 2.117 . S
Co180 O205 2.020 . S
C181 O201 1.259 . S
C181 O204 1.258 . S
Co182 N191 2.057 . S
Co182 O198 2.117 . S
Co182 O199 2.020 . S
Co182 O201 2.021 . S
Co182 O206 2.062 . S
C183 N185 1.316 . S
C183 N186 1.347 . S
C183 H188 0.931 . S
C184 N185 1.375 . S
C184 C187 1.350 . S
C184 H189 0.930 . S
N185 Co180 2.057 . S
N185 C183 1.316 . S
N185 C184 1.375 . S
N186 C183 1.347 . S
N186 C187 1.373 . S
C187 C184 1.350 . S
C187 N186 1.373 . S
C187 H208 0.931 . S
H188 C183 0.931 . S
H189 C184 0.930 . S
C190 O197 1.259 . S
C190 O198 1.258 . S
N191 Co182 2.057 . S
N191 C192 1.316 . S
N191 C193 1.375 . S
C192 N191 1.316 . S
C192 N194 1.347 . S
C192 H203 0.931 . S
C193 N191 1.375 . S
C193 C195 1.350 . S
C193 H202 0.930 . S
N194 C192 1.347 . S
N194 C195 1.373 . S
C195 C193 1.350 . S
C195 N194 1.373 . S
C195 H209 0.931 . S
C196 O199 1.256 . S
C196 O200 1.255 . S
O197 Co180 2.021 . S
O197 C190 1.259 . S
O198 Co182 2.117 . S
O198 C190 1.258 . S
O199 Co182 2.020 . S
O199 C196 1.256 . S
O200 Co180 2.062 . S
O200 C196 1.255 . S
O201 C181 1.259 . S
O201 Co182 2.021 . S
H202 C193 0.930 . S
H203 C192 0.931 . S
O204 Co180 2.117 . S
O204 C181 1.258 . S
O205 Co180 2.020 . S
O205 C207 1.256 . S
O206 Co182 2.062 . S
O206 C207 1.255 . S
C207 O205 1.256 . S
C207 O206 1.255 . S
H208 C187 0.931 . S
H209 C195 0.931 . S
Co210 N215 2.057 . S
Co210 O227 2.021 . S
Co210 O230 2.062 . S
Co210 O234 2.117 . S
Co210 O235 2.020 . S
C211 O231 1.259 . S
C211 O234 1.258 . S
Co212 N221 2.057 . S
Co212 O228 2.117 . S
Co212 O229 2.020 . S
Co212 O231 2.021 . S
Co212 O236 2.062 . S
C213 N215 1.316 . S
C213 N216 1.347 . S
C213 H218 0.931 . S
C214 N215 1.375 . S
C214 C217 1.350 . S
C214 H219 0.930 . S
N215 Co210 2.057 . S
N215 C213 1.316 . S
N215 C214 1.375 . S
N216 C213 1.347 . S
N216 C217 1.373 . S
C217 C214 1.350 . S
C217 N216 1.373 . S
C217 H238 0.931 . S
H218 C213 0.931 . S
H219 C214 0.930 . S
C220 O227 1.259 . S
C220 O228 1.258 . S
N221 Co212 2.057 . S
N221 C222 1.316 . S
N221 C223 1.375 . S
C222 N221 1.316 . S
C222 N224 1.347 . S
C222 H233 0.931 . S
C223 N221 1.375 . S
C223 C225 1.350 . S
C223 H232 0.930 . S
N224 C222 1.347 . S
N224 C225 1.373 . S
C225 C223 1.350 . S
C225 N224 1.373 . S
C225 H239 0.931 . S
C226 O229 1.256 . S
C226 O230 1.255 . S
O227 Co210 2.021 . S
O227 C220 1.259 . S
O228 Co212 2.117 . S
O228 C220 1.258 . S
O229 Co212 2.020 . S
O229 C226 1.256 . S
O230 Co210 2.062 . S
O230 C226 1.255 . S
O231 C211 1.259 . S
O231 Co212 2.021 . S
H232 C223 0.930 . S
H233 C222 0.931 . S
O234 Co210 2.117 . S
O234 C211 1.258 . S
O235 Co210 2.020 . S
O235 C237 1.256 . S
O236 Co212 2.062 . S
O236 C237 1.255 . S
C237 O235 1.256 . S
C237 O236 1.255 . S
H238 C217 0.931 . S
H239 C225 0.931 . S
H240 C246 0.930 . S
H241 C249 0.930 . S
H242 C250 0.930 . S
H243 C251 0.930 . S
H244 C254 0.930 . S
H245 C255 0.930 . S
C246 H240 0.930 . S
C246 C247 1.355 . S
C246 C248 1.415 . S
C247 C246 1.355 . S
C247 C249 1.419 . S
C248 C246 1.415 . S
C248 C253 1.425 . S
C248 C255 1.409 . S
C249 H241 0.930 . S
C249 C247 1.419 . S
C249 C250 1.362 . S
C250 H242 0.930 . S
C250 C249 1.362 . S
C250 C253 1.409 . S
C251 H243 0.930 . S
C251 C252 1.355 . S
C251 C253 1.415 . S
C252 C251 1.355 . S
C252 C254 1.419 . S
C253 C248 1.425 . S
C253 C250 1.409 . S
C253 C251 1.415 . S
C254 H244 0.930 . S
C254 C252 1.419 . S
C254 C255 1.362 . S
C255 H245 0.930 . S
C255 C248 1.409 . S
C255 C254 1.362 . S
H256 C262 0.930 . S
H257 C265 0.930 . S
H258 C266 0.930 . S
H259 C267 0.930 . S
H260 C270 0.930 . S
H261 C271 0.930 . S
C262 H256 0.930 . S
C262 C263 1.355 . S
C262 C264 1.415 . S
C263 C262 1.355 . S
C263 C265 1.419 1_554 S
C264 C262 1.415 . S
C264 C269 1.425 1_554 S
C264 C271 1.409 . S
C265 H257 0.930 . S
C265 C263 1.419 1_556 S
C265 C266 1.362 . S
C266 H258 0.930 . S
C266 C265 1.362 . S
C266 C269 1.409 . S
C267 H259 0.930 . S
C267 C268 1.355 1_556 S
C267 C269 1.415 . S
C268 C267 1.355 1_554 S
C268 C270 1.419 . S
C269 C264 1.425 1_556 S
C269 C266 1.409 . S
C269 C267 1.415 . S
C270 H260 0.930 . S
C270 C268 1.419 . S
C270 C271 1.362 . S
C271 H261 0.930 . S
C271 C264 1.409 . S
C271 C270 1.362 . S
H272 C278 0.930 . S
H273 C281 0.930 . S
H274 C282 0.930 . S
H275 C283 0.930 . S
H276 C286 0.930 . S
H277 C287 0.930 . S
C278 H272 0.930 . S
C278 C279 1.355 . S
C278 C280 1.415 . S
C279 C278 1.355 . S
C279 C281 1.419 . S
C280 C278 1.415 . S
C280 C285 1.425 . S
C280 C287 1.409 . S
C281 H273 0.930 . S
C281 C279 1.419 . S
C281 C282 1.362 . S
C282 H274 0.930 . S
C282 C281 1.362 . S
C282 C285 1.409 . S
C283 H275 0.930 . S
C283 C284 1.355 . S
C283 C285 1.415 . S
C284 C283 1.355 . S
C284 C286 1.419 . S
C285 C280 1.425 . S
C285 C282 1.409 . S
C285 C283 1.415 . S
C286 H276 0.930 . S
C286 C284 1.419 . S
C286 C287 1.362 . S
C287 H277 0.930 . S
C287 C280 1.409 . S
C287 C286 1.362 . S
H288 C294 0.930 . S
H289 C297 0.930 . S
H290 C298 0.930 . S
H291 C299 0.930 . S
H292 C302 0.930 . S
H293 C303 0.930 . S
C294 H288 0.930 . S
C294 C295 1.355 . S
C294 C296 1.415 . S
C295 C294 1.355 . S
C295 C297 1.419 . S
C296 C294 1.415 . S
C296 C301 1.425 . S
C296 C303 1.409 . S
C297 H289 0.930 . S
C297 C295 1.419 . S
C297 C298 1.362 . S
C298 H290 0.930 . S
C298 C297 1.362 . S
C298 C301 1.409 . S
C299 H291 0.930 . S
C299 C300 1.355 . S
C299 C301 1.415 . S
C300 C299 1.355 . S
C300 C302 1.419 . S
C301 C296 1.425 . S
C301 C298 1.409 . S
C301 C299 1.415 . S
C302 H292 0.930 . S
C302 C300 1.419 . S
C302 C303 1.362 . S
C303 H293 0.930 . S
C303 C296 1.409 . S
C303 C302 1.362 . S
H304 C310 0.930 . S
H305 C313 0.930 . S
H306 C314 0.930 . S
H307 C315 0.930 . S
H308 C318 0.930 . S
H309 C319 0.930 . S
C310 H304 0.930 . S
C310 C311 1.355 1_556 S
C310 C312 1.415 1_655 S
C311 C310 1.355 1_554 S
C311 C313 1.419 . S
C312 C310 1.415 1_455 S
C312 C317 1.425 1_556 S
C312 C319 1.409 . S
C313 H305 0.930 . S
C313 C311 1.419 . S
C313 C314 1.362 1_655 S
C314 H306 0.930 . S
C314 C313 1.362 1_455 S
C314 C317 1.409 . S
C315 H307 0.930 . S
C315 C316 1.355 . S
C315 C317 1.415 . S
C316 C315 1.355 . S
C316 C318 1.419 1_554 S
C317 C312 1.425 1_554 S
C317 C314 1.409 . S
C317 C315 1.415 . S
C318 H308 0.930 . S
C318 C316 1.419 1_556 S
C318 C319 1.362 . S
C319 H309 0.930 . S
C319 C312 1.409 . S
C319 C318 1.362 . S
H320 C326 0.930 . S
H321 C329 0.930 . S
H322 C330 0.930 . S
H323 C331 0.930 . S
H324 C334 0.930 . S
H325 C335 0.929 1_556 S
C326 H320 0.930 . S
C326 C327 1.355 . S
C326 C328 1.415 1_455 S
C327 C326 1.355 . S
C327 C329 1.419 . S
C328 C326 1.415 1_655 S
C328 C333 1.425 . S
C328 C335 1.409 . S
C329 H321 0.930 . S
C329 C327 1.419 . S
C329 C330 1.362 1_455 S
C330 H322 0.930 . S
C330 C329 1.362 1_655 S
C330 C333 1.409 . S
C331 H323 0.930 . S
C331 C332 1.355 . S
C331 C333 1.415 . S
C332 C331 1.355 . S
C332 C334 1.419 . S
C333 C328 1.425 . S
C333 C330 1.409 . S
C333 C331 1.415 . S
C334 H324 0.930 . S
C334 C332 1.419 . S
C334 C335 1.362 . S
C335 H325 0.929 1_554 S
C335 C328 1.409 . S
C335 C334 1.362 . S
H336 C342 0.930 . S
H337 C345 0.930 . S
H338 C346 0.930 . S
H339 C347 0.930 . S
H340 C350 0.930 . S
H341 C351 0.930 . S
C342 H336 0.930 . S
C342 C343 1.355 . S
C342 C344 1.415 . S
C343 C342 1.355 . S
C343 C345 1.419 . S
C344 C342 1.415 . S
C344 C349 1.425 . S
C344 C351 1.409 . S
C345 H337 0.930 . S
C345 C343 1.419 . S
C345 C346 1.362 . S
C346 H338 0.930 . S
C346 C345 1.362 . S
C346 C349 1.409 . S
C347 H339 0.930 . S
C347 C348 1.355 . S
C347 C349 1.415 1_655 S
C348 C347 1.355 . S
C348 C350 1.419 . S
C349 C344 1.425 . S
C349 C346 1.409 . S
C349 C347 1.415 1_455 S
C350 H340 0.930 . S
C350 C348 1.419 . S
C350 C351 1.362 1_655 S
C351 H341 0.930 . S
C351 C344 1.409 . S
C351 C350 1.362 1_455 S
H352 C358 0.930 . S
H353 C361 0.930 . S
H354 C362 0.930 . S
H355 C363 0.930 . S
H356 C366 0.930 . S
H357 C367 0.930 . S
C358 H352 0.930 . S
C358 C359 1.355 . S
C358 C360 1.415 . S
C359 C358 1.355 . S
C359 C361 1.419 . S
C360 C358 1.415 . S
C360 C365 1.425 . S
C360 C367 1.409 . S
C361 H353 0.930 . S
C361 C359 1.419 . S
C361 C362 1.362 . S
C362 H354 0.930 . S
C362 C361 1.362 . S
C362 C365 1.409 . S
C363 H355 0.930 . S
C363 C364 1.355 . S
C363 C365 1.415 1_455 S
C364 C363 1.355 . S
C364 C366 1.419 . S
C365 C360 1.425 . S
C365 C362 1.409 . S
C365 C363 1.415 1_655 S
C366 H356 0.930 . S
C366 C364 1.419 . S
C366 C367 1.362 1_455 S
C367 H357 0.930 . S
C367 C360 1.409 . S
C367 C366 1.362 1_655 S
H368 C374 0.930 . S
H369 C377 0.930 . S
H370 C378 0.930 . S
H371 C379 0.930 . S
H372 C382 0.930 . S
H373 C383 0.930 . S
C374 H368 0.930 . S
C374 C375 1.355 1_455 S
C374 C376 1.415 . S
C375 C374 1.355 1_655 S
C375 C377 1.419 1_554 S
C376 C374 1.415 . S
C376 C381 1.425 1_454 S
C376 C383 1.409 . S
C377 H369 0.930 . S
C377 C375 1.419 1_556 S
C377 C378 1.362 . S
C378 H370 0.930 . S
C378 C377 1.362 . S
C378 C381 1.409 . S
C379 H371 0.930 . S
C379 C380 1.355 1_656 S
C379 C381 1.415 . S
C380 C379 1.355 1_454 S
C380 C382 1.419 . S
C381 C376 1.425 1_656 S
C381 C378 1.409 . S
C381 C379 1.415 . S
C382 H372 0.930 . S
C382 C380 1.419 . S
C382 C383 1.362 . S
C383 H373 0.930 . S
C383 C376 1.409 . S
C383 C382 1.362 . S
H384 C390 0.930 . S
H385 C393 0.930 . S
H386 C394 0.930 . S
H387 C395 0.930 . S
H388 C398 0.930 . S
H389 C399 0.930 . S
C390 H384 0.930 . S
C390 C391 1.355 1_455 S
C390 C392 1.415 . S
C391 C390 1.355 1_655 S
C391 C393 1.419 . S
C392 C390 1.415 . S
C392 C397 1.425 1_455 S
C392 C399 1.409 . S
C393 H385 0.930 . S
C393 C391 1.419 . S
C393 C394 1.362 . S
C394 H386 0.930 . S
C394 C393 1.362 . S
C394 C397 1.409 . S
C395 H387 0.930 . S
C395 C396 1.355 1_655 S
C395 C397 1.415 . S
C396 C395 1.355 1_455 S
C396 C398 1.419 . S
C397 C392 1.425 1_655 S
C397 C394 1.409 . S
C397 C395 1.415 . S
C398 H388 0.930 . S
C398 C396 1.419 . S
C398 C399 1.362 . S
C399 H389 0.930 . S
C399 C392 1.409 . S
C399 C398 1.362 . S
H400 C406 0.930 . S
H401 C409 0.930 . S
H402 C410 0.930 . S
H403 C411 0.930 . S
H404 C414 0.930 . S
H405 C415 0.930 . S
C406 H400 0.930 . S
C406 C407 1.355 . S
C406 C408 1.415 . S
C407 C406 1.355 . S
C407 C409 1.419 1_554 S
C408 C406 1.415 . S
C408 C413 1.425 1_564 S
C408 C415 1.409 1_565 S
C409 H401 0.930 . S
C409 C407 1.419 1_556 S
C409 C410 1.362 . S
C410 H402 0.930 . S
C410 C409 1.362 . S
C410 C413 1.409 1_565 S
C411 H403 0.930 . S
C411 C412 1.355 1_556 S
C411 C413 1.415 . S
C412 C411 1.355 1_554 S
C412 C414 1.419 . S
C413 C408 1.425 1_546 S
C413 C410 1.409 1_545 S
C413 C411 1.415 . S
C414 H404 0.930 . S
C414 C412 1.419 . S
C414 C415 1.362 . S
C415 H405 0.930 . S
C415 C408 1.409 1_545 S
C415 C414 1.362 . S
H416 C422 0.930 . S
H417 C425 0.930 . S
H418 C426 0.930 . S
H419 C427 0.930 . S
H420 C430 0.930 . S
H421 C431 0.930 . S
C422 H416 0.930 . S
C422 C423 1.355 . S
C422 C424 1.415 . S
C423 C422 1.355 . S
C423 C425 1.419 . S
C424 C422 1.415 . S
C424 C429 1.425 1_545 S
C424 C431 1.409 1_545 S
C425 H417 0.930 . S
C425 C423 1.419 . S
C425 C426 1.362 . S
C426 H418 0.930 . S
C426 C425 1.362 . S
C426 C429 1.409 1_545 S
C427 H419 0.930 . S
C427 C428 1.355 . S
C427 C429 1.415 . S
C428 C427 1.355 . S
C428 C430 1.419 . S
C429 C424 1.425 1_565 S
C429 C426 1.409 1_565 S
C429 C427 1.415 . S
C430 H420 0.930 . S
C430 C428 1.419 . S
C430 C431 1.362 . S
C431 H421 0.930 . S
C431 C424 1.409 1_565 S
C431 C430 1.362 . S
H432 C438 0.927 1_556 S
H433 C441 0.930 . S
H434 C442 0.930 . S
H435 C443 0.930 . S
H436 C446 0.930 . S
H437 C447 0.930 . S
C438 H432 0.927 1_554 S
C438 C439 1.355 . S
C438 C440 1.415 . S
C439 C438 1.355 . S
C439 C441 1.419 . S
C440 C438 1.415 . S
C440 C445 1.425 . S
C440 C447 1.409 . S
C441 H433 0.930 . S
C441 C439 1.419 . S
C441 C442 1.362 . S
C442 H434 0.930 . S
C442 C441 1.362 . S
C442 C445 1.409 . S
C443 H435 0.930 . S
C443 C444 1.355 . S
C443 C445 1.415 . S
C444 C443 1.355 . S
C444 C446 1.419 . S
C445 C440 1.425 . S
C445 C442 1.409 . S
C445 C443 1.415 . S
C446 H436 0.930 . S
C446 C444 1.419 . S
C446 C447 1.362 . S
C447 H437 0.930 . S
C447 C440 1.409 . S
C447 C446 1.362 . S
H448 C454 0.930 . S
H449 C457 0.930 . S
H450 C458 0.930 . S
H451 C459 0.930 . S
H452 C462 0.930 . S
H453 C463 0.930 . S
C454 H448 0.930 . S
C454 C455 1.355 1_556 S
C454 C456 1.415 . S
C455 C454 1.355 1_554 S
C455 C457 1.419 . S
C456 C454 1.415 . S
C456 C461 1.425 1_556 S
C456 C463 1.409 . S
C457 H449 0.930 . S
C457 C455 1.419 . S
C457 C458 1.362 . S
C458 H450 0.930 . S
C458 C457 1.362 . S
C458 C461 1.409 . S
C459 H451 0.930 . S
C459 C460 1.355 . S
C459 C461 1.415 . S
C460 C459 1.355 . S
C460 C462 1.419 1_554 S
C461 C456 1.425 1_554 S
C461 C458 1.409 . S
C461 C459 1.415 . S
C462 H452 0.930 . S
C462 C460 1.419 1_556 S
C462 C463 1.362 . S
C463 H453 0.930 . S
C463 C456 1.409 . S
C463 C462 1.362 . S
H464 C470 0.930 . S
H465 C473 0.930 . S
H466 C474 0.930 . S
H467 C475 0.930 . S
H468 C478 0.930 . S
H469 C479 0.930 . S
C470 H464 0.930 . S
C470 C471 1.355 . S
C470 C472 1.415 . S
C471 C470 1.355 . S
C471 C473 1.419 . S
C472 C470 1.415 . S
C472 C477 1.425 . S
C472 C479 1.409 . S
C473 H465 0.930 . S
C473 C471 1.419 . S
C473 C474 1.362 . S
C474 H466 0.930 . S
C474 C473 1.362 . S
C474 C477 1.409 . S
C475 H467 0.930 . S
C475 C476 1.355 . S
C475 C477 1.415 . S
C476 C475 1.355 . S
C476 C478 1.419 . S
C477 C472 1.425 . S
C477 C474 1.409 . S
C477 C475 1.415 . S
C478 H468 0.930 . S
C478 C476 1.419 . S
C478 C479 1.362 . S
C479 H469 0.930 . S
C479 C472 1.409 . S
C479 C478 1.362 . S
H480 C486 0.930 . S
H481 C489 0.930 . S
H482 C490 0.930 . S
H483 C491 0.930 . S
H484 C494 0.930 . S
H485 C495 0.930 . S
C486 H480 0.930 . S
C486 C487 1.355 . S
C486 C488 1.415 . S
C487 C486 1.355 . S
C487 C489 1.419 . S
C488 C486 1.415 . S
C488 C493 1.425 . S
C488 C495 1.409 . S
C489 H481 0.930 . S
C489 C487 1.419 . S
C489 C490 1.362 . S
C490 H482 0.930 . S
C490 C489 1.362 . S
C490 C493 1.409 . S
C491 H483 0.930 . S
C491 C492 1.355 . S
C491 C493 1.415 . S
C492 C491 1.355 . S
C492 C494 1.419 . S
C493 C488 1.425 . S
C493 C490 1.409 . S
C493 C491 1.415 . S
C494 H484 0.930 . S
C494 C492 1.419 . S
C494 C495 1.362 . S
C495 H485 0.930 . S
C495 C488 1.409 . S
C495 C494 1.362 . S
H496 C502 0.930 . S
H497 C505 0.930 . S
H498 C506 0.930 . S
H499 C507 0.930 . S
H500 C510 0.930 . S
H501 C511 0.930 . S
C502 H496 0.930 . S
C502 C503 1.355 1_655 S
C502 C504 1.415 . S
C503 C502 1.355 1_455 S
C503 C505 1.419 . S
C504 C502 1.415 . S
C504 C509 1.425 1_655 S
C504 C511 1.409 . S
C505 H497 0.930 . S
C505 C503 1.419 . S
C505 C506 1.362 . S
C506 H498 0.930 . S
C506 C505 1.362 . S
C506 C509 1.409 . S
C507 H499 0.930 . S
C507 C508 1.355 1_455 S
C507 C509 1.415 . S
C508 C507 1.355 1_655 S
C508 C510 1.419 . S
C509 C504 1.425 1_455 S
C509 C506 1.409 . S
C509 C507 1.415 . S
C510 H500 0.930 . S
C510 C508 1.419 . S
C510 C511 1.362 . S
C511 H501 0.930 . S
C511 C504 1.409 . S
C511 C510 1.362 . S
H512 C518 0.930 . S
H513 C521 0.930 . S
H514 C522 0.930 . S
H515 C523 0.930 . S
H516 C526 0.930 . S
H517 C527 0.930 . S
C518 H512 0.930 . S
C518 C519 1.355 . S
C518 C520 1.415 . S
C519 C518 1.355 . S
C519 C521 1.419 1_655 S
C520 C518 1.415 . S
C520 C525 1.425 1_655 S
C520 C527 1.409 . S
C521 H513 0.930 . S
C521 C519 1.419 1_455 S
C521 C522 1.362 . S
C522 H514 0.930 . S
C522 C521 1.362 . S
C522 C525 1.409 . S
C523 H515 0.930 . S
C523 C524 1.355 . S
C523 C525 1.415 . S
C524 C523 1.355 . S
C524 C526 1.419 1_455 S
C525 C520 1.425 1_455 S
C525 C522 1.409 . S
C525 C523 1.415 . S
C526 H516 0.930 . S
C526 C524 1.419 1_655 S
C526 C527 1.362 . S
C527 H517 0.930 . S
C527 C520 1.409 . S
C527 C526 1.362 . S
H528 C534 0.930 . S
H529 C537 0.930 1_455 S
H530 C538 0.930 . S
H531 C539 0.930 . S
H532 C542 0.930 1_655 S
H533 C543 0.930 . S
C534 H528 0.930 . S
C534 C535 1.355 . S
C534 C536 1.415 . S
C535 C534 1.355 . S
C535 C537 1.419 . S
C536 C534 1.415 . S
C536 C541 1.425 1_655 S
C536 C543 1.409 . S
C537 H529 0.930 1_655 S
C537 C535 1.419 . S
C537 C538 1.362 1_655 S
C538 H530 0.930 . S
C538 C537 1.362 1_455 S
C538 C541 1.409 . S
C539 H531 0.930 . S
C539 C540 1.355 . S
C539 C541 1.415 . S
C540 C539 1.355 . S
C540 C542 1.419 . S
C541 C536 1.425 1_455 S
C541 C538 1.409 . S
C541 C539 1.415 . S
C542 H532 0.930 1_455 S
C542 C540 1.419 . S
C542 C543 1.362 1_455 S
C543 H533 0.930 . S
C543 C536 1.409 . S
C543 C542 1.362 1_655 S
H544 C550 0.930 . S
H545 C553 0.930 . S
H546 C554 0.930 . S
H547 C555 0.930 . S
H548 C558 0.930 . S
H549 C559 0.930 . S
C550 H544 0.930 . S
C550 C551 1.355 1_455 S
C550 C552 1.415 . S
C551 C550 1.355 1_655 S
C551 C553 1.419 . S
C552 C550 1.415 . S
C552 C557 1.425 1_455 S
C552 C559 1.409 . S
C553 H545 0.930 . S
C553 C551 1.419 . S
C553 C554 1.362 . S
C554 H546 0.930 . S
C554 C553 1.362 . S
C554 C557 1.409 . S
C555 H547 0.930 . S
C555 C556 1.355 1_655 S
C555 C557 1.415 . S
C556 C555 1.355 1_455 S
C556 C558 1.419 . S
C557 C552 1.425 1_655 S
C557 C554 1.409 . S
C557 C555 1.415 . S
C558 H548 0.930 . S
C558 C556 1.419 . S
C558 C559 1.362 . S
C559 H549 0.930 . S
C559 C552 1.409 . S
C559 C558 1.362 . S
H560 C566 0.930 . S
H561 C569 0.930 . S
H562 C570 0.930 . S
H563 C571 0.930 . S
H564 C574 0.930 . S
H565 C575 0.930 . S
C566 H560 0.930 . S
C566 C567 1.355 . S
C566 C568 1.415 . S
C567 C566 1.355 . S
C567 C569 1.419 . S
C568 C566 1.415 . S
C568 C573 1.425 . S
C568 C575 1.409 . S
C569 H561 0.930 . S
C569 C567 1.419 . S
C569 C570 1.362 . S
C570 H562 0.930 . S
C570 C569 1.362 . S
C570 C573 1.409 . S
C571 H563 0.930 . S
C571 C572 1.355 . S
C571 C573 1.415 . S
C572 C571 1.355 . S
C572 C574 1.419 . S
C573 C568 1.425 . S
C573 C570 1.409 . S
C573 C571 1.415 . S
C574 H564 0.930 . S
C574 C572 1.419 . S
C574 C575 1.362 . S
C575 H565 0.930 . S
C575 C568 1.409 . S
C575 C574 1.362 . S
H576 C582 0.930 . S
H577 C585 0.930 . S
H578 C586 0.930 . S
H579 C587 0.930 . S
H580 C590 0.930 . S
H581 C591 0.930 . S
C582 H576 0.930 . S
C582 C583 1.355 . S
C582 C584 1.415 . S
C583 C582 1.355 . S
C583 C585 1.419 . S
C584 C582 1.415 . S
C584 C589 1.425 . S
C584 C591 1.409 . S
C585 H577 0.930 . S
C585 C583 1.419 . S
C585 C586 1.362 . S
C586 H578 0.930 . S
C586 C585 1.362 . S
C586 C589 1.409 . S
C587 H579 0.930 . S
C587 C588 1.355 . S
C587 C589 1.415 . S
C588 C587 1.355 . S
C588 C590 1.419 . S
C589 C584 1.425 . S
C589 C586 1.409 . S
C589 C587 1.415 . S
C590 H580 0.930 . S
C590 C588 1.419 . S
C590 C591 1.362 . S
C591 H581 0.930 . S
C591 C584 1.409 . S
C591 C590 1.362 . S
H592 C598 0.930 . S
H593 C601 0.930 . S
H594 C602 0.930 . S
H595 C603 0.930 . S
H596 C606 0.930 . S
H597 C607 0.930 . S
C598 H592 0.930 . S
C598 C599 1.355 . S
C598 C600 1.415 . S
C599 C598 1.355 . S
C599 C601 1.419 . S
C600 C598 1.415 . S
C600 C605 1.425 . S
C600 C607 1.409 . S
C601 H593 0.930 . S
C601 C599 1.419 . S
C601 C602 1.362 . S
C602 H594 0.930 . S
C602 C601 1.362 . S
C602 C605 1.409 . S
C603 H595 0.930 . S
C603 C604 1.355 . S
C603 C605 1.415 . S
C604 C603 1.355 . S
C604 C606 1.419 . S
C605 C600 1.425 . S
C605 C602 1.409 . S
C605 C603 1.415 . S
C606 H596 0.930 . S
C606 C604 1.419 . S
C606 C607 1.362 . S
C607 H597 0.930 . S
C607 C600 1.409 . S
C607 C606 1.362 . S
H608 C614 0.930 . S
H609 C617 0.930 . S
H610 C618 0.930 . S
H611 C619 0.930 . S
H612 C622 0.930 . S
H613 C623 0.930 . S
C614 H608 0.930 . S
C614 C615 1.355 . S
C614 C616 1.415 . S
C615 C614 1.355 . S
C615 C617 1.419 . S
C616 C614 1.415 . S
C616 C621 1.425 . S
C616 C623 1.409 . S
C617 H609 0.930 . S
C617 C615 1.419 . S
C617 C618 1.362 . S
C618 H610 0.930 . S
C618 C617 1.362 . S
C618 C621 1.409 . S
C619 H611 0.930 . S
C619 C620 1.355 . S
C619 C621 1.415 . S
C620 C619 1.355 . S
C620 C622 1.419 . S
C621 C616 1.425 . S
C621 C618 1.409 . S
C621 C619 1.415 . S
C622 H612 0.930 . S
C622 C620 1.419 . S
C622 C623 1.362 . S
C623 H613 0.930 . S
C623 C616 1.409 . S
C623 C622 1.362 . S
C247 N14 1.175 . S
C252 N6 1.175 . S
C263 N44 1.208 . S
C268 N36 1.208 1_554 S
C279 N74 1.164 . S
C284 N66 1.164 . S
C295 N104 1.152 . S
C300 N96 1.152 . S
C311 N134 1.155 . S
C316 N126 1.155 . S
C327 N156 1.197 1_554 S
C332 N164 1.196 . S
C343 N194 1.177 . S
C348 N186 1.177 . S
C359 N216 1.203 . S
C364 N224 1.203 . S
C375 C57 1.578 . S
C380 C16 1.578 . S
C391 C106 1.573 . S
C396 C87 1.573 . S
C407 C136 1.591 . S
C412 C177 1.591 . S
C423 C207 1.574 . S
C428 C226 1.574 . S
C439 C27 1.816 . S
C444 C166 1.816 . S
C455 C147 1.775 . S
C460 C46 1.775 . S
C471 C76 1.758 . S
C476 C237 1.758 . S
C487 C117 1.794 . S
C492 C196 1.794 . S
C503 C10 1.671 . S
C508 C100 1.666 . S
C519 C40 1.601 . S
C524 C70 1.589 . S
C535 C31 1.621 . S
C540 C61 1.630 . S
C551 C91 1.613 . S
C556 C1 1.603 . S
C567 C130 1.660 . S
C572 C220 1.668 . S
C583 C160 1.588 . S
C588 C190 1.584 . S
C599 C151 1.626 . S
C604 C181 1.638 . S
C615 C211 1.586 . S
C620 C121 1.596 . S
