# Generated by pormake.
# Topology smc, (6)-cn, num edge types: 1
# Building blocks:
#     Node 0, Type 0, BuildingBlock: KUMBUR_clean_sbu_1, # of connection points: 6
#     Node 1, Type 0, BuildingBlock: KUMBUR_clean_sbu_1, # of connection points: 6
#     Node 2, Type 0, BuildingBlock: KUMBUR_clean_sbu_1, # of connection points: 6
#     Node 3, Type 0, BuildingBlock: KUMBUR_clean_sbu_1, # of connection points: 6
#     Node 4, Type 0, BuildingBlock: KUMBUR_clean_sbu_1, # of connection points: 6
#     Node 5, Type 0, BuildingBlock: KUMBUR_clean_sbu_1, # of connection points: 6
#     Node 6, Type 0, BuildingBlock: KUMBUR_clean_sbu_1, # of connection points: 6
#     Node 7, Type 0, BuildingBlock: KUMBUR_clean_sbu_1, # of connection points: 6
#     Node 8, Type 0, BuildingBlock: KUMBUR_clean_sbu_1, # of connection points: 6
#     Edge 9, Type (0, 0), None
#     Edge 10, Type (0, 0), None
#     Edge 11, Type (0, 0), None
#     Edge 12, Type (0, 0), None
#     Edge 13, Type (0, 0), None
#     Edge 14, Type (0, 0), None
#     Edge 15, Type (0, 0), None
#     Edge 16, Type (0, 0), None
#     Edge 17, Type (0, 0), None
#     Edge 18, Type (0, 0), None
#     Edge 19, Type (0, 0), None
#     Edge 20, Type (0, 0), None
#     Edge 21, Type (0, 0), None
#     Edge 22, Type (0, 0), None
#     Edge 23, Type (0, 0), None
#     Edge 24, Type (0, 0), None
#     Edge 25, Type (0, 0), None
#     Edge 26, Type (0, 0), None
#     Edge 27, Type (0, 0), None
#     Edge 28, Type (0, 0), None
#     Edge 29, Type (0, 0), None
#     Edge 30, Type (0, 0), None
#     Edge 31, Type (0, 0), None
#     Edge 32, Type (0, 0), None
#     Edge 33, Type (0, 0), None
#     Edge 34, Type (0, 0), None
#     Edge 35, Type (0, 0), None
# Relax obj value: 0.183
# Max RMSD: 0.375
# Mean RMSD: 0.375
data_MOF--net-smc--node1-KUMBUR_clean_sbu_1--edge1-none
_symmetry_space_group_name_H-M    P1
_symmetry_Int_Tables_number       1
_symmetry_cell_setting            triclinic
loop_
_symmetry_equiv_pos_as_xyz
'x, y, z'
_cell_length_a     21.980405
_cell_length_b     21.993989
_cell_length_c     18.330754
_cell_angle_alpha  90.098378
_cell_angle_beta   90.093127
_cell_angle_gamma 120.31838
loop_
_atom_site_label
_atom_site_type_symbol
_atom_site_fract_x
_atom_site_fract_y
_atom_site_fract_z
_atom_type_partial_charge
Tb0 Tb 0.10456 0.43143 0.9192 0.0
C1 C 1.01341 0.64972 0.05387 0.0
N2 N 0.05587 0.60893 0.06038 0.0
C3 C 0.07785 0.61379 0.21978 0.0
C4 C 0.9833 0.67982 0.12424 0.0
C5 C 0.09384 0.59819 0.13024 0.0
C6 C 0.99768 0.67049 0.214 0.0
C7 C 0.9767 0.72948 -0.01705 0.0
C8 C 0.99078 0.65881 -0.01734 0.0
C9 C 0.95149 0.74443 0.04531 0.0
C10 C 0.95252 0.71859 0.11201 0.0
Tb11 Tb 1.00198 0.5145 0.96331 0.0
N12 N 0.99258 0.61516 0.9121 0.0
C13 C 0.96976 0.77346 0.91209 0.0
C14 C 0.98364 0.63457 0.82585 0.0
C15 C 0.9699 0.74806 0.82705 0.0
H16 H 0.13254 0.58229 0.12383 0.0
H17 H 0.95222 0.77117 0.78658 0.0
H18 H 0.03898 0.31257 0.79146 0.0
H19 H 0.33029 0.44644 0.02785 0.0
H20 H 0.9693 0.59931 0.78039 0.0
H21 H 0.95856 0.81511 0.92159 0.0
H22 H 0.25696 0.49307 -0.00242 0.0
H23 H 0.09668 0.59852 0.26447 0.0
H24 H 0.92799 0.77713 0.0414 0.0
H25 H 0.93194 0.73152 0.15826 0.0
H26 H 0.95805 0.18716 0.78707 0.0
H27 H 0.97542 0.68904 0.2559 0.0
H28 H 0.27055 0.31904 0.07136 0.0
N29 N 0.06333 0.31562 0.89725 0.0
C30 C 0.0814 0.28028 0.94342 0.0
C31 C 0.98969 0.20998 0.83333 0.0
C32 C 0.05528 0.20727 0.93513 0.0
C33 C 1.02529 0.28241 0.83878 0.0
C34 C 1.00549 0.1712 0.88111 0.0
N35 N 0.16581 0.39168 -0.01837 0.0
C36 C 0.23391 0.4368 0.00114 0.0
C37 C 0.17658 0.29272 0.01497 0.0
C38 C 0.13892 0.32107 -0.01556 0.0
C39 C 0.24243 0.33911 0.04304 0.0
C40 C 0.27419 0.41066 0.02625 0.0
H41 H 0.98769 0.11658 0.86903 0.0
H42 H 0.07327 0.12186 0.96157 0.0
H43 H 0.18484 0.20034 0.02156 0.0
O44 O 0.20337 0.5169 0.90248 0.0
O45 O 1.00094 0.35286 -0.029 0.0
O46 O 0.93155 0.40479 -0.02828 0.0
O47 O 0.16354 0.43163 0.82341 0.0
O48 O 0.11456 0.42122 0.03359 0.0
O49 O 0.05856 0.48248 0.06467 0.0
O50 O 0.91242 0.51796 0.91935 0.0
O51 O 0.08649 0.58581 0.89774 0.0
O52 O 0.14864 0.54511 0.95539 0.0
O53 O 0.90453 0.46411 0.01575 0.0
O54 O 1.00798 0.43761 0.86426 0.0
O55 O 1.01219 0.43124 0.8602 0.0
C56 C 0.93972 0.35088 -0.02018 0.0
C57 C 0.29472 0.52733 0.82408 0.0
C58 C 0.42489 0.58504 0.84828 0.0
C59 C 0.43563 0.62281 0.78424 0.0
C60 C 0.31084 0.56638 0.76024 0.0
C61 C 0.37945 0.61797 0.74445 0.0
C62 C 0.35305 0.53758 0.86911 0.0
C63 C 0.09871 0.45017 0.08458 0.0
C64 C 0.21779 0.49143 0.84621 0.0
C65 C 0.08967 0.17688 -0.03026 0.0
C66 C 0.15283 0.22113 0.00536 0.0
C67 C 0.14683 0.59711 0.91945 0.0
C68 C 0.82849 0.51113 0.01195 0.0
C69 C 0.76701 0.57915 0.01486 0.0
C70 C 0.79678 0.6047 0.08254 0.0
C71 C 0.83506 0.52006 0.08734 0.0
C72 C 0.7821 0.53022 -0.02163 0.0
C73 C 0.82827 0.57304 0.1197 0.0
C74 C 0.95534 0.37466 0.82991 0.0
C75 C 0.87095 0.48371 -0.02657 0.0
H76 H 0.48727 0.651 0.76006 0.0
H77 H 0.26923 0.55935 0.72379 0.0
H78 H 0.38956 0.65005 0.69644 0.0
H79 H 0.34389 0.50812 0.91835 0.0
H80 H 0.79026 0.64469 0.10865 0.0
H81 H 0.84879 0.48873 0.12081 0.0
H82 H 0.76473 0.51438 0.92265 0.0
H83 H 0.84978 0.59095 0.17318 0.0
Tb84 Tb 0.66281 0.70832 0.94357 0.0
C85 C 0.41182 0.38188 0.05815 0.0
N86 N 0.45901 0.46502 0.07077 0.0
C87 C 0.45504 0.47149 0.23206 0.0
C88 C 0.37731 0.31614 0.12428 0.0
C89 C 0.47371 0.50925 0.14546 0.0
C90 C 0.38714 0.33343 0.21538 0.0
C91 C 0.32434 0.27005 -0.01674 0.0
C92 C 0.39962 0.35353 -0.01526 0.0
C93 C 0.30844 0.22539 0.04195 0.0
C94 C 0.33784 0.24736 0.10792 0.0
Tb95 Tb 0.55012 0.51148 -0.03228 0.0
N96 N 0.44625 0.39862 0.91453 0.0
C97 C 0.2788 0.2214 0.91267 0.0
C98 C 0.42579 0.36877 0.82775 0.0
C99 C 0.30687 0.24524 0.82945 0.0
H100 H 0.49301 0.56476 0.1465 0.0
H101 H 0.27669 0.21132 0.78633 0.0
H102 H 0.7352 0.74731 0.79214 0.0
H103 H 0.72294 0.90757 0.14935 0.0
H104 H 0.46019 0.38703 0.78239 0.0
H105 H 0.23168 0.17106 0.92087 0.0
H106 H 0.64557 0.80889 0.07384 0.0
H107 H 0.47395 0.50333 0.27997 0.0
H108 H 0.27284 0.16924 0.03569 0.0
H109 H 0.32651 0.20995 0.1499 0.0
H110 H 0.85519 0.79659 0.74782 0.0
H111 H 0.36659 0.28968 0.25417 0.0
H112 H 0.84746 0.98177 0.12102 0.0
N113 N 0.76859 0.78206 0.8944 0.0
C114 C 0.81854 0.83767 0.9324 0.0
C115 C 0.84823 0.81002 0.79923 0.0
C116 C 0.8851 0.88494 0.90225 0.0
C117 C 0.78049 0.77472 0.82587 0.0
C118 C 0.90112 0.86793 0.83536 0.0
N119 N 0.72928 0.81084 0.01249 0.0
C120 C 0.70113 0.8353 0.06308 0.0
C121 C 0.84021 0.92007 0.02738 0.0
C122 C 0.79716 0.85422 -0.00651 0.0
C123 C 0.81457 0.93608 0.08839 0.0
C124 C 0.74418 0.89446 0.10467 0.0
H125 H 0.95022 0.90273 0.80849 0.0
H126 H 0.97974 0.98738 0.91193 0.0
H127 H 0.93968 1.01901 0.02326 0.0
O128 O 0.5795 0.71993 -0.01801 0.0
O129 O 0.7166 0.65726 0.00148 0.0
O130 O 0.65898 0.54249 0.95957 0.0
O131 O 0.65604 0.79158 0.89953 0.0
O132 O 0.68001 0.69996 0.05647 0.0
O133 O 0.57183 0.60263 0.06108 0.0
O134 O 0.55013 0.42117 0.92428 0.0
O135 O 0.47917 0.52769 0.90516 0.0
O136 O 0.54993 0.6498 0.89491 0.0
O137 O 0.59717 0.46495 0.02737 0.0
O138 O 0.63469 0.60133 0.87231 0.0
O139 O 0.6453 0.61799 0.86756 0.0
C140 C 0.71355 0.59589 -0.01113 0.0
C141 C 0.5495 0.79325 0.91569 0.0
C142 C 0.48775 0.85864 0.91966 0.0
C143 C 0.45409 0.82583 0.85542 0.0
C144 C 0.51996 0.76697 0.84817 0.0
C145 C 0.46817 0.77839 0.82057 0.0
C146 C 0.5349 0.84102 0.95179 0.0
C147 C 0.62327 0.66694 0.09309 0.0
C148 C 0.60233 0.77793 0.94297 0.0
C149 C 0.92941 0.94996 0.93559 0.0
C150 C 0.90622 0.96827 -0.00201 0.0
C151 C 0.48788 0.5886 0.88662 0.0
C152 C 0.5567 0.34162 0.01123 0.0
C153 C 0.48414 0.21337 -0.00226 0.0
C154 C 0.45041 0.21442 0.06138 0.0
C155 C 0.54715 0.33015 0.08629 0.0
C156 C 0.53617 0.28001 -0.03124 0.0
C157 C 0.48781 0.26932 0.11047 0.0
C158 C 0.69936 0.61489 0.83784 0.0
C159 C 0.58259 0.41438 -0.01923 0.0
H160 H 0.42832 0.84802 0.82567 0.0
H161 H 0.54347 0.74459 0.81446 0.0
H162 H 0.44685 0.75903 0.76718 0.0
H163 H 0.56418 0.86832 0.00037 0.0
H164 H 0.40104 0.16948 0.07711 0.0
H165 H 0.57995 0.37046 0.12498 0.0
H166 H 0.55523 0.28372 0.91358 0.0
H167 H 0.47084 0.26471 0.16655 0.0
Tb168 Tb 0.37607 0.97606 0.93581 0.0
C169 C 0.67838 0.03892 0.05874 0.0
N170 N 0.5953 1.00101 0.06297 0.0
C171 C 0.57489 0.97993 0.2214 0.0
C172 C 0.73825 0.06839 0.12906 0.0
C173 C 0.54504 0.96361 0.13151 0.0
C174 C 0.71343 0.05694 0.21779 0.0
C175 C 0.78982 0.05691 -0.01008 0.0
C176 C 0.71053 0.05672 -0.01062 0.0
C177 C 0.83006 0.07691 0.05285 0.0
C178 C 0.80707 0.08852 0.11737 0.0
Tb179 Tb 0.5633 0.0663 -0.03126 0.0
N180 N 0.67039 0.06582 0.91983 0.0
C181 C 0.83905 0.0605 0.91861 0.0
C182 C 0.70112 0.07729 0.8349 0.0
C183 C 0.81839 0.07151 0.83403 0.0
H184 H 0.48949 0.92712 0.12366 0.0
H185 H 0.85828 0.08657 0.79417 0.0
H186 H 0.3699 0.11646 0.87347 0.0
H187 H 0.21179 0.82123 0.14855 0.0
H188 H 0.68619 0.09985 0.79296 0.0
H189 H 0.88788 0.06206 0.92786 0.0
H190 H 0.30525 0.85173 0.06276 0.0
H191 H 0.53874 0.96406 0.26522 0.0
H192 H 0.88445 0.08949 0.05091 0.0
H193 H 0.84299 0.11033 0.1621 0.0
H194 H 0.28185 0.12547 0.80858 0.0
H195 H 0.75389 0.07953 0.26036 0.0
H196 H 0.10278 0.82269 0.10735 0.0
N197 N 0.29882 1.01135 0.90479 0.0
C198 C 0.23274 0.97251 0.93045 0.0
C199 C 0.26559 0.08507 0.84605 0.0
C200 C 0.1799 0.98889 0.91402 0.0
C201 C 0.31696 0.07384 0.87422 0.0
C202 C 0.19585 0.04302 0.86599 0.0
N203 N 0.27378 0.91128 -0.0027 0.0
C204 C 0.26401 0.86302 0.04943 0.0
C205 C 0.15481 0.88402 0.01275 0.0
C206 C 0.22 0.92084 -0.02149 0.0
C207 C 0.15004 0.84611 0.07484 0.0
C208 C 0.20884 0.84228 0.09668 0.0
H209 H 0.15528 0.05236 0.84546 0.0
H210 H 0.06936 0.95474 0.92439 0.0
H211 H 0.04931 0.86411 0.01332 0.0
O212 O 0.35344 0.87401 0.93772 0.0
O213 O 0.41495 0.08431 -0.01704 0.0
O214 O 0.53386 0.14669 0.95715 0.0
O215 O 0.32309 0.91345 0.84104 0.0
O216 O 0.3644 0.98867 0.04822 0.0
O217 O 0.47718 1.01336 0.07222 0.0
O218 O 0.65805 0.15071 0.92308 0.0
O219 O 0.53651 0.98015 0.90239 0.0
O220 O 0.43989 0.92742 -0.02749 0.0
O221 O 0.62116 0.16246 0.02477 0.0
O222 O 0.47718 0.05528 0.86958 0.0
O223 O 0.46661 0.05201 0.86556 0.0
C224 C 0.47509 0.14497 -0.02647 0.0
C225 C 0.28098 0.78471 0.85622 0.0
C226 C 0.21065 0.65866 0.88723 0.0
C227 C 0.23958 0.64585 0.82588 0.0
C228 C 0.30463 0.76724 0.79433 0.0
C229 C 0.29121 0.69995 0.78466 0.0
C230 C 0.23366 0.73014 0.90439 0.0
C231 C 0.40596 0.9844 0.09454 0.0
C232 C 0.32106 0.85956 0.87551 0.0
C233 C 0.11199 0.94643 0.94044 0.0
C234 C 0.0998 0.89319 -0.01086 0.0
C235 C 0.49029 0.9248 0.93554 0.0
C236 C 0.74508 0.2281 0.01147 0.0
C237 C 0.87406 0.28747 0.00017 0.0
C238 C 0.87531 0.25209 0.06189 0.0
C239 C 0.75456 0.21781 0.0849 0.0
C240 C 0.80724 0.27363 -0.02763 0.0
C241 C 0.81799 0.22537 0.10846 0.0
C242 C 0.46715 0.10467 0.82848 0.0
C243 C 0.67223 0.19231 -0.02095 0.0
H244 H 0.21448 0.59439 0.80296 0.0
H245 H 0.33736 0.80694 0.75493 0.0
H246 H 0.31351 0.6895 0.73749 0.0
H247 H 0.21348 0.74287 0.95229 0.0
H248 H 0.92349 0.25492 0.07878 0.0
H249 H 0.71366 0.20395 0.12409 0.0
H250 H 0.80395 0.29528 0.92046 0.0
H251 H 0.8222 0.20947 0.16286 0.0
Tb252 Tb 0.76019 0.75366 0.25297 0.0
C253 C 0.67464 0.97923 0.39112 0.0
N254 N 0.7124 0.93416 0.40101 0.0
C255 C 0.72998 0.93911 0.56042 0.0
C256 C 0.64619 1.01368 0.45939 0.0
C257 C 0.74564 0.92034 0.47265 0.0
C258 C 0.65813 1.00491 0.55046 0.0
C259 C 0.64204 0.05886 0.31715 0.0
C260 C 0.65231 0.98608 0.31964 0.0
C261 C 0.61356 0.07373 0.37686 0.0
C262 C 0.61211 0.04802 0.44402 0.0
Tb263 Tb 0.66213 0.83992 0.30528 0.0
N264 N 0.65304 0.93985 0.25106 0.0
C265 C 0.63899 0.10319 0.24562 0.0
C266 C 0.64608 0.95815 0.1639 0.0
C267 C 0.6385 0.07598 0.162 0.0
H268 H 0.78218 0.90154 0.46909 0.0
H269 H 0.62572 0.10199 0.12073 0.0
H270 H 0.62417 0.59366 0.18297 0.0
H271 H 0.94081 0.79267 0.45431 0.0
H272 H 0.637 0.92168 0.11942 0.0
H273 H 0.63168 0.14748 0.2539 0.0
H274 H 0.89662 0.83405 0.35935 0.0
H275 H 0.74639 0.92285 0.60645 0.0
H276 H 0.58943 0.10569 0.37031 0.0
H277 H 0.58716 0.0572 0.48829 0.0
H278 H 0.61753 0.48617 0.14917 0.0
H279 H 0.63664 0.02526 0.59129 0.0
H280 H 0.91995 0.66549 0.4438 0.0
N281 N 0.72594 0.63765 0.23028 0.0
C282 C 0.76528 0.61627 0.26705 0.0
C283 C 0.65761 0.52102 0.183 0.0
C284 C 0.75113 0.54602 0.26283 0.0
C285 C 0.66788 0.58767 0.19422 0.0
C286 C 0.69786 0.4987 0.21811 0.0
N287 N 0.83191 0.73113 0.31605 0.0
C288 C 0.8854 0.78043 0.35741 0.0
C289 C 0.85671 0.64275 0.35245 0.0
C290 C 0.81928 0.66424 0.31054 0.0
C291 C 0.8994 0.68742 0.40599 0.0
C292 C 0.91277 0.75705 0.40993 0.0
H293 H 0.68755 0.44546 0.21015 0.0
H294 H 0.78927 0.4759 0.2891 0.0
H295 H 0.87676 0.56069 0.37533 0.0
O296 O 0.82814 0.83666 0.18199 0.0
O297 O 0.64947 0.6723 0.28246 0.0
O298 O 0.62519 0.74027 0.35585 0.0
O299 O 0.83509 0.74398 0.18806 0.0
O300 O 0.75076 0.72461 0.36719 0.0
O301 O 0.72096 0.80664 0.40148 0.0
O302 O 0.56831 0.83228 0.25784 0.0
O303 O 0.76025 0.92143 0.26673 0.0
O304 O 0.81373 0.86175 0.30647 0.0
O305 O 0.56593 0.78938 0.36079 0.0
O306 O 0.66768 0.76842 0.2035 0.0
O307 O 0.67053 0.76209 0.2001 0.0
C308 C 0.60372 0.68217 0.31952 0.0
C309 C 0.94901 0.85693 0.16799 0.0
C310 C 0.07994 0.91065 0.19878 0.0
C311 C 0.09367 0.95095 0.13625 0.0
C312 C 0.97096 0.90033 0.10756 0.0
C313 C 0.04043 0.94979 0.09452 0.0
C314 C 1.0053 0.86116 0.21485 0.0
C315 C 0.74811 0.76201 0.41952 0.0
C316 C 0.86733 0.80918 0.16816 0.0
C317 C 0.79508 0.52732 0.29761 0.0
C318 C 0.84687 0.57589 0.34349 0.0
C319 C 0.81699 0.92174 0.28572 0.0
C320 C 0.48751 0.83371 0.35055 0.0
C321 C 0.43257 0.90809 0.3499 0.0
C322 C 0.4586 0.93035 0.4195 0.0
C323 C 0.48744 0.83882 0.42648 0.0
C324 C 0.4474 0.85865 0.31377 0.0
C325 C 0.48431 0.89429 0.45856 0.0
C326 C 0.61617 0.71155 0.16169 0.0
C327 C 0.52985 0.80377 0.31564 0.0
H328 H 0.14571 0.97711 0.1139 0.0
H329 H 0.9335 0.8909 0.06617 0.0
H330 H 0.05318 0.9824 0.04663 0.0
H331 H 0.99222 0.82556 0.26029 0.0
H332 H 0.45264 0.9707 0.44555 0.0
H333 H 0.49867 0.80595 0.46059 0.0
H334 H 0.4333 0.84531 0.25694 0.0
H335 H 0.50226 0.90931 0.51374 0.0
Tb336 Tb 0.32783 0.0385 0.27864 0.0
C337 C 0.08218 0.71663 0.38946 0.0
N338 N 0.12863 0.80037 0.40053 0.0
C339 C 0.12365 0.8117 0.56112 0.0
C340 C 0.04659 0.65281 0.45763 0.0
C341 C 0.14302 0.84704 0.47367 0.0
C342 C 0.05584 0.67292 0.54864 0.0
C343 C 0.99929 0.60132 0.31514 0.0
C344 C 0.07135 0.68667 0.31614 0.0
C345 C 0.98401 0.55876 0.37547 0.0
C346 C 1.00703 0.58339 0.44318 0.0
Tb347 Tb 0.21916 0.84368 0.2997 0.0
N348 N 0.11579 0.73275 0.24546 0.0
C349 C 0.95479 0.55074 0.24414 0.0
C350 C 0.09553 0.70362 0.15859 0.0
C351 C 0.98089 0.57616 0.15981 0.0
H352 H 0.15783 0.90164 0.47233 0.0
H353 H 0.95661 0.53646 0.11866 0.0
H354 H 0.40468 0.08565 0.12703 0.0
H355 H 0.38263 0.23437 0.48493 0.0
H356 H 0.13013 0.72385 0.11314 0.0
H357 H 0.91164 0.49792 0.25282 0.0
H358 H 0.30692 0.13785 0.40665 0.0
H359 H 0.1423 0.84494 0.60784 0.0
H360 H 0.95077 0.50235 0.36982 0.0
H361 H 0.99385 0.54716 0.48734 0.0
H362 H 0.52669 0.13419 0.08547 0.0
H363 H 0.03483 0.63033 0.58883 0.0
H364 H 0.50628 0.31332 0.45619 0.0
N365 N 0.43578 0.11289 0.2317 0.0
C366 C 0.48466 0.16795 0.27128 0.0
C367 C 0.51789 0.1447 0.13768 0.0
C368 C 0.55244 0.21553 0.24322 0.0
C369 C 0.44911 0.11006 0.16233 0.0
C370 C 0.57083 0.19924 0.17719 0.0
N371 N 0.39253 0.14076 0.34827 0.0
C372 C 0.36277 0.16504 0.39704 0.0
C373 C 0.50235 0.25122 0.36407 0.0
C374 C 0.46097 0.1846 0.33081 0.0
C375 C 0.47488 0.26712 0.42365 0.0
C376 C 0.40467 0.22377 0.43942 0.0
H377 H 0.62232 0.23217 0.15328 0.0
H378 H 0.64589 0.31864 0.25401 0.0
H379 H 0.60047 0.3514 0.3599 0.0
O380 O 0.24723 0.05722 0.30981 0.0
O381 O 0.38247 0.98707 0.33595 0.0
O382 O 0.32728 0.8738 0.29036 0.0
O383 O 0.32697 0.12099 0.22561 0.0
O384 O 0.34785 0.03464 0.39125 0.0
O385 O 0.24193 0.93517 0.39375 0.0
O386 O 0.21805 0.75179 0.25778 0.0
O387 O 0.14176 0.85369 0.2418 0.0
O388 O 0.2076 0.97571 0.24533 0.0
O389 O 0.26319 0.79481 0.36118 0.0
O390 O 0.30262 0.93494 0.20596 0.0
O391 O 0.31285 0.95097 0.20178 0.0
C392 C 0.38064 0.92631 0.32208 0.0
C393 C 0.22454 0.13066 0.23435 0.0
C394 C 0.16989 0.20265 0.22865 0.0
C395 C 0.1419 0.17308 0.16168 0.0
C396 C 0.19941 0.10544 0.16502 0.0
C397 C 0.15385 0.12218 0.13103 0.0
C398 C 0.21063 0.18051 0.26697 0.0
C399 C 0.29131 0.99972 0.42728 0.0
C400 C 0.27384 0.11316 0.26688 0.0
C401 C 0.5949 0.28106 0.27628 0.0
C402 C 0.56876 0.29992 0.33584 0.0
C403 C 0.14526 0.91397 0.2345 0.0
C404 C 0.21894 0.66947 0.34745 0.0
C405 C 0.14591 0.53943 0.33551 0.0
C406 C 0.11257 0.54106 0.39894 0.0
C407 C 0.2069 0.659 0.42221 0.0
C408 C 0.20045 0.60644 0.30745 0.0
C409 C 0.14852 0.59757 0.44656 0.0
C410 C 0.36852 0.95025 0.17368 0.0
C411 C 0.24776 0.74323 0.31568 0.0
H412 H 0.11179 0.19177 0.13295 0.0
H413 H 0.221 0.07858 0.13502 0.0
H414 H 0.13208 0.09944 0.07843 0.0
H415 H 0.23512 0.20504 0.31845 0.0
H416 H 0.06358 0.49611 0.41551 0.0
H417 H 0.23908 0.69926 0.461 0.0
H418 H 0.22143 0.60937 0.25334 0.0
H419 H 0.13022 0.59435 0.50181 0.0
Tb420 Tb 0.04077 0.30045 0.25986 0.0
C421 C 0.34292 0.36994 0.38983 0.0
N422 N 0.25961 0.33077 0.3931 0.0
C423 C 0.23887 0.30988 0.55204 0.0
C424 C 0.40233 0.40063 0.46035 0.0
C425 C 0.20942 0.2927 0.46178 0.0
C426 C 0.37705 0.3893 0.54884 0.0
C427 C 0.45705 0.39386 0.32105 0.0
C428 C 0.37553 0.38896 0.32114 0.0
C429 C 0.4963 0.41266 0.38462 0.0
C430 C 0.47174 0.42232 0.44926 0.0
Tb431 Tb 0.22649 0.39575 0.29751 0.0
N432 N 0.33366 0.39566 0.25247 0.0
C433 C 0.50732 0.40071 0.2493 0.0
C434 C 0.36298 0.4081 0.16782 0.0
C435 C 0.48442 0.40998 0.16509 0.0
H436 H 0.15435 0.25438 0.45394 0.0
H437 H 0.51869 0.41862 0.12149 0.0
H438 H 0.99235 0.36292 0.12319 0.0
H439 H 0.88456 0.13477 0.4688 0.0
H440 H 0.34152 0.42782 0.13124 0.0
H441 H 0.55736 0.40377 0.2576 0.0
H442 H 0.97275 0.16933 0.3773 0.0
H443 H 0.20305 0.2926 0.5957 0.0
H444 H 0.55098 0.42626 0.38311 0.0
H445 H 0.50678 0.44389 0.49477 0.0
H446 H 0.92923 0.42683 0.11477 0.0
H447 H 0.41744 0.41224 0.59139 0.0
H448 H 0.77697 0.14814 0.44361 0.0
N449 N 0.95783 0.32625 0.22493 0.0
C450 C 0.89963 0.30054 0.26607 0.0
C451 C 0.91936 0.39236 0.15795 0.0
C452 C 0.84614 0.31638 0.25147 0.0
C453 C 0.96417 0.36596 0.1675 0.0
C454 C 0.85865 0.36693 0.19936 0.0
N455 N 0.94195 0.23641 0.32571 0.0
C456 C 0.93202 0.18272 0.37044 0.0
C457 C 0.8265 0.21422 0.35241 0.0
C458 C 0.88987 0.25104 0.31573 0.0
C459 C 0.82276 0.17124 0.40917 0.0
C460 C 0.87923 0.15974 0.42083 0.0
H461 H 0.8199 0.38204 0.1869 0.0
H462 H 0.73643 0.28253 0.26823 0.0
H463 H 0.72026 0.1916 0.35654 0.0
O464 O 0.033 0.20367 0.25898 0.0
O465 O 0.07448 0.40892 0.30968 0.0
O466 O 0.19594 0.47387 0.29719 0.0
O467 O 0.97551 0.22531 0.17617 0.0
O468 O 1.02588 0.31041 0.37318 0.0
O469 O 0.1379 0.33592 0.39865 0.0
O470 O 0.32174 0.4809 0.25302 0.0
O471 O 0.20603 0.32285 0.21484 0.0
O472 O 0.11501 0.26129 0.28965 0.0
O473 O 0.28112 0.49461 0.35003 0.0
O474 O 0.14365 0.39088 0.19592 0.0
O475 O 0.12972 0.38531 0.19093 0.0
C476 C 0.13635 0.4702 0.31147 0.0
C477 C 0.94793 0.09958 0.2026 0.0
C478 C 0.88567 0.98706 0.27104 0.0
C479 C 0.944 0.97934 0.26106 0.0
C480 C 0.98608 0.0714 0.17203 0.0
C481 C 0.99518 0.02303 0.2122 0.0
C482 C 0.89333 0.05414 0.25228 0.0
C483 C 0.06628 0.30544 0.42046 0.0
C484 C 0.99057 0.17902 0.20381 0.0
C485 C 0.7802 0.27551 0.28298 0.0
C486 C 0.77045 0.22314 0.33219 0.0
C487 C 0.1663 0.26498 0.24812 0.0
C488 C 0.40547 0.56169 0.34173 0.0
C489 C 0.53514 0.62356 0.33983 0.0
C490 C 0.53407 0.59101 0.40464 0.0
C491 C 0.41054 0.5488 0.41515 0.0
C492 C 0.47008 0.60866 0.30622 0.0
C493 C 0.47203 0.55559 0.44283 0.0
C494 C 0.12734 0.44135 0.16587 0.0
C495 C 0.33372 0.52428 0.30632 0.0
H496 H 0.9466 0.93574 0.28456 0.0
H497 H 1.01637 0.09409 0.12352 0.0
H498 H 0.04044 1.01783 0.20428 0.0
H499 H 0.85646 0.06863 0.27319 0.0
H500 H 0.58245 0.5999 0.42935 0.0
H501 H 0.36746 0.53397 0.45156 0.0
H502 H 0.46992 0.62977 0.25295 0.0
H503 H 0.4717 0.53444 0.49556 0.0
Tb504 Tb 0.42328 0.08228 0.59068 0.0
C505 C 0.34375 0.316 0.72215 0.0
N506 N 0.38241 0.27174 0.73148 0.0
C507 C 0.40257 0.27795 0.89034 0.0
C508 C 0.31579 0.35056 0.791 0.0
C509 C 0.41762 0.25959 0.80233 0.0
C510 C 0.32882 0.34205 0.88147 0.0
C511 C 0.30434 0.3898 0.64785 0.0
C512 C 0.31727 0.31886 0.65122 0.0
C513 C 0.27754 0.40607 0.70828 0.0
C514 C 0.28085 0.38485 0.77668 0.0
Tb515 Tb 0.32882 0.17329 0.63974 0.0
N516 N 0.31884 0.27242 0.58312 0.0
C517 C 0.3001 0.43292 0.57569 0.0
C518 C 0.31155 0.28977 0.49543 0.0
C519 C 0.30095 0.40595 0.49211 0.0
H520 H 0.4556 0.24262 0.79763 0.0
H521 H 0.2873 0.4309 0.44986 0.0
H522 H 0.29595 0.92416 0.51162 0.0
H523 H 0.61525 0.13356 0.78573 0.0
H524 H 0.30192 0.25293 0.45122 0.0
H525 H 0.29186 0.47651 0.58391 0.0
H526 H 0.56522 0.16792 0.68989 0.0
H527 H 0.42184 0.26342 0.93601 0.0
H528 H 0.25217 0.43691 0.70163 0.0
H529 H 0.25699 0.39643 0.82157 0.0
H530 H 0.29313 0.81567 0.4828 0.0
H531 H 0.30899 0.36354 0.92111 0.0
H532 H 0.58567 1.00364 0.78976 0.0
N533 N 0.39041 0.966 0.57254 0.0
C534 C 0.42763 0.94504 0.6139 0.0
C535 C 0.3277 0.8501 0.52225 0.0
C536 C 0.4121 0.87428 0.61435 0.0
C537 C 0.33629 0.91652 0.53163 0.0
C538 C 0.36287 0.82709 0.56595 0.0
N539 N 0.49633 0.06221 0.65569 0.0
C540 C 0.55191 0.11372 0.69312 0.0
C541 C 0.51691 0.97389 0.70299 0.0
C542 C 0.48166 0.99441 0.65621 0.0
C543 C 0.56455 0.02314 0.75037 0.0
C544 C 0.58228 0.09403 0.74625 0.0
H545 H 0.35291 0.77377 0.56044 0.0
H546 H 0.43985 0.80076 0.6583 0.0
H547 H 0.52686 0.88908 0.74303 0.0
O548 O 0.48734 0.16127 0.5143 0.0
O549 O 0.31186 1.0019 0.61762 0.0
O550 O 0.29602 0.07478 0.69152 0.0
O551 O 0.49457 0.06885 0.52564 0.0
O552 O 0.41613 0.05807 0.7066 0.0
O553 O 0.39006 0.1433 0.73744 0.0
O554 O 0.23402 0.16327 0.59215 0.0
O555 O 0.42636 0.25186 0.59885 0.0
O556 O 0.48054 0.19273 0.63934 0.0
O557 O 0.23312 0.1242 0.69668 0.0
O558 O 0.33321 0.09954 0.53916 0.0
O559 O 0.33578 0.09284 0.53589 0.0
C560 C 0.26945 1.01577 0.65568 0.0
C561 C 0.60662 0.18016 0.5024 0.0
C562 C 0.73498 0.22922 0.53578 0.0
C563 C 0.7518 0.27401 0.47671 0.0
C564 C 0.63037 0.22527 0.4433 0.0
C565 C 0.70053 0.27387 0.43237 0.0
C566 C 0.6606 0.18063 0.54932 0.0
C567 C 0.41684 0.09861 0.75746 0.0
C568 C 0.52579 0.13275 0.50156 0.0
C569 C 0.45002 0.85431 0.65884 0.0
C570 C 0.5008 0.90422 0.70476 0.0
C571 C 0.48289 0.25242 0.61887 0.0
C572 C 0.15385 0.16741 0.68378 0.0
C573 C 0.09888 0.24151 0.67662 0.0
C574 C 0.13104 0.27094 0.74263 0.0
C575 C 0.15581 0.17757 0.75936 0.0
C576 C 0.11131 0.18849 0.64525 0.0
C577 C 0.15242 0.23442 0.78732 0.0
C578 C 0.28233 0.04273 0.49644 0.0
C579 C 0.19624 0.13659 0.65077 0.0
H580 H 0.80574 0.30318 0.45972 0.0
H581 H 0.59373 0.21856 0.40199 0.0
H582 H 0.71543 0.30898 0.38632 0.0
H583 H 0.64611 0.14253 0.59236 0.0
H584 H 0.13498 0.3188 0.76177 0.0
H585 H 0.16803 0.14732 0.796 0.0
H586 H 0.09432 0.17017 0.59 0.0
H587 H 0.16872 0.25158 0.84276 0.0
Tb588 Tb 0.9797 0.35763 0.59714 0.0
C589 C 0.74575 0.04541 0.72705 0.0
N590 N 0.79613 0.12858 0.7392 0.0
C591 C 0.79304 0.13654 0.90053 0.0
C592 C 0.70832 0.9807 0.79356 0.0
C593 C 0.81408 0.17416 0.81399 0.0
C594 C 0.71905 0.99891 0.88405 0.0
C595 C 0.6522 0.93373 0.65297 0.0
C596 C 0.72919 1.01648 0.65379 0.0
C597 C 0.63416 0.89004 0.7125 0.0
C598 C 0.66295 0.91217 0.77867 0.0
Tb599 Tb 0.88109 0.17008 0.63251 0.0
N600 N 0.77567 0.05996 0.58312 0.0
C601 C 0.60647 0.88432 0.58196 0.0
C602 C 0.75497 0.03007 0.49708 0.0
C603 C 0.63537 0.9078 0.49818 0.0
H604 H 0.83355 0.22967 0.81574 0.0
H605 H 0.60682 0.87344 0.45487 0.0
H606 H 0.07132 0.40859 0.45024 0.0
H607 H 1.00257 0.53327 0.80368 0.0
H608 H 0.78865 0.04872 0.45168 0.0
H609 H 0.55962 0.83357 0.59007 0.0
H610 H 0.93614 0.44314 0.71861 0.0
H611 H 0.81211 0.16796 0.94829 0.0
H612 H 0.59457 0.83465 0.70794 0.0
H613 H 0.64563 0.8751 0.8221 0.0
H614 H 0.1968 0.45533 0.42693 0.0
H615 H 0.69574 0.95529 0.92305 0.0
H616 H 0.12047 0.63483 0.76856 0.0
N617 N 0.08801 0.43564 0.55625 0.0
C618 C 0.12984 0.49218 0.59741 0.0
C619 C 0.18129 0.46768 0.47505 0.0
C620 C 0.19969 0.54127 0.57654 0.0
C621 C 0.11039 0.43072 0.49126 0.0
C622 C 0.22721 0.52544 0.51646 0.0
N623 N 1.02864 0.46071 0.66214 0.0
C624 C 0.99122 0.47877 0.70759 0.0
C625 C 0.1306 0.57442 0.68179 0.0
C626 C 0.09726 0.50773 0.64986 0.0
C627 C 0.09522 0.58727 0.73666 0.0
C628 C 1.02721 0.53517 0.75314 0.0
H629 H 0.28057 0.5603 0.49798 0.0
H630 H 0.28592 0.64804 0.58981 0.0
H631 H 0.21994 0.67806 0.67617 0.0
O632 O 0.89331 0.37152 0.61425 0.0
O633 O 0.04361 0.31613 0.65553 0.0
O634 O 0.98871 0.19881 0.62488 0.0
O635 O 0.97059 0.42384 0.52216 0.0
O636 O 1.0038 0.36944 0.70956 0.0
O637 O 0.90663 0.26328 0.72678 0.0
O638 O 0.87897 0.07904 0.58731 0.0
O639 O 0.79917 0.17255 0.57473 0.0
O640 O 0.85902 0.29292 0.58175 0.0
O641 O 0.92484 0.11926 0.69047 0.0
O642 O 0.9616 0.2554 0.53283 0.0
O643 O 0.97053 0.26844 0.52796 0.0
C644 C 0.04308 0.25507 0.64943 0.0
C645 C 0.87841 0.45364 0.53854 0.0
C646 C 0.82718 0.52872 0.55807 0.0
C647 C 0.79487 0.50714 0.49053 0.0
C648 C 0.84784 0.43679 0.46989 0.0
C649 C 0.80046 0.4568 0.44986 0.0
C650 C 0.86886 0.50073 0.58378 0.0
C651 C 0.95312 0.33279 0.75274 0.0
C652 C 0.9163 0.41777 0.56052 0.0
C653 C 0.23398 0.60812 0.60776 0.0
C654 C 0.19731 0.62513 0.65775 0.0
C655 C 0.79866 0.23087 0.57134 0.0
C656 C 0.87942 0.99627 0.67419 0.0
C657 C 0.8057 0.86841 0.6601 0.0
C658 C 0.77002 0.86919 0.72242 0.0
C659 C 0.86688 0.9847 0.74884 0.0
C660 C 0.85924 0.93487 0.63212 0.0
C661 C 0.80661 0.92407 0.77183 0.0
C662 C 1.02718 0.26971 0.49984 0.0
C663 C 0.90928 0.06934 0.6437 0.0
H664 H 0.76687 0.53142 0.46758 0.0
H665 H 0.86053 0.40798 0.43103 0.0
H666 H 0.77124 0.4362 0.40012 0.0
H667 H 0.89596 0.51796 0.63568 0.0
H668 H 0.72064 0.82375 0.73778 0.0
H669 H 0.90134 0.0232 0.78818 0.0
H670 H 0.88038 0.93856 0.57793 0.0
H671 H 0.78935 0.91889 0.82784 0.0
Tb672 Tb 0.70674 0.63237 0.59591 0.0
C673 C 1.01227 0.71523 0.72204 0.0
N674 N 0.92888 0.67324 0.72723 0.0
C675 C 0.9104 0.65105 0.88644 0.0
C676 C 0.07252 0.74666 0.79228 0.0
C677 C 0.87933 0.63445 0.79654 0.0
C678 C 0.04824 0.73302 0.88144 0.0
C679 C 0.12549 0.73701 0.65331 0.0
C680 C 0.04398 0.73158 0.65178 0.0
C681 C 0.16642 0.76246 0.71538 0.0
C682 C 0.14219 0.77197 0.78013 0.0
Tb683 Tb 0.89381 0.73212 0.63002 0.0
N684 N 1.00222 0.73598 0.58112 0.0
C685 C 0.17577 0.74168 0.58259 0.0
C686 C 0.03293 0.7464 0.49602 0.0
C687 C 0.15349 0.74824 0.49782 0.0
H688 H 0.82423 0.59586 0.7894 0.0
H689 H 0.19004 0.75866 0.45627 0.0
H690 H 0.69648 0.77313 0.53602 0.0
H691 H 0.55022 0.48211 0.81303 0.0
H692 H 1.01697 0.76587 0.45251 0.0
H693 H 0.22655 0.7476 0.59151 0.0
H694 H 0.64184 0.51107 0.72457 0.0
H695 H 0.87506 0.63359 0.9308 0.0
H696 H 0.22207 0.78233 0.71114 0.0
H697 H 0.17779 0.79667 0.82488 0.0
H698 H 0.6067 0.78507 0.4788 0.0
H699 H 0.08916 0.75613 0.92356 0.0
H700 H 0.44103 0.48506 0.77477 0.0
N701 N 0.62806 0.66574 0.56259 0.0
C702 C 0.56272 0.6258 0.58992 0.0
C703 C 0.59192 0.74116 0.51117 0.0
C704 C 0.50828 0.64043 0.57485 0.0
C705 C 0.6444 0.72913 0.53489 0.0
C706 C 0.52255 0.69648 0.53019 0.0
N707 N 0.6071 0.56766 0.65888 0.0
C708 C 0.59948 0.5209 0.71182 0.0
C709 C 0.48863 0.53961 0.67622 0.0
C710 C 0.55229 0.57551 0.63966 0.0
C711 C 0.48698 0.50607 0.74047 0.0
C712 C 0.54613 0.50205 0.76096 0.0
H713 H 0.48144 0.7067 0.5132 0.0
H714 H 0.39711 0.6027 0.58615 0.0
H715 H 0.38349 0.51874 0.68076 0.0
O716 O 0.69346 0.53334 0.59892 0.0
O717 O 0.74067 0.73887 0.64594 0.0
O718 O 0.85888 0.80697 0.61844 0.0
O719 O 0.64235 0.55911 0.51074 0.0
O720 O 0.69389 0.64824 0.70873 0.0
O721 O 0.8072 0.67657 0.73322 0.0
O722 O 0.9893 0.81804 0.58588 0.0
O723 O 0.87587 0.65091 0.5601 0.0
O724 O 0.77901 0.59086 0.6281 0.0
O725 O 0.94678 0.83027 0.68246 0.0
O726 O 0.80742 0.71665 0.52975 0.0
O727 O 0.79566 0.71202 0.52552 0.0
C728 C 0.7989 0.80129 0.63639 0.0
C729 C 0.60761 0.4316 0.5379 0.0
C730 C 0.55062 0.31852 0.60505 0.0
C731 C 0.60851 0.31175 0.58899 0.0
C732 C 0.64298 0.404 0.501 0.0
C733 C 0.65566 0.356 0.53733 0.0
C734 C 0.55631 0.38537 0.58962 0.0
C735 C 0.73618 0.64729 0.75667 0.0
C736 C 0.65148 0.51041 0.54294 0.0
C737 C 0.44102 0.59602 0.60146 0.0
C738 C 0.43198 0.54576 0.65269 0.0
C739 C 0.83055 0.59222 0.58833 0.0
C740 C 0.07051 0.90003 0.67635 0.0
C741 C 0.19982 0.96082 0.67795 0.0
C742 C 0.19716 0.93282 0.74609 0.0
C743 C 0.07376 0.8909 0.75118 0.0
C744 C 0.13586 0.94542 0.64159 0.0
C745 C 0.13442 0.89997 0.78305 0.0
C746 C 0.79536 0.76584 0.4915 0.0
C747 C 0.99963 0.86105 0.63929 0.0
H748 H 0.61344 0.26865 0.6101 0.0
H749 H 0.67023 0.42874 0.45155 0.0
H750 H 0.70146 0.35295 0.52595 0.0
H751 H 0.52008 0.39912 0.61403 0.0
H752 H 0.24464 0.94215 0.77334 0.0
H753 H 1.02957 0.87525 0.78561 0.0
H754 H 0.13712 0.96358 0.58645 0.0
H755 H 0.13216 0.87957 0.8367 0.0
loop_
_geom_bond_atom_site_label_1
_geom_bond_atom_site_label_2
_geom_bond_distance
_geom_bond_site_symmetry_2
_ccdc_geom_bond_type
Tb0 N29 2.617 . S
Tb0 N35 2.572 1_556 S
Tb0 O44 2.465 1_556 S
Tb0 O45 2.387 1_455 S
Tb0 O47 2.428 . S
Tb0 O48 2.308 1_556 S
Tb0 O52 2.349 . S
Tb0 O55 2.393 . S
Tb0 C64 2.802 . S
C1 N2 1.379 . S
C1 C4 1.416 . S
C1 C8 1.424 . S
N2 C1 1.379 . S
N2 C5 1.334 . S
N2 Tb11 2.617 1_455 S
C3 C5 1.390 . S
C3 C6 1.339 . S
C3 H23 0.930 . S
C4 C1 1.416 . S
C4 C6 1.416 . S
C4 C10 1.448 . S
C5 N2 1.334 . S
C5 C3 1.390 . S
C5 H16 0.930 1_455 S
C6 C3 1.339 . S
C6 C4 1.416 . S
C6 H27 0.930 . S
C7 C8 1.413 . S
C7 C9 1.427 . S
C7 C13 1.416 1_554 S
C8 C1 1.424 . S
C8 C7 1.413 . S
C8 N12 1.361 1_454 S
C9 C7 1.427 . S
C9 C10 1.328 . S
C9 H24 0.929 . S
C10 C4 1.448 . S
C10 C9 1.328 . S
C10 H25 0.930 . S
Tb11 N2 2.617 1_655 S
Tb11 N12 2.572 1_554 S
Tb11 O46 2.349 . S
Tb11 O49 2.393 1_655 S
Tb11 O50 2.465 1_554 S
Tb11 O51 2.387 1_655 S
Tb11 O53 2.428 . S
Tb11 O54 2.308 1_554 S
Tb11 C75 2.802 . S
N12 C8 1.361 1_656 S
N12 Tb11 2.572 1_556 S
N12 C14 1.340 . S
C13 C7 1.416 1_556 S
C13 C15 1.332 . S
C13 H21 0.931 . S
C14 N12 1.340 . S
C14 C15 1.407 1_655 S
C14 H20 0.930 . S
C15 C13 1.332 . S
C15 C14 1.407 1_455 S
C15 H17 0.929 1_455 S
H16 C5 0.930 1_655 S
H17 C15 0.929 1_655 S
H18 C33 0.930 . S
H19 C40 0.929 . S
H20 C14 0.930 . S
H21 C13 0.931 . S
H22 C36 0.930 . S
H23 C3 0.930 . S
H24 C9 0.929 . S
H25 C10 0.930 . S
H26 C31 0.930 . S
H27 C6 0.930 . S
H28 C39 0.931 . S
N29 Tb0 2.617 . S
N29 C30 1.379 . S
N29 C33 1.334 . S
C30 N29 1.379 . S
C30 C32 1.416 1_455 S
C30 C38 1.424 . S
C31 H26 0.930 . S
C31 C33 1.390 1_655 S
C31 C34 1.339 . S
C32 C30 1.416 1_655 S
C32 C34 1.416 . S
C32 C65 1.448 . S
C33 H18 0.930 . S
C33 N29 1.334 . S
C33 C31 1.390 1_455 S
C34 C31 1.339 . S
C34 C32 1.416 . S
C34 H41 0.930 . S
N35 Tb0 2.572 1_554 S
N35 C36 1.340 . S
N35 C38 1.361 1_554 S
C36 H22 0.930 . S
C36 N35 1.340 . S
C36 C40 1.407 . S
C37 C38 1.413 1_654 S
C37 C39 1.416 . S
C37 C66 1.427 1_554 S
C38 C30 1.424 . S
C38 N35 1.361 1_556 S
C38 C37 1.413 1_456 S
C39 H28 0.931 . S
C39 C37 1.416 . S
C39 C40 1.332 1_655 S
C40 H19 0.929 . S
C40 C36 1.407 . S
C40 C39 1.332 1_455 S
H41 C34 0.930 . S
H42 C65 0.930 . S
H43 C66 0.929 . S
O44 Tb0 2.465 1_554 S
O44 C64 1.264 1_554 S
O45 Tb0 2.387 1_655 S
O45 C56 1.264 1_556 S
O46 Tb11 2.349 . S
O46 C56 1.243 . S
O47 Tb0 2.428 . S
O47 C64 1.256 . S
O48 Tb0 2.308 1_554 S
O48 C63 1.266 . S
O49 Tb11 2.393 1_455 S
O49 C63 1.248 . S
O50 Tb11 2.465 1_556 S
O50 C75 1.264 1_556 S
O51 Tb11 2.387 1_455 S
O51 C67 1.264 1_554 S
O52 Tb0 2.349 . S
O52 C67 1.243 . S
O53 Tb11 2.428 . S
O53 C75 1.256 . S
O54 Tb11 2.308 1_556 S
O54 C74 1.266 . S
O55 Tb0 2.393 . S
O55 C74 1.248 1_455 S
C56 O45 1.264 1_554 S
C56 O46 1.243 . S
C57 C60 1.399 . S
C57 C62 1.383 1_556 S
C57 C64 1.496 . S
C58 C59 1.399 1_554 S
C58 C62 1.389 . S
C59 C58 1.399 1_556 S
C59 C61 1.380 . S
C59 H76 0.929 . S
C60 C57 1.399 . S
C60 C61 1.392 . S
C60 H77 0.929 . S
C61 C59 1.380 . S
C61 C60 1.392 . S
C61 H78 0.929 . S
C62 C57 1.383 1_554 S
C62 C58 1.389 . S
C62 H79 0.931 . S
C63 O48 1.266 . S
C63 O49 1.248 . S
C64 Tb0 2.802 . S
C64 O44 1.264 1_556 S
C64 O47 1.256 . S
C64 C57 1.496 . S
C65 C32 1.448 . S
C65 H42 0.930 . S
C65 C66 1.328 . S
C66 C37 1.427 1_556 S
C66 H43 0.929 . S
C66 C65 1.328 . S
C67 O51 1.264 1_556 S
C67 O52 1.243 . S
C68 C71 1.399 . S
C68 C72 1.383 1_554 S
C68 C75 1.496 . S
C69 C70 1.403 . S
C69 C72 1.389 1_554 S
C70 C69 1.403 . S
C70 C73 1.380 . S
C70 H80 0.929 . S
C71 C68 1.399 . S
C71 C73 1.392 . S
C71 H81 0.929 . S
C72 C68 1.383 1_556 S
C72 C69 1.389 1_556 S
C72 H82 0.931 . S
C73 C70 1.380 . S
C73 C71 1.392 . S
C73 H83 0.929 . S
C74 O54 1.266 . S
C74 O55 1.248 1_655 S
C75 Tb11 2.802 . S
C75 O50 1.264 1_554 S
C75 O53 1.256 . S
C75 C68 1.496 . S
H76 C59 0.929 . S
H77 C60 0.929 . S
H78 C61 0.929 . S
H79 C62 0.931 . S
H80 C70 0.929 . S
H81 C71 0.929 . S
H82 C72 0.931 . S
H83 C73 0.929 . S
Tb84 N113 2.617 . S
Tb84 N119 2.572 1_556 S
Tb84 O128 2.465 1_556 S
Tb84 O129 2.387 . S
Tb84 O131 2.428 . S
Tb84 O132 2.308 1_556 S
Tb84 O136 2.349 . S
Tb84 O139 2.393 . S
Tb84 C148 2.802 . S
C85 N86 1.379 . S
C85 C88 1.416 . S
C85 C92 1.424 . S
N86 C85 1.379 . S
N86 C89 1.334 . S
N86 Tb95 2.617 . S
C87 C89 1.390 . S
C87 C90 1.339 . S
C87 H107 0.930 . S
C88 C85 1.416 . S
C88 C90 1.416 . S
C88 C94 1.448 . S
C89 N86 1.334 . S
C89 C87 1.390 . S
C89 H100 0.930 . S
C90 C87 1.339 . S
C90 C88 1.416 . S
C90 H111 0.930 . S
C91 C92 1.413 . S
C91 C93 1.427 . S
C91 C97 1.416 1_554 S
C92 C85 1.424 . S
C92 C91 1.413 . S
C92 N96 1.361 1_554 S
C93 C91 1.427 . S
C93 C94 1.328 . S
C93 H108 0.929 . S
C94 C88 1.448 . S
C94 C93 1.328 . S
C94 H109 0.930 . S
Tb95 N86 2.617 . S
Tb95 N96 2.572 1_554 S
Tb95 O130 2.349 . S
Tb95 O133 2.393 . S
Tb95 O134 2.465 1_554 S
Tb95 O135 2.387 . S
Tb95 O137 2.428 . S
Tb95 O138 2.308 1_554 S
Tb95 C159 2.802 . S
N96 C92 1.361 1_556 S
N96 Tb95 2.572 1_556 S
N96 C98 1.340 . S
C97 C91 1.416 1_556 S
C97 C99 1.332 . S
C97 H105 0.931 . S
C98 N96 1.340 . S
C98 C99 1.407 . S
C98 H104 0.930 . S
C99 C97 1.332 . S
C99 C98 1.407 . S
C99 H101 0.929 . S
H100 C89 0.930 . S
H101 C99 0.929 . S
H102 C117 0.930 . S
H103 C124 0.929 . S
H104 C98 0.930 . S
H105 C97 0.931 . S
H106 C120 0.930 . S
H107 C87 0.930 . S
H108 C93 0.929 . S
H109 C94 0.930 . S
H110 C115 0.930 . S
H111 C90 0.930 . S
H112 C123 0.931 . S
N113 Tb84 2.617 . S
N113 C114 1.379 . S
N113 C117 1.334 . S
C114 N113 1.379 . S
C114 C116 1.416 . S
C114 C122 1.424 . S
C115 H110 0.930 . S
C115 C117 1.390 . S
C115 C118 1.339 . S
C116 C114 1.416 . S
C116 C118 1.416 . S
C116 C149 1.448 . S
C117 H102 0.930 . S
C117 N113 1.334 . S
C117 C115 1.390 . S
C118 C115 1.339 . S
C118 C116 1.416 . S
C118 H125 0.930 . S
N119 Tb84 2.572 1_554 S
N119 C120 1.340 . S
N119 C122 1.361 1_554 S
C120 H106 0.930 . S
C120 N119 1.340 . S
C120 C124 1.407 . S
C121 C122 1.413 1_554 S
C121 C123 1.416 . S
C121 C150 1.427 1_554 S
C122 C114 1.424 . S
C122 N119 1.361 1_556 S
C122 C121 1.413 1_556 S
C123 H112 0.931 . S
C123 C121 1.416 . S
C123 C124 1.332 . S
C124 H103 0.929 . S
C124 C120 1.407 . S
C124 C123 1.332 . S
H125 C118 0.930 . S
H126 C149 0.930 . S
H127 C150 0.929 . S
O128 Tb84 2.465 1_554 S
O128 C148 1.264 1_554 S
O129 Tb84 2.387 . S
O129 C140 1.264 1_556 S
O130 Tb95 2.349 . S
O130 C140 1.243 . S
O131 Tb84 2.428 . S
O131 C148 1.256 . S
O132 Tb84 2.308 1_554 S
O132 C147 1.266 . S
O133 Tb95 2.393 . S
O133 C147 1.248 . S
O134 Tb95 2.465 1_556 S
O134 C159 1.264 1_556 S
O135 Tb95 2.387 . S
O135 C151 1.264 1_554 S
O136 Tb84 2.349 . S
O136 C151 1.243 . S
O137 Tb95 2.428 . S
O137 C159 1.256 . S
O138 Tb95 2.308 1_556 S
O138 C158 1.266 . S
O139 Tb84 2.393 . S
O139 C158 1.248 . S
C140 O129 1.264 1_554 S
C140 O130 1.243 . S
C141 C144 1.399 . S
C141 C146 1.383 1_556 S
C141 C148 1.496 . S
C142 C143 1.399 1_554 S
C142 C146 1.389 . S
C143 C142 1.399 1_556 S
C143 C145 1.380 . S
C143 H160 0.929 . S
C144 C141 1.399 . S
C144 C145 1.392 . S
C144 H161 0.929 . S
C145 C143 1.380 . S
C145 C144 1.392 . S
C145 H162 0.929 . S
C146 C141 1.383 1_554 S
C146 C142 1.389 . S
C146 H163 0.931 . S
C147 O132 1.266 . S
C147 O133 1.248 . S
C148 Tb84 2.802 . S
C148 O128 1.264 1_556 S
C148 O131 1.256 . S
C148 C141 1.496 . S
C149 C116 1.448 . S
C149 H126 0.930 . S
C149 C150 1.328 . S
C150 C121 1.427 1_556 S
C150 H127 0.929 . S
C150 C149 1.328 . S
C151 O135 1.264 1_556 S
C151 O136 1.243 . S
C152 C155 1.399 . S
C152 C156 1.383 1_554 S
C152 C159 1.496 . S
C153 C154 1.403 . S
C153 C156 1.389 1_554 S
C154 C153 1.403 . S
C154 C157 1.380 . S
C154 H164 0.929 . S
C155 C152 1.399 . S
C155 C157 1.392 . S
C155 H165 0.929 . S
C156 C152 1.383 1_556 S
C156 C153 1.389 1_556 S
C156 H166 0.931 . S
C157 C154 1.380 . S
C157 C155 1.392 . S
C157 H167 0.929 . S
C158 O138 1.266 . S
C158 O139 1.248 . S
C159 Tb95 2.802 . S
C159 O134 1.264 1_554 S
C159 O137 1.256 . S
C159 C152 1.496 . S
H160 C143 0.929 . S
H161 C144 0.929 . S
H162 C145 0.929 . S
H163 C146 0.931 . S
H164 C154 0.929 . S
H165 C155 0.929 . S
H166 C156 0.931 . S
H167 C157 0.929 . S
Tb168 N197 2.617 . S
Tb168 N203 2.572 1_556 S
Tb168 O212 2.465 1_556 S
Tb168 O213 2.387 1_565 S
Tb168 O215 2.428 . S
Tb168 O216 2.308 1_556 S
Tb168 O220 2.349 . S
Tb168 O223 2.393 . S
Tb168 C232 2.802 . S
C169 N170 1.379 1_565 S
C169 C172 1.416 . S
C169 C176 1.424 . S
N170 C169 1.379 1_545 S
N170 C173 1.334 . S
N170 Tb179 2.617 . S
C171 C173 1.390 1_565 S
C171 C174 1.339 . S
C171 H191 0.930 . S
C172 C169 1.416 . S
C172 C174 1.416 . S
C172 C178 1.448 . S
C173 N170 1.334 . S
C173 C171 1.390 1_545 S
C173 H184 0.930 . S
C174 C171 1.339 . S
C174 C172 1.416 . S
C174 H195 0.930 . S
C175 C176 1.413 . S
C175 C177 1.427 . S
C175 C181 1.416 1_554 S
C176 C169 1.424 . S
C176 C175 1.413 . S
C176 N180 1.361 1_564 S
C177 C175 1.427 . S
C177 C178 1.328 . S
C177 H192 0.929 . S
C178 C172 1.448 . S
C178 C177 1.328 . S
C178 H193 0.930 . S
Tb179 N170 2.617 . S
Tb179 N180 2.572 1_554 S
Tb179 O214 2.349 . S
Tb179 O217 2.393 . S
Tb179 O218 2.465 1_554 S
Tb179 O219 2.387 1_545 S
Tb179 O221 2.428 . S
Tb179 O222 2.308 1_554 S
Tb179 C243 2.802 . S
N180 C176 1.361 1_546 S
N180 Tb179 2.572 1_556 S
N180 C182 1.340 . S
C181 C175 1.416 1_556 S
C181 C183 1.332 1_565 S
C181 H189 0.931 . S
C182 N180 1.340 . S
C182 C183 1.407 . S
C182 H188 0.930 . S
C183 C181 1.332 1_545 S
C183 C182 1.407 . S
C183 H185 0.929 . S
H184 C173 0.930 . S
H185 C183 0.929 . S
H186 C201 0.930 . S
H187 C208 0.929 . S
H188 C182 0.930 . S
H189 C181 0.931 . S
H190 C204 0.930 . S
H191 C171 0.930 . S
H192 C177 0.929 . S
H193 C178 0.930 . S
H194 C199 0.930 . S
H195 C174 0.930 . S
H196 C207 0.931 . S
N197 Tb168 2.617 . S
N197 C198 1.379 1_565 S
N197 C201 1.334 . S
C198 N197 1.379 1_545 S
C198 C200 1.416 . S
C198 C206 1.424 . S
C199 H194 0.930 . S
C199 C201 1.390 1_545 S
C199 C202 1.339 . S
C200 C198 1.416 . S
C200 C202 1.416 . S
C200 C233 1.448 . S
C201 H186 0.930 . S
C201 N197 1.334 . S
C201 C199 1.390 1_565 S
C202 C199 1.339 . S
C202 C200 1.416 . S
C202 H209 0.930 . S
N203 Tb168 2.572 1_554 S
N203 C204 1.340 . S
N203 C206 1.361 1_564 S
C204 H190 0.930 . S
C204 N203 1.340 . S
C204 C208 1.407 . S
C205 C206 1.413 1_554 S
C205 C207 1.416 . S
C205 C234 1.427 1_554 S
C206 C198 1.424 . S
C206 N203 1.361 1_546 S
C206 C205 1.413 1_556 S
C207 H196 0.931 . S
C207 C205 1.416 . S
C207 C208 1.332 1_545 S
C208 H187 0.929 . S
C208 C204 1.407 . S
C208 C207 1.332 1_565 S
H209 C202 0.930 . S
H210 C233 0.930 . S
H211 C234 0.929 . S
O212 Tb168 2.465 1_554 S
O212 C232 1.264 1_554 S
O213 Tb168 2.387 1_545 S
O213 C224 1.264 1_556 S
O214 Tb179 2.349 . S
O214 C224 1.243 . S
O215 Tb168 2.428 . S
O215 C232 1.256 . S
O216 Tb168 2.308 1_554 S
O216 C231 1.266 . S
O217 Tb179 2.393 . S
O217 C231 1.248 1_545 S
O218 Tb179 2.465 1_556 S
O218 C243 1.264 1_556 S
O219 Tb179 2.387 1_565 S
O219 C235 1.264 1_554 S
O220 Tb168 2.349 . S
O220 C235 1.243 . S
O221 Tb179 2.428 . S
O221 C243 1.256 . S
O222 Tb179 2.308 1_556 S
O222 C242 1.266 . S
O223 Tb168 2.393 . S
O223 C242 1.248 1_565 S
C224 O213 1.264 1_554 S
C224 O214 1.243 . S
C225 C228 1.399 . S
C225 C230 1.383 1_556 S
C225 C232 1.496 . S
C226 C227 1.399 1_554 S
C226 C230 1.389 . S
C227 C226 1.399 1_556 S
C227 C229 1.380 . S
C227 H244 0.929 . S
C228 C225 1.399 . S
C228 C229 1.392 . S
C228 H245 0.929 . S
C229 C227 1.380 . S
C229 C228 1.392 . S
C229 H246 0.929 . S
C230 C225 1.383 1_554 S
C230 C226 1.389 . S
C230 H247 0.931 . S
C231 O216 1.266 . S
C231 O217 1.248 1_565 S
C232 Tb168 2.802 . S
C232 O212 1.264 1_556 S
C232 O215 1.256 . S
C232 C225 1.496 . S
C233 C200 1.448 . S
C233 H210 0.930 . S
C233 C234 1.328 . S
C234 C205 1.427 1_556 S
C234 H211 0.929 . S
C234 C233 1.328 . S
C235 O219 1.264 1_556 S
C235 O220 1.243 . S
C236 C239 1.399 . S
C236 C240 1.383 1_554 S
C236 C243 1.496 . S
C237 C238 1.404 . S
C237 C240 1.389 1_554 S
C238 C237 1.404 . S
C238 C241 1.380 . S
C238 H248 0.929 . S
C239 C236 1.399 . S
C239 C241 1.392 . S
C239 H249 0.929 . S
C240 C236 1.383 1_556 S
C240 C237 1.389 1_556 S
C240 H250 0.931 . S
C241 C238 1.380 . S
C241 C239 1.392 . S
C241 H251 0.929 . S
C242 O222 1.266 . S
C242 O223 1.248 1_545 S
C243 Tb179 2.802 . S
C243 O218 1.264 1_554 S
C243 O221 1.256 . S
C243 C236 1.496 . S
H244 C227 0.929 . S
H245 C228 0.929 . S
H246 C229 0.929 . S
H247 C230 0.931 . S
H248 C238 0.929 . S
H249 C239 0.929 . S
H250 C240 0.931 . S
H251 C241 0.929 . S
Tb252 N281 2.617 . S
Tb252 N287 2.572 . S
Tb252 O296 2.465 . S
Tb252 O297 2.387 . S
Tb252 O299 2.428 . S
Tb252 O300 2.308 . S
Tb252 O304 2.349 . S
Tb252 O307 2.393 . S
Tb252 C316 2.802 . S
C253 N254 1.379 1_545 S
C253 C256 1.416 . S
C253 C260 1.424 . S
N254 C253 1.379 1_565 S
N254 C257 1.334 . S
N254 Tb263 2.617 . S
C255 C257 1.390 . S
C255 C258 1.339 1_565 S
C255 H275 0.930 . S
C256 C253 1.416 . S
C256 C258 1.416 . S
C256 C262 1.448 . S
C257 N254 1.334 . S
C257 C255 1.390 . S
C257 H268 0.930 . S
C258 C255 1.339 1_545 S
C258 C256 1.416 . S
C258 H279 0.930 . S
C259 C260 1.413 . S
C259 C261 1.427 . S
C259 C265 1.416 . S
C260 C253 1.424 . S
C260 C259 1.413 . S
C260 N264 1.361 1_545 S
C261 C259 1.427 . S
C261 C262 1.328 . S
C261 H276 0.929 . S
C262 C256 1.448 . S
C262 C261 1.328 . S
C262 H277 0.930 . S
Tb263 N254 2.617 . S
Tb263 N264 2.572 . S
Tb263 O298 2.349 . S
Tb263 O301 2.393 . S
Tb263 O302 2.465 . S
Tb263 O303 2.387 . S
Tb263 O305 2.428 . S
Tb263 O306 2.308 . S
Tb263 C327 2.802 . S
N264 C260 1.361 1_565 S
N264 Tb263 2.572 . S
N264 C266 1.340 . S
C265 C259 1.416 . S
C265 C267 1.332 . S
C265 H273 0.931 . S
C266 N264 1.340 . S
C266 C267 1.407 1_565 S
C266 H272 0.930 . S
C267 C265 1.332 . S
C267 C266 1.407 1_545 S
C267 H269 0.929 . S
H268 C257 0.930 . S
H269 C267 0.929 . S
H270 C285 0.930 . S
H271 C292 0.929 . S
H272 C266 0.930 . S
H273 C265 0.931 . S
H274 C288 0.930 . S
H275 C255 0.930 . S
H276 C261 0.929 . S
H277 C262 0.930 . S
H278 C283 0.930 . S
H279 C258 0.930 . S
H280 C291 0.931 . S
N281 Tb252 2.617 . S
N281 C282 1.379 . S
N281 C285 1.334 . S
C282 N281 1.379 . S
C282 C284 1.416 . S
C282 C290 1.424 . S
C283 H278 0.930 . S
C283 C285 1.390 . S
C283 C286 1.339 . S
C284 C282 1.416 . S
C284 C286 1.416 . S
C284 C317 1.448 . S
C285 H270 0.930 . S
C285 N281 1.334 . S
C285 C283 1.390 . S
C286 C283 1.339 . S
C286 C284 1.416 . S
C286 H293 0.930 . S
N287 Tb252 2.572 . S
N287 C288 1.340 . S
N287 C290 1.361 . S
C288 H274 0.930 . S
C288 N287 1.340 . S
C288 C292 1.407 . S
C289 C290 1.413 . S
C289 C291 1.416 . S
C289 C318 1.427 . S
C290 C282 1.424 . S
C290 N287 1.361 . S
C290 C289 1.413 . S
C291 H280 0.931 . S
C291 C289 1.416 . S
C291 C292 1.332 . S
C292 H271 0.929 . S
C292 C288 1.407 . S
C292 C291 1.332 . S
H293 C286 0.930 . S
H294 C317 0.930 . S
H295 C318 0.929 . S
O296 Tb252 2.465 . S
O296 C316 1.264 . S
O297 Tb252 2.387 . S
O297 C308 1.264 . S
O298 Tb263 2.349 . S
O298 C308 1.243 . S
O299 Tb252 2.428 . S
O299 C316 1.256 . S
O300 Tb252 2.308 . S
O300 C315 1.266 . S
O301 Tb263 2.393 . S
O301 C315 1.248 . S
O302 Tb263 2.465 . S
O302 C327 1.264 . S
O303 Tb263 2.387 . S
O303 C319 1.264 . S
O304 Tb252 2.349 . S
O304 C319 1.243 . S
O305 Tb263 2.428 . S
O305 C327 1.256 . S
O306 Tb263 2.308 . S
O306 C326 1.266 . S
O307 Tb252 2.393 . S
O307 C326 1.248 . S
C308 O297 1.264 . S
C308 O298 1.243 . S
C309 C312 1.399 . S
C309 C314 1.383 . S
C309 C316 1.496 . S
C310 C311 1.399 . S
C310 C314 1.389 1_455 S
C311 C310 1.399 . S
C311 C313 1.380 . S
C311 H328 0.929 . S
C312 C309 1.399 . S
C312 C313 1.392 1_655 S
C312 H329 0.929 . S
C313 C311 1.380 . S
C313 C312 1.392 1_455 S
C313 H330 0.929 . S
C314 C309 1.383 . S
C314 C310 1.389 1_655 S
C314 H331 0.931 . S
C315 O300 1.266 . S
C315 O301 1.248 . S
C316 Tb252 2.802 . S
C316 O296 1.264 . S
C316 O299 1.256 . S
C316 C309 1.496 . S
C317 C284 1.448 . S
C317 H294 0.930 . S
C317 C318 1.328 . S
C318 C289 1.427 . S
C318 H295 0.929 . S
C318 C317 1.328 . S
C319 O303 1.264 . S
C319 O304 1.243 . S
C320 C323 1.399 . S
C320 C324 1.383 . S
C320 C327 1.496 . S
C321 C322 1.399 . S
C321 C324 1.389 . S
C322 C321 1.399 . S
C322 C325 1.380 . S
C322 H332 0.929 . S
C323 C320 1.399 . S
C323 C325 1.392 . S
C323 H333 0.929 . S
C324 C320 1.383 . S
C324 C321 1.389 . S
C324 H334 0.931 . S
C325 C322 1.380 . S
C325 C323 1.392 . S
C325 H335 0.929 . S
C326 O306 1.266 . S
C326 O307 1.248 . S
C327 Tb263 2.802 . S
C327 O302 1.264 . S
C327 O305 1.256 . S
C327 C320 1.496 . S
H328 C311 0.929 . S
H329 C312 0.929 . S
H330 C313 0.929 . S
H331 C314 0.931 . S
H332 C322 0.929 . S
H333 C323 0.929 . S
H334 C324 0.931 . S
H335 C325 0.929 . S
Tb336 N365 2.617 1_565 S
Tb336 N371 2.572 1_565 S
Tb336 O380 2.465 1_565 S
Tb336 O381 2.387 . S
Tb336 O383 2.428 1_565 S
Tb336 O384 2.308 . S
Tb336 O388 2.349 . S
Tb336 O391 2.393 . S
Tb336 C400 2.802 1_565 S
C337 N338 1.379 . S
C337 C340 1.416 1_455 S
C337 C344 1.424 1_455 S
N338 C337 1.379 . S
N338 C341 1.334 . S
N338 Tb347 2.617 . S
C339 C341 1.390 . S
C339 C342 1.339 1_455 S
C339 H359 0.930 . S
C340 C337 1.416 1_655 S
C340 C342 1.416 . S
C340 C346 1.448 . S
C341 N338 1.334 . S
C341 C339 1.390 . S
C341 H352 0.930 . S
C342 C339 1.339 1_655 S
C342 C340 1.416 . S
C342 H363 0.930 . S
C343 C344 1.413 . S
C343 C345 1.427 . S
C343 C349 1.416 . S
C344 C337 1.424 1_655 S
C344 C343 1.413 . S
C344 N348 1.361 1_655 S
C345 C343 1.427 . S
C345 C346 1.328 . S
C345 H360 0.929 . S
C346 C340 1.448 . S
C346 C345 1.328 . S
C346 H361 0.930 . S
Tb347 N338 2.617 . S
Tb347 N348 2.572 . S
Tb347 O382 2.349 . S
Tb347 O385 2.393 . S
Tb347 O386 2.465 . S
Tb347 O387 2.387 . S
Tb347 O389 2.428 . S
Tb347 O390 2.308 . S
Tb347 C411 2.802 . S
N348 C344 1.361 1_455 S
N348 Tb347 2.572 . S
N348 C350 1.340 . S
C349 C343 1.416 . S
C349 C351 1.332 . S
C349 H357 0.931 . S
C350 N348 1.340 . S
C350 C351 1.407 1_455 S
C350 H356 0.930 . S
C351 C349 1.332 . S
C351 C350 1.407 1_655 S
C351 H353 0.929 . S
H352 C341 0.930 . S
H353 C351 0.929 . S
H354 C369 0.930 . S
H355 C376 0.929 . S
H356 C350 0.930 . S
H357 C349 0.931 . S
H358 C372 0.930 . S
H359 C339 0.930 . S
H360 C345 0.929 . S
H361 C346 0.930 . S
H362 C367 0.930 . S
H363 C342 0.930 . S
H364 C375 0.931 . S
N365 Tb336 2.617 1_545 S
N365 C366 1.379 . S
N365 C369 1.334 . S
C366 N365 1.379 . S
C366 C368 1.416 . S
C366 C374 1.424 . S
C367 H362 0.930 . S
C367 C369 1.390 . S
C367 C370 1.339 . S
C368 C366 1.416 . S
C368 C370 1.416 . S
C368 C401 1.448 . S
C369 H354 0.930 . S
C369 N365 1.334 . S
C369 C367 1.390 . S
C370 C367 1.339 . S
C370 C368 1.416 . S
C370 H377 0.930 . S
N371 Tb336 2.572 1_545 S
N371 C372 1.340 . S
N371 C374 1.361 . S
C372 H358 0.930 . S
C372 N371 1.340 . S
C372 C376 1.407 . S
C373 C374 1.413 . S
C373 C375 1.416 . S
C373 C402 1.427 . S
C374 C366 1.424 . S
C374 N371 1.361 . S
C374 C373 1.413 . S
C375 H364 0.931 . S
C375 C373 1.416 . S
C375 C376 1.332 . S
C376 H355 0.929 . S
C376 C372 1.407 . S
C376 C375 1.332 . S
H377 C370 0.930 . S
H378 C401 0.930 . S
H379 C402 0.929 . S
O380 Tb336 2.465 1_545 S
O380 C400 1.264 . S
O381 Tb336 2.387 . S
O381 C392 1.264 . S
O382 Tb347 2.349 . S
O382 C392 1.243 . S
O383 Tb336 2.428 1_545 S
O383 C400 1.256 . S
O384 Tb336 2.308 . S
O384 C399 1.266 . S
O385 Tb347 2.393 . S
O385 C399 1.248 . S
O386 Tb347 2.465 . S
O386 C411 1.264 . S
O387 Tb347 2.387 . S
O387 C403 1.264 . S
O388 Tb336 2.349 . S
O388 C403 1.243 . S
O389 Tb347 2.428 . S
O389 C411 1.256 . S
O390 Tb347 2.308 . S
O390 C410 1.266 . S
O391 Tb336 2.393 . S
O391 C410 1.248 . S
C392 O381 1.264 . S
C392 O382 1.243 . S
C393 C396 1.399 . S
C393 C398 1.383 . S
C393 C400 1.496 . S
C394 C395 1.399 . S
C394 C398 1.389 . S
C395 C394 1.399 . S
C395 C397 1.380 . S
C395 H412 0.929 . S
C396 C393 1.399 . S
C396 C397 1.392 . S
C396 H413 0.929 . S
C397 C395 1.380 . S
C397 C396 1.392 . S
C397 H414 0.929 . S
C398 C393 1.383 . S
C398 C394 1.389 . S
C398 H415 0.931 . S
C399 O384 1.266 . S
C399 O385 1.248 . S
C400 Tb336 2.802 1_545 S
C400 O380 1.264 . S
C400 O383 1.256 . S
C400 C393 1.496 . S
C401 C368 1.448 . S
C401 H378 0.930 . S
C401 C402 1.328 . S
C402 C373 1.427 . S
C402 H379 0.929 . S
C402 C401 1.328 . S
C403 O387 1.264 . S
C403 O388 1.243 . S
C404 C407 1.399 . S
C404 C408 1.383 . S
C404 C411 1.496 . S
C405 C406 1.399 . S
C405 C408 1.389 . S
C406 C405 1.399 . S
C406 C409 1.380 . S
C406 H416 0.929 . S
C407 C404 1.399 . S
C407 C409 1.392 . S
C407 H417 0.929 . S
C408 C404 1.383 . S
C408 C405 1.389 . S
C408 H418 0.931 . S
C409 C406 1.380 . S
C409 C407 1.392 . S
C409 H419 0.929 . S
C410 O390 1.266 . S
C410 O391 1.248 . S
C411 Tb347 2.802 . S
C411 O386 1.264 . S
C411 O389 1.256 . S
C411 C404 1.496 . S
H412 C395 0.929 . S
H413 C396 0.929 . S
H414 C397 0.929 . S
H415 C398 0.931 . S
H416 C406 0.929 . S
H417 C407 0.929 . S
H418 C408 0.931 . S
H419 C409 0.929 . S
Tb420 N449 2.617 1_455 S
Tb420 N455 2.572 1_455 S
Tb420 O464 2.465 1_455 S
Tb420 O465 2.387 . S
Tb420 O467 2.428 1_455 S
Tb420 O468 2.308 . S
Tb420 O472 2.349 . S
Tb420 O475 2.393 . S
Tb420 C484 2.802 1_455 S
C421 N422 1.379 . S
C421 C424 1.416 . S
C421 C428 1.424 . S
N422 C421 1.379 . S
N422 C425 1.334 . S
N422 Tb431 2.617 . S
C423 C425 1.390 . S
C423 C426 1.339 . S
C423 H443 0.930 . S
C424 C421 1.416 . S
C424 C426 1.416 . S
C424 C430 1.448 . S
C425 N422 1.334 . S
C425 C423 1.390 . S
C425 H436 0.930 . S
C426 C423 1.339 . S
C426 C424 1.416 . S
C426 H447 0.930 . S
C427 C428 1.413 . S
C427 C429 1.427 . S
C427 C433 1.416 . S
C428 C421 1.424 . S
C428 C427 1.413 . S
C428 N432 1.361 . S
C429 C427 1.427 . S
C429 C430 1.328 . S
C429 H444 0.929 . S
C430 C424 1.448 . S
C430 C429 1.328 . S
C430 H445 0.930 . S
Tb431 N422 2.617 . S
Tb431 N432 2.572 . S
Tb431 O466 2.349 . S
Tb431 O469 2.393 . S
Tb431 O470 2.465 . S
Tb431 O471 2.387 . S
Tb431 O473 2.428 . S
Tb431 O474 2.308 . S
Tb431 C495 2.802 . S
N432 C428 1.361 . S
N432 Tb431 2.572 . S
N432 C434 1.340 . S
C433 C427 1.416 . S
C433 C435 1.332 . S
C433 H441 0.931 . S
C434 N432 1.340 . S
C434 C435 1.407 . S
C434 H440 0.930 . S
C435 C433 1.332 . S
C435 C434 1.407 . S
C435 H437 0.929 . S
H436 C425 0.930 . S
H437 C435 0.929 . S
H438 C453 0.930 1_455 S
H439 C460 0.929 . S
H440 C434 0.930 . S
H441 C433 0.931 . S
H442 C456 0.930 . S
H443 C423 0.930 . S
H444 C429 0.929 . S
H445 C430 0.930 . S
H446 C451 0.930 . S
H447 C426 0.930 . S
H448 C459 0.931 . S
N449 Tb420 2.617 1_655 S
N449 C450 1.379 . S
N449 C453 1.334 . S
C450 N449 1.379 . S
C450 C452 1.416 . S
C450 C458 1.424 . S
C451 H446 0.930 . S
C451 C453 1.390 . S
C451 C454 1.339 . S
C452 C450 1.416 . S
C452 C454 1.416 . S
C452 C485 1.448 . S
C453 H438 0.930 1_655 S
C453 N449 1.334 . S
C453 C451 1.390 . S
C454 C451 1.339 . S
C454 C452 1.416 . S
C454 H461 0.930 . S
N455 Tb420 2.572 1_655 S
N455 C456 1.340 . S
N455 C458 1.361 . S
C456 H442 0.930 . S
C456 N455 1.340 . S
C456 C460 1.407 . S
C457 C458 1.413 . S
C457 C459 1.416 . S
C457 C486 1.427 . S
C458 C450 1.424 . S
C458 N455 1.361 . S
C458 C457 1.413 . S
C459 H448 0.931 . S
C459 C457 1.416 . S
C459 C460 1.332 . S
C460 H439 0.929 . S
C460 C456 1.407 . S
C460 C459 1.332 . S
H461 C454 0.930 . S
H462 C485 0.930 . S
H463 C486 0.929 . S
O464 Tb420 2.465 1_655 S
O464 C484 1.264 . S
O465 Tb420 2.387 . S
O465 C476 1.264 . S
O466 Tb431 2.349 . S
O466 C476 1.243 . S
O467 Tb420 2.428 1_655 S
O467 C484 1.256 . S
O468 Tb420 2.308 . S
O468 C483 1.266 . S
O469 Tb431 2.393 . S
O469 C483 1.248 . S
O470 Tb431 2.465 . S
O470 C495 1.264 . S
O471 Tb431 2.387 . S
O471 C487 1.264 . S
O472 Tb420 2.349 . S
O472 C487 1.243 . S
O473 Tb431 2.428 . S
O473 C495 1.256 . S
O474 Tb431 2.308 . S
O474 C494 1.266 . S
O475 Tb420 2.393 . S
O475 C494 1.248 . S
C476 O465 1.264 . S
C476 O466 1.243 . S
C477 C480 1.399 . S
C477 C482 1.383 . S
C477 C484 1.496 . S
C478 C479 1.399 . S
C478 C482 1.389 1_565 S
C479 C478 1.399 . S
C479 C481 1.380 . S
C479 H496 0.929 . S
C480 C477 1.399 . S
C480 C481 1.392 1_545 S
C480 H497 0.929 . S
C481 C479 1.380 . S
C481 C480 1.392 1_565 S
C481 H498 0.929 . S
C482 C477 1.383 . S
C482 C478 1.389 1_545 S
C482 H499 0.931 . S
C483 O468 1.266 . S
C483 O469 1.248 . S
C484 Tb420 2.802 1_655 S
C484 O464 1.264 . S
C484 O467 1.256 . S
C484 C477 1.496 . S
C485 C452 1.448 . S
C485 H462 0.930 . S
C485 C486 1.328 . S
C486 C457 1.427 . S
C486 H463 0.929 . S
C486 C485 1.328 . S
C487 O471 1.264 . S
C487 O472 1.243 . S
C488 C491 1.399 . S
C488 C492 1.383 . S
C488 C495 1.496 . S
C489 C490 1.399 . S
C489 C492 1.389 . S
C490 C489 1.399 . S
C490 C493 1.380 . S
C490 H500 0.929 . S
C491 C488 1.399 . S
C491 C493 1.392 . S
C491 H501 0.929 . S
C492 C488 1.383 . S
C492 C489 1.389 . S
C492 H502 0.931 . S
C493 C490 1.380 . S
C493 C491 1.392 . S
C493 H503 0.929 . S
C494 O474 1.266 . S
C494 O475 1.248 . S
C495 Tb431 2.802 . S
C495 O470 1.264 . S
C495 O473 1.256 . S
C495 C488 1.496 . S
H496 C479 0.929 . S
H497 C480 0.929 . S
H498 C481 0.929 . S
H499 C482 0.931 . S
H500 C490 0.929 . S
H501 C491 0.929 . S
H502 C492 0.931 . S
H503 C493 0.929 . S
Tb504 N533 2.617 1_545 S
Tb504 N539 2.572 1_545 S
Tb504 O548 2.465 . S
Tb504 O549 2.387 . S
Tb504 O551 2.428 . S
Tb504 O552 2.308 . S
Tb504 O556 2.349 . S
Tb504 O559 2.393 . S
Tb504 C568 2.802 . S
C505 N506 1.379 . S
C505 C508 1.416 . S
C505 C512 1.424 . S
N506 C505 1.379 . S
N506 C509 1.334 . S
N506 Tb515 2.617 . S
C507 C509 1.390 . S
C507 C510 1.339 . S
C507 H527 0.930 . S
C508 C505 1.416 . S
C508 C510 1.416 . S
C508 C514 1.448 . S
C509 N506 1.334 . S
C509 C507 1.390 . S
C509 H520 0.930 . S
C510 C507 1.339 . S
C510 C508 1.416 . S
C510 H531 0.930 . S
C511 C512 1.413 . S
C511 C513 1.427 . S
C511 C517 1.416 . S
C512 C505 1.424 . S
C512 C511 1.413 . S
C512 N516 1.361 . S
C513 C511 1.427 . S
C513 C514 1.328 . S
C513 H528 0.929 . S
C514 C508 1.448 . S
C514 C513 1.328 . S
C514 H529 0.930 . S
Tb515 N506 2.617 . S
Tb515 N516 2.572 . S
Tb515 O550 2.349 . S
Tb515 O553 2.393 . S
Tb515 O554 2.465 . S
Tb515 O555 2.387 . S
Tb515 O557 2.428 . S
Tb515 O558 2.308 . S
Tb515 C579 2.802 . S
N516 C512 1.361 . S
N516 Tb515 2.572 . S
N516 C518 1.340 . S
C517 C511 1.416 . S
C517 C519 1.332 . S
C517 H525 0.931 . S
C518 N516 1.340 . S
C518 C519 1.407 . S
C518 H524 0.930 . S
C519 C517 1.332 . S
C519 C518 1.407 . S
C519 H521 0.929 . S
H520 C509 0.930 . S
H521 C519 0.929 . S
H522 C537 0.930 1_545 S
H523 C544 0.929 . S
H524 C518 0.930 . S
H525 C517 0.931 . S
H526 C540 0.930 . S
H527 C507 0.930 . S
H528 C513 0.929 . S
H529 C514 0.930 . S
H530 C535 0.930 . S
H531 C510 0.930 . S
H532 C543 0.931 . S
N533 Tb504 2.617 1_565 S
N533 C534 1.379 . S
N533 C537 1.334 . S
C534 N533 1.379 . S
C534 C536 1.416 . S
C534 C542 1.424 . S
C535 H530 0.930 . S
C535 C537 1.390 . S
C535 C538 1.339 . S
C536 C534 1.416 . S
C536 C538 1.416 . S
C536 C569 1.448 . S
C537 H522 0.930 1_565 S
C537 N533 1.334 . S
C537 C535 1.390 . S
C538 C535 1.339 . S
C538 C536 1.416 . S
C538 H545 0.930 . S
N539 Tb504 2.572 1_565 S
N539 C540 1.340 . S
N539 C542 1.361 . S
C540 H526 0.930 . S
C540 N539 1.340 . S
C540 C544 1.407 . S
C541 C542 1.413 . S
C541 C543 1.416 . S
C541 C570 1.427 . S
C542 C534 1.424 . S
C542 N539 1.361 . S
C542 C541 1.413 . S
C543 H532 0.931 . S
C543 C541 1.416 . S
C543 C544 1.332 . S
C544 H523 0.929 . S
C544 C540 1.407 . S
C544 C543 1.332 . S
H545 C538 0.930 . S
H546 C569 0.930 . S
H547 C570 0.929 . S
O548 Tb504 2.465 . S
O548 C568 1.264 . S
O549 Tb504 2.387 . S
O549 C560 1.264 . S
O550 Tb515 2.349 . S
O550 C560 1.243 . S
O551 Tb504 2.428 . S
O551 C568 1.256 . S
O552 Tb504 2.308 . S
O552 C567 1.266 . S
O553 Tb515 2.393 . S
O553 C567 1.248 . S
O554 Tb515 2.465 . S
O554 C579 1.264 . S
O555 Tb515 2.387 . S
O555 C571 1.264 . S
O556 Tb504 2.349 . S
O556 C571 1.243 . S
O557 Tb515 2.428 . S
O557 C579 1.256 . S
O558 Tb515 2.308 . S
O558 C578 1.266 . S
O559 Tb504 2.393 . S
O559 C578 1.248 . S
C560 O549 1.264 . S
C560 O550 1.243 . S
C561 C564 1.399 . S
C561 C566 1.383 . S
C561 C568 1.496 . S
C562 C563 1.399 . S
C562 C566 1.389 . S
C563 C562 1.399 . S
C563 C565 1.380 . S
C563 H580 0.929 . S
C564 C561 1.399 . S
C564 C565 1.392 . S
C564 H581 0.929 . S
C565 C563 1.380 . S
C565 C564 1.392 . S
C565 H582 0.929 . S
C566 C561 1.383 . S
C566 C562 1.389 . S
C566 H583 0.931 . S
C567 O552 1.266 . S
C567 O553 1.248 . S
C568 Tb504 2.802 . S
C568 O548 1.264 . S
C568 O551 1.256 . S
C568 C561 1.496 . S
C569 C536 1.448 . S
C569 H546 0.930 . S
C569 C570 1.328 . S
C570 C541 1.427 . S
C570 H547 0.929 . S
C570 C569 1.328 . S
C571 O555 1.264 . S
C571 O556 1.243 . S
C572 C575 1.399 . S
C572 C576 1.383 . S
C572 C579 1.496 . S
C573 C574 1.399 . S
C573 C576 1.389 1_655 S
C574 C573 1.399 . S
C574 C577 1.380 1_655 S
C574 H584 0.929 . S
C575 C572 1.399 . S
C575 C577 1.392 . S
C575 H585 0.929 . S
C576 C572 1.383 . S
C576 C573 1.389 1_455 S
C576 H586 0.931 . S
C577 C574 1.380 1_455 S
C577 C575 1.392 . S
C577 H587 0.929 1_455 S
C578 O558 1.266 . S
C578 O559 1.248 . S
C579 Tb515 2.802 . S
C579 O554 1.264 . S
C579 O557 1.256 . S
C579 C572 1.496 . S
H580 C563 0.929 . S
H581 C564 0.929 . S
H582 C565 0.929 . S
H583 C566 0.931 . S
H584 C574 0.929 . S
H585 C575 0.929 . S
H586 C576 0.931 . S
H587 C577 0.929 1_655 S
Tb588 N617 2.617 1_655 S
Tb588 N623 2.572 1_655 S
Tb588 O632 2.465 . S
Tb588 O633 2.387 1_655 S
Tb588 O635 2.428 . S
Tb588 O636 2.308 . S
Tb588 O640 2.349 . S
Tb588 O643 2.393 . S
Tb588 C652 2.802 . S
C589 N590 1.379 . S
C589 C592 1.416 1_545 S
C589 C596 1.424 . S
N590 C589 1.379 . S
N590 C593 1.334 . S
N590 Tb599 2.617 . S
C591 C593 1.390 . S
C591 C594 1.339 . S
C591 H611 0.930 . S
C592 C589 1.416 1_565 S
C592 C594 1.416 1_565 S
C592 C598 1.448 . S
C593 N590 1.334 . S
C593 C591 1.390 . S
C593 H604 0.930 . S
C594 C591 1.339 . S
C594 C592 1.416 1_545 S
C594 H615 0.930 1_545 S
C595 C596 1.412 1_565 S
C595 C597 1.427 . S
C595 C601 1.416 . S
C596 C589 1.424 . S
C596 C595 1.412 1_545 S
C596 N600 1.361 . S
C597 C595 1.427 . S
C597 C598 1.328 . S
C597 H612 0.929 . S
C598 C592 1.448 . S
C598 C597 1.328 . S
C598 H613 0.930 . S
Tb599 N590 2.617 . S
Tb599 N600 2.572 . S
Tb599 O634 2.349 . S
Tb599 O637 2.393 . S
Tb599 O638 2.465 . S
Tb599 O639 2.387 . S
Tb599 O641 2.428 . S
Tb599 O642 2.308 . S
Tb599 C663 2.802 . S
N600 C596 1.361 . S
N600 Tb599 2.572 . S
N600 C602 1.340 . S
C601 C595 1.416 . S
C601 C603 1.332 . S
C601 H609 0.931 . S
C602 N600 1.340 . S
C602 C603 1.407 1_545 S
C602 H608 0.930 . S
C603 C601 1.332 . S
C603 C602 1.407 1_565 S
C603 H605 0.929 . S
H604 C593 0.930 . S
H605 C603 0.929 . S
H606 C621 0.930 1_655 S
H607 C628 0.929 . S
H608 C602 0.930 . S
H609 C601 0.931 . S
H610 C624 0.930 . S
H611 C591 0.930 . S
H612 C597 0.929 . S
H613 C598 0.930 . S
H614 C619 0.930 . S
H615 C594 0.930 1_565 S
H616 C627 0.931 . S
N617 Tb588 2.617 1_455 S
N617 C618 1.379 . S
N617 C621 1.334 . S
C618 N617 1.379 . S
C618 C620 1.416 . S
C618 C626 1.424 . S
C619 H614 0.930 . S
C619 C621 1.390 . S
C619 C622 1.339 . S
C620 C618 1.416 . S
C620 C622 1.416 . S
C620 C653 1.448 . S
C621 H606 0.930 1_455 S
C621 N617 1.334 . S
C621 C619 1.390 . S
C622 C619 1.339 . S
C622 C620 1.416 . S
C622 H629 0.930 . S
N623 Tb588 2.572 1_455 S
N623 C624 1.340 . S
N623 C626 1.361 . S
C624 H610 0.930 . S
C624 N623 1.340 . S
C624 C628 1.407 . S
C625 C626 1.413 . S
C625 C627 1.416 . S
C625 C654 1.427 . S
C626 C618 1.424 . S
C626 N623 1.361 . S
C626 C625 1.413 . S
C627 H616 0.931 . S
C627 C625 1.416 . S
C627 C628 1.332 . S
C628 H607 0.929 . S
C628 C624 1.407 . S
C628 C627 1.332 . S
H629 C622 0.930 . S
H630 C653 0.930 . S
H631 C654 0.929 . S
O632 Tb588 2.465 . S
O632 C652 1.264 . S
O633 Tb588 2.387 1_455 S
O633 C644 1.264 . S
O634 Tb599 2.349 . S
O634 C644 1.243 1_655 S
O635 Tb588 2.428 . S
O635 C652 1.256 . S
O636 Tb588 2.308 . S
O636 C651 1.266 . S
O637 Tb599 2.393 . S
O637 C651 1.248 . S
O638 Tb599 2.465 . S
O638 C663 1.264 . S
O639 Tb599 2.387 . S
O639 C655 1.264 . S
O640 Tb588 2.349 . S
O640 C655 1.243 . S
O641 Tb599 2.428 . S
O641 C663 1.256 . S
O642 Tb599 2.308 . S
O642 C662 1.266 . S
O643 Tb588 2.393 . S
O643 C662 1.248 . S
C644 O633 1.264 . S
C644 O634 1.243 1_455 S
C645 C648 1.399 . S
C645 C650 1.383 . S
C645 C652 1.496 . S
C646 C647 1.399 . S
C646 C650 1.389 . S
C647 C646 1.399 . S
C647 C649 1.380 . S
C647 H664 0.929 . S
C648 C645 1.399 . S
C648 C649 1.392 . S
C648 H665 0.929 . S
C649 C647 1.380 . S
C649 C648 1.392 . S
C649 H666 0.929 . S
C650 C645 1.383 . S
C650 C646 1.389 . S
C650 H667 0.931 . S
C651 O636 1.266 . S
C651 O637 1.248 . S
C652 Tb588 2.802 . S
C652 O632 1.264 . S
C652 O635 1.256 . S
C652 C645 1.496 . S
C653 C620 1.448 . S
C653 H630 0.930 . S
C653 C654 1.328 . S
C654 C625 1.427 . S
C654 H631 0.929 . S
C654 C653 1.328 . S
C655 O639 1.264 . S
C655 O640 1.243 . S
C656 C659 1.399 . S
C656 C660 1.383 . S
C656 C663 1.496 1_565 S
C657 C658 1.399 . S
C657 C660 1.389 . S
C658 C657 1.399 . S
C658 C661 1.380 . S
C658 H668 0.929 . S
C659 C656 1.399 . S
C659 C661 1.392 . S
C659 H669 0.929 . S
C660 C656 1.383 . S
C660 C657 1.389 . S
C660 H670 0.931 . S
C661 C658 1.380 . S
C661 C659 1.392 . S
C661 H671 0.929 . S
C662 O642 1.266 . S
C662 O643 1.248 . S
C663 Tb599 2.802 . S
C663 O638 1.264 . S
C663 O641 1.256 . S
C663 C656 1.496 1_545 S
H664 C647 0.929 . S
H665 C648 0.929 . S
H666 C649 0.929 . S
H667 C650 0.931 . S
H668 C658 0.929 . S
H669 C659 0.929 . S
H670 C660 0.931 . S
H671 C661 0.929 . S
Tb672 N701 2.617 . S
Tb672 N707 2.572 . S
Tb672 O716 2.465 . S
Tb672 O717 2.387 . S
Tb672 O719 2.428 . S
Tb672 O720 2.308 . S
Tb672 O724 2.349 . S
Tb672 O727 2.393 . S
Tb672 C736 2.802 . S
C673 N674 1.385 . S
C673 C676 1.411 1_655 S
C673 C680 1.422 1_655 S
N674 C673 1.385 . S
N674 C677 1.334 . S
N674 Tb683 2.617 . S
C675 C677 1.390 . S
C675 C678 1.339 1_655 S
C675 H695 0.930 . S
C676 C673 1.411 1_455 S
C676 C678 1.416 . S
C676 C682 1.448 . S
C677 N674 1.334 . S
C677 C675 1.390 . S
C677 H688 0.930 . S
C678 C675 1.339 1_455 S
C678 C676 1.416 . S
C678 H699 0.930 . S
C679 C680 1.413 . S
C679 C681 1.427 . S
C679 C685 1.416 . S
C680 C673 1.422 1_455 S
C680 C679 1.413 . S
C680 N684 1.361 1_455 S
C681 C679 1.427 . S
C681 C682 1.328 . S
C681 H696 0.929 . S
C682 C676 1.448 . S
C682 C681 1.328 . S
C682 H697 0.930 . S
Tb683 N674 2.617 . S
Tb683 N684 2.572 . S
Tb683 O718 2.349 . S
Tb683 O721 2.393 . S
Tb683 O722 2.465 . S
Tb683 O723 2.387 . S
Tb683 O725 2.428 . S
Tb683 O726 2.308 . S
Tb683 C747 2.802 1_655 S
N684 C680 1.361 1_655 S
N684 Tb683 2.572 . S
N684 C686 1.340 1_655 S
C685 C679 1.416 . S
C685 C687 1.332 . S
C685 H693 0.931 . S
C686 N684 1.340 1_455 S
C686 C687 1.407 . S
C686 H692 0.930 1_455 S
C687 C685 1.332 . S
C687 C686 1.407 . S
C687 H689 0.929 . S
H688 C677 0.930 . S
H689 C687 0.929 . S
H690 C705 0.930 . S
H691 C712 0.929 . S
H692 C686 0.930 1_655 S
H693 C685 0.931 . S
H694 C708 0.930 . S
H695 C675 0.930 . S
H696 C681 0.929 . S
H697 C682 0.930 . S
H698 C703 0.930 . S
H699 C678 0.930 . S
H700 C711 0.931 . S
N701 Tb672 2.617 . S
N701 C702 1.379 . S
N701 C705 1.334 . S
C702 N701 1.379 . S
C702 C704 1.416 . S
C702 C710 1.424 . S
C703 H698 0.930 . S
C703 C705 1.390 . S
C703 C706 1.339 . S
C704 C702 1.416 . S
C704 C706 1.416 . S
C704 C737 1.448 . S
C705 H690 0.930 . S
C705 N701 1.334 . S
C705 C703 1.390 . S
C706 C703 1.339 . S
C706 C704 1.416 . S
C706 H713 0.930 . S
N707 Tb672 2.572 . S
N707 C708 1.340 . S
N707 C710 1.361 . S
C708 H694 0.930 . S
C708 N707 1.340 . S
C708 C712 1.407 . S
C709 C710 1.413 . S
C709 C711 1.416 . S
C709 C738 1.427 . S
C710 C702 1.424 . S
C710 N707 1.361 . S
C710 C709 1.413 . S
C711 H700 0.931 . S
C711 C709 1.416 . S
C711 C712 1.332 . S
C712 H691 0.929 . S
C712 C708 1.407 . S
C712 C711 1.332 . S
H713 C706 0.930 . S
H714 C737 0.930 . S
H715 C738 0.929 . S
O716 Tb672 2.465 . S
O716 C736 1.264 . S
O717 Tb672 2.387 . S
O717 C728 1.264 . S
O718 Tb683 2.349 . S
O718 C728 1.243 . S
O719 Tb672 2.428 . S
O719 C736 1.256 . S
O720 Tb672 2.308 . S
O720 C735 1.266 . S
O721 Tb683 2.393 . S
O721 C735 1.248 . S
O722 Tb683 2.465 . S
O722 C747 1.264 1_655 S
O723 Tb683 2.387 . S
O723 C739 1.264 . S
O724 Tb672 2.349 . S
O724 C739 1.243 . S
O725 Tb683 2.428 . S
O725 C747 1.256 1_655 S
O726 Tb683 2.308 . S
O726 C746 1.266 . S
O727 Tb672 2.393 . S
O727 C746 1.248 . S
C728 O717 1.264 . S
C728 O718 1.243 . S
C729 C732 1.399 . S
C729 C734 1.383 . S
C729 C736 1.496 . S
C730 C731 1.399 . S
C730 C734 1.389 . S
C731 C730 1.399 . S
C731 C733 1.380 . S
C731 H748 0.929 . S
C732 C729 1.399 . S
C732 C733 1.392 . S
C732 H749 0.929 . S
C733 C731 1.380 . S
C733 C732 1.392 . S
C733 H750 0.929 . S
C734 C729 1.383 . S
C734 C730 1.389 . S
C734 H751 0.931 . S
C735 O720 1.266 . S
C735 O721 1.248 . S
C736 Tb672 2.802 . S
C736 O716 1.264 . S
C736 O719 1.256 . S
C736 C729 1.496 . S
C737 C704 1.448 . S
C737 H714 0.930 . S
C737 C738 1.328 . S
C738 C709 1.427 . S
C738 H715 0.929 . S
C738 C737 1.328 . S
C739 O723 1.264 . S
C739 O724 1.243 . S
C740 C743 1.399 . S
C740 C744 1.383 . S
C740 C747 1.496 . S
C741 C742 1.399 . S
C741 C744 1.389 1_545 S
C742 C741 1.399 . S
C742 C745 1.380 . S
C742 H752 0.929 . S
C743 C740 1.399 . S
C743 C745 1.392 1_565 S
C743 H753 0.929 . S
C744 C740 1.383 . S
C744 C741 1.389 1_565 S
C744 H754 0.931 . S
C745 C742 1.380 . S
C745 C743 1.392 1_545 S
C745 H755 0.929 . S
C746 O726 1.266 . S
C746 O727 1.248 . S
C747 Tb683 2.802 1_455 S
C747 O722 1.264 1_455 S
C747 O725 1.256 1_455 S
C747 C740 1.496 . S
H748 C731 0.929 . S
H749 C732 0.929 . S
H750 C733 0.929 . S
H751 C734 0.931 . S
H752 C742 0.929 . S
H753 C743 0.929 . S
H754 C744 0.931 . S
H755 C745 0.929 . S
C151 C58 1.884 1_556 S
C235 C142 1.884 1_556 S
C226 C67 1.884 1_554 S
C224 C153 2.024 . S
C237 C56 2.024 . S
C69 C140 2.024 . S
C310 C403 1.884 . S
C487 C394 1.884 . S
C478 C319 1.884 . S
C405 C476 2.023 . S
C489 C308 2.023 . S
C392 C321 2.023 . S
C655 C562 1.884 . S
C646 C739 1.884 . S
C730 C571 1.884 . S
C728 C657 2.023 . S
C741 C560 2.023 . S
C573 C644 2.023 1_655 S
C494 C63 4.281 . S
C326 C147 4.281 . S
C231 C410 4.281 . S
C242 C567 4.281 . S
C74 C651 4.281 . S
C735 C158 4.281 . S
C315 C746 4.281 . S
C399 C578 4.281 1_565 S
C662 C483 4.281 1_655 S
