# Generated by pormake.
# Topology npo, (4)-cn, num edge types: 1
# Building blocks:
#     Node 0, Type 0, BuildingBlock: CEKHIL_clean_sbu_0, # of connection points: 4
#     Node 1, Type 0, BuildingBlock: CEKHIL_clean_sbu_0, # of connection points: 4
#     Node 2, Type 0, BuildingBlock: CEKHIL_clean_sbu_0, # of connection points: 4
#     Node 3, Type 0, BuildingBlock: CEKHIL_clean_sbu_0, # of connection points: 4
#     Node 4, Type 0, BuildingBlock: CEKHIL_clean_sbu_0, # of connection points: 4
#     Node 5, Type 0, BuildingBlock: CEKHIL_clean_sbu_0, # of connection points: 4
#     Edge 6, Type (0, 0), BuildingBlock: XIVTED_clean_linker_0, # of connection points: 2
#     Edge 7, Type (0, 0), BuildingBlock: XIVTED_clean_linker_0, # of connection points: 2
#     Edge 8, Type (0, 0), BuildingBlock: XIVTED_clean_linker_0, # of connection points: 2
#     Edge 9, Type (0, 0), BuildingBlock: XIVTED_clean_linker_0, # of connection points: 2
#     Edge 10, Type (0, 0), BuildingBlock: XIVTED_clean_linker_0, # of connection points: 2
#     Edge 11, Type (0, 0), BuildingBlock: XIVTED_clean_linker_0, # of connection points: 2
#     Edge 12, Type (0, 0), BuildingBlock: XIVTED_clean_linker_0, # of connection points: 2
#     Edge 13, Type (0, 0), BuildingBlock: XIVTED_clean_linker_0, # of connection points: 2
#     Edge 14, Type (0, 0), BuildingBlock: XIVTED_clean_linker_0, # of connection points: 2
#     Edge 15, Type (0, 0), BuildingBlock: XIVTED_clean_linker_0, # of connection points: 2
#     Edge 16, Type (0, 0), BuildingBlock: XIVTED_clean_linker_0, # of connection points: 2
#     Edge 17, Type (0, 0), BuildingBlock: XIVTED_clean_linker_0, # of connection points: 2
# Relax obj value: 0.296
# Max RMSD: 0.247
# Mean RMSD: 0.243
data_MOF--net-npo--node1-CEKHIL_clean_sbu_0--edge1-XIVTED_clean_linker_0
_symmetry_space_group_name_H-M    P1
_symmetry_Int_Tables_number       1
_symmetry_cell_setting            triclinic
loop_
_symmetry_equiv_pos_as_xyz
'x, y, z'
_cell_length_a     44.659347
_cell_length_b     44.172225
_cell_length_c     23.429699
_cell_angle_alpha  90.935757
_cell_angle_beta   90.091035
_cell_angle_gamma 120.18805
loop_
_atom_site_label
_atom_site_type_symbol
_atom_site_fract_x
_atom_site_fract_y
_atom_site_fract_z
_atom_type_partial_charge
Co0 Co 0.54274 0.0935 0.22289 0.0
O1 O 0.50463 0.05074 0.25165 0.0
O2 O 0.55931 0.07536 0.28107 0.0
C3 C 0.51574 0.12487 0.22516 0.0
O4 O 0.58851 0.13761 0.20912 0.0
Co5 Co 0.54094 0.12916 0.1105 0.0
O6 O 0.58501 0.16941 0.1384 0.0
C7 C 0.55399 0.06961 0.10682 0.0
C8 C 0.52729 0.05088 0.28683 0.0
C9 C 0.60139 0.16542 0.1793 0.0
O10 O 0.55253 0.06718 0.16154 0.0
O11 O 0.54864 0.09129 0.07934 0.0
O12 O 0.52892 0.12034 0.27149 0.0
O13 O 0.5166 0.108 0.18023 0.0
Co14 Co 0.44314 0.55454 0.77752 0.0
O15 O 0.4808 0.55272 0.74112 0.0
O16 O 0.42637 0.50906 0.74235 0.0
C17 C 0.45382 0.60594 0.74306 0.0
O18 O 0.39707 0.54771 0.80568 0.0
Co19 Co 0.45681 0.61263 0.86745 0.0
O20 O 0.4072 0.59671 0.85332 0.0
C21 C 0.46593 0.55385 0.90037 0.0
C22 C 0.45779 0.52134 0.724 0.0
C23 C 0.38668 0.56743 0.82879 0.0
O24 O 0.45272 0.53826 0.85216 0.0
O25 O 0.47253 0.58497 0.91253 0.0
O26 O 0.43788 0.57762 0.71171 0.0
O27 O 0.46672 0.60308 0.79079 0.0
Co28 Co 0.87439 0.42389 0.25732 0.0
O29 O 0.91443 0.42281 0.2859 0.0
O30 O 0.89528 0.45712 0.31943 0.0
C31 C 0.8381 0.36575 0.25409 0.0
O32 O 0.83295 0.43078 0.24446 0.0
Co33 Co 0.83789 0.39046 0.14105 0.0
O34 O 0.79971 0.39582 0.17211 0.0
C35 C 0.90348 0.45824 0.14327 0.0
C36 C 0.91686 0.44568 0.32405 0.0
C37 C 0.80467 0.41609 0.21474 0.0
O38 O 0.90384 0.45985 0.19837 0.0
O39 O 0.88062 0.43226 0.11368 0.0
O40 O 0.84443 0.38304 0.30219 0.0
O41 O 0.85638 0.38339 0.21131 0.0
Co42 Co 0.4272 0.87748 0.71281 0.0
O43 O 0.43516 0.92191 0.68577 0.0
O44 O 0.46286 0.8947 0.65639 0.0
C45 C 0.36901 0.85009 0.70752 0.0
O46 O 0.4257 0.83152 0.72606 0.0
Co47 Co 0.38544 0.84015 0.82086 0.0
O48 O 0.38315 0.79787 0.78601 0.0
C49 C 0.45965 0.89595 0.83092 0.0
C50 C 0.45733 0.92071 0.65122 0.0
C51 C 0.40614 0.80211 0.74993 0.0
O52 O 0.46222 0.90058 0.7766 0.0
O53 O 0.43145 0.87445 0.85566 0.0
O54 O 0.38696 0.85352 0.662 0.0
O55 O 0.38667 0.86528 0.75327 0.0
Co56 Co 0.5163 0.39392 0.27273 0.0
O57 O 0.47905 0.39793 0.23847 0.0
O58 O 0.53482 0.43796 0.23506 0.0
C59 C 0.49769 0.33864 0.24228 0.0
O60 O 0.56254 0.39934 0.29656 0.0
Co61 Co 0.50696 0.3395 0.36366 0.0
O62 O 0.55595 0.35388 0.34763 0.0
C63 C 0.49814 0.39966 0.3948 0.0
C64 C 0.5032 0.42785 0.21956 0.0
C65 C 0.57482 0.38178 0.32029 0.0
O66 O 0.51173 0.41488 0.34747 0.0
O67 O 0.49115 0.36852 0.40599 0.0
O68 O 0.51475 0.36454 0.20793 0.0
O69 O 0.49056 0.34679 0.2914 0.0
Co70 Co 0.10985 0.5739 0.76225 0.0
O71 O 0.07052 0.57651 0.79081 0.0
O72 O 0.08899 0.54197 0.82378 0.0
C73 C 0.14636 0.63205 0.75968 0.0
O74 O 0.14988 0.56482 0.74987 0.0
Co75 Co 0.1475 0.60478 0.64806 0.0
O76 O 0.18367 0.59564 0.67726 0.0
C77 C 0.08007 0.53838 0.64765 0.0
C78 C 0.06791 0.55401 0.8285 0.0
C79 C 0.17741 0.5759 0.71985 0.0
O80 O 0.07948 0.53733 0.70268 0.0
O81 O 0.10363 0.56359 0.61933 0.0
O82 O 0.14081 0.61563 0.8075 0.0
O83 O 0.12824 0.61347 0.71631 0.0
H84 H 0.50969 0.1568 0.13004 0.0
H85 H 0.46335 0.28213 0.30937 0.0
H86 H 0.49967 0.1547 0.31333 0.0
H87 H 0.51991 0.31468 0.15169 0.0
H88 H 0.46139 0.22622 0.30023 0.0
H89 H 0.49927 0.20623 0.12787 0.0
C90 C 0.50493 0.16646 0.16972 0.0
C91 C 0.50597 0.15202 0.22212 0.0
C92 C 0.47395 0.24547 0.26737 0.0
C93 C 0.49349 0.20777 0.21961 0.0
C94 C 0.47508 0.27739 0.27242 0.0
C95 C 0.49241 0.30332 0.23169 0.0
C96 C 0.49006 0.23926 0.22109 0.0
C97 C 0.50661 0.29547 0.18428 0.0
C98 C 0.49908 0.19465 0.16836 0.0
C99 C 0.49945 0.16537 0.27216 0.0
N100 N 0.5054 0.26409 0.18045 0.0
N101 N 0.49349 0.19255 0.26968 0.0
H102 H 0.34737 0.58368 0.89816 0.0
H103 H 0.22319 0.56899 0.65139 0.0
H104 H 0.34417 0.53213 0.73838 0.0
H105 H 0.1913 0.56193 0.82675 0.0
H106 H 0.26966 0.55846 0.68161 0.0
H107 H 0.2915 0.57835 0.87368 0.0
C108 C 0.33454 0.5706 0.85849 0.0
C109 C 0.35032 0.55827 0.82025 0.0
C110 C 0.25216 0.55873 0.71331 0.0
C111 C 0.2872 0.55307 0.79138 0.0
C112 C 0.22582 0.56494 0.69618 0.0
C113 C 0.2035 0.56645 0.73669 0.0
C114 C 0.25675 0.55495 0.7715 0.0
C115 C 0.20792 0.56086 0.79416 0.0
C116 C 0.30273 0.56757 0.84458 0.0
C117 C 0.33273 0.5417 0.76926 0.0
N118 N 0.23446 0.55596 0.81005 0.0
N119 N 0.30241 0.54022 0.75573 0.0
H120 H 0.63685 0.17855 0.28014 0.0
H121 H 0.81394 0.32872 0.15417 0.0
H122 H 0.64712 0.21522 0.10759 0.0
H123 H 0.78977 0.32566 0.33314 0.0
H124 H 0.7568 0.27771 0.13652 0.0
H125 H 0.69679 0.22444 0.30007 0.0
C126 C 0.65176 0.1962 0.24646 0.0
C127 C 0.63708 0.19326 0.19218 0.0
C128 C 0.76416 0.28809 0.17969 0.0
C129 C 0.70538 0.24505 0.21446 0.0
C130 C 0.79678 0.31707 0.1899 0.0
C131 C 0.80632 0.33174 0.24508 0.0
C132 C 0.74118 0.27342 0.2251 0.0
C133 C 0.78324 0.31529 0.28988 0.0
C134 C 0.68582 0.2223 0.25792 0.0
C135 C 0.6574 0.21681 0.15012 0.0
N136 N 0.75151 0.28699 0.27886 0.0
N137 N 0.69066 0.24166 0.16208 0.0
H138 H 0.46779 0.80766 0.72231 0.0
H139 H 0.3981 0.60406 0.69266 0.0
H140 H 0.36078 0.73154 0.75441 0.0
H141 H 0.49667 0.67446 0.77309 0.0
H142 H 0.3861 0.65235 0.68732 0.0
H143 H 0.48053 0.76 0.71281 0.0
C144 C 0.44689 0.78088 0.72656 0.0
C145 C 0.4132 0.77339 0.73949 0.0
C146 C 0.41052 0.6572 0.70534 0.0
C147 C 0.4276 0.71922 0.72793 0.0
C148 C 0.41753 0.62989 0.70797 0.0
C149 C 0.44851 0.63559 0.7331 0.0
C150 C 0.43507 0.69042 0.72664 0.0
C151 C 0.47255 0.66924 0.75336 0.0
C152 C 0.45426 0.75387 0.72143 0.0
C153 C 0.38713 0.73832 0.74491 0.0
N154 N 0.4654 0.6956 0.74944 0.0
N155 N 0.39485 0.71237 0.7389 0.0
H156 H 0.61654 0.36496 0.38261 0.0
H157 H 0.75804 0.42166 0.14726 0.0
H158 H 0.61738 0.42456 0.23774 0.0
H159 H 0.78409 0.41846 0.32351 0.0
H160 H 0.70451 0.41933 0.17779 0.0
H161 H 0.67629 0.38039 0.36095 0.0
C162 C 0.62935 0.38153 0.34666 0.0
C163 C 0.61188 0.39338 0.31184 0.0
C164 C 0.72222 0.41972 0.20983 0.0
C165 C 0.67976 0.41057 0.28651 0.0
C166 C 0.75269 0.42104 0.19245 0.0
C167 C 0.77546 0.42041 0.23301 0.0
C168 C 0.71398 0.41665 0.26803 0.0
C169 C 0.76729 0.41937 0.29103 0.0
C170 C 0.66344 0.39043 0.33453 0.0
C171 C 0.62981 0.41487 0.26585 0.0
N172 N 0.73682 0.41685 0.30686 0.0
N173 N 0.66255 0.42231 0.254 0.0
H174 H 0.326 0.8064 0.62248 0.0
H175 H 0.18843 0.67838 0.84262 0.0
H176 H 0.3279 0.83355 0.80085 0.0
H177 H 0.16943 0.66771 0.66065 0.0
H178 H 0.23905 0.7363 0.82821 0.0
H179 H 0.26748 0.75658 0.6344 0.0
C180 C 0.31391 0.80217 0.66388 0.0
C181 C 0.33199 0.82368 0.71096 0.0
C182 C 0.22355 0.72141 0.79151 0.0
C183 C 0.26555 0.76673 0.7251 0.0
C184 C 0.19478 0.68834 0.79974 0.0
C185 C 0.17507 0.66811 0.75272 0.0
C186 C 0.23282 0.73398 0.73583 0.0
C187 C 0.18419 0.68232 0.69806 0.0
C188 C 0.28056 0.77377 0.67071 0.0
C189 C 0.31508 0.81724 0.7636 0.0
N190 N 0.21271 0.71423 0.69102 0.0
N191 N 0.28301 0.78899 0.76948 0.0
H192 H 0.47266 0.88051 0.93686 0.0
H193 H 0.5857 0.08103 0.00414 0.0
H194 H 0.51518 0.96108 0.81036 0.0
H195 H 0.53445 0.00164 0.13057 0.0
H196 H 0.57934 0.03606 0.93552 0.0
H197 H 0.51338 0.92198 0.00735 0.0
C198 C 0.49106 0.90683 0.92365 0.0
C199 C 0.48972 0.91787 0.86833 0.0
C200 C 0.57021 0.02849 0.97862 0.0
C201 C 0.53606 0.96546 0.94893 0.0
C202 C 0.57379 0.05413 0.01779 0.0
C203 C 0.55941 0.04471 0.0723 0.0
C204 C 0.55144 -0.00683 0.99382 0.0
C205 C 0.5452 0.00981 0.08848 0.0
C206 C 0.5144 0.93044 0.9639 0.0
C207 C 0.51483 0.95178 0.85296 0.0
N208 N 0.54066 0.98505 0.04878 0.0
N209 N 0.53644 0.97473 0.89356 0.0
H210 H 0.44792 0.371 0.47433 0.0
H211 H 0.51657 0.54663 0.66037 0.0
H212 H 0.53155 0.47053 0.41936 0.0
H213 H 0.41688 0.45407 0.68445 0.0
H214 H 0.52611 0.51791 0.57788 0.0
H215 H 0.43897 0.40023 0.55588 0.0
C216 C 0.46431 0.39914 0.47929 0.0
C217 C 0.49062 0.4184 0.44012 0.0
C218 C 0.50224 0.50388 0.60141 0.0
C219 C 0.48074 0.45202 0.5341 0.0
C220 C 0.4969 0.52008 0.64883 0.0
C221 C 0.46587 0.50265 0.67936 0.0
C222 C 0.4765 0.46993 0.5848 0.0
C223 C 0.44117 0.46844 0.66219 0.0
C224 C 0.45916 0.4158 0.52591 0.0
C225 C 0.51088 0.45479 0.44845 0.0
N226 N 0.44703 0.45321 0.61605 0.0
N227 N 0.50574 0.47045 0.49498 0.0
H228 H 0.01408 0.56648 0.84467 0.0
H229 H 0.97301 0.48481 0.15725 0.0
H230 H 0.07003 0.52261 0.92625 0.0
H231 H 0.89752 0.49174 0.05208 0.0
H232 H 0.01659 0.51494 0.08332 0.0
H233 H 0.97767 0.55296 0.92964 0.0
C234 C 0.01866 0.55399 0.88035 0.0
C235 C 0.04473 0.54515 0.87807 0.0
C236 C -0.00931 0.51063 0.07714 0.0
C237 C 0.004 0.53059 0.97562 0.0
C238 C 0.96604 0.49397 0.11964 0.0
C239 C 0.93179 0.4859 0.11046 0.0
C240 C 0.98087 0.51937 0.02565 0.0
C241 C 0.92377 0.49758 0.06051 0.0
C242 C -0.00194 0.54648 0.92885 0.0
C243 C 0.04985 0.52937 0.92579 0.0
N244 N 0.94802 0.51342 0.01964 0.0
N245 N 0.0297 0.52261 0.97257 0.0
H246 H 0.56757 0.03403 0.35123 0.0
H247 H 0.43343 0.96115 0.60564 0.0
H248 H 0.46396 0.01734 0.33726 0.0
H249 H 0.51207 0.93254 0.58431 0.0
H250 H 0.45042 -0.00841 0.51471 0.0
H251 H 0.55241 0.00403 0.44275 0.0
C252 C 0.54149 0.02358 0.36706 0.0
C253 C 0.5169 0.02796 0.33663 0.0
C254 C 0.46408 0.97884 0.53024 0.0
C255 C 0.49986 -0.00519 0.44171 0.0
C256 C 0.45472 0.96187 0.58239 0.0
C257 C 0.47136 0.94428 0.60237 0.0
C258 C 0.49058 0.97863 0.49842 0.0
C259 C 0.49854 0.94573 0.57026 0.0
C260 C 0.53295 0.00666 0.41929 0.0
C261 C 0.48357 0.01418 0.35915 0.0
N262 N 0.50734 0.96262 0.51976 0.0
N263 N 0.47612 -0.00141 0.41078 0.0
H264 H 0.43602 0.48267 0.91221 0.0
H265 H 0.5444 0.49626 0.19152 0.0
H266 H 0.50968 0.58135 0.99237 0.0
H267 H 0.44621 0.40436 0.14984 0.0
H268 H 0.5355 0.5269 0.11321 0.0
H269 H 0.44362 0.45203 0.99245 0.0
C270 C 0.45401 0.49787 0.94633 0.0
C271 C 0.47219 0.53463 0.94564 0.0
C272 C 0.51575 0.50013 0.1215 0.0
C273 C 0.48089 0.49982 0.03729 0.0
C274 C 0.52078 0.48267 0.16624 0.0
C275 C 0.49594 0.44779 0.17726 0.0
C276 C 0.48598 0.48239 0.08681 0.0
C277 C 0.46587 0.43136 0.14304 0.0
C278 C 0.45808 0.48039 0.99228 0.0
C279 C 0.49498 0.553 0.99123 0.0
N280 N 0.46187 0.4487 0.09887 0.0
N281 N 0.49876 0.53541 0.03505 0.0
H282 H 0.01123 0.51574 0.65784 0.0
H283 H 0.96953 0.43189 0.34165 0.0
H284 H 0.08436 0.50222 0.55685 0.0
H285 H 0.91595 0.47949 0.42189 0.0
H286 H 0.00512 0.44478 0.42833 0.0
H287 H 0.96787 0.48703 0.58105 0.0
C288 C 0.01762 0.50539 0.62051 0.0
C289 C 0.05122 0.5112 0.61336 0.0
C290 C 0.98549 0.45229 0.42687 0.0
C291 C 0.00251 0.47945 0.5253 0.0
C292 C 0.96537 0.44517 0.37736 0.0
C293 C 0.94011 0.45509 0.37429 0.0
C294 C 0.97994 0.46899 0.47384 0.0
C295 C 0.93549 0.47184 0.42209 0.0
C296 C -0.00685 0.48957 0.57638 0.0
C297 C 0.05861 0.49809 0.56374 0.0
N298 N 0.95518 0.47824 0.46989 0.0
N299 N 0.03457 0.48314 0.52125 0.0
loop_
_geom_bond_atom_site_label_1
_geom_bond_atom_site_label_2
_geom_bond_distance
_geom_bond_site_symmetry_2
_ccdc_geom_bond_type
Co0 O1 2.216 . S
Co0 O2 2.091 . S
Co0 O4 2.004 . S
Co0 O10 2.021 . S
Co0 O12 2.137 . S
Co0 O13 2.244 . S
O1 Co0 2.216 . S
O1 C8 1.247 . S
O2 Co0 2.091 . S
O2 C8 1.261 . S
C3 O12 1.247 . S
C3 O13 1.272 . S
O4 Co0 2.004 . S
O4 C9 1.259 . S
Co5 O6 2.061 . S
Co5 O11 2.052 . S
Co5 O13 2.135 . S
O6 Co5 2.061 . S
O6 C9 1.235 . S
C7 O10 1.238 . S
C7 O11 1.241 . S
C8 O1 1.247 . S
C8 O2 1.261 . S
C9 O4 1.259 . S
C9 O6 1.235 . S
O10 Co0 2.021 . S
O10 C7 1.238 . S
O11 Co5 2.052 . S
O11 C7 1.241 . S
O12 Co0 2.137 . S
O12 C3 1.247 . S
O13 Co0 2.244 . S
O13 C3 1.272 . S
O13 Co5 2.135 . S
Co14 O15 2.216 . S
Co14 O16 2.091 . S
Co14 O18 2.004 . S
Co14 O24 2.021 . S
Co14 O26 2.137 . S
Co14 O27 2.244 . S
O15 Co14 2.216 . S
O15 C22 1.247 . S
O16 Co14 2.091 . S
O16 C22 1.261 . S
C17 O26 1.247 . S
C17 O27 1.272 . S
O18 Co14 2.004 . S
O18 C23 1.259 . S
Co19 O20 2.061 . S
Co19 O25 2.052 . S
Co19 O27 2.135 . S
O20 Co19 2.061 . S
O20 C23 1.235 . S
C21 O24 1.238 . S
C21 O25 1.241 . S
C22 O15 1.247 . S
C22 O16 1.261 . S
C23 O18 1.259 . S
C23 O20 1.235 . S
O24 Co14 2.021 . S
O24 C21 1.238 . S
O25 Co19 2.052 . S
O25 C21 1.241 . S
O26 Co14 2.137 . S
O26 C17 1.247 . S
O27 Co14 2.244 . S
O27 C17 1.272 . S
O27 Co19 2.135 . S
Co28 O29 2.216 . S
Co28 O30 2.091 . S
Co28 O32 2.004 . S
Co28 O38 2.021 . S
Co28 O40 2.137 . S
Co28 O41 2.244 . S
O29 Co28 2.216 . S
O29 C36 1.247 . S
O30 Co28 2.091 . S
O30 C36 1.261 . S
C31 O40 1.247 . S
C31 O41 1.272 . S
O32 Co28 2.004 . S
O32 C37 1.259 . S
Co33 O34 2.061 . S
Co33 O39 2.052 . S
Co33 O41 2.135 . S
O34 Co33 2.061 . S
O34 C37 1.235 . S
C35 O38 1.238 . S
C35 O39 1.241 . S
C36 O29 1.247 . S
C36 O30 1.261 . S
C37 O32 1.259 . S
C37 O34 1.235 . S
O38 Co28 2.021 . S
O38 C35 1.238 . S
O39 Co33 2.052 . S
O39 C35 1.241 . S
O40 Co28 2.137 . S
O40 C31 1.247 . S
O41 Co28 2.244 . S
O41 C31 1.272 . S
O41 Co33 2.135 . S
Co42 O43 2.216 . S
Co42 O44 2.091 . S
Co42 O46 2.004 . S
Co42 O52 2.021 . S
Co42 O54 2.137 . S
Co42 O55 2.244 . S
O43 Co42 2.216 . S
O43 C50 1.247 . S
O44 Co42 2.091 . S
O44 C50 1.261 . S
C45 O54 1.247 . S
C45 O55 1.272 . S
O46 Co42 2.004 . S
O46 C51 1.259 . S
Co47 O48 2.061 . S
Co47 O53 2.052 . S
Co47 O55 2.135 . S
O48 Co47 2.061 . S
O48 C51 1.235 . S
C49 O52 1.238 . S
C49 O53 1.241 . S
C50 O43 1.247 . S
C50 O44 1.261 . S
C51 O46 1.259 . S
C51 O48 1.235 . S
O52 Co42 2.021 . S
O52 C49 1.238 . S
O53 Co47 2.052 . S
O53 C49 1.241 . S
O54 Co42 2.137 . S
O54 C45 1.247 . S
O55 Co42 2.244 . S
O55 C45 1.272 . S
O55 Co47 2.135 . S
Co56 O57 2.216 . S
Co56 O58 2.091 . S
Co56 O60 2.004 . S
Co56 O66 2.021 . S
Co56 O68 2.137 . S
Co56 O69 2.244 . S
O57 Co56 2.216 . S
O57 C64 1.247 . S
O58 Co56 2.091 . S
O58 C64 1.261 . S
C59 O68 1.247 . S
C59 O69 1.272 . S
O60 Co56 2.004 . S
O60 C65 1.259 . S
Co61 O62 2.061 . S
Co61 O67 2.052 . S
Co61 O69 2.135 . S
O62 Co61 2.061 . S
O62 C65 1.235 . S
C63 O66 1.238 . S
C63 O67 1.241 . S
C64 O57 1.247 . S
C64 O58 1.261 . S
C65 O60 1.259 . S
C65 O62 1.235 . S
O66 Co56 2.021 . S
O66 C63 1.238 . S
O67 Co61 2.052 . S
O67 C63 1.241 . S
O68 Co56 2.137 . S
O68 C59 1.247 . S
O69 Co56 2.244 . S
O69 C59 1.272 . S
O69 Co61 2.135 . S
Co70 O71 2.216 . S
Co70 O72 2.091 . S
Co70 O74 2.004 . S
Co70 O80 2.021 . S
Co70 O82 2.137 . S
Co70 O83 2.244 . S
O71 Co70 2.216 . S
O71 C78 1.247 . S
O72 Co70 2.091 . S
O72 C78 1.261 . S
C73 O82 1.247 . S
C73 O83 1.272 . S
O74 Co70 2.004 . S
O74 C79 1.259 . S
Co75 O76 2.061 . S
Co75 O81 2.052 . S
Co75 O83 2.135 . S
O76 Co75 2.061 . S
O76 C79 1.235 . S
C77 O80 1.238 . S
C77 O81 1.241 . S
C78 O71 1.247 . S
C78 O72 1.261 . S
C79 O74 1.259 . S
C79 O76 1.235 . S
O80 Co70 2.021 . S
O80 C77 1.238 . S
O81 Co75 2.052 . S
O81 C77 1.241 . S
O82 Co70 2.137 . S
O82 C73 1.247 . S
O83 Co70 2.244 . S
O83 C73 1.272 . S
O83 Co75 2.135 . S
H84 C90 0.930 . S
H85 C94 0.930 . S
H86 C99 0.929 . S
H87 C97 0.929 . S
H88 C92 0.929 . S
H89 C98 0.929 . S
C90 H84 0.930 . S
C90 C91 1.367 . S
C90 C98 1.378 . S
C91 C90 1.367 . S
C91 C99 1.433 . S
C92 H88 0.929 . S
C92 C94 1.378 . S
C92 C96 1.350 . S
C93 C96 1.463 . S
C93 C98 1.350 . S
C93 N101 1.427 . S
C94 H85 0.930 . S
C94 C92 1.378 . S
C94 C95 1.367 . S
C95 C94 1.367 . S
C95 C97 1.433 . S
C96 C92 1.350 . S
C96 C93 1.463 . S
C96 N100 1.427 . S
C97 H87 0.929 . S
C97 C95 1.433 . S
C97 N100 1.384 . S
C98 H89 0.929 . S
C98 C90 1.378 . S
C98 C93 1.350 . S
C99 H86 0.929 . S
C99 C91 1.433 . S
C99 N101 1.384 . S
N100 C96 1.427 . S
N100 C97 1.384 . S
N101 C93 1.427 . S
N101 C99 1.384 . S
H102 C108 0.930 . S
H103 C112 0.930 . S
H104 C117 0.929 . S
H105 C115 0.929 . S
H106 C110 0.929 . S
H107 C116 0.929 . S
C108 H102 0.930 . S
C108 C109 1.367 . S
C108 C116 1.378 . S
C109 C108 1.367 . S
C109 C117 1.433 . S
C110 H106 0.929 . S
C110 C112 1.378 . S
C110 C114 1.350 . S
C111 C114 1.463 . S
C111 C116 1.350 . S
C111 N119 1.427 . S
C112 H103 0.930 . S
C112 C110 1.378 . S
C112 C113 1.367 . S
C113 C112 1.367 . S
C113 C115 1.433 . S
C114 C110 1.350 . S
C114 C111 1.463 . S
C114 N118 1.427 . S
C115 H105 0.929 . S
C115 C113 1.433 . S
C115 N118 1.384 . S
C116 H107 0.929 . S
C116 C108 1.378 . S
C116 C111 1.350 . S
C117 H104 0.929 . S
C117 C109 1.433 . S
C117 N119 1.384 . S
N118 C114 1.427 . S
N118 C115 1.384 . S
N119 C111 1.427 . S
N119 C117 1.384 . S
H120 C126 0.930 . S
H121 C130 0.930 . S
H122 C135 0.929 . S
H123 C133 0.929 . S
H124 C128 0.929 . S
H125 C134 0.929 . S
C126 H120 0.930 . S
C126 C127 1.367 . S
C126 C134 1.378 . S
C127 C126 1.367 . S
C127 C135 1.433 . S
C128 H124 0.929 . S
C128 C130 1.378 . S
C128 C132 1.350 . S
C129 C132 1.463 . S
C129 C134 1.350 . S
C129 N137 1.427 . S
C130 H121 0.930 . S
C130 C128 1.378 . S
C130 C131 1.367 . S
C131 C130 1.367 . S
C131 C133 1.433 . S
C132 C128 1.350 . S
C132 C129 1.463 . S
C132 N136 1.427 . S
C133 H123 0.929 . S
C133 C131 1.433 . S
C133 N136 1.384 . S
C134 H125 0.929 . S
C134 C126 1.378 . S
C134 C129 1.350 . S
C135 H122 0.929 . S
C135 C127 1.433 . S
C135 N137 1.384 . S
N136 C132 1.427 . S
N136 C133 1.384 . S
N137 C129 1.427 . S
N137 C135 1.384 . S
H138 C144 0.930 . S
H139 C148 0.930 . S
H140 C153 0.929 . S
H141 C151 0.929 . S
H142 C146 0.929 . S
H143 C152 0.929 . S
C144 H138 0.930 . S
C144 C145 1.367 . S
C144 C152 1.378 . S
C145 C144 1.367 . S
C145 C153 1.433 . S
C146 H142 0.929 . S
C146 C148 1.378 . S
C146 C150 1.350 . S
C147 C150 1.463 . S
C147 C152 1.350 . S
C147 N155 1.427 . S
C148 H139 0.930 . S
C148 C146 1.378 . S
C148 C149 1.367 . S
C149 C148 1.367 . S
C149 C151 1.433 . S
C150 C146 1.350 . S
C150 C147 1.463 . S
C150 N154 1.427 . S
C151 H141 0.929 . S
C151 C149 1.433 . S
C151 N154 1.384 . S
C152 H143 0.929 . S
C152 C144 1.378 . S
C152 C147 1.350 . S
C153 H140 0.929 . S
C153 C145 1.433 . S
C153 N155 1.384 . S
N154 C150 1.427 . S
N154 C151 1.384 . S
N155 C147 1.427 . S
N155 C153 1.384 . S
H156 C162 0.930 . S
H157 C166 0.930 . S
H158 C171 0.929 . S
H159 C169 0.929 . S
H160 C164 0.929 . S
H161 C170 0.929 . S
C162 H156 0.930 . S
C162 C163 1.367 . S
C162 C170 1.378 . S
C163 C162 1.367 . S
C163 C171 1.433 . S
C164 H160 0.929 . S
C164 C166 1.378 . S
C164 C168 1.350 . S
C165 C168 1.463 . S
C165 C170 1.350 . S
C165 N173 1.427 . S
C166 H157 0.930 . S
C166 C164 1.378 . S
C166 C167 1.367 . S
C167 C166 1.367 . S
C167 C169 1.433 . S
C168 C164 1.350 . S
C168 C165 1.463 . S
C168 N172 1.427 . S
C169 H159 0.929 . S
C169 C167 1.433 . S
C169 N172 1.384 . S
C170 H161 0.929 . S
C170 C162 1.378 . S
C170 C165 1.350 . S
C171 H158 0.929 . S
C171 C163 1.433 . S
C171 N173 1.384 . S
N172 C168 1.427 . S
N172 C169 1.384 . S
N173 C165 1.427 . S
N173 C171 1.384 . S
H174 C180 0.930 . S
H175 C184 0.930 . S
H176 C189 0.929 . S
H177 C187 0.929 . S
H178 C182 0.929 . S
H179 C188 0.929 . S
C180 H174 0.930 . S
C180 C181 1.367 . S
C180 C188 1.378 . S
C181 C180 1.367 . S
C181 C189 1.433 . S
C182 H178 0.929 . S
C182 C184 1.378 . S
C182 C186 1.350 . S
C183 C186 1.463 . S
C183 C188 1.350 . S
C183 N191 1.427 . S
C184 H175 0.930 . S
C184 C182 1.378 . S
C184 C185 1.367 . S
C185 C184 1.367 . S
C185 C187 1.433 . S
C186 C182 1.350 . S
C186 C183 1.463 . S
C186 N190 1.427 . S
C187 H177 0.929 . S
C187 C185 1.433 . S
C187 N190 1.384 . S
C188 H179 0.929 . S
C188 C180 1.378 . S
C188 C183 1.350 . S
C189 H176 0.929 . S
C189 C181 1.433 . S
C189 N191 1.384 . S
N190 C186 1.427 . S
N190 C187 1.384 . S
N191 C183 1.427 . S
N191 C189 1.384 . S
H192 C198 0.930 . S
H193 C202 0.930 . S
H194 C207 0.929 . S
H195 C205 0.929 . S
H196 C200 0.929 1_556 S
H197 C206 0.929 1_554 S
C198 H192 0.930 . S
C198 C199 1.367 . S
C198 C206 1.378 . S
C199 C198 1.367 . S
C199 C207 1.433 . S
C200 H196 0.929 1_554 S
C200 C202 1.378 . S
C200 C204 1.350 . S
C201 C204 1.463 1_566 S
C201 C206 1.350 . S
C201 N209 1.427 1_565 S
C202 H193 0.930 . S
C202 C200 1.378 . S
C202 C203 1.367 . S
C203 C202 1.367 . S
C203 C205 1.433 . S
C204 C200 1.350 . S
C204 C201 1.463 1_544 S
C204 N208 1.427 1_545 S
C205 H195 0.929 . S
C205 C203 1.433 . S
C205 N208 1.384 1_545 S
C206 H197 0.929 1_556 S
C206 C198 1.378 . S
C206 C201 1.350 . S
C207 H194 0.929 . S
C207 C199 1.433 . S
C207 N209 1.384 1_565 S
N208 C204 1.427 1_565 S
N208 C205 1.384 1_565 S
N209 C201 1.427 1_545 S
N209 C207 1.384 1_545 S
H210 C216 0.930 . S
H211 C220 0.930 . S
H212 C225 0.929 . S
H213 C223 0.929 . S
H214 C218 0.929 . S
H215 C224 0.929 . S
C216 H210 0.930 . S
C216 C217 1.367 . S
C216 C224 1.378 . S
C217 C216 1.367 . S
C217 C225 1.433 . S
C218 H214 0.929 . S
C218 C220 1.378 . S
C218 C222 1.350 . S
C219 C222 1.463 . S
C219 C224 1.350 . S
C219 N227 1.427 . S
C220 H211 0.930 . S
C220 C218 1.378 . S
C220 C221 1.367 . S
C221 C220 1.367 . S
C221 C223 1.433 . S
C222 C218 1.350 . S
C222 C219 1.463 . S
C222 N226 1.427 . S
C223 H213 0.929 . S
C223 C221 1.433 . S
C223 N226 1.384 . S
C224 H215 0.929 . S
C224 C216 1.378 . S
C224 C219 1.350 . S
C225 H212 0.929 . S
C225 C217 1.433 . S
C225 N227 1.384 . S
N226 C222 1.427 . S
N226 C223 1.384 . S
N227 C219 1.427 . S
N227 C225 1.384 . S
H228 C234 0.930 . S
H229 C238 0.930 . S
H230 C243 0.929 . S
H231 C241 0.929 . S
H232 C236 0.929 . S
H233 C242 0.929 . S
C234 H228 0.930 . S
C234 C235 1.367 . S
C234 C242 1.378 . S
C235 C234 1.367 . S
C235 C243 1.433 . S
C236 H232 0.929 . S
C236 C238 1.378 . S
C236 C240 1.350 . S
C237 C240 1.463 1_456 S
C237 C242 1.350 . S
C237 N245 1.427 . S
C238 H229 0.930 . S
C238 C236 1.378 . S
C238 C239 1.367 . S
C239 C238 1.367 . S
C239 C241 1.433 . S
C240 C236 1.350 . S
C240 C237 1.463 1_654 S
C240 N244 1.427 . S
C241 H231 0.929 . S
C241 C239 1.433 . S
C241 N244 1.384 . S
C242 H233 0.929 . S
C242 C234 1.378 . S
C242 C237 1.350 . S
C243 H230 0.929 . S
C243 C235 1.433 . S
C243 N245 1.384 . S
N244 C240 1.427 . S
N244 C241 1.384 . S
N245 C237 1.427 . S
N245 C243 1.384 . S
H246 C252 0.930 . S
H247 C256 0.930 . S
H248 C261 0.929 . S
H249 C259 0.929 . S
H250 C254 0.929 1_545 S
H251 C260 0.929 1_565 S
C252 H246 0.930 . S
C252 C253 1.367 . S
C252 C260 1.378 . S
C253 C252 1.367 . S
C253 C261 1.433 . S
C254 H250 0.929 1_565 S
C254 C256 1.378 . S
C254 C258 1.350 . S
C255 C258 1.463 1_545 S
C255 C260 1.350 . S
C255 N263 1.427 . S
C256 H247 0.930 . S
C256 C254 1.378 . S
C256 C257 1.367 . S
C257 C256 1.367 . S
C257 C259 1.433 . S
C258 C254 1.350 . S
C258 C255 1.463 1_565 S
C258 N262 1.427 . S
C259 H249 0.929 . S
C259 C257 1.433 . S
C259 N262 1.384 . S
C260 H251 0.929 1_545 S
C260 C252 1.378 . S
C260 C255 1.350 . S
C261 H248 0.929 . S
C261 C253 1.433 . S
C261 N263 1.384 . S
N262 C258 1.427 . S
N262 C259 1.384 . S
N263 C255 1.427 . S
N263 C261 1.384 . S
H264 C270 0.930 . S
H265 C274 0.930 . S
H266 C279 0.929 . S
H267 C277 0.929 . S
H268 C272 0.929 . S
H269 C278 0.929 . S
C270 H264 0.930 . S
C270 C271 1.367 . S
C270 C278 1.378 . S
C271 C270 1.367 . S
C271 C279 1.433 . S
C272 H268 0.929 . S
C272 C274 1.378 . S
C272 C276 1.350 . S
C273 C276 1.463 1_556 S
C273 C278 1.350 . S
C273 N281 1.427 . S
C274 H265 0.930 . S
C274 C272 1.378 . S
C274 C275 1.367 . S
C275 C274 1.367 . S
C275 C277 1.433 . S
C276 C272 1.350 . S
C276 C273 1.463 1_554 S
C276 N280 1.427 . S
C277 H267 0.929 . S
C277 C275 1.433 . S
C277 N280 1.384 . S
C278 H269 0.929 . S
C278 C270 1.378 . S
C278 C273 1.350 . S
C279 H266 0.929 . S
C279 C271 1.433 . S
C279 N281 1.384 . S
N280 C276 1.427 . S
N280 C277 1.384 . S
N281 C273 1.427 . S
N281 C279 1.384 . S
H282 C288 0.930 . S
H283 C292 0.930 . S
H284 C297 0.929 . S
H285 C295 0.929 . S
H286 C290 0.929 . S
H287 C296 0.934 . S
C288 H282 0.930 . S
C288 C289 1.367 . S
C288 C296 1.375 1_455 S
C289 C288 1.367 . S
C289 C297 1.433 . S
C290 H286 0.929 . S
C290 C292 1.378 1_455 S
C290 C294 1.350 1_455 S
C291 C294 1.463 1_455 S
C291 C296 1.348 1_455 S
C291 N299 1.427 . S
C292 H283 0.930 . S
C292 C290 1.378 1_655 S
C292 C293 1.367 . S
C293 C292 1.367 . S
C293 C295 1.433 . S
C294 C290 1.350 1_655 S
C294 C291 1.463 1_655 S
C294 N298 1.427 . S
C295 H285 0.929 . S
C295 C293 1.433 . S
C295 N298 1.384 . S
C296 H287 0.934 . S
C296 C288 1.375 1_655 S
C296 C291 1.348 1_655 S
C297 H284 0.929 . S
C297 C289 1.433 . S
C297 N299 1.384 . S
N298 C294 1.427 . S
N298 C295 1.384 . S
N299 C291 1.427 . S
N299 C297 1.384 . S
C91 C3 1.094 . S
C95 C59 1.087 . S
C109 C23 1.034 . S
C113 C79 1.060 . S
C127 C9 1.069 . S
C131 C31 1.084 . S
C145 C51 1.079 . S
C149 C17 1.079 . S
C163 C65 1.057 . S
C167 C37 1.040 . S
C181 C45 1.093 . S
C185 C73 1.102 . S
C199 C49 1.357 . S
C203 C7 1.356 . S
C217 C63 1.348 . S
C221 C22 1.390 . S
C235 C78 1.394 . S
C239 C35 1.357 . S
C253 C8 1.419 . S
C257 C50 1.422 . S
C271 C21 1.367 . S
C275 C64 1.392 . S
C289 C77 1.363 . S
C293 C36 1.395 . S
