# Generated by pormake.
# Topology wkj, (6)-cn, num edge types: 1
# Building blocks:
#     Node 0, Type 0, BuildingBlock: BETDIP_clean_sbu_0, # of connection points: 6
#     Node 1, Type 0, BuildingBlock: BETDIP_clean_sbu_0, # of connection points: 6
#     Node 2, Type 0, BuildingBlock: BETDIP_clean_sbu_0, # of connection points: 6
#     Node 3, Type 0, BuildingBlock: BETDIP_clean_sbu_0, # of connection points: 6
#     Node 4, Type 0, BuildingBlock: BETDIP_clean_sbu_0, # of connection points: 6
#     Node 5, Type 0, BuildingBlock: BETDIP_clean_sbu_0, # of connection points: 6
#     Node 6, Type 0, BuildingBlock: BETDIP_clean_sbu_0, # of connection points: 6
#     Node 7, Type 0, BuildingBlock: BETDIP_clean_sbu_0, # of connection points: 6
#     Node 8, Type 0, BuildingBlock: BETDIP_clean_sbu_0, # of connection points: 6
#     Node 9, Type 0, BuildingBlock: BETDIP_clean_sbu_0, # of connection points: 6
#     Node 10, Type 0, BuildingBlock: BETDIP_clean_sbu_0, # of connection points: 6
#     Node 11, Type 0, BuildingBlock: BETDIP_clean_sbu_0, # of connection points: 6
#     Edge 12, Type (0, 0), BuildingBlock: KIFKEQ_clean_linker_1, # of connection points: 2
#     Edge 13, Type (0, 0), BuildingBlock: KIFKEQ_clean_linker_1, # of connection points: 2
#     Edge 14, Type (0, 0), BuildingBlock: KIFKEQ_clean_linker_1, # of connection points: 2
#     Edge 15, Type (0, 0), BuildingBlock: KIFKEQ_clean_linker_1, # of connection points: 2
#     Edge 16, Type (0, 0), BuildingBlock: KIFKEQ_clean_linker_1, # of connection points: 2
#     Edge 17, Type (0, 0), BuildingBlock: KIFKEQ_clean_linker_1, # of connection points: 2
#     Edge 18, Type (0, 0), BuildingBlock: KIFKEQ_clean_linker_1, # of connection points: 2
#     Edge 19, Type (0, 0), BuildingBlock: KIFKEQ_clean_linker_1, # of connection points: 2
#     Edge 20, Type (0, 0), BuildingBlock: KIFKEQ_clean_linker_1, # of connection points: 2
#     Edge 21, Type (0, 0), BuildingBlock: KIFKEQ_clean_linker_1, # of connection points: 2
#     Edge 22, Type (0, 0), BuildingBlock: KIFKEQ_clean_linker_1, # of connection points: 2
#     Edge 23, Type (0, 0), BuildingBlock: KIFKEQ_clean_linker_1, # of connection points: 2
#     Edge 24, Type (0, 0), BuildingBlock: KIFKEQ_clean_linker_1, # of connection points: 2
#     Edge 25, Type (0, 0), BuildingBlock: KIFKEQ_clean_linker_1, # of connection points: 2
#     Edge 26, Type (0, 0), BuildingBlock: KIFKEQ_clean_linker_1, # of connection points: 2
#     Edge 27, Type (0, 0), BuildingBlock: KIFKEQ_clean_linker_1, # of connection points: 2
#     Edge 28, Type (0, 0), BuildingBlock: KIFKEQ_clean_linker_1, # of connection points: 2
#     Edge 29, Type (0, 0), BuildingBlock: KIFKEQ_clean_linker_1, # of connection points: 2
#     Edge 30, Type (0, 0), BuildingBlock: KIFKEQ_clean_linker_1, # of connection points: 2
#     Edge 31, Type (0, 0), BuildingBlock: KIFKEQ_clean_linker_1, # of connection points: 2
#     Edge 32, Type (0, 0), BuildingBlock: KIFKEQ_clean_linker_1, # of connection points: 2
#     Edge 33, Type (0, 0), BuildingBlock: KIFKEQ_clean_linker_1, # of connection points: 2
#     Edge 34, Type (0, 0), BuildingBlock: KIFKEQ_clean_linker_1, # of connection points: 2
#     Edge 35, Type (0, 0), BuildingBlock: KIFKEQ_clean_linker_1, # of connection points: 2
#     Edge 36, Type (0, 0), BuildingBlock: KIFKEQ_clean_linker_1, # of connection points: 2
#     Edge 37, Type (0, 0), BuildingBlock: KIFKEQ_clean_linker_1, # of connection points: 2
#     Edge 38, Type (0, 0), BuildingBlock: KIFKEQ_clean_linker_1, # of connection points: 2
#     Edge 39, Type (0, 0), BuildingBlock: KIFKEQ_clean_linker_1, # of connection points: 2
#     Edge 40, Type (0, 0), BuildingBlock: KIFKEQ_clean_linker_1, # of connection points: 2
#     Edge 41, Type (0, 0), BuildingBlock: KIFKEQ_clean_linker_1, # of connection points: 2
#     Edge 42, Type (0, 0), BuildingBlock: KIFKEQ_clean_linker_1, # of connection points: 2
#     Edge 43, Type (0, 0), BuildingBlock: KIFKEQ_clean_linker_1, # of connection points: 2
#     Edge 44, Type (0, 0), BuildingBlock: KIFKEQ_clean_linker_1, # of connection points: 2
#     Edge 45, Type (0, 0), BuildingBlock: KIFKEQ_clean_linker_1, # of connection points: 2
#     Edge 46, Type (0, 0), BuildingBlock: KIFKEQ_clean_linker_1, # of connection points: 2
#     Edge 47, Type (0, 0), BuildingBlock: KIFKEQ_clean_linker_1, # of connection points: 2
# Relax obj value: 0.762
# Max RMSD: 0.175
# Mean RMSD: 0.175
data_MOF--net-wkj--node1-BETDIP_clean_sbu_0--edge1-KIFKEQ_clean_linker_1
_symmetry_space_group_name_H-M    P1
_symmetry_Int_Tables_number       1
_symmetry_cell_setting            triclinic
loop_
_symmetry_equiv_pos_as_xyz
'x, y, z'
_cell_length_a     49.396983
_cell_length_b     49.398368
_cell_length_c     31.238219
_cell_angle_alpha  89.778083
_cell_angle_beta   90.262692
_cell_angle_gamma 120.03544
loop_
_atom_site_label
_atom_site_type_symbol
_atom_site_fract_x
_atom_site_fract_y
_atom_site_fract_z
_atom_type_partial_charge
Tb0 Tb 0.47105 0.09587 0.36602 0.0
Tb1 Tb 0.52923 0.10509 0.34326 0.0
C2 C 0.41353 0.07628 0.37691 0.0
C3 C 0.39074 0.06236 0.41143 0.0
C4 C 0.40041 0.06034 0.45292 0.0
C5 C 0.37856 0.04783 0.48584 0.0
C6 C 0.34673 0.03713 0.47772 0.0
C7 C 0.33709 0.03872 0.43588 0.0
C8 C 0.35905 0.05137 0.40294 0.0
C9 C 0.50862 0.15605 0.34471 0.0
C10 C 0.51683 0.10381 0.44975 0.0
C11 C 0.58764 0.13732 0.33425 0.0
C12 C 0.60831 0.16583 0.30942 0.0
C13 C 0.6093 0.1943 0.31815 0.0
C14 C 0.62603 0.22024 0.29178 0.0
C15 C 0.6421 0.21834 0.25608 0.0
C16 C 0.6431 0.19069 0.24925 0.0
C17 C 0.62635 0.16466 0.27574 0.0
C18 C 0.48957 0.04818 0.36888 0.0
C19 C 0.47911 0.07052 0.26768 0.0
O20 O 0.42456 0.05915 0.36193 0.0
O21 O 0.43549 0.1052 0.38274 0.0
O22 O 0.50656 0.1323 0.32489 0.0
O23 O 0.491 0.14549 0.37798 0.0
O24 O 0.48783 0.09688 0.43641 0.0
O25 O 0.53672 0.10783 0.41741 0.0
O26 O 0.57203 0.14123 0.3648 0.0
O27 O 0.57023 0.11146 0.31293 0.0
O28 O 0.49484 0.07347 0.38352 0.0
O29 O 0.50939 0.05363 0.33824 0.0
O30 O 0.50953 0.08436 0.27795 0.0
O31 O 0.46058 0.07298 0.29762 0.0
H32 H 0.4248 0.0685 0.45983 0.0
H33 H 0.38654 0.04624 0.51761 0.0
H34 H 0.31273 0.0306 0.42879 0.0
H35 H 0.35132 0.05278 0.3709 0.0
H36 H 0.59608 0.19632 0.34427 0.0
H37 H 0.62496 0.24126 0.2979 0.0
H38 H 0.65494 0.18836 0.22161 0.0
H39 H 0.62633 0.14319 0.26869 0.0
Tb40 Tb 0.36768 0.46006 0.69232 0.0
Tb41 Tb 0.41322 0.51983 0.67804 0.0
C42 C 0.32904 0.40523 0.71694 0.0
C43 C 0.31467 0.38939 0.75713 0.0
C44 C 0.3279 0.40325 0.79648 0.0
C45 C 0.31449 0.3875 0.8345 0.0
C46 C 0.28761 0.35759 0.8338 0.0
C47 C 0.27396 0.34413 0.79424 0.0
C48 C 0.28739 0.36002 0.75613 0.0
C49 C 0.34294 0.48954 0.64844 0.0
C50 C 0.39714 0.50969 0.77845 0.0
C51 C 0.44215 0.57625 0.65443 0.0
C52 C 0.4379 0.59556 0.62245 0.0
C53 C 0.44814 0.62693 0.63215 0.0
C54 C 0.43975 0.64457 0.60599 0.0
C55 C 0.42091 0.63103 0.56967 0.0
C56 C 0.41161 0.59979 0.55935 0.0
C57 C 0.4198 0.58212 0.58572 0.0
C58 C 0.43424 0.48655 0.71884 0.0
C59 C 0.40568 0.47106 0.60042 0.0
O60 O 0.35902 0.41602 0.71329 0.0
O61 O 0.32119 0.42532 0.70363 0.0
O62 O 0.36206 0.50065 0.6802 0.0
O63 O 0.34136 0.46346 0.63838 0.0
O64 O 0.37618 0.4809 0.76261 0.0
O65 O 0.41493 0.53026 0.74877 0.0
O66 O 0.42035 0.56496 0.68345 0.0
O67 O 0.44913 0.5554 0.64108 0.0
O68 O 0.41542 0.47777 0.68816 0.0
O69 O 0.4444 0.51597 0.72463 0.0
O70 O 0.41681 0.50109 0.61188 0.0
O71 O 0.38637 0.44993 0.6296 0.0
H72 H 0.349 0.42585 0.79786 0.0
H73 H 0.32605 0.39823 0.86437 0.0
H74 H 0.25328 0.32115 0.79277 0.0
H75 H 0.27681 0.34916 0.72585 0.0
H76 H 0.46166 0.63744 0.66093 0.0
H77 H 0.44718 0.66844 0.61499 0.0
H78 H 0.39778 0.58883 0.53099 0.0
H79 H 0.41127 0.55778 0.5781 0.0
Tb80 Tb 0.88466 0.36933 1.03203 0.0
Tb81 Tb 0.87186 0.41541 1.00708 0.0
C82 C 0.90749 0.33418 1.04374 0.0
C83 C 0.92507 0.32816 1.07642 0.0
C84 C 0.92629 0.33804 0.11868 0.0
C85 C 0.94241 0.33124 0.14966 0.0
C86 C 0.95762 0.31457 0.13876 0.0
C87 C 0.95687 0.30531 1.09615 0.0
C88 C 0.94057 0.312 1.06519 0.0
C89 C 0.82412 0.3427 1.00894 0.0
C90 C 0.87517 0.40705 1.11421 0.0
C91 C 0.83606 0.43731 0.99587 0.0
C92 C 0.80802 0.42733 0.96879 0.0
C93 C 0.78093 0.39802 0.97532 0.0
C94 C 0.7562 0.38667 0.94622 0.0
C95 C 0.75797 0.40431 0.90998 0.0
C96 C 0.78382 0.43467 0.90538 0.0
C97 C 0.80864 0.44608 0.93458 0.0
C98 C 0.92948 0.43641 1.03302 0.0
C99 C 0.90945 0.40304 0.9335 0.0
O100 O 0.92233 0.36133 1.02486 0.0
O101 O 0.87892 0.32657 1.05363 0.0
O102 O 0.8474 0.36521 0.98931 0.0
O103 O 0.83522 0.33709 1.04306 0.0
O104 O 0.88352 0.38589 1.10178 0.0
O105 O 0.86959 0.42145 1.08107 0.0
O106 O 0.83286 0.41782 1.02641 0.0
O107 O 0.86304 0.44846 0.97644 0.0
O108 O 0.90474 0.41556 1.04798 0.0
O109 O 0.92286 0.4495 1.00161 0.0
O110 O 0.89348 0.41765 0.94237 0.0
O111 O 0.90841 0.38302 0.96427 0.0
H112 H 0.91472 0.35088 0.12768 0.0
H113 H 0.94323 0.33926 0.18212 0.0
H114 H 0.96844 0.29251 1.08698 0.0
H115 H 0.93987 0.30436 1.03252 0.0
H116 H 0.77932 0.38302 1.00174 0.0
H117 H 0.73652 0.36329 0.95064 0.0
H118 H 0.78604 0.44868 0.87743 0.0
H119 H 0.82902 0.46885 0.92914 0.0
Tb120 Tb 0.50259 0.90181 0.36537 0.0
Tb121 Tb 0.44684 0.86176 0.3376 0.0
C122 C 0.55801 0.94523 0.37885 0.0
C123 C 0.58303 0.95445 0.41054 0.0
C124 C 0.5764 0.94779 0.45411 0.0
C125 C 0.60078 0.958 0.48373 0.0
C126 C 0.63218 0.97478 0.47022 0.0
C127 C 0.6386 0.98054 0.42631 0.0
C128 C 0.61418 0.97046 0.39674 0.0
C129 C 0.49634 0.84515 0.34454 0.0
C130 C 0.45657 0.87699 0.44589 0.0
C131 C 0.40182 0.80667 0.32981 0.0
C132 C 0.3952 0.77926 0.30356 0.0
C133 C 0.41364 0.76504 0.30723 0.0
C134 C 0.41074 0.74283 0.27743 0.0
C135 C 0.38883 0.73375 0.24396 0.0
C136 C 0.36813 0.74558 0.24324 0.0
C137 C 0.37138 0.76821 0.27269 0.0
C138 C 0.44149 0.90918 0.34966 0.0
C139 C 0.49073 0.9125 0.26536 0.0
O140 O 0.53324 0.9463 0.39049 0.0
O141 O 0.5508 0.92007 0.35727 0.0
O142 O 0.48862 0.86195 0.32328 0.0
O143 O 0.50585 0.85896 0.38137 0.0
O144 O 0.4865 0.89409 0.43458 0.0
O145 O 0.43704 0.8625 0.4121 0.0
O146 O 0.42423 0.81527 0.35807 0.0
O147 O 0.40332 0.83064 0.30961 0.0
O148 O 0.45875 0.9024 0.37279 0.0
O149 O 0.43165 0.89227 0.31536 0.0
O150 O 0.46559 0.88375 0.27091 0.0
O151 O 0.50675 0.92545 0.30113 0.0
H152 H 0.55245 0.93527 0.46533 0.0
H153 H 0.59495 0.95368 0.51738 0.0
H154 H 0.66247 0.99314 0.41487 0.0
H155 H 0.61962 0.97551 0.36307 0.0
H156 H 0.43157 0.77224 0.33159 0.0
H157 H 0.42722 0.7346 0.27899 0.0
H158 H 0.35118 0.73951 0.21768 0.0
H159 H 0.35644 0.77836 0.26979 0.0
Tb160 Tb 0.62222 0.53007 0.69063 0.0
Tb161 Tb 0.57548 0.47006 0.67782 0.0
C162 C 0.66136 0.58489 0.71474 0.0
C163 C 0.67464 0.60132 0.755 0.0
C164 C 0.66175 0.58697 0.79421 0.0
C165 C 0.67426 0.60301 0.83233 0.0
C166 C 0.69989 0.63373 0.83189 0.0
C167 C 0.71303 0.64788 0.79246 0.0
C168 C 0.70052 0.63168 0.75423 0.0
C169 C 0.6454 0.49844 0.64911 0.0
C170 C 0.59115 0.48053 0.77713 0.0
C171 C 0.5521 0.4155 0.64926 0.0
C172 C 0.5671 0.40463 0.61873 0.0
C173 C 0.56713 0.3766 0.62638 0.0
C174 C 0.58774 0.37002 0.60412 0.0
C175 C 0.60882 0.39161 0.57433 0.0
C176 C 0.60776 0.41906 0.56579 0.0
C177 C 0.58731 0.42555 0.58784 0.0
C178 C 0.55515 0.50386 0.71704 0.0
C179 C 0.5818 0.51869 0.60034 0.0
O180 O 0.63172 0.57493 0.70848 0.0
O181 O 0.66867 0.56385 0.70456 0.0
O182 O 0.6265 0.48882 0.68095 0.0
O183 O 0.64835 0.52495 0.63771 0.0
O184 O 0.61262 0.5091 0.76097 0.0
O185 O 0.57296 0.45972 0.74808 0.0
O186 O 0.56717 0.42444 0.68543 0.0
O187 O 0.54413 0.43553 0.6351 0.0
O188 O 0.57446 0.51259 0.68702 0.0
O189 O 0.54345 0.47397 0.72222 0.0
O190 O 0.5683 0.48886 0.61387 0.0
O191 O 0.60417 0.53981 0.62674 0.0
H192 H 0.64169 0.56364 0.79539 0.0
H193 H 0.66309 0.5917 0.86211 0.0
H194 H 0.73274 0.6715 0.79121 0.0
H195 H 0.71079 0.64298 0.72406 0.0
H196 H 0.5523 0.36056 0.65097 0.0
H197 H 0.58784 0.34859 0.61115 0.0
H198 H 0.62293 0.43578 0.54208 0.0
H199 H 0.58837 0.4477 0.58201 0.0
Tb200 Tb 0.08349 0.59979 1.03396 0.0
Tb201 Tb 0.12257 0.5826 1.00667 0.0
C202 C 0.04247 0.61464 1.04941 0.0
C203 C 0.03701 0.63201 1.08306 0.0
C204 C 0.04274 0.6287 0.1262 0.0
C205 C 0.03706 0.64512 0.15771 0.0
C206 C 0.02592 0.66551 0.1467 0.0
C207 C 0.02094 0.6693 1.10328 0.0
C208 C 0.02641 0.65263 1.07175 0.0
C209 C 0.14164 0.64907 1.01602 0.0
C210 C 0.10714 0.57714 0.1151 0.0
C211 C 0.17671 0.58989 0.99948 0.0
C212 C 0.20508 0.60845 0.97347 0.0
C213 C 0.22396 0.641 0.97895 0.0
C214 C 0.2488 0.65858 0.95112 0.0
C215 C 0.2555 0.64386 0.9178 0.0
C216 C 0.23838 0.61102 0.91495 0.0
C217 C 0.21343 0.59352 0.9425 0.0
C218 C 0.07372 0.53072 1.01831 0.0
C219 C 0.07256 0.57772 0.93331 0.0
O220 O 0.03983 0.58786 1.06014 0.0
O221 O 0.0669 0.63117 1.02568 0.0
O222 O 0.12451 0.62535 0.99363 0.0
O223 O 0.12704 0.64461 1.05209 0.0
O224 O 0.09044 0.59037 1.10331 0.0
O225 O 0.12147 0.57184 1.08148 0.0
O226 O 0.16937 0.60552 1.0261 0.0
O227 O 0.15207 0.56785 0.9799 0.0
O228 O 0.0815 0.55475 1.04166 0.0
O229 O 0.09048 0.53756 0.98394 0.0
O230 O 0.10105 0.58062 0.93947 0.0
O231 O 0.05979 0.58111 0.96906 0.0
H232 H 0.05118 0.6131 0.13568 0.0
H233 H 0.04051 0.64103 0.19084 0.0
H234 H 0.01264 0.68498 1.09368 0.0
H235 H 0.02221 0.65571 1.03848 0.0
H236 H 0.21885 0.65315 1.00357 0.0
H237 H 0.2617 0.68381 0.9542 0.0
H238 H 0.24265 0.59894 0.88931 0.0
H239 H 0.19979 0.5684 0.93834 0.0
Tb240 Tb 0.90534 0.53184 0.53589 0.0
Tb241 Tb 0.90101 0.47687 0.55177 0.0
C242 C 0.92197 0.5888 0.52469 0.0
C243 C 0.92584 0.60817 0.48713 0.0
C244 C 0.91769 0.59448 0.44654 0.0
C245 C 0.92343 0.61306 0.41034 0.0
C246 C 0.93739 0.64576 0.41401 0.0
C247 C 0.94455 0.6593 0.45503 0.0
C248 C 0.93879 0.64057 0.49138 0.0
C249 C 0.84662 0.49342 0.55988 0.0
C250 C 0.88947 0.48408 0.45009 0.0
C251 C 0.87145 0.41882 0.56316 0.0
C252 C 0.84746 0.40118 0.59549 0.0
C253 C 0.818 0.37689 0.58225 0.0
C254 C 0.79172 0.36744 0.60823 0.0
C255 C 0.7948 0.38244 0.64744 0.0
C256 C 0.82471 0.40457 0.66226 0.0
C257 C 0.85081 0.41392 0.63652 0.0
C258 C 0.95577 0.51836 0.5145 0.0
C259 C 0.93752 0.52203 0.62857 0.0
O260 O 0.94141 0.57825 0.52746 0.0
O261 O 0.89341 0.56704 0.53283 0.0
O262 O 0.87139 0.49567 0.57794 0.0
O263 O 0.85553 0.51047 0.52581 0.0
O264 O 0.89568 0.51271 0.46468 0.0
O265 O 0.8906 0.46567 0.48069 0.0
O266 O 0.8628 0.43338 0.53631 0.0
O267 O 0.90023 0.43677 0.57663 0.0
O268 O 0.92878 0.51279 0.50742 0.0
O269 O 0.95247 0.49716 0.5422 0.0
O270 O 0.92529 0.49282 0.61503 0.0
O271 O 0.93197 0.54092 0.60242 0.0
H272 H 0.90772 0.5695 0.44272 0.0
H273 H 0.91829 0.60182 0.37931 0.0
H274 H 0.95521 0.68436 0.45892 0.0
H275 H 0.9451 0.65142 0.52267 0.0
H276 H 0.81487 0.36712 0.55041 0.0
H277 H 0.76887 0.35012 0.59647 0.0
H278 H 0.82769 0.4159 0.69295 0.0
H279 H 0.8731 0.43293 0.64741 0.0
Tb280 Tb 0.35977 0.90647 0.86819 0.0
Tb281 Tb 0.41062 0.902 0.8854 0.0
C282 C 0.31928 0.92266 0.85541 0.0
C283 C 0.3039 0.92569 0.81704 0.0
C284 C 0.31205 0.91977 0.77675 0.0
C285 C 0.29907 0.92452 0.73988 0.0
C286 C 0.27756 0.93526 0.74256 0.0
C287 C 0.26857 0.94009 0.78322 0.0
C288 C 0.28169 0.93531 0.82026 0.0
C289 C 0.33954 0.84842 0.8956 0.0
C290 C 0.39147 0.88994 0.78296 0.0
C291 C 0.44126 0.87431 0.89494 0.0
C292 C 0.44014 0.85181 0.92651 0.0
C293 C 0.44955 0.83037 0.91476 0.0
C294 C 0.44245 0.80462 0.94095 0.0
C295 C 0.42557 0.7999 0.97899 0.0
C296 C 0.4175 0.82232 0.99147 0.0
C297 C 0.42456 0.84793 0.96535 0.0
C298 C 0.42349 0.95649 0.84725 0.0
C299 C 0.39994 0.93694 0.96244 0.0
O300 O 0.34926 0.94227 0.85816 0.0
O301 O 0.31256 0.8943 0.86487 0.0
O302 O 0.36234 0.87353 0.91214 0.0
O303 O 0.33132 0.85643 0.86071 0.0
O304 O 0.36906 0.8962 0.79728 0.0
O305 O 0.41076 0.89093 0.81401 0.0
O306 O 0.41561 0.86341 0.87231 0.0
O307 O 0.45135 0.90302 0.90797 0.0
O308 O 0.40247 0.92935 0.84033 0.0
O309 O 0.44122 0.9537 0.87585 0.0
O310 O 0.41525 0.92245 0.95083 0.0
O311 O 0.3779 0.9344 0.93366 0.0
H312 H 0.32918 0.91236 0.77369 0.0
H313 H 0.30718 0.92128 0.70921 0.0
H314 H 0.25202 0.94828 0.78632 0.0
H315 H 0.27505 0.93979 0.85129 0.0
H316 H 0.46108 0.83276 0.88441 0.0
H317 H 0.44898 0.78778 0.9306 0.0
H318 H 0.40516 0.81975 1.02114 0.0
H319 H 0.41667 0.86396 0.97459 0.0
Tb320 Tb 0.47931 0.38 0.20051 0.0
Tb321 Tb 0.53705 0.42817 0.22425 0.0
C322 C 0.42169 0.34232 0.18958 0.0
C323 C 0.3978 0.33351 0.1565 0.0
C324 C 0.40611 0.34232 1.11381 0.0
C325 C 0.38291 0.33334 1.08264 0.0
C326 C 0.35111 0.31554 1.0938 0.0
C327 C 0.34294 0.30708 0.13675 0.0
C328 C 0.3662 0.31595 0.16789 0.0
C329 C 0.51518 0.35623 0.22499 0.0
C330 C 0.52641 0.41615 0.11745 0.0
C331 C 0.59486 0.45342 0.23748 0.0
C332 C 0.61158 0.44588 0.26984 0.0
C333 C 0.64255 0.45308 0.2629 0.0
C334 C 0.65613 0.44004 0.28925 0.0
C335 C 0.63857 0.4192 0.32217 0.0
C336 C 0.60791 0.41297 0.32964 0.0
C337 C 0.59455 0.42609 0.3037 0.0
C338 C 0.49836 0.446 0.19517 0.0
C339 C 0.48685 0.41425 0.29847 0.0
O340 O 0.43292 0.37028 0.20544 0.0
O341 O 0.44357 0.33556 0.182 0.0
O342 O 0.51338 0.37838 0.24392 0.0
O343 O 0.49856 0.34961 0.19066 0.0
O344 O 0.49697 0.39486 0.13022 0.0
O345 O 0.54602 0.43197 0.15031 0.0
O346 O 0.57946 0.43052 0.21061 0.0
O347 O 0.57794 0.46527 0.25117 0.0
O348 O 0.50385 0.42589 0.18162 0.0
O349 O 0.51703 0.45973 0.22731 0.0
O350 O 0.51736 0.43006 0.28901 0.0
O351 O 0.46838 0.39343 0.26809 0.0
H352 H 0.43046 0.35619 1.10467 0.0
H353 H 0.38984 0.3408 1.04989 0.0
H354 H 0.31863 0.29345 0.14613 0.0
H355 H 0.35954 0.3091 0.20089 0.0
H356 H 0.65574 0.46777 0.23621 0.0
H357 H 0.67987 0.44541 0.2831 0.0
H358 H 0.59404 0.3977 0.3555 0.0
H359 H 0.5704 0.41972 0.30899 0.0
Tb360 Tb 0.07636 0.45289 0.54173 0.0
Tb361 Tb 0.08876 0.51184 0.55702 0.0
C362 C 0.06056 0.39857 0.51546 0.0
C363 C 0.06325 0.38436 0.47582 0.0
C364 C 0.06744 0.3996 0.43648 0.0
C365 C 0.06745 0.38482 0.39865 0.0
C366 C 0.06337 0.35449 0.39941 0.0
C367 C 0.06077 0.33993 0.43917 0.0
C368 C 0.0607 0.35481 0.47713 0.0
C369 C 0.13143 0.48367 0.58348 0.0
C370 C 0.09408 0.50272 0.45632 0.0
C371 C 0.11634 0.56798 0.58144 0.0
C372 C 0.14294 0.58649 0.60993 0.0
C373 C 0.16514 0.61711 0.59804 0.0
C374 C 0.1932 0.63357 0.62074 0.0
C375 C 0.19947 0.61962 0.65582 0.0
C376 C 0.17669 0.5891 0.66813 0.0
C377 C 0.14885 0.57259 0.64516 0.0
C378 C 0.03276 0.47682 0.52115 0.0
C379 C 0.04893 0.46262 0.6344 0.0
O380 O 0.04246 0.41075 0.51398 0.0
O381 O 0.08668 0.41669 0.53524 0.0
O382 O 0.1221 0.49441 0.55264 0.0
O383 O 0.10779 0.45687 0.59354 0.0
O384 O 0.08937 0.47492 0.47211 0.0
O385 O 0.09472 0.52222 0.48605 0.0
O386 O 0.1239 0.55809 0.54751 0.0
O387 O 0.09037 0.54616 0.59855 0.0
O388 O 0.0451 0.4687 0.54959 0.0
O389 O 0.05091 0.50642 0.51492 0.0
O390 O 0.0671 0.49278 0.62314 0.0
O391 O 0.04762 0.4419 0.60493 0.0
H392 H 0.06951 0.42241 0.43474 0.0
H393 H 0.06884 0.39654 0.36869 0.0
H394 H 0.05778 0.31669 0.44085 0.0
H395 H 0.05777 0.34288 0.5074 0.0
H396 H 0.1612 0.62792 0.57026 0.0
H397 H 0.21022 0.6569 0.61023 0.0
H398 H 0.18026 0.57786 0.69568 0.0
H399 H 0.13228 0.54875 0.65438 0.0
Tb400 Tb 0.60882 0.07714 0.87533 0.0
Tb401 Tb 0.56072 0.08859 0.88898 0.0
C402 C 0.64867 0.06271 0.85069 0.0
C403 C 0.66544 0.06475 0.81122 0.0
C404 C 0.6551 0.06985 0.77185 0.0
C405 C 0.67024 0.07017 0.73423 0.0
C406 C 0.6961 0.06546 0.73526 0.0
C407 C 0.70709 0.06149 0.77504 0.0
C408 C 0.69184 0.06118 0.8128 0.0
C409 C 0.63036 0.13163 0.91682 0.0
C410 C 0.57613 0.09398 0.78959 0.0
C411 C 0.5354 0.1181 0.91668 0.0
C412 C 0.54833 0.14301 0.94907 0.0
C413 C 0.55401 0.17306 0.93807 0.0
C414 C 0.57499 0.19913 0.96211 0.0
C415 C 0.59063 0.19538 0.99723 0.0
C416 C 0.58296 0.16505 1.01005 0.0
C417 C 0.56213 0.13917 0.9862 0.0
C418 C 0.54135 0.03341 0.85283 0.0
C419 C 0.57027 0.04891 0.96644 0.0
O420 O 0.61852 0.04357 0.85019 0.0
O421 O 0.65582 0.08931 0.86824 0.0
O422 O 0.61133 0.1219 0.88499 0.0
O423 O 0.6347 0.10887 0.92784 0.0
O424 O 0.59917 0.08927 0.80565 0.0
O425 O 0.557 0.09484 0.81855 0.0
O426 O 0.55224 0.12578 0.88202 0.0
O427 O 0.5272 0.0897 0.92932 0.0
O428 O 0.56158 0.04574 0.88162 0.0
O429 O 0.52892 0.05081 0.8468 0.0
O430 O 0.55698 0.06564 0.95406 0.0
O431 O 0.59125 0.04896 0.93867 0.0
H432 H 0.63481 0.07266 0.76996 0.0
H433 H 0.66062 0.07255 0.70416 0.0
H434 H 0.72698 0.0579 0.77687 0.0
H435 H 0.70025 0.0575 0.84313 0.0
H436 H 0.54395 0.17659 0.90916 0.0
H437 H 0.5802 0.22224 0.95197 0.0
H438 H 0.59387 0.16138 1.03792 0.0
H439 H 0.55847 0.11643 0.99544 0.0
Tb440 Tb 0.5085 0.59901 0.20142 0.0
Tb441 Tb 0.45323 0.58201 0.22936 0.0
C442 C 0.56435 0.61322 0.18669 0.0
C443 C 0.58898 0.63169 0.15562 0.0
C444 C 0.58198 0.63252 1.1123 0.0
C445 C 0.60604 0.64864 1.08296 0.0
C446 C 0.63752 0.6645 1.09647 0.0
C447 C 0.64424 0.66471 0.14028 0.0
C448 C 0.62013 0.64836 0.16957 0.0
C449 C 0.50103 0.64859 0.22329 0.0
C450 C 0.46249 0.57858 0.12044 0.0
C451 C 0.40736 0.5908 0.2361 0.0
C452 C 0.39988 0.61236 0.25877 0.0
C453 C 0.41662 0.6447 0.25052 0.0
C454 C 0.41161 0.66519 0.27523 0.0
C455 C 0.38939 0.65382 0.30824 0.0
C456 C 0.3707 0.6212 0.31372 0.0
C457 C 0.37597 0.60071 0.28927 0.0
C458 C 0.44783 0.52955 0.21478 0.0
C459 C 0.49798 0.57508 0.30095 0.0
O460 O 0.53998 0.58779 0.17279 0.0
O461 O 0.55652 0.62905 0.21184 0.0
O462 O 0.4942 0.62421 0.24426 0.0
O463 O 0.51036 0.64463 0.18623 0.0
O464 O 0.49248 0.59175 0.13187 0.0
O465 O 0.44307 0.57243 0.15453 0.0
O466 O 0.42893 0.60354 0.20678 0.0
O467 O 0.41045 0.5703 0.25913 0.0
O468 O 0.46532 0.55404 0.19267 0.0
O469 O 0.43822 0.53596 0.24975 0.0
O470 O 0.47276 0.5787 0.29592 0.0
O471 O 0.51343 0.57835 0.2646 0.0
H472 H 0.55802 0.62001 1.10093 0.0
H473 H 0.59995 0.64743 1.0494 0.0
H474 H 0.66816 0.67693 0.15178 0.0
H475 H 0.62585 0.6482 0.20307 0.0
H476 H 0.43459 0.65447 0.22623 0.0
H477 H 0.42659 0.68994 0.27008 0.0
H478 H 0.35366 0.61147 0.33923 0.0
H479 H 0.36228 0.57581 0.29552 0.0
H480 H 0.52898 0.18301 0.26227 0.0
H481 H 0.50435 0.20237 0.38584 0.0
H482 H 0.5354 0.2327 0.2353 0.0
H483 H 0.50925 0.25068 0.35914 0.0
H484 H 0.52983 0.34665 0.30993 0.0
H485 H 0.53298 0.30164 0.33773 0.0
H486 H 0.51443 0.26166 0.21094 0.0
H487 H 0.51275 0.30666 0.18366 0.0
C488 C 0.52499 0.19774 0.28387 0.0
C489 C 0.51591 0.1879 0.32649 0.0
C490 C 0.52834 0.2265 0.26825 0.0
C491 C 0.52259 0.24672 0.29442 0.0
C492 C 0.51439 0.23693 0.33729 0.0
C493 C 0.51129 0.20854 0.35278 0.0
C494 C 0.52688 0.32849 0.28791 0.0
C495 C 0.52087 0.33088 0.24424 0.0
C496 C 0.52831 0.30207 0.30396 0.0
C497 C 0.52365 0.27673 0.27716 0.0
C498 C 0.51859 0.27997 0.23338 0.0
C499 C 0.51738 0.30621 0.2175 0.0
H500 H 0.32658 0.53466 0.67671 0.0
H501 H 0.29379 0.45419 0.59494 0.0
H502 H 0.27847 0.53673 0.66007 0.0
H503 H 0.24652 0.45589 0.57934 0.0
H504 H 0.14799 0.43956 0.60119 0.0
H505 H 0.19841 0.44441 0.6162 0.0
H506 H 0.24311 0.54429 0.60086 0.0
H507 H 0.19152 0.53931 0.5848 0.0
C508 C 0.30947 0.51749 0.65508 0.0
C509 C 0.31484 0.49409 0.63766 0.0
C510 C 0.2816 0.51869 0.64534 0.0
C511 C 0.25757 0.49624 0.6184 0.0
C512 C 0.26354 0.47347 0.60065 0.0
C513 C 0.29123 0.47258 0.60969 0.0
C514 C 0.16831 0.46281 0.60058 0.0
C515 C 0.16472 0.48891 0.591 0.0
C516 C 0.19778 0.46558 0.60926 0.0
C517 C 0.22583 0.49474 0.60985 0.0
C518 C 0.22251 0.52124 0.60102 0.0
C519 C 0.19268 0.51837 0.59132 0.0
H520 H 0.7742 0.29962 1.05426 0.0
H521 H 0.8024 0.32415 0.9231 0.0
H522 H 0.72726 0.25263 1.03143 0.0
H523 H 0.7547 0.27599 0.89962 0.0
H524 H 0.65204 0.1891 0.87184 0.0
H525 H 0.69654 0.24119 0.89051 0.0
H526 H 0.71101 0.2024 1.00639 0.0
H527 H 0.66721 0.15148 0.98804 0.0
C528 C 0.77037 0.29523 1.0202 0.0
C529 C 0.7929 0.3164 0.99097 0.0
C530 C 0.74314 0.26762 1.00689 0.0
C531 C 0.73656 0.25911 0.9633 0.0
C532 C 0.75832 0.28102 0.93352 0.0
C533 C 0.78595 0.30901 0.94704 0.0
C534 C 0.6644 0.1918 0.90165 0.0
C535 C 0.65522 0.1654 0.92843 0.0
C536 C 0.69042 0.22189 0.91229 0.0
C537 C 0.70818 0.22705 0.95045 0.0
C538 C 0.69839 0.20053 0.97712 0.0
C539 C 0.67287 0.17077 0.96639 0.0
H540 H 0.51123 0.70296 0.18066 0.0
H541 H 0.49079 0.66149 0.30607 0.0
H542 H 0.51097 0.74892 0.20884 0.0
H543 H 0.49068 0.70715 0.33481 0.0
H544 H 0.50579 0.8008 0.38818 0.0
H545 H 0.50757 0.75554 0.36017 0.0
H546 H 0.49243 0.77923 0.23256 0.0
H547 H 0.49017 0.82382 0.26108 0.0
C548 C 0.50664 0.7035 0.21441 0.0
C549 C 0.50109 0.67783 0.24063 0.0
C550 C 0.50623 0.73022 0.23099 0.0
C551 C 0.5005 0.73303 0.27496 0.0
C552 C 0.49529 0.70721 0.30104 0.0
C553 C 0.49531 0.68041 0.28433 0.0
C554 C 0.50274 0.79634 0.35409 0.0
C555 C 0.49782 0.81666 0.32735 0.0
C556 C 0.50353 0.76979 0.3376 0.0
C557 C 0.49983 0.76215 0.29322 0.0
C558 C 0.49537 0.78304 0.26666 0.0
C559 C 0.49406 0.8092 0.28325 0.0
H560 H 0.68002 0.51246 0.57584 0.0
H561 H 0.67275 0.46956 0.69848 0.0
H562 H 0.72555 0.50792 0.55868 0.0
H563 H 0.71911 0.46486 0.6813 0.0
H564 H 0.82664 0.49357 0.64624 0.0
H565 H 0.77755 0.4912 0.66932 0.0
H566 H 0.7451 0.47541 0.53863 0.0
H567 H 0.79327 0.47793 0.5162 0.0
C568 C 0.68779 0.50155 0.59923 0.0
C569 C 0.67169 0.49117 0.63856 0.0
C570 C 0.71437 0.49884 0.58924 0.0
C571 C 0.72706 0.48585 0.61814 0.0
C572 C 0.71088 0.47521 0.65772 0.0
C573 C 0.68373 0.47758 0.66755 0.0
C574 C 0.80878 0.4889 0.62253 0.0
C575 C 0.81471 0.48588 0.57892 0.0
C576 C 0.78032 0.48772 0.6358 0.0
C577 C 0.75663 0.48385 0.60607 0.0
C578 C 0.76231 0.47939 0.56304 0.0
C579 C 0.7903 0.48044 0.55003 0.0
H580 H 0.29377 0.79638 0.85702 0.0
H581 H 0.32649 0.83092 0.98403 0.0
H582 H 0.2487 0.75111 0.88568 0.0
H583 H 0.28115 0.78384 1.01401 0.0
H584 H 0.1818 0.70501 1.05936 0.0
H585 H 0.22979 0.75105 1.03385 0.0
H586 H 0.21951 0.70454 0.91313 0.0
H587 H 0.17181 0.65973 0.93838 0.0
C588 C 0.29181 0.79409 0.89154 0.0
C589 C 0.31471 0.81807 0.9176 0.0
C590 C 0.26536 0.76733 0.90849 0.0
C591 C 0.25987 0.76229 0.95306 0.0
C592 C 0.28332 0.78603 0.97957 0.0
C593 C 0.31004 0.81327 0.9623 0.0
C594 C 0.1898 0.70467 1.02726 0.0
C595 C 0.17213 0.67806 1.00118 0.0
C596 C 0.21788 0.73138 1.0124 0.0
C597 C 0.22989 0.73297 0.97057 0.0
C598 C 0.21202 0.7059 0.94501 0.0
C599 C 0.18408 0.67946 0.95977 0.0
H600 H 0.58917 0.24707 1.02643 0.0
H601 H 0.64772 0.20546 1.02119 0.0
H602 H 0.62086 0.28055 1.08502 0.0
H603 H 0.67763 0.23637 1.08109 0.0
H604 H 0.60906 0.2441 0.22408 0.0
H605 H 0.61293 0.26331 0.15277 0.0
H606 H 0.70187 0.26709 0.13736 0.0
H607 H 0.69658 0.24554 0.20919 0.0
C608 C 0.60932 0.24566 1.03712 0.0
C609 C 0.61497 0.22243 1.02128 0.0
C610 C 0.62739 0.26463 1.07104 0.0
C611 C 0.65032 0.25954 1.09053 0.0
C612 C 0.65959 0.24058 1.06871 0.0
C613 C 0.64205 0.22225 1.03439 0.0
C614 C 0.6301 0.25014 0.20621 0.0
C615 C 0.65175 0.24185 0.22138 0.0
C616 C 0.63252 0.26147 0.16472 0.0
C617 C 0.65669 0.2647 0.13755 0.0
C618 C 0.68177 0.26281 0.1562 0.0
C619 C 0.67893 0.25066 0.19751 0.0
H620 H 0.34055 0.65309 0.352 0.0
H621 H 0.44112 0.70264 0.34395 0.0
H622 H 0.34422 0.66626 0.42765 0.0
H623 H 0.44511 0.71399 0.41882 0.0
H624 H 0.36429 0.61058 0.5312 0.0
H625 H 0.35266 0.63504 0.47295 0.0
H626 H 0.44239 0.71916 0.49029 0.0
H627 H 0.45499 0.69315 0.54665 0.0
C628 C 0.36346 0.66774 0.36601 0.0
C629 C 0.39058 0.67478 0.34301 0.0
C630 C 0.36564 0.67509 0.40952 0.0
C631 C 0.39486 0.68846 0.43044 0.0
C632 C 0.42194 0.70223 0.40485 0.0
C633 C 0.41973 0.69554 0.36128 0.0
C634 C 0.38154 0.63435 0.52269 0.0
C635 C 0.4112 0.64923 0.54198 0.0
C636 C 0.37459 0.64891 0.48964 0.0
C637 C 0.39709 0.67896 0.47523 0.0
C638 C 0.42495 0.69556 0.49908 0.0
C639 C 0.43213 0.68069 0.53175 0.0
H640 H 0.74121 0.34733 0.8773 0.0
H641 H 0.72827 0.42671 0.85822 0.0
H642 H 0.72734 0.33214 0.80419 0.0
H643 H 0.71218 0.41037 0.78444 0.0
H644 H 0.78146 0.42633 0.67382 0.0
H645 H 0.74861 0.42178 0.73311 0.0
H646 H 0.71098 0.32148 0.73509 0.0
H647 H 0.74601 0.32692 0.67646 0.0
C648 C 0.73369 0.36065 0.85799 0.0
C649 C 0.73717 0.389 0.87285 0.0
C650 C 0.72546 0.35179 0.81553 0.0
C651 C 0.72046 0.37113 0.78716 0.0
C652 C 0.71771 0.39592 0.80464 0.0
C653 C 0.72674 0.40526 0.84699 0.0
C654 C 0.76557 0.40322 0.68636 0.0
C655 C 0.76732 0.37721 0.6724 0.0
C656 C 0.74618 0.40037 0.72025 0.0
C657 C 0.72813 0.37134 0.74092 0.0
C658 C 0.72575 0.34446 0.72148 0.0
C659 C 0.74562 0.34744 0.68772 0.0
H660 H 0.36902 0.76343 1.0163 0.0
H661 H 0.45988 0.77214 1.00159 0.0
H662 H 0.3572 0.72676 1.07397 0.0
H663 H 0.44737 0.73339 1.05803 0.0
H664 H 0.44282 0.74476 0.20588 0.0
H665 H 0.44888 0.74231 0.13029 0.0
H666 H 0.3486 0.68476 0.11602 0.0
H667 H 0.34265 0.68867 0.1928 0.0
C668 C 0.38621 0.7568 1.02481 0.0
C669 C 0.41593 0.77177 1.00593 0.0
C670 C 0.37921 0.73509 1.05751 0.0
C671 C 0.40174 0.72763 1.07202 0.0
C672 C 0.42983 0.73934 1.04881 0.0
C673 C 0.43699 0.76146 1.01627 0.0
C674 C 0.42206 0.73039 0.18718 0.0
C675 C 0.39218 0.7186 0.20494 0.0
C676 C 0.42552 0.72882 0.14319 0.0
C677 C 0.39903 0.71515 0.11635 0.0
C678 C 0.36946 0.69717 0.1355 0.0
C679 C 0.36599 0.69924 0.17957 0.0
H680 H 0.69638 0.44672 0.36085 0.0
H681 H 0.61131 0.35827 0.34674 0.0
H682 H 0.7086 0.42806 0.42593 0.0
H683 H 0.62156 0.34024 0.4127 0.0
H684 H 0.66979 0.43264 0.55423 0.0
H685 H 0.69563 0.42942 0.49141 0.0
H686 H 0.62606 0.3313 0.47912 0.0
H687 H 0.59846 0.33594 0.5399 0.0
C688 C 0.68057 0.423 0.3713 0.0
C689 C 0.6518 0.40468 0.35065 0.0
C690 C 0.68719 0.41232 0.4093 0.0
C691 C 0.66431 0.38398 0.42821 0.0
C692 C 0.6391 0.36317 0.40193 0.0
C693 C 0.63287 0.37354 0.36363 0.0
C694 C 0.66012 0.4103 0.53808 0.0
C695 C 0.63066 0.38538 0.54952 0.0
C696 C 0.67517 0.40818 0.50172 0.0
C697 C 0.66087 0.38097 0.47616 0.0
C698 C 0.63602 0.35376 0.49476 0.0
C699 C 0.62034 0.35615 0.53044 0.0
H700 H 0.29968 0.63693 0.87327 0.0
H701 H 0.254 0.69181 0.87752 0.0
H702 H 0.30962 0.64829 0.79714 0.0
H703 H 0.26177 0.70149 0.80227 0.0
H704 H 0.23453 0.59671 0.69167 0.0
H705 H 0.27116 0.61969 0.74962 0.0
H706 H 0.2714 0.70679 0.73151 0.0
H707 H 0.23195 0.68229 0.67604 0.0
C708 C 0.29276 0.65235 0.85824 0.0
C709 C 0.27455 0.66207 0.88067 0.0
C710 C 0.29813 0.65864 0.81447 0.0
C711 C 0.28418 0.67356 0.79251 0.0
C712 C 0.27202 0.68889 0.81709 0.0
C713 C 0.26738 0.68326 0.86089 0.0
C714 C 0.24247 0.62083 0.69994 0.0
C715 C 0.22881 0.63696 0.68109 0.0
C716 C 0.26427 0.63449 0.73285 0.0
C717 C 0.27328 0.66488 0.74729 0.0
C718 C 0.26382 0.68281 0.72298 0.0
C719 C 0.24132 0.66882 0.69071 0.0
H720 H 0.38767 0.98498 0.99796 0.0
H721 H 0.43371 0.9346 1.0357 0.0
H722 H 0.40434 0.01466 1.06593 0.0
H723 H 0.44835 0.9626 1.10418 0.0
H724 H 0.50172 0.03834 0.21529 0.0
H725 H 0.48231 0.0078 0.14922 0.0
H726 H 0.40616 0.02618 0.14564 0.0
H727 H 0.42482 0.05545 0.2136 0.0
C728 C 0.40116 0.97957 1.0202 0.0
C729 C 0.40879 0.95612 1.00787 0.0
C730 C 0.41108 -0.0028 1.06068 0.0
C731 C 0.42954 0.99319 1.09339 0.0
C732 C 0.436 0.96898 1.08141 0.0
C733 C 0.42674 0.9519 1.04088 0.0
C734 C 0.4807 0.03624 0.20116 0.0
C735 C 0.46586 0.0509 0.22293 0.0
C736 C 0.46909 0.01802 0.16167 0.0
C737 C 0.44184 0.0132 0.13828 0.0
C738 C 0.42712 0.02822 0.15982 0.0
C739 C 0.43818 0.0456 0.20028 0.0
H740 H 0.43173 0.37634 0.35165 0.0
H741 H 0.5102 0.46955 0.35061 0.0
H742 H 0.41312 0.38795 0.41871 0.0
H743 H 0.49085 0.48168 0.4159 0.0
H744 H 0.44061 0.50778 0.5271 0.0
H745 H 0.45625 0.49398 0.45954 0.0
H746 H 0.41218 0.39823 0.49877 0.0
H747 H 0.39522 0.41163 0.56583 0.0
C748 C 0.44546 0.39959 0.36489 0.0
C749 C 0.47354 0.42136 0.34265 0.0
C750 C 0.43442 0.40652 0.40486 0.0
C751 C 0.44957 0.43637 0.42633 0.0
C752 C 0.47725 0.45825 0.40337 0.0
C753 C 0.48882 0.45101 0.36438 0.0
C754 C 0.43388 0.48351 0.52232 0.0
C755 C 0.41592 0.46152 0.55539 0.0
C756 C 0.44356 0.47542 0.48228 0.0
C757 C 0.43722 0.44463 0.47075 0.0
C758 C 0.41879 0.42245 0.50356 0.0
C759 C 0.40874 0.43044 0.54356 0.0
H760 H 0.04625 0.49934 0.70374 0.0
H761 H 0.00396 0.40228 0.6715 0.0
H762 H 0.01547 0.48534 0.77042 0.0
H763 H 0.97313 0.38832 0.73826 0.0
H764 H 0.93285 0.36841 0.88559 0.0
H765 H 0.96348 0.38068 0.8188 0.0
H766 H 0.96669 0.46899 0.81132 0.0
H767 H 0.93507 0.45612 0.87683 0.0
C768 C 0.03033 0.47479 0.70992 0.0
C769 C 0.02884 0.45265 0.67895 0.0
C770 C 0.0119 0.46652 0.74934 0.0
C771 C 0.98993 0.43518 0.7625 0.0
C772 C 0.98885 0.41288 0.73195 0.0
C773 C 0.00714 0.42117 0.69223 0.0
C774 C 0.93963 0.39054 0.87013 0.0
C775 C 0.92985 0.41061 0.88949 0.0
C776 C 0.95779 0.39784 0.83041 0.0
C777 C 0.96909 0.42645 0.80645 0.0
C778 C 0.95972 0.44667 0.82635 0.0
C779 C 0.94081 0.43898 0.86525 0.0
H780 H 0.54989 0.96309 0.23945 0.0
H781 H 0.45868 0.90691 0.18442 0.0
H782 H 0.56845 0.99293 0.1722 0.0
H783 H 0.47717 0.93745 0.11732 0.0
H784 H 0.51604 0.02875 1.01809 0.0
H785 H 0.49849 -0.00226 1.08398 0.0
H786 H 0.58106 0.99019 1.08596 0.0
H787 H 0.59868 0.02087 1.01876 0.0
C788 C 0.53325 0.95668 0.21342 0.0
C789 C 0.50202 0.93126 0.22021 0.0
C790 C 0.5443 0.97436 0.1736 0.0
C791 C 0.52501 0.96917 0.1367 0.0
C792 C 0.49366 0.94387 0.14346 0.0
C793 C 0.48279 0.92557 0.18301 0.0
C794 C 0.53088 0.02059 1.03171 0.0
C795 C 0.55947 0.02855 1.01022 0.0
C796 C 0.52021 0.00188 1.07061 0.0
C797 C 0.53715 0.98964 1.09286 0.0
C798 C 0.56616 -0.0019 1.07188 0.0
C799 C 0.57658 0.01622 1.03213 0.0
H800 H 0.5238 0.48725 0.55391 0.0
H801 H 0.61192 0.57205 0.54214 0.0
H802 H 0.50525 0.50055 0.4885 0.0
H803 H 0.59347 0.5847 0.47524 0.0
H804 H 0.55412 0.57427 0.32241 0.0
H805 H 0.57348 0.56299 0.38911 0.0
H806 H 0.49034 0.54666 0.45376 0.0
H807 H 0.47077 0.55788 0.38683 0.0
C808 C 0.53974 0.50893 0.53791 0.0
C809 C 0.57017 0.52801 0.55648 0.0
C810 C 0.52855 0.51692 0.49913 0.0
C811 C 0.54671 0.5444 0.47365 0.0
C812 C 0.57746 0.56328 0.49169 0.0
C813 C 0.58841 0.55579 0.5314 0.0
C814 C 0.53932 0.56819 0.35036 0.0
C815 C 0.5099 0.56739 0.34599 0.0
C816 C 0.5509 0.56156 0.39001 0.0
C817 C 0.53407 0.5527 0.42968 0.0
C818 C 0.50468 0.55202 0.42549 0.0
C819 C 0.49324 0.55908 0.38589 0.0
H820 H 0.01758 0.57978 0.90839 0.0
H821 H 0.08249 0.55808 0.84915 0.0
H822 H 0.98829 0.56895 0.84089 0.0
H823 H 0.0529 0.54671 0.78147 0.0
H824 H 0.98414 0.50879 0.65979 0.0
H825 H 0.01577 0.52326 0.72533 0.0
H826 H 0.97036 0.57226 0.7701 0.0
H827 H 0.94042 0.56 0.70243 0.0
C828 C 0.02618 0.57271 0.88132 0.0
C829 C 0.05388 0.57046 0.88748 0.0
C830 C 0.00875 0.56633 0.84101 0.0
C831 C 0.01664 0.5564 0.80212 0.0
C832 C 0.04429 0.55388 0.80837 0.0
C833 C 0.06204 0.56075 0.84864 0.0
C834 C 0.98055 0.52292 0.68297 0.0
C835 C 0.95845 0.53277 0.6725 0.0
C836 C -0.00088 0.53114 0.72234 0.0
C837 C -0.00336 0.54871 0.7571 0.0
C838 C 0.97426 0.55846 0.74678 0.0
C839 C 0.95653 0.55133 0.70642 0.0
H840 H 0.45538 0.03376 0.44011 0.0
H841 H 0.45179 0.00683 0.30816 0.0
H842 H 0.40269 0.99065 0.45147 0.0
H843 H 0.39886 0.96427 0.31873 0.0
H844 H 0.44154 0.92755 0.43278 0.0
H845 H 0.40609 0.94355 0.46213 0.0
H846 H 0.35093 0.91497 0.34855 0.0
H847 H 0.38385 0.89601 0.31881 0.0
C848 C 0.44322 0.01827 0.41357 0.0
C849 C 0.45844 0.02135 0.37435 0.0
C850 C 0.41258 0.99444 0.41962 0.0
C851 C 0.39791 0.97171 0.3877 0.0
C852 C 0.41063 0.97928 0.34578 0.0
C853 C 0.44139 0.00303 0.33965 0.0
C854 C 0.42201 0.92476 0.41357 0.0
C855 C 0.41826 0.91487 0.37078 0.0
C856 C 0.40102 0.93299 0.43064 0.0
C857 C 0.38225 0.93826 0.40142 0.0
C858 C 0.36991 0.91655 0.36793 0.0
C859 C 0.38974 0.9071 0.34994 0.0
H860 H 0.46506 0.45298 0.71306 0.0
H861 H 0.4092 0.46863 0.8032 0.0
H862 H 0.49989 0.45817 0.77223 0.0
H863 H 0.45156 0.48818 0.85521 0.0
H864 H 0.5818 0.52379 0.8005 0.0
H865 H 0.54056 0.5049 0.85396 0.0
H866 H 0.48998 0.53273 0.77076 0.0
H867 H 0.5232 0.53635 0.71061 0.0
C868 C 0.4599 0.45763 0.74496 0.0
C869 C 0.43723 0.46628 0.75149 0.0
C870 C 0.48021 0.46128 0.77885 0.0
C871 C 0.48166 0.48006 0.81382 0.0
C872 C 0.45349 0.47795 0.82558 0.0
C873 C 0.4303 0.46918 0.79439 0.0
C874 C 0.56027 0.52254 0.79202 0.0
C875 C 0.55224 0.52433 0.74915 0.0
C876 C 0.53782 0.51433 0.82393 0.0
C877 C 0.50936 0.51192 0.81279 0.0
C878 C 0.50981 0.52976 0.77701 0.0
C879 C 0.5292 0.53253 0.7426 0.0
H880 H 0.94485 0.41803 1.10499 0.0
H881 H 0.97283 0.44325 0.97358 0.0
H882 H 0.98861 0.40977 0.11734 0.0
H883 H 0.01658 0.4349 0.98534 0.0
H884 H 0.05443 0.51167 1.10102 0.0
H885 H 0.03611 0.45927 0.12928 0.0
H886 H 0.06429 0.43288 1.01576 0.0
H887 H 0.08542 0.48552 0.98715 0.0
C888 C 0.96068 0.42204 1.07874 0.0
C889 C 0.95736 0.43397 1.03929 0.0
C890 C 0.98503 0.41613 1.08544 0.0
C891 C 0.00802 0.42471 1.05394 0.0
C892 C 0.00103 0.43071 1.01198 0.0
C893 C 0.97656 0.43657 1.00517 0.0
C894 C 0.05664 0.49476 1.08163 0.0
C895 C 0.06701 0.50128 1.03907 0.0
C896 C 0.04709 0.46499 1.09808 0.0
C897 C 0.04131 0.4412 1.06839 0.0
C898 C 0.0633 0.45038 1.0354 0.0
C899 C 0.07402 0.48017 1.01805 0.0
H900 H 0.03898 0.44979 0.44476 0.0
H901 H 0.96903 0.45287 0.52181 0.0
H902 H 0.02338 0.46961 0.38359 0.0
H903 H 0.94661 0.46137 0.4573 0.0
H904 H 0.01947 0.53654 0.51191 0.0
H905 H 0.04158 0.52483 0.44823 0.0
H906 H 0.96078 0.50465 0.37517 0.0
H907 H 0.94597 0.52955 0.43021 0.0
C908 C 0.01982 0.45394 0.44851 0.0
C909 C 0.00912 0.45612 0.48935 0.0
C910 C 0.00958 0.46334 0.41258 0.0
C911 C 0.98719 0.47244 0.41844 0.0
C912 C 0.96698 0.45874 0.45385 0.0
C913 C 0.97959 0.45354 0.49122 0.0
C914 C 0.00755 0.53176 0.48135 0.0
C915 C 0.97785 0.52858 0.47793 0.0
C916 C 0.01975 0.52467 0.44526 0.0
C917 C -0.00162 0.50639 0.41288 0.0
C918 C 0.97539 0.51411 0.40334 0.0
C919 C 0.9658 0.5266 0.43611 0.0
H920 H 0.4687 0.02039 0.84361 0.0
H921 H 0.40214 0.94645 0.76312 0.0
H922 H 0.50235 0.04234 0.77937 0.0
H923 H 0.44161 0.96121 0.70769 0.0
H924 H 0.57495 0.03942 0.77665 0.0
H925 H 0.53948 0.02377 0.71549 0.0
H926 H 0.47082 0.94714 0.78985 0.0
H927 H 0.50174 0.96965 0.85421 0.0
C928 C 0.46162 0.00827 0.81328 0.0
C929 C 0.4352 0.97848 0.81039 0.0
C930 C 0.48077 0.02036 0.77692 0.0
C931 C 0.47766 -0.00114 0.74489 0.0
C932 C 0.44689 0.97587 0.73571 0.0
C933 C 0.42495 0.9663 0.76874 0.0
C934 C 0.55158 0.02033 0.78054 0.0
C935 C 0.53862 0.00971 0.82146 0.0
C936 C 0.53191 0.01007 0.74466 0.0
C937 C 0.50041 0.98768 0.75066 0.0
C938 C 0.49383 0.96751 0.78626 0.0
C939 C 0.51166 0.98016 0.82354 0.0
H940 H 0.38967 0.48492 0.24393 0.0
H941 H 0.44727 0.51327 0.13025 0.0
H942 H 0.35654 0.43371 0.21184 0.0
H943 H 0.41109 0.46252 1.09875 0.0
H944 H 0.45825 0.44643 0.25454 0.0
H945 H 0.40426 0.43213 0.24232 0.0
H946 H 0.41252 0.41438 1.10893 0.0
H947 H 0.46615 0.42724 0.12208 0.0
C948 C 0.39556 0.48035 0.21245 0.0
C949 C 0.42423 0.50137 0.19233 0.0
C950 C 0.37566 0.45145 0.19316 0.0
C951 C 0.3883 0.44271 0.15941 0.0
C952 C 0.40644 0.46739 0.13081 0.0
C953 C 0.42775 0.49619 0.14901 0.0
C954 C 0.44862 0.44012 0.22254 0.0
C955 C 0.46703 0.44096 0.18832 0.0
C956 C 0.41731 0.43087 0.21541 0.0
C957 C 0.40534 0.42613 0.17298 0.0
C958 C 0.42174 0.42029 0.14121 0.0
C959 C 0.45287 0.42907 0.14831 0.0
H960 H 0.26214 0.906 0.6647 0.0
H961 H 0.2726 0.98751 0.73042 0.0
H962 H 0.26663 0.93137 0.59645 0.0
H963 H 0.27489 0.01211 0.66198 0.0
H964 H 0.35235 0.06071 0.55771 0.0
H965 H 0.32068 0.03424 0.61958 0.0
H966 H 0.2567 0.95721 0.53931 0.0
H967 H 0.28957 0.98351 0.47728 0.0
C968 C 0.2642 0.92889 0.66451 0.0
C969 C 0.26837 0.94527 0.70291 0.0
C970 C 0.26635 0.94334 0.62525 0.0
C971 C 0.27226 0.97429 0.62376 0.0
C972 C 0.27137 0.98863 0.66213 0.0
C973 C 0.2697 0.97435 0.70144 0.0
C974 C 0.33128 0.03833 0.5532 0.0
C975 C 0.32386 0.02377 0.51302 0.0
C976 C 0.31271 0.02329 0.58859 0.0
C977 C 0.2862 0.99334 0.5846 0.0
C978 C 0.27721 0.98005 0.54357 0.0
C979 C 0.29592 0.99515 0.50803 0.0
H980 H 0.29872 0.32088 1.09796 0.0
H981 H 0.34887 0.29159 1.0149 0.0
H982 H 0.26534 0.31781 1.03804 0.0
H983 H 0.31663 0.28962 0.955 0.0
H984 H 0.27027 0.29629 0.8467 0.0
H985 H 0.26919 0.27228 0.91532 0.0
H986 H 0.28142 0.35482 0.98029 0.0
H987 H 0.28082 0.37796 0.91198 0.0
C988 C 0.30201 0.31294 1.06717 0.0
C989 C 0.32683 0.30724 1.06062 0.0
C990 C 0.28299 0.31129 1.03287 0.0
C991 C 0.28861 0.304 0.99157 0.0
C992 C 0.31139 0.29514 0.9863 0.0
C993 C 0.33029 0.29676 1.02049 0.0
C994 C 0.27119 0.30866 0.87572 0.0
C995 C 0.27671 0.33945 0.87406 0.0
C996 C 0.27081 0.29498 0.91505 0.0
C997 C 0.27633 0.31205 0.95315 0.0
C998 C 0.27731 0.34099 0.95164 0.0
C999 C 0.2774 0.35452 0.91239 0.0
H1000 H 0.01636 0.32218 0.13422 0.0
H1001 H 0.937 0.29105 0.21815 0.0
H1002 H 0.04725 0.31929 0.19363 0.0
H1003 H 0.96774 0.28922 0.27747 0.0
H1004 H 0.01966 0.29329 0.38454 0.0
H1005 H -0.00264 0.27085 0.31531 0.0
H1006 H 0.06877 0.35435 0.25298 0.0
H1007 H 0.09228 0.37581 0.32195 0.0
C1008 C 0.00534 0.31401 0.16513 0.0
C1009 C 0.97458 0.30754 0.17201 0.0
C1010 C 0.02302 0.31245 0.19913 0.0
C1011 C 0.01017 0.30439 0.24046 0.0
C1012 C 0.97847 0.29523 0.24613 0.0
C1013 C 0.9609 0.29679 0.21228 0.0
C1014 C 0.0316 0.30622 0.35602 0.0
C1015 C 0.05704 0.33689 0.35875 0.0
C1016 C 0.01858 0.29344 0.31627 0.0
C1017 C 0.03045 0.31135 0.27879 0.0
C1018 C 0.05871 0.33997 0.28116 0.0
C1019 C 0.072 0.35253 0.32085 0.0
H1020 H 0.70677 0.09802 0.66035 0.0
H1021 H 0.71277 0.0215 0.71774 0.0
H1022 H 0.70662 0.07784 0.58994 0.0
H1023 H 0.71501 0.00244 0.647 0.0
H1024 H 0.63732 0.94785 0.54403 0.0
H1025 H 0.67021 0.97464 0.60482 0.0
H1026 H 0.7196 0.05919 0.5294 0.0
H1027 H 0.68494 0.03272 0.46929 0.0
C1028 C 0.70931 0.07753 0.65783 0.0
C1029 C 0.70829 0.06055 0.69451 0.0
C1030 C 0.70969 0.0661 0.61727 0.0
C1031 C 0.70952 0.03767 0.61271 0.0
C1032 C 0.71393 0.02374 0.64944 0.0
C1033 C 0.713 0.0349 0.69009 0.0
C1034 C 0.65549 0.97203 0.54022 0.0
C1035 C 0.65772 0.98844 0.50241 0.0
C1036 C 0.67488 0.98738 0.57496 0.0
C1037 C 0.6972 0.01946 0.57249 0.0
C1038 C 0.70211 0.03472 0.53278 0.0
C1039 C 0.68237 0.01943 0.49814 0.0
H1040 H 0.64079 0.69588 1.02249 0.0
H1041 H 0.69183 0.66221 1.09714 0.0
H1042 H 0.67246 0.70121 0.96074 0.0
H1043 H 0.72522 0.66981 1.03613 0.0
H1044 H 0.70922 0.61348 0.90882 0.0
H1045 H 0.70943 0.63533 0.97801 0.0
H1046 H 0.71614 0.71702 0.91627 0.0
H1047 H 0.71403 0.69398 0.84664 0.0
C1048 C 0.65949 0.6906 1.0261 0.0
C1049 C 0.66289 0.67738 1.06417 0.0
C1050 C 0.67814 0.69419 0.99078 0.0
C1051 C 0.70087 0.68499 0.993 0.0
C1052 C 0.70728 0.67619 1.03297 0.0
C1053 C 0.68827 0.67212 1.06815 0.0
C1054 C 0.71145 0.63643 0.91008 0.0
C1055 C 0.71041 0.65147 0.87245 0.0
C1056 C 0.71205 0.6493 0.94989 0.0
C1057 C 0.71187 0.67764 0.95282 0.0
C1058 C 0.71536 0.69474 0.9151 0.0
C1059 C 0.71443 0.68165 0.87516 0.0
H1060 H 0.97553 0.67471 0.14897 0.0
H1061 H 0.05658 0.69043 0.22209 0.0
H1062 H 0.9549 0.68735 0.21147 0.0
H1063 H 0.03491 0.70034 0.2852 0.0
H1064 H 0.99231 0.70066 0.4009 0.0
H1065 H 0.01558 0.72267 0.33191 0.0
H1066 H 0.92995 0.65511 0.26907 0.0
H1067 H 0.90611 0.63513 0.33791 0.0
C1068 C 0.98935 0.68157 0.17807 0.0
C1069 C 0.01719 0.68046 0.18097 0.0
C1070 C 0.97731 0.68849 0.21414 0.0
C1071 C 0.99253 0.69376 0.25399 0.0
C1072 C 0.02222 0.6963 0.25539 0.0
C1073 C 0.03449 0.68997 0.21921 0.0
C1074 C 0.97797 0.69152 0.37246 0.0
C1075 C 0.94775 0.66529 0.37471 0.0
C1076 C 0.99148 0.7039 0.33274 0.0
C1077 C 0.97527 0.6898 0.29465 0.0
C1078 C 0.94353 0.66654 0.29739 0.0
C1079 C 0.92987 0.65463 0.33705 0.0
H1080 H 0.57233 0.10983 0.48941 0.0
H1081 H 0.4828 0.09484 0.52864 0.0
H1082 H 0.58625 0.10764 0.56447 0.0
H1083 H 0.49654 0.09272 0.60376 0.0
H1084 H 0.52746 0.09934 0.74864 0.0
H1085 H 0.51424 0.10136 0.67372 0.0
H1086 H 0.59427 0.09522 0.63469 0.0
H1087 H 0.60735 0.09297 0.71047 0.0
C1088 C 0.55516 0.1061 0.51357 0.0
C1089 C 0.52589 0.10275 0.49966 0.0
C1090 C 0.56338 0.10469 0.55826 0.0
C1091 C 0.54328 0.09996 0.59408 0.0
C1092 C 0.51396 0.09666 0.57997 0.0
C1093 C 0.50568 0.09786 0.53524 0.0
C1094 C 0.54276 0.09846 0.72469 0.0
C1095 C 0.56917 0.09613 0.73906 0.0
C1096 C 0.53479 0.09952 0.67995 0.0
C1097 C 0.55247 0.09859 0.64421 0.0
C1098 C 0.57909 0.09633 0.65856 0.0
C1099 C 0.58695 0.09501 0.7036 0.0
H1100 H 0.36461 0.47932 0.85881 0.0
H1101 H 0.44859 0.56177 0.82008 0.0
H1102 H 0.3782 0.49447 0.93466 0.0
H1103 H 0.46248 0.57655 0.89519 0.0
H1104 H 0.49671 0.59579 1.04106 0.0
H1105 H 0.48155 0.58027 0.96628 0.0
H1106 H 0.38665 0.51979 1.00547 0.0
H1107 H 0.40193 0.53595 1.08059 0.0
C1108 C 0.38607 0.5009 0.86544 0.0
C1109 C 0.40463 0.51882 0.82949 0.0
C1110 C 0.39423 0.50997 0.91065 0.0
C1111 C 0.42222 0.53761 0.92517 0.0
C1112 C 0.4408 0.55513 0.88902 0.0
C1113 C 0.4324 0.54639 0.84407 0.0
C1114 C 0.47232 0.5793 1.03469 0.0
C1115 C 0.45128 0.56825 1.07057 0.0
C1116 C 0.46322 0.57001 0.98999 0.0
C1117 C 0.43203 0.54797 0.97566 0.0
C1118 C 0.41097 0.53656 1.01171 0.0
C1119 C 0.42001 0.54631 1.05649 0.0
H1120 H 0.86703 0.45571 0.15162 0.0
H1121 H 0.88773 0.38539 0.19403 0.0
H1122 H 0.87025 0.47351 0.22579 0.0
H1123 H 0.89089 0.40295 0.26829 0.0
H1124 H 0.88667 0.43043 0.41216 0.0
H1125 H 0.88353 0.41333 0.33807 0.0
H1126 H 0.88354 0.49595 0.29455 0.0
H1127 H 0.88684 0.51308 0.36942 0.0
C1128 C 0.87223 0.44355 0.17632 0.0
C1129 C 0.87681 0.41823 0.16358 0.0
C1130 C 0.87427 0.45419 0.22047 0.0
C1131 C 0.88094 0.44057 0.25689 0.0
C1132 C 0.88546 0.41514 0.24396 0.0
C1133 C 0.88363 0.40465 0.19975 0.0
C1134 C 0.88589 0.44538 0.38735 0.0
C1135 C 0.88682 0.47372 0.40015 0.0
C1136 C 0.88419 0.43528 0.34312 0.0
C1137 C 0.88304 0.45229 0.30643 0.0
C1138 C 0.88401 0.4808 0.31925 0.0
C1139 C 0.88597 0.49106 0.36373 0.0
H1140 H 0.39576 0.85797 0.48458 0.0
H1141 H 0.49132 0.89822 0.52451 0.0
H1142 H 0.38055 0.86095 0.55888 0.0
H1143 H 0.47631 0.90082 0.59847 0.0
H1144 H 0.44456 0.89159 0.74393 0.0
H1145 H 0.45843 0.88852 0.66964 0.0
H1146 H 0.37127 0.8789 0.62722 0.0
H1147 H 0.35765 0.88256 0.70222 0.0
C1148 C 0.41401 0.8673 0.50866 0.0
C1149 C 0.44546 0.87739 0.49512 0.0
C1150 C 0.40503 0.86927 0.55288 0.0
C1151 C 0.42641 0.88116 0.58866 0.0
C1152 C 0.45779 0.89108 0.57485 0.0
C1153 C 0.46679 0.88956 0.53069 0.0
C1154 C 0.42779 0.88874 0.7194 0.0
C1155 C 0.39924 0.88722 0.73273 0.0
C1156 C 0.43613 0.88707 0.67499 0.0
C1157 C 0.41671 0.88322 0.63844 0.0
C1158 C 0.38796 0.88157 0.65174 0.0
C1159 C 0.3798 0.88376 0.69636 0.0
H1160 H 0.62147 0.51351 0.85673 0.0
H1161 H 0.54157 0.42716 0.81807 0.0
H1162 H 0.60722 0.49925 0.93244 0.0
H1163 H 0.5272 0.41294 0.89298 0.0
H1164 H 0.49338 0.39047 1.03763 0.0
H1165 H 0.50836 0.40516 0.96256 0.0
H1166 H 0.59805 0.47955 1.0034 0.0
H1167 H 0.58294 0.46459 1.07841 0.0
C1168 C 0.60086 0.49122 0.86347 0.0
C1169 C 0.58355 0.47193 0.82783 0.0
C1170 C 0.59229 0.48268 0.9085 0.0
C1171 C 0.56528 0.45412 0.92277 0.0
C1172 C 0.54803 0.43513 0.88686 0.0
C1173 C 0.55671 0.44352 0.84212 0.0
C1174 C 0.51652 0.41001 1.03143 0.0
C1175 C 0.53631 0.42556 1.0675 0.0
C1176 C 0.52553 0.41879 0.98669 0.0
C1177 C 0.55526 0.44432 0.97295 0.0
C1178 C 0.57493 0.45994 1.00924 0.0
C1179 C 0.56599 0.45099 1.05394 0.0
H1180 H 0.0954 0.55516 0.41468 0.0
H1181 H 0.09872 0.4737 0.37628 0.0
H1182 H 0.09826 0.57102 0.33972 0.0
H1183 H 0.10241 0.49003 0.30055 0.0
H1184 H 0.12434 0.53409 0.15568 0.0
H1185 H 0.12125 0.5166 0.23067 0.0
H1186 H 0.08499 0.57579 0.26803 0.0
H1187 H 0.08756 0.59262 0.19342 0.0
C1188 C 0.09682 0.54012 0.39079 0.0
C1189 C 0.09676 0.51242 0.40542 0.0
C1190 C 0.09846 0.54957 0.34591 0.0
C1191 C 0.10078 0.53275 0.30992 0.0
C1192 C 0.10094 0.50501 0.32448 0.0
C1193 C 0.09875 0.49523 0.36961 0.0
C1194 C 0.11577 0.54389 0.17936 0.0
C1195 C 0.10666 0.5659 0.16486 0.0
C1196 C 0.11374 0.53335 0.22405 0.0
C1197 C 0.10284 0.54397 0.25953 0.0
C1198 C 0.09392 0.56609 0.24478 0.0
C1199 C 0.09543 0.57615 0.20017 0.0
loop_
_geom_bond_atom_site_label_1
_geom_bond_atom_site_label_2
_geom_bond_distance
_geom_bond_site_symmetry_2
_ccdc_geom_bond_type
Tb0 C2 2.809 . S
Tb0 O20 2.484 . S
Tb0 O21 2.440 . S
Tb0 O22 2.658 . S
Tb0 O23 2.409 . S
Tb0 O24 2.378 . S
Tb0 O28 2.325 . S
Tb0 O31 2.341 . S
Tb1 C11 2.809 . S
Tb1 O22 2.325 . S
Tb1 O25 2.341 . S
Tb1 O26 2.484 . S
Tb1 O27 2.440 . S
Tb1 O28 2.658 . S
Tb1 O29 2.409 . S
Tb1 O30 2.378 . S
C2 Tb0 2.809 . S
C2 C3 1.514 . S
C2 O20 1.248 . S
C2 O21 1.266 . S
C3 C2 1.514 . S
C3 C4 1.359 . S
C3 C8 1.348 . S
C4 C3 1.359 . S
C4 C5 1.380 . S
C4 H32 0.929 . S
C5 C4 1.380 . S
C5 C6 1.347 . S
C5 H33 0.931 . S
C6 C5 1.347 . S
C6 C7 1.369 . S
C7 C6 1.369 . S
C7 C8 1.408 . S
C7 H34 0.930 . S
C8 C3 1.348 . S
C8 C7 1.408 . S
C8 H35 0.930 . S
C9 O22 1.281 . S
C9 O23 1.254 . S
C10 O24 1.236 . S
C10 O25 1.266 . S
C11 Tb1 2.809 . S
C11 C12 1.514 . S
C11 O26 1.248 . S
C11 O27 1.266 . S
C12 C11 1.514 . S
C12 C13 1.359 . S
C12 C17 1.348 . S
C13 C12 1.359 . S
C13 C14 1.380 . S
C13 H36 0.929 . S
C14 C13 1.380 . S
C14 C15 1.347 . S
C14 H37 0.931 . S
C15 C14 1.347 . S
C15 C16 1.369 . S
C16 C15 1.369 . S
C16 C17 1.408 . S
C16 H38 0.930 . S
C17 C12 1.348 . S
C17 C16 1.408 . S
C17 H39 0.930 . S
C18 O28 1.281 . S
C18 O29 1.254 . S
C19 O30 1.236 . S
C19 O31 1.266 . S
O20 Tb0 2.484 . S
O20 C2 1.248 . S
O21 Tb0 2.440 . S
O21 C2 1.266 . S
O22 Tb0 2.658 . S
O22 Tb1 2.325 . S
O22 C9 1.281 . S
O23 Tb0 2.409 . S
O23 C9 1.254 . S
O24 Tb0 2.378 . S
O24 C10 1.236 . S
O25 Tb1 2.341 . S
O25 C10 1.266 . S
O26 Tb1 2.484 . S
O26 C11 1.248 . S
O27 Tb1 2.440 . S
O27 C11 1.266 . S
O28 Tb0 2.325 . S
O28 Tb1 2.658 . S
O28 C18 1.281 . S
O29 Tb1 2.409 . S
O29 C18 1.254 . S
O30 Tb1 2.378 . S
O30 C19 1.236 . S
O31 Tb0 2.341 . S
O31 C19 1.266 . S
H32 C4 0.929 . S
H33 C5 0.931 . S
H34 C7 0.930 . S
H35 C8 0.930 . S
H36 C13 0.929 . S
H37 C14 0.931 . S
H38 C16 0.930 . S
H39 C17 0.930 . S
Tb40 C42 2.809 . S
Tb40 O60 2.484 . S
Tb40 O61 2.440 . S
Tb40 O62 2.658 . S
Tb40 O63 2.409 . S
Tb40 O64 2.378 . S
Tb40 O68 2.325 . S
Tb40 O71 2.341 . S
Tb41 C51 2.809 . S
Tb41 O62 2.325 . S
Tb41 O65 2.341 . S
Tb41 O66 2.484 . S
Tb41 O67 2.440 . S
Tb41 O68 2.658 . S
Tb41 O69 2.409 . S
Tb41 O70 2.378 . S
C42 Tb40 2.809 . S
C42 C43 1.514 . S
C42 O60 1.248 . S
C42 O61 1.266 . S
C43 C42 1.514 . S
C43 C44 1.359 . S
C43 C48 1.348 . S
C44 C43 1.359 . S
C44 C45 1.380 . S
C44 H72 0.929 . S
C45 C44 1.380 . S
C45 C46 1.347 . S
C45 H73 0.931 . S
C46 C45 1.347 . S
C46 C47 1.369 . S
C47 C46 1.369 . S
C47 C48 1.408 . S
C47 H74 0.930 . S
C48 C43 1.348 . S
C48 C47 1.408 . S
C48 H75 0.930 . S
C49 O62 1.281 . S
C49 O63 1.254 . S
C50 O64 1.236 . S
C50 O65 1.266 . S
C51 Tb41 2.809 . S
C51 C52 1.514 . S
C51 O66 1.248 . S
C51 O67 1.266 . S
C52 C51 1.514 . S
C52 C53 1.359 . S
C52 C57 1.348 . S
C53 C52 1.359 . S
C53 C54 1.380 . S
C53 H76 0.929 . S
C54 C53 1.380 . S
C54 C55 1.347 . S
C54 H77 0.931 . S
C55 C54 1.347 . S
C55 C56 1.369 . S
C56 C55 1.369 . S
C56 C57 1.408 . S
C56 H78 0.930 . S
C57 C52 1.348 . S
C57 C56 1.408 . S
C57 H79 0.930 . S
C58 O68 1.281 . S
C58 O69 1.254 . S
C59 O70 1.236 . S
C59 O71 1.266 . S
O60 Tb40 2.484 . S
O60 C42 1.248 . S
O61 Tb40 2.440 . S
O61 C42 1.266 . S
O62 Tb40 2.658 . S
O62 Tb41 2.325 . S
O62 C49 1.281 . S
O63 Tb40 2.409 . S
O63 C49 1.254 . S
O64 Tb40 2.378 . S
O64 C50 1.236 . S
O65 Tb41 2.341 . S
O65 C50 1.266 . S
O66 Tb41 2.484 . S
O66 C51 1.248 . S
O67 Tb41 2.440 . S
O67 C51 1.266 . S
O68 Tb40 2.325 . S
O68 Tb41 2.658 . S
O68 C58 1.281 . S
O69 Tb41 2.409 . S
O69 C58 1.254 . S
O70 Tb41 2.378 . S
O70 C59 1.236 . S
O71 Tb40 2.341 . S
O71 C59 1.266 . S
H72 C44 0.929 . S
H73 C45 0.931 . S
H74 C47 0.930 . S
H75 C48 0.930 . S
H76 C53 0.929 . S
H77 C54 0.931 . S
H78 C56 0.930 . S
H79 C57 0.930 . S
Tb80 C82 2.809 1_556 S
Tb80 O100 2.484 . S
Tb80 O101 2.440 . S
Tb80 O102 2.658 . S
Tb80 O103 2.409 . S
Tb80 O104 2.378 . S
Tb80 O108 2.325 . S
Tb80 O111 2.341 . S
Tb81 C91 2.809 . S
Tb81 O102 2.325 . S
Tb81 O105 2.341 . S
Tb81 O106 2.484 . S
Tb81 O107 2.440 . S
Tb81 O108 2.658 . S
Tb81 O109 2.409 . S
Tb81 O110 2.378 . S
C82 Tb80 2.809 1_554 S
C82 C83 1.514 . S
C82 O100 1.248 1_554 S
C82 O101 1.266 1_554 S
C83 C82 1.514 . S
C83 C84 1.359 . S
C83 C88 1.348 . S
C84 C83 1.359 . S
C84 C85 1.380 . S
C84 H112 0.929 . S
C85 C84 1.380 . S
C85 C86 1.347 . S
C85 H113 0.931 . S
C86 C85 1.347 . S
C86 C87 1.369 . S
C87 C86 1.369 . S
C87 C88 1.408 . S
C87 H114 0.930 . S
C88 C83 1.348 . S
C88 C87 1.408 . S
C88 H115 0.930 . S
C89 O102 1.281 . S
C89 O103 1.254 . S
C90 O104 1.236 . S
C90 O105 1.266 . S
C91 Tb81 2.809 . S
C91 C92 1.514 . S
C91 O106 1.248 . S
C91 O107 1.266 . S
C92 C91 1.514 . S
C92 C93 1.359 . S
C92 C97 1.348 . S
C93 C92 1.359 . S
C93 C94 1.380 . S
C93 H116 0.929 . S
C94 C93 1.380 . S
C94 C95 1.347 . S
C94 H117 0.931 . S
C95 C94 1.347 . S
C95 C96 1.369 . S
C96 C95 1.369 . S
C96 C97 1.408 . S
C96 H118 0.930 . S
C97 C92 1.348 . S
C97 C96 1.408 . S
C97 H119 0.930 . S
C98 O108 1.281 . S
C98 O109 1.254 . S
C99 O110 1.236 . S
C99 O111 1.266 . S
O100 Tb80 2.484 . S
O100 C82 1.248 1_556 S
O101 Tb80 2.440 . S
O101 C82 1.266 1_556 S
O102 Tb80 2.658 . S
O102 Tb81 2.325 . S
O102 C89 1.281 . S
O103 Tb80 2.409 . S
O103 C89 1.254 . S
O104 Tb80 2.378 . S
O104 C90 1.236 . S
O105 Tb81 2.341 . S
O105 C90 1.266 . S
O106 Tb81 2.484 . S
O106 C91 1.248 . S
O107 Tb81 2.440 . S
O107 C91 1.266 . S
O108 Tb80 2.325 . S
O108 Tb81 2.658 . S
O108 C98 1.281 . S
O109 Tb81 2.409 . S
O109 C98 1.254 . S
O110 Tb81 2.378 . S
O110 C99 1.236 . S
O111 Tb80 2.341 . S
O111 C99 1.266 . S
H112 C84 0.929 . S
H113 C85 0.931 . S
H114 C87 0.930 . S
H115 C88 0.930 . S
H116 C93 0.929 . S
H117 C94 0.931 . S
H118 C96 0.930 . S
H119 C97 0.930 . S
Tb120 C122 2.809 . S
Tb120 O140 2.484 . S
Tb120 O141 2.440 . S
Tb120 O142 2.658 . S
Tb120 O143 2.409 . S
Tb120 O144 2.378 . S
Tb120 O148 2.325 . S
Tb120 O151 2.341 . S
Tb121 C131 2.809 . S
Tb121 O142 2.325 . S
Tb121 O145 2.341 . S
Tb121 O146 2.484 . S
Tb121 O147 2.440 . S
Tb121 O148 2.658 . S
Tb121 O149 2.409 . S
Tb121 O150 2.378 . S
C122 Tb120 2.809 . S
C122 C123 1.514 . S
C122 O140 1.248 . S
C122 O141 1.266 . S
C123 C122 1.514 . S
C123 C124 1.359 . S
C123 C128 1.348 . S
C124 C123 1.359 . S
C124 C125 1.380 . S
C124 H152 0.929 . S
C125 C124 1.380 . S
C125 C126 1.347 . S
C125 H153 0.931 . S
C126 C125 1.347 . S
C126 C127 1.369 . S
C127 C126 1.369 . S
C127 C128 1.408 . S
C127 H154 0.930 . S
C128 C123 1.348 . S
C128 C127 1.408 . S
C128 H155 0.930 . S
C129 O142 1.281 . S
C129 O143 1.254 . S
C130 O144 1.236 . S
C130 O145 1.266 . S
C131 Tb121 2.809 . S
C131 C132 1.514 . S
C131 O146 1.248 . S
C131 O147 1.266 . S
C132 C131 1.514 . S
C132 C133 1.359 . S
C132 C137 1.348 . S
C133 C132 1.359 . S
C133 C134 1.380 . S
C133 H156 0.929 . S
C134 C133 1.380 . S
C134 C135 1.347 . S
C134 H157 0.931 . S
C135 C134 1.347 . S
C135 C136 1.369 . S
C136 C135 1.369 . S
C136 C137 1.408 . S
C136 H158 0.930 . S
C137 C132 1.348 . S
C137 C136 1.408 . S
C137 H159 0.930 . S
C138 O148 1.281 . S
C138 O149 1.254 . S
C139 O150 1.236 . S
C139 O151 1.266 . S
O140 Tb120 2.484 . S
O140 C122 1.248 . S
O141 Tb120 2.440 . S
O141 C122 1.266 . S
O142 Tb120 2.658 . S
O142 Tb121 2.325 . S
O142 C129 1.281 . S
O143 Tb120 2.409 . S
O143 C129 1.254 . S
O144 Tb120 2.378 . S
O144 C130 1.236 . S
O145 Tb121 2.341 . S
O145 C130 1.266 . S
O146 Tb121 2.484 . S
O146 C131 1.248 . S
O147 Tb121 2.440 . S
O147 C131 1.266 . S
O148 Tb120 2.325 . S
O148 Tb121 2.658 . S
O148 C138 1.281 . S
O149 Tb121 2.409 . S
O149 C138 1.254 . S
O150 Tb121 2.378 . S
O150 C139 1.236 . S
O151 Tb120 2.341 . S
O151 C139 1.266 . S
H152 C124 0.929 . S
H153 C125 0.931 . S
H154 C127 0.930 . S
H155 C128 0.930 . S
H156 C133 0.929 . S
H157 C134 0.931 . S
H158 C136 0.930 . S
H159 C137 0.930 . S
Tb160 C162 2.809 . S
Tb160 O180 2.484 . S
Tb160 O181 2.440 . S
Tb160 O182 2.658 . S
Tb160 O183 2.409 . S
Tb160 O184 2.378 . S
Tb160 O188 2.325 . S
Tb160 O191 2.341 . S
Tb161 C171 2.809 . S
Tb161 O182 2.325 . S
Tb161 O185 2.341 . S
Tb161 O186 2.484 . S
Tb161 O187 2.440 . S
Tb161 O188 2.658 . S
Tb161 O189 2.409 . S
Tb161 O190 2.378 . S
C162 Tb160 2.809 . S
C162 C163 1.514 . S
C162 O180 1.248 . S
C162 O181 1.266 . S
C163 C162 1.514 . S
C163 C164 1.359 . S
C163 C168 1.348 . S
C164 C163 1.359 . S
C164 C165 1.380 . S
C164 H192 0.929 . S
C165 C164 1.380 . S
C165 C166 1.347 . S
C165 H193 0.931 . S
C166 C165 1.347 . S
C166 C167 1.369 . S
C167 C166 1.369 . S
C167 C168 1.408 . S
C167 H194 0.930 . S
C168 C163 1.348 . S
C168 C167 1.408 . S
C168 H195 0.930 . S
C169 O182 1.281 . S
C169 O183 1.254 . S
C170 O184 1.236 . S
C170 O185 1.266 . S
C171 Tb161 2.809 . S
C171 C172 1.514 . S
C171 O186 1.248 . S
C171 O187 1.266 . S
C172 C171 1.514 . S
C172 C173 1.359 . S
C172 C177 1.348 . S
C173 C172 1.359 . S
C173 C174 1.380 . S
C173 H196 0.929 . S
C174 C173 1.380 . S
C174 C175 1.347 . S
C174 H197 0.931 . S
C175 C174 1.347 . S
C175 C176 1.369 . S
C176 C175 1.369 . S
C176 C177 1.408 . S
C176 H198 0.930 . S
C177 C172 1.348 . S
C177 C176 1.408 . S
C177 H199 0.930 . S
C178 O188 1.281 . S
C178 O189 1.254 . S
C179 O190 1.236 . S
C179 O191 1.266 . S
O180 Tb160 2.484 . S
O180 C162 1.248 . S
O181 Tb160 2.440 . S
O181 C162 1.266 . S
O182 Tb160 2.658 . S
O182 Tb161 2.325 . S
O182 C169 1.281 . S
O183 Tb160 2.409 . S
O183 C169 1.254 . S
O184 Tb160 2.378 . S
O184 C170 1.236 . S
O185 Tb161 2.341 . S
O185 C170 1.266 . S
O186 Tb161 2.484 . S
O186 C171 1.248 . S
O187 Tb161 2.440 . S
O187 C171 1.266 . S
O188 Tb160 2.325 . S
O188 Tb161 2.658 . S
O188 C178 1.281 . S
O189 Tb161 2.409 . S
O189 C178 1.254 . S
O190 Tb161 2.378 . S
O190 C179 1.236 . S
O191 Tb160 2.341 . S
O191 C179 1.266 . S
H192 C164 0.929 . S
H193 C165 0.931 . S
H194 C167 0.930 . S
H195 C168 0.930 . S
H196 C173 0.929 . S
H197 C174 0.931 . S
H198 C176 0.930 . S
H199 C177 0.930 . S
Tb200 C202 2.809 1_556 S
Tb200 O220 2.484 . S
Tb200 O221 2.440 . S
Tb200 O222 2.658 . S
Tb200 O223 2.409 . S
Tb200 O224 2.378 . S
Tb200 O228 2.325 . S
Tb200 O231 2.341 . S
Tb201 C211 2.809 . S
Tb201 O222 2.325 . S
Tb201 O225 2.341 . S
Tb201 O226 2.484 . S
Tb201 O227 2.440 . S
Tb201 O228 2.658 . S
Tb201 O229 2.409 . S
Tb201 O230 2.378 . S
C202 Tb200 2.809 1_554 S
C202 C203 1.514 . S
C202 O220 1.248 1_554 S
C202 O221 1.266 1_554 S
C203 C202 1.514 . S
C203 C204 1.359 . S
C203 C208 1.348 . S
C204 C203 1.359 . S
C204 C205 1.380 . S
C204 H232 0.929 . S
C205 C204 1.380 . S
C205 C206 1.347 . S
C205 H233 0.931 . S
C206 C205 1.347 . S
C206 C207 1.369 . S
C207 C206 1.369 . S
C207 C208 1.408 . S
C207 H234 0.930 . S
C208 C203 1.348 . S
C208 C207 1.408 . S
C208 H235 0.930 . S
C209 O222 1.281 . S
C209 O223 1.254 . S
C210 O224 1.236 . S
C210 O225 1.266 . S
C211 Tb201 2.809 . S
C211 C212 1.514 . S
C211 O226 1.248 . S
C211 O227 1.266 . S
C212 C211 1.514 . S
C212 C213 1.359 . S
C212 C217 1.348 . S
C213 C212 1.359 . S
C213 C214 1.380 . S
C213 H236 0.929 . S
C214 C213 1.380 . S
C214 C215 1.347 . S
C214 H237 0.931 . S
C215 C214 1.347 . S
C215 C216 1.369 . S
C216 C215 1.369 . S
C216 C217 1.408 . S
C216 H238 0.930 . S
C217 C212 1.348 . S
C217 C216 1.408 . S
C217 H239 0.930 . S
C218 O228 1.281 . S
C218 O229 1.254 . S
C219 O230 1.236 . S
C219 O231 1.266 . S
O220 Tb200 2.484 . S
O220 C202 1.248 1_556 S
O221 Tb200 2.440 . S
O221 C202 1.266 1_556 S
O222 Tb200 2.658 . S
O222 Tb201 2.325 . S
O222 C209 1.281 . S
O223 Tb200 2.409 . S
O223 C209 1.254 . S
O224 Tb200 2.378 . S
O224 C210 1.236 . S
O225 Tb201 2.341 . S
O225 C210 1.266 . S
O226 Tb201 2.484 . S
O226 C211 1.248 . S
O227 Tb201 2.440 . S
O227 C211 1.266 . S
O228 Tb200 2.325 . S
O228 Tb201 2.658 . S
O228 C218 1.281 . S
O229 Tb201 2.409 . S
O229 C218 1.254 . S
O230 Tb201 2.378 . S
O230 C219 1.236 . S
O231 Tb200 2.341 . S
O231 C219 1.266 . S
H232 C204 0.929 . S
H233 C205 0.931 . S
H234 C207 0.930 . S
H235 C208 0.930 . S
H236 C213 0.929 . S
H237 C214 0.931 . S
H238 C216 0.930 . S
H239 C217 0.930 . S
Tb240 C242 2.809 . S
Tb240 O260 2.484 . S
Tb240 O261 2.440 . S
Tb240 O262 2.658 . S
Tb240 O263 2.409 . S
Tb240 O264 2.378 . S
Tb240 O268 2.325 . S
Tb240 O271 2.341 . S
Tb241 C251 2.809 . S
Tb241 O262 2.325 . S
Tb241 O265 2.341 . S
Tb241 O266 2.484 . S
Tb241 O267 2.440 . S
Tb241 O268 2.658 . S
Tb241 O269 2.409 . S
Tb241 O270 2.378 . S
C242 Tb240 2.809 . S
C242 C243 1.514 . S
C242 O260 1.248 . S
C242 O261 1.266 . S
C243 C242 1.514 . S
C243 C244 1.359 . S
C243 C248 1.348 . S
C244 C243 1.359 . S
C244 C245 1.380 . S
C244 H272 0.929 . S
C245 C244 1.380 . S
C245 C246 1.347 . S
C245 H273 0.931 . S
C246 C245 1.347 . S
C246 C247 1.369 . S
C247 C246 1.369 . S
C247 C248 1.408 . S
C247 H274 0.930 . S
C248 C243 1.348 . S
C248 C247 1.408 . S
C248 H275 0.930 . S
C249 O262 1.281 . S
C249 O263 1.254 . S
C250 O264 1.236 . S
C250 O265 1.266 . S
C251 Tb241 2.809 . S
C251 C252 1.514 . S
C251 O266 1.248 . S
C251 O267 1.266 . S
C252 C251 1.514 . S
C252 C253 1.359 . S
C252 C257 1.348 . S
C253 C252 1.359 . S
C253 C254 1.380 . S
C253 H276 0.929 . S
C254 C253 1.380 . S
C254 C255 1.347 . S
C254 H277 0.931 . S
C255 C254 1.347 . S
C255 C256 1.369 . S
C256 C255 1.369 . S
C256 C257 1.408 . S
C256 H278 0.930 . S
C257 C252 1.348 . S
C257 C256 1.408 . S
C257 H279 0.930 . S
C258 O268 1.281 . S
C258 O269 1.254 . S
C259 O270 1.236 . S
C259 O271 1.266 . S
O260 Tb240 2.484 . S
O260 C242 1.248 . S
O261 Tb240 2.440 . S
O261 C242 1.266 . S
O262 Tb240 2.658 . S
O262 Tb241 2.325 . S
O262 C249 1.281 . S
O263 Tb240 2.409 . S
O263 C249 1.254 . S
O264 Tb240 2.378 . S
O264 C250 1.236 . S
O265 Tb241 2.341 . S
O265 C250 1.266 . S
O266 Tb241 2.484 . S
O266 C251 1.248 . S
O267 Tb241 2.440 . S
O267 C251 1.266 . S
O268 Tb240 2.325 . S
O268 Tb241 2.658 . S
O268 C258 1.281 . S
O269 Tb241 2.409 . S
O269 C258 1.254 . S
O270 Tb241 2.378 . S
O270 C259 1.236 . S
O271 Tb240 2.341 . S
O271 C259 1.266 . S
H272 C244 0.929 . S
H273 C245 0.931 . S
H274 C247 0.930 . S
H275 C248 0.930 . S
H276 C253 0.929 . S
H277 C254 0.931 . S
H278 C256 0.930 . S
H279 C257 0.930 . S
Tb280 C282 2.809 . S
Tb280 O300 2.484 . S
Tb280 O301 2.440 . S
Tb280 O302 2.658 . S
Tb280 O303 2.409 . S
Tb280 O304 2.378 . S
Tb280 O308 2.325 . S
Tb280 O311 2.341 . S
Tb281 C291 2.809 . S
Tb281 O302 2.325 . S
Tb281 O305 2.341 . S
Tb281 O306 2.484 . S
Tb281 O307 2.440 . S
Tb281 O308 2.658 . S
Tb281 O309 2.409 . S
Tb281 O310 2.378 . S
C282 Tb280 2.809 . S
C282 C283 1.514 . S
C282 O300 1.248 . S
C282 O301 1.266 . S
C283 C282 1.514 . S
C283 C284 1.359 . S
C283 C288 1.348 . S
C284 C283 1.359 . S
C284 C285 1.380 . S
C284 H312 0.929 . S
C285 C284 1.380 . S
C285 C286 1.347 . S
C285 H313 0.931 . S
C286 C285 1.347 . S
C286 C287 1.369 . S
C287 C286 1.369 . S
C287 C288 1.408 . S
C287 H314 0.930 . S
C288 C283 1.348 . S
C288 C287 1.408 . S
C288 H315 0.930 . S
C289 O302 1.281 . S
C289 O303 1.254 . S
C290 O304 1.236 . S
C290 O305 1.266 . S
C291 Tb281 2.809 . S
C291 C292 1.514 . S
C291 O306 1.248 . S
C291 O307 1.266 . S
C292 C291 1.514 . S
C292 C293 1.359 . S
C292 C297 1.348 . S
C293 C292 1.359 . S
C293 C294 1.380 . S
C293 H316 0.929 . S
C294 C293 1.380 . S
C294 C295 1.347 . S
C294 H317 0.931 . S
C295 C294 1.347 . S
C295 C296 1.369 . S
C296 C295 1.369 . S
C296 C297 1.408 . S
C296 H318 0.930 . S
C297 C292 1.348 . S
C297 C296 1.408 . S
C297 H319 0.930 . S
C298 O308 1.281 . S
C298 O309 1.254 . S
C299 O310 1.236 . S
C299 O311 1.266 . S
O300 Tb280 2.484 . S
O300 C282 1.248 . S
O301 Tb280 2.440 . S
O301 C282 1.266 . S
O302 Tb280 2.658 . S
O302 Tb281 2.325 . S
O302 C289 1.281 . S
O303 Tb280 2.409 . S
O303 C289 1.254 . S
O304 Tb280 2.378 . S
O304 C290 1.236 . S
O305 Tb281 2.341 . S
O305 C290 1.266 . S
O306 Tb281 2.484 . S
O306 C291 1.248 . S
O307 Tb281 2.440 . S
O307 C291 1.266 . S
O308 Tb280 2.325 . S
O308 Tb281 2.658 . S
O308 C298 1.281 . S
O309 Tb281 2.409 . S
O309 C298 1.254 . S
O310 Tb281 2.378 . S
O310 C299 1.236 . S
O311 Tb280 2.341 . S
O311 C299 1.266 . S
H312 C284 0.929 . S
H313 C285 0.931 . S
H314 C287 0.930 . S
H315 C288 0.930 . S
H316 C293 0.929 . S
H317 C294 0.931 . S
H318 C296 0.930 . S
H319 C297 0.930 . S
Tb320 C322 2.809 1_554 S
Tb320 O340 2.484 . S
Tb320 O341 2.440 . S
Tb320 O342 2.658 . S
Tb320 O343 2.409 . S
Tb320 O344 2.378 . S
Tb320 O348 2.325 . S
Tb320 O351 2.341 . S
Tb321 C331 2.809 . S
Tb321 O342 2.325 . S
Tb321 O345 2.341 . S
Tb321 O346 2.484 . S
Tb321 O347 2.440 . S
Tb321 O348 2.658 . S
Tb321 O349 2.409 . S
Tb321 O350 2.378 . S
C322 Tb320 2.809 1_556 S
C322 C323 1.514 . S
C322 O340 1.248 1_556 S
C322 O341 1.266 1_556 S
C323 C322 1.514 . S
C323 C324 1.359 . S
C323 C328 1.348 . S
C324 C323 1.359 . S
C324 C325 1.380 . S
C324 H352 0.929 . S
C325 C324 1.380 . S
C325 C326 1.347 . S
C325 H353 0.931 . S
C326 C325 1.347 . S
C326 C327 1.369 . S
C327 C326 1.369 . S
C327 C328 1.408 . S
C327 H354 0.930 . S
C328 C323 1.348 . S
C328 C327 1.408 . S
C328 H355 0.930 . S
C329 O342 1.281 . S
C329 O343 1.254 . S
C330 O344 1.236 . S
C330 O345 1.266 . S
C331 Tb321 2.809 . S
C331 C332 1.514 . S
C331 O346 1.248 . S
C331 O347 1.266 . S
C332 C331 1.514 . S
C332 C333 1.359 . S
C332 C337 1.348 . S
C333 C332 1.359 . S
C333 C334 1.380 . S
C333 H356 0.929 . S
C334 C333 1.380 . S
C334 C335 1.347 . S
C334 H357 0.931 . S
C335 C334 1.347 . S
C335 C336 1.369 . S
C336 C335 1.369 . S
C336 C337 1.408 . S
C336 H358 0.930 . S
C337 C332 1.348 . S
C337 C336 1.408 . S
C337 H359 0.930 . S
C338 O348 1.281 . S
C338 O349 1.254 . S
C339 O350 1.236 . S
C339 O351 1.266 . S
O340 Tb320 2.484 . S
O340 C322 1.248 1_554 S
O341 Tb320 2.440 . S
O341 C322 1.266 1_554 S
O342 Tb320 2.658 . S
O342 Tb321 2.325 . S
O342 C329 1.281 . S
O343 Tb320 2.409 . S
O343 C329 1.254 . S
O344 Tb320 2.378 . S
O344 C330 1.236 . S
O345 Tb321 2.341 . S
O345 C330 1.266 . S
O346 Tb321 2.484 . S
O346 C331 1.248 . S
O347 Tb321 2.440 . S
O347 C331 1.266 . S
O348 Tb320 2.325 . S
O348 Tb321 2.658 . S
O348 C338 1.281 . S
O349 Tb321 2.409 . S
O349 C338 1.254 . S
O350 Tb321 2.378 . S
O350 C339 1.236 . S
O351 Tb320 2.341 . S
O351 C339 1.266 . S
H352 C324 0.929 . S
H353 C325 0.931 . S
H354 C327 0.930 . S
H355 C328 0.930 . S
H356 C333 0.929 . S
H357 C334 0.931 . S
H358 C336 0.930 . S
H359 C337 0.930 . S
Tb360 C362 2.809 . S
Tb360 O380 2.484 . S
Tb360 O381 2.440 . S
Tb360 O382 2.658 . S
Tb360 O383 2.409 . S
Tb360 O384 2.378 . S
Tb360 O388 2.325 . S
Tb360 O391 2.341 . S
Tb361 C371 2.809 . S
Tb361 O382 2.325 . S
Tb361 O385 2.341 . S
Tb361 O386 2.484 . S
Tb361 O387 2.440 . S
Tb361 O388 2.658 . S
Tb361 O389 2.409 . S
Tb361 O390 2.378 . S
C362 Tb360 2.809 . S
C362 C363 1.514 . S
C362 O380 1.248 . S
C362 O381 1.266 . S
C363 C362 1.514 . S
C363 C364 1.359 . S
C363 C368 1.348 . S
C364 C363 1.359 . S
C364 C365 1.380 . S
C364 H392 0.929 . S
C365 C364 1.380 . S
C365 C366 1.347 . S
C365 H393 0.931 . S
C366 C365 1.347 . S
C366 C367 1.369 . S
C367 C366 1.369 . S
C367 C368 1.408 . S
C367 H394 0.930 . S
C368 C363 1.348 . S
C368 C367 1.408 . S
C368 H395 0.930 . S
C369 O382 1.281 . S
C369 O383 1.254 . S
C370 O384 1.236 . S
C370 O385 1.266 . S
C371 Tb361 2.809 . S
C371 C372 1.514 . S
C371 O386 1.248 . S
C371 O387 1.266 . S
C372 C371 1.514 . S
C372 C373 1.359 . S
C372 C377 1.348 . S
C373 C372 1.359 . S
C373 C374 1.380 . S
C373 H396 0.929 . S
C374 C373 1.380 . S
C374 C375 1.347 . S
C374 H397 0.931 . S
C375 C374 1.347 . S
C375 C376 1.369 . S
C376 C375 1.369 . S
C376 C377 1.408 . S
C376 H398 0.930 . S
C377 C372 1.348 . S
C377 C376 1.408 . S
C377 H399 0.930 . S
C378 O388 1.281 . S
C378 O389 1.254 . S
C379 O390 1.236 . S
C379 O391 1.266 . S
O380 Tb360 2.484 . S
O380 C362 1.248 . S
O381 Tb360 2.440 . S
O381 C362 1.266 . S
O382 Tb360 2.658 . S
O382 Tb361 2.325 . S
O382 C369 1.281 . S
O383 Tb360 2.409 . S
O383 C369 1.254 . S
O384 Tb360 2.378 . S
O384 C370 1.236 . S
O385 Tb361 2.341 . S
O385 C370 1.266 . S
O386 Tb361 2.484 . S
O386 C371 1.248 . S
O387 Tb361 2.440 . S
O387 C371 1.266 . S
O388 Tb360 2.325 . S
O388 Tb361 2.658 . S
O388 C378 1.281 . S
O389 Tb361 2.409 . S
O389 C378 1.254 . S
O390 Tb361 2.378 . S
O390 C379 1.236 . S
O391 Tb360 2.341 . S
O391 C379 1.266 . S
H392 C364 0.929 . S
H393 C365 0.931 . S
H394 C367 0.930 . S
H395 C368 0.930 . S
H396 C373 0.929 . S
H397 C374 0.931 . S
H398 C376 0.930 . S
H399 C377 0.930 . S
Tb400 C402 2.809 . S
Tb400 O420 2.484 . S
Tb400 O421 2.440 . S
Tb400 O422 2.658 . S
Tb400 O423 2.409 . S
Tb400 O424 2.378 . S
Tb400 O428 2.325 . S
Tb400 O431 2.341 . S
Tb401 C411 2.809 . S
Tb401 O422 2.325 . S
Tb401 O425 2.341 . S
Tb401 O426 2.484 . S
Tb401 O427 2.440 . S
Tb401 O428 2.658 . S
Tb401 O429 2.409 . S
Tb401 O430 2.378 . S
C402 Tb400 2.809 . S
C402 C403 1.514 . S
C402 O420 1.248 . S
C402 O421 1.266 . S
C403 C402 1.514 . S
C403 C404 1.359 . S
C403 C408 1.348 . S
C404 C403 1.359 . S
C404 C405 1.380 . S
C404 H432 0.929 . S
C405 C404 1.380 . S
C405 C406 1.347 . S
C405 H433 0.931 . S
C406 C405 1.347 . S
C406 C407 1.369 . S
C407 C406 1.369 . S
C407 C408 1.408 . S
C407 H434 0.930 . S
C408 C403 1.348 . S
C408 C407 1.408 . S
C408 H435 0.930 . S
C409 O422 1.281 . S
C409 O423 1.254 . S
C410 O424 1.236 . S
C410 O425 1.266 . S
C411 Tb401 2.809 . S
C411 C412 1.514 . S
C411 O426 1.248 . S
C411 O427 1.266 . S
C412 C411 1.514 . S
C412 C413 1.359 . S
C412 C417 1.348 . S
C413 C412 1.359 . S
C413 C414 1.380 . S
C413 H436 0.929 . S
C414 C413 1.380 . S
C414 C415 1.347 . S
C414 H437 0.931 . S
C415 C414 1.347 . S
C415 C416 1.369 . S
C416 C415 1.369 . S
C416 C417 1.408 . S
C416 H438 0.930 . S
C417 C412 1.348 . S
C417 C416 1.408 . S
C417 H439 0.930 . S
C418 O428 1.281 . S
C418 O429 1.254 . S
C419 O430 1.236 . S
C419 O431 1.266 . S
O420 Tb400 2.484 . S
O420 C402 1.248 . S
O421 Tb400 2.440 . S
O421 C402 1.266 . S
O422 Tb400 2.658 . S
O422 Tb401 2.325 . S
O422 C409 1.281 . S
O423 Tb400 2.409 . S
O423 C409 1.254 . S
O424 Tb400 2.378 . S
O424 C410 1.236 . S
O425 Tb401 2.341 . S
O425 C410 1.266 . S
O426 Tb401 2.484 . S
O426 C411 1.248 . S
O427 Tb401 2.440 . S
O427 C411 1.266 . S
O428 Tb400 2.325 . S
O428 Tb401 2.658 . S
O428 C418 1.281 . S
O429 Tb401 2.409 . S
O429 C418 1.254 . S
O430 Tb401 2.378 . S
O430 C419 1.236 . S
O431 Tb400 2.341 . S
O431 C419 1.266 . S
H432 C404 0.929 . S
H433 C405 0.931 . S
H434 C407 0.930 . S
H435 C408 0.930 . S
H436 C413 0.929 . S
H437 C414 0.931 . S
H438 C416 0.930 . S
H439 C417 0.930 . S
Tb440 C442 2.809 1_554 S
Tb440 O460 2.484 . S
Tb440 O461 2.440 . S
Tb440 O462 2.658 . S
Tb440 O463 2.409 . S
Tb440 O464 2.378 . S
Tb440 O468 2.325 . S
Tb440 O471 2.341 . S
Tb441 C451 2.809 . S
Tb441 O462 2.325 . S
Tb441 O465 2.341 . S
Tb441 O466 2.484 . S
Tb441 O467 2.440 . S
Tb441 O468 2.658 . S
Tb441 O469 2.409 . S
Tb441 O470 2.378 . S
C442 Tb440 2.809 1_556 S
C442 C443 1.514 . S
C442 O460 1.248 1_556 S
C442 O461 1.266 1_556 S
C443 C442 1.514 . S
C443 C444 1.359 . S
C443 C448 1.348 . S
C444 C443 1.359 . S
C444 C445 1.380 . S
C444 H472 0.929 . S
C445 C444 1.380 . S
C445 C446 1.347 . S
C445 H473 0.931 . S
C446 C445 1.347 . S
C446 C447 1.369 . S
C447 C446 1.369 . S
C447 C448 1.408 . S
C447 H474 0.930 . S
C448 C443 1.348 . S
C448 C447 1.408 . S
C448 H475 0.930 . S
C449 O462 1.281 . S
C449 O463 1.254 . S
C450 O464 1.236 . S
C450 O465 1.266 . S
C451 Tb441 2.809 . S
C451 C452 1.514 . S
C451 O466 1.248 . S
C451 O467 1.266 . S
C452 C451 1.514 . S
C452 C453 1.359 . S
C452 C457 1.348 . S
C453 C452 1.359 . S
C453 C454 1.380 . S
C453 H476 0.929 . S
C454 C453 1.380 . S
C454 C455 1.347 . S
C454 H477 0.931 . S
C455 C454 1.347 . S
C455 C456 1.369 . S
C456 C455 1.369 . S
C456 C457 1.408 . S
C456 H478 0.930 . S
C457 C452 1.348 . S
C457 C456 1.408 . S
C457 H479 0.930 . S
C458 O468 1.281 . S
C458 O469 1.254 . S
C459 O470 1.236 . S
C459 O471 1.266 . S
O460 Tb440 2.484 . S
O460 C442 1.248 1_554 S
O461 Tb440 2.440 . S
O461 C442 1.266 1_554 S
O462 Tb440 2.658 . S
O462 Tb441 2.325 . S
O462 C449 1.281 . S
O463 Tb440 2.409 . S
O463 C449 1.254 . S
O464 Tb440 2.378 . S
O464 C450 1.236 . S
O465 Tb441 2.341 . S
O465 C450 1.266 . S
O466 Tb441 2.484 . S
O466 C451 1.248 . S
O467 Tb441 2.440 . S
O467 C451 1.266 . S
O468 Tb440 2.325 . S
O468 Tb441 2.658 . S
O468 C458 1.281 . S
O469 Tb441 2.409 . S
O469 C458 1.254 . S
O470 Tb441 2.378 . S
O470 C459 1.236 . S
O471 Tb440 2.341 . S
O471 C459 1.266 . S
H472 C444 0.929 . S
H473 C445 0.931 . S
H474 C447 0.930 . S
H475 C448 0.930 . S
H476 C453 0.929 . S
H477 C454 0.931 . S
H478 C456 0.930 . S
H479 C457 0.930 . S
H480 C488 0.950 . S
H481 C493 0.950 . S
H482 C490 0.950 . S
H483 C492 0.950 . S
H484 C494 0.950 . S
H485 C496 0.950 . S
H486 C498 0.950 . S
H487 C499 0.950 . S
C488 H480 0.950 . S
C488 C489 1.386 . S
C488 C490 1.391 . S
C489 C488 1.386 . S
C489 C493 1.393 . S
C490 H482 0.950 . S
C490 C488 1.391 . S
C490 C491 1.400 . S
C491 C490 1.400 . S
C491 C492 1.398 . S
C491 C497 1.491 . S
C492 H483 0.950 . S
C492 C491 1.398 . S
C492 C493 1.391 . S
C493 H481 0.950 . S
C493 C489 1.393 . S
C493 C492 1.391 . S
C494 H484 0.950 . S
C494 C495 1.386 . S
C494 C496 1.391 . S
C495 C494 1.386 . S
C495 C499 1.393 . S
C496 H485 0.950 . S
C496 C494 1.391 . S
C496 C497 1.400 . S
C497 C491 1.491 . S
C497 C496 1.400 . S
C497 C498 1.398 . S
C498 H486 0.950 . S
C498 C497 1.398 . S
C498 C499 1.391 . S
C499 H487 0.950 . S
C499 C495 1.393 . S
C499 C498 1.391 . S
H500 C508 0.950 . S
H501 C513 0.950 . S
H502 C510 0.950 . S
H503 C512 0.950 . S
H504 C514 0.950 . S
H505 C516 0.950 . S
H506 C518 0.950 . S
H507 C519 0.950 . S
C508 H500 0.950 . S
C508 C509 1.386 . S
C508 C510 1.391 . S
C509 C508 1.386 . S
C509 C513 1.393 . S
C510 H502 0.950 . S
C510 C508 1.391 . S
C510 C511 1.400 . S
C511 C510 1.400 . S
C511 C512 1.398 . S
C511 C517 1.491 . S
C512 H503 0.950 . S
C512 C511 1.398 . S
C512 C513 1.391 . S
C513 H501 0.950 . S
C513 C509 1.393 . S
C513 C512 1.391 . S
C514 H504 0.950 . S
C514 C515 1.386 . S
C514 C516 1.391 . S
C515 C514 1.386 . S
C515 C519 1.393 . S
C516 H505 0.950 . S
C516 C514 1.391 . S
C516 C517 1.400 . S
C517 C511 1.491 . S
C517 C516 1.400 . S
C517 C518 1.398 . S
C518 H506 0.950 . S
C518 C517 1.398 . S
C518 C519 1.391 . S
C519 H507 0.950 . S
C519 C515 1.393 . S
C519 C518 1.391 . S
H520 C528 0.950 . S
H521 C533 0.950 . S
H522 C530 0.950 . S
H523 C532 0.950 . S
H524 C534 0.950 . S
H525 C536 0.950 . S
H526 C538 0.950 . S
H527 C539 0.950 . S
C528 H520 0.950 . S
C528 C529 1.386 . S
C528 C530 1.391 . S
C529 C528 1.386 . S
C529 C533 1.393 . S
C530 H522 0.950 . S
C530 C528 1.391 . S
C530 C531 1.400 . S
C531 C530 1.400 . S
C531 C532 1.398 . S
C531 C537 1.491 . S
C532 H523 0.950 . S
C532 C531 1.398 . S
C532 C533 1.391 . S
C533 H521 0.950 . S
C533 C529 1.393 . S
C533 C532 1.391 . S
C534 H524 0.950 . S
C534 C535 1.386 . S
C534 C536 1.391 . S
C535 C534 1.386 . S
C535 C539 1.393 . S
C536 H525 0.950 . S
C536 C534 1.391 . S
C536 C537 1.400 . S
C537 C531 1.491 . S
C537 C536 1.400 . S
C537 C538 1.398 . S
C538 H526 0.950 . S
C538 C537 1.398 . S
C538 C539 1.391 . S
C539 H527 0.950 . S
C539 C535 1.393 . S
C539 C538 1.391 . S
H540 C548 0.950 . S
H541 C553 0.950 . S
H542 C550 0.950 . S
H543 C552 0.950 . S
H544 C554 0.950 . S
H545 C556 0.950 . S
H546 C558 0.950 . S
H547 C559 0.950 . S
C548 H540 0.950 . S
C548 C549 1.386 . S
C548 C550 1.391 . S
C549 C548 1.386 . S
C549 C553 1.393 . S
C550 H542 0.950 . S
C550 C548 1.391 . S
C550 C551 1.400 . S
C551 C550 1.400 . S
C551 C552 1.398 . S
C551 C557 1.491 . S
C552 H543 0.950 . S
C552 C551 1.398 . S
C552 C553 1.391 . S
C553 H541 0.950 . S
C553 C549 1.393 . S
C553 C552 1.391 . S
C554 H544 0.950 . S
C554 C555 1.386 . S
C554 C556 1.391 . S
C555 C554 1.386 . S
C555 C559 1.393 . S
C556 H545 0.950 . S
C556 C554 1.391 . S
C556 C557 1.400 . S
C557 C551 1.491 . S
C557 C556 1.400 . S
C557 C558 1.398 . S
C558 H546 0.950 . S
C558 C557 1.398 . S
C558 C559 1.391 . S
C559 H547 0.950 . S
C559 C555 1.393 . S
C559 C558 1.391 . S
H560 C568 0.950 . S
H561 C573 0.950 . S
H562 C570 0.950 . S
H563 C572 0.950 . S
H564 C574 0.950 . S
H565 C576 0.950 . S
H566 C578 0.950 . S
H567 C579 0.950 . S
C568 H560 0.950 . S
C568 C569 1.386 . S
C568 C570 1.391 . S
C569 C568 1.386 . S
C569 C573 1.393 . S
C570 H562 0.950 . S
C570 C568 1.391 . S
C570 C571 1.400 . S
C571 C570 1.400 . S
C571 C572 1.398 . S
C571 C577 1.491 . S
C572 H563 0.950 . S
C572 C571 1.398 . S
C572 C573 1.391 . S
C573 H561 0.950 . S
C573 C569 1.393 . S
C573 C572 1.391 . S
C574 H564 0.950 . S
C574 C575 1.386 . S
C574 C576 1.391 . S
C575 C574 1.386 . S
C575 C579 1.393 . S
C576 H565 0.950 . S
C576 C574 1.391 . S
C576 C577 1.400 . S
C577 C571 1.491 . S
C577 C576 1.400 . S
C577 C578 1.398 . S
C578 H566 0.950 . S
C578 C577 1.398 . S
C578 C579 1.391 . S
C579 H567 0.950 . S
C579 C575 1.393 . S
C579 C578 1.391 . S
H580 C588 0.950 . S
H581 C593 0.950 . S
H582 C590 0.950 . S
H583 C592 0.950 . S
H584 C594 0.950 . S
H585 C596 0.950 . S
H586 C598 0.950 . S
H587 C599 0.950 . S
C588 H580 0.950 . S
C588 C589 1.386 . S
C588 C590 1.391 . S
C589 C588 1.386 . S
C589 C593 1.393 . S
C590 H582 0.950 . S
C590 C588 1.391 . S
C590 C591 1.400 . S
C591 C590 1.400 . S
C591 C592 1.398 . S
C591 C597 1.491 . S
C592 H583 0.950 . S
C592 C591 1.398 . S
C592 C593 1.391 . S
C593 H581 0.950 . S
C593 C589 1.393 . S
C593 C592 1.391 . S
C594 H584 0.950 . S
C594 C595 1.386 . S
C594 C596 1.391 . S
C595 C594 1.386 . S
C595 C599 1.393 . S
C596 H585 0.950 . S
C596 C594 1.391 . S
C596 C597 1.400 . S
C597 C591 1.491 . S
C597 C596 1.400 . S
C597 C598 1.398 . S
C598 H586 0.950 . S
C598 C597 1.398 . S
C598 C599 1.391 . S
C599 H587 0.950 . S
C599 C595 1.393 . S
C599 C598 1.391 . S
H600 C608 0.950 . S
H601 C613 0.950 . S
H602 C610 0.950 . S
H603 C612 0.950 . S
H604 C614 0.950 . S
H605 C616 0.950 . S
H606 C618 0.950 . S
H607 C619 0.950 . S
C608 H600 0.950 . S
C608 C609 1.386 . S
C608 C610 1.391 . S
C609 C608 1.386 . S
C609 C613 1.393 . S
C610 H602 0.950 . S
C610 C608 1.391 . S
C610 C611 1.400 . S
C611 C610 1.400 . S
C611 C612 1.398 . S
C611 C617 1.491 1_556 S
C612 H603 0.950 . S
C612 C611 1.398 . S
C612 C613 1.391 . S
C613 H601 0.950 . S
C613 C609 1.393 . S
C613 C612 1.391 . S
C614 H604 0.950 . S
C614 C615 1.386 . S
C614 C616 1.391 . S
C615 C614 1.386 . S
C615 C619 1.393 . S
C616 H605 0.950 . S
C616 C614 1.391 . S
C616 C617 1.400 . S
C617 C611 1.491 1_554 S
C617 C616 1.400 . S
C617 C618 1.398 . S
C618 H606 0.950 . S
C618 C617 1.398 . S
C618 C619 1.391 . S
C619 H607 0.950 . S
C619 C615 1.393 . S
C619 C618 1.391 . S
H620 C628 0.950 . S
H621 C633 0.950 . S
H622 C630 0.950 . S
H623 C632 0.950 . S
H624 C634 0.950 . S
H625 C636 0.950 . S
H626 C638 0.950 . S
H627 C639 0.950 . S
C628 H620 0.950 . S
C628 C629 1.386 . S
C628 C630 1.391 . S
C629 C628 1.386 . S
C629 C633 1.393 . S
C630 H622 0.950 . S
C630 C628 1.391 . S
C630 C631 1.400 . S
C631 C630 1.400 . S
C631 C632 1.398 . S
C631 C637 1.491 . S
C632 H623 0.950 . S
C632 C631 1.398 . S
C632 C633 1.391 . S
C633 H621 0.950 . S
C633 C629 1.393 . S
C633 C632 1.391 . S
C634 H624 0.950 . S
C634 C635 1.386 . S
C634 C636 1.391 . S
C635 C634 1.386 . S
C635 C639 1.393 . S
C636 H625 0.950 . S
C636 C634 1.391 . S
C636 C637 1.400 . S
C637 C631 1.491 . S
C637 C636 1.400 . S
C637 C638 1.398 . S
C638 H626 0.950 . S
C638 C637 1.398 . S
C638 C639 1.391 . S
C639 H627 0.950 . S
C639 C635 1.393 . S
C639 C638 1.391 . S
H640 C648 0.950 . S
H641 C653 0.950 . S
H642 C650 0.950 . S
H643 C652 0.950 . S
H644 C654 0.950 . S
H645 C656 0.950 . S
H646 C658 0.950 . S
H647 C659 0.950 . S
C648 H640 0.950 . S
C648 C649 1.386 . S
C648 C650 1.391 . S
C649 C648 1.386 . S
C649 C653 1.393 . S
C650 H642 0.950 . S
C650 C648 1.391 . S
C650 C651 1.400 . S
C651 C650 1.400 . S
C651 C652 1.398 . S
C651 C657 1.491 . S
C652 H643 0.950 . S
C652 C651 1.398 . S
C652 C653 1.391 . S
C653 H641 0.950 . S
C653 C649 1.393 . S
C653 C652 1.391 . S
C654 H644 0.950 . S
C654 C655 1.386 . S
C654 C656 1.391 . S
C655 C654 1.386 . S
C655 C659 1.393 . S
C656 H645 0.950 . S
C656 C654 1.391 . S
C656 C657 1.400 . S
C657 C651 1.491 . S
C657 C656 1.400 . S
C657 C658 1.398 . S
C658 H646 0.950 . S
C658 C657 1.398 . S
C658 C659 1.391 . S
C659 H647 0.950 . S
C659 C655 1.393 . S
C659 C658 1.391 . S
H660 C668 0.950 . S
H661 C673 0.950 . S
H662 C670 0.950 1_554 S
H663 C672 0.950 . S
H664 C674 0.950 . S
H665 C676 0.950 1_556 S
H666 C678 0.950 . S
H667 C679 0.950 . S
C668 H660 0.950 . S
C668 C669 1.386 . S
C668 C670 1.391 . S
C669 C668 1.386 . S
C669 C673 1.393 . S
C670 H662 0.950 1_556 S
C670 C668 1.391 . S
C670 C671 1.400 . S
C671 C670 1.400 . S
C671 C672 1.398 . S
C671 C677 1.491 1_556 S
C672 H663 0.950 . S
C672 C671 1.398 . S
C672 C673 1.391 . S
C673 H661 0.950 . S
C673 C669 1.393 . S
C673 C672 1.391 . S
C674 H664 0.950 . S
C674 C675 1.386 . S
C674 C676 1.391 . S
C675 C674 1.386 . S
C675 C679 1.393 . S
C676 H665 0.950 1_554 S
C676 C674 1.391 . S
C676 C677 1.400 . S
C677 C671 1.491 1_554 S
C677 C676 1.400 . S
C677 C678 1.398 . S
C678 H666 0.950 . S
C678 C677 1.398 . S
C678 C679 1.391 . S
C679 H667 0.950 . S
C679 C675 1.393 . S
C679 C678 1.391 . S
H680 C688 0.950 . S
H681 C693 0.950 . S
H682 C690 0.950 . S
H683 C692 0.950 . S
H684 C694 0.950 . S
H685 C696 0.950 . S
H686 C698 0.950 . S
H687 C699 0.950 . S
C688 H680 0.950 . S
C688 C689 1.386 . S
C688 C690 1.391 . S
C689 C688 1.386 . S
C689 C693 1.393 . S
C690 H682 0.950 . S
C690 C688 1.391 . S
C690 C691 1.400 . S
C691 C690 1.400 . S
C691 C692 1.398 . S
C691 C697 1.491 . S
C692 H683 0.950 . S
C692 C691 1.398 . S
C692 C693 1.391 . S
C693 H681 0.950 . S
C693 C689 1.393 . S
C693 C692 1.391 . S
C694 H684 0.950 . S
C694 C695 1.386 . S
C694 C696 1.391 . S
C695 C694 1.386 . S
C695 C699 1.393 . S
C696 H685 0.950 . S
C696 C694 1.391 . S
C696 C697 1.400 . S
C697 C691 1.491 . S
C697 C696 1.400 . S
C697 C698 1.398 . S
C698 H686 0.950 . S
C698 C697 1.398 . S
C698 C699 1.391 . S
C699 H687 0.950 . S
C699 C695 1.393 . S
C699 C698 1.391 . S
H700 C708 0.950 . S
H701 C713 0.950 . S
H702 C710 0.950 . S
H703 C712 0.950 . S
H704 C714 0.950 . S
H705 C716 0.950 . S
H706 C718 0.950 . S
H707 C719 0.950 . S
C708 H700 0.950 . S
C708 C709 1.386 . S
C708 C710 1.391 . S
C709 C708 1.386 . S
C709 C713 1.393 . S
C710 H702 0.950 . S
C710 C708 1.391 . S
C710 C711 1.400 . S
C711 C710 1.400 . S
C711 C712 1.398 . S
C711 C717 1.491 . S
C712 H703 0.950 . S
C712 C711 1.398 . S
C712 C713 1.391 . S
C713 H701 0.950 . S
C713 C709 1.393 . S
C713 C712 1.391 . S
C714 H704 0.950 . S
C714 C715 1.386 . S
C714 C716 1.391 . S
C715 C714 1.386 . S
C715 C719 1.393 . S
C716 H705 0.950 . S
C716 C714 1.391 . S
C716 C717 1.400 . S
C717 C711 1.491 . S
C717 C716 1.400 . S
C717 C718 1.398 . S
C718 H706 0.950 . S
C718 C717 1.398 . S
C718 C719 1.391 . S
C719 H707 0.950 . S
C719 C715 1.393 . S
C719 C718 1.391 . S
H720 C728 0.950 . S
H721 C733 0.950 . S
H722 C730 0.950 1_545 S
H723 C732 0.950 . S
H724 C734 0.950 . S
H725 C736 0.950 1_565 S
H726 C738 0.950 . S
H727 C739 0.950 . S
C728 H720 0.950 . S
C728 C729 1.386 . S
C728 C730 1.391 . S
C729 C728 1.386 . S
C729 C733 1.393 . S
C730 H722 0.950 1_565 S
C730 C728 1.391 . S
C730 C731 1.400 . S
C731 C730 1.400 . S
C731 C732 1.398 . S
C731 C737 1.491 1_566 S
C732 H723 0.950 . S
C732 C731 1.398 . S
C732 C733 1.391 . S
C733 H721 0.950 . S
C733 C729 1.393 . S
C733 C732 1.391 . S
C734 H724 0.950 . S
C734 C735 1.386 . S
C734 C736 1.391 . S
C735 C734 1.386 . S
C735 C739 1.393 . S
C736 H725 0.950 1_545 S
C736 C734 1.391 . S
C736 C737 1.400 . S
C737 C731 1.491 1_544 S
C737 C736 1.400 . S
C737 C738 1.398 . S
C738 H726 0.950 . S
C738 C737 1.398 . S
C738 C739 1.391 . S
C739 H727 0.950 . S
C739 C735 1.393 . S
C739 C738 1.391 . S
H740 C748 0.950 . S
H741 C753 0.950 . S
H742 C750 0.950 . S
H743 C752 0.950 . S
H744 C754 0.950 . S
H745 C756 0.950 . S
H746 C758 0.950 . S
H747 C759 0.950 . S
C748 H740 0.950 . S
C748 C749 1.386 . S
C748 C750 1.391 . S
C749 C748 1.386 . S
C749 C753 1.393 . S
C750 H742 0.950 . S
C750 C748 1.391 . S
C750 C751 1.400 . S
C751 C750 1.400 . S
C751 C752 1.398 . S
C751 C757 1.491 . S
C752 H743 0.950 . S
C752 C751 1.398 . S
C752 C753 1.391 . S
C753 H741 0.950 . S
C753 C749 1.393 . S
C753 C752 1.391 . S
C754 H744 0.950 . S
C754 C755 1.386 . S
C754 C756 1.391 . S
C755 C754 1.386 . S
C755 C759 1.393 . S
C756 H745 0.950 . S
C756 C754 1.391 . S
C756 C757 1.400 . S
C757 C751 1.491 . S
C757 C756 1.400 . S
C757 C758 1.398 . S
C758 H746 0.950 . S
C758 C757 1.398 . S
C758 C759 1.391 . S
C759 H747 0.950 . S
C759 C755 1.393 . S
C759 C758 1.391 . S
H760 C768 0.950 . S
H761 C773 0.950 . S
H762 C770 0.950 . S
H763 C772 0.960 . S
H764 C774 0.950 . S
H765 C776 0.950 . S
H766 C778 0.960 . S
H767 C779 0.950 . S
C768 H760 0.950 . S
C768 C769 1.386 . S
C768 C770 1.391 . S
C769 C768 1.386 . S
C769 C773 1.393 . S
C770 H762 0.950 . S
C770 C768 1.391 . S
C770 C771 1.400 . S
C771 C770 1.400 . S
C771 C772 1.401 1_455 S
C771 C777 1.491 1_455 S
C772 H763 0.960 . S
C772 C771 1.401 1_655 S
C772 C773 1.379 1_655 S
C773 H761 0.950 . S
C773 C769 1.393 . S
C773 C772 1.379 1_455 S
C774 H764 0.950 . S
C774 C775 1.386 . S
C774 C776 1.391 . S
C775 C774 1.386 . S
C775 C779 1.393 . S
C776 H765 0.950 . S
C776 C774 1.391 . S
C776 C777 1.400 . S
C777 C771 1.491 1_655 S
C777 C776 1.400 . S
C777 C778 1.401 1_655 S
C778 H766 0.960 . S
C778 C777 1.401 1_455 S
C778 C779 1.379 1_455 S
C779 H767 0.950 . S
C779 C775 1.393 . S
C779 C778 1.379 1_655 S
H780 C788 0.950 . S
H781 C793 0.950 . S
H782 C790 0.950 . S
H783 C792 0.950 . S
H784 C794 0.950 . S
H785 C796 0.950 . S
H786 C798 0.950 . S
H787 C799 0.950 . S
C788 H780 0.950 . S
C788 C789 1.386 . S
C788 C790 1.391 . S
C789 C788 1.386 . S
C789 C793 1.393 . S
C790 H782 0.950 . S
C790 C788 1.391 . S
C790 C791 1.400 . S
C791 C790 1.400 . S
C791 C792 1.398 1_565 S
C791 C797 1.491 1_564 S
C792 H783 0.950 . S
C792 C791 1.398 1_545 S
C792 C793 1.391 1_545 S
C793 H781 0.950 . S
C793 C789 1.393 . S
C793 C792 1.391 1_565 S
C794 H784 0.950 . S
C794 C795 1.386 . S
C794 C796 1.391 . S
C795 C794 1.386 . S
C795 C799 1.393 . S
C796 H785 0.950 . S
C796 C794 1.391 . S
C796 C797 1.400 . S
C797 C791 1.491 1_546 S
C797 C796 1.400 . S
C797 C798 1.398 1_545 S
C798 H786 0.950 . S
C798 C797 1.398 1_565 S
C798 C799 1.391 1_565 S
C799 H787 0.950 . S
C799 C795 1.393 . S
C799 C798 1.391 1_545 S
H800 C808 0.950 . S
H801 C813 0.950 . S
H802 C810 0.950 . S
H803 C812 0.950 . S
H804 C814 0.950 . S
H805 C816 0.950 . S
H806 C818 0.950 . S
H807 C819 0.950 . S
C808 H800 0.950 . S
C808 C809 1.386 . S
C808 C810 1.391 . S
C809 C808 1.386 . S
C809 C813 1.393 . S
C810 H802 0.950 . S
C810 C808 1.391 . S
C810 C811 1.400 . S
C811 C810 1.400 . S
C811 C812 1.398 . S
C811 C817 1.491 . S
C812 H803 0.950 . S
C812 C811 1.398 . S
C812 C813 1.391 . S
C813 H801 0.950 . S
C813 C809 1.393 . S
C813 C812 1.391 . S
C814 H804 0.950 . S
C814 C815 1.386 . S
C814 C816 1.391 . S
C815 C814 1.386 . S
C815 C819 1.393 . S
C816 H805 0.950 . S
C816 C814 1.391 . S
C816 C817 1.400 . S
C817 C811 1.491 . S
C817 C816 1.400 . S
C817 C818 1.398 . S
C818 H806 0.950 . S
C818 C817 1.398 . S
C818 C819 1.391 . S
C819 H807 0.950 . S
C819 C815 1.393 . S
C819 C818 1.391 . S
H820 C828 0.934 1_655 S
H821 C833 0.950 . S
H822 C830 0.950 . S
H823 C832 0.950 . S
H824 C834 0.934 1_455 S
H825 C836 0.950 . S
H826 C838 0.950 . S
H827 C839 0.950 . S
C828 H820 0.934 1_455 S
C828 C829 1.386 . S
C828 C830 1.391 1_455 S
C829 C828 1.386 . S
C829 C833 1.393 . S
C830 H822 0.950 . S
C830 C828 1.391 1_655 S
C830 C831 1.400 1_655 S
C831 C830 1.400 1_455 S
C831 C832 1.398 . S
C831 C837 1.491 1_455 S
C832 H823 0.950 . S
C832 C831 1.398 . S
C832 C833 1.391 . S
C833 H821 0.950 . S
C833 C829 1.393 . S
C833 C832 1.391 . S
C834 H824 0.934 1_655 S
C834 C835 1.386 . S
C834 C836 1.391 1_655 S
C835 C834 1.386 . S
C835 C839 1.393 . S
C836 H825 0.950 . S
C836 C834 1.391 1_455 S
C836 C837 1.400 1_455 S
C837 C831 1.491 1_655 S
C837 C836 1.400 1_655 S
C837 C838 1.398 . S
C838 H826 0.950 . S
C838 C837 1.398 . S
C838 C839 1.391 . S
C839 H827 0.950 . S
C839 C835 1.393 . S
C839 C838 1.391 . S
H840 C848 0.950 . S
H841 C853 0.950 . S
H842 C850 0.950 . S
H843 C852 0.950 1_565 S
H844 C854 0.950 . S
H845 C856 0.950 . S
H846 C858 0.950 1_545 S
H847 C859 0.950 . S
C848 H840 0.950 . S
C848 C849 1.386 . S
C848 C850 1.391 . S
C849 C848 1.386 . S
C849 C853 1.393 . S
C850 H842 0.950 . S
C850 C848 1.391 . S
C850 C851 1.400 . S
C851 C850 1.400 . S
C851 C852 1.398 . S
C851 C857 1.491 1_545 S
C852 H843 0.950 1_545 S
C852 C851 1.398 . S
C852 C853 1.391 . S
C853 H841 0.950 . S
C853 C849 1.393 . S
C853 C852 1.391 . S
C854 H844 0.950 . S
C854 C855 1.386 . S
C854 C856 1.391 . S
C855 C854 1.386 . S
C855 C859 1.393 . S
C856 H845 0.950 . S
C856 C854 1.391 . S
C856 C857 1.400 . S
C857 C851 1.491 1_565 S
C857 C856 1.400 . S
C857 C858 1.398 . S
C858 H846 0.950 1_565 S
C858 C857 1.398 . S
C858 C859 1.391 . S
C859 H847 0.950 . S
C859 C855 1.393 . S
C859 C858 1.391 . S
H860 C868 0.950 . S
H861 C873 0.950 . S
H862 C870 0.950 . S
H863 C872 0.950 . S
H864 C874 0.950 . S
H865 C876 0.950 . S
H866 C878 0.950 . S
H867 C879 0.950 . S
C868 H860 0.950 . S
C868 C869 1.386 . S
C868 C870 1.391 . S
C869 C868 1.386 . S
C869 C873 1.393 . S
C870 H862 0.950 . S
C870 C868 1.391 . S
C870 C871 1.400 . S
C871 C870 1.400 . S
C871 C872 1.398 . S
C871 C877 1.491 . S
C872 H863 0.950 . S
C872 C871 1.398 . S
C872 C873 1.391 . S
C873 H861 0.950 . S
C873 C869 1.393 . S
C873 C872 1.391 . S
C874 H864 0.950 . S
C874 C875 1.386 . S
C874 C876 1.391 . S
C875 C874 1.386 . S
C875 C879 1.393 . S
C876 H865 0.950 . S
C876 C874 1.391 . S
C876 C877 1.400 . S
C877 C871 1.491 . S
C877 C876 1.400 . S
C877 C878 1.398 . S
C878 H866 0.950 . S
C878 C877 1.398 . S
C878 C879 1.391 . S
C879 H867 0.950 . S
C879 C875 1.393 . S
C879 C878 1.391 . S
H880 C888 0.950 . S
H881 C893 0.950 . S
H882 C890 0.950 . S
H883 C892 0.950 1_455 S
H884 C894 0.950 . S
H885 C896 0.950 . S
H886 C898 0.950 1_655 S
H887 C899 0.950 . S
C888 H880 0.950 . S
C888 C889 1.386 . S
C888 C890 1.391 . S
C889 C888 1.386 . S
C889 C893 1.393 . S
C890 H882 0.950 . S
C890 C888 1.391 . S
C890 C891 1.400 . S
C891 C890 1.400 . S
C891 C892 1.398 . S
C891 C897 1.491 1_655 S
C892 H883 0.950 1_655 S
C892 C891 1.398 . S
C892 C893 1.391 . S
C893 H881 0.950 . S
C893 C889 1.393 . S
C893 C892 1.391 . S
C894 H884 0.950 . S
C894 C895 1.386 . S
C894 C896 1.391 . S
C895 C894 1.386 . S
C895 C899 1.393 . S
C896 H885 0.950 . S
C896 C894 1.391 . S
C896 C897 1.400 . S
C897 C891 1.491 1_455 S
C897 C896 1.400 . S
C897 C898 1.398 . S
C898 H886 0.950 1_455 S
C898 C897 1.398 . S
C898 C899 1.391 . S
C899 H887 0.950 . S
C899 C895 1.393 . S
C899 C898 1.391 . S
H900 C908 0.950 . S
H901 C913 0.950 . S
H902 C910 0.950 . S
H903 C912 0.950 . S
H904 C914 0.950 . S
H905 C916 0.950 . S
H906 C918 0.950 . S
H907 C919 0.950 . S
C908 H900 0.950 . S
C908 C909 1.386 . S
C908 C910 1.391 . S
C909 C908 1.386 . S
C909 C913 1.393 . S
C910 H902 0.950 . S
C910 C908 1.391 . S
C910 C911 1.400 . S
C911 C910 1.400 . S
C911 C912 1.398 . S
C911 C917 1.491 1_455 S
C912 H903 0.950 . S
C912 C911 1.398 . S
C912 C913 1.391 . S
C913 H901 0.950 . S
C913 C909 1.393 . S
C913 C912 1.391 . S
C914 H904 0.950 . S
C914 C915 1.386 . S
C914 C916 1.391 . S
C915 C914 1.386 . S
C915 C919 1.393 . S
C916 H905 0.950 . S
C916 C914 1.391 . S
C916 C917 1.400 . S
C917 C911 1.491 1_655 S
C917 C916 1.400 . S
C917 C918 1.398 . S
C918 H906 0.950 . S
C918 C917 1.398 . S
C918 C919 1.391 . S
C919 H907 0.950 . S
C919 C915 1.393 . S
C919 C918 1.391 . S
H920 C928 0.950 . S
H921 C933 0.950 . S
H922 C930 0.950 1_545 S
H923 C932 0.950 . S
H924 C934 0.950 . S
H925 C936 0.950 1_565 S
H926 C938 0.950 . S
H927 C939 0.950 . S
C928 H920 0.950 . S
C928 C929 1.386 . S
C928 C930 1.391 . S
C929 C928 1.386 . S
C929 C933 1.393 . S
C930 H922 0.950 1_565 S
C930 C928 1.391 . S
C930 C931 1.400 . S
C931 C930 1.400 . S
C931 C932 1.398 . S
C931 C937 1.491 1_565 S
C932 H923 0.950 . S
C932 C931 1.398 . S
C932 C933 1.391 . S
C933 H921 0.950 . S
C933 C929 1.393 . S
C933 C932 1.391 . S
C934 H924 0.950 . S
C934 C935 1.386 . S
C934 C936 1.391 . S
C935 C934 1.386 . S
C935 C939 1.393 . S
C936 H925 0.950 1_545 S
C936 C934 1.391 . S
C936 C937 1.400 . S
C937 C931 1.491 1_545 S
C937 C936 1.400 . S
C937 C938 1.398 . S
C938 H926 0.950 . S
C938 C937 1.398 . S
C938 C939 1.391 . S
C939 H927 0.950 . S
C939 C935 1.393 . S
C939 C938 1.391 . S
H940 C948 0.950 . S
H941 C953 0.950 . S
H942 C950 0.950 . S
H943 C952 0.950 . S
H944 C954 0.950 . S
H945 C956 0.950 . S
H946 C958 0.950 . S
H947 C959 0.950 . S
C948 H940 0.950 . S
C948 C949 1.386 . S
C948 C950 1.391 . S
C949 C948 1.386 . S
C949 C953 1.393 . S
C950 H942 0.950 . S
C950 C948 1.391 . S
C950 C951 1.400 . S
C951 C950 1.400 . S
C951 C952 1.398 . S
C951 C957 1.491 . S
C952 H943 0.950 . S
C952 C951 1.398 . S
C952 C953 1.391 . S
C953 H941 0.950 . S
C953 C949 1.393 . S
C953 C952 1.391 . S
C954 H944 0.950 . S
C954 C955 1.386 . S
C954 C956 1.391 . S
C955 C954 1.386 . S
C955 C959 1.393 . S
C956 H945 0.950 . S
C956 C954 1.391 . S
C956 C957 1.400 . S
C957 C951 1.491 . S
C957 C956 1.400 . S
C957 C958 1.398 . S
C958 H946 0.950 . S
C958 C957 1.398 . S
C958 C959 1.391 . S
C959 H947 0.950 . S
C959 C955 1.393 . S
C959 C958 1.391 . S
H960 C968 0.950 . S
H961 C973 0.950 . S
H962 C970 0.950 . S
H963 C972 0.950 1_545 S
H964 C974 0.950 . S
H965 C976 0.950 . S
H966 C978 0.950 1_565 S
H967 C979 0.950 . S
C968 H960 0.950 . S
C968 C969 1.386 . S
C968 C970 1.391 . S
C969 C968 1.386 . S
C969 C973 1.393 . S
C970 H962 0.950 . S
C970 C968 1.391 . S
C970 C971 1.400 . S
C971 C970 1.400 . S
C971 C972 1.398 . S
C971 C977 1.491 1_565 S
C972 H963 0.950 1_565 S
C972 C971 1.398 . S
C972 C973 1.391 . S
C973 H961 0.950 . S
C973 C969 1.393 . S
C973 C972 1.391 . S
C974 H964 0.950 . S
C974 C975 1.386 . S
C974 C976 1.391 . S
C975 C974 1.386 . S
C975 C979 1.393 . S
C976 H965 0.950 . S
C976 C974 1.391 . S
C976 C977 1.400 . S
C977 C971 1.491 1_545 S
C977 C976 1.400 . S
C977 C978 1.398 . S
C978 H966 0.950 1_545 S
C978 C977 1.398 . S
C978 C979 1.391 . S
C979 H967 0.950 . S
C979 C975 1.393 . S
C979 C978 1.391 . S
H980 C988 0.950 . S
H981 C993 0.950 . S
H982 C990 0.950 . S
H983 C992 0.950 . S
H984 C994 0.950 . S
H985 C996 0.950 . S
H986 C998 0.950 . S
H987 C999 0.950 . S
C988 H980 0.950 . S
C988 C989 1.386 . S
C988 C990 1.391 . S
C989 C988 1.386 . S
C989 C993 1.393 . S
C990 H982 0.950 . S
C990 C988 1.391 . S
C990 C991 1.400 . S
C991 C990 1.400 . S
C991 C992 1.398 . S
C991 C997 1.491 . S
C992 H983 0.950 . S
C992 C991 1.398 . S
C992 C993 1.391 . S
C993 H981 0.950 . S
C993 C989 1.393 . S
C993 C992 1.391 . S
C994 H984 0.950 . S
C994 C995 1.386 . S
C994 C996 1.391 . S
C995 C994 1.386 . S
C995 C999 1.393 . S
C996 H985 0.950 . S
C996 C994 1.391 . S
C996 C997 1.400 . S
C997 C991 1.491 . S
C997 C996 1.400 . S
C997 C998 1.398 . S
C998 H986 0.950 . S
C998 C997 1.398 . S
C998 C999 1.391 . S
C999 H987 0.950 . S
C999 C995 1.393 . S
C999 C998 1.391 . S
H1000 C1008 0.950 . S
H1001 C1013 0.950 . S
H1002 C1010 0.950 1_455 S
H1003 C1012 0.950 . S
H1004 C1014 0.950 . S
H1005 C1016 0.950 1_655 S
H1006 C1018 0.950 . S
H1007 C1019 0.950 . S
C1008 H1000 0.950 . S
C1008 C1009 1.386 . S
C1008 C1010 1.391 . S
C1009 C1008 1.386 . S
C1009 C1013 1.393 . S
C1010 H1002 0.950 1_655 S
C1010 C1008 1.391 . S
C1010 C1011 1.400 . S
C1011 C1010 1.400 . S
C1011 C1012 1.398 . S
C1011 C1017 1.491 1_655 S
C1012 H1003 0.950 . S
C1012 C1011 1.398 . S
C1012 C1013 1.391 . S
C1013 H1001 0.950 . S
C1013 C1009 1.393 . S
C1013 C1012 1.391 . S
C1014 H1004 0.950 . S
C1014 C1015 1.386 . S
C1014 C1016 1.391 . S
C1015 C1014 1.386 . S
C1015 C1019 1.393 . S
C1016 H1005 0.950 1_455 S
C1016 C1014 1.391 . S
C1016 C1017 1.400 . S
C1017 C1011 1.491 1_455 S
C1017 C1016 1.400 . S
C1017 C1018 1.398 . S
C1018 H1006 0.950 . S
C1018 C1017 1.398 . S
C1018 C1019 1.391 . S
C1019 H1007 0.950 . S
C1019 C1015 1.393 . S
C1019 C1018 1.391 . S
H1020 C1028 0.950 . S
H1021 C1033 0.950 . S
H1022 C1030 0.950 . S
H1023 C1032 0.950 1_565 S
H1024 C1034 0.950 . S
H1025 C1036 0.950 . S
H1026 C1038 0.950 1_545 S
H1027 C1039 0.950 . S
C1028 H1020 0.950 . S
C1028 C1029 1.386 . S
C1028 C1030 1.391 . S
C1029 C1028 1.386 . S
C1029 C1033 1.393 . S
C1030 H1022 0.950 . S
C1030 C1028 1.391 . S
C1030 C1031 1.400 . S
C1031 C1030 1.400 . S
C1031 C1032 1.398 . S
C1031 C1037 1.491 1_545 S
C1032 H1023 0.950 1_545 S
C1032 C1031 1.398 . S
C1032 C1033 1.391 . S
C1033 H1021 0.950 . S
C1033 C1029 1.393 . S
C1033 C1032 1.391 . S
C1034 H1024 0.950 . S
C1034 C1035 1.386 . S
C1034 C1036 1.391 . S
C1035 C1034 1.386 . S
C1035 C1039 1.393 . S
C1036 H1025 0.950 . S
C1036 C1034 1.391 . S
C1036 C1037 1.400 . S
C1037 C1031 1.491 1_565 S
C1037 C1036 1.400 . S
C1037 C1038 1.398 . S
C1038 H1026 0.950 1_565 S
C1038 C1037 1.398 . S
C1038 C1039 1.391 . S
C1039 H1027 0.950 . S
C1039 C1035 1.393 . S
C1039 C1038 1.391 . S
H1040 C1048 0.950 . S
H1041 C1053 0.950 . S
H1042 C1050 0.950 . S
H1043 C1052 0.950 . S
H1044 C1054 0.950 . S
H1045 C1056 0.950 . S
H1046 C1058 0.950 . S
H1047 C1059 0.950 . S
C1048 H1040 0.950 . S
C1048 C1049 1.386 . S
C1048 C1050 1.391 . S
C1049 C1048 1.386 . S
C1049 C1053 1.393 . S
C1050 H1042 0.950 . S
C1050 C1048 1.391 . S
C1050 C1051 1.400 . S
C1051 C1050 1.400 . S
C1051 C1052 1.398 . S
C1051 C1057 1.491 . S
C1052 H1043 0.950 . S
C1052 C1051 1.398 . S
C1052 C1053 1.391 . S
C1053 H1041 0.950 . S
C1053 C1049 1.393 . S
C1053 C1052 1.391 . S
C1054 H1044 0.950 . S
C1054 C1055 1.386 . S
C1054 C1056 1.391 . S
C1055 C1054 1.386 . S
C1055 C1059 1.393 . S
C1056 H1045 0.950 . S
C1056 C1054 1.391 . S
C1056 C1057 1.400 . S
C1057 C1051 1.491 . S
C1057 C1056 1.400 . S
C1057 C1058 1.398 . S
C1058 H1046 0.950 . S
C1058 C1057 1.398 . S
C1058 C1059 1.391 . S
C1059 H1047 0.950 . S
C1059 C1055 1.393 . S
C1059 C1058 1.391 . S
H1060 C1068 0.950 . S
H1061 C1073 0.950 . S
H1062 C1070 0.950 1_655 S
H1063 C1072 0.950 . S
H1064 C1074 0.950 . S
H1065 C1076 0.950 1_455 S
H1066 C1078 0.950 . S
H1067 C1079 0.950 . S
C1068 H1060 0.950 . S
C1068 C1069 1.386 . S
C1068 C1070 1.391 . S
C1069 C1068 1.386 . S
C1069 C1073 1.393 . S
C1070 H1062 0.950 1_455 S
C1070 C1068 1.391 . S
C1070 C1071 1.400 . S
C1071 C1070 1.400 . S
C1071 C1072 1.398 . S
C1071 C1077 1.491 1_455 S
C1072 H1063 0.950 . S
C1072 C1071 1.398 . S
C1072 C1073 1.391 . S
C1073 H1061 0.950 . S
C1073 C1069 1.393 . S
C1073 C1072 1.391 . S
C1074 H1064 0.950 . S
C1074 C1075 1.386 . S
C1074 C1076 1.391 . S
C1075 C1074 1.386 . S
C1075 C1079 1.393 . S
C1076 H1065 0.950 1_655 S
C1076 C1074 1.391 . S
C1076 C1077 1.400 . S
C1077 C1071 1.491 1_655 S
C1077 C1076 1.400 . S
C1077 C1078 1.398 . S
C1078 H1066 0.950 . S
C1078 C1077 1.398 . S
C1078 C1079 1.391 . S
C1079 H1067 0.950 . S
C1079 C1075 1.393 . S
C1079 C1078 1.391 . S
H1080 C1088 0.950 . S
H1081 C1093 0.950 . S
H1082 C1090 0.950 . S
H1083 C1092 0.950 . S
H1084 C1094 0.950 . S
H1085 C1096 0.950 . S
H1086 C1098 0.950 . S
H1087 C1099 0.950 . S
C1088 H1080 0.950 . S
C1088 C1089 1.386 . S
C1088 C1090 1.391 . S
C1089 C1088 1.386 . S
C1089 C1093 1.393 . S
C1090 H1082 0.950 . S
C1090 C1088 1.391 . S
C1090 C1091 1.400 . S
C1091 C1090 1.400 . S
C1091 C1092 1.398 . S
C1091 C1097 1.491 . S
C1092 H1083 0.950 . S
C1092 C1091 1.398 . S
C1092 C1093 1.391 . S
C1093 H1081 0.950 . S
C1093 C1089 1.393 . S
C1093 C1092 1.391 . S
C1094 H1084 0.950 . S
C1094 C1095 1.386 . S
C1094 C1096 1.391 . S
C1095 C1094 1.386 . S
C1095 C1099 1.393 . S
C1096 H1085 0.950 . S
C1096 C1094 1.391 . S
C1096 C1097 1.400 . S
C1097 C1091 1.491 . S
C1097 C1096 1.400 . S
C1097 C1098 1.398 . S
C1098 H1086 0.950 . S
C1098 C1097 1.398 . S
C1098 C1099 1.391 . S
C1099 H1087 0.950 . S
C1099 C1095 1.393 . S
C1099 C1098 1.391 . S
H1100 C1108 0.950 . S
H1101 C1113 0.950 . S
H1102 C1110 0.950 . S
H1103 C1112 0.950 . S
H1104 C1114 0.950 . S
H1105 C1116 0.950 . S
H1106 C1118 0.950 . S
H1107 C1119 0.950 . S
C1108 H1100 0.950 . S
C1108 C1109 1.386 . S
C1108 C1110 1.391 . S
C1109 C1108 1.386 . S
C1109 C1113 1.393 . S
C1110 H1102 0.950 . S
C1110 C1108 1.391 . S
C1110 C1111 1.400 . S
C1111 C1110 1.400 . S
C1111 C1112 1.398 . S
C1111 C1117 1.491 . S
C1112 H1103 0.950 . S
C1112 C1111 1.398 . S
C1112 C1113 1.391 . S
C1113 H1101 0.950 . S
C1113 C1109 1.393 . S
C1113 C1112 1.391 . S
C1114 H1104 0.950 . S
C1114 C1115 1.386 . S
C1114 C1116 1.391 . S
C1115 C1114 1.386 . S
C1115 C1119 1.393 . S
C1116 H1105 0.950 . S
C1116 C1114 1.391 . S
C1116 C1117 1.400 . S
C1117 C1111 1.491 . S
C1117 C1116 1.400 . S
C1117 C1118 1.398 . S
C1118 H1106 0.950 . S
C1118 C1117 1.398 . S
C1118 C1119 1.391 . S
C1119 H1107 0.950 . S
C1119 C1115 1.393 . S
C1119 C1118 1.391 . S
H1120 C1128 0.950 . S
H1121 C1133 0.950 . S
H1122 C1130 0.950 . S
H1123 C1132 0.950 . S
H1124 C1134 0.950 . S
H1125 C1136 0.950 . S
H1126 C1138 0.950 . S
H1127 C1139 0.950 . S
C1128 H1120 0.950 . S
C1128 C1129 1.386 . S
C1128 C1130 1.391 . S
C1129 C1128 1.386 . S
C1129 C1133 1.393 . S
C1130 H1122 0.950 . S
C1130 C1128 1.391 . S
C1130 C1131 1.400 . S
C1131 C1130 1.400 . S
C1131 C1132 1.398 . S
C1131 C1137 1.491 . S
C1132 H1123 0.950 . S
C1132 C1131 1.398 . S
C1132 C1133 1.391 . S
C1133 H1121 0.950 . S
C1133 C1129 1.393 . S
C1133 C1132 1.391 . S
C1134 H1124 0.950 . S
C1134 C1135 1.386 . S
C1134 C1136 1.391 . S
C1135 C1134 1.386 . S
C1135 C1139 1.393 . S
C1136 H1125 0.950 . S
C1136 C1134 1.391 . S
C1136 C1137 1.400 . S
C1137 C1131 1.491 . S
C1137 C1136 1.400 . S
C1137 C1138 1.398 . S
C1138 H1126 0.950 . S
C1138 C1137 1.398 . S
C1138 C1139 1.391 . S
C1139 H1127 0.950 . S
C1139 C1135 1.393 . S
C1139 C1138 1.391 . S
H1140 C1148 0.950 . S
H1141 C1153 0.950 . S
H1142 C1150 0.950 . S
H1143 C1152 0.950 . S
H1144 C1154 0.950 . S
H1145 C1156 0.950 . S
H1146 C1158 0.950 . S
H1147 C1159 0.950 . S
C1148 H1140 0.950 . S
C1148 C1149 1.386 . S
C1148 C1150 1.391 . S
C1149 C1148 1.386 . S
C1149 C1153 1.393 . S
C1150 H1142 0.950 . S
C1150 C1148 1.391 . S
C1150 C1151 1.400 . S
C1151 C1150 1.400 . S
C1151 C1152 1.398 . S
C1151 C1157 1.491 . S
C1152 H1143 0.950 . S
C1152 C1151 1.398 . S
C1152 C1153 1.391 . S
C1153 H1141 0.950 . S
C1153 C1149 1.393 . S
C1153 C1152 1.391 . S
C1154 H1144 0.950 . S
C1154 C1155 1.386 . S
C1154 C1156 1.391 . S
C1155 C1154 1.386 . S
C1155 C1159 1.393 . S
C1156 H1145 0.950 . S
C1156 C1154 1.391 . S
C1156 C1157 1.400 . S
C1157 C1151 1.491 . S
C1157 C1156 1.400 . S
C1157 C1158 1.398 . S
C1158 H1146 0.950 . S
C1158 C1157 1.398 . S
C1158 C1159 1.391 . S
C1159 H1147 0.950 . S
C1159 C1155 1.393 . S
C1159 C1158 1.391 . S
H1160 C1168 0.950 . S
H1161 C1173 0.950 . S
H1162 C1170 0.950 . S
H1163 C1172 0.950 . S
H1164 C1174 0.950 . S
H1165 C1176 0.950 . S
H1166 C1178 0.950 . S
H1167 C1179 0.950 . S
C1168 H1160 0.950 . S
C1168 C1169 1.386 . S
C1168 C1170 1.391 . S
C1169 C1168 1.386 . S
C1169 C1173 1.393 . S
C1170 H1162 0.950 . S
C1170 C1168 1.391 . S
C1170 C1171 1.400 . S
C1171 C1170 1.400 . S
C1171 C1172 1.398 . S
C1171 C1177 1.491 . S
C1172 H1163 0.950 . S
C1172 C1171 1.398 . S
C1172 C1173 1.391 . S
C1173 H1161 0.950 . S
C1173 C1169 1.393 . S
C1173 C1172 1.391 . S
C1174 H1164 0.950 . S
C1174 C1175 1.386 . S
C1174 C1176 1.391 . S
C1175 C1174 1.386 . S
C1175 C1179 1.393 . S
C1176 H1165 0.950 . S
C1176 C1174 1.391 . S
C1176 C1177 1.400 . S
C1177 C1171 1.491 . S
C1177 C1176 1.400 . S
C1177 C1178 1.398 . S
C1178 H1166 0.950 . S
C1178 C1177 1.398 . S
C1178 C1179 1.391 . S
C1179 H1167 0.950 . S
C1179 C1175 1.393 . S
C1179 C1178 1.391 . S
H1180 C1188 0.950 . S
H1181 C1193 0.950 . S
H1182 C1190 0.950 . S
H1183 C1192 0.950 . S
H1184 C1194 0.950 . S
H1185 C1196 0.950 . S
H1186 C1198 0.950 . S
H1187 C1199 0.950 . S
C1188 H1180 0.950 . S
C1188 C1189 1.386 . S
C1188 C1190 1.391 . S
C1189 C1188 1.386 . S
C1189 C1193 1.393 . S
C1190 H1182 0.950 . S
C1190 C1188 1.391 . S
C1190 C1191 1.400 . S
C1191 C1190 1.400 . S
C1191 C1192 1.398 . S
C1191 C1197 1.491 . S
C1192 H1183 0.950 . S
C1192 C1191 1.398 . S
C1192 C1193 1.391 . S
C1193 H1181 0.950 . S
C1193 C1189 1.393 . S
C1193 C1192 1.391 . S
C1194 H1184 0.950 . S
C1194 C1195 1.386 . S
C1194 C1196 1.391 . S
C1195 C1194 1.386 . S
C1195 C1199 1.393 . S
C1196 H1185 0.950 . S
C1196 C1194 1.391 . S
C1196 C1197 1.400 . S
C1197 C1191 1.491 . S
C1197 C1196 1.400 . S
C1197 C1198 1.398 . S
C1198 H1186 0.950 . S
C1198 C1197 1.398 . S
C1198 C1199 1.391 . S
C1199 H1187 0.950 . S
C1199 C1195 1.393 . S
C1199 C1198 1.391 . S
C489 C9 1.081 . S
C495 C329 1.104 . S
C509 C49 1.089 . S
C515 C369 1.076 . S
C529 C89 1.106 . S
C535 C409 1.106 . S
C549 C449 1.110 . S
C555 C129 1.092 . S
C569 C169 1.107 . S
C575 C249 1.105 . S
C589 C289 1.109 . S
C595 C209 1.089 . S
C609 C415 1.551 . S
C615 C15 1.553 . S
C629 C455 1.551 . S
C635 C55 1.560 . S
C649 C95 1.564 . S
C655 C255 1.553 . S
C669 C295 1.563 . S
C675 C135 1.552 . S
C689 C335 1.556 . S
C695 C175 1.550 . S
C709 C215 1.551 . S
C715 C375 1.556 . S
C729 C299 4.258 . S
C735 C19 4.256 . S
C749 C339 4.257 . S
C755 C59 4.256 . S
C769 C379 4.250 . S
C775 C99 4.253 . S
C789 C139 4.253 . S
C795 C419 4.258 . S
C809 C179 4.254 . S
C815 C459 4.250 . S
C829 C219 4.258 . S
C835 C259 4.252 . S
C849 C18 0.543 . S
C855 C138 0.511 . S
C869 C58 0.456 . S
C875 C178 0.470 . S
C889 C98 0.539 . S
C895 C218 0.504 . S
C909 C378 0.540 . S
C915 C258 0.549 . S
C929 C298 0.456 . S
C935 C418 0.481 . S
C949 C458 0.496 . S
C955 C338 0.534 . S
C969 C286 0.714 . S
C975 C6 0.685 . S
C989 C326 0.679 . S
C995 C46 0.710 . S
C1009 C86 0.669 . S
C1015 C366 0.700 . S
C1029 C406 0.672 . S
C1035 C126 0.652 . S
C1049 C446 0.718 . S
C1055 C166 0.693 . S
C1069 C206 0.696 . S
C1075 C246 0.719 . S
C1089 C10 4.710 . S
C1095 C410 4.708 . S
C1109 C50 4.710 . S
C1115 C450 4.710 1_556 S
C1129 C90 4.710 1_554 S
C1135 C250 4.708 . S
C1149 C130 4.710 . S
C1155 C290 4.708 . S
C1169 C170 4.709 . S
C1175 C330 4.709 1_556 S
C1189 C370 4.711 . S
C1195 C210 4.709 1_554 S
