# Generated by pormake.
# Topology umw, (4)-cn, num edge types: 1
# Building blocks:
#     Node 0, Type 0, BuildingBlock: CEKHIL_clean_sbu_0, # of connection points: 4
#     Node 1, Type 0, BuildingBlock: CEKHIL_clean_sbu_0, # of connection points: 4
#     Node 2, Type 0, BuildingBlock: CEKHIL_clean_sbu_0, # of connection points: 4
#     Node 3, Type 0, BuildingBlock: CEKHIL_clean_sbu_0, # of connection points: 4
#     Node 4, Type 0, BuildingBlock: CEKHIL_clean_sbu_0, # of connection points: 4
#     Node 5, Type 0, BuildingBlock: CEKHIL_clean_sbu_0, # of connection points: 4
#     Node 6, Type 0, BuildingBlock: CEKHIL_clean_sbu_0, # of connection points: 4
#     Node 7, Type 0, BuildingBlock: CEKHIL_clean_sbu_0, # of connection points: 4
#     Edge 8, Type (0, 0), BuildingBlock: FUNLAD_clean_linker_1, # of connection points: 2
#     Edge 9, Type (0, 0), BuildingBlock: FUNLAD_clean_linker_1, # of connection points: 2
#     Edge 10, Type (0, 0), BuildingBlock: FUNLAD_clean_linker_1, # of connection points: 2
#     Edge 11, Type (0, 0), BuildingBlock: FUNLAD_clean_linker_1, # of connection points: 2
#     Edge 12, Type (0, 0), BuildingBlock: FUNLAD_clean_linker_1, # of connection points: 2
#     Edge 13, Type (0, 0), BuildingBlock: FUNLAD_clean_linker_1, # of connection points: 2
#     Edge 14, Type (0, 0), BuildingBlock: FUNLAD_clean_linker_1, # of connection points: 2
#     Edge 15, Type (0, 0), BuildingBlock: FUNLAD_clean_linker_1, # of connection points: 2
#     Edge 16, Type (0, 0), BuildingBlock: FUNLAD_clean_linker_1, # of connection points: 2
#     Edge 17, Type (0, 0), BuildingBlock: FUNLAD_clean_linker_1, # of connection points: 2
#     Edge 18, Type (0, 0), BuildingBlock: FUNLAD_clean_linker_1, # of connection points: 2
#     Edge 19, Type (0, 0), BuildingBlock: FUNLAD_clean_linker_1, # of connection points: 2
#     Edge 20, Type (0, 0), BuildingBlock: FUNLAD_clean_linker_1, # of connection points: 2
#     Edge 21, Type (0, 0), BuildingBlock: FUNLAD_clean_linker_1, # of connection points: 2
#     Edge 22, Type (0, 0), BuildingBlock: FUNLAD_clean_linker_1, # of connection points: 2
#     Edge 23, Type (0, 0), BuildingBlock: FUNLAD_clean_linker_1, # of connection points: 2
# Relax obj value: 0.134
# Max RMSD: 0.105
# Mean RMSD: 0.105
data_MOF--net-umw--node1-CEKHIL_clean_sbu_0--edge1-FUNLAD_clean_linker_1
_symmetry_space_group_name_H-M    P1
_symmetry_Int_Tables_number       1
_symmetry_cell_setting            triclinic
loop_
_symmetry_equiv_pos_as_xyz
'x, y, z'
_cell_length_a     42.094195
_cell_length_b     42.609549
_cell_length_c     26.607992
_cell_angle_alpha  89.911102
_cell_angle_beta   90.231702
_cell_angle_gamma 89.937977
loop_
_atom_site_label
_atom_site_type_symbol
_atom_site_fract_x
_atom_site_fract_y
_atom_site_fract_z
_atom_type_partial_charge
Co0 Co 0.42426 0.19332 0.29614 0.0
O1 O 0.41255 0.23709 0.30833 0.0
O2 O 0.38357 0.19595 0.32933 0.0
C3 C 0.44093 0.19844 0.21543 0.0
O4 O 0.42611 0.14538 0.29089 0.0
Co5 Co 0.49262 0.17025 0.2702 0.0
O6 O 0.47368 0.12772 0.26524 0.0
C7 C 0.47769 0.19366 0.37167 0.0
C8 C 0.38691 0.22619 0.32928 0.0
C9 C 0.44505 0.12293 0.27859 0.0
O10 O 0.44761 0.19249 0.36249 0.0
O11 O 0.49904 0.18878 0.33855 0.0
O12 O 0.41074 0.19614 0.22525 0.0
O13 O 0.45931 0.20004 0.25407 0.0
Co14 Co 0.81828 0.417 0.54104 0.0
O15 O 0.77343 0.40679 0.54435 0.0
O16 O 0.81219 0.37405 0.56442 0.0
C17 C 0.81596 0.4426 0.46611 0.0
O18 O 0.86715 0.41835 0.54208 0.0
Co19 Co 0.84284 0.48621 0.53576 0.0
O20 O 0.88465 0.46654 0.52129 0.0
C21 C 0.8155 0.46046 0.62948 0.0
C22 C 0.78181 0.37951 0.56166 0.0
C23 C 0.88971 0.43768 0.53121 0.0
O24 O 0.81703 0.43232 0.61238 0.0
O25 O 0.82164 0.48491 0.60315 0.0
O26 O 0.81797 0.41205 0.46671 0.0
O27 O 0.81361 0.45566 0.5092 0.0
Co28 Co 0.60338 0.82114 0.79278 0.0
O29 O 0.62113 0.78027 0.80908 0.0
O30 O 0.64593 0.8254 0.82042 0.0
C31 C 0.58269 0.80778 0.71738 0.0
O32 O 0.59345 0.86783 0.78112 0.0
Co33 Co 0.53055 0.83109 0.77397 0.0
O34 O 0.54293 0.87434 0.75486 0.0
C35 C 0.55578 0.81814 0.87582 0.0
C36 C 0.646 0.79506 0.82571 0.0
C37 C 0.57033 0.88523 0.76529 0.0
O38 O 0.58449 0.82324 0.86176 0.0
O39 O 0.53201 0.81711 0.84569 0.0
O40 O 0.61254 0.8157 0.72041 0.0
O41 O 0.56766 0.80641 0.75899 0.0
Co42 Co 0.20868 0.59385 0.05036 0.0
O43 O 0.25384 0.60112 0.0602 0.0
O44 O 0.21587 0.63249 0.08748 0.0
C45 C 0.21114 0.57948 0.96824 0.0
O46 O 0.16001 0.59545 0.04822 0.0
Co47 Co 0.18014 0.52888 0.01955 0.0
O48 O 0.13977 0.5524 0.01134 0.0
C49 C 0.20445 0.5393 0.12263 0.0
C50 C 0.24604 0.62631 0.08475 0.0
C51 C 0.13643 0.57954 0.0307 0.0
O52 O 0.20743 0.56897 0.11466 0.0
O53 O 0.19643 0.51949 0.08881 0.0
O54 O 0.2111 0.6091 0.9803 0.0
O55 O 0.21195 0.56025 0.00545 0.0
Co56 Co 0.42274 0.81758 0.323 0.0
O57 O 0.40615 0.77561 0.31202 0.0
O58 O 0.3788 0.81937 0.30068 0.0
C59 C 0.4481 0.80783 0.39646 0.0
O60 O 0.43128 0.86489 0.32976 0.0
Co61 Co 0.49608 0.8303 0.33052 0.0
O62 O 0.48272 0.87331 0.3494 0.0
C63 C 0.46563 0.81408 0.23366 0.0
C64 C 0.37994 0.78894 0.2973 0.0
C65 C 0.45456 0.88321 0.34167 0.0
O66 O 0.4377 0.81851 0.25157 0.0
O67 O 0.49106 0.81453 0.26024 0.0
O68 O 0.41773 0.81386 0.39687 0.0
O69 O 0.46073 0.8055 0.353 0.0
Co70 Co 0.21015 0.42293 0.56252 0.0
O71 O 0.25537 0.41454 0.55872 0.0
O72 O 0.21841 0.38488 0.52392 0.0
C73 C 0.2096 0.43526 0.64559 0.0
O74 O 0.16133 0.42317 0.55855 0.0
Co75 Co 0.18329 0.4885 0.59366 0.0
O76 O 0.14151 0.46682 0.59429 0.0
C77 C 0.21336 0.47943 0.4947 0.0
C78 C 0.24847 0.39014 0.53171 0.0
C79 C 0.13776 0.44005 0.57371 0.0
O80 O 0.21265 0.44937 0.49988 0.0
O81 O 0.20617 0.49872 0.52966 0.0
O82 O 0.20868 0.40597 0.63171 0.0
O83 O 0.21267 0.45521 0.60976 0.0
Co84 Co 0.59746 0.19718 0.80917 0.0
O85 O 0.60775 0.2415 0.80239 0.0
O86 O 0.63536 0.2029 0.76855 0.0
C87 C 0.58627 0.19821 0.89273 0.0
O88 O 0.59646 0.14908 0.80859 0.0
Co89 Co 0.53127 0.17225 0.84365 0.0
O90 O 0.55135 0.13007 0.84187 0.0
C91 C 0.53913 0.19989 0.74294 0.0
C92 C 0.63169 0.23289 0.77496 0.0
C93 C 0.57875 0.12604 0.82267 0.0
O94 O 0.56965 0.19912 0.74725 0.0
O95 O 0.52009 0.19357 0.77886 0.0
O96 O 0.61567 0.19664 0.87778 0.0
O97 O 0.56552 0.2012 0.85752 0.0
Co98 Co 0.81924 0.60131 0.0694 0.0
O99 O 0.77428 0.61134 0.06638 0.0
O100 O 0.81265 0.64246 0.03958 0.0
C101 C 0.81997 0.58112 0.14835 0.0
O102 O 0.86786 0.60027 0.06603 0.0
Co103 Co 0.84492 0.53298 0.0844 0.0
O104 O 0.88651 0.55407 0.09468 0.0
C105 C 0.81762 0.55281 0.98665 0.0
C106 C 0.78237 0.63735 0.0443 0.0
C107 C 0.89088 0.58213 0.07957 0.0
O108 O 0.81626 0.58154 0.00109 0.0
O109 O 0.82594 0.53 0.01528 0.0
O110 O 0.82119 0.61141 0.14185 0.0
O111 O 0.81613 0.56488 0.10825 0.0
H112 H 0.51493 0.20007 0.42835 0.0
C113 C 0.4893 0.19983 0.42278 0.0
H114 H 0.44468 0.20244 0.45896 0.0
H115 H 0.51894 0.14793 0.65139 0.0
H116 H 0.48669 0.10322 0.62768 0.0
H117 H 0.45296 0.10492 0.55167 0.0
H118 H 0.45145 0.15136 0.49883 0.0
C119 C 0.47037 0.20376 0.46258 0.0
C120 C 0.48512 0.20558 0.51321 0.0
C121 C 0.48474 0.17873 0.5446 0.0
C122 C 0.50367 0.17802 0.58887 0.0
C123 C 0.50423 0.1502 0.61816 0.0
C124 C 0.48601 0.12423 0.60477 0.0
C125 C 0.46707 0.12516 0.56193 0.0
C126 C 0.46645 0.15197 0.53193 0.0
H127 H 0.49851 0.20836 0.69293 0.0
C128 C 0.52425 0.20594 0.69389 0.0
H129 H 0.56576 0.20195 0.64964 0.0
H130 H 0.48856 0.2617 0.46356 0.0
H131 H 0.52053 0.30678 0.4875 0.0
H132 H 0.55353 0.30555 0.56438 0.0
H133 H 0.55476 0.25924 0.61779 0.0
C134 C 0.5401 0.20462 0.65044 0.0
C135 C 0.52207 0.20463 0.60242 0.0
C136 C 0.52191 0.23172 0.5716 0.0
C137 C 0.50319 0.23229 0.52706 0.0
C138 C 0.50292 0.25984 0.49726 0.0
C139 C 0.52099 0.28591 0.51075 0.0
C140 C 0.53953 0.28523 0.55407 0.0
C141 C 0.54002 0.25854 0.58439 0.0
H142 H 0.81332 0.44544 0.70875 0.0
C143 C 0.80892 0.46489 0.68315 0.0
H144 H 0.79607 0.51256 0.67551 0.0
H145 H 0.76881 0.4794 0.91752 0.0
H146 H 0.72742 0.44434 0.88786 0.0
H147 H 0.71953 0.43507 0.79714 0.0
H148 H 0.75308 0.46074 0.73559 0.0
C149 C 0.80038 0.49308 0.70109 0.0
C150 C 0.80295 0.50019 0.75536 0.0
C151 C 0.78277 0.48536 0.7906 0.0
C152 C 0.78705 0.49103 0.84276 0.0
C153 C 0.76667 0.47587 0.87738 0.0
C154 C 0.74275 0.45575 0.86087 0.0
C155 C 0.73833 0.4505 0.80981 0.0
C156 C 0.75791 0.46521 0.77489 0.0
H157 H 0.80286 0.56538 0.90959 0.0
C158 C 0.81054 0.54613 0.93362 0.0
H159 H 0.82266 0.49794 0.93721 0.0
H160 H 0.84527 0.53303 0.69701 0.0
H161 H 0.88707 0.56732 0.72661 0.0
H162 H 0.89571 0.57572 0.81731 0.0
H163 H 0.86239 0.55011 0.87873 0.0
C164 C 0.81546 0.51761 0.91373 0.0
C165 C 0.81116 0.51183 0.85927 0.0
C166 C 0.83144 0.5266 0.82395 0.0
C167 C 0.82695 0.52117 0.77182 0.0
C168 C 0.84744 0.53629 0.73718 0.0
C169 C 0.87169 0.556 0.75362 0.0
C170 C 0.87651 0.56077 0.80465 0.0
C171 C 0.8569 0.54613 0.83955 0.0
H172 H 0.44824 0.81348 0.15527 0.0
C173 C 0.46892 0.81007 0.17926 0.0
H174 H 0.5183 0.80018 0.18217 0.0
H175 H 0.52206 0.74728 0.96034 0.0
H176 H 0.52046 0.6979 0.00609 0.0
H177 H 0.51017 0.69697 0.09734 0.0
H178 H 0.50149 0.74541 0.14339 0.0
C179 C 0.49744 0.80442 0.15893 0.0
C180 C 0.50195 0.8049 0.10417 0.0
C181 C 0.50678 0.77637 0.07818 0.0
C182 C 0.51253 0.77689 0.02578 0.0
C183 C 0.5175 0.74814 0.00032 0.0
C184 C 0.51664 0.71967 0.0261 0.0
C185 C 0.51086 0.71915 0.07748 0.0
C186 C 0.50596 0.7471 0.10344 0.0
H187 H 0.56858 0.81899 0.95631 0.0
C188 C 0.54954 0.8144 0.9296 0.0
H189 H 0.50128 0.80115 0.92012 0.0
H190 H 0.49522 0.86406 0.14411 0.0
H191 H 0.49558 0.91314 0.09801 0.0
H192 H 0.50348 0.91381 0.00616 0.0
H193 H 0.51133 0.86534 0.9601 0.0
C194 C 0.52052 0.80658 0.946 0.0
C195 C 0.51351 0.80594 6e-05 0.0
C196 C 0.50807 0.83447 0.02586 0.0
C197 C 0.5027 0.834 0.07834 0.0
C198 C 0.4986 0.8629 0.10389 0.0
C199 C 0.49889 0.89131 0.07792 0.0
C200 C 0.5034 0.89169 0.02625 0.0
C201 C 0.50797 0.86369 0.00031 0.0
H202 H 0.22589 0.51822 0.44432 0.0
C203 C 0.2205 0.49326 0.44553 0.0
H204 H 0.21011 0.45291 0.40229 0.0
H205 H 0.17574 0.57592 0.25623 0.0
H206 H 0.13368 0.58633 0.31597 0.0
H207 H 0.12818 0.5541 0.39253 0.0
H208 H 0.16485 0.51166 0.41005 0.0
C209 C 0.21588 0.47776 0.40235 0.0
C210 C 0.21688 0.49489 0.35373 0.0
C211 C 0.19454 0.51916 0.34354 0.0
C212 C 0.19696 0.537 0.29861 0.0
C213 C 0.17474 0.5614 0.28956 0.0
C214 C 0.15047 0.56763 0.32352 0.0
C215 C 0.14744 0.54955 0.36668 0.0
C216 C 0.16897 0.52546 0.37659 0.0
H217 H 0.2046 0.50182 0.17907 0.0
C218 C 0.20947 0.52664 0.17331 0.0
H219 H 0.22329 0.56911 0.20831 0.0
H220 H 0.26193 0.44856 0.36019 0.0
H221 H 0.30227 0.43672 0.29784 0.0
H222 H 0.30696 0.46837 0.22078 0.0
H223 H 0.27069 0.51155 0.20441 0.0
C224 C 0.2191 0.54407 0.21235 0.0
C225 C 0.22061 0.52952 0.26295 0.0
C226 C 0.24282 0.50525 0.27299 0.0
C227 C 0.24068 0.48759 0.31816 0.0
C228 C 0.26262 0.4629 0.32661 0.0
C229 C 0.28597 0.45592 0.29134 0.0
C230 C 0.28851 0.47365 0.24772 0.0
C231 C 0.26739 0.49818 0.23859 0.0
H232 H 0.33807 0.23765 0.35281 0.0
C233 C 0.36228 0.24647 0.35255 0.0
H234 H 0.39336 0.28165 0.37807 0.0
H235 H 0.2956 0.39016 0.42097 0.0
H236 H 0.33223 0.41406 0.36268 0.0
H237 H 0.37296 0.38245 0.3198 0.0
H238 H 0.37842 0.32694 0.33702 0.0
C239 C 0.36901 0.2732 0.37754 0.0
C240 C 0.34399 0.2923 0.40431 0.0
C241 C 0.34044 0.32477 0.39307 0.0
C242 C 0.31645 0.34306 0.41729 0.0
C243 C 0.3136 0.37525 0.40471 0.0
C244 C 0.33422 0.38925 0.37063 0.0
C245 C 0.35729 0.37148 0.34675 0.0
C246 C 0.36026 0.33959 0.35728 0.0
H247 H 0.29852 0.37627 0.51988 0.0
C248 C 0.27419 0.37055 0.50965 0.0
H249 H 0.24478 0.34104 0.46611 0.0
H250 H 0.34893 0.2334 0.44576 0.0
H251 H 0.31394 0.21014 0.50722 0.0
H252 H 0.26979 0.24053 0.54358 0.0
H253 H 0.26088 0.29471 0.51942 0.0
C254 C 0.26898 0.34744 0.47601 0.0
C255 C 0.29564 0.32897 0.45267 0.0
C256 C 0.29972 0.29679 0.46496 0.0
C257 C 0.32439 0.27874 0.44208 0.0
C258 C 0.32944 0.2476 0.45906 0.0
C259 C 0.30977 0.23405 0.49502 0.0
C260 C 0.28498 0.25119 0.51561 0.0
C261 C 0.28004 0.28224 0.5012 0.0
H262 H 0.73373 0.35862 0.56418 0.0
C263 C 0.7575 0.35697 0.58005 0.0
H264 H 0.78659 0.33609 0.63518 0.0
H265 H 0.63525 0.3054 0.70298 0.0
H266 H 0.62668 0.36155 0.70203 0.0
H267 H 0.66965 0.39774 0.67767 0.0
H268 H 0.72086 0.37786 0.6517 0.0
C269 C 0.76287 0.33728 0.619 0.0
C270 C 0.73777 0.316 0.64086 0.0
C271 C 0.70883 0.32813 0.66045 0.0
C272 C 0.68507 0.30737 0.67972 0.0
C273 C 0.65507 0.32006 0.6925 0.0
C274 C 0.64965 0.3523 0.69141 0.0
C275 C 0.67375 0.37265 0.67732 0.0
C276 C 0.70299 0.36086 0.66193 0.0
H277 H 0.65849 0.27757 0.77433 0.0
C278 C 0.65395 0.25628 0.75311 0.0
H279 H 0.66224 0.23103 0.68686 0.0
H280 H 0.78951 0.28419 0.6055 0.0
H281 H 0.80016 0.22862 0.61389 0.0
H282 H 0.7622 0.19372 0.65668 0.0
H283 H 0.71314 0.214 0.69051 0.0
C284 C 0.66762 0.25231 0.70766 0.0
C285 C 0.69153 0.27471 0.68513 0.0
C286 C 0.72099 0.26279 0.66718 0.0
C287 C 0.74361 0.28321 0.64414 0.0
C288 C 0.77193 0.27009 0.62459 0.0
C289 C 0.77834 0.23815 0.62896 0.0
C290 C 0.75693 0.21849 0.65291 0.0
C291 C 0.72866 0.2305 0.67193 0.0
H292 H 0.73312 0.65306 0.02872 0.0
C293 C 0.75795 0.65831 0.02154 0.0
H294 H 0.78992 0.68599 0.97949 0.0
H295 H 0.68321 0.70513 0.80947 0.0
H296 H 0.70674 0.65708 0.77811 0.0
H297 H 0.74579 0.62758 0.82893 0.0
H298 H 0.7616 0.64595 0.91153 0.0
C299 C 0.76525 0.6813 0.98866 0.0
C300 C 0.74022 0.69854 0.95929 0.0
C301 C 0.73108 0.68763 0.91101 0.0
C302 C 0.70829 0.70459 0.88179 0.0
C303 C 0.70001 0.69306 0.83358 0.0
C304 C 0.71343 0.66555 0.815 0.0
C305 C 0.73544 0.64895 0.84359 0.0
C306 C 0.74431 0.65978 0.89096 0.0
H307 H 0.69362 0.79182 0.86138 0.0
C308 C 0.67217 0.77867 0.85289 0.0
H309 H 0.64773 0.73588 0.86184 0.0
H310 H 0.7528 0.72631 0.04937 0.0
H311 H 0.7279 0.77327 0.08268 0.0
H312 H 0.68662 0.80132 0.03424 0.0
H313 H 0.67028 0.78302 0.95205 0.0
C314 C 0.66912 0.74909 0.87054 0.0
C315 C 0.69447 0.73262 0.90068 0.0
C316 C 0.70324 0.74323 0.94949 0.0
C317 C 0.72642 0.72645 0.97834 0.0
C318 C 0.73513 0.73797 0.02629 0.0
C319 C 0.72101 0.76484 0.04586 0.0
C320 C 0.69781 0.78068 0.01853 0.0
C321 C 0.68882 0.77003 0.97107 0.0
H322 H 0.29493 0.63732 0.11011 0.0
C323 C 0.27054 0.64568 0.11063 0.0
H324 H 0.23904 0.68015 0.13752 0.0
H325 H 0.31634 0.72766 0.32449 0.0
H326 H 0.26969 0.70473 0.363 0.0
H327 H 0.23113 0.67465 0.31242 0.0
H328 H 0.23886 0.66732 0.2231 0.0
C329 C 0.26358 0.6723 0.13584 0.0
C330 C 0.28781 0.69017 0.16627 0.0
C331 C 0.28299 0.69444 0.21873 0.0
C332 C 0.30537 0.71177 0.24816 0.0
C333 C 0.30003 0.71506 0.30037 0.0
C334 C 0.27339 0.70192 0.32301 0.0
C335 C 0.25167 0.685 0.29453 0.0
C336 C 0.25634 0.68112 0.24312 0.0
H337 H 0.3314 0.78306 0.26599 0.0
C338 C 0.35365 0.77094 0.2734 0.0
H339 H 0.38038 0.72976 0.26104 0.0
H340 H 0.30275 0.69092 0.06602 0.0
H341 H 0.34992 0.71306 0.02829 0.0
H342 H 0.38992 0.7404 0.08005 0.0
H343 H 0.3827 0.74622 0.16988 0.0
C344 C 0.35753 0.74133 0.25647 0.0
C345 C 0.3328 0.72478 0.22545 0.0
C346 C 0.33765 0.7206 0.1731 0.0
C347 C 0.31495 0.70388 0.14336 0.0
C348 C 0.31974 0.702 0.0908 0.0
C349 C 0.34661 0.71492 0.0685 0.0
C350 C 0.36911 0.73038 0.09762 0.0
C351 C 0.36472 0.73343 0.14922 0.0
H352 H 0.46918 0.93158 0.35892 0.0
C353 C 0.45021 0.9177 0.34222 0.0
H354 H 0.40925 0.91919 0.29636 0.0
H355 H 0.43947 0.06689 0.37568 0.0
H356 H 0.42478 0.0482 0.45834 0.0
H357 H 0.41093 0.99263 0.47226 0.0
H358 H 0.41223 0.95527 0.40348 0.0
C359 C 0.42716 0.93266 0.31641 0.0
C360 C 0.42956 0.96722 0.30657 0.0
C361 C 0.4273 0.98914 0.3465 0.0
C362 C 0.43408 0.02151 0.33795 0.0
C363 C 0.43352 0.04234 0.37938 0.0
C364 C 0.42527 0.03187 0.42721 0.0
C365 C 0.41756 1.00057 0.43509 0.0
C366 C 0.41856 0.97935 0.39537 0.0
H367 H 0.40853 0.08651 0.2927 0.0
C368 C 0.43337 0.09018 0.28338 0.0
H369 H 0.47771 0.06849 0.27042 0.0
H370 H 0.43425 0.93203 0.22077 0.0
H371 H 0.44669 0.95103 0.13729 0.0
H372 H 0.45647 0.00729 0.12194 0.0
H373 H 0.45411 0.04492 0.19019 0.0
C374 C 0.45293 0.06518 0.28036 0.0
C375 C 0.44205 0.03218 0.28895 0.0
C376 C 0.44265 0.01049 0.24857 0.0
C377 C 0.43648 0.97805 0.25733 0.0
C378 C 0.4383 0.95694 0.21634 0.0
C379 C 0.44547 0.96752 0.16814 0.0
C380 C 0.45102 0.99919 0.15951 0.0
C381 C 0.44968 0.02052 0.19907 0.0
H382 H 0.92845 0.41187 0.56949 0.0
C383 C 0.92321 0.42758 0.53835 0.0
H384 H 0.941 0.45586 0.48059 0.0
H385 H 0.07108 0.5003 0.56261 0.0
H386 H 0.04299 0.54866 0.54573 0.0
H387 H 0.98609 0.54831 0.52361 0.0
H388 H 0.95719 0.49968 0.5171 0.0
C389 C 0.94713 0.4406 0.51193 0.0
C390 C 0.98132 0.43997 0.52882 0.0
C391 C 0.99767 0.46894 0.53501 0.0
C392 C 0.03014 0.46929 0.55044 0.0
C393 C 0.04614 0.49855 0.55316 0.0
C394 C 0.03036 0.5266 0.54324 0.0
C395 C 0.99838 0.52639 0.53059 0.0
C396 C 0.98211 0.49808 0.5266 0.0
H397 H 0.10158 0.414 0.52964 0.0
C398 C 0.10486 0.42996 0.56103 0.0
H399 H 0.08303 0.45866 0.61494 0.0
H400 H 0.96031 0.38012 0.51124 0.0
H401 H 0.98738 0.3318 0.5336 0.0
H402 H 0.04063 0.33286 0.57256 0.0
H403 H 0.06763 0.38219 0.58769 0.0
C404 C 0.07925 0.44264 0.58373 0.0
C405 C 0.04608 0.44086 0.56274 0.0
C406 C 0.02973 0.4119 0.55716 0.0
C407 C 0.99787 0.4114 0.5382 0.0
C408 C 0.98347 0.38201 0.52861 0.0
C409 C 0.99891 0.35406 0.54077 0.0
C410 C 0.02897 0.35465 0.56245 0.0
C411 C 0.04431 0.38315 0.57061 0.0
H412 H 0.55379 0.93314 0.74834 0.0
C413 C 0.57371 0.91985 0.7636 0.0
H414 H 0.6169 0.9227 0.80372 0.0
H415 H 0.57736 0.06871 0.72418 0.0
H416 H 0.58552 0.04904 0.63986 0.0
H417 H 0.59956 0.99357 0.62539 0.0
H418 H 0.60496 0.95727 0.69532 0.0
C419 C 0.59765 0.93559 0.78583 0.0
C420 C 0.59519 0.97028 0.79457 0.0
C421 C 0.59365 0.99164 0.75362 0.0
C422 C 0.58685 0.02401 0.76219 0.0
C423 C 0.5835 0.04421 0.7202 0.0
C424 C 0.58799 0.03319 0.67147 0.0
C425 C 0.5958 1.00193 0.66331 0.0
C426 C 0.59863 0.9813 0.70374 0.0
H427 H 0.61427 0.09038 0.79958 0.0
C428 C 0.59039 0.09355 0.8141 0.0
H429 H 0.54818 0.07104 0.83696 0.0
H430 H 0.59857 0.93644 0.88222 0.0
H431 H 0.5932 0.95664 0.96674 0.0
H432 H 0.58367 0.01298 0.98164 0.0
H433 H 0.57922 0.04946 0.9119 0.0
C434 C 0.57187 0.06818 0.82153 0.0
C435 C 0.58282 0.03529 0.81198 0.0
C436 C 0.58622 0.01426 0.85304 0.0
C437 C 0.5923 0.9818 0.84441 0.0
C438 C 0.59447 0.96135 0.88635 0.0
C439 C 0.59137 0.97263 0.9352 0.0
C440 C 0.58595 1.00433 0.94358 0.0
C441 C 0.58336 0.025 0.90318 0.0
H442 H 0.92813 0.60708 0.03719 0.0
C443 C 0.92391 0.59231 0.06981 0.0
H444 H 0.94372 0.56609 0.12883 0.0
H445 H 0.07053 0.52055 0.03706 0.0
H446 H 0.04317 0.47229 0.05654 0.0
H447 H 0.98716 0.47279 0.08315 0.0
H448 H 0.95847 0.52151 0.09148 0.0
C449 C 0.94862 0.58055 0.09608 0.0
C450 C 0.98206 0.58108 0.07685 0.0
C451 C 0.99818 0.55208 0.06987 0.0
C452 C 0.03003 0.55167 0.05207 0.0
C453 C 0.04597 0.52238 0.04841 0.0
C454 C 0.03061 0.49438 0.0598 0.0
C455 C 0.99914 0.49466 0.07495 0.0
C456 C 0.983 0.52301 0.0799 0.0
H457 H 0.10033 0.60688 0.07199 0.0
C458 C 0.10374 0.59084 0.04077 0.0
H459 H 0.08208 0.56231 0.98625 0.0
H460 H 0.96091 0.64097 0.09381 0.0
H461 H 0.98711 0.68922 0.06913 0.0
H462 H 0.03933 0.68803 0.02746 0.0
H463 H 0.06615 0.63863 0.01169 0.0
C464 C 0.07828 0.57845 0.01726 0.0
C465 C 0.04543 0.58009 0.03859 0.0
C466 C 0.0292 0.60907 0.04475 0.0
C467 C 0.99801 0.60963 0.06567 0.0
C468 C 0.98365 0.63904 0.07536 0.0
C469 C 0.99858 0.66695 0.06181 0.0
C470 C 0.02806 0.66629 0.03857 0.0
C471 C 0.0433 0.63777 0.03005 0.0
H472 H 0.59437 0.19434 0.97536 0.0
C473 C 0.57638 0.19592 0.9461 0.0
H474 H 0.52735 0.19737 0.92874 0.0
H475 H 0.47166 0.14053 0.12628 0.0
H476 H 0.46952 0.09471 0.07257 0.0
H477 H 0.49606 0.09453 0.99007 0.0
H478 H 0.52528 0.14012 0.96105 0.0
C479 C 0.54523 0.19666 0.95829 0.0
C480 C 0.53287 0.19562 0.01085 0.0
C481 C 0.51537 0.16905 0.02714 0.0
C482 C 0.49959 0.16934 0.07448 0.0
C483 C 0.48336 0.14197 0.09027 0.0
C484 C 0.48209 0.1154 0.05988 0.0
C485 C 0.49705 0.11529 0.01345 0.0
C486 C 0.5136 0.14167 0.99714 0.0
H487 H 0.43787 0.19528 0.13206 0.0
C488 C 0.45409 0.19666 0.16383 0.0
H489 H 0.50187 0.19895 0.18805 0.0
H490 H 0.56356 0.25093 0.99106 0.0
H491 H 0.56613 0.29656 0.04502 0.0
H492 H 0.53904 0.29705 0.12701 0.0
H493 H 0.50897 0.25196 0.15537 0.0
C494 C 0.48582 0.19675 0.15617 0.0
C495 C 0.5008 0.19649 0.10527 0.0
C496 C 0.5188 0.22286 0.08937 0.0
C497 C 0.53469 0.2225 0.04213 0.0
C498 C 0.55148 0.24963 0.02677 0.0
C499 C 0.55308 0.27609 0.05734 0.0
C500 C 0.53783 0.27637 0.10351 0.0
C501 C 0.52076 0.25022 0.11943 0.0
H502 H 0.85217 0.55272 0.19452 0.0
C503 C 0.82954 0.56501 0.19506 0.0
H504 H 0.78443 0.56757 0.22774 0.0
H505 H 0.77467 0.43375 0.32097 0.0
H506 H 0.73162 0.43449 0.26022 0.0
H507 H 0.72601 0.47816 0.19992 0.0
H508 H 0.76298 0.52155 0.20042 0.0
C509 C 0.80806 0.55736 0.23024 0.0
C510 C 0.81311 0.53012 0.26536 0.0
C511 C 0.79181 0.50421 0.26351 0.0
C512 C 0.79551 0.47848 0.29743 0.0
C513 C 0.7732 0.45365 0.29579 0.0
C514 C 0.74838 0.45374 0.26104 0.0
C515 C 0.74519 0.47836 0.22715 0.0
C516 C 0.76657 0.50327 0.22809 0.0
H517 H 0.8145 0.48803 0.42858 0.0
C518 C 0.81736 0.46306 0.42131 0.0
H519 H 0.82351 0.42913 0.36442 0.0
H520 H 0.85713 0.57637 0.28273 0.0
H521 H 0.90253 0.57334 0.33877 0.0
H522 H 0.9121 0.52614 0.39052 0.0
H523 H 0.87575 0.482 0.38738 0.0
C524 C 0.82162 0.45388 0.37361 0.0
C525 C 0.82086 0.47817 0.33262 0.0
C526 C 0.84338 0.50301 0.3322 0.0
C527 C 0.83893 0.52945 0.29995 0.0
C528 C 0.86027 0.55499 0.30407 0.0
C529 C 0.88631 0.55369 0.33651 0.0
C530 C 0.89162 0.52719 0.36582 0.0
C531 C 0.87046 0.50212 0.36393 0.0
H532 H 0.54369 0.78787 0.67439 0.0
C533 C 0.56462 0.80267 0.67079 0.0
H534 H 0.58727 0.83643 0.62555 0.0
H535 H 0.47384 0.75492 0.49832 0.0
H536 H 0.50708 0.70905 0.51145 0.0
H537 H 0.55781 0.71315 0.55775 0.0
H538 H 0.57507 0.76296 0.59247 0.0
C539 C 0.5683 0.81926 0.62841 0.0
C540 C 0.54232 0.81847 0.58978 0.0
C541 C 0.53361 0.78968 0.56677 0.0
C542 C 0.50545 0.78776 0.53719 0.0
C543 C 0.49593 0.75806 0.51862 0.0
C544 C 0.51463 0.73149 0.52628 0.0
C545 C 0.5431 0.73377 0.55255 0.0
C546 C 0.5526 0.76244 0.57262 0.0
H547 H 0.49397 0.80111 0.4326 0.0
C548 C 0.46934 0.80706 0.44051 0.0
H549 H 0.43766 0.82215 0.49684 0.0
H550 H 0.55146 0.87732 0.62875 0.0
H551 H 0.51965 0.92358 0.61197 0.0
H552 H 0.47325 0.92109 0.5552 0.0
H553 H 0.45798 0.87212 0.51566 0.0
C554 C 0.46157 0.81444 0.4878 0.0
C555 C 0.48734 0.8152 0.52682 0.0
C556 C 0.49632 0.84413 0.54904 0.0
C557 C 0.52362 0.84571 0.58088 0.0
C558 C 0.53137 0.87477 0.60365 0.0
C559 C 0.51328 0.90156 0.59436 0.0
C560 C 0.48714 0.90016 0.56243 0.0
C561 C 0.47865 0.87187 0.53993 0.0
H562 H 0.21225 0.5841 0.88486 0.0
C563 C 0.20913 0.56777 0.91582 0.0
H564 H 0.20179 0.52081 0.93816 0.0
H565 H 0.16024 0.50907 0.69795 0.0
H566 H 0.11973 0.54803 0.71495 0.0
H567 H 0.11745 0.57473 0.79703 0.0
H568 H 0.15584 0.56292 0.86236 0.0
C569 C 0.20444 0.53689 0.90673 0.0
C570 C 0.20606 0.52211 0.85581 0.0
C571 C 0.18309 0.52898 0.81819 0.0
C572 C 0.1841 0.51313 0.77103 0.0
C573 C 0.16084 0.52053 0.7342 0.0
C574 C 0.1373 0.54273 0.74356 0.0
C575 C 0.13603 0.55777 0.78975 0.0
C576 C 0.15843 0.55092 0.82686 0.0
H577 H 0.20163 0.42888 0.72774 0.0
C578 C 0.20654 0.44592 0.6984 0.0
H579 H 0.21491 0.49341 0.68004 0.0
H580 H 0.25339 0.50266 0.91972 0.0
H581 H 0.29345 0.46331 0.90304 0.0
H582 H 0.29558 0.43646 0.82111 0.0
H583 H 0.25751 0.44856 0.75565 0.0
C584 C 0.21055 0.47657 0.70995 0.0
C585 C 0.20768 0.49 0.76163 0.0
C586 C 0.23042 0.48284 0.7995 0.0
C587 C 0.22944 0.49871 0.84663 0.0
C588 C 0.25265 0.49118 0.88351 0.0
C589 C 0.27597 0.46874 0.87435 0.0
C590 C 0.27716 0.45362 0.82824 0.0
C591 C 0.25492 0.46067 0.79102 0.0
loop_
_geom_bond_atom_site_label_1
_geom_bond_atom_site_label_2
_geom_bond_distance
_geom_bond_site_symmetry_2
_ccdc_geom_bond_type
Co0 O1 2.216 . S
Co0 O2 2.091 . S
Co0 O4 2.004 . S
Co0 O10 2.021 . S
Co0 O12 2.137 . S
Co0 O13 2.244 . S
O1 Co0 2.216 . S
O1 C8 1.247 . S
O2 Co0 2.091 . S
O2 C8 1.261 . S
C3 O12 1.247 . S
C3 O13 1.272 . S
O4 Co0 2.004 . S
O4 C9 1.259 . S
Co5 O6 2.061 . S
Co5 O11 2.052 . S
Co5 O13 2.135 . S
O6 Co5 2.061 . S
O6 C9 1.235 . S
C7 O10 1.238 . S
C7 O11 1.241 . S
C8 O1 1.247 . S
C8 O2 1.261 . S
C9 O4 1.259 . S
C9 O6 1.235 . S
O10 Co0 2.021 . S
O10 C7 1.238 . S
O11 Co5 2.052 . S
O11 C7 1.241 . S
O12 Co0 2.137 . S
O12 C3 1.247 . S
O13 Co0 2.244 . S
O13 C3 1.272 . S
O13 Co5 2.135 . S
Co14 O15 2.216 . S
Co14 O16 2.091 . S
Co14 O18 2.004 . S
Co14 O24 2.021 . S
Co14 O26 2.137 . S
Co14 O27 2.244 . S
O15 Co14 2.216 . S
O15 C22 1.247 . S
O16 Co14 2.091 . S
O16 C22 1.261 . S
C17 O26 1.247 . S
C17 O27 1.272 . S
O18 Co14 2.004 . S
O18 C23 1.259 . S
Co19 O20 2.061 . S
Co19 O25 2.052 . S
Co19 O27 2.135 . S
O20 Co19 2.061 . S
O20 C23 1.235 . S
C21 O24 1.238 . S
C21 O25 1.241 . S
C22 O15 1.247 . S
C22 O16 1.261 . S
C23 O18 1.259 . S
C23 O20 1.235 . S
O24 Co14 2.021 . S
O24 C21 1.238 . S
O25 Co19 2.052 . S
O25 C21 1.241 . S
O26 Co14 2.137 . S
O26 C17 1.247 . S
O27 Co14 2.244 . S
O27 C17 1.272 . S
O27 Co19 2.135 . S
Co28 O29 2.216 . S
Co28 O30 2.091 . S
Co28 O32 2.004 . S
Co28 O38 2.021 . S
Co28 O40 2.137 . S
Co28 O41 2.244 . S
O29 Co28 2.216 . S
O29 C36 1.247 . S
O30 Co28 2.091 . S
O30 C36 1.261 . S
C31 O40 1.247 . S
C31 O41 1.272 . S
O32 Co28 2.004 . S
O32 C37 1.259 . S
Co33 O34 2.061 . S
Co33 O39 2.052 . S
Co33 O41 2.135 . S
O34 Co33 2.061 . S
O34 C37 1.235 . S
C35 O38 1.238 . S
C35 O39 1.241 . S
C36 O29 1.247 . S
C36 O30 1.261 . S
C37 O32 1.259 . S
C37 O34 1.235 . S
O38 Co28 2.021 . S
O38 C35 1.238 . S
O39 Co33 2.052 . S
O39 C35 1.241 . S
O40 Co28 2.137 . S
O40 C31 1.247 . S
O41 Co28 2.244 . S
O41 C31 1.272 . S
O41 Co33 2.135 . S
Co42 O43 2.216 . S
Co42 O44 2.091 . S
Co42 O46 2.004 . S
Co42 O52 2.021 . S
Co42 O54 2.137 1_554 S
Co42 O55 2.244 . S
O43 Co42 2.216 . S
O43 C50 1.247 . S
O44 Co42 2.091 . S
O44 C50 1.261 . S
C45 O54 1.247 . S
C45 O55 1.272 1_556 S
O46 Co42 2.004 . S
O46 C51 1.259 . S
Co47 O48 2.061 . S
Co47 O53 2.052 . S
Co47 O55 2.135 . S
O48 Co47 2.061 . S
O48 C51 1.235 . S
C49 O52 1.238 . S
C49 O53 1.241 . S
C50 O43 1.247 . S
C50 O44 1.261 . S
C51 O46 1.259 . S
C51 O48 1.235 . S
O52 Co42 2.021 . S
O52 C49 1.238 . S
O53 Co47 2.052 . S
O53 C49 1.241 . S
O54 Co42 2.137 1_556 S
O54 C45 1.247 . S
O55 Co42 2.244 . S
O55 C45 1.272 1_554 S
O55 Co47 2.135 . S
Co56 O57 2.216 . S
Co56 O58 2.091 . S
Co56 O60 2.004 . S
Co56 O66 2.021 . S
Co56 O68 2.137 . S
Co56 O69 2.244 . S
O57 Co56 2.216 . S
O57 C64 1.247 . S
O58 Co56 2.091 . S
O58 C64 1.261 . S
C59 O68 1.247 . S
C59 O69 1.272 . S
O60 Co56 2.004 . S
O60 C65 1.259 . S
Co61 O62 2.061 . S
Co61 O67 2.052 . S
Co61 O69 2.135 . S
O62 Co61 2.061 . S
O62 C65 1.235 . S
C63 O66 1.238 . S
C63 O67 1.241 . S
C64 O57 1.247 . S
C64 O58 1.261 . S
C65 O60 1.259 . S
C65 O62 1.235 . S
O66 Co56 2.021 . S
O66 C63 1.238 . S
O67 Co61 2.052 . S
O67 C63 1.241 . S
O68 Co56 2.137 . S
O68 C59 1.247 . S
O69 Co56 2.244 . S
O69 C59 1.272 . S
O69 Co61 2.135 . S
Co70 O71 2.216 . S
Co70 O72 2.091 . S
Co70 O74 2.004 . S
Co70 O80 2.021 . S
Co70 O82 2.137 . S
Co70 O83 2.244 . S
O71 Co70 2.216 . S
O71 C78 1.247 . S
O72 Co70 2.091 . S
O72 C78 1.261 . S
C73 O82 1.247 . S
C73 O83 1.272 . S
O74 Co70 2.004 . S
O74 C79 1.259 . S
Co75 O76 2.061 . S
Co75 O81 2.052 . S
Co75 O83 2.135 . S
O76 Co75 2.061 . S
O76 C79 1.235 . S
C77 O80 1.238 . S
C77 O81 1.241 . S
C78 O71 1.247 . S
C78 O72 1.261 . S
C79 O74 1.259 . S
C79 O76 1.235 . S
O80 Co70 2.021 . S
O80 C77 1.238 . S
O81 Co75 2.052 . S
O81 C77 1.241 . S
O82 Co70 2.137 . S
O82 C73 1.247 . S
O83 Co70 2.244 . S
O83 C73 1.272 . S
O83 Co75 2.135 . S
Co84 O85 2.216 . S
Co84 O86 2.091 . S
Co84 O88 2.004 . S
Co84 O94 2.021 . S
Co84 O96 2.137 . S
Co84 O97 2.244 . S
O85 Co84 2.216 . S
O85 C92 1.247 . S
O86 Co84 2.091 . S
O86 C92 1.261 . S
C87 O96 1.247 . S
C87 O97 1.272 . S
O88 Co84 2.004 . S
O88 C93 1.259 . S
Co89 O90 2.061 . S
Co89 O95 2.052 . S
Co89 O97 2.135 . S
O90 Co89 2.061 . S
O90 C93 1.235 . S
C91 O94 1.238 . S
C91 O95 1.241 . S
C92 O85 1.247 . S
C92 O86 1.261 . S
C93 O88 1.259 . S
C93 O90 1.235 . S
O94 Co84 2.021 . S
O94 C91 1.238 . S
O95 Co89 2.052 . S
O95 C91 1.241 . S
O96 Co84 2.137 . S
O96 C87 1.247 . S
O97 Co84 2.244 . S
O97 C87 1.272 . S
O97 Co89 2.135 . S
Co98 O99 2.216 . S
Co98 O100 2.091 . S
Co98 O102 2.004 . S
Co98 O108 2.021 1_554 S
Co98 O110 2.137 . S
Co98 O111 2.244 . S
O99 Co98 2.216 . S
O99 C106 1.247 . S
O100 Co98 2.091 . S
O100 C106 1.261 . S
C101 O110 1.247 . S
C101 O111 1.272 . S
O102 Co98 2.004 . S
O102 C107 1.259 . S
Co103 O104 2.061 . S
Co103 O109 2.052 1_554 S
Co103 O111 2.135 . S
O104 Co103 2.061 . S
O104 C107 1.235 . S
C105 O108 1.238 . S
C105 O109 1.241 . S
C106 O99 1.247 . S
C106 O100 1.261 . S
C107 O102 1.259 . S
C107 O104 1.235 . S
O108 Co98 2.021 1_556 S
O108 C105 1.238 . S
O109 Co103 2.052 1_556 S
O109 C105 1.241 . S
O110 Co98 2.137 . S
O110 C101 1.247 . S
O111 Co98 2.244 . S
O111 C101 1.272 . S
O111 Co103 2.135 . S
H112 C113 0.951 . S
C113 H112 0.951 . S
C113 C119 1.265 . S
H114 C119 0.950 . S
H115 C123 0.949 . S
H116 C124 0.950 . S
H117 C125 0.951 . S
H118 C126 0.951 . S
C119 C113 1.265 . S
C119 H114 0.950 . S
C119 C120 1.478 . S
C120 C119 1.478 . S
C120 C121 1.397 . S
C120 C137 1.394 . S
C121 C120 1.397 . S
C121 C122 1.438 . S
C121 C126 1.429 . S
C122 C121 1.438 . S
C122 C123 1.428 . S
C122 C135 1.394 . S
C123 H115 0.949 . S
C123 C122 1.428 . S
C123 C124 1.345 . S
C124 H116 0.950 . S
C124 C123 1.345 . S
C124 C125 1.424 . S
C125 H117 0.951 . S
C125 C124 1.424 . S
C125 C126 1.347 . S
C126 H118 0.951 . S
C126 C121 1.429 . S
C126 C125 1.347 . S
H127 C128 0.951 . S
C128 H127 0.951 . S
C128 C134 1.265 . S
H129 C134 0.950 . S
H130 C138 0.949 . S
H131 C139 0.950 . S
H132 C140 0.951 . S
H133 C141 0.951 . S
C134 C128 1.265 . S
C134 H129 0.950 . S
C134 C135 1.478 . S
C135 C122 1.394 . S
C135 C134 1.478 . S
C135 C136 1.397 . S
C136 C135 1.397 . S
C136 C137 1.438 . S
C136 C141 1.429 . S
C137 C120 1.394 . S
C137 C136 1.438 . S
C137 C138 1.428 . S
C138 H130 0.949 . S
C138 C137 1.428 . S
C138 C139 1.345 . S
C139 H131 0.950 . S
C139 C138 1.345 . S
C139 C140 1.424 . S
C140 H132 0.951 . S
C140 C139 1.424 . S
C140 C141 1.347 . S
C141 H133 0.951 . S
C141 C136 1.429 . S
C141 C140 1.347 . S
H142 C143 0.951 . S
C143 H142 0.951 . S
C143 C149 1.265 . S
H144 C149 0.950 . S
H145 C153 0.949 . S
H146 C154 0.950 . S
H147 C155 0.951 . S
H148 C156 0.951 . S
C149 C143 1.265 . S
C149 H144 0.950 . S
C149 C150 1.478 . S
C150 C149 1.478 . S
C150 C151 1.397 . S
C150 C167 1.394 . S
C151 C150 1.397 . S
C151 C152 1.438 . S
C151 C156 1.429 . S
C152 C151 1.438 . S
C152 C153 1.428 . S
C152 C165 1.394 . S
C153 H145 0.949 . S
C153 C152 1.428 . S
C153 C154 1.345 . S
C154 H146 0.950 . S
C154 C153 1.345 . S
C154 C155 1.424 . S
C155 H147 0.951 . S
C155 C154 1.424 . S
C155 C156 1.347 . S
C156 H148 0.951 . S
C156 C151 1.429 . S
C156 C155 1.347 . S
H157 C158 0.951 . S
C158 H157 0.951 . S
C158 C164 1.265 . S
H159 C164 0.950 . S
H160 C168 0.949 . S
H161 C169 0.950 . S
H162 C170 0.951 . S
H163 C171 0.951 . S
C164 C158 1.265 . S
C164 H159 0.950 . S
C164 C165 1.478 . S
C165 C152 1.394 . S
C165 C164 1.478 . S
C165 C166 1.397 . S
C166 C165 1.397 . S
C166 C167 1.438 . S
C166 C171 1.429 . S
C167 C150 1.394 . S
C167 C166 1.438 . S
C167 C168 1.428 . S
C168 H160 0.949 . S
C168 C167 1.428 . S
C168 C169 1.345 . S
C169 H161 0.950 . S
C169 C168 1.345 . S
C169 C170 1.424 . S
C170 H162 0.951 . S
C170 C169 1.424 . S
C170 C171 1.347 . S
C171 H163 0.951 . S
C171 C166 1.429 . S
C171 C170 1.347 . S
H172 C173 0.951 . S
C173 H172 0.951 . S
C173 C179 1.265 . S
H174 C179 0.950 . S
H175 C183 0.949 1_556 S
H176 C184 0.950 . S
H177 C185 0.951 . S
H178 C186 0.951 . S
C179 C173 1.265 . S
C179 H174 0.950 . S
C179 C180 1.478 . S
C180 C179 1.478 . S
C180 C181 1.397 . S
C180 C197 1.394 . S
C181 C180 1.397 . S
C181 C182 1.438 . S
C181 C186 1.429 . S
C182 C181 1.438 . S
C182 C183 1.428 . S
C182 C195 1.394 . S
C183 H175 0.949 1_554 S
C183 C182 1.428 . S
C183 C184 1.345 . S
C184 H176 0.950 . S
C184 C183 1.345 . S
C184 C185 1.424 . S
C185 H177 0.951 . S
C185 C184 1.424 . S
C185 C186 1.347 . S
C186 H178 0.951 . S
C186 C181 1.429 . S
C186 C185 1.347 . S
H187 C188 0.951 . S
C188 H187 0.951 . S
C188 C194 1.265 . S
H189 C194 0.950 . S
H190 C198 0.949 . S
H191 C199 0.950 . S
H192 C200 0.951 . S
H193 C201 0.951 1_556 S
C194 C188 1.265 . S
C194 H189 0.950 . S
C194 C195 1.478 1_556 S
C195 C182 1.394 . S
C195 C194 1.478 1_554 S
C195 C196 1.397 . S
C196 C195 1.397 . S
C196 C197 1.438 . S
C196 C201 1.429 . S
C197 C180 1.394 . S
C197 C196 1.438 . S
C197 C198 1.428 . S
C198 H190 0.949 . S
C198 C197 1.428 . S
C198 C199 1.345 . S
C199 H191 0.950 . S
C199 C198 1.345 . S
C199 C200 1.424 . S
C200 H192 0.951 . S
C200 C199 1.424 . S
C200 C201 1.347 . S
C201 H193 0.951 1_554 S
C201 C196 1.429 . S
C201 C200 1.347 . S
H202 C203 0.951 . S
C203 H202 0.951 . S
C203 C209 1.265 . S
H204 C209 0.950 . S
H205 C213 0.949 . S
H206 C214 0.950 . S
H207 C215 0.951 . S
H208 C216 0.951 . S
C209 C203 1.265 . S
C209 H204 0.950 . S
C209 C210 1.478 . S
C210 C209 1.478 . S
C210 C211 1.397 . S
C210 C227 1.394 . S
C211 C210 1.397 . S
C211 C212 1.438 . S
C211 C216 1.429 . S
C212 C211 1.438 . S
C212 C213 1.428 . S
C212 C225 1.394 . S
C213 H205 0.949 . S
C213 C212 1.428 . S
C213 C214 1.345 . S
C214 H206 0.950 . S
C214 C213 1.345 . S
C214 C215 1.424 . S
C215 H207 0.951 . S
C215 C214 1.424 . S
C215 C216 1.347 . S
C216 H208 0.951 . S
C216 C211 1.429 . S
C216 C215 1.347 . S
H217 C218 0.951 . S
C218 H217 0.951 . S
C218 C224 1.265 . S
H219 C224 0.950 . S
H220 C228 0.949 . S
H221 C229 0.950 . S
H222 C230 0.951 . S
H223 C231 0.951 . S
C224 C218 1.265 . S
C224 H219 0.950 . S
C224 C225 1.478 . S
C225 C212 1.394 . S
C225 C224 1.478 . S
C225 C226 1.397 . S
C226 C225 1.397 . S
C226 C227 1.438 . S
C226 C231 1.429 . S
C227 C210 1.394 . S
C227 C226 1.438 . S
C227 C228 1.428 . S
C228 H220 0.949 . S
C228 C227 1.428 . S
C228 C229 1.345 . S
C229 H221 0.950 . S
C229 C228 1.345 . S
C229 C230 1.424 . S
C230 H222 0.951 . S
C230 C229 1.424 . S
C230 C231 1.347 . S
C231 H223 0.951 . S
C231 C226 1.429 . S
C231 C230 1.347 . S
H232 C233 0.951 . S
C233 H232 0.951 . S
C233 C239 1.265 . S
H234 C239 0.950 . S
H235 C243 0.949 . S
H236 C244 0.950 . S
H237 C245 0.951 . S
H238 C246 0.951 . S
C239 C233 1.265 . S
C239 H234 0.950 . S
C239 C240 1.478 . S
C240 C239 1.478 . S
C240 C241 1.397 . S
C240 C257 1.394 . S
C241 C240 1.397 . S
C241 C242 1.438 . S
C241 C246 1.429 . S
C242 C241 1.438 . S
C242 C243 1.428 . S
C242 C255 1.394 . S
C243 H235 0.949 . S
C243 C242 1.428 . S
C243 C244 1.345 . S
C244 H236 0.950 . S
C244 C243 1.345 . S
C244 C245 1.424 . S
C245 H237 0.951 . S
C245 C244 1.424 . S
C245 C246 1.347 . S
C246 H238 0.951 . S
C246 C241 1.429 . S
C246 C245 1.347 . S
H247 C248 0.951 . S
C248 H247 0.951 . S
C248 C254 1.265 . S
H249 C254 0.950 . S
H250 C258 0.949 . S
H251 C259 0.950 . S
H252 C260 0.951 . S
H253 C261 0.951 . S
C254 C248 1.265 . S
C254 H249 0.950 . S
C254 C255 1.478 . S
C255 C242 1.394 . S
C255 C254 1.478 . S
C255 C256 1.397 . S
C256 C255 1.397 . S
C256 C257 1.438 . S
C256 C261 1.429 . S
C257 C240 1.394 . S
C257 C256 1.438 . S
C257 C258 1.428 . S
C258 H250 0.949 . S
C258 C257 1.428 . S
C258 C259 1.345 . S
C259 H251 0.950 . S
C259 C258 1.345 . S
C259 C260 1.424 . S
C260 H252 0.951 . S
C260 C259 1.424 . S
C260 C261 1.347 . S
C261 H253 0.951 . S
C261 C256 1.429 . S
C261 C260 1.347 . S
H262 C263 0.951 . S
C263 H262 0.951 . S
C263 C269 1.265 . S
H264 C269 0.950 . S
H265 C273 0.949 . S
H266 C274 0.950 . S
H267 C275 0.951 . S
H268 C276 0.951 . S
C269 C263 1.265 . S
C269 H264 0.950 . S
C269 C270 1.478 . S
C270 C269 1.478 . S
C270 C271 1.397 . S
C270 C287 1.394 . S
C271 C270 1.397 . S
C271 C272 1.438 . S
C271 C276 1.429 . S
C272 C271 1.438 . S
C272 C273 1.428 . S
C272 C285 1.394 . S
C273 H265 0.949 . S
C273 C272 1.428 . S
C273 C274 1.345 . S
C274 H266 0.950 . S
C274 C273 1.345 . S
C274 C275 1.424 . S
C275 H267 0.951 . S
C275 C274 1.424 . S
C275 C276 1.347 . S
C276 H268 0.951 . S
C276 C271 1.429 . S
C276 C275 1.347 . S
H277 C278 0.951 . S
C278 H277 0.951 . S
C278 C284 1.265 . S
H279 C284 0.950 . S
H280 C288 0.949 . S
H281 C289 0.950 . S
H282 C290 0.951 . S
H283 C291 0.951 . S
C284 C278 1.265 . S
C284 H279 0.950 . S
C284 C285 1.478 . S
C285 C272 1.394 . S
C285 C284 1.478 . S
C285 C286 1.397 . S
C286 C285 1.397 . S
C286 C287 1.438 . S
C286 C291 1.429 . S
C287 C270 1.394 . S
C287 C286 1.438 . S
C287 C288 1.428 . S
C288 H280 0.949 . S
C288 C287 1.428 . S
C288 C289 1.345 . S
C289 H281 0.950 . S
C289 C288 1.345 . S
C289 C290 1.424 . S
C290 H282 0.951 . S
C290 C289 1.424 . S
C290 C291 1.347 . S
C291 H283 0.951 . S
C291 C286 1.429 . S
C291 C290 1.347 . S
H292 C293 0.951 . S
C293 H292 0.951 . S
C293 C299 1.265 1_554 S
H294 C299 0.950 . S
H295 C303 0.949 . S
H296 C304 0.950 . S
H297 C305 0.951 . S
H298 C306 0.951 . S
C299 C293 1.265 1_556 S
C299 H294 0.950 . S
C299 C300 1.478 . S
C300 C299 1.478 . S
C300 C301 1.397 . S
C300 C317 1.394 . S
C301 C300 1.397 . S
C301 C302 1.438 . S
C301 C306 1.429 . S
C302 C301 1.438 . S
C302 C303 1.428 . S
C302 C315 1.394 . S
C303 H295 0.949 . S
C303 C302 1.428 . S
C303 C304 1.345 . S
C304 H296 0.950 . S
C304 C303 1.345 . S
C304 C305 1.424 . S
C305 H297 0.951 . S
C305 C304 1.424 . S
C305 C306 1.347 . S
C306 H298 0.951 . S
C306 C301 1.429 . S
C306 C305 1.347 . S
H307 C308 0.951 . S
C308 H307 0.951 . S
C308 C314 1.265 . S
H309 C314 0.950 . S
H310 C318 0.949 . S
H311 C319 0.950 . S
H312 C320 0.951 . S
H313 C321 0.951 . S
C314 C308 1.265 . S
C314 H309 0.950 . S
C314 C315 1.478 . S
C315 C302 1.394 . S
C315 C314 1.478 . S
C315 C316 1.397 . S
C316 C315 1.397 . S
C316 C317 1.438 . S
C316 C321 1.429 . S
C317 C300 1.394 . S
C317 C316 1.438 . S
C317 C318 1.428 1_556 S
C318 H310 0.949 . S
C318 C317 1.428 1_554 S
C318 C319 1.345 . S
C319 H311 0.950 . S
C319 C318 1.345 . S
C319 C320 1.424 . S
C320 H312 0.951 . S
C320 C319 1.424 . S
C320 C321 1.347 1_554 S
C321 H313 0.951 . S
C321 C316 1.429 . S
C321 C320 1.347 1_556 S
H322 C323 0.951 . S
C323 H322 0.951 . S
C323 C329 1.265 . S
H324 C329 0.950 . S
H325 C333 0.949 . S
H326 C334 0.950 . S
H327 C335 0.951 . S
H328 C336 0.951 . S
C329 C323 1.265 . S
C329 H324 0.950 . S
C329 C330 1.478 . S
C330 C329 1.478 . S
C330 C331 1.397 . S
C330 C347 1.394 . S
C331 C330 1.397 . S
C331 C332 1.438 . S
C331 C336 1.429 . S
C332 C331 1.438 . S
C332 C333 1.428 . S
C332 C345 1.394 . S
C333 H325 0.949 . S
C333 C332 1.428 . S
C333 C334 1.345 . S
C334 H326 0.950 . S
C334 C333 1.345 . S
C334 C335 1.424 . S
C335 H327 0.951 . S
C335 C334 1.424 . S
C335 C336 1.347 . S
C336 H328 0.951 . S
C336 C331 1.429 . S
C336 C335 1.347 . S
H337 C338 0.951 . S
C338 H337 0.951 . S
C338 C344 1.265 . S
H339 C344 0.950 . S
H340 C348 0.949 . S
H341 C349 0.950 . S
H342 C350 0.951 . S
H343 C351 0.951 . S
C344 C338 1.265 . S
C344 H339 0.950 . S
C344 C345 1.478 . S
C345 C332 1.394 . S
C345 C344 1.478 . S
C345 C346 1.397 . S
C346 C345 1.397 . S
C346 C347 1.438 . S
C346 C351 1.429 . S
C347 C330 1.394 . S
C347 C346 1.438 . S
C347 C348 1.428 . S
C348 H340 0.949 . S
C348 C347 1.428 . S
C348 C349 1.345 . S
C349 H341 0.950 . S
C349 C348 1.345 . S
C349 C350 1.424 . S
C350 H342 0.951 . S
C350 C349 1.424 . S
C350 C351 1.347 . S
C351 H343 0.951 . S
C351 C346 1.429 . S
C351 C350 1.347 . S
H352 C353 0.951 . S
C353 H352 0.951 . S
C353 C359 1.265 . S
H354 C359 0.950 . S
H355 C363 0.949 . S
H356 C364 0.950 . S
H357 C365 0.951 . S
H358 C366 0.951 . S
C359 C353 1.265 . S
C359 H354 0.950 . S
C359 C360 1.478 . S
C360 C359 1.478 . S
C360 C361 1.397 . S
C360 C377 1.394 . S
C361 C360 1.397 . S
C361 C362 1.438 1_565 S
C361 C366 1.429 . S
C362 C361 1.438 1_545 S
C362 C363 1.428 . S
C362 C375 1.394 . S
C363 H355 0.949 . S
C363 C362 1.428 . S
C363 C364 1.345 . S
C364 H356 0.950 . S
C364 C363 1.345 . S
C364 C365 1.424 1_545 S
C365 H357 0.951 . S
C365 C364 1.424 1_565 S
C365 C366 1.347 . S
C366 H358 0.951 . S
C366 C361 1.429 . S
C366 C365 1.347 . S
H367 C368 0.951 . S
C368 H367 0.951 . S
C368 C374 1.265 . S
H369 C374 0.950 . S
H370 C378 0.949 . S
H371 C379 0.950 . S
H372 C380 0.951 . S
H373 C381 0.951 . S
C374 C368 1.265 . S
C374 H369 0.950 . S
C374 C375 1.478 . S
C375 C362 1.394 . S
C375 C374 1.478 . S
C375 C376 1.397 . S
C376 C375 1.397 . S
C376 C377 1.438 1_545 S
C376 C381 1.429 . S
C377 C360 1.394 . S
C377 C376 1.438 1_565 S
C377 C378 1.428 . S
C378 H370 0.949 . S
C378 C377 1.428 . S
C378 C379 1.345 . S
C379 H371 0.950 . S
C379 C378 1.345 . S
C379 C380 1.424 1_565 S
C380 H372 0.951 . S
C380 C379 1.424 1_545 S
C380 C381 1.347 . S
C381 H373 0.951 . S
C381 C376 1.429 . S
C381 C380 1.347 . S
H382 C383 0.951 . S
C383 H382 0.951 . S
C383 C389 1.265 . S
H384 C389 0.950 . S
H385 C393 0.949 . S
H386 C394 0.950 . S
H387 C395 0.951 . S
H388 C396 0.951 . S
C389 C383 1.265 . S
C389 H384 0.950 . S
C389 C390 1.478 . S
C390 C389 1.478 . S
C390 C391 1.397 . S
C390 C407 1.394 . S
C391 C390 1.397 . S
C391 C392 1.438 1_655 S
C391 C396 1.429 . S
C392 C391 1.438 1_455 S
C392 C393 1.428 . S
C392 C405 1.394 . S
C393 H385 0.949 . S
C393 C392 1.428 . S
C393 C394 1.345 . S
C394 H386 0.950 . S
C394 C393 1.345 . S
C394 C395 1.424 1_455 S
C395 H387 0.951 . S
C395 C394 1.424 1_655 S
C395 C396 1.347 . S
C396 H388 0.951 . S
C396 C391 1.429 . S
C396 C395 1.347 . S
H397 C398 0.951 . S
C398 H397 0.951 . S
C398 C404 1.265 . S
H399 C404 0.950 . S
H400 C408 0.949 . S
H401 C409 0.950 . S
H402 C410 0.951 . S
H403 C411 0.951 . S
C404 C398 1.265 . S
C404 H399 0.950 . S
C404 C405 1.478 . S
C405 C392 1.394 . S
C405 C404 1.478 . S
C405 C406 1.397 . S
C406 C405 1.397 . S
C406 C407 1.438 1_455 S
C406 C411 1.429 . S
C407 C390 1.394 . S
C407 C406 1.438 1_655 S
C407 C408 1.428 . S
C408 H400 0.949 . S
C408 C407 1.428 . S
C408 C409 1.345 . S
C409 H401 0.950 . S
C409 C408 1.345 . S
C409 C410 1.424 1_655 S
C410 H402 0.951 . S
C410 C409 1.424 1_455 S
C410 C411 1.347 . S
C411 H403 0.951 . S
C411 C406 1.429 . S
C411 C410 1.347 . S
H412 C413 0.951 . S
C413 H412 0.951 . S
C413 C419 1.265 . S
H414 C419 0.950 . S
H415 C423 0.949 . S
H416 C424 0.950 . S
H417 C425 0.951 . S
H418 C426 0.951 . S
C419 C413 1.265 . S
C419 H414 0.950 . S
C419 C420 1.478 . S
C420 C419 1.478 . S
C420 C421 1.397 . S
C420 C437 1.394 . S
C421 C420 1.397 . S
C421 C422 1.438 1_565 S
C421 C426 1.429 . S
C422 C421 1.438 1_545 S
C422 C423 1.428 . S
C422 C435 1.394 . S
C423 H415 0.949 . S
C423 C422 1.428 . S
C423 C424 1.345 . S
C424 H416 0.950 . S
C424 C423 1.345 . S
C424 C425 1.424 1_545 S
C425 H417 0.951 . S
C425 C424 1.424 1_565 S
C425 C426 1.347 . S
C426 H418 0.951 . S
C426 C421 1.429 . S
C426 C425 1.347 . S
H427 C428 0.951 . S
C428 H427 0.951 . S
C428 C434 1.265 . S
H429 C434 0.950 . S
H430 C438 0.949 . S
H431 C439 0.950 . S
H432 C440 0.951 . S
H433 C441 0.951 . S
C434 C428 1.265 . S
C434 H429 0.950 . S
C434 C435 1.478 . S
C435 C422 1.394 . S
C435 C434 1.478 . S
C435 C436 1.397 . S
C436 C435 1.397 . S
C436 C437 1.438 1_545 S
C436 C441 1.429 . S
C437 C420 1.394 . S
C437 C436 1.438 1_565 S
C437 C438 1.428 . S
C438 H430 0.949 . S
C438 C437 1.428 . S
C438 C439 1.345 . S
C439 H431 0.950 . S
C439 C438 1.345 . S
C439 C440 1.424 1_565 S
C440 H432 0.951 . S
C440 C439 1.424 1_545 S
C440 C441 1.347 . S
C441 H433 0.951 . S
C441 C436 1.429 . S
C441 C440 1.347 . S
H442 C443 0.951 . S
C443 H442 0.951 . S
C443 C449 1.265 . S
H444 C449 0.950 . S
H445 C453 0.949 . S
H446 C454 0.950 . S
H447 C455 0.951 . S
H448 C456 0.951 . S
C449 C443 1.265 . S
C449 H444 0.950 . S
C449 C450 1.478 . S
C450 C449 1.478 . S
C450 C451 1.397 . S
C450 C467 1.394 . S
C451 C450 1.397 . S
C451 C452 1.438 1_655 S
C451 C456 1.429 . S
C452 C451 1.438 1_455 S
C452 C453 1.428 . S
C452 C465 1.394 . S
C453 H445 0.949 . S
C453 C452 1.428 . S
C453 C454 1.345 . S
C454 H446 0.950 . S
C454 C453 1.345 . S
C454 C455 1.424 1_455 S
C455 H447 0.951 . S
C455 C454 1.424 1_655 S
C455 C456 1.347 . S
C456 H448 0.951 . S
C456 C451 1.429 . S
C456 C455 1.347 . S
H457 C458 0.951 . S
C458 H457 0.951 . S
C458 C464 1.265 . S
H459 C464 0.950 . S
H460 C468 0.949 . S
H461 C469 0.950 . S
H462 C470 0.951 1_556 S
H463 C471 0.951 . S
C464 C458 1.265 . S
C464 H459 0.950 . S
C464 C465 1.478 . S
C465 C452 1.394 . S
C465 C464 1.478 . S
C465 C466 1.397 . S
C466 C465 1.397 . S
C466 C467 1.438 1_455 S
C466 C471 1.429 . S
C467 C450 1.394 . S
C467 C466 1.438 1_655 S
C467 C468 1.428 . S
C468 H460 0.949 . S
C468 C467 1.428 . S
C468 C469 1.345 . S
C469 H461 0.950 . S
C469 C468 1.345 . S
C469 C470 1.424 1_655 S
C470 H462 0.951 1_554 S
C470 C469 1.424 1_455 S
C470 C471 1.347 . S
C471 H463 0.951 . S
C471 C466 1.429 . S
C471 C470 1.347 . S
H472 C473 0.951 . S
C473 H472 0.951 . S
C473 C479 1.265 . S
H474 C479 0.950 . S
H475 C483 0.949 . S
H476 C484 0.950 . S
H477 C485 0.951 1_556 S
H478 C486 0.951 . S
C479 C473 1.265 . S
C479 H474 0.950 . S
C479 C480 1.478 1_556 S
C480 C479 1.478 1_554 S
C480 C481 1.397 . S
C480 C497 1.394 . S
C481 C480 1.397 . S
C481 C482 1.438 . S
C481 C486 1.429 1_554 S
C482 C481 1.438 . S
C482 C483 1.428 . S
C482 C495 1.394 . S
C483 H475 0.949 . S
C483 C482 1.428 . S
C483 C484 1.345 . S
C484 H476 0.950 . S
C484 C483 1.345 . S
C484 C485 1.424 . S
C485 H477 0.951 1_554 S
C485 C484 1.424 . S
C485 C486 1.347 1_554 S
C486 H478 0.951 . S
C486 C481 1.429 1_556 S
C486 C485 1.347 1_556 S
H487 C488 0.951 . S
C488 H487 0.951 . S
C488 C494 1.265 . S
H489 C494 0.950 . S
H490 C498 0.949 1_556 S
H491 C499 0.950 . S
H492 C500 0.951 . S
H493 C501 0.951 . S
C494 C488 1.265 . S
C494 H489 0.950 . S
C494 C495 1.478 . S
C495 C482 1.394 . S
C495 C494 1.478 . S
C495 C496 1.397 . S
C496 C495 1.397 . S
C496 C497 1.438 . S
C496 C501 1.429 . S
C497 C480 1.394 . S
C497 C496 1.438 . S
C497 C498 1.428 . S
C498 H490 0.949 1_554 S
C498 C497 1.428 . S
C498 C499 1.345 . S
C499 H491 0.950 . S
C499 C498 1.345 . S
C499 C500 1.424 . S
C500 H492 0.951 . S
C500 C499 1.424 . S
C500 C501 1.347 . S
C501 H493 0.951 . S
C501 C496 1.429 . S
C501 C500 1.347 . S
H502 C503 0.951 . S
C503 H502 0.951 . S
C503 C509 1.265 . S
H504 C509 0.950 . S
H505 C513 0.949 . S
H506 C514 0.950 . S
H507 C515 0.951 . S
H508 C516 0.951 . S
C509 C503 1.265 . S
C509 H504 0.950 . S
C509 C510 1.478 . S
C510 C509 1.478 . S
C510 C511 1.397 . S
C510 C527 1.394 . S
C511 C510 1.397 . S
C511 C512 1.438 . S
C511 C516 1.429 . S
C512 C511 1.438 . S
C512 C513 1.428 . S
C512 C525 1.394 . S
C513 H505 0.949 . S
C513 C512 1.428 . S
C513 C514 1.345 . S
C514 H506 0.950 . S
C514 C513 1.345 . S
C514 C515 1.424 . S
C515 H507 0.951 . S
C515 C514 1.424 . S
C515 C516 1.347 . S
C516 H508 0.951 . S
C516 C511 1.429 . S
C516 C515 1.347 . S
H517 C518 0.951 . S
C518 H517 0.951 . S
C518 C524 1.265 . S
H519 C524 0.950 . S
H520 C528 0.949 . S
H521 C529 0.950 . S
H522 C530 0.951 . S
H523 C531 0.951 . S
C524 C518 1.265 . S
C524 H519 0.950 . S
C524 C525 1.478 . S
C525 C512 1.394 . S
C525 C524 1.478 . S
C525 C526 1.397 . S
C526 C525 1.397 . S
C526 C527 1.438 . S
C526 C531 1.429 . S
C527 C510 1.394 . S
C527 C526 1.438 . S
C527 C528 1.428 . S
C528 H520 0.949 . S
C528 C527 1.428 . S
C528 C529 1.345 . S
C529 H521 0.950 . S
C529 C528 1.345 . S
C529 C530 1.424 . S
C530 H522 0.951 . S
C530 C529 1.424 . S
C530 C531 1.347 . S
C531 H523 0.951 . S
C531 C526 1.429 . S
C531 C530 1.347 . S
H532 C533 0.951 . S
C533 H532 0.951 . S
C533 C539 1.265 . S
H534 C539 0.950 . S
H535 C543 0.949 . S
H536 C544 0.950 . S
H537 C545 0.951 . S
H538 C546 0.951 . S
C539 C533 1.265 . S
C539 H534 0.950 . S
C539 C540 1.478 . S
C540 C539 1.478 . S
C540 C541 1.397 . S
C540 C557 1.394 . S
C541 C540 1.397 . S
C541 C542 1.438 . S
C541 C546 1.429 . S
C542 C541 1.438 . S
C542 C543 1.428 . S
C542 C555 1.394 . S
C543 H535 0.949 . S
C543 C542 1.428 . S
C543 C544 1.345 . S
C544 H536 0.950 . S
C544 C543 1.345 . S
C544 C545 1.424 . S
C545 H537 0.951 . S
C545 C544 1.424 . S
C545 C546 1.347 . S
C546 H538 0.951 . S
C546 C541 1.429 . S
C546 C545 1.347 . S
H547 C548 0.951 . S
C548 H547 0.951 . S
C548 C554 1.265 . S
H549 C554 0.950 . S
H550 C558 0.949 . S
H551 C559 0.950 . S
H552 C560 0.951 . S
H553 C561 0.951 . S
C554 C548 1.265 . S
C554 H549 0.950 . S
C554 C555 1.478 . S
C555 C542 1.394 . S
C555 C554 1.478 . S
C555 C556 1.397 . S
C556 C555 1.397 . S
C556 C557 1.438 . S
C556 C561 1.429 . S
C557 C540 1.394 . S
C557 C556 1.438 . S
C557 C558 1.428 . S
C558 H550 0.949 . S
C558 C557 1.428 . S
C558 C559 1.345 . S
C559 H551 0.950 . S
C559 C558 1.345 . S
C559 C560 1.424 . S
C560 H552 0.951 . S
C560 C559 1.424 . S
C560 C561 1.347 . S
C561 H553 0.951 . S
C561 C556 1.429 . S
C561 C560 1.347 . S
H562 C563 0.951 . S
C563 H562 0.951 . S
C563 C569 1.265 . S
H564 C569 0.950 . S
H565 C573 0.949 . S
H566 C574 0.950 . S
H567 C575 0.951 . S
H568 C576 0.951 . S
C569 C563 1.265 . S
C569 H564 0.950 . S
C569 C570 1.478 . S
C570 C569 1.478 . S
C570 C571 1.397 . S
C570 C587 1.394 . S
C571 C570 1.397 . S
C571 C572 1.438 . S
C571 C576 1.429 . S
C572 C571 1.438 . S
C572 C573 1.428 . S
C572 C585 1.394 . S
C573 H565 0.949 . S
C573 C572 1.428 . S
C573 C574 1.345 . S
C574 H566 0.950 . S
C574 C573 1.345 . S
C574 C575 1.424 . S
C575 H567 0.951 . S
C575 C574 1.424 . S
C575 C576 1.347 . S
C576 H568 0.951 . S
C576 C571 1.429 . S
C576 C575 1.347 . S
H577 C578 0.951 . S
C578 H577 0.951 . S
C578 C584 1.265 . S
H579 C584 0.950 . S
H580 C588 0.949 . S
H581 C589 0.950 . S
H582 C590 0.951 . S
H583 C591 0.951 . S
C584 C578 1.265 . S
C584 H579 0.950 . S
C584 C585 1.478 . S
C585 C572 1.394 . S
C585 C584 1.478 . S
C585 C586 1.397 . S
C586 C585 1.397 . S
C586 C587 1.438 . S
C586 C591 1.429 . S
C587 C570 1.394 . S
C587 C586 1.438 . S
C587 C588 1.428 . S
C588 H580 0.949 . S
C588 C587 1.428 . S
C588 C589 1.345 . S
C589 H581 0.950 . S
C589 C588 1.345 . S
C589 C590 1.424 . S
C590 H582 0.951 . S
C590 C589 1.424 . S
C590 C591 1.347 . S
C591 H583 0.951 . S
C591 C586 1.429 . S
C591 C590 1.347 . S
C113 C7 0.607 . S
C128 C91 0.622 . S
C143 C21 0.599 . S
C158 C105 0.707 . S
C173 C63 0.682 . S
C188 C35 0.709 . S
C203 C77 0.696 . S
C218 C49 0.591 . S
C233 C8 1.545 . S
C248 C78 1.553 . S
C263 C22 1.556 . S
C278 C92 1.554 . S
C293 C106 1.555 . S
C308 C36 1.547 . S
C323 C50 1.532 . S
C338 C64 1.518 . S
C353 C65 1.463 . S
C368 C9 1.521 . S
C383 C23 1.496 . S
C398 C79 1.493 . S
C413 C37 1.466 . S
C428 C93 1.519 . S
C443 C107 1.497 . S
C458 C51 1.492 . S
C473 C87 1.516 . S
C488 C3 1.518 . S
C503 C101 1.502 . S
C518 C17 1.530 . S
C533 C31 1.514 . S
C548 C59 1.517 . S
C563 C45 1.532 . S
C578 C73 1.499 . S
