# Generated by pormake.
# Topology lcs, (4)-cn, num edge types: 1
# Building blocks:
#     Node 0, Type 0, BuildingBlock: ICAMEG_clean_sbu_1, # of connection points: 4
#     Node 1, Type 0, BuildingBlock: ICAMEG_clean_sbu_1, # of connection points: 4
#     Node 2, Type 0, BuildingBlock: ICAMEG_clean_sbu_1, # of connection points: 4
#     Node 3, Type 0, BuildingBlock: ICAMEG_clean_sbu_1, # of connection points: 4
#     Node 4, Type 0, BuildingBlock: ICAMEG_clean_sbu_1, # of connection points: 4
#     Node 5, Type 0, BuildingBlock: ICAMEG_clean_sbu_1, # of connection points: 4
#     Node 6, Type 0, BuildingBlock: ICAMEG_clean_sbu_1, # of connection points: 4
#     Node 7, Type 0, BuildingBlock: ICAMEG_clean_sbu_1, # of connection points: 4
#     Node 8, Type 0, BuildingBlock: ICAMEG_clean_sbu_1, # of connection points: 4
#     Node 9, Type 0, BuildingBlock: ICAMEG_clean_sbu_1, # of connection points: 4
#     Node 10, Type 0, BuildingBlock: ICAMEG_clean_sbu_1, # of connection points: 4
#     Node 11, Type 0, BuildingBlock: ICAMEG_clean_sbu_1, # of connection points: 4
#     Node 12, Type 0, BuildingBlock: ICAMEG_clean_sbu_1, # of connection points: 4
#     Node 13, Type 0, BuildingBlock: ICAMEG_clean_sbu_1, # of connection points: 4
#     Node 14, Type 0, BuildingBlock: ICAMEG_clean_sbu_1, # of connection points: 4
#     Node 15, Type 0, BuildingBlock: ICAMEG_clean_sbu_1, # of connection points: 4
#     Node 16, Type 0, BuildingBlock: ICAMEG_clean_sbu_1, # of connection points: 4
#     Node 17, Type 0, BuildingBlock: ICAMEG_clean_sbu_1, # of connection points: 4
#     Node 18, Type 0, BuildingBlock: ICAMEG_clean_sbu_1, # of connection points: 4
#     Node 19, Type 0, BuildingBlock: ICAMEG_clean_sbu_1, # of connection points: 4
#     Node 20, Type 0, BuildingBlock: ICAMEG_clean_sbu_1, # of connection points: 4
#     Node 21, Type 0, BuildingBlock: ICAMEG_clean_sbu_1, # of connection points: 4
#     Node 22, Type 0, BuildingBlock: ICAMEG_clean_sbu_1, # of connection points: 4
#     Node 23, Type 0, BuildingBlock: ICAMEG_clean_sbu_1, # of connection points: 4
#     Edge 24, Type (0, 0), BuildingBlock: AJUNOK_clean_linker_0, # of connection points: 2
#     Edge 25, Type (0, 0), BuildingBlock: AJUNOK_clean_linker_0, # of connection points: 2
#     Edge 26, Type (0, 0), BuildingBlock: AJUNOK_clean_linker_0, # of connection points: 2
#     Edge 27, Type (0, 0), BuildingBlock: AJUNOK_clean_linker_0, # of connection points: 2
#     Edge 28, Type (0, 0), BuildingBlock: AJUNOK_clean_linker_0, # of connection points: 2
#     Edge 29, Type (0, 0), BuildingBlock: AJUNOK_clean_linker_0, # of connection points: 2
#     Edge 30, Type (0, 0), BuildingBlock: AJUNOK_clean_linker_0, # of connection points: 2
#     Edge 31, Type (0, 0), BuildingBlock: AJUNOK_clean_linker_0, # of connection points: 2
#     Edge 32, Type (0, 0), BuildingBlock: AJUNOK_clean_linker_0, # of connection points: 2
#     Edge 33, Type (0, 0), BuildingBlock: AJUNOK_clean_linker_0, # of connection points: 2
#     Edge 34, Type (0, 0), BuildingBlock: AJUNOK_clean_linker_0, # of connection points: 2
#     Edge 35, Type (0, 0), BuildingBlock: AJUNOK_clean_linker_0, # of connection points: 2
#     Edge 36, Type (0, 0), BuildingBlock: AJUNOK_clean_linker_0, # of connection points: 2
#     Edge 37, Type (0, 0), BuildingBlock: AJUNOK_clean_linker_0, # of connection points: 2
#     Edge 38, Type (0, 0), BuildingBlock: AJUNOK_clean_linker_0, # of connection points: 2
#     Edge 39, Type (0, 0), BuildingBlock: AJUNOK_clean_linker_0, # of connection points: 2
#     Edge 40, Type (0, 0), BuildingBlock: AJUNOK_clean_linker_0, # of connection points: 2
#     Edge 41, Type (0, 0), BuildingBlock: AJUNOK_clean_linker_0, # of connection points: 2
#     Edge 42, Type (0, 0), BuildingBlock: AJUNOK_clean_linker_0, # of connection points: 2
#     Edge 43, Type (0, 0), BuildingBlock: AJUNOK_clean_linker_0, # of connection points: 2
#     Edge 44, Type (0, 0), BuildingBlock: AJUNOK_clean_linker_0, # of connection points: 2
#     Edge 45, Type (0, 0), BuildingBlock: AJUNOK_clean_linker_0, # of connection points: 2
#     Edge 46, Type (0, 0), BuildingBlock: AJUNOK_clean_linker_0, # of connection points: 2
#     Edge 47, Type (0, 0), BuildingBlock: AJUNOK_clean_linker_0, # of connection points: 2
#     Edge 48, Type (0, 0), BuildingBlock: AJUNOK_clean_linker_0, # of connection points: 2
#     Edge 49, Type (0, 0), BuildingBlock: AJUNOK_clean_linker_0, # of connection points: 2
#     Edge 50, Type (0, 0), BuildingBlock: AJUNOK_clean_linker_0, # of connection points: 2
#     Edge 51, Type (0, 0), BuildingBlock: AJUNOK_clean_linker_0, # of connection points: 2
#     Edge 52, Type (0, 0), BuildingBlock: AJUNOK_clean_linker_0, # of connection points: 2
#     Edge 53, Type (0, 0), BuildingBlock: AJUNOK_clean_linker_0, # of connection points: 2
#     Edge 54, Type (0, 0), BuildingBlock: AJUNOK_clean_linker_0, # of connection points: 2
#     Edge 55, Type (0, 0), BuildingBlock: AJUNOK_clean_linker_0, # of connection points: 2
#     Edge 56, Type (0, 0), BuildingBlock: AJUNOK_clean_linker_0, # of connection points: 2
#     Edge 57, Type (0, 0), BuildingBlock: AJUNOK_clean_linker_0, # of connection points: 2
#     Edge 58, Type (0, 0), BuildingBlock: AJUNOK_clean_linker_0, # of connection points: 2
#     Edge 59, Type (0, 0), BuildingBlock: AJUNOK_clean_linker_0, # of connection points: 2
#     Edge 60, Type (0, 0), BuildingBlock: AJUNOK_clean_linker_0, # of connection points: 2
#     Edge 61, Type (0, 0), BuildingBlock: AJUNOK_clean_linker_0, # of connection points: 2
#     Edge 62, Type (0, 0), BuildingBlock: AJUNOK_clean_linker_0, # of connection points: 2
#     Edge 63, Type (0, 0), BuildingBlock: AJUNOK_clean_linker_0, # of connection points: 2
#     Edge 64, Type (0, 0), BuildingBlock: AJUNOK_clean_linker_0, # of connection points: 2
#     Edge 65, Type (0, 0), BuildingBlock: AJUNOK_clean_linker_0, # of connection points: 2
#     Edge 66, Type (0, 0), BuildingBlock: AJUNOK_clean_linker_0, # of connection points: 2
#     Edge 67, Type (0, 0), BuildingBlock: AJUNOK_clean_linker_0, # of connection points: 2
#     Edge 68, Type (0, 0), BuildingBlock: AJUNOK_clean_linker_0, # of connection points: 2
#     Edge 69, Type (0, 0), BuildingBlock: AJUNOK_clean_linker_0, # of connection points: 2
#     Edge 70, Type (0, 0), BuildingBlock: AJUNOK_clean_linker_0, # of connection points: 2
#     Edge 71, Type (0, 0), BuildingBlock: AJUNOK_clean_linker_0, # of connection points: 2
# Relax obj value: 0.041
# Max RMSD: 0.109
# Mean RMSD: 0.106
data_MOF--net-lcs--node1-ICAMEG_clean_sbu_1--edge1-AJUNOK_clean_linker_0
_symmetry_space_group_name_H-M    P1
_symmetry_Int_Tables_number       1
_symmetry_cell_setting            triclinic
loop_
_symmetry_equiv_pos_as_xyz
'x, y, z'
_cell_length_a     38.955233
_cell_length_b     38.999775
_cell_length_c     38.954829
_cell_angle_alpha  93.825603
_cell_angle_beta   93.779194
_cell_angle_gamma 93.858637
loop_
_atom_site_label
_atom_site_type_symbol
_atom_site_fract_x
_atom_site_fract_y
_atom_site_fract_z
_atom_type_partial_charge
Co0 Co 1.00708 0.24115 0.43565 0.0
Co1 Co 0.04784 0.26034 0.36397 0.0
O2 O 0.02175 0.27481 0.40316 0.0
C3 C 0.94577 0.28274 0.42496 0.0
O4 O 0.94967 0.2809 0.39171 0.0
C5 C 0.07168 0.33591 0.38281 0.0
O6 O 0.05409 0.33616 0.41037 0.0
O7 O 0.08399 0.24432 0.39751 0.0
O8 O 0.04838 0.21375 0.4285 0.0
H9 H 0.11585 0.17672 0.29794 0.0
H10 H 1.01305 0.31531 0.45924 0.0
O11 O 0.96583 0.26758 0.44513 0.0
H12 H 0.09212 0.26067 0.53953 0.0
H13 H 0.95738 0.20378 0.54453 0.0
H14 H 1.0026 0.16488 0.43437 0.0
H15 H 0.05753 0.22577 0.49289 0.0
H16 H 0.97751 0.24597 0.50452 0.0
O17 O 0.07396 0.30766 0.36468 0.0
H18 H 0.08185 0.19677 0.34559 0.0
H19 H 0.07189 0.29247 0.30116 0.0
H20 H 0.98314 0.12184 0.47379 0.0
H21 H 0.04687 0.35115 0.50583 0.0
H22 H 0.96031 0.14122 0.52935 0.0
H23 H 0.08687 0.32385 0.5463 0.0
O24 O 0.98052 0.21316 0.39687 0.0
H25 H 0.96021 0.34119 0.32364 0.0
H26 H 1.0127 0.23218 0.29641 0.0
H27 H 0.96702 0.25044 0.25653 0.0
H28 H 0.94053 0.30552 0.26986 0.0
H29 H 1.00522 0.3215 0.36313 0.0
H30 H 0.10615 0.27361 0.25328 0.0
H31 H 0.12818 0.21526 0.25132 0.0
O32 O 0.02174 0.21296 0.3595 0.0
C33 C 0.0786 0.222 0.41957 0.0
C34 C 0.10633 0.20217 0.29846 0.0
C35 C 0.10091 0.25657 0.27342 0.0
N36 N 0.07464 0.24562 0.32605 0.0
C37 C 0.087 0.21364 0.32534 0.0
C38 C 0.08164 0.26715 0.3007 0.0
C39 C 0.11325 0.22382 0.27232 0.0
C40 C 0.03032 0.30323 0.4768 0.0
N41 N 0.03349 0.26854 0.47311 0.0
C42 C 0.04943 0.32366 0.50312 0.0
C43 C 0.07188 0.30833 0.5258 0.0
C44 C 0.07486 0.27289 0.52201 0.0
C45 C 0.05531 0.25329 0.49541 0.0
C46 C 0.96735 0.19502 0.52044 0.0
C47 C 0.99293 0.17354 0.45858 0.0
C48 C 0.97871 0.21879 0.49763 0.0
N49 N 0.99153 0.20792 0.46725 0.0
C50 C 0.98184 0.14903 0.48076 0.0
C51 C 0.96901 0.15992 0.51191 0.0
C52 C 0.9929 0.2008 0.36951 0.0
C53 C 0.97175 0.31728 0.31736 0.0
C54 C 1.0013 0.256 0.30262 0.0
C55 C 0.97546 0.26632 0.2798 0.0
C56 C 0.96064 0.29722 0.28727 0.0
N57 N 1.01233 0.27586 0.33205 0.0
C58 C 0.99766 0.3061 0.33956 0.0
Co59 Co 0.02198 0.78692 0.59414 0.0
Co60 Co 0.04479 0.75227 0.67027 0.0
O61 O 1.01007 0.76296 0.63473 0.0
C62 C 0.97141 0.84177 0.59607 0.0
O63 O 0.9979 0.86422 0.59493 0.0
C64 C 0.98889 0.69283 0.66449 0.0
O65 O 0.97176 0.70678 0.63963 0.0
O66 O 0.07042 0.72801 0.63422 0.0
O67 O 0.06738 0.76381 0.59157 0.0
H68 H 0.16612 0.74208 0.71866 0.0
H69 H 0.95306 0.74878 0.59099 0.0
O70 O 0.97648 0.80965 0.59613 0.0
H71 H 1.01309 0.69505 0.49604 0.0
H72 H 0.99665 0.8343 0.47866 0.0
H73 H 0.08514 0.82404 0.57323 0.0
H74 H 0.04157 0.7437 0.53323 0.0
H75 H 0.98258 0.8028 0.52938 0.0
O76 O 0.01774 0.70697 0.67793 0.0
H77 H 0.12117 0.75678 0.67563 0.0
H78 H 0.04293 0.72248 0.73891 0.0
H79 H 0.10039 0.85567 0.52294 0.0
H80 H 0.92345 0.7005 0.55408 0.0
H81 H 0.05595 0.86095 0.47521 0.0
H82 H 0.95354 0.67316 0.50628 0.0
O83 O 0.04538 0.82558 0.62483 0.0
H84 H 0.93936 0.78732 0.72863 0.0
H85 H 0.06604 0.80279 0.72977 0.0
H86 H 0.03584 0.83512 0.77353 0.0
H87 H 0.97203 0.82733 0.77335 0.0
H88 H 0.97043 0.75603 0.68507 0.0
H89 H 0.08703 0.70709 0.7825 0.0
H90 H 0.14914 0.71704 0.77257 0.0
O91 O 0.07286 0.79715 0.66518 0.0
C92 C 0.08081 0.73875 0.6061 0.0
C93 C 0.13915 0.73774 0.72336 0.0
C94 C 0.09476 0.71807 0.75916 0.0
N95 N 0.07949 0.74086 0.70491 0.0
C96 C 0.11359 0.74612 0.69913 0.0
C97 C 0.0699 0.72676 0.73435 0.0
C98 C 0.1296 0.72366 0.75358 0.0
C99 C 0.96631 0.73717 0.57017 0.0
N100 N 0.99915 0.74892 0.56455 0.0
C101 C 0.94942 0.70976 0.54939 0.0
C102 C 0.96633 0.69441 0.5226 0.0
C103 C 0.99975 0.70664 0.51688 0.0
C104 C 0.01584 0.73408 0.5382 0.0
C105 C 0.01625 0.83213 0.49926 0.0
C106 C 0.06572 0.82615 0.5525 0.0
C107 C 1.00844 0.81434 0.52803 0.0
N108 N 0.03308 0.81148 0.55414 0.0
C109 C 0.07448 0.84412 0.52412 0.0
C110 C 0.04953 0.84708 0.49735 0.0
C111 C 0.06748 0.82486 0.65038 0.0
C112 C 0.96721 0.79065 0.72922 0.0
C113 C 0.03828 0.79906 0.72949 0.0
C114 C 0.02132 0.81752 0.75438 0.0
C115 C 0.98553 0.81316 0.75425 0.0
N116 N 0.02021 0.77661 0.70524 0.0
C117 C 0.98505 0.77266 0.7047 0.0
Co118 Co 0.50384 0.73668 0.93412 0.0
Co119 Co 0.54413 0.75613 0.86227 0.0
O120 O 0.518 0.77044 0.90146 0.0
C121 C 0.44237 0.77805 0.92374 0.0
O122 O 0.44632 0.77655 0.8905 0.0
C123 C 0.56838 0.83166 0.88122 0.0
O124 O 0.54916 0.83284 0.90762 0.0
O125 O 0.58028 0.74063 0.89579 0.0
O126 O 0.5453 0.70949 0.92678 0.0
H127 H 0.61327 0.67324 0.79669 0.0
H128 H 0.50976 0.81092 0.95732 0.0
O129 O 0.46248 0.76283 0.9438 0.0
H130 H 0.58951 0.75694 0.03747 0.0
H131 H 0.45452 0.69918 0.04311 0.0
H132 H 0.50042 0.66042 0.93321 0.0
H133 H 0.55444 0.72168 0.99143 0.0
H134 H 0.47436 0.7414 1.003 0.0
O135 O 0.57031 0.80327 0.86326 0.0
H136 H 0.57855 0.69281 0.84399 0.0
H137 H 0.56823 0.7885 0.79966 0.0
H138 H 0.48112 0.61735 0.9727 0.0
H139 H 0.54403 0.84713 1.00334 0.0
H140 H 0.45798 0.63666 0.02812 0.0
H141 H 0.5844 0.82016 0.04371 0.0
O142 O 0.47722 0.70856 0.89545 0.0
H143 H 0.45641 0.83662 0.82136 0.0
H144 H 0.50908 0.72753 0.79489 0.0
H145 H 0.46346 0.74556 0.75477 0.0
H146 H 0.43688 0.80066 0.76773 0.0
H147 H 0.50145 0.81722 0.86103 0.0
H148 H 0.60325 0.77018 0.75221 0.0
H149 H 0.62583 0.71207 0.75037 0.0
O150 O 0.51819 0.7087 0.8578 0.0
C151 C 0.57544 0.71881 0.91838 0.0
C152 C 0.60349 0.69858 0.79714 0.0
C153 C 0.59789 0.753 0.77219 0.0
N154 N 0.57109 0.74159 0.82443 0.0
C155 C 0.58374 0.70975 0.8238 0.0
C156 C 0.57817 0.76327 0.79922 0.0
C157 C 0.61054 0.72039 0.77117 0.0
C158 C 0.52718 0.79898 0.97485 0.0
N159 N 0.53031 0.76428 0.97141 0.0
C160 C 0.54654 0.81962 1.00085 0.0
C161 C 0.5692 0.80448 0.02348 0.0
C162 C 0.57209 0.76902 0.01999 0.0
C163 C 0.55226 0.7492 0.99373 0.0
C164 C 0.4646 0.69045 0.01906 0.0
C165 C 0.49053 0.66905 0.95734 0.0
C166 C 0.47579 0.71423 0.9962 0.0
N167 N 0.48872 0.7034 0.96586 0.0
C168 C 0.47957 0.64453 0.97957 0.0
C169 C 0.46656 0.65537 1.01064 0.0
C170 C 0.48938 0.69651 0.86785 0.0
C171 C 0.468 0.8127 0.81524 0.0
C172 C 0.49767 0.75141 0.80091 0.0
C173 C 0.47184 0.76157 0.77797 0.0
C174 C 0.45697 0.79248 0.78523 0.0
N175 N 0.50863 0.77145 0.83025 0.0
C176 C 0.49391 0.80169 0.83755 0.0
Co177 Co 0.52299 0.28324 0.09592 0.0
Co178 Co 0.54606 0.25241 0.17384 0.0
O179 O 0.51082 0.26042 0.13725 0.0
C180 C 0.45812 0.31614 0.11651 0.0
O181 O 0.46545 0.31047 0.14887 0.0
C182 C 0.5021 0.18554 0.16293 0.0
O183 O 0.50417 0.18708 0.12956 0.0
O184 O 0.57307 0.22668 0.13937 0.0
O185 O 0.56862 0.26087 0.09563 0.0
H186 H 0.6671 0.24837 0.22572 0.0
H187 H 0.45611 0.24242 0.09497 0.0
O188 O 0.47786 0.30645 0.09337 0.0
H189 H 0.51706 0.18834 1.00087 0.0
H190 H 0.50026 0.32683 0.97827 0.0
H191 H 0.58603 0.32167 0.07636 0.0
H192 H 0.5438 0.23932 0.03593 0.0
H193 H 0.48542 0.29591 0.02908 0.0
O194 O 0.51874 0.20847 0.18363 0.0
H195 H 0.62241 0.25946 0.18076 0.0
H196 H 0.54376 0.22609 0.24402 0.0
H197 H 0.60208 0.35265 0.02593 0.0
H198 H 0.42819 0.19167 0.06028 0.0
H199 H 0.55902 0.35534 0.9764 0.0
H200 H 0.45879 0.16419 0.01292 0.0
O201 O 0.54451 0.3234 0.12561 0.0
H202 H 0.43903 0.28121 0.23195 0.0
H203 H 0.56421 0.3085 0.22946 0.0
H204 H 0.53161 0.34091 0.27118 0.0
H205 H 0.46855 0.32723 0.27275 0.0
H206 H 0.47248 0.25 0.19004 0.0
H207 H 0.58759 0.21437 0.28954 0.0
H208 H 0.64977 0.22566 0.28058 0.0
O209 O 0.57346 0.29729 0.16672 0.0
C210 C 0.5829 0.23668 0.1107 0.0
C211 C 0.64009 0.24343 0.22996 0.0
C212 C 0.59546 0.22431 0.26576 0.0
N213 N 0.58053 0.24363 0.20983 0.0
C214 C 0.61467 0.24974 0.20463 0.0
C215 C 0.57076 0.23091 0.23985 0.0
C216 C 0.63034 0.23066 0.26072 0.0
C217 C 0.46941 0.23082 0.07417 0.0
N218 N 0.5015 0.24388 0.06744 0.0
C219 C 0.45355 0.202 0.05472 0.0
C220 C 0.47076 0.18656 0.02819 0.0
C221 C 0.50346 0.20007 0.02144 0.0
C222 C 0.51854 0.22889 0.04147 0.0
C223 C 0.51931 0.32568 0.9996 0.0
C224 C 0.56725 0.32252 0.05479 0.0
C225 C 0.51107 0.3082 0.02845 0.0
N226 N 0.53503 0.30655 0.05544 0.0
C227 C 0.57645 0.34019 0.02636 0.0
C228 C 0.55227 0.3417 0.99859 0.0
C229 C 0.56666 0.32433 0.15131 0.0
C230 C 0.4665 0.2874 0.23154 0.0
C231 C 0.53673 0.30267 0.2296 0.0
C232 C 0.51842 0.32098 0.25348 0.0
C233 C 0.48307 0.31325 0.25438 0.0
N234 N 0.52028 0.27746 0.20712 0.0
C235 C 0.48563 0.26968 0.20797 0.0
Co236 Co 0.02817 0.73713 0.10729 0.0
Co237 Co 0.99949 0.75999 0.18607 0.0
O238 O 0.02056 0.77193 0.14398 0.0
C239 C 0.09587 0.78057 0.11581 0.0
O240 O 0.09726 0.77652 0.14906 0.0
C241 C 0.95233 0.81588 0.16771 0.0
O242 O 0.93972 0.79654 0.14031 0.0
O243 O 0.95893 0.73654 0.15813 0.0
O244 O 0.9843 0.70885 0.11559 0.0
H245 H 0.93697 0.6812 0.26178 0.0
H246 H 0.02629 0.81089 0.09351 0.0
O247 O 0.0711 0.76544 0.0962 0.0
H248 H 0.93644 0.74978 0.01246 0.0
H249 H 0.06408 0.69669 0.99034 0.0
H250 H 0.0232 0.66084 0.10053 0.0
H251 H 0.97192 0.71765 0.0521 0.0
H252 H 0.0521 0.74008 0.03618 0.0
O253 O 0.97647 0.80545 0.18747 0.0
H254 H 0.96525 0.69644 0.20948 0.0
H255 H 0.98659 0.79951 0.25165 0.0
H256 H 0.03463 0.61658 0.05529 0.0
H257 H 0.99172 0.84398 0.05396 0.0
H258 H 0.05523 0.63443 0.99972 0.0
H259 H 0.94632 0.81341 0.01313 0.0
O260 O 0.05531 0.7108 0.14115 0.0
H261 H 0.09033 0.85659 0.21743 0.0
H262 H 0.04557 0.74114 0.24518 0.0
H263 H 0.09695 0.76937 0.2786 0.0
H264 H 0.11961 0.82755 0.26485 0.0
H265 H 0.03919 0.82728 0.18443 0.0
H266 H 0.9583 0.78548 0.3043 0.0
H267 H 0.93337 0.72591 0.30965 0.0
O268 O 0.02279 0.71483 0.18648 0.0
C269 C 0.95767 0.7148 0.13204 0.0
C270 C 0.94784 0.70722 0.25981 0.0
C271 C 0.95978 0.76575 0.28365 0.0
N272 N 0.97781 0.74873 0.22767 0.0
C273 C 0.96397 0.71596 0.23031 0.0
C274 C 0.9757 0.77356 0.25375 0.0
C275 C 0.9458 0.73233 0.28664 0.0
C276 C 1.0068 0.79736 0.07562 0.0
N277 N 1.00131 0.76234 0.07501 0.0
C278 C 0.98722 0.81625 0.05335 0.0
C279 C 0.96174 0.79909 0.03048 0.0
C280 C 0.95618 0.76339 0.03009 0.0
C281 C 0.97632 0.74534 0.05267 0.0
C282 C 0.05507 0.68859 0.01443 0.0
C283 C 0.03198 0.6688 0.07635 0.0
C284 C 0.04833 0.71304 0.04052 0.0
N285 N 0.03678 0.70298 0.07094 0.0
C286 C 0.03849 0.64362 0.05086 0.0
C287 C 0.05008 0.65366 0.0197 0.0
C288 C 0.04656 0.70092 0.17028 0.0
C289 C 0.08064 0.83128 0.22373 0.0
C290 C 0.05535 0.7664 0.23894 0.0
C291 C 0.0844 0.78229 0.25802 0.0
C292 C 0.09709 0.81495 0.2503 0.0
N293 N 0.03932 0.78263 0.21297 0.0
C294 C 0.05163 0.81461 0.20522 0.0
Co295 Co 0.525 0.73799 0.41959 0.0
Co296 Co 0.54005 0.77832 0.34646 0.0
O297 O 0.50828 0.76376 0.38087 0.0
C298 C 0.45053 0.71081 0.40087 0.0
O299 O 0.4512 0.72469 0.37118 0.0
C300 C 0.49176 0.83567 0.35487 0.0
O301 O 0.483 0.82538 0.38462 0.0
O302 O 0.56928 0.80494 0.38395 0.0
O303 O 0.57234 0.76429 0.42167 0.0
H304 H 0.65736 0.80214 0.30317 0.0
H305 H 0.46176 0.7764 0.42595 0.0
O306 O 0.47796 0.71186 0.42096 0.0
H307 H 0.54088 0.82116 0.52509 0.0
H308 H 0.51746 0.68044 0.53122 0.0
H309 H 0.58961 0.70456 0.43506 0.0
H310 H 0.55791 0.77586 0.48387 0.0
H311 H 0.49622 0.71442 0.48412 0.0
O312 O 0.51396 0.82023 0.33817 0.0
H313 H 0.61611 0.78205 0.34414 0.0
H314 H 0.53227 0.80811 0.27787 0.0
H315 H 0.61201 0.67075 0.48184 0.0
H316 H 0.44341 0.82114 0.46688 0.0
H317 H 0.57582 0.65849 0.53036 0.0
H318 H 0.48315 0.84404 0.51686 0.0
O319 O 0.53932 0.70184 0.38537 0.0
H320 H 0.42738 0.73865 0.28059 0.0
H321 H 0.55297 0.72786 0.28836 0.0
H322 H 0.51634 0.69327 0.24303 0.0
H323 H 0.45304 0.69861 0.23883 0.0
H324 H 0.46489 0.77226 0.32593 0.0
H325 H 0.57265 0.82867 0.2363 0.0
H326 H 0.63569 0.82566 0.24879 0.0
O327 O 0.56775 0.73693 0.35222 0.0
C328 C 0.58311 0.79327 0.41094 0.0
C329 C 0.62995 0.80348 0.29738 0.0
C330 C 0.58241 0.81841 0.25987 0.0
N331 N 0.5718 0.79365 0.31332 0.0
C332 C 0.60645 0.79205 0.32044 0.0
C333 C 0.55967 0.80677 0.28355 0.0
C334 C 0.61777 0.81671 0.26689 0.0
C335 C 0.4791 0.78577 0.44776 0.0
N336 N 0.5109 0.77332 0.45237 0.0
C337 C 0.4686 0.81133 0.47082 0.0
C338 C 0.49092 0.82421 0.49881 0.0
C339 C 0.52332 0.81143 0.50341 0.0
C340 C 0.53291 0.78586 0.47983 0.0
C341 C 0.53349 0.68564 0.51023 0.0
C342 C 0.57379 0.69946 0.45617 0.0
C343 C 0.52155 0.70477 0.48341 0.0
N344 N 0.54175 0.71162 0.45694 0.0
C345 C 0.58657 0.68024 0.48255 0.0
C346 C 0.56624 0.67334 0.50974 0.0
C347 C 0.55986 0.70686 0.36163 0.0
C348 C 0.45493 0.73609 0.28214 0.0
C349 C 0.52542 0.73011 0.287 0.0
C350 C 0.50482 0.71057 0.26111 0.0
C351 C 0.46933 0.7136 0.25875 0.0
N352 N 0.51109 0.75196 0.31004 0.0
C353 C 0.47634 0.75518 0.30772 0.0
Co354 Co 0.53152 0.23499 0.61221 0.0
Co355 Co 0.49585 0.2523 0.68928 0.0
O356 O 0.51989 0.26775 0.64959 0.0
C357 C 0.58987 0.29215 0.62008 0.0
O358 O 0.57524 0.30822 0.64523 0.0
C359 C 0.45974 0.31517 0.66916 0.0
O360 O 0.46423 0.30693 0.63666 0.0
O361 O 0.45755 0.23041 0.65728 0.0
O362 O 0.48682 0.20573 0.6158 0.0
H363 H 0.42895 0.16608 0.75379 0.0
H364 H 0.52737 0.31004 0.59994 0.0
O365 O 0.57651 0.26327 0.60599 0.0
H366 H 0.44883 0.24704 0.50951 0.0
H367 H 0.57765 0.1994 0.49831 0.0
H368 H 0.5279 0.15883 0.60281 0.0
H369 H 0.48095 0.21563 0.55228 0.0
H370 H 0.56172 0.24096 0.54406 0.0
O371 O 0.47084 0.29635 0.69252 0.0
H372 H 0.4608 0.18613 0.70534 0.0
H373 H 0.4779 0.28623 0.7561 0.0
H374 H 0.54317 0.11638 0.55757 0.0
H375 H 0.49669 0.34231 0.55715 0.0
H376 H 0.56822 0.1366 0.50484 0.0
H377 H 0.45679 0.31088 0.5115 0.0
O378 O 0.55658 0.20797 0.64662 0.0
H379 H 0.58076 0.34998 0.73487 0.0
H380 H 0.53899 0.22992 0.74896 0.0
H381 H 0.58714 0.25722 0.7877 0.0
H382 H 0.6083 0.31773 0.78084 0.0
H383 H 0.5329 0.32152 0.69642 0.0
H384 H 0.44591 0.26739 0.80489 0.0
H385 H 0.4213 0.20687 0.804 0.0
O386 O 0.52012 0.20769 0.68859 0.0
C387 C 0.45876 0.20992 0.63054 0.0
C388 C 0.43964 0.19248 0.75453 0.0
C389 C 0.44914 0.24935 0.7832 0.0
N390 N 0.47141 0.23722 0.72801 0.0
C391 C 0.45778 0.20395 0.72722 0.0
C392 C 0.46717 0.25988 0.75546 0.0
C393 C 0.43534 0.21539 0.78268 0.0
C394 C 0.51103 0.29592 0.5798 0.0
N395 N 0.50685 0.26078 0.57843 0.0
C396 C 0.49326 0.31446 0.55576 0.0
C397 C 0.4708 0.29684 0.53024 0.0
C398 C 0.4663 0.26105 0.52913 0.0
C399 C 0.48457 0.2434 0.55356 0.0
C400 C 0.56668 0.19027 0.52114 0.0
C401 C 0.53861 0.16783 0.57986 0.0
C402 C 0.5577 0.21368 0.54717 0.0
N403 N 0.5436 0.20232 0.57595 0.0
C404 C 0.54729 0.14367 0.55437 0.0
C405 C 0.56137 0.15504 0.52481 0.0
C406 C 0.54589 0.19593 0.674 0.0
C407 C 0.5718 0.32359 0.73809 0.0
C408 C 0.54827 0.25612 0.74553 0.0
C409 C 0.57543 0.27151 0.76769 0.0
C410 C 0.58726 0.30547 0.76386 0.0
N411 N 0.53331 0.27403 0.72023 0.0
C412 C 0.54468 0.30736 0.71643 0.0
Co413 Co 0.02458 0.23525 0.91926 0.0
Co414 Co 0.03981 0.27478 0.84601 0.0
O415 O 1.00783 0.26038 0.88021 0.0
C416 C 0.94913 0.20905 0.90286 0.0
O417 O 0.94717 0.22694 0.87556 0.0
C418 C 0.99756 0.33554 0.85708 0.0
O419 O 1.00021 0.33217 0.89042 0.0
O420 O 0.06834 0.30249 0.88344 0.0
O421 O 0.07156 0.26212 0.92148 0.0
H422 H 0.1571 0.30062 0.8034 0.0
H423 H 0.96229 0.27592 0.92313 0.0
O424 O 0.97793 0.20835 0.92054 0.0
H425 H 0.03883 0.3182 0.02495 0.0
H426 H 0.01664 0.17765 0.03083 0.0
H427 H 0.08965 0.20293 0.93562 0.0
H428 H 0.05605 0.27239 0.98444 0.0
H429 H 0.99549 0.21148 0.98359 0.0
O430 O 1.01223 0.31521 0.83673 0.0
H431 H 0.11597 0.28035 0.84441 0.0
H432 H 0.0318 0.3029 0.77668 0.0
H433 H 0.11203 0.1694 0.98265 0.0
H434 H 0.94382 0.32121 0.96323 0.0
H435 H 0.07538 0.15653 0.03067 0.0
H436 H 0.98222 0.34285 0.01462 0.0
O437 O 0.0395 0.19904 0.88539 0.0
H438 H 0.92815 0.23128 0.78063 0.0
H439 H 0.05423 0.22389 0.78872 0.0
H440 H 0.01837 0.18748 0.74414 0.0
H441 H 0.95481 0.19106 0.73983 0.0
H442 H 0.96499 0.26689 0.82519 0.0
H443 H 0.07203 0.32362 0.73504 0.0
H444 H 0.13518 0.32246 0.74825 0.0
O445 O 0.06848 0.23436 0.85296 0.0
C446 C 0.08207 0.29116 0.9107 0.0
C447 C 0.12964 0.30116 0.7973 0.0
C448 C 0.0819 0.31412 0.75896 0.0
N449 N 0.07151 0.29024 0.81289 0.0
C450 C 0.10621 0.28964 0.82039 0.0
C451 C 0.05924 0.30242 0.78269 0.0
C452 C 0.11732 0.31345 0.76638 0.0
C453 C 0.97891 0.28445 0.94568 0.0
N454 N 1.00997 0.27079 0.9516 0.0
C455 C 0.9684 0.31045 0.96822 0.0
C456 C 0.99 0.32266 0.99697 0.0
C457 C 0.02175 0.30886 1.00277 0.0
C458 C 0.03138 0.2829 0.97966 0.0
C459 C 0.03287 0.18313 1.01008 0.0
C460 C 0.07366 0.19762 0.95655 0.0
C461 C 0.02098 0.20216 0.98316 0.0
N462 N 0.04141 0.20933 0.95694 0.0
C463 C 0.08642 0.17854 0.98306 0.0
C464 C 0.06583 0.1713 1.00998 0.0
C465 C 0.06034 0.20419 0.86192 0.0
C466 C 0.95579 0.22941 0.7823 0.0
C467 C 0.02658 0.22538 0.78729 0.0
C468 C 1.00641 0.20481 0.76184 0.0
C469 C 0.97077 0.20685 0.75942 0.0
N470 N 1.01167 0.24721 0.80988 0.0
C471 C 0.97678 0.24953 0.80748 0.0
Co472 Co 0.36233 0.04344 0.25731 0.0
Co473 Co 0.43676 1.00621 0.24329 0.0
O474 O 0.40198 0.01971 0.27491 0.0
C475 C 0.38104 0.07955 0.32864 0.0
O476 O 0.41411 0.08001 0.3239 0.0
C477 C 0.42662 0.94467 0.28469 0.0
O478 O 0.39317 0.94734 0.28203 0.0
O479 O 0.40016 0.97776 0.2141 0.0
O480 O 0.36189 0.0177 0.21008 0.0
H481 H 0.48123 0.98256 0.12651 0.0
H482 H 0.35838 1.00508 0.32022 0.0
O483 O 0.35895 0.06798 0.3043 0.0
H484 H 0.26088 0.955 0.24153 0.0
H485 H 0.24739 0.09495 0.26331 0.0
H486 H 0.34592 0.07656 0.19268 0.0
H487 H 0.29939 1.00262 0.22438 0.0
H488 H 0.29605 0.06334 0.28513 0.0
O489 O 0.44666 0.9658 0.27062 0.0
H490 H 0.43915 1.00107 0.16724 0.0
H491 H 0.50684 0.97979 0.25193 0.0
H492 H 0.29761 0.10802 0.16972 0.0
H493 H 0.32019 0.95783 0.33869 0.0
H494 H 0.24788 0.1174 0.20514 0.0
H495 H 0.2711 0.93233 0.29914 0.0
O496 O 0.39537 0.08115 0.24316 0.0
H497 H 0.49911 0.0509 0.35605 0.0
H498 H 0.4935 0.05819 0.22994 0.0
H499 H 0.53712 0.09507 0.26662 0.0
H500 H 0.5402 0.0915 0.33017 0.0
H501 H 0.45553 0.01481 0.31842 0.0
H502 H 0.54953 0.96068 0.21209 0.0
H503 H 0.5369 0.96214 0.14888 0.0
O504 O 0.42927 0.04666 0.21492 0.0
C505 C 0.37298 0.98878 0.19988 0.0
C506 C 0.48709 0.9819 0.154 0.0
C507 C 0.5254 0.96959 0.20203 0.0
N508 N 0.47062 0.99181 0.21194 0.0
C509 C 0.4634 0.99247 0.1772 0.0
C510 C 0.50108 0.98037 0.22446 0.0
C511 C 0.5183 0.97042 0.16657 0.0
C512 C 0.33692 0.99433 0.30295 0.0
N513 N 0.33125 1.00657 0.27116 0.0
C514 C 0.31544 0.96749 0.31352 0.0
C515 C 0.28794 0.95316 0.29131 0.0
C516 C 0.28222 0.96583 0.25897 0.0
C517 C 0.30425 0.9927 0.2493 0.0
C518 C 0.2689 0.09101 0.24762 0.0
C519 C 0.32431 0.08041 0.20818 0.0
C520 C 0.29661 0.07324 0.25989 0.0
N521 N 0.32377 0.06797 0.24012 0.0
C522 C 0.29706 0.0983 0.19507 0.0
C523 C 0.26918 0.10358 0.21497 0.0
C524 C 0.41891 0.07644 0.22223 0.0
C525 C 0.49808 0.05264 0.3284 0.0
C526 C 0.49452 0.0566 0.25758 0.0
C527 C 0.51937 0.07748 0.27821 0.0
C528 C 0.5211 0.07545 0.31386 0.0
N529 N 0.47196 0.03434 0.27204 0.0
C530 C 0.47354 0.03218 0.30695 0.0
Co531 Co 0.25601 0.17126 0.54419 0.0
Co532 Co 0.2844 0.09242 0.52159 0.0
O533 O 0.26336 0.1344 0.50954 0.0
C534 C 0.18861 0.1617 0.50101 0.0
O535 O 0.18878 0.12847 0.50454 0.0
C536 C 0.32902 0.11247 0.46451 0.0
O537 O 0.33905 0.1413 0.48284 0.0
O538 O 0.32527 0.12041 0.54454 0.0
O539 O 0.30007 0.16312 0.57214 0.0
H540 H 0.34707 0.01696 0.60037 0.0
H541 H 0.25682 0.18488 0.47023 0.0
O542 O 0.21277 0.18201 0.51622 0.0
H543 H 0.34817 0.26522 0.5299 0.0
H544 H 0.22058 0.28833 0.58426 0.0
H545 H 0.2617 0.17858 0.62055 0.0
H546 H 0.31278 0.22612 0.56275 0.0
H547 H 0.23204 0.24219 0.54097 0.0
O548 O 0.30714 0.09088 0.47598 0.0
H549 H 0.31898 0.06926 0.58509 0.0
H550 H 0.29685 0.02673 0.48216 0.0
H551 H 0.25078 0.22412 0.66471 0.0
H552 H 0.29137 0.22385 0.43642 0.0
H553 H 0.23007 0.27948 0.64663 0.0
H554 H 0.33751 0.2643 0.46626 0.0
O555 O 0.22913 0.13766 0.57101 0.0
H556 H 0.1929 0.06082 0.42565 0.0
H557 H 0.23818 0.03369 0.54117 0.0
H558 H 0.18637 1.00052 0.51357 0.0
H559 H 0.16342 0.01399 0.45537 0.0
H560 H 0.24446 0.09359 0.45434 0.0
H561 H 0.32493 0.97408 0.49623 0.0
H562 H 0.35017 0.96891 0.55575 0.0
O563 O 0.26138 0.09223 0.56708 0.0
C564 C 0.32666 0.14667 0.56608 0.0
C565 C 0.33607 0.01886 0.57438 0.0
C566 C 0.32368 0.99481 0.51592 0.0
N567 N 0.30605 0.05089 0.53288 0.0
C568 C 0.32005 0.04836 0.56561 0.0
C569 C 0.30788 0.0247 0.50809 0.0
C570 C 0.33783 0.99192 0.54932 0.0
C571 C 0.27662 0.20264 0.48345 0.0
N572 N 0.28262 0.20331 0.51846 0.0
C573 C 0.29619 0.22456 0.46415 0.0
C574 C 0.3221 0.24723 0.4809 0.0
C575 C 0.32809 0.24775 0.5166 0.0
C576 C 0.308 0.22549 0.53506 0.0
C577 C 0.22965 0.26435 0.59245 0.0
C578 C 0.25287 0.20267 0.6125 0.0
C579 C 0.23611 0.23809 0.56806 0.0
N580 N 0.24773 0.2078 0.57825 0.0
C581 C 0.24665 0.22833 0.63761 0.0
C582 C 0.23499 0.25937 0.62745 0.0
C583 C 0.23773 0.10858 0.58102 0.0
C584 C 0.2027 0.05464 0.45097 0.0
C585 C 0.22829 0.0398 0.51589 0.0
C586 C 0.19899 0.02086 0.50035 0.0
C587 C 0.18614 0.02841 0.46768 0.0
N588 N 0.24439 0.0655 0.49933 0.0
C589 C 0.23197 0.07301 0.46728 0.0
Co590 Co 0.18639 0.99905 0.75769 0.0
Co591 Co 0.10855 0.02807 0.73299 0.0
O592 O 0.14455 0.02095 0.76842 0.0
C593 C 0.18883 0.94675 0.81106 0.0
O594 O 0.19271 0.92375 0.78573 0.0
C595 C 0.11744 0.0955 0.77623 0.0
O596 O 0.15077 0.0963 0.77273 0.0
O597 O 0.14322 0.0543 0.70695 0.0
O598 O 0.18775 0.0208 0.71143 0.0
H599 H 0.05847 0.03233 0.61131 0.0
H600 H 0.18428 0.04167 0.82332 0.0
O601 O 0.18564 0.97814 0.80434 0.0
H602 H 0.28033 0.09513 0.76455 0.0
H603 H 0.30498 0.95944 0.78529 0.0
H604 H 0.20926 0.96095 0.69611 0.0
H605 H 0.24644 0.0434 0.73781 0.0
H606 H 0.25245 0.98856 0.79794 0.0
O607 O 0.09754 0.07135 0.76047 0.0
H608 H 0.10301 0.02172 0.6566 0.0
H609 H 0.03769 0.05286 0.73425 0.0
H610 H 0.26133 0.93157 0.6823 0.0
H611 H 0.21786 0.09305 0.85126 0.0
H612 H 0.30964 0.93069 0.72709 0.0
H613 H 0.26622 0.12021 0.82177 0.0
O614 O 0.15766 0.95806 0.73555 0.0
H615 H 0.05283 0.99405 0.83965 0.0
H616 H 0.05259 0.97259 0.71347 0.0
H617 H 1.01155 0.9385 0.74546 0.0
H618 H 1.01138 0.94926 0.80902 0.0
H619 H 0.09379 0.02718 0.80669 0.0
H620 H 0.99256 0.06406 0.68981 0.0
H621 H 1.00275 0.05361 0.62783 0.0
O622 O 0.11698 0.98384 0.70563 0.0
C623 C 0.17219 0.04489 0.69727 0.0
C624 C 0.05368 0.03687 0.63823 0.0
C625 C 0.01671 0.05473 0.68229 0.0
N626 N 0.07288 0.03642 0.69802 0.0
C627 C 0.07877 0.03083 0.66399 0.0
C628 C 0.04241 0.04844 0.70734 0.0
C629 C 0.02244 0.04885 0.64752 0.0
C630 C 0.20561 0.05302 0.81058 0.0
N631 N 0.21363 0.03926 0.77919 0.0
C632 C 0.22439 0.08225 0.82641 0.0
C633 C 0.25147 0.09752 0.80982 0.0
C634 C 0.25939 0.08347 0.77771 0.0
C635 C 0.24003 0.05422 0.76265 0.0
C636 C 0.28413 0.95968 0.76554 0.0
C637 C 0.23024 0.96074 0.71568 0.0
C638 C 0.25434 0.97613 0.77255 0.0
N639 N 0.22791 0.97652 0.74772 0.0
C640 C 0.25963 0.94404 0.70774 0.0
C641 C 0.28672 0.94355 0.73289 0.0
C642 C 0.1324 0.95694 0.71276 0.0
C643 C 0.0526 0.98916 0.81195 0.0
C644 C 0.05284 0.9773 0.74113 0.0
C645 C 0.02946 0.95797 0.7591 0.0
C646 C 0.02937 0.96402 0.79476 0.0
N647 N 0.0755 1.002 0.75814 0.0
C648 C 0.07568 1.00792 0.79313 0.0
Co649 Co 0.27855 0.84649 0.03773 0.0
Co650 Co 0.24022 0.92079 0.02495 0.0
O651 O 0.26502 0.88195 1.00684 0.0
C652 C 0.33534 0.85278 0.98798 0.0
O653 O 0.324 0.88121 0.97684 0.0
C654 C 0.20796 0.90271 0.95242 0.0
O655 O 0.21091 0.86994 0.95675 0.0
O656 O 0.20264 0.88675 0.03726 0.0
O657 O 0.23687 0.85241 0.06511 0.0
H658 H 0.17109 0.98053 0.11215 0.0
H659 H 0.27087 0.82924 0.96187 0.0
O660 O 0.32066 0.83782 1.01182 0.0
H661 H 0.19232 0.7444 1.01133 0.0
H662 H 0.32615 0.73447 0.06799 0.0
H663 H 0.28123 0.84234 0.11354 0.0
H664 H 0.22766 0.78827 0.04907 0.0
H665 H 0.30698 0.77738 0.02855 0.0
O666 O 0.21616 0.92498 0.97766 0.0
H667 H 0.20405 0.9337 0.08845 0.0
H668 H 0.22203 0.98874 1.00023 0.0
H669 H 0.2999 0.80002 0.15386 0.0
H670 H 0.23654 0.78537 0.92327 0.0
H671 H 0.32257 0.74561 0.13114 0.0
H672 H 0.19673 0.74262 0.94792 0.0
O673 O 0.30582 0.88291 0.06813 0.0
H674 H 0.32582 0.96846 0.94613 0.0
H675 H 0.28032 0.98269 0.06087 0.0
H676 H 0.32774 0.0227 0.0459 0.0
H677 H 0.35077 0.01582 0.98806 0.0
H678 H 0.27883 0.92865 0.96248 0.0
H679 H 0.18887 0.03596 0.02264 0.0
H680 H 0.16326 0.03211 0.07912 0.0
O681 O 0.26504 0.92022 0.07255 0.0
C682 C 0.20699 0.86237 0.05721 0.0
C683 C 0.18206 0.98249 0.08748 0.0
C684 C 0.19198 0.01357 0.03722 0.0
N685 N 0.21473 0.95835 0.04284 0.0
C686 C 0.20075 0.95605 0.07393 0.0
C687 C 0.21051 0.98663 0.02451 0.0
C688 C 0.17766 1.01141 0.06893 0.0
C689 C 0.25412 0.81043 0.97292 0.0
N690 N 0.2516 0.81126 1.00777 0.0
C691 C 0.23452 0.78576 0.95087 0.0
C692 C 0.21214 0.76183 0.9647 0.0
C693 C 0.20963 0.76283 1.00026 0.0
C694 C 0.22967 0.78783 0.0215 0.0
C695 C 0.31626 0.75805 0.0782 0.0
C696 C 0.29087 0.81865 0.10342 0.0
C697 C 0.30543 0.78249 0.056 0.0
N698 N 0.29277 0.81228 0.06871 0.0
C699 C 0.30149 0.79481 0.12639 0.0
C700 C 0.31424 0.76431 0.11363 0.0
C701 C 0.29413 0.90949 0.08279 0.0
C702 C 0.31608 0.97169 0.97145 0.0
C703 C 0.29053 0.97913 0.03592 0.0
C704 C 0.31723 1.00206 0.02745 0.0
C705 C 0.33009 0.99823 0.99499 0.0
N706 N 0.27704 0.95299 0.01279 0.0
C707 C 0.28942 0.94923 0.98085 0.0
Co708 Co 0.24256 0.43459 1.00513 0.0
Co709 Co 0.2563 0.36155 0.04587 0.0
O710 O 0.27387 0.40004 0.02019 0.0
C711 C 0.29292 0.42726 0.94902 0.0
O712 O 0.30291 0.39836 0.96027 0.0
C713 C 0.33091 0.37878 0.07363 0.0
O714 O 0.33145 0.40812 0.05906 0.0
O715 O 0.242 0.39599 0.08181 0.0
O716 O 0.21419 0.42899 0.04618 0.0
H717 H 0.1676 0.30051 0.11237 0.0
H718 H 0.31793 0.45443 0.01292 0.0
O719 O 0.26939 0.44289 0.96351 0.0
H720 H 0.26541 0.53806 0.09021 0.0
H721 H 0.21143 0.54492 0.95447 0.0
H722 H 0.16653 0.43722 1.00031 0.0
H723 H 0.22911 0.49296 0.05499 0.0
H724 H 0.25124 0.50318 0.97554 0.0
O725 O 0.30289 0.35956 0.07258 0.0
H726 H 0.19109 0.34694 0.07872 0.0
H727 H 0.28383 0.29668 0.06977 0.0
H728 H 0.12583 0.47836 0.97971 0.0
H729 H 0.35514 0.4995 0.04721 0.0
H730 H 0.14823 0.53268 0.95658 0.0
H731 H 0.32894 0.54165 0.0864 0.0
O732 O 0.21337 0.39718 0.97813 0.0
H733 H 0.33794 0.31363 0.96301 0.0
H734 H 0.22309 0.29747 1.00792 0.0
H735 H 0.23999 0.25614 0.96264 0.0
H736 H 0.29789 0.26396 0.93993 0.0
H737 H 0.31974 0.35462 1.00777 0.0
H738 H 0.26149 0.24991 0.1036 0.0
H739 H 0.20291 0.25155 0.125 0.0
O740 O 0.20931 0.35998 0.01917 0.0
C741 C 0.22172 0.41982 0.07644 0.0
C742 C 0.19313 0.29946 0.10311 0.0
C743 C 0.24585 0.27109 0.09823 0.0
N744 N 0.23869 0.32445 0.07213 0.0
C745 C 0.20653 0.32564 0.08399 0.0
C746 C 0.2584 0.29773 0.07919 0.0
C747 C 0.21297 0.27202 0.11022 0.0
C748 C 0.30625 0.4728 0.0296 0.0
N749 N 0.27135 0.47085 0.03194 0.0
C750 C 0.32749 0.49823 0.04909 0.0
C751 C 0.31278 0.52184 0.0711 0.0
C752 C 0.27716 0.51982 0.07327 0.0
C753 C 0.25674 0.49408 0.05335 0.0
C754 C 0.20136 0.52137 0.96455 0.0
C755 C 0.1765 0.46088 0.99047 0.0
C756 C 0.22377 0.49759 0.97646 0.0
N757 N 0.21124 0.46785 0.98936 0.0
C758 C 0.15332 0.48404 0.97876 0.0
C759 C 0.1659 0.51449 0.96575 0.0
C760 C 0.19907 0.37046 0.98992 0.0
C761 C 0.31267 0.30987 0.97274 0.0
C762 C 0.24818 0.30131 0.99802 0.0
C763 C 0.25769 0.27768 0.97246 0.0
C764 C 0.29017 0.28205 0.95976 0.0
N765 N 0.27036 0.32858 1.01067 0.0
C766 C 0.30225 0.33297 0.9983 0.0
Co767 Co 0.75744 0.1848 0.99746 0.0
Co768 Co 0.73563 0.10831 0.03118 0.0
O769 O 0.77054 0.14454 0.02153 0.0
C770 C 0.82174 0.16386 0.96419 0.0
O771 O 0.81289 0.13146 0.96838 0.0
C772 C 0.78165 0.11966 0.09692 0.0
O773 O 0.78024 0.15303 0.09505 0.0
O774 O 0.70958 0.14345 0.05709 0.0
O775 O 0.71189 0.18498 0.02018 0.0
H776 H 0.61491 0.05748 0.04029 0.0
H777 H 0.82457 0.18802 0.03813 0.0
O778 O 0.80258 0.18736 0.97417 0.0
H779 H 0.76227 0.28233 0.08972 0.0
H780 H 0.77759 0.30135 0.95083 0.0
H781 H 0.69369 0.20225 0.95888 0.0
H782 H 0.73583 0.24548 0.03978 0.0
H783 H 0.79383 0.2515 0.98249 0.0
O784 O 0.76406 0.09901 0.07462 0.0
H785 H 0.65926 0.10204 0.02744 0.0
H786 H 0.73851 0.03841 0.05791 0.0
H787 H 0.67628 0.25166 0.92714 0.0
H788 H 0.85221 0.22453 0.08784 0.0
H789 H 0.71838 0.30172 0.92304 0.0
H790 H 0.82093 0.272 0.11405 0.0
O791 O 0.73609 0.1536 0.95811 0.0
H792 H 0.84158 0.05 0.99943 0.0
H793 H 0.71579 0.05186 0.97625 0.0
H794 H 0.7474 1.00985 0.9431 0.0
H795 H 0.81076 1.00861 0.9547 0.0
H796 H 0.80907 0.09211 0.03147 0.0
H797 H 0.69503 0.99329 0.07139 0.0
H798 H 0.63272 1.00261 0.06242 0.0
O799 O 0.70697 0.11475 0.98692 0.0
C800 C 0.69878 0.17119 0.04579 0.0
C801 C 0.64198 0.05307 0.04422 0.0
C802 C 0.68695 0.01705 0.0617 0.0
N803 N 0.70142 0.07273 0.0416 0.0
C804 C 0.66721 0.07818 0.03692 0.0
C805 C 0.71145 0.04274 0.05408 0.0
C806 C 0.65199 0.0223 0.05665 0.0
C807 C 0.81097 0.20885 0.04918 0.0
N808 N 0.77867 0.21464 0.036 0.0
C809 C 0.82667 0.22935 0.07741 0.0
C810 C 0.80909 0.25594 0.09215 0.0
C811 C 0.77616 0.26172 0.07853 0.0
C812 C 0.76126 0.24067 0.05031 0.0
C813 C 0.75897 0.27976 0.95256 0.0
C814 C 0.71209 0.22401 0.95733 0.0
C815 C 0.76801 0.25145 0.97044 0.0
N816 N 0.74454 0.22421 0.97295 0.0
C817 C 0.70211 0.25188 0.93926 0.0
C818 C 0.72575 0.27995 0.93696 0.0
C819 C 0.71353 0.12842 0.95884 0.0
C820 C 0.81396 0.05023 0.99419 0.0
C821 C 0.74339 0.05179 0.98124 0.0
C822 C 0.76114 0.02777 0.9625 0.0
C823 C 0.79667 0.02706 0.96905 0.0
N824 N 0.76054 0.07457 1.00575 0.0
C825 C 0.79537 0.07391 0.01239 0.0
Co826 Co 0.09301 0.52641 0.28304 0.0
Co827 Co 0.17194 0.54697 0.25334 0.0
O828 O 0.13441 0.51279 0.26116 0.0
C829 C 0.11255 0.46369 0.31968 0.0
O830 O 0.14522 0.47346 0.31796 0.0
C831 C 0.16268 0.50329 0.18578 0.0
O832 O 0.12941 0.50722 0.18448 0.0
O833 O 0.13867 0.57379 0.22621 0.0
O834 O 0.09427 0.57177 0.2599 0.0
H835 H 0.22597 0.66677 0.24688 0.0
H836 H 0.09126 0.45909 0.24306 0.0
O837 O 0.08923 0.4815 0.3067 0.0
H838 H 0.99957 0.52134 0.18666 0.0
H839 H 0.97451 0.50671 0.32569 0.0
H840 H 0.07348 0.59103 0.31842 0.0
H841 H 0.03448 0.54804 0.23782 0.0
H842 H 0.02563 0.4902 0.29614 0.0
O843 O 0.18238 0.51858 0.21035 0.0
H844 H 0.18004 0.62322 0.25832 0.0
H845 H 0.2429 0.54283 0.22915 0.0
H846 H 0.0227 0.60877 0.34791 0.0
H847 H 0.05673 0.43125 0.19211 0.0
H848 H 0.97277 0.56642 0.35172 0.0
H849 H 1.01056 0.46248 0.16352 0.0
O850 O 0.12243 0.54785 0.32353 0.0
H851 H 0.22617 0.43955 0.28686 0.0
H852 H 0.22692 0.56543 0.31006 0.0
H853 H 0.2671 0.53278 0.3443 0.0
H854 H 0.26706 0.46937 0.33265 0.0
H855 H 0.18581 0.4731 0.2538 0.0
H856 H 0.28941 0.5855 0.21716 0.0
H857 H 0.28114 0.64798 0.22614 0.0
O858 O 0.1643 0.57552 0.29726 0.0
C859 C 0.11019 0.58475 0.23546 0.0
C860 C 0.22992 0.63962 0.24296 0.0
C861 C 0.2655 0.59401 0.22623 0.0
N862 N 0.20883 0.58053 0.24461 0.0
C863 C 0.20403 0.61484 0.24947 0.0
C864 C 0.23902 0.56996 0.23298 0.0
C865 C 0.26085 0.62906 0.23129 0.0
C866 C 0.07101 0.4727 0.2309 0.0
N867 N 0.0648 0.50506 0.24347 0.0
C868 C 0.05163 0.45687 0.20201 0.0
C869 C 0.02576 0.47442 0.18595 0.0
C870 C 0.0196 0.50746 0.1989 0.0
C871 C 0.03952 0.52248 0.22783 0.0
C872 C 0.99606 0.52542 0.32412 0.0
C873 C 0.05173 0.57256 0.31975 0.0
C874 C 0.02511 0.51621 0.30747 0.0
N875 N 0.0524 0.53973 0.30535 0.0
C876 C 0.0231 0.58271 0.33657 0.0
C877 C 0.99511 0.55893 0.33872 0.0
C878 C 0.14868 0.56933 0.32435 0.0
C879 C 0.2265 0.46717 0.29214 0.0
C880 C 0.22643 0.53781 0.30507 0.0
C881 C 0.2494 0.51947 0.32443 0.0
C882 C 0.24939 0.48391 0.31785 0.0
N883 N 0.20398 0.52121 0.27991 0.0
C884 C 0.20382 0.48635 0.27336 0.0
Co885 Co 0.74411 0.93665 0.50458 0.0
Co886 Co 0.75867 0.86333 0.54413 0.0
O887 O 0.77579 0.90229 0.51893 0.0
C888 C 0.79153 0.9283 0.44634 0.0
O889 O 0.7985 0.89751 0.45507 0.0
C890 C 0.82987 0.88499 0.57747 0.0
O891 O 0.82361 0.9174 0.57502 0.0
O892 O 0.74434 0.89704 0.58099 0.0
O893 O 0.71638 0.9306 0.54596 0.0
H894 H 0.67208 0.79988 0.61114 0.0
H895 H 0.81936 0.95595 0.51158 0.0
O896 O 0.77041 0.94548 0.46283 0.0
H897 H 0.76834 0.03948 0.59028 0.0
H898 H 0.71182 0.04765 0.45607 0.0
H899 H 0.66806 0.93861 0.50005 0.0
H900 H 0.7314 0.99464 0.5553 0.0
H901 H 0.75209 1.00577 0.47593 0.0
O902 O 0.80588 0.8615 0.56885 0.0
H903 H 0.69433 0.84731 0.57805 0.0
H904 H 0.78732 0.79826 0.56599 0.0
H905 H 0.6269 0.97989 0.48079 0.0
H906 H 0.85721 1.00073 0.5457 0.0
H907 H 0.64873 0.03489 0.45858 0.0
H908 H 0.83174 0.04282 0.58553 0.0
O909 O 0.71473 0.89927 0.47764 0.0
H910 H 0.84089 0.8173 0.46117 0.0
H911 H 0.7254 0.8 0.50449 0.0
H912 H 0.74273 0.75975 0.45844 0.0
H913 H 0.80094 0.76817 0.43653 0.0
H914 H 0.82223 0.85731 0.50675 0.0
H915 H 0.76623 0.75049 0.59922 0.0
H916 H 0.70814 0.75102 0.62192 0.0
O917 O 0.71126 0.86176 0.51843 0.0
C918 C 0.72336 0.92037 0.57591 0.0
C919 C 0.69741 0.79932 0.60134 0.0
C920 C 0.75027 0.77163 0.59469 0.0
N921 N 0.74202 0.82552 0.56999 0.0
C922 C 0.71011 0.82608 0.58253 0.0
C923 C 0.76213 0.79884 0.576 0.0
C924 C 0.71766 0.77193 0.6074 0.0
C925 C 0.80801 0.97443 0.52847 0.0
N926 N 0.77318 0.97269 0.53128 0.0
C927 C 0.82961 0.99963 0.54789 0.0
C928 C 0.81531 0.02319 0.57029 0.0
C929 C 0.77975 0.02131 0.57299 0.0
C930 C 0.75897 0.99576 0.55318 0.0
C931 C 0.70199 0.02382 0.4658 0.0
C932 C 0.67778 0.96259 0.4907 0.0
C933 C 0.72467 0.99998 0.47703 0.0
N934 N 0.71246 0.96991 0.48952 0.0
C935 C 0.65434 0.98582 0.4797 0.0
C936 C 0.6666 0.01665 0.46721 0.0
C937 C 0.70066 0.87239 0.48939 0.0
C938 C 0.81544 0.81335 0.47047 0.0
C939 C 0.75055 0.80417 0.49481 0.0
C940 C 0.76033 0.78112 0.46886 0.0
C941 C 0.79301 0.78583 0.45663 0.0
N942 N 0.77262 0.83123 0.50817 0.0
C943 C 0.80475 0.83588 0.49639 0.0
Co944 Co 0.84892 0.04094 0.27679 0.0
Co945 Co 0.92135 0.02318 0.23718 0.0
O946 O 0.88198 1.00765 0.2626 0.0
C947 C 0.85862 0.9987 0.3381 0.0
O948 O 0.89165 0.99823 0.33352 0.0
C949 C 0.90028 0.95095 0.20363 0.0
O950 O 0.86737 0.95509 0.20623 0.0
O951 O 0.88789 0.03786 0.20014 0.0
O952 O 0.85609 0.06802 0.23531 0.0
H953 H 0.98633 0.10672 0.16814 0.0
H954 H 0.82734 0.96635 0.27028 0.0
O955 O 0.83921 0.01493 0.3183 0.0
H956 H 0.74564 0.01929 0.19121 0.0
H957 H 0.73898 0.07726 0.32499 0.0
H958 H 0.84912 0.11713 0.28029 0.0
H959 H 0.79143 0.05514 0.22608 0.0
H960 H 0.77974 0.0355 0.30574 0.0
O961 O 0.92266 0.97578 0.21288 0.0
H962 H 0.93834 0.08604 0.20139 0.0
H963 H 0.98634 0.99307 0.21652 0.0
H964 H 0.80893 0.15975 0.29885 0.0
H965 H 0.78157 0.92957 0.23624 0.0
H966 H 0.75339 0.13989 0.32143 0.0
H967 H 0.7404 0.95602 0.19625 0.0
O968 O 0.88721 0.06967 0.30362 0.0
H969 H 0.96256 0.94115 0.32243 0.0
H970 H 0.98637 0.05413 0.27614 0.0
H971 H 0.02522 0.03607 0.32292 0.0
H972 H 1.01351 0.97906 0.34634 0.0
H973 H 0.92403 0.96064 0.27609 0.0
H974 H 0.03467 1.01262 0.18318 0.0
H975 H 0.03499 0.06992 0.15889 0.0
O976 O 0.92412 0.07087 0.26216 0.0
C977 C 0.86531 0.05973 0.20522 0.0
C978 C 0.98653 0.08173 0.17864 0.0
C979 C 0.01365 0.02891 0.18708 0.0
N980 N 0.95961 0.0385 0.21112 0.0
C981 C 0.95944 0.06989 0.19753 0.0
C982 C 0.98613 0.01794 0.20585 0.0
C983 C 0.01381 0.06107 0.17346 0.0
C984 C 0.80932 0.97808 0.25318 0.0
N985 N 0.81207 0.01285 0.25023 0.0
C986 C 0.78353 0.95711 0.23388 0.0
C987 C 0.76047 0.97196 0.21141 0.0
C988 C 0.76341 1.00745 0.20856 0.0
C989 C 0.78948 0.02761 0.22829 0.0
C990 C 0.76307 0.08624 0.31515 0.0
C991 C 0.82493 0.10826 0.28986 0.0
C992 C 0.78631 0.06271 0.3043 0.0
N993 N 0.81671 0.07384 0.29164 0.0
C994 C 0.80231 0.13253 0.30044 0.0
C995 C 0.77116 0.12137 0.31313 0.0
C996 C 0.91423 0.08267 0.2911 0.0
C997 C 0.96797 0.96605 0.31245 0.0
C998 C 0.98078 0.02961 0.28646 0.0
C999 C 1.00304 0.01935 0.31282 0.0
C1000 C 0.9965 0.98735 0.32589 0.0
N1001 N 0.95275 1.00868 0.27346 0.0
C1002 C 0.94629 0.9772 0.2861 0.0
Co1003 Co 0.25606 0.69144 0.49347 0.0
Co1004 Co 0.23722 0.61473 0.52874 0.0
O1005 O 0.27075 0.65159 0.51762 0.0
C1006 C 0.3199 0.67107 0.45916 0.0
O1007 O 0.31117 0.63865 0.46338 0.0
C1008 C 0.29459 0.62044 0.58699 0.0
O1009 O 0.31163 0.64507 0.57251 0.0
O1010 O 0.21081 0.64965 0.55377 0.0
O1011 O 0.21066 0.69093 0.51666 0.0
H1012 H 0.11737 0.56271 0.54014 0.0
H1013 H 0.32445 0.69794 0.53225 0.0
O1014 O 0.30087 0.69453 0.46958 0.0
H1015 H 0.25944 0.78951 0.58495 0.0
H1016 H 0.27331 0.80707 0.44433 0.0
H1017 H 0.1907 0.70801 0.45708 0.0
H1018 H 0.23305 0.75117 0.53607 0.0
H1019 H 0.29102 0.75807 0.47649 0.0
O1020 O 0.26516 0.60759 0.57371 0.0
H1021 H 0.16089 0.60696 0.52493 0.0
H1022 H 0.24149 0.54627 0.55846 0.0
H1023 H 0.17178 0.75667 0.42504 0.0
H1024 H 0.35199 0.73594 0.5809 0.0
H1025 H 0.21325 0.80665 0.41847 0.0
H1026 H 0.31937 0.78208 0.60766 0.0
O1027 O 0.23473 0.65962 0.45475 0.0
H1028 H 0.3433 0.55737 0.49338 0.0
H1029 H 0.21664 0.55545 0.47786 0.0
H1030 H 0.24706 0.51201 0.44549 0.0
H1031 H 0.31088 0.51249 0.45336 0.0
H1032 H 0.31205 0.60087 0.52424 0.0
H1033 H 0.19883 0.50147 0.57433 0.0
H1034 H 0.13626 0.50949 0.56503 0.0
O1035 O 0.20833 0.61923 0.48407 0.0
C1036 C 0.19858 0.67666 0.54246 0.0
C1037 C 0.14455 0.55886 0.5442 0.0
C1038 C 0.19027 0.52452 0.56343 0.0
N1039 N 0.20368 0.57908 0.54049 0.0
C1040 C 0.16931 0.58378 0.53554 0.0
C1041 C 0.21431 0.55001 0.55447 0.0
C1042 C 0.15517 0.52902 0.5582 0.0
C1043 C 0.31014 0.718 0.54369 0.0
N1044 N 0.27712 0.72214 0.53146 0.0
C1045 C 0.32585 0.73942 0.57126 0.0
C1046 C 0.30752 0.76528 0.58628 0.0
C1047 C 0.27388 0.76944 0.57358 0.0
C1048 C 0.25901 0.74752 0.54599 0.0
C1049 C 0.25497 0.78549 0.44709 0.0
C1050 C 0.20881 0.72978 0.45454 0.0
C1051 C 0.26487 0.75763 0.46521 0.0
N1052 N 0.24183 0.73031 0.46886 0.0
C1053 C 0.19798 0.75721 0.43628 0.0
C1054 C 0.22127 0.78523 0.43258 0.0
C1055 C 0.2134 0.63349 0.45593 0.0
C1056 C 0.31545 0.55661 0.49001 0.0
C1057 C 0.24441 0.55606 0.48146 0.0
C1058 C 0.2615 0.53126 0.46305 0.0
C1059 C 0.29727 0.53153 0.46748 0.0
N1060 N 0.26233 0.58048 0.50385 0.0
C1061 C 0.29747 0.58105 0.50792 0.0
Co1062 Co 0.34422 0.53618 0.77575 0.0
Co1063 Co 0.41756 0.51855 0.73564 0.0
O1064 O 0.37845 0.5039 0.76206 0.0
C1065 C 0.35773 0.49739 0.83919 0.0
O1066 O 0.39056 0.4971 0.83367 0.0
C1067 C 0.39819 0.44332 0.71097 0.0
O1068 O 0.37007 0.44339 0.72767 0.0
O1069 O 0.38453 0.53436 0.69912 0.0
O1070 O 0.34815 0.5609 0.73227 0.0
H1071 H 0.48296 0.60135 0.66611 0.0
H1072 H 0.32604 0.46114 0.77524 0.0
O1073 O 0.33741 0.51243 0.8192 0.0
H1074 H 0.23799 0.50454 0.69577 0.0
H1075 H 0.2345 0.57015 0.82618 0.0
H1076 H 0.34056 0.61173 0.77486 0.0
H1077 H 0.28339 0.54422 0.72652 0.0
H1078 H 0.27647 0.52941 0.80753 0.0
O1079 O 0.41715 0.47123 0.7098 0.0
H1080 H 0.43555 0.58168 0.70061 0.0
H1081 H 0.48091 0.48678 0.71274 0.0
H1082 H 0.2991 0.65332 0.79288 0.0
H1083 H 0.28074 0.42051 0.74553 0.0
H1084 H 0.24562 0.63259 0.81876 0.0
H1085 H 0.23637 0.44212 0.70527 0.0
O1086 O 0.3819 0.5678 0.8001 0.0
H1087 H 0.45893 0.43744 0.82244 0.0
H1088 H 0.48391 0.54814 0.77209 0.0
H1089 H 0.5238 0.53021 0.818 0.0
H1090 H 0.51159 0.47431 0.84341 0.0
H1091 H 0.4194 0.45677 0.77717 0.0
H1092 H 0.52866 0.50534 0.67815 0.0
H1093 H 0.52999 0.56307 0.65472 0.0
O1094 O 0.42152 0.56594 0.76103 0.0
C1095 C 0.36034 0.55464 0.70304 0.0
C1096 C 0.48273 0.57618 0.67627 0.0
C1097 C 0.50835 0.52228 0.683 0.0
N1098 N 0.45557 0.53326 0.70894 0.0
C1099 C 0.45598 0.56492 0.69588 0.0
C1100 C 0.48117 0.51188 0.70249 0.0
C1101 C 0.50909 0.55468 0.66987 0.0
C1102 C 0.30684 0.47078 0.7578 0.0
N1103 N 0.30782 0.50501 0.75215 0.0
C1104 C 0.28124 0.44762 0.74103 0.0
C1105 C 0.25638 0.45975 0.71843 0.0
C1106 C 0.25732 0.49475 0.71303 0.0
C1107 C 0.28332 0.51711 0.73026 0.0
C1108 C 0.25769 0.5795 0.8149 0.0
C1109 C 0.31727 0.60248 0.78595 0.0
C1110 C 0.28161 0.55656 0.80438 0.0
N1111 N 0.31088 0.56815 0.78994 0.0
C1112 C 0.29392 0.62617 0.79617 0.0
C1113 C 0.26393 0.61452 0.81072 0.0
C1114 C 0.40992 0.5795 0.78841 0.0
C1115 C 0.46471 0.46173 0.8114 0.0
C1116 C 0.4782 0.52396 0.78306 0.0
C1117 C 0.50101 0.51383 0.80902 0.0
C1118 C 0.49418 0.48247 0.82323 0.0
N1119 N 0.44938 0.50344 0.77138 0.0
C1120 C 0.4425 0.47272 0.78539 0.0
Co1121 Co 0.59402 0.02197 0.78517 0.0
Co1122 Co 0.67303 0.04201 0.75512 0.0
O1123 O 0.63516 1.00819 0.76287 0.0
C1124 C 0.61365 0.9595 0.82142 0.0
O1125 O 0.64622 0.97027 0.8208 0.0
C1126 C 0.66225 0.99942 0.68715 0.0
O1127 O 0.629 1.00302 0.68744 0.0
O1128 O 0.6399 0.0698 0.72887 0.0
O1129 O 0.59545 0.06734 0.76249 0.0
H1130 H 0.72868 0.16135 0.75004 0.0
H1131 H 0.59162 0.95484 0.74468 0.0
O1132 O 0.59014 0.97696 0.80834 0.0
H1133 H 0.50041 0.01826 0.68907 0.0
H1134 H 0.47549 1.00286 0.82798 0.0
H1135 H 0.57504 0.08657 0.82104 0.0
H1136 H 0.53547 0.04428 0.74042 0.0
H1137 H 0.52657 0.98603 0.7985 0.0
O1138 O 0.68268 0.0142 0.71142 0.0
H1139 H 0.68227 0.11821 0.76127 0.0
H1140 H 0.74357 0.03719 0.73012 0.0
H1141 H 0.52438 0.10459 0.85053 0.0
H1142 H 0.55693 0.92768 0.69352 0.0
H1143 H 0.47414 0.06257 0.85413 0.0
H1144 H 0.51102 0.95952 0.6653 0.0
O1145 O 0.62369 0.0431 0.82564 0.0
H1146 H 0.72515 0.93282 0.78637 0.0
H1147 H 0.72852 0.05861 0.81173 0.0
H1148 H 0.76782 0.02451 0.84538 0.0
H1149 H 0.76638 0.96114 0.8327 0.0
H1150 H 0.68585 0.96782 0.75377 0.0
H1151 H 0.79054 0.07946 0.71836 0.0
H1152 H 0.7833 0.14204 0.72842 0.0
O1153 O 0.66624 0.07004 0.79964 0.0
C1154 C 0.61139 0.08059 0.73826 0.0
C1155 C 0.73219 0.13416 0.74565 0.0
C1156 C 0.76689 0.08819 0.72782 0.0
N1157 N 0.71028 0.07523 0.74658 0.0
C1158 C 0.70603 0.10961 0.75204 0.0
C1159 C 0.74016 0.06438 0.73447 0.0
C1160 C 0.76281 0.1233 0.73349 0.0
C1161 C 0.57146 0.96869 0.73272 0.0
N1162 N 0.5655 1.00103 0.74559 0.0
C1163 C 0.552 0.95325 0.70369 0.0
C1164 C 0.52628 0.97115 0.68784 0.0
C1165 C 0.52033 1.00412 0.70114 0.0
C1166 C 0.54033 0.01876 0.73018 0.0
C1167 C 0.49719 0.02143 0.82651 0.0
C1168 C 0.55318 0.06822 0.82232 0.0
C1169 C 0.52621 1.01203 0.8099 0.0
N1170 N 0.55362 0.0354 0.80781 0.0
C1171 C 0.52461 0.07854 0.83913 0.0
C1172 C 0.49644 0.05494 0.84117 0.0
C1173 C 0.65021 0.06427 0.82659 0.0
C1174 C 0.72609 0.96042 0.79208 0.0
C1175 C 0.7275 0.03103 0.80622 0.0
C1176 C 0.74995 1.01186 0.82527 0.0
C1177 C 0.74916 0.97632 0.81811 0.0
N1178 N 0.70482 0.01525 0.78081 0.0
C1179 C 0.704 0.98042 0.77358 0.0
Co1180 Co 0.75275 0.67323 0.04716 0.0
Co1181 Co 0.78549 0.59644 0.02479 0.0
O1182 O 0.76191 0.63707 1.01203 0.0
C1183 C 0.68599 0.66266 1.00251 0.0
O1184 O 0.68619 0.6293 1.00527 0.0
C1185 C 0.81803 0.61718 0.96002 0.0
O1186 O 0.8133 0.64955 0.96835 0.0
O1187 O 0.82519 0.6271 0.04631 0.0
O1188 O 0.79692 0.66621 0.07566 0.0
H1189 H 0.85495 0.52818 0.10537 0.0
H1190 H 0.7527 0.6897 0.97382 0.0
O1191 O 0.70944 0.68294 0.01891 0.0
H1192 H 0.84129 0.77148 0.03585 0.0
H1193 H 0.71409 0.78867 0.08845 0.0
H1194 H 0.75664 0.67909 0.12355 0.0
H1195 H 0.80811 0.72925 0.06722 0.0
H1196 H 0.72682 0.74349 0.04472 0.0
O1197 O 0.80868 0.59385 0.97965 0.0
H1198 H 0.82382 0.57811 0.08835 0.0
H1199 H 0.79966 0.52973 0.98795 0.0
H1200 H 0.74455 0.7237 0.16814 0.0
H1201 H 0.78469 0.73212 0.94156 0.0
H1202 H 0.72315 0.779 0.15068 0.0
H1203 H 0.82953 0.77327 0.97257 0.0
O1204 O 0.72655 0.63825 0.07302 0.0
H1205 H 0.69436 0.55855 0.93018 0.0
H1206 H 0.74272 0.5358 0.04592 0.0
H1207 H 0.69239 0.4996 0.01934 0.0
H1208 H 0.66792 0.51081 0.96099 0.0
H1209 H 0.74444 0.5944 0.95795 0.0
H1210 H 0.83071 0.47937 1.00379 0.0
H1211 H 0.85847 0.47831 0.06294 0.0
O1212 O 0.76286 0.59623 0.07031 0.0
C1213 C 0.82478 0.65216 0.06905 0.0
C1214 C 0.84284 0.52827 0.07956 0.0
C1215 C 0.82923 0.50088 0.02255 0.0
N1216 N 0.80951 0.55662 0.03739 0.0
C1217 C 0.82512 0.55643 0.06981 0.0
C1218 C 0.8117 0.52948 0.01373 0.0
C1219 C 0.84482 0.50031 0.05574 0.0
C1220 C 0.77183 0.7078 0.9876 0.0
N1221 N 0.77847 0.70691 0.02239 0.0
C1222 C 0.79001 0.73165 0.96915 0.0
C1223 C 0.8152 0.75469 0.98654 0.0
C1224 C 0.82184 0.75367 0.02204 0.0
C1225 C 0.80309 0.72952 0.03964 0.0
C1226 C 0.72346 0.76471 0.09638 0.0
C1227 C 0.74745 0.70313 0.11575 0.0
C1228 C 0.73063 0.73899 0.07174 0.0
N1229 N 0.74275 0.70878 0.08158 0.0
C1230 C 0.74058 0.72827 0.14111 0.0
C1231 C 0.72856 0.75928 0.1313 0.0
C1232 C 0.73747 0.61026 0.08353 0.0
C1233 C 0.70484 0.55335 0.95558 0.0
C1234 C 0.73212 0.54099 0.02063 0.0
C1235 C 0.70368 0.52031 1.00565 0.0
C1236 C 0.68999 0.5266 0.9729 0.0
N1237 N 0.74659 0.56714 1.00346 0.0
C1238 C 0.73328 0.57347 0.97136 0.0
Co1239 Co 0.86139 0.54309 0.75748 0.0
Co1240 Co 0.9352 0.50198 0.74557 0.0
O1241 O 0.89949 0.51709 0.77552 0.0
C1242 C 0.87782 0.57096 0.83231 0.0
O1243 O 0.90585 0.5542 0.83415 0.0
C1244 C 0.92533 0.44499 0.79471 0.0
O1245 O 0.89805 0.45812 0.80675 0.0
O1246 O 0.89858 0.47648 0.71389 0.0
O1247 O 0.86001 0.5163 0.71074 0.0
H1248 H 0.98382 0.47811 0.63081 0.0
H1249 H 0.85351 0.50539 0.82116 0.0
O1250 O 0.85944 0.57031 0.8038 0.0
H1251 H 0.7555 0.46048 0.7407 0.0
H1252 H 0.75022 0.60178 0.76221 0.0
H1253 H 0.84726 0.57563 0.692 0.0
H1254 H 0.79741 0.50534 0.72397 0.0
H1255 H 0.79654 0.56754 0.78468 0.0
O1256 O 0.94083 0.45904 0.77085 0.0
H1257 H 0.94109 0.4984 0.67002 0.0
H1258 H 1.00288 0.47088 0.75645 0.0
H1259 H 0.80123 0.60961 0.66835 0.0
H1260 H 0.81194 0.46105 0.83917 0.0
H1261 H 0.75228 0.62291 0.70357 0.0
H1262 H 0.7625 0.4381 0.79878 0.0
O1263 O 0.89589 0.57877 0.74288 0.0
H1264 H 0.99523 0.53876 0.86198 0.0
H1265 H 0.99649 0.55022 0.73693 0.0
H1266 H 0.04101 0.58271 0.77622 0.0
H1267 H 0.04072 0.57699 0.83933 0.0
H1268 H 0.95085 0.50733 0.82179 0.0
H1269 H 0.04617 0.45012 0.71816 0.0
H1270 H 0.03686 0.45383 0.65486 0.0
O1271 O 0.93251 0.54433 0.71869 0.0
C1272 C 0.87151 0.48782 0.69984 0.0
C1273 C 0.98825 0.47649 0.65836 0.0
C1274 C 0.02323 0.46078 0.70738 0.0
N1275 N 0.96967 0.48627 0.71551 0.0
C1276 C 0.96418 0.48801 0.68069 0.0
C1277 C 0.9986 0.47256 0.72893 0.0
C1278 C 0.01799 0.46285 0.67186 0.0
C1279 C 0.83198 0.49599 0.80352 0.0
N1280 N 0.82803 0.50822 0.77154 0.0
C1281 C 0.80854 0.47066 0.81383 0.0
C1282 C 0.78084 0.45775 0.79114 0.0
C1283 C 0.77693 0.47027 0.75856 0.0
C1284 C 0.80089 0.4956 0.74916 0.0
C1285 C 0.77139 0.59611 0.74659 0.0
C1286 C 0.82594 0.58114 0.70739 0.0
C1287 C 0.79777 0.57683 0.75922 0.0
N1288 N 0.82452 0.56944 0.73958 0.0
C1289 C 0.79999 0.60047 0.6939 0.0
C1290 C 0.77255 0.60795 0.71369 0.0
C1291 C 0.92104 0.57401 0.72401 0.0
C1292 C 0.99566 0.54147 0.83454 0.0
C1293 C 0.9958 0.5479 0.76429 0.0
C1294 C 0.02128 0.56621 0.78645 0.0
C1295 C 0.02114 0.56295 0.82183 0.0
N1296 N 0.97078 0.52692 0.7769 0.0
C1297 C 0.9706 0.52357 0.81157 0.0
Co1298 Co 0.77863 0.34546 0.53566 0.0
Co1299 Co 0.73838 0.42012 0.52393 0.0
O1300 O 0.76419 0.38171 0.50604 0.0
C1301 C 0.83674 0.35579 0.48766 0.0
O1302 O 0.82368 0.38298 0.47544 0.0
C1303 C 0.71048 0.40378 0.4491 0.0
O1304 O 0.72717 0.37573 0.44717 0.0
O1305 O 0.70229 0.38624 0.53872 0.0
O1306 O 0.73538 0.3475 0.5613 0.0
H1307 H 0.67171 0.48104 0.61256 0.0
H1308 H 0.77462 0.33174 0.45914 0.0
O1309 O 0.82239 0.34035 0.51139 0.0
H1310 H 0.6996 0.23925 0.50131 0.0
H1311 H 0.83096 0.23473 0.56269 0.0
H1312 H 0.77872 0.33754 0.61072 0.0
H1313 H 0.73114 0.28317 0.54201 0.0
H1314 H 0.81107 0.27852 0.52465 0.0
O1315 O 0.71123 0.42214 0.47762 0.0
H1316 H 0.70584 0.43493 0.58937 0.0
H1317 H 0.71452 0.485 0.49644 0.0
H1318 H 0.79802 0.29422 0.64966 0.0
H1319 H 0.74426 0.288 0.41755 0.0
H1320 H 0.82436 0.24236 0.62567 0.0
H1321 H 0.70618 0.24135 0.43847 0.0
O1322 O 0.80348 0.38148 0.56864 0.0
H1323 H 0.8211 0.46844 0.44218 0.0
H1324 H 0.77674 0.48375 0.55734 0.0
H1325 H 0.82205 0.52513 0.54057 0.0
H1326 H 0.84448 0.51775 0.48251 0.0
H1327 H 0.77631 0.42739 0.46023 0.0
H1328 H 0.68021 0.53145 0.5185 0.0
H1329 H 0.65865 0.52973 0.57701 0.0
O1330 O 0.76492 0.42142 0.57063 0.0
C1331 C 0.7063 0.36052 0.55692 0.0
C1332 C 0.68105 0.48214 0.58707 0.0
C1333 C 0.68577 0.51039 0.53426 0.0
N1334 N 0.71232 0.45731 0.54166 0.0
C1335 C 0.70048 0.45615 0.57384 0.0
C1336 C 0.7051 0.48394 0.52186 0.0
C1337 C 0.67369 0.50942 0.56709 0.0
C1338 C 0.75842 0.31151 0.46862 0.0
N1339 N 0.75452 0.3104 0.50314 0.0
C1340 C 0.74113 0.2868 0.44485 0.0
C1341 C 0.71973 0.26068 0.45659 0.0
C1342 C 0.71598 0.25953 0.49181 0.0
C1343 C 0.73369 0.2847 0.51479 0.0
C1344 C 0.81946 0.25718 0.57344 0.0
C1345 C 0.78995 0.31493 0.60006 0.0
C1346 C 0.80821 0.28212 0.55204 0.0
N1347 N 0.79349 0.31046 0.56542 0.0
C1348 C 0.80092 0.29054 0.62225 0.0
C1349 C 0.81574 0.26147 0.60877 0.0
C1350 C 0.79262 0.409 0.58227 0.0
C1351 C 0.81147 0.47202 0.46751 0.0
C1352 C 0.78648 0.4801 0.53216 0.0
C1353 C 0.81208 0.50376 0.52274 0.0
C1354 C 0.82462 0.49963 0.49016 0.0
N1355 N 0.77363 0.45304 0.50981 0.0
C1356 C 0.78588 0.44888 0.47785 0.0
Co1357 Co 0.68547 0.49708 0.25742 0.0
Co1358 Co 0.60851 0.52939 0.23486 0.0
O1359 O 0.64471 0.52061 0.27009 0.0
C1360 C 0.66463 0.46422 0.32184 0.0
O1361 O 0.63215 0.46805 0.31295 0.0
C1362 C 0.61834 0.59663 0.27901 0.0
O1363 O 0.65178 0.59697 0.27626 0.0
O1364 O 0.64349 0.55558 0.20895 0.0
O1365 O 0.68557 0.51934 0.21174 0.0
H1366 H 0.55835 0.53705 0.11371 0.0
H1367 H 0.68739 0.53852 0.32401 0.0
O1368 O 0.68813 0.47428 0.30269 0.0
H1369 H 0.78211 0.59034 0.2622 0.0
H1370 H 0.80286 0.45247 0.27863 0.0
H1371 H 0.70389 0.4584 0.19407 0.0
H1372 H 0.74604 0.5398 0.23596 0.0
H1373 H 0.75233 0.4834 0.29432 0.0
O1374 O 0.59842 0.57271 0.26289 0.0
H1375 H 0.60285 0.52511 0.15848 0.0
H1376 H 0.538 0.555 0.23701 0.0
H1377 H 0.754 0.42739 0.1772 0.0
H1378 H 0.7231 0.58885 0.35143 0.0
H1379 H 0.80399 0.42435 0.21963 0.0
H1380 H 0.7708 0.61516 0.32042 0.0
O1381 O 0.65488 0.45718 0.23624 0.0
H1382 H 0.54984 0.49757 0.34064 0.0
H1383 H 0.55257 0.47391 0.21497 0.0
H1384 H 0.51042 0.44075 0.24649 0.0
H1385 H 0.50871 0.45262 0.30978 0.0
H1386 H 0.59215 0.52955 0.30822 0.0
H1387 H 0.49294 0.5676 0.19311 0.0
H1388 H 0.50291 0.55844 0.13094 0.0
O1389 O 0.61578 0.48517 0.2066 0.0
C1390 C 0.67153 0.54465 0.19845 0.0
C1391 C 0.55366 0.54106 0.14071 0.0
C1392 C 0.51697 0.55822 0.18528 0.0
N1393 N 0.57293 0.53905 0.20031 0.0
C1394 C 0.57873 0.53427 0.16618 0.0
C1395 C 0.54262 0.55112 0.21003 0.0
C1396 C 0.52257 0.55307 0.1504 0.0
C1397 C 0.70829 0.54965 0.3105 0.0
N1398 N 0.71468 0.53615 0.27847 0.0
C1399 C 0.72834 0.57822 0.32609 0.0
C1400 C 0.75507 0.593 0.30866 0.0
C1401 C 0.76141 0.57911 0.27598 0.0
C1402 C 0.74081 0.55054 0.26119 0.0
C1403 C 0.78131 0.45374 0.25986 0.0
C1404 C 0.72562 0.45732 0.21261 0.0
C1405 C 0.75261 0.4712 0.2686 0.0
N1406 N 0.7254 0.47312 0.24495 0.0
C1407 C 0.75389 0.43966 0.20294 0.0
C1408 C 0.78192 0.43795 0.22676 0.0
C1409 C 0.62977 0.45739 0.21352 0.0
C1410 C 0.55027 0.4922 0.31305 0.0
C1411 C 0.5523 0.479 0.24255 0.0
C1412 C 0.52822 0.46025 0.26024 0.0
C1413 C 0.52724 0.46695 0.29574 0.0
N1414 N 0.57488 0.50369 0.25971 0.0
C1415 C 0.57405 0.51038 0.29451 0.0
C1416 C 0.122 0.40258 0.33388 0.0
C1417 C 0.10256 0.43172 0.33691 0.0
C1418 C 0.11216 0.3718 0.34896 0.0
C1419 C 0.08317 0.36928 0.36873 0.0
H1420 H 0.14453 0.40326 0.31898 0.0
H1421 H 0.12739 0.3498 0.34512 0.0
S1422 S 0.02409 0.43859 0.38528 0.0
N1423 N 0.05305 0.45604 0.36134 0.0
N1424 N 0.03524 0.39905 0.39048 0.0
C1425 C 0.06398 0.39855 0.37252 0.0
C1426 C 0.07347 0.42948 0.35642 0.0
C1427 C 0.90675 0.82932 0.5881 0.0
C1428 C 0.93542 0.85349 0.59429 0.0
C1429 C 0.87289 0.83973 0.58387 0.0
C1430 C 0.86589 0.87486 0.58571 0.0
H1431 H 0.91045 0.80202 0.58564 0.0
H1432 H 0.85209 0.81989 0.57828 0.0
S1433 S 0.93145 0.94866 0.60409 0.0
N1434 N 0.95413 0.9144 0.60403 0.0
N1435 N 0.89083 0.9338 0.59609 0.0
C1436 C 0.89422 0.8993 0.59303 0.0
C1437 C 0.92877 0.88869 0.59729 0.0
C1438 C 0.41902 0.62479 0.8386 0.0
C1439 C 0.43018 0.61 0.80757 0.0
C1440 C 0.43823 0.65241 0.85778 0.0
C1441 C 0.46982 0.66652 0.84718 0.0
H1442 H 0.39519 0.61493 0.84838 0.0
H1443 H 0.42812 0.66269 0.88128 0.0
S1444 S 0.51091 0.63752 0.76772 0.0
N1445 N 0.47476 0.61282 0.76666 0.0
N1446 N 0.51158 0.66267 0.80352 0.0
C1447 C 0.48142 0.65181 0.81631 0.0
C1448 C 0.46148 0.62423 0.79637 0.0
C1449 C 0.62762 0.1915 0.10758 0.0
C1450 C 0.61252 0.22019 0.09406 0.0
C1451 C 0.65512 0.17578 0.09201 0.0
C1452 C 0.66918 0.188 0.06217 0.0
H1453 H 0.61808 0.18089 0.13042 0.0
H1454 H 0.66548 0.15386 0.10364 0.0
S1455 S 0.63938 0.26254 0.01619 0.0
N1456 N 0.61446 0.26003 0.04863 0.0
N1457 N 0.66516 0.23098 0.01985 0.0
C1458 C 0.65429 0.2167 0.04848 0.0
C1459 C 0.62638 0.23258 0.06421 0.0
C1460 C 0.0661 0.62963 0.23106 0.0
C1461 C 0.09492 0.61441 0.218 0.0
C1462 C 0.05111 0.65733 0.21568 0.0
C1463 C 0.06379 0.6714 0.18609 0.0
H1464 H 0.05487 0.62019 0.25364 0.0
H1465 H 0.02908 0.66766 0.22721 0.0
S1466 S 0.13876 0.64129 0.1411 0.0
N1467 N 0.13562 0.61601 0.17326 0.0
N1468 N 0.1074 0.66752 0.14435 0.0
C1469 C 0.09259 0.65643 0.17261 0.0
C1470 C 0.10808 0.62826 0.18848 0.0
C1471 C 0.62796 0.8029 0.46136 0.0
C1472 C 0.61333 0.81376 0.43018 0.0
C1473 C 0.65554 0.82219 0.48045 0.0
C1474 C 0.67042 0.85305 0.46906 0.0
H1475 H 0.61802 0.77927 0.47138 0.0
H1476 H 0.6653 0.81257 0.50436 0.0
S1477 S 0.6422 0.89304 0.3888 0.0
N1478 N 0.61615 0.8579 0.38885 0.0
N1479 N 0.66806 0.8935 0.42413 0.0
C1480 C 0.65617 0.86418 0.43779 0.0
C1481 C 0.6278 0.84473 0.41853 0.0
C1482 C 0.44713 0.37683 0.66072 0.0
C1483 C 0.44246 0.34708 0.67905 0.0
C1484 C 0.43248 0.40773 0.67085 0.0
C1485 C 0.4116 0.40983 0.69902 0.0
H1486 H 0.46307 0.37655 0.63895 0.0
H1487 H 0.43762 0.43018 0.65655 0.0
S1488 S 0.39054 0.3389 0.75499 0.0
N1489 N 0.41521 0.32171 0.72658 0.0
N1490 N 0.38691 0.37901 0.7449 0.0
C1491 C 0.4061 0.37997 0.71703 0.0
C1492 C 0.42171 0.34886 0.70726 0.0
C1493 C 0.88585 0.21166 0.91106 0.0
C1494 C 0.91663 0.1952 0.91699 0.0
C1495 C 0.85548 0.2014 0.92645 0.0
C1496 C 0.85419 0.1736 0.9477 0.0
H1497 H 0.88543 0.23343 0.8952 0.0
H1498 H 0.83273 0.21535 0.92154 0.0
S1499 S 0.92727 0.12136 0.97118 0.0
N1500 N 0.94374 0.14963 0.94591 0.0
N1501 N 0.8864 0.12954 0.97368 0.0
C1502 C 0.8845 0.15639 0.95329 0.0
C1503 C 0.91573 0.16741 0.93831 0.0
C1504 C 0.32317 0.0839 0.40428 0.0
C1505 C 0.34295 0.10495 0.4301 0.0
C1506 C 0.33551 0.07653 0.37162 0.0
C1507 C 0.36855 0.08924 0.36337 0.0
H1508 H 0.2977 0.07323 0.40918 0.0
H1509 H 0.31906 0.06017 0.35284 0.0
S1510 S 0.43121 0.14471 0.42227 0.0
N1511 N 0.39753 0.1382 0.44526 0.0
N1512 N 0.421 0.12366 0.38437 0.0
C1513 C 0.38878 0.11003 0.38912 0.0
C1514 C 0.37592 0.11808 0.42223 0.0
C1515 C 0.21748 0.04884 0.65323 0.0
C1516 C 0.18828 0.06192 0.66771 0.0
C1517 C 0.2329 0.06386 0.62545 0.0
C1518 C 0.22027 0.09308 0.61063 0.0
H1519 H 0.22861 0.02652 0.6633 0.0
H1520 H 0.25518 0.05238 0.61564 0.0
S1521 S 0.14446 0.13793 0.63867 0.0
N1522 N 0.14737 0.1063 0.6646 0.0
N1523 N 0.17633 0.13446 0.61304 0.0
C1524 C 0.19114 0.10656 0.62491 0.0
C1525 C 0.17524 0.09108 0.6531 0.0
C1526 C 0.19416 0.90136 0.85404 0.0
C1527 C 0.19089 0.93622 0.84754 0.0
C1528 C 0.19837 0.89071 0.88782 0.0
C1529 C 0.19961 0.91436 0.91695 0.0
H1530 H 0.19408 0.88196 0.8328 0.0
H1531 H 0.20158 0.8637 0.89099 0.0
S1532 S 0.18989 1.00845 0.91459 0.0
N1533 N 0.1875 0.99418 0.8736 0.0
N1534 N 0.19518 0.97432 0.93671 0.0
C1535 C 0.19525 0.94917 0.91088 0.0
C1536 C 0.19095 0.96002 0.87641 0.0
C1537 C 0.30304 0.9591 0.12834 0.0
C1538 C 0.31458 0.9285 0.11315 0.0
C1539 C 0.32234 0.97852 0.1556 0.0
C1540 C 0.35381 0.96796 0.16987 0.0
H1541 H 0.27886 0.96849 0.11904 0.0
H1542 H 0.31222 1.00208 0.16557 0.0
S1543 S 0.39554 0.88924 0.14038 0.0
N1544 N 0.35992 0.88848 0.11485 0.0
N1545 N 0.39549 0.92427 0.16658 0.0
C1546 C 0.36555 0.93715 0.15526 0.0
C1547 C 0.34613 0.91761 0.12701 0.0
C1548 C 0.36505 0.34225 0.11265 0.0
C1549 C 0.36405 0.36486 0.08589 0.0
C1550 C 0.39572 0.32734 0.12309 0.0
C1551 C 0.42634 0.33352 0.10642 0.0
H1552 H 0.34192 0.33599 0.12562 0.0
H1553 H 0.39519 0.31008 0.14375 0.0
S1554 S 0.43756 0.39028 0.03461 0.0
N1555 N 0.39681 0.39278 0.04317 0.0
N1556 N 0.45373 0.36403 0.06199 0.0
C1557 C 0.42566 0.35599 0.07962 0.0
C1558 C 0.39476 0.37183 0.06959 0.0
C1559 C 0.95928 0.87669 0.19473 0.0
C1560 C 0.93836 0.8501 0.17596 0.0
C1561 C 0.94685 0.90911 0.20286 0.0
C1562 C 0.91264 0.91637 0.19323 0.0
H1563 H 0.98569 0.87256 0.20303 0.0
H1564 H 0.96422 0.92847 0.21741 0.0
S1565 S 0.84673 0.85514 0.14478 0.0
N1566 N 0.88139 0.83311 0.14832 0.0
N1567 N 0.85787 0.89359 0.16425 0.0
C1568 C 0.89128 0.88985 0.17477 0.0
C1569 C 0.90416 0.85695 0.16595 0.0
C1570 C 0.15351 0.7208 0.54625 0.0
C1571 C 0.1685 0.69182 0.55922 0.0
C1572 C 0.12531 0.73545 0.56123 0.0
C1573 C 0.11051 0.72205 0.59011 0.0
H1574 H 0.16361 0.73245 0.52419 0.0
H1575 H 0.11519 0.75771 0.55003 0.0
S1576 S 0.13937 0.64605 0.63414 0.0
N1577 N 0.16564 0.65011 0.60289 0.0
N1578 N 0.11321 0.6774 0.63082 0.0
C1579 C 0.12514 0.69297 0.60331 0.0
C1580 C 0.15382 0.678 0.588 0.0
C1581 C 0.94497 0.66636 0.70092 0.0
C1582 C 0.97247 0.66249 0.67966 0.0
C1583 C 0.9283 0.63776 0.71483 0.0
C1584 C 0.93814 0.60398 0.70763 0.0
H1585 H 0.9364 0.69178 0.70704 0.0
H1586 H 0.90764 0.64229 0.73148 0.0
S1587 S 1.0075 0.58044 0.65072 0.0
N1588 N 1.00822 0.62283 0.65095 0.0
N1589 N 0.97655 0.56892 0.67549 0.0
C1590 C 0.96526 0.59999 0.68546 0.0
C1591 C 0.9825 0.62924 0.67191 0.0
C1592 C 0.16538 0.20956 0.46737 0.0
C1593 C 0.16091 0.17589 0.47855 0.0
C1594 C 0.13953 0.22373 0.4467 0.0
C1595 C 0.10786 0.20505 0.4367 0.0
H1596 H 0.18901 0.22529 0.47481 0.0
H1597 H 0.14388 0.24999 0.43965 0.0
S1598 S 0.0834 0.11545 0.4575 0.0
N1599 N 0.12246 0.12391 0.47654 0.0
N1600 N 0.07414 0.15053 0.43838 0.0
C1601 C 0.10336 0.17116 0.44706 0.0
C1602 C 0.12975 0.15661 0.46772 0.0
C1603 C 0.62467 0.39228 0.20757 0.0
C1604 C 0.61556 0.42383 0.19512 0.0
C1605 C 0.60956 0.36044 0.19275 0.0
C1606 C 0.58456 0.35845 0.16464 0.0
H1607 H 0.64308 0.39208 0.22963 0.0
H1608 H 0.61719 0.3372 0.20397 0.0
S1609 S 0.55352 0.4333 0.12019 0.0
N1610 N 0.58132 0.45072 0.1513 0.0
N1611 N 0.55291 0.39134 0.12369 0.0
C1612 C 0.57609 0.38978 0.15111 0.0
C1613 C 0.59149 0.42222 0.16625 0.0
C1614 C 0.38022 0.80986 0.98795 0.0
C1615 C 0.36346 0.83556 0.97109 0.0
C1616 C 0.40549 0.79159 0.97234 0.0
C1617 C 0.41497 0.79783 0.93892 0.0
H1618 H 0.37379 0.80365 0.01356 0.0
H1619 H 0.41743 0.7721 0.98662 0.0
S1620 S 0.37928 0.86263 0.88351 0.0
N1621 N 0.35849 0.8666 0.91901 0.0
N1622 N 0.40588 0.83201 0.88956 0.0
C1623 C 0.39856 0.82352 0.92168 0.0
C1624 C 0.37295 0.84248 0.9378 0.0
C1625 C 0.96535 0.39759 0.79315 0.0
C1626 C 0.94125 0.41586 0.81098 0.0
C1627 C 0.98305 0.37174 0.8083 0.0
C1628 C 0.97783 0.36309 0.84219 0.0
H1629 H 0.97087 0.40342 0.76718 0.0
H1630 H 1.00143 0.35881 0.7933 0.0
S1631 S 0.91697 0.4025 0.9 0.0
N1632 N 0.91253 0.42295 0.86436 0.0
N1633 N 0.94606 0.3744 0.89296 0.0
C1634 C 0.95354 0.38084 0.86032 0.0
C1635 C 0.93515 0.40709 0.84468 0.0
C1636 C 0.36223 0.18563 0.6113 0.0
C1637 C 0.36078 0.1599 0.58394 0.0
C1638 C 0.39384 0.20072 0.62667 0.0
C1639 C 0.42574 0.1911 0.61534 0.0
H1640 H 0.33868 0.19473 0.62072 0.0
H1641 H 0.39309 0.22081 0.64714 0.0
S1642 S 0.43672 0.12382 0.54545 0.0
N1643 N 0.39453 0.12461 0.54692 0.0
N1644 N 0.45363 0.15285 0.5757 0.0
C1645 C 0.42474 0.16476 0.58855 0.0
C1646 C 0.39247 0.14923 0.57296 0.0
C1647 C 0.60818 0.68195 0.33059 0.0
C1648 C 0.5753 0.67727 0.34348 0.0
C1649 C 0.62211 0.65567 0.31045 0.0
C1650 C 0.60343 0.62379 0.30145 0.0
H1651 H 0.62326 0.70632 0.33591 0.0
H1652 H 0.64744 0.66074 0.30118 0.0
S1653 S 0.516 0.59846 0.32845 0.0
N1654 N 0.52461 0.63806 0.34605 0.0
N1655 N 0.55011 0.58911 0.30763 0.0
C1656 C 0.57053 0.61875 0.31433 0.0
C1657 C 0.55669 0.64529 0.33547 0.0
C1658 C 0.15553 0.81065 0.11893 0.0
C1659 C 0.12312 0.80296 0.10085 0.0
C1660 C 0.18198 0.83061 0.10499 0.0
C1661 C 0.17707 0.84458 0.07267 0.0
H1662 H 0.1609 0.80049 0.14377 0.0
H1663 H 0.20669 0.83487 0.11965 0.0
S1664 S 0.09674 0.83341 0.01521 0.0
N1665 N 0.08754 0.81174 0.04884 0.0
N1666 N 0.13693 0.84972 0.02325 0.0
C1667 C 0.14454 0.83795 0.0547 0.0
C1668 C 0.11775 0.81703 0.06858 0.0
C1669 C 0.72418 0.94543 0.63753 0.0
C1670 C 0.70613 0.93708 0.60523 0.0
C1671 C 0.7098 0.96544 0.66375 0.0
C1672 C 0.67651 0.97752 0.65905 0.0
H1673 H 0.75013 0.93757 0.64215 0.0
H1674 H 0.72507 0.97164 0.68789 0.0
S1675 S 0.6177 0.96087 0.57983 0.0
N1676 N 0.65257 0.94131 0.57058 0.0
N1677 N 0.62554 0.9782 0.61964 0.0
C1678 C 0.65782 0.96834 0.62722 0.0
C1679 C 0.67261 0.94839 0.60044 0.0
C1680 C 0.81077 0.9894 0.37696 0.0
C1681 C 0.84285 0.98014 0.36602 0.0
C1682 C 0.79448 0.97227 0.40259 0.0
C1683 C 0.80921 0.94468 0.41821 0.0
H1684 H 0.7981 1.01037 0.36584 0.0
H1685 H 0.76995 0.98073 0.41009 0.0
S1686 S 0.89274 0.90982 0.39877 0.0
N1687 N 0.88879 0.94136 0.37283 0.0
N1688 N 0.85793 0.90881 0.42082 0.0
C1689 C 0.84117 0.93485 0.4074 0.0
C1690 C 0.85806 0.95269 0.38147 0.0
C1691 C 0.81467 0.07131 0.11991 0.0
C1692 C 0.80486 0.10553 0.12401 0.0
C1693 C 0.83603 0.05718 0.14521 0.0
C1694 C 0.84812 0.07649 0.17594 0.0
H1695 H 0.80557 0.05512 0.09701 0.0
H1696 H 0.84189 0.03049 0.14132 0.0
S1697 S 0.83145 0.16752 0.1991 0.0
N1698 N 0.8104 0.15861 0.16102 0.0
N1699 N 0.8498 0.13203 0.20843 0.0
C1700 C 0.83916 0.11089 0.18003 0.0
C1701 C 0.81781 0.12539 0.15417 0.0
C1702 C 0.69203 0.10718 0.86209 0.0
C1703 C 0.66385 0.08229 0.86055 0.0
C1704 C 0.7071 0.12256 0.89373 0.0
C1705 C 0.6949 0.11379 0.92553 0.0
H1706 H 0.70308 0.11456 0.83864 0.0
H1707 H 0.72916 0.14092 0.89315 0.0
S1708 S 0.62019 0.05183 0.93622 0.0
N1709 N 0.62327 0.0509 0.89413 0.0
N1710 N 0.65141 0.07977 0.95317 0.0
C1711 C 0.66605 0.08972 0.92439 0.0
C1712 C 0.65062 0.07407 0.89213 0.0
C1713 C 0.60121 0.67088 0.94921 0.0
C1714 C 0.60528 0.70395 0.93672 0.0
C1715 C 0.62752 0.65755 0.96981 0.0
C1716 C 0.65881 0.67701 0.97965 0.0
H1717 H 0.57726 0.6552 0.94328 0.0
H1718 H 0.6229 0.63205 0.97876 0.0
S1719 S 0.68252 0.76519 0.95388 0.0
N1720 N 0.64337 0.75565 0.9354 0.0
N1721 N 0.69237 0.73121 0.9746 0.0
C1722 C 0.6633 0.71009 0.96712 0.0
C1723 C 0.63673 0.72335 0.94555 0.0
C1724 C 0.12168 0.15388 0.80887 0.0
C1725 C 0.10281 0.1222 0.79942 0.0
C1726 C 0.10818 0.17971 0.82993 0.0
C1727 C 0.07554 0.17477 0.84327 0.0
H1728 H 0.14684 0.15917 0.79929 0.0
H1729 H 0.12336 0.20398 0.83553 0.0
S1730 S 0.01597 0.0962 0.82746 0.0
N1731 N 0.04968 0.08729 0.80579 0.0
N1732 N 0.02491 0.13546 0.84583 0.0
C1733 C 0.05677 0.14293 0.83485 0.0
C1734 C 0.07019 0.11683 0.81282 0.0
C1735 C 0.90922 0.29701 0.47368 0.0
C1736 C 0.91827 0.30256 0.43997 0.0
C1737 C 0.88355 0.31497 0.48894 0.0
C1738 C 0.86585 0.33965 0.47142 0.0
H1739 H 0.92173 0.2782 0.48843 0.0
H1740 H 0.87739 0.30917 0.51475 0.0
S1741 S 0.88056 0.36503 0.38302 0.0
N1742 N 0.90804 0.33532 0.38976 0.0
N1743 N 0.85982 0.36928 0.41853 0.0
C1744 C 0.87505 0.34606 0.43791 0.0
C1745 C 0.90113 0.32744 0.42217 0.0
C1746 C 0.57426 0.92483 0.85662 0.0
C1747 C 0.6038 0.92706 0.8377 0.0
C1748 C 0.56397 0.89438 0.8718 0.0
C1749 C 0.58221 0.8645 0.8679 0.0
H1750 H 0.55897 0.94688 0.85983 0.0
H1751 H 0.54082 0.89396 0.88577 0.0
S1752 S 0.66108 0.85659 0.8203 0.0
N1753 N 0.65143 0.8968 0.81624 0.0
N1754 N 0.63132 0.83923 0.84347 0.0
C1755 C 0.61176 0.86637 0.84895 0.0
C1756 C 0.62277 0.8977 0.83426 0.0
C1757 C 0.94274 0.15544 0.36058 0.0
C1758 C 0.9736 0.17044 0.34919 0.0
C1759 C 0.92377 0.12745 0.34173 0.0
C1760 C 0.93439 0.11324 0.31021 0.0
H1761 H 0.93304 0.16528 0.38446 0.0
H1762 H 0.9005 0.11691 0.35207 0.0
S1763 S 1.01316 0.14307 0.26833 0.0
N1764 N 0.01425 0.16783 0.30441 0.0
N1765 N 0.9776 0.1176 0.26799 0.0
C1766 C 0.96493 0.12837 0.29823 0.0
C1767 C 0.98474 0.15619 0.31792 0.0
C1768 C 0.56626 0.1243 0.73388 0.0
C1769 C 0.59575 0.11013 0.72108 0.0
C1770 C 0.55067 0.15171 0.71864 0.0
C1771 C 0.56351 0.16659 0.68956 0.0
H1772 H 0.5549 0.11421 0.7561 0.0
H1773 H 0.52814 0.16121 0.72991 0.0
S1774 S 0.64001 0.13922 0.6453 0.0
N1775 N 0.63709 0.11342 0.67707 0.0
N1776 N 0.6079 0.16454 0.64845 0.0
C1777 C 0.59298 0.15268 0.67634 0.0
C1778 C 0.609 0.12473 0.69202 0.0
C1779 C 0.15381 0.3204 0.98079 0.0
C1780 C 0.1689 0.35116 0.9694 0.0
C1781 C 0.12634 0.30113 0.96154 0.0
C1782 C 0.11202 0.31187 0.93016 0.0
H1783 H 0.16332 0.31085 1.00482 0.0
H1784 H 0.11625 0.27757 0.97159 0.0
S1785 S 0.14138 0.39094 0.88878 0.0
N1786 N 0.16698 0.39148 0.9243 0.0
N1787 N 0.11524 0.35585 0.88873 0.0
C1788 C 0.12664 0.34276 0.91854 0.0
C1789 C 0.15492 0.36222 0.93797 0.0
C1790 C 0.41363 0.67185 0.4351 0.0
C1791 C 0.41667 0.6997 0.414 0.0
C1792 C 0.38207 0.66216 0.44885 0.0
C1793 C 0.35262 0.6807 0.44306 0.0
H1794 H 0.4358 0.65736 0.44095 0.0
H1795 H 0.38099 0.64052 0.4649 0.0
S1796 S 0.34714 0.75635 0.39052 0.0
N1797 N 0.38729 0.74574 0.38814 0.0
N1798 N 0.32873 0.72835 0.41484 0.0
C1799 C 0.35544 0.70875 0.42226 0.0
C1800 C 0.38721 0.71802 0.40753 0.0
C1801 C 0.87127 0.56967 0.89596 0.0
C1802 C 0.86397 0.58507 0.86481 0.0
C1803 C 0.85629 0.58019 0.92647 0.0
C1804 C 0.83413 0.60724 0.92746 0.0
H1805 H 0.88789 0.54851 0.89662 0.0
H1806 H 0.86222 0.56706 0.94955 0.0
S1807 S 0.80695 0.65656 0.85333 0.0
N1808 N 0.83279 0.62878 0.83701 0.0
N1809 N 0.80579 0.64941 0.89458 0.0
C1810 C 0.82716 0.6234 0.89675 0.0
C1811 C 0.84172 0.61208 0.86541 0.0
C1812 C 0.67564 0.5905 0.15461 0.0
C1813 C 0.68842 0.56115 0.16906 0.0
C1814 C 0.69147 0.60624 0.12731 0.0
C1815 C 0.72086 0.59342 0.11289 0.0
H1816 H 0.6532 0.60158 0.1645 0.0
H1817 H 0.68044 0.62867 0.11741 0.0
S1818 S 0.76483 0.51706 0.14101 0.0
N1819 N 0.73259 0.52 0.16613 0.0
N1820 N 0.76197 0.54923 0.11587 0.0
C1821 C 0.73382 0.56409 0.12715 0.0
C1822 C 0.71778 0.54813 0.15481 0.0
C1823 C 0.71223 0.41094 0.38563 0.0
C1824 C 0.69646 0.41775 0.41669 0.0
C1825 C 0.7018 0.42611 0.35524 0.0
C1826 C 0.67448 0.44796 0.35428 0.0
H1827 H 0.7336 0.39457 0.38498 0.0
H1828 H 0.71521 0.42057 0.33223 0.0
S1829 S 0.62416 0.47379 0.42819 0.0
N1830 N 0.65213 0.44813 0.44445 0.0
N1831 N 0.63164 0.47545 0.38704 0.0
C1832 C 0.65795 0.45442 0.38488 0.0
C1833 C 0.66918 0.43968 0.41611 0.0
C1834 C 0.82149 0.47846 0.65464 0.0
C1835 C 0.85238 0.46725 0.66959 0.0
C1836 C 0.80225 0.45923 0.62718 0.0
C1837 C 0.81307 0.42795 0.61271 0.0
H1838 H 0.81182 0.50239 0.66422 0.0
H1839 H 0.77864 0.46926 0.61719 0.0
S1840 S 0.89235 0.38686 0.64183 0.0
N1841 N 0.89285 0.42233 0.66751 0.0
N1842 N 0.85718 0.38669 0.61577 0.0
C1843 C 0.84402 0.4164 0.62727 0.0
C1844 C 0.86351 0.43588 0.65554 0.0
C1845 C 0.44689 0.13694 0.22465 0.0
C1846 C 0.43597 0.10581 0.2055 0.0
C1847 C 0.4682 0.16246 0.21073 0.0
C1848 C 0.4791 0.15816 0.17689 0.0
H1849 H 0.44015 0.14101 0.25108 0.0
H1850 H 0.47637 0.1857 0.22679 0.0
S1851 S 0.4559 0.0819 0.11544 0.0
N1852 N 0.43664 0.07264 0.15052 0.0
N1853 N 0.47592 0.12046 0.12431 0.0
C1854 C 0.46734 0.12755 0.15716 0.0
C1855 C 0.44606 0.10148 0.17147 0.0
C1856 C 0.07474 0.8898 0.65544 0.0
C1857 C 0.08672 0.85802 0.66434 0.0
C1858 C 0.09038 0.92138 0.67023 0.0
C1859 C 0.11893 0.92292 0.6947 0.0
H1860 H 0.05239 0.89047 0.63753 0.0
H1861 H 0.07935 0.94478 0.66282 0.0
S1862 S 0.16315 0.84724 0.72387 0.0
N1863 N 0.13085 0.83029 0.69723 0.0
N1864 N 0.16039 0.88932 0.7246 0.0
C1865 C 0.13224 0.89135 0.70256 0.0
C1866 C 0.11612 0.8591 0.68762 0.0
C1867 C 0.49131 0.88207 0.31378 0.0
C1868 C 0.47459 0.86414 0.33883 0.0
C1869 C 0.47552 0.90795 0.29672 0.0
C1870 C 0.44203 0.91682 0.30349 0.0
H1871 H 0.51696 0.87611 0.30723 0.0
H1872 H 0.48967 0.92081 0.27766 0.0
S1873 S 0.38681 0.8775 0.36661 0.0
N1874 N 0.42256 0.85705 0.36968 0.0
N1875 N 0.39264 0.90557 0.33721 0.0
C1876 C 0.42488 0.89909 0.32845 0.0
C1877 C 0.44124 0.87289 0.34625 0.0
C1878 C 0.88987 0.65644 0.07613 0.0
C1879 C 0.85821 0.66622 0.08785 0.0
C1880 C 0.92169 0.67138 0.09121 0.0
C1881 C 0.92354 0.69681 0.11892 0.0
H1882 H 0.89023 0.63766 0.0544 0.0
H1883 H 0.94503 0.6633 0.08045 0.0
S1884 S 0.84831 0.72993 0.16131 0.0
N1885 N 0.83101 0.70174 0.13049 0.0
N1886 N 0.89039 0.72975 0.15863 0.0
C1887 C 0.89209 0.70595 0.13177 0.0
C1888 C 0.85965 0.69077 0.11632 0.0
C1889 C 0.65088 0.29527 0.60284 0.0
C1890 C 0.6192 0.31016 0.60449 0.0
C1891 C 0.67894 0.31224 0.58843 0.0
C1892 C 0.67617 0.34422 0.57364 0.0
H1893 H 0.65421 0.27057 0.61334 0.0
H1894 H 0.70297 0.2999 0.58891 0.0
S1895 S 0.59797 0.39387 0.5717 0.0
N1896 N 0.58651 0.35897 0.59116 0.0
N1897 N 0.63836 0.39006 0.56241 0.0
C1898 C 0.64431 0.35926 0.57517 0.0
C1899 C 0.6161 0.34241 0.59089 0.0
C1900 C 0.17371 0.45205 0.10042 0.0
C1901 C 0.20604 0.43822 0.10577 0.0
C1902 C 0.15965 0.47237 0.1265 0.0
C1903 C 0.17765 0.48059 0.15887 0.0
H1904 H 0.15917 0.44733 0.07568 0.0
H1905 H 0.13478 0.4824 0.12088 0.0
S1906 S 0.2634 0.45092 0.18612 0.0
N1907 N 0.25544 0.43391 0.14619 0.0
N1908 N 0.22967 0.4726 0.1948 0.0
C1909 C 0.20997 0.46673 0.16461 0.0
C1910 C 0.22394 0.44545 0.13825 0.0
C1911 C 0.31036 0.48753 0.87845 0.0
C1912 C 0.34291 0.47931 0.86793 0.0
C1913 C 0.29455 0.47035 0.90431 0.0
C1914 C 0.31032 0.44381 0.92076 0.0
H1915 H 0.29683 0.50763 0.86671 0.0
H1916 H 0.26955 0.47796 0.91131 0.0
S1917 S 0.39566 0.41211 0.90293 0.0
N1918 N 0.39052 0.44274 0.87612 0.0
N1919 N 0.36071 0.41022 0.92474 0.0
C1920 C 0.34289 0.43516 0.91054 0.0
C1921 C 0.35922 0.45299 0.88425 0.0
C1922 C 0.29813 0.60468 0.64844 0.0
C1923 C 0.31194 0.60397 0.6161 0.0
C1924 C 0.31454 0.58958 0.67633 0.0
C1925 C 0.3448 0.5718 0.67283 0.0
H1926 H 0.27476 0.61754 0.6524 0.0
H1927 H 0.30312 0.59196 0.70085 0.0
S1928 S 0.39127 0.56309 0.59276 0.0
N1929 N 0.35806 0.5853 0.58197 0.0
N1930 N 0.38797 0.55532 0.63363 0.0
C1931 C 0.35879 0.571 0.64032 0.0
C1932 C 0.34257 0.58736 0.61221 0.0
C1933 C 0.18959 0.61328 0.35946 0.0
C1934 C 0.16254 0.58721 0.35827 0.0
C1935 C 0.20505 0.62859 0.39094 0.0
C1936 C 0.19441 0.61853 0.42294 0.0
H1937 H 0.19945 0.62169 0.33582 0.0
H1938 H 0.22617 0.64797 0.39004 0.0
S1939 S 0.12319 0.55286 0.43462 0.0
N1940 N 0.12476 0.55311 0.3924 0.0
N1941 N 0.15363 0.58183 0.45122 0.0
C1942 C 0.16671 0.59318 0.42219 0.0
C1943 C 0.15085 0.57762 0.39008 0.0
loop_
_geom_bond_atom_site_label_1
_geom_bond_atom_site_label_2
_geom_bond_distance
_geom_bond_site_symmetry_2
_ccdc_geom_bond_type
Co0 O2 2.143 . S
Co0 O8 2.074 1_655 S
Co0 O11 2.093 . S
Co0 O24 2.097 . S
Co0 N41 2.151 1_655 S
Co0 N49 2.214 . S
Co1 O2 2.160 1_455 S
Co1 O7 2.058 . S
Co1 O17 2.057 . S
Co1 O32 2.037 1_455 S
Co1 N36 2.145 . S
Co1 N57 2.257 1_455 S
O2 Co0 2.143 . S
O2 Co1 2.160 1_655 S
C3 O4 1.278 . S
C3 O11 1.224 . S
O4 C3 1.278 . S
C5 O6 1.245 . S
C5 O17 1.232 . S
O6 C5 1.245 . S
O7 Co1 2.058 . S
O7 C33 1.269 . S
O8 Co0 2.074 1_455 S
O8 C33 1.257 . S
H9 C34 0.930 . S
H10 C40 0.930 . S
O11 Co0 2.093 . S
O11 C3 1.224 . S
H12 C44 0.929 . S
H13 C46 0.930 . S
H14 C47 0.930 . S
H15 C45 0.929 . S
H16 C48 0.928 . S
O17 Co1 2.057 . S
O17 C5 1.232 . S
H18 C37 0.929 . S
H19 C38 0.929 . S
H20 C50 0.931 . S
H21 C42 0.929 . S
H22 C51 0.930 . S
H23 C43 0.931 . S
O24 Co0 2.097 . S
O24 C52 1.214 . S
H25 C53 0.929 . S
H26 C54 0.929 . S
H27 C55 0.930 . S
H28 C56 0.929 . S
H29 C58 0.930 . S
H30 C35 0.930 . S
H31 C39 0.930 . S
O32 Co1 2.037 1_655 S
O32 C52 1.234 . S
C33 O7 1.269 . S
C33 O8 1.257 . S
C34 H9 0.930 . S
C34 C37 1.388 . S
C34 C39 1.418 . S
C35 H30 0.930 . S
C35 C38 1.404 . S
C35 C39 1.353 . S
N36 Co1 2.145 . S
N36 C37 1.397 . S
N36 C38 1.334 . S
C37 H18 0.929 . S
C37 C34 1.388 . S
C37 N36 1.397 . S
C38 H19 0.929 . S
C38 C35 1.404 . S
C38 N36 1.334 . S
C39 H31 0.930 . S
C39 C34 1.418 . S
C39 C35 1.353 . S
C40 H10 0.930 . S
C40 N41 1.330 1_655 S
C40 C42 1.446 1_655 S
N41 Co0 2.151 1_455 S
N41 C40 1.330 1_455 S
N41 C45 1.418 . S
C42 H21 0.929 . S
C42 C40 1.446 1_455 S
C42 C43 1.332 . S
C43 H23 0.931 . S
C43 C42 1.332 . S
C43 C44 1.267 . S
C44 H12 0.929 . S
C44 C43 1.267 . S
C44 C45 1.251 . S
C45 H15 0.929 . S
C45 N41 1.418 . S
C45 C44 1.251 . S
C46 H13 0.930 . S
C46 C48 1.406 . S
C46 C51 1.261 . S
C47 H14 0.930 . S
C47 N49 1.325 . S
C47 C50 1.357 . S
C48 H16 0.928 . S
C48 C46 1.406 . S
C48 N49 1.261 . S
N49 Co0 2.214 . S
N49 C47 1.325 . S
N49 C48 1.261 . S
C50 H20 0.931 . S
C50 C47 1.357 . S
C50 C51 1.312 . S
C51 H22 0.930 . S
C51 C46 1.261 . S
C51 C50 1.312 . S
C52 O24 1.214 . S
C52 O32 1.234 . S
C53 H25 0.929 . S
C53 C56 1.391 . S
C53 C58 1.391 . S
C54 H26 0.929 . S
C54 C55 1.390 . S
C54 N57 1.391 . S
C55 H27 0.930 . S
C55 C54 1.390 . S
C55 C56 1.392 . S
C56 H28 0.929 . S
C56 C53 1.391 . S
C56 C55 1.392 . S
N57 Co1 2.257 1_655 S
N57 C54 1.391 . S
N57 C58 1.388 . S
C58 H29 0.930 . S
C58 C53 1.391 . S
C58 N57 1.388 . S
Co59 O61 2.143 1_455 S
Co59 O67 2.074 . S
Co59 O70 2.093 1_455 S
Co59 O83 2.097 . S
Co59 N100 2.151 1_455 S
Co59 N108 2.214 . S
Co60 O61 2.160 1_455 S
Co60 O66 2.058 . S
Co60 O76 2.057 1_455 S
Co60 O91 2.037 . S
Co60 N95 2.145 . S
Co60 N116 2.257 1_455 S
O61 Co59 2.143 1_655 S
O61 Co60 2.160 1_655 S
C62 O63 1.278 . S
C62 O70 1.224 . S
O63 C62 1.278 . S
C64 O65 1.245 . S
C64 O76 1.232 . S
O65 C64 1.245 . S
O66 Co60 2.058 . S
O66 C92 1.269 . S
O67 Co59 2.074 . S
O67 C92 1.257 . S
H68 C93 0.930 . S
H69 C99 0.930 . S
O70 Co59 2.093 1_655 S
O70 C62 1.224 . S
H71 C103 0.929 . S
H72 C105 0.930 . S
H73 C106 0.930 . S
H74 C104 0.929 . S
H75 C107 0.928 1_655 S
O76 Co60 2.057 1_655 S
O76 C64 1.232 . S
H77 C96 0.929 . S
H78 C97 0.929 . S
H79 C109 0.931 . S
H80 C101 0.929 . S
H81 C110 0.930 . S
H82 C102 0.931 . S
O83 Co59 2.097 . S
O83 C111 1.214 . S
H84 C112 0.929 . S
H85 C113 0.954 . S
H86 C114 0.930 . S
H87 C115 0.929 . S
H88 C117 0.930 . S
H89 C94 0.930 . S
H90 C98 0.930 . S
O91 Co60 2.037 . S
O91 C111 1.234 . S
C92 O66 1.269 . S
C92 O67 1.257 . S
C93 H68 0.930 . S
C93 C96 1.388 . S
C93 C98 1.418 . S
C94 H89 0.930 . S
C94 C97 1.404 . S
C94 C98 1.353 . S
N95 Co60 2.145 . S
N95 C96 1.397 . S
N95 C97 1.334 . S
C96 H77 0.929 . S
C96 C93 1.388 . S
C96 N95 1.397 . S
C97 H78 0.929 . S
C97 C94 1.404 . S
C97 N95 1.334 . S
C98 H90 0.930 . S
C98 C93 1.418 . S
C98 C94 1.353 . S
C99 H69 0.930 . S
C99 N100 1.330 . S
C99 C101 1.446 . S
N100 Co59 2.151 1_655 S
N100 C99 1.330 . S
N100 C104 1.418 1_655 S
C101 H80 0.929 . S
C101 C99 1.446 . S
C101 C102 1.332 . S
C102 H82 0.931 . S
C102 C101 1.332 . S
C102 C103 1.267 1_655 S
C103 H71 0.929 . S
C103 C102 1.267 1_455 S
C103 C104 1.251 . S
C104 H74 0.929 . S
C104 N100 1.418 1_455 S
C104 C103 1.251 . S
C105 H72 0.930 . S
C105 C107 1.406 . S
C105 C110 1.261 . S
C106 H73 0.930 . S
C106 N108 1.325 . S
C106 C109 1.357 . S
C107 H75 0.928 1_455 S
C107 C105 1.406 . S
C107 N108 1.261 . S
N108 Co59 2.214 . S
N108 C106 1.325 . S
N108 C107 1.261 . S
C109 H79 0.931 . S
C109 C106 1.357 . S
C109 C110 1.312 . S
C110 H81 0.930 . S
C110 C105 1.261 . S
C110 C109 1.312 . S
C111 O83 1.214 . S
C111 O91 1.234 . S
C112 H84 0.929 . S
C112 C115 1.391 . S
C112 C117 1.391 . S
C113 H85 0.954 . S
C113 C114 1.372 1_455 S
C113 N116 1.385 1_455 S
C114 H86 0.930 . S
C114 C113 1.372 1_655 S
C114 C115 1.392 . S
C115 H87 0.929 . S
C115 C112 1.391 . S
C115 C114 1.392 . S
N116 Co60 2.257 1_655 S
N116 C113 1.385 1_655 S
N116 C117 1.388 . S
C117 H88 0.930 . S
C117 C112 1.391 . S
C117 N116 1.388 . S
Co118 O120 2.143 . S
Co118 O126 2.074 . S
Co118 O129 2.093 . S
Co118 O142 2.097 . S
Co118 N159 2.151 . S
Co118 N167 2.214 . S
Co119 O120 2.160 . S
Co119 O125 2.058 . S
Co119 O135 2.057 . S
Co119 O150 2.037 . S
Co119 N154 2.145 . S
Co119 N175 2.257 . S
O120 Co118 2.143 . S
O120 Co119 2.160 . S
C121 O122 1.278 . S
C121 O129 1.224 . S
O122 C121 1.278 . S
C123 O124 1.245 . S
C123 O135 1.232 . S
O124 C123 1.245 . S
O125 Co119 2.058 . S
O125 C151 1.269 . S
O126 Co118 2.074 . S
O126 C151 1.257 . S
H127 C152 0.930 . S
H128 C158 0.930 . S
O129 Co118 2.093 . S
O129 C121 1.224 . S
H130 C162 0.929 . S
H131 C164 0.930 . S
H132 C165 0.930 . S
H133 C163 0.929 . S
H134 C166 0.928 . S
O135 Co119 2.057 . S
O135 C123 1.232 . S
H136 C155 0.929 . S
H137 C156 0.929 . S
H138 C168 0.931 . S
H139 C160 0.929 1_554 S
H140 C169 0.930 . S
H141 C161 0.931 . S
O142 Co118 2.097 . S
O142 C170 1.214 . S
H143 C171 0.929 . S
H144 C172 0.929 . S
H145 C173 0.930 . S
H146 C174 0.929 . S
H147 C176 0.930 . S
H148 C153 0.930 . S
H149 C157 0.930 . S
O150 Co119 2.037 . S
O150 C170 1.234 . S
C151 O125 1.269 . S
C151 O126 1.257 . S
C152 H127 0.930 . S
C152 C155 1.388 . S
C152 C157 1.418 . S
C153 H148 0.930 . S
C153 C156 1.404 . S
C153 C157 1.353 . S
N154 Co119 2.145 . S
N154 C155 1.397 . S
N154 C156 1.334 . S
C155 H136 0.929 . S
C155 C152 1.388 . S
C155 N154 1.397 . S
C156 H137 0.929 . S
C156 C153 1.404 . S
C156 N154 1.334 . S
C157 H149 0.930 . S
C157 C152 1.418 . S
C157 C153 1.353 . S
C158 H128 0.930 . S
C158 N159 1.330 . S
C158 C160 1.446 . S
N159 Co118 2.151 . S
N159 C158 1.330 . S
N159 C163 1.418 . S
C160 H139 0.929 1_556 S
C160 C158 1.446 . S
C160 C161 1.332 1_556 S
C161 H141 0.931 . S
C161 C160 1.332 1_554 S
C161 C162 1.267 . S
C162 H130 0.929 . S
C162 C161 1.267 . S
C162 C163 1.251 1_554 S
C163 H133 0.929 . S
C163 N159 1.418 . S
C163 C162 1.251 1_556 S
C164 H131 0.930 . S
C164 C166 1.406 1_554 S
C164 C169 1.261 . S
C165 H132 0.930 . S
C165 N167 1.325 . S
C165 C168 1.357 . S
C166 H134 0.928 . S
C166 C164 1.406 1_556 S
C166 N167 1.261 . S
N167 Co118 2.214 . S
N167 C165 1.325 . S
N167 C166 1.261 . S
C168 H138 0.931 . S
C168 C165 1.357 . S
C168 C169 1.312 1_556 S
C169 H140 0.930 . S
C169 C164 1.261 . S
C169 C168 1.312 1_554 S
C170 O142 1.214 . S
C170 O150 1.234 . S
C171 H143 0.929 . S
C171 C174 1.391 . S
C171 C176 1.391 . S
C172 H144 0.929 . S
C172 C173 1.390 . S
C172 N175 1.391 . S
C173 H145 0.930 . S
C173 C172 1.390 . S
C173 C174 1.392 . S
C174 H146 0.929 . S
C174 C171 1.391 . S
C174 C173 1.392 . S
N175 Co119 2.257 . S
N175 C172 1.391 . S
N175 C176 1.388 . S
C176 H147 0.930 . S
C176 C171 1.391 . S
C176 N175 1.388 . S
Co177 O179 2.143 . S
Co177 O185 2.074 . S
Co177 O188 2.093 . S
Co177 O201 2.097 . S
Co177 N218 2.151 . S
Co177 N226 2.214 . S
Co178 O179 2.160 . S
Co178 O184 2.058 . S
Co178 O194 2.057 . S
Co178 O209 2.037 . S
Co178 N213 2.145 . S
Co178 N234 2.257 . S
O179 Co177 2.143 . S
O179 Co178 2.160 . S
C180 O181 1.278 . S
C180 O188 1.224 . S
O181 C180 1.278 . S
C182 O183 1.245 . S
C182 O194 1.232 . S
O183 C182 1.245 . S
O184 Co178 2.058 . S
O184 C210 1.269 . S
O185 Co177 2.074 . S
O185 C210 1.257 . S
H186 C211 0.930 . S
H187 C217 0.930 . S
O188 Co177 2.093 . S
O188 C180 1.224 . S
H189 C221 0.929 . S
H190 C223 0.930 . S
H191 C224 0.930 . S
H192 C222 0.929 . S
H193 C225 0.928 . S
O194 Co178 2.057 . S
O194 C182 1.232 . S
H195 C214 0.929 . S
H196 C215 0.929 . S
H197 C227 0.931 . S
H198 C219 0.929 1_556 S
H199 C228 0.921 1_556 S
H200 C220 0.931 . S
O201 Co177 2.097 . S
O201 C229 1.214 . S
H202 C230 0.929 . S
H203 C231 0.929 . S
H204 C232 0.930 . S
H205 C233 0.929 . S
H206 C235 0.930 . S
H207 C212 0.930 . S
H208 C216 0.930 . S
O209 Co178 2.037 . S
O209 C229 1.234 . S
C210 O184 1.269 . S
C210 O185 1.257 . S
C211 H186 0.930 . S
C211 C214 1.388 . S
C211 C216 1.418 . S
C212 H207 0.930 . S
C212 C215 1.404 . S
C212 C216 1.353 . S
N213 Co178 2.145 . S
N213 C214 1.397 . S
N213 C215 1.334 . S
C214 H195 0.929 . S
C214 C211 1.388 . S
C214 N213 1.397 . S
C215 H196 0.929 . S
C215 C212 1.404 . S
C215 N213 1.334 . S
C216 H208 0.930 . S
C216 C211 1.418 . S
C216 C212 1.353 . S
C217 H187 0.930 . S
C217 N218 1.330 . S
C217 C219 1.446 . S
N218 Co177 2.151 . S
N218 C217 1.330 . S
N218 C222 1.418 . S
C219 H198 0.929 1_554 S
C219 C217 1.446 . S
C219 C220 1.332 1_554 S
C220 H200 0.931 . S
C220 C219 1.332 1_556 S
C220 C221 1.267 . S
C221 H189 0.929 . S
C221 C220 1.267 . S
C221 C222 1.251 1_556 S
C222 H192 0.929 . S
C222 N218 1.418 . S
C222 C221 1.251 1_554 S
C223 H190 0.930 . S
C223 C225 1.406 1_556 S
C223 C228 1.258 1_556 S
C224 H191 0.930 . S
C224 N226 1.325 . S
C224 C227 1.357 . S
C225 H193 0.928 . S
C225 C223 1.406 1_554 S
C225 N226 1.261 . S
N226 Co177 2.214 . S
N226 C224 1.325 . S
N226 C225 1.261 . S
C227 H197 0.931 . S
C227 C224 1.357 . S
C227 C228 1.324 . S
C228 H199 0.921 1_554 S
C228 C223 1.258 1_554 S
C228 C227 1.324 . S
C229 O201 1.214 . S
C229 O209 1.234 . S
C230 H202 0.929 . S
C230 C233 1.391 . S
C230 C235 1.391 . S
C231 H203 0.929 . S
C231 C232 1.390 . S
C231 N234 1.391 . S
C232 H204 0.930 . S
C232 C231 1.390 . S
C232 C233 1.392 . S
C233 H205 0.929 . S
C233 C230 1.391 . S
C233 C232 1.392 . S
N234 Co178 2.257 . S
N234 C231 1.391 . S
N234 C235 1.388 . S
C235 H206 0.930 . S
C235 C230 1.391 . S
C235 N234 1.388 . S
Co236 O238 2.143 . S
Co236 O244 2.074 1_455 S
Co236 O247 2.093 . S
Co236 O260 2.097 . S
Co236 N277 2.151 . S
Co236 N285 2.214 . S
Co237 O238 2.160 1_655 S
Co237 O243 2.058 . S
Co237 O253 2.057 . S
Co237 O268 2.037 1_655 S
Co237 N272 2.145 . S
Co237 N293 2.257 1_655 S
O238 Co236 2.143 . S
O238 Co237 2.160 1_455 S
C239 O240 1.278 . S
C239 O247 1.224 . S
O240 C239 1.278 . S
C241 O242 1.245 . S
C241 O253 1.232 . S
O242 C241 1.245 . S
O243 Co237 2.058 . S
O243 C269 1.269 . S
O244 Co236 2.074 1_655 S
O244 C269 1.257 . S
H245 C270 0.930 . S
H246 C276 0.930 . S
O247 Co236 2.093 . S
O247 C239 1.224 . S
H248 C280 0.929 1_556 S
H249 C282 0.930 1_556 S
H250 C283 0.930 . S
H251 C281 0.929 . S
H252 C284 0.928 . S
O253 Co237 2.057 . S
O253 C241 1.232 . S
H254 C273 0.929 . S
H255 C274 0.929 . S
H256 C286 0.931 . S
H257 C278 0.929 . S
H258 C287 0.930 1_556 S
H259 C279 0.951 . S
O260 Co236 2.097 . S
O260 C288 1.214 . S
H261 C289 0.929 . S
H262 C290 0.929 . S
H263 C291 0.930 . S
H264 C292 0.929 . S
H265 C294 0.930 . S
H266 C271 0.930 . S
H267 C275 0.930 . S
O268 Co237 2.037 1_455 S
O268 C288 1.234 . S
C269 O243 1.269 . S
C269 O244 1.257 . S
C270 H245 0.930 . S
C270 C273 1.388 . S
C270 C275 1.418 . S
C271 H266 0.930 . S
C271 C274 1.404 . S
C271 C275 1.353 . S
N272 Co237 2.145 . S
N272 C273 1.397 . S
N272 C274 1.334 . S
C273 H254 0.929 . S
C273 C270 1.388 . S
C273 N272 1.397 . S
C274 H255 0.929 . S
C274 C271 1.404 . S
C274 N272 1.334 . S
C275 H267 0.930 . S
C275 C270 1.418 . S
C275 C271 1.353 . S
C276 H246 0.930 . S
C276 N277 1.330 . S
C276 C278 1.446 . S
N277 Co236 2.151 . S
N277 C276 1.330 . S
N277 C281 1.418 1_455 S
C278 H257 0.929 . S
C278 C276 1.446 . S
C278 C279 1.318 1_454 S
C279 H259 0.951 . S
C279 C278 1.318 1_656 S
C279 C280 1.262 1_556 S
C280 H248 0.929 1_554 S
C280 C279 1.262 1_554 S
C280 C281 1.251 . S
C281 H251 0.929 . S
C281 N277 1.418 1_655 S
C281 C280 1.251 . S
C282 H249 0.930 1_554 S
C282 C284 1.406 . S
C282 C287 1.261 . S
C283 H250 0.930 . S
C283 N285 1.325 . S
C283 C286 1.357 . S
C284 H252 0.928 . S
C284 C282 1.406 . S
C284 N285 1.261 . S
N285 Co236 2.214 . S
N285 C283 1.325 . S
N285 C284 1.261 . S
C286 H256 0.931 . S
C286 C283 1.357 . S
C286 C287 1.312 . S
C287 H258 0.930 1_554 S
C287 C282 1.261 . S
C287 C286 1.312 . S
C288 O260 1.214 . S
C288 O268 1.234 . S
C289 H261 0.929 . S
C289 C292 1.391 . S
C289 C294 1.391 . S
C290 H262 0.929 . S
C290 C291 1.390 . S
C290 N293 1.391 . S
C291 H263 0.930 . S
C291 C290 1.390 . S
C291 C292 1.392 . S
C292 H264 0.929 . S
C292 C289 1.391 . S
C292 C291 1.392 . S
N293 Co237 2.257 1_455 S
N293 C290 1.391 . S
N293 C294 1.388 . S
C294 H265 0.930 . S
C294 C289 1.391 . S
C294 N293 1.388 . S
Co295 O297 2.143 . S
Co295 O303 2.074 . S
Co295 O306 2.093 . S
Co295 O319 2.097 . S
Co295 N336 2.151 . S
Co295 N344 2.214 . S
Co296 O297 2.160 . S
Co296 O302 2.058 . S
Co296 O312 2.057 . S
Co296 O327 2.037 . S
Co296 N331 2.145 . S
Co296 N352 2.257 . S
O297 Co295 2.143 . S
O297 Co296 2.160 . S
C298 O299 1.278 . S
C298 O306 1.224 . S
O299 C298 1.278 . S
C300 O301 1.245 . S
C300 O312 1.232 . S
O301 C300 1.245 . S
O302 Co296 2.058 . S
O302 C328 1.269 . S
O303 Co295 2.074 . S
O303 C328 1.257 . S
H304 C329 0.930 . S
H305 C335 0.930 . S
O306 Co295 2.093 . S
O306 C298 1.224 . S
H307 C339 0.929 . S
H308 C341 0.930 . S
H309 C342 0.930 . S
H310 C340 0.929 . S
H311 C343 0.928 . S
O312 Co296 2.057 . S
O312 C300 1.232 . S
H313 C332 0.929 . S
H314 C333 0.929 . S
H315 C345 0.931 . S
H316 C337 0.929 . S
H317 C346 0.930 . S
H318 C338 0.931 . S
O319 Co295 2.097 . S
O319 C347 1.214 . S
H320 C348 0.929 . S
H321 C349 0.929 . S
H322 C350 0.930 . S
H323 C351 0.929 . S
H324 C353 0.930 . S
H325 C330 0.930 . S
H326 C334 0.930 . S
O327 Co296 2.037 . S
O327 C347 1.234 . S
C328 O302 1.269 . S
C328 O303 1.257 . S
C329 H304 0.930 . S
C329 C332 1.388 . S
C329 C334 1.418 . S
C330 H325 0.930 . S
C330 C333 1.404 . S
C330 C334 1.353 . S
N331 Co296 2.145 . S
N331 C332 1.397 . S
N331 C333 1.334 . S
C332 H313 0.929 . S
C332 C329 1.388 . S
C332 N331 1.397 . S
C333 H314 0.929 . S
C333 C330 1.404 . S
C333 N331 1.334 . S
C334 H326 0.930 . S
C334 C329 1.418 . S
C334 C330 1.353 . S
C335 H305 0.930 . S
C335 N336 1.330 . S
C335 C337 1.446 . S
N336 Co295 2.151 . S
N336 C335 1.330 . S
N336 C340 1.418 . S
C337 H316 0.929 . S
C337 C335 1.446 . S
C337 C338 1.332 . S
C338 H318 0.931 . S
C338 C337 1.332 . S
C338 C339 1.267 . S
C339 H307 0.929 . S
C339 C338 1.267 . S
C339 C340 1.251 . S
C340 H310 0.929 . S
C340 N336 1.418 . S
C340 C339 1.251 . S
C341 H308 0.930 . S
C341 C343 1.406 . S
C341 C346 1.261 . S
C342 H309 0.930 . S
C342 N344 1.325 . S
C342 C345 1.357 . S
C343 H311 0.928 . S
C343 C341 1.406 . S
C343 N344 1.261 . S
N344 Co295 2.214 . S
N344 C342 1.325 . S
N344 C343 1.261 . S
C345 H315 0.931 . S
C345 C342 1.357 . S
C345 C346 1.312 . S
C346 H317 0.930 . S
C346 C341 1.261 . S
C346 C345 1.312 . S
C347 O319 1.214 . S
C347 O327 1.234 . S
C348 H320 0.929 . S
C348 C351 1.391 . S
C348 C353 1.391 . S
C349 H321 0.929 . S
C349 C350 1.390 . S
C349 N352 1.391 . S
C350 H322 0.930 . S
C350 C349 1.390 . S
C350 C351 1.392 . S
C351 H323 0.929 . S
C351 C348 1.391 . S
C351 C350 1.392 . S
N352 Co296 2.257 . S
N352 C349 1.391 . S
N352 C353 1.388 . S
C353 H324 0.930 . S
C353 C348 1.391 . S
C353 N352 1.388 . S
Co354 O356 2.143 . S
Co354 O362 2.074 . S
Co354 O365 2.093 . S
Co354 O378 2.097 . S
Co354 N395 2.151 . S
Co354 N403 2.214 . S
Co355 O356 2.160 . S
Co355 O361 2.058 . S
Co355 O371 2.057 . S
Co355 O386 2.037 . S
Co355 N390 2.145 . S
Co355 N411 2.257 . S
O356 Co354 2.143 . S
O356 Co355 2.160 . S
C357 O358 1.278 . S
C357 O365 1.224 . S
O358 C357 1.278 . S
C359 O360 1.245 . S
C359 O371 1.232 . S
O360 C359 1.245 . S
O361 Co355 2.058 . S
O361 C387 1.269 . S
O362 Co354 2.074 . S
O362 C387 1.257 . S
H363 C388 0.930 . S
H364 C394 0.930 . S
O365 Co354 2.093 . S
O365 C357 1.224 . S
H366 C398 0.929 . S
H367 C400 0.930 . S
H368 C401 0.930 . S
H369 C399 0.929 . S
H370 C402 0.928 . S
O371 Co355 2.057 . S
O371 C359 1.232 . S
H372 C391 0.929 . S
H373 C392 0.929 . S
H374 C404 0.931 . S
H375 C396 0.929 . S
H376 C405 0.930 . S
H377 C397 0.931 . S
O378 Co354 2.097 . S
O378 C406 1.214 . S
H379 C407 0.929 . S
H380 C408 0.929 . S
H381 C409 0.930 . S
H382 C410 0.929 . S
H383 C412 0.930 . S
H384 C389 0.930 . S
H385 C393 0.930 . S
O386 Co355 2.037 . S
O386 C406 1.234 . S
C387 O361 1.269 . S
C387 O362 1.257 . S
C388 H363 0.930 . S
C388 C391 1.388 . S
C388 C393 1.418 . S
C389 H384 0.930 . S
C389 C392 1.404 . S
C389 C393 1.353 . S
N390 Co355 2.145 . S
N390 C391 1.397 . S
N390 C392 1.334 . S
C391 H372 0.929 . S
C391 C388 1.388 . S
C391 N390 1.397 . S
C392 H373 0.929 . S
C392 C389 1.404 . S
C392 N390 1.334 . S
C393 H385 0.930 . S
C393 C388 1.418 . S
C393 C389 1.353 . S
C394 H364 0.930 . S
C394 N395 1.330 . S
C394 C396 1.446 . S
N395 Co354 2.151 . S
N395 C394 1.330 . S
N395 C399 1.418 . S
C396 H375 0.929 . S
C396 C394 1.446 . S
C396 C397 1.332 . S
C397 H377 0.931 . S
C397 C396 1.332 . S
C397 C398 1.267 . S
C398 H366 0.929 . S
C398 C397 1.267 . S
C398 C399 1.251 . S
C399 H369 0.929 . S
C399 N395 1.418 . S
C399 C398 1.251 . S
C400 H367 0.930 . S
C400 C402 1.406 . S
C400 C405 1.261 . S
C401 H368 0.930 . S
C401 N403 1.325 . S
C401 C404 1.357 . S
C402 H370 0.928 . S
C402 C400 1.406 . S
C402 N403 1.261 . S
N403 Co354 2.214 . S
N403 C401 1.325 . S
N403 C402 1.261 . S
C404 H374 0.931 . S
C404 C401 1.357 . S
C404 C405 1.312 . S
C405 H376 0.930 . S
C405 C400 1.261 . S
C405 C404 1.312 . S
C406 O378 1.214 . S
C406 O386 1.234 . S
C407 H379 0.929 . S
C407 C410 1.391 . S
C407 C412 1.391 . S
C408 H380 0.929 . S
C408 C409 1.390 . S
C408 N411 1.391 . S
C409 H381 0.930 . S
C409 C408 1.390 . S
C409 C410 1.392 . S
C410 H382 0.929 . S
C410 C407 1.391 . S
C410 C409 1.392 . S
N411 Co355 2.257 . S
N411 C408 1.391 . S
N411 C412 1.388 . S
C412 H383 0.930 . S
C412 C407 1.391 . S
C412 N411 1.388 . S
Co413 O415 2.143 1_455 S
Co413 O421 2.074 . S
Co413 O424 2.093 1_455 S
Co413 O437 2.097 . S
Co413 N454 2.144 1_455 S
Co413 N462 2.214 . S
Co414 O415 2.160 1_455 S
Co414 O420 2.058 . S
Co414 O430 2.057 1_455 S
Co414 O445 2.037 . S
Co414 N449 2.145 . S
Co414 N470 2.257 1_455 S
O415 Co413 2.143 1_655 S
O415 Co414 2.160 1_655 S
C416 O417 1.278 . S
C416 O424 1.224 . S
O417 C416 1.278 . S
C418 O419 1.245 . S
C418 O430 1.232 . S
O419 C418 1.245 . S
O420 Co414 2.058 . S
O420 C446 1.269 . S
O421 Co413 2.074 . S
O421 C446 1.257 . S
H422 C447 0.930 . S
H423 C453 0.930 . S
O424 Co413 2.093 1_655 S
O424 C416 1.224 . S
H425 C457 0.929 . S
H426 C459 0.930 . S
H427 C460 0.930 . S
H428 C458 0.929 . S
H429 C461 0.928 . S
O430 Co414 2.057 1_655 S
O430 C418 1.232 . S
H431 C450 0.929 . S
H432 C451 0.929 . S
H433 C463 0.931 . S
H434 C455 0.929 . S
H435 C464 0.930 1_554 S
H436 C456 0.931 . S
O437 Co413 2.097 . S
O437 C465 1.214 . S
H438 C466 0.929 . S
H439 C467 0.929 1_455 S
H440 C468 0.930 . S
H441 C469 0.929 . S
H442 C471 0.930 . S
H443 C448 0.930 . S
H444 C452 0.930 . S
O445 Co414 2.037 . S
O445 C465 1.234 . S
C446 O420 1.269 . S
C446 O421 1.257 . S
C447 H422 0.930 . S
C447 C450 1.388 . S
C447 C452 1.418 . S
C448 H443 0.930 . S
C448 C451 1.404 . S
C448 C452 1.353 . S
N449 Co414 2.145 . S
N449 C450 1.397 . S
N449 C451 1.334 . S
C450 H431 0.929 . S
C450 C447 1.388 . S
C450 N449 1.397 . S
C451 H432 0.929 . S
C451 C448 1.404 . S
C451 N449 1.334 . S
C452 H444 0.930 . S
C452 C447 1.418 . S
C452 C448 1.353 . S
C453 H423 0.930 . S
C453 N454 1.352 . S
C453 C455 1.446 . S
N454 Co413 2.144 1_655 S
N454 C453 1.352 . S
N454 C458 1.404 1_655 S
C455 H434 0.929 . S
C455 C453 1.446 . S
C455 C456 1.332 1_556 S
C456 H436 0.931 . S
C456 C455 1.332 1_554 S
C456 C457 1.267 1_655 S
C457 H425 0.929 . S
C457 C456 1.267 1_455 S
C457 C458 1.251 1_554 S
C458 H428 0.929 . S
C458 N454 1.404 1_455 S
C458 C457 1.251 1_556 S
C459 H426 0.930 . S
C459 C461 1.406 1_554 S
C459 C464 1.261 1_554 S
C460 H427 0.930 . S
C460 N462 1.325 . S
C460 C463 1.357 . S
C461 H429 0.928 . S
C461 C459 1.406 1_556 S
C461 N462 1.261 . S
N462 Co413 2.214 . S
N462 C460 1.325 . S
N462 C461 1.261 . S
C463 H433 0.931 . S
C463 C460 1.357 . S
C463 C464 1.312 . S
C464 H435 0.930 1_556 S
C464 C459 1.261 1_556 S
C464 C463 1.312 . S
C465 O437 1.214 . S
C465 O445 1.234 . S
C466 H438 0.929 . S
C466 C469 1.391 . S
C466 C471 1.391 . S
C467 H439 0.929 1_655 S
C467 C468 1.390 . S
C467 N470 1.391 . S
C468 H440 0.930 . S
C468 C467 1.390 . S
C468 C469 1.392 . S
C469 H441 0.929 . S
C469 C466 1.391 . S
C469 C468 1.392 . S
N470 Co414 2.257 1_655 S
N470 C467 1.391 . S
N470 C471 1.388 . S
C471 H442 0.930 . S
C471 C466 1.391 . S
C471 N470 1.388 . S
Co472 O474 2.143 1_545 S
Co472 O480 2.074 1_545 S
Co472 O483 2.093 . S
Co472 O496 2.097 . S
Co472 N513 2.151 1_545 S
Co472 N521 2.214 . S
Co473 O474 2.160 . S
Co473 O479 2.058 . S
Co473 O489 2.057 . S
Co473 O504 2.037 1_565 S
Co473 N508 2.145 . S
Co473 N529 2.257 1_565 S
O474 Co472 2.143 1_565 S
O474 Co473 2.160 . S
C475 O476 1.278 . S
C475 O483 1.224 . S
O476 C475 1.278 . S
C477 O478 1.245 . S
C477 O489 1.232 . S
O478 C477 1.245 . S
O479 Co473 2.058 . S
O479 C505 1.269 . S
O480 Co472 2.074 1_565 S
O480 C505 1.257 . S
H481 C506 0.930 . S
H482 C512 0.930 . S
O483 Co472 2.093 . S
O483 C475 1.224 . S
H484 C516 0.929 . S
H485 C518 0.930 . S
H486 C519 0.930 . S
H487 C517 0.929 . S
H488 C520 0.928 . S
O489 Co473 2.057 . S
O489 C477 1.232 . S
H490 C509 0.929 1_545 S
H491 C510 0.929 . S
H492 C522 0.931 . S
H493 C514 0.929 . S
H494 C523 0.930 . S
H495 C515 0.931 . S
O496 Co472 2.097 . S
O496 C524 1.214 . S
H497 C525 0.929 . S
H498 C526 0.929 . S
H499 C527 0.930 . S
H500 C528 0.929 . S
H501 C530 0.930 1_565 S
H502 C507 0.930 . S
H503 C511 0.930 . S
O504 Co473 2.037 1_545 S
O504 C524 1.234 . S
C505 O479 1.269 . S
C505 O480 1.257 . S
C506 H481 0.930 . S
C506 C509 1.388 . S
C506 C511 1.418 . S
C507 H502 0.930 . S
C507 C510 1.404 . S
C507 C511 1.353 . S
N508 Co473 2.145 . S
N508 C509 1.397 . S
N508 C510 1.334 . S
C509 H490 0.929 1_565 S
C509 C506 1.388 . S
C509 N508 1.397 . S
C510 H491 0.929 . S
C510 C507 1.404 . S
C510 N508 1.334 . S
C511 H503 0.930 . S
C511 C506 1.418 . S
C511 C507 1.353 . S
C512 H482 0.930 . S
C512 N513 1.330 . S
C512 C514 1.446 . S
N513 Co472 2.151 1_565 S
N513 C512 1.330 . S
N513 C517 1.418 . S
C514 H493 0.929 . S
C514 C512 1.446 . S
C514 C515 1.332 . S
C515 H495 0.931 . S
C515 C514 1.332 . S
C515 C516 1.267 . S
C516 H484 0.929 . S
C516 C515 1.267 . S
C516 C517 1.251 . S
C517 H487 0.929 . S
C517 N513 1.418 . S
C517 C516 1.251 . S
C518 H485 0.930 . S
C518 C520 1.406 . S
C518 C523 1.261 . S
C519 H486 0.930 . S
C519 N521 1.325 . S
C519 C522 1.357 . S
C520 H488 0.928 . S
C520 C518 1.406 . S
C520 N521 1.261 . S
N521 Co472 2.214 . S
N521 C519 1.325 . S
N521 C520 1.261 . S
C522 H492 0.931 . S
C522 C519 1.357 . S
C522 C523 1.312 . S
C523 H494 0.930 . S
C523 C518 1.261 . S
C523 C522 1.312 . S
C524 O496 1.214 . S
C524 O504 1.234 . S
C525 H497 0.929 . S
C525 C528 1.391 . S
C525 C530 1.391 . S
C526 H498 0.929 . S
C526 C527 1.390 . S
C526 N529 1.391 . S
C527 H499 0.930 . S
C527 C526 1.390 . S
C527 C528 1.392 . S
C528 H500 0.929 . S
C528 C525 1.391 . S
C528 C527 1.392 . S
N529 Co473 2.257 1_545 S
N529 C526 1.391 . S
N529 C530 1.388 . S
C530 H501 0.930 1_545 S
C530 C525 1.391 . S
C530 N529 1.388 . S
Co531 O533 2.143 . S
Co531 O539 2.074 . S
Co531 O542 2.093 . S
Co531 O555 2.097 . S
Co531 N572 2.151 . S
Co531 N580 2.214 . S
Co532 O533 2.160 . S
Co532 O538 2.058 . S
Co532 O548 2.057 . S
Co532 O563 2.037 . S
Co532 N567 2.145 . S
Co532 N588 2.257 . S
O533 Co531 2.143 . S
O533 Co532 2.160 . S
C534 O535 1.278 . S
C534 O542 1.224 . S
O535 C534 1.278 . S
C536 O537 1.245 . S
C536 O548 1.232 . S
O537 C536 1.245 . S
O538 Co532 2.058 . S
O538 C564 1.269 . S
O539 Co531 2.074 . S
O539 C564 1.257 . S
H540 C565 0.930 . S
H541 C571 0.930 . S
O542 Co531 2.093 . S
O542 C534 1.224 . S
H543 C575 0.929 . S
H544 C577 0.930 . S
H545 C578 0.930 . S
H546 C576 0.929 . S
H547 C579 0.928 . S
O548 Co532 2.057 . S
O548 C536 1.232 . S
H549 C568 0.929 . S
H550 C569 0.929 . S
H551 C581 0.931 . S
H552 C573 0.929 . S
H553 C582 0.930 . S
H554 C574 0.931 . S
O555 Co531 2.097 . S
O555 C583 1.214 . S
H556 C584 0.929 . S
H557 C585 0.929 . S
H558 C586 0.930 1_565 S
H559 C587 0.929 1_565 S
H560 C589 0.930 . S
H561 C566 0.930 . S
H562 C570 0.930 . S
O563 Co532 2.037 . S
O563 C583 1.234 . S
C564 O538 1.269 . S
C564 O539 1.257 . S
C565 H540 0.930 . S
C565 C568 1.388 . S
C565 C570 1.418 1_545 S
C566 H561 0.930 . S
C566 C569 1.404 1_565 S
C566 C570 1.353 . S
N567 Co532 2.145 . S
N567 C568 1.397 . S
N567 C569 1.334 . S
C568 H549 0.929 . S
C568 C565 1.388 . S
C568 N567 1.397 . S
C569 H550 0.929 . S
C569 C566 1.404 1_545 S
C569 N567 1.334 . S
C570 H562 0.930 . S
C570 C565 1.418 1_565 S
C570 C566 1.353 . S
C571 H541 0.930 . S
C571 N572 1.330 . S
C571 C573 1.446 . S
N572 Co531 2.151 . S
N572 C571 1.330 . S
N572 C576 1.418 . S
C573 H552 0.929 . S
C573 C571 1.446 . S
C573 C574 1.332 . S
C574 H554 0.931 . S
C574 C573 1.332 . S
C574 C575 1.267 . S
C575 H543 0.929 . S
C575 C574 1.267 . S
C575 C576 1.251 . S
C576 H546 0.929 . S
C576 N572 1.418 . S
C576 C575 1.251 . S
C577 H544 0.930 . S
C577 C579 1.406 . S
C577 C582 1.261 . S
C578 H545 0.930 . S
C578 N580 1.325 . S
C578 C581 1.357 . S
C579 H547 0.928 . S
C579 C577 1.406 . S
C579 N580 1.261 . S
N580 Co531 2.214 . S
N580 C578 1.325 . S
N580 C579 1.261 . S
C581 H551 0.931 . S
C581 C578 1.357 . S
C581 C582 1.312 . S
C582 H553 0.930 . S
C582 C577 1.261 . S
C582 C581 1.312 . S
C583 O555 1.214 . S
C583 O563 1.234 . S
C584 H556 0.929 . S
C584 C587 1.391 . S
C584 C589 1.391 . S
C585 H557 0.929 . S
C585 C586 1.390 . S
C585 N588 1.391 . S
C586 H558 0.930 1_545 S
C586 C585 1.390 . S
C586 C587 1.392 . S
C587 H559 0.929 1_545 S
C587 C584 1.391 . S
C587 C586 1.392 . S
N588 Co532 2.257 . S
N588 C585 1.391 . S
N588 C589 1.388 . S
C589 H560 0.930 . S
C589 C584 1.391 . S
C589 N588 1.388 . S
Co590 O592 2.143 1_565 S
Co590 O598 2.074 1_565 S
Co590 O601 2.093 . S
Co590 O614 2.097 . S
Co590 N631 2.151 1_565 S
Co590 N639 2.214 . S
Co591 O592 2.160 . S
Co591 O597 2.058 . S
Co591 O607 2.057 . S
Co591 O622 2.037 1_545 S
Co591 N626 2.145 . S
Co591 N647 2.257 1_545 S
O592 Co590 2.143 1_545 S
O592 Co591 2.160 . S
C593 O594 1.278 . S
C593 O601 1.224 . S
O594 C593 1.278 . S
C595 O596 1.245 . S
C595 O607 1.232 . S
O596 C595 1.245 . S
O597 Co591 2.058 . S
O597 C623 1.269 . S
O598 Co590 2.074 1_545 S
O598 C623 1.257 . S
H599 C624 0.930 . S
H600 C630 0.930 . S
O601 Co590 2.093 . S
O601 C593 1.224 . S
H602 C634 0.929 . S
H603 C636 0.930 . S
H604 C637 0.930 . S
H605 C635 0.929 . S
H606 C638 0.928 . S
O607 Co591 2.057 . S
O607 C595 1.232 . S
H608 C627 0.929 1_565 S
H609 C628 0.929 . S
H610 C640 0.931 . S
H611 C632 0.929 . S
H612 C641 0.930 . S
H613 C633 0.931 . S
O614 Co590 2.097 . S
O614 C642 1.214 . S
H615 C643 0.929 . S
H616 C644 0.929 . S
H617 C645 0.930 . S
H618 C646 0.929 . S
H619 C648 0.930 . S
H620 C625 0.930 1_655 S
H621 C629 0.930 . S
O622 Co591 2.037 1_565 S
O622 C642 1.234 . S
C623 O597 1.269 . S
C623 O598 1.257 . S
C624 H599 0.930 . S
C624 C627 1.388 . S
C624 C629 1.418 1_455 S
C625 H620 0.930 1_455 S
C625 C628 1.404 . S
C625 C629 1.353 1_455 S
N626 Co591 2.145 . S
N626 C627 1.397 . S
N626 C628 1.334 . S
C627 H608 0.929 1_545 S
C627 C624 1.388 . S
C627 N626 1.397 . S
C628 H609 0.929 . S
C628 C625 1.404 . S
C628 N626 1.334 . S
C629 H621 0.930 . S
C629 C624 1.418 1_655 S
C629 C625 1.353 1_655 S
C630 H600 0.930 . S
C630 N631 1.330 . S
C630 C632 1.446 . S
N631 Co590 2.151 1_545 S
N631 C630 1.330 . S
N631 C635 1.418 . S
C632 H611 0.929 . S
C632 C630 1.446 . S
C632 C633 1.332 . S
C633 H613 0.931 . S
C633 C632 1.332 . S
C633 C634 1.267 . S
C634 H602 0.929 . S
C634 C633 1.267 . S
C634 C635 1.251 . S
C635 H605 0.929 . S
C635 N631 1.418 . S
C635 C634 1.251 . S
C636 H603 0.930 . S
C636 C638 1.406 . S
C636 C641 1.261 . S
C637 H604 0.930 . S
C637 N639 1.325 . S
C637 C640 1.357 . S
C638 H606 0.928 . S
C638 C636 1.406 . S
C638 N639 1.261 . S
N639 Co590 2.214 . S
N639 C637 1.325 . S
N639 C638 1.261 . S
C640 H610 0.931 . S
C640 C637 1.357 . S
C640 C641 1.312 . S
C641 H612 0.930 . S
C641 C636 1.261 . S
C641 C640 1.312 . S
C642 O614 1.214 . S
C642 O622 1.234 . S
C643 H615 0.929 . S
C643 C646 1.391 . S
C643 C648 1.391 1_565 S
C644 H616 0.929 . S
C644 C645 1.390 . S
C644 N647 1.391 . S
C645 H617 0.930 . S
C645 C644 1.390 . S
C645 C646 1.392 . S
C646 H618 0.929 . S
C646 C643 1.391 . S
C646 C645 1.392 . S
N647 Co591 2.257 1_565 S
N647 C644 1.391 . S
N647 C648 1.388 1_565 S
C648 H619 0.930 . S
C648 C643 1.391 1_545 S
C648 N647 1.388 1_545 S
Co649 O651 2.143 1_554 S
Co649 O657 2.074 . S
Co649 O660 2.093 1_554 S
Co649 O673 2.097 . S
Co649 N690 2.151 1_554 S
Co649 N698 2.214 . S
Co650 O651 2.160 1_554 S
Co650 O656 2.058 . S
Co650 O666 2.057 1_554 S
Co650 O681 2.037 . S
Co650 N685 2.145 . S
Co650 N706 2.257 1_554 S
O651 Co649 2.143 1_556 S
O651 Co650 2.160 1_556 S
C652 O653 1.278 . S
C652 O660 1.224 . S
O653 C652 1.278 . S
C654 O655 1.245 . S
C654 O666 1.232 . S
O655 C654 1.245 . S
O656 Co650 2.058 . S
O656 C682 1.269 . S
O657 Co649 2.074 . S
O657 C682 1.257 . S
H658 C683 0.930 . S
H659 C689 0.930 . S
O660 Co649 2.093 1_556 S
O660 C652 1.224 . S
H661 C693 0.929 . S
H662 C695 0.930 . S
H663 C696 0.930 . S
H664 C694 0.929 1_554 S
H665 C697 0.928 . S
O666 Co650 2.057 1_556 S
O666 C654 1.232 . S
H667 C686 0.929 . S
H668 C687 0.929 1_556 S
H669 C699 0.931 . S
H670 C691 0.929 . S
H671 C700 0.930 . S
H672 C692 0.931 . S
O673 Co649 2.097 . S
O673 C701 1.214 . S
H674 C702 0.929 . S
H675 C703 0.929 . S
H676 C704 0.930 1_545 S
H677 C705 0.929 1_545 S
H678 C707 0.930 . S
H679 C684 0.930 . S
H680 C688 0.930 . S
O681 Co650 2.037 . S
O681 C701 1.234 . S
C682 O656 1.269 . S
C682 O657 1.257 . S
C683 H658 0.930 . S
C683 C686 1.388 . S
C683 C688 1.418 1_565 S
C684 H679 0.930 . S
C684 C687 1.404 1_545 S
C684 C688 1.353 . S
N685 Co650 2.145 . S
N685 C686 1.397 . S
N685 C687 1.334 . S
C686 H667 0.929 . S
C686 C683 1.388 . S
C686 N685 1.397 . S
C687 H668 0.929 1_554 S
C687 C684 1.404 1_565 S
C687 N685 1.334 . S
C688 H680 0.930 . S
C688 C683 1.418 1_545 S
C688 C684 1.353 . S
C689 H659 0.930 . S
C689 N690 1.330 . S
C689 C691 1.446 . S
N690 Co649 2.151 1_556 S
N690 C689 1.330 . S
N690 C694 1.418 . S
C691 H670 0.929 . S
C691 C689 1.446 . S
C691 C692 1.332 . S
C692 H672 0.931 . S
C692 C691 1.332 . S
C692 C693 1.267 . S
C693 H661 0.929 . S
C693 C692 1.267 . S
C693 C694 1.251 . S
C694 H664 0.929 1_556 S
C694 N690 1.418 . S
C694 C693 1.251 . S
C695 H662 0.930 . S
C695 C697 1.406 . S
C695 C700 1.261 . S
C696 H663 0.930 . S
C696 N698 1.325 . S
C696 C699 1.357 . S
C697 H665 0.928 . S
C697 C695 1.406 . S
C697 N698 1.261 . S
N698 Co649 2.214 . S
N698 C696 1.325 . S
N698 C697 1.261 . S
C699 H669 0.931 . S
C699 C696 1.357 . S
C699 C700 1.312 . S
C700 H671 0.930 . S
C700 C695 1.261 . S
C700 C699 1.312 . S
C701 O673 1.214 . S
C701 O681 1.234 . S
C702 H674 0.929 . S
C702 C705 1.391 . S
C702 C707 1.391 . S
C703 H675 0.929 . S
C703 C704 1.390 . S
C703 N706 1.391 1_554 S
C704 H676 0.930 1_565 S
C704 C703 1.390 . S
C704 C705 1.392 1_554 S
C705 H677 0.929 1_565 S
C705 C702 1.391 . S
C705 C704 1.392 1_556 S
N706 Co650 2.257 1_556 S
N706 C703 1.391 1_556 S
N706 C707 1.388 . S
C707 H678 0.930 . S
C707 C702 1.391 . S
C707 N706 1.388 . S
Co708 O710 2.143 . S
Co708 O716 2.074 1_556 S
Co708 O719 2.093 . S
Co708 O732 2.097 . S
Co708 N749 2.151 1_556 S
Co708 N757 2.214 . S
Co709 O710 2.160 1_554 S
Co709 O715 2.058 . S
Co709 O725 2.057 . S
Co709 O740 2.037 1_554 S
Co709 N744 2.145 . S
Co709 N765 2.257 1_554 S
O710 Co708 2.143 . S
O710 Co709 2.160 1_556 S
C711 O712 1.278 . S
C711 O719 1.224 . S
O712 C711 1.278 . S
C713 O714 1.245 . S
C713 O725 1.232 . S
O714 C713 1.245 . S
O715 Co709 2.058 . S
O715 C741 1.269 . S
O716 Co708 2.074 1_554 S
O716 C741 1.257 . S
H717 C742 0.930 . S
H718 C748 0.930 . S
O719 Co708 2.093 . S
O719 C711 1.224 . S
H720 C752 0.929 . S
H721 C754 0.930 . S
H722 C755 0.930 . S
H723 C753 0.929 . S
H724 C756 0.928 . S
O725 Co709 2.057 . S
O725 C713 1.232 . S
H726 C745 0.929 . S
H727 C746 0.929 . S
H728 C758 0.931 . S
H729 C750 0.929 . S
H730 C759 0.930 . S
H731 C751 0.931 . S
O732 Co708 2.097 . S
O732 C760 1.214 . S
H733 C761 0.929 . S
H734 C762 0.929 . S
H735 C763 0.930 . S
H736 C764 0.929 . S
H737 C766 0.930 . S
H738 C743 0.930 . S
H739 C747 0.930 . S
O740 Co709 2.037 1_556 S
O740 C760 1.234 . S
C741 O715 1.269 . S
C741 O716 1.257 . S
C742 H717 0.930 . S
C742 C745 1.388 . S
C742 C747 1.418 . S
C743 H738 0.930 . S
C743 C746 1.404 . S
C743 C747 1.353 . S
N744 Co709 2.145 . S
N744 C745 1.397 . S
N744 C746 1.334 . S
C745 H726 0.929 . S
C745 C742 1.388 . S
C745 N744 1.397 . S
C746 H727 0.929 . S
C746 C743 1.404 . S
C746 N744 1.334 . S
C747 H739 0.930 . S
C747 C742 1.418 . S
C747 C743 1.353 . S
C748 H718 0.930 . S
C748 N749 1.330 1_556 S
C748 C750 1.446 1_556 S
N749 Co708 2.151 1_554 S
N749 C748 1.330 1_554 S
N749 C753 1.418 . S
C750 H729 0.929 . S
C750 C748 1.446 1_554 S
C750 C751 1.332 . S
C751 H731 0.931 . S
C751 C750 1.332 . S
C751 C752 1.267 . S
C752 H720 0.929 . S
C752 C751 1.267 . S
C752 C753 1.251 . S
C753 H723 0.929 . S
C753 N749 1.418 . S
C753 C752 1.251 . S
C754 H721 0.930 . S
C754 C756 1.406 . S
C754 C759 1.261 . S
C755 H722 0.930 . S
C755 N757 1.325 . S
C755 C758 1.357 . S
C756 H724 0.928 . S
C756 C754 1.406 . S
C756 N757 1.261 . S
N757 Co708 2.214 . S
N757 C755 1.325 . S
N757 C756 1.261 . S
C758 H728 0.931 . S
C758 C755 1.357 . S
C758 C759 1.312 . S
C759 H730 0.930 . S
C759 C754 1.261 . S
C759 C758 1.312 . S
C760 O732 1.214 . S
C760 O740 1.234 . S
C761 H733 0.929 . S
C761 C764 1.391 . S
C761 C766 1.391 . S
C762 H734 0.929 . S
C762 C763 1.390 . S
C762 N765 1.391 . S
C763 H735 0.930 . S
C763 C762 1.390 . S
C763 C764 1.392 . S
C764 H736 0.929 . S
C764 C761 1.391 . S
C764 C763 1.392 . S
N765 Co709 2.257 1_556 S
N765 C762 1.391 . S
N765 C766 1.388 . S
C766 H737 0.930 . S
C766 C761 1.391 . S
C766 N765 1.388 . S
Co767 O769 2.143 1_556 S
Co767 O775 2.074 1_556 S
Co767 O778 2.093 . S
Co767 O791 2.097 . S
Co767 N808 2.151 1_556 S
Co767 N816 2.214 . S
Co768 O769 2.160 . S
Co768 O774 2.058 . S
Co768 O784 2.057 . S
Co768 O799 2.037 1_554 S
Co768 N803 2.145 . S
Co768 N824 2.257 1_554 S
O769 Co767 2.143 1_554 S
O769 Co768 2.160 . S
C770 O771 1.278 . S
C770 O778 1.224 . S
O771 C770 1.278 . S
C772 O773 1.245 . S
C772 O784 1.232 . S
O773 C772 1.245 . S
O774 Co768 2.058 . S
O774 C800 1.269 . S
O775 Co767 2.074 1_554 S
O775 C800 1.257 . S
H776 C801 0.930 . S
H777 C807 0.930 . S
O778 Co767 2.093 . S
O778 C770 1.224 . S
H779 C811 0.929 . S
H780 C813 0.930 . S
H781 C814 0.930 . S
H782 C812 0.929 . S
H783 C815 0.928 . S
O784 Co768 2.057 . S
O784 C772 1.232 . S
H785 C804 0.929 1_556 S
H786 C805 0.929 . S
H787 C817 0.931 . S
H788 C809 0.929 . S
H789 C818 0.930 . S
H790 C810 0.931 . S
O791 Co767 2.097 . S
O791 C819 1.214 . S
H792 C820 0.929 . S
H793 C821 0.929 . S
H794 C822 0.930 . S
H795 C823 0.929 . S
H796 C825 0.930 . S
H797 C802 0.930 1_565 S
H798 C806 0.930 . S
O799 Co768 2.037 1_556 S
O799 C819 1.234 . S
C800 O774 1.269 . S
C800 O775 1.257 . S
C801 H776 0.930 . S
C801 C804 1.388 . S
C801 C806 1.418 1_545 S
C802 H797 0.930 1_545 S
C802 C805 1.404 . S
C802 C806 1.353 1_545 S
N803 Co768 2.145 . S
N803 C804 1.397 . S
N803 C805 1.334 . S
C804 H785 0.929 1_554 S
C804 C801 1.388 . S
C804 N803 1.397 . S
C805 H786 0.929 . S
C805 C802 1.404 . S
C805 N803 1.334 . S
C806 H798 0.930 . S
C806 C801 1.418 1_565 S
C806 C802 1.353 1_565 S
C807 H777 0.930 . S
C807 N808 1.330 . S
C807 C809 1.446 . S
N808 Co767 2.151 1_554 S
N808 C807 1.330 . S
N808 C812 1.418 . S
C809 H788 0.929 . S
C809 C807 1.446 . S
C809 C810 1.332 . S
C810 H790 0.931 . S
C810 C809 1.332 . S
C810 C811 1.267 . S
C811 H779 0.929 . S
C811 C810 1.267 . S
C811 C812 1.251 . S
C812 H782 0.929 . S
C812 N808 1.418 . S
C812 C811 1.251 . S
C813 H780 0.930 . S
C813 C815 1.406 . S
C813 C818 1.261 . S
C814 H781 0.930 . S
C814 N816 1.325 . S
C814 C817 1.357 . S
C815 H783 0.928 . S
C815 C813 1.406 . S
C815 N816 1.261 . S
N816 Co767 2.214 . S
N816 C814 1.325 . S
N816 C815 1.261 . S
C817 H787 0.931 . S
C817 C814 1.357 . S
C817 C818 1.312 . S
C818 H789 0.930 . S
C818 C813 1.261 . S
C818 C817 1.312 . S
C819 O791 1.214 . S
C819 O799 1.234 . S
C820 H792 0.929 . S
C820 C823 1.391 . S
C820 C825 1.391 1_556 S
C821 H793 0.929 . S
C821 C822 1.390 . S
C821 N824 1.391 . S
C822 H794 0.930 . S
C822 C821 1.390 . S
C822 C823 1.392 . S
C823 H795 0.929 . S
C823 C820 1.391 . S
C823 C822 1.392 . S
N824 Co768 2.257 1_556 S
N824 C821 1.391 . S
N824 C825 1.388 1_556 S
C825 H796 0.930 . S
C825 C820 1.391 1_554 S
C825 N824 1.388 1_554 S
Co826 O828 2.143 . S
Co826 O834 2.074 . S
Co826 O837 2.093 . S
Co826 O850 2.097 . S
Co826 N867 2.151 . S
Co826 N875 2.214 . S
Co827 O828 2.160 . S
Co827 O833 2.058 . S
Co827 O843 2.057 . S
Co827 O858 2.037 . S
Co827 N862 2.145 . S
Co827 N883 2.257 . S
O828 Co826 2.143 . S
O828 Co827 2.160 . S
C829 O830 1.278 . S
C829 O837 1.224 . S
O830 C829 1.278 . S
C831 O832 1.245 . S
C831 O843 1.232 . S
O832 C831 1.245 . S
O833 Co827 2.058 . S
O833 C859 1.269 . S
O834 Co826 2.074 . S
O834 C859 1.257 . S
H835 C860 0.930 . S
H836 C866 0.930 . S
O837 Co826 2.093 . S
O837 C829 1.224 . S
H838 C870 0.929 . S
H839 C872 0.930 . S
H840 C873 0.930 . S
H841 C871 0.929 . S
H842 C874 0.928 . S
O843 Co827 2.057 . S
O843 C831 1.232 . S
H844 C863 0.929 . S
H845 C864 0.929 . S
H846 C876 0.931 . S
H847 C868 0.929 1_655 S
H848 C877 0.919 1_655 S
H849 C869 0.931 . S
O850 Co826 2.097 . S
O850 C878 1.214 . S
H851 C879 0.929 . S
H852 C880 0.929 . S
H853 C881 0.930 . S
H854 C882 0.929 . S
H855 C884 0.930 . S
H856 C861 0.930 . S
H857 C865 0.930 . S
O858 Co827 2.037 . S
O858 C878 1.234 . S
C859 O833 1.269 . S
C859 O834 1.257 . S
C860 H835 0.930 . S
C860 C863 1.388 . S
C860 C865 1.418 . S
C861 H856 0.930 . S
C861 C864 1.404 . S
C861 C865 1.353 . S
N862 Co827 2.145 . S
N862 C863 1.397 . S
N862 C864 1.334 . S
C863 H844 0.929 . S
C863 C860 1.388 . S
C863 N862 1.397 . S
C864 H845 0.929 . S
C864 C861 1.404 . S
C864 N862 1.334 . S
C865 H857 0.930 . S
C865 C860 1.418 . S
C865 C861 1.353 . S
C866 H836 0.930 . S
C866 N867 1.330 . S
C866 C868 1.446 . S
N867 Co826 2.151 . S
N867 C866 1.330 . S
N867 C871 1.418 . S
C868 H847 0.929 1_455 S
C868 C866 1.446 . S
C868 C869 1.332 1_455 S
C869 H849 0.931 . S
C869 C868 1.332 1_655 S
C869 C870 1.267 . S
C870 H838 0.929 . S
C870 C869 1.267 . S
C870 C871 1.251 1_655 S
C871 H841 0.929 . S
C871 N867 1.418 . S
C871 C870 1.251 1_455 S
C872 H839 0.930 . S
C872 C874 1.406 1_655 S
C872 C877 1.258 1_655 S
C873 H840 0.930 . S
C873 N875 1.325 . S
C873 C876 1.357 . S
C874 H842 0.928 . S
C874 C872 1.406 1_455 S
C874 N875 1.261 . S
N875 Co826 2.214 . S
N875 C873 1.325 . S
N875 C874 1.261 . S
C876 H846 0.931 . S
C876 C873 1.357 . S
C876 C877 1.326 . S
C877 H848 0.919 1_455 S
C877 C872 1.258 1_455 S
C877 C876 1.326 . S
C878 O850 1.214 . S
C878 O858 1.234 . S
C879 H851 0.929 . S
C879 C882 1.391 . S
C879 C884 1.391 . S
C880 H852 0.929 . S
C880 C881 1.390 . S
C880 N883 1.391 . S
C881 H853 0.930 . S
C881 C880 1.390 . S
C881 C882 1.392 . S
C882 H854 0.929 . S
C882 C879 1.391 . S
C882 C881 1.392 . S
N883 Co827 2.257 . S
N883 C880 1.391 . S
N883 C884 1.388 . S
C884 H855 0.930 . S
C884 C879 1.391 . S
C884 N883 1.388 . S
Co885 O887 2.143 . S
Co885 O893 2.074 . S
Co885 O896 2.093 . S
Co885 O909 2.097 . S
Co885 N926 2.151 . S
Co885 N934 2.214 . S
Co886 O887 2.160 . S
Co886 O892 2.058 . S
Co886 O902 2.057 . S
Co886 O917 2.037 . S
Co886 N921 2.145 . S
Co886 N942 2.257 . S
O887 Co885 2.143 . S
O887 Co886 2.160 . S
C888 O889 1.278 . S
C888 O896 1.224 . S
O889 C888 1.278 . S
C890 O891 1.245 . S
C890 O902 1.232 . S
O891 C890 1.245 . S
O892 Co886 2.058 . S
O892 C918 1.269 . S
O893 Co885 2.074 . S
O893 C918 1.257 . S
H894 C919 0.930 . S
H895 C925 0.930 . S
O896 Co885 2.093 . S
O896 C888 1.224 . S
H897 C929 0.929 . S
H898 C931 0.930 . S
H899 C932 0.930 . S
H900 C930 0.929 . S
H901 C933 0.928 . S
O902 Co886 2.057 . S
O902 C890 1.232 . S
H903 C922 0.929 . S
H904 C923 0.929 . S
H905 C935 0.931 . S
H906 C927 0.927 1_545 S
H907 C936 0.949 . S
H908 C928 0.931 . S
O909 Co885 2.097 . S
O909 C937 1.214 . S
H910 C938 0.929 . S
H911 C939 0.929 . S
H912 C940 0.930 . S
H913 C941 0.929 . S
H914 C943 0.930 . S
H915 C920 0.930 . S
H916 C924 0.930 . S
O917 Co886 2.037 . S
O917 C937 1.234 . S
C918 O892 1.269 . S
C918 O893 1.257 . S
C919 H894 0.930 . S
C919 C922 1.388 . S
C919 C924 1.418 . S
C920 H915 0.930 . S
C920 C923 1.404 . S
C920 C924 1.353 . S
N921 Co886 2.145 . S
N921 C922 1.397 . S
N921 C923 1.334 . S
C922 H903 0.929 . S
C922 C919 1.388 . S
C922 N921 1.397 . S
C923 H904 0.929 . S
C923 C920 1.404 . S
C923 N921 1.334 . S
C924 H916 0.930 . S
C924 C919 1.418 . S
C924 C920 1.353 . S
C925 H895 0.930 . S
C925 N926 1.330 . S
C925 C927 1.446 . S
N926 Co885 2.151 . S
N926 C925 1.330 . S
N926 C930 1.418 . S
C927 H906 0.927 1_565 S
C927 C925 1.446 . S
C927 C928 1.332 1_565 S
C928 H908 0.931 . S
C928 C927 1.332 1_545 S
C928 C929 1.267 . S
C929 H897 0.929 . S
C929 C928 1.267 . S
C929 C930 1.251 1_545 S
C930 H900 0.929 . S
C930 N926 1.418 . S
C930 C929 1.251 1_565 S
C931 H898 0.930 . S
C931 C933 1.406 1_545 S
C931 C936 1.266 . S
C932 H899 0.930 . S
C932 N934 1.325 . S
C932 C935 1.357 . S
C933 H901 0.928 . S
C933 C931 1.406 1_565 S
C933 N934 1.261 . S
N934 Co885 2.214 . S
N934 C932 1.325 . S
N934 C933 1.261 . S
C935 H905 0.931 . S
C935 C932 1.357 . S
C935 C936 1.288 1_565 S
C936 H907 0.949 . S
C936 C931 1.266 . S
C936 C935 1.288 1_545 S
C937 O909 1.214 . S
C937 O917 1.234 . S
C938 H910 0.929 . S
C938 C941 1.391 . S
C938 C943 1.391 . S
C939 H911 0.929 . S
C939 C940 1.390 . S
C939 N942 1.391 . S
C940 H912 0.930 . S
C940 C939 1.390 . S
C940 C941 1.392 . S
C941 H913 0.929 . S
C941 C938 1.391 . S
C941 C940 1.392 . S
N942 Co886 2.257 . S
N942 C939 1.391 . S
N942 C943 1.388 . S
C943 H914 0.930 . S
C943 C938 1.391 . S
C943 N942 1.388 . S
Co944 O946 2.143 1_545 S
Co944 O952 2.074 . S
Co944 O955 2.079 1_545 S
Co944 O968 2.097 . S
Co944 N985 2.151 1_545 S
Co944 N993 2.214 . S
Co945 O946 2.160 1_545 S
Co945 O951 2.058 . S
Co945 O961 2.057 1_545 S
Co945 O976 2.037 . S
Co945 N980 2.145 . S
Co945 N1001 2.257 1_545 S
O946 Co944 2.143 1_565 S
O946 Co945 2.160 1_565 S
C947 O948 1.278 . S
C947 O955 1.248 . S
O948 C947 1.278 . S
C949 O950 1.245 . S
C949 O961 1.232 . S
O950 C949 1.245 . S
O951 Co945 2.058 . S
O951 C977 1.269 . S
O952 Co944 2.074 . S
O952 C977 1.257 . S
H953 C978 0.930 . S
H954 C984 0.930 . S
O955 Co944 2.079 1_565 S
O955 C947 1.248 . S
H956 C988 0.929 . S
H957 C990 0.930 . S
H958 C991 0.930 . S
H959 C989 0.929 1_545 S
H960 C992 0.928 . S
O961 Co945 2.057 1_565 S
O961 C949 1.232 . S
H962 C981 0.929 . S
H963 C982 0.929 1_565 S
H964 C994 0.931 . S
H965 C986 0.929 . S
H966 C995 0.930 . S
H967 C987 0.931 . S
O968 Co944 2.097 . S
O968 C996 1.214 . S
H969 C997 0.929 . S
H970 C998 0.929 . S
H971 C999 0.930 1_455 S
H972 C1000 0.929 1_455 S
H973 C1002 0.930 . S
H974 C979 0.930 . S
H975 C983 0.930 . S
O976 Co945 2.037 . S
O976 C996 1.234 . S
C977 O951 1.269 . S
C977 O952 1.257 . S
C978 H953 0.930 . S
C978 C981 1.388 . S
C978 C983 1.418 1_655 S
C979 H974 0.930 . S
C979 C982 1.404 1_455 S
C979 C983 1.353 . S
N980 Co945 2.145 . S
N980 C981 1.397 . S
N980 C982 1.334 . S
C981 H962 0.929 . S
C981 C978 1.388 . S
C981 N980 1.397 . S
C982 H963 0.929 1_545 S
C982 C979 1.404 1_655 S
C982 N980 1.334 . S
C983 H975 0.930 . S
C983 C978 1.418 1_455 S
C983 C979 1.353 . S
C984 H954 0.930 . S
C984 N985 1.330 . S
C984 C986 1.446 . S
N985 Co944 2.151 1_565 S
N985 C984 1.330 . S
N985 C989 1.418 . S
C986 H965 0.929 . S
C986 C984 1.446 . S
C986 C987 1.332 . S
C987 H967 0.931 . S
C987 C986 1.332 . S
C987 C988 1.267 . S
C988 H956 0.929 . S
C988 C987 1.267 . S
C988 C989 1.251 . S
C989 H959 0.929 1_565 S
C989 N985 1.418 . S
C989 C988 1.251 . S
C990 H957 0.930 . S
C990 C992 1.406 . S
C990 C995 1.261 . S
C991 H958 0.930 . S
C991 N993 1.325 . S
C991 C994 1.357 . S
C992 H960 0.928 . S
C992 C990 1.406 . S
C992 N993 1.261 . S
N993 Co944 2.214 . S
N993 C991 1.325 . S
N993 C992 1.261 . S
C994 H964 0.931 . S
C994 C991 1.357 . S
C994 C995 1.312 . S
C995 H966 0.930 . S
C995 C990 1.261 . S
C995 C994 1.312 . S
C996 O968 1.214 . S
C996 O976 1.234 . S
C997 H969 0.929 . S
C997 C1000 1.391 . S
C997 C1002 1.391 . S
C998 H970 0.929 . S
C998 C999 1.390 . S
C998 N1001 1.391 1_545 S
C999 H971 0.930 1_655 S
C999 C998 1.390 . S
C999 C1000 1.392 1_545 S
C1000 H972 0.929 1_655 S
C1000 C997 1.391 . S
C1000 C999 1.392 1_565 S
N1001 Co945 2.257 1_565 S
N1001 C998 1.391 1_565 S
N1001 C1002 1.388 . S
C1002 H973 0.930 . S
C1002 C997 1.391 . S
C1002 N1001 1.388 . S
Co1003 O1005 2.143 . S
Co1003 O1011 2.074 . S
Co1003 O1014 2.093 . S
Co1003 O1027 2.097 . S
Co1003 N1044 2.151 . S
Co1003 N1052 2.214 . S
Co1004 O1005 2.160 . S
Co1004 O1010 2.058 . S
Co1004 O1020 2.057 . S
Co1004 O1035 2.037 . S
Co1004 N1039 2.145 . S
Co1004 N1060 2.257 . S
O1005 Co1003 2.143 . S
O1005 Co1004 2.160 . S
C1006 O1007 1.278 . S
C1006 O1014 1.224 . S
O1007 C1006 1.278 . S
C1008 O1009 1.245 . S
C1008 O1020 1.232 . S
O1009 C1008 1.245 . S
O1010 Co1004 2.058 . S
O1010 C1036 1.269 . S
O1011 Co1003 2.074 . S
O1011 C1036 1.257 . S
H1012 C1037 0.930 . S
H1013 C1043 0.930 . S
O1014 Co1003 2.093 . S
O1014 C1006 1.224 . S
H1015 C1047 0.929 . S
H1016 C1049 0.930 . S
H1017 C1050 0.930 . S
H1018 C1048 0.929 . S
H1019 C1051 0.928 . S
O1020 Co1004 2.057 . S
O1020 C1008 1.232 . S
H1021 C1040 0.929 . S
H1022 C1041 0.929 . S
H1023 C1053 0.931 . S
H1024 C1045 0.929 . S
H1025 C1054 0.930 . S
H1026 C1046 0.931 . S
O1027 Co1003 2.097 . S
O1027 C1055 1.214 . S
H1028 C1056 0.929 . S
H1029 C1057 0.929 . S
H1030 C1058 0.930 . S
H1031 C1059 0.929 . S
H1032 C1061 0.930 . S
H1033 C1038 0.930 . S
H1034 C1042 0.930 . S
O1035 Co1004 2.037 . S
O1035 C1055 1.234 . S
C1036 O1010 1.269 . S
C1036 O1011 1.257 . S
C1037 H1012 0.930 . S
C1037 C1040 1.388 . S
C1037 C1042 1.418 . S
C1038 H1033 0.930 . S
C1038 C1041 1.404 . S
C1038 C1042 1.353 . S
N1039 Co1004 2.145 . S
N1039 C1040 1.397 . S
N1039 C1041 1.334 . S
C1040 H1021 0.929 . S
C1040 C1037 1.388 . S
C1040 N1039 1.397 . S
C1041 H1022 0.929 . S
C1041 C1038 1.404 . S
C1041 N1039 1.334 . S
C1042 H1034 0.930 . S
C1042 C1037 1.418 . S
C1042 C1038 1.353 . S
C1043 H1013 0.930 . S
C1043 N1044 1.330 . S
C1043 C1045 1.446 . S
N1044 Co1003 2.151 . S
N1044 C1043 1.330 . S
N1044 C1048 1.418 . S
C1045 H1024 0.929 . S
C1045 C1043 1.446 . S
C1045 C1046 1.332 . S
C1046 H1026 0.931 . S
C1046 C1045 1.332 . S
C1046 C1047 1.267 . S
C1047 H1015 0.929 . S
C1047 C1046 1.267 . S
C1047 C1048 1.251 . S
C1048 H1018 0.929 . S
C1048 N1044 1.418 . S
C1048 C1047 1.251 . S
C1049 H1016 0.930 . S
C1049 C1051 1.406 . S
C1049 C1054 1.261 . S
C1050 H1017 0.930 . S
C1050 N1052 1.325 . S
C1050 C1053 1.357 . S
C1051 H1019 0.928 . S
C1051 C1049 1.406 . S
C1051 N1052 1.261 . S
N1052 Co1003 2.214 . S
N1052 C1050 1.325 . S
N1052 C1051 1.261 . S
C1053 H1023 0.931 . S
C1053 C1050 1.357 . S
C1053 C1054 1.312 . S
C1054 H1025 0.930 . S
C1054 C1049 1.261 . S
C1054 C1053 1.312 . S
C1055 O1027 1.214 . S
C1055 O1035 1.234 . S
C1056 H1028 0.929 . S
C1056 C1059 1.391 . S
C1056 C1061 1.391 . S
C1057 H1029 0.929 . S
C1057 C1058 1.390 . S
C1057 N1060 1.391 . S
C1058 H1030 0.930 . S
C1058 C1057 1.390 . S
C1058 C1059 1.392 . S
C1059 H1031 0.929 . S
C1059 C1056 1.391 . S
C1059 C1058 1.392 . S
N1060 Co1004 2.257 . S
N1060 C1057 1.391 . S
N1060 C1061 1.388 . S
C1061 H1032 0.930 . S
C1061 C1056 1.391 . S
C1061 N1060 1.388 . S
Co1062 O1064 2.143 . S
Co1062 O1070 2.074 . S
Co1062 O1073 2.093 . S
Co1062 O1086 2.097 . S
Co1062 N1103 2.151 . S
Co1062 N1111 2.214 . S
Co1063 O1064 2.160 . S
Co1063 O1069 2.058 . S
Co1063 O1079 2.057 . S
Co1063 O1094 2.037 . S
Co1063 N1098 2.145 . S
Co1063 N1119 2.257 . S
O1064 Co1062 2.143 . S
O1064 Co1063 2.160 . S
C1065 O1066 1.278 . S
C1065 O1073 1.224 . S
O1066 C1065 1.278 . S
C1067 O1068 1.245 . S
C1067 O1079 1.232 . S
O1068 C1067 1.245 . S
O1069 Co1063 2.058 . S
O1069 C1095 1.269 . S
O1070 Co1062 2.074 . S
O1070 C1095 1.257 . S
H1071 C1096 0.930 . S
H1072 C1102 0.930 . S
O1073 Co1062 2.093 . S
O1073 C1065 1.224 . S
H1074 C1106 0.929 . S
H1075 C1108 0.930 . S
H1076 C1109 0.930 . S
H1077 C1107 0.929 . S
H1078 C1110 0.928 . S
O1079 Co1063 2.057 . S
O1079 C1067 1.232 . S
H1080 C1099 0.929 . S
H1081 C1100 0.929 . S
H1082 C1112 0.931 . S
H1083 C1104 0.929 . S
H1084 C1113 0.930 . S
H1085 C1105 0.931 . S
O1086 Co1062 2.097 . S
O1086 C1114 1.214 . S
H1087 C1115 0.929 . S
H1088 C1116 0.929 . S
H1089 C1117 0.930 . S
H1090 C1118 0.929 . S
H1091 C1120 0.930 . S
H1092 C1097 0.930 . S
H1093 C1101 0.930 . S
O1094 Co1063 2.037 . S
O1094 C1114 1.234 . S
C1095 O1069 1.269 . S
C1095 O1070 1.257 . S
C1096 H1071 0.930 . S
C1096 C1099 1.388 . S
C1096 C1101 1.418 . S
C1097 H1092 0.930 . S
C1097 C1100 1.404 . S
C1097 C1101 1.353 . S
N1098 Co1063 2.145 . S
N1098 C1099 1.397 . S
N1098 C1100 1.334 . S
C1099 H1080 0.929 . S
C1099 C1096 1.388 . S
C1099 N1098 1.397 . S
C1100 H1081 0.929 . S
C1100 C1097 1.404 . S
C1100 N1098 1.334 . S
C1101 H1093 0.930 . S
C1101 C1096 1.418 . S
C1101 C1097 1.353 . S
C1102 H1072 0.930 . S
C1102 N1103 1.330 . S
C1102 C1104 1.446 . S
N1103 Co1062 2.151 . S
N1103 C1102 1.330 . S
N1103 C1107 1.418 . S
C1104 H1083 0.929 . S
C1104 C1102 1.446 . S
C1104 C1105 1.332 . S
C1105 H1085 0.931 . S
C1105 C1104 1.332 . S
C1105 C1106 1.267 . S
C1106 H1074 0.929 . S
C1106 C1105 1.267 . S
C1106 C1107 1.251 . S
C1107 H1077 0.929 . S
C1107 N1103 1.418 . S
C1107 C1106 1.251 . S
C1108 H1075 0.930 . S
C1108 C1110 1.406 . S
C1108 C1113 1.261 . S
C1109 H1076 0.930 . S
C1109 N1111 1.325 . S
C1109 C1112 1.357 . S
C1110 H1078 0.928 . S
C1110 C1108 1.406 . S
C1110 N1111 1.261 . S
N1111 Co1062 2.214 . S
N1111 C1109 1.325 . S
N1111 C1110 1.261 . S
C1112 H1082 0.931 . S
C1112 C1109 1.357 . S
C1112 C1113 1.312 . S
C1113 H1084 0.930 . S
C1113 C1108 1.261 . S
C1113 C1112 1.312 . S
C1114 O1086 1.214 . S
C1114 O1094 1.234 . S
C1115 H1087 0.929 . S
C1115 C1118 1.391 . S
C1115 C1120 1.391 . S
C1116 H1088 0.929 . S
C1116 C1117 1.390 . S
C1116 N1119 1.391 . S
C1117 H1089 0.930 . S
C1117 C1116 1.390 . S
C1117 C1118 1.392 . S
C1118 H1090 0.929 . S
C1118 C1115 1.391 . S
C1118 C1117 1.392 . S
N1119 Co1063 2.257 . S
N1119 C1116 1.391 . S
N1119 C1120 1.388 . S
C1120 H1091 0.930 . S
C1120 C1115 1.391 . S
C1120 N1119 1.388 . S
Co1121 O1123 2.143 1_545 S
Co1121 O1129 2.074 . S
Co1121 O1132 2.093 1_545 S
Co1121 O1145 2.097 . S
Co1121 N1162 2.151 1_545 S
Co1121 N1170 2.214 . S
Co1122 O1123 2.160 1_545 S
Co1122 O1128 2.058 . S
Co1122 O1138 2.057 1_545 S
Co1122 O1153 2.037 . S
Co1122 N1157 2.145 . S
Co1122 N1178 2.257 1_545 S
O1123 Co1121 2.143 1_565 S
O1123 Co1122 2.160 1_565 S
C1124 O1125 1.278 . S
C1124 O1132 1.224 . S
O1125 C1124 1.278 . S
C1126 O1127 1.245 . S
C1126 O1138 1.232 . S
O1127 C1126 1.245 . S
O1128 Co1122 2.058 . S
O1128 C1154 1.269 . S
O1129 Co1121 2.074 . S
O1129 C1154 1.257 . S
H1130 C1155 0.930 . S
H1131 C1161 0.930 . S
O1132 Co1121 2.093 1_565 S
O1132 C1124 1.224 . S
H1133 C1165 0.929 . S
H1134 C1167 0.930 . S
H1135 C1168 0.930 . S
H1136 C1166 0.929 . S
H1137 C1169 0.928 1_565 S
O1138 Co1122 2.057 1_565 S
O1138 C1126 1.232 . S
H1139 C1158 0.929 . S
H1140 C1159 0.929 . S
H1141 C1171 0.931 . S
H1142 C1163 0.929 . S
H1143 C1172 0.930 . S
H1144 C1164 0.931 . S
O1145 Co1121 2.097 . S
O1145 C1173 1.214 . S
H1146 C1174 0.929 . S
H1147 C1175 0.929 . S
H1148 C1176 0.930 . S
H1149 C1177 0.929 . S
H1150 C1179 0.930 . S
H1151 C1156 0.930 . S
H1152 C1160 0.930 . S
O1153 Co1122 2.037 . S
O1153 C1173 1.234 . S
C1154 O1128 1.269 . S
C1154 O1129 1.257 . S
C1155 H1130 0.930 . S
C1155 C1158 1.388 . S
C1155 C1160 1.418 . S
C1156 H1151 0.930 . S
C1156 C1159 1.404 . S
C1156 C1160 1.353 . S
N1157 Co1122 2.145 . S
N1157 C1158 1.397 . S
N1157 C1159 1.334 . S
C1158 H1139 0.929 . S
C1158 C1155 1.388 . S
C1158 N1157 1.397 . S
C1159 H1140 0.929 . S
C1159 C1156 1.404 . S
C1159 N1157 1.334 . S
C1160 H1152 0.930 . S
C1160 C1155 1.418 . S
C1160 C1156 1.353 . S
C1161 H1131 0.930 . S
C1161 N1162 1.330 . S
C1161 C1163 1.446 . S
N1162 Co1121 2.151 1_565 S
N1162 C1161 1.330 . S
N1162 C1166 1.418 1_565 S
C1163 H1142 0.929 . S
C1163 C1161 1.446 . S
C1163 C1164 1.332 . S
C1164 H1144 0.931 . S
C1164 C1163 1.332 . S
C1164 C1165 1.267 1_565 S
C1165 H1133 0.929 . S
C1165 C1164 1.267 1_545 S
C1165 C1166 1.251 . S
C1166 H1136 0.929 . S
C1166 N1162 1.418 1_545 S
C1166 C1165 1.251 . S
C1167 H1134 0.930 . S
C1167 C1169 1.406 . S
C1167 C1172 1.261 . S
C1168 H1135 0.930 . S
C1168 N1170 1.325 . S
C1168 C1171 1.357 . S
C1169 H1137 0.928 1_545 S
C1169 C1167 1.406 . S
C1169 N1170 1.261 . S
N1170 Co1121 2.214 . S
N1170 C1168 1.325 . S
N1170 C1169 1.261 . S
C1171 H1141 0.931 . S
C1171 C1168 1.357 . S
C1171 C1172 1.312 . S
C1172 H1143 0.930 . S
C1172 C1167 1.261 . S
C1172 C1171 1.312 . S
C1173 O1145 1.214 . S
C1173 O1153 1.234 . S
C1174 H1146 0.929 . S
C1174 C1177 1.391 . S
C1174 C1179 1.391 . S
C1175 H1147 0.929 . S
C1175 C1176 1.390 1_545 S
C1175 N1178 1.391 1_545 S
C1176 H1148 0.930 . S
C1176 C1175 1.390 1_565 S
C1176 C1177 1.392 . S
C1177 H1149 0.929 . S
C1177 C1174 1.391 . S
C1177 C1176 1.392 . S
N1178 Co1122 2.257 1_565 S
N1178 C1175 1.391 1_565 S
N1178 C1179 1.388 . S
C1179 H1150 0.930 . S
C1179 C1174 1.391 . S
C1179 N1178 1.388 . S
Co1180 O1182 2.143 1_554 S
Co1180 O1188 2.074 . S
Co1180 O1191 2.093 . S
Co1180 O1204 2.097 . S
Co1180 N1221 2.151 1_554 S
Co1180 N1229 2.214 . S
Co1181 O1182 2.160 1_554 S
Co1181 O1187 2.058 . S
Co1181 O1197 2.057 1_554 S
Co1181 O1212 2.037 . S
Co1181 N1216 2.145 . S
Co1181 N1237 2.257 1_554 S
O1182 Co1180 2.143 1_556 S
O1182 Co1181 2.160 1_556 S
C1183 O1184 1.278 . S
C1183 O1191 1.224 1_556 S
O1184 C1183 1.278 . S
C1185 O1186 1.245 . S
C1185 O1197 1.232 . S
O1186 C1185 1.245 . S
O1187 Co1181 2.058 . S
O1187 C1213 1.269 . S
O1188 Co1180 2.074 . S
O1188 C1213 1.257 . S
H1189 C1214 0.930 . S
H1190 C1220 0.930 . S
O1191 Co1180 2.093 . S
O1191 C1183 1.224 1_554 S
H1192 C1224 0.929 1_554 S
H1193 C1226 0.930 . S
H1194 C1227 0.930 . S
H1195 C1225 0.929 . S
H1196 C1228 0.928 . S
O1197 Co1181 2.057 1_556 S
O1197 C1185 1.232 . S
H1198 C1217 0.929 . S
H1199 C1218 0.929 . S
H1200 C1230 0.931 . S
H1201 C1222 0.929 . S
H1202 C1231 0.930 . S
H1203 C1223 0.931 . S
O1204 Co1180 2.097 . S
O1204 C1232 1.214 . S
H1205 C1233 0.929 . S
H1206 C1234 0.929 . S
H1207 C1235 0.912 1_554 S
H1208 C1236 0.929 . S
H1209 C1238 0.930 . S
H1210 C1215 0.930 1_556 S
H1211 C1219 0.930 . S
O1212 Co1181 2.037 . S
O1212 C1232 1.234 . S
C1213 O1187 1.269 . S
C1213 O1188 1.257 . S
C1214 H1189 0.930 . S
C1214 C1217 1.388 . S
C1214 C1219 1.418 . S
C1215 H1210 0.930 1_554 S
C1215 C1218 1.404 1_554 S
C1215 C1219 1.353 . S
N1216 Co1181 2.145 . S
N1216 C1217 1.397 . S
N1216 C1218 1.334 1_554 S
C1217 H1198 0.929 . S
C1217 C1214 1.388 . S
C1217 N1216 1.397 . S
C1218 H1199 0.929 . S
C1218 C1215 1.404 1_556 S
C1218 N1216 1.334 1_556 S
C1219 H1211 0.930 . S
C1219 C1214 1.418 . S
C1219 C1215 1.353 . S
C1220 H1190 0.930 . S
C1220 N1221 1.330 . S
C1220 C1222 1.446 . S
N1221 Co1180 2.151 1_556 S
N1221 C1220 1.330 . S
N1221 C1225 1.418 1_556 S
C1222 H1201 0.929 . S
C1222 C1220 1.446 . S
C1222 C1223 1.332 . S
C1223 H1203 0.931 . S
C1223 C1222 1.332 . S
C1223 C1224 1.267 . S
C1224 H1192 0.929 1_556 S
C1224 C1223 1.267 . S
C1224 C1225 1.251 1_556 S
C1225 H1195 0.929 . S
C1225 N1221 1.418 1_554 S
C1225 C1224 1.251 1_554 S
C1226 H1193 0.930 . S
C1226 C1228 1.406 . S
C1226 C1231 1.261 . S
C1227 H1194 0.930 . S
C1227 N1229 1.325 . S
C1227 C1230 1.357 . S
C1228 H1196 0.928 . S
C1228 C1226 1.406 . S
C1228 N1229 1.261 . S
N1229 Co1180 2.214 . S
N1229 C1227 1.325 . S
N1229 C1228 1.261 . S
C1230 H1200 0.931 . S
C1230 C1227 1.357 . S
C1230 C1231 1.312 . S
C1231 H1202 0.930 . S
C1231 C1226 1.261 . S
C1231 C1230 1.312 . S
C1232 O1204 1.214 . S
C1232 O1212 1.234 . S
C1233 H1205 0.929 . S
C1233 C1236 1.391 . S
C1233 C1238 1.391 . S
C1234 H1206 0.929 . S
C1234 C1235 1.385 1_554 S
C1234 N1237 1.391 1_554 S
C1235 H1207 0.912 1_556 S
C1235 C1234 1.385 1_556 S
C1235 C1236 1.415 . S
C1236 H1208 0.929 . S
C1236 C1233 1.391 . S
C1236 C1235 1.415 . S
N1237 Co1181 2.257 1_556 S
N1237 C1234 1.391 1_556 S
N1237 C1238 1.388 . S
C1238 H1209 0.930 . S
C1238 C1233 1.391 . S
C1238 N1237 1.388 . S
Co1239 O1241 2.143 . S
Co1239 O1247 2.074 . S
Co1239 O1250 2.093 . S
Co1239 O1263 2.097 . S
Co1239 N1280 2.151 . S
Co1239 N1288 2.214 . S
Co1240 O1241 2.160 . S
Co1240 O1246 2.058 . S
Co1240 O1256 2.057 . S
Co1240 O1271 2.037 . S
Co1240 N1275 2.145 . S
Co1240 N1296 2.257 . S
O1241 Co1239 2.143 . S
O1241 Co1240 2.160 . S
C1242 O1243 1.278 . S
C1242 O1250 1.224 . S
O1243 C1242 1.278 . S
C1244 O1245 1.245 . S
C1244 O1256 1.232 . S
O1245 C1244 1.245 . S
O1246 Co1240 2.058 . S
O1246 C1272 1.269 . S
O1247 Co1239 2.074 . S
O1247 C1272 1.257 . S
H1248 C1273 0.930 . S
H1249 C1279 0.930 . S
O1250 Co1239 2.093 . S
O1250 C1242 1.224 . S
H1251 C1283 0.929 . S
H1252 C1285 0.930 . S
H1253 C1286 0.930 . S
H1254 C1284 0.929 . S
H1255 C1287 0.928 . S
O1256 Co1240 2.057 . S
O1256 C1244 1.232 . S
H1257 C1276 0.929 . S
H1258 C1277 0.929 . S
H1259 C1289 0.931 . S
H1260 C1281 0.929 . S
H1261 C1290 0.930 . S
H1262 C1282 0.931 . S
O1263 Co1239 2.097 . S
O1263 C1291 1.214 . S
H1264 C1292 0.929 . S
H1265 C1293 0.929 . S
H1266 C1294 0.930 1_455 S
H1267 C1295 0.929 1_455 S
H1268 C1297 0.930 . S
H1269 C1274 0.930 . S
H1270 C1278 0.930 . S
O1271 Co1240 2.037 . S
O1271 C1291 1.234 . S
C1272 O1246 1.269 . S
C1272 O1247 1.257 . S
C1273 H1248 0.930 . S
C1273 C1276 1.388 . S
C1273 C1278 1.418 1_655 S
C1274 H1269 0.930 . S
C1274 C1277 1.404 1_455 S
C1274 C1278 1.353 . S
N1275 Co1240 2.145 . S
N1275 C1276 1.397 . S
N1275 C1277 1.334 . S
C1276 H1257 0.929 . S
C1276 C1273 1.388 . S
C1276 N1275 1.397 . S
C1277 H1258 0.929 . S
C1277 C1274 1.404 1_655 S
C1277 N1275 1.334 . S
C1278 H1270 0.930 . S
C1278 C1273 1.418 1_455 S
C1278 C1274 1.353 . S
C1279 H1249 0.930 . S
C1279 N1280 1.330 . S
C1279 C1281 1.446 . S
N1280 Co1239 2.151 . S
N1280 C1279 1.330 . S
N1280 C1284 1.418 . S
C1281 H1260 0.929 . S
C1281 C1279 1.446 . S
C1281 C1282 1.332 . S
C1282 H1262 0.931 . S
C1282 C1281 1.332 . S
C1282 C1283 1.267 . S
C1283 H1251 0.929 . S
C1283 C1282 1.267 . S
C1283 C1284 1.251 . S
C1284 H1254 0.929 . S
C1284 N1280 1.418 . S
C1284 C1283 1.251 . S
C1285 H1252 0.930 . S
C1285 C1287 1.406 . S
C1285 C1290 1.261 . S
C1286 H1253 0.930 . S
C1286 N1288 1.325 . S
C1286 C1289 1.357 . S
C1287 H1255 0.928 . S
C1287 C1285 1.406 . S
C1287 N1288 1.261 . S
N1288 Co1239 2.214 . S
N1288 C1286 1.325 . S
N1288 C1287 1.261 . S
C1289 H1259 0.931 . S
C1289 C1286 1.357 . S
C1289 C1290 1.312 . S
C1290 H1261 0.930 . S
C1290 C1285 1.261 . S
C1290 C1289 1.312 . S
C1291 O1263 1.214 . S
C1291 O1271 1.234 . S
C1292 H1264 0.929 . S
C1292 C1295 1.391 . S
C1292 C1297 1.391 . S
C1293 H1265 0.929 . S
C1293 C1294 1.390 . S
C1293 N1296 1.391 . S
C1294 H1266 0.930 1_655 S
C1294 C1293 1.390 . S
C1294 C1295 1.392 . S
C1295 H1267 0.929 1_655 S
C1295 C1292 1.391 . S
C1295 C1294 1.392 . S
N1296 Co1240 2.257 . S
N1296 C1293 1.391 . S
N1296 C1297 1.388 . S
C1297 H1268 0.930 . S
C1297 C1292 1.391 . S
C1297 N1296 1.388 . S
Co1298 O1300 2.143 . S
Co1298 O1306 2.074 . S
Co1298 O1309 2.093 . S
Co1298 O1322 2.097 . S
Co1298 N1339 2.151 . S
Co1298 N1347 2.214 . S
Co1299 O1300 2.160 . S
Co1299 O1305 2.058 . S
Co1299 O1315 2.057 . S
Co1299 O1330 2.037 . S
Co1299 N1334 2.145 . S
Co1299 N1355 2.257 . S
O1300 Co1298 2.143 . S
O1300 Co1299 2.160 . S
C1301 O1302 1.278 . S
C1301 O1309 1.224 . S
O1302 C1301 1.278 . S
C1303 O1304 1.245 . S
C1303 O1315 1.232 . S
O1304 C1303 1.245 . S
O1305 Co1299 2.058 . S
O1305 C1331 1.269 . S
O1306 Co1298 2.074 . S
O1306 C1331 1.257 . S
H1307 C1332 0.930 . S
H1308 C1338 0.930 . S
O1309 Co1298 2.093 . S
O1309 C1301 1.224 . S
H1310 C1342 0.929 . S
H1311 C1344 0.930 . S
H1312 C1345 0.930 . S
H1313 C1343 0.929 . S
H1314 C1346 0.928 . S
O1315 Co1299 2.057 . S
O1315 C1303 1.232 . S
H1316 C1335 0.929 . S
H1317 C1336 0.929 . S
H1318 C1348 0.931 . S
H1319 C1340 0.929 . S
H1320 C1349 0.930 . S
H1321 C1341 0.931 . S
O1322 Co1298 2.097 . S
O1322 C1350 1.214 . S
H1323 C1351 0.929 . S
H1324 C1352 0.929 . S
H1325 C1353 0.930 . S
H1326 C1354 0.929 . S
H1327 C1356 0.930 . S
H1328 C1333 0.930 . S
H1329 C1337 0.930 . S
O1330 Co1299 2.037 . S
O1330 C1350 1.234 . S
C1331 O1305 1.269 . S
C1331 O1306 1.257 . S
C1332 H1307 0.930 . S
C1332 C1335 1.388 . S
C1332 C1337 1.418 . S
C1333 H1328 0.930 . S
C1333 C1336 1.404 . S
C1333 C1337 1.353 . S
N1334 Co1299 2.145 . S
N1334 C1335 1.397 . S
N1334 C1336 1.334 . S
C1335 H1316 0.929 . S
C1335 C1332 1.388 . S
C1335 N1334 1.397 . S
C1336 H1317 0.929 . S
C1336 C1333 1.404 . S
C1336 N1334 1.334 . S
C1337 H1329 0.930 . S
C1337 C1332 1.418 . S
C1337 C1333 1.353 . S
C1338 H1308 0.930 . S
C1338 N1339 1.330 . S
C1338 C1340 1.446 . S
N1339 Co1298 2.151 . S
N1339 C1338 1.330 . S
N1339 C1343 1.418 . S
C1340 H1319 0.929 . S
C1340 C1338 1.446 . S
C1340 C1341 1.332 . S
C1341 H1321 0.931 . S
C1341 C1340 1.332 . S
C1341 C1342 1.267 . S
C1342 H1310 0.929 . S
C1342 C1341 1.267 . S
C1342 C1343 1.251 . S
C1343 H1313 0.929 . S
C1343 N1339 1.418 . S
C1343 C1342 1.251 . S
C1344 H1311 0.930 . S
C1344 C1346 1.406 . S
C1344 C1349 1.261 . S
C1345 H1312 0.930 . S
C1345 N1347 1.325 . S
C1345 C1348 1.357 . S
C1346 H1314 0.928 . S
C1346 C1344 1.406 . S
C1346 N1347 1.261 . S
N1347 Co1298 2.214 . S
N1347 C1345 1.325 . S
N1347 C1346 1.261 . S
C1348 H1318 0.931 . S
C1348 C1345 1.357 . S
C1348 C1349 1.312 . S
C1349 H1320 0.930 . S
C1349 C1344 1.261 . S
C1349 C1348 1.312 . S
C1350 O1322 1.214 . S
C1350 O1330 1.234 . S
C1351 H1323 0.929 . S
C1351 C1354 1.391 . S
C1351 C1356 1.391 . S
C1352 H1324 0.929 . S
C1352 C1353 1.390 . S
C1352 N1355 1.391 . S
C1353 H1325 0.930 . S
C1353 C1352 1.390 . S
C1353 C1354 1.392 . S
C1354 H1326 0.929 . S
C1354 C1351 1.391 . S
C1354 C1353 1.392 . S
N1355 Co1299 2.257 . S
N1355 C1352 1.391 . S
N1355 C1356 1.388 . S
C1356 H1327 0.930 . S
C1356 C1351 1.391 . S
C1356 N1355 1.388 . S
Co1357 O1359 2.143 . S
Co1357 O1365 2.074 . S
Co1357 O1368 2.093 . S
Co1357 O1381 2.097 . S
Co1357 N1398 2.151 . S
Co1357 N1406 2.214 . S
Co1358 O1359 2.160 . S
Co1358 O1364 2.058 . S
Co1358 O1374 2.057 . S
Co1358 O1389 2.037 . S
Co1358 N1393 2.145 . S
Co1358 N1414 2.257 . S
O1359 Co1357 2.143 . S
O1359 Co1358 2.160 . S
C1360 O1361 1.278 . S
C1360 O1368 1.224 . S
O1361 C1360 1.278 . S
C1362 O1363 1.245 . S
C1362 O1374 1.232 . S
O1363 C1362 1.245 . S
O1364 Co1358 2.058 . S
O1364 C1390 1.269 . S
O1365 Co1357 2.074 . S
O1365 C1390 1.257 . S
H1366 C1391 0.930 . S
H1367 C1397 0.930 . S
O1368 Co1357 2.093 . S
O1368 C1360 1.224 . S
H1369 C1401 0.929 . S
H1370 C1403 0.930 . S
H1371 C1404 0.930 . S
H1372 C1402 0.929 . S
H1373 C1405 0.928 . S
O1374 Co1358 2.057 . S
O1374 C1362 1.232 . S
H1375 C1394 0.929 . S
H1376 C1395 0.929 . S
H1377 C1407 0.931 . S
H1378 C1399 0.929 . S
H1379 C1408 0.930 . S
H1380 C1400 0.931 . S
O1381 Co1357 2.097 . S
O1381 C1409 1.214 . S
H1382 C1410 0.929 . S
H1383 C1411 0.929 . S
H1384 C1412 0.930 . S
H1385 C1413 0.929 . S
H1386 C1415 0.930 . S
H1387 C1392 0.930 . S
H1388 C1396 0.930 . S
O1389 Co1358 2.037 . S
O1389 C1409 1.234 . S
C1390 O1364 1.269 . S
C1390 O1365 1.257 . S
C1391 H1366 0.930 . S
C1391 C1394 1.388 . S
C1391 C1396 1.418 . S
C1392 H1387 0.930 . S
C1392 C1395 1.404 . S
C1392 C1396 1.353 . S
N1393 Co1358 2.145 . S
N1393 C1394 1.397 . S
N1393 C1395 1.334 . S
C1394 H1375 0.929 . S
C1394 C1391 1.388 . S
C1394 N1393 1.397 . S
C1395 H1376 0.929 . S
C1395 C1392 1.404 . S
C1395 N1393 1.334 . S
C1396 H1388 0.930 . S
C1396 C1391 1.418 . S
C1396 C1392 1.353 . S
C1397 H1367 0.930 . S
C1397 N1398 1.330 . S
C1397 C1399 1.446 . S
N1398 Co1357 2.151 . S
N1398 C1397 1.330 . S
N1398 C1402 1.418 . S
C1399 H1378 0.929 . S
C1399 C1397 1.446 . S
C1399 C1400 1.332 . S
C1400 H1380 0.931 . S
C1400 C1399 1.332 . S
C1400 C1401 1.267 . S
C1401 H1369 0.929 . S
C1401 C1400 1.267 . S
C1401 C1402 1.251 . S
C1402 H1372 0.929 . S
C1402 N1398 1.418 . S
C1402 C1401 1.251 . S
C1403 H1370 0.930 . S
C1403 C1405 1.406 . S
C1403 C1408 1.261 . S
C1404 H1371 0.930 . S
C1404 N1406 1.325 . S
C1404 C1407 1.357 . S
C1405 H1373 0.928 . S
C1405 C1403 1.406 . S
C1405 N1406 1.261 . S
N1406 Co1357 2.214 . S
N1406 C1404 1.325 . S
N1406 C1405 1.261 . S
C1407 H1377 0.931 . S
C1407 C1404 1.357 . S
C1407 C1408 1.312 . S
C1408 H1379 0.930 . S
C1408 C1403 1.261 . S
C1408 C1407 1.312 . S
C1409 O1381 1.214 . S
C1409 O1389 1.234 . S
C1410 H1382 0.929 . S
C1410 C1413 1.391 . S
C1410 C1415 1.391 . S
C1411 H1383 0.929 . S
C1411 C1412 1.390 . S
C1411 N1414 1.391 . S
C1412 H1384 0.930 . S
C1412 C1411 1.390 . S
C1412 C1413 1.392 . S
C1413 H1385 0.929 . S
C1413 C1410 1.391 . S
C1413 C1412 1.392 . S
N1414 Co1358 2.257 . S
N1414 C1411 1.391 . S
N1414 C1415 1.388 . S
C1415 H1386 0.930 . S
C1415 C1410 1.391 . S
C1415 N1414 1.388 . S
C1416 C1417 1.369 . S
C1416 C1418 1.419 . S
C1416 H1420 0.930 . S
C1417 C1416 1.369 . S
C1417 C1426 1.429 . S
C1418 C1416 1.419 . S
C1418 C1419 1.363 . S
C1418 H1421 0.929 . S
C1419 C1418 1.363 . S
C1419 C1425 1.428 . S
H1420 C1416 0.930 . S
H1421 C1418 0.929 . S
S1422 N1423 1.630 . S
S1422 N1424 1.617 . S
N1423 S1422 1.630 . S
N1423 C1426 1.350 . S
N1424 S1422 1.617 . S
N1424 C1425 1.351 . S
C1425 C1419 1.428 . S
C1425 N1424 1.351 . S
C1425 C1426 1.434 . S
C1426 C1417 1.429 . S
C1426 N1423 1.350 . S
C1426 C1425 1.434 . S
C1427 C1428 1.369 . S
C1427 C1429 1.419 . S
C1427 H1431 0.930 . S
C1428 C1427 1.369 . S
C1428 C1437 1.429 . S
C1429 C1427 1.419 . S
C1429 C1430 1.363 . S
C1429 H1432 0.929 . S
C1430 C1429 1.363 . S
C1430 C1436 1.428 . S
H1431 C1427 0.930 . S
H1432 C1429 0.929 . S
S1433 N1434 1.613 . S
S1433 N1435 1.610 . S
N1434 S1433 1.613 . S
N1434 C1437 1.350 . S
N1435 S1433 1.610 . S
N1435 C1436 1.351 . S
C1436 C1430 1.428 . S
C1436 N1435 1.351 . S
C1436 C1437 1.434 . S
C1437 C1428 1.429 . S
C1437 N1434 1.350 . S
C1437 C1436 1.434 . S
C1438 C1439 1.369 . S
C1438 C1440 1.419 . S
C1438 H1442 0.930 . S
C1439 C1438 1.369 . S
C1439 C1448 1.429 . S
C1440 C1438 1.419 . S
C1440 C1441 1.363 . S
C1440 H1443 0.929 . S
C1441 C1440 1.363 . S
C1441 C1447 1.428 . S
H1442 C1438 0.930 . S
H1443 C1440 0.929 . S
S1444 N1445 1.613 . S
S1444 N1446 1.610 . S
N1445 S1444 1.613 . S
N1445 C1448 1.350 . S
N1446 S1444 1.610 . S
N1446 C1447 1.351 . S
C1447 C1441 1.428 . S
C1447 N1446 1.351 . S
C1447 C1448 1.434 . S
C1448 C1439 1.429 . S
C1448 N1445 1.350 . S
C1448 C1447 1.434 . S
C1449 C1450 1.369 . S
C1449 C1451 1.419 . S
C1449 H1453 0.930 . S
C1450 C1449 1.369 . S
C1450 C1459 1.429 . S
C1451 C1449 1.419 . S
C1451 C1452 1.363 . S
C1451 H1454 0.929 . S
C1452 C1451 1.363 . S
C1452 C1458 1.428 . S
H1453 C1449 0.930 . S
H1454 C1451 0.929 . S
S1455 N1456 1.613 . S
S1455 N1457 1.610 . S
N1456 S1455 1.613 . S
N1456 C1459 1.350 . S
N1457 S1455 1.610 . S
N1457 C1458 1.351 . S
C1458 C1452 1.428 . S
C1458 N1457 1.351 . S
C1458 C1459 1.434 . S
C1459 C1450 1.429 . S
C1459 N1456 1.350 . S
C1459 C1458 1.434 . S
C1460 C1461 1.369 . S
C1460 C1462 1.419 . S
C1460 H1464 0.930 . S
C1461 C1460 1.369 . S
C1461 C1470 1.429 . S
C1462 C1460 1.419 . S
C1462 C1463 1.363 . S
C1462 H1465 0.929 . S
C1463 C1462 1.363 . S
C1463 C1469 1.428 . S
H1464 C1460 0.930 . S
H1465 C1462 0.929 . S
S1466 N1467 1.613 . S
S1466 N1468 1.610 . S
N1467 S1466 1.613 . S
N1467 C1470 1.350 . S
N1468 S1466 1.610 . S
N1468 C1469 1.351 . S
C1469 C1463 1.428 . S
C1469 N1468 1.351 . S
C1469 C1470 1.434 . S
C1470 C1461 1.429 . S
C1470 N1467 1.350 . S
C1470 C1469 1.434 . S
C1471 C1472 1.369 . S
C1471 C1473 1.419 . S
C1471 H1475 0.930 . S
C1472 C1471 1.369 . S
C1472 C1481 1.429 . S
C1473 C1471 1.419 . S
C1473 C1474 1.363 . S
C1473 H1476 0.929 . S
C1474 C1473 1.363 . S
C1474 C1480 1.428 . S
H1475 C1471 0.930 . S
H1476 C1473 0.929 . S
S1477 N1478 1.613 . S
S1477 N1479 1.610 . S
N1478 S1477 1.613 . S
N1478 C1481 1.350 . S
N1479 S1477 1.610 . S
N1479 C1480 1.351 . S
C1480 C1474 1.428 . S
C1480 N1479 1.351 . S
C1480 C1481 1.434 . S
C1481 C1472 1.429 . S
C1481 N1478 1.350 . S
C1481 C1480 1.434 . S
C1482 C1483 1.369 . S
C1482 C1484 1.419 . S
C1482 H1486 0.930 . S
C1483 C1482 1.369 . S
C1483 C1492 1.429 . S
C1484 C1482 1.419 . S
C1484 C1485 1.363 . S
C1484 H1487 0.929 . S
C1485 C1484 1.363 . S
C1485 C1491 1.428 . S
H1486 C1482 0.930 . S
H1487 C1484 0.929 . S
S1488 N1489 1.613 . S
S1488 N1490 1.610 . S
N1489 S1488 1.613 . S
N1489 C1492 1.350 . S
N1490 S1488 1.610 . S
N1490 C1491 1.351 . S
C1491 C1485 1.428 . S
C1491 N1490 1.351 . S
C1491 C1492 1.434 . S
C1492 C1483 1.429 . S
C1492 N1489 1.350 . S
C1492 C1491 1.434 . S
C1493 C1494 1.369 . S
C1493 C1495 1.419 . S
C1493 H1497 0.930 . S
C1494 C1493 1.369 . S
C1494 C1503 1.429 . S
C1495 C1493 1.419 . S
C1495 C1496 1.363 . S
C1495 H1498 0.929 . S
C1496 C1495 1.363 . S
C1496 C1502 1.428 . S
H1497 C1493 0.930 . S
H1498 C1495 0.929 . S
S1499 N1500 1.627 . S
S1499 N1501 1.610 . S
N1500 S1499 1.627 . S
N1500 C1503 1.350 . S
N1501 S1499 1.610 . S
N1501 C1502 1.351 . S
C1502 C1496 1.428 . S
C1502 N1501 1.351 . S
C1502 C1503 1.434 . S
C1503 C1494 1.429 . S
C1503 N1500 1.350 . S
C1503 C1502 1.434 . S
C1504 C1505 1.369 . S
C1504 C1506 1.419 . S
C1504 H1508 0.930 . S
C1505 C1504 1.369 . S
C1505 C1514 1.429 . S
C1506 C1504 1.419 . S
C1506 C1507 1.363 . S
C1506 H1509 0.929 . S
C1507 C1506 1.363 . S
C1507 C1513 1.428 . S
H1508 C1504 0.930 . S
H1509 C1506 0.929 . S
S1510 N1511 1.613 . S
S1510 N1512 1.610 . S
N1511 S1510 1.613 . S
N1511 C1514 1.350 . S
N1512 S1510 1.610 . S
N1512 C1513 1.351 . S
C1513 C1507 1.428 . S
C1513 N1512 1.351 . S
C1513 C1514 1.434 . S
C1514 C1505 1.429 . S
C1514 N1511 1.350 . S
C1514 C1513 1.434 . S
C1515 C1516 1.369 . S
C1515 C1517 1.419 . S
C1515 H1519 0.930 . S
C1516 C1515 1.369 . S
C1516 C1525 1.429 . S
C1517 C1515 1.419 . S
C1517 C1518 1.363 . S
C1517 H1520 0.929 . S
C1518 C1517 1.363 . S
C1518 C1524 1.428 . S
H1519 C1515 0.930 . S
H1520 C1517 0.929 . S
S1521 N1522 1.613 . S
S1521 N1523 1.610 . S
N1522 S1521 1.613 . S
N1522 C1525 1.350 . S
N1523 S1521 1.610 . S
N1523 C1524 1.351 . S
C1524 C1518 1.428 . S
C1524 N1523 1.351 . S
C1524 C1525 1.434 . S
C1525 C1516 1.429 . S
C1525 N1522 1.350 . S
C1525 C1524 1.434 . S
C1526 C1527 1.369 . S
C1526 C1528 1.419 . S
C1526 H1530 0.930 . S
C1527 C1526 1.369 . S
C1527 C1536 1.429 . S
C1528 C1526 1.419 . S
C1528 C1529 1.363 . S
C1528 H1531 0.929 . S
C1529 C1528 1.363 . S
C1529 C1535 1.428 . S
H1530 C1526 0.930 . S
H1531 C1528 0.929 . S
S1532 N1533 1.614 1_545 S
S1532 N1534 1.592 1_545 S
N1533 S1532 1.614 1_565 S
N1533 C1536 1.350 . S
N1534 S1532 1.592 1_565 S
N1534 C1535 1.351 . S
C1535 C1529 1.428 . S
C1535 N1534 1.351 . S
C1535 C1536 1.434 . S
C1536 C1527 1.429 . S
C1536 N1533 1.350 . S
C1536 C1535 1.434 . S
C1537 C1538 1.369 . S
C1537 C1539 1.419 . S
C1537 H1541 0.930 . S
C1538 C1537 1.369 . S
C1538 C1547 1.429 . S
C1539 C1537 1.419 . S
C1539 C1540 1.363 . S
C1539 H1542 0.929 . S
C1540 C1539 1.363 . S
C1540 C1546 1.428 . S
H1541 C1537 0.930 . S
H1542 C1539 0.929 . S
S1543 N1544 1.613 . S
S1543 N1545 1.610 . S
N1544 S1543 1.613 . S
N1544 C1547 1.350 . S
N1545 S1543 1.610 . S
N1545 C1546 1.351 . S
C1546 C1540 1.428 . S
C1546 N1545 1.351 . S
C1546 C1547 1.434 . S
C1547 C1538 1.429 . S
C1547 N1544 1.350 . S
C1547 C1546 1.434 . S
C1548 C1549 1.369 . S
C1548 C1550 1.419 . S
C1548 H1552 0.930 . S
C1549 C1548 1.369 . S
C1549 C1558 1.429 . S
C1550 C1548 1.419 . S
C1550 C1551 1.363 . S
C1550 H1553 0.929 . S
C1551 C1550 1.363 . S
C1551 C1557 1.428 . S
H1552 C1548 0.930 . S
H1553 C1550 0.929 . S
S1554 N1555 1.613 1_556 S
S1554 N1556 1.610 1_556 S
N1555 S1554 1.613 1_554 S
N1555 C1558 1.350 . S
N1556 S1554 1.610 1_554 S
N1556 C1557 1.351 . S
C1557 C1551 1.428 . S
C1557 N1556 1.351 . S
C1557 C1558 1.434 . S
C1558 C1549 1.429 . S
C1558 N1555 1.350 . S
C1558 C1557 1.434 . S
C1559 C1560 1.369 . S
C1559 C1561 1.419 . S
C1559 H1563 0.930 . S
C1560 C1559 1.369 . S
C1560 C1569 1.429 . S
C1561 C1559 1.419 . S
C1561 C1562 1.363 . S
C1561 H1564 0.929 . S
C1562 C1561 1.363 . S
C1562 C1568 1.428 . S
H1563 C1559 0.930 . S
H1564 C1561 0.929 . S
S1565 N1566 1.613 . S
S1565 N1567 1.610 . S
N1566 S1565 1.613 . S
N1566 C1569 1.350 . S
N1567 S1565 1.610 . S
N1567 C1568 1.351 . S
C1568 C1562 1.428 . S
C1568 N1567 1.351 . S
C1568 C1569 1.434 . S
C1569 C1560 1.429 . S
C1569 N1566 1.350 . S
C1569 C1568 1.434 . S
C1570 C1571 1.369 . S
C1570 C1572 1.419 . S
C1570 H1574 0.930 . S
C1571 C1570 1.369 . S
C1571 C1580 1.429 . S
C1572 C1570 1.419 . S
C1572 C1573 1.363 . S
C1572 H1575 0.929 . S
C1573 C1572 1.363 . S
C1573 C1579 1.428 . S
H1574 C1570 0.930 . S
H1575 C1572 0.929 . S
S1576 N1577 1.613 . S
S1576 N1578 1.610 . S
N1577 S1576 1.613 . S
N1577 C1580 1.350 . S
N1578 S1576 1.610 . S
N1578 C1579 1.351 . S
C1579 C1573 1.428 . S
C1579 N1578 1.351 . S
C1579 C1580 1.434 . S
C1580 C1571 1.429 . S
C1580 N1577 1.350 . S
C1580 C1579 1.434 . S
C1581 C1582 1.369 . S
C1581 C1583 1.419 . S
C1581 H1585 0.930 . S
C1582 C1581 1.369 . S
C1582 C1591 1.429 . S
C1583 C1581 1.419 . S
C1583 C1584 1.363 . S
C1583 H1586 0.929 . S
C1584 C1583 1.363 . S
C1584 C1590 1.428 . S
H1585 C1581 0.930 . S
H1586 C1583 0.929 . S
S1587 N1588 1.613 . S
S1587 N1589 1.610 1_455 S
N1588 S1587 1.613 . S
N1588 C1591 1.350 1_455 S
N1589 S1587 1.610 1_655 S
N1589 C1590 1.351 . S
C1590 C1584 1.428 . S
C1590 N1589 1.351 . S
C1590 C1591 1.434 . S
C1591 C1582 1.429 . S
C1591 N1588 1.350 1_655 S
C1591 C1590 1.434 . S
C1592 C1593 1.369 . S
C1592 C1594 1.419 . S
C1592 H1596 0.930 . S
C1593 C1592 1.369 . S
C1593 C1602 1.429 . S
C1594 C1592 1.419 . S
C1594 C1595 1.363 . S
C1594 H1597 0.929 . S
C1595 C1594 1.363 . S
C1595 C1601 1.428 . S
H1596 C1592 0.930 . S
H1597 C1594 0.929 . S
S1598 N1599 1.613 . S
S1598 N1600 1.610 . S
N1599 S1598 1.613 . S
N1599 C1602 1.350 . S
N1600 S1598 1.610 . S
N1600 C1601 1.351 . S
C1601 C1595 1.428 . S
C1601 N1600 1.351 . S
C1601 C1602 1.434 . S
C1602 C1593 1.429 . S
C1602 N1599 1.350 . S
C1602 C1601 1.434 . S
C1603 C1604 1.369 . S
C1603 C1605 1.419 . S
C1603 H1607 0.930 . S
C1604 C1603 1.369 . S
C1604 C1613 1.429 . S
C1605 C1603 1.419 . S
C1605 C1606 1.363 . S
C1605 H1608 0.929 . S
C1606 C1605 1.363 . S
C1606 C1612 1.428 . S
H1607 C1603 0.930 . S
H1608 C1605 0.929 . S
S1609 N1610 1.613 . S
S1609 N1611 1.610 . S
N1610 S1609 1.613 . S
N1610 C1613 1.350 . S
N1611 S1609 1.610 . S
N1611 C1612 1.351 . S
C1612 C1606 1.428 . S
C1612 N1611 1.351 . S
C1612 C1613 1.434 . S
C1613 C1604 1.429 . S
C1613 N1610 1.350 . S
C1613 C1612 1.434 . S
C1614 C1615 1.369 . S
C1614 C1616 1.419 . S
C1614 H1618 0.930 . S
C1615 C1614 1.369 . S
C1615 C1624 1.429 . S
C1616 C1614 1.419 . S
C1616 C1617 1.363 . S
C1616 H1619 0.929 . S
C1617 C1616 1.363 . S
C1617 C1623 1.428 . S
H1618 C1614 0.930 . S
H1619 C1616 0.929 . S
S1620 N1621 1.613 . S
S1620 N1622 1.610 . S
N1621 S1620 1.613 . S
N1621 C1624 1.350 . S
N1622 S1620 1.610 . S
N1622 C1623 1.351 . S
C1623 C1617 1.428 . S
C1623 N1622 1.351 . S
C1623 C1624 1.434 . S
C1624 C1615 1.429 . S
C1624 N1621 1.350 . S
C1624 C1623 1.434 . S
C1625 C1626 1.369 . S
C1625 C1627 1.419 . S
C1625 H1629 0.930 . S
C1626 C1625 1.369 . S
C1626 C1635 1.429 . S
C1627 C1625 1.419 . S
C1627 C1628 1.363 . S
C1627 H1630 0.929 . S
C1628 C1627 1.363 . S
C1628 C1634 1.428 . S
H1629 C1625 0.930 . S
H1630 C1627 0.929 . S
S1631 N1632 1.613 . S
S1631 N1633 1.610 . S
N1632 S1631 1.613 . S
N1632 C1635 1.350 . S
N1633 S1631 1.610 . S
N1633 C1634 1.351 . S
C1634 C1628 1.428 . S
C1634 N1633 1.351 . S
C1634 C1635 1.434 . S
C1635 C1626 1.429 . S
C1635 N1632 1.350 . S
C1635 C1634 1.434 . S
C1636 C1637 1.369 . S
C1636 C1638 1.419 . S
C1636 H1640 0.930 . S
C1637 C1636 1.369 . S
C1637 C1646 1.429 . S
C1638 C1636 1.419 . S
C1638 C1639 1.363 . S
C1638 H1641 0.929 . S
C1639 C1638 1.363 . S
C1639 C1645 1.428 . S
H1640 C1636 0.930 . S
H1641 C1638 0.929 . S
S1642 N1643 1.613 . S
S1642 N1644 1.610 . S
N1643 S1642 1.613 . S
N1643 C1646 1.350 . S
N1644 S1642 1.610 . S
N1644 C1645 1.351 . S
C1645 C1639 1.428 . S
C1645 N1644 1.351 . S
C1645 C1646 1.434 . S
C1646 C1637 1.429 . S
C1646 N1643 1.350 . S
C1646 C1645 1.434 . S
C1647 C1648 1.369 . S
C1647 C1649 1.419 . S
C1647 H1651 0.930 . S
C1648 C1647 1.369 . S
C1648 C1657 1.429 . S
C1649 C1647 1.419 . S
C1649 C1650 1.363 . S
C1649 H1652 0.929 . S
C1650 C1649 1.363 . S
C1650 C1656 1.428 . S
H1651 C1647 0.930 . S
H1652 C1649 0.929 . S
S1653 N1654 1.613 . S
S1653 N1655 1.610 . S
N1654 S1653 1.613 . S
N1654 C1657 1.350 . S
N1655 S1653 1.610 . S
N1655 C1656 1.351 . S
C1656 C1650 1.428 . S
C1656 N1655 1.351 . S
C1656 C1657 1.434 . S
C1657 C1648 1.429 . S
C1657 N1654 1.350 . S
C1657 C1656 1.434 . S
C1658 C1659 1.369 . S
C1658 C1660 1.419 . S
C1658 H1662 0.930 . S
C1659 C1658 1.369 . S
C1659 C1668 1.429 . S
C1660 C1658 1.419 . S
C1660 C1661 1.363 . S
C1660 H1663 0.929 . S
C1661 C1660 1.363 . S
C1661 C1667 1.428 . S
H1662 C1658 0.930 . S
H1663 C1660 0.929 . S
S1664 N1665 1.613 . S
S1664 N1666 1.610 . S
N1665 S1664 1.613 . S
N1665 C1668 1.350 . S
N1666 S1664 1.610 . S
N1666 C1667 1.351 . S
C1667 C1661 1.428 . S
C1667 N1666 1.351 . S
C1667 C1668 1.434 . S
C1668 C1659 1.429 . S
C1668 N1665 1.350 . S
C1668 C1667 1.434 . S
C1669 C1670 1.369 . S
C1669 C1671 1.419 . S
C1669 H1673 0.930 . S
C1670 C1669 1.369 . S
C1670 C1679 1.429 . S
C1671 C1669 1.419 . S
C1671 C1672 1.363 . S
C1671 H1674 0.929 . S
C1672 C1671 1.363 . S
C1672 C1678 1.428 . S
H1673 C1669 0.930 . S
H1674 C1671 0.929 . S
S1675 N1676 1.613 . S
S1675 N1677 1.610 . S
N1676 S1675 1.613 . S
N1676 C1679 1.350 . S
N1677 S1675 1.610 . S
N1677 C1678 1.351 . S
C1678 C1672 1.428 . S
C1678 N1677 1.351 . S
C1678 C1679 1.434 . S
C1679 C1670 1.429 . S
C1679 N1676 1.350 . S
C1679 C1678 1.434 . S
C1680 C1681 1.369 . S
C1680 C1682 1.419 . S
C1680 H1684 0.930 . S
C1681 C1680 1.369 . S
C1681 C1690 1.429 . S
C1682 C1680 1.419 . S
C1682 C1683 1.363 . S
C1682 H1685 0.929 . S
C1683 C1682 1.363 . S
C1683 C1689 1.428 . S
H1684 C1680 0.930 . S
H1685 C1682 0.929 . S
S1686 N1687 1.613 . S
S1686 N1688 1.610 . S
N1687 S1686 1.613 . S
N1687 C1690 1.350 . S
N1688 S1686 1.610 . S
N1688 C1689 1.351 . S
C1689 C1683 1.428 . S
C1689 N1688 1.351 . S
C1689 C1690 1.434 . S
C1690 C1681 1.429 . S
C1690 N1687 1.350 . S
C1690 C1689 1.434 . S
C1691 C1692 1.369 . S
C1691 C1693 1.419 . S
C1691 H1695 0.930 . S
C1692 C1691 1.369 . S
C1692 C1701 1.429 . S
C1693 C1691 1.419 . S
C1693 C1694 1.363 . S
C1693 H1696 0.929 . S
C1694 C1693 1.363 . S
C1694 C1700 1.428 . S
H1695 C1691 0.930 . S
H1696 C1693 0.929 . S
S1697 N1698 1.613 . S
S1697 N1699 1.610 . S
N1698 S1697 1.613 . S
N1698 C1701 1.350 . S
N1699 S1697 1.610 . S
N1699 C1700 1.351 . S
C1700 C1694 1.428 . S
C1700 N1699 1.351 . S
C1700 C1701 1.434 . S
C1701 C1692 1.429 . S
C1701 N1698 1.350 . S
C1701 C1700 1.434 . S
C1702 C1703 1.369 . S
C1702 C1704 1.419 . S
C1702 H1706 0.930 . S
C1703 C1702 1.369 . S
C1703 C1712 1.429 . S
C1704 C1702 1.419 . S
C1704 C1705 1.363 . S
C1704 H1707 0.929 . S
C1705 C1704 1.363 . S
C1705 C1711 1.428 . S
H1706 C1702 0.930 . S
H1707 C1704 0.929 . S
S1708 N1709 1.613 . S
S1708 N1710 1.610 . S
N1709 S1708 1.613 . S
N1709 C1712 1.350 . S
N1710 S1708 1.610 . S
N1710 C1711 1.351 . S
C1711 C1705 1.428 . S
C1711 N1710 1.351 . S
C1711 C1712 1.434 . S
C1712 C1703 1.429 . S
C1712 N1709 1.350 . S
C1712 C1711 1.434 . S
C1713 C1714 1.369 . S
C1713 C1715 1.419 . S
C1713 H1717 0.930 . S
C1714 C1713 1.369 . S
C1714 C1723 1.429 . S
C1715 C1713 1.419 . S
C1715 C1716 1.363 . S
C1715 H1718 0.929 . S
C1716 C1715 1.363 . S
C1716 C1722 1.428 . S
H1717 C1713 0.930 . S
H1718 C1715 0.929 . S
S1719 N1720 1.613 . S
S1719 N1721 1.610 . S
N1720 S1719 1.613 . S
N1720 C1723 1.350 . S
N1721 S1719 1.610 . S
N1721 C1722 1.351 . S
C1722 C1716 1.428 . S
C1722 N1721 1.351 . S
C1722 C1723 1.434 . S
C1723 C1714 1.429 . S
C1723 N1720 1.350 . S
C1723 C1722 1.434 . S
C1724 C1725 1.369 . S
C1724 C1726 1.419 . S
C1724 H1728 0.930 . S
C1725 C1724 1.369 . S
C1725 C1734 1.429 . S
C1726 C1724 1.419 . S
C1726 C1727 1.363 . S
C1726 H1729 0.929 . S
C1727 C1726 1.363 . S
C1727 C1733 1.428 . S
H1728 C1724 0.930 . S
H1729 C1726 0.929 . S
S1730 N1731 1.613 1_655 S
S1730 N1732 1.610 1_655 S
N1731 S1730 1.613 1_455 S
N1731 C1734 1.350 . S
N1732 S1730 1.610 1_455 S
N1732 C1733 1.351 . S
C1733 C1727 1.428 . S
C1733 N1732 1.351 . S
C1733 C1734 1.434 . S
C1734 C1725 1.429 . S
C1734 N1731 1.350 . S
C1734 C1733 1.434 . S
C1735 C1736 1.369 . S
C1735 C1737 1.419 . S
C1735 H1739 0.930 . S
C1736 C1735 1.369 . S
C1736 C1745 1.429 . S
C1737 C1735 1.419 . S
C1737 C1738 1.363 . S
C1737 H1740 0.929 . S
C1738 C1737 1.363 . S
C1738 C1744 1.428 . S
H1739 C1735 0.930 . S
H1740 C1737 0.929 . S
S1741 N1742 1.613 . S
S1741 N1743 1.610 . S
N1742 S1741 1.613 . S
N1742 C1745 1.350 . S
N1743 S1741 1.610 . S
N1743 C1744 1.351 . S
C1744 C1738 1.428 . S
C1744 N1743 1.351 . S
C1744 C1745 1.434 . S
C1745 C1736 1.429 . S
C1745 N1742 1.350 . S
C1745 C1744 1.434 . S
C1746 C1747 1.369 . S
C1746 C1748 1.419 . S
C1746 H1750 0.930 . S
C1747 C1746 1.369 . S
C1747 C1756 1.429 . S
C1748 C1746 1.419 . S
C1748 C1749 1.363 . S
C1748 H1751 0.929 . S
C1749 C1748 1.363 . S
C1749 C1755 1.428 . S
H1750 C1746 0.930 . S
H1751 C1748 0.929 . S
S1752 N1753 1.613 . S
S1752 N1754 1.610 . S
N1753 S1752 1.613 . S
N1753 C1756 1.350 . S
N1754 S1752 1.610 . S
N1754 C1755 1.351 . S
C1755 C1749 1.428 . S
C1755 N1754 1.351 . S
C1755 C1756 1.434 . S
C1756 C1747 1.429 . S
C1756 N1753 1.350 . S
C1756 C1755 1.434 . S
C1757 C1758 1.369 . S
C1757 C1759 1.419 . S
C1757 H1761 0.930 . S
C1758 C1757 1.369 . S
C1758 C1767 1.429 . S
C1759 C1757 1.419 . S
C1759 C1760 1.363 . S
C1759 H1762 0.929 . S
C1760 C1759 1.363 . S
C1760 C1766 1.428 . S
H1761 C1757 0.930 . S
H1762 C1759 0.929 . S
S1763 N1764 1.613 . S
S1763 N1765 1.610 1_455 S
N1764 S1763 1.613 . S
N1764 C1767 1.350 1_455 S
N1765 S1763 1.610 1_655 S
N1765 C1766 1.351 . S
C1766 C1760 1.428 . S
C1766 N1765 1.351 . S
C1766 C1767 1.434 . S
C1767 C1758 1.429 . S
C1767 N1764 1.350 1_655 S
C1767 C1766 1.434 . S
C1768 C1769 1.369 . S
C1768 C1770 1.419 . S
C1768 H1772 0.930 . S
C1769 C1768 1.369 . S
C1769 C1778 1.429 . S
C1770 C1768 1.419 . S
C1770 C1771 1.363 . S
C1770 H1773 0.929 . S
C1771 C1770 1.363 . S
C1771 C1777 1.428 . S
H1772 C1768 0.930 . S
H1773 C1770 0.929 . S
S1774 N1775 1.613 . S
S1774 N1776 1.610 . S
N1775 S1774 1.613 . S
N1775 C1778 1.350 . S
N1776 S1774 1.610 . S
N1776 C1777 1.351 . S
C1777 C1771 1.428 . S
C1777 N1776 1.351 . S
C1777 C1778 1.434 . S
C1778 C1769 1.429 . S
C1778 N1775 1.350 . S
C1778 C1777 1.434 . S
C1779 C1780 1.369 . S
C1779 C1781 1.419 . S
C1779 H1783 0.930 . S
C1780 C1779 1.369 . S
C1780 C1789 1.429 . S
C1781 C1779 1.419 . S
C1781 C1782 1.363 . S
C1781 H1784 0.929 . S
C1782 C1781 1.363 . S
C1782 C1788 1.428 . S
H1783 C1779 0.930 . S
H1784 C1781 0.929 . S
S1785 N1786 1.613 . S
S1785 N1787 1.610 . S
N1786 S1785 1.613 . S
N1786 C1789 1.350 . S
N1787 S1785 1.610 . S
N1787 C1788 1.351 . S
C1788 C1782 1.428 . S
C1788 N1787 1.351 . S
C1788 C1789 1.434 . S
C1789 C1780 1.429 . S
C1789 N1786 1.350 . S
C1789 C1788 1.434 . S
C1790 C1791 1.369 . S
C1790 C1792 1.419 . S
C1790 H1794 0.930 . S
C1791 C1790 1.369 . S
C1791 C1800 1.429 . S
C1792 C1790 1.419 . S
C1792 C1793 1.363 . S
C1792 H1795 0.929 . S
C1793 C1792 1.363 . S
C1793 C1799 1.428 . S
H1794 C1790 0.930 . S
H1795 C1792 0.929 . S
S1796 N1797 1.613 . S
S1796 N1798 1.610 . S
N1797 S1796 1.613 . S
N1797 C1800 1.350 . S
N1798 S1796 1.610 . S
N1798 C1799 1.351 . S
C1799 C1793 1.428 . S
C1799 N1798 1.351 . S
C1799 C1800 1.434 . S
C1800 C1791 1.429 . S
C1800 N1797 1.350 . S
C1800 C1799 1.434 . S
C1801 C1802 1.369 . S
C1801 C1803 1.419 . S
C1801 H1805 0.930 . S
C1802 C1801 1.369 . S
C1802 C1811 1.429 . S
C1803 C1801 1.419 . S
C1803 C1804 1.363 . S
C1803 H1806 0.929 . S
C1804 C1803 1.363 . S
C1804 C1810 1.428 . S
H1805 C1801 0.930 . S
H1806 C1803 0.929 . S
S1807 N1808 1.613 . S
S1807 N1809 1.610 . S
N1808 S1807 1.613 . S
N1808 C1811 1.350 . S
N1809 S1807 1.610 . S
N1809 C1810 1.351 . S
C1810 C1804 1.428 . S
C1810 N1809 1.351 . S
C1810 C1811 1.434 . S
C1811 C1802 1.429 . S
C1811 N1808 1.350 . S
C1811 C1810 1.434 . S
C1812 C1813 1.369 . S
C1812 C1814 1.419 . S
C1812 H1816 0.930 . S
C1813 C1812 1.369 . S
C1813 C1822 1.429 . S
C1814 C1812 1.419 . S
C1814 C1815 1.363 . S
C1814 H1817 0.929 . S
C1815 C1814 1.363 . S
C1815 C1821 1.428 . S
H1816 C1812 0.930 . S
H1817 C1814 0.929 . S
S1818 N1819 1.613 . S
S1818 N1820 1.610 . S
N1819 S1818 1.613 . S
N1819 C1822 1.350 . S
N1820 S1818 1.610 . S
N1820 C1821 1.351 . S
C1821 C1815 1.428 . S
C1821 N1820 1.351 . S
C1821 C1822 1.434 . S
C1822 C1813 1.429 . S
C1822 N1819 1.350 . S
C1822 C1821 1.434 . S
C1823 C1824 1.369 . S
C1823 C1825 1.419 . S
C1823 H1827 0.930 . S
C1824 C1823 1.369 . S
C1824 C1833 1.429 . S
C1825 C1823 1.419 . S
C1825 C1826 1.363 . S
C1825 H1828 0.929 . S
C1826 C1825 1.363 . S
C1826 C1832 1.428 . S
H1827 C1823 0.930 . S
H1828 C1825 0.929 . S
S1829 N1830 1.613 . S
S1829 N1831 1.610 . S
N1830 S1829 1.613 . S
N1830 C1833 1.350 . S
N1831 S1829 1.610 . S
N1831 C1832 1.351 . S
C1832 C1826 1.428 . S
C1832 N1831 1.351 . S
C1832 C1833 1.434 . S
C1833 C1824 1.429 . S
C1833 N1830 1.350 . S
C1833 C1832 1.434 . S
C1834 C1835 1.369 . S
C1834 C1836 1.419 . S
C1834 H1838 0.930 . S
C1835 C1834 1.369 . S
C1835 C1844 1.429 . S
C1836 C1834 1.419 . S
C1836 C1837 1.363 . S
C1836 H1839 0.929 . S
C1837 C1836 1.363 . S
C1837 C1843 1.428 . S
H1838 C1834 0.930 . S
H1839 C1836 0.929 . S
S1840 N1841 1.613 . S
S1840 N1842 1.610 . S
N1841 S1840 1.613 . S
N1841 C1844 1.350 . S
N1842 S1840 1.610 . S
N1842 C1843 1.351 . S
C1843 C1837 1.428 . S
C1843 N1842 1.351 . S
C1843 C1844 1.434 . S
C1844 C1835 1.429 . S
C1844 N1841 1.350 . S
C1844 C1843 1.434 . S
C1845 C1846 1.369 . S
C1845 C1847 1.419 . S
C1845 H1849 0.930 . S
C1846 C1845 1.369 . S
C1846 C1855 1.429 . S
C1847 C1845 1.419 . S
C1847 C1848 1.363 . S
C1847 H1850 0.929 . S
C1848 C1847 1.363 . S
C1848 C1854 1.428 . S
H1849 C1845 0.930 . S
H1850 C1847 0.929 . S
S1851 N1852 1.613 . S
S1851 N1853 1.610 . S
N1852 S1851 1.613 . S
N1852 C1855 1.350 . S
N1853 S1851 1.610 . S
N1853 C1854 1.351 . S
C1854 C1848 1.428 . S
C1854 N1853 1.351 . S
C1854 C1855 1.434 . S
C1855 C1846 1.429 . S
C1855 N1852 1.350 . S
C1855 C1854 1.434 . S
C1856 C1857 1.369 . S
C1856 C1858 1.419 . S
C1856 H1860 0.930 . S
C1857 C1856 1.369 . S
C1857 C1866 1.429 . S
C1858 C1856 1.419 . S
C1858 C1859 1.363 . S
C1858 H1861 0.929 . S
C1859 C1858 1.363 . S
C1859 C1865 1.428 . S
H1860 C1856 0.930 . S
H1861 C1858 0.929 . S
S1862 N1863 1.613 . S
S1862 N1864 1.610 . S
N1863 S1862 1.613 . S
N1863 C1866 1.350 . S
N1864 S1862 1.610 . S
N1864 C1865 1.351 . S
C1865 C1859 1.428 . S
C1865 N1864 1.351 . S
C1865 C1866 1.434 . S
C1866 C1857 1.429 . S
C1866 N1863 1.350 . S
C1866 C1865 1.434 . S
C1867 C1868 1.369 . S
C1867 C1869 1.419 . S
C1867 H1871 0.930 . S
C1868 C1867 1.369 . S
C1868 C1877 1.429 . S
C1869 C1867 1.419 . S
C1869 C1870 1.363 . S
C1869 H1872 0.929 . S
C1870 C1869 1.363 . S
C1870 C1876 1.428 . S
H1871 C1867 0.930 . S
H1872 C1869 0.929 . S
S1873 N1874 1.613 . S
S1873 N1875 1.610 . S
N1874 S1873 1.613 . S
N1874 C1877 1.350 . S
N1875 S1873 1.610 . S
N1875 C1876 1.351 . S
C1876 C1870 1.428 . S
C1876 N1875 1.351 . S
C1876 C1877 1.434 . S
C1877 C1868 1.429 . S
C1877 N1874 1.350 . S
C1877 C1876 1.434 . S
C1878 C1879 1.369 . S
C1878 C1880 1.419 . S
C1878 H1882 0.930 . S
C1879 C1878 1.369 . S
C1879 C1888 1.429 . S
C1880 C1878 1.419 . S
C1880 C1881 1.363 . S
C1880 H1883 0.929 . S
C1881 C1880 1.363 . S
C1881 C1887 1.428 . S
H1882 C1878 0.930 . S
H1883 C1880 0.929 . S
S1884 N1885 1.613 . S
S1884 N1886 1.610 . S
N1885 S1884 1.613 . S
N1885 C1888 1.350 . S
N1886 S1884 1.610 . S
N1886 C1887 1.351 . S
C1887 C1881 1.428 . S
C1887 N1886 1.351 . S
C1887 C1888 1.434 . S
C1888 C1879 1.429 . S
C1888 N1885 1.350 . S
C1888 C1887 1.434 . S
C1889 C1890 1.369 . S
C1889 C1891 1.419 . S
C1889 H1893 0.930 . S
C1890 C1889 1.369 . S
C1890 C1899 1.429 . S
C1891 C1889 1.419 . S
C1891 C1892 1.363 . S
C1891 H1894 0.929 . S
C1892 C1891 1.363 . S
C1892 C1898 1.428 . S
H1893 C1889 0.930 . S
H1894 C1891 0.929 . S
S1895 N1896 1.613 . S
S1895 N1897 1.610 . S
N1896 S1895 1.613 . S
N1896 C1899 1.350 . S
N1897 S1895 1.610 . S
N1897 C1898 1.351 . S
C1898 C1892 1.428 . S
C1898 N1897 1.351 . S
C1898 C1899 1.434 . S
C1899 C1890 1.429 . S
C1899 N1896 1.350 . S
C1899 C1898 1.434 . S
C1900 C1901 1.369 . S
C1900 C1902 1.419 . S
C1900 H1904 0.930 . S
C1901 C1900 1.369 . S
C1901 C1910 1.429 . S
C1902 C1900 1.419 . S
C1902 C1903 1.363 . S
C1902 H1905 0.929 . S
C1903 C1902 1.363 . S
C1903 C1909 1.428 . S
H1904 C1900 0.930 . S
H1905 C1902 0.929 . S
S1906 N1907 1.613 . S
S1906 N1908 1.610 . S
N1907 S1906 1.613 . S
N1907 C1910 1.350 . S
N1908 S1906 1.610 . S
N1908 C1909 1.351 . S
C1909 C1903 1.428 . S
C1909 N1908 1.351 . S
C1909 C1910 1.434 . S
C1910 C1901 1.429 . S
C1910 N1907 1.350 . S
C1910 C1909 1.434 . S
C1911 C1912 1.369 . S
C1911 C1913 1.419 . S
C1911 H1915 0.930 . S
C1912 C1911 1.369 . S
C1912 C1921 1.429 . S
C1913 C1911 1.419 . S
C1913 C1914 1.363 . S
C1913 H1916 0.929 . S
C1914 C1913 1.363 . S
C1914 C1920 1.428 . S
H1915 C1911 0.930 . S
H1916 C1913 0.929 . S
S1917 N1918 1.613 . S
S1917 N1919 1.610 . S
N1918 S1917 1.613 . S
N1918 C1921 1.350 . S
N1919 S1917 1.610 . S
N1919 C1920 1.351 . S
C1920 C1914 1.428 . S
C1920 N1919 1.351 . S
C1920 C1921 1.434 . S
C1921 C1912 1.429 . S
C1921 N1918 1.350 . S
C1921 C1920 1.434 . S
C1922 C1923 1.369 . S
C1922 C1924 1.419 . S
C1922 H1926 0.930 . S
C1923 C1922 1.369 . S
C1923 C1932 1.429 . S
C1924 C1922 1.419 . S
C1924 C1925 1.363 . S
C1924 H1927 0.929 . S
C1925 C1924 1.363 . S
C1925 C1931 1.428 . S
H1926 C1922 0.930 . S
H1927 C1924 0.929 . S
S1928 N1929 1.613 . S
S1928 N1930 1.610 . S
N1929 S1928 1.613 . S
N1929 C1932 1.350 . S
N1930 S1928 1.610 . S
N1930 C1931 1.351 . S
C1931 C1925 1.428 . S
C1931 N1930 1.351 . S
C1931 C1932 1.434 . S
C1932 C1923 1.429 . S
C1932 N1929 1.350 . S
C1932 C1931 1.434 . S
C1933 C1934 1.369 . S
C1933 C1935 1.419 . S
C1933 H1937 0.930 . S
C1934 C1933 1.369 . S
C1934 C1943 1.429 . S
C1935 C1933 1.419 . S
C1935 C1936 1.363 . S
C1935 H1938 0.929 . S
C1936 C1935 1.363 . S
C1936 C1942 1.428 . S
H1937 C1933 0.930 . S
H1938 C1935 0.929 . S
S1939 N1940 1.613 . S
S1939 N1941 1.610 . S
N1940 S1939 1.613 . S
N1940 C1943 1.350 . S
N1941 S1939 1.610 . S
N1941 C1942 1.351 . S
C1942 C1936 1.428 . S
C1942 N1941 1.351 . S
C1942 C1943 1.434 . S
C1943 C1934 1.429 . S
C1943 N1940 1.350 . S
C1943 C1942 1.434 . S
C1417 C829 1.405 . S
C1419 C5 1.422 . S
C1428 C62 1.401 . S
C1430 C890 1.419 . S
C1439 C1114 1.564 . S
C1441 C170 1.569 . S
C1450 C210 1.826 . S
C1452 C800 1.825 . S
C1461 C859 1.830 . S
C1463 C288 1.817 . S
C1472 C328 1.579 . S
C1474 C937 1.563 . S
C1483 C359 1.414 . S
C1485 C1067 1.419 . S
C1494 C416 1.417 . S
C1496 C770 1.405 . S
C1505 C536 1.414 . S
C1507 C475 1.418 . S
C1516 C623 1.828 . S
C1518 C583 1.816 . S
C1527 C593 1.408 . S
C1529 C654 1.420 . S
C1538 C701 1.567 . S
C1540 C505 1.575 . S
C1549 C713 1.417 . S
C1551 C180 1.403 . S
C1560 C241 1.414 . S
C1562 C949 1.419 . S
C1571 C1036 1.827 . S
C1573 C92 1.825 . S
C1582 C64 1.712 . S
C1584 C1291 1.705 . S
C1593 C534 1.715 . S
C1595 C33 1.713 . S
C1604 C1409 1.806 . S
C1606 C229 1.805 . S
C1615 C652 1.321 . S
C1617 C121 1.321 . S
C1626 C1244 1.317 . S
C1628 C418 1.318 . S
C1637 C564 1.814 . S
C1639 C387 1.814 . S
C1648 C347 1.706 . S
C1650 C1362 1.712 . S
C1659 C239 1.711 . S
C1661 C682 1.710 . S
C1670 C918 1.708 . S
C1672 C1126 1.712 . S
C1681 C947 1.321 . S
C1683 C888 1.320 . S
C1692 C772 1.712 . S
C1694 C977 1.709 . S
C1703 C1173 1.807 . S
C1705 C819 1.808 . S
C1714 C151 1.713 . S
C1716 C1183 1.714 . S
C1725 C595 1.712 . S
C1727 C465 1.707 . S
C1736 C3 1.322 . S
C1738 C1301 1.322 . S
C1747 C1124 1.409 . S
C1749 C123 1.421 . S
C1758 C52 1.567 . S
C1760 C996 1.566 . S
C1769 C1154 1.828 . S
C1771 C406 1.820 . S
C1780 C760 1.562 . S
C1782 C446 1.578 . S
C1791 C298 1.420 . S
C1793 C1006 1.402 . S
C1802 C1242 1.416 . S
C1804 C1185 1.417 . S
C1813 C1390 1.827 . S
C1815 C1232 1.818 . S
C1824 C1303 1.422 . S
C1826 C1360 1.405 . S
C1835 C1272 1.574 . S
C1837 C1350 1.566 . S
C1846 C524 1.705 . S
C1848 C182 1.711 . S
C1857 C111 1.806 . S
C1859 C642 1.805 . S
C1868 C300 1.317 . S
C1870 C477 1.318 . S
C1879 C1213 1.814 . S
C1881 C269 1.814 . S
C1890 C357 1.713 . S
C1892 C1331 1.712 . S
C1901 C741 1.708 . S
C1903 C831 1.711 . S
C1912 C1065 1.321 . S
C1914 C711 1.321 . S
C1923 C1008 1.711 . S
C1925 C1095 1.710 . S
C1934 C878 1.807 . S
C1936 C1055 1.808 . S
