# Generated by pormake.
# Topology uox, (4)-cn, num edge types: 1
# Building blocks:
#     Node 0, Type 0, BuildingBlock: AZAVOO_clean_sbu_0, # of connection points: 4
#     Node 1, Type 0, BuildingBlock: AZAVOO_clean_sbu_0, # of connection points: 4
#     Node 2, Type 0, BuildingBlock: AZAVOO_clean_sbu_0, # of connection points: 4
#     Node 3, Type 0, BuildingBlock: AZAVOO_clean_sbu_0, # of connection points: 4
#     Node 4, Type 0, BuildingBlock: AZAVOO_clean_sbu_0, # of connection points: 4
#     Node 5, Type 0, BuildingBlock: AZAVOO_clean_sbu_0, # of connection points: 4
#     Node 6, Type 0, BuildingBlock: AZAVOO_clean_sbu_0, # of connection points: 4
#     Node 7, Type 0, BuildingBlock: AZAVOO_clean_sbu_0, # of connection points: 4
#     Node 8, Type 0, BuildingBlock: AZAVOO_clean_sbu_0, # of connection points: 4
#     Node 9, Type 0, BuildingBlock: AZAVOO_clean_sbu_0, # of connection points: 4
#     Node 10, Type 0, BuildingBlock: AZAVOO_clean_sbu_0, # of connection points: 4
#     Node 11, Type 0, BuildingBlock: AZAVOO_clean_sbu_0, # of connection points: 4
#     Node 12, Type 0, BuildingBlock: AZAVOO_clean_sbu_0, # of connection points: 4
#     Node 13, Type 0, BuildingBlock: AZAVOO_clean_sbu_0, # of connection points: 4
#     Node 14, Type 0, BuildingBlock: AZAVOO_clean_sbu_0, # of connection points: 4
#     Node 15, Type 0, BuildingBlock: AZAVOO_clean_sbu_0, # of connection points: 4
#     Node 16, Type 0, BuildingBlock: AZAVOO_clean_sbu_0, # of connection points: 4
#     Node 17, Type 0, BuildingBlock: AZAVOO_clean_sbu_0, # of connection points: 4
#     Node 18, Type 0, BuildingBlock: AZAVOO_clean_sbu_0, # of connection points: 4
#     Node 19, Type 0, BuildingBlock: AZAVOO_clean_sbu_0, # of connection points: 4
#     Node 20, Type 0, BuildingBlock: AZAVOO_clean_sbu_0, # of connection points: 4
#     Node 21, Type 0, BuildingBlock: AZAVOO_clean_sbu_0, # of connection points: 4
#     Node 22, Type 0, BuildingBlock: AZAVOO_clean_sbu_0, # of connection points: 4
#     Node 23, Type 0, BuildingBlock: AZAVOO_clean_sbu_0, # of connection points: 4
#     Node 24, Type 0, BuildingBlock: AZAVOO_clean_sbu_0, # of connection points: 4
#     Node 25, Type 0, BuildingBlock: AZAVOO_clean_sbu_0, # of connection points: 4
#     Node 26, Type 0, BuildingBlock: AZAVOO_clean_sbu_0, # of connection points: 4
#     Node 27, Type 0, BuildingBlock: AZAVOO_clean_sbu_0, # of connection points: 4
#     Node 28, Type 0, BuildingBlock: AZAVOO_clean_sbu_0, # of connection points: 4
#     Node 29, Type 0, BuildingBlock: AZAVOO_clean_sbu_0, # of connection points: 4
#     Node 30, Type 0, BuildingBlock: AZAVOO_clean_sbu_0, # of connection points: 4
#     Node 31, Type 0, BuildingBlock: AZAVOO_clean_sbu_0, # of connection points: 4
#     Edge 32, Type (0, 0), BuildingBlock: UVAHIK_clean_linker_0, # of connection points: 2
#     Edge 33, Type (0, 0), BuildingBlock: UVAHIK_clean_linker_0, # of connection points: 2
#     Edge 34, Type (0, 0), BuildingBlock: UVAHIK_clean_linker_0, # of connection points: 2
#     Edge 35, Type (0, 0), BuildingBlock: UVAHIK_clean_linker_0, # of connection points: 2
#     Edge 36, Type (0, 0), BuildingBlock: UVAHIK_clean_linker_0, # of connection points: 2
#     Edge 37, Type (0, 0), BuildingBlock: UVAHIK_clean_linker_0, # of connection points: 2
#     Edge 38, Type (0, 0), BuildingBlock: UVAHIK_clean_linker_0, # of connection points: 2
#     Edge 39, Type (0, 0), BuildingBlock: UVAHIK_clean_linker_0, # of connection points: 2
#     Edge 40, Type (0, 0), BuildingBlock: UVAHIK_clean_linker_0, # of connection points: 2
#     Edge 41, Type (0, 0), BuildingBlock: UVAHIK_clean_linker_0, # of connection points: 2
#     Edge 42, Type (0, 0), BuildingBlock: UVAHIK_clean_linker_0, # of connection points: 2
#     Edge 43, Type (0, 0), BuildingBlock: UVAHIK_clean_linker_0, # of connection points: 2
#     Edge 44, Type (0, 0), BuildingBlock: UVAHIK_clean_linker_0, # of connection points: 2
#     Edge 45, Type (0, 0), BuildingBlock: UVAHIK_clean_linker_0, # of connection points: 2
#     Edge 46, Type (0, 0), BuildingBlock: UVAHIK_clean_linker_0, # of connection points: 2
#     Edge 47, Type (0, 0), BuildingBlock: UVAHIK_clean_linker_0, # of connection points: 2
#     Edge 48, Type (0, 0), BuildingBlock: UVAHIK_clean_linker_0, # of connection points: 2
#     Edge 49, Type (0, 0), BuildingBlock: UVAHIK_clean_linker_0, # of connection points: 2
#     Edge 50, Type (0, 0), BuildingBlock: UVAHIK_clean_linker_0, # of connection points: 2
#     Edge 51, Type (0, 0), BuildingBlock: UVAHIK_clean_linker_0, # of connection points: 2
#     Edge 52, Type (0, 0), BuildingBlock: UVAHIK_clean_linker_0, # of connection points: 2
#     Edge 53, Type (0, 0), BuildingBlock: UVAHIK_clean_linker_0, # of connection points: 2
#     Edge 54, Type (0, 0), BuildingBlock: UVAHIK_clean_linker_0, # of connection points: 2
#     Edge 55, Type (0, 0), BuildingBlock: UVAHIK_clean_linker_0, # of connection points: 2
#     Edge 56, Type (0, 0), BuildingBlock: UVAHIK_clean_linker_0, # of connection points: 2
#     Edge 57, Type (0, 0), BuildingBlock: UVAHIK_clean_linker_0, # of connection points: 2
#     Edge 58, Type (0, 0), BuildingBlock: UVAHIK_clean_linker_0, # of connection points: 2
#     Edge 59, Type (0, 0), BuildingBlock: UVAHIK_clean_linker_0, # of connection points: 2
#     Edge 60, Type (0, 0), BuildingBlock: UVAHIK_clean_linker_0, # of connection points: 2
#     Edge 61, Type (0, 0), BuildingBlock: UVAHIK_clean_linker_0, # of connection points: 2
#     Edge 62, Type (0, 0), BuildingBlock: UVAHIK_clean_linker_0, # of connection points: 2
#     Edge 63, Type (0, 0), BuildingBlock: UVAHIK_clean_linker_0, # of connection points: 2
#     Edge 64, Type (0, 0), BuildingBlock: UVAHIK_clean_linker_0, # of connection points: 2
#     Edge 65, Type (0, 0), BuildingBlock: UVAHIK_clean_linker_0, # of connection points: 2
#     Edge 66, Type (0, 0), BuildingBlock: UVAHIK_clean_linker_0, # of connection points: 2
#     Edge 67, Type (0, 0), BuildingBlock: UVAHIK_clean_linker_0, # of connection points: 2
#     Edge 68, Type (0, 0), BuildingBlock: UVAHIK_clean_linker_0, # of connection points: 2
#     Edge 69, Type (0, 0), BuildingBlock: UVAHIK_clean_linker_0, # of connection points: 2
#     Edge 70, Type (0, 0), BuildingBlock: UVAHIK_clean_linker_0, # of connection points: 2
#     Edge 71, Type (0, 0), BuildingBlock: UVAHIK_clean_linker_0, # of connection points: 2
#     Edge 72, Type (0, 0), BuildingBlock: UVAHIK_clean_linker_0, # of connection points: 2
#     Edge 73, Type (0, 0), BuildingBlock: UVAHIK_clean_linker_0, # of connection points: 2
#     Edge 74, Type (0, 0), BuildingBlock: UVAHIK_clean_linker_0, # of connection points: 2
#     Edge 75, Type (0, 0), BuildingBlock: UVAHIK_clean_linker_0, # of connection points: 2
#     Edge 76, Type (0, 0), BuildingBlock: UVAHIK_clean_linker_0, # of connection points: 2
#     Edge 77, Type (0, 0), BuildingBlock: UVAHIK_clean_linker_0, # of connection points: 2
#     Edge 78, Type (0, 0), BuildingBlock: UVAHIK_clean_linker_0, # of connection points: 2
#     Edge 79, Type (0, 0), BuildingBlock: UVAHIK_clean_linker_0, # of connection points: 2
#     Edge 80, Type (0, 0), BuildingBlock: UVAHIK_clean_linker_0, # of connection points: 2
#     Edge 81, Type (0, 0), BuildingBlock: UVAHIK_clean_linker_0, # of connection points: 2
#     Edge 82, Type (0, 0), BuildingBlock: UVAHIK_clean_linker_0, # of connection points: 2
#     Edge 83, Type (0, 0), BuildingBlock: UVAHIK_clean_linker_0, # of connection points: 2
#     Edge 84, Type (0, 0), BuildingBlock: UVAHIK_clean_linker_0, # of connection points: 2
#     Edge 85, Type (0, 0), BuildingBlock: UVAHIK_clean_linker_0, # of connection points: 2
#     Edge 86, Type (0, 0), BuildingBlock: UVAHIK_clean_linker_0, # of connection points: 2
#     Edge 87, Type (0, 0), BuildingBlock: UVAHIK_clean_linker_0, # of connection points: 2
#     Edge 88, Type (0, 0), BuildingBlock: UVAHIK_clean_linker_0, # of connection points: 2
#     Edge 89, Type (0, 0), BuildingBlock: UVAHIK_clean_linker_0, # of connection points: 2
#     Edge 90, Type (0, 0), BuildingBlock: UVAHIK_clean_linker_0, # of connection points: 2
#     Edge 91, Type (0, 0), BuildingBlock: UVAHIK_clean_linker_0, # of connection points: 2
#     Edge 92, Type (0, 0), BuildingBlock: UVAHIK_clean_linker_0, # of connection points: 2
#     Edge 93, Type (0, 0), BuildingBlock: UVAHIK_clean_linker_0, # of connection points: 2
#     Edge 94, Type (0, 0), BuildingBlock: UVAHIK_clean_linker_0, # of connection points: 2
#     Edge 95, Type (0, 0), BuildingBlock: UVAHIK_clean_linker_0, # of connection points: 2
# Relax obj value: 0.135
# Max RMSD: 0.161
# Mean RMSD: 0.161
data_MOF--net-uox--node1-AZAVOO_clean_sbu_0--edge1-UVAHIK_clean_linker_0
_symmetry_space_group_name_H-M    P1
_symmetry_Int_Tables_number       1
_symmetry_cell_setting            triclinic
loop_
_symmetry_equiv_pos_as_xyz
'x, y, z'
_cell_length_a     55.463157
_cell_length_b     55.438867
_cell_length_c     103.95413
_cell_angle_alpha  89.976594
_cell_angle_beta   89.990421
_cell_angle_gamma 89.982248
loop_
_atom_site_label
_atom_site_type_symbol
_atom_site_fract_x
_atom_site_fract_y
_atom_site_fract_z
_atom_type_partial_charge
Mg0 Mg 0.49215 0.00074 0.149 0.0
O1 O 0.46085 0.02814 0.14805 0.0
O2 O 0.42901 0.0117 0.15787 0.0
Mg3 Mg 0.44004 0.97505 0.16586 0.0
C4 C 0.43882 0.02896 0.15165 0.0
C5 C 0.53542 0.02379 0.13478 0.0
O6 O 0.53727 0.0011 0.13126 0.0
O7 O 0.49945 0.00976 0.17014 0.0
O8 O 0.46679 0.99356 0.17939 0.0
O9 O 0.47773 0.98328 0.13109 0.0
O10 O 0.46769 0.97249 0.15082 0.0
C11 C 0.48675 0.00495 0.18006 0.0
C12 C 0.46451 0.97019 0.13864 0.0
O13 O 0.51828 0.02988 0.14221 0.0
Mg14 Mg 0.24244 0.22302 0.40446 0.0
O15 O 0.21246 0.19431 0.40335 0.0
O16 O 0.22421 0.16254 0.41498 0.0
Mg17 Mg 0.26112 0.17073 0.4236 0.0
C18 C 0.20887 0.17309 0.40775 0.0
C19 C 0.22452 0.26661 0.38829 0.0
O20 O 0.24739 0.26592 0.385 0.0
O21 O 0.23227 0.23332 0.42499 0.0
O22 O 0.24498 0.20099 0.43598 0.0
O23 O 0.26103 0.20599 0.38761 0.0
O24 O 0.26816 0.19641 0.40787 0.0
C25 C 0.23543 0.22194 0.43554 0.0
C26 C 0.27229 0.19258 0.39587 0.0
O27 O 0.21658 0.25102 0.39619 0.0
Mg28 Mg 0.02317 0.99491 0.65321 0.0
O29 O 0.05228 0.96539 0.65208 0.0
O30 O 0.08426 0.97751 0.66339 0.0
Mg31 Mg 0.07557 0.01436 0.67202 0.0
C32 C 0.07366 0.96203 0.65629 0.0
C33 C 0.98213 0.97472 0.63579 0.0
O34 O 0.98426 0.99661 0.63108 0.0
O35 O 0.01339 0.98466 0.67381 0.0
O36 O 0.04583 0.9977 0.68457 0.0
O37 O 0.03974 0.01354 0.63625 0.0
O38 O 0.04945 0.02106 0.65645 0.0
C39 C 0.025 0.9879 0.68428 0.0
C40 C 0.0531 0.02507 0.64442 0.0
O41 O 0.99569 0.96839 0.64505 0.0
Mg42 Mg 0.25546 0.77536 0.90131 0.0
O43 O 0.28718 0.80218 0.89987 0.0
O44 O 0.27721 0.83494 0.91119 0.0
Mg45 Mg 0.23981 0.82951 0.91979 0.0
C46 C 0.29197 0.82329 0.90411 0.0
C47 C 0.28846 0.74525 0.88236 0.0
O48 O 0.2842 0.76365 0.87472 0.0
O49 O 0.26505 0.76547 0.92202 0.0
O50 O 0.25422 0.799 0.93254 0.0
O51 O 0.23761 0.7928 0.88425 0.0
O52 O 0.23145 0.80358 0.9044 0.0
C53 C 0.26259 0.77755 0.93239 0.0
C54 C 0.22723 0.80712 0.8924 0.0
O55 O 0.27941 0.74514 0.89359 0.0
Mg56 Mg 0.48404 0.99823 0.34262 0.0
O57 O 0.45337 0.97027 0.34371 0.0
O58 O 0.42087 0.98622 0.33431 0.0
Mg59 Mg 0.43061 0.02359 0.32675 0.0
C60 C 0.43128 0.96901 0.34029 0.0
C61 C 0.52654 0.9754 0.3574 0.0
O62 O 0.52637 0.99756 0.36188 0.0
O63 O 0.49066 0.99009 0.32125 0.0
O64 O 0.45774 0.0071 0.31277 0.0
O65 O 0.47016 0.01527 0.36085 0.0
O66 O 0.45905 0.02615 0.34132 0.0
C67 C 0.47774 0.99591 0.31154 0.0
C68 C 0.45658 0.02845 0.35354 0.0
O69 O 0.51097 0.96947 0.34901 0.0
Mg70 Mg 0.25249 0.23647 0.59526 0.0
O71 O 0.28112 0.20632 0.59622 0.0
O72 O 0.2669 0.17453 0.58544 0.0
Mg73 Mg 0.2301 0.18427 0.5772 0.0
C74 C 0.28326 0.18466 0.59216 0.0
C75 C 0.2726 0.28201 0.6088 0.0
O76 O 0.24929 0.28478 0.61053 0.0
O77 O 0.2621 0.24531 0.57441 0.0
O78 O 0.24755 0.2128 0.56425 0.0
O79 O 0.23425 0.22075 0.61264 0.0
O80 O 0.2254 0.21104 0.5926 0.0
C81 C 0.25813 0.23325 0.56416 0.0
C82 C 0.22201 0.20756 0.60469 0.0
O83 O 0.28008 0.26349 0.6028 0.0
Mg84 Mg 0.0132 0.00426 0.84429 0.0
O85 O 0.04265 0.03347 0.8447 0.0
O86 O 0.0746 0.01999 0.8338 0.0
Mg87 Mg 0.06537 0.98279 0.82586 0.0
C88 C 0.06412 0.03618 0.8405 0.0
C89 C 0.97081 0.02578 0.86038 0.0
O90 O 0.97055 0.00338 0.86452 0.0
O91 O 0.00338 0.01314 0.82346 0.0
O92 O 0.036 0.99932 0.81309 0.0
O93 O 0.0301 0.98697 0.8616 0.0
O94 O 0.03919 0.97763 0.84153 0.0
C95 C 0.01526 0.00933 0.81313 0.0
C96 C 0.04329 0.97482 0.85361 0.0
O97 O 0.98627 0.03187 0.85196 0.0
Mg98 Mg 0.24113 0.78406 0.09106 0.0
O99 O 0.21035 0.8118 0.09244 0.0
O100 O 0.22047 0.84396 0.0807 0.0
Mg101 Mg 0.25743 0.83699 0.07179 0.0
C102 C 0.20579 0.83285 0.08807 0.0
C103 C 0.22382 0.74237 0.10887 0.0
O104 O 0.24568 0.74594 0.11336 0.0
O105 O 0.23053 0.77351 0.07063 0.0
O106 O 0.24195 0.80621 0.05954 0.0
O107 O 0.25993 0.80154 0.1077 0.0
O108 O 0.26593 0.81143 0.08739 0.0
C109 C 0.23304 0.78497 0.06006 0.0
C110 C 0.27057 0.81522 0.09934 0.0
O111 O 0.21636 0.75537 0.09962 0.0
Mg112 Mg 0.52859 0.99076 0.84124 0.0
O113 O 0.55797 0.96159 0.84263 0.0
O114 O 0.58981 0.97354 0.83115 0.0
Mg115 Mg 0.58075 0.00996 0.82213 0.0
C116 C 0.57936 0.95824 0.83843 0.0
C117 C 0.48878 0.96941 0.85938 0.0
O118 O 0.49162 0.99065 0.86477 0.0
O119 O 0.51886 0.97968 0.82076 0.0
O120 O 0.55115 0.99257 0.80981 0.0
O121 O 0.54516 0.01029 0.85794 0.0
O122 O 0.55458 0.01703 0.83763 0.0
C123 C 0.5304 0.9826 0.81025 0.0
C124 C 0.55831 0.0216 0.84959 0.0
O125 O 0.50142 0.96406 0.84958 0.0
Mg126 Mg 0.75644 0.77514 0.59069 0.0
O127 O 0.78643 0.80376 0.59203 0.0
O128 O 0.77518 0.83573 0.58044 0.0
Mg129 Mg 0.73845 0.82769 0.57154 0.0
C130 C 0.79026 0.82501 0.58774 0.0
C131 C 0.77414 0.73147 0.60696 0.0
O132 O 0.7512 0.73198 0.61011 0.0
O133 O 0.7671 0.76497 0.57019 0.0
O134 O 0.7548 0.79747 0.55921 0.0
O135 O 0.73745 0.79219 0.60742 0.0
O136 O 0.73087 0.80184 0.58712 0.0
C137 C 0.76426 0.77647 0.55966 0.0
C138 C 0.72643 0.80564 0.59909 0.0
O139 O 0.78214 0.74713 0.59911 0.0
Mg140 Mg 0.97303 0.00587 0.34312 0.0
O141 O 0.94404 0.03548 0.3446 0.0
O142 O 0.91183 0.02362 0.33339 0.0
Mg143 Mg 0.92021 0.98704 0.32443 0.0
C144 C 0.92259 0.03895 0.34053 0.0
C145 C 0.01427 0.02522 0.3606 0.0
O146 O 0.01165 0.0033 0.36521 0.0
O147 O 0.98251 0.01665 0.32253 0.0
O148 O 0.94973 0.00402 0.31192 0.0
O149 O 0.95656 0.98671 0.36 0.0
O150 O 0.94664 0.97993 0.33977 0.0
C151 C 0.97059 0.01377 0.31214 0.0
C152 C 0.94311 0.9755 0.35176 0.0
O153 O 0.00084 0.03198 0.35137 0.0
Mg154 Mg 0.74674 0.24267 0.09408 0.0
O155 O 0.71974 0.21103 0.09518 0.0
O156 O 0.73636 0.17944 0.08521 0.0
Mg157 Mg 0.77261 0.19097 0.07695 0.0
C158 C 0.71914 0.18899 0.09157 0.0
C159 C 0.72383 0.28656 0.10781 0.0
O160 O 0.74679 0.28949 0.1105 0.0
O161 O 0.73712 0.25001 0.07304 0.0
O162 O 0.75349 0.21765 0.06358 0.0
O163 O 0.76479 0.22842 0.11185 0.0
O164 O 0.77522 0.21852 0.09204 0.0
C165 C 0.74183 0.23749 0.06304 0.0
C166 C 0.77785 0.21536 0.10421 0.0
O167 O 0.71751 0.26849 0.10109 0.0
Mg168 Mg 0.51326 0.00096 0.64997 0.0
O169 O 0.5429 0.03002 0.64931 0.0
O170 O 0.57601 0.01525 0.65868 0.0
Mg171 Mg 0.5668 0.9781 0.66672 0.0
C172 C 0.56495 0.03202 0.65269 0.0
C173 C 0.47053 0.02359 0.63473 0.0
O174 O 0.47063 0.00164 0.62996 0.0
O175 O 0.50537 0.00896 0.67109 0.0
O176 O 0.53886 0.99464 0.68041 0.0
O177 O 0.52859 0.98419 0.63205 0.0
O178 O 0.53908 0.97393 0.65178 0.0
C179 C 0.51819 0.00475 0.68104 0.0
C180 C 0.54217 0.97151 0.6396 0.0
O181 O 0.48595 0.02908 0.64328 0.0
Mg182 Mg 0.74359 0.7638 0.40013 0.0
O183 O 0.7149 0.7939 0.39914 0.0
O184 O 0.72907 0.82567 0.40995 0.0
Mg185 Mg 0.76579 0.81596 0.41829 0.0
C186 C 0.71276 0.81557 0.40317 0.0
C187 C 0.72345 0.71967 0.38536 0.0
O188 O 0.74657 0.71818 0.3827 0.0
O189 O 0.73405 0.75474 0.42098 0.0
O190 O 0.74855 0.78721 0.43119 0.0
O191 O 0.76172 0.77968 0.3828 0.0
O192 O 0.77063 0.78931 0.40285 0.0
C193 C 0.73806 0.76671 0.43125 0.0
C194 C 0.7739 0.79291 0.39075 0.0
O195 O 0.71609 0.73682 0.39245 0.0
Mg196 Mg 0.96645 0.99436 0.15297 0.0
O197 O 0.93846 0.9638 0.15189 0.0
O198 O 0.90623 0.97457 0.16339 0.0
Mg199 Mg 0.91352 0.01178 0.17195 0.0
C200 C 0.91733 0.95954 0.15623 0.0
C201 C 0.00776 0.97546 0.13526 0.0
O202 O 0.00454 0.99709 0.13037 0.0
O203 O 0.97678 0.98439 0.17354 0.0
O204 O 0.94402 0.99634 0.1844 0.0
O205 O 0.94917 0.01273 0.13611 0.0
O206 O 0.9393 0.01955 0.15635 0.0
C207 C 0.96519 0.98727 0.18404 0.0
C208 C 0.93557 0.02379 0.14435 0.0
O209 O 0.99479 0.96886 0.1447 0.0
Mg210 Mg 0.75166 0.23598 0.90095 0.0
O211 O 0.78105 0.20633 0.90062 0.0
O212 O 0.76603 0.1737 0.91035 0.0
Mg213 Mg 0.7281 0.18223 0.91742 0.0
C214 C 0.78304 0.18446 0.9044 0.0
C215 C 0.79638 0.26124 0.88701 0.0
O216 O 0.80035 0.23942 0.88259 0.0
O217 O 0.75886 0.24388 0.9223 0.0
O218 O 0.74318 0.2106 0.93114 0.0
O219 O 0.73555 0.22065 0.88278 0.0
O220 O 0.72504 0.20974 0.90239 0.0
C221 C 0.75347 0.23112 0.93214 0.0
C222 C 0.72287 0.2068 0.8902 0.0
O223 O 0.77862 0.26493 0.8945 0.0
Mg224 Mg 0.97388 0.50566 0.65215 0.0
O225 O 0.9442 0.53465 0.6507 0.0
O226 O 0.91156 0.52074 0.66085 0.0
Mg227 Mg 0.92017 0.48362 0.66912 0.0
C228 C 0.92233 0.53704 0.65435 0.0
C229 C 0.01553 0.52661 0.63579 0.0
O230 O 0.0132 0.50487 0.63091 0.0
O231 O 0.98153 0.515 0.67326 0.0
O232 O 0.94841 0.49995 0.68256 0.0
O233 O 0.95894 0.48751 0.63448 0.0
O234 O 0.94797 0.47878 0.65433 0.0
C235 C 0.96889 0.5104 0.68325 0.0
C236 C 0.94522 0.47535 0.64221 0.0
O237 O 0.00169 0.53291 0.64494 0.0
Mg238 Mg 0.74477 0.72181 0.90389 0.0
O239 O 0.71387 0.69421 0.90283 0.0
O240 O 0.72403 0.66207 0.91458 0.0
Mg241 Mg 0.76118 0.669 0.92325 0.0
C242 C 0.70927 0.67322 0.90727 0.0
C243 C 0.727 0.76438 0.8866 0.0
O244 O 0.74927 0.76234 0.88242 0.0
O245 O 0.73469 0.73274 0.92436 0.0
O246 O 0.74598 0.69997 0.93543 0.0
O247 O 0.76301 0.70382 0.88721 0.0
O248 O 0.76951 0.69439 0.90755 0.0
C249 C 0.73723 0.72126 0.93493 0.0
C250 C 0.77374 0.69023 0.89559 0.0
O251 O 0.71969 0.75026 0.89541 0.0
Mg252 Mg 0.50684 0.5001 0.14791 0.0
O253 O 0.53858 0.4733 0.14658 0.0
O254 O 0.57062 0.49014 0.156 0.0
Mg255 Mg 0.55914 0.5264 0.16432 0.0
C256 C 0.56078 0.47278 0.14987 0.0
C257 C 0.4641 0.47621 0.13355 0.0
O258 O 0.46191 0.49881 0.1299 0.0
O259 O 0.50051 0.4904 0.16908 0.0
O260 O 0.53335 0.50693 0.17798 0.0
O261 O 0.52045 0.51825 0.12997 0.0
O262 O 0.53077 0.52876 0.14968 0.0
C263 C 0.51364 0.49514 0.17885 0.0
C264 C 0.53358 0.53142 0.1375 0.0
O265 O 0.48116 0.47056 0.14113 0.0
Mg266 Mg 0.75789 0.27568 0.40597 0.0
O267 O 0.78842 0.30372 0.40502 0.0
O268 O 0.77779 0.33549 0.41691 0.0
Mg269 Mg 0.74076 0.32781 0.4256 0.0
C270 C 0.79269 0.32471 0.40954 0.0
C271 C 0.77575 0.23307 0.38884 0.0
O272 O 0.75321 0.23449 0.38503 0.0
O273 O 0.76811 0.26452 0.42635 0.0
O274 O 0.75635 0.29678 0.43768 0.0
O275 O 0.73961 0.29361 0.38934 0.0
O276 O 0.73278 0.30277 0.40969 0.0
C277 C 0.76539 0.27561 0.43701 0.0
C278 C 0.72871 0.30705 0.39772 0.0
O279 O 0.78326 0.24764 0.39738 0.0
Mg280 Mg 0.98777 0.49624 0.84488 0.0
O281 O 0.95829 0.46708 0.84666 0.0
O282 O 0.92455 0.48146 0.83774 0.0
Mg283 Mg 0.93303 0.51808 0.82884 0.0
C284 C 0.93599 0.465 0.84378 0.0
C285 C 0.0315 0.47575 0.85986 0.0
O286 O 0.03103 0.49818 0.86394 0.0
O287 O 0.99423 0.48674 0.82373 0.0
O288 O 0.96001 0.50059 0.81499 0.0
O289 O 0.97354 0.51403 0.86279 0.0
O290 O 0.96172 0.52306 0.8431 0.0
C291 C 0.98059 0.4904 0.81402 0.0
C292 C 0.95935 0.52613 0.85528 0.0
O293 O 0.01583 0.46895 0.85172 0.0
Mg294 Mg 0.75937 0.71704 0.09254 0.0
O295 O 0.78981 0.68896 0.09395 0.0
O296 O 0.77977 0.65715 0.08195 0.0
Mg297 Mg 0.7431 0.66471 0.07282 0.0
C298 C 0.79433 0.66797 0.08949 0.0
C299 C 0.77689 0.75898 0.1103 0.0
O300 O 0.75461 0.75666 0.11443 0.0
O301 O 0.77058 0.72797 0.07225 0.0
O302 O 0.75917 0.69563 0.06089 0.0
O303 O 0.73988 0.69935 0.10891 0.0
O304 O 0.73438 0.69005 0.08849 0.0
C305 C 0.76824 0.71677 0.0616 0.0
C306 C 0.72932 0.68603 0.10036 0.0
O307 O 0.78434 0.74518 0.10139 0.0
Mg308 Mg 0.51738 0.4988 0.34235 0.0
O309 O 0.5478 0.52696 0.34333 0.0
O310 O 0.58093 0.51084 0.33466 0.0
Mg311 Mg 0.57173 0.47298 0.32759 0.0
C312 C 0.57004 0.52826 0.3402 0.0
C313 C 0.4767 0.5235 0.35771 0.0
O314 O 0.47861 0.50254 0.36353 0.0
O315 O 0.51162 0.50578 0.32075 0.0
O316 O 0.54504 0.48842 0.31307 0.0
O317 O 0.53072 0.48286 0.361 0.0
O318 O 0.54258 0.47095 0.34178 0.0
C319 C 0.52505 0.4994 0.31134 0.0
C320 C 0.54463 0.46937 0.35405 0.0
O321 O 0.49028 0.52788 0.34814 0.0
Mg322 Mg 0.74353 0.26486 0.59504 0.0
O323 O 0.71208 0.29236 0.59548 0.0
O324 O 0.72285 0.32414 0.58358 0.0
Mg325 Mg 0.76027 0.31728 0.57533 0.0
C326 C 0.70774 0.31324 0.59078 0.0
C327 C 0.7023 0.23855 0.61129 0.0
O328 O 0.69734 0.26056 0.61512 0.0
O329 O 0.73426 0.25326 0.57452 0.0
O330 O 0.74549 0.28593 0.56335 0.0
O331 O 0.76099 0.28363 0.61177 0.0
O332 O 0.76778 0.29265 0.59142 0.0
C333 C 0.73689 0.26459 0.56392 0.0
C334 C 0.7716 0.29724 0.60336 0.0
O335 O 0.71961 0.23508 0.60348 0.0
Mg336 Mg 0.02606 0.4945 0.34456 0.0
O337 O 0.05565 0.46543 0.3459 0.0
O338 O 0.08782 0.47847 0.33503 0.0
Mg339 Mg 0.07878 0.51512 0.32631 0.0
C340 C 0.07728 0.46264 0.34194 0.0
C341 C 0.98573 0.4734 0.36206 0.0
O342 O 0.98836 0.49496 0.36713 0.0
O343 O 0.01712 0.48423 0.32382 0.0
O344 O 0.04986 0.49786 0.31352 0.0
O345 O 0.04196 0.51322 0.3617 0.0
O346 O 0.05198 0.5211 0.34159 0.0
C347 C 0.02921 0.48768 0.31353 0.0
C348 C 0.05536 0.52498 0.35364 0.0
O349 O 0.99875 0.46753 0.3525 0.0
Mg350 Mg 0.25137 0.25778 0.09544 0.0
O351 O 0.27884 0.28899 0.09596 0.0
O352 O 0.26167 0.32116 0.08683 0.0
Mg353 Mg 0.2242 0.31059 0.0798 0.0
C354 C 0.27942 0.31111 0.09251 0.0
C355 C 0.2753 0.21517 0.10961 0.0
O356 O 0.25312 0.21451 0.11404 0.0
O357 O 0.25852 0.25105 0.07396 0.0
O358 O 0.24083 0.28384 0.0657 0.0
O359 O 0.23514 0.27182 0.11387 0.0
O360 O 0.223 0.28221 0.09444 0.0
C361 C 0.25226 0.264 0.06434 0.0
C362 C 0.2214 0.28503 0.10666 0.0
O363 O 0.28089 0.23138 0.10149 0.0
Mg364 Mg 0.47419 0.5044 0.84387 0.0
O365 O 0.44462 0.53334 0.84488 0.0
O366 O 0.41167 0.51979 0.83492 0.0
Mg367 Mg 0.42077 0.4826 0.82668 0.0
C368 C 0.42278 0.53604 0.84129 0.0
C369 C 0.51397 0.52663 0.86112 0.0
O370 O 0.51085 0.50551 0.86661 0.0
O371 O 0.48228 0.51385 0.82287 0.0
O372 O 0.44887 0.4998 0.81335 0.0
O373 O 0.45847 0.48661 0.86142 0.0
O374 O 0.44863 0.47744 0.84142 0.0
C375 C 0.46949 0.51004 0.81285 0.0
C376 C 0.44543 0.47412 0.85352 0.0
O377 O 0.50141 0.53193 0.85129 0.0
Mg378 Mg 0.24132 0.72718 0.59104 0.0
O379 O 0.21167 0.69817 0.59246 0.0
O380 O 0.22311 0.66659 0.58064 0.0
Mg381 Mg 0.25959 0.67514 0.57158 0.0
C382 C 0.20803 0.67695 0.58808 0.0
C383 C 0.22239 0.7688 0.60858 0.0
O384 O 0.24473 0.76722 0.61269 0.0
O385 O 0.2303 0.73763 0.57061 0.0
O386 O 0.24292 0.70546 0.55947 0.0
O387 O 0.26087 0.71009 0.60758 0.0
O388 O 0.26718 0.70086 0.58721 0.0
C389 C 0.23325 0.72635 0.56002 0.0
C390 C 0.27193 0.69694 0.59913 0.0
O391 O 0.21537 0.75467 0.59971 0.0
Mg392 Mg 0.03484 0.50798 0.1544 0.0
O393 O 0.06289 0.53849 0.15296 0.0
O394 O 0.0949 0.52806 0.16472 0.0
Mg395 Mg 0.08759 0.49123 0.1737 0.0
C396 C 0.08398 0.54282 0.15731 0.0
C397 C 0.99326 0.52614 0.13658 0.0
O398 O 0.99627 0.50427 0.13198 0.0
O399 O 0.02433 0.51866 0.17485 0.0
O400 O 0.05693 0.50695 0.18592 0.0
O401 O 0.05221 0.48889 0.1378 0.0
O402 O 0.06195 0.48291 0.15813 0.0
C403 C 0.03578 0.51602 0.18541 0.0
C404 C 0.06576 0.47817 0.1462 0.0
O405 O 0.00648 0.53314 0.14584 0.0
Mg406 Mg 0.24606 0.26278 0.90216 0.0
O407 O 0.21914 0.29435 0.9017 0.0
O408 O 0.23563 0.32573 0.91187 0.0
Mg409 Mg 0.27204 0.3136 0.91989 0.0
C410 C 0.21839 0.31625 0.9055 0.0
C411 C 0.22209 0.22306 0.88574 0.0
O412 O 0.24418 0.22319 0.88116 0.0
O413 O 0.23677 0.2542 0.9231 0.0
O414 O 0.25303 0.28622 0.93295 0.0
O415 O 0.26359 0.27835 0.8846 0.0
O416 O 0.27471 0.28654 0.90455 0.0
C417 C 0.2415 0.26629 0.93325 0.0
C418 C 0.27704 0.29052 0.89244 0.0
O419 O 0.21669 0.23763 0.89472 0.0
Mg420 Mg 0.48313 0.50039 0.65018 0.0
O421 O 0.45151 0.47363 0.64869 0.0
O422 O 0.41895 0.49066 0.65748 0.0
Mg423 Mg 0.42978 0.52748 0.66536 0.0
C424 C 0.42918 0.47311 0.6517 0.0
C425 C 0.52133 0.47344 0.63381 0.0
O426 O 0.51894 0.49368 0.62735 0.0
O427 O 0.48839 0.49178 0.67163 0.0
O428 O 0.45536 0.50948 0.67962 0.0
O429 O 0.47045 0.51826 0.63186 0.0
O430 O 0.45923 0.52925 0.65133 0.0
C431 C 0.47492 0.49764 0.68112 0.0
C432 C 0.45723 0.53187 0.63912 0.0
O433 O 0.50897 0.47043 0.64398 0.0
Mg434 Mg 0.25906 0.73334 0.40147 0.0
O435 O 0.28885 0.70445 0.40029 0.0
O436 O 0.27678 0.6724 0.41159 0.0
Mg437 Mg 0.23983 0.68064 0.42015 0.0
C438 C 0.29226 0.68307 0.40451 0.0
C439 C 0.27775 0.77723 0.38571 0.0
O440 O 0.25486 0.77725 0.38245 0.0
O441 O 0.26894 0.74314 0.42217 0.0
O442 O 0.256 0.71043 0.43276 0.0
O443 O 0.2407 0.71657 0.38444 0.0
O444 O 0.23317 0.70685 0.40464 0.0
C445 C 0.26562 0.73135 0.43258 0.0
C446 C 0.2293 0.7031 0.39262 0.0
O447 O 0.28534 0.76119 0.39345 0.0
C448 C 0.47039 0.99332 0.28802 0.0
C449 C 0.48681 0.99227 0.2983 0.0
C450 C 0.47856 0.99543 0.27542 0.0
C451 C 0.52089 0.98526 0.25143 0.0
H452 H 0.49947 0.04689 0.23783 0.0
C453 C 0.51925 0.00577 0.19676 0.0
C454 C 0.49554 0.01122 0.19299 0.0
C455 C 0.52576 0.00682 0.20979 0.0
C456 C 0.50595 0.02978 0.24151 0.0
H457 H 0.52474 0.99065 0.30333 0.0
H458 H 0.53909 0.99407 0.28097 0.0
H459 H 0.49685 0.03899 0.2609 0.0
H460 H 0.46058 0.0235 0.19952 0.0
H461 H 0.472 0.02607 0.22206 0.0
H462 H 0.52822 0.97536 0.23186 0.0
C463 C 0.5199 0.99344 0.28286 0.0
C464 C 0.50451 0.02531 0.25468 0.0
C465 C 0.51168 0.99138 0.2956 0.0
C466 C 0.47899 0.01931 0.20221 0.0
C467 C 0.48559 0.02085 0.21511 0.0
C468 C 0.52231 0.98973 0.23817 0.0
C469 C 0.50331 0.99637 0.27279 0.0
C470 C 0.51099 0.00269 0.25965 0.0
C471 C 0.50878 0.0139 0.2191 0.0
C472 C 0.51375 0.01164 0.23306 0.0
H473 H 0.45113 0.99375 0.28975 0.0
H474 H 0.4655 0.99739 0.26774 0.0
H475 H 0.52581 0.96765 0.2551 0.0
H476 H 0.53222 0.99921 0.1898 0.0
H477 H 0.54374 0.00136 0.21264 0.0
C478 C 0.2529 0.26672 0.54846 0.0
C479 C 0.26287 0.24414 0.55152 0.0
C480 C 0.25117 0.27405 0.5356 0.0
C481 C 0.27153 0.2637 0.50261 0.0
H482 H 0.20396 0.26077 0.493 0.0
C483 C 0.22237 0.22133 0.45841 0.0
C484 C 0.23129 0.23434 0.44785 0.0
C485 C 0.22366 0.23102 0.47078 0.0
C486 C 0.22283 0.26225 0.49557 0.0
H487 H 0.28058 0.21245 0.54389 0.0
H488 H 0.27865 0.22578 0.52149 0.0
H489 H 0.21518 0.26362 0.51576 0.0
H490 H 0.24758 0.26797 0.44177 0.0
H491 H 0.25074 0.28457 0.4636 0.0
H492 H 0.27918 0.26121 0.48244 0.0
C493 C 0.27192 0.23765 0.52895 0.0
C494 C 0.22926 0.26396 0.50853 0.0
C495 C 0.27302 0.23002 0.54173 0.0
C496 C 0.24029 0.25776 0.44976 0.0
C497 C 0.24222 0.26718 0.4622 0.0
C498 C 0.26509 0.26257 0.48963 0.0
C499 C 0.26004 0.25919 0.52574 0.0
C500 C 0.25366 0.26373 0.51217 0.0
C501 C 0.23447 0.25359 0.47282 0.0
C502 C 0.24072 0.26087 0.48605 0.0
H503 H 0.24463 0.2777 0.55586 0.0
H504 H 0.24182 0.29066 0.53331 0.0
H505 H 0.29043 0.2633 0.50522 0.0
H506 H 0.21552 0.20317 0.45717 0.0
H507 H 0.2178 0.22013 0.47885 0.0
C508 C 0.01733 0.0245 0.79072 0.0
C509 C 0.00392 0.01358 0.80056 0.0
C510 C 0.00954 0.02311 0.77798 0.0
C511 C 0.983 0.02171 0.7518 0.0
H512 H 0.98905 0.95446 0.74191 0.0
C513 C 0.9894 0.99162 0.69877 0.0
C514 C 0.01304 0.98337 0.69668 0.0
C515 C 0.98018 0.99305 0.71128 0.0
C516 C 0.9867 0.97322 0.74456 0.0
H517 H 0.97147 0.99357 0.80504 0.0
H518 H 0.95826 0.99027 0.78255 0.0
H519 H 0.98618 0.96525 0.76473 0.0
H520 H 0.04485 0.9684 0.70573 0.0
H521 H 0.02831 0.96982 0.72753 0.0
H522 H 0.98464 0.02974 0.73164 0.0
C523 C 0.9744 0.00045 0.78478 0.0
C524 C 0.98498 0.97939 0.75756 0.0
C525 C 0.98187 0.00246 0.7976 0.0
C526 C 0.02653 0.9747 0.70712 0.0
C527 C 0.01707 0.97548 0.71955 0.0
C528 C 0.98415 0.0155 0.73878 0.0
C529 C 0.98858 0.01017 0.77486 0.0
C530 C 0.98409 0.00373 0.76128 0.0
C531 C 0.99422 0.98555 0.72178 0.0
C532 C 0.98698 0.99128 0.7351 0.0
H533 H 0.03451 0.03293 0.7928 0.0
H534 H 0.02089 0.03051 0.77047 0.0
H535 H 0.98251 0.04059 0.75448 0.0
H536 H 0.97878 0.9987 0.69088 0.0
H537 H 0.96256 0.00098 0.71283 0.0
C538 C 0.27642 0.77863 0.9551 0.0
C539 C 0.26614 0.76566 0.9449 0.0
C540 C 0.27432 0.77022 0.9677 0.0
C541 C 0.22945 0.74411 0.98695 0.0
H542 H 0.27785 0.74445 0.01386 0.0
C543 C 0.23827 0.74906 0.04593 0.0
C544 C 0.22904 0.77242 0.04777 0.0
C545 C 0.24049 0.7396 0.03351 0.0
C546 C 0.26415 0.74374 0.00644 0.0
H547 H 0.24673 0.73322 0.93967 0.0
H548 H 0.24221 0.71892 0.9619 0.0
H549 H 0.29039 0.74299 0.99127 0.0
H550 H 0.21302 0.80335 0.03836 0.0
H551 H 0.21585 0.78638 0.01671 0.0
H552 H 0.20332 0.74729 0.00208 0.0
C553 C 0.25238 0.73525 0.96006 0.0
C554 C 0.27133 0.74298 0.99356 0.0
C555 C 0.25508 0.74335 0.94739 0.0
C556 C 0.22008 0.78526 0.03717 0.0
C557 C 0.22167 0.77554 0.02482 0.0
C558 C 0.2223 0.74542 -0.00018 0.0
C559 C 0.26135 0.74903 0.97033 0.0
C560 C 0.25405 0.7439 0.98372 0.0
C561 C 0.23282 0.7531 0.02284 0.0
C562 C 0.23964 0.74598 0.00964 0.0
H563 H 0.28487 0.79596 0.9534 0.0
H564 H 0.28118 0.78128 0.97548 0.0
H565 H 0.21582 0.74516 0.9795 0.0
H566 H 0.24558 0.73895 0.05396 0.0
H567 H 0.24923 0.72231 0.03217 0.0
C568 C 0.49471 0.98576 0.79581 0.0
C569 C 0.51839 0.97764 0.79791 0.0
C570 C 0.48549 0.98706 0.7833 0.0
C571 C 0.49206 0.96745 0.75002 0.0
H572 H 0.48835 0.03494 0.74023 0.0
C573 C 0.52258 0.01811 0.7037 0.0
C574 C 0.508 0.00856 0.69393 0.0
C575 C 0.51542 0.01648 0.71653 0.0
C576 C 0.4887 0.01604 0.74288 0.0
H577 H 0.55024 0.96267 0.7889 0.0
H578 H 0.53369 0.96387 0.76711 0.0
H579 H 0.49041 0.02388 0.76305 0.0
H580 H 0.47419 0.99068 0.68972 0.0
H581 H 0.46209 0.98691 0.71238 0.0
H582 H 0.49141 0.95968 0.72982 0.0
C583 C 0.52243 0.96953 0.77507 0.0
C584 C 0.48982 0.00971 0.75588 0.0
C585 C 0.53189 0.96887 0.7875 0.0
C586 C 0.48553 0.99851 0.69711 0.0
C587 C 0.47868 0.99623 0.71001 0.0
C588 C 0.49036 0.97375 0.73704 0.0
C589 C 0.49957 0.97956 0.77282 0.0
C590 C 0.49244 0.98543 0.75951 0.0
C591 C 0.4939 0.00467 0.71981 0.0
C592 C 0.48959 0.99813 0.73337 0.0
H593 H 0.48409 0.99291 0.80369 0.0
H594 H 0.46786 0.99497 0.78174 0.0
H595 H 0.49428 0.94866 0.75263 0.0
H596 H 0.54008 0.02572 0.70144 0.0
H597 H 0.52755 0.02287 0.72396 0.0
C598 C 0.74427 0.73311 0.44675 0.0
C599 C 0.73381 0.75555 0.44387 0.0
C600 C 0.74664 0.72567 0.45956 0.0
C601 C 0.7694 0.73588 0.48645 0.0
H602 H 0.72035 0.73686 0.51303 0.0
C603 C 0.77737 0.7773 0.5368 0.0
C604 C 0.76855 0.76416 0.54733 0.0
C605 C 0.77601 0.76776 0.5244 0.0
C606 C 0.73422 0.736 0.50571 0.0
H607 H 0.71592 0.78687 0.45182 0.0
H608 H 0.71893 0.7733 0.47415 0.0
H609 H 0.70836 0.73507 0.49036 0.0
H610 H 0.75243 0.73039 0.55334 0.0
H611 H 0.74916 0.71405 0.53146 0.0
H612 H 0.79517 0.73924 0.50175 0.0
C613 C 0.72556 0.76163 0.46657 0.0
C614 C 0.72736 0.73504 0.49278 0.0
C615 C 0.72382 0.76939 0.45383 0.0
C616 C 0.75965 0.74072 0.54537 0.0
C617 C 0.75765 0.73143 0.53289 0.0
C618 C 0.77625 0.73741 0.49936 0.0
C619 C 0.73792 0.74026 0.46957 0.0
C620 C 0.74488 0.73564 0.48305 0.0
C621 C 0.76521 0.7452 0.5223 0.0
C622 C 0.75867 0.73815 0.50906 0.0
H623 H 0.75245 0.72236 0.43922 0.0
H624 H 0.75636 0.70919 0.46169 0.0
H625 H 0.78321 0.73669 0.47909 0.0
H626 H 0.78416 0.79547 0.53808 0.0
H627 H 0.78174 0.77879 0.51635 0.0
C628 C 0.00503 0.00856 0.29706 0.0
C629 C 0.98219 0.01838 0.29966 0.0
C630 C 0.01313 0.00657 0.28435 0.0
C631 C 0.00434 0.02579 0.251 0.0
H632 H 0.00294 0.95782 0.24206 0.0
C633 C 0.96458 0.97421 0.20691 0.0
C634 C 0.97751 0.98346 0.19641 0.0
C635 C 0.97395 0.97594 0.21933 0.0
C636 C 0.004 0.97682 0.24444 0.0
H637 H 0.95086 0.03567 0.29135 0.0
H638 H 0.96553 0.03327 0.26921 0.0
H639 H 0.00451 0.9699 0.26472 0.0
H640 H 0.01073 0.00074 0.19047 0.0
H641 H 0.02674 0.00465 0.21239 0.0
H642 H 0.00267 0.0327 0.23073 0.0
C643 C 0.977 0.02684 0.27692 0.0
C644 C 0.00498 0.98373 0.25736 0.0
C645 C 0.9686 0.0282 0.28955 0.0
C646 C 0.0006 0.99318 0.19842 0.0
C647 C 0.00968 0.99555 0.21092 0.0
C648 C 0.00393 0.01887 0.23807 0.0
C649 C 0.9988 0.01504 0.27417 0.0
C650 C 0.00416 0.00826 0.26074 0.0
C651 C 0.9961 0.98753 0.22148 0.0
C652 C 0.00277 0.99435 0.23473 0.0
H653 H 0.01564 0.00056 0.3047 0.0
H654 H 0.02995 0.9973 0.28241 0.0
H655 H 0.00351 0.04478 0.25341 0.0
H656 H 0.94668 0.9668 0.20558 0.0
H657 H 0.96306 0.96985 0.22735 0.0
C658 C 0.75755 0.22462 0.95566 0.0
C659 C 0.75666 0.24082 0.94527 0.0
C660 C 0.75502 0.23287 0.96822 0.0
C661 C 0.76172 0.27465 0.99225 0.0
H662 H 0.70026 0.25139 0.00514 0.0
C663 C 0.74009 0.27057 0.04668 0.0
C664 C 0.73538 0.24655 0.05019 0.0
C665 C 0.73898 0.27755 0.03373 0.0
C666 C 0.71728 0.25841 0.00166 0.0
H667 H 0.75425 0.27859 0.93996 0.0
H668 H 0.74993 0.2931 0.96225 0.0
H669 H 0.70881 0.24985 0.98209 0.0
H670 H 0.72425 0.21148 0.04323 0.0
H671 H 0.72157 0.22372 0.0208 0.0
H672 H 0.77094 0.28143 0.01196 0.0
C673 C 0.75253 0.27402 0.96048 0.0
C674 C 0.72212 0.25761 0.98851 0.0
C675 C 0.7551 0.26572 0.94779 0.0
C676 C 0.72789 0.23012 0.04075 0.0
C677 C 0.72628 0.23718 0.02793 0.0
C678 C 0.75687 0.27548 0.00547 0.0
C679 C 0.75165 0.25747 0.97069 0.0
C680 C 0.74471 0.26477 0.98379 0.0
C681 C 0.73257 0.26072 0.02421 0.0
C682 C 0.73503 0.26628 0.01033 0.0
H683 H 0.75896 0.20537 0.95405 0.0
H684 H 0.75456 0.21988 0.97601 0.0
H685 H 0.77933 0.28001 0.98878 0.0
H686 H 0.74616 0.28348 0.0538 0.0
H687 H 0.74392 0.2958 0.03109 0.0
C688 C 0.96319 0.51613 0.70676 0.0
C689 C 0.979 0.51417 0.69625 0.0
C690 C 0.97173 0.51365 0.71928 0.0
C691 C 0.01255 0.51842 0.7434 0.0
H692 H 0.99319 0.45459 0.75479 0.0
C693 C 0.0127 0.49167 0.79714 0.0
C694 C 0.9893 0.48509 0.80094 0.0
C695 C 0.01888 0.4921 0.78406 0.0
C696 C 0.9991 0.47231 0.75172 0.0
H697 H 0.01643 0.50984 0.69065 0.0
H698 H 0.03139 0.50541 0.71282 0.0
H699 H 0.99061 0.46515 0.73198 0.0
H700 H 0.95465 0.47211 0.79432 0.0
H701 H 0.96555 0.4721 0.77164 0.0
H702 H 0.01942 0.52619 0.76327 0.0
C703 C 0.01243 0.50897 0.7112 0.0
C704 C 0.99771 0.47829 0.73871 0.0
C705 C 0.00388 0.51161 0.69857 0.0
C706 C 0.97283 0.47717 0.79162 0.0
C707 C 0.97913 0.47712 0.77864 0.0
C708 C 0.01403 0.51241 0.75647 0.0
C709 C 0.99621 0.50916 0.72155 0.0
C710 C 0.00359 0.50162 0.73454 0.0
C711 C 0.00189 0.4854 0.77468 0.0
C712 C 0.00633 0.48962 0.7608 0.0
H713 H 0.94397 0.51823 0.70527 0.0
H714 H 0.95898 0.51387 0.72719 0.0
H715 H 0.01689 0.5366 0.74035 0.0
H716 H 0.02562 0.49811 0.80416 0.0
H717 H 0.03655 0.49852 0.78125 0.0
C718 C 0.76317 0.75297 0.04768 0.0
C719 C 0.7725 0.72963 0.04942 0.0
C720 C 0.76089 0.7626 0.03529 0.0
C721 C 0.77843 0.75683 0.00145 0.0
H722 H 0.71008 0.7585 0.99346 0.0
C723 C 0.72357 0.72128 0.95767 0.0
C724 C 0.73354 0.73382 0.94723 0.0
C725 C 0.72578 0.73039 0.97013 0.0
C726 C 0.7292 0.75874 0.99559 0.0
H727 H 0.78873 0.69895 0.0399 0.0
H728 H 0.78578 0.7162 0.01832 0.0
H729 H 0.72327 0.75769 0.01595 0.0
H730 H 0.75246 0.76621 0.9414 0.0
H731 H 0.75718 0.78173 0.96337 0.0
H732 H 0.78432 0.75659 0.98108 0.0
C733 C 0.77994 0.72691 0.02646 0.0
C734 C 0.73676 0.75836 0.00841 0.0
C735 C 0.7816 0.71703 0.03878 0.0
C736 C 0.74434 0.7564 0.94931 0.0
C737 C 0.74716 0.7652 0.96184 0.0
C738 C 0.77089 0.75775 0.98863 0.0
C739 C 0.76858 0.74928 0.02457 0.0
C740 C 0.76138 0.75633 0.01141 0.0
C741 C 0.73856 0.75185 0.97236 0.0
C742 C 0.7462 0.75764 0.98561 0.0
H743 H 0.75575 0.7629 0.05574 0.0
H744 H 0.75198 0.77983 0.03402 0.0
H745 H 0.79748 0.75512 0.00356 0.0
H746 H 0.71534 0.70375 0.95628 0.0
H747 H 0.71922 0.71965 0.9781 0.0
C748 C 0.53345 0.49904 0.28785 0.0
C749 C 0.51673 0.50223 0.29788 0.0
C750 C 0.52571 0.4967 0.2752 0.0
C751 C 0.4823 0.50942 0.25117 0.0
H752 H 0.50619 0.44998 0.23609 0.0
C753 C 0.48216 0.49251 0.19609 0.0
C754 C 0.50581 0.48809 0.19184 0.0
C755 C 0.47646 0.49056 0.2092 0.0
C756 C 0.49909 0.4665 0.24018 0.0
H757 H 0.47884 0.50734 0.30231 0.0
H758 H 0.4653 0.5037 0.27981 0.0
H759 H 0.50949 0.45638 0.25924 0.0
H760 H 0.54154 0.47674 0.19763 0.0
H761 H 0.53157 0.47268 0.22029 0.0
H762 H 0.4735 0.52026 0.23191 0.0
C763 C 0.48437 0.50269 0.28198 0.0
C764 C 0.50096 0.47014 0.2534 0.0
C765 C 0.49214 0.50488 0.29479 0.0
C766 C 0.52317 0.48016 0.20068 0.0
C767 C 0.5174 0.47776 0.21365 0.0
C768 C 0.4805 0.50582 0.23785 0.0
C769 C 0.50111 0.49769 0.2722 0.0
C770 C 0.49357 0.49203 0.25891 0.0
C771 C 0.49422 0.48362 0.21813 0.0
C772 C 0.48994 0.48476 0.23219 0.0
H773 H 0.55255 0.49729 0.28983 0.0
H774 H 0.53897 0.49333 0.26775 0.0
H775 H 0.47655 0.52646 0.25525 0.0
H776 H 0.46856 0.49892 0.18943 0.0
H777 H 0.45846 0.49517 0.21241 0.0
C778 C 0.74544 0.2303 0.5492 0.0
C779 C 0.7332 0.252 0.55164 0.0
C780 C 0.74819 0.22208 0.53655 0.0
C781 C 0.72838 0.22896 0.50302 0.0
H782 H 0.7961 0.2366 0.49452 0.0
C783 C 0.77791 0.27531 0.45998 0.0
C784 C 0.76947 0.26269 0.44919 0.0
C785 C 0.77662 0.26495 0.4722 0.0
C786 C 0.77723 0.2338 0.49677 0.0
H787 H 0.71247 0.28098 0.54315 0.0
H788 H 0.71626 0.26605 0.52114 0.0
H789 H 0.78378 0.23322 0.51707 0.0
H790 H 0.75414 0.22897 0.44254 0.0
H791 H 0.75101 0.21116 0.4641 0.0
H792 H 0.72174 0.23084 0.48274 0.0
C793 C 0.72396 0.25553 0.52891 0.0
C794 C 0.77018 0.23176 0.50963 0.0
C795 C 0.7218 0.26409 0.54147 0.0
C796 C 0.76103 0.23895 0.45071 0.0
C797 C 0.75911 0.22881 0.463 0.0
C798 C 0.73548 0.23047 0.49014 0.0
C799 C 0.73813 0.23512 0.52628 0.0
C800 C 0.74562 0.2304 0.51287 0.0
C801 C 0.7663 0.24203 0.47386 0.0
C802 C 0.75985 0.23397 0.48696 0.0
H803 H 0.75469 0.22091 0.5569 0.0
H804 H 0.75928 0.20636 0.53472 0.0
H805 H 0.70935 0.22807 0.50531 0.0
H806 H 0.78439 0.29367 0.45904 0.0
H807 H 0.78206 0.27558 0.48045 0.0
C808 C 0.03206 0.47387 0.29086 0.0
C809 C 0.01801 0.48314 0.30093 0.0
C810 C 0.02395 0.47534 0.27818 0.0
C811 C 0.99533 0.51812 0.25863 0.0
H812 H 0.99916 0.46966 0.23182 0.0
C813 C 0.00032 0.50961 0.19967 0.0
C814 C 0.02321 0.51981 0.19771 0.0
C815 C 0.99122 0.50694 0.21215 0.0
C816 C 0.99749 0.48333 0.23921 0.0
H817 H 0.98405 0.50009 0.30585 0.0
H818 H 0.9702 0.50352 0.28348 0.0
H819 H 0.99836 0.45719 0.25444 0.0
H820 H 0.05364 0.53702 0.20696 0.0
H821 H 0.0372 0.53346 0.2287 0.0
H822 H 0.99689 0.54432 0.24345 0.0
C823 C 0.98718 0.4946 0.28548 0.0
C824 C 0.9971 0.4762 0.25211 0.0
C825 C 0.99503 0.49251 0.29823 0.0
C826 C 0.03587 0.52927 0.20825 0.0
C827 C 0.02647 0.52723 0.22065 0.0
C828 C 0.99629 0.52527 0.24575 0.0
C829 C 0.00194 0.48669 0.27535 0.0
C830 C 0.9967 0.49357 0.26191 0.0
C831 C 0.00459 0.51513 0.22275 0.0
C832 C 0.99805 0.50793 0.23597 0.0
H833 H 0.04993 0.46676 0.29273 0.0
H834 H 0.03574 0.46933 0.27051 0.0
H835 H 0.99536 0.53184 0.26605 0.0
H836 H 0.9904 0.50186 0.1917 0.0
H837 H 0.97436 0.49744 0.21358 0.0
C838 C 0.25643 0.27231 0.04101 0.0
C839 C 0.25586 0.25533 0.05105 0.0
C840 C 0.25404 0.26497 0.02829 0.0
C841 C 0.2612 0.22459 0.00345 0.0
H842 H 0.20004 0.24925 0.99089 0.0
C843 C 0.23968 0.23229 0.94908 0.0
C844 C 0.23521 0.25657 0.94599 0.0
C845 C 0.23858 0.22454 0.96191 0.0
C846 C 0.21698 0.24185 0.99427 0.0
H847 H 0.25422 0.21717 0.05556 0.0
H848 H 0.25017 0.20425 0.03297 0.0
H849 H 0.20844 0.24923 0.01396 0.0
H850 H 0.22452 0.29132 0.95358 0.0
H851 H 0.22185 0.27776 0.97579 0.0
H852 H 0.2705 0.21898 0.98365 0.0
C853 C 0.2524 0.22322 0.03515 0.0
C854 C 0.22173 0.24177 0.00744 0.0
C855 C 0.25483 0.23061 0.048 0.0
C856 C 0.22799 0.27251 0.95572 0.0
C857 C 0.22638 0.26469 0.96843 0.0
C858 C 0.25643 0.22465 0.99021 0.0
C859 C 0.25112 0.24051 0.0253 0.0
C860 C 0.24422 0.23411 0.01206 0.0
C861 C 0.23239 0.24085 0.97172 0.0
C862 C 0.23472 0.23438 0.98549 0.0
H863 H 0.25743 0.29145 0.04305 0.0
H864 H 0.2533 0.27853 0.02079 0.0
H865 H 0.27874 0.21883 0.00686 0.0
H866 H 0.24553 0.21974 0.94173 0.0
H867 H 0.2433 0.20608 0.96422 0.0
C868 C 0.50326 0.51054 0.79684 0.0
C869 C 0.47914 0.51565 0.79999 0.0
C870 C 0.51082 0.51102 0.78397 0.0
C871 C 0.49326 0.53183 0.75145 0.0
H872 H 0.51698 0.46998 0.73933 0.0
C873 C 0.46521 0.49224 0.70422 0.0
C874 C 0.48276 0.49327 0.69449 0.0
C875 C 0.47175 0.49429 0.71709 0.0
C876 C 0.51097 0.48753 0.74261 0.0
H877 H 0.44452 0.52683 0.79242 0.0
H878 H 0.45774 0.52831 0.77014 0.0
H879 H 0.51634 0.47868 0.7625 0.0
H880 H 0.52115 0.49529 0.69066 0.0
H881 H 0.53266 0.49875 0.71349 0.0
H882 H 0.48623 0.53995 0.73167 0.0
C883 C 0.47084 0.52379 0.77749 0.0
C884 C 0.51063 0.49256 0.75583 0.0
C885 C 0.46321 0.52286 0.79024 0.0
C886 C 0.50727 0.49431 0.69797 0.0
C887 C 0.51385 0.4964 0.71097 0.0
C888 C 0.49358 0.5268 0.73832 0.0
C889 C 0.49449 0.51716 0.77415 0.0
C890 C 0.50076 0.51435 0.76037 0.0
C891 C 0.49598 0.49732 0.72052 0.0
C892 C 0.50155 0.50429 0.73386 0.0
H893 H 0.51581 0.5047 0.80419 0.0
H894 H 0.52914 0.50586 0.78164 0.0
H895 H 0.48578 0.54884 0.75468 0.0
H896 H 0.44621 0.49124 0.70184 0.0
H897 H 0.45774 0.49479 0.72435 0.0
C898 C 0.22016 0.72607 0.53716 0.0
C899 C 0.22917 0.73892 0.54774 0.0
C900 C 0.22221 0.73551 0.52476 0.0
C901 C 0.22437 0.76513 0.49955 0.0
H902 H 0.29278 0.76539 0.49165 0.0
C903 C 0.25908 0.76592 0.44743 0.0
C904 C 0.26943 0.74321 0.44507 0.0
C905 C 0.25621 0.77413 0.46007 0.0
C906 C 0.27365 0.76599 0.49375 0.0
H907 H 0.24625 0.77214 0.55384 0.0
H908 H 0.25068 0.7883 0.53198 0.0
H909 H 0.27945 0.76469 0.51412 0.0
H910 H 0.28672 0.71225 0.45377 0.0
H911 H 0.28279 0.72712 0.47581 0.0
H912 H 0.21859 0.76527 0.47917 0.0
C913 C 0.24153 0.77123 0.53336 0.0
C914 C 0.26602 0.76568 0.50657 0.0
C915 C 0.23885 0.76207 0.54583 0.0
C916 C 0.27887 0.7299 0.45538 0.0
C917 C 0.27662 0.73841 0.46796 0.0
C918 C 0.23199 0.76602 0.48674 0.0
C919 C 0.23388 0.75766 0.52272 0.0
C920 C 0.24135 0.76425 0.50954 0.0
C921 C 0.26431 0.76004 0.47044 0.0
C922 C 0.25669 0.76546 0.48375 0.0
H923 H 0.21282 0.7081 0.53841 0.0
H924 H 0.2164 0.72461 0.51669 0.0
H925 H 0.20527 0.76387 0.50164 0.0
H926 H 0.25134 0.77632 0.43963 0.0
H927 H 0.24656 0.79081 0.4618 0.0
C928 C 0.43728 0.95609 0.12082 0.0
C929 C 0.44471 0.9549 0.13372 0.0
C930 C 0.41761 0.94239 0.11656 0.0
C931 C 0.36306 0.91192 0.12867 0.0
H932 H 0.36644 0.87493 0.0971 0.0
C933 C 0.29432 0.83723 0.11618 0.0
C934 C 0.28788 0.83418 0.10322 0.0
C935 C 0.31232 0.85368 0.11963 0.0
C936 C 0.36501 0.88546 0.10584 0.0
H937 H 0.43805 0.9376 0.15212 0.0
H938 H 0.40385 0.91405 0.14476 0.0
H939 H 0.40031 0.90044 0.1033 0.0
H940 H 0.29491 0.8465 0.08375 0.0
H941 H 0.32558 0.87558 0.08979 0.0
H942 H 0.32782 0.897 0.13125 0.0
C943 C 0.41283 0.92586 0.13798 0.0
C944 C 0.38446 0.90004 0.10939 0.0
C945 C 0.43249 0.93937 0.14219 0.0
C946 C 0.29931 0.84842 0.09384 0.0
C947 C 0.31715 0.86494 0.09728 0.0
C948 C 0.34356 0.89746 0.1251 0.0
C949 C 0.40501 0.92738 0.12517 0.0
C950 C 0.3838 0.91317 0.12092 0.0
C951 C 0.32418 0.8675 0.11019 0.0
C952 C 0.3444 0.88384 0.11371 0.0
H953 H 0.44637 0.96787 0.11406 0.0
H954 H 0.41193 0.94391 0.10663 0.0
H955 H 0.3619 0.92216 0.13753 0.0
H956 H 0.28595 0.82644 0.12364 0.0
H957 H 0.31746 0.85499 0.12966 0.0
C958 C 0.29419 0.16942 0.37873 0.0
C959 C 0.28926 0.17344 0.3918 0.0
C960 C 0.31137 0.15228 0.37503 0.0
C961 C 0.36438 0.11922 0.38767 0.0
H962 H 0.35561 0.08022 0.35709 0.0
C963 C 0.43142 0.0441 0.37189 0.0
C964 C 0.4375 0.04431 0.35877 0.0
C965 C 0.41277 0.05881 0.3765 0.0
C966 C 0.35833 0.09107 0.36564 0.0
H967 H 0.2984 0.1624 0.41124 0.0
H968 H 0.32761 0.13215 0.40481 0.0
H969 H 0.32362 0.10758 0.36389 0.0
H970 H 0.42944 0.06085 0.34032 0.0
H971 H 0.39699 0.08605 0.3483 0.0
H972 H 0.39914 0.10261 0.38937 0.0
C973 C 0.31859 0.14249 0.39739 0.0
C974 C 0.34006 0.10681 0.3695 0.0
C975 C 0.30157 0.15968 0.40108 0.0
C976 C 0.42489 0.05978 0.35043 0.0
C977 C 0.40624 0.07426 0.355 0.0
C978 C 0.38261 0.10336 0.38384 0.0
C979 C 0.32392 0.13875 0.38434 0.0
C980 C 0.34295 0.12128 0.38049 0.0
C981 C 0.39984 0.07384 0.36805 0.0
C982 C 0.37988 0.08935 0.37269 0.0
H983 H 0.28512 0.17982 0.37135 0.0
H984 H 0.31525 0.1501 0.36489 0.0
H985 H 0.36739 0.13035 0.39608 0.0
H986 H 0.44087 0.03242 0.37856 0.0
H987 H 0.40818 0.05813 0.38663 0.0
C988 C 0.07621 0.04651 0.62709 0.0
C989 C 0.07206 0.0421 0.64021 0.0
C990 C 0.09325 0.06367 0.62325 0.0
C991 C 0.14644 0.09775 0.63448 0.0
H992 H 0.12782 0.14341 0.60804 0.0
C993 C 0.20345 0.1824 0.62222 0.0
C994 C 0.20548 0.18835 0.60913 0.0
C995 C 0.18753 0.16426 0.62621 0.0
C996 C 0.13345 0.13063 0.61533 0.0
H997 H 0.08262 0.05227 0.65958 0.0
H998 H 0.11237 0.08187 0.65288 0.0
H999 H 0.10004 0.11146 0.61424 0.0
H1000 H 0.19212 0.18014 0.58999 0.0
H1001 H 0.16512 0.14832 0.59685 0.0
H1002 H 0.17993 0.11685 0.63553 0.0
C1003 C 0.10267 0.07192 0.64556 0.0
C1004 C 0.11751 0.11231 0.61887 0.0
C1005 C 0.08556 0.05493 0.64939 0.0
C1006 C 0.19126 0.17587 0.60014 0.0
C1007 C 0.17549 0.15777 0.60409 0.0
C1008 C 0.16246 0.11602 0.6309 0.0
C1009 C 0.10654 0.07665 0.63246 0.0
C1010 C 0.12383 0.09567 0.62848 0.0
C1011 C 0.17332 0.15178 0.61717 0.0
C1012 C 0.15617 0.13265 0.62125 0.0
H1013 H 0.0661 0.03695 0.61979 0.0
H1014 H 0.09603 0.06679 0.61307 0.0
H1015 H 0.15188 0.08504 0.64185 0.0
H1016 H 0.21409 0.19176 0.62938 0.0
H1017 H 0.18609 0.16027 0.63637 0.0
C1018 C 0.07587 0.94496 0.84902 0.0
C1019 C 0.06333 0.95922 0.85798 0.0
C1020 C 0.09479 0.93011 0.85293 0.0
C1021 C 0.11867 0.89818 0.88103 0.0
H1022 H 0.17685 0.89347 0.86044 0.0
C1023 C 0.19928 0.8411 0.89754 0.0
C1024 C 0.21092 0.82679 0.88827 0.0
C1025 C 0.18259 0.85861 0.89389 0.0
C1026 C 0.16063 0.89441 0.86622 0.0
H1027 H 0.06071 0.96892 0.87813 0.0
H1028 H 0.09388 0.94279 0.88502 0.0
H1029 H 0.14518 0.92177 0.85423 0.0
H1030 H 0.21435 0.8199 0.86782 0.0
H1031 H 0.18476 0.85033 0.86142 0.0
H1032 H 0.13382 0.87059 0.89289 0.0
C1033 C 0.08897 0.94317 0.87494 0.0
C1034 C 0.14252 0.91065 0.86269 0.0
C1035 C 0.07004 0.95816 0.87099 0.0
C1036 C 0.20577 0.8307 0.8752 0.0
C1037 C 0.1889 0.84821 0.87153 0.0
C1038 C 0.13672 0.88189 0.88453 0.0
C1039 C 0.10156 0.92902 0.86593 0.0
C1040 C 0.12129 0.91263 0.87002 0.0
C1041 C 0.17688 0.86214 0.88087 0.0
C1042 C 0.1579 0.87976 0.87716 0.0
H1043 H 0.07093 0.94497 0.83895 0.0
H1044 H 0.10381 0.91909 0.8458 0.0
H1045 H 0.10237 0.899 0.88675 0.0
H1046 H 0.20262 0.83852 0.9077 0.0
H1047 H 0.174 0.86928 0.90132 0.0
C1048 C 0.69236 0.17445 0.89362 0.0
C1049 C 0.70738 0.18727 0.88514 0.0
C1050 C 0.67791 0.15568 0.88919 0.0
C1051 C 0.64768 0.13231 0.86067 0.0
H1052 H 0.64409 0.07322 0.88061 0.0
C1053 C 0.59051 0.05139 0.84406 0.0
C1054 C 0.57725 0.03892 0.85348 0.0
C1055 C 0.60774 0.0685 0.84756 0.0
C1056 C 0.64468 0.08968 0.87501 0.0
H1057 H 0.71854 0.19079 0.86524 0.0
H1058 H 0.69286 0.15787 0.8574 0.0
H1059 H 0.67192 0.10502 0.88707 0.0
H1060 H 0.5717 0.03469 0.87399 0.0
H1061 H 0.6015 0.06498 0.88014 0.0
H1062 H 0.62004 0.11731 0.84879 0.0
C1063 C 0.69254 0.1624 0.86754 0.0
C1064 C 0.6607 0.10785 0.87867 0.0
C1065 C 0.70724 0.18118 0.87201 0.0
C1066 C 0.58171 0.04387 0.86651 0.0
C1067 C 0.5989 0.06115 0.87002 0.0
C1068 C 0.63153 0.11419 0.85704 0.0
C1069 C 0.67789 0.14935 0.87613 0.0
C1070 C 0.66219 0.12944 0.87162 0.0
C1071 C 0.61201 0.07377 0.86057 0.0
C1072 C 0.6297 0.09273 0.86422 0.0
H1073 H 0.69152 0.17901 0.90373 0.0
H1074 H 0.66642 0.14634 0.89599 0.0
H1075 H 0.64823 0.14888 0.85515 0.0
H1076 H 0.58742 0.04825 0.83393 0.0
H1077 H 0.61772 0.07759 0.84003 0.0
C1078 C 0.56769 0.95527 0.62155 0.0
C1079 C 0.56166 0.95581 0.63468 0.0
C1080 C 0.58639 0.94039 0.61716 0.0
C1081 C 0.64082 0.90841 0.62844 0.0
H1082 H 0.63133 0.86792 0.59849 0.0
C1083 C 0.70446 0.82916 0.61607 0.0
C1084 C 0.70942 0.82484 0.60303 0.0
C1085 C 0.68732 0.84645 0.61964 0.0
C1086 C 0.63445 0.87936 0.60676 0.0
H1087 H 0.57004 0.94055 0.6534 0.0
H1088 H 0.60254 0.91502 0.64579 0.0
H1089 H 0.5998 0.89613 0.60491 0.0
H1090 H 0.70036 0.83543 0.58351 0.0
H1091 H 0.67118 0.86588 0.58971 0.0
H1092 H 0.67541 0.89169 0.63034 0.0
C1093 C 0.59319 0.92635 0.63892 0.0
C1094 C 0.61636 0.89552 0.61043 0.0
C1095 C 0.5745 0.94102 0.64327 0.0
C1096 C 0.69716 0.83839 0.59365 0.0
C1097 C 0.68017 0.85571 0.5972 0.0
C1098 C 0.65895 0.89236 0.62474 0.0
C1099 C 0.59943 0.92592 0.62584 0.0
C1100 C 0.61925 0.91001 0.62139 0.0
C1101 C 0.67483 0.85979 0.61023 0.0
C1102 C 0.6559 0.87747 0.61393 0.0
H1103 H 0.55807 0.9664 0.61469 0.0
H1104 H 0.59086 0.94043 0.60702 0.0
H1105 H 0.64368 0.91962 0.63684 0.0
H1106 H 0.71349 0.81893 0.62352 0.0
H1107 H 0.68343 0.84892 0.62976 0.0
C1108 C 0.7918 0.81845 0.37321 0.0
C1109 C 0.79006 0.81241 0.3863 0.0
C1110 C 0.80729 0.83692 0.36919 0.0
C1111 C 0.83954 0.89074 0.38107 0.0
H1112 H 0.88138 0.88014 0.35174 0.0
C1113 C 0.91953 0.95384 0.36887 0.0
C1114 C 0.92405 0.95843 0.3558 0.0
C1115 C 0.90223 0.93677 0.3725 0.0
C1116 C 0.86959 0.88356 0.35984 0.0
H1117 H 0.80366 0.82065 0.40539 0.0
H1118 H 0.83032 0.8528 0.39841 0.0
H1119 H 0.85247 0.84913 0.35791 0.0
H1120 H 0.91384 0.94871 0.33631 0.0
H1121 H 0.88337 0.9197 0.34263 0.0
H1122 H 0.85661 0.92517 0.38301 0.0
C1123 C 0.81947 0.84359 0.39127 0.0
C1124 C 0.85303 0.86577 0.36337 0.0
C1125 C 0.80417 0.82511 0.39526 0.0
C1126 C 0.91072 0.94583 0.34647 0.0
C1127 C 0.8934 0.92892 0.35009 0.0
C1128 C 0.85602 0.90859 0.3775 0.0
C1129 C 0.82122 0.84972 0.3782 0.0
C1130 C 0.83794 0.8691 0.37407 0.0
C1131 C 0.8891 0.92397 0.36314 0.0
C1132 C 0.87132 0.90517 0.36688 0.0
H1133 H 0.78119 0.80897 0.36608 0.0
H1134 H 0.80819 0.84135 0.35905 0.0
H1135 H 0.82792 0.89393 0.38927 0.0
H1136 H 0.92959 0.96317 0.37628 0.0
H1137 H 0.89955 0.9332 0.38265 0.0
C1138 C 0.79301 0.18863 0.12201 0.0
C1139 C 0.79355 0.19579 0.10905 0.0
C1140 C 0.8072 0.16929 0.12624 0.0
C1141 C 0.83827 0.11496 0.11426 0.0
H1142 H 0.87591 0.11985 0.14556 0.0
C1143 C 0.91355 0.04697 0.12725 0.0
C1144 C 0.91668 0.04104 0.14028 0.0
C1145 C 0.89707 0.06484 0.12362 0.0
C1146 C 0.86522 0.11801 0.13689 0.0
H1147 H 0.81018 0.18892 0.0905 0.0
H1148 H 0.8346 0.15527 0.09784 0.0
H1149 H 0.84983 0.15319 0.1392 0.0
H1150 H 0.90453 0.04892 0.15969 0.0
H1151 H 0.87542 0.07933 0.15335 0.0
H1152 H 0.85358 0.0798 0.11193 0.0
C1153 C 0.82292 0.16424 0.10468 0.0
C1154 C 0.85031 0.13715 0.13326 0.0
C1155 C 0.80891 0.18358 0.10049 0.0
C1156 C 0.90254 0.05289 0.14956 0.0
C1157 C 0.886 0.0706 0.14593 0.0
C1158 C 0.85307 0.09576 0.11793 0.0
C1159 C 0.82208 0.15673 0.11757 0.0
C1160 C 0.83687 0.13592 0.12184 0.0
C1161 C 0.88333 0.07709 0.13295 0.0
C1162 C 0.86688 0.09712 0.12924 0.0
H1163 H 0.78137 0.19771 0.12884 0.0
H1164 H 0.80617 0.16385 0.13624 0.0
H1165 H 0.82783 0.11337 0.1055 0.0
H1166 H 0.92426 0.03826 0.11988 0.0
H1167 H 0.89567 0.06957 0.11354 0.0
C1168 C 0.79963 0.33086 0.59767 0.0
C1169 C 0.78738 0.31755 0.60715 0.0
C1170 C 0.81541 0.34935 0.60108 0.0
C1171 C 0.83262 0.38972 0.62789 0.0
H1172 H 0.89287 0.39463 0.60908 0.0
C1173 C 0.91325 0.44469 0.64633 0.0
C1174 C 0.92624 0.45883 0.63749 0.0
C1175 C 0.89537 0.42889 0.64214 0.0
C1176 C 0.87598 0.39372 0.6143 0.0
H1177 H 0.78209 0.3133 0.62769 0.0
H1178 H 0.81009 0.34541 0.63369 0.0
H1179 H 0.86343 0.36408 0.60299 0.0
H1180 H 0.93083 0.46722 0.61727 0.0
H1181 H 0.89948 0.43929 0.60989 0.0
H1182 H 0.84548 0.41908 0.63936 0.0
C1183 C 0.8071 0.34179 0.62358 0.0
C1184 C 0.85909 0.37621 0.61082 0.0
C1185 C 0.79116 0.3233 0.62015 0.0
C1186 C 0.92108 0.45662 0.62431 0.0
C1187 C 0.90321 0.44061 0.6201 0.0
C1188 C 0.84956 0.40717 0.63139 0.0
C1189 C 0.81956 0.3549 0.61407 0.0
C1190 C 0.83726 0.3739 0.61762 0.0
C1191 C 0.89013 0.42664 0.629 0.0
C1192 C 0.8715 0.40922 0.6247 0.0
H1193 H 0.79738 0.32681 0.58757 0.0
H1194 H 0.82441 0.35929 0.5935 0.0
H1195 H 0.81583 0.38873 0.63318 0.0
H1196 H 0.91706 0.44551 0.65653 0.0
H1197 H 0.88599 0.41802 0.64921 0.0
C1198 C 0.92658 0.55616 0.85172 0.0
C1199 C 0.93979 0.54165 0.86028 0.0
C1200 C 0.9076 0.57041 0.85611 0.0
C1201 C 0.88378 0.60057 0.88467 0.0
H1202 H 0.8248 0.60343 0.86465 0.0
C1203 C 0.80235 0.657 0.90117 0.0
C1204 C 0.79037 0.67066 0.89173 0.0
C1205 C 0.81928 0.63957 0.8977 0.0
C1206 C 0.84122 0.603 0.87028 0.0
H1207 H 0.94379 0.53116 0.88026 0.0
H1208 H 0.91049 0.55639 0.88801 0.0
H1209 H 0.85704 0.57606 0.85819 0.0
H1210 H 0.78659 0.67649 0.87121 0.0
H1211 H 0.81653 0.64627 0.86513 0.0
H1212 H 0.86824 0.62786 0.8966 0.0
C1213 C 0.91489 0.55655 0.87785 0.0
C1214 C 0.85965 0.58728 0.86661 0.0
C1215 C 0.9339 0.5421 0.87343 0.0
C1216 C 0.79542 0.66619 0.87871 0.0
C1217 C 0.8125 0.64879 0.87523 0.0
C1218 C 0.86537 0.61637 0.88832 0.0
C1219 C 0.90143 0.57068 0.8692 0.0
C1220 C 0.88124 0.58609 0.87368 0.0
C1221 C 0.82482 0.63546 0.88471 0.0
C1222 C 0.84395 0.61793 0.8811 0.0
H1223 H 0.93094 0.55668 0.84158 0.0
H1224 H 0.89795 0.58151 0.84925 0.0
H1225 H 0.90031 0.60026 0.89021 0.0
H1226 H 0.79906 0.66003 0.9113 0.0
H1227 H 0.82815 0.62939 0.90524 0.0
C1228 C 0.70036 0.65334 0.09437 0.0
C1229 C 0.71162 0.66723 0.10395 0.0
C1230 C 0.6822 0.63696 0.09752 0.0
C1231 C 0.65449 0.60415 0.12489 0.0
H1232 H 0.59855 0.60188 0.1025 0.0
C1233 C 0.56487 0.5629 0.14109 0.0
C1234 C 0.55308 0.5471 0.1326 0.0
C1235 C 0.58454 0.5765 0.137 0.0
C1236 C 0.61417 0.6021 0.10875 0.0
H1237 H 0.71284 0.67452 0.12443 0.0
H1238 H 0.68076 0.64625 0.12994 0.0
H1239 H 0.63284 0.62724 0.09675 0.0
H1240 H 0.55209 0.5339 0.11298 0.0
H1241 H 0.58658 0.55808 0.10573 0.0
H1242 H 0.6355 0.57946 0.13705 0.0
C1243 C 0.6863 0.6477 0.11998 0.0
C1244 C 0.63386 0.61659 0.10546 0.0
C1245 C 0.70463 0.664 0.11682 0.0
C1246 C 0.56086 0.54588 0.11974 0.0
C1247 C 0.58056 0.55969 0.11561 0.0
C1248 C 0.63476 0.58981 0.12821 0.0
C1249 C 0.67465 0.6342 0.11034 0.0
C1250 C 0.65418 0.61795 0.11355 0.0
C1251 C 0.59283 0.57481 0.12428 0.0
C1252 C 0.6143 0.58884 0.12025 0.0
H1253 H 0.70516 0.65542 0.08434 0.0
H1254 H 0.67394 0.62659 0.08988 0.0
H1255 H 0.67001 0.60439 0.13122 0.0
H1256 H 0.55902 0.56472 0.15098 0.0
H1257 H 0.59326 0.58843 0.14382 0.0
C1258 C 0.70717 0.3309 0.38075 0.0
C1259 C 0.71214 0.32663 0.3938 0.0
C1260 C 0.69026 0.34836 0.37715 0.0
C1261 C 0.63768 0.38179 0.38991 0.0
H1262 H 0.6463 0.42012 0.35906 0.0
C1263 C 0.56963 0.45529 0.37284 0.0
C1264 C 0.56374 0.45407 0.35971 0.0
C1265 C 0.58847 0.44122 0.37781 0.0
C1266 C 0.64364 0.40949 0.36769 0.0
H1267 H 0.70344 0.33763 0.41329 0.0
H1268 H 0.67461 0.36844 0.40702 0.0
H1269 H 0.67848 0.39322 0.3661 0.0
H1270 H 0.57225 0.43631 0.34165 0.0
H1271 H 0.60503 0.41228 0.35023 0.0
H1272 H 0.60274 0.39811 0.39142 0.0
C1273 C 0.68343 0.35805 0.39956 0.0
C1274 C 0.66202 0.39401 0.3717 0.0
C1275 C 0.7002 0.34052 0.40315 0.0
C1276 C 0.57666 0.43819 0.35174 0.0
C1277 C 0.59549 0.42437 0.35665 0.0
C1278 C 0.61934 0.39741 0.38594 0.0
C1279 C 0.67802 0.362 0.38653 0.0
C1280 C 0.65912 0.37967 0.38274 0.0
C1281 C 0.60176 0.42587 0.36969 0.0
C1282 C 0.62198 0.41108 0.37466 0.0
H1283 H 0.71596 0.32042 0.37331 0.0
H1284 H 0.68631 0.35068 0.36703 0.0
H1285 H 0.6347 0.37079 0.39838 0.0
H1286 H 0.55993 0.4673 0.37922 0.0
H1287 H 0.59293 0.44267 0.38792 0.0
C1288 C 0.07944 0.54499 0.3711 0.0
C1289 C 0.07445 0.54175 0.35796 0.0
C1290 C 0.09707 0.56148 0.37503 0.0
C1291 C 0.15042 0.59497 0.36342 0.0
H1292 H 0.13546 0.63885 0.39132 0.0
C1293 C 0.20948 0.67822 0.3754 0.0
C1294 C 0.21284 0.68359 0.38848 0.0
C1295 C 0.19322 0.66021 0.37166 0.0
C1296 C 0.14008 0.62654 0.38362 0.0
H1297 H 0.08389 0.5535 0.33868 0.0
H1298 H 0.1146 0.58192 0.34552 0.0
H1299 H 0.1063 0.6081 0.38518 0.0
H1300 H 0.20169 0.67429 0.40788 0.0
H1301 H 0.17407 0.64268 0.40142 0.0
H1302 H 0.18422 0.61339 0.36187 0.0
C1303 C 0.10518 0.57153 0.35277 0.0
C1304 C 0.12335 0.60891 0.38012 0.0
C1305 C 0.08752 0.55521 0.34886 0.0
C1306 C 0.19976 0.67051 0.39772 0.0
C1307 C 0.18365 0.65253 0.39401 0.0
C1308 C 0.16721 0.61255 0.36696 0.0
C1309 C 0.1101 0.57493 0.36589 0.0
C1310 C 0.1283 0.59299 0.36995 0.0
C1311 C 0.18001 0.64727 0.38094 0.0
C1312 C 0.16222 0.62857 0.3771 0.0
H1313 H 0.06965 0.53492 0.37834 0.0
H1314 H 0.1006 0.56362 0.38521 0.0
H1315 H 0.15484 0.58278 0.35563 0.0
H1316 H 0.21922 0.68806 0.36804 0.0
H1317 H 0.19065 0.65678 0.3615 0.0
C1318 C 0.18949 0.31609 0.10374 0.0
C1319 C 0.20603 0.30447 0.1119 0.0
C1320 C 0.176 0.33563 0.10809 0.0
C1321 C 0.1517 0.36473 0.1367 0.0
H1322 H 0.14736 0.42068 0.11437 0.0
C1323 C 0.09906 0.44962 0.1518 0.0
C1324 C 0.0847 0.46079 0.14238 0.0
C1325 C 0.11571 0.43184 0.14844 0.0
C1326 C 0.14817 0.40513 0.12066 0.0
H1327 H 0.22067 0.30363 0.13123 0.0
H1328 H 0.19663 0.3379 0.13895 0.0
H1329 H 0.1727 0.38668 0.10819 0.0
H1330 H 0.0768 0.46219 0.12197 0.0
H1331 H 0.10549 0.43071 0.1161 0.0
H1332 H 0.12665 0.38278 0.14901 0.0
C1333 C 0.1944 0.33186 0.12912 0.0
C1334 C 0.16277 0.3857 0.11714 0.0
C1335 C 0.20812 0.31228 0.12471 0.0
C1336 C 0.08769 0.45405 0.12945 0.0
C1337 C 0.10424 0.43607 0.12609 0.0
C1338 C 0.13694 0.3841 0.14019 0.0
C1339 C 0.17852 0.34394 0.12075 0.0
C1340 C 0.16445 0.36519 0.12505 0.0
C1341 C 0.11825 0.42455 0.13557 0.0
C1342 C 0.13482 0.40445 0.13215 0.0
H1343 H 0.18697 0.31019 0.0939 0.0
H1344 H 0.16348 0.34421 0.10152 0.0
H1345 H 0.15248 0.34904 0.14291 0.0
H1346 H 0.09718 0.4542 0.16186 0.0
H1347 H 0.12647 0.42368 0.15597 0.0
C1348 C 0.41519 0.45969 0.86978 0.0
C1349 C 0.42697 0.45689 0.85794 0.0
C1350 C 0.39724 0.44334 0.87353 0.0
C1351 C 0.35849 0.39356 0.86031 0.0
H1352 H 0.35065 0.37787 0.89635 0.0
C1353 C 0.28769 0.32366 0.87708 0.0
C1354 C 0.29322 0.30982 0.88798 0.0
C1355 C 0.3025 0.34301 0.87354 0.0
C1356 C 0.3528 0.3817 0.8862 0.0
H1357 H 0.42995 0.43457 0.84092 0.0
H1358 H 0.40008 0.40542 0.84769 0.0
H1359 H 0.37974 0.40819 0.89008 0.0
H1360 H 0.31876 0.30464 0.90348 0.0
H1361 H 0.3454 0.33705 0.89689 0.0
H1362 H 0.33294 0.36581 0.85634 0.0
C1363 C 0.40351 0.42071 0.85389 0.0
C1364 C 0.36923 0.39957 0.88261 0.0
C1365 C 0.4209 0.43732 0.85004 0.0
C1366 C 0.31402 0.3152 0.89508 0.0
C1367 C 0.32914 0.33404 0.89136 0.0
C1368 C 0.34252 0.37527 0.86387 0.0
C1369 C 0.39118 0.42355 0.86562 0.0
C1370 C 0.37255 0.40559 0.86959 0.0
C1371 C 0.32347 0.34849 0.88064 0.0
C1372 C 0.3396 0.36886 0.87686 0.0
H1373 H 0.41946 0.47476 0.876 0.0
H1374 H 0.38797 0.44643 0.88254 0.0
H1375 H 0.35992 0.39805 0.8502 0.0
H1376 H 0.27155 0.32001 0.87155 0.0
H1377 H 0.2972 0.35387 0.86536 0.0
C1378 C 0.43215 0.54804 0.62083 0.0
C1379 C 0.43878 0.54843 0.63388 0.0
C1380 C 0.41363 0.56308 0.61634 0.0
C1381 C 0.36006 0.59574 0.62783 0.0
H1382 H 0.36749 0.63503 0.59725 0.0
C1383 C 0.29502 0.67387 0.61586 0.0
C1384 C 0.28934 0.67797 0.60288 0.0
C1385 C 0.31254 0.65684 0.61924 0.0
C1386 C 0.36494 0.6239 0.6057 0.0
H1387 H 0.43208 0.5658 0.65226 0.0
H1388 H 0.39986 0.59152 0.6445 0.0
H1389 H 0.39958 0.60723 0.60346 0.0
H1390 H 0.29757 0.66724 0.58328 0.0
H1391 H 0.32733 0.63716 0.58917 0.0
H1392 H 0.32548 0.61223 0.63011 0.0
C1393 C 0.40855 0.57935 0.63779 0.0
C1394 C 0.38336 0.60801 0.60925 0.0
C1395 C 0.42704 0.56457 0.64222 0.0
C1396 C 0.30129 0.66444 0.59338 0.0
C1397 C 0.31864 0.64734 0.59675 0.0
C1398 C 0.3416 0.61148 0.62425 0.0
C1399 C 0.40142 0.57858 0.62485 0.0
C1400 C 0.38123 0.59404 0.62045 0.0
C1401 C 0.32468 0.64349 0.60971 0.0
C1402 C 0.34391 0.62598 0.61323 0.0
H1403 H 0.44093 0.53587 0.61417 0.0
H1404 H 0.40848 0.56219 0.6063 0.0
H1405 H 0.35781 0.5849 0.63642 0.0
H1406 H 0.28625 0.6841 0.62341 0.0
H1407 H 0.31697 0.65458 0.62932 0.0
C1408 C 0.39959 0.05136 0.15217 0.0
C1409 C 0.42366 0.04994 0.14798 0.0
C1410 C 0.38461 0.07006 0.14805 0.0
C1411 C 0.38428 0.13099 0.13359 0.0
H1412 H 0.31891 0.11349 0.12422 0.0
C1413 C 0.31717 0.19772 0.10944 0.0
C1414 C 0.29325 0.19708 0.11393 0.0
C1415 C 0.33388 0.18032 0.11345 0.0
C1416 C 0.33702 0.11874 0.12691 0.0
H1417 H 0.45098 0.06762 0.13638 0.0
H1418 H 0.42469 0.10025 0.1291 0.0
H1419 H 0.34668 0.08247 0.1316 0.0
H1420 H 0.26825 0.17782 0.12627 0.0
H1421 H 0.29731 0.1477 0.13328 0.0
H1422 H 0.37447 0.16735 0.12887 0.0
C1423 C 0.41751 0.08689 0.13567 0.0
C1424 C 0.35296 0.10095 0.13116 0.0
C1425 C 0.43256 0.06813 0.13981 0.0
C1426 C 0.28648 0.1788 0.12257 0.0
C1427 C 0.30312 0.16142 0.12654 0.0
C1428 C 0.36829 0.14885 0.12932 0.0
C1429 C 0.39325 0.08785 0.13959 0.0
C1430 C 0.3767 0.10687 0.13468 0.0
C1431 C 0.32698 0.16187 0.12198 0.0
C1432 C 0.34439 0.14294 0.12606 0.0
H1433 H 0.39212 0.03782 0.15855 0.0
H1434 H 0.36617 0.07052 0.15147 0.0
H1435 H 0.4024 0.13618 0.13631 0.0
H1436 H 0.32298 0.21157 0.10278 0.0
H1437 H 0.35207 0.18105 0.10968 0.0
C1438 C 0.18234 0.13653 0.40888 0.0
C1439 C 0.18691 0.15963 0.40384 0.0
C1440 C 0.16273 0.12299 0.40457 0.0
C1441 C 0.10438 0.12688 0.38738 0.0
H1442 H 0.11596 0.0589 0.3811 0.0
C1443 C 0.03598 0.06499 0.361 0.0
C1444 C 0.03298 0.04152 0.36589 0.0
C1445 C 0.05408 0.08008 0.36582 0.0
C1446 C 0.11232 0.07778 0.38294 0.0
H1447 H 0.17389 0.18682 0.39051 0.0
H1448 H 0.13972 0.16302 0.3829 0.0
H1449 H 0.14844 0.0841 0.38925 0.0
H1450 H 0.04642 0.01567 0.37983 0.0
H1451 H 0.0778 0.04198 0.38826 0.0
H1452 H 0.06821 0.12047 0.38098 0.0
C1453 C 0.15127 0.1555 0.39029 0.0
C1454 C 0.13096 0.09225 0.38762 0.0
C1455 C 0.17093 0.16911 0.39462 0.0
C1456 C 0.04829 0.03359 0.37579 0.0
C1457 C 0.06639 0.04864 0.38059 0.0
C1458 C 0.0857 0.11238 0.38267 0.0
C1459 C 0.14716 0.13212 0.39508 0.0
C1460 C 0.12721 0.11694 0.38997 0.0
C1461 C 0.06962 0.072 0.3756 0.0
C1462 C 0.08943 0.08762 0.38046 0.0
H1463 H 0.19412 0.12869 0.41607 0.0
H1464 H 0.15982 0.10525 0.40866 0.0
H1465 H 0.10083 0.14578 0.38919 0.0
H1466 H 0.02449 0.07167 0.35336 0.0
H1467 H 0.05622 0.09788 0.36169 0.0
C1468 C 0.11059 0.93588 0.65693 0.0
C1469 C 0.08706 0.94002 0.65238 0.0
C1470 C 0.12381 0.91593 0.65272 0.0
C1471 C 0.12803 0.87295 0.62581 0.0
H1472 H 0.16952 0.83755 0.64917 0.0
C1473 C 0.18184 0.78884 0.60967 0.0
C1474 C 0.20576 0.78706 0.61405 0.0
C1475 C 0.16632 0.80637 0.61469 0.0
C1476 C 0.15819 0.84738 0.6425 0.0
H1477 H 0.05883 0.92597 0.64002 0.0
H1478 H 0.08188 0.89104 0.63276 0.0
H1479 H 0.14405 0.86989 0.65744 0.0
H1480 H 0.23208 0.80225 0.62718 0.0
H1481 H 0.20512 0.83293 0.63581 0.0
H1482 H 0.14237 0.85064 0.61085 0.0
C1483 C 0.09018 0.90345 0.63948 0.0
C1484 C 0.14357 0.86591 0.64724 0.0
C1485 C 0.07691 0.92341 0.6437 0.0
C1486 C 0.21375 0.80307 0.62362 0.0
C1487 C 0.19824 0.82059 0.62863 0.0
C1488 C 0.14266 0.85443 0.62107 0.0
C1489 C 0.11386 0.89959 0.64386 0.0
C1490 C 0.12846 0.87905 0.63894 0.0
C1491 C 0.17435 0.82251 0.6242 0.0
C1492 C 0.15807 0.84155 0.62934 0.0
H1493 H 0.11903 0.94828 0.6636 0.0
H1494 H 0.14209 0.91367 0.65617 0.0
H1495 H 0.11688 0.88294 0.61912 0.0
H1496 H 0.17507 0.77673 0.60234 0.0
H1497 H 0.14795 0.80715 0.61117 0.0
C1498 C 0.4676 0.92939 0.85872 0.0
C1499 C 0.47074 0.95214 0.86447 0.0
C1500 C 0.45018 0.91335 0.86337 0.0
C1501 C 0.41199 0.90054 0.89187 0.0
H1502 H 0.37184 0.86635 0.86739 0.0
C1503 C 0.32136 0.85744 0.90589 0.0
C1504 C 0.31489 0.83521 0.90035 0.0
C1505 C 0.34213 0.86954 0.90191 0.0
C1506 C 0.38313 0.87545 0.87436 0.0
H1507 H 0.45813 0.97575 0.87968 0.0
H1508 H 0.42763 0.94795 0.88768 0.0
H1509 H 0.40473 0.89169 0.85964 0.0
H1510 H 0.32559 0.80808 0.88643 0.0
H1511 H 0.36198 0.8293 0.87949 0.0
H1512 H 0.39011 0.88465 0.90657 0.0
C1513 C 0.43884 0.94234 0.87969 0.0
C1514 C 0.40199 0.89 0.86992 0.0
C1515 C 0.45624 0.95837 0.87504 0.0
C1516 C 0.33 0.82516 0.8909 0.0
C1517 C 0.35078 0.83739 0.88686 0.0
C1518 C 0.39313 0.88603 0.8963 0.0
C1519 C 0.43552 0.91967 0.87388 0.0
C1520 C 0.41644 0.90299 0.87862 0.0
C1521 C 0.35697 0.85981 0.89226 0.0
C1522 C 0.37826 0.87358 0.88759 0.0
H1523 H 0.47853 0.92397 0.85059 0.0
H1524 H 0.4483 0.89593 0.85877 0.0
H1525 H 0.42307 0.9099 0.89885 0.0
H1526 H 0.3102 0.86574 0.9132 0.0
H1527 H 0.34618 0.88691 0.90615 0.0
C1528 C 0.31881 0.7961 0.3841 0.0
C1529 C 0.29431 0.79591 0.38062 0.0
C1530 C 0.33427 0.81405 0.37946 0.0
C1531 C 0.33353 0.8757 0.36601 0.0
H1532 H 0.39845 0.86043 0.35477 0.0
C1533 C 0.39249 0.94582 0.34019 0.0
C1534 C 0.41679 0.94756 0.34394 0.0
C1535 C 0.37821 0.9266 0.34434 0.0
C1536 C 0.38046 0.86501 0.358 0.0
H1537 H 0.26693 0.8143 0.36938 0.0
H1538 H 0.29388 0.84542 0.36123 0.0
H1539 H 0.37223 0.8283 0.36273 0.0
H1540 H 0.44526 0.92994 0.35476 0.0
H1541 H 0.42022 0.89643 0.36208 0.0
H1542 H 0.34168 0.91236 0.36133 0.0
C1543 C 0.3011 0.83189 0.36769 0.0
C1544 C 0.36543 0.84661 0.36256 0.0
C1545 C 0.28567 0.81395 0.37231 0.0
C1546 C 0.42663 0.92919 0.35168 0.0
C1547 C 0.4123 0.90992 0.35584 0.0
C1548 C 0.34852 0.89406 0.36146 0.0
C1549 C 0.32555 0.83225 0.37126 0.0
C1550 C 0.34175 0.85174 0.36655 0.0
C1551 C 0.38782 0.90859 0.35236 0.0
C1552 C 0.37211 0.88894 0.35733 0.0
H1553 H 0.32606 0.78248 0.3905 0.0
H1554 H 0.35294 0.81394 0.3825 0.0
H1555 H 0.31557 0.88036 0.36925 0.0
H1556 H 0.3843 0.9595 0.33416 0.0
H1557 H 0.35956 0.92588 0.34128 0.0
C1558 C 0.32215 0.17952 0.60437 0.0
C1559 C 0.30485 0.17034 0.59577 0.0
C1560 C 0.34171 0.1653 0.60826 0.0
C1561 C 0.3767 0.11083 0.59933 0.0
H1562 H 0.39324 0.10888 0.63556 0.0
C1563 C 0.43562 0.03536 0.62079 0.0
C1564 C 0.45274 0.04162 0.63017 0.0
C1565 C 0.41883 0.0523 0.61644 0.0
C1566 C 0.38909 0.10945 0.62538 0.0
H1567 H 0.29494 0.13908 0.58434 0.0
H1568 H 0.3288 0.11444 0.59116 0.0
H1569 H 0.36211 0.13665 0.62806 0.0
H1570 H 0.46566 0.07068 0.64233 0.0
H1571 H 0.43643 0.1003 0.63466 0.0
H1572 H 0.40345 0.08347 0.59666 0.0
C1573 C 0.32741 0.13268 0.59482 0.0
C1574 C 0.37125 0.12539 0.62109 0.0
C1575 C 0.30787 0.14681 0.59097 0.0
C1576 C 0.45267 0.06524 0.63512 0.0
C1577 C 0.43585 0.08219 0.63076 0.0
C1578 C 0.39451 0.09492 0.60362 0.0
C1579 C 0.34448 0.14166 0.60358 0.0
C1580 C 0.36463 0.12603 0.60803 0.0
C1581 C 0.41875 0.07593 0.62135 0.0
C1582 C 0.40071 0.09381 0.61672 0.0
H1583 H 0.32042 0.19756 0.60826 0.0
H1584 H 0.35469 0.17284 0.61493 0.0
H1585 H 0.37234 0.11118 0.58918 0.0
H1586 H 0.43509 0.01732 0.61681 0.0
H1587 H 0.40567 0.04674 0.60933 0.0
C1588 C 0.10126 0.06185 0.83923 0.0
C1589 C 0.07783 0.05819 0.84403 0.0
C1590 C 0.11488 0.0817 0.84316 0.0
C1591 C 0.121 0.12475 0.86983 0.0
H1592 H 0.16262 0.15867 0.84592 0.0
C1593 C 0.18027 0.20568 0.88538 0.0
C1594 C 0.20397 0.20599 0.88058 0.0
C1595 C 0.16336 0.18925 0.88058 0.0
C1596 C 0.15123 0.14926 0.85274 0.0
H1597 H 0.05018 0.07299 0.85653 0.0
H1598 H 0.07399 0.10775 0.86333 0.0
H1599 H 0.13554 0.1274 0.83799 0.0
H1600 H 0.22845 0.18932 0.86693 0.0
H1601 H 0.19913 0.16059 0.8587 0.0
H1602 H 0.13698 0.14634 0.88462 0.0
C1603 C 0.08186 0.09505 0.85662 0.0
C1604 C 0.13569 0.13137 0.84819 0.0
C1605 C 0.06817 0.0752 0.85265 0.0
C1606 C 0.21034 0.18963 0.87083 0.0
C1607 C 0.19346 0.17325 0.86603 0.0
C1608 C 0.13656 0.14265 0.87439 0.0
C1609 C 0.10546 0.0984 0.852 0.0
C1610 C 0.12063 0.11867 0.8567 0.0
C1611 C 0.16978 0.17281 0.87086 0.0
C1612 C 0.1521 0.15489 0.86592 0.0
H1613 H 0.10933 0.04915 0.83259 0.0
H1614 H 0.1331 0.08357 0.83954 0.0
H1615 H 0.10984 0.11511 0.87667 0.0
H1616 H 0.17476 0.21809 0.89287 0.0
H1617 H 0.14521 0.18955 0.88441 0.0
C1618 C 0.16775 0.83489 0.10122 0.0
C1619 C 0.18326 0.84526 0.09204 0.0
C1620 C 0.14726 0.84731 0.10545 0.0
C1621 C 0.10612 0.89756 0.097 0.0
H1622 H 0.09329 0.89928 0.13366 0.0
C1623 C 0.0413 0.96682 0.11977 0.0
C1624 C 0.02645 0.95916 0.12994 0.0
C1625 C 0.05921 0.95165 0.11487 0.0
C1626 C 0.09638 0.89872 0.12338 0.0
H1627 H 0.18897 0.87669 0.07994 0.0
H1628 H 0.15342 0.89826 0.08736 0.0
H1629 H 0.12641 0.87476 0.12548 0.0
H1630 H 0.01859 0.92937 0.14281 0.0
H1631 H 0.04968 0.90281 0.13416 0.0
H1632 H 0.07624 0.92168 0.0949 0.0
C1633 C 0.15698 0.88045 0.09121 0.0
C1634 C 0.11538 0.88465 0.11869 0.0
C1635 C 0.17747 0.86811 0.08702 0.0
C1636 C 0.02978 0.93588 0.13502 0.0
C1637 C 0.04769 0.92069 0.1301 0.0
C1638 C 0.08711 0.9116 0.10168 0.0
C1639 C 0.14174 0.87031 0.10057 0.0
C1640 C 0.12063 0.88411 0.10546 0.0
C1641 C 0.06268 0.92842 0.11999 0.0
C1642 C 0.08216 0.91256 0.11494 0.0
H1643 H 0.17159 0.81732 0.10528 0.0
H1644 H 0.13572 0.83888 0.11256 0.0
H1645 H 0.10944 0.89723 0.08674 0.0
H1646 H 0.03927 0.98465 0.11565 0.0
H1647 H 0.07064 0.95832 0.10721 0.0
C1648 C 0.6868 0.78509 0.88558 0.0
C1649 C 0.71071 0.78302 0.88122 0.0
C1650 C 0.67154 0.80287 0.88059 0.0
C1651 C 0.664 0.84399 0.8528 0.0
H1652 H 0.62273 0.87979 0.87608 0.0
C1653 C 0.61649 0.93237 0.83807 0.0
C1654 C 0.59289 0.93644 0.84254 0.0
C1655 C 0.62976 0.91254 0.8424 0.0
C1656 C 0.63389 0.86974 0.86942 0.0
H1657 H 0.7373 0.798 0.86816 0.0
H1658 H 0.71079 0.82914 0.85957 0.0
H1659 H 0.64804 0.84741 0.88442 0.0
H1660 H 0.56463 0.92245 0.85491 0.0
H1661 H 0.58777 0.88774 0.86237 0.0
H1662 H 0.65002 0.8665 0.83781 0.0
C1663 C 0.70372 0.81682 0.86673 0.0
C1664 C 0.64841 0.85118 0.8742 0.0
C1665 C 0.71897 0.79904 0.87171 0.0
C1666 C 0.58276 0.91994 0.85128 0.0
C1667 C 0.59608 0.90011 0.85563 0.0
C1668 C 0.64949 0.86257 0.84801 0.0
C1669 C 0.67983 0.81899 0.87112 0.0
C1670 C 0.66378 0.83819 0.86596 0.0
C1671 C 0.6198 0.89627 0.85131 0.0
C1672 C 0.63439 0.87578 0.85628 0.0
H1673 H 0.67982 0.77298 0.89286 0.0
H1674 H 0.65317 0.80385 0.88408 0.0
H1675 H 0.6753 0.83408 0.84615 0.0
H1676 H 0.62492 0.94469 0.83135 0.0
H1677 H 0.64807 0.9103 0.83899 0.0
C1678 C 0.9487 0.96507 0.62042 0.0
C1679 C 0.96403 0.95779 0.63046 0.0
C1680 C 0.93143 0.94926 0.61546 0.0
C1681 C 0.89673 0.8945 0.62359 0.0
H1682 H 0.88381 0.89333 0.58694 0.0
C1683 C 0.82817 0.82824 0.60093 0.0
C1684 C 0.8123 0.83817 0.59179 0.0
C1685 C 0.8481 0.84139 0.60528 0.0
C1686 C 0.88709 0.89356 0.59721 0.0
H1687 H 0.97333 0.92805 0.6431 0.0
H1688 H 0.9433 0.90039 0.63436 0.0
H1689 H 0.91585 0.91903 0.59529 0.0
H1690 H 0.80536 0.86961 0.57988 0.0
H1691 H 0.83992 0.89245 0.58751 0.0
H1692 H 0.86779 0.86919 0.62552 0.0
C1693 C 0.94446 0.91845 0.63043 0.0
C1694 C 0.90543 0.90831 0.602 0.0
C1695 C 0.96176 0.93427 0.63539 0.0
C1696 C 0.81717 0.86134 0.58692 0.0
C1697 C 0.8371 0.87442 0.59123 0.0
C1698 C 0.87838 0.87972 0.6188 0.0
C1699 C 0.92905 0.92576 0.62042 0.0
C1700 C 0.91031 0.90917 0.61526 0.0
C1701 C 0.85269 0.86472 0.60055 0.0
C1702 C 0.87317 0.87927 0.60556 0.0
H1703 H 0.9499 0.98307 0.61642 0.0
H1704 H 0.91963 0.95562 0.60788 0.0
H1705 H 0.89979 0.89494 0.63388 0.0
H1706 H 0.82502 0.81044 0.60489 0.0
H1707 H 0.85993 0.83329 0.61236 0.0
C1708 C 0.78363 0.19813 0.37413 0.0
C1709 C 0.79208 0.21455 0.38339 0.0
C1710 C 0.79892 0.18045 0.3691 0.0
C1711 C 0.85491 0.14699 0.37616 0.0
H1712 H 0.85197 0.1307 0.33992 0.0
C1713 C 0.91978 0.07761 0.35311 0.0
C1714 C 0.9093 0.0609 0.34459 0.0
C1715 C 0.90665 0.0976 0.35743 0.0
C1716 C 0.85288 0.13491 0.35008 0.0
H1717 H 0.82334 0.22538 0.39453 0.0
H1718 H 0.85005 0.19464 0.38567 0.0
H1719 H 0.82677 0.16314 0.34829 0.0
H1720 H 0.87684 0.05245 0.3338 0.0
H1721 H 0.85406 0.08707 0.34141 0.0
H1722 H 0.88084 0.11859 0.37798 0.0
C1723 C 0.83151 0.19526 0.38242 0.0
C1724 C 0.83842 0.15349 0.35488 0.0
C1725 C 0.81622 0.21296 0.38745 0.0
C1726 C 0.88556 0.06493 0.34034 0.0
C1727 C 0.87248 0.08489 0.34464 0.0
C1728 C 0.86937 0.1284 0.37136 0.0
C1729 C 0.82302 0.17876 0.3732 0.0
C1730 C 0.83911 0.15962 0.368 0.0
C1731 C 0.88279 0.10137 0.35331 0.0
C1732 C 0.86838 0.12199 0.35828 0.0
H1733 H 0.76513 0.1988 0.37082 0.0
H1734 H 0.79171 0.16782 0.36215 0.0
H1735 H 0.85565 0.15104 0.38635 0.0
H1736 H 0.93801 0.07514 0.35656 0.0
H1737 H 0.91522 0.11012 0.36399 0.0
C1738 C 0.67989 0.18244 0.10328 0.0
C1739 C 0.69851 0.17351 0.09541 0.0
C1740 C 0.66141 0.16718 0.10755 0.0
C1741 C 0.6488 0.10269 0.1132 0.0
H1742 H 0.58176 0.12249 0.11398 0.0
C1743 C 0.57239 0.03472 0.12225 0.0
C1744 C 0.55331 0.0418 0.13031 0.0
C1745 C 0.58958 0.05147 0.11817 0.0
C1746 C 0.60044 0.11679 0.11396 0.0
H1747 H 0.71175 0.14161 0.08555 0.0
H1748 H 0.67958 0.11527 0.09287 0.0
H1749 H 0.61254 0.15071 0.10642 0.0
H1750 H 0.53723 0.07214 0.14031 0.0
H1751 H 0.5674 0.10139 0.13325 0.0
H1752 H 0.63685 0.06884 0.12072 0.0
C1753 C 0.67946 0.13395 0.09594 0.0
C1754 C 0.61806 0.13296 0.10963 0.0
C1755 C 0.69785 0.14914 0.09166 0.0
C1756 C 0.5517 0.0661 0.1341 0.0
C1757 C 0.56891 0.08289 0.13 0.0
C1758 C 0.63124 0.08658 0.11753 0.0
C1759 C 0.6612 0.14267 0.10407 0.0
C1760 C 0.64242 0.12598 0.10907 0.0
C1761 C 0.58814 0.07573 0.12204 0.0
C1762 C 0.60681 0.09333 0.11785 0.0
H1763 H 0.67981 0.2011 0.10636 0.0
H1764 H 0.64766 0.17443 0.11386 0.0
H1765 H 0.66746 0.09691 0.11317 0.0
H1766 H 0.57414 0.01619 0.11909 0.0
H1767 H 0.60392 0.04542 0.11188 0.0
C1768 C 0.66455 0.22163 0.62098 0.0
C1769 C 0.6878 0.21795 0.61596 0.0
C1770 C 0.65071 0.20208 0.62521 0.0
C1771 C 0.65533 0.14157 0.6383 0.0
H1772 H 0.59117 0.13114 0.6246 0.0
C1773 C 0.60373 0.05342 0.64819 0.0
C1774 C 0.57847 0.05406 0.64914 0.0
C1775 C 0.61661 0.07388 0.64443 0.0
C1776 C 0.60885 0.13396 0.62874 0.0
H1777 H 0.71492 0.19096 0.61161 0.0
H1778 H 0.69095 0.15689 0.61937 0.0
H1779 H 0.61437 0.16625 0.61773 0.0
H1780 H 0.54693 0.07682 0.64711 0.0
H1781 H 0.56944 0.11288 0.64111 0.0
H1782 H 0.64982 0.10992 0.64963 0.0
C1783 C 0.6834 0.17489 0.61988 0.0
C1784 C 0.62217 0.15402 0.62472 0.0
C1785 C 0.69704 0.19436 0.6154 0.0
C1786 C 0.56639 0.07573 0.64639 0.0
C1787 C 0.57933 0.09637 0.64286 0.0
C1788 C 0.64189 0.12177 0.64251 0.0
C1789 C 0.66008 0.17856 0.62476 0.0
C1790 C 0.64561 0.15784 0.62937 0.0
C1791 C 0.60464 0.0957 0.64175 0.0
C1792 C 0.61854 0.11748 0.63768 0.0
H1793 H 0.65691 0.2396 0.62148 0.0
H1794 H 0.63281 0.20536 0.62899 0.0
H1795 H 0.67329 0.14431 0.64214 0.0
H1796 H 0.61357 0.03691 0.65008 0.0
H1797 H 0.63598 0.07236 0.64341 0.0
C1798 C 0.56217 0.96493 0.37108 0.0
C1799 C 0.54471 0.95783 0.36204 0.0
C1800 C 0.57954 0.94861 0.37542 0.0
C1801 C 0.59311 0.8836 0.37839 0.0
H1802 H 0.6587 0.90652 0.38247 0.0
C1803 C 0.67435 0.82098 0.39055 0.0
C1804 C 0.69153 0.83013 0.39924 0.0
C1805 C 0.65555 0.83563 0.38607 0.0
C1806 C 0.64042 0.89988 0.38153 0.0
H1807 H 0.53173 0.92786 0.35056 0.0
H1808 H 0.56225 0.89935 0.3581 0.0
H1809 H 0.62787 0.93377 0.37435 0.0
H1810 H 0.70172 0.86165 0.41039 0.0
H1811 H 0.66898 0.88691 0.40269 0.0
H1812 H 0.60582 0.84964 0.3856 0.0
C1813 C 0.56233 0.91754 0.36189 0.0
C1814 C 0.62274 0.91551 0.37686 0.0
C1815 C 0.54493 0.93392 0.35752 0.0
C1816 C 0.68899 0.854 0.40363 0.0
C1817 C 0.67027 0.86858 0.39914 0.0
C1818 C 0.61086 0.8679 0.38307 0.0
C1819 C 0.57993 0.92475 0.37084 0.0
C1820 C 0.59881 0.90766 0.37535 0.0
C1821 C 0.65357 0.85974 0.39015 0.0
C1822 C 0.63468 0.87597 0.38482 0.0
H1823 H 0.56248 0.98316 0.37482 0.0
H1824 H 0.59258 0.95466 0.38247 0.0
H1825 H 0.5748 0.87704 0.37745 0.0
H1826 H 0.67573 0.8027 0.38696 0.0
H1827 H 0.64303 0.82831 0.3791 0.0
C1828 C 0.81667 0.78047 0.11127 0.0
C1829 C 0.79287 0.77782 0.11572 0.0
C1830 C 0.83152 0.79868 0.11616 0.0
C1831 C 0.83825 0.84067 0.14367 0.0
H1832 H 0.87738 0.87753 0.1198 0.0
C1833 C 0.88165 0.93176 0.15716 0.0
C1834 C 0.90489 0.9369 0.15247 0.0
C1835 C 0.86937 0.91108 0.15317 0.0
C1836 C 0.86684 0.86719 0.12663 0.0
H1837 H 0.76612 0.79211 0.12891 0.0
H1838 H 0.79191 0.82397 0.13732 0.0
H1839 H 0.85335 0.84384 0.11191 0.0
H1840 H 0.93357 0.9239 0.14007 0.0
H1841 H 0.91215 0.88771 0.13319 0.0
H1842 H 0.85152 0.86423 0.15836 0.0
C1843 C 0.79921 0.8118 0.13017 0.0
C1844 C 0.85305 0.84787 0.1221 0.0
C1845 C 0.78437 0.79361 0.12528 0.0
C1846 C 0.91569 0.92058 0.14386 0.0
C1847 C 0.90335 0.89989 0.13985 0.0
C1848 C 0.85203 0.86 0.14819 0.0
C1849 C 0.82293 0.81464 0.12562 0.0
C1850 C 0.83842 0.83451 0.13055 0.0
C1851 C 0.87997 0.895 0.14439 0.0
C1852 C 0.86633 0.87363 0.13971 0.0
H1853 H 0.82384 0.76856 0.10395 0.0
H1854 H 0.84979 0.80016 0.11257 0.0
H1855 H 0.8275 0.83049 0.15047 0.0
H1856 H 0.87272 0.9439 0.16379 0.0
H1857 H 0.85127 0.90803 0.15674 0.0
C1858 C 0.93573 0.03663 0.87444 0.0
C1859 C 0.95332 0.04363 0.86545 0.0
C1860 C 0.91912 0.05336 0.87919 0.0
C1861 C 0.89097 0.11212 0.87172 0.0
H1862 H 0.8716 0.1096 0.90754 0.0
C1863 C 0.82349 0.18054 0.89355 0.0
C1864 C 0.80514 0.17053 0.90122 0.0
C1865 C 0.84333 0.1666 0.88978 0.0
C1866 C 0.87673 0.11046 0.89749 0.0
H1867 H 0.96732 0.07382 0.85447 0.0
H1868 H 0.93845 0.10308 0.86285 0.0
H1869 H 0.90277 0.08228 0.89971 0.0
H1870 H 0.7938 0.13809 0.91127 0.0
H1871 H 0.82818 0.11394 0.90469 0.0
H1872 H 0.86471 0.14015 0.86949 0.0
C1873 C 0.93733 0.08456 0.86611 0.0
C1874 C 0.89456 0.09476 0.893 0.0
C1875 C 0.95395 0.0678 0.86135 0.0
C1876 C 0.80752 0.14647 0.90535 0.0
C1877 C 0.82735 0.1326 0.90164 0.0
C1878 C 0.87314 0.12785 0.87622 0.0
C1879 C 0.91969 0.07753 0.87508 0.0
C1880 C 0.90168 0.09517 0.88001 0.0
C1881 C 0.84535 0.14238 0.89368 0.0
C1882 C 0.86559 0.12698 0.88913 0.0
H1883 H 0.93467 0.01815 0.87778 0.0
H1884 H 0.90555 0.04723 0.88593 0.0
H1885 H 0.8958 0.11274 0.86163 0.0
H1886 H 0.82238 0.19901 0.89025 0.0
H1887 H 0.85706 0.17475 0.88378 0.0
C1888 C 0.81476 0.7117 0.6088 0.0
C1889 C 0.79025 0.71257 0.61224 0.0
C1890 C 0.82976 0.69348 0.61359 0.0
C1891 C 0.82737 0.63218 0.62749 0.0
H1892 H 0.8927 0.64592 0.63859 0.0
C1893 C 0.88424 0.5614 0.65413 0.0
C1894 C 0.90848 0.55873 0.65039 0.0
C1895 C 0.87054 0.58086 0.64973 0.0
C1896 C 0.87458 0.64176 0.63541 0.0
H1897 H 0.76239 0.69516 0.62358 0.0
H1898 H 0.78853 0.6636 0.63199 0.0
H1899 H 0.86737 0.67855 0.63037 0.0
H1900 H 0.93743 0.57493 0.63931 0.0
H1901 H 0.91339 0.60888 0.63158 0.0
H1902 H 0.83449 0.59546 0.6325 0.0
C1903 C 0.79611 0.67677 0.62545 0.0
C1904 C 0.86007 0.66045 0.63069 0.0
C1905 C 0.78115 0.69498 0.62068 0.0
C1906 C 0.91883 0.5764 0.64239 0.0
C1907 C 0.90508 0.59593 0.63799 0.0
C1908 C 0.84183 0.61355 0.6322 0.0
C1909 C 0.82056 0.6757 0.62191 0.0
C1910 C 0.83624 0.65589 0.62675 0.0
C1911 C 0.88068 0.59818 0.64147 0.0
C1912 C 0.86556 0.61811 0.63629 0.0
H1913 H 0.82236 0.72497 0.60232 0.0
H1914 H 0.84844 0.69305 0.61057 0.0
H1915 H 0.80928 0.62793 0.62429 0.0
H1916 H 0.87566 0.54827 0.66034 0.0
H1917 H 0.85193 0.58229 0.65279 0.0
C1918 C 0.68042 0.63851 0.90883 0.0
C1919 C 0.68662 0.66093 0.90342 0.0
C1920 C 0.65987 0.62617 0.90472 0.0
C1921 C 0.61939 0.62034 0.87694 0.0
H1922 H 0.57904 0.58538 0.90104 0.0
C1923 C 0.5353 0.5666 0.86058 0.0
C1924 C 0.53203 0.5438 0.86625 0.0
C1925 C 0.55264 0.58257 0.86537 0.0
C1926 C 0.59024 0.59489 0.89417 0.0
H1927 H 0.67565 0.68815 0.88959 0.0
H1928 H 0.63972 0.66656 0.88243 0.0
H1929 H 0.61183 0.61049 0.90907 0.0
H1930 H 0.54435 0.52 0.88147 0.0
H1931 H 0.57471 0.54764 0.88969 0.0
H1932 H 0.59811 0.60438 0.86203 0.0
C1933 C 0.65094 0.65848 0.8898 0.0
C1934 C 0.60901 0.60931 0.89878 0.0
C1935 C 0.67147 0.67091 0.89396 0.0
C1936 C 0.54634 0.53743 0.87688 0.0
C1937 C 0.56366 0.55337 0.88166 0.0
C1938 C 0.60064 0.60586 0.87233 0.0
C1939 C 0.64503 0.63588 0.89506 0.0
C1940 C 0.62399 0.62196 0.89021 0.0
C1941 C 0.56708 0.57611 0.87595 0.0
C1942 C 0.58604 0.59271 0.88088 0.0
H1943 H 0.69163 0.63025 0.91614 0.0
H1944 H 0.65599 0.60867 0.90886 0.0
H1945 H 0.63079 0.62962 0.87008 0.0
H1946 H 0.5245 0.57212 0.85241 0.0
H1947 H 0.55462 0.60005 0.86084 0.0
C1948 C 0.60052 0.45125 0.14945 0.0
C1949 C 0.57591 0.45178 0.1462 0.0
C1950 C 0.61511 0.43198 0.14569 0.0
C1951 C 0.6194 0.38278 0.12194 0.0
H1952 H 0.66878 0.35901 0.14512 0.0
C1953 C 0.68116 0.30158 0.10942 0.0
C1954 C 0.70573 0.30418 0.11247 0.0
C1955 C 0.66422 0.31842 0.11378 0.0
C1956 C 0.65521 0.36557 0.13849 0.0
H1957 H 0.54734 0.43217 0.13651 0.0
H1958 H 0.57284 0.39835 0.13004 0.0
H1959 H 0.64101 0.3902 0.15239 0.0
H1960 H 0.73172 0.32657 0.12251 0.0
H1961 H 0.70228 0.35592 0.13001 0.0
H1962 H 0.63379 0.35821 0.108 0.0
C1963 C 0.58086 0.41306 0.1354 0.0
C1964 C 0.63928 0.38345 0.14266 0.0
C1965 C 0.56621 0.43239 0.13917 0.0
C1966 C 0.71295 0.32395 0.12 0.0
C1967 C 0.69603 0.34072 0.12438 0.0
C1968 C 0.63534 0.36483 0.11777 0.0
C1969 C 0.6055 0.41267 0.13859 0.0
C1970 C 0.62138 0.39251 0.13438 0.0
C1971 C 0.67147 0.33817 0.12133 0.0
C1972 C 0.65363 0.35625 0.12594 0.0
H1973 H 0.60869 0.46588 0.1548 0.0
H1974 H 0.63408 0.43248 0.14814 0.0
H1975 H 0.60601 0.38954 0.11527 0.0
H1976 H 0.67499 0.28654 0.10364 0.0
H1977 H 0.64541 0.31583 0.11135 0.0
C1978 C 0.82055 0.36028 0.41082 0.0
C1979 C 0.81504 0.33751 0.40563 0.0
C1980 C 0.84073 0.37311 0.40659 0.0
C1981 C 0.88132 0.37898 0.37879 0.0
H1982 H 0.92034 0.41623 0.4025 0.0
C1983 C 0.96486 0.43319 0.36208 0.0
C1984 C 0.96768 0.45637 0.36736 0.0
C1985 C 0.94758 0.4173 0.36701 0.0
C1986 C 0.9095 0.40609 0.39574 0.0
H1987 H 0.82689 0.31018 0.39208 0.0
H1988 H 0.86219 0.33258 0.38475 0.0
H1989 H 0.88807 0.39071 0.41078 0.0
H1990 H 0.95458 0.48095 0.38201 0.0
H1991 H 0.92432 0.45342 0.39049 0.0
H1992 H 0.90249 0.39464 0.36373 0.0
C1993 C 0.85069 0.34058 0.39201 0.0
C1994 C 0.89102 0.39144 0.40049 0.0
C1995 C 0.83053 0.32768 0.39628 0.0
C1996 C 0.95294 0.46322 0.37773 0.0
C1997 C 0.93568 0.44735 0.38266 0.0
C1998 C 0.89978 0.39367 0.37403 0.0
C1999 C 0.8559 0.36354 0.39704 0.0
C2000 C 0.87654 0.37791 0.39206 0.0
C2001 C 0.93274 0.42421 0.37735 0.0
C2002 C 0.91393 0.40761 0.38244 0.0
H2003 H 0.80906 0.36845 0.41803 0.0
H2004 H 0.84404 0.39086 0.41056 0.0
H2005 H 0.87029 0.36905 0.37202 0.0
H2006 H 0.97599 0.4273 0.35411 0.0
H2007 H 0.94598 0.39951 0.36279 0.0
C2008 C 0.93469 0.42158 0.85074 0.0
C2009 C 0.92261 0.44323 0.84793 0.0
C2010 C 0.92179 0.40116 0.85469 0.0
C2011 C 0.85903 0.37639 0.85597 0.0
H2012 H 0.88694 0.33204 0.88069 0.0
C2013 C 0.80342 0.30543 0.88377 0.0
C2014 C 0.81186 0.28158 0.8829 0.0
C2015 C 0.81758 0.32459 0.87938 0.0
C2016 C 0.87903 0.34424 0.87373 0.0
H2017 H 0.8876 0.46062 0.84741 0.0
H2018 H 0.86533 0.42564 0.8548 0.0
H2019 H 0.91037 0.36669 0.87331 0.0
H2020 H 0.842 0.25915 0.8771 0.0
H2021 H 0.86706 0.29287 0.86976 0.0
H2022 H 0.82735 0.35433 0.85685 0.0
C2023 C 0.88462 0.42391 0.85349 0.0
C2024 C 0.89247 0.36404 0.86942 0.0
C2025 C 0.89743 0.44412 0.84932 0.0
C2026 C 0.83498 0.27734 0.87783 0.0
C2027 C 0.84935 0.29658 0.87369 0.0
C2028 C 0.84549 0.35689 0.86047 0.0
C2029 C 0.89654 0.40205 0.85616 0.0
C2030 C 0.88261 0.38048 0.86051 0.0
C2031 C 0.84065 0.32035 0.87429 0.0
C2032 C 0.85532 0.3407 0.86941 0.0
H2033 H 0.95409 0.42031 0.8497 0.0
H2034 H 0.93164 0.38462 0.85645 0.0
H2035 H 0.85097 0.38817 0.84887 0.0
H2036 H 0.78567 0.30928 0.8876 0.0
H2037 H 0.81055 0.34279 0.88002 0.0
C2038 C 0.97109 0.56563 0.13611 0.0
C2039 C 0.9744 0.54221 0.13122 0.0
C2040 C 0.95296 0.58057 0.13121 0.0
C2041 C 0.91272 0.58872 0.10306 0.0
H2042 H 0.87394 0.62601 0.12689 0.0
C2043 C 0.82229 0.6324 0.08857 0.0
C2044 C 0.81672 0.65535 0.09352 0.0
C2045 C 0.84273 0.61995 0.09277 0.0
C2046 C 0.88481 0.61599 0.12009 0.0
H2047 H 0.96133 0.51624 0.11727 0.0
H2048 H 0.9296 0.54217 0.10883 0.0
H2049 H 0.9073 0.60172 0.13499 0.0
H2050 H 0.82869 0.68335 0.10664 0.0
H2051 H 0.86445 0.66162 0.1139 0.0
H2052 H 0.89003 0.60275 0.08818 0.0
C2053 C 0.9412 0.54912 0.11634 0.0
C2054 C 0.90395 0.60205 0.12473 0.0
C2055 C 0.95932 0.53418 0.12124 0.0
C2056 C 0.83235 0.66569 0.10264 0.0
C2057 C 0.85279 0.65318 0.10686 0.0
C2058 C 0.89358 0.60263 0.09842 0.0
C2059 C 0.93773 0.57247 0.12129 0.0
C2060 C 0.91801 0.58808 0.11629 0.0
C2061 C 0.85813 0.63009 0.10204 0.0
C2062 C 0.87926 0.61627 0.10689 0.0
H2063 H 0.98245 0.57243 0.14376 0.0
H2064 H 0.95098 0.59856 0.13513 0.0
H2065 H 0.92345 0.57851 0.09627 0.0
H2066 H 0.81068 0.62383 0.08155 0.0
H2067 H 0.84613 0.60208 0.08897 0.0
C2068 C 0.60865 0.5518 0.3405 0.0
C2069 C 0.58404 0.55015 0.34365 0.0
C2070 C 0.6223 0.57167 0.34437 0.0
C2071 C 0.62383 0.62009 0.36862 0.0
H2072 H 0.67317 0.64672 0.34633 0.0
C2073 C 0.68159 0.7029 0.38303 0.0
C2074 C 0.70636 0.70155 0.3802 0.0
C2075 C 0.66559 0.68562 0.37819 0.0
C2076 C 0.65959 0.63936 0.35271 0.0
H2077 H 0.55441 0.56855 0.35313 0.0
H2078 H 0.57824 0.60337 0.35978 0.0
H2079 H 0.64694 0.61478 0.33836 0.0
H2080 H 0.73369 0.68096 0.37008 0.0
H2081 H 0.70587 0.65081 0.36177 0.0
H2082 H 0.63668 0.64452 0.38302 0.0
C2083 C 0.58701 0.58906 0.35445 0.0
C2084 C 0.64455 0.62106 0.34814 0.0
C2085 C 0.57332 0.56916 0.35056 0.0
C2086 C 0.71473 0.6826 0.37241 0.0
C2087 C 0.69874 0.66538 0.36757 0.0
C2088 C 0.63888 0.63842 0.3732 0.0
C2089 C 0.61172 0.59046 0.35148 0.0
C2090 C 0.62667 0.611 0.35608 0.0
C2091 C 0.67398 0.66666 0.3704 0.0
C2092 C 0.65713 0.64807 0.36534 0.0
H2093 H 0.61758 0.53751 0.33522 0.0
H2094 H 0.64134 0.57199 0.34207 0.0
H2095 H 0.61045 0.61253 0.37506 0.0
H2096 H 0.67454 0.7173 0.38898 0.0
H2097 H 0.6466 0.68727 0.38044 0.0
C2098 C 0.67029 0.31757 0.60431 0.0
C2099 C 0.68513 0.326 0.5943 0.0
C2100 C 0.65019 0.33091 0.60829 0.0
C2101 C 0.60883 0.37994 0.59822 0.0
H2102 H 0.60134 0.39098 0.63484 0.0
C2103 C 0.55198 0.45831 0.61807 0.0
C2104 C 0.53819 0.45453 0.62923 0.0
C2105 C 0.56801 0.44068 0.61372 0.0
C2106 C 0.6029 0.3878 0.62459 0.0
H2107 H 0.68982 0.35473 0.58031 0.0
H2108 H 0.65493 0.37785 0.58723 0.0
H2109 H 0.63222 0.3631 0.62719 0.0
H2110 H 0.53031 0.42908 0.64452 0.0
H2111 H 0.55822 0.39817 0.63685 0.0
H2112 H 0.57977 0.40484 0.59559 0.0
C2113 C 0.65875 0.36089 0.592 0.0
C2114 C 0.62061 0.3718 0.62021 0.0
C2115 C 0.67889 0.34767 0.58808 0.0
C2116 C 0.54073 0.43261 0.63591 0.0
C2117 C 0.5568 0.41493 0.63154 0.0
C2118 C 0.59111 0.39588 0.6026 0.0
C2119 C 0.64435 0.35286 0.60226 0.0
C2120 C 0.62405 0.36801 0.60697 0.0
C2121 C 0.57065 0.41877 0.62039 0.0
C2122 C 0.58821 0.40034 0.61582 0.0
H2123 H 0.6745 0.301 0.60931 0.0
H2124 H 0.63929 0.32413 0.61615 0.0
H2125 H 0.61076 0.37711 0.58796 0.0
H2126 H 0.55055 0.475 0.61271 0.0
H2127 H 0.57868 0.44444 0.60522 0.0
C2128 C 0.08084 0.42361 0.35419 0.0
C2129 C 0.09109 0.44096 0.34595 0.0
C2130 C 0.0945 0.40399 0.35854 0.0
C2131 C 0.15768 0.38542 0.36364 0.0
H2132 H 0.13118 0.32085 0.36592 0.0
C2133 C 0.21751 0.3031 0.37458 0.0
C2134 C 0.20848 0.28569 0.38315 0.0
C2135 C 0.20264 0.32152 0.36996 0.0
C2136 C 0.13876 0.33883 0.36547 0.0
H2137 H 0.12364 0.45079 0.33557 0.0
H2138 H 0.14722 0.4166 0.34306 0.0
H2139 H 0.10604 0.35383 0.35794 0.0
H2140 H 0.1766 0.27385 0.39347 0.0
H2141 H 0.1507 0.30615 0.38548 0.0
H2142 H 0.19032 0.37057 0.37119 0.0
C2143 C 0.12876 0.41836 0.34633 0.0
C2144 C 0.12436 0.35772 0.36089 0.0
C2145 C 0.11513 0.4379 0.34197 0.0
C2146 C 0.18413 0.28697 0.38687 0.0
C2147 C 0.16924 0.30541 0.38224 0.0
C2148 C 0.17204 0.36659 0.36821 0.0
C2149 C 0.11872 0.40133 0.35479 0.0
C2150 C 0.13372 0.38121 0.35985 0.0
C2151 C 0.17837 0.323 0.3738 0.0
C2152 C 0.16282 0.34303 0.36911 0.0
H2153 H 0.06239 0.42537 0.35747 0.0
H2154 H 0.08628 0.39127 0.36512 0.0
H2155 H 0.1653 0.40339 0.36321 0.0
H2156 H 0.23614 0.3026 0.37146 0.0
H2157 H 0.21016 0.33453 0.36331 0.0
C2158 C 0.31995 0.31661 0.10303 0.0
C2159 C 0.30085 0.32603 0.09567 0.0
C2160 C 0.33939 0.33127 0.1066 0.0
C2161 C 0.36998 0.38881 0.09852 0.0
H2162 H 0.39251 0.38623 0.1338 0.0
C2163 C 0.42791 0.46428 0.12063 0.0
C2164 C 0.44685 0.45774 0.1289 0.0
C2165 C 0.41153 0.447 0.11625 0.0
C2166 C 0.38668 0.38696 0.12387 0.0
H2167 H 0.28754 0.35824 0.08611 0.0
H2168 H 0.32119 0.38365 0.09238 0.0
H2169 H 0.3617 0.35793 0.12654 0.0
H2170 H 0.46345 0.42783 0.13905 0.0
H2171 H 0.43488 0.39761 0.13132 0.0
H2172 H 0.39469 0.41801 0.09587 0.0
C2173 C 0.32132 0.36489 0.0953 0.0
C2174 C 0.36902 0.37071 0.1197 0.0
C2175 C 0.30191 0.3503 0.09176 0.0
C2176 C 0.44903 0.43348 0.1327 0.0
C2177 C 0.4326 0.41618 0.12832 0.0
C2178 C 0.3876 0.40503 0.10268 0.0
C2179 C 0.34021 0.35564 0.10284 0.0
C2180 C 0.36023 0.37167 0.10702 0.0
C2181 C 0.41365 0.42274 0.12003 0.0
C2182 C 0.39594 0.40452 0.11544 0.0
H2183 H 0.31976 0.298 0.1062 0.0
H2184 H 0.35379 0.32353 0.1123 0.0
H2185 H 0.36393 0.38975 0.08862 0.0
H2186 H 0.42563 0.48281 0.11755 0.0
H2187 H 0.39693 0.45276 0.11004 0.0
C2188 C 0.30789 0.70502 0.88613 0.0
C2189 C 0.30325 0.72459 0.87789 0.0
C2190 C 0.3215 0.68534 0.8819 0.0
C2191 C 0.34151 0.65407 0.85241 0.0
H2192 H 0.3875 0.62395 0.87547 0.0
C2193 C 0.38535 0.5616 0.84162 0.0
C2194 C 0.40979 0.5585 0.84485 0.0
C2195 C 0.37293 0.58245 0.8453 0.0
C2196 C 0.3749 0.63226 0.86886 0.0
H2197 H 0.30943 0.73886 0.85874 0.0
H2198 H 0.33335 0.70456 0.85139 0.0
H2199 H 0.36529 0.65949 0.88252 0.0
H2200 H 0.44038 0.57523 0.85432 0.0
H2201 H 0.41881 0.61164 0.86059 0.0
H2202 H 0.35136 0.62701 0.83869 0.0
C2203 C 0.32622 0.70433 0.86109 0.0
C2204 C 0.36195 0.65248 0.87296 0.0
C2205 C 0.31262 0.72406 0.86533 0.0
C2206 C 0.42156 0.57691 0.85171 0.0
C2207 C 0.40914 0.59776 0.85538 0.0
C2208 C 0.35445 0.63382 0.84831 0.0
C2209 C 0.33079 0.68472 0.86932 0.0
C2210 C 0.34501 0.66358 0.86481 0.0
C2211 C 0.38465 0.60074 0.85228 0.0
C2212 C 0.37124 0.62261 0.85651 0.0
H2213 H 0.3009 0.70479 0.89586 0.0
H2214 H 0.32439 0.67041 0.88844 0.0
H2215 H 0.32845 0.66204 0.84593 0.0
H2216 H 0.37565 0.54779 0.83637 0.0
H2217 H 0.35401 0.58401 0.84289 0.0
C2218 C 0.03703 0.56657 0.63588 0.0
C2219 C 0.03427 0.54323 0.63078 0.0
C2220 C 0.05507 0.58196 0.63124 0.0
C2221 C 0.11336 0.58071 0.61403 0.0
H2222 H 0.10103 0.64863 0.60796 0.0
C2223 C 0.18183 0.64013 0.58734 0.0
C2224 C 0.18637 0.66329 0.59229 0.0
C2225 C 0.16254 0.6264 0.59192 0.0
C2226 C 0.10483 0.62975 0.60973 0.0
H2227 H 0.0481 0.51795 0.61666 0.0
H2228 H 0.0793 0.54475 0.60854 0.0
H2229 H 0.06885 0.62291 0.61634 0.0
H2230 H 0.17365 0.6904 0.60573 0.0
H2231 H 0.14004 0.66628 0.6138 0.0
H2232 H 0.14927 0.58744 0.60748 0.0
C2233 C 0.06779 0.55107 0.61625 0.0
C2234 C 0.08639 0.61502 0.61454 0.0
C2235 C 0.04978 0.53574 0.62087 0.0
C2236 C 0.17069 0.67264 0.60169 0.0
C2237 C 0.15136 0.65885 0.60629 0.0
C2238 C 0.13174 0.5954 0.60925 0.0
C2239 C 0.07077 0.57431 0.62142 0.0
C2240 C 0.09041 0.59027 0.61665 0.0
C2241 C 0.14729 0.63541 0.60159 0.0
C2242 C 0.12767 0.62006 0.60693 0.0
H2243 H 0.02538 0.57291 0.64353 0.0
H2244 H 0.05701 0.59967 0.6355 0.0
H2245 H 0.11723 0.56185 0.6158 0.0
H2246 H 0.19337 0.63237 0.58002 0.0
H2247 H 0.15964 0.60862 0.58789 0.0
C2248 C 0.11971 0.57049 0.15817 0.0
C2249 C 0.09676 0.56507 0.15321 0.0
C2250 C 0.13254 0.59051 0.15375 0.0
C2251 C 0.12631 0.64854 0.1364 0.0
H2252 H 0.19464 0.63966 0.13005 0.0
C2253 C 0.18504 0.719 0.10953 0.0
C2254 C 0.20839 0.72308 0.11432 0.0
C2255 C 0.17079 0.70036 0.11449 0.0
C2256 C 0.17565 0.64255 0.13191 0.0
H2257 H 0.06909 0.57696 0.13987 0.0
H2258 H 0.09163 0.61182 0.13207 0.0
H2259 H 0.17084 0.60626 0.13837 0.0
H2260 H 0.23491 0.71099 0.12825 0.0
H2261 H 0.21004 0.67866 0.13694 0.0
H2262 H 0.1312 0.68487 0.12984 0.0
C2263 C 0.09959 0.60064 0.13948 0.0
C2264 C 0.16198 0.62339 0.13669 0.0
C2265 C 0.0867 0.58058 0.14392 0.0
C2266 C 0.21706 0.70829 0.12428 0.0
C2267 C 0.20285 0.68965 0.12922 0.0
C2268 C 0.14 0.66775 0.13159 0.0
C2269 C 0.12281 0.60565 0.14423 0.0
C2270 C 0.13717 0.62616 0.13905 0.0
C2271 C 0.1796 0.68535 0.12433 0.0
C2272 C 0.16487 0.66499 0.12935 0.0
H2273 H 0.12799 0.55909 0.1654 0.0
H2274 H 0.15018 0.5941 0.15779 0.0
H2275 H 0.10729 0.65136 0.13823 0.0
H2276 H 0.17781 0.73007 0.10186 0.0
H2277 H 0.15306 0.69739 0.11043 0.0
C2278 C 0.19624 0.35572 0.90589 0.0
C2279 C 0.19755 0.33157 0.9018 0.0
C2280 C 0.17757 0.37071 0.9017 0.0
C2281 C 0.11666 0.37048 0.88705 0.0
H2282 H 0.13368 0.43576 0.87718 0.0
C2283 C 0.05034 0.43454 0.86071 0.0
C2284 C 0.05003 0.45876 0.86472 0.0
C2285 C 0.06792 0.41863 0.86533 0.0
C2286 C 0.12856 0.41768 0.88003 0.0
H2287 H 0.17977 0.30415 0.89031 0.0
H2288 H 0.14732 0.3304 0.88293 0.0
H2289 H 0.16473 0.40869 0.88528 0.0
H2290 H 0.06789 0.48517 0.87682 0.0
H2291 H 0.09837 0.45744 0.8849 0.0
H2292 H 0.08045 0.37954 0.88172 0.0
C2293 C 0.16065 0.33767 0.88947 0.0
C2294 C 0.14636 0.40215 0.88469 0.0
C2295 C 0.17934 0.32263 0.89367 0.0
C2296 C 0.06764 0.46667 0.87348 0.0
C2297 C 0.08522 0.45079 0.87807 0.0
C2298 C 0.09882 0.38604 0.88237 0.0
C2299 C 0.15973 0.36198 0.8933 0.0
C2300 C 0.14064 0.37839 0.88831 0.0
C2301 C 0.08562 0.42659 0.87403 0.0
C2302 C 0.10455 0.40985 0.87885 0.0
H2303 H 0.20983 0.36322 0.91221 0.0
H2304 H 0.17716 0.38922 0.90503 0.0
H2305 H 0.11158 0.35238 0.88989 0.0
H2306 H 0.03704 0.42786 0.85396 0.0
H2307 H 0.06787 0.40016 0.86193 0.0
C2308 C 0.31469 0.29801 0.61146 0.0
C2309 C 0.28977 0.30037 0.61364 0.0
C2310 C 0.33077 0.31555 0.61593 0.0
C2311 C 0.33617 0.36486 0.63969 0.0
H2312 H 0.38759 0.38759 0.61751 0.0
C2313 C 0.38951 0.4515 0.65065 0.0
C2314 C 0.41439 0.45187 0.64804 0.0
C2315 C 0.3753 0.43198 0.64684 0.0
C2316 C 0.37355 0.3812 0.6239 0.0
H2317 H 0.26225 0.32303 0.62224 0.0
H2318 H 0.29022 0.3536 0.62996 0.0
H2319 H 0.36097 0.35542 0.61011 0.0
H2320 H 0.44384 0.4317 0.63947 0.0
H2321 H 0.41904 0.39747 0.63296 0.0
H2322 H 0.34862 0.39067 0.65346 0.0
C2323 C 0.29738 0.33807 0.62492 0.0
C2324 C 0.35828 0.36278 0.61965 0.0
C2325 C 0.28132 0.3206 0.62042 0.0
C2326 C 0.42475 0.43207 0.64162 0.0
C2327 C 0.4105 0.4125 0.63782 0.0
C2328 C 0.35145 0.38323 0.64395 0.0
C2329 C 0.32229 0.33578 0.62273 0.0
C2330 C 0.33925 0.35457 0.62745 0.0
C2331 C 0.38558 0.41226 0.64034 0.0
C2332 C 0.37017 0.39181 0.63606 0.0
H2333 H 0.3218 0.28263 0.60627 0.0
H2334 H 0.34987 0.31314 0.61419 0.0
H2335 H 0.32197 0.35865 0.64603 0.0
H2336 H 0.38085 0.46646 0.65551 0.0
H2337 H 0.35613 0.4326 0.64877 0.0
C2338 C 0.45755 0.5646 0.35663 0.0
C2339 C 0.45932 0.54177 0.36246 0.0
C2340 C 0.44129 0.58181 0.36132 0.0
C2341 C 0.40555 0.59727 0.39033 0.0
H2342 H 0.36682 0.63484 0.36659 0.0
C2343 C 0.31918 0.64683 0.40587 0.0
C2344 C 0.31416 0.6696 0.40053 0.0
C2345 C 0.33876 0.63325 0.40154 0.0
C2346 C 0.37776 0.62477 0.37335 0.0
H2347 H 0.44524 0.5191 0.37774 0.0
H2348 H 0.41681 0.54888 0.38577 0.0
H2349 H 0.39729 0.60717 0.35825 0.0
H2350 H 0.32627 0.69612 0.38659 0.0
H2351 H 0.36057 0.67233 0.37905 0.0
H2352 H 0.38574 0.61452 0.40541 0.0
C2353 C 0.42823 0.55369 0.37772 0.0
C2354 C 0.39522 0.6089 0.36857 0.0
C2355 C 0.44443 0.53653 0.37304 0.0
C2356 C 0.32958 0.67867 0.39092 0.0
C2357 C 0.34915 0.66497 0.38654 0.0
C2358 C 0.38809 0.61309 0.3951 0.0
C2359 C 0.42649 0.57658 0.37196 0.0
C2360 C 0.40907 0.59468 0.377 0.0
C2361 C 0.35382 0.64202 0.39172 0.0
C2362 C 0.37374 0.62675 0.38667 0.0
H2363 H 0.46881 0.56924 0.34848 0.0
H2364 H 0.44055 0.59933 0.35673 0.0
H2365 H 0.41625 0.58699 0.3971 0.0
H2366 H 0.30773 0.63925 0.41328 0.0
H2367 H 0.34167 0.61552 0.40564 0.0
loop_
_geom_bond_atom_site_label_1
_geom_bond_atom_site_label_2
_geom_bond_distance
_geom_bond_site_symmetry_2
_ccdc_geom_bond_type
Mg0 O1 2.028 . S
Mg0 O7 1.986 . S
Mg0 O9 2.106 1_545 S
Mg0 O10 2.251 1_545 S
Mg0 O13 2.010 . S
O1 Mg0 2.028 . S
O1 C4 1.250 . S
O2 Mg3 2.028 . S
O2 C4 1.248 . S
Mg3 O2 2.028 . S
Mg3 O8 2.032 . S
Mg3 O10 2.079 1_545 S
C4 O1 1.250 . S
C4 O2 1.248 . S
C5 O6 1.264 . S
C5 O13 1.249 . S
O6 C5 1.264 . S
O7 Mg0 1.986 . S
O7 C11 1.246 . S
O8 Mg3 2.032 . S
O8 C11 1.259 . S
O9 Mg0 2.106 1_565 S
O9 C12 1.258 . S
O10 Mg0 2.251 1_565 S
O10 Mg3 2.079 1_565 S
O10 C12 1.273 . S
C11 O7 1.246 . S
C11 O8 1.259 . S
C12 O9 1.258 . S
C12 O10 1.273 . S
O13 Mg0 2.010 . S
O13 C5 1.249 . S
Mg14 O15 2.028 . S
Mg14 O21 1.986 . S
Mg14 O23 2.114 . S
Mg14 O24 2.251 . S
Mg14 O27 2.010 . S
O15 Mg14 2.028 . S
O15 C18 1.250 . S
O16 Mg17 2.028 . S
O16 C18 1.248 . S
Mg17 O16 2.028 . S
Mg17 O22 2.032 . S
Mg17 O24 2.079 . S
C18 O15 1.250 . S
C18 O16 1.248 . S
C19 O20 1.264 . S
C19 O27 1.249 . S
O20 C19 1.264 . S
O21 Mg14 1.986 . S
O21 C25 1.246 . S
O22 Mg17 2.032 . S
O22 C25 1.259 . S
O23 Mg14 2.114 . S
O23 C26 1.252 . S
O24 Mg14 2.251 . S
O24 Mg17 2.079 . S
O24 C26 1.273 . S
C25 O21 1.246 . S
C25 O22 1.259 . S
C26 O23 1.252 . S
C26 O24 1.273 . S
O27 Mg14 2.010 . S
O27 C19 1.249 . S
Mg28 O29 2.028 . S
Mg28 O35 1.986 . S
Mg28 O37 2.106 1_565 S
Mg28 O38 2.251 1_565 S
Mg28 O41 2.010 . S
O29 Mg28 2.028 . S
O29 C32 1.250 . S
O30 Mg31 2.028 . S
O30 C32 1.248 . S
Mg31 O30 2.028 . S
Mg31 O36 2.032 . S
Mg31 O38 2.079 1_565 S
C32 O29 1.250 . S
C32 O30 1.248 . S
C33 O34 1.264 1_455 S
C33 O41 1.249 . S
O34 C33 1.264 1_655 S
O35 Mg28 1.986 . S
O35 C39 1.246 . S
O36 Mg31 2.032 . S
O36 C39 1.259 . S
O37 Mg28 2.106 1_545 S
O37 C40 1.258 . S
O38 Mg28 2.251 1_545 S
O38 Mg31 2.079 1_545 S
O38 C40 1.273 . S
C39 O35 1.246 . S
C39 O36 1.259 . S
C40 O37 1.258 . S
C40 O38 1.273 . S
O41 Mg28 2.010 . S
O41 C33 1.249 . S
Mg42 O43 2.028 . S
Mg42 O49 1.986 . S
Mg42 O51 2.114 . S
Mg42 O52 2.251 . S
Mg42 O55 2.010 . S
O43 Mg42 2.028 . S
O43 C46 1.250 . S
O44 Mg45 2.028 . S
O44 C46 1.248 . S
Mg45 O44 2.028 . S
Mg45 O50 2.032 . S
Mg45 O52 2.079 . S
C46 O43 1.250 . S
C46 O44 1.248 . S
C47 O48 1.264 . S
C47 O55 1.249 . S
O48 C47 1.264 . S
O49 Mg42 1.986 . S
O49 C53 1.246 . S
O50 Mg45 2.032 . S
O50 C53 1.259 . S
O51 Mg42 2.114 . S
O51 C54 1.252 . S
O52 Mg42 2.251 . S
O52 Mg45 2.079 . S
O52 C54 1.273 . S
C53 O49 1.246 . S
C53 O50 1.259 . S
C54 O51 1.252 . S
C54 O52 1.273 . S
O55 Mg42 2.010 . S
O55 C47 1.249 . S
Mg56 O57 2.028 . S
Mg56 O63 1.986 . S
Mg56 O65 2.106 1_565 S
Mg56 O66 2.251 1_565 S
Mg56 O69 2.010 . S
O57 Mg56 2.028 . S
O57 C60 1.250 . S
O58 Mg59 2.028 . S
O58 C60 1.248 . S
Mg59 O58 2.028 . S
Mg59 O64 2.032 . S
Mg59 O66 2.079 1_565 S
C60 O57 1.250 . S
C60 O58 1.248 . S
C61 O62 1.264 . S
C61 O69 1.249 . S
O62 C61 1.264 . S
O63 Mg56 1.986 . S
O63 C67 1.246 . S
O64 Mg59 2.032 . S
O64 C67 1.259 . S
O65 Mg56 2.106 1_545 S
O65 C68 1.258 . S
O66 Mg56 2.251 1_545 S
O66 Mg59 2.079 1_545 S
O66 C68 1.273 . S
C67 O63 1.246 . S
C67 O64 1.259 . S
C68 O65 1.258 . S
C68 O66 1.273 . S
O69 Mg56 2.010 . S
O69 C61 1.249 . S
Mg70 O71 2.028 . S
Mg70 O77 1.986 . S
Mg70 O79 2.114 . S
Mg70 O80 2.251 . S
Mg70 O83 2.010 . S
O71 Mg70 2.028 . S
O71 C74 1.250 . S
O72 Mg73 2.028 . S
O72 C74 1.248 . S
Mg73 O72 2.028 . S
Mg73 O78 2.032 . S
Mg73 O80 2.079 . S
C74 O71 1.250 . S
C74 O72 1.248 . S
C75 O76 1.264 . S
C75 O83 1.249 . S
O76 C75 1.264 . S
O77 Mg70 1.986 . S
O77 C81 1.246 . S
O78 Mg73 2.032 . S
O78 C81 1.259 . S
O79 Mg70 2.114 . S
O79 C82 1.252 . S
O80 Mg70 2.251 . S
O80 Mg73 2.079 . S
O80 C82 1.273 . S
C81 O77 1.246 . S
C81 O78 1.259 . S
C82 O79 1.252 . S
C82 O80 1.273 . S
O83 Mg70 2.010 . S
O83 C75 1.249 . S
Mg84 O85 2.028 . S
Mg84 O91 1.986 . S
Mg84 O93 2.106 1_545 S
Mg84 O94 2.251 1_545 S
Mg84 O97 2.010 . S
O85 Mg84 2.028 . S
O85 C88 1.250 . S
O86 Mg87 2.028 . S
O86 C88 1.248 . S
Mg87 O86 2.028 . S
Mg87 O92 2.032 . S
Mg87 O94 2.079 1_545 S
C88 O85 1.250 . S
C88 O86 1.248 . S
C89 O90 1.264 1_455 S
C89 O97 1.249 . S
O90 C89 1.264 1_655 S
O91 Mg84 1.986 . S
O91 C95 1.246 . S
O92 Mg87 2.032 . S
O92 C95 1.259 . S
O93 Mg84 2.106 1_565 S
O93 C96 1.258 . S
O94 Mg84 2.251 1_565 S
O94 Mg87 2.079 1_565 S
O94 C96 1.273 . S
C95 O91 1.246 . S
C95 O92 1.259 . S
C96 O93 1.258 . S
C96 O94 1.273 . S
O97 Mg84 2.010 . S
O97 C89 1.249 . S
Mg98 O99 2.028 . S
Mg98 O105 1.986 . S
Mg98 O107 2.114 . S
Mg98 O108 2.251 . S
Mg98 O111 2.010 . S
O99 Mg98 2.028 . S
O99 C102 1.250 . S
O100 Mg101 2.028 . S
O100 C102 1.248 . S
Mg101 O100 2.028 . S
Mg101 O106 2.032 . S
Mg101 O108 2.079 . S
C102 O99 1.250 . S
C102 O100 1.248 . S
C103 O104 1.264 . S
C103 O111 1.249 . S
O104 C103 1.264 . S
O105 Mg98 1.986 . S
O105 C109 1.246 . S
O106 Mg101 2.032 . S
O106 C109 1.259 . S
O107 Mg98 2.114 . S
O107 C110 1.252 . S
O108 Mg98 2.251 . S
O108 Mg101 2.079 . S
O108 C110 1.273 . S
C109 O105 1.246 . S
C109 O106 1.259 . S
C110 O107 1.252 . S
C110 O108 1.273 . S
O111 Mg98 2.010 . S
O111 C103 1.249 . S
Mg112 O113 2.028 . S
Mg112 O119 1.986 . S
Mg112 O121 2.106 1_565 S
Mg112 O122 2.251 1_565 S
Mg112 O125 2.010 . S
O113 Mg112 2.028 . S
O113 C116 1.250 . S
O114 Mg115 2.028 . S
O114 C116 1.248 . S
Mg115 O114 2.028 . S
Mg115 O120 2.032 . S
Mg115 O122 2.079 1_565 S
C116 O113 1.250 . S
C116 O114 1.248 . S
C117 O118 1.264 . S
C117 O125 1.249 . S
O118 C117 1.264 . S
O119 Mg112 1.986 . S
O119 C123 1.246 . S
O120 Mg115 2.032 . S
O120 C123 1.259 . S
O121 Mg112 2.106 1_545 S
O121 C124 1.258 . S
O122 Mg112 2.251 1_545 S
O122 Mg115 2.079 1_545 S
O122 C124 1.273 . S
C123 O119 1.246 . S
C123 O120 1.259 . S
C124 O121 1.258 . S
C124 O122 1.273 . S
O125 Mg112 2.010 . S
O125 C117 1.249 . S
Mg126 O127 2.028 . S
Mg126 O133 1.986 . S
Mg126 O135 2.114 . S
Mg126 O136 2.251 . S
Mg126 O139 2.010 . S
O127 Mg126 2.028 . S
O127 C130 1.250 . S
O128 Mg129 2.028 . S
O128 C130 1.248 . S
Mg129 O128 2.028 . S
Mg129 O134 2.032 . S
Mg129 O136 2.079 . S
C130 O127 1.250 . S
C130 O128 1.248 . S
C131 O132 1.264 . S
C131 O139 1.249 . S
O132 C131 1.264 . S
O133 Mg126 1.986 . S
O133 C137 1.246 . S
O134 Mg129 2.032 . S
O134 C137 1.259 . S
O135 Mg126 2.114 . S
O135 C138 1.252 . S
O136 Mg126 2.251 . S
O136 Mg129 2.079 . S
O136 C138 1.273 . S
C137 O133 1.246 . S
C137 O134 1.259 . S
C138 O135 1.252 . S
C138 O136 1.273 . S
O139 Mg126 2.010 . S
O139 C131 1.249 . S
Mg140 O141 2.028 . S
Mg140 O147 1.986 . S
Mg140 O149 2.106 1_545 S
Mg140 O150 2.251 1_545 S
Mg140 O153 2.010 . S
O141 Mg140 2.028 . S
O141 C144 1.250 . S
O142 Mg143 2.028 . S
O142 C144 1.248 . S
Mg143 O142 2.028 . S
Mg143 O148 2.032 . S
Mg143 O150 2.079 1_545 S
C144 O141 1.250 . S
C144 O142 1.248 . S
C145 O146 1.264 1_655 S
C145 O153 1.249 . S
O146 C145 1.264 1_455 S
O147 Mg140 1.986 . S
O147 C151 1.246 . S
O148 Mg143 2.032 . S
O148 C151 1.259 . S
O149 Mg140 2.106 1_565 S
O149 C152 1.258 . S
O150 Mg140 2.251 1_565 S
O150 Mg143 2.079 1_565 S
O150 C152 1.273 . S
C151 O147 1.246 . S
C151 O148 1.259 . S
C152 O149 1.258 . S
C152 O150 1.273 . S
O153 Mg140 2.010 . S
O153 C145 1.249 . S
Mg154 O155 2.028 . S
Mg154 O161 1.986 . S
Mg154 O163 2.114 . S
Mg154 O164 2.251 . S
Mg154 O167 2.010 . S
O155 Mg154 2.028 . S
O155 C158 1.250 . S
O156 Mg157 2.028 . S
O156 C158 1.248 . S
Mg157 O156 2.028 . S
Mg157 O162 2.032 . S
Mg157 O164 2.079 . S
C158 O155 1.250 . S
C158 O156 1.248 . S
C159 O160 1.264 . S
C159 O167 1.249 . S
O160 C159 1.264 . S
O161 Mg154 1.986 . S
O161 C165 1.246 . S
O162 Mg157 2.032 . S
O162 C165 1.259 . S
O163 Mg154 2.114 . S
O163 C166 1.252 . S
O164 Mg154 2.251 . S
O164 Mg157 2.079 . S
O164 C166 1.273 . S
C165 O161 1.246 . S
C165 O162 1.259 . S
C166 O163 1.252 . S
C166 O164 1.273 . S
O167 Mg154 2.010 . S
O167 C159 1.249 . S
Mg168 O169 2.028 . S
Mg168 O175 1.986 . S
Mg168 O177 2.106 1_545 S
Mg168 O178 2.251 1_545 S
Mg168 O181 2.010 . S
O169 Mg168 2.028 . S
O169 C172 1.250 . S
O170 Mg171 2.028 . S
O170 C172 1.248 . S
Mg171 O170 2.028 . S
Mg171 O176 2.032 . S
Mg171 O178 2.079 1_545 S
C172 O169 1.250 . S
C172 O170 1.248 . S
C173 O174 1.264 . S
C173 O181 1.249 . S
O174 C173 1.264 . S
O175 Mg168 1.986 . S
O175 C179 1.246 . S
O176 Mg171 2.032 . S
O176 C179 1.259 . S
O177 Mg168 2.106 1_565 S
O177 C180 1.258 . S
O178 Mg168 2.251 1_565 S
O178 Mg171 2.079 1_565 S
O178 C180 1.273 . S
C179 O175 1.246 . S
C179 O176 1.259 . S
C180 O177 1.258 . S
C180 O178 1.273 . S
O181 Mg168 2.010 . S
O181 C173 1.249 . S
Mg182 O183 2.028 . S
Mg182 O189 1.986 . S
Mg182 O191 2.114 . S
Mg182 O192 2.251 . S
Mg182 O195 2.010 . S
O183 Mg182 2.028 . S
O183 C186 1.250 . S
O184 Mg185 2.028 . S
O184 C186 1.248 . S
Mg185 O184 2.028 . S
Mg185 O190 2.032 . S
Mg185 O192 2.079 . S
C186 O183 1.250 . S
C186 O184 1.248 . S
C187 O188 1.264 . S
C187 O195 1.249 . S
O188 C187 1.264 . S
O189 Mg182 1.986 . S
O189 C193 1.246 . S
O190 Mg185 2.032 . S
O190 C193 1.259 . S
O191 Mg182 2.114 . S
O191 C194 1.252 . S
O192 Mg182 2.251 . S
O192 Mg185 2.079 . S
O192 C194 1.273 . S
C193 O189 1.246 . S
C193 O190 1.259 . S
C194 O191 1.252 . S
C194 O192 1.273 . S
O195 Mg182 2.010 . S
O195 C187 1.249 . S
Mg196 O197 2.028 . S
Mg196 O203 1.986 . S
Mg196 O205 2.106 1_565 S
Mg196 O206 2.251 1_565 S
Mg196 O209 2.010 . S
O197 Mg196 2.028 . S
O197 C200 1.250 . S
O198 Mg199 2.028 . S
O198 C200 1.248 . S
Mg199 O198 2.028 . S
Mg199 O204 2.032 . S
Mg199 O206 2.079 1_565 S
C200 O197 1.250 . S
C200 O198 1.248 . S
C201 O202 1.264 1_655 S
C201 O209 1.249 . S
O202 C201 1.264 1_455 S
O203 Mg196 1.986 . S
O203 C207 1.246 . S
O204 Mg199 2.032 . S
O204 C207 1.259 . S
O205 Mg196 2.106 1_545 S
O205 C208 1.258 . S
O206 Mg196 2.251 1_545 S
O206 Mg199 2.079 1_545 S
O206 C208 1.273 . S
C207 O203 1.246 . S
C207 O204 1.259 . S
C208 O205 1.258 . S
C208 O206 1.273 . S
O209 Mg196 2.010 . S
O209 C201 1.249 . S
Mg210 O211 2.028 . S
Mg210 O217 1.986 . S
Mg210 O219 2.114 . S
Mg210 O220 2.251 . S
Mg210 O223 2.010 . S
O211 Mg210 2.028 . S
O211 C214 1.250 . S
O212 Mg213 2.028 . S
O212 C214 1.248 . S
Mg213 O212 2.028 . S
Mg213 O218 2.032 . S
Mg213 O220 2.079 . S
C214 O211 1.250 . S
C214 O212 1.248 . S
C215 O216 1.264 . S
C215 O223 1.249 . S
O216 C215 1.264 . S
O217 Mg210 1.986 . S
O217 C221 1.246 . S
O218 Mg213 2.032 . S
O218 C221 1.259 . S
O219 Mg210 2.114 . S
O219 C222 1.252 . S
O220 Mg210 2.251 . S
O220 Mg213 2.079 . S
O220 C222 1.273 . S
C221 O217 1.246 . S
C221 O218 1.259 . S
C222 O219 1.252 . S
C222 O220 1.273 . S
O223 Mg210 2.010 . S
O223 C215 1.249 . S
Mg224 O225 2.028 . S
Mg224 O231 1.986 . S
Mg224 O233 2.114 . S
Mg224 O234 2.251 . S
Mg224 O237 2.010 . S
O225 Mg224 2.028 . S
O225 C228 1.250 . S
O226 Mg227 2.028 . S
O226 C228 1.248 . S
Mg227 O226 2.028 . S
Mg227 O232 2.032 . S
Mg227 O234 2.079 . S
C228 O225 1.250 . S
C228 O226 1.248 . S
C229 O230 1.264 1_655 S
C229 O237 1.249 . S
O230 C229 1.264 1_455 S
O231 Mg224 1.986 . S
O231 C235 1.246 . S
O232 Mg227 2.032 . S
O232 C235 1.259 . S
O233 Mg224 2.114 . S
O233 C236 1.252 . S
O234 Mg224 2.251 . S
O234 Mg227 2.079 . S
O234 C236 1.273 . S
C235 O231 1.246 . S
C235 O232 1.259 . S
C236 O233 1.252 . S
C236 O234 1.273 . S
O237 Mg224 2.010 . S
O237 C229 1.249 . S
Mg238 O239 2.028 . S
Mg238 O245 1.986 . S
Mg238 O247 2.114 . S
Mg238 O248 2.251 . S
Mg238 O251 2.010 . S
O239 Mg238 2.028 . S
O239 C242 1.250 . S
O240 Mg241 2.028 . S
O240 C242 1.248 . S
Mg241 O240 2.028 . S
Mg241 O246 2.032 . S
Mg241 O248 2.079 . S
C242 O239 1.250 . S
C242 O240 1.248 . S
C243 O244 1.264 . S
C243 O251 1.249 . S
O244 C243 1.264 . S
O245 Mg238 1.986 . S
O245 C249 1.246 . S
O246 Mg241 2.032 . S
O246 C249 1.259 . S
O247 Mg238 2.114 . S
O247 C250 1.252 . S
O248 Mg238 2.251 . S
O248 Mg241 2.079 . S
O248 C250 1.273 . S
C249 O245 1.246 . S
C249 O246 1.259 . S
C250 O247 1.252 . S
C250 O248 1.273 . S
O251 Mg238 2.010 . S
O251 C243 1.249 . S
Mg252 O253 2.028 . S
Mg252 O259 1.986 . S
Mg252 O261 2.114 . S
Mg252 O262 2.251 . S
Mg252 O265 2.010 . S
O253 Mg252 2.028 . S
O253 C256 1.250 . S
O254 Mg255 2.028 . S
O254 C256 1.248 . S
Mg255 O254 2.028 . S
Mg255 O260 2.032 . S
Mg255 O262 2.079 . S
C256 O253 1.250 . S
C256 O254 1.248 . S
C257 O258 1.264 . S
C257 O265 1.249 . S
O258 C257 1.264 . S
O259 Mg252 1.986 . S
O259 C263 1.246 . S
O260 Mg255 2.032 . S
O260 C263 1.259 . S
O261 Mg252 2.114 . S
O261 C264 1.252 . S
O262 Mg252 2.251 . S
O262 Mg255 2.079 . S
O262 C264 1.273 . S
C263 O259 1.246 . S
C263 O260 1.259 . S
C264 O261 1.252 . S
C264 O262 1.273 . S
O265 Mg252 2.010 . S
O265 C257 1.249 . S
Mg266 O267 2.028 . S
Mg266 O273 1.986 . S
Mg266 O275 2.114 . S
Mg266 O276 2.251 . S
Mg266 O279 2.010 . S
O267 Mg266 2.028 . S
O267 C270 1.250 . S
O268 Mg269 2.028 . S
O268 C270 1.248 . S
Mg269 O268 2.028 . S
Mg269 O274 2.032 . S
Mg269 O276 2.079 . S
C270 O267 1.250 . S
C270 O268 1.248 . S
C271 O272 1.264 . S
C271 O279 1.249 . S
O272 C271 1.264 . S
O273 Mg266 1.986 . S
O273 C277 1.246 . S
O274 Mg269 2.032 . S
O274 C277 1.259 . S
O275 Mg266 2.114 . S
O275 C278 1.252 . S
O276 Mg266 2.251 . S
O276 Mg269 2.079 . S
O276 C278 1.273 . S
C277 O273 1.246 . S
C277 O274 1.259 . S
C278 O275 1.252 . S
C278 O276 1.273 . S
O279 Mg266 2.010 . S
O279 C271 1.249 . S
Mg280 O281 2.028 . S
Mg280 O287 1.986 . S
Mg280 O289 2.114 . S
Mg280 O290 2.251 . S
Mg280 O293 2.010 . S
O281 Mg280 2.028 . S
O281 C284 1.250 . S
O282 Mg283 2.028 . S
O282 C284 1.248 . S
Mg283 O282 2.028 . S
Mg283 O288 2.032 . S
Mg283 O290 2.079 . S
C284 O281 1.250 . S
C284 O282 1.248 . S
C285 O286 1.264 1_655 S
C285 O293 1.249 . S
O286 C285 1.264 1_455 S
O287 Mg280 1.986 . S
O287 C291 1.246 . S
O288 Mg283 2.032 . S
O288 C291 1.259 . S
O289 Mg280 2.114 . S
O289 C292 1.252 . S
O290 Mg280 2.251 . S
O290 Mg283 2.079 . S
O290 C292 1.273 . S
C291 O287 1.246 . S
C291 O288 1.259 . S
C292 O289 1.252 . S
C292 O290 1.273 . S
O293 Mg280 2.010 . S
O293 C285 1.249 . S
Mg294 O295 2.028 . S
Mg294 O301 1.986 . S
Mg294 O303 2.114 . S
Mg294 O304 2.251 . S
Mg294 O307 2.010 . S
O295 Mg294 2.028 . S
O295 C298 1.250 . S
O296 Mg297 2.028 . S
O296 C298 1.248 . S
Mg297 O296 2.028 . S
Mg297 O302 2.032 . S
Mg297 O304 2.079 . S
C298 O295 1.250 . S
C298 O296 1.248 . S
C299 O300 1.264 . S
C299 O307 1.249 . S
O300 C299 1.264 . S
O301 Mg294 1.986 . S
O301 C305 1.246 . S
O302 Mg297 2.032 . S
O302 C305 1.259 . S
O303 Mg294 2.114 . S
O303 C306 1.252 . S
O304 Mg294 2.251 . S
O304 Mg297 2.079 . S
O304 C306 1.273 . S
C305 O301 1.246 . S
C305 O302 1.259 . S
C306 O303 1.252 . S
C306 O304 1.273 . S
O307 Mg294 2.010 . S
O307 C299 1.249 . S
Mg308 O309 2.028 . S
Mg308 O315 1.986 . S
Mg308 O317 2.114 . S
Mg308 O318 2.251 . S
Mg308 O321 2.010 . S
O309 Mg308 2.028 . S
O309 C312 1.250 . S
O310 Mg311 2.028 . S
O310 C312 1.248 . S
Mg311 O310 2.028 . S
Mg311 O316 2.032 . S
Mg311 O318 2.079 . S
C312 O309 1.250 . S
C312 O310 1.248 . S
C313 O314 1.264 . S
C313 O321 1.249 . S
O314 C313 1.264 . S
O315 Mg308 1.986 . S
O315 C319 1.246 . S
O316 Mg311 2.032 . S
O316 C319 1.259 . S
O317 Mg308 2.114 . S
O317 C320 1.252 . S
O318 Mg308 2.251 . S
O318 Mg311 2.079 . S
O318 C320 1.273 . S
C319 O315 1.246 . S
C319 O316 1.259 . S
C320 O317 1.252 . S
C320 O318 1.273 . S
O321 Mg308 2.010 . S
O321 C313 1.249 . S
Mg322 O323 2.028 . S
Mg322 O329 1.986 . S
Mg322 O331 2.114 . S
Mg322 O332 2.251 . S
Mg322 O335 2.010 . S
O323 Mg322 2.028 . S
O323 C326 1.250 . S
O324 Mg325 2.028 . S
O324 C326 1.248 . S
Mg325 O324 2.028 . S
Mg325 O330 2.032 . S
Mg325 O332 2.079 . S
C326 O323 1.250 . S
C326 O324 1.248 . S
C327 O328 1.264 . S
C327 O335 1.249 . S
O328 C327 1.264 . S
O329 Mg322 1.986 . S
O329 C333 1.246 . S
O330 Mg325 2.032 . S
O330 C333 1.259 . S
O331 Mg322 2.114 . S
O331 C334 1.252 . S
O332 Mg322 2.251 . S
O332 Mg325 2.079 . S
O332 C334 1.273 . S
C333 O329 1.246 . S
C333 O330 1.259 . S
C334 O331 1.252 . S
C334 O332 1.273 . S
O335 Mg322 2.010 . S
O335 C327 1.249 . S
Mg336 O337 2.028 . S
Mg336 O343 1.986 . S
Mg336 O345 2.114 . S
Mg336 O346 2.251 . S
Mg336 O349 2.010 . S
O337 Mg336 2.028 . S
O337 C340 1.250 . S
O338 Mg339 2.028 . S
O338 C340 1.248 . S
Mg339 O338 2.028 . S
Mg339 O344 2.032 . S
Mg339 O346 2.079 . S
C340 O337 1.250 . S
C340 O338 1.248 . S
C341 O342 1.264 1_455 S
C341 O349 1.249 . S
O342 C341 1.264 1_655 S
O343 Mg336 1.986 . S
O343 C347 1.246 . S
O344 Mg339 2.032 . S
O344 C347 1.259 . S
O345 Mg336 2.114 . S
O345 C348 1.252 . S
O346 Mg336 2.251 . S
O346 Mg339 2.079 . S
O346 C348 1.273 . S
C347 O343 1.246 . S
C347 O344 1.259 . S
C348 O345 1.252 . S
C348 O346 1.273 . S
O349 Mg336 2.010 . S
O349 C341 1.249 . S
Mg350 O351 2.028 . S
Mg350 O357 1.986 . S
Mg350 O359 2.114 . S
Mg350 O360 2.251 . S
Mg350 O363 2.010 . S
O351 Mg350 2.028 . S
O351 C354 1.250 . S
O352 Mg353 2.028 . S
O352 C354 1.248 . S
Mg353 O352 2.028 . S
Mg353 O358 2.032 . S
Mg353 O360 2.079 . S
C354 O351 1.250 . S
C354 O352 1.248 . S
C355 O356 1.264 . S
C355 O363 1.249 . S
O356 C355 1.264 . S
O357 Mg350 1.986 . S
O357 C361 1.246 . S
O358 Mg353 2.032 . S
O358 C361 1.259 . S
O359 Mg350 2.114 . S
O359 C362 1.252 . S
O360 Mg350 2.251 . S
O360 Mg353 2.079 . S
O360 C362 1.273 . S
C361 O357 1.246 . S
C361 O358 1.259 . S
C362 O359 1.252 . S
C362 O360 1.273 . S
O363 Mg350 2.010 . S
O363 C355 1.249 . S
Mg364 O365 2.028 . S
Mg364 O371 1.986 . S
Mg364 O373 2.114 . S
Mg364 O374 2.251 . S
Mg364 O377 2.010 . S
O365 Mg364 2.028 . S
O365 C368 1.250 . S
O366 Mg367 2.028 . S
O366 C368 1.248 . S
Mg367 O366 2.028 . S
Mg367 O372 2.032 . S
Mg367 O374 2.079 . S
C368 O365 1.250 . S
C368 O366 1.248 . S
C369 O370 1.264 . S
C369 O377 1.249 . S
O370 C369 1.264 . S
O371 Mg364 1.986 . S
O371 C375 1.246 . S
O372 Mg367 2.032 . S
O372 C375 1.259 . S
O373 Mg364 2.114 . S
O373 C376 1.252 . S
O374 Mg364 2.251 . S
O374 Mg367 2.079 . S
O374 C376 1.273 . S
C375 O371 1.246 . S
C375 O372 1.259 . S
C376 O373 1.252 . S
C376 O374 1.273 . S
O377 Mg364 2.010 . S
O377 C369 1.249 . S
Mg378 O379 2.028 . S
Mg378 O385 1.986 . S
Mg378 O387 2.114 . S
Mg378 O388 2.251 . S
Mg378 O391 2.010 . S
O379 Mg378 2.028 . S
O379 C382 1.250 . S
O380 Mg381 2.028 . S
O380 C382 1.248 . S
Mg381 O380 2.028 . S
Mg381 O386 2.032 . S
Mg381 O388 2.079 . S
C382 O379 1.250 . S
C382 O380 1.248 . S
C383 O384 1.264 . S
C383 O391 1.249 . S
O384 C383 1.264 . S
O385 Mg378 1.986 . S
O385 C389 1.246 . S
O386 Mg381 2.032 . S
O386 C389 1.259 . S
O387 Mg378 2.114 . S
O387 C390 1.252 . S
O388 Mg378 2.251 . S
O388 Mg381 2.079 . S
O388 C390 1.273 . S
C389 O385 1.246 . S
C389 O386 1.259 . S
C390 O387 1.252 . S
C390 O388 1.273 . S
O391 Mg378 2.010 . S
O391 C383 1.249 . S
Mg392 O393 2.028 . S
Mg392 O399 1.986 . S
Mg392 O401 2.114 . S
Mg392 O402 2.251 . S
Mg392 O405 2.010 . S
O393 Mg392 2.028 . S
O393 C396 1.250 . S
O394 Mg395 2.028 . S
O394 C396 1.248 . S
Mg395 O394 2.028 . S
Mg395 O400 2.032 . S
Mg395 O402 2.079 . S
C396 O393 1.250 . S
C396 O394 1.248 . S
C397 O398 1.264 1_455 S
C397 O405 1.249 . S
O398 C397 1.264 1_655 S
O399 Mg392 1.986 . S
O399 C403 1.246 . S
O400 Mg395 2.032 . S
O400 C403 1.259 . S
O401 Mg392 2.114 . S
O401 C404 1.252 . S
O402 Mg392 2.251 . S
O402 Mg395 2.079 . S
O402 C404 1.273 . S
C403 O399 1.246 . S
C403 O400 1.259 . S
C404 O401 1.252 . S
C404 O402 1.273 . S
O405 Mg392 2.010 . S
O405 C397 1.249 . S
Mg406 O407 2.028 . S
Mg406 O413 1.986 . S
Mg406 O415 2.114 . S
Mg406 O416 2.251 . S
Mg406 O419 2.010 . S
O407 Mg406 2.028 . S
O407 C410 1.250 . S
O408 Mg409 2.028 . S
O408 C410 1.248 . S
Mg409 O408 2.028 . S
Mg409 O414 2.032 . S
Mg409 O416 2.079 . S
C410 O407 1.250 . S
C410 O408 1.248 . S
C411 O412 1.264 . S
C411 O419 1.249 . S
O412 C411 1.264 . S
O413 Mg406 1.986 . S
O413 C417 1.246 . S
O414 Mg409 2.032 . S
O414 C417 1.259 . S
O415 Mg406 2.114 . S
O415 C418 1.252 . S
O416 Mg406 2.251 . S
O416 Mg409 2.079 . S
O416 C418 1.273 . S
C417 O413 1.246 . S
C417 O414 1.259 . S
C418 O415 1.252 . S
C418 O416 1.273 . S
O419 Mg406 2.010 . S
O419 C411 1.249 . S
Mg420 O421 2.028 . S
Mg420 O427 1.986 . S
Mg420 O429 2.114 . S
Mg420 O430 2.251 . S
Mg420 O433 2.010 . S
O421 Mg420 2.028 . S
O421 C424 1.250 . S
O422 Mg423 2.028 . S
O422 C424 1.248 . S
Mg423 O422 2.028 . S
Mg423 O428 2.032 . S
Mg423 O430 2.079 . S
C424 O421 1.250 . S
C424 O422 1.248 . S
C425 O426 1.264 . S
C425 O433 1.249 . S
O426 C425 1.264 . S
O427 Mg420 1.986 . S
O427 C431 1.246 . S
O428 Mg423 2.032 . S
O428 C431 1.259 . S
O429 Mg420 2.114 . S
O429 C432 1.252 . S
O430 Mg420 2.251 . S
O430 Mg423 2.079 . S
O430 C432 1.273 . S
C431 O427 1.246 . S
C431 O428 1.259 . S
C432 O429 1.252 . S
C432 O430 1.273 . S
O433 Mg420 2.010 . S
O433 C425 1.249 . S
Mg434 O435 2.028 . S
Mg434 O441 1.986 . S
Mg434 O443 2.114 . S
Mg434 O444 2.251 . S
Mg434 O447 2.010 . S
O435 Mg434 2.028 . S
O435 C438 1.250 . S
O436 Mg437 2.028 . S
O436 C438 1.248 . S
Mg437 O436 2.028 . S
Mg437 O442 2.032 . S
Mg437 O444 2.079 . S
C438 O435 1.250 . S
C438 O436 1.248 . S
C439 O440 1.264 . S
C439 O447 1.249 . S
O440 C439 1.264 . S
O441 Mg434 1.986 . S
O441 C445 1.246 . S
O442 Mg437 2.032 . S
O442 C445 1.259 . S
O443 Mg434 2.114 . S
O443 C446 1.252 . S
O444 Mg434 2.251 . S
O444 Mg437 2.079 . S
O444 C446 1.273 . S
C445 O441 1.246 . S
C445 O442 1.259 . S
C446 O443 1.252 . S
C446 O444 1.273 . S
O447 Mg434 2.010 . S
O447 C439 1.249 . S
C448 C449 1.349 . S
C448 C450 1.327 . S
C448 H473 0.950 . S
C449 C448 1.349 . S
C449 C465 1.349 . S
C450 C448 1.327 . S
C450 C469 1.429 . S
C450 H474 0.950 . S
C451 C468 1.574 . S
C451 C470 1.368 1_545 S
C451 H475 0.949 . S
H452 C456 0.949 . S
C453 C454 1.349 . S
C453 C455 1.327 . S
C453 H476 0.950 . S
C454 C453 1.349 . S
C454 C466 1.349 . S
C455 C453 1.327 . S
C455 C471 1.429 . S
C455 H477 0.950 . S
C456 H452 0.949 . S
C456 C464 1.574 . S
C456 C472 1.368 1_565 S
H457 C465 0.950 . S
H458 C463 0.950 . S
H459 C464 0.949 . S
H460 C466 0.950 . S
H461 C467 0.950 . S
H462 C468 0.949 . S
C463 H458 0.950 . S
C463 C465 1.327 . S
C463 C469 1.429 . S
C464 C456 1.574 . S
C464 H459 0.949 . S
C464 C470 1.368 . S
C465 C449 1.349 . S
C465 H457 0.950 . S
C465 C463 1.327 . S
C466 C454 1.349 . S
C466 H460 0.950 . S
C466 C467 1.327 . S
C467 H461 0.950 . S
C467 C466 1.327 . S
C467 C471 1.429 . S
C468 C451 1.574 . S
C468 H462 0.949 . S
C468 C472 1.368 . S
C469 C450 1.429 . S
C469 C463 1.429 . S
C469 C470 1.523 . S
C470 C451 1.368 1_565 S
C470 C464 1.368 . S
C470 C469 1.523 . S
C471 C455 1.429 . S
C471 C467 1.429 . S
C471 C472 1.523 . S
C472 C456 1.368 1_545 S
C472 C468 1.368 . S
C472 C471 1.523 . S
H473 C448 0.950 . S
H474 C450 0.950 . S
H475 C451 0.949 . S
H476 C453 0.950 . S
H477 C455 0.950 . S
C478 C479 1.349 . S
C478 C480 1.327 . S
C478 H503 0.950 . S
C479 C478 1.349 . S
C479 C495 1.349 . S
C480 C478 1.327 . S
C480 C499 1.429 . S
C480 H504 0.950 . S
C481 C498 1.574 . S
C481 C500 1.368 . S
C481 H505 0.949 . S
H482 C486 0.949 . S
C483 C484 1.349 . S
C483 C485 1.327 . S
C483 H506 0.950 . S
C484 C483 1.349 . S
C484 C496 1.349 . S
C485 C483 1.327 . S
C485 C501 1.429 . S
C485 H507 0.950 . S
C486 H482 0.949 . S
C486 C494 1.574 . S
C486 C502 1.368 . S
H487 C495 0.950 . S
H488 C493 0.950 . S
H489 C494 0.949 . S
H490 C496 0.950 . S
H491 C497 0.950 . S
H492 C498 0.949 . S
C493 H488 0.950 . S
C493 C495 1.327 . S
C493 C499 1.429 . S
C494 C486 1.574 . S
C494 H489 0.949 . S
C494 C500 1.368 . S
C495 C479 1.349 . S
C495 H487 0.950 . S
C495 C493 1.327 . S
C496 C484 1.349 . S
C496 H490 0.950 . S
C496 C497 1.327 . S
C497 H491 0.950 . S
C497 C496 1.327 . S
C497 C501 1.429 . S
C498 C481 1.574 . S
C498 H492 0.949 . S
C498 C502 1.368 . S
C499 C480 1.429 . S
C499 C493 1.429 . S
C499 C500 1.523 . S
C500 C481 1.368 . S
C500 C494 1.368 . S
C500 C499 1.523 . S
C501 C485 1.429 . S
C501 C497 1.429 . S
C501 C502 1.523 . S
C502 C486 1.368 . S
C502 C498 1.368 . S
C502 C501 1.523 . S
H503 C478 0.950 . S
H504 C480 0.950 . S
H505 C481 0.949 . S
H506 C483 0.950 . S
H507 C485 0.950 . S
C508 C509 1.349 . S
C508 C510 1.327 . S
C508 H533 0.950 . S
C509 C508 1.349 . S
C509 C525 1.349 . S
C510 C508 1.327 . S
C510 C529 1.429 . S
C510 H534 0.950 . S
C511 C528 1.574 . S
C511 C530 1.368 1_565 S
C511 H535 0.949 . S
H512 C516 0.949 . S
C513 C514 1.349 . S
C513 C515 1.327 . S
C513 H536 0.950 . S
C514 C513 1.349 . S
C514 C526 1.349 . S
C515 C513 1.327 . S
C515 C531 1.429 . S
C515 H537 0.950 . S
C516 H512 0.949 . S
C516 C524 1.574 . S
C516 C532 1.368 1_545 S
H517 C525 0.950 . S
H518 C523 0.950 1_565 S
H519 C524 0.949 . S
H520 C526 0.950 . S
H521 C527 0.950 1_545 S
H522 C528 0.949 . S
C523 H518 0.950 1_545 S
C523 C525 1.327 . S
C523 C529 1.429 . S
C524 C516 1.574 . S
C524 H519 0.949 . S
C524 C530 1.368 . S
C525 C509 1.349 . S
C525 H517 0.950 . S
C525 C523 1.327 . S
C526 C514 1.349 . S
C526 H520 0.950 . S
C526 C527 1.327 . S
C527 H521 0.950 1_565 S
C527 C526 1.327 . S
C527 C531 1.429 . S
C528 C511 1.574 . S
C528 H522 0.949 . S
C528 C532 1.368 . S
C529 C510 1.429 . S
C529 C523 1.429 . S
C529 C530 1.523 . S
C530 C511 1.368 1_545 S
C530 C524 1.368 . S
C530 C529 1.523 . S
C531 C515 1.429 . S
C531 C527 1.429 . S
C531 C532 1.523 . S
C532 C516 1.368 1_565 S
C532 C528 1.368 . S
C532 C531 1.523 . S
H533 C508 0.950 . S
H534 C510 0.950 . S
H535 C511 0.949 . S
H536 C513 0.950 . S
H537 C515 0.950 . S
C538 C539 1.349 . S
C538 C540 1.327 . S
C538 H563 0.950 . S
C539 C538 1.349 . S
C539 C555 1.349 . S
C540 C538 1.327 . S
C540 C559 1.429 . S
C540 H564 0.950 . S
C541 C558 1.574 1_556 S
C541 C560 1.368 . S
C541 H565 0.949 . S
H542 C546 0.949 . S
C543 C544 1.349 . S
C543 C545 1.327 . S
C543 H566 0.950 . S
C544 C543 1.349 . S
C544 C556 1.349 . S
C545 C543 1.327 . S
C545 C561 1.429 . S
C545 H567 0.950 . S
C546 H542 0.949 . S
C546 C554 1.574 1_554 S
C546 C562 1.368 . S
H547 C555 0.950 . S
H548 C553 0.950 . S
H549 C554 0.949 . S
H550 C556 0.950 . S
H551 C557 0.950 . S
H552 C558 0.949 . S
C553 H548 0.950 . S
C553 C555 1.327 . S
C553 C559 1.429 . S
C554 C546 1.574 1_556 S
C554 H549 0.949 . S
C554 C560 1.368 . S
C555 C539 1.349 . S
C555 H547 0.950 . S
C555 C553 1.327 . S
C556 C544 1.349 . S
C556 H550 0.950 . S
C556 C557 1.327 . S
C557 H551 0.950 . S
C557 C556 1.327 . S
C557 C561 1.429 . S
C558 C541 1.574 1_554 S
C558 H552 0.949 . S
C558 C562 1.368 . S
C559 C540 1.429 . S
C559 C553 1.429 . S
C559 C560 1.523 . S
C560 C541 1.368 . S
C560 C554 1.368 . S
C560 C559 1.523 . S
C561 C545 1.429 . S
C561 C557 1.429 . S
C561 C562 1.523 . S
C562 C546 1.368 . S
C562 C558 1.368 . S
C562 C561 1.523 . S
H563 C538 0.950 . S
H564 C540 0.950 . S
H565 C541 0.949 . S
H566 C543 0.950 . S
H567 C545 0.950 . S
C568 C569 1.349 . S
C568 C570 1.327 . S
C568 H593 0.950 . S
C569 C568 1.349 . S
C569 C585 1.349 . S
C570 C568 1.327 . S
C570 C589 1.429 . S
C570 H594 0.950 . S
C571 C588 1.574 . S
C571 C590 1.368 1_545 S
C571 H595 0.949 . S
H572 C576 0.949 . S
C573 C574 1.349 . S
C573 C575 1.327 . S
C573 H596 0.950 . S
C574 C573 1.349 . S
C574 C586 1.349 . S
C575 C573 1.327 . S
C575 C591 1.429 . S
C575 H597 0.950 . S
C576 H572 0.949 . S
C576 C584 1.574 . S
C576 C592 1.368 1_565 S
H577 C585 0.950 1_545 S
H578 C583 0.950 . S
H579 C584 0.949 . S
H580 C586 0.950 1_565 S
H581 C587 0.950 . S
H582 C588 0.949 . S
C583 H578 0.950 . S
C583 C585 1.327 1_545 S
C583 C589 1.429 1_545 S
C584 C576 1.574 . S
C584 H579 0.949 . S
C584 C590 1.368 . S
C585 C569 1.349 . S
C585 H577 0.950 1_565 S
C585 C583 1.327 1_565 S
C586 C574 1.349 . S
C586 H580 0.950 1_545 S
C586 C587 1.327 1_545 S
C587 H581 0.950 . S
C587 C586 1.327 1_565 S
C587 C591 1.429 1_565 S
C588 C571 1.574 . S
C588 H582 0.949 . S
C588 C592 1.368 . S
C589 C570 1.429 . S
C589 C583 1.429 1_565 S
C589 C590 1.523 . S
C590 C571 1.368 1_565 S
C590 C584 1.368 . S
C590 C589 1.523 . S
C591 C575 1.429 . S
C591 C587 1.429 1_545 S
C591 C592 1.523 . S
C592 C576 1.368 1_545 S
C592 C588 1.368 . S
C592 C591 1.523 . S
H593 C568 0.950 . S
H594 C570 0.950 . S
H595 C571 0.949 . S
H596 C573 0.950 . S
H597 C575 0.950 . S
C598 C599 1.349 . S
C598 C600 1.327 . S
C598 H623 0.950 . S
C599 C598 1.349 . S
C599 C615 1.349 . S
C600 C598 1.327 . S
C600 C619 1.429 . S
C600 H624 0.950 . S
C601 C618 1.574 . S
C601 C620 1.368 . S
C601 H625 0.949 . S
H602 C606 0.949 . S
C603 C604 1.349 . S
C603 C605 1.327 . S
C603 H626 0.950 . S
C604 C603 1.349 . S
C604 C616 1.349 . S
C605 C603 1.327 . S
C605 C621 1.429 . S
C605 H627 0.950 . S
C606 H602 0.949 . S
C606 C614 1.574 . S
C606 C622 1.368 . S
H607 C615 0.950 . S
H608 C613 0.950 . S
H609 C614 0.949 . S
H610 C616 0.950 . S
H611 C617 0.950 . S
H612 C618 0.949 . S
C613 H608 0.950 . S
C613 C615 1.327 . S
C613 C619 1.429 . S
C614 C606 1.574 . S
C614 H609 0.949 . S
C614 C620 1.368 . S
C615 C599 1.349 . S
C615 H607 0.950 . S
C615 C613 1.327 . S
C616 C604 1.349 . S
C616 H610 0.950 . S
C616 C617 1.327 . S
C617 H611 0.950 . S
C617 C616 1.327 . S
C617 C621 1.429 . S
C618 C601 1.574 . S
C618 H612 0.949 . S
C618 C622 1.368 . S
C619 C600 1.429 . S
C619 C613 1.429 . S
C619 C620 1.523 . S
C620 C601 1.368 . S
C620 C614 1.368 . S
C620 C619 1.523 . S
C621 C605 1.429 . S
C621 C617 1.429 . S
C621 C622 1.523 . S
C622 C606 1.368 . S
C622 C618 1.368 . S
C622 C621 1.523 . S
H623 C598 0.950 . S
H624 C600 0.950 . S
H625 C601 0.949 . S
H626 C603 0.950 . S
H627 C605 0.950 . S
C628 C629 1.349 . S
C628 C630 1.327 . S
C628 H653 0.950 . S
C629 C628 1.349 . S
C629 C645 1.349 1_545 S
C630 C628 1.327 . S
C630 C649 1.429 . S
C630 H654 0.950 . S
C631 C648 1.574 . S
C631 C650 1.368 1_565 S
C631 H655 0.949 . S
H632 C636 0.949 . S
C633 C634 1.349 . S
C633 C635 1.327 . S
C633 H656 0.950 . S
C634 C633 1.349 . S
C634 C646 1.349 1_565 S
C635 C633 1.327 . S
C635 C651 1.429 . S
C635 H657 0.950 . S
C636 H632 0.949 . S
C636 C644 1.574 . S
C636 C652 1.368 1_545 S
H637 C645 0.950 . S
H638 C643 0.950 . S
H639 C644 0.949 . S
H640 C646 0.950 . S
H641 C647 0.950 . S
H642 C648 0.949 . S
C643 H638 0.950 . S
C643 C645 1.327 . S
C643 C649 1.429 1_565 S
C644 C636 1.574 . S
C644 H639 0.949 . S
C644 C650 1.368 . S
C645 C629 1.349 1_565 S
C645 H637 0.950 . S
C645 C643 1.327 . S
C646 C634 1.349 1_545 S
C646 H640 0.950 . S
C646 C647 1.327 . S
C647 H641 0.950 . S
C647 C646 1.327 . S
C647 C651 1.429 1_545 S
C648 C631 1.574 . S
C648 H642 0.949 . S
C648 C652 1.368 . S
C649 C630 1.429 . S
C649 C643 1.429 1_545 S
C649 C650 1.523 . S
C650 C631 1.368 1_545 S
C650 C644 1.368 . S
C650 C649 1.523 . S
C651 C635 1.429 . S
C651 C647 1.429 1_565 S
C651 C652 1.523 . S
C652 C636 1.368 1_565 S
C652 C648 1.368 . S
C652 C651 1.523 . S
H653 C628 0.950 . S
H654 C630 0.950 . S
H655 C631 0.949 . S
H656 C633 0.950 . S
H657 C635 0.950 . S
C658 C659 1.349 . S
C658 C660 1.327 . S
C658 H683 0.950 . S
C659 C658 1.349 . S
C659 C675 1.349 . S
C660 C658 1.327 . S
C660 C679 1.429 . S
C660 H684 0.950 . S
C661 C678 1.574 1_556 S
C661 C680 1.368 . S
C661 H685 0.949 . S
H662 C666 0.949 . S
C663 C664 1.349 . S
C663 C665 1.327 . S
C663 H686 0.950 . S
C664 C663 1.349 . S
C664 C676 1.349 . S
C665 C663 1.327 . S
C665 C681 1.429 . S
C665 H687 0.950 . S
C666 H662 0.949 . S
C666 C674 1.574 1_554 S
C666 C682 1.368 . S
H667 C675 0.950 . S
H668 C673 0.950 . S
H669 C674 0.949 . S
H670 C676 0.950 . S
H671 C677 0.950 . S
H672 C678 0.949 . S
C673 H668 0.950 . S
C673 C675 1.327 . S
C673 C679 1.429 . S
C674 C666 1.574 1_556 S
C674 H669 0.949 . S
C674 C680 1.368 . S
C675 C659 1.349 . S
C675 H667 0.950 . S
C675 C673 1.327 . S
C676 C664 1.349 . S
C676 H670 0.950 . S
C676 C677 1.327 . S
C677 H671 0.950 . S
C677 C676 1.327 . S
C677 C681 1.429 . S
C678 C661 1.574 1_554 S
C678 H672 0.949 . S
C678 C682 1.368 . S
C679 C660 1.429 . S
C679 C673 1.429 . S
C679 C680 1.523 . S
C680 C661 1.368 . S
C680 C674 1.368 . S
C680 C679 1.523 . S
C681 C665 1.429 . S
C681 C677 1.429 . S
C681 C682 1.523 . S
C682 C666 1.368 . S
C682 C678 1.368 . S
C682 C681 1.523 . S
H683 C658 0.950 . S
H684 C660 0.950 . S
H685 C661 0.949 . S
H686 C663 0.950 . S
H687 C665 0.950 . S
C688 C689 1.349 . S
C688 C690 1.327 . S
C688 H713 0.950 . S
C689 C688 1.349 . S
C689 C705 1.349 . S
C690 C688 1.327 . S
C690 C709 1.429 . S
C690 H714 0.950 . S
C691 C708 1.574 . S
C691 C710 1.368 . S
C691 H715 0.949 . S
H692 C696 0.949 . S
C693 C694 1.349 . S
C693 C695 1.327 . S
C693 H716 0.950 . S
C694 C693 1.349 . S
C694 C706 1.349 . S
C695 C693 1.327 . S
C695 C711 1.429 . S
C695 H717 0.950 . S
C696 H692 0.949 . S
C696 C704 1.574 . S
C696 C712 1.368 . S
H697 C705 0.950 . S
H698 C703 0.950 . S
H699 C704 0.949 . S
H700 C706 0.950 . S
H701 C707 0.950 . S
H702 C708 0.949 . S
C703 H698 0.950 . S
C703 C705 1.327 . S
C703 C709 1.429 . S
C704 C696 1.574 . S
C704 H699 0.949 . S
C704 C710 1.368 . S
C705 C689 1.349 . S
C705 H697 0.950 . S
C705 C703 1.327 . S
C706 C694 1.349 . S
C706 H700 0.950 . S
C706 C707 1.327 . S
C707 H701 0.950 . S
C707 C706 1.327 . S
C707 C711 1.429 . S
C708 C691 1.574 . S
C708 H702 0.949 . S
C708 C712 1.368 . S
C709 C690 1.429 . S
C709 C703 1.429 . S
C709 C710 1.523 . S
C710 C691 1.368 . S
C710 C704 1.368 . S
C710 C709 1.523 . S
C711 C695 1.429 . S
C711 C707 1.429 . S
C711 C712 1.523 . S
C712 C696 1.368 . S
C712 C708 1.368 . S
C712 C711 1.523 . S
H713 C688 0.950 . S
H714 C690 0.950 . S
H715 C691 0.949 . S
H716 C693 0.950 . S
H717 C695 0.950 . S
C718 C719 1.349 . S
C718 C720 1.327 . S
C718 H743 0.950 . S
C719 C718 1.349 . S
C719 C735 1.349 . S
C720 C718 1.327 . S
C720 C739 1.429 . S
C720 H744 0.950 . S
C721 C738 1.574 1_554 S
C721 C740 1.368 . S
C721 H745 0.949 . S
H722 C726 0.949 . S
C723 C724 1.349 . S
C723 C725 1.327 . S
C723 H746 0.950 . S
C724 C723 1.349 . S
C724 C736 1.349 . S
C725 C723 1.327 . S
C725 C741 1.429 . S
C725 H747 0.950 . S
C726 H722 0.949 . S
C726 C734 1.574 1_556 S
C726 C742 1.368 . S
H727 C735 0.950 . S
H728 C733 0.950 . S
H729 C734 0.949 . S
H730 C736 0.950 . S
H731 C737 0.950 . S
H732 C738 0.949 . S
C733 H728 0.950 . S
C733 C735 1.327 . S
C733 C739 1.429 . S
C734 C726 1.574 1_554 S
C734 H729 0.949 . S
C734 C740 1.368 . S
C735 C719 1.349 . S
C735 H727 0.950 . S
C735 C733 1.327 . S
C736 C724 1.349 . S
C736 H730 0.950 . S
C736 C737 1.327 . S
C737 H731 0.950 . S
C737 C736 1.327 . S
C737 C741 1.429 . S
C738 C721 1.574 1_556 S
C738 H732 0.949 . S
C738 C742 1.368 . S
C739 C720 1.429 . S
C739 C733 1.429 . S
C739 C740 1.523 . S
C740 C721 1.368 . S
C740 C734 1.368 . S
C740 C739 1.523 . S
C741 C725 1.429 . S
C741 C737 1.429 . S
C741 C742 1.523 . S
C742 C726 1.368 . S
C742 C738 1.368 . S
C742 C741 1.523 . S
H743 C718 0.950 . S
H744 C720 0.950 . S
H745 C721 0.949 . S
H746 C723 0.950 . S
H747 C725 0.950 . S
C748 C749 1.349 . S
C748 C750 1.327 . S
C748 H773 0.950 . S
C749 C748 1.349 . S
C749 C765 1.349 . S
C750 C748 1.327 . S
C750 C769 1.429 . S
C750 H774 0.950 . S
C751 C768 1.574 . S
C751 C770 1.368 . S
C751 H775 0.949 . S
H752 C756 0.949 . S
C753 C754 1.349 . S
C753 C755 1.327 . S
C753 H776 0.950 . S
C754 C753 1.349 . S
C754 C766 1.349 . S
C755 C753 1.327 . S
C755 C771 1.429 . S
C755 H777 0.950 . S
C756 H752 0.949 . S
C756 C764 1.574 . S
C756 C772 1.368 . S
H757 C765 0.950 . S
H758 C763 0.950 . S
H759 C764 0.949 . S
H760 C766 0.950 . S
H761 C767 0.950 . S
H762 C768 0.949 . S
C763 H758 0.950 . S
C763 C765 1.327 . S
C763 C769 1.429 . S
C764 C756 1.574 . S
C764 H759 0.949 . S
C764 C770 1.368 . S
C765 C749 1.349 . S
C765 H757 0.950 . S
C765 C763 1.327 . S
C766 C754 1.349 . S
C766 H760 0.950 . S
C766 C767 1.327 . S
C767 H761 0.950 . S
C767 C766 1.327 . S
C767 C771 1.429 . S
C768 C751 1.574 . S
C768 H762 0.949 . S
C768 C772 1.368 . S
C769 C750 1.429 . S
C769 C763 1.429 . S
C769 C770 1.523 . S
C770 C751 1.368 . S
C770 C764 1.368 . S
C770 C769 1.523 . S
C771 C755 1.429 . S
C771 C767 1.429 . S
C771 C772 1.523 . S
C772 C756 1.368 . S
C772 C768 1.368 . S
C772 C771 1.523 . S
H773 C748 0.950 . S
H774 C750 0.950 . S
H775 C751 0.949 . S
H776 C753 0.950 . S
H777 C755 0.950 . S
C778 C779 1.349 . S
C778 C780 1.327 . S
C778 H803 0.950 . S
C779 C778 1.349 . S
C779 C795 1.349 . S
C780 C778 1.327 . S
C780 C799 1.429 . S
C780 H804 0.950 . S
C781 C798 1.574 . S
C781 C800 1.368 . S
C781 H805 0.949 . S
H782 C786 0.949 . S
C783 C784 1.349 . S
C783 C785 1.327 . S
C783 H806 0.950 . S
C784 C783 1.349 . S
C784 C796 1.349 . S
C785 C783 1.327 . S
C785 C801 1.429 . S
C785 H807 0.950 . S
C786 H782 0.949 . S
C786 C794 1.574 . S
C786 C802 1.368 . S
H787 C795 0.950 . S
H788 C793 0.950 . S
H789 C794 0.949 . S
H790 C796 0.950 . S
H791 C797 0.950 . S
H792 C798 0.949 . S
C793 H788 0.950 . S
C793 C795 1.327 . S
C793 C799 1.429 . S
C794 C786 1.574 . S
C794 H789 0.949 . S
C794 C800 1.368 . S
C795 C779 1.349 . S
C795 H787 0.950 . S
C795 C793 1.327 . S
C796 C784 1.349 . S
C796 H790 0.950 . S
C796 C797 1.327 . S
C797 H791 0.950 . S
C797 C796 1.327 . S
C797 C801 1.429 . S
C798 C781 1.574 . S
C798 H792 0.949 . S
C798 C802 1.368 . S
C799 C780 1.429 . S
C799 C793 1.429 . S
C799 C800 1.523 . S
C800 C781 1.368 . S
C800 C794 1.368 . S
C800 C799 1.523 . S
C801 C785 1.429 . S
C801 C797 1.429 . S
C801 C802 1.523 . S
C802 C786 1.368 . S
C802 C798 1.368 . S
C802 C801 1.523 . S
H803 C778 0.950 . S
H804 C780 0.950 . S
H805 C781 0.949 . S
H806 C783 0.950 . S
H807 C785 0.950 . S
C808 C809 1.349 . S
C808 C810 1.327 . S
C808 H833 0.950 . S
C809 C808 1.349 . S
C809 C825 1.349 . S
C810 C808 1.327 . S
C810 C829 1.429 . S
C810 H834 0.950 . S
C811 C828 1.574 . S
C811 C830 1.368 . S
C811 H835 0.949 . S
H812 C816 0.949 . S
C813 C814 1.349 . S
C813 C815 1.327 . S
C813 H836 0.950 . S
C814 C813 1.349 . S
C814 C826 1.349 . S
C815 C813 1.327 . S
C815 C831 1.429 . S
C815 H837 0.950 . S
C816 H812 0.949 . S
C816 C824 1.574 . S
C816 C832 1.368 . S
H817 C825 0.950 . S
H818 C823 0.950 . S
H819 C824 0.949 . S
H820 C826 0.950 . S
H821 C827 0.950 . S
H822 C828 0.949 . S
C823 H818 0.950 . S
C823 C825 1.327 . S
C823 C829 1.429 . S
C824 C816 1.574 . S
C824 H819 0.949 . S
C824 C830 1.368 . S
C825 C809 1.349 . S
C825 H817 0.950 . S
C825 C823 1.327 . S
C826 C814 1.349 . S
C826 H820 0.950 . S
C826 C827 1.327 . S
C827 H821 0.950 . S
C827 C826 1.327 . S
C827 C831 1.429 . S
C828 C811 1.574 . S
C828 H822 0.949 . S
C828 C832 1.368 . S
C829 C810 1.429 . S
C829 C823 1.429 . S
C829 C830 1.523 . S
C830 C811 1.368 . S
C830 C824 1.368 . S
C830 C829 1.523 . S
C831 C815 1.429 . S
C831 C827 1.429 . S
C831 C832 1.523 . S
C832 C816 1.368 . S
C832 C828 1.368 . S
C832 C831 1.523 . S
H833 C808 0.950 . S
H834 C810 0.950 . S
H835 C811 0.949 . S
H836 C813 0.950 . S
H837 C815 0.950 . S
C838 C839 1.349 . S
C838 C840 1.327 . S
C838 H863 0.950 . S
C839 C838 1.349 . S
C839 C855 1.349 . S
C840 C838 1.327 . S
C840 C859 1.429 . S
C840 H864 0.950 . S
C841 C858 1.574 1_554 S
C841 C860 1.368 . S
C841 H865 0.949 . S
H842 C846 0.949 . S
C843 C844 1.349 . S
C843 C845 1.327 . S
C843 H866 0.950 . S
C844 C843 1.349 . S
C844 C856 1.349 . S
C845 C843 1.327 . S
C845 C861 1.429 . S
C845 H867 0.950 . S
C846 H842 0.949 . S
C846 C854 1.574 1_556 S
C846 C862 1.368 . S
H847 C855 0.950 . S
H848 C853 0.950 . S
H849 C854 0.949 . S
H850 C856 0.950 . S
H851 C857 0.950 . S
H852 C858 0.949 . S
C853 H848 0.950 . S
C853 C855 1.327 . S
C853 C859 1.429 . S
C854 C846 1.574 1_554 S
C854 H849 0.949 . S
C854 C860 1.368 . S
C855 C839 1.349 . S
C855 H847 0.950 . S
C855 C853 1.327 . S
C856 C844 1.349 . S
C856 H850 0.950 . S
C856 C857 1.327 . S
C857 H851 0.950 . S
C857 C856 1.327 . S
C857 C861 1.429 . S
C858 C841 1.574 1_556 S
C858 H852 0.949 . S
C858 C862 1.368 . S
C859 C840 1.429 . S
C859 C853 1.429 . S
C859 C860 1.523 . S
C860 C841 1.368 . S
C860 C854 1.368 . S
C860 C859 1.523 . S
C861 C845 1.429 . S
C861 C857 1.429 . S
C861 C862 1.523 . S
C862 C846 1.368 . S
C862 C858 1.368 . S
C862 C861 1.523 . S
H863 C838 0.950 . S
H864 C840 0.950 . S
H865 C841 0.949 . S
H866 C843 0.950 . S
H867 C845 0.950 . S
C868 C869 1.349 . S
C868 C870 1.327 . S
C868 H893 0.950 . S
C869 C868 1.349 . S
C869 C885 1.349 . S
C870 C868 1.327 . S
C870 C889 1.429 . S
C870 H894 0.950 . S
C871 C888 1.574 . S
C871 C890 1.368 . S
C871 H895 0.949 . S
H872 C876 0.949 . S
C873 C874 1.349 . S
C873 C875 1.327 . S
C873 H896 0.950 . S
C874 C873 1.349 . S
C874 C886 1.349 . S
C875 C873 1.327 . S
C875 C891 1.429 . S
C875 H897 0.950 . S
C876 H872 0.949 . S
C876 C884 1.574 . S
C876 C892 1.368 . S
H877 C885 0.950 . S
H878 C883 0.950 . S
H879 C884 0.949 . S
H880 C886 0.950 . S
H881 C887 0.950 . S
H882 C888 0.949 . S
C883 H878 0.950 . S
C883 C885 1.327 . S
C883 C889 1.429 . S
C884 C876 1.574 . S
C884 H879 0.949 . S
C884 C890 1.368 . S
C885 C869 1.349 . S
C885 H877 0.950 . S
C885 C883 1.327 . S
C886 C874 1.349 . S
C886 H880 0.950 . S
C886 C887 1.327 . S
C887 H881 0.950 . S
C887 C886 1.327 . S
C887 C891 1.429 . S
C888 C871 1.574 . S
C888 H882 0.949 . S
C888 C892 1.368 . S
C889 C870 1.429 . S
C889 C883 1.429 . S
C889 C890 1.523 . S
C890 C871 1.368 . S
C890 C884 1.368 . S
C890 C889 1.523 . S
C891 C875 1.429 . S
C891 C887 1.429 . S
C891 C892 1.523 . S
C892 C876 1.368 . S
C892 C888 1.368 . S
C892 C891 1.523 . S
H893 C868 0.950 . S
H894 C870 0.950 . S
H895 C871 0.949 . S
H896 C873 0.950 . S
H897 C875 0.950 . S
C898 C899 1.349 . S
C898 C900 1.327 . S
C898 H923 0.950 . S
C899 C898 1.349 . S
C899 C915 1.349 . S
C900 C898 1.327 . S
C900 C919 1.429 . S
C900 H924 0.950 . S
C901 C918 1.574 . S
C901 C920 1.368 . S
C901 H925 0.949 . S
H902 C906 0.949 . S
C903 C904 1.349 . S
C903 C905 1.327 . S
C903 H926 0.950 . S
C904 C903 1.349 . S
C904 C916 1.349 . S
C905 C903 1.327 . S
C905 C921 1.429 . S
C905 H927 0.950 . S
C906 H902 0.949 . S
C906 C914 1.574 . S
C906 C922 1.368 . S
H907 C915 0.950 . S
H908 C913 0.950 . S
H909 C914 0.949 . S
H910 C916 0.950 . S
H911 C917 0.950 . S
H912 C918 0.949 . S
C913 H908 0.950 . S
C913 C915 1.327 . S
C913 C919 1.429 . S
C914 C906 1.574 . S
C914 H909 0.949 . S
C914 C920 1.368 . S
C915 C899 1.349 . S
C915 H907 0.950 . S
C915 C913 1.327 . S
C916 C904 1.349 . S
C916 H910 0.950 . S
C916 C917 1.327 . S
C917 H911 0.950 . S
C917 C916 1.327 . S
C917 C921 1.429 . S
C918 C901 1.574 . S
C918 H912 0.949 . S
C918 C922 1.368 . S
C919 C900 1.429 . S
C919 C913 1.429 . S
C919 C920 1.523 . S
C920 C901 1.368 . S
C920 C914 1.368 . S
C920 C919 1.523 . S
C921 C905 1.429 . S
C921 C917 1.429 . S
C921 C922 1.523 . S
C922 C906 1.368 . S
C922 C918 1.368 . S
C922 C921 1.523 . S
H923 C898 0.950 . S
H924 C900 0.950 . S
H925 C901 0.949 . S
H926 C903 0.950 . S
H927 C905 0.950 . S
C928 C929 1.349 . S
C928 C930 1.327 . S
C928 H953 0.950 1_565 S
C929 C928 1.349 . S
C929 C945 1.349 . S
C930 C928 1.327 . S
C930 C949 1.429 . S
C930 H954 0.950 . S
C931 C948 1.574 . S
C931 C950 1.368 . S
C931 H955 0.949 . S
H932 C936 0.949 . S
C933 C934 1.349 . S
C933 C935 1.327 . S
C933 H956 0.950 . S
C934 C933 1.349 . S
C934 C946 1.349 . S
C935 C933 1.327 . S
C935 C951 1.429 . S
C935 H957 0.950 . S
C936 H932 0.949 . S
C936 C944 1.574 . S
C936 C952 1.368 . S
H937 C945 0.950 . S
H938 C943 0.950 . S
H939 C944 0.949 . S
H940 C946 0.950 . S
H941 C947 0.950 . S
H942 C948 0.949 . S
C943 H938 0.950 . S
C943 C945 1.327 . S
C943 C949 1.429 . S
C944 C936 1.574 . S
C944 H939 0.949 . S
C944 C950 1.368 . S
C945 C929 1.349 . S
C945 H937 0.950 . S
C945 C943 1.327 . S
C946 C934 1.349 . S
C946 H940 0.950 . S
C946 C947 1.327 . S
C947 H941 0.950 . S
C947 C946 1.327 . S
C947 C951 1.429 . S
C948 C931 1.574 . S
C948 H942 0.949 . S
C948 C952 1.368 . S
C949 C930 1.429 . S
C949 C943 1.429 . S
C949 C950 1.523 . S
C950 C931 1.368 . S
C950 C944 1.368 . S
C950 C949 1.523 . S
C951 C935 1.429 . S
C951 C947 1.429 . S
C951 C952 1.523 . S
C952 C936 1.368 . S
C952 C948 1.368 . S
C952 C951 1.523 . S
H953 C928 0.950 1_545 S
H954 C930 0.950 . S
H955 C931 0.949 . S
H956 C933 0.950 . S
H957 C935 0.950 . S
C958 C959 1.349 . S
C958 C960 1.327 . S
C958 H983 0.950 . S
C959 C958 1.349 . S
C959 C975 1.349 . S
C960 C958 1.327 . S
C960 C979 1.429 . S
C960 H984 0.950 . S
C961 C978 1.574 . S
C961 C980 1.368 . S
C961 H985 0.949 . S
H962 C966 0.949 . S
C963 C964 1.349 . S
C963 C965 1.327 . S
C963 H986 0.950 1_545 S
C964 C963 1.349 . S
C964 C976 1.349 . S
C965 C963 1.327 . S
C965 C981 1.429 . S
C965 H987 0.950 . S
C966 H962 0.949 . S
C966 C974 1.574 . S
C966 C982 1.368 . S
H967 C975 0.950 . S
H968 C973 0.950 . S
H969 C974 0.949 . S
H970 C976 0.950 . S
H971 C977 0.950 . S
H972 C978 0.949 . S
C973 H968 0.950 . S
C973 C975 1.327 . S
C973 C979 1.429 . S
C974 C966 1.574 . S
C974 H969 0.949 . S
C974 C980 1.368 . S
C975 C959 1.349 . S
C975 H967 0.950 . S
C975 C973 1.327 . S
C976 C964 1.349 . S
C976 H970 0.950 . S
C976 C977 1.327 . S
C977 H971 0.950 . S
C977 C976 1.327 . S
C977 C981 1.429 . S
C978 C961 1.574 . S
C978 H972 0.949 . S
C978 C982 1.368 . S
C979 C960 1.429 . S
C979 C973 1.429 . S
C979 C980 1.523 . S
C980 C961 1.368 . S
C980 C974 1.368 . S
C980 C979 1.523 . S
C981 C965 1.429 . S
C981 C977 1.429 . S
C981 C982 1.523 . S
C982 C966 1.368 . S
C982 C978 1.368 . S
C982 C981 1.523 . S
H983 C958 0.950 . S
H984 C960 0.950 . S
H985 C961 0.949 . S
H986 C963 0.950 1_565 S
H987 C965 0.950 . S
C988 C989 1.349 . S
C988 C990 1.327 . S
C988 H1013 0.950 . S
C989 C988 1.349 . S
C989 C1005 1.349 . S
C990 C988 1.327 . S
C990 C1009 1.429 . S
C990 H1014 0.950 . S
C991 C1008 1.574 . S
C991 C1010 1.368 . S
C991 H1015 0.949 . S
H992 C996 0.949 . S
C993 C994 1.349 . S
C993 C995 1.327 . S
C993 H1016 0.950 . S
C994 C993 1.349 . S
C994 C1006 1.349 . S
C995 C993 1.327 . S
C995 C1011 1.429 . S
C995 H1017 0.950 . S
C996 H992 0.949 . S
C996 C1004 1.574 . S
C996 C1012 1.368 . S
H997 C1005 0.950 1_565 S
H998 C1003 0.950 . S
H999 C1004 0.949 . S
H1000 C1006 0.950 . S
H1001 C1007 0.950 . S
H1002 C1008 0.949 . S
C1003 H998 0.950 . S
C1003 C1005 1.327 . S
C1003 C1009 1.429 . S
C1004 C996 1.574 . S
C1004 H999 0.949 . S
C1004 C1010 1.368 . S
C1005 C989 1.349 . S
C1005 H997 0.950 1_545 S
C1005 C1003 1.327 . S
C1006 C994 1.349 . S
C1006 H1000 0.950 . S
C1006 C1007 1.327 . S
C1007 H1001 0.950 . S
C1007 C1006 1.327 . S
C1007 C1011 1.429 . S
C1008 C991 1.574 . S
C1008 H1002 0.949 . S
C1008 C1012 1.368 . S
C1009 C990 1.429 . S
C1009 C1003 1.429 . S
C1009 C1010 1.523 . S
C1010 C991 1.368 . S
C1010 C1004 1.368 . S
C1010 C1009 1.523 . S
C1011 C995 1.429 . S
C1011 C1007 1.429 . S
C1011 C1012 1.523 . S
C1012 C996 1.368 . S
C1012 C1008 1.368 . S
C1012 C1011 1.523 . S
H1013 C988 0.950 . S
H1014 C990 0.950 . S
H1015 C991 0.949 . S
H1016 C993 0.950 . S
H1017 C995 0.950 . S
C1018 C1019 1.349 . S
C1018 C1020 1.327 . S
C1018 H1043 0.950 . S
C1019 C1018 1.349 . S
C1019 C1035 1.349 . S
C1020 C1018 1.327 . S
C1020 C1039 1.429 . S
C1020 H1044 0.950 . S
C1021 C1038 1.574 . S
C1021 C1040 1.368 . S
C1021 H1045 0.949 . S
H1022 C1026 0.949 . S
C1023 C1024 1.349 . S
C1023 C1025 1.327 . S
C1023 H1046 0.950 . S
C1024 C1023 1.349 . S
C1024 C1036 1.349 . S
C1025 C1023 1.327 . S
C1025 C1041 1.429 . S
C1025 H1047 0.950 . S
C1026 H1022 0.949 . S
C1026 C1034 1.574 . S
C1026 C1042 1.368 . S
H1027 C1035 0.950 1_545 S
H1028 C1033 0.950 . S
H1029 C1034 0.949 . S
H1030 C1036 0.950 . S
H1031 C1037 0.950 . S
H1032 C1038 0.949 . S
C1033 H1028 0.950 . S
C1033 C1035 1.327 . S
C1033 C1039 1.429 . S
C1034 C1026 1.574 . S
C1034 H1029 0.949 . S
C1034 C1040 1.368 . S
C1035 C1019 1.349 . S
C1035 H1027 0.950 1_565 S
C1035 C1033 1.327 . S
C1036 C1024 1.349 . S
C1036 H1030 0.950 . S
C1036 C1037 1.327 . S
C1037 H1031 0.950 . S
C1037 C1036 1.327 . S
C1037 C1041 1.429 . S
C1038 C1021 1.574 . S
C1038 H1032 0.949 . S
C1038 C1042 1.368 . S
C1039 C1020 1.429 . S
C1039 C1033 1.429 . S
C1039 C1040 1.523 . S
C1040 C1021 1.368 . S
C1040 C1034 1.368 . S
C1040 C1039 1.523 . S
C1041 C1025 1.429 . S
C1041 C1037 1.429 . S
C1041 C1042 1.523 . S
C1042 C1026 1.368 . S
C1042 C1038 1.368 . S
C1042 C1041 1.523 . S
H1043 C1018 0.950 . S
H1044 C1020 0.950 . S
H1045 C1021 0.949 . S
H1046 C1023 0.950 . S
H1047 C1025 0.950 . S
C1048 C1049 1.349 . S
C1048 C1050 1.327 . S
C1048 H1073 0.950 . S
C1049 C1048 1.349 . S
C1049 C1065 1.349 . S
C1050 C1048 1.327 . S
C1050 C1069 1.429 . S
C1050 H1074 0.950 . S
C1051 C1068 1.574 . S
C1051 C1070 1.368 . S
C1051 H1075 0.949 . S
H1052 C1056 0.949 . S
C1053 C1054 1.349 . S
C1053 C1055 1.327 . S
C1053 H1076 0.950 1_545 S
C1054 C1053 1.349 . S
C1054 C1066 1.349 . S
C1055 C1053 1.327 . S
C1055 C1071 1.429 . S
C1055 H1077 0.950 . S
C1056 H1052 0.949 . S
C1056 C1064 1.574 . S
C1056 C1072 1.368 . S
H1057 C1065 0.950 . S
H1058 C1063 0.950 . S
H1059 C1064 0.949 . S
H1060 C1066 0.950 . S
H1061 C1067 0.950 . S
H1062 C1068 0.949 . S
C1063 H1058 0.950 . S
C1063 C1065 1.327 . S
C1063 C1069 1.429 . S
C1064 C1056 1.574 . S
C1064 H1059 0.949 . S
C1064 C1070 1.368 . S
C1065 C1049 1.349 . S
C1065 H1057 0.950 . S
C1065 C1063 1.327 . S
C1066 C1054 1.349 . S
C1066 H1060 0.950 . S
C1066 C1067 1.327 . S
C1067 H1061 0.950 . S
C1067 C1066 1.327 . S
C1067 C1071 1.429 . S
C1068 C1051 1.574 . S
C1068 H1062 0.949 . S
C1068 C1072 1.368 . S
C1069 C1050 1.429 . S
C1069 C1063 1.429 . S
C1069 C1070 1.523 . S
C1070 C1051 1.368 . S
C1070 C1064 1.368 . S
C1070 C1069 1.523 . S
C1071 C1055 1.429 . S
C1071 C1067 1.429 . S
C1071 C1072 1.523 . S
C1072 C1056 1.368 . S
C1072 C1068 1.368 . S
C1072 C1071 1.523 . S
H1073 C1048 0.950 . S
H1074 C1050 0.950 . S
H1075 C1051 0.949 . S
H1076 C1053 0.950 1_565 S
H1077 C1055 0.950 . S
C1078 C1079 1.349 . S
C1078 C1080 1.327 . S
C1078 H1103 0.950 1_565 S
C1079 C1078 1.349 . S
C1079 C1095 1.349 . S
C1080 C1078 1.327 . S
C1080 C1099 1.429 . S
C1080 H1104 0.950 . S
C1081 C1098 1.574 . S
C1081 C1100 1.368 . S
C1081 H1105 0.949 . S
H1082 C1086 0.949 . S
C1083 C1084 1.349 . S
C1083 C1085 1.327 . S
C1083 H1106 0.950 . S
C1084 C1083 1.349 . S
C1084 C1096 1.349 . S
C1085 C1083 1.327 . S
C1085 C1101 1.429 . S
C1085 H1107 0.950 . S
C1086 H1082 0.949 . S
C1086 C1094 1.574 . S
C1086 C1102 1.368 . S
H1087 C1095 0.950 . S
H1088 C1093 0.950 . S
H1089 C1094 0.949 . S
H1090 C1096 0.950 . S
H1091 C1097 0.950 . S
H1092 C1098 0.949 . S
C1093 H1088 0.950 . S
C1093 C1095 1.327 . S
C1093 C1099 1.429 . S
C1094 C1086 1.574 . S
C1094 H1089 0.949 . S
C1094 C1100 1.368 . S
C1095 C1079 1.349 . S
C1095 H1087 0.950 . S
C1095 C1093 1.327 . S
C1096 C1084 1.349 . S
C1096 H1090 0.950 . S
C1096 C1097 1.327 . S
C1097 H1091 0.950 . S
C1097 C1096 1.327 . S
C1097 C1101 1.429 . S
C1098 C1081 1.574 . S
C1098 H1092 0.949 . S
C1098 C1102 1.368 . S
C1099 C1080 1.429 . S
C1099 C1093 1.429 . S
C1099 C1100 1.523 . S
C1100 C1081 1.368 . S
C1100 C1094 1.368 . S
C1100 C1099 1.523 . S
C1101 C1085 1.429 . S
C1101 C1097 1.429 . S
C1101 C1102 1.523 . S
C1102 C1086 1.368 . S
C1102 C1098 1.368 . S
C1102 C1101 1.523 . S
H1103 C1078 0.950 1_545 S
H1104 C1080 0.950 . S
H1105 C1081 0.949 . S
H1106 C1083 0.950 . S
H1107 C1085 0.950 . S
C1108 C1109 1.349 . S
C1108 C1110 1.327 . S
C1108 H1133 0.950 . S
C1109 C1108 1.349 . S
C1109 C1125 1.349 . S
C1110 C1108 1.327 . S
C1110 C1129 1.429 . S
C1110 H1134 0.950 . S
C1111 C1128 1.574 . S
C1111 C1130 1.368 . S
C1111 H1135 0.949 . S
H1112 C1116 0.949 . S
C1113 C1114 1.349 . S
C1113 C1115 1.327 . S
C1113 H1136 0.950 . S
C1114 C1113 1.349 . S
C1114 C1126 1.349 . S
C1115 C1113 1.327 . S
C1115 C1131 1.429 . S
C1115 H1137 0.950 . S
C1116 H1112 0.949 . S
C1116 C1124 1.574 . S
C1116 C1132 1.368 . S
H1117 C1125 0.950 . S
H1118 C1123 0.950 . S
H1119 C1124 0.949 . S
H1120 C1126 0.978 . S
H1121 C1127 0.950 . S
H1122 C1128 0.949 . S
C1123 H1118 0.950 . S
C1123 C1125 1.327 . S
C1123 C1129 1.429 . S
C1124 C1116 1.574 . S
C1124 H1119 0.949 . S
C1124 C1130 1.368 . S
C1125 C1109 1.349 . S
C1125 H1117 0.950 . S
C1125 C1123 1.327 . S
C1126 C1114 1.349 . S
C1126 H1120 0.978 . S
C1126 C1127 1.327 . S
C1127 H1121 0.950 . S
C1127 C1126 1.327 . S
C1127 C1131 1.429 . S
C1128 C1111 1.574 . S
C1128 H1122 0.949 . S
C1128 C1132 1.368 . S
C1129 C1110 1.429 . S
C1129 C1123 1.429 . S
C1129 C1130 1.523 . S
C1130 C1111 1.368 . S
C1130 C1124 1.368 . S
C1130 C1129 1.523 . S
C1131 C1115 1.429 . S
C1131 C1127 1.429 . S
C1131 C1132 1.523 . S
C1132 C1116 1.368 . S
C1132 C1128 1.368 . S
C1132 C1131 1.523 . S
H1133 C1108 0.950 . S
H1134 C1110 0.950 . S
H1135 C1111 0.949 . S
H1136 C1113 0.950 . S
H1137 C1115 0.950 . S
C1138 C1139 1.349 . S
C1138 C1140 1.327 . S
C1138 H1163 0.950 . S
C1139 C1138 1.349 . S
C1139 C1155 1.349 . S
C1140 C1138 1.327 . S
C1140 C1159 1.429 . S
C1140 H1164 0.950 . S
C1141 C1158 1.574 . S
C1141 C1160 1.368 . S
C1141 H1165 0.949 . S
H1142 C1146 0.949 . S
C1143 C1144 1.349 . S
C1143 C1145 1.327 . S
C1143 H1166 0.950 . S
C1144 C1143 1.349 . S
C1144 C1156 1.349 . S
C1145 C1143 1.327 . S
C1145 C1161 1.429 . S
C1145 H1167 0.950 . S
C1146 H1142 0.949 . S
C1146 C1154 1.574 . S
C1146 C1162 1.368 . S
H1147 C1155 0.950 . S
H1148 C1153 0.950 . S
H1149 C1154 0.949 . S
H1150 C1156 0.950 . S
H1151 C1157 0.950 . S
H1152 C1158 0.949 . S
C1153 H1148 0.950 . S
C1153 C1155 1.327 . S
C1153 C1159 1.429 . S
C1154 C1146 1.574 . S
C1154 H1149 0.949 . S
C1154 C1160 1.368 . S
C1155 C1139 1.349 . S
C1155 H1147 0.950 . S
C1155 C1153 1.327 . S
C1156 C1144 1.349 . S
C1156 H1150 0.950 . S
C1156 C1157 1.327 . S
C1157 H1151 0.950 . S
C1157 C1156 1.327 . S
C1157 C1161 1.429 . S
C1158 C1141 1.574 . S
C1158 H1152 0.949 . S
C1158 C1162 1.368 . S
C1159 C1140 1.429 . S
C1159 C1153 1.429 . S
C1159 C1160 1.523 . S
C1160 C1141 1.368 . S
C1160 C1154 1.368 . S
C1160 C1159 1.523 . S
C1161 C1145 1.429 . S
C1161 C1157 1.429 . S
C1161 C1162 1.523 . S
C1162 C1146 1.368 . S
C1162 C1158 1.368 . S
C1162 C1161 1.523 . S
H1163 C1138 0.950 . S
H1164 C1140 0.950 . S
H1165 C1141 0.949 . S
H1166 C1143 0.950 . S
H1167 C1145 0.950 . S
C1168 C1169 1.349 . S
C1168 C1170 1.327 . S
C1168 H1193 0.950 . S
C1169 C1168 1.349 . S
C1169 C1185 1.349 . S
C1170 C1168 1.327 . S
C1170 C1189 1.429 . S
C1170 H1194 0.950 . S
C1171 C1188 1.574 . S
C1171 C1190 1.368 . S
C1171 H1195 0.949 . S
H1172 C1176 0.949 . S
C1173 C1174 1.349 . S
C1173 C1175 1.327 . S
C1173 H1196 0.950 . S
C1174 C1173 1.349 . S
C1174 C1186 1.349 . S
C1175 C1173 1.327 . S
C1175 C1191 1.429 . S
C1175 H1197 0.950 . S
C1176 H1172 0.949 . S
C1176 C1184 1.574 . S
C1176 C1192 1.368 . S
H1177 C1185 0.950 . S
H1178 C1183 0.950 . S
H1179 C1184 0.949 . S
H1180 C1186 0.950 . S
H1181 C1187 0.950 . S
H1182 C1188 0.949 . S
C1183 H1178 0.950 . S
C1183 C1185 1.327 . S
C1183 C1189 1.429 . S
C1184 C1176 1.574 . S
C1184 H1179 0.949 . S
C1184 C1190 1.368 . S
C1185 C1169 1.349 . S
C1185 H1177 0.950 . S
C1185 C1183 1.327 . S
C1186 C1174 1.349 . S
C1186 H1180 0.950 . S
C1186 C1187 1.327 . S
C1187 H1181 0.950 . S
C1187 C1186 1.327 . S
C1187 C1191 1.429 . S
C1188 C1171 1.574 . S
C1188 H1182 0.949 . S
C1188 C1192 1.368 . S
C1189 C1170 1.429 . S
C1189 C1183 1.429 . S
C1189 C1190 1.523 . S
C1190 C1171 1.368 . S
C1190 C1184 1.368 . S
C1190 C1189 1.523 . S
C1191 C1175 1.429 . S
C1191 C1187 1.429 . S
C1191 C1192 1.523 . S
C1192 C1176 1.368 . S
C1192 C1188 1.368 . S
C1192 C1191 1.523 . S
H1193 C1168 0.950 . S
H1194 C1170 0.950 . S
H1195 C1171 0.949 . S
H1196 C1173 0.950 . S
H1197 C1175 0.950 . S
C1198 C1199 1.349 . S
C1198 C1200 1.327 . S
C1198 H1223 0.950 . S
C1199 C1198 1.349 . S
C1199 C1215 1.349 . S
C1200 C1198 1.327 . S
C1200 C1219 1.429 . S
C1200 H1224 0.950 . S
C1201 C1218 1.574 . S
C1201 C1220 1.368 . S
C1201 H1225 0.949 . S
H1202 C1206 0.949 . S
C1203 C1204 1.349 . S
C1203 C1205 1.327 . S
C1203 H1226 0.950 . S
C1204 C1203 1.349 . S
C1204 C1216 1.349 . S
C1205 C1203 1.327 . S
C1205 C1221 1.429 . S
C1205 H1227 0.950 . S
C1206 H1202 0.949 . S
C1206 C1214 1.574 . S
C1206 C1222 1.368 . S
H1207 C1215 0.950 . S
H1208 C1213 0.950 . S
H1209 C1214 0.949 . S
H1210 C1216 0.950 . S
H1211 C1217 0.950 . S
H1212 C1218 0.949 . S
C1213 H1208 0.950 . S
C1213 C1215 1.327 . S
C1213 C1219 1.429 . S
C1214 C1206 1.574 . S
C1214 H1209 0.949 . S
C1214 C1220 1.368 . S
C1215 C1199 1.349 . S
C1215 H1207 0.950 . S
C1215 C1213 1.327 . S
C1216 C1204 1.349 . S
C1216 H1210 0.950 . S
C1216 C1217 1.327 . S
C1217 H1211 0.950 . S
C1217 C1216 1.327 . S
C1217 C1221 1.429 . S
C1218 C1201 1.574 . S
C1218 H1212 0.949 . S
C1218 C1222 1.368 . S
C1219 C1200 1.429 . S
C1219 C1213 1.429 . S
C1219 C1220 1.523 . S
C1220 C1201 1.368 . S
C1220 C1214 1.368 . S
C1220 C1219 1.523 . S
C1221 C1205 1.429 . S
C1221 C1217 1.429 . S
C1221 C1222 1.523 . S
C1222 C1206 1.368 . S
C1222 C1218 1.368 . S
C1222 C1221 1.523 . S
H1223 C1198 0.950 . S
H1224 C1200 0.950 . S
H1225 C1201 0.949 . S
H1226 C1203 0.950 . S
H1227 C1205 0.950 . S
C1228 C1229 1.349 . S
C1228 C1230 1.327 . S
C1228 H1253 0.950 . S
C1229 C1228 1.349 . S
C1229 C1245 1.349 . S
C1230 C1228 1.327 . S
C1230 C1249 1.429 . S
C1230 H1254 0.950 . S
C1231 C1248 1.574 . S
C1231 C1250 1.368 . S
C1231 H1255 0.949 . S
H1232 C1236 0.949 . S
C1233 C1234 1.349 . S
C1233 C1235 1.327 . S
C1233 H1256 0.950 . S
C1234 C1233 1.349 . S
C1234 C1246 1.349 . S
C1235 C1233 1.327 . S
C1235 C1251 1.429 . S
C1235 H1257 0.950 . S
C1236 H1232 0.949 . S
C1236 C1244 1.574 . S
C1236 C1252 1.368 . S
H1237 C1245 0.950 . S
H1238 C1243 0.950 . S
H1239 C1244 0.949 . S
H1240 C1246 0.950 . S
H1241 C1247 0.950 . S
H1242 C1248 0.949 . S
C1243 H1238 0.950 . S
C1243 C1245 1.327 . S
C1243 C1249 1.429 . S
C1244 C1236 1.574 . S
C1244 H1239 0.949 . S
C1244 C1250 1.368 . S
C1245 C1229 1.349 . S
C1245 H1237 0.950 . S
C1245 C1243 1.327 . S
C1246 C1234 1.349 . S
C1246 H1240 0.950 . S
C1246 C1247 1.327 . S
C1247 H1241 0.950 . S
C1247 C1246 1.327 . S
C1247 C1251 1.429 . S
C1248 C1231 1.574 . S
C1248 H1242 0.949 . S
C1248 C1252 1.368 . S
C1249 C1230 1.429 . S
C1249 C1243 1.429 . S
C1249 C1250 1.523 . S
C1250 C1231 1.368 . S
C1250 C1244 1.368 . S
C1250 C1249 1.523 . S
C1251 C1235 1.429 . S
C1251 C1247 1.429 . S
C1251 C1252 1.523 . S
C1252 C1236 1.368 . S
C1252 C1248 1.368 . S
C1252 C1251 1.523 . S
H1253 C1228 0.950 . S
H1254 C1230 0.950 . S
H1255 C1231 0.949 . S
H1256 C1233 0.950 . S
H1257 C1235 0.950 . S
C1258 C1259 1.349 . S
C1258 C1260 1.327 . S
C1258 H1283 0.950 . S
C1259 C1258 1.349 . S
C1259 C1275 1.349 . S
C1260 C1258 1.327 . S
C1260 C1279 1.429 . S
C1260 H1284 0.950 . S
C1261 C1278 1.574 . S
C1261 C1280 1.368 . S
C1261 H1285 0.949 . S
H1262 C1266 0.949 . S
C1263 C1264 1.349 . S
C1263 C1265 1.327 . S
C1263 H1286 0.950 . S
C1264 C1263 1.349 . S
C1264 C1276 1.349 . S
C1265 C1263 1.327 . S
C1265 C1281 1.429 . S
C1265 H1287 0.950 . S
C1266 H1262 0.949 . S
C1266 C1274 1.574 . S
C1266 C1282 1.368 . S
H1267 C1275 0.950 . S
H1268 C1273 0.950 . S
H1269 C1274 0.949 . S
H1270 C1276 0.950 . S
H1271 C1277 0.950 . S
H1272 C1278 0.949 . S
C1273 H1268 0.950 . S
C1273 C1275 1.327 . S
C1273 C1279 1.429 . S
C1274 C1266 1.574 . S
C1274 H1269 0.949 . S
C1274 C1280 1.368 . S
C1275 C1259 1.349 . S
C1275 H1267 0.950 . S
C1275 C1273 1.327 . S
C1276 C1264 1.349 . S
C1276 H1270 0.950 . S
C1276 C1277 1.327 . S
C1277 H1271 0.950 . S
C1277 C1276 1.327 . S
C1277 C1281 1.429 . S
C1278 C1261 1.574 . S
C1278 H1272 0.949 . S
C1278 C1282 1.368 . S
C1279 C1260 1.429 . S
C1279 C1273 1.429 . S
C1279 C1280 1.523 . S
C1280 C1261 1.368 . S
C1280 C1274 1.368 . S
C1280 C1279 1.523 . S
C1281 C1265 1.429 . S
C1281 C1277 1.429 . S
C1281 C1282 1.523 . S
C1282 C1266 1.368 . S
C1282 C1278 1.368 . S
C1282 C1281 1.523 . S
H1283 C1258 0.950 . S
H1284 C1260 0.950 . S
H1285 C1261 0.949 . S
H1286 C1263 0.950 . S
H1287 C1265 0.950 . S
C1288 C1289 1.349 . S
C1288 C1290 1.327 . S
C1288 H1313 0.950 . S
C1289 C1288 1.349 . S
C1289 C1305 1.349 . S
C1290 C1288 1.327 . S
C1290 C1309 1.429 . S
C1290 H1314 0.950 . S
C1291 C1308 1.574 . S
C1291 C1310 1.368 . S
C1291 H1315 0.949 . S
H1292 C1296 0.949 . S
C1293 C1294 1.349 . S
C1293 C1295 1.327 . S
C1293 H1316 0.950 . S
C1294 C1293 1.349 . S
C1294 C1306 1.349 . S
C1295 C1293 1.327 . S
C1295 C1311 1.429 . S
C1295 H1317 0.950 . S
C1296 H1292 0.949 . S
C1296 C1304 1.574 . S
C1296 C1312 1.368 . S
H1297 C1305 0.950 . S
H1298 C1303 0.950 . S
H1299 C1304 0.949 . S
H1300 C1306 0.950 . S
H1301 C1307 0.950 . S
H1302 C1308 0.949 . S
C1303 H1298 0.950 . S
C1303 C1305 1.327 . S
C1303 C1309 1.429 . S
C1304 C1296 1.574 . S
C1304 H1299 0.949 . S
C1304 C1310 1.368 . S
C1305 C1289 1.349 . S
C1305 H1297 0.950 . S
C1305 C1303 1.327 . S
C1306 C1294 1.349 . S
C1306 H1300 0.950 . S
C1306 C1307 1.327 . S
C1307 H1301 0.950 . S
C1307 C1306 1.327 . S
C1307 C1311 1.429 . S
C1308 C1291 1.574 . S
C1308 H1302 0.949 . S
C1308 C1312 1.368 . S
C1309 C1290 1.429 . S
C1309 C1303 1.429 . S
C1309 C1310 1.523 . S
C1310 C1291 1.368 . S
C1310 C1304 1.368 . S
C1310 C1309 1.523 . S
C1311 C1295 1.429 . S
C1311 C1307 1.429 . S
C1311 C1312 1.523 . S
C1312 C1296 1.368 . S
C1312 C1308 1.368 . S
C1312 C1311 1.523 . S
H1313 C1288 0.950 . S
H1314 C1290 0.950 . S
H1315 C1291 0.949 . S
H1316 C1293 0.950 . S
H1317 C1295 0.950 . S
C1318 C1319 1.349 . S
C1318 C1320 1.327 . S
C1318 H1343 0.950 . S
C1319 C1318 1.349 . S
C1319 C1335 1.349 . S
C1320 C1318 1.327 . S
C1320 C1339 1.429 . S
C1320 H1344 0.950 . S
C1321 C1338 1.574 . S
C1321 C1340 1.368 . S
C1321 H1345 0.949 . S
H1322 C1326 0.949 . S
C1323 C1324 1.349 . S
C1323 C1325 1.327 . S
C1323 H1346 0.950 . S
C1324 C1323 1.349 . S
C1324 C1336 1.349 . S
C1325 C1323 1.327 . S
C1325 C1341 1.429 . S
C1325 H1347 0.950 . S
C1326 H1322 0.949 . S
C1326 C1334 1.574 . S
C1326 C1342 1.368 . S
H1327 C1335 0.950 . S
H1328 C1333 0.950 . S
H1329 C1334 0.949 . S
H1330 C1336 0.950 . S
H1331 C1337 0.950 . S
H1332 C1338 0.949 . S
C1333 H1328 0.950 . S
C1333 C1335 1.327 . S
C1333 C1339 1.429 . S
C1334 C1326 1.574 . S
C1334 H1329 0.949 . S
C1334 C1340 1.368 . S
C1335 C1319 1.349 . S
C1335 H1327 0.950 . S
C1335 C1333 1.327 . S
C1336 C1324 1.349 . S
C1336 H1330 0.950 . S
C1336 C1337 1.327 . S
C1337 H1331 0.950 . S
C1337 C1336 1.327 . S
C1337 C1341 1.429 . S
C1338 C1321 1.574 . S
C1338 H1332 0.949 . S
C1338 C1342 1.368 . S
C1339 C1320 1.429 . S
C1339 C1333 1.429 . S
C1339 C1340 1.523 . S
C1340 C1321 1.368 . S
C1340 C1334 1.368 . S
C1340 C1339 1.523 . S
C1341 C1325 1.429 . S
C1341 C1337 1.429 . S
C1341 C1342 1.523 . S
C1342 C1326 1.368 . S
C1342 C1338 1.368 . S
C1342 C1341 1.523 . S
H1343 C1318 0.950 . S
H1344 C1320 0.950 . S
H1345 C1321 0.949 . S
H1346 C1323 0.950 . S
H1347 C1325 0.950 . S
C1348 C1349 1.349 . S
C1348 C1350 1.327 . S
C1348 H1373 0.950 . S
C1349 C1348 1.349 . S
C1349 C1365 1.349 . S
C1350 C1348 1.327 . S
C1350 C1369 1.429 . S
C1350 H1374 0.950 . S
C1351 C1368 1.574 . S
C1351 C1370 1.368 . S
C1351 H1375 0.949 . S
H1352 C1356 0.949 . S
C1353 C1354 1.349 . S
C1353 C1355 1.327 . S
C1353 H1376 0.950 . S
C1354 C1353 1.349 . S
C1354 C1366 1.349 . S
C1355 C1353 1.327 . S
C1355 C1371 1.429 . S
C1355 H1377 0.950 . S
C1356 H1352 0.949 . S
C1356 C1364 1.574 . S
C1356 C1372 1.368 . S
H1357 C1365 0.950 . S
H1358 C1363 0.950 . S
H1359 C1364 0.949 . S
H1360 C1366 0.950 . S
H1361 C1367 0.950 . S
H1362 C1368 0.949 . S
C1363 H1358 0.950 . S
C1363 C1365 1.327 . S
C1363 C1369 1.429 . S
C1364 C1356 1.574 . S
C1364 H1359 0.949 . S
C1364 C1370 1.368 . S
C1365 C1349 1.349 . S
C1365 H1357 0.950 . S
C1365 C1363 1.327 . S
C1366 C1354 1.349 . S
C1366 H1360 0.950 . S
C1366 C1367 1.327 . S
C1367 H1361 0.950 . S
C1367 C1366 1.327 . S
C1367 C1371 1.429 . S
C1368 C1351 1.574 . S
C1368 H1362 0.949 . S
C1368 C1372 1.368 . S
C1369 C1350 1.429 . S
C1369 C1363 1.429 . S
C1369 C1370 1.523 . S
C1370 C1351 1.368 . S
C1370 C1364 1.368 . S
C1370 C1369 1.523 . S
C1371 C1355 1.429 . S
C1371 C1367 1.429 . S
C1371 C1372 1.523 . S
C1372 C1356 1.368 . S
C1372 C1368 1.368 . S
C1372 C1371 1.523 . S
H1373 C1348 0.950 . S
H1374 C1350 0.950 . S
H1375 C1351 0.949 . S
H1376 C1353 0.950 . S
H1377 C1355 0.950 . S
C1378 C1379 1.349 . S
C1378 C1380 1.327 . S
C1378 H1403 0.950 . S
C1379 C1378 1.349 . S
C1379 C1395 1.349 . S
C1380 C1378 1.327 . S
C1380 C1399 1.429 . S
C1380 H1404 0.950 . S
C1381 C1398 1.574 . S
C1381 C1400 1.368 . S
C1381 H1405 0.949 . S
H1382 C1386 0.949 . S
C1383 C1384 1.349 . S
C1383 C1385 1.327 . S
C1383 H1406 0.950 . S
C1384 C1383 1.349 . S
C1384 C1396 1.349 . S
C1385 C1383 1.327 . S
C1385 C1401 1.429 . S
C1385 H1407 0.950 . S
C1386 H1382 0.949 . S
C1386 C1394 1.574 . S
C1386 C1402 1.368 . S
H1387 C1395 0.950 . S
H1388 C1393 0.950 . S
H1389 C1394 0.949 . S
H1390 C1396 0.950 . S
H1391 C1397 0.950 . S
H1392 C1398 0.949 . S
C1393 H1388 0.950 . S
C1393 C1395 1.327 . S
C1393 C1399 1.429 . S
C1394 C1386 1.574 . S
C1394 H1389 0.949 . S
C1394 C1400 1.368 . S
C1395 C1379 1.349 . S
C1395 H1387 0.950 . S
C1395 C1393 1.327 . S
C1396 C1384 1.349 . S
C1396 H1390 0.950 . S
C1396 C1397 1.327 . S
C1397 H1391 0.950 . S
C1397 C1396 1.327 . S
C1397 C1401 1.429 . S
C1398 C1381 1.574 . S
C1398 H1392 0.949 . S
C1398 C1402 1.368 . S
C1399 C1380 1.429 . S
C1399 C1393 1.429 . S
C1399 C1400 1.523 . S
C1400 C1381 1.368 . S
C1400 C1394 1.368 . S
C1400 C1399 1.523 . S
C1401 C1385 1.429 . S
C1401 C1397 1.429 . S
C1401 C1402 1.523 . S
C1402 C1386 1.368 . S
C1402 C1398 1.368 . S
C1402 C1401 1.523 . S
H1403 C1378 0.950 . S
H1404 C1380 0.950 . S
H1405 C1381 0.949 . S
H1406 C1383 0.950 . S
H1407 C1385 0.950 . S
C1408 C1409 1.349 . S
C1408 C1410 1.327 . S
C1408 H1433 0.950 . S
C1409 C1408 1.349 . S
C1409 C1425 1.349 . S
C1410 C1408 1.327 . S
C1410 C1429 1.429 . S
C1410 H1434 0.950 . S
C1411 C1428 1.574 . S
C1411 C1430 1.368 . S
C1411 H1435 0.949 . S
H1412 C1416 0.949 . S
C1413 C1414 1.349 . S
C1413 C1415 1.327 . S
C1413 H1436 0.950 . S
C1414 C1413 1.349 . S
C1414 C1426 1.349 . S
C1415 C1413 1.327 . S
C1415 C1431 1.429 . S
C1415 H1437 0.950 . S
C1416 H1412 0.949 . S
C1416 C1424 1.574 . S
C1416 C1432 1.368 . S
H1417 C1425 0.950 . S
H1418 C1423 0.950 . S
H1419 C1424 0.949 . S
H1420 C1426 0.950 . S
H1421 C1427 0.950 . S
H1422 C1428 0.949 . S
C1423 H1418 0.950 . S
C1423 C1425 1.327 . S
C1423 C1429 1.429 . S
C1424 C1416 1.574 . S
C1424 H1419 0.949 . S
C1424 C1430 1.368 . S
C1425 C1409 1.349 . S
C1425 H1417 0.950 . S
C1425 C1423 1.327 . S
C1426 C1414 1.349 . S
C1426 H1420 0.950 . S
C1426 C1427 1.327 . S
C1427 H1421 0.950 . S
C1427 C1426 1.327 . S
C1427 C1431 1.429 . S
C1428 C1411 1.574 . S
C1428 H1422 0.949 . S
C1428 C1432 1.368 . S
C1429 C1410 1.429 . S
C1429 C1423 1.429 . S
C1429 C1430 1.523 . S
C1430 C1411 1.368 . S
C1430 C1424 1.368 . S
C1430 C1429 1.523 . S
C1431 C1415 1.429 . S
C1431 C1427 1.429 . S
C1431 C1432 1.523 . S
C1432 C1416 1.368 . S
C1432 C1428 1.368 . S
C1432 C1431 1.523 . S
H1433 C1408 0.950 . S
H1434 C1410 0.950 . S
H1435 C1411 0.949 . S
H1436 C1413 0.950 . S
H1437 C1415 0.950 . S
C1438 C1439 1.349 . S
C1438 C1440 1.327 . S
C1438 H1463 0.950 . S
C1439 C1438 1.349 . S
C1439 C1455 1.349 . S
C1440 C1438 1.327 . S
C1440 C1459 1.429 . S
C1440 H1464 0.950 . S
C1441 C1458 1.574 . S
C1441 C1460 1.368 . S
C1441 H1465 0.949 . S
H1442 C1446 0.949 . S
C1443 C1444 1.349 . S
C1443 C1445 1.327 . S
C1443 H1466 0.950 . S
C1444 C1443 1.349 . S
C1444 C1456 1.349 . S
C1445 C1443 1.327 . S
C1445 C1461 1.429 . S
C1445 H1467 0.950 . S
C1446 H1442 0.949 . S
C1446 C1454 1.574 . S
C1446 C1462 1.368 . S
H1447 C1455 0.950 . S
H1448 C1453 0.950 . S
H1449 C1454 0.949 . S
H1450 C1456 0.950 . S
H1451 C1457 0.950 . S
H1452 C1458 0.949 . S
C1453 H1448 0.950 . S
C1453 C1455 1.327 . S
C1453 C1459 1.429 . S
C1454 C1446 1.574 . S
C1454 H1449 0.949 . S
C1454 C1460 1.368 . S
C1455 C1439 1.349 . S
C1455 H1447 0.950 . S
C1455 C1453 1.327 . S
C1456 C1444 1.349 . S
C1456 H1450 0.950 . S
C1456 C1457 1.327 . S
C1457 H1451 0.950 . S
C1457 C1456 1.327 . S
C1457 C1461 1.429 . S
C1458 C1441 1.574 . S
C1458 H1452 0.949 . S
C1458 C1462 1.368 . S
C1459 C1440 1.429 . S
C1459 C1453 1.429 . S
C1459 C1460 1.523 . S
C1460 C1441 1.368 . S
C1460 C1454 1.368 . S
C1460 C1459 1.523 . S
C1461 C1445 1.429 . S
C1461 C1457 1.429 . S
C1461 C1462 1.523 . S
C1462 C1446 1.368 . S
C1462 C1458 1.368 . S
C1462 C1461 1.523 . S
H1463 C1438 0.950 . S
H1464 C1440 0.950 . S
H1465 C1441 0.949 . S
H1466 C1443 0.950 . S
H1467 C1445 0.950 . S
C1468 C1469 1.349 . S
C1468 C1470 1.327 . S
C1468 H1493 0.950 . S
C1469 C1468 1.349 . S
C1469 C1485 1.349 . S
C1470 C1468 1.327 . S
C1470 C1489 1.429 . S
C1470 H1494 0.950 . S
C1471 C1488 1.574 . S
C1471 C1490 1.368 . S
C1471 H1495 0.949 . S
H1472 C1476 0.949 . S
C1473 C1474 1.349 . S
C1473 C1475 1.327 . S
C1473 H1496 0.950 . S
C1474 C1473 1.349 . S
C1474 C1486 1.349 . S
C1475 C1473 1.327 . S
C1475 C1491 1.429 . S
C1475 H1497 0.950 . S
C1476 H1472 0.949 . S
C1476 C1484 1.574 . S
C1476 C1492 1.368 . S
H1477 C1485 0.950 . S
H1478 C1483 0.950 . S
H1479 C1484 0.949 . S
H1480 C1486 0.950 . S
H1481 C1487 0.950 . S
H1482 C1488 0.949 . S
C1483 H1478 0.950 . S
C1483 C1485 1.327 . S
C1483 C1489 1.429 . S
C1484 C1476 1.574 . S
C1484 H1479 0.949 . S
C1484 C1490 1.368 . S
C1485 C1469 1.349 . S
C1485 H1477 0.950 . S
C1485 C1483 1.327 . S
C1486 C1474 1.349 . S
C1486 H1480 0.950 . S
C1486 C1487 1.327 . S
C1487 H1481 0.950 . S
C1487 C1486 1.327 . S
C1487 C1491 1.429 . S
C1488 C1471 1.574 . S
C1488 H1482 0.949 . S
C1488 C1492 1.368 . S
C1489 C1470 1.429 . S
C1489 C1483 1.429 . S
C1489 C1490 1.523 . S
C1490 C1471 1.368 . S
C1490 C1484 1.368 . S
C1490 C1489 1.523 . S
C1491 C1475 1.429 . S
C1491 C1487 1.429 . S
C1491 C1492 1.523 . S
C1492 C1476 1.368 . S
C1492 C1488 1.368 . S
C1492 C1491 1.523 . S
H1493 C1468 0.950 . S
H1494 C1470 0.950 . S
H1495 C1471 0.949 . S
H1496 C1473 0.950 . S
H1497 C1475 0.950 . S
C1498 C1499 1.349 . S
C1498 C1500 1.327 . S
C1498 H1523 0.950 . S
C1499 C1498 1.349 . S
C1499 C1515 1.349 . S
C1500 C1498 1.327 . S
C1500 C1519 1.429 . S
C1500 H1524 0.950 . S
C1501 C1518 1.574 . S
C1501 C1520 1.368 . S
C1501 H1525 0.949 . S
H1502 C1506 0.949 . S
C1503 C1504 1.349 . S
C1503 C1505 1.327 . S
C1503 H1526 0.950 . S
C1504 C1503 1.349 . S
C1504 C1516 1.349 . S
C1505 C1503 1.327 . S
C1505 C1521 1.429 . S
C1505 H1527 0.950 . S
C1506 H1502 0.949 . S
C1506 C1514 1.574 . S
C1506 C1522 1.368 . S
H1507 C1515 0.950 . S
H1508 C1513 0.950 . S
H1509 C1514 0.949 . S
H1510 C1516 0.950 . S
H1511 C1517 0.950 . S
H1512 C1518 0.949 . S
C1513 H1508 0.950 . S
C1513 C1515 1.327 . S
C1513 C1519 1.429 . S
C1514 C1506 1.574 . S
C1514 H1509 0.949 . S
C1514 C1520 1.368 . S
C1515 C1499 1.349 . S
C1515 H1507 0.950 . S
C1515 C1513 1.327 . S
C1516 C1504 1.349 . S
C1516 H1510 0.950 . S
C1516 C1517 1.327 . S
C1517 H1511 0.950 . S
C1517 C1516 1.327 . S
C1517 C1521 1.429 . S
C1518 C1501 1.574 . S
C1518 H1512 0.949 . S
C1518 C1522 1.368 . S
C1519 C1500 1.429 . S
C1519 C1513 1.429 . S
C1519 C1520 1.523 . S
C1520 C1501 1.368 . S
C1520 C1514 1.368 . S
C1520 C1519 1.523 . S
C1521 C1505 1.429 . S
C1521 C1517 1.429 . S
C1521 C1522 1.523 . S
C1522 C1506 1.368 . S
C1522 C1518 1.368 . S
C1522 C1521 1.523 . S
H1523 C1498 0.950 . S
H1524 C1500 0.950 . S
H1525 C1501 0.949 . S
H1526 C1503 0.950 . S
H1527 C1505 0.950 . S
C1528 C1529 1.349 . S
C1528 C1530 1.327 . S
C1528 H1553 0.950 . S
C1529 C1528 1.349 . S
C1529 C1545 1.349 . S
C1530 C1528 1.327 . S
C1530 C1549 1.429 . S
C1530 H1554 0.950 . S
C1531 C1548 1.574 . S
C1531 C1550 1.368 . S
C1531 H1555 0.949 . S
H1532 C1536 0.949 . S
C1533 C1534 1.349 . S
C1533 C1535 1.327 . S
C1533 H1556 0.950 . S
C1534 C1533 1.349 . S
C1534 C1546 1.349 . S
C1535 C1533 1.327 . S
C1535 C1551 1.429 . S
C1535 H1557 0.950 . S
C1536 H1532 0.949 . S
C1536 C1544 1.574 . S
C1536 C1552 1.368 . S
H1537 C1545 0.950 . S
H1538 C1543 0.950 . S
H1539 C1544 0.949 . S
H1540 C1546 0.950 . S
H1541 C1547 0.950 . S
H1542 C1548 0.949 . S
C1543 H1538 0.950 . S
C1543 C1545 1.327 . S
C1543 C1549 1.429 . S
C1544 C1536 1.574 . S
C1544 H1539 0.949 . S
C1544 C1550 1.368 . S
C1545 C1529 1.349 . S
C1545 H1537 0.950 . S
C1545 C1543 1.327 . S
C1546 C1534 1.349 . S
C1546 H1540 0.950 . S
C1546 C1547 1.327 . S
C1547 H1541 0.950 . S
C1547 C1546 1.327 . S
C1547 C1551 1.429 . S
C1548 C1531 1.574 . S
C1548 H1542 0.949 . S
C1548 C1552 1.368 . S
C1549 C1530 1.429 . S
C1549 C1543 1.429 . S
C1549 C1550 1.523 . S
C1550 C1531 1.368 . S
C1550 C1544 1.368 . S
C1550 C1549 1.523 . S
C1551 C1535 1.429 . S
C1551 C1547 1.429 . S
C1551 C1552 1.523 . S
C1552 C1536 1.368 . S
C1552 C1548 1.368 . S
C1552 C1551 1.523 . S
H1553 C1528 0.950 . S
H1554 C1530 0.950 . S
H1555 C1531 0.949 . S
H1556 C1533 0.950 . S
H1557 C1535 0.950 . S
C1558 C1559 1.349 . S
C1558 C1560 1.327 . S
C1558 H1583 0.950 . S
C1559 C1558 1.349 . S
C1559 C1575 1.349 . S
C1560 C1558 1.327 . S
C1560 C1579 1.429 . S
C1560 H1584 0.950 . S
C1561 C1578 1.574 . S
C1561 C1580 1.368 . S
C1561 H1585 0.949 . S
H1562 C1566 0.949 . S
C1563 C1564 1.349 . S
C1563 C1565 1.327 . S
C1563 H1586 0.950 . S
C1564 C1563 1.349 . S
C1564 C1576 1.349 . S
C1565 C1563 1.327 . S
C1565 C1581 1.429 . S
C1565 H1587 0.950 . S
C1566 H1562 0.949 . S
C1566 C1574 1.574 . S
C1566 C1582 1.368 . S
H1567 C1575 0.950 . S
H1568 C1573 0.950 . S
H1569 C1574 0.949 . S
H1570 C1576 0.950 . S
H1571 C1577 0.950 . S
H1572 C1578 0.949 . S
C1573 H1568 0.950 . S
C1573 C1575 1.327 . S
C1573 C1579 1.429 . S
C1574 C1566 1.574 . S
C1574 H1569 0.949 . S
C1574 C1580 1.368 . S
C1575 C1559 1.349 . S
C1575 H1567 0.950 . S
C1575 C1573 1.327 . S
C1576 C1564 1.349 . S
C1576 H1570 0.950 . S
C1576 C1577 1.327 . S
C1577 H1571 0.950 . S
C1577 C1576 1.327 . S
C1577 C1581 1.429 . S
C1578 C1561 1.574 . S
C1578 H1572 0.949 . S
C1578 C1582 1.368 . S
C1579 C1560 1.429 . S
C1579 C1573 1.429 . S
C1579 C1580 1.523 . S
C1580 C1561 1.368 . S
C1580 C1574 1.368 . S
C1580 C1579 1.523 . S
C1581 C1565 1.429 . S
C1581 C1577 1.429 . S
C1581 C1582 1.523 . S
C1582 C1566 1.368 . S
C1582 C1578 1.368 . S
C1582 C1581 1.523 . S
H1583 C1558 0.950 . S
H1584 C1560 0.950 . S
H1585 C1561 0.949 . S
H1586 C1563 0.950 . S
H1587 C1565 0.950 . S
C1588 C1589 1.349 . S
C1588 C1590 1.327 . S
C1588 H1613 0.950 . S
C1589 C1588 1.349 . S
C1589 C1605 1.349 . S
C1590 C1588 1.327 . S
C1590 C1609 1.429 . S
C1590 H1614 0.950 . S
C1591 C1608 1.574 . S
C1591 C1610 1.368 . S
C1591 H1615 0.949 . S
H1592 C1596 0.949 . S
C1593 C1594 1.349 . S
C1593 C1595 1.327 . S
C1593 H1616 0.950 . S
C1594 C1593 1.349 . S
C1594 C1606 1.349 . S
C1595 C1593 1.327 . S
C1595 C1611 1.429 . S
C1595 H1617 0.950 . S
C1596 H1592 0.949 . S
C1596 C1604 1.574 . S
C1596 C1612 1.368 . S
H1597 C1605 0.950 . S
H1598 C1603 0.950 . S
H1599 C1604 0.949 . S
H1600 C1606 0.950 . S
H1601 C1607 0.950 . S
H1602 C1608 0.949 . S
C1603 H1598 0.950 . S
C1603 C1605 1.327 . S
C1603 C1609 1.429 . S
C1604 C1596 1.574 . S
C1604 H1599 0.949 . S
C1604 C1610 1.368 . S
C1605 C1589 1.349 . S
C1605 H1597 0.950 . S
C1605 C1603 1.327 . S
C1606 C1594 1.349 . S
C1606 H1600 0.950 . S
C1606 C1607 1.327 . S
C1607 H1601 0.950 . S
C1607 C1606 1.327 . S
C1607 C1611 1.429 . S
C1608 C1591 1.574 . S
C1608 H1602 0.949 . S
C1608 C1612 1.368 . S
C1609 C1590 1.429 . S
C1609 C1603 1.429 . S
C1609 C1610 1.523 . S
C1610 C1591 1.368 . S
C1610 C1604 1.368 . S
C1610 C1609 1.523 . S
C1611 C1595 1.429 . S
C1611 C1607 1.429 . S
C1611 C1612 1.523 . S
C1612 C1596 1.368 . S
C1612 C1608 1.368 . S
C1612 C1611 1.523 . S
H1613 C1588 0.950 . S
H1614 C1590 0.950 . S
H1615 C1591 0.949 . S
H1616 C1593 0.950 . S
H1617 C1595 0.950 . S
C1618 C1619 1.349 . S
C1618 C1620 1.327 . S
C1618 H1643 0.950 . S
C1619 C1618 1.349 . S
C1619 C1635 1.349 . S
C1620 C1618 1.327 . S
C1620 C1639 1.429 . S
C1620 H1644 0.950 . S
C1621 C1638 1.574 . S
C1621 C1640 1.368 . S
C1621 H1645 0.949 . S
H1622 C1626 0.949 . S
C1623 C1624 1.349 . S
C1623 C1625 1.327 . S
C1623 H1646 0.950 1_455 S
C1624 C1623 1.349 . S
C1624 C1636 1.349 . S
C1625 C1623 1.327 . S
C1625 C1641 1.429 . S
C1625 H1647 0.950 . S
C1626 H1622 0.949 . S
C1626 C1634 1.574 . S
C1626 C1642 1.368 . S
H1627 C1635 0.950 . S
H1628 C1633 0.950 . S
H1629 C1634 0.949 . S
H1630 C1636 0.950 . S
H1631 C1637 0.950 . S
H1632 C1638 0.949 . S
C1633 H1628 0.950 . S
C1633 C1635 1.327 . S
C1633 C1639 1.429 . S
C1634 C1626 1.574 . S
C1634 H1629 0.949 . S
C1634 C1640 1.368 . S
C1635 C1619 1.349 . S
C1635 H1627 0.950 . S
C1635 C1633 1.327 . S
C1636 C1624 1.349 . S
C1636 H1630 0.950 . S
C1636 C1637 1.327 . S
C1637 H1631 0.950 . S
C1637 C1636 1.327 . S
C1637 C1641 1.429 . S
C1638 C1621 1.574 . S
C1638 H1632 0.949 . S
C1638 C1642 1.368 . S
C1639 C1620 1.429 . S
C1639 C1633 1.429 . S
C1639 C1640 1.523 . S
C1640 C1621 1.368 . S
C1640 C1634 1.368 . S
C1640 C1639 1.523 . S
C1641 C1625 1.429 . S
C1641 C1637 1.429 . S
C1641 C1642 1.523 . S
C1642 C1626 1.368 . S
C1642 C1638 1.368 . S
C1642 C1641 1.523 . S
H1643 C1618 0.950 . S
H1644 C1620 0.950 . S
H1645 C1621 0.949 . S
H1646 C1623 0.950 1_655 S
H1647 C1625 0.950 . S
C1648 C1649 1.349 . S
C1648 C1650 1.327 . S
C1648 H1673 0.950 . S
C1649 C1648 1.349 . S
C1649 C1665 1.349 . S
C1650 C1648 1.327 . S
C1650 C1669 1.429 . S
C1650 H1674 0.950 . S
C1651 C1668 1.574 . S
C1651 C1670 1.368 . S
C1651 H1675 0.949 . S
H1652 C1656 0.949 . S
C1653 C1654 1.349 . S
C1653 C1655 1.327 . S
C1653 H1676 0.950 . S
C1654 C1653 1.349 . S
C1654 C1666 1.349 . S
C1655 C1653 1.327 . S
C1655 C1671 1.429 . S
C1655 H1677 0.950 . S
C1656 H1652 0.949 . S
C1656 C1664 1.574 . S
C1656 C1672 1.368 . S
H1657 C1665 0.950 . S
H1658 C1663 0.950 . S
H1659 C1664 0.949 . S
H1660 C1666 0.950 . S
H1661 C1667 0.950 . S
H1662 C1668 0.949 . S
C1663 H1658 0.950 . S
C1663 C1665 1.327 . S
C1663 C1669 1.429 . S
C1664 C1656 1.574 . S
C1664 H1659 0.949 . S
C1664 C1670 1.368 . S
C1665 C1649 1.349 . S
C1665 H1657 0.950 . S
C1665 C1663 1.327 . S
C1666 C1654 1.349 . S
C1666 H1660 0.950 . S
C1666 C1667 1.327 . S
C1667 H1661 0.950 . S
C1667 C1666 1.327 . S
C1667 C1671 1.429 . S
C1668 C1651 1.574 . S
C1668 H1662 0.949 . S
C1668 C1672 1.368 . S
C1669 C1650 1.429 . S
C1669 C1663 1.429 . S
C1669 C1670 1.523 . S
C1670 C1651 1.368 . S
C1670 C1664 1.368 . S
C1670 C1669 1.523 . S
C1671 C1655 1.429 . S
C1671 C1667 1.429 . S
C1671 C1672 1.523 . S
C1672 C1656 1.368 . S
C1672 C1668 1.368 . S
C1672 C1671 1.523 . S
H1673 C1648 0.950 . S
H1674 C1650 0.950 . S
H1675 C1651 0.949 . S
H1676 C1653 0.950 . S
H1677 C1655 0.950 . S
C1678 C1679 1.349 . S
C1678 C1680 1.327 . S
C1678 H1703 0.950 1_655 S
C1679 C1678 1.349 . S
C1679 C1695 1.349 . S
C1680 C1678 1.327 . S
C1680 C1699 1.429 . S
C1680 H1704 0.950 . S
C1681 C1698 1.574 . S
C1681 C1700 1.368 . S
C1681 H1705 0.949 . S
H1682 C1686 0.949 . S
C1683 C1684 1.349 . S
C1683 C1685 1.327 . S
C1683 H1706 0.950 . S
C1684 C1683 1.349 . S
C1684 C1696 1.349 . S
C1685 C1683 1.327 . S
C1685 C1701 1.429 . S
C1685 H1707 0.950 . S
C1686 H1682 0.949 . S
C1686 C1694 1.574 . S
C1686 C1702 1.368 . S
H1687 C1695 0.950 . S
H1688 C1693 0.950 . S
H1689 C1694 0.949 . S
H1690 C1696 0.950 . S
H1691 C1697 0.950 . S
H1692 C1698 0.949 . S
C1693 H1688 0.950 . S
C1693 C1695 1.327 . S
C1693 C1699 1.429 . S
C1694 C1686 1.574 . S
C1694 H1689 0.949 . S
C1694 C1700 1.368 . S
C1695 C1679 1.349 . S
C1695 H1687 0.950 . S
C1695 C1693 1.327 . S
C1696 C1684 1.349 . S
C1696 H1690 0.950 . S
C1696 C1697 1.327 . S
C1697 H1691 0.950 . S
C1697 C1696 1.327 . S
C1697 C1701 1.429 . S
C1698 C1681 1.574 . S
C1698 H1692 0.949 . S
C1698 C1702 1.368 . S
C1699 C1680 1.429 . S
C1699 C1693 1.429 . S
C1699 C1700 1.523 . S
C1700 C1681 1.368 . S
C1700 C1694 1.368 . S
C1700 C1699 1.523 . S
C1701 C1685 1.429 . S
C1701 C1697 1.429 . S
C1701 C1702 1.523 . S
C1702 C1686 1.368 . S
C1702 C1698 1.368 . S
C1702 C1701 1.523 . S
H1703 C1678 0.950 1_455 S
H1704 C1680 0.950 . S
H1705 C1681 0.949 . S
H1706 C1683 0.950 . S
H1707 C1685 0.950 . S
C1708 C1709 1.349 . S
C1708 C1710 1.327 . S
C1708 H1733 0.950 . S
C1709 C1708 1.349 . S
C1709 C1725 1.349 . S
C1710 C1708 1.327 . S
C1710 C1729 1.429 . S
C1710 H1734 0.950 . S
C1711 C1728 1.574 . S
C1711 C1730 1.368 . S
C1711 H1735 0.949 . S
H1712 C1716 0.949 . S
C1713 C1714 1.349 . S
C1713 C1715 1.327 . S
C1713 H1736 0.950 . S
C1714 C1713 1.349 . S
C1714 C1726 1.349 . S
C1715 C1713 1.327 . S
C1715 C1731 1.429 . S
C1715 H1737 0.950 . S
C1716 H1712 0.949 . S
C1716 C1724 1.574 . S
C1716 C1732 1.368 . S
H1717 C1725 0.950 . S
H1718 C1723 0.950 . S
H1719 C1724 0.949 . S
H1720 C1726 0.950 . S
H1721 C1727 0.950 . S
H1722 C1728 0.949 . S
C1723 H1718 0.950 . S
C1723 C1725 1.327 . S
C1723 C1729 1.429 . S
C1724 C1716 1.574 . S
C1724 H1719 0.949 . S
C1724 C1730 1.368 . S
C1725 C1709 1.349 . S
C1725 H1717 0.950 . S
C1725 C1723 1.327 . S
C1726 C1714 1.349 . S
C1726 H1720 0.950 . S
C1726 C1727 1.327 . S
C1727 H1721 0.950 . S
C1727 C1726 1.327 . S
C1727 C1731 1.429 . S
C1728 C1711 1.574 . S
C1728 H1722 0.949 . S
C1728 C1732 1.368 . S
C1729 C1710 1.429 . S
C1729 C1723 1.429 . S
C1729 C1730 1.523 . S
C1730 C1711 1.368 . S
C1730 C1724 1.368 . S
C1730 C1729 1.523 . S
C1731 C1715 1.429 . S
C1731 C1727 1.429 . S
C1731 C1732 1.523 . S
C1732 C1716 1.368 . S
C1732 C1728 1.368 . S
C1732 C1731 1.523 . S
H1733 C1708 0.950 . S
H1734 C1710 0.950 . S
H1735 C1711 0.949 . S
H1736 C1713 0.950 . S
H1737 C1715 0.950 . S
C1738 C1739 1.349 . S
C1738 C1740 1.327 . S
C1738 H1763 0.950 . S
C1739 C1738 1.349 . S
C1739 C1755 1.349 . S
C1740 C1738 1.327 . S
C1740 C1759 1.429 . S
C1740 H1764 0.950 . S
C1741 C1758 1.574 . S
C1741 C1760 1.368 . S
C1741 H1765 0.949 . S
H1742 C1746 0.949 . S
C1743 C1744 1.349 . S
C1743 C1745 1.327 . S
C1743 H1766 0.950 . S
C1744 C1743 1.349 . S
C1744 C1756 1.349 . S
C1745 C1743 1.327 . S
C1745 C1761 1.429 . S
C1745 H1767 0.950 . S
C1746 H1742 0.949 . S
C1746 C1754 1.574 . S
C1746 C1762 1.368 . S
H1747 C1755 0.950 . S
H1748 C1753 0.950 . S
H1749 C1754 0.949 . S
H1750 C1756 0.950 . S
H1751 C1757 0.950 . S
H1752 C1758 0.949 . S
C1753 H1748 0.950 . S
C1753 C1755 1.327 . S
C1753 C1759 1.429 . S
C1754 C1746 1.574 . S
C1754 H1749 0.949 . S
C1754 C1760 1.368 . S
C1755 C1739 1.349 . S
C1755 H1747 0.950 . S
C1755 C1753 1.327 . S
C1756 C1744 1.349 . S
C1756 H1750 0.950 . S
C1756 C1757 1.327 . S
C1757 H1751 0.950 . S
C1757 C1756 1.327 . S
C1757 C1761 1.429 . S
C1758 C1741 1.574 . S
C1758 H1752 0.949 . S
C1758 C1762 1.368 . S
C1759 C1740 1.429 . S
C1759 C1753 1.429 . S
C1759 C1760 1.523 . S
C1760 C1741 1.368 . S
C1760 C1754 1.368 . S
C1760 C1759 1.523 . S
C1761 C1745 1.429 . S
C1761 C1757 1.429 . S
C1761 C1762 1.523 . S
C1762 C1746 1.368 . S
C1762 C1758 1.368 . S
C1762 C1761 1.523 . S
H1763 C1738 0.950 . S
H1764 C1740 0.950 . S
H1765 C1741 0.949 . S
H1766 C1743 0.950 . S
H1767 C1745 0.950 . S
C1768 C1769 1.349 . S
C1768 C1770 1.327 . S
C1768 H1793 0.950 . S
C1769 C1768 1.349 . S
C1769 C1785 1.349 . S
C1770 C1768 1.327 . S
C1770 C1789 1.429 . S
C1770 H1794 0.950 . S
C1771 C1788 1.574 . S
C1771 C1790 1.368 . S
C1771 H1795 0.949 . S
H1772 C1776 0.949 . S
C1773 C1774 1.349 . S
C1773 C1775 1.327 . S
C1773 H1796 0.950 . S
C1774 C1773 1.349 . S
C1774 C1786 1.349 . S
C1775 C1773 1.327 . S
C1775 C1791 1.429 . S
C1775 H1797 0.950 . S
C1776 H1772 0.949 . S
C1776 C1784 1.574 . S
C1776 C1792 1.368 . S
H1777 C1785 0.950 . S
H1778 C1783 0.950 . S
H1779 C1784 0.949 . S
H1780 C1786 0.950 . S
H1781 C1787 0.950 . S
H1782 C1788 0.949 . S
C1783 H1778 0.950 . S
C1783 C1785 1.327 . S
C1783 C1789 1.429 . S
C1784 C1776 1.574 . S
C1784 H1779 0.949 . S
C1784 C1790 1.368 . S
C1785 C1769 1.349 . S
C1785 H1777 0.950 . S
C1785 C1783 1.327 . S
C1786 C1774 1.349 . S
C1786 H1780 0.950 . S
C1786 C1787 1.327 . S
C1787 H1781 0.950 . S
C1787 C1786 1.327 . S
C1787 C1791 1.429 . S
C1788 C1771 1.574 . S
C1788 H1782 0.949 . S
C1788 C1792 1.368 . S
C1789 C1770 1.429 . S
C1789 C1783 1.429 . S
C1789 C1790 1.523 . S
C1790 C1771 1.368 . S
C1790 C1784 1.368 . S
C1790 C1789 1.523 . S
C1791 C1775 1.429 . S
C1791 C1787 1.429 . S
C1791 C1792 1.523 . S
C1792 C1776 1.368 . S
C1792 C1788 1.368 . S
C1792 C1791 1.523 . S
H1793 C1768 0.950 . S
H1794 C1770 0.950 . S
H1795 C1771 0.949 . S
H1796 C1773 0.950 . S
H1797 C1775 0.950 . S
C1798 C1799 1.349 . S
C1798 C1800 1.327 . S
C1798 H1823 0.950 . S
C1799 C1798 1.349 . S
C1799 C1815 1.349 . S
C1800 C1798 1.327 . S
C1800 C1819 1.429 . S
C1800 H1824 0.950 . S
C1801 C1818 1.574 . S
C1801 C1820 1.368 . S
C1801 H1825 0.949 . S
H1802 C1806 0.949 . S
C1803 C1804 1.349 . S
C1803 C1805 1.327 . S
C1803 H1826 0.950 . S
C1804 C1803 1.349 . S
C1804 C1816 1.349 . S
C1805 C1803 1.327 . S
C1805 C1821 1.429 . S
C1805 H1827 0.950 . S
C1806 H1802 0.949 . S
C1806 C1814 1.574 . S
C1806 C1822 1.368 . S
H1807 C1815 0.950 . S
H1808 C1813 0.950 . S
H1809 C1814 0.949 . S
H1810 C1816 0.950 . S
H1811 C1817 0.950 . S
H1812 C1818 0.949 . S
C1813 H1808 0.950 . S
C1813 C1815 1.327 . S
C1813 C1819 1.429 . S
C1814 C1806 1.574 . S
C1814 H1809 0.949 . S
C1814 C1820 1.368 . S
C1815 C1799 1.349 . S
C1815 H1807 0.950 . S
C1815 C1813 1.327 . S
C1816 C1804 1.349 . S
C1816 H1810 0.950 . S
C1816 C1817 1.327 . S
C1817 H1811 0.950 . S
C1817 C1816 1.327 . S
C1817 C1821 1.429 . S
C1818 C1801 1.574 . S
C1818 H1812 0.949 . S
C1818 C1822 1.368 . S
C1819 C1800 1.429 . S
C1819 C1813 1.429 . S
C1819 C1820 1.523 . S
C1820 C1801 1.368 . S
C1820 C1814 1.368 . S
C1820 C1819 1.523 . S
C1821 C1805 1.429 . S
C1821 C1817 1.429 . S
C1821 C1822 1.523 . S
C1822 C1806 1.368 . S
C1822 C1818 1.368 . S
C1822 C1821 1.523 . S
H1823 C1798 0.950 . S
H1824 C1800 0.950 . S
H1825 C1801 0.949 . S
H1826 C1803 0.950 . S
H1827 C1805 0.950 . S
C1828 C1829 1.349 . S
C1828 C1830 1.327 . S
C1828 H1853 0.950 . S
C1829 C1828 1.349 . S
C1829 C1845 1.349 . S
C1830 C1828 1.327 . S
C1830 C1849 1.429 . S
C1830 H1854 0.950 . S
C1831 C1848 1.574 . S
C1831 C1850 1.368 . S
C1831 H1855 0.949 . S
H1832 C1836 0.949 . S
C1833 C1834 1.349 . S
C1833 C1835 1.327 . S
C1833 H1856 0.950 . S
C1834 C1833 1.349 . S
C1834 C1846 1.349 . S
C1835 C1833 1.327 . S
C1835 C1851 1.429 . S
C1835 H1857 0.950 . S
C1836 H1832 0.949 . S
C1836 C1844 1.574 . S
C1836 C1852 1.368 . S
H1837 C1845 0.950 . S
H1838 C1843 0.950 . S
H1839 C1844 0.949 . S
H1840 C1846 0.950 . S
H1841 C1847 0.950 . S
H1842 C1848 0.949 . S
C1843 H1838 0.950 . S
C1843 C1845 1.327 . S
C1843 C1849 1.429 . S
C1844 C1836 1.574 . S
C1844 H1839 0.949 . S
C1844 C1850 1.368 . S
C1845 C1829 1.349 . S
C1845 H1837 0.950 . S
C1845 C1843 1.327 . S
C1846 C1834 1.349 . S
C1846 H1840 0.950 . S
C1846 C1847 1.327 . S
C1847 H1841 0.950 . S
C1847 C1846 1.327 . S
C1847 C1851 1.429 . S
C1848 C1831 1.574 . S
C1848 H1842 0.949 . S
C1848 C1852 1.368 . S
C1849 C1830 1.429 . S
C1849 C1843 1.429 . S
C1849 C1850 1.523 . S
C1850 C1831 1.368 . S
C1850 C1844 1.368 . S
C1850 C1849 1.523 . S
C1851 C1835 1.429 . S
C1851 C1847 1.429 . S
C1851 C1852 1.523 . S
C1852 C1836 1.368 . S
C1852 C1848 1.368 . S
C1852 C1851 1.523 . S
H1853 C1828 0.950 . S
H1854 C1830 0.950 . S
H1855 C1831 0.949 . S
H1856 C1833 0.950 . S
H1857 C1835 0.950 . S
C1858 C1859 1.349 . S
C1858 C1860 1.327 . S
C1858 H1883 0.950 1_655 S
C1859 C1858 1.349 . S
C1859 C1875 1.349 . S
C1860 C1858 1.327 . S
C1860 C1879 1.429 . S
C1860 H1884 0.950 . S
C1861 C1878 1.574 . S
C1861 C1880 1.368 . S
C1861 H1885 0.949 . S
H1862 C1866 0.949 . S
C1863 C1864 1.349 . S
C1863 C1865 1.327 . S
C1863 H1886 0.950 . S
C1864 C1863 1.349 . S
C1864 C1876 1.349 . S
C1865 C1863 1.327 . S
C1865 C1881 1.429 . S
C1865 H1887 0.950 . S
C1866 H1862 0.949 . S
C1866 C1874 1.574 . S
C1866 C1882 1.368 . S
H1867 C1875 0.950 . S
H1868 C1873 0.950 . S
H1869 C1874 0.949 . S
H1870 C1876 0.950 . S
H1871 C1877 0.950 . S
H1872 C1878 0.949 . S
C1873 H1868 0.950 . S
C1873 C1875 1.327 . S
C1873 C1879 1.429 . S
C1874 C1866 1.574 . S
C1874 H1869 0.949 . S
C1874 C1880 1.368 . S
C1875 C1859 1.349 . S
C1875 H1867 0.950 . S
C1875 C1873 1.327 . S
C1876 C1864 1.349 . S
C1876 H1870 0.950 . S
C1876 C1877 1.327 . S
C1877 H1871 0.950 . S
C1877 C1876 1.327 . S
C1877 C1881 1.429 . S
C1878 C1861 1.574 . S
C1878 H1872 0.949 . S
C1878 C1882 1.368 . S
C1879 C1860 1.429 . S
C1879 C1873 1.429 . S
C1879 C1880 1.523 . S
C1880 C1861 1.368 . S
C1880 C1874 1.368 . S
C1880 C1879 1.523 . S
C1881 C1865 1.429 . S
C1881 C1877 1.429 . S
C1881 C1882 1.523 . S
C1882 C1866 1.368 . S
C1882 C1878 1.368 . S
C1882 C1881 1.523 . S
H1883 C1858 0.950 1_455 S
H1884 C1860 0.950 . S
H1885 C1861 0.949 . S
H1886 C1863 0.950 . S
H1887 C1865 0.950 . S
C1888 C1889 1.349 . S
C1888 C1890 1.327 . S
C1888 H1913 0.950 . S
C1889 C1888 1.349 . S
C1889 C1905 1.349 . S
C1890 C1888 1.327 . S
C1890 C1909 1.429 . S
C1890 H1914 0.950 . S
C1891 C1908 1.574 . S
C1891 C1910 1.368 . S
C1891 H1915 0.949 . S
H1892 C1896 0.949 . S
C1893 C1894 1.349 . S
C1893 C1895 1.327 . S
C1893 H1916 0.950 . S
C1894 C1893 1.349 . S
C1894 C1906 1.349 . S
C1895 C1893 1.327 . S
C1895 C1911 1.429 . S
C1895 H1917 0.950 . S
C1896 H1892 0.949 . S
C1896 C1904 1.574 . S
C1896 C1912 1.368 . S
H1897 C1905 0.950 . S
H1898 C1903 0.950 . S
H1899 C1904 0.949 . S
H1900 C1906 0.950 . S
H1901 C1907 0.950 . S
H1902 C1908 0.949 . S
C1903 H1898 0.950 . S
C1903 C1905 1.327 . S
C1903 C1909 1.429 . S
C1904 C1896 1.574 . S
C1904 H1899 0.949 . S
C1904 C1910 1.368 . S
C1905 C1889 1.349 . S
C1905 H1897 0.950 . S
C1905 C1903 1.327 . S
C1906 C1894 1.349 . S
C1906 H1900 0.950 . S
C1906 C1907 1.327 . S
C1907 H1901 0.950 . S
C1907 C1906 1.327 . S
C1907 C1911 1.429 . S
C1908 C1891 1.574 . S
C1908 H1902 0.949 . S
C1908 C1912 1.368 . S
C1909 C1890 1.429 . S
C1909 C1903 1.429 . S
C1909 C1910 1.523 . S
C1910 C1891 1.368 . S
C1910 C1904 1.368 . S
C1910 C1909 1.523 . S
C1911 C1895 1.429 . S
C1911 C1907 1.429 . S
C1911 C1912 1.523 . S
C1912 C1896 1.368 . S
C1912 C1908 1.368 . S
C1912 C1911 1.523 . S
H1913 C1888 0.950 . S
H1914 C1890 0.950 . S
H1915 C1891 0.949 . S
H1916 C1893 0.950 . S
H1917 C1895 0.950 . S
C1918 C1919 1.349 . S
C1918 C1920 1.327 . S
C1918 H1943 0.950 . S
C1919 C1918 1.349 . S
C1919 C1935 1.349 . S
C1920 C1918 1.327 . S
C1920 C1939 1.429 . S
C1920 H1944 0.950 . S
C1921 C1938 1.574 . S
C1921 C1940 1.368 . S
C1921 H1945 0.949 . S
H1922 C1926 0.949 . S
C1923 C1924 1.349 . S
C1923 C1925 1.327 . S
C1923 H1946 0.950 . S
C1924 C1923 1.349 . S
C1924 C1936 1.349 . S
C1925 C1923 1.327 . S
C1925 C1941 1.429 . S
C1925 H1947 0.950 . S
C1926 H1922 0.949 . S
C1926 C1934 1.574 . S
C1926 C1942 1.368 . S
H1927 C1935 0.950 . S
H1928 C1933 0.950 . S
H1929 C1934 0.949 . S
H1930 C1936 0.950 . S
H1931 C1937 0.950 . S
H1932 C1938 0.949 . S
C1933 H1928 0.950 . S
C1933 C1935 1.327 . S
C1933 C1939 1.429 . S
C1934 C1926 1.574 . S
C1934 H1929 0.949 . S
C1934 C1940 1.368 . S
C1935 C1919 1.349 . S
C1935 H1927 0.950 . S
C1935 C1933 1.327 . S
C1936 C1924 1.349 . S
C1936 H1930 0.950 . S
C1936 C1937 1.327 . S
C1937 H1931 0.950 . S
C1937 C1936 1.327 . S
C1937 C1941 1.429 . S
C1938 C1921 1.574 . S
C1938 H1932 0.949 . S
C1938 C1942 1.368 . S
C1939 C1920 1.429 . S
C1939 C1933 1.429 . S
C1939 C1940 1.523 . S
C1940 C1921 1.368 . S
C1940 C1934 1.368 . S
C1940 C1939 1.523 . S
C1941 C1925 1.429 . S
C1941 C1937 1.429 . S
C1941 C1942 1.523 . S
C1942 C1926 1.368 . S
C1942 C1938 1.368 . S
C1942 C1941 1.523 . S
H1943 C1918 0.950 . S
H1944 C1920 0.950 . S
H1945 C1921 0.949 . S
H1946 C1923 0.950 . S
H1947 C1925 0.950 . S
C1948 C1949 1.349 . S
C1948 C1950 1.327 . S
C1948 H1973 0.950 . S
C1949 C1948 1.349 . S
C1949 C1965 1.349 . S
C1950 C1948 1.327 . S
C1950 C1969 1.429 . S
C1950 H1974 0.950 . S
C1951 C1968 1.574 . S
C1951 C1970 1.368 . S
C1951 H1975 0.949 . S
H1952 C1956 0.949 . S
C1953 C1954 1.349 . S
C1953 C1955 1.327 . S
C1953 H1976 0.950 . S
C1954 C1953 1.349 . S
C1954 C1966 1.349 . S
C1955 C1953 1.327 . S
C1955 C1971 1.429 . S
C1955 H1977 0.950 . S
C1956 H1952 0.949 . S
C1956 C1964 1.574 . S
C1956 C1972 1.368 . S
H1957 C1965 0.950 . S
H1958 C1963 0.950 . S
H1959 C1964 0.949 . S
H1960 C1966 0.950 . S
H1961 C1967 0.950 . S
H1962 C1968 0.949 . S
C1963 H1958 0.950 . S
C1963 C1965 1.327 . S
C1963 C1969 1.429 . S
C1964 C1956 1.574 . S
C1964 H1959 0.949 . S
C1964 C1970 1.368 . S
C1965 C1949 1.349 . S
C1965 H1957 0.950 . S
C1965 C1963 1.327 . S
C1966 C1954 1.349 . S
C1966 H1960 0.950 . S
C1966 C1967 1.327 . S
C1967 H1961 0.950 . S
C1967 C1966 1.327 . S
C1967 C1971 1.429 . S
C1968 C1951 1.574 . S
C1968 H1962 0.949 . S
C1968 C1972 1.368 . S
C1969 C1950 1.429 . S
C1969 C1963 1.429 . S
C1969 C1970 1.523 . S
C1970 C1951 1.368 . S
C1970 C1964 1.368 . S
C1970 C1969 1.523 . S
C1971 C1955 1.429 . S
C1971 C1967 1.429 . S
C1971 C1972 1.523 . S
C1972 C1956 1.368 . S
C1972 C1968 1.368 . S
C1972 C1971 1.523 . S
H1973 C1948 0.950 . S
H1974 C1950 0.950 . S
H1975 C1951 0.949 . S
H1976 C1953 0.950 . S
H1977 C1955 0.950 . S
C1978 C1979 1.349 . S
C1978 C1980 1.327 . S
C1978 H2003 0.950 . S
C1979 C1978 1.349 . S
C1979 C1995 1.349 . S
C1980 C1978 1.327 . S
C1980 C1999 1.429 . S
C1980 H2004 0.950 . S
C1981 C1998 1.574 . S
C1981 C2000 1.368 . S
C1981 H2005 0.949 . S
H1982 C1986 0.949 . S
C1983 C1984 1.349 . S
C1983 C1985 1.327 . S
C1983 H2006 0.950 . S
C1984 C1983 1.349 . S
C1984 C1996 1.349 . S
C1985 C1983 1.327 . S
C1985 C2001 1.429 . S
C1985 H2007 0.950 . S
C1986 H1982 0.949 . S
C1986 C1994 1.574 . S
C1986 C2002 1.368 . S
H1987 C1995 0.950 . S
H1988 C1993 0.950 . S
H1989 C1994 0.949 . S
H1990 C1996 0.964 . S
H1991 C1997 0.950 . S
H1992 C1998 0.949 . S
C1993 H1988 0.950 . S
C1993 C1995 1.327 . S
C1993 C1999 1.429 . S
C1994 C1986 1.574 . S
C1994 H1989 0.949 . S
C1994 C2000 1.368 . S
C1995 C1979 1.349 . S
C1995 H1987 0.950 . S
C1995 C1993 1.327 . S
C1996 C1984 1.349 . S
C1996 H1990 0.964 . S
C1996 C1997 1.327 . S
C1997 H1991 0.950 . S
C1997 C1996 1.327 . S
C1997 C2001 1.429 . S
C1998 C1981 1.574 . S
C1998 H1992 0.949 . S
C1998 C2002 1.368 . S
C1999 C1980 1.429 . S
C1999 C1993 1.429 . S
C1999 C2000 1.523 . S
C2000 C1981 1.368 . S
C2000 C1994 1.368 . S
C2000 C1999 1.523 . S
C2001 C1985 1.429 . S
C2001 C1997 1.429 . S
C2001 C2002 1.523 . S
C2002 C1986 1.368 . S
C2002 C1998 1.368 . S
C2002 C2001 1.523 . S
H2003 C1978 0.950 . S
H2004 C1980 0.950 . S
H2005 C1981 0.949 . S
H2006 C1983 0.950 . S
H2007 C1985 0.950 . S
C2008 C2009 1.349 . S
C2008 C2010 1.327 . S
C2008 H2033 0.950 . S
C2009 C2008 1.349 . S
C2009 C2025 1.349 . S
C2010 C2008 1.327 . S
C2010 C2029 1.429 . S
C2010 H2034 0.950 . S
C2011 C2028 1.574 . S
C2011 C2030 1.368 . S
C2011 H2035 0.949 . S
H2012 C2016 0.949 . S
C2013 C2014 1.349 . S
C2013 C2015 1.327 . S
C2013 H2036 0.950 . S
C2014 C2013 1.349 . S
C2014 C2026 1.349 . S
C2015 C2013 1.327 . S
C2015 C2031 1.429 . S
C2015 H2037 0.950 . S
C2016 H2012 0.949 . S
C2016 C2024 1.574 . S
C2016 C2032 1.368 . S
H2017 C2025 0.950 . S
H2018 C2023 0.950 . S
H2019 C2024 0.949 . S
H2020 C2026 0.950 . S
H2021 C2027 0.950 . S
H2022 C2028 0.949 . S
C2023 H2018 0.950 . S
C2023 C2025 1.327 . S
C2023 C2029 1.429 . S
C2024 C2016 1.574 . S
C2024 H2019 0.949 . S
C2024 C2030 1.368 . S
C2025 C2009 1.349 . S
C2025 H2017 0.950 . S
C2025 C2023 1.327 . S
C2026 C2014 1.349 . S
C2026 H2020 0.950 . S
C2026 C2027 1.327 . S
C2027 H2021 0.950 . S
C2027 C2026 1.327 . S
C2027 C2031 1.429 . S
C2028 C2011 1.574 . S
C2028 H2022 0.949 . S
C2028 C2032 1.368 . S
C2029 C2010 1.429 . S
C2029 C2023 1.429 . S
C2029 C2030 1.523 . S
C2030 C2011 1.368 . S
C2030 C2024 1.368 . S
C2030 C2029 1.523 . S
C2031 C2015 1.429 . S
C2031 C2027 1.429 . S
C2031 C2032 1.523 . S
C2032 C2016 1.368 . S
C2032 C2028 1.368 . S
C2032 C2031 1.523 . S
H2033 C2008 0.950 . S
H2034 C2010 0.950 . S
H2035 C2011 0.949 . S
H2036 C2013 0.950 . S
H2037 C2015 0.950 . S
C2038 C2039 1.349 . S
C2038 C2040 1.327 . S
C2038 H2063 0.950 . S
C2039 C2038 1.349 . S
C2039 C2055 1.349 . S
C2040 C2038 1.327 . S
C2040 C2059 1.429 . S
C2040 H2064 0.950 . S
C2041 C2058 1.574 . S
C2041 C2060 1.368 . S
C2041 H2065 0.949 . S
H2042 C2046 0.949 . S
C2043 C2044 1.349 . S
C2043 C2045 1.327 . S
C2043 H2066 0.950 . S
C2044 C2043 1.349 . S
C2044 C2056 1.349 . S
C2045 C2043 1.327 . S
C2045 C2061 1.429 . S
C2045 H2067 0.950 . S
C2046 H2042 0.949 . S
C2046 C2054 1.574 . S
C2046 C2062 1.368 . S
H2047 C2055 0.950 1_455 S
H2048 C2053 0.950 . S
H2049 C2054 0.949 . S
H2050 C2056 0.950 . S
H2051 C2057 0.950 . S
H2052 C2058 0.949 . S
C2053 H2048 0.950 . S
C2053 C2055 1.327 . S
C2053 C2059 1.429 . S
C2054 C2046 1.574 . S
C2054 H2049 0.949 . S
C2054 C2060 1.368 . S
C2055 C2039 1.349 . S
C2055 H2047 0.950 1_655 S
C2055 C2053 1.327 . S
C2056 C2044 1.349 . S
C2056 H2050 0.950 . S
C2056 C2057 1.327 . S
C2057 H2051 0.950 . S
C2057 C2056 1.327 . S
C2057 C2061 1.429 . S
C2058 C2041 1.574 . S
C2058 H2052 0.949 . S
C2058 C2062 1.368 . S
C2059 C2040 1.429 . S
C2059 C2053 1.429 . S
C2059 C2060 1.523 . S
C2060 C2041 1.368 . S
C2060 C2054 1.368 . S
C2060 C2059 1.523 . S
C2061 C2045 1.429 . S
C2061 C2057 1.429 . S
C2061 C2062 1.523 . S
C2062 C2046 1.368 . S
C2062 C2058 1.368 . S
C2062 C2061 1.523 . S
H2063 C2038 0.950 . S
H2064 C2040 0.950 . S
H2065 C2041 0.949 . S
H2066 C2043 0.950 . S
H2067 C2045 0.950 . S
C2068 C2069 1.349 . S
C2068 C2070 1.327 . S
C2068 H2093 0.950 . S
C2069 C2068 1.349 . S
C2069 C2085 1.349 . S
C2070 C2068 1.327 . S
C2070 C2089 1.429 . S
C2070 H2094 0.950 . S
C2071 C2088 1.574 . S
C2071 C2090 1.368 . S
C2071 H2095 0.949 . S
H2072 C2076 0.949 . S
C2073 C2074 1.349 . S
C2073 C2075 1.327 . S
C2073 H2096 0.950 . S
C2074 C2073 1.349 . S
C2074 C2086 1.349 . S
C2075 C2073 1.327 . S
C2075 C2091 1.429 . S
C2075 H2097 0.950 . S
C2076 H2072 0.949 . S
C2076 C2084 1.574 . S
C2076 C2092 1.368 . S
H2077 C2085 0.950 . S
H2078 C2083 0.950 . S
H2079 C2084 0.949 . S
H2080 C2086 0.950 . S
H2081 C2087 0.950 . S
H2082 C2088 0.949 . S
C2083 H2078 0.950 . S
C2083 C2085 1.327 . S
C2083 C2089 1.429 . S
C2084 C2076 1.574 . S
C2084 H2079 0.949 . S
C2084 C2090 1.368 . S
C2085 C2069 1.349 . S
C2085 H2077 0.950 . S
C2085 C2083 1.327 . S
C2086 C2074 1.349 . S
C2086 H2080 0.950 . S
C2086 C2087 1.327 . S
C2087 H2081 0.950 . S
C2087 C2086 1.327 . S
C2087 C2091 1.429 . S
C2088 C2071 1.574 . S
C2088 H2082 0.949 . S
C2088 C2092 1.368 . S
C2089 C2070 1.429 . S
C2089 C2083 1.429 . S
C2089 C2090 1.523 . S
C2090 C2071 1.368 . S
C2090 C2084 1.368 . S
C2090 C2089 1.523 . S
C2091 C2075 1.429 . S
C2091 C2087 1.429 . S
C2091 C2092 1.523 . S
C2092 C2076 1.368 . S
C2092 C2088 1.368 . S
C2092 C2091 1.523 . S
H2093 C2068 0.950 . S
H2094 C2070 0.950 . S
H2095 C2071 0.949 . S
H2096 C2073 0.950 . S
H2097 C2075 0.950 . S
C2098 C2099 1.349 . S
C2098 C2100 1.327 . S
C2098 H2123 0.950 . S
C2099 C2098 1.349 . S
C2099 C2115 1.349 . S
C2100 C2098 1.327 . S
C2100 C2119 1.429 . S
C2100 H2124 0.950 . S
C2101 C2118 1.574 . S
C2101 C2120 1.368 . S
C2101 H2125 0.949 . S
H2102 C2106 0.949 . S
C2103 C2104 1.349 . S
C2103 C2105 1.327 . S
C2103 H2126 0.950 . S
C2104 C2103 1.349 . S
C2104 C2116 1.349 . S
C2105 C2103 1.327 . S
C2105 C2121 1.429 . S
C2105 H2127 0.950 . S
C2106 H2102 0.949 . S
C2106 C2114 1.574 . S
C2106 C2122 1.368 . S
H2107 C2115 0.950 . S
H2108 C2113 0.950 . S
H2109 C2114 0.949 . S
H2110 C2116 0.950 . S
H2111 C2117 0.950 . S
H2112 C2118 0.949 . S
C2113 H2108 0.950 . S
C2113 C2115 1.327 . S
C2113 C2119 1.429 . S
C2114 C2106 1.574 . S
C2114 H2109 0.949 . S
C2114 C2120 1.368 . S
C2115 C2099 1.349 . S
C2115 H2107 0.950 . S
C2115 C2113 1.327 . S
C2116 C2104 1.349 . S
C2116 H2110 0.950 . S
C2116 C2117 1.327 . S
C2117 H2111 0.950 . S
C2117 C2116 1.327 . S
C2117 C2121 1.429 . S
C2118 C2101 1.574 . S
C2118 H2112 0.949 . S
C2118 C2122 1.368 . S
C2119 C2100 1.429 . S
C2119 C2113 1.429 . S
C2119 C2120 1.523 . S
C2120 C2101 1.368 . S
C2120 C2114 1.368 . S
C2120 C2119 1.523 . S
C2121 C2105 1.429 . S
C2121 C2117 1.429 . S
C2121 C2122 1.523 . S
C2122 C2106 1.368 . S
C2122 C2118 1.368 . S
C2122 C2121 1.523 . S
H2123 C2098 0.950 . S
H2124 C2100 0.950 . S
H2125 C2101 0.949 . S
H2126 C2103 0.950 . S
H2127 C2105 0.950 . S
C2128 C2129 1.349 . S
C2128 C2130 1.327 . S
C2128 H2153 0.950 . S
C2129 C2128 1.349 . S
C2129 C2145 1.349 . S
C2130 C2128 1.327 . S
C2130 C2149 1.429 . S
C2130 H2154 0.950 . S
C2131 C2148 1.574 . S
C2131 C2150 1.368 . S
C2131 H2155 0.949 . S
H2132 C2136 0.949 . S
C2133 C2134 1.349 . S
C2133 C2135 1.327 . S
C2133 H2156 0.950 . S
C2134 C2133 1.349 . S
C2134 C2146 1.349 . S
C2135 C2133 1.327 . S
C2135 C2151 1.429 . S
C2135 H2157 0.950 . S
C2136 H2132 0.949 . S
C2136 C2144 1.574 . S
C2136 C2152 1.368 . S
H2137 C2145 0.950 . S
H2138 C2143 0.950 . S
H2139 C2144 0.949 . S
H2140 C2146 0.950 . S
H2141 C2147 0.950 . S
H2142 C2148 0.949 . S
C2143 H2138 0.950 . S
C2143 C2145 1.327 . S
C2143 C2149 1.429 . S
C2144 C2136 1.574 . S
C2144 H2139 0.949 . S
C2144 C2150 1.368 . S
C2145 C2129 1.349 . S
C2145 H2137 0.950 . S
C2145 C2143 1.327 . S
C2146 C2134 1.349 . S
C2146 H2140 0.950 . S
C2146 C2147 1.327 . S
C2147 H2141 0.950 . S
C2147 C2146 1.327 . S
C2147 C2151 1.429 . S
C2148 C2131 1.574 . S
C2148 H2142 0.949 . S
C2148 C2152 1.368 . S
C2149 C2130 1.429 . S
C2149 C2143 1.429 . S
C2149 C2150 1.523 . S
C2150 C2131 1.368 . S
C2150 C2144 1.368 . S
C2150 C2149 1.523 . S
C2151 C2135 1.429 . S
C2151 C2147 1.429 . S
C2151 C2152 1.523 . S
C2152 C2136 1.368 . S
C2152 C2148 1.368 . S
C2152 C2151 1.523 . S
H2153 C2128 0.950 . S
H2154 C2130 0.950 . S
H2155 C2131 0.949 . S
H2156 C2133 0.950 . S
H2157 C2135 0.950 . S
C2158 C2159 1.349 . S
C2158 C2160 1.327 . S
C2158 H2183 0.950 . S
C2159 C2158 1.349 . S
C2159 C2175 1.349 . S
C2160 C2158 1.327 . S
C2160 C2179 1.429 . S
C2160 H2184 0.950 . S
C2161 C2178 1.574 . S
C2161 C2180 1.368 . S
C2161 H2185 0.949 . S
H2162 C2166 0.949 . S
C2163 C2164 1.349 . S
C2163 C2165 1.327 . S
C2163 H2186 0.950 . S
C2164 C2163 1.349 . S
C2164 C2176 1.349 . S
C2165 C2163 1.327 . S
C2165 C2181 1.429 . S
C2165 H2187 0.950 . S
C2166 H2162 0.949 . S
C2166 C2174 1.574 . S
C2166 C2182 1.368 . S
H2167 C2175 0.950 . S
H2168 C2173 0.950 . S
H2169 C2174 0.949 . S
H2170 C2176 0.950 . S
H2171 C2177 0.950 . S
H2172 C2178 0.949 . S
C2173 H2168 0.950 . S
C2173 C2175 1.327 . S
C2173 C2179 1.429 . S
C2174 C2166 1.574 . S
C2174 H2169 0.949 . S
C2174 C2180 1.368 . S
C2175 C2159 1.349 . S
C2175 H2167 0.950 . S
C2175 C2173 1.327 . S
C2176 C2164 1.349 . S
C2176 H2170 0.950 . S
C2176 C2177 1.327 . S
C2177 H2171 0.950 . S
C2177 C2176 1.327 . S
C2177 C2181 1.429 . S
C2178 C2161 1.574 . S
C2178 H2172 0.949 . S
C2178 C2182 1.368 . S
C2179 C2160 1.429 . S
C2179 C2173 1.429 . S
C2179 C2180 1.523 . S
C2180 C2161 1.368 . S
C2180 C2174 1.368 . S
C2180 C2179 1.523 . S
C2181 C2165 1.429 . S
C2181 C2177 1.429 . S
C2181 C2182 1.523 . S
C2182 C2166 1.368 . S
C2182 C2178 1.368 . S
C2182 C2181 1.523 . S
H2183 C2158 0.950 . S
H2184 C2160 0.950 . S
H2185 C2161 0.949 . S
H2186 C2163 0.950 . S
H2187 C2165 0.950 . S
C2188 C2189 1.349 . S
C2188 C2190 1.327 . S
C2188 H2213 0.950 . S
C2189 C2188 1.349 . S
C2189 C2205 1.349 . S
C2190 C2188 1.327 . S
C2190 C2209 1.429 . S
C2190 H2214 0.950 . S
C2191 C2208 1.574 . S
C2191 C2210 1.368 . S
C2191 H2215 0.949 . S
H2192 C2196 0.949 . S
C2193 C2194 1.349 . S
C2193 C2195 1.327 . S
C2193 H2216 0.950 . S
C2194 C2193 1.349 . S
C2194 C2206 1.349 . S
C2195 C2193 1.327 . S
C2195 C2211 1.429 . S
C2195 H2217 0.950 . S
C2196 H2192 0.949 . S
C2196 C2204 1.574 . S
C2196 C2212 1.368 . S
H2197 C2205 0.950 . S
H2198 C2203 0.950 . S
H2199 C2204 0.949 . S
H2200 C2206 0.950 . S
H2201 C2207 0.950 . S
H2202 C2208 0.949 . S
C2203 H2198 0.950 . S
C2203 C2205 1.327 . S
C2203 C2209 1.429 . S
C2204 C2196 1.574 . S
C2204 H2199 0.949 . S
C2204 C2210 1.368 . S
C2205 C2189 1.349 . S
C2205 H2197 0.950 . S
C2205 C2203 1.327 . S
C2206 C2194 1.349 . S
C2206 H2200 0.950 . S
C2206 C2207 1.327 . S
C2207 H2201 0.950 . S
C2207 C2206 1.327 . S
C2207 C2211 1.429 . S
C2208 C2191 1.574 . S
C2208 H2202 0.949 . S
C2208 C2212 1.368 . S
C2209 C2190 1.429 . S
C2209 C2203 1.429 . S
C2209 C2210 1.523 . S
C2210 C2191 1.368 . S
C2210 C2204 1.368 . S
C2210 C2209 1.523 . S
C2211 C2195 1.429 . S
C2211 C2207 1.429 . S
C2211 C2212 1.523 . S
C2212 C2196 1.368 . S
C2212 C2208 1.368 . S
C2212 C2211 1.523 . S
H2213 C2188 0.950 . S
H2214 C2190 0.950 . S
H2215 C2191 0.949 . S
H2216 C2193 0.950 . S
H2217 C2195 0.950 . S
C2218 C2219 1.349 . S
C2218 C2220 1.327 . S
C2218 H2243 0.950 . S
C2219 C2218 1.349 . S
C2219 C2235 1.349 . S
C2220 C2218 1.327 . S
C2220 C2239 1.429 . S
C2220 H2244 0.950 . S
C2221 C2238 1.574 . S
C2221 C2240 1.368 . S
C2221 H2245 0.949 . S
H2222 C2226 0.949 . S
C2223 C2224 1.349 . S
C2223 C2225 1.327 . S
C2223 H2246 0.950 . S
C2224 C2223 1.349 . S
C2224 C2236 1.349 . S
C2225 C2223 1.327 . S
C2225 C2241 1.429 . S
C2225 H2247 0.950 . S
C2226 H2222 0.949 . S
C2226 C2234 1.574 . S
C2226 C2242 1.368 . S
H2227 C2235 0.950 . S
H2228 C2233 0.950 . S
H2229 C2234 0.949 . S
H2230 C2236 0.950 . S
H2231 C2237 0.950 . S
H2232 C2238 0.949 . S
C2233 H2228 0.950 . S
C2233 C2235 1.327 . S
C2233 C2239 1.429 . S
C2234 C2226 1.574 . S
C2234 H2229 0.949 . S
C2234 C2240 1.368 . S
C2235 C2219 1.349 . S
C2235 H2227 0.950 . S
C2235 C2233 1.327 . S
C2236 C2224 1.349 . S
C2236 H2230 0.950 . S
C2236 C2237 1.327 . S
C2237 H2231 0.950 . S
C2237 C2236 1.327 . S
C2237 C2241 1.429 . S
C2238 C2221 1.574 . S
C2238 H2232 0.949 . S
C2238 C2242 1.368 . S
C2239 C2220 1.429 . S
C2239 C2233 1.429 . S
C2239 C2240 1.523 . S
C2240 C2221 1.368 . S
C2240 C2234 1.368 . S
C2240 C2239 1.523 . S
C2241 C2225 1.429 . S
C2241 C2237 1.429 . S
C2241 C2242 1.523 . S
C2242 C2226 1.368 . S
C2242 C2238 1.368 . S
C2242 C2241 1.523 . S
H2243 C2218 0.950 . S
H2244 C2220 0.950 . S
H2245 C2221 0.949 . S
H2246 C2223 0.950 . S
H2247 C2225 0.950 . S
C2248 C2249 1.349 . S
C2248 C2250 1.327 . S
C2248 H2273 0.950 . S
C2249 C2248 1.349 . S
C2249 C2265 1.349 . S
C2250 C2248 1.327 . S
C2250 C2269 1.429 . S
C2250 H2274 0.950 . S
C2251 C2268 1.574 . S
C2251 C2270 1.368 . S
C2251 H2275 0.949 . S
H2252 C2256 0.949 . S
C2253 C2254 1.349 . S
C2253 C2255 1.327 . S
C2253 H2276 0.950 . S
C2254 C2253 1.349 . S
C2254 C2266 1.349 . S
C2255 C2253 1.327 . S
C2255 C2271 1.429 . S
C2255 H2277 0.950 . S
C2256 H2252 0.949 . S
C2256 C2264 1.574 . S
C2256 C2272 1.368 . S
H2257 C2265 0.950 . S
H2258 C2263 0.950 . S
H2259 C2264 0.949 . S
H2260 C2266 0.950 . S
H2261 C2267 0.950 . S
H2262 C2268 0.949 . S
C2263 H2258 0.950 . S
C2263 C2265 1.327 . S
C2263 C2269 1.429 . S
C2264 C2256 1.574 . S
C2264 H2259 0.949 . S
C2264 C2270 1.368 . S
C2265 C2249 1.349 . S
C2265 H2257 0.950 . S
C2265 C2263 1.327 . S
C2266 C2254 1.349 . S
C2266 H2260 0.950 . S
C2266 C2267 1.327 . S
C2267 H2261 0.950 . S
C2267 C2266 1.327 . S
C2267 C2271 1.429 . S
C2268 C2251 1.574 . S
C2268 H2262 0.949 . S
C2268 C2272 1.368 . S
C2269 C2250 1.429 . S
C2269 C2263 1.429 . S
C2269 C2270 1.523 . S
C2270 C2251 1.368 . S
C2270 C2264 1.368 . S
C2270 C2269 1.523 . S
C2271 C2255 1.429 . S
C2271 C2267 1.429 . S
C2271 C2272 1.523 . S
C2272 C2256 1.368 . S
C2272 C2268 1.368 . S
C2272 C2271 1.523 . S
H2273 C2248 0.950 . S
H2274 C2250 0.950 . S
H2275 C2251 0.949 . S
H2276 C2253 0.950 . S
H2277 C2255 0.950 . S
C2278 C2279 1.349 . S
C2278 C2280 1.327 . S
C2278 H2303 0.950 . S
C2279 C2278 1.349 . S
C2279 C2295 1.349 . S
C2280 C2278 1.327 . S
C2280 C2299 1.429 . S
C2280 H2304 0.950 . S
C2281 C2298 1.574 . S
C2281 C2300 1.368 . S
C2281 H2305 0.949 . S
H2282 C2286 0.949 . S
C2283 C2284 1.349 . S
C2283 C2285 1.327 . S
C2283 H2306 0.950 . S
C2284 C2283 1.349 . S
C2284 C2296 1.349 . S
C2285 C2283 1.327 . S
C2285 C2301 1.429 . S
C2285 H2307 0.950 . S
C2286 H2282 0.949 . S
C2286 C2294 1.574 . S
C2286 C2302 1.368 . S
H2287 C2295 0.950 . S
H2288 C2293 0.950 . S
H2289 C2294 0.949 . S
H2290 C2296 0.950 . S
H2291 C2297 0.950 . S
H2292 C2298 0.949 . S
C2293 H2288 0.950 . S
C2293 C2295 1.327 . S
C2293 C2299 1.429 . S
C2294 C2286 1.574 . S
C2294 H2289 0.949 . S
C2294 C2300 1.368 . S
C2295 C2279 1.349 . S
C2295 H2287 0.950 . S
C2295 C2293 1.327 . S
C2296 C2284 1.349 . S
C2296 H2290 0.950 . S
C2296 C2297 1.327 . S
C2297 H2291 0.950 . S
C2297 C2296 1.327 . S
C2297 C2301 1.429 . S
C2298 C2281 1.574 . S
C2298 H2292 0.949 . S
C2298 C2302 1.368 . S
C2299 C2280 1.429 . S
C2299 C2293 1.429 . S
C2299 C2300 1.523 . S
C2300 C2281 1.368 . S
C2300 C2294 1.368 . S
C2300 C2299 1.523 . S
C2301 C2285 1.429 . S
C2301 C2297 1.429 . S
C2301 C2302 1.523 . S
C2302 C2286 1.368 . S
C2302 C2298 1.368 . S
C2302 C2301 1.523 . S
H2303 C2278 0.950 . S
H2304 C2280 0.950 . S
H2305 C2281 0.949 . S
H2306 C2283 0.950 . S
H2307 C2285 0.950 . S
C2308 C2309 1.349 . S
C2308 C2310 1.327 . S
C2308 H2333 0.950 . S
C2309 C2308 1.349 . S
C2309 C2325 1.349 . S
C2310 C2308 1.327 . S
C2310 C2329 1.429 . S
C2310 H2334 0.950 . S
C2311 C2328 1.574 . S
C2311 C2330 1.368 . S
C2311 H2335 0.949 . S
H2312 C2316 0.949 . S
C2313 C2314 1.349 . S
C2313 C2315 1.327 . S
C2313 H2336 0.950 . S
C2314 C2313 1.349 . S
C2314 C2326 1.349 . S
C2315 C2313 1.327 . S
C2315 C2331 1.429 . S
C2315 H2337 0.950 . S
C2316 H2312 0.949 . S
C2316 C2324 1.574 . S
C2316 C2332 1.368 . S
H2317 C2325 0.950 . S
H2318 C2323 0.950 . S
H2319 C2324 0.949 . S
H2320 C2326 0.950 . S
H2321 C2327 0.950 . S
H2322 C2328 0.949 . S
C2323 H2318 0.950 . S
C2323 C2325 1.327 . S
C2323 C2329 1.429 . S
C2324 C2316 1.574 . S
C2324 H2319 0.949 . S
C2324 C2330 1.368 . S
C2325 C2309 1.349 . S
C2325 H2317 0.950 . S
C2325 C2323 1.327 . S
C2326 C2314 1.349 . S
C2326 H2320 0.950 . S
C2326 C2327 1.327 . S
C2327 H2321 0.950 . S
C2327 C2326 1.327 . S
C2327 C2331 1.429 . S
C2328 C2311 1.574 . S
C2328 H2322 0.949 . S
C2328 C2332 1.368 . S
C2329 C2310 1.429 . S
C2329 C2323 1.429 . S
C2329 C2330 1.523 . S
C2330 C2311 1.368 . S
C2330 C2324 1.368 . S
C2330 C2329 1.523 . S
C2331 C2315 1.429 . S
C2331 C2327 1.429 . S
C2331 C2332 1.523 . S
C2332 C2316 1.368 . S
C2332 C2328 1.368 . S
C2332 C2331 1.523 . S
H2333 C2308 0.950 . S
H2334 C2310 0.950 . S
H2335 C2311 0.949 . S
H2336 C2313 0.950 . S
H2337 C2315 0.950 . S
C2338 C2339 1.349 . S
C2338 C2340 1.327 . S
C2338 H2363 0.950 . S
C2339 C2338 1.349 . S
C2339 C2355 1.349 . S
C2340 C2338 1.327 . S
C2340 C2359 1.429 . S
C2340 H2364 0.950 . S
C2341 C2358 1.574 . S
C2341 C2360 1.368 . S
C2341 H2365 0.949 . S
H2342 C2346 0.949 . S
C2343 C2344 1.349 . S
C2343 C2345 1.327 . S
C2343 H2366 0.950 . S
C2344 C2343 1.349 . S
C2344 C2356 1.349 . S
C2345 C2343 1.327 . S
C2345 C2361 1.429 . S
C2345 H2367 0.950 . S
C2346 H2342 0.949 . S
C2346 C2354 1.574 . S
C2346 C2362 1.368 . S
H2347 C2355 0.950 . S
H2348 C2353 0.950 . S
H2349 C2354 0.949 . S
H2350 C2356 0.950 . S
H2351 C2357 0.950 . S
H2352 C2358 0.949 . S
C2353 H2348 0.950 . S
C2353 C2355 1.327 . S
C2353 C2359 1.429 . S
C2354 C2346 1.574 . S
C2354 H2349 0.949 . S
C2354 C2360 1.368 . S
C2355 C2339 1.349 . S
C2355 H2347 0.950 . S
C2355 C2353 1.327 . S
C2356 C2344 1.349 . S
C2356 H2350 0.950 . S
C2356 C2357 1.327 . S
C2357 H2351 0.950 . S
C2357 C2356 1.327 . S
C2357 C2361 1.429 . S
C2358 C2341 1.574 . S
C2358 H2352 0.949 . S
C2358 C2362 1.368 . S
C2359 C2340 1.429 . S
C2359 C2353 1.429 . S
C2359 C2360 1.523 . S
C2360 C2341 1.368 . S
C2360 C2354 1.368 . S
C2360 C2359 1.523 . S
C2361 C2345 1.429 . S
C2361 C2357 1.429 . S
C2361 C2362 1.523 . S
C2362 C2346 1.368 . S
C2362 C2358 1.368 . S
C2362 C2361 1.523 . S
H2363 C2338 0.950 . S
H2364 C2340 0.950 . S
H2365 C2341 0.949 . S
H2366 C2343 0.950 . S
H2367 C2345 0.950 . S
C449 C67 1.483 . S
C454 C11 1.483 . S
C479 C81 1.483 . S
C484 C25 1.483 . S
C509 C95 1.483 . S
C514 C39 1.483 . S
C539 C53 1.483 . S
C544 C109 1.483 . S
C569 C123 1.483 . S
C574 C179 1.483 . S
C599 C193 1.483 . S
C604 C137 1.483 . S
C629 C151 1.483 . S
C634 C207 1.483 . S
C659 C221 1.483 . S
C664 C165 1.483 . S
C689 C235 1.483 . S
C694 C291 1.483 . S
C719 C305 1.483 . S
C724 C249 1.483 . S
C749 C319 1.483 . S
C754 C263 1.483 . S
C779 C333 1.483 . S
C784 C277 1.483 . S
C809 C347 1.483 . S
C814 C403 1.483 . S
C839 C361 1.483 . S
C844 C417 1.483 . S
C869 C375 1.483 . S
C874 C431 1.483 . S
C899 C389 1.483 . S
C904 C445 1.483 . S
C929 C12 0.674 . S
C934 C110 0.674 . S
C959 C26 0.674 . S
C964 C68 0.674 . S
C989 C40 0.674 . S
C994 C82 0.674 . S
C1019 C96 0.674 . S
C1024 C54 0.674 . S
C1049 C222 0.674 . S
C1054 C124 0.674 . S
C1079 C180 0.674 . S
C1084 C138 0.674 . S
C1109 C194 0.674 . S
C1114 C152 0.674 . S
C1139 C166 0.674 . S
C1144 C208 0.674 . S
C1169 C334 0.674 . S
C1174 C236 0.674 . S
C1199 C292 0.674 . S
C1204 C250 0.674 . S
C1229 C306 0.674 . S
C1234 C264 0.674 . S
C1259 C278 0.674 . S
C1264 C320 0.674 . S
C1289 C348 0.674 . S
C1294 C446 0.674 . S
C1319 C362 0.674 . S
C1324 C404 0.674 . S
C1349 C376 0.674 . S
C1354 C418 0.674 . S
C1379 C432 0.674 . S
C1384 C390 0.674 . S
C1409 C4 1.431 . S
C1414 C355 1.332 . S
C1439 C18 1.431 . S
C1444 C145 1.332 1_455 S
C1469 C32 1.431 . S
C1474 C383 1.332 . S
C1499 C117 1.332 . S
C1504 C46 1.431 . S
C1529 C439 1.332 . S
C1534 C60 1.431 . S
C1559 C74 1.431 . S
C1564 C173 1.332 . S
C1589 C88 1.431 . S
C1594 C411 1.332 . S
C1619 C102 1.431 . S
C1624 C201 1.332 1_455 S
C1649 C243 1.332 . S
C1654 C116 1.431 . S
C1679 C33 1.332 1_655 S
C1684 C130 1.431 . S
C1709 C271 1.332 . S
C1714 C144 1.431 . S
C1739 C158 1.431 . S
C1744 C5 1.332 . S
C1769 C327 1.332 . S
C1774 C172 1.431 . S
C1799 C61 1.332 . S
C1804 C186 1.431 . S
C1829 C299 1.332 . S
C1834 C200 1.431 . S
C1859 C89 1.332 1_655 S
C1864 C214 1.431 . S
C1889 C131 1.332 . S
C1894 C228 1.431 . S
C1919 C242 1.431 . S
C1924 C369 1.332 . S
C1949 C256 1.431 . S
C1954 C159 1.332 . S
C1979 C270 1.431 . S
C1984 C341 1.332 1_655 S
C2009 C284 1.431 . S
C2014 C215 1.332 . S
C2039 C397 1.332 1_655 S
C2044 C298 1.431 . S
C2069 C312 1.431 . S
C2074 C187 1.332 . S
C2099 C326 1.431 . S
C2104 C425 1.332 . S
C2129 C340 1.431 . S
C2134 C19 1.332 . S
C2159 C354 1.431 . S
C2164 C257 1.332 . S
C2189 C47 1.332 . S
C2194 C368 1.431 . S
C2219 C229 1.332 1_455 S
C2224 C382 1.431 . S
C2249 C396 1.431 . S
C2254 C103 1.332 . S
C2279 C410 1.431 . S
C2284 C285 1.332 1_455 S
C2309 C75 1.332 . S
C2314 C424 1.431 . S
C2339 C313 1.332 . S
C2344 C438 1.431 . S
