# Generated by pormake.
# Topology umj, (4)-cn, num edge types: 1
# Building blocks:
#     Node 0, Type 0, BuildingBlock: NAWXER_clean_sbu_0, # of connection points: 4
#     Node 1, Type 0, BuildingBlock: NAWXER_clean_sbu_0, # of connection points: 4
#     Node 2, Type 0, BuildingBlock: NAWXER_clean_sbu_0, # of connection points: 4
#     Node 3, Type 0, BuildingBlock: NAWXER_clean_sbu_0, # of connection points: 4
#     Node 4, Type 0, BuildingBlock: NAWXER_clean_sbu_0, # of connection points: 4
#     Node 5, Type 0, BuildingBlock: NAWXER_clean_sbu_0, # of connection points: 4
#     Node 6, Type 0, BuildingBlock: NAWXER_clean_sbu_0, # of connection points: 4
#     Node 7, Type 0, BuildingBlock: NAWXER_clean_sbu_0, # of connection points: 4
#     Node 8, Type 0, BuildingBlock: NAWXER_clean_sbu_0, # of connection points: 4
#     Node 9, Type 0, BuildingBlock: NAWXER_clean_sbu_0, # of connection points: 4
#     Node 10, Type 0, BuildingBlock: NAWXER_clean_sbu_0, # of connection points: 4
#     Node 11, Type 0, BuildingBlock: NAWXER_clean_sbu_0, # of connection points: 4
#     Edge 12, Type (0, 0), BuildingBlock: OJICUG_clean_linker_0, # of connection points: 2
#     Edge 13, Type (0, 0), BuildingBlock: OJICUG_clean_linker_0, # of connection points: 2
#     Edge 14, Type (0, 0), BuildingBlock: OJICUG_clean_linker_0, # of connection points: 2
#     Edge 15, Type (0, 0), BuildingBlock: OJICUG_clean_linker_0, # of connection points: 2
#     Edge 16, Type (0, 0), BuildingBlock: OJICUG_clean_linker_0, # of connection points: 2
#     Edge 17, Type (0, 0), BuildingBlock: OJICUG_clean_linker_0, # of connection points: 2
#     Edge 18, Type (0, 0), BuildingBlock: OJICUG_clean_linker_0, # of connection points: 2
#     Edge 19, Type (0, 0), BuildingBlock: OJICUG_clean_linker_0, # of connection points: 2
#     Edge 20, Type (0, 0), BuildingBlock: OJICUG_clean_linker_0, # of connection points: 2
#     Edge 21, Type (0, 0), BuildingBlock: OJICUG_clean_linker_0, # of connection points: 2
#     Edge 22, Type (0, 0), BuildingBlock: OJICUG_clean_linker_0, # of connection points: 2
#     Edge 23, Type (0, 0), BuildingBlock: OJICUG_clean_linker_0, # of connection points: 2
#     Edge 24, Type (0, 0), BuildingBlock: OJICUG_clean_linker_0, # of connection points: 2
#     Edge 25, Type (0, 0), BuildingBlock: OJICUG_clean_linker_0, # of connection points: 2
#     Edge 26, Type (0, 0), BuildingBlock: OJICUG_clean_linker_0, # of connection points: 2
#     Edge 27, Type (0, 0), BuildingBlock: OJICUG_clean_linker_0, # of connection points: 2
#     Edge 28, Type (0, 0), BuildingBlock: OJICUG_clean_linker_0, # of connection points: 2
#     Edge 29, Type (0, 0), BuildingBlock: OJICUG_clean_linker_0, # of connection points: 2
#     Edge 30, Type (0, 0), BuildingBlock: OJICUG_clean_linker_0, # of connection points: 2
#     Edge 31, Type (0, 0), BuildingBlock: OJICUG_clean_linker_0, # of connection points: 2
#     Edge 32, Type (0, 0), BuildingBlock: OJICUG_clean_linker_0, # of connection points: 2
#     Edge 33, Type (0, 0), BuildingBlock: OJICUG_clean_linker_0, # of connection points: 2
#     Edge 34, Type (0, 0), BuildingBlock: OJICUG_clean_linker_0, # of connection points: 2
#     Edge 35, Type (0, 0), BuildingBlock: OJICUG_clean_linker_0, # of connection points: 2
# Relax obj value: 0.019
# Max RMSD: 0.123
# Mean RMSD: 0.123
data_MOF--net-umj--node1-NAWXER_clean_sbu_0--edge1-OJICUG_clean_linker_0
_symmetry_space_group_name_H-M    P1
_symmetry_Int_Tables_number       1
_symmetry_cell_setting            triclinic
loop_
_symmetry_equiv_pos_as_xyz
'x, y, z'
_cell_length_a     21.473577
_cell_length_b     21.473457
_cell_length_c     61.10928
_cell_angle_alpha  89.993184
_cell_angle_beta   90.005769
_cell_angle_gamma 119.99902
loop_
_atom_site_label
_atom_site_type_symbol
_atom_site_fract_x
_atom_site_fract_y
_atom_site_fract_z
_atom_type_partial_charge
C0 C 0.05355 0.27122 0.13808 0.0
C1 C 0.14181 0.33382 0.06199 0.0
O2 O 0.11973 0.30498 0.13258 0.0
Zn3 Zn 0.10712 0.30376 0.10061 0.0
O4 O 0.00534 0.24938 0.12323 0.0
Zn5 Zn 0.99509 0.24962 0.08913 0.0
O6 O 0.95249 0.14666 0.08186 0.0
O7 O 0.06507 0.19449 0.09276 0.0
O8 O 0.07378 0.29753 0.06465 0.0
O9 O 0.18363 0.34841 0.07844 0.0
O10 O 0.06263 0.37106 0.09693 0.0
O11 O 0.94985 0.3093 0.08575 0.0
C12 C 0.00733 0.14015 0.08581 0.0
C13 C 1.00468 0.36925 0.09106 0.0
C14 C 0.80908 0.13723 0.39499 0.0
C15 C 0.78458 0.0502 0.47121 0.0
O16 O 0.83641 0.17926 0.41138 0.0
Zn17 Zn 0.80508 0.10312 0.43365 0.0
O18 O 0.77757 0.06924 0.39773 0.0
Zn19 Zn 0.74728 0.99094 0.42233 0.0
O20 O 0.64225 0.94539 0.41907 0.0
O21 O 0.69324 0.05833 0.43009 0.0
O22 O 0.75812 1.00175 0.45643 0.0
O23 O 0.8168 0.1163 0.4656 0.0
O24 O 0.87241 0.06116 0.42586 0.0
O25 O 0.80772 0.9484 0.41512 0.0
C26 C 0.63709 1.00024 0.42432 0.0
C27 C 0.86906 1.00335 0.419 0.0
C28 C 0.73894 0.78351 0.80451 0.0
C29 C 0.67611 0.80839 0.72837 0.0
O30 O 0.70505 0.81577 0.79896 0.0
Zn31 Zn 0.70639 0.80424 0.767 0.0
O32 O 0.7609 0.75715 0.78968 0.0
Zn33 Zn 0.76074 0.74649 0.75559 0.0
O34 O 0.86369 0.807 0.74835 0.0
O35 O 0.81566 0.87162 0.75918 0.0
O36 O 0.71261 0.77687 0.73106 0.0
O37 O 0.66149 0.83568 0.74479 0.0
O38 O 0.63935 0.69241 0.76341 0.0
O39 O 0.70125 0.64147 0.7523 0.0
C40 C 0.87009 0.86832 0.75228 0.0
C41 C 0.64126 0.63629 0.75759 0.0
C42 C 0.01059 0.64163 0.091 0.0
C43 C 0.00692 0.87019 0.08561 0.0
O44 O 0.06543 0.70172 0.0858 0.0
Zn45 Zn 0.01957 0.76095 0.08898 0.0
O46 O 0.95239 0.63955 0.09671 0.0
Zn47 Zn 0.90729 0.70635 0.10019 0.0
O48 O 0.8314 0.66131 0.07787 0.0
O49 O 0.94156 0.71278 0.06431 0.0
O50 O 0.94908 0.81565 0.09241 0.0
O51 O 0.06197 0.86392 0.08179 0.0
O52 O 0.00835 0.76078 0.12307 0.0
O53 O 0.89368 0.70466 0.1321 0.0
C54 C 0.8736 0.67609 0.06151 0.0
C55 C 0.95969 0.73859 0.13779 0.0
C56 C 0.1386 1.00293 0.4191 0.0
C57 C 0.37062 0.00614 0.42441 0.0
O58 O 0.19993 0.05788 0.41521 0.0
Zn59 Zn 0.26042 0.01541 0.42245 0.0
O60 O 0.13526 0.94516 0.42598 0.0
Zn61 Zn 0.20265 0.90327 0.43381 0.0
O62 O 0.19105 0.89021 0.46575 0.0
O63 O 0.24972 0.00474 0.45654 0.0
O64 O 0.3145 0.94808 0.43022 0.0
O65 O 0.36542 0.06097 0.41915 0.0
O66 O 0.23012 0.93702 0.39789 0.0
O67 O 0.17128 0.82702 0.41158 0.0
C68 C 0.22333 0.95632 0.47134 0.0
C69 C 0.19863 0.86902 0.39518 0.0
C70 C 0.33384 0.19793 0.72847 0.0
C71 C 0.27159 0.2223 0.80471 0.0
O72 O 0.34859 0.17055 0.74484 0.0
Zn73 Zn 0.30381 0.20183 0.76713 0.0
O74 O 0.29736 0.22942 0.73124 0.0
Zn75 Zn 0.2494 0.25964 0.75586 0.0
O76 O 0.30883 0.36465 0.75259 0.0
O77 O 0.37086 0.31369 0.76357 0.0
O78 O 0.24951 0.24878 0.78996 0.0
O79 O 0.3054 0.19005 0.79906 0.0
O80 O 0.1945 0.13447 0.75933 0.0
O81 O 0.14642 0.19922 0.74865 0.0
C82 C 0.36888 0.36983 0.7578 0.0
C83 C 0.14004 0.13786 0.75249 0.0
C84 C 0.64067 0.00626 0.60879 0.0
C85 C 0.86954 1.00316 0.61407 0.0
O86 O 0.7007 0.06111 0.61403 0.0
Zn87 Zn 0.76017 0.01558 0.61073 0.0
O88 O 0.63873 0.94819 0.60299 0.0
Zn89 Zn 0.7058 0.90343 0.5994 0.0
O90 O 0.66103 0.82723 0.62165 0.0
O91 O 0.7122 0.93723 0.63532 0.0
O92 O 0.8151 0.94537 0.6072 0.0
O93 O 0.86314 0.05811 0.61795 0.0
O94 O 0.76013 0.00486 0.57663 0.0
O95 O 0.70428 0.89032 0.56745 0.0
C96 C 0.67575 0.86923 0.63805 0.0
C97 C 0.73808 0.95642 0.56185 0.0
C98 C 0.81199 0.67383 0.97117 0.0
C99 C 0.78653 0.73631 0.89505 0.0
O100 O 0.83926 0.6592 0.95474 0.0
Zn101 Zn 0.80748 0.70386 0.93255 0.0
O102 O 0.78029 0.71014 0.96848 0.0
Zn103 Zn 0.7496 0.75805 0.94398 0.0
O104 O 0.64467 0.69841 0.94734 0.0
O105 O 0.69567 0.63659 0.9362 0.0
O106 O 0.76013 0.7582 0.90988 0.0
O107 O 0.81893 0.70255 0.90058 0.0
O108 O 0.87472 0.81314 0.94038 0.0
O109 O 0.80996 0.86101 0.95123 0.0
C110 C 0.63954 0.63843 0.94206 0.0
C111 C 0.87132 0.8675 0.94731 0.0
C112 C 0.1384 0.8089 0.30481 0.0
C113 C 0.0522 0.78491 0.22854 0.0
O114 O 0.1806 0.83632 0.28846 0.0
Zn115 Zn 0.10466 0.8052 0.26614 0.0
O116 O 0.07043 0.77746 0.30202 0.0
Zn117 Zn 0.99238 0.74738 0.27735 0.0
O118 O 0.94673 0.64235 0.28058 0.0
O119 O 0.05977 0.69332 0.26966 0.0
O120 O 1.00355 0.75839 0.24326 0.0
O121 O 0.11822 0.81711 0.23422 0.0
O122 O 0.0627 0.87256 0.27392 0.0
O123 O 0.94983 0.80781 0.28454 0.0
C124 C 1.00162 0.63717 0.27539 0.0
C125 C 1.00483 0.86918 0.28073 0.0
C126 C 0.33348 0.13744 0.63812 0.0
C127 C 0.27071 0.05029 0.56194 0.0
O128 O 0.34813 0.17946 0.62172 0.0
Zn129 Zn 0.30321 0.10327 0.59948 0.0
O130 O 0.29696 0.06944 0.63539 0.0
Zn131 Zn 0.24883 0.9911 0.61082 0.0
O132 O 0.30828 0.94552 0.61408 0.0
O133 O 0.37024 0.05843 0.60303 0.0
O134 O 0.24873 1.00186 0.57673 0.0
O135 O 0.3046 0.11639 0.56753 0.0
O136 O 0.19394 0.06136 0.60729 0.0
O137 O 0.14588 0.94863 0.61806 0.0
C138 C 0.36829 1.00035 0.60882 0.0
C139 C 0.1395 0.00358 0.61417 0.0
C140 C 0.22531 0.26898 0.89541 0.0
C141 C 0.20153 0.33156 0.97167 0.0
O142 O 0.1932 0.30291 0.90107 0.0
Zn143 Zn 0.20506 0.30129 0.933 0.0
O144 O 0.25175 0.24683 0.91016 0.0
Zn145 Zn 0.26275 0.24672 0.94424 0.0
O146 O 0.20218 0.14375 0.95143 0.0
O147 O 0.13757 0.19199 0.94077 0.0
O148 O 0.23283 0.29489 0.9689 0.0
O149 O 0.17413 0.34631 0.9553 0.0
O150 O 0.31694 0.36811 0.93649 0.0
O151 O 0.36784 0.30599 0.94744 0.0
C152 C 0.14086 0.13746 0.94759 0.0
C153 C 0.37307 0.36606 0.94222 0.0
C154 C 0.9583 0.22366 0.22858 0.0
C155 C 0.87018 0.19844 0.30468 0.0
O156 O 0.89212 0.19136 0.23409 0.0
Zn157 Zn 0.9048 0.20277 0.26606 0.0
O158 O 0.00653 0.24998 0.24343 0.0
Zn159 Zn 0.01684 0.26052 0.27753 0.0
O160 O 0.05929 0.20002 0.28479 0.0
O161 O 0.9467 0.1354 0.2739 0.0
O162 O 0.93821 0.23001 0.30202 0.0
O163 O 0.82835 0.17119 0.28824 0.0
O164 O 0.94952 0.31458 0.26969 0.0
O165 O 0.0623 0.36551 0.28086 0.0
C166 C 1.0044 0.13871 0.28083 0.0
C167 C 0.00751 0.37069 0.27554 0.0
C168 C 0.05601 0.26998 0.20026 0.0
C169 C 0.98192 0.23342 0.20536 0.0
H170 H 0.13692 0.31062 0.17522 0.0
C171 C 0.93214 0.20826 0.18815 0.0
H172 H 0.09615 0.29016 0.2131 0.0
C173 C 0.95582 0.22008 0.16641 0.0
C174 C 0.02991 0.25739 0.16131 0.0
H175 H 0.87491 0.18 0.19144 0.0
H176 H 0.91568 0.20027 0.15357 0.0
C177 C 0.0797 0.28183 0.17851 0.0
C178 C 0.80055 0.07702 0.51159 0.0
C179 C 0.77509 0.02695 0.49446 0.0
H180 H 0.80905 0.09403 0.54615 0.0
C181 C 0.73852 0.95295 0.49968 0.0
H182 H 0.82885 0.13419 0.50821 0.0
C183 C 0.72694 0.92962 0.52146 0.0
C184 C 0.75167 0.97969 0.53859 0.0
H185 H 0.71811 0.9126 0.4869 0.0
H186 H 0.69812 0.87245 0.52484 0.0
C187 C 0.78901 0.05369 0.53337 0.0
C188 C 0.79032 0.73732 0.83288 0.0
C189 C 0.75278 0.77385 0.82774 0.0
H190 H 0.83056 0.69678 0.85796 0.0
C191 C 0.72813 0.79907 0.84492 0.0
H192 H 0.81029 0.71709 0.82006 0.0
C193 C 0.73998 0.78735 0.86667 0.0
C194 C 0.77675 0.75006 0.87181 0.0
H195 H 0.69917 0.82732 0.84159 0.0
H196 H 0.71963 0.8072 0.8795 0.0
C197 C 0.80213 0.72555 0.85463 0.0
C198 C 0.05655 0.78961 0.16638 0.0
C199 C 0.98262 0.75216 0.16107 0.0
H200 H 0.13669 0.82949 0.19165 0.0
C201 C 0.93231 0.72729 0.17814 0.0
H202 H 0.09708 0.80975 0.15365 0.0
C203 C 0.95533 0.73884 0.19995 0.0
C204 C 0.02926 0.77551 0.20525 0.0
H205 H 0.87519 0.69839 0.17468 0.0
H206 H 0.91481 0.71832 0.21267 0.0
C207 C 0.07957 0.80111 0.18819 0.0
C208 C 0.28148 0.07702 0.52155 0.0
C209 C 0.2569 0.02699 0.53869 0.0
H210 H 0.28996 0.09396 0.48699 0.0
C211 C 0.21947 0.95298 0.5335 0.0
H212 H 0.31036 0.1342 0.52492 0.0
C213 C 0.2077 0.9296 0.51173 0.0
C214 C 0.23301 0.97963 0.49459 0.0
H215 H 0.19955 0.91265 0.54629 0.0
H216 H 0.17935 0.87242 0.50836 0.0
C217 C 0.26966 0.05365 0.49978 0.0
C218 C 0.2827 0.20625 0.84507 0.0
C219 C 0.25805 0.23181 0.82798 0.0
H220 H 0.29151 0.19772 0.87962 0.0
C221 C 0.22081 0.26853 0.83325 0.0
H222 H 0.31143 0.17784 0.84164 0.0
C223 C 0.20931 0.28017 0.85505 0.0
C224 C 0.2347 0.25534 0.87214 0.0
H225 H 0.20084 0.28902 0.8205 0.0
H226 H 0.18111 0.3091 0.85847 0.0
C227 C 0.27116 0.21784 0.86687 0.0
C228 C 0.12269 0.35784 0.02344 0.0
C229 C 0.16806 0.35333 0.03931 0.0
H230 H 0.0981 0.35557 0.98931 0.0
C231 C 0.23138 0.35568 0.03254 0.0
H232 H 0.07379 0.35715 0.02828 0.0
C233 C 0.24499 0.35463 1.01022 0.0
C234 C 0.19579 0.35176 0.99436 0.0
H235 H 0.26725 0.35247 0.04437 0.0
H236 H 0.29194 0.35155 1.0054 0.0
C237 C 0.13657 0.35734 1.00112 0.0
C238 C 0.8752 0.22756 0.36555 0.0
C239 C 0.8153 0.16327 0.37229 0.0
H240 H 0.93885 0.28944 0.33842 0.0
C241 C 0.76596 0.11729 0.35641 0.0
H242 H 0.91382 0.26397 0.37738 0.0
C243 C 0.78 0.13168 0.33409 0.0
C244 C 0.8439 0.19204 0.32735 0.0
H245 H 0.71852 0.06765 0.36122 0.0
H246 H 0.7439 0.09281 0.32226 0.0
C247 C 0.88951 0.24168 0.34323 0.0
C248 C 0.65235 0.76507 0.68982 0.0
C249 C 0.65616 0.81464 0.70569 0.0
H250 H 0.65438 0.74274 0.65568 0.0
C251 C 0.65224 0.87479 0.69894 0.0
H252 H 0.6542 0.71746 0.69465 0.0
C253 C 0.65243 0.88906 0.67662 0.0
C254 C 0.65599 0.84317 0.66074 0.0
H255 H 0.65483 0.9136 0.71076 0.0
H256 H 0.65435 0.93856 0.67179 0.0
C257 C 0.65198 0.77907 0.6675 0.0
C258 C 0.78298 0.65031 0.03202 0.0
C259 C 0.84774 0.65586 0.03882 0.0
H260 H 0.72051 0.65053 1.00483 0.0
C261 C 0.89411 0.65295 0.02298 0.0
H262 H 0.74625 0.6521 0.04382 0.0
C263 C 0.87954 0.6519 1.00065 0.0
C264 C 0.81862 0.65429 0.99385 0.0
H265 H 0.94411 0.656 0.02783 0.0
H266 H 0.91867 0.6551 0.98885 0.0
C267 C 0.76868 0.6498 1.00969 0.0
C268 C 0.11806 0.76533 0.34334 0.0
C269 C 0.16422 0.81486 0.32752 0.0
H270 H 0.0932 0.74291 0.37746 0.0
C271 C 0.22843 0.87468 0.33435 0.0
H272 H 0.06848 0.71795 0.33846 0.0
C273 C 0.24231 0.88875 0.35668 0.0
C274 C 0.19249 0.84296 0.3725 0.0
H275 H 0.26496 0.91342 0.32256 0.0
H276 H 0.29002 0.93803 0.36156 0.0
C277 C 0.13221 0.77913 0.36568 0.0
C278 C 0.35729 0.11759 0.67662 0.0
C279 C 0.35346 0.16347 0.6608 0.0
H280 H 0.35525 0.09296 0.71075 0.0
C281 C 0.3574 0.22749 0.6676 0.0
H282 H 0.35544 0.06817 0.67176 0.0
C283 C 0.35721 0.24141 0.68994 0.0
C284 C 0.35364 0.19182 0.70577 0.0
H285 H 0.3548 0.2638 0.65581 0.0
H286 H 0.35529 0.28894 0.6948 0.0
C287 C 0.35765 0.13178 0.69896 0.0
C288 C 0.07402 0.57004 0.08973 0.0
C289 C 0.01015 0.57251 0.0899 0.0
H290 H 0.12206 0.50375 0.09007 0.0
C291 C 0.94386 0.50724 0.08951 0.0
H292 H 0.1257 0.61914 0.08996 0.0
C293 C 0.94146 0.44096 0.08938 0.0
C294 C 0.0053 0.43846 0.08994 0.0
H295 H 0.8934 0.50722 0.08937 0.0
H296 H 0.88976 0.39187 0.08932 0.0
C297 C 0.07161 0.50374 0.0899 0.0
C298 C 0.56948 0.06707 0.423 0.0
C299 C 0.56845 1.00076 0.42323 0.0
H300 H 0.50818 0.12116 0.42295 0.0
C301 C 0.50211 0.9369 0.42291 0.0
H302 H 0.61991 0.11752 0.42299 0.0
C303 C 0.43822 0.9393 0.42308 0.0
C304 C 0.43925 0.00561 0.42329 0.0
H305 H 0.49951 0.88521 0.423 0.0
H306 H 0.38778 0.88885 0.42313 0.0
C307 C 0.50559 0.06947 0.42288 0.0
C308 C 0.50332 0.43742 0.7564 0.0
C309 C 0.43805 0.43846 0.75665 0.0
H310 H 0.61871 0.49871 0.75626 0.0
C311 C 0.44053 0.50479 0.75626 0.0
H312 H 0.50334 0.38698 0.75644 0.0
C313 C 0.50682 0.56868 0.75634 0.0
C314 C 0.57209 0.56765 0.75653 0.0
H315 H 0.39143 0.5074 0.75635 0.0
H316 H 0.50681 0.61912 0.75633 0.0
C317 C 0.56961 0.50131 0.7562 0.0
C318 C 0.50273 0.06718 0.61013 0.0
C319 C 0.43746 1.00088 0.60991 0.0
H320 H 0.61812 0.12128 0.61019 0.0
C321 C 0.43994 0.93701 0.61027 0.0
H322 H 0.50275 0.11764 0.61012 0.0
C323 C 0.50623 0.93942 0.61012 0.0
C324 C 0.5715 0.00573 0.6099 0.0
H325 H 0.39084 0.88532 0.61019 0.0
H326 H 0.50622 0.88896 0.6101 0.0
C327 C 0.56902 0.06959 0.61027 0.0
C328 C 0.44073 0.50045 0.94366 0.0
C329 C 0.44175 0.43518 0.94329 0.0
H330 H 0.502 0.61583 0.94379 0.0
C331 C 0.50809 0.43765 0.94346 0.0
H332 H 0.39029 0.50048 0.9438 0.0
C333 C 0.57198 0.50395 0.94327 0.0
C334 C 0.57095 0.56923 0.94319 0.0
H335 H 0.51067 0.38855 0.94326 0.0
H336 H 0.62242 0.50394 0.9431 0.0
C337 C 0.50461 0.56674 0.94375 0.0
C338 C 0.93826 0.50219 0.27685 0.0
C339 C 1.00213 0.56853 0.27652 0.0
H340 H 0.89021 0.38786 0.27671 0.0
C341 C 0.06843 0.56955 0.27682 0.0
H342 H 0.88657 0.49959 0.27671 0.0
C343 C 0.07083 0.50566 0.27701 0.0
C344 C 0.00697 0.43932 0.27661 0.0
H345 H 0.11888 0.61999 0.27684 0.0
H346 H 0.12252 0.50825 0.27699 0.0
C347 C 0.94066 0.43829 0.27675 0.0
C348 C 0.94173 0.00514 0.08259 0.0
C349 C 0.00645 0.07088 0.08323 0.0
H350 H 0.89137 0.8904 0.08284 0.0
C351 C 0.07183 0.07014 0.08281 0.0
H352 H 0.89061 0.00374 0.08287 0.0
C353 C 0.0725 0.00524 0.08263 0.0
C354 C 0.00778 0.93948 0.08311 0.0
H355 H 0.12286 0.11997 0.08309 0.0
H356 H 0.12362 0.00665 0.08293 0.0
C357 C 0.9424 0.94023 0.08267 0.0
C358 C 1.00358 0.06783 0.41603 0.0
C359 C 0.93746 1.00246 0.41648 0.0
H360 H 0.11887 0.11963 0.4162 0.0
C361 C 0.93849 0.93774 0.41596 0.0
H362 H 1.00479 0.11887 0.41622 0.0
C363 C 1.00407 0.93841 0.41613 0.0
C364 C 0.07019 0.00379 0.41653 0.0
H365 H 0.88878 0.88662 0.41627 0.0
H366 H 1.00286 0.88737 0.41638 0.0
C367 C 0.06915 0.0685 0.41593 0.0
C368 C 0.07004 1.00335 0.74942 0.0
C369 C 0.07077 0.06946 0.7499 0.0
H370 H 0.00654 0.88806 0.74949 0.0
C371 C 1.00503 0.06844 0.74934 0.0
H372 H 0.11986 1.00214 0.74965 0.0
C373 C 0.94012 1.00286 0.74941 0.0
C374 C 0.93938 0.93674 0.74978 0.0
H375 H 1.00361 0.11815 0.74966 0.0
H376 H 0.89029 0.00407 0.74963 0.0
C377 C 1.00513 0.93778 0.74923 0.0
C378 C 0.93955 0.93865 0.61706 0.0
C379 C 0.93881 0.00403 0.61663 0.0
H380 H 1.00305 0.88686 0.61693 0.0
C381 C 1.00456 0.06875 0.61722 0.0
H382 H 0.88973 0.88762 0.61681 0.0
C383 C 0.06947 0.06808 0.61712 0.0
C384 C 0.07021 1.0027 0.61669 0.0
H385 H 0.00597 0.11987 0.61693 0.0
H386 H 0.1193 0.11911 0.61692 0.0
C387 C 1.00446 0.93798 0.61722 0.0
C388 C 0.00582 0.9375 0.95034 0.0
C389 C 0.93971 0.93676 0.94991 0.0
H390 H 0.12111 1.00099 0.95026 0.0
C391 C 0.94073 1.00251 0.95054 0.0
H392 H 0.00703 0.88768 0.95006 0.0
C393 C 0.00631 0.06742 0.95049 0.0
C394 C 0.07243 0.06816 0.95007 0.0
H395 H 0.89101 0.00391 0.95026 0.0
H396 H 1.00511 0.11725 0.95032 0.0
C397 C 0.07139 1.0024 0.95055 0.0
C398 C 0.93922 0.93859 0.28381 0.0
C399 C 1.00394 0.93757 0.2833 0.0
H400 H 0.88885 1.00296 0.28344 0.0
C401 C 0.06931 0.00368 0.2838 0.0
H402 H 0.8881 0.88888 0.28346 0.0
C403 C 0.06998 0.06926 0.28396 0.0
C404 C 1.00526 0.07029 0.28335 0.0
H405 H 0.12035 0.00489 0.28361 0.0
H406 H 0.1211 0.11898 0.28373 0.0
C407 C 0.93988 0.00417 0.2837 0.0
loop_
_geom_bond_atom_site_label_1
_geom_bond_atom_site_label_2
_geom_bond_distance
_geom_bond_site_symmetry_2
_ccdc_geom_bond_type
C0 O2 1.247 . S
C0 O4 1.258 1_455 S
C1 O8 1.247 . S
C1 O9 1.258 . S
O2 C0 1.247 . S
O2 Zn3 2.028 . S
Zn3 O2 2.028 . S
Zn3 O7 2.035 . S
Zn3 O9 2.035 . S
Zn3 O10 2.028 . S
O4 C0 1.258 1_655 S
O4 Zn5 2.035 . S
Zn5 O4 2.035 . S
Zn5 O6 2.028 . S
Zn5 O8 2.028 1_655 S
Zn5 O11 2.035 . S
O6 Zn5 2.028 . S
O6 C12 1.247 1_655 S
O7 Zn3 2.035 . S
O7 C12 1.258 . S
O8 C1 1.247 . S
O8 Zn5 2.028 1_455 S
O9 C1 1.258 . S
O9 Zn3 2.035 . S
O10 Zn3 2.028 . S
O10 C13 1.247 . S
O11 Zn5 2.035 . S
O11 C13 1.258 1_655 S
C12 O6 1.247 1_455 S
C12 O7 1.258 . S
C13 O10 1.247 . S
C13 O11 1.258 1_455 S
C14 O16 1.247 . S
C14 O18 1.258 . S
C15 O22 1.247 1_545 S
C15 O23 1.258 . S
O16 C14 1.247 . S
O16 Zn17 2.028 . S
Zn17 O16 2.028 . S
Zn17 O21 2.035 . S
Zn17 O23 2.035 . S
Zn17 O24 2.028 . S
O18 C14 1.258 . S
O18 Zn19 2.035 1_545 S
Zn19 O18 2.035 1_565 S
Zn19 O20 2.028 . S
Zn19 O22 2.028 . S
Zn19 O25 2.035 . S
O20 Zn19 2.028 . S
O20 C26 1.247 1_565 S
O21 Zn17 2.035 . S
O21 C26 1.258 . S
O22 C15 1.247 1_565 S
O22 Zn19 2.028 . S
O23 C15 1.258 . S
O23 Zn17 2.035 . S
O24 Zn17 2.028 . S
O24 C27 1.247 . S
O25 Zn19 2.035 . S
O25 C27 1.258 1_565 S
C26 O20 1.247 1_545 S
C26 O21 1.258 . S
C27 O24 1.247 . S
C27 O25 1.258 1_545 S
C28 O30 1.247 . S
C28 O32 1.258 . S
C29 O36 1.247 . S
C29 O37 1.258 . S
O30 C28 1.247 . S
O30 Zn31 2.028 . S
Zn31 O30 2.028 . S
Zn31 O35 2.035 . S
Zn31 O37 2.035 . S
Zn31 O38 2.028 . S
O32 C28 1.258 . S
O32 Zn33 2.035 . S
Zn33 O32 2.035 . S
Zn33 O34 2.028 . S
Zn33 O36 2.028 . S
Zn33 O39 2.035 . S
O34 Zn33 2.028 . S
O34 C40 1.247 . S
O35 Zn31 2.035 . S
O35 C40 1.258 . S
O36 C29 1.247 . S
O36 Zn33 2.028 . S
O37 C29 1.258 . S
O37 Zn31 2.035 . S
O38 Zn31 2.028 . S
O38 C41 1.247 . S
O39 Zn33 2.035 . S
O39 C41 1.258 . S
C40 O34 1.247 . S
C40 O35 1.258 . S
C41 O38 1.247 . S
C41 O39 1.258 . S
C42 O44 1.247 1_655 S
C42 O46 1.258 . S
C43 O50 1.247 . S
C43 O51 1.258 1_655 S
O44 C42 1.247 1_455 S
O44 Zn45 2.028 . S
Zn45 O44 2.028 . S
Zn45 O49 2.035 1_455 S
Zn45 O51 2.035 . S
Zn45 O52 2.028 . S
O46 C42 1.258 . S
O46 Zn47 2.035 . S
Zn47 O46 2.035 . S
Zn47 O48 2.028 . S
Zn47 O50 2.028 . S
Zn47 O53 2.035 . S
O48 Zn47 2.028 . S
O48 C54 1.247 . S
O49 Zn45 2.035 1_655 S
O49 C54 1.258 . S
O50 C43 1.247 . S
O50 Zn47 2.028 . S
O51 C43 1.258 1_455 S
O51 Zn45 2.035 . S
O52 Zn45 2.028 . S
O52 C55 1.247 1_455 S
O53 Zn47 2.035 . S
O53 C55 1.258 . S
C54 O48 1.247 . S
C54 O49 1.258 . S
C55 O52 1.247 1_655 S
C55 O53 1.258 . S
C56 O58 1.247 1_565 S
C56 O60 1.258 . S
C57 O64 1.247 . S
C57 O65 1.258 1_565 S
O58 C56 1.247 1_545 S
O58 Zn59 2.028 . S
Zn59 O58 2.028 . S
Zn59 O63 2.035 . S
Zn59 O65 2.035 . S
Zn59 O66 2.028 1_545 S
O60 C56 1.258 . S
O60 Zn61 2.035 . S
Zn61 O60 2.035 . S
Zn61 O62 2.028 . S
Zn61 O64 2.028 . S
Zn61 O67 2.035 . S
O62 Zn61 2.028 . S
O62 C68 1.247 . S
O63 Zn59 2.035 . S
O63 C68 1.258 1_545 S
O64 C57 1.247 . S
O64 Zn61 2.028 . S
O65 C57 1.258 1_545 S
O65 Zn59 2.035 . S
O66 Zn59 2.028 1_565 S
O66 C69 1.247 . S
O67 Zn61 2.035 . S
O67 C69 1.258 . S
C68 O62 1.247 . S
C68 O63 1.258 1_565 S
C69 O66 1.247 . S
C69 O67 1.258 . S
C70 O72 1.247 . S
C70 O74 1.258 . S
C71 O78 1.247 . S
C71 O79 1.258 . S
O72 C70 1.247 . S
O72 Zn73 2.028 . S
Zn73 O72 2.028 . S
Zn73 O77 2.035 . S
Zn73 O79 2.035 . S
Zn73 O80 2.028 . S
O74 C70 1.258 . S
O74 Zn75 2.035 . S
Zn75 O74 2.035 . S
Zn75 O76 2.028 . S
Zn75 O78 2.028 . S
Zn75 O81 2.035 . S
O76 Zn75 2.028 . S
O76 C82 1.247 . S
O77 Zn73 2.035 . S
O77 C82 1.258 . S
O78 C71 1.247 . S
O78 Zn75 2.028 . S
O79 C71 1.258 . S
O79 Zn73 2.035 . S
O80 Zn73 2.028 . S
O80 C83 1.247 . S
O81 Zn75 2.035 . S
O81 C83 1.258 . S
C82 O76 1.247 . S
C82 O77 1.258 . S
C83 O80 1.247 . S
C83 O81 1.258 . S
C84 O86 1.247 1_565 S
C84 O88 1.258 . S
C85 O92 1.247 . S
C85 O93 1.258 1_565 S
O86 C84 1.247 1_545 S
O86 Zn87 2.028 . S
Zn87 O86 2.028 . S
Zn87 O91 2.035 1_545 S
Zn87 O93 2.035 . S
Zn87 O94 2.028 . S
O88 C84 1.258 . S
O88 Zn89 2.035 . S
Zn89 O88 2.035 . S
Zn89 O90 2.028 . S
Zn89 O92 2.028 . S
Zn89 O95 2.035 . S
O90 Zn89 2.028 . S
O90 C96 1.247 . S
O91 Zn87 2.035 1_565 S
O91 C96 1.258 . S
O92 C85 1.247 . S
O92 Zn89 2.028 . S
O93 C85 1.258 1_545 S
O93 Zn87 2.035 . S
O94 Zn87 2.028 . S
O94 C97 1.247 1_545 S
O95 Zn89 2.035 . S
O95 C97 1.258 . S
C96 O90 1.247 . S
C96 O91 1.258 . S
C97 O94 1.247 1_565 S
C97 O95 1.258 . S
C98 O100 1.247 . S
C98 O102 1.258 . S
C99 O106 1.247 . S
C99 O107 1.258 . S
O100 C98 1.247 . S
O100 Zn101 2.028 . S
Zn101 O100 2.028 . S
Zn101 O105 2.035 . S
Zn101 O107 2.035 . S
Zn101 O108 2.028 . S
O102 C98 1.258 . S
O102 Zn103 2.035 . S
Zn103 O102 2.035 . S
Zn103 O104 2.028 . S
Zn103 O106 2.028 . S
Zn103 O109 2.035 . S
O104 Zn103 2.028 . S
O104 C110 1.247 . S
O105 Zn101 2.035 . S
O105 C110 1.258 . S
O106 C99 1.247 . S
O106 Zn103 2.028 . S
O107 C99 1.258 . S
O107 Zn101 2.035 . S
O108 Zn101 2.028 . S
O108 C111 1.247 . S
O109 Zn103 2.035 . S
O109 C111 1.258 . S
C110 O104 1.247 . S
C110 O105 1.258 . S
C111 O108 1.247 . S
C111 O109 1.258 . S
C112 O114 1.247 . S
C112 O116 1.258 . S
C113 O120 1.247 1_455 S
C113 O121 1.258 . S
O114 C112 1.247 . S
O114 Zn115 2.028 . S
Zn115 O114 2.028 . S
Zn115 O119 2.035 . S
Zn115 O121 2.035 . S
Zn115 O122 2.028 . S
O116 C112 1.258 . S
O116 Zn117 2.035 1_455 S
Zn117 O116 2.035 1_655 S
Zn117 O118 2.028 . S
Zn117 O120 2.028 . S
Zn117 O123 2.035 . S
O118 Zn117 2.028 . S
O118 C124 1.247 1_655 S
O119 Zn115 2.035 . S
O119 C124 1.258 . S
O120 C113 1.247 1_655 S
O120 Zn117 2.028 . S
O121 C113 1.258 . S
O121 Zn115 2.035 . S
O122 Zn115 2.028 . S
O122 C125 1.247 . S
O123 Zn117 2.035 . S
O123 C125 1.258 1_655 S
C124 O118 1.247 1_455 S
C124 O119 1.258 . S
C125 O122 1.247 . S
C125 O123 1.258 1_455 S
C126 O128 1.247 . S
C126 O130 1.258 . S
C127 O134 1.247 1_545 S
C127 O135 1.258 . S
O128 C126 1.247 . S
O128 Zn129 2.028 . S
Zn129 O128 2.028 . S
Zn129 O133 2.035 . S
Zn129 O135 2.035 . S
Zn129 O136 2.028 . S
O130 C126 1.258 . S
O130 Zn131 2.035 1_545 S
Zn131 O130 2.035 1_565 S
Zn131 O132 2.028 . S
Zn131 O134 2.028 . S
Zn131 O137 2.035 . S
O132 Zn131 2.028 . S
O132 C138 1.247 1_565 S
O133 Zn129 2.035 . S
O133 C138 1.258 . S
O134 C127 1.247 1_565 S
O134 Zn131 2.028 . S
O135 C127 1.258 . S
O135 Zn129 2.035 . S
O136 Zn129 2.028 . S
O136 C139 1.247 . S
O137 Zn131 2.035 . S
O137 C139 1.258 1_565 S
C138 O132 1.247 1_545 S
C138 O133 1.258 . S
C139 O136 1.247 . S
C139 O137 1.258 1_545 S
C140 O142 1.247 . S
C140 O144 1.258 . S
C141 O148 1.247 . S
C141 O149 1.258 . S
O142 C140 1.247 . S
O142 Zn143 2.028 . S
Zn143 O142 2.028 . S
Zn143 O147 2.035 . S
Zn143 O149 2.035 . S
Zn143 O150 2.028 . S
O144 C140 1.258 . S
O144 Zn145 2.035 . S
Zn145 O144 2.035 . S
Zn145 O146 2.028 . S
Zn145 O148 2.028 . S
Zn145 O151 2.035 . S
O146 Zn145 2.028 . S
O146 C152 1.247 . S
O147 Zn143 2.035 . S
O147 C152 1.258 . S
O148 C141 1.247 . S
O148 Zn145 2.028 . S
O149 C141 1.258 . S
O149 Zn143 2.035 . S
O150 Zn143 2.028 . S
O150 C153 1.247 . S
O151 Zn145 2.035 . S
O151 C153 1.258 . S
C152 O146 1.247 . S
C152 O147 1.258 . S
C153 O150 1.247 . S
C153 O151 1.258 . S
C154 O156 1.247 . S
C154 O158 1.258 1_655 S
C155 O162 1.247 . S
C155 O163 1.258 . S
O156 C154 1.247 . S
O156 Zn157 2.028 . S
Zn157 O156 2.028 . S
Zn157 O161 2.035 . S
Zn157 O163 2.035 . S
Zn157 O164 2.028 . S
O158 C154 1.258 1_455 S
O158 Zn159 2.035 . S
Zn159 O158 2.035 . S
Zn159 O160 2.028 . S
Zn159 O162 2.028 1_455 S
Zn159 O165 2.035 . S
O160 Zn159 2.028 . S
O160 C166 1.247 1_455 S
O161 Zn157 2.035 . S
O161 C166 1.258 . S
O162 C155 1.247 . S
O162 Zn159 2.028 1_655 S
O163 C155 1.258 . S
O163 Zn157 2.035 . S
O164 Zn157 2.028 . S
O164 C167 1.247 . S
O165 Zn159 2.035 . S
O165 C167 1.258 1_455 S
C166 O160 1.247 1_655 S
C166 O161 1.258 . S
C167 O164 1.247 . S
C167 O165 1.258 1_655 S
C168 C169 1.387 1_455 S
C168 H172 0.950 . S
C168 C177 1.390 . S
C169 C168 1.387 1_655 S
C169 C171 1.387 . S
H170 C177 0.950 . S
C171 C169 1.387 . S
C171 C173 1.390 . S
C171 H175 0.950 . S
H172 C168 0.950 . S
C173 C171 1.390 . S
C173 C174 1.387 1_655 S
C173 H176 0.950 . S
C174 C173 1.387 1_455 S
C174 C177 1.387 . S
H175 C171 0.950 . S
H176 C173 0.950 . S
C177 C168 1.390 . S
C177 H170 0.950 . S
C177 C174 1.387 . S
C178 C179 1.387 . S
C178 H182 0.950 . S
C178 C187 1.390 1_545 S
C179 C178 1.387 . S
C179 C181 1.387 . S
H180 C187 0.950 . S
C181 C179 1.387 . S
C181 C183 1.390 1_545 S
C181 H185 0.950 . S
H182 C178 0.950 . S
C183 C181 1.390 1_565 S
C183 C184 1.387 . S
C183 H186 0.950 . S
C184 C183 1.387 . S
C184 C187 1.387 . S
H185 C181 0.950 . S
H186 C183 0.950 . S
C187 C178 1.390 1_565 S
C187 H180 0.950 . S
C187 C184 1.387 . S
C188 C189 1.387 . S
C188 H192 0.950 . S
C188 C197 1.390 . S
C189 C188 1.387 . S
C189 C191 1.387 . S
H190 C197 0.950 . S
C191 C189 1.387 . S
C191 C193 1.390 . S
C191 H195 0.950 . S
H192 C188 0.950 . S
C193 C191 1.390 . S
C193 C194 1.387 . S
C193 H196 0.950 . S
C194 C193 1.387 . S
C194 C197 1.387 . S
H195 C191 0.950 . S
H196 C193 0.950 . S
C197 C188 1.390 . S
C197 H190 0.950 . S
C197 C194 1.387 . S
C198 C199 1.387 1_455 S
C198 H202 0.950 . S
C198 C207 1.390 . S
C199 C198 1.387 1_655 S
C199 C201 1.387 . S
H200 C207 0.950 . S
C201 C199 1.387 . S
C201 C203 1.390 . S
C201 H205 0.950 . S
H202 C198 0.950 . S
C203 C201 1.390 . S
C203 C204 1.387 1_655 S
C203 H206 0.950 . S
C204 C203 1.387 1_455 S
C204 C207 1.387 . S
H205 C201 0.950 . S
H206 C203 0.950 . S
C207 C198 1.390 . S
C207 H200 0.950 . S
C207 C204 1.387 . S
C208 C209 1.387 . S
C208 H212 0.950 . S
C208 C217 1.390 1_545 S
C209 C208 1.387 . S
C209 C211 1.379 . S
H210 C217 0.950 . S
C211 C209 1.379 . S
C211 C213 1.390 1_545 S
C211 H215 0.959 . S
H212 C208 0.950 . S
C213 C211 1.390 1_565 S
C213 C214 1.387 . S
C213 H216 0.950 . S
C214 C213 1.387 . S
C214 C217 1.387 . S
H215 C211 0.959 . S
H216 C213 0.950 . S
C217 C208 1.390 1_565 S
C217 H210 0.950 . S
C217 C214 1.387 . S
C218 C219 1.387 . S
C218 H222 0.950 . S
C218 C227 1.390 . S
C219 C218 1.387 . S
C219 C221 1.387 . S
H220 C227 0.950 . S
C221 C219 1.387 . S
C221 C223 1.390 . S
C221 H225 0.950 . S
H222 C218 0.950 . S
C223 C221 1.390 . S
C223 C224 1.387 . S
C223 H226 0.950 . S
C224 C223 1.387 . S
C224 C227 1.387 . S
H225 C221 0.950 . S
H226 C223 0.950 . S
C227 C218 1.390 . S
C227 H220 0.950 . S
C227 C224 1.387 . S
C228 C229 1.387 . S
C228 H232 0.950 . S
C228 C237 1.390 1_554 S
C229 C228 1.387 . S
C229 C231 1.387 . S
H230 C237 0.950 . S
C231 C229 1.387 . S
C231 C233 1.390 1_554 S
C231 H235 0.950 . S
H232 C228 0.950 . S
C233 C231 1.390 1_556 S
C233 C234 1.387 . S
C233 H236 0.950 . S
C234 C233 1.387 . S
C234 C237 1.387 . S
H235 C231 0.950 . S
H236 C233 0.950 . S
C237 C228 1.390 1_556 S
C237 H230 0.950 . S
C237 C234 1.387 . S
C238 C239 1.387 . S
C238 H242 0.950 . S
C238 C247 1.390 . S
C239 C238 1.387 . S
C239 C241 1.387 . S
H240 C247 0.950 . S
C241 C239 1.387 . S
C241 C243 1.390 . S
C241 H245 0.950 . S
H242 C238 0.950 . S
C243 C241 1.390 . S
C243 C244 1.387 . S
C243 H246 0.950 . S
C244 C243 1.387 . S
C244 C247 1.387 . S
H245 C241 0.950 . S
H246 C243 0.950 . S
C247 C238 1.390 . S
C247 H240 0.950 . S
C247 C244 1.387 . S
C248 C249 1.387 . S
C248 H252 0.950 . S
C248 C257 1.390 . S
C249 C248 1.387 . S
C249 C251 1.387 . S
H250 C257 0.950 . S
C251 C249 1.387 . S
C251 C253 1.390 . S
C251 H255 0.950 . S
H252 C248 0.950 . S
C253 C251 1.390 . S
C253 C254 1.387 . S
C253 H256 0.950 . S
C254 C253 1.387 . S
C254 C257 1.387 . S
H255 C251 0.950 . S
H256 C253 0.950 . S
C257 C248 1.390 . S
C257 H250 0.950 . S
C257 C254 1.387 . S
C258 C259 1.387 . S
C258 H262 0.950 . S
C258 C267 1.390 1_554 S
C259 C258 1.387 . S
C259 C261 1.387 . S
H260 C267 0.950 . S
C261 C259 1.387 . S
C261 C263 1.390 1_554 S
C261 H265 0.950 . S
H262 C258 0.950 . S
C263 C261 1.390 1_556 S
C263 C264 1.387 . S
C263 H266 0.950 . S
C264 C263 1.387 . S
C264 C267 1.387 . S
H265 C261 0.950 . S
H266 C263 0.950 . S
C267 C258 1.390 1_556 S
C267 H260 0.950 . S
C267 C264 1.387 . S
C268 C269 1.387 . S
C268 H272 0.950 . S
C268 C277 1.390 . S
C269 C268 1.387 . S
C269 C271 1.387 . S
H270 C277 0.950 . S
C271 C269 1.387 . S
C271 C273 1.390 . S
C271 H275 0.950 . S
H272 C268 0.950 . S
C273 C271 1.390 . S
C273 C274 1.387 . S
C273 H276 0.950 . S
C274 C273 1.387 . S
C274 C277 1.387 . S
H275 C271 0.950 . S
H276 C273 0.950 . S
C277 C268 1.390 . S
C277 H270 0.950 . S
C277 C274 1.387 . S
C278 C279 1.387 . S
C278 H282 0.950 . S
C278 C287 1.390 . S
C279 C278 1.387 . S
C279 C281 1.387 . S
H280 C287 0.950 . S
C281 C279 1.387 . S
C281 C283 1.390 . S
C281 H285 0.950 . S
H282 C278 0.950 . S
C283 C281 1.390 . S
C283 C284 1.387 . S
C283 H286 0.950 . S
C284 C283 1.387 . S
C284 C287 1.387 . S
H285 C281 0.950 . S
H286 C283 0.950 . S
C287 C278 1.390 . S
C287 H280 0.950 . S
C287 C284 1.387 . S
C288 C289 1.387 . S
C288 H292 0.950 . S
C288 C297 1.390 1_655 S
C289 C288 1.387 . S
C289 C291 1.387 . S
H290 C297 0.950 . S
C291 C289 1.387 . S
C291 C293 1.390 1_655 S
C291 H295 0.950 . S
H292 C288 0.950 . S
C293 C291 1.390 1_455 S
C293 C294 1.387 . S
C293 H296 0.950 . S
C294 C293 1.387 . S
C294 C297 1.387 . S
H295 C291 0.950 . S
H296 C293 0.950 . S
C297 C288 1.390 1_455 S
C297 H290 0.950 . S
C297 C294 1.387 . S
C298 C299 1.387 . S
C298 H302 0.950 . S
C298 C307 1.390 1_545 S
C299 C298 1.387 . S
C299 C301 1.387 . S
H300 C307 0.950 . S
C301 C299 1.387 . S
C301 C303 1.390 1_545 S
C301 H305 0.950 . S
H302 C298 0.950 . S
C303 C301 1.390 1_565 S
C303 C304 1.387 . S
C303 H306 0.950 . S
C304 C303 1.387 . S
C304 C307 1.387 . S
H305 C301 0.950 . S
H306 C303 0.950 . S
C307 C298 1.390 1_565 S
C307 H300 0.950 . S
C307 C304 1.387 . S
C308 C309 1.387 . S
C308 H312 0.950 . S
C308 C317 1.390 . S
C309 C308 1.387 . S
C309 C311 1.387 . S
H310 C317 0.950 . S
C311 C309 1.387 . S
C311 C313 1.390 . S
C311 H315 0.950 . S
H312 C308 0.950 . S
C313 C311 1.390 . S
C313 C314 1.387 . S
C313 H316 0.950 . S
C314 C313 1.387 . S
C314 C317 1.387 . S
H315 C311 0.950 . S
H316 C313 0.950 . S
C317 C308 1.390 . S
C317 H310 0.950 . S
C317 C314 1.387 . S
C318 C319 1.387 . S
C318 H322 0.950 . S
C318 C327 1.390 1_545 S
C319 C318 1.387 . S
C319 C321 1.387 . S
H320 C327 0.950 . S
C321 C319 1.387 . S
C321 C323 1.390 1_545 S
C321 H325 0.950 . S
H322 C318 0.950 . S
C323 C321 1.390 1_565 S
C323 C324 1.387 . S
C323 H326 0.950 . S
C324 C323 1.387 . S
C324 C327 1.387 . S
H325 C321 0.950 . S
H326 C323 0.950 . S
C327 C318 1.390 1_565 S
C327 H320 0.950 . S
C327 C324 1.387 . S
C328 C329 1.387 . S
C328 H332 0.950 . S
C328 C337 1.390 . S
C329 C328 1.387 . S
C329 C331 1.387 . S
H330 C337 0.950 . S
C331 C329 1.387 . S
C331 C333 1.390 . S
C331 H335 0.950 . S
H332 C328 0.950 . S
C333 C331 1.390 . S
C333 C334 1.387 . S
C333 H336 0.950 . S
C334 C333 1.387 . S
C334 C337 1.387 . S
H335 C331 0.950 . S
H336 C333 0.950 . S
C337 C328 1.390 . S
C337 H330 0.950 . S
C337 C334 1.387 . S
C338 C339 1.387 . S
C338 H342 0.950 . S
C338 C347 1.390 1_455 S
C339 C338 1.387 . S
C339 C341 1.387 . S
H340 C347 0.950 . S
C341 C339 1.387 . S
C341 C343 1.390 1_455 S
C341 H345 0.950 . S
H342 C338 0.950 . S
C343 C341 1.390 1_655 S
C343 C344 1.387 . S
C343 H346 0.950 . S
C344 C343 1.387 . S
C344 C347 1.387 . S
H345 C341 0.950 . S
H346 C343 0.950 . S
C347 C338 1.390 1_655 S
C347 H340 0.950 . S
C347 C344 1.387 . S
C348 C349 1.387 . S
C348 H352 0.950 . S
C348 C357 1.390 1_445 S
C349 C348 1.387 . S
C349 C351 1.387 . S
H350 C357 0.950 . S
C351 C349 1.387 . S
C351 C353 1.390 1_445 S
C351 H355 0.950 . S
H352 C348 0.950 . S
C353 C351 1.390 1_665 S
C353 C354 1.387 . S
C353 H356 0.950 . S
C354 C353 1.387 . S
C354 C357 1.387 . S
H355 C351 0.950 . S
H356 C353 0.950 . S
C357 C348 1.390 1_665 S
C357 H350 0.950 . S
C357 C354 1.387 . S
C358 C359 1.387 . S
C358 H362 0.950 . S
C358 C367 1.390 1_645 S
C359 C358 1.387 . S
C359 C361 1.387 . S
H360 C367 0.950 . S
C361 C359 1.387 . S
C361 C363 1.390 1_645 S
C361 H365 0.950 . S
H362 C358 0.950 . S
C363 C361 1.390 1_465 S
C363 C364 1.387 . S
C363 H366 0.950 . S
C364 C363 1.387 . S
C364 C367 1.387 . S
H365 C361 0.950 . S
H366 C363 0.950 . S
C367 C358 1.390 1_465 S
C367 H360 0.950 . S
C367 C364 1.387 . S
C368 C369 1.387 . S
C368 H372 0.950 . S
C368 C377 1.390 1_445 S
C369 C368 1.387 . S
C369 C371 1.387 . S
H370 C377 0.950 . S
C371 C369 1.387 . S
C371 C373 1.390 1_445 S
C371 H375 0.950 . S
H372 C368 0.950 . S
C373 C371 1.390 1_665 S
C373 C374 1.387 . S
C373 H376 0.950 . S
C374 C373 1.387 . S
C374 C377 1.387 . S
H375 C371 0.950 . S
H376 C373 0.950 . S
C377 C368 1.390 1_665 S
C377 H370 0.950 . S
C377 C374 1.387 . S
C378 C379 1.387 . S
C378 H382 0.950 . S
C378 C387 1.390 1_665 S
C379 C378 1.387 . S
C379 C381 1.387 . S
H380 C387 0.950 . S
C381 C379 1.387 . S
C381 C383 1.390 1_665 S
C381 H385 0.950 . S
H382 C378 0.950 . S
C383 C381 1.390 1_445 S
C383 C384 1.387 . S
C383 H386 0.950 . S
C384 C383 1.387 . S
C384 C387 1.387 . S
H385 C381 0.950 . S
H386 C383 0.950 . S
C387 C378 1.390 1_445 S
C387 H380 0.950 . S
C387 C384 1.387 . S
C388 C389 1.387 . S
C388 H392 0.950 . S
C388 C397 1.390 1_665 S
C389 C388 1.387 . S
C389 C391 1.387 . S
H390 C397 0.950 . S
C391 C389 1.387 . S
C391 C393 1.390 1_665 S
C391 H395 0.950 . S
H392 C388 0.950 . S
C393 C391 1.390 1_445 S
C393 C394 1.387 . S
C393 H396 0.950 . S
C394 C393 1.387 . S
C394 C397 1.387 . S
H395 C391 0.950 . S
H396 C393 0.950 . S
C397 C388 1.390 1_445 S
C397 H390 0.950 . S
C397 C394 1.387 . S
C398 C399 1.387 . S
C398 H402 0.950 . S
C398 C407 1.390 1_465 S
C399 C398 1.387 . S
C399 C401 1.387 . S
H400 C407 0.950 . S
C401 C399 1.387 . S
C401 C403 1.390 1_465 S
C401 H405 0.950 . S
H402 C398 0.950 . S
C403 C401 1.390 1_645 S
C403 C404 1.387 . S
C403 H406 0.950 . S
C404 C403 1.387 . S
C404 C407 1.387 . S
H405 C401 0.950 . S
H406 C403 0.950 . S
C407 C398 1.390 1_645 S
C407 H400 0.950 . S
C407 C404 1.387 . S
C169 C154 1.560 . S
C174 C0 1.560 . S
C179 C15 1.560 . S
C184 C97 1.560 . S
C189 C28 1.560 . S
C194 C99 1.560 . S
C199 C55 1.561 . S
C204 C113 1.561 . S
C209 C127 1.560 . S
C214 C68 1.559 . S
C219 C71 1.560 . S
C224 C140 1.560 . S
C229 C1 1.572 . S
C234 C141 1.572 . S
C239 C14 1.570 . S
C244 C155 1.571 . S
C249 C29 1.571 . S
C254 C96 1.570 . S
C259 C54 1.570 . S
C264 C98 1.570 . S
C269 C112 1.569 . S
C274 C69 1.570 . S
C279 C126 1.569 . S
C284 C70 1.569 . S
C289 C42 1.594 . S
C294 C13 1.596 . S
C299 C26 1.596 . S
C304 C57 1.598 . S
C309 C82 1.594 . S
C314 C41 1.596 . S
C319 C138 1.596 . S
C324 C84 1.596 . S
C329 C153 1.598 . S
C334 C110 1.596 . S
C339 C124 1.596 . S
C344 C167 1.598 . S
C349 C12 1.570 . S
C354 C43 1.572 . S
C359 C27 1.570 . S
C364 C56 1.568 . S
C369 C83 1.569 . S
C374 C40 1.567 . S
C379 C85 1.572 . S
C384 C139 1.572 . S
C389 C111 1.569 . S
C394 C152 1.567 . S
C399 C125 1.572 . S
C404 C166 1.570 . S
