# Generated by pormake.
# Topology lcs, (4)-cn, num edge types: 1
# Building blocks:
#     Node 0, Type 0, BuildingBlock: QUQFOY_clean_sbu_1, # of connection points: 4
#     Node 1, Type 0, BuildingBlock: QUQFOY_clean_sbu_1, # of connection points: 4
#     Node 2, Type 0, BuildingBlock: QUQFOY_clean_sbu_1, # of connection points: 4
#     Node 3, Type 0, BuildingBlock: QUQFOY_clean_sbu_1, # of connection points: 4
#     Node 4, Type 0, BuildingBlock: QUQFOY_clean_sbu_1, # of connection points: 4
#     Node 5, Type 0, BuildingBlock: QUQFOY_clean_sbu_1, # of connection points: 4
#     Node 6, Type 0, BuildingBlock: QUQFOY_clean_sbu_1, # of connection points: 4
#     Node 7, Type 0, BuildingBlock: QUQFOY_clean_sbu_1, # of connection points: 4
#     Node 8, Type 0, BuildingBlock: QUQFOY_clean_sbu_1, # of connection points: 4
#     Node 9, Type 0, BuildingBlock: QUQFOY_clean_sbu_1, # of connection points: 4
#     Node 10, Type 0, BuildingBlock: QUQFOY_clean_sbu_1, # of connection points: 4
#     Node 11, Type 0, BuildingBlock: QUQFOY_clean_sbu_1, # of connection points: 4
#     Node 12, Type 0, BuildingBlock: QUQFOY_clean_sbu_1, # of connection points: 4
#     Node 13, Type 0, BuildingBlock: QUQFOY_clean_sbu_1, # of connection points: 4
#     Node 14, Type 0, BuildingBlock: QUQFOY_clean_sbu_1, # of connection points: 4
#     Node 15, Type 0, BuildingBlock: QUQFOY_clean_sbu_1, # of connection points: 4
#     Node 16, Type 0, BuildingBlock: QUQFOY_clean_sbu_1, # of connection points: 4
#     Node 17, Type 0, BuildingBlock: QUQFOY_clean_sbu_1, # of connection points: 4
#     Node 18, Type 0, BuildingBlock: QUQFOY_clean_sbu_1, # of connection points: 4
#     Node 19, Type 0, BuildingBlock: QUQFOY_clean_sbu_1, # of connection points: 4
#     Node 20, Type 0, BuildingBlock: QUQFOY_clean_sbu_1, # of connection points: 4
#     Node 21, Type 0, BuildingBlock: QUQFOY_clean_sbu_1, # of connection points: 4
#     Node 22, Type 0, BuildingBlock: QUQFOY_clean_sbu_1, # of connection points: 4
#     Node 23, Type 0, BuildingBlock: QUQFOY_clean_sbu_1, # of connection points: 4
#     Edge 24, Type (0, 0), BuildingBlock: XIVTED_clean_linker_0, # of connection points: 2
#     Edge 25, Type (0, 0), BuildingBlock: XIVTED_clean_linker_0, # of connection points: 2
#     Edge 26, Type (0, 0), BuildingBlock: XIVTED_clean_linker_0, # of connection points: 2
#     Edge 27, Type (0, 0), BuildingBlock: XIVTED_clean_linker_0, # of connection points: 2
#     Edge 28, Type (0, 0), BuildingBlock: XIVTED_clean_linker_0, # of connection points: 2
#     Edge 29, Type (0, 0), BuildingBlock: XIVTED_clean_linker_0, # of connection points: 2
#     Edge 30, Type (0, 0), BuildingBlock: XIVTED_clean_linker_0, # of connection points: 2
#     Edge 31, Type (0, 0), BuildingBlock: XIVTED_clean_linker_0, # of connection points: 2
#     Edge 32, Type (0, 0), BuildingBlock: XIVTED_clean_linker_0, # of connection points: 2
#     Edge 33, Type (0, 0), BuildingBlock: XIVTED_clean_linker_0, # of connection points: 2
#     Edge 34, Type (0, 0), BuildingBlock: XIVTED_clean_linker_0, # of connection points: 2
#     Edge 35, Type (0, 0), BuildingBlock: XIVTED_clean_linker_0, # of connection points: 2
#     Edge 36, Type (0, 0), BuildingBlock: XIVTED_clean_linker_0, # of connection points: 2
#     Edge 37, Type (0, 0), BuildingBlock: XIVTED_clean_linker_0, # of connection points: 2
#     Edge 38, Type (0, 0), BuildingBlock: XIVTED_clean_linker_0, # of connection points: 2
#     Edge 39, Type (0, 0), BuildingBlock: XIVTED_clean_linker_0, # of connection points: 2
#     Edge 40, Type (0, 0), BuildingBlock: XIVTED_clean_linker_0, # of connection points: 2
#     Edge 41, Type (0, 0), BuildingBlock: XIVTED_clean_linker_0, # of connection points: 2
#     Edge 42, Type (0, 0), BuildingBlock: XIVTED_clean_linker_0, # of connection points: 2
#     Edge 43, Type (0, 0), BuildingBlock: XIVTED_clean_linker_0, # of connection points: 2
#     Edge 44, Type (0, 0), BuildingBlock: XIVTED_clean_linker_0, # of connection points: 2
#     Edge 45, Type (0, 0), BuildingBlock: XIVTED_clean_linker_0, # of connection points: 2
#     Edge 46, Type (0, 0), BuildingBlock: XIVTED_clean_linker_0, # of connection points: 2
#     Edge 47, Type (0, 0), BuildingBlock: XIVTED_clean_linker_0, # of connection points: 2
#     Edge 48, Type (0, 0), BuildingBlock: XIVTED_clean_linker_0, # of connection points: 2
#     Edge 49, Type (0, 0), BuildingBlock: XIVTED_clean_linker_0, # of connection points: 2
#     Edge 50, Type (0, 0), BuildingBlock: XIVTED_clean_linker_0, # of connection points: 2
#     Edge 51, Type (0, 0), BuildingBlock: XIVTED_clean_linker_0, # of connection points: 2
#     Edge 52, Type (0, 0), BuildingBlock: XIVTED_clean_linker_0, # of connection points: 2
#     Edge 53, Type (0, 0), BuildingBlock: XIVTED_clean_linker_0, # of connection points: 2
#     Edge 54, Type (0, 0), BuildingBlock: XIVTED_clean_linker_0, # of connection points: 2
#     Edge 55, Type (0, 0), BuildingBlock: XIVTED_clean_linker_0, # of connection points: 2
#     Edge 56, Type (0, 0), BuildingBlock: XIVTED_clean_linker_0, # of connection points: 2
#     Edge 57, Type (0, 0), BuildingBlock: XIVTED_clean_linker_0, # of connection points: 2
#     Edge 58, Type (0, 0), BuildingBlock: XIVTED_clean_linker_0, # of connection points: 2
#     Edge 59, Type (0, 0), BuildingBlock: XIVTED_clean_linker_0, # of connection points: 2
#     Edge 60, Type (0, 0), BuildingBlock: XIVTED_clean_linker_0, # of connection points: 2
#     Edge 61, Type (0, 0), BuildingBlock: XIVTED_clean_linker_0, # of connection points: 2
#     Edge 62, Type (0, 0), BuildingBlock: XIVTED_clean_linker_0, # of connection points: 2
#     Edge 63, Type (0, 0), BuildingBlock: XIVTED_clean_linker_0, # of connection points: 2
#     Edge 64, Type (0, 0), BuildingBlock: XIVTED_clean_linker_0, # of connection points: 2
#     Edge 65, Type (0, 0), BuildingBlock: XIVTED_clean_linker_0, # of connection points: 2
#     Edge 66, Type (0, 0), BuildingBlock: XIVTED_clean_linker_0, # of connection points: 2
#     Edge 67, Type (0, 0), BuildingBlock: XIVTED_clean_linker_0, # of connection points: 2
#     Edge 68, Type (0, 0), BuildingBlock: XIVTED_clean_linker_0, # of connection points: 2
#     Edge 69, Type (0, 0), BuildingBlock: XIVTED_clean_linker_0, # of connection points: 2
#     Edge 70, Type (0, 0), BuildingBlock: XIVTED_clean_linker_0, # of connection points: 2
#     Edge 71, Type (0, 0), BuildingBlock: XIVTED_clean_linker_0, # of connection points: 2
# Relax obj value: 0.057
# Max RMSD: 0.117
# Mean RMSD: 0.113
data_MOF--net-lcs--node1-QUQFOY_clean_sbu_1--edge1-XIVTED_clean_linker_0
_symmetry_space_group_name_H-M    P1
_symmetry_Int_Tables_number       1
_symmetry_cell_setting            triclinic
loop_
_symmetry_equiv_pos_as_xyz
'x, y, z'
_cell_length_a     51.485858
_cell_length_b     51.492444
_cell_length_c     51.510013
_cell_angle_alpha  94.199782
_cell_angle_beta   94.161131
_cell_angle_gamma 94.207938
loop_
_atom_site_label
_atom_site_type_symbol
_atom_site_fract_x
_atom_site_fract_y
_atom_site_fract_z
_atom_type_partial_charge
O0 O 0.05349 0.2638 0.38874 0.0
Cd1 Cd 0.02513 0.26955 0.35984 0.0
Cd2 Cd 0.99254 0.26079 0.39908 0.0
O3 O 0.02755 0.25633 0.42021 0.0
O4 O 0.0445 0.28585 0.33227 0.0
O5 O 0.01504 0.30581 0.35379 0.0
C6 C 0.032 0.30634 0.33648 0.0
C7 C 0.95939 0.28319 0.41765 0.0
C8 C 0.05027 0.25802 0.41192 0.0
C9 C 0.98669 0.22262 0.35124 0.0
O10 O 0.97904 0.22951 0.37342 0.0
O11 O 0.00475 0.23622 0.34171 0.0
O12 O 0.96572 0.26105 0.4252 0.0
O13 O 0.97271 0.29341 0.40012 0.0
O14 O 0.05305 0.72046 0.64418 0.0
Cd15 Cd 0.02356 0.73456 0.66481 0.0
Cd16 Cd 0.01172 0.75762 0.6195 0.0
O17 O 0.0421 0.73701 0.60691 0.0
O18 O 0.0196 0.71291 0.69497 0.0
O19 O 0.98922 0.71308 0.66218 0.0
C20 C 0.99701 0.70423 0.68403 0.0
C21 C 0.97284 0.75882 0.59349 0.0
C22 C 0.0569 0.72355 0.62046 0.0
C23 C 0.02683 0.79294 0.66831 0.0
O24 O 0.02094 0.79098 0.64384 0.0
O25 O 0.02845 0.77265 0.68075 0.0
O26 O 0.9943 0.77084 0.58784 0.0
O27 O 0.97375 0.74478 0.61329 0.0
O28 O 0.56067 0.7634 0.87266 0.0
Cd29 Cd 0.53011 0.76977 0.84645 0.0
Cd30 Cd 0.50288 0.76481 0.88983 0.0
O31 O 0.54 0.76547 0.90874 0.0
O32 O 0.54668 0.78517 0.81668 0.0
O33 O 0.5205 0.80637 0.84142 0.0
C34 C 0.53547 0.80622 0.82232 0.0
C35 C 0.46932 0.78642 0.90868 0.0
C36 C 0.56089 0.76293 0.89731 0.0
C37 C 0.4931 0.72282 0.84479 0.0
O38 O 0.4897 0.73041 0.86825 0.0
O39 O 0.50748 0.73675 0.83131 0.0
O40 O 0.47838 0.76615 0.91817 0.0
O41 O 0.48021 0.7954 0.889 0.0
O42 O 0.55449 0.22063 0.13767 0.0
Cd43 Cd 0.527 0.2365 0.16031 0.0
Cd44 Cd 0.51676 0.26001 0.11509 0.0
O45 O 0.54301 0.23598 0.09997 0.0
O46 O 0.52594 0.21415 0.19032 0.0
O47 O 0.49189 0.21705 0.16224 0.0
C48 C 0.50197 0.20697 0.18253 0.0
C49 C 0.47639 0.26467 0.09293 0.0
C50 C 0.55747 0.22226 0.11352 0.0
C51 C 0.53749 0.2944 0.16297 0.0
O52 O 0.5326 0.29218 0.13835 0.0
O53 O 0.5347 0.27465 0.17624 0.0
O54 O 0.49784 0.27471 0.08508 0.0
O55 O 0.47794 0.25097 0.11297 0.0
O56 O 0.04888 0.71115 0.12217 0.0
Cd57 Cd 0.03364 0.73909 0.09971 0.0
Cd58 Cd 0.01155 0.75108 0.14556 0.0
O59 O 0.0351 0.7242 0.16021 0.0
O60 O 0.05581 0.73979 0.06951 0.0
O61 O 0.05399 0.77375 0.09805 0.0
C62 C 0.06373 0.76353 0.07762 0.0
C63 C 0.0077 0.79127 0.16859 0.0
C64 C 0.0478 0.70883 0.1465 0.0
C65 C 0.97563 0.73084 0.09848 0.0
O66 O 0.97861 0.73598 0.12306 0.0
O67 O 0.99504 0.73272 0.08462 0.0
O68 O 0.99767 0.76974 0.17625 0.0
O69 O 0.02095 0.78992 0.14822 0.0
O70 O 0.50251 0.71013 0.37757 0.0
Cd71 Cd 0.49808 0.73926 0.40621 0.0
Cd72 Cd 0.5056 0.77072 0.3659 0.0
O73 O 0.50871 0.73519 0.34515 0.0
O74 O 0.48216 0.72115 0.43477 0.0
O75 O 0.46238 0.75049 0.41293 0.0
C76 C 0.46195 0.73411 0.43079 0.0
C77 C 0.4837 0.80419 0.34746 0.0
C78 C 0.50724 0.71273 0.35398 0.0
C79 C 0.54532 0.77724 0.4125 0.0
O80 O 0.53779 0.78425 0.39024 0.0
O81 O 0.53199 0.75965 0.42297 0.0
O82 O 0.50523 0.79687 0.33919 0.0
O83 O 0.47368 0.79157 0.36557 0.0
O84 O 0.53918 0.21158 0.6189 0.0
Cd85 Cd 0.52512 0.24183 0.59902 0.0
Cd86 Cd 0.50737 0.25333 0.64588 0.0
O87 O 0.53372 0.22784 0.65878 0.0
O88 O 0.5459 0.24383 0.56794 0.0
O89 O 0.5466 0.27604 0.59897 0.0
C90 C 0.5549 0.26692 0.57729 0.0
C91 C 0.50362 0.29387 0.66821 0.0
C92 C 0.54242 0.2106 0.6435 0.0
C93 C 0.46817 0.23435 0.60101 0.0
O94 O 0.47318 0.23714 0.62563 0.0
O95 O 0.48621 0.2381 0.58584 0.0
O96 O 0.49535 0.2724 0.67736 0.0
O97 O 0.51528 0.29227 0.64682 0.0
O98 O 0.00477 0.21208 0.88382 0.0
Cd99 Cd 0.99809 0.24255 0.91051 0.0
Cd100 Cd 0.0068 0.27043 0.86856 0.0
O101 O 0.0075 0.23434 0.84892 0.0
O102 O 0.98254 0.22507 0.93968 0.0
O103 O 0.96122 0.25152 0.91544 0.0
C104 C 0.96138 0.23614 0.93418 0.0
C105 C 0.9847 0.3037 0.85018 0.0
C106 C 0.00781 0.21288 0.8596 0.0
C107 C 0.04621 0.27906 0.91479 0.0
O108 O 0.04066 0.28245 0.89093 0.0
O109 O 0.03066 0.26542 0.9274 0.0
O110 O 0.0056 0.29567 0.84106 0.0
O111 O 0.97563 0.29216 0.86945 0.0
O112 O 0.3795 0.05914 0.25918 0.0
Cd113 Cd 0.35343 0.02862 0.26606 0.0
Cd114 Cd 0.39653 1.00122 0.26188 0.0
O115 O 0.41542 0.03824 0.26145 0.0
O116 O 0.32368 0.04488 0.28179 0.0
O117 O 0.34898 0.01897 0.3027 0.0
C118 C 0.32966 0.03366 0.30275 0.0
C119 C 0.41542 0.96836 0.28433 0.0
C120 C 0.40414 0.05916 0.2586 0.0
C121 C 0.35156 0.99015 0.22019 0.0
O122 O 0.37498 0.98676 0.22793 0.0
O123 O 0.3383 0.0053 0.23352 0.0
O124 O 0.42498 0.97699 0.2639 0.0
O125 O 0.39572 0.97942 0.29306 0.0
O126 O 0.21855 0.13777 0.55138 0.0
Cd127 Cd 0.2333 0.15808 0.52168 0.0
Cd128 Cd 0.25388 0.11183 0.51147 0.0
O129 O 0.22902 0.09848 0.53789 0.0
O130 O 0.21339 0.18983 0.52003 0.0
O131 O 0.21008 0.15783 0.48851 0.0
C132 C 0.20279 0.17992 0.49773 0.0
C133 C 0.25778 0.0897 0.47094 0.0
C134 C 0.21783 0.11329 0.55367 0.0
C135 C 0.29107 0.15786 0.52998 0.0
O136 O 0.28725 0.13316 0.52721 0.0
O137 O 0.27228 0.17211 0.52592 0.0
O138 O 0.26673 0.08087 0.49233 0.0
O139 O 0.24529 0.11057 0.47266 0.0
O140 O 0.1205 0.04293 0.71429 0.0
Cd141 Cd 0.09999 0.02885 0.74387 0.0
Cd142 Cd 0.1457 0.00605 0.75558 0.0
O143 O 0.15804 0.02686 0.72526 0.0
O144 O 0.06947 0.05011 0.74731 0.0
O145 O 0.10216 0.0508 0.77792 0.0
C146 C 0.08022 0.05925 0.76982 0.0
C147 C 0.17205 0.00456 0.79419 0.0
C148 C 0.14428 0.04011 0.71043 0.0
C149 C 0.09701 0.97045 0.74055 0.0
O150 O 0.12151 0.97261 0.74626 0.0
O151 O 0.08436 0.99063 0.73913 0.0
O152 O 0.17756 0.99277 0.77258 0.0
O153 O 0.15221 0.01856 0.79361 0.0
O154 O 0.21409 0.88337 1.00167 0.0
Cd155 Cd 0.24442 0.9097 0.99493 0.0
Cd156 Cd 0.27249 0.86745 1.00187 0.0
O157 O 0.23569 0.84791 0.00208 0.0
O158 O 0.22738 0.93902 0.9793 0.0
O159 O 0.2541 0.91472 0.95836 0.0
C160 C 0.23888 0.9336 0.95839 0.0
C161 C 0.30592 0.84948 0.97944 0.0
C162 C 0.21442 0.85892 0.00353 0.0
C163 C 0.28154 0.91372 0.04216 0.0
O164 O 0.28577 0.89022 0.03556 0.0
O165 O 0.26655 0.92604 0.02767 0.0
O166 O 0.29782 0.83992 1.0001 0.0
O167 O 0.29414 0.86871 0.97059 0.0
O168 O 0.26228 0.37822 0.05827 0.0
Cd169 Cd 0.27012 0.35455 0.02601 0.0
Cd170 Cd 0.26223 0.39835 0.00332 0.0
O171 O 0.26626 0.416 0.04084 0.0
O172 O 0.28671 0.32451 0.04079 0.0
O173 O 0.30727 0.35219 0.01688 0.0
C174 C 0.30779 0.33212 0.03053 0.0
C175 C 0.28348 0.41542 0.96885 0.0
C176 C 0.26298 0.40303 0.06059 0.0
C177 C 0.22153 0.35351 0.99217 0.0
O178 O 0.22653 0.37808 0.99283 0.0
O179 O 0.23823 0.33914 1.00169 0.0
O180 O 0.26442 0.42651 0.97877 0.0
O181 O 0.29136 0.39502 0.9793 0.0
O182 O 0.71565 0.12029 0.04379 0.0
Cd183 Cd 0.74286 0.09739 0.02855 0.0
Cd184 Cd 0.7562 0.14318 0.0052 0.0
O185 O 0.72665 0.15703 0.0263 0.0
O186 O 0.74423 0.0677 0.05123 0.0
O187 O 0.77802 0.09611 0.0479 0.0
C188 C 0.76817 0.07586 0.05825 0.0
C189 C 0.79503 0.16897 0.00218 0.0
C190 C 0.71219 0.14405 0.04055 0.0
C191 C 0.73797 0.09417 0.9703 0.0
O192 O 0.74567 0.11829 0.97243 0.0
O193 O 0.73551 0.08166 0.99047 0.0
O194 O 0.77327 0.17434 0.99061 0.0
O195 O 0.79457 0.14953 0.01668 0.0
O196 O 0.14428 0.55012 0.22276 0.0
Cd197 Cd 0.16571 0.52229 0.2396 0.0
Cd198 Cd 0.11909 0.51229 0.26066 0.0
O199 O 0.10549 0.53858 0.23581 0.0
O200 O 0.19704 0.52156 0.21908 0.0
O201 O 0.16838 0.48751 0.21979 0.0
C202 C 0.18935 0.49777 0.21103 0.0
C203 C 0.09644 0.47204 0.26473 0.0
C204 C 0.11999 0.55311 0.22298 0.0
C205 C 0.16546 0.53245 0.29731 0.0
O206 O 0.14082 0.52805 0.2938 0.0
O207 O 0.17975 0.52943 0.27837 0.0
O208 O 0.08807 0.49359 0.27388 0.0
O209 O 0.11724 0.47343 0.25209 0.0
O210 O 0.76424 0.87862 0.55274 0.0
Cd211 Cd 0.77069 0.85187 0.52268 0.0
Cd212 Cd 0.76601 0.89416 0.49432 0.0
O213 O 0.76602 0.91395 0.53094 0.0
O214 O 0.78651 0.82255 0.5395 0.0
O215 O 0.80714 0.84702 0.51265 0.0
C216 C 0.80731 0.82811 0.52784 0.0
C217 C 0.78821 0.91244 0.46089 0.0
C218 C 0.76353 0.90319 0.55219 0.0
C219 C 0.72416 0.84902 0.48513 0.0
O220 O 0.73183 0.87226 0.48095 0.0
O221 O 0.73782 0.83614 0.50034 0.0
O222 O 0.76768 0.92197 0.46934 0.0
O223 O 0.79706 0.893 0.47229 0.0
O224 O 0.89241 0.00361 0.20703 0.0
Cd225 Cd 0.91873 0.99714 0.2374 0.0
Cd226 Cd 0.87571 1.00065 0.26482 0.0
O227 O 0.85652 1.00021 0.22789 0.0
O228 O 0.94833 0.98139 0.22092 0.0
O229 O 0.92316 0.96049 0.24698 0.0
C230 C 0.94226 0.96036 0.23202 0.0
C231 C 0.85731 0.97821 0.29804 0.0
C232 C 0.86771 0.00343 0.20699 0.0
C233 C 0.92005 0.04333 0.27513 0.0
O234 O 0.89672 0.03522 0.2785 0.0
O235 O 0.9337 0.02996 0.26041 0.0
O236 O 0.84745 0.99845 0.28932 0.0
O237 O 0.87713 0.96973 0.28699 0.0
O238 O 0.21667 0.6271 0.54565 0.0
Cd239 Cd 0.24701 0.6074 0.53133 0.0
Cd240 Cd 0.25687 0.65385 0.5112 0.0
O241 O 0.22993 0.66666 0.53572 0.0
O242 O 0.24894 0.5756 0.55111 0.0
O243 O 0.27992 0.60817 0.55502 0.0
C244 C 0.27097 0.58587 0.56206 0.0
C245 C 0.29729 0.67639 0.50786 0.0
C246 C 0.2141 0.65154 0.54652 0.0
C247 C 0.23979 0.60789 0.47353 0.0
O248 O 0.24193 0.63259 0.47753 0.0
O249 O 0.24377 0.5936 0.49229 0.0
O250 O 0.27588 0.6851 0.49879 0.0
O251 O 0.29562 0.65546 0.52025 0.0
O252 O 0.3802 0.50252 0.71161 0.0
Cd253 Cd 0.40902 0.49666 0.74001 0.0
Cd254 Cd 0.36921 0.50502 0.77251 0.0
O255 O 0.34845 0.50955 0.73732 0.0
O256 O 0.43671 0.48047 0.72068 0.0
O257 O 0.41501 0.46031 0.74988 0.0
C258 C 0.43239 0.45986 0.73298 0.0
C259 C 0.34967 0.48342 0.80566 0.0
C260 C 0.35694 0.5081 0.7147 0.0
C261 C 0.41717 0.54326 0.77887 0.0
O262 O 0.39493 0.53615 0.78628 0.0
O263 O 0.42691 0.52995 0.76075 0.0
O264 O 0.3426 0.50557 0.79883 0.0
O265 O 0.36725 0.47271 0.79282 0.0
O266 O 0.64825 0.05799 0.71883 0.0
Cd267 Cd 0.66978 0.02843 0.7311 0.0
Cd268 Cd 0.62355 0.01315 0.75138 0.0
O269 O 0.60964 0.04184 0.72889 0.0
O270 O 0.69934 0.02687 0.70826 0.0
O271 O 0.66908 0.99421 0.70964 0.0
C272 C 0.68995 0.00358 0.69995 0.0
C273 C 0.5987 0.97359 0.75377 0.0
C274 C 0.62369 0.05915 0.71874 0.0
C275 C 0.6713 0.03046 0.78873 0.0
O276 O 0.64684 0.02434 0.78542 0.0
O277 O 0.68491 0.03218 0.76925 0.0
O278 O 0.59206 0.99519 0.76463 0.0
O279 O 0.61886 0.9746 0.74022 0.0
O280 O 0.72389 0.64888 0.05305 0.0
Cd281 Cd 0.7384 0.66811 0.0226 0.0
Cd282 Cd 0.75382 0.62028 0.01083 0.0
O283 O 0.72712 0.60861 0.03654 0.0
O284 O 0.71847 0.69978 0.02054 0.0
O285 O 0.71657 0.66823 0.98868 0.0
C286 C 0.70885 0.69021 0.99772 0.0
C287 C 0.75677 0.59746 0.97039 0.0
C288 C 0.71937 0.62437 0.05396 0.0
C289 C 0.79504 0.6636 0.02918 0.0
O290 O 0.78879 0.63916 0.02666 0.0
O291 O 0.7778 0.67967 0.02557 0.0
O292 O 0.76455 0.5881 0.9919 0.0
O293 O 0.74594 0.61933 0.9719 0.0
O294 O 0.87932 0.55532 0.7619 0.0
Cd295 Cd 0.85189 0.52534 0.7682 0.0
Cd296 Cd 0.89327 0.49651 0.75889 0.0
O297 O 0.9136 0.53225 0.7583 0.0
O298 O 0.82327 0.54355 0.78401 0.0
O299 O 0.84649 0.51597 0.80486 0.0
C300 C 0.8283 0.53198 0.80494 0.0
C301 C 0.91132 0.46266 0.78035 0.0
C302 C 0.90343 0.55401 0.75851 0.0
C303 C 0.8467 0.48932 0.71971 0.0
O304 O 0.87041 0.48523 0.72516 0.0
O305 O 0.83447 0.50323 0.73538 0.0
O306 O 0.92023 0.47067 0.75936 0.0
O307 O 0.89244 0.47451 0.78986 0.0
O308 O 0.70516 0.38817 0.50256 0.0
Cd309 Cd 0.73663 0.4133 0.49527 0.0
Cd310 Cd 0.76135 0.36988 0.50333 0.0
O311 O 0.72424 0.35124 0.49939 0.0
O312 O 0.72059 0.44319 0.47954 0.0
O313 O 0.74599 0.41755 0.45841 0.0
C314 C 0.73154 0.43705 0.45846 0.0
C315 C 0.7963 0.3522 0.48326 0.0
C316 C 0.70387 0.36338 0.50224 0.0
C317 C 0.77056 0.4151 0.54407 0.0
O318 O 0.77124 0.39068 0.53886 0.0
O319 O 0.76012 0.42912 0.52756 0.0
O320 O 0.78611 0.34182 0.50255 0.0
O321 O 0.78597 0.37229 0.47452 0.0
O322 O 0.62055 0.5411 0.20871 0.0
Cd323 Cd 0.6033 0.52863 0.24119 0.0
Cd324 Cd 0.65086 0.51461 0.25206 0.0
O325 O 0.66104 0.54165 0.22609 0.0
O326 O 0.57124 0.54767 0.24505 0.0
O327 O 0.60642 0.55391 0.27296 0.0
C328 C 0.58323 0.56002 0.2657 0.0
C329 C 0.67309 0.5122 0.29281 0.0
C330 C 0.64484 0.54729 0.20792 0.0
C331 C 0.60865 0.47236 0.23621 0.0
O332 O 0.63286 0.47925 0.23638 0.0
O333 O 0.59261 0.48923 0.24145 0.0
O334 O 0.68321 0.50497 0.27152 0.0
O335 O 0.65091 0.52245 0.29086 0.0
H336 H 0.11064 0.4228 0.25112 0.0
H337 H 0.0108 0.35369 0.34181 0.0
H338 H 0.05342 0.46335 0.29201 0.0
H339 H 0.06697 0.31295 0.29957 0.0
H340 H 0.02361 0.39334 0.32089 0.0
H341 H 0.09226 0.3816 0.26553 0.0
C342 C 0.09402 0.42302 0.26286 0.0
C343 C 0.08369 0.4466 0.27051 0.0
C344 C 0.033 0.37567 0.31605 0.0
C345 C 0.06269 0.39954 0.28731 0.0
C346 C 0.02567 0.35302 0.328 0.0
C347 C 0.03795 0.33 0.32259 0.0
C348 C 0.0528 0.37533 0.29864 0.0
C349 C 0.05706 0.33027 0.30446 0.0
C350 C 0.08357 0.39949 0.27115 0.0
C351 C 0.06213 0.44567 0.28574 0.0
N352 N 0.06401 0.35259 0.29329 0.0
N353 N 0.0525 0.42259 0.29381 0.0
H354 H 0.92334 0.74042 0.60311 0.0
H355 H 0.85524 0.83614 0.50834 0.0
H356 H 0.96514 0.78798 0.55174 0.0
H357 H 0.81335 0.788 0.55916 0.0
H358 H 0.89499 0.81511 0.52039 0.0
H359 H 0.88217 0.75366 0.58346 0.0
C360 C 0.92386 0.75333 0.58744 0.0
C361 C 0.94774 0.76329 0.57925 0.0
C362 C 0.87705 0.80898 0.52873 0.0
C363 C 0.90072 0.7788 0.55687 0.0
C364 C 0.85433 0.82099 0.52184 0.0
C365 C 0.83098 0.814 0.53293 0.0
C366 C 0.87643 0.78992 0.54693 0.0
C367 C 0.83095 0.79416 0.55026 0.0
C368 C 0.90034 0.76097 0.57628 0.0
C369 C 0.9472 0.77995 0.55883 0.0
N370 N 0.85335 0.78299 0.55687 0.0
N371 N 0.92411 0.78738 0.54855 0.0
H372 H 0.40612 0.57217 0.82263 0.0
H373 H 0.50231 0.69579 0.79875 0.0
H374 H 0.45804 0.57203 0.76046 0.0
H375 H 0.45799 0.69016 0.86644 0.0
H376 H 0.48528 0.65126 0.78322 0.0
H377 H 0.42465 0.61581 0.83836 0.0
C378 C 0.4216 0.58124 0.81239 0.0
C379 C 0.43049 0.56842 0.79013 0.0
C380 C 0.47929 0.65983 0.80145 0.0
C381 C 0.45163 0.6187 0.80792 0.0
C382 C 0.48886 0.6853 0.81025 0.0
C383 C 0.48157 0.69675 0.83395 0.0
C384 C 0.46223 0.64579 0.8164 0.0
C385 C 0.46421 0.68216 0.84809 0.0
C386 C 0.43215 0.60622 0.82137 0.0
C387 C 0.45065 0.58115 0.77773 0.0
N388 N 0.45516 0.65749 0.8391 0.0
N389 N 0.46042 0.6057 0.78669 0.0
H390 H 0.57763 0.23083 0.06681 0.0
H391 H 0.68406 0.12642 0.07965 0.0
H392 H 0.58706 0.1852 0.13344 0.0
H393 H 0.68978 0.18873 0.02815 0.0
H394 H 0.64588 0.14483 0.09703 0.0
H395 H 0.6157 0.21216 0.0493 0.0
C396 C 0.58754 0.21671 0.07765 0.0
C397 C 0.57914 0.20959 0.10166 0.0
C398 C 0.65557 0.15454 0.08202 0.0
C399 C 0.62275 0.18825 0.08175 0.0
C400 C 0.67736 0.14405 0.07207 0.0
C401 C 0.69017 0.15607 0.05241 0.0
C402 C 0.64624 0.17702 0.07202 0.0
C403 C 0.68061 0.17889 0.04338 0.0
C404 C 0.60938 0.20622 0.06773 0.0
C405 C 0.59287 0.19132 0.11491 0.0
N406 N 0.6591 0.18853 0.05312 0.0
N407 N 0.61396 0.18125 0.10475 0.0
H408 H 0.14112 0.58134 0.18547 0.0
H409 H 0.03825 0.68928 0.19314 0.0
H410 H 0.07418 0.57506 0.23113 0.0
H411 H 0.08421 0.67799 0.12695 0.0
H412 H 0.05556 0.6508 0.211 0.0
H413 H 0.12418 0.61971 0.16675 0.0
C414 C 0.12279 0.58793 0.19144 0.0
C415 C 0.10902 0.57495 0.20987 0.0
C416 C 0.06187 0.65679 0.19259 0.0
C417 C 0.08986 0.61903 0.18892 0.0
C418 C 0.05217 0.67887 0.18247 0.0
C419 C 0.05977 0.68686 0.15848 0.0
C420 C 0.07959 0.64279 0.17884 0.0
C421 C 0.07776 0.67248 0.14546 0.0
C422 C 0.11316 0.6098 0.18075 0.0
C423 C 0.08537 0.58435 0.21689 0.0
N424 N 0.08713 0.65117 0.15585 0.0
N425 N 0.07667 0.60596 0.20658 0.0
H426 H 0.57357 0.76083 0.45477 0.0
H427 H 0.69233 0.86884 0.44801 0.0
H428 H 0.57519 0.81926 0.39876 0.0
H429 H 0.69681 0.80386 0.49618 0.0
H430 H 0.64838 0.85195 0.43143 0.0
H431 H 0.61744 0.77789 0.47256 0.0
C432 C 0.58302 0.77738 0.44638 0.0
C433 C 0.57071 0.78858 0.42519 0.0
C434 C 0.65898 0.8413 0.44555 0.0
C435 C 0.62087 0.80801 0.44528 0.0
C436 C 0.68413 0.85092 0.45501 0.0
C437 C 0.69831 0.83775 0.47352 0.0
C438 C 0.64775 0.81839 0.45475 0.0
C439 C 0.68663 0.8146 0.48184 0.0
C440 C 0.60811 0.78698 0.45642 0.0
C441 C 0.58394 0.8099 0.41502 0.0
N442 N 0.66196 0.80571 0.47248 0.0
N443 N 0.60827 0.81887 0.42512 0.0
H444 H 0.51612 0.34292 0.65293 0.0
H445 H 0.42728 0.41252 0.75423 0.0
H446 H 0.47755 0.30294 0.71199 0.0
H447 H 0.46885 0.45315 0.69754 0.0
H448 H 0.44802 0.37283 0.74118 0.0
H449 H 0.50179 0.38419 0.67123 0.0
C450 C 0.50491 0.34285 0.66992 0.0
C451 C 0.4979 0.31939 0.68082 0.0
C452 C 0.45275 0.39049 0.73173 0.0
C453 C 0.48116 0.36654 0.70173 0.0
C454 C 0.44091 0.41316 0.73919 0.0
C455 C 0.44619 0.43617 0.72686 0.0
C456 C 0.46992 0.39077 0.71171 0.0
C457 C 0.46408 0.43584 0.70752 0.0
C458 C 0.49666 0.36642 0.68034 0.0
C459 C 0.48333 0.32051 0.70285 0.0
N460 N 0.47514 0.41349 0.70043 0.0
N461 N 0.47527 0.34362 0.71243 0.0
H462 H 0.95645 0.20499 0.97459 0.0
H463 H 0.8016 0.21085 0.97293 0.0
H464 H 0.91245 0.25332 0.92553 0.0
H465 H 0.84509 0.1595 0.01891 0.0
H466 H 0.84258 0.23055 0.95955 0.0
H467 H 0.91662 0.19203 0.99487 0.0
C468 C 0.93845 0.21306 0.9682 0.0
C469 C 0.93777 0.23013 0.94815 0.0
C470 C 0.84321 0.21515 0.97276 0.0
C471 C 0.89196 0.21522 0.9713 0.0
C472 C 0.81979 0.20391 0.98049 0.0
C473 C 0.81987 0.18331 0.99692 0.0
C474 C 0.86696 0.20571 0.98143 0.0
C475 C 0.84408 0.17525 0.00614 0.0
C476 C 0.91568 0.20562 0.97981 0.0
C477 C 0.91387 0.24003 0.94082 0.0
N478 N 0.86662 0.1863 0.99808 0.0
N479 N 0.89189 0.23228 0.95226 0.0
H480 H 0.28524 0.04693 0.4616 0.0
H481 H 0.28959 0.06505 0.30897 0.0
H482 H 0.24456 0.10485 0.422 0.0
H483 H 0.33739 0.01375 0.35051 0.0
H484 H 0.26858 0.07574 0.34895 0.0
H485 H 0.29982 0.03038 0.41993 0.0
C486 C 0.27909 0.05599 0.44409 0.0
C487 C 0.26379 0.07747 0.44536 0.0
C488 C 0.28355 0.06201 0.3493 0.0
C489 C 0.28064 0.05867 0.39751 0.0
C490 C 0.29556 0.05586 0.32645 0.0
C491 C 0.31545 0.0386 0.32641 0.0
C492 C 0.29143 0.05084 0.37236 0.0
C493 C 0.32226 0.02725 0.34965 0.0
C494 C 0.28753 0.04656 0.42029 0.0
C495 C 0.25641 0.08834 0.42198 0.0
N496 N 0.31037 0.03368 0.37172 0.0
N497 N 0.26507 0.07894 0.39906 0.0
H498 H 0.18863 0.02756 0.68771 0.0
H499 H 0.18321 0.13556 0.58481 0.0
H500 H 0.12569 0.07829 0.68148 0.0
H501 H 0.22454 0.06614 0.57342 0.0
H502 H 0.16516 0.11802 0.62322 0.0
H503 H 0.20588 0.04509 0.64898 0.0
C504 C 0.17853 0.0425 0.67831 0.0
C505 C 0.15566 0.05145 0.68782 0.0
C506 C 0.17807 0.1066 0.61219 0.0
C507 C 0.17532 0.07158 0.64357 0.0
C508 C 0.18839 0.11659 0.5903 0.0
C509 C 0.20538 0.10227 0.57586 0.0
C510 C 0.18515 0.08235 0.61994 0.0
C511 C 0.21141 0.07779 0.58388 0.0
C512 C 0.18829 0.05236 0.65612 0.0
C513 C 0.14332 0.07075 0.67475 0.0
N514 N 0.20148 0.0687 0.60552 0.0
N515 N 0.15337 0.08026 0.65335 0.0
H516 H 0.16286 0.0225 0.84394 0.0
H517 H 0.2579 0.92584 0.9102 0.0
H518 H 0.21383 0.97528 0.80122 0.0
H519 H 0.20762 0.97384 0.95297 0.0
H520 H 0.24557 0.94725 0.87076 0.0
H521 H 0.1828 0.0088 0.88476 0.0
C522 C 0.1785 0.00957 0.84315 0.0
C523 C 0.1865 0.99983 0.8191 0.0
C524 C 0.23741 0.95326 0.88884 0.0
C525 C 0.2092 0.98379 0.86573 0.0
C526 C 0.24446 0.94103 0.91136 0.0
C527 C 0.2336 0.94787 0.93488 0.0
C528 C 0.2193 0.97241 0.8898 0.0
C529 C 0.21634 0.96778 0.93524 0.0
C530 C 0.18983 1.00166 0.86647 0.0
C531 C 0.20689 0.98313 0.81929 0.0
N532 N 0.20958 0.97918 0.91302 0.0
N533 N 0.21733 0.97544 0.84219 0.0
H534 H 0.26916 0.95929 0.06754 0.0
H535 H 0.37078 0.95073 0.1907 0.0
H536 H 0.31916 0.89608 0.07526 0.0
H537 H 0.30746 1.00126 0.1913 0.0
H538 H 0.35423 0.93248 0.14708 0.0
H539 H 0.28567 0.97752 0.11129 0.0
C540 C 0.28377 0.94935 0.07832 0.0
C541 C 0.29277 0.92609 0.06771 0.0
C542 C 0.34387 0.94746 0.1568 0.0
C543 C 0.31161 0.94679 0.11781 0.0
C544 C 0.3533 0.9579 0.18172 0.0
C545 C 0.34048 0.97757 0.19468 0.0
C546 C 0.32162 0.95695 0.14458 0.0
C547 C 0.3179 0.98606 0.18208 0.0
C548 C 0.29303 0.95968 0.10337 0.0
C549 C 0.31161 0.914 0.08267 0.0
N550 N 0.30928 0.97581 0.15763 0.0
N551 N 0.32041 0.92451 0.10694 0.0
H552 H 0.35597 0.34338 0.0126 0.0
H553 H 0.42726 0.24765 0.10509 0.0
H554 H 0.31511 0.2912 0.06052 0.0
H555 H 0.46733 0.29506 0.05237 0.0
H556 H 0.38561 0.2612 0.0869 0.0
H557 H 0.39661 0.3239 0.02479 0.0
C558 C 0.35549 0.32768 0.02549 0.0
C559 C 0.33212 0.31904 0.03568 0.0
C560 C 0.4035 0.26846 0.07915 0.0
C561 C 0.3786 0.29677 0.04989 0.0
C562 C 0.4273 0.26069 0.08951 0.0
C563 C 0.45085 0.27036 0.08037 0.0
C564 C 0.40325 0.28616 0.05961 0.0
C565 C 0.44968 0.28719 0.06012 0.0
C566 C 0.37871 0.31656 0.03247 0.0
C567 C 0.33267 0.29858 0.05227 0.0
N568 N 0.42633 0.29471 0.05059 0.0
N569 N 0.35555 0.28831 0.05901 0.0
H570 H 0.97989 0.79978 0.21123 0.0
H571 H 0.98212 0.95411 0.20035 0.0
H572 H 0.02298 0.84065 0.15575 0.0
H573 H 0.93328 0.91206 0.25045 0.0
H574 H 1.00153 0.91364 0.18783 0.0
H575 H 0.9671 0.84148 0.22976 0.0
C576 C 0.98691 0.81755 0.20309 0.0
C577 C 1.00239 0.81667 0.18174 0.0
C578 C 0.98671 0.91328 0.20171 0.0
C579 C 0.98762 0.86458 0.20285 0.0
C580 C 0.97563 0.93641 0.20892 0.0
C581 C 0.95587 0.93646 0.22635 0.0
C582 C 0.97801 0.88995 0.21195 0.0
C583 C 0.94835 0.91292 0.23686 0.0
C584 C 0.97952 0.84138 0.21368 0.0
C585 C 0.01094 0.84037 0.17212 0.0
N586 N 0.9593 0.89059 0.22937 0.0
N587 N 1.00329 0.86334 0.18262 0.0
H588 H 0.18268 0.62857 0.5805 0.0
H589 H 0.0796 0.73656 0.57625 0.0
H590 H 0.19406 0.6986 0.54011 0.0
H591 H 0.08577 0.68506 0.63851 0.0
H592 H 0.11829 0.71917 0.55875 0.0
H593 H 0.14405 0.64572 0.59853 0.0
C594 C 0.17712 0.64758 0.57551 0.0
C595 C 0.19164 0.6622 0.55881 0.0
C596 C 0.11114 0.7117 0.57624 0.0
C597 C 0.14733 0.68168 0.57903 0.0
C598 C 0.08897 0.72148 0.58614 0.0
C599 C 0.07946 0.71228 0.60891 0.0
C600 C 0.12366 0.6923 0.58895 0.0
C601 C 0.0925 0.69279 0.62098 0.0
C602 C 0.15512 0.65735 0.58582 0.0
C603 C 0.18354 0.68673 0.55301 0.0
N604 N 0.11388 0.68337 0.61079 0.0
N605 N 0.16181 0.6956 0.56294 0.0
H606 H 0.96604 0.66365 0.65873 0.0
H607 H 0.90053 0.60543 0.77546 0.0
H608 H 0.99281 0.69811 0.73575 0.0
H609 H 0.94003 0.55518 0.72323 0.0
H610 H 0.92305 0.64372 0.7582 0.0
H611 H 0.94361 0.62718 0.67867 0.0
C612 C 0.96681 0.66373 0.67981 0.0
C613 C 0.98127 0.68375 0.69569 0.0
C614 C 0.9268 0.62423 0.75079 0.0
C615 C 0.9555 0.64271 0.71835 0.0
C616 C 0.9141 0.6025 0.76059 0.0
C617 C 0.9187 0.5772 0.7509 0.0
C618 C 0.94327 0.62044 0.73056 0.0
C619 C 0.93625 0.57436 0.73146 0.0
C620 C 0.95422 0.64293 0.69108 0.0
C621 C 0.98191 0.68289 0.72291 0.0
N622 N 0.94758 0.59575 0.72158 0.0
N623 N 0.96899 0.66273 0.73348 0.0
H624 H 0.19815 0.23225 0.49598 0.0
H625 H 0.04981 0.21979 0.44571 0.0
H626 H 0.15925 0.15694 0.4695 0.0
H627 H 0.10172 0.2763 0.41331 0.0
H628 H 0.08789 0.20116 0.46645 0.0
H629 H 0.16099 0.2533 0.47611 0.0
C630 C 0.18185 0.2202 0.48587 0.0
C631 C 0.18174 0.19287 0.48414 0.0
C632 C 0.09081 0.21784 0.45504 0.0
C633 C 0.13916 0.21666 0.46249 0.0
C634 C 0.06918 0.22865 0.44348 0.0
C635 C 0.07269 0.24964 0.42785 0.0
C636 C 0.11601 0.22857 0.45154 0.0
C637 C 0.09824 0.26011 0.42523 0.0
C638 C 0.16078 0.23219 0.47462 0.0
C639 C 0.16015 0.17808 0.47098 0.0
N640 N 0.11902 0.24956 0.43711 0.0
N641 N 0.13949 0.19016 0.46096 0.0
H642 H 0.63263 0.43695 0.20644 0.0
H643 H 0.53121 0.31491 0.21271 0.0
H644 H 0.56301 0.44573 0.24716 0.0
H645 H 0.56741 0.33187 0.14223 0.0
H646 H 0.54891 0.35816 0.23279 0.0
H647 H 0.61547 0.39276 0.19022 0.0
C648 C 0.61386 0.42947 0.21222 0.0
C649 C 0.59911 0.44505 0.22803 0.0
C650 C 0.55288 0.35224 0.21295 0.0
C651 C 0.57966 0.39452 0.20979 0.0
C652 C 0.54294 0.32767 0.20156 0.0
C653 C 0.5478 0.31998 0.17577 0.0
C654 C 0.56836 0.36863 0.19863 0.0
C655 C 0.56303 0.33718 0.16208 0.0
C656 C 0.60408 0.40435 0.20286 0.0
C657 C 0.57487 0.43438 0.23483 0.0
N658 N 0.57299 0.3606 0.17376 0.0
N659 N 0.56587 0.40963 0.22572 0.0
H660 H 0.33323 0.80866 0.9936 0.0
H661 H 0.44211 0.8268 0.89117 0.0
H662 H 0.33168 0.86784 0.93847 0.0
H663 H 0.44324 0.77125 0.94997 0.0
H664 H 0.4018 0.84229 0.90739 0.0
H665 H 0.37306 0.7943 0.97649 0.0
C666 C 0.34117 0.81857 0.97775 0.0
C667 C 0.32903 0.83953 0.96749 0.0
C668 C 0.41097 0.82679 0.91677 0.0
C669 C 0.3751 0.82321 0.94781 0.0
C670 C 0.43404 0.81801 0.90759 0.0
C671 C 0.44613 0.79768 0.91921 0.0
C672 C 0.39991 0.8151 0.93766 0.0
C673 C 0.43468 0.78695 0.94035 0.0
C674 C 0.36405 0.81039 0.96802 0.0
C675 C 0.34035 0.85157 0.94694 0.0
N676 N 0.41227 0.79571 0.94878 0.0
N677 N 0.36279 0.84328 0.93781 0.0
H678 H 0.89502 0.43769 0.8226 0.0
H679 H 0.99863 0.32958 0.80842 0.0
H680 H 0.95162 0.43538 0.7648 0.0
H681 H 0.94337 0.3295 0.86756 0.0
H682 H 0.9807 0.36822 0.79222 0.0
H683 H 0.91191 0.39843 0.83982 0.0
C684 C 0.91106 0.42905 0.81363 0.0
C685 C 0.92191 0.43987 0.79221 0.0
C686 C 0.97238 0.3598 0.80871 0.0
C687 C 0.94116 0.39494 0.81165 0.0
C688 C 0.9826 0.33762 0.81796 0.0
C689 C 0.97252 0.32624 0.83943 0.0
C690 C 0.95187 0.37091 0.82096 0.0
C691 C 0.95171 0.33761 0.85093 0.0
C692 C 0.92063 0.4066 0.82341 0.0
C693 C 0.9426 0.42778 0.78131 0.0
N694 N 0.9421 0.35938 0.8416 0.0
N695 N 0.95147 0.40603 0.7911 0.0
H696 H 0.32768 0.13654 0.56052 0.0
H697 H 0.44425 0.24251 0.55327 0.0
H698 H 0.31383 0.20618 0.5215 0.0
H699 H 0.43165 0.20504 0.62405 0.0
H700 H 0.40027 0.22504 0.53534 0.0
H701 H 0.37052 0.15661 0.57784 0.0
C702 C 0.33376 0.15599 0.55544 0.0
C703 C 0.31723 0.16978 0.5396 0.0
C704 C 0.40722 0.22087 0.55484 0.0
C705 C 0.36622 0.19259 0.55909 0.0
C706 C 0.43222 0.23068 0.56501 0.0
C707 C 0.44151 0.22518 0.59016 0.0
C708 C 0.39191 0.2049 0.56968 0.0
C709 C 0.42518 0.20984 0.60464 0.0
C710 C 0.35808 0.16744 0.56545 0.0
C711 C 0.326 0.195 0.53376 0.0
N712 N 0.40129 0.19993 0.59405 0.0
N713 N 0.35011 0.20559 0.54334 0.0
H714 H 0.48857 0.66155 0.35428 0.0
H715 H 0.60794 0.60417 0.29133 0.0
H716 H 0.54392 0.71189 0.31853 0.0
H717 H 0.53136 0.5652 0.27097 0.0
H718 H 0.58748 0.6417 0.31098 0.0
H719 H 0.50606 0.62339 0.33204 0.0
C720 C 0.50413 0.66455 0.34149 0.0
C721 C 0.5147 0.68986 0.33802 0.0
C722 C 0.57525 0.62483 0.30228 0.0
C723 C 0.53531 0.64658 0.31364 0.0
C724 C 0.58686 0.6034 0.29132 0.0
C725 C 0.57127 0.58164 0.27956 0.0
C726 C 0.54795 0.62413 0.30213 0.0
C727 C 0.54401 0.58169 0.27981 0.0
C728 C 0.51408 0.64286 0.32892 0.0
C729 C 0.53502 0.69272 0.32145 0.0
N730 N 0.53316 0.60255 0.29118 0.0
N731 N 0.54501 0.67131 0.31023 0.0
H732 H 0.07828 0.81608 0.08294 0.0
H733 H 0.2048 0.80564 0.00412 0.0
H734 H 0.09587 0.74394 0.04234 0.0
H735 H 0.16946 0.87822 0.01899 0.0
H736 H 0.16662 0.78227 0.02005 0.0
H737 H 0.11351 0.83913 0.0621 0.0
C738 C 0.08948 0.80512 0.06958 0.0
C739 C 0.08413 0.77806 0.06437 0.0
C740 C 0.16717 0.80329 0.01955 0.0
C741 C 0.12461 0.80422 0.04071 0.0
C742 C 0.18895 0.81663 0.01046 0.0
C743 C 0.19042 0.84395 0.01024 0.0
C744 C 0.14697 0.81741 0.02891 0.0
C745 C 0.16924 0.85717 0.01874 0.0
C746 C 0.10951 0.81828 0.05763 0.0
C747 C 0.09927 0.76483 0.04686 0.0
N748 N 0.14858 0.84382 0.02799 0.0
N749 N 0.11897 0.77799 0.03584 0.0
H750 H 0.76523 0.95666 0.56124 0.0
H751 H 0.68214 0.95119 0.68527 0.0
H752 H 0.74582 0.88509 0.59678 0.0
H753 H 0.7264 0.02149 0.66813 0.0
H754 H 0.70273 0.92684 0.65076 0.0
H755 H 0.74909 0.98126 0.59853 0.0
C756 C 0.75785 0.94614 0.57697 0.0
C757 C 0.75685 0.91875 0.57581 0.0
C758 C 0.70803 0.94757 0.65467 0.0
C759 C 0.73794 0.94672 0.61821 0.0
C760 C 0.69621 0.96149 0.67428 0.0
C761 C 0.70256 0.9884 0.67957 0.0
C762 C 0.72601 0.96074 0.63996 0.0
C763 C 0.72098 1.00074 0.66475 0.0
C764 C 0.74864 0.96018 0.59822 0.0
C765 C 0.74704 0.90616 0.59679 0.0
N766 N 0.7319 0.98687 0.64547 0.0
N767 N 0.7377 0.92021 0.61694 0.0
H768 H 0.87556 0.93773 0.3246 0.0
H769 H 0.77385 0.95367 0.43439 0.0
H770 H 0.81585 0.99234 0.32439 0.0
H771 H 0.82892 0.89439 0.43446 0.0
H772 H 0.79056 0.96862 0.39467 0.0
H773 H 0.85976 0.92149 0.36478 0.0
C774 C 0.85903 0.94615 0.33285 0.0
C775 C 0.84703 0.96645 0.32107 0.0
C776 C 0.79911 0.95237 0.40332 0.0
C777 C 0.82908 0.94819 0.36712 0.0
C778 C 0.78961 0.94386 0.42614 0.0
C779 C 0.79995 0.92269 0.43784 0.0
C780 C 0.81919 0.9397 0.39188 0.0
C781 C 0.82038 0.91081 0.42614 0.0
C782 C 0.85009 0.93695 0.35583 0.0
C783 C 0.82576 0.9767 0.33271 0.0
N784 N 0.8293 0.91943 0.40375 0.0
N785 N 0.81758 0.96754 0.35503 0.0
H786 H 0.82088 0.08225 0.07179 0.0
H787 H 0.81429 1.00104 0.19712 0.0
H788 H 0.75003 0.03992 0.09045 0.0
H789 H 0.88632 0.02091 0.1625 0.0
H790 H 0.79003 0.01648 0.15931 0.0
H791 H 0.84511 0.0617 0.10637 0.0
C792 C 0.81045 0.06857 0.08309 0.0
C793 C 0.7834 0.06282 0.07825 0.0
C794 C 0.81114 0.01719 0.15992 0.0
C795 C 0.81093 0.03942 0.11797 0.0
C796 C 0.825 0.00837 0.18148 0.0
C797 C 0.85241 0.00974 0.18308 0.0
C798 C 0.8248 0.02782 0.14002 0.0
C799 C 0.86522 0.01946 0.16218 0.0
C800 C 0.82429 0.05678 0.10276 0.0
C801 C 0.77089 0.04489 0.09347 0.0
N802 N 0.85134 0.02838 0.1417 0.0
N803 N 0.7847 0.03401 0.11279 0.0
H804 H 0.71924 0.05586 0.80353 0.0
H805 H 0.70588 0.04961 0.95669 0.0
H806 H 0.65164 0.01881 0.83485 0.0
H807 H 0.75403 0.10919 0.92401 0.0
H808 H 0.69162 0.03093 0.91229 0.0
H809 H 0.73801 0.06834 0.84808 0.0
C810 C 0.70845 0.05014 0.81976 0.0
C811 C 0.68372 0.03649 0.81548 0.0
C812 C 0.70546 0.04797 0.91494 0.0
C813 C 0.70517 0.05056 0.86639 0.0
C814 C 0.71368 0.05855 0.94021 0.0
C815 C 0.73097 0.0811 0.94399 0.0
C816 C 0.71494 0.05982 0.89343 0.0
C817 C 0.74045 0.09195 0.92196 0.0
C818 C 0.71914 0.05734 0.84515 0.0
C819 C 0.67064 0.02957 0.83726 0.0
N820 N 0.73229 0.08122 0.89762 0.0
N821 N 0.68151 0.03671 0.86181 0.0
H822 H 0.60497 0.74544 0.87782 0.0
H823 H 0.6796 0.72875 0.01612 0.0
H824 H 0.57174 0.76507 0.95064 0.0
H825 H 0.6924 0.68221 0.94574 0.0
H826 H 0.64504 0.74935 0.99186 0.0
H827 H 0.64242 0.72984 0.90211 0.0
C828 C 0.60567 0.74682 0.89894 0.0
C829 C 0.58503 0.75649 0.91219 0.0
C830 C 0.65551 0.73471 0.98175 0.0
C831 C 0.628 0.73858 0.94008 0.0
C832 C 0.6753 0.72301 0.99551 0.0
C833 C 0.68885 0.70367 0.98292 0.0
C834 C 0.64952 0.72733 0.95511 0.0
C835 C 0.68237 0.69694 0.95623 0.0
C836 C 0.62701 0.73773 0.91276 0.0
C837 C 0.58711 0.75768 0.9396 0.0
N838 N 0.66321 0.70881 0.94319 0.0
N839 N 0.60821 0.74879 0.95266 0.0
H840 H 0.02837 0.06422 0.7746 0.0
H841 H 0.04151 0.21135 0.82146 0.0
H842 H 0.10494 0.10145 0.79878 0.0
H843 H 0.99256 0.16139 0.86465 0.0
H844 H 0.05888 0.17252 0.80084 0.0
H845 H 0.00879 0.10106 0.797 0.0
C846 C 0.041 0.08007 0.78478 0.0
C847 C 0.06826 0.07988 0.78505 0.0
C848 C 0.04414 0.17018 0.81465 0.0
C849 C 0.04614 0.12199 0.80959 0.0
C850 C 0.03403 0.19219 0.82619 0.0
C851 C 0.01552 0.18949 0.8447 0.0
C852 C 0.03511 0.14534 0.82109 0.0
C853 C 0.0068 0.16422 0.85045 0.0
C854 C 0.02985 0.10091 0.79749 0.0
C855 C 0.08385 0.10083 0.79838 0.0
N856 N 0.01653 0.14297 0.83848 0.0
N857 N 0.07255 0.12136 0.80975 0.0
H858 H 0.93683 0.32727 0.4026 0.0
H859 H 0.82082 0.30958 0.49728 0.0
H860 H 0.92949 0.26656 0.45571 0.0
H861 H 0.82581 0.37146 0.44526 0.0
H862 H 0.86082 0.29395 0.48177 0.0
H863 H 0.89694 0.34457 0.41794 0.0
C864 C 0.92699 0.31771 0.41761 0.0
C865 C 0.93655 0.2954 0.42785 0.0
C866 C 0.85323 0.31092 0.47364 0.0
C867 C 0.89083 0.31493 0.4453 0.0
C868 C 0.83026 0.31985 0.48247 0.0
C869 C 0.81986 0.34189 0.47256 0.0
C870 C 0.86611 0.32407 0.45471 0.0
C871 C 0.83308 0.35435 0.4534 0.0
C872 C 0.90416 0.32753 0.42627 0.0
C873 C 0.9229 0.28376 0.44718 0.0
N874 N 0.85556 0.3453 0.44512 0.0
N875 N 0.90079 0.2936 0.45518 0.0
H876 H 0.55601 0.96581 0.78171 0.0
H877 H 0.56664 0.81164 0.78195 0.0
H878 H 0.61039 0.92391 0.73809 0.0
H879 H 0.51701 0.85464 0.83049 0.0
H880 H 0.57871 0.85157 0.76143 0.0
H881 H 0.53731 0.92444 0.79513 0.0
C882 C 0.56383 0.94788 0.77466 0.0
C883 C 0.58498 0.94838 0.75889 0.0
C884 C 0.56503 0.85226 0.77642 0.0
C885 C 0.56372 0.90085 0.77445 0.0
C886 C 0.55808 0.82944 0.78816 0.0
C887 C 0.54093 0.82981 0.80815 0.0
C888 C 0.55479 0.87573 0.78471 0.0
C889 C 0.5304 0.85345 0.81526 0.0
C890 C 0.55316 0.92424 0.78243 0.0
C891 C 0.59419 0.92448 0.75033 0.0
N892 N 0.53764 0.87549 0.80368 0.0
N893 N 0.58365 0.90171 0.7584 0.0
H894 H 0.00472 0.19544 0.30915 0.0
H895 H 0.89839 0.07437 0.31161 0.0
H896 H 0.94417 0.19205 0.36287 0.0
H897 H 0.96513 0.07187 0.26556 0.0
H898 H 0.91383 0.11855 0.32877 0.0
H899 H 0.98884 0.15156 0.29039 0.0
C900 C 0.98793 0.18562 0.31681 0.0
C901 C 0.97582 0.19742 0.33769 0.0
C902 C 0.92518 0.10834 0.31498 0.0
C903 C 0.95774 0.14722 0.31649 0.0
C904 C 0.9164 0.08305 0.3052 0.0
C905 C 0.93049 0.06934 0.28711 0.0
C906 C 0.94818 0.1202 0.30656 0.0
C907 C 0.95369 0.08166 0.27955 0.0
C908 C 0.979 0.16051 0.30621 0.0
C909 C 0.95422 0.18371 0.3469 0.0
N910 N 0.96177 0.10646 0.28923 0.0
N911 N 0.94594 0.15936 0.33628 0.0
H912 H 0.64499 0.10916 0.7198 0.0
H913 H 0.54017 0.16052 0.62194 0.0
H914 H 0.57535 0.06006 0.69285 0.0
H915 H 0.57251 0.20998 0.68952 0.0
H916 H 0.5594 0.12316 0.64072 0.0
H917 H 0.62501 0.14652 0.70189 0.0
C918 C 0.62555 0.10624 0.70998 0.0
C919 C 0.61175 0.08154 0.70775 0.0
C920 C 0.56226 0.14224 0.65133 0.0
C921 C 0.58918 0.12391 0.68692 0.0
C922 C 0.55152 0.16354 0.64061 0.0
C923 C 0.55485 0.18833 0.65423 0.0
C924 C 0.57705 0.14595 0.67543 0.0
C925 C 0.56948 0.19115 0.67846 0.0
C926 C 0.61418 0.12754 0.69995 0.0
C927 C 0.58656 0.07883 0.69503 0.0
N928 N 0.58035 0.17023 0.6882 0.0
N929 N 0.57615 0.09973 0.68475 0.0
H930 H 0.17496 0.37433 0.99677 0.0
H931 H 0.09222 0.28005 0.89248 0.0
H932 H 0.20922 0.30658 0.96396 0.0
H933 H 0.05865 0.3011 0.96467 0.0
H934 H 0.13539 0.29687 0.91258 0.0
H935 H 0.13159 0.35491 0.97944 0.0
C936 C 0.17332 0.35543 0.9858 0.0
C937 C 0.19557 0.34199 0.98164 0.0
C938 C 0.11853 0.29772 0.92396 0.0
C939 C 0.14646 0.32014 0.96161 0.0
C940 C 0.09397 0.28836 0.91253 0.0
C941 C 0.07197 0.28933 0.92701 0.0
C942 C 0.1209 0.30886 0.94971 0.0
C943 C 0.07523 0.30002 0.95296 0.0
C944 C 0.14866 0.34436 0.97617 0.0
C945 C 0.19246 0.31747 0.96756 0.0
N946 N 0.0993 0.3098 0.96346 0.0
N947 N 0.16831 0.30745 0.95764 0.0
H948 H 0.41538 0.75688 0.42652 0.0
H949 H 0.34622 0.66117 0.52091 0.0
H950 H 0.45548 0.70037 0.4688 0.0
H951 H 0.30657 0.7193 0.48059 0.0
H952 H 0.38743 0.67817 0.50539 0.0
H953 H 0.37626 0.7461 0.44911 0.0
C954 C 0.41603 0.74236 0.44068 0.0
C955 C 0.43869 0.72937 0.44561 0.0
C956 C 0.36976 0.68739 0.50016 0.0
C957 C 0.39396 0.71684 0.47149 0.0
C958 C 0.34622 0.67773 0.50911 0.0
C959 C 0.32286 0.68868 0.50188 0.0
C960 C 0.36992 0.70805 0.48375 0.0
C961 C 0.32407 0.71013 0.48653 0.0
C962 C 0.39368 0.7362 0.45359 0.0
C963 C 0.43841 0.71077 0.46425 0.0
N964 N 0.34713 0.71894 0.47778 0.0
N965 N 0.41637 0.70495 0.47635 0.0
H966 H 0.83416 0.5116 0.85266 0.0
H967 H 0.74451 0.61258 0.92125 0.0
H968 H 0.79083 0.56641 0.81113 0.0
H969 H 0.78228 0.55327 0.96155 0.0
H970 H 0.75885 0.59398 0.88012 0.0
H971 H 0.81322 0.52471 0.89222 0.0
C972 C 0.8201 0.52623 0.8518 0.0
C973 C 0.81438 0.53803 0.82857 0.0
C974 C 0.76378 0.58487 0.89793 0.0
C975 C 0.79044 0.55325 0.87381 0.0
C976 C 0.75553 0.59546 0.92142 0.0
C977 C 0.76233 0.58459 0.94493 0.0
C978 C 0.7791 0.56335 0.89794 0.0
C979 C 0.77666 0.56239 0.94393 0.0
C980 C 0.80814 0.53371 0.87439 0.0
C981 C 0.79595 0.55685 0.82861 0.0
N982 N 0.78476 0.55267 0.9209 0.0
N983 N 0.78481 0.564 0.85089 0.0
H984 H 0.62266 0.54255 0.15788 0.0
H985 H 0.71999 0.64771 0.10326 0.0
H986 H 0.68872 0.5803 0.20612 0.0
H987 H 0.69014 0.57791 0.05576 0.0
H988 H 0.70103 0.62965 0.14103 0.0
H989 H 0.63982 0.56187 0.1198 0.0
C990 C 0.64063 0.5551 0.16049 0.0
C991 C 0.65434 0.55985 0.18515 0.0
C992 C 0.69857 0.61841 0.12228 0.0
C993 C 0.6737 0.58217 0.14191 0.0
C994 C 0.7092 0.62872 0.10072 0.0
C995 C 0.70663 0.61424 0.07637 0.0
C996 C 0.68472 0.59377 0.11931 0.0
C997 C 0.69264 0.58963 0.07422 0.0
C998 C 0.65043 0.56594 0.13878 0.0
C999 C 0.67763 0.57609 0.18742 0.0
N1000 N 0.68201 0.58022 0.09542 0.0
N1001 N 0.6865 0.58687 0.16608 0.0
H1002 H 0.75216 0.43008 0.41094 0.0
H1003 H 0.65689 0.52432 0.34154 0.0
H1004 H 0.69942 0.47647 0.45214 0.0
H1005 H 0.71674 0.48607 0.30249 0.0
H1006 H 0.67389 0.509 0.3828 0.0
H1007 H 0.74101 0.45196 0.37146 0.0
C1008 C 0.73839 0.44499 0.41174 0.0
C1009 C 0.7266 0.45132 0.43486 0.0
C1010 C 0.68349 0.5042 0.36525 0.0
C1011 C 0.71361 0.47636 0.38971 0.0
C1012 C 0.67382 0.51301 0.34168 0.0
C1013 C 0.68529 0.50636 0.31846 0.0
C1014 C 0.70465 0.4884 0.36559 0.0
C1015 C 0.7072 0.49162 0.31987 0.0
C1016 C 0.73204 0.4575 0.3892 0.0
C1017 C 0.70893 0.47086 0.43476 0.0
N1018 N 0.71598 0.48292 0.34295 0.0
N1019 N 0.70283 0.48251 0.41252 0.0
H1020 H 0.86844 0.49021 0.67355 0.0
H1021 H 0.76701 0.39368 0.59044 0.0
H1022 H 0.79707 0.46654 0.70734 0.0
H1023 H 0.79666 0.46307 0.55672 0.0
H1024 H 0.78367 0.41336 0.63391 0.0
H1025 H 0.84832 0.4737 0.6303 0.0
C1026 C 0.84854 0.48143 0.6718 0.0
C1027 C 0.83431 0.47959 0.69388 0.0
C1028 C 0.78637 0.42422 0.61694 0.0
C1029 C 0.81161 0.46038 0.64488 0.0
C1030 C 0.77713 0.41301 0.59223 0.0
C1031 C 0.78063 0.42682 0.57009 0.0
C1032 C 0.79989 0.44899 0.61931 0.0
C1033 C 0.79361 0.45187 0.57338 0.0
C1034 C 0.83711 0.47224 0.64721 0.0
C1035 C 0.80856 0.4683 0.69068 0.0
N1036 N 0.8032 0.46205 0.59758 0.0
N1037 N 0.79808 0.45866 0.66656 0.0
H1038 H 0.45748 0.06918 0.25995 0.0
H1039 H 0.44924 0.19316 0.17693 0.0
H1040 H 0.38507 0.10333 0.24082 0.0
H1041 H 0.52065 0.17535 0.21873 0.0
H1042 H 0.42543 0.15885 0.19833 0.0
H1043 H 0.48131 0.10676 0.24355 0.0
C1044 C 0.4466 0.08467 0.25258 0.0
C1045 C 0.41921 0.08301 0.25172 0.0
C1046 C 0.44628 0.1626 0.20294 0.0
C1047 C 0.44632 0.12581 0.23252 0.0
C1048 C 0.45989 0.18211 0.19066 0.0
C1049 C 0.48696 0.18711 0.19602 0.0
C1050 C 0.45992 0.1477 0.22038 0.0
C1051 C 0.49976 0.1722 0.21404 0.0
C1052 C 0.46021 0.10611 0.24321 0.0
C1053 C 0.40617 0.10372 0.24191 0.0
N1054 N 0.48618 0.15303 0.22539 0.0
N1055 N 0.4198 0.12408 0.23244 0.0
H1056 H 0.01329 0.83983 0.65223 0.0
H1057 H 0.11357 0.92364 0.75372 0.0
H1058 H 0.05475 0.80556 0.71537 0.0
H1059 H 0.05002 0.95759 0.71255 0.0
H1060 H 0.09316 0.88013 0.73927 0.0
H1061 H 0.02719 0.88325 0.67318 0.0
C1062 C 0.02516 0.84145 0.6706 0.0
C1063 C 0.03306 0.81909 0.682 0.0
C1064 C 0.08353 0.89711 0.73367 0.0
C1065 C 0.04921 0.86863 0.70587 0.0
C1066 C 0.0952 0.92192 0.74181 0.0
C1067 C 0.08355 0.94423 0.73414 0.0
C1068 C 0.06031 0.89458 0.71734 0.0
C1069 C 0.05967 0.94089 0.71887 0.0
C1070 C 0.03297 0.86621 0.68259 0.0
C1071 C 0.04826 0.8223 0.70592 0.0
N1072 N 0.04901 0.9165 0.71063 0.0
N1073 N 0.05617 0.84666 0.71689 0.0
H1074 H 0.49983 0.83252 0.30812 0.0
H1075 H 0.39669 0.94091 0.32401 0.0
H1076 H 0.44165 0.82923 0.36428 0.0
H1077 H 0.45748 0.9428 0.27057 0.0
H1078 H 0.41234 0.9004 0.33955 0.0
H1079 H 0.48345 0.87269 0.29394 0.0
C1080 C 0.48345 0.84015 0.31739 0.0
C1081 C 0.47212 0.82742 0.33746 0.0
C1082 C 0.42228 0.90979 0.32451 0.0
C1083 C 0.45328 0.87389 0.32137 0.0
C1084 C 0.41345 0.93298 0.31572 0.0
C1085 C 0.42577 0.9453 0.29593 0.0
C1086 C 0.44355 0.89887 0.31338 0.0
C1087 C 0.44731 0.93404 0.28582 0.0
C1088 C 0.47414 0.86323 0.30932 0.0
C1089 C 0.45093 0.83835 0.3487 0.0
N1090 N 0.4554 0.91152 0.29458 0.0
N1091 N 0.44223 0.86101 0.34056 0.0
H1092 H 0.8306 0.63891 0.05794 0.0
H1093 H 0.95372 0.73792 0.04946 0.0
H1094 H 0.82139 0.70984 0.01964 0.0
H1095 H 0.93824 0.70192 0.1204 0.0
H1096 H 0.90946 0.72167 0.03089 0.0
H1097 H 0.8752 0.6554 0.07352 0.0
C1098 C 0.83805 0.65786 0.05262 0.0
C1099 C 0.82229 0.67313 0.03761 0.0
C1100 C 0.91593 0.71744 0.0505 0.0
C1101 C 0.87328 0.69178 0.055 0.0
C1102 C 0.94107 0.72654 0.06102 0.0
C1103 C 0.94948 0.7213 0.08649 0.0
C1104 C 0.89967 0.7024 0.06535 0.0
C1105 C 0.9324 0.70655 0.10075 0.0
C1106 C 0.8634 0.66725 0.06159 0.0
C1107 C 0.8329 0.6976 0.03136 0.0
N1108 N 0.9084 0.69738 0.08989 0.0
N1109 N 0.85791 0.70617 0.03997 0.0
H1110 H 0.57153 0.31887 0.58606 0.0
H1111 H 0.69104 0.31042 0.49735 0.0
H1112 H 0.5836 0.2492 0.53803 0.0
H1113 H 0.66116 0.38362 0.52217 0.0
H1114 H 0.65291 0.28719 0.51333 0.0
H1115 H 0.60577 0.34274 0.5646 0.0
C1116 C 0.58131 0.30863 0.57095 0.0
C1117 C 0.57474 0.28201 0.56386 0.0
C1118 C 0.65458 0.30834 0.51499 0.0
C1119 C 0.61403 0.30909 0.53941 0.0
C1120 C 0.67633 0.32161 0.50585 0.0
C1121 C 0.67938 0.34902 0.50848 0.0
C1122 C 0.63598 0.32256 0.52724 0.0
C1123 C 0.65965 0.36249 0.51969 0.0
C1124 C 0.60076 0.32227 0.55864 0.0
C1125 C 0.58801 0.26972 0.54409 0.0
N1126 N 0.63899 0.34913 0.52896 0.0
N1127 N 0.60718 0.28329 0.53273 0.0
H1128 H 0.24446 0.38097 0.10305 0.0
H1129 H 0.22811 0.51716 0.18266 0.0
H1130 H 0.26712 0.45571 0.07506 0.0
H1131 H 0.18297 0.44559 0.19451 0.0
H1132 H 0.24951 0.49386 0.14819 0.0
H1133 H 0.2292 0.40352 0.14178 0.0
C1134 C 0.24659 0.40212 0.10519 0.0
C1135 C 0.25695 0.41647 0.08563 0.0
C1136 C 0.23503 0.48324 0.15844 0.0
C1137 C 0.23943 0.44234 0.12998 0.0
C1138 C 0.22285 0.49648 0.17819 0.0
C1139 C 0.2036 0.48332 0.19141 0.0
C1140 C 0.22816 0.45656 0.15202 0.0
C1141 C 0.19759 0.45653 0.18473 0.0
C1142 C 0.23771 0.41495 0.12725 0.0
C1143 C 0.25914 0.44385 0.08953 0.0
N1144 N 0.20982 0.44402 0.16548 0.0
N1145 N 0.25037 0.45589 0.11123 0.0
H1146 H 0.31093 0.50084 0.83416 0.0
H1147 H 0.32162 0.39498 0.94041 0.0
H1148 H 0.36409 0.43993 0.8297 0.0
H1149 H 0.27067 0.45788 0.94336 0.0
H1150 H 0.33755 0.41037 0.89997 0.0
H1151 H 0.2955 0.48415 0.87373 0.0
C1152 C 0.31928 0.48381 0.84141 0.0
C1153 C 0.33889 0.47181 0.82854 0.0
C1154 C 0.32294 0.42081 0.90955 0.0
C1155 C 0.32135 0.45259 0.8743 0.0
C1156 C 0.31391 0.4121 0.93268 0.0
C1157 C 0.29478 0.42516 0.94535 0.0
C1158 C 0.31273 0.4427 0.89901 0.0
C1159 C 0.28542 0.44716 0.93435 0.0
C1160 C 0.31049 0.47431 0.86413 0.0
C1161 C 0.3489 0.44977 0.83895 0.0
N1162 N 0.29443 0.45515 0.91188 0.0
N1163 N 0.34009 0.44091 0.86129 0.0
H1164 H 0.27349 0.5336 0.5665 0.0
H1165 H 0.32273 0.54597 0.71511 0.0
H1166 H 0.29846 0.60903 0.60593 0.0
H1167 H 0.35606 0.49015 0.66323 0.0
H1168 H 0.30194 0.56455 0.67703 0.0
H1169 H 0.29344 0.51266 0.60369 0.0
C1170 C 0.28328 0.5457 0.58294 0.0
C1171 C 0.28457 0.57303 0.58318 0.0
C1172 C 0.31357 0.54803 0.67412 0.0
C1173 C 0.30631 0.54936 0.62578 0.0
C1174 C 0.32517 0.53725 0.69574 0.0
C1175 C 0.34106 0.51647 0.69224 0.0
C1176 C 0.31732 0.53749 0.64892 0.0
C1177 C 0.34393 0.50618 0.66669 0.0
C1178 C 0.29457 0.53378 0.60402 0.0
C1179 C 0.29734 0.58789 0.60493 0.0
N1180 N 0.33202 0.5167 0.64592 0.0
N1181 N 0.3074 0.57586 0.62559 0.0
H1182 H 0.14283 0.56167 0.33398 0.0
H1183 H 0.24916 0.55975 0.45096 0.0
H1184 H 0.21447 0.5263 0.31986 0.0
H1185 H 0.20982 0.62904 0.43635 0.0
H1186 H 0.23225 0.54047 0.40721 0.0
H1187 H 0.16231 0.57964 0.3768 0.0
C1188 C 0.16261 0.55753 0.33999 0.0
C1189 C 0.17713 0.54256 0.32339 0.0
C1190 C 0.22755 0.55994 0.4137 0.0
C1191 C 0.19925 0.56273 0.37238 0.0
C1192 C 0.23703 0.57086 0.43856 0.0
C1193 C 0.23087 0.596 0.44719 0.0
C1194 C 0.21124 0.57402 0.39793 0.0
C1195 C 0.21516 0.60966 0.4304 0.0
C1196 C 0.1737 0.56789 0.36431 0.0
C1197 C 0.20274 0.53791 0.33209 0.0
N1198 N 0.2056 0.59836 0.40671 0.0
N1199 N 0.213 0.54781 0.35621 0.0
loop_
_geom_bond_atom_site_label_1
_geom_bond_atom_site_label_2
_geom_bond_distance
_geom_bond_site_symmetry_2
_ccdc_geom_bond_type
O0 Cd1 2.223 . S
O0 C8 1.315 . S
Cd1 O0 2.223 . S
Cd1 O4 2.297 . S
Cd1 O5 2.439 . S
Cd1 O11 2.240 1_455 S
Cd2 O3 2.240 1_655 S
Cd2 O10 2.223 . S
Cd2 O12 2.297 . S
Cd2 O13 2.439 . S
O3 Cd2 2.240 1_455 S
O3 C8 1.279 . S
O4 Cd1 2.297 . S
O4 C6 1.247 . S
O5 Cd1 2.439 . S
O5 C6 1.208 . S
C6 O4 1.247 . S
C6 O5 1.208 . S
C7 O12 1.247 . S
C7 O13 1.208 . S
C8 O0 1.315 . S
C8 O3 1.279 . S
C9 O10 1.315 . S
C9 O11 1.279 . S
O10 Cd2 2.223 . S
O10 C9 1.315 . S
O11 Cd1 2.240 1_655 S
O11 C9 1.279 . S
O12 Cd2 2.297 . S
O12 C7 1.247 . S
O13 Cd2 2.439 . S
O13 C7 1.208 . S
O14 Cd15 2.223 . S
O14 C22 1.315 . S
Cd15 O14 2.223 . S
Cd15 O18 2.297 . S
Cd15 O19 2.439 1_455 S
Cd15 O25 2.240 . S
Cd16 O17 2.240 . S
Cd16 O24 2.223 . S
Cd16 O26 2.297 1_455 S
Cd16 O27 2.439 1_455 S
O17 Cd16 2.240 . S
O17 C22 1.279 . S
O18 Cd15 2.297 . S
O18 C20 1.247 1_455 S
O19 Cd15 2.439 1_655 S
O19 C20 1.208 . S
C20 O18 1.247 1_655 S
C20 O19 1.208 . S
C21 O26 1.247 . S
C21 O27 1.208 . S
C22 O14 1.315 . S
C22 O17 1.279 . S
C23 O24 1.315 . S
C23 O25 1.279 . S
O24 Cd16 2.223 . S
O24 C23 1.315 . S
O25 Cd15 2.240 . S
O25 C23 1.279 . S
O26 Cd16 2.297 1_655 S
O26 C21 1.247 . S
O27 Cd16 2.439 1_655 S
O27 C21 1.208 . S
O28 Cd29 2.223 . S
O28 C36 1.315 . S
Cd29 O28 2.223 . S
Cd29 O32 2.297 . S
Cd29 O33 2.439 . S
Cd29 O39 2.240 . S
Cd30 O31 2.240 . S
Cd30 O38 2.223 . S
Cd30 O40 2.297 . S
Cd30 O41 2.439 . S
O31 Cd30 2.240 . S
O31 C36 1.279 . S
O32 Cd29 2.297 . S
O32 C34 1.247 . S
O33 Cd29 2.439 . S
O33 C34 1.208 . S
C34 O32 1.247 . S
C34 O33 1.208 . S
C35 O40 1.247 . S
C35 O41 1.208 . S
C36 O28 1.315 . S
C36 O31 1.279 . S
C37 O38 1.315 . S
C37 O39 1.279 . S
O38 Cd30 2.223 . S
O38 C37 1.315 . S
O39 Cd29 2.240 . S
O39 C37 1.279 . S
O40 Cd30 2.297 . S
O40 C35 1.247 . S
O41 Cd30 2.439 . S
O41 C35 1.208 . S
O42 Cd43 2.223 . S
O42 C50 1.315 . S
Cd43 O42 2.223 . S
Cd43 O46 2.297 . S
Cd43 O47 2.439 . S
Cd43 O53 2.240 . S
Cd44 O45 2.240 . S
Cd44 O52 2.223 . S
Cd44 O54 2.297 . S
Cd44 O55 2.439 . S
O45 Cd44 2.240 . S
O45 C50 1.279 . S
O46 Cd43 2.297 . S
O46 C48 1.247 . S
O47 Cd43 2.439 . S
O47 C48 1.208 . S
C48 O46 1.247 . S
C48 O47 1.208 . S
C49 O54 1.247 . S
C49 O55 1.208 . S
C50 O42 1.315 . S
C50 O45 1.279 . S
C51 O52 1.315 . S
C51 O53 1.279 . S
O52 Cd44 2.223 . S
O52 C51 1.315 . S
O53 Cd43 2.240 . S
O53 C51 1.279 . S
O54 Cd44 2.297 . S
O54 C49 1.247 . S
O55 Cd44 2.439 . S
O55 C49 1.208 . S
O56 Cd57 2.223 . S
O56 C64 1.315 . S
Cd57 O56 2.223 . S
Cd57 O60 2.297 . S
Cd57 O61 2.439 . S
Cd57 O67 2.240 1_455 S
Cd58 O59 2.240 1_655 S
Cd58 O66 2.223 . S
Cd58 O68 2.297 . S
Cd58 O69 2.439 . S
O59 Cd58 2.240 1_455 S
O59 C64 1.279 . S
O60 Cd57 2.297 . S
O60 C62 1.247 . S
O61 Cd57 2.439 . S
O61 C62 1.208 . S
C62 O60 1.247 . S
C62 O61 1.208 . S
C63 O68 1.247 . S
C63 O69 1.208 . S
C64 O56 1.315 . S
C64 O59 1.279 . S
C65 O66 1.315 . S
C65 O67 1.279 . S
O66 Cd58 2.223 . S
O66 C65 1.315 . S
O67 Cd57 2.240 1_655 S
O67 C65 1.279 . S
O68 Cd58 2.297 . S
O68 C63 1.247 . S
O69 Cd58 2.439 . S
O69 C63 1.208 . S
O70 Cd71 2.223 . S
O70 C78 1.315 . S
Cd71 O70 2.223 . S
Cd71 O74 2.297 . S
Cd71 O75 2.439 . S
Cd71 O81 2.240 . S
Cd72 O73 2.240 . S
Cd72 O80 2.223 . S
Cd72 O82 2.297 . S
Cd72 O83 2.439 . S
O73 Cd72 2.240 . S
O73 C78 1.279 . S
O74 Cd71 2.297 . S
O74 C76 1.247 . S
O75 Cd71 2.439 . S
O75 C76 1.208 . S
C76 O74 1.247 . S
C76 O75 1.208 . S
C77 O82 1.247 . S
C77 O83 1.208 . S
C78 O70 1.315 . S
C78 O73 1.279 . S
C79 O80 1.315 . S
C79 O81 1.279 . S
O80 Cd72 2.223 . S
O80 C79 1.315 . S
O81 Cd71 2.240 . S
O81 C79 1.279 . S
O82 Cd72 2.297 . S
O82 C77 1.247 . S
O83 Cd72 2.439 . S
O83 C77 1.208 . S
O84 Cd85 2.223 . S
O84 C92 1.315 . S
Cd85 O84 2.223 . S
Cd85 O88 2.297 . S
Cd85 O89 2.439 . S
Cd85 O95 2.240 . S
Cd86 O87 2.240 . S
Cd86 O94 2.223 . S
Cd86 O96 2.297 . S
Cd86 O97 2.439 . S
O87 Cd86 2.240 . S
O87 C92 1.279 . S
O88 Cd85 2.297 . S
O88 C90 1.247 . S
O89 Cd85 2.439 . S
O89 C90 1.208 . S
C90 O88 1.247 . S
C90 O89 1.208 . S
C91 O96 1.247 . S
C91 O97 1.208 . S
C92 O84 1.315 . S
C92 O87 1.279 . S
C93 O94 1.315 . S
C93 O95 1.279 . S
O94 Cd86 2.223 . S
O94 C93 1.315 . S
O95 Cd85 2.240 . S
O95 C93 1.279 . S
O96 Cd86 2.297 . S
O96 C91 1.247 . S
O97 Cd86 2.439 . S
O97 C91 1.208 . S
O98 Cd99 2.223 . S
O98 C106 1.315 . S
Cd99 O98 2.223 . S
Cd99 O102 2.297 1_455 S
Cd99 O103 2.439 1_455 S
Cd99 O109 2.240 . S
Cd100 O101 2.240 . S
Cd100 O108 2.223 . S
Cd100 O110 2.297 . S
Cd100 O111 2.439 1_455 S
O101 Cd100 2.240 . S
O101 C106 1.279 . S
O102 Cd99 2.297 1_655 S
O102 C104 1.247 . S
O103 Cd99 2.439 1_655 S
O103 C104 1.208 . S
C104 O102 1.247 . S
C104 O103 1.208 . S
C105 O110 1.247 1_655 S
C105 O111 1.208 . S
C106 O98 1.315 . S
C106 O101 1.279 . S
C107 O108 1.315 . S
C107 O109 1.279 . S
O108 Cd100 2.223 . S
O108 C107 1.315 . S
O109 Cd99 2.240 . S
O109 C107 1.279 . S
O110 Cd100 2.297 . S
O110 C105 1.247 1_455 S
O111 Cd100 2.439 1_655 S
O111 C105 1.208 . S
O112 Cd113 2.223 . S
O112 C120 1.315 . S
Cd113 O112 2.223 . S
Cd113 O116 2.297 . S
Cd113 O117 2.439 . S
Cd113 O123 2.240 1_545 S
Cd114 O115 2.240 1_565 S
Cd114 O122 2.223 . S
Cd114 O124 2.297 . S
Cd114 O125 2.439 . S
O115 Cd114 2.240 1_545 S
O115 C120 1.279 . S
O116 Cd113 2.297 . S
O116 C118 1.247 . S
O117 Cd113 2.439 . S
O117 C118 1.208 . S
C118 O116 1.247 . S
C118 O117 1.208 . S
C119 O124 1.247 . S
C119 O125 1.208 . S
C120 O112 1.315 . S
C120 O115 1.279 . S
C121 O122 1.315 . S
C121 O123 1.279 . S
O122 Cd114 2.223 . S
O122 C121 1.315 . S
O123 Cd113 2.240 1_565 S
O123 C121 1.279 . S
O124 Cd114 2.297 . S
O124 C119 1.247 . S
O125 Cd114 2.439 . S
O125 C119 1.208 . S
O126 Cd127 2.223 . S
O126 C134 1.315 . S
Cd127 O126 2.223 . S
Cd127 O130 2.297 . S
Cd127 O131 2.439 . S
Cd127 O137 2.240 . S
Cd128 O129 2.240 . S
Cd128 O136 2.223 . S
Cd128 O138 2.297 . S
Cd128 O139 2.439 . S
O129 Cd128 2.240 . S
O129 C134 1.279 . S
O130 Cd127 2.297 . S
O130 C132 1.247 . S
O131 Cd127 2.439 . S
O131 C132 1.208 . S
C132 O130 1.247 . S
C132 O131 1.208 . S
C133 O138 1.247 . S
C133 O139 1.208 . S
C134 O126 1.315 . S
C134 O129 1.279 . S
C135 O136 1.315 . S
C135 O137 1.279 . S
O136 Cd128 2.223 . S
O136 C135 1.315 . S
O137 Cd127 2.240 . S
O137 C135 1.279 . S
O138 Cd128 2.297 . S
O138 C133 1.247 . S
O139 Cd128 2.439 . S
O139 C133 1.208 . S
O140 Cd141 2.223 . S
O140 C148 1.315 . S
Cd141 O140 2.223 . S
Cd141 O144 2.297 . S
Cd141 O145 2.439 . S
Cd141 O151 2.240 1_545 S
Cd142 O143 2.240 1_565 S
Cd142 O150 2.223 . S
Cd142 O152 2.297 . S
Cd142 O153 2.439 . S
O143 Cd142 2.240 1_545 S
O143 C148 1.279 . S
O144 Cd141 2.297 . S
O144 C146 1.247 . S
O145 Cd141 2.439 . S
O145 C146 1.208 . S
C146 O144 1.247 . S
C146 O145 1.208 . S
C147 O152 1.247 . S
C147 O153 1.208 . S
C148 O140 1.315 . S
C148 O143 1.279 . S
C149 O150 1.315 . S
C149 O151 1.279 . S
O150 Cd142 2.223 . S
O150 C149 1.315 . S
O151 Cd141 2.240 1_565 S
O151 C149 1.279 . S
O152 Cd142 2.297 . S
O152 C147 1.247 . S
O153 Cd142 2.439 . S
O153 C147 1.208 . S
O154 Cd155 2.223 . S
O154 C162 1.315 . S
Cd155 O154 2.223 . S
Cd155 O158 2.297 1_554 S
Cd155 O159 2.439 1_554 S
Cd155 O165 2.240 . S
Cd156 O157 2.240 . S
Cd156 O164 2.223 . S
Cd156 O166 2.297 . S
Cd156 O167 2.439 1_554 S
O157 Cd156 2.240 . S
O157 C162 1.279 . S
O158 Cd155 2.297 1_556 S
O158 C160 1.247 . S
O159 Cd155 2.439 1_556 S
O159 C160 1.208 . S
C160 O158 1.247 . S
C160 O159 1.208 . S
C161 O166 1.247 1_556 S
C161 O167 1.208 . S
C162 O154 1.315 . S
C162 O157 1.279 . S
C163 O164 1.315 . S
C163 O165 1.279 . S
O164 Cd156 2.223 . S
O164 C163 1.315 . S
O165 Cd155 2.240 . S
O165 C163 1.279 . S
O166 Cd156 2.297 . S
O166 C161 1.247 1_554 S
O167 Cd156 2.439 1_556 S
O167 C161 1.208 . S
O168 Cd169 2.223 . S
O168 C176 1.315 . S
Cd169 O168 2.223 . S
Cd169 O172 2.297 . S
Cd169 O173 2.439 . S
Cd169 O179 2.240 1_554 S
Cd170 O171 2.240 1_556 S
Cd170 O178 2.223 . S
Cd170 O180 2.297 . S
Cd170 O181 2.439 . S
O171 Cd170 2.240 1_554 S
O171 C176 1.279 . S
O172 Cd169 2.297 . S
O172 C174 1.247 . S
O173 Cd169 2.439 . S
O173 C174 1.208 . S
C174 O172 1.247 . S
C174 O173 1.208 . S
C175 O180 1.247 . S
C175 O181 1.208 . S
C176 O168 1.315 . S
C176 O171 1.279 . S
C177 O178 1.315 . S
C177 O179 1.279 . S
O178 Cd170 2.223 . S
O178 C177 1.315 . S
O179 Cd169 2.240 1_556 S
O179 C177 1.279 . S
O180 Cd170 2.297 . S
O180 C175 1.247 . S
O181 Cd170 2.439 . S
O181 C175 1.208 . S
O182 Cd183 2.223 . S
O182 C190 1.315 . S
Cd183 O182 2.223 . S
Cd183 O186 2.297 . S
Cd183 O187 2.439 . S
Cd183 O193 2.240 1_554 S
Cd184 O185 2.240 1_556 S
Cd184 O192 2.223 . S
Cd184 O194 2.297 . S
Cd184 O195 2.439 . S
O185 Cd184 2.240 1_554 S
O185 C190 1.279 . S
O186 Cd183 2.297 . S
O186 C188 1.247 . S
O187 Cd183 2.439 . S
O187 C188 1.208 . S
C188 O186 1.247 . S
C188 O187 1.208 . S
C189 O194 1.247 . S
C189 O195 1.208 . S
C190 O182 1.315 . S
C190 O185 1.279 . S
C191 O192 1.315 . S
C191 O193 1.279 . S
O192 Cd184 2.223 . S
O192 C191 1.315 . S
O193 Cd183 2.240 1_556 S
O193 C191 1.279 . S
O194 Cd184 2.297 . S
O194 C189 1.247 . S
O195 Cd184 2.439 . S
O195 C189 1.208 . S
O196 Cd197 2.223 . S
O196 C204 1.315 . S
Cd197 O196 2.223 . S
Cd197 O200 2.297 . S
Cd197 O201 2.439 . S
Cd197 O207 2.240 . S
Cd198 O199 2.240 . S
Cd198 O206 2.223 . S
Cd198 O208 2.297 . S
Cd198 O209 2.439 . S
O199 Cd198 2.240 . S
O199 C204 1.279 . S
O200 Cd197 2.297 . S
O200 C202 1.247 . S
O201 Cd197 2.439 . S
O201 C202 1.208 . S
C202 O200 1.247 . S
C202 O201 1.208 . S
C203 O208 1.247 . S
C203 O209 1.208 . S
C204 O196 1.315 . S
C204 O199 1.279 . S
C205 O206 1.315 . S
C205 O207 1.279 . S
O206 Cd198 2.223 . S
O206 C205 1.315 . S
O207 Cd197 2.240 . S
O207 C205 1.279 . S
O208 Cd198 2.297 . S
O208 C203 1.247 . S
O209 Cd198 2.439 . S
O209 C203 1.208 . S
O210 Cd211 2.223 . S
O210 C218 1.315 . S
Cd211 O210 2.223 . S
Cd211 O214 2.297 . S
Cd211 O215 2.439 . S
Cd211 O221 2.240 . S
Cd212 O213 2.240 . S
Cd212 O220 2.223 . S
Cd212 O222 2.297 . S
Cd212 O223 2.439 . S
O213 Cd212 2.240 . S
O213 C218 1.279 . S
O214 Cd211 2.297 . S
O214 C216 1.247 . S
O215 Cd211 2.439 . S
O215 C216 1.208 . S
C216 O214 1.247 . S
C216 O215 1.208 . S
C217 O222 1.247 . S
C217 O223 1.208 . S
C218 O210 1.315 . S
C218 O213 1.279 . S
C219 O220 1.315 . S
C219 O221 1.279 . S
O220 Cd212 2.223 . S
O220 C219 1.315 . S
O221 Cd211 2.240 . S
O221 C219 1.279 . S
O222 Cd212 2.297 . S
O222 C217 1.247 . S
O223 Cd212 2.439 . S
O223 C217 1.208 . S
O224 Cd225 2.223 . S
O224 C232 1.315 . S
Cd225 O224 2.223 . S
Cd225 O228 2.297 1_545 S
Cd225 O229 2.439 1_545 S
Cd225 O235 2.240 . S
Cd226 O227 2.240 . S
Cd226 O234 2.223 . S
Cd226 O236 2.297 . S
Cd226 O237 2.439 1_545 S
O227 Cd226 2.240 . S
O227 C232 1.279 . S
O228 Cd225 2.297 1_565 S
O228 C230 1.247 . S
O229 Cd225 2.439 1_565 S
O229 C230 1.208 . S
C230 O228 1.247 . S
C230 O229 1.208 . S
C231 O236 1.247 1_565 S
C231 O237 1.208 . S
C232 O224 1.315 . S
C232 O227 1.279 . S
C233 O234 1.315 . S
C233 O235 1.279 . S
O234 Cd226 2.223 . S
O234 C233 1.315 . S
O235 Cd225 2.240 . S
O235 C233 1.279 . S
O236 Cd226 2.297 . S
O236 C231 1.247 1_545 S
O237 Cd226 2.439 1_565 S
O237 C231 1.208 . S
O238 Cd239 2.223 . S
O238 C246 1.315 . S
Cd239 O238 2.223 . S
Cd239 O242 2.297 . S
Cd239 O243 2.439 . S
Cd239 O249 2.240 . S
Cd240 O241 2.240 . S
Cd240 O248 2.223 . S
Cd240 O250 2.297 . S
Cd240 O251 2.439 . S
O241 Cd240 2.240 . S
O241 C246 1.279 . S
O242 Cd239 2.297 . S
O242 C244 1.247 . S
O243 Cd239 2.439 . S
O243 C244 1.208 . S
C244 O242 1.247 . S
C244 O243 1.208 . S
C245 O250 1.247 . S
C245 O251 1.208 . S
C246 O238 1.315 . S
C246 O241 1.279 . S
C247 O248 1.315 . S
C247 O249 1.279 . S
O248 Cd240 2.223 . S
O248 C247 1.315 . S
O249 Cd239 2.240 . S
O249 C247 1.279 . S
O250 Cd240 2.297 . S
O250 C245 1.247 . S
O251 Cd240 2.439 . S
O251 C245 1.208 . S
O252 Cd253 2.223 . S
O252 C260 1.315 . S
Cd253 O252 2.223 . S
Cd253 O256 2.297 . S
Cd253 O257 2.439 . S
Cd253 O263 2.240 . S
Cd254 O255 2.240 . S
Cd254 O262 2.223 . S
Cd254 O264 2.297 . S
Cd254 O265 2.439 . S
O255 Cd254 2.240 . S
O255 C260 1.279 . S
O256 Cd253 2.297 . S
O256 C258 1.247 . S
O257 Cd253 2.439 . S
O257 C258 1.208 . S
C258 O256 1.247 . S
C258 O257 1.208 . S
C259 O264 1.247 . S
C259 O265 1.208 . S
C260 O252 1.315 . S
C260 O255 1.279 . S
C261 O262 1.315 . S
C261 O263 1.279 . S
O262 Cd254 2.223 . S
O262 C261 1.315 . S
O263 Cd253 2.240 . S
O263 C261 1.279 . S
O264 Cd254 2.297 . S
O264 C259 1.247 . S
O265 Cd254 2.439 . S
O265 C259 1.208 . S
O266 Cd267 2.223 . S
O266 C274 1.315 . S
Cd267 O266 2.223 . S
Cd267 O270 2.297 . S
Cd267 O271 2.439 1_545 S
Cd267 O277 2.240 . S
Cd268 O269 2.240 . S
Cd268 O276 2.223 . S
Cd268 O278 2.297 1_545 S
Cd268 O279 2.439 1_545 S
O269 Cd268 2.240 . S
O269 C274 1.279 . S
O270 Cd267 2.297 . S
O270 C272 1.247 1_545 S
O271 Cd267 2.439 1_565 S
O271 C272 1.208 . S
C272 O270 1.247 1_565 S
C272 O271 1.208 . S
C273 O278 1.247 . S
C273 O279 1.208 . S
C274 O266 1.315 . S
C274 O269 1.279 . S
C275 O276 1.315 . S
C275 O277 1.279 . S
O276 Cd268 2.223 . S
O276 C275 1.315 . S
O277 Cd267 2.240 . S
O277 C275 1.279 . S
O278 Cd268 2.297 1_565 S
O278 C273 1.247 . S
O279 Cd268 2.439 1_565 S
O279 C273 1.208 . S
O280 Cd281 2.223 . S
O280 C288 1.315 . S
Cd281 O280 2.223 . S
Cd281 O284 2.297 . S
Cd281 O285 2.439 1_554 S
Cd281 O291 2.240 . S
Cd282 O283 2.240 . S
Cd282 O290 2.223 . S
Cd282 O292 2.297 1_554 S
Cd282 O293 2.439 1_554 S
O283 Cd282 2.240 . S
O283 C288 1.279 . S
O284 Cd281 2.297 . S
O284 C286 1.247 1_554 S
O285 Cd281 2.439 1_556 S
O285 C286 1.208 . S
C286 O284 1.247 1_556 S
C286 O285 1.208 . S
C287 O292 1.247 . S
C287 O293 1.208 . S
C288 O280 1.315 . S
C288 O283 1.279 . S
C289 O290 1.315 . S
C289 O291 1.279 . S
O290 Cd282 2.223 . S
O290 C289 1.315 . S
O291 Cd281 2.240 . S
O291 C289 1.279 . S
O292 Cd282 2.297 1_556 S
O292 C287 1.247 . S
O293 Cd282 2.439 1_556 S
O293 C287 1.208 . S
O294 Cd295 2.223 . S
O294 C302 1.315 . S
Cd295 O294 2.223 . S
Cd295 O298 2.297 . S
Cd295 O299 2.439 . S
Cd295 O305 2.240 . S
Cd296 O297 2.240 . S
Cd296 O304 2.223 . S
Cd296 O306 2.297 . S
Cd296 O307 2.439 . S
O297 Cd296 2.240 . S
O297 C302 1.279 . S
O298 Cd295 2.297 . S
O298 C300 1.247 . S
O299 Cd295 2.439 . S
O299 C300 1.208 . S
C300 O298 1.247 . S
C300 O299 1.208 . S
C301 O306 1.247 . S
C301 O307 1.208 . S
C302 O294 1.315 . S
C302 O297 1.279 . S
C303 O304 1.315 . S
C303 O305 1.279 . S
O304 Cd296 2.223 . S
O304 C303 1.315 . S
O305 Cd295 2.240 . S
O305 C303 1.279 . S
O306 Cd296 2.297 . S
O306 C301 1.247 . S
O307 Cd296 2.439 . S
O307 C301 1.208 . S
O308 Cd309 2.223 . S
O308 C316 1.315 . S
Cd309 O308 2.223 . S
Cd309 O312 2.297 . S
Cd309 O313 2.439 . S
Cd309 O319 2.240 . S
Cd310 O311 2.240 . S
Cd310 O318 2.223 . S
Cd310 O320 2.297 . S
Cd310 O321 2.439 . S
O311 Cd310 2.240 . S
O311 C316 1.279 . S
O312 Cd309 2.297 . S
O312 C314 1.247 . S
O313 Cd309 2.439 . S
O313 C314 1.208 . S
C314 O312 1.247 . S
C314 O313 1.208 . S
C315 O320 1.247 . S
C315 O321 1.208 . S
C316 O308 1.315 . S
C316 O311 1.279 . S
C317 O318 1.315 . S
C317 O319 1.279 . S
O318 Cd310 2.223 . S
O318 C317 1.315 . S
O319 Cd309 2.240 . S
O319 C317 1.279 . S
O320 Cd310 2.297 . S
O320 C315 1.247 . S
O321 Cd310 2.439 . S
O321 C315 1.208 . S
O322 Cd323 2.223 . S
O322 C330 1.315 . S
Cd323 O322 2.223 . S
Cd323 O326 2.297 . S
Cd323 O327 2.439 . S
Cd323 O333 2.240 . S
Cd324 O325 2.240 . S
Cd324 O332 2.223 . S
Cd324 O334 2.297 . S
Cd324 O335 2.439 . S
O325 Cd324 2.240 . S
O325 C330 1.279 . S
O326 Cd323 2.297 . S
O326 C328 1.247 . S
O327 Cd323 2.439 . S
O327 C328 1.208 . S
C328 O326 1.247 . S
C328 O327 1.208 . S
C329 O334 1.247 . S
C329 O335 1.208 . S
C330 O322 1.315 . S
C330 O325 1.279 . S
C331 O332 1.315 . S
C331 O333 1.279 . S
O332 Cd324 2.223 . S
O332 C331 1.315 . S
O333 Cd323 2.240 . S
O333 C331 1.279 . S
O334 Cd324 2.297 . S
O334 C329 1.247 . S
O335 Cd324 2.439 . S
O335 C329 1.208 . S
H336 C342 0.930 . S
H337 C346 0.930 . S
H338 C351 0.929 . S
H339 C349 0.929 . S
H340 C344 0.929 . S
H341 C350 0.929 . S
C342 H336 0.930 . S
C342 C343 1.367 . S
C342 C350 1.378 . S
C343 C342 1.367 . S
C343 C351 1.433 . S
C344 H340 0.929 . S
C344 C346 1.378 . S
C344 C348 1.350 . S
C345 C348 1.463 . S
C345 C350 1.350 . S
C345 N353 1.427 . S
C346 H337 0.930 . S
C346 C344 1.378 . S
C346 C347 1.367 . S
C347 C346 1.367 . S
C347 C349 1.433 . S
C348 C344 1.350 . S
C348 C345 1.463 . S
C348 N352 1.427 . S
C349 H339 0.929 . S
C349 C347 1.433 . S
C349 N352 1.384 . S
C350 H341 0.929 . S
C350 C342 1.378 . S
C350 C345 1.350 . S
C351 H338 0.929 . S
C351 C343 1.433 . S
C351 N353 1.384 . S
N352 C348 1.427 . S
N352 C349 1.384 . S
N353 C345 1.427 . S
N353 C351 1.384 . S
H354 C360 0.930 . S
H355 C364 0.930 . S
H356 C369 0.929 . S
H357 C367 0.929 . S
H358 C362 0.929 . S
H359 C368 0.929 . S
C360 H354 0.930 . S
C360 C361 1.367 . S
C360 C368 1.378 . S
C361 C360 1.367 . S
C361 C369 1.433 . S
C362 H358 0.929 . S
C362 C364 1.378 . S
C362 C366 1.350 . S
C363 C366 1.463 . S
C363 C368 1.350 . S
C363 N371 1.427 . S
C364 H355 0.930 . S
C364 C362 1.378 . S
C364 C365 1.367 . S
C365 C364 1.367 . S
C365 C367 1.433 . S
C366 C362 1.350 . S
C366 C363 1.463 . S
C366 N370 1.427 . S
C367 H357 0.929 . S
C367 C365 1.433 . S
C367 N370 1.384 . S
C368 H359 0.929 . S
C368 C360 1.378 . S
C368 C363 1.350 . S
C369 H356 0.929 . S
C369 C361 1.433 . S
C369 N371 1.384 . S
N370 C366 1.427 . S
N370 C367 1.384 . S
N371 C363 1.427 . S
N371 C369 1.384 . S
H372 C378 0.930 . S
H373 C382 0.930 . S
H374 C387 0.929 . S
H375 C385 0.929 . S
H376 C380 0.929 . S
H377 C386 0.929 . S
C378 H372 0.930 . S
C378 C379 1.367 . S
C378 C386 1.378 . S
C379 C378 1.367 . S
C379 C387 1.433 . S
C380 H376 0.929 . S
C380 C382 1.378 . S
C380 C384 1.350 . S
C381 C384 1.463 . S
C381 C386 1.350 . S
C381 N389 1.427 . S
C382 H373 0.930 . S
C382 C380 1.378 . S
C382 C383 1.367 . S
C383 C382 1.367 . S
C383 C385 1.433 . S
C384 C380 1.350 . S
C384 C381 1.463 . S
C384 N388 1.427 . S
C385 H375 0.929 . S
C385 C383 1.433 . S
C385 N388 1.384 . S
C386 H377 0.929 . S
C386 C378 1.378 . S
C386 C381 1.350 . S
C387 H374 0.929 . S
C387 C379 1.433 . S
C387 N389 1.384 . S
N388 C384 1.427 . S
N388 C385 1.384 . S
N389 C381 1.427 . S
N389 C387 1.384 . S
H390 C396 0.930 . S
H391 C400 0.930 . S
H392 C405 0.929 . S
H393 C403 0.929 . S
H394 C398 0.929 . S
H395 C404 0.929 . S
C396 H390 0.930 . S
C396 C397 1.367 . S
C396 C404 1.378 . S
C397 C396 1.367 . S
C397 C405 1.433 . S
C398 H394 0.929 . S
C398 C400 1.378 . S
C398 C402 1.350 . S
C399 C402 1.463 . S
C399 C404 1.350 . S
C399 N407 1.427 . S
C400 H391 0.930 . S
C400 C398 1.378 . S
C400 C401 1.367 . S
C401 C400 1.367 . S
C401 C403 1.433 . S
C402 C398 1.350 . S
C402 C399 1.463 . S
C402 N406 1.427 . S
C403 H393 0.929 . S
C403 C401 1.433 . S
C403 N406 1.384 . S
C404 H395 0.929 . S
C404 C396 1.378 . S
C404 C399 1.350 . S
C405 H392 0.929 . S
C405 C397 1.433 . S
C405 N407 1.384 . S
N406 C402 1.427 . S
N406 C403 1.384 . S
N407 C399 1.427 . S
N407 C405 1.384 . S
H408 C414 0.930 . S
H409 C418 0.930 . S
H410 C423 0.929 . S
H411 C421 0.929 . S
H412 C416 0.929 . S
H413 C422 0.929 . S
C414 H408 0.930 . S
C414 C415 1.367 . S
C414 C422 1.378 . S
C415 C414 1.367 . S
C415 C423 1.433 . S
C416 H412 0.929 . S
C416 C418 1.378 . S
C416 C420 1.350 . S
C417 C420 1.463 . S
C417 C422 1.350 . S
C417 N425 1.427 . S
C418 H409 0.930 . S
C418 C416 1.378 . S
C418 C419 1.367 . S
C419 C418 1.367 . S
C419 C421 1.433 . S
C420 C416 1.350 . S
C420 C417 1.463 . S
C420 N424 1.427 . S
C421 H411 0.929 . S
C421 C419 1.433 . S
C421 N424 1.384 . S
C422 H413 0.929 . S
C422 C414 1.378 . S
C422 C417 1.350 . S
C423 H410 0.929 . S
C423 C415 1.433 . S
C423 N425 1.384 . S
N424 C420 1.427 . S
N424 C421 1.384 . S
N425 C417 1.427 . S
N425 C423 1.384 . S
H426 C432 0.930 . S
H427 C436 0.930 . S
H428 C441 0.929 . S
H429 C439 0.929 . S
H430 C434 0.929 . S
H431 C440 0.929 . S
C432 H426 0.930 . S
C432 C433 1.367 . S
C432 C440 1.378 . S
C433 C432 1.367 . S
C433 C441 1.433 . S
C434 H430 0.929 . S
C434 C436 1.378 . S
C434 C438 1.350 . S
C435 C438 1.463 . S
C435 C440 1.350 . S
C435 N443 1.427 . S
C436 H427 0.930 . S
C436 C434 1.378 . S
C436 C437 1.367 . S
C437 C436 1.367 . S
C437 C439 1.433 . S
C438 C434 1.350 . S
C438 C435 1.463 . S
C438 N442 1.427 . S
C439 H429 0.929 . S
C439 C437 1.433 . S
C439 N442 1.384 . S
C440 H431 0.929 . S
C440 C432 1.378 . S
C440 C435 1.350 . S
C441 H428 0.929 . S
C441 C433 1.433 . S
C441 N443 1.384 . S
N442 C438 1.427 . S
N442 C439 1.384 . S
N443 C435 1.427 . S
N443 C441 1.384 . S
H444 C450 0.930 . S
H445 C454 0.930 . S
H446 C459 0.929 . S
H447 C457 0.929 . S
H448 C452 0.929 . S
H449 C458 0.929 . S
C450 H444 0.930 . S
C450 C451 1.367 . S
C450 C458 1.378 . S
C451 C450 1.367 . S
C451 C459 1.433 . S
C452 H448 0.929 . S
C452 C454 1.378 . S
C452 C456 1.350 . S
C453 C456 1.463 . S
C453 C458 1.350 . S
C453 N461 1.427 . S
C454 H445 0.930 . S
C454 C452 1.378 . S
C454 C455 1.367 . S
C455 C454 1.367 . S
C455 C457 1.433 . S
C456 C452 1.350 . S
C456 C453 1.463 . S
C456 N460 1.427 . S
C457 H447 0.929 . S
C457 C455 1.433 . S
C457 N460 1.384 . S
C458 H449 0.929 . S
C458 C450 1.378 . S
C458 C453 1.350 . S
C459 H446 0.929 . S
C459 C451 1.433 . S
C459 N461 1.384 . S
N460 C456 1.427 . S
N460 C457 1.384 . S
N461 C453 1.427 . S
N461 C459 1.384 . S
H462 C468 0.930 . S
H463 C472 0.930 . S
H464 C477 0.929 . S
H465 C475 0.929 . S
H466 C470 0.929 . S
H467 C476 0.929 . S
C468 H462 0.930 . S
C468 C469 1.367 . S
C468 C476 1.378 . S
C469 C468 1.367 . S
C469 C477 1.433 . S
C470 H466 0.929 . S
C470 C472 1.378 . S
C470 C474 1.350 . S
C471 C474 1.463 . S
C471 C476 1.350 . S
C471 N479 1.427 . S
C472 H463 0.930 . S
C472 C470 1.378 . S
C472 C473 1.367 . S
C473 C472 1.367 . S
C473 C475 1.433 . S
C474 C470 1.350 . S
C474 C471 1.463 . S
C474 N478 1.427 . S
C475 H465 0.929 . S
C475 C473 1.433 . S
C475 N478 1.384 . S
C476 H467 0.929 . S
C476 C468 1.378 . S
C476 C471 1.350 . S
C477 H464 0.929 . S
C477 C469 1.433 . S
C477 N479 1.384 . S
N478 C474 1.427 . S
N478 C475 1.384 . S
N479 C471 1.427 . S
N479 C477 1.384 . S
H480 C486 0.930 . S
H481 C490 0.930 . S
H482 C495 0.929 . S
H483 C493 0.929 . S
H484 C488 0.929 . S
H485 C494 0.929 . S
C486 H480 0.930 . S
C486 C487 1.367 . S
C486 C494 1.378 . S
C487 C486 1.367 . S
C487 C495 1.433 . S
C488 H484 0.929 . S
C488 C490 1.378 . S
C488 C492 1.350 . S
C489 C492 1.463 . S
C489 C494 1.350 . S
C489 N497 1.427 . S
C490 H481 0.930 . S
C490 C488 1.378 . S
C490 C491 1.367 . S
C491 C490 1.367 . S
C491 C493 1.433 . S
C492 C488 1.350 . S
C492 C489 1.463 . S
C492 N496 1.427 . S
C493 H483 0.929 . S
C493 C491 1.433 . S
C493 N496 1.384 . S
C494 H485 0.929 . S
C494 C486 1.378 . S
C494 C489 1.350 . S
C495 H482 0.929 . S
C495 C487 1.433 . S
C495 N497 1.384 . S
N496 C492 1.427 . S
N496 C493 1.384 . S
N497 C489 1.427 . S
N497 C495 1.384 . S
H498 C504 0.930 . S
H499 C508 0.930 . S
H500 C513 0.929 . S
H501 C511 0.929 . S
H502 C506 0.929 . S
H503 C512 0.929 . S
C504 H498 0.930 . S
C504 C505 1.367 . S
C504 C512 1.378 . S
C505 C504 1.367 . S
C505 C513 1.433 . S
C506 H502 0.929 . S
C506 C508 1.378 . S
C506 C510 1.350 . S
C507 C510 1.463 . S
C507 C512 1.350 . S
C507 N515 1.427 . S
C508 H499 0.930 . S
C508 C506 1.378 . S
C508 C509 1.367 . S
C509 C508 1.367 . S
C509 C511 1.433 . S
C510 C506 1.350 . S
C510 C507 1.463 . S
C510 N514 1.427 . S
C511 H501 0.929 . S
C511 C509 1.433 . S
C511 N514 1.384 . S
C512 H503 0.929 . S
C512 C504 1.378 . S
C512 C507 1.350 . S
C513 H500 0.929 . S
C513 C505 1.433 . S
C513 N515 1.384 . S
N514 C510 1.427 . S
N514 C511 1.384 . S
N515 C507 1.427 . S
N515 C513 1.384 . S
H516 C522 0.930 . S
H517 C526 0.930 . S
H518 C531 0.929 . S
H519 C529 0.929 . S
H520 C524 0.929 . S
H521 C530 0.929 . S
C522 H516 0.930 . S
C522 C523 1.367 . S
C522 C530 1.378 . S
C523 C522 1.367 . S
C523 C531 1.433 . S
C524 H520 0.929 . S
C524 C526 1.378 . S
C524 C528 1.350 . S
C525 C528 1.463 . S
C525 C530 1.350 . S
C525 N533 1.427 . S
C526 H517 0.930 . S
C526 C524 1.378 . S
C526 C527 1.367 . S
C527 C526 1.367 . S
C527 C529 1.433 . S
C528 C524 1.350 . S
C528 C525 1.463 . S
C528 N532 1.427 . S
C529 H519 0.929 . S
C529 C527 1.433 . S
C529 N532 1.384 . S
C530 H521 0.929 . S
C530 C522 1.378 . S
C530 C525 1.350 . S
C531 H518 0.929 . S
C531 C523 1.433 . S
C531 N533 1.384 . S
N532 C528 1.427 . S
N532 C529 1.384 . S
N533 C525 1.427 . S
N533 C531 1.384 . S
H534 C540 0.930 . S
H535 C544 0.930 . S
H536 C549 0.929 . S
H537 C547 0.929 . S
H538 C542 0.929 . S
H539 C548 0.929 . S
C540 H534 0.930 . S
C540 C541 1.367 . S
C540 C548 1.378 . S
C541 C540 1.367 . S
C541 C549 1.433 . S
C542 H538 0.929 . S
C542 C544 1.378 . S
C542 C546 1.350 . S
C543 C546 1.463 . S
C543 C548 1.350 . S
C543 N551 1.427 . S
C544 H535 0.930 . S
C544 C542 1.378 . S
C544 C545 1.367 . S
C545 C544 1.367 . S
C545 C547 1.433 . S
C546 C542 1.350 . S
C546 C543 1.463 . S
C546 N550 1.427 . S
C547 H537 0.929 . S
C547 C545 1.433 . S
C547 N550 1.384 . S
C548 H539 0.929 . S
C548 C540 1.378 . S
C548 C543 1.350 . S
C549 H536 0.929 . S
C549 C541 1.433 . S
C549 N551 1.384 . S
N550 C546 1.427 . S
N550 C547 1.384 . S
N551 C543 1.427 . S
N551 C549 1.384 . S
H552 C558 0.930 . S
H553 C562 0.930 . S
H554 C567 0.929 . S
H555 C565 0.929 . S
H556 C560 0.929 . S
H557 C566 0.929 . S
C558 H552 0.930 . S
C558 C559 1.367 . S
C558 C566 1.378 . S
C559 C558 1.367 . S
C559 C567 1.433 . S
C560 H556 0.929 . S
C560 C562 1.378 . S
C560 C564 1.350 . S
C561 C564 1.463 . S
C561 C566 1.350 . S
C561 N569 1.427 . S
C562 H553 0.930 . S
C562 C560 1.378 . S
C562 C563 1.367 . S
C563 C562 1.367 . S
C563 C565 1.433 . S
C564 C560 1.350 . S
C564 C561 1.463 . S
C564 N568 1.427 . S
C565 H555 0.929 . S
C565 C563 1.433 . S
C565 N568 1.384 . S
C566 H557 0.929 . S
C566 C558 1.378 . S
C566 C561 1.350 . S
C567 H554 0.929 . S
C567 C559 1.433 . S
C567 N569 1.384 . S
N568 C564 1.427 . S
N568 C565 1.384 . S
N569 C561 1.427 . S
N569 C567 1.384 . S
H570 C576 0.930 . S
H571 C580 0.930 . S
H572 C585 0.929 . S
H573 C583 0.929 . S
H574 C578 0.929 . S
H575 C584 0.929 . S
C576 H570 0.930 . S
C576 C577 1.367 . S
C576 C584 1.378 . S
C577 C576 1.367 . S
C577 C585 1.433 . S
C578 H574 0.929 . S
C578 C580 1.378 . S
C578 C582 1.350 . S
C579 C582 1.463 . S
C579 C584 1.350 . S
C579 N587 1.427 . S
C580 H571 0.930 . S
C580 C578 1.378 . S
C580 C581 1.367 . S
C581 C580 1.367 . S
C581 C583 1.433 . S
C582 C578 1.350 . S
C582 C579 1.463 . S
C582 N586 1.427 . S
C583 H573 0.929 . S
C583 C581 1.433 . S
C583 N586 1.384 . S
C584 H575 0.929 . S
C584 C576 1.378 . S
C584 C579 1.350 . S
C585 H572 0.929 . S
C585 C577 1.433 . S
C585 N587 1.384 . S
N586 C582 1.427 . S
N586 C583 1.384 . S
N587 C579 1.427 . S
N587 C585 1.384 . S
H588 C594 0.930 . S
H589 C598 0.930 . S
H590 C603 0.929 . S
H591 C601 0.929 . S
H592 C596 0.929 . S
H593 C602 0.929 . S
C594 H588 0.930 . S
C594 C595 1.367 . S
C594 C602 1.378 . S
C595 C594 1.367 . S
C595 C603 1.433 . S
C596 H592 0.929 . S
C596 C598 1.378 . S
C596 C600 1.350 . S
C597 C600 1.463 . S
C597 C602 1.350 . S
C597 N605 1.427 . S
C598 H589 0.930 . S
C598 C596 1.378 . S
C598 C599 1.367 . S
C599 C598 1.367 . S
C599 C601 1.433 . S
C600 C596 1.350 . S
C600 C597 1.463 . S
C600 N604 1.427 . S
C601 H591 0.929 . S
C601 C599 1.433 . S
C601 N604 1.384 . S
C602 H593 0.929 . S
C602 C594 1.378 . S
C602 C597 1.350 . S
C603 H590 0.929 . S
C603 C595 1.433 . S
C603 N605 1.384 . S
N604 C600 1.427 . S
N604 C601 1.384 . S
N605 C597 1.427 . S
N605 C603 1.384 . S
H606 C612 0.930 . S
H607 C616 0.930 . S
H608 C621 0.929 . S
H609 C619 0.929 . S
H610 C614 0.929 . S
H611 C620 0.929 . S
C612 H606 0.930 . S
C612 C613 1.367 . S
C612 C620 1.378 . S
C613 C612 1.367 . S
C613 C621 1.433 . S
C614 H610 0.929 . S
C614 C616 1.378 . S
C614 C618 1.350 . S
C615 C618 1.463 . S
C615 C620 1.350 . S
C615 N623 1.427 . S
C616 H607 0.930 . S
C616 C614 1.378 . S
C616 C617 1.367 . S
C617 C616 1.367 . S
C617 C619 1.433 . S
C618 C614 1.350 . S
C618 C615 1.463 . S
C618 N622 1.427 . S
C619 H609 0.929 . S
C619 C617 1.433 . S
C619 N622 1.384 . S
C620 H611 0.929 . S
C620 C612 1.378 . S
C620 C615 1.350 . S
C621 H608 0.929 . S
C621 C613 1.433 . S
C621 N623 1.384 . S
N622 C618 1.427 . S
N622 C619 1.384 . S
N623 C615 1.427 . S
N623 C621 1.384 . S
H624 C630 0.930 . S
H625 C634 0.930 . S
H626 C639 0.929 . S
H627 C637 0.929 . S
H628 C632 0.929 . S
H629 C638 0.929 . S
C630 H624 0.930 . S
C630 C631 1.367 . S
C630 C638 1.378 . S
C631 C630 1.367 . S
C631 C639 1.433 . S
C632 H628 0.929 . S
C632 C634 1.378 . S
C632 C636 1.350 . S
C633 C636 1.463 . S
C633 C638 1.350 . S
C633 N641 1.427 . S
C634 H625 0.930 . S
C634 C632 1.378 . S
C634 C635 1.367 . S
C635 C634 1.367 . S
C635 C637 1.433 . S
C636 C632 1.350 . S
C636 C633 1.463 . S
C636 N640 1.427 . S
C637 H627 0.929 . S
C637 C635 1.433 . S
C637 N640 1.384 . S
C638 H629 0.929 . S
C638 C630 1.378 . S
C638 C633 1.350 . S
C639 H626 0.929 . S
C639 C631 1.433 . S
C639 N641 1.384 . S
N640 C636 1.427 . S
N640 C637 1.384 . S
N641 C633 1.427 . S
N641 C639 1.384 . S
H642 C648 0.930 . S
H643 C652 0.930 . S
H644 C657 0.929 . S
H645 C655 0.929 . S
H646 C650 0.929 . S
H647 C656 0.929 . S
C648 H642 0.930 . S
C648 C649 1.367 . S
C648 C656 1.378 . S
C649 C648 1.367 . S
C649 C657 1.433 . S
C650 H646 0.929 . S
C650 C652 1.378 . S
C650 C654 1.350 . S
C651 C654 1.463 . S
C651 C656 1.350 . S
C651 N659 1.427 . S
C652 H643 0.930 . S
C652 C650 1.378 . S
C652 C653 1.367 . S
C653 C652 1.367 . S
C653 C655 1.433 . S
C654 C650 1.350 . S
C654 C651 1.463 . S
C654 N658 1.427 . S
C655 H645 0.929 . S
C655 C653 1.433 . S
C655 N658 1.384 . S
C656 H647 0.929 . S
C656 C648 1.378 . S
C656 C651 1.350 . S
C657 H644 0.929 . S
C657 C649 1.433 . S
C657 N659 1.384 . S
N658 C654 1.427 . S
N658 C655 1.384 . S
N659 C651 1.427 . S
N659 C657 1.384 . S
H660 C666 0.930 . S
H661 C670 0.930 . S
H662 C675 0.929 . S
H663 C673 0.929 . S
H664 C668 0.929 . S
H665 C674 0.929 . S
C666 H660 0.930 . S
C666 C667 1.367 . S
C666 C674 1.378 . S
C667 C666 1.367 . S
C667 C675 1.433 . S
C668 H664 0.929 . S
C668 C670 1.378 . S
C668 C672 1.350 . S
C669 C672 1.463 . S
C669 C674 1.350 . S
C669 N677 1.427 . S
C670 H661 0.930 . S
C670 C668 1.378 . S
C670 C671 1.367 . S
C671 C670 1.367 . S
C671 C673 1.433 . S
C672 C668 1.350 . S
C672 C669 1.463 . S
C672 N676 1.427 . S
C673 H663 0.929 . S
C673 C671 1.433 . S
C673 N676 1.384 . S
C674 H665 0.929 . S
C674 C666 1.378 . S
C674 C669 1.350 . S
C675 H662 0.929 . S
C675 C667 1.433 . S
C675 N677 1.384 . S
N676 C672 1.427 . S
N676 C673 1.384 . S
N677 C669 1.427 . S
N677 C675 1.384 . S
H678 C684 0.930 . S
H679 C688 0.930 1_455 S
H680 C693 0.929 . S
H681 C691 0.929 . S
H682 C686 0.929 . S
H683 C692 0.929 . S
C684 H678 0.930 . S
C684 C685 1.367 . S
C684 C692 1.378 . S
C685 C684 1.367 . S
C685 C693 1.433 . S
C686 H682 0.929 . S
C686 C688 1.378 . S
C686 C690 1.350 . S
C687 C690 1.463 . S
C687 C692 1.350 . S
C687 N695 1.427 . S
C688 H679 0.930 1_655 S
C688 C686 1.378 . S
C688 C689 1.367 . S
C689 C688 1.367 . S
C689 C691 1.433 . S
C690 C686 1.350 . S
C690 C687 1.463 . S
C690 N694 1.427 . S
C691 H681 0.929 . S
C691 C689 1.433 . S
C691 N694 1.384 . S
C692 H683 0.929 . S
C692 C684 1.378 . S
C692 C687 1.350 . S
C693 H680 0.929 . S
C693 C685 1.433 . S
C693 N695 1.384 . S
N694 C690 1.427 . S
N694 C691 1.384 . S
N695 C687 1.427 . S
N695 C693 1.384 . S
H696 C702 0.930 . S
H697 C706 0.930 . S
H698 C711 0.929 . S
H699 C709 0.929 . S
H700 C704 0.929 . S
H701 C710 0.929 . S
C702 H696 0.930 . S
C702 C703 1.367 . S
C702 C710 1.378 . S
C703 C702 1.367 . S
C703 C711 1.433 . S
C704 H700 0.929 . S
C704 C706 1.378 . S
C704 C708 1.350 . S
C705 C708 1.463 . S
C705 C710 1.350 . S
C705 N713 1.427 . S
C706 H697 0.930 . S
C706 C704 1.378 . S
C706 C707 1.367 . S
C707 C706 1.367 . S
C707 C709 1.433 . S
C708 C704 1.350 . S
C708 C705 1.463 . S
C708 N712 1.427 . S
C709 H699 0.929 . S
C709 C707 1.433 . S
C709 N712 1.384 . S
C710 H701 0.929 . S
C710 C702 1.378 . S
C710 C705 1.350 . S
C711 H698 0.929 . S
C711 C703 1.433 . S
C711 N713 1.384 . S
N712 C708 1.427 . S
N712 C709 1.384 . S
N713 C705 1.427 . S
N713 C711 1.384 . S
H714 C720 0.930 . S
H715 C724 0.930 . S
H716 C729 0.929 . S
H717 C727 0.929 . S
H718 C722 0.929 . S
H719 C728 0.929 . S
C720 H714 0.930 . S
C720 C721 1.367 . S
C720 C728 1.378 . S
C721 C720 1.367 . S
C721 C729 1.433 . S
C722 H718 0.929 . S
C722 C724 1.378 . S
C722 C726 1.350 . S
C723 C726 1.463 . S
C723 C728 1.350 . S
C723 N731 1.427 . S
C724 H715 0.930 . S
C724 C722 1.378 . S
C724 C725 1.367 . S
C725 C724 1.367 . S
C725 C727 1.433 . S
C726 C722 1.350 . S
C726 C723 1.463 . S
C726 N730 1.427 . S
C727 H717 0.929 . S
C727 C725 1.433 . S
C727 N730 1.384 . S
C728 H719 0.929 . S
C728 C720 1.378 . S
C728 C723 1.350 . S
C729 H716 0.929 . S
C729 C721 1.433 . S
C729 N731 1.384 . S
N730 C726 1.427 . S
N730 C727 1.384 . S
N731 C723 1.427 . S
N731 C729 1.384 . S
H732 C738 0.930 . S
H733 C742 0.930 . S
H734 C747 0.929 . S
H735 C745 0.929 . S
H736 C740 0.929 . S
H737 C746 0.929 . S
C738 H732 0.930 . S
C738 C739 1.367 . S
C738 C746 1.378 . S
C739 C738 1.367 . S
C739 C747 1.433 . S
C740 H736 0.929 . S
C740 C742 1.378 . S
C740 C744 1.350 . S
C741 C744 1.463 . S
C741 C746 1.350 . S
C741 N749 1.427 . S
C742 H733 0.930 . S
C742 C740 1.378 . S
C742 C743 1.367 . S
C743 C742 1.367 . S
C743 C745 1.433 . S
C744 C740 1.350 . S
C744 C741 1.463 . S
C744 N748 1.427 . S
C745 H735 0.929 . S
C745 C743 1.433 . S
C745 N748 1.384 . S
C746 H737 0.929 . S
C746 C738 1.378 . S
C746 C741 1.350 . S
C747 H734 0.929 . S
C747 C739 1.433 . S
C747 N749 1.384 . S
N748 C744 1.427 . S
N748 C745 1.384 . S
N749 C741 1.427 . S
N749 C747 1.384 . S
H750 C756 0.930 . S
H751 C760 0.930 . S
H752 C765 0.929 . S
H753 C763 0.929 1_545 S
H754 C758 0.929 . S
H755 C764 0.929 . S
C756 H750 0.930 . S
C756 C757 1.367 . S
C756 C764 1.378 . S
C757 C756 1.367 . S
C757 C765 1.433 . S
C758 H754 0.929 . S
C758 C760 1.378 . S
C758 C762 1.350 . S
C759 C762 1.463 . S
C759 C764 1.350 . S
C759 N767 1.427 . S
C760 H751 0.930 . S
C760 C758 1.378 . S
C760 C761 1.367 . S
C761 C760 1.367 . S
C761 C763 1.433 . S
C762 C758 1.350 . S
C762 C759 1.463 . S
C762 N766 1.427 . S
C763 H753 0.929 1_565 S
C763 C761 1.433 . S
C763 N766 1.384 . S
C764 H755 0.929 . S
C764 C756 1.378 . S
C764 C759 1.350 . S
C765 H752 0.929 . S
C765 C757 1.433 . S
C765 N767 1.384 . S
N766 C762 1.427 . S
N766 C763 1.384 . S
N767 C759 1.427 . S
N767 C765 1.384 . S
H768 C774 0.930 . S
H769 C778 0.930 . S
H770 C783 0.929 1_545 S
H771 C781 0.929 . S
H772 C776 0.929 . S
H773 C782 0.929 . S
C774 H768 0.930 . S
C774 C775 1.367 . S
C774 C782 1.378 . S
C775 C774 1.367 . S
C775 C783 1.433 . S
C776 H772 0.929 . S
C776 C778 1.378 . S
C776 C780 1.350 . S
C777 C780 1.463 . S
C777 C782 1.350 . S
C777 N785 1.427 . S
C778 H769 0.930 . S
C778 C776 1.378 . S
C778 C779 1.367 . S
C779 C778 1.367 . S
C779 C781 1.433 . S
C780 C776 1.350 . S
C780 C777 1.463 . S
C780 N784 1.427 . S
C781 H771 0.929 . S
C781 C779 1.433 . S
C781 N784 1.384 . S
C782 H773 0.929 . S
C782 C774 1.378 . S
C782 C777 1.350 . S
C783 H770 0.929 1_565 S
C783 C775 1.433 . S
C783 N785 1.384 . S
N784 C780 1.427 . S
N784 C781 1.384 . S
N785 C777 1.427 . S
N785 C783 1.384 . S
H786 C792 0.930 . S
H787 C796 0.930 . S
H788 C801 0.929 . S
H789 C799 0.929 . S
H790 C794 0.929 . S
H791 C800 0.929 . S
C792 H786 0.930 . S
C792 C793 1.367 . S
C792 C800 1.378 . S
C793 C792 1.367 . S
C793 C801 1.433 . S
C794 H790 0.929 . S
C794 C796 1.378 . S
C794 C798 1.350 . S
C795 C798 1.463 . S
C795 C800 1.350 . S
C795 N803 1.427 . S
C796 H787 0.930 . S
C796 C794 1.378 . S
C796 C797 1.367 . S
C797 C796 1.367 . S
C797 C799 1.433 . S
C798 C794 1.350 . S
C798 C795 1.463 . S
C798 N802 1.427 . S
C799 H789 0.929 . S
C799 C797 1.433 . S
C799 N802 1.384 . S
C800 H791 0.929 . S
C800 C792 1.378 . S
C800 C795 1.350 . S
C801 H788 0.929 . S
C801 C793 1.433 . S
C801 N803 1.384 . S
N802 C798 1.427 . S
N802 C799 1.384 . S
N803 C795 1.427 . S
N803 C801 1.384 . S
H804 C810 0.930 . S
H805 C814 0.930 . S
H806 C819 0.929 . S
H807 C817 0.929 . S
H808 C812 0.929 . S
H809 C818 0.929 . S
C810 H804 0.930 . S
C810 C811 1.367 . S
C810 C818 1.378 . S
C811 C810 1.367 . S
C811 C819 1.433 . S
C812 H808 0.929 . S
C812 C814 1.378 . S
C812 C816 1.350 . S
C813 C816 1.463 . S
C813 C818 1.350 . S
C813 N821 1.427 . S
C814 H805 0.930 . S
C814 C812 1.378 . S
C814 C815 1.367 . S
C815 C814 1.367 . S
C815 C817 1.433 . S
C816 C812 1.350 . S
C816 C813 1.463 . S
C816 N820 1.427 . S
C817 H807 0.929 . S
C817 C815 1.433 . S
C817 N820 1.384 . S
C818 H809 0.929 . S
C818 C810 1.378 . S
C818 C813 1.350 . S
C819 H806 0.929 . S
C819 C811 1.433 . S
C819 N821 1.384 . S
N820 C816 1.427 . S
N820 C817 1.384 . S
N821 C813 1.427 . S
N821 C819 1.384 . S
H822 C828 0.930 . S
H823 C832 0.930 1_554 S
H824 C837 0.929 . S
H825 C835 0.929 . S
H826 C830 0.929 . S
H827 C836 0.929 . S
C828 H822 0.930 . S
C828 C829 1.367 . S
C828 C836 1.378 . S
C829 C828 1.367 . S
C829 C837 1.433 . S
C830 H826 0.929 . S
C830 C832 1.378 . S
C830 C834 1.350 . S
C831 C834 1.463 . S
C831 C836 1.350 . S
C831 N839 1.427 . S
C832 H823 0.930 1_556 S
C832 C830 1.378 . S
C832 C833 1.367 . S
C833 C832 1.367 . S
C833 C835 1.433 . S
C834 C830 1.350 . S
C834 C831 1.463 . S
C834 N838 1.427 . S
C835 H825 0.929 . S
C835 C833 1.433 . S
C835 N838 1.384 . S
C836 H827 0.929 . S
C836 C828 1.378 . S
C836 C831 1.350 . S
C837 H824 0.929 . S
C837 C829 1.433 . S
C837 N839 1.384 . S
N838 C834 1.427 . S
N838 C835 1.384 . S
N839 C831 1.427 . S
N839 C837 1.384 . S
H840 C846 0.930 . S
H841 C850 0.930 . S
H842 C855 0.929 . S
H843 C853 0.929 . S
H844 C848 0.929 . S
H845 C854 0.929 . S
C846 H840 0.930 . S
C846 C847 1.367 . S
C846 C854 1.378 . S
C847 C846 1.367 . S
C847 C855 1.433 . S
C848 H844 0.929 . S
C848 C850 1.378 . S
C848 C852 1.350 . S
C849 C852 1.463 . S
C849 C854 1.350 . S
C849 N857 1.427 . S
C850 H841 0.930 . S
C850 C848 1.378 . S
C850 C851 1.367 . S
C851 C850 1.367 . S
C851 C853 1.433 . S
C852 C848 1.350 . S
C852 C849 1.463 . S
C852 N856 1.427 . S
C853 H843 0.929 . S
C853 C851 1.433 . S
C853 N856 1.384 . S
C854 H845 0.929 . S
C854 C846 1.378 . S
C854 C849 1.350 . S
C855 H842 0.929 . S
C855 C847 1.433 . S
C855 N857 1.384 . S
N856 C852 1.427 . S
N856 C853 1.384 . S
N857 C849 1.427 . S
N857 C855 1.384 . S
H858 C864 0.930 . S
H859 C868 0.930 . S
H860 C873 0.929 . S
H861 C871 0.929 . S
H862 C866 0.929 . S
H863 C872 0.929 . S
C864 H858 0.930 . S
C864 C865 1.367 . S
C864 C872 1.378 . S
C865 C864 1.367 . S
C865 C873 1.433 . S
C866 H862 0.929 . S
C866 C868 1.378 . S
C866 C870 1.350 . S
C867 C870 1.463 . S
C867 C872 1.350 . S
C867 N875 1.427 . S
C868 H859 0.930 . S
C868 C866 1.378 . S
C868 C869 1.367 . S
C869 C868 1.367 . S
C869 C871 1.433 . S
C870 C866 1.350 . S
C870 C867 1.463 . S
C870 N874 1.427 . S
C871 H861 0.929 . S
C871 C869 1.433 . S
C871 N874 1.384 . S
C872 H863 0.929 . S
C872 C864 1.378 . S
C872 C867 1.350 . S
C873 H860 0.929 . S
C873 C865 1.433 . S
C873 N875 1.384 . S
N874 C870 1.427 . S
N874 C871 1.384 . S
N875 C867 1.427 . S
N875 C873 1.384 . S
H876 C882 0.930 . S
H877 C886 0.930 . S
H878 C891 0.929 . S
H879 C889 0.929 . S
H880 C884 0.929 . S
H881 C890 0.929 . S
C882 H876 0.930 . S
C882 C883 1.367 . S
C882 C890 1.378 . S
C883 C882 1.367 . S
C883 C891 1.433 . S
C884 H880 0.929 . S
C884 C886 1.378 . S
C884 C888 1.350 . S
C885 C888 1.463 . S
C885 C890 1.350 . S
C885 N893 1.427 . S
C886 H877 0.930 . S
C886 C884 1.378 . S
C886 C887 1.367 . S
C887 C886 1.367 . S
C887 C889 1.433 . S
C888 C884 1.350 . S
C888 C885 1.463 . S
C888 N892 1.427 . S
C889 H879 0.929 . S
C889 C887 1.433 . S
C889 N892 1.384 . S
C890 H881 0.929 . S
C890 C882 1.378 . S
C890 C885 1.350 . S
C891 H878 0.929 . S
C891 C883 1.433 . S
C891 N893 1.384 . S
N892 C888 1.427 . S
N892 C889 1.384 . S
N893 C885 1.427 . S
N893 C891 1.384 . S
H894 C900 0.930 . S
H895 C904 0.930 . S
H896 C909 0.929 . S
H897 C907 0.929 . S
H898 C902 0.929 . S
H899 C908 0.929 . S
C900 H894 0.930 . S
C900 C901 1.367 . S
C900 C908 1.378 . S
C901 C900 1.367 . S
C901 C909 1.433 . S
C902 H898 0.929 . S
C902 C904 1.378 . S
C902 C906 1.350 . S
C903 C906 1.463 . S
C903 C908 1.350 . S
C903 N911 1.427 . S
C904 H895 0.930 . S
C904 C902 1.378 . S
C904 C905 1.367 . S
C905 C904 1.367 . S
C905 C907 1.433 . S
C906 C902 1.350 . S
C906 C903 1.463 . S
C906 N910 1.427 . S
C907 H897 0.929 . S
C907 C905 1.433 . S
C907 N910 1.384 . S
C908 H899 0.929 . S
C908 C900 1.378 . S
C908 C903 1.350 . S
C909 H896 0.929 . S
C909 C901 1.433 . S
C909 N911 1.384 . S
N910 C906 1.427 . S
N910 C907 1.384 . S
N911 C903 1.427 . S
N911 C909 1.384 . S
H912 C918 0.930 . S
H913 C922 0.930 . S
H914 C927 0.929 . S
H915 C925 0.929 . S
H916 C920 0.929 . S
H917 C926 0.929 . S
C918 H912 0.930 . S
C918 C919 1.367 . S
C918 C926 1.378 . S
C919 C918 1.367 . S
C919 C927 1.433 . S
C920 H916 0.929 . S
C920 C922 1.378 . S
C920 C924 1.350 . S
C921 C924 1.463 . S
C921 C926 1.350 . S
C921 N929 1.427 . S
C922 H913 0.930 . S
C922 C920 1.378 . S
C922 C923 1.367 . S
C923 C922 1.367 . S
C923 C925 1.433 . S
C924 C920 1.350 . S
C924 C921 1.463 . S
C924 N928 1.427 . S
C925 H915 0.929 . S
C925 C923 1.433 . S
C925 N928 1.384 . S
C926 H917 0.929 . S
C926 C918 1.378 . S
C926 C921 1.350 . S
C927 H914 0.929 . S
C927 C919 1.433 . S
C927 N929 1.384 . S
N928 C924 1.427 . S
N928 C925 1.384 . S
N929 C921 1.427 . S
N929 C927 1.384 . S
H930 C936 0.930 . S
H931 C940 0.930 . S
H932 C945 0.929 . S
H933 C943 0.929 . S
H934 C938 0.929 . S
H935 C944 0.929 . S
C936 H930 0.930 . S
C936 C937 1.367 . S
C936 C944 1.378 . S
C937 C936 1.367 . S
C937 C945 1.433 . S
C938 H934 0.929 . S
C938 C940 1.378 . S
C938 C942 1.350 . S
C939 C942 1.463 . S
C939 C944 1.350 . S
C939 N947 1.427 . S
C940 H931 0.930 . S
C940 C938 1.378 . S
C940 C941 1.367 . S
C941 C940 1.367 . S
C941 C943 1.433 . S
C942 C938 1.350 . S
C942 C939 1.463 . S
C942 N946 1.427 . S
C943 H933 0.929 . S
C943 C941 1.433 . S
C943 N946 1.384 . S
C944 H935 0.929 . S
C944 C936 1.378 . S
C944 C939 1.350 . S
C945 H932 0.929 . S
C945 C937 1.433 . S
C945 N947 1.384 . S
N946 C942 1.427 . S
N946 C943 1.384 . S
N947 C939 1.427 . S
N947 C945 1.384 . S
H948 C954 0.930 . S
H949 C958 0.930 . S
H950 C963 0.929 . S
H951 C961 0.929 . S
H952 C956 0.929 . S
H953 C962 0.929 . S
C954 H948 0.930 . S
C954 C955 1.367 . S
C954 C962 1.378 . S
C955 C954 1.367 . S
C955 C963 1.433 . S
C956 H952 0.929 . S
C956 C958 1.378 . S
C956 C960 1.350 . S
C957 C960 1.463 . S
C957 C962 1.350 . S
C957 N965 1.427 . S
C958 H949 0.930 . S
C958 C956 1.378 . S
C958 C959 1.367 . S
C959 C958 1.367 . S
C959 C961 1.433 . S
C960 C956 1.350 . S
C960 C957 1.463 . S
C960 N964 1.427 . S
C961 H951 0.929 . S
C961 C959 1.433 . S
C961 N964 1.384 . S
C962 H953 0.929 . S
C962 C954 1.378 . S
C962 C957 1.350 . S
C963 H950 0.929 . S
C963 C955 1.433 . S
C963 N965 1.384 . S
N964 C960 1.427 . S
N964 C961 1.384 . S
N965 C957 1.427 . S
N965 C963 1.384 . S
H966 C972 0.930 . S
H967 C976 0.930 . S
H968 C981 0.929 . S
H969 C979 0.929 . S
H970 C974 0.929 . S
H971 C980 0.929 . S
C972 H966 0.930 . S
C972 C973 1.367 . S
C972 C980 1.378 . S
C973 C972 1.367 . S
C973 C981 1.433 . S
C974 H970 0.929 . S
C974 C976 1.378 . S
C974 C978 1.350 . S
C975 C978 1.463 . S
C975 C980 1.350 . S
C975 N983 1.427 . S
C976 H967 0.930 . S
C976 C974 1.378 . S
C976 C977 1.367 . S
C977 C976 1.367 . S
C977 C979 1.433 . S
C978 C974 1.350 . S
C978 C975 1.463 . S
C978 N982 1.427 . S
C979 H969 0.929 . S
C979 C977 1.433 . S
C979 N982 1.384 . S
C980 H971 0.929 . S
C980 C972 1.378 . S
C980 C975 1.350 . S
C981 H968 0.929 . S
C981 C973 1.433 . S
C981 N983 1.384 . S
N982 C978 1.427 . S
N982 C979 1.384 . S
N983 C975 1.427 . S
N983 C981 1.384 . S
H984 C990 0.930 . S
H985 C994 0.930 . S
H986 C999 0.929 . S
H987 C997 0.929 . S
H988 C992 0.929 . S
H989 C998 0.929 . S
C990 H984 0.930 . S
C990 C991 1.367 . S
C990 C998 1.378 . S
C991 C990 1.367 . S
C991 C999 1.433 . S
C992 H988 0.929 . S
C992 C994 1.378 . S
C992 C996 1.350 . S
C993 C996 1.463 . S
C993 C998 1.350 . S
C993 N1001 1.427 . S
C994 H985 0.930 . S
C994 C992 1.378 . S
C994 C995 1.367 . S
C995 C994 1.367 . S
C995 C997 1.433 . S
C996 C992 1.350 . S
C996 C993 1.463 . S
C996 N1000 1.427 . S
C997 H987 0.929 . S
C997 C995 1.433 . S
C997 N1000 1.384 . S
C998 H989 0.929 . S
C998 C990 1.378 . S
C998 C993 1.350 . S
C999 H986 0.929 . S
C999 C991 1.433 . S
C999 N1001 1.384 . S
N1000 C996 1.427 . S
N1000 C997 1.384 . S
N1001 C993 1.427 . S
N1001 C999 1.384 . S
H1002 C1008 0.930 . S
H1003 C1012 0.930 . S
H1004 C1017 0.929 . S
H1005 C1015 0.929 . S
H1006 C1010 0.929 . S
H1007 C1016 0.929 . S
C1008 H1002 0.930 . S
C1008 C1009 1.367 . S
C1008 C1016 1.378 . S
C1009 C1008 1.367 . S
C1009 C1017 1.433 . S
C1010 H1006 0.929 . S
C1010 C1012 1.378 . S
C1010 C1014 1.350 . S
C1011 C1014 1.463 . S
C1011 C1016 1.350 . S
C1011 N1019 1.427 . S
C1012 H1003 0.930 . S
C1012 C1010 1.378 . S
C1012 C1013 1.367 . S
C1013 C1012 1.367 . S
C1013 C1015 1.433 . S
C1014 C1010 1.350 . S
C1014 C1011 1.463 . S
C1014 N1018 1.427 . S
C1015 H1005 0.929 . S
C1015 C1013 1.433 . S
C1015 N1018 1.384 . S
C1016 H1007 0.929 . S
C1016 C1008 1.378 . S
C1016 C1011 1.350 . S
C1017 H1004 0.929 . S
C1017 C1009 1.433 . S
C1017 N1019 1.384 . S
N1018 C1014 1.427 . S
N1018 C1015 1.384 . S
N1019 C1011 1.427 . S
N1019 C1017 1.384 . S
H1020 C1026 0.930 . S
H1021 C1030 0.930 . S
H1022 C1035 0.929 . S
H1023 C1033 0.929 . S
H1024 C1028 0.929 . S
H1025 C1034 0.929 . S
C1026 H1020 0.930 . S
C1026 C1027 1.367 . S
C1026 C1034 1.378 . S
C1027 C1026 1.367 . S
C1027 C1035 1.433 . S
C1028 H1024 0.929 . S
C1028 C1030 1.378 . S
C1028 C1032 1.350 . S
C1029 C1032 1.463 . S
C1029 C1034 1.350 . S
C1029 N1037 1.427 . S
C1030 H1021 0.930 . S
C1030 C1028 1.378 . S
C1030 C1031 1.367 . S
C1031 C1030 1.367 . S
C1031 C1033 1.433 . S
C1032 C1028 1.350 . S
C1032 C1029 1.463 . S
C1032 N1036 1.427 . S
C1033 H1023 0.929 . S
C1033 C1031 1.433 . S
C1033 N1036 1.384 . S
C1034 H1025 0.929 . S
C1034 C1026 1.378 . S
C1034 C1029 1.350 . S
C1035 H1022 0.929 . S
C1035 C1027 1.433 . S
C1035 N1037 1.384 . S
N1036 C1032 1.427 . S
N1036 C1033 1.384 . S
N1037 C1029 1.427 . S
N1037 C1035 1.384 . S
H1038 C1044 0.930 . S
H1039 C1048 0.930 . S
H1040 C1053 0.929 . S
H1041 C1051 0.929 . S
H1042 C1046 0.929 . S
H1043 C1052 0.929 . S
C1044 H1038 0.930 . S
C1044 C1045 1.367 . S
C1044 C1052 1.378 . S
C1045 C1044 1.367 . S
C1045 C1053 1.433 . S
C1046 H1042 0.929 . S
C1046 C1048 1.378 . S
C1046 C1050 1.350 . S
C1047 C1050 1.463 . S
C1047 C1052 1.350 . S
C1047 N1055 1.427 . S
C1048 H1039 0.930 . S
C1048 C1046 1.378 . S
C1048 C1049 1.367 . S
C1049 C1048 1.367 . S
C1049 C1051 1.433 . S
C1050 C1046 1.350 . S
C1050 C1047 1.463 . S
C1050 N1054 1.427 . S
C1051 H1041 0.929 . S
C1051 C1049 1.433 . S
C1051 N1054 1.384 . S
C1052 H1043 0.929 . S
C1052 C1044 1.378 . S
C1052 C1047 1.350 . S
C1053 H1040 0.929 . S
C1053 C1045 1.433 . S
C1053 N1055 1.384 . S
N1054 C1050 1.427 . S
N1054 C1051 1.384 . S
N1055 C1047 1.427 . S
N1055 C1053 1.384 . S
H1056 C1062 0.930 . S
H1057 C1066 0.930 . S
H1058 C1071 0.929 . S
H1059 C1069 0.929 . S
H1060 C1064 0.929 . S
H1061 C1070 0.929 . S
C1062 H1056 0.930 . S
C1062 C1063 1.367 . S
C1062 C1070 1.378 . S
C1063 C1062 1.367 . S
C1063 C1071 1.433 . S
C1064 H1060 0.929 . S
C1064 C1066 1.378 . S
C1064 C1068 1.350 . S
C1065 C1068 1.463 . S
C1065 C1070 1.350 . S
C1065 N1073 1.427 . S
C1066 H1057 0.930 . S
C1066 C1064 1.378 . S
C1066 C1067 1.367 . S
C1067 C1066 1.367 . S
C1067 C1069 1.433 . S
C1068 C1064 1.350 . S
C1068 C1065 1.463 . S
C1068 N1072 1.427 . S
C1069 H1059 0.929 . S
C1069 C1067 1.433 . S
C1069 N1072 1.384 . S
C1070 H1061 0.929 . S
C1070 C1062 1.378 . S
C1070 C1065 1.350 . S
C1071 H1058 0.929 . S
C1071 C1063 1.433 . S
C1071 N1073 1.384 . S
N1072 C1068 1.427 . S
N1072 C1069 1.384 . S
N1073 C1065 1.427 . S
N1073 C1071 1.384 . S
H1074 C1080 0.930 . S
H1075 C1084 0.930 . S
H1076 C1089 0.929 . S
H1077 C1087 0.929 . S
H1078 C1082 0.929 . S
H1079 C1088 0.929 . S
C1080 H1074 0.930 . S
C1080 C1081 1.367 . S
C1080 C1088 1.378 . S
C1081 C1080 1.367 . S
C1081 C1089 1.433 . S
C1082 H1078 0.929 . S
C1082 C1084 1.378 . S
C1082 C1086 1.350 . S
C1083 C1086 1.463 . S
C1083 C1088 1.350 . S
C1083 N1091 1.427 . S
C1084 H1075 0.930 . S
C1084 C1082 1.378 . S
C1084 C1085 1.367 . S
C1085 C1084 1.367 . S
C1085 C1087 1.433 . S
C1086 C1082 1.350 . S
C1086 C1083 1.463 . S
C1086 N1090 1.427 . S
C1087 H1077 0.929 . S
C1087 C1085 1.433 . S
C1087 N1090 1.384 . S
C1088 H1079 0.929 . S
C1088 C1080 1.378 . S
C1088 C1083 1.350 . S
C1089 H1076 0.929 . S
C1089 C1081 1.433 . S
C1089 N1091 1.384 . S
N1090 C1086 1.427 . S
N1090 C1087 1.384 . S
N1091 C1083 1.427 . S
N1091 C1089 1.384 . S
H1092 C1098 0.930 . S
H1093 C1102 0.930 . S
H1094 C1107 0.929 . S
H1095 C1105 0.929 . S
H1096 C1100 0.929 . S
H1097 C1106 0.929 . S
C1098 H1092 0.930 . S
C1098 C1099 1.367 . S
C1098 C1106 1.378 . S
C1099 C1098 1.367 . S
C1099 C1107 1.433 . S
C1100 H1096 0.929 . S
C1100 C1102 1.378 . S
C1100 C1104 1.350 . S
C1101 C1104 1.463 . S
C1101 C1106 1.350 . S
C1101 N1109 1.427 . S
C1102 H1093 0.930 . S
C1102 C1100 1.378 . S
C1102 C1103 1.367 . S
C1103 C1102 1.367 . S
C1103 C1105 1.433 . S
C1104 C1100 1.350 . S
C1104 C1101 1.463 . S
C1104 N1108 1.427 . S
C1105 H1095 0.929 . S
C1105 C1103 1.433 . S
C1105 N1108 1.384 . S
C1106 H1097 0.929 . S
C1106 C1098 1.378 . S
C1106 C1101 1.350 . S
C1107 H1094 0.929 . S
C1107 C1099 1.433 . S
C1107 N1109 1.384 . S
N1108 C1104 1.427 . S
N1108 C1105 1.384 . S
N1109 C1101 1.427 . S
N1109 C1107 1.384 . S
H1110 C1116 0.930 . S
H1111 C1120 0.930 . S
H1112 C1125 0.929 . S
H1113 C1123 0.929 . S
H1114 C1118 0.929 . S
H1115 C1124 0.929 . S
C1116 H1110 0.930 . S
C1116 C1117 1.367 . S
C1116 C1124 1.378 . S
C1117 C1116 1.367 . S
C1117 C1125 1.433 . S
C1118 H1114 0.929 . S
C1118 C1120 1.378 . S
C1118 C1122 1.350 . S
C1119 C1122 1.463 . S
C1119 C1124 1.350 . S
C1119 N1127 1.427 . S
C1120 H1111 0.930 . S
C1120 C1118 1.378 . S
C1120 C1121 1.367 . S
C1121 C1120 1.367 . S
C1121 C1123 1.433 . S
C1122 C1118 1.350 . S
C1122 C1119 1.463 . S
C1122 N1126 1.427 . S
C1123 H1113 0.929 . S
C1123 C1121 1.433 . S
C1123 N1126 1.384 . S
C1124 H1115 0.929 . S
C1124 C1116 1.378 . S
C1124 C1119 1.350 . S
C1125 H1112 0.929 . S
C1125 C1117 1.433 . S
C1125 N1127 1.384 . S
N1126 C1122 1.427 . S
N1126 C1123 1.384 . S
N1127 C1119 1.427 . S
N1127 C1125 1.384 . S
H1128 C1134 0.930 . S
H1129 C1138 0.930 . S
H1130 C1143 0.929 . S
H1131 C1141 0.929 . S
H1132 C1136 0.929 . S
H1133 C1142 0.929 . S
C1134 H1128 0.930 . S
C1134 C1135 1.367 . S
C1134 C1142 1.378 . S
C1135 C1134 1.367 . S
C1135 C1143 1.433 . S
C1136 H1132 0.929 . S
C1136 C1138 1.378 . S
C1136 C1140 1.350 . S
C1137 C1140 1.463 . S
C1137 C1142 1.350 . S
C1137 N1145 1.427 . S
C1138 H1129 0.930 . S
C1138 C1136 1.378 . S
C1138 C1139 1.367 . S
C1139 C1138 1.367 . S
C1139 C1141 1.433 . S
C1140 C1136 1.350 . S
C1140 C1137 1.463 . S
C1140 N1144 1.427 . S
C1141 H1131 0.929 . S
C1141 C1139 1.433 . S
C1141 N1144 1.384 . S
C1142 H1133 0.929 . S
C1142 C1134 1.378 . S
C1142 C1137 1.350 . S
C1143 H1130 0.929 . S
C1143 C1135 1.433 . S
C1143 N1145 1.384 . S
N1144 C1140 1.427 . S
N1144 C1141 1.384 . S
N1145 C1137 1.427 . S
N1145 C1143 1.384 . S
H1146 C1152 0.930 . S
H1147 C1156 0.930 . S
H1148 C1161 0.929 . S
H1149 C1159 0.929 . S
H1150 C1154 0.929 . S
H1151 C1160 0.929 . S
C1152 H1146 0.930 . S
C1152 C1153 1.367 . S
C1152 C1160 1.378 . S
C1153 C1152 1.367 . S
C1153 C1161 1.433 . S
C1154 H1150 0.929 . S
C1154 C1156 1.378 . S
C1154 C1158 1.350 . S
C1155 C1158 1.463 . S
C1155 C1160 1.350 . S
C1155 N1163 1.427 . S
C1156 H1147 0.930 . S
C1156 C1154 1.378 . S
C1156 C1157 1.367 . S
C1157 C1156 1.367 . S
C1157 C1159 1.433 . S
C1158 C1154 1.350 . S
C1158 C1155 1.463 . S
C1158 N1162 1.427 . S
C1159 H1149 0.929 . S
C1159 C1157 1.433 . S
C1159 N1162 1.384 . S
C1160 H1151 0.929 . S
C1160 C1152 1.378 . S
C1160 C1155 1.350 . S
C1161 H1148 0.929 . S
C1161 C1153 1.433 . S
C1161 N1163 1.384 . S
N1162 C1158 1.427 . S
N1162 C1159 1.384 . S
N1163 C1155 1.427 . S
N1163 C1161 1.384 . S
H1164 C1170 0.930 . S
H1165 C1174 0.930 . S
H1166 C1179 0.929 . S
H1167 C1177 0.929 . S
H1168 C1172 0.929 . S
H1169 C1178 0.929 . S
C1170 H1164 0.930 . S
C1170 C1171 1.367 . S
C1170 C1178 1.378 . S
C1171 C1170 1.367 . S
C1171 C1179 1.433 . S
C1172 H1168 0.929 . S
C1172 C1174 1.378 . S
C1172 C1176 1.350 . S
C1173 C1176 1.463 . S
C1173 C1178 1.350 . S
C1173 N1181 1.427 . S
C1174 H1165 0.930 . S
C1174 C1172 1.378 . S
C1174 C1175 1.367 . S
C1175 C1174 1.367 . S
C1175 C1177 1.433 . S
C1176 C1172 1.350 . S
C1176 C1173 1.463 . S
C1176 N1180 1.427 . S
C1177 H1167 0.929 . S
C1177 C1175 1.433 . S
C1177 N1180 1.384 . S
C1178 H1169 0.929 . S
C1178 C1170 1.378 . S
C1178 C1173 1.350 . S
C1179 H1166 0.929 . S
C1179 C1171 1.433 . S
C1179 N1181 1.384 . S
N1180 C1176 1.427 . S
N1180 C1177 1.384 . S
N1181 C1173 1.427 . S
N1181 C1179 1.384 . S
H1182 C1188 0.930 . S
H1183 C1192 0.930 . S
H1184 C1197 0.929 . S
H1185 C1195 0.929 . S
H1186 C1190 0.929 . S
H1187 C1196 0.929 . S
C1188 H1182 0.930 . S
C1188 C1189 1.367 . S
C1188 C1196 1.378 . S
C1189 C1188 1.367 . S
C1189 C1197 1.433 . S
C1190 H1186 0.929 . S
C1190 C1192 1.378 . S
C1190 C1194 1.350 . S
C1191 C1194 1.463 . S
C1191 C1196 1.350 . S
C1191 N1199 1.427 . S
C1192 H1183 0.930 . S
C1192 C1190 1.378 . S
C1192 C1193 1.367 . S
C1193 C1192 1.367 . S
C1193 C1195 1.433 . S
C1194 C1190 1.350 . S
C1194 C1191 1.463 . S
C1194 N1198 1.427 . S
C1195 H1185 0.929 . S
C1195 C1193 1.433 . S
C1195 N1198 1.384 . S
C1196 H1187 0.929 . S
C1196 C1188 1.378 . S
C1196 C1191 1.350 . S
C1197 H1184 0.929 . S
C1197 C1189 1.433 . S
C1197 N1199 1.384 . S
N1198 C1194 1.427 . S
N1198 C1195 1.384 . S
N1199 C1191 1.427 . S
N1199 C1197 1.384 . S
C343 C203 1.466 . S
C347 C6 1.450 . S
C361 C21 1.463 . S
C365 C216 1.450 . S
C379 C261 1.685 . S
C383 C37 1.692 . S
C397 C50 2.102 . S
C401 C190 2.098 . S
C415 C204 2.096 . S
C419 C64 2.102 . S
C433 C79 1.691 . S
C437 C219 1.685 . S
C451 C91 1.465 . S
C455 C258 1.443 . S
C469 C104 1.445 . S
C473 C189 1.458 . S
C487 C133 1.458 . S
C491 C118 1.442 . S
C505 C148 2.101 . S
C509 C134 2.098 . S
C523 C147 1.466 . S
C527 C160 1.446 . S
C541 C163 1.692 . S
C545 C121 1.685 . S
C559 C174 1.450 . S
C563 C49 1.466 . S
C577 C63 1.459 . S
C581 C230 1.446 . S
C595 C246 2.098 . S
C599 C22 2.101 . S
C613 C20 1.577 . S
C617 C302 1.592 . S
C631 C132 1.568 . S
C635 C8 1.595 . S
C649 C331 1.738 . S
C653 C51 1.738 . S
C667 C161 0.922 . S
C671 C35 0.936 . S
C685 C301 0.935 . S
C689 C105 0.930 . S
C703 C135 1.738 . S
C707 C93 1.739 . S
C721 C78 1.592 . S
C725 C328 1.577 . S
C739 C62 1.578 . S
C743 C162 1.594 . S
C757 C218 1.597 . S
C761 C272 1.573 . S
C775 C231 0.930 . S
C779 C217 0.924 . S
C793 C188 1.574 . S
C797 C232 1.597 . S
C811 C275 1.744 . S
C815 C191 1.745 . S
C829 C36 1.591 . S
C833 C286 1.569 . S
C847 C146 1.567 . S
C851 C106 1.595 . S
C865 C7 0.933 . S
C869 C315 0.932 . S
C883 C273 1.458 . S
C887 C34 1.444 . S
C901 C9 1.691 . S
C905 C233 1.689 . S
C919 C274 2.098 . S
C923 C92 2.101 . S
C937 C177 1.690 . S
C941 C107 1.690 . S
C955 C76 1.442 . S
C959 C245 1.464 . S
C973 C300 1.446 . S
C977 C287 1.466 . S
C991 C330 2.100 . S
C995 C288 2.100 . S
C1009 C314 1.450 . S
C1013 C329 1.465 . S
C1027 C303 1.691 . S
C1031 C317 1.689 . S
C1045 C120 1.594 . S
C1049 C48 1.578 . S
C1063 C23 1.736 . S
C1067 C149 1.736 . S
C1081 C77 0.924 . S
C1085 C119 0.937 . S
C1099 C289 1.738 . S
C1103 C65 1.738 . S
C1117 C90 1.578 . S
C1121 C316 1.594 . S
C1135 C176 1.591 . S
C1139 C202 1.575 . S
C1153 C259 0.924 . S
C1157 C175 0.930 . S
C1171 C244 1.568 . S
C1175 C260 1.595 . S
C1189 C205 1.741 . S
C1193 C247 1.742 . S
