# Generated by pormake.
# Topology xfw, (5)-cn, num edge types: 1
# Building blocks:
#     Node 0, Type 0, BuildingBlock: XOMCOT_clean_sbu_0, # of connection points: 5
#     Node 1, Type 0, BuildingBlock: XOMCOT_clean_sbu_0, # of connection points: 5
#     Node 2, Type 0, BuildingBlock: XOMCOT_clean_sbu_0, # of connection points: 5
#     Node 3, Type 0, BuildingBlock: XOMCOT_clean_sbu_0, # of connection points: 5
#     Node 4, Type 0, BuildingBlock: XOMCOT_clean_sbu_0, # of connection points: 5
#     Node 5, Type 0, BuildingBlock: XOMCOT_clean_sbu_0, # of connection points: 5
#     Node 6, Type 0, BuildingBlock: XOMCOT_clean_sbu_0, # of connection points: 5
#     Node 7, Type 0, BuildingBlock: XOMCOT_clean_sbu_0, # of connection points: 5
#     Edge 8, Type (0, 0), BuildingBlock: UVAHIK_clean_linker_0, # of connection points: 2
#     Edge 9, Type (0, 0), BuildingBlock: UVAHIK_clean_linker_0, # of connection points: 2
#     Edge 10, Type (0, 0), BuildingBlock: UVAHIK_clean_linker_0, # of connection points: 2
#     Edge 11, Type (0, 0), BuildingBlock: UVAHIK_clean_linker_0, # of connection points: 2
#     Edge 12, Type (0, 0), BuildingBlock: UVAHIK_clean_linker_0, # of connection points: 2
#     Edge 13, Type (0, 0), BuildingBlock: UVAHIK_clean_linker_0, # of connection points: 2
#     Edge 14, Type (0, 0), BuildingBlock: UVAHIK_clean_linker_0, # of connection points: 2
#     Edge 15, Type (0, 0), BuildingBlock: UVAHIK_clean_linker_0, # of connection points: 2
#     Edge 16, Type (0, 0), BuildingBlock: UVAHIK_clean_linker_0, # of connection points: 2
#     Edge 17, Type (0, 0), BuildingBlock: UVAHIK_clean_linker_0, # of connection points: 2
#     Edge 18, Type (0, 0), BuildingBlock: UVAHIK_clean_linker_0, # of connection points: 2
#     Edge 19, Type (0, 0), BuildingBlock: UVAHIK_clean_linker_0, # of connection points: 2
#     Edge 20, Type (0, 0), BuildingBlock: UVAHIK_clean_linker_0, # of connection points: 2
#     Edge 21, Type (0, 0), BuildingBlock: UVAHIK_clean_linker_0, # of connection points: 2
#     Edge 22, Type (0, 0), BuildingBlock: UVAHIK_clean_linker_0, # of connection points: 2
#     Edge 23, Type (0, 0), BuildingBlock: UVAHIK_clean_linker_0, # of connection points: 2
#     Edge 24, Type (0, 0), BuildingBlock: UVAHIK_clean_linker_0, # of connection points: 2
#     Edge 25, Type (0, 0), BuildingBlock: UVAHIK_clean_linker_0, # of connection points: 2
#     Edge 26, Type (0, 0), BuildingBlock: UVAHIK_clean_linker_0, # of connection points: 2
#     Edge 27, Type (0, 0), BuildingBlock: UVAHIK_clean_linker_0, # of connection points: 2
# Relax obj value: 0.388
# Max RMSD: 0.286
# Mean RMSD: 0.286
data_MOF--net-xfw--node1-XOMCOT_clean_sbu_0--edge1-UVAHIK_clean_linker_0
_symmetry_space_group_name_H-M    P1
_symmetry_Int_Tables_number       1
_symmetry_cell_setting            triclinic
loop_
_symmetry_equiv_pos_as_xyz
'x, y, z'
_cell_length_a     37.311582
_cell_length_b     37.250011
_cell_length_c     73.320257
_cell_angle_alpha  89.968578
_cell_angle_beta   90.002145
_cell_angle_gamma 89.984958
loop_
_atom_site_label
_atom_site_type_symbol
_atom_site_fract_x
_atom_site_fract_y
_atom_site_fract_z
_atom_type_partial_charge
Co0 Co 0.20023 0.06806 0.61686 0.0
C1 C 0.20213 0.11925 0.64694 0.0
C2 C 0.17029 0.13962 0.62486 0.0
C3 C 0.16707 0.16259 0.63955 0.0
N4 N 0.19217 0.11247 0.62963 0.0
N5 N 0.18703 0.14956 0.65343 0.0
H6 H 0.21781 0.10077 0.65508 0.0
H7 H 0.15603 0.14146 0.61205 0.0
C8 C 0.21556 0.08853 0.5782 0.0
O9 O 0.24266 0.06597 0.57831 0.0
N10 N 0.20741 0.02282 0.60407 0.0
C11 C 0.2292 0.99506 0.60819 0.0
C12 C 0.22504 0.96869 0.59523 0.0
C13 C 0.18929 0.01213 0.58906 0.0
N14 N 0.20011 0.97956 0.58311 0.0
C15 C 0.26957 0.05576 0.63179 0.0
C16 C 0.30591 0.10676 0.61162 0.0
C17 C 0.32526 0.08302 0.62267 0.0
C18 C 0.30652 0.05835 0.63344 0.0
C19 C 0.26863 0.10363 0.61069 0.0
N20 N 0.2514 0.07613 0.61941 0.0
H21 H 0.25576 0.03654 0.64022 0.0
H22 H 0.25391 0.12302 0.60274 0.0
H23 H 0.24663 0.99322 0.61984 0.0
H24 H 0.16929 0.02849 0.58234 0.0
O25 O 0.19174 0.04232 0.63934 0.0
O26 O 0.15014 0.05655 0.61888 0.0
O27 O 0.19749 0.09404 0.59275 0.0
C28 C 0.15834 0.04182 0.63441 0.0
H29 H 0.15012 0.18613 0.6402 0.0
H30 H 0.23908 0.94327 0.59491 0.0
H31 H 0.31948 0.12709 0.60362 0.0
H32 H 0.3204 0.0399 0.64242 0.0
Co33 Co 0.04199 0.80465 0.38417 0.0
C34 C 0.09475 0.801 0.35424 0.0
C35 C 0.10948 0.84049 0.37399 0.0
C36 C 0.13145 0.84425 0.35899 0.0
N37 N 0.0867 0.81291 0.37115 0.0
N38 N 0.12179 0.8196 0.34647 0.0
H39 H 0.07907 0.78146 0.347 0.0
H40 H 0.1081 0.85884 0.38539 0.0
C41 C 0.09592 0.81163 0.41446 0.0
O42 O 0.11773 0.79023 0.40552 0.0
N43 N -0.00281 0.79722 0.39667 0.0
C44 C 0.97118 0.77405 0.39188 0.0
C45 C 0.94399 0.77622 0.40452 0.0
C46 C 0.9856 0.81329 0.41201 0.0
N47 N 0.95312 0.80085 0.41721 0.0
C48 C 0.05158 0.73125 0.37333 0.0
C49 C 0.05478 0.7033 0.40821 0.0
C50 C 0.05382 0.67967 0.39337 0.0
C51 C 0.05273 0.69413 0.37574 0.0
C52 C 0.05341 0.74023 0.4052 0.0
N53 N 0.05258 0.754 0.3879 0.0
H54 H 0.04694 0.74128 0.3598 0.0
H55 H 0.05058 0.75745 0.41692 0.0
H56 H 0.97208 0.7566 0.3801 0.0
H57 H 0.001 0.83311 0.41938 0.0
O58 O 0.01717 0.80209 0.36091 0.0
O59 O 0.02634 0.85166 0.37713 0.0
O60 O 0.06503 0.81902 0.40795 0.0
C61 C 0.01331 0.83665 0.36257 0.0
H62 H 0.15066 0.8656 0.35683 0.0
H63 H 0.91938 0.76089 0.40426 0.0
H64 H 0.05506 0.69337 0.4221 0.0
H65 H 0.05033 0.67694 0.36389 0.0
Co66 Co 0.7943 0.93715 0.61957 0.0
C67 C 0.78921 0.88866 0.65063 0.0
C68 C 0.82263 0.866 0.6298 0.0
C69 C 0.8244 0.84442 0.6451 0.0
N70 N 0.8006 0.89368 0.63341 0.0
N71 N 0.80361 0.85899 0.65826 0.0
H72 H 0.77213 0.90756 0.65766 0.0
H73 H 0.83807 0.86297 0.61741 0.0
C74 C 0.77914 0.91348 0.58128 0.0
O75 O 0.75306 0.93714 0.58037 0.0
N76 N 0.7888 0.98148 0.60578 0.0
C77 C 0.76866 0.01056 0.60968 0.0
C78 C 0.77382 0.03604 0.59636 0.0
C79 C 0.80701 0.99045 0.5905 0.0
N80 N 0.79775 0.02329 0.5842 0.0
C81 C 0.72566 0.95333 0.63431 0.0
C82 C 0.68662 0.90387 0.61451 0.0
C83 C 0.6686 0.92911 0.62528 0.0
C84 C 0.68864 0.95294 0.63589 0.0
C85 C 0.72406 0.90472 0.6137 0.0
N86 N 0.74277 0.93146 0.62221 0.0
H87 H 0.74041 0.97215 0.64256 0.0
H88 H 0.73768 0.8842 0.60599 0.0
H89 H 0.7519 0.01396 0.6215 0.0
H90 H 0.8261 0.97283 0.58394 0.0
O91 O 0.8038 0.9645 0.64145 0.0
O92 O 0.84479 0.94687 0.62137 0.0
O93 O 0.79628 0.90882 0.59619 0.0
C94 C 0.83718 0.9633 0.63652 0.0
H95 H 0.8416 0.82126 0.64676 0.0
H96 H 0.76128 0.06222 0.59589 0.0
H97 H 0.67194 0.88418 0.60663 0.0
H98 H 0.67578 0.97254 0.64463 0.0
Co99 Co 0.95012 0.18209 0.38064 0.0
C100 C 0.89191 0.19261 0.35385 0.0
C101 C 0.87571 0.15755 0.37541 0.0
C102 C 0.84976 0.15696 0.36204 0.0
N103 N 0.90199 0.18046 0.37044 0.0
N104 N 0.86016 0.17898 0.34845 0.0
H105 H 0.90924 0.20733 0.34479 0.0
H106 H 0.87669 0.13998 0.38714 0.0
C107 C 0.90323 0.18464 0.41402 0.0
O108 O 0.88337 0.2094 0.4062 0.0
N109 N -0.00189 0.18295 0.39039 0.0
C110 C 0.02615 0.20128 0.38354 0.0
C111 C 0.05473 0.19766 0.39527 0.0
C112 C 0.00991 0.16826 0.40606 0.0
N113 N 0.04441 0.17701 0.40948 0.0
C114 C 0.94822 0.25576 0.36922 0.0
C115 C 0.95918 0.28481 0.40345 0.0
C116 C 0.95932 0.30755 0.38825 0.0
C117 C 0.9532 0.29269 0.37099 0.0
C118 C 0.95418 0.24801 0.40106 0.0
N119 N 0.94815 0.23383 0.38413 0.0
H120 H 0.94703 0.2448 0.35569 0.0
H121 H 0.95764 0.23083 0.41277 0.0
H122 H 0.02552 0.21703 0.37115 0.0
H123 H 0.99319 0.15272 0.41514 0.0
O124 O 0.96961 0.18033 0.35609 0.0
O125 O 0.95678 0.13307 0.37347 0.0
O126 O 0.93067 0.17206 0.4058 0.0
C127 C 0.96852 0.14564 0.35806 0.0
H128 H 0.82639 0.13977 0.3618 0.0
H129 H 0.08088 0.20975 0.39357 0.0
H130 H 0.96511 0.295 0.41695 0.0
H131 H 0.95364 0.30926 0.35885 0.0
Co132 Co 0.80903 0.04693 0.12285 0.0
C133 C 0.79944 0.10083 0.15187 0.0
C134 C 0.83783 0.11819 0.13213 0.0
C135 C 0.83918 0.14118 0.14685 0.0
N136 N 0.81251 0.09303 0.13516 0.0
N137 N 0.81526 0.12987 0.15937 0.0
H138 H 0.78126 0.08377 0.1592 0.0
H139 H 0.85645 0.11794 0.12082 0.0
C140 C 0.80985 0.09985 0.09181 0.0
O141 O 0.78686 0.1202 0.1006 0.0
N142 N 0.80627 0.00081 0.11098 0.0
C143 C 0.78634 0.97264 0.11641 0.0
C144 C 0.78896 0.94599 0.10348 0.0
C145 C 0.82094 0.99097 0.09495 0.0
N146 N 0.81061 0.95762 0.08995 0.0
C147 C 0.73523 0.04858 0.13391 0.0
C148 C 0.70688 0.0473 0.09911 0.0
C149 C 0.68372 0.04438 0.11404 0.0
C150 C 0.69824 0.04561 0.13163 0.0
C151 C 0.74367 0.0503 0.102 0.0
N152 N 0.75756 0.05168 0.11925 0.0
H153 H 0.74581 0.04542 0.14744 0.0
H154 H 0.76092 0.04894 0.09023 0.0
H155 H 0.77023 0.97194 0.12866 0.0
H156 H 0.8377 0.00834 0.0868 0.0
O157 O 0.80959 0.02323 0.14646 0.0
O158 O 0.85752 0.03696 0.12982 0.0
O159 O 0.82033 0.07018 0.09871 0.0
C160 C 0.84428 0.02319 0.14464 0.0
H161 H 0.85861 0.16237 0.14886 0.0
H162 H 0.77563 0.92022 0.10395 0.0
H163 H 0.69683 0.04578 0.08527 0.0
H164 H 0.68145 0.04186 0.14354 0.0
Co165 Co 0.04474 0.1866 0.88179 0.0
C166 C 0.09637 0.19286 0.8514 0.0
C167 C 0.11402 0.15467 0.87122 0.0
C168 C 0.13619 0.15245 0.85622 0.0
N169 N 0.08932 0.18055 0.86836 0.0
N170 N 0.12475 0.1763 0.84367 0.0
H171 H 0.07938 0.21127 0.84415 0.0
H172 H 0.11416 0.1365 0.88273 0.0
C173 C 0.0999 0.18325 0.91173 0.0
O174 O 0.12048 0.20552 0.90258 0.0
N175 N 0.00012 0.19185 0.89482 0.0
C176 C 0.97293 0.21398 0.8904 0.0
C177 C 0.94732 0.21211 0.90389 0.0
C178 C 0.9907 0.17661 0.91078 0.0
N179 N 0.9586 0.18868 0.91674 0.0
C180 C 0.05023 0.26026 0.8706 0.0
C181 C 0.05232 0.28871 0.90537 0.0
C182 C 0.04972 0.31202 0.89046 0.0
C183 C 0.04933 0.29741 0.87287 0.0
C184 C 0.05315 0.25175 0.90249 0.0
N185 N 0.05276 0.23777 0.88524 0.0
H186 H 0.04585 0.24983 0.85713 0.0
H187 H 0.0515 0.23456 0.91429 0.0
H188 H 0.97222 0.23096 0.87844 0.0
H189 H 0.00754 0.15802 0.91818 0.0
O190 O 0.0189 0.18761 0.85881 0.0
O191 O 0.03137 0.13875 0.87509 0.0
O192 O 0.06945 0.17394 0.90536 0.0
C193 C 0.01698 0.15292 0.86063 0.0
H194 H 0.15707 0.13271 0.85413 0.0
H195 H 0.92247 0.22706 0.90423 0.0
H196 H 0.05206 0.29884 0.91922 0.0
H197 H 0.04577 0.31436 0.861 0.0
Co198 Co 0.18908 0.94359 0.11938 0.0
C199 C 0.193 0.89062 0.14936 0.0
C200 C 0.15952 0.87186 0.12772 0.0
C201 C 0.15619 0.84872 0.14229 0.0
N202 N 0.18325 0.8979 0.13198 0.0
N203 N 0.17718 0.86074 0.15594 0.0
H204 H 0.20783 0.90895 0.15787 0.0
H205 H 0.14324 0.87126 0.11554 0.0
C206 C 0.18723 0.89158 0.0879 0.0
O207 O 0.21094 0.87112 0.09615 0.0
N208 N 0.19399 0.98926 0.10719 0.0
C209 C 0.21626 0.01614 0.1119 0.0
C210 C 0.21419 0.0426 0.09881 0.0
C211 C 0.17842 -0.00027 0.09149 0.0
N212 N 0.19047 0.03216 0.08595 0.0
C213 C 0.26242 0.9344 0.13041 0.0
C214 C 0.29105 0.94062 0.09578 0.0
C215 C 0.31422 0.93988 0.11078 0.0
C216 C 0.29955 0.93589 0.12825 0.0
C217 C 0.25415 0.93912 0.09854 0.0
N218 N 0.2401 0.93584 0.11569 0.0
H219 H 0.25185 0.9349 0.14403 0.0
H220 H 0.23694 0.94308 0.08689 0.0
H221 H 0.23357 0.016 0.12373 0.0
H222 H 0.15973 0.98334 0.08391 0.0
O223 O 0.19021 0.9679 0.14278 0.0
O224 O 0.14132 0.95632 0.12642 0.0
O225 O 0.17651 0.92064 0.09535 0.0
C226 C 0.15553 0.9698 0.14108 0.0
H227 H 0.13797 0.82619 0.14312 0.0
H228 H 0.22928 0.06739 0.0987 0.0
H229 H 0.30123 0.944 0.08205 0.0
H230 H 0.31642 0.93641 0.14027 0.0
Co231 Co 0.9397 0.80714 0.88217 0.0
C232 C 0.88367 0.79874 0.85393 0.0
C233 C 0.86606 0.83279 0.87561 0.0
C234 C 0.84114 0.83426 0.86178 0.0
N235 N 0.89255 0.80991 0.87087 0.0
N236 N 0.8524 0.81289 0.84812 0.0
H237 H 0.90154 0.78427 0.84502 0.0
H238 H 0.86622 0.84976 0.88756 0.0
C239 C 0.89064 0.80561 0.91473 0.0
O240 O 0.87094 0.78098 0.90673 0.0
N241 N 0.98674 0.80531 0.89311 0.0
C242 C 0.01468 0.78526 0.88751 0.0
C243 C 0.04179 0.78816 0.90018 0.0
C244 C -0.00277 0.82041 0.90892 0.0
N245 N 0.03068 0.81016 0.91369 0.0
C246 C 0.93491 0.73312 0.87137 0.0
C247 C 0.94518 0.70516 0.90591 0.0
C248 C 0.94452 0.6818 0.89098 0.0
C249 C 0.93862 0.69609 0.87356 0.0
C250 C 0.94138 0.74194 0.90312 0.0
N251 N 0.93588 0.75563 0.88603 0.0
H252 H 0.93397 0.7436 0.85774 0.0
H253 H 0.94519 0.75946 0.91466 0.0
H254 H 0.01479 0.76862 0.87543 0.0
H255 H 0.98012 0.83717 0.91721 0.0
O256 O 0.96146 0.80752 0.85813 0.0
O257 O 0.94837 0.8557 0.8748 0.0
O258 O 0.91839 0.81814 0.90678 0.0
C259 C 0.96117 0.8423 0.85979 0.0
H260 H 0.81783 0.85154 0.86134 0.0
H261 H 0.06739 0.77455 0.89964 0.0
H262 H 0.95006 0.69528 0.91959 0.0
H263 H 0.9392 0.67911 0.86158 0.0
C264 C 0.15546 0.96814 0.55876 0.0
C265 C 0.18908 0.96125 0.56669 0.0
C266 C 0.14528 0.95101 0.54258 0.0
C267 C 0.18294 0.90479 0.50231 0.0
H268 H 0.08611 0.86891 0.49642 0.0
C269 C 0.1404 0.81967 0.4399 0.0
C270 C 0.10671 0.82725 0.43223 0.0
C271 C 0.15053 0.83505 0.45654 0.0
C272 C 0.11317 0.8791 0.49776 0.0
H273 H 0.23847 0.93109 0.56361 0.0
H274 H 0.22051 0.90086 0.53567 0.0
H275 H 0.10338 0.89791 0.52491 0.0
H276 H 0.05724 0.857 0.43612 0.0
H277 H 0.07501 0.88395 0.4649 0.0
H278 H 0.19269 0.88621 0.47513 0.0
C279 C 0.20209 0.9197 0.54188 0.0
C280 C 0.12305 0.89573 0.5141 0.0
C281 C 0.21221 0.93673 0.55806 0.0
C282 C 0.08335 0.8504 0.44163 0.0
C283 C 0.09346 0.86574 0.45823 0.0
C284 C 0.17305 0.8882 0.48596 0.0
C285 C 0.16855 0.92669 0.53391 0.0
C286 C 0.15804 0.90884 0.51656 0.0
C287 C 0.12719 0.85834 0.46589 0.0
C288 C 0.138 0.87523 0.48346 0.0
H289 H 0.13686 0.98662 0.56508 0.0
H290 H 0.11938 0.95725 0.53672 0.0
H291 H 0.20997 0.91506 0.50365 0.0
H292 H 0.15902 0.8019 0.43305 0.0
H293 H 0.17655 0.82843 0.46216 0.0
C294 C 0.77608 0.90282 0.54754 0.0
C295 C 0.79181 0.89529 0.56454 0.0
C296 C 0.79115 0.88928 0.53149 0.0
C297 C 0.8781 0.86123 0.51357 0.0
H298 H 0.82349 0.8243 0.47267 0.0
C299 C 0.94 0.84348 0.44225 0.0
C300 C 0.93307 0.81085 0.43327 0.0
C301 C 0.9214 0.85262 0.45811 0.0
C302 C 0.83907 0.83441 0.48403 0.0
H303 H 0.83457 0.86603 0.57808 0.0
H304 H 0.86068 0.84248 0.55011 0.0
H305 H 0.79263 0.84023 0.50102 0.0
H306 H 0.9008 0.76234 0.4341 0.0
H307 H 0.86809 0.77864 0.4616 0.0
H308 H 0.92449 0.85554 0.49668 0.0
C309 C 0.83701 0.85923 0.54919 0.0
C310 C 0.8214 0.84373 0.50018 0.0
C311 C 0.82189 0.87259 0.56521 0.0
C312 C 0.9066 0.78789 0.44043 0.0
C313 C 0.88783 0.79718 0.45624 0.0
C314 C 0.89568 0.85222 0.49742 0.0
C315 C 0.8223 0.86811 0.53214 0.0
C316 C 0.84077 0.85721 0.51511 0.0
C317 C 0.89526 0.82949 0.46532 0.0
C318 C 0.87637 0.83879 0.48247 0.0
H319 H 0.75289 0.92021 0.54654 0.0
H320 H 0.77933 0.89669 0.51852 0.0
H321 H 0.8937 0.87197 0.52477 0.0
H322 H 0.95962 0.86219 0.43702 0.0
H323 H 0.92732 0.87798 0.46468 0.0
C324 C 0.78812 0.06685 0.55916 0.0
C325 C 0.80953 0.04053 0.56759 0.0
C326 C 0.79902 0.08318 0.54293 0.0
C327 C 0.85834 0.07011 0.50323 0.0
H328 H 0.84386 0.17228 0.49612 0.0
C329 C 0.91547 0.14448 0.44073 0.0
C330 C 0.89349 0.17019 0.43221 0.0
C331 C 0.90582 0.12957 0.4575 0.0
C332 C 0.84774 0.14366 0.49781 0.0
H333 H 0.85959 0.01119 0.56551 0.0
H334 H 0.87857 0.03964 0.53715 0.0
H335 H 0.82628 0.14444 0.52489 0.0
H336 H 0.84422 0.20065 0.43483 0.0
H337 H 0.82715 0.17431 0.46407 0.0
H338 H 0.8796 0.06922 0.47613 0.0
C339 C 0.85309 0.04732 0.54305 0.0
C340 C 0.83769 0.12769 0.51431 0.0
C341 C 0.84219 0.03099 0.55933 0.0
C342 C 0.86182 0.181 0.44102 0.0
C343 C 0.85212 0.16601 0.45783 0.0
C344 C 0.86835 0.08605 0.48673 0.0
C345 C 0.8316 0.0736 0.53465 0.0
C346 C 0.84284 0.09071 0.51721 0.0
C347 C 0.87388 0.13989 0.46621 0.0
C348 C 0.86319 0.12303 0.48381 0.0
H349 H 0.76249 0.07442 0.56488 0.0
H350 H 0.78152 0.10284 0.53666 0.0
H351 H 0.86213 0.04146 0.50489 0.0
H352 H 0.94014 0.13558 0.4344 0.0
H353 H 0.92353 0.11001 0.46369 0.0
C354 C 0.17289 0.12678 0.56042 0.0
C355 C 0.20302 0.10413 0.56078 0.0
C356 C 0.15807 0.13772 0.54384 0.0
C357 C 0.17496 0.14464 0.49423 0.0
H358 H 0.07158 0.13569 0.49095 0.0
C359 C 0.09295 0.19106 0.43137 0.0
C360 C 0.06471 0.16869 0.42568 0.0
C361 C 0.11139 0.18401 0.44757 0.0
C362 C 0.10048 0.13811 0.49161 0.0
H363 H 0.24224 0.07663 0.54398 0.0
H364 H 0.21626 0.09566 0.51504 0.0
H365 H 0.10153 0.12357 0.51981 0.0
H366 H 0.0347 0.12055 0.43232 0.0
H367 H 0.06671 0.10838 0.46059 0.0
H368 H 0.17383 0.15854 0.46588 0.0
C369 C 0.20421 0.10508 0.52759 0.0
C370 C 0.1176 0.13164 0.50821 0.0
C371 C 0.21903 0.09409 0.54419 0.0
C372 C 0.05583 0.13871 0.43643 0.0
C373 C 0.07419 0.13172 0.45264 0.0
C374 C 0.15778 0.15128 0.47762 0.0
C375 C 0.17307 0.12631 0.52724 0.0
C376 C 0.15504 0.13471 0.50971 0.0
C377 C 0.10194 0.15448 0.45848 0.0
C378 C 0.12036 0.14786 0.47611 0.0
H379 H 0.16002 0.13523 0.57295 0.0
H380 H 0.13445 0.15463 0.54401 0.0
H381 H 0.20382 0.14741 0.49499 0.0
H382 H 0.10023 0.21466 0.42361 0.0
H383 H 0.13238 0.20227 0.45181 0.0
C384 C 0.9034 0.84438 0.94179 0.0
C385 C 0.88148 0.81873 0.93322 0.0
C386 C 0.8953 0.85687 0.95923 0.0
C387 C 0.82129 0.86736 0.99182 0.0
H388 H 0.89838 0.88141 0.02659 0.0
C389 C 0.7955 0.91329 0.066 0.0
C390 C 0.81886 0.93945 0.07309 0.0
C391 C 0.80292 0.89649 0.04939 0.0
C392 C 0.8766 0.87795 0.01699 0.0
H393 H 0.83363 0.78623 0.93631 0.0
H394 H 0.81943 0.80818 0.96691 0.0
H395 H 0.9114 0.85552 0.9968 0.0
H396 H 0.8687 0.96788 0.06832 0.0
H397 H 0.88128 0.93913 0.03921 0.0
H398 H 0.78656 0.89025 0.01194 0.0
C399 C 0.84286 0.81866 0.96 0.0
C400 C 0.88404 0.86307 0.99993 0.0
C401 C 0.85107 0.80599 0.94251 0.0
C402 C 0.84996 0.94814 0.06321 0.0
C403 C 0.85738 0.93133 0.04661 0.0
C404 C 0.81384 0.88232 0.00889 0.0
C405 C 0.86499 0.84415 0.96856 0.0
C406 C 0.85656 0.85796 0.98707 0.0
C407 C 0.83388 0.90539 0.03946 0.0
C408 C 0.84148 0.88811 0.02161 0.0
H409 H 0.9269 0.85503 0.93502 0.0
H410 H 0.91256 0.87697 0.9653 0.0
H411 H 0.7996 0.86416 0.98214 0.0
H412 H 0.77109 0.9062 0.0731 0.0
H413 H 0.78444 0.87639 0.04435 0.0
C414 C 0.84689 0.08773 0.06405 0.0
C415 C 0.82301 0.11028 0.07348 0.0
C416 C 0.85935 0.09699 0.04675 0.0
C417 C 0.87327 0.17377 0.01601 0.0
H418 H 0.88116 0.09957 0.97913 0.0
C419 C 0.91704 0.2043 0.94186 0.0
C420 C 0.94119 0.18006 0.93376 0.0
C421 C 0.90083 0.19632 0.95857 0.0
C422 C 0.87945 0.12053 0.98932 0.0
H423 H 0.79368 0.16049 0.07208 0.0
H424 H 0.81553 0.17669 0.0417 0.0
H425 H 0.85582 0.08503 0.00885 0.0
H426 H 0.96673 0.1281 0.93688 0.0
H427 H 0.93904 0.11449 0.96613 0.0
H428 H 0.8973 0.20918 0.99652 0.0
C429 C 0.82467 0.15187 0.04783 0.0
C430 C 0.86488 0.11222 0.00635 0.0
C431 C 0.81205 0.14251 0.06519 0.0
C432 C 0.94855 0.14755 0.94276 0.0
C433 C 0.93233 0.13955 0.95946 0.0
C434 C 0.88791 0.1821 0.99896 0.0
C435 C 0.84835 0.12909 0.03839 0.0
C436 C 0.86197 0.13863 0.01996 0.0
C437 C 0.90833 0.16387 0.96759 0.0
C438 C 0.89149 0.15547 0.98547 0.0
H439 H 0.85618 0.06284 0.07003 0.0
H440 H 0.87805 0.07915 0.04 0.0
H441 H 0.87177 0.19462 0.02627 0.0
H442 H 0.91103 0.22977 0.93546 0.0
H443 H 0.88224 0.2155 0.96437 0.0
C444 C 0.08821 0.14652 0.93965 0.0
C445 C 0.11089 0.16981 0.92991 0.0
C446 C 0.09782 0.13406 0.9569 0.0
C447 C 0.17509 0.11892 0.98707 0.0
H448 H 0.10185 0.11325 0.02451 0.0
C449 C 0.20625 0.07428 0.06107 0.0
C450 C 0.18175 0.05039 0.06916 0.0
C451 C 0.19827 0.09099 0.04447 0.0
C452 C 0.12254 0.11437 0.01417 0.0
H453 H 0.16173 0.19799 0.93069 0.0
H454 H 0.17854 0.17614 0.96099 0.0
H455 H 0.08715 0.13867 0.99482 0.0
H456 H 0.12932 0.02595 0.06623 0.0
H457 H 0.11567 0.05456 0.0372 0.0
H458 H 0.21038 0.09421 0.0064 0.0
C459 C 0.15334 0.16747 0.95514 0.0
C460 C 0.11413 0.12897 0.99716 0.0
C461 C 0.14364 0.18009 0.93782 0.0
C462 C 0.14895 0.0439 0.06033 0.0
C463 C 0.14095 0.06064 0.04377 0.0
C464 C 0.18352 0.10427 0.00412 0.0
C465 C 0.13039 0.14447 0.9649 0.0
C466 C 0.14016 0.13101 0.98333 0.0
C467 C 0.16556 0.08429 0.0356 0.0
C468 C 0.15721 0.10145 0.01779 0.0
H469 H 0.06291 0.13775 0.93396 0.0
H470 H 0.07983 0.11585 0.9639 0.0
H471 H 0.19564 0.11977 0.97665 0.0
H472 H 0.23193 0.07961 0.06735 0.0
H473 H 0.21769 0.10929 0.03863 0.0
C474 C 0.07454 0.79432 0.93777 0.0
C475 C 0.0489 0.81814 0.93057 0.0
C476 C 0.09061 0.80108 0.95466 0.0
C477 C 0.07573 0.85112 0.99737 0.0
H478 H 0.17729 0.83545 0.0054 0.0
C479 C 0.14697 0.90352 0.06134 0.0
C480 C 0.17254 0.88141 0.06986 0.0
C481 C 0.13259 0.89428 0.04444 0.0
C482 C 0.1488 0.83951 0.00344 0.0
H483 H 0.02115 0.86846 0.93525 0.0
H484 H 0.0491 0.88022 0.96464 0.0
H485 H 0.15124 0.82274 0.97551 0.0
H486 H 0.20315 0.83219 0.06716 0.0
H487 H 0.17767 0.81583 0.03755 0.0
H488 H 0.07318 0.86795 0.0252 0.0
C489 C 0.05629 0.85595 0.95738 0.0
C490 C 0.13389 0.83228 0.98631 0.0
C491 C 0.04028 0.84922 0.94051 0.0
C492 C 0.18353 0.84983 0.06097 0.0
C493 C 0.16907 0.84055 0.04398 0.0
C494 C 0.09059 0.8583 0.01445 0.0
C495 C 0.08137 0.83178 0.96475 0.0
C496 C 0.09725 0.83839 0.98303 0.0
C497 C 0.14328 0.86262 0.03557 0.0
C498 C 0.12737 0.85299 0.01764 0.0
H499 H 0.08148 0.76987 0.93065 0.0
H500 H 0.10954 0.78174 0.96004 0.0
H501 H 0.04726 0.85536 0.99542 0.0
H502 H 0.1379 0.92811 0.06772 0.0
H503 H 0.11327 0.91221 0.03821 0.0
C504 C 0.60959 0.94074 0.63997 0.0
C505 C 0.62951 0.93419 0.62407 0.0
C506 C 0.57579 0.95642 0.63882 0.0
C507 C 0.50207 0.98224 0.60813 0.0
H508 H 0.49563 0.0646 0.6404 0.0
C509 C 0.38137 0.0761 0.60473 0.0
C510 C 0.36464 0.08059 0.62173 0.0
C511 C 0.41648 0.06331 0.6038 0.0
C512 C 0.49703 0.04169 0.63133 0.0
H513 H 0.62859 0.93547 0.59453 0.0
H514 H 0.56918 0.96266 0.5925 0.0
H515 H 0.54818 0.02582 0.64165 0.0
H516 H 0.37231 0.07924 0.651 0.0
H517 H 0.43349 0.05683 0.64944 0.0
H518 H 0.4506 -0.00226 0.59803 0.0
C519 C 0.57974 0.9558 0.60582 0.0
C520 C 0.52693 0.01934 0.63214 0.0
C521 C 0.61361 0.94006 0.60697 0.0
C522 C 0.38464 0.07567 0.63774 0.0
C523 C 0.4197 0.06297 0.63682 0.0
C524 C 0.47205 0.00454 0.60736 0.0
C525 C 0.56141 0.96578 0.62177 0.0
C526 C 0.52948 0.98912 0.62074 0.0
C527 C 0.43532 0.05503 0.61986 0.0
C528 C 0.46906 0.03424 0.61912 0.0
H529 H 0.62121 0.93602 0.6533 0.0
H530 H 0.56172 0.96301 0.6513 0.0
H531 H 0.50344 0.95913 0.59919 0.0
H532 H 0.36643 0.0796 0.59218 0.0
H533 H 0.42818 0.05806 0.59055 0.0
C534 C 0.06647 0.61587 0.38443 0.0
C535 C 0.04971 0.64044 0.3962 0.0
C536 C 0.05914 0.5792 0.38577 0.0
C537 C 0.98814 0.51835 0.40158 0.0
H538 H 0.05922 0.44459 0.39243 0.0
C539 C 0.9555 0.36664 0.40458 0.0
C540 C 0.96928 0.34584 0.39021 0.0
C541 C 0.96628 0.4023 0.40678 0.0
C542 C 0.03907 0.46494 0.39491 0.0
H543 H 0.01291 0.64556 0.419 0.0
H544 H 0.00103 0.58159 0.42166 0.0
H545 H 0.0778 0.5073 0.39432 0.0
H546 H 0.00555 0.34588 0.36708 0.0
H547 H 0.02386 0.40819 0.37075 0.0
H548 H 0.94938 0.47602 0.40198 0.0
C549 C 0.01939 0.59073 0.41121 0.0
C550 C 0.04969 0.50081 0.396 0.0
C551 C 0.02662 0.62737 0.40983 0.0
C552 C 0.99402 0.36139 0.37811 0.0
C553 C 0.00491 0.39691 0.38036 0.0
C554 C 0.97755 0.48248 0.40055 0.0
C555 C 0.03493 0.56632 0.39893 0.0
C556 C 0.02428 0.52796 0.39912 0.0
C557 C 0.99127 0.4177 0.39475 0.0
C558 C 0.00283 0.45547 0.39697 0.0
H559 H 0.08466 0.62506 0.3739 0.0
H560 H 0.07137 0.56114 0.37601 0.0
H561 H 0.96779 0.53866 0.4037 0.0
H562 H 0.93634 0.35534 0.41408 0.0
H563 H 0.95547 0.41766 0.41805 0.0
C564 C 0.63486 0.0101 0.0985 0.0
C565 C 0.64528 0.03608 0.11135 0.0
C566 C 0.59903 -0.0001 0.09696 0.0
C567 C 0.50696 0.02814 0.10761 0.0
H568 H 0.48627 0.92615 0.10526 0.0
C569 C 0.37876 0.92909 0.11879 0.0
C570 C 0.35291 0.94754 0.10847 0.0
C571 C 0.41485 0.93884 0.11776 0.0
C572 C 0.49167 0.95469 0.10596 0.0
H573 H 0.62626 0.07246 0.13229 0.0
H574 H 0.56351 0.05445 0.12966 0.0
H575 H 0.54843 0.94655 0.10622 0.0
H576 H 0.3447 0.99041 0.08883 0.0
H577 H 0.40766 0.00692 0.08682 0.0
H578 H 0.45022 0.03627 0.10773 0.0
C579 C 0.5831 0.04214 0.12073 0.0
C580 C 0.5272 0.96639 0.10632 0.0
C581 C 0.619 0.05226 0.12233 0.0
C582 C 0.364 0.97532 0.09677 0.0
C583 C 0.4 0.98511 0.09579 0.0
C584 C 0.47145 0.01646 0.10716 0.0
C585 C 0.57286 0.01551 0.10819 0.0
C586 C 0.53518 0.00323 0.10724 0.0
C587 C 0.42571 0.96737 0.10648 0.0
C588 C 0.46345 0.97961 0.10641 0.0
H589 H 0.65456 0.99678 0.09002 0.0
H590 H 0.59184 0.97957 0.08705 0.0
H591 H 0.51233 0.0567 0.10818 0.0
H592 H 0.37099 0.90746 0.12784 0.0
H593 H 0.43409 0.92483 0.12624 0.0
C594 C 0.01812 0.36215 0.90642 0.0
C595 C 0.04295 0.35081 0.89321 0.0
C596 C 0.00866 0.39826 0.90781 0.0
C597 C 0.97482 0.46951 0.89783 0.0
H598 H 0.0441 0.54669 0.8939 0.0
C599 C 0.93525 0.61673 0.88355 0.0
C600 C 0.95373 0.6434 0.89328 0.0
C601 C 0.94583 0.58085 0.8848 0.0
C602 C 0.02447 0.52541 0.89517 0.0
H603 H 0.07835 0.36853 0.87156 0.0
H604 H 0.06154 0.43176 0.87387 0.0
H605 H 0.06477 0.48451 0.89433 0.0
H606 H -0.0023 0.65341 0.91199 0.0
H607 H 0.0157 0.59075 0.9144 0.0
H608 H 0.93453 0.51038 0.89872 0.0
C609 C 0.04957 0.41268 0.88322 0.0
C610 C 0.03629 0.48986 0.89524 0.0
C611 C 0.05899 0.3765 0.88179 0.0
C612 C 0.98259 0.63341 0.90452 0.0
C613 C 0.99321 0.59761 0.90572 0.0
C614 C 0.963 0.50504 0.89769 0.0
C615 C 0.02382 0.42378 0.89602 0.0
C616 C 0.01156 0.46156 0.89652 0.0
C617 C 0.9752 0.57102 0.89573 0.0
C618 C 0.9877 0.53333 0.89631 0.0
H619 H 0.00492 0.34296 0.91526 0.0
H620 H 0.98906 0.40613 0.91794 0.0
H621 H 0.95511 0.44822 0.89861 0.0
H622 H 0.91282 0.62366 0.87485 0.0
H623 H 0.93161 0.56093 0.87684 0.0
C624 C 0.12882 0.03805 0.66473 0.0
C625 C 0.13052 0.02744 0.64637 0.0
C626 C 0.09882 0.02925 0.67527 0.0
C627 C 0.0195 0.97218 0.67822 0.0
H628 H 0.96193 0.05882 0.67681 0.0
C629 C 0.8924 -0.001 0.6401 0.0
C630 C 0.86551 0.97804 0.64802 0.0
C631 C 0.92208 0.00918 0.65035 0.0
C632 C 0.97772 0.03453 0.67811 0.0
H633 H 0.10443 -0.0024 0.62485 0.0
H634 H 0.05273 0.9809 0.64343 0.0
H635 H 0.0272 0.06336 0.67669 0.0
H636 H 0.84726 0.95187 0.67271 0.0
H637 H 0.90094 0.96793 0.6905 0.0
H638 H 0.96997 0.94332 0.67768 0.0
C639 C 0.07422 0.99614 0.64967 0.0
C640 C 0.01502 0.03709 0.67807 0.0
C641 C 0.10348 0.0059 0.63901 0.0
C642 C 0.86779 0.96842 0.6665 0.0
C643 C 0.8982 0.97762 0.67664 0.0
C644 C 0.98221 0.96964 0.67863 0.0
C645 C 0.0711 0.00871 0.66767 0.0
C646 C 0.03593 0.0059 0.67659 0.0
C647 C 0.92575 -0.0024 0.66849 0.0
C648 C 0.96124 0.00076 0.67704 0.0
H649 H 0.14944 0.05506 0.67051 0.0
H650 H 0.09651 0.0397 0.68901 0.0
H651 H 0.03524 0.94785 0.67702 0.0
H652 H 0.89098 0.00653 0.62583 0.0
H653 H 0.94341 0.02396 0.64369 0.0
C654 C 0.01108 0.85858 0.33053 0.0
C655 C -0.00284 0.85887 0.34831 0.0
C656 C 0.00276 0.88653 0.31845 0.0
C657 C 0.01215 0.96653 0.31049 0.0
H658 H 0.92502 0.02243 0.31501 0.0
C659 C 0.00548 0.09565 0.34675 0.0
C660 C 0.9786 0.12096 0.34344 0.0
C661 C 0.00948 0.06624 0.33522 0.0
C662 C 0.94947 0.00729 0.31291 0.0
H663 H 0.96139 0.88578 0.36701 0.0
H664 H 0.946 0.93377 0.346 0.0
H665 H 0.92203 0.95729 0.31633 0.0
H666 H 0.93606 0.13726 0.32517 0.0
H667 H 0.94225 0.08478 0.3051 0.0
H668 H 0.03996 0.01667 0.30887 0.0
C669 C 0.96327 0.91241 0.34116 0.0
C670 C 0.94772 0.96988 0.31378 0.0
C671 C 0.97223 0.88511 0.3533 0.0
C672 C 0.9573 0.11806 0.32775 0.0
C673 C 0.96079 0.0881 0.31634 0.0
C674 C 0.01389 0.00394 0.30959 0.0
C675 C 0.97987 0.91452 0.32396 0.0
C676 C 0.97938 0.94946 0.31428 0.0
C677 C 0.98598 0.06114 0.32042 0.0
C678 C 0.98292 0.02464 0.3125 0.0
H679 H 0.03071 0.83864 0.32655 0.0
H680 H 0.01606 0.88759 0.30532 0.0
H681 H 0.03704 0.95155 0.31064 0.0
H682 H 0.02188 0.09741 0.35892 0.0
H683 H 0.02874 0.04578 0.33899 0.0
C684 C 0.13093 0.9681 0.17257 0.0
C685 C 0.13246 0.98449 0.15536 0.0
C686 C 0.10221 0.97541 0.18431 0.0
C687 C 0.0216 0.96724 0.1906 0.0
H688 H 0.96855 0.0566 0.1887 0.0
C689 C 0.89264 0.98276 0.1546 0.0
C690 C 0.86831 0.01001 0.15888 0.0
C691 C 0.92195 0.97627 0.16588 0.0
C692 C 0.98288 0.03144 0.19004 0.0
H693 H 0.10784 0.02322 0.13735 0.0
H694 H 0.05848 0.03686 0.15783 0.0
H695 H 0.03368 0.05776 0.18786 0.0
H696 H 0.85363 0.05062 0.1786 0.0
H697 H 0.9059 0.04001 0.19828 0.0
H698 H 0.97068 0.9408 0.19101 0.0
C699 C 0.07905 0.01849 0.16249 0.0
C700 C 0.02028 0.03214 0.18944 0.0
C701 C 0.10714 0.01057 0.15066 0.0
C702 C 0.87202 0.02907 0.17526 0.0
C703 C 0.90188 0.02309 0.18644 0.0
C704 C 0.98419 0.96654 0.19121 0.0
C705 C 0.07524 -0.00031 0.17903 0.0
C706 C 0.03973 -5e-05 0.1881 0.0
C707 C 0.92794 -0.00237 0.18142 0.0
C708 C 0.96453 -0.00149 0.18931 0.0
H709 H 0.1501 0.94748 0.17627 0.0
H710 H 0.09981 0.96042 0.19692 0.0
H711 H 0.03582 0.94194 0.18974 0.0
H712 H 0.89028 0.96811 0.14188 0.0
H713 H 0.94172 0.95688 0.1614 0.0
C714 C 0.95299 0.86955 0.82916 0.0
C715 C 0.97316 0.8662 0.84521 0.0
C716 C 0.95831 0.8991 0.81765 0.0
C717 C 0.01496 0.98088 0.81115 0.0
H718 H 0.9246 0.03137 0.81584 0.0
C719 C 0.97521 0.10471 0.85198 0.0
C720 C 0.00107 0.12979 0.84671 0.0
C721 C 0.96612 0.07659 0.84037 0.0
C722 C 0.94993 0.01767 0.81386 0.0
H723 H 0.01625 0.88847 0.86129 0.0
H724 H 0.0263 0.93937 0.84118 0.0
H725 H 0.92516 0.96611 0.81541 0.0
H726 H 0.03646 0.14704 0.82504 0.0
H727 H 0.0215 0.09665 0.80476 0.0
H728 H 0.04002 0.0324 0.81184 0.0
C729 C 0.00655 0.91955 0.83721 0.0
C730 C 0.95028 0.98019 0.8135 0.0
C731 C 0.00072 0.89056 0.84884 0.0
C732 C 0.01604 0.12803 0.82918 0.0
C733 C 0.00756 0.09927 0.81765 0.0
C734 C 0.0146 0.01837 0.81151 0.0
C735 C 0.98421 0.92518 0.822 0.0
C736 C 0.98304 0.96154 0.81379 0.0
C737 C 0.98352 0.07252 0.82347 0.0
C738 C 0.9823 0.03688 0.81451 0.0
H739 H 0.93122 0.85111 0.82634 0.0
H740 H 0.94064 0.90286 0.80608 0.0
H741 H 0.04054 0.96712 0.81099 0.0
H742 H 0.96365 0.1056 0.86554 0.0
H743 H 0.94799 0.05619 0.84544 0.0
C744 C 0.15688 0.17775 0.67985 0.0
C745 C 0.18712 0.16103 0.67222 0.0
C746 C 0.15521 0.18459 0.69858 0.0
C747 C 0.1924 0.15119 0.74189 0.0
H748 H 0.14291 0.23353 0.76216 0.0
C749 C 0.17113 0.16921 0.8197 0.0
C750 C 0.1362 0.17909 0.82489 0.0
C751 C 0.18165 0.17068 0.80137 0.0
C752 C 0.15673 0.21034 0.7567 0.0
H753 H 0.24025 0.14055 0.67808 0.0
H754 H 0.23749 0.15271 0.71075 0.0
H755 H 0.15398 0.23057 0.7294 0.0
H756 H 0.08485 0.19779 0.81457 0.0
H757 H 0.10323 0.20066 0.78297 0.0
H758 H 0.19451 0.13065 0.76915 0.0
C759 C 0.21472 0.1598 0.70233 0.0
C760 C 0.16304 0.20862 0.73793 0.0
C761 C 0.21634 0.15289 0.68361 0.0
C762 C 0.11222 0.19079 0.81131 0.0
C763 C 0.12275 0.19241 0.79307 0.0
C764 C 0.18615 0.15295 0.76067 0.0
C765 C 0.18381 0.175 0.71011 0.0
C766 C 0.18034 0.1787 0.73024 0.0
C767 C 0.1575 0.18222 0.78785 0.0
C768 C 0.16761 0.1822 0.76824 0.0
H769 H 0.13374 0.18397 0.67153 0.0
H770 H 0.1308 0.19592 0.70412 0.0
H771 H 0.20537 0.12751 0.73643 0.0
H772 H 0.19036 0.16039 0.8298 0.0
H773 H 0.20871 0.16289 0.79779 0.0
C774 C 0.14733 0.83213 0.18241 0.0
C775 C 0.1774 0.84914 0.17473 0.0
C776 C 0.1462 0.82435 0.20105 0.0
C777 C 0.18396 0.85509 0.24459 0.0
H778 H 0.13877 0.76921 0.26365 0.0
C779 C 0.10906 0.80569 0.31408 0.0
C780 C 0.13275 0.81826 0.32758 0.0
C781 C 0.1188 0.806 0.29572 0.0
C782 C 0.15134 0.79342 0.25854 0.0
H783 H 0.23064 0.86945 0.18051 0.0
H784 H 0.22863 0.85598 0.21306 0.0
H785 H 0.14802 0.77541 0.23086 0.0
H786 H 0.18569 0.84033 0.33222 0.0
H787 H 0.20279 0.84093 0.30001 0.0
H788 H 0.18646 0.87352 0.27221 0.0
C789 C 0.20568 0.84923 0.20469 0.0
C790 C 0.15663 0.79695 0.23976 0.0
C791 C 0.20683 0.85692 0.18604 0.0
C792 C 0.1667 0.83078 0.32219 0.0
C793 C 0.17647 0.83112 0.30374 0.0
C794 C 0.17861 0.85159 0.26339 0.0
C795 C 0.17511 0.8334 0.21247 0.0
C796 C 0.17245 0.8281 0.23253 0.0
C797 C 0.15251 0.81891 0.29028 0.0
C798 C 0.16163 0.821 0.27055 0.0
H799 H 0.12399 0.82614 0.1742 0.0
H800 H 0.12205 0.81255 0.20664 0.0
H801 H 0.19584 0.87963 0.23946 0.0
H802 H 0.0824 0.79658 0.31752 0.0
H803 H 0.09937 0.79714 0.28572 0.0
C804 C 0.84493 0.78066 0.81894 0.0
C805 C 0.83876 0.81121 0.82974 0.0
C806 C 0.8354 0.78037 0.80051 0.0
C807 C 0.78226 0.82927 0.76543 0.0
H808 H 0.85463 0.7928 0.73228 0.0
C809 C 0.79245 0.87393 0.69068 0.0
C810 C 0.80168 0.84859 0.67724 0.0
C811 C 0.79235 0.86461 0.7091 0.0
C812 C 0.83384 0.80251 0.74133 0.0
H813 H 0.81686 0.86512 0.82971 0.0
H814 H 0.80043 0.86479 0.79761 0.0
H815 H 0.86233 0.78508 0.76504 0.0
H816 H 0.81722 0.79316 0.67282 0.0
H817 H 0.81756 0.77703 0.70516 0.0
H818 H 0.75442 0.84779 0.74168 0.0
C819 C 0.81213 0.84076 0.80342 0.0
C820 C 0.83822 0.79807 0.76013 0.0
C821 C 0.82156 0.84098 0.82186 0.0
C822 C 0.81038 0.81347 0.68277 0.0
C823 C 0.8105 0.8042 0.70129 0.0
C824 C 0.77795 0.83382 0.74663 0.0
C825 C 0.81953 0.81071 0.79243 0.0
C826 C 0.81284 0.81204 0.77243 0.0
C827 C 0.80169 0.82978 0.71465 0.0
C828 C 0.80406 0.82114 0.7344 0.0
H829 H 0.85769 0.75714 0.82471 0.0
H830 H 0.8409 0.75655 0.79252 0.0
H831 H 0.76187 0.83974 0.77449 0.0
H832 H 0.78637 0.90144 0.68715 0.0
H833 H 0.78614 0.88515 0.71907 0.0
C834 C 0.82801 0.15194 0.32233 0.0
C835 C 0.84564 0.18138 0.33027 0.0
C836 C 0.81845 0.15257 0.3039 0.0
C837 C 0.84624 0.19457 0.26087 0.0
H838 H 0.76194 0.14667 0.24185 0.0
C839 C 0.8224 0.17637 0.18331 0.0
C840 C 0.81259 0.14136 0.17814 0.0
C841 C 0.82172 0.18667 0.20169 0.0
C842 C 0.78562 0.16014 0.24696 0.0
H843 H 0.86485 0.23542 0.32542 0.0
H844 H 0.848 0.23662 0.29324 0.0
H845 H 0.76835 0.15516 0.27469 0.0
H846 H 0.79468 0.0897 0.18857 0.0
H847 H 0.79318 0.10769 0.22018 0.0
H848 H 0.86399 0.19864 0.23318 0.0
C849 C 0.84224 0.21278 0.30117 0.0
C850 C 0.7893 0.16496 0.26577 0.0
C851 C 0.85182 0.21212 0.3196 0.0
C852 C 0.80156 0.11715 0.19179 0.0
C853 C 0.80073 0.12746 0.21005 0.0
C854 C 0.84254 0.18977 0.24206 0.0
C855 C 0.82621 0.18268 0.293 0.0
C856 C 0.82005 0.18148 0.27297 0.0
C857 C 0.81106 0.1622 0.21526 0.0
C858 C 0.81261 0.17171 0.23493 0.0
H859 H 0.82325 0.12767 0.33008 0.0
H860 H 0.80655 0.12874 0.298 0.0
H861 H 0.87048 0.20702 0.26596 0.0
H862 H 0.83073 0.19576 0.17317 0.0
H863 H 0.82963 0.21373 0.20528 0.0
loop_
_geom_bond_atom_site_label_1
_geom_bond_atom_site_label_2
_geom_bond_distance
_geom_bond_site_symmetry_2
_ccdc_geom_bond_type
Co0 N4 2.148 . S
Co0 N10 2.128 . S
Co0 N20 2.194 . S
Co0 O25 2.351 . S
Co0 O26 2.155 . S
Co0 O27 2.096 . S
C1 N4 1.301 . S
C1 N5 1.328 . S
C1 H6 0.930 . S
C2 C3 1.333 . S
C2 N4 1.317 . S
C2 H7 0.930 . S
C3 C2 1.333 . S
C3 N5 1.350 . S
C3 H29 0.931 . S
N4 Co0 2.148 . S
N4 C1 1.301 . S
N4 C2 1.317 . S
N5 C1 1.328 . S
N5 C3 1.350 . S
H6 C1 0.930 . S
H7 C2 0.930 . S
C8 O9 1.224 . S
C8 O27 1.247 . S
O9 C8 1.224 . S
N10 Co0 2.128 . S
N10 C11 1.355 1_545 S
N10 C13 1.311 . S
C11 N10 1.355 1_565 S
C11 C12 1.363 . S
C11 H23 0.929 . S
C12 C11 1.363 . S
C12 N14 1.379 . S
C12 H30 0.931 . S
C13 N10 1.311 . S
C13 N14 1.342 1_545 S
C13 H24 0.929 . S
N14 C12 1.379 . S
N14 C13 1.342 1_565 S
C15 C18 1.365 . S
C15 N20 1.328 . S
C15 H21 0.929 . S
C16 C17 1.362 . S
C16 C19 1.378 . S
C16 H31 0.929 . S
C17 C16 1.362 . S
C17 C18 1.366 . S
C18 C15 1.365 . S
C18 C17 1.366 . S
C18 H32 0.930 . S
C19 C16 1.378 . S
C19 N20 1.315 . S
C19 H22 0.930 . S
N20 Co0 2.194 . S
N20 C15 1.328 . S
N20 C19 1.315 . S
H21 C15 0.929 . S
H22 C19 0.930 . S
H23 C11 0.929 . S
H24 C13 0.929 . S
O25 Co0 2.351 . S
O25 C28 1.244 . S
O26 Co0 2.155 . S
O26 C28 1.240 . S
O27 Co0 2.096 . S
O27 C8 1.247 . S
C28 O25 1.244 . S
C28 O26 1.240 . S
H29 C3 0.931 . S
H30 C12 0.931 . S
H31 C16 0.929 . S
H32 C18 0.930 . S
Co33 N37 2.148 . S
Co33 N43 2.128 . S
Co33 N53 2.194 . S
Co33 O58 2.351 . S
Co33 O59 2.155 . S
Co33 O60 2.096 . S
C34 N37 1.301 . S
C34 N38 1.328 . S
C34 H39 0.930 . S
C35 C36 1.333 . S
C35 N37 1.317 . S
C35 H40 0.930 . S
C36 C35 1.333 . S
C36 N38 1.350 . S
C36 H62 0.931 . S
N37 Co33 2.148 . S
N37 C34 1.301 . S
N37 C35 1.317 . S
N38 C34 1.328 . S
N38 C36 1.350 . S
H39 C34 0.930 . S
H40 C35 0.930 . S
C41 O42 1.224 . S
C41 O60 1.247 . S
O42 C41 1.224 . S
N43 Co33 2.128 . S
N43 C44 1.355 1_455 S
N43 C46 1.311 . S
C44 N43 1.355 1_655 S
C44 C45 1.363 . S
C44 H56 0.929 . S
C45 C44 1.363 . S
C45 N47 1.379 . S
C45 H63 0.931 . S
C46 N43 1.311 . S
C46 N47 1.342 1_455 S
C46 H57 0.929 . S
N47 C45 1.379 . S
N47 C46 1.342 1_655 S
C48 C51 1.365 . S
C48 N53 1.328 . S
C48 H54 0.929 . S
C49 C50 1.362 . S
C49 C52 1.378 . S
C49 H64 0.929 . S
C50 C49 1.362 . S
C50 C51 1.366 . S
C51 C48 1.365 . S
C51 C50 1.366 . S
C51 H65 0.930 . S
C52 C49 1.378 . S
C52 N53 1.315 . S
C52 H55 0.930 . S
N53 Co33 2.194 . S
N53 C48 1.328 . S
N53 C52 1.315 . S
H54 C48 0.929 . S
H55 C52 0.930 . S
H56 C44 0.929 . S
H57 C46 0.929 . S
O58 Co33 2.351 . S
O58 C61 1.244 . S
O59 Co33 2.155 . S
O59 C61 1.240 . S
O60 Co33 2.096 . S
O60 C41 1.247 . S
C61 O58 1.244 . S
C61 O59 1.240 . S
H62 C36 0.931 . S
H63 C45 0.931 . S
H64 C49 0.929 . S
H65 C51 0.930 . S
Co66 N70 2.148 . S
Co66 N76 2.128 . S
Co66 N86 2.194 . S
Co66 O91 2.351 . S
Co66 O92 2.155 . S
Co66 O93 2.096 . S
C67 N70 1.301 . S
C67 N71 1.328 . S
C67 H72 0.930 . S
C68 C69 1.333 . S
C68 N70 1.317 . S
C68 H73 0.930 . S
C69 C68 1.333 . S
C69 N71 1.350 . S
C69 H95 0.931 . S
N70 Co66 2.148 . S
N70 C67 1.301 . S
N70 C68 1.317 . S
N71 C67 1.328 . S
N71 C69 1.350 . S
H72 C67 0.930 . S
H73 C68 0.930 . S
C74 O75 1.224 . S
C74 O93 1.247 . S
O75 C74 1.224 . S
N76 Co66 2.128 . S
N76 C77 1.355 1_565 S
N76 C79 1.311 . S
C77 N76 1.355 1_545 S
C77 C78 1.363 . S
C77 H89 0.929 . S
C78 C77 1.363 . S
C78 N80 1.379 . S
C78 H96 0.931 . S
C79 N76 1.311 . S
C79 N80 1.342 1_565 S
C79 H90 0.929 . S
N80 C78 1.379 . S
N80 C79 1.342 1_545 S
C81 C84 1.365 . S
C81 N86 1.328 . S
C81 H87 0.929 . S
C82 C83 1.362 . S
C82 C85 1.378 . S
C82 H97 0.929 . S
C83 C82 1.362 . S
C83 C84 1.366 . S
C84 C81 1.365 . S
C84 C83 1.366 . S
C84 H98 0.930 . S
C85 C82 1.378 . S
C85 N86 1.315 . S
C85 H88 0.930 . S
N86 Co66 2.194 . S
N86 C81 1.328 . S
N86 C85 1.315 . S
H87 C81 0.929 . S
H88 C85 0.930 . S
H89 C77 0.929 . S
H90 C79 0.929 . S
O91 Co66 2.351 . S
O91 C94 1.244 . S
O92 Co66 2.155 . S
O92 C94 1.240 . S
O93 Co66 2.096 . S
O93 C74 1.247 . S
C94 O91 1.244 . S
C94 O92 1.240 . S
H95 C69 0.931 . S
H96 C78 0.931 . S
H97 C82 0.929 . S
H98 C84 0.930 . S
Co99 N103 2.148 . S
Co99 N109 2.128 . S
Co99 N119 2.194 . S
Co99 O124 2.351 . S
Co99 O125 2.155 . S
Co99 O126 2.096 . S
C100 N103 1.301 . S
C100 N104 1.328 . S
C100 H105 0.930 . S
C101 C102 1.333 . S
C101 N103 1.317 . S
C101 H106 0.930 . S
C102 C101 1.333 . S
C102 N104 1.350 . S
C102 H128 0.931 . S
N103 Co99 2.148 . S
N103 C100 1.301 . S
N103 C101 1.317 . S
N104 C100 1.328 . S
N104 C102 1.350 . S
H105 C100 0.930 . S
H106 C101 0.930 . S
C107 O108 1.224 . S
C107 O126 1.247 . S
O108 C107 1.224 . S
N109 Co99 2.128 . S
N109 C110 1.355 1_655 S
N109 C112 1.311 . S
C110 N109 1.355 1_455 S
C110 C111 1.363 . S
C110 H122 0.929 . S
C111 C110 1.363 . S
C111 N113 1.379 . S
C111 H129 0.931 . S
C112 N109 1.311 . S
C112 N113 1.342 1_655 S
C112 H123 0.929 . S
N113 C111 1.379 . S
N113 C112 1.342 1_455 S
C114 C117 1.365 . S
C114 N119 1.328 . S
C114 H120 0.929 . S
C115 C116 1.362 . S
C115 C118 1.378 . S
C115 H130 0.929 . S
C116 C115 1.362 . S
C116 C117 1.366 . S
C117 C114 1.365 . S
C117 C116 1.366 . S
C117 H131 0.930 . S
C118 C115 1.378 . S
C118 N119 1.315 . S
C118 H121 0.930 . S
N119 Co99 2.194 . S
N119 C114 1.328 . S
N119 C118 1.315 . S
H120 C114 0.929 . S
H121 C118 0.930 . S
H122 C110 0.929 . S
H123 C112 0.929 . S
O124 Co99 2.351 . S
O124 C127 1.244 . S
O125 Co99 2.155 . S
O125 C127 1.240 . S
O126 Co99 2.096 . S
O126 C107 1.247 . S
C127 O124 1.244 . S
C127 O125 1.240 . S
H128 C102 0.931 . S
H129 C111 0.931 . S
H130 C115 0.929 . S
H131 C117 0.930 . S
Co132 N136 2.148 . S
Co132 N142 2.128 . S
Co132 N152 2.194 . S
Co132 O157 2.351 . S
Co132 O158 2.155 . S
Co132 O159 2.096 . S
C133 N136 1.301 . S
C133 N137 1.328 . S
C133 H138 0.930 . S
C134 C135 1.333 . S
C134 N136 1.317 . S
C134 H139 0.930 . S
C135 C134 1.333 . S
C135 N137 1.350 . S
C135 H161 0.931 . S
N136 Co132 2.148 . S
N136 C133 1.301 . S
N136 C134 1.317 . S
N137 C133 1.328 . S
N137 C135 1.350 . S
H138 C133 0.930 . S
H139 C134 0.930 . S
C140 O141 1.224 . S
C140 O159 1.247 . S
O141 C140 1.224 . S
N142 Co132 2.128 . S
N142 C143 1.355 1_545 S
N142 C145 1.311 . S
C143 N142 1.355 1_565 S
C143 C144 1.363 . S
C143 H155 0.929 . S
C144 C143 1.363 . S
C144 N146 1.379 . S
C144 H162 0.931 . S
C145 N142 1.311 . S
C145 N146 1.342 1_545 S
C145 H156 0.929 . S
N146 C144 1.379 . S
N146 C145 1.342 1_565 S
C147 C150 1.365 . S
C147 N152 1.328 . S
C147 H153 0.929 . S
C148 C149 1.362 . S
C148 C151 1.378 . S
C148 H163 0.929 . S
C149 C148 1.362 . S
C149 C150 1.366 . S
C150 C147 1.365 . S
C150 C149 1.366 . S
C150 H164 0.930 . S
C151 C148 1.378 . S
C151 N152 1.315 . S
C151 H154 0.930 . S
N152 Co132 2.194 . S
N152 C147 1.328 . S
N152 C151 1.315 . S
H153 C147 0.929 . S
H154 C151 0.930 . S
H155 C143 0.929 . S
H156 C145 0.929 . S
O157 Co132 2.351 . S
O157 C160 1.244 . S
O158 Co132 2.155 . S
O158 C160 1.240 . S
O159 Co132 2.096 . S
O159 C140 1.247 . S
C160 O157 1.244 . S
C160 O158 1.240 . S
H161 C135 0.931 . S
H162 C144 0.931 . S
H163 C148 0.929 . S
H164 C150 0.930 . S
Co165 N169 2.148 . S
Co165 N175 2.128 . S
Co165 N185 2.194 . S
Co165 O190 2.351 . S
Co165 O191 2.155 . S
Co165 O192 2.096 . S
C166 N169 1.301 . S
C166 N170 1.328 . S
C166 H171 0.930 . S
C167 C168 1.333 . S
C167 N169 1.317 . S
C167 H172 0.930 . S
C168 C167 1.333 . S
C168 N170 1.350 . S
C168 H194 0.931 . S
N169 Co165 2.148 . S
N169 C166 1.301 . S
N169 C167 1.317 . S
N170 C166 1.328 . S
N170 C168 1.350 . S
H171 C166 0.930 . S
H172 C167 0.930 . S
C173 O174 1.224 . S
C173 O192 1.247 . S
O174 C173 1.224 . S
N175 Co165 2.128 . S
N175 C176 1.355 1_455 S
N175 C178 1.311 . S
C176 N175 1.355 1_655 S
C176 C177 1.363 . S
C176 H188 0.929 . S
C177 C176 1.363 . S
C177 N179 1.379 . S
C177 H195 0.931 . S
C178 N175 1.311 . S
C178 N179 1.342 1_455 S
C178 H189 0.929 . S
N179 C177 1.379 . S
N179 C178 1.342 1_655 S
C180 C183 1.365 . S
C180 N185 1.328 . S
C180 H186 0.929 . S
C181 C182 1.362 . S
C181 C184 1.378 . S
C181 H196 0.929 . S
C182 C181 1.362 . S
C182 C183 1.366 . S
C183 C180 1.365 . S
C183 C182 1.366 . S
C183 H197 0.930 . S
C184 C181 1.378 . S
C184 N185 1.315 . S
C184 H187 0.930 . S
N185 Co165 2.194 . S
N185 C180 1.328 . S
N185 C184 1.315 . S
H186 C180 0.929 . S
H187 C184 0.930 . S
H188 C176 0.929 . S
H189 C178 0.929 . S
O190 Co165 2.351 . S
O190 C193 1.244 . S
O191 Co165 2.155 . S
O191 C193 1.240 . S
O192 Co165 2.096 . S
O192 C173 1.247 . S
C193 O190 1.244 . S
C193 O191 1.240 . S
H194 C168 0.931 . S
H195 C177 0.931 . S
H196 C181 0.929 . S
H197 C183 0.930 . S
Co198 N202 2.148 . S
Co198 N208 2.128 . S
Co198 N218 2.194 . S
Co198 O223 2.351 . S
Co198 O224 2.155 . S
Co198 O225 2.096 . S
C199 N202 1.301 . S
C199 N203 1.328 . S
C199 H204 0.930 . S
C200 C201 1.333 . S
C200 N202 1.317 . S
C200 H205 0.930 . S
C201 C200 1.333 . S
C201 N203 1.350 . S
C201 H227 0.931 . S
N202 Co198 2.148 . S
N202 C199 1.301 . S
N202 C200 1.317 . S
N203 C199 1.328 . S
N203 C201 1.350 . S
H204 C199 0.930 . S
H205 C200 0.930 . S
C206 O207 1.224 . S
C206 O225 1.247 . S
O207 C206 1.224 . S
N208 Co198 2.128 . S
N208 C209 1.355 1_565 S
N208 C211 1.311 . S
C209 N208 1.355 1_545 S
C209 C210 1.363 . S
C209 H221 0.929 . S
C210 C209 1.363 . S
C210 N212 1.379 . S
C210 H228 0.931 . S
C211 N208 1.311 . S
C211 N212 1.342 1_565 S
C211 H222 0.929 . S
N212 C210 1.379 . S
N212 C211 1.342 1_545 S
C213 C216 1.365 . S
C213 N218 1.328 . S
C213 H219 0.929 . S
C214 C215 1.362 . S
C214 C217 1.378 . S
C214 H229 0.929 . S
C215 C214 1.362 . S
C215 C216 1.366 . S
C216 C213 1.365 . S
C216 C215 1.366 . S
C216 H230 0.930 . S
C217 C214 1.378 . S
C217 N218 1.315 . S
C217 H220 0.930 . S
N218 Co198 2.194 . S
N218 C213 1.328 . S
N218 C217 1.315 . S
H219 C213 0.929 . S
H220 C217 0.930 . S
H221 C209 0.929 . S
H222 C211 0.929 . S
O223 Co198 2.351 . S
O223 C226 1.244 . S
O224 Co198 2.155 . S
O224 C226 1.240 . S
O225 Co198 2.096 . S
O225 C206 1.247 . S
C226 O223 1.244 . S
C226 O224 1.240 . S
H227 C201 0.931 . S
H228 C210 0.931 . S
H229 C214 0.929 . S
H230 C216 0.930 . S
Co231 N235 2.148 . S
Co231 N241 2.128 . S
Co231 N251 2.194 . S
Co231 O256 2.351 . S
Co231 O257 2.155 . S
Co231 O258 2.096 . S
C232 N235 1.301 . S
C232 N236 1.328 . S
C232 H237 0.930 . S
C233 C234 1.333 . S
C233 N235 1.317 . S
C233 H238 0.930 . S
C234 C233 1.333 . S
C234 N236 1.350 . S
C234 H260 0.931 . S
N235 Co231 2.148 . S
N235 C232 1.301 . S
N235 C233 1.317 . S
N236 C232 1.328 . S
N236 C234 1.350 . S
H237 C232 0.930 . S
H238 C233 0.930 . S
C239 O240 1.224 . S
C239 O258 1.247 . S
O240 C239 1.224 . S
N241 Co231 2.128 . S
N241 C242 1.355 1_655 S
N241 C244 1.311 . S
C242 N241 1.355 1_455 S
C242 C243 1.363 . S
C242 H254 0.929 . S
C243 C242 1.363 . S
C243 N245 1.379 . S
C243 H261 0.931 . S
C244 N241 1.311 . S
C244 N245 1.342 1_655 S
C244 H255 0.929 . S
N245 C243 1.379 . S
N245 C244 1.342 1_455 S
C246 C249 1.365 . S
C246 N251 1.328 . S
C246 H252 0.929 . S
C247 C248 1.362 . S
C247 C250 1.378 . S
C247 H262 0.929 . S
C248 C247 1.362 . S
C248 C249 1.366 . S
C249 C246 1.365 . S
C249 C248 1.366 . S
C249 H263 0.930 . S
C250 C247 1.378 . S
C250 N251 1.315 . S
C250 H253 0.930 . S
N251 Co231 2.194 . S
N251 C246 1.328 . S
N251 C250 1.315 . S
H252 C246 0.929 . S
H253 C250 0.930 . S
H254 C242 0.929 . S
H255 C244 0.929 . S
O256 Co231 2.351 . S
O256 C259 1.244 . S
O257 Co231 2.155 . S
O257 C259 1.240 . S
O258 Co231 2.096 . S
O258 C239 1.247 . S
C259 O256 1.244 . S
C259 O257 1.240 . S
H260 C234 0.931 . S
H261 C243 0.931 . S
H262 C247 0.929 . S
H263 C249 0.930 . S
C264 C265 1.349 . S
C264 C266 1.327 . S
C264 H289 0.950 . S
C265 C264 1.349 . S
C265 C281 1.349 . S
C266 C264 1.327 . S
C266 C285 1.429 . S
C266 H290 0.950 . S
C267 C284 1.574 . S
C267 C286 1.368 . S
C267 H291 0.949 . S
H268 C272 0.949 . S
C269 C270 1.349 . S
C269 C271 1.327 . S
C269 H292 0.950 . S
C270 C269 1.349 . S
C270 C282 1.349 . S
C271 C269 1.327 . S
C271 C287 1.429 . S
C271 H293 0.950 . S
C272 H268 0.949 . S
C272 C280 1.574 . S
C272 C288 1.368 . S
H273 C281 0.950 1_545 S
H274 C279 0.950 . S
H275 C280 0.949 . S
H276 C282 0.950 . S
H277 C283 0.950 . S
H278 C284 0.949 . S
C279 H274 0.950 . S
C279 C281 1.327 . S
C279 C285 1.429 . S
C280 C272 1.574 . S
C280 H275 0.949 . S
C280 C286 1.368 . S
C281 C265 1.349 . S
C281 H273 0.950 1_565 S
C281 C279 1.327 . S
C282 C270 1.349 . S
C282 H276 0.950 . S
C282 C283 1.327 . S
C283 H277 0.950 . S
C283 C282 1.327 . S
C283 C287 1.429 . S
C284 C267 1.574 . S
C284 H278 0.949 . S
C284 C288 1.368 . S
C285 C266 1.429 . S
C285 C279 1.429 . S
C285 C286 1.523 . S
C286 C267 1.368 . S
C286 C280 1.368 . S
C286 C285 1.523 . S
C287 C271 1.429 . S
C287 C283 1.429 . S
C287 C288 1.523 . S
C288 C272 1.368 . S
C288 C284 1.368 . S
C288 C287 1.523 . S
H289 C264 0.950 . S
H290 C266 0.950 . S
H291 C267 0.949 . S
H292 C269 0.950 . S
H293 C271 0.950 . S
C294 C295 1.349 . S
C294 C296 1.327 . S
C294 H319 0.950 . S
C295 C294 1.349 . S
C295 C311 1.349 . S
C296 C294 1.327 . S
C296 C315 1.429 . S
C296 H320 0.950 . S
C297 C314 1.574 . S
C297 C316 1.368 . S
C297 H321 0.949 . S
H298 C302 0.949 . S
C299 C300 1.349 1_455 S
C299 C301 1.327 1_455 S
C299 H322 0.950 . S
C300 C299 1.349 1_655 S
C300 C312 1.349 . S
C301 C299 1.327 1_655 S
C301 C317 1.429 . S
C301 H323 0.950 . S
C302 H298 0.949 . S
C302 C310 1.574 . S
C302 C318 1.368 . S
H303 C311 0.950 . S
H304 C309 0.950 . S
H305 C310 0.949 . S
H306 C312 0.950 . S
H307 C313 0.950 . S
H308 C314 0.949 . S
C309 H304 0.950 . S
C309 C311 1.327 . S
C309 C315 1.429 . S
C310 C302 1.574 . S
C310 H305 0.949 . S
C310 C316 1.368 . S
C311 C295 1.349 . S
C311 H303 0.950 . S
C311 C309 1.327 . S
C312 C300 1.349 . S
C312 H306 0.950 . S
C312 C313 1.327 . S
C313 H307 0.950 . S
C313 C312 1.327 . S
C313 C317 1.429 . S
C314 C297 1.574 . S
C314 H308 0.949 . S
C314 C318 1.368 . S
C315 C296 1.429 . S
C315 C309 1.429 . S
C315 C316 1.523 . S
C316 C297 1.368 . S
C316 C310 1.368 . S
C316 C315 1.523 . S
C317 C301 1.429 . S
C317 C313 1.429 . S
C317 C318 1.523 . S
C318 C302 1.368 . S
C318 C314 1.368 . S
C318 C317 1.523 . S
H319 C294 0.950 . S
H320 C296 0.950 . S
H321 C297 0.949 . S
H322 C299 0.950 . S
H323 C301 0.950 . S
C324 C325 1.349 . S
C324 C326 1.327 . S
C324 H349 0.950 . S
C325 C324 1.349 . S
C325 C341 1.349 . S
C326 C324 1.327 . S
C326 C345 1.429 . S
C326 H350 0.950 . S
C327 C344 1.574 . S
C327 C346 1.368 . S
C327 H351 0.949 . S
H328 C332 0.949 . S
C329 C330 1.349 . S
C329 C331 1.327 . S
C329 H352 0.950 . S
C330 C329 1.349 . S
C330 C342 1.349 . S
C331 C329 1.327 . S
C331 C347 1.429 . S
C331 H353 0.950 . S
C332 H328 0.949 . S
C332 C340 1.574 . S
C332 C348 1.368 . S
H333 C341 0.950 . S
H334 C339 0.950 . S
H335 C340 0.949 . S
H336 C342 0.950 . S
H337 C343 0.950 . S
H338 C344 0.949 . S
C339 H334 0.950 . S
C339 C341 1.327 . S
C339 C345 1.429 . S
C340 C332 1.574 . S
C340 H335 0.949 . S
C340 C346 1.368 . S
C341 C325 1.349 . S
C341 H333 0.950 . S
C341 C339 1.327 . S
C342 C330 1.349 . S
C342 H336 0.950 . S
C342 C343 1.327 . S
C343 H337 0.950 . S
C343 C342 1.327 . S
C343 C347 1.429 . S
C344 C327 1.574 . S
C344 H338 0.949 . S
C344 C348 1.368 . S
C345 C326 1.429 . S
C345 C339 1.429 . S
C345 C346 1.523 . S
C346 C327 1.368 . S
C346 C340 1.368 . S
C346 C345 1.523 . S
C347 C331 1.429 . S
C347 C343 1.429 . S
C347 C348 1.523 . S
C348 C332 1.368 . S
C348 C344 1.368 . S
C348 C347 1.523 . S
H349 C324 0.950 . S
H350 C326 0.950 . S
H351 C327 0.949 . S
H352 C329 0.950 . S
H353 C331 0.950 . S
C354 C355 1.349 . S
C354 C356 1.327 . S
C354 H379 0.950 . S
C355 C354 1.349 . S
C355 C371 1.349 . S
C356 C354 1.327 . S
C356 C375 1.429 . S
C356 H380 0.950 . S
C357 C374 1.574 . S
C357 C376 1.368 . S
C357 H381 0.949 . S
H358 C362 0.949 . S
C359 C360 1.349 . S
C359 C361 1.327 . S
C359 H382 0.950 . S
C360 C359 1.349 . S
C360 C372 1.349 1_455 S
C361 C359 1.327 . S
C361 C377 1.429 . S
C361 H383 0.950 . S
C362 H358 0.949 . S
C362 C370 1.574 . S
C362 C378 1.368 . S
H363 C371 0.950 . S
H364 C369 0.950 . S
H365 C370 0.949 . S
H366 C372 0.950 . S
H367 C373 0.950 . S
H368 C374 0.949 . S
C369 H364 0.950 . S
C369 C371 1.327 . S
C369 C375 1.429 . S
C370 C362 1.574 . S
C370 H365 0.949 . S
C370 C376 1.368 . S
C371 C355 1.349 . S
C371 H363 0.950 . S
C371 C369 1.327 . S
C372 C360 1.349 1_655 S
C372 H366 0.950 . S
C372 C373 1.327 1_655 S
C373 H367 0.950 . S
C373 C372 1.327 1_455 S
C373 C377 1.429 . S
C374 C357 1.574 . S
C374 H368 0.949 . S
C374 C378 1.368 . S
C375 C356 1.429 . S
C375 C369 1.429 . S
C375 C376 1.523 . S
C376 C357 1.368 . S
C376 C370 1.368 . S
C376 C375 1.523 . S
C377 C361 1.429 . S
C377 C373 1.429 . S
C377 C378 1.523 . S
C378 C362 1.368 . S
C378 C374 1.368 . S
C378 C377 1.523 . S
H379 C354 0.950 . S
H380 C356 0.950 . S
H381 C357 0.949 . S
H382 C359 0.950 . S
H383 C361 0.950 . S
C384 C385 1.349 . S
C384 C386 1.327 . S
C384 H409 0.950 . S
C385 C384 1.349 . S
C385 C401 1.349 . S
C386 C384 1.327 . S
C386 C405 1.429 . S
C386 H410 0.950 . S
C387 C404 1.574 . S
C387 C406 1.368 . S
C387 H411 0.949 . S
H388 C392 0.949 . S
C389 C390 1.349 1_545 S
C389 C391 1.327 1_545 S
C389 H412 0.950 . S
C390 C389 1.349 1_565 S
C390 C402 1.349 . S
C391 C389 1.327 1_565 S
C391 C407 1.429 . S
C391 H413 0.950 . S
C392 H388 0.949 . S
C392 C400 1.574 1_554 S
C392 C408 1.368 . S
H393 C401 0.950 . S
H394 C399 0.950 . S
H395 C400 0.949 . S
H396 C402 0.950 . S
H397 C403 0.950 . S
H398 C404 0.949 . S
C399 H394 0.950 . S
C399 C401 1.327 . S
C399 C405 1.429 . S
C400 C392 1.574 1_556 S
C400 H395 0.949 . S
C400 C406 1.368 . S
C401 C385 1.349 . S
C401 H393 0.950 . S
C401 C399 1.327 . S
C402 C390 1.349 . S
C402 H396 0.950 . S
C402 C403 1.327 . S
C403 H397 0.950 . S
C403 C402 1.327 . S
C403 C407 1.429 . S
C404 C387 1.574 . S
C404 H398 0.949 . S
C404 C408 1.368 1_556 S
C405 C386 1.429 . S
C405 C399 1.429 . S
C405 C406 1.523 . S
C406 C387 1.368 . S
C406 C400 1.368 . S
C406 C405 1.523 . S
C407 C391 1.429 . S
C407 C403 1.429 . S
C407 C408 1.523 . S
C408 C392 1.368 . S
C408 C404 1.368 1_554 S
C408 C407 1.523 . S
H409 C384 0.950 . S
H410 C386 0.950 . S
H411 C387 0.949 . S
H412 C389 0.950 . S
H413 C391 0.950 . S
C414 C415 1.349 . S
C414 C416 1.327 . S
C414 H439 0.950 . S
C415 C414 1.349 . S
C415 C431 1.349 . S
C416 C414 1.327 . S
C416 C435 1.429 . S
C416 H440 0.950 . S
C417 C434 1.574 . S
C417 C436 1.368 . S
C417 H441 0.949 . S
H418 C422 0.949 . S
C419 C420 1.350 . S
C419 C421 1.334 . S
C419 H442 0.941 1_655 S
C420 C419 1.350 . S
C420 C432 1.349 . S
C421 C419 1.334 . S
C421 C437 1.429 . S
C421 H443 0.950 . S
C422 H418 0.949 . S
C422 C430 1.574 1_556 S
C422 C438 1.368 . S
H423 C431 0.950 . S
H424 C429 0.950 . S
H425 C430 0.949 . S
H426 C432 0.950 . S
H427 C433 0.950 . S
H428 C434 0.949 . S
C429 H424 0.950 . S
C429 C431 1.327 . S
C429 C435 1.429 . S
C430 C422 1.574 1_554 S
C430 H425 0.949 . S
C430 C436 1.368 . S
C431 C415 1.349 . S
C431 H423 0.950 . S
C431 C429 1.327 . S
C432 C420 1.349 . S
C432 H426 0.950 . S
C432 C433 1.327 . S
C433 H427 0.950 . S
C433 C432 1.327 . S
C433 C437 1.429 . S
C434 C417 1.574 . S
C434 H428 0.949 . S
C434 C438 1.368 1_554 S
C435 C416 1.429 . S
C435 C429 1.429 . S
C435 C436 1.523 . S
C436 C417 1.368 . S
C436 C430 1.368 . S
C436 C435 1.523 . S
C437 C421 1.429 . S
C437 C433 1.429 . S
C437 C438 1.523 . S
C438 C422 1.368 . S
C438 C434 1.368 1_556 S
C438 C437 1.523 . S
H439 C414 0.950 . S
H440 C416 0.950 . S
H441 C417 0.949 . S
H442 C419 0.941 1_455 S
H443 C421 0.950 . S
C444 C445 1.349 . S
C444 C446 1.327 . S
C444 H469 0.950 . S
C445 C444 1.349 . S
C445 C461 1.349 . S
C446 C444 1.327 . S
C446 C465 1.429 . S
C446 H470 0.950 . S
C447 C464 1.574 . S
C447 C466 1.368 . S
C447 H471 0.949 . S
H448 C452 0.949 . S
C449 C450 1.349 1_565 S
C449 C451 1.327 1_565 S
C449 H472 0.950 . S
C450 C449 1.349 1_545 S
C450 C462 1.349 . S
C451 C449 1.327 1_545 S
C451 C467 1.429 . S
C451 H473 0.950 . S
C452 H448 0.949 . S
C452 C460 1.574 1_554 S
C452 C468 1.368 . S
H453 C461 0.950 . S
H454 C459 0.950 . S
H455 C460 0.949 . S
H456 C462 0.950 . S
H457 C463 0.950 . S
H458 C464 0.949 . S
C459 H454 0.950 . S
C459 C461 1.327 . S
C459 C465 1.429 . S
C460 C452 1.574 1_556 S
C460 H455 0.949 . S
C460 C466 1.368 . S
C461 C445 1.349 . S
C461 H453 0.950 . S
C461 C459 1.327 . S
C462 C450 1.349 . S
C462 H456 0.950 . S
C462 C463 1.327 . S
C463 H457 0.950 . S
C463 C462 1.327 . S
C463 C467 1.429 . S
C464 C447 1.574 . S
C464 H458 0.949 . S
C464 C468 1.368 1_556 S
C465 C446 1.429 . S
C465 C459 1.429 . S
C465 C466 1.523 . S
C466 C447 1.368 . S
C466 C460 1.368 . S
C466 C465 1.523 . S
C467 C451 1.429 . S
C467 C463 1.429 . S
C467 C468 1.523 . S
C468 C452 1.368 . S
C468 C464 1.368 1_554 S
C468 C467 1.523 . S
H469 C444 0.950 . S
H470 C446 0.950 . S
H471 C447 0.949 . S
H472 C449 0.950 . S
H473 C451 0.950 . S
C474 C475 1.349 . S
C474 C476 1.327 . S
C474 H499 0.950 . S
C475 C474 1.349 . S
C475 C491 1.349 . S
C476 C474 1.327 . S
C476 C495 1.429 . S
C476 H500 0.950 . S
C477 C494 1.531 1_556 S
C477 C496 1.372 . S
C477 H501 0.987 . S
H478 C482 0.949 . S
C479 C480 1.349 . S
C479 C481 1.327 . S
C479 H502 0.950 . S
C480 C479 1.349 . S
C480 C492 1.349 . S
C481 C479 1.327 . S
C481 C497 1.429 . S
C481 H503 0.950 . S
C482 H478 0.949 . S
C482 C490 1.574 . S
C482 C498 1.368 . S
H483 C491 0.950 . S
H484 C489 0.950 . S
H485 C490 0.949 . S
H486 C492 0.950 . S
H487 C493 0.950 . S
H488 C494 0.949 . S
C489 H484 0.950 . S
C489 C491 1.327 . S
C489 C495 1.429 . S
C490 C482 1.574 . S
C490 H485 0.949 . S
C490 C496 1.368 1_554 S
C491 C475 1.349 . S
C491 H483 0.950 . S
C491 C489 1.327 . S
C492 C480 1.349 . S
C492 H486 0.950 . S
C492 C493 1.327 . S
C493 H487 0.950 . S
C493 C492 1.327 . S
C493 C497 1.429 . S
C494 C477 1.531 1_554 S
C494 H488 0.949 . S
C494 C498 1.368 . S
C495 C476 1.429 . S
C495 C489 1.429 . S
C495 C496 1.523 . S
C496 C477 1.372 . S
C496 C490 1.368 1_556 S
C496 C495 1.523 . S
C497 C481 1.429 . S
C497 C493 1.429 . S
C497 C498 1.523 . S
C498 C482 1.368 . S
C498 C494 1.368 . S
C498 C497 1.523 . S
H499 C474 0.950 . S
H500 C476 0.950 . S
H501 C477 0.987 . S
H502 C479 0.950 . S
H503 C481 0.950 . S
C504 C505 1.349 . S
C504 C506 1.327 . S
C504 H529 0.950 1_565 S
C505 C504 1.349 . S
C505 C521 1.349 . S
C506 C504 1.327 . S
C506 C525 1.429 . S
C506 H530 0.950 1_565 S
C507 C524 1.574 . S
C507 C526 1.368 . S
C507 H531 0.949 . S
H508 C512 0.949 . S
C509 C510 1.349 . S
C509 C511 1.327 . S
C509 H532 0.950 1_545 S
C510 C509 1.349 . S
C510 C522 1.349 . S
C511 C509 1.327 . S
C511 C527 1.429 . S
C511 H533 0.950 1_545 S
C512 H508 0.949 . S
C512 C520 1.574 . S
C512 C528 1.368 . S
H513 C521 0.950 . S
H514 C519 0.950 . S
H515 C520 0.949 . S
H516 C522 0.950 . S
H517 C523 0.950 . S
H518 C524 0.949 . S
C519 H514 0.950 . S
C519 C521 1.327 . S
C519 C525 1.429 . S
C520 C512 1.574 . S
C520 H515 0.949 . S
C520 C526 1.368 1_545 S
C521 C505 1.349 . S
C521 H513 0.950 . S
C521 C519 1.327 . S
C522 C510 1.349 . S
C522 H516 0.950 . S
C522 C523 1.327 . S
C523 H517 0.950 . S
C523 C522 1.327 . S
C523 C527 1.429 . S
C524 C507 1.574 . S
C524 H518 0.949 . S
C524 C528 1.368 1_565 S
C525 C506 1.429 . S
C525 C519 1.429 . S
C525 C526 1.523 . S
C526 C507 1.368 . S
C526 C520 1.368 1_565 S
C526 C525 1.523 . S
C527 C511 1.429 . S
C527 C523 1.429 . S
C527 C528 1.523 . S
C528 C512 1.368 . S
C528 C524 1.368 1_545 S
C528 C527 1.523 . S
H529 C504 0.950 1_545 S
H530 C506 0.950 1_545 S
H531 C507 0.949 . S
H532 C509 0.950 1_565 S
H533 C511 0.950 1_565 S
C534 C535 1.349 . S
C534 C536 1.327 . S
C534 H559 0.950 . S
C535 C534 1.349 . S
C535 C551 1.349 . S
C536 C534 1.327 . S
C536 C555 1.429 . S
C536 H560 0.950 . S
C537 C554 1.574 . S
C537 C556 1.368 1_655 S
C537 H561 0.949 . S
H538 C542 0.949 . S
C539 C540 1.349 . S
C539 C541 1.327 . S
C539 H562 0.950 . S
C540 C539 1.349 . S
C540 C552 1.349 . S
C541 C539 1.327 . S
C541 C557 1.429 . S
C541 H563 0.950 . S
C542 H538 0.949 . S
C542 C550 1.574 . S
C542 C558 1.368 1_455 S
H543 C551 0.950 1_655 S
H544 C549 0.950 1_655 S
H545 C550 0.949 . S
H546 C552 0.950 1_455 S
H547 C553 0.950 1_455 S
H548 C554 0.949 . S
C549 H544 0.950 1_455 S
C549 C551 1.327 . S
C549 C555 1.429 . S
C550 C542 1.574 . S
C550 H545 0.949 . S
C550 C556 1.368 . S
C551 C535 1.349 . S
C551 H543 0.950 1_455 S
C551 C549 1.327 . S
C552 C540 1.349 . S
C552 H546 0.950 1_655 S
C552 C553 1.327 . S
C553 H547 0.950 1_655 S
C553 C552 1.327 . S
C553 C557 1.429 . S
C554 C537 1.574 . S
C554 H548 0.949 . S
C554 C558 1.368 . S
C555 C536 1.429 . S
C555 C549 1.429 . S
C555 C556 1.523 . S
C556 C537 1.368 1_455 S
C556 C550 1.368 . S
C556 C555 1.523 . S
C557 C541 1.429 . S
C557 C553 1.429 . S
C557 C558 1.523 . S
C558 C542 1.368 1_655 S
C558 C554 1.368 . S
C558 C557 1.523 . S
H559 C534 0.950 . S
H560 C536 0.950 . S
H561 C537 0.949 . S
H562 C539 0.950 . S
H563 C541 0.950 . S
C564 C565 1.349 . S
C564 C566 1.327 . S
C564 H589 0.950 1_545 S
C565 C564 1.349 . S
C565 C581 1.349 . S
C566 C564 1.327 . S
C566 C585 1.429 . S
C566 H590 0.950 1_545 S
C567 C584 1.574 . S
C567 C586 1.368 . S
C567 H591 0.949 . S
H568 C572 0.949 . S
C569 C570 1.349 . S
C569 C571 1.327 . S
C569 H592 0.950 1_565 S
C570 C569 1.349 . S
C570 C582 1.349 . S
C571 C569 1.327 . S
C571 C587 1.429 . S
C571 H593 0.950 1_565 S
C572 H568 0.949 . S
C572 C580 1.574 . S
C572 C588 1.368 . S
H573 C581 0.950 . S
H574 C579 0.950 . S
H575 C580 0.949 . S
H576 C582 0.950 . S
H577 C583 0.950 . S
H578 C584 0.949 . S
C579 H574 0.950 . S
C579 C581 1.327 . S
C579 C585 1.429 . S
C580 C572 1.574 . S
C580 H575 0.949 . S
C580 C586 1.368 1_565 S
C581 C565 1.349 . S
C581 H573 0.950 . S
C581 C579 1.327 . S
C582 C570 1.349 . S
C582 H576 0.950 . S
C582 C583 1.327 . S
C583 H577 0.950 . S
C583 C582 1.327 . S
C583 C587 1.429 . S
C584 C567 1.574 . S
C584 H578 0.949 . S
C584 C588 1.368 1_545 S
C585 C566 1.429 . S
C585 C579 1.429 . S
C585 C586 1.523 . S
C586 C567 1.368 . S
C586 C580 1.368 1_545 S
C586 C585 1.523 . S
C587 C571 1.429 . S
C587 C583 1.429 . S
C587 C588 1.523 . S
C588 C572 1.368 . S
C588 C584 1.368 1_565 S
C588 C587 1.523 . S
H589 C564 0.950 1_565 S
H590 C566 0.950 1_565 S
H591 C567 0.949 . S
H592 C569 0.950 1_545 S
H593 C571 0.950 1_545 S
C594 C595 1.349 . S
C594 C596 1.327 . S
C594 H619 0.950 . S
C595 C594 1.349 . S
C595 C611 1.349 . S
C596 C594 1.327 . S
C596 C615 1.429 . S
C596 H620 0.950 . S
C597 C614 1.574 . S
C597 C616 1.368 1_655 S
C597 H621 0.949 . S
H598 C602 0.949 . S
C599 C600 1.349 . S
C599 C601 1.327 . S
C599 H622 0.950 . S
C600 C599 1.349 . S
C600 C612 1.349 . S
C601 C599 1.327 . S
C601 C617 1.429 . S
C601 H623 0.950 . S
C602 H598 0.949 . S
C602 C610 1.574 . S
C602 C618 1.368 1_455 S
H603 C611 0.950 1_655 S
H604 C609 0.950 1_655 S
H605 C610 0.949 . S
H606 C612 0.950 1_455 S
H607 C613 0.950 1_455 S
H608 C614 0.949 . S
C609 H604 0.950 1_455 S
C609 C611 1.327 . S
C609 C615 1.429 . S
C610 C602 1.574 . S
C610 H605 0.949 . S
C610 C616 1.368 . S
C611 C595 1.349 . S
C611 H603 0.950 1_455 S
C611 C609 1.327 . S
C612 C600 1.349 . S
C612 H606 0.950 1_655 S
C612 C613 1.327 . S
C613 H607 0.950 1_655 S
C613 C612 1.327 . S
C613 C617 1.429 . S
C614 C597 1.574 . S
C614 H608 0.949 . S
C614 C618 1.368 . S
C615 C596 1.429 . S
C615 C609 1.429 . S
C615 C616 1.523 . S
C616 C597 1.368 1_455 S
C616 C610 1.368 . S
C616 C615 1.523 . S
C617 C601 1.429 . S
C617 C613 1.429 . S
C617 C618 1.523 . S
C618 C602 1.368 1_655 S
C618 C614 1.368 . S
C618 C617 1.523 . S
H619 C594 0.950 . S
H620 C596 0.950 . S
H621 C597 0.949 . S
H622 C599 0.950 . S
H623 C601 0.950 . S
C624 C625 1.349 . S
C624 C626 1.327 . S
C624 H649 0.950 . S
C625 C624 1.349 . S
C625 C641 1.349 1_545 S
C626 C624 1.327 . S
C626 C645 1.429 . S
C626 H650 0.950 . S
C627 C644 1.574 1_455 S
C627 C646 1.368 1_565 S
C627 H651 0.949 . S
H628 C632 0.949 . S
C629 C630 1.349 . S
C629 C631 1.327 . S
C629 H652 0.950 . S
C630 C629 1.349 . S
C630 C642 1.349 1_565 S
C631 C629 1.327 . S
C631 C647 1.429 . S
C631 H653 0.950 . S
C632 H628 0.949 . S
C632 C640 1.574 1_655 S
C632 C648 1.368 1_545 S
H633 C641 0.950 . S
H634 C639 0.950 . S
H635 C640 0.949 . S
H636 C642 0.950 . S
H637 C643 0.950 . S
H638 C644 0.949 . S
C639 H634 0.950 . S
C639 C641 1.327 . S
C639 C645 1.429 1_565 S
C640 C632 1.574 1_455 S
C640 H635 0.949 . S
C640 C646 1.368 . S
C641 C625 1.349 1_565 S
C641 H633 0.950 . S
C641 C639 1.327 . S
C642 C630 1.349 1_545 S
C642 H636 0.950 . S
C642 C643 1.327 . S
C643 H637 0.950 . S
C643 C642 1.327 . S
C643 C647 1.429 1_545 S
C644 C627 1.574 1_655 S
C644 H638 0.949 . S
C644 C648 1.368 . S
C645 C626 1.429 . S
C645 C639 1.429 1_545 S
C645 C646 1.523 . S
C646 C627 1.368 1_545 S
C646 C640 1.368 . S
C646 C645 1.523 . S
C647 C631 1.429 . S
C647 C643 1.429 1_565 S
C647 C648 1.523 . S
C648 C632 1.368 1_565 S
C648 C644 1.368 . S
C648 C647 1.523 . S
H649 C624 0.950 . S
H650 C626 0.950 . S
H651 C627 0.949 . S
H652 C629 0.950 . S
H653 C631 0.950 . S
C654 C655 1.349 1_655 S
C654 C656 1.327 . S
C654 H679 0.950 . S
C655 C654 1.349 1_455 S
C655 C671 1.349 . S
C656 C654 1.327 . S
C656 C675 1.429 1_655 S
C656 H680 0.950 . S
C657 C674 1.574 1_565 S
C657 C676 1.368 . S
C657 H681 0.949 . S
H658 C662 0.949 . S
C659 C660 1.349 1_455 S
C659 C661 1.327 . S
C659 H682 0.950 . S
C660 C659 1.349 1_655 S
C660 C672 1.349 . S
C661 C659 1.327 . S
C661 C677 1.429 1_455 S
C661 H683 0.950 . S
C662 H658 0.949 . S
C662 C670 1.574 1_545 S
C662 C678 1.368 . S
H663 C671 0.950 . S
H664 C669 0.950 . S
H665 C670 0.949 . S
H666 C672 0.950 . S
H667 C673 0.950 . S
H668 C674 0.949 . S
C669 H664 0.950 . S
C669 C671 1.327 . S
C669 C675 1.429 . S
C670 C662 1.574 1_565 S
C670 H665 0.949 . S
C670 C676 1.368 1_655 S
C671 C655 1.349 . S
C671 H663 0.950 . S
C671 C669 1.327 . S
C672 C660 1.349 . S
C672 H666 0.950 . S
C672 C673 1.327 . S
C673 H667 0.950 . S
C673 C672 1.327 . S
C673 C677 1.429 . S
C674 C657 1.574 1_545 S
C674 H668 0.949 . S
C674 C678 1.368 1_455 S
C675 C656 1.429 1_455 S
C675 C669 1.429 . S
C675 C676 1.523 . S
C676 C657 1.368 . S
C676 C670 1.368 1_455 S
C676 C675 1.523 . S
C677 C661 1.429 1_655 S
C677 C673 1.429 . S
C677 C678 1.523 . S
C678 C662 1.368 . S
C678 C674 1.368 1_655 S
C678 C677 1.523 . S
H679 C654 0.950 . S
H680 C656 0.950 . S
H681 C657 0.949 . S
H682 C659 0.950 . S
H683 C661 0.950 . S
C684 C685 1.349 1_545 S
C684 C686 1.327 . S
C684 H709 0.950 . S
C685 C684 1.349 1_565 S
C685 C701 1.349 . S
C686 C684 1.327 . S
C686 C705 1.429 1_545 S
C686 H710 0.950 . S
C687 C704 1.574 1_455 S
C687 C706 1.368 . S
C687 H711 0.949 . S
H688 C692 0.949 . S
C689 C690 1.349 1_565 S
C689 C691 1.327 . S
C689 H712 0.950 . S
C690 C689 1.349 1_545 S
C690 C702 1.349 . S
C691 C689 1.327 . S
C691 C707 1.429 1_565 S
C691 H713 0.950 . S
C692 H688 0.949 . S
C692 C700 1.574 1_655 S
C692 C708 1.368 . S
H693 C701 0.950 . S
H694 C699 0.950 . S
H695 C700 0.949 . S
H696 C702 0.950 . S
H697 C703 0.950 . S
H698 C704 0.949 . S
C699 H694 0.950 . S
C699 C701 1.327 . S
C699 C705 1.429 . S
C700 C692 1.574 1_455 S
C700 H695 0.949 . S
C700 C706 1.368 1_545 S
C701 C685 1.349 . S
C701 H693 0.950 . S
C701 C699 1.327 . S
C702 C690 1.349 . S
C702 H696 0.950 . S
C702 C703 1.327 . S
C703 H697 0.950 . S
C703 C702 1.327 . S
C703 C707 1.429 . S
C704 C687 1.574 1_655 S
C704 H698 0.949 . S
C704 C708 1.368 1_565 S
C705 C686 1.429 1_565 S
C705 C699 1.429 . S
C705 C706 1.523 . S
C706 C687 1.368 . S
C706 C700 1.368 1_565 S
C706 C705 1.523 . S
C707 C691 1.429 1_545 S
C707 C703 1.429 . S
C707 C708 1.523 . S
C708 C692 1.368 . S
C708 C704 1.368 1_545 S
C708 C707 1.523 . S
H709 C684 0.950 . S
H710 C686 0.950 . S
H711 C687 0.949 . S
H712 C689 0.950 . S
H713 C691 0.950 . S
C714 C715 1.349 . S
C714 C716 1.327 . S
C714 H739 0.950 . S
C715 C714 1.349 . S
C715 C731 1.349 1_655 S
C716 C714 1.327 . S
C716 C735 1.429 . S
C716 H740 0.950 . S
C717 C734 1.574 1_565 S
C717 C736 1.368 1_455 S
C717 H741 0.949 . S
H718 C722 0.949 . S
C719 C720 1.349 . S
C719 C721 1.327 . S
C719 H742 0.950 . S
C720 C719 1.349 . S
C720 C732 1.349 1_455 S
C721 C719 1.327 . S
C721 C737 1.429 . S
C721 H743 0.950 . S
C722 H718 0.949 . S
C722 C730 1.574 1_545 S
C722 C738 1.368 1_655 S
H723 C731 0.950 . S
H724 C729 0.950 . S
H725 C730 0.949 . S
H726 C732 0.950 . S
H727 C733 0.950 . S
H728 C734 0.949 . S
C729 H724 0.950 . S
C729 C731 1.327 . S
C729 C735 1.429 1_455 S
C730 C722 1.574 1_565 S
C730 H725 0.949 . S
C730 C736 1.368 . S
C731 C715 1.349 1_455 S
C731 H723 0.950 . S
C731 C729 1.327 . S
C732 C720 1.349 1_655 S
C732 H726 0.950 . S
C732 C733 1.327 . S
C733 H727 0.950 . S
C733 C732 1.327 . S
C733 C737 1.429 1_655 S
C734 C717 1.574 1_545 S
C734 H728 0.949 . S
C734 C738 1.368 . S
C735 C716 1.429 . S
C735 C729 1.429 1_655 S
C735 C736 1.523 . S
C736 C717 1.368 1_655 S
C736 C730 1.368 . S
C736 C735 1.523 . S
C737 C721 1.429 . S
C737 C733 1.429 1_455 S
C737 C738 1.523 . S
C738 C722 1.368 1_455 S
C738 C734 1.368 . S
C738 C737 1.523 . S
H739 C714 0.950 . S
H740 C716 0.950 . S
H741 C717 0.949 . S
H742 C719 0.950 . S
H743 C721 0.950 . S
C744 C745 1.349 . S
C744 C746 1.327 . S
C744 H769 0.950 . S
C745 C744 1.349 . S
C745 C761 1.349 . S
C746 C744 1.327 . S
C746 C765 1.429 . S
C746 H770 0.950 . S
C747 C764 1.574 . S
C747 C766 1.368 . S
C747 H771 0.949 . S
H748 C752 0.949 . S
C749 C750 1.349 . S
C749 C751 1.327 . S
C749 H772 0.950 . S
C750 C749 1.349 . S
C750 C762 1.349 . S
C751 C749 1.327 . S
C751 C767 1.429 . S
C751 H773 0.950 . S
C752 H748 0.949 . S
C752 C760 1.574 . S
C752 C768 1.368 . S
H753 C761 0.950 . S
H754 C759 0.950 . S
H755 C760 0.949 . S
H756 C762 0.950 . S
H757 C763 0.950 . S
H758 C764 0.949 . S
C759 H754 0.950 . S
C759 C761 1.327 . S
C759 C765 1.429 . S
C760 C752 1.574 . S
C760 H755 0.949 . S
C760 C766 1.368 . S
C761 C745 1.349 . S
C761 H753 0.950 . S
C761 C759 1.327 . S
C762 C750 1.349 . S
C762 H756 0.950 . S
C762 C763 1.327 . S
C763 H757 0.950 . S
C763 C762 1.327 . S
C763 C767 1.429 . S
C764 C747 1.574 . S
C764 H758 0.949 . S
C764 C768 1.368 . S
C765 C746 1.429 . S
C765 C759 1.429 . S
C765 C766 1.523 . S
C766 C747 1.368 . S
C766 C760 1.368 . S
C766 C765 1.523 . S
C767 C751 1.429 . S
C767 C763 1.429 . S
C767 C768 1.523 . S
C768 C752 1.368 . S
C768 C764 1.368 . S
C768 C767 1.523 . S
H769 C744 0.950 . S
H770 C746 0.950 . S
H771 C747 0.949 . S
H772 C749 0.950 . S
H773 C751 0.950 . S
C774 C775 1.349 . S
C774 C776 1.327 . S
C774 H799 0.950 . S
C775 C774 1.349 . S
C775 C791 1.349 . S
C776 C774 1.327 . S
C776 C795 1.429 . S
C776 H800 0.950 . S
C777 C794 1.574 . S
C777 C796 1.368 . S
C777 H801 0.949 . S
H778 C782 0.949 . S
C779 C780 1.349 . S
C779 C781 1.327 . S
C779 H802 0.950 . S
C780 C779 1.349 . S
C780 C792 1.349 . S
C781 C779 1.327 . S
C781 C797 1.429 . S
C781 H803 0.950 . S
C782 H778 0.949 . S
C782 C790 1.574 . S
C782 C798 1.368 . S
H783 C791 0.950 . S
H784 C789 0.950 . S
H785 C790 0.949 . S
H786 C792 0.950 . S
H787 C793 0.950 . S
H788 C794 0.949 . S
C789 H784 0.950 . S
C789 C791 1.327 . S
C789 C795 1.429 . S
C790 C782 1.574 . S
C790 H785 0.949 . S
C790 C796 1.368 . S
C791 C775 1.349 . S
C791 H783 0.950 . S
C791 C789 1.327 . S
C792 C780 1.349 . S
C792 H786 0.950 . S
C792 C793 1.327 . S
C793 H787 0.950 . S
C793 C792 1.327 . S
C793 C797 1.429 . S
C794 C777 1.574 . S
C794 H788 0.949 . S
C794 C798 1.368 . S
C795 C776 1.429 . S
C795 C789 1.429 . S
C795 C796 1.523 . S
C796 C777 1.368 . S
C796 C790 1.368 . S
C796 C795 1.523 . S
C797 C781 1.429 . S
C797 C793 1.429 . S
C797 C798 1.523 . S
C798 C782 1.368 . S
C798 C794 1.368 . S
C798 C797 1.523 . S
H799 C774 0.950 . S
H800 C776 0.950 . S
H801 C777 0.949 . S
H802 C779 0.950 . S
H803 C781 0.950 . S
C804 C805 1.349 . S
C804 C806 1.327 . S
C804 H829 0.950 . S
C805 C804 1.349 . S
C805 C821 1.349 . S
C806 C804 1.327 . S
C806 C825 1.429 . S
C806 H830 0.950 . S
C807 C824 1.574 . S
C807 C826 1.368 . S
C807 H831 0.949 . S
H808 C812 0.949 . S
C809 C810 1.349 . S
C809 C811 1.327 . S
C809 H832 0.950 . S
C810 C809 1.349 . S
C810 C822 1.349 . S
C811 C809 1.327 . S
C811 C827 1.429 . S
C811 H833 0.950 . S
C812 H808 0.949 . S
C812 C820 1.574 . S
C812 C828 1.368 . S
H813 C821 0.950 . S
H814 C819 0.950 . S
H815 C820 0.949 . S
H816 C822 0.950 . S
H817 C823 0.950 . S
H818 C824 0.949 . S
C819 H814 0.950 . S
C819 C821 1.327 . S
C819 C825 1.429 . S
C820 C812 1.574 . S
C820 H815 0.949 . S
C820 C826 1.368 . S
C821 C805 1.349 . S
C821 H813 0.950 . S
C821 C819 1.327 . S
C822 C810 1.349 . S
C822 H816 0.950 . S
C822 C823 1.327 . S
C823 H817 0.950 . S
C823 C822 1.327 . S
C823 C827 1.429 . S
C824 C807 1.574 . S
C824 H818 0.949 . S
C824 C828 1.368 . S
C825 C806 1.429 . S
C825 C819 1.429 . S
C825 C826 1.523 . S
C826 C807 1.368 . S
C826 C820 1.368 . S
C826 C825 1.523 . S
C827 C811 1.429 . S
C827 C823 1.429 . S
C827 C828 1.523 . S
C828 C812 1.368 . S
C828 C824 1.368 . S
C828 C827 1.523 . S
H829 C804 0.950 . S
H830 C806 0.950 . S
H831 C807 0.949 . S
H832 C809 0.950 . S
H833 C811 0.950 . S
C834 C835 1.349 . S
C834 C836 1.327 . S
C834 H859 0.950 . S
C835 C834 1.349 . S
C835 C851 1.349 . S
C836 C834 1.327 . S
C836 C855 1.429 . S
C836 H860 0.950 . S
C837 C854 1.574 . S
C837 C856 1.368 . S
C837 H861 0.949 . S
H838 C842 0.949 . S
C839 C840 1.349 . S
C839 C841 1.327 . S
C839 H862 0.950 . S
C840 C839 1.349 . S
C840 C852 1.349 . S
C841 C839 1.327 . S
C841 C857 1.429 . S
C841 H863 0.950 . S
C842 H838 0.949 . S
C842 C850 1.574 . S
C842 C858 1.368 . S
H843 C851 0.950 . S
H844 C849 0.950 . S
H845 C850 0.949 . S
H846 C852 0.950 . S
H847 C853 0.950 . S
H848 C854 0.949 . S
C849 H844 0.950 . S
C849 C851 1.327 . S
C849 C855 1.429 . S
C850 C842 1.574 . S
C850 H845 0.949 . S
C850 C856 1.368 . S
C851 C835 1.349 . S
C851 H843 0.950 . S
C851 C849 1.327 . S
C852 C840 1.349 . S
C852 H846 0.950 . S
C852 C853 1.327 . S
C853 H847 0.950 . S
C853 C852 1.327 . S
C853 C857 1.429 . S
C854 C837 1.574 . S
C854 H848 0.949 . S
C854 C858 1.368 . S
C855 C836 1.429 . S
C855 C849 1.429 . S
C855 C856 1.523 . S
C856 C837 1.368 . S
C856 C850 1.368 . S
C856 C855 1.523 . S
C857 C841 1.429 . S
C857 C853 1.429 . S
C857 C858 1.523 . S
C858 C842 1.368 . S
C858 C854 1.368 . S
C858 C857 1.523 . S
H859 C834 0.950 . S
H860 C836 0.950 . S
H861 C837 0.949 . S
H862 C839 0.950 . S
H863 C841 0.950 . S
C265 N14 0.851 . S
C270 C41 0.845 . S
C295 C74 0.845 . S
C300 N47 0.852 . S
C325 N80 0.852 . S
C330 C107 0.845 . S
C355 C8 0.845 . S
C360 N113 0.851 . S
C385 C239 0.845 . S
C390 N146 0.851 . S
C415 C140 0.845 . S
C420 N179 0.852 . S
C445 C173 0.845 . S
C450 N212 0.852 . S
C475 N245 0.851 . S
C480 C206 0.845 . S
C505 C83 1.226 . S
C510 C17 1.226 . S
C535 C50 1.226 . S
C540 C116 1.226 . S
C565 C149 1.226 . S
C570 C215 1.226 . S
C595 C182 1.226 . S
C600 C248 1.226 . S
C625 C28 0.528 . S
C630 C94 0.528 . S
C655 C61 0.528 . S
C660 C127 0.528 . S
C685 C226 0.528 . S
C690 C160 0.528 . S
C715 C259 0.528 . S
C720 C193 0.528 . S
C745 N5 1.620 . S
C750 N170 1.620 . S
C775 N203 1.620 . S
C780 N38 1.620 . S
C805 N236 1.620 . S
C810 N71 1.620 . S
C835 N104 1.620 . S
C840 N137 1.620 . S
