# Generated by pormake.
# Topology uol, (4)-cn, num edge types: 1
# Building blocks:
#     Node 0, Type 0, BuildingBlock: KUFVIS_clean_sbu_0, # of connection points: 4
#     Node 1, Type 0, BuildingBlock: KUFVIS_clean_sbu_0, # of connection points: 4
#     Node 2, Type 0, BuildingBlock: KUFVIS_clean_sbu_0, # of connection points: 4
#     Node 3, Type 0, BuildingBlock: KUFVIS_clean_sbu_0, # of connection points: 4
#     Node 4, Type 0, BuildingBlock: KUFVIS_clean_sbu_0, # of connection points: 4
#     Node 5, Type 0, BuildingBlock: KUFVIS_clean_sbu_0, # of connection points: 4
#     Node 6, Type 0, BuildingBlock: KUFVIS_clean_sbu_0, # of connection points: 4
#     Node 7, Type 0, BuildingBlock: KUFVIS_clean_sbu_0, # of connection points: 4
#     Node 8, Type 0, BuildingBlock: KUFVIS_clean_sbu_0, # of connection points: 4
#     Node 9, Type 0, BuildingBlock: KUFVIS_clean_sbu_0, # of connection points: 4
#     Node 10, Type 0, BuildingBlock: KUFVIS_clean_sbu_0, # of connection points: 4
#     Node 11, Type 0, BuildingBlock: KUFVIS_clean_sbu_0, # of connection points: 4
#     Edge 12, Type (0, 0), BuildingBlock: XIVTED_clean_linker_0, # of connection points: 2
#     Edge 13, Type (0, 0), BuildingBlock: XIVTED_clean_linker_0, # of connection points: 2
#     Edge 14, Type (0, 0), BuildingBlock: XIVTED_clean_linker_0, # of connection points: 2
#     Edge 15, Type (0, 0), BuildingBlock: XIVTED_clean_linker_0, # of connection points: 2
#     Edge 16, Type (0, 0), BuildingBlock: XIVTED_clean_linker_0, # of connection points: 2
#     Edge 17, Type (0, 0), BuildingBlock: XIVTED_clean_linker_0, # of connection points: 2
#     Edge 18, Type (0, 0), BuildingBlock: XIVTED_clean_linker_0, # of connection points: 2
#     Edge 19, Type (0, 0), BuildingBlock: XIVTED_clean_linker_0, # of connection points: 2
#     Edge 20, Type (0, 0), BuildingBlock: XIVTED_clean_linker_0, # of connection points: 2
#     Edge 21, Type (0, 0), BuildingBlock: XIVTED_clean_linker_0, # of connection points: 2
#     Edge 22, Type (0, 0), BuildingBlock: XIVTED_clean_linker_0, # of connection points: 2
#     Edge 23, Type (0, 0), BuildingBlock: XIVTED_clean_linker_0, # of connection points: 2
#     Edge 24, Type (0, 0), BuildingBlock: XIVTED_clean_linker_0, # of connection points: 2
#     Edge 25, Type (0, 0), BuildingBlock: XIVTED_clean_linker_0, # of connection points: 2
#     Edge 26, Type (0, 0), BuildingBlock: XIVTED_clean_linker_0, # of connection points: 2
#     Edge 27, Type (0, 0), BuildingBlock: XIVTED_clean_linker_0, # of connection points: 2
#     Edge 28, Type (0, 0), BuildingBlock: XIVTED_clean_linker_0, # of connection points: 2
#     Edge 29, Type (0, 0), BuildingBlock: XIVTED_clean_linker_0, # of connection points: 2
#     Edge 30, Type (0, 0), BuildingBlock: XIVTED_clean_linker_0, # of connection points: 2
#     Edge 31, Type (0, 0), BuildingBlock: XIVTED_clean_linker_0, # of connection points: 2
#     Edge 32, Type (0, 0), BuildingBlock: XIVTED_clean_linker_0, # of connection points: 2
#     Edge 33, Type (0, 0), BuildingBlock: XIVTED_clean_linker_0, # of connection points: 2
#     Edge 34, Type (0, 0), BuildingBlock: XIVTED_clean_linker_0, # of connection points: 2
#     Edge 35, Type (0, 0), BuildingBlock: XIVTED_clean_linker_0, # of connection points: 2
# Relax obj value: 0.141
# Max RMSD: 0.196
# Mean RMSD: 0.196
data_MOF--net-uol--node1-KUFVIS_clean_sbu_0--edge1-XIVTED_clean_linker_0
_symmetry_space_group_name_H-M    P1
_symmetry_Int_Tables_number       1
_symmetry_cell_setting            triclinic
loop_
_symmetry_equiv_pos_as_xyz
'x, y, z'
_cell_length_a     32.067665
_cell_length_b     32.064952
_cell_length_c     68.415976
_cell_angle_alpha  90.004235
_cell_angle_beta   90.035295
_cell_angle_gamma 120.00637
loop_
_atom_site_label
_atom_site_type_symbol
_atom_site_fract_x
_atom_site_fract_y
_atom_site_fract_z
_atom_type_partial_charge
Mn0 Mn 0.12534 0.32378 0.09631 0.0
Mn1 Mn 0.15769 0.37587 0.14079 0.0
C2 C 0.15664 0.29352 0.11879 0.0
C3 C 0.14637 0.32562 0.06368 0.0
C4 C 0.05406 0.30785 0.12862 0.0
O5 O 0.12533 0.38661 0.09317 0.0
O6 O 0.15767 0.42283 0.12183 0.0
C7 C 0.25883 0.44891 0.1322 0.0
N8 N 0.22623 0.41106 0.1431 0.0
C9 C 0.28893 0.41325 0.16318 0.0
C10 C 0.32318 0.45251 0.15226 0.0
C11 C 0.30806 0.47032 0.13667 0.0
C12 C 0.24039 0.39345 0.15805 0.0
H13 H 0.2473 0.46257 0.12018 0.0
C14 C 0.14218 0.42283 0.10458 0.0
O15 O 0.10141 0.30433 0.06895 0.0
O16 O 0.1785 0.34573 0.07729 0.0
N17 N 0.15944 0.33517 0.16086 0.0
C18 C 0.12201 0.29603 0.16948 0.0
C19 C 0.13109 0.27336 0.18514 0.0
C20 C 0.17839 0.29151 0.19195 0.0
C21 C 0.2162 0.33238 0.1831 0.0
C22 C 0.20493 0.35364 0.16763 0.0
H23 H 0.08554 0.28205 0.1644 0.0
O24 O 0.13337 0.26821 0.10365 0.0
O25 O 0.16284 0.33683 0.11987 0.0
O26 O 0.06249 0.29524 0.11204 0.0
O27 O 0.0867 0.33932 0.13975 0.0
C28 C 0.26474 0.35225 0.18875 0.0
C29 C 0.3011 0.39253 0.17874 0.0
H30 H 0.3612 0.46903 0.15563 0.0
H31 H 0.3343 0.50044 0.12812 0.0
H32 H 0.10169 0.24191 0.19193 0.0
H33 H 0.18531 0.27363 0.2039 0.0
H34 H 0.27458 0.33637 0.20057 0.0
H35 H 0.33835 0.40706 0.18304 0.0
Mn36 Mn 0.80012 0.12501 0.26333 0.0
Mn37 Mn 0.77532 0.14962 0.30836 0.0
C38 C 0.85961 0.15399 0.28674 0.0
C39 C 0.82193 0.15113 0.23131 0.0
C40 C 0.74261 0.04849 0.29357 0.0
O41 O 0.73675 0.12398 0.25998 0.0
O42 O 0.72998 0.15215 0.28924 0.0
C43 C 0.80282 0.25166 0.30256 0.0
N44 N 0.80762 0.2176 0.31257 0.0
C45 C 0.86583 0.27719 0.33438 0.0
C46 C 0.86126 0.31289 0.32439 0.0
C47 C 0.82971 0.30007 0.30838 0.0
C48 C 0.83803 0.22955 0.32793 0.0
H49 H 0.77871 0.2419 0.29021 0.0
C50 C 0.71603 0.13888 0.27164 0.0
O51 O 0.79862 0.10545 0.23547 0.0
O52 O 0.83206 0.18107 0.24566 0.0
N53 N 0.81609 0.14854 0.32857 0.0
C54 C 0.81758 0.11003 0.33619 0.0
C55 C 0.84799 0.11683 0.35212 0.0
C56 C 0.87612 0.16298 0.36019 0.0
C57 C 0.87334 0.2019 0.35233 0.0
C58 C 0.84207 0.19287 0.33656 0.0
H59 H 0.79591 0.07442 0.33012 0.0
O60 O 0.86369 0.13342 0.27111 0.0
O61 O 0.82178 0.15895 0.28779 0.0
O62 O 0.76567 0.05983 0.27743 0.0
O63 O 0.74176 0.07897 0.30538 0.0
C64 C 0.90104 0.24945 0.35929 0.0
C65 C 0.89744 0.2871 0.35026 0.0
H66 H 0.88207 0.3503 0.32878 0.0
H67 H 0.82618 0.32745 0.30053 0.0
H68 H 0.84985 0.08658 0.35813 0.0
H69 H 0.89992 0.16817 0.37234 0.0
H70 H 0.92575 0.25758 0.37139 0.0
H71 H 0.91944 0.32361 0.35557 0.0
Mn72 Mn 0.67486 0.80177 0.42868 0.0
Mn73 Mn 0.62534 0.7826 0.47361 0.0
C74 C 0.70686 0.86345 0.45114 0.0
C75 C 0.67144 0.82092 0.39616 0.0
C76 C 0.69145 0.74562 0.46039 0.0
O77 O 0.61139 0.73922 0.42595 0.0
O78 O 0.57685 0.73638 0.45492 0.0
C79 C 0.55317 0.81258 0.46628 0.0
N80 N 0.59136 0.81697 0.4767 0.0
C81 C 0.59144 0.87766 0.49741 0.0
C82 C 0.55187 0.87355 0.48699 0.0
C83 C 0.53276 0.84097 0.47132 0.0
C84 C 0.61022 0.8484 0.49172 0.0
H85 H 0.5385 0.78763 0.4542 0.0
C86 C 0.57567 0.72056 0.43762 0.0
O87 O 0.69261 0.7969 0.40109 0.0
O88 O 0.65236 0.83333 0.41004 0.0
N89 N 0.6677 0.82446 0.49346 0.0
C90 C 0.70703 0.82537 0.50153 0.0
C91 C 0.73094 0.85667 0.51719 0.0
C92 C 0.71385 0.88623 0.52456 0.0
C93 C 0.67283 0.88406 0.51626 0.0
C94 C 0.6503 0.85192 0.50076 0.0
H95 H 0.72019 0.80254 0.49603 0.0
O96 O 0.73125 0.86522 0.43574 0.0
O97 O 0.66351 0.82657 0.4525 0.0
O98 O 0.70375 0.76704 0.44389 0.0
O99 O 0.66063 0.74698 0.47183 0.0
C100 C 0.65393 0.91314 0.5225 0.0
C101 C 0.61343 0.91013 0.51302 0.0
H102 H 0.53611 0.89548 0.4908 0.0
H103 H 0.50239 0.83778 0.46315 0.0
H104 H 0.76252 0.85806 0.52355 0.0
H105 H 0.73268 0.91068 0.53651 0.0
H106 H 0.67072 0.93847 0.53439 0.0
H107 H 0.5997 0.93322 0.51776 0.0
Mn108 Mn 0.86951 0.67454 0.59638 0.0
Mn109 Mn 0.84132 0.62343 0.64109 0.0
C110 C 0.83891 0.70432 0.61937 0.0
C111 C 0.84594 0.67164 0.56401 0.0
C112 C 0.9436 0.6926 0.62775 0.0
O113 O 0.87056 0.61225 0.59302 0.0
O114 O 0.8407 0.57645 0.62199 0.0
C115 C 0.73999 0.54887 0.63374 0.0
N116 N 0.77303 0.58732 0.64427 0.0
C117 C 0.71144 0.58444 0.66525 0.0
C118 C 0.67676 0.54457 0.65472 0.0
C119 C 0.6911 0.52681 0.63886 0.0
C120 C 0.75961 0.60487 0.65948 0.0
H121 H 0.75091 0.53524 0.62152 0.0
C122 C 0.85503 0.5763 0.60454 0.0
O123 O 0.89127 0.69364 0.56878 0.0
O124 O 0.81489 0.65135 0.57796 0.0
N125 N 0.84038 0.66425 0.66131 0.0
C126 C 0.87807 0.70402 0.66949 0.0
C127 C 0.86973 0.72675 0.68533 0.0
C128 C 0.82291 0.70803 0.69276 0.0
C129 C 0.78485 0.66654 0.68435 0.0
C130 C 0.79539 0.64526 0.66867 0.0
H131 H 0.91419 0.71846 0.66393 0.0
O132 O 0.86075 0.72952 0.60401 0.0
O133 O 0.83366 0.66138 0.62038 0.0
O134 O 0.93356 0.70454 0.61135 0.0
O135 O 0.91216 0.66095 0.63919 0.0
C136 C 0.73672 0.64606 0.69064 0.0
C137 C 0.70002 0.60515 0.68105 0.0
H138 H 0.639 0.52755 0.65858 0.0
H139 H 0.66452 0.49622 0.6306 0.0
H140 H 0.89932 0.75869 0.69178 0.0
H141 H 0.81655 0.72595 0.70485 0.0
H142 H 0.72743 0.66193 0.70264 0.0
H143 H 0.66306 0.59014 0.68583 0.0
Mn144 Mn 0.19385 0.87013 0.76306 0.0
Mn145 Mn 0.21657 0.84056 0.80755 0.0
C146 C 0.13308 0.83756 0.78588 0.0
C147 C 0.17392 0.84751 0.73057 0.0
C148 C 0.24867 0.94317 0.79492 0.0
O149 O 0.25786 0.87251 0.75969 0.0
O150 O 0.26363 0.84158 0.78843 0.0
C151 C 0.19123 0.73996 0.79939 0.0
N152 N 0.18507 0.77215 0.81018 0.0
C153 C 0.12619 0.70911 0.8306 0.0
C154 C 0.13214 0.67528 0.8198 0.0
C155 C 0.1647 0.69078 0.80409 0.0
C156 C 0.15361 0.75762 0.82523 0.0
H157 H 0.21615 0.75177 0.78728 0.0
C158 C 0.27843 0.8569 0.7711 0.0
O159 O 0.19636 0.89268 0.73558 0.0
O160 O 0.16351 0.8161 0.74434 0.0
N161 N 0.17411 0.83805 0.82775 0.0
C162 C 0.17156 0.87508 0.83633 0.0
C163 C 0.14015 0.8656 0.85215 0.0
C164 C 0.1122 0.81832 0.85915 0.0
C165 C 0.11614 0.78095 0.85034 0.0
C166 C 0.14827 0.79262 0.83471 0.0
H167 H 0.19316 0.91155 0.83111 0.0
O168 O 0.12944 0.85981 0.77072 0.0
O169 O 0.17126 0.83321 0.78679 0.0
O170 O 0.22688 0.93359 0.77848 0.0
O171 O 0.2491 0.91145 0.80613 0.0
C172 C 0.08882 0.73247 0.85624 0.0
C173 C 0.09366 0.69654 0.84632 0.0
H174 H 0.11167 0.63731 0.82334 0.0
H175 H 0.16931 0.66486 0.79562 0.0
H176 H 0.13744 0.89466 0.85891 0.0
H177 H 0.08768 0.81108 0.87123 0.0
H178 H 0.06347 0.72232 0.86821 0.0
H179 H 0.07196 0.65931 0.8508 0.0
Mn180 Mn 0.3193 0.19541 0.92965 0.0
Mn181 Mn 0.36835 0.21786 0.97479 0.0
C182 C 0.28867 0.13467 0.95251 0.0
C183 C 0.32367 0.17518 0.89737 0.0
C184 C 0.29959 0.25081 0.96072 0.0
O185 O 0.38154 0.25909 0.92675 0.0
O186 O 0.41596 0.26467 0.95603 0.0
C187 C 0.44352 0.19169 0.96805 0.0
N188 N 0.40462 0.18595 0.97831 0.0
C189 C 0.40698 0.12709 -0.00062 0.0
C190 C 0.44732 0.13261 0.98914 0.0
C191 C 0.46557 0.16495 0.97337 0.0
C192 C 0.38658 0.15473 0.99341 0.0
H193 H 0.45753 0.21642 0.9559 0.0
C194 C 0.41685 0.27953 0.93859 0.0
O195 O 0.30125 0.19822 0.90189 0.0
O196 O 0.3436 0.1645 0.91151 0.0
N197 N 0.32689 0.17575 0.99476 0.0
C198 C 0.2869 0.17358 0.00272 0.0
C199 C 0.26382 0.14245 0.01851 0.0
C200 C 0.2824 0.11435 0.0261 0.0
C201 C 0.32411 0.11788 0.01791 0.0
C202 C 0.34578 0.14982 0.0023 0.0
H203 H 0.27259 0.19528 0.99704 0.0
O204 O 0.26418 0.13139 0.93693 0.0
O205 O 0.33146 0.17248 0.95384 0.0
O206 O 0.28838 0.229 0.94428 0.0
O207 O 0.33064 0.25091 0.97248 0.0
C208 C 0.34454 0.09032 0.0244 0.0
C209 C 0.38581 0.09475 0.01507 0.0
H210 H 0.46433 0.11196 0.99316 0.0
H211 H 0.49652 0.16922 0.96533 0.0
H212 H 0.23171 0.14004 0.02478 0.0
H213 H 0.2642 0.09001 0.03814 0.0
H214 H 0.32841 0.06512 0.03636 0.0
H215 H 0.40078 0.07288 0.02001 0.0
Mn216 Mn 0.67801 0.87972 0.73549 0.0
Mn217 Mn 0.62824 0.85071 0.69056 0.0
C218 C 0.70812 0.84815 0.71306 0.0
C219 C 0.67357 0.8566 0.76797 0.0
C220 C 0.69679 0.95323 0.7039 0.0
O221 O 0.61578 0.88122 0.73818 0.0
O222 O 0.58044 0.84976 0.70927 0.0
C223 C 0.55389 0.74922 0.69769 0.0
N224 N 0.59261 0.7824 0.68735 0.0
C225 C 0.59091 0.721 0.66659 0.0
C226 C 0.55078 0.68616 0.67692 0.0
C227 C 0.53229 0.70034 0.69257 0.0
C228 C 0.61087 0.76915 0.67234 0.0
H229 H 0.5397 0.76001 0.70976 0.0
C230 C 0.57994 0.86483 0.72655 0.0
O231 O 0.69626 0.90188 0.76313 0.0
O232 O 0.65366 0.82538 0.75404 0.0
N233 N 0.67004 0.85003 0.67075 0.0
C234 C 0.7101 0.88784 0.66281 0.0
C235 C 0.73356 0.87967 0.64721 0.0
C236 C 0.71531 0.83289 0.63977 0.0
C237 C 0.67359 0.7947 0.64796 0.0
C238 C 0.65155 0.80507 0.6634 0.0
H239 H 0.72417 0.92392 0.66837 0.0
O240 O 0.73296 0.87027 0.72846 0.0
O241 O 0.66545 0.84337 0.71167 0.0
O242 O 0.70883 0.94348 0.72034 0.0
O243 O 0.66523 0.92159 0.69248 0.0
C244 C 0.65353 0.7466 0.64165 0.0
C245 C 0.61237 0.70975 0.65103 0.0
H246 H 0.53412 0.64841 0.67307 0.0
H247 H 0.50149 0.67363 0.70068 0.0
H248 H 0.76569 0.90936 0.64095 0.0
H249 H 0.73379 0.82666 0.62787 0.0
H250 H 0.66992 0.73746 0.62981 0.0
H251 H 0.59775 0.67282 0.64625 0.0
Mn252 Mn 0.79644 0.67555 0.90166 0.0
Mn253 Mn 0.77441 0.62589 0.85667 0.0
C254 C 0.85785 0.70411 0.87909 0.0
C255 C 0.81567 0.67155 0.93415 0.0
C256 C 0.74303 0.69639 0.87006 0.0
O257 O 0.73199 0.61392 0.90449 0.0
O258 O 0.72671 0.57897 0.87534 0.0
C259 C 0.79831 0.54921 0.8638 0.0
N260 N 0.80526 0.58852 0.8535 0.0
C261 C 0.86391 0.58475 0.83279 0.0
C262 C 0.85716 0.54402 0.84309 0.0
C263 C 0.82432 0.52627 0.8587 0.0
C264 C 0.83699 0.60609 0.83855 0.0
H265 H 0.77314 0.53555 0.87582 0.0
C266 C 0.71157 0.57846 0.8927 0.0
O267 O 0.79343 0.69455 0.92925 0.0
O268 O 0.826 0.65073 0.92027 0.0
N269 N 0.81771 0.66699 0.83691 0.0
C270 C 0.82124 0.70758 0.82892 0.0
C271 C 0.85314 0.73034 0.81332 0.0
C272 C 0.88059 0.71083 0.80593 0.0
C273 C 0.87571 0.66857 0.81415 0.0
C274 C 0.84316 0.64733 0.82961 0.0
H275 H 0.80003 0.7226 0.83443 0.0
O276 O 0.86137 0.72955 0.89439 0.0
O277 O 0.81929 0.66196 0.87784 0.0
O278 O 0.76444 0.70742 0.88658 0.0
O279 O 0.74243 0.6647 0.85853 0.0
C280 C 0.90248 0.64713 0.80785 0.0
C281 C 0.89677 0.6054 0.81723 0.0
H282 H 0.87723 0.52628 0.83923 0.0
H283 H 0.81908 0.49499 0.86678 0.0
H284 H 0.8566 0.76288 0.80702 0.0
H285 H 0.90548 0.72873 0.79402 0.0
H286 H 0.92808 0.66287 0.79599 0.0
H287 H 0.91809 0.58969 0.81244 0.0
Mn288 Mn 0.11807 0.79882 0.06894 0.0
Mn289 Mn 0.14715 0.77838 0.024 0.0
C290 C 0.1494 0.86058 0.04652 0.0
C291 C 0.14107 0.81729 0.10146 0.0
C292 C 0.04456 0.74365 0.0374 0.0
O293 O 0.11708 0.73531 0.07158 0.0
O294 O 0.14892 0.73192 0.04271 0.0
C295 C 0.249 0.80654 0.0309 0.0
N296 N 0.21542 0.81165 0.02065 0.0
C297 C 0.27616 0.87157 -0.00024 0.0
C298 C 0.3114 0.86672 0.00999 0.0
C299 C 0.29776 0.83416 0.02567 0.0
C300 C 0.22815 0.84304 0.00562 0.0
H301 H 0.23862 0.78162 0.04298 0.0
C302 C 0.13395 0.71627 0.05999 0.0
O303 O 0.09583 0.79457 0.09656 0.0
O304 O 0.17237 0.82899 0.08755 0.0
N305 N 0.14707 0.8206 0.00423 0.0
C306 C 0.10895 0.82256 0.99644 0.0
C307 C 0.11659 0.85415 0.98088 0.0
C308 C 0.16317 0.88295 0.97332 0.0
C309 C 0.2017 0.87974 0.98135 0.0
C310 C 0.19186 0.84738 0.99677 0.0
H311 H 0.07301 0.80035 0.00209 0.0
O312 O 0.1272 0.86316 0.06191 0.0
O313 O 0.15434 0.8228 0.04514 0.0
O314 O 0.0543 0.76563 0.05378 0.0
O315 O 0.07625 0.7438 0.02601 0.0
C316 C 0.24965 0.90812 0.97494 0.0
C317 C 0.28687 0.90418 0.98419 0.0
H318 H 0.34906 0.88808 0.00605 0.0
H319 H 0.32478 0.8304 0.0337 0.0
H320 H 0.08664 0.85635 0.97474 0.0
H321 H 0.169 0.90763 0.96145 0.0
H322 H 0.2584 0.93368 0.96314 0.0
H323 H 0.32368 0.92674 0.97934 0.0
Mn324 Mn 0.31804 0.11912 0.23518 0.0
Mn325 Mn 0.36664 0.14442 0.19003 0.0
C326 C 0.28757 0.14908 0.21217 0.0
C327 C 0.3229 0.14464 0.26734 0.0
C328 C 0.29821 0.04307 0.20459 0.0
O329 O 0.38037 0.11786 0.23814 0.0
O330 O 0.41493 0.14681 0.20889 0.0
C331 C 0.44148 0.24638 0.19579 0.0
N332 N 0.4023 0.21241 0.18589 0.0
C333 C 0.40337 0.27212 0.16427 0.0
C334 C 0.44395 0.30773 0.17414 0.0
C335 C 0.463 0.29481 0.19001 0.0
C336 C 0.38355 0.22446 0.17067 0.0
H337 H 0.4561 0.23655 0.20803 0.0
C338 C 0.4159 0.13325 0.22641 0.0
O339 O 0.30036 0.09903 0.26302 0.0
O340 O 0.34263 0.17482 0.25306 0.0
N341 N 0.32421 0.14354 0.17013 0.0
C342 C 0.28373 0.10518 0.1627 0.0
C343 C 0.25966 0.11212 0.14698 0.0
C344 C 0.27771 0.15827 0.13893 0.0
C345 C 0.31983 0.19705 0.1466 0.0
C346 C 0.34248 0.18788 0.16218 0.0
H347 H 0.26977 0.06957 0.16875 0.0
O348 O 0.26298 0.12807 0.22775 0.0
O349 O 0.33017 0.15367 0.21091 0.0
O350 O 0.28676 0.0542 0.22085 0.0
O351 O 0.32957 0.07374 0.19286 0.0
C352 C 0.33971 0.24461 0.13966 0.0
C353 C 0.38132 0.28215 0.14854 0.0
H354 H 0.46055 0.34515 0.16978 0.0
H355 H 0.49416 0.32212 0.19776 0.0
H356 H 0.22721 0.08199 0.14113 0.0
H357 H 0.25876 0.16358 0.12694 0.0
H358 H 0.32285 0.25283 0.1277 0.0
H359 H 0.39582 0.31867 0.14328 0.0
Mn360 Mn 0.19867 0.32361 0.40172 0.0
Mn361 Mn 0.21573 0.37228 0.35669 0.0
C362 C 0.1357 0.29186 0.37985 0.0
C363 C 0.18139 0.32755 0.43442 0.0
C364 C 0.25286 0.30598 0.36953 0.0
O365 O 0.26157 0.3869 0.40392 0.0
O366 O 0.26304 0.42116 0.37501 0.0
C367 C 0.18668 0.44508 0.36418 0.0
N368 N 0.18148 0.40645 0.35386 0.0
C369 C 0.11976 0.406 0.33368 0.0
C370 C 0.12468 0.44601 0.344 0.0
C371 C 0.1582 0.46554 0.35935 0.0
C372 C 0.14917 0.3872 0.33914 0.0
H373 H 0.21234 0.46008 0.37601 0.0
C374 C 0.27969 0.42249 0.39216 0.0
O375 O 0.2049 0.30609 0.42917 0.0
O376 O 0.1685 0.34674 0.42075 0.0
N377 N 0.17259 0.32935 0.33727 0.0
C378 C 0.17076 0.28945 0.32936 0.0
C379 C 0.13833 0.26496 0.31408 0.0
C380 C 0.10856 0.28204 0.30694 0.0
C381 C 0.11165 0.32362 0.31508 0.0
C382 C 0.14487 0.34669 0.3302 0.0
H383 H 0.1937 0.27626 0.3347 0.0
O384 O 0.13456 0.26746 0.39516 0.0
O385 O 0.17284 0.33495 0.37821 0.0
O386 O 0.23211 0.29399 0.38616 0.0
O387 O 0.25123 0.33679 0.35816 0.0
C388 C 0.08235 0.34249 0.30908 0.0
C389 C 0.08626 0.38353 0.31843 0.0
H390 H 0.10266 0.46179 0.34038 0.0
H391 H 0.16202 0.49626 0.36745 0.0
H392 H 0.13622 0.23294 0.30785 0.0
H393 H 0.08324 0.26277 0.29529 0.0
H394 H 0.05612 0.32524 0.29751 0.0
H395 H 0.063 0.39724 0.31389 0.0
Mn396 Mn 0.87702 0.19954 0.56757 0.0
Mn397 Mn 0.84918 0.22162 0.52263 0.0
C398 C 0.84665 0.13879 0.54467 0.0
C399 C 0.85335 0.17925 0.59992 0.0
C400 C 0.95144 0.25578 0.53641 0.0
O401 O 0.87743 0.26266 0.57066 0.0
O402 O 0.84745 0.26774 0.54155 0.0
C403 C 0.74738 0.19396 0.52925 0.0
N404 N 0.78098 0.18886 0.51904 0.0
C405 C 0.72043 0.12988 0.49775 0.0
C406 C 0.68517 0.13473 0.50796 0.0
C407 C 0.6987 0.16681 0.52381 0.0
C408 C 0.76835 0.15794 0.50383 0.0
H409 H 0.75768 0.21851 0.54147 0.0
C410 C 0.86147 0.28248 0.55902 0.0
O411 O 0.89869 0.20273 0.59521 0.0
O412 O 0.82232 0.16805 0.58591 0.0
N413 N 0.84931 0.17987 0.50265 0.0
C414 C 0.88741 0.17785 0.4949 0.0
C415 C 0.87986 0.14667 0.47918 0.0
C416 C 0.83338 0.11837 0.47142 0.0
C417 C 0.79488 0.12167 0.47941 0.0
C418 C 0.80464 0.15359 0.495 0.0
H419 H 0.92327 0.19966 0.50072 0.0
O420 O 0.86863 0.13577 0.56007 0.0
O421 O 0.84136 0.17641 0.54353 0.0
O422 O 0.94123 0.23379 0.5528 0.0
O423 O 0.91998 0.25563 0.52487 0.0
C424 C 0.74702 0.09375 0.4728 0.0
C425 C 0.7098 0.09773 0.48201 0.0
H426 H 0.64757 0.11373 0.50386 0.0
H427 H 0.67167 0.17057 0.53182 0.0
H428 H 0.90979 0.14441 0.47307 0.0
H429 H 0.82762 0.09401 0.45943 0.0
H430 H 0.73834 0.06853 0.46086 0.0
H431 H 0.67306 0.07554 0.477 0.0
H432 H 0.12609 0.68327 0.09753 0.0
H433 H 0.13215 0.44644 0.06706 0.0
H434 H 0.14778 0.65273 0.03809 0.0
H435 H 0.15439 0.49986 0.12633 0.0
H436 H 0.13153 0.51868 0.05616 0.0
H437 H 0.12987 0.61265 0.1084 0.0
C438 C 0.13157 0.66171 0.08676 0.0
C439 C 0.13653 0.67391 0.06685 0.0
C440 C 0.13674 0.51463 0.07154 0.0
C441 C 0.14076 0.59305 0.07922 0.0
C442 C 0.13694 0.47334 0.07779 0.0
C443 C 0.14323 0.46701 0.09766 0.0
C444 C 0.14229 0.54957 0.08527 0.0
C445 C 0.14954 0.50324 0.11087 0.0
C446 C 0.13395 0.62155 0.09299 0.0
C447 C 0.14388 0.64479 0.05358 0.0
N448 N 0.14859 0.54283 0.10445 0.0
N449 N 0.1455 0.60555 0.05999 0.0
H450 H 0.68374 0.13092 0.23394 0.0
H451 H 0.44089 0.12571 0.26403 0.0
H452 H 0.65034 0.14981 0.29331 0.0
H453 H 0.49311 0.14613 0.20462 0.0
H454 H 0.51485 0.12879 0.27503 0.0
H455 H 0.61131 0.13096 0.22288 0.0
C456 C 0.66125 0.13511 0.24465 0.0
C457 C 0.67314 0.14026 0.2646 0.0
C458 C 0.51013 0.13274 0.2596 0.0
C459 C 0.59011 0.1401 0.25202 0.0
C460 C 0.46784 0.1308 0.25329 0.0
C461 C 0.46069 0.13558 0.23335 0.0
C462 C 0.54534 0.139 0.24587 0.0
C463 C 0.49706 0.14237 0.22013 0.0
C464 C 0.61999 0.13528 0.23831 0.0
C465 C 0.64271 0.14582 0.27779 0.0
N466 N 0.5377 0.14363 0.22662 0.0
N467 N 0.60246 0.14531 0.27127 0.0
H468 H 0.49875 0.6579 0.4599 0.0
H469 H 0.34185 0.49929 0.36966 0.0
H470 H 0.54973 0.68604 0.40027 0.0
H471 H 0.3146 0.44898 0.42939 0.0
H472 H 0.41295 0.5732 0.38061 0.0
H473 H 0.42556 0.58636 0.44883 0.0
C474 C 0.49452 0.6492 0.44447 0.0
C475 C 0.53059 0.67795 0.431 0.0
C476 C 0.39137 0.54593 0.39129 0.0
C477 C 0.44678 0.59616 0.41827 0.0
C478 C 0.35068 0.5038 0.38508 0.0
C479 C 0.3223 0.46775 0.39862 0.0
C480 C 0.40345 0.55233 0.41121 0.0
C481 C 0.33559 0.47562 0.41842 0.0
C482 C 0.45279 0.60823 0.43819 0.0
C483 C 0.52306 0.66477 0.41119 0.0
N484 N 0.37516 0.51712 0.42412 0.0
N485 N 0.48192 0.62485 0.40541 0.0
H486 H 0.86418 0.55276 0.56687 0.0
H487 H 0.86902 0.31477 0.59668 0.0
H488 H 0.84365 0.49935 0.62611 0.0
H489 H 0.84838 0.34681 0.53731 0.0
H490 H 0.86586 0.38556 0.60776 0.0
H491 H 0.86438 0.48046 0.55575 0.0
C492 C 0.8597 0.52587 0.57755 0.0
C493 C 0.85399 0.53222 0.59747 0.0
C494 C 0.86187 0.37696 0.59232 0.0
C495 C 0.85441 0.44955 0.58482 0.0
C496 C 0.86387 0.33667 0.58596 0.0
C497 C 0.85905 0.32484 0.56602 0.0
C498 C 0.85555 0.40594 0.57863 0.0
C499 C 0.85217 0.35444 0.55283 0.0
C500 C 0.85965 0.48454 0.57117 0.0
C501 C 0.84806 0.49599 0.61061 0.0
N502 N 0.85088 0.39377 0.55936 0.0
N503 N 0.84871 0.45634 0.60406 0.0
H504 H 0.55527 0.87378 0.76402 0.0
H505 H 0.31212 0.86762 0.73353 0.0
H506 H 0.5029 0.85178 0.70458 0.0
H507 H 0.34432 0.84645 0.7928 0.0
H508 H 0.38535 0.86896 0.72258 0.0
H509 H 0.48138 0.8711 0.77482 0.0
C510 C 0.52831 0.86846 0.75323 0.0
C511 C 0.53533 0.86302 0.73335 0.0
C512 C 0.37623 0.86388 0.73797 0.0
C513 C 0.45082 0.86007 0.74563 0.0
C514 C 0.33455 0.86327 0.74424 0.0
C515 C 0.32205 0.85694 0.76412 0.0
C516 C 0.40589 0.85869 0.75169 0.0
C517 C 0.3524 0.85126 0.77732 0.0
C518 C 0.48607 0.86674 0.75942 0.0
C519 C 0.49898 0.85598 0.72005 0.0
N520 N 0.39304 0.85252 0.77088 0.0
N521 N 0.45838 0.85493 0.72642 0.0
H522 H 0.49262 0.34429 0.96092 0.0
H523 H 0.64701 0.50276 0.87036 0.0
H524 H 0.44192 0.31431 0.90124 0.0
H525 H 0.67708 0.55295 0.93009 0.0
H526 H 0.57566 0.42964 0.88147 0.0
H527 H 0.56458 0.417 0.94985 0.0
C528 C 0.49663 0.35285 0.94548 0.0
C529 C 0.46105 0.32312 0.93199 0.0
C530 C 0.59783 0.45671 0.89213 0.0
C531 C 0.54346 0.40632 0.91926 0.0
C532 C 0.63869 0.49844 0.88582 0.0
C533 C 0.66812 0.53416 0.89932 0.0
C534 C 0.58649 0.45031 0.9121 0.0
C535 C 0.65535 0.52652 0.91916 0.0
C536 C 0.53766 0.39451 0.9392 0.0
C537 C 0.46825 0.33623 0.91217 0.0
N538 N 0.61556 0.48532 0.92497 0.0
N539 N 0.50872 0.37681 0.9064 0.0
H540 H 0.2014 0.10369 0.19382 0.0
H541 H 0.25063 0.33138 0.12932 0.0
H542 H 0.32911 0.24247 0.20039 0.0
H543 H 0.10915 0.20888 0.13802 0.0
H544 H 0.28355 0.29613 0.15226 0.0
H545 H 0.16918 0.13901 0.17077 0.0
C546 C 0.22266 0.14161 0.19024 0.0
C547 C 0.26865 0.16999 0.19818 0.0
C548 C 0.24526 0.27715 0.14925 0.0
C549 C 0.23209 0.21075 0.17232 0.0
C550 C 0.22657 0.29736 0.13633 0.0
C551 C 0.17701 0.27381 0.13266 0.0
C552 C 0.21407 0.23274 0.15814 0.0
C553 C 0.14741 0.22864 0.14108 0.0
C554 C 0.20433 0.16177 0.17719 0.0
C555 C 0.29433 0.2192 0.19378 0.0
N556 N 0.16633 0.20967 0.1536 0.0
N557 N 0.27591 0.23809 0.18093 0.0
H558 H 0.89737 0.10599 0.30523 0.0
H559 H 0.0804 0.33108 0.37014 0.0
H560 H 0.91259 0.24667 0.29934 0.0
H561 H 0.0949 0.20599 0.36122 0.0
H562 H 0.01097 0.29681 0.34783 0.0
H563 H 0.964 0.13894 0.32874 0.0
C564 C 0.9147 0.14381 0.30908 0.0
C565 C 0.89856 0.17343 0.30116 0.0
C566 C 0.02952 0.277 0.35067 0.0
C567 C 0.97488 0.21149 0.32755 0.0
C568 C 0.06912 0.29663 0.36325 0.0
C569 C 0.09429 0.27211 0.36662 0.0
C570 C 0.01489 0.23229 0.34177 0.0
C571 C 0.07708 0.22649 0.35836 0.0
C572 C 0.95266 0.1626 0.3224 0.0
C573 C 0.92295 0.22246 0.30591 0.0
N574 N 0.03865 0.20817 0.3461 0.0
N575 N 0.95977 0.24002 0.319 0.0
H576 H 0.75282 0.08619 0.53362 0.0
H577 H 0.79252 0.90073 0.46971 0.0
H578 H 0.89163 0.09808 0.52591 0.0
H579 H 0.66957 0.91958 0.46235 0.0
H580 H 0.82727 0.9685 0.49267 0.0
H581 H 0.71807 0.0186 0.51044 0.0
C582 C 0.77593 0.07476 0.5268 0.0
C583 C 0.82533 0.09867 0.53081 0.0
C584 C 0.79263 0.95779 0.48609 0.0
C585 C 0.78608 0.02107 0.50504 0.0
C586 C 0.77285 0.91918 0.47309 0.0
C587 C 0.72737 0.90365 0.46498 0.0
C588 C 0.76684 0.98123 0.49075 0.0
C589 C 0.70383 0.92945 0.46911 0.0
C590 C 0.75618 0.03618 0.51373 0.0
C591 C 0.85357 0.08122 0.5226 0.0
N592 N 0.72361 0.96681 0.48193 0.0
N593 N 0.83362 0.04363 0.50992 0.0
H594 H 0.74554 0.66483 0.63099 0.0
H595 H 0.79382 0.89361 0.69446 0.0
H596 H 0.88624 0.78953 0.63825 0.0
H597 H 0.66758 0.75421 0.70206 0.0
H598 H 0.82629 0.85811 0.67166 0.0
H599 H 0.71293 0.69948 0.65435 0.0
C600 C 0.76952 0.69922 0.63778 0.0
C601 C 0.81881 0.72362 0.63356 0.0
C602 C 0.79142 0.83523 0.67826 0.0
C603 C 0.78203 0.76401 0.65949 0.0
C604 C 0.77295 0.8555 0.69117 0.0
C605 C 0.72723 0.82698 0.69929 0.0
C606 C 0.76411 0.78599 0.67372 0.0
C607 C 0.70209 0.77754 0.69528 0.0
C608 C 0.75099 0.71908 0.65094 0.0
C609 C 0.84823 0.76916 0.64172 0.0
N610 N 0.72063 0.75854 0.68255 0.0
N611 N 0.82946 0.78781 0.65446 0.0
H612 H 0.90874 0.65997 0.86998 0.0
H613 H 0.07982 0.74282 0.79534 0.0
H614 H 0.9015 0.78851 0.8593 0.0
H615 H 0.09343 0.88134 0.80624 0.0
H616 H 0.01193 0.70611 0.81808 0.0
H617 H 0.97728 0.68936 0.84765 0.0
C618 C 0.92126 0.69404 0.86256 0.0
C619 C 0.8985 0.72102 0.8656 0.0
C620 C 0.03026 0.74466 0.81593 0.0
C621 C 0.97628 0.7549 0.84005 0.0
C622 C 0.06888 0.76547 0.80291 0.0
C623 C 0.09321 0.81524 0.79979 0.0
C624 C 0.01608 0.77412 0.82575 0.0
C625 C 0.0763 0.84297 0.80889 0.0
C626 C 0.96023 0.7108 0.84977 0.0
C627 C 0.91738 0.76612 0.85669 0.0
N628 N 0.03897 0.82208 0.82164 0.0
N629 N 0.95496 0.78149 0.84412 0.0
H630 H 0.24359 0.91401 0.03608 0.0
H631 H 0.20273 0.09698 0.97076 0.0
H632 H 0.10459 0.90127 0.02764 0.0
H633 H 0.32747 0.08061 0.96484 0.0
H634 H 0.16848 0.03014 0.99412 0.0
H635 H 0.27867 0.98209 0.01314 0.0
C636 C 0.22052 0.92537 0.02915 0.0
C637 C 0.17098 0.90109 0.03287 0.0
C638 C 0.20342 0.04122 0.98778 0.0
C639 C 0.21053 0.97904 0.00731 0.0
C640 C 0.22291 0.0793 0.97455 0.0
C641 C 0.2687 0.09526 0.96671 0.0
C642 C 0.22978 0.01868 0.99293 0.0
C643 C 0.29293 0.07042 0.97137 0.0
C644 C 0.24045 0.96421 0.01621 0.0
C645 C 0.14276 0.91841 0.02453 0.0
N646 N 0.27337 0.0335 0.98439 0.0
N647 N 0.16285 0.95614 0.01195 0.0
H648 H 0.09483 0.26238 0.03417 0.0
H649 H 0.33679 0.33954 0.97662 0.0
H650 H 0.23259 0.38687 0.04722 0.0
H651 H 0.20216 0.21291 0.9622 0.0
H652 H 0.29362 0.36808 0.99686 0.0
H653 H 0.12749 0.25353 0.00296 0.0
C654 C 0.13156 0.28845 0.03026 0.0
C655 C 0.16144 0.32479 0.04341 0.0
C656 C 0.27315 0.33452 0.98897 0.0
C657 C 0.1989 0.31496 0.00796 0.0
C658 C 0.29784 0.31846 0.97733 0.0
C659 C 0.27287 0.27385 0.9679 0.0
C660 C 0.22326 0.30499 0.99169 0.0
C661 C 0.22252 0.24767 0.96925 0.0
C662 C 0.15021 0.28334 0.01249 0.0
C663 C 0.20864 0.35772 0.03766 0.0
N664 N 0.19932 0.26308 0.98138 0.0
N665 N 0.22604 0.35166 0.0205 0.0
H666 H 0.84757 0.23955 0.2169 0.0
H667 H 0.98831 0.21141 0.12684 0.0
H668 H 0.83671 0.10445 0.2007 0.0
H669 H 0.00976 0.34611 0.14962 0.0
H670 H 0.91698 0.16839 0.14781 0.0
H671 H 0.89014 0.2749 0.18653 0.0
C672 C 0.85364 0.21712 0.20679 0.0
C673 C 0.83951 0.16932 0.21146 0.0
C674 C 0.93663 0.20738 0.14783 0.0
C675 C 0.88907 0.20981 0.17675 0.0
C676 C 0.97701 0.23189 0.13576 0.0
C677 C 0.005 0.28225 0.13672 0.0
C678 C 0.92438 0.23366 0.16076 0.0
C679 C 0.98934 0.3072 0.14865 0.0
C680 C 0.87796 0.23732 0.18942 0.0
C681 C 0.8475 0.14164 0.19769 0.0
N682 N 0.95043 0.28265 0.16035 0.0
N683 N 0.87268 0.16258 0.18107 0.0
H684 H 0.65395 0.9966 0.30953 0.0
H685 H 0.73253 0.83132 0.36599 0.0
H686 H 0.78024 0.98868 0.29448 0.0
H687 H 0.6101 0.84686 0.38046 0.0
H688 H 0.73995 0.87242 0.33479 0.0
H689 H 0.62588 0.92479 0.32967 0.0
C690 C 0.67504 0.97873 0.31007 0.0
C691 C 0.71948 -0.00151 0.30051 0.0
C692 C 0.71088 0.86591 0.34463 0.0
C693 C 0.68887 0.91761 0.3242 0.0
C694 C 0.7066 0.8424 0.3624 0.0
C695 C 0.67129 0.83669 0.37594 0.0
C696 C 0.67947 0.88347 0.34049 0.0
C697 C 0.63848 0.85147 0.37059 0.0
C698 C 0.65924 0.93792 0.32166 0.0
C699 C 0.74563 0.97424 0.30164 0.0
N700 N 0.64374 0.87465 0.35342 0.0
N701 N 0.73051 0.9356 0.31372 0.0
H702 H 0.89625 0.73226 0.53364 0.0
H703 H 0.65209 0.65892 0.47831 0.0
H704 H 0.75753 0.61176 0.54879 0.0
H705 H 0.78838 0.77961 0.46103 0.0
H706 H 0.6943 0.63021 0.49905 0.0
H707 H 0.86213 0.74022 0.50265 0.0
C708 C 0.85894 0.70689 0.53026 0.0
C709 C 0.82935 0.67194 0.54392 0.0
C710 C 0.71528 0.66245 0.49045 0.0
C711 C 0.79021 0.68077 0.50871 0.0
C712 C 0.69112 0.67861 0.47852 0.0
C713 C 0.7169 0.7217 0.46811 0.0
C714 C 0.76556 0.69039 0.49243 0.0
C715 C 0.76735 0.74606 0.46884 0.0
C716 C 0.83946 0.71147 0.51261 0.0
C717 C 0.78136 0.63986 0.53883 0.0
N718 N 0.79013 0.73067 0.48122 0.0
N719 N 0.7632 0.64542 0.52177 0.0
H720 H 0.15376 0.76238 0.71429 0.0
H721 H 0.00596 0.78982 0.62684 0.0
H722 H 0.15639 0.89523 0.70117 0.0
H723 H 0.99209 0.65603 0.64689 0.0
H724 H 0.07759 0.83382 0.64762 0.0
H725 H 0.11232 0.72882 0.68351 0.0
C726 C 0.14615 0.78474 0.70475 0.0
C727 C 0.15758 0.83127 0.71042 0.0
C728 C 0.0596 0.79489 0.64705 0.0
C729 C 0.10921 0.79274 0.67527 0.0
C730 C 0.01907 0.76984 0.63507 0.0
C731 C 0.9931 0.71935 0.63536 0.0
C732 C 0.07403 0.769 0.6592 0.0
C733 C 0.01098 0.69502 0.64645 0.0
C734 C 0.12248 0.76557 0.68716 0.0
C735 C 0.14771 0.85899 0.69737 0.0
N736 N 0.04997 0.72004 0.65809 0.0
N737 N 0.1231 0.83893 0.68053 0.0
H738 H 0.3877 0.15238 0.88207 0.0
H739 H 0.21466 0.0063 0.79377 0.0
H740 H 0.26031 0.15894 0.86735 0.0
H741 H 0.33287 0.9906 0.81472 0.0
H742 H 0.24248 0.07801 0.81452 0.0
H743 H 0.38006 0.11013 0.85155 0.0
C744 C 0.35843 0.14546 0.87223 0.0
C745 C 0.32403 0.15827 0.87737 0.0
C746 C 0.26299 0.05955 0.81417 0.0
C747 C 0.31441 0.10895 0.84251 0.0
C748 C 0.24738 0.01896 0.80222 0.0
C749 C 0.27135 0.99247 0.80276 0.0
C750 C 0.30286 0.07351 0.82655 0.0
C751 C 0.31315 0.00985 0.8141 0.0
C752 C 0.35405 0.12131 0.85479 0.0
C753 C 0.28732 0.14921 0.86396 0.0
N754 N 0.32723 0.04891 0.8257 0.0
N755 N 0.28284 0.12414 0.84727 0.0
H756 H 0.60676 0.77203 0.78396 0.0
H757 H 0.77934 0.79383 0.87155 0.0
H758 H 0.73827 0.90311 0.79767 0.0
H759 H 0.65859 0.66173 0.85061 0.0
H760 H 0.753 0.83946 0.85111 0.0
H761 H 0.61309 0.73738 0.81471 0.0
C762 C 0.63667 0.79378 0.79364 0.0
C763 C 0.67259 0.84007 0.78814 0.0
C764 C 0.7316 0.80053 0.85141 0.0
C765 C 0.68072 0.80028 0.82321 0.0
C766 C 0.74637 0.77457 0.86318 0.0
C767 C 0.72123 0.72408 0.86254 0.0
C768 C 0.69138 0.77557 0.83912 0.0
C769 C 0.67916 0.70068 0.85131 0.0
C770 C 0.6403 0.77399 0.8112 0.0
C771 C 0.71008 0.86706 0.80134 0.0
N772 N 0.66588 0.72658 0.83988 0.0
N773 N 0.71381 0.84635 0.81814 0.0
H774 H 0.8274 0.73316 0.96433 0.0
H775 H 0.99558 0.65667 0.01974 0.0
H776 H 0.84216 0.61034 0.94964 0.0
H777 H 0.98304 0.77938 0.03666 0.0
H778 H 0.92442 0.62864 -0.00081 0.0
H779 H 0.86958 0.74099 0.99528 0.0
C780 C 0.83856 0.70724 0.96782 0.0
C781 C 0.83223 0.67166 0.95428 0.0
C782 C 0.9364 0.6612 0.00767 0.0
C783 C 0.88037 0.68038 0.98944 0.0
C784 C 0.97688 0.67699 0.01949 0.0
C785 C 0.99512 0.72042 0.02974 0.0
C786 C 0.91483 0.68982 0.00563 0.0
C787 C 0.9698 0.74556 0.02897 0.0
C788 C 0.8627 0.71176 0.98544 0.0
C789 C 0.84717 0.63891 0.9595 0.0
N790 N 0.93146 0.73049 0.0167 0.0
N791 N 0.87103 0.64444 0.97653 0.0
H792 H 0.22601 0.8358 0.1174 0.0
H793 H 0.20082 0.98201 0.2057 0.0
H794 H 0.09367 0.83329 0.1314 0.0
H795 H 0.33351 0.99261 0.18613 0.0
H796 H 0.15589 0.91057 0.18494 0.0
H797 H 0.25973 0.87506 0.14853 0.0
C798 C 0.20381 0.84298 0.1272 0.0
C799 C 0.15741 0.83228 0.1217 0.0
C800 C 0.19476 0.92773 0.18563 0.0
C801 C 0.19612 0.8782 0.15724 0.0
C802 C 0.22032 0.96815 0.1976 0.0
C803 C 0.27082 0.99324 0.1974 0.0
C804 C 0.22013 0.91259 0.17353 0.0
C805 C 0.29454 0.97441 0.1865 0.0
C806 C 0.22305 0.86539 0.145 0.0
C807 C 0.12984 0.84149 0.13507 0.0
N808 N 0.26904 0.93562 0.17481 0.0
N809 N 0.15001 0.86496 0.1521 0.0
H810 H 0.26338 0.0965 0.29828 0.0
H811 H 0.33775 0.34453 0.35023 0.0
H812 H 0.38391 0.2338 0.2816 0.0
H813 H 0.21991 0.20918 0.3701 0.0
H814 H 0.36581 0.30114 0.32989 0.0
H815 H 0.25662 0.1329 0.32883 0.0
C816 C 0.28903 0.13398 0.30125 0.0
C817 C 0.32359 0.16251 0.28726 0.0
C818 C 0.33435 0.28066 0.33896 0.0
C819 C 0.31609 0.20424 0.32196 0.0
C820 C 0.31852 0.30551 0.35063 0.0
C821 C 0.27639 0.28028 0.36167 0.0
C822 C 0.307 0.23017 0.33787 0.0
C823 C 0.25268 0.22981 0.36177 0.0
C824 C 0.28513 0.15476 0.31865 0.0
C825 C 0.35608 0.21076 0.29182 0.0
N826 N 0.26768 0.20627 0.34964 0.0
N827 N 0.35113 0.2302 0.30864 0.0
H828 H 0.17158 0.26578 0.46417 0.0
H829 H 0.01864 0.22767 0.54191 0.0
H830 H 0.15577 0.38854 0.45075 0.0
H831 H 0.99646 0.33489 0.51336 0.0
H832 H 0.09127 0.25348 0.52232 0.0
H833 H 0.1298 0.25624 0.49507 0.0
C834 C 0.16045 0.29152 0.46802 0.0
C835 C 0.16613 0.32733 0.45476 0.0
C836 C 0.07093 0.27174 0.52038 0.0
C837 C 0.11852 0.31716 0.49017 0.0
C838 C 0.02979 0.25744 0.53184 0.0
C839 C 0.00111 0.27858 0.52892 0.0
C840 C 0.08298 0.30725 0.50592 0.0
C841 C 0.01709 0.31701 0.51576 0.0
C842 C 0.13654 0.28618 0.48576 0.0
C843 C 0.15119 0.35978 0.4604 0.0
N844 N 0.05652 0.32962 0.5046 0.0
N845 N 0.12752 0.35348 0.47752 0.0
H846 H 0.65915 0.00275 0.68649 0.0
H847 H 0.90351 0.16911 0.63041 0.0
H848 H 0.79415 0.01394 0.70285 0.0
H849 H 0.76514 0.1516 0.61507 0.0
H850 H 0.86937 0.12789 0.66153 0.0
H851 H 0.70231 0.07332 0.66566 0.0
C852 C 0.69814 0.02107 0.68606 0.0
C853 C 0.72324 0.00259 0.69623 0.0
C854 C 0.8468 0.13393 0.6515 0.0
C855 C 0.7729 0.08212 0.6718 0.0
C856 C 0.86628 0.1575 0.63378 0.0
C857 C 0.83677 0.16281 0.62003 0.0
C858 C 0.79765 0.11588 0.6554 0.0
C859 C 0.78889 0.14736 0.6251 0.0
C860 C 0.72283 0.06118 0.67408 0.0
C861 C 0.77366 0.02739 0.69523 0.0
N862 N 0.77073 0.12414 0.64225 0.0
N863 N 0.7969 0.06536 0.6828 0.0
loop_
_geom_bond_atom_site_label_1
_geom_bond_atom_site_label_2
_geom_bond_distance
_geom_bond_site_symmetry_2
_ccdc_geom_bond_type
Mn0 O5 2.095 . S
Mn0 O15 2.162 . S
Mn0 O16 2.297 . S
Mn0 O24 2.385 . S
Mn0 O25 2.209 . S
Mn0 O26 2.094 . S
Mn1 O6 2.121 . S
Mn1 N8 2.257 . S
Mn1 N17 2.282 . S
Mn1 O25 2.215 . S
Mn1 O27 2.117 . S
C2 O24 1.234 . S
C2 O25 1.283 . S
C3 O15 1.281 . S
C3 O16 1.236 . S
C4 O26 1.240 . S
C4 O27 1.264 . S
O5 Mn0 2.095 . S
O5 C14 1.250 . S
O6 Mn1 2.121 . S
O6 C14 1.258 . S
C7 N8 1.326 . S
C7 C11 1.460 . S
C7 H13 0.929 . S
N8 Mn1 2.257 . S
N8 C7 1.326 . S
N8 C12 1.362 . S
C9 C10 1.258 . S
C9 C12 1.431 . S
C9 C29 1.449 . S
C10 C9 1.258 . S
C10 C11 1.477 . S
C10 H30 0.931 . S
C11 C7 1.460 . S
C11 C10 1.477 . S
C11 H31 0.930 . S
C12 N8 1.362 . S
C12 C9 1.431 . S
C12 C22 1.476 . S
H13 C7 0.929 . S
C14 O5 1.250 . S
C14 O6 1.258 . S
O15 Mn0 2.162 . S
O15 C3 1.281 . S
O16 Mn0 2.297 . S
O16 C3 1.236 . S
N17 Mn1 2.282 . S
N17 C18 1.328 . S
N17 C22 1.318 . S
C18 N17 1.328 . S
C18 C19 1.457 . S
C18 H23 0.929 . S
C19 C18 1.457 . S
C19 C20 1.291 . S
C19 H32 0.931 . S
C20 C19 1.291 . S
C20 C21 1.373 . S
C20 H33 0.929 . S
C21 C20 1.373 . S
C21 C22 1.396 . S
C21 C28 1.403 . S
C22 C12 1.476 . S
C22 N17 1.318 . S
C22 C21 1.396 . S
H23 C18 0.929 . S
O24 Mn0 2.385 . S
O24 C2 1.234 . S
O25 Mn0 2.209 . S
O25 Mn1 2.215 . S
O25 C2 1.283 . S
O26 Mn0 2.094 . S
O26 C4 1.240 . S
O27 Mn1 2.117 . S
O27 C4 1.264 . S
C28 C21 1.403 . S
C28 C29 1.399 . S
C28 H34 0.929 . S
C29 C9 1.449 . S
C29 C28 1.399 . S
C29 H35 0.930 . S
H30 C10 0.931 . S
H31 C11 0.930 . S
H32 C19 0.931 . S
H33 C20 0.929 . S
H34 C28 0.929 . S
H35 C29 0.930 . S
Mn36 O41 2.095 . S
Mn36 O51 2.162 . S
Mn36 O52 2.297 . S
Mn36 O60 2.385 . S
Mn36 O61 2.209 . S
Mn36 O62 2.094 . S
Mn37 O42 2.121 . S
Mn37 N44 2.257 . S
Mn37 N53 2.282 . S
Mn37 O61 2.215 . S
Mn37 O63 2.117 . S
C38 O60 1.234 . S
C38 O61 1.283 . S
C39 O51 1.281 . S
C39 O52 1.236 . S
C40 O62 1.240 . S
C40 O63 1.264 . S
O41 Mn36 2.095 . S
O41 C50 1.250 . S
O42 Mn37 2.121 . S
O42 C50 1.258 . S
C43 N44 1.326 . S
C43 C47 1.460 . S
C43 H49 0.929 . S
N44 Mn37 2.257 . S
N44 C43 1.326 . S
N44 C48 1.362 . S
C45 C46 1.258 . S
C45 C48 1.431 . S
C45 C65 1.449 . S
C46 C45 1.258 . S
C46 C47 1.477 . S
C46 H66 0.931 . S
C47 C43 1.460 . S
C47 C46 1.477 . S
C47 H67 0.930 . S
C48 N44 1.362 . S
C48 C45 1.431 . S
C48 C58 1.476 . S
H49 C43 0.929 . S
C50 O41 1.250 . S
C50 O42 1.258 . S
O51 Mn36 2.162 . S
O51 C39 1.281 . S
O52 Mn36 2.297 . S
O52 C39 1.236 . S
N53 Mn37 2.282 . S
N53 C54 1.328 . S
N53 C58 1.318 . S
C54 N53 1.328 . S
C54 C55 1.457 . S
C54 H59 0.929 . S
C55 C54 1.457 . S
C55 C56 1.291 . S
C55 H68 0.931 . S
C56 C55 1.291 . S
C56 C57 1.373 . S
C56 H69 0.929 . S
C57 C56 1.373 . S
C57 C58 1.396 . S
C57 C64 1.403 . S
C58 C48 1.476 . S
C58 N53 1.318 . S
C58 C57 1.396 . S
H59 C54 0.929 . S
O60 Mn36 2.385 . S
O60 C38 1.234 . S
O61 Mn36 2.209 . S
O61 Mn37 2.215 . S
O61 C38 1.283 . S
O62 Mn36 2.094 . S
O62 C40 1.240 . S
O63 Mn37 2.117 . S
O63 C40 1.264 . S
C64 C57 1.403 . S
C64 C65 1.399 . S
C64 H70 0.929 . S
C65 C45 1.449 . S
C65 C64 1.399 . S
C65 H71 0.930 . S
H66 C46 0.931 . S
H67 C47 0.930 . S
H68 C55 0.931 . S
H69 C56 0.929 . S
H70 C64 0.929 . S
H71 C65 0.930 . S
Mn72 O77 2.095 . S
Mn72 O87 2.162 . S
Mn72 O88 2.297 . S
Mn72 O96 2.385 . S
Mn72 O97 2.209 . S
Mn72 O98 2.094 . S
Mn73 O78 2.121 . S
Mn73 N80 2.257 . S
Mn73 N89 2.282 . S
Mn73 O97 2.215 . S
Mn73 O99 2.117 . S
C74 O96 1.234 . S
C74 O97 1.283 . S
C75 O87 1.281 . S
C75 O88 1.236 . S
C76 O98 1.240 . S
C76 O99 1.264 . S
O77 Mn72 2.095 . S
O77 C86 1.250 . S
O78 Mn73 2.121 . S
O78 C86 1.258 . S
C79 N80 1.326 . S
C79 C83 1.460 . S
C79 H85 0.929 . S
N80 Mn73 2.257 . S
N80 C79 1.326 . S
N80 C84 1.362 . S
C81 C82 1.258 . S
C81 C84 1.431 . S
C81 C101 1.449 . S
C82 C81 1.258 . S
C82 C83 1.477 . S
C82 H102 0.931 . S
C83 C79 1.460 . S
C83 C82 1.477 . S
C83 H103 0.930 . S
C84 N80 1.362 . S
C84 C81 1.431 . S
C84 C94 1.476 . S
H85 C79 0.929 . S
C86 O77 1.250 . S
C86 O78 1.258 . S
O87 Mn72 2.162 . S
O87 C75 1.281 . S
O88 Mn72 2.297 . S
O88 C75 1.236 . S
N89 Mn73 2.282 . S
N89 C90 1.328 . S
N89 C94 1.318 . S
C90 N89 1.328 . S
C90 C91 1.457 . S
C90 H95 0.929 . S
C91 C90 1.457 . S
C91 C92 1.291 . S
C91 H104 0.931 . S
C92 C91 1.291 . S
C92 C93 1.373 . S
C92 H105 0.929 . S
C93 C92 1.373 . S
C93 C94 1.396 . S
C93 C100 1.403 . S
C94 C84 1.476 . S
C94 N89 1.318 . S
C94 C93 1.396 . S
H95 C90 0.929 . S
O96 Mn72 2.385 . S
O96 C74 1.234 . S
O97 Mn72 2.209 . S
O97 Mn73 2.215 . S
O97 C74 1.283 . S
O98 Mn72 2.094 . S
O98 C76 1.240 . S
O99 Mn73 2.117 . S
O99 C76 1.264 . S
C100 C93 1.403 . S
C100 C101 1.399 . S
C100 H106 0.929 . S
C101 C81 1.449 . S
C101 C100 1.399 . S
C101 H107 0.930 . S
H102 C82 0.931 . S
H103 C83 0.930 . S
H104 C91 0.931 . S
H105 C92 0.929 . S
H106 C100 0.929 . S
H107 C101 0.930 . S
Mn108 O113 2.095 . S
Mn108 O123 2.162 . S
Mn108 O124 2.297 . S
Mn108 O132 2.385 . S
Mn108 O133 2.209 . S
Mn108 O134 2.094 . S
Mn109 O114 2.121 . S
Mn109 N116 2.257 . S
Mn109 N125 2.282 . S
Mn109 O133 2.215 . S
Mn109 O135 2.117 . S
C110 O132 1.234 . S
C110 O133 1.283 . S
C111 O123 1.281 . S
C111 O124 1.236 . S
C112 O134 1.240 . S
C112 O135 1.264 . S
O113 Mn108 2.095 . S
O113 C122 1.250 . S
O114 Mn109 2.121 . S
O114 C122 1.258 . S
C115 N116 1.326 . S
C115 C119 1.460 . S
C115 H121 0.929 . S
N116 Mn109 2.257 . S
N116 C115 1.326 . S
N116 C120 1.362 . S
C117 C118 1.258 . S
C117 C120 1.431 . S
C117 C137 1.449 . S
C118 C117 1.258 . S
C118 C119 1.477 . S
C118 H138 0.931 . S
C119 C115 1.460 . S
C119 C118 1.477 . S
C119 H139 0.930 . S
C120 N116 1.362 . S
C120 C117 1.431 . S
C120 C130 1.476 . S
H121 C115 0.929 . S
C122 O113 1.250 . S
C122 O114 1.258 . S
O123 Mn108 2.162 . S
O123 C111 1.281 . S
O124 Mn108 2.297 . S
O124 C111 1.236 . S
N125 Mn109 2.282 . S
N125 C126 1.328 . S
N125 C130 1.318 . S
C126 N125 1.328 . S
C126 C127 1.457 . S
C126 H131 0.929 . S
C127 C126 1.457 . S
C127 C128 1.291 . S
C127 H140 0.931 . S
C128 C127 1.291 . S
C128 C129 1.373 . S
C128 H141 0.929 . S
C129 C128 1.373 . S
C129 C130 1.396 . S
C129 C136 1.403 . S
C130 C120 1.476 . S
C130 N125 1.318 . S
C130 C129 1.396 . S
H131 C126 0.929 . S
O132 Mn108 2.385 . S
O132 C110 1.234 . S
O133 Mn108 2.209 . S
O133 Mn109 2.215 . S
O133 C110 1.283 . S
O134 Mn108 2.094 . S
O134 C112 1.240 . S
O135 Mn109 2.117 . S
O135 C112 1.264 . S
C136 C129 1.403 . S
C136 C137 1.399 . S
C136 H142 0.929 . S
C137 C117 1.449 . S
C137 C136 1.399 . S
C137 H143 0.930 . S
H138 C118 0.931 . S
H139 C119 0.930 . S
H140 C127 0.931 . S
H141 C128 0.929 . S
H142 C136 0.929 . S
H143 C137 0.930 . S
Mn144 O149 2.095 . S
Mn144 O159 2.162 . S
Mn144 O160 2.297 . S
Mn144 O168 2.385 . S
Mn144 O169 2.209 . S
Mn144 O170 2.094 . S
Mn145 O150 2.121 . S
Mn145 N152 2.257 . S
Mn145 N161 2.282 . S
Mn145 O169 2.215 . S
Mn145 O171 2.117 . S
C146 O168 1.234 . S
C146 O169 1.283 . S
C147 O159 1.281 . S
C147 O160 1.236 . S
C148 O170 1.240 . S
C148 O171 1.264 . S
O149 Mn144 2.095 . S
O149 C158 1.250 . S
O150 Mn145 2.121 . S
O150 C158 1.258 . S
C151 N152 1.326 . S
C151 C155 1.460 . S
C151 H157 0.929 . S
N152 Mn145 2.257 . S
N152 C151 1.326 . S
N152 C156 1.362 . S
C153 C154 1.258 . S
C153 C156 1.431 . S
C153 C173 1.449 . S
C154 C153 1.258 . S
C154 C155 1.477 . S
C154 H174 0.931 . S
C155 C151 1.460 . S
C155 C154 1.477 . S
C155 H175 0.930 . S
C156 N152 1.362 . S
C156 C153 1.431 . S
C156 C166 1.476 . S
H157 C151 0.929 . S
C158 O149 1.250 . S
C158 O150 1.258 . S
O159 Mn144 2.162 . S
O159 C147 1.281 . S
O160 Mn144 2.297 . S
O160 C147 1.236 . S
N161 Mn145 2.282 . S
N161 C162 1.328 . S
N161 C166 1.318 . S
C162 N161 1.328 . S
C162 C163 1.457 . S
C162 H167 0.929 . S
C163 C162 1.457 . S
C163 C164 1.291 . S
C163 H176 0.931 . S
C164 C163 1.291 . S
C164 C165 1.373 . S
C164 H177 0.929 . S
C165 C164 1.373 . S
C165 C166 1.396 . S
C165 C172 1.403 . S
C166 C156 1.476 . S
C166 N161 1.318 . S
C166 C165 1.396 . S
H167 C162 0.929 . S
O168 Mn144 2.385 . S
O168 C146 1.234 . S
O169 Mn144 2.209 . S
O169 Mn145 2.215 . S
O169 C146 1.283 . S
O170 Mn144 2.094 . S
O170 C148 1.240 . S
O171 Mn145 2.117 . S
O171 C148 1.264 . S
C172 C165 1.403 . S
C172 C173 1.399 . S
C172 H178 0.929 . S
C173 C153 1.449 . S
C173 C172 1.399 . S
C173 H179 0.930 . S
H174 C154 0.931 . S
H175 C155 0.930 . S
H176 C163 0.931 . S
H177 C164 0.929 . S
H178 C172 0.929 . S
H179 C173 0.930 . S
Mn180 O185 2.095 . S
Mn180 O195 2.162 . S
Mn180 O196 2.297 . S
Mn180 O204 2.385 . S
Mn180 O205 2.209 . S
Mn180 O206 2.094 . S
Mn181 O186 2.121 . S
Mn181 N188 2.257 . S
Mn181 N197 2.282 1_556 S
Mn181 O205 2.215 . S
Mn181 O207 2.117 . S
C182 O204 1.234 . S
C182 O205 1.283 . S
C183 O195 1.281 . S
C183 O196 1.236 . S
C184 O206 1.240 . S
C184 O207 1.264 . S
O185 Mn180 2.095 . S
O185 C194 1.250 . S
O186 Mn181 2.121 . S
O186 C194 1.258 . S
C187 N188 1.326 . S
C187 C191 1.460 . S
C187 H193 0.929 . S
N188 Mn181 2.257 . S
N188 C187 1.326 . S
N188 C192 1.362 1_556 S
C189 C190 1.258 . S
C189 C192 1.431 . S
C189 C209 1.449 . S
C190 C189 1.258 . S
C190 C191 1.477 1_554 S
C190 H210 0.931 . S
C191 C187 1.460 . S
C191 C190 1.477 1_556 S
C191 H211 0.930 . S
C192 N188 1.362 1_554 S
C192 C189 1.431 . S
C192 C202 1.476 . S
H193 C187 0.929 . S
C194 O185 1.250 . S
C194 O186 1.258 . S
O195 Mn180 2.162 . S
O195 C183 1.281 . S
O196 Mn180 2.297 . S
O196 C183 1.236 . S
N197 Mn181 2.282 1_554 S
N197 C198 1.328 . S
N197 C202 1.318 . S
C198 N197 1.328 . S
C198 C199 1.457 . S
C198 H203 0.929 . S
C199 C198 1.457 . S
C199 C200 1.291 . S
C199 H212 0.931 . S
C200 C199 1.291 . S
C200 C201 1.373 . S
C200 H213 0.929 . S
C201 C200 1.373 . S
C201 C202 1.396 . S
C201 C208 1.403 . S
C202 C192 1.476 . S
C202 N197 1.318 . S
C202 C201 1.396 . S
H203 C198 0.929 . S
O204 Mn180 2.385 . S
O204 C182 1.234 . S
O205 Mn180 2.209 . S
O205 Mn181 2.215 . S
O205 C182 1.283 . S
O206 Mn180 2.094 . S
O206 C184 1.240 . S
O207 Mn181 2.117 . S
O207 C184 1.264 . S
C208 C201 1.403 . S
C208 C209 1.399 . S
C208 H214 0.929 . S
C209 C189 1.449 . S
C209 C208 1.399 . S
C209 H215 0.930 . S
H210 C190 0.931 . S
H211 C191 0.930 . S
H212 C199 0.931 . S
H213 C200 0.929 . S
H214 C208 0.929 . S
H215 C209 0.930 . S
Mn216 O221 2.095 . S
Mn216 O231 2.162 . S
Mn216 O232 2.297 . S
Mn216 O240 2.385 . S
Mn216 O241 2.209 . S
Mn216 O242 2.094 . S
Mn217 O222 2.121 . S
Mn217 N224 2.257 . S
Mn217 N233 2.282 . S
Mn217 O241 2.215 . S
Mn217 O243 2.117 . S
C218 O240 1.234 . S
C218 O241 1.283 . S
C219 O231 1.281 . S
C219 O232 1.236 . S
C220 O242 1.240 . S
C220 O243 1.264 . S
O221 Mn216 2.095 . S
O221 C230 1.250 . S
O222 Mn217 2.121 . S
O222 C230 1.258 . S
C223 N224 1.326 . S
C223 C227 1.460 . S
C223 H229 0.929 . S
N224 Mn217 2.257 . S
N224 C223 1.326 . S
N224 C228 1.362 . S
C225 C226 1.258 . S
C225 C228 1.431 . S
C225 C245 1.449 . S
C226 C225 1.258 . S
C226 C227 1.477 . S
C226 H246 0.931 . S
C227 C223 1.460 . S
C227 C226 1.477 . S
C227 H247 0.930 . S
C228 N224 1.362 . S
C228 C225 1.431 . S
C228 C238 1.476 . S
H229 C223 0.929 . S
C230 O221 1.250 . S
C230 O222 1.258 . S
O231 Mn216 2.162 . S
O231 C219 1.281 . S
O232 Mn216 2.297 . S
O232 C219 1.236 . S
N233 Mn217 2.282 . S
N233 C234 1.328 . S
N233 C238 1.318 . S
C234 N233 1.328 . S
C234 C235 1.457 . S
C234 H239 0.929 . S
C235 C234 1.457 . S
C235 C236 1.291 . S
C235 H248 0.931 . S
C236 C235 1.291 . S
C236 C237 1.373 . S
C236 H249 0.929 . S
C237 C236 1.373 . S
C237 C238 1.396 . S
C237 C244 1.403 . S
C238 C228 1.476 . S
C238 N233 1.318 . S
C238 C237 1.396 . S
H239 C234 0.929 . S
O240 Mn216 2.385 . S
O240 C218 1.234 . S
O241 Mn216 2.209 . S
O241 Mn217 2.215 . S
O241 C218 1.283 . S
O242 Mn216 2.094 . S
O242 C220 1.240 . S
O243 Mn217 2.117 . S
O243 C220 1.264 . S
C244 C237 1.403 . S
C244 C245 1.399 . S
C244 H250 0.929 . S
C245 C225 1.449 . S
C245 C244 1.399 . S
C245 H251 0.930 . S
H246 C226 0.931 . S
H247 C227 0.930 . S
H248 C235 0.931 . S
H249 C236 0.929 . S
H250 C244 0.929 . S
H251 C245 0.930 . S
Mn252 O257 2.095 . S
Mn252 O267 2.162 . S
Mn252 O268 2.297 . S
Mn252 O276 2.385 . S
Mn252 O277 2.209 . S
Mn252 O278 2.094 . S
Mn253 O258 2.121 . S
Mn253 N260 2.257 . S
Mn253 N269 2.282 . S
Mn253 O277 2.215 . S
Mn253 O279 2.117 . S
C254 O276 1.234 . S
C254 O277 1.283 . S
C255 O267 1.281 . S
C255 O268 1.236 . S
C256 O278 1.240 . S
C256 O279 1.264 . S
O257 Mn252 2.095 . S
O257 C266 1.250 . S
O258 Mn253 2.121 . S
O258 C266 1.258 . S
C259 N260 1.326 . S
C259 C263 1.460 . S
C259 H265 0.929 . S
N260 Mn253 2.257 . S
N260 C259 1.326 . S
N260 C264 1.362 . S
C261 C262 1.258 . S
C261 C264 1.431 . S
C261 C281 1.449 . S
C262 C261 1.258 . S
C262 C263 1.477 . S
C262 H282 0.931 . S
C263 C259 1.460 . S
C263 C262 1.477 . S
C263 H283 0.930 . S
C264 N260 1.362 . S
C264 C261 1.431 . S
C264 C274 1.476 . S
H265 C259 0.929 . S
C266 O257 1.250 . S
C266 O258 1.258 . S
O267 Mn252 2.162 . S
O267 C255 1.281 . S
O268 Mn252 2.297 . S
O268 C255 1.236 . S
N269 Mn253 2.282 . S
N269 C270 1.328 . S
N269 C274 1.318 . S
C270 N269 1.328 . S
C270 C271 1.457 . S
C270 H275 0.929 . S
C271 C270 1.457 . S
C271 C272 1.291 . S
C271 H284 0.931 . S
C272 C271 1.291 . S
C272 C273 1.373 . S
C272 H285 0.929 . S
C273 C272 1.373 . S
C273 C274 1.396 . S
C273 C280 1.403 . S
C274 C264 1.476 . S
C274 N269 1.318 . S
C274 C273 1.396 . S
H275 C270 0.929 . S
O276 Mn252 2.385 . S
O276 C254 1.234 . S
O277 Mn252 2.209 . S
O277 Mn253 2.215 . S
O277 C254 1.283 . S
O278 Mn252 2.094 . S
O278 C256 1.240 . S
O279 Mn253 2.117 . S
O279 C256 1.264 . S
C280 C273 1.403 . S
C280 C281 1.399 . S
C280 H286 0.929 . S
C281 C261 1.449 . S
C281 C280 1.399 . S
C281 H287 0.930 . S
H282 C262 0.931 . S
H283 C263 0.930 . S
H284 C271 0.931 . S
H285 C272 0.929 . S
H286 C280 0.929 . S
H287 C281 0.930 . S
Mn288 O293 2.095 . S
Mn288 O303 2.162 . S
Mn288 O304 2.297 . S
Mn288 O312 2.385 . S
Mn288 O313 2.209 . S
Mn288 O314 2.094 . S
Mn289 O294 2.121 . S
Mn289 N296 2.257 . S
Mn289 N305 2.282 1_554 S
Mn289 O313 2.215 . S
Mn289 O315 2.117 . S
C290 O312 1.234 . S
C290 O313 1.283 . S
C291 O303 1.281 . S
C291 O304 1.236 . S
C292 O314 1.240 . S
C292 O315 1.264 . S
O293 Mn288 2.095 . S
O293 C302 1.250 . S
O294 Mn289 2.121 . S
O294 C302 1.258 . S
C295 N296 1.326 . S
C295 C299 1.460 . S
C295 H301 0.929 . S
N296 Mn289 2.257 . S
N296 C295 1.326 . S
N296 C300 1.362 1_554 S
C297 C298 1.258 . S
C297 C300 1.431 . S
C297 C317 1.449 . S
C298 C297 1.258 . S
C298 C299 1.477 1_556 S
C298 H318 0.931 . S
C299 C295 1.460 . S
C299 C298 1.477 1_554 S
C299 H319 0.930 . S
C300 N296 1.362 1_556 S
C300 C297 1.431 . S
C300 C310 1.476 . S
H301 C295 0.929 . S
C302 O293 1.250 . S
C302 O294 1.258 . S
O303 Mn288 2.162 . S
O303 C291 1.281 . S
O304 Mn288 2.297 . S
O304 C291 1.236 . S
N305 Mn289 2.282 1_556 S
N305 C306 1.328 . S
N305 C310 1.318 . S
C306 N305 1.328 . S
C306 C307 1.457 . S
C306 H311 0.929 . S
C307 C306 1.457 . S
C307 C308 1.291 . S
C307 H320 0.931 . S
C308 C307 1.291 . S
C308 C309 1.373 . S
C308 H321 0.929 . S
C309 C308 1.373 . S
C309 C310 1.396 . S
C309 C316 1.403 . S
C310 C300 1.476 . S
C310 N305 1.318 . S
C310 C309 1.396 . S
H311 C306 0.929 . S
O312 Mn288 2.385 . S
O312 C290 1.234 . S
O313 Mn288 2.209 . S
O313 Mn289 2.215 . S
O313 C290 1.283 . S
O314 Mn288 2.094 . S
O314 C292 1.240 . S
O315 Mn289 2.117 . S
O315 C292 1.264 . S
C316 C309 1.403 . S
C316 C317 1.399 . S
C316 H322 0.929 . S
C317 C297 1.449 . S
C317 C316 1.399 . S
C317 H323 0.930 . S
H318 C298 0.931 . S
H319 C299 0.930 . S
H320 C307 0.931 . S
H321 C308 0.929 . S
H322 C316 0.929 . S
H323 C317 0.930 . S
Mn324 O329 2.095 . S
Mn324 O339 2.162 . S
Mn324 O340 2.297 . S
Mn324 O348 2.385 . S
Mn324 O349 2.209 . S
Mn324 O350 2.094 . S
Mn325 O330 2.121 . S
Mn325 N332 2.257 . S
Mn325 N341 2.282 . S
Mn325 O349 2.215 . S
Mn325 O351 2.117 . S
C326 O348 1.234 . S
C326 O349 1.283 . S
C327 O339 1.281 . S
C327 O340 1.236 . S
C328 O350 1.240 . S
C328 O351 1.264 . S
O329 Mn324 2.095 . S
O329 C338 1.250 . S
O330 Mn325 2.121 . S
O330 C338 1.258 . S
C331 N332 1.326 . S
C331 C335 1.460 . S
C331 H337 0.929 . S
N332 Mn325 2.257 . S
N332 C331 1.326 . S
N332 C336 1.362 . S
C333 C334 1.258 . S
C333 C336 1.431 . S
C333 C353 1.449 . S
C334 C333 1.258 . S
C334 C335 1.477 . S
C334 H354 0.931 . S
C335 C331 1.460 . S
C335 C334 1.477 . S
C335 H355 0.930 . S
C336 N332 1.362 . S
C336 C333 1.431 . S
C336 C346 1.476 . S
H337 C331 0.929 . S
C338 O329 1.250 . S
C338 O330 1.258 . S
O339 Mn324 2.162 . S
O339 C327 1.281 . S
O340 Mn324 2.297 . S
O340 C327 1.236 . S
N341 Mn325 2.282 . S
N341 C342 1.328 . S
N341 C346 1.318 . S
C342 N341 1.328 . S
C342 C343 1.457 . S
C342 H347 0.929 . S
C343 C342 1.457 . S
C343 C344 1.291 . S
C343 H356 0.931 . S
C344 C343 1.291 . S
C344 C345 1.373 . S
C344 H357 0.929 . S
C345 C344 1.373 . S
C345 C346 1.396 . S
C345 C352 1.403 . S
C346 C336 1.476 . S
C346 N341 1.318 . S
C346 C345 1.396 . S
H347 C342 0.929 . S
O348 Mn324 2.385 . S
O348 C326 1.234 . S
O349 Mn324 2.209 . S
O349 Mn325 2.215 . S
O349 C326 1.283 . S
O350 Mn324 2.094 . S
O350 C328 1.240 . S
O351 Mn325 2.117 . S
O351 C328 1.264 . S
C352 C345 1.403 . S
C352 C353 1.399 . S
C352 H358 0.929 . S
C353 C333 1.449 . S
C353 C352 1.399 . S
C353 H359 0.930 . S
H354 C334 0.931 . S
H355 C335 0.930 . S
H356 C343 0.931 . S
H357 C344 0.929 . S
H358 C352 0.929 . S
H359 C353 0.930 . S
Mn360 O365 2.095 . S
Mn360 O375 2.162 . S
Mn360 O376 2.297 . S
Mn360 O384 2.385 . S
Mn360 O385 2.209 . S
Mn360 O386 2.094 . S
Mn361 O366 2.121 . S
Mn361 N368 2.257 . S
Mn361 N377 2.282 . S
Mn361 O385 2.215 . S
Mn361 O387 2.117 . S
C362 O384 1.234 . S
C362 O385 1.283 . S
C363 O375 1.281 . S
C363 O376 1.236 . S
C364 O386 1.240 . S
C364 O387 1.264 . S
O365 Mn360 2.095 . S
O365 C374 1.250 . S
O366 Mn361 2.121 . S
O366 C374 1.258 . S
C367 N368 1.326 . S
C367 C371 1.460 . S
C367 H373 0.929 . S
N368 Mn361 2.257 . S
N368 C367 1.326 . S
N368 C372 1.362 . S
C369 C370 1.258 . S
C369 C372 1.431 . S
C369 C389 1.449 . S
C370 C369 1.258 . S
C370 C371 1.477 . S
C370 H390 0.931 . S
C371 C367 1.460 . S
C371 C370 1.477 . S
C371 H391 0.930 . S
C372 N368 1.362 . S
C372 C369 1.431 . S
C372 C382 1.476 . S
H373 C367 0.929 . S
C374 O365 1.250 . S
C374 O366 1.258 . S
O375 Mn360 2.162 . S
O375 C363 1.281 . S
O376 Mn360 2.297 . S
O376 C363 1.236 . S
N377 Mn361 2.282 . S
N377 C378 1.328 . S
N377 C382 1.318 . S
C378 N377 1.328 . S
C378 C379 1.457 . S
C378 H383 0.929 . S
C379 C378 1.457 . S
C379 C380 1.291 . S
C379 H392 0.931 . S
C380 C379 1.291 . S
C380 C381 1.373 . S
C380 H393 0.929 . S
C381 C380 1.373 . S
C381 C382 1.396 . S
C381 C388 1.403 . S
C382 C372 1.476 . S
C382 N377 1.318 . S
C382 C381 1.396 . S
H383 C378 0.929 . S
O384 Mn360 2.385 . S
O384 C362 1.234 . S
O385 Mn360 2.209 . S
O385 Mn361 2.215 . S
O385 C362 1.283 . S
O386 Mn360 2.094 . S
O386 C364 1.240 . S
O387 Mn361 2.117 . S
O387 C364 1.264 . S
C388 C381 1.403 . S
C388 C389 1.399 . S
C388 H394 0.929 . S
C389 C369 1.449 . S
C389 C388 1.399 . S
C389 H395 0.930 . S
H390 C370 0.931 . S
H391 C371 0.930 . S
H392 C379 0.931 . S
H393 C380 0.929 . S
H394 C388 0.929 . S
H395 C389 0.930 . S
Mn396 O401 2.095 . S
Mn396 O411 2.162 . S
Mn396 O412 2.297 . S
Mn396 O420 2.385 . S
Mn396 O421 2.209 . S
Mn396 O422 2.094 . S
Mn397 O402 2.121 . S
Mn397 N404 2.257 . S
Mn397 N413 2.282 . S
Mn397 O421 2.215 . S
Mn397 O423 2.117 . S
C398 O420 1.234 . S
C398 O421 1.283 . S
C399 O411 1.281 . S
C399 O412 1.236 . S
C400 O422 1.240 . S
C400 O423 1.264 . S
O401 Mn396 2.095 . S
O401 C410 1.250 . S
O402 Mn397 2.121 . S
O402 C410 1.258 . S
C403 N404 1.326 . S
C403 C407 1.460 . S
C403 H409 0.929 . S
N404 Mn397 2.257 . S
N404 C403 1.326 . S
N404 C408 1.362 . S
C405 C406 1.258 . S
C405 C408 1.431 . S
C405 C425 1.449 . S
C406 C405 1.258 . S
C406 C407 1.477 . S
C406 H426 0.931 . S
C407 C403 1.460 . S
C407 C406 1.477 . S
C407 H427 0.930 . S
C408 N404 1.362 . S
C408 C405 1.431 . S
C408 C418 1.476 . S
H409 C403 0.929 . S
C410 O401 1.250 . S
C410 O402 1.258 . S
O411 Mn396 2.162 . S
O411 C399 1.281 . S
O412 Mn396 2.297 . S
O412 C399 1.236 . S
N413 Mn397 2.282 . S
N413 C414 1.328 . S
N413 C418 1.318 . S
C414 N413 1.328 . S
C414 C415 1.457 . S
C414 H419 0.929 . S
C415 C414 1.457 . S
C415 C416 1.291 . S
C415 H428 0.931 . S
C416 C415 1.291 . S
C416 C417 1.373 . S
C416 H429 0.929 . S
C417 C416 1.373 . S
C417 C418 1.396 . S
C417 C424 1.403 . S
C418 C408 1.476 . S
C418 N413 1.318 . S
C418 C417 1.396 . S
H419 C414 0.929 . S
O420 Mn396 2.385 . S
O420 C398 1.234 . S
O421 Mn396 2.209 . S
O421 Mn397 2.215 . S
O421 C398 1.283 . S
O422 Mn396 2.094 . S
O422 C400 1.240 . S
O423 Mn397 2.117 . S
O423 C400 1.264 . S
C424 C417 1.403 . S
C424 C425 1.399 . S
C424 H430 0.929 . S
C425 C405 1.449 . S
C425 C424 1.399 . S
C425 H431 0.930 . S
H426 C406 0.931 . S
H427 C407 0.930 . S
H428 C415 0.931 . S
H429 C416 0.929 . S
H430 C424 0.929 . S
H431 C425 0.930 . S
H432 C438 0.930 . S
H433 C442 0.930 . S
H434 C447 0.929 . S
H435 C445 0.929 . S
H436 C440 0.929 . S
H437 C446 0.929 . S
C438 H432 0.930 . S
C438 C439 1.367 . S
C438 C446 1.378 . S
C439 C438 1.367 . S
C439 C447 1.433 . S
C440 H436 0.929 . S
C440 C442 1.378 . S
C440 C444 1.350 . S
C441 C444 1.463 . S
C441 C446 1.350 . S
C441 N449 1.427 . S
C442 H433 0.930 . S
C442 C440 1.378 . S
C442 C443 1.367 . S
C443 C442 1.367 . S
C443 C445 1.433 . S
C444 C440 1.350 . S
C444 C441 1.463 . S
C444 N448 1.427 . S
C445 H435 0.929 . S
C445 C443 1.433 . S
C445 N448 1.384 . S
C446 H437 0.929 . S
C446 C438 1.378 . S
C446 C441 1.350 . S
C447 H434 0.929 . S
C447 C439 1.433 . S
C447 N449 1.384 . S
N448 C444 1.427 . S
N448 C445 1.384 . S
N449 C441 1.427 . S
N449 C447 1.384 . S
H450 C456 0.930 . S
H451 C460 0.930 . S
H452 C465 0.929 . S
H453 C463 0.929 . S
H454 C458 0.929 . S
H455 C464 0.929 . S
C456 H450 0.930 . S
C456 C457 1.367 . S
C456 C464 1.378 . S
C457 C456 1.367 . S
C457 C465 1.433 . S
C458 H454 0.929 . S
C458 C460 1.378 . S
C458 C462 1.350 . S
C459 C462 1.463 . S
C459 C464 1.350 . S
C459 N467 1.427 . S
C460 H451 0.930 . S
C460 C458 1.378 . S
C460 C461 1.367 . S
C461 C460 1.367 . S
C461 C463 1.433 . S
C462 C458 1.350 . S
C462 C459 1.463 . S
C462 N466 1.427 . S
C463 H453 0.929 . S
C463 C461 1.433 . S
C463 N466 1.384 . S
C464 H455 0.929 . S
C464 C456 1.378 . S
C464 C459 1.350 . S
C465 H452 0.929 . S
C465 C457 1.433 . S
C465 N467 1.384 . S
N466 C462 1.427 . S
N466 C463 1.384 . S
N467 C459 1.427 . S
N467 C465 1.384 . S
H468 C474 0.930 . S
H469 C478 0.930 . S
H470 C483 0.929 . S
H471 C481 0.929 . S
H472 C476 0.929 . S
H473 C482 0.929 . S
C474 H468 0.930 . S
C474 C475 1.367 . S
C474 C482 1.378 . S
C475 C474 1.367 . S
C475 C483 1.433 . S
C476 H472 0.929 . S
C476 C478 1.378 . S
C476 C480 1.350 . S
C477 C480 1.463 . S
C477 C482 1.350 . S
C477 N485 1.427 . S
C478 H469 0.930 . S
C478 C476 1.378 . S
C478 C479 1.367 . S
C479 C478 1.367 . S
C479 C481 1.433 . S
C480 C476 1.350 . S
C480 C477 1.463 . S
C480 N484 1.427 . S
C481 H471 0.929 . S
C481 C479 1.433 . S
C481 N484 1.384 . S
C482 H473 0.929 . S
C482 C474 1.378 . S
C482 C477 1.350 . S
C483 H470 0.929 . S
C483 C475 1.433 . S
C483 N485 1.384 . S
N484 C480 1.427 . S
N484 C481 1.384 . S
N485 C477 1.427 . S
N485 C483 1.384 . S
H486 C492 0.930 . S
H487 C496 0.930 . S
H488 C501 0.929 . S
H489 C499 0.929 . S
H490 C494 0.929 . S
H491 C500 0.929 . S
C492 H486 0.930 . S
C492 C493 1.367 . S
C492 C500 1.378 . S
C493 C492 1.367 . S
C493 C501 1.433 . S
C494 H490 0.929 . S
C494 C496 1.378 . S
C494 C498 1.350 . S
C495 C498 1.463 . S
C495 C500 1.350 . S
C495 N503 1.427 . S
C496 H487 0.930 . S
C496 C494 1.378 . S
C496 C497 1.367 . S
C497 C496 1.367 . S
C497 C499 1.433 . S
C498 C494 1.350 . S
C498 C495 1.463 . S
C498 N502 1.427 . S
C499 H489 0.929 . S
C499 C497 1.433 . S
C499 N502 1.384 . S
C500 H491 0.929 . S
C500 C492 1.378 . S
C500 C495 1.350 . S
C501 H488 0.929 . S
C501 C493 1.433 . S
C501 N503 1.384 . S
N502 C498 1.427 . S
N502 C499 1.384 . S
N503 C495 1.427 . S
N503 C501 1.384 . S
H504 C510 0.930 . S
H505 C514 0.930 . S
H506 C519 0.929 . S
H507 C517 0.929 . S
H508 C512 0.929 . S
H509 C518 0.929 . S
C510 H504 0.930 . S
C510 C511 1.367 . S
C510 C518 1.378 . S
C511 C510 1.367 . S
C511 C519 1.433 . S
C512 H508 0.929 . S
C512 C514 1.378 . S
C512 C516 1.350 . S
C513 C516 1.463 . S
C513 C518 1.350 . S
C513 N521 1.427 . S
C514 H505 0.930 . S
C514 C512 1.378 . S
C514 C515 1.367 . S
C515 C514 1.367 . S
C515 C517 1.433 . S
C516 C512 1.350 . S
C516 C513 1.463 . S
C516 N520 1.427 . S
C517 H507 0.929 . S
C517 C515 1.433 . S
C517 N520 1.384 . S
C518 H509 0.929 . S
C518 C510 1.378 . S
C518 C513 1.350 . S
C519 H506 0.929 . S
C519 C511 1.433 . S
C519 N521 1.384 . S
N520 C516 1.427 . S
N520 C517 1.384 . S
N521 C513 1.427 . S
N521 C519 1.384 . S
H522 C528 0.930 . S
H523 C532 0.930 . S
H524 C537 0.929 . S
H525 C535 0.929 . S
H526 C530 0.929 . S
H527 C536 0.929 . S
C528 H522 0.930 . S
C528 C529 1.367 . S
C528 C536 1.378 . S
C529 C528 1.367 . S
C529 C537 1.433 . S
C530 H526 0.929 . S
C530 C532 1.378 . S
C530 C534 1.350 . S
C531 C534 1.463 . S
C531 C536 1.350 . S
C531 N539 1.427 . S
C532 H523 0.930 . S
C532 C530 1.378 . S
C532 C533 1.367 . S
C533 C532 1.367 . S
C533 C535 1.433 . S
C534 C530 1.350 . S
C534 C531 1.463 . S
C534 N538 1.427 . S
C535 H525 0.929 . S
C535 C533 1.433 . S
C535 N538 1.384 . S
C536 H527 0.929 . S
C536 C528 1.378 . S
C536 C531 1.350 . S
C537 H524 0.929 . S
C537 C529 1.433 . S
C537 N539 1.384 . S
N538 C534 1.427 . S
N538 C535 1.384 . S
N539 C531 1.427 . S
N539 C537 1.384 . S
H540 C546 0.930 . S
H541 C550 0.930 . S
H542 C555 0.929 . S
H543 C553 0.929 . S
H544 C548 0.929 . S
H545 C554 0.929 . S
C546 H540 0.930 . S
C546 C547 1.367 . S
C546 C554 1.378 . S
C547 C546 1.367 . S
C547 C555 1.433 . S
C548 H544 0.929 . S
C548 C550 1.378 . S
C548 C552 1.350 . S
C549 C552 1.463 . S
C549 C554 1.350 . S
C549 N557 1.427 . S
C550 H541 0.930 . S
C550 C548 1.378 . S
C550 C551 1.367 . S
C551 C550 1.367 . S
C551 C553 1.433 . S
C552 C548 1.350 . S
C552 C549 1.463 . S
C552 N556 1.427 . S
C553 H543 0.929 . S
C553 C551 1.433 . S
C553 N556 1.384 . S
C554 H545 0.929 . S
C554 C546 1.378 . S
C554 C549 1.350 . S
C555 H542 0.929 . S
C555 C547 1.433 . S
C555 N557 1.384 . S
N556 C552 1.427 . S
N556 C553 1.384 . S
N557 C549 1.427 . S
N557 C555 1.384 . S
H558 C564 0.930 . S
H559 C568 0.930 . S
H560 C573 0.929 . S
H561 C571 0.929 . S
H562 C566 0.929 . S
H563 C572 0.929 . S
C564 H558 0.930 . S
C564 C565 1.367 . S
C564 C572 1.378 . S
C565 C564 1.367 . S
C565 C573 1.433 . S
C566 H562 0.929 . S
C566 C568 1.378 . S
C566 C570 1.350 . S
C567 C570 1.463 1_655 S
C567 C572 1.350 . S
C567 N575 1.427 . S
C568 H559 0.930 . S
C568 C566 1.378 . S
C568 C569 1.367 . S
C569 C568 1.367 . S
C569 C571 1.433 . S
C570 C566 1.350 . S
C570 C567 1.463 1_455 S
C570 N574 1.427 . S
C571 H561 0.929 . S
C571 C569 1.433 . S
C571 N574 1.384 . S
C572 H563 0.929 . S
C572 C564 1.378 . S
C572 C567 1.350 . S
C573 H560 0.929 . S
C573 C565 1.433 . S
C573 N575 1.384 . S
N574 C570 1.427 . S
N574 C571 1.384 . S
N575 C567 1.427 . S
N575 C573 1.384 . S
H576 C582 0.930 . S
H577 C586 0.930 . S
H578 C591 0.929 . S
H579 C589 0.929 . S
H580 C584 0.929 . S
H581 C590 0.929 . S
C582 H576 0.930 . S
C582 C583 1.367 . S
C582 C590 1.378 . S
C583 C582 1.367 . S
C583 C591 1.433 . S
C584 H580 0.929 . S
C584 C586 1.378 . S
C584 C588 1.350 . S
C585 C588 1.463 1_545 S
C585 C590 1.350 . S
C585 N593 1.427 . S
C586 H577 0.930 . S
C586 C584 1.378 . S
C586 C587 1.367 . S
C587 C586 1.367 . S
C587 C589 1.433 . S
C588 C584 1.350 . S
C588 C585 1.463 1_565 S
C588 N592 1.427 . S
C589 H579 0.929 . S
C589 C587 1.433 . S
C589 N592 1.384 . S
C590 H581 0.929 . S
C590 C582 1.378 . S
C590 C585 1.350 . S
C591 H578 0.929 . S
C591 C583 1.433 . S
C591 N593 1.384 . S
N592 C588 1.427 . S
N592 C589 1.384 . S
N593 C585 1.427 . S
N593 C591 1.384 . S
H594 C600 0.930 . S
H595 C604 0.930 . S
H596 C609 0.929 . S
H597 C607 0.929 . S
H598 C602 0.929 . S
H599 C608 0.929 . S
C600 H594 0.930 . S
C600 C601 1.367 . S
C600 C608 1.378 . S
C601 C600 1.367 . S
C601 C609 1.433 . S
C602 H598 0.929 . S
C602 C604 1.378 . S
C602 C606 1.350 . S
C603 C606 1.463 . S
C603 C608 1.350 . S
C603 N611 1.427 . S
C604 H595 0.930 . S
C604 C602 1.378 . S
C604 C605 1.367 . S
C605 C604 1.367 . S
C605 C607 1.433 . S
C606 C602 1.350 . S
C606 C603 1.463 . S
C606 N610 1.427 . S
C607 H597 0.929 . S
C607 C605 1.433 . S
C607 N610 1.384 . S
C608 H599 0.929 . S
C608 C600 1.378 . S
C608 C603 1.350 . S
C609 H596 0.929 . S
C609 C601 1.433 . S
C609 N611 1.384 . S
N610 C606 1.427 . S
N610 C607 1.384 . S
N611 C603 1.427 . S
N611 C609 1.384 . S
H612 C618 0.930 . S
H613 C622 0.930 . S
H614 C627 0.929 . S
H615 C625 0.929 . S
H616 C620 0.929 . S
H617 C626 0.929 . S
C618 H612 0.930 . S
C618 C619 1.367 . S
C618 C626 1.378 . S
C619 C618 1.367 . S
C619 C627 1.433 . S
C620 H616 0.929 . S
C620 C622 1.378 . S
C620 C624 1.350 . S
C621 C624 1.463 1_655 S
C621 C626 1.350 . S
C621 N629 1.427 . S
C622 H613 0.930 . S
C622 C620 1.378 . S
C622 C623 1.367 . S
C623 C622 1.367 . S
C623 C625 1.433 . S
C624 C620 1.350 . S
C624 C621 1.463 1_455 S
C624 N628 1.427 . S
C625 H615 0.929 . S
C625 C623 1.433 . S
C625 N628 1.384 . S
C626 H617 0.929 . S
C626 C618 1.378 . S
C626 C621 1.350 . S
C627 H614 0.929 . S
C627 C619 1.433 . S
C627 N629 1.384 . S
N628 C624 1.427 . S
N628 C625 1.384 . S
N629 C621 1.427 . S
N629 C627 1.384 . S
H630 C636 0.930 . S
H631 C640 0.930 . S
H632 C645 0.929 . S
H633 C643 0.929 . S
H634 C638 0.929 . S
H635 C644 0.929 . S
C636 H630 0.930 . S
C636 C637 1.367 . S
C636 C644 1.378 1_554 S
C637 C636 1.367 . S
C637 C645 1.433 . S
C638 H634 0.929 . S
C638 C640 1.378 1_554 S
C638 C642 1.350 1_554 S
C639 C642 1.463 1_564 S
C639 C644 1.350 1_554 S
C639 N647 1.427 . S
C640 H631 0.930 . S
C640 C638 1.378 1_556 S
C640 C641 1.367 . S
C641 C640 1.367 . S
C641 C643 1.433 . S
C642 C638 1.350 1_556 S
C642 C639 1.463 1_546 S
C642 N646 1.427 . S
C643 H633 0.929 . S
C643 C641 1.433 . S
C643 N646 1.384 . S
C644 H635 0.929 . S
C644 C636 1.378 1_556 S
C644 C639 1.350 1_556 S
C645 H632 0.929 . S
C645 C637 1.433 . S
C645 N647 1.384 . S
N646 C642 1.427 . S
N646 C643 1.384 . S
N647 C639 1.427 . S
N647 C645 1.384 . S
H648 C654 0.930 . S
H649 C658 0.930 . S
H650 C663 0.929 . S
H651 C661 0.929 . S
H652 C656 0.924 1_554 S
H653 C662 0.929 . S
C654 H648 0.930 . S
C654 C655 1.367 . S
C654 C662 1.378 . S
C655 C654 1.367 . S
C655 C663 1.433 . S
C656 H652 0.924 1_556 S
C656 C658 1.378 . S
C656 C660 1.350 1_556 S
C657 C660 1.463 . S
C657 C662 1.350 . S
C657 N665 1.427 . S
C658 H649 0.930 . S
C658 C656 1.378 . S
C658 C659 1.367 . S
C659 C658 1.367 . S
C659 C661 1.433 . S
C660 C656 1.350 1_554 S
C660 C657 1.463 . S
C660 N664 1.427 . S
C661 H651 0.929 . S
C661 C659 1.433 . S
C661 N664 1.384 1_556 S
C662 H653 0.929 . S
C662 C654 1.378 . S
C662 C657 1.350 . S
C663 H650 0.929 . S
C663 C655 1.433 . S
C663 N665 1.384 . S
N664 C660 1.427 . S
N664 C661 1.384 1_554 S
N665 C657 1.427 . S
N665 C663 1.384 . S
H666 C672 0.930 . S
H667 C676 0.930 1_655 S
H668 C681 0.929 . S
H669 C679 0.929 . S
H670 C674 0.929 . S
H671 C680 0.929 1_455 S
C672 H666 0.930 . S
C672 C673 1.367 . S
C672 C680 1.378 . S
C673 C672 1.367 . S
C673 C681 1.433 . S
C674 H670 0.929 . S
C674 C676 1.378 1_655 S
C674 C678 1.350 . S
C675 C678 1.463 . S
C675 C680 1.350 . S
C675 N683 1.427 . S
C676 H667 0.930 1_455 S
C676 C674 1.378 1_455 S
C676 C677 1.367 . S
C677 C676 1.367 . S
C677 C679 1.433 . S
C678 C674 1.350 . S
C678 C675 1.463 . S
C678 N682 1.427 1_655 S
C679 H669 0.929 . S
C679 C677 1.433 . S
C679 N682 1.384 . S
C680 H671 0.929 1_655 S
C680 C672 1.378 . S
C680 C675 1.350 . S
C681 H668 0.929 . S
C681 C673 1.433 . S
C681 N683 1.384 . S
N682 C678 1.427 1_455 S
N682 C679 1.384 . S
N683 C675 1.427 . S
N683 C681 1.384 . S
H684 C690 0.930 . S
H685 C694 0.930 . S
H686 C699 0.929 . S
H687 C697 0.929 . S
H688 C692 0.929 . S
H689 C698 0.929 . S
C690 H684 0.930 . S
C690 C691 1.367 . S
C690 C698 1.378 . S
C691 C690 1.367 . S
C691 C699 1.433 . S
C692 H688 0.929 . S
C692 C694 1.378 . S
C692 C696 1.350 . S
C693 C696 1.463 . S
C693 C698 1.350 1_565 S
C693 N701 1.429 1_565 S
C694 H685 0.930 . S
C694 C692 1.378 . S
C694 C695 1.367 . S
C695 C694 1.367 . S
C695 C697 1.433 . S
C696 C692 1.350 . S
C696 C693 1.463 . S
C696 N700 1.427 . S
C697 H687 0.929 . S
C697 C695 1.433 . S
C697 N700 1.384 . S
C698 H689 0.929 . S
C698 C690 1.378 . S
C698 C693 1.350 1_545 S
C699 H686 0.929 . S
C699 C691 1.433 . S
C699 N701 1.389 . S
N700 C696 1.427 . S
N700 C697 1.384 . S
N701 C693 1.429 1_545 S
N701 C699 1.389 . S
H702 C708 0.930 . S
H703 C712 0.930 . S
H704 C717 0.929 . S
H705 C715 0.929 . S
H706 C710 0.929 . S
H707 C716 0.929 . S
C708 H702 0.930 . S
C708 C709 1.367 . S
C708 C716 1.378 . S
C709 C708 1.367 . S
C709 C717 1.433 . S
C710 H706 0.929 . S
C710 C712 1.378 . S
C710 C714 1.350 . S
C711 C714 1.463 . S
C711 C716 1.350 . S
C711 N719 1.427 . S
C712 H703 0.930 . S
C712 C710 1.378 . S
C712 C713 1.367 . S
C713 C712 1.367 . S
C713 C715 1.433 . S
C714 C710 1.350 . S
C714 C711 1.463 . S
C714 N718 1.427 . S
C715 H705 0.929 . S
C715 C713 1.433 . S
C715 N718 1.384 . S
C716 H707 0.929 . S
C716 C708 1.378 . S
C716 C711 1.350 . S
C717 H704 0.929 . S
C717 C709 1.433 . S
C717 N719 1.384 . S
N718 C714 1.427 . S
N718 C715 1.384 . S
N719 C711 1.427 . S
N719 C717 1.384 . S
H720 C726 0.930 . S
H721 C730 0.930 . S
H722 C735 0.929 . S
H723 C733 0.929 . S
H724 C728 0.929 . S
H725 C734 0.929 . S
C726 H720 0.930 . S
C726 C727 1.367 . S
C726 C734 1.378 . S
C727 C726 1.367 . S
C727 C735 1.433 . S
C728 H724 0.929 . S
C728 C730 1.378 . S
C728 C732 1.350 1_655 S
C729 C732 1.463 . S
C729 C734 1.350 . S
C729 N737 1.427 . S
C730 H721 0.930 . S
C730 C728 1.378 . S
C730 C731 1.367 . S
C731 C730 1.367 . S
C731 C733 1.433 . S
C732 C728 1.350 1_455 S
C732 C729 1.463 . S
C732 N736 1.427 . S
C733 H723 0.929 . S
C733 C731 1.433 . S
C733 N736 1.384 1_655 S
C734 H725 0.929 . S
C734 C726 1.378 . S
C734 C729 1.350 . S
C735 H722 0.929 . S
C735 C727 1.433 . S
C735 N737 1.384 . S
N736 C732 1.427 . S
N736 C733 1.384 1_455 S
N737 C729 1.427 . S
N737 C735 1.384 . S
H738 C744 0.930 . S
H739 C748 0.930 . S
H740 C753 0.929 . S
H741 C751 0.929 . S
H742 C746 0.929 . S
H743 C752 0.929 . S
C744 H738 0.930 . S
C744 C745 1.367 . S
C744 C752 1.378 . S
C745 C744 1.367 . S
C745 C753 1.433 . S
C746 H742 0.929 . S
C746 C748 1.378 . S
C746 C750 1.350 1_565 S
C747 C750 1.463 . S
C747 C752 1.350 . S
C747 N755 1.427 . S
C748 H739 0.930 . S
C748 C746 1.378 . S
C748 C749 1.367 . S
C749 C748 1.367 . S
C749 C751 1.433 . S
C750 C746 1.350 1_545 S
C750 C747 1.463 . S
C750 N754 1.427 . S
C751 H741 0.929 . S
C751 C749 1.433 . S
C751 N754 1.384 1_565 S
C752 H743 0.929 . S
C752 C744 1.378 . S
C752 C747 1.350 . S
C753 H740 0.929 . S
C753 C745 1.433 . S
C753 N755 1.384 . S
N754 C750 1.427 . S
N754 C751 1.384 1_545 S
N755 C747 1.427 . S
N755 C753 1.384 . S
H756 C762 0.930 . S
H757 C766 0.930 . S
H758 C771 0.929 . S
H759 C769 0.929 . S
H760 C764 0.929 . S
H761 C770 0.929 . S
C762 H756 0.930 . S
C762 C763 1.367 . S
C762 C770 1.378 . S
C763 C762 1.367 . S
C763 C771 1.433 . S
C764 H760 0.929 . S
C764 C766 1.378 . S
C764 C768 1.350 . S
C765 C768 1.463 . S
C765 C770 1.350 . S
C765 N773 1.427 . S
C766 H757 0.930 . S
C766 C764 1.378 . S
C766 C767 1.367 . S
C767 C766 1.367 . S
C767 C769 1.433 . S
C768 C764 1.350 . S
C768 C765 1.463 . S
C768 N772 1.427 . S
C769 H759 0.929 . S
C769 C767 1.433 . S
C769 N772 1.384 . S
C770 H761 0.929 . S
C770 C762 1.378 . S
C770 C765 1.350 . S
C771 H758 0.929 . S
C771 C763 1.433 . S
C771 N773 1.384 . S
N772 C768 1.427 . S
N772 C769 1.384 . S
N773 C765 1.427 . S
N773 C771 1.384 . S
H774 C780 0.930 . S
H775 C784 0.930 . S
H776 C789 0.929 . S
H777 C787 0.929 . S
H778 C782 0.929 . S
H779 C788 0.929 . S
C780 H774 0.930 . S
C780 C781 1.367 . S
C780 C788 1.378 . S
C781 C780 1.367 . S
C781 C789 1.433 . S
C782 H778 0.929 . S
C782 C784 1.378 1_656 S
C782 C786 1.350 . S
C783 C786 1.463 . S
C783 C788 1.350 . S
C783 N791 1.427 . S
C784 H775 0.930 . S
C784 C782 1.378 1_454 S
C784 C785 1.367 . S
C785 C784 1.367 . S
C785 C787 1.433 . S
C786 C782 1.350 . S
C786 C783 1.463 . S
C786 N790 1.427 1_655 S
C787 H777 0.929 . S
C787 C785 1.433 . S
C787 N790 1.384 1_554 S
C788 H779 0.929 . S
C788 C780 1.378 . S
C788 C783 1.350 . S
C789 H776 0.929 . S
C789 C781 1.433 . S
C789 N791 1.384 . S
N790 C786 1.427 1_455 S
N790 C787 1.384 1_556 S
N791 C783 1.427 . S
N791 C789 1.384 . S
H792 C798 0.930 . S
H793 C802 0.930 . S
H794 C807 0.929 . S
H795 C805 0.929 . S
H796 C800 0.929 . S
H797 C806 0.929 . S
C798 H792 0.930 . S
C798 C799 1.367 . S
C798 C806 1.378 . S
C799 C798 1.367 . S
C799 C807 1.433 . S
C800 H796 0.929 . S
C800 C802 1.378 . S
C800 C804 1.350 1_545 S
C801 C804 1.463 . S
C801 C806 1.350 . S
C801 N809 1.427 . S
C802 H793 0.930 . S
C802 C800 1.378 . S
C802 C803 1.367 . S
C803 C802 1.367 . S
C803 C805 1.433 . S
C804 C800 1.350 1_565 S
C804 C801 1.463 . S
C804 N808 1.427 . S
C805 H795 0.929 . S
C805 C803 1.433 . S
C805 N808 1.384 1_545 S
C806 H797 0.929 . S
C806 C798 1.378 . S
C806 C801 1.350 . S
C807 H794 0.929 . S
C807 C799 1.433 . S
C807 N809 1.384 . S
N808 C804 1.427 . S
N808 C805 1.384 1_565 S
N809 C801 1.427 . S
N809 C807 1.384 . S
H810 C816 0.930 . S
H811 C820 0.930 . S
H812 C825 0.929 . S
H813 C823 0.929 . S
H814 C818 0.929 . S
H815 C824 0.929 . S
C816 H810 0.930 . S
C816 C817 1.367 . S
C816 C824 1.378 . S
C817 C816 1.367 . S
C817 C825 1.433 . S
C818 H814 0.929 . S
C818 C820 1.378 . S
C818 C822 1.350 . S
C819 C822 1.463 . S
C819 C824 1.350 . S
C819 N827 1.427 . S
C820 H811 0.930 . S
C820 C818 1.378 . S
C820 C821 1.367 . S
C821 C820 1.367 . S
C821 C823 1.433 . S
C822 C818 1.350 . S
C822 C819 1.463 . S
C822 N826 1.427 . S
C823 H813 0.929 . S
C823 C821 1.433 . S
C823 N826 1.384 . S
C824 H815 0.929 . S
C824 C816 1.378 . S
C824 C819 1.350 . S
C825 H812 0.929 . S
C825 C817 1.433 . S
C825 N827 1.384 . S
N826 C822 1.427 . S
N826 C823 1.384 . S
N827 C819 1.427 . S
N827 C825 1.384 . S
H828 C834 0.930 . S
H829 C838 0.930 1_455 S
H830 C843 0.929 . S
H831 C841 0.929 . S
H832 C836 0.929 . S
H833 C842 0.929 1_655 S
C834 H828 0.930 . S
C834 C835 1.367 . S
C834 C842 1.378 . S
C835 C834 1.367 . S
C835 C843 1.433 . S
C836 H832 0.929 . S
C836 C838 1.378 1_455 S
C836 C840 1.350 . S
C837 C840 1.463 . S
C837 C842 1.350 . S
C837 N845 1.427 . S
C838 H829 0.930 1_655 S
C838 C836 1.378 1_655 S
C838 C839 1.367 . S
C839 C838 1.367 . S
C839 C841 1.433 . S
C840 C836 1.350 . S
C840 C837 1.463 . S
C840 N844 1.427 1_455 S
C841 H831 0.929 . S
C841 C839 1.433 . S
C841 N844 1.384 . S
C842 H833 0.929 1_455 S
C842 C834 1.378 . S
C842 C837 1.350 . S
C843 H830 0.929 . S
C843 C835 1.433 . S
C843 N845 1.384 . S
N844 C840 1.427 1_655 S
N844 C841 1.384 . S
N845 C837 1.427 . S
N845 C843 1.384 . S
H846 C852 0.930 . S
H847 C856 0.930 . S
H848 C861 0.929 1_545 S
H849 C859 0.929 . S
H850 C854 0.929 . S
H851 C860 0.929 . S
C852 H846 0.930 . S
C852 C853 1.367 . S
C852 C860 1.378 . S
C853 C852 1.367 . S
C853 C861 1.433 . S
C854 H850 0.929 . S
C854 C856 1.378 . S
C854 C858 1.350 . S
C855 C858 1.463 . S
C855 C860 1.350 1_545 S
C855 N863 1.427 . S
C856 H847 0.930 . S
C856 C854 1.378 . S
C856 C857 1.367 . S
C857 C856 1.367 . S
C857 C859 1.433 . S
C858 C854 1.350 . S
C858 C855 1.463 . S
C858 N862 1.427 . S
C859 H849 0.929 . S
C859 C857 1.433 . S
C859 N862 1.384 . S
C860 H851 0.929 . S
C860 C852 1.378 . S
C860 C855 1.350 1_565 S
C861 H848 0.929 1_565 S
C861 C853 1.433 . S
C861 N863 1.384 1_565 S
N862 C858 1.427 . S
N862 C859 1.384 . S
N863 C855 1.427 . S
N863 C861 1.384 1_545 S
C439 C302 1.159 . S
C443 C14 1.165 . S
C457 C50 1.162 . S
C461 C338 1.166 . S
C475 C86 1.150 . S
C479 C374 1.149 . S
C493 C122 1.166 . S
C497 C410 1.166 . S
C511 C230 1.166 . S
C515 C158 1.166 . S
C529 C194 1.151 . S
C533 C266 1.148 . S
C547 C326 0.856 . S
C551 C2 0.867 . S
C565 C38 0.857 . S
C569 C362 0.875 . S
C583 C398 0.874 . S
C587 C74 0.852 . S
C601 C110 0.863 . S
C605 C218 0.859 . S
C619 C254 0.867 . S
C623 C146 0.866 . S
C637 C290 0.872 . S
C641 C182 0.861 . S
C655 C3 1.450 . S
C659 C184 1.419 . S
C673 C39 1.446 . S
C677 C4 1.421 . S
C691 C40 1.415 . S
C695 C75 1.451 . S
C709 C111 1.449 . S
C713 C76 1.419 . S
C727 C147 1.447 . S
C731 C112 1.413 . S
C745 C183 1.448 . S
C749 C148 1.410 . S
C763 C219 1.450 . S
C767 C256 1.408 . S
C781 C255 1.450 . S
C785 C292 1.417 . S
C799 C291 1.447 . S
C803 C328 1.413 . S
C817 C327 1.450 . S
C821 C364 1.409 . S
C835 C363 1.447 . S
C839 C400 1.422 . S
C853 C220 1.409 . S
C857 C399 1.451 . S
