# Generated by pormake.
# Topology yfy, (5)-cn, num edge types: 1
# Building blocks:
#     Node 0, Type 0, BuildingBlock: XOMCOT_clean_sbu_0, # of connection points: 5
#     Node 1, Type 0, BuildingBlock: XOMCOT_clean_sbu_0, # of connection points: 5
#     Node 2, Type 0, BuildingBlock: XOMCOT_clean_sbu_0, # of connection points: 5
#     Node 3, Type 0, BuildingBlock: XOMCOT_clean_sbu_0, # of connection points: 5
#     Node 4, Type 0, BuildingBlock: XOMCOT_clean_sbu_0, # of connection points: 5
#     Node 5, Type 0, BuildingBlock: XOMCOT_clean_sbu_0, # of connection points: 5
#     Node 6, Type 0, BuildingBlock: XOMCOT_clean_sbu_0, # of connection points: 5
#     Node 7, Type 0, BuildingBlock: XOMCOT_clean_sbu_0, # of connection points: 5
#     Node 8, Type 0, BuildingBlock: XOMCOT_clean_sbu_0, # of connection points: 5
#     Node 9, Type 0, BuildingBlock: XOMCOT_clean_sbu_0, # of connection points: 5
#     Node 10, Type 0, BuildingBlock: XOMCOT_clean_sbu_0, # of connection points: 5
#     Node 11, Type 0, BuildingBlock: XOMCOT_clean_sbu_0, # of connection points: 5
#     Node 12, Type 0, BuildingBlock: XOMCOT_clean_sbu_0, # of connection points: 5
#     Node 13, Type 0, BuildingBlock: XOMCOT_clean_sbu_0, # of connection points: 5
#     Node 14, Type 0, BuildingBlock: XOMCOT_clean_sbu_0, # of connection points: 5
#     Node 15, Type 0, BuildingBlock: XOMCOT_clean_sbu_0, # of connection points: 5
#     Edge 16, Type (0, 0), BuildingBlock: KIFKEQ_clean_linker_1, # of connection points: 2
#     Edge 17, Type (0, 0), BuildingBlock: KIFKEQ_clean_linker_1, # of connection points: 2
#     Edge 18, Type (0, 0), BuildingBlock: KIFKEQ_clean_linker_1, # of connection points: 2
#     Edge 19, Type (0, 0), BuildingBlock: KIFKEQ_clean_linker_1, # of connection points: 2
#     Edge 20, Type (0, 0), BuildingBlock: KIFKEQ_clean_linker_1, # of connection points: 2
#     Edge 21, Type (0, 0), BuildingBlock: KIFKEQ_clean_linker_1, # of connection points: 2
#     Edge 22, Type (0, 0), BuildingBlock: KIFKEQ_clean_linker_1, # of connection points: 2
#     Edge 23, Type (0, 0), BuildingBlock: KIFKEQ_clean_linker_1, # of connection points: 2
#     Edge 24, Type (0, 0), BuildingBlock: KIFKEQ_clean_linker_1, # of connection points: 2
#     Edge 25, Type (0, 0), BuildingBlock: KIFKEQ_clean_linker_1, # of connection points: 2
#     Edge 26, Type (0, 0), BuildingBlock: KIFKEQ_clean_linker_1, # of connection points: 2
#     Edge 27, Type (0, 0), BuildingBlock: KIFKEQ_clean_linker_1, # of connection points: 2
#     Edge 28, Type (0, 0), BuildingBlock: KIFKEQ_clean_linker_1, # of connection points: 2
#     Edge 29, Type (0, 0), BuildingBlock: KIFKEQ_clean_linker_1, # of connection points: 2
#     Edge 30, Type (0, 0), BuildingBlock: KIFKEQ_clean_linker_1, # of connection points: 2
#     Edge 31, Type (0, 0), BuildingBlock: KIFKEQ_clean_linker_1, # of connection points: 2
#     Edge 32, Type (0, 0), BuildingBlock: KIFKEQ_clean_linker_1, # of connection points: 2
#     Edge 33, Type (0, 0), BuildingBlock: KIFKEQ_clean_linker_1, # of connection points: 2
#     Edge 34, Type (0, 0), BuildingBlock: KIFKEQ_clean_linker_1, # of connection points: 2
#     Edge 35, Type (0, 0), BuildingBlock: KIFKEQ_clean_linker_1, # of connection points: 2
#     Edge 36, Type (0, 0), BuildingBlock: KIFKEQ_clean_linker_1, # of connection points: 2
#     Edge 37, Type (0, 0), BuildingBlock: KIFKEQ_clean_linker_1, # of connection points: 2
#     Edge 38, Type (0, 0), BuildingBlock: KIFKEQ_clean_linker_1, # of connection points: 2
#     Edge 39, Type (0, 0), BuildingBlock: KIFKEQ_clean_linker_1, # of connection points: 2
#     Edge 40, Type (0, 0), BuildingBlock: KIFKEQ_clean_linker_1, # of connection points: 2
#     Edge 41, Type (0, 0), BuildingBlock: KIFKEQ_clean_linker_1, # of connection points: 2
#     Edge 42, Type (0, 0), BuildingBlock: KIFKEQ_clean_linker_1, # of connection points: 2
#     Edge 43, Type (0, 0), BuildingBlock: KIFKEQ_clean_linker_1, # of connection points: 2
#     Edge 44, Type (0, 0), BuildingBlock: KIFKEQ_clean_linker_1, # of connection points: 2
#     Edge 45, Type (0, 0), BuildingBlock: KIFKEQ_clean_linker_1, # of connection points: 2
#     Edge 46, Type (0, 0), BuildingBlock: KIFKEQ_clean_linker_1, # of connection points: 2
#     Edge 47, Type (0, 0), BuildingBlock: KIFKEQ_clean_linker_1, # of connection points: 2
#     Edge 48, Type (0, 0), BuildingBlock: KIFKEQ_clean_linker_1, # of connection points: 2
#     Edge 49, Type (0, 0), BuildingBlock: KIFKEQ_clean_linker_1, # of connection points: 2
#     Edge 50, Type (0, 0), BuildingBlock: KIFKEQ_clean_linker_1, # of connection points: 2
#     Edge 51, Type (0, 0), BuildingBlock: KIFKEQ_clean_linker_1, # of connection points: 2
#     Edge 52, Type (0, 0), BuildingBlock: KIFKEQ_clean_linker_1, # of connection points: 2
#     Edge 53, Type (0, 0), BuildingBlock: KIFKEQ_clean_linker_1, # of connection points: 2
#     Edge 54, Type (0, 0), BuildingBlock: KIFKEQ_clean_linker_1, # of connection points: 2
#     Edge 55, Type (0, 0), BuildingBlock: KIFKEQ_clean_linker_1, # of connection points: 2
# Relax obj value: 0.246
# Max RMSD: 0.242
# Mean RMSD: 0.242
data_MOF--net-yfy--node1-XOMCOT_clean_sbu_0--edge1-KIFKEQ_clean_linker_1
_symmetry_space_group_name_H-M    P1
_symmetry_Int_Tables_number       1
_symmetry_cell_setting            triclinic
loop_
_symmetry_equiv_pos_as_xyz
'x, y, z'
_cell_length_a     44.166292
_cell_length_b     44.17047
_cell_length_c     50.041086
_cell_angle_alpha  89.827653
_cell_angle_beta   90.119035
_cell_angle_gamma 90.017351
loop_
_atom_site_label
_atom_site_type_symbol
_atom_site_fract_x
_atom_site_fract_y
_atom_site_fract_z
_atom_type_partial_charge
Co0 Co 0.03073 0.31062 0.3306 0.0
C1 C 0.9887 0.25793 0.3214 0.0
C2 C 0.96572 0.29839 0.33361 0.0
C3 C 0.94457 0.27592 0.33007 0.0
N4 N 0.99347 0.28718 0.32843 0.0
N5 N 0.95899 0.25051 0.32238 0.0
H6 H 1.00642 0.24217 0.31614 0.0
H7 H 0.96117 0.32142 0.3397 0.0
C8 C 1.01241 0.37197 0.30524 0.0
O9 O 0.03714 0.3858 0.31308 0.0
N10 N 0.06815 0.33368 0.3323 0.0
C11 C 0.08604 0.33728 0.35391 0.0
C12 C 0.11197 0.35225 0.34632 0.0
C13 C 0.08423 0.34506 0.31163 0.0
N14 N 0.11076 0.35739 0.31973 0.0
C15 C 1.01238 0.30452 0.38455 0.0
C16 C 0.02289 0.36365 0.39983 0.0
C17 C 0.01926 0.34139 0.41958 0.0
C18 C 1.0124 0.31183 0.41165 0.0
C19 C 0.02191 0.35549 0.37283 0.0
N20 N 0.01845 0.3259 0.36552 0.0
H21 H 1.00985 0.28104 0.37894 0.0
H22 H 0.02704 0.37255 0.35827 0.0
H23 H 0.08094 0.32897 0.37375 0.0
H24 H 0.07623 0.34482 0.29118 0.0
O25 O 0.05282 0.27624 0.34366 0.0
O26 O 0.04797 0.28807 0.30079 0.0
O27 O 1.00805 0.34389 0.31054 0.0
C28 C 0.05979 0.2704 0.31906 0.0
H29 H 0.92037 0.27818 0.33278 0.0
H30 H 0.13053 0.3583 0.3594 0.0
H31 H 0.02811 0.3868 0.40523 0.0
H32 H 1.0096 0.29394 0.4263 0.0
Co33 Co 0.80001 0.03202 0.32172 0.0
C34 C 0.8503 0.98865 0.309 0.0
C35 C 0.81073 0.96667 0.3245 0.0
C36 C 0.8318 0.9449 0.31836 0.0
N37 N 0.82228 0.99417 0.31881 0.0
N38 N 0.85669 0.95865 0.30849 0.0
H39 H 0.86546 1.00602 0.30179 0.0
H40 H 0.78831 0.96267 0.33242 0.0
C41 C 0.73825 0.01701 0.29598 0.0
O42 O 0.7264 0.04301 0.3029 0.0
N43 N 0.77814 0.07008 0.324 0.0
C44 C 0.77305 0.0871 0.34587 0.0
C45 C 0.75872 0.11345 0.33814 0.0
C46 C 0.76858 0.08715 0.30323 0.0
N47 N 0.75562 0.11325 0.31131 0.0
C48 C 0.80547 1.0123 0.37538 0.0
C49 C 0.74601 0.02153 0.39042 0.0
C50 C 0.76794 0.01659 0.41025 0.0
C51 C 0.79773 1.01059 0.40233 0.0
C52 C 0.75462 0.02233 0.36348 0.0
N53 N 0.78434 0.01927 0.3564 0.0
H54 H 0.82901 1.00999 0.3699 0.0
H55 H 0.73778 0.02817 0.34887 0.0
H56 H 0.77943 0.08096 0.36604 0.0
H57 H 0.77054 0.08017 0.28259 0.0
O58 O 0.83503 0.05273 0.33503 0.0
O59 O 0.82313 0.04962 0.29212 0.0
O60 O 0.76579 1.01055 0.3018 0.0
C61 C 0.84108 0.06042 0.31062 0.0
H62 H 0.82897 0.92079 0.32126 0.0
H63 H 0.7506 0.13101 0.35135 0.0
H64 H 0.72271 0.02614 0.39575 0.0
H65 H 0.81544 1.00688 0.41699 0.0
Co66 Co 0.07332 0.79757 0.31356 0.0
C67 C 0.11848 0.84943 0.31141 0.0
C68 C 0.12402 0.81627 0.28073 0.0
C69 C 0.14427 0.83907 0.27617 0.0
N70 N 0.10849 0.82181 0.30343 0.0
N71 N 0.1409 0.85997 0.29539 0.0
H72 H 0.10875 0.86236 0.32751 0.0
H73 H 0.11975 0.79766 0.26727 0.0
C74 C 0.12121 0.75222 0.30426 0.0
O75 O 0.13692 0.76862 0.32123 0.0
N76 N 0.03792 0.77343 0.32113 0.0
C77 C 0.01868 0.77513 0.3419 0.0
C78 C 0.9956 0.75452 0.33785 0.0
C79 C 0.02631 0.75233 0.30471 0.0
N80 N 1.00048 0.7402 0.31441 0.0
C81 C 0.09292 0.81121 0.36706 0.0
C82 C 0.08685 0.75266 0.38602 0.0
C83 C 0.08961 0.77635 0.40436 0.0
C84 C 0.09402 0.80576 0.39459 0.0
C85 C 0.08643 0.75899 0.35866 0.0
N86 N 0.08846 0.78814 0.34939 0.0
H87 H 0.09267 0.83433 0.36038 0.0
H88 H 0.08151 0.74065 0.34509 0.0
H89 H 0.02112 0.79042 0.35862 0.0
H90 H 0.03615 0.74688 0.28554 0.0
O91 O 0.05154 0.83342 0.32295 0.0
O92 O 0.05218 0.81379 0.28226 0.0
O93 O 0.09414 0.76032 0.29812 0.0
C94 C 0.04227 0.83478 0.29841 0.0
H95 H 0.1591 0.84101 0.25905 0.0
H96 H 0.97669 0.75058 0.35112 0.0
H97 H 0.08325 0.72962 0.3928 0.0
H98 H 0.09562 0.82477 0.40816 0.0
Co99 Co 0.30861 0.07504 0.31761 0.0
C100 C 0.25817 0.1215 0.31849 0.0
C101 C 0.28964 0.12741 0.28647 0.0
C102 C 0.26675 0.1479 0.28313 0.0
N103 N 0.28522 0.11144 0.3092 0.0
N104 N 0.24685 0.14429 0.3032 0.0
H105 H 0.24602 0.11137 0.33494 0.0
H106 H 0.30725 0.12311 0.27202 0.0
C107 C 0.35539 0.12059 0.30545 0.0
O108 O 0.34099 0.13691 0.3233 0.0
N109 N 0.33134 0.03826 0.3237 0.0
C110 C 0.33001 0.01947 0.34491 0.0
C111 C 0.34758 0.99438 0.33964 0.0
C112 C 0.34919 0.02431 0.30574 0.0
N113 N 0.35949 0.99739 0.31493 0.0
C114 C 0.30068 0.09541 0.37171 0.0
C115 C 0.3603 0.08624 0.3867 0.0
C116 C 0.33845 0.09039 0.40657 0.0
C117 C 0.30856 0.09636 0.39877 0.0
C118 C 0.35157 0.08585 0.35988 0.0
N119 N 0.32186 0.08945 0.35262 0.0
H120 H 0.27709 0.09661 0.36657 0.0
H121 H 0.36836 0.07981 0.34517 0.0
H122 H 0.31662 0.0234 0.36264 0.0
H123 H 0.35403 0.03354 0.28616 0.0
O124 O 0.27267 0.05495 0.32945 0.0
O125 O 0.28879 0.05512 0.28754 0.0
O126 O 0.3455 0.09404 0.29972 0.0
C127 C 0.26886 0.04592 0.30508 0.0
H128 H 0.26392 0.16288 0.26616 0.0
H129 H 0.35036 0.97491 0.3526 0.0
H130 H 0.38364 0.08149 0.39192 0.0
H131 H 0.29089 0.09912 0.41355 0.0
Co132 Co 0.04762 0.80364 0.6896 0.0
C133 C 1.00422 0.85455 0.70094 0.0
C134 C 0.98268 0.81506 0.68483 0.0
C135 C 0.96073 0.83606 0.69057 0.0
N136 N 1.01002 0.82654 0.69123 0.0
N137 N 0.9742 0.86087 0.70082 0.0
H138 H 0.0213 0.86974 0.70864 0.0
H139 H 0.9789 0.79264 0.67685 0.0
C140 C 0.02857 0.74125 0.71239 0.0
O141 O 0.0536 0.72757 0.7052 0.0
N142 N 0.08515 0.78081 0.68875 0.0
C143 C 0.1033 0.77577 0.66759 0.0
C144 C 0.12791 0.75906 0.67596 0.0
C145 C 0.09992 0.76878 0.70993 0.0
N146 N 0.12563 0.75458 0.70255 0.0
C147 C 0.03117 0.81169 0.63529 0.0
C148 C 0.04042 0.75284 0.61868 0.0
C149 C 0.03692 0.77569 0.59944 0.0
C150 C 0.03086 0.80517 0.60804 0.0
C151 C 0.03977 0.76023 0.64587 0.0
N152 N 0.03676 0.78964 0.65385 0.0
H153 H 0.02888 0.83501 0.64146 0.0
H154 H 0.04454 0.74265 0.66006 0.0
H155 H 0.09899 0.78361 0.64744 0.0
H156 H 0.09122 0.76919 0.73013 0.0
O157 O 0.06981 0.8387 0.67837 0.0
O158 O 0.06346 0.82516 0.7207 0.0
O159 O 0.02452 0.7695 0.70773 0.0
C160 C 0.07559 0.84375 0.70336 0.0
H161 H 0.93667 0.83327 0.68727 0.0
H162 H 0.14609 0.75082 0.66346 0.0
H163 H 0.04505 0.72974 0.61275 0.0
H164 H 0.02817 0.82349 0.59378 0.0
Co165 Co 0.31478 0.0468 0.68957 0.0
C166 C 0.26377 1.00313 0.69955 0.0
C167 C 0.30459 0.98143 0.68656 0.0
C168 C 0.28328 0.9595 0.69166 0.0
N169 N 0.29245 1.00885 0.69142 0.0
N170 N 0.25762 0.9731 0.69992 0.0
H171 H 0.24787 0.02033 0.70567 0.0
H172 H 0.32757 0.97761 0.67994 0.0
C173 C 0.37666 0.02936 0.7144 0.0
O174 O 0.39038 0.05415 0.70652 0.0
N175 N 0.33693 0.08475 0.68853 0.0
C176 C 0.34135 0.10306 0.66731 0.0
C177 C 0.35742 0.12812 0.67553 0.0
C178 C 0.34871 0.09979 0.70959 0.0
N179 N 0.36228 0.12589 0.70211 0.0
C180 C 0.30909 0.02848 0.63567 0.0
C181 C 0.36798 0.03989 0.62012 0.0
C182 C 0.34584 0.03513 0.6005 0.0
C183 C 0.3164 0.02795 0.60859 0.0
C184 C 0.35983 0.0395 0.64714 0.0
N185 N 0.33035 0.03538 0.65456 0.0
H186 H 0.28569 0.02546 0.64135 0.0
H187 H 0.37676 0.04538 0.66154 0.0
H188 H 0.33351 0.09853 0.64722 0.0
H189 H 0.34855 0.09096 0.72979 0.0
O190 O 0.2798 0.06804 0.67674 0.0
O191 O 0.29176 0.06286 0.71958 0.0
O192 O 0.34857 0.02484 0.70931 0.0
C193 C 0.27364 0.07422 0.70144 0.0
H194 H 0.28642 0.93537 0.68918 0.0
H195 H 0.36493 0.14652 0.66286 0.0
H196 H 0.39103 0.04544 0.61459 0.0
H197 H 0.29857 0.02433 0.59404 0.0
Co198 Co 0.0657 0.31235 0.70276 0.0
C199 C 0.11278 0.26262 0.70179 0.0
C200 C 0.12308 0.29847 0.72903 0.0
C201 C 0.14473 0.27663 0.73178 0.0
N202 N 0.10326 0.2904 0.70975 0.0
N203 N 0.13847 0.25402 0.7147 0.0
H204 H 0.10067 0.24845 0.68782 0.0
H205 H 0.12101 0.31779 0.74201 0.0
C206 C 0.08065 0.37729 0.72382 0.0
O207 O 0.05486 0.38976 0.71686 0.0
N208 N 0.02794 0.33395 0.69774 0.0
C209 C 1.01174 0.33919 0.67534 0.0
C210 C 0.9864 0.35586 0.68205 0.0
C211 C 1.01149 0.34588 0.71773 0.0
N212 N 0.98657 0.36035 0.70874 0.0
C213 C 0.08328 0.30213 0.64864 0.0
C214 C 0.07856 0.36154 0.63178 0.0
C215 C 0.08005 0.33858 0.61261 0.0
C216 C 0.08396 0.30871 0.62132 0.0
C217 C 0.07856 0.35403 0.65895 0.0
N218 N 0.07933 0.32446 0.66713 0.0
H219 H 0.08324 0.27871 0.65463 0.0
H220 H 0.07475 0.37196 0.6729 0.0
H221 H 0.01802 0.33189 0.6555 0.0
H222 H 0.01842 0.34489 0.73846 0.0
O223 O 0.04557 0.27574 0.69248 0.0
O224 O 0.04783 0.29264 0.73406 0.0
O225 O 0.08597 0.34922 0.71942 0.0
C226 C 0.03815 0.27214 0.71731 0.0
H227 H 0.16267 0.27661 0.74655 0.0
H228 H 0.9698 0.36486 0.66821 0.0
H229 H 0.07559 0.38495 0.62581 0.0
H230 H 0.08494 0.29025 0.60713 0.0
Co231 Co 0.80143 0.06717 0.69501 0.0
C232 C 0.85207 0.11082 0.70683 0.0
C233 C 0.81277 0.13213 0.68996 0.0
C234 C 0.83368 0.15416 0.6958 0.0
N235 N 0.82419 0.10488 0.69676 0.0
N236 N 0.85838 0.14085 0.70652 0.0
H237 H 0.86716 0.09384 0.7149 0.0
H238 H 0.79045 0.13579 0.68162 0.0
C239 C 0.73874 0.0862 0.71685 0.0
O240 O 0.72513 0.06122 0.70935 0.0
N241 N 0.77874 0.02955 0.69408 0.0
C242 C 0.77408 1.0112 0.67297 0.0
C243 C 0.75724 0.98665 0.68123 0.0
C244 C 0.76637 0.01495 0.71515 0.0
N245 N 0.75232 0.98915 0.70772 0.0
C246 C 0.81009 0.08317 0.64087 0.0
C247 C 0.75186 0.07227 0.62308 0.0
C248 C 0.77532 0.07443 0.60427 0.0
C249 C 0.80436 0.0819 0.61351 0.0
C250 C 0.75852 0.07431 0.65044 0.0
N251 N 0.78771 0.0778 0.65904 0.0
H252 H 0.83319 0.08624 0.64749 0.0
H253 H 0.74063 0.06992 0.66435 0.0
H254 H 0.78226 0.01535 0.65294 0.0
H255 H 0.76643 0.02381 0.7353 0.0
O256 O 0.83665 0.04514 0.68414 0.0
O257 O 0.82295 0.05145 0.72634 0.0
O258 O 0.76709 0.09021 0.71272 0.0
C259 C 0.84171 0.03948 0.70916 0.0
H260 H 0.83091 0.17818 0.69222 0.0
H261 H 0.74921 0.96835 0.66873 0.0
H262 H 0.72902 0.06663 0.61697 0.0
H263 H 0.82304 0.08492 0.59978 0.0
Co264 Co 0.53224 0.81525 0.8243 0.0
C265 C 0.4858 0.76485 0.82341 0.0
C266 C 0.47734 0.79994 0.79484 0.0
C267 C 0.45673 0.7774 0.79068 0.0
N268 N 0.495 0.79306 0.81611 0.0
N269 N 0.46198 0.75523 0.80851 0.0
H270 H 0.49728 0.75084 0.83799 0.0
H271 H 0.48068 0.81885 0.78145 0.0
C272 C 0.48807 0.86437 0.81469 0.0
O273 O 0.47199 0.85063 0.83318 0.0
N274 N 0.56972 0.83702 0.82984 0.0
C275 C 0.58877 0.83634 0.85093 0.0
C276 C 0.61407 0.8534 0.84474 0.0
C277 C 0.58382 0.85369 0.81104 0.0
N278 N 0.6109 0.86399 0.81957 0.0
C279 C 0.51212 0.80505 0.87815 0.0
C280 C 0.52491 0.86292 0.89586 0.0
C281 C 0.52 0.83997 0.91472 0.0
C282 C 0.51214 0.81106 0.90557 0.0
C283 C 0.52421 0.85608 0.86863 0.0
N284 N 0.51906 0.82712 0.86003 0.0
H285 H 0.50921 0.78199 0.87181 0.0
H286 H 0.53062 0.87356 0.85457 0.0
H287 H 0.58485 0.82384 0.86922 0.0
H288 H 0.57465 0.85766 0.79125 0.0
O289 O 0.55186 0.77852 0.83479 0.0
O290 O 0.55093 0.7962 0.79329 0.0
O291 O 0.51377 0.85327 0.80784 0.0
C292 C 0.56028 0.77553 0.81017 0.0
H293 H 0.44066 0.77631 0.77434 0.0
H294 H 0.63375 0.85674 0.85731 0.0
H295 H 0.53098 0.88559 0.90212 0.0
H296 H 0.50857 0.79259 0.91951 0.0
Co297 Co 0.30117 0.53642 0.81971 0.0
C298 C 0.3519 0.49012 0.81893 0.0
C299 C 0.31795 0.48318 0.78903 0.0
C300 C 0.34053 0.46262 0.78494 0.0
N301 N 0.32404 0.49978 0.81106 0.0
N302 N 0.36198 0.46692 0.80361 0.0
H303 H 0.36537 0.50082 0.83428 0.0
H304 H 0.29945 0.48714 0.77533 0.0
C305 C 0.25344 0.49129 0.80928 0.0
O306 O 0.26822 0.4751 0.82712 0.0
N307 N 0.27876 0.57337 0.8256 0.0
C308 C 0.2788 0.59198 0.84691 0.0
C309 C 0.26148 0.61716 0.84078 0.0
C310 C 0.26218 0.58758 0.80677 0.0
N311 N 0.25136 0.61433 0.81545 0.0
C312 C 0.31089 0.51535 0.87347 0.0
C313 C 0.25231 0.5261 0.89042 0.0
C314 C 0.27496 0.5212 0.90956 0.0
C315 C 0.30428 0.51441 0.90078 0.0
C316 C 0.25977 0.52641 0.86333 0.0
N317 N 0.28902 0.52218 0.85511 0.0
H318 H 0.33416 0.51327 0.86747 0.0
H319 H 0.24245 0.53285 0.84913 0.0
H320 H 0.29106 0.58788 0.8653 0.0
H321 H 0.25868 0.57874 0.78684 0.0
O322 O 0.33749 0.55625 0.83086 0.0
O323 O 0.32043 0.55627 0.78918 0.0
O324 O 0.26348 0.51763 0.80285 0.0
C325 C 0.34079 0.56534 0.80643 0.0
H326 H 0.34216 0.4472 0.76822 0.0
H327 H 0.25766 0.63655 0.85351 0.0
H328 H 0.22937 0.53141 0.89641 0.0
H329 H 0.32252 0.51092 0.91496 0.0
Co330 Co 0.58001 0.3043 0.81736 0.0
C331 C 0.62593 0.35533 0.81715 0.0
C332 C 0.63373 0.32165 0.78735 0.0
C333 C 0.6541 0.34451 0.78352 0.0
N334 N 0.61666 0.32743 0.80914 0.0
N335 N 0.64928 0.3658 0.80215 0.0
H336 H 0.61483 0.36856 0.83239 0.0
H337 H 0.63021 0.30319 0.7736 0.0
C338 C 0.62535 0.25662 0.80719 0.0
O339 O 0.64124 0.27102 0.8254 0.0
N340 N 0.54307 0.28168 0.82299 0.0
C341 C 0.52324 0.2837 0.84331 0.0
C342 C 0.49846 0.26583 0.83743 0.0
C343 C 0.53011 0.26308 0.80502 0.0
N344 N 0.5028 0.25292 0.81328 0.0
C345 C 0.60035 0.31358 0.87132 0.0
C346 C 0.58849 0.25507 0.88812 0.0
C347 C 0.59298 0.27762 0.90733 0.0
C348 C 0.6004 0.30687 0.89865 0.0
C349 C 0.5891 0.26261 0.86101 0.0
N350 N 0.5938 0.29186 0.85285 0.0
H351 H 0.60279 0.33685 0.86536 0.0
H352 H 0.58295 0.24539 0.8467 0.0
H353 H 0.52631 0.29763 0.86085 0.0
H354 H 0.53998 0.25828 0.78573 0.0
O355 O 0.55995 0.34043 0.8285 0.0
O356 O 0.56034 0.32382 0.78677 0.0
O357 O 0.5992 0.26691 0.80044 0.0
C358 C 0.55106 0.34397 0.80404 0.0
H359 H 0.66978 0.34639 0.76698 0.0
H360 H 0.47868 0.2629 0.84989 0.0
H361 H 0.58276 0.23216 0.89403 0.0
H362 H 0.60362 0.32504 0.91288 0.0
Co363 Co 0.81109 0.58483 0.81759 0.0
C364 C 0.76085 0.63127 0.81816 0.0
C365 C 0.79354 0.63839 0.7873 0.0
C366 C 0.77076 0.65894 0.78382 0.0
N367 N 0.78832 0.62166 0.80948 0.0
N368 N 0.7501 0.65449 0.8031 0.0
H369 H 0.74806 0.62048 0.83391 0.0
H370 H 0.81148 0.63449 0.77309 0.0
C371 C 0.85883 0.62968 0.80592 0.0
O372 O 0.84487 0.64589 0.82412 0.0
N373 N 0.83315 0.54766 0.8233 0.0
C374 C 0.83125 0.52839 0.84414 0.0
C375 C 0.84754 0.50267 0.83811 0.0
C376 C 0.85005 0.53343 0.80484 0.0
N377 N 0.85917 0.50582 0.8133 0.0
C378 C 0.80366 0.60519 0.87181 0.0
C379 C 0.86307 0.59449 0.8867 0.0
C380 C 0.84139 0.599 0.90665 0.0
C381 C 0.8116 0.60574 0.89889 0.0
C382 C 0.85426 0.59431 0.85991 0.0
N383 N 0.82465 0.59869 0.85268 0.0
H384 H 0.78012 0.6073 0.86658 0.0
H385 H 0.87089 0.58795 0.84515 0.0
H386 H 0.81812 0.53234 0.86201 0.0
H387 H 0.85486 0.54291 0.78535 0.0
O388 O 0.77486 0.56518 0.82943 0.0
O389 O 0.79079 0.56532 0.78748 0.0
O390 O 0.84833 0.60345 0.79979 0.0
C391 C 0.7709 0.55616 0.80508 0.0
H392 H 0.76838 0.67441 0.76712 0.0
H393 H 0.84953 0.48271 0.85058 0.0
H394 H 0.88634 0.58929 0.89181 0.0
H395 H 0.79403 0.60889 0.91369 0.0
Co396 Co 0.54274 0.29663 0.19211 0.0
C397 C 0.49865 0.34662 0.20376 0.0
C398 C 0.47732 0.30669 0.18832 0.0
C399 C 0.45525 0.32771 0.19378 0.0
N400 N 0.50459 0.31846 0.19453 0.0
N401 N 0.46864 0.35281 0.20355 0.0
H402 H 0.51566 0.36218 0.21094 0.0
H403 H 0.4737 0.28422 0.18039 0.0
C404 C 0.52513 0.23287 0.213 0.0
O405 O 0.55054 0.21982 0.20591 0.0
N406 N 0.58091 0.27509 0.19012 0.0
C407 C 0.59974 0.27395 0.169 0.0
C408 C 0.62575 0.259 0.17648 0.0
C409 C 0.59638 0.26223 0.21049 0.0
N410 N 0.62356 0.25142 0.20256 0.0
C411 C 0.52638 0.30663 0.13795 0.0
C412 C 0.53782 0.24873 0.1198 0.0
C413 C 0.53405 0.27217 0.10116 0.0
C414 C 0.52687 0.30113 0.1105 0.0
C415 C 0.53651 0.25509 0.14715 0.0
N416 N 0.53237 0.28406 0.15591 0.0
H417 H 0.52329 0.32961 0.14479 0.0
H418 H 0.54167 0.23719 0.16093 0.0
H419 H 0.59514 0.2838 0.1496 0.0
H420 H 0.58749 0.26032 0.23056 0.0
O421 O 0.56387 0.33291 0.18253 0.0
O422 O 0.55776 0.31664 0.22422 0.0
O423 O 0.52059 0.26111 0.20878 0.0
C424 C 0.56924 0.33659 0.2078 0.0
H425 H 0.43121 0.32483 0.1904 0.0
H426 H 0.64498 0.25456 0.16372 0.0
H427 H 0.54326 0.226 0.11331 0.0
H428 H 0.52394 0.3199 0.09675 0.0
Co429 Co 0.80854 0.53603 0.18737 0.0
C430 C 0.75939 0.4913 0.1994 0.0
C431 C 0.78622 0.47663 0.16629 0.0
C432 C 0.76309 0.45638 0.16981 0.0
N433 N 0.78402 0.49899 0.18464 0.0
N434 N 0.7462 0.46563 0.19051 0.0
H435 H 0.75024 0.5048 0.21545 0.0
H436 H 0.80257 0.47524 0.15039 0.0
C437 C 0.85594 0.4884 0.19762 0.0
O438 O 0.8502 0.47768 0.17377 0.0
N439 N 0.83223 0.57261 0.19056 0.0
C440 C 0.83289 0.59574 0.17295 0.0
C441 C 0.85212 0.61768 0.18255 0.0
C442 C 0.85053 0.58094 0.21086 0.0
N443 N 0.86313 0.60837 0.20636 0.0
C444 C 0.80449 0.53015 0.13107 0.0
C445 C 0.8651 0.539 0.11982 0.0
C446 C 0.8441 0.53834 0.09878 0.0
C447 C 0.81363 0.53313 0.10462 0.0
C448 C 0.85507 0.53489 0.14617 0.0
N449 N 0.82499 0.53063 0.15155 0.0
H450 H 0.78055 0.52839 0.13523 0.0
H451 H 0.87117 0.53704 0.16237 0.0
H452 H 0.82027 0.59653 0.15442 0.0
H453 H 0.85468 0.56716 0.22841 0.0
O454 O 0.77426 0.55988 0.17662 0.0
O455 O 0.78564 0.54908 0.2187 0.0
O456 O 0.84215 0.51214 0.20583 0.0
C457 C 0.76799 0.56311 0.20171 0.0
H458 H 0.7584 0.4368 0.15749 0.0
H459 H 0.8572 0.63908 0.17296 0.0
H460 H 0.8888 0.54354 0.11599 0.0
H461 H 0.79668 0.5332 0.08893 0.0
Co462 Co 0.56812 0.80543 0.19837 0.0
C463 C 0.61107 0.75348 0.20679 0.0
C464 C 0.63334 0.79437 0.19453 0.0
C465 C 0.65493 0.77242 0.19862 0.0
N466 N 0.60579 0.78263 0.19967 0.0
N467 N 0.64096 0.74671 0.20639 0.0
H468 H 0.59366 0.73759 0.21256 0.0
H469 H 0.63747 0.81742 0.18816 0.0
C470 C 0.58544 0.86737 0.22253 0.0
O471 O 0.55943 0.87963 0.21599 0.0
N472 N 0.53021 0.82778 0.19761 0.0
C473 C 0.51205 0.83293 0.1764 0.0
C474 C 0.48676 0.8484 0.18488 0.0
C475 C 0.51476 0.83841 0.21888 0.0
N476 N 0.48867 0.85217 0.21159 0.0
C477 C 0.58429 0.79908 0.14392 0.0
C478 C 0.57476 0.85846 0.12856 0.0
C479 C 0.57796 0.83624 0.10882 0.0
C480 C 0.58419 0.80649 0.11679 0.0
C481 C 0.57574 0.85018 0.15558 0.0
N482 N 0.57883 0.82051 0.16293 0.0
H483 H 0.58668 0.77558 0.1496 0.0
H484 H 0.57117 0.86728 0.17018 0.0
H485 H 0.51681 0.82604 0.15612 0.0
H486 H 0.52304 0.83689 0.2392 0.0
O487 O 0.54611 0.77049 0.18658 0.0
O488 O 0.55242 0.78292 0.2291 0.0
O489 O 0.59118 0.83963 0.21697 0.0
C490 C 0.54029 0.76478 0.21146 0.0
H491 H 0.67905 0.77509 0.19564 0.0
H492 H 0.46885 0.85698 0.17216 0.0
H493 H 0.57007 0.88176 0.12314 0.0
H494 H 0.58668 0.78862 0.10218 0.0
Co495 Co 0.29982 0.56242 0.19486 0.0
C496 C 0.35145 0.60544 0.20514 0.0
C497 C 0.31131 0.62751 0.19077 0.0
C498 C 0.33283 0.64921 0.19591 0.0
N499 N 0.32285 0.6 0.19652 0.0
N500 N 0.35806 0.6354 0.20503 0.0
H501 H 0.36696 0.58812 0.21194 0.0
H502 H 0.28858 0.63155 0.1835 0.0
C503 C 0.23732 0.58142 0.21717 0.0
O504 O 0.22374 0.55634 0.20993 0.0
N505 N 0.27699 0.52486 0.19396 0.0
C506 C 0.27297 0.50599 0.17313 0.0
C507 C 0.25679 0.48109 0.1817 0.0
C508 C 0.26471 0.51041 0.21513 0.0
N509 N 0.25134 0.48408 0.2081 0.0
C510 C 0.30791 0.57919 0.14066 0.0
C511 C 0.24921 0.56923 0.12364 0.0
C512 C 0.27204 0.57326 0.10456 0.0
C513 C 0.30144 0.57962 0.11337 0.0
C514 C 0.25655 0.56969 0.15086 0.0
N515 N 0.28588 0.57319 0.15905 0.0
H516 H 0.33119 0.5817 0.14698 0.0
H517 H 0.23903 0.5645 0.16491 0.0
H518 H 0.2812 0.51 0.15309 0.0
H519 H 0.26517 0.51938 0.23523 0.0
O520 O 0.33487 0.54021 0.1839 0.0
O521 O 0.32123 0.54668 0.22614 0.0
O522 O 0.26559 0.58557 0.21272 0.0
C523 C 0.33982 0.5345 0.20895 0.0
H524 H 0.33014 0.67333 0.19287 0.0
H525 H 0.24906 0.46261 0.16929 0.0
H526 H 0.22618 0.56434 0.11756 0.0
H527 H 0.31977 0.58266 0.09926 0.0
H528 H 0.07073 0.36681 0.43915 0.0
H529 H 0.98524 0.32868 0.46382 0.0
H530 H 0.08667 0.37019 0.48599 0.0
H531 H 1.00095 0.33262 0.51072 0.0
H532 H 0.03207 0.36981 0.59254 0.0
H533 H 0.01681 0.37492 0.54568 0.0
H534 H 0.09687 0.32629 0.5215 0.0
H535 H 0.11191 0.32069 0.56849 0.0
C536 C 0.05508 0.35988 0.45465 0.0
C537 C 0.02667 0.34766 0.44794 0.0
C538 C 0.0643 0.36157 0.48137 0.0
C539 C 0.04506 0.35163 0.5019 0.0
C540 C 0.01613 0.34063 0.49526 0.0
C541 C 1.00715 0.33834 0.4685 0.0
C542 C 0.04671 0.36074 0.57717 0.0
C543 C 0.07327 0.34499 0.58409 0.0
C544 C 0.03784 0.36346 0.55043 0.0
C545 C 0.05565 0.35099 0.53004 0.0
C546 C 0.08285 0.3363 0.53685 0.0
C547 C 0.09142 0.33303 0.56367 0.0
H548 H 0.72601 0.08525 0.57136 0.0
H549 H 0.81387 0.04223 0.5728 0.0
H550 H 0.71873 0.06817 0.52527 0.0
H551 H 0.80736 0.0268 0.52688 0.0
H552 H 0.78295 0.98002 0.45232 0.0
H553 H 0.78034 0.9923 0.49974 0.0
H554 H 0.7369 0.07728 0.48039 0.0
H555 H 0.73869 0.06437 0.43301 0.0
C556 C 0.7438 0.07231 0.56189 0.0
C557 C 0.77068 0.06548 0.57581 0.0
C558 C 0.73972 0.06268 0.5354 0.0
C559 C 0.76236 0.04587 0.52232 0.0
C560 C 0.78914 0.03914 0.53634 0.0
C561 C 0.79315 0.04861 0.56265 0.0
C562 C 0.77229 1.00102 0.4583 0.0
C563 C 0.76118 0.02128 0.43899 0.0
C564 C 0.77101 1.00823 0.48545 0.0
C565 C 0.75901 0.03613 0.49393 0.0
C566 C 0.74617 0.05556 0.47467 0.0
C567 C 0.74716 0.04815 0.44749 0.0
H568 H 0.08718 0.74985 0.57811 0.0
H569 H 1.00144 0.78985 0.55637 0.0
H570 H 0.10099 0.74669 0.53077 0.0
H571 H 0.01499 0.7861 0.50898 0.0
H572 H 0.04151 0.74716 0.42636 0.0
H573 H 0.02823 0.74321 0.47371 0.0
H574 H 0.11035 0.7905 0.49475 0.0
H575 H 0.12343 0.79495 0.44724 0.0
C576 C 0.07103 0.75729 0.56315 0.0
C577 C 0.04317 0.76993 0.57081 0.0
C578 C 0.07904 0.75573 0.53615 0.0
C579 C 0.05908 0.7662 0.5163 0.0
C580 C 0.03071 0.77771 0.52391 0.0
C581 C 0.02297 0.77988 0.55094 0.0
C582 C 0.05698 0.75625 0.44114 0.0
C583 C 0.08361 0.77121 0.43319 0.0
C584 C 0.04925 0.75418 0.46816 0.0
C585 C 0.06826 0.76653 0.48781 0.0
C586 C 0.09541 0.78059 0.47997 0.0
C587 C 0.10285 0.78322 0.45286 0.0
H588 H 0.37144 0.0858 0.57941 0.0
H589 H 0.33273 0.99968 0.55733 0.0
H590 H 0.37416 0.10028 0.53219 0.0
H591 H 0.3358 0.014 0.51008 0.0
H592 H 0.36865 0.04181 0.42681 0.0
H593 H 0.37554 0.02797 0.47376 0.0
H594 H 0.33085 0.11047 0.49754 0.0
H595 H 0.32371 0.12426 0.45045 0.0
C596 C 0.36426 0.06968 0.5644 0.0
C597 C 0.352 0.04156 0.57194 0.0
C598 C 0.36555 0.07809 0.53745 0.0
C599 C 0.3551 0.0583 0.51755 0.0
C600 C 0.34419 0.0296 0.52503 0.0
C601 C 0.34239 0.02142 0.552 0.0
C602 C 0.36086 0.0573 0.44207 0.0
C603 C 0.34575 0.0842 0.43501 0.0
C604 C 0.36459 0.04924 0.46889 0.0
C605 C 0.35371 0.06813 0.48922 0.0
C606 C 0.33967 0.09561 0.48223 0.0
C607 C 0.33547 0.10345 0.45535 0.0
H608 H 0.48592 0.82429 0.95836 0.0
H609 H 0.57058 0.86587 0.93573 0.0
H610 H 0.50053 0.82787 1.00557 0.0
H611 H 0.58525 0.86914 0.98279 0.0
H612 H 0.52811 0.86438 0.08855 0.0
H613 H 0.51326 0.86907 0.04152 0.0
H614 H 0.59721 0.82702 0.01791 0.0
H615 H 0.61187 0.82194 0.06497 0.0
C616 C 0.50745 0.83451 0.96352 0.0
C617 C 0.52702 0.84495 0.94341 0.0
C618 C 0.51575 0.83667 0.99048 0.0
C619 C 0.54405 0.84874 0.99778 0.0
C620 C 0.56337 0.85966 0.9777 0.0
C621 C 0.55484 0.85801 0.95082 0.0
C622 C 0.54363 0.85671 0.07326 0.0
C623 C 0.57121 0.84293 0.08035 0.0
C624 C 0.53501 0.85914 0.04642 0.0
C625 C 0.55405 0.84834 0.02612 0.0
C626 C 0.58219 0.8357 0.03316 0.0
C627 C 0.59055 0.83275 0.06003 0.0
H628 H 0.24748 0.57056 0.93094 0.0
H629 H 0.2903 0.48617 0.95282 0.0
H630 H 0.24261 0.58371 0.97816 0.0
H631 H 0.28511 0.49925 1.0002 0.0
H632 H 0.24537 0.52359 0.08277 0.0
H633 H 0.24235 0.51008 0.03539 0.0
H634 H 0.28377 0.59537 0.01433 0.0
H635 H 0.28718 0.60869 0.06174 0.0
C636 C 0.25527 0.55454 0.94588 0.0
C637 C 0.26913 0.52725 0.93824 0.0
C638 C 0.2527 0.5622 0.97286 0.0
C639 C 0.26349 0.54252 0.99277 0.0
C640 C 0.2764 0.51473 0.98521 0.0
C641 C 0.27947 0.5073 0.95817 0.0
C642 C 0.25326 0.53968 0.06796 0.0
C643 C 0.26638 0.56725 0.07585 0.0
C644 C 0.25179 0.53182 0.04093 0.0
C645 C 0.2629 0.55164 0.02126 0.0
C646 C 0.27487 0.57976 0.02909 0.0
C647 C 0.27687 0.58736 0.05615 0.0
H648 H 0.54258 0.25063 0.92748 0.0
H649 H 0.62664 0.29253 0.95146 0.0
H650 H 0.52777 0.24572 0.97436 0.0
H651 H 0.61189 0.28729 0.9985 0.0
H652 H 0.58461 0.24636 0.08024 0.0
H653 H 0.59969 0.24436 0.03321 0.0
H654 H 0.51523 0.28639 0.0105 0.0
H655 H 0.5003 0.28876 0.0576 0.0
C656 C 0.55815 0.25823 0.94282 0.0
C657 C 0.58586 0.27181 0.93586 0.0
C658 C 0.54954 0.25565 0.96959 0.0
C659 C 0.56866 0.26615 0.99 0.0
C660 C 0.59683 0.27882 0.98313 0.0
C661 C 0.60521 0.28191 0.95629 0.0
C662 C 0.56905 0.25465 0.06514 0.0
C663 C 0.54121 0.26758 0.0725 0.0
C664 C 0.57781 0.25376 0.0383 0.0
C665 C 0.55866 0.26528 0.01828 0.0
C666 C 0.53034 0.27718 0.02555 0.0
C667 C 0.52182 0.2786 0.05244 0.0
H668 H 0.86985 0.59047 0.08062 0.0
H669 H 0.83577 0.50396 0.05446 0.0
H670 H 0.87444 0.60691 0.03387 0.0
H671 H 0.84074 0.52006 1.00787 0.0
H672 H 0.8728 0.55084 0.92643 0.0
H673 H 0.87996 0.53639 0.97311 0.0
H674 H 0.83293 0.61712 0.99802 0.0
H675 H 0.82575 0.63173 0.95112 0.0
C676 C 0.86423 0.57471 0.06481 0.0
C677 C 0.85266 0.54591 0.07099 0.0
C678 C 0.86655 0.58419 0.03816 0.0
C679 C 0.85785 0.56479 0.01728 0.0
C680 C 0.84785 0.5354 0.02353 0.0
C681 C 0.84501 0.52616 0.05013 0.0
C682 C 0.86459 0.5659 0.94185 0.0
C683 C 0.84875 0.59249 0.9351 0.0
C684 C 0.8685 0.55747 0.96856 0.0
C685 C 0.85698 0.5756 0.98916 0.0
C686 C 0.84229 0.60286 0.98252 0.0
C687 C 0.83799 0.61111 0.95573 0.0
H688 H 0.07776 0.2251 0.35213 0.0
H689 H 0.09336 0.2623 0.27348 0.0
H690 H 0.12133 0.19207 0.34716 0.0
H691 H 0.13689 0.2285 0.26814 0.0
H692 H 0.23517 0.20142 0.2872 0.0
H693 H 0.18699 0.22782 0.28803 0.0
H694 H 0.14518 0.14978 0.32488 0.0
H695 H 0.19387 0.12323 0.32404 0.0
C696 C 0.09014 0.22572 0.33347 0.0
C697 C 0.0823 0.24652 0.31326 0.0
C698 C 0.11509 0.20661 0.33058 0.0
C699 C 0.13291 0.20784 0.30741 0.0
C700 C 0.12394 0.22737 0.28647 0.0
C701 C 0.09883 0.2465 0.28936 0.0
C702 C 0.21567 0.18975 0.29529 0.0
C703 C 0.21839 0.16014 0.30545 0.0
C704 C 0.18794 0.20485 0.29561 0.0
C705 C 0.16202 0.19082 0.30614 0.0
C706 C 0.16473 0.1613 0.31668 0.0
C707 C 0.19264 0.14612 0.31636 0.0
H708 H 0.88903 0.07253 0.34244 0.0
H709 H 0.8467 0.10045 0.26851 0.0
H710 H 0.92087 0.11759 0.34161 0.0
H711 H 0.87928 0.14578 0.26763 0.0
H712 H 0.97578 0.20821 0.28583 0.0
H713 H 0.95106 0.159 0.27756 0.0
H714 H 0.88648 0.17807 0.33974 0.0
H715 H 0.91071 0.22688 0.34786 0.0
C716 C 0.88718 0.08782 0.32554 0.0
C717 C 0.8652 0.08305 0.30561 0.0
C718 C 0.90546 0.11357 0.32511 0.0
C719 C 0.90242 0.13503 0.30462 0.0
C720 C 0.88216 0.12929 0.28351 0.0
C721 C 0.86364 0.10337 0.28396 0.0
C722 C 0.95632 0.20179 0.29768 0.0
C723 C 0.94512 0.22144 0.31746 0.0
C724 C 0.9421 0.17386 0.29279 0.0
C725 C 0.91682 0.16505 0.30791 0.0
C726 C 0.90581 0.18456 0.3277 0.0
C727 C 0.91965 0.21248 0.3323 0.0
H728 H 0.91303 0.98347 0.30493 0.0
H729 H 0.86349 0.90041 0.29211 0.0
H730 H 0.96009 0.9574 0.29443 0.0
H731 H 0.91054 0.87407 0.28305 0.0
H732 H 0.99819 0.83182 0.25949 0.0
H733 H 0.95409 0.86534 0.25532 0.0
H734 H 0.99027 0.92191 0.3181 0.0
H735 H 0.03407 0.88916 0.32161 0.0
C736 C 0.91203 0.95977 0.29962 0.0
C737 C 0.88434 0.94402 0.29989 0.0
C738 C 0.93912 0.9447 0.29379 0.0
C739 C 0.93929 0.91346 0.28818 0.0
C740 C 0.91142 0.89813 0.28707 0.0
C741 C 0.88435 0.9132 0.29277 0.0
C742 C 0.99705 0.85199 0.27169 0.0
C743 C 0.01941 0.85779 0.29098 0.0
C744 C 0.97165 0.87102 0.26958 0.0
C745 C 0.96834 0.89622 0.2866 0.0
C746 C 0.99198 0.90301 0.30445 0.0
C747 C 0.01711 0.88405 0.3066 0.0
H748 H 0.2632 1.00869 0.2614 0.0
H749 H 0.22067 0.03207 0.33616 0.0
H750 H 0.22881 0.96548 0.25702 0.0
H751 H 0.18728 0.98872 0.33236 0.0
H752 H 0.11962 0.91452 0.31208 0.0
H753 H 0.14659 0.963 0.31054 0.0
H754 H 0.22564 0.91754 0.27947 0.0
H755 H 0.19863 0.86968 0.28071 0.0
C756 C 0.24615 1.00496 0.27658 0.0
C757 C 0.24484 0.02357 0.29921 0.0
C758 C 0.22667 0.98003 0.27429 0.0
C759 C 0.20556 0.97327 0.29459 0.0
C760 C 0.20303 0.9932 0.31627 0.0
C761 C 0.22239 0.01802 0.31852 0.0
C762 C 0.14282 0.915 0.30514 0.0
C763 C 0.15698 0.88834 0.29645 0.0
C764 C 0.15825 0.94274 0.3041 0.0
C765 C 0.18822 0.94431 0.2945 0.0
C766 C 0.20236 0.91746 0.28622 0.0
C767 C 0.18695 0.88993 0.28715 0.0
H768 H 0.25064 0.91605 0.71916 0.0
H769 H 0.20071 0.99639 0.69713 0.0
H770 H 0.20339 0.88893 0.7261 0.0
H771 H 0.15325 0.96953 0.70509 0.0
H772 H 0.08548 0.89537 0.67576 0.0
H773 H 0.12764 0.93017 0.68059 0.0
H774 H 0.15677 0.88228 0.75155 0.0
H775 H 0.11431 0.84687 0.74632 0.0
C776 C 0.22958 0.92805 0.71604 0.0
C777 C 0.22956 0.95828 0.70707 0.0
C778 C 0.2024 0.9126 0.72046 0.0
C779 C 0.17443 0.92695 0.71604 0.0
C780 C 0.17439 0.95766 0.7084 0.0
C781 C 0.20162 0.97316 0.704 0.0
C782 C 0.10046 0.89269 0.69278 0.0
C783 C 0.09676 0.86832 0.71057 0.0
C784 C 0.12459 0.9128 0.69566 0.0
C785 C 0.14584 0.90894 0.71632 0.0
C786 C 0.14101 0.88567 0.73521 0.0
C787 C 0.11654 0.86559 0.73243 0.0
H788 H 0.19788 0.24616 0.72523 0.0
H789 H 0.11745 0.19826 0.70023 0.0
H790 H 0.22605 0.19912 0.72595 0.0
H791 H 0.14618 0.15068 0.70045 0.0
H792 H 0.22499 0.08646 0.67015 0.0
H793 H 0.18896 0.12777 0.67505 0.0
H794 H 0.22922 0.1507 0.75108 0.0
H795 H 0.26566 0.10928 0.74598 0.0
C796 C 0.18607 0.2255 0.72012 0.0
C797 C 0.15524 0.22602 0.71297 0.0
C798 C 0.20226 0.19845 0.72065 0.0
C799 C 0.18824 0.17105 0.71379 0.0
C800 C 0.15757 0.17146 0.70597 0.0
C801 C 0.14118 0.19871 0.70563 0.0
C802 C 0.22576 0.09993 0.6882 0.0
C803 C 0.24834 0.0949 0.70758 0.0
C804 C 0.20497 0.12351 0.69105 0.0
C805 C 0.20648 0.14276 0.71326 0.0
C806 C 0.2278 0.13646 0.73354 0.0
C807 C 0.24848 0.11263 0.73078 0.0
H808 H 0.91539 0.11767 0.70902 0.0
H809 H 0.86346 0.19856 0.72431 0.0
H810 H 0.96194 0.14513 0.71946 0.0
H811 H 0.90979 0.22622 0.73365 0.0
H812 H 0.99595 0.27074 0.75761 0.0
H813 H 0.95371 0.23489 0.76164 0.0
H814 H 0.98993 0.18324 0.69583 0.0
H815 H 0.03191 0.21845 0.6923 0.0
C816 C 0.91382 0.14116 0.71493 0.0
C817 C 0.88566 0.15599 0.71534 0.0
C818 C 0.94054 0.157 0.72075 0.0
C819 C 0.93974 0.18803 0.72718 0.0
C820 C 0.9114 0.20234 0.72901 0.0
C821 C 0.88476 0.18655 0.7232 0.0
C822 C 0.99531 0.25112 0.74469 0.0
C823 C 0.01706 0.24746 0.72455 0.0
C824 C 0.97097 0.23077 0.74675 0.0
C825 C 0.96814 0.20631 0.72883 0.0
C826 C 0.99134 0.20154 0.71013 0.0
C827 C 0.0154 0.22188 0.70799 0.0
H828 H 0.99707 0.91803 0.70143 0.0
H829 H 0.91703 0.86596 0.71986 0.0
H830 H 0.9695 0.96468 0.71114 0.0
H831 H 0.88926 0.91235 0.7286 0.0
H832 H 0.84485 0.99913 0.75101 0.0
H833 H 0.88123 0.95737 0.75564 0.0
H834 H 0.93021 0.99109 0.68705 0.0
H835 H 0.89442 0.03251 0.68283 0.0
C836 C 0.97376 0.91647 0.70791 0.0
C837 C 0.95915 0.88824 0.70938 0.0
C838 C 0.95786 0.94323 0.71332 0.0
C839 C 0.92702 0.94237 0.72044 0.0
C840 C 0.91299 0.91399 0.7234 0.0
C841 C 0.92883 0.88732 0.71794 0.0
C842 C 0.86402 0.99806 0.73758 0.0
C843 C 0.86677 0.0189 0.71649 0.0
C844 C 0.88466 0.97401 0.73999 0.0
C845 C 0.90852 0.97063 0.72152 0.0
C846 C 0.9124 0.99298 0.70179 0.0
C847 C 0.89173 0.0167 0.69926 0.0
H848 H 0.5999 0.77387 0.76795 0.0
H849 H 0.57212 0.72452 0.83835 0.0
H850 H 0.64435 0.74107 0.76412 0.0
H851 H 0.61669 0.69269 0.83521 0.0
H852 H 0.69564 0.63001 0.81626 0.0
H853 H 0.64621 0.65506 0.81336 0.0
H854 H 0.69037 0.73811 0.78928 0.0
H855 H 0.7392 0.7129 0.79172 0.0
C856 C 0.60288 0.75557 0.78217 0.0
C857 C 0.58273 0.75194 0.80355 0.0
C858 C 0.62855 0.73703 0.78026 0.0
C859 C 0.6345 0.7146 0.79972 0.0
C860 C 0.61294 0.70957 0.81983 0.0
C861 C 0.58738 0.72799 0.82169 0.0
C862 C 0.69464 0.65369 0.81066 0.0
C863 C 0.72121 0.66954 0.80422 0.0
C864 C 0.66637 0.66802 0.8088 0.0
C865 C 0.66419 0.69855 0.80064 0.0
C866 C 0.69097 0.7144 0.79481 0.0
C867 C 0.71903 0.70007 0.79651 0.0
H868 H 0.40322 0.74506 0.79807 0.0
H869 H 0.48689 0.69982 0.81769 0.0
H870 H 0.37804 0.6965 0.793 0.0
H871 H 0.4618 0.65067 0.81222 0.0
H872 H 0.39261 0.57449 0.83404 0.0
H873 H 0.42459 0.61916 0.833 0.0
H874 H 0.37458 0.65283 0.76478 0.0
H875 H 0.34172 0.60818 0.76651 0.0
C876 C 0.41624 0.72459 0.80122 0.0
C877 C 0.447 0.72623 0.80829 0.0
C878 C 0.4019 0.6967 0.79801 0.0
C879 C 0.41795 0.66954 0.80168 0.0
C880 C 0.44869 0.67113 0.80927 0.0
C881 C 0.46306 0.69922 0.81261 0.0
C882 C 0.38886 0.59111 0.8184 0.0
C883 C 0.36446 0.58802 0.80051 0.0
C884 C 0.40734 0.61673 0.81775 0.0
C885 C 0.40188 0.63996 0.79915 0.0
C886 C 0.37898 0.63567 0.7798 0.0
C887 C 0.36041 0.60991 0.78047 0.0
H888 H 0.50899 0.34588 0.76346 0.0
H889 H 0.54133 0.39514 0.83219 0.0
H890 H 0.46457 0.37904 0.76134 0.0
H891 H 0.49688 0.42734 0.83078 0.0
H892 H 0.41734 0.49079 0.81476 0.0
H893 H 0.46634 0.46521 0.81013 0.0
H894 H 0.42008 0.38261 0.7883 0.0
H895 H 0.3717 0.40833 0.79247 0.0
C896 C 0.50701 0.36425 0.77764 0.0
C897 C 0.52846 0.36776 0.79809 0.0
C898 C 0.48137 0.38299 0.77674 0.0
C899 C 0.47675 0.40553 0.79627 0.0
C900 C 0.49955 0.4104 0.81537 0.0
C901 C 0.52505 0.39178 0.81624 0.0
C902 C 0.41781 0.4671 0.8093 0.0
C903 C 0.39076 0.45154 0.80397 0.0
C904 C 0.44582 0.45244 0.80644 0.0
C905 C 0.44728 0.42189 0.79836 0.0
C906 C 0.42003 0.40632 0.79371 0.0
C907 C 0.39224 0.42096 0.79641 0.0
H908 H 0.72127 0.54414 0.83497 0.0
H909 H 0.76773 0.51574 0.76351 0.0
H910 H 0.68932 0.49946 0.83307 0.0
H911 H 0.73493 0.47112 0.76103 0.0
H912 H 0.70758 0.37657 0.79014 0.0
H913 H 0.73286 0.42529 0.787 0.0
H914 H 0.65055 0.46989 0.81181 0.0
H915 H 0.62528 0.42057 0.81521 0.0
C916 C 0.72409 0.5287 0.81838 0.0
C917 C 0.74724 0.53329 0.79951 0.0
C918 C 0.70562 0.50308 0.81724 0.0
C919 C 0.70982 0.48133 0.79718 0.0
C920 C 0.73151 0.4871 0.77712 0.0
C921 C 0.75006 0.51286 0.77827 0.0
C922 C 0.69485 0.3968 0.79488 0.0
C923 C 0.66442 0.39473 0.80286 0.0
C924 C 0.70927 0.4248 0.79282 0.0
C925 C 0.69366 0.45168 0.79865 0.0
C926 C 0.6633 0.44965 0.8072 0.0
C927 C 0.64884 0.42143 0.80933 0.0
H928 H 0.6172 0.33515 0.24242 0.0
H929 H 0.56588 0.39424 0.19067 0.0
H930 H 0.65833 0.3726 0.24377 0.0
H931 H 0.60626 0.43179 0.19251 0.0
H932 H 0.70186 0.4484 0.15745 0.0
H933 H 0.65517 0.42246 0.16902 0.0
H934 H 0.67881 0.42732 0.25272 0.0
H935 H 0.72616 0.45385 0.24074 0.0
C936 C 0.61414 0.35675 0.23246 0.0
C937 C 0.58864 0.36187 0.21628 0.0
C938 C 0.63766 0.37814 0.23316 0.0
C939 C 0.63571 0.40483 0.21779 0.0
C940 C 0.60861 0.4112 0.20415 0.0
C941 C 0.58544 0.38981 0.20321 0.0
C942 C 0.69693 0.44421 0.17832 0.0
C943 C 0.71754 0.45291 0.1982 0.0
C944 C 0.67008 0.42961 0.18503 0.0
C945 C 0.66318 0.42304 0.21183 0.0
C946 C 0.68355 0.43218 0.23192 0.0
C947 C 0.71044 0.4474 0.22514 0.0
H948 H 0.71746 0.57609 0.1735 0.0
H949 H 0.76392 0.59816 0.24682 0.0
H950 H 0.68302 0.61826 0.18009 0.0
H951 H 0.72902 0.64071 0.2537 0.0
H952 H 0.69773 0.73762 0.2254 0.0
H953 H 0.72412 0.68951 0.23011 0.0
H954 H 0.64303 0.64214 0.20601 0.0
H955 H 0.61684 0.6905 0.20055 0.0
C956 C 0.71974 0.58954 0.19147 0.0
C957 C 0.74343 0.58395 0.2096 0.0
C958 C 0.69987 0.61369 0.19533 0.0
C959 C 0.70336 0.6331 0.21731 0.0
C960 C 0.72593 0.62636 0.2364 0.0
C961 C 0.7457 0.60184 0.23265 0.0
C962 C 0.68547 0.71696 0.22119 0.0
C963 C 0.6553 0.718 0.21215 0.0
C964 C 0.70049 0.68929 0.22429 0.0
C965 C 0.68577 0.6619 0.21834 0.0
C966 C 0.65513 0.66283 0.21053 0.0
C967 C 0.64004 0.69055 0.20755 0.0
H968 H 0.5011 0.76074 0.25392 0.0
H969 H 0.53064 0.71367 0.18322 0.0
H970 H 0.45854 0.72527 0.25826 0.0
H971 H 0.48841 0.67875 0.18721 0.0
H972 H 0.41494 0.61201 0.2028 0.0
H973 H 0.46244 0.63881 0.21121 0.0
H974 H 0.41218 0.71918 0.23205 0.0
H975 H 0.36495 0.69218 0.2245 0.0
C976 C 0.49901 0.7423 0.23982 0.0
C977 C 0.51905 0.74002 0.21819 0.0
C978 C 0.47449 0.72219 0.24209 0.0
C979 C 0.46983 0.69928 0.22292 0.0
C980 C 0.49131 0.69584 0.20248 0.0
C981 C 0.51549 0.716 0.2001 0.0
C982 C 0.41404 0.63518 0.20971 0.0
C983 C 0.3861 0.65004 0.21256 0.0
C984 C 0.44128 0.65064 0.21437 0.0
C985 C 0.44121 0.68128 0.22214 0.0
C986 C 0.4132 0.69558 0.22633 0.0
C987 C 0.38605 0.68019 0.22158 0.0
H988 H 0.41106 0.35924 0.22137 0.0
H989 H 0.49235 0.40962 0.2034 0.0
H990 H 0.38403 0.40634 0.22922 0.0
H991 H 0.46554 0.45684 0.21222 0.0
H992 H 0.39219 0.52571 0.18247 0.0
H993 H 0.42687 0.48339 0.18714 0.0
H994 H 0.37719 0.45205 0.2562 0.0
H995 H 0.34198 0.49472 0.25117 0.0
C996 C 0.42328 0.38035 0.21936 0.0
C997 C 0.45377 0.38059 0.21126 0.0
C998 C 0.40787 0.40741 0.2243 0.0
C999 C 0.42254 0.43545 0.22124 0.0
C1000 C 0.45347 0.43564 0.21448 0.0
C1001 C 0.46891 0.40854 0.20959 0.0
C1002 C 0.38913 0.51023 0.19909 0.0
C1003 C 0.36433 0.51336 0.21638 0.0
C1004 C 0.40914 0.486 0.20187 0.0
C1005 C 0.40471 0.46409 0.2219 0.0
C1006 C 0.38102 0.46836 0.24036 0.0
C1007 C 0.36106 0.49293 0.23771 0.0
H1008 H 0.24037 0.42399 0.20166 0.0
H1009 H 0.21958 0.50035 0.25207 0.0
H1010 H 0.20732 0.39199 0.22877 0.0
H1011 H 0.18659 0.46859 0.27899 0.0
H1012 H 0.15185 0.39865 0.33714 0.0
H1013 H 0.18749 0.42756 0.31049 0.0
H1014 H 0.15412 0.38425 0.23898 0.0
H1015 H 0.11924 0.35418 0.26587 0.0
C1016 C 0.22873 0.43398 0.21846 0.0
C1017 C 0.23281 0.46474 0.22472 0.0
C1018 C 0.20972 0.41565 0.23399 0.0
C1019 C 0.19429 0.42765 0.25613 0.0
C1020 C 0.19853 0.45838 0.26242 0.0
C1021 C 0.21754 0.47665 0.24696 0.0
C1022 C 0.15233 0.39482 0.31582 0.0
C1023 C 0.13251 0.37394 0.30377 0.0
C1024 C 0.17259 0.41177 0.30044 0.0
C1025 C 0.1736 0.40845 0.27253 0.0
C1026 C 0.15415 0.38725 0.26045 0.0
C1027 C 0.13386 0.37022 0.27587 0.0
H1028 H 0.746 0.17288 0.32143 0.0
H1029 H 0.72708 0.10216 0.26438 0.0
H1030 H 0.71571 0.20824 0.29492 0.0
H1031 H 0.69688 0.13723 0.23807 0.0
H1032 H 0.66613 0.21256 0.18391 0.0
H1033 H 0.70049 0.18126 0.20991 0.0
H1034 H 0.66315 0.21753 0.28282 0.0
H1035 H 0.62961 0.25 0.25672 0.0
C1036 C 0.7354 0.16487 0.30327 0.0
C1037 C 0.73913 0.13469 0.29501 0.0
C1038 C 0.71799 0.18511 0.28809 0.0
C1039 C 0.70388 0.17562 0.26432 0.0
C1040 C 0.70788 0.14552 0.25597 0.0
C1041 C 0.72528 0.12535 0.27109 0.0
C1042 C 0.66551 0.21436 0.20545 0.0
C1043 C 0.6449 0.23386 0.21813 0.0
C1044 C 0.68503 0.19606 0.22041 0.0
C1045 C 0.68445 0.19664 0.24848 0.0
C1046 C 0.66437 0.21664 0.26122 0.0
C1047 C 0.64484 0.23502 0.24623 0.0
H1048 H 0.9084 0.64505 0.19028 0.0
H1049 H 0.86483 0.6088 0.26054 0.0
H1050 H 0.94228 0.67476 0.21842 0.0
H1051 H 0.89902 0.63855 0.28891 0.0
H1052 H 0.94044 0.72964 0.32284 0.0
H1053 H 0.90785 0.69484 0.29819 0.0
H1054 H 0.98442 0.66584 0.25138 0.0
H1055 H 0.01716 0.69991 0.27628 0.0
C1056 C 0.90611 0.64344 0.21177 0.0
C1057 C 0.88392 0.6247 0.22322 0.0
C1058 C 0.92567 0.66023 0.22789 0.0
C1059 C 0.92332 0.65894 0.25587 0.0
C1060 C 0.90124 0.64008 0.2674 0.0
C1061 C 0.88187 0.62291 0.25121 0.0
C1062 C 0.9505 0.71551 0.30764 0.0
C1063 C 0.98146 0.71804 0.30136 0.0
C1064 C 0.93177 0.69556 0.29351 0.0
C1065 C 0.94354 0.67787 0.27268 0.0
C1066 C 0.97461 0.6796 0.26702 0.0
C1067 C 0.99335 0.69929 0.28125 0.0
H1068 H 0.36342 0.99004 0.2612 0.0
H1069 H 0.39693 0.95499 0.33629 0.0
H1070 H 0.39426 0.95348 0.23722 0.0
H1071 H 0.4271 0.91765 0.31227 0.0
H1072 H 0.50338 0.8812 0.25763 0.0
H1073 H 0.47152 0.91528 0.28335 0.0
H1074 H 0.39747 0.89929 0.22868 0.0
H1075 H 0.42935 0.86507 0.20295 0.0
C1076 C 0.37742 0.97462 0.27263 0.0
C1077 C 0.37774 0.9756 0.30072 0.0
C1078 C 0.39483 0.95334 0.25886 0.0
C1079 C 0.41308 0.9325 0.2728 0.0
C1080 C 0.41346 0.93349 0.3009 0.0
C1081 C 0.39595 0.95473 0.31468 0.0
C1082 C 0.48016 0.88445 0.25132 0.0
C1083 C 0.46901 0.87036 0.2281 0.0
C1084 C 0.46187 0.9041 0.26608 0.0
C1085 C 0.43198 0.91022 0.258 0.0
C1086 C 0.42057 0.89554 0.23519 0.0
C1087 C 0.43884 0.87586 0.22045 0.0
H1088 H 0.25945 0.62825 0.76351 0.0
H1089 H 0.20539 0.64981 0.83245 0.0
H1090 H 0.23045 0.66396 0.73667 0.0
H1091 H 0.17504 0.6847 0.80542 0.0
H1092 H 0.14061 0.76345 0.75446 0.0
H1093 H 0.17241 0.73098 0.78249 0.0
H1094 H 0.18392 0.66969 0.71601 0.0
H1095 H 0.15341 0.70287 0.68807 0.0
C1096 C 0.24104 0.64047 0.77281 0.0
C1097 C 0.23448 0.63611 0.79997 0.0
C1098 C 0.22425 0.66089 0.75741 0.0
C1099 C 0.19998 0.67712 0.76864 0.0
C1100 C 0.19373 0.673 0.79604 0.0
C1101 C 0.21097 0.65291 0.81157 0.0
C1102 C 0.15013 0.74307 0.74596 0.0
C1103 C 0.14479 0.73582 0.71904 0.0
C1104 C 0.16823 0.72431 0.76202 0.0
C1105 C 0.181 0.69759 0.75162 0.0
C1106 C 0.17528 0.69037 0.72468 0.0
C1107 C 0.15766 0.70935 0.70858 0.0
H1108 H 0.35818 0.13489 0.75571 0.0
H1109 H 0.40918 0.1609 0.68577 0.0
H1110 H 0.39203 0.16523 0.78359 0.0
H1111 H 0.44235 0.19173 0.71341 0.0
H1112 H 0.51667 0.21339 0.7737 0.0
H1113 H 0.48172 0.18324 0.74722 0.0
H1114 H 0.40662 0.21843 0.79264 0.0
H1115 H 0.44158 0.24895 0.81905 0.0
C1116 C 0.3765 0.14714 0.74626 0.0
C1117 C 0.38093 0.14537 0.71846 0.0
C1118 C 0.39575 0.16473 0.76221 0.0
C1119 C 0.42002 0.18076 0.75076 0.0
C1120 C 0.42413 0.17935 0.72294 0.0
C1121 C 0.40483 0.16195 0.70701 0.0
C1122 C 0.49272 0.21498 0.77798 0.0
C1123 C 0.48206 0.23392 0.79846 0.0
C1124 C 0.47265 0.19762 0.76276 0.0
C1125 C 0.44133 0.19859 0.76765 0.0
C1126 C 0.43064 0.21697 0.78849 0.0
C1127 C 0.45074 0.23446 0.80368 0.0
H1128 H 0.9283 0.37581 0.69751 0.0
H1129 H 1.00028 0.38959 0.75479 0.0
H1130 H 0.89587 0.40997 0.72307 0.0
H1131 H 0.96813 0.42333 0.78012 0.0
H1132 H 0.89443 0.46085 0.83324 0.0
H1133 H 0.92338 0.42367 0.80807 0.0
H1134 H 0.89219 0.46379 0.73415 0.0
H1135 H 0.86235 0.5002 0.75931 0.0
C1136 C 0.93722 0.38606 0.71549 0.0
C1137 C 0.96685 0.37966 0.72414 0.0
C1138 C 0.91866 0.40566 0.73013 0.0
C1139 C 0.92935 0.41928 0.75373 0.0
C1140 C 0.95892 0.41276 0.76237 0.0
C1141 C 0.9774 0.39328 0.74779 0.0
C1142 C 0.89346 0.46155 0.81164 0.0
C1143 C 0.87617 0.48369 0.79836 0.0
C1144 C 0.91029 0.4404 0.79718 0.0
C1145 C 0.91022 0.44082 0.76907 0.0
C1146 C 0.89256 0.46265 0.75578 0.0
C1147 C 0.87577 0.48383 0.77024 0.0
H1148 H 0.64692 0.90943 0.83683 0.0
H1149 H 0.62415 0.85644 0.7675 0.0
H1150 H 0.68196 0.93968 0.81002 0.0
H1151 H 0.6601 0.88526 0.74085 0.0
H1152 H 0.70045 0.96187 0.69275 0.0
H1153 H 0.66683 0.93157 0.72036 0.0
H1154 H 0.72799 0.94224 0.78733 0.0
H1155 H 0.76082 0.97393 0.75965 0.0
C1156 C 0.64979 0.90406 0.8159 0.0
C1157 C 0.63264 0.88088 0.80414 0.0
C1158 C 0.66998 0.92124 0.80049 0.0
C1159 C 0.67388 0.91522 0.77305 0.0
C1160 C 0.65723 0.8913 0.76164 0.0
C1161 C 0.63668 0.87459 0.77691 0.0
C1162 C 0.70678 0.95749 0.71331 0.0
C1163 C 0.73331 0.97011 0.72402 0.0
C1164 C 0.68756 0.93997 0.72922 0.0
C1165 C 0.69461 0.93408 0.75621 0.0
C1166 C 0.72142 0.94658 0.76683 0.0
C1167 C 0.74039 0.9646 0.75097 0.0
H1168 H 0.97369 0.76179 0.72987 0.0
H1169 H 0.02732 0.68028 0.72356 0.0
H1170 H 0.93337 0.733 0.75108 0.0
H1171 H 0.98683 0.65148 0.74519 0.0
H1172 H 0.89145 0.60774 0.76288 0.0
H1173 H 0.93289 0.63351 0.73917 0.0
H1174 H 0.92691 0.70818 0.79439 0.0
H1175 H 0.88603 0.68305 0.81762 0.0
C1176 C 0.97697 0.73774 0.73304 0.0
C1177 C 1.00394 0.72346 0.72519 0.0
C1178 C 0.95383 0.72122 0.74529 0.0
C1179 C 0.95696 0.68995 0.75002 0.0
C1180 C 0.98363 0.67548 0.74168 0.0
C1181 C 1.00692 0.69207 0.72947 0.0
C1182 C 0.89915 0.62958 0.76995 0.0
C1183 C 0.88516 0.64341 0.79198 0.0
C1184 C 0.9229 0.6443 0.75643 0.0
C1185 C 0.93288 0.67313 0.76467 0.0
C1186 C 0.91935 0.68637 0.78712 0.0
C1187 C 0.89591 0.67177 0.80055 0.0
H1188 H 0.43745 0.02888 0.72599 0.0
H1189 H 0.35581 0.97582 0.73491 0.0
H1190 H 0.46607 0.98985 0.74982 0.0
H1191 H 0.38446 0.9369 0.75841 0.0
H1192 H 0.43511 0.89245 0.82645 0.0
H1193 H 0.40973 0.93247 0.80195 0.0
H1194 H 0.48368 0.93583 0.74572 0.0
H1195 H 0.50959 0.89539 0.7706 0.0
C1196 C 0.42559 1.00892 0.73298 0.0
C1197 C 0.39423 1.00565 0.7287 0.0
C1198 C 0.44207 0.98647 0.74646 0.0
C1199 C 0.42753 0.96037 0.75614 0.0
C1200 C 0.39627 0.95696 0.75156 0.0
C1201 C 0.37985 0.97927 0.738 0.0
C1202 C 0.44618 0.90166 0.80893 0.0
C1203 C 0.47435 0.89046 0.80038 0.0
C1204 C 0.43145 0.92456 0.79477 0.0
C1205 C 0.44443 0.93704 0.77167 0.0
C1206 C 0.47311 0.92666 0.76349 0.0
C1207 C 0.48792 0.90349 0.7777 0.0
H1208 H 0.14092 0.36402 0.72607 0.0
H1209 H 0.07688 0.43477 0.74471 0.0
H1210 H 0.18149 0.39393 0.74537 0.0
H1211 H 0.11813 0.46518 0.7638 0.0
H1212 H 0.21295 0.51703 0.7734 0.0
H1213 H 0.17002 0.49169 0.75121 0.0
H1214 H 0.19152 0.40893 0.79318 0.0
H1215 H 0.23362 0.43362 0.81503 0.0
C1216 C 0.13537 0.38582 0.73454 0.0
C1217 C 0.10541 0.39653 0.73456 0.0
C1218 C 0.15875 0.40311 0.74539 0.0
C1219 C 0.15293 0.43175 0.75637 0.0
C1220 C 0.12326 0.4432 0.75542 0.0
C1221 C 0.09967 0.42571 0.74464 0.0
C1222 C 0.20838 0.49346 0.77784 0.0
C1223 C 0.22688 0.47736 0.79587 0.0
C1224 C 0.18378 0.47903 0.76527 0.0
C1225 C 0.17767 0.44825 0.77028 0.0
C1226 C 0.19593 0.43251 0.78857 0.0
C1227 C 0.22007 0.44682 0.80121 0.0
H1228 H 0.67872 0.2299 0.82001 0.0
H1229 H 0.60415 0.22319 0.76428 0.0
H1230 H 0.70434 0.18877 0.79769 0.0
H1231 H 0.63041 0.18155 0.74148 0.0
H1232 H 0.67761 0.08742 0.72711 0.0
H1233 H 0.64846 0.12797 0.74808 0.0
H1234 H 0.72987 0.18153 0.75509 0.0
H1235 H 0.759 0.14113 0.73456 0.0
C1236 C 0.66771 0.21968 0.80291 0.0
C1237 C 0.63941 0.23014 0.79381 0.0
C1238 C 0.68259 0.1961 0.79 0.0
C1239 C 0.66971 0.18214 0.76754 0.0
C1240 C 0.64095 0.19186 0.75877 0.0
C1241 C 0.62594 0.21572 0.77176 0.0
C1242 C 0.6893 0.10785 0.73314 0.0
C1243 C 0.72077 0.11083 0.72935 0.0
C1244 C 0.67251 0.13117 0.74497 0.0
C1245 C 0.68684 0.15792 0.75342 0.0
C1246 C 0.71818 0.16103 0.74921 0.0
C1247 C 0.73491 0.13785 0.73736 0.0
H1248 H 1.01102 0.43301 0.29494 0.0
H1249 H 0.9598 0.35081 0.28278 0.0
H1250 H 0.97255 0.46163 0.27054 0.0
H1251 H 0.92132 0.37952 0.25854 0.0
H1252 H 0.88129 0.43329 0.18842 0.0
H1253 H 0.91801 0.406 0.21538 0.0
H1254 H 0.91853 0.47879 0.27276 0.0
H1255 H 0.88149 0.50655 0.24545 0.0
C1256 C 0.99155 0.42101 0.28714 0.0
C1257 C 0.9887 0.38949 0.29069 0.0
C1258 C 0.96936 0.43752 0.27332 0.0
C1259 C 0.94387 0.42291 0.2625 0.0
C1260 C 0.94085 0.39146 0.26633 0.0
C1261 C 0.9629 0.37498 0.28031 0.0
C1262 C 0.88913 0.44364 0.20677 0.0
C1263 C 0.87837 0.47223 0.21471 0.0
C1264 C 0.91008 0.42778 0.22237 0.0
C1265 C 0.92113 0.44006 0.24633 0.0
C1266 C 0.91058 0.46875 0.25432 0.0
C1267 C 0.88927 0.4846 0.23875 0.0
H1268 H 0.57692 0.92043 0.24884 0.0
H1269 H 0.64728 0.859 0.22378 0.0
H1270 H 0.61481 0.95491 0.26625 0.0
H1271 H 0.68566 0.89434 0.24023 0.0
H1272 H 0.74551 0.95512 0.2944 0.0
H1273 H 0.70952 0.9176 0.27756 0.0
H1274 H 0.65042 0.98985 0.25128 0.0
H1275 H 0.68558 0.02691 0.2691 0.0
C1276 C 0.60057 0.91433 0.24693 0.0
C1277 C 0.60902 0.88702 0.23472 0.0
C1278 C 0.62244 0.93431 0.25673 0.0
C1279 C 0.65353 0.92789 0.25425 0.0
C1280 C 0.66201 0.9001 0.24266 0.0
C1281 C 0.63999 0.87982 0.23314 0.0
C1282 C 0.72489 0.9629 0.28486 0.0
C1283 C 0.71828 0.99402 0.28335 0.0
C1284 C 0.70423 0.94138 0.27512 0.0
C1285 C 0.67665 0.9505 0.26338 0.0
C1286 C 0.67086 0.98174 0.26091 0.0
C1287 C 0.69121 1.00312 0.27094 0.0
H1288 H 0.10001 0.71531 0.26379 0.0
H1289 H 0.17646 0.72903 0.31643 0.0
H1290 H 0.12722 0.67363 0.24209 0.0
H1291 H 0.20304 0.68765 0.29529 0.0
H1292 H 0.2569 0.63738 0.23299 0.0
H1293 H 0.22742 0.67786 0.25303 0.0
H1294 H 0.14728 0.62192 0.24988 0.0
H1295 H 0.17671 0.58142 0.22931 0.0
C1296 C 0.12244 0.70935 0.27085 0.0
C1297 C 0.13611 0.72572 0.29169 0.0
C1298 C 0.13799 0.68544 0.25849 0.0
C1299 C 0.16751 0.67755 0.26673 0.0
C1300 C 0.18068 0.69351 0.288 0.0
C1301 C 0.16526 0.71721 0.30026 0.0
C1302 C 0.23302 0.63361 0.23655 0.0
C1303 C 0.21929 0.606 0.22965 0.0
C1304 C 0.21609 0.65683 0.24815 0.0
C1305 C 0.18497 0.6531 0.25324 0.0
C1306 C 0.17111 0.62565 0.24604 0.0
C1307 C 0.18808 0.60235 0.23442 0.0
H1308 H 0.38211 0.17424 0.31695 0.0
H1309 H 0.38884 0.09818 0.26314 0.0
H1310 H 0.4233 0.1992 0.29402 0.0
H1311 H 0.43056 0.12381 0.23968 0.0
H1312 H 0.52482 0.17185 0.22448 0.0
H1313 H 0.48446 0.1426 0.24598 0.0
H1314 H 0.42953 0.22326 0.25036 0.0
H1315 H 0.4696 0.25243 0.22942 0.0
C1316 C 0.39235 0.16276 0.30015 0.0
C1317 C 0.38186 0.13426 0.29173 0.0
C1318 C 0.41597 0.17724 0.28689 0.0
C1319 C 0.42991 0.16376 0.26475 0.0
C1320 C 0.42023 0.13478 0.25671 0.0
C1321 C 0.39632 0.12016 0.27006 0.0
C1322 C 0.50411 0.18332 0.23003 0.0
C1323 C 0.50064 0.2146 0.22544 0.0
C1324 C 0.48092 0.16649 0.24217 0.0
C1325 C 0.4539 0.18065 0.25009 0.0
C1326 C 0.45026 0.21175 0.24494 0.0
C1327 C 0.47328 0.22849 0.23282 0.0
loop_
_geom_bond_atom_site_label_1
_geom_bond_atom_site_label_2
_geom_bond_distance
_geom_bond_site_symmetry_2
_ccdc_geom_bond_type
Co0 N4 2.148 1_455 S
Co0 N10 2.128 . S
Co0 N20 2.194 . S
Co0 O25 2.351 . S
Co0 O26 2.155 . S
Co0 O27 2.096 . S
C1 N4 1.301 . S
C1 N5 1.328 . S
C1 H6 0.930 1_655 S
C2 C3 1.333 . S
C2 N4 1.317 . S
C2 H7 0.930 . S
C3 C2 1.333 . S
C3 N5 1.350 . S
C3 H29 0.931 . S
N4 Co0 2.148 1_655 S
N4 C1 1.301 . S
N4 C2 1.317 . S
N5 C1 1.328 . S
N5 C3 1.350 . S
H6 C1 0.930 1_455 S
H7 C2 0.930 . S
C8 O9 1.224 . S
C8 O27 1.247 1_655 S
O9 C8 1.224 . S
N10 Co0 2.128 . S
N10 C11 1.355 . S
N10 C13 1.311 . S
C11 N10 1.355 . S
C11 C12 1.363 . S
C11 H23 0.929 . S
C12 C11 1.363 . S
C12 N14 1.375 . S
C12 H30 0.931 . S
C13 N10 1.311 . S
C13 N14 1.347 . S
C13 H24 0.929 . S
N14 C12 1.375 . S
N14 C13 1.347 . S
C15 C18 1.365 . S
C15 N20 1.328 . S
C15 H21 0.929 . S
C16 C17 1.362 . S
C16 C19 1.378 . S
C16 H31 0.929 1_455 S
C17 C16 1.362 . S
C17 C18 1.366 . S
C18 C15 1.365 . S
C18 C17 1.366 . S
C18 H32 0.930 . S
C19 C16 1.378 . S
C19 N20 1.315 . S
C19 H22 0.930 1_455 S
N20 Co0 2.194 . S
N20 C15 1.328 . S
N20 C19 1.315 . S
H21 C15 0.929 . S
H22 C19 0.930 1_655 S
H23 C11 0.929 . S
H24 C13 0.929 . S
O25 Co0 2.351 . S
O25 C28 1.244 . S
O26 Co0 2.155 . S
O26 C28 1.240 . S
O27 Co0 2.096 . S
O27 C8 1.247 1_455 S
C28 O25 1.244 . S
C28 O26 1.240 . S
H29 C3 0.931 . S
H30 C12 0.931 . S
H31 C16 0.929 1_655 S
H32 C18 0.930 . S
Co33 N37 2.148 1_545 S
Co33 N43 2.128 . S
Co33 N53 2.194 . S
Co33 O58 2.351 . S
Co33 O59 2.155 . S
Co33 O60 2.096 . S
C34 N37 1.301 . S
C34 N38 1.328 . S
C34 H39 0.930 1_565 S
C35 C36 1.333 . S
C35 N37 1.317 . S
C35 H40 0.930 . S
C36 C35 1.333 . S
C36 N38 1.350 . S
C36 H62 0.931 . S
N37 Co33 2.148 1_565 S
N37 C34 1.301 . S
N37 C35 1.317 . S
N38 C34 1.328 . S
N38 C36 1.350 . S
H39 C34 0.930 1_545 S
H40 C35 0.930 . S
C41 O42 1.224 . S
C41 O60 1.247 1_565 S
O42 C41 1.224 . S
N43 Co33 2.128 . S
N43 C44 1.355 . S
N43 C46 1.311 . S
C44 N43 1.355 . S
C44 C45 1.363 . S
C44 H56 0.929 . S
C45 C44 1.363 . S
C45 N47 1.375 . S
C45 H63 0.931 . S
C46 N43 1.311 . S
C46 N47 1.347 . S
C46 H57 0.929 . S
N47 C45 1.375 . S
N47 C46 1.347 . S
C48 C51 1.365 . S
C48 N53 1.328 . S
C48 H54 0.929 . S
C49 C50 1.362 . S
C49 C52 1.378 . S
C49 H64 0.929 1_545 S
C50 C49 1.362 . S
C50 C51 1.366 . S
C51 C48 1.365 . S
C51 C50 1.366 . S
C51 H65 0.930 . S
C52 C49 1.378 . S
C52 N53 1.315 . S
C52 H55 0.930 1_545 S
N53 Co33 2.194 . S
N53 C48 1.328 . S
N53 C52 1.315 . S
H54 C48 0.929 . S
H55 C52 0.930 1_565 S
H56 C44 0.929 . S
H57 C46 0.929 . S
O58 Co33 2.351 . S
O58 C61 1.244 . S
O59 Co33 2.155 . S
O59 C61 1.240 . S
O60 Co33 2.096 . S
O60 C41 1.247 1_545 S
C61 O58 1.244 . S
C61 O59 1.240 . S
H62 C36 0.931 . S
H63 C45 0.931 . S
H64 C49 0.929 1_565 S
H65 C51 0.930 . S
Co66 N70 2.148 . S
Co66 N76 2.128 . S
Co66 N86 2.194 . S
Co66 O91 2.351 . S
Co66 O92 2.155 . S
Co66 O93 2.096 . S
C67 N70 1.301 . S
C67 N71 1.328 . S
C67 H72 0.930 . S
C68 C69 1.333 . S
C68 N70 1.317 . S
C68 H73 0.930 . S
C69 C68 1.333 . S
C69 N71 1.350 . S
C69 H95 0.931 . S
N70 Co66 2.148 . S
N70 C67 1.301 . S
N70 C68 1.317 . S
N71 C67 1.328 . S
N71 C69 1.350 . S
H72 C67 0.930 . S
H73 C68 0.930 . S
C74 O75 1.224 . S
C74 O93 1.247 . S
O75 C74 1.224 . S
N76 Co66 2.128 . S
N76 C77 1.355 . S
N76 C79 1.311 . S
C77 N76 1.355 . S
C77 C78 1.363 1_455 S
C77 H89 0.929 . S
C78 C77 1.363 1_655 S
C78 N80 1.359 1_655 S
C78 H96 0.931 . S
C79 N76 1.311 . S
C79 N80 1.377 . S
C79 H90 0.929 . S
N80 C78 1.359 1_455 S
N80 C79 1.377 . S
C81 C84 1.365 . S
C81 N86 1.328 . S
C81 H87 0.929 . S
C82 C83 1.362 . S
C82 C85 1.378 . S
C82 H97 0.929 . S
C83 C82 1.362 . S
C83 C84 1.366 . S
C84 C81 1.365 . S
C84 C83 1.366 . S
C84 H98 0.930 . S
C85 C82 1.378 . S
C85 N86 1.315 . S
C85 H88 0.930 . S
N86 Co66 2.194 . S
N86 C81 1.328 . S
N86 C85 1.315 . S
H87 C81 0.929 . S
H88 C85 0.930 . S
H89 C77 0.929 . S
H90 C79 0.929 . S
O91 Co66 2.351 . S
O91 C94 1.244 . S
O92 Co66 2.155 . S
O92 C94 1.240 . S
O93 Co66 2.096 . S
O93 C74 1.247 . S
C94 O91 1.244 . S
C94 O92 1.240 . S
H95 C69 0.931 . S
H96 C78 0.931 . S
H97 C82 0.929 . S
H98 C84 0.930 . S
Co99 N103 2.148 . S
Co99 N109 2.128 . S
Co99 N119 2.194 . S
Co99 O124 2.351 . S
Co99 O125 2.155 . S
Co99 O126 2.096 . S
C100 N103 1.301 . S
C100 N104 1.328 . S
C100 H105 0.930 . S
C101 C102 1.333 . S
C101 N103 1.317 . S
C101 H106 0.930 . S
C102 C101 1.333 . S
C102 N104 1.350 . S
C102 H128 0.931 . S
N103 Co99 2.148 . S
N103 C100 1.301 . S
N103 C101 1.317 . S
N104 C100 1.328 . S
N104 C102 1.350 . S
H105 C100 0.930 . S
H106 C101 0.930 . S
C107 O108 1.224 . S
C107 O126 1.247 . S
O108 C107 1.224 . S
N109 Co99 2.128 . S
N109 C110 1.355 . S
N109 C112 1.311 . S
C110 N109 1.355 . S
C110 C111 1.363 1_545 S
C110 H122 0.929 . S
C111 C110 1.363 1_565 S
C111 N113 1.359 1_565 S
C111 H129 0.931 . S
C112 N109 1.311 . S
C112 N113 1.377 . S
C112 H123 0.929 . S
N113 C111 1.359 1_545 S
N113 C112 1.377 . S
C114 C117 1.365 . S
C114 N119 1.328 . S
C114 H120 0.929 . S
C115 C116 1.362 . S
C115 C118 1.378 . S
C115 H130 0.929 . S
C116 C115 1.362 . S
C116 C117 1.366 . S
C117 C114 1.365 . S
C117 C116 1.366 . S
C117 H131 0.930 . S
C118 C115 1.378 . S
C118 N119 1.315 . S
C118 H121 0.930 . S
N119 Co99 2.194 . S
N119 C114 1.328 . S
N119 C118 1.315 . S
H120 C114 0.929 . S
H121 C118 0.930 . S
H122 C110 0.929 . S
H123 C112 0.929 . S
O124 Co99 2.351 . S
O124 C127 1.244 . S
O125 Co99 2.155 . S
O125 C127 1.240 . S
O126 Co99 2.096 . S
O126 C107 1.247 . S
C127 O124 1.244 . S
C127 O125 1.240 . S
H128 C102 0.931 . S
H129 C111 0.931 . S
H130 C115 0.929 . S
H131 C117 0.930 . S
Co132 N136 2.148 1_455 S
Co132 N142 2.128 . S
Co132 N152 2.194 . S
Co132 O157 2.351 . S
Co132 O158 2.155 . S
Co132 O159 2.096 . S
C133 N136 1.301 . S
C133 N137 1.328 . S
C133 H138 0.930 1_655 S
C134 C135 1.333 . S
C134 N136 1.317 . S
C134 H139 0.930 . S
C135 C134 1.333 . S
C135 N137 1.350 . S
C135 H161 0.931 . S
N136 Co132 2.148 1_655 S
N136 C133 1.301 . S
N136 C134 1.317 . S
N137 C133 1.328 . S
N137 C135 1.350 . S
H138 C133 0.930 1_455 S
H139 C134 0.930 . S
C140 O141 1.224 . S
C140 O159 1.247 1_655 S
O141 C140 1.224 . S
N142 Co132 2.128 . S
N142 C143 1.355 . S
N142 C145 1.311 . S
C143 N142 1.355 . S
C143 C144 1.363 . S
C143 H155 0.929 . S
C144 C143 1.363 . S
C144 N146 1.375 . S
C144 H162 0.931 . S
C145 N142 1.311 . S
C145 N146 1.347 . S
C145 H156 0.929 . S
N146 C144 1.375 . S
N146 C145 1.347 . S
C147 C150 1.365 . S
C147 N152 1.328 . S
C147 H153 0.929 . S
C148 C149 1.362 . S
C148 C151 1.378 . S
C148 H163 0.929 1_455 S
C149 C148 1.362 . S
C149 C150 1.366 . S
C150 C147 1.365 . S
C150 C149 1.366 . S
C150 H164 0.930 . S
C151 C148 1.378 . S
C151 N152 1.315 . S
C151 H154 0.930 1_455 S
N152 Co132 2.194 . S
N152 C147 1.328 . S
N152 C151 1.315 . S
H153 C147 0.929 . S
H154 C151 0.930 1_655 S
H155 C143 0.929 . S
H156 C145 0.929 . S
O157 Co132 2.351 . S
O157 C160 1.244 . S
O158 Co132 2.155 . S
O158 C160 1.240 . S
O159 Co132 2.096 . S
O159 C140 1.247 1_455 S
C160 O157 1.244 . S
C160 O158 1.240 . S
H161 C135 0.931 . S
H162 C144 0.931 . S
H163 C148 0.929 1_655 S
H164 C150 0.930 . S
Co165 N169 2.148 1_545 S
Co165 N175 2.128 . S
Co165 N185 2.194 . S
Co165 O190 2.351 . S
Co165 O191 2.155 . S
Co165 O192 2.096 . S
C166 N169 1.301 . S
C166 N170 1.328 . S
C166 H171 0.930 1_565 S
C167 C168 1.333 . S
C167 N169 1.317 . S
C167 H172 0.930 . S
C168 C167 1.333 . S
C168 N170 1.350 . S
C168 H194 0.931 . S
N169 Co165 2.148 1_565 S
N169 C166 1.301 . S
N169 C167 1.317 . S
N170 C166 1.328 . S
N170 C168 1.350 . S
H171 C166 0.930 1_545 S
H172 C167 0.930 . S
C173 O174 1.224 . S
C173 O192 1.247 1_565 S
O174 C173 1.224 . S
N175 Co165 2.128 . S
N175 C176 1.355 . S
N175 C178 1.311 . S
C176 N175 1.355 . S
C176 C177 1.363 . S
C176 H188 0.929 . S
C177 C176 1.363 . S
C177 N179 1.375 . S
C177 H195 0.931 . S
C178 N175 1.311 . S
C178 N179 1.347 . S
C178 H189 0.929 . S
N179 C177 1.375 . S
N179 C178 1.347 . S
C180 C183 1.365 . S
C180 N185 1.328 . S
C180 H186 0.929 . S
C181 C182 1.362 . S
C181 C184 1.378 . S
C181 H196 0.929 1_545 S
C182 C181 1.362 . S
C182 C183 1.366 . S
C183 C180 1.365 . S
C183 C182 1.366 . S
C183 H197 0.930 . S
C184 C181 1.378 . S
C184 N185 1.315 . S
C184 H187 0.930 1_545 S
N185 Co165 2.194 . S
N185 C180 1.328 . S
N185 C184 1.315 . S
H186 C180 0.929 . S
H187 C184 0.930 1_565 S
H188 C176 0.929 . S
H189 C178 0.929 . S
O190 Co165 2.351 . S
O190 C193 1.244 . S
O191 Co165 2.155 . S
O191 C193 1.240 . S
O192 Co165 2.096 . S
O192 C173 1.247 1_545 S
C193 O190 1.244 . S
C193 O191 1.240 . S
H194 C168 0.931 . S
H195 C177 0.931 . S
H196 C181 0.929 1_565 S
H197 C183 0.930 . S
Co198 N202 2.148 . S
Co198 N208 2.128 . S
Co198 N218 2.194 . S
Co198 O223 2.351 . S
Co198 O224 2.155 . S
Co198 O225 2.096 . S
C199 N202 1.301 . S
C199 N203 1.328 . S
C199 H204 0.930 . S
C200 C201 1.333 . S
C200 N202 1.317 . S
C200 H205 0.930 . S
C201 C200 1.333 . S
C201 N203 1.350 . S
C201 H227 0.931 . S
N202 Co198 2.148 . S
N202 C199 1.301 . S
N202 C200 1.317 . S
N203 C199 1.328 . S
N203 C201 1.350 . S
H204 C199 0.930 . S
H205 C200 0.930 . S
C206 O207 1.224 . S
C206 O225 1.247 . S
O207 C206 1.224 . S
N208 Co198 2.128 . S
N208 C209 1.355 . S
N208 C211 1.311 . S
C209 N208 1.355 . S
C209 C210 1.363 1_455 S
C209 H221 0.929 . S
C210 C209 1.363 1_655 S
C210 N212 1.359 1_655 S
C210 H228 0.931 . S
C211 N208 1.311 . S
C211 N212 1.377 . S
C211 H222 0.929 . S
N212 C210 1.359 1_455 S
N212 C211 1.377 . S
C213 C216 1.365 . S
C213 N218 1.328 . S
C213 H219 0.929 . S
C214 C215 1.362 . S
C214 C217 1.378 . S
C214 H229 0.929 . S
C215 C214 1.362 . S
C215 C216 1.366 . S
C216 C213 1.365 . S
C216 C215 1.366 . S
C216 H230 0.930 . S
C217 C214 1.378 . S
C217 N218 1.315 . S
C217 H220 0.930 . S
N218 Co198 2.194 . S
N218 C213 1.328 . S
N218 C217 1.315 . S
H219 C213 0.929 . S
H220 C217 0.930 . S
H221 C209 0.929 . S
H222 C211 0.929 . S
O223 Co198 2.351 . S
O223 C226 1.244 . S
O224 Co198 2.155 . S
O224 C226 1.240 . S
O225 Co198 2.096 . S
O225 C206 1.247 . S
C226 O223 1.244 . S
C226 O224 1.240 . S
H227 C201 0.931 . S
H228 C210 0.931 . S
H229 C214 0.929 . S
H230 C216 0.930 . S
Co231 N235 2.148 . S
Co231 N241 2.128 . S
Co231 N251 2.194 . S
Co231 O256 2.351 . S
Co231 O257 2.155 . S
Co231 O258 2.096 . S
C232 N235 1.301 . S
C232 N236 1.328 . S
C232 H237 0.930 . S
C233 C234 1.333 . S
C233 N235 1.317 . S
C233 H238 0.930 . S
C234 C233 1.333 . S
C234 N236 1.350 . S
C234 H260 0.931 . S
N235 Co231 2.148 . S
N235 C232 1.301 . S
N235 C233 1.317 . S
N236 C232 1.328 . S
N236 C234 1.350 . S
H237 C232 0.930 . S
H238 C233 0.930 . S
C239 O240 1.224 . S
C239 O258 1.247 . S
O240 C239 1.224 . S
N241 Co231 2.128 . S
N241 C242 1.355 . S
N241 C244 1.311 . S
C242 N241 1.355 . S
C242 C243 1.363 1_545 S
C242 H254 0.929 . S
C243 C242 1.363 1_565 S
C243 N245 1.359 1_565 S
C243 H261 0.931 . S
C244 N241 1.311 . S
C244 N245 1.377 . S
C244 H255 0.929 . S
N245 C243 1.359 1_545 S
N245 C244 1.377 . S
C246 C249 1.365 . S
C246 N251 1.328 . S
C246 H252 0.929 . S
C247 C248 1.362 . S
C247 C250 1.378 . S
C247 H262 0.929 . S
C248 C247 1.362 . S
C248 C249 1.366 . S
C249 C246 1.365 . S
C249 C248 1.366 . S
C249 H263 0.930 . S
C250 C247 1.378 . S
C250 N251 1.315 . S
C250 H253 0.930 . S
N251 Co231 2.194 . S
N251 C246 1.328 . S
N251 C250 1.315 . S
H252 C246 0.929 . S
H253 C250 0.930 . S
H254 C242 0.929 . S
H255 C244 0.929 . S
O256 Co231 2.351 . S
O256 C259 1.244 . S
O257 Co231 2.155 . S
O257 C259 1.240 . S
O258 Co231 2.096 . S
O258 C239 1.247 . S
C259 O256 1.244 . S
C259 O257 1.240 . S
H260 C234 0.931 . S
H261 C243 0.931 . S
H262 C247 0.929 . S
H263 C249 0.930 . S
Co264 N268 2.148 . S
Co264 N274 2.128 . S
Co264 N284 2.194 . S
Co264 O289 2.351 . S
Co264 O290 2.155 . S
Co264 O291 2.096 . S
C265 N268 1.301 . S
C265 N269 1.328 . S
C265 H270 0.930 . S
C266 C267 1.333 . S
C266 N268 1.317 . S
C266 H271 0.930 . S
C267 C266 1.333 . S
C267 N269 1.350 . S
C267 H293 0.931 . S
N268 Co264 2.148 . S
N268 C265 1.301 . S
N268 C266 1.317 . S
N269 C265 1.328 . S
N269 C267 1.350 . S
H270 C265 0.930 . S
H271 C266 0.930 . S
C272 O273 1.224 . S
C272 O291 1.247 . S
O273 C272 1.224 . S
N274 Co264 2.128 . S
N274 C275 1.355 . S
N274 C277 1.311 . S
C275 N274 1.355 . S
C275 C276 1.363 . S
C275 H287 0.929 . S
C276 C275 1.363 . S
C276 N278 1.375 . S
C276 H294 0.931 . S
C277 N274 1.311 . S
C277 N278 1.347 . S
C277 H288 0.929 . S
N278 C276 1.375 . S
N278 C277 1.347 . S
C279 C282 1.365 . S
C279 N284 1.328 . S
C279 H285 0.929 . S
C280 C281 1.362 . S
C280 C283 1.378 . S
C280 H295 0.929 . S
C281 C280 1.362 . S
C281 C282 1.366 . S
C282 C279 1.365 . S
C282 C281 1.366 . S
C282 H296 0.930 . S
C283 C280 1.378 . S
C283 N284 1.315 . S
C283 H286 0.930 . S
N284 Co264 2.194 . S
N284 C279 1.328 . S
N284 C283 1.315 . S
H285 C279 0.929 . S
H286 C283 0.930 . S
H287 C275 0.929 . S
H288 C277 0.929 . S
O289 Co264 2.351 . S
O289 C292 1.244 . S
O290 Co264 2.155 . S
O290 C292 1.240 . S
O291 Co264 2.096 . S
O291 C272 1.247 . S
C292 O289 1.244 . S
C292 O290 1.240 . S
H293 C267 0.931 . S
H294 C276 0.931 . S
H295 C280 0.929 . S
H296 C282 0.930 . S
Co297 N301 2.148 . S
Co297 N307 2.128 . S
Co297 N317 2.194 . S
Co297 O322 2.351 . S
Co297 O323 2.155 . S
Co297 O324 2.096 . S
C298 N301 1.301 . S
C298 N302 1.328 . S
C298 H303 0.930 . S
C299 C300 1.333 . S
C299 N301 1.317 . S
C299 H304 0.930 . S
C300 C299 1.333 . S
C300 N302 1.350 . S
C300 H326 0.931 . S
N301 Co297 2.148 . S
N301 C298 1.301 . S
N301 C299 1.317 . S
N302 C298 1.328 . S
N302 C300 1.350 . S
H303 C298 0.930 . S
H304 C299 0.930 . S
C305 O306 1.224 . S
C305 O324 1.247 . S
O306 C305 1.224 . S
N307 Co297 2.128 . S
N307 C308 1.355 . S
N307 C310 1.311 . S
C308 N307 1.355 . S
C308 C309 1.363 . S
C308 H320 0.929 . S
C309 C308 1.363 . S
C309 N311 1.375 . S
C309 H327 0.931 . S
C310 N307 1.311 . S
C310 N311 1.347 . S
C310 H321 0.929 . S
N311 C309 1.375 . S
N311 C310 1.347 . S
C312 C315 1.365 . S
C312 N317 1.328 . S
C312 H318 0.929 . S
C313 C314 1.362 . S
C313 C316 1.378 . S
C313 H328 0.929 . S
C314 C313 1.362 . S
C314 C315 1.366 . S
C315 C312 1.365 . S
C315 C314 1.366 . S
C315 H329 0.930 . S
C316 C313 1.378 . S
C316 N317 1.315 . S
C316 H319 0.930 . S
N317 Co297 2.194 . S
N317 C312 1.328 . S
N317 C316 1.315 . S
H318 C312 0.929 . S
H319 C316 0.930 . S
H320 C308 0.929 . S
H321 C310 0.929 . S
O322 Co297 2.351 . S
O322 C325 1.244 . S
O323 Co297 2.155 . S
O323 C325 1.240 . S
O324 Co297 2.096 . S
O324 C305 1.247 . S
C325 O322 1.244 . S
C325 O323 1.240 . S
H326 C300 0.931 . S
H327 C309 0.931 . S
H328 C313 0.929 . S
H329 C315 0.930 . S
Co330 N334 2.148 . S
Co330 N340 2.128 . S
Co330 N350 2.194 . S
Co330 O355 2.351 . S
Co330 O356 2.155 . S
Co330 O357 2.096 . S
C331 N334 1.301 . S
C331 N335 1.328 . S
C331 H336 0.930 . S
C332 C333 1.333 . S
C332 N334 1.317 . S
C332 H337 0.930 . S
C333 C332 1.333 . S
C333 N335 1.350 . S
C333 H359 0.931 . S
N334 Co330 2.148 . S
N334 C331 1.301 . S
N334 C332 1.317 . S
N335 C331 1.328 . S
N335 C333 1.350 . S
H336 C331 0.930 . S
H337 C332 0.930 . S
C338 O339 1.224 . S
C338 O357 1.247 . S
O339 C338 1.224 . S
N340 Co330 2.128 . S
N340 C341 1.355 . S
N340 C343 1.311 . S
C341 N340 1.355 . S
C341 C342 1.363 . S
C341 H353 0.929 . S
C342 C341 1.363 . S
C342 N344 1.375 . S
C342 H360 0.931 . S
C343 N340 1.311 . S
C343 N344 1.347 . S
C343 H354 0.929 . S
N344 C342 1.375 . S
N344 C343 1.347 . S
C345 C348 1.365 . S
C345 N350 1.328 . S
C345 H351 0.929 . S
C346 C347 1.362 . S
C346 C349 1.378 . S
C346 H361 0.929 . S
C347 C346 1.362 . S
C347 C348 1.366 . S
C348 C345 1.365 . S
C348 C347 1.366 . S
C348 H362 0.930 . S
C349 C346 1.378 . S
C349 N350 1.315 . S
C349 H352 0.930 . S
N350 Co330 2.194 . S
N350 C345 1.328 . S
N350 C349 1.315 . S
H351 C345 0.929 . S
H352 C349 0.930 . S
H353 C341 0.929 . S
H354 C343 0.929 . S
O355 Co330 2.351 . S
O355 C358 1.244 . S
O356 Co330 2.155 . S
O356 C358 1.240 . S
O357 Co330 2.096 . S
O357 C338 1.247 . S
C358 O355 1.244 . S
C358 O356 1.240 . S
H359 C333 0.931 . S
H360 C342 0.931 . S
H361 C346 0.929 . S
H362 C348 0.930 . S
Co363 N367 2.148 . S
Co363 N373 2.128 . S
Co363 N383 2.194 . S
Co363 O388 2.351 . S
Co363 O389 2.155 . S
Co363 O390 2.096 . S
C364 N367 1.301 . S
C364 N368 1.328 . S
C364 H369 0.930 . S
C365 C366 1.333 . S
C365 N367 1.317 . S
C365 H370 0.930 . S
C366 C365 1.333 . S
C366 N368 1.350 . S
C366 H392 0.931 . S
N367 Co363 2.148 . S
N367 C364 1.301 . S
N367 C365 1.317 . S
N368 C364 1.328 . S
N368 C366 1.350 . S
H369 C364 0.930 . S
H370 C365 0.930 . S
C371 O372 1.224 . S
C371 O390 1.247 . S
O372 C371 1.224 . S
N373 Co363 2.128 . S
N373 C374 1.355 . S
N373 C376 1.311 . S
C374 N373 1.355 . S
C374 C375 1.363 . S
C374 H386 0.929 . S
C375 C374 1.363 . S
C375 N377 1.375 . S
C375 H393 0.931 . S
C376 N373 1.311 . S
C376 N377 1.347 . S
C376 H387 0.929 . S
N377 C375 1.375 . S
N377 C376 1.347 . S
C378 C381 1.365 . S
C378 N383 1.328 . S
C378 H384 0.929 . S
C379 C380 1.362 . S
C379 C382 1.378 . S
C379 H394 0.929 . S
C380 C379 1.362 . S
C380 C381 1.366 . S
C381 C378 1.365 . S
C381 C380 1.366 . S
C381 H395 0.930 . S
C382 C379 1.378 . S
C382 N383 1.315 . S
C382 H385 0.930 . S
N383 Co363 2.194 . S
N383 C378 1.328 . S
N383 C382 1.315 . S
H384 C378 0.929 . S
H385 C382 0.930 . S
H386 C374 0.929 . S
H387 C376 0.929 . S
O388 Co363 2.351 . S
O388 C391 1.244 . S
O389 Co363 2.155 . S
O389 C391 1.240 . S
O390 Co363 2.096 . S
O390 C371 1.247 . S
C391 O388 1.244 . S
C391 O389 1.240 . S
H392 C366 0.931 . S
H393 C375 0.931 . S
H394 C379 0.929 . S
H395 C381 0.930 . S
Co396 N400 2.148 . S
Co396 N406 2.128 . S
Co396 N416 2.194 . S
Co396 O421 2.351 . S
Co396 O422 2.155 . S
Co396 O423 2.096 . S
C397 N400 1.301 . S
C397 N401 1.328 . S
C397 H402 0.930 . S
C398 C399 1.333 . S
C398 N400 1.317 . S
C398 H403 0.930 . S
C399 C398 1.333 . S
C399 N401 1.350 . S
C399 H425 0.931 . S
N400 Co396 2.148 . S
N400 C397 1.301 . S
N400 C398 1.317 . S
N401 C397 1.328 . S
N401 C399 1.350 . S
H402 C397 0.930 . S
H403 C398 0.930 . S
C404 O405 1.224 . S
C404 O423 1.247 . S
O405 C404 1.224 . S
N406 Co396 2.128 . S
N406 C407 1.355 . S
N406 C409 1.311 . S
C407 N406 1.355 . S
C407 C408 1.363 . S
C407 H419 0.929 . S
C408 C407 1.363 . S
C408 N410 1.375 . S
C408 H426 0.931 . S
C409 N406 1.311 . S
C409 N410 1.347 . S
C409 H420 0.929 . S
N410 C408 1.375 . S
N410 C409 1.347 . S
C411 C414 1.365 . S
C411 N416 1.328 . S
C411 H417 0.929 . S
C412 C413 1.362 . S
C412 C415 1.378 . S
C412 H427 0.929 . S
C413 C412 1.362 . S
C413 C414 1.366 . S
C414 C411 1.365 . S
C414 C413 1.366 . S
C414 H428 0.930 . S
C415 C412 1.378 . S
C415 N416 1.315 . S
C415 H418 0.930 . S
N416 Co396 2.194 . S
N416 C411 1.328 . S
N416 C415 1.315 . S
H417 C411 0.929 . S
H418 C415 0.930 . S
H419 C407 0.929 . S
H420 C409 0.929 . S
O421 Co396 2.351 . S
O421 C424 1.244 . S
O422 Co396 2.155 . S
O422 C424 1.240 . S
O423 Co396 2.096 . S
O423 C404 1.247 . S
C424 O421 1.244 . S
C424 O422 1.240 . S
H425 C399 0.931 . S
H426 C408 0.931 . S
H427 C412 0.929 . S
H428 C414 0.930 . S
Co429 N433 2.148 . S
Co429 N439 2.128 . S
Co429 N449 2.194 . S
Co429 O454 2.351 . S
Co429 O455 2.155 . S
Co429 O456 2.096 . S
C430 N433 1.301 . S
C430 N434 1.328 . S
C430 H435 0.930 . S
C431 C432 1.333 . S
C431 N433 1.317 . S
C431 H436 0.930 . S
C432 C431 1.333 . S
C432 N434 1.350 . S
C432 H458 0.931 . S
N433 Co429 2.148 . S
N433 C430 1.301 . S
N433 C431 1.317 . S
N434 C430 1.328 . S
N434 C432 1.350 . S
H435 C430 0.930 . S
H436 C431 0.930 . S
C437 O438 1.224 . S
C437 O456 1.247 . S
O438 C437 1.224 . S
N439 Co429 2.128 . S
N439 C440 1.355 . S
N439 C442 1.311 . S
C440 N439 1.355 . S
C440 C441 1.363 . S
C440 H452 0.929 . S
C441 C440 1.363 . S
C441 N443 1.375 . S
C441 H459 0.931 . S
C442 N439 1.311 . S
C442 N443 1.347 . S
C442 H453 0.929 . S
N443 C441 1.375 . S
N443 C442 1.347 . S
C444 C447 1.365 . S
C444 N449 1.328 . S
C444 H450 0.929 . S
C445 C446 1.362 . S
C445 C448 1.378 . S
C445 H460 0.929 . S
C446 C445 1.362 . S
C446 C447 1.366 . S
C447 C444 1.365 . S
C447 C446 1.366 . S
C447 H461 0.930 . S
C448 C445 1.378 . S
C448 N449 1.315 . S
C448 H451 0.930 . S
N449 Co429 2.194 . S
N449 C444 1.328 . S
N449 C448 1.315 . S
H450 C444 0.929 . S
H451 C448 0.930 . S
H452 C440 0.929 . S
H453 C442 0.929 . S
O454 Co429 2.351 . S
O454 C457 1.244 . S
O455 Co429 2.155 . S
O455 C457 1.240 . S
O456 Co429 2.096 . S
O456 C437 1.247 . S
C457 O454 1.244 . S
C457 O455 1.240 . S
H458 C432 0.931 . S
H459 C441 0.931 . S
H460 C445 0.929 . S
H461 C447 0.930 . S
Co462 N466 2.148 . S
Co462 N472 2.128 . S
Co462 N482 2.194 . S
Co462 O487 2.351 . S
Co462 O488 2.155 . S
Co462 O489 2.096 . S
C463 N466 1.301 . S
C463 N467 1.328 . S
C463 H468 0.930 . S
C464 C465 1.333 . S
C464 N466 1.317 . S
C464 H469 0.930 . S
C465 C464 1.333 . S
C465 N467 1.350 . S
C465 H491 0.931 . S
N466 Co462 2.148 . S
N466 C463 1.301 . S
N466 C464 1.317 . S
N467 C463 1.328 . S
N467 C465 1.350 . S
H468 C463 0.930 . S
H469 C464 0.930 . S
C470 O471 1.224 . S
C470 O489 1.247 . S
O471 C470 1.224 . S
N472 Co462 2.128 . S
N472 C473 1.355 . S
N472 C475 1.311 . S
C473 N472 1.355 . S
C473 C474 1.363 . S
C473 H485 0.929 . S
C474 C473 1.363 . S
C474 N476 1.375 . S
C474 H492 0.931 . S
C475 N472 1.311 . S
C475 N476 1.347 . S
C475 H486 0.929 . S
N476 C474 1.375 . S
N476 C475 1.347 . S
C477 C480 1.365 . S
C477 N482 1.328 . S
C477 H483 0.929 . S
C478 C479 1.362 . S
C478 C481 1.378 . S
C478 H493 0.929 . S
C479 C478 1.362 . S
C479 C480 1.366 . S
C480 C477 1.365 . S
C480 C479 1.366 . S
C480 H494 0.930 . S
C481 C478 1.378 . S
C481 N482 1.315 . S
C481 H484 0.930 . S
N482 Co462 2.194 . S
N482 C477 1.328 . S
N482 C481 1.315 . S
H483 C477 0.929 . S
H484 C481 0.930 . S
H485 C473 0.929 . S
H486 C475 0.929 . S
O487 Co462 2.351 . S
O487 C490 1.244 . S
O488 Co462 2.155 . S
O488 C490 1.240 . S
O489 Co462 2.096 . S
O489 C470 1.247 . S
C490 O487 1.244 . S
C490 O488 1.240 . S
H491 C465 0.931 . S
H492 C474 0.931 . S
H493 C478 0.929 . S
H494 C480 0.930 . S
Co495 N499 2.148 . S
Co495 N505 2.128 . S
Co495 N515 2.194 . S
Co495 O520 2.351 . S
Co495 O521 2.155 . S
Co495 O522 2.096 . S
C496 N499 1.301 . S
C496 N500 1.328 . S
C496 H501 0.930 . S
C497 C498 1.333 . S
C497 N499 1.317 . S
C497 H502 0.930 . S
C498 C497 1.333 . S
C498 N500 1.350 . S
C498 H524 0.931 . S
N499 Co495 2.148 . S
N499 C496 1.301 . S
N499 C497 1.317 . S
N500 C496 1.328 . S
N500 C498 1.350 . S
H501 C496 0.930 . S
H502 C497 0.930 . S
C503 O504 1.224 . S
C503 O522 1.247 . S
O504 C503 1.224 . S
N505 Co495 2.128 . S
N505 C506 1.355 . S
N505 C508 1.311 . S
C506 N505 1.355 . S
C506 C507 1.363 . S
C506 H518 0.929 . S
C507 C506 1.363 . S
C507 N509 1.375 . S
C507 H525 0.931 . S
C508 N505 1.311 . S
C508 N509 1.347 . S
C508 H519 0.929 . S
N509 C507 1.375 . S
N509 C508 1.347 . S
C510 C513 1.365 . S
C510 N515 1.328 . S
C510 H516 0.929 . S
C511 C512 1.362 . S
C511 C514 1.378 . S
C511 H526 0.929 . S
C512 C511 1.362 . S
C512 C513 1.366 . S
C513 C510 1.365 . S
C513 C512 1.366 . S
C513 H527 0.930 . S
C514 C511 1.378 . S
C514 N515 1.315 . S
C514 H517 0.930 . S
N515 Co495 2.194 . S
N515 C510 1.328 . S
N515 C514 1.315 . S
H516 C510 0.929 . S
H517 C514 0.930 . S
H518 C506 0.929 . S
H519 C508 0.929 . S
O520 Co495 2.351 . S
O520 C523 1.244 . S
O521 Co495 2.155 . S
O521 C523 1.240 . S
O522 Co495 2.096 . S
O522 C503 1.247 . S
C523 O520 1.244 . S
C523 O521 1.240 . S
H524 C498 0.931 . S
H525 C507 0.931 . S
H526 C511 0.929 . S
H527 C513 0.930 . S
H528 C536 0.950 . S
H529 C541 0.950 1_655 S
H530 C538 0.950 . S
H531 C540 0.950 . S
H532 C542 0.950 . S
H533 C544 0.950 . S
H534 C546 0.950 . S
H535 C547 0.950 . S
C536 H528 0.950 . S
C536 C537 1.386 . S
C536 C538 1.391 . S
C537 C536 1.386 . S
C537 C541 1.393 . S
C538 H530 0.950 . S
C538 C536 1.391 . S
C538 C539 1.400 . S
C539 C538 1.400 . S
C539 C540 1.398 . S
C539 C545 1.491 . S
C540 H531 0.950 . S
C540 C539 1.398 . S
C540 C541 1.391 . S
C541 H529 0.950 1_455 S
C541 C537 1.393 . S
C541 C540 1.391 . S
C542 H532 0.950 . S
C542 C543 1.386 . S
C542 C544 1.391 . S
C543 C542 1.386 . S
C543 C547 1.393 . S
C544 H533 0.950 . S
C544 C542 1.391 . S
C544 C545 1.400 . S
C545 C539 1.491 . S
C545 C544 1.400 . S
C545 C546 1.398 . S
C546 H534 0.950 . S
C546 C545 1.398 . S
C546 C547 1.391 . S
C547 H535 0.950 . S
C547 C543 1.393 . S
C547 C546 1.391 . S
H548 C556 0.950 . S
H549 C561 0.950 . S
H550 C558 0.950 . S
H551 C560 0.950 . S
H552 C562 0.950 1_565 S
H553 C564 0.950 1_565 S
H554 C566 0.950 . S
H555 C567 0.950 . S
C556 H548 0.950 . S
C556 C557 1.386 . S
C556 C558 1.391 . S
C557 C556 1.386 . S
C557 C561 1.393 . S
C558 H550 0.950 . S
C558 C556 1.391 . S
C558 C559 1.400 . S
C559 C558 1.400 . S
C559 C560 1.398 . S
C559 C565 1.491 . S
C560 H551 0.950 . S
C560 C559 1.398 . S
C560 C561 1.391 . S
C561 H549 0.950 . S
C561 C557 1.393 . S
C561 C560 1.391 . S
C562 H552 0.950 1_545 S
C562 C563 1.386 . S
C562 C564 1.391 . S
C563 C562 1.386 . S
C563 C567 1.393 . S
C564 H553 0.950 1_545 S
C564 C562 1.391 . S
C564 C565 1.400 . S
C565 C559 1.491 . S
C565 C564 1.400 . S
C565 C566 1.398 . S
C566 H554 0.950 . S
C566 C565 1.398 . S
C566 C567 1.391 . S
C567 H555 0.950 . S
C567 C563 1.393 . S
C567 C566 1.391 . S
H568 C576 0.950 . S
H569 C581 0.950 1_655 S
H570 C578 0.950 . S
H571 C580 0.955 . S
H572 C582 0.950 . S
H573 C584 0.950 . S
H574 C586 0.950 . S
H575 C587 0.950 . S
C576 H568 0.950 . S
C576 C577 1.386 . S
C576 C578 1.391 . S
C577 C576 1.386 . S
C577 C581 1.393 . S
C578 H570 0.950 . S
C578 C576 1.391 . S
C578 C579 1.400 . S
C579 C578 1.400 . S
C579 C580 1.398 . S
C579 C585 1.491 . S
C580 H571 0.955 . S
C580 C579 1.398 . S
C580 C581 1.391 . S
C581 H569 0.950 1_455 S
C581 C577 1.393 . S
C581 C580 1.391 . S
C582 H572 0.950 . S
C582 C583 1.386 . S
C582 C584 1.391 . S
C583 C582 1.386 . S
C583 C587 1.393 . S
C584 H573 0.950 . S
C584 C582 1.391 . S
C584 C585 1.400 . S
C585 C579 1.491 . S
C585 C584 1.400 . S
C585 C586 1.398 . S
C586 H574 0.950 . S
C586 C585 1.398 . S
C586 C587 1.391 . S
C587 H575 0.950 . S
C587 C583 1.393 . S
C587 C586 1.391 . S
H588 C596 0.950 . S
H589 C601 0.950 . S
H590 C598 0.950 . S
H591 C600 0.950 . S
H592 C602 0.950 . S
H593 C604 0.950 . S
H594 C606 0.950 . S
H595 C607 0.950 . S
C596 H588 0.950 . S
C596 C597 1.386 . S
C596 C598 1.391 . S
C597 C596 1.386 . S
C597 C601 1.393 . S
C598 H590 0.950 . S
C598 C596 1.391 . S
C598 C599 1.400 . S
C599 C598 1.400 . S
C599 C600 1.398 . S
C599 C605 1.491 . S
C600 H591 0.950 . S
C600 C599 1.398 . S
C600 C601 1.391 . S
C601 H589 0.950 . S
C601 C597 1.393 . S
C601 C600 1.391 . S
C602 H592 0.950 . S
C602 C603 1.386 . S
C602 C604 1.391 . S
C603 C602 1.386 . S
C603 C607 1.393 . S
C604 H593 0.950 . S
C604 C602 1.391 . S
C604 C605 1.400 . S
C605 C599 1.491 . S
C605 C604 1.400 . S
C605 C606 1.398 . S
C606 H594 0.950 . S
C606 C605 1.398 . S
C606 C607 1.391 . S
C607 H595 0.950 . S
C607 C603 1.393 . S
C607 C606 1.391 . S
H608 C616 0.950 . S
H609 C621 0.950 . S
H610 C618 0.950 . S
H611 C620 0.950 . S
H612 C622 0.950 . S
H613 C624 0.950 . S
H614 C626 0.950 . S
H615 C627 0.950 . S
C616 H608 0.950 . S
C616 C617 1.386 . S
C616 C618 1.391 . S
C617 C616 1.386 . S
C617 C621 1.393 . S
C618 H610 0.950 . S
C618 C616 1.391 . S
C618 C619 1.400 . S
C619 C618 1.400 . S
C619 C620 1.398 . S
C619 C625 1.491 1_556 S
C620 H611 0.950 . S
C620 C619 1.398 . S
C620 C621 1.391 . S
C621 H609 0.950 . S
C621 C617 1.393 . S
C621 C620 1.391 . S
C622 H612 0.950 . S
C622 C623 1.386 . S
C622 C624 1.391 . S
C623 C622 1.386 . S
C623 C627 1.393 . S
C624 H613 0.950 . S
C624 C622 1.391 . S
C624 C625 1.400 . S
C625 C619 1.491 1_554 S
C625 C624 1.400 . S
C625 C626 1.398 . S
C626 H614 0.950 . S
C626 C625 1.398 . S
C626 C627 1.391 . S
C627 H615 0.950 . S
C627 C623 1.393 . S
C627 C626 1.391 . S
H628 C636 0.950 . S
H629 C641 0.950 . S
H630 C638 0.950 . S
H631 C640 0.950 . S
H632 C642 0.950 . S
H633 C644 0.950 . S
H634 C646 0.950 . S
H635 C647 0.950 . S
C636 H628 0.950 . S
C636 C637 1.386 . S
C636 C638 1.391 . S
C637 C636 1.386 . S
C637 C641 1.393 . S
C638 H630 0.950 . S
C638 C636 1.391 . S
C638 C639 1.400 . S
C639 C638 1.400 . S
C639 C640 1.398 . S
C639 C645 1.491 1_556 S
C640 H631 0.950 . S
C640 C639 1.398 . S
C640 C641 1.391 . S
C641 H629 0.950 . S
C641 C637 1.393 . S
C641 C640 1.391 . S
C642 H632 0.950 . S
C642 C643 1.386 . S
C642 C644 1.391 . S
C643 C642 1.386 . S
C643 C647 1.393 . S
C644 H633 0.950 . S
C644 C642 1.391 . S
C644 C645 1.400 . S
C645 C639 1.491 1_554 S
C645 C644 1.400 . S
C645 C646 1.398 . S
C646 H634 0.950 . S
C646 C645 1.398 . S
C646 C647 1.391 . S
C647 H635 0.950 . S
C647 C643 1.393 . S
C647 C646 1.391 . S
H648 C656 0.950 . S
H649 C661 0.950 . S
H650 C658 0.950 . S
H651 C660 0.950 . S
H652 C662 0.950 . S
H653 C664 0.950 . S
H654 C666 0.950 . S
H655 C667 0.950 . S
C656 H648 0.950 . S
C656 C657 1.386 . S
C656 C658 1.391 . S
C657 C656 1.386 . S
C657 C661 1.393 . S
C658 H650 0.950 . S
C658 C656 1.391 . S
C658 C659 1.400 . S
C659 C658 1.400 . S
C659 C660 1.398 . S
C659 C665 1.491 1_556 S
C660 H651 0.950 . S
C660 C659 1.398 . S
C660 C661 1.391 . S
C661 H649 0.950 . S
C661 C657 1.393 . S
C661 C660 1.391 . S
C662 H652 0.950 . S
C662 C663 1.386 . S
C662 C664 1.391 . S
C663 C662 1.386 . S
C663 C667 1.393 . S
C664 H653 0.950 . S
C664 C662 1.391 . S
C664 C665 1.400 . S
C665 C659 1.491 1_554 S
C665 C664 1.400 . S
C665 C666 1.398 . S
C666 H654 0.950 . S
C666 C665 1.398 . S
C666 C667 1.391 . S
C667 H655 0.950 . S
C667 C663 1.393 . S
C667 C666 1.391 . S
H668 C676 0.950 . S
H669 C681 0.950 . S
H670 C678 0.950 . S
H671 C680 0.950 . S
H672 C682 0.950 . S
H673 C684 0.950 . S
H674 C686 0.950 . S
H675 C687 0.950 . S
C676 H668 0.950 . S
C676 C677 1.386 . S
C676 C678 1.391 . S
C677 C676 1.386 . S
C677 C681 1.393 . S
C678 H670 0.950 . S
C678 C676 1.391 . S
C678 C679 1.400 . S
C679 C678 1.400 . S
C679 C680 1.398 . S
C679 C685 1.491 1_554 S
C680 H671 0.950 . S
C680 C679 1.398 . S
C680 C681 1.391 . S
C681 H669 0.950 . S
C681 C677 1.393 . S
C681 C680 1.391 . S
C682 H672 0.950 . S
C682 C683 1.386 . S
C682 C684 1.391 . S
C683 C682 1.386 . S
C683 C687 1.393 . S
C684 H673 0.950 . S
C684 C682 1.391 . S
C684 C685 1.400 . S
C685 C679 1.491 1_556 S
C685 C684 1.400 . S
C685 C686 1.398 . S
C686 H674 0.950 . S
C686 C685 1.398 . S
C686 C687 1.391 . S
C687 H675 0.950 . S
C687 C683 1.393 . S
C687 C686 1.391 . S
H688 C696 0.950 . S
H689 C701 0.950 . S
H690 C698 0.950 . S
H691 C700 0.950 . S
H692 C702 0.950 . S
H693 C704 0.950 . S
H694 C706 0.950 . S
H695 C707 0.950 . S
C696 H688 0.950 . S
C696 C697 1.386 . S
C696 C698 1.391 . S
C697 C696 1.386 . S
C697 C701 1.393 . S
C698 H690 0.950 . S
C698 C696 1.391 . S
C698 C699 1.400 . S
C699 C698 1.400 . S
C699 C700 1.398 . S
C699 C705 1.491 . S
C700 H691 0.950 . S
C700 C699 1.398 . S
C700 C701 1.391 . S
C701 H689 0.950 . S
C701 C697 1.393 . S
C701 C700 1.391 . S
C702 H692 0.950 . S
C702 C703 1.386 . S
C702 C704 1.391 . S
C703 C702 1.386 . S
C703 C707 1.393 . S
C704 H693 0.950 . S
C704 C702 1.391 . S
C704 C705 1.400 . S
C705 C699 1.491 . S
C705 C704 1.400 . S
C705 C706 1.398 . S
C706 H694 0.950 . S
C706 C705 1.398 . S
C706 C707 1.391 . S
C707 H695 0.950 . S
C707 C703 1.393 . S
C707 C706 1.391 . S
H708 C716 0.950 . S
H709 C721 0.950 . S
H710 C718 0.950 . S
H711 C720 0.950 . S
H712 C722 0.950 . S
H713 C724 0.950 . S
H714 C726 0.950 . S
H715 C727 0.950 . S
C716 H708 0.950 . S
C716 C717 1.386 . S
C716 C718 1.391 . S
C717 C716 1.386 . S
C717 C721 1.393 . S
C718 H710 0.950 . S
C718 C716 1.391 . S
C718 C719 1.400 . S
C719 C718 1.400 . S
C719 C720 1.398 . S
C719 C725 1.491 . S
C720 H711 0.950 . S
C720 C719 1.398 . S
C720 C721 1.391 . S
C721 H709 0.950 . S
C721 C717 1.393 . S
C721 C720 1.391 . S
C722 H712 0.950 . S
C722 C723 1.386 . S
C722 C724 1.391 . S
C723 C722 1.386 . S
C723 C727 1.393 . S
C724 H713 0.950 . S
C724 C722 1.391 . S
C724 C725 1.400 . S
C725 C719 1.491 . S
C725 C724 1.400 . S
C725 C726 1.398 . S
C726 H714 0.950 . S
C726 C725 1.398 . S
C726 C727 1.391 . S
C727 H715 0.950 . S
C727 C723 1.393 . S
C727 C726 1.391 . S
H728 C736 0.950 . S
H729 C741 0.950 . S
H730 C738 0.950 . S
H731 C740 0.950 . S
H732 C742 0.950 . S
H733 C744 0.950 . S
H734 C746 0.950 . S
H735 C747 0.943 1_455 S
C736 H728 0.950 . S
C736 C737 1.386 . S
C736 C738 1.391 . S
C737 C736 1.386 . S
C737 C741 1.393 . S
C738 H730 0.950 . S
C738 C736 1.391 . S
C738 C739 1.400 . S
C739 C738 1.400 . S
C739 C740 1.398 . S
C739 C745 1.491 . S
C740 H731 0.950 . S
C740 C739 1.398 . S
C740 C741 1.391 . S
C741 H729 0.950 . S
C741 C737 1.393 . S
C741 C740 1.391 . S
C742 H732 0.950 . S
C742 C743 1.371 1_655 S
C742 C744 1.391 . S
C743 C742 1.371 1_455 S
C743 C747 1.383 1_455 S
C744 H733 0.950 . S
C744 C742 1.391 . S
C744 C745 1.400 . S
C745 C739 1.491 . S
C745 C744 1.400 . S
C745 C746 1.398 . S
C746 H734 0.950 . S
C746 C745 1.398 . S
C746 C747 1.391 . S
C747 H735 0.943 1_655 S
C747 C743 1.383 1_655 S
C747 C746 1.391 . S
H748 C756 0.950 1_545 S
H749 C761 0.950 . S
H750 C758 0.950 . S
H751 C760 0.950 . S
H752 C762 0.950 . S
H753 C764 0.950 . S
H754 C766 0.950 . S
H755 C767 0.950 . S
C756 H748 0.950 1_565 S
C756 C757 1.381 1_565 S
C756 C758 1.391 . S
C757 C756 1.381 1_545 S
C757 C761 1.372 1_545 S
C758 H750 0.950 . S
C758 C756 1.391 . S
C758 C759 1.400 . S
C759 C758 1.400 . S
C759 C760 1.398 . S
C759 C765 1.491 . S
C760 H751 0.950 . S
C760 C759 1.398 . S
C760 C761 1.391 . S
C761 H749 0.950 . S
C761 C757 1.372 1_565 S
C761 C760 1.391 . S
C762 H752 0.950 . S
C762 C763 1.386 . S
C762 C764 1.391 . S
C763 C762 1.386 . S
C763 C767 1.393 . S
C764 H753 0.950 . S
C764 C762 1.391 . S
C764 C765 1.400 . S
C765 C759 1.491 . S
C765 C764 1.400 . S
C765 C766 1.398 . S
C766 H754 0.950 . S
C766 C765 1.398 . S
C766 C767 1.391 . S
C767 H755 0.950 . S
C767 C763 1.393 . S
C767 C766 1.391 . S
H768 C776 0.950 . S
H769 C781 0.950 . S
H770 C778 0.950 . S
H771 C780 0.950 . S
H772 C782 0.950 . S
H773 C784 0.950 . S
H774 C786 0.950 . S
H775 C787 0.950 . S
C776 H768 0.950 . S
C776 C777 1.386 . S
C776 C778 1.391 . S
C777 C776 1.386 . S
C777 C781 1.393 . S
C778 H770 0.950 . S
C778 C776 1.391 . S
C778 C779 1.400 . S
C779 C778 1.400 . S
C779 C780 1.398 . S
C779 C785 1.491 . S
C780 H771 0.950 . S
C780 C779 1.398 . S
C780 C781 1.391 . S
C781 H769 0.950 . S
C781 C777 1.393 . S
C781 C780 1.391 . S
C782 H772 0.950 . S
C782 C783 1.386 . S
C782 C784 1.391 . S
C783 C782 1.386 . S
C783 C787 1.393 . S
C784 H773 0.950 . S
C784 C782 1.391 . S
C784 C785 1.400 . S
C785 C779 1.491 . S
C785 C784 1.400 . S
C785 C786 1.398 . S
C786 H774 0.950 . S
C786 C785 1.398 . S
C786 C787 1.391 . S
C787 H775 0.950 . S
C787 C783 1.393 . S
C787 C786 1.391 . S
H788 C796 0.950 . S
H789 C801 0.950 . S
H790 C798 0.950 . S
H791 C800 0.950 . S
H792 C802 0.950 . S
H793 C804 0.950 . S
H794 C806 0.950 . S
H795 C807 0.950 . S
C796 H788 0.950 . S
C796 C797 1.386 . S
C796 C798 1.391 . S
C797 C796 1.386 . S
C797 C801 1.393 . S
C798 H790 0.950 . S
C798 C796 1.391 . S
C798 C799 1.400 . S
C799 C798 1.400 . S
C799 C800 1.398 . S
C799 C805 1.491 . S
C800 H791 0.950 . S
C800 C799 1.398 . S
C800 C801 1.391 . S
C801 H789 0.950 . S
C801 C797 1.393 . S
C801 C800 1.391 . S
C802 H792 0.950 . S
C802 C803 1.386 . S
C802 C804 1.391 . S
C803 C802 1.386 . S
C803 C807 1.393 . S
C804 H793 0.950 . S
C804 C802 1.391 . S
C804 C805 1.400 . S
C805 C799 1.491 . S
C805 C804 1.400 . S
C805 C806 1.398 . S
C806 H794 0.950 . S
C806 C805 1.398 . S
C806 C807 1.391 . S
C807 H795 0.950 . S
C807 C803 1.393 . S
C807 C806 1.391 . S
H808 C816 0.950 . S
H809 C821 0.950 . S
H810 C818 0.950 . S
H811 C820 0.950 . S
H812 C822 0.950 . S
H813 C824 0.950 . S
H814 C826 0.950 . S
H815 C827 0.936 1_455 S
C816 H808 0.950 . S
C816 C817 1.386 . S
C816 C818 1.391 . S
C817 C816 1.386 . S
C817 C821 1.393 . S
C818 H810 0.950 . S
C818 C816 1.391 . S
C818 C819 1.400 . S
C819 C818 1.400 . S
C819 C820 1.398 . S
C819 C825 1.491 . S
C820 H811 0.950 . S
C820 C819 1.398 . S
C820 C821 1.391 . S
C821 H809 0.950 . S
C821 C817 1.393 . S
C821 C820 1.391 . S
C822 H812 0.950 . S
C822 C823 1.371 1_655 S
C822 C824 1.391 . S
C823 C822 1.371 1_455 S
C823 C827 1.383 1_455 S
C824 H813 0.950 . S
C824 C822 1.391 . S
C824 C825 1.400 . S
C825 C819 1.491 . S
C825 C824 1.400 . S
C825 C826 1.398 . S
C826 H814 0.950 . S
C826 C825 1.398 . S
C826 C827 1.391 . S
C827 H815 0.936 1_655 S
C827 C823 1.383 1_655 S
C827 C826 1.391 . S
H828 C836 0.950 . S
H829 C841 0.950 . S
H830 C838 0.950 . S
H831 C840 0.950 . S
H832 C842 0.950 . S
H833 C844 0.950 . S
H834 C846 0.950 . S
H835 C847 0.950 . S
C836 H828 0.950 . S
C836 C837 1.386 . S
C836 C838 1.391 . S
C837 C836 1.386 . S
C837 C841 1.393 . S
C838 H830 0.950 . S
C838 C836 1.391 . S
C838 C839 1.400 . S
C839 C838 1.400 . S
C839 C840 1.398 . S
C839 C845 1.491 . S
C840 H831 0.950 . S
C840 C839 1.398 . S
C840 C841 1.391 . S
C841 H829 0.950 . S
C841 C837 1.393 . S
C841 C840 1.391 . S
C842 H832 0.950 . S
C842 C843 1.386 1_565 S
C842 C844 1.391 . S
C843 C842 1.386 1_545 S
C843 C847 1.393 . S
C844 H833 0.950 . S
C844 C842 1.391 . S
C844 C845 1.400 . S
C845 C839 1.491 . S
C845 C844 1.400 . S
C845 C846 1.398 . S
C846 H834 0.950 . S
C846 C845 1.398 . S
C846 C847 1.391 1_565 S
C847 H835 0.950 . S
C847 C843 1.393 . S
C847 C846 1.391 1_545 S
H848 C856 0.950 . S
H849 C861 0.950 . S
H850 C858 0.950 . S
H851 C860 0.950 . S
H852 C862 0.950 . S
H853 C864 0.950 . S
H854 C866 0.950 . S
H855 C867 0.950 . S
C856 H848 0.950 . S
C856 C857 1.386 . S
C856 C858 1.391 . S
C857 C856 1.386 . S
C857 C861 1.393 . S
C858 H850 0.950 . S
C858 C856 1.391 . S
C858 C859 1.400 . S
C859 C858 1.400 . S
C859 C860 1.398 . S
C859 C865 1.491 . S
C860 H851 0.950 . S
C860 C859 1.398 . S
C860 C861 1.391 . S
C861 H849 0.950 . S
C861 C857 1.393 . S
C861 C860 1.391 . S
C862 H852 0.950 . S
C862 C863 1.386 . S
C862 C864 1.391 . S
C863 C862 1.386 . S
C863 C867 1.393 . S
C864 H853 0.950 . S
C864 C862 1.391 . S
C864 C865 1.400 . S
C865 C859 1.491 . S
C865 C864 1.400 . S
C865 C866 1.398 . S
C866 H854 0.950 . S
C866 C865 1.398 . S
C866 C867 1.391 . S
C867 H855 0.950 . S
C867 C863 1.393 . S
C867 C866 1.391 . S
H868 C876 0.950 . S
H869 C881 0.950 . S
H870 C878 0.950 . S
H871 C880 0.950 . S
H872 C882 0.950 . S
H873 C884 0.950 . S
H874 C886 0.950 . S
H875 C887 0.950 . S
C876 H868 0.950 . S
C876 C877 1.386 . S
C876 C878 1.391 . S
C877 C876 1.386 . S
C877 C881 1.393 . S
C878 H870 0.950 . S
C878 C876 1.391 . S
C878 C879 1.400 . S
C879 C878 1.400 . S
C879 C880 1.398 . S
C879 C885 1.491 . S
C880 H871 0.950 . S
C880 C879 1.398 . S
C880 C881 1.391 . S
C881 H869 0.950 . S
C881 C877 1.393 . S
C881 C880 1.391 . S
C882 H872 0.950 . S
C882 C883 1.386 . S
C882 C884 1.391 . S
C883 C882 1.386 . S
C883 C887 1.393 . S
C884 H873 0.950 . S
C884 C882 1.391 . S
C884 C885 1.400 . S
C885 C879 1.491 . S
C885 C884 1.400 . S
C885 C886 1.398 . S
C886 H874 0.950 . S
C886 C885 1.398 . S
C886 C887 1.391 . S
C887 H875 0.950 . S
C887 C883 1.393 . S
C887 C886 1.391 . S
H888 C896 0.950 . S
H889 C901 0.950 . S
H890 C898 0.950 . S
H891 C900 0.950 . S
H892 C902 0.950 . S
H893 C904 0.950 . S
H894 C906 0.950 . S
H895 C907 0.950 . S
C896 H888 0.950 . S
C896 C897 1.386 . S
C896 C898 1.391 . S
C897 C896 1.386 . S
C897 C901 1.393 . S
C898 H890 0.950 . S
C898 C896 1.391 . S
C898 C899 1.400 . S
C899 C898 1.400 . S
C899 C900 1.398 . S
C899 C905 1.491 . S
C900 H891 0.950 . S
C900 C899 1.398 . S
C900 C901 1.391 . S
C901 H889 0.950 . S
C901 C897 1.393 . S
C901 C900 1.391 . S
C902 H892 0.950 . S
C902 C903 1.386 . S
C902 C904 1.391 . S
C903 C902 1.386 . S
C903 C907 1.393 . S
C904 H893 0.950 . S
C904 C902 1.391 . S
C904 C905 1.400 . S
C905 C899 1.491 . S
C905 C904 1.400 . S
C905 C906 1.398 . S
C906 H894 0.950 . S
C906 C905 1.398 . S
C906 C907 1.391 . S
C907 H895 0.950 . S
C907 C903 1.393 . S
C907 C906 1.391 . S
H908 C916 0.950 . S
H909 C921 0.950 . S
H910 C918 0.950 . S
H911 C920 0.950 . S
H912 C922 0.950 . S
H913 C924 0.950 . S
H914 C926 0.950 . S
H915 C927 0.950 . S
C916 H908 0.950 . S
C916 C917 1.386 . S
C916 C918 1.391 . S
C917 C916 1.386 . S
C917 C921 1.393 . S
C918 H910 0.950 . S
C918 C916 1.391 . S
C918 C919 1.400 . S
C919 C918 1.400 . S
C919 C920 1.398 . S
C919 C925 1.491 . S
C920 H911 0.950 . S
C920 C919 1.398 . S
C920 C921 1.391 . S
C921 H909 0.950 . S
C921 C917 1.393 . S
C921 C920 1.391 . S
C922 H912 0.950 . S
C922 C923 1.386 . S
C922 C924 1.391 . S
C923 C922 1.386 . S
C923 C927 1.393 . S
C924 H913 0.950 . S
C924 C922 1.391 . S
C924 C925 1.400 . S
C925 C919 1.491 . S
C925 C924 1.400 . S
C925 C926 1.398 . S
C926 H914 0.950 . S
C926 C925 1.398 . S
C926 C927 1.391 . S
C927 H915 0.950 . S
C927 C923 1.393 . S
C927 C926 1.391 . S
H928 C936 0.950 . S
H929 C941 0.950 . S
H930 C938 0.950 . S
H931 C940 0.950 . S
H932 C942 0.950 . S
H933 C944 0.950 . S
H934 C946 0.950 . S
H935 C947 0.950 . S
C936 H928 0.950 . S
C936 C937 1.386 . S
C936 C938 1.391 . S
C937 C936 1.386 . S
C937 C941 1.393 . S
C938 H930 0.950 . S
C938 C936 1.391 . S
C938 C939 1.400 . S
C939 C938 1.400 . S
C939 C940 1.398 . S
C939 C945 1.491 . S
C940 H931 0.950 . S
C940 C939 1.398 . S
C940 C941 1.391 . S
C941 H929 0.950 . S
C941 C937 1.393 . S
C941 C940 1.391 . S
C942 H932 0.950 . S
C942 C943 1.386 . S
C942 C944 1.391 . S
C943 C942 1.386 . S
C943 C947 1.393 . S
C944 H933 0.950 . S
C944 C942 1.391 . S
C944 C945 1.400 . S
C945 C939 1.491 . S
C945 C944 1.400 . S
C945 C946 1.398 . S
C946 H934 0.950 . S
C946 C945 1.398 . S
C946 C947 1.391 . S
C947 H935 0.950 . S
C947 C943 1.393 . S
C947 C946 1.391 . S
H948 C956 0.950 . S
H949 C961 0.950 . S
H950 C958 0.950 . S
H951 C960 0.950 . S
H952 C962 0.950 . S
H953 C964 0.950 . S
H954 C966 0.950 . S
H955 C967 0.950 . S
C956 H948 0.950 . S
C956 C957 1.386 . S
C956 C958 1.391 . S
C957 C956 1.386 . S
C957 C961 1.393 . S
C958 H950 0.950 . S
C958 C956 1.391 . S
C958 C959 1.400 . S
C959 C958 1.400 . S
C959 C960 1.398 . S
C959 C965 1.491 . S
C960 H951 0.950 . S
C960 C959 1.398 . S
C960 C961 1.391 . S
C961 H949 0.950 . S
C961 C957 1.393 . S
C961 C960 1.391 . S
C962 H952 0.950 . S
C962 C963 1.386 . S
C962 C964 1.391 . S
C963 C962 1.386 . S
C963 C967 1.393 . S
C964 H953 0.950 . S
C964 C962 1.391 . S
C964 C965 1.400 . S
C965 C959 1.491 . S
C965 C964 1.400 . S
C965 C966 1.398 . S
C966 H954 0.950 . S
C966 C965 1.398 . S
C966 C967 1.391 . S
C967 H955 0.950 . S
C967 C963 1.393 . S
C967 C966 1.391 . S
H968 C976 0.950 . S
H969 C981 0.950 . S
H970 C978 0.950 . S
H971 C980 0.950 . S
H972 C982 0.950 . S
H973 C984 0.950 . S
H974 C986 0.950 . S
H975 C987 0.950 . S
C976 H968 0.950 . S
C976 C977 1.386 . S
C976 C978 1.391 . S
C977 C976 1.386 . S
C977 C981 1.393 . S
C978 H970 0.950 . S
C978 C976 1.391 . S
C978 C979 1.400 . S
C979 C978 1.400 . S
C979 C980 1.398 . S
C979 C985 1.491 . S
C980 H971 0.950 . S
C980 C979 1.398 . S
C980 C981 1.391 . S
C981 H969 0.950 . S
C981 C977 1.393 . S
C981 C980 1.391 . S
C982 H972 0.950 . S
C982 C983 1.386 . S
C982 C984 1.391 . S
C983 C982 1.386 . S
C983 C987 1.393 . S
C984 H973 0.950 . S
C984 C982 1.391 . S
C984 C985 1.400 . S
C985 C979 1.491 . S
C985 C984 1.400 . S
C985 C986 1.398 . S
C986 H974 0.950 . S
C986 C985 1.398 . S
C986 C987 1.391 . S
C987 H975 0.950 . S
C987 C983 1.393 . S
C987 C986 1.391 . S
H988 C996 0.950 . S
H989 C1001 0.950 . S
H990 C998 0.950 . S
H991 C1000 0.950 . S
H992 C1002 0.950 . S
H993 C1004 0.950 . S
H994 C1006 0.950 . S
H995 C1007 0.950 . S
C996 H988 0.950 . S
C996 C997 1.386 . S
C996 C998 1.391 . S
C997 C996 1.386 . S
C997 C1001 1.393 . S
C998 H990 0.950 . S
C998 C996 1.391 . S
C998 C999 1.400 . S
C999 C998 1.400 . S
C999 C1000 1.398 . S
C999 C1005 1.491 . S
C1000 H991 0.950 . S
C1000 C999 1.398 . S
C1000 C1001 1.391 . S
C1001 H989 0.950 . S
C1001 C997 1.393 . S
C1001 C1000 1.391 . S
C1002 H992 0.950 . S
C1002 C1003 1.386 . S
C1002 C1004 1.391 . S
C1003 C1002 1.386 . S
C1003 C1007 1.393 . S
C1004 H993 0.950 . S
C1004 C1002 1.391 . S
C1004 C1005 1.400 . S
C1005 C999 1.491 . S
C1005 C1004 1.400 . S
C1005 C1006 1.398 . S
C1006 H994 0.950 . S
C1006 C1005 1.398 . S
C1006 C1007 1.391 . S
C1007 H995 0.950 . S
C1007 C1003 1.393 . S
C1007 C1006 1.391 . S
H1008 C1016 0.950 . S
H1009 C1021 0.950 . S
H1010 C1018 0.950 . S
H1011 C1020 0.950 . S
H1012 C1022 0.950 . S
H1013 C1024 0.950 . S
H1014 C1026 0.950 . S
H1015 C1027 0.950 . S
C1016 H1008 0.950 . S
C1016 C1017 1.386 . S
C1016 C1018 1.391 . S
C1017 C1016 1.386 . S
C1017 C1021 1.393 . S
C1018 H1010 0.950 . S
C1018 C1016 1.391 . S
C1018 C1019 1.400 . S
C1019 C1018 1.400 . S
C1019 C1020 1.398 . S
C1019 C1025 1.491 . S
C1020 H1011 0.950 . S
C1020 C1019 1.398 . S
C1020 C1021 1.391 . S
C1021 H1009 0.950 . S
C1021 C1017 1.393 . S
C1021 C1020 1.391 . S
C1022 H1012 0.950 . S
C1022 C1023 1.386 . S
C1022 C1024 1.391 . S
C1023 C1022 1.386 . S
C1023 C1027 1.393 . S
C1024 H1013 0.950 . S
C1024 C1022 1.391 . S
C1024 C1025 1.400 . S
C1025 C1019 1.491 . S
C1025 C1024 1.400 . S
C1025 C1026 1.398 . S
C1026 H1014 0.950 . S
C1026 C1025 1.398 . S
C1026 C1027 1.391 . S
C1027 H1015 0.950 . S
C1027 C1023 1.393 . S
C1027 C1026 1.391 . S
H1028 C1036 0.950 . S
H1029 C1041 0.950 . S
H1030 C1038 0.950 . S
H1031 C1040 0.950 . S
H1032 C1042 0.950 . S
H1033 C1044 0.950 . S
H1034 C1046 0.950 . S
H1035 C1047 0.950 . S
C1036 H1028 0.950 . S
C1036 C1037 1.386 . S
C1036 C1038 1.391 . S
C1037 C1036 1.386 . S
C1037 C1041 1.393 . S
C1038 H1030 0.950 . S
C1038 C1036 1.391 . S
C1038 C1039 1.400 . S
C1039 C1038 1.400 . S
C1039 C1040 1.398 . S
C1039 C1045 1.491 . S
C1040 H1031 0.950 . S
C1040 C1039 1.398 . S
C1040 C1041 1.391 . S
C1041 H1029 0.950 . S
C1041 C1037 1.393 . S
C1041 C1040 1.391 . S
C1042 H1032 0.950 . S
C1042 C1043 1.386 . S
C1042 C1044 1.391 . S
C1043 C1042 1.386 . S
C1043 C1047 1.393 . S
C1044 H1033 0.950 . S
C1044 C1042 1.391 . S
C1044 C1045 1.400 . S
C1045 C1039 1.491 . S
C1045 C1044 1.400 . S
C1045 C1046 1.398 . S
C1046 H1034 0.950 . S
C1046 C1045 1.398 . S
C1046 C1047 1.391 . S
C1047 H1035 0.950 . S
C1047 C1043 1.393 . S
C1047 C1046 1.391 . S
H1048 C1056 0.950 . S
H1049 C1061 0.950 . S
H1050 C1058 0.950 . S
H1051 C1060 0.950 . S
H1052 C1062 0.950 . S
H1053 C1064 0.950 . S
H1054 C1066 0.950 . S
H1055 C1067 0.950 . S
C1056 H1048 0.950 . S
C1056 C1057 1.386 . S
C1056 C1058 1.391 . S
C1057 C1056 1.386 . S
C1057 C1061 1.393 . S
C1058 H1050 0.950 . S
C1058 C1056 1.391 . S
C1058 C1059 1.400 . S
C1059 C1058 1.400 . S
C1059 C1060 1.398 . S
C1059 C1065 1.491 . S
C1060 H1051 0.950 . S
C1060 C1059 1.398 . S
C1060 C1061 1.391 . S
C1061 H1049 0.950 . S
C1061 C1057 1.393 . S
C1061 C1060 1.391 . S
C1062 H1052 0.950 . S
C1062 C1063 1.386 . S
C1062 C1064 1.391 . S
C1063 C1062 1.386 . S
C1063 C1067 1.393 . S
C1064 H1053 0.950 . S
C1064 C1062 1.391 . S
C1064 C1065 1.400 . S
C1065 C1059 1.491 . S
C1065 C1064 1.400 . S
C1065 C1066 1.398 . S
C1066 H1054 0.950 . S
C1066 C1065 1.398 . S
C1066 C1067 1.391 . S
C1067 H1055 0.950 . S
C1067 C1063 1.393 . S
C1067 C1066 1.391 . S
H1068 C1076 0.950 . S
H1069 C1081 0.950 1_545 S
H1070 C1078 0.950 . S
H1071 C1080 0.950 . S
H1072 C1082 0.950 . S
H1073 C1084 0.950 . S
H1074 C1086 0.950 . S
H1075 C1087 0.950 . S
C1076 H1068 0.950 . S
C1076 C1077 1.386 . S
C1076 C1078 1.391 . S
C1077 C1076 1.386 . S
C1077 C1081 1.393 . S
C1078 H1070 0.950 . S
C1078 C1076 1.391 . S
C1078 C1079 1.400 . S
C1079 C1078 1.400 . S
C1079 C1080 1.398 . S
C1079 C1085 1.491 . S
C1080 H1071 0.950 . S
C1080 C1079 1.398 . S
C1080 C1081 1.391 . S
C1081 H1069 0.950 1_565 S
C1081 C1077 1.393 . S
C1081 C1080 1.391 . S
C1082 H1072 0.950 . S
C1082 C1083 1.386 . S
C1082 C1084 1.391 . S
C1083 C1082 1.386 . S
C1083 C1087 1.393 . S
C1084 H1073 0.950 . S
C1084 C1082 1.391 . S
C1084 C1085 1.400 . S
C1085 C1079 1.491 . S
C1085 C1084 1.400 . S
C1085 C1086 1.398 . S
C1086 H1074 0.950 . S
C1086 C1085 1.398 . S
C1086 C1087 1.391 . S
C1087 H1075 0.950 . S
C1087 C1083 1.393 . S
C1087 C1086 1.391 . S
H1088 C1096 0.950 . S
H1089 C1101 0.950 . S
H1090 C1098 0.950 . S
H1091 C1100 0.950 . S
H1092 C1102 0.950 . S
H1093 C1104 0.950 . S
H1094 C1106 0.950 . S
H1095 C1107 0.950 . S
C1096 H1088 0.950 . S
C1096 C1097 1.386 . S
C1096 C1098 1.391 . S
C1097 C1096 1.386 . S
C1097 C1101 1.393 . S
C1098 H1090 0.950 . S
C1098 C1096 1.391 . S
C1098 C1099 1.400 . S
C1099 C1098 1.400 . S
C1099 C1100 1.398 . S
C1099 C1105 1.491 . S
C1100 H1091 0.950 . S
C1100 C1099 1.398 . S
C1100 C1101 1.391 . S
C1101 H1089 0.950 . S
C1101 C1097 1.393 . S
C1101 C1100 1.391 . S
C1102 H1092 0.950 . S
C1102 C1103 1.386 . S
C1102 C1104 1.391 . S
C1103 C1102 1.386 . S
C1103 C1107 1.393 . S
C1104 H1093 0.950 . S
C1104 C1102 1.391 . S
C1104 C1105 1.400 . S
C1105 C1099 1.491 . S
C1105 C1104 1.400 . S
C1105 C1106 1.398 . S
C1106 H1094 0.950 . S
C1106 C1105 1.398 . S
C1106 C1107 1.391 . S
C1107 H1095 0.950 . S
C1107 C1103 1.393 . S
C1107 C1106 1.391 . S
H1108 C1116 0.950 . S
H1109 C1121 0.950 . S
H1110 C1118 0.950 . S
H1111 C1120 0.950 . S
H1112 C1122 0.950 . S
H1113 C1124 0.950 . S
H1114 C1126 0.950 . S
H1115 C1127 0.950 . S
C1116 H1108 0.950 . S
C1116 C1117 1.386 . S
C1116 C1118 1.391 . S
C1117 C1116 1.386 . S
C1117 C1121 1.393 . S
C1118 H1110 0.950 . S
C1118 C1116 1.391 . S
C1118 C1119 1.400 . S
C1119 C1118 1.400 . S
C1119 C1120 1.398 . S
C1119 C1125 1.491 . S
C1120 H1111 0.950 . S
C1120 C1119 1.398 . S
C1120 C1121 1.391 . S
C1121 H1109 0.950 . S
C1121 C1117 1.393 . S
C1121 C1120 1.391 . S
C1122 H1112 0.950 . S
C1122 C1123 1.386 . S
C1122 C1124 1.391 . S
C1123 C1122 1.386 . S
C1123 C1127 1.393 . S
C1124 H1113 0.950 . S
C1124 C1122 1.391 . S
C1124 C1125 1.400 . S
C1125 C1119 1.491 . S
C1125 C1124 1.400 . S
C1125 C1126 1.398 . S
C1126 H1114 0.950 . S
C1126 C1125 1.398 . S
C1126 C1127 1.391 . S
C1127 H1115 0.950 . S
C1127 C1123 1.393 . S
C1127 C1126 1.391 . S
H1128 C1136 0.950 . S
H1129 C1141 0.950 1_455 S
H1130 C1138 0.950 . S
H1131 C1140 0.950 . S
H1132 C1142 0.950 . S
H1133 C1144 0.950 . S
H1134 C1146 0.950 . S
H1135 C1147 0.950 . S
C1136 H1128 0.950 . S
C1136 C1137 1.386 . S
C1136 C1138 1.391 . S
C1137 C1136 1.386 . S
C1137 C1141 1.393 . S
C1138 H1130 0.950 . S
C1138 C1136 1.391 . S
C1138 C1139 1.400 . S
C1139 C1138 1.400 . S
C1139 C1140 1.398 . S
C1139 C1145 1.491 . S
C1140 H1131 0.950 . S
C1140 C1139 1.398 . S
C1140 C1141 1.391 . S
C1141 H1129 0.950 1_655 S
C1141 C1137 1.393 . S
C1141 C1140 1.391 . S
C1142 H1132 0.950 . S
C1142 C1143 1.386 . S
C1142 C1144 1.391 . S
C1143 C1142 1.386 . S
C1143 C1147 1.393 . S
C1144 H1133 0.950 . S
C1144 C1142 1.391 . S
C1144 C1145 1.400 . S
C1145 C1139 1.491 . S
C1145 C1144 1.400 . S
C1145 C1146 1.398 . S
C1146 H1134 0.950 . S
C1146 C1145 1.398 . S
C1146 C1147 1.391 . S
C1147 H1135 0.950 . S
C1147 C1143 1.393 . S
C1147 C1146 1.391 . S
H1148 C1156 0.950 . S
H1149 C1161 0.950 . S
H1150 C1158 0.950 . S
H1151 C1160 0.950 . S
H1152 C1162 0.950 . S
H1153 C1164 0.950 . S
H1154 C1166 0.950 . S
H1155 C1167 0.950 . S
C1156 H1148 0.950 . S
C1156 C1157 1.386 . S
C1156 C1158 1.391 . S
C1157 C1156 1.386 . S
C1157 C1161 1.393 . S
C1158 H1150 0.950 . S
C1158 C1156 1.391 . S
C1158 C1159 1.400 . S
C1159 C1158 1.400 . S
C1159 C1160 1.398 . S
C1159 C1165 1.491 . S
C1160 H1151 0.950 . S
C1160 C1159 1.398 . S
C1160 C1161 1.391 . S
C1161 H1149 0.950 . S
C1161 C1157 1.393 . S
C1161 C1160 1.391 . S
C1162 H1152 0.950 . S
C1162 C1163 1.386 . S
C1162 C1164 1.391 . S
C1163 C1162 1.386 . S
C1163 C1167 1.393 . S
C1164 H1153 0.950 . S
C1164 C1162 1.391 . S
C1164 C1165 1.400 . S
C1165 C1159 1.491 . S
C1165 C1164 1.400 . S
C1165 C1166 1.398 . S
C1166 H1154 0.950 . S
C1166 C1165 1.398 . S
C1166 C1167 1.391 . S
C1167 H1155 0.950 . S
C1167 C1163 1.393 . S
C1167 C1166 1.391 . S
H1168 C1176 0.950 . S
H1169 C1181 0.950 . S
H1170 C1178 0.950 . S
H1171 C1180 0.950 . S
H1172 C1182 0.950 . S
H1173 C1184 0.950 . S
H1174 C1186 0.950 . S
H1175 C1187 0.950 . S
C1176 H1168 0.950 . S
C1176 C1177 1.386 . S
C1176 C1178 1.391 . S
C1177 C1176 1.386 . S
C1177 C1181 1.393 . S
C1178 H1170 0.950 . S
C1178 C1176 1.391 . S
C1178 C1179 1.400 . S
C1179 C1178 1.400 . S
C1179 C1180 1.398 . S
C1179 C1185 1.491 . S
C1180 H1171 0.950 . S
C1180 C1179 1.398 . S
C1180 C1181 1.391 . S
C1181 H1169 0.950 . S
C1181 C1177 1.393 . S
C1181 C1180 1.391 . S
C1182 H1172 0.950 . S
C1182 C1183 1.386 . S
C1182 C1184 1.391 . S
C1183 C1182 1.386 . S
C1183 C1187 1.393 . S
C1184 H1173 0.950 . S
C1184 C1182 1.391 . S
C1184 C1185 1.400 . S
C1185 C1179 1.491 . S
C1185 C1184 1.400 . S
C1185 C1186 1.398 . S
C1186 H1174 0.950 . S
C1186 C1185 1.398 . S
C1186 C1187 1.391 . S
C1187 H1175 0.950 . S
C1187 C1183 1.393 . S
C1187 C1186 1.391 . S
H1188 C1196 0.950 . S
H1189 C1201 0.950 . S
H1190 C1198 0.950 . S
H1191 C1200 0.950 . S
H1192 C1202 0.950 . S
H1193 C1204 0.950 . S
H1194 C1206 0.950 . S
H1195 C1207 0.950 . S
C1196 H1188 0.950 . S
C1196 C1197 1.386 . S
C1196 C1198 1.391 . S
C1197 C1196 1.386 . S
C1197 C1201 1.393 . S
C1198 H1190 0.950 . S
C1198 C1196 1.391 . S
C1198 C1199 1.400 . S
C1199 C1198 1.400 . S
C1199 C1200 1.398 . S
C1199 C1205 1.491 . S
C1200 H1191 0.950 . S
C1200 C1199 1.398 . S
C1200 C1201 1.391 . S
C1201 H1189 0.950 . S
C1201 C1197 1.393 . S
C1201 C1200 1.391 . S
C1202 H1192 0.950 . S
C1202 C1203 1.386 . S
C1202 C1204 1.391 . S
C1203 C1202 1.386 . S
C1203 C1207 1.393 . S
C1204 H1193 0.950 . S
C1204 C1202 1.391 . S
C1204 C1205 1.400 . S
C1205 C1199 1.491 . S
C1205 C1204 1.400 . S
C1205 C1206 1.398 . S
C1206 H1194 0.950 . S
C1206 C1205 1.398 . S
C1206 C1207 1.391 . S
C1207 H1195 0.950 . S
C1207 C1203 1.393 . S
C1207 C1206 1.391 . S
H1208 C1216 0.950 . S
H1209 C1221 0.950 . S
H1210 C1218 0.950 . S
H1211 C1220 0.950 . S
H1212 C1222 0.950 . S
H1213 C1224 0.950 . S
H1214 C1226 0.950 . S
H1215 C1227 0.950 . S
C1216 H1208 0.950 . S
C1216 C1217 1.386 . S
C1216 C1218 1.391 . S
C1217 C1216 1.386 . S
C1217 C1221 1.393 . S
C1218 H1210 0.950 . S
C1218 C1216 1.391 . S
C1218 C1219 1.400 . S
C1219 C1218 1.400 . S
C1219 C1220 1.398 . S
C1219 C1225 1.491 . S
C1220 H1211 0.950 . S
C1220 C1219 1.398 . S
C1220 C1221 1.391 . S
C1221 H1209 0.950 . S
C1221 C1217 1.393 . S
C1221 C1220 1.391 . S
C1222 H1212 0.950 . S
C1222 C1223 1.386 . S
C1222 C1224 1.391 . S
C1223 C1222 1.386 . S
C1223 C1227 1.393 . S
C1224 H1213 0.950 . S
C1224 C1222 1.391 . S
C1224 C1225 1.400 . S
C1225 C1219 1.491 . S
C1225 C1224 1.400 . S
C1225 C1226 1.398 . S
C1226 H1214 0.950 . S
C1226 C1225 1.398 . S
C1226 C1227 1.391 . S
C1227 H1215 0.950 . S
C1227 C1223 1.393 . S
C1227 C1226 1.391 . S
H1228 C1236 0.950 . S
H1229 C1241 0.950 . S
H1230 C1238 0.950 . S
H1231 C1240 0.950 . S
H1232 C1242 0.950 . S
H1233 C1244 0.950 . S
H1234 C1246 0.950 . S
H1235 C1247 0.950 . S
C1236 H1228 0.950 . S
C1236 C1237 1.386 . S
C1236 C1238 1.391 . S
C1237 C1236 1.386 . S
C1237 C1241 1.393 . S
C1238 H1230 0.950 . S
C1238 C1236 1.391 . S
C1238 C1239 1.400 . S
C1239 C1238 1.400 . S
C1239 C1240 1.398 . S
C1239 C1245 1.491 . S
C1240 H1231 0.950 . S
C1240 C1239 1.398 . S
C1240 C1241 1.391 . S
C1241 H1229 0.950 . S
C1241 C1237 1.393 . S
C1241 C1240 1.391 . S
C1242 H1232 0.950 . S
C1242 C1243 1.386 . S
C1242 C1244 1.391 . S
C1243 C1242 1.386 . S
C1243 C1247 1.393 . S
C1244 H1233 0.950 . S
C1244 C1242 1.391 . S
C1244 C1245 1.400 . S
C1245 C1239 1.491 . S
C1245 C1244 1.400 . S
C1245 C1246 1.398 . S
C1246 H1234 0.950 . S
C1246 C1245 1.398 . S
C1246 C1247 1.391 . S
C1247 H1235 0.950 . S
C1247 C1243 1.393 . S
C1247 C1246 1.391 . S
H1248 C1256 0.950 . S
H1249 C1261 0.950 . S
H1250 C1258 0.950 . S
H1251 C1260 0.950 . S
H1252 C1262 0.950 . S
H1253 C1264 0.950 . S
H1254 C1266 0.950 . S
H1255 C1267 0.950 . S
C1256 H1248 0.950 . S
C1256 C1257 1.386 . S
C1256 C1258 1.391 . S
C1257 C1256 1.386 . S
C1257 C1261 1.393 . S
C1258 H1250 0.950 . S
C1258 C1256 1.391 . S
C1258 C1259 1.400 . S
C1259 C1258 1.400 . S
C1259 C1260 1.398 . S
C1259 C1265 1.491 . S
C1260 H1251 0.950 . S
C1260 C1259 1.398 . S
C1260 C1261 1.391 . S
C1261 H1249 0.950 . S
C1261 C1257 1.393 . S
C1261 C1260 1.391 . S
C1262 H1252 0.950 . S
C1262 C1263 1.386 . S
C1262 C1264 1.391 . S
C1263 C1262 1.386 . S
C1263 C1267 1.393 . S
C1264 H1253 0.950 . S
C1264 C1262 1.391 . S
C1264 C1265 1.400 . S
C1265 C1259 1.491 . S
C1265 C1264 1.400 . S
C1265 C1266 1.398 . S
C1266 H1254 0.950 . S
C1266 C1265 1.398 . S
C1266 C1267 1.391 . S
C1267 H1255 0.950 . S
C1267 C1263 1.393 . S
C1267 C1266 1.391 . S
H1268 C1276 0.950 . S
H1269 C1281 0.950 . S
H1270 C1278 0.950 . S
H1271 C1280 0.950 . S
H1272 C1282 0.950 . S
H1273 C1284 0.950 . S
H1274 C1286 0.950 . S
H1275 C1287 0.950 . S
C1276 H1268 0.950 . S
C1276 C1277 1.386 . S
C1276 C1278 1.391 . S
C1277 C1276 1.386 . S
C1277 C1281 1.393 . S
C1278 H1270 0.950 . S
C1278 C1276 1.391 . S
C1278 C1279 1.400 . S
C1279 C1278 1.400 . S
C1279 C1280 1.398 . S
C1279 C1285 1.491 . S
C1280 H1271 0.950 . S
C1280 C1279 1.398 . S
C1280 C1281 1.391 . S
C1281 H1269 0.950 . S
C1281 C1277 1.393 . S
C1281 C1280 1.391 . S
C1282 H1272 0.950 . S
C1282 C1283 1.386 . S
C1282 C1284 1.391 . S
C1283 C1282 1.386 . S
C1283 C1287 1.393 . S
C1284 H1273 0.950 . S
C1284 C1282 1.391 . S
C1284 C1285 1.400 . S
C1285 C1279 1.491 . S
C1285 C1284 1.400 . S
C1285 C1286 1.398 . S
C1286 H1274 0.950 . S
C1286 C1285 1.398 . S
C1286 C1287 1.391 . S
C1287 H1275 0.950 . S
C1287 C1283 1.393 . S
C1287 C1286 1.391 . S
H1288 C1296 0.950 . S
H1289 C1301 0.950 . S
H1290 C1298 0.950 . S
H1291 C1300 0.950 . S
H1292 C1302 0.950 . S
H1293 C1304 0.950 . S
H1294 C1306 0.950 . S
H1295 C1307 0.950 . S
C1296 H1288 0.950 . S
C1296 C1297 1.386 . S
C1296 C1298 1.391 . S
C1297 C1296 1.386 . S
C1297 C1301 1.393 . S
C1298 H1290 0.950 . S
C1298 C1296 1.391 . S
C1298 C1299 1.400 . S
C1299 C1298 1.400 . S
C1299 C1300 1.398 . S
C1299 C1305 1.491 . S
C1300 H1291 0.950 . S
C1300 C1299 1.398 . S
C1300 C1301 1.391 . S
C1301 H1289 0.950 . S
C1301 C1297 1.393 . S
C1301 C1300 1.391 . S
C1302 H1292 0.950 . S
C1302 C1303 1.386 . S
C1302 C1304 1.391 . S
C1303 C1302 1.386 . S
C1303 C1307 1.393 . S
C1304 H1293 0.950 . S
C1304 C1302 1.391 . S
C1304 C1305 1.400 . S
C1305 C1299 1.491 . S
C1305 C1304 1.400 . S
C1305 C1306 1.398 . S
C1306 H1294 0.950 . S
C1306 C1305 1.398 . S
C1306 C1307 1.391 . S
C1307 H1295 0.950 . S
C1307 C1303 1.393 . S
C1307 C1306 1.391 . S
H1308 C1316 0.950 . S
H1309 C1321 0.950 . S
H1310 C1318 0.950 . S
H1311 C1320 0.950 . S
H1312 C1322 0.950 . S
H1313 C1324 0.950 . S
H1314 C1326 0.950 . S
H1315 C1327 0.950 . S
C1316 H1308 0.950 . S
C1316 C1317 1.386 . S
C1316 C1318 1.391 . S
C1317 C1316 1.386 . S
C1317 C1321 1.393 . S
C1318 H1310 0.950 . S
C1318 C1316 1.391 . S
C1318 C1319 1.400 . S
C1319 C1318 1.400 . S
C1319 C1320 1.398 . S
C1319 C1325 1.491 . S
C1320 H1311 0.950 . S
C1320 C1319 1.398 . S
C1320 C1321 1.391 . S
C1321 H1309 0.950 . S
C1321 C1317 1.393 . S
C1321 C1320 1.391 . S
C1322 H1312 0.950 . S
C1322 C1323 1.386 . S
C1322 C1324 1.391 . S
C1323 C1322 1.386 . S
C1323 C1327 1.393 . S
C1324 H1313 0.950 . S
C1324 C1322 1.391 . S
C1324 C1325 1.400 . S
C1325 C1319 1.491 . S
C1325 C1324 1.400 . S
C1325 C1326 1.398 . S
C1326 H1314 0.950 . S
C1326 C1325 1.398 . S
C1326 C1327 1.391 . S
C1327 H1315 0.950 . S
C1327 C1323 1.393 . S
C1327 C1326 1.391 . S
C537 C17 1.512 . S
C543 C215 1.505 . S
C557 C248 1.498 . S
C563 C50 1.512 . S
C577 C149 1.509 . S
C583 C83 1.497 . S
C597 C182 1.506 . S
C603 C116 1.497 . S
C617 C281 1.498 . S
C623 C479 1.502 . S
C637 C314 1.513 . S
C643 C512 1.501 . S
C657 C347 1.510 . S
C663 C413 1.497 . S
C677 C446 1.506 . S
C683 C380 1.497 . S
C697 C28 1.489 . S
C703 N104 1.466 . S
C717 C61 1.485 . S
C723 N5 1.448 . S
C737 N38 1.468 . S
C743 C94 1.500 . S
C757 C127 1.501 . S
C763 N71 1.468 . S
C777 N170 1.447 . S
C783 C160 1.463 . S
C797 N203 1.447 . S
C803 C193 1.463 . S
C817 N236 1.468 . S
C823 C226 1.500 . S
C837 N137 1.465 . S
C843 C259 1.489 . S
C857 C292 1.472 . S
C863 N368 1.438 . S
C877 N269 1.447 . S
C883 C325 1.463 . S
C897 C358 1.463 . S
C903 N302 1.445 . S
C917 C391 1.484 . S
C923 N335 1.470 . S
C937 C424 1.463 . S
C943 N434 1.447 . S
C957 C457 1.487 . S
C963 N467 1.468 . S
C977 C490 1.475 . S
C983 N500 1.439 . S
C997 N401 1.438 . S
C1003 C523 1.471 . S
C1017 N509 1.233 . S
C1023 N14 1.245 . S
C1037 N47 1.230 . S
C1043 N410 1.249 . S
C1057 N443 1.228 . S
C1063 N80 1.237 1_655 S
C1077 N113 1.227 1_565 S
C1083 N476 1.235 . S
C1097 N311 1.252 . S
C1103 N146 1.234 . S
C1117 N179 1.250 . S
C1123 N344 1.229 . S
C1137 N212 1.213 1_655 S
C1143 N377 1.250 . S
C1157 N278 1.228 . S
C1163 N245 1.237 1_565 S
C1177 C140 1.455 . S
C1183 C371 1.454 . S
C1197 C173 1.458 . S
C1203 C272 1.457 . S
C1217 C206 1.442 . S
C1223 C305 1.443 . S
C1237 C338 1.457 . S
C1243 C239 1.458 . S
C1257 C8 1.459 . S
C1263 C437 1.458 . S
C1277 C470 1.462 . S
C1283 C41 1.462 . S
C1297 C74 1.462 . S
C1303 C503 1.462 . S
C1317 C107 1.444 . S
C1323 C404 1.443 . S
