# Generated by pormake.
# Topology fcr, (5)-cn, num edge types: 1
# Building blocks:
#     Node 0, Type 0, BuildingBlock: XOMCOT_clean_sbu_0, # of connection points: 5
#     Node 1, Type 0, BuildingBlock: XOMCOT_clean_sbu_0, # of connection points: 5
#     Node 2, Type 0, BuildingBlock: XOMCOT_clean_sbu_0, # of connection points: 5
#     Node 3, Type 0, BuildingBlock: XOMCOT_clean_sbu_0, # of connection points: 5
#     Node 4, Type 0, BuildingBlock: XOMCOT_clean_sbu_0, # of connection points: 5
#     Node 5, Type 0, BuildingBlock: XOMCOT_clean_sbu_0, # of connection points: 5
#     Node 6, Type 0, BuildingBlock: XOMCOT_clean_sbu_0, # of connection points: 5
#     Node 7, Type 0, BuildingBlock: XOMCOT_clean_sbu_0, # of connection points: 5
#     Node 8, Type 0, BuildingBlock: XOMCOT_clean_sbu_0, # of connection points: 5
#     Node 9, Type 0, BuildingBlock: XOMCOT_clean_sbu_0, # of connection points: 5
#     Node 10, Type 0, BuildingBlock: XOMCOT_clean_sbu_0, # of connection points: 5
#     Node 11, Type 0, BuildingBlock: XOMCOT_clean_sbu_0, # of connection points: 5
#     Node 12, Type 0, BuildingBlock: XOMCOT_clean_sbu_0, # of connection points: 5
#     Node 13, Type 0, BuildingBlock: XOMCOT_clean_sbu_0, # of connection points: 5
#     Node 14, Type 0, BuildingBlock: XOMCOT_clean_sbu_0, # of connection points: 5
#     Node 15, Type 0, BuildingBlock: XOMCOT_clean_sbu_0, # of connection points: 5
#     Node 16, Type 0, BuildingBlock: XOMCOT_clean_sbu_0, # of connection points: 5
#     Node 17, Type 0, BuildingBlock: XOMCOT_clean_sbu_0, # of connection points: 5
#     Node 18, Type 0, BuildingBlock: XOMCOT_clean_sbu_0, # of connection points: 5
#     Node 19, Type 0, BuildingBlock: XOMCOT_clean_sbu_0, # of connection points: 5
#     Node 20, Type 0, BuildingBlock: XOMCOT_clean_sbu_0, # of connection points: 5
#     Node 21, Type 0, BuildingBlock: XOMCOT_clean_sbu_0, # of connection points: 5
#     Node 22, Type 0, BuildingBlock: XOMCOT_clean_sbu_0, # of connection points: 5
#     Node 23, Type 0, BuildingBlock: XOMCOT_clean_sbu_0, # of connection points: 5
#     Node 24, Type 0, BuildingBlock: XOMCOT_clean_sbu_0, # of connection points: 5
#     Node 25, Type 0, BuildingBlock: XOMCOT_clean_sbu_0, # of connection points: 5
#     Node 26, Type 0, BuildingBlock: XOMCOT_clean_sbu_0, # of connection points: 5
#     Node 27, Type 0, BuildingBlock: XOMCOT_clean_sbu_0, # of connection points: 5
#     Node 28, Type 0, BuildingBlock: XOMCOT_clean_sbu_0, # of connection points: 5
#     Node 29, Type 0, BuildingBlock: XOMCOT_clean_sbu_0, # of connection points: 5
#     Node 30, Type 0, BuildingBlock: XOMCOT_clean_sbu_0, # of connection points: 5
#     Node 31, Type 0, BuildingBlock: XOMCOT_clean_sbu_0, # of connection points: 5
#     Node 32, Type 0, BuildingBlock: XOMCOT_clean_sbu_0, # of connection points: 5
#     Node 33, Type 0, BuildingBlock: XOMCOT_clean_sbu_0, # of connection points: 5
#     Node 34, Type 0, BuildingBlock: XOMCOT_clean_sbu_0, # of connection points: 5
#     Node 35, Type 0, BuildingBlock: XOMCOT_clean_sbu_0, # of connection points: 5
#     Node 36, Type 0, BuildingBlock: XOMCOT_clean_sbu_0, # of connection points: 5
#     Node 37, Type 0, BuildingBlock: XOMCOT_clean_sbu_0, # of connection points: 5
#     Node 38, Type 0, BuildingBlock: XOMCOT_clean_sbu_0, # of connection points: 5
#     Node 39, Type 0, BuildingBlock: XOMCOT_clean_sbu_0, # of connection points: 5
#     Node 40, Type 0, BuildingBlock: XOMCOT_clean_sbu_0, # of connection points: 5
#     Node 41, Type 0, BuildingBlock: XOMCOT_clean_sbu_0, # of connection points: 5
#     Node 42, Type 0, BuildingBlock: XOMCOT_clean_sbu_0, # of connection points: 5
#     Node 43, Type 0, BuildingBlock: XOMCOT_clean_sbu_0, # of connection points: 5
#     Node 44, Type 0, BuildingBlock: XOMCOT_clean_sbu_0, # of connection points: 5
#     Node 45, Type 0, BuildingBlock: XOMCOT_clean_sbu_0, # of connection points: 5
#     Node 46, Type 0, BuildingBlock: XOMCOT_clean_sbu_0, # of connection points: 5
#     Node 47, Type 0, BuildingBlock: XOMCOT_clean_sbu_0, # of connection points: 5
#     Edge 48, Type (0, 0), BuildingBlock: KIFKEQ_clean_linker_1, # of connection points: 2
#     Edge 49, Type (0, 0), BuildingBlock: KIFKEQ_clean_linker_1, # of connection points: 2
#     Edge 50, Type (0, 0), BuildingBlock: KIFKEQ_clean_linker_1, # of connection points: 2
#     Edge 51, Type (0, 0), BuildingBlock: KIFKEQ_clean_linker_1, # of connection points: 2
#     Edge 52, Type (0, 0), BuildingBlock: KIFKEQ_clean_linker_1, # of connection points: 2
#     Edge 53, Type (0, 0), BuildingBlock: KIFKEQ_clean_linker_1, # of connection points: 2
#     Edge 54, Type (0, 0), BuildingBlock: KIFKEQ_clean_linker_1, # of connection points: 2
#     Edge 55, Type (0, 0), BuildingBlock: KIFKEQ_clean_linker_1, # of connection points: 2
#     Edge 56, Type (0, 0), BuildingBlock: KIFKEQ_clean_linker_1, # of connection points: 2
#     Edge 57, Type (0, 0), BuildingBlock: KIFKEQ_clean_linker_1, # of connection points: 2
#     Edge 58, Type (0, 0), BuildingBlock: KIFKEQ_clean_linker_1, # of connection points: 2
#     Edge 59, Type (0, 0), BuildingBlock: KIFKEQ_clean_linker_1, # of connection points: 2
#     Edge 60, Type (0, 0), BuildingBlock: KIFKEQ_clean_linker_1, # of connection points: 2
#     Edge 61, Type (0, 0), BuildingBlock: KIFKEQ_clean_linker_1, # of connection points: 2
#     Edge 62, Type (0, 0), BuildingBlock: KIFKEQ_clean_linker_1, # of connection points: 2
#     Edge 63, Type (0, 0), BuildingBlock: KIFKEQ_clean_linker_1, # of connection points: 2
#     Edge 64, Type (0, 0), BuildingBlock: KIFKEQ_clean_linker_1, # of connection points: 2
#     Edge 65, Type (0, 0), BuildingBlock: KIFKEQ_clean_linker_1, # of connection points: 2
#     Edge 66, Type (0, 0), BuildingBlock: KIFKEQ_clean_linker_1, # of connection points: 2
#     Edge 67, Type (0, 0), BuildingBlock: KIFKEQ_clean_linker_1, # of connection points: 2
#     Edge 68, Type (0, 0), BuildingBlock: KIFKEQ_clean_linker_1, # of connection points: 2
#     Edge 69, Type (0, 0), BuildingBlock: KIFKEQ_clean_linker_1, # of connection points: 2
#     Edge 70, Type (0, 0), BuildingBlock: KIFKEQ_clean_linker_1, # of connection points: 2
#     Edge 71, Type (0, 0), BuildingBlock: KIFKEQ_clean_linker_1, # of connection points: 2
#     Edge 72, Type (0, 0), BuildingBlock: KIFKEQ_clean_linker_1, # of connection points: 2
#     Edge 73, Type (0, 0), BuildingBlock: KIFKEQ_clean_linker_1, # of connection points: 2
#     Edge 74, Type (0, 0), BuildingBlock: KIFKEQ_clean_linker_1, # of connection points: 2
#     Edge 75, Type (0, 0), BuildingBlock: KIFKEQ_clean_linker_1, # of connection points: 2
#     Edge 76, Type (0, 0), BuildingBlock: KIFKEQ_clean_linker_1, # of connection points: 2
#     Edge 77, Type (0, 0), BuildingBlock: KIFKEQ_clean_linker_1, # of connection points: 2
#     Edge 78, Type (0, 0), BuildingBlock: KIFKEQ_clean_linker_1, # of connection points: 2
#     Edge 79, Type (0, 0), BuildingBlock: KIFKEQ_clean_linker_1, # of connection points: 2
#     Edge 80, Type (0, 0), BuildingBlock: KIFKEQ_clean_linker_1, # of connection points: 2
#     Edge 81, Type (0, 0), BuildingBlock: KIFKEQ_clean_linker_1, # of connection points: 2
#     Edge 82, Type (0, 0), BuildingBlock: KIFKEQ_clean_linker_1, # of connection points: 2
#     Edge 83, Type (0, 0), BuildingBlock: KIFKEQ_clean_linker_1, # of connection points: 2
#     Edge 84, Type (0, 0), BuildingBlock: KIFKEQ_clean_linker_1, # of connection points: 2
#     Edge 85, Type (0, 0), BuildingBlock: KIFKEQ_clean_linker_1, # of connection points: 2
#     Edge 86, Type (0, 0), BuildingBlock: KIFKEQ_clean_linker_1, # of connection points: 2
#     Edge 87, Type (0, 0), BuildingBlock: KIFKEQ_clean_linker_1, # of connection points: 2
#     Edge 88, Type (0, 0), BuildingBlock: KIFKEQ_clean_linker_1, # of connection points: 2
#     Edge 89, Type (0, 0), BuildingBlock: KIFKEQ_clean_linker_1, # of connection points: 2
#     Edge 90, Type (0, 0), BuildingBlock: KIFKEQ_clean_linker_1, # of connection points: 2
#     Edge 91, Type (0, 0), BuildingBlock: KIFKEQ_clean_linker_1, # of connection points: 2
#     Edge 92, Type (0, 0), BuildingBlock: KIFKEQ_clean_linker_1, # of connection points: 2
#     Edge 93, Type (0, 0), BuildingBlock: KIFKEQ_clean_linker_1, # of connection points: 2
#     Edge 94, Type (0, 0), BuildingBlock: KIFKEQ_clean_linker_1, # of connection points: 2
#     Edge 95, Type (0, 0), BuildingBlock: KIFKEQ_clean_linker_1, # of connection points: 2
#     Edge 96, Type (0, 0), BuildingBlock: KIFKEQ_clean_linker_1, # of connection points: 2
#     Edge 97, Type (0, 0), BuildingBlock: KIFKEQ_clean_linker_1, # of connection points: 2
#     Edge 98, Type (0, 0), BuildingBlock: KIFKEQ_clean_linker_1, # of connection points: 2
#     Edge 99, Type (0, 0), BuildingBlock: KIFKEQ_clean_linker_1, # of connection points: 2
#     Edge 100, Type (0, 0), BuildingBlock: KIFKEQ_clean_linker_1, # of connection points: 2
#     Edge 101, Type (0, 0), BuildingBlock: KIFKEQ_clean_linker_1, # of connection points: 2
#     Edge 102, Type (0, 0), BuildingBlock: KIFKEQ_clean_linker_1, # of connection points: 2
#     Edge 103, Type (0, 0), BuildingBlock: KIFKEQ_clean_linker_1, # of connection points: 2
#     Edge 104, Type (0, 0), BuildingBlock: KIFKEQ_clean_linker_1, # of connection points: 2
#     Edge 105, Type (0, 0), BuildingBlock: KIFKEQ_clean_linker_1, # of connection points: 2
#     Edge 106, Type (0, 0), BuildingBlock: KIFKEQ_clean_linker_1, # of connection points: 2
#     Edge 107, Type (0, 0), BuildingBlock: KIFKEQ_clean_linker_1, # of connection points: 2
#     Edge 108, Type (0, 0), BuildingBlock: KIFKEQ_clean_linker_1, # of connection points: 2
#     Edge 109, Type (0, 0), BuildingBlock: KIFKEQ_clean_linker_1, # of connection points: 2
#     Edge 110, Type (0, 0), BuildingBlock: KIFKEQ_clean_linker_1, # of connection points: 2
#     Edge 111, Type (0, 0), BuildingBlock: KIFKEQ_clean_linker_1, # of connection points: 2
#     Edge 112, Type (0, 0), BuildingBlock: KIFKEQ_clean_linker_1, # of connection points: 2
#     Edge 113, Type (0, 0), BuildingBlock: KIFKEQ_clean_linker_1, # of connection points: 2
#     Edge 114, Type (0, 0), BuildingBlock: KIFKEQ_clean_linker_1, # of connection points: 2
#     Edge 115, Type (0, 0), BuildingBlock: KIFKEQ_clean_linker_1, # of connection points: 2
#     Edge 116, Type (0, 0), BuildingBlock: KIFKEQ_clean_linker_1, # of connection points: 2
#     Edge 117, Type (0, 0), BuildingBlock: KIFKEQ_clean_linker_1, # of connection points: 2
#     Edge 118, Type (0, 0), BuildingBlock: KIFKEQ_clean_linker_1, # of connection points: 2
#     Edge 119, Type (0, 0), BuildingBlock: KIFKEQ_clean_linker_1, # of connection points: 2
#     Edge 120, Type (0, 0), BuildingBlock: KIFKEQ_clean_linker_1, # of connection points: 2
#     Edge 121, Type (0, 0), BuildingBlock: KIFKEQ_clean_linker_1, # of connection points: 2
#     Edge 122, Type (0, 0), BuildingBlock: KIFKEQ_clean_linker_1, # of connection points: 2
#     Edge 123, Type (0, 0), BuildingBlock: KIFKEQ_clean_linker_1, # of connection points: 2
#     Edge 124, Type (0, 0), BuildingBlock: KIFKEQ_clean_linker_1, # of connection points: 2
#     Edge 125, Type (0, 0), BuildingBlock: KIFKEQ_clean_linker_1, # of connection points: 2
#     Edge 126, Type (0, 0), BuildingBlock: KIFKEQ_clean_linker_1, # of connection points: 2
#     Edge 127, Type (0, 0), BuildingBlock: KIFKEQ_clean_linker_1, # of connection points: 2
#     Edge 128, Type (0, 0), BuildingBlock: KIFKEQ_clean_linker_1, # of connection points: 2
#     Edge 129, Type (0, 0), BuildingBlock: KIFKEQ_clean_linker_1, # of connection points: 2
#     Edge 130, Type (0, 0), BuildingBlock: KIFKEQ_clean_linker_1, # of connection points: 2
#     Edge 131, Type (0, 0), BuildingBlock: KIFKEQ_clean_linker_1, # of connection points: 2
#     Edge 132, Type (0, 0), BuildingBlock: KIFKEQ_clean_linker_1, # of connection points: 2
#     Edge 133, Type (0, 0), BuildingBlock: KIFKEQ_clean_linker_1, # of connection points: 2
#     Edge 134, Type (0, 0), BuildingBlock: KIFKEQ_clean_linker_1, # of connection points: 2
#     Edge 135, Type (0, 0), BuildingBlock: KIFKEQ_clean_linker_1, # of connection points: 2
#     Edge 136, Type (0, 0), BuildingBlock: KIFKEQ_clean_linker_1, # of connection points: 2
#     Edge 137, Type (0, 0), BuildingBlock: KIFKEQ_clean_linker_1, # of connection points: 2
#     Edge 138, Type (0, 0), BuildingBlock: KIFKEQ_clean_linker_1, # of connection points: 2
#     Edge 139, Type (0, 0), BuildingBlock: KIFKEQ_clean_linker_1, # of connection points: 2
#     Edge 140, Type (0, 0), BuildingBlock: KIFKEQ_clean_linker_1, # of connection points: 2
#     Edge 141, Type (0, 0), BuildingBlock: KIFKEQ_clean_linker_1, # of connection points: 2
#     Edge 142, Type (0, 0), BuildingBlock: KIFKEQ_clean_linker_1, # of connection points: 2
#     Edge 143, Type (0, 0), BuildingBlock: KIFKEQ_clean_linker_1, # of connection points: 2
#     Edge 144, Type (0, 0), BuildingBlock: KIFKEQ_clean_linker_1, # of connection points: 2
#     Edge 145, Type (0, 0), BuildingBlock: KIFKEQ_clean_linker_1, # of connection points: 2
#     Edge 146, Type (0, 0), BuildingBlock: KIFKEQ_clean_linker_1, # of connection points: 2
#     Edge 147, Type (0, 0), BuildingBlock: KIFKEQ_clean_linker_1, # of connection points: 2
#     Edge 148, Type (0, 0), BuildingBlock: KIFKEQ_clean_linker_1, # of connection points: 2
#     Edge 149, Type (0, 0), BuildingBlock: KIFKEQ_clean_linker_1, # of connection points: 2
#     Edge 150, Type (0, 0), BuildingBlock: KIFKEQ_clean_linker_1, # of connection points: 2
#     Edge 151, Type (0, 0), BuildingBlock: KIFKEQ_clean_linker_1, # of connection points: 2
#     Edge 152, Type (0, 0), BuildingBlock: KIFKEQ_clean_linker_1, # of connection points: 2
#     Edge 153, Type (0, 0), BuildingBlock: KIFKEQ_clean_linker_1, # of connection points: 2
#     Edge 154, Type (0, 0), BuildingBlock: KIFKEQ_clean_linker_1, # of connection points: 2
#     Edge 155, Type (0, 0), BuildingBlock: KIFKEQ_clean_linker_1, # of connection points: 2
#     Edge 156, Type (0, 0), BuildingBlock: KIFKEQ_clean_linker_1, # of connection points: 2
#     Edge 157, Type (0, 0), BuildingBlock: KIFKEQ_clean_linker_1, # of connection points: 2
#     Edge 158, Type (0, 0), BuildingBlock: KIFKEQ_clean_linker_1, # of connection points: 2
#     Edge 159, Type (0, 0), BuildingBlock: KIFKEQ_clean_linker_1, # of connection points: 2
#     Edge 160, Type (0, 0), BuildingBlock: KIFKEQ_clean_linker_1, # of connection points: 2
#     Edge 161, Type (0, 0), BuildingBlock: KIFKEQ_clean_linker_1, # of connection points: 2
#     Edge 162, Type (0, 0), BuildingBlock: KIFKEQ_clean_linker_1, # of connection points: 2
#     Edge 163, Type (0, 0), BuildingBlock: KIFKEQ_clean_linker_1, # of connection points: 2
#     Edge 164, Type (0, 0), BuildingBlock: KIFKEQ_clean_linker_1, # of connection points: 2
#     Edge 165, Type (0, 0), BuildingBlock: KIFKEQ_clean_linker_1, # of connection points: 2
#     Edge 166, Type (0, 0), BuildingBlock: KIFKEQ_clean_linker_1, # of connection points: 2
#     Edge 167, Type (0, 0), BuildingBlock: KIFKEQ_clean_linker_1, # of connection points: 2
# Relax obj value: 0.111
# Max RMSD: 0.155
# Mean RMSD: 0.155
data_MOF--net-fcr--node1-XOMCOT_clean_sbu_0--edge1-KIFKEQ_clean_linker_1
_symmetry_space_group_name_H-M    P1
_symmetry_Int_Tables_number       1
_symmetry_cell_setting            triclinic
loop_
_symmetry_equiv_pos_as_xyz
'x, y, z'
_cell_length_a     66.669997
_cell_length_b     66.649914
_cell_length_c     66.622986
_cell_angle_alpha  89.974592
_cell_angle_beta   89.97773
_cell_angle_gamma 90.076499
loop_
_atom_site_label
_atom_site_type_symbol
_atom_site_fract_x
_atom_site_fract_y
_atom_site_fract_z
_atom_type_partial_charge
Co0 Co 0.14033 0.33764 0.25892 0.0
C1 C 0.16162 0.30391 0.2791 0.0
C2 C 0.14897 0.32434 0.30047 0.0
C3 C 0.15851 0.30922 0.31077 0.0
N4 N 0.15114 0.32122 0.28055 0.0
N5 N 0.16635 0.2964 0.2973 0.0
H6 H 0.16569 0.29679 0.2651 0.0
H7 H 0.1406 0.33639 0.30727 0.0
C8 C 0.12559 0.37631 0.27915 0.0
O9 O 0.11592 0.38245 0.26314 0.0
N10 N 0.12971 0.35364 0.23704 0.0
C11 C 0.11473 0.34845 0.22449 0.0
C12 C 0.11344 0.36254 0.20947 0.0
C13 C 0.13774 0.3705 0.22906 0.0
N14 N 0.12788 0.37647 0.21234 0.0
C15 C 0.11396 0.30413 0.25855 0.0
C16 C 0.07931 0.32355 0.27026 0.0
C17 C 0.07842 0.30291 0.26607 0.0
C18 C 0.09614 0.29325 0.26019 0.0
C19 C 0.09752 0.33392 0.26843 0.0
N20 N 0.11457 0.3242 0.26254 0.0
H21 H 0.12736 0.29635 0.25387 0.0
H22 H 0.09764 0.34974 0.27139 0.0
H23 H 0.10581 0.33495 0.22562 0.0
H24 H 0.15048 0.37825 0.23547 0.0
O25 O 0.15199 0.32006 0.23895 0.0
O26 O 0.16717 0.34644 0.25232 0.0
O27 O 0.13418 0.35915 0.27951 0.0
C28 C 0.16791 0.33133 0.23999 0.0
H29 H 0.15911 0.30743 0.32691 0.0
H30 H 0.1031 0.36207 0.19696 0.0
H31 H 0.06607 0.33166 0.275 0.0
H32 H 0.09623 0.27744 0.25646 0.0
Co33 Co 0.58441 0.63435 0.01691 0.0
C34 C 0.5527 0.61095 0.99551 0.0
C35 C 0.56741 0.63219 0.97633 0.0
C36 C 0.55233 0.62304 0.96563 0.0
N37 N 0.56777 0.62455 0.99506 0.0
N38 N 0.54303 0.6097 0.97771 0.0
H39 H 0.54857 0.60243 1.00867 0.0
H40 H 0.57685 0.64427 0.97099 0.0
C41 C 0.62245 0.65034 0.99641 0.0
O42 O 0.62897 0.65912 0.01278 0.0
N43 N 0.60072 0.64416 0.03897 0.0
C44 C 0.59549 0.65832 0.05243 0.0
C45 C 0.60965 0.65888 0.06743 0.0
C46 C 0.61776 0.63594 0.0463 0.0
N47 N 0.62365 0.6448 0.06358 0.0
C48 C 0.55051 0.66008 0.01855 0.0
C49 C 0.56932 0.6955 1.00796 0.0
C50 C 0.54863 0.69577 0.01192 0.0
C51 C 0.53927 0.67769 0.01726 0.0
C52 C 0.58007 0.6775 1.00952 0.0
N53 N 0.57063 0.66006 0.01475 0.0
H54 H 0.54295 0.64628 0.02245 0.0
H55 H 0.59595 0.67782 1.00681 0.0
H56 H 0.58194 0.66719 0.05188 0.0
H57 H 0.62541 0.62343 0.03936 0.0
O58 O 0.56731 0.62141 0.03661 0.0
O59 O 0.59373 0.60741 0.02213 0.0
O60 O 0.6053 0.6417 0.99603 0.0
C61 C 0.57896 0.60584 0.0348 0.0
H62 H 0.54801 0.62666 0.95041 0.0
H63 H 0.60954 0.66883 0.08026 0.0
H64 H 0.57724 0.70915 1.00403 0.0
H65 H 0.5233 0.67706 0.02014 0.0
Co66 Co 0.88724 0.18807 0.25535 0.0
C67 C 0.86628 0.22264 0.27418 0.0
C68 C 0.87684 0.20185 0.29635 0.0
C69 C 0.86728 0.21738 0.30599 0.0
N70 N 0.87604 0.20499 0.27634 0.0
N71 N 0.86073 0.23042 0.29202 0.0
H72 H 0.86318 0.22973 0.25992 0.0
H73 H 0.88411 0.1894 0.3037 0.0
C74 C 0.90173 0.14994 0.27682 0.0
O75 O 0.91201 0.14359 0.26127 0.0
N76 N 0.89818 0.17156 0.2341 0.0
C77 C 0.91254 0.17694 0.22087 0.0
C78 C 0.91327 0.16289 0.20575 0.0
C79 C 0.89014 0.1545 0.22662 0.0
N80 N 0.89919 0.14882 0.20941 0.0
C81 C 0.91372 0.22153 0.25456 0.0
C82 C 0.94796 0.20243 0.26788 0.0
C83 C 0.94896 0.22299 0.26334 0.0
C84 C 0.93146 0.23248 0.25658 0.0
C85 C 0.92984 0.192 0.26564 0.0
N86 N 0.91297 0.20156 0.25907 0.0
H87 H 0.9005 0.22919 0.24925 0.0
H88 H 0.92967 0.17625 0.26898 0.0
H89 H 0.92121 0.19064 0.22155 0.0
H90 H 0.8774 0.14685 0.23319 0.0
O91 O 0.87589 0.20527 0.23482 0.0
O92 O 0.86056 0.17907 0.24846 0.0
O93 O 0.89296 0.167 0.27654 0.0
C94 C 0.85999 0.19396 0.23585 0.0
H95 H 0.86566 0.21919 0.32205 0.0
H96 H 0.92308 0.16325 0.1928 0.0
H97 H 0.96103 0.19445 0.27327 0.0
H98 H 0.93149 0.24821 0.25251 0.0
Co99 Co 0.43408 0.88721 0.01328 0.0
C100 C 0.46828 0.90836 0.99359 0.0
C101 C 0.44854 0.89493 0.97202 0.0
C102 C 0.46377 0.90448 0.96187 0.0
N103 N 0.45113 0.89761 0.99195 0.0
N104 N 0.47614 0.91283 0.97546 0.0
H105 H 0.47499 0.91288 1.00766 0.0
H106 H 0.43674 0.88624 0.96513 0.0
C107 C 0.39544 0.87349 0.99246 0.0
O108 O 0.38881 0.86412 1.00846 0.0
N109 N 0.41729 0.87691 0.03485 0.0
C110 C 0.42054 0.86044 0.04618 0.0
C111 C 0.40606 0.8594 0.06086 0.0
C112 C 0.4012 0.88598 0.04328 0.0
N113 N 0.39394 0.87546 0.05904 0.0
C114 C 0.46694 0.86025 0.01496 0.0
C115 C 0.44771 0.82612 1.00141 0.0
C116 C 0.46806 0.82485 1.00676 0.0
C117 C 0.47762 0.84232 0.01355 0.0
C118 C 0.43752 0.84446 1.00304 0.0
N119 N 0.44712 0.86122 1.00995 0.0
H120 H 0.47471 0.87346 0.02021 0.0
H121 H 0.42189 0.8449 0.99912 0.0
H122 H 0.43293 0.85016 0.04447 0.0
H123 H 0.39485 0.89993 0.03794 0.0
O124 O 0.45148 0.89864 0.03361 0.0
O125 O 0.42576 0.91426 0.01959 0.0
O126 O 0.41288 0.88151 0.99225 0.0
C127 C 0.44062 0.9148 0.03223 0.0
H128 H 0.46592 0.90479 0.94576 0.0
H129 H 0.40498 0.84808 0.07247 0.0
H130 H 0.4397 0.81309 0.99592 0.0
H131 H 0.49319 0.84214 0.01815 0.0
Co132 Co 0.13461 0.68727 0.26557 0.0
C133 C 0.15727 0.72127 0.24693 0.0
C134 C 0.14418 0.702 0.22474 0.0
C135 C 0.15451 0.71705 0.21507 0.0
N136 N 0.14609 0.70442 0.24477 0.0
N137 N 0.16267 0.72914 0.22904 0.0
H138 H 0.16149 0.72772 0.26121 0.0
H139 H 0.13561 0.69036 0.21742 0.0
C140 C 0.12154 0.64887 0.24388 0.0
O141 O 0.11199 0.64182 0.2596 0.0
N142 N 0.12344 0.67027 0.28662 0.0
C143 C 0.1064 0.67304 0.29723 0.0
C144 C 0.1048 0.65814 0.31149 0.0
C145 C 0.13235 0.65416 0.29523 0.0
N146 N 0.12115 0.64639 0.31021 0.0
C147 C 0.10788 0.7205 0.26419 0.0
C148 C 0.07381 0.70005 0.25225 0.0
C149 C 0.07268 0.72082 0.25537 0.0
C150 C 0.09005 0.73108 0.26123 0.0
C151 C 0.0921 0.69008 0.25493 0.0
N152 N 0.10881 0.70027 0.26108 0.0
H153 H 0.12105 0.72861 0.26902 0.0
H154 H 0.09249 0.67413 0.25266 0.0
H155 H 0.09604 0.68534 0.29532 0.0
H156 H 0.14666 0.64809 0.29055 0.0
O157 O 0.14525 0.70459 0.28641 0.0
O158 O 0.16116 0.67869 0.27291 0.0
O159 O 0.1296 0.66629 0.24418 0.0
C160 C 0.16128 0.69344 0.28567 0.0
H161 H 0.15555 0.71922 0.199 0.0
H162 H 0.09293 0.65648 0.32246 0.0
H163 H 0.06069 0.6916 0.24772 0.0
H164 H 0.08975 0.7471 0.26394 0.0
Co165 Co 0.93915 0.63559 1.00795 0.0
C166 C 0.97424 0.61696 0.02844 0.0
C167 C 0.94846 0.61814 0.04762 0.0
C168 C 0.96345 0.60802 0.05749 0.0
N169 N 0.95521 0.62395 0.02941 0.0
N170 N 0.97962 0.60725 0.04541 0.0
H171 H 0.98362 0.61783 0.01523 0.0
H172 H 0.9334 0.62011 0.05319 0.0
C173 C 0.90037 0.64979 0.02833 0.0
O174 O 0.89331 0.65779 0.0118 0.0
N175 N 0.92326 0.6465 0.98608 0.0
C176 C 0.92872 0.66115 0.97319 0.0
C177 C 0.91509 0.66185 0.95766 0.0
C178 C 0.90666 0.63817 0.97785 0.0
N179 N 0.90121 0.64743 0.96068 0.0
C180 C 0.97259 0.66235 1.00698 0.0
C181 C 0.95292 0.69668 0.0192 0.0
C182 C 0.9734 0.69795 0.01437 0.0
C183 C 0.98321 0.68034 1.00838 0.0
C184 C 0.94285 0.67826 0.01775 0.0
N185 N 0.95269 0.66133 0.01169 0.0
H186 H 0.98043 0.64925 1.00171 0.0
H187 H 0.92703 0.67794 0.02088 0.0
H188 H 0.94215 0.67016 0.9744 0.0
H189 H 0.89901 0.62525 0.98406 0.0
O190 O 0.9567 0.62403 0.98797 0.0
O191 O 0.93015 0.60886 1.00105 0.0
O192 O 0.91796 0.64215 0.02887 0.0
C193 C 0.94533 0.60819 0.98877 0.0
H194 H 0.96235 0.6013 0.07225 0.0
H195 H 0.91551 0.67199 0.94497 0.0
H196 H 0.94456 0.7099 0.02354 0.0
H197 H 0.99904 0.68037 1.00474 0.0
Co198 Co 0.8825 0.83525 0.26325 0.0
C199 C 0.86766 0.79878 0.24249 0.0
C200 C 0.86375 0.82525 0.22456 0.0
C201 C 0.856 0.80917 0.21425 0.0
N202 N 0.87115 0.81875 0.24221 0.0
N203 N 0.85839 0.79255 0.22554 0.0
H204 H 0.87156 0.78909 0.25492 0.0
H205 H 0.86333 0.84067 0.21966 0.0
C206 C 0.90119 0.87017 0.24013 0.0
O207 O 0.91721 0.8706 0.25155 0.0
N208 N 0.8937 0.85224 0.28441 0.0
C209 C 0.9129 0.85349 0.29086 0.0
C210 C 0.91443 0.8686 0.30484 0.0
C211 C 0.88387 0.86666 0.29482 0.0
N212 N 0.89616 0.87678 0.30734 0.0
C213 C 0.91451 0.80885 0.27335 0.0
C214 C 0.93658 0.8131 0.23846 0.0
C215 C 0.94332 0.79981 0.2533 0.0
C216 C 0.93198 0.79765 0.27083 0.0
C217 C 0.91867 0.82374 0.24137 0.0
N218 N 0.9082 0.822 0.25894 0.0
H219 H 0.90618 0.80714 0.28713 0.0
H220 H 0.91309 0.83295 0.2293 0.0
H221 H 0.92538 0.84488 0.28524 0.0
H222 H 0.8682 0.87032 0.29281 0.0
O223 O 0.8715 0.81723 0.28323 0.0
O224 O 0.85571 0.84357 0.27054 0.0
O225 O 0.88761 0.85692 0.2428 0.0
C226 C 0.85539 0.82817 0.28254 0.0
H227 H 0.84838 0.80982 0.19992 0.0
H228 H 0.92798 0.87344 0.31238 0.0
H229 H 0.94479 0.81481 0.22452 0.0
H230 H 0.93672 0.78751 0.28262 0.0
Co231 Co 0.08629 0.89071 1.00783 0.0
C232 C 0.04975 0.90601 0.02825 0.0
C233 C 0.07647 0.91168 0.04525 0.0
C234 C 0.0605 0.91997 0.05528 0.0
N235 N 0.06973 0.90262 0.02849 0.0
N236 N 0.04372 0.91645 0.04455 0.0
H237 H 0.03992 0.90153 0.01617 0.0
H238 H 0.09204 0.91323 0.04938 0.0
C239 C 0.12411 0.87619 0.02943 0.0
O240 O 0.13099 0.86718 0.01334 0.0
N241 N 0.10287 0.87928 0.98672 0.0
C242 C 0.09915 0.86272 0.9757 0.0
C243 C 0.11314 0.86149 0.96056 0.0
C244 C 0.11896 0.88801 0.97789 0.0
N245 N 0.12556 0.87743 0.96192 0.0
C246 C 0.05381 0.86299 1.00281 0.0
C247 C 0.0698 0.83125 0.02407 0.0
C248 C 0.05084 0.82897 0.01524 0.0
C249 C 0.04287 0.8452 1.00456 0.0
C250 C 0.08021 0.84943 0.02214 0.0
N251 N 0.07224 0.86511 0.01155 0.0
H252 H 0.04738 0.87501 0.99413 0.0
H253 H 0.0947 0.85048 0.02905 0.0
H254 H 0.08682 0.85244 0.97795 0.0
H255 H 0.12541 0.9021 0.98273 0.0
O256 O 0.06949 0.90249 0.9873 0.0
O257 O 0.09588 0.91725 1.00104 0.0
O258 O 0.10683 0.88452 0.02938 0.0
C259 C 0.08102 0.91818 0.98843 0.0
H260 H 0.06132 0.92889 0.06883 0.0
H261 H 0.11395 0.84983 0.94929 0.0
H262 H 0.07651 0.81912 0.03254 0.0
H263 H 0.02844 0.84404 0.99718 0.0
Co264 Co 0.25772 0.14011 0.33508 0.0
C265 C 0.27885 0.1571 0.29982 0.0
C266 C 0.29706 0.1585 0.32631 0.0
C267 C 0.30737 0.16739 0.31076 0.0
N268 N 0.27924 0.15188 0.31942 0.0
N269 N 0.29587 0.16657 0.29413 0.0
H270 H 0.26622 0.15443 0.29001 0.0
H271 H 0.30201 0.15775 0.34172 0.0
C272 C 0.2782 0.139 0.37424 0.0
O273 O 0.26398 0.15107 0.38043 0.0
N274 N 0.23582 0.12845 0.35082 0.0
C275 C 0.2267 0.11053 0.34812 0.0
C276 C 0.21078 0.10895 0.3612 0.0
C277 C 0.225 0.13753 0.36544 0.0
N278 N 0.20978 0.12592 0.3721 0.0
C279 C 0.25316 0.11319 0.30193 0.0
C280 C 0.27289 0.08056 0.31814 0.0
C281 C 0.26404 0.07863 0.29911 0.0
C282 C 0.25429 0.09538 0.291 0.0
C283 C 0.27142 0.09874 0.32867 0.0
N284 N 0.26145 0.11479 0.32062 0.0
H285 H 0.24531 0.12565 0.29529 0.0
H286 H 0.27778 0.09944 0.34352 0.0
H287 H 0.23072 0.0994 0.33708 0.0
H288 H 0.22752 0.1527 0.37059 0.0
O289 O 0.23818 0.15265 0.31766 0.0
O290 O 0.25102 0.16672 0.34483 0.0
O291 O 0.2779 0.13231 0.35628 0.0
C292 C 0.23918 0.16815 0.32939 0.0
H293 H 0.32182 0.17471 0.31186 0.0
H294 H 0.20062 0.09633 0.36246 0.0
H295 H 0.2804 0.06797 0.32512 0.0
H296 H 0.24753 0.09478 0.27623 0.0
Co297 Co 0.39109 0.51177 0.93726 0.0
C298 C 0.41193 0.49135 0.97105 0.0
C299 C 0.40103 0.47017 0.94942 0.0
C300 C 0.41066 0.45981 0.96443 0.0
N301 N 0.402 0.49003 0.9534 0.0
N302 N 0.41742 0.47315 0.97799 0.0
H303 H 0.41523 0.50527 0.9787 0.0
H304 H 0.39362 0.46339 0.93673 0.0
C305 C 0.37622 0.49145 0.89858 0.0
O306 O 0.36601 0.50712 0.89246 0.0
N307 N 0.38038 0.5337 0.92148 0.0
C308 C 0.36626 0.54688 0.92743 0.0
C309 C 0.3652 0.5622 0.91362 0.0
C310 C 0.38804 0.54145 0.90435 0.0
N311 N 0.37889 0.55876 0.89913 0.0
C312 C 0.36467 0.51213 0.97072 0.0
C313 C 0.33001 0.50065 0.95114 0.0
C314 C 0.32901 0.50514 0.97172 0.0
C315 C 0.34676 0.51085 0.98147 0.0
C316 C 0.34829 0.50221 0.94089 0.0
N317 N 0.36535 0.50801 0.95066 0.0
H318 H 0.37806 0.51677 0.97855 0.0
H319 H 0.34843 0.49911 0.92509 0.0
H320 H 0.35781 0.54593 0.94125 0.0
H321 H 0.40042 0.53484 0.89619 0.0
O322 O 0.4027 0.5316 0.95502 0.0
O323 O 0.41789 0.51856 0.92849 0.0
O324 O 0.38504 0.49139 0.91561 0.0
C325 C 0.41861 0.53073 0.94374 0.0
H326 H 0.4122 0.44367 0.96553 0.0
H327 H 0.35522 0.57498 0.91429 0.0
H328 H 0.31678 0.49597 0.94296 0.0
H329 H 0.3468 0.51483 0.99723 0.0
Co330 Co 0.76451 0.38246 0.33189 0.0
C331 C 0.74348 0.35863 0.30038 0.0
C332 C 0.72319 0.37655 0.31771 0.0
C333 C 0.71257 0.36729 0.30262 0.0
N334 N 0.7426 0.37111 0.31635 0.0
N335 N 0.72535 0.35606 0.29164 0.0
H336 H 0.75717 0.35199 0.29489 0.0
H337 H 0.71727 0.38729 0.32831 0.0
C338 C 0.74195 0.37456 0.36889 0.0
O339 O 0.75253 0.35801 0.36963 0.0
N340 N 0.78629 0.39385 0.34738 0.0
C341 C 0.79915 0.40828 0.34134 0.0
C342 C 0.81339 0.41108 0.35603 0.0
C343 C 0.7932 0.38769 0.3654 0.0
N344 N 0.80968 0.39805 0.37106 0.0
C345 C 0.75879 0.41035 0.30005 0.0
C346 C 0.75304 0.44408 0.32356 0.0
C347 C 0.75338 0.44614 0.30259 0.0
C348 C 0.75597 0.42893 0.29082 0.0
C349 C 0.75542 0.42505 0.33222 0.0
N350 N 0.75859 0.40859 0.32044 0.0
H351 H 0.7615 0.39732 0.2908 0.0
H352 H 0.7555 0.42365 0.34839 0.0
H353 H 0.7985 0.41593 0.32703 0.0
H354 H 0.78655 0.37573 0.3741 0.0
O355 O 0.78409 0.37305 0.31227 0.0
O356 O 0.7738 0.35599 0.33879 0.0
O357 O 0.7451 0.38723 0.3548 0.0
C358 C 0.7853 0.35688 0.32315 0.0
H359 H 0.69681 0.3695 0.29948 0.0
H360 H 0.8259 0.42144 0.35543 0.0
H361 H 0.75112 0.45706 0.33314 0.0
H362 H 0.75655 0.42994 0.2746 0.0
Co363 Co 0.63167 1.00584 0.93832 0.0
C364 C 0.61694 0.02742 0.97416 0.0
C365 C 0.61141 0.04388 0.94702 0.0
C366 C 0.60324 0.05432 0.96281 0.0
N367 N 0.62016 0.02714 0.95416 0.0
N368 N 0.60663 0.04392 0.97984 0.0
H369 H 0.62151 0.01553 0.98422 0.0
H370 H 0.61007 0.04774 0.93133 0.0
C371 C 0.64975 0.0265 0.90157 0.0
O372 O 0.66125 0.01112 0.89727 0.0
N373 N 0.6428 0.98417 0.92223 0.0
C374 C 0.65901 0.97269 0.92602 0.0
C375 C 0.66048 0.95819 0.91141 0.0
C376 C 0.63464 0.97635 0.90536 0.0
N377 N 0.64515 0.96046 0.8984 0.0
C378 C 0.66046 0.99741 0.969 0.0
C379 C 0.68882 0.02576 0.95847 0.0
C380 C 0.69292 0.01277 0.97455 0.0
C381 C 0.67823 0.99874 0.97995 0.0
C382 C 0.67072 0.02399 0.9479 0.0
N383 N 0.65704 1.00944 0.95273 0.0
H384 H 0.64969 0.98621 0.97345 0.0
H385 H 0.66794 0.03452 0.936 0.0
H386 H 0.66908 0.97429 0.93856 0.0
H387 H 0.62133 0.98231 0.89827 0.0
O388 O 0.61914 0.98625 0.95571 0.0
O389 O 0.60507 0.99922 0.92858 0.0
O390 O 0.63857 0.02639 0.91716 0.0
C391 C 0.60365 0.98729 0.94396 0.0
H392 H 0.59446 0.06793 0.96169 0.0
H393 H 0.67175 0.94654 0.91082 0.0
H394 H 0.69961 0.037 0.95385 0.0
H395 H 0.68038 0.98877 0.99261 0.0
Co396 Co 0.25697 0.88374 0.18944 0.0
C397 C 0.28129 0.86695 0.22281 0.0
C398 C 0.29601 0.86348 0.19453 0.0
C399 C 0.30712 0.8537 0.20891 0.0
N400 N 0.28008 0.87241 0.20331 0.0
N401 N 0.29773 0.85581 0.22666 0.0
H402 H 0.26972 0.86967 0.23377 0.0
H403 H 0.29868 0.8627 0.17855 0.0
C404 C 0.29167 0.90019 0.16599 0.0
O405 O 0.29924 0.90678 0.18297 0.0
N406 N 0.23389 0.89404 0.17545 0.0
C407 C 0.21824 0.90376 0.18372 0.0
C408 C 0.20307 0.90486 0.16974 0.0
C409 C 0.22812 0.88935 0.15662 0.0
N410 N 0.20929 0.89572 0.15277 0.0
C411 C 0.2585 0.91111 0.22285 0.0
C412 C 0.2637 0.94587 0.20088 0.0
C413 C 0.26301 0.94721 0.22192 0.0
C414 C 0.2601 0.92946 0.23284 0.0
C415 C 0.26201 0.92713 0.19148 0.0
N416 N 0.26038 0.90987 0.20249 0.0
H417 H 0.25487 0.89805 0.23157 0.0
H418 H 0.26179 0.92655 0.17527 0.0
H419 H 0.21751 0.90871 0.19916 0.0
H420 H 0.23696 0.88023 0.1465 0.0
O421 O 0.23931 0.87113 0.20881 0.0
O422 O 0.24998 0.85699 0.18065 0.0
O423 O 0.27458 0.89143 0.16588 0.0
C424 C 0.23941 0.85557 0.19702 0.0
H425 H 0.32021 0.84448 0.20625 0.0
H426 H 0.18834 0.91127 0.1721 0.0
H427 H 0.26553 0.95917 0.19172 0.0
H428 H 0.25839 0.92975 0.249 0.0
Co429 Co 0.1358 0.51553 0.08308 0.0
C430 C 0.11291 0.4929 0.05177 0.0
C431 C 0.13589 0.47522 0.06571 0.0
C432 C 0.12746 0.46413 0.05049 0.0
N433 N 0.12683 0.4933 0.06652 0.0
N434 N 0.11304 0.47527 0.04181 0.0
H435 H 0.10359 0.50548 0.04757 0.0
H436 H 0.14846 0.47072 0.07492 0.0
C437 C 0.15037 0.49555 0.12193 0.0
O438 O 0.15877 0.51202 0.1287 0.0
N439 N 0.14485 0.5379 0.09934 0.0
C440 C 0.15854 0.55181 0.09394 0.0
C441 C 0.15838 0.5671 0.10781 0.0
C442 C 0.13621 0.5452 0.1162 0.0
N443 N 0.14437 0.5629 0.12179 0.0
C444 C 0.1628 0.51668 0.0502 0.0
C445 C 0.19758 0.50725 0.07067 0.0
C446 C 0.1986 0.51079 0.04992 0.0
C447 C 0.18087 0.51554 0.03971 0.0
C448 C 0.17914 0.50871 0.08066 0.0
N449 N 0.16203 0.51335 0.0704 0.0
H450 H 0.14925 0.5201 0.042 0.0
H451 H 0.17884 0.5064 0.09662 0.0
H452 H 0.16747 0.55138 0.0804 0.0
H453 H 0.12384 0.53799 0.12387 0.0
O454 O 0.12364 0.5348 0.06506 0.0
O455 O 0.1085 0.52089 0.09123 0.0
O456 O 0.14235 0.49502 0.1045 0.0
C457 C 0.10765 0.53332 0.07619 0.0
H458 H 0.13189 0.44922 0.04585 0.0
H459 H 0.16769 0.58041 0.10749 0.0
H460 H 0.21097 0.50375 0.07918 0.0
H461 H 0.18088 0.51809 0.02365 0.0
Co462 Co 0.76744 0.63643 0.18735 0.0
C463 C 0.74664 0.65337 0.22301 0.0
C464 C 0.7294 0.65648 0.19596 0.0
C465 C 0.71935 0.66592 0.21124 0.0
N466 N 0.74649 0.6486 0.20329 0.0
N467 N 0.73023 0.66413 0.22821 0.0
H468 H 0.75892 0.64994 0.23306 0.0
H469 H 0.72483 0.65614 0.18041 0.0
C470 C 0.74716 0.63513 0.14857 0.0
O471 O 0.76231 0.64611 0.14238 0.0
N472 N 0.78813 0.62416 0.17075 0.0
C473 C 0.788 0.60496 0.16434 0.0
C474 C 0.80205 0.60274 0.14938 0.0
C475 C 0.80237 0.63334 0.15948 0.0
N476 N 0.81096 0.62063 0.14624 0.0
C477 C 0.77934 0.60442 0.21299 0.0
C478 C 0.74355 0.58343 0.21255 0.0
C479 C 0.75952 0.57594 0.22417 0.0
C480 C 0.77753 0.58692 0.22434 0.0
C481 C 0.74588 0.60128 0.20166 0.0
N482 N 0.76372 0.61136 0.20178 0.0
H483 H 0.79341 0.61248 0.21317 0.0
H484 H 0.73329 0.60701 0.19323 0.0
H485 H 0.77745 0.5936 0.16914 0.0
H486 H 0.80526 0.6493 0.15963 0.0
O487 O 0.78755 0.64838 0.20449 0.0
O488 O 0.77453 0.66295 0.17764 0.0
O489 O 0.74689 0.62875 0.16663 0.0
C490 C 0.78667 0.66403 0.19292 0.0
H491 H 0.70529 0.67389 0.20984 0.0
H492 H 0.80477 0.58924 0.14078 0.0
H493 H 0.72937 0.57555 0.2117 0.0
H494 H 0.79018 0.58226 0.23338 0.0
Co495 Co 0.88814 1.00776 0.08259 0.0
C496 C 0.90996 0.02799 0.04907 0.0
C497 C 0.89394 0.04892 0.06747 0.0
C498 C 0.90303 0.0593 0.05213 0.0
N499 N 0.89839 0.02927 0.0657 0.0
N500 N 0.91306 0.04614 0.04049 0.0
H501 H 0.91539 0.01403 0.04292 0.0
H502 H 0.88432 0.0554 0.07878 0.0
C503 C 0.87451 0.02861 0.12127 0.0
O504 O 0.86502 0.01275 0.12809 0.0
N505 N 0.878 0.98609 0.09923 0.0
C506 C 0.86291 0.97341 0.09466 0.0
C507 C 0.86235 0.95833 0.10873 0.0
C508 C 0.88674 0.97819 0.11577 0.0
N509 N 0.87737 0.96128 0.12198 0.0
C510 C 0.86118 1.00775 0.04971 0.0
C511 C 0.82658 0.01775 0.07022 0.0
C512 C 0.82538 0.01385 0.04953 0.0
C513 C 0.84311 1.00906 0.03928 0.0
C514 C 0.84508 0.01636 0.08011 0.0
N515 N 0.86206 0.01117 0.06988 0.0
H516 H 0.8746 1.00384 0.04152 0.0
H517 H 0.84546 0.01885 0.09603 0.0
H518 H 0.85341 0.97448 0.08157 0.0
H519 H 0.90004 0.98437 0.12272 0.0
O520 O 0.8993 0.98758 0.0649 0.0
O521 O 0.91513 1.00132 0.09073 0.0
O522 O 0.88263 0.0286 0.10389 0.0
C523 C 0.91544 0.98869 0.07585 0.0
H524 H 0.90216 0.07533 0.04977 0.0
H525 H 0.85179 0.94599 0.10896 0.0
H526 H 0.81327 0.02129 0.07882 0.0
H527 H 0.84308 1.00633 0.02326 0.0
Co528 Co 0.33441 0.25816 0.13784 0.0
C529 C 0.30284 0.27975 0.1612 0.0
C530 C 0.31804 0.29899 0.14036 0.0
C531 C 0.30296 0.30975 0.14942 0.0
N532 N 0.31806 0.28017 0.14778 0.0
N533 N 0.29333 0.29763 0.1625 0.0
H534 H 0.29841 0.26656 0.1695 0.0
H535 H 0.32768 0.30432 0.12843 0.0
C536 C 0.37331 0.27821 0.12337 0.0
O537 O 0.37983 0.26184 0.11464 0.0
N538 N 0.35039 0.23589 0.12799 0.0
C539 C 0.34436 0.22209 0.11446 0.0
C540 C 0.35788 0.20652 0.11427 0.0
C541 C 0.36725 0.22818 0.13625 0.0
N542 N 0.37226 0.21038 0.12795 0.0
C543 C 0.30105 0.25943 0.11143 0.0
C544 C 0.32157 0.26572 0.07594 0.0
C545 C 0.30055 0.26379 0.07528 0.0
C546 C 0.29036 0.26089 0.0935 0.0
C547 C 0.33171 0.26447 0.09435 0.0
N548 N 0.32143 0.26118 0.11179 0.0
H549 H 0.29287 0.25688 0.1252 0.0
H550 H 0.34781 0.26552 0.0944 0.0
H551 H 0.33055 0.22273 0.10599 0.0
H552 H 0.37529 0.23511 0.14855 0.0
O553 O 0.31648 0.23856 0.14969 0.0
O554 O 0.34282 0.25203 0.1649 0.0
O555 O 0.35592 0.27877 0.13147 0.0
C556 C 0.32775 0.23961 0.16563 0.0
H557 H 0.29885 0.32504 0.14588 0.0
H558 H 0.35698 0.19318 0.10505 0.0
H559 H 0.33021 0.26768 0.06232 0.0
H560 H 0.27417 0.25978 0.09402 0.0
Co561 Co 0.33341 0.76163 0.3814 0.0
C562 C 0.29755 0.74118 0.3645 0.0
C563 C 0.32453 0.72423 0.36012 0.0
C564 C 0.30907 0.71445 0.35065 0.0
N565 N 0.31732 0.74089 0.36898 0.0
N566 N 0.29213 0.72515 0.35331 0.0
H567 H 0.28759 0.7534 0.36824 0.0
H568 H 0.34014 0.71994 0.35961 0.0
C569 C 0.3705 0.73994 0.39758 0.0
O570 O 0.37702 0.75589 0.40709 0.0
N571 N 0.34953 0.78278 0.39327 0.0
C572 C 0.34423 0.79525 0.40832 0.0
C573 C 0.35825 0.81037 0.40972 0.0
C574 C 0.36657 0.79071 0.38558 0.0
N575 N 0.37227 0.80746 0.39544 0.0
C576 C 0.29994 0.76639 0.40787 0.0
C577 C 0.31547 0.74632 0.4406 0.0
C578 C 0.29635 0.7549 0.44216 0.0
C579 C 0.28859 0.76495 0.42542 0.0
C580 C 0.32633 0.74802 0.42271 0.0
N581 N 0.3186 0.75803 0.40654 0.0
H582 H 0.29369 0.77463 0.39545 0.0
H583 H 0.34097 0.74141 0.42229 0.0
H584 H 0.3307 0.79406 0.41717 0.0
H585 H 0.37429 0.78473 0.37261 0.0
O586 O 0.31702 0.78212 0.36911 0.0
O587 O 0.34383 0.7684 0.35512 0.0
O588 O 0.35367 0.74013 0.38837 0.0
C589 C 0.32902 0.78103 0.35378 0.0
H590 H 0.31034 0.70076 0.34201 0.0
H591 H 0.35798 0.82277 0.42022 0.0
H592 H 0.32202 0.73828 0.45311 0.0
H593 H 0.27404 0.77214 0.426 0.0
Co594 Co 0.01379 0.43722 0.89127 0.0
C595 C 0.99353 0.4741 0.90576 0.0
C596 C 0.9774 0.44729 0.91355 0.0
C597 C 0.96732 0.46345 0.92136 0.0
N598 N 0.99365 0.45396 0.90357 0.0
N599 N 0.97748 0.48027 0.91653 0.0
H600 H 1.00512 0.48393 0.9 0.0
H601 H 0.97363 0.43172 0.91586 0.0
C602 C 0.99046 0.40236 0.87288 0.0
O603 O 1.00419 0.39932 0.8591 0.0
N604 N 0.03423 0.42007 0.87918 0.0
C605 C 0.04232 0.42125 0.8606 0.0
C606 C 0.05592 0.40597 0.85818 0.0
C607 C 0.04325 0.40402 0.88777 0.0
N608 N 0.05653 0.39518 0.87525 0.0
C609 C 0.02394 0.46605 0.86119 0.0
C610 C 0.99156 0.45998 0.83607 0.0
C611 C 1.0064 0.47384 0.83032 0.0
C612 C 0.0225 0.47706 0.84346 0.0
C613 C 0.99349 0.44933 0.85414 0.0
N614 N 1.00997 0.45185 0.8661 0.0
H615 H 0.03679 0.4686 0.87067 0.0
H616 H 0.98161 0.43921 0.85839 0.0
H617 H 0.03838 0.4319 0.8491 0.0
H618 H 0.03984 0.39852 0.90266 0.0
O619 O 0.0347 0.45362 0.90295 0.0
O620 O 0.02071 0.42733 0.91771 0.0
O621 O 0.99211 0.41689 0.88528 0.0
C622 C 0.03351 0.44204 0.91859 0.0
H623 H 0.95411 0.46279 0.9308 0.0
H624 H 0.06468 0.403 0.84482 0.0
H625 H 0.97869 0.45713 0.82658 0.0
H626 H 0.03402 0.48803 0.84012 0.0
Co627 Co 0.68804 0.75429 0.38379 0.0
C628 C 0.72174 0.77434 0.3622 0.0
C629 C 0.6998 0.79558 0.37223 0.0
C630 C 0.7147 0.8058 0.36227 0.0
N631 N 0.70402 0.77576 0.37201 0.0
N632 N 0.72846 0.79244 0.35605 0.0
H633 H 0.7296 0.76042 0.35948 0.0
H634 H 0.68701 0.80245 0.37936 0.0
C635 C 0.64906 0.77453 0.39783 0.0
O636 O 0.64328 0.75905 0.40855 0.0
N637 N 0.67233 0.73264 0.39534 0.0
C638 C 0.67681 0.7215 0.41164 0.0
C639 C 0.66242 0.70685 0.41389 0.0
C640 C 0.65567 0.72411 0.38749 0.0
N641 N 0.64918 0.70851 0.39869 0.0
C642 C 0.72139 0.75518 0.4103 0.0
C643 C 0.70178 0.76829 0.44439 0.0
C644 C 0.72228 0.76362 0.44564 0.0
C645 C 0.73208 0.75724 0.42817 0.0
C646 C 0.69159 0.76603 0.42613 0.0
N647 N 0.70135 0.75928 0.4094 0.0
H648 H 0.72928 0.75008 0.39712 0.0
H649 H 0.67582 0.76915 0.42582 0.0
H650 H 0.68984 0.72351 0.42108 0.0
H651 H 0.64821 0.72948 0.37411 0.0
O652 O 0.7061 0.73422 0.37299 0.0
O653 O 0.67945 0.74631 0.35728 0.0
O654 O 0.6661 0.77465 0.38898 0.0
C655 C 0.69483 0.73432 0.35704 0.0
H656 H 0.7156 0.82189 0.36017 0.0
H657 H 0.66196 0.69555 0.42556 0.0
H658 H 0.69353 0.77311 0.45753 0.0
H659 H 0.74796 0.75385 0.42825 0.0
Co660 Co 0.50712 0.58314 0.38738 0.0
C661 C 0.52822 0.54722 0.40269 0.0
C662 C 0.54636 0.57378 0.40483 0.0
C663 C 0.55657 0.55817 0.41353 0.0
N664 N 0.52859 0.56693 0.39806 0.0
N665 N 0.54511 0.54152 0.41235 0.0
H666 H 0.51546 0.53753 0.40004 0.0
H667 H 0.55133 0.58921 0.40428 0.0
C668 C 0.52648 0.62211 0.3875 0.0
O669 O 0.51129 0.62704 0.39902 0.0
N670 N 0.48582 0.59985 0.37648 0.0
C671 C 0.48445 0.60616 0.35729 0.0
C672 C 0.46921 0.61995 0.3558 0.0
C673 C 0.47148 0.61019 0.38646 0.0
N674 N 0.46117 0.62257 0.37417 0.0
C675 C 0.49416 0.55856 0.35511 0.0
C676 C 0.5291 0.55977 0.33277 0.0
C677 C 0.51286 0.54828 0.32565 0.0
C678 C 0.49531 0.54769 0.33729 0.0
C679 C 0.52741 0.57027 0.35094 0.0
N680 N 0.50998 0.56973 0.36169 0.0
H681 H 0.48042 0.55805 0.36368 0.0
H682 H 0.54015 0.57868 0.3564 0.0
H683 H 0.49452 0.60192 0.34531 0.0
H684 H 0.46912 0.60939 0.40248 0.0
O685 O 0.48751 0.56535 0.39932 0.0
O686 O 0.50101 0.59157 0.41461 0.0
O687 O 0.52715 0.60452 0.37994 0.0
C688 C 0.48897 0.57619 0.41543 0.0
H689 H 0.57113 0.55915 0.42065 0.0
H690 H 0.4652 0.62832 0.34247 0.0
H691 H 0.54295 0.56082 0.32434 0.0
H692 H 0.48252 0.5387 0.33288 0.0
Co693 Co 0.18471 0.76387 0.63493 0.0
C694 C 0.21677 0.74313 0.65844 0.0
C695 C 0.20148 0.72336 0.6382 0.0
C696 C 0.21668 0.71288 0.64734 0.0
N697 N 0.20143 0.74233 0.64519 0.0
N698 N 0.22635 0.72532 0.66007 0.0
H699 H 0.22116 0.75653 0.66641 0.0
H700 H 0.19172 0.71769 0.62654 0.0
C701 C 0.14619 0.74275 0.62102 0.0
O702 O 0.13949 0.75854 0.61137 0.0
N703 N 0.16827 0.78553 0.62466 0.0
C704 C 0.1734 0.7986 0.6101 0.0
C705 C 0.15912 0.81342 0.60913 0.0
C706 C 0.15127 0.79299 0.6328 0.0
N707 N 0.14514 0.80989 0.62338 0.0
C708 C 0.21771 0.76327 0.60816 0.0
C709 C 0.19715 0.75417 0.57332 0.0
C710 C 0.21793 0.75748 0.5723 0.0
C711 C 0.2282 0.76185 0.59013 0.0
C712 C 0.18718 0.75567 0.59178 0.0
N713 N 0.19746 0.76035 0.60888 0.0
H714 H 0.2259 0.76678 0.6217 0.0
H715 H 0.17121 0.75364 0.59205 0.0
H716 H 0.18703 0.79798 0.60133 0.0
H717 H 0.14361 0.78614 0.64538 0.0
O718 O 0.20256 0.78395 0.64597 0.0
O719 O 0.17652 0.77064 0.66188 0.0
O720 O 0.16342 0.74291 0.62945 0.0
C721 C 0.19149 0.7832 0.66206 0.0
H722 H 0.22079 0.69752 0.64412 0.0
H723 H 0.15954 0.82628 0.59922 0.0
H724 H 0.18855 0.75097 0.55991 0.0
H725 H 0.24429 0.76412 0.59021 0.0
Co726 Co 1.00995 0.58439 0.63574 0.0
C727 C 0.98924 0.55105 0.6143 0.0
C728 C 0.96833 0.57017 0.62949 0.0
C729 C 0.95776 0.55522 0.61992 0.0
N730 N 0.98809 0.56777 0.62574 0.0
N731 N 0.97097 0.54323 0.6105 0.0
H732 H 1.00307 0.54454 0.60891 0.0
H733 H 0.96188 0.5816 0.63896 0.0
C734 C 0.98982 0.62301 0.65064 0.0
O735 O 1.00609 0.62955 0.65959 0.0
N736 N 0.03208 0.60062 0.64548 0.0
C737 C 0.04596 0.59485 0.65902 0.0
C738 C 0.06143 0.60854 0.65898 0.0
C739 C 0.03958 0.61751 0.63706 0.0
N740 N 0.05738 0.62276 0.64519 0.0
C741 C 1.0098 0.55096 0.66217 0.0
C742 C 1.00218 0.57121 0.69753 0.0
C743 C 1.00494 0.55031 0.69824 0.0
C744 C 1.00856 0.54023 0.68011 0.0
C745 C 1.00334 0.58139 0.67914 0.0
N746 N 1.00723 0.57125 0.66176 0.0
H747 H 0.01291 0.54288 0.64848 0.0
H748 H 1.00168 0.59742 0.67911 0.0
H749 H 0.04547 0.5811 0.66761 0.0
H750 H 0.03253 0.62536 0.62471 0.0
O751 O 0.02972 0.56685 0.62368 0.0
O752 O 0.0156 0.59295 0.60863 0.0
O753 O 0.98938 0.60571 0.64235 0.0
C754 C 0.02813 0.57803 0.60771 0.0
H755 H 0.94169 0.55292 0.62038 0.0
H756 H 0.07485 0.60784 0.6681 0.0
H757 H 0.99966 0.57975 0.71112 0.0
H758 H 0.01041 0.5241 0.67969 0.0
Co759 Co 1.00751 0.93868 0.63008 0.0
C760 C 0.02927 0.97378 0.61336 0.0
C761 C 0.04501 0.94611 0.60862 0.0
C762 C 0.05526 0.96117 0.599 0.0
N763 N 0.02881 0.95399 0.61774 0.0
N764 N 0.0453 0.97854 0.60183 0.0
H765 H 0.01752 0.98419 0.61745 0.0
H766 H 0.04856 0.93032 0.60796 0.0
C767 C 0.02788 0.90144 0.64754 0.0
O768 O 0.0122 0.89658 0.65842 0.0
N769 N 0.98586 0.92318 0.64196 0.0
C770 C 0.97401 0.9283 0.65756 0.0
C771 C 0.95889 0.91432 0.65936 0.0
C772 C 0.97764 0.90621 0.63443 0.0
N773 N 0.96121 0.90047 0.64482 0.0
C774 C 1.00128 0.9712 0.65747 0.0
C775 C 0.02557 0.95782 0.68824 0.0
C776 C 0.01436 0.97538 0.69112 0.0
C777 C 1.00236 0.98217 0.67528 0.0
C778 C 0.02401 0.94719 0.67017 0.0
N779 N 0.01152 0.95357 0.65517 0.0
H780 H 0.99173 0.97681 0.64571 0.0
H781 H 0.03289 0.93387 0.66863 0.0
H782 H 0.97571 0.94147 0.6668 0.0
H783 H 0.98327 0.8985 0.6213 0.0
O784 O 0.98761 0.95567 0.61751 0.0
O785 O 1.00059 0.92841 0.60375 0.0
O786 O 0.02809 0.91757 0.63713 0.0
C787 C 0.98846 0.9436 0.60224 0.0
H788 H 0.06868 0.9593 0.59007 0.0
H789 H 0.94702 0.91443 0.67045 0.0
H790 H 0.03514 0.95205 0.70003 0.0
H791 H 0.99379 0.9959 0.67662 0.0
Co792 Co 0.63439 0.83145 0.7594 0.0
C793 C 0.65782 0.79989 0.78106 0.0
C794 C 0.63531 0.81355 0.79956 0.0
C795 C 0.64401 0.79815 0.8102 0.0
N796 N 0.64391 0.81465 0.78125 0.0
N797 N 0.65813 0.78963 0.79854 0.0
H798 H 0.66679 0.79587 0.76817 0.0
H799 H 0.62287 0.82267 0.80454 0.0
C800 C 0.61994 0.86995 0.77996 0.0
O801 O 0.61132 0.87681 0.76365 0.0
N802 N 0.62485 0.84791 0.73731 0.0
C803 C 0.61112 0.8424 0.72351 0.0
C804 C 0.61124 0.85612 0.70807 0.0
C805 C 0.63345 0.86473 0.72981 0.0
N806 N 0.62527 0.87014 0.71206 0.0
C807 C 0.60767 0.79828 0.75856 0.0
C808 C 0.57282 0.81841 0.76836 0.0
C809 C 0.57191 0.7976 0.76504 0.0
C810 C 0.58972 0.7876 0.76002 0.0
C811 C 0.59116 0.82857 0.76668 0.0
N812 N 0.60831 0.81847 0.76188 0.0
H813 H 0.62123 0.79024 0.75481 0.0
H814 H 0.59138 0.84451 0.76903 0.0
H815 H 0.60229 0.82879 0.72402 0.0
H816 H 0.64594 0.87241 0.7368 0.0
O817 O 0.64644 0.81382 0.73972 0.0
O818 O 0.66147 0.84003 0.75373 0.0
O819 O 0.62796 0.85253 0.78027 0.0
C820 C 0.6623 0.82515 0.74112 0.0
H821 H 0.63995 0.79328 0.82517 0.0
H822 H 0.60201 0.85559 0.69472 0.0
H823 H 0.55952 0.8268 0.7724 0.0
H824 H 0.58981 0.77165 0.75695 0.0
Co825 Co 0.08244 0.13546 0.51175 0.0
C826 C 0.04835 0.11606 0.48996 0.0
C827 C 0.07595 0.11332 0.47389 0.0
C828 C 0.06144 0.10274 0.46373 0.0
N829 N 0.06765 0.12245 0.48999 0.0
N830 N 0.04409 0.10442 0.47391 0.0
H831 H 0.03789 0.11857 0.50202 0.0
H832 H 0.09176 0.11311 0.47038 0.0
C833 C 0.10255 0.15126 0.47496 0.0
O834 O 0.08465 0.15664 0.4687 0.0
N835 N 0.09744 0.14723 0.53362 0.0
C836 C 0.0899 0.15867 0.54848 0.0
C837 C 0.10407 0.16034 0.56341 0.0
C838 C 0.11602 0.14199 0.53974 0.0
N839 N 0.12043 0.14971 0.558 0.0
C840 C 0.04797 0.1613 0.51041 0.0
C841 C 0.06825 0.197 0.50478 0.0
C842 C 0.04723 0.19748 0.5065 0.0
C843 C 0.03718 0.17916 0.50915 0.0
C844 C 0.07847 0.17862 0.50573 0.0
N845 N 0.06827 0.16093 0.508 0.0
H846 H 0.0399 0.14792 0.51424 0.0
H847 H 0.09467 0.1787 0.50526 0.0
H848 H 0.07475 0.16441 0.54899 0.0
H849 H 0.12547 0.13153 0.5317 0.0
O850 O 0.06463 0.1232 0.5311 0.0
O851 O 0.09246 0.10934 0.51927 0.0
O852 O 0.10454 0.1433 0.49234 0.0
C853 C 0.07682 0.10797 0.53092 0.0
H854 H 0.06379 0.09342 0.45064 0.0
H855 H 0.10215 0.16818 0.5775 0.0
H856 H 0.07685 0.21071 0.50338 0.0
H857 H 0.02103 0.17849 0.51061 0.0
Co858 Co 0.37933 0.68528 0.75651 0.0
C859 C 0.36102 0.71961 0.77811 0.0
C860 C 0.36383 0.69395 0.79731 0.0
C861 C 0.35454 0.70904 0.80789 0.0
N862 N 0.36791 0.70054 0.77859 0.0
N863 N 0.35282 0.72514 0.79579 0.0
H864 H 0.36128 0.72907 0.76493 0.0
H865 H 0.36696 0.67913 0.80303 0.0
C866 C 0.37695 0.64705 0.7786 0.0
O867 O 0.36063 0.64367 0.76815 0.0
N868 N 0.39057 0.67007 0.73438 0.0
C869 C 0.40545 0.67584 0.72193 0.0
C870 C 0.40769 0.66159 0.70713 0.0
C871 C 0.38371 0.6526 0.7267 0.0
N872 N 0.39395 0.64701 0.71011 0.0
C873 C 0.40618 0.71866 0.75617 0.0
C874 C 0.44 0.69874 0.76944 0.0
C875 C 0.44143 0.71931 0.76499 0.0
C876 C 0.42415 0.72919 0.75824 0.0
C877 C 0.42165 0.6887 0.76712 0.0
N878 N 0.40497 0.69872 0.76068 0.0
H879 H 0.39326 0.72658 0.75057 0.0
H880 H 0.4211 0.67279 0.7701 0.0
H881 H 0.41373 0.68975 0.72303 0.0
H882 H 0.37116 0.64438 0.73276 0.0
O883 O 0.36747 0.70356 0.73718 0.0
O884 O 0.35261 0.6765 0.74926 0.0
O885 O 0.38688 0.66324 0.77588 0.0
C886 C 0.35168 0.69212 0.73766 0.0
H887 H 0.3494 0.70821 0.82328 0.0
H888 H 0.4181 0.66236 0.69468 0.0
H889 H 0.45291 0.69043 0.77471 0.0
H890 H 0.42454 0.7449 0.75409 0.0
Co891 Co 0.93233 0.38923 0.51571 0.0
C892 C 0.96833 0.40621 0.49569 0.0
C893 C 0.94202 0.40829 0.47722 0.0
C894 C 0.95749 0.41802 0.46769 0.0
N895 N 0.94877 0.40091 0.49479 0.0
N896 N 0.97397 0.41687 0.47936 0.0
H897 H 0.97788 0.40337 0.5085 0.0
H898 H 0.92669 0.40755 0.47202 0.0
C899 C 0.89381 0.38917 0.49554 0.0
O900 O 0.88832 0.40011 0.51097 0.0
N901 N 0.91535 0.3774 0.53634 0.0
C902 C 0.90687 0.35905 0.53494 0.0
C903 C 0.89222 0.35724 0.54938 0.0
C904 C 0.90578 0.38644 0.55182 0.0
N905 N 0.89158 0.37445 0.55992 0.0
C906 C 0.95653 0.35676 0.52867 0.0
C907 C 0.95721 0.33561 0.49298 0.0
C908 C 0.96787 0.32796 0.50955 0.0
C909 C 0.96751 0.33903 0.52748 0.0
C910 C 0.94658 0.3537 0.49474 0.0
N911 N 0.94621 0.36386 0.51252 0.0
H912 H 0.95629 0.3649 0.54269 0.0
H913 H 0.93874 0.35955 0.48181 0.0
H914 H 0.91006 0.34825 0.52328 0.0
H915 H 0.90785 0.40195 0.55611 0.0
O916 O 0.94962 0.40113 0.53576 0.0
O917 O 0.92302 0.41594 0.52247 0.0
O918 O 0.91152 0.38191 0.49505 0.0
C919 C 0.93834 0.41696 0.53452 0.0
H920 H 0.9565 0.42587 0.45349 0.0
H921 H 0.88214 0.34465 0.55136 0.0
H922 H 0.95687 0.32765 0.47883 0.0
H923 H 0.97584 0.33422 0.54057 0.0
Co924 Co 0.63741 0.18476 0.76489 0.0
C925 C 0.65779 0.21899 0.74455 0.0
C926 C 0.64366 0.19925 0.72346 0.0
C927 C 0.65219 0.21491 0.71309 0.0
N928 N 0.6473 0.20166 0.74323 0.0
N929 N 0.66103 0.22738 0.72635 0.0
H930 H 0.66236 0.22572 0.75857 0.0
H931 H 0.63499 0.18727 0.71684 0.0
C932 C 0.62216 0.14648 0.74436 0.0
O933 O 0.61235 0.14026 0.76027 0.0
N934 N 0.62759 0.16821 0.78673 0.0
C935 C 0.61288 0.17294 0.79975 0.0
C936 C 0.61194 0.1584 0.81435 0.0
C937 C 0.6358 0.15112 0.79396 0.0
N938 N 0.62631 0.14461 0.8107 0.0
C939 C 0.61067 0.21783 0.7675 0.0
C940 C 0.57616 0.19877 0.75467 0.0
C941 C 0.57511 0.21903 0.76027 0.0
C942 C 0.59273 0.22855 0.76665 0.0
C943 C 0.59445 0.18851 0.75589 0.0
N944 N 0.61144 0.19802 0.76236 0.0
H945 H 0.62406 0.22555 0.77235 0.0
H946 H 0.59464 0.17292 0.75193 0.0
H947 H 0.60386 0.18639 0.79919 0.0
H948 H 0.64837 0.1436 0.78699 0.0
O949 O 0.64965 0.20205 0.78484 0.0
O950 O 0.6645 0.17608 0.77041 0.0
O951 O 0.63092 0.16356 0.74417 0.0
C952 C 0.66559 0.19093 0.78302 0.0
H953 H 0.65178 0.21691 0.69698 0.0
H954 H 0.60187 0.15844 0.82709 0.0
H955 H 0.56287 0.19077 0.74982 0.0
H956 H 0.59271 0.24426 0.77082 0.0
Co957 Co 0.43866 0.13117 0.50805 0.0
C958 C 0.47276 0.11467 0.53168 0.0
C959 C 0.44472 0.11026 0.54664 0.0
C960 C 0.45942 0.10059 0.55742 0.0
N961 N 0.45311 0.11968 0.53076 0.0
N962 N 0.47704 0.10328 0.54789 0.0
H963 H 0.48354 0.11797 0.5201 0.0
H964 H 0.4288 0.10917 0.5495 0.0
C965 C 0.41619 0.14721 0.54367 0.0
O966 O 0.43338 0.15337 0.55112 0.0
N967 N 0.4242 0.14168 0.48527 0.0
C968 C 0.43256 0.15008 0.46886 0.0
C969 C 0.41823 0.15137 0.45403 0.0
C970 C 0.40489 0.13807 0.4803 0.0
N971 N 0.40092 0.14388 0.4613 0.0
C972 C 0.47232 0.15816 0.5077 0.0
C973 C 0.45147 0.19297 0.51584 0.0
C974 C 0.47243 0.19403 0.51382 0.0
C975 C 0.48274 0.17627 0.50929 0.0
C976 C 0.4416 0.17446 0.51396 0.0
N977 N 0.45215 0.15712 0.51105 0.0
H978 H 0.48052 0.14512 0.503 0.0
H979 H 0.42542 0.17415 0.51474 0.0
H980 H 0.44829 0.15381 0.46737 0.0
H981 H 0.39442 0.13007 0.48982 0.0
O982 O 0.45732 0.11837 0.48989 0.0
O983 O 0.42934 0.10454 0.50141 0.0
O984 O 0.41565 0.13898 0.52632 0.0
C985 C 0.44538 0.10293 0.49039 0.0
H986 H 0.45709 0.09108 0.57039 0.0
H987 H 0.4205 0.15667 0.43883 0.0
H988 H 0.44269 0.20627 0.51891 0.0
H989 H 0.49872 0.17637 0.50642 0.0
Co990 Co 0.3828 0.33216 0.76353 0.0
C991 C 0.36594 0.29743 0.74134 0.0
C992 C 0.3652 0.32442 0.72379 0.0
C993 C 0.35577 0.30943 0.71319 0.0
N994 N 0.37165 0.3169 0.74143 0.0
N995 N 0.35616 0.29251 0.72427 0.0
H996 H 0.36782 0.28738 0.75394 0.0
H997 H 0.36635 0.33992 0.71918 0.0
C998 C 0.39958 0.37071 0.74493 0.0
O999 O 0.40828 0.37618 0.7617 0.0
N1000 N 0.39342 0.3473 0.78605 0.0
C1001 C 0.40837 0.34198 0.79859 0.0
C1002 C 0.40936 0.35569 0.81403 0.0
C1003 C 0.38528 0.36395 0.7943 0.0
N1004 N 0.39488 0.36952 0.81124 0.0
C1005 C 0.40932 0.2988 0.76817 0.0
C1006 C 0.44285 0.31539 0.75031 0.0
C1007 C 0.44426 0.29613 0.75865 0.0
C1008 C 0.42711 0.28782 0.76751 0.0
C1009 C 0.42475 0.32599 0.75142 0.0
N1010 N 0.40822 0.31777 0.76044 0.0
H1011 H 0.39648 0.29199 0.77526 0.0
H1012 H 0.42444 0.34085 0.74523 0.0
H1013 H 0.41766 0.32881 0.79707 0.0
H1014 H 0.37245 0.37174 0.78812 0.0
O1015 O 0.36969 0.3146 0.78262 0.0
O1016 O 0.35612 0.34195 0.76966 0.0
O1017 O 0.39064 0.35377 0.74347 0.0
C1018 C 0.35436 0.32655 0.78154 0.0
H1019 H 0.34873 0.31104 0.69864 0.0
H1020 H 0.41992 0.3555 0.82636 0.0
H1021 H 0.45578 0.32246 0.74343 0.0
H1022 H 0.4274 0.27287 0.7739 0.0
Co1023 Co 0.58395 0.38672 0.50461 0.0
C1024 C 0.55043 0.40695 0.52589 0.0
C1025 C 0.57627 0.4042 0.54484 0.0
C1026 C 0.56156 0.41424 0.55526 0.0
N1027 N 0.56934 0.39963 0.52635 0.0
N1028 N 0.54535 0.41591 0.54333 0.0
H1029 H 0.54071 0.4063 0.51293 0.0
H1030 H 0.59099 0.40077 0.55057 0.0
C1031 C 0.62251 0.39153 0.52551 0.0
O1032 O 0.62499 0.40693 0.51351 0.0
N1033 N 0.59849 0.37404 0.48281 0.0
C1034 C 0.59233 0.35843 0.4715 0.0
C1035 C 0.60614 0.35522 0.45647 0.0
C1036 C 0.6157 0.38039 0.47417 0.0
N1037 N 0.62077 0.3691 0.45813 0.0
C1038 C 0.55056 0.3601 0.50704 0.0
C1039 C 0.57091 0.32661 0.5205 0.0
C1040 C 0.55027 0.32496 0.5164 0.0
C1041 C 0.54016 0.34213 0.50968 0.0
C1042 C 0.58082 0.34498 0.51761 0.0
N1043 N 0.57062 0.36144 0.51088 0.0
H1044 H 0.54247 0.37287 0.50133 0.0
H1045 H 0.5968 0.34571 0.52018 0.0
H1046 H 0.57847 0.35025 0.47356 0.0
H1047 H 0.6242 0.39322 0.47919 0.0
O1048 O 0.56501 0.39734 0.48503 0.0
O1049 O 0.59248 0.41276 0.49518 0.0
O1050 O 0.60675 0.38064 0.52383 0.0
C1051 C 0.57663 0.41296 0.48394 0.0
H1052 H 0.56268 0.41981 0.57048 0.0
H1053 H 0.60513 0.34394 0.44482 0.0
H1054 H 0.57939 0.31382 0.52579 0.0
H1055 H 0.5244 0.34163 0.50582 0.0
Co1056 Co 0.7573 0.63856 0.83568 0.0
C1057 C 0.77671 0.66166 0.80235 0.0
C1058 C 0.79635 0.63999 0.81577 0.0
C1059 C 0.80599 0.64839 0.79958 0.0
N1060 N 0.77796 0.64824 0.81755 0.0
N1061 N 0.79363 0.66198 0.79121 0.0
H1062 H 0.76345 0.67024 0.79873 0.0
H1063 H 0.80204 0.62793 0.82501 0.0
C1064 C 0.7801 0.6243 0.87291 0.0
O1065 O 0.76455 0.61447 0.87997 0.0
N1066 N 0.73641 0.6286 0.85346 0.0
C1067 C 0.72371 0.61338 0.8494 0.0
C1068 C 0.70955 0.61229 0.86432 0.0
C1069 C 0.72935 0.63695 0.87059 0.0
N1070 N 0.71307 0.62705 0.87772 0.0
C1071 C 0.75339 0.61153 0.80307 0.0
C1072 C 0.76736 0.57719 0.8216 0.0
C1073 C 0.76055 0.576 0.80171 0.0
C1074 C 0.75365 0.59352 0.79243 0.0
C1075 C 0.76661 0.59556 0.83185 0.0
N1076 N 0.75948 0.61243 0.82261 0.0
H1077 H 0.74825 0.62488 0.79549 0.0
H1078 H 0.77146 0.59593 0.84721 0.0
H1079 H 0.72407 0.60414 0.8361 0.0
H1080 H 0.736 0.64999 0.87763 0.0
O1081 O 0.73632 0.65006 0.81924 0.0
O1082 O 0.75175 0.66576 0.84416 0.0
O1083 O 0.77939 0.63283 0.85573 0.0
C1084 C 0.73826 0.66619 0.83006 0.0
H1085 H 0.82077 0.6445 0.79408 0.0
H1086 H 0.69709 0.60187 0.86475 0.0
H1087 H 0.77275 0.56395 0.82932 0.0
H1088 H 0.74859 0.59336 0.77698 0.0
Co1089 Co 0.8868 0.01411 0.43633 0.0
C1090 C 0.90943 0.99155 0.46781 0.0
C1091 C 0.8858 0.97413 0.45459 0.0
C1092 C 0.89411 0.96321 0.47001 0.0
N1093 N 0.89534 0.99195 0.45321 0.0
N1094 N 0.90895 0.97418 0.47823 0.0
H1095 H 0.91911 1.004 0.47161 0.0
H1096 H 0.87299 0.96974 0.44566 0.0
C1097 C 0.87211 0.99466 0.3975 0.0
O1098 O 0.86508 0.01168 0.39063 0.0
N1099 N 0.87818 0.03663 0.41989 0.0
C1100 C 0.86401 0.0502 0.4248 0.0
C1101 C 0.86447 0.06564 0.41112 0.0
C1102 C 0.88744 0.04437 0.40351 0.0
N1103 N 0.87917 0.06195 0.39773 0.0
C1104 C 0.85996 0.01717 0.46924 0.0
C1105 C 0.82509 1.0062 0.44964 0.0
C1106 C 0.8242 0.0111 0.47011 0.0
C1107 C 0.84195 0.01662 0.47988 0.0
C1108 C 0.84346 1.00722 0.43943 0.0
N1109 N 0.86061 0.01266 0.44927 0.0
H1110 H 0.87353 0.02109 0.47716 0.0
H1111 H 0.84369 1.00389 0.42364 0.0
H1112 H 0.85445 0.04947 0.43788 0.0
H1113 H 0.90022 0.03749 0.39624 0.0
O1114 O 0.89958 0.0334 0.45389 0.0
O1115 O 0.91422 0.01865 0.42795 0.0
O1116 O 0.87946 0.99343 0.4152 0.0
C1117 C 0.91549 0.03134 0.44274 0.0
H1118 H 0.88931 0.94854 0.4751 0.0
H1119 H 0.85485 0.07871 0.41114 0.0
H1120 H 0.81166 1.00201 0.44152 0.0
H1121 H 0.84197 0.02024 0.49573 0.0
Co1122 Co 0.26255 0.88235 0.83142 0.0
C1123 C 0.24183 0.86527 0.79586 0.0
C1124 C 0.22426 0.8625 0.82273 0.0
C1125 C 0.21435 0.85292 0.80745 0.0
N1126 N 0.24149 0.87026 0.81552 0.0
N1127 N 0.22544 0.85451 0.7906 0.0
H1128 H 0.25427 0.8685 0.78591 0.0
H1129 H 0.2195 0.86293 0.8382 0.0
C1130 C 0.24108 0.90104 0.86725 0.0
O1131 O 0.25438 0.91547 0.8691 0.0
N1132 N 0.28374 0.89405 0.84774 0.0
C1133 C 0.29543 0.91013 0.84389 0.0
C1134 C 0.30921 0.91218 0.85914 0.0
C1135 C 0.29068 0.88656 0.86529 0.0
N1136 N 0.30626 0.89732 0.87258 0.0
C1137 C 0.27096 0.91152 0.80105 0.0
C1138 C 0.24111 0.93865 0.81029 0.0
C1139 C 0.25467 0.94341 0.79485 0.0
C1140 C 0.26942 0.92925 0.79004 0.0
C1141 C 0.2431 0.92055 0.82092 0.0
N1142 N 0.25848 0.90759 0.81685 0.0
H1143 H 0.28275 0.90121 0.79709 0.0
H1144 H 0.23209 0.91713 0.83223 0.0
H1145 H 0.29447 0.91972 0.83092 0.0
H1146 H 0.28438 0.87349 0.87259 0.0
O1147 O 0.2826 0.87015 0.81425 0.0
O1148 O 0.26965 0.856 0.84134 0.0
O1149 O 0.24209 0.88856 0.85276 0.0
C1150 C 0.28182 0.85474 0.82616 0.0
H1151 H 0.20025 0.84495 0.80878 0.0
H1152 H 0.32088 0.92345 0.8599 0.0
H1153 H 0.22922 0.94891 0.81439 0.0
H1154 H 0.27983 0.9318 0.77781 0.0
Co1155 Co 0.13032 0.50848 0.44197 0.0
C1156 C 0.10646 0.5317 0.47198 0.0
C1157 C 0.12992 0.54952 0.45912 0.0
C1158 C 0.12101 0.56038 0.47423 0.0
N1159 N 0.12094 0.53139 0.4577 0.0
N1160 N 0.1063 0.54913 0.48228 0.0
H1161 H 0.09709 0.51907 0.4759 0.0
H1162 H 0.14297 0.5542 0.45086 0.0
C1163 C 0.14968 0.5397 0.41337 0.0
O1164 O 0.16582 0.54238 0.42427 0.0
N1165 N 0.13927 0.48562 0.42648 0.0
C1166 C 0.14885 0.46955 0.43411 0.0
C1167 C 0.14964 0.45485 0.41972 0.0
C1168 C 0.13406 0.48037 0.40759 0.0
N1169 N 0.1402 0.46154 0.4031 0.0
C1170 C 0.15755 0.5127 0.47465 0.0
C1171 C 0.19286 0.50777 0.45349 0.0
C1172 C 0.19376 0.51033 0.47437 0.0
C1173 C 0.17576 0.51277 0.48493 0.0
C1174 C 0.17422 0.50763 0.44377 0.0
N1175 N 0.15685 0.51074 0.45426 0.0
H1176 H 0.14385 0.51381 0.48323 0.0
H1177 H 0.17374 0.50493 0.42777 0.0
H1178 H 0.15418 0.46833 0.44939 0.0
H1179 H 0.12495 0.48964 0.39786 0.0
O1180 O 0.11851 0.48992 0.46107 0.0
O1181 O 0.10316 0.50234 0.43427 0.0
O1182 O 0.13604 0.52719 0.41858 0.0
C1183 C 0.10256 0.49044 0.44975 0.0
H1184 H 0.12552 0.57509 0.47944 0.0
H1185 H 0.15625 0.44014 0.42157 0.0
H1186 H 0.20638 0.50534 0.44481 0.0
H1187 H 0.1757 0.51464 0.50108 0.0
Co1188 Co 0.75215 0.38379 0.68873 0.0
C1189 C 0.77506 0.36667 0.72319 0.0
C1190 C 0.78945 0.36141 0.69497 0.0
C1191 C 0.79983 0.35126 0.70957 0.0
N1192 N 0.77417 0.37158 0.70349 0.0
N1193 N 0.7907 0.35448 0.72731 0.0
H1194 H 0.76357 0.37018 0.734 0.0
H1195 H 0.79215 0.36024 0.67902 0.0
C1196 C 0.7888 0.39906 0.66753 0.0
O1197 O 0.79584 0.40502 0.68497 0.0
N1198 N 0.73008 0.39499 0.67367 0.0
C1199 C 0.71598 0.40784 0.68034 0.0
C1200 C 0.70178 0.41032 0.66554 0.0
C1201 C 0.72409 0.3895 0.65511 0.0
N1202 N 0.70684 0.39867 0.64978 0.0
C1203 C 0.75128 0.41029 0.72264 0.0
C1204 C 0.76087 0.44526 0.70252 0.0
C1205 C 0.75727 0.44609 0.72324 0.0
C1206 C 0.75226 0.42831 0.73324 0.0
C1207 C 0.75943 0.42688 0.6924 0.0
N1208 N 0.75556 0.40947 0.70262 0.0
H1209 H 0.74619 0.39718 0.73053 0.0
H1210 H 0.76094 0.42678 0.67627 0.0
H1211 H 0.71565 0.41446 0.69515 0.0
H1212 H 0.73201 0.37876 0.64587 0.0
O1213 O 0.73318 0.37133 0.70682 0.0
O1214 O 0.74509 0.3574 0.67906 0.0
O1215 O 0.77126 0.39132 0.66634 0.0
C1216 C 0.73368 0.35592 0.69484 0.0
H1217 H 0.8126 0.34156 0.70711 0.0
H1218 H 0.68835 0.41937 0.66658 0.0
H1219 H 0.76407 0.4588 0.6941 0.0
H1220 H 0.74892 0.42833 0.74916 0.0
Co1221 Co 0.63315 0.01123 0.58486 0.0
C1222 C 0.61015 0.99063 0.55237 0.0
C1223 C 0.63053 0.9709 0.56751 0.0
C1224 C 0.62155 0.96049 0.55214 0.0
N1225 N 0.62332 0.98978 0.56778 0.0
N1226 N 0.60875 0.9729 0.54258 0.0
H1227 H 0.60205 1.00398 0.5481 0.0
H1228 H 0.6422 0.96524 0.57723 0.0
C1229 C 0.64831 0.98999 0.62275 0.0
O1230 O 0.65774 1.00597 0.62937 0.0
N1231 N 0.64309 0.03287 0.60157 0.0
C1232 C 0.6571 0.04649 0.59625 0.0
C1233 C 0.65735 0.06165 0.61023 0.0
C1234 C 0.63475 0.04017 0.61858 0.0
N1235 N 0.6433 0.05766 0.62422 0.0
C1236 C 0.65942 0.01398 0.55151 0.0
C1237 C 0.69447 1.00232 0.57028 0.0
C1238 C 0.69515 1.008 0.55 0.0
C1239 C 0.67728 0.01375 0.54062 0.0
C1240 C 0.67624 1.00303 0.58076 0.0
N1241 N 0.65901 1.00897 0.57138 0.0
H1242 H 0.64579 0.01831 0.54391 0.0
H1243 H 0.67624 0.99917 0.59641 0.0
H1244 H 0.66588 0.04607 0.58262 0.0
H1245 H 0.62217 0.03326 0.62619 0.0
O1246 O 0.62094 0.03141 0.56789 0.0
O1247 O 0.6061 0.01676 0.5938 0.0
O1248 O 0.6397 0.99003 0.60561 0.0
C1249 C 0.60511 0.02973 0.57922 0.0
H1250 H 0.62492 0.94522 0.54783 0.0
H1251 H 0.66684 0.07484 0.60988 0.0
H1252 H 0.708 0.99787 0.57809 0.0
H1253 H 0.67707 0.01794 0.52491 0.0
Co1254 Co 0.26213 0.1382 0.68506 0.0
C1255 C 0.24291 0.16071 0.71874 0.0
C1256 C 0.22107 0.14782 0.69893 0.0
C1257 C 0.21115 0.15796 0.71391 0.0
N1258 N 0.24105 0.14974 0.70173 0.0
N1259 N 0.22489 0.16597 0.72634 0.0
H1260 H 0.25706 0.16478 0.72554 0.0
H1261 H 0.21397 0.13927 0.68715 0.0
C1262 C 0.24105 0.12516 0.64623 0.0
O1263 O 0.25673 0.1153 0.63957 0.0
N1264 N 0.28345 0.12689 0.6686 0.0
C1265 C 0.29452 0.11041 0.67251 0.0
C1266 C 0.30943 0.10883 0.65829 0.0
C1267 C 0.2923 0.13547 0.65243 0.0
N1268 N 0.30804 0.12462 0.64572 0.0
C1269 C 0.26117 0.11166 0.71837 0.0
C1270 C 0.24946 0.07721 0.6985 0.0
C1271 C 0.25378 0.07603 0.71913 0.0
C1272 C 0.25933 0.09374 0.72906 0.0
C1273 C 0.25131 0.09559 0.68835 0.0
N1274 N 0.25749 0.11246 0.69825 0.0
H1275 H 0.26579 0.12499 0.72634 0.0
H1276 H 0.24852 0.09593 0.67246 0.0
H1277 H 0.29257 0.10056 0.68524 0.0
H1278 H 0.28734 0.14938 0.64569 0.0
O1279 O 0.28266 0.1489 0.70269 0.0
O1280 O 0.2698 0.16478 0.67645 0.0
O1281 O 0.24112 0.13317 0.66368 0.0
C1282 C 0.28227 0.1649 0.69146 0.0
H1283 H 0.19505 0.15889 0.71586 0.0
H1284 H 0.32095 0.09742 0.65776 0.0
H1285 H 0.24529 0.06395 0.69009 0.0
H1286 H 0.26233 0.09384 0.74503 0.0
Co1287 Co 0.38819 0.50452 0.58378 0.0
C1288 C 0.40956 0.52392 0.5493 0.0
C1289 C 0.39097 0.5446 0.56544 0.0
C1290 C 0.3993 0.55451 0.54938 0.0
N1291 N 0.3973 0.52536 0.56543 0.0
N1292 N 0.411 0.5415 0.53933 0.0
H1293 H 0.41682 0.51026 0.54444 0.0
H1294 H 0.38064 0.55108 0.5761 0.0
C1295 C 0.37265 0.52693 0.62057 0.0
O1296 O 0.36141 0.51178 0.6262 0.0
N1297 N 0.37887 0.48361 0.60215 0.0
C1298 C 0.36053 0.47491 0.60286 0.0
C1299 C 0.35991 0.4616 0.61861 0.0
C1300 C 0.38921 0.47508 0.61744 0.0
N1301 N 0.37793 0.46169 0.62767 0.0
C1302 C 0.35715 0.49255 0.55676 0.0
C1303 C 0.32977 0.5223 0.56568 0.0
C1304 C 0.32487 0.50804 0.551 0.0
C1305 C 0.33887 0.49305 0.54662 0.0
C1306 C 0.34822 0.52115 0.5757 0.0
N1307 N 0.36167 0.50629 0.57131 0.0
H1308 H 0.36755 0.48077 0.553 0.0
H1309 H 0.35155 0.53248 0.5867 0.0
H1310 H 0.34802 0.47828 0.59318 0.0
H1311 H 0.40446 0.47894 0.62145 0.0
O1312 O 0.39996 0.48395 0.56695 0.0
O1313 O 0.41564 0.49945 0.59177 0.0
O1314 O 0.38269 0.52619 0.60424 0.0
C1315 C 0.41621 0.48616 0.5775 0.0
H1316 H 0.39694 0.57006 0.54535 0.0
H1317 H 0.34718 0.45257 0.62313 0.0
H1318 H 0.31937 0.53416 0.56954 0.0
H1319 H 0.33585 0.48188 0.53519 0.0
Co1320 Co 0.83229 0.76001 0.63971 0.0
C1321 C 0.79721 0.77929 0.65935 0.0
C1322 C 0.82016 0.80082 0.65257 0.0
C1323 C 0.80477 0.81051 0.66228 0.0
N1324 N 0.81555 0.78116 0.65085 0.0
N1325 N 0.79039 0.79695 0.6665 0.0
H1326 H 0.78914 0.76528 0.66077 0.0
H1327 H 0.83373 0.8079 0.64729 0.0
C1328 C 0.87082 0.78075 0.62548 0.0
O1329 O 0.87663 0.76528 0.61479 0.0
N1330 N 0.84871 0.73859 0.62888 0.0
C1331 C 0.84424 0.72658 0.61323 0.0
C1332 C 0.85866 0.71191 0.61176 0.0
C1333 C 0.86549 0.73067 0.63706 0.0
N1334 N 0.87205 0.71449 0.62673 0.0
C1335 C 0.79943 0.75865 0.61248 0.0
C1336 C 0.81881 0.77317 0.57883 0.0
C1337 C 0.79859 0.76752 0.57722 0.0
C1338 C 0.7889 0.76029 0.59445 0.0
C1339 C 0.82881 0.77132 0.59722 0.0
N1340 N 0.81918 0.76396 0.61378 0.0
H1341 H 0.79164 0.75285 0.62543 0.0
H1342 H 0.84431 0.77555 0.59779 0.0
H1343 H 0.83106 0.72786 0.60388 0.0
H1344 H 0.87278 0.73675 0.65023 0.0
O1345 O 0.81478 0.73958 0.65076 0.0
O1346 O 0.84071 0.75309 0.6666 0.0
O1347 O 0.85377 0.78084 0.63431 0.0
C1348 C 0.82569 0.74062 0.66691 0.0
H1349 H 0.80414 0.82633 0.66589 0.0
H1350 H 0.85881 0.69984 0.60091 0.0
H1351 H 0.82689 0.77903 0.56599 0.0
H1352 H 0.7734 0.75546 0.59395 0.0
Co1353 Co 0.83454 0.26311 0.88169 0.0
C1354 C 0.80267 0.2418 0.85862 0.0
C1355 C 0.82021 0.22169 0.87654 0.0
C1356 C 0.805 0.21096 0.86759 0.0
N1357 N 0.81881 0.24105 0.87088 0.0
N1358 N 0.79389 0.22362 0.85635 0.0
H1359 H 0.7971 0.25542 0.85188 0.0
H1360 H 0.83095 0.21587 0.8872 0.0
C1361 C 0.87173 0.24066 0.87485 0.0
O1362 O 0.87266 0.25112 0.85821 0.0
N1363 N 0.85012 0.28508 0.89258 0.0
C1364 C 0.84367 0.29855 0.9062 0.0
C1365 C 0.85748 0.31385 0.90749 0.0
C1366 C 0.8677 0.29246 0.88565 0.0
N1367 N 0.87253 0.31006 0.89449 0.0
C1368 C 0.80231 0.25972 0.90927 0.0
C1369 C 0.82459 0.2512 0.94321 0.0
C1370 C 0.80362 0.25288 0.94497 0.0
C1371 C 0.79254 0.25716 0.9276 0.0
C1372 C 0.83384 0.25382 0.92444 0.0
N1373 N 0.82264 0.25809 0.90783 0.0
H1374 H 0.7935 0.26323 0.89613 0.0
H1375 H 0.84998 0.25283 0.92334 0.0
H1376 H 0.82943 0.29785 0.91395 0.0
H1377 H 0.87611 0.28587 0.87347 0.0
O1378 O 0.81529 0.28268 0.87148 0.0
O1379 O 0.84163 0.27152 0.8549 0.0
O1380 O 0.85731 0.24368 0.88717 0.0
C1381 C 0.82615 0.28321 0.85527 0.0
H1382 H 0.80189 0.19521 0.87 0.0
H1383 H 0.85625 0.32703 0.91689 0.0
H1384 H 0.83378 0.24785 0.95619 0.0
H1385 H 0.77642 0.25901 0.92818 0.0
Co1386 Co 0.51388 0.93436 0.38845 0.0
C1387 C 0.49397 0.96796 0.4103 0.0
C1388 C 0.47273 0.94938 0.39488 0.0
C1389 C 0.46254 0.96474 0.40408 0.0
N1390 N 0.49248 0.95124 0.39889 0.0
N1391 N 0.47589 0.9765 0.41375 0.0
H1392 H 0.50803 0.9742 0.41542 0.0
H1393 H 0.46604 0.93797 0.38552 0.0
C1394 C 0.49275 0.89625 0.37361 0.0
O1395 O 0.5085 0.88974 0.36376 0.0
N1396 N 0.53548 0.91783 0.3781 0.0
C1397 C 0.54867 0.92311 0.36368 0.0
C1398 C 0.56374 0.90905 0.36294 0.0
C1399 C 0.54298 0.9008 0.38622 0.0
N1400 N 0.56016 0.89505 0.37711 0.0
C1401 C 0.51529 0.96779 0.36213 0.0
C1402 C 0.50353 0.94868 0.32727 0.0
C1403 C 0.50835 0.96918 0.32652 0.0
C1404 C 0.51417 0.97871 0.34432 0.0
C1405 C 0.50496 0.93823 0.34548 0.0
N1406 N 0.51089 0.94779 0.36262 0.0
H1407 H 0.51976 0.97549 0.37567 0.0
H1408 H 0.50167 0.92246 0.34551 0.0
H1409 H 0.54797 0.9367 0.35485 0.0
H1410 H 0.53638 0.89317 0.39896 0.0
O1411 O 0.53408 0.95157 0.40025 0.0
O1412 O 0.51993 0.92552 0.41537 0.0
O1413 O 0.49289 0.91336 0.38227 0.0
C1414 C 0.53258 0.94038 0.4162 0.0
H1415 H 0.44649 0.96702 0.40356 0.0
H1416 H 0.57653 0.90931 0.35294 0.0
H1417 H 0.49912 0.94068 0.31383 0.0
H1418 H 0.51771 0.99458 0.34455 0.0
Co1419 Co 0.1867 0.25792 0.88257 0.0
C1420 C 0.22128 0.28048 0.86609 0.0
C1421 C 0.19385 0.29719 0.864 0.0
C1422 C 0.20875 0.30784 0.85449 0.0
N1423 N 0.20169 0.28004 0.87124 0.0
N1424 N 0.22595 0.29726 0.85568 0.0
H1425 H 0.23158 0.26825 0.86886 0.0
H1426 H 0.1782 0.30133 0.8647 0.0
C1427 C 0.1471 0.27591 0.88477 0.0
O1428 O 0.14202 0.26067 0.87338 0.0
N1429 N 0.17114 0.23593 0.89406 0.0
C1430 C 0.16565 0.23431 0.91348 0.0
C1431 C 0.15178 0.21915 0.91536 0.0
C1432 C 0.16031 0.22169 0.88439 0.0
N1433 N 0.14822 0.21134 0.89702 0.0
C1434 C 0.21294 0.24539 0.91373 0.0
C1435 C 0.21107 0.27971 0.93695 0.0
C1436 C 0.2229 0.26356 0.94366 0.0
C1437 C 0.22389 0.24637 0.93152 0.0
C1438 C 0.20044 0.27819 0.91881 0.0
N1439 N 0.20122 0.26101 0.90768 0.0
H1440 H 0.21365 0.23185 0.90486 0.0
H1441 H 0.19159 0.29079 0.91379 0.0
H1442 H 0.17046 0.2442 0.9254 0.0
H1443 H 0.16008 0.2199 0.86828 0.0
O1444 O 0.20462 0.23921 0.86952 0.0
O1445 O 0.17704 0.25156 0.8558 0.0
O1446 O 0.16509 0.2772 0.89123 0.0
C1447 C 0.19286 0.24028 0.85403 0.0
H1448 H 0.20691 0.32202 0.8468 0.0
H1449 H 0.14441 0.21476 0.92915 0.0
H1450 H 0.20976 0.2933 0.94574 0.0
H1451 H 0.23315 0.23369 0.93563 0.0
Co1452 Co 1.00851 0.08355 0.88651 0.0
C1453 C 0.03262 0.04999 0.90402 0.0
C1454 C 0.04529 0.07887 0.91001 0.0
C1455 C 0.05617 0.06478 0.92033 0.0
N1456 N 0.0308 0.06964 0.89926 0.0
N1457 N 0.04813 0.04661 0.91663 0.0
H1458 H 0.02187 0.03859 0.90005 0.0
H1459 H 0.04712 0.09494 0.91131 0.0
C1460 C 0.04501 0.10438 0.87138 0.0
O1461 O 0.0518 0.08651 0.86653 0.0
N1462 N 0.98609 0.09777 0.87489 0.0
C1463 C 0.97213 0.09022 0.86236 0.0
C1464 C 0.95734 0.10434 0.85966 0.0
C1465 C 0.97941 0.11619 0.88 0.0
N1466 N 0.96186 0.12058 0.87087 0.0
C1467 C 1.00894 0.04938 0.86008 0.0
C1468 C 0.01706 0.07009 0.82507 0.0
C1469 C 0.01423 0.04926 0.82409 0.0
C1470 C 1.01004 0.03894 0.84194 0.0
C1471 C 0.01569 0.07998 0.84355 0.0
N1472 N 0.01247 0.06954 0.86097 0.0
H1473 H 1.00426 0.04127 0.87322 0.0
H1474 H 0.01659 0.09616 0.84372 0.0
H1475 H 0.97227 0.07522 0.85619 0.0
H1476 H 0.987 0.12596 0.89053 0.0
O1477 O 0.98994 0.0651 0.89901 0.0
O1478 O 1.00091 0.09338 0.91271 0.0
O1479 O 0.0273 0.10617 0.87863 0.0
C1480 C 0.98991 0.0773 0.91426 0.0
H1481 H 0.06851 0.06781 0.93043 0.0
H1482 H 0.94385 0.10249 0.85081 0.0
H1483 H 0.01955 0.07879 0.81156 0.0
H1484 H 1.00734 0.02291 0.8419 0.0
Co1485 Co 0.68899 0.2611 0.13671 0.0
C1486 C 0.72422 0.24173 0.15602 0.0
C1487 C 0.70012 0.22081 0.15189 0.0
C1488 C 0.71557 0.21115 0.16152 0.0
N1489 N 0.70543 0.24007 0.14851 0.0
N1490 N 0.73068 0.22432 0.16411 0.0
H1491 H 0.73282 0.25549 0.15613 0.0
H1492 H 0.68601 0.21402 0.14786 0.0
C1493 C 0.65083 0.24043 0.12159 0.0
O1494 O 0.64526 0.25601 0.11091 0.0
N1495 N 0.67291 0.28253 0.12518 0.0
C1496 C 0.67778 0.29407 0.10926 0.0
C1497 C 0.66445 0.30974 0.108 0.0
C1498 C 0.65672 0.29156 0.13349 0.0
N1499 N 0.65126 0.30821 0.12327 0.0
C1500 C 0.72252 0.2639 0.11021 0.0
C1501 C 0.70539 0.24621 0.07689 0.0
C1502 C 0.72525 0.25317 0.07555 0.0
C1503 C 0.73375 0.26207 0.0926 0.0
C1504 C 0.69464 0.24833 0.09486 0.0
N1505 N 0.70318 0.2572 0.11127 0.0
H1506 H 0.72948 0.27094 0.123 0.0
H1507 H 0.67946 0.24298 0.09523 0.0
H1508 H 0.69069 0.29197 0.0997 0.0
H1509 H 0.64966 0.28661 0.14726 0.0
O1510 O 0.70597 0.28152 0.14864 0.0
O1511 O 0.67941 0.26789 0.16322 0.0
O1512 O 0.66781 0.24018 0.13055 0.0
C1513 C 0.69436 0.28037 0.16431 0.0
H1514 H 0.7157 0.1956 0.16621 0.0
H1515 H 0.66479 0.32167 0.09697 0.0
H1516 H 0.69821 0.23903 0.06421 0.0
H1517 H 0.74888 0.26799 0.09232 0.0
Co1518 Co 0.51322 0.08251 0.13427 0.0
C1519 C 0.49259 0.04998 0.11113 0.0
C1520 C 0.47276 0.06546 0.13116 0.0
C1521 C 0.46229 0.05018 0.12209 0.0
N1522 N 0.49176 0.06547 0.12423 0.0
N1523 N 0.47475 0.0404 0.10949 0.0
H1524 H 0.506 0.04553 0.10321 0.0
H1525 H 0.46704 0.07534 0.14267 0.0
C1526 C 0.49227 0.12091 0.14835 0.0
O1527 O 0.50827 0.12752 0.15771 0.0
N1528 N 0.53489 0.09923 0.14431 0.0
C1529 C 0.54792 0.09429 0.15897 0.0
C1530 C 0.56316 0.10821 0.15934 0.0
C1531 C 0.54269 0.1159 0.13567 0.0
N1532 N 0.55989 0.12177 0.14468 0.0
C1533 C 0.51372 0.04955 0.16115 0.0
C1534 C 0.50273 0.06956 0.19573 0.0
C1535 C 0.50659 0.04886 0.19679 0.0
C1536 C 0.51214 0.03891 0.17911 0.0
C1537 C 0.50453 0.07969 0.17737 0.0
N1538 N 0.51003 0.06966 0.16037 0.0
H1539 H 0.51796 0.04153 0.14772 0.0
H1540 H 0.50178 0.09555 0.17709 0.0
H1541 H 0.54703 0.08098 0.1682 0.0
H1542 H 0.53629 0.12314 0.12263 0.0
O1543 O 0.53341 0.06496 0.12304 0.0
O1544 O 0.51961 0.09073 0.1072 0.0
O1545 O 0.49216 0.10365 0.13995 0.0
C1546 C 0.53238 0.07598 0.10693 0.0
H1547 H 0.4469 0.04612 0.12526 0.0
H1548 H 0.57589 0.10812 0.16942 0.0
H1549 H 0.49825 0.07789 0.20894 0.0
H1550 H 0.51562 0.02305 0.17913 0.0
Co1551 Co 0.51104 0.43494 0.13247 0.0
C1552 C 0.53346 0.46944 0.11441 0.0
C1553 C 0.54851 0.44152 0.10985 0.0
C1554 C 0.55873 0.4562 0.09953 0.0
N1555 N 0.53294 0.44983 0.1198 0.0
N1556 N 0.54922 0.47378 0.10242 0.0
H1557 H 0.52163 0.48002 0.11737 0.0
H1558 H 0.55161 0.42563 0.10905 0.0
C1559 C 0.54769 0.41452 0.14793 0.0
O1560 O 0.55417 0.43238 0.15326 0.0
N1561 N 0.48903 0.41987 0.14398 0.0
C1562 C 0.47447 0.42703 0.156 0.0
C1563 C 0.45988 0.41254 0.15811 0.0
C1564 C 0.48299 0.40126 0.13868 0.0
N1565 N 0.46515 0.39637 0.1471 0.0
C1566 C 0.51165 0.46906 0.15875 0.0
C1567 C 0.51824 0.44858 0.19415 0.0
C1568 C 0.51597 0.46954 0.19486 0.0
C1569 C 0.51282 0.4797 0.1767 0.0
C1570 C 0.51734 0.43852 0.17567 0.0
N1571 N 0.51467 0.44884 0.15811 0.0
H1572 H 0.50731 0.47714 0.14554 0.0
H1573 H 0.51814 0.42233 0.17559 0.0
H1574 H 0.47395 0.44209 0.162 0.0
H1575 H 0.49113 0.39185 0.12826 0.0
O1576 O 0.49199 0.45299 0.12031 0.0
O1577 O 0.50362 0.42517 0.1062 0.0
O1578 O 0.53025 0.41267 0.14011 0.0
C1579 C 0.49223 0.44098 0.10494 0.0
H1580 H 0.57171 0.45394 0.09004 0.0
H1581 H 0.4459 0.41426 0.16618 0.0
H1582 H 0.52 0.4399 0.20777 0.0
H1583 H 0.51088 0.49581 0.17624 0.0
H1584 H 0.22717 0.19717 0.35559 0.0
H1585 H 0.22638 0.18098 0.29291 0.0
H1586 H 0.20892 0.22791 0.34792 0.0
H1587 H 0.20932 0.21219 0.28488 0.0
H1588 H 0.16269 0.26103 0.27798 0.0
H1589 H 0.17952 0.22962 0.28613 0.0
H1590 H 0.21154 0.25955 0.33407 0.0
H1591 H 0.19369 0.29051 0.32645 0.0
C1592 C 0.22321 0.20033 0.34014 0.0
C1593 C 0.22806 0.18671 0.32486 0.0
C1594 C 0.21289 0.21803 0.33566 0.0
C1595 C 0.2076 0.22274 0.31571 0.0
C1596 C 0.21267 0.20902 0.30046 0.0
C1597 C 0.22258 0.19113 0.30502 0.0
C1598 C 0.17339 0.26079 0.29019 0.0
C1599 C 0.17691 0.27811 0.30161 0.0
C1600 C 0.18315 0.24282 0.29486 0.0
C1601 C 0.19701 0.24187 0.31082 0.0
C1602 C 0.20068 0.25943 0.322 0.0
C1603 C 0.19059 0.27725 0.31758 0.0
H1604 H 0.4234 0.55897 0.97301 0.0
H1605 H 0.45509 0.5288 0.92523 0.0
H1606 H 0.45362 0.57791 0.98114 0.0
H1607 H 0.48551 0.54724 0.93373 0.0
H1608 H 0.5302 0.59856 0.94067 0.0
H1609 H 0.49997 0.57996 0.93238 0.0
H1610 H 0.48626 0.57404 0.9955 0.0
H1611 H 0.5159 0.5936 1.00376 0.0
C1612 C 0.43685 0.55634 0.96429 0.0
C1613 C 0.43686 0.54244 0.94845 0.0
C1614 C 0.45424 0.56708 0.96904 0.0
C1615 C 0.47207 0.56409 0.95814 0.0
C1616 C 0.472 0.55016 0.94227 0.0
C1617 C 0.45458 0.53951 0.93745 0.0
C1618 C 0.52068 0.59349 0.95281 0.0
C1619 C 0.52556 0.59775 0.9729 0.0
C1620 C 0.50342 0.58256 0.94805 0.0
C1621 C 0.49062 0.57548 0.96325 0.0
C1622 C 0.49561 0.57949 0.98337 0.0
C1623 C 0.51283 0.59051 0.98813 0.0
H1624 H 0.83287 0.23715 0.32042 0.0
H1625 H 0.86462 0.26528 0.27153 0.0
H1626 H 0.81523 0.26835 0.32709 0.0
H1627 H 0.84764 0.297 0.27862 0.0
H1628 H 0.79844 0.34539 0.28593 0.0
H1629 H 0.8169 0.31477 0.27756 0.0
H1630 H 0.82052 0.30005 0.34071 0.0
H1631 H 0.80128 0.32989 0.34875 0.0
C1632 C 0.83621 0.25015 0.31125 0.0
C1633 C 0.85015 0.24887 0.29555 0.0
C1634 C 0.8262 0.26811 0.3151 0.0
C1635 C 0.83018 0.28539 0.30359 0.0
C1636 C 0.84401 0.284 0.28768 0.0
C1637 C 0.8538 0.26587 0.28363 0.0
C1638 C 0.80337 0.33561 0.29794 0.0
C1639 C 0.79831 0.33982 0.31794 0.0
C1640 C 0.81398 0.31809 0.29319 0.0
C1641 C 0.81997 0.30469 0.30842 0.0
C1642 C 0.81564 0.3096 0.3285 0.0
C1643 C 0.80476 0.32681 0.33316 0.0
H1644 H 0.48187 0.94005 0.94618 0.0
H1645 H 0.51126 0.91004 0.99529 0.0
H1646 H 0.5126 0.95844 0.93874 0.0
H1647 H 0.5425 0.92737 0.98731 0.0
H1648 H 0.5906 0.9748 0.98046 0.0
H1649 H 0.55949 0.95745 0.98839 0.0
H1650 H 0.54436 0.95619 0.92522 0.0
H1651 H 0.57497 0.97477 0.91763 0.0
C1652 C 0.49507 0.93729 0.95523 0.0
C1653 C 0.49427 0.92373 0.97131 0.0
C1654 C 0.51276 0.94769 0.95091 0.0
C1655 C 0.53024 0.94441 0.96232 0.0
C1656 C 0.52934 0.93069 0.9784 0.0
C1657 C 0.51149 0.92064 0.98298 0.0
C1658 C 0.58059 0.97076 0.9683 0.0
C1659 C 0.58513 0.97609 0.94844 0.0
C1660 C 0.56277 0.96067 0.97281 0.0
C1661 C 0.54926 0.95527 0.95748 0.0
C1662 C 0.55408 0.96043 0.93752 0.0
C1663 C 0.5717 0.97094 0.9331 0.0
H1664 H 0.16127 0.76407 0.2496 0.0
H1665 H 0.19042 0.7344 0.20014 0.0
H1666 H 0.17961 0.79489 0.24202 0.0
H1667 H 0.20966 0.76466 0.19306 0.0
H1668 H 0.2261 0.8267 0.17138 0.0
H1669 H 0.20744 0.79637 0.17951 0.0
H1670 H 0.21 0.81182 0.24255 0.0
H1671 H 0.22763 0.84276 0.23408 0.0
C1672 C 0.17189 0.76411 0.2373 0.0
C1673 C 0.17437 0.74694 0.22537 0.0
C1674 C 0.1825 0.78174 0.23296 0.0
C1675 C 0.19615 0.78248 0.21679 0.0
C1676 C 0.19895 0.76499 0.20526 0.0
C1677 C 0.18804 0.74755 0.20937 0.0
C1678 C 0.22261 0.82358 0.18696 0.0
C1679 C 0.22825 0.83708 0.20209 0.0
C1680 C 0.21203 0.80608 0.1917 0.0
C1681 C 0.20721 0.80139 0.21177 0.0
C1682 C 0.21304 0.81496 0.2269 0.0
C1683 C 0.22327 0.83268 0.22209 0.0
H1684 H 0.09843 0.55329 0.0416 0.0
H1685 H 0.07526 0.53908 0.10043 0.0
H1686 H 0.0675 0.57112 0.03365 0.0
H1687 H 0.0447 0.55757 0.09291 0.0
H1688 H 0.98419 0.57305 0.06666 0.0
H1689 H 0.01526 0.55537 0.0737 0.0
H1690 H 0.04825 0.60023 0.0403 0.0
H1691 H 0.01683 0.61754 0.03277 0.0
C1692 C 0.08679 0.55417 0.05291 0.0
C1693 C 0.08921 0.54472 0.0716 0.0
C1694 C 0.06908 0.56449 0.04841 0.0
C1695 C 0.05348 0.56578 0.06259 0.0
C1696 C 0.05615 0.55657 0.08143 0.0
C1697 C 0.07374 0.54606 0.08582 0.0
C1698 C 0.99809 0.57918 0.06092 0.0
C1699 C 0.9981 0.59675 0.04928 0.0
C1700 C 0.01597 0.56908 0.06501 0.0
C1701 C 0.0344 0.57642 0.05776 0.0
C1702 C 0.03436 0.59396 0.04594 0.0
C1703 C 0.01639 0.60394 0.04166 0.0
H1704 H 0.78646 0.69968 0.17266 0.0
H1705 H 0.81402 0.66941 0.22289 0.0
H1706 H 0.80526 0.73005 0.18066 0.0
H1707 H 0.83323 0.69958 0.23061 0.0
H1708 H 0.84457 0.76473 0.25185 0.0
H1709 H 0.82829 0.73293 0.24368 0.0
H1710 H 0.83849 0.74405 0.18058 0.0
H1711 H 0.85447 0.77589 0.18882 0.0
C1712 C 0.79668 0.69946 0.18529 0.0
C1713 C 0.79872 0.68218 0.19716 0.0
C1714 C 0.80757 0.71683 0.18982 0.0
C1715 C 0.8208 0.71728 0.20629 0.0
C1716 C 0.82299 0.69986 0.21799 0.0
C1717 C 0.81206 0.68252 0.21349 0.0
C1718 C 0.84361 0.7602 0.23628 0.0
C1719 C 0.85067 0.77287 0.22097 0.0
C1720 C 0.83427 0.74198 0.23157 0.0
C1721 C 0.83189 0.73599 0.21144 0.0
C1722 C 0.83964 0.74838 0.1962 0.0
C1723 C 0.84887 0.7666 0.20091 0.0
H1724 H 0.02737 0.92214 0.08111 0.0
H1725 H 0.01558 0.9285 0.01776 0.0
H1726 H 0.99538 0.93803 0.08878 0.0
H1727 H 0.98367 0.9448 0.02533 0.0
H1728 H 0.92021 0.96035 0.04651 0.0
H1729 H 0.95031 0.94086 0.03898 0.0
H1730 H 0.98166 0.97104 0.08708 0.0
H1731 H 0.95153 0.98997 0.09491 0.0
C1732 C 0.0179 0.92696 0.06883 0.0
C1733 C 0.02403 0.92421 0.04886 0.0
C1734 C 0.9996 0.93613 0.0732 0.0
C1735 C 0.98704 0.94295 0.05768 0.0
C1736 C 0.99287 0.93958 0.03766 0.0
C1737 C 0.01116 0.93024 0.03329 0.0
C1738 C 0.93352 0.96271 0.05552 0.0
C1739 C 0.93349 0.97666 0.07133 0.0
C1740 C 0.95081 0.95163 0.05113 0.0
C1741 C 0.96842 0.95431 0.06246 0.0
C1742 C 0.96828 0.96828 0.07828 0.0
C1743 C 0.95103 0.97927 0.08269 0.0
H1744 H 0.26933 0.18157 0.26711 0.0
H1745 H 0.3325 0.17196 0.2775 0.0
H1746 H 0.27709 0.19843 0.23555 0.0
H1747 H 0.3403 0.18859 0.24586 0.0
H1748 H 0.34784 0.24021 0.20129 0.0
H1749 H 0.33994 0.22173 0.23182 0.0
H1750 H 0.28972 0.19365 0.20192 0.0
H1751 H 0.29736 0.21259 0.17147 0.0
C1752 C 0.28486 0.18277 0.26251 0.0
C1753 C 0.30031 0.17549 0.27488 0.0
C1754 C 0.28932 0.19244 0.24439 0.0
C1755 C 0.30934 0.195 0.23817 0.0
C1756 C 0.32474 0.18727 0.25035 0.0
C1757 C 0.32028 0.17769 0.26848 0.0
C1758 C 0.33514 0.23006 0.20121 0.0
C1759 C 0.32322 0.22788 0.18396 0.0
C1760 C 0.33067 0.21935 0.2187 0.0
C1761 C 0.31421 0.20612 0.21937 0.0
C1762 C 0.30236 0.20387 0.20203 0.0
C1763 C 0.30681 0.21463 0.18454 0.0
H1764 H 0.41304 0.49144 0.01383 0.0
H1765 H 0.44574 0.44487 0.9832 0.0
H1766 H 0.43033 0.48326 0.04503 0.0
H1767 H 0.46389 0.4372 0.01399 0.0
H1768 H 0.48006 0.41488 0.07591 0.0
H1769 H 0.46121 0.42255 0.04552 0.0
H1770 H 0.46075 0.48537 0.06191 0.0
H1771 H 0.47854 0.47737 0.09276 0.0
C1772 C 0.42417 0.47963 0.01379 0.0
C1773 C 0.42807 0.46875 0.9962 0.0
C1774 C 0.43417 0.47495 0.03162 0.0
C1775 C 0.44858 0.45952 0.03216 0.0
C1776 C 0.4526 0.44885 0.01437 0.0
C1777 C 0.44232 0.45329 0.99667 0.0
C1778 C 0.4758 0.43029 0.07298 0.0
C1779 C 0.48068 0.44552 0.08665 0.0
C1780 C 0.46513 0.43475 0.05549 0.0
C1781 C 0.45946 0.45464 0.0511 0.0
C1782 C 0.46445 0.46984 0.06488 0.0
C1783 C 0.47477 0.4653 0.08254 0.0
H1784 H 0.68871 0.34346 0.27873 0.0
H1785 H 0.75162 0.34338 0.26288 0.0
H1786 H 0.68091 0.32621 0.24764 0.0
H1787 H 0.74391 0.32504 0.23246 0.0
H1788 H 0.72195 0.31025 0.16963 0.0
H1789 H 0.72911 0.32887 0.20031 0.0
H1790 H 0.6836 0.2947 0.23155 0.0
H1791 H 0.67599 0.2767 0.20069 0.0
C1792 C 0.70093 0.33977 0.26872 0.0
C1793 C 0.72082 0.34499 0.2735 0.0
C1794 C 0.69645 0.3296 0.25093 0.0
C1795 C 0.71176 0.32419 0.23745 0.0
C1796 C 0.73167 0.32921 0.24229 0.0
C1797 C 0.73614 0.33953 0.26001 0.0
C1798 C 0.71342 0.30682 0.18304 0.0
C1799 C 0.69839 0.29205 0.18274 0.0
C1800 C 0.71762 0.31738 0.20069 0.0
C1801 C 0.707 0.31327 0.21851 0.0
C1802 C 0.69189 0.29852 0.21809 0.0
C1803 C 0.68758 0.2881 0.20041 0.0
H1804 H 0.59432 0.01752 1.00827 0.0
H1805 H 0.60046 0.08071 0.99551 0.0
H1806 H 0.57746 0.02546 0.0398 0.0
H1807 H 0.58395 0.08875 0.02714 0.0
H1808 H 0.53133 0.09485 0.07063 0.0
H1809 H 0.55077 0.08701 0.04073 0.0
H1810 H 0.58104 0.03955 0.0729 0.0
H1811 H 0.56111 0.04707 0.10269 0.0
C1812 C 0.59243 0.03311 0.01241 0.0
C1813 C 0.59859 0.0485 0.99937 0.0
C1814 C 0.58276 0.03768 0.03048 0.0
C1815 C 0.57915 0.05776 0.03594 0.0
C1816 C 0.58605 0.07313 0.02321 0.0
C1817 C 0.59558 0.06854 1.00512 0.0
C1818 C 0.54217 0.08277 0.07134 0.0
C1819 C 0.54466 0.07156 0.089 0.0
C1820 C 0.55344 0.07835 0.05423 0.0
C1821 C 0.56756 0.06268 0.05439 0.0
C1822 C 0.57015 0.05156 0.07216 0.0
C1823 C 0.5588 0.05595 0.08927 0.0
H1824 H 0.30149 0.81071 0.34853 0.0
H1825 H 0.34873 0.77868 0.31789 0.0
H1826 H 0.29474 0.82983 0.31813 0.0
H1827 H 0.34158 0.79739 0.28723 0.0
H1828 H 0.27191 0.84173 0.25474 0.0
H1829 H 0.28028 0.82442 0.28573 0.0
H1830 H 0.34336 0.82999 0.27173 0.0
H1831 H 0.33483 0.84714 0.24044 0.0
C1832 C 0.31043 0.80775 0.33527 0.0
C1833 C 0.32559 0.79315 0.33556 0.0
C1834 C 0.30647 0.81862 0.31781 0.0
C1835 C 0.31751 0.81505 0.30017 0.0
C1836 C 0.33294 0.80068 0.30059 0.0
C1837 C 0.33697 0.78988 0.31813 0.0
C1838 C 0.28757 0.83952 0.25839 0.0
C1839 C 0.30274 0.84592 0.24522 0.0
C1840 C 0.29239 0.82957 0.27618 0.0
C1841 C 0.31251 0.82588 0.2813 0.0
C1842 C 0.3277 0.83236 0.26813 0.0
C1843 C 0.32285 0.84221 0.25025 0.0
H1844 H 0.02542 0.43038 0.95698 0.0
H1845 H 0.06857 0.46283 0.92106 0.0
H1846 H 0.04463 0.43851 0.98732 0.0
H1847 H 0.08799 0.47045 0.95132 0.0
H1848 H 0.12627 0.45553 1.00909 0.0
H1849 H 0.10692 0.44699 0.97901 0.0
H1850 H 0.05447 0.47458 1.00498 0.0
H1851 H 0.07401 0.48351 0.03496 0.0
C1852 C 0.0391 0.43906 0.95557 0.0
C1853 C 0.04556 0.44597 0.93672 0.0
C1854 C 0.04997 0.44379 0.97289 0.0
C1855 C 0.0677 0.4551 0.97155 0.0
C1856 C 0.07437 0.46166 0.95267 0.0
C1857 C 0.06327 0.45733 0.93542 0.0
C1858 C 0.1106 0.45967 1.00837 0.0
C1859 C 0.10156 0.47011 0.02429 0.0
C1860 C 0.0996 0.4549 0.99118 0.0
C1861 C 0.07926 0.4601 0.9898 0.0
C1862 C 0.07012 0.47034 1.0058 0.0
C1863 C 0.08127 0.47552 0.02282 0.0
H1864 H 0.74033 0.65088 0.26544 0.0
H1865 H 0.71053 0.699 0.23404 0.0
H1866 H 0.73158 0.66652 0.29757 0.0
H1867 H 0.70206 0.71466 0.26576 0.0
H1868 H 0.67151 0.72792 0.32413 0.0
H1869 H 0.68019 0.70969 0.2937 0.0
H1870 H 0.73827 0.69553 0.31872 0.0
H1871 H 0.72928 0.71336 0.34949 0.0
C1872 C 0.73205 0.66484 0.26541 0.0
C1873 C 0.72587 0.67354 0.24721 0.0
C1874 C 0.72704 0.67382 0.28378 0.0
C1875 C 0.71585 0.69172 0.28428 0.0
C1876 C 0.71017 0.70059 0.26601 0.0
C1877 C 0.71506 0.69161 0.24777 0.0
C1878 C 0.68608 0.72081 0.32319 0.0
C1879 C 0.69975 0.72218 0.33914 0.0
C1880 C 0.69112 0.71045 0.30569 0.0
C1881 C 0.71005 0.70134 0.30362 0.0
C1882 C 0.72353 0.70223 0.31984 0.0
C1883 C 0.71841 0.71252 0.33744 0.0
H1884 H 0.90968 0.07922 0.01676 0.0
H1885 H 0.94159 0.02305 0.02254 0.0
H1886 H 0.9284 0.08673 0.98638 0.0
H1887 H 0.95994 0.03049 0.99179 0.0
H1888 H 0.97137 0.04216 0.92416 0.0
H1889 H 0.95278 0.03447 0.95484 0.0
H1890 H 0.96396 0.09448 0.97659 0.0
H1891 H 0.98254 0.1022 0.94592 0.0
C1892 C 0.92075 0.0685 0.01173 0.0
C1893 C 0.92408 0.0505 0.0223 0.0
C1894 C 0.93146 0.07283 0.99423 0.0
C1895 C 0.94564 0.05921 0.98673 0.0
C1896 C 0.94893 0.04117 0.99712 0.0
C1897 C 0.93835 0.0369 0.01475 0.0
C1898 C 0.96981 0.05373 0.93547 0.0
C1899 C 0.97837 0.0728 0.93264 0.0
C1900 C 0.95929 0.04927 0.95308 0.0
C1901 C 0.95694 0.06387 0.96811 0.0
C1902 C 0.96539 0.08299 0.96519 0.0
C1903 C 0.97609 0.08738 0.94768 0.0
H1904 H 0.28043 0.33465 0.1736 0.0
H1905 H 0.26577 0.2716 0.17794 0.0
H1906 H 0.24991 0.34292 0.1917 0.0
H1907 H 0.23586 0.27984 0.19701 0.0
H1908 H 0.17293 0.30224 0.21158 0.0
H1909 H 0.20333 0.29423 0.19288 0.0
H1910 H 0.23494 0.34149 0.22412 0.0
H1911 H 0.20436 0.34988 0.24229 0.0
C1912 C 0.27078 0.32251 0.17843 0.0
C1913 C 0.27566 0.30243 0.17415 0.0
C1914 C 0.25334 0.32727 0.18906 0.0
C1915 C 0.24035 0.31207 0.19584 0.0
C1916 C 0.24534 0.29197 0.19179 0.0
C1917 C 0.26273 0.28722 0.18106 0.0
C1918 C 0.18636 0.31097 0.21437 0.0
C1919 C 0.18624 0.32672 0.22837 0.0
C1920 C 0.20385 0.30628 0.20377 0.0
C1921 C 0.22166 0.31716 0.20701 0.0
C1922 C 0.22146 0.33297 0.22101 0.0
C1923 C 0.20394 0.33773 0.23151 0.0
H1924 H 0.19342 0.66919 0.29159 0.0
H1925 H 0.16983 0.72747 0.30712 0.0
H1926 H 0.22436 0.67694 0.30929 0.0
H1927 H 0.20117 0.73552 0.32449 0.0
H1928 H 0.25554 0.73541 0.36796 0.0
H1929 H 0.22285 0.72764 0.35309 0.0
H1930 H 0.25259 0.69846 0.30343 0.0
H1931 H 0.28493 0.70602 0.31829 0.0
C1932 C 0.19485 0.68368 0.29883 0.0
C1933 C 0.17928 0.69779 0.29784 0.0
C1934 C 0.21264 0.68818 0.30888 0.0
C1935 C 0.21538 0.70697 0.31806 0.0
C1936 C 0.19951 0.72086 0.31768 0.0
C1937 C 0.18159 0.71629 0.30768 0.0
C1938 C 0.25502 0.72742 0.35383 0.0
C1939 C 0.27282 0.72112 0.34444 0.0
C1940 C 0.23632 0.72298 0.3453 0.0
C1941 C 0.23508 0.7122 0.32719 0.0
C1942 C 0.25294 0.70631 0.31766 0.0
C1943 C 0.27153 0.71066 0.32618 0.0
H1944 H 1.00389 0.50918 0.92748 0.0
H1945 H 0.94076 0.49615 0.92191 0.0
H1946 H 0.99593 0.54106 0.94374 0.0
H1947 H 0.93266 0.52812 0.93766 0.0
H1948 H 0.92631 0.57195 0.98986 0.0
H1949 H 0.93423 0.54198 0.97056 0.0
H1950 H 0.98185 0.57402 0.94027 0.0
H1951 H 0.97429 0.60384 0.96009 0.0
C1952 C 0.98832 0.51337 0.92933 0.0
C1953 C 0.97294 0.50015 0.92362 0.0
C1954 C 0.98372 0.53162 0.93865 0.0
C1955 C 0.96363 0.53707 0.94228 0.0
C1956 C 0.94829 0.52421 0.9356 0.0
C1957 C 0.9529 0.50594 0.92648 0.0
C1958 C 0.93843 0.57261 0.97904 0.0
C1959 C 0.94969 0.59023 0.97652 0.0
C1960 C 0.9429 0.55546 0.96785 0.0
C1961 C 0.95865 0.55557 0.95376 0.0
C1962 C 0.96979 0.57331 0.95114 0.0
C1963 C 0.96538 0.59044 0.96242 0.0
H1964 H 0.84495 0.79147 0.29713 0.0
H1965 H 0.82511 0.85299 0.29401 0.0
H1966 H 0.81415 0.78226 0.31456 0.0
H1967 H 0.7948 0.84418 0.31245 0.0
H1968 H 0.73332 0.81982 0.32675 0.0
H1969 H 0.76417 0.82809 0.30902 0.0
H1970 H 0.79597 0.78389 0.34436 0.0
H1971 H 0.76468 0.77506 0.36127 0.0
C1972 C 0.83409 0.80308 0.3005 0.0
C1973 C 0.83733 0.82292 0.29419 0.0
C1974 C 0.81645 0.79784 0.31058 0.0
C1975 C 0.8018 0.81242 0.31492 0.0
C1976 C 0.80541 0.8324 0.30898 0.0
C1977 C 0.82287 0.83753 0.29855 0.0
C1978 C 0.74695 0.81191 0.33064 0.0
C1979 C 0.74668 0.79684 0.34535 0.0
C1980 C 0.7647 0.81671 0.32061 0.0
C1981 C 0.78276 0.80684 0.32532 0.0
C1982 C 0.78239 0.79164 0.34004 0.0
C1983 C 0.76449 0.78659 0.34981 0.0
H1984 H 0.56698 0.53497 0.4458 0.0
H1985 H 0.53212 0.50481 0.40027 0.0
H1986 H 0.57428 0.50304 0.46156 0.0
H1987 H 0.53962 0.47247 0.41609 0.0
H1988 H 0.54117 0.42199 0.46519 0.0
H1989 H 0.53312 0.45269 0.44665 0.0
H1990 H 0.59393 0.47359 0.45508 0.0
H1991 H 0.60172 0.44339 0.47394 0.0
C1992 C 0.56111 0.52147 0.43896 0.0
C1993 C 0.54919 0.52242 0.42161 0.0
C1994 C 0.56529 0.50311 0.44802 0.0
C1995 C 0.55777 0.48515 0.43993 0.0
C1996 C 0.54556 0.48605 0.42274 0.0
C1997 C 0.54129 0.50454 0.41367 0.0
C1998 C 0.55281 0.43312 0.4629 0.0
C1999 C 0.57199 0.43044 0.47119 0.0
C2000 C 0.54824 0.45065 0.45223 0.0
C2001 C 0.56281 0.46571 0.44963 0.0
C2002 C 0.58221 0.46252 0.45723 0.0
C2003 C 0.58671 0.44516 0.46796 0.0
H2004 H 0.25364 0.7517 0.67543 0.0
H2005 H 0.23953 0.68849 0.67145 0.0
H2006 H 0.28355 0.74379 0.69465 0.0
H2007 H 0.27003 0.68057 0.68958 0.0
H2008 H 0.31529 0.67363 0.73994 0.0
H2009 H 0.28472 0.6821 0.72189 0.0
H2010 H 0.31622 0.7297 0.69096 0.0
H2011 H 0.34663 0.72163 0.70963 0.0
C2012 C 0.25681 0.73612 0.67864 0.0
C2013 C 0.24402 0.72076 0.67178 0.0
C2014 C 0.27419 0.73156 0.68946 0.0
C2015 C 0.27931 0.71152 0.69363 0.0
C2016 C 0.26649 0.69619 0.68688 0.0
C2017 C 0.24906 0.70074 0.6762 0.0
C2018 C 0.31569 0.68589 0.72926 0.0
C2019 C 0.33336 0.69695 0.72618 0.0
C2020 C 0.29818 0.6907 0.71882 0.0
C2021 C 0.29796 0.70658 0.70491 0.0
C2022 C 0.31573 0.71758 0.70178 0.0
C2023 C 0.33321 0.71286 0.71236 0.0
H2024 H 0.94107 0.53794 0.58391 0.0
H2025 H 0.9907 0.50806 0.61245 0.0
H2026 H 0.93335 0.50754 0.56507 0.0
H2027 H 0.98241 0.47712 0.5948 0.0
H2028 H 0.97492 0.42967 0.54701 0.0
H2029 H 0.98307 0.46052 0.5647 0.0
H2030 H 0.91999 0.4758 0.56654 0.0
H2031 H 0.91223 0.44553 0.54755 0.0
C2032 C 0.95016 0.52469 0.58626 0.0
C2033 C 0.96649 0.52526 0.59949 0.0
C2034 C 0.94569 0.50718 0.57562 0.0
C2035 C 0.95717 0.48965 0.57836 0.0
C2036 C 0.97345 0.49032 0.59185 0.0
C2037 C 0.97819 0.50799 0.60209 0.0
C2038 C 0.96285 0.43968 0.55125 0.0
C2039 C 0.94297 0.43529 0.54595 0.0
C2040 C 0.96747 0.45735 0.56154 0.0
C2041 C 0.95223 0.47082 0.56722 0.0
C2042 C 0.93224 0.46614 0.5621 0.0
C2043 C 0.92771 0.44869 0.55135 0.0
H2044 H 0.06411 0.98447 0.56634 0.0
H2045 H 0.03634 0.01573 0.61581 0.0
H2046 H 0.07202 0.01623 0.55045 0.0
H2047 H 0.04443 0.04785 0.59986 0.0
H2048 H 0.04325 0.09929 0.55279 0.0
H2049 H 0.03568 0.06832 0.57086 0.0
H2050 H 0.09375 0.04474 0.55441 0.0
H2051 H 0.10108 0.07546 0.53596 0.0
C2052 C 0.05994 0.99815 0.57399 0.0
C2053 C 0.04977 0.99754 0.59247 0.0
C2054 C 0.06449 0.01642 0.56486 0.0
C2055 C 0.05906 0.03463 0.57396 0.0
C2056 C 0.0487 0.03408 0.59237 0.0
C2057 C 0.04407 0.01571 0.60152 0.0
C2058 C 0.05443 0.08751 0.55314 0.0
C2059 C 0.07271 0.08973 0.54285 0.0
C2060 C 0.05013 0.06981 0.56359 0.0
C2061 C 0.06405 0.05398 0.56399 0.0
C2062 C 0.08254 0.05648 0.5541 0.0
C2063 C 0.08679 0.07412 0.5436 0.0
H2064 H 0.74745 0.70488 0.83977 0.0
H2065 H 0.70242 0.66851 0.81061 0.0
H2066 H 0.72817 0.73515 0.83174 0.0
H2067 H 0.68296 0.69874 0.80307 0.0
H2068 H 0.64558 0.75675 0.81859 0.0
H2069 H 0.66517 0.72665 0.82627 0.0
H2070 H 0.71662 0.75269 0.79675 0.0
H2071 H 0.69682 0.78272 0.78872 0.0
C2072 C 0.73337 0.70336 0.83179 0.0
C2073 C 0.72638 0.68438 0.82584 0.0
C2074 C 0.72245 0.72066 0.82711 0.0
C2075 C 0.70413 0.7192 0.8168 0.0
C2076 C 0.69701 0.70021 0.81109 0.0
C2077 C 0.70815 0.68297 0.81537 0.0
C2078 C 0.66109 0.75605 0.81382 0.0
C2079 C 0.66975 0.77204 0.80313 0.0
C2080 C 0.67223 0.73882 0.8181 0.0
C2081 C 0.69237 0.73744 0.81212 0.0
C2082 C 0.70113 0.75349 0.80159 0.0
C2083 C 0.68983 0.77055 0.79692 0.0
H2084 H 0.95179 0.02754 0.42412 0.0
H2085 H 0.92156 0.06008 0.47128 0.0
H2086 H 0.98287 0.04523 0.43182 0.0
H2087 H 0.95247 0.07823 0.47863 0.0
H2088 H 0.01627 0.09094 0.5005 0.0
H2089 H 0.98512 0.07341 0.49286 0.0
H2090 H 0.99841 0.07756 0.42949 0.0
H2091 H 0.02971 0.09486 0.43724 0.0
C2092 C 0.95175 0.03858 0.43604 0.0
C2093 C 0.93423 0.0424 0.44711 0.0
C2094 C 0.96955 0.04882 0.44039 0.0
C2095 C 0.97022 0.06319 0.45585 0.0
C2096 C 0.95261 0.06706 0.46683 0.0
C2097 C 0.93484 0.05675 0.46253 0.0
C2098 C 0.01245 0.0883 0.48494 0.0
C2099 C 0.02547 0.09433 0.46946 0.0
C2100 C 0.99457 0.07823 0.48054 0.0
C2101 C 0.98921 0.07404 0.46054 0.0
C2102 C 1.0022 0.08021 0.44508 0.0
C2103 C 0.02013 0.09017 0.44949 0.0
H2104 H 0.3005 0.84404 0.79138 0.0
H2105 H 0.28948 0.82397 0.852 0.0
H2106 H 0.31805 0.81283 0.78416 0.0
H2107 H 0.30779 0.79311 0.84517 0.0
H2108 H 0.32099 0.73103 0.82016 0.0
H2109 H 0.30451 0.7627 0.82768 0.0
H2110 H 0.34723 0.7938 0.78994 0.0
H2111 H 0.36321 0.76186 0.78195 0.0
C2112 C 0.3021 0.83305 0.80325 0.0
C2113 C 0.29356 0.83638 0.82222 0.0
C2114 C 0.31226 0.81517 0.79916 0.0
C2115 C 0.31433 0.80031 0.81404 0.0
C2116 C 0.30616 0.80396 0.83319 0.0
C2117 C 0.29577 0.82172 0.83718 0.0
C2118 C 0.3269 0.74466 0.81359 0.0
C2119 C 0.34337 0.74398 0.80047 0.0
C2120 C 0.31752 0.76288 0.81795 0.0
C2121 C 0.32453 0.78093 0.8095 0.0
C2122 C 0.34116 0.78021 0.79648 0.0
C2123 C 0.35038 0.76193 0.79192 0.0
H2124 H 0.97941 0.45218 0.46027 0.0
H2125 H 0.01106 0.40497 0.49119 0.0
H2126 H 0.01085 0.46934 0.4538 0.0
H2127 H 0.04294 0.42203 0.48436 0.0
H2128 H 0.09388 0.46967 0.48423 0.0
H2129 H 0.06298 0.45143 0.49213 0.0
H2130 H 0.03974 0.46585 0.43332 0.0
H2131 H 0.07016 0.48449 0.42578 0.0
C2132 C 0.99316 0.44532 0.46546 0.0
C2133 C 0.99277 0.42706 0.476 0.0
C2134 C 0.01124 0.45516 0.46173 0.0
C2135 C 0.02952 0.44695 0.46829 0.0
C2136 C 0.02914 0.42885 0.4792 0.0
C2137 C 0.01092 0.41904 0.48308 0.0
C2138 C 0.08214 0.46888 0.47302 0.0
C2139 C 0.08435 0.47866 0.45446 0.0
C2140 C 0.06448 0.45834 0.4775 0.0
C2141 C 0.04875 0.4573 0.46344 0.0
C2142 C 0.0513 0.4667 0.4447 0.0
C2143 C 0.06881 0.47732 0.44031 0.0
H2144 H 0.71441 0.34619 0.72964 0.0
H2145 H 0.72771 0.32371 0.6703 0.0
H2146 H 0.69659 0.31508 0.73745 0.0
H2147 H 0.70992 0.29262 0.67814 0.0
H2148 H 0.65723 0.25039 0.69283 0.0
H2149 H 0.67467 0.28152 0.68524 0.0
H2150 H 0.70506 0.27857 0.74235 0.0
H2151 H 0.68799 0.24711 0.74988 0.0
C2152 C 0.71345 0.33464 0.71825 0.0
C2153 C 0.72241 0.33738 0.69935 0.0
C2154 C 0.70338 0.31679 0.72277 0.0
C2155 C 0.70189 0.30143 0.70841 0.0
C2156 C 0.71068 0.30427 0.68944 0.0
C2157 C 0.72093 0.32203 0.68499 0.0
C2158 C 0.66778 0.25615 0.70373 0.0
C2159 C 0.67118 0.24606 0.72198 0.0
C2160 C 0.67774 0.27407 0.69936 0.0
C2161 C 0.69123 0.28246 0.71318 0.0
C2162 C 0.69455 0.27256 0.7315 0.0
C2163 C 0.68471 0.25452 0.73582 0.0
H2164 H 0.59974 0.0593 0.55138 0.0
H2165 H 0.56884 0.02652 0.59802 0.0
H2166 H 0.56921 0.07811 0.54433 0.0
H2167 H 0.53812 0.04486 0.59059 0.0
H2168 H 0.50561 0.09077 0.52175 0.0
H2169 H 0.53681 0.07363 0.52974 0.0
H2170 H 0.52247 0.07702 0.59292 0.0
H2171 H 0.49104 0.09391 0.58479 0.0
C2172 C 0.5864 0.05608 0.5601 0.0
C2173 C 0.58669 0.04142 0.57525 0.0
C2174 C 0.56884 0.06678 0.55597 0.0
C2175 C 0.55112 0.06299 0.56683 0.0
C2176 C 0.55152 0.0484 0.58211 0.0
C2177 C 0.56911 0.03779 0.5863 0.0
C2178 C 0.50923 0.0881 0.53735 0.0
C2179 C 0.49586 0.09376 0.55265 0.0
C2180 C 0.52715 0.07825 0.54196 0.0
C2181 C 0.53223 0.07391 0.562 0.0
C2182 C 0.51893 0.0798 0.57731 0.0
C2183 C 0.50094 0.08953 0.57268 0.0
H2184 H 0.36745 0.25516 0.73581 0.0
H2185 H 0.32237 0.28743 0.70245 0.0
H2186 H 0.35083 0.22348 0.72754 0.0
H2187 H 0.30556 0.2561 0.69455 0.0
H2188 H 0.28981 0.19673 0.667 0.0
H2189 H 0.30889 0.22691 0.67469 0.0
H2190 H 0.32137 0.20386 0.73405 0.0
H2191 H 0.30281 0.17329 0.72599 0.0
C2192 C 0.35393 0.25548 0.72683 0.0
C2193 C 0.34634 0.27378 0.71963 0.0
C2194 C 0.34436 0.23735 0.72211 0.0
C2195 C 0.3269 0.23715 0.71022 0.0
C2196 C 0.31924 0.25555 0.70329 0.0
C2197 C 0.32887 0.27358 0.70786 0.0
C2198 C 0.29672 0.19807 0.68165 0.0
C2199 C 0.29473 0.1827 0.69593 0.0
C2200 C 0.30757 0.21544 0.68613 0.0
C2201 C 0.31652 0.218 0.7051 0.0
C2202 C 0.31487 0.20237 0.71923 0.0
C2203 C 0.30416 0.18487 0.71466 0.0
H2204 H 0.54035 0.44888 0.56629 0.0
H2205 H 0.50821 0.40503 0.53121 0.0
H2206 H 0.50893 0.46553 0.5745 0.0
H2207 H 0.47654 0.4211 0.53999 0.0
H2208 H 0.42537 0.46647 0.54287 0.0
H2209 H 0.45658 0.44949 0.53441 0.0
H2210 H 0.47965 0.4628 0.59361 0.0
H2211 H 0.44877 0.48062 0.60158 0.0
C2212 C 0.52648 0.44268 0.56054 0.0
C2213 C 0.5267 0.42567 0.54813 0.0
C2214 C 0.50842 0.45215 0.56532 0.0
C2215 C 0.49006 0.44466 0.55804 0.0
C2216 C 0.49034 0.42755 0.54563 0.0
C2217 C 0.50847 0.41826 0.54062 0.0
C2218 C 0.43712 0.46568 0.55407 0.0
C2219 C 0.43469 0.47491 0.57285 0.0
C2220 C 0.455 0.45584 0.54928 0.0
C2221 C 0.47078 0.45475 0.56328 0.0
C2222 C 0.46808 0.46367 0.58225 0.0
C2223 C 0.45031 0.47377 0.58691 0.0
H2224 H 0.78394 0.70065 0.78409 0.0
H2225 H 0.81147 0.64851 0.75753 0.0
H2226 H 0.79143 0.72007 0.75359 0.0
H2227 H 0.81855 0.66771 0.72695 0.0
H2228 H 0.80374 0.70614 0.66915 0.0
H2229 H 0.79521 0.68692 0.69937 0.0
H2230 H 0.82725 0.72984 0.73575 0.0
H2231 H 0.83627 0.74878 0.70553 0.0
C2232 C 0.79142 0.69336 0.77165 0.0
C2233 C 0.79725 0.67318 0.77312 0.0
C2234 C 0.79577 0.70443 0.75432 0.0
C2235 C 0.80556 0.69532 0.73802 0.0
C2236 C 0.81094 0.67502 0.73932 0.0
C2237 C 0.80702 0.66411 0.75679 0.0
C2238 C 0.809 0.71141 0.6836 0.0
C2239 C 0.82073 0.72887 0.68502 0.0
C2240 C 0.80414 0.70043 0.70083 0.0
C2241 C 0.81053 0.70701 0.7198 0.0
C2242 C 0.82206 0.72458 0.72126 0.0
C2243 C 0.82731 0.7353 0.704 0.0
H2244 H 0.95406 0.96528 0.599 0.0
H2245 H 0.9962 0.93048 0.56424 0.0
H2246 H 0.93468 0.97214 0.56853 0.0
H2247 H 0.97705 0.93785 0.53367 0.0
H2248 H 0.94825 0.98171 0.48444 0.0
H2249 H 0.96785 0.97345 0.51457 0.0
H2250 H 0.91502 0.94783 0.54192 0.0
H2251 H 0.8956 0.95568 0.51169 0.0
C2252 C 0.95917 0.95913 0.58484 0.0
C2253 C 0.97658 0.94731 0.58394 0.0
C2254 C 0.94808 0.96301 0.56748 0.0
C2255 C 0.95446 0.95554 0.54885 0.0
C2256 C 0.97192 0.94382 0.54789 0.0
C2257 C 0.98277 0.93954 0.56535 0.0
C2258 C 0.94092 0.97427 0.4969 0.0
C2259 C 0.92049 0.96924 0.49578 0.0
C2260 C 0.9521 0.96948 0.51402 0.0
C2261 C 0.94287 0.96002 0.53046 0.0
C2262 C 0.92242 0.95515 0.52941 0.0
C2263 C 0.91138 0.95952 0.51213 0.0
H2264 H 0.16817 0.78882 0.69512 0.0
H2265 H 0.22563 0.80468 0.66966 0.0
H2266 H 0.17653 0.80722 0.72554 0.0
H2267 H 0.23433 0.82263 0.70042 0.0
H2268 H 0.23552 0.86758 0.75334 0.0
H2269 H 0.22714 0.85149 0.72133 0.0
H2270 H 0.19833 0.80306 0.75352 0.0
H2271 H 0.20636 0.81923 0.78511 0.0
C2272 C 0.18262 0.79622 0.69605 0.0
C2273 C 0.19628 0.79522 0.68007 0.0
C2274 C 0.18748 0.80668 0.71354 0.0
C2275 C 0.20622 0.81622 0.71556 0.0
C2276 C 0.21971 0.81561 0.69933 0.0
C2277 C 0.21476 0.80525 0.68174 0.0
C2278 C 0.22747 0.85347 0.75346 0.0
C2279 C 0.22134 0.84483 0.77171 0.0
C2280 C 0.22268 0.84423 0.73517 0.0
C2281 C 0.2118 0.8261 0.73482 0.0
C2282 C 0.20619 0.81728 0.75315 0.0
C2283 C 0.21084 0.82655 0.77131 0.0
H2284 H 0.11956 0.56747 0.51585 0.0
H2285 H 0.06732 0.54039 0.48892 0.0
H2286 H 0.10039 0.57414 0.54651 0.0
H2287 H 0.04795 0.54744 0.51951 0.0
H2288 H 0.01902 0.58944 0.56953 0.0
H2289 H 0.03776 0.58202 0.53878 0.0
H2290 H 0.08188 0.54983 0.57347 0.0
H2291 H 0.06289 0.55677 0.60422 0.0
C2292 C 0.10392 0.56315 0.51645 0.0
C2293 C 0.09484 0.55352 0.50004 0.0
C2294 C 0.09303 0.56681 0.534 0.0
C2295 C 0.07274 0.56129 0.5353 0.0
C2296 C 0.06356 0.55189 0.5188 0.0
C2297 C 0.0746 0.54781 0.5014 0.0
C2298 C 0.03271 0.58076 0.57058 0.0
C2299 C 0.03954 0.57369 0.58923 0.0
C2300 C 0.04334 0.57645 0.553 0.0
C2301 C 0.06122 0.56538 0.55383 0.0
C2302 C 0.06815 0.55846 0.5725 0.0
C2303 C 0.05728 0.56237 0.59002 0.0
H2304 H 0.80858 0.31843 0.73281 0.0
H2305 H 0.78275 0.36854 0.7647 0.0
H2306 H 0.81673 0.30241 0.76446 0.0
H2307 H 0.79096 0.35237 0.79666 0.0
H2308 H 0.7916 0.30457 0.84843 0.0
H2309 H 0.78247 0.32269 0.81773 0.0
H2310 H 0.84002 0.30782 0.79192 0.0
H2311 H 0.84891 0.28958 0.82218 0.0
C2312 C 0.80483 0.32616 0.74658 0.0
C2313 C 0.79521 0.3449 0.74619 0.0
C2314 C 0.80948 0.31694 0.76477 0.0
C2315 C 0.80469 0.32621 0.78309 0.0
C2316 C 0.79473 0.34479 0.78278 0.0
C2317 C 0.79005 0.35405 0.7645 0.0
C2318 C 0.8023 0.30534 0.83622 0.0
C2319 C 0.82088 0.29551 0.83761 0.0
C2320 C 0.79711 0.31575 0.81869 0.0
C2321 C 0.81043 0.31647 0.8023 0.0
C2322 C 0.82925 0.30718 0.80408 0.0
C2323 C 0.83438 0.2968 0.82148 0.0
H2324 H 0.59414 0.99932 0.51501 0.0
H2325 H 0.59695 0.93617 0.52954 0.0
H2326 H 0.57524 0.99148 0.48481 0.0
H2327 H 0.57906 0.92829 0.49881 0.0
H2328 H 0.52911 0.9222 0.45272 0.0
H2329 H 0.54681 0.93048 0.48359 0.0
H2330 H 0.57969 0.97686 0.45226 0.0
H2331 H 0.56146 0.96896 0.42153 0.0
C2332 C 0.59072 0.98377 0.51187 0.0
C2333 C 0.59716 0.96839 0.52481 0.0
C2334 C 0.58009 0.97925 0.49435 0.0
C2335 C 0.5757 0.95924 0.48928 0.0
C2336 C 0.58198 0.94389 0.5023 0.0
C2337 C 0.5925 0.94841 0.51985 0.0
C2338 C 0.54015 0.93413 0.45242 0.0
C2339 C 0.54392 0.94491 0.4347 0.0
C2340 C 0.55038 0.93883 0.47011 0.0
C2341 C 0.56471 0.95434 0.47045 0.0
C2342 C 0.56854 0.96504 0.45264 0.0
C2343 C 0.55821 0.96041 0.43497 0.0
H2344 H 0.22947 0.22795 0.84111 0.0
H2345 H 0.16688 0.2283 0.82472 0.0
H2346 H 0.23767 0.21086 0.80992 0.0
H2347 H 0.17474 0.21004 0.79402 0.0
H2348 H 0.19605 0.19371 0.73175 0.0
H2349 H 0.18861 0.21224 0.76237 0.0
H2350 H 0.23665 0.18089 0.79273 0.0
H2351 H 0.24462 0.16335 0.76162 0.0
C2352 C 0.21742 0.22409 0.83089 0.0
C2353 C 0.19755 0.22944 0.83529 0.0
C2354 C 0.22209 0.21415 0.81303 0.0
C2355 C 0.20691 0.20891 0.79928 0.0
C2356 C 0.18695 0.21414 0.80391 0.0
C2357 C 0.18236 0.22448 0.8216 0.0
C2358 C 0.20501 0.19092 0.74501 0.0
C2359 C 0.22091 0.17717 0.74436 0.0
C2360 C 0.20068 0.2014 0.76265 0.0
C2361 C 0.21189 0.19808 0.78026 0.0
C2362 C 0.22786 0.18424 0.77949 0.0
C2363 C 0.23244 0.17408 0.76169 0.0
H2364 H 0.39848 0.56312 0.5076 0.0
H2365 H 0.4486 0.52931 0.53052 0.0
H2366 H 0.41769 0.57123 0.47726 0.0
H2367 H 0.46811 0.53791 0.50033 0.0
H2368 H 0.49799 0.58583 0.45421 0.0
H2369 H 0.47927 0.57636 0.48454 0.0
H2370 H 0.43523 0.54614 0.44798 0.0
H2371 H 0.45418 0.55501 0.41773 0.0
C2372 C 0.41364 0.5575 0.50611 0.0
C2373 C 0.42212 0.54563 0.52131 0.0
C2374 C 0.42456 0.56207 0.48881 0.0
C2375 C 0.44433 0.55524 0.48662 0.0
C2376 C 0.45289 0.54339 0.5018 0.0
C2377 C 0.44175 0.5384 0.51892 0.0
C2378 C 0.48431 0.57718 0.45269 0.0
C2379 C 0.47749 0.57116 0.43368 0.0
C2380 C 0.47372 0.57168 0.46999 0.0
C2381 C 0.45591 0.56052 0.46847 0.0
C2382 C 0.44895 0.55475 0.44946 0.0
C2383 C 0.45978 0.55981 0.43222 0.0
H2384 H 0.6735 0.78972 0.72405 0.0
H2385 H 0.69244 0.85113 0.73206 0.0
H2386 H 0.70457 0.78242 0.70619 0.0
H2387 H 0.72299 0.84429 0.71329 0.0
H2388 H 0.78492 0.82198 0.69773 0.0
H2389 H 0.75383 0.82837 0.71576 0.0
H2390 H 0.72277 0.78698 0.67654 0.0
H2391 H 0.75429 0.78001 0.65921 0.0
C2392 C 0.68423 0.80172 0.72173 0.0
C2393 C 0.68065 0.82095 0.7295 0.0
C2394 C 0.70201 0.79759 0.71139 0.0
C2395 C 0.71646 0.81272 0.70829 0.0
C2396 C 0.71254 0.8321 0.71576 0.0
C2397 C 0.69494 0.8361 0.72641 0.0
C2398 C 0.7714 0.81432 0.693 0.0
C2399 C 0.77195 0.80056 0.67708 0.0
C2400 C 0.75351 0.81803 0.70324 0.0
C2401 C 0.73561 0.80835 0.69757 0.0
C2402 C 0.73624 0.79452 0.68159 0.0
C2403 C 0.75426 0.79055 0.67157 0.0
H2404 H 0.78115 0.18689 0.84388 0.0
H2405 H 0.7648 0.24965 0.84405 0.0
H2406 H 0.74993 0.17881 0.82697 0.0
H2407 H 0.73421 0.24167 0.82607 0.0
H2408 H 0.67128 0.21878 0.81257 0.0
H2409 H 0.70226 0.22646 0.83045 0.0
H2410 H 0.73333 0.18143 0.79566 0.0
H2411 H 0.70219 0.1733 0.77838 0.0
C2412 C 0.771 0.19901 0.84031 0.0
C2413 C 0.77566 0.21895 0.8455 0.0
C2414 C 0.75313 0.19438 0.83034 0.0
C2415 C 0.73946 0.20957 0.82511 0.0
C2416 C 0.7442 0.22952 0.8301 0.0
C2417 C 0.76199 0.23415 0.8402 0.0
C2418 C 0.68472 0.21047 0.80883 0.0
C2419 C 0.68428 0.1954 0.79411 0.0
C2420 C 0.70254 0.21498 0.81896 0.0
C2421 C 0.72039 0.20462 0.8145 0.0
C2422 C 0.71986 0.18952 0.79975 0.0
C2423 C 0.70201 0.18492 0.78974 0.0
H2424 H 0.49952 0.99456 0.44181 0.0
H2425 H 0.44274 1.0001 0.41095 0.0
H2426 H 0.49236 0.02527 0.46031 0.0
H2427 H 0.43552 0.03043 0.42979 0.0
H2428 H 0.4207 0.07092 0.48378 0.0
H2429 H 0.42835 0.04017 0.46538 0.0
H2430 H 0.48813 0.0622 0.45343 0.0
H2431 H 0.4805 0.09296 0.47188 0.0
C2432 C 0.48559 1.0023 0.43882 0.0
C2433 C 0.47173 0.99469 0.42482 0.0
C2434 C 0.48149 0.01991 0.44949 0.0
C2435 C 0.46335 0.03021 0.44654 0.0
C2436 C 0.44949 0.02265 0.4326 0.0
C2437 C 0.45365 1.00518 0.42182 0.0
C2438 C 0.43547 0.06919 0.47723 0.0
C2439 C 0.44998 0.08436 0.47921 0.0
C2440 C 0.43982 0.05164 0.46662 0.0
C2441 C 0.45883 0.0488 0.45795 0.0
C2442 C 0.4734 0.0639 0.46009 0.0
C2443 C 0.46899 0.08155 0.47053 0.0
H2444 H 0.32227 0.35146 0.78662 0.0
H2445 H 0.34472 0.2929 0.80278 0.0
H2446 H 0.29168 0.34492 0.80561 0.0
H2447 H 0.31389 0.28603 0.82121 0.0
H2448 H 0.26339 0.2868 0.86757 0.0
H2449 H 0.29495 0.29444 0.85047 0.0
H2450 H 0.26209 0.32519 0.80378 0.0
H2451 H 0.23085 0.31789 0.82104 0.0
C2452 C 0.32061 0.33714 0.79415 0.0
C2453 C 0.33586 0.32268 0.79317 0.0
C2454 C 0.30303 0.33334 0.80497 0.0
C2455 C 0.30022 0.31489 0.81492 0.0
C2456 C 0.31561 0.3005 0.81402 0.0
C2457 C 0.33325 0.30438 0.80333 0.0
C2458 C 0.26299 0.29517 0.85365 0.0
C2459 C 0.24464 0.30186 0.84576 0.0
C2460 C 0.28104 0.29952 0.8438 0.0
C2461 C 0.28112 0.31052 0.82574 0.0
C2462 C 0.26271 0.3171 0.81786 0.0
C2463 C 0.24473 0.31288 0.82776 0.0
H2464 H 0.04308 1.00916 0.90164 0.0
H2465 H 0.065 0.04157 0.95329 0.0
H2466 H 0.05181 0.97747 0.9179 0.0
H2467 H 0.07358 1.01011 0.96953 0.0
H2468 H 0.1041 0.95189 0.98582 0.0
H2469 H 0.09686 0.98258 0.96728 0.0
H2470 H 0.04146 0.95651 0.94589 0.0
H2471 H 0.04898 0.92564 0.96406 0.0
C2472 C 0.04967 1.00951 0.91649 0.0
C2473 C 0.05343 0.0279 0.92611 0.0
C2474 C 0.05466 0.99138 0.92581 0.0
C2475 C 0.06349 0.99125 0.94499 0.0
C2476 C 0.0672 1.00966 0.95459 0.0
C2477 C 0.06226 0.02774 0.94526 0.0
C2478 C 0.09044 0.95268 0.97706 0.0
C2479 C 0.07707 0.9364 0.97645 0.0
C2480 C 0.08623 0.9703 0.96653 0.0
C2481 C 0.06851 0.97206 0.9552 0.0
C2482 C 0.05534 0.95559 0.95428 0.0
C2483 C 0.0596 0.93793 0.96478 0.0
H2484 H 0.76705 0.23994 0.15491 0.0
H2485 H 0.73667 0.20026 0.19607 0.0
H2486 H 0.79902 0.2324 0.17119 0.0
H2487 H 0.76824 0.19325 0.21288 0.0
H2488 H 0.82913 0.16857 0.22742 0.0
H2489 H 0.79841 0.17598 0.20917 0.0
H2490 H 0.81854 0.23706 0.20027 0.0
H2491 H 0.84973 0.22922 0.21772 0.0
C2492 C 0.76722 0.22978 0.1676 0.0
C2493 C 0.74943 0.22056 0.17413 0.0
C2494 C 0.78551 0.22548 0.17699 0.0
C2495 C 0.78636 0.21205 0.19331 0.0
C2496 C 0.76838 0.20321 0.20005 0.0
C2497 C 0.75021 0.20729 0.19048 0.0
C2498 C 0.82701 0.18354 0.22144 0.0
C2499 C 0.84178 0.19833 0.22401 0.0
C2500 C 0.80931 0.18787 0.2111 0.0
C2501 C 0.80577 0.20722 0.20337 0.0
C2502 C 0.82077 0.22194 0.20574 0.0
C2503 C 0.83863 0.21748 0.21583 0.0
H2504 H 0.42293 0.95157 0.02924 0.0
H2505 H 0.46943 0.91961 0.06101 0.0
H2506 H 0.43166 0.98218 0.04718 0.0
H2507 H 0.47778 0.95009 0.07951 0.0
H2508 H 0.50087 0.01256 0.09483 0.0
H2509 H 0.49273 0.98254 0.07572 0.0
H2510 H 0.42974 0.99726 0.07939 0.0
H2511 H 0.43793 0.02776 0.09746 0.0
C2512 C 0.43491 0.95104 0.0402 0.0
C2513 C 0.44547 0.93316 0.04373 0.0
C2514 C 0.43987 0.96859 0.05058 0.0
C2515 C 0.45543 0.96866 0.06485 0.0
C2516 C 0.46592 0.9507 0.06842 0.0
C2517 C 0.46103 0.93317 0.05794 0.0
C2518 C 0.48531 1.0096 0.09134 0.0
C2519 C 0.47008 0.02271 0.0978 0.0
C2520 C 0.4806 0.99218 0.08058 0.0
C2521 C 0.46055 0.98736 0.07605 0.0
C2522 C 0.44537 1.00054 0.08238 0.0
C2523 C 0.45007 0.01798 0.09302 0.0
H2524 H 0.60282 0.57268 0.03669 0.0
H2525 H 0.54618 0.59614 0.05753 0.0
H2526 H 0.59599 0.54105 0.05371 0.0
H2527 H 0.53902 0.56427 0.07411 0.0
H2528 H 0.54104 0.51074 0.11714 0.0
H2529 H 0.54859 0.54301 0.10155 0.0
H2530 H 0.57482 0.51229 0.05084 0.0
H2531 H 0.56752 0.48015 0.06658 0.0
C2532 C 0.58888 0.57106 0.04488 0.0
C2533 C 0.57504 0.5869 0.04575 0.0
C2534 C 0.58489 0.55286 0.05455 0.0
C2535 C 0.56689 0.55 0.06522 0.0
C2536 C 0.55315 0.56598 0.06626 0.0
C2537 C 0.5572 0.58424 0.05668 0.0
C2538 C 0.54833 0.51091 0.10262 0.0
C2539 C 0.55372 0.49285 0.09315 0.0
C2540 C 0.55264 0.52941 0.09365 0.0
C2541 C 0.56237 0.53032 0.07492 0.0
C2542 C 0.56768 0.51222 0.06544 0.0
C2543 C 0.56347 0.49375 0.07446 0.0
H2544 H 0.07241 0.2646 0.27997 0.0
H2545 H 0.04076 0.31529 0.25493 0.0
H2546 H 0.04134 0.24529 0.28026 0.0
H2547 H 1.00965 0.29601 0.25544 0.0
H2548 H 0.95416 0.26154 0.27685 0.0
H2549 H 0.98515 0.28091 0.27851 0.0
H2550 H 0.01817 0.22995 0.25604 0.0
H2551 H 0.98715 0.21061 0.25416 0.0
C2552 C 0.05886 0.27163 0.27446 0.0
C2553 C 0.05917 0.29152 0.26733 0.0
C2554 C 0.04103 0.26053 0.27464 0.0
C2555 C 0.02301 0.26906 0.2678 0.0
C2556 C 0.02321 0.28906 0.26105 0.0
C2557 C 0.04107 0.30014 0.26079 0.0
C2558 C 0.968 0.25448 0.27213 0.0
C2559 C 0.96808 0.2345 0.26528 0.0
C2560 C 0.98578 0.2656 0.2731 0.0
C2561 C 1.00415 0.25702 0.26735 0.0
C2562 C 1.00432 0.23695 0.26084 0.0
C2563 C 0.98652 0.22583 0.25979 0.0
H2564 H 0.51936 0.7091 0.03747 0.0
H2565 H 0.55102 0.7253 0.98328 0.0
H2566 H 0.49963 0.73973 0.03515 0.0
H2567 H 0.53108 0.75588 0.98075 0.0
H2568 H 0.50707 0.81877 0.99509 0.0
H2569 H 0.5263 0.78781 0.99617 0.0
H2570 H 0.47365 0.75576 0.01637 0.0
H2571 H 0.45466 0.78699 0.01628 0.0
C2572 C 0.52198 0.71911 0.02493 0.0
C2573 C 0.53678 0.7147 1.01055 0.0
C2574 C 0.5106 0.73669 0.02356 0.0
C2575 C 0.51363 0.75032 1.00771 0.0
C2576 C 0.52848 0.74591 0.99333 0.0
C2577 C 0.53993 0.72836 0.99476 0.0
C2578 C 0.49959 0.80516 0.9999 0.0
C2579 C 0.4793 0.80549 1.00577 0.0
C2580 C 0.51059 0.7873 1.00027 0.0
C2581 C 0.50161 0.7692 1.00644 0.0
C2582 C 0.48118 0.76943 0.01183 0.0
C2583 C 0.47018 0.78733 0.01151 0.0
H2584 H 0.98125 0.81384 0.2471 0.0
H2585 H 0.94726 0.75925 0.25414 0.0
H2586 H 0.01235 0.79455 0.24666 0.0
H2587 H 0.97805 0.73966 0.2524 0.0
H2588 H 0.03679 0.71182 0.27269 0.0
H2589 H 1.00565 0.73076 0.27092 0.0
H2590 H 0.03384 0.77295 0.23031 0.0
H2591 H 0.06528 0.75448 0.23323 0.0
C2592 C 0.98048 0.79763 0.2481 0.0
C2593 C 0.96195 0.788 0.25073 0.0
C2594 C 0.99829 0.78649 0.24776 0.0
C2595 C 0.99793 0.7654 0.24964 0.0
C2596 C 0.97915 0.75583 0.25146 0.0
C2597 C 0.96143 0.76701 0.25224 0.0
C2598 C 0.03621 0.72509 0.26332 0.0
C2599 C 0.05341 0.73171 0.25312 0.0
C2600 C 0.0183 0.73595 0.26215 0.0
C2601 C 0.01699 0.75352 0.25041 0.0
C2602 C 0.03422 0.75981 0.23985 0.0
C2603 C 0.05224 0.74916 0.24137 0.0
H2604 H 1.00244 0.71152 0.98851 0.0
H2605 H 0.96943 0.72879 0.0416 0.0
H2606 H 0.02123 0.74277 0.98996 0.0
H2607 H 0.98806 0.76038 0.04273 0.0
H2608 H 0.01078 0.8235 0.02266 0.0
H2609 H 0.99198 0.792 0.023 0.0
H2610 H 0.04667 0.75933 0.01151 0.0
H2611 H 0.06541 0.79084 0.01083 0.0
C2612 C 0.99928 0.72186 1.00063 0.0
C2613 C 0.98447 0.71745 0.01505 0.0
C2614 C 1.01007 0.73984 1.00142 0.0
C2615 C 1.00625 0.75402 0.01653 0.0
C2616 C 0.99126 0.74982 0.0308 0.0
C2617 C 0.98054 0.73173 0.0301 0.0
C2618 C 0.01878 0.80959 0.0202 0.0
C2619 C 0.03959 0.80969 0.01664 0.0
C2620 C 1.00803 0.79153 0.02057 0.0
C2621 C 0.01781 0.77316 0.0172 0.0
C2622 C 0.03866 0.77324 0.01394 0.0
C2623 C 0.04943 0.79128 0.01375 0.0
H2624 H 0.28225 0.9556 0.25733 0.0
H2625 H 0.24698 0.98352 0.21069 0.0
H2626 H 0.28276 0.98708 0.27587 0.0
H2627 H 0.24826 0.01526 0.22881 0.0
H2628 H 0.23372 0.06131 0.27749 0.0
H2629 H 0.23435 0.03016 0.25851 0.0
H2630 H 0.29597 0.02073 0.27611 0.0
H2631 H 0.29528 0.05197 0.29527 0.0
C2632 C 0.27466 0.96847 0.25097 0.0
C2633 C 0.26446 0.96691 0.23253 0.0
C2634 C 0.27517 0.98663 0.26152 0.0
C2635 C 0.26549 1.00377 0.25393 0.0
C2636 C 0.25564 1.00232 0.23528 0.0
C2637 C 0.25513 0.98415 0.22473 0.0
C2638 C 0.24748 0.05271 0.27718 0.0
C2639 C 0.26449 0.05927 0.28785 0.0
C2640 C 0.24786 0.03482 0.26624 0.0
C2641 C 0.26525 0.02292 0.26561 0.0
C2642 C 0.28223 0.02937 0.27641 0.0
C2643 C 0.28185 0.0473 0.28742 0.0
H2644 H 0.29164 0.51613 0.95836 0.0
H2645 H 0.32231 0.49288 1.01054 0.0
H2646 H 0.26028 0.51643 0.97702 0.0
H2647 H 0.29121 0.49436 0.02956 0.0
H2648 H 0.22788 0.48214 0.05304 0.0
H2649 H 0.25899 0.47969 0.03384 0.0
H2650 H 0.24424 0.53476 1.00293 0.0
H2651 H 0.21302 0.53687 0.02178 0.0
C2652 C 0.29171 0.51097 0.97377 0.0
C2653 C 0.30961 0.50453 0.9829 0.0
C2654 C 0.27374 0.51144 0.98461 0.0
C2655 C 0.27316 0.50561 1.00491 0.0
C2656 C 0.29098 0.49882 0.01393 0.0
C2657 C 0.30892 0.49823 1.00306 0.0
C2658 C 0.23139 0.49377 0.04222 0.0
C2659 C 0.21795 0.50965 0.03887 0.0
C2660 C 0.24923 0.49239 0.03121 0.0
C2661 C 0.25415 0.50697 0.0167 0.0
C2662 C 0.24079 0.523 0.01361 0.0
C2663 C 0.22291 0.52428 0.02449 0.0
H2664 H 0.78875 0.54803 0.23271 0.0
H2665 H 0.72581 0.56033 0.24276 0.0
H2666 H 0.78603 0.518 0.25327 0.0
H2667 H 0.72306 0.52944 0.26234 0.0
H2668 H 0.72819 0.45808 0.27255 0.0
H2669 H 0.72858 0.49008 0.25431 0.0
H2670 H 0.77709 0.51085 0.29181 0.0
H2671 H 0.7764 0.47904 0.31033 0.0
C2672 C 0.77435 0.54453 0.23936 0.0
C2673 C 0.75755 0.55695 0.23609 0.0
C2674 C 0.77282 0.52719 0.25107 0.0
C2675 C 0.75438 0.52149 0.25948 0.0
C2676 C 0.73746 0.5335 0.25596 0.0
C2677 C 0.73905 0.55113 0.24457 0.0
C2678 C 0.73873 0.46962 0.27704 0.0
C2679 C 0.75224 0.46615 0.29286 0.0
C2680 C 0.73891 0.4879 0.26667 0.0
C2681 C 0.75292 0.50286 0.27162 0.0
C2682 C 0.7662 0.49951 0.28766 0.0
C2683 C 0.76572 0.48141 0.29832 0.0
H2684 H 0.81245 0.98814 0.02027 0.0
H2685 H 0.79389 0.04014 0.05419 0.0
H2686 H 0.78103 0.98877 1.00189 0.0
H2687 H 0.76187 0.0402 0.03633 0.0
H2688 H 0.71509 0.04591 0.98557 0.0
H2689 H 0.74706 0.04659 1.00351 0.0
H2690 H 0.7463 0.98187 1.007 0.0
H2691 H 0.71503 0.98114 0.98835 0.0
C2692 C 0.80169 0.99977 0.0238 0.0
C2693 C 0.80581 0.01416 0.03868 0.0
C2694 C 0.78351 0.99997 0.0134 0.0
C2695 C 0.76882 0.01449 0.01765 0.0
C2696 C 0.7729 0.02892 0.03253 0.0
C2697 C 0.79117 0.02873 0.04295 0.0
C2698 C 0.72187 0.03182 0.98998 0.0
C2699 C 0.71242 0.01347 0.98551 0.0
C2700 C 0.74008 0.03223 1.00049 0.0
C2701 C 0.7493 0.01429 1.00672 0.0
C2702 C 0.73981 0.99598 1.00224 0.0
C2703 C 0.72169 0.99557 0.99175 0.0
H2704 H 0.24172 0.29588 0.96158 0.0
H2705 H 0.22929 0.23282 0.97026 0.0
H2706 H 0.25998 0.29654 0.99331 0.0
H2707 H 0.24864 0.23313 1.00096 0.0
H2708 H 0.26699 0.24222 0.06496 0.0
H2709 H 0.24786 0.24353 0.03416 0.0
H2710 H 0.28994 0.28641 1.00966 0.0
H2711 H 0.30836 0.28626 0.04128 0.0
C2712 C 0.24284 0.28215 0.9702 0.0
C2713 C 0.234 0.26428 0.96318 0.0
C2714 C 0.25361 0.28246 0.9883 0.0
C2715 C 0.2559 0.26488 0.99984 0.0
C2716 C 0.24703 0.24707 0.99277 0.0
C2717 C 0.23614 0.24681 0.97486 0.0
C2718 C 0.27206 0.25225 0.05322 0.0
C2719 C 0.28925 0.26425 0.05585 0.0
C2720 C 0.2612 0.25274 0.03529 0.0
C2721 C 0.26733 0.26498 0.0192 0.0
C2722 C 0.28457 0.27695 0.02174 0.0
C2723 C 0.29535 0.27664 0.03983 0.0
H2724 H 0.25607 0.7481 0.44708 0.0
H2725 H 0.31041 0.75971 0.48044 0.0
H2726 H 0.23685 0.74849 0.47828 0.0
H2727 H 0.29131 0.75946 0.51164 0.0
H2728 H 0.24785 0.78245 0.5594 0.0
H2729 H 0.26665 0.7809 0.52815 0.0
H2730 H 0.23167 0.72957 0.5096 0.0
H2731 H 0.21285 0.73103 0.54106 0.0
C2732 C 0.26392 0.75067 0.46107 0.0
C2733 C 0.28478 0.75395 0.46124 0.0
C2734 C 0.25293 0.75069 0.47897 0.0
C2735 C 0.26252 0.75409 0.49745 0.0
C2736 C 0.28342 0.75705 0.49764 0.0
C2737 C 0.29441 0.75696 0.47977 0.0
C2738 C 0.24427 0.77069 0.54878 0.0
C2739 C 0.22892 0.75676 0.55285 0.0
C2740 C 0.25507 0.76981 0.53084 0.0
C2741 C 0.25078 0.75502 0.51643 0.0
C2742 C 0.23524 0.74126 0.52032 0.0
C2743 C 0.22443 0.74211 0.53833 0.0
H2744 H 0.03758 0.48331 0.8053 0.0
H2745 H 0.97326 0.48911 0.81075 0.0
H2746 H 0.03679 0.5022 0.77425 0.0
H2747 H 0.97233 0.5071 0.77881 0.0
H2748 H 0.98089 0.55667 0.73133 0.0
H2749 H 0.98091 0.53838 0.76307 0.0
H2750 H 0.02743 0.49941 0.74039 0.0
H2751 H 0.02829 0.51836 0.70935 0.0
C2752 C 0.02321 0.48861 0.7999 0.0
C2753 C 1.0055 0.48476 0.81074 0.0
C2754 C 0.02273 0.49924 0.78184 0.0
C2755 C 1.00448 0.50617 0.77385 0.0
C2756 C 0.98669 0.50221 0.78457 0.0
C2757 C 0.9872 0.49163 0.80278 0.0
C2758 C 0.9913 0.54436 0.7332 0.0
C2759 C 1.00458 0.53906 0.71766 0.0
C2760 C 0.99111 0.53366 0.75134 0.0
C2761 C 1.00418 0.51737 0.7544 0.0
C2762 C 0.01734 0.51202 0.73878 0.0
C2763 C 0.01761 0.52276 0.72077 0.0
H2764 H 0.71959 0.79266 0.47481 0.0
H2765 H 0.75001 0.73732 0.46048 0.0
H2766 H 0.73827 0.79473 0.5063 0.0
H2767 H 0.76856 0.73933 0.49184 0.0
H2768 H 0.81284 0.75818 0.53976 0.0
H2769 H 0.79469 0.75843 0.50803 0.0
H2770 H 0.7413 0.77852 0.53874 0.0
H2771 H 0.75968 0.77908 0.57035 0.0
C2772 C 0.73014 0.78087 0.47843 0.0
C2773 C 0.73336 0.76489 0.46503 0.0
C2774 C 0.74087 0.78205 0.49648 0.0
C2775 C 0.75504 0.76727 0.50158 0.0
C2776 C 0.75811 0.75122 0.48823 0.0
C2777 C 0.74743 0.75005 0.47023 0.0
C2778 C 0.79733 0.76297 0.53972 0.0
C2779 C 0.78774 0.76856 0.55767 0.0
C2780 C 0.78683 0.76287 0.52154 0.0
C2781 C 0.76646 0.76834 0.52081 0.0
C2782 C 0.75699 0.77434 0.53868 0.0
C2783 C 0.76749 0.77444 0.55687 0.0
H2784 H 0.53795 0.46214 0.22922 0.0
H2785 H 0.49345 0.50251 0.2049 0.0
H2786 H 0.53732 0.48065 0.26077 0.0
H2787 H 0.49417 0.52187 0.23546 0.0
H2788 H 0.48268 0.54163 0.29847 0.0
H2789 H 0.48351 0.52169 0.26824 0.0
H2790 H 0.54673 0.51051 0.27724 0.0
H2791 H 0.54546 0.52913 0.30869 0.0
C2792 C 0.52809 0.47496 0.2305 0.0
C2793 C 0.51585 0.48078 0.21431 0.0
C2794 C 0.52796 0.48581 0.24855 0.0
C2795 C 0.5157 0.50286 0.25083 0.0
C2796 C 0.50358 0.50868 0.23457 0.0
C2797 C 0.50347 0.4977 0.21674 0.0
C2798 C 0.49673 0.53467 0.2943 0.0
C2799 C 0.51395 0.53694 0.3063 0.0
C2800 C 0.4973 0.52345 0.27663 0.0
C2801 C 0.51523 0.51448 0.27004 0.0
C2802 C 0.53257 0.51693 0.28188 0.0
C2803 C 0.53192 0.52794 0.29981 0.0
H2804 H 0.04092 0.0538 0.79307 0.0
H2805 H 0.98828 0.02036 0.81079 0.0
H2806 H 0.04127 0.0361 0.76088 0.0
H2807 H 0.98888 1.00245 0.77891 0.0
H2808 H 0.98265 0.9915 0.71144 0.0
H2809 H 0.98299 1.00962 0.7432 0.0
H2810 H 0.04716 1.00183 0.74706 0.0
H2811 H 0.04689 0.98402 0.71495 0.0
C2812 C 0.02943 0.04269 0.79009 0.0
C2813 C 0.01461 0.03847 0.80452 0.0
C2814 C 0.02974 0.03242 0.77174 0.0
C2815 C 0.0151 0.01786 0.76733 0.0
C2816 C 1.00027 0.0137 0.78175 0.0
C2817 C 1.00005 0.02383 0.80012 0.0
C2818 C 0.99687 0.9938 0.71895 0.0
C2819 C 0.01475 0.98635 0.7106 0.0
C2820 C 0.99703 1.00401 0.73727 0.0
C2821 C 0.01509 1.00714 0.74771 0.0
C2822 C 0.03302 0.99981 0.73933 0.0
C2823 C 0.03284 0.98944 0.72103 0.0
H2824 H 0.47939 0.70604 0.75586 0.0
H2825 H 0.44749 0.75788 0.77809 0.0
H2826 H 0.51073 0.72493 0.75706 0.0
H2827 H 0.47877 0.7768 0.77893 0.0
H2828 H 0.53436 0.80978 0.75321 0.0
H2829 H 0.50308 0.79082 0.75452 0.0
H2830 H 0.53435 0.74074 0.78109 0.0
H2831 H 0.56557 0.75977 0.78016 0.0
C2832 C 0.47905 0.72136 0.76125 0.0
C2833 C 0.46081 0.73042 0.76677 0.0
C2834 C 0.49704 0.73221 0.76188 0.0
C2835 C 0.49724 0.75242 0.76797 0.0
C2836 C 0.47909 0.76137 0.77383 0.0
C2837 C 0.46114 0.7505 0.77332 0.0
C2838 C 0.53455 0.79485 0.75962 0.0
C2839 C 0.55259 0.78633 0.7665 0.0
C2840 C 0.5166 0.78395 0.76033 0.0
C2841 C 0.51623 0.76423 0.76784 0.0
C2842 C 0.53418 0.75578 0.77492 0.0
C2843 C 0.5521 0.76671 0.77434 0.0
H2844 H 0.97324 0.29991 0.53925 0.0
H2845 H 0.98848 0.3119 0.47732 0.0
H2846 H 0.99322 0.26976 0.53844 0.0
H2847 H 1.00716 0.28052 0.47598 0.0
H2848 H 0.05516 0.23232 0.48538 0.0
H2849 H 0.03649 0.26373 0.486 0.0
H2850 H 0.9938 0.2373 0.52711 0.0
H2851 H 0.01327 0.20685 0.52793 0.0
C2852 C 0.98082 0.29616 0.52538 0.0
C2853 C 0.97928 0.30865 0.50841 0.0
C2854 C 0.99207 0.27851 0.5248 0.0
C2855 C 1.00183 0.27242 0.50709 0.0
C2856 C 1.00012 0.28475 0.48999 0.0
C2857 C 0.98908 0.30265 0.49066 0.0
C2858 C 0.04197 0.23331 0.49481 0.0
C2859 C 0.0358 0.21682 0.50652 0.0
C2860 C 0.03103 0.2513 0.49492 0.0
C2861 C 0.01352 0.25324 0.50661 0.0
C2862 C 1.00734 0.23668 0.51817 0.0
C2863 C 0.0184 0.2189 0.51832 0.0
H2864 H 0.47111 0.29182 0.72772 0.0
H2865 H 0.46099 0.27499 0.78951 0.0
H2866 H 0.50271 0.27313 0.72786 0.0
H2867 H 0.49232 0.25613 0.78955 0.0
H2868 H 0.56015 0.24446 0.7887 0.0
H2869 H 0.52879 0.26324 0.7879 0.0
H2870 H 0.51475 0.23747 0.73013 0.0
H2871 H 0.54637 0.21884 0.7308 0.0
C2872 C 0.47566 0.28418 0.74133 0.0
C2873 C 0.46353 0.28487 0.75859 0.0
C2874 C 0.49365 0.27332 0.74135 0.0
C2875 C 0.50002 0.26314 0.75871 0.0
C2876 C 0.48792 0.26394 0.77598 0.0
C2877 C 0.46988 0.2746 0.7759 0.0
C2878 C 0.55044 0.24288 0.77577 0.0
C2879 C 0.55578 0.23018 0.75979 0.0
C2880 C 0.53238 0.25352 0.77539 0.0
C2881 C 0.51926 0.25184 0.75896 0.0
C2882 C 0.52461 0.2392 0.74293 0.0
C2883 C 0.54262 0.22839 0.7434 0.0
H2884 H 0.51166 0.31849 0.52939 0.0
H2885 H 0.56389 0.28704 0.50744 0.0
H2886 H 0.49282 0.28714 0.52955 0.0
H2887 H 0.5451 0.2556 0.5081 0.0
H2888 H 0.50976 0.2004 0.53009 0.0
H2889 H 0.52871 0.23163 0.53179 0.0
H2890 H 0.4794 0.26312 0.50415 0.0
H2891 H 0.46055 0.23182 0.50194 0.0
C2892 C 0.51916 0.30493 0.52457 0.0
C2893 C 0.53933 0.30543 0.51824 0.0
C2894 C 0.50833 0.28693 0.5247 0.0
C2895 C 0.5174 0.26888 0.51872 0.0
C2896 C 0.53771 0.26922 0.51297 0.0
C2897 C 0.54852 0.28726 0.51267 0.0
C2898 C 0.50296 0.21391 0.52417 0.0
C2899 C 0.48358 0.21343 0.51575 0.0
C2900 C 0.51386 0.23184 0.52521 0.0
C2901 C 0.50561 0.24986 0.51807 0.0
C2902 C 0.48611 0.24953 0.51001 0.0
C2903 C 0.47526 0.23155 0.5088 0.0
H2904 H 0.72975 0.56027 0.77993 0.0
H2905 H 0.79062 0.54817 0.79833 0.0
H2906 H 0.72925 0.52907 0.76071 0.0
H2907 H 0.79012 0.51683 0.77899 0.0
H2908 H 0.78646 0.47506 0.72237 0.0
H2909 H 0.78763 0.50638 0.7417 0.0
H2910 H 0.73047 0.49184 0.76851 0.0
H2911 H 0.72932 0.46066 0.7493 0.0
C2912 C 0.74304 0.55093 0.77983 0.0
C2913 C 0.76023 0.55666 0.79061 0.0
C2914 C 0.74271 0.53302 0.76892 0.0
C2915 C 0.75966 0.52053 0.76832 0.0
C2916 C 0.7769 0.52625 0.77907 0.0
C2917 C 0.77712 0.54406 0.79026 0.0
C2918 C 0.77413 0.47865 0.73234 0.0
C2919 C 0.75783 0.46541 0.73437 0.0
C2920 C 0.77488 0.49646 0.74351 0.0
C2921 C 0.75916 0.50153 0.75665 0.0
C2922 C 0.74275 0.48839 0.75844 0.0
C2923 C 0.74215 0.47049 0.74754 0.0
H2924 H 0.70961 0.03812 0.52641 0.0
H2925 H 0.7239 0.97871 0.54784 0.0
H2926 H 0.74061 0.03866 0.50685 0.0
H2927 H 0.755 0.97921 0.52813 0.0
H2928 H 0.79595 0.98122 0.47086 0.0
H2929 H 0.76483 0.98017 0.49051 0.0
H2930 H 0.77808 0.0389 0.5144 0.0
H2931 H 0.80912 0.0399 0.49489 0.0
C2932 C 0.71938 0.02516 0.52689 0.0
C2933 C 0.71433 1.00836 0.53863 0.0
C2934 C 0.73717 0.02551 0.51578 0.0
C2935 C 0.7502 1.00896 0.51593 0.0
C2936 C 0.74516 0.99212 0.52762 0.0
C2937 C 0.72747 0.99189 0.53901 0.0
C2938 C 0.79211 0.99392 0.48023 0.0
C2939 C 0.80494 0.01064 0.48136 0.0
C2940 C 0.77442 0.99326 0.49159 0.0
C2941 C 0.76906 1.00944 0.50401 0.0
C2942 C 0.78177 0.02625 0.50489 0.0
C2943 C 0.79957 0.02678 0.49381 0.0
H2944 H 0.28618 0.96641 0.78198 0.0
H2945 H 0.2214 0.96501 0.78291 0.0
H2946 H 0.28538 0.99757 0.76323 0.0
H2947 H 0.22061 0.997 0.76496 0.0
H2948 H 0.2273 0.04443 0.71472 0.0
H2949 H 0.2271 0.0125 0.73277 0.0
H2950 H 0.27833 0.03196 0.76739 0.0
H2951 H 0.27923 0.06315 0.74871 0.0
C2952 C 0.27171 0.97272 0.77817 0.0
C2953 C 0.25385 0.963 0.78391 0.0
C2954 C 0.27126 0.99083 0.76762 0.0
C2955 C 0.25293 0.99997 0.7626 0.0
C2956 C 0.23501 0.99034 0.76837 0.0
C2957 C 0.23546 0.9721 0.77891 0.0
C2958 C 0.23865 0.0418 0.72603 0.0
C2959 C 0.25325 0.0565 0.73021 0.0
C2960 C 0.23838 0.02356 0.73659 0.0
C2961 C 0.25271 0.01954 0.75158 0.0
C2962 C 0.2672 0.03431 0.75579 0.0
C2963 C 0.26753 0.05242 0.74522 0.0
H2964 H 0.29975 0.47674 0.54274 0.0
H2965 H 0.30601 0.54072 0.53463 0.0
H2966 H 0.26843 0.47732 0.52383 0.0
H2967 H 0.27442 0.54136 0.51589 0.0
H2968 H 0.22899 0.52913 0.46439 0.0
H2969 H 0.26067 0.52884 0.48301 0.0
H2970 H 0.23389 0.49039 0.52782 0.0
H2971 H 0.20245 0.49044 0.50913 0.0
C2972 C 0.29442 0.49094 0.53691 0.0
C2973 C 0.30537 0.50868 0.54016 0.0
C2974 C 0.2764 0.49129 0.5262 0.0
C2975 C 0.26895 0.50938 0.51834 0.0
C2976 C 0.27987 0.52716 0.52161 0.0
C2977 C 0.29783 0.52683 0.53251 0.0
C2978 C 0.22996 0.52052 0.47814 0.0
C2979 C 0.21321 0.50986 0.48531 0.0
C2980 C 0.24801 0.5205 0.4889 0.0
C2981 C 0.24977 0.50963 0.50692 0.0
C2982 C 0.23307 0.49881 0.51394 0.0
C2983 C 0.21501 0.49897 0.50331 0.0
H2984 H 0.71191 0.25827 0.03688 0.0
H2985 H 0.76529 0.24448 0.07092 0.0
H2986 H 0.73131 0.25682 1.00591 0.0
H2987 H 0.78471 0.24323 0.03992 0.0
H2988 H 0.81567 0.2668 0.98191 0.0
H2989 H 0.7971 0.26571 0.0135 0.0
H2990 H 0.74919 0.23334 0.98426 0.0
H2991 H 0.76775 0.23429 0.95278 0.0
C2992 C 0.72772 0.25468 0.03778 0.0
C2993 C 0.73698 0.25153 0.05649 0.0
C2994 C 0.73888 0.25388 0.01998 0.0
C2995 C 0.75961 0.24993 0.02039 0.0
C2996 C 0.76885 0.2466 0.03906 0.0
C2997 C 0.75768 0.24734 0.05685 0.0
C2998 C 0.80133 0.25916 0.98229 0.0
C2999 C 0.79317 0.25078 0.9647 0.0
C3000 C 0.79064 0.25857 1.00041 0.0
C3001 C 0.77153 0.2496 1.00141 0.0
C3002 C 0.76366 0.24073 0.98396 0.0
C3003 C 0.77434 0.24127 0.96589 0.0
H3004 H 0.53571 0.99624 0.31232 0.0
H3005 H 0.47932 0.96807 0.29736 0.0
H3006 H 0.53437 0.01563 0.2814 0.0
H3007 H 0.47773 0.98778 0.26649 0.0
H3008 H 0.49247 0.01068 0.2032 0.0
H3009 H 0.49282 0.99145 0.23424 0.0
H3010 H 0.51716 0.04269 0.26565 0.0
H3011 H 0.51787 0.06156 0.23436 0.0
C3012 C 0.52291 0.99433 0.30249 0.0
C3013 C 0.50759 0.98065 0.30735 0.0
C3014 C 0.52209 1.00553 0.28477 0.0
C3015 C 0.50587 1.00343 0.27143 0.0
C3016 C 0.49058 0.98963 0.27624 0.0
C3017 C 0.49147 0.97833 0.29395 0.0
C3018 C 0.49806 0.01782 0.21669 0.0
C3019 C 0.50532 0.03766 0.21616 0.0
C3020 C 0.49801 1.00685 0.23459 0.0
C3021 C 0.5051 0.01543 0.25251 0.0
C3022 C 0.51188 0.03544 0.2521 0.0
C3023 C 0.51202 0.0464 0.23417 0.0
H3024 H 0.13325 0.45936 0.113 0.0
H3025 H 0.1649 0.49064 0.16021 0.0
H3026 H 0.12898 0.43051 0.13495 0.0
H3027 H 0.1604 0.46166 0.18228 0.0
H3028 H 0.16308 0.39711 0.20892 0.0
H3029 H 0.16994 0.4257 0.18699 0.0
H3030 H 0.109 0.42348 0.1652 0.0
H3031 H 0.10204 0.39525 0.18717 0.0
C3032 C 0.13942 0.46008 0.12802 0.0
C3033 C 0.14933 0.47742 0.13485 0.0
C3034 C 0.13685 0.44354 0.14065 0.0
C3035 C 0.14415 0.44387 0.16044 0.0
C3036 C 0.15468 0.46091 0.16709 0.0
C3037 C 0.15719 0.47754 0.15445 0.0
C3038 C 0.15107 0.40282 0.19962 0.0
C3039 C 0.13202 0.39368 0.19977 0.0
C3040 C 0.15504 0.4192 0.18701 0.0
C3041 C 0.14008 0.42673 0.1742 0.0
C3042 C 0.121 0.41777 0.17456 0.0
C3043 C 0.11701 0.40153 0.18718 0.0
H3044 H 0.71032 0.61947 0.15825 0.0
H3045 H 0.74393 0.64486 0.10891 0.0
H3046 H 0.68026 0.61875 0.1373 0.0
H3047 H 0.7139 0.64442 0.08816 0.0
H3048 H 0.65914 0.62948 0.05082 0.0
H3049 H 0.68914 0.6235 0.07102 0.0
H3050 H 0.65775 0.64427 0.12377 0.0
H3051 H 0.62771 0.64965 0.10375 0.0
C3052 C 0.71137 0.62466 0.14288 0.0
C3053 C 0.72951 0.63235 0.13531 0.0
C3054 C 0.69411 0.62438 0.13091 0.0
C3055 C 0.69462 0.63167 0.11109 0.0
C3056 C 0.71298 0.63852 0.10328 0.0
C3057 C 0.7302 0.63889 0.11525 0.0
C3058 C 0.65856 0.63246 0.06678 0.0
C3059 C 0.64105 0.64019 0.07562 0.0
C3060 C 0.67581 0.6292 0.07833 0.0
C3061 C 0.67589 0.63346 0.09902 0.0
C3062 C 0.65818 0.64063 0.10794 0.0
C3063 C 0.64101 0.64397 0.09639 0.0
H3064 H 0.89943 0.14779 0.16894 0.0
H3065 H 0.88711 0.11199 0.22142 0.0
H3066 H 0.89155 0.11933 0.14748 0.0
H3067 H 0.87998 0.08303 0.20008 0.0
H3068 H 0.85374 0.0382 0.15558 0.0
H3069 H 0.85808 0.06781 0.17675 0.0
H3070 H 0.90515 0.08887 0.13731 0.0
H3071 H 0.90017 0.05996 0.11588 0.0
C3072 C 0.89522 0.13371 0.17587 0.0
C3073 C 0.89404 0.13203 0.19683 0.0
C3074 C 0.89075 0.11732 0.16359 0.0
C3075 C 0.88533 0.09869 0.17197 0.0
C3076 C 0.88384 0.09714 0.19301 0.0
C3077 C 0.88801 0.11369 0.20529 0.0
C3078 C 0.86489 0.04927 0.15139 0.0
C3079 C 0.87651 0.04676 0.13398 0.0
C3080 C 0.86749 0.0662 0.16361 0.0
C3081 C 0.88196 0.08087 0.1588 0.0
C3082 C 0.89354 0.07823 0.14134 0.0
C3083 C 0.89076 0.06151 0.12905 0.0
H3084 H 0.36839 0.84976 0.07712 0.0
H3085 H 0.3821 0.91268 0.07044 0.0
H3086 H 0.34187 0.85793 0.101 0.0
H3087 H 0.35539 0.92096 0.09436 0.0
H3088 H 0.32723 0.91974 0.15965 0.0
H3089 H 0.35044 0.91535 0.13164 0.0
H3090 H 0.30843 0.87512 0.10311 0.0
H3091 H 0.28517 0.87949 0.13108 0.0
C3092 C 0.36563 0.86535 0.0807 0.0
C3093 C 0.37737 0.88056 0.07199 0.0
C3094 C 0.35032 0.87006 0.09422 0.0
C3095 C 0.34652 0.8901 0.09955 0.0
C3096 C 0.35803 0.90538 0.09059 0.0
C3097 C 0.3732 0.90066 0.07681 0.0
C3098 C 0.32279 0.91021 0.14726 0.0
C3099 C 0.3044 0.89985 0.14771 0.0
C3100 C 0.33607 0.90777 0.13116 0.0
C3101 C 0.33134 0.89475 0.11525 0.0
C3102 C 0.31259 0.88507 0.11528 0.0
C3103 C 0.29922 0.88768 0.13126 0.0
H3104 H 0.09707 0.61547 0.31977 0.0
H3105 H 0.15602 0.6399 0.32958 0.0
H3106 H 0.10448 0.58775 0.34242 0.0
H3107 H 0.16323 0.61325 0.35361 0.0
H3108 H 0.17703 0.55693 0.38807 0.0
H3109 H 0.1707 0.58091 0.36119 0.0
H3110 H 0.10723 0.57881 0.37492 0.0
H3111 H 0.11363 0.55376 0.40051 0.0
C3112 C 0.1116 0.61488 0.327 0.0
C3113 C 0.12598 0.62971 0.32302 0.0
C3114 C 0.11587 0.59911 0.34018 0.0
C3115 C 0.13445 0.59812 0.35029 0.0
C3116 C 0.1489 0.61304 0.346 0.0
C3117 C 0.14479 0.62847 0.33232 0.0
C3118 C 0.16173 0.56146 0.38506 0.0
C3119 C 0.14583 0.5534 0.3963 0.0
C3120 C 0.15804 0.57542 0.36976 0.0
C3121 C 0.13839 0.58214 0.3657 0.0
C3122 C 0.12253 0.57385 0.37702 0.0
C3123 C 0.12618 0.55949 0.39189 0.0
H3124 H 0.81155 0.64991 0.86715 0.0
H3125 H 0.79054 0.60284 0.90649 0.0
H3126 H 0.84081 0.65466 0.88828 0.0
H3127 H 0.82042 0.60687 0.92722 0.0
H3128 H 0.86449 0.63461 0.97225 0.0
H3129 H 0.83557 0.62802 0.95079 0.0
H3130 H 0.8715 0.64191 0.89851 0.0
H3131 H 0.89998 0.64929 0.92017 0.0
C3132 C 0.81334 0.64032 0.88016 0.0
C3133 C 0.79864 0.62602 0.88513 0.0
C3134 C 0.83026 0.64296 0.89228 0.0
C3135 C 0.83316 0.63116 0.90958 0.0
C3136 C 0.81862 0.61653 0.91428 0.0
C3137 C 0.80152 0.61408 0.90229 0.0
C3138 C 0.86615 0.63612 0.95615 0.0
C3139 C 0.88443 0.6426 0.9479 0.0
C3140 C 0.8496 0.63226 0.94378 0.0
C3141 C 0.85102 0.63448 0.92279 0.0
C3142 C 0.86957 0.64048 0.91458 0.0
C3143 C 0.88598 0.64465 0.92698 0.0
H3144 H 0.87378 0.95496 0.40814 0.0
H3145 H 0.87236 0.99432 0.35662 0.0
H3146 H 0.87776 0.926 0.38576 0.0
H3147 H 0.87693 0.96543 0.33444 0.0
H3148 H 0.91789 0.91051 0.31229 0.0
H3149 H 0.90985 0.9391 0.33398 0.0
H3150 H 0.85547 0.9095 0.35292 0.0
H3151 H 0.86327 0.88104 0.33068 0.0
C3152 C 0.87415 0.95741 0.39207 0.0
C3153 C 0.87274 0.97692 0.38413 0.0
C3154 C 0.87636 0.94085 0.37931 0.0
C3155 C 0.87768 0.94358 0.35845 0.0
C3156 C 0.87596 0.963 0.35049 0.0
C3157 C 0.87327 0.97948 0.36319 0.0
C3158 C 0.90422 0.91017 0.32107 0.0
C3159 C 0.89119 0.89363 0.31988 0.0
C3160 C 0.89959 0.9265 0.33336 0.0
C3161 C 0.88207 0.92642 0.34506 0.0
C3162 C 0.86907 0.90984 0.34403 0.0
C3163 C 0.87347 0.89369 0.3313 0.0
H3164 H 0.15932 0.89862 0.97066 0.0
H3165 H 0.12862 0.86795 0.92257 0.0
H3166 H 0.18745 0.90574 0.94811 0.0
H3167 H 0.15644 0.87514 0.90012 0.0
H3168 H 0.21815 0.86795 0.87353 0.0
H3169 H 0.19039 0.86363 0.89651 0.0
H3170 H 0.19843 0.92429 0.91785 0.0
H3171 H 0.22674 0.92862 0.89464 0.0
C3172 C 0.15848 0.89359 0.95524 0.0
C3173 C 0.14183 0.88247 0.9485 0.0
C3174 C 0.17457 0.8977 0.94231 0.0
C3175 C 0.17433 0.89081 0.92236 0.0
C3176 C 0.15737 0.88026 0.91552 0.0
C3177 C 0.14139 0.8761 0.92841 0.0
C3178 C 0.21393 0.88052 0.88289 0.0
C3179 C 0.22446 0.89879 0.88191 0.0
C3180 C 0.19794 0.87802 0.89612 0.0
C3181 C 0.19191 0.89371 0.90882 0.0
C3182 C 0.20271 0.91189 0.90828 0.0
C3183 C 0.21887 0.9144 0.89495 0.0
H3184 H 0.17074 0.11492 0.37244 0.0
H3185 H 0.21519 0.14835 0.4056 0.0
H3186 H 0.1456 0.12311 0.39779 0.0
H3187 H 0.18993 0.15659 0.4311 0.0
H3188 H 0.14208 0.14199 0.48218 0.0
H3189 H 0.16875 0.13732 0.45732 0.0
H3190 H 0.12787 0.15446 0.41014 0.0
H3191 H 0.10133 0.15926 0.4348 0.0
C3192 C 0.17515 0.12396 0.3852 0.0
C3193 C 0.19494 0.13097 0.38704 0.0
C3194 C 0.16071 0.12881 0.39962 0.0
C3195 C 0.16578 0.14056 0.41639 0.0
C3196 C 0.18562 0.14747 0.41836 0.0
C3197 C 0.20001 0.14287 0.40372 0.0
C3198 C 0.13887 0.14505 0.46654 0.0
C3199 C 0.11951 0.15089 0.4605 0.0
C3200 C 0.15416 0.14241 0.45232 0.0
C3201 C 0.15032 0.14532 0.43177 0.0
C3202 C 0.13119 0.15185 0.42584 0.0
C3203 C 0.11602 0.15472 0.44003 0.0
H3204 H 0.36522 0.60819 0.7826 0.0
H3205 H 0.40007 0.65434 0.81189 0.0
H3206 H 0.36951 0.58638 0.8116 0.0
H3207 H 0.40436 0.63238 0.8411 0.0
H3208 H 0.37601 0.59916 0.89689 0.0
H3209 H 0.37965 0.61996 0.86696 0.0
H3210 H 0.39456 0.56737 0.83221 0.0
H3211 H 0.39069 0.5465 0.86224 0.0
C3212 C 0.37406 0.61357 0.79513 0.0
C3213 C 0.38216 0.63305 0.79503 0.0
C3214 C 0.37664 0.601 0.8117 0.0
C3215 C 0.38719 0.6077 0.82867 0.0
C3216 C 0.39601 0.62689 0.82828 0.0
C3217 C 0.39366 0.6394 0.81153 0.0
C3218 C 0.38016 0.59206 0.88289 0.0
C3219 C 0.38285 0.57117 0.88186 0.0
C3220 C 0.38249 0.604 0.8658 0.0
C3221 C 0.38737 0.5953 0.84722 0.0
C3222 C 0.39068 0.57448 0.84631 0.0
C3223 C 0.38858 0.56256 0.86349 0.0
H3224 H 0.89837 0.36629 0.4614 0.0
H3225 H 0.85876 0.40915 0.48963 0.0
H3226 H 0.87727 0.36698 0.43117 0.0
H3227 H 0.83818 0.41002 0.45951 0.0
H3228 H 0.82747 0.42718 0.39268 0.0
H3229 H 0.8474 0.42315 0.42322 0.0
H3230 H 0.83858 0.35905 0.42063 0.0
H3231 H 0.81832 0.36315 0.39007 0.0
C3232 C 0.88511 0.37566 0.46126 0.0
C3233 C 0.88032 0.38772 0.47791 0.0
C3234 C 0.87305 0.37602 0.444 0.0
C3235 C 0.85624 0.38869 0.44301 0.0
C3236 C 0.85118 0.40027 0.45983 0.0
C3237 C 0.86296 0.39968 0.47711 0.0
C3238 C 0.82982 0.41225 0.39862 0.0
C3239 C 0.82131 0.3955 0.38909 0.0
C3240 C 0.84112 0.40994 0.41611 0.0
C3241 C 0.84447 0.39079 0.42426 0.0
C3242 C 0.83624 0.37396 0.4146 0.0
C3243 C 0.82456 0.37632 0.39726 0.0
H3244 H 0.60914 0.95579 0.87949 0.0
H3245 H 0.67107 0.93672 0.87782 0.0
H3246 H 0.60173 0.9339 0.85106 0.0
H3247 H 0.66351 0.91469 0.8498 0.0
H3248 H 0.63895 0.86147 0.81529 0.0
H3249 H 0.64405 0.88355 0.84392 0.0
H3250 H 0.60985 0.92994 0.81441 0.0
H3251 H 0.6046 0.90778 0.78563 0.0
C3252 C 0.62123 0.94711 0.87304 0.0
C3253 C 0.64072 0.94801 0.88116 0.0
C3254 C 0.61694 0.93451 0.85675 0.0
C3255 C 0.63198 0.92241 0.84831 0.0
C3256 C 0.65148 0.92351 0.85622 0.0
C3257 C 0.6558 0.93617 0.87236 0.0
C3258 C 0.63235 0.87631 0.8149 0.0
C3259 C 0.62144 0.88286 0.79806 0.0
C3260 C 0.63539 0.88902 0.83129 0.0
C3261 C 0.62754 0.90857 0.83135 0.0
C3262 C 0.61603 0.91493 0.81485 0.0
C3263 C 0.61308 0.90224 0.79834 0.0
H3264 H 0.22193 0.89465 0.11421 0.0
H3265 H 0.16982 0.88681 0.15175 0.0
H3266 H 0.20144 0.88856 0.08439 0.0
H3267 H 0.14945 0.87985 0.12229 0.0
H3268 H 0.1139 0.89194 0.0659 0.0
H3269 H 0.13483 0.8961 0.09521 0.0
H3270 H 0.18316 0.86507 0.06511 0.0
H3271 H 0.1624 0.86204 0.0351 0.0
C3272 C 0.20612 0.8914 0.11604 0.0
C3273 C 0.1974 0.89149 0.13523 0.0
C3274 C 0.19436 0.88777 0.09899 0.0
C3275 C 0.17366 0.88384 0.10081 0.0
C3276 C 0.16517 0.88335 0.12016 0.0
C3277 C 0.17684 0.8873 0.1371 0.0
C3278 C 0.12901 0.88611 0.06539 0.0
C3279 C 0.13649 0.87692 0.04795 0.0
C3280 C 0.14102 0.88825 0.08241 0.0
C3281 C 0.1608 0.88094 0.08267 0.0
C3282 C 0.16814 0.87123 0.0654 0.0
C3283 C 0.15615 0.8693 0.04822 0.0
H3284 H 0.14404 0.60335 0.1234 0.0
H3285 H 0.13248 0.55022 0.15852 0.0
H3286 H 0.1367 0.62428 0.15241 0.0
H3287 H 0.12575 0.57107 0.18794 0.0
H3288 H 0.10023 0.61506 0.23381 0.0
H3289 H 0.10396 0.59441 0.20376 0.0
H3290 H 0.15142 0.63351 0.18299 0.0
H3291 H 0.1472 0.65437 0.21249 0.0
C3292 C 0.14005 0.59616 0.13742 0.0
C3293 C 0.139 0.57517 0.13876 0.0
C3294 C 0.1359 0.60814 0.15411 0.0
C3295 C 0.13086 0.59942 0.17269 0.0
C3296 C 0.12935 0.57837 0.17388 0.0
C3297 C 0.13326 0.56638 0.15705 0.0
C3298 C 0.11136 0.61929 0.22273 0.0
C3299 C 0.1233 0.63647 0.22549 0.0
C3300 C 0.11359 0.60737 0.20555 0.0
C3301 C 0.12795 0.61226 0.19082 0.0
C3302 C 0.13988 0.62946 0.1937 0.0
C3303 C 0.13751 0.64144 0.21072 0.0
H3304 H 0.85951 0.65074 0.02972 0.0
H3305 H 0.91178 0.6458 0.06767 0.0
H3306 H 0.83792 0.64499 0.05879 0.0
H3307 H 0.8901 0.64001 0.09677 0.0
H3308 H 0.84089 0.64819 0.14643 0.0
H3309 H 0.8628 0.65736 0.1182 0.0
H3310 H 0.83231 0.61419 0.08074 0.0
H3311 H 0.8106 0.6051 0.10877 0.0
C3312 C 0.86639 0.64868 0.0443 0.0
C3313 C 0.88737 0.64851 0.04635 0.0
C3314 C 0.85402 0.64525 0.06092 0.0
C3315 C 0.86233 0.64187 0.08001 0.0
C3316 C 0.88328 0.6426 0.08224 0.0
C3317 C 0.89568 0.64575 0.06556 0.0
C3318 C 0.83893 0.64071 0.13214 0.0
C3319 C 0.82414 0.62584 0.12985 0.0
C3320 C 0.85148 0.64588 0.11604 0.0
C3321 C 0.84919 0.63655 0.09725 0.0
C3322 C 0.83432 0.62177 0.09498 0.0
C3323 C 0.82203 0.6164 0.1111 0.0
H3324 H 0.86966 0.92153 0.1258 0.0
H3325 H 0.89738 0.97172 0.15606 0.0
H3326 H 0.87668 0.90025 0.15452 0.0
H3327 H 0.90461 0.95017 0.18493 0.0
H3328 H 0.92882 0.89704 0.22487 0.0
H3329 H 0.92446 0.91963 0.19609 0.0
H3330 H 0.8636 0.89858 0.18904 0.0
H3331 H 0.86781 0.87633 0.21747 0.0
C3332 C 0.87715 0.9281 0.13861 0.0
C3333 C 0.88266 0.94847 0.13867 0.0
C3334 C 0.88124 0.91585 0.15508 0.0
C3335 C 0.89099 0.92358 0.17211 0.0
C3336 C 0.89717 0.94376 0.17199 0.0
C3337 C 0.89301 0.9561 0.15545 0.0
C3338 C 0.91451 0.8973 0.21718 0.0
C3339 C 0.89879 0.88457 0.22329 0.0
C3340 C 0.91201 0.91027 0.20075 0.0
C3341 C 0.89378 0.91066 0.19011 0.0
C3342 C 0.87798 0.8983 0.1966 0.0
C3343 C 0.88043 0.8855 0.21295 0.0
H3344 H 0.48402 0.15553 0.16908 0.0
H3345 H 0.4594 0.11535 0.12458 0.0
H3346 H 0.45453 0.17695 0.16602 0.0
H3347 H 0.43048 0.13707 0.12084 0.0
H3348 H 0.37247 0.1699 0.12896 0.0
H3349 H 0.40089 0.14808 0.13581 0.0
H3350 H 0.4386 0.20019 0.14461 0.0
H3351 H 0.40973 0.22193 0.13849 0.0
C3352 C 0.47234 0.15128 0.15861 0.0
C3353 C 0.47408 0.13368 0.14712 0.0
C3354 C 0.45546 0.16366 0.15674 0.0
C3355 C 0.43999 0.15884 0.14316 0.0
C3356 C 0.44179 0.14115 0.13176 0.0
C3357 C 0.4585 0.12869 0.13381 0.0
C3358 C 0.38684 0.17665 0.13239 0.0
C3359 C 0.38894 0.19761 0.13304 0.0
C3360 C 0.40321 0.16416 0.13624 0.0
C3361 C 0.42223 0.17228 0.14053 0.0
C3362 C 0.42419 0.19331 0.14161 0.0
C3363 C 0.40768 0.20582 0.13803 0.0
H3364 H 0.40897 0.79595 0.38262 0.0
H3365 H 0.3736 0.84785 0.39787 0.0
H3366 H 0.43797 0.8175 0.37632 0.0
H3367 H 0.40212 0.86957 0.39081 0.0
H3368 H 0.46178 0.90063 0.39989 0.0
H3369 H 0.43282 0.87911 0.40433 0.0
H3370 H 0.45304 0.84169 0.35534 0.0
H3371 H 0.4827 0.86291 0.35153 0.0
C3372 C 0.40737 0.81202 0.38435 0.0
C3373 C 0.38913 0.82022 0.39093 0.0
C3374 C 0.42394 0.82442 0.38065 0.0
C3375 C 0.42254 0.84536 0.38316 0.0
C3376 C 0.40402 0.85352 0.3892 0.0
C3377 C 0.3876 0.8411 0.3932 0.0
C3378 C 0.46002 0.88789 0.38994 0.0
C3379 C 0.47456 0.88353 0.37531 0.0
C3380 C 0.44327 0.87555 0.39242 0.0
C3381 C 0.44039 0.85862 0.38014 0.0
C3382 C 0.45484 0.8544 0.36529 0.0
C3383 C 0.4718 0.86664 0.36299 0.0
H3384 H 0.10794 0.27668 0.87336 0.0
H3385 H 0.15331 0.31282 0.90241 0.0
H3386 H 0.0852 0.30514 0.87335 0.0
H3387 H 0.13023 0.34148 0.90242 0.0
H3388 H 0.07412 0.38378 0.91018 0.0
H3389 H 0.09553 0.35421 0.9155 0.0
H3390 H 0.0872 0.33736 0.8535 0.0
H3391 H 0.066 0.36664 0.84828 0.0
C3392 C 0.11302 0.29063 0.87999 0.0
C3393 C 0.13258 0.29252 0.88766 0.0
C3394 C 0.09995 0.30696 0.87992 0.0
C3395 C 0.10603 0.3256 0.88763 0.0
C3396 C 0.12515 0.32726 0.89641 0.0
C3397 C 0.13835 0.31087 0.89637 0.0
C3398 C 0.07679 0.37361 0.8978 0.0
C3399 C 0.06844 0.37751 0.87881 0.0
C3400 C 0.08913 0.35683 0.90079 0.0
C3401 C 0.09297 0.34345 0.88493 0.0
C3402 C 0.08437 0.34727 0.86606 0.0
C3403 C 0.07235 0.36412 0.86302 0.0
H3404 H 0.62511 0.69295 0.42723 0.0
H3405 H 0.63332 0.69672 0.36309 0.0
H3406 H 0.59507 0.67257 0.42227 0.0
H3407 H 0.60313 0.67609 0.35809 0.0
H3408 H 0.56161 0.61714 0.36624 0.0
H3409 H 0.59143 0.63877 0.36726 0.0
H3410 H 0.56033 0.67978 0.40647 0.0
H3411 H 0.53065 0.65859 0.40533 0.0
C3412 C 0.62054 0.6893 0.41207 0.0
C3413 C 0.63153 0.69642 0.39555 0.0
C3414 C 0.60328 0.67777 0.40922 0.0
C3415 C 0.59676 0.67283 0.38979 0.0
C3416 C 0.60788 0.67966 0.37322 0.0
C3417 C 0.62502 0.69155 0.37607 0.0
C3418 C 0.56105 0.63093 0.3748 0.0
C3419 C 0.54378 0.63603 0.38582 0.0
C3420 C 0.57809 0.64331 0.37535 0.0
C3421 C 0.57821 0.6608 0.38714 0.0
C3422 C 0.56072 0.66624 0.39748 0.0
C3423 C 0.54369 0.65409 0.39674 0.0
H3424 H 0.40954 0.73515 0.40952 0.0
H3425 H 0.35905 0.70254 0.38518 0.0
H3426 H 0.43046 0.70533 0.40578 0.0
H3427 H 0.37992 0.67285 0.38147 0.0
H3428 H 0.4307 0.63635 0.35138 0.0
H3429 H 0.40793 0.66384 0.35925 0.0
H3430 H 0.43576 0.67033 0.41743 0.0
H3431 H 0.45886 0.64304 0.40932 0.0
C3432 C 0.40282 0.72158 0.40361 0.0
C3433 C 0.38269 0.72136 0.39734 0.0
C3434 C 0.4148 0.70446 0.40153 0.0
C3435 C 0.40689 0.68679 0.39312 0.0
C3436 C 0.38656 0.68635 0.38764 0.0
C3437 C 0.37459 0.7034 0.38976 0.0
C3438 C 0.43189 0.6436 0.36587 0.0
C3439 C 0.4466 0.63755 0.37969 0.0
C3440 C 0.41874 0.65923 0.37046 0.0
C3441 C 0.42005 0.66928 0.38897 0.0
C3442 C 0.43448 0.66297 0.40299 0.0
C3443 C 0.44756 0.6472 0.39843 0.0
H3444 H 0.12642 0.83589 0.59836 0.0
H3445 H 0.12427 0.81187 0.6586 0.0
H3446 H 0.09847 0.85784 0.60611 0.0
H3447 H 0.09586 0.83374 0.6662 0.0
H3448 H 0.03107 0.86249 0.66076 0.0
H3449 H 0.05951 0.8397 0.6561 0.0
H3450 H 0.09317 0.88751 0.62813 0.0
H3451 H 0.06507 0.91018 0.63285 0.0
C3452 C 0.12013 0.83534 0.61331 0.0
C3453 C 0.12787 0.8222 0.62789 0.0
C3454 C 0.10403 0.84793 0.61774 0.0
C3455 C 0.0951 0.84768 0.63684 0.0
C3456 C 0.1024 0.83421 0.65132 0.0
C3457 C 0.11867 0.82164 0.64692 0.0
C3458 C 0.04464 0.86818 0.65384 0.0
C3459 C 0.04564 0.88808 0.64685 0.0
C3460 C 0.06091 0.85513 0.6512 0.0
C3461 C 0.07844 0.86174 0.64144 0.0
C3462 C 0.0797 0.88185 0.63527 0.0
C3463 C 0.06356 0.89485 0.63799 0.0
H3464 H 0.04559 0.65996 0.63406 0.0
H3465 H 0.09783 0.62317 0.64377 0.0
H3466 H 0.06717 0.68879 0.62695 0.0
H3467 H 0.11947 0.65154 0.63593 0.0
H3468 H 0.15207 0.71047 0.64549 0.0
H3469 H 0.1305 0.68154 0.65014 0.0
H3470 H 0.09011 0.70429 0.60477 0.0
H3471 H 0.11141 0.73384 0.60077 0.0
C3472 C 0.06171 0.65801 0.63436 0.0
C3473 C 0.07004 0.63942 0.63969 0.0
C3474 C 0.07412 0.67449 0.63021 0.0
C3475 C 0.09516 0.67265 0.63103 0.0
C3476 C 0.10339 0.65377 0.63567 0.0
C3477 C 0.091 0.63743 0.6401 0.0
C3478 C 0.13865 0.70929 0.6364 0.0
C3479 C 0.13349 0.72452 0.62276 0.0
C3480 C 0.12628 0.69256 0.63898 0.0
C3481 C 0.1085 0.69041 0.62779 0.0
C3482 C 0.1035 0.70552 0.61389 0.0
C3483 C 0.11579 0.72242 0.61147 0.0
H3484 H 0.86962 0.8097 0.65427 0.0
H3485 H 0.90226 0.79177 0.60125 0.0
H3486 H 0.89156 0.8385 0.65817 0.0
H3487 H 0.92402 0.8211 0.60476 0.0
H3488 H 0.97196 0.86417 0.63009 0.0
H3489 H 0.95016 0.83517 0.62466 0.0
H3490 H 0.89919 0.87006 0.64436 0.0
H3491 H 0.92112 0.89865 0.65029 0.0
C3492 C 0.88128 0.81211 0.64321 0.0
C3493 C 0.88404 0.79855 0.62732 0.0
C3494 C 0.89389 0.8287 0.64542 0.0
C3495 C 0.90953 0.83232 0.63169 0.0
C3496 C 0.9123 0.81871 0.61576 0.0
C3497 C 0.89975 0.80195 0.61367 0.0
C3498 C 0.95607 0.8656 0.63312 0.0
C3499 C 0.94827 0.8836 0.6408 0.0
C3500 C 0.94354 0.84901 0.62996 0.0
C3501 C 0.92287 0.85015 0.6342 0.0
C3502 C 0.91507 0.8684 0.64139 0.0
C3503 C 0.92763 0.88485 0.64476 0.0
H3504 H 0.62442 0.95726 0.61699 0.0
H3505 H 0.66885 0.98148 0.6575 0.0
H3506 H 0.6202 0.92838 0.63869 0.0
H3507 H 0.66531 0.95195 0.67894 0.0
H3508 H 0.63656 0.90736 0.72374 0.0
H3509 H 0.64356 0.93615 0.70204 0.0
H3510 H 0.63456 0.89864 0.64984 0.0
H3511 H 0.62679 0.87036 0.6716 0.0
C3512 C 0.63356 0.95627 0.6304 0.0
C3513 C 0.64698 0.97174 0.63547 0.0
C3514 C 0.63123 0.93956 0.64285 0.0
C3515 C 0.64246 0.93764 0.66064 0.0
C3516 C 0.65616 0.95298 0.66555 0.0
C3517 C 0.65832 0.96987 0.65317 0.0
C3518 C 0.63624 0.90535 0.70762 0.0
C3519 C 0.63089 0.88672 0.69935 0.0
C3520 C 0.64033 0.9218 0.69513 0.0
C3521 C 0.63944 0.91989 0.67408 0.0
C3522 C 0.63485 0.90095 0.66592 0.0
C3523 C 0.63047 0.88466 0.67838 0.0
H3524 H 0.23225 0.10602 0.61073 0.0
H3525 H 0.20943 0.15048 0.65197 0.0
H3526 H 0.20304 0.1111 0.58916 0.0
H3527 H 0.1807 0.15588 0.63034 0.0
H3528 H 0.12166 0.14758 0.59856 0.0
H3529 H 0.15055 0.14054 0.61956 0.0
H3530 H 0.1876 0.13483 0.56664 0.0
H3531 H 0.15833 0.14156 0.54553 0.0
C3532 C 0.22102 0.11685 0.61522 0.0
C3533 C 0.22312 0.12766 0.63323 0.0
C3534 C 0.20433 0.11988 0.60277 0.0
C3535 C 0.18939 0.13385 0.608 0.0
C3536 C 0.19161 0.14468 0.62599 0.0
C3537 C 0.20818 0.14159 0.63843 0.0
C3538 C 0.13598 0.14502 0.59137 0.0
C3539 C 0.13771 0.14538 0.57034 0.0
C3540 C 0.15261 0.14096 0.60345 0.0
C3541 C 0.17154 0.13729 0.59488 0.0
C3542 C 0.17324 0.13737 0.5738 0.0
C3543 C 0.1565 0.1413 0.56168 0.0
H3544 H 0.35889 0.62663 0.70525 0.0
H3545 H 0.42088 0.62792 0.68643 0.0
H3546 H 0.35287 0.5978 0.68354 0.0
H3547 H 0.41488 0.59912 0.66478 0.0
H3548 H 0.3931 0.56159 0.61254 0.0
H3549 H 0.39749 0.59062 0.63417 0.0
H3550 H 0.3609 0.56235 0.67966 0.0
H3551 H 0.35612 0.53335 0.65777 0.0
C3552 C 0.3713 0.62066 0.69667 0.0
C3553 C 0.39038 0.62967 0.69758 0.0
C3554 C 0.36783 0.60412 0.68419 0.0
C3555 C 0.38335 0.59618 0.67231 0.0
C3556 C 0.40247 0.60508 0.6734 0.0
C3557 C 0.40593 0.6216 0.68584 0.0
C3558 C 0.38585 0.56156 0.62709 0.0
C3559 C 0.37428 0.54506 0.63341 0.0
C3560 C 0.38851 0.57818 0.63958 0.0
C3561 C 0.37971 0.57877 0.65875 0.0
C3562 C 0.36776 0.56247 0.66492 0.0
C3563 C 0.36508 0.5458 0.6524 0.0
H3564 H 0.85174 0.36976 0.55612 0.0
H3565 H 0.89752 0.39187 0.59595 0.0
H3566 H 0.82598 0.37843 0.5805 0.0
H3567 H 0.87206 0.3993 0.62129 0.0
H3568 H 0.82174 0.42234 0.6599 0.0
H3569 H 0.84594 0.41858 0.63271 0.0
H3570 H 0.81173 0.36833 0.60977 0.0
H3571 H 0.78706 0.37315 0.63602 0.0
C3572 C 0.85622 0.37629 0.57031 0.0
C3573 C 0.87653 0.38001 0.57432 0.0
C3574 C 0.8415 0.38116 0.58442 0.0
C3575 C 0.84675 0.38937 0.60319 0.0
C3576 C 0.86721 0.39332 0.607 0.0
C3577 C 0.88189 0.38893 0.59259 0.0
C3578 C 0.8193 0.41074 0.64878 0.0
C3579 C 0.80246 0.39812 0.65003 0.0
C3580 C 0.8333 0.40839 0.63328 0.0
C3581 C 0.83107 0.39302 0.61891 0.0
C3582 C 0.81394 0.38064 0.62012 0.0
C3583 C 0.79973 0.38332 0.6353 0.0
H3584 H 0.63445 0.06341 0.91002 0.0
H3585 H 0.66386 0.03004 0.86288 0.0
H3586 H 0.62993 0.09156 0.88736 0.0
H3587 H 0.65937 0.05857 0.84005 0.0
H3588 H 0.66162 0.12402 0.81288 0.0
H3589 H 0.66907 0.09526 0.83445 0.0
H3590 H 0.6085 0.09667 0.85728 0.0
H3591 H 0.60093 0.12497 0.83567 0.0
C3592 C 0.63995 0.06204 0.8948 0.0
C3593 C 0.64917 0.04428 0.88818 0.0
C3594 C 0.63735 0.07822 0.8818 0.0
C3595 C 0.64398 0.07716 0.86182 0.0
C3596 C 0.6541 0.05981 0.85538 0.0
C3597 C 0.65665 0.04348 0.86844 0.0
C3598 C 0.64982 0.11807 0.82231 0.0
C3599 C 0.63071 0.12706 0.82267 0.0
C3600 C 0.65412 0.10159 0.83469 0.0
C3601 C 0.63946 0.09389 0.84776 0.0
C3602 C 0.62027 0.10255 0.84772 0.0
C3603 C 0.61594 0.11885 0.83532 0.0
H3604 H 0.36417 0.1582 0.46949 0.0
H3605 H 0.39731 0.12188 0.42775 0.0
H3606 H 0.33418 0.15495 0.44875 0.0
H3607 H 0.36715 0.11695 0.40761 0.0
H3608 H 0.31704 0.13143 0.36335 0.0
H3609 H 0.34637 0.13126 0.38493 0.0
H3610 H 0.30791 0.13687 0.43701 0.0
H3611 H 0.27886 0.13879 0.41508 0.0
C3612 C 0.36477 0.14914 0.45601 0.0
C3613 C 0.38289 0.14039 0.45005 0.0
C3614 C 0.34757 0.14706 0.44412 0.0
C3615 C 0.34796 0.13567 0.42624 0.0
C3616 C 0.36614 0.12629 0.42084 0.0
C3617 C 0.38344 0.12889 0.43245 0.0
C3618 C 0.3149 0.13249 0.37942 0.0
C3619 C 0.29567 0.13539 0.38749 0.0
C3620 C 0.33177 0.13225 0.39194 0.0
C3621 C 0.32982 0.13431 0.41295 0.0
C3622 C 0.31032 0.13594 0.42098 0.0
C3623 C 0.29354 0.13678 0.40841 0.0
H3624 H 0.39892 0.37186 0.85151 0.0
H3625 H 0.38107 0.40583 0.79939 0.0
H3626 H 0.39286 0.40096 0.87271 0.0
H3627 H 0.37555 0.4353 0.82045 0.0
H3628 H 0.3524 0.48056 0.86671 0.0
H3629 H 0.35543 0.45059 0.84576 0.0
H3630 H 0.40738 0.43226 0.87994 0.0
H3631 H 0.40395 0.46165 0.90105 0.0
C3632 C 0.39383 0.38563 0.84458 0.0
C3633 C 0.39059 0.3866 0.82379 0.0
C3634 C 0.3904 0.40238 0.85671 0.0
C3635 C 0.38389 0.42064 0.84833 0.0
C3636 C 0.3803 0.42147 0.82752 0.0
C3637 C 0.38352 0.4046 0.81541 0.0
C3638 C 0.36439 0.47004 0.86976 0.0
C3639 C 0.37777 0.47337 0.88571 0.0
C3640 C 0.36621 0.4529 0.85769 0.0
C3641 C 0.38158 0.43884 0.86119 0.0
C3642 C 0.39504 0.4424 0.87705 0.0
C3643 C 0.39311 0.45935 0.88917 0.0
H3644 H 0.64025 0.40372 0.44866 0.0
H3645 H 0.6405 0.33977 0.43842 0.0
H3646 H 0.67016 0.40724 0.42749 0.0
H3647 H 0.67005 0.3433 0.41719 0.0
H3648 H 0.73515 0.35236 0.40233 0.0
H3649 H 0.7059 0.35261 0.42397 0.0
H3650 H 0.6813 0.40222 0.39042 0.0
H3651 H 0.71091 0.40201 0.3684 0.0
C3652 C 0.6467 0.39043 0.44193 0.0
C3653 C 0.63807 0.37143 0.44531 0.0
C3654 C 0.66368 0.39249 0.42967 0.0
C3655 C 0.67251 0.37554 0.4208 0.0
C3656 C 0.66372 0.35662 0.42401 0.0
C3657 C 0.64669 0.3546 0.43604 0.0
C3658 C 0.72364 0.36348 0.39955 0.0
C3659 C 0.72528 0.37701 0.38343 0.0
C3660 C 0.70682 0.36354 0.41196 0.0
C3661 C 0.69115 0.37718 0.40867 0.0
C3662 C 0.69317 0.3915 0.39326 0.0
C3663 C 0.71009 0.39139 0.38068 0.0
H3664 H 0.70915 0.66293 0.89709 0.0
H3665 H 0.6899 0.60104 0.89866 0.0
H3666 H 0.68723 0.67028 0.92568 0.0
H3667 H 0.66798 0.60843 0.92676 0.0
H3668 H 0.61447 0.63188 0.96066 0.0
H3669 H 0.6368 0.62762 0.93212 0.0
H3670 H 0.68251 0.6621 0.96242 0.0
H3671 H 0.66004 0.66657 0.99113 0.0
C3672 C 0.70042 0.65087 0.90357 0.0
C3673 C 0.70114 0.63143 0.89532 0.0
C3674 C 0.68783 0.65509 0.91993 0.0
C3675 C 0.67562 0.64 0.92829 0.0
C3676 C 0.67679 0.62051 0.92037 0.0
C3677 C 0.68939 0.61628 0.90419 0.0
C3678 C 0.62919 0.63875 0.96125 0.0
C3679 C 0.63547 0.64946 0.97831 0.0
C3680 C 0.64205 0.63619 0.94489 0.0
C3681 C 0.66153 0.64431 0.94509 0.0
C3682 C 0.66757 0.65571 0.96178 0.0
C3683 C 0.65471 0.6582 0.97826 0.0
H3684 H 0.87835 0.10241 0.39634 0.0
H3685 H 0.89282 0.04998 0.36134 0.0
H3686 H 0.88563 0.12377 0.36762 0.0
H3687 H 0.89957 0.07128 0.33219 0.0
H3688 H 0.92432 0.11705 0.28715 0.0
H3689 H 0.92077 0.09587 0.31691 0.0
H3690 H 0.87096 0.13231 0.3367 0.0
H3691 H 0.87489 0.15362 0.30747 0.0
C3692 C 0.883 0.09546 0.38242 0.0
C3693 C 0.88483 0.07452 0.38103 0.0
C3694 C 0.88712 0.10769 0.36589 0.0
C3695 C 0.89292 0.0993 0.3474 0.0
C3696 C 0.89532 0.07833 0.34619 0.0
C3697 C 0.89141 0.06609 0.36287 0.0
C3698 C 0.9127 0.12058 0.29795 0.0
C3699 C 0.90004 0.13718 0.29502 0.0
C3700 C 0.91058 0.10836 0.31497 0.0
C3701 C 0.89564 0.11238 0.32937 0.0
C3702 C 0.88296 0.12896 0.32628 0.0
C3703 C 0.88518 0.14121 0.30942 0.0
H3704 H 0.31176 0.86147 0.89139 0.0
H3705 H 0.32751 0.92427 0.89439 0.0
H3706 H 0.33307 0.85479 0.92044 0.0
H3707 H 0.34878 0.91761 0.92326 0.0
H3708 H 0.40229 0.89597 0.95881 0.0
H3709 H 0.38037 0.90084 0.93014 0.0
H3710 H 0.33649 0.86125 0.95681 0.0
H3711 H 0.35875 0.85594 0.98549 0.0
C3712 C 0.31956 0.8739 0.89835 0.0
C3713 C 0.318 0.89341 0.89039 0.0
C3714 C 0.3318 0.87005 0.915 0.0
C3715 C 0.34281 0.88562 0.92407 0.0
C3716 C 0.34088 0.90517 0.91639 0.0
C3717 C 0.32865 0.90901 0.8998 0.0
C3718 C 0.38812 0.88805 0.95853 0.0
C3719 C 0.38238 0.87547 0.97449 0.0
C3720 C 0.37541 0.89104 0.94214 0.0
C3721 C 0.35657 0.88159 0.94123 0.0
C3722 C 0.35095 0.86867 0.95697 0.0
C3723 C 0.36369 0.86569 0.97345 0.0
H3724 H 0.13549 0.47549 0.36503 0.0
H3725 H 0.13534 0.42134 0.40061 0.0
H3726 H 0.13084 0.45535 0.33457 0.0
H3727 H 0.13067 0.4014 0.37051 0.0
H3728 H 0.14885 0.37108 0.31244 0.0
H3729 H 0.15111 0.39227 0.34193 0.0
H3730 H 0.10745 0.43273 0.31642 0.0
H3731 H 0.10522 0.41141 0.28658 0.0
C3732 C 0.13427 0.45935 0.36637 0.0
C3733 C 0.13616 0.45001 0.38521 0.0
C3734 C 0.13158 0.44781 0.34895 0.0
C3735 C 0.13069 0.42673 0.35007 0.0
C3736 C 0.13182 0.41755 0.36902 0.0
C3737 C 0.13454 0.42901 0.38631 0.0
C3738 C 0.1395 0.38432 0.31313 0.0
C3739 C 0.12661 0.38932 0.29722 0.0
C3740 C 0.14082 0.39652 0.3301 0.0
C3741 C 0.12931 0.41412 0.33166 0.0
C3742 C 0.11659 0.41933 0.31565 0.0
C3743 C 0.11524 0.40705 0.29861 0.0
H3744 H 0.62078 0.36474 0.55721 0.0
H3745 H 0.65629 0.41321 0.53259 0.0
H3746 H 0.64222 0.36469 0.58728 0.0
H3747 H 0.67711 0.41326 0.56245 0.0
H3748 H 0.68613 0.42708 0.62994 0.0
H3749 H 0.66647 0.42291 0.59928 0.0
H3750 H 0.68174 0.36004 0.59778 0.0
H3751 H 0.70172 0.3643 0.62855 0.0
C3752 C 0.63326 0.37514 0.55804 0.0
C3753 C 0.63665 0.38911 0.54256 0.0
C3754 C 0.6455 0.37509 0.57522 0.0
C3755 C 0.66112 0.38916 0.57723 0.0
C3756 C 0.665 0.40245 0.56139 0.0
C3757 C 0.65304 0.40234 0.54425 0.0
C3758 C 0.68526 0.41238 0.62309 0.0
C3759 C 0.69551 0.39606 0.63155 0.0
C3760 C 0.67409 0.41 0.60553 0.0
C3761 C 0.67263 0.39116 0.59618 0.0
C3762 C 0.6826 0.3747 0.60475 0.0
C3763 C 0.69414 0.37718 0.62219 0.0
H3764 H 0.64736 0.15088 0.71249 0.0
H3765 H 0.60025 0.11266 0.73546 0.0
H3766 H 0.65095 0.12925 0.68353 0.0
H3767 H 0.60336 0.09119 0.70588 0.0
H3768 H 0.63149 0.04572 0.66122 0.0
H3769 H 0.6249 0.06723 0.69026 0.0
H3770 H 0.63551 0.11964 0.65344 0.0
H3771 H 0.64273 0.09809 0.62489 0.0
C3772 C 0.6375 0.13802 0.7112 0.0
C3773 C 0.62343 0.13359 0.72628 0.0
C3774 C 0.63951 0.1256 0.69448 0.0
C3775 C 0.62735 0.10849 0.69219 0.0
C3776 C 0.61314 0.10411 0.70722 0.0
C3777 C 0.61126 0.11648 0.72412 0.0
C3778 C 0.63223 0.06185 0.65942 0.0
C3779 C 0.63789 0.07025 0.64092 0.0
C3780 C 0.62839 0.07421 0.676 0.0
C3781 C 0.6299 0.09523 0.67432 0.0
C3782 C 0.63475 0.10354 0.65551 0.0
C3783 C 0.63884 0.09121 0.63909 0.0
H3784 H 0.32041 0.16149 0.63361 0.0
H3785 H 0.32625 0.0983 0.62096 0.0
H3786 H 0.34495 0.16906 0.60722 0.0
H3787 H 0.3507 0.10578 0.59468 0.0
H3788 H 0.38106 0.12682 0.53748 0.0
H3789 H 0.35313 0.1228 0.56086 0.0
H3790 H 0.38237 0.16262 0.60275 0.0
H3791 H 0.4104 0.16661 0.57943 0.0
C3792 C 0.32674 0.14926 0.62501 0.0
C3793 C 0.32146 0.12929 0.62937 0.0
C3794 C 0.34088 0.15357 0.61002 0.0
C3795 C 0.34974 0.13802 0.59885 0.0
C3796 C 0.34401 0.11811 0.60287 0.0
C3797 C 0.33015 0.1138 0.61803 0.0
C3798 C 0.38142 0.13497 0.55153 0.0
C3799 C 0.39806 0.14694 0.55662 0.0
C3800 C 0.36546 0.13256 0.56498 0.0
C3801 C 0.36562 0.14227 0.58371 0.0
C3802 C 0.38176 0.15502 0.58839 0.0
C3803 C 0.39786 0.15724 0.57505 0.0
H3804 H 0.35631 0.45716 0.66141 0.0
H3805 H 0.41173 0.44 0.6329 0.0
H3806 H 0.36431 0.4357 0.69023 0.0
H3807 H 0.41949 0.41788 0.66155 0.0
H3808 H 0.39712 0.3612 0.70505 0.0
H3809 H 0.39447 0.38447 0.67662 0.0
H3810 H 0.39857 0.43466 0.71722 0.0
H3811 H 0.40183 0.41152 0.74563 0.0
C3812 C 0.37023 0.44881 0.66142 0.0
C3813 C 0.38344 0.45016 0.64505 0.0
C3814 C 0.37483 0.43663 0.67785 0.0
C3815 C 0.39248 0.4252 0.67799 0.0
C3816 C 0.4058 0.42661 0.66171 0.0
C3817 C 0.40144 0.43925 0.64546 0.0
C3818 C 0.39773 0.3772 0.70787 0.0
C3819 C 0.39966 0.38456 0.72756 0.0
C3820 C 0.39632 0.39046 0.69162 0.0
C3821 C 0.39636 0.41127 0.69484 0.0
C3822 C 0.39859 0.41865 0.71443 0.0
C3823 C 0.40049 0.40541 0.73063 0.0
H3824 H 0.9838 0.66 0.66786 0.0
H3825 H 0.95541 0.61611 0.62946 0.0
H3826 H 0.95537 0.68261 0.66281 0.0
H3827 H 0.92703 0.63838 0.62485 0.0
H3828 H 0.8929 0.69184 0.60025 0.0
H3829 H 0.92105 0.66984 0.60726 0.0
H3830 H 0.91903 0.6869 0.66975 0.0
H3831 H 0.89063 0.70897 0.66273 0.0
C3832 C 0.97143 0.65505 0.65855 0.0
C3833 C 0.97194 0.63619 0.64908 0.0
C3834 C 0.95511 0.66799 0.65573 0.0
C3835 C 0.93901 0.66238 0.64328 0.0
C3836 C 0.93933 0.64332 0.63426 0.0
C3837 C 0.95556 0.63043 0.6371 0.0
C3838 C 0.89829 0.69082 0.61553 0.0
C3839 C 0.88931 0.70208 0.63093 0.0
C3840 C 0.91447 0.67818 0.61956 0.0
C3841 C 0.92217 0.67643 0.63912 0.0
C3842 C 0.91353 0.688 0.6545 0.0
C3843 C 0.89726 0.70067 0.65046 0.0
H3844 H 0.87298 0.3506 0.89595 0.0
H3845 H 0.90962 0.29921 0.88171 0.0
H3846 H 0.90107 0.37276 0.88888 0.0
H3847 H 0.93809 0.32145 0.87493 0.0
H3848 H 0.98079 0.36974 0.84932 0.0
H3849 H 0.95194 0.34725 0.85296 0.0
H3850 H 0.93197 0.38148 0.90425 0.0
H3851 H 0.96011 0.40398 0.90029 0.0
C3852 C 0.88713 0.34401 0.8915 0.0
C3853 C 0.88914 0.32312 0.88968 0.0
C3854 C 0.90327 0.35673 0.88741 0.0
C3855 C 0.92198 0.34892 0.88157 0.0
C3856 C 0.92388 0.32802 0.87924 0.0
C3857 C 0.9076 0.31526 0.88319 0.0
C3858 C 0.97014 0.37252 0.86127 0.0
C3859 C 0.9728 0.3888 0.87445 0.0
C3860 C 0.95367 0.35954 0.86344 0.0
C3861 C 0.93951 0.36259 0.87884 0.0
C3862 C 0.94227 0.37886 0.89195 0.0
C3863 C 0.95859 0.39177 0.88975 0.0
H3864 H 0.65138 0.80442 0.37 0.0
H3865 H 0.61648 0.78474 0.42098 0.0
H3866 H 0.62972 0.83335 0.36615 0.0
H3867 H 0.59492 0.8142 0.41746 0.0
H3868 H 0.54835 0.85854 0.39074 0.0
H3869 H 0.56965 0.82926 0.39673 0.0
H3870 H 0.62188 0.86443 0.38103 0.0
H3871 H 0.60055 0.89328 0.3746 0.0
C3872 C 0.63926 0.80643 0.38062 0.0
C3873 C 0.63584 0.79234 0.39595 0.0
C3874 C 0.6268 0.82312 0.37844 0.0
C3875 C 0.61062 0.82632 0.39161 0.0
C3876 C 0.60711 0.81216 0.40692 0.0
C3877 C 0.61954 0.79532 0.40901 0.0
C3878 C 0.5644 0.85997 0.38874 0.0
C3879 C 0.57275 0.87813 0.38195 0.0
C3880 C 0.57665 0.84323 0.39222 0.0
C3881 C 0.59753 0.84434 0.38914 0.0
C3882 C 0.60585 0.86278 0.38303 0.0
C3883 C 0.59362 0.87938 0.37938 0.0
H3884 H 0.14677 0.18778 0.86369 0.0
H3885 H 0.11461 0.20192 0.91821 0.0
H3886 H 0.12073 0.16369 0.85471 0.0
H3887 H 0.08926 0.17725 0.90975 0.0
H3888 H 0.03763 0.14312 0.88326 0.0
H3889 H 0.06202 0.17013 0.88745 0.0
H3890 H 0.10879 0.13137 0.86491 0.0
H3891 H 0.08441 0.10469 0.86018 0.0
C3892 C 0.13419 0.18581 0.87377 0.0
C3893 C 0.13297 0.19681 0.89175 0.0
C3894 C 0.11932 0.17184 0.8687 0.0
C3895 C 0.10283 0.16849 0.88148 0.0
C3896 C 0.10155 0.1796 0.89937 0.0
C3897 C 0.11636 0.19357 0.9044 0.0
C3898 C 0.05306 0.14048 0.8789 0.0
C3899 C 0.05906 0.12167 0.87151 0.0
C3900 C 0.0671 0.15592 0.88146 0.0
C3901 C 0.08747 0.15289 0.87676 0.0
C3902 C 0.09325 0.13435 0.86854 0.0
C3903 C 0.07922 0.11897 0.86592 0.0
H3904 H 0.9052 0.23406 0.85272 0.0
H3905 H 0.87218 0.21036 0.90334 0.0
H3906 H 0.92746 0.20536 0.85363 0.0
H3907 H 0.89506 0.18138 0.90432 0.0
H3908 H 0.95642 0.14273 0.90466 0.0
H3909 H 0.93499 0.17256 0.90831 0.0
H3910 H 0.91848 0.16803 0.84585 0.0
H3911 H 0.93963 0.13839 0.84228 0.0
C3912 C 0.90277 0.22283 0.86423 0.0
C3913 C 0.88666 0.2244 0.87779 0.0
C3914 C 0.91558 0.20636 0.8647 0.0
C3915 C 0.91281 0.19105 0.87885 0.0
C3916 C 0.89748 0.19303 0.89324 0.0
C3917 C 0.88441 0.20958 0.89267 0.0
C3918 C 0.94826 0.14824 0.89174 0.0
C3919 C 0.94974 0.13833 0.87314 0.0
C3920 C 0.93589 0.16513 0.89388 0.0
C3921 C 0.92514 0.17258 0.87735 0.0
C3922 C 0.92669 0.16266 0.85881 0.0
C3923 C 0.93872 0.14567 0.85678 0.0
H3924 H 0.58674 0.41434 0.16023 0.0
H3925 H 0.54083 0.37575 0.13551 0.0
H3926 H 0.61132 0.38768 0.15621 0.0
H3927 H 0.56563 0.34901 0.13144 0.0
H3928 H 0.61546 0.30084 0.1413 0.0
H3929 H 0.58951 0.32554 0.14987 0.0
H3930 H 0.62679 0.37276 0.12573 0.0
H3931 H 0.65254 0.34831 0.11745 0.0
C3932 C 0.5818 0.4001 0.15416 0.0
C3933 C 0.56182 0.3973 0.148 0.0
C3934 C 0.59595 0.38484 0.15176 0.0
C3935 C 0.59049 0.36633 0.14326 0.0
C3936 C 0.57029 0.36309 0.13809 0.0
C3937 C 0.5561 0.37845 0.14037 0.0
C3938 C 0.61809 0.31652 0.13798 0.0
C3939 C 0.636 0.3226 0.12861 0.0
C3940 C 0.60321 0.33063 0.14275 0.0
C3941 C 0.60613 0.35112 0.13855 0.0
C3942 C 0.62415 0.35714 0.12938 0.0
C3943 C 0.63883 0.34308 0.12441 0.0
H3944 H 0.61936 0.22934 0.09727 0.0
H3945 H 0.65113 0.21215 0.15103 0.0
H3946 H 0.59719 0.20025 0.10122 0.0
H3947 H 0.62909 0.18351 0.15512 0.0
H3948 H 0.60025 0.12331 0.14792 0.0
H3949 H 0.62204 0.15167 0.14074 0.0
H3950 H 0.57067 0.18648 0.12212 0.0
H3951 H 0.54884 0.1577 0.12902 0.0
C3952 C 0.62165 0.21935 0.10988 0.0
C3953 C 0.63732 0.22283 0.12358 0.0
C3954 C 0.60889 0.20273 0.11221 0.0
C3955 C 0.61147 0.18933 0.12836 0.0
C3956 C 0.62696 0.19311 0.14218 0.0
C3957 C 0.63969 0.20958 0.1398 0.0
C3958 C 0.59358 0.13702 0.14235 0.0
C3959 C 0.57278 0.13833 0.13929 0.0
C3960 C 0.60608 0.15333 0.13824 0.0
C3961 C 0.59813 0.17153 0.13112 0.0
C3962 C 0.57735 0.17268 0.12745 0.0
C3963 C 0.56482 0.15622 0.13144 0.0
H3964 H 0.46495 0.37268 0.11381 0.0
H3965 H 0.43755 0.38005 0.17206 0.0
H3966 H 0.44278 0.34431 0.10702 0.0
H3967 H 0.41551 0.35171 0.16536 0.0
H3968 H 0.36462 0.31492 0.13964 0.0
H3969 H 0.38717 0.34318 0.1447 0.0
H3970 H 0.43522 0.31 0.11665 0.0
H3971 H 0.4125 0.28181 0.11117 0.0
C3972 C 0.45441 0.3681 0.12529 0.0
C3973 C 0.453 0.37876 0.14347 0.0
C3974 C 0.44165 0.35183 0.12137 0.0
C3975 C 0.42718 0.34579 0.13555 0.0
C3976 C 0.42612 0.35619 0.15389 0.0
C3977 C 0.43882 0.37244 0.15778 0.0
C3978 C 0.37994 0.31366 0.13438 0.0
C3979 C 0.38671 0.296 0.12503 0.0
C3980 C 0.39295 0.32985 0.13744 0.0
C3981 C 0.41312 0.32884 0.1313 0.0
C3982 C 0.41977 0.31139 0.12146 0.0
C3983 C 0.40672 0.29517 0.11837 0.0
loop_
_geom_bond_atom_site_label_1
_geom_bond_atom_site_label_2
_geom_bond_distance
_geom_bond_site_symmetry_2
_ccdc_geom_bond_type
Co0 N4 2.148 . S
Co0 N10 2.128 . S
Co0 N20 2.194 . S
Co0 O25 2.351 . S
Co0 O26 2.155 . S
Co0 O27 2.096 . S
C1 N4 1.301 . S
C1 N5 1.328 . S
C1 H6 0.930 . S
C2 C3 1.333 . S
C2 N4 1.317 . S
C2 H7 0.930 . S
C3 C2 1.333 . S
C3 N5 1.350 . S
C3 H29 0.931 . S
N4 Co0 2.148 . S
N4 C1 1.301 . S
N4 C2 1.317 . S
N5 C1 1.328 . S
N5 C3 1.350 . S
H6 C1 0.930 . S
H7 C2 0.930 . S
C8 O9 1.224 . S
C8 O27 1.247 . S
O9 C8 1.224 . S
N10 Co0 2.128 . S
N10 C11 1.355 . S
N10 C13 1.311 . S
C11 N10 1.355 . S
C11 C12 1.363 . S
C11 H23 0.929 . S
C12 C11 1.363 . S
C12 N14 1.375 . S
C12 H30 0.931 . S
C13 N10 1.311 . S
C13 N14 1.347 . S
C13 H24 0.929 . S
N14 C12 1.375 . S
N14 C13 1.347 . S
C15 C18 1.365 . S
C15 N20 1.328 . S
C15 H21 0.929 . S
C16 C17 1.362 . S
C16 C19 1.378 . S
C16 H31 0.929 . S
C17 C16 1.362 . S
C17 C18 1.366 . S
C18 C15 1.365 . S
C18 C17 1.366 . S
C18 H32 0.930 . S
C19 C16 1.378 . S
C19 N20 1.315 . S
C19 H22 0.930 . S
N20 Co0 2.194 . S
N20 C15 1.328 . S
N20 C19 1.315 . S
H21 C15 0.929 . S
H22 C19 0.930 . S
H23 C11 0.929 . S
H24 C13 0.929 . S
O25 Co0 2.351 . S
O25 C28 1.244 . S
O26 Co0 2.155 . S
O26 C28 1.240 . S
O27 Co0 2.096 . S
O27 C8 1.247 . S
C28 O25 1.244 . S
C28 O26 1.240 . S
H29 C3 0.931 . S
H30 C12 0.931 . S
H31 C16 0.929 . S
H32 C18 0.930 . S
Co33 N37 2.134 1_554 S
Co33 N43 2.128 . S
Co33 N53 2.194 . S
Co33 O58 2.351 . S
Co33 O59 2.155 . S
Co33 O60 2.096 . S
C34 N37 1.299 1_554 S
C34 N38 1.328 1_554 S
C34 H39 0.930 . S
C35 C36 1.333 . S
C35 N37 1.336 . S
C35 H40 0.930 . S
C36 C35 1.333 . S
C36 N38 1.350 . S
C36 H62 0.931 . S
N37 Co33 2.134 1_556 S
N37 C34 1.299 1_556 S
N37 C35 1.336 . S
N38 C34 1.328 1_556 S
N38 C36 1.350 . S
H39 C34 0.930 . S
H40 C35 0.930 . S
C41 O42 1.224 . S
C41 O60 1.247 1_556 S
O42 C41 1.224 . S
N43 Co33 2.128 . S
N43 C44 1.355 . S
N43 C46 1.311 . S
C44 N43 1.355 . S
C44 C45 1.363 . S
C44 H56 0.929 . S
C45 C44 1.363 . S
C45 N47 1.375 . S
C45 H63 0.931 . S
C46 N43 1.311 . S
C46 N47 1.347 . S
C46 H57 0.929 . S
N47 C45 1.375 . S
N47 C46 1.347 . S
C48 C51 1.365 . S
C48 N53 1.328 . S
C48 H54 0.929 . S
C49 C50 1.362 . S
C49 C52 1.378 . S
C49 H64 0.929 . S
C50 C49 1.362 . S
C50 C51 1.366 . S
C51 C48 1.365 . S
C51 C50 1.366 . S
C51 H65 0.930 . S
C52 C49 1.378 . S
C52 N53 1.315 . S
C52 H55 0.930 . S
N53 Co33 2.194 . S
N53 C48 1.328 . S
N53 C52 1.315 . S
H54 C48 0.929 . S
H55 C52 0.930 . S
H56 C44 0.929 . S
H57 C46 0.929 . S
O58 Co33 2.351 . S
O58 C61 1.244 . S
O59 Co33 2.155 . S
O59 C61 1.240 . S
O60 Co33 2.096 . S
O60 C41 1.247 1_554 S
C61 O58 1.244 . S
C61 O59 1.240 . S
H62 C36 0.931 . S
H63 C45 0.931 . S
H64 C49 0.929 . S
H65 C51 0.930 . S
Co66 N70 2.148 . S
Co66 N76 2.128 . S
Co66 N86 2.194 . S
Co66 O91 2.351 . S
Co66 O92 2.155 . S
Co66 O93 2.096 . S
C67 N70 1.301 . S
C67 N71 1.328 . S
C67 H72 0.930 . S
C68 C69 1.333 . S
C68 N70 1.317 . S
C68 H73 0.930 . S
C69 C68 1.333 . S
C69 N71 1.350 . S
C69 H95 0.931 . S
N70 Co66 2.148 . S
N70 C67 1.301 . S
N70 C68 1.317 . S
N71 C67 1.328 . S
N71 C69 1.350 . S
H72 C67 0.930 . S
H73 C68 0.930 . S
C74 O75 1.224 . S
C74 O93 1.247 . S
O75 C74 1.224 . S
N76 Co66 2.128 . S
N76 C77 1.355 . S
N76 C79 1.311 . S
C77 N76 1.355 . S
C77 C78 1.363 . S
C77 H89 0.929 . S
C78 C77 1.363 . S
C78 N80 1.375 . S
C78 H96 0.931 . S
C79 N76 1.311 . S
C79 N80 1.347 . S
C79 H90 0.929 . S
N80 C78 1.375 . S
N80 C79 1.347 . S
C81 C84 1.365 . S
C81 N86 1.328 . S
C81 H87 0.929 . S
C82 C83 1.362 . S
C82 C85 1.378 . S
C82 H97 0.929 . S
C83 C82 1.362 . S
C83 C84 1.366 . S
C84 C81 1.365 . S
C84 C83 1.366 . S
C84 H98 0.930 . S
C85 C82 1.378 . S
C85 N86 1.315 . S
C85 H88 0.930 . S
N86 Co66 2.194 . S
N86 C81 1.328 . S
N86 C85 1.315 . S
H87 C81 0.929 . S
H88 C85 0.930 . S
H89 C77 0.929 . S
H90 C79 0.929 . S
O91 Co66 2.351 . S
O91 C94 1.244 . S
O92 Co66 2.155 . S
O92 C94 1.240 . S
O93 Co66 2.096 . S
O93 C74 1.247 . S
C94 O91 1.244 . S
C94 O92 1.240 . S
H95 C69 0.931 . S
H96 C78 0.931 . S
H97 C82 0.929 . S
H98 C84 0.930 . S
Co99 N103 2.134 1_554 S
Co99 N109 2.128 . S
Co99 N119 2.194 . S
Co99 O124 2.351 . S
Co99 O125 2.155 . S
Co99 O126 2.096 . S
C100 N103 1.299 1_554 S
C100 N104 1.328 1_554 S
C100 H105 0.930 . S
C101 C102 1.333 . S
C101 N103 1.336 . S
C101 H106 0.930 . S
C102 C101 1.333 . S
C102 N104 1.350 . S
C102 H128 0.931 . S
N103 Co99 2.134 1_556 S
N103 C100 1.299 1_556 S
N103 C101 1.336 . S
N104 C100 1.328 1_556 S
N104 C102 1.350 . S
H105 C100 0.930 . S
H106 C101 0.930 . S
C107 O108 1.224 . S
C107 O126 1.247 1_556 S
O108 C107 1.224 . S
N109 Co99 2.128 . S
N109 C110 1.355 . S
N109 C112 1.311 . S
C110 N109 1.355 . S
C110 C111 1.363 . S
C110 H122 0.929 . S
C111 C110 1.363 . S
C111 N113 1.375 . S
C111 H129 0.931 . S
C112 N109 1.311 . S
C112 N113 1.347 . S
C112 H123 0.929 . S
N113 C111 1.375 . S
N113 C112 1.347 . S
C114 C117 1.365 . S
C114 N119 1.328 . S
C114 H120 0.929 . S
C115 C116 1.362 . S
C115 C118 1.378 . S
C115 H130 0.929 . S
C116 C115 1.362 . S
C116 C117 1.366 . S
C117 C114 1.365 . S
C117 C116 1.366 . S
C117 H131 0.930 . S
C118 C115 1.378 . S
C118 N119 1.315 . S
C118 H121 0.930 . S
N119 Co99 2.194 . S
N119 C114 1.328 . S
N119 C118 1.315 . S
H120 C114 0.929 . S
H121 C118 0.930 . S
H122 C110 0.929 . S
H123 C112 0.929 . S
O124 Co99 2.351 . S
O124 C127 1.244 . S
O125 Co99 2.155 . S
O125 C127 1.240 . S
O126 Co99 2.096 . S
O126 C107 1.247 1_554 S
C127 O124 1.244 . S
C127 O125 1.240 . S
H128 C102 0.931 . S
H129 C111 0.931 . S
H130 C115 0.929 . S
H131 C117 0.930 . S
Co132 N136 2.148 . S
Co132 N142 2.128 . S
Co132 N152 2.194 . S
Co132 O157 2.351 . S
Co132 O158 2.155 . S
Co132 O159 2.096 . S
C133 N136 1.301 . S
C133 N137 1.328 . S
C133 H138 0.930 . S
C134 C135 1.333 . S
C134 N136 1.317 . S
C134 H139 0.930 . S
C135 C134 1.333 . S
C135 N137 1.350 . S
C135 H161 0.931 . S
N136 Co132 2.148 . S
N136 C133 1.301 . S
N136 C134 1.317 . S
N137 C133 1.328 . S
N137 C135 1.350 . S
H138 C133 0.930 . S
H139 C134 0.930 . S
C140 O141 1.224 . S
C140 O159 1.247 . S
O141 C140 1.224 . S
N142 Co132 2.128 . S
N142 C143 1.355 . S
N142 C145 1.311 . S
C143 N142 1.355 . S
C143 C144 1.363 . S
C143 H155 0.929 . S
C144 C143 1.363 . S
C144 N146 1.375 . S
C144 H162 0.931 . S
C145 N142 1.311 . S
C145 N146 1.347 . S
C145 H156 0.929 . S
N146 C144 1.375 . S
N146 C145 1.347 . S
C147 C150 1.365 . S
C147 N152 1.328 . S
C147 H153 0.929 . S
C148 C149 1.362 . S
C148 C151 1.378 . S
C148 H163 0.929 . S
C149 C148 1.362 . S
C149 C150 1.366 . S
C150 C147 1.365 . S
C150 C149 1.366 . S
C150 H164 0.930 . S
C151 C148 1.378 . S
C151 N152 1.315 . S
C151 H154 0.930 . S
N152 Co132 2.194 . S
N152 C147 1.328 . S
N152 C151 1.315 . S
H153 C147 0.929 . S
H154 C151 0.930 . S
H155 C143 0.929 . S
H156 C145 0.929 . S
O157 Co132 2.351 . S
O157 C160 1.244 . S
O158 Co132 2.155 . S
O158 C160 1.240 . S
O159 Co132 2.096 . S
O159 C140 1.247 . S
C160 O157 1.244 . S
C160 O158 1.240 . S
H161 C135 0.931 . S
H162 C144 0.931 . S
H163 C148 0.929 . S
H164 C150 0.930 . S
Co165 N169 2.134 1_556 S
Co165 N175 2.128 . S
Co165 N185 2.194 . S
Co165 O190 2.351 . S
Co165 O191 2.155 . S
Co165 O192 2.096 . S
C166 N169 1.299 1_556 S
C166 N170 1.328 1_556 S
C166 H171 0.930 . S
C167 C168 1.333 . S
C167 N169 1.336 . S
C167 H172 0.930 . S
C168 C167 1.333 . S
C168 N170 1.350 . S
C168 H194 0.931 . S
N169 Co165 2.134 1_554 S
N169 C166 1.299 1_554 S
N169 C167 1.336 . S
N170 C166 1.328 1_554 S
N170 C168 1.350 . S
H171 C166 0.930 . S
H172 C167 0.930 . S
C173 O174 1.224 . S
C173 O192 1.247 1_554 S
O174 C173 1.224 . S
N175 Co165 2.128 . S
N175 C176 1.355 . S
N175 C178 1.311 . S
C176 N175 1.355 . S
C176 C177 1.363 . S
C176 H188 0.929 . S
C177 C176 1.363 . S
C177 N179 1.375 . S
C177 H195 0.931 . S
C178 N175 1.311 . S
C178 N179 1.347 . S
C178 H189 0.929 . S
N179 C177 1.375 . S
N179 C178 1.347 . S
C180 C183 1.365 . S
C180 N185 1.328 . S
C180 H186 0.929 . S
C181 C182 1.362 . S
C181 C184 1.378 . S
C181 H196 0.929 . S
C182 C181 1.362 . S
C182 C183 1.366 . S
C183 C180 1.365 . S
C183 C182 1.366 . S
C183 H197 0.930 . S
C184 C181 1.378 . S
C184 N185 1.315 . S
C184 H187 0.930 . S
N185 Co165 2.194 . S
N185 C180 1.328 . S
N185 C184 1.315 . S
H186 C180 0.929 . S
H187 C184 0.930 . S
H188 C176 0.929 . S
H189 C178 0.929 . S
O190 Co165 2.351 . S
O190 C193 1.244 . S
O191 Co165 2.155 . S
O191 C193 1.240 . S
O192 Co165 2.096 . S
O192 C173 1.247 1_556 S
C193 O190 1.244 . S
C193 O191 1.240 . S
H194 C168 0.931 . S
H195 C177 0.931 . S
H196 C181 0.929 . S
H197 C183 0.930 . S
Co198 N202 2.148 . S
Co198 N208 2.128 . S
Co198 N218 2.194 . S
Co198 O223 2.351 . S
Co198 O224 2.155 . S
Co198 O225 2.096 . S
C199 N202 1.301 . S
C199 N203 1.328 . S
C199 H204 0.930 . S
C200 C201 1.333 . S
C200 N202 1.317 . S
C200 H205 0.930 . S
C201 C200 1.333 . S
C201 N203 1.350 . S
C201 H227 0.931 . S
N202 Co198 2.148 . S
N202 C199 1.301 . S
N202 C200 1.317 . S
N203 C199 1.328 . S
N203 C201 1.350 . S
H204 C199 0.930 . S
H205 C200 0.930 . S
C206 O207 1.224 . S
C206 O225 1.247 . S
O207 C206 1.224 . S
N208 Co198 2.128 . S
N208 C209 1.355 . S
N208 C211 1.311 . S
C209 N208 1.355 . S
C209 C210 1.363 . S
C209 H221 0.929 . S
C210 C209 1.363 . S
C210 N212 1.375 . S
C210 H228 0.931 . S
C211 N208 1.311 . S
C211 N212 1.347 . S
C211 H222 0.929 . S
N212 C210 1.375 . S
N212 C211 1.347 . S
C213 C216 1.365 . S
C213 N218 1.328 . S
C213 H219 0.929 . S
C214 C215 1.362 . S
C214 C217 1.378 . S
C214 H229 0.929 . S
C215 C214 1.362 . S
C215 C216 1.366 . S
C216 C213 1.365 . S
C216 C215 1.366 . S
C216 H230 0.930 . S
C217 C214 1.378 . S
C217 N218 1.315 . S
C217 H220 0.930 . S
N218 Co198 2.194 . S
N218 C213 1.328 . S
N218 C217 1.315 . S
H219 C213 0.929 . S
H220 C217 0.930 . S
H221 C209 0.929 . S
H222 C211 0.929 . S
O223 Co198 2.351 . S
O223 C226 1.244 . S
O224 Co198 2.155 . S
O224 C226 1.240 . S
O225 Co198 2.096 . S
O225 C206 1.247 . S
C226 O223 1.244 . S
C226 O224 1.240 . S
H227 C201 0.931 . S
H228 C210 0.931 . S
H229 C214 0.929 . S
H230 C216 0.930 . S
Co231 N235 2.134 1_556 S
Co231 N241 2.128 . S
Co231 N251 2.194 . S
Co231 O256 2.351 . S
Co231 O257 2.155 . S
Co231 O258 2.096 . S
C232 N235 1.299 1_556 S
C232 N236 1.328 1_556 S
C232 H237 0.930 . S
C233 C234 1.333 . S
C233 N235 1.336 . S
C233 H238 0.930 . S
C234 C233 1.333 . S
C234 N236 1.350 . S
C234 H260 0.931 . S
N235 Co231 2.134 1_554 S
N235 C232 1.299 1_554 S
N235 C233 1.336 . S
N236 C232 1.328 1_554 S
N236 C234 1.350 . S
H237 C232 0.930 . S
H238 C233 0.930 . S
C239 O240 1.224 . S
C239 O258 1.247 1_554 S
O240 C239 1.224 . S
N241 Co231 2.128 . S
N241 C242 1.355 . S
N241 C244 1.311 . S
C242 N241 1.355 . S
C242 C243 1.363 . S
C242 H254 0.929 . S
C243 C242 1.363 . S
C243 N245 1.375 . S
C243 H261 0.931 . S
C244 N241 1.311 . S
C244 N245 1.347 . S
C244 H255 0.929 . S
N245 C243 1.375 . S
N245 C244 1.347 . S
C246 C249 1.365 . S
C246 N251 1.328 . S
C246 H252 0.929 . S
C247 C248 1.362 . S
C247 C250 1.378 . S
C247 H262 0.929 . S
C248 C247 1.362 . S
C248 C249 1.366 . S
C249 C246 1.365 . S
C249 C248 1.366 . S
C249 H263 0.930 . S
C250 C247 1.378 . S
C250 N251 1.315 . S
C250 H253 0.930 . S
N251 Co231 2.194 . S
N251 C246 1.328 . S
N251 C250 1.315 . S
H252 C246 0.929 . S
H253 C250 0.930 . S
H254 C242 0.929 . S
H255 C244 0.929 . S
O256 Co231 2.351 . S
O256 C259 1.244 . S
O257 Co231 2.155 . S
O257 C259 1.240 . S
O258 Co231 2.096 . S
O258 C239 1.247 1_556 S
C259 O256 1.244 . S
C259 O257 1.240 . S
H260 C234 0.931 . S
H261 C243 0.931 . S
H262 C247 0.929 . S
H263 C249 0.930 . S
Co264 N268 2.148 . S
Co264 N274 2.128 . S
Co264 N284 2.194 . S
Co264 O289 2.351 . S
Co264 O290 2.155 . S
Co264 O291 2.096 . S
C265 N268 1.301 . S
C265 N269 1.328 . S
C265 H270 0.930 . S
C266 C267 1.333 . S
C266 N268 1.317 . S
C266 H271 0.930 . S
C267 C266 1.333 . S
C267 N269 1.350 . S
C267 H293 0.931 . S
N268 Co264 2.148 . S
N268 C265 1.301 . S
N268 C266 1.317 . S
N269 C265 1.328 . S
N269 C267 1.350 . S
H270 C265 0.930 . S
H271 C266 0.930 . S
C272 O273 1.224 . S
C272 O291 1.247 . S
O273 C272 1.224 . S
N274 Co264 2.128 . S
N274 C275 1.355 . S
N274 C277 1.311 . S
C275 N274 1.355 . S
C275 C276 1.363 . S
C275 H287 0.929 . S
C276 C275 1.363 . S
C276 N278 1.375 . S
C276 H294 0.931 . S
C277 N274 1.311 . S
C277 N278 1.347 . S
C277 H288 0.929 . S
N278 C276 1.375 . S
N278 C277 1.347 . S
C279 C282 1.365 . S
C279 N284 1.328 . S
C279 H285 0.929 . S
C280 C281 1.362 . S
C280 C283 1.378 . S
C280 H295 0.929 . S
C281 C280 1.362 . S
C281 C282 1.366 . S
C282 C279 1.365 . S
C282 C281 1.366 . S
C282 H296 0.930 . S
C283 C280 1.378 . S
C283 N284 1.315 . S
C283 H286 0.930 . S
N284 Co264 2.194 . S
N284 C279 1.328 . S
N284 C283 1.315 . S
H285 C279 0.929 . S
H286 C283 0.930 . S
H287 C275 0.929 . S
H288 C277 0.929 . S
O289 Co264 2.351 . S
O289 C292 1.244 . S
O290 Co264 2.155 . S
O290 C292 1.240 . S
O291 Co264 2.096 . S
O291 C272 1.247 . S
C292 O289 1.244 . S
C292 O290 1.240 . S
H293 C267 0.931 . S
H294 C276 0.931 . S
H295 C280 0.929 . S
H296 C282 0.930 . S
Co297 N301 2.148 . S
Co297 N307 2.128 . S
Co297 N317 2.194 . S
Co297 O322 2.351 . S
Co297 O323 2.155 . S
Co297 O324 2.096 . S
C298 N301 1.301 . S
C298 N302 1.328 . S
C298 H303 0.930 . S
C299 C300 1.333 . S
C299 N301 1.317 . S
C299 H304 0.930 . S
C300 C299 1.333 . S
C300 N302 1.350 . S
C300 H326 0.931 . S
N301 Co297 2.148 . S
N301 C298 1.301 . S
N301 C299 1.317 . S
N302 C298 1.328 . S
N302 C300 1.350 . S
H303 C298 0.930 . S
H304 C299 0.930 . S
C305 O306 1.224 . S
C305 O324 1.247 . S
O306 C305 1.224 . S
N307 Co297 2.128 . S
N307 C308 1.355 . S
N307 C310 1.311 . S
C308 N307 1.355 . S
C308 C309 1.363 . S
C308 H320 0.929 . S
C309 C308 1.363 . S
C309 N311 1.375 . S
C309 H327 0.931 . S
C310 N307 1.311 . S
C310 N311 1.347 . S
C310 H321 0.929 . S
N311 C309 1.375 . S
N311 C310 1.347 . S
C312 C315 1.365 . S
C312 N317 1.328 . S
C312 H318 0.929 . S
C313 C314 1.362 . S
C313 C316 1.378 . S
C313 H328 0.929 . S
C314 C313 1.362 . S
C314 C315 1.366 . S
C315 C312 1.365 . S
C315 C314 1.366 . S
C315 H329 0.930 . S
C316 C313 1.378 . S
C316 N317 1.315 . S
C316 H319 0.930 . S
N317 Co297 2.194 . S
N317 C312 1.328 . S
N317 C316 1.315 . S
H318 C312 0.929 . S
H319 C316 0.930 . S
H320 C308 0.929 . S
H321 C310 0.929 . S
O322 Co297 2.351 . S
O322 C325 1.244 . S
O323 Co297 2.155 . S
O323 C325 1.240 . S
O324 Co297 2.096 . S
O324 C305 1.247 . S
C325 O322 1.244 . S
C325 O323 1.240 . S
H326 C300 0.931 . S
H327 C309 0.931 . S
H328 C313 0.929 . S
H329 C315 0.930 . S
Co330 N334 2.148 . S
Co330 N340 2.128 . S
Co330 N350 2.194 . S
Co330 O355 2.351 . S
Co330 O356 2.155 . S
Co330 O357 2.096 . S
C331 N334 1.301 . S
C331 N335 1.328 . S
C331 H336 0.930 . S
C332 C333 1.333 . S
C332 N334 1.317 . S
C332 H337 0.930 . S
C333 C332 1.333 . S
C333 N335 1.350 . S
C333 H359 0.931 . S
N334 Co330 2.148 . S
N334 C331 1.301 . S
N334 C332 1.317 . S
N335 C331 1.328 . S
N335 C333 1.350 . S
H336 C331 0.930 . S
H337 C332 0.930 . S
C338 O339 1.224 . S
C338 O357 1.247 . S
O339 C338 1.224 . S
N340 Co330 2.128 . S
N340 C341 1.355 . S
N340 C343 1.311 . S
C341 N340 1.355 . S
C341 C342 1.363 . S
C341 H353 0.929 . S
C342 C341 1.363 . S
C342 N344 1.375 . S
C342 H360 0.931 . S
C343 N340 1.311 . S
C343 N344 1.347 . S
C343 H354 0.929 . S
N344 C342 1.375 . S
N344 C343 1.347 . S
C345 C348 1.365 . S
C345 N350 1.328 . S
C345 H351 0.929 . S
C346 C347 1.362 . S
C346 C349 1.378 . S
C346 H361 0.929 . S
C347 C346 1.362 . S
C347 C348 1.366 . S
C348 C345 1.365 . S
C348 C347 1.366 . S
C348 H362 0.930 . S
C349 C346 1.378 . S
C349 N350 1.315 . S
C349 H352 0.930 . S
N350 Co330 2.194 . S
N350 C345 1.328 . S
N350 C349 1.315 . S
H351 C345 0.929 . S
H352 C349 0.930 . S
H353 C341 0.929 . S
H354 C343 0.929 . S
O355 Co330 2.351 . S
O355 C358 1.244 . S
O356 Co330 2.155 . S
O356 C358 1.240 . S
O357 Co330 2.096 . S
O357 C338 1.247 . S
C358 O355 1.244 . S
C358 O356 1.240 . S
H359 C333 0.931 . S
H360 C342 0.931 . S
H361 C346 0.929 . S
H362 C348 0.930 . S
Co363 N367 2.134 1_565 S
Co363 N373 2.128 . S
Co363 N383 2.194 . S
Co363 O388 2.351 . S
Co363 O389 2.155 . S
Co363 O390 2.096 . S
C364 N367 1.299 1_565 S
C364 N368 1.328 1_565 S
C364 H369 0.930 . S
C365 C366 1.333 . S
C365 N367 1.336 . S
C365 H370 0.930 . S
C366 C365 1.333 . S
C366 N368 1.350 . S
C366 H392 0.931 . S
N367 Co363 2.134 1_545 S
N367 C364 1.299 1_545 S
N367 C365 1.336 . S
N368 C364 1.328 1_545 S
N368 C366 1.350 . S
H369 C364 0.930 . S
H370 C365 0.930 . S
C371 O372 1.224 . S
C371 O390 1.247 1_545 S
O372 C371 1.224 . S
N373 Co363 2.128 . S
N373 C374 1.355 . S
N373 C376 1.311 . S
C374 N373 1.355 . S
C374 C375 1.363 . S
C374 H386 0.929 . S
C375 C374 1.363 . S
C375 N377 1.375 . S
C375 H393 0.931 . S
C376 N373 1.311 . S
C376 N377 1.347 . S
C376 H387 0.929 . S
N377 C375 1.375 . S
N377 C376 1.347 . S
C378 C381 1.365 . S
C378 N383 1.328 . S
C378 H384 0.929 . S
C379 C380 1.362 . S
C379 C382 1.378 . S
C379 H394 0.929 . S
C380 C379 1.362 . S
C380 C381 1.366 . S
C381 C378 1.365 . S
C381 C380 1.366 . S
C381 H395 0.930 . S
C382 C379 1.378 . S
C382 N383 1.315 . S
C382 H385 0.930 . S
N383 Co363 2.194 . S
N383 C378 1.328 . S
N383 C382 1.315 . S
H384 C378 0.929 . S
H385 C382 0.930 . S
H386 C374 0.929 . S
H387 C376 0.929 . S
O388 Co363 2.351 . S
O388 C391 1.244 . S
O389 Co363 2.155 . S
O389 C391 1.240 . S
O390 Co363 2.096 . S
O390 C371 1.247 1_565 S
C391 O388 1.244 . S
C391 O389 1.240 . S
H392 C366 0.931 . S
H393 C375 0.931 . S
H394 C379 0.929 . S
H395 C381 0.930 . S
Co396 N400 2.148 . S
Co396 N406 2.128 . S
Co396 N416 2.194 . S
Co396 O421 2.351 . S
Co396 O422 2.155 . S
Co396 O423 2.096 . S
C397 N400 1.301 . S
C397 N401 1.328 . S
C397 H402 0.930 . S
C398 C399 1.333 . S
C398 N400 1.317 . S
C398 H403 0.930 . S
C399 C398 1.333 . S
C399 N401 1.350 . S
C399 H425 0.931 . S
N400 Co396 2.148 . S
N400 C397 1.301 . S
N400 C398 1.317 . S
N401 C397 1.328 . S
N401 C399 1.350 . S
H402 C397 0.930 . S
H403 C398 0.930 . S
C404 O405 1.224 . S
C404 O423 1.247 . S
O405 C404 1.224 . S
N406 Co396 2.128 . S
N406 C407 1.355 . S
N406 C409 1.311 . S
C407 N406 1.355 . S
C407 C408 1.363 . S
C407 H419 0.929 . S
C408 C407 1.363 . S
C408 N410 1.375 . S
C408 H426 0.931 . S
C409 N406 1.311 . S
C409 N410 1.347 . S
C409 H420 0.929 . S
N410 C408 1.375 . S
N410 C409 1.347 . S
C411 C414 1.365 . S
C411 N416 1.328 . S
C411 H417 0.929 . S
C412 C413 1.362 . S
C412 C415 1.378 . S
C412 H427 0.929 . S
C413 C412 1.362 . S
C413 C414 1.366 . S
C414 C411 1.365 . S
C414 C413 1.366 . S
C414 H428 0.930 . S
C415 C412 1.378 . S
C415 N416 1.315 . S
C415 H418 0.930 . S
N416 Co396 2.194 . S
N416 C411 1.328 . S
N416 C415 1.315 . S
H417 C411 0.929 . S
H418 C415 0.930 . S
H419 C407 0.929 . S
H420 C409 0.929 . S
O421 Co396 2.351 . S
O421 C424 1.244 . S
O422 Co396 2.155 . S
O422 C424 1.240 . S
O423 Co396 2.096 . S
O423 C404 1.247 . S
C424 O421 1.244 . S
C424 O422 1.240 . S
H425 C399 0.931 . S
H426 C408 0.931 . S
H427 C412 0.929 . S
H428 C414 0.930 . S
Co429 N433 2.148 . S
Co429 N439 2.128 . S
Co429 N449 2.194 . S
Co429 O454 2.351 . S
Co429 O455 2.155 . S
Co429 O456 2.096 . S
C430 N433 1.301 . S
C430 N434 1.328 . S
C430 H435 0.930 . S
C431 C432 1.333 . S
C431 N433 1.317 . S
C431 H436 0.930 . S
C432 C431 1.333 . S
C432 N434 1.350 . S
C432 H458 0.931 . S
N433 Co429 2.148 . S
N433 C430 1.301 . S
N433 C431 1.317 . S
N434 C430 1.328 . S
N434 C432 1.350 . S
H435 C430 0.930 . S
H436 C431 0.930 . S
C437 O438 1.224 . S
C437 O456 1.247 . S
O438 C437 1.224 . S
N439 Co429 2.128 . S
N439 C440 1.355 . S
N439 C442 1.311 . S
C440 N439 1.355 . S
C440 C441 1.363 . S
C440 H452 0.929 . S
C441 C440 1.363 . S
C441 N443 1.375 . S
C441 H459 0.931 . S
C442 N439 1.311 . S
C442 N443 1.347 . S
C442 H453 0.929 . S
N443 C441 1.375 . S
N443 C442 1.347 . S
C444 C447 1.365 . S
C444 N449 1.328 . S
C444 H450 0.929 . S
C445 C446 1.362 . S
C445 C448 1.378 . S
C445 H460 0.929 . S
C446 C445 1.362 . S
C446 C447 1.366 . S
C447 C444 1.365 . S
C447 C446 1.366 . S
C447 H461 0.930 . S
C448 C445 1.378 . S
C448 N449 1.315 . S
C448 H451 0.930 . S
N449 Co429 2.194 . S
N449 C444 1.328 . S
N449 C448 1.315 . S
H450 C444 0.929 . S
H451 C448 0.930 . S
H452 C440 0.929 . S
H453 C442 0.929 . S
O454 Co429 2.351 . S
O454 C457 1.244 . S
O455 Co429 2.155 . S
O455 C457 1.240 . S
O456 Co429 2.096 . S
O456 C437 1.247 . S
C457 O454 1.244 . S
C457 O455 1.240 . S
H458 C432 0.931 . S
H459 C441 0.931 . S
H460 C445 0.929 . S
H461 C447 0.930 . S
Co462 N466 2.148 . S
Co462 N472 2.128 . S
Co462 N482 2.194 . S
Co462 O487 2.351 . S
Co462 O488 2.155 . S
Co462 O489 2.096 . S
C463 N466 1.301 . S
C463 N467 1.328 . S
C463 H468 0.930 . S
C464 C465 1.333 . S
C464 N466 1.317 . S
C464 H469 0.930 . S
C465 C464 1.333 . S
C465 N467 1.350 . S
C465 H491 0.931 . S
N466 Co462 2.148 . S
N466 C463 1.301 . S
N466 C464 1.317 . S
N467 C463 1.328 . S
N467 C465 1.350 . S
H468 C463 0.930 . S
H469 C464 0.930 . S
C470 O471 1.224 . S
C470 O489 1.247 . S
O471 C470 1.224 . S
N472 Co462 2.128 . S
N472 C473 1.355 . S
N472 C475 1.311 . S
C473 N472 1.355 . S
C473 C474 1.363 . S
C473 H485 0.929 . S
C474 C473 1.363 . S
C474 N476 1.375 . S
C474 H492 0.931 . S
C475 N472 1.311 . S
C475 N476 1.347 . S
C475 H486 0.929 . S
N476 C474 1.375 . S
N476 C475 1.347 . S
C477 C480 1.365 . S
C477 N482 1.328 . S
C477 H483 0.929 . S
C478 C479 1.362 . S
C478 C481 1.378 . S
C478 H493 0.929 . S
C479 C478 1.362 . S
C479 C480 1.366 . S
C480 C477 1.365 . S
C480 C479 1.366 . S
C480 H494 0.930 . S
C481 C478 1.378 . S
C481 N482 1.315 . S
C481 H484 0.930 . S
N482 Co462 2.194 . S
N482 C477 1.328 . S
N482 C481 1.315 . S
H483 C477 0.929 . S
H484 C481 0.930 . S
H485 C473 0.929 . S
H486 C475 0.929 . S
O487 Co462 2.351 . S
O487 C490 1.244 . S
O488 Co462 2.155 . S
O488 C490 1.240 . S
O489 Co462 2.096 . S
O489 C470 1.247 . S
C490 O487 1.244 . S
C490 O488 1.240 . S
H491 C465 0.931 . S
H492 C474 0.931 . S
H493 C478 0.929 . S
H494 C480 0.930 . S
Co495 N499 2.134 1_565 S
Co495 N505 2.128 . S
Co495 N515 2.194 . S
Co495 O520 2.351 . S
Co495 O521 2.155 . S
Co495 O522 2.096 . S
C496 N499 1.299 1_565 S
C496 N500 1.328 1_565 S
C496 H501 0.930 . S
C497 C498 1.333 . S
C497 N499 1.336 . S
C497 H502 0.930 . S
C498 C497 1.333 . S
C498 N500 1.350 . S
C498 H524 0.931 . S
N499 Co495 2.134 1_545 S
N499 C496 1.299 1_545 S
N499 C497 1.336 . S
N500 C496 1.328 1_545 S
N500 C498 1.350 . S
H501 C496 0.930 . S
H502 C497 0.930 . S
C503 O504 1.224 . S
C503 O522 1.247 1_545 S
O504 C503 1.224 . S
N505 Co495 2.128 . S
N505 C506 1.355 . S
N505 C508 1.311 . S
C506 N505 1.355 . S
C506 C507 1.363 . S
C506 H518 0.929 . S
C507 C506 1.363 . S
C507 N509 1.375 . S
C507 H525 0.931 . S
C508 N505 1.311 . S
C508 N509 1.347 . S
C508 H519 0.929 . S
N509 C507 1.375 . S
N509 C508 1.347 . S
C510 C513 1.365 . S
C510 N515 1.328 . S
C510 H516 0.929 . S
C511 C512 1.362 . S
C511 C514 1.378 . S
C511 H526 0.929 . S
C512 C511 1.362 . S
C512 C513 1.366 . S
C513 C510 1.365 . S
C513 C512 1.366 . S
C513 H527 0.930 . S
C514 C511 1.378 . S
C514 N515 1.315 . S
C514 H517 0.930 . S
N515 Co495 2.194 . S
N515 C510 1.328 . S
N515 C514 1.315 . S
H516 C510 0.929 . S
H517 C514 0.930 . S
H518 C506 0.929 . S
H519 C508 0.929 . S
O520 Co495 2.351 . S
O520 C523 1.244 . S
O521 Co495 2.155 . S
O521 C523 1.240 . S
O522 Co495 2.096 . S
O522 C503 1.247 1_565 S
C523 O520 1.244 . S
C523 O521 1.240 . S
H524 C498 0.931 . S
H525 C507 0.931 . S
H526 C511 0.929 . S
H527 C513 0.930 . S
Co528 N532 2.148 . S
Co528 N538 2.128 . S
Co528 N548 2.194 . S
Co528 O553 2.351 . S
Co528 O554 2.155 . S
Co528 O555 2.096 . S
C529 N532 1.301 . S
C529 N533 1.328 . S
C529 H534 0.930 . S
C530 C531 1.333 . S
C530 N532 1.317 . S
C530 H535 0.930 . S
C531 C530 1.333 . S
C531 N533 1.350 . S
C531 H557 0.931 . S
N532 Co528 2.148 . S
N532 C529 1.301 . S
N532 C530 1.317 . S
N533 C529 1.328 . S
N533 C531 1.350 . S
H534 C529 0.930 . S
H535 C530 0.930 . S
C536 O537 1.224 . S
C536 O555 1.247 . S
O537 C536 1.224 . S
N538 Co528 2.128 . S
N538 C539 1.355 . S
N538 C541 1.311 . S
C539 N538 1.355 . S
C539 C540 1.363 . S
C539 H551 0.929 . S
C540 C539 1.363 . S
C540 N542 1.375 . S
C540 H558 0.931 . S
C541 N538 1.311 . S
C541 N542 1.347 . S
C541 H552 0.929 . S
N542 C540 1.375 . S
N542 C541 1.347 . S
C543 C546 1.365 . S
C543 N548 1.328 . S
C543 H549 0.929 . S
C544 C545 1.362 . S
C544 C547 1.378 . S
C544 H559 0.929 . S
C545 C544 1.362 . S
C545 C546 1.366 . S
C546 C543 1.365 . S
C546 C545 1.366 . S
C546 H560 0.930 . S
C547 C544 1.378 . S
C547 N548 1.315 . S
C547 H550 0.930 . S
N548 Co528 2.194 . S
N548 C543 1.328 . S
N548 C547 1.315 . S
H549 C543 0.929 . S
H550 C547 0.930 . S
H551 C539 0.929 . S
H552 C541 0.929 . S
O553 Co528 2.351 . S
O553 C556 1.244 . S
O554 Co528 2.155 . S
O554 C556 1.240 . S
O555 Co528 2.096 . S
O555 C536 1.247 . S
C556 O553 1.244 . S
C556 O554 1.240 . S
H557 C531 0.931 . S
H558 C540 0.931 . S
H559 C544 0.929 . S
H560 C546 0.930 . S
Co561 N565 2.148 . S
Co561 N571 2.128 . S
Co561 N581 2.194 . S
Co561 O586 2.351 . S
Co561 O587 2.155 . S
Co561 O588 2.096 . S
C562 N565 1.301 . S
C562 N566 1.328 . S
C562 H567 0.930 . S
C563 C564 1.333 . S
C563 N565 1.317 . S
C563 H568 0.930 . S
C564 C563 1.333 . S
C564 N566 1.350 . S
C564 H590 0.931 . S
N565 Co561 2.148 . S
N565 C562 1.301 . S
N565 C563 1.317 . S
N566 C562 1.328 . S
N566 C564 1.350 . S
H567 C562 0.930 . S
H568 C563 0.930 . S
C569 O570 1.224 . S
C569 O588 1.247 . S
O570 C569 1.224 . S
N571 Co561 2.128 . S
N571 C572 1.355 . S
N571 C574 1.311 . S
C572 N571 1.355 . S
C572 C573 1.363 . S
C572 H584 0.929 . S
C573 C572 1.363 . S
C573 N575 1.375 . S
C573 H591 0.931 . S
C574 N571 1.311 . S
C574 N575 1.347 . S
C574 H585 0.929 . S
N575 C573 1.375 . S
N575 C574 1.347 . S
C576 C579 1.365 . S
C576 N581 1.328 . S
C576 H582 0.929 . S
C577 C578 1.362 . S
C577 C580 1.378 . S
C577 H592 0.929 . S
C578 C577 1.362 . S
C578 C579 1.366 . S
C579 C576 1.365 . S
C579 C578 1.366 . S
C579 H593 0.930 . S
C580 C577 1.378 . S
C580 N581 1.315 . S
C580 H583 0.930 . S
N581 Co561 2.194 . S
N581 C576 1.328 . S
N581 C580 1.315 . S
H582 C576 0.929 . S
H583 C580 0.930 . S
H584 C572 0.929 . S
H585 C574 0.929 . S
O586 Co561 2.351 . S
O586 C589 1.244 . S
O587 Co561 2.155 . S
O587 C589 1.240 . S
O588 Co561 2.096 . S
O588 C569 1.247 . S
C589 O586 1.244 . S
C589 O587 1.240 . S
H590 C564 0.931 . S
H591 C573 0.931 . S
H592 C577 0.929 . S
H593 C579 0.930 . S
Co594 N598 2.134 1_455 S
Co594 N604 2.128 . S
Co594 N614 2.194 . S
Co594 O619 2.351 . S
Co594 O620 2.155 . S
Co594 O621 2.096 . S
C595 N598 1.299 1_455 S
C595 N599 1.328 1_455 S
C595 H600 0.930 . S
C596 C597 1.333 . S
C596 N598 1.336 . S
C596 H601 0.930 . S
C597 C596 1.333 . S
C597 N599 1.350 . S
C597 H623 0.931 . S
N598 Co594 2.134 1_655 S
N598 C595 1.299 1_655 S
N598 C596 1.336 . S
N599 C595 1.328 1_655 S
N599 C597 1.350 . S
H600 C595 0.930 . S
H601 C596 0.930 . S
C602 O603 1.224 . S
C602 O621 1.247 1_655 S
O603 C602 1.224 . S
N604 Co594 2.128 . S
N604 C605 1.355 . S
N604 C607 1.311 . S
C605 N604 1.355 . S
C605 C606 1.363 . S
C605 H617 0.929 . S
C606 C605 1.363 . S
C606 N608 1.375 . S
C606 H624 0.931 . S
C607 N604 1.311 . S
C607 N608 1.347 . S
C607 H618 0.929 . S
N608 C606 1.375 . S
N608 C607 1.347 . S
C609 C612 1.365 . S
C609 N614 1.328 . S
C609 H615 0.929 . S
C610 C611 1.362 . S
C610 C613 1.378 . S
C610 H625 0.929 . S
C611 C610 1.362 . S
C611 C612 1.366 . S
C612 C609 1.365 . S
C612 C611 1.366 . S
C612 H626 0.930 . S
C613 C610 1.378 . S
C613 N614 1.315 . S
C613 H616 0.930 . S
N614 Co594 2.194 . S
N614 C609 1.328 . S
N614 C613 1.315 . S
H615 C609 0.929 . S
H616 C613 0.930 . S
H617 C605 0.929 . S
H618 C607 0.929 . S
O619 Co594 2.351 . S
O619 C622 1.244 . S
O620 Co594 2.155 . S
O620 C622 1.240 . S
O621 Co594 2.096 . S
O621 C602 1.247 1_455 S
C622 O619 1.244 . S
C622 O620 1.240 . S
H623 C597 0.931 . S
H624 C606 0.931 . S
H625 C610 0.929 . S
H626 C612 0.930 . S
Co627 N631 2.148 . S
Co627 N637 2.128 . S
Co627 N647 2.194 . S
Co627 O652 2.351 . S
Co627 O653 2.155 . S
Co627 O654 2.096 . S
C628 N631 1.301 . S
C628 N632 1.328 . S
C628 H633 0.930 . S
C629 C630 1.333 . S
C629 N631 1.317 . S
C629 H634 0.930 . S
C630 C629 1.333 . S
C630 N632 1.350 . S
C630 H656 0.931 . S
N631 Co627 2.148 . S
N631 C628 1.301 . S
N631 C629 1.317 . S
N632 C628 1.328 . S
N632 C630 1.350 . S
H633 C628 0.930 . S
H634 C629 0.930 . S
C635 O636 1.224 . S
C635 O654 1.247 . S
O636 C635 1.224 . S
N637 Co627 2.128 . S
N637 C638 1.355 . S
N637 C640 1.311 . S
C638 N637 1.355 . S
C638 C639 1.363 . S
C638 H650 0.929 . S
C639 C638 1.363 . S
C639 N641 1.375 . S
C639 H657 0.931 . S
C640 N637 1.311 . S
C640 N641 1.347 . S
C640 H651 0.929 . S
N641 C639 1.375 . S
N641 C640 1.347 . S
C642 C645 1.365 . S
C642 N647 1.328 . S
C642 H648 0.929 . S
C643 C644 1.362 . S
C643 C646 1.378 . S
C643 H658 0.929 . S
C644 C643 1.362 . S
C644 C645 1.366 . S
C645 C642 1.365 . S
C645 C644 1.366 . S
C645 H659 0.930 . S
C646 C643 1.378 . S
C646 N647 1.315 . S
C646 H649 0.930 . S
N647 Co627 2.194 . S
N647 C642 1.328 . S
N647 C646 1.315 . S
H648 C642 0.929 . S
H649 C646 0.930 . S
H650 C638 0.929 . S
H651 C640 0.929 . S
O652 Co627 2.351 . S
O652 C655 1.244 . S
O653 Co627 2.155 . S
O653 C655 1.240 . S
O654 Co627 2.096 . S
O654 C635 1.247 . S
C655 O652 1.244 . S
C655 O653 1.240 . S
H656 C630 0.931 . S
H657 C639 0.931 . S
H658 C643 0.929 . S
H659 C645 0.930 . S
Co660 N664 2.148 . S
Co660 N670 2.128 . S
Co660 N680 2.194 . S
Co660 O685 2.351 . S
Co660 O686 2.155 . S
Co660 O687 2.096 . S
C661 N664 1.301 . S
C661 N665 1.328 . S
C661 H666 0.930 . S
C662 C663 1.333 . S
C662 N664 1.317 . S
C662 H667 0.930 . S
C663 C662 1.333 . S
C663 N665 1.350 . S
C663 H689 0.931 . S
N664 Co660 2.148 . S
N664 C661 1.301 . S
N664 C662 1.317 . S
N665 C661 1.328 . S
N665 C663 1.350 . S
H666 C661 0.930 . S
H667 C662 0.930 . S
C668 O669 1.224 . S
C668 O687 1.247 . S
O669 C668 1.224 . S
N670 Co660 2.128 . S
N670 C671 1.355 . S
N670 C673 1.311 . S
C671 N670 1.355 . S
C671 C672 1.363 . S
C671 H683 0.929 . S
C672 C671 1.363 . S
C672 N674 1.375 . S
C672 H690 0.931 . S
C673 N670 1.311 . S
C673 N674 1.347 . S
C673 H684 0.929 . S
N674 C672 1.375 . S
N674 C673 1.347 . S
C675 C678 1.365 . S
C675 N680 1.328 . S
C675 H681 0.929 . S
C676 C677 1.362 . S
C676 C679 1.378 . S
C676 H691 0.929 . S
C677 C676 1.362 . S
C677 C678 1.366 . S
C678 C675 1.365 . S
C678 C677 1.366 . S
C678 H692 0.930 . S
C679 C676 1.378 . S
C679 N680 1.315 . S
C679 H682 0.930 . S
N680 Co660 2.194 . S
N680 C675 1.328 . S
N680 C679 1.315 . S
H681 C675 0.929 . S
H682 C679 0.930 . S
H683 C671 0.929 . S
H684 C673 0.929 . S
O685 Co660 2.351 . S
O685 C688 1.244 . S
O686 Co660 2.155 . S
O686 C688 1.240 . S
O687 Co660 2.096 . S
O687 C668 1.247 . S
C688 O685 1.244 . S
C688 O686 1.240 . S
H689 C663 0.931 . S
H690 C672 0.931 . S
H691 C676 0.929 . S
H692 C678 0.930 . S
Co693 N697 2.148 . S
Co693 N703 2.128 . S
Co693 N713 2.194 . S
Co693 O718 2.351 . S
Co693 O719 2.155 . S
Co693 O720 2.096 . S
C694 N697 1.301 . S
C694 N698 1.328 . S
C694 H699 0.930 . S
C695 C696 1.333 . S
C695 N697 1.317 . S
C695 H700 0.930 . S
C696 C695 1.333 . S
C696 N698 1.350 . S
C696 H722 0.931 . S
N697 Co693 2.148 . S
N697 C694 1.301 . S
N697 C695 1.317 . S
N698 C694 1.328 . S
N698 C696 1.350 . S
H699 C694 0.930 . S
H700 C695 0.930 . S
C701 O702 1.224 . S
C701 O720 1.247 . S
O702 C701 1.224 . S
N703 Co693 2.128 . S
N703 C704 1.355 . S
N703 C706 1.311 . S
C704 N703 1.355 . S
C704 C705 1.363 . S
C704 H716 0.929 . S
C705 C704 1.363 . S
C705 N707 1.375 . S
C705 H723 0.931 . S
C706 N703 1.311 . S
C706 N707 1.347 . S
C706 H717 0.929 . S
N707 C705 1.375 . S
N707 C706 1.347 . S
C708 C711 1.365 . S
C708 N713 1.328 . S
C708 H714 0.929 . S
C709 C710 1.362 . S
C709 C712 1.378 . S
C709 H724 0.929 . S
C710 C709 1.362 . S
C710 C711 1.366 . S
C711 C708 1.365 . S
C711 C710 1.366 . S
C711 H725 0.930 . S
C712 C709 1.378 . S
C712 N713 1.315 . S
C712 H715 0.930 . S
N713 Co693 2.194 . S
N713 C708 1.328 . S
N713 C712 1.315 . S
H714 C708 0.929 . S
H715 C712 0.930 . S
H716 C704 0.929 . S
H717 C706 0.929 . S
O718 Co693 2.351 . S
O718 C721 1.244 . S
O719 Co693 2.155 . S
O719 C721 1.240 . S
O720 Co693 2.096 . S
O720 C701 1.247 . S
C721 O718 1.244 . S
C721 O719 1.240 . S
H722 C696 0.931 . S
H723 C705 0.931 . S
H724 C709 0.929 . S
H725 C711 0.930 . S
Co726 N730 2.134 1_455 S
Co726 N736 2.128 . S
Co726 N746 2.194 . S
Co726 O751 2.351 . S
Co726 O752 2.155 . S
Co726 O753 2.096 . S
C727 N730 1.299 1_455 S
C727 N731 1.328 1_455 S
C727 H732 0.930 . S
C728 C729 1.333 . S
C728 N730 1.336 . S
C728 H733 0.930 . S
C729 C728 1.333 . S
C729 N731 1.350 . S
C729 H755 0.931 . S
N730 Co726 2.134 1_655 S
N730 C727 1.299 1_655 S
N730 C728 1.336 . S
N731 C727 1.328 1_655 S
N731 C729 1.350 . S
H732 C727 0.930 . S
H733 C728 0.930 . S
C734 O735 1.224 . S
C734 O753 1.247 1_655 S
O735 C734 1.224 . S
N736 Co726 2.128 . S
N736 C737 1.355 . S
N736 C739 1.311 . S
C737 N736 1.355 . S
C737 C738 1.363 . S
C737 H749 0.929 . S
C738 C737 1.363 . S
C738 N740 1.375 . S
C738 H756 0.931 . S
C739 N736 1.311 . S
C739 N740 1.347 . S
C739 H750 0.929 . S
N740 C738 1.375 . S
N740 C739 1.347 . S
C741 C744 1.365 . S
C741 N746 1.328 . S
C741 H747 0.929 . S
C742 C743 1.362 . S
C742 C745 1.378 . S
C742 H757 0.929 . S
C743 C742 1.362 . S
C743 C744 1.366 . S
C744 C741 1.365 . S
C744 C743 1.366 . S
C744 H758 0.930 . S
C745 C742 1.378 . S
C745 N746 1.315 . S
C745 H748 0.930 . S
N746 Co726 2.194 . S
N746 C741 1.328 . S
N746 C745 1.315 . S
H747 C741 0.929 . S
H748 C745 0.930 . S
H749 C737 0.929 . S
H750 C739 0.929 . S
O751 Co726 2.351 . S
O751 C754 1.244 . S
O752 Co726 2.155 . S
O752 C754 1.240 . S
O753 Co726 2.096 . S
O753 C734 1.247 1_455 S
C754 O751 1.244 . S
C754 O752 1.240 . S
H755 C729 0.931 . S
H756 C738 0.931 . S
H757 C742 0.929 . S
H758 C744 0.930 . S
Co759 N763 2.134 1_655 S
Co759 N769 2.128 . S
Co759 N779 2.194 . S
Co759 O784 2.351 . S
Co759 O785 2.155 . S
Co759 O786 2.096 . S
C760 N763 1.299 1_655 S
C760 N764 1.328 1_655 S
C760 H765 0.930 . S
C761 C762 1.333 . S
C761 N763 1.336 . S
C761 H766 0.930 . S
C762 C761 1.333 . S
C762 N764 1.350 . S
C762 H788 0.931 . S
N763 Co759 2.134 1_455 S
N763 C760 1.299 1_455 S
N763 C761 1.336 . S
N764 C760 1.328 1_455 S
N764 C762 1.350 . S
H765 C760 0.930 . S
H766 C761 0.930 . S
C767 O768 1.224 . S
C767 O786 1.247 1_455 S
O768 C767 1.224 . S
N769 Co759 2.128 . S
N769 C770 1.355 . S
N769 C772 1.311 . S
C770 N769 1.355 . S
C770 C771 1.363 . S
C770 H782 0.929 . S
C771 C770 1.363 . S
C771 N773 1.375 . S
C771 H789 0.931 . S
C772 N769 1.311 . S
C772 N773 1.347 . S
C772 H783 0.929 . S
N773 C771 1.375 . S
N773 C772 1.347 . S
C774 C777 1.365 . S
C774 N779 1.328 . S
C774 H780 0.929 . S
C775 C776 1.362 . S
C775 C778 1.378 . S
C775 H790 0.929 . S
C776 C775 1.362 . S
C776 C777 1.366 . S
C777 C774 1.365 . S
C777 C776 1.366 . S
C777 H791 0.930 . S
C778 C775 1.378 . S
C778 N779 1.315 . S
C778 H781 0.930 . S
N779 Co759 2.194 . S
N779 C774 1.328 . S
N779 C778 1.315 . S
H780 C774 0.929 . S
H781 C778 0.930 . S
H782 C770 0.929 . S
H783 C772 0.929 . S
O784 Co759 2.351 . S
O784 C787 1.244 . S
O785 Co759 2.155 . S
O785 C787 1.240 . S
O786 Co759 2.096 . S
O786 C767 1.247 1_655 S
C787 O784 1.244 . S
C787 O785 1.240 . S
H788 C762 0.931 . S
H789 C771 0.931 . S
H790 C775 0.929 . S
H791 C777 0.930 . S
Co792 N796 2.148 . S
Co792 N802 2.128 . S
Co792 N812 2.194 . S
Co792 O817 2.351 . S
Co792 O818 2.155 . S
Co792 O819 2.096 . S
C793 N796 1.301 . S
C793 N797 1.328 . S
C793 H798 0.930 . S
C794 C795 1.333 . S
C794 N796 1.317 . S
C794 H799 0.930 . S
C795 C794 1.333 . S
C795 N797 1.350 . S
C795 H821 0.931 . S
N796 Co792 2.148 . S
N796 C793 1.301 . S
N796 C794 1.317 . S
N797 C793 1.328 . S
N797 C795 1.350 . S
H798 C793 0.930 . S
H799 C794 0.930 . S
C800 O801 1.224 . S
C800 O819 1.247 . S
O801 C800 1.224 . S
N802 Co792 2.128 . S
N802 C803 1.355 . S
N802 C805 1.311 . S
C803 N802 1.355 . S
C803 C804 1.363 . S
C803 H815 0.929 . S
C804 C803 1.363 . S
C804 N806 1.375 . S
C804 H822 0.931 . S
C805 N802 1.311 . S
C805 N806 1.347 . S
C805 H816 0.929 . S
N806 C804 1.375 . S
N806 C805 1.347 . S
C807 C810 1.365 . S
C807 N812 1.328 . S
C807 H813 0.929 . S
C808 C809 1.362 . S
C808 C811 1.378 . S
C808 H823 0.929 . S
C809 C808 1.362 . S
C809 C810 1.366 . S
C810 C807 1.365 . S
C810 C809 1.366 . S
C810 H824 0.930 . S
C811 C808 1.378 . S
C811 N812 1.315 . S
C811 H814 0.930 . S
N812 Co792 2.194 . S
N812 C807 1.328 . S
N812 C811 1.315 . S
H813 C807 0.929 . S
H814 C811 0.930 . S
H815 C803 0.929 . S
H816 C805 0.929 . S
O817 Co792 2.351 . S
O817 C820 1.244 . S
O818 Co792 2.155 . S
O818 C820 1.240 . S
O819 Co792 2.096 . S
O819 C800 1.247 . S
C820 O817 1.244 . S
C820 O818 1.240 . S
H821 C795 0.931 . S
H822 C804 0.931 . S
H823 C808 0.929 . S
H824 C810 0.930 . S
Co825 N829 2.148 . S
Co825 N835 2.128 . S
Co825 N845 2.194 . S
Co825 O850 2.351 . S
Co825 O851 2.155 . S
Co825 O852 2.096 . S
C826 N829 1.301 . S
C826 N830 1.328 . S
C826 H831 0.930 . S
C827 C828 1.333 . S
C827 N829 1.317 . S
C827 H832 0.930 . S
C828 C827 1.333 . S
C828 N830 1.350 . S
C828 H854 0.931 . S
N829 Co825 2.148 . S
N829 C826 1.301 . S
N829 C827 1.317 . S
N830 C826 1.328 . S
N830 C828 1.350 . S
H831 C826 0.930 . S
H832 C827 0.930 . S
C833 O834 1.224 . S
C833 O852 1.247 . S
O834 C833 1.224 . S
N835 Co825 2.128 . S
N835 C836 1.355 . S
N835 C838 1.311 . S
C836 N835 1.355 . S
C836 C837 1.363 . S
C836 H848 0.929 . S
C837 C836 1.363 . S
C837 N839 1.375 . S
C837 H855 0.931 . S
C838 N835 1.311 . S
C838 N839 1.347 . S
C838 H849 0.929 . S
N839 C837 1.375 . S
N839 C838 1.347 . S
C840 C843 1.365 . S
C840 N845 1.328 . S
C840 H846 0.929 . S
C841 C842 1.362 . S
C841 C844 1.378 . S
C841 H856 0.929 . S
C842 C841 1.362 . S
C842 C843 1.366 . S
C843 C840 1.365 . S
C843 C842 1.366 . S
C843 H857 0.930 . S
C844 C841 1.378 . S
C844 N845 1.315 . S
C844 H847 0.930 . S
N845 Co825 2.194 . S
N845 C840 1.328 . S
N845 C844 1.315 . S
H846 C840 0.929 . S
H847 C844 0.930 . S
H848 C836 0.929 . S
H849 C838 0.929 . S
O850 Co825 2.351 . S
O850 C853 1.244 . S
O851 Co825 2.155 . S
O851 C853 1.240 . S
O852 Co825 2.096 . S
O852 C833 1.247 . S
C853 O850 1.244 . S
C853 O851 1.240 . S
H854 C828 0.931 . S
H855 C837 0.931 . S
H856 C841 0.929 . S
H857 C843 0.930 . S
Co858 N862 2.148 . S
Co858 N868 2.128 . S
Co858 N878 2.194 . S
Co858 O883 2.351 . S
Co858 O884 2.155 . S
Co858 O885 2.096 . S
C859 N862 1.301 . S
C859 N863 1.328 . S
C859 H864 0.930 . S
C860 C861 1.333 . S
C860 N862 1.317 . S
C860 H865 0.930 . S
C861 C860 1.333 . S
C861 N863 1.350 . S
C861 H887 0.931 . S
N862 Co858 2.148 . S
N862 C859 1.301 . S
N862 C860 1.317 . S
N863 C859 1.328 . S
N863 C861 1.350 . S
H864 C859 0.930 . S
H865 C860 0.930 . S
C866 O867 1.224 . S
C866 O885 1.247 . S
O867 C866 1.224 . S
N868 Co858 2.128 . S
N868 C869 1.355 . S
N868 C871 1.311 . S
C869 N868 1.355 . S
C869 C870 1.363 . S
C869 H881 0.929 . S
C870 C869 1.363 . S
C870 N872 1.375 . S
C870 H888 0.931 . S
C871 N868 1.311 . S
C871 N872 1.347 . S
C871 H882 0.929 . S
N872 C870 1.375 . S
N872 C871 1.347 . S
C873 C876 1.365 . S
C873 N878 1.328 . S
C873 H879 0.929 . S
C874 C875 1.362 . S
C874 C877 1.378 . S
C874 H889 0.929 . S
C875 C874 1.362 . S
C875 C876 1.366 . S
C876 C873 1.365 . S
C876 C875 1.366 . S
C876 H890 0.930 . S
C877 C874 1.378 . S
C877 N878 1.315 . S
C877 H880 0.930 . S
N878 Co858 2.194 . S
N878 C873 1.328 . S
N878 C877 1.315 . S
H879 C873 0.929 . S
H880 C877 0.930 . S
H881 C869 0.929 . S
H882 C871 0.929 . S
O883 Co858 2.351 . S
O883 C886 1.244 . S
O884 Co858 2.155 . S
O884 C886 1.240 . S
O885 Co858 2.096 . S
O885 C866 1.247 . S
C886 O883 1.244 . S
C886 O884 1.240 . S
H887 C861 0.931 . S
H888 C870 0.931 . S
H889 C874 0.929 . S
H890 C876 0.930 . S
Co891 N895 2.148 . S
Co891 N901 2.128 . S
Co891 N911 2.194 . S
Co891 O916 2.351 . S
Co891 O917 2.155 . S
Co891 O918 2.096 . S
C892 N895 1.301 . S
C892 N896 1.328 . S
C892 H897 0.930 . S
C893 C894 1.333 . S
C893 N895 1.317 . S
C893 H898 0.930 . S
C894 C893 1.333 . S
C894 N896 1.350 . S
C894 H920 0.931 . S
N895 Co891 2.148 . S
N895 C892 1.301 . S
N895 C893 1.317 . S
N896 C892 1.328 . S
N896 C894 1.350 . S
H897 C892 0.930 . S
H898 C893 0.930 . S
C899 O900 1.224 . S
C899 O918 1.247 . S
O900 C899 1.224 . S
N901 Co891 2.128 . S
N901 C902 1.355 . S
N901 C904 1.311 . S
C902 N901 1.355 . S
C902 C903 1.363 . S
C902 H914 0.929 . S
C903 C902 1.363 . S
C903 N905 1.375 . S
C903 H921 0.931 . S
C904 N901 1.311 . S
C904 N905 1.347 . S
C904 H915 0.929 . S
N905 C903 1.375 . S
N905 C904 1.347 . S
C906 C909 1.365 . S
C906 N911 1.328 . S
C906 H912 0.929 . S
C907 C908 1.362 . S
C907 C910 1.378 . S
C907 H922 0.929 . S
C908 C907 1.362 . S
C908 C909 1.366 . S
C909 C906 1.365 . S
C909 C908 1.366 . S
C909 H923 0.930 . S
C910 C907 1.378 . S
C910 N911 1.315 . S
C910 H913 0.930 . S
N911 Co891 2.194 . S
N911 C906 1.328 . S
N911 C910 1.315 . S
H912 C906 0.929 . S
H913 C910 0.930 . S
H914 C902 0.929 . S
H915 C904 0.929 . S
O916 Co891 2.351 . S
O916 C919 1.244 . S
O917 Co891 2.155 . S
O917 C919 1.240 . S
O918 Co891 2.096 . S
O918 C899 1.247 . S
C919 O916 1.244 . S
C919 O917 1.240 . S
H920 C894 0.931 . S
H921 C903 0.931 . S
H922 C907 0.929 . S
H923 C909 0.930 . S
Co924 N928 2.148 . S
Co924 N934 2.128 . S
Co924 N944 2.194 . S
Co924 O949 2.351 . S
Co924 O950 2.155 . S
Co924 O951 2.096 . S
C925 N928 1.301 . S
C925 N929 1.328 . S
C925 H930 0.930 . S
C926 C927 1.333 . S
C926 N928 1.317 . S
C926 H931 0.930 . S
C927 C926 1.333 . S
C927 N929 1.350 . S
C927 H953 0.931 . S
N928 Co924 2.148 . S
N928 C925 1.301 . S
N928 C926 1.317 . S
N929 C925 1.328 . S
N929 C927 1.350 . S
H930 C925 0.930 . S
H931 C926 0.930 . S
C932 O933 1.224 . S
C932 O951 1.247 . S
O933 C932 1.224 . S
N934 Co924 2.128 . S
N934 C935 1.355 . S
N934 C937 1.311 . S
C935 N934 1.355 . S
C935 C936 1.363 . S
C935 H947 0.929 . S
C936 C935 1.363 . S
C936 N938 1.375 . S
C936 H954 0.931 . S
C937 N934 1.311 . S
C937 N938 1.347 . S
C937 H948 0.929 . S
N938 C936 1.375 . S
N938 C937 1.347 . S
C939 C942 1.365 . S
C939 N944 1.328 . S
C939 H945 0.929 . S
C940 C941 1.362 . S
C940 C943 1.378 . S
C940 H955 0.929 . S
C941 C940 1.362 . S
C941 C942 1.366 . S
C942 C939 1.365 . S
C942 C941 1.366 . S
C942 H956 0.930 . S
C943 C940 1.378 . S
C943 N944 1.315 . S
C943 H946 0.930 . S
N944 Co924 2.194 . S
N944 C939 1.328 . S
N944 C943 1.315 . S
H945 C939 0.929 . S
H946 C943 0.930 . S
H947 C935 0.929 . S
H948 C937 0.929 . S
O949 Co924 2.351 . S
O949 C952 1.244 . S
O950 Co924 2.155 . S
O950 C952 1.240 . S
O951 Co924 2.096 . S
O951 C932 1.247 . S
C952 O949 1.244 . S
C952 O950 1.240 . S
H953 C927 0.931 . S
H954 C936 0.931 . S
H955 C940 0.929 . S
H956 C942 0.930 . S
Co957 N961 2.148 . S
Co957 N967 2.128 . S
Co957 N977 2.194 . S
Co957 O982 2.351 . S
Co957 O983 2.155 . S
Co957 O984 2.096 . S
C958 N961 1.301 . S
C958 N962 1.328 . S
C958 H963 0.930 . S
C959 C960 1.333 . S
C959 N961 1.317 . S
C959 H964 0.930 . S
C960 C959 1.333 . S
C960 N962 1.350 . S
C960 H986 0.931 . S
N961 Co957 2.148 . S
N961 C958 1.301 . S
N961 C959 1.317 . S
N962 C958 1.328 . S
N962 C960 1.350 . S
H963 C958 0.930 . S
H964 C959 0.930 . S
C965 O966 1.224 . S
C965 O984 1.247 . S
O966 C965 1.224 . S
N967 Co957 2.128 . S
N967 C968 1.355 . S
N967 C970 1.311 . S
C968 N967 1.355 . S
C968 C969 1.363 . S
C968 H980 0.929 . S
C969 C968 1.363 . S
C969 N971 1.375 . S
C969 H987 0.931 . S
C970 N967 1.311 . S
C970 N971 1.347 . S
C970 H981 0.929 . S
N971 C969 1.375 . S
N971 C970 1.347 . S
C972 C975 1.365 . S
C972 N977 1.328 . S
C972 H978 0.929 . S
C973 C974 1.362 . S
C973 C976 1.378 . S
C973 H988 0.929 . S
C974 C973 1.362 . S
C974 C975 1.366 . S
C975 C972 1.365 . S
C975 C974 1.366 . S
C975 H989 0.930 . S
C976 C973 1.378 . S
C976 N977 1.315 . S
C976 H979 0.930 . S
N977 Co957 2.194 . S
N977 C972 1.328 . S
N977 C976 1.315 . S
H978 C972 0.929 . S
H979 C976 0.930 . S
H980 C968 0.929 . S
H981 C970 0.929 . S
O982 Co957 2.351 . S
O982 C985 1.244 . S
O983 Co957 2.155 . S
O983 C985 1.240 . S
O984 Co957 2.096 . S
O984 C965 1.247 . S
C985 O982 1.244 . S
C985 O983 1.240 . S
H986 C960 0.931 . S
H987 C969 0.931 . S
H988 C973 0.929 . S
H989 C975 0.930 . S
Co990 N994 2.148 . S
Co990 N1000 2.128 . S
Co990 N1010 2.194 . S
Co990 O1015 2.351 . S
Co990 O1016 2.155 . S
Co990 O1017 2.096 . S
C991 N994 1.301 . S
C991 N995 1.328 . S
C991 H996 0.930 . S
C992 C993 1.333 . S
C992 N994 1.317 . S
C992 H997 0.930 . S
C993 C992 1.333 . S
C993 N995 1.350 . S
C993 H1019 0.931 . S
N994 Co990 2.148 . S
N994 C991 1.301 . S
N994 C992 1.317 . S
N995 C991 1.328 . S
N995 C993 1.350 . S
H996 C991 0.930 . S
H997 C992 0.930 . S
C998 O999 1.224 . S
C998 O1017 1.247 . S
O999 C998 1.224 . S
N1000 Co990 2.128 . S
N1000 C1001 1.355 . S
N1000 C1003 1.311 . S
C1001 N1000 1.355 . S
C1001 C1002 1.363 . S
C1001 H1013 0.929 . S
C1002 C1001 1.363 . S
C1002 N1004 1.375 . S
C1002 H1020 0.931 . S
C1003 N1000 1.311 . S
C1003 N1004 1.347 . S
C1003 H1014 0.929 . S
N1004 C1002 1.375 . S
N1004 C1003 1.347 . S
C1005 C1008 1.365 . S
C1005 N1010 1.328 . S
C1005 H1011 0.929 . S
C1006 C1007 1.362 . S
C1006 C1009 1.378 . S
C1006 H1021 0.929 . S
C1007 C1006 1.362 . S
C1007 C1008 1.366 . S
C1008 C1005 1.365 . S
C1008 C1007 1.366 . S
C1008 H1022 0.930 . S
C1009 C1006 1.378 . S
C1009 N1010 1.315 . S
C1009 H1012 0.930 . S
N1010 Co990 2.194 . S
N1010 C1005 1.328 . S
N1010 C1009 1.315 . S
H1011 C1005 0.929 . S
H1012 C1009 0.930 . S
H1013 C1001 0.929 . S
H1014 C1003 0.929 . S
O1015 Co990 2.351 . S
O1015 C1018 1.244 . S
O1016 Co990 2.155 . S
O1016 C1018 1.240 . S
O1017 Co990 2.096 . S
O1017 C998 1.247 . S
C1018 O1015 1.244 . S
C1018 O1016 1.240 . S
H1019 C993 0.931 . S
H1020 C1002 0.931 . S
H1021 C1006 0.929 . S
H1022 C1008 0.930 . S
Co1023 N1027 2.148 . S
Co1023 N1033 2.128 . S
Co1023 N1043 2.194 . S
Co1023 O1048 2.351 . S
Co1023 O1049 2.155 . S
Co1023 O1050 2.096 . S
C1024 N1027 1.301 . S
C1024 N1028 1.328 . S
C1024 H1029 0.930 . S
C1025 C1026 1.333 . S
C1025 N1027 1.317 . S
C1025 H1030 0.930 . S
C1026 C1025 1.333 . S
C1026 N1028 1.350 . S
C1026 H1052 0.931 . S
N1027 Co1023 2.148 . S
N1027 C1024 1.301 . S
N1027 C1025 1.317 . S
N1028 C1024 1.328 . S
N1028 C1026 1.350 . S
H1029 C1024 0.930 . S
H1030 C1025 0.930 . S
C1031 O1032 1.224 . S
C1031 O1050 1.247 . S
O1032 C1031 1.224 . S
N1033 Co1023 2.128 . S
N1033 C1034 1.355 . S
N1033 C1036 1.311 . S
C1034 N1033 1.355 . S
C1034 C1035 1.363 . S
C1034 H1046 0.929 . S
C1035 C1034 1.363 . S
C1035 N1037 1.375 . S
C1035 H1053 0.931 . S
C1036 N1033 1.311 . S
C1036 N1037 1.347 . S
C1036 H1047 0.929 . S
N1037 C1035 1.375 . S
N1037 C1036 1.347 . S
C1038 C1041 1.365 . S
C1038 N1043 1.328 . S
C1038 H1044 0.929 . S
C1039 C1040 1.362 . S
C1039 C1042 1.378 . S
C1039 H1054 0.929 . S
C1040 C1039 1.362 . S
C1040 C1041 1.366 . S
C1041 C1038 1.365 . S
C1041 C1040 1.366 . S
C1041 H1055 0.930 . S
C1042 C1039 1.378 . S
C1042 N1043 1.315 . S
C1042 H1045 0.930 . S
N1043 Co1023 2.194 . S
N1043 C1038 1.328 . S
N1043 C1042 1.315 . S
H1044 C1038 0.929 . S
H1045 C1042 0.930 . S
H1046 C1034 0.929 . S
H1047 C1036 0.929 . S
O1048 Co1023 2.351 . S
O1048 C1051 1.244 . S
O1049 Co1023 2.155 . S
O1049 C1051 1.240 . S
O1050 Co1023 2.096 . S
O1050 C1031 1.247 . S
C1051 O1048 1.244 . S
C1051 O1049 1.240 . S
H1052 C1026 0.931 . S
H1053 C1035 0.931 . S
H1054 C1039 0.929 . S
H1055 C1041 0.930 . S
Co1056 N1060 2.148 . S
Co1056 N1066 2.128 . S
Co1056 N1076 2.194 . S
Co1056 O1081 2.351 . S
Co1056 O1082 2.155 . S
Co1056 O1083 2.096 . S
C1057 N1060 1.301 . S
C1057 N1061 1.328 . S
C1057 H1062 0.930 . S
C1058 C1059 1.333 . S
C1058 N1060 1.317 . S
C1058 H1063 0.930 . S
C1059 C1058 1.333 . S
C1059 N1061 1.350 . S
C1059 H1085 0.931 . S
N1060 Co1056 2.148 . S
N1060 C1057 1.301 . S
N1060 C1058 1.317 . S
N1061 C1057 1.328 . S
N1061 C1059 1.350 . S
H1062 C1057 0.930 . S
H1063 C1058 0.930 . S
C1064 O1065 1.224 . S
C1064 O1083 1.247 . S
O1065 C1064 1.224 . S
N1066 Co1056 2.128 . S
N1066 C1067 1.355 . S
N1066 C1069 1.311 . S
C1067 N1066 1.355 . S
C1067 C1068 1.363 . S
C1067 H1079 0.929 . S
C1068 C1067 1.363 . S
C1068 N1070 1.375 . S
C1068 H1086 0.931 . S
C1069 N1066 1.311 . S
C1069 N1070 1.347 . S
C1069 H1080 0.929 . S
N1070 C1068 1.375 . S
N1070 C1069 1.347 . S
C1071 C1074 1.365 . S
C1071 N1076 1.328 . S
C1071 H1077 0.929 . S
C1072 C1073 1.362 . S
C1072 C1075 1.378 . S
C1072 H1087 0.929 . S
C1073 C1072 1.362 . S
C1073 C1074 1.366 . S
C1074 C1071 1.365 . S
C1074 C1073 1.366 . S
C1074 H1088 0.930 . S
C1075 C1072 1.378 . S
C1075 N1076 1.315 . S
C1075 H1078 0.930 . S
N1076 Co1056 2.194 . S
N1076 C1071 1.328 . S
N1076 C1075 1.315 . S
H1077 C1071 0.929 . S
H1078 C1075 0.930 . S
H1079 C1067 0.929 . S
H1080 C1069 0.929 . S
O1081 Co1056 2.351 . S
O1081 C1084 1.244 . S
O1082 Co1056 2.155 . S
O1082 C1084 1.240 . S
O1083 Co1056 2.096 . S
O1083 C1064 1.247 . S
C1084 O1081 1.244 . S
C1084 O1082 1.240 . S
H1085 C1059 0.931 . S
H1086 C1068 0.931 . S
H1087 C1072 0.929 . S
H1088 C1074 0.930 . S
Co1089 N1093 2.134 1_545 S
Co1089 N1099 2.128 . S
Co1089 N1109 2.194 . S
Co1089 O1114 2.351 . S
Co1089 O1115 2.155 . S
Co1089 O1116 2.096 . S
C1090 N1093 1.299 1_545 S
C1090 N1094 1.328 1_545 S
C1090 H1095 0.930 . S
C1091 C1092 1.333 . S
C1091 N1093 1.336 . S
C1091 H1096 0.930 . S
C1092 C1091 1.333 . S
C1092 N1094 1.350 . S
C1092 H1118 0.931 . S
N1093 Co1089 2.134 1_565 S
N1093 C1090 1.299 1_565 S
N1093 C1091 1.336 . S
N1094 C1090 1.328 1_565 S
N1094 C1092 1.350 . S
H1095 C1090 0.930 . S
H1096 C1091 0.930 . S
C1097 O1098 1.224 . S
C1097 O1116 1.247 1_565 S
O1098 C1097 1.224 . S
N1099 Co1089 2.128 . S
N1099 C1100 1.355 . S
N1099 C1102 1.311 . S
C1100 N1099 1.355 . S
C1100 C1101 1.363 . S
C1100 H1112 0.929 . S
C1101 C1100 1.363 . S
C1101 N1103 1.375 . S
C1101 H1119 0.931 . S
C1102 N1099 1.311 . S
C1102 N1103 1.347 . S
C1102 H1113 0.929 . S
N1103 C1101 1.375 . S
N1103 C1102 1.347 . S
C1104 C1107 1.365 . S
C1104 N1109 1.328 . S
C1104 H1110 0.929 . S
C1105 C1106 1.362 . S
C1105 C1108 1.378 . S
C1105 H1120 0.929 . S
C1106 C1105 1.362 . S
C1106 C1107 1.366 . S
C1107 C1104 1.365 . S
C1107 C1106 1.366 . S
C1107 H1121 0.930 . S
C1108 C1105 1.378 . S
C1108 N1109 1.315 . S
C1108 H1111 0.930 . S
N1109 Co1089 2.194 . S
N1109 C1104 1.328 . S
N1109 C1108 1.315 . S
H1110 C1104 0.929 . S
H1111 C1108 0.930 . S
H1112 C1100 0.929 . S
H1113 C1102 0.929 . S
O1114 Co1089 2.351 . S
O1114 C1117 1.244 . S
O1115 Co1089 2.155 . S
O1115 C1117 1.240 . S
O1116 Co1089 2.096 . S
O1116 C1097 1.247 1_545 S
C1117 O1114 1.244 . S
C1117 O1115 1.240 . S
H1118 C1092 0.931 . S
H1119 C1101 0.931 . S
H1120 C1105 0.929 . S
H1121 C1107 0.930 . S
Co1122 N1126 2.148 . S
Co1122 N1132 2.128 . S
Co1122 N1142 2.194 . S
Co1122 O1147 2.351 . S
Co1122 O1148 2.155 . S
Co1122 O1149 2.096 . S
C1123 N1126 1.301 . S
C1123 N1127 1.328 . S
C1123 H1128 0.930 . S
C1124 C1125 1.333 . S
C1124 N1126 1.317 . S
C1124 H1129 0.930 . S
C1125 C1124 1.333 . S
C1125 N1127 1.350 . S
C1125 H1151 0.931 . S
N1126 Co1122 2.148 . S
N1126 C1123 1.301 . S
N1126 C1124 1.317 . S
N1127 C1123 1.328 . S
N1127 C1125 1.350 . S
H1128 C1123 0.930 . S
H1129 C1124 0.930 . S
C1130 O1131 1.224 . S
C1130 O1149 1.247 . S
O1131 C1130 1.224 . S
N1132 Co1122 2.128 . S
N1132 C1133 1.355 . S
N1132 C1135 1.311 . S
C1133 N1132 1.355 . S
C1133 C1134 1.363 . S
C1133 H1145 0.929 . S
C1134 C1133 1.363 . S
C1134 N1136 1.375 . S
C1134 H1152 0.931 . S
C1135 N1132 1.311 . S
C1135 N1136 1.347 . S
C1135 H1146 0.929 . S
N1136 C1134 1.375 . S
N1136 C1135 1.347 . S
C1137 C1140 1.365 . S
C1137 N1142 1.328 . S
C1137 H1143 0.929 . S
C1138 C1139 1.362 . S
C1138 C1141 1.378 . S
C1138 H1153 0.929 . S
C1139 C1138 1.362 . S
C1139 C1140 1.366 . S
C1140 C1137 1.365 . S
C1140 C1139 1.366 . S
C1140 H1154 0.930 . S
C1141 C1138 1.378 . S
C1141 N1142 1.315 . S
C1141 H1144 0.930 . S
N1142 Co1122 2.194 . S
N1142 C1137 1.328 . S
N1142 C1141 1.315 . S
H1143 C1137 0.929 . S
H1144 C1141 0.930 . S
H1145 C1133 0.929 . S
H1146 C1135 0.929 . S
O1147 Co1122 2.351 . S
O1147 C1150 1.244 . S
O1148 Co1122 2.155 . S
O1148 C1150 1.240 . S
O1149 Co1122 2.096 . S
O1149 C1130 1.247 . S
C1150 O1147 1.244 . S
C1150 O1148 1.240 . S
H1151 C1125 0.931 . S
H1152 C1134 0.931 . S
H1153 C1138 0.929 . S
H1154 C1140 0.930 . S
Co1155 N1159 2.148 . S
Co1155 N1165 2.128 . S
Co1155 N1175 2.194 . S
Co1155 O1180 2.351 . S
Co1155 O1181 2.155 . S
Co1155 O1182 2.096 . S
C1156 N1159 1.301 . S
C1156 N1160 1.328 . S
C1156 H1161 0.930 . S
C1157 C1158 1.333 . S
C1157 N1159 1.317 . S
C1157 H1162 0.930 . S
C1158 C1157 1.333 . S
C1158 N1160 1.350 . S
C1158 H1184 0.931 . S
N1159 Co1155 2.148 . S
N1159 C1156 1.301 . S
N1159 C1157 1.317 . S
N1160 C1156 1.328 . S
N1160 C1158 1.350 . S
H1161 C1156 0.930 . S
H1162 C1157 0.930 . S
C1163 O1164 1.224 . S
C1163 O1182 1.247 . S
O1164 C1163 1.224 . S
N1165 Co1155 2.128 . S
N1165 C1166 1.355 . S
N1165 C1168 1.311 . S
C1166 N1165 1.355 . S
C1166 C1167 1.363 . S
C1166 H1178 0.929 . S
C1167 C1166 1.363 . S
C1167 N1169 1.375 . S
C1167 H1185 0.931 . S
C1168 N1165 1.311 . S
C1168 N1169 1.347 . S
C1168 H1179 0.929 . S
N1169 C1167 1.375 . S
N1169 C1168 1.347 . S
C1170 C1173 1.365 . S
C1170 N1175 1.328 . S
C1170 H1176 0.929 . S
C1171 C1172 1.362 . S
C1171 C1174 1.378 . S
C1171 H1186 0.929 . S
C1172 C1171 1.362 . S
C1172 C1173 1.366 . S
C1173 C1170 1.365 . S
C1173 C1172 1.366 . S
C1173 H1187 0.930 . S
C1174 C1171 1.378 . S
C1174 N1175 1.315 . S
C1174 H1177 0.930 . S
N1175 Co1155 2.194 . S
N1175 C1170 1.328 . S
N1175 C1174 1.315 . S
H1176 C1170 0.929 . S
H1177 C1174 0.930 . S
H1178 C1166 0.929 . S
H1179 C1168 0.929 . S
O1180 Co1155 2.351 . S
O1180 C1183 1.244 . S
O1181 Co1155 2.155 . S
O1181 C1183 1.240 . S
O1182 Co1155 2.096 . S
O1182 C1163 1.247 . S
C1183 O1180 1.244 . S
C1183 O1181 1.240 . S
H1184 C1158 0.931 . S
H1185 C1167 0.931 . S
H1186 C1171 0.929 . S
H1187 C1173 0.930 . S
Co1188 N1192 2.148 . S
Co1188 N1198 2.128 . S
Co1188 N1208 2.194 . S
Co1188 O1213 2.351 . S
Co1188 O1214 2.155 . S
Co1188 O1215 2.096 . S
C1189 N1192 1.301 . S
C1189 N1193 1.328 . S
C1189 H1194 0.930 . S
C1190 C1191 1.333 . S
C1190 N1192 1.317 . S
C1190 H1195 0.930 . S
C1191 C1190 1.333 . S
C1191 N1193 1.350 . S
C1191 H1217 0.931 . S
N1192 Co1188 2.148 . S
N1192 C1189 1.301 . S
N1192 C1190 1.317 . S
N1193 C1189 1.328 . S
N1193 C1191 1.350 . S
H1194 C1189 0.930 . S
H1195 C1190 0.930 . S
C1196 O1197 1.224 . S
C1196 O1215 1.247 . S
O1197 C1196 1.224 . S
N1198 Co1188 2.128 . S
N1198 C1199 1.355 . S
N1198 C1201 1.311 . S
C1199 N1198 1.355 . S
C1199 C1200 1.363 . S
C1199 H1211 0.929 . S
C1200 C1199 1.363 . S
C1200 N1202 1.375 . S
C1200 H1218 0.931 . S
C1201 N1198 1.311 . S
C1201 N1202 1.347 . S
C1201 H1212 0.929 . S
N1202 C1200 1.375 . S
N1202 C1201 1.347 . S
C1203 C1206 1.365 . S
C1203 N1208 1.328 . S
C1203 H1209 0.929 . S
C1204 C1205 1.362 . S
C1204 C1207 1.378 . S
C1204 H1219 0.929 . S
C1205 C1204 1.362 . S
C1205 C1206 1.366 . S
C1206 C1203 1.365 . S
C1206 C1205 1.366 . S
C1206 H1220 0.930 . S
C1207 C1204 1.378 . S
C1207 N1208 1.315 . S
C1207 H1210 0.930 . S
N1208 Co1188 2.194 . S
N1208 C1203 1.328 . S
N1208 C1207 1.315 . S
H1209 C1203 0.929 . S
H1210 C1207 0.930 . S
H1211 C1199 0.929 . S
H1212 C1201 0.929 . S
O1213 Co1188 2.351 . S
O1213 C1216 1.244 . S
O1214 Co1188 2.155 . S
O1214 C1216 1.240 . S
O1215 Co1188 2.096 . S
O1215 C1196 1.247 . S
C1216 O1213 1.244 . S
C1216 O1214 1.240 . S
H1217 C1191 0.931 . S
H1218 C1200 0.931 . S
H1219 C1204 0.929 . S
H1220 C1206 0.930 . S
Co1221 N1225 2.134 1_545 S
Co1221 N1231 2.128 . S
Co1221 N1241 2.194 . S
Co1221 O1246 2.351 . S
Co1221 O1247 2.155 . S
Co1221 O1248 2.096 . S
C1222 N1225 1.299 1_545 S
C1222 N1226 1.328 1_545 S
C1222 H1227 0.930 . S
C1223 C1224 1.333 . S
C1223 N1225 1.336 . S
C1223 H1228 0.930 . S
C1224 C1223 1.333 . S
C1224 N1226 1.350 . S
C1224 H1250 0.931 . S
N1225 Co1221 2.134 1_565 S
N1225 C1222 1.299 1_565 S
N1225 C1223 1.336 . S
N1226 C1222 1.328 1_565 S
N1226 C1224 1.350 . S
H1227 C1222 0.930 . S
H1228 C1223 0.930 . S
C1229 O1230 1.224 . S
C1229 O1248 1.247 1_565 S
O1230 C1229 1.224 . S
N1231 Co1221 2.128 . S
N1231 C1232 1.355 . S
N1231 C1234 1.311 . S
C1232 N1231 1.355 . S
C1232 C1233 1.363 . S
C1232 H1244 0.929 . S
C1233 C1232 1.363 . S
C1233 N1235 1.375 . S
C1233 H1251 0.931 . S
C1234 N1231 1.311 . S
C1234 N1235 1.347 . S
C1234 H1245 0.929 . S
N1235 C1233 1.375 . S
N1235 C1234 1.347 . S
C1236 C1239 1.365 . S
C1236 N1241 1.328 . S
C1236 H1242 0.929 . S
C1237 C1238 1.362 . S
C1237 C1240 1.378 . S
C1237 H1252 0.929 . S
C1238 C1237 1.362 . S
C1238 C1239 1.366 . S
C1239 C1236 1.365 . S
C1239 C1238 1.366 . S
C1239 H1253 0.930 . S
C1240 C1237 1.378 . S
C1240 N1241 1.315 . S
C1240 H1243 0.930 . S
N1241 Co1221 2.194 . S
N1241 C1236 1.328 . S
N1241 C1240 1.315 . S
H1242 C1236 0.929 . S
H1243 C1240 0.930 . S
H1244 C1232 0.929 . S
H1245 C1234 0.929 . S
O1246 Co1221 2.351 . S
O1246 C1249 1.244 . S
O1247 Co1221 2.155 . S
O1247 C1249 1.240 . S
O1248 Co1221 2.096 . S
O1248 C1229 1.247 1_545 S
C1249 O1246 1.244 . S
C1249 O1247 1.240 . S
H1250 C1224 0.931 . S
H1251 C1233 0.931 . S
H1252 C1237 0.929 . S
H1253 C1239 0.930 . S
Co1254 N1258 2.148 . S
Co1254 N1264 2.128 . S
Co1254 N1274 2.194 . S
Co1254 O1279 2.351 . S
Co1254 O1280 2.155 . S
Co1254 O1281 2.096 . S
C1255 N1258 1.301 . S
C1255 N1259 1.328 . S
C1255 H1260 0.930 . S
C1256 C1257 1.333 . S
C1256 N1258 1.317 . S
C1256 H1261 0.930 . S
C1257 C1256 1.333 . S
C1257 N1259 1.350 . S
C1257 H1283 0.931 . S
N1258 Co1254 2.148 . S
N1258 C1255 1.301 . S
N1258 C1256 1.317 . S
N1259 C1255 1.328 . S
N1259 C1257 1.350 . S
H1260 C1255 0.930 . S
H1261 C1256 0.930 . S
C1262 O1263 1.224 . S
C1262 O1281 1.247 . S
O1263 C1262 1.224 . S
N1264 Co1254 2.128 . S
N1264 C1265 1.355 . S
N1264 C1267 1.311 . S
C1265 N1264 1.355 . S
C1265 C1266 1.363 . S
C1265 H1277 0.929 . S
C1266 C1265 1.363 . S
C1266 N1268 1.375 . S
C1266 H1284 0.931 . S
C1267 N1264 1.311 . S
C1267 N1268 1.347 . S
C1267 H1278 0.929 . S
N1268 C1266 1.375 . S
N1268 C1267 1.347 . S
C1269 C1272 1.365 . S
C1269 N1274 1.328 . S
C1269 H1275 0.929 . S
C1270 C1271 1.362 . S
C1270 C1273 1.378 . S
C1270 H1285 0.929 . S
C1271 C1270 1.362 . S
C1271 C1272 1.366 . S
C1272 C1269 1.365 . S
C1272 C1271 1.366 . S
C1272 H1286 0.930 . S
C1273 C1270 1.378 . S
C1273 N1274 1.315 . S
C1273 H1276 0.930 . S
N1274 Co1254 2.194 . S
N1274 C1269 1.328 . S
N1274 C1273 1.315 . S
H1275 C1269 0.929 . S
H1276 C1273 0.930 . S
H1277 C1265 0.929 . S
H1278 C1267 0.929 . S
O1279 Co1254 2.351 . S
O1279 C1282 1.244 . S
O1280 Co1254 2.155 . S
O1280 C1282 1.240 . S
O1281 Co1254 2.096 . S
O1281 C1262 1.247 . S
C1282 O1279 1.244 . S
C1282 O1280 1.240 . S
H1283 C1257 0.931 . S
H1284 C1266 0.931 . S
H1285 C1270 0.929 . S
H1286 C1272 0.930 . S
Co1287 N1291 2.148 . S
Co1287 N1297 2.128 . S
Co1287 N1307 2.194 . S
Co1287 O1312 2.351 . S
Co1287 O1313 2.155 . S
Co1287 O1314 2.096 . S
C1288 N1291 1.301 . S
C1288 N1292 1.328 . S
C1288 H1293 0.930 . S
C1289 C1290 1.333 . S
C1289 N1291 1.317 . S
C1289 H1294 0.930 . S
C1290 C1289 1.333 . S
C1290 N1292 1.350 . S
C1290 H1316 0.931 . S
N1291 Co1287 2.148 . S
N1291 C1288 1.301 . S
N1291 C1289 1.317 . S
N1292 C1288 1.328 . S
N1292 C1290 1.350 . S
H1293 C1288 0.930 . S
H1294 C1289 0.930 . S
C1295 O1296 1.224 . S
C1295 O1314 1.247 . S
O1296 C1295 1.224 . S
N1297 Co1287 2.128 . S
N1297 C1298 1.355 . S
N1297 C1300 1.311 . S
C1298 N1297 1.355 . S
C1298 C1299 1.363 . S
C1298 H1310 0.929 . S
C1299 C1298 1.363 . S
C1299 N1301 1.375 . S
C1299 H1317 0.931 . S
C1300 N1297 1.311 . S
C1300 N1301 1.347 . S
C1300 H1311 0.929 . S
N1301 C1299 1.375 . S
N1301 C1300 1.347 . S
C1302 C1305 1.365 . S
C1302 N1307 1.328 . S
C1302 H1308 0.929 . S
C1303 C1304 1.362 . S
C1303 C1306 1.378 . S
C1303 H1318 0.929 . S
C1304 C1303 1.362 . S
C1304 C1305 1.366 . S
C1305 C1302 1.365 . S
C1305 C1304 1.366 . S
C1305 H1319 0.930 . S
C1306 C1303 1.378 . S
C1306 N1307 1.315 . S
C1306 H1309 0.930 . S
N1307 Co1287 2.194 . S
N1307 C1302 1.328 . S
N1307 C1306 1.315 . S
H1308 C1302 0.929 . S
H1309 C1306 0.930 . S
H1310 C1298 0.929 . S
H1311 C1300 0.929 . S
O1312 Co1287 2.351 . S
O1312 C1315 1.244 . S
O1313 Co1287 2.155 . S
O1313 C1315 1.240 . S
O1314 Co1287 2.096 . S
O1314 C1295 1.247 . S
C1315 O1312 1.244 . S
C1315 O1313 1.240 . S
H1316 C1290 0.931 . S
H1317 C1299 0.931 . S
H1318 C1303 0.929 . S
H1319 C1305 0.930 . S
Co1320 N1324 2.148 . S
Co1320 N1330 2.128 . S
Co1320 N1340 2.194 . S
Co1320 O1345 2.351 . S
Co1320 O1346 2.155 . S
Co1320 O1347 2.096 . S
C1321 N1324 1.301 . S
C1321 N1325 1.328 . S
C1321 H1326 0.930 . S
C1322 C1323 1.333 . S
C1322 N1324 1.317 . S
C1322 H1327 0.930 . S
C1323 C1322 1.333 . S
C1323 N1325 1.350 . S
C1323 H1349 0.931 . S
N1324 Co1320 2.148 . S
N1324 C1321 1.301 . S
N1324 C1322 1.317 . S
N1325 C1321 1.328 . S
N1325 C1323 1.350 . S
H1326 C1321 0.930 . S
H1327 C1322 0.930 . S
C1328 O1329 1.224 . S
C1328 O1347 1.247 . S
O1329 C1328 1.224 . S
N1330 Co1320 2.128 . S
N1330 C1331 1.355 . S
N1330 C1333 1.311 . S
C1331 N1330 1.355 . S
C1331 C1332 1.363 . S
C1331 H1343 0.929 . S
C1332 C1331 1.363 . S
C1332 N1334 1.375 . S
C1332 H1350 0.931 . S
C1333 N1330 1.311 . S
C1333 N1334 1.347 . S
C1333 H1344 0.929 . S
N1334 C1332 1.375 . S
N1334 C1333 1.347 . S
C1335 C1338 1.365 . S
C1335 N1340 1.328 . S
C1335 H1341 0.929 . S
C1336 C1337 1.362 . S
C1336 C1339 1.378 . S
C1336 H1351 0.929 . S
C1337 C1336 1.362 . S
C1337 C1338 1.366 . S
C1338 C1335 1.365 . S
C1338 C1337 1.366 . S
C1338 H1352 0.930 . S
C1339 C1336 1.378 . S
C1339 N1340 1.315 . S
C1339 H1342 0.930 . S
N1340 Co1320 2.194 . S
N1340 C1335 1.328 . S
N1340 C1339 1.315 . S
H1341 C1335 0.929 . S
H1342 C1339 0.930 . S
H1343 C1331 0.929 . S
H1344 C1333 0.929 . S
O1345 Co1320 2.351 . S
O1345 C1348 1.244 . S
O1346 Co1320 2.155 . S
O1346 C1348 1.240 . S
O1347 Co1320 2.096 . S
O1347 C1328 1.247 . S
C1348 O1345 1.244 . S
C1348 O1346 1.240 . S
H1349 C1323 0.931 . S
H1350 C1332 0.931 . S
H1351 C1336 0.929 . S
H1352 C1338 0.930 . S
Co1353 N1357 2.148 . S
Co1353 N1363 2.128 . S
Co1353 N1373 2.194 . S
Co1353 O1378 2.351 . S
Co1353 O1379 2.155 . S
Co1353 O1380 2.096 . S
C1354 N1357 1.301 . S
C1354 N1358 1.328 . S
C1354 H1359 0.930 . S
C1355 C1356 1.333 . S
C1355 N1357 1.317 . S
C1355 H1360 0.930 . S
C1356 C1355 1.333 . S
C1356 N1358 1.350 . S
C1356 H1382 0.931 . S
N1357 Co1353 2.148 . S
N1357 C1354 1.301 . S
N1357 C1355 1.317 . S
N1358 C1354 1.328 . S
N1358 C1356 1.350 . S
H1359 C1354 0.930 . S
H1360 C1355 0.930 . S
C1361 O1362 1.224 . S
C1361 O1380 1.247 . S
O1362 C1361 1.224 . S
N1363 Co1353 2.128 . S
N1363 C1364 1.355 . S
N1363 C1366 1.311 . S
C1364 N1363 1.355 . S
C1364 C1365 1.363 . S
C1364 H1376 0.929 . S
C1365 C1364 1.363 . S
C1365 N1367 1.375 . S
C1365 H1383 0.931 . S
C1366 N1363 1.311 . S
C1366 N1367 1.347 . S
C1366 H1377 0.929 . S
N1367 C1365 1.375 . S
N1367 C1366 1.347 . S
C1368 C1371 1.365 . S
C1368 N1373 1.328 . S
C1368 H1374 0.929 . S
C1369 C1370 1.362 . S
C1369 C1372 1.378 . S
C1369 H1384 0.929 . S
C1370 C1369 1.362 . S
C1370 C1371 1.366 . S
C1371 C1368 1.365 . S
C1371 C1370 1.366 . S
C1371 H1385 0.930 . S
C1372 C1369 1.378 . S
C1372 N1373 1.315 . S
C1372 H1375 0.930 . S
N1373 Co1353 2.194 . S
N1373 C1368 1.328 . S
N1373 C1372 1.315 . S
H1374 C1368 0.929 . S
H1375 C1372 0.930 . S
H1376 C1364 0.929 . S
H1377 C1366 0.929 . S
O1378 Co1353 2.351 . S
O1378 C1381 1.244 . S
O1379 Co1353 2.155 . S
O1379 C1381 1.240 . S
O1380 Co1353 2.096 . S
O1380 C1361 1.247 . S
C1381 O1378 1.244 . S
C1381 O1379 1.240 . S
H1382 C1356 0.931 . S
H1383 C1365 0.931 . S
H1384 C1369 0.929 . S
H1385 C1371 0.930 . S
Co1386 N1390 2.148 . S
Co1386 N1396 2.128 . S
Co1386 N1406 2.194 . S
Co1386 O1411 2.351 . S
Co1386 O1412 2.155 . S
Co1386 O1413 2.096 . S
C1387 N1390 1.301 . S
C1387 N1391 1.328 . S
C1387 H1392 0.930 . S
C1388 C1389 1.333 . S
C1388 N1390 1.317 . S
C1388 H1393 0.930 . S
C1389 C1388 1.333 . S
C1389 N1391 1.350 . S
C1389 H1415 0.931 . S
N1390 Co1386 2.148 . S
N1390 C1387 1.301 . S
N1390 C1388 1.317 . S
N1391 C1387 1.328 . S
N1391 C1389 1.350 . S
H1392 C1387 0.930 . S
H1393 C1388 0.930 . S
C1394 O1395 1.224 . S
C1394 O1413 1.247 . S
O1395 C1394 1.224 . S
N1396 Co1386 2.128 . S
N1396 C1397 1.355 . S
N1396 C1399 1.311 . S
C1397 N1396 1.355 . S
C1397 C1398 1.363 . S
C1397 H1409 0.929 . S
C1398 C1397 1.363 . S
C1398 N1400 1.375 . S
C1398 H1416 0.931 . S
C1399 N1396 1.311 . S
C1399 N1400 1.347 . S
C1399 H1410 0.929 . S
N1400 C1398 1.375 . S
N1400 C1399 1.347 . S
C1401 C1404 1.365 . S
C1401 N1406 1.328 . S
C1401 H1407 0.929 . S
C1402 C1403 1.362 . S
C1402 C1405 1.378 . S
C1402 H1417 0.929 . S
C1403 C1402 1.362 . S
C1403 C1404 1.366 . S
C1404 C1401 1.365 . S
C1404 C1403 1.366 . S
C1404 H1418 0.930 . S
C1405 C1402 1.378 . S
C1405 N1406 1.315 . S
C1405 H1408 0.930 . S
N1406 Co1386 2.194 . S
N1406 C1401 1.328 . S
N1406 C1405 1.315 . S
H1407 C1401 0.929 . S
H1408 C1405 0.930 . S
H1409 C1397 0.929 . S
H1410 C1399 0.929 . S
O1411 Co1386 2.351 . S
O1411 C1414 1.244 . S
O1412 Co1386 2.155 . S
O1412 C1414 1.240 . S
O1413 Co1386 2.096 . S
O1413 C1394 1.247 . S
C1414 O1411 1.244 . S
C1414 O1412 1.240 . S
H1415 C1389 0.931 . S
H1416 C1398 0.931 . S
H1417 C1402 0.929 . S
H1418 C1404 0.930 . S
Co1419 N1423 2.148 . S
Co1419 N1429 2.128 . S
Co1419 N1439 2.194 . S
Co1419 O1444 2.351 . S
Co1419 O1445 2.155 . S
Co1419 O1446 2.096 . S
C1420 N1423 1.301 . S
C1420 N1424 1.328 . S
C1420 H1425 0.930 . S
C1421 C1422 1.333 . S
C1421 N1423 1.317 . S
C1421 H1426 0.930 . S
C1422 C1421 1.333 . S
C1422 N1424 1.350 . S
C1422 H1448 0.931 . S
N1423 Co1419 2.148 . S
N1423 C1420 1.301 . S
N1423 C1421 1.317 . S
N1424 C1420 1.328 . S
N1424 C1422 1.350 . S
H1425 C1420 0.930 . S
H1426 C1421 0.930 . S
C1427 O1428 1.224 . S
C1427 O1446 1.247 . S
O1428 C1427 1.224 . S
N1429 Co1419 2.128 . S
N1429 C1430 1.355 . S
N1429 C1432 1.311 . S
C1430 N1429 1.355 . S
C1430 C1431 1.363 . S
C1430 H1442 0.929 . S
C1431 C1430 1.363 . S
C1431 N1433 1.375 . S
C1431 H1449 0.931 . S
C1432 N1429 1.311 . S
C1432 N1433 1.347 . S
C1432 H1443 0.929 . S
N1433 C1431 1.375 . S
N1433 C1432 1.347 . S
C1434 C1437 1.365 . S
C1434 N1439 1.328 . S
C1434 H1440 0.929 . S
C1435 C1436 1.362 . S
C1435 C1438 1.378 . S
C1435 H1450 0.929 . S
C1436 C1435 1.362 . S
C1436 C1437 1.366 . S
C1437 C1434 1.365 . S
C1437 C1436 1.366 . S
C1437 H1451 0.930 . S
C1438 C1435 1.378 . S
C1438 N1439 1.315 . S
C1438 H1441 0.930 . S
N1439 Co1419 2.194 . S
N1439 C1434 1.328 . S
N1439 C1438 1.315 . S
H1440 C1434 0.929 . S
H1441 C1438 0.930 . S
H1442 C1430 0.929 . S
H1443 C1432 0.929 . S
O1444 Co1419 2.351 . S
O1444 C1447 1.244 . S
O1445 Co1419 2.155 . S
O1445 C1447 1.240 . S
O1446 Co1419 2.096 . S
O1446 C1427 1.247 . S
C1447 O1444 1.244 . S
C1447 O1445 1.240 . S
H1448 C1422 0.931 . S
H1449 C1431 0.931 . S
H1450 C1435 0.929 . S
H1451 C1437 0.930 . S
Co1452 N1456 2.134 1_655 S
Co1452 N1462 2.128 . S
Co1452 N1472 2.194 . S
Co1452 O1477 2.351 . S
Co1452 O1478 2.155 . S
Co1452 O1479 2.096 . S
C1453 N1456 1.299 1_655 S
C1453 N1457 1.328 1_655 S
C1453 H1458 0.930 . S
C1454 C1455 1.333 . S
C1454 N1456 1.336 . S
C1454 H1459 0.930 . S
C1455 C1454 1.333 . S
C1455 N1457 1.350 . S
C1455 H1481 0.931 . S
N1456 Co1452 2.134 1_455 S
N1456 C1453 1.299 1_455 S
N1456 C1454 1.336 . S
N1457 C1453 1.328 1_455 S
N1457 C1455 1.350 . S
H1458 C1453 0.930 . S
H1459 C1454 0.930 . S
C1460 O1461 1.224 . S
C1460 O1479 1.247 1_455 S
O1461 C1460 1.224 . S
N1462 Co1452 2.128 . S
N1462 C1463 1.355 . S
N1462 C1465 1.311 . S
C1463 N1462 1.355 . S
C1463 C1464 1.363 . S
C1463 H1475 0.929 . S
C1464 C1463 1.363 . S
C1464 N1466 1.375 . S
C1464 H1482 0.931 . S
C1465 N1462 1.311 . S
C1465 N1466 1.347 . S
C1465 H1476 0.929 . S
N1466 C1464 1.375 . S
N1466 C1465 1.347 . S
C1467 C1470 1.365 . S
C1467 N1472 1.328 . S
C1467 H1473 0.929 . S
C1468 C1469 1.362 . S
C1468 C1471 1.378 . S
C1468 H1483 0.929 . S
C1469 C1468 1.362 . S
C1469 C1470 1.366 . S
C1470 C1467 1.365 . S
C1470 C1469 1.366 . S
C1470 H1484 0.930 . S
C1471 C1468 1.378 . S
C1471 N1472 1.315 . S
C1471 H1474 0.930 . S
N1472 Co1452 2.194 . S
N1472 C1467 1.328 . S
N1472 C1471 1.315 . S
H1473 C1467 0.929 . S
H1474 C1471 0.930 . S
H1475 C1463 0.929 . S
H1476 C1465 0.929 . S
O1477 Co1452 2.351 . S
O1477 C1480 1.244 . S
O1478 Co1452 2.155 . S
O1478 C1480 1.240 . S
O1479 Co1452 2.096 . S
O1479 C1460 1.247 1_655 S
C1480 O1477 1.244 . S
C1480 O1478 1.240 . S
H1481 C1455 0.931 . S
H1482 C1464 0.931 . S
H1483 C1468 0.929 . S
H1484 C1470 0.930 . S
Co1485 N1489 2.148 . S
Co1485 N1495 2.128 . S
Co1485 N1505 2.194 . S
Co1485 O1510 2.351 . S
Co1485 O1511 2.155 . S
Co1485 O1512 2.096 . S
C1486 N1489 1.301 . S
C1486 N1490 1.328 . S
C1486 H1491 0.930 . S
C1487 C1488 1.333 . S
C1487 N1489 1.317 . S
C1487 H1492 0.930 . S
C1488 C1487 1.333 . S
C1488 N1490 1.350 . S
C1488 H1514 0.931 . S
N1489 Co1485 2.148 . S
N1489 C1486 1.301 . S
N1489 C1487 1.317 . S
N1490 C1486 1.328 . S
N1490 C1488 1.350 . S
H1491 C1486 0.930 . S
H1492 C1487 0.930 . S
C1493 O1494 1.224 . S
C1493 O1512 1.247 . S
O1494 C1493 1.224 . S
N1495 Co1485 2.128 . S
N1495 C1496 1.355 . S
N1495 C1498 1.311 . S
C1496 N1495 1.355 . S
C1496 C1497 1.363 . S
C1496 H1508 0.929 . S
C1497 C1496 1.363 . S
C1497 N1499 1.375 . S
C1497 H1515 0.931 . S
C1498 N1495 1.311 . S
C1498 N1499 1.347 . S
C1498 H1509 0.929 . S
N1499 C1497 1.375 . S
N1499 C1498 1.347 . S
C1500 C1503 1.365 . S
C1500 N1505 1.328 . S
C1500 H1506 0.929 . S
C1501 C1502 1.362 . S
C1501 C1504 1.378 . S
C1501 H1516 0.929 . S
C1502 C1501 1.362 . S
C1502 C1503 1.366 . S
C1503 C1500 1.365 . S
C1503 C1502 1.366 . S
C1503 H1517 0.930 . S
C1504 C1501 1.378 . S
C1504 N1505 1.315 . S
C1504 H1507 0.930 . S
N1505 Co1485 2.194 . S
N1505 C1500 1.328 . S
N1505 C1504 1.315 . S
H1506 C1500 0.929 . S
H1507 C1504 0.930 . S
H1508 C1496 0.929 . S
H1509 C1498 0.929 . S
O1510 Co1485 2.351 . S
O1510 C1513 1.244 . S
O1511 Co1485 2.155 . S
O1511 C1513 1.240 . S
O1512 Co1485 2.096 . S
O1512 C1493 1.247 . S
C1513 O1510 1.244 . S
C1513 O1511 1.240 . S
H1514 C1488 0.931 . S
H1515 C1497 0.931 . S
H1516 C1501 0.929 . S
H1517 C1503 0.930 . S
Co1518 N1522 2.148 . S
Co1518 N1528 2.128 . S
Co1518 N1538 2.194 . S
Co1518 O1543 2.351 . S
Co1518 O1544 2.155 . S
Co1518 O1545 2.096 . S
C1519 N1522 1.301 . S
C1519 N1523 1.328 . S
C1519 H1524 0.930 . S
C1520 C1521 1.333 . S
C1520 N1522 1.317 . S
C1520 H1525 0.930 . S
C1521 C1520 1.333 . S
C1521 N1523 1.350 . S
C1521 H1547 0.931 . S
N1522 Co1518 2.148 . S
N1522 C1519 1.301 . S
N1522 C1520 1.317 . S
N1523 C1519 1.328 . S
N1523 C1521 1.350 . S
H1524 C1519 0.930 . S
H1525 C1520 0.930 . S
C1526 O1527 1.224 . S
C1526 O1545 1.247 . S
O1527 C1526 1.224 . S
N1528 Co1518 2.128 . S
N1528 C1529 1.355 . S
N1528 C1531 1.311 . S
C1529 N1528 1.355 . S
C1529 C1530 1.363 . S
C1529 H1541 0.929 . S
C1530 C1529 1.363 . S
C1530 N1532 1.375 . S
C1530 H1548 0.931 . S
C1531 N1528 1.311 . S
C1531 N1532 1.347 . S
C1531 H1542 0.929 . S
N1532 C1530 1.375 . S
N1532 C1531 1.347 . S
C1533 C1536 1.365 . S
C1533 N1538 1.328 . S
C1533 H1539 0.929 . S
C1534 C1535 1.362 . S
C1534 C1537 1.378 . S
C1534 H1549 0.929 . S
C1535 C1534 1.362 . S
C1535 C1536 1.366 . S
C1536 C1533 1.365 . S
C1536 C1535 1.366 . S
C1536 H1550 0.930 . S
C1537 C1534 1.378 . S
C1537 N1538 1.315 . S
C1537 H1540 0.930 . S
N1538 Co1518 2.194 . S
N1538 C1533 1.328 . S
N1538 C1537 1.315 . S
H1539 C1533 0.929 . S
H1540 C1537 0.930 . S
H1541 C1529 0.929 . S
H1542 C1531 0.929 . S
O1543 Co1518 2.351 . S
O1543 C1546 1.244 . S
O1544 Co1518 2.155 . S
O1544 C1546 1.240 . S
O1545 Co1518 2.096 . S
O1545 C1526 1.247 . S
C1546 O1543 1.244 . S
C1546 O1544 1.240 . S
H1547 C1521 0.931 . S
H1548 C1530 0.931 . S
H1549 C1534 0.929 . S
H1550 C1536 0.930 . S
Co1551 N1555 2.148 . S
Co1551 N1561 2.128 . S
Co1551 N1571 2.194 . S
Co1551 O1576 2.351 . S
Co1551 O1577 2.155 . S
Co1551 O1578 2.096 . S
C1552 N1555 1.301 . S
C1552 N1556 1.328 . S
C1552 H1557 0.930 . S
C1553 C1554 1.333 . S
C1553 N1555 1.317 . S
C1553 H1558 0.930 . S
C1554 C1553 1.333 . S
C1554 N1556 1.350 . S
C1554 H1580 0.931 . S
N1555 Co1551 2.148 . S
N1555 C1552 1.301 . S
N1555 C1553 1.317 . S
N1556 C1552 1.328 . S
N1556 C1554 1.350 . S
H1557 C1552 0.930 . S
H1558 C1553 0.930 . S
C1559 O1560 1.224 . S
C1559 O1578 1.247 . S
O1560 C1559 1.224 . S
N1561 Co1551 2.128 . S
N1561 C1562 1.355 . S
N1561 C1564 1.311 . S
C1562 N1561 1.355 . S
C1562 C1563 1.363 . S
C1562 H1574 0.929 . S
C1563 C1562 1.363 . S
C1563 N1565 1.375 . S
C1563 H1581 0.931 . S
C1564 N1561 1.311 . S
C1564 N1565 1.347 . S
C1564 H1575 0.929 . S
N1565 C1563 1.375 . S
N1565 C1564 1.347 . S
C1566 C1569 1.365 . S
C1566 N1571 1.328 . S
C1566 H1572 0.929 . S
C1567 C1568 1.362 . S
C1567 C1570 1.378 . S
C1567 H1582 0.929 . S
C1568 C1567 1.362 . S
C1568 C1569 1.366 . S
C1569 C1566 1.365 . S
C1569 C1568 1.366 . S
C1569 H1583 0.930 . S
C1570 C1567 1.378 . S
C1570 N1571 1.315 . S
C1570 H1573 0.930 . S
N1571 Co1551 2.194 . S
N1571 C1566 1.328 . S
N1571 C1570 1.315 . S
H1572 C1566 0.929 . S
H1573 C1570 0.930 . S
H1574 C1562 0.929 . S
H1575 C1564 0.929 . S
O1576 Co1551 2.351 . S
O1576 C1579 1.244 . S
O1577 Co1551 2.155 . S
O1577 C1579 1.240 . S
O1578 Co1551 2.096 . S
O1578 C1559 1.247 . S
C1579 O1576 1.244 . S
C1579 O1577 1.240 . S
H1580 C1554 0.931 . S
H1581 C1563 0.931 . S
H1582 C1567 0.929 . S
H1583 C1569 0.930 . S
H1584 C1592 0.950 . S
H1585 C1597 0.950 . S
H1586 C1594 0.950 . S
H1587 C1596 0.950 . S
H1588 C1598 0.950 . S
H1589 C1600 0.950 . S
H1590 C1602 0.950 . S
H1591 C1603 0.950 . S
C1592 H1584 0.950 . S
C1592 C1593 1.386 . S
C1592 C1594 1.391 . S
C1593 C1592 1.386 . S
C1593 C1597 1.393 . S
C1594 H1586 0.950 . S
C1594 C1592 1.391 . S
C1594 C1595 1.400 . S
C1595 C1594 1.400 . S
C1595 C1596 1.398 . S
C1595 C1601 1.491 . S
C1596 H1587 0.950 . S
C1596 C1595 1.398 . S
C1596 C1597 1.391 . S
C1597 H1585 0.950 . S
C1597 C1593 1.393 . S
C1597 C1596 1.391 . S
C1598 H1588 0.950 . S
C1598 C1599 1.386 . S
C1598 C1600 1.391 . S
C1599 C1598 1.386 . S
C1599 C1603 1.393 . S
C1600 H1589 0.950 . S
C1600 C1598 1.391 . S
C1600 C1601 1.400 . S
C1601 C1595 1.491 . S
C1601 C1600 1.400 . S
C1601 C1602 1.398 . S
C1602 H1590 0.950 . S
C1602 C1601 1.398 . S
C1602 C1603 1.391 . S
C1603 H1591 0.950 . S
C1603 C1599 1.393 . S
C1603 C1602 1.391 . S
H1604 C1612 0.950 . S
H1605 C1617 0.950 . S
H1606 C1614 0.950 . S
H1607 C1616 0.950 . S
H1608 C1618 0.950 . S
H1609 C1620 0.950 . S
H1610 C1622 0.950 . S
H1611 C1623 0.950 1_554 S
C1612 H1604 0.950 . S
C1612 C1613 1.386 . S
C1612 C1614 1.391 . S
C1613 C1612 1.386 . S
C1613 C1617 1.393 . S
C1614 H1606 0.950 . S
C1614 C1612 1.391 . S
C1614 C1615 1.400 . S
C1615 C1614 1.400 . S
C1615 C1616 1.398 . S
C1615 C1621 1.491 . S
C1616 H1607 0.950 . S
C1616 C1615 1.398 . S
C1616 C1617 1.391 . S
C1617 H1605 0.950 . S
C1617 C1613 1.393 . S
C1617 C1616 1.391 . S
C1618 H1608 0.950 . S
C1618 C1619 1.386 . S
C1618 C1620 1.391 . S
C1619 C1618 1.386 . S
C1619 C1623 1.393 . S
C1620 H1609 0.950 . S
C1620 C1618 1.391 . S
C1620 C1621 1.400 . S
C1621 C1615 1.491 . S
C1621 C1620 1.400 . S
C1621 C1622 1.398 . S
C1622 H1610 0.950 . S
C1622 C1621 1.398 . S
C1622 C1623 1.391 . S
C1623 H1611 0.950 1_556 S
C1623 C1619 1.393 . S
C1623 C1622 1.391 . S
H1624 C1632 0.950 . S
H1625 C1637 0.950 . S
H1626 C1634 0.950 . S
H1627 C1636 0.950 . S
H1628 C1638 0.950 . S
H1629 C1640 0.950 . S
H1630 C1642 0.950 . S
H1631 C1643 0.950 . S
C1632 H1624 0.950 . S
C1632 C1633 1.386 . S
C1632 C1634 1.391 . S
C1633 C1632 1.386 . S
C1633 C1637 1.393 . S
C1634 H1626 0.950 . S
C1634 C1632 1.391 . S
C1634 C1635 1.400 . S
C1635 C1634 1.400 . S
C1635 C1636 1.398 . S
C1635 C1641 1.491 . S
C1636 H1627 0.950 . S
C1636 C1635 1.398 . S
C1636 C1637 1.391 . S
C1637 H1625 0.950 . S
C1637 C1633 1.393 . S
C1637 C1636 1.391 . S
C1638 H1628 0.950 . S
C1638 C1639 1.386 . S
C1638 C1640 1.391 . S
C1639 C1638 1.386 . S
C1639 C1643 1.393 . S
C1640 H1629 0.950 . S
C1640 C1638 1.391 . S
C1640 C1641 1.400 . S
C1641 C1635 1.491 . S
C1641 C1640 1.400 . S
C1641 C1642 1.398 . S
C1642 H1630 0.950 . S
C1642 C1641 1.398 . S
C1642 C1643 1.391 . S
C1643 H1631 0.950 . S
C1643 C1639 1.393 . S
C1643 C1642 1.391 . S
H1644 C1652 0.950 . S
H1645 C1657 0.950 1_554 S
H1646 C1654 0.950 . S
H1647 C1656 0.950 . S
H1648 C1658 0.950 . S
H1649 C1660 0.950 . S
H1650 C1662 0.950 . S
H1651 C1663 0.950 . S
C1652 H1644 0.950 . S
C1652 C1653 1.386 . S
C1652 C1654 1.391 . S
C1653 C1652 1.386 . S
C1653 C1657 1.393 . S
C1654 H1646 0.950 . S
C1654 C1652 1.391 . S
C1654 C1655 1.400 . S
C1655 C1654 1.400 . S
C1655 C1656 1.398 . S
C1655 C1661 1.491 . S
C1656 H1647 0.950 . S
C1656 C1655 1.398 . S
C1656 C1657 1.391 . S
C1657 H1645 0.950 1_556 S
C1657 C1653 1.393 . S
C1657 C1656 1.391 . S
C1658 H1648 0.950 . S
C1658 C1659 1.386 . S
C1658 C1660 1.391 . S
C1659 C1658 1.386 . S
C1659 C1663 1.393 . S
C1660 H1649 0.950 . S
C1660 C1658 1.391 . S
C1660 C1661 1.400 . S
C1661 C1655 1.491 . S
C1661 C1660 1.400 . S
C1661 C1662 1.398 . S
C1662 H1650 0.950 . S
C1662 C1661 1.398 . S
C1662 C1663 1.391 . S
C1663 H1651 0.950 . S
C1663 C1659 1.393 . S
C1663 C1662 1.391 . S
H1664 C1672 0.950 . S
H1665 C1677 0.950 . S
H1666 C1674 0.950 . S
H1667 C1676 0.950 . S
H1668 C1678 0.950 . S
H1669 C1680 0.950 . S
H1670 C1682 0.950 . S
H1671 C1683 0.950 . S
C1672 H1664 0.950 . S
C1672 C1673 1.386 . S
C1672 C1674 1.391 . S
C1673 C1672 1.386 . S
C1673 C1677 1.393 . S
C1674 H1666 0.950 . S
C1674 C1672 1.391 . S
C1674 C1675 1.400 . S
C1675 C1674 1.400 . S
C1675 C1676 1.398 . S
C1675 C1681 1.491 . S
C1676 H1667 0.950 . S
C1676 C1675 1.398 . S
C1676 C1677 1.391 . S
C1677 H1665 0.950 . S
C1677 C1673 1.393 . S
C1677 C1676 1.391 . S
C1678 H1668 0.950 . S
C1678 C1679 1.386 . S
C1678 C1680 1.391 . S
C1679 C1678 1.386 . S
C1679 C1683 1.393 . S
C1680 H1669 0.950 . S
C1680 C1678 1.391 . S
C1680 C1681 1.400 . S
C1681 C1675 1.491 . S
C1681 C1680 1.400 . S
C1681 C1682 1.398 . S
C1682 H1670 0.950 . S
C1682 C1681 1.398 . S
C1682 C1683 1.391 . S
C1683 H1671 0.950 . S
C1683 C1679 1.393 . S
C1683 C1682 1.391 . S
H1684 C1692 0.950 . S
H1685 C1697 0.950 . S
H1686 C1694 0.950 . S
H1687 C1696 0.950 . S
H1688 C1698 0.950 . S
H1689 C1700 0.950 . S
H1690 C1702 0.950 . S
H1691 C1703 0.950 . S
C1692 H1684 0.950 . S
C1692 C1693 1.386 . S
C1692 C1694 1.391 . S
C1693 C1692 1.386 . S
C1693 C1697 1.393 . S
C1694 H1686 0.950 . S
C1694 C1692 1.391 . S
C1694 C1695 1.400 . S
C1695 C1694 1.400 . S
C1695 C1696 1.398 . S
C1695 C1701 1.491 . S
C1696 H1687 0.950 . S
C1696 C1695 1.398 . S
C1696 C1697 1.391 . S
C1697 H1685 0.950 . S
C1697 C1693 1.393 . S
C1697 C1696 1.391 . S
C1698 H1688 0.950 . S
C1698 C1699 1.386 . S
C1698 C1700 1.391 1_655 S
C1699 C1698 1.386 . S
C1699 C1703 1.393 1_655 S
C1700 H1689 0.950 . S
C1700 C1698 1.391 1_455 S
C1700 C1701 1.400 . S
C1701 C1695 1.491 . S
C1701 C1700 1.400 . S
C1701 C1702 1.398 . S
C1702 H1690 0.950 . S
C1702 C1701 1.398 . S
C1702 C1703 1.391 . S
C1703 H1691 0.950 . S
C1703 C1699 1.393 1_455 S
C1703 C1702 1.391 . S
H1704 C1712 0.950 . S
H1705 C1717 0.950 . S
H1706 C1714 0.950 . S
H1707 C1716 0.950 . S
H1708 C1718 0.950 . S
H1709 C1720 0.950 . S
H1710 C1722 0.950 . S
H1711 C1723 0.950 . S
C1712 H1704 0.950 . S
C1712 C1713 1.386 . S
C1712 C1714 1.391 . S
C1713 C1712 1.386 . S
C1713 C1717 1.393 . S
C1714 H1706 0.950 . S
C1714 C1712 1.391 . S
C1714 C1715 1.400 . S
C1715 C1714 1.400 . S
C1715 C1716 1.398 . S
C1715 C1721 1.491 . S
C1716 H1707 0.950 . S
C1716 C1715 1.398 . S
C1716 C1717 1.391 . S
C1717 H1705 0.950 . S
C1717 C1713 1.393 . S
C1717 C1716 1.391 . S
C1718 H1708 0.950 . S
C1718 C1719 1.386 . S
C1718 C1720 1.391 . S
C1719 C1718 1.386 . S
C1719 C1723 1.393 . S
C1720 H1709 0.950 . S
C1720 C1718 1.391 . S
C1720 C1721 1.400 . S
C1721 C1715 1.491 . S
C1721 C1720 1.400 . S
C1721 C1722 1.398 . S
C1722 H1710 0.950 . S
C1722 C1721 1.398 . S
C1722 C1723 1.391 . S
C1723 H1711 0.950 . S
C1723 C1719 1.393 . S
C1723 C1722 1.391 . S
H1724 C1732 0.950 . S
H1725 C1737 0.950 1_556 S
H1726 C1734 0.950 . S
H1727 C1736 0.950 . S
H1728 C1738 0.950 . S
H1729 C1740 0.950 . S
H1730 C1742 0.950 . S
H1731 C1743 0.950 . S
C1732 H1724 0.950 . S
C1732 C1733 1.386 . S
C1732 C1734 1.391 1_455 S
C1733 C1732 1.386 . S
C1733 C1737 1.393 1_455 S
C1734 H1726 0.950 . S
C1734 C1732 1.391 1_655 S
C1734 C1735 1.400 . S
C1735 C1734 1.400 . S
C1735 C1736 1.398 . S
C1735 C1741 1.491 . S
C1736 H1727 0.950 . S
C1736 C1735 1.398 . S
C1736 C1737 1.391 . S
C1737 H1725 0.950 1_554 S
C1737 C1733 1.393 1_655 S
C1737 C1736 1.391 . S
C1738 H1728 0.950 . S
C1738 C1739 1.386 . S
C1738 C1740 1.391 . S
C1739 C1738 1.386 . S
C1739 C1743 1.393 . S
C1740 H1729 0.950 . S
C1740 C1738 1.391 . S
C1740 C1741 1.400 . S
C1741 C1735 1.491 . S
C1741 C1740 1.400 . S
C1741 C1742 1.398 . S
C1742 H1730 0.950 . S
C1742 C1741 1.398 . S
C1742 C1743 1.391 . S
C1743 H1731 0.950 . S
C1743 C1739 1.393 . S
C1743 C1742 1.391 . S
H1744 C1752 0.950 . S
H1745 C1757 0.950 . S
H1746 C1754 0.950 . S
H1747 C1756 0.950 . S
H1748 C1758 0.950 . S
H1749 C1760 0.950 . S
H1750 C1762 0.950 . S
H1751 C1763 0.950 . S
C1752 H1744 0.950 . S
C1752 C1753 1.386 . S
C1752 C1754 1.391 . S
C1753 C1752 1.386 . S
C1753 C1757 1.393 . S
C1754 H1746 0.950 . S
C1754 C1752 1.391 . S
C1754 C1755 1.400 . S
C1755 C1754 1.400 . S
C1755 C1756 1.398 . S
C1755 C1761 1.491 . S
C1756 H1747 0.950 . S
C1756 C1755 1.398 . S
C1756 C1757 1.391 . S
C1757 H1745 0.950 . S
C1757 C1753 1.393 . S
C1757 C1756 1.391 . S
C1758 H1748 0.950 . S
C1758 C1759 1.386 . S
C1758 C1760 1.391 . S
C1759 C1758 1.386 . S
C1759 C1763 1.393 . S
C1760 H1749 0.950 . S
C1760 C1758 1.391 . S
C1760 C1761 1.400 . S
C1761 C1755 1.491 . S
C1761 C1760 1.400 . S
C1761 C1762 1.398 . S
C1762 H1750 0.950 . S
C1762 C1761 1.398 . S
C1762 C1763 1.391 . S
C1763 H1751 0.950 . S
C1763 C1759 1.393 . S
C1763 C1762 1.391 . S
H1764 C1772 0.950 . S
H1765 C1777 0.950 . S
H1766 C1774 0.950 . S
H1767 C1776 0.950 . S
H1768 C1778 0.950 . S
H1769 C1780 0.950 . S
H1770 C1782 0.950 . S
H1771 C1783 0.950 . S
C1772 H1764 0.950 . S
C1772 C1773 1.386 1_554 S
C1772 C1774 1.391 . S
C1773 C1772 1.386 1_556 S
C1773 C1777 1.393 . S
C1774 H1766 0.950 . S
C1774 C1772 1.391 . S
C1774 C1775 1.400 . S
C1775 C1774 1.400 . S
C1775 C1776 1.398 . S
C1775 C1781 1.491 . S
C1776 H1767 0.950 . S
C1776 C1775 1.398 . S
C1776 C1777 1.391 1_554 S
C1777 H1765 0.950 . S
C1777 C1773 1.393 . S
C1777 C1776 1.391 1_556 S
C1778 H1768 0.950 . S
C1778 C1779 1.386 . S
C1778 C1780 1.391 . S
C1779 C1778 1.386 . S
C1779 C1783 1.393 . S
C1780 H1769 0.950 . S
C1780 C1778 1.391 . S
C1780 C1781 1.400 . S
C1781 C1775 1.491 . S
C1781 C1780 1.400 . S
C1781 C1782 1.398 . S
C1782 H1770 0.950 . S
C1782 C1781 1.398 . S
C1782 C1783 1.391 . S
C1783 H1771 0.950 . S
C1783 C1779 1.393 . S
C1783 C1782 1.391 . S
H1784 C1792 0.950 . S
H1785 C1797 0.950 . S
H1786 C1794 0.950 . S
H1787 C1796 0.950 . S
H1788 C1798 0.950 . S
H1789 C1800 0.950 . S
H1790 C1802 0.950 . S
H1791 C1803 0.950 . S
C1792 H1784 0.950 . S
C1792 C1793 1.386 . S
C1792 C1794 1.391 . S
C1793 C1792 1.386 . S
C1793 C1797 1.393 . S
C1794 H1786 0.950 . S
C1794 C1792 1.391 . S
C1794 C1795 1.400 . S
C1795 C1794 1.400 . S
C1795 C1796 1.398 . S
C1795 C1801 1.491 . S
C1796 H1787 0.950 . S
C1796 C1795 1.398 . S
C1796 C1797 1.391 . S
C1797 H1785 0.950 . S
C1797 C1793 1.393 . S
C1797 C1796 1.391 . S
C1798 H1788 0.950 . S
C1798 C1799 1.386 . S
C1798 C1800 1.391 . S
C1799 C1798 1.386 . S
C1799 C1803 1.393 . S
C1800 H1789 0.950 . S
C1800 C1798 1.391 . S
C1800 C1801 1.400 . S
C1801 C1795 1.491 . S
C1801 C1800 1.400 . S
C1801 C1802 1.398 . S
C1802 H1790 0.950 . S
C1802 C1801 1.398 . S
C1802 C1803 1.391 . S
C1803 H1791 0.950 . S
C1803 C1799 1.393 . S
C1803 C1802 1.391 . S
H1804 C1812 0.950 1_565 S
H1805 C1817 0.950 . S
H1806 C1814 0.950 . S
H1807 C1816 0.950 . S
H1808 C1818 0.950 . S
H1809 C1820 0.950 . S
H1810 C1822 0.950 . S
H1811 C1823 0.950 . S
C1812 H1804 0.950 1_545 S
C1812 C1813 1.386 1_554 S
C1812 C1814 1.391 . S
C1813 C1812 1.386 1_556 S
C1813 C1817 1.393 . S
C1814 H1806 0.950 . S
C1814 C1812 1.391 . S
C1814 C1815 1.400 . S
C1815 C1814 1.400 . S
C1815 C1816 1.398 . S
C1815 C1821 1.491 . S
C1816 H1807 0.950 . S
C1816 C1815 1.398 . S
C1816 C1817 1.391 1_554 S
C1817 H1805 0.950 . S
C1817 C1813 1.393 . S
C1817 C1816 1.391 1_556 S
C1818 H1808 0.950 . S
C1818 C1819 1.386 . S
C1818 C1820 1.391 . S
C1819 C1818 1.386 . S
C1819 C1823 1.393 . S
C1820 H1809 0.950 . S
C1820 C1818 1.391 . S
C1820 C1821 1.400 . S
C1821 C1815 1.491 . S
C1821 C1820 1.400 . S
C1821 C1822 1.398 . S
C1822 H1810 0.950 . S
C1822 C1821 1.398 . S
C1822 C1823 1.391 . S
C1823 H1811 0.950 . S
C1823 C1819 1.393 . S
C1823 C1822 1.391 . S
H1824 C1832 0.950 . S
H1825 C1837 0.950 . S
H1826 C1834 0.950 . S
H1827 C1836 0.950 . S
H1828 C1838 0.950 . S
H1829 C1840 0.950 . S
H1830 C1842 0.950 . S
H1831 C1843 0.950 . S
C1832 H1824 0.950 . S
C1832 C1833 1.386 . S
C1832 C1834 1.391 . S
C1833 C1832 1.386 . S
C1833 C1837 1.393 . S
C1834 H1826 0.950 . S
C1834 C1832 1.391 . S
C1834 C1835 1.400 . S
C1835 C1834 1.400 . S
C1835 C1836 1.398 . S
C1835 C1841 1.491 . S
C1836 H1827 0.950 . S
C1836 C1835 1.398 . S
C1836 C1837 1.391 . S
C1837 H1825 0.950 . S
C1837 C1833 1.393 . S
C1837 C1836 1.391 . S
C1838 H1828 0.950 . S
C1838 C1839 1.386 . S
C1838 C1840 1.391 . S
C1839 C1838 1.386 . S
C1839 C1843 1.393 . S
C1840 H1829 0.950 . S
C1840 C1838 1.391 . S
C1840 C1841 1.400 . S
C1841 C1835 1.491 . S
C1841 C1840 1.400 . S
C1841 C1842 1.398 . S
C1842 H1830 0.950 . S
C1842 C1841 1.398 . S
C1842 C1843 1.391 . S
C1843 H1831 0.950 . S
C1843 C1839 1.393 . S
C1843 C1842 1.391 . S
H1844 C1852 0.950 . S
H1845 C1857 0.950 . S
H1846 C1854 0.950 . S
H1847 C1856 0.950 . S
H1848 C1858 0.950 . S
H1849 C1860 0.950 . S
H1850 C1862 0.950 . S
H1851 C1863 0.950 . S
C1852 H1844 0.950 . S
C1852 C1853 1.386 . S
C1852 C1854 1.391 . S
C1853 C1852 1.386 . S
C1853 C1857 1.393 . S
C1854 H1846 0.950 . S
C1854 C1852 1.391 . S
C1854 C1855 1.400 . S
C1855 C1854 1.400 . S
C1855 C1856 1.398 . S
C1855 C1861 1.491 . S
C1856 H1847 0.950 . S
C1856 C1855 1.398 . S
C1856 C1857 1.391 . S
C1857 H1845 0.950 . S
C1857 C1853 1.393 . S
C1857 C1856 1.391 . S
C1858 H1848 0.950 . S
C1858 C1859 1.386 1_556 S
C1858 C1860 1.391 . S
C1859 C1858 1.386 1_554 S
C1859 C1863 1.393 . S
C1860 H1849 0.950 . S
C1860 C1858 1.391 . S
C1860 C1861 1.400 . S
C1861 C1855 1.491 . S
C1861 C1860 1.400 . S
C1861 C1862 1.398 . S
C1862 H1850 0.950 . S
C1862 C1861 1.398 . S
C1862 C1863 1.391 1_556 S
C1863 H1851 0.950 . S
C1863 C1859 1.393 . S
C1863 C1862 1.391 1_554 S
H1864 C1872 0.950 . S
H1865 C1877 0.950 . S
H1866 C1874 0.950 . S
H1867 C1876 0.950 . S
H1868 C1878 0.950 . S
H1869 C1880 0.950 . S
H1870 C1882 0.950 . S
H1871 C1883 0.950 . S
C1872 H1864 0.950 . S
C1872 C1873 1.386 . S
C1872 C1874 1.391 . S
C1873 C1872 1.386 . S
C1873 C1877 1.393 . S
C1874 H1866 0.950 . S
C1874 C1872 1.391 . S
C1874 C1875 1.400 . S
C1875 C1874 1.400 . S
C1875 C1876 1.398 . S
C1875 C1881 1.491 . S
C1876 H1867 0.950 . S
C1876 C1875 1.398 . S
C1876 C1877 1.391 . S
C1877 H1865 0.950 . S
C1877 C1873 1.393 . S
C1877 C1876 1.391 . S
C1878 H1868 0.950 . S
C1878 C1879 1.386 . S
C1878 C1880 1.391 . S
C1879 C1878 1.386 . S
C1879 C1883 1.393 . S
C1880 H1869 0.950 . S
C1880 C1878 1.391 . S
C1880 C1881 1.400 . S
C1881 C1875 1.491 . S
C1881 C1880 1.400 . S
C1881 C1882 1.398 . S
C1882 H1870 0.950 . S
C1882 C1881 1.398 . S
C1882 C1883 1.391 . S
C1883 H1871 0.950 . S
C1883 C1879 1.393 . S
C1883 C1882 1.391 . S
H1884 C1892 0.950 . S
H1885 C1897 0.950 1_565 S
H1886 C1894 0.950 . S
H1887 C1896 0.950 . S
H1888 C1898 0.950 . S
H1889 C1900 0.950 . S
H1890 C1902 0.950 . S
H1891 C1903 0.950 . S
C1892 H1884 0.950 . S
C1892 C1893 1.386 . S
C1892 C1894 1.391 1_554 S
C1893 C1892 1.386 . S
C1893 C1897 1.393 1_554 S
C1894 H1886 0.950 . S
C1894 C1892 1.391 1_556 S
C1894 C1895 1.400 . S
C1895 C1894 1.400 . S
C1895 C1896 1.398 . S
C1895 C1901 1.491 . S
C1896 H1887 0.950 . S
C1896 C1895 1.398 . S
C1896 C1897 1.391 . S
C1897 H1885 0.950 1_545 S
C1897 C1893 1.393 1_556 S
C1897 C1896 1.391 . S
C1898 H1888 0.950 . S
C1898 C1899 1.386 . S
C1898 C1900 1.391 . S
C1899 C1898 1.386 . S
C1899 C1903 1.393 . S
C1900 H1889 0.950 . S
C1900 C1898 1.391 . S
C1900 C1901 1.400 . S
C1901 C1895 1.491 . S
C1901 C1900 1.400 . S
C1901 C1902 1.398 . S
C1902 H1890 0.950 . S
C1902 C1901 1.398 . S
C1902 C1903 1.391 . S
C1903 H1891 0.950 . S
C1903 C1899 1.393 . S
C1903 C1902 1.391 . S
H1904 C1912 0.950 . S
H1905 C1917 0.950 . S
H1906 C1914 0.950 . S
H1907 C1916 0.950 . S
H1908 C1918 0.950 . S
H1909 C1920 0.950 . S
H1910 C1922 0.950 . S
H1911 C1923 0.950 . S
C1912 H1904 0.950 . S
C1912 C1913 1.386 . S
C1912 C1914 1.391 . S
C1913 C1912 1.386 . S
C1913 C1917 1.393 . S
C1914 H1906 0.950 . S
C1914 C1912 1.391 . S
C1914 C1915 1.400 . S
C1915 C1914 1.400 . S
C1915 C1916 1.398 . S
C1915 C1921 1.491 . S
C1916 H1907 0.950 . S
C1916 C1915 1.398 . S
C1916 C1917 1.391 . S
C1917 H1905 0.950 . S
C1917 C1913 1.393 . S
C1917 C1916 1.391 . S
C1918 H1908 0.950 . S
C1918 C1919 1.386 . S
C1918 C1920 1.391 . S
C1919 C1918 1.386 . S
C1919 C1923 1.393 . S
C1920 H1909 0.950 . S
C1920 C1918 1.391 . S
C1920 C1921 1.400 . S
C1921 C1915 1.491 . S
C1921 C1920 1.400 . S
C1921 C1922 1.398 . S
C1922 H1910 0.950 . S
C1922 C1921 1.398 . S
C1922 C1923 1.391 . S
C1923 H1911 0.950 . S
C1923 C1919 1.393 . S
C1923 C1922 1.391 . S
H1924 C1932 0.950 . S
H1925 C1937 0.950 . S
H1926 C1934 0.950 . S
H1927 C1936 0.950 . S
H1928 C1938 0.950 . S
H1929 C1940 0.950 . S
H1930 C1942 0.950 . S
H1931 C1943 0.950 . S
C1932 H1924 0.950 . S
C1932 C1933 1.386 . S
C1932 C1934 1.391 . S
C1933 C1932 1.386 . S
C1933 C1937 1.393 . S
C1934 H1926 0.950 . S
C1934 C1932 1.391 . S
C1934 C1935 1.400 . S
C1935 C1934 1.400 . S
C1935 C1936 1.398 . S
C1935 C1941 1.491 . S
C1936 H1927 0.950 . S
C1936 C1935 1.398 . S
C1936 C1937 1.391 . S
C1937 H1925 0.950 . S
C1937 C1933 1.393 . S
C1937 C1936 1.391 . S
C1938 H1928 0.950 . S
C1938 C1939 1.386 . S
C1938 C1940 1.391 . S
C1939 C1938 1.386 . S
C1939 C1943 1.393 . S
C1940 H1929 0.950 . S
C1940 C1938 1.391 . S
C1940 C1941 1.400 . S
C1941 C1935 1.491 . S
C1941 C1940 1.400 . S
C1941 C1942 1.398 . S
C1942 H1930 0.950 . S
C1942 C1941 1.398 . S
C1942 C1943 1.391 . S
C1943 H1931 0.950 . S
C1943 C1939 1.393 . S
C1943 C1942 1.391 . S
H1944 C1952 0.950 1_455 S
H1945 C1957 0.950 . S
H1946 C1954 0.950 . S
H1947 C1956 0.950 . S
H1948 C1958 0.950 . S
H1949 C1960 0.950 . S
H1950 C1962 0.950 . S
H1951 C1963 0.950 . S
C1952 H1944 0.950 1_655 S
C1952 C1953 1.386 . S
C1952 C1954 1.391 . S
C1953 C1952 1.386 . S
C1953 C1957 1.393 . S
C1954 H1946 0.950 . S
C1954 C1952 1.391 . S
C1954 C1955 1.400 . S
C1955 C1954 1.400 . S
C1955 C1956 1.398 . S
C1955 C1961 1.491 . S
C1956 H1947 0.950 . S
C1956 C1955 1.398 . S
C1956 C1957 1.391 . S
C1957 H1945 0.950 . S
C1957 C1953 1.393 . S
C1957 C1956 1.391 . S
C1958 H1948 0.950 . S
C1958 C1959 1.386 . S
C1958 C1960 1.391 . S
C1959 C1958 1.386 . S
C1959 C1963 1.393 . S
C1960 H1949 0.950 . S
C1960 C1958 1.391 . S
C1960 C1961 1.400 . S
C1961 C1955 1.491 . S
C1961 C1960 1.400 . S
C1961 C1962 1.398 . S
C1962 H1950 0.950 . S
C1962 C1961 1.398 . S
C1962 C1963 1.391 . S
C1963 H1951 0.950 . S
C1963 C1959 1.393 . S
C1963 C1962 1.391 . S
H1964 C1972 0.950 . S
H1965 C1977 0.950 . S
H1966 C1974 0.950 . S
H1967 C1976 0.950 . S
H1968 C1978 0.950 . S
H1969 C1980 0.950 . S
H1970 C1982 0.950 . S
H1971 C1983 0.950 . S
C1972 H1964 0.950 . S
C1972 C1973 1.386 . S
C1972 C1974 1.391 . S
C1973 C1972 1.386 . S
C1973 C1977 1.393 . S
C1974 H1966 0.950 . S
C1974 C1972 1.391 . S
C1974 C1975 1.400 . S
C1975 C1974 1.400 . S
C1975 C1976 1.398 . S
C1975 C1981 1.491 . S
C1976 H1967 0.950 . S
C1976 C1975 1.398 . S
C1976 C1977 1.391 . S
C1977 H1965 0.950 . S
C1977 C1973 1.393 . S
C1977 C1976 1.391 . S
C1978 H1968 0.950 . S
C1978 C1979 1.386 . S
C1978 C1980 1.391 . S
C1979 C1978 1.386 . S
C1979 C1983 1.393 . S
C1980 H1969 0.950 . S
C1980 C1978 1.391 . S
C1980 C1981 1.400 . S
C1981 C1975 1.491 . S
C1981 C1980 1.400 . S
C1981 C1982 1.398 . S
C1982 H1970 0.950 . S
C1982 C1981 1.398 . S
C1982 C1983 1.391 . S
C1983 H1971 0.950 . S
C1983 C1979 1.393 . S
C1983 C1982 1.391 . S
H1984 C1992 0.950 . S
H1985 C1997 0.950 . S
H1986 C1994 0.950 . S
H1987 C1996 0.950 . S
H1988 C1998 0.950 . S
H1989 C2000 0.950 . S
H1990 C2002 0.950 . S
H1991 C2003 0.950 . S
C1992 H1984 0.950 . S
C1992 C1993 1.386 . S
C1992 C1994 1.391 . S
C1993 C1992 1.386 . S
C1993 C1997 1.393 . S
C1994 H1986 0.950 . S
C1994 C1992 1.391 . S
C1994 C1995 1.400 . S
C1995 C1994 1.400 . S
C1995 C1996 1.398 . S
C1995 C2001 1.491 . S
C1996 H1987 0.950 . S
C1996 C1995 1.398 . S
C1996 C1997 1.391 . S
C1997 H1985 0.950 . S
C1997 C1993 1.393 . S
C1997 C1996 1.391 . S
C1998 H1988 0.950 . S
C1998 C1999 1.386 . S
C1998 C2000 1.391 . S
C1999 C1998 1.386 . S
C1999 C2003 1.393 . S
C2000 H1989 0.950 . S
C2000 C1998 1.391 . S
C2000 C2001 1.400 . S
C2001 C1995 1.491 . S
C2001 C2000 1.400 . S
C2001 C2002 1.398 . S
C2002 H1990 0.950 . S
C2002 C2001 1.398 . S
C2002 C2003 1.391 . S
C2003 H1991 0.950 . S
C2003 C1999 1.393 . S
C2003 C2002 1.391 . S
H2004 C2012 0.950 . S
H2005 C2017 0.950 . S
H2006 C2014 0.950 . S
H2007 C2016 0.950 . S
H2008 C2018 0.950 . S
H2009 C2020 0.950 . S
H2010 C2022 0.950 . S
H2011 C2023 0.950 . S
C2012 H2004 0.950 . S
C2012 C2013 1.386 . S
C2012 C2014 1.391 . S
C2013 C2012 1.386 . S
C2013 C2017 1.393 . S
C2014 H2006 0.950 . S
C2014 C2012 1.391 . S
C2014 C2015 1.400 . S
C2015 C2014 1.400 . S
C2015 C2016 1.398 . S
C2015 C2021 1.491 . S
C2016 H2007 0.950 . S
C2016 C2015 1.398 . S
C2016 C2017 1.391 . S
C2017 H2005 0.950 . S
C2017 C2013 1.393 . S
C2017 C2016 1.391 . S
C2018 H2008 0.950 . S
C2018 C2019 1.386 . S
C2018 C2020 1.391 . S
C2019 C2018 1.386 . S
C2019 C2023 1.393 . S
C2020 H2009 0.950 . S
C2020 C2018 1.391 . S
C2020 C2021 1.400 . S
C2021 C2015 1.491 . S
C2021 C2020 1.400 . S
C2021 C2022 1.398 . S
C2022 H2010 0.950 . S
C2022 C2021 1.398 . S
C2022 C2023 1.391 . S
C2023 H2011 0.950 . S
C2023 C2019 1.393 . S
C2023 C2022 1.391 . S
H2024 C2032 0.950 . S
H2025 C2037 0.950 1_455 S
H2026 C2034 0.950 . S
H2027 C2036 0.950 . S
H2028 C2038 0.950 . S
H2029 C2040 0.950 . S
H2030 C2042 0.950 . S
H2031 C2043 0.950 . S
C2032 H2024 0.950 . S
C2032 C2033 1.386 . S
C2032 C2034 1.391 . S
C2033 C2032 1.386 . S
C2033 C2037 1.393 . S
C2034 H2026 0.950 . S
C2034 C2032 1.391 . S
C2034 C2035 1.400 . S
C2035 C2034 1.400 . S
C2035 C2036 1.398 . S
C2035 C2041 1.491 . S
C2036 H2027 0.950 . S
C2036 C2035 1.398 . S
C2036 C2037 1.391 . S
C2037 H2025 0.950 1_655 S
C2037 C2033 1.393 . S
C2037 C2036 1.391 . S
C2038 H2028 0.950 . S
C2038 C2039 1.386 . S
C2038 C2040 1.391 . S
C2039 C2038 1.386 . S
C2039 C2043 1.393 . S
C2040 H2029 0.950 . S
C2040 C2038 1.391 . S
C2040 C2041 1.400 . S
C2041 C2035 1.491 . S
C2041 C2040 1.400 . S
C2041 C2042 1.398 . S
C2042 H2030 0.950 . S
C2042 C2041 1.398 . S
C2042 C2043 1.391 . S
C2043 H2031 0.950 . S
C2043 C2039 1.393 . S
C2043 C2042 1.391 . S
H2044 C2052 0.950 . S
H2045 C2057 0.950 . S
H2046 C2054 0.950 . S
H2047 C2056 0.950 . S
H2048 C2058 0.950 . S
H2049 C2060 0.950 . S
H2050 C2062 0.950 . S
H2051 C2063 0.950 . S
C2052 H2044 0.950 . S
C2052 C2053 1.386 . S
C2052 C2054 1.391 1_565 S
C2053 C2052 1.386 . S
C2053 C2057 1.393 1_565 S
C2054 H2046 0.950 . S
C2054 C2052 1.391 1_545 S
C2054 C2055 1.400 . S
C2055 C2054 1.400 . S
C2055 C2056 1.398 . S
C2055 C2061 1.491 . S
C2056 H2047 0.950 . S
C2056 C2055 1.398 . S
C2056 C2057 1.391 . S
C2057 H2045 0.950 . S
C2057 C2053 1.393 1_545 S
C2057 C2056 1.391 . S
C2058 H2048 0.950 . S
C2058 C2059 1.386 . S
C2058 C2060 1.391 . S
C2059 C2058 1.386 . S
C2059 C2063 1.393 . S
C2060 H2049 0.950 . S
C2060 C2058 1.391 . S
C2060 C2061 1.400 . S
C2061 C2055 1.491 . S
C2061 C2060 1.400 . S
C2061 C2062 1.398 . S
C2062 H2050 0.950 . S
C2062 C2061 1.398 . S
C2062 C2063 1.391 . S
C2063 H2051 0.950 . S
C2063 C2059 1.393 . S
C2063 C2062 1.391 . S
H2064 C2072 0.950 . S
H2065 C2077 0.950 . S
H2066 C2074 0.950 . S
H2067 C2076 0.950 . S
H2068 C2078 0.950 . S
H2069 C2080 0.950 . S
H2070 C2082 0.950 . S
H2071 C2083 0.950 . S
C2072 H2064 0.950 . S
C2072 C2073 1.386 . S
C2072 C2074 1.391 . S
C2073 C2072 1.386 . S
C2073 C2077 1.393 . S
C2074 H2066 0.950 . S
C2074 C2072 1.391 . S
C2074 C2075 1.400 . S
C2075 C2074 1.400 . S
C2075 C2076 1.398 . S
C2075 C2081 1.491 . S
C2076 H2067 0.950 . S
C2076 C2075 1.398 . S
C2076 C2077 1.391 . S
C2077 H2065 0.950 . S
C2077 C2073 1.393 . S
C2077 C2076 1.391 . S
C2078 H2068 0.950 . S
C2078 C2079 1.386 . S
C2078 C2080 1.391 . S
C2079 C2078 1.386 . S
C2079 C2083 1.393 . S
C2080 H2069 0.950 . S
C2080 C2078 1.391 . S
C2080 C2081 1.400 . S
C2081 C2075 1.491 . S
C2081 C2080 1.400 . S
C2081 C2082 1.398 . S
C2082 H2070 0.950 . S
C2082 C2081 1.398 . S
C2082 C2083 1.391 . S
C2083 H2071 0.950 . S
C2083 C2079 1.393 . S
C2083 C2082 1.391 . S
H2084 C2092 0.950 . S
H2085 C2097 0.950 . S
H2086 C2094 0.950 . S
H2087 C2096 0.950 . S
H2088 C2098 0.950 . S
H2089 C2100 0.950 . S
H2090 C2102 0.950 . S
H2091 C2103 0.950 . S
C2092 H2084 0.950 . S
C2092 C2093 1.386 . S
C2092 C2094 1.391 . S
C2093 C2092 1.386 . S
C2093 C2097 1.393 . S
C2094 H2086 0.950 . S
C2094 C2092 1.391 . S
C2094 C2095 1.400 . S
C2095 C2094 1.400 . S
C2095 C2096 1.398 . S
C2095 C2101 1.491 . S
C2096 H2087 0.950 . S
C2096 C2095 1.398 . S
C2096 C2097 1.391 . S
C2097 H2085 0.950 . S
C2097 C2093 1.393 . S
C2097 C2096 1.391 . S
C2098 H2088 0.950 . S
C2098 C2099 1.386 1_655 S
C2098 C2100 1.391 . S
C2099 C2098 1.386 1_455 S
C2099 C2103 1.393 . S
C2100 H2089 0.950 . S
C2100 C2098 1.391 . S
C2100 C2101 1.400 . S
C2101 C2095 1.491 . S
C2101 C2100 1.400 . S
C2101 C2102 1.398 . S
C2102 H2090 0.950 . S
C2102 C2101 1.398 . S
C2102 C2103 1.391 1_655 S
C2103 H2091 0.950 . S
C2103 C2099 1.393 . S
C2103 C2102 1.391 1_455 S
H2104 C2112 0.950 . S
H2105 C2117 0.950 . S
H2106 C2114 0.950 . S
H2107 C2116 0.950 . S
H2108 C2118 0.950 . S
H2109 C2120 0.950 . S
H2110 C2122 0.950 . S
H2111 C2123 0.950 . S
C2112 H2104 0.950 . S
C2112 C2113 1.386 . S
C2112 C2114 1.391 . S
C2113 C2112 1.386 . S
C2113 C2117 1.393 . S
C2114 H2106 0.950 . S
C2114 C2112 1.391 . S
C2114 C2115 1.400 . S
C2115 C2114 1.400 . S
C2115 C2116 1.398 . S
C2115 C2121 1.491 . S
C2116 H2107 0.950 . S
C2116 C2115 1.398 . S
C2116 C2117 1.391 . S
C2117 H2105 0.950 . S
C2117 C2113 1.393 . S
C2117 C2116 1.391 . S
C2118 H2108 0.950 . S
C2118 C2119 1.386 . S
C2118 C2120 1.391 . S
C2119 C2118 1.386 . S
C2119 C2123 1.393 . S
C2120 H2109 0.950 . S
C2120 C2118 1.391 . S
C2120 C2121 1.400 . S
C2121 C2115 1.491 . S
C2121 C2120 1.400 . S
C2121 C2122 1.398 . S
C2122 H2110 0.950 . S
C2122 C2121 1.398 . S
C2122 C2123 1.391 . S
C2123 H2111 0.950 . S
C2123 C2119 1.393 . S
C2123 C2122 1.391 . S
H2124 C2132 0.950 . S
H2125 C2137 0.950 . S
H2126 C2134 0.950 . S
H2127 C2136 0.950 . S
H2128 C2138 0.950 . S
H2129 C2140 0.950 . S
H2130 C2142 0.950 . S
H2131 C2143 0.950 . S
C2132 H2124 0.950 . S
C2132 C2133 1.386 . S
C2132 C2134 1.391 1_655 S
C2133 C2132 1.386 . S
C2133 C2137 1.393 1_655 S
C2134 H2126 0.950 . S
C2134 C2132 1.391 1_455 S
C2134 C2135 1.400 . S
C2135 C2134 1.400 . S
C2135 C2136 1.398 . S
C2135 C2141 1.491 . S
C2136 H2127 0.950 . S
C2136 C2135 1.398 . S
C2136 C2137 1.391 . S
C2137 H2125 0.950 . S
C2137 C2133 1.393 1_455 S
C2137 C2136 1.391 . S
C2138 H2128 0.950 . S
C2138 C2139 1.386 . S
C2138 C2140 1.391 . S
C2139 C2138 1.386 . S
C2139 C2143 1.393 . S
C2140 H2129 0.950 . S
C2140 C2138 1.391 . S
C2140 C2141 1.400 . S
C2141 C2135 1.491 . S
C2141 C2140 1.400 . S
C2141 C2142 1.398 . S
C2142 H2130 0.950 . S
C2142 C2141 1.398 . S
C2142 C2143 1.391 . S
C2143 H2131 0.950 . S
C2143 C2139 1.393 . S
C2143 C2142 1.391 . S
H2144 C2152 0.950 . S
H2145 C2157 0.950 . S
H2146 C2154 0.950 . S
H2147 C2156 0.950 . S
H2148 C2158 0.950 . S
H2149 C2160 0.950 . S
H2150 C2162 0.950 . S
H2151 C2163 0.950 . S
C2152 H2144 0.950 . S
C2152 C2153 1.386 . S
C2152 C2154 1.391 . S
C2153 C2152 1.386 . S
C2153 C2157 1.393 . S
C2154 H2146 0.950 . S
C2154 C2152 1.391 . S
C2154 C2155 1.400 . S
C2155 C2154 1.400 . S
C2155 C2156 1.398 . S
C2155 C2161 1.491 . S
C2156 H2147 0.950 . S
C2156 C2155 1.398 . S
C2156 C2157 1.391 . S
C2157 H2145 0.950 . S
C2157 C2153 1.393 . S
C2157 C2156 1.391 . S
C2158 H2148 0.950 . S
C2158 C2159 1.386 . S
C2158 C2160 1.391 . S
C2159 C2158 1.386 . S
C2159 C2163 1.393 . S
C2160 H2149 0.950 . S
C2160 C2158 1.391 . S
C2160 C2161 1.400 . S
C2161 C2155 1.491 . S
C2161 C2160 1.400 . S
C2161 C2162 1.398 . S
C2162 H2150 0.950 . S
C2162 C2161 1.398 . S
C2162 C2163 1.391 . S
C2163 H2151 0.950 . S
C2163 C2159 1.393 . S
C2163 C2162 1.391 . S
H2164 C2172 0.950 . S
H2165 C2177 0.950 . S
H2166 C2174 0.950 . S
H2167 C2176 0.950 . S
H2168 C2178 0.950 . S
H2169 C2180 0.950 . S
H2170 C2182 0.950 . S
H2171 C2183 0.950 . S
C2172 H2164 0.950 . S
C2172 C2173 1.386 . S
C2172 C2174 1.391 . S
C2173 C2172 1.386 . S
C2173 C2177 1.393 . S
C2174 H2166 0.950 . S
C2174 C2172 1.391 . S
C2174 C2175 1.400 . S
C2175 C2174 1.400 . S
C2175 C2176 1.398 . S
C2175 C2181 1.491 . S
C2176 H2167 0.950 . S
C2176 C2175 1.398 . S
C2176 C2177 1.391 . S
C2177 H2165 0.950 . S
C2177 C2173 1.393 . S
C2177 C2176 1.391 . S
C2178 H2168 0.950 . S
C2178 C2179 1.386 . S
C2178 C2180 1.391 . S
C2179 C2178 1.386 . S
C2179 C2183 1.393 . S
C2180 H2169 0.950 . S
C2180 C2178 1.391 . S
C2180 C2181 1.400 . S
C2181 C2175 1.491 . S
C2181 C2180 1.400 . S
C2181 C2182 1.398 . S
C2182 H2170 0.950 . S
C2182 C2181 1.398 . S
C2182 C2183 1.391 . S
C2183 H2171 0.950 . S
C2183 C2179 1.393 . S
C2183 C2182 1.391 . S
H2184 C2192 0.950 . S
H2185 C2197 0.950 . S
H2186 C2194 0.950 . S
H2187 C2196 0.950 . S
H2188 C2198 0.950 . S
H2189 C2200 0.950 . S
H2190 C2202 0.950 . S
H2191 C2203 0.950 . S
C2192 H2184 0.950 . S
C2192 C2193 1.386 . S
C2192 C2194 1.391 . S
C2193 C2192 1.386 . S
C2193 C2197 1.393 . S
C2194 H2186 0.950 . S
C2194 C2192 1.391 . S
C2194 C2195 1.400 . S
C2195 C2194 1.400 . S
C2195 C2196 1.398 . S
C2195 C2201 1.491 . S
C2196 H2187 0.950 . S
C2196 C2195 1.398 . S
C2196 C2197 1.391 . S
C2197 H2185 0.950 . S
C2197 C2193 1.393 . S
C2197 C2196 1.391 . S
C2198 H2188 0.950 . S
C2198 C2199 1.386 . S
C2198 C2200 1.391 . S
C2199 C2198 1.386 . S
C2199 C2203 1.393 . S
C2200 H2189 0.950 . S
C2200 C2198 1.391 . S
C2200 C2201 1.400 . S
C2201 C2195 1.491 . S
C2201 C2200 1.400 . S
C2201 C2202 1.398 . S
C2202 H2190 0.950 . S
C2202 C2201 1.398 . S
C2202 C2203 1.391 . S
C2203 H2191 0.950 . S
C2203 C2199 1.393 . S
C2203 C2202 1.391 . S
H2204 C2212 0.950 . S
H2205 C2217 0.950 . S
H2206 C2214 0.950 . S
H2207 C2216 0.950 . S
H2208 C2218 0.950 . S
H2209 C2220 0.950 . S
H2210 C2222 0.950 . S
H2211 C2223 0.950 . S
C2212 H2204 0.950 . S
C2212 C2213 1.386 . S
C2212 C2214 1.391 . S
C2213 C2212 1.386 . S
C2213 C2217 1.393 . S
C2214 H2206 0.950 . S
C2214 C2212 1.391 . S
C2214 C2215 1.400 . S
C2215 C2214 1.400 . S
C2215 C2216 1.398 . S
C2215 C2221 1.491 . S
C2216 H2207 0.950 . S
C2216 C2215 1.398 . S
C2216 C2217 1.391 . S
C2217 H2205 0.950 . S
C2217 C2213 1.393 . S
C2217 C2216 1.391 . S
C2218 H2208 0.950 . S
C2218 C2219 1.386 . S
C2218 C2220 1.391 . S
C2219 C2218 1.386 . S
C2219 C2223 1.393 . S
C2220 H2209 0.950 . S
C2220 C2218 1.391 . S
C2220 C2221 1.400 . S
C2221 C2215 1.491 . S
C2221 C2220 1.400 . S
C2221 C2222 1.398 . S
C2222 H2210 0.950 . S
C2222 C2221 1.398 . S
C2222 C2223 1.391 . S
C2223 H2211 0.950 . S
C2223 C2219 1.393 . S
C2223 C2222 1.391 . S
H2224 C2232 0.950 . S
H2225 C2237 0.950 . S
H2226 C2234 0.950 . S
H2227 C2236 0.950 . S
H2228 C2238 0.950 . S
H2229 C2240 0.950 . S
H2230 C2242 0.950 . S
H2231 C2243 0.950 . S
C2232 H2224 0.950 . S
C2232 C2233 1.386 . S
C2232 C2234 1.391 . S
C2233 C2232 1.386 . S
C2233 C2237 1.393 . S
C2234 H2226 0.950 . S
C2234 C2232 1.391 . S
C2234 C2235 1.400 . S
C2235 C2234 1.400 . S
C2235 C2236 1.398 . S
C2235 C2241 1.491 . S
C2236 H2227 0.950 . S
C2236 C2235 1.398 . S
C2236 C2237 1.391 . S
C2237 H2225 0.950 . S
C2237 C2233 1.393 . S
C2237 C2236 1.391 . S
C2238 H2228 0.950 . S
C2238 C2239 1.386 . S
C2238 C2240 1.391 . S
C2239 C2238 1.386 . S
C2239 C2243 1.393 . S
C2240 H2229 0.950 . S
C2240 C2238 1.391 . S
C2240 C2241 1.400 . S
C2241 C2235 1.491 . S
C2241 C2240 1.400 . S
C2241 C2242 1.398 . S
C2242 H2230 0.950 . S
C2242 C2241 1.398 . S
C2242 C2243 1.391 . S
C2243 H2231 0.950 . S
C2243 C2239 1.393 . S
C2243 C2242 1.391 . S
H2244 C2252 0.950 . S
H2245 C2257 0.950 . S
H2246 C2254 0.950 . S
H2247 C2256 0.950 . S
H2248 C2258 0.944 1_545 S
H2249 C2260 0.950 . S
H2250 C2262 0.950 . S
H2251 C2263 0.950 . S
C2252 H2244 0.950 . S
C2252 C2253 1.386 . S
C2252 C2254 1.391 . S
C2253 C2252 1.386 . S
C2253 C2257 1.393 . S
C2254 H2246 0.950 . S
C2254 C2252 1.391 . S
C2254 C2255 1.400 . S
C2255 C2254 1.400 . S
C2255 C2256 1.398 . S
C2255 C2261 1.491 . S
C2256 H2247 0.950 . S
C2256 C2255 1.398 . S
C2256 C2257 1.391 . S
C2257 H2245 0.950 . S
C2257 C2253 1.393 . S
C2257 C2256 1.391 . S
C2258 H2248 0.944 1_565 S
C2258 C2259 1.386 . S
C2258 C2260 1.391 . S
C2259 C2258 1.386 . S
C2259 C2263 1.393 . S
C2260 H2249 0.950 . S
C2260 C2258 1.391 . S
C2260 C2261 1.400 . S
C2261 C2255 1.491 . S
C2261 C2260 1.400 . S
C2261 C2262 1.398 . S
C2262 H2250 0.950 . S
C2262 C2261 1.398 . S
C2262 C2263 1.391 . S
C2263 H2251 0.950 . S
C2263 C2259 1.393 . S
C2263 C2262 1.391 . S
H2264 C2272 0.950 . S
H2265 C2277 0.950 . S
H2266 C2274 0.950 . S
H2267 C2276 0.950 . S
H2268 C2278 0.950 . S
H2269 C2280 0.950 . S
H2270 C2282 0.950 . S
H2271 C2283 0.950 . S
C2272 H2264 0.950 . S
C2272 C2273 1.386 . S
C2272 C2274 1.391 . S
C2273 C2272 1.386 . S
C2273 C2277 1.393 . S
C2274 H2266 0.950 . S
C2274 C2272 1.391 . S
C2274 C2275 1.400 . S
C2275 C2274 1.400 . S
C2275 C2276 1.398 . S
C2275 C2281 1.491 . S
C2276 H2267 0.950 . S
C2276 C2275 1.398 . S
C2276 C2277 1.391 . S
C2277 H2265 0.950 . S
C2277 C2273 1.393 . S
C2277 C2276 1.391 . S
C2278 H2268 0.950 . S
C2278 C2279 1.386 . S
C2278 C2280 1.391 . S
C2279 C2278 1.386 . S
C2279 C2283 1.393 . S
C2280 H2269 0.950 . S
C2280 C2278 1.391 . S
C2280 C2281 1.400 . S
C2281 C2275 1.491 . S
C2281 C2280 1.400 . S
C2281 C2282 1.398 . S
C2282 H2270 0.950 . S
C2282 C2281 1.398 . S
C2282 C2283 1.391 . S
C2283 H2271 0.950 . S
C2283 C2279 1.393 . S
C2283 C2282 1.391 . S
H2284 C2292 0.950 . S
H2285 C2297 0.950 . S
H2286 C2294 0.950 . S
H2287 C2296 0.950 . S
H2288 C2298 0.950 . S
H2289 C2300 0.950 . S
H2290 C2302 0.950 . S
H2291 C2303 0.950 . S
C2292 H2284 0.950 . S
C2292 C2293 1.386 . S
C2292 C2294 1.391 . S
C2293 C2292 1.386 . S
C2293 C2297 1.393 . S
C2294 H2286 0.950 . S
C2294 C2292 1.391 . S
C2294 C2295 1.400 . S
C2295 C2294 1.400 . S
C2295 C2296 1.398 . S
C2295 C2301 1.491 . S
C2296 H2287 0.950 . S
C2296 C2295 1.398 . S
C2296 C2297 1.391 . S
C2297 H2285 0.950 . S
C2297 C2293 1.393 . S
C2297 C2296 1.391 . S
C2298 H2288 0.950 . S
C2298 C2299 1.386 . S
C2298 C2300 1.391 . S
C2299 C2298 1.386 . S
C2299 C2303 1.393 . S
C2300 H2289 0.950 . S
C2300 C2298 1.391 . S
C2300 C2301 1.400 . S
C2301 C2295 1.491 . S
C2301 C2300 1.400 . S
C2301 C2302 1.398 . S
C2302 H2290 0.950 . S
C2302 C2301 1.398 . S
C2302 C2303 1.391 . S
C2303 H2291 0.950 . S
C2303 C2299 1.393 . S
C2303 C2302 1.391 . S
H2304 C2312 0.950 . S
H2305 C2317 0.950 . S
H2306 C2314 0.950 . S
H2307 C2316 0.950 . S
H2308 C2318 0.950 . S
H2309 C2320 0.950 . S
H2310 C2322 0.950 . S
H2311 C2323 0.950 . S
C2312 H2304 0.950 . S
C2312 C2313 1.386 . S
C2312 C2314 1.391 . S
C2313 C2312 1.386 . S
C2313 C2317 1.393 . S
C2314 H2306 0.950 . S
C2314 C2312 1.391 . S
C2314 C2315 1.400 . S
C2315 C2314 1.400 . S
C2315 C2316 1.398 . S
C2315 C2321 1.491 . S
C2316 H2307 0.950 . S
C2316 C2315 1.398 . S
C2316 C2317 1.391 . S
C2317 H2305 0.950 . S
C2317 C2313 1.393 . S
C2317 C2316 1.391 . S
C2318 H2308 0.950 . S
C2318 C2319 1.386 . S
C2318 C2320 1.391 . S
C2319 C2318 1.386 . S
C2319 C2323 1.393 . S
C2320 H2309 0.950 . S
C2320 C2318 1.391 . S
C2320 C2321 1.400 . S
C2321 C2315 1.491 . S
C2321 C2320 1.400 . S
C2321 C2322 1.398 . S
C2322 H2310 0.950 . S
C2322 C2321 1.398 . S
C2322 C2323 1.391 . S
C2323 H2311 0.950 . S
C2323 C2319 1.393 . S
C2323 C2322 1.391 . S
H2324 C2332 0.950 1_545 S
H2325 C2337 0.950 . S
H2326 C2334 0.950 . S
H2327 C2336 0.950 . S
H2328 C2338 0.950 . S
H2329 C2340 0.950 . S
H2330 C2342 0.950 . S
H2331 C2343 0.950 . S
C2332 H2324 0.950 1_565 S
C2332 C2333 1.386 . S
C2332 C2334 1.391 . S
C2333 C2332 1.386 . S
C2333 C2337 1.393 . S
C2334 H2326 0.950 . S
C2334 C2332 1.391 . S
C2334 C2335 1.400 . S
C2335 C2334 1.400 . S
C2335 C2336 1.398 . S
C2335 C2341 1.491 . S
C2336 H2327 0.950 . S
C2336 C2335 1.398 . S
C2336 C2337 1.391 . S
C2337 H2325 0.950 . S
C2337 C2333 1.393 . S
C2337 C2336 1.391 . S
C2338 H2328 0.950 . S
C2338 C2339 1.386 . S
C2338 C2340 1.391 . S
C2339 C2338 1.386 . S
C2339 C2343 1.393 . S
C2340 H2329 0.950 . S
C2340 C2338 1.391 . S
C2340 C2341 1.400 . S
C2341 C2335 1.491 . S
C2341 C2340 1.400 . S
C2341 C2342 1.398 . S
C2342 H2330 0.950 . S
C2342 C2341 1.398 . S
C2342 C2343 1.391 . S
C2343 H2331 0.950 . S
C2343 C2339 1.393 . S
C2343 C2342 1.391 . S
H2344 C2352 0.950 . S
H2345 C2357 0.950 . S
H2346 C2354 0.950 . S
H2347 C2356 0.950 . S
H2348 C2358 0.950 . S
H2349 C2360 0.950 . S
H2350 C2362 0.950 . S
H2351 C2363 0.950 . S
C2352 H2344 0.950 . S
C2352 C2353 1.386 . S
C2352 C2354 1.391 . S
C2353 C2352 1.386 . S
C2353 C2357 1.393 . S
C2354 H2346 0.950 . S
C2354 C2352 1.391 . S
C2354 C2355 1.400 . S
C2355 C2354 1.400 . S
C2355 C2356 1.398 . S
C2355 C2361 1.491 . S
C2356 H2347 0.950 . S
C2356 C2355 1.398 . S
C2356 C2357 1.391 . S
C2357 H2345 0.950 . S
C2357 C2353 1.393 . S
C2357 C2356 1.391 . S
C2358 H2348 0.950 . S
C2358 C2359 1.386 . S
C2358 C2360 1.391 . S
C2359 C2358 1.386 . S
C2359 C2363 1.393 . S
C2360 H2349 0.950 . S
C2360 C2358 1.391 . S
C2360 C2361 1.400 . S
C2361 C2355 1.491 . S
C2361 C2360 1.400 . S
C2361 C2362 1.398 . S
C2362 H2350 0.950 . S
C2362 C2361 1.398 . S
C2362 C2363 1.391 . S
C2363 H2351 0.950 . S
C2363 C2359 1.393 . S
C2363 C2362 1.391 . S
H2364 C2372 0.950 . S
H2365 C2377 0.950 . S
H2366 C2374 0.950 . S
H2367 C2376 0.950 . S
H2368 C2378 0.950 . S
H2369 C2380 0.950 . S
H2370 C2382 0.950 . S
H2371 C2383 0.950 . S
C2372 H2364 0.950 . S
C2372 C2373 1.386 . S
C2372 C2374 1.391 . S
C2373 C2372 1.386 . S
C2373 C2377 1.393 . S
C2374 H2366 0.950 . S
C2374 C2372 1.391 . S
C2374 C2375 1.400 . S
C2375 C2374 1.400 . S
C2375 C2376 1.398 . S
C2375 C2381 1.491 . S
C2376 H2367 0.950 . S
C2376 C2375 1.398 . S
C2376 C2377 1.391 . S
C2377 H2365 0.950 . S
C2377 C2373 1.393 . S
C2377 C2376 1.391 . S
C2378 H2368 0.950 . S
C2378 C2379 1.386 . S
C2378 C2380 1.391 . S
C2379 C2378 1.386 . S
C2379 C2383 1.393 . S
C2380 H2369 0.950 . S
C2380 C2378 1.391 . S
C2380 C2381 1.400 . S
C2381 C2375 1.491 . S
C2381 C2380 1.400 . S
C2381 C2382 1.398 . S
C2382 H2370 0.950 . S
C2382 C2381 1.398 . S
C2382 C2383 1.391 . S
C2383 H2371 0.950 . S
C2383 C2379 1.393 . S
C2383 C2382 1.391 . S
H2384 C2392 0.950 . S
H2385 C2397 0.950 . S
H2386 C2394 0.950 . S
H2387 C2396 0.950 . S
H2388 C2398 0.950 . S
H2389 C2400 0.950 . S
H2390 C2402 0.950 . S
H2391 C2403 0.950 . S
C2392 H2384 0.950 . S
C2392 C2393 1.386 . S
C2392 C2394 1.391 . S
C2393 C2392 1.386 . S
C2393 C2397 1.393 . S
C2394 H2386 0.950 . S
C2394 C2392 1.391 . S
C2394 C2395 1.400 . S
C2395 C2394 1.400 . S
C2395 C2396 1.398 . S
C2395 C2401 1.491 . S
C2396 H2387 0.950 . S
C2396 C2395 1.398 . S
C2396 C2397 1.391 . S
C2397 H2385 0.950 . S
C2397 C2393 1.393 . S
C2397 C2396 1.391 . S
C2398 H2388 0.950 . S
C2398 C2399 1.386 . S
C2398 C2400 1.391 . S
C2399 C2398 1.386 . S
C2399 C2403 1.393 . S
C2400 H2389 0.950 . S
C2400 C2398 1.391 . S
C2400 C2401 1.400 . S
C2401 C2395 1.491 . S
C2401 C2400 1.400 . S
C2401 C2402 1.398 . S
C2402 H2390 0.950 . S
C2402 C2401 1.398 . S
C2402 C2403 1.391 . S
C2403 H2391 0.950 . S
C2403 C2399 1.393 . S
C2403 C2402 1.391 . S
H2404 C2412 0.950 . S
H2405 C2417 0.950 . S
H2406 C2414 0.950 . S
H2407 C2416 0.950 . S
H2408 C2418 0.950 . S
H2409 C2420 0.950 . S
H2410 C2422 0.950 . S
H2411 C2423 0.950 . S
C2412 H2404 0.950 . S
C2412 C2413 1.386 . S
C2412 C2414 1.391 . S
C2413 C2412 1.386 . S
C2413 C2417 1.393 . S
C2414 H2406 0.950 . S
C2414 C2412 1.391 . S
C2414 C2415 1.400 . S
C2415 C2414 1.400 . S
C2415 C2416 1.398 . S
C2415 C2421 1.491 . S
C2416 H2407 0.950 . S
C2416 C2415 1.398 . S
C2416 C2417 1.391 . S
C2417 H2405 0.950 . S
C2417 C2413 1.393 . S
C2417 C2416 1.391 . S
C2418 H2408 0.950 . S
C2418 C2419 1.386 . S
C2418 C2420 1.391 . S
C2419 C2418 1.386 . S
C2419 C2423 1.393 . S
C2420 H2409 0.950 . S
C2420 C2418 1.391 . S
C2420 C2421 1.400 . S
C2421 C2415 1.491 . S
C2421 C2420 1.400 . S
C2421 C2422 1.398 . S
C2422 H2410 0.950 . S
C2422 C2421 1.398 . S
C2422 C2423 1.391 . S
C2423 H2411 0.950 . S
C2423 C2419 1.393 . S
C2423 C2422 1.391 . S
H2424 C2432 0.950 . S
H2425 C2437 0.950 . S
H2426 C2434 0.950 . S
H2427 C2436 0.950 . S
H2428 C2438 0.950 . S
H2429 C2440 0.950 . S
H2430 C2442 0.950 . S
H2431 C2443 0.950 . S
C2432 H2424 0.950 . S
C2432 C2433 1.386 1_545 S
C2432 C2434 1.391 . S
C2433 C2432 1.386 1_565 S
C2433 C2437 1.393 . S
C2434 H2426 0.950 . S
C2434 C2432 1.391 . S
C2434 C2435 1.400 . S
C2435 C2434 1.400 . S
C2435 C2436 1.398 . S
C2435 C2441 1.491 . S
C2436 H2427 0.950 . S
C2436 C2435 1.398 . S
C2436 C2437 1.391 1_545 S
C2437 H2425 0.950 . S
C2437 C2433 1.393 . S
C2437 C2436 1.391 1_565 S
C2438 H2428 0.950 . S
C2438 C2439 1.386 . S
C2438 C2440 1.391 . S
C2439 C2438 1.386 . S
C2439 C2443 1.393 . S
C2440 H2429 0.950 . S
C2440 C2438 1.391 . S
C2440 C2441 1.400 . S
C2441 C2435 1.491 . S
C2441 C2440 1.400 . S
C2441 C2442 1.398 . S
C2442 H2430 0.950 . S
C2442 C2441 1.398 . S
C2442 C2443 1.391 . S
C2443 H2431 0.950 . S
C2443 C2439 1.393 . S
C2443 C2442 1.391 . S
H2444 C2452 0.950 . S
H2445 C2457 0.950 . S
H2446 C2454 0.950 . S
H2447 C2456 0.950 . S
H2448 C2458 0.950 . S
H2449 C2460 0.950 . S
H2450 C2462 0.950 . S
H2451 C2463 0.950 . S
C2452 H2444 0.950 . S
C2452 C2453 1.386 . S
C2452 C2454 1.391 . S
C2453 C2452 1.386 . S
C2453 C2457 1.393 . S
C2454 H2446 0.950 . S
C2454 C2452 1.391 . S
C2454 C2455 1.400 . S
C2455 C2454 1.400 . S
C2455 C2456 1.398 . S
C2455 C2461 1.491 . S
C2456 H2447 0.950 . S
C2456 C2455 1.398 . S
C2456 C2457 1.391 . S
C2457 H2445 0.950 . S
C2457 C2453 1.393 . S
C2457 C2456 1.391 . S
C2458 H2448 0.950 . S
C2458 C2459 1.386 . S
C2458 C2460 1.391 . S
C2459 C2458 1.386 . S
C2459 C2463 1.393 . S
C2460 H2449 0.950 . S
C2460 C2458 1.391 . S
C2460 C2461 1.400 . S
C2461 C2455 1.491 . S
C2461 C2460 1.400 . S
C2461 C2462 1.398 . S
C2462 H2450 0.950 . S
C2462 C2461 1.398 . S
C2462 C2463 1.391 . S
C2463 H2451 0.950 . S
C2463 C2459 1.393 . S
C2463 C2462 1.391 . S
H2464 C2472 0.950 . S
H2465 C2477 0.950 . S
H2466 C2474 0.950 . S
H2467 C2476 0.950 . S
H2468 C2478 0.950 . S
H2469 C2480 0.950 . S
H2470 C2482 0.950 . S
H2471 C2483 0.950 . S
C2472 H2464 0.950 . S
C2472 C2473 1.386 1_565 S
C2472 C2474 1.391 . S
C2473 C2472 1.386 1_545 S
C2473 C2477 1.393 . S
C2474 H2466 0.950 . S
C2474 C2472 1.391 . S
C2474 C2475 1.400 . S
C2475 C2474 1.400 . S
C2475 C2476 1.398 . S
C2475 C2481 1.491 . S
C2476 H2467 0.950 . S
C2476 C2475 1.398 . S
C2476 C2477 1.391 1_565 S
C2477 H2465 0.950 . S
C2477 C2473 1.393 . S
C2477 C2476 1.391 1_545 S
C2478 H2468 0.950 . S
C2478 C2479 1.386 . S
C2478 C2480 1.391 . S
C2479 C2478 1.386 . S
C2479 C2483 1.393 . S
C2480 H2469 0.950 . S
C2480 C2478 1.391 . S
C2480 C2481 1.400 . S
C2481 C2475 1.491 . S
C2481 C2480 1.400 . S
C2481 C2482 1.398 . S
C2482 H2470 0.950 . S
C2482 C2481 1.398 . S
C2482 C2483 1.391 . S
C2483 H2471 0.950 . S
C2483 C2479 1.393 . S
C2483 C2482 1.391 . S
H2484 C2492 0.950 . S
H2485 C2497 0.950 . S
H2486 C2494 0.950 . S
H2487 C2496 0.950 . S
H2488 C2498 0.950 . S
H2489 C2500 0.950 . S
H2490 C2502 0.950 . S
H2491 C2503 0.950 . S
C2492 H2484 0.950 . S
C2492 C2493 1.386 . S
C2492 C2494 1.391 . S
C2493 C2492 1.386 . S
C2493 C2497 1.393 . S
C2494 H2486 0.950 . S
C2494 C2492 1.391 . S
C2494 C2495 1.400 . S
C2495 C2494 1.400 . S
C2495 C2496 1.398 . S
C2495 C2501 1.491 . S
C2496 H2487 0.950 . S
C2496 C2495 1.398 . S
C2496 C2497 1.391 . S
C2497 H2485 0.950 . S
C2497 C2493 1.393 . S
C2497 C2496 1.391 . S
C2498 H2488 0.950 . S
C2498 C2499 1.386 . S
C2498 C2500 1.391 . S
C2499 C2498 1.386 . S
C2499 C2503 1.393 . S
C2500 H2489 0.950 . S
C2500 C2498 1.391 . S
C2500 C2501 1.400 . S
C2501 C2495 1.491 . S
C2501 C2500 1.400 . S
C2501 C2502 1.398 . S
C2502 H2490 0.950 . S
C2502 C2501 1.398 . S
C2502 C2503 1.391 . S
C2503 H2491 0.950 . S
C2503 C2499 1.393 . S
C2503 C2502 1.391 . S
H2504 C2512 0.950 . S
H2505 C2517 0.950 . S
H2506 C2514 0.950 . S
H2507 C2516 0.950 . S
H2508 C2518 0.939 1_545 S
H2509 C2520 0.950 . S
H2510 C2522 0.950 . S
H2511 C2523 0.950 . S
C2512 H2504 0.950 . S
C2512 C2513 1.386 . S
C2512 C2514 1.391 . S
C2513 C2512 1.386 . S
C2513 C2517 1.393 . S
C2514 H2506 0.950 . S
C2514 C2512 1.391 . S
C2514 C2515 1.400 . S
C2515 C2514 1.400 . S
C2515 C2516 1.398 . S
C2515 C2521 1.491 . S
C2516 H2507 0.950 . S
C2516 C2515 1.398 . S
C2516 C2517 1.391 . S
C2517 H2505 0.950 . S
C2517 C2513 1.393 . S
C2517 C2516 1.391 . S
C2518 H2508 0.939 1_565 S
C2518 C2519 1.386 1_565 S
C2518 C2520 1.391 . S
C2519 C2518 1.386 1_545 S
C2519 C2523 1.393 . S
C2520 H2509 0.950 . S
C2520 C2518 1.391 . S
C2520 C2521 1.400 . S
C2521 C2515 1.491 . S
C2521 C2520 1.400 . S
C2521 C2522 1.398 . S
C2522 H2510 0.950 . S
C2522 C2521 1.398 . S
C2522 C2523 1.391 1_565 S
C2523 H2511 0.950 . S
C2523 C2519 1.393 . S
C2523 C2522 1.391 1_545 S
H2524 C2532 0.950 . S
H2525 C2537 0.950 . S
H2526 C2534 0.950 . S
H2527 C2536 0.950 . S
H2528 C2538 0.950 . S
H2529 C2540 0.950 . S
H2530 C2542 0.950 . S
H2531 C2543 0.950 . S
C2532 H2524 0.950 . S
C2532 C2533 1.386 . S
C2532 C2534 1.391 . S
C2533 C2532 1.386 . S
C2533 C2537 1.393 . S
C2534 H2526 0.950 . S
C2534 C2532 1.391 . S
C2534 C2535 1.400 . S
C2535 C2534 1.400 . S
C2535 C2536 1.398 . S
C2535 C2541 1.491 . S
C2536 H2527 0.950 . S
C2536 C2535 1.398 . S
C2536 C2537 1.391 . S
C2537 H2525 0.950 . S
C2537 C2533 1.393 . S
C2537 C2536 1.391 . S
C2538 H2528 0.950 . S
C2538 C2539 1.386 . S
C2538 C2540 1.391 . S
C2539 C2538 1.386 . S
C2539 C2543 1.393 . S
C2540 H2529 0.950 . S
C2540 C2538 1.391 . S
C2540 C2541 1.400 . S
C2541 C2535 1.491 . S
C2541 C2540 1.400 . S
C2541 C2542 1.398 . S
C2542 H2530 0.950 . S
C2542 C2541 1.398 . S
C2542 C2543 1.391 . S
C2543 H2531 0.950 . S
C2543 C2539 1.393 . S
C2543 C2542 1.391 . S
H2544 C2552 0.950 . S
H2545 C2557 0.950 . S
H2546 C2554 0.950 . S
H2547 C2556 0.950 1_655 S
H2548 C2558 0.950 . S
H2549 C2560 0.950 . S
H2550 C2562 0.950 1_455 S
H2551 C2563 0.950 . S
C2552 H2544 0.950 . S
C2552 C2553 1.386 . S
C2552 C2554 1.391 . S
C2553 C2552 1.386 . S
C2553 C2557 1.393 . S
C2554 H2546 0.950 . S
C2554 C2552 1.391 . S
C2554 C2555 1.400 . S
C2555 C2554 1.400 . S
C2555 C2556 1.398 . S
C2555 C2561 1.491 1_455 S
C2556 H2547 0.950 1_455 S
C2556 C2555 1.398 . S
C2556 C2557 1.391 . S
C2557 H2545 0.950 . S
C2557 C2553 1.393 . S
C2557 C2556 1.391 . S
C2558 H2548 0.950 . S
C2558 C2559 1.386 . S
C2558 C2560 1.391 . S
C2559 C2558 1.386 . S
C2559 C2563 1.393 . S
C2560 H2549 0.950 . S
C2560 C2558 1.391 . S
C2560 C2561 1.400 . S
C2561 C2555 1.491 1_655 S
C2561 C2560 1.400 . S
C2561 C2562 1.398 . S
C2562 H2550 0.950 1_655 S
C2562 C2561 1.398 . S
C2562 C2563 1.391 . S
C2563 H2551 0.950 . S
C2563 C2559 1.393 . S
C2563 C2562 1.391 . S
H2564 C2572 0.950 . S
H2565 C2577 0.950 . S
H2566 C2574 0.950 . S
H2567 C2576 0.950 . S
H2568 C2578 0.950 . S
H2569 C2580 0.950 . S
H2570 C2582 0.950 . S
H2571 C2583 0.950 . S
C2572 H2564 0.950 . S
C2572 C2573 1.386 . S
C2572 C2574 1.391 . S
C2573 C2572 1.386 . S
C2573 C2577 1.393 . S
C2574 H2566 0.950 . S
C2574 C2572 1.391 . S
C2574 C2575 1.400 . S
C2575 C2574 1.400 . S
C2575 C2576 1.398 . S
C2575 C2581 1.491 . S
C2576 H2567 0.950 . S
C2576 C2575 1.398 . S
C2576 C2577 1.391 . S
C2577 H2565 0.950 . S
C2577 C2573 1.393 . S
C2577 C2576 1.391 . S
C2578 H2568 0.950 . S
C2578 C2579 1.386 . S
C2578 C2580 1.391 . S
C2579 C2578 1.386 . S
C2579 C2583 1.393 . S
C2580 H2569 0.950 . S
C2580 C2578 1.391 . S
C2580 C2581 1.400 . S
C2581 C2575 1.491 . S
C2581 C2580 1.400 . S
C2581 C2582 1.398 . S
C2582 H2570 0.950 . S
C2582 C2581 1.398 . S
C2582 C2583 1.391 . S
C2583 H2571 0.950 . S
C2583 C2579 1.393 . S
C2583 C2582 1.391 . S
H2584 C2592 0.950 . S
H2585 C2597 0.950 . S
H2586 C2594 0.950 1_455 S
H2587 C2596 0.950 . S
H2588 C2598 0.950 . S
H2589 C2600 0.950 1_655 S
H2590 C2602 0.950 . S
H2591 C2603 0.950 . S
C2592 H2584 0.950 . S
C2592 C2593 1.386 . S
C2592 C2594 1.391 . S
C2593 C2592 1.386 . S
C2593 C2597 1.393 . S
C2594 H2586 0.950 1_655 S
C2594 C2592 1.391 . S
C2594 C2595 1.400 . S
C2595 C2594 1.400 . S
C2595 C2596 1.398 . S
C2595 C2601 1.491 1_655 S
C2596 H2587 0.950 . S
C2596 C2595 1.398 . S
C2596 C2597 1.391 . S
C2597 H2585 0.950 . S
C2597 C2593 1.393 . S
C2597 C2596 1.391 . S
C2598 H2588 0.950 . S
C2598 C2599 1.386 . S
C2598 C2600 1.391 . S
C2599 C2598 1.386 . S
C2599 C2603 1.393 . S
C2600 H2589 0.950 1_455 S
C2600 C2598 1.391 . S
C2600 C2601 1.400 . S
C2601 C2595 1.491 1_455 S
C2601 C2600 1.400 . S
C2601 C2602 1.398 . S
C2602 H2590 0.950 . S
C2602 C2601 1.398 . S
C2602 C2603 1.391 . S
C2603 H2591 0.950 . S
C2603 C2599 1.393 . S
C2603 C2602 1.391 . S
H2604 C2612 0.950 . S
H2605 C2617 0.950 . S
H2606 C2614 0.950 1_455 S
H2607 C2616 0.950 . S
H2608 C2618 0.950 . S
H2609 C2620 0.950 1_655 S
H2610 C2622 0.950 . S
H2611 C2623 0.950 . S
C2612 H2604 0.950 . S
C2612 C2613 1.386 . S
C2612 C2614 1.391 . S
C2613 C2612 1.386 . S
C2613 C2617 1.393 . S
C2614 H2606 0.950 1_655 S
C2614 C2612 1.391 . S
C2614 C2615 1.400 . S
C2615 C2614 1.400 . S
C2615 C2616 1.398 . S
C2615 C2621 1.491 1_655 S
C2616 H2607 0.950 . S
C2616 C2615 1.398 . S
C2616 C2617 1.391 . S
C2617 H2605 0.950 . S
C2617 C2613 1.393 . S
C2617 C2616 1.391 . S
C2618 H2608 0.950 . S
C2618 C2619 1.386 . S
C2618 C2620 1.391 . S
C2619 C2618 1.386 . S
C2619 C2623 1.393 . S
C2620 H2609 0.950 1_455 S
C2620 C2618 1.391 . S
C2620 C2621 1.400 . S
C2621 C2615 1.491 1_455 S
C2621 C2620 1.400 . S
C2621 C2622 1.398 . S
C2622 H2610 0.950 . S
C2622 C2621 1.398 . S
C2622 C2623 1.391 . S
C2623 H2611 0.950 . S
C2623 C2619 1.393 . S
C2623 C2622 1.391 . S
H2624 C2632 0.950 . S
H2625 C2637 0.950 . S
H2626 C2634 0.950 . S
H2627 C2636 0.956 . S
H2628 C2638 0.950 . S
H2629 C2640 0.950 . S
H2630 C2642 0.956 . S
H2631 C2643 0.950 . S
C2632 H2624 0.950 . S
C2632 C2633 1.386 . S
C2632 C2634 1.391 . S
C2633 C2632 1.386 . S
C2633 C2637 1.393 . S
C2634 H2626 0.950 . S
C2634 C2632 1.391 . S
C2634 C2635 1.400 . S
C2635 C2634 1.400 . S
C2635 C2636 1.398 . S
C2635 C2641 1.491 1_565 S
C2636 H2627 0.956 . S
C2636 C2635 1.398 . S
C2636 C2637 1.391 . S
C2637 H2625 0.950 . S
C2637 C2633 1.393 . S
C2637 C2636 1.391 . S
C2638 H2628 0.950 . S
C2638 C2639 1.386 . S
C2638 C2640 1.391 . S
C2639 C2638 1.386 . S
C2639 C2643 1.393 . S
C2640 H2629 0.950 . S
C2640 C2638 1.391 . S
C2640 C2641 1.400 . S
C2641 C2635 1.491 1_545 S
C2641 C2640 1.400 . S
C2641 C2642 1.398 . S
C2642 H2630 0.956 . S
C2642 C2641 1.398 . S
C2642 C2643 1.391 . S
C2643 H2631 0.950 . S
C2643 C2639 1.393 . S
C2643 C2642 1.391 . S
H2644 C2652 0.950 . S
H2645 C2657 0.950 . S
H2646 C2654 0.950 . S
H2647 C2656 0.950 1_554 S
H2648 C2658 0.950 . S
H2649 C2660 0.950 . S
H2650 C2662 0.950 1_556 S
H2651 C2663 0.950 . S
C2652 H2644 0.950 . S
C2652 C2653 1.386 . S
C2652 C2654 1.391 . S
C2653 C2652 1.386 . S
C2653 C2657 1.393 . S
C2654 H2646 0.950 . S
C2654 C2652 1.391 . S
C2654 C2655 1.400 . S
C2655 C2654 1.400 . S
C2655 C2656 1.398 . S
C2655 C2661 1.491 1_556 S
C2656 H2647 0.950 1_556 S
C2656 C2655 1.398 . S
C2656 C2657 1.391 . S
C2657 H2645 0.950 . S
C2657 C2653 1.393 . S
C2657 C2656 1.391 . S
C2658 H2648 0.950 . S
C2658 C2659 1.386 . S
C2658 C2660 1.391 . S
C2659 C2658 1.386 . S
C2659 C2663 1.393 . S
C2660 H2649 0.950 . S
C2660 C2658 1.391 . S
C2660 C2661 1.400 . S
C2661 C2655 1.491 1_554 S
C2661 C2660 1.400 . S
C2661 C2662 1.398 . S
C2662 H2650 0.950 1_554 S
C2662 C2661 1.398 . S
C2662 C2663 1.391 . S
C2663 H2651 0.950 . S
C2663 C2659 1.393 . S
C2663 C2662 1.391 . S
H2664 C2672 0.950 . S
H2665 C2677 0.950 . S
H2666 C2674 0.950 . S
H2667 C2676 0.950 . S
H2668 C2678 0.950 . S
H2669 C2680 0.950 . S
H2670 C2682 0.950 . S
H2671 C2683 0.950 . S
C2672 H2664 0.950 . S
C2672 C2673 1.386 . S
C2672 C2674 1.391 . S
C2673 C2672 1.386 . S
C2673 C2677 1.393 . S
C2674 H2666 0.950 . S
C2674 C2672 1.391 . S
C2674 C2675 1.400 . S
C2675 C2674 1.400 . S
C2675 C2676 1.398 . S
C2675 C2681 1.491 . S
C2676 H2667 0.950 . S
C2676 C2675 1.398 . S
C2676 C2677 1.391 . S
C2677 H2665 0.950 . S
C2677 C2673 1.393 . S
C2677 C2676 1.391 . S
C2678 H2668 0.950 . S
C2678 C2679 1.386 . S
C2678 C2680 1.391 . S
C2679 C2678 1.386 . S
C2679 C2683 1.393 . S
C2680 H2669 0.950 . S
C2680 C2678 1.391 . S
C2680 C2681 1.400 . S
C2681 C2675 1.491 . S
C2681 C2680 1.400 . S
C2681 C2682 1.398 . S
C2682 H2670 0.950 . S
C2682 C2681 1.398 . S
C2682 C2683 1.391 . S
C2683 H2671 0.950 . S
C2683 C2679 1.393 . S
C2683 C2682 1.391 . S
H2684 C2692 0.950 . S
H2685 C2697 0.950 . S
H2686 C2694 0.950 . S
H2687 C2696 0.950 . S
H2688 C2698 0.950 . S
H2689 C2700 0.950 . S
H2690 C2702 0.950 . S
H2691 C2703 0.950 . S
C2692 H2684 0.950 . S
C2692 C2693 1.386 . S
C2692 C2694 1.391 . S
C2693 C2692 1.386 . S
C2693 C2697 1.393 . S
C2694 H2686 0.950 . S
C2694 C2692 1.391 . S
C2694 C2695 1.400 . S
C2695 C2694 1.400 . S
C2695 C2696 1.398 . S
C2695 C2701 1.491 1_554 S
C2696 H2687 0.950 . S
C2696 C2695 1.398 . S
C2696 C2697 1.391 . S
C2697 H2685 0.950 . S
C2697 C2693 1.393 . S
C2697 C2696 1.391 . S
C2698 H2688 0.950 . S
C2698 C2699 1.386 . S
C2698 C2700 1.391 . S
C2699 C2698 1.386 . S
C2699 C2703 1.393 . S
C2700 H2689 0.950 . S
C2700 C2698 1.391 . S
C2700 C2701 1.400 . S
C2701 C2695 1.491 1_556 S
C2701 C2700 1.400 . S
C2701 C2702 1.398 . S
C2702 H2690 0.950 . S
C2702 C2701 1.398 . S
C2702 C2703 1.391 . S
C2703 H2691 0.950 . S
C2703 C2699 1.393 . S
C2703 C2702 1.391 . S
H2704 C2712 0.950 . S
H2705 C2717 0.950 . S
H2706 C2714 0.950 . S
H2707 C2716 0.950 . S
H2708 C2718 0.950 . S
H2709 C2720 0.950 . S
H2710 C2722 0.950 . S
H2711 C2723 0.950 . S
C2712 H2704 0.950 . S
C2712 C2713 1.386 . S
C2712 C2714 1.391 . S
C2713 C2712 1.386 . S
C2713 C2717 1.393 . S
C2714 H2706 0.950 . S
C2714 C2712 1.391 . S
C2714 C2715 1.400 . S
C2715 C2714 1.400 . S
C2715 C2716 1.398 . S
C2715 C2721 1.491 1_556 S
C2716 H2707 0.950 . S
C2716 C2715 1.398 . S
C2716 C2717 1.391 . S
C2717 H2705 0.950 . S
C2717 C2713 1.393 . S
C2717 C2716 1.391 . S
C2718 H2708 0.950 . S
C2718 C2719 1.386 . S
C2718 C2720 1.391 . S
C2719 C2718 1.386 . S
C2719 C2723 1.393 . S
C2720 H2709 0.950 . S
C2720 C2718 1.391 . S
C2720 C2721 1.400 . S
C2721 C2715 1.491 1_554 S
C2721 C2720 1.400 . S
C2721 C2722 1.398 . S
C2722 H2710 0.950 . S
C2722 C2721 1.398 . S
C2722 C2723 1.391 . S
C2723 H2711 0.950 . S
C2723 C2719 1.393 . S
C2723 C2722 1.391 . S
H2724 C2732 0.950 . S
H2725 C2737 0.950 . S
H2726 C2734 0.950 . S
H2727 C2736 0.950 . S
H2728 C2738 0.950 . S
H2729 C2740 0.950 . S
H2730 C2742 0.950 . S
H2731 C2743 0.950 . S
C2732 H2724 0.950 . S
C2732 C2733 1.386 . S
C2732 C2734 1.391 . S
C2733 C2732 1.386 . S
C2733 C2737 1.393 . S
C2734 H2726 0.950 . S
C2734 C2732 1.391 . S
C2734 C2735 1.400 . S
C2735 C2734 1.400 . S
C2735 C2736 1.398 . S
C2735 C2741 1.491 . S
C2736 H2727 0.950 . S
C2736 C2735 1.398 . S
C2736 C2737 1.391 . S
C2737 H2725 0.950 . S
C2737 C2733 1.393 . S
C2737 C2736 1.391 . S
C2738 H2728 0.950 . S
C2738 C2739 1.386 . S
C2738 C2740 1.391 . S
C2739 C2738 1.386 . S
C2739 C2743 1.393 . S
C2740 H2729 0.950 . S
C2740 C2738 1.391 . S
C2740 C2741 1.400 . S
C2741 C2735 1.491 . S
C2741 C2740 1.400 . S
C2741 C2742 1.398 . S
C2742 H2730 0.950 . S
C2742 C2741 1.398 . S
C2742 C2743 1.391 . S
C2743 H2731 0.950 . S
C2743 C2739 1.393 . S
C2743 C2742 1.391 . S
H2744 C2752 0.950 . S
H2745 C2757 0.950 . S
H2746 C2754 0.950 . S
H2747 C2756 0.950 . S
H2748 C2758 0.950 . S
H2749 C2760 0.950 . S
H2750 C2762 0.950 . S
H2751 C2763 0.950 . S
C2752 H2744 0.950 . S
C2752 C2753 1.386 . S
C2752 C2754 1.391 . S
C2753 C2752 1.386 . S
C2753 C2757 1.393 . S
C2754 H2746 0.950 . S
C2754 C2752 1.391 . S
C2754 C2755 1.400 . S
C2755 C2754 1.400 . S
C2755 C2756 1.398 . S
C2755 C2761 1.491 . S
C2756 H2747 0.950 . S
C2756 C2755 1.398 . S
C2756 C2757 1.391 . S
C2757 H2745 0.950 . S
C2757 C2753 1.393 . S
C2757 C2756 1.391 . S
C2758 H2748 0.950 . S
C2758 C2759 1.386 . S
C2758 C2760 1.391 . S
C2759 C2758 1.386 . S
C2759 C2763 1.393 . S
C2760 H2749 0.950 . S
C2760 C2758 1.391 . S
C2760 C2761 1.400 . S
C2761 C2755 1.491 . S
C2761 C2760 1.400 . S
C2761 C2762 1.398 . S
C2762 H2750 0.950 . S
C2762 C2761 1.398 . S
C2762 C2763 1.391 . S
C2763 H2751 0.950 . S
C2763 C2759 1.393 . S
C2763 C2762 1.391 . S
H2764 C2772 0.950 . S
H2765 C2777 0.950 . S
H2766 C2774 0.950 . S
H2767 C2776 0.950 . S
H2768 C2778 0.950 . S
H2769 C2780 0.950 . S
H2770 C2782 0.950 . S
H2771 C2783 0.950 . S
C2772 H2764 0.950 . S
C2772 C2773 1.386 . S
C2772 C2774 1.391 . S
C2773 C2772 1.386 . S
C2773 C2777 1.393 . S
C2774 H2766 0.950 . S
C2774 C2772 1.391 . S
C2774 C2775 1.400 . S
C2775 C2774 1.400 . S
C2775 C2776 1.398 . S
C2775 C2781 1.491 . S
C2776 H2767 0.950 . S
C2776 C2775 1.398 . S
C2776 C2777 1.391 . S
C2777 H2765 0.950 . S
C2777 C2773 1.393 . S
C2777 C2776 1.391 . S
C2778 H2768 0.950 . S
C2778 C2779 1.386 . S
C2778 C2780 1.391 . S
C2779 C2778 1.386 . S
C2779 C2783 1.393 . S
C2780 H2769 0.950 . S
C2780 C2778 1.391 . S
C2780 C2781 1.400 . S
C2781 C2775 1.491 . S
C2781 C2780 1.400 . S
C2781 C2782 1.398 . S
C2782 H2770 0.950 . S
C2782 C2781 1.398 . S
C2782 C2783 1.391 . S
C2783 H2771 0.950 . S
C2783 C2779 1.393 . S
C2783 C2782 1.391 . S
H2784 C2792 0.950 . S
H2785 C2797 0.950 . S
H2786 C2794 0.950 . S
H2787 C2796 0.950 . S
H2788 C2798 0.950 . S
H2789 C2800 0.950 . S
H2790 C2802 0.950 . S
H2791 C2803 0.950 . S
C2792 H2784 0.950 . S
C2792 C2793 1.386 . S
C2792 C2794 1.391 . S
C2793 C2792 1.386 . S
C2793 C2797 1.393 . S
C2794 H2786 0.950 . S
C2794 C2792 1.391 . S
C2794 C2795 1.400 . S
C2795 C2794 1.400 . S
C2795 C2796 1.398 . S
C2795 C2801 1.491 . S
C2796 H2787 0.950 . S
C2796 C2795 1.398 . S
C2796 C2797 1.391 . S
C2797 H2785 0.950 . S
C2797 C2793 1.393 . S
C2797 C2796 1.391 . S
C2798 H2788 0.950 . S
C2798 C2799 1.386 . S
C2798 C2800 1.391 . S
C2799 C2798 1.386 . S
C2799 C2803 1.393 . S
C2800 H2789 0.950 . S
C2800 C2798 1.391 . S
C2800 C2801 1.400 . S
C2801 C2795 1.491 . S
C2801 C2800 1.400 . S
C2801 C2802 1.398 . S
C2802 H2790 0.950 . S
C2802 C2801 1.398 . S
C2802 C2803 1.391 . S
C2803 H2791 0.950 . S
C2803 C2799 1.393 . S
C2803 C2802 1.391 . S
H2804 C2812 0.950 . S
H2805 C2817 0.950 . S
H2806 C2814 0.950 . S
H2807 C2816 0.950 . S
H2808 C2818 0.950 . S
H2809 C2820 0.950 . S
H2810 C2822 0.950 . S
H2811 C2823 0.950 . S
C2812 H2804 0.950 . S
C2812 C2813 1.386 . S
C2812 C2814 1.391 . S
C2813 C2812 1.386 . S
C2813 C2817 1.393 . S
C2814 H2806 0.950 . S
C2814 C2812 1.391 . S
C2814 C2815 1.400 . S
C2815 C2814 1.400 . S
C2815 C2816 1.398 . S
C2815 C2821 1.491 1_545 S
C2816 H2807 0.950 . S
C2816 C2815 1.398 . S
C2816 C2817 1.391 . S
C2817 H2805 0.950 . S
C2817 C2813 1.393 . S
C2817 C2816 1.391 . S
C2818 H2808 0.950 . S
C2818 C2819 1.386 . S
C2818 C2820 1.391 . S
C2819 C2818 1.386 . S
C2819 C2823 1.393 . S
C2820 H2809 0.950 . S
C2820 C2818 1.391 . S
C2820 C2821 1.400 . S
C2821 C2815 1.491 1_565 S
C2821 C2820 1.400 . S
C2821 C2822 1.398 . S
C2822 H2810 0.950 . S
C2822 C2821 1.398 . S
C2822 C2823 1.391 . S
C2823 H2811 0.950 . S
C2823 C2819 1.393 . S
C2823 C2822 1.391 . S
H2824 C2832 0.950 . S
H2825 C2837 0.950 . S
H2826 C2834 0.950 . S
H2827 C2836 0.950 . S
H2828 C2838 0.950 . S
H2829 C2840 0.950 . S
H2830 C2842 0.950 . S
H2831 C2843 0.950 . S
C2832 H2824 0.950 . S
C2832 C2833 1.386 . S
C2832 C2834 1.391 . S
C2833 C2832 1.386 . S
C2833 C2837 1.393 . S
C2834 H2826 0.950 . S
C2834 C2832 1.391 . S
C2834 C2835 1.400 . S
C2835 C2834 1.400 . S
C2835 C2836 1.398 . S
C2835 C2841 1.491 . S
C2836 H2827 0.950 . S
C2836 C2835 1.398 . S
C2836 C2837 1.391 . S
C2837 H2825 0.950 . S
C2837 C2833 1.393 . S
C2837 C2836 1.391 . S
C2838 H2828 0.950 . S
C2838 C2839 1.386 . S
C2838 C2840 1.391 . S
C2839 C2838 1.386 . S
C2839 C2843 1.393 . S
C2840 H2829 0.950 . S
C2840 C2838 1.391 . S
C2840 C2841 1.400 . S
C2841 C2835 1.491 . S
C2841 C2840 1.400 . S
C2841 C2842 1.398 . S
C2842 H2830 0.950 . S
C2842 C2841 1.398 . S
C2842 C2843 1.391 . S
C2843 H2831 0.950 . S
C2843 C2839 1.393 . S
C2843 C2842 1.391 . S
H2844 C2852 0.950 . S
H2845 C2857 0.950 . S
H2846 C2854 0.950 1_455 S
H2847 C2856 0.950 . S
H2848 C2858 0.950 . S
H2849 C2860 0.950 1_655 S
H2850 C2862 0.950 . S
H2851 C2863 0.950 . S
C2852 H2844 0.950 . S
C2852 C2853 1.386 . S
C2852 C2854 1.391 . S
C2853 C2852 1.386 . S
C2853 C2857 1.393 . S
C2854 H2846 0.950 1_655 S
C2854 C2852 1.391 . S
C2854 C2855 1.400 . S
C2855 C2854 1.400 . S
C2855 C2856 1.398 . S
C2855 C2861 1.491 1_655 S
C2856 H2847 0.950 . S
C2856 C2855 1.398 . S
C2856 C2857 1.391 . S
C2857 H2845 0.950 . S
C2857 C2853 1.393 . S
C2857 C2856 1.391 . S
C2858 H2848 0.950 . S
C2858 C2859 1.386 . S
C2858 C2860 1.391 . S
C2859 C2858 1.386 . S
C2859 C2863 1.393 . S
C2860 H2849 0.950 1_455 S
C2860 C2858 1.391 . S
C2860 C2861 1.400 . S
C2861 C2855 1.491 1_455 S
C2861 C2860 1.400 . S
C2861 C2862 1.398 . S
C2862 H2850 0.950 . S
C2862 C2861 1.398 . S
C2862 C2863 1.391 . S
C2863 H2851 0.950 . S
C2863 C2859 1.393 . S
C2863 C2862 1.391 . S
H2864 C2872 0.950 . S
H2865 C2877 0.950 . S
H2866 C2874 0.950 . S
H2867 C2876 0.950 . S
H2868 C2878 0.950 . S
H2869 C2880 0.950 . S
H2870 C2882 0.950 . S
H2871 C2883 0.950 . S
C2872 H2864 0.950 . S
C2872 C2873 1.386 . S
C2872 C2874 1.391 . S
C2873 C2872 1.386 . S
C2873 C2877 1.393 . S
C2874 H2866 0.950 . S
C2874 C2872 1.391 . S
C2874 C2875 1.400 . S
C2875 C2874 1.400 . S
C2875 C2876 1.398 . S
C2875 C2881 1.491 . S
C2876 H2867 0.950 . S
C2876 C2875 1.398 . S
C2876 C2877 1.391 . S
C2877 H2865 0.950 . S
C2877 C2873 1.393 . S
C2877 C2876 1.391 . S
C2878 H2868 0.950 . S
C2878 C2879 1.386 . S
C2878 C2880 1.391 . S
C2879 C2878 1.386 . S
C2879 C2883 1.393 . S
C2880 H2869 0.950 . S
C2880 C2878 1.391 . S
C2880 C2881 1.400 . S
C2881 C2875 1.491 . S
C2881 C2880 1.400 . S
C2881 C2882 1.398 . S
C2882 H2870 0.950 . S
C2882 C2881 1.398 . S
C2882 C2883 1.391 . S
C2883 H2871 0.950 . S
C2883 C2879 1.393 . S
C2883 C2882 1.391 . S
H2884 C2892 0.950 . S
H2885 C2897 0.950 . S
H2886 C2894 0.950 . S
H2887 C2896 0.950 . S
H2888 C2898 0.950 . S
H2889 C2900 0.950 . S
H2890 C2902 0.950 . S
H2891 C2903 0.950 . S
C2892 H2884 0.950 . S
C2892 C2893 1.386 . S
C2892 C2894 1.391 . S
C2893 C2892 1.386 . S
C2893 C2897 1.393 . S
C2894 H2886 0.950 . S
C2894 C2892 1.391 . S
C2894 C2895 1.400 . S
C2895 C2894 1.400 . S
C2895 C2896 1.398 . S
C2895 C2901 1.491 . S
C2896 H2887 0.950 . S
C2896 C2895 1.398 . S
C2896 C2897 1.391 . S
C2897 H2885 0.950 . S
C2897 C2893 1.393 . S
C2897 C2896 1.391 . S
C2898 H2888 0.950 . S
C2898 C2899 1.386 . S
C2898 C2900 1.391 . S
C2899 C2898 1.386 . S
C2899 C2903 1.393 . S
C2900 H2889 0.950 . S
C2900 C2898 1.391 . S
C2900 C2901 1.400 . S
C2901 C2895 1.491 . S
C2901 C2900 1.400 . S
C2901 C2902 1.398 . S
C2902 H2890 0.950 . S
C2902 C2901 1.398 . S
C2902 C2903 1.391 . S
C2903 H2891 0.950 . S
C2903 C2899 1.393 . S
C2903 C2902 1.391 . S
H2904 C2912 0.950 . S
H2905 C2917 0.950 . S
H2906 C2914 0.950 . S
H2907 C2916 0.950 . S
H2908 C2918 0.950 . S
H2909 C2920 0.950 . S
H2910 C2922 0.950 . S
H2911 C2923 0.950 . S
C2912 H2904 0.950 . S
C2912 C2913 1.386 . S
C2912 C2914 1.391 . S
C2913 C2912 1.386 . S
C2913 C2917 1.393 . S
C2914 H2906 0.950 . S
C2914 C2912 1.391 . S
C2914 C2915 1.400 . S
C2915 C2914 1.400 . S
C2915 C2916 1.398 . S
C2915 C2921 1.491 . S
C2916 H2907 0.950 . S
C2916 C2915 1.398 . S
C2916 C2917 1.391 . S
C2917 H2905 0.950 . S
C2917 C2913 1.393 . S
C2917 C2916 1.391 . S
C2918 H2908 0.950 . S
C2918 C2919 1.386 . S
C2918 C2920 1.391 . S
C2919 C2918 1.386 . S
C2919 C2923 1.393 . S
C2920 H2909 0.950 . S
C2920 C2918 1.391 . S
C2920 C2921 1.400 . S
C2921 C2915 1.491 . S
C2921 C2920 1.400 . S
C2921 C2922 1.398 . S
C2922 H2910 0.950 . S
C2922 C2921 1.398 . S
C2922 C2923 1.391 . S
C2923 H2911 0.950 . S
C2923 C2919 1.393 . S
C2923 C2922 1.391 . S
H2924 C2932 0.950 . S
H2925 C2937 0.950 . S
H2926 C2934 0.950 . S
H2927 C2936 0.950 . S
H2928 C2938 0.950 . S
H2929 C2940 0.950 . S
H2930 C2942 0.950 . S
H2931 C2943 0.950 . S
C2932 H2924 0.950 . S
C2932 C2933 1.386 . S
C2932 C2934 1.391 . S
C2933 C2932 1.386 . S
C2933 C2937 1.393 . S
C2934 H2926 0.950 . S
C2934 C2932 1.391 . S
C2934 C2935 1.400 . S
C2935 C2934 1.400 . S
C2935 C2936 1.398 . S
C2935 C2941 1.491 . S
C2936 H2927 0.950 . S
C2936 C2935 1.398 . S
C2936 C2937 1.391 . S
C2937 H2925 0.950 . S
C2937 C2933 1.393 . S
C2937 C2936 1.391 . S
C2938 H2928 0.950 . S
C2938 C2939 1.386 . S
C2938 C2940 1.391 . S
C2939 C2938 1.386 . S
C2939 C2943 1.393 . S
C2940 H2929 0.950 . S
C2940 C2938 1.391 . S
C2940 C2941 1.400 . S
C2941 C2935 1.491 . S
C2941 C2940 1.400 . S
C2941 C2942 1.398 . S
C2942 H2930 0.950 . S
C2942 C2941 1.398 . S
C2942 C2943 1.391 . S
C2943 H2931 0.950 . S
C2943 C2939 1.393 . S
C2943 C2942 1.391 . S
H2944 C2952 0.950 . S
H2945 C2957 0.950 . S
H2946 C2954 0.950 . S
H2947 C2956 0.950 . S
H2948 C2958 0.950 . S
H2949 C2960 0.950 . S
H2950 C2962 0.950 . S
H2951 C2963 0.950 . S
C2952 H2944 0.950 . S
C2952 C2953 1.386 . S
C2952 C2954 1.391 . S
C2953 C2952 1.386 . S
C2953 C2957 1.393 . S
C2954 H2946 0.950 . S
C2954 C2952 1.391 . S
C2954 C2955 1.400 . S
C2955 C2954 1.400 . S
C2955 C2956 1.398 . S
C2955 C2961 1.491 1_565 S
C2956 H2947 0.950 . S
C2956 C2955 1.398 . S
C2956 C2957 1.391 . S
C2957 H2945 0.950 . S
C2957 C2953 1.393 . S
C2957 C2956 1.391 . S
C2958 H2948 0.950 . S
C2958 C2959 1.386 . S
C2958 C2960 1.391 . S
C2959 C2958 1.386 . S
C2959 C2963 1.393 . S
C2960 H2949 0.950 . S
C2960 C2958 1.391 . S
C2960 C2961 1.400 . S
C2961 C2955 1.491 1_545 S
C2961 C2960 1.400 . S
C2961 C2962 1.398 . S
C2962 H2950 0.950 . S
C2962 C2961 1.398 . S
C2962 C2963 1.391 . S
C2963 H2951 0.950 . S
C2963 C2959 1.393 . S
C2963 C2962 1.391 . S
H2964 C2972 0.950 . S
H2965 C2977 0.950 . S
H2966 C2974 0.950 . S
H2967 C2976 0.950 . S
H2968 C2978 0.950 . S
H2969 C2980 0.950 . S
H2970 C2982 0.950 . S
H2971 C2983 0.950 . S
C2972 H2964 0.950 . S
C2972 C2973 1.386 . S
C2972 C2974 1.391 . S
C2973 C2972 1.386 . S
C2973 C2977 1.393 . S
C2974 H2966 0.950 . S
C2974 C2972 1.391 . S
C2974 C2975 1.400 . S
C2975 C2974 1.400 . S
C2975 C2976 1.398 . S
C2975 C2981 1.491 . S
C2976 H2967 0.950 . S
C2976 C2975 1.398 . S
C2976 C2977 1.391 . S
C2977 H2965 0.950 . S
C2977 C2973 1.393 . S
C2977 C2976 1.391 . S
C2978 H2968 0.950 . S
C2978 C2979 1.386 . S
C2978 C2980 1.391 . S
C2979 C2978 1.386 . S
C2979 C2983 1.393 . S
C2980 H2969 0.950 . S
C2980 C2978 1.391 . S
C2980 C2981 1.400 . S
C2981 C2975 1.491 . S
C2981 C2980 1.400 . S
C2981 C2982 1.398 . S
C2982 H2970 0.950 . S
C2982 C2981 1.398 . S
C2982 C2983 1.391 . S
C2983 H2971 0.950 . S
C2983 C2979 1.393 . S
C2983 C2982 1.391 . S
H2984 C2992 0.950 . S
H2985 C2997 0.950 . S
H2986 C2994 0.950 1_556 S
H2987 C2996 0.950 . S
H2988 C2998 0.950 . S
H2989 C3000 0.950 1_554 S
H2990 C3002 0.950 . S
H2991 C3003 0.950 . S
C2992 H2984 0.950 . S
C2992 C2993 1.386 . S
C2992 C2994 1.391 . S
C2993 C2992 1.386 . S
C2993 C2997 1.393 . S
C2994 H2986 0.950 1_554 S
C2994 C2992 1.391 . S
C2994 C2995 1.400 . S
C2995 C2994 1.400 . S
C2995 C2996 1.398 . S
C2995 C3001 1.491 1_554 S
C2996 H2987 0.950 . S
C2996 C2995 1.398 . S
C2996 C2997 1.391 . S
C2997 H2985 0.950 . S
C2997 C2993 1.393 . S
C2997 C2996 1.391 . S
C2998 H2988 0.950 . S
C2998 C2999 1.386 . S
C2998 C3000 1.391 . S
C2999 C2998 1.386 . S
C2999 C3003 1.393 . S
C3000 H2989 0.950 1_556 S
C3000 C2998 1.391 . S
C3000 C3001 1.400 . S
C3001 C2995 1.491 1_556 S
C3001 C3000 1.400 . S
C3001 C3002 1.398 . S
C3002 H2990 0.950 . S
C3002 C3001 1.398 . S
C3002 C3003 1.391 . S
C3003 H2991 0.950 . S
C3003 C2999 1.393 . S
C3003 C3002 1.391 . S
H3004 C3012 0.950 . S
H3005 C3017 0.950 . S
H3006 C3014 0.917 1_545 S
H3007 C3016 0.950 . S
H3008 C3018 0.950 . S
H3009 C3020 0.917 1_565 S
H3010 C3022 0.950 . S
H3011 C3023 0.950 . S
C3012 H3004 0.950 . S
C3012 C3013 1.386 . S
C3012 C3014 1.413 . S
C3013 C3012 1.386 . S
C3013 C3017 1.393 . S
C3014 H3006 0.917 1_565 S
C3014 C3012 1.413 . S
C3014 C3015 1.411 . S
C3015 C3014 1.411 . S
C3015 C3016 1.398 . S
C3015 C3021 1.491 1_565 S
C3016 H3007 0.950 . S
C3016 C3015 1.398 . S
C3016 C3017 1.391 . S
C3017 H3005 0.950 . S
C3017 C3013 1.393 . S
C3017 C3016 1.391 . S
C3018 H3008 0.950 . S
C3018 C3019 1.386 . S
C3018 C3020 1.413 . S
C3019 C3018 1.386 . S
C3019 C3023 1.393 . S
C3020 H3009 0.917 1_545 S
C3020 C3018 1.413 . S
C3020 C3021 1.411 . S
C3021 C3015 1.491 1_545 S
C3021 C3020 1.411 . S
C3021 C3022 1.398 . S
C3022 H3010 0.950 . S
C3022 C3021 1.398 . S
C3022 C3023 1.391 . S
C3023 H3011 0.950 . S
C3023 C3019 1.393 . S
C3023 C3022 1.391 . S
H3024 C3032 0.950 . S
H3025 C3037 0.950 . S
H3026 C3034 0.950 . S
H3027 C3036 0.950 . S
H3028 C3038 0.950 . S
H3029 C3040 0.950 . S
H3030 C3042 0.950 . S
H3031 C3043 0.950 . S
C3032 H3024 0.950 . S
C3032 C3033 1.386 . S
C3032 C3034 1.391 . S
C3033 C3032 1.386 . S
C3033 C3037 1.393 . S
C3034 H3026 0.950 . S
C3034 C3032 1.391 . S
C3034 C3035 1.400 . S
C3035 C3034 1.400 . S
C3035 C3036 1.398 . S
C3035 C3041 1.491 . S
C3036 H3027 0.950 . S
C3036 C3035 1.398 . S
C3036 C3037 1.391 . S
C3037 H3025 0.950 . S
C3037 C3033 1.393 . S
C3037 C3036 1.391 . S
C3038 H3028 0.950 . S
C3038 C3039 1.386 . S
C3038 C3040 1.391 . S
C3039 C3038 1.386 . S
C3039 C3043 1.393 . S
C3040 H3029 0.950 . S
C3040 C3038 1.391 . S
C3040 C3041 1.400 . S
C3041 C3035 1.491 . S
C3041 C3040 1.400 . S
C3041 C3042 1.398 . S
C3042 H3030 0.950 . S
C3042 C3041 1.398 . S
C3042 C3043 1.391 . S
C3043 H3031 0.950 . S
C3043 C3039 1.393 . S
C3043 C3042 1.391 . S
H3044 C3052 0.950 . S
H3045 C3057 0.950 . S
H3046 C3054 0.950 . S
H3047 C3056 0.950 . S
H3048 C3058 0.950 . S
H3049 C3060 0.950 . S
H3050 C3062 0.950 . S
H3051 C3063 0.950 . S
C3052 H3044 0.950 . S
C3052 C3053 1.386 . S
C3052 C3054 1.391 . S
C3053 C3052 1.386 . S
C3053 C3057 1.393 . S
C3054 H3046 0.950 . S
C3054 C3052 1.391 . S
C3054 C3055 1.400 . S
C3055 C3054 1.400 . S
C3055 C3056 1.398 . S
C3055 C3061 1.491 . S
C3056 H3047 0.950 . S
C3056 C3055 1.398 . S
C3056 C3057 1.391 . S
C3057 H3045 0.950 . S
C3057 C3053 1.393 . S
C3057 C3056 1.391 . S
C3058 H3048 0.950 . S
C3058 C3059 1.386 . S
C3058 C3060 1.391 . S
C3059 C3058 1.386 . S
C3059 C3063 1.393 . S
C3060 H3049 0.950 . S
C3060 C3058 1.391 . S
C3060 C3061 1.400 . S
C3061 C3055 1.491 . S
C3061 C3060 1.400 . S
C3061 C3062 1.398 . S
C3062 H3050 0.950 . S
C3062 C3061 1.398 . S
C3062 C3063 1.391 . S
C3063 H3051 0.950 . S
C3063 C3059 1.393 . S
C3063 C3062 1.391 . S
H3064 C3072 0.950 . S
H3065 C3077 0.950 . S
H3066 C3074 0.950 . S
H3067 C3076 0.950 . S
H3068 C3078 0.950 . S
H3069 C3080 0.950 . S
H3070 C3082 0.950 . S
H3071 C3083 0.950 . S
C3072 H3064 0.950 . S
C3072 C3073 1.386 . S
C3072 C3074 1.391 . S
C3073 C3072 1.386 . S
C3073 C3077 1.393 . S
C3074 H3066 0.950 . S
C3074 C3072 1.391 . S
C3074 C3075 1.400 . S
C3075 C3074 1.400 . S
C3075 C3076 1.398 . S
C3075 C3081 1.491 . S
C3076 H3067 0.950 . S
C3076 C3075 1.398 . S
C3076 C3077 1.391 . S
C3077 H3065 0.950 . S
C3077 C3073 1.393 . S
C3077 C3076 1.391 . S
C3078 H3068 0.950 . S
C3078 C3079 1.386 . S
C3078 C3080 1.391 . S
C3079 C3078 1.386 . S
C3079 C3083 1.393 . S
C3080 H3069 0.950 . S
C3080 C3078 1.391 . S
C3080 C3081 1.400 . S
C3081 C3075 1.491 . S
C3081 C3080 1.400 . S
C3081 C3082 1.398 . S
C3082 H3070 0.950 . S
C3082 C3081 1.398 . S
C3082 C3083 1.391 . S
C3083 H3071 0.950 . S
C3083 C3079 1.393 . S
C3083 C3082 1.391 . S
H3084 C3092 0.950 . S
H3085 C3097 0.950 . S
H3086 C3094 0.950 . S
H3087 C3096 0.950 . S
H3088 C3098 0.950 . S
H3089 C3100 0.950 . S
H3090 C3102 0.950 . S
H3091 C3103 0.950 . S
C3092 H3084 0.950 . S
C3092 C3093 1.386 . S
C3092 C3094 1.391 . S
C3093 C3092 1.386 . S
C3093 C3097 1.393 . S
C3094 H3086 0.950 . S
C3094 C3092 1.391 . S
C3094 C3095 1.400 . S
C3095 C3094 1.400 . S
C3095 C3096 1.398 . S
C3095 C3101 1.491 . S
C3096 H3087 0.950 . S
C3096 C3095 1.398 . S
C3096 C3097 1.391 . S
C3097 H3085 0.950 . S
C3097 C3093 1.393 . S
C3097 C3096 1.391 . S
C3098 H3088 0.950 . S
C3098 C3099 1.386 . S
C3098 C3100 1.391 . S
C3099 C3098 1.386 . S
C3099 C3103 1.393 . S
C3100 H3089 0.950 . S
C3100 C3098 1.391 . S
C3100 C3101 1.400 . S
C3101 C3095 1.491 . S
C3101 C3100 1.400 . S
C3101 C3102 1.398 . S
C3102 H3090 0.950 . S
C3102 C3101 1.398 . S
C3102 C3103 1.391 . S
C3103 H3091 0.950 . S
C3103 C3099 1.393 . S
C3103 C3102 1.391 . S
H3104 C3112 0.950 . S
H3105 C3117 0.950 . S
H3106 C3114 0.950 . S
H3107 C3116 0.950 . S
H3108 C3118 0.950 . S
H3109 C3120 0.950 . S
H3110 C3122 0.950 . S
H3111 C3123 0.950 . S
C3112 H3104 0.950 . S
C3112 C3113 1.386 . S
C3112 C3114 1.391 . S
C3113 C3112 1.386 . S
C3113 C3117 1.393 . S
C3114 H3106 0.950 . S
C3114 C3112 1.391 . S
C3114 C3115 1.400 . S
C3115 C3114 1.400 . S
C3115 C3116 1.398 . S
C3115 C3121 1.491 . S
C3116 H3107 0.950 . S
C3116 C3115 1.398 . S
C3116 C3117 1.391 . S
C3117 H3105 0.950 . S
C3117 C3113 1.393 . S
C3117 C3116 1.391 . S
C3118 H3108 0.950 . S
C3118 C3119 1.386 . S
C3118 C3120 1.391 . S
C3119 C3118 1.386 . S
C3119 C3123 1.393 . S
C3120 H3109 0.950 . S
C3120 C3118 1.391 . S
C3120 C3121 1.400 . S
C3121 C3115 1.491 . S
C3121 C3120 1.400 . S
C3121 C3122 1.398 . S
C3122 H3110 0.950 . S
C3122 C3121 1.398 . S
C3122 C3123 1.391 . S
C3123 H3111 0.950 . S
C3123 C3119 1.393 . S
C3123 C3122 1.391 . S
H3124 C3132 0.950 . S
H3125 C3137 0.950 . S
H3126 C3134 0.950 . S
H3127 C3136 0.950 . S
H3128 C3138 0.950 . S
H3129 C3140 0.950 . S
H3130 C3142 0.950 . S
H3131 C3143 0.950 . S
C3132 H3124 0.950 . S
C3132 C3133 1.386 . S
C3132 C3134 1.391 . S
C3133 C3132 1.386 . S
C3133 C3137 1.393 . S
C3134 H3126 0.950 . S
C3134 C3132 1.391 . S
C3134 C3135 1.400 . S
C3135 C3134 1.400 . S
C3135 C3136 1.398 . S
C3135 C3141 1.491 . S
C3136 H3127 0.950 . S
C3136 C3135 1.398 . S
C3136 C3137 1.391 . S
C3137 H3125 0.950 . S
C3137 C3133 1.393 . S
C3137 C3136 1.391 . S
C3138 H3128 0.950 . S
C3138 C3139 1.386 . S
C3138 C3140 1.391 . S
C3139 C3138 1.386 . S
C3139 C3143 1.393 . S
C3140 H3129 0.950 . S
C3140 C3138 1.391 . S
C3140 C3141 1.400 . S
C3141 C3135 1.491 . S
C3141 C3140 1.400 . S
C3141 C3142 1.398 . S
C3142 H3130 0.950 . S
C3142 C3141 1.398 . S
C3142 C3143 1.391 . S
C3143 H3131 0.950 . S
C3143 C3139 1.393 . S
C3143 C3142 1.391 . S
H3144 C3152 0.950 . S
H3145 C3157 0.950 . S
H3146 C3154 0.950 . S
H3147 C3156 0.950 . S
H3148 C3158 0.950 . S
H3149 C3160 0.950 . S
H3150 C3162 0.950 . S
H3151 C3163 0.950 . S
C3152 H3144 0.950 . S
C3152 C3153 1.386 . S
C3152 C3154 1.391 . S
C3153 C3152 1.386 . S
C3153 C3157 1.393 . S
C3154 H3146 0.950 . S
C3154 C3152 1.391 . S
C3154 C3155 1.400 . S
C3155 C3154 1.400 . S
C3155 C3156 1.398 . S
C3155 C3161 1.491 . S
C3156 H3147 0.950 . S
C3156 C3155 1.398 . S
C3156 C3157 1.391 . S
C3157 H3145 0.950 . S
C3157 C3153 1.393 . S
C3157 C3156 1.391 . S
C3158 H3148 0.950 . S
C3158 C3159 1.386 . S
C3158 C3160 1.391 . S
C3159 C3158 1.386 . S
C3159 C3163 1.393 . S
C3160 H3149 0.950 . S
C3160 C3158 1.391 . S
C3160 C3161 1.400 . S
C3161 C3155 1.491 . S
C3161 C3160 1.400 . S
C3161 C3162 1.398 . S
C3162 H3150 0.950 . S
C3162 C3161 1.398 . S
C3162 C3163 1.391 . S
C3163 H3151 0.950 . S
C3163 C3159 1.393 . S
C3163 C3162 1.391 . S
H3164 C3172 0.950 . S
H3165 C3177 0.950 . S
H3166 C3174 0.950 . S
H3167 C3176 0.950 . S
H3168 C3178 0.950 . S
H3169 C3180 0.950 . S
H3170 C3182 0.950 . S
H3171 C3183 0.950 . S
C3172 H3164 0.950 . S
C3172 C3173 1.386 . S
C3172 C3174 1.391 . S
C3173 C3172 1.386 . S
C3173 C3177 1.393 . S
C3174 H3166 0.950 . S
C3174 C3172 1.391 . S
C3174 C3175 1.400 . S
C3175 C3174 1.400 . S
C3175 C3176 1.398 . S
C3175 C3181 1.491 . S
C3176 H3167 0.950 . S
C3176 C3175 1.398 . S
C3176 C3177 1.391 . S
C3177 H3165 0.950 . S
C3177 C3173 1.393 . S
C3177 C3176 1.391 . S
C3178 H3168 0.950 . S
C3178 C3179 1.386 . S
C3178 C3180 1.391 . S
C3179 C3178 1.386 . S
C3179 C3183 1.393 . S
C3180 H3169 0.950 . S
C3180 C3178 1.391 . S
C3180 C3181 1.400 . S
C3181 C3175 1.491 . S
C3181 C3180 1.400 . S
C3181 C3182 1.398 . S
C3182 H3170 0.950 . S
C3182 C3181 1.398 . S
C3182 C3183 1.391 . S
C3183 H3171 0.950 . S
C3183 C3179 1.393 . S
C3183 C3182 1.391 . S
H3184 C3192 0.950 . S
H3185 C3197 0.950 . S
H3186 C3194 0.950 . S
H3187 C3196 0.950 . S
H3188 C3198 0.950 . S
H3189 C3200 0.950 . S
H3190 C3202 0.950 . S
H3191 C3203 0.950 . S
C3192 H3184 0.950 . S
C3192 C3193 1.386 . S
C3192 C3194 1.391 . S
C3193 C3192 1.386 . S
C3193 C3197 1.393 . S
C3194 H3186 0.950 . S
C3194 C3192 1.391 . S
C3194 C3195 1.400 . S
C3195 C3194 1.400 . S
C3195 C3196 1.398 . S
C3195 C3201 1.491 . S
C3196 H3187 0.950 . S
C3196 C3195 1.398 . S
C3196 C3197 1.391 . S
C3197 H3185 0.950 . S
C3197 C3193 1.393 . S
C3197 C3196 1.391 . S
C3198 H3188 0.950 . S
C3198 C3199 1.386 . S
C3198 C3200 1.391 . S
C3199 C3198 1.386 . S
C3199 C3203 1.393 . S
C3200 H3189 0.950 . S
C3200 C3198 1.391 . S
C3200 C3201 1.400 . S
C3201 C3195 1.491 . S
C3201 C3200 1.400 . S
C3201 C3202 1.398 . S
C3202 H3190 0.950 . S
C3202 C3201 1.398 . S
C3202 C3203 1.391 . S
C3203 H3191 0.950 . S
C3203 C3199 1.393 . S
C3203 C3202 1.391 . S
H3204 C3212 0.950 . S
H3205 C3217 0.950 . S
H3206 C3214 0.950 . S
H3207 C3216 0.950 . S
H3208 C3218 0.950 . S
H3209 C3220 0.950 . S
H3210 C3222 0.950 . S
H3211 C3223 0.950 . S
C3212 H3204 0.950 . S
C3212 C3213 1.386 . S
C3212 C3214 1.391 . S
C3213 C3212 1.386 . S
C3213 C3217 1.393 . S
C3214 H3206 0.950 . S
C3214 C3212 1.391 . S
C3214 C3215 1.400 . S
C3215 C3214 1.400 . S
C3215 C3216 1.398 . S
C3215 C3221 1.491 . S
C3216 H3207 0.950 . S
C3216 C3215 1.398 . S
C3216 C3217 1.391 . S
C3217 H3205 0.950 . S
C3217 C3213 1.393 . S
C3217 C3216 1.391 . S
C3218 H3208 0.950 . S
C3218 C3219 1.386 . S
C3218 C3220 1.391 . S
C3219 C3218 1.386 . S
C3219 C3223 1.393 . S
C3220 H3209 0.950 . S
C3220 C3218 1.391 . S
C3220 C3221 1.400 . S
C3221 C3215 1.491 . S
C3221 C3220 1.400 . S
C3221 C3222 1.398 . S
C3222 H3210 0.950 . S
C3222 C3221 1.398 . S
C3222 C3223 1.391 . S
C3223 H3211 0.950 . S
C3223 C3219 1.393 . S
C3223 C3222 1.391 . S
H3224 C3232 0.950 . S
H3225 C3237 0.950 . S
H3226 C3234 0.950 . S
H3227 C3236 0.950 . S
H3228 C3238 0.950 . S
H3229 C3240 0.950 . S
H3230 C3242 0.950 . S
H3231 C3243 0.950 . S
C3232 H3224 0.950 . S
C3232 C3233 1.386 . S
C3232 C3234 1.391 . S
C3233 C3232 1.386 . S
C3233 C3237 1.393 . S
C3234 H3226 0.950 . S
C3234 C3232 1.391 . S
C3234 C3235 1.400 . S
C3235 C3234 1.400 . S
C3235 C3236 1.398 . S
C3235 C3241 1.491 . S
C3236 H3227 0.950 . S
C3236 C3235 1.398 . S
C3236 C3237 1.391 . S
C3237 H3225 0.950 . S
C3237 C3233 1.393 . S
C3237 C3236 1.391 . S
C3238 H3228 0.950 . S
C3238 C3239 1.386 . S
C3238 C3240 1.391 . S
C3239 C3238 1.386 . S
C3239 C3243 1.393 . S
C3240 H3229 0.950 . S
C3240 C3238 1.391 . S
C3240 C3241 1.400 . S
C3241 C3235 1.491 . S
C3241 C3240 1.400 . S
C3241 C3242 1.398 . S
C3242 H3230 0.950 . S
C3242 C3241 1.398 . S
C3242 C3243 1.391 . S
C3243 H3231 0.950 . S
C3243 C3239 1.393 . S
C3243 C3242 1.391 . S
H3244 C3252 0.950 . S
H3245 C3257 0.950 . S
H3246 C3254 0.950 . S
H3247 C3256 0.950 . S
H3248 C3258 0.950 . S
H3249 C3260 0.950 . S
H3250 C3262 0.950 . S
H3251 C3263 0.950 . S
C3252 H3244 0.950 . S
C3252 C3253 1.386 . S
C3252 C3254 1.391 . S
C3253 C3252 1.386 . S
C3253 C3257 1.393 . S
C3254 H3246 0.950 . S
C3254 C3252 1.391 . S
C3254 C3255 1.400 . S
C3255 C3254 1.400 . S
C3255 C3256 1.398 . S
C3255 C3261 1.491 . S
C3256 H3247 0.950 . S
C3256 C3255 1.398 . S
C3256 C3257 1.391 . S
C3257 H3245 0.950 . S
C3257 C3253 1.393 . S
C3257 C3256 1.391 . S
C3258 H3248 0.950 . S
C3258 C3259 1.386 . S
C3258 C3260 1.391 . S
C3259 C3258 1.386 . S
C3259 C3263 1.393 . S
C3260 H3249 0.950 . S
C3260 C3258 1.391 . S
C3260 C3261 1.400 . S
C3261 C3255 1.491 . S
C3261 C3260 1.400 . S
C3261 C3262 1.398 . S
C3262 H3250 0.950 . S
C3262 C3261 1.398 . S
C3262 C3263 1.391 . S
C3263 H3251 0.950 . S
C3263 C3259 1.393 . S
C3263 C3262 1.391 . S
H3264 C3272 0.950 . S
H3265 C3277 0.950 . S
H3266 C3274 0.950 . S
H3267 C3276 0.950 . S
H3268 C3278 0.950 . S
H3269 C3280 0.950 . S
H3270 C3282 0.950 . S
H3271 C3283 0.950 . S
C3272 H3264 0.950 . S
C3272 C3273 1.386 . S
C3272 C3274 1.391 . S
C3273 C3272 1.386 . S
C3273 C3277 1.393 . S
C3274 H3266 0.950 . S
C3274 C3272 1.391 . S
C3274 C3275 1.400 . S
C3275 C3274 1.400 . S
C3275 C3276 1.398 . S
C3275 C3281 1.491 . S
C3276 H3267 0.950 . S
C3276 C3275 1.398 . S
C3276 C3277 1.391 . S
C3277 H3265 0.950 . S
C3277 C3273 1.393 . S
C3277 C3276 1.391 . S
C3278 H3268 0.950 . S
C3278 C3279 1.386 . S
C3278 C3280 1.391 . S
C3279 C3278 1.386 . S
C3279 C3283 1.393 . S
C3280 H3269 0.950 . S
C3280 C3278 1.391 . S
C3280 C3281 1.400 . S
C3281 C3275 1.491 . S
C3281 C3280 1.400 . S
C3281 C3282 1.398 . S
C3282 H3270 0.950 . S
C3282 C3281 1.398 . S
C3282 C3283 1.391 . S
C3283 H3271 0.950 . S
C3283 C3279 1.393 . S
C3283 C3282 1.391 . S
H3284 C3292 0.950 . S
H3285 C3297 0.950 . S
H3286 C3294 0.950 . S
H3287 C3296 0.950 . S
H3288 C3298 0.950 . S
H3289 C3300 0.950 . S
H3290 C3302 0.950 . S
H3291 C3303 0.950 . S
C3292 H3284 0.950 . S
C3292 C3293 1.386 . S
C3292 C3294 1.391 . S
C3293 C3292 1.386 . S
C3293 C3297 1.393 . S
C3294 H3286 0.950 . S
C3294 C3292 1.391 . S
C3294 C3295 1.400 . S
C3295 C3294 1.400 . S
C3295 C3296 1.398 . S
C3295 C3301 1.491 . S
C3296 H3287 0.950 . S
C3296 C3295 1.398 . S
C3296 C3297 1.391 . S
C3297 H3285 0.950 . S
C3297 C3293 1.393 . S
C3297 C3296 1.391 . S
C3298 H3288 0.950 . S
C3298 C3299 1.386 . S
C3298 C3300 1.391 . S
C3299 C3298 1.386 . S
C3299 C3303 1.393 . S
C3300 H3289 0.950 . S
C3300 C3298 1.391 . S
C3300 C3301 1.400 . S
C3301 C3295 1.491 . S
C3301 C3300 1.400 . S
C3301 C3302 1.398 . S
C3302 H3290 0.950 . S
C3302 C3301 1.398 . S
C3302 C3303 1.391 . S
C3303 H3291 0.950 . S
C3303 C3299 1.393 . S
C3303 C3302 1.391 . S
H3304 C3312 0.950 . S
H3305 C3317 0.950 . S
H3306 C3314 0.950 . S
H3307 C3316 0.950 . S
H3308 C3318 0.950 . S
H3309 C3320 0.950 . S
H3310 C3322 0.950 . S
H3311 C3323 0.950 . S
C3312 H3304 0.950 . S
C3312 C3313 1.386 . S
C3312 C3314 1.391 . S
C3313 C3312 1.386 . S
C3313 C3317 1.393 . S
C3314 H3306 0.950 . S
C3314 C3312 1.391 . S
C3314 C3315 1.400 . S
C3315 C3314 1.400 . S
C3315 C3316 1.398 . S
C3315 C3321 1.491 . S
C3316 H3307 0.950 . S
C3316 C3315 1.398 . S
C3316 C3317 1.391 . S
C3317 H3305 0.950 . S
C3317 C3313 1.393 . S
C3317 C3316 1.391 . S
C3318 H3308 0.950 . S
C3318 C3319 1.386 . S
C3318 C3320 1.391 . S
C3319 C3318 1.386 . S
C3319 C3323 1.393 . S
C3320 H3309 0.950 . S
C3320 C3318 1.391 . S
C3320 C3321 1.400 . S
C3321 C3315 1.491 . S
C3321 C3320 1.400 . S
C3321 C3322 1.398 . S
C3322 H3310 0.950 . S
C3322 C3321 1.398 . S
C3322 C3323 1.391 . S
C3323 H3311 0.950 . S
C3323 C3319 1.393 . S
C3323 C3322 1.391 . S
H3324 C3332 0.950 . S
H3325 C3337 0.950 . S
H3326 C3334 0.950 . S
H3327 C3336 0.950 . S
H3328 C3338 0.950 . S
H3329 C3340 0.950 . S
H3330 C3342 0.950 . S
H3331 C3343 0.950 . S
C3332 H3324 0.950 . S
C3332 C3333 1.386 . S
C3332 C3334 1.391 . S
C3333 C3332 1.386 . S
C3333 C3337 1.393 . S
C3334 H3326 0.950 . S
C3334 C3332 1.391 . S
C3334 C3335 1.400 . S
C3335 C3334 1.400 . S
C3335 C3336 1.398 . S
C3335 C3341 1.491 . S
C3336 H3327 0.950 . S
C3336 C3335 1.398 . S
C3336 C3337 1.391 . S
C3337 H3325 0.950 . S
C3337 C3333 1.393 . S
C3337 C3336 1.391 . S
C3338 H3328 0.950 . S
C3338 C3339 1.386 . S
C3338 C3340 1.391 . S
C3339 C3338 1.386 . S
C3339 C3343 1.393 . S
C3340 H3329 0.950 . S
C3340 C3338 1.391 . S
C3340 C3341 1.400 . S
C3341 C3335 1.491 . S
C3341 C3340 1.400 . S
C3341 C3342 1.398 . S
C3342 H3330 0.950 . S
C3342 C3341 1.398 . S
C3342 C3343 1.391 . S
C3343 H3331 0.950 . S
C3343 C3339 1.393 . S
C3343 C3342 1.391 . S
H3344 C3352 0.950 . S
H3345 C3357 0.950 . S
H3346 C3354 0.950 . S
H3347 C3356 0.950 . S
H3348 C3358 0.950 . S
H3349 C3360 0.950 . S
H3350 C3362 0.950 . S
H3351 C3363 0.950 . S
C3352 H3344 0.950 . S
C3352 C3353 1.386 . S
C3352 C3354 1.391 . S
C3353 C3352 1.386 . S
C3353 C3357 1.393 . S
C3354 H3346 0.950 . S
C3354 C3352 1.391 . S
C3354 C3355 1.400 . S
C3355 C3354 1.400 . S
C3355 C3356 1.398 . S
C3355 C3361 1.491 . S
C3356 H3347 0.950 . S
C3356 C3355 1.398 . S
C3356 C3357 1.391 . S
C3357 H3345 0.950 . S
C3357 C3353 1.393 . S
C3357 C3356 1.391 . S
C3358 H3348 0.950 . S
C3358 C3359 1.386 . S
C3358 C3360 1.391 . S
C3359 C3358 1.386 . S
C3359 C3363 1.393 . S
C3360 H3349 0.950 . S
C3360 C3358 1.391 . S
C3360 C3361 1.400 . S
C3361 C3355 1.491 . S
C3361 C3360 1.400 . S
C3361 C3362 1.398 . S
C3362 H3350 0.950 . S
C3362 C3361 1.398 . S
C3362 C3363 1.391 . S
C3363 H3351 0.950 . S
C3363 C3359 1.393 . S
C3363 C3362 1.391 . S
H3364 C3372 0.950 . S
H3365 C3377 0.950 . S
H3366 C3374 0.950 . S
H3367 C3376 0.950 . S
H3368 C3378 0.950 . S
H3369 C3380 0.950 . S
H3370 C3382 0.950 . S
H3371 C3383 0.950 . S
C3372 H3364 0.950 . S
C3372 C3373 1.386 . S
C3372 C3374 1.391 . S
C3373 C3372 1.386 . S
C3373 C3377 1.393 . S
C3374 H3366 0.950 . S
C3374 C3372 1.391 . S
C3374 C3375 1.400 . S
C3375 C3374 1.400 . S
C3375 C3376 1.398 . S
C3375 C3381 1.491 . S
C3376 H3367 0.950 . S
C3376 C3375 1.398 . S
C3376 C3377 1.391 . S
C3377 H3365 0.950 . S
C3377 C3373 1.393 . S
C3377 C3376 1.391 . S
C3378 H3368 0.950 . S
C3378 C3379 1.386 . S
C3378 C3380 1.391 . S
C3379 C3378 1.386 . S
C3379 C3383 1.393 . S
C3380 H3369 0.950 . S
C3380 C3378 1.391 . S
C3380 C3381 1.400 . S
C3381 C3375 1.491 . S
C3381 C3380 1.400 . S
C3381 C3382 1.398 . S
C3382 H3370 0.950 . S
C3382 C3381 1.398 . S
C3382 C3383 1.391 . S
C3383 H3371 0.950 . S
C3383 C3379 1.393 . S
C3383 C3382 1.391 . S
H3384 C3392 0.950 . S
H3385 C3397 0.950 . S
H3386 C3394 0.950 . S
H3387 C3396 0.950 . S
H3388 C3398 0.950 . S
H3389 C3400 0.950 . S
H3390 C3402 0.950 . S
H3391 C3403 0.950 . S
C3392 H3384 0.950 . S
C3392 C3393 1.386 . S
C3392 C3394 1.391 . S
C3393 C3392 1.386 . S
C3393 C3397 1.393 . S
C3394 H3386 0.950 . S
C3394 C3392 1.391 . S
C3394 C3395 1.400 . S
C3395 C3394 1.400 . S
C3395 C3396 1.398 . S
C3395 C3401 1.491 . S
C3396 H3387 0.950 . S
C3396 C3395 1.398 . S
C3396 C3397 1.391 . S
C3397 H3385 0.950 . S
C3397 C3393 1.393 . S
C3397 C3396 1.391 . S
C3398 H3388 0.950 . S
C3398 C3399 1.386 . S
C3398 C3400 1.391 . S
C3399 C3398 1.386 . S
C3399 C3403 1.393 . S
C3400 H3389 0.950 . S
C3400 C3398 1.391 . S
C3400 C3401 1.400 . S
C3401 C3395 1.491 . S
C3401 C3400 1.400 . S
C3401 C3402 1.398 . S
C3402 H3390 0.950 . S
C3402 C3401 1.398 . S
C3402 C3403 1.391 . S
C3403 H3391 0.950 . S
C3403 C3399 1.393 . S
C3403 C3402 1.391 . S
H3404 C3412 0.950 . S
H3405 C3417 0.950 . S
H3406 C3414 0.950 . S
H3407 C3416 0.950 . S
H3408 C3418 0.950 . S
H3409 C3420 0.950 . S
H3410 C3422 0.950 . S
H3411 C3423 0.950 . S
C3412 H3404 0.950 . S
C3412 C3413 1.386 . S
C3412 C3414 1.391 . S
C3413 C3412 1.386 . S
C3413 C3417 1.393 . S
C3414 H3406 0.950 . S
C3414 C3412 1.391 . S
C3414 C3415 1.400 . S
C3415 C3414 1.400 . S
C3415 C3416 1.398 . S
C3415 C3421 1.491 . S
C3416 H3407 0.950 . S
C3416 C3415 1.398 . S
C3416 C3417 1.391 . S
C3417 H3405 0.950 . S
C3417 C3413 1.393 . S
C3417 C3416 1.391 . S
C3418 H3408 0.950 . S
C3418 C3419 1.386 . S
C3418 C3420 1.391 . S
C3419 C3418 1.386 . S
C3419 C3423 1.393 . S
C3420 H3409 0.950 . S
C3420 C3418 1.391 . S
C3420 C3421 1.400 . S
C3421 C3415 1.491 . S
C3421 C3420 1.400 . S
C3421 C3422 1.398 . S
C3422 H3410 0.950 . S
C3422 C3421 1.398 . S
C3422 C3423 1.391 . S
C3423 H3411 0.950 . S
C3423 C3419 1.393 . S
C3423 C3422 1.391 . S
H3424 C3432 0.950 . S
H3425 C3437 0.950 . S
H3426 C3434 0.950 . S
H3427 C3436 0.950 . S
H3428 C3438 0.950 . S
H3429 C3440 0.950 . S
H3430 C3442 0.950 . S
H3431 C3443 0.950 . S
C3432 H3424 0.950 . S
C3432 C3433 1.386 . S
C3432 C3434 1.391 . S
C3433 C3432 1.386 . S
C3433 C3437 1.393 . S
C3434 H3426 0.950 . S
C3434 C3432 1.391 . S
C3434 C3435 1.400 . S
C3435 C3434 1.400 . S
C3435 C3436 1.398 . S
C3435 C3441 1.491 . S
C3436 H3427 0.950 . S
C3436 C3435 1.398 . S
C3436 C3437 1.391 . S
C3437 H3425 0.950 . S
C3437 C3433 1.393 . S
C3437 C3436 1.391 . S
C3438 H3428 0.950 . S
C3438 C3439 1.386 . S
C3438 C3440 1.391 . S
C3439 C3438 1.386 . S
C3439 C3443 1.393 . S
C3440 H3429 0.950 . S
C3440 C3438 1.391 . S
C3440 C3441 1.400 . S
C3441 C3435 1.491 . S
C3441 C3440 1.400 . S
C3441 C3442 1.398 . S
C3442 H3430 0.950 . S
C3442 C3441 1.398 . S
C3442 C3443 1.391 . S
C3443 H3431 0.950 . S
C3443 C3439 1.393 . S
C3443 C3442 1.391 . S
H3444 C3452 0.950 . S
H3445 C3457 0.950 . S
H3446 C3454 0.950 . S
H3447 C3456 0.950 . S
H3448 C3458 0.950 . S
H3449 C3460 0.950 . S
H3450 C3462 0.950 . S
H3451 C3463 0.950 . S
C3452 H3444 0.950 . S
C3452 C3453 1.386 . S
C3452 C3454 1.391 . S
C3453 C3452 1.386 . S
C3453 C3457 1.393 . S
C3454 H3446 0.950 . S
C3454 C3452 1.391 . S
C3454 C3455 1.400 . S
C3455 C3454 1.400 . S
C3455 C3456 1.398 . S
C3455 C3461 1.491 . S
C3456 H3447 0.950 . S
C3456 C3455 1.398 . S
C3456 C3457 1.391 . S
C3457 H3445 0.950 . S
C3457 C3453 1.393 . S
C3457 C3456 1.391 . S
C3458 H3448 0.950 . S
C3458 C3459 1.386 . S
C3458 C3460 1.391 . S
C3459 C3458 1.386 . S
C3459 C3463 1.393 . S
C3460 H3449 0.950 . S
C3460 C3458 1.391 . S
C3460 C3461 1.400 . S
C3461 C3455 1.491 . S
C3461 C3460 1.400 . S
C3461 C3462 1.398 . S
C3462 H3450 0.950 . S
C3462 C3461 1.398 . S
C3462 C3463 1.391 . S
C3463 H3451 0.950 . S
C3463 C3459 1.393 . S
C3463 C3462 1.391 . S
H3464 C3472 0.950 . S
H3465 C3477 0.950 . S
H3466 C3474 0.950 . S
H3467 C3476 0.950 . S
H3468 C3478 0.950 . S
H3469 C3480 0.950 . S
H3470 C3482 0.950 . S
H3471 C3483 0.950 . S
C3472 H3464 0.950 . S
C3472 C3473 1.386 . S
C3472 C3474 1.391 . S
C3473 C3472 1.386 . S
C3473 C3477 1.393 . S
C3474 H3466 0.950 . S
C3474 C3472 1.391 . S
C3474 C3475 1.400 . S
C3475 C3474 1.400 . S
C3475 C3476 1.398 . S
C3475 C3481 1.491 . S
C3476 H3467 0.950 . S
C3476 C3475 1.398 . S
C3476 C3477 1.391 . S
C3477 H3465 0.950 . S
C3477 C3473 1.393 . S
C3477 C3476 1.391 . S
C3478 H3468 0.950 . S
C3478 C3479 1.386 . S
C3478 C3480 1.391 . S
C3479 C3478 1.386 . S
C3479 C3483 1.393 . S
C3480 H3469 0.950 . S
C3480 C3478 1.391 . S
C3480 C3481 1.400 . S
C3481 C3475 1.491 . S
C3481 C3480 1.400 . S
C3481 C3482 1.398 . S
C3482 H3470 0.950 . S
C3482 C3481 1.398 . S
C3482 C3483 1.391 . S
C3483 H3471 0.950 . S
C3483 C3479 1.393 . S
C3483 C3482 1.391 . S
H3484 C3492 0.950 . S
H3485 C3497 0.950 . S
H3486 C3494 0.950 . S
H3487 C3496 0.950 . S
H3488 C3498 0.950 . S
H3489 C3500 0.950 . S
H3490 C3502 0.950 . S
H3491 C3503 0.950 . S
C3492 H3484 0.950 . S
C3492 C3493 1.386 . S
C3492 C3494 1.391 . S
C3493 C3492 1.386 . S
C3493 C3497 1.393 . S
C3494 H3486 0.950 . S
C3494 C3492 1.391 . S
C3494 C3495 1.400 . S
C3495 C3494 1.400 . S
C3495 C3496 1.398 . S
C3495 C3501 1.491 . S
C3496 H3487 0.950 . S
C3496 C3495 1.398 . S
C3496 C3497 1.391 . S
C3497 H3485 0.950 . S
C3497 C3493 1.393 . S
C3497 C3496 1.391 . S
C3498 H3488 0.950 . S
C3498 C3499 1.386 . S
C3498 C3500 1.391 . S
C3499 C3498 1.386 . S
C3499 C3503 1.393 . S
C3500 H3489 0.950 . S
C3500 C3498 1.391 . S
C3500 C3501 1.400 . S
C3501 C3495 1.491 . S
C3501 C3500 1.400 . S
C3501 C3502 1.398 . S
C3502 H3490 0.950 . S
C3502 C3501 1.398 . S
C3502 C3503 1.391 . S
C3503 H3491 0.950 . S
C3503 C3499 1.393 . S
C3503 C3502 1.391 . S
H3504 C3512 0.950 . S
H3505 C3517 0.950 . S
H3506 C3514 0.950 . S
H3507 C3516 0.950 . S
H3508 C3518 0.950 . S
H3509 C3520 0.950 . S
H3510 C3522 0.950 . S
H3511 C3523 0.950 . S
C3512 H3504 0.950 . S
C3512 C3513 1.386 . S
C3512 C3514 1.391 . S
C3513 C3512 1.386 . S
C3513 C3517 1.393 . S
C3514 H3506 0.950 . S
C3514 C3512 1.391 . S
C3514 C3515 1.400 . S
C3515 C3514 1.400 . S
C3515 C3516 1.398 . S
C3515 C3521 1.491 . S
C3516 H3507 0.950 . S
C3516 C3515 1.398 . S
C3516 C3517 1.391 . S
C3517 H3505 0.950 . S
C3517 C3513 1.393 . S
C3517 C3516 1.391 . S
C3518 H3508 0.950 . S
C3518 C3519 1.386 . S
C3518 C3520 1.391 . S
C3519 C3518 1.386 . S
C3519 C3523 1.393 . S
C3520 H3509 0.950 . S
C3520 C3518 1.391 . S
C3520 C3521 1.400 . S
C3521 C3515 1.491 . S
C3521 C3520 1.400 . S
C3521 C3522 1.398 . S
C3522 H3510 0.950 . S
C3522 C3521 1.398 . S
C3522 C3523 1.391 . S
C3523 H3511 0.950 . S
C3523 C3519 1.393 . S
C3523 C3522 1.391 . S
H3524 C3532 0.950 . S
H3525 C3537 0.950 . S
H3526 C3534 0.950 . S
H3527 C3536 0.950 . S
H3528 C3538 0.950 . S
H3529 C3540 0.950 . S
H3530 C3542 0.950 . S
H3531 C3543 0.950 . S
C3532 H3524 0.950 . S
C3532 C3533 1.386 . S
C3532 C3534 1.391 . S
C3533 C3532 1.386 . S
C3533 C3537 1.393 . S
C3534 H3526 0.950 . S
C3534 C3532 1.391 . S
C3534 C3535 1.400 . S
C3535 C3534 1.400 . S
C3535 C3536 1.398 . S
C3535 C3541 1.491 . S
C3536 H3527 0.950 . S
C3536 C3535 1.398 . S
C3536 C3537 1.391 . S
C3537 H3525 0.950 . S
C3537 C3533 1.393 . S
C3537 C3536 1.391 . S
C3538 H3528 0.950 . S
C3538 C3539 1.386 . S
C3538 C3540 1.391 . S
C3539 C3538 1.386 . S
C3539 C3543 1.393 . S
C3540 H3529 0.950 . S
C3540 C3538 1.391 . S
C3540 C3541 1.400 . S
C3541 C3535 1.491 . S
C3541 C3540 1.400 . S
C3541 C3542 1.398 . S
C3542 H3530 0.950 . S
C3542 C3541 1.398 . S
C3542 C3543 1.391 . S
C3543 H3531 0.950 . S
C3543 C3539 1.393 . S
C3543 C3542 1.391 . S
H3544 C3552 0.950 . S
H3545 C3557 0.950 . S
H3546 C3554 0.950 . S
H3547 C3556 0.950 . S
H3548 C3558 0.950 . S
H3549 C3560 0.950 . S
H3550 C3562 0.950 . S
H3551 C3563 0.950 . S
C3552 H3544 0.950 . S
C3552 C3553 1.386 . S
C3552 C3554 1.391 . S
C3553 C3552 1.386 . S
C3553 C3557 1.393 . S
C3554 H3546 0.950 . S
C3554 C3552 1.391 . S
C3554 C3555 1.400 . S
C3555 C3554 1.400 . S
C3555 C3556 1.398 . S
C3555 C3561 1.491 . S
C3556 H3547 0.950 . S
C3556 C3555 1.398 . S
C3556 C3557 1.391 . S
C3557 H3545 0.950 . S
C3557 C3553 1.393 . S
C3557 C3556 1.391 . S
C3558 H3548 0.950 . S
C3558 C3559 1.386 . S
C3558 C3560 1.391 . S
C3559 C3558 1.386 . S
C3559 C3563 1.393 . S
C3560 H3549 0.950 . S
C3560 C3558 1.391 . S
C3560 C3561 1.400 . S
C3561 C3555 1.491 . S
C3561 C3560 1.400 . S
C3561 C3562 1.398 . S
C3562 H3550 0.950 . S
C3562 C3561 1.398 . S
C3562 C3563 1.391 . S
C3563 H3551 0.950 . S
C3563 C3559 1.393 . S
C3563 C3562 1.391 . S
H3564 C3572 0.950 . S
H3565 C3577 0.950 . S
H3566 C3574 0.950 . S
H3567 C3576 0.950 . S
H3568 C3578 0.950 . S
H3569 C3580 0.950 . S
H3570 C3582 0.950 . S
H3571 C3583 0.950 . S
C3572 H3564 0.950 . S
C3572 C3573 1.386 . S
C3572 C3574 1.391 . S
C3573 C3572 1.386 . S
C3573 C3577 1.393 . S
C3574 H3566 0.950 . S
C3574 C3572 1.391 . S
C3574 C3575 1.400 . S
C3575 C3574 1.400 . S
C3575 C3576 1.398 . S
C3575 C3581 1.491 . S
C3576 H3567 0.950 . S
C3576 C3575 1.398 . S
C3576 C3577 1.391 . S
C3577 H3565 0.950 . S
C3577 C3573 1.393 . S
C3577 C3576 1.391 . S
C3578 H3568 0.950 . S
C3578 C3579 1.386 . S
C3578 C3580 1.391 . S
C3579 C3578 1.386 . S
C3579 C3583 1.393 . S
C3580 H3569 0.950 . S
C3580 C3578 1.391 . S
C3580 C3581 1.400 . S
C3581 C3575 1.491 . S
C3581 C3580 1.400 . S
C3581 C3582 1.398 . S
C3582 H3570 0.950 . S
C3582 C3581 1.398 . S
C3582 C3583 1.391 . S
C3583 H3571 0.950 . S
C3583 C3579 1.393 . S
C3583 C3582 1.391 . S
H3584 C3592 0.950 . S
H3585 C3597 0.950 . S
H3586 C3594 0.950 . S
H3587 C3596 0.950 . S
H3588 C3598 0.950 . S
H3589 C3600 0.950 . S
H3590 C3602 0.950 . S
H3591 C3603 0.950 . S
C3592 H3584 0.950 . S
C3592 C3593 1.386 . S
C3592 C3594 1.391 . S
C3593 C3592 1.386 . S
C3593 C3597 1.393 . S
C3594 H3586 0.950 . S
C3594 C3592 1.391 . S
C3594 C3595 1.400 . S
C3595 C3594 1.400 . S
C3595 C3596 1.398 . S
C3595 C3601 1.491 . S
C3596 H3587 0.950 . S
C3596 C3595 1.398 . S
C3596 C3597 1.391 . S
C3597 H3585 0.950 . S
C3597 C3593 1.393 . S
C3597 C3596 1.391 . S
C3598 H3588 0.950 . S
C3598 C3599 1.386 . S
C3598 C3600 1.391 . S
C3599 C3598 1.386 . S
C3599 C3603 1.393 . S
C3600 H3589 0.950 . S
C3600 C3598 1.391 . S
C3600 C3601 1.400 . S
C3601 C3595 1.491 . S
C3601 C3600 1.400 . S
C3601 C3602 1.398 . S
C3602 H3590 0.950 . S
C3602 C3601 1.398 . S
C3602 C3603 1.391 . S
C3603 H3591 0.950 . S
C3603 C3599 1.393 . S
C3603 C3602 1.391 . S
H3604 C3612 0.950 . S
H3605 C3617 0.950 . S
H3606 C3614 0.950 . S
H3607 C3616 0.950 . S
H3608 C3618 0.950 . S
H3609 C3620 0.950 . S
H3610 C3622 0.950 . S
H3611 C3623 0.950 . S
C3612 H3604 0.950 . S
C3612 C3613 1.386 . S
C3612 C3614 1.391 . S
C3613 C3612 1.386 . S
C3613 C3617 1.393 . S
C3614 H3606 0.950 . S
C3614 C3612 1.391 . S
C3614 C3615 1.400 . S
C3615 C3614 1.400 . S
C3615 C3616 1.398 . S
C3615 C3621 1.491 . S
C3616 H3607 0.950 . S
C3616 C3615 1.398 . S
C3616 C3617 1.391 . S
C3617 H3605 0.950 . S
C3617 C3613 1.393 . S
C3617 C3616 1.391 . S
C3618 H3608 0.950 . S
C3618 C3619 1.386 . S
C3618 C3620 1.391 . S
C3619 C3618 1.386 . S
C3619 C3623 1.393 . S
C3620 H3609 0.950 . S
C3620 C3618 1.391 . S
C3620 C3621 1.400 . S
C3621 C3615 1.491 . S
C3621 C3620 1.400 . S
C3621 C3622 1.398 . S
C3622 H3610 0.950 . S
C3622 C3621 1.398 . S
C3622 C3623 1.391 . S
C3623 H3611 0.950 . S
C3623 C3619 1.393 . S
C3623 C3622 1.391 . S
H3624 C3632 0.950 . S
H3625 C3637 0.950 . S
H3626 C3634 0.950 . S
H3627 C3636 0.950 . S
H3628 C3638 0.950 . S
H3629 C3640 0.950 . S
H3630 C3642 0.950 . S
H3631 C3643 0.950 . S
C3632 H3624 0.950 . S
C3632 C3633 1.386 . S
C3632 C3634 1.391 . S
C3633 C3632 1.386 . S
C3633 C3637 1.393 . S
C3634 H3626 0.950 . S
C3634 C3632 1.391 . S
C3634 C3635 1.400 . S
C3635 C3634 1.400 . S
C3635 C3636 1.398 . S
C3635 C3641 1.491 . S
C3636 H3627 0.950 . S
C3636 C3635 1.398 . S
C3636 C3637 1.391 . S
C3637 H3625 0.950 . S
C3637 C3633 1.393 . S
C3637 C3636 1.391 . S
C3638 H3628 0.950 . S
C3638 C3639 1.386 . S
C3638 C3640 1.391 . S
C3639 C3638 1.386 . S
C3639 C3643 1.393 . S
C3640 H3629 0.950 . S
C3640 C3638 1.391 . S
C3640 C3641 1.400 . S
C3641 C3635 1.491 . S
C3641 C3640 1.400 . S
C3641 C3642 1.398 . S
C3642 H3630 0.950 . S
C3642 C3641 1.398 . S
C3642 C3643 1.391 . S
C3643 H3631 0.950 . S
C3643 C3639 1.393 . S
C3643 C3642 1.391 . S
H3644 C3652 0.950 . S
H3645 C3657 0.950 . S
H3646 C3654 0.950 . S
H3647 C3656 0.950 . S
H3648 C3658 0.950 . S
H3649 C3660 0.950 . S
H3650 C3662 0.950 . S
H3651 C3663 0.950 . S
C3652 H3644 0.950 . S
C3652 C3653 1.386 . S
C3652 C3654 1.391 . S
C3653 C3652 1.386 . S
C3653 C3657 1.393 . S
C3654 H3646 0.950 . S
C3654 C3652 1.391 . S
C3654 C3655 1.400 . S
C3655 C3654 1.400 . S
C3655 C3656 1.398 . S
C3655 C3661 1.491 . S
C3656 H3647 0.950 . S
C3656 C3655 1.398 . S
C3656 C3657 1.391 . S
C3657 H3645 0.950 . S
C3657 C3653 1.393 . S
C3657 C3656 1.391 . S
C3658 H3648 0.950 . S
C3658 C3659 1.386 . S
C3658 C3660 1.391 . S
C3659 C3658 1.386 . S
C3659 C3663 1.393 . S
C3660 H3649 0.950 . S
C3660 C3658 1.391 . S
C3660 C3661 1.400 . S
C3661 C3655 1.491 . S
C3661 C3660 1.400 . S
C3661 C3662 1.398 . S
C3662 H3650 0.950 . S
C3662 C3661 1.398 . S
C3662 C3663 1.391 . S
C3663 H3651 0.950 . S
C3663 C3659 1.393 . S
C3663 C3662 1.391 . S
H3664 C3672 0.950 . S
H3665 C3677 0.950 . S
H3666 C3674 0.950 . S
H3667 C3676 0.950 . S
H3668 C3678 0.950 . S
H3669 C3680 0.950 . S
H3670 C3682 0.950 . S
H3671 C3683 0.950 . S
C3672 H3664 0.950 . S
C3672 C3673 1.386 . S
C3672 C3674 1.391 . S
C3673 C3672 1.386 . S
C3673 C3677 1.393 . S
C3674 H3666 0.950 . S
C3674 C3672 1.391 . S
C3674 C3675 1.400 . S
C3675 C3674 1.400 . S
C3675 C3676 1.398 . S
C3675 C3681 1.491 . S
C3676 H3667 0.950 . S
C3676 C3675 1.398 . S
C3676 C3677 1.391 . S
C3677 H3665 0.950 . S
C3677 C3673 1.393 . S
C3677 C3676 1.391 . S
C3678 H3668 0.950 . S
C3678 C3679 1.386 . S
C3678 C3680 1.391 . S
C3679 C3678 1.386 . S
C3679 C3683 1.393 . S
C3680 H3669 0.950 . S
C3680 C3678 1.391 . S
C3680 C3681 1.400 . S
C3681 C3675 1.491 . S
C3681 C3680 1.400 . S
C3681 C3682 1.398 . S
C3682 H3670 0.950 . S
C3682 C3681 1.398 . S
C3682 C3683 1.391 . S
C3683 H3671 0.950 . S
C3683 C3679 1.393 . S
C3683 C3682 1.391 . S
H3684 C3692 0.950 . S
H3685 C3697 0.950 . S
H3686 C3694 0.950 . S
H3687 C3696 0.950 . S
H3688 C3698 0.950 . S
H3689 C3700 0.950 . S
H3690 C3702 0.950 . S
H3691 C3703 0.950 . S
C3692 H3684 0.950 . S
C3692 C3693 1.386 . S
C3692 C3694 1.391 . S
C3693 C3692 1.386 . S
C3693 C3697 1.393 . S
C3694 H3686 0.950 . S
C3694 C3692 1.391 . S
C3694 C3695 1.400 . S
C3695 C3694 1.400 . S
C3695 C3696 1.398 . S
C3695 C3701 1.491 . S
C3696 H3687 0.950 . S
C3696 C3695 1.398 . S
C3696 C3697 1.391 . S
C3697 H3685 0.950 . S
C3697 C3693 1.393 . S
C3697 C3696 1.391 . S
C3698 H3688 0.950 . S
C3698 C3699 1.386 . S
C3698 C3700 1.391 . S
C3699 C3698 1.386 . S
C3699 C3703 1.393 . S
C3700 H3689 0.950 . S
C3700 C3698 1.391 . S
C3700 C3701 1.400 . S
C3701 C3695 1.491 . S
C3701 C3700 1.400 . S
C3701 C3702 1.398 . S
C3702 H3690 0.950 . S
C3702 C3701 1.398 . S
C3702 C3703 1.391 . S
C3703 H3691 0.950 . S
C3703 C3699 1.393 . S
C3703 C3702 1.391 . S
H3704 C3712 0.950 . S
H3705 C3717 0.950 . S
H3706 C3714 0.950 . S
H3707 C3716 0.950 . S
H3708 C3718 0.950 . S
H3709 C3720 0.950 . S
H3710 C3722 0.950 . S
H3711 C3723 0.950 . S
C3712 H3704 0.950 . S
C3712 C3713 1.386 . S
C3712 C3714 1.391 . S
C3713 C3712 1.386 . S
C3713 C3717 1.393 . S
C3714 H3706 0.950 . S
C3714 C3712 1.391 . S
C3714 C3715 1.400 . S
C3715 C3714 1.400 . S
C3715 C3716 1.398 . S
C3715 C3721 1.491 . S
C3716 H3707 0.950 . S
C3716 C3715 1.398 . S
C3716 C3717 1.391 . S
C3717 H3705 0.950 . S
C3717 C3713 1.393 . S
C3717 C3716 1.391 . S
C3718 H3708 0.950 . S
C3718 C3719 1.386 . S
C3718 C3720 1.391 . S
C3719 C3718 1.386 . S
C3719 C3723 1.393 . S
C3720 H3709 0.950 . S
C3720 C3718 1.391 . S
C3720 C3721 1.400 . S
C3721 C3715 1.491 . S
C3721 C3720 1.400 . S
C3721 C3722 1.398 . S
C3722 H3710 0.950 . S
C3722 C3721 1.398 . S
C3722 C3723 1.391 . S
C3723 H3711 0.950 . S
C3723 C3719 1.393 . S
C3723 C3722 1.391 . S
H3724 C3732 0.950 . S
H3725 C3737 0.950 . S
H3726 C3734 0.950 . S
H3727 C3736 0.950 . S
H3728 C3738 0.950 . S
H3729 C3740 0.950 . S
H3730 C3742 0.950 . S
H3731 C3743 0.950 . S
C3732 H3724 0.950 . S
C3732 C3733 1.386 . S
C3732 C3734 1.391 . S
C3733 C3732 1.386 . S
C3733 C3737 1.393 . S
C3734 H3726 0.950 . S
C3734 C3732 1.391 . S
C3734 C3735 1.400 . S
C3735 C3734 1.400 . S
C3735 C3736 1.398 . S
C3735 C3741 1.491 . S
C3736 H3727 0.950 . S
C3736 C3735 1.398 . S
C3736 C3737 1.391 . S
C3737 H3725 0.950 . S
C3737 C3733 1.393 . S
C3737 C3736 1.391 . S
C3738 H3728 0.950 . S
C3738 C3739 1.386 . S
C3738 C3740 1.391 . S
C3739 C3738 1.386 . S
C3739 C3743 1.393 . S
C3740 H3729 0.950 . S
C3740 C3738 1.391 . S
C3740 C3741 1.400 . S
C3741 C3735 1.491 . S
C3741 C3740 1.400 . S
C3741 C3742 1.398 . S
C3742 H3730 0.950 . S
C3742 C3741 1.398 . S
C3742 C3743 1.391 . S
C3743 H3731 0.950 . S
C3743 C3739 1.393 . S
C3743 C3742 1.391 . S
H3744 C3752 0.950 . S
H3745 C3757 0.950 . S
H3746 C3754 0.950 . S
H3747 C3756 0.950 . S
H3748 C3758 0.950 . S
H3749 C3760 0.950 . S
H3750 C3762 0.950 . S
H3751 C3763 0.950 . S
C3752 H3744 0.950 . S
C3752 C3753 1.386 . S
C3752 C3754 1.391 . S
C3753 C3752 1.386 . S
C3753 C3757 1.393 . S
C3754 H3746 0.950 . S
C3754 C3752 1.391 . S
C3754 C3755 1.400 . S
C3755 C3754 1.400 . S
C3755 C3756 1.398 . S
C3755 C3761 1.491 . S
C3756 H3747 0.950 . S
C3756 C3755 1.398 . S
C3756 C3757 1.391 . S
C3757 H3745 0.950 . S
C3757 C3753 1.393 . S
C3757 C3756 1.391 . S
C3758 H3748 0.950 . S
C3758 C3759 1.386 . S
C3758 C3760 1.391 . S
C3759 C3758 1.386 . S
C3759 C3763 1.393 . S
C3760 H3749 0.950 . S
C3760 C3758 1.391 . S
C3760 C3761 1.400 . S
C3761 C3755 1.491 . S
C3761 C3760 1.400 . S
C3761 C3762 1.398 . S
C3762 H3750 0.950 . S
C3762 C3761 1.398 . S
C3762 C3763 1.391 . S
C3763 H3751 0.950 . S
C3763 C3759 1.393 . S
C3763 C3762 1.391 . S
H3764 C3772 0.950 . S
H3765 C3777 0.950 . S
H3766 C3774 0.950 . S
H3767 C3776 0.950 . S
H3768 C3778 0.950 . S
H3769 C3780 0.950 . S
H3770 C3782 0.950 . S
H3771 C3783 0.950 . S
C3772 H3764 0.950 . S
C3772 C3773 1.386 . S
C3772 C3774 1.391 . S
C3773 C3772 1.386 . S
C3773 C3777 1.393 . S
C3774 H3766 0.950 . S
C3774 C3772 1.391 . S
C3774 C3775 1.400 . S
C3775 C3774 1.400 . S
C3775 C3776 1.398 . S
C3775 C3781 1.491 . S
C3776 H3767 0.950 . S
C3776 C3775 1.398 . S
C3776 C3777 1.391 . S
C3777 H3765 0.950 . S
C3777 C3773 1.393 . S
C3777 C3776 1.391 . S
C3778 H3768 0.950 . S
C3778 C3779 1.386 . S
C3778 C3780 1.391 . S
C3779 C3778 1.386 . S
C3779 C3783 1.393 . S
C3780 H3769 0.950 . S
C3780 C3778 1.391 . S
C3780 C3781 1.400 . S
C3781 C3775 1.491 . S
C3781 C3780 1.400 . S
C3781 C3782 1.398 . S
C3782 H3770 0.950 . S
C3782 C3781 1.398 . S
C3782 C3783 1.391 . S
C3783 H3771 0.950 . S
C3783 C3779 1.393 . S
C3783 C3782 1.391 . S
H3784 C3792 0.950 . S
H3785 C3797 0.950 . S
H3786 C3794 0.950 . S
H3787 C3796 0.950 . S
H3788 C3798 0.950 . S
H3789 C3800 0.950 . S
H3790 C3802 0.950 . S
H3791 C3803 0.950 . S
C3792 H3784 0.950 . S
C3792 C3793 1.386 . S
C3792 C3794 1.391 . S
C3793 C3792 1.386 . S
C3793 C3797 1.393 . S
C3794 H3786 0.950 . S
C3794 C3792 1.391 . S
C3794 C3795 1.400 . S
C3795 C3794 1.400 . S
C3795 C3796 1.398 . S
C3795 C3801 1.491 . S
C3796 H3787 0.950 . S
C3796 C3795 1.398 . S
C3796 C3797 1.391 . S
C3797 H3785 0.950 . S
C3797 C3793 1.393 . S
C3797 C3796 1.391 . S
C3798 H3788 0.950 . S
C3798 C3799 1.386 . S
C3798 C3800 1.391 . S
C3799 C3798 1.386 . S
C3799 C3803 1.393 . S
C3800 H3789 0.950 . S
C3800 C3798 1.391 . S
C3800 C3801 1.400 . S
C3801 C3795 1.491 . S
C3801 C3800 1.400 . S
C3801 C3802 1.398 . S
C3802 H3790 0.950 . S
C3802 C3801 1.398 . S
C3802 C3803 1.391 . S
C3803 H3791 0.950 . S
C3803 C3799 1.393 . S
C3803 C3802 1.391 . S
H3804 C3812 0.950 . S
H3805 C3817 0.950 . S
H3806 C3814 0.950 . S
H3807 C3816 0.950 . S
H3808 C3818 0.950 . S
H3809 C3820 0.950 . S
H3810 C3822 0.950 . S
H3811 C3823 0.950 . S
C3812 H3804 0.950 . S
C3812 C3813 1.386 . S
C3812 C3814 1.391 . S
C3813 C3812 1.386 . S
C3813 C3817 1.393 . S
C3814 H3806 0.950 . S
C3814 C3812 1.391 . S
C3814 C3815 1.400 . S
C3815 C3814 1.400 . S
C3815 C3816 1.398 . S
C3815 C3821 1.491 . S
C3816 H3807 0.950 . S
C3816 C3815 1.398 . S
C3816 C3817 1.391 . S
C3817 H3805 0.950 . S
C3817 C3813 1.393 . S
C3817 C3816 1.391 . S
C3818 H3808 0.950 . S
C3818 C3819 1.386 . S
C3818 C3820 1.391 . S
C3819 C3818 1.386 . S
C3819 C3823 1.393 . S
C3820 H3809 0.950 . S
C3820 C3818 1.391 . S
C3820 C3821 1.400 . S
C3821 C3815 1.491 . S
C3821 C3820 1.400 . S
C3821 C3822 1.398 . S
C3822 H3810 0.950 . S
C3822 C3821 1.398 . S
C3822 C3823 1.391 . S
C3823 H3811 0.950 . S
C3823 C3819 1.393 . S
C3823 C3822 1.391 . S
H3824 C3832 0.950 . S
H3825 C3837 0.950 . S
H3826 C3834 0.950 . S
H3827 C3836 0.950 . S
H3828 C3838 0.950 . S
H3829 C3840 0.950 . S
H3830 C3842 0.950 . S
H3831 C3843 0.950 . S
C3832 H3824 0.950 . S
C3832 C3833 1.386 . S
C3832 C3834 1.391 . S
C3833 C3832 1.386 . S
C3833 C3837 1.393 . S
C3834 H3826 0.950 . S
C3834 C3832 1.391 . S
C3834 C3835 1.400 . S
C3835 C3834 1.400 . S
C3835 C3836 1.398 . S
C3835 C3841 1.491 . S
C3836 H3827 0.950 . S
C3836 C3835 1.398 . S
C3836 C3837 1.391 . S
C3837 H3825 0.950 . S
C3837 C3833 1.393 . S
C3837 C3836 1.391 . S
C3838 H3828 0.950 . S
C3838 C3839 1.386 . S
C3838 C3840 1.391 . S
C3839 C3838 1.386 . S
C3839 C3843 1.393 . S
C3840 H3829 0.950 . S
C3840 C3838 1.391 . S
C3840 C3841 1.400 . S
C3841 C3835 1.491 . S
C3841 C3840 1.400 . S
C3841 C3842 1.398 . S
C3842 H3830 0.950 . S
C3842 C3841 1.398 . S
C3842 C3843 1.391 . S
C3843 H3831 0.950 . S
C3843 C3839 1.393 . S
C3843 C3842 1.391 . S
H3844 C3852 0.950 . S
H3845 C3857 0.950 . S
H3846 C3854 0.950 . S
H3847 C3856 0.950 . S
H3848 C3858 0.950 . S
H3849 C3860 0.950 . S
H3850 C3862 0.950 . S
H3851 C3863 0.950 . S
C3852 H3844 0.950 . S
C3852 C3853 1.386 . S
C3852 C3854 1.391 . S
C3853 C3852 1.386 . S
C3853 C3857 1.393 . S
C3854 H3846 0.950 . S
C3854 C3852 1.391 . S
C3854 C3855 1.400 . S
C3855 C3854 1.400 . S
C3855 C3856 1.398 . S
C3855 C3861 1.491 . S
C3856 H3847 0.950 . S
C3856 C3855 1.398 . S
C3856 C3857 1.391 . S
C3857 H3845 0.950 . S
C3857 C3853 1.393 . S
C3857 C3856 1.391 . S
C3858 H3848 0.950 . S
C3858 C3859 1.386 . S
C3858 C3860 1.391 . S
C3859 C3858 1.386 . S
C3859 C3863 1.393 . S
C3860 H3849 0.950 . S
C3860 C3858 1.391 . S
C3860 C3861 1.400 . S
C3861 C3855 1.491 . S
C3861 C3860 1.400 . S
C3861 C3862 1.398 . S
C3862 H3850 0.950 . S
C3862 C3861 1.398 . S
C3862 C3863 1.391 . S
C3863 H3851 0.950 . S
C3863 C3859 1.393 . S
C3863 C3862 1.391 . S
H3864 C3872 0.950 . S
H3865 C3877 0.950 . S
H3866 C3874 0.950 . S
H3867 C3876 0.950 . S
H3868 C3878 0.950 . S
H3869 C3880 0.950 . S
H3870 C3882 0.950 . S
H3871 C3883 0.950 . S
C3872 H3864 0.950 . S
C3872 C3873 1.386 . S
C3872 C3874 1.391 . S
C3873 C3872 1.386 . S
C3873 C3877 1.393 . S
C3874 H3866 0.950 . S
C3874 C3872 1.391 . S
C3874 C3875 1.400 . S
C3875 C3874 1.400 . S
C3875 C3876 1.398 . S
C3875 C3881 1.491 . S
C3876 H3867 0.950 . S
C3876 C3875 1.398 . S
C3876 C3877 1.391 . S
C3877 H3865 0.950 . S
C3877 C3873 1.393 . S
C3877 C3876 1.391 . S
C3878 H3868 0.950 . S
C3878 C3879 1.386 . S
C3878 C3880 1.391 . S
C3879 C3878 1.386 . S
C3879 C3883 1.393 . S
C3880 H3869 0.950 . S
C3880 C3878 1.391 . S
C3880 C3881 1.400 . S
C3881 C3875 1.491 . S
C3881 C3880 1.400 . S
C3881 C3882 1.398 . S
C3882 H3870 0.950 . S
C3882 C3881 1.398 . S
C3882 C3883 1.391 . S
C3883 H3871 0.950 . S
C3883 C3879 1.393 . S
C3883 C3882 1.391 . S
H3884 C3892 0.950 . S
H3885 C3897 0.950 . S
H3886 C3894 0.950 . S
H3887 C3896 0.950 . S
H3888 C3898 0.950 . S
H3889 C3900 0.950 . S
H3890 C3902 0.950 . S
H3891 C3903 0.950 . S
C3892 H3884 0.950 . S
C3892 C3893 1.386 . S
C3892 C3894 1.391 . S
C3893 C3892 1.386 . S
C3893 C3897 1.393 . S
C3894 H3886 0.950 . S
C3894 C3892 1.391 . S
C3894 C3895 1.400 . S
C3895 C3894 1.400 . S
C3895 C3896 1.398 . S
C3895 C3901 1.491 . S
C3896 H3887 0.950 . S
C3896 C3895 1.398 . S
C3896 C3897 1.391 . S
C3897 H3885 0.950 . S
C3897 C3893 1.393 . S
C3897 C3896 1.391 . S
C3898 H3888 0.950 . S
C3898 C3899 1.386 . S
C3898 C3900 1.391 . S
C3899 C3898 1.386 . S
C3899 C3903 1.393 . S
C3900 H3889 0.950 . S
C3900 C3898 1.391 . S
C3900 C3901 1.400 . S
C3901 C3895 1.491 . S
C3901 C3900 1.400 . S
C3901 C3902 1.398 . S
C3902 H3890 0.950 . S
C3902 C3901 1.398 . S
C3902 C3903 1.391 . S
C3903 H3891 0.950 . S
C3903 C3899 1.393 . S
C3903 C3902 1.391 . S
H3904 C3912 0.950 . S
H3905 C3917 0.950 . S
H3906 C3914 0.950 . S
H3907 C3916 0.950 . S
H3908 C3918 0.950 . S
H3909 C3920 0.950 . S
H3910 C3922 0.950 . S
H3911 C3923 0.950 . S
C3912 H3904 0.950 . S
C3912 C3913 1.386 . S
C3912 C3914 1.391 . S
C3913 C3912 1.386 . S
C3913 C3917 1.393 . S
C3914 H3906 0.950 . S
C3914 C3912 1.391 . S
C3914 C3915 1.400 . S
C3915 C3914 1.400 . S
C3915 C3916 1.398 . S
C3915 C3921 1.491 . S
C3916 H3907 0.950 . S
C3916 C3915 1.398 . S
C3916 C3917 1.391 . S
C3917 H3905 0.950 . S
C3917 C3913 1.393 . S
C3917 C3916 1.391 . S
C3918 H3908 0.950 . S
C3918 C3919 1.386 . S
C3918 C3920 1.391 . S
C3919 C3918 1.386 . S
C3919 C3923 1.393 . S
C3920 H3909 0.950 . S
C3920 C3918 1.391 . S
C3920 C3921 1.400 . S
C3921 C3915 1.491 . S
C3921 C3920 1.400 . S
C3921 C3922 1.398 . S
C3922 H3910 0.950 . S
C3922 C3921 1.398 . S
C3922 C3923 1.391 . S
C3923 H3911 0.950 . S
C3923 C3919 1.393 . S
C3923 C3922 1.391 . S
H3924 C3932 0.950 . S
H3925 C3937 0.950 . S
H3926 C3934 0.950 . S
H3927 C3936 0.950 . S
H3928 C3938 0.950 . S
H3929 C3940 0.950 . S
H3930 C3942 0.950 . S
H3931 C3943 0.950 . S
C3932 H3924 0.950 . S
C3932 C3933 1.386 . S
C3932 C3934 1.391 . S
C3933 C3932 1.386 . S
C3933 C3937 1.393 . S
C3934 H3926 0.950 . S
C3934 C3932 1.391 . S
C3934 C3935 1.400 . S
C3935 C3934 1.400 . S
C3935 C3936 1.398 . S
C3935 C3941 1.491 . S
C3936 H3927 0.950 . S
C3936 C3935 1.398 . S
C3936 C3937 1.391 . S
C3937 H3925 0.950 . S
C3937 C3933 1.393 . S
C3937 C3936 1.391 . S
C3938 H3928 0.950 . S
C3938 C3939 1.386 . S
C3938 C3940 1.391 . S
C3939 C3938 1.386 . S
C3939 C3943 1.393 . S
C3940 H3929 0.950 . S
C3940 C3938 1.391 . S
C3940 C3941 1.400 . S
C3941 C3935 1.491 . S
C3941 C3940 1.400 . S
C3941 C3942 1.398 . S
C3942 H3930 0.950 . S
C3942 C3941 1.398 . S
C3942 C3943 1.391 . S
C3943 H3931 0.950 . S
C3943 C3939 1.393 . S
C3943 C3942 1.391 . S
H3944 C3952 0.950 . S
H3945 C3957 0.950 . S
H3946 C3954 0.950 . S
H3947 C3956 0.950 . S
H3948 C3958 0.950 . S
H3949 C3960 0.950 . S
H3950 C3962 0.950 . S
H3951 C3963 0.950 . S
C3952 H3944 0.950 . S
C3952 C3953 1.386 . S
C3952 C3954 1.391 . S
C3953 C3952 1.386 . S
C3953 C3957 1.393 . S
C3954 H3946 0.950 . S
C3954 C3952 1.391 . S
C3954 C3955 1.400 . S
C3955 C3954 1.400 . S
C3955 C3956 1.398 . S
C3955 C3961 1.491 . S
C3956 H3947 0.950 . S
C3956 C3955 1.398 . S
C3956 C3957 1.391 . S
C3957 H3945 0.950 . S
C3957 C3953 1.393 . S
C3957 C3956 1.391 . S
C3958 H3948 0.950 . S
C3958 C3959 1.386 . S
C3958 C3960 1.391 . S
C3959 C3958 1.386 . S
C3959 C3963 1.393 . S
C3960 H3949 0.950 . S
C3960 C3958 1.391 . S
C3960 C3961 1.400 . S
C3961 C3955 1.491 . S
C3961 C3960 1.400 . S
C3961 C3962 1.398 . S
C3962 H3950 0.950 . S
C3962 C3961 1.398 . S
C3962 C3963 1.391 . S
C3963 H3951 0.950 . S
C3963 C3959 1.393 . S
C3963 C3962 1.391 . S
H3964 C3972 0.950 . S
H3965 C3977 0.950 . S
H3966 C3974 0.950 . S
H3967 C3976 0.950 . S
H3968 C3978 0.950 . S
H3969 C3980 0.950 . S
H3970 C3982 0.950 . S
H3971 C3983 0.950 . S
C3972 H3964 0.950 . S
C3972 C3973 1.386 . S
C3972 C3974 1.391 . S
C3973 C3972 1.386 . S
C3973 C3977 1.393 . S
C3974 H3966 0.950 . S
C3974 C3972 1.391 . S
C3974 C3975 1.400 . S
C3975 C3974 1.400 . S
C3975 C3976 1.398 . S
C3975 C3981 1.491 . S
C3976 H3967 0.950 . S
C3976 C3975 1.398 . S
C3976 C3977 1.391 . S
C3977 H3965 0.950 . S
C3977 C3973 1.393 . S
C3977 C3976 1.391 . S
C3978 H3968 0.950 . S
C3978 C3979 1.386 . S
C3978 C3980 1.391 . S
C3979 C3978 1.386 . S
C3979 C3983 1.393 . S
C3980 H3969 0.950 . S
C3980 C3978 1.391 . S
C3980 C3981 1.400 . S
C3981 C3975 1.491 . S
C3981 C3980 1.400 . S
C3981 C3982 1.398 . S
C3982 H3970 0.950 . S
C3982 C3981 1.398 . S
C3982 C3983 1.391 . S
C3983 H3971 0.950 . S
C3983 C3979 1.393 . S
C3983 C3982 1.391 . S
C1593 C292 1.088 . S
C1599 N5 1.068 . S
C1613 C325 1.082 . S
C1619 N38 1.086 . S
C1633 N71 1.069 . S
C1639 C358 1.087 . S
C1653 N104 1.072 . S
C1659 C391 1.087 . S
C1673 N137 1.075 . S
C1679 C424 1.086 . S
C1693 C457 1.085 . S
C1699 N170 1.076 . S
C1713 C490 1.082 . S
C1719 N203 1.086 . S
C1733 N236 1.067 . S
C1739 C523 1.089 . S
C1753 N269 1.065 . S
C1759 C556 1.089 . S
C1773 N302 1.070 . S
C1779 C1579 1.087 . S
C1793 N335 1.083 . S
C1799 C1513 1.083 . S
C1813 N368 1.082 . S
C1819 C1546 1.083 . S
C1833 C589 1.082 . S
C1839 N401 1.086 . S
C1853 C622 1.087 . S
C1859 N434 1.072 . S
C1873 N467 1.080 . S
C1879 C655 1.084 . S
C1893 N500 1.065 . S
C1899 C1480 1.089 . S
C1913 N533 1.081 . S
C1919 C28 1.083 . S
C1933 C160 1.088 . S
C1939 N566 1.068 . S
C1953 N599 1.084 . S
C1959 C193 1.082 . S
C1973 C226 1.087 . S
C1979 N632 1.071 . S
C1993 N665 1.073 . S
C1999 C1051 1.087 . S
C2013 N698 1.064 . S
C2019 C886 1.089 . S
C2033 N731 1.073 . S
C2039 C919 1.086 . S
C2053 N764 1.083 . S
C2059 C853 1.083 . S
C2073 C1084 1.089 . S
C2079 N797 1.064 . S
C2093 C1117 1.089 . S
C2099 N830 1.065 . S
C2113 C1150 1.085 . S
C2119 N863 1.076 . S
C2133 N896 1.074 . S
C2139 C1183 1.086 . S
C2153 C1216 1.089 . S
C2159 N929 1.064 . S
C2173 C1249 1.089 . S
C2179 N962 1.065 . S
C2193 N995 1.072 . S
C2199 C1282 1.087 . S
C2213 N1028 1.077 . S
C2219 C1315 1.085 . S
C2233 N1061 1.065 . S
C2239 C1348 1.089 . S
C2253 C787 1.089 . S
C2259 N1094 1.064 . S
C2273 C721 1.088 . S
C2279 N1127 1.066 . S
C2293 N1160 1.064 . S
C2299 C754 1.089 . S
C2313 N1193 1.080 . S
C2319 C1381 1.083 . S
C2333 N1226 1.079 . S
C2339 C1414 1.084 . S
C2353 C1447 1.087 . S
C2359 N1259 1.071 . S
C2373 N1292 1.065 . S
C2379 C688 1.089 . S
C2393 C820 1.083 . S
C2399 N1325 1.083 . S
C2413 N1358 1.082 . S
C2419 C952 1.083 . S
C2433 N1391 1.084 . S
C2439 C985 1.082 . S
C2453 C1018 1.085 . S
C2459 N1424 1.075 . S
C2473 N1457 1.073 . S
C2479 C259 1.086 . S
C2493 N1490 1.069 . S
C2499 C94 1.088 . S
C2513 C127 1.089 . S
C2519 N1523 1.064 . S
C2533 C61 1.088 . S
C2539 N1556 1.068 . S
C2553 C17 1.752 . S
C2559 C83 1.761 . S
C2573 C50 1.762 . S
C2579 C116 1.757 . S
C2593 C215 1.760 . S
C2599 C149 1.752 . S
C2613 C182 1.762 . S
C2619 C248 1.758 . S
C2633 C413 1.758 . S
C2639 C281 1.762 . S
C2653 C314 1.754 . S
C2659 C446 1.762 . S
C2673 C479 1.748 . S
C2679 C347 1.756 . S
C2693 C512 1.759 . S
C2699 C380 1.762 . S
C2713 C1436 1.759 . S
C2719 C545 1.762 . S
C2733 C578 1.757 . S
C2739 C710 1.762 . S
C2753 C611 1.762 . S
C2759 C743 1.760 . S
C2773 C644 1.762 . S
C2779 C1337 1.754 . S
C2793 C1568 1.748 . S
C2799 C677 1.752 . S
C2813 C1469 1.751 . S
C2819 C776 1.748 . S
C2833 C875 1.755 . S
C2839 C809 1.748 . S
C2853 C908 1.762 . S
C2859 C842 1.759 . S
C2873 C1007 1.762 . S
C2879 C941 1.757 . S
C2893 C1040 1.761 . S
C2899 C974 1.753 . S
C2913 C1073 1.750 . S
C2919 C1205 1.749 . S
C2933 C1238 1.761 . S
C2939 C1106 1.761 . S
C2953 C1139 1.749 . S
C2959 C1271 1.750 . S
C2973 C1304 1.758 . S
C2979 C1172 1.762 . S
C2993 C1502 1.760 . S
C2999 C1370 1.752 . S
C3013 C1403 1.762 . S
C3019 C1535 1.755 . S
C3033 C437 1.715 . S
C3039 N14 1.654 . S
C3053 C470 1.719 . S
C3059 N47 1.635 . S
C3073 N80 1.654 . S
C3079 C503 1.715 . S
C3093 N113 1.634 . S
C3099 C404 1.719 . S
C3113 N146 1.658 . S
C3119 C1163 1.714 . S
C3133 C1064 1.718 . S
C3139 N179 1.643 . S
C3153 C1097 1.718 . S
C3159 N212 1.639 . S
C3173 N245 1.645 . S
C3179 C1130 1.716 . S
C3193 N278 1.658 . S
C3199 C833 1.714 . S
C3213 C866 1.715 . S
C3219 N311 1.655 . S
C3233 C899 1.718 . S
C3239 N344 1.638 . S
C3253 N377 1.653 . S
C3259 C800 1.715 . S
C3273 N410 1.643 . S
C3279 C239 1.718 . S
C3293 N443 1.635 . S
C3299 C140 1.719 . S
C3313 C173 1.716 . S
C3319 N476 1.650 . S
C3333 N509 1.635 . S
C3339 C206 1.719 . S
C3353 C1526 1.718 . S
C3359 N542 1.639 . S
C3373 N575 1.641 . S
C3379 C1394 1.718 . S
C3393 C1427 1.716 . S
C3399 N608 1.646 . S
C3413 N641 1.648 . S
C3419 C668 1.717 . S
C3433 C569 1.714 . S
C3439 N674 1.657 . S
C3453 N707 1.657 . S
C3459 C767 1.714 . S
C3473 N740 1.658 . S
C3479 C701 1.714 . S
C3493 C1328 1.719 . S
C3499 N773 1.637 . S
C3513 C1229 1.714 . S
C3519 N806 1.658 . S
C3533 C1262 1.715 . S
C3539 N839 1.654 . S
C3553 N872 1.634 . S
C3559 C1295 1.719 . S
C3573 N905 1.635 . S
C3579 C1196 1.719 . S
C3593 C371 1.714 . S
C3599 N938 1.656 . S
C3613 N971 1.643 . S
C3619 C272 1.717 . S
C3633 N1004 1.657 . S
C3639 C305 1.715 . S
C3653 N1037 1.653 . S
C3659 C338 1.716 . S
C3673 N1070 1.634 . S
C3679 C41 1.719 . S
C3693 N1103 1.639 . S
C3699 C74 1.718 . S
C3713 N1136 1.634 . S
C3719 C107 1.719 . S
C3733 N1169 1.657 . S
C3739 C8 1.715 . S
C3753 C1031 1.718 . S
C3759 N1202 1.637 . S
C3773 C932 1.718 . S
C3779 N1235 1.637 . S
C3793 N1268 1.634 . S
C3799 C965 1.719 . S
C3813 N1301 1.642 . S
C3819 C998 1.717 . S
C3833 C734 1.719 . S
C3839 N1334 1.635 . S
C3853 N1367 1.654 . S
C3859 C602 1.715 . S
C3873 C635 1.719 . S
C3879 N1400 1.638 . S
C3893 N1433 1.634 . S
C3899 C1460 1.719 . S
C3913 C1361 1.717 . S
C3919 N1466 1.641 . S
C3933 C1559 1.719 . S
C3939 N1499 1.634 . S
C3953 C1493 1.716 . S
C3959 N1532 1.646 . S
C3973 N1565 1.654 . S
C3979 C536 1.715 . S
