# Generated by pormake.
# Topology eci, (8)-cn, num edge types: 1
# Building blocks:
#     Node 0, Type 0, BuildingBlock: TAGTUT_clean_sbu_1, # of connection points: 8
#     Node 1, Type 0, BuildingBlock: TAGTUT_clean_sbu_1, # of connection points: 8
#     Node 2, Type 0, BuildingBlock: TAGTUT_clean_sbu_1, # of connection points: 8
#     Node 3, Type 0, BuildingBlock: TAGTUT_clean_sbu_1, # of connection points: 8
#     Edge 4, Type (0, 0), BuildingBlock: XIVTED_clean_linker_0, # of connection points: 2
#     Edge 5, Type (0, 0), BuildingBlock: XIVTED_clean_linker_0, # of connection points: 2
#     Edge 6, Type (0, 0), BuildingBlock: XIVTED_clean_linker_0, # of connection points: 2
#     Edge 7, Type (0, 0), BuildingBlock: XIVTED_clean_linker_0, # of connection points: 2
#     Edge 8, Type (0, 0), BuildingBlock: XIVTED_clean_linker_0, # of connection points: 2
#     Edge 9, Type (0, 0), BuildingBlock: XIVTED_clean_linker_0, # of connection points: 2
#     Edge 10, Type (0, 0), BuildingBlock: XIVTED_clean_linker_0, # of connection points: 2
#     Edge 11, Type (0, 0), BuildingBlock: XIVTED_clean_linker_0, # of connection points: 2
#     Edge 12, Type (0, 0), BuildingBlock: XIVTED_clean_linker_0, # of connection points: 2
#     Edge 13, Type (0, 0), BuildingBlock: XIVTED_clean_linker_0, # of connection points: 2
#     Edge 14, Type (0, 0), BuildingBlock: XIVTED_clean_linker_0, # of connection points: 2
#     Edge 15, Type (0, 0), BuildingBlock: XIVTED_clean_linker_0, # of connection points: 2
#     Edge 16, Type (0, 0), BuildingBlock: XIVTED_clean_linker_0, # of connection points: 2
#     Edge 17, Type (0, 0), BuildingBlock: XIVTED_clean_linker_0, # of connection points: 2
#     Edge 18, Type (0, 0), BuildingBlock: XIVTED_clean_linker_0, # of connection points: 2
#     Edge 19, Type (0, 0), BuildingBlock: XIVTED_clean_linker_0, # of connection points: 2
# Relax obj value: 0.210
# Max RMSD: 0.267
# Mean RMSD: 0.257
data_MOF--net-eci--node1-TAGTUT_clean_sbu_1--edge1-XIVTED_clean_linker_0
_symmetry_space_group_name_H-M    P1
_symmetry_Int_Tables_number       1
_symmetry_cell_setting            triclinic
loop_
_symmetry_equiv_pos_as_xyz
'x, y, z'
_cell_length_a     28.301173
_cell_length_b     30.835602
_cell_length_c     18.958876
_cell_angle_alpha  93.326606
_cell_angle_beta   92.630562
_cell_angle_gamma 90.528072
loop_
_atom_site_label
_atom_site_type_symbol
_atom_site_fract_x
_atom_site_fract_y
_atom_site_fract_z
_atom_type_partial_charge
C0 C 0.77307 0.69256 0.14761 0.0
C1 C 0.83877 0.79927 0.27679 0.0
C2 C 0.76006 0.89279 0.05099 0.0
Mg3 Mg 0.86551 0.74517 0.14219 0.0
O4 O 0.82548 0.78159 0.09511 0.0
Mg5 Mg 0.76361 0.79884 0.13398 0.0
Mg6 Mg 0.83989 0.83041 0.03777 0.0
O7 O 0.8504 0.87918 0.97448 0.0
Mg8 Mg 0.79811 0.88993 0.91067 0.0
Mg9 Mg 0.91105 0.85933 0.93354 0.0
C10 C 0.93388 0.7678 0.01853 0.0
C11 C 0.9303 0.88919 0.1002 0.0
O12 O 0.75022 0.72773 0.15902 0.0
O13 O 0.81712 0.69168 0.13525 0.0
O14 O 0.80145 0.81175 0.24318 0.0
O15 O 0.86907 0.77441 0.24763 0.0
O16 O 0.92451 0.74696 0.07307 0.0
O17 O 0.90441 0.79502 -0.00779 0.0
C18 C 0.74326 0.78154 0.96679 0.0
O19 O 0.78414 0.79686 0.95399 0.0
O20 O 0.72888 0.78192 0.0292 0.0
O21 O 0.90711 0.9258 0.88057 0.0
O22 O 0.83121 0.94842 0.87699 0.0
O23 O 0.87632 0.82761 0.83179 0.0
C24 C 0.87532 0.95413 0.8662 0.0
O25 O 0.79969 0.84324 0.82318 0.0
O26 O 0.74622 0.87655 -0.00983 0.0
C27 C 0.83589 0.82431 0.79913 0.0
O28 O 0.78013 0.86768 0.0943 0.0
O29 O 0.89453 0.86617 0.11591 0.0
O30 O 0.94272 0.89094 0.03631 0.0
C31 C 0.79349 0.19205 0.05808 0.0
C32 C 0.70942 0.28487 0.94858 0.0
C33 C 0.75744 0.39341 0.18047 0.0
Mg34 Mg 0.69068 0.2265 0.07055 0.0
O35 O 0.72457 0.26565 0.13207 0.0
Mg36 Mg 0.78052 0.2976 0.09912 0.0
Mg37 Mg 0.69369 0.31359 0.18453 0.0
O38 O 0.66512 0.36209 0.24345 0.0
Mg39 Mg 0.70742 0.39008 0.31363 0.0
Mg40 Mg 0.61158 0.32858 0.28054 0.0
C41 C 0.61935 0.23393 0.19703 0.0
C42 C 0.59268 0.33513 0.10993 0.0
O43 O 0.81139 0.23032 0.06896 0.0
O44 O 0.74904 0.18361 0.05831 0.0
O45 O 0.74565 0.30004 0.98547 0.0
O46 O 0.68035 0.25839 0.97335 0.0
O47 O 0.63129 0.21475 0.13843 0.0
O48 O 0.64284 0.26629 0.2268 0.0
C49 C 0.79161 0.29473 0.26923 0.0
O50 O 0.74757 0.30163 0.27339 0.0
O51 O 0.812 0.2934 0.21053 0.0
O52 O 0.58965 0.39693 0.32621 0.0
O53 O 0.65573 0.43906 0.33886 0.0
O54 O 0.64801 0.31668 0.39036 0.0
C55 C 0.61076 0.43369 0.34231 0.0
O56 O 0.71624 0.35291 0.40472 0.0
O57 O 0.7673 0.38536 0.24454 0.0
C58 C 0.68574 0.32722 0.42723 0.0
O59 O 0.74417 0.36199 0.13677 0.0
O60 O 0.6359 0.32553 0.09915 0.0
O61 O 0.57688 0.33858 0.17227 0.0
C62 C 0.29565 0.20121 0.3691 0.0
C63 C 0.15662 0.17945 0.28113 0.0
C64 C 0.09424 0.28245 0.49307 0.0
Mg65 Mg 0.21152 0.14473 0.40643 0.0
O66 O 0.20075 0.19462 0.46426 0.0
Mg67 Mg 0.19456 0.24975 0.41483 0.0
Mg68 Mg 0.14226 0.19679 0.51855 0.0
O69 O 0.08409 0.19887 0.57961 0.0
Mg70 Mg 0.07627 0.257 0.63503 0.0
Mg71 Mg 0.09023 0.1356 0.62299 0.0
C72 C 0.17972 0.10081 0.54522 0.0
C73 C 0.07359 0.11386 0.45405 0.0
O74 O 0.27057 0.23553 0.37843 0.0
O75 O 0.28035 0.16294 0.37886 0.0
O76 O 0.16483 0.2166 0.31231 0.0
O77 O 0.16864 0.14464 0.30985 0.0
O78 O 0.19778 0.09824 0.4842 0.0
O79 O 0.16377 0.13653 0.57358 0.0
C80 C 0.21265 0.27909 0.5794 0.0
O81 O 0.18421 0.24899 0.59712 0.0
O82 O 0.22222 0.28302 0.51516 0.0
O83 O 0.04223 0.19321 0.59779 0.0
O84 O -0.0002 0.24523 0.64289 0.0
O85 O 0.11527 0.17061 0.7275 0.0
C86 C 0.00327 0.20479 0.62602 0.0
O87 O 0.11161 0.24361 0.73597 0.0
O88 O 0.10953 0.29426 0.55549 0.0
C89 C 0.1217 0.20719 0.76219 0.0
O90 O 0.11833 0.25526 0.45646 0.0
O91 O 0.10007 0.14612 0.43964 0.0
O92 O 0.06654 0.10512 0.51766 0.0
C93 C 0.25889 0.80148 0.6118 0.0
C94 C 0.32107 0.69297 0.48611 0.0
C95 C 0.24492 0.59455 0.6975 0.0
Mg96 Mg 0.34966 0.74761 0.62307 0.0
O97 O 0.30926 0.71339 0.67185 0.0
Mg98 Mg 0.24878 0.69201 0.62473 0.0
Mg99 Mg 0.32939 0.66212 0.72104 0.0
O100 O 0.34923 0.61064 0.77338 0.0
Mg101 Mg 0.30492 0.58628 0.83215 0.0
Mg102 Mg 0.41079 0.63343 0.81846 0.0
C103 C 0.42333 0.72697 0.749 0.0
C104 C 0.42218 0.62282 0.64802 0.0
O105 O 0.23409 0.76605 0.60414 0.0
O106 O 0.30393 0.80173 0.62172 0.0
O107 O 0.28337 0.68161 0.51569 0.0
O108 O 0.35272 0.71707 0.51902 0.0
O109 O 0.41214 0.74745 0.69369 0.0
O110 O 0.39388 0.70076 0.77543 0.0
C111 C 0.23466 0.70131 0.79284 0.0
O112 O 0.27601 0.68608 0.80633 0.0
O113 O 0.21805 0.70427 0.72981 0.0
O114 O 0.4191 0.56245 0.84877 0.0
O115 O 0.34764 0.52875 0.84605 0.0
O116 O 0.37998 0.65089 0.92884 0.0
C117 C 0.39311 0.52833 0.85328 0.0
O118 O 0.30741 0.62263 0.93105 0.0
O119 O 0.24356 0.6029 0.764 0.0
C120 C 0.34182 0.64459 0.96075 0.0
O121 O 0.26874 0.62027 0.66046 0.0
O122 O 0.38112 0.63903 0.6376 0.0
O123 O 0.43987 0.61756 0.71026 0.0
H124 H 0.7751 0.84049 0.36082 0.0
H125 H 0.90686 0.78691 0.72381 0.0
H126 H 0.90847 0.77338 0.3701 0.0
H127 H 0.76018 0.82407 0.7041 0.0
H128 H 0.90891 0.78026 0.59515 0.0
H129 H 0.77219 0.83859 0.48854 0.0
C130 C 0.80421 0.82596 0.38971 0.0
C131 C 0.84194 0.80675 0.35443 0.0
C132 C 0.87612 0.78923 0.6191 0.0
C133 C 0.83824 0.80374 0.5008 0.0
C134 C 0.87475 0.79267 0.69258 0.0
C135 C 0.83357 0.80708 0.72485 0.0
C136 C 0.83617 0.80056 0.57794 0.0
C137 C 0.79296 0.8136 0.68164 0.0
C138 C 0.80216 0.82436 0.46265 0.0
C139 C 0.8786 0.78844 0.39498 0.0
N140 N 0.79556 0.81109 0.61031 0.0
N141 N 0.87572 0.7872 0.46612 0.0
H142 H 0.62285 0.28232 0.50298 0.0
H143 H 0.76965 0.33108 0.87096 0.0
H144 H 0.76047 0.34471 0.52199 0.0
H145 H 0.63772 0.2589 0.85223 0.0
H146 H 0.76524 0.33823 0.74338 0.0
H147 H 0.62756 0.27267 0.63025 0.0
C148 C 0.65435 0.29344 0.53359 0.0
C149 C 0.69118 0.31463 0.50153 0.0
C150 C 0.73715 0.32094 0.76716 0.0
C151 C 0.69639 0.30436 0.64767 0.0
C152 C 0.73945 0.31712 0.84026 0.0
C153 C 0.70408 0.29421 0.87269 0.0
C154 C 0.69915 0.30184 0.72585 0.0
C155 C 0.66591 0.27675 0.82973 0.0
C156 C 0.65686 0.28819 0.60643 0.0
C157 C 0.73104 0.32843 0.54421 0.0
N158 N 0.66455 0.2808 0.7586 0.0
N159 N 0.73239 0.32336 0.61499 0.0
H160 H 0.1106 0.27136 0.86625 0.0
H161 H 0.16519 0.11328 0.17951 0.0
H162 H 0.15685 0.13894 0.83276 0.0
H163 H 0.11412 0.24419 0.211 0.0
H164 H 0.15842 0.12046 0.05164 0.0
H165 H 0.1133 0.26229 -0.00655 0.0
C166 C 0.12225 0.24069 0.88565 0.0
C167 C 0.13322 0.2058 0.83872 0.0
C168 C 0.14822 0.14743 0.0866 0.0
C169 C 0.13517 0.1948 0.98395 0.0
C170 C 0.15147 0.14312 0.15955 0.0
C171 C 0.14087 0.17841 0.20588 0.0
C172 C 0.13428 0.18728 0.06021 0.0
C173 C 0.12336 0.21637 0.17713 0.0
C174 C 0.12314 0.2353 0.95823 0.0
C175 C 0.14771 0.16665 0.86695 0.0
N176 N 0.12119 0.21999 0.10617 0.0
N177 N 0.14793 0.16211 0.93768 0.0
H178 H 0.41269 0.67732 0.05405 0.0
H179 H 0.2553 0.6545 0.391 0.0
H180 H 0.26467 0.64094 0.04178 0.0
H181 H 0.39737 0.70767 0.40596 0.0
H182 H 0.26033 0.64555 0.2629 0.0
H183 H 0.409 0.68791 0.18281 0.0
C184 C 0.37928 0.67217 0.07816 0.0
C185 C 0.33902 0.65794 0.03686 0.0
C186 C 0.29049 0.65907 0.29419 0.0
C187 C 0.33481 0.66917 0.18419 0.0
C188 C 0.28778 0.66385 0.36755 0.0
C189 C 0.32586 0.68209 0.40954 0.0
C190 C 0.33164 0.67243 0.26232 0.0
C191 C 0.36699 0.69368 0.3758 0.0
C192 C 0.37729 0.6779 0.15174 0.0
C193 C 0.29676 0.65159 0.07127 0.0
N194 N 0.36873 0.6888 0.30421 0.0
N195 N 0.2959 0.65692 0.14275 0.0
H196 H 0.46852 0.68764 0.86145 0.0
H197 H 0.7085 0.8219 0.85015 0.0
H198 H 0.4934 0.77682 0.69921 0.0
H199 H 0.69624 0.70522 0.96276 0.0
H200 H 0.63158 0.8047 0.78907 0.0
H201 H 0.55224 0.69398 0.89928 0.0
C202 C 0.49136 0.70821 0.83333 0.0
C203 C 0.47349 0.73123 0.77644 0.0
C204 C 0.64635 0.78223 0.82573 0.0
C205 C 0.56959 0.73924 0.82024 0.0
C206 C 0.69069 0.79169 0.85951 0.0
C207 C 0.70883 0.76472 0.91095 0.0
C208 C 0.61996 0.74606 0.84474 0.0
C209 C 0.68343 0.72671 0.92305 0.0
C210 C 0.53932 0.71183 0.85493 0.0
C211 C 0.50518 0.75822 0.74326 0.0
N212 N 0.63997 0.71892 0.89133 0.0
N213 N 0.55139 0.76163 0.76582 0.0
H214 H 0.8388 0.15149 0.16329 0.0
H215 H 0.73337 0.95449 0.96239 0.0
H216 H 0.81332 0.14662 0.93735 0.0
H217 H 0.82963 0.93332 0.14042 0.0
H218 H 0.76739 0.02616 0.95496 0.0
H219 H 0.84921 0.07269 0.15728 0.0
C220 C 0.83832 0.13404 0.11195 0.0
C221 C 0.82439 0.15483 0.05075 0.0
C222 C 0.78192 0.00559 -0.00524 0.0
C223 C 0.83412 0.06565 0.04387 0.0
C224 C 0.76197 0.96483 -0.00026 0.0
C225 C 0.77908 0.93753 0.05136 0.0
C226 C 0.8186 0.01999 0.04285 0.0
C227 C 0.81564 0.95315 0.09928 0.0
C228 C 0.84379 0.08909 0.1086 0.0
C229 C 0.82351 0.13128 -0.01438 0.0
N230 N 0.83399 0.99374 0.09431 0.0
N231 N 0.82678 0.08748 0.98401 0.0
H232 H 0.35728 0.2696 0.39451 0.0
H233 H 0.54809 0.18208 0.13476 0.0
H234 H 0.34297 0.14192 0.28897 0.0
H235 H 0.58718 0.25924 0.32638 0.0
H236 H 0.46896 0.17219 0.17875 0.0
H237 H 0.43861 0.27394 0.35559 0.0
C238 C 0.37124 0.24268 0.36293 0.0
C239 C 0.3438 0.20533 0.345 0.0
C240 C 0.49515 0.19114 0.21099 0.0
C241 C 0.43563 0.21016 0.30035 0.0
C242 C 0.54024 0.1967 0.18615 0.0
C243 C 0.57389 0.22256 0.22617 0.0
C244 C 0.48379 0.21209 0.27551 0.0
C245 C 0.56186 0.24045 0.29263 0.0
C246 C 0.4175 0.245 0.34132 0.0
C247 C 0.36334 0.17114 0.30429 0.0
N248 N 0.51747 0.23547 0.31482 0.0
N249 N 0.40812 0.17449 0.28273 0.0
H250 H 0.28775 0.87269 0.69281 0.0
H251 H 0.1287 0.03282 0.48536 0.0
H252 H 0.17631 0.82716 0.54313 0.0
H253 H 0.21443 0.07315 0.67159 0.0
H254 H 0.13573 0.95734 0.51615 0.0
H255 H 0.25419 0.94499 0.69526 0.0
C256 C 0.25602 0.87796 0.6604 0.0
C257 C 0.23537 0.8441 0.61635 0.0
C258 C 0.1519 0.98263 0.55158 0.0
C259 C 0.19661 0.92729 0.61889 0.0
C260 C 0.14756 0.02577 0.53432 0.0
C261 C 0.17102 0.05906 0.57621 0.0
C262 C 0.18109 0.97264 0.61005 0.0
C263 C 0.19565 0.04834 0.63829 0.0
C264 C 0.23659 0.91926 0.66239 0.0
C265 C 0.19363 0.85253 0.57708 0.0
N266 N 0.20097 0.00585 0.65256 0.0
N267 N 0.17609 0.8936 0.57817 0.0
H268 H 0.99231 0.70038 0.04335 0.0
H269 H 0.19802 0.78116 0.80714 0.0
H270 H 0.98448 0.81749 0.92925 0.0
H271 H 0.19764 0.65664 0.89895 0.0
H272 H 0.12668 0.80069 0.86883 0.0
H273 H 0.07174 0.68855 0.00391 0.0
C274 C 0.00719 0.72379 0.00987 0.0
C275 C 0.98124 0.76016 -0.01035 0.0
C276 C 0.14261 0.76946 0.87687 0.0
C277 C 0.07323 0.74655 0.9444 0.0
C278 C 0.18372 0.75855 0.84257 0.0
C279 C 0.20378 0.71739 0.84861 0.0
C280 C 0.12101 0.73876 0.91698 0.0
C281 C 0.18357 0.68891 0.89387 0.0
C282 C 0.05281 0.71691 -0.01248 0.0
C283 C 0.00272 0.78893 0.94586 0.0
N284 N 0.14278 0.69991 0.92564 0.0
N285 N 0.0475 0.78151 0.92474 0.0
H286 H 0.72666 0.42539 0.05486 0.0
H287 H 0.71029 0.66215 0.23864 0.0
H288 H 0.74119 0.45914 0.27945 0.0
H289 H 0.77587 0.63099 0.04151 0.0
H290 H 0.67939 0.58718 0.23638 0.0
H291 H 0.70372 0.50055 0.03591 0.0
C292 C 0.72371 0.44808 0.10021 0.0
C293 C 0.73648 0.43607 0.16869 0.0
C294 C 0.69927 0.59738 0.1926 0.0
C295 C 0.70918 0.52087 0.14751 0.0
C296 C 0.71707 0.63974 0.1942 0.0
C297 C 0.74699 0.65149 0.14168 0.0
C298 C 0.7113 0.56751 0.13769 0.0
C299 C 0.75426 0.62212 0.08425 0.0
C300 C 0.71027 0.49066 0.08936 0.0
C301 C 0.73186 0.4667 0.22565 0.0
N302 N 0.7371 0.58105 0.08422 0.0
N303 N 0.71897 0.50779 0.21366 0.0
H304 H 0.81285 0.21942 0.32866 0.0
H305 H 0.04331 0.21541 0.42368 0.0
H306 H 0.83646 0.35778 0.35226 0.0
H307 H 0.02768 0.33834 0.54089 0.0
H308 H 0.95875 0.21191 0.39943 0.0
H309 H 0.87887 0.20926 0.41421 0.0
C310 C 0.83139 0.24761 0.35351 0.0
C311 C 0.82047 0.28933 0.33332 0.0
C312 C 0.97328 0.23903 0.4325 0.0
C313 C 0.89669 0.27817 0.42685 0.0
C314 C 0.02193 0.24144 0.44525 0.0
C315 C 0.04258 0.27767 0.48334 0.0
C316 C 0.9451 0.27357 0.45659 0.0
C317 C 0.01301 0.31012 0.5106 0.0
C318 C 0.86922 0.24188 0.40145 0.0
C319 C 0.84474 0.3251 0.36646 0.0
N320 N 0.96571 0.30785 0.49519 0.0
N321 N 0.8826 0.31868 0.41088 0.0
H322 H 0.15941 0.32338 0.67713 0.0
H323 H 0.30556 0.54211 0.62003 0.0
H324 H 0.29531 0.32481 0.58367 0.0
H325 H 0.17737 0.53905 0.73405 0.0
H326 H 0.30342 0.46217 0.60808 0.0
H327 H 0.16872 0.40136 0.70859 0.0
C328 C 0.19211 0.33959 0.66595 0.0
C329 C 0.22642 0.31747 0.62714 0.0
C330 C 0.27559 0.47903 0.63536 0.0
C331 C 0.23653 0.40726 0.66015 0.0
C332 C 0.27644 0.52471 0.64108 0.0
C333 C 0.24118 0.54731 0.67716 0.0
C334 C 0.23919 0.45585 0.66575 0.0
C335 C 0.205 0.52291 0.7052 0.0
C336 C 0.19705 0.38443 0.6826 0.0
C337 C 0.26784 0.34059 0.61335 0.0
N338 N 0.20491 0.47875 0.69891 0.0
N339 N 0.27128 0.38423 0.62835 0.0
H340 H 0.08729 0.10749 0.30948 0.0
H341 H 0.91126 0.90208 0.24086 0.0
H342 H 0.00813 0.05067 0.47096 0.0
H343 H 0.00363 0.94576 0.08354 0.0
H344 H 0.94532 0.95812 0.32503 0.0
H345 H 0.05438 0.05131 0.22334 0.0
C346 C 0.06313 0.08345 0.32688 0.0
C347 C 0.05133 0.08361 0.39795 0.0
C348 C 0.95836 0.95526 0.27217 0.0
C349 C 0.01324 0.01942 0.29997 0.0
C350 C 0.93908 0.92302 0.2242 0.0
C351 C 0.95454 0.919 0.15492 0.0
C352 C 0.9932 0.98396 0.25076 0.0
C353 C 0.99053 0.94748 0.13636 0.0
C354 C 0.04437 0.05129 0.27778 0.0
C355 C 0.01901 0.05181 0.41709 0.0
N356 N 0.0084 0.97885 0.18378 0.0
N357 N 0.00135 0.02114 0.36866 0.0
H358 H 0.64323 0.51104 0.40558 0.0
H359 H 0.38786 0.58985 0.51821 0.0
H360 H 0.51408 0.44061 0.34218 0.0
H361 H 0.5177 0.61912 0.64069 0.0
H362 H 0.43372 0.55148 0.42741 0.0
H363 H 0.59661 0.56708 0.46528 0.0
C364 C 0.60506 0.50758 0.40329 0.0
C365 C 0.5826 0.47054 0.37006 0.0
C366 C 0.45206 0.56701 0.47368 0.0
C367 C 0.52922 0.53479 0.43789 0.0
C368 C 0.42605 0.58901 0.52517 0.0
C369 C 0.44912 0.6069 0.58737 0.0
C370 C 0.50132 0.56374 0.48427 0.0
C371 C 0.49858 0.60504 0.59396 0.0
C372 C 0.57854 0.5396 0.43745 0.0
C373 C 0.53295 0.46819 0.36828 0.0
N374 N 0.52304 0.58354 0.54326 0.0
N375 N 0.50789 0.4997 0.4024 0.0
H376 H 0.99013 0.12215 0.57508 0.0
H377 H 0.82954 0.03234 0.86279 0.0
H378 H 0.94834 0.21157 0.74342 0.0
H379 H 0.95413 0.96624 0.79225 0.0
H380 H 0.85461 0.09714 0.80348 0.0
H381 H 0.95575 0.06237 0.63485 0.0
C382 C 0.97349 0.12917 0.62455 0.0
C383 C 0.97341 0.17151 0.65548 0.0
C384 C 0.87631 0.06837 0.80156 0.0
C385 C 0.93287 0.10353 0.72317 0.0
C386 C 0.86219 0.03153 0.83529 0.0
C387 C 0.89004 0.99399 0.83301 0.0
C388 C 0.91752 0.06682 0.76333 0.0
C389 C 0.93176 0.99449 0.79593 0.0
C390 C 0.95378 0.09513 0.65841 0.0
C391 C 0.94949 0.17921 0.71822 0.0
N392 N 0.9439 0.03012 0.76185 0.0
N393 N 0.93033 0.14528 0.75065 0.0
H394 H 0.61619 0.3629 0.98103 0.0
H395 H 0.35744 0.45665 0.91334 0.0
H396 H 0.49634 0.33467 0.10431 0.0
H397 H 0.48436 0.50738 0.82879 0.0
H398 H 0.40307 0.39539 0.95594 0.0
H399 H 0.56306 0.39838 0.89715 0.0
C400 C 0.57859 0.36323 -0.01048 0.0
C401 C 0.56074 0.34695 0.05063 0.0
C402 C 0.42066 0.41961 0.92698 0.0
C403 C 0.50007 0.38751 0.95555 0.0
C404 C 0.39464 0.45449 0.90264 0.0
C405 C 0.41745 0.48766 0.86919 0.0
C406 C 0.46959 0.41793 0.91726 0.0
C407 C 0.46563 0.48307 0.85604 0.0
C408 C 0.54833 0.38363 0.94187 0.0
C409 C 0.51169 0.34786 0.05874 0.0
N410 N 0.49022 0.44918 0.88086 0.0
N411 N 0.48314 0.36849 0.01238 0.0
loop_
_geom_bond_atom_site_label_1
_geom_bond_atom_site_label_2
_geom_bond_distance
_geom_bond_site_symmetry_2
_ccdc_geom_bond_type
C0 O12 1.241 . S
C0 O13 1.280 . S
C1 O14 1.277 . S
C1 O15 1.245 . S
C2 O26 1.247 1_554 S
C2 O28 1.289 . S
Mg3 O4 1.926 . S
Mg3 O13 1.984 . S
Mg3 O15 1.988 . S
Mg3 O16 2.061 . S
O4 Mg3 1.926 . S
O4 Mg5 1.986 . S
O4 Mg6 1.917 . S
Mg5 O4 1.986 . S
Mg5 O12 2.042 . S
Mg5 O14 2.041 . S
Mg5 O20 2.038 . S
Mg5 O28 2.238 . S
Mg6 O4 1.917 . S
Mg6 O7 1.917 1_554 S
Mg6 O17 2.106 1_554 S
Mg6 O19 2.079 1_554 S
Mg6 O28 2.106 . S
Mg6 O29 2.079 . S
O7 Mg6 1.917 1_556 S
O7 Mg8 1.926 . S
O7 Mg9 1.986 . S
Mg8 O7 1.926 . S
Mg8 O22 1.984 . S
Mg8 O25 1.988 . S
Mg8 O26 2.061 . S
Mg9 O7 1.986 . S
Mg9 O17 2.238 . S
Mg9 O21 2.042 . S
Mg9 O23 2.041 . S
Mg9 O30 2.038 1_556 S
C10 O16 1.247 1_556 S
C10 O17 1.289 . S
C11 O29 1.245 . S
C11 O30 1.274 . S
O12 C0 1.241 . S
O12 Mg5 2.042 . S
O13 C0 1.280 . S
O13 Mg3 1.984 . S
O14 C1 1.277 . S
O14 Mg5 2.041 . S
O15 C1 1.245 . S
O15 Mg3 1.988 . S
O16 Mg3 2.061 . S
O16 C10 1.247 1_554 S
O17 Mg6 2.106 1_556 S
O17 Mg9 2.238 . S
O17 C10 1.289 . S
C18 O19 1.245 . S
C18 O20 1.274 1_556 S
O19 Mg6 2.079 1_556 S
O19 C18 1.245 . S
O20 Mg5 2.038 . S
O20 C18 1.274 1_554 S
O21 Mg9 2.042 . S
O21 C24 1.241 . S
O22 Mg8 1.984 . S
O22 C24 1.280 . S
O23 Mg9 2.041 . S
O23 C27 1.277 . S
C24 O21 1.241 . S
C24 O22 1.280 . S
O25 Mg8 1.988 . S
O25 C27 1.245 . S
O26 C2 1.247 1_556 S
O26 Mg8 2.061 . S
C27 O23 1.277 . S
C27 O25 1.245 . S
O28 C2 1.289 . S
O28 Mg5 2.238 . S
O28 Mg6 2.106 . S
O29 Mg6 2.079 . S
O29 C11 1.245 . S
O30 Mg9 2.038 1_554 S
O30 C11 1.274 . S
C31 O43 1.241 . S
C31 O44 1.280 . S
C32 O45 1.277 . S
C32 O46 1.245 . S
C33 O57 1.247 . S
C33 O59 1.289 . S
Mg34 O35 1.926 . S
Mg34 O44 1.984 . S
Mg34 O46 1.988 . S
Mg34 O47 2.061 . S
O35 Mg34 1.926 . S
O35 Mg36 1.986 . S
O35 Mg37 1.917 . S
Mg36 O35 1.986 . S
Mg36 O43 2.042 . S
Mg36 O45 2.041 . S
Mg36 O51 2.038 . S
Mg36 O59 2.238 . S
Mg37 O35 1.917 . S
Mg37 O38 1.917 . S
Mg37 O48 2.106 . S
Mg37 O50 2.079 . S
Mg37 O59 2.106 . S
Mg37 O60 2.079 . S
O38 Mg37 1.917 . S
O38 Mg39 1.926 . S
O38 Mg40 1.986 . S
Mg39 O38 1.926 . S
Mg39 O53 1.984 . S
Mg39 O56 1.988 . S
Mg39 O57 2.061 . S
Mg40 O38 1.986 . S
Mg40 O48 2.238 . S
Mg40 O52 2.042 . S
Mg40 O54 2.041 . S
Mg40 O61 2.038 . S
C41 O47 1.247 . S
C41 O48 1.289 . S
C42 O60 1.245 . S
C42 O61 1.274 . S
O43 C31 1.241 . S
O43 Mg36 2.042 . S
O44 C31 1.280 . S
O44 Mg34 1.984 . S
O45 C32 1.277 . S
O45 Mg36 2.041 . S
O46 C32 1.245 . S
O46 Mg34 1.988 . S
O47 Mg34 2.061 . S
O47 C41 1.247 . S
O48 Mg37 2.106 . S
O48 Mg40 2.238 . S
O48 C41 1.289 . S
C49 O50 1.245 . S
C49 O51 1.274 . S
O50 Mg37 2.079 . S
O50 C49 1.245 . S
O51 Mg36 2.038 . S
O51 C49 1.274 . S
O52 Mg40 2.042 . S
O52 C55 1.241 . S
O53 Mg39 1.984 . S
O53 C55 1.280 . S
O54 Mg40 2.041 . S
O54 C58 1.277 . S
C55 O52 1.241 . S
C55 O53 1.280 . S
O56 Mg39 1.988 . S
O56 C58 1.245 . S
O57 C33 1.247 . S
O57 Mg39 2.061 . S
C58 O54 1.277 . S
C58 O56 1.245 . S
O59 C33 1.289 . S
O59 Mg36 2.238 . S
O59 Mg37 2.106 . S
O60 Mg37 2.079 . S
O60 C42 1.245 . S
O61 Mg40 2.038 . S
O61 C42 1.274 . S
C62 O74 1.241 . S
C62 O75 1.280 . S
C63 O76 1.277 . S
C63 O77 1.245 . S
C64 O88 1.247 . S
C64 O90 1.289 . S
Mg65 O66 1.926 . S
Mg65 O75 1.984 . S
Mg65 O77 1.988 . S
Mg65 O78 2.061 . S
O66 Mg65 1.926 . S
O66 Mg67 1.986 . S
O66 Mg68 1.917 . S
Mg67 O66 1.986 . S
Mg67 O74 2.042 . S
Mg67 O76 2.041 . S
Mg67 O82 2.038 . S
Mg67 O90 2.238 . S
Mg68 O66 1.917 . S
Mg68 O69 1.917 . S
Mg68 O79 2.106 . S
Mg68 O81 2.079 . S
Mg68 O90 2.106 . S
Mg68 O91 2.079 . S
O69 Mg68 1.917 . S
O69 Mg70 1.926 . S
O69 Mg71 1.986 . S
Mg70 O69 1.926 . S
Mg70 O84 1.984 . S
Mg70 O87 1.988 . S
Mg70 O88 2.061 . S
Mg71 O69 1.986 . S
Mg71 O79 2.238 . S
Mg71 O83 2.042 . S
Mg71 O85 2.041 . S
Mg71 O92 2.038 . S
C72 O78 1.247 . S
C72 O79 1.289 . S
C73 O91 1.245 . S
C73 O92 1.274 . S
O74 C62 1.241 . S
O74 Mg67 2.042 . S
O75 C62 1.280 . S
O75 Mg65 1.984 . S
O76 C63 1.277 . S
O76 Mg67 2.041 . S
O77 C63 1.245 . S
O77 Mg65 1.988 . S
O78 Mg65 2.061 . S
O78 C72 1.247 . S
O79 Mg68 2.106 . S
O79 Mg71 2.238 . S
O79 C72 1.289 . S
C80 O81 1.245 . S
C80 O82 1.274 . S
O81 Mg68 2.079 . S
O81 C80 1.245 . S
O82 Mg67 2.038 . S
O82 C80 1.274 . S
O83 Mg71 2.042 . S
O83 C86 1.241 . S
O84 Mg70 1.984 . S
O84 C86 1.280 . S
O85 Mg71 2.041 . S
O85 C89 1.277 . S
C86 O83 1.241 . S
C86 O84 1.280 . S
O87 Mg70 1.988 . S
O87 C89 1.245 . S
O88 C64 1.247 . S
O88 Mg70 2.061 . S
C89 O85 1.277 . S
C89 O87 1.245 . S
O90 C64 1.289 . S
O90 Mg67 2.238 . S
O90 Mg68 2.106 . S
O91 Mg68 2.079 . S
O91 C73 1.245 . S
O92 Mg71 2.038 . S
O92 C73 1.274 . S
C93 O105 1.241 . S
C93 O106 1.280 . S
C94 O107 1.277 . S
C94 O108 1.245 . S
C95 O119 1.247 . S
C95 O121 1.289 . S
Mg96 O97 1.926 . S
Mg96 O106 1.984 . S
Mg96 O108 1.988 . S
Mg96 O109 2.061 . S
O97 Mg96 1.926 . S
O97 Mg98 1.986 . S
O97 Mg99 1.917 . S
Mg98 O97 1.986 . S
Mg98 O105 2.042 . S
Mg98 O107 2.041 . S
Mg98 O113 2.038 . S
Mg98 O121 2.238 . S
Mg99 O97 1.917 . S
Mg99 O100 1.917 . S
Mg99 O110 2.106 . S
Mg99 O112 2.079 . S
Mg99 O121 2.106 . S
Mg99 O122 2.079 . S
O100 Mg99 1.917 . S
O100 Mg101 1.926 . S
O100 Mg102 1.986 . S
Mg101 O100 1.926 . S
Mg101 O115 1.984 . S
Mg101 O118 1.988 . S
Mg101 O119 2.061 . S
Mg102 O100 1.986 . S
Mg102 O110 2.238 . S
Mg102 O114 2.042 . S
Mg102 O116 2.041 . S
Mg102 O123 2.038 . S
C103 O109 1.247 . S
C103 O110 1.289 . S
C104 O122 1.245 . S
C104 O123 1.274 . S
O105 C93 1.241 . S
O105 Mg98 2.042 . S
O106 C93 1.280 . S
O106 Mg96 1.984 . S
O107 C94 1.277 . S
O107 Mg98 2.041 . S
O108 C94 1.245 . S
O108 Mg96 1.988 . S
O109 Mg96 2.061 . S
O109 C103 1.247 . S
O110 Mg99 2.106 . S
O110 Mg102 2.238 . S
O110 C103 1.289 . S
C111 O112 1.245 . S
C111 O113 1.274 . S
O112 Mg99 2.079 . S
O112 C111 1.245 . S
O113 Mg98 2.038 . S
O113 C111 1.274 . S
O114 Mg102 2.042 . S
O114 C117 1.241 . S
O115 Mg101 1.984 . S
O115 C117 1.280 . S
O116 Mg102 2.041 . S
O116 C120 1.277 . S
C117 O114 1.241 . S
C117 O115 1.280 . S
O118 Mg101 1.988 . S
O118 C120 1.245 . S
O119 C95 1.247 . S
O119 Mg101 2.061 . S
C120 O116 1.277 . S
C120 O118 1.245 . S
O121 C95 1.289 . S
O121 Mg98 2.238 . S
O121 Mg99 2.106 . S
O122 Mg99 2.079 . S
O122 C104 1.245 . S
O123 Mg102 2.038 . S
O123 C104 1.274 . S
H124 C130 0.930 . S
H125 C134 0.930 . S
H126 C139 0.929 . S
H127 C137 0.929 . S
H128 C132 0.929 . S
H129 C138 0.929 . S
C130 H124 0.930 . S
C130 C131 1.367 . S
C130 C138 1.378 . S
C131 C130 1.367 . S
C131 C139 1.433 . S
C132 H128 0.929 . S
C132 C134 1.378 . S
C132 C136 1.350 . S
C133 C136 1.463 . S
C133 C138 1.350 . S
C133 N141 1.427 . S
C134 H125 0.930 . S
C134 C132 1.378 . S
C134 C135 1.367 . S
C135 C134 1.367 . S
C135 C137 1.433 . S
C136 C132 1.350 . S
C136 C133 1.463 . S
C136 N140 1.427 . S
C137 H127 0.929 . S
C137 C135 1.433 . S
C137 N140 1.384 . S
C138 H129 0.929 . S
C138 C130 1.378 . S
C138 C133 1.350 . S
C139 H126 0.929 . S
C139 C131 1.433 . S
C139 N141 1.384 . S
N140 C136 1.427 . S
N140 C137 1.384 . S
N141 C133 1.427 . S
N141 C139 1.384 . S
H142 C148 0.930 . S
H143 C152 0.930 . S
H144 C157 0.929 . S
H145 C155 0.929 . S
H146 C150 0.929 . S
H147 C156 0.929 . S
C148 H142 0.930 . S
C148 C149 1.367 . S
C148 C156 1.378 . S
C149 C148 1.367 . S
C149 C157 1.433 . S
C150 H146 0.929 . S
C150 C152 1.378 . S
C150 C154 1.350 . S
C151 C154 1.463 . S
C151 C156 1.350 . S
C151 N159 1.427 . S
C152 H143 0.930 . S
C152 C150 1.378 . S
C152 C153 1.367 . S
C153 C152 1.367 . S
C153 C155 1.433 . S
C154 C150 1.350 . S
C154 C151 1.463 . S
C154 N158 1.427 . S
C155 H145 0.929 . S
C155 C153 1.433 . S
C155 N158 1.384 . S
C156 H147 0.929 . S
C156 C148 1.378 . S
C156 C151 1.350 . S
C157 H144 0.929 . S
C157 C149 1.433 . S
C157 N159 1.384 . S
N158 C154 1.427 . S
N158 C155 1.384 . S
N159 C151 1.427 . S
N159 C157 1.384 . S
H160 C166 0.930 . S
H161 C170 0.930 . S
H162 C175 0.929 . S
H163 C173 0.929 . S
H164 C168 0.929 . S
H165 C174 0.929 . S
C166 H160 0.930 . S
C166 C167 1.367 . S
C166 C174 1.378 . S
C167 C166 1.367 . S
C167 C175 1.433 . S
C168 H164 0.929 . S
C168 C170 1.378 . S
C168 C172 1.350 . S
C169 C172 1.463 1_556 S
C169 C174 1.350 . S
C169 N177 1.427 . S
C170 H161 0.930 . S
C170 C168 1.378 . S
C170 C171 1.367 . S
C171 C170 1.367 . S
C171 C173 1.433 . S
C172 C168 1.350 . S
C172 C169 1.463 1_554 S
C172 N176 1.427 . S
C173 H163 0.929 . S
C173 C171 1.433 . S
C173 N176 1.384 . S
C174 H165 0.929 . S
C174 C166 1.378 . S
C174 C169 1.350 . S
C175 H162 0.929 . S
C175 C167 1.433 . S
C175 N177 1.384 . S
N176 C172 1.427 . S
N176 C173 1.384 . S
N177 C169 1.427 . S
N177 C175 1.384 . S
H178 C184 0.930 . S
H179 C188 0.930 . S
H180 C193 0.929 . S
H181 C191 0.929 . S
H182 C186 0.929 . S
H183 C192 0.929 . S
C184 H178 0.930 . S
C184 C185 1.367 . S
C184 C192 1.378 . S
C185 C184 1.367 . S
C185 C193 1.433 . S
C186 H182 0.929 . S
C186 C188 1.378 . S
C186 C190 1.350 . S
C187 C190 1.463 . S
C187 C192 1.350 . S
C187 N195 1.427 . S
C188 H179 0.930 . S
C188 C186 1.378 . S
C188 C189 1.367 . S
C189 C188 1.367 . S
C189 C191 1.433 . S
C190 C186 1.350 . S
C190 C187 1.463 . S
C190 N194 1.427 . S
C191 H181 0.929 . S
C191 C189 1.433 . S
C191 N194 1.384 . S
C192 H183 0.929 . S
C192 C184 1.378 . S
C192 C187 1.350 . S
C193 H180 0.929 . S
C193 C185 1.433 . S
C193 N195 1.384 . S
N194 C190 1.427 . S
N194 C191 1.384 . S
N195 C187 1.427 . S
N195 C193 1.384 . S
H196 C202 0.930 . S
H197 C206 0.930 . S
H198 C211 0.929 . S
H199 C209 0.929 . S
H200 C204 0.929 . S
H201 C210 0.929 . S
C202 H196 0.930 . S
C202 C203 1.367 . S
C202 C210 1.378 . S
C203 C202 1.367 . S
C203 C211 1.433 . S
C204 H200 0.929 . S
C204 C206 1.378 . S
C204 C208 1.350 . S
C205 C208 1.463 . S
C205 C210 1.350 . S
C205 N213 1.427 . S
C206 H197 0.930 . S
C206 C204 1.378 . S
C206 C207 1.367 . S
C207 C206 1.367 . S
C207 C209 1.433 . S
C208 C204 1.350 . S
C208 C205 1.463 . S
C208 N212 1.427 . S
C209 H199 0.929 . S
C209 C207 1.433 . S
C209 N212 1.384 . S
C210 H201 0.929 . S
C210 C202 1.378 . S
C210 C205 1.350 . S
C211 H198 0.929 . S
C211 C203 1.433 . S
C211 N213 1.384 . S
N212 C208 1.427 . S
N212 C209 1.384 . S
N213 C205 1.427 . S
N213 C211 1.384 . S
H214 C220 0.930 . S
H215 C224 0.930 . S
H216 C229 0.929 . S
H217 C227 0.929 . S
H218 C222 0.929 . S
H219 C228 0.929 . S
C220 H214 0.930 . S
C220 C221 1.367 . S
C220 C228 1.378 . S
C221 C220 1.367 . S
C221 C229 1.433 . S
C222 H218 0.929 . S
C222 C224 1.378 1_545 S
C222 C226 1.350 . S
C223 C226 1.463 . S
C223 C228 1.350 . S
C223 N231 1.427 . S
C224 H215 0.930 . S
C224 C222 1.378 1_565 S
C224 C225 1.367 . S
C225 C224 1.367 . S
C225 C227 1.433 . S
C226 C222 1.350 . S
C226 C223 1.463 . S
C226 N230 1.427 . S
C227 H217 0.929 . S
C227 C225 1.433 . S
C227 N230 1.384 1_565 S
C228 H219 0.929 . S
C228 C220 1.378 . S
C228 C223 1.350 . S
C229 H216 0.929 . S
C229 C221 1.433 . S
C229 N231 1.384 . S
N230 C226 1.427 . S
N230 C227 1.384 1_545 S
N231 C223 1.427 . S
N231 C229 1.384 . S
H232 C238 0.930 . S
H233 C242 0.930 . S
H234 C247 0.929 . S
H235 C245 0.929 . S
H236 C240 0.929 . S
H237 C246 0.929 . S
C238 H232 0.930 . S
C238 C239 1.367 . S
C238 C246 1.378 . S
C239 C238 1.367 . S
C239 C247 1.433 . S
C240 H236 0.929 . S
C240 C242 1.378 . S
C240 C244 1.350 . S
C241 C244 1.463 . S
C241 C246 1.350 . S
C241 N249 1.427 . S
C242 H233 0.930 . S
C242 C240 1.378 . S
C242 C243 1.367 . S
C243 C242 1.367 . S
C243 C245 1.433 . S
C244 C240 1.350 . S
C244 C241 1.463 . S
C244 N248 1.427 . S
C245 H235 0.929 . S
C245 C243 1.433 . S
C245 N248 1.384 . S
C246 H237 0.929 . S
C246 C238 1.378 . S
C246 C241 1.350 . S
C247 H234 0.929 . S
C247 C239 1.433 . S
C247 N249 1.384 . S
N248 C244 1.427 . S
N248 C245 1.384 . S
N249 C241 1.427 . S
N249 C247 1.384 . S
H250 C256 0.930 . S
H251 C260 0.930 . S
H252 C265 0.929 . S
H253 C263 0.929 . S
H254 C258 0.929 . S
H255 C264 0.929 . S
C256 H250 0.930 . S
C256 C257 1.367 . S
C256 C264 1.378 . S
C257 C256 1.367 . S
C257 C265 1.433 . S
C258 H254 0.929 . S
C258 C260 1.378 1_565 S
C258 C262 1.350 . S
C259 C262 1.463 . S
C259 C264 1.350 . S
C259 N267 1.427 . S
C260 H251 0.930 . S
C260 C258 1.378 1_545 S
C260 C261 1.367 . S
C261 C260 1.367 . S
C261 C263 1.433 . S
C262 C258 1.350 . S
C262 C259 1.463 . S
C262 N266 1.427 . S
C263 H253 0.929 . S
C263 C261 1.433 . S
C263 N266 1.384 1_545 S
C264 H255 0.929 . S
C264 C256 1.378 . S
C264 C259 1.350 . S
C265 H252 0.929 . S
C265 C257 1.433 . S
C265 N267 1.384 . S
N266 C262 1.427 . S
N266 C263 1.384 1_565 S
N267 C259 1.427 . S
N267 C265 1.384 . S
H268 C274 0.930 1_654 S
H269 C278 0.930 . S
H270 C283 0.921 1_655 S
H271 C281 0.929 . S
H272 C276 0.929 . S
H273 C282 0.929 . S
C274 H268 0.930 1_456 S
C274 C275 1.367 1_455 S
C274 C282 1.378 . S
C275 C274 1.367 1_655 S
C275 C283 1.425 1_655 S
C276 H272 0.929 . S
C276 C278 1.378 . S
C276 C280 1.350 . S
C277 C280 1.463 . S
C277 C282 1.350 . S
C277 N285 1.427 . S
C278 H269 0.930 . S
C278 C276 1.378 . S
C278 C279 1.367 . S
C279 C278 1.367 . S
C279 C281 1.433 . S
C280 C276 1.350 . S
C280 C277 1.463 . S
C280 N284 1.427 . S
C281 H271 0.929 . S
C281 C279 1.433 . S
C281 N284 1.384 . S
C282 H273 0.929 . S
C282 C274 1.378 . S
C282 C277 1.350 . S
C283 H270 0.921 1_455 S
C283 C275 1.425 1_455 S
C283 N285 1.401 . S
N284 C280 1.427 . S
N284 C281 1.384 . S
N285 C277 1.427 . S
N285 C283 1.401 . S
H286 C292 0.930 . S
H287 C296 0.930 . S
H288 C301 0.929 . S
H289 C299 0.929 . S
H290 C294 0.929 . S
H291 C300 0.929 . S
C292 H286 0.930 . S
C292 C293 1.367 . S
C292 C300 1.378 . S
C293 C292 1.367 . S
C293 C301 1.433 . S
C294 H290 0.929 . S
C294 C296 1.378 . S
C294 C298 1.350 . S
C295 C298 1.463 . S
C295 C300 1.350 . S
C295 N303 1.427 . S
C296 H287 0.930 . S
C296 C294 1.378 . S
C296 C297 1.367 . S
C297 C296 1.367 . S
C297 C299 1.433 . S
C298 C294 1.350 . S
C298 C295 1.463 . S
C298 N302 1.427 . S
C299 H289 0.929 . S
C299 C297 1.433 . S
C299 N302 1.384 . S
C300 H291 0.929 . S
C300 C292 1.378 . S
C300 C295 1.350 . S
C301 H288 0.929 . S
C301 C293 1.433 . S
C301 N303 1.384 . S
N302 C298 1.427 . S
N302 C299 1.384 . S
N303 C295 1.427 . S
N303 C301 1.384 . S
H304 C310 0.930 . S
H305 C314 0.930 . S
H306 C319 0.929 . S
H307 C317 0.929 . S
H308 C312 0.929 . S
H309 C318 0.929 . S
C310 H304 0.930 . S
C310 C311 1.367 . S
C310 C318 1.378 . S
C311 C310 1.367 . S
C311 C319 1.433 . S
C312 H308 0.929 . S
C312 C314 1.378 1_655 S
C312 C316 1.350 . S
C313 C316 1.463 . S
C313 C318 1.350 . S
C313 N321 1.427 . S
C314 H305 0.930 . S
C314 C312 1.378 1_455 S
C314 C315 1.367 . S
C315 C314 1.367 . S
C315 C317 1.433 1_455 S
C316 C312 1.350 . S
C316 C313 1.463 . S
C316 N320 1.427 . S
C317 H307 0.929 . S
C317 C315 1.433 1_655 S
C317 N320 1.384 . S
C318 H309 0.929 . S
C318 C310 1.378 . S
C318 C313 1.350 . S
C319 H306 0.929 . S
C319 C311 1.433 . S
C319 N321 1.384 . S
N320 C316 1.427 . S
N320 C317 1.384 . S
N321 C313 1.427 . S
N321 C319 1.384 . S
H322 C328 0.930 . S
H323 C332 0.930 . S
H324 C337 0.929 . S
H325 C335 0.929 . S
H326 C330 0.929 . S
H327 C336 0.929 . S
C328 H322 0.930 . S
C328 C329 1.367 . S
C328 C336 1.378 . S
C329 C328 1.367 . S
C329 C337 1.433 . S
C330 H326 0.929 . S
C330 C332 1.378 . S
C330 C334 1.350 . S
C331 C334 1.463 . S
C331 C336 1.350 . S
C331 N339 1.427 . S
C332 H323 0.930 . S
C332 C330 1.378 . S
C332 C333 1.367 . S
C333 C332 1.367 . S
C333 C335 1.433 . S
C334 C330 1.350 . S
C334 C331 1.463 . S
C334 N338 1.427 . S
C335 H325 0.929 . S
C335 C333 1.433 . S
C335 N338 1.384 . S
C336 H327 0.929 . S
C336 C328 1.378 . S
C336 C331 1.350 . S
C337 H324 0.929 . S
C337 C329 1.433 . S
C337 N339 1.384 . S
N338 C334 1.427 . S
N338 C335 1.384 . S
N339 C331 1.427 . S
N339 C337 1.384 . S
H340 C346 0.930 . S
H341 C350 0.930 . S
H342 C355 0.929 . S
H343 C353 0.929 . S
H344 C348 0.929 . S
H345 C354 0.929 . S
C346 H340 0.930 . S
C346 C347 1.367 . S
C346 C354 1.378 . S
C347 C346 1.367 . S
C347 C355 1.433 . S
C348 H344 0.929 . S
C348 C350 1.378 . S
C348 C352 1.350 . S
C349 C352 1.463 1_445 S
C349 C354 1.350 . S
C349 N357 1.427 1_545 S
C350 H341 0.930 . S
C350 C348 1.378 . S
C350 C351 1.367 . S
C351 C350 1.367 . S
C351 C353 1.433 . S
C352 C348 1.350 . S
C352 C349 1.463 1_665 S
C352 N356 1.427 . S
C353 H343 0.929 . S
C353 C351 1.433 . S
C353 N356 1.384 . S
C354 H345 0.929 . S
C354 C346 1.378 . S
C354 C349 1.350 . S
C355 H342 0.929 . S
C355 C347 1.433 . S
C355 N357 1.384 1_545 S
N356 C352 1.427 . S
N356 C353 1.384 . S
N357 C349 1.427 1_565 S
N357 C355 1.384 1_565 S
H358 C364 0.930 . S
H359 C368 0.930 . S
H360 C373 0.929 . S
H361 C371 0.929 . S
H362 C366 0.929 . S
H363 C372 0.929 . S
C364 H358 0.930 . S
C364 C365 1.367 . S
C364 C372 1.378 . S
C365 C364 1.367 . S
C365 C373 1.433 . S
C366 H362 0.929 . S
C366 C368 1.378 . S
C366 C370 1.350 . S
C367 C370 1.463 . S
C367 C372 1.350 . S
C367 N375 1.427 . S
C368 H359 0.930 . S
C368 C366 1.378 . S
C368 C369 1.367 . S
C369 C368 1.367 . S
C369 C371 1.433 . S
C370 C366 1.350 . S
C370 C367 1.463 . S
C370 N374 1.427 . S
C371 H361 0.929 . S
C371 C369 1.433 . S
C371 N374 1.384 . S
C372 H363 0.929 . S
C372 C364 1.378 . S
C372 C367 1.350 . S
C373 H360 0.929 . S
C373 C365 1.433 . S
C373 N375 1.384 . S
N374 C370 1.427 . S
N374 C371 1.384 . S
N375 C367 1.427 . S
N375 C373 1.384 . S
H376 C382 0.930 . S
H377 C386 0.930 . S
H378 C391 0.929 . S
H379 C389 0.929 . S
H380 C384 0.929 . S
H381 C390 0.929 . S
C382 H376 0.930 . S
C382 C383 1.367 1_455 S
C382 C390 1.378 . S
C383 C382 1.367 1_655 S
C383 C391 1.433 . S
C384 H380 0.929 . S
C384 C386 1.378 . S
C384 C388 1.350 . S
C385 C388 1.463 . S
C385 C390 1.350 1_655 S
C385 N393 1.427 . S
C386 H377 0.930 . S
C386 C384 1.378 . S
C386 C387 1.367 1_545 S
C387 C386 1.367 1_565 S
C387 C389 1.433 . S
C388 C384 1.350 . S
C388 C385 1.463 . S
C388 N392 1.427 1_545 S
C389 H379 0.929 . S
C389 C387 1.433 . S
C389 N392 1.384 . S
C390 H381 0.929 . S
C390 C382 1.378 . S
C390 C385 1.350 1_455 S
C391 H378 0.929 . S
C391 C383 1.433 . S
C391 N393 1.384 . S
N392 C388 1.427 1_565 S
N392 C389 1.384 . S
N393 C385 1.427 . S
N393 C391 1.384 . S
H394 C400 0.930 . S
H395 C404 0.930 . S
H396 C409 0.929 . S
H397 C407 0.929 . S
H398 C402 0.929 . S
H399 C408 0.929 . S
C400 H394 0.930 . S
C400 C401 1.367 . S
C400 C408 1.378 . S
C401 C400 1.367 . S
C401 C409 1.433 . S
C402 H398 0.929 . S
C402 C404 1.378 1_554 S
C402 C406 1.350 . S
C403 C406 1.463 . S
C403 C408 1.350 . S
C403 N411 1.427 . S
C404 H395 0.930 . S
C404 C402 1.378 1_556 S
C404 C405 1.367 . S
C405 C404 1.367 . S
C405 C407 1.433 . S
C406 C402 1.350 . S
C406 C403 1.463 . S
C406 N410 1.427 1_554 S
C407 H397 0.929 . S
C407 C405 1.433 . S
C407 N410 1.384 . S
C408 H399 0.929 . S
C408 C400 1.378 . S
C408 C403 1.350 . S
C409 H396 0.929 . S
C409 C401 1.433 . S
C409 N411 1.384 . S
N410 C406 1.427 1_556 S
N410 C407 1.384 . S
N411 C403 1.427 . S
N411 C409 1.384 . S
C131 C1 1.517 . S
C135 C27 1.517 . S
C149 C58 1.526 . S
C153 C32 1.526 1_556 S
C167 C89 1.515 . S
C171 C63 1.515 . S
C185 C120 1.535 1_554 S
C189 C94 1.535 . S
C203 C103 1.598 . S
C207 C18 1.621 . S
C221 C31 1.340 . S
C225 C2 1.276 . S
C239 C62 1.347 . S
C243 C41 1.210 . S
C257 C93 1.916 . S
C261 C72 1.739 . S
C275 C10 2.126 . S
C279 C111 2.151 . S
C293 C33 1.688 . S
C297 C0 1.734 . S
C311 C49 1.497 . S
C315 C64 1.560 . S
C329 C80 2.131 . S
C333 C95 2.213 . S
C347 C73 1.062 . S
C351 C11 1.062 . S
C365 C55 0.691 . S
C369 C104 0.679 . S
C383 C86 0.674 1_655 S
C387 C24 0.674 . S
C401 C42 0.666 . S
C405 C117 0.684 . S
