# Generated by pormake.
# Topology xfc, (7)-cn, num edge types: 1
# Building blocks:
#     Node 0, Type 0, BuildingBlock: HICVOG_clean_sbu_0, # of connection points: 7
#     Node 1, Type 0, BuildingBlock: HICVOG_clean_sbu_0, # of connection points: 7
#     Node 2, Type 0, BuildingBlock: HICVOG_clean_sbu_0, # of connection points: 7
#     Node 3, Type 0, BuildingBlock: HICVOG_clean_sbu_0, # of connection points: 7
#     Node 4, Type 0, BuildingBlock: HICVOG_clean_sbu_0, # of connection points: 7
#     Node 5, Type 0, BuildingBlock: HICVOG_clean_sbu_0, # of connection points: 7
#     Node 6, Type 0, BuildingBlock: HICVOG_clean_sbu_0, # of connection points: 7
#     Node 7, Type 0, BuildingBlock: HICVOG_clean_sbu_0, # of connection points: 7
#     Node 8, Type 0, BuildingBlock: HICVOG_clean_sbu_0, # of connection points: 7
#     Node 9, Type 0, BuildingBlock: HICVOG_clean_sbu_0, # of connection points: 7
#     Node 10, Type 0, BuildingBlock: HICVOG_clean_sbu_0, # of connection points: 7
#     Node 11, Type 0, BuildingBlock: HICVOG_clean_sbu_0, # of connection points: 7
#     Node 12, Type 0, BuildingBlock: HICVOG_clean_sbu_0, # of connection points: 7
#     Node 13, Type 0, BuildingBlock: HICVOG_clean_sbu_0, # of connection points: 7
#     Node 14, Type 0, BuildingBlock: HICVOG_clean_sbu_0, # of connection points: 7
#     Node 15, Type 0, BuildingBlock: HICVOG_clean_sbu_0, # of connection points: 7
#     Edge 16, Type (0, 0), BuildingBlock: UVAHIK_clean_linker_0, # of connection points: 2
#     Edge 17, Type (0, 0), BuildingBlock: UVAHIK_clean_linker_0, # of connection points: 2
#     Edge 18, Type (0, 0), BuildingBlock: UVAHIK_clean_linker_0, # of connection points: 2
#     Edge 19, Type (0, 0), BuildingBlock: UVAHIK_clean_linker_0, # of connection points: 2
#     Edge 20, Type (0, 0), BuildingBlock: UVAHIK_clean_linker_0, # of connection points: 2
#     Edge 21, Type (0, 0), BuildingBlock: UVAHIK_clean_linker_0, # of connection points: 2
#     Edge 22, Type (0, 0), BuildingBlock: UVAHIK_clean_linker_0, # of connection points: 2
#     Edge 23, Type (0, 0), BuildingBlock: UVAHIK_clean_linker_0, # of connection points: 2
#     Edge 24, Type (0, 0), BuildingBlock: UVAHIK_clean_linker_0, # of connection points: 2
#     Edge 25, Type (0, 0), BuildingBlock: UVAHIK_clean_linker_0, # of connection points: 2
#     Edge 26, Type (0, 0), BuildingBlock: UVAHIK_clean_linker_0, # of connection points: 2
#     Edge 27, Type (0, 0), BuildingBlock: UVAHIK_clean_linker_0, # of connection points: 2
#     Edge 28, Type (0, 0), BuildingBlock: UVAHIK_clean_linker_0, # of connection points: 2
#     Edge 29, Type (0, 0), BuildingBlock: UVAHIK_clean_linker_0, # of connection points: 2
#     Edge 30, Type (0, 0), BuildingBlock: UVAHIK_clean_linker_0, # of connection points: 2
#     Edge 31, Type (0, 0), BuildingBlock: UVAHIK_clean_linker_0, # of connection points: 2
#     Edge 32, Type (0, 0), BuildingBlock: UVAHIK_clean_linker_0, # of connection points: 2
#     Edge 33, Type (0, 0), BuildingBlock: UVAHIK_clean_linker_0, # of connection points: 2
#     Edge 34, Type (0, 0), BuildingBlock: UVAHIK_clean_linker_0, # of connection points: 2
#     Edge 35, Type (0, 0), BuildingBlock: UVAHIK_clean_linker_0, # of connection points: 2
#     Edge 36, Type (0, 0), BuildingBlock: UVAHIK_clean_linker_0, # of connection points: 2
#     Edge 37, Type (0, 0), BuildingBlock: UVAHIK_clean_linker_0, # of connection points: 2
#     Edge 38, Type (0, 0), BuildingBlock: UVAHIK_clean_linker_0, # of connection points: 2
#     Edge 39, Type (0, 0), BuildingBlock: UVAHIK_clean_linker_0, # of connection points: 2
#     Edge 40, Type (0, 0), BuildingBlock: UVAHIK_clean_linker_0, # of connection points: 2
#     Edge 41, Type (0, 0), BuildingBlock: UVAHIK_clean_linker_0, # of connection points: 2
#     Edge 42, Type (0, 0), BuildingBlock: UVAHIK_clean_linker_0, # of connection points: 2
#     Edge 43, Type (0, 0), BuildingBlock: UVAHIK_clean_linker_0, # of connection points: 2
#     Edge 44, Type (0, 0), BuildingBlock: UVAHIK_clean_linker_0, # of connection points: 2
#     Edge 45, Type (0, 0), BuildingBlock: UVAHIK_clean_linker_0, # of connection points: 2
#     Edge 46, Type (0, 0), BuildingBlock: UVAHIK_clean_linker_0, # of connection points: 2
#     Edge 47, Type (0, 0), BuildingBlock: UVAHIK_clean_linker_0, # of connection points: 2
#     Edge 48, Type (0, 0), BuildingBlock: UVAHIK_clean_linker_0, # of connection points: 2
#     Edge 49, Type (0, 0), BuildingBlock: UVAHIK_clean_linker_0, # of connection points: 2
#     Edge 50, Type (0, 0), BuildingBlock: UVAHIK_clean_linker_0, # of connection points: 2
#     Edge 51, Type (0, 0), BuildingBlock: UVAHIK_clean_linker_0, # of connection points: 2
#     Edge 52, Type (0, 0), BuildingBlock: UVAHIK_clean_linker_0, # of connection points: 2
#     Edge 53, Type (0, 0), BuildingBlock: UVAHIK_clean_linker_0, # of connection points: 2
#     Edge 54, Type (0, 0), BuildingBlock: UVAHIK_clean_linker_0, # of connection points: 2
#     Edge 55, Type (0, 0), BuildingBlock: UVAHIK_clean_linker_0, # of connection points: 2
#     Edge 56, Type (0, 0), BuildingBlock: UVAHIK_clean_linker_0, # of connection points: 2
#     Edge 57, Type (0, 0), BuildingBlock: UVAHIK_clean_linker_0, # of connection points: 2
#     Edge 58, Type (0, 0), BuildingBlock: UVAHIK_clean_linker_0, # of connection points: 2
#     Edge 59, Type (0, 0), BuildingBlock: UVAHIK_clean_linker_0, # of connection points: 2
#     Edge 60, Type (0, 0), BuildingBlock: UVAHIK_clean_linker_0, # of connection points: 2
#     Edge 61, Type (0, 0), BuildingBlock: UVAHIK_clean_linker_0, # of connection points: 2
#     Edge 62, Type (0, 0), BuildingBlock: UVAHIK_clean_linker_0, # of connection points: 2
#     Edge 63, Type (0, 0), BuildingBlock: UVAHIK_clean_linker_0, # of connection points: 2
#     Edge 64, Type (0, 0), BuildingBlock: UVAHIK_clean_linker_0, # of connection points: 2
#     Edge 65, Type (0, 0), BuildingBlock: UVAHIK_clean_linker_0, # of connection points: 2
#     Edge 66, Type (0, 0), BuildingBlock: UVAHIK_clean_linker_0, # of connection points: 2
#     Edge 67, Type (0, 0), BuildingBlock: UVAHIK_clean_linker_0, # of connection points: 2
#     Edge 68, Type (0, 0), BuildingBlock: UVAHIK_clean_linker_0, # of connection points: 2
#     Edge 69, Type (0, 0), BuildingBlock: UVAHIK_clean_linker_0, # of connection points: 2
#     Edge 70, Type (0, 0), BuildingBlock: UVAHIK_clean_linker_0, # of connection points: 2
#     Edge 71, Type (0, 0), BuildingBlock: UVAHIK_clean_linker_0, # of connection points: 2
# Relax obj value: 0.449
# Max RMSD: 0.249
# Mean RMSD: 0.248
data_MOF--net-xfc--node1-HICVOG_clean_sbu_0--edge1-UVAHIK_clean_linker_0
_symmetry_space_group_name_H-M    P1
_symmetry_Int_Tables_number       1
_symmetry_cell_setting            triclinic
loop_
_symmetry_equiv_pos_as_xyz
'x, y, z'
_cell_length_a     53.345858
_cell_length_b     53.345754
_cell_length_c     34.02796
_cell_angle_alpha  89.928559
_cell_angle_beta   90.066631
_cell_angle_gamma 89.887734
loop_
_atom_site_label
_atom_site_type_symbol
_atom_site_fract_x
_atom_site_fract_y
_atom_site_fract_z
_atom_type_partial_charge
Zn0 Zn 0.02648 0.99579 0.2548 0.0
C1 C 0.98166 0.97178 0.34369 0.0
N2 N 0.00369 0.9701 0.36267 0.0
C3 C 0.02033 0.97737 0.33547 0.0
N4 N 0.00908 0.98295 0.30092 0.0
N5 N 0.98464 0.97953 0.30606 0.0
C6 C 0.93844 0.02522 0.25481 0.0
O7 O 0.96233 0.02911 0.24771 0.0
O8 O 0.05801 0.97612 0.24411 0.0
Zn9 Zn 0.95856 0.97622 0.26584 0.0
N10 N 0.03472 0.03072 0.26309 0.0
C11 C 0.02781 0.06808 0.29947 0.0
C12 C 0.02264 0.04293 0.29253 0.0
C13 C 0.05184 0.04268 0.24005 0.0
N14 N 0.04481 0.08005 0.27658 0.0
C15 C 0.05718 0.06821 0.24687 0.0
O16 O 0.97017 0.97624 0.20944 0.0
C17 C 0.98839 0.9835 0.1883 0.0
O18 O 0.00841 0.99202 0.20339 0.0
H19 H 0.00899 0.03324 0.31038 0.0
H20 H 0.06067 0.03244 0.2164 0.0
C21 C 0.9197 0.93917 0.281 0.0
C22 C 0.91172 0.91475 0.29095 0.0
C23 C 0.95395 0.90056 0.28522 0.0
C24 C 0.9616 0.92464 0.27561 0.0
N25 N 0.94445 0.94346 0.2742 0.0
N26 N 0.92939 0.89626 0.29266 0.0
H27 H 0.9069 0.95481 0.27924 0.0
C28 C 0.05403 0.95427 0.23059 0.0
O29 O 0.03089 0.94592 0.22924 0.0
O30 O 0.93175 0.00365 0.26698 0.0
H31 H 0.98119 0.92859 0.27033 0.0
H32 H 0.01833 0.07809 0.32277 0.0
H33 H 0.96739 0.8854 0.28701 0.0
Zn34 Zn 0.27067 0.71085 0.53429 0.0
C35 C 0.2811 0.77059 0.6066 0.0
N36 N 0.28856 0.75305 0.63226 0.0
C37 C 0.2848 0.73146 0.61274 0.0
N38 N 0.27534 0.73569 0.57617 0.0
N39 N 0.27325 0.76045 0.57241 0.0
C40 C 0.30635 0.80024 0.49678 0.0
O41 O 0.31071 0.77606 0.49387 0.0
O42 O 0.23853 0.68984 0.53714 0.0
Zn43 Zn 0.26134 0.78088 0.52822 0.0
N44 N 0.29773 0.68695 0.53609 0.0
C45 C 0.33942 0.67363 0.5496 0.0
C46 C 0.32146 0.69267 0.54753 0.0
C47 C 0.29158 0.66342 0.52472 0.0
N48 N 0.33325 0.65004 0.53801 0.0
C49 C 0.30976 0.64448 0.52498 0.0
O50 O 0.25784 0.76372 0.47603 0.0
C51 C 0.26384 0.7433 0.45931 0.0
O52 O 0.27063 0.72411 0.47878 0.0
H53 H 0.32619 0.71165 0.5558 0.0
H54 H 0.27269 0.65962 0.515 0.0
C55 C 0.22029 0.81535 0.51657 0.0
C56 C 0.19925 0.82944 0.52835 0.0
C57 C 0.19913 0.80764 0.58925 0.0
C58 C 0.21999 0.7938 0.57752 0.0
N59 N 0.23035 0.79808 0.54167 0.0
N60 N 0.1894 0.82518 0.56463 0.0
H61 H 0.22909 0.81862 0.48837 0.0
C62 C 0.21912 0.6954 0.51702 0.0
O63 O 0.21751 0.71778 0.5011 0.0
O64 O 0.28657 0.80753 0.51422 0.0
H65 H 0.22809 0.78005 0.59714 0.0
H66 H 0.35823 0.67765 0.55963 0.0
H67 H 0.19086 0.80463 0.61788 0.0
Zn68 Zn 0.47916 0.01219 0.78259 0.0
C69 C 0.53167 0.03951 0.85974 0.0
N70 N 0.5109 0.04837 0.87726 0.0
C71 C 0.49243 0.03991 0.85407 0.0
N72 N 0.5013 0.02664 0.82322 0.0
N73 N 0.52618 0.02631 0.82679 0.0
C74 C 0.5687 0.96301 0.79478 0.0
O75 O 0.54595 0.95772 0.78257 0.0
O76 O 0.45732 0.03923 0.75897 0.0
Zn77 Zn 0.55049 0.01359 0.78857 0.0
N78 N 0.45696 0.98699 0.80459 0.0
C79 C 0.44072 0.96458 0.85936 0.0
C80 C 0.45756 0.98184 0.84369 0.0
C81 C 0.4405 0.97511 0.78026 0.0
N82 N 0.42416 0.95292 0.83524 0.0
C83 C 0.42357 0.95748 0.79585 0.0
O84 O 0.53632 1.00162 0.73764 0.0
C85 C 0.51675 0.99525 0.7191 0.0
O86 O 0.49518 0.99736 0.73441 0.0
H87 H 0.47089 0.99113 0.86259 0.0
H88 H 0.44037 0.97977 0.7493 0.0
C89 C 0.59189 0.02974 0.74951 0.0
C90 C 0.60887 0.04589 0.73124 0.0
C91 C 0.58799 0.08051 0.7606 0.0
C92 C 0.57027 0.06429 0.77683 0.0
N93 N 0.57307 0.03921 0.77174 0.0
N94 N 0.60669 0.07099 0.73786 0.0
H95 H 0.59293 0.0097 0.7451 0.0
C96 C 0.4665 0.05278 0.73179 0.0
O97 O 0.4902 0.04993 0.72231 0.0
O98 O 0.5734 0.98522 0.80626 0.0
H99 H 0.55426 0.0716 0.79244 0.0
H100 H 0.44081 0.96046 0.8905 0.0
H101 H 0.58638 0.10054 0.7648 0.0
Zn102 Zn 0.24346 0.24293 0.01468 0.0
C103 C 0.22206 0.28931 0.10386 0.0
N104 N 0.21494 0.26734 0.11981 0.0
C105 C 0.21994 0.25073 0.09136 0.0
N106 N 0.22967 0.26181 0.05915 0.0
N107 N 0.23078 0.28623 0.06665 0.0
C108 C 0.29275 0.31978 0.01478 0.0
O109 O 0.29158 0.29818 0.9964 0.0
O110 O 0.21918 0.21616 0.99671 0.0
Zn111 Zn 0.23927 0.312 0.02792 0.0
N112 N 0.2743 0.22621 0.0305 0.0
C113 C 0.30502 0.21859 0.07983 0.0
C114 C 0.28382 0.23135 0.06665 0.0
C115 C 0.28546 0.209 0.00654 0.0
N116 N 0.31596 0.20123 0.05627 0.0
C117 C 0.30694 0.19601 0.01972 0.0
O118 O 0.23753 0.30179 0.97071 0.0
C119 C 0.24413 0.28325 0.94967 0.0
O120 O 0.24939 0.26207 0.96468 0.0
H121 H 0.27486 0.24506 0.08533 0.0
H122 H 0.27729 0.20508 0.97809 0.0
C123 C 0.22708 0.36112 0.01398 0.0
C124 C 0.21391 0.38393 0.01403 0.0
C125 C 0.18068 0.3637 0.04829 0.0
C126 C 0.19373 0.34102 0.04707 0.0
N127 N 0.217 0.34048 0.03094 0.0
N128 N 0.19093 0.38447 0.03158 0.0
H129 H 0.24487 0.35904 0.99937 0.0
C130 C 0.20197 0.22247 0.97267 0.0
O131 O 0.19946 0.2462 0.96311 0.0
O132 O 0.27396 0.32704 0.03473 0.0
H133 H 0.18562 0.3242 0.05938 0.0
H134 H 0.31269 0.22234 0.10867 0.0
H135 H 0.16236 0.36473 0.06179 0.0
Zn136 Zn 0.03407 1.00251 0.71628 0.0
C137 C 0.97649 0.02251 0.64332 0.0
N138 N 0.9956 0.0301 0.62035 0.0
C139 C 0.01591 0.02439 0.6419 0.0
N140 N 0.00975 0.0136 0.67636 0.0
N141 N 0.98489 0.01233 0.67747 0.0
C142 C 0.92625 0.96935 0.71156 0.0
O143 O 0.94444 0.95655 0.69495 0.0
O144 O 0.05295 0.03223 0.73915 0.0
Zn145 Zn 0.96753 1.00109 0.72448 0.0
N146 N 0.05812 0.97896 0.69346 0.0
C147 C 0.07329 0.95572 0.63869 0.0
C148 C 0.05593 0.9722 0.6551 0.0
C149 C 0.07648 0.9689 0.71656 0.0
N150 N 0.09171 0.94593 0.6616 0.0
C151 C 0.09375 0.95177 0.70041 0.0
O152 O 0.98229 0.96972 0.74787 0.0
C153 C 1.00058 0.97138 0.77154 0.0
O154 O 0.01919 0.98517 0.76333 0.0
H155 H 0.04075 0.97934 0.63735 0.0
H156 H 0.07763 0.97422 0.74709 0.0
C157 C 0.96158 0.02042 0.80011 0.0
C158 C 0.96665 0.03575 0.83267 0.0
C159 C 0.9932 0.0607 0.7923 0.0
C160 C 0.98795 0.04542 0.76021 0.0
N161 N 0.97227 0.02562 0.76489 0.0
N162 N 0.98246 0.05555 0.82755 0.0
H163 H 0.94993 0.00398 0.80234 0.0
C164 C 0.06256 0.02974 0.77321 0.0
O165 O 0.06014 0.00826 0.79164 0.0
O166 O 0.93045 0.99208 0.72085 0.0
H167 H 0.99674 0.04896 0.73215 0.0
H168 H 0.07194 0.95047 0.60807 0.0
H169 H 0.00581 0.07645 0.78934 0.0
Zn170 Zn 0.2414 0.71033 0.9655 0.0
C171 C 0.23929 0.7679 0.88804 0.0
N172 N 0.23002 0.75 0.86452 0.0
C173 C 0.23236 0.72913 0.8864 0.0
N174 N 0.24241 0.73408 0.92205 0.0
N175 N 0.24656 0.7586 0.92318 0.0
C176 C 0.2164 0.79931 1.00031 0.0
O177 O 0.21308 0.77515 0.00546 0.0
O178 O 0.26528 0.6806 0.96145 0.0
Zn179 Zn 0.2597 0.77941 0.96553 0.0
N180 N 0.20761 0.698 0.9673 0.0
C181 C 0.16418 0.70718 0.97205 0.0
C182 C 0.18904 0.71483 0.97421 0.0
C183 C 0.20247 0.6737 0.95845 0.0
N184 N 0.15897 0.68297 0.96318 0.0
C185 C 0.17737 0.66576 0.9562 0.0
O186 O 0.26577 0.76252 0.01767 0.0
C187 C 0.25991 0.74262 0.03604 0.0
O188 O 0.24974 0.72413 0.01882 0.0
H189 H 0.19356 0.73415 0.98027 0.0
H190 H 0.21787 0.66123 0.95197 0.0
C191 C 0.3016 0.81236 0.97257 0.0
C192 C 0.32411 0.82384 0.96071 0.0
C193 C 0.32277 0.80043 0.90134 0.0
C194 C 0.30062 0.78903 0.91339 0.0
N195 N 0.29045 0.79523 0.94866 0.0
N196 N 0.334 0.81739 0.92523 0.0
H197 H 0.29323 0.81638 1.00081 0.0
C198 C 0.28894 0.68325 0.95915 0.0
O199 O 0.29815 0.70567 0.95243 0.0
O200 O 0.23524 0.80662 0.98061 0.0
H201 H 0.29173 0.77524 0.89484 0.0
H202 H 0.14911 0.72038 0.97715 0.0
H203 H 0.33112 0.7957 0.87334 0.0
Zn204 Zn 0.48998 0.99813 0.2319 0.0
C205 C 0.53618 0.97771 0.1426 0.0
N206 N 0.51417 0.97407 0.12419 0.0
C207 C 0.49723 0.97959 0.15193 0.0
N208 N 0.50827 0.98605 0.18613 0.0
N209 N 0.53289 0.98474 0.18054 0.0
C210 C 0.5727 0.03851 0.23816 0.0
O211 O 0.55052 0.03926 0.25484 0.0
O212 O 0.4592 0.97731 0.24373 0.0
Zn213 Zn 0.55917 0.98688 0.22084 0.0
N214 N 0.48072 0.03292 0.22426 0.0
C215 C 0.49042 0.07215 0.19495 0.0
C216 C 0.49595 0.04696 0.20114 0.0
C217 C 0.4601 0.04309 0.24182 0.0
N218 N 0.46992 0.08233 0.21234 0.0
C219 C 0.45443 0.06868 0.23589 0.0
O220 O 0.54844 0.98363 0.27795 0.0
C221 C 0.52907 0.9886 0.29826 0.0
O222 O 0.50856 0.99502 0.28227 0.0
H223 H 0.51232 0.03862 0.1877 0.0
H224 H 0.4483 0.03121 0.25968 0.0
C225 C 0.60724 0.96617 0.22364 0.0
C226 C 0.62643 0.94838 0.21901 0.0
C227 C 0.59669 0.92015 0.19177 0.0
C228 C 0.57764 0.9377 0.1977 0.0
N229 N 0.58347 0.96056 0.21263 0.0
N230 N 0.6205 0.92576 0.20295 0.0
H231 H 0.61065 0.98398 0.23766 0.0
C232 C 0.46402 0.9562 0.25952 0.0
O233 O 0.48751 0.94891 0.26225 0.0
O234 O 0.57901 0.01918 0.21873 0.0
H235 H 0.55847 0.9333 0.19 0.0
H236 H 0.50234 0.08359 0.17655 0.0
H237 H 0.59251 0.90202 0.17921 0.0
Zn238 Zn 0.26047 0.2282 0.46714 0.0
C239 C 0.27776 0.28329 0.38896 0.0
N240 N 0.28649 0.26342 0.36862 0.0
C241 C 0.28196 0.24409 0.39273 0.0
N242 N 0.27106 0.25154 0.42638 0.0
N243 N 0.26821 0.27625 0.42433 0.0
C244 C 0.2167 0.3298 0.4554 0.0
O245 O 0.20516 0.30837 0.44972 0.0
O246 O 0.28821 0.20387 0.48055 0.0
Zn247 Zn 0.25735 0.29612 0.4695 0.0
N248 N 0.231 0.21004 0.44914 0.0
C249 C 0.20139 0.20263 0.39817 0.0
C250 C 0.22283 0.21452 0.41193 0.0
C251 C 0.2184 0.19405 0.4734 0.0
N252 N 0.18874 0.1869 0.4223 0.0
C253 C 0.19647 0.18212 0.45973 0.0
O254 O 0.23289 0.27917 0.50642 0.0
C255 C 0.23977 0.26244 0.53069 0.0
O256 O 0.25256 0.24377 0.51926 0.0
H257 H 0.23266 0.22748 0.39311 0.0
H258 H 0.22504 0.19129 0.50314 0.0
C259 C 0.28191 0.31579 0.53499 0.0
C260 C 0.30213 0.32251 0.55884 0.0
C261 C 0.32992 0.30229 0.51461 0.0
C262 C 0.30968 0.29565 0.49085 0.0
N263 N 0.28617 0.30287 0.50136 0.0
N264 N 0.32573 0.31575 0.54785 0.0
H265 H 0.26295 0.32133 0.5424 0.0
C266 C 0.3055 0.21287 0.50207 0.0
O267 O 0.30507 0.23693 0.5102 0.0
O268 O 0.24047 0.32968 0.45868 0.0
H269 H 0.31271 0.28522 0.46405 0.0
H270 H 0.19468 0.20605 0.36863 0.0
H271 H 0.34881 0.29699 0.50657 0.0
Zn272 Zn 0.73996 0.20723 0.47573 0.0
C273 C 0.73487 0.26887 0.40497 0.0
N274 N 0.7285 0.25185 0.37787 0.0
C275 C 0.73105 0.22992 0.39699 0.0
N276 N 0.7386 0.23333 0.43471 0.0
N277 N 0.74077 0.25794 0.43957 0.0
C278 C 0.70719 0.29965 0.51183 0.0
O279 O 0.70107 0.27582 0.51329 0.0
O280 O 0.7718 0.18561 0.47659 0.0
Zn281 Zn 0.75111 0.27656 0.48568 0.0
N282 N 0.71248 0.18457 0.46685 0.0
C283 C 0.6698 0.17627 0.45169 0.0
C284 C 0.68901 0.19329 0.45938 0.0
C285 C 0.71736 0.15963 0.46851 0.0
N286 N 0.6746 0.15128 0.45392 0.0
C287 C 0.6979 0.14239 0.46272 0.0
O288 O 0.74859 0.25834 0.53668 0.0
C289 C 0.74153 0.238 0.55245 0.0
O290 O 0.73618 0.21879 0.53207 0.0
H291 H 0.68547 0.21325 0.45839 0.0
H292 H 0.73622 0.15337 0.47476 0.0
C293 C 0.79347 0.30851 0.50008 0.0
C294 C 0.81831 0.31684 0.49485 0.0
C295 C 0.82444 0.28474 0.44729 0.0
C296 C 0.79996 0.27651 0.45287 0.0
N297 N 0.78497 0.28857 0.47896 0.0
N298 N 0.83298 0.30459 0.46828 0.0
H299 H 0.78082 0.31779 0.52018 0.0
C300 C 0.79062 0.19098 0.49807 0.0
O301 O 0.79173 0.21322 0.51451 0.0
O302 O 0.72806 0.30572 0.49645 0.0
H303 H 0.79291 0.26064 0.43652 0.0
H304 H 0.65112 0.18285 0.44472 0.0
H305 H 0.83662 0.27541 0.42652 0.0
Zn306 Zn 0.75933 0.73056 0.96878 0.0
C307 C 0.77763 0.78755 0.89442 0.0
N308 N 0.78741 0.76884 0.87264 0.0
C309 C 0.78313 0.74844 0.89492 0.0
N310 N 0.771 0.75429 0.92851 0.0
N311 N 0.76786 0.77895 0.92852 0.0
C312 C 0.72856 0.84152 0.9524 0.0
O313 O 0.71569 0.8258 0.93065 0.0
O314 O 0.78822 0.71131 0.99267 0.0
Zn315 Zn 0.75646 0.79708 0.97452 0.0
N316 N 0.73656 0.70599 0.94634 0.0
C317 C 0.71722 0.68628 0.89146 0.0
C318 C 0.73279 0.70478 0.90688 0.0
C319 C 0.72478 0.68979 0.97118 0.0
N320 N 0.70567 0.66999 0.91615 0.0
C321 C 0.70877 0.67124 0.95583 0.0
O322 O 0.72535 0.78298 0.99972 0.0
C323 C 0.72748 0.76469 0.02342 0.0
O324 O 0.74126 0.74608 0.01467 0.0
H325 H 0.74178 0.71797 0.88745 0.0
H326 H 0.72822 0.69116 0.00245 0.0
C327 C 0.7744 0.80423 0.04976 0.0
C328 C 0.79005 0.80161 0.08261 0.0
C329 C 0.81971 0.78023 0.04247 0.0
C330 C 0.80384 0.78274 0.01009 0.0
N331 N 0.78147 0.79455 0.01468 0.0
N332 N 0.81242 0.78956 0.07784 0.0
H333 H 0.75636 0.81327 0.05162 0.0
C334 C 0.79571 0.71522 0.02763 0.0
O335 O 0.78476 0.73265 0.04876 0.0
O336 O 0.74864 0.83396 0.96869 0.0
H337 H 0.80904 0.77497 0.98192 0.0
H338 H 0.71425 0.68493 0.86008 0.0
H339 H 0.83752 0.77067 0.03969 0.0
Zn340 Zn 0.76931 0.20991 0.03871 0.0
C341 C 0.77669 0.26586 0.11678 0.0
N342 N 0.78554 0.24712 0.13927 0.0
C343 C 0.78088 0.2266 0.11755 0.0
N344 N 0.76967 0.23259 0.08308 0.0
N345 N 0.76721 0.25739 0.08242 0.0
C346 C 0.79566 0.29423 0.98862 0.0
O347 O 0.79121 0.27207 0.97349 0.0
O348 O 0.74833 0.17827 0.04476 0.0
Zn349 Zn 0.7553 0.27953 0.03998 0.0
N350 N 0.8037 0.20077 0.03095 0.0
C351 C 0.8457 0.21394 0.02151 0.0
C352 C 0.82025 0.21944 0.02341 0.0
C353 C 0.81142 0.17681 0.03714 0.0
N354 N 0.85348 0.19001 0.02747 0.0
C355 C 0.83715 0.17102 0.03537 0.0
O356 O 0.74111 0.26286 0.99163 0.0
C357 C 0.7441 0.24237 0.97317 0.0
O358 O 0.75556 0.22386 0.9884 0.0
H359 H 0.8137 0.23849 0.01991 0.0
H360 H 0.79752 0.16294 0.04455 0.0
C361 C 0.7211 0.3211 0.03509 0.0
C362 C 0.70399 0.33893 0.04965 0.0
C363 C 0.70488 0.31848 0.11166 0.0
C364 C 0.72163 0.30074 0.09701 0.0
N365 N 0.72984 0.30264 0.05933 0.0
N366 N 0.69657 0.33715 0.08782 0.0
H367 H 0.72782 0.32216 0.00513 0.0
C368 C 0.72474 0.17959 0.04979 0.0
O369 O 0.71467 0.20137 0.05853 0.0
O370 O 0.7835 0.30114 0.01889 0.0
H371 H 0.72817 0.28572 0.1157 0.0
H372 H 0.85921 0.22857 0.01566 0.0
H373 H 0.6985 0.31742 0.14178 0.0
Zn374 Zn 0.74805 0.74151 0.50657 0.0
C375 C 0.72115 0.78342 0.59727 0.0
N376 N 0.71858 0.76063 0.61358 0.0
C377 C 0.72633 0.74505 0.58525 0.0
N378 N 0.73321 0.75763 0.55256 0.0
N379 N 0.72986 0.78189 0.55984 0.0
C380 C 0.78618 0.81901 0.50892 0.0
O381 O 0.78665 0.79582 0.49601 0.0
O382 O 0.72791 0.71128 0.49038 0.0
Zn383 Zn 0.73317 0.80898 0.52129 0.0
N384 N 0.78227 0.73131 0.51821 0.0
C385 C 0.81837 0.73702 0.55809 0.0
C386 C 0.79389 0.7434 0.54819 0.0
C387 C 0.79422 0.71295 0.49745 0.0
N388 N 0.83027 0.71876 0.53761 0.0
C389 C 0.81911 0.70627 0.50737 0.0
O390 O 0.7305 0.7994 0.46366 0.0
C391 C 0.7387 0.78177 0.44202 0.0
O392 O 0.74725 0.76155 0.45662 0.0
H393 H 0.7842 0.75799 0.5642 0.0
H394 H 0.78444 0.70409 0.47337 0.0
C395 C 0.71449 0.85769 0.51845 0.0
C396 C 0.69733 0.87757 0.52169 0.0
C397 C 0.6673 0.84901 0.54733 0.0
C398 C 0.68416 0.82926 0.54234 0.0
N399 N 0.70766 0.83418 0.52915 0.0
N400 N 0.67412 0.87255 0.53645 0.0
H401 H 0.73273 0.86028 0.5054 0.0
C402 C 0.70702 0.71671 0.47442 0.0
O403 O 0.69958 0.74021 0.47435 0.0
O404 O 0.76629 0.82733 0.5248 0.0
H405 H 0.67868 0.81025 0.54923 0.0
H406 H 0.8279 0.7465 0.58187 0.0
H407 H 0.64868 0.84557 0.55866 0.0
Zn408 Zn 0.5363 0.50515 0.78791 0.0
C409 C 0.47987 0.48573 0.86359 0.0
N410 N 0.49871 0.48272 0.88906 0.0
C411 C 0.51931 0.48856 0.86836 0.0
N412 N 0.51324 0.49536 0.83083 0.0
N413 N 0.48835 0.49351 0.82825 0.0
C414 C 0.43982 0.53862 0.77677 0.0
O415 O 0.46304 0.54664 0.77422 0.0
O416 O 0.56014 0.47617 0.77412 0.0
Zn417 Zn 0.46642 0.49191 0.78246 0.0
N418 N 0.5543 0.53594 0.80291 0.0
C419 C 0.56573 0.56589 0.85168 0.0
C420 C 0.55285 0.54431 0.84061 0.0
C421 C 0.56745 0.54915 0.7755 0.0
N422 N 0.57957 0.57841 0.82462 0.0
C423 C 0.58099 0.57059 0.78663 0.0
O424 O 0.48158 0.49981 0.73048 0.0
C425 C 0.50134 0.5081 0.71453 0.0
O426 O 0.52119 0.51181 0.7343 0.0
H427 H 0.54174 0.53444 0.86204 0.0
H428 H 0.56683 0.54355 0.74512 0.0
C429 C 0.43079 0.45186 0.78481 0.0
C430 C 0.42382 0.4265 0.78812 0.0
C431 C 0.46666 0.41483 0.78049 0.0
C432 C 0.47337 0.43992 0.77765 0.0
N433 N 0.45535 0.45784 0.78015 0.0
N434 N 0.44221 0.40877 0.7857 0.0
H435 H 0.41727 0.46689 0.78632 0.0
C436 C 0.57473 0.47961 0.74504 0.0
O437 O 0.5741 0.50114 0.72654 0.0
O438 O 0.43608 0.51552 0.78421 0.0
H439 H 0.49283 0.44524 0.77458 0.0
H440 H 0.5648 0.57262 0.88162 0.0
H441 H 0.48075 0.40025 0.77893 0.0
Zn442 Zn 0.98142 0.50857 0.27973 0.0
C443 C 0.03634 0.53072 0.35572 0.0
N444 N 0.01655 0.53887 0.37672 0.0
C445 C 0.99693 0.53302 0.35382 0.0
N446 N 0.00418 0.52145 0.32044 0.0
N447 N 0.02906 0.52012 0.32133 0.0
C448 C 0.09042 0.47896 0.29574 0.0
O449 O 0.0724 0.46574 0.3119 0.0
O450 O 0.96155 0.537 0.25537 0.0
Zn451 Zn 0.04823 0.50872 0.27607 0.0
N452 N 0.95795 0.48445 0.30224 0.0
C453 C 0.94228 0.4623 0.35773 0.0
C454 C 0.95918 0.47915 0.34127 0.0
C455 C 0.94086 0.4728 0.27864 0.0
N456 N 0.92513 0.45092 0.33436 0.0
C457 C 0.92392 0.45542 0.295 0.0
O458 O 0.03535 0.47692 0.25152 0.0
C459 C 0.01743 0.47789 0.22702 0.0
O460 O 0.99819 0.49116 0.23412 0.0
H461 H 0.97322 0.48779 0.35958 0.0
H462 H 0.94038 0.47722 0.24764 0.0
C463 C 0.05624 0.5268 0.20047 0.0
C464 C 0.05216 0.54147 0.16679 0.0
C465 C 0.02506 0.56775 0.20414 0.0
C466 C 0.02918 0.55298 0.23733 0.0
N467 N 0.04468 0.53284 0.23466 0.0
N468 N 0.03655 0.56166 0.16983 0.0
H469 H 0.06773 0.51015 0.19987 0.0
C470 C 0.95378 0.53461 0.22022 0.0
O471 O 0.95846 0.51371 0.20128 0.0
O472 O 0.08526 0.50093 0.28346 0.0
H473 H 0.0197 0.55718 0.2646 0.0
H474 H 0.9429 0.45812 0.38883 0.0
H475 H 0.01265 0.58379 0.20549 0.0
Zn476 Zn 0.46311 0.51237 0.2191 0.0
C477 C 0.51926 0.53137 0.14412 0.0
N478 N 0.50044 0.54034 0.12204 0.0
C479 C 0.47994 0.53377 0.14252 0.0
N480 N 0.48599 0.5217 0.17641 0.0
N481 N 0.51088 0.52032 0.17726 0.0
C482 C 0.55451 0.5528 0.2428 0.0
O483 O 0.53045 0.55728 0.24741 0.0
O484 O 0.44412 0.47933 0.21216 0.0
Zn485 Zn 0.53353 0.50747 0.21791 0.0
N486 N 0.43728 0.53725 0.22455 0.0
C487 C 0.42274 0.57914 0.2308 0.0
C488 C 0.44199 0.56221 0.22268 0.0
C489 C 0.41462 0.5285 0.23623 0.0
N490 N 0.40033 0.57036 0.2438 0.0
C491 C 0.39581 0.54533 0.24765 0.0
O492 O 0.51943 0.50459 0.27234 0.0
C493 C 0.49906 0.50751 0.29101 0.0
O494 O 0.47845 0.51132 0.27326 0.0
H495 H 0.46057 0.56882 0.21543 0.0
H496 H 0.41186 0.50856 0.23857 0.0
C497 C 0.56599 0.46489 0.22654 0.0
C498 C 0.57778 0.44238 0.21476 0.0
C499 C 0.55373 0.44338 0.1557 0.0
C500 C 0.54234 0.46561 0.16751 0.0
N501 N 0.54869 0.47593 0.20256 0.0
N502 N 0.57106 0.43242 0.17941 0.0
H503 H 0.57015 0.47366 0.25437 0.0
C504 C 0.44802 0.46108 0.2356 0.0
O505 O 0.46854 0.46101 0.25694 0.0
O506 O 0.56125 0.53223 0.22721 0.0
H507 H 0.52861 0.47464 0.14884 0.0
H508 H 0.42594 0.59911 0.22864 0.0
H509 H 0.54892 0.4349 0.12784 0.0
Zn510 Zn 0.05676 0.48385 0.73075 0.0
C511 C 0.99344 0.47218 0.66759 0.0
N512 N 0.0093 0.465 0.63923 0.0
C513 C 0.03197 0.46966 0.65497 0.0
N514 N 0.03003 0.47878 0.6921 0.0
N515 N 0.00567 0.48053 0.69965 0.0
C516 C 0.96291 0.45265 0.7712 0.0
O517 O 0.98644 0.44531 0.7714 0.0
O518 O 0.0724 0.51843 0.72865 0.0
Zn519 Zn 0.98887 0.49427 0.7456 0.0
N520 N 0.0839 0.46054 0.72183 0.0
C521 C 0.10177 0.42116 0.70485 0.0
C522 C 0.08073 0.43645 0.70991 0.0
C523 C 0.10699 0.46962 0.73031 0.0
N524 N 0.12484 0.4301 0.71446 0.0
C525 C 0.12804 0.45395 0.72781 0.0
O526 O 0.00776 0.49031 0.79622 0.0
C527 C 0.02862 0.48298 0.81017 0.0
O528 O 0.04728 0.47844 0.78802 0.0
H529 H 0.06215 0.42934 0.7039 0.0
H530 H 0.10869 0.48879 0.73998 0.0
C531 C 0.96234 0.54161 0.75704 0.0
C532 C 0.95811 0.56738 0.75002 0.0
C533 C 0.99103 0.56697 0.70289 0.0
C534 C 0.99513 0.54161 0.71002 0.0
N535 N 0.98081 0.52941 0.73688 0.0
N536 N 0.9728 0.57917 0.72299 0.0
H537 H 0.95162 0.53144 0.77878 0.0
C538 C 0.06529 0.53621 0.75091 0.0
O539 O 0.04422 0.53391 0.77047 0.0
O540 O 0.95768 0.47423 0.7574 0.0
H541 H 0.00981 0.53174 0.69453 0.0
H542 H 0.09971 0.40211 0.69451 0.0
H543 H 1.00236 0.57695 0.68169 0.0
C544 C 0.97403 0.95762 0.8286 0.0
C545 C 0.99783 0.96264 0.81266 0.0
C546 C 0.97093 0.95527 0.86932 0.0
C547 C 0.00609 0.94729 0.96327 0.0
H548 H 0.95244 0.98752 0.00748 0.0
C549 C 0.00899 0.98255 0.12225 0.0
C550 C 0.98713 0.9803 0.14504 0.0
C551 C 0.0084 0.97797 0.08189 0.0
C552 C 0.9673 0.97593 0.99561 0.0
H553 H 0.03727 0.9668 0.82664 0.0
H554 H 0.03194 0.96262 0.89709 0.0
H555 H 0.95472 0.98134 0.93645 0.0
H556 H 0.94733 0.97208 0.14291 0.0
H557 H 0.9463 0.96437 0.072 0.0
H558 H 0.0191 0.94242 0.02231 0.0
C559 C 0.01559 0.96065 0.87846 0.0
C560 C 0.96858 0.97233 0.95491 0.0
C561 C 0.01865 0.96318 0.83795 0.0
C562 C 0.96451 0.97393 0.12624 0.0
C563 C 0.96389 0.96959 0.08565 0.0
C564 C 0.00488 0.95095 0.00385 0.0
C565 C 0.99161 0.95746 0.89479 0.0
C566 C 0.9883 0.95842 0.93819 0.0
C567 C 0.98592 0.97121 0.06318 0.0
C568 C 0.98578 0.96572 0.0204 0.0
H569 H 0.95758 0.95702 0.80993 0.0
H570 H 0.95225 0.95247 0.88092 0.0
H571 H 0.02126 0.93608 0.95147 0.0
H572 H 0.02675 0.98739 0.13568 0.0
H573 H 0.0256 0.97977 0.06526 0.0
C574 C 0.26505 0.71911 0.39604 0.0
C575 C 0.26382 0.74223 0.4158 0.0
C576 C 0.26565 0.71828 0.35495 0.0
C577 C 0.28237 0.75593 0.26846 0.0
H578 H 0.23858 0.71074 0.21166 0.0
C579 C 0.26756 0.76363 0.10082 0.0
C580 C 0.26351 0.74156 0.07921 0.0
C581 C 0.26904 0.7629 0.14182 0.0
C582 C 0.25127 0.72318 0.22698 0.0
H583 H 0.26239 0.78259 0.4078 0.0
H584 H 0.26362 0.78107 0.33623 0.0
H585 H 0.23826 0.71078 0.2833 0.0
H586 H 0.25875 0.70129 0.0837 0.0
H587 H 0.26207 0.69992 0.15508 0.0
H588 H 0.29565 0.76819 0.21239 0.0
C589 C 0.26412 0.76362 0.35254 0.0
C590 C 0.25099 0.72324 0.26807 0.0
C591 C 0.26322 0.76446 0.39355 0.0
C592 C 0.26168 0.71866 0.09948 0.0
C593 C 0.26341 0.71791 0.14047 0.0
C594 C 0.28285 0.75571 0.22739 0.0
C595 C 0.26538 0.74054 0.33281 0.0
C596 C 0.26635 0.73979 0.28923 0.0
C597 C 0.26676 0.74006 0.16225 0.0
C598 C 0.26713 0.7395 0.20606 0.0
H599 H 0.26551 0.70165 0.41231 0.0
H600 H 0.26676 0.70023 0.34051 0.0
H601 H 0.29469 0.76864 0.28402 0.0
H602 H 0.26886 0.78162 0.08617 0.0
H603 H 0.27124 0.78041 0.15752 0.0
C604 C 0.55223 0.98441 0.36267 0.0
C605 C 0.52958 0.98615 0.34165 0.0
C606 C 0.55209 0.98311 0.40387 0.0
C607 C 0.51121 0.99861 0.48828 0.0
H608 H 0.55565 0.95536 0.54804 0.0
C609 C 0.49749 0.98548 0.65367 0.0
C610 C 0.51901 0.98811 0.67716 0.0
C611 C 0.49963 0.9826 0.61302 0.0
C612 C 0.54323 0.96763 0.5317 0.0
H613 H 0.48902 0.9867 0.34738 0.0
H614 H 0.48882 0.98405 0.41838 0.0
H615 H 0.55837 0.95608 0.47617 0.0
H616 H 0.55971 0.98808 0.67653 0.0
H617 H 0.56337 0.9832 0.60552 0.0
H618 H 0.49603 0.01018 0.54341 0.0
C619 C 0.50673 0.9844 0.40342 0.0
C620 C 0.54484 0.9681 0.49059 0.0
C621 C 0.50687 0.98583 0.36256 0.0
C622 C 0.54273 0.98629 0.65928 0.0
C623 C 0.54486 0.98337 0.61858 0.0
C624 C 0.50954 0.99805 0.52914 0.0
C625 C 0.52929 0.98345 0.42469 0.0
C626 C 0.52865 0.98344 0.4684 0.0
C627 C 0.52331 0.98222 0.5949 0.0
C628 C 0.52534 0.98241 0.55135 0.0
H629 H 0.57004 0.98456 0.3474 0.0
H630 H 0.5698 0.98249 0.41941 0.0
H631 H 0.49888 0.01112 0.47222 0.0
H632 H 0.47892 0.98663 0.66643 0.0
H633 H 0.48267 0.98127 0.59561 0.0
C634 C 0.24779 0.24986 0.60025 0.0
C635 C 0.23614 0.26627 0.57349 0.0
C636 C 0.24769 0.25496 0.64039 0.0
C637 C 0.2171 0.29026 0.71952 0.0
H638 H 0.28119 0.27988 0.77116 0.0
C639 C 0.23306 0.30619 0.88724 0.0
C640 C 0.2447 0.2858 0.90627 0.0
C641 C 0.23227 0.30744 0.8461 0.0
C642 C 0.26317 0.28286 0.75718 0.0
H643 H 0.214 0.3003 0.56839 0.0
H644 H 0.21344 0.30896 0.63916 0.0
H645 H 0.2779 0.27478 0.70019 0.0
H646 H 0.26521 0.25114 0.89689 0.0
H647 H 0.26404 0.25349 0.82558 0.0
H648 H 0.20236 0.29796 0.77694 0.0
C649 C 0.22279 0.29221 0.6287 0.0
C650 C 0.26125 0.27986 0.71658 0.0
C651 C 0.22315 0.28726 0.5882 0.0
C652 C 0.25606 0.2671 0.88328 0.0
C653 C 0.25552 0.26851 0.84235 0.0
C654 C 0.21904 0.29333 0.76033 0.0
C655 C 0.2358 0.27652 0.65502 0.0
C656 C 0.23805 0.28273 0.69744 0.0
C657 C 0.24344 0.28854 0.82326 0.0
C658 C 0.24196 0.28892 0.77967 0.0
H659 H 0.25783 0.23342 0.59016 0.0
H660 H 0.25733 0.24216 0.66002 0.0
H661 H 0.199 0.29267 0.70556 0.0
H662 H 0.22408 0.32089 0.90408 0.0
H663 H 0.22294 0.32316 0.83214 0.0
C664 C 0.73101 0.2629 0.91007 0.0
C665 C 0.73681 0.24097 0.93119 0.0
C666 C 0.7279 0.26211 0.86931 0.0
C667 C 0.71743 0.22041 0.78415 0.0
H668 H 0.75665 0.27016 0.72848 0.0
C669 C 0.73745 0.21475 0.61652 0.0
C670 C 0.73839 0.23747 0.59565 0.0
C671 C 0.73517 0.21475 0.65755 0.0
C672 C 0.74523 0.25636 0.74341 0.0
H673 H 0.74225 0.20075 0.92631 0.0
H674 H 0.73671 0.19944 0.85518 0.0
H675 H 0.75472 0.27128 0.79976 0.0
H676 H 0.73648 0.27797 0.60126 0.0
H677 H 0.73191 0.27795 0.67213 0.0
H678 H 0.7079 0.20552 0.72761 0.0
C679 C 0.73465 0.21722 0.87017 0.0
C680 C 0.74415 0.25702 0.78435 0.0
C681 C 0.73795 0.21802 0.91091 0.0
C682 C 0.7363 0.26011 0.61648 0.0
C683 C 0.73376 0.26011 0.65724 0.0
C684 C 0.71834 0.21986 0.74303 0.0
C685 C 0.73032 0.23937 0.84882 0.0
C686 C 0.73028 0.23906 0.8052 0.0
C687 C 0.73354 0.23748 0.67843 0.0
C688 C 0.73229 0.23784 0.72215 0.0
H689 H 0.72995 0.28089 0.92472 0.0
H690 H 0.72421 0.27943 0.85366 0.0
H691 H 0.7065 0.20638 0.79948 0.0
H692 H 0.73901 0.197 0.60127 0.0
H693 H 0.73529 0.19697 0.67294 0.0
C694 C 0.7128 0.79126 0.08036 0.0
C695 C 0.72032 0.76781 0.06536 0.0
C696 C 0.71285 0.79567 0.12103 0.0
C697 C 0.74627 0.77265 0.20811 0.0
H698 H 0.69583 0.8068 0.27015 0.0
C699 C 0.74424 0.76345 0.37495 0.0
C700 C 0.7373 0.78396 0.39849 0.0
C701 C 0.74243 0.76474 0.33413 0.0
C702 C 0.71031 0.79765 0.2531 0.0
H703 H 0.7308 0.72984 0.0817 0.0
H704 H 0.73054 0.73746 0.15195 0.0
H705 H 0.69005 0.8025 0.19893 0.0
H706 H 0.72318 0.82213 0.39716 0.0
H707 H 0.72027 0.82445 0.32531 0.0
H708 H 0.76669 0.76786 0.26159 0.0
C709 C 0.72546 0.75269 0.13238 0.0
C710 C 0.70692 0.79509 0.21237 0.0
C711 C 0.72537 0.74828 0.09202 0.0
C712 C 0.72865 0.80596 0.37994 0.0
C713 C 0.72687 0.80726 0.3388 0.0
C714 C 0.74978 0.77543 0.24847 0.0
C715 C 0.72032 0.77669 0.14728 0.0
C716 C 0.72453 0.78186 0.18971 0.0
C717 C 0.73376 0.78662 0.31542 0.0
C718 C 0.73148 0.78719 0.27175 0.0
H719 H 0.70867 0.80672 0.06071 0.0
H720 H 0.7086 0.81431 0.13172 0.0
H721 H 0.76055 0.76301 0.19127 0.0
H722 H 0.75081 0.74611 0.38801 0.0
H723 H 0.74739 0.74828 0.31722 0.0
C724 C 0.47719 0.50799 0.35635 0.0
C725 C 0.49958 0.50752 0.3346 0.0
C726 C 0.47777 0.50903 0.39742 0.0
C727 C 0.51954 0.49813 0.48324 0.0
H728 H 0.47047 0.53902 0.53767 0.0
C729 C 0.5242 0.51521 0.65089 0.0
C730 C 0.50155 0.51188 0.67132 0.0
C731 C 0.52443 0.51633 0.60979 0.0
C732 C 0.48422 0.52742 0.52289 0.0
H733 H 0.54018 0.50776 0.33914 0.0
H734 H 0.54116 0.50999 0.41052 0.0
H735 H 0.46989 0.53703 0.46608 0.0
H736 H 0.46125 0.50814 0.66449 0.0
H737 H 0.46171 0.51024 0.59304 0.0
H738 H 0.5339 0.48864 0.54016 0.0
C739 C 0.52312 0.5091 0.39595 0.0
C740 C 0.48383 0.52618 0.48185 0.0
C741 C 0.52255 0.50791 0.35493 0.0
C742 C 0.47907 0.51063 0.64975 0.0
C743 C 0.47929 0.51196 0.60875 0.0
C744 C 0.52001 0.4995 0.52427 0.0
C745 C 0.50075 0.50978 0.41775 0.0
C746 C 0.50138 0.51139 0.46147 0.0
C747 C 0.502 0.51442 0.58826 0.0
C748 C 0.50226 0.51403 0.54458 0.0
H749 H 0.45916 0.50758 0.34168 0.0
H750 H 0.46017 0.50908 0.41323 0.0
H751 H 0.53311 0.48625 0.46864 0.0
H752 H 0.54185 0.5163 0.66652 0.0
H753 H 0.5422 0.51854 0.59482 0.0
C754 C 0.04509 0.46402 0.17116 0.0
C755 C 0.02096 0.46845 0.18638 0.0
C756 C 0.04864 0.46073 0.13067 0.0
C757 C 0.0148 0.44759 0.03718 0.0
H758 H 0.06568 0.48968 0.98962 0.0
C759 C 0.00868 0.47856 0.87632 0.0
C760 C 0.03053 0.47873 0.85323 0.0
C761 C 0.00995 0.47416 0.9167 0.0
C762 C 0.05165 0.4775 0.00241 0.0
H763 H 0.9815 0.47065 0.17138 0.0
H764 H 0.98759 0.4646 0.10137 0.0
H765 H 0.06361 0.48571 0.06113 0.0
H766 H 0.07098 0.47461 0.85484 0.0
H767 H 0.0732 0.46708 0.92589 0.0
H768 H 1.00239 0.43979 0.97866 0.0
C769 C 0.00385 0.46392 0.12042 0.0
C770 C 0.05049 0.47521 0.0434 0.0
C771 C 1.00035 0.46751 0.16066 0.0
C772 C 0.05379 0.47456 0.87174 0.0
C773 C 0.05507 0.47035 0.91242 0.0
C774 C 0.01595 0.44985 0.99631 0.0
C775 C 0.02808 0.46123 0.10472 0.0
C776 C 0.03164 0.46075 0.0613 0.0
C777 C 0.03311 0.4699 0.93529 0.0
C778 C 0.03396 0.46533 0.97845 0.0
H779 H 0.06138 0.46453 0.19016 0.0
H780 H 0.06752 0.4584 0.11957 0.0
H781 H 1.00035 0.4359 0.04994 0.0
H782 H 0.99042 0.48165 0.86319 0.0
H783 H 0.99272 0.47439 0.93349 0.0
C784 C 0.18945 0.2186 0.06972 0.0
C785 C 0.20999 0.22505 0.09329 0.0
C786 C 0.17549 0.19705 0.07767 0.0
C787 C 0.1714 0.14045 0.14333 0.0
H788 H 0.10015 0.15365 0.13429 0.0
C789 C 0.09539 0.07156 0.20253 0.0
C790 C 0.07525 0.08289 0.22262 0.0
C791 C 0.11255 0.08618 0.18129 0.0
C792 C 0.11998 0.14962 0.13714 0.0
H793 H 0.23183 0.21449 0.14422 0.0
H794 H 0.20703 0.17726 0.1593 0.0
H795 H 0.12976 0.18311 0.10667 0.0
H796 H 0.05759 0.11861 0.23577 0.0
H797 H 0.08745 0.14379 0.19971 0.0
H798 H 0.16131 0.10758 0.17602 0.0
C799 C 0.20233 0.18802 0.13332 0.0
C800 C 0.13707 0.16638 0.12066 0.0
C801 C 0.21657 0.20938 0.12479 0.0
C802 C 0.07277 0.10911 0.22074 0.0
C803 C 0.08982 0.12363 0.19962 0.0
C804 C 0.15422 0.12369 0.16009 0.0
C805 C 0.18105 0.18202 0.11063 0.0
C806 C 0.16307 0.16234 0.12411 0.0
C807 C 0.10995 0.11242 0.17958 0.0
C808 C 0.12829 0.12841 0.15801 0.0
H809 H 0.18307 0.23121 0.04684 0.0
H810 H 0.1595 0.19296 0.05915 0.0
H811 H 0.19124 0.13649 0.14616 0.0
H812 H 0.09834 0.0515 0.20379 0.0
H813 H 0.12781 0.07692 0.16615 0.0
C814 C 0.05586 0.94818 0.32593 0.0
C815 C 0.04703 0.9711 0.34073 0.0
C816 C 0.07782 0.9373 0.34071 0.0
C817 C 0.10893 0.93212 0.43461 0.0
H818 H 0.16037 0.89556 0.37818 0.0
C819 C 0.17999 0.87177 0.51973 0.0
C820 C 0.1877 0.84899 0.50302 0.0
C821 C 0.16695 0.88955 0.49741 0.0
C822 C 0.14601 0.90542 0.39448 0.0
H823 H 0.054 1.00052 0.38293 0.0
H824 H 0.09241 0.98146 0.40926 0.0
H825 H 0.13095 0.92223 0.34204 0.0
H826 H 0.18805 0.82704 0.44957 0.0
H827 H 0.16424 0.85746 0.41088 0.0
H828 H 0.1225 0.91441 0.4866 0.0
C829 C 0.08273 0.97225 0.3853 0.0
C830 C 0.12929 0.92089 0.3737 0.0
C831 C 0.06096 0.98332 0.36995 0.0
C832 C 0.18257 0.84457 0.46313 0.0
C833 C 0.16897 0.86215 0.44092 0.0
C834 C 0.12528 0.91639 0.45525 0.0
C835 C 0.09091 0.94868 0.37177 0.0
C836 C 0.11048 0.93432 0.39355 0.0
C837 C 0.16055 0.88477 0.45793 0.0
C838 C 0.14403 0.90262 0.43559 0.0
H839 H 0.04454 0.93748 0.30558 0.0
H840 H 0.08327 0.91891 0.33024 0.0
H841 H 0.09429 0.94175 0.45071 0.0
H842 H 0.18392 0.87579 0.55033 0.0
H843 H 0.16162 0.90694 0.51147 0.0
C844 C 0.27553 0.81052 0.64308 0.0
C845 C 0.28749 0.79711 0.61302 0.0
C846 C 0.28634 0.8324 0.65822 0.0
C847 C 0.33702 0.87965 0.64409 0.0
H848 H 0.34152 0.87661 0.75768 0.0
C849 C 0.41118 0.93586 0.73265 0.0
C850 C 0.40519 0.94372 0.77097 0.0
C851 C 0.39442 0.92103 0.71105 0.0
C852 C 0.34013 0.87821 0.72603 0.0
H853 H 0.32023 0.79568 0.57577 0.0
H854 H 0.33865 0.83432 0.6008 0.0
H855 H 0.31532 0.84683 0.72295 0.0
H856 H 0.37646 0.94295 0.81589 0.0
H857 H 0.34701 0.91796 0.778 0.0
H858 H 0.36204 0.91098 0.6472 0.0
C859 C 0.32062 0.82844 0.61211 0.0
C860 C 0.32502 0.86103 0.70605 0.0
C861 C 0.3099 0.80647 0.59728 0.0
C862 C 0.38177 0.93703 0.78661 0.0
C863 C 0.36492 0.92251 0.76489 0.0
C864 C 0.352 0.89706 0.66414 0.0
C865 C 0.30949 0.84114 0.64384 0.0
C866 C 0.32349 0.8613 0.66481 0.0
C867 C 0.37116 0.91384 0.72707 0.0
C868 C 0.35403 0.89639 0.70544 0.0
H869 H 0.25865 0.80322 0.65652 0.0
H870 H 0.27719 0.84182 0.68249 0.0
H871 H 0.33615 0.88046 0.61231 0.0
H872 H 0.42922 0.94029 0.71988 0.0
H873 H 0.40016 0.91446 0.68234 0.0
C874 C 0.32286 0.1795 0.9547 0.0
C875 C 0.31996 0.17674 0.99558 0.0
C876 C 0.33732 0.1623 0.93324 0.0
C877 C 0.36479 0.09845 0.9364 0.0
H878 H 0.4172 0.12654 0.87119 0.0
C879 C 0.45355 0.04269 0.89391 0.0
C880 C 0.46644 0.04875 0.85931 0.0
C881 C 0.43187 0.05585 0.9046 0.0
C882 C 0.40237 0.11817 0.88843 0.0
H883 H 0.32931 0.1533 0.04559 0.0
H884 H 0.3541 0.12323 0.00818 0.0
H885 H 0.38605 0.1541 0.90047 0.0
H886 H 0.46741 0.07391 0.80957 0.0
H887 H 0.42858 0.09564 0.8262 0.0
H888 H 0.38108 0.06253 0.92463 0.0
C889 C 0.34526 0.13865 0.99268 0.0
C890 C 0.38451 0.13409 0.90539 0.0
C891 C 0.33118 0.156 0.01417 0.0
C892 C 0.45698 0.06783 0.8351 0.0
C893 C 0.4351 0.0808 0.84541 0.0
C894 C 0.38246 0.08246 0.91905 0.0
C895 C 0.34885 0.14178 0.95207 0.0
C896 C 0.36586 0.1245 0.93029 0.0
C897 C 0.42267 0.0756 0.88103 0.0
C898 C 0.4019 0.09213 0.89552 0.0
H899 H 0.31476 0.19543 0.93951 0.0
H900 H 0.33971 0.16519 0.90195 0.0
H901 H 0.35044 0.09044 0.95505 0.0
H902 H 0.46104 0.02867 0.91381 0.0
H903 H 0.42329 0.0515 0.93259 0.0
C904 C 0.24519 0.80615 0.84732 0.0
C905 C 0.23398 0.79446 0.87976 0.0
C906 C 0.23495 0.82822 0.83168 0.0
C907 C 0.18725 0.87854 0.84772 0.0
H908 H 0.1775 0.87258 0.73523 0.0
C909 C 0.10938 0.93251 0.76375 0.0
C910 C 0.11359 0.93937 0.72436 0.0
C911 C 0.12727 0.91848 0.78452 0.0
C912 C 0.1804 0.87498 0.7665 0.0
H913 H 0.20312 0.79621 0.92072 0.0
H914 H 0.18573 0.8351 0.89466 0.0
H915 H 0.20433 0.84283 0.76916 0.0
H916 H 0.14036 0.93772 0.67659 0.0
H917 H 0.17175 0.91396 0.71298 0.0
H918 H 0.1629 0.91051 0.84506 0.0
C919 C 0.20282 0.8278 0.88185 0.0
C920 C 0.19587 0.85783 0.78602 0.0
C921 C 0.21299 0.80569 0.89725 0.0
C922 C 0.13643 0.93258 0.70677 0.0
C923 C 0.1544 0.91881 0.72763 0.0
C924 C 0.17186 0.89585 0.82811 0.0
C925 C 0.21309 0.83882 0.84793 0.0
C926 C 0.19919 0.85911 0.82696 0.0
C927 C 0.14987 0.91106 0.76653 0.0
C928 C 0.16788 0.89406 0.78728 0.0
H929 H 0.26095 0.7974 0.83265 0.0
H930 H 0.24343 0.83631 0.8057 0.0
H931 H 0.18956 0.88018 0.87924 0.0
H932 H 0.09182 0.93696 0.77807 0.0
H933 H 0.12287 0.91259 0.81417 0.0
C934 C 0.46537 0.9475 0.16601 0.0
C935 C 0.47143 0.97034 0.14807 0.0
C936 C 0.44441 0.93393 0.15397 0.0
C937 C 0.3888 0.93361 0.08705 0.0
H938 H 0.40864 0.86421 0.07281 0.0
C939 C 0.32558 0.85739 0.01338 0.0
C940 C 0.33793 0.84181 0.98612 0.0
C941 C 0.33923 0.87406 0.03696 0.0
C942 C 0.40277 0.88352 0.07655 0.0
H943 H 0.46066 0.99689 0.10307 0.0
H944 H 0.42419 0.97288 0.08094 0.0
H945 H 0.43572 0.89233 0.10911 0.0
H946 H 0.37427 0.83201 0.96197 0.0
H947 H 0.39785 0.86092 0.00275 0.0
H948 H 0.35619 0.92465 0.05276 0.0
C949 C 0.43492 0.96596 0.10573 0.0
C950 C 0.41815 0.89963 0.09792 0.0
C951 C 0.45575 0.97977 0.11839 0.0
C952 C 0.36411 0.84361 0.98268 0.0
C953 C 0.37769 0.86007 0.00631 0.0
C954 C 0.3733 0.91736 0.06565 0.0
C955 C 0.42966 0.94235 0.12231 0.0
C956 C 0.41159 0.92497 0.10305 0.0
C957 C 0.36548 0.87535 0.03393 0.0
C958 C 0.38042 0.89226 0.05952 0.0
H959 H 0.4781 0.93901 0.18694 0.0
H960 H 0.44082 0.91596 0.16767 0.0
H961 H 0.38315 0.95298 0.0906 0.0
H962 H 0.30539 0.85699 0.01629 0.0
H963 H 0.32931 0.88564 0.05795 0.0
C964 C 0.31659 0.21373 0.40272 0.0
C965 C 0.29317 0.21924 0.38608 0.0
C966 C 0.33018 0.1927 0.39048 0.0
C967 C 0.35423 0.14337 0.36673 0.0
H968 H 0.35342 0.13358 0.2539 0.0
C969 C 0.4212 0.07283 0.28912 0.0
C970 C 0.43232 0.08141 0.25404 0.0
C971 C 0.4014 0.08617 0.30651 0.0
C972 C 0.35397 0.13607 0.28547 0.0
H973 H 0.2653 0.20726 0.34403 0.0
H974 H 0.28857 0.16995 0.32325 0.0
H975 H 0.32406 0.16269 0.28362 0.0
H976 H 0.43084 0.11076 0.20985 0.0
H977 H 0.39704 0.134 0.24031 0.0
H978 H 0.38521 0.11775 0.36809 0.0
C979 C 0.29665 0.18188 0.34562 0.0
C980 C 0.33679 0.15255 0.30269 0.0
C981 C 0.28314 0.20304 0.3578 0.0
C982 C 0.42287 0.10348 0.23679 0.0
C983 C 0.40319 0.11675 0.25412 0.0
C984 C 0.37156 0.12697 0.34942 0.0
C985 C 0.32073 0.17684 0.36091 0.0
C986 C 0.33698 0.15686 0.34348 0.0
C987 C 0.39223 0.1084 0.28932 0.0
C988 C 0.37204 0.12355 0.30842 0.0
H989 H 0.32501 0.22648 0.42366 0.0
H990 H 0.34875 0.18982 0.40255 0.0
H991 H 0.35473 0.14587 0.39829 0.0
H992 H 0.42811 0.05623 0.30389 0.0
H993 H 0.39335 0.07909 0.33352 0.0
C994 C 0.05173 0.05346 0.65258 0.0
C995 C 0.04097 0.03373 0.63129 0.0
C996 C 0.07252 0.06635 0.63768 0.0
C997 C 0.10049 0.08092 0.54112 0.0
H998 H 0.15092 0.11498 0.60332 0.0
C999 C 0.15519 0.16328 0.47714 0.0
C1000 C 0.18105 0.16507 0.48452 0.0
C1001 C 0.14038 0.14613 0.4975 0.0
C1002 C 0.13713 0.10539 0.58548 0.0
H1003 H 0.04358 0.01147 0.57844 0.0
H1004 H 0.08051 0.03304 0.55306 0.0
H1005 H 0.12263 0.08502 0.63488 0.0
H1006 H 0.21154 0.15018 0.51989 0.0
H1007 H 0.18551 0.12 0.55554 0.0
H1008 H 0.11493 0.10094 0.49177 0.0
C1009 C 0.07281 0.039 0.58097 0.0
C1010 C 0.12075 0.08838 0.60363 0.0
C1011 C 0.05186 0.02639 0.59566 0.0
C1012 C 0.19164 0.14958 0.51373 0.0
C1013 C 0.17672 0.13222 0.53412 0.0
C1014 C 0.11682 0.09777 0.52308 0.0
C1015 C 0.08285 0.0598 0.601 0.0
C1016 C 0.10197 0.07615 0.58173 0.0
C1017 C 0.15097 0.13 0.52569 0.0
C1018 C 0.13503 0.11063 0.54507 0.0
H1019 H 0.04292 0.06019 0.67921 0.0
H1020 H 0.07937 0.08247 0.65369 0.0
H1021 H 0.08611 0.07228 0.52323 0.0
H1022 H 0.14629 0.17512 0.45529 0.0
H1023 H 0.12052 0.14546 0.49093 0.0
C1024 C 0.90404 0.9292 0.72662 0.0
C1025 C 0.90452 0.95556 0.72853 0.0
C1026 C 0.88646 0.91545 0.74805 0.0
C1027 C 0.82539 0.91342 0.79157 0.0
H1028 H 0.85471 0.86556 0.8644 0.0
C1029 C 0.79623 0.82947 0.9097 0.0
C1030 C 0.78244 0.81404 0.88426 0.0
C1031 C 0.80731 0.85158 0.89556 0.0
C1032 C 0.84615 0.87909 0.84473 0.0
H1033 H 0.88579 0.98809 0.75306 0.0
H1034 H 0.85425 0.96379 0.78952 0.0
H1035 H 0.88178 0.89434 0.82812 0.0
H1036 H 0.76805 0.81023 0.82512 0.0
H1037 H 0.78649 0.84915 0.80087 0.0
H1038 H 0.78983 0.8971 0.80655 0.0
C1039 C 0.86794 0.95398 0.77174 0.0
C1040 C 0.86168 0.89542 0.82374 0.0
C1041 C 0.88593 0.96784 0.75078 0.0
C1042 C 0.7783 0.82202 0.84545 0.0
C1043 C 0.7889 0.8443 0.83156 0.0
C1044 C 0.80983 0.89668 0.81204 0.0
C1045 C 0.86854 0.92762 0.77139 0.0
C1046 C 0.85153 0.91246 0.79649 0.0
C1047 C 0.80443 0.85879 0.85595 0.0
C1048 C 0.8201 0.87907 0.83845 0.0
H1049 H 0.91797 0.919 0.7099 0.0
H1050 H 0.88716 0.89516 0.74695 0.0
H1051 H 0.81713 0.92633 0.77063 0.0
H1052 H 0.80011 0.82346 0.93951 0.0
H1053 H 0.81913 0.8624 0.91508 0.0
C1054 C 0.80187 0.14571 0.51009 0.0
C1055 C 0.80877 0.17119 0.5102 0.0
C1056 C 0.81785 0.12739 0.52611 0.0
C1057 C 0.88371 0.11381 0.54726 0.0
H1058 H 0.85949 0.06627 0.62486 0.0
C1059 C 0.94375 0.0304 0.5934 0.0
C1060 C 0.95045 0.02997 0.63336 0.0
C1061 C 0.92357 0.04483 0.58023 0.0
C1062 C 0.86646 0.07944 0.60325 0.0
H1063 H 0.83811 0.19721 0.52651 0.0
H1064 H 0.86637 0.16515 0.55291 0.0
H1065 H 0.83063 0.0976 0.59662 0.0
H1066 H 0.94002 0.04294 0.69133 0.0
H1067 H 0.90388 0.06785 0.66825 0.0
H1068 H 0.91931 0.09554 0.55314 0.0
C1069 C 0.84846 0.15941 0.54093 0.0
C1070 C 0.84995 0.09725 0.58691 0.0
C1071 C 0.83229 0.17777 0.52573 0.0
C1072 C 0.93502 0.04251 0.66048 0.0
C1073 C 0.91452 0.05696 0.6472 0.0
C1074 C 0.89998 0.09577 0.5629 0.0
C1075 C 0.84131 0.13405 0.54183 0.0
C1076 C 0.85846 0.1147 0.55882 0.0
C1077 C 0.9094 0.05917 0.60668 0.0
C1078 C 0.8916 0.07837 0.59107 0.0
H1079 H 0.78376 0.14001 0.49883 0.0
H1080 H 0.81191 0.10799 0.52609 0.0
H1081 H 0.89082 0.12691 0.52564 0.0
H1082 H 0.95535 0.02101 0.5718 0.0
H1083 H 0.91989 0.04588 0.54894 0.0
C1084 C 0.58426 0.08152 0.26122 0.0
C1085 C 0.59171 0.0577 0.24816 0.0
C1086 C 0.60206 0.09879 0.27447 0.0
C1087 C 0.66284 0.10402 0.32169 0.0
H1088 H 0.66176 0.17197 0.28142 0.0
C1089 C 0.72936 0.18385 0.37893 0.0
C1090 C 0.71802 0.20754 0.38179 0.0
C1091 C 0.71635 0.16385 0.3612 0.0
C1092 C 0.6622 0.15316 0.2934 0.0
H1093 H 0.62371 0.03324 0.23886 0.0
H1094 H 0.65477 0.06334 0.26293 0.0
H1095 H 0.6341 0.14068 0.25295 0.0
H1096 H 0.68425 0.22884 0.36976 0.0
H1097 H 0.6616 0.19442 0.34053 0.0
H1098 H 0.69029 0.11683 0.36328 0.0
C1099 C 0.63517 0.06866 0.26243 0.0
C1100 C 0.64641 0.13522 0.27684 0.0
C1101 C 0.6174 0.05157 0.24833 0.0
C1102 C 0.69356 0.21082 0.36747 0.0
C1103 C 0.68062 0.19106 0.35038 0.0
C1104 C 0.67848 0.12215 0.33876 0.0
C1105 C 0.62764 0.0924 0.27575 0.0
C1106 C 0.64619 0.11061 0.29125 0.0
C1107 C 0.69193 0.16743 0.34607 0.0
C1108 C 0.67785 0.14714 0.32547 0.0
H1109 H 0.56462 0.08673 0.26163 0.0
H1110 H 0.59576 0.11695 0.28473 0.0
H1111 H 0.66301 0.08511 0.33333 0.0
H1112 H 0.74827 0.18095 0.38966 0.0
H1113 H 0.72561 0.14586 0.35849 0.0
C1114 C 0.71844 0.87084 0.00736 0.0
C1115 C 0.71603 0.86434 0.96751 0.0
C1116 C 0.70253 0.88873 0.02423 0.0
C1117 C 0.63981 0.9173 0.00524 0.0
H1118 H 0.65307 0.95045 0.10446 0.0
C1119 C 0.55893 0.94624 0.10323 0.0
C1120 C 0.55979 0.96863 0.12476 0.0
C1121 C 0.58008 0.9372 0.08403 0.0
C1122 C 0.64914 0.94166 0.07646 0.0
H1123 H 0.69663 0.87296 0.91334 0.0
H1124 H 0.67021 0.90554 0.94173 0.0
H1125 H 0.68741 0.93052 0.06875 0.0
H1126 H 0.5836 0.99919 0.14331 0.0
H1127 H 0.62106 0.98357 0.10856 0.0
H1128 H 0.60187 0.92908 0.01208 0.0
C1129 C 0.68336 0.89595 0.96077 0.0
C1130 C 0.6688 0.92985 0.05613 0.0
C1131 C 0.69877 0.87749 0.94419 0.0
C1132 C 0.58252 0.98181 0.12703 0.0
C1133 C 0.6039 0.97282 0.1072 0.0
C1134 C 0.62041 0.92943 0.02508 0.0
C1135 C 0.68414 0.90103 1.00149 0.0
C1136 C 0.66429 0.91682 0.0207 0.0
C1137 C 0.60274 0.95057 0.08482 0.0
C1138 C 0.62453 0.94098 0.06165 0.0
H1139 H 0.73138 0.86079 0.02627 0.0
H1140 H 0.70376 0.89167 0.05563 0.0
H1141 H 0.63512 0.90737 0.97854 0.0
H1142 H 0.54178 0.93544 0.10145 0.0
H1143 H 0.57857 0.91958 0.06844 0.0
C1144 C 0.78285 0.17962 0.12763 0.0
C1145 C 0.79478 0.203 0.12507 0.0
C1146 C 0.79658 0.1581 0.13848 0.0
C1147 C 0.86215 0.13401 0.14699 0.0
H1148 H 0.83572 0.09003 0.22755 0.0
C1149 C 0.92775 0.06887 0.23331 0.0
C1150 C 0.91969 0.0446 0.24321 0.0
C1151 C 0.91101 0.08652 0.21785 0.0
C1152 C 0.84328 0.10185 0.20457 0.0
H1153 H 0.83027 0.22223 0.13086 0.0
H1154 H 0.85404 0.18521 0.14946 0.0
H1155 H 0.80907 0.12296 0.19964 0.0
H1156 H 0.88732 0.02015 0.24554 0.0
H1157 H 0.85801 0.05097 0.2181 0.0
H1158 H 0.89624 0.11314 0.15151 0.0
C1159 C 0.83427 0.1831 0.143 0.0
C1160 C 0.82795 0.12074 0.1885 0.0
C1161 C 0.8206 0.20442 0.13262 0.0
C1162 C 0.89415 0.03872 0.23843 0.0
C1163 C 0.87734 0.05642 0.22267 0.0
C1164 C 0.87731 0.11505 0.1626 0.0
C1165 C 0.8225 0.15965 0.14656 0.0
C1166 C 0.8374 0.13745 0.16012 0.0
C1167 C 0.88566 0.08044 0.21141 0.0
C1168 C 0.8684 0.09911 0.19244 0.0
H1169 H 0.76289 0.17812 0.12242 0.0
H1170 H 0.78694 0.14032 0.14069 0.0
H1171 H 0.87005 0.14634 0.12503 0.0
H1172 H 0.94721 0.07418 0.23686 0.0
H1173 H 0.91807 0.10499 0.2107 0.0
C1174 C 0.57531 0.03433 0.88758 0.0
C1175 C 0.55652 0.04949 0.87099 0.0
C1176 C 0.59584 0.04535 0.90714 0.0
C1177 C 0.61134 0.10609 0.95604 0.0
H1178 H 0.6788 0.07954 0.96287 0.0
C1179 C 0.68372 0.15682 0.05161 0.0
C1180 C 0.70829 0.15863 0.03724 0.0
C1181 C 0.6667 0.13989 0.03503 0.0
C1182 C 0.6601 0.08738 0.96109 0.0
H1183 H 0.54495 0.08775 0.8601 0.0
H1184 H 0.58116 0.10677 0.89083 0.0
H1185 H 0.64744 0.05781 0.92308 0.0
H1186 H 0.73458 0.14334 0.99506 0.0
H1187 H 0.70473 0.11468 0.9649 0.0
H1188 H 0.62384 0.13625 0.99184 0.0
C1189 C 0.57991 0.08652 0.89068 0.0
C1190 C 0.64199 0.07468 0.93854 0.0
C1191 C 0.5593 0.07561 0.87232 0.0
C1192 C 0.71581 0.14227 0.00706 0.0
C1193 C 0.69861 0.12572 0.98978 0.0
C1194 C 0.62937 0.11887 0.97796 0.0
C1195 C 0.59791 0.07169 0.9101 0.0
C1196 C 0.61741 0.0841 0.93522 0.0
C1197 C 0.67353 0.12479 0.00272 0.0
C1198 C 0.65413 0.10988 0.98082 0.0
H1199 H 0.57329 0.01413 0.88769 0.0
H1200 H 0.60928 0.03326 0.9217 0.0
H1201 H 0.59252 0.11369 0.95538 0.0
H1202 H 0.67742 0.16902 0.07506 0.0
H1203 H 0.64793 0.13922 0.04699 0.0
C1204 C 0.72082 0.82918 0.61854 0.0
C1205 C 0.70942 0.80549 0.61633 0.0
C1206 C 0.70942 0.8486 0.64033 0.0
C1207 C 0.67156 0.88866 0.67335 0.0
H1208 H 0.64077 0.86678 0.77084 0.0
C1209 C 0.61354 0.95508 0.7754 0.0
C1210 C 0.58955 0.94572 0.78446 0.0
C1211 C 0.63175 0.93951 0.75829 0.0
C1212 C 0.64928 0.87323 0.74377 0.0
H1213 H 0.67698 0.7838 0.63396 0.0
H1214 H 0.65737 0.81709 0.671 0.0
H1215 H 0.66645 0.83766 0.73327 0.0
H1216 H 0.56633 0.91247 0.78419 0.0
H1217 H 0.59826 0.88519 0.75575 0.0
H1218 H 0.65387 0.92426 0.68397 0.0
C1219 C 0.67518 0.82086 0.65693 0.0
C1220 C 0.66399 0.85654 0.72214 0.0
C1221 C 0.68641 0.80175 0.63546 0.0
C1222 C 0.58464 0.92021 0.77785 0.0
C1223 C 0.60296 0.90459 0.7615 0.0
C1224 C 0.6569 0.90552 0.6953 0.0
C1225 C 0.68669 0.84437 0.66052 0.0
C1226 C 0.67462 0.86372 0.68598 0.0
C1227 C 0.62654 0.91415 0.75069 0.0
C1228 C 0.64498 0.89771 0.73016 0.0
H1229 H 0.73863 0.83249 0.60421 0.0
H1230 H 0.71869 0.86659 0.64236 0.0
H1231 H 0.67942 0.89476 0.64562 0.0
H1232 H 0.61788 0.97471 0.7797 0.0
H1233 H 0.64978 0.94738 0.75053 0.0
C1234 C 0.96292 0.93439 0.37475 0.0
C1235 C 0.95946 0.95848 0.359 0.0
C1236 C 0.94281 0.92101 0.3901 0.0
C1237 C 0.88117 0.92671 0.4351 0.0
H1238 H 0.87533 0.85689 0.40499 0.0
C1239 C 0.80124 0.86236 0.49298 0.0
C1240 C 0.80634 0.83662 0.49736 0.0
C1241 C 0.81901 0.87843 0.47623 0.0
C1242 C 0.87686 0.8762 0.41443 0.0
H1243 H 0.93241 0.98792 0.34798 0.0
H1244 H 0.8967 0.9644 0.3758 0.0
H1245 H 0.90744 0.88284 0.37524 0.0
H1246 H 0.83456 0.80784 0.48961 0.0
H1247 H 0.86605 0.83594 0.46259 0.0
H1248 H 0.85154 0.91976 0.47606 0.0
C1249 C 0.91516 0.95591 0.37577 0.0
C1250 C 0.8951 0.89119 0.39686 0.0
C1251 C 0.93543 0.96927 0.35965 0.0
C1252 C 0.83002 0.82755 0.48641 0.0
C1253 C 0.84796 0.84368 0.47038 0.0
C1254 C 0.86319 0.91153 0.45346 0.0
C1255 C 0.91868 0.9315 0.39077 0.0
C1256 C 0.89763 0.91654 0.40714 0.0
C1257 C 0.8425 0.86925 0.46401 0.0
C1258 C 0.861 0.88592 0.44375 0.0
H1259 H 0.98128 0.92566 0.3747 0.0
H1260 H 0.94624 0.90244 0.40188 0.0
H1261 H 0.88287 0.94613 0.44394 0.0
H1262 H 0.78305 0.86991 0.50072 0.0
H1263 H 0.81388 0.89785 0.47157 0.0
C1264 C 0.72903 0.70291 0.61589 0.0
C1265 C 0.7189 0.71856 0.58674 0.0
C1266 C 0.71584 0.68172 0.62869 0.0
C1267 C 0.65013 0.6652 0.6408 0.0
H1268 H 0.67565 0.60258 0.68288 0.0
C1269 C 0.59915 0.61094 0.76252 0.0
C1270 C 0.59657 0.58489 0.75824 0.0
C1271 C 0.61424 0.62464 0.73679 0.0
C1272 C 0.66822 0.61989 0.6709 0.0
H1273 H 0.68721 0.72436 0.54816 0.0
H1274 H 0.66502 0.68672 0.5683 0.0
H1275 H 0.70306 0.6293 0.64292 0.0
H1276 H 0.6086 0.55265 0.72415 0.0
H1277 H 0.63508 0.57672 0.67919 0.0
H1278 H 0.61561 0.65627 0.66947 0.0
C1279 C 0.68314 0.6906 0.5813 0.0
C1280 C 0.68393 0.63522 0.64823 0.0
C1281 C 0.69621 0.71181 0.56885 0.0
C1282 C 0.60974 0.57278 0.72782 0.0
C1283 C 0.62514 0.58649 0.70232 0.0
C1284 C 0.6346 0.65006 0.66366 0.0
C1285 C 0.69211 0.67611 0.61288 0.0
C1286 C 0.67511 0.6582 0.63325 0.0
C1287 C 0.62744 0.61259 0.70645 0.0
C1288 C 0.64354 0.62744 0.67949 0.0
H1289 H 0.74603 0.70827 0.63114 0.0
H1290 H 0.72318 0.67112 0.65333 0.0
H1291 H 0.6428 0.68295 0.63037 0.0
H1292 H 0.58936 0.62082 0.7857 0.0
H1293 H 0.61589 0.64469 0.74102 0.0
C1294 C 0.54527 0.47036 0.9222 0.0
C1295 C 0.54454 0.48172 0.88476 0.0
C1296 C 0.56729 0.46017 0.9373 0.0
C1297 C 0.6274 0.43276 0.90749 0.0
H1298 H 0.63731 0.43231 0.02032 0.0
C1299 C 0.68319 0.3544 0.98773 0.0
C1300 C 0.69352 0.35935 0.02491 0.0
C1301 C 0.66983 0.37307 0.96744 0.0
C1302 C 0.63542 0.43246 0.98866 0.0
H1303 H 0.56798 0.49371 0.83663 0.0
H1304 H 0.60665 0.47505 0.86228 0.0
H1305 H 0.60642 0.46003 0.99177 0.0
H1306 H 0.69958 0.38806 0.0687 0.0
H1307 H 0.67777 0.42094 0.03262 0.0
H1308 H 0.65672 0.40528 0.90446 0.0
C1309 C 0.58957 0.4735 0.87926 0.0
C1310 C 0.6173 0.44824 0.97226 0.0
C1311 C 0.56726 0.48398 0.86417 0.0
C1312 C 0.69156 0.38367 0.04026 0.0
C1313 C 0.6788 0.40246 0.01963 0.0
C1314 C 0.64586 0.41709 0.92392 0.0
C1315 C 0.58969 0.46109 0.91585 0.0
C1316 C 0.61235 0.44797 0.93166 0.0
C1317 C 0.66687 0.39726 0.98356 0.0
C1318 C 0.64965 0.41616 0.96494 0.0
H1319 H 0.5285 0.46837 0.93982 0.0
H1320 H 0.56639 0.4506 0.96535 0.0
H1321 H 0.62411 0.43203 0.8761 0.0
H1322 H 0.6842 0.33573 0.97537 0.0
H1323 H 0.66079 0.36806 0.94007 0.0
C1324 C 0.88244 0.434 0.2886 0.0
C1325 C 0.90507 0.44154 0.2711 0.0
C1326 C 0.8655 0.41879 0.26834 0.0
C1327 C 0.84909 0.393 0.16963 0.0
H1328 H 0.8195 0.33998 0.23213 0.0
C1329 C 0.80374 0.30298 0.10462 0.0
C1330 C 0.78374 0.29203 0.12512 0.0
C1331 C 0.81534 0.32469 0.11892 0.0
C1332 C 0.82715 0.35492 0.21424 0.0
H1333 H 0.92737 0.4391 0.21793 0.0
H1334 H 0.89791 0.4123 0.1827 0.0
H1335 H 0.84614 0.3708 0.2635 0.0
H1336 H 0.75995 0.29512 0.17623 0.0
H1337 H 0.7796 0.33341 0.20082 0.0
H1338 H 0.83045 0.37645 0.12009 0.0
C1339 C 0.89304 0.41859 0.21196 0.0
C1340 C 0.84253 0.37267 0.23231 0.0
C1341 C 0.90998 0.43403 0.2322 0.0
C1342 C 0.77494 0.3036 0.1594 0.0
C1343 C 0.78645 0.32532 0.1737 0.0
C1344 C 0.83368 0.37512 0.15145 0.0
C1345 C 0.87078 0.41036 0.23008 0.0
C1346 C 0.85379 0.39197 0.21034 0.0
C1347 C 0.80742 0.33562 0.15446 0.0
C1348 C 0.82254 0.35579 0.17355 0.0
H1349 H 0.87791 0.43963 0.31834 0.0
H1350 H 0.84833 0.41338 0.28299 0.0
H1351 H 0.85721 0.40771 0.15179 0.0
H1352 H 0.81175 0.29364 0.07934 0.0
H1353 H 0.83164 0.3318 0.10362 0.0
C1354 C 0.82251 0.66749 0.4636 0.0
C1355 C 0.83385 0.68641 0.48644 0.0
C1356 C 0.83704 0.64842 0.44639 0.0
C1357 C 0.89762 0.61588 0.45932 0.0
H1358 H 0.88988 0.59444 0.35116 0.0
C1359 C 0.96024 0.53783 0.39819 0.0
C1360 C 0.97166 0.54304 0.362 0.0
C1361 C 0.93959 0.55186 0.4109 0.0
C1362 C 0.89222 0.60018 0.38145 0.0
H1363 H 0.86975 0.70005 0.50774 0.0
H1364 H 0.89461 0.66705 0.47828 0.0
H1365 H 0.86177 0.62657 0.37808 0.0
H1366 H 0.97088 0.56733 0.31114 0.0
H1367 H 0.9345 0.59156 0.33269 0.0
H1368 H 0.92836 0.59026 0.46275 0.0
C1369 C 0.87448 0.66677 0.47401 0.0
C1370 C 0.876 0.61845 0.39694 0.0
C1371 C 0.8601 0.68581 0.49089 0.0
C1372 C 0.96156 0.56201 0.33811 0.0
C1373 C 0.9409 0.57612 0.35081 0.0
C1374 C 0.91364 0.59758 0.44402 0.0
C1375 C 0.86318 0.64765 0.45195 0.0
C1376 C 0.87884 0.62684 0.43588 0.0
C1377 C 0.93019 0.57179 0.38801 0.0
C1378 C 0.91141 0.58967 0.40474 0.0
H1379 H 0.8024 0.66681 0.45977 0.0
H1380 H 0.82774 0.63386 0.42972 0.0
H1381 H 0.90015 0.62166 0.48957 0.0
H1382 H 0.96804 0.52364 0.41748 0.0
H1383 H 0.93164 0.54775 0.43946 0.0
C1384 C 0.60957 0.44043 0.27099 0.0
C1385 C 0.59705 0.42898 0.23915 0.0
C1386 C 0.62779 0.42729 0.29261 0.0
C1387 C 0.67114 0.37319 0.28541 0.0
H1388 H 0.66991 0.37322 0.39933 0.0
C1389 C 0.73893 0.31019 0.37168 0.0
C1390 C 0.72704 0.29515 0.39986 0.0
C1391 C 0.72689 0.33156 0.35667 0.0
C1392 C 0.67061 0.37314 0.36752 0.0
H1393 H 0.59441 0.39438 0.20571 0.0
H1394 H 0.626 0.37192 0.24298 0.0
H1395 H 0.64073 0.39998 0.36274 0.0
H1396 H 0.69323 0.29031 0.43389 0.0
H1397 H 0.67259 0.32786 0.40916 0.0
H1398 H 0.70023 0.34571 0.28987 0.0
C1399 C 0.62182 0.39112 0.25104 0.0
C1400 C 0.65399 0.38859 0.34656 0.0
C1401 C 0.60354 0.40408 0.22969 0.0
C1402 C 0.70344 0.30241 0.41402 0.0
C1403 C 0.69146 0.3238 0.3993 0.0
C1404 C 0.68782 0.35789 0.30629 0.0
C1405 C 0.63425 0.40253 0.2827 0.0
C1406 C 0.65364 0.38831 0.30523 0.0
C1407 C 0.70256 0.33807 0.36923 0.0
C1408 C 0.68742 0.35722 0.34762 0.0
H1409 H 0.60581 0.45964 0.2791 0.0
H1410 H 0.63719 0.4367 0.31665 0.0
H1411 H 0.67162 0.37278 0.25359 0.0
H1412 H 0.75676 0.30449 0.35935 0.0
H1413 H 0.73607 0.34221 0.33374 0.0
C1414 C 0.94919 0.47827 0.64604 0.0
C1415 C 0.96711 0.46425 0.6667 0.0
C1416 C 0.92638 0.46729 0.63497 0.0
C1417 C 0.88799 0.40843 0.64415 0.0
H1418 H 0.87412 0.42105 0.53406 0.0
C1419 C 0.82036 0.34534 0.55452 0.0
C1420 C 0.82915 0.33836 0.51704 0.0
C1421 C 0.83213 0.36455 0.57571 0.0
C1422 C 0.87772 0.41726 0.56484 0.0
H1423 H 0.97544 0.4282 0.69268 0.0
H1424 H 0.93597 0.40902 0.67383 0.0
H1425 H 0.90321 0.44794 0.56906 0.0
H1426 H 0.85701 0.34666 0.4725 0.0
H1427 H 0.87765 0.37945 0.50949 0.0
H1428 H 0.86381 0.37662 0.63901 0.0
C1429 C 0.93882 0.42862 0.66689 0.0
C1430 C 0.89414 0.43299 0.58518 0.0
C1431 C 0.96149 0.4396 0.67786 0.0
C1432 C 0.84968 0.35141 0.50121 0.0
C1433 C 0.8614 0.37051 0.52233 0.0
C1434 C 0.87168 0.39256 0.62368 0.0
C1435 C 0.92137 0.44195 0.64385 0.0
C1436 C 0.90017 0.42831 0.6248 0.0
C1437 C 0.85296 0.37723 0.56002 0.0
C1438 C 0.867 0.39628 0.58339 0.0
H1439 H 0.95344 0.49715 0.63638 0.0
H1440 H 0.91327 0.47824 0.61771 0.0
H1441 H 0.89183 0.40449 0.67481 0.0
H1442 H 0.80492 0.33554 0.56819 0.0
H1443 H 0.82505 0.36929 0.60458 0.0
C1444 C 0.81414 0.71554 0.91356 0.0
C1445 C 0.79594 0.72436 0.88719 0.0
C1446 C 0.82942 0.69513 0.90378 0.0
C1447 C 0.83869 0.64354 0.83059 0.0
H1448 H 0.90865 0.65212 0.85833 0.0
C1449 C 0.91645 0.57181 0.78571 0.0
C1450 C 0.9388 0.58243 0.77132 0.0
C1451 C 0.89809 0.58692 0.80354 0.0
C1452 C 0.8892 0.6494 0.85025 0.0
H1453 H 0.77984 0.71938 0.82942 0.0
H1454 H 0.80671 0.68389 0.81177 0.0
H1455 H 0.87775 0.68196 0.88205 0.0
H1456 H 0.95924 0.61734 0.76503 0.0
H1457 H 0.92749 0.64337 0.79556 0.0
H1458 H 0.85053 0.61146 0.79738 0.0
C1459 C 0.80864 0.69204 0.84073 0.0
C1460 C 0.87135 0.66638 0.86433 0.0
C1461 C 0.79327 0.71242 0.85071 0.0
C1462 C 0.94233 0.60841 0.77567 0.0
C1463 C 0.92415 0.62339 0.79357 0.0
C1464 C 0.85662 0.62649 0.81648 0.0
C1465 C 0.82731 0.68343 0.86683 0.0
C1466 C 0.84586 0.66394 0.85429 0.0
C1467 C 0.90172 0.61294 0.80764 0.0
C1468 C 0.88218 0.62948 0.82556 0.0
H1469 H 0.81768 0.72543 0.94073 0.0
H1470 H 0.84347 0.68906 0.92474 0.0
H1471 H 0.81923 0.64087 0.82258 0.0
H1472 H 0.91277 0.55199 0.78237 0.0
H1473 H 0.88107 0.57822 0.81416 0.0
C1474 C 0.56068 0.52543 0.1115 0.0
C1475 C 0.54527 0.53919 0.13692 0.0
C1476 C 0.58284 0.53601 0.09686 0.0
C1477 C 0.62767 0.58883 0.10833 0.0
H1478 H 0.63085 0.58663 0.99462 0.0
C1479 C 0.68496 0.66066 0.01771 0.0
C1480 C 0.695 0.65328 0.98131 0.0
C1481 C 0.66997 0.64419 0.03952 0.0
C1482 C 0.63074 0.58711 0.02642 0.0
H1483 H 0.54055 0.57458 0.16692 0.0
H1484 H 0.57958 0.59274 0.14279 0.0
H1485 H 0.60011 0.56129 0.02903 0.0
H1486 H 0.69799 0.62248 0.94014 0.0
H1487 H 0.67272 0.59354 0.97862 0.0
H1488 H 0.65821 0.61478 0.10578 0.0
C1489 C 0.57495 0.5737 0.13451 0.0
C1490 C 0.61301 0.57251 0.04618 0.0
C1491 C 0.55268 0.56328 0.14854 0.0
C1492 C 0.69036 0.62882 0.96791 0.0
C1493 C 0.6757 0.61226 0.98993 0.0
C1494 C 0.64564 0.60325 0.08858 0.0
C1495 C 0.58989 0.56053 0.10748 0.0
C1496 C 0.61095 0.57353 0.0873 0.0
C1497 C 0.66482 0.61984 0.02569 0.0
C1498 C 0.64714 0.60295 0.04725 0.0
H1499 H 0.55492 0.50709 0.10128 0.0
H1500 H 0.59398 0.5254 0.0761 0.0
H1501 H 0.62665 0.58988 0.14008 0.0
H1502 H 0.68777 0.67951 0.02861 0.0
H1503 H 0.66165 0.65096 0.06651 0.0
C1504 C 0.28648 0.31288 0.33459 0.0
C1505 C 0.28356 0.30908 0.37523 0.0
C1506 C 0.29939 0.33366 0.32012 0.0
C1507 C 0.34983 0.37621 0.35176 0.0
H1508 H 0.34119 0.4028 0.24651 0.0
C1509 C 0.43207 0.42283 0.27032 0.0
C1510 C 0.42729 0.44369 0.24616 0.0
C1511 C 0.41236 0.40865 0.28583 0.0
C1512 C 0.34384 0.39587 0.27614 0.0
H1513 H 0.28954 0.32583 0.43226 0.0
H1514 H 0.3119 0.36251 0.40719 0.0
H1515 H 0.3082 0.37748 0.27578 0.0
H1516 H 0.39779 0.46551 0.2185 0.0
H1517 H 0.36342 0.44112 0.24606 0.0
H1518 H 0.38526 0.3949 0.35243 0.0
C1519 C 0.30474 0.3489 0.38645 0.0
C1520 C 0.32494 0.38108 0.29287 0.0
C1521 C 0.29165 0.32798 0.40094 0.0
C1522 C 0.40223 0.44946 0.23674 0.0
C1523 C 0.38245 0.43542 0.25264 0.0
C1524 C 0.36863 0.39113 0.33516 0.0
C1525 C 0.30976 0.35142 0.3459 0.0
C1526 C 0.32791 0.37049 0.33057 0.0
C1527 C 0.38721 0.41507 0.27804 0.0
C1528 C 0.36623 0.40068 0.2967 0.0
H1529 H 0.28035 0.29874 0.31388 0.0
H1530 H 0.3028 0.33467 0.28881 0.0
H1531 H 0.35303 0.3683 0.38066 0.0
H1532 H 0.45112 0.41777 0.2781 0.0
H1533 H 0.41691 0.39273 0.30429 0.0
C1534 C 0.45411 0.57169 0.13321 0.0
C1535 C 0.45553 0.54544 0.13294 0.0
C1536 C 0.43386 0.58419 0.11619 0.0
C1537 C 0.37111 0.57596 0.06744 0.0
H1538 H 0.39012 0.63956 0.02128 0.0
C1539 C 0.29798 0.64512 1.0002 0.0
C1540 C 0.30593 0.66272 0.97207 0.0
C1541 C 0.31513 0.62847 0.01756 0.0
C1542 C 0.38435 0.62166 0.03314 0.0
H1543 H 0.43703 0.51156 0.11396 0.0
H1544 H 0.40188 0.53342 0.08204 0.0
H1545 H 0.42091 0.61521 0.05613 0.0
H1546 H 0.33769 0.67545 0.93807 0.0
H1547 H 0.36719 0.64547 0.96601 0.0
H1548 H 0.33477 0.58196 0.04217 0.0
C1549 C 0.41589 0.54443 0.09721 0.0
C1550 C 0.40207 0.60781 0.05427 0.0
C1551 C 0.43598 0.53181 0.11557 0.0
C1552 C 0.33104 0.66226 0.95992 0.0
C1553 C 0.34805 0.6452 0.97648 0.0
C1554 C 0.35339 0.58968 0.04553 0.0
C1555 C 0.41498 0.57091 0.09619 0.0
C1556 C 0.39572 0.58494 0.07247 0.0
C1557 C 0.34063 0.62862 0.00668 0.0
C1558 C 0.35966 0.61293 0.02829 0.0
H1559 H 0.4692 0.58267 0.14578 0.0
H1560 H 0.43358 0.60445 0.11763 0.0
H1561 H 0.36535 0.55851 0.0809 0.0
H1562 H 0.27877 0.64515 0.01051 0.0
H1563 H 0.3085 0.61634 0.04083 0.0
C1564 C 0.0743 0.57837 0.78 0.0
C1565 C 0.08295 0.55662 0.76109 0.0
C1566 C 0.09125 0.59637 0.79366 0.0
C1567 C 0.15552 0.6045 0.82859 0.0
H1568 H 0.14516 0.67446 0.80245 0.0
C1569 C 0.22685 0.68355 0.86924 0.0
C1570 C 0.21664 0.70717 0.8777 0.0
C1571 C 0.2112 0.66402 0.85634 0.0
C1572 C 0.14818 0.65508 0.81071 0.0
H1573 H 0.11624 0.53672 0.74167 0.0
H1574 H 0.14579 0.56806 0.76608 0.0
H1575 H 0.11638 0.64309 0.77726 0.0
H1576 H 0.18242 0.72887 0.88109 0.0
H1577 H 0.15516 0.69492 0.86069 0.0
H1578 H 0.18702 0.61657 0.86289 0.0
C1579 C 0.12589 0.57118 0.77009 0.0
C1580 C 0.1317 0.6371 0.79599 0.0
C1581 C 0.10892 0.5534 0.75574 0.0
C1582 C 0.1907 0.7108 0.87441 0.0
C1583 C 0.17513 0.69137 0.86227 0.0
C1584 C 0.17191 0.6226 0.84382 0.0
C1585 C 0.11722 0.59277 0.78936 0.0
C1586 C 0.13513 0.61165 0.8048 0.0
C1587 C 0.18515 0.66789 0.85193 0.0
C1588 C 0.16834 0.64819 0.83529 0.0
H1589 H 0.05444 0.58132 0.78475 0.0
H1590 H 0.08407 0.61283 0.80851 0.0
H1591 H 0.15846 0.58498 0.8361 0.0
H1592 H 0.24688 0.68046 0.87135 0.0
H1593 H 0.21962 0.64622 0.84858 0.0
C1594 C 0.21262 0.37152 0.48967 0.0
C1595 C 0.20181 0.35213 0.46731 0.0
C1596 C 0.19751 0.39004 0.50705 0.0
C1597 C 0.13277 0.41697 0.50544 0.0
H1598 H 0.14414 0.43035 0.61611 0.0
C1599 C 0.07798 0.47431 0.63662 0.0
C1600 C 0.05512 0.46125 0.63466 0.0
C1601 C 0.09903 0.46562 0.61556 0.0
C1602 C 0.14103 0.42723 0.58503 0.0
H1603 H 0.1668 0.33783 0.44416 0.0
H1604 H 0.14067 0.36989 0.47397 0.0
H1605 H 0.17543 0.40673 0.5784 0.0
H1606 H 0.03632 0.42931 0.6085 0.0
H1607 H 0.0723 0.41494 0.57133 0.0
H1608 H 0.09776 0.43614 0.51264 0.0
C1609 C 0.16076 0.37102 0.47812 0.0
C1610 C 0.15893 0.4137 0.56335 0.0
C1611 C 0.17578 0.35249 0.46106 0.0
C1612 C 0.05361 0.43985 0.61073 0.0
C1613 C 0.07424 0.43156 0.58937 0.0
C1614 C 0.11491 0.43026 0.52708 0.0
C1615 C 0.1713 0.38974 0.5021 0.0
C1616 C 0.1546 0.40766 0.52356 0.0
C1617 C 0.09715 0.44431 0.5913 0.0
C1618 C 0.11846 0.43486 0.56735 0.0
H1619 H 0.2326 0.37172 0.49536 0.0
H1620 H 0.20631 0.40429 0.52498 0.0
H1621 H 0.12903 0.41323 0.47471 0.0
H1622 H 0.07953 0.49113 0.65421 0.0
H1623 H 0.11653 0.47579 0.61752 0.0
C1624 C 0.2853 0.68411 0.62428 0.0
C1625 C 0.29647 0.7079 0.62748 0.0
C1626 C 0.29702 0.66289 0.64119 0.0
C1627 C 0.33625 0.62065 0.664 0.0
H1628 H 0.36535 0.63295 0.76678 0.0
C1629 C 0.39584 0.54636 0.75158 0.0
C1630 C 0.41887 0.5557 0.76555 0.0
C1631 C 0.37747 0.56271 0.73644 0.0
C1632 C 0.35736 0.62914 0.73812 0.0
H1633 H 0.32885 0.72786 0.64993 0.0
H1634 H 0.34876 0.6916 0.67898 0.0
H1635 H 0.33915 0.66484 0.7361 0.0
H1636 H 0.44025 0.58962 0.77546 0.0
H1637 H 0.40824 0.61795 0.75014 0.0
H1638 H 0.3551 0.58496 0.66606 0.0
C1639 C 0.33097 0.68906 0.66413 0.0
C1640 C 0.34231 0.64744 0.72048 0.0
C1641 C 0.3195 0.70992 0.64732 0.0
C1642 C 0.42273 0.58175 0.76514 0.0
C1643 C 0.40431 0.59803 0.75065 0.0
C1644 C 0.35133 0.60216 0.68188 0.0
C1645 C 0.31979 0.66532 0.66206 0.0
C1646 C 0.33221 0.64384 0.68266 0.0
C1647 C 0.38156 0.58877 0.73564 0.0
C1648 C 0.36269 0.60654 0.71868 0.0
H1649 H 0.26751 0.68201 0.60933 0.0
H1650 H 0.28798 0.64479 0.6389 0.0
H1651 H 0.32883 0.61731 0.63484 0.0
H1652 H 0.39235 0.52636 0.75112 0.0
H1653 H 0.36011 0.55498 0.7253 0.0
C1654 C 0.20853 0.65022 0.50323 0.0
C1655 C 0.20115 0.67557 0.5047 0.0
C1656 C 0.19286 0.63209 0.48625 0.0
C1657 C 0.12718 0.61819 0.46367 0.0
H1658 H 0.15261 0.57345 0.38302 0.0
C1659 C 0.06751 0.53707 0.40843 0.0
C1660 C 0.06209 0.53755 0.36801 0.0
C1661 C 0.08741 0.5509 0.42381 0.0
C1662 C 0.1453 0.58582 0.4055 0.0
H1663 H 0.17119 0.7015 0.49036 0.0
H1664 H 0.14347 0.66973 0.46229 0.0
H1665 H 0.18083 0.60406 0.41417 0.0
H1666 H 0.07443 0.55156 0.31156 0.0
H1667 H 0.11003 0.57543 0.33853 0.0
H1668 H 0.09184 0.59993 0.45559 0.0
C1669 C 0.16153 0.66396 0.47378 0.0
C1670 C 0.16145 0.60321 0.4235 0.0
C1671 C 0.17739 0.68215 0.48996 0.0
C1672 C 0.07847 0.55041 0.34272 0.0
C1673 C 0.09866 0.56427 0.35823 0.0
C1674 C 0.11125 0.60056 0.44633 0.0
C1675 C 0.16921 0.63877 0.47113 0.0
C1676 C 0.1525 0.61969 0.45266 0.0
C1677 C 0.10254 0.56558 0.39918 0.0
C1678 C 0.12006 0.58418 0.41701 0.0
H1679 H 0.22682 0.64452 0.51385 0.0
H1680 H 0.19922 0.61281 0.48493 0.0
H1681 H 0.11973 0.63053 0.48607 0.0
H1682 H 0.05513 0.52744 0.42865 0.0
H1683 H 0.09014 0.5512 0.45537 0.0
C1684 C 0.11903 0.44175 0.29694 0.0
C1685 C 0.11372 0.46597 0.2829 0.0
C1686 C 0.13782 0.42716 0.27969 0.0
C1687 C 0.17097 0.41954 0.18497 0.0
H1688 H 0.20468 0.36673 0.243 0.0
C1689 C 0.19713 0.31385 0.15196 0.0
C1690 C 0.21676 0.31337 0.12436 0.0
C1691 C 0.1909 0.3358 0.17179 0.0
C1692 C 0.19577 0.38166 0.22646 0.0
H1693 H 0.12511 0.49434 0.24087 0.0
H1694 H 0.15831 0.46898 0.21118 0.0
H1695 H 0.18296 0.39997 0.2786 0.0
H1696 H 0.24615 0.33555 0.09776 0.0
H1697 H 0.23416 0.37487 0.13129 0.0
H1698 H 0.18345 0.40051 0.13278 0.0
C1699 C 0.14761 0.46112 0.23521 0.0
C1700 C 0.18305 0.40057 0.24679 0.0
C1701 C 0.12874 0.47579 0.25258 0.0
C1702 C 0.23051 0.33548 0.11794 0.0
C1703 C 0.22378 0.35787 0.13727 0.0
C1704 C 0.18401 0.40072 0.16461 0.0
C1705 C 0.15198 0.43633 0.24787 0.0
C1706 C 0.16955 0.41922 0.22638 0.0
C1707 C 0.20391 0.35808 0.16445 0.0
C1708 C 0.19577 0.38114 0.18521 0.0
H1709 H 0.10784 0.43354 0.32015 0.0
H1710 H 0.14025 0.40811 0.29008 0.0
H1711 H 0.16069 0.43339 0.1681 0.0
H1712 H 0.18615 0.29722 0.15795 0.0
H1713 H 0.17545 0.33548 0.19245 0.0
C1714 C 0.43349 0.48238 0.87697 0.0
C1715 C 0.45677 0.47108 0.86953 0.0
C1716 C 0.41315 0.4677 0.88977 0.0
C1717 C 0.39022 0.40228 0.89502 0.0
H1718 H 0.35879 0.42156 0.99302 0.0
C1719 C 0.33393 0.33014 0.98339 0.0
C1720 C 0.31251 0.33807 0.00385 0.0
C1721 C 0.35042 0.34764 0.96704 0.0
C1722 C 0.36694 0.41601 0.96525 0.0
H1723 H 0.47719 0.43597 0.8691 0.0
H1724 H 0.44193 0.41051 0.89011 0.0
H1725 H 0.38733 0.45055 0.96022 0.0
H1726 H 0.29225 0.37072 0.02472 0.0
H1727 H 0.32028 0.40118 0.99488 0.0
H1728 H 0.36979 0.36807 0.89914 0.0
C1729 C 0.43906 0.43046 0.88608 0.0
C1730 C 0.3833 0.43272 0.94643 0.0
C1731 C 0.45926 0.44504 0.87402 0.0
C1732 C 0.30858 0.36394 0.00908 0.0
C1733 C 0.32478 0.38147 0.99201 0.0
C1734 C 0.37351 0.38585 0.91325 0.0
C1735 C 0.41589 0.44159 0.89485 0.0
C1736 C 0.39555 0.42579 0.91155 0.0
C1737 C 0.34568 0.37359 0.96996 0.0
C1738 C 0.36213 0.39211 0.94926 0.0
H1739 H 0.43132 0.50251 0.87447 0.0
H1740 H 0.39546 0.47676 0.89632 0.0
H1741 H 0.39942 0.39632 0.86832 0.0
H1742 H 0.33764 0.31036 0.97908 0.0
H1743 H 0.36672 0.3407 0.95155 0.0
C1744 C 0.17848 0.80875 0.04044 0.0
C1745 C 0.20005 0.81735 0.02108 0.0
C1746 C 0.16449 0.82485 0.06412 0.0
C1747 C 0.15241 0.89147 0.0874 0.0
H1748 H 0.12775 0.86324 0.1851 0.0
C1749 C 0.09711 0.95017 0.20171 0.0
C1750 C 0.07449 0.93906 0.21364 0.0
C1751 C 0.11496 0.93618 0.18098 0.0
C1752 C 0.13448 0.87138 0.15791 0.0
H1753 H 0.22334 0.84989 0.01013 0.0
H1754 H 0.19893 0.87808 0.05193 0.0
H1755 H 0.15336 0.83762 0.14157 0.0
H1756 H 0.05335 0.90439 0.21499 0.0
H1757 H 0.08449 0.88003 0.17939 0.0
H1758 H 0.13327 0.92523 0.10389 0.0
C1759 C 0.19278 0.85887 0.04857 0.0
C1760 C 0.14904 0.85668 0.13285 0.0
C1761 C 0.20677 0.84272 0.02464 0.0
C1762 C 0.07057 0.9135 0.20609 0.0
C1763 C 0.08847 0.8995 0.18584 0.0
C1764 C 0.13789 0.90625 0.11264 0.0
C1765 C 0.17178 0.84994 0.06926 0.0
C1766 C 0.15774 0.86635 0.09689 0.0
C1767 C 0.11064 0.91078 0.17238 0.0
C1768 C 0.12838 0.89618 0.14779 0.0
H1769 H 0.17263 0.78938 0.03799 0.0
H1770 H 0.14804 0.81752 0.07877 0.0
H1771 H 0.15871 0.89945 0.05986 0.0
H1772 H 0.1006 0.96987 0.20704 0.0
H1773 H 0.13199 0.94529 0.17124 0.0
C1774 C 0.42102 0.951 0.28841 0.0
C1775 C 0.44413 0.94057 0.27715 0.0
C1776 C 0.40375 0.93674 0.30991 0.0
C1777 C 0.38722 0.87161 0.33676 0.0
H1778 H 0.36109 0.90088 0.43265 0.0
C1779 C 0.34448 0.80992 0.45706 0.0
C1780 C 0.32246 0.81828 0.47549 0.0
C1781 C 0.35817 0.82593 0.43276 0.0
C1782 C 0.36794 0.89252 0.40573 0.0
H1783 H 0.46675 0.90676 0.27778 0.0
H1784 H 0.43669 0.88193 0.31467 0.0
H1785 H 0.38553 0.92669 0.38736 0.0
H1786 H 0.29806 0.85038 0.48407 0.0
H1787 H 0.3219 0.87834 0.44128 0.0
H1788 H 0.36986 0.83745 0.35496 0.0
C1789 C 0.43184 0.90107 0.30713 0.0
C1790 C 0.38189 0.90732 0.37975 0.0
C1791 C 0.44914 0.91536 0.28614 0.0
C1792 C 0.31499 0.84337 0.47035 0.0
C1793 C 0.32866 0.85941 0.44584 0.0
C1794 C 0.37323 0.85687 0.36257 0.0
C1795 C 0.40917 0.91171 0.31995 0.0
C1796 C 0.39206 0.89689 0.34533 0.0
C1797 C 0.35013 0.8507 0.42608 0.0
C1798 C 0.36382 0.86698 0.39776 0.0
H1799 H 0.4167 0.97043 0.282 0.0
H1800 H 0.38633 0.94535 0.31911 0.0
H1801 H 0.39447 0.86314 0.31017 0.0
H1802 H 0.3509 0.79077 0.46064 0.0
H1803 H 0.37496 0.81878 0.41883 0.0
C1804 C 0.32503 0.17053 0.51355 0.0
C1805 C 0.32408 0.19636 0.52158 0.0
C1806 C 0.34102 0.1548 0.53508 0.0
C1807 C 0.37251 0.15108 0.63107 0.0
H1808 H 0.41291 0.0991 0.58278 0.0
C1809 C 0.42573 0.0754 0.72099 0.0
C1810 C 0.45039 0.07015 0.70901 0.0
C1811 C 0.41023 0.09079 0.69807 0.0
C1812 C 0.40178 0.1136 0.59666 0.0
H1813 H 0.33985 0.22604 0.55748 0.0
H1814 H 0.36758 0.19867 0.59479 0.0
H1815 H 0.38656 0.12601 0.5416 0.0
H1816 H 0.47821 0.07717 0.66384 0.0
H1817 H 0.4512 0.10394 0.62402 0.0
H1818 H 0.38782 0.13882 0.68607 0.0
C1819 C 0.35578 0.19051 0.57226 0.0
C1820 C 0.38655 0.12885 0.57312 0.0
C1821 C 0.34 0.20622 0.55062 0.0
C1822 C 0.45931 0.08084 0.67394 0.0
C1823 C 0.44378 0.09602 0.65092 0.0
C1824 C 0.38755 0.13571 0.65462 0.0
C1825 C 0.35618 0.16459 0.56521 0.0
C1826 C 0.37192 0.14789 0.59006 0.0
C1827 C 0.41902 0.10104 0.66257 0.0
C1828 C 0.4025 0.11692 0.63766 0.0
H1829 H 0.31305 0.16239 0.49126 0.0
H1830 H 0.34091 0.13487 0.52902 0.0
H1831 H 0.3612 0.1654 0.64503 0.0
H1832 H 0.41832 0.06747 0.74789 0.0
H1833 H 0.3912 0.09424 0.70773 0.0
C1834 C 0.18578 0.17842 0.96723 0.0
C1835 C 0.18563 0.20343 0.95422 0.0
C1836 C 0.17116 0.16036 0.94819 0.0
C1837 C 0.14153 0.14701 0.85286 0.0
H1838 H 0.1036 0.09772 0.9116 0.0
C1839 C 0.07616 0.07486 0.77687 0.0
C1840 C 0.07612 0.0505 0.79263 0.0
C1841 C 0.0886 0.09432 0.79646 0.0
C1842 C 0.1143 0.11117 0.8947 0.0
H1843 H 0.1697 0.22917 0.91145 0.0
H1844 H 0.14434 0.19769 0.87833 0.0
H1845 H 0.12713 0.12982 0.94668 0.0
H1846 H 0.08951 0.02738 0.84088 0.0
H1847 H 0.11149 0.06091 0.87423 0.0
H1848 H 0.12914 0.12813 0.80089 0.0
C1849 C 0.15586 0.192 0.90303 0.0
C1850 C 0.12775 0.12958 0.91486 0.0
C1851 C 0.17028 0.21006 0.92222 0.0
C1852 C 0.08897 0.04596 0.82802 0.0
C1853 C 0.10146 0.06528 0.84739 0.0
C1854 C 0.12821 0.12849 0.83267 0.0
C1855 C 0.15628 0.16692 0.91557 0.0
C1856 C 0.1416 0.14763 0.89418 0.0
C1857 C 0.10131 0.08976 0.83209 0.0
C1858 C 0.11457 0.11022 0.85335 0.0
H1859 H 0.19735 0.17275 0.99188 0.0
H1860 H 0.17197 0.14114 0.9584 0.0
H1861 H 0.15226 0.16051 0.83611 0.0
H1862 H 0.06636 0.07895 0.7497 0.0
H1863 H 0.08792 0.11299 0.784 0.0
C1864 C 0.93246 0.01772 0.87599 0.0
C1865 C 0.95464 0.03178 0.8717 0.0
C1866 C 0.91897 0.01838 0.91112 0.0
C1867 C 0.88414 0.04667 0.96342 0.0
H1868 H 0.91111 0.07222 0.06123 0.0
C1869 C 0.87322 0.14148 0.04372 0.0
C1870 C 0.84715 0.14508 0.04048 0.0
C1871 C 0.88361 0.11753 0.04181 0.0
C1872 C 0.90313 0.06473 0.03442 0.0
H1873 H 0.98144 0.0549 0.90308 0.0
H1874 H 0.95746 0.05711 0.96306 0.0
H1875 H 0.93662 0.0444 0.02057 0.0
H1876 H 0.81152 0.12519 0.03658 0.0
H1877 H 0.82977 0.08378 0.0332 0.0
H1878 H 0.85142 0.06814 0.97561 0.0
C1879 C 0.95049 0.04527 0.93968 0.0
C1880 C 0.91777 0.0489 0.01102 0.0
C1881 C 0.96414 0.04436 0.90478 0.0
C1882 C 0.83165 0.12372 0.03889 0.0
C1883 C 0.84211 0.09971 0.03695 0.0
C1884 C 0.8695 0.06225 0.98688 0.0
C1885 C 0.92701 0.03344 0.94255 0.0
C1886 C 0.90914 0.04135 0.97376 0.0
C1887 C 0.86824 0.09648 0.03632 0.0
C1888 C 0.87956 0.07299 0.02108 0.0
H1889 H 0.92433 0.00748 0.85178 0.0
H1890 H 0.90133 0.00841 0.91267 0.0
H1891 H 0.87663 0.0413 0.93509 0.0
H1892 H 0.88587 0.15727 0.04591 0.0
H1893 H 0.90384 0.11584 0.04126 0.0
C1894 C 0.68599 0.0974 0.45309 0.0
C1895 C 0.70135 0.11536 0.47121 0.0
C1896 C 0.68464 0.07302 0.46812 0.0
C1897 C 0.70497 0.03563 0.5577 0.0
H1898 H 0.63297 0.02915 0.56733 0.0
C1899 C 0.62048 0.01671 0.67633 0.0
C1900 C 0.62703 0.03644 0.70186 0.0
C1901 C 0.63546 0.01099 0.64396 0.0
C1902 C 0.65319 0.02999 0.56464 0.0
H1903 H 0.72921 0.12097 0.517 0.0
H1904 H 0.72612 0.07975 0.54385 0.0
H1905 H 0.65026 0.04725 0.50873 0.0
H1906 H 0.65543 0.06406 0.71535 0.0
H1907 H 0.68158 0.05414 0.65867 0.0
H1908 H 0.70711 0.02135 0.61659 0.0
C1909 C 0.7155 0.08365 0.51743 0.0
C1910 C 0.6633 0.04039 0.53063 0.0
C1911 C 0.71722 0.10774 0.50196 0.0
C1912 C 0.64987 0.04889 0.6961 0.0
C1913 C 0.66499 0.04295 0.66395 0.0
C1914 C 0.69476 0.02586 0.59229 0.0
C1915 C 0.69789 0.06645 0.50251 0.0
C1916 C 0.68915 0.04552 0.52825 0.0
C1917 C 0.65732 0.02474 0.63662 0.0
C1918 C 0.66866 0.02478 0.59701 0.0
H1919 H 0.67384 0.10261 0.42889 0.0
H1920 H 0.67162 0.06004 0.45471 0.0
H1921 H 0.7251 0.03796 0.55606 0.0
H1922 H 0.60286 0.00691 0.67942 0.0
H1923 H 0.62905 0.99703 0.62316 0.0
C1924 C 0.68244 0.9166 0.48855 0.0
C1925 C 0.70253 0.90233 0.50321 0.0
C1926 C 0.68665 0.93554 0.46108 0.0
C1927 C 0.72823 0.94081 0.37963 0.0
H1928 H 0.6788 0.99092 0.35121 0.0
C1929 C 0.66482 0.93167 0.25178 0.0
C1930 C 0.65152 0.95237 0.23698 0.0
C1931 C 0.68429 0.93513 0.27859 0.0
C1932 C 0.69342 0.97757 0.35842 0.0
H1933 H 0.74326 0.90059 0.50681 0.0
H1934 H 0.75043 0.93283 0.45744 0.0
H1935 H 0.68788 0.98311 0.42009 0.0
H1936 H 0.65175 0.99306 0.23249 0.0
H1937 H 0.68511 0.999 0.28052 0.0
H1938 H 0.73226 0.93384 0.31804 0.0
C1939 C 0.73138 0.92885 0.46646 0.0
C1940 C 0.69847 0.97298 0.39806 0.0
C1941 C 0.72716 0.91007 0.49435 0.0
C1942 C 0.66061 0.97663 0.24504 0.0
C1943 C 0.67998 0.98009 0.27219 0.0
C1944 C 0.72323 0.94544 0.33999 0.0
C1945 C 0.71107 0.94061 0.44767 0.0
C1946 C 0.71427 0.95307 0.40899 0.0
C1947 C 0.6909 0.95937 0.29112 0.0
C1948 C 0.70418 0.96232 0.3292 0.0
H1949 H 0.66323 0.91165 0.49525 0.0
H1950 H 0.6705 0.94423 0.44735 0.0
H1951 H 0.74073 0.92548 0.38696 0.0
H1952 H 0.65871 0.91271 0.2457 0.0
H1953 H 0.69227 0.91866 0.29249 0.0
C1954 C 0.86519 0.92552 0.29683 0.0
C1955 C 0.8849 0.90785 0.29755 0.0
C1956 C 0.84017 0.91757 0.29583 0.0
C1957 C 0.80066 0.85908 0.29198 0.0
H1958 H 0.78173 0.88749 0.19152 0.0
C1959 C 0.79539 0.80314 0.15559 0.0
C1960 C 0.78322 0.81207 0.12173 0.0
C1961 C 0.7924 0.8153 0.19156 0.0
C1962 C 0.78585 0.87949 0.22008 0.0
H1963 H 0.89305 0.86805 0.30391 0.0
H1964 H 0.85031 0.85455 0.30156 0.0
H1965 H 0.80663 0.91187 0.23617 0.0
H1966 H 0.75633 0.83986 0.10059 0.0
H1967 H 0.7508 0.86039 0.16325 0.0
H1968 H 0.78188 0.82561 0.27354 0.0
C1969 C 0.85385 0.87453 0.30148 0.0
C1970 C 0.80025 0.89366 0.246 0.0
C1971 C 0.87869 0.88238 0.30212 0.0
C1972 C 0.76615 0.83214 0.12563 0.0
C1973 C 0.76295 0.84412 0.16177 0.0
C1974 C 0.78628 0.84483 0.2659 0.0
C1975 C 0.83433 0.89187 0.29584 0.0
C1976 C 0.80995 0.88264 0.28036 0.0
C1977 C 0.77708 0.83671 0.19463 0.0
C1978 C 0.78089 0.85412 0.22814 0.0
H1979 H 0.8687 0.94541 0.29512 0.0
H1980 H 0.8255 0.93147 0.29239 0.0
H1981 H 0.807 0.85045 0.31907 0.0
H1982 H 0.80826 0.78744 0.15401 0.0
H1983 H 0.80374 0.80906 0.21612 0.0
C1984 C 0.61106 0.46576 0.70496 0.0
C1985 C 0.59076 0.45942 0.72925 0.0
C1986 C 0.62444 0.44725 0.68512 0.0
C1987 C 0.61604 0.38523 0.64295 0.0
H1988 H 0.68816 0.38768 0.62931 0.0
C1989 C 0.67106 0.31044 0.55527 0.0
C1990 C 0.69185 0.31833 0.53313 0.0
C1991 C 0.6584 0.3272 0.57973 0.0
C1992 C 0.66797 0.38693 0.63238 0.0
H1993 H 0.56912 0.42866 0.75314 0.0
H1994 H 0.59255 0.39601 0.71794 0.0
H1995 H 0.66784 0.41661 0.6747 0.0
H1996 H 0.7149 0.35031 0.51786 0.0
H1997 H 0.69239 0.37978 0.55989 0.0
H1998 H 0.61603 0.35596 0.60001 0.0
C1999 C 0.59799 0.41543 0.71432 0.0
C2000 C 0.65637 0.40338 0.65863 0.0
C2001 C 0.58474 0.43404 0.73467 0.0
C2002 C 0.69903 0.34363 0.53468 0.0
C2003 C 0.68628 0.36044 0.55907 0.0
C2004 C 0.62762 0.36885 0.61652 0.0
C2005 C 0.6177 0.42194 0.6888 0.0
C2006 C 0.63026 0.40286 0.66393 0.0
C2007 C 0.66613 0.3523 0.5825 0.0
C2008 C 0.65372 0.36965 0.61066 0.0
H2009 H 0.61621 0.48518 0.70035 0.0
H2010 H 0.63937 0.45289 0.66547 0.0
H2011 H 0.59583 0.38466 0.64594 0.0
H2012 H 0.66506 0.29106 0.55488 0.0
H2013 H 0.64313 0.3202 0.59755 0.0
C2014 C 0.8204 0.3064 0.92943 0.0
C2015 C 0.81253 0.3118 0.96792 0.0
C2016 C 0.83501 0.32347 0.90848 0.0
C2017 C 0.8796 0.37451 0.92034 0.0
H2018 H 0.86378 0.38882 0.81117 0.0
C2019 C 0.95136 0.41665 0.81411 0.0
C2020 C 0.94373 0.43707 0.79082 0.0
C2021 C 0.93393 0.40298 0.83574 0.0
C2022 C 0.86828 0.38517 0.84171 0.0
H2023 H 0.81421 0.33916 0.01493 0.0
H2024 H 0.8403 0.3689 0.97837 0.0
H2025 H 0.83581 0.36215 0.84993 0.0
H2026 H 0.91164 0.45862 0.77087 0.0
H2027 H 0.88088 0.43418 0.80839 0.0
H2028 H 0.91233 0.39706 0.91191 0.0
C2029 C 0.83491 0.35148 0.96444 0.0
C2030 C 0.85242 0.36978 0.86378 0.0
C2031 C 0.81999 0.33449 0.98531 0.0
C2032 C 0.91808 0.44303 0.78865 0.0
C2033 C 0.90051 0.42906 0.81004 0.0
C2034 C 0.8956 0.38964 0.89815 0.0
C2035 C 0.84233 0.34622 0.92566 0.0
C2036 C 0.8581 0.36405 0.90317 0.0
C2037 C 0.90838 0.40919 0.83434 0.0
C2038 C 0.89028 0.39483 0.85848 0.0
H2039 H 0.81494 0.28914 0.91509 0.0
H2040 H 0.84077 0.31875 0.87888 0.0
H2041 H 0.88451 0.37032 0.95054 0.0
H2042 H 0.97096 0.41152 0.81648 0.0
H2043 H 0.94048 0.3875 0.85368 0.0
C2044 C 0.93287 0.55229 0.16075 0.0
C2045 C 0.93949 0.55481 0.20052 0.0
C2046 C 0.91886 0.5708 0.14185 0.0
C2047 C 0.89936 0.63712 0.14777 0.0
H2048 H 0.84618 0.61496 0.07825 0.0
C2049 C 0.82305 0.70323 0.08441 0.0
C2050 C 0.8152 0.6991 0.0455 0.0
C2051 C 0.8399 0.6868 0.10257 0.0
C2052 C 0.86118 0.62148 0.09712 0.0
H2053 H 0.93694 0.579 0.25155 0.0
H2054 H 0.91207 0.61136 0.21851 0.0
H2055 H 0.87184 0.58408 0.11232 0.0
H2056 H 0.81974 0.67513 0.99453 0.0
H2057 H 0.84928 0.64655 0.02616 0.0
H2058 H 0.8884 0.6746 0.13272 0.0
C2059 C 0.91799 0.59509 0.2019 0.0
C2060 C 0.87587 0.60377 0.11671 0.0
C2061 C 0.93211 0.57651 0.22088 0.0
C2062 C 0.82526 0.67873 0.02464 0.0
C2063 C 0.84207 0.66227 0.04283 0.0
C2064 C 0.88459 0.65488 0.12817 0.0
C2065 C 0.91102 0.5923 0.16225 0.0
C2066 C 0.89521 0.61136 0.14214 0.0
C2067 C 0.84923 0.66588 0.08221 0.0
C2068 C 0.86538 0.64723 0.10253 0.0
H2069 H 0.93845 0.53593 0.14406 0.0
H2070 H 0.91425 0.56829 0.11111 0.0
H2071 H 0.91429 0.64356 0.16683 0.0
H2072 H 0.81575 0.71883 0.10125 0.0
H2073 H 0.84491 0.69 0.133 0.0
C2074 C 0.56559 0.59402 0.27262 0.0
C2075 C 0.57318 0.57026 0.25944 0.0
C2076 C 0.5823 0.60951 0.29268 0.0
C2077 C 0.63778 0.60651 0.35555 0.0
H2078 H 0.6391 0.67839 0.33888 0.0
C2079 C 0.70253 0.67431 0.44317 0.0
C2080 C 0.69216 0.69768 0.45319 0.0
C2081 C 0.68934 0.65779 0.41878 0.0
C2082 C 0.63877 0.65837 0.3442 0.0
H2083 H 0.60455 0.54444 0.25567 0.0
H2084 H 0.63382 0.57159 0.29099 0.0
H2085 H 0.61453 0.65199 0.29508 0.0
H2086 H 0.65931 0.72145 0.44743 0.0
H2087 H 0.63622 0.69256 0.40589 0.0
H2088 H 0.6616 0.61299 0.40527 0.0
C2089 C 0.61485 0.5781 0.28593 0.0
C2090 C 0.62478 0.64326 0.31897 0.0
C2091 C 0.59815 0.56267 0.26547 0.0
C2092 C 0.66796 0.70371 0.43988 0.0
C2093 C 0.65479 0.68722 0.41576 0.0
C2094 C 0.65173 0.62168 0.38097 0.0
C2095 C 0.60696 0.60153 0.30025 0.0
C2096 C 0.62381 0.61721 0.32471 0.0
C2097 C 0.66553 0.66434 0.4041 0.0
C2098 C 0.65202 0.64785 0.37598 0.0
H2099 H 0.5465 0.60044 0.26835 0.0
H2100 H 0.5756 0.62737 0.30361 0.0
H2101 H 0.63718 0.58651 0.36095 0.0
H2102 H 0.72118 0.66917 0.45292 0.0
H2103 H 0.69817 0.64032 0.4103 0.0
C2104 C 0.31581 0.59793 0.52209 0.0
C2105 C 0.30453 0.61975 0.50727 0.0
C2106 C 0.31422 0.5754 0.50119 0.0
C2107 C 0.29054 0.5492 0.40449 0.0
H2108 H 0.35921 0.52595 0.39913 0.0
C2109 C 0.37409 0.51514 0.29328 0.0
C2110 C 0.37325 0.53681 0.26945 0.0
C2111 C 0.356 0.51118 0.32218 0.0
C2112 C 0.33968 0.53148 0.4005 0.0
H2113 H 0.28154 0.6348 0.46009 0.0
H2114 H 0.27976 0.59658 0.42323 0.0
H2115 H 0.34464 0.54597 0.45797 0.0
H2116 H 0.35082 0.56926 0.25392 0.0
H2117 H 0.31959 0.56259 0.30484 0.0
H2118 H 0.28704 0.53737 0.34448 0.0
C2119 C 0.28906 0.59603 0.4515 0.0
C2120 C 0.33117 0.54305 0.43463 0.0
C2121 C 0.29023 0.61827 0.47268 0.0
C2122 C 0.35225 0.55263 0.27211 0.0
C2123 C 0.33413 0.54861 0.30102 0.0
C2124 C 0.29929 0.53815 0.36986 0.0
C2125 C 0.30203 0.57453 0.46441 0.0
C2126 C 0.30712 0.5539 0.43593 0.0
C2127 C 0.33682 0.52879 0.32799 0.0
C2128 C 0.32448 0.53081 0.36679 0.0
H2129 H 0.32662 0.5985 0.54905 0.0
H2130 H 0.32385 0.5591 0.51276 0.0
H2131 H 0.27148 0.55622 0.40507 0.0
H2132 H 0.38988 0.50242 0.29268 0.0
H2133 H 0.3584 0.49567 0.34245 0.0
C2134 C 0.05568 0.54738 0.09401 0.0
C2135 C 0.06472 0.53609 0.1286 0.0
C2136 C 0.06951 0.54631 0.05925 0.0
C2137 C 0.13563 0.54533 0.0356 0.0
H2138 H 0.10945 0.5631 0.93301 0.0
C2139 C 0.14509 0.63377 0.93893 0.0
C2140 C 0.17011 0.63927 0.94859 0.0
C2141 C 0.13602 0.60935 0.94197 0.0
C2142 C 0.11722 0.55791 0.9613 0.0
H2143 H 0.09465 0.5124 0.15193 0.0
H2144 H 0.11802 0.51003 0.09143 0.0
H2145 H 0.08351 0.53907 0.97853 0.0
H2146 H 0.20623 0.62222 0.9624 0.0
H2147 H 0.19059 0.57983 0.96608 0.0
H2148 H 0.16832 0.56568 0.02042 0.0
C2149 C 0.10049 0.52031 0.0915 0.0
C2150 C 0.10233 0.54414 0.98739 0.0
C2151 C 0.0868 0.52158 0.1264 0.0
C2152 C 0.1867 0.61917 0.95553 0.0
C2153 C 0.17767 0.59463 0.95788 0.0
C2154 C 0.15041 0.55905 0.00969 0.0
C2155 C 0.09274 0.53381 0.05813 0.0
C2156 C 0.11072 0.53941 0.02592 0.0
C2157 C 0.15185 0.58978 0.95448 0.0
C2158 C 0.14065 0.56724 0.97345 0.0
H2159 H 0.03852 0.55827 0.09419 0.0
H2160 H 0.06288 0.55705 0.03429 0.0
H2161 H 0.14291 0.54204 0.06486 0.0
H2162 H 0.13192 0.64861 0.93195 0.0
H2163 H 0.11605 0.60652 0.93853 0.0
C2164 C 0.20575 0.42492 0.98032 0.0
C2165 C 0.22289 0.40605 0.99108 0.0
C2166 C 0.21171 0.44206 0.95077 0.0
C2167 C 0.22986 0.4762 0.88414 0.0
H2168 H 0.22691 0.4268 0.80095 0.0
C2169 C 0.15346 0.47807 0.77669 0.0
C2170 C 0.15259 0.46176 0.74429 0.0
C2171 C 0.17553 0.48132 0.79779 0.0
C2172 C 0.22862 0.44135 0.8229 0.0
H2173 H 0.26187 0.39421 0.98427 0.0
H2174 H 0.27117 0.42263 0.93071 0.0
H2175 H 0.24356 0.41514 0.86421 0.0
H2176 H 0.17503 0.43824 0.70618 0.0
H2177 H 0.21399 0.44429 0.74275 0.0
H2178 H 0.21411 0.50224 0.84324 0.0
C2179 C 0.2531 0.42391 0.94511 0.0
C2180 C 0.23822 0.43453 0.85951 0.0
C2181 C 0.24738 0.40714 0.97534 0.0
C2182 C 0.175 0.45062 0.73139 0.0
C2183 C 0.19732 0.45409 0.75244 0.0
C2184 C 0.22105 0.4833 0.84706 0.0
C2185 C 0.23482 0.44056 0.93119 0.0
C2186 C 0.23667 0.45122 0.89126 0.0
C2187 C 0.19751 0.46831 0.78734 0.0
C2188 C 0.2177 0.46516 0.8174 0.0
H2189 H 0.18695 0.42525 0.99226 0.0
H2190 H 0.19721 0.45473 0.94047 0.0
H2191 H 0.22895 0.48952 0.90811 0.0
H2192 H 0.13669 0.48674 0.7883 0.0
H2193 H 0.17439 0.49216 0.82458 0.0
C2194 C 0.31289 0.35883 0.60084 0.0
C2195 C 0.2983 0.33746 0.5946 0.0
C2196 C 0.31029 0.37256 0.63536 0.0
C2197 C 0.29997 0.36169 0.73691 0.0
H2198 H 0.31846 0.43188 0.7364 0.0
C2199 C 0.39134 0.39301 0.78488 0.0
C2200 C 0.39724 0.41828 0.79186 0.0
C2201 C 0.36654 0.3853 0.78173 0.0
C2202 C 0.31251 0.41251 0.73817 0.0
H2203 H 0.26959 0.31354 0.61879 0.0
H2204 H 0.26538 0.33724 0.68038 0.0
H2205 H 0.29447 0.41492 0.68217 0.0
H2206 H 0.3809 0.45437 0.8079 0.0
H2207 H 0.33766 0.44106 0.80006 0.0
H2208 H 0.31987 0.35884 0.79134 0.0
C2209 C 0.2783 0.34375 0.65807 0.0
C2210 C 0.29888 0.40275 0.70675 0.0
C2211 C 0.28067 0.33024 0.62304 0.0
C2212 C 0.37744 0.43505 0.80013 0.0
C2213 C 0.35247 0.42734 0.79648 0.0
C2214 C 0.31339 0.37153 0.7686 0.0
C2215 C 0.29331 0.36494 0.6647 0.0
C2216 C 0.295 0.37678 0.70394 0.0
C2217 C 0.34682 0.40268 0.78511 0.0
C2218 C 0.32227 0.39634 0.76707 0.0
H2219 H 0.32657 0.36473 0.57922 0.0
H2220 H 0.32264 0.38838 0.63995 0.0
H2221 H 0.29669 0.34166 0.73602 0.0
H2222 H 0.40585 0.37924 0.77937 0.0
H2223 H 0.36308 0.36614 0.77281 0.0
loop_
_geom_bond_atom_site_label_1
_geom_bond_atom_site_label_2
_geom_bond_distance
_geom_bond_site_symmetry_2
_ccdc_geom_bond_type
Zn0 N4 2.020 . S
Zn0 O8 2.019 . S
Zn0 N10 2.119 . S
Zn0 O18 1.975 . S
C1 N2 1.334 1_655 S
C1 N5 1.336 . S
N2 C1 1.334 1_455 S
N2 C3 1.334 . S
C3 N2 1.334 . S
C3 N4 1.336 . S
N4 Zn0 2.020 . S
N4 C3 1.336 . S
N4 N5 1.354 1_455 S
N5 C1 1.336 . S
N5 N4 1.354 1_655 S
N5 Zn9 2.020 . S
C6 O7 1.244 . S
C6 O30 1.257 . S
O7 C6 1.244 . S
O8 Zn0 2.019 . S
O8 C28 1.257 1_545 S
Zn9 N5 2.020 . S
Zn9 O16 1.975 . S
Zn9 N25 2.119 1_545 S
Zn9 O30 2.019 . S
N10 Zn0 2.119 . S
N10 C12 1.334 . S
N10 C13 1.328 . S
C11 C12 1.391 . S
C11 N14 1.329 . S
C11 H32 0.930 . S
C12 N10 1.334 . S
C12 C11 1.391 . S
C12 H19 0.930 . S
C13 N10 1.328 . S
C13 C15 1.392 . S
C13 H20 0.930 . S
N14 C11 1.329 . S
N14 C15 1.331 . S
C15 C13 1.392 . S
C15 N14 1.331 . S
O16 Zn9 1.975 . S
O16 C17 1.252 1_655 S
C17 O16 1.252 1_455 S
C17 O18 1.252 . S
O18 Zn0 1.975 . S
O18 C17 1.252 . S
H19 C12 0.930 . S
H20 C13 0.930 . S
C21 C22 1.392 . S
C21 N25 1.328 . S
C21 H27 0.903 1_565 S
C22 C21 1.392 . S
C22 N26 1.331 . S
C23 C24 1.391 . S
C23 N26 1.329 . S
C23 H33 0.930 . S
C24 C23 1.391 . S
C24 N25 1.334 . S
C24 H31 0.930 . S
N25 Zn9 2.119 1_565 S
N25 C21 1.328 . S
N25 C24 1.334 . S
N26 C22 1.331 . S
N26 C23 1.329 . S
H27 C21 0.903 1_545 S
C28 O8 1.257 1_565 S
C28 O29 1.244 . S
O29 C28 1.244 . S
O30 C6 1.257 . S
O30 Zn9 2.019 . S
H31 C24 0.930 . S
H32 C11 0.930 . S
H33 C23 0.930 . S
Zn34 N38 2.020 . S
Zn34 O42 2.019 . S
Zn34 N44 2.119 . S
Zn34 O52 1.975 . S
C35 N36 1.334 . S
C35 N39 1.336 . S
N36 C35 1.334 . S
N36 C37 1.334 . S
C37 N36 1.334 . S
C37 N38 1.336 . S
N38 Zn34 2.020 . S
N38 C37 1.336 . S
N38 N39 1.354 . S
N39 C35 1.336 . S
N39 N38 1.354 . S
N39 Zn43 2.020 . S
C40 O41 1.244 . S
C40 O64 1.257 . S
O41 C40 1.244 . S
O42 Zn34 2.019 . S
O42 C62 1.257 . S
Zn43 N39 2.020 . S
Zn43 O50 1.975 . S
Zn43 N59 2.119 . S
Zn43 O64 2.019 . S
N44 Zn34 2.119 . S
N44 C46 1.334 . S
N44 C47 1.328 . S
C45 C46 1.391 . S
C45 N48 1.329 . S
C45 H66 0.930 . S
C46 N44 1.334 . S
C46 C45 1.391 . S
C46 H53 0.930 . S
C47 N44 1.328 . S
C47 C49 1.392 . S
C47 H54 0.930 . S
N48 C45 1.329 . S
N48 C49 1.331 . S
C49 C47 1.392 . S
C49 N48 1.331 . S
O50 Zn43 1.975 . S
O50 C51 1.252 . S
C51 O50 1.252 . S
C51 O52 1.252 . S
O52 Zn34 1.975 . S
O52 C51 1.252 . S
H53 C46 0.930 . S
H54 C47 0.930 . S
C55 C56 1.392 . S
C55 N59 1.328 . S
C55 H61 0.930 . S
C56 C55 1.392 . S
C56 N60 1.331 . S
C57 C58 1.391 . S
C57 N60 1.329 . S
C57 H67 0.930 . S
C58 C57 1.391 . S
C58 N59 1.334 . S
C58 H65 0.930 . S
N59 Zn43 2.119 . S
N59 C55 1.328 . S
N59 C58 1.334 . S
N60 C56 1.331 . S
N60 C57 1.329 . S
H61 C55 0.930 . S
C62 O42 1.257 . S
C62 O63 1.244 . S
O63 C62 1.244 . S
O64 C40 1.257 . S
O64 Zn43 2.019 . S
H65 C58 0.930 . S
H66 C45 0.930 . S
H67 C57 0.930 . S
Zn68 N72 2.020 . S
Zn68 O76 2.019 . S
Zn68 N78 2.119 . S
Zn68 O86 1.975 . S
C69 N70 1.334 . S
C69 N73 1.336 . S
N70 C69 1.334 . S
N70 C71 1.334 . S
C71 N70 1.334 . S
C71 N72 1.336 . S
N72 Zn68 2.020 . S
N72 C71 1.336 . S
N72 N73 1.354 . S
N73 C69 1.336 . S
N73 N72 1.354 . S
N73 Zn77 2.020 . S
C74 O75 1.244 . S
C74 O98 1.257 . S
O75 C74 1.244 . S
O76 Zn68 2.019 . S
O76 C96 1.257 1_565 S
Zn77 N73 2.020 . S
Zn77 O84 1.975 . S
Zn77 N93 2.119 1_565 S
Zn77 O98 2.019 . S
N78 Zn68 2.119 . S
N78 C80 1.334 . S
N78 C81 1.328 . S
C79 C80 1.391 . S
C79 N82 1.329 . S
C79 H100 0.930 . S
C80 N78 1.334 . S
C80 C79 1.391 . S
C80 H87 0.930 . S
C81 N78 1.328 . S
C81 C83 1.392 . S
C81 H88 0.930 . S
N82 C79 1.329 . S
N82 C83 1.331 . S
C83 C81 1.392 . S
C83 N82 1.331 . S
O84 Zn77 1.975 . S
O84 C85 1.252 . S
C85 O84 1.252 . S
C85 O86 1.252 . S
O86 Zn68 1.975 . S
O86 C85 1.252 . S
H87 C80 0.930 . S
H88 C81 0.930 . S
C89 C90 1.392 . S
C89 N93 1.328 . S
C89 H95 0.917 1_545 S
C90 C89 1.392 . S
C90 N94 1.331 . S
C91 C92 1.391 . S
C91 N94 1.329 . S
C91 H101 0.930 . S
C92 C91 1.391 . S
C92 N93 1.334 . S
C92 H99 0.930 . S
N93 Zn77 2.119 1_545 S
N93 C89 1.328 . S
N93 C92 1.334 . S
N94 C90 1.331 . S
N94 C91 1.329 . S
H95 C89 0.917 1_565 S
C96 O76 1.257 1_545 S
C96 O97 1.244 . S
O97 C96 1.244 . S
O98 C74 1.257 . S
O98 Zn77 2.019 . S
H99 C92 0.930 . S
H100 C79 0.930 . S
H101 C91 0.930 . S
Zn102 N106 2.020 1_556 S
Zn102 O110 2.019 . S
Zn102 N112 2.119 1_556 S
Zn102 O120 1.975 . S
C103 N104 1.334 . S
C103 N107 1.336 . S
N104 C103 1.334 . S
N104 C105 1.334 . S
C105 N104 1.334 . S
C105 N106 1.336 . S
N106 Zn102 2.020 1_554 S
N106 C105 1.336 . S
N106 N107 1.354 . S
N107 C103 1.336 . S
N107 N106 1.354 . S
N107 Zn111 2.020 1_554 S
C108 O109 1.244 . S
C108 O132 1.257 1_554 S
O109 C108 1.244 . S
O110 Zn102 2.019 . S
O110 C130 1.257 . S
Zn111 N107 2.020 1_556 S
Zn111 O118 1.975 . S
Zn111 N127 2.119 . S
Zn111 O132 2.019 . S
N112 Zn102 2.119 1_554 S
N112 C114 1.334 . S
N112 C115 1.328 . S
C113 C114 1.391 . S
C113 N116 1.329 . S
C113 H134 0.930 . S
C114 N112 1.334 . S
C114 C113 1.391 . S
C114 H121 0.930 . S
C115 N112 1.328 . S
C115 C117 1.392 . S
C115 H122 0.931 . S
N116 C113 1.329 . S
N116 C117 1.331 . S
C117 C115 1.392 . S
C117 N116 1.331 . S
O118 Zn111 1.975 . S
O118 C119 1.252 . S
C119 O118 1.252 . S
C119 O120 1.252 . S
O120 Zn102 1.975 . S
O120 C119 1.252 . S
H121 C114 0.930 . S
H122 C115 0.931 . S
C123 C124 1.392 . S
C123 N127 1.328 . S
C123 H129 0.930 . S
C124 C123 1.392 . S
C124 N128 1.331 . S
C125 C126 1.391 . S
C125 N128 1.329 . S
C125 H135 0.930 . S
C126 C125 1.391 . S
C126 N127 1.334 . S
C126 H133 0.930 . S
N127 Zn111 2.119 . S
N127 C123 1.328 . S
N127 C126 1.334 . S
N128 C124 1.331 . S
N128 C125 1.329 . S
H129 C123 0.930 . S
C130 O110 1.257 . S
C130 O131 1.244 . S
O131 C130 1.244 . S
O132 C108 1.257 1_556 S
O132 Zn111 2.019 . S
H133 C126 0.930 . S
H134 C113 0.930 . S
H135 C125 0.930 . S
Zn136 N140 2.020 . S
Zn136 O144 2.019 . S
Zn136 N146 2.119 . S
Zn136 O154 1.975 . S
C137 N138 1.334 1_655 S
C137 N141 1.336 . S
N138 C137 1.334 1_455 S
N138 C139 1.334 . S
C139 N138 1.334 . S
C139 N140 1.336 . S
N140 Zn136 2.020 . S
N140 C139 1.336 . S
N140 N141 1.354 1_455 S
N141 C137 1.336 . S
N141 N140 1.354 1_655 S
N141 Zn145 2.020 . S
C142 O143 1.244 . S
C142 O166 1.257 . S
O143 C142 1.244 . S
O144 Zn136 2.019 . S
O144 C164 1.257 1_565 S
Zn145 N141 2.020 . S
Zn145 O152 1.975 . S
Zn145 N161 2.119 1_565 S
Zn145 O166 2.019 . S
N146 Zn136 2.119 . S
N146 C148 1.334 . S
N146 C149 1.328 . S
C147 C148 1.391 . S
C147 N150 1.329 . S
C147 H168 0.930 . S
C148 N146 1.334 . S
C148 C147 1.391 . S
C148 H155 0.930 . S
C149 N146 1.328 . S
C149 C151 1.392 . S
C149 H156 0.930 . S
N150 C147 1.329 . S
N150 C151 1.331 . S
C151 C149 1.392 . S
C151 N150 1.331 . S
O152 Zn145 1.975 . S
O152 C153 1.252 1_655 S
C153 O152 1.252 1_455 S
C153 O154 1.252 . S
O154 Zn136 1.975 . S
O154 C153 1.252 . S
H155 C148 0.930 . S
H156 C149 0.930 . S
C157 C158 1.392 . S
C157 N161 1.328 . S
C157 H163 0.903 1_545 S
C158 C157 1.392 . S
C158 N162 1.331 . S
C159 C160 1.391 . S
C159 N162 1.329 . S
C159 H169 0.930 . S
C160 C159 1.391 . S
C160 N161 1.334 . S
C160 H167 0.930 . S
N161 Zn145 2.119 1_545 S
N161 C157 1.328 . S
N161 C160 1.334 . S
N162 C158 1.331 . S
N162 C159 1.329 . S
H163 C157 0.903 1_565 S
C164 O144 1.257 1_545 S
C164 O165 1.244 . S
O165 C164 1.244 . S
O166 C142 1.257 . S
O166 Zn145 2.019 . S
H167 C160 0.930 . S
H168 C147 0.930 . S
H169 C159 0.930 . S
Zn170 N174 2.020 1_554 S
Zn170 O178 2.019 . S
Zn170 N180 2.119 . S
Zn170 O188 1.975 . S
C171 N172 1.334 . S
C171 N175 1.336 . S
N172 C171 1.334 . S
N172 C173 1.334 . S
C173 N172 1.334 . S
C173 N174 1.336 . S
N174 Zn170 2.020 1_556 S
N174 C173 1.336 . S
N174 N175 1.354 . S
N175 C171 1.336 . S
N175 N174 1.354 . S
N175 Zn179 2.020 1_556 S
C176 O177 1.244 . S
C176 O200 1.257 . S
O177 C176 1.244 . S
O178 Zn170 2.019 . S
O178 C198 1.257 1_554 S
Zn179 N175 2.020 1_554 S
Zn179 O186 1.975 . S
Zn179 N195 2.119 1_554 S
Zn179 O200 2.019 . S
N180 Zn170 2.119 . S
N180 C182 1.334 . S
N180 C183 1.328 . S
C181 C182 1.391 . S
C181 N184 1.329 . S
C181 H202 0.930 . S
C182 N180 1.334 . S
C182 C181 1.391 . S
C182 H189 0.930 . S
C183 N180 1.328 . S
C183 C185 1.392 . S
C183 H190 0.930 . S
N184 C181 1.329 . S
N184 C185 1.331 . S
C185 C183 1.392 . S
C185 N184 1.331 . S
O186 Zn179 1.975 . S
O186 C187 1.252 . S
C187 O186 1.252 . S
C187 O188 1.252 . S
O188 Zn170 1.975 . S
O188 C187 1.252 . S
H189 C182 0.930 . S
H190 C183 0.930 . S
C191 C192 1.392 . S
C191 N195 1.328 . S
C191 H197 0.931 . S
C192 C191 1.392 . S
C192 N196 1.331 . S
C193 C194 1.391 . S
C193 N196 1.329 . S
C193 H203 0.930 . S
C194 C193 1.391 . S
C194 N195 1.334 . S
C194 H201 0.930 . S
N195 Zn179 2.119 1_556 S
N195 C191 1.328 . S
N195 C194 1.334 . S
N196 C192 1.331 . S
N196 C193 1.329 . S
H197 C191 0.931 . S
C198 O178 1.257 1_556 S
C198 O199 1.244 . S
O199 C198 1.244 . S
O200 C176 1.257 . S
O200 Zn179 2.019 . S
H201 C194 0.930 . S
H202 C181 0.930 . S
H203 C193 0.930 . S
Zn204 N208 2.020 . S
Zn204 O212 2.019 . S
Zn204 N214 2.119 . S
Zn204 O222 1.975 . S
C205 N206 1.334 . S
C205 N209 1.336 . S
N206 C205 1.334 . S
N206 C207 1.334 . S
C207 N206 1.334 . S
C207 N208 1.336 . S
N208 Zn204 2.020 . S
N208 C207 1.336 . S
N208 N209 1.354 . S
N209 C205 1.336 . S
N209 N208 1.354 . S
N209 Zn213 2.020 . S
C210 O211 1.244 . S
C210 O234 1.257 . S
O211 C210 1.244 . S
O212 Zn204 2.019 . S
O212 C232 1.257 1_545 S
Zn213 N209 2.020 . S
Zn213 O220 1.975 . S
Zn213 N229 2.119 1_545 S
Zn213 O234 2.019 . S
N214 Zn204 2.119 . S
N214 C216 1.334 . S
N214 C217 1.328 . S
C215 C216 1.391 . S
C215 N218 1.329 . S
C215 H236 0.930 . S
C216 N214 1.334 . S
C216 C215 1.391 . S
C216 H223 0.930 . S
C217 N214 1.328 . S
C217 C219 1.392 . S
C217 H224 0.930 . S
N218 C215 1.329 . S
N218 C219 1.331 . S
C219 C217 1.392 . S
C219 N218 1.331 . S
O220 Zn213 1.975 . S
O220 C221 1.252 . S
C221 O220 1.252 . S
C221 O222 1.252 . S
O222 Zn204 1.975 . S
O222 C221 1.252 . S
H223 C216 0.930 . S
H224 C217 0.930 . S
C225 C226 1.392 . S
C225 N229 1.328 . S
C225 H231 0.917 1_565 S
C226 C225 1.392 . S
C226 N230 1.331 . S
C227 C228 1.391 . S
C227 N230 1.329 . S
C227 H237 0.930 . S
C228 C227 1.391 . S
C228 N229 1.334 . S
C228 H235 0.930 . S
N229 Zn213 2.119 1_565 S
N229 C225 1.328 . S
N229 C228 1.334 . S
N230 C226 1.331 . S
N230 C227 1.329 . S
H231 C225 0.917 1_545 S
C232 O212 1.257 1_565 S
C232 O233 1.244 . S
O233 C232 1.244 . S
O234 C210 1.257 . S
O234 Zn213 2.019 . S
H235 C228 0.930 . S
H236 C215 0.930 . S
H237 C227 0.930 . S
Zn238 N242 2.020 . S
Zn238 O246 2.019 . S
Zn238 N248 2.119 . S
Zn238 O256 1.975 . S
C239 N240 1.334 . S
C239 N243 1.336 . S
N240 C239 1.334 . S
N240 C241 1.334 . S
C241 N240 1.334 . S
C241 N242 1.336 . S
N242 Zn238 2.020 . S
N242 C241 1.336 . S
N242 N243 1.354 . S
N243 C239 1.336 . S
N243 N242 1.354 . S
N243 Zn247 2.020 . S
C244 O245 1.244 . S
C244 O268 1.257 . S
O245 C244 1.244 . S
O246 Zn238 2.019 . S
O246 C266 1.257 . S
Zn247 N243 2.020 . S
Zn247 O254 1.975 . S
Zn247 N263 2.119 . S
Zn247 O268 2.019 . S
N248 Zn238 2.119 . S
N248 C250 1.334 . S
N248 C251 1.328 . S
C249 C250 1.391 . S
C249 N252 1.329 . S
C249 H270 0.930 . S
C250 N248 1.334 . S
C250 C249 1.391 . S
C250 H257 0.930 . S
C251 N248 1.328 . S
C251 C253 1.392 . S
C251 H258 0.930 . S
N252 C249 1.329 . S
N252 C253 1.331 . S
C253 C251 1.392 . S
C253 N252 1.331 . S
O254 Zn247 1.975 . S
O254 C255 1.252 . S
C255 O254 1.252 . S
C255 O256 1.252 . S
O256 Zn238 1.975 . S
O256 C255 1.252 . S
H257 C250 0.930 . S
H258 C251 0.930 . S
C259 C260 1.392 . S
C259 N263 1.328 . S
C259 H265 0.930 . S
C260 C259 1.392 . S
C260 N264 1.331 . S
C261 C262 1.391 . S
C261 N264 1.329 . S
C261 H271 0.930 . S
C262 C261 1.391 . S
C262 N263 1.334 . S
C262 H269 0.930 . S
N263 Zn247 2.119 . S
N263 C259 1.328 . S
N263 C262 1.334 . S
N264 C260 1.331 . S
N264 C261 1.329 . S
H265 C259 0.930 . S
C266 O246 1.257 . S
C266 O267 1.244 . S
O267 C266 1.244 . S
O268 C244 1.257 . S
O268 Zn247 2.019 . S
H269 C262 0.930 . S
H270 C249 0.930 . S
H271 C261 0.930 . S
Zn272 N276 2.020 . S
Zn272 O280 2.019 . S
Zn272 N282 2.119 . S
Zn272 O290 1.975 . S
C273 N274 1.334 . S
C273 N277 1.336 . S
N274 C273 1.334 . S
N274 C275 1.334 . S
C275 N274 1.334 . S
C275 N276 1.336 . S
N276 Zn272 2.020 . S
N276 C275 1.336 . S
N276 N277 1.354 . S
N277 C273 1.336 . S
N277 N276 1.354 . S
N277 Zn281 2.020 . S
C278 O279 1.244 . S
C278 O302 1.257 . S
O279 C278 1.244 . S
O280 Zn272 2.019 . S
O280 C300 1.257 . S
Zn281 N277 2.020 . S
Zn281 O288 1.975 . S
Zn281 N297 2.119 . S
Zn281 O302 2.019 . S
N282 Zn272 2.119 . S
N282 C284 1.334 . S
N282 C285 1.328 . S
C283 C284 1.391 . S
C283 N286 1.329 . S
C283 H304 0.930 . S
C284 N282 1.334 . S
C284 C283 1.391 . S
C284 H291 0.930 . S
C285 N282 1.328 . S
C285 C287 1.392 . S
C285 H292 0.930 . S
N286 C283 1.329 . S
N286 C287 1.331 . S
C287 C285 1.392 . S
C287 N286 1.331 . S
O288 Zn281 1.975 . S
O288 C289 1.252 . S
C289 O288 1.252 . S
C289 O290 1.252 . S
O290 Zn272 1.975 . S
O290 C289 1.252 . S
H291 C284 0.930 . S
H292 C285 0.930 . S
C293 C294 1.392 . S
C293 N297 1.328 . S
C293 H299 0.930 . S
C294 C293 1.392 . S
C294 N298 1.331 . S
C295 C296 1.391 . S
C295 N298 1.329 . S
C295 H305 0.930 . S
C296 C295 1.391 . S
C296 N297 1.334 . S
C296 H303 0.930 . S
N297 Zn281 2.119 . S
N297 C293 1.328 . S
N297 C296 1.334 . S
N298 C294 1.331 . S
N298 C295 1.329 . S
H299 C293 0.930 . S
C300 O280 1.257 . S
C300 O301 1.244 . S
O301 C300 1.244 . S
O302 C278 1.257 . S
O302 Zn281 2.019 . S
H303 C296 0.930 . S
H304 C283 0.930 . S
H305 C295 0.930 . S
Zn306 N310 2.020 1_554 S
Zn306 O314 2.019 . S
Zn306 N316 2.119 1_554 S
Zn306 O324 1.975 . S
C307 N308 1.334 . S
C307 N311 1.336 . S
N308 C307 1.334 . S
N308 C309 1.334 . S
C309 N308 1.334 . S
C309 N310 1.336 . S
N310 Zn306 2.020 1_556 S
N310 C309 1.336 . S
N310 N311 1.354 . S
N311 C307 1.336 . S
N311 N310 1.354 . S
N311 Zn315 2.020 1_556 S
C312 O313 1.244 . S
C312 O336 1.257 1_556 S
O313 C312 1.244 . S
O314 Zn306 2.019 . S
O314 C334 1.257 . S
Zn315 N311 2.020 1_554 S
Zn315 O322 1.975 . S
Zn315 N331 2.119 . S
Zn315 O336 2.019 . S
N316 Zn306 2.119 1_556 S
N316 C318 1.334 . S
N316 C319 1.328 . S
C317 C318 1.391 . S
C317 N320 1.329 . S
C317 H338 0.930 . S
C318 N316 1.334 . S
C318 C317 1.391 . S
C318 H325 0.930 . S
C319 N316 1.328 . S
C319 C321 1.392 . S
C319 H326 0.931 . S
N320 C317 1.329 . S
N320 C321 1.331 . S
C321 C319 1.392 . S
C321 N320 1.331 . S
O322 Zn315 1.975 . S
O322 C323 1.252 . S
C323 O322 1.252 . S
C323 O324 1.252 . S
O324 Zn306 1.975 . S
O324 C323 1.252 . S
H325 C318 0.930 . S
H326 C319 0.931 . S
C327 C328 1.392 . S
C327 N331 1.328 . S
C327 H333 0.930 . S
C328 C327 1.392 . S
C328 N332 1.331 . S
C329 C330 1.391 . S
C329 N332 1.329 . S
C329 H339 0.930 . S
C330 C329 1.391 . S
C330 N331 1.334 . S
C330 H337 0.930 . S
N331 Zn315 2.119 . S
N331 C327 1.328 . S
N331 C330 1.334 . S
N332 C328 1.331 . S
N332 C329 1.329 . S
H333 C327 0.930 . S
C334 O314 1.257 . S
C334 O335 1.244 . S
O335 C334 1.244 . S
O336 C312 1.257 1_554 S
O336 Zn315 2.019 . S
H337 C330 0.930 . S
H338 C317 0.930 . S
H339 C329 0.930 . S
Zn340 N344 2.020 1_556 S
Zn340 O348 2.019 . S
Zn340 N350 2.119 . S
Zn340 O358 1.975 . S
C341 N342 1.334 . S
C341 N345 1.336 . S
N342 C341 1.334 . S
N342 C343 1.334 . S
C343 N342 1.334 . S
C343 N344 1.336 . S
N344 Zn340 2.020 1_554 S
N344 C343 1.336 . S
N344 N345 1.354 . S
N345 C341 1.336 . S
N345 N344 1.354 . S
N345 Zn349 2.020 1_554 S
C346 O347 1.244 . S
C346 O370 1.257 . S
O347 C346 1.244 . S
O348 Zn340 2.019 . S
O348 C368 1.257 1_556 S
Zn349 N345 2.020 1_556 S
Zn349 O356 1.975 . S
Zn349 N365 2.119 1_556 S
Zn349 O370 2.019 . S
N350 Zn340 2.119 . S
N350 C352 1.334 . S
N350 C353 1.328 . S
C351 C352 1.391 . S
C351 N354 1.329 . S
C351 H372 0.930 . S
C352 N350 1.334 . S
C352 C351 1.391 . S
C352 H359 0.930 . S
C353 N350 1.328 . S
C353 C355 1.392 . S
C353 H360 0.930 . S
N354 C351 1.329 . S
N354 C355 1.331 . S
C355 C353 1.392 . S
C355 N354 1.331 . S
O356 Zn349 1.975 . S
O356 C357 1.252 . S
C357 O356 1.252 . S
C357 O358 1.252 . S
O358 Zn340 1.975 . S
O358 C357 1.252 . S
H359 C352 0.930 . S
H360 C353 0.930 . S
C361 C362 1.392 . S
C361 N365 1.328 . S
C361 H367 0.931 . S
C362 C361 1.392 . S
C362 N366 1.331 . S
C363 C364 1.391 . S
C363 N366 1.329 . S
C363 H373 0.930 . S
C364 C363 1.391 . S
C364 N365 1.334 . S
C364 H371 0.930 . S
N365 Zn349 2.119 1_554 S
N365 C361 1.328 . S
N365 C364 1.334 . S
N366 C362 1.331 . S
N366 C363 1.329 . S
H367 C361 0.931 . S
C368 O348 1.257 1_554 S
C368 O369 1.244 . S
O369 C368 1.244 . S
O370 C346 1.257 . S
O370 Zn349 2.019 . S
H371 C364 0.930 . S
H372 C351 0.930 . S
H373 C363 0.930 . S
Zn374 N378 2.020 . S
Zn374 O382 2.019 . S
Zn374 N384 2.119 . S
Zn374 O392 1.975 . S
C375 N376 1.334 . S
C375 N379 1.336 . S
N376 C375 1.334 . S
N376 C377 1.334 . S
C377 N376 1.334 . S
C377 N378 1.336 . S
N378 Zn374 2.020 . S
N378 C377 1.336 . S
N378 N379 1.354 . S
N379 C375 1.336 . S
N379 N378 1.354 . S
N379 Zn383 2.020 . S
C380 O381 1.244 . S
C380 O404 1.257 . S
O381 C380 1.244 . S
O382 Zn374 2.019 . S
O382 C402 1.257 . S
Zn383 N379 2.020 . S
Zn383 O390 1.975 . S
Zn383 N399 2.119 . S
Zn383 O404 2.019 . S
N384 Zn374 2.119 . S
N384 C386 1.334 . S
N384 C387 1.328 . S
C385 C386 1.391 . S
C385 N388 1.329 . S
C385 H406 0.930 . S
C386 N384 1.334 . S
C386 C385 1.391 . S
C386 H393 0.930 . S
C387 N384 1.328 . S
C387 C389 1.392 . S
C387 H394 0.930 . S
N388 C385 1.329 . S
N388 C389 1.331 . S
C389 C387 1.392 . S
C389 N388 1.331 . S
O390 Zn383 1.975 . S
O390 C391 1.252 . S
C391 O390 1.252 . S
C391 O392 1.252 . S
O392 Zn374 1.975 . S
O392 C391 1.252 . S
H393 C386 0.930 . S
H394 C387 0.930 . S
C395 C396 1.392 . S
C395 N399 1.328 . S
C395 H401 0.930 . S
C396 C395 1.392 . S
C396 N400 1.331 . S
C397 C398 1.391 . S
C397 N400 1.329 . S
C397 H407 0.930 . S
C398 C397 1.391 . S
C398 N399 1.334 . S
C398 H405 0.930 . S
N399 Zn383 2.119 . S
N399 C395 1.328 . S
N399 C398 1.334 . S
N400 C396 1.331 . S
N400 C397 1.329 . S
H401 C395 0.930 . S
C402 O382 1.257 . S
C402 O403 1.244 . S
O403 C402 1.244 . S
O404 C380 1.257 . S
O404 Zn383 2.019 . S
H405 C398 0.930 . S
H406 C385 0.930 . S
H407 C397 0.930 . S
Zn408 N412 2.020 . S
Zn408 O416 2.019 . S
Zn408 N418 2.119 . S
Zn408 O426 1.975 . S
C409 N410 1.334 . S
C409 N413 1.336 . S
N410 C409 1.334 . S
N410 C411 1.334 . S
C411 N410 1.334 . S
C411 N412 1.336 . S
N412 Zn408 2.020 . S
N412 C411 1.336 . S
N412 N413 1.354 . S
N413 C409 1.336 . S
N413 N412 1.354 . S
N413 Zn417 2.020 . S
C414 O415 1.244 . S
C414 O438 1.257 . S
O415 C414 1.244 . S
O416 Zn408 2.019 . S
O416 C436 1.257 . S
Zn417 N413 2.020 . S
Zn417 O424 1.975 . S
Zn417 N433 2.119 . S
Zn417 O438 2.019 . S
N418 Zn408 2.119 . S
N418 C420 1.334 . S
N418 C421 1.328 . S
C419 C420 1.391 . S
C419 N422 1.329 . S
C419 H440 0.930 . S
C420 N418 1.334 . S
C420 C419 1.391 . S
C420 H427 0.930 . S
C421 N418 1.328 . S
C421 C423 1.392 . S
C421 H428 0.930 . S
N422 C419 1.329 . S
N422 C423 1.331 . S
C423 C421 1.392 . S
C423 N422 1.331 . S
O424 Zn417 1.975 . S
O424 C425 1.252 . S
C425 O424 1.252 . S
C425 O426 1.252 . S
O426 Zn408 1.975 . S
O426 C425 1.252 . S
H427 C420 0.930 . S
H428 C421 0.930 . S
C429 C430 1.392 . S
C429 N433 1.328 . S
C429 H435 0.930 . S
C430 C429 1.392 . S
C430 N434 1.331 . S
C431 C432 1.391 . S
C431 N434 1.329 . S
C431 H441 0.930 . S
C432 C431 1.391 . S
C432 N433 1.334 . S
C432 H439 0.930 . S
N433 Zn417 2.119 . S
N433 C429 1.328 . S
N433 C432 1.334 . S
N434 C430 1.331 . S
N434 C431 1.329 . S
H435 C429 0.930 . S
C436 O416 1.257 . S
C436 O437 1.244 . S
O437 C436 1.244 . S
O438 C414 1.257 . S
O438 Zn417 2.019 . S
H439 C432 0.930 . S
H440 C419 0.930 . S
H441 C431 0.930 . S
Zn442 N446 2.020 . S
Zn442 O450 2.019 . S
Zn442 N452 2.119 . S
Zn442 O460 1.975 . S
C443 N444 1.334 . S
C443 N447 1.336 . S
N444 C443 1.334 . S
N444 C445 1.334 1_455 S
C445 N444 1.334 1_655 S
C445 N446 1.336 . S
N446 Zn442 2.020 . S
N446 C445 1.336 . S
N446 N447 1.354 1_655 S
N447 C443 1.336 . S
N447 N446 1.354 1_455 S
N447 Zn451 2.020 . S
C448 O449 1.244 . S
C448 O472 1.257 . S
O449 C448 1.244 . S
O450 Zn442 2.019 . S
O450 C470 1.257 . S
Zn451 N447 2.020 . S
Zn451 O458 1.975 . S
Zn451 N467 2.119 . S
Zn451 O472 2.019 . S
N452 Zn442 2.119 . S
N452 C454 1.334 . S
N452 C455 1.328 . S
C453 C454 1.391 . S
C453 N456 1.329 . S
C453 H474 0.930 . S
C454 N452 1.334 . S
C454 C453 1.391 . S
C454 H461 0.930 . S
C455 N452 1.328 . S
C455 C457 1.392 . S
C455 H462 0.930 . S
N456 C453 1.329 . S
N456 C457 1.331 . S
C457 C455 1.392 . S
C457 N456 1.331 . S
O458 Zn451 1.975 . S
O458 C459 1.252 . S
C459 O458 1.252 . S
C459 O460 1.252 1_455 S
O460 Zn442 1.975 . S
O460 C459 1.252 1_655 S
H461 C454 0.930 . S
H462 C455 0.930 . S
C463 C464 1.392 . S
C463 N467 1.328 . S
C463 H469 0.930 . S
C464 C463 1.392 . S
C464 N468 1.331 . S
C465 C466 1.391 . S
C465 N468 1.329 . S
C465 H475 0.930 . S
C466 C465 1.391 . S
C466 N467 1.334 . S
C466 H473 0.930 . S
N467 Zn451 2.119 . S
N467 C463 1.328 . S
N467 C466 1.334 . S
N468 C464 1.331 . S
N468 C465 1.329 . S
H469 C463 0.930 . S
C470 O450 1.257 . S
C470 O471 1.244 . S
O471 C470 1.244 . S
O472 C448 1.257 . S
O472 Zn451 2.019 . S
H473 C466 0.930 . S
H474 C453 0.930 . S
H475 C465 0.930 . S
Zn476 N480 2.020 . S
Zn476 O484 2.019 . S
Zn476 N486 2.119 . S
Zn476 O494 1.975 . S
C477 N478 1.334 . S
C477 N481 1.336 . S
N478 C477 1.334 . S
N478 C479 1.334 . S
C479 N478 1.334 . S
C479 N480 1.336 . S
N480 Zn476 2.020 . S
N480 C479 1.336 . S
N480 N481 1.354 . S
N481 C477 1.336 . S
N481 N480 1.354 . S
N481 Zn485 2.020 . S
C482 O483 1.244 . S
C482 O506 1.257 . S
O483 C482 1.244 . S
O484 Zn476 2.019 . S
O484 C504 1.257 . S
Zn485 N481 2.020 . S
Zn485 O492 1.975 . S
Zn485 N501 2.119 . S
Zn485 O506 2.019 . S
N486 Zn476 2.119 . S
N486 C488 1.334 . S
N486 C489 1.328 . S
C487 C488 1.391 . S
C487 N490 1.329 . S
C487 H508 0.930 . S
C488 N486 1.334 . S
C488 C487 1.391 . S
C488 H495 0.930 . S
C489 N486 1.328 . S
C489 C491 1.392 . S
C489 H496 0.930 . S
N490 C487 1.329 . S
N490 C491 1.331 . S
C491 C489 1.392 . S
C491 N490 1.331 . S
O492 Zn485 1.975 . S
O492 C493 1.252 . S
C493 O492 1.252 . S
C493 O494 1.252 . S
O494 Zn476 1.975 . S
O494 C493 1.252 . S
H495 C488 0.930 . S
H496 C489 0.930 . S
C497 C498 1.392 . S
C497 N501 1.328 . S
C497 H503 0.930 . S
C498 C497 1.392 . S
C498 N502 1.331 . S
C499 C500 1.391 . S
C499 N502 1.329 . S
C499 H509 0.930 . S
C500 C499 1.391 . S
C500 N501 1.334 . S
C500 H507 0.930 . S
N501 Zn485 2.119 . S
N501 C497 1.328 . S
N501 C500 1.334 . S
N502 C498 1.331 . S
N502 C499 1.329 . S
H503 C497 0.930 . S
C504 O484 1.257 . S
C504 O505 1.244 . S
O505 C504 1.244 . S
O506 C482 1.257 . S
O506 Zn485 2.019 . S
H507 C500 0.930 . S
H508 C487 0.930 . S
H509 C499 0.930 . S
Zn510 N514 2.020 . S
Zn510 O518 2.019 . S
Zn510 N520 2.119 . S
Zn510 O528 1.975 . S
C511 N512 1.334 1_655 S
C511 N515 1.336 . S
N512 C511 1.334 1_455 S
N512 C513 1.334 . S
C513 N512 1.334 . S
C513 N514 1.336 . S
N514 Zn510 2.020 . S
N514 C513 1.336 . S
N514 N515 1.354 1_455 S
N515 C511 1.336 . S
N515 N514 1.354 1_655 S
N515 Zn519 2.020 . S
C516 O517 1.244 . S
C516 O540 1.257 . S
O517 C516 1.244 . S
O518 Zn510 2.019 . S
O518 C538 1.257 . S
Zn519 N515 2.020 . S
Zn519 O526 1.975 . S
Zn519 N535 2.119 . S
Zn519 O540 2.019 . S
N520 Zn510 2.119 . S
N520 C522 1.334 . S
N520 C523 1.328 . S
C521 C522 1.391 . S
C521 N524 1.329 . S
C521 H542 0.930 . S
C522 N520 1.334 . S
C522 C521 1.391 . S
C522 H529 0.930 . S
C523 N520 1.328 . S
C523 C525 1.392 . S
C523 H530 0.930 . S
N524 C521 1.329 . S
N524 C525 1.331 . S
C525 C523 1.392 . S
C525 N524 1.331 . S
O526 Zn519 1.975 . S
O526 C527 1.252 1_655 S
C527 O526 1.252 1_455 S
C527 O528 1.252 . S
O528 Zn510 1.975 . S
O528 C527 1.252 . S
H529 C522 0.930 . S
H530 C523 0.930 . S
C531 C532 1.392 . S
C531 N535 1.328 . S
C531 H537 0.930 . S
C532 C531 1.392 . S
C532 N536 1.331 . S
C533 C534 1.391 . S
C533 N536 1.329 . S
C533 H543 0.930 . S
C534 C533 1.391 . S
C534 N535 1.334 . S
C534 H541 0.930 . S
N535 Zn519 2.119 . S
N535 C531 1.328 . S
N535 C534 1.334 . S
N536 C532 1.331 . S
N536 C533 1.329 . S
H537 C531 0.930 . S
C538 O518 1.257 . S
C538 O539 1.244 . S
O539 C538 1.244 . S
O540 C516 1.257 . S
O540 Zn519 2.019 . S
H541 C534 0.930 . S
H542 C521 0.930 . S
H543 C533 0.930 . S
C544 C545 1.349 1_655 S
C544 C546 1.327 . S
C544 H569 0.950 . S
C545 C544 1.349 1_455 S
C545 C561 1.349 . S
C546 C544 1.327 . S
C546 C565 1.429 1_655 S
C546 H570 0.950 1_565 S
C547 C564 1.574 1_556 S
C547 C566 1.368 . S
C547 H571 0.949 . S
H548 C552 0.949 . S
C549 C550 1.349 . S
C549 C551 1.327 . S
C549 H572 0.950 . S
C550 C549 1.349 . S
C550 C562 1.349 1_455 S
C551 C549 1.327 . S
C551 C567 1.429 . S
C551 H573 0.950 1_545 S
C552 H548 0.949 . S
C552 C560 1.574 1_554 S
C552 C568 1.368 1_655 S
H553 C561 0.950 . S
H554 C559 0.950 . S
H555 C560 0.949 . S
H556 C562 0.950 . S
H557 C563 0.950 . S
H558 C564 0.949 . S
C559 H554 0.950 . S
C559 C561 1.327 . S
C559 C565 1.429 . S
C560 C552 1.574 1_556 S
C560 H555 0.949 . S
C560 C566 1.368 1_645 S
C561 C545 1.349 . S
C561 H553 0.950 . S
C561 C559 1.327 . S
C562 C550 1.349 1_655 S
C562 H556 0.950 . S
C562 C563 1.327 . S
C563 H557 0.950 . S
C563 C562 1.327 . S
C563 C567 1.429 1_655 S
C564 C547 1.574 1_554 S
C564 H558 0.949 . S
C564 C568 1.368 1_565 S
C565 C546 1.429 1_455 S
C565 C559 1.429 . S
C565 C566 1.523 . S
C566 C547 1.368 . S
C566 C560 1.368 1_465 S
C566 C565 1.523 . S
C567 C551 1.429 . S
C567 C563 1.429 1_455 S
C567 C568 1.523 . S
C568 C552 1.368 1_455 S
C568 C564 1.368 1_545 S
C568 C567 1.523 . S
H569 C544 0.950 . S
H570 C546 0.950 1_545 S
H571 C547 0.949 . S
H572 C549 0.950 . S
H573 C551 0.950 1_565 S
C574 C575 1.349 . S
C574 C576 1.327 . S
C574 H599 0.950 . S
C575 C574 1.349 . S
C575 C591 1.349 . S
C576 C574 1.327 . S
C576 C595 1.429 . S
C576 H600 0.950 . S
C577 C594 1.574 . S
C577 C596 1.368 . S
C577 H601 0.949 . S
H578 C582 0.949 . S
C579 C580 1.349 . S
C579 C581 1.327 . S
C579 H602 0.950 . S
C580 C579 1.349 . S
C580 C592 1.349 . S
C581 C579 1.327 . S
C581 C597 1.429 . S
C581 H603 0.950 . S
C582 H578 0.949 . S
C582 C590 1.574 . S
C582 C598 1.368 . S
H583 C591 0.950 . S
H584 C589 0.950 . S
H585 C590 0.949 . S
H586 C592 0.950 . S
H587 C593 0.950 . S
H588 C594 0.949 . S
C589 H584 0.950 . S
C589 C591 1.327 . S
C589 C595 1.429 . S
C590 C582 1.574 . S
C590 H585 0.949 . S
C590 C596 1.368 . S
C591 C575 1.349 . S
C591 H583 0.950 . S
C591 C589 1.327 . S
C592 C580 1.349 . S
C592 H586 0.950 . S
C592 C593 1.327 . S
C593 H587 0.950 . S
C593 C592 1.327 . S
C593 C597 1.429 . S
C594 C577 1.574 . S
C594 H588 0.949 . S
C594 C598 1.368 . S
C595 C576 1.429 . S
C595 C589 1.429 . S
C595 C596 1.523 . S
C596 C577 1.368 . S
C596 C590 1.368 . S
C596 C595 1.523 . S
C597 C581 1.429 . S
C597 C593 1.429 . S
C597 C598 1.523 . S
C598 C582 1.368 . S
C598 C594 1.368 . S
C598 C597 1.523 . S
H599 C574 0.950 . S
H600 C576 0.950 . S
H601 C577 0.949 . S
H602 C579 0.950 . S
H603 C581 0.950 . S
C604 C605 1.349 . S
C604 C606 1.327 . S
C604 H629 0.950 . S
C605 C604 1.349 . S
C605 C621 1.349 . S
C606 C604 1.327 . S
C606 C625 1.429 . S
C606 H630 0.950 . S
C607 C624 1.574 . S
C607 C626 1.368 . S
C607 H631 0.949 . S
H608 C612 0.949 . S
C609 C610 1.349 . S
C609 C611 1.327 . S
C609 H632 0.950 . S
C610 C609 1.349 . S
C610 C622 1.349 . S
C611 C609 1.327 . S
C611 C627 1.429 . S
C611 H633 0.950 . S
C612 H608 0.949 . S
C612 C620 1.574 . S
C612 C628 1.368 . S
H613 C621 0.950 . S
H614 C619 0.950 . S
H615 C620 0.949 . S
H616 C622 0.950 . S
H617 C623 0.950 . S
H618 C624 0.949 . S
C619 H614 0.950 . S
C619 C621 1.327 . S
C619 C625 1.429 . S
C620 C612 1.574 . S
C620 H615 0.949 . S
C620 C626 1.368 1_565 S
C621 C605 1.349 . S
C621 H613 0.950 . S
C621 C619 1.327 . S
C622 C610 1.349 . S
C622 H616 0.950 . S
C622 C623 1.327 . S
C623 H617 0.950 . S
C623 C622 1.327 . S
C623 C627 1.429 . S
C624 C607 1.574 . S
C624 H618 0.949 . S
C624 C628 1.368 1_545 S
C625 C606 1.429 . S
C625 C619 1.429 . S
C625 C626 1.523 . S
C626 C607 1.368 . S
C626 C620 1.368 1_545 S
C626 C625 1.523 . S
C627 C611 1.429 . S
C627 C623 1.429 . S
C627 C628 1.523 . S
C628 C612 1.368 . S
C628 C624 1.368 1_565 S
C628 C627 1.523 . S
H629 C604 0.950 . S
H630 C606 0.950 . S
H631 C607 0.949 . S
H632 C609 0.950 . S
H633 C611 0.950 . S
C634 C635 1.349 . S
C634 C636 1.327 . S
C634 H659 0.950 . S
C635 C634 1.349 . S
C635 C651 1.349 . S
C636 C634 1.327 . S
C636 C655 1.429 . S
C636 H660 0.950 . S
C637 C654 1.574 . S
C637 C656 1.368 . S
C637 H661 0.949 . S
H638 C642 0.949 . S
C639 C640 1.349 . S
C639 C641 1.327 . S
C639 H662 0.950 . S
C640 C639 1.349 . S
C640 C652 1.349 . S
C641 C639 1.327 . S
C641 C657 1.429 . S
C641 H663 0.950 . S
C642 H638 0.949 . S
C642 C650 1.574 . S
C642 C658 1.368 . S
H643 C651 0.950 . S
H644 C649 0.950 . S
H645 C650 0.949 . S
H646 C652 0.950 . S
H647 C653 0.950 . S
H648 C654 0.949 . S
C649 H644 0.950 . S
C649 C651 1.327 . S
C649 C655 1.429 . S
C650 C642 1.574 . S
C650 H645 0.949 . S
C650 C656 1.368 . S
C651 C635 1.349 . S
C651 H643 0.950 . S
C651 C649 1.327 . S
C652 C640 1.349 . S
C652 H646 0.950 . S
C652 C653 1.327 . S
C653 H647 0.950 . S
C653 C652 1.327 . S
C653 C657 1.429 . S
C654 C637 1.574 . S
C654 H648 0.949 . S
C654 C658 1.368 . S
C655 C636 1.429 . S
C655 C649 1.429 . S
C655 C656 1.523 . S
C656 C637 1.368 . S
C656 C650 1.368 . S
C656 C655 1.523 . S
C657 C641 1.429 . S
C657 C653 1.429 . S
C657 C658 1.523 . S
C658 C642 1.368 . S
C658 C654 1.368 . S
C658 C657 1.523 . S
H659 C634 0.950 . S
H660 C636 0.950 . S
H661 C637 0.949 . S
H662 C639 0.950 . S
H663 C641 0.950 . S
C664 C665 1.349 . S
C664 C666 1.327 . S
C664 H689 0.950 . S
C665 C664 1.349 . S
C665 C681 1.349 . S
C666 C664 1.327 . S
C666 C685 1.429 . S
C666 H690 0.950 . S
C667 C684 1.574 . S
C667 C686 1.368 . S
C667 H691 0.949 . S
H668 C672 0.949 . S
C669 C670 1.349 . S
C669 C671 1.327 . S
C669 H692 0.950 . S
C670 C669 1.349 . S
C670 C682 1.349 . S
C671 C669 1.327 . S
C671 C687 1.429 . S
C671 H693 0.950 . S
C672 H668 0.949 . S
C672 C680 1.574 . S
C672 C688 1.368 . S
H673 C681 0.950 . S
H674 C679 0.950 . S
H675 C680 0.949 . S
H676 C682 0.950 . S
H677 C683 0.950 . S
H678 C684 0.949 . S
C679 H674 0.950 . S
C679 C681 1.327 . S
C679 C685 1.429 . S
C680 C672 1.574 . S
C680 H675 0.949 . S
C680 C686 1.368 . S
C681 C665 1.349 . S
C681 H673 0.950 . S
C681 C679 1.327 . S
C682 C670 1.349 . S
C682 H676 0.950 . S
C682 C683 1.327 . S
C683 H677 0.950 . S
C683 C682 1.327 . S
C683 C687 1.429 . S
C684 C667 1.574 . S
C684 H678 0.949 . S
C684 C688 1.368 . S
C685 C666 1.429 . S
C685 C679 1.429 . S
C685 C686 1.523 . S
C686 C667 1.368 . S
C686 C680 1.368 . S
C686 C685 1.523 . S
C687 C671 1.429 . S
C687 C683 1.429 . S
C687 C688 1.523 . S
C688 C672 1.368 . S
C688 C684 1.368 . S
C688 C687 1.523 . S
H689 C664 0.950 . S
H690 C666 0.950 . S
H691 C667 0.949 . S
H692 C669 0.950 . S
H693 C671 0.950 . S
C694 C695 1.349 . S
C694 C696 1.327 . S
C694 H719 0.950 . S
C695 C694 1.349 . S
C695 C711 1.349 . S
C696 C694 1.327 . S
C696 C715 1.429 . S
C696 H720 0.950 . S
C697 C714 1.574 . S
C697 C716 1.368 . S
C697 H721 0.949 . S
H698 C702 0.949 . S
C699 C700 1.349 . S
C699 C701 1.327 . S
C699 H722 0.950 . S
C700 C699 1.349 . S
C700 C712 1.349 . S
C701 C699 1.327 . S
C701 C717 1.429 . S
C701 H723 0.950 . S
C702 H698 0.949 . S
C702 C710 1.574 . S
C702 C718 1.368 . S
H703 C711 0.950 . S
H704 C709 0.950 . S
H705 C710 0.949 . S
H706 C712 0.950 . S
H707 C713 0.950 . S
H708 C714 0.949 . S
C709 H704 0.950 . S
C709 C711 1.327 . S
C709 C715 1.429 . S
C710 C702 1.574 . S
C710 H705 0.949 . S
C710 C716 1.368 . S
C711 C695 1.349 . S
C711 H703 0.950 . S
C711 C709 1.327 . S
C712 C700 1.349 . S
C712 H706 0.950 . S
C712 C713 1.327 . S
C713 H707 0.950 . S
C713 C712 1.327 . S
C713 C717 1.429 . S
C714 C697 1.574 . S
C714 H708 0.949 . S
C714 C718 1.368 . S
C715 C696 1.429 . S
C715 C709 1.429 . S
C715 C716 1.523 . S
C716 C697 1.368 . S
C716 C710 1.368 . S
C716 C715 1.523 . S
C717 C701 1.429 . S
C717 C713 1.429 . S
C717 C718 1.523 . S
C718 C702 1.368 . S
C718 C714 1.368 . S
C718 C717 1.523 . S
H719 C694 0.950 . S
H720 C696 0.950 . S
H721 C697 0.949 . S
H722 C699 0.950 . S
H723 C701 0.950 . S
C724 C725 1.349 . S
C724 C726 1.327 . S
C724 H749 0.950 . S
C725 C724 1.349 . S
C725 C741 1.349 . S
C726 C724 1.327 . S
C726 C745 1.429 . S
C726 H750 0.950 . S
C727 C744 1.574 . S
C727 C746 1.368 . S
C727 H751 0.949 . S
H728 C732 0.949 . S
C729 C730 1.349 . S
C729 C731 1.327 . S
C729 H752 0.950 . S
C730 C729 1.349 . S
C730 C742 1.349 . S
C731 C729 1.327 . S
C731 C747 1.429 . S
C731 H753 0.950 . S
C732 H728 0.949 . S
C732 C740 1.574 . S
C732 C748 1.368 . S
H733 C741 0.950 . S
H734 C739 0.950 . S
H735 C740 0.949 . S
H736 C742 0.950 . S
H737 C743 0.950 . S
H738 C744 0.949 . S
C739 H734 0.950 . S
C739 C741 1.327 . S
C739 C745 1.429 . S
C740 C732 1.574 . S
C740 H735 0.949 . S
C740 C746 1.368 . S
C741 C725 1.349 . S
C741 H733 0.950 . S
C741 C739 1.327 . S
C742 C730 1.349 . S
C742 H736 0.950 . S
C742 C743 1.327 . S
C743 H737 0.950 . S
C743 C742 1.327 . S
C743 C747 1.429 . S
C744 C727 1.574 . S
C744 H738 0.949 . S
C744 C748 1.368 . S
C745 C726 1.429 . S
C745 C739 1.429 . S
C745 C746 1.523 . S
C746 C727 1.368 . S
C746 C740 1.368 . S
C746 C745 1.523 . S
C747 C731 1.429 . S
C747 C743 1.429 . S
C747 C748 1.523 . S
C748 C732 1.368 . S
C748 C744 1.368 . S
C748 C747 1.523 . S
H749 C724 0.950 . S
H750 C726 0.950 . S
H751 C727 0.949 . S
H752 C729 0.950 . S
H753 C731 0.950 . S
C754 C755 1.349 . S
C754 C756 1.327 . S
C754 H779 0.950 . S
C755 C754 1.349 . S
C755 C771 1.349 1_455 S
C756 C754 1.327 . S
C756 C775 1.429 . S
C756 H780 0.950 . S
C757 C774 1.574 1_554 S
C757 C776 1.368 1_655 S
C757 H781 0.949 . S
H758 C762 0.949 . S
C759 C760 1.349 1_655 S
C759 C761 1.327 . S
C759 H782 0.950 . S
C760 C759 1.349 1_455 S
C760 C772 1.349 . S
C761 C759 1.327 . S
C761 C777 1.429 1_655 S
C761 H783 0.950 . S
C762 H758 0.949 . S
C762 C770 1.574 1_556 S
C762 C778 1.368 . S
H763 C771 0.950 . S
H764 C769 0.950 . S
H765 C770 0.949 . S
H766 C772 0.950 . S
H767 C773 0.950 . S
H768 C774 0.949 . S
C769 H764 0.950 . S
C769 C771 1.327 . S
C769 C775 1.429 1_655 S
C770 C762 1.574 1_554 S
C770 H765 0.949 . S
C770 C776 1.368 . S
C771 C755 1.349 1_655 S
C771 H763 0.950 . S
C771 C769 1.327 . S
C772 C760 1.349 . S
C772 H766 0.950 . S
C772 C773 1.327 . S
C773 H767 0.950 . S
C773 C772 1.327 . S
C773 C777 1.429 . S
C774 C757 1.574 1_556 S
C774 H768 0.949 . S
C774 C778 1.368 1_655 S
C775 C756 1.429 . S
C775 C769 1.429 1_455 S
C775 C776 1.523 . S
C776 C757 1.368 1_455 S
C776 C770 1.368 . S
C776 C775 1.523 . S
C777 C761 1.429 1_455 S
C777 C773 1.429 . S
C777 C778 1.523 . S
C778 C762 1.368 . S
C778 C774 1.368 1_455 S
C778 C777 1.523 . S
H779 C754 0.950 . S
H780 C756 0.950 . S
H781 C757 0.949 . S
H782 C759 0.950 . S
H783 C761 0.950 . S
C784 C785 1.349 . S
C784 C786 1.327 . S
C784 H809 0.950 . S
C785 C784 1.349 . S
C785 C801 1.349 . S
C786 C784 1.327 . S
C786 C805 1.429 . S
C786 H810 0.950 . S
C787 C804 1.574 . S
C787 C806 1.368 . S
C787 H811 0.949 . S
H788 C792 0.949 . S
C789 C790 1.349 . S
C789 C791 1.327 . S
C789 H812 0.950 . S
C790 C789 1.349 . S
C790 C802 1.349 . S
C791 C789 1.327 . S
C791 C807 1.429 . S
C791 H813 0.950 . S
C792 H788 0.949 . S
C792 C800 1.574 . S
C792 C808 1.368 . S
H793 C801 0.950 . S
H794 C799 0.950 . S
H795 C800 0.949 . S
H796 C802 0.950 . S
H797 C803 0.950 . S
H798 C804 0.949 . S
C799 H794 0.950 . S
C799 C801 1.327 . S
C799 C805 1.429 . S
C800 C792 1.574 . S
C800 H795 0.949 . S
C800 C806 1.368 . S
C801 C785 1.349 . S
C801 H793 0.950 . S
C801 C799 1.327 . S
C802 C790 1.349 . S
C802 H796 0.950 . S
C802 C803 1.327 . S
C803 H797 0.950 . S
C803 C802 1.327 . S
C803 C807 1.429 . S
C804 C787 1.574 . S
C804 H798 0.949 . S
C804 C808 1.368 . S
C805 C786 1.429 . S
C805 C799 1.429 . S
C805 C806 1.523 . S
C806 C787 1.368 . S
C806 C800 1.368 . S
C806 C805 1.523 . S
C807 C791 1.429 . S
C807 C803 1.429 . S
C807 C808 1.523 . S
C808 C792 1.368 . S
C808 C804 1.368 . S
C808 C807 1.523 . S
H809 C784 0.950 . S
H810 C786 0.950 . S
H811 C787 0.949 . S
H812 C789 0.950 . S
H813 C791 0.950 . S
C814 C815 1.349 . S
C814 C816 1.327 . S
C814 H839 0.950 . S
C815 C814 1.349 . S
C815 C831 1.349 . S
C816 C814 1.327 . S
C816 C835 1.429 . S
C816 H840 0.950 . S
C817 C834 1.574 . S
C817 C836 1.368 . S
C817 H841 0.949 . S
H818 C822 0.949 . S
C819 C820 1.349 . S
C819 C821 1.327 . S
C819 H842 0.950 . S
C820 C819 1.349 . S
C820 C832 1.349 . S
C821 C819 1.327 . S
C821 C837 1.429 . S
C821 H843 0.950 . S
C822 H818 0.949 . S
C822 C830 1.574 . S
C822 C838 1.368 . S
H823 C831 0.950 . S
H824 C829 0.950 . S
H825 C830 0.949 . S
H826 C832 0.950 . S
H827 C833 0.950 . S
H828 C834 0.949 . S
C829 H824 0.950 . S
C829 C831 1.327 . S
C829 C835 1.429 . S
C830 C822 1.574 . S
C830 H825 0.949 . S
C830 C836 1.368 . S
C831 C815 1.349 . S
C831 H823 0.950 . S
C831 C829 1.327 . S
C832 C820 1.349 . S
C832 H826 0.950 . S
C832 C833 1.327 . S
C833 H827 0.950 . S
C833 C832 1.327 . S
C833 C837 1.429 . S
C834 C817 1.574 . S
C834 H828 0.949 . S
C834 C838 1.368 . S
C835 C816 1.429 . S
C835 C829 1.429 . S
C835 C836 1.523 . S
C836 C817 1.368 . S
C836 C830 1.368 . S
C836 C835 1.523 . S
C837 C821 1.429 . S
C837 C833 1.429 . S
C837 C838 1.523 . S
C838 C822 1.368 . S
C838 C834 1.368 . S
C838 C837 1.523 . S
H839 C814 0.950 . S
H840 C816 0.950 . S
H841 C817 0.949 . S
H842 C819 0.950 . S
H843 C821 0.950 . S
C844 C845 1.349 . S
C844 C846 1.327 . S
C844 H869 0.950 . S
C845 C844 1.349 . S
C845 C861 1.349 . S
C846 C844 1.327 . S
C846 C865 1.429 . S
C846 H870 0.950 . S
C847 C864 1.574 . S
C847 C866 1.368 . S
C847 H871 0.949 . S
H848 C852 0.949 . S
C849 C850 1.349 . S
C849 C851 1.327 . S
C849 H872 0.950 . S
C850 C849 1.349 . S
C850 C862 1.349 . S
C851 C849 1.327 . S
C851 C867 1.429 . S
C851 H873 0.950 . S
C852 H848 0.949 . S
C852 C860 1.574 . S
C852 C868 1.368 . S
H853 C861 0.950 . S
H854 C859 0.950 . S
H855 C860 0.949 . S
H856 C862 0.950 . S
H857 C863 0.950 . S
H858 C864 0.949 . S
C859 H854 0.950 . S
C859 C861 1.327 . S
C859 C865 1.429 . S
C860 C852 1.574 . S
C860 H855 0.949 . S
C860 C866 1.368 . S
C861 C845 1.349 . S
C861 H853 0.950 . S
C861 C859 1.327 . S
C862 C850 1.349 . S
C862 H856 0.950 . S
C862 C863 1.327 . S
C863 H857 0.950 . S
C863 C862 1.327 . S
C863 C867 1.429 . S
C864 C847 1.574 . S
C864 H858 0.949 . S
C864 C868 1.368 . S
C865 C846 1.429 . S
C865 C859 1.429 . S
C865 C866 1.523 . S
C866 C847 1.368 . S
C866 C860 1.368 . S
C866 C865 1.523 . S
C867 C851 1.429 . S
C867 C863 1.429 . S
C867 C868 1.523 . S
C868 C852 1.368 . S
C868 C864 1.368 . S
C868 C867 1.523 . S
H869 C844 0.950 . S
H870 C846 0.950 . S
H871 C847 0.949 . S
H872 C849 0.950 . S
H873 C851 0.950 . S
C874 C875 1.349 . S
C874 C876 1.327 . S
C874 H899 0.950 . S
C875 C874 1.349 . S
C875 C891 1.349 1_556 S
C876 C874 1.327 . S
C876 C895 1.429 . S
C876 H900 0.950 . S
C877 C894 1.574 . S
C877 C896 1.368 . S
C877 H901 0.949 . S
H878 C882 0.949 . S
C879 C880 1.355 . S
C879 C881 1.341 . S
C879 H902 0.929 1_545 S
C880 C879 1.355 . S
C880 C892 1.349 . S
C881 C879 1.341 . S
C881 C897 1.429 . S
C881 H903 0.950 . S
C882 H878 0.949 . S
C882 C890 1.574 . S
C882 C898 1.368 . S
H883 C891 0.950 . S
H884 C889 0.950 1_554 S
H885 C890 0.949 . S
H886 C892 0.950 . S
H887 C893 0.950 . S
H888 C894 0.949 . S
C889 H884 0.950 1_556 S
C889 C891 1.327 1_556 S
C889 C895 1.429 . S
C890 C882 1.574 . S
C890 H885 0.949 . S
C890 C896 1.368 . S
C891 C875 1.349 1_554 S
C891 H883 0.950 . S
C891 C889 1.327 1_554 S
C892 C880 1.349 . S
C892 H886 0.950 . S
C892 C893 1.327 . S
C893 H887 0.950 . S
C893 C892 1.327 . S
C893 C897 1.429 . S
C894 C877 1.574 . S
C894 H888 0.949 . S
C894 C898 1.368 . S
C895 C876 1.429 . S
C895 C889 1.429 . S
C895 C896 1.523 . S
C896 C877 1.368 . S
C896 C890 1.368 . S
C896 C895 1.523 . S
C897 C881 1.429 . S
C897 C893 1.429 . S
C897 C898 1.523 . S
C898 C882 1.368 . S
C898 C894 1.368 . S
C898 C897 1.523 . S
H899 C874 0.950 . S
H900 C876 0.950 . S
H901 C877 0.949 . S
H902 C879 0.929 1_565 S
H903 C881 0.950 . S
C904 C905 1.349 . S
C904 C906 1.327 . S
C904 H929 0.950 . S
C905 C904 1.349 . S
C905 C921 1.349 . S
C906 C904 1.327 . S
C906 C925 1.429 . S
C906 H930 0.950 . S
C907 C924 1.574 . S
C907 C926 1.368 . S
C907 H931 0.949 . S
H908 C912 0.949 . S
C909 C910 1.349 . S
C909 C911 1.327 . S
C909 H932 0.950 . S
C910 C909 1.349 . S
C910 C922 1.349 . S
C911 C909 1.327 . S
C911 C927 1.429 . S
C911 H933 0.950 . S
C912 H908 0.949 . S
C912 C920 1.574 . S
C912 C928 1.368 . S
H913 C921 0.950 . S
H914 C919 0.950 . S
H915 C920 0.949 . S
H916 C922 0.950 . S
H917 C923 0.950 . S
H918 C924 0.949 . S
C919 H914 0.950 . S
C919 C921 1.327 . S
C919 C925 1.429 . S
C920 C912 1.574 . S
C920 H915 0.949 . S
C920 C926 1.368 . S
C921 C905 1.349 . S
C921 H913 0.950 . S
C921 C919 1.327 . S
C922 C910 1.349 . S
C922 H916 0.950 . S
C922 C923 1.327 . S
C923 H917 0.950 . S
C923 C922 1.327 . S
C923 C927 1.429 . S
C924 C907 1.574 . S
C924 H918 0.949 . S
C924 C928 1.368 . S
C925 C906 1.429 . S
C925 C919 1.429 . S
C925 C926 1.523 . S
C926 C907 1.368 . S
C926 C920 1.368 . S
C926 C925 1.523 . S
C927 C911 1.429 . S
C927 C923 1.429 . S
C927 C928 1.523 . S
C928 C912 1.368 . S
C928 C924 1.368 . S
C928 C927 1.523 . S
H929 C904 0.950 . S
H930 C906 0.950 . S
H931 C907 0.949 . S
H932 C909 0.950 . S
H933 C911 0.950 . S
C934 C935 1.349 . S
C934 C936 1.327 . S
C934 H959 0.950 . S
C935 C934 1.349 . S
C935 C951 1.349 . S
C936 C934 1.327 . S
C936 C955 1.429 . S
C936 H960 0.950 . S
C937 C954 1.574 . S
C937 C956 1.368 . S
C937 H961 0.949 . S
H938 C942 0.949 . S
C939 C940 1.350 1_554 S
C939 C941 1.327 . S
C939 H962 0.950 . S
C940 C939 1.350 1_556 S
C940 C952 1.349 1_556 S
C941 C939 1.327 . S
C941 C957 1.429 . S
C941 H963 0.950 . S
C942 H938 0.949 . S
C942 C950 1.574 . S
C942 C958 1.368 . S
H943 C951 0.950 1_545 S
H944 C949 0.950 . S
H945 C950 0.949 . S
H946 C952 0.950 1_556 S
H947 C953 0.950 . S
H948 C954 0.949 . S
C949 H944 0.950 . S
C949 C951 1.327 . S
C949 C955 1.429 . S
C950 C942 1.574 . S
C950 H945 0.949 . S
C950 C956 1.368 . S
C951 C935 1.349 . S
C951 H943 0.950 1_565 S
C951 C949 1.327 . S
C952 C940 1.349 1_554 S
C952 H946 0.950 1_554 S
C952 C953 1.327 . S
C953 H947 0.950 . S
C953 C952 1.327 . S
C953 C957 1.429 . S
C954 C937 1.574 . S
C954 H948 0.949 . S
C954 C958 1.368 . S
C955 C936 1.429 . S
C955 C949 1.429 . S
C955 C956 1.523 . S
C956 C937 1.368 . S
C956 C950 1.368 . S
C956 C955 1.523 . S
C957 C941 1.429 . S
C957 C953 1.429 . S
C957 C958 1.523 . S
C958 C942 1.368 . S
C958 C954 1.368 . S
C958 C957 1.523 . S
H959 C934 0.950 . S
H960 C936 0.950 . S
H961 C937 0.949 . S
H962 C939 0.950 . S
H963 C941 0.950 . S
C964 C965 1.349 . S
C964 C966 1.327 . S
C964 H989 0.950 . S
C965 C964 1.349 . S
C965 C981 1.349 . S
C966 C964 1.327 . S
C966 C985 1.429 . S
C966 H990 0.950 . S
C967 C984 1.574 . S
C967 C986 1.368 . S
C967 H991 0.949 . S
H968 C972 0.949 . S
C969 C970 1.349 . S
C969 C971 1.327 . S
C969 H992 0.950 . S
C970 C969 1.349 . S
C970 C982 1.349 . S
C971 C969 1.327 . S
C971 C987 1.429 . S
C971 H993 0.950 . S
C972 H968 0.949 . S
C972 C980 1.574 . S
C972 C988 1.368 . S
H973 C981 0.950 . S
H974 C979 0.950 . S
H975 C980 0.949 . S
H976 C982 0.950 . S
H977 C983 0.950 . S
H978 C984 0.949 . S
C979 H974 0.950 . S
C979 C981 1.327 . S
C979 C985 1.429 . S
C980 C972 1.574 . S
C980 H975 0.949 . S
C980 C986 1.368 . S
C981 C965 1.349 . S
C981 H973 0.950 . S
C981 C979 1.327 . S
C982 C970 1.349 . S
C982 H976 0.950 . S
C982 C983 1.327 . S
C983 H977 0.950 . S
C983 C982 1.327 . S
C983 C987 1.429 . S
C984 C967 1.574 . S
C984 H978 0.949 . S
C984 C988 1.368 . S
C985 C966 1.429 . S
C985 C979 1.429 . S
C985 C986 1.523 . S
C986 C967 1.368 . S
C986 C980 1.368 . S
C986 C985 1.523 . S
C987 C971 1.429 . S
C987 C983 1.429 . S
C987 C988 1.523 . S
C988 C972 1.368 . S
C988 C984 1.368 . S
C988 C987 1.523 . S
H989 C964 0.950 . S
H990 C966 0.950 . S
H991 C967 0.949 . S
H992 C969 0.950 . S
H993 C971 0.950 . S
C994 C995 1.349 . S
C994 C996 1.327 . S
C994 H1019 0.950 . S
C995 C994 1.349 . S
C995 C1011 1.349 . S
C996 C994 1.327 . S
C996 C1015 1.429 . S
C996 H1020 0.950 . S
C997 C1014 1.574 . S
C997 C1016 1.368 . S
C997 H1021 0.949 . S
H998 C1002 0.949 . S
C999 C1000 1.349 . S
C999 C1001 1.327 . S
C999 H1022 0.950 . S
C1000 C999 1.349 . S
C1000 C1012 1.349 . S
C1001 C999 1.327 . S
C1001 C1017 1.429 . S
C1001 H1023 0.950 . S
C1002 H998 0.949 . S
C1002 C1010 1.574 . S
C1002 C1018 1.368 . S
H1003 C1011 0.950 1_565 S
H1004 C1009 0.950 . S
H1005 C1010 0.949 . S
H1006 C1012 0.950 . S
H1007 C1013 0.950 . S
H1008 C1014 0.949 . S
C1009 H1004 0.950 . S
C1009 C1011 1.327 . S
C1009 C1015 1.429 . S
C1010 C1002 1.574 . S
C1010 H1005 0.949 . S
C1010 C1016 1.368 . S
C1011 C995 1.349 . S
C1011 H1003 0.950 1_545 S
C1011 C1009 1.327 . S
C1012 C1000 1.349 . S
C1012 H1006 0.950 . S
C1012 C1013 1.327 . S
C1013 H1007 0.950 . S
C1013 C1012 1.327 . S
C1013 C1017 1.429 . S
C1014 C997 1.574 . S
C1014 H1008 0.949 . S
C1014 C1018 1.368 . S
C1015 C996 1.429 . S
C1015 C1009 1.429 . S
C1015 C1016 1.523 . S
C1016 C997 1.368 . S
C1016 C1010 1.368 . S
C1016 C1015 1.523 . S
C1017 C1001 1.429 . S
C1017 C1013 1.429 . S
C1017 C1018 1.523 . S
C1018 C1002 1.368 . S
C1018 C1014 1.368 . S
C1018 C1017 1.523 . S
H1019 C994 0.950 . S
H1020 C996 0.950 . S
H1021 C997 0.949 . S
H1022 C999 0.950 . S
H1023 C1001 0.950 . S
C1024 C1025 1.349 . S
C1024 C1026 1.327 . S
C1024 H1049 0.950 . S
C1025 C1024 1.349 . S
C1025 C1041 1.349 . S
C1026 C1024 1.327 . S
C1026 C1045 1.429 . S
C1026 H1050 0.950 . S
C1027 C1044 1.574 . S
C1027 C1046 1.368 . S
C1027 H1051 0.949 . S
H1028 C1032 0.949 . S
C1029 C1030 1.349 . S
C1029 C1031 1.327 . S
C1029 H1052 0.950 . S
C1030 C1029 1.349 . S
C1030 C1042 1.349 . S
C1031 C1029 1.327 . S
C1031 C1047 1.429 . S
C1031 H1053 0.950 . S
C1032 H1028 0.949 . S
C1032 C1040 1.574 . S
C1032 C1048 1.368 . S
H1033 C1041 0.950 . S
H1034 C1039 0.950 . S
H1035 C1040 0.949 . S
H1036 C1042 0.950 . S
H1037 C1043 0.950 . S
H1038 C1044 0.949 . S
C1039 H1034 0.950 . S
C1039 C1041 1.327 . S
C1039 C1045 1.429 . S
C1040 C1032 1.574 . S
C1040 H1035 0.949 . S
C1040 C1046 1.368 . S
C1041 C1025 1.349 . S
C1041 H1033 0.950 . S
C1041 C1039 1.327 . S
C1042 C1030 1.349 . S
C1042 H1036 0.950 . S
C1042 C1043 1.327 . S
C1043 H1037 0.950 . S
C1043 C1042 1.327 . S
C1043 C1047 1.429 . S
C1044 C1027 1.574 . S
C1044 H1038 0.949 . S
C1044 C1048 1.368 . S
C1045 C1026 1.429 . S
C1045 C1039 1.429 . S
C1045 C1046 1.523 . S
C1046 C1027 1.368 . S
C1046 C1040 1.368 . S
C1046 C1045 1.523 . S
C1047 C1031 1.429 . S
C1047 C1043 1.429 . S
C1047 C1048 1.523 . S
C1048 C1032 1.368 . S
C1048 C1044 1.368 . S
C1048 C1047 1.523 . S
H1049 C1024 0.950 . S
H1050 C1026 0.950 . S
H1051 C1027 0.949 . S
H1052 C1029 0.950 . S
H1053 C1031 0.950 . S
C1054 C1055 1.349 . S
C1054 C1056 1.327 . S
C1054 H1079 0.950 . S
C1055 C1054 1.349 . S
C1055 C1071 1.349 . S
C1056 C1054 1.327 . S
C1056 C1075 1.429 . S
C1056 H1080 0.950 . S
C1057 C1074 1.574 . S
C1057 C1076 1.368 . S
C1057 H1081 0.949 . S
H1058 C1062 0.949 . S
C1059 C1060 1.349 . S
C1059 C1061 1.327 . S
C1059 H1082 0.948 1_545 S
C1060 C1059 1.349 . S
C1060 C1072 1.349 . S
C1061 C1059 1.327 . S
C1061 C1077 1.429 . S
C1061 H1083 0.950 . S
C1062 H1058 0.949 . S
C1062 C1070 1.574 . S
C1062 C1078 1.368 . S
H1063 C1071 0.950 . S
H1064 C1069 0.950 . S
H1065 C1070 0.949 . S
H1066 C1072 0.950 . S
H1067 C1073 0.950 . S
H1068 C1074 0.949 . S
C1069 H1064 0.950 . S
C1069 C1071 1.327 . S
C1069 C1075 1.429 . S
C1070 C1062 1.574 . S
C1070 H1065 0.949 . S
C1070 C1076 1.368 . S
C1071 C1055 1.349 . S
C1071 H1063 0.950 . S
C1071 C1069 1.327 . S
C1072 C1060 1.349 . S
C1072 H1066 0.950 . S
C1072 C1073 1.327 . S
C1073 H1067 0.950 . S
C1073 C1072 1.327 . S
C1073 C1077 1.429 . S
C1074 C1057 1.574 . S
C1074 H1068 0.949 . S
C1074 C1078 1.368 . S
C1075 C1056 1.429 . S
C1075 C1069 1.429 . S
C1075 C1076 1.523 . S
C1076 C1057 1.368 . S
C1076 C1070 1.368 . S
C1076 C1075 1.523 . S
C1077 C1061 1.429 . S
C1077 C1073 1.429 . S
C1077 C1078 1.523 . S
C1078 C1062 1.368 . S
C1078 C1074 1.368 . S
C1078 C1077 1.523 . S
H1079 C1054 0.950 . S
H1080 C1056 0.950 . S
H1081 C1057 0.949 . S
H1082 C1059 0.948 1_565 S
H1083 C1061 0.950 . S
C1084 C1085 1.349 . S
C1084 C1086 1.327 . S
C1084 H1109 0.950 . S
C1085 C1084 1.349 . S
C1085 C1101 1.349 . S
C1086 C1084 1.327 . S
C1086 C1105 1.429 . S
C1086 H1110 0.950 . S
C1087 C1104 1.574 . S
C1087 C1106 1.368 . S
C1087 H1111 0.949 . S
H1088 C1092 0.949 . S
C1089 C1090 1.349 . S
C1089 C1091 1.327 . S
C1089 H1112 0.950 . S
C1090 C1089 1.349 . S
C1090 C1102 1.349 . S
C1091 C1089 1.327 . S
C1091 C1107 1.429 . S
C1091 H1113 0.950 . S
C1092 H1088 0.949 . S
C1092 C1100 1.574 . S
C1092 C1108 1.368 . S
H1093 C1101 0.950 . S
H1094 C1099 0.950 . S
H1095 C1100 0.949 . S
H1096 C1102 0.950 . S
H1097 C1103 0.950 . S
H1098 C1104 0.949 . S
C1099 H1094 0.950 . S
C1099 C1101 1.327 . S
C1099 C1105 1.429 . S
C1100 C1092 1.574 . S
C1100 H1095 0.949 . S
C1100 C1106 1.368 . S
C1101 C1085 1.349 . S
C1101 H1093 0.950 . S
C1101 C1099 1.327 . S
C1102 C1090 1.349 . S
C1102 H1096 0.950 . S
C1102 C1103 1.327 . S
C1103 H1097 0.950 . S
C1103 C1102 1.327 . S
C1103 C1107 1.429 . S
C1104 C1087 1.574 . S
C1104 H1098 0.949 . S
C1104 C1108 1.368 . S
C1105 C1086 1.429 . S
C1105 C1099 1.429 . S
C1105 C1106 1.523 . S
C1106 C1087 1.368 . S
C1106 C1100 1.368 . S
C1106 C1105 1.523 . S
C1107 C1091 1.429 . S
C1107 C1103 1.429 . S
C1107 C1108 1.523 . S
C1108 C1092 1.368 . S
C1108 C1104 1.368 . S
C1108 C1107 1.523 . S
H1109 C1084 0.950 . S
H1110 C1086 0.950 . S
H1111 C1087 0.949 . S
H1112 C1089 0.950 . S
H1113 C1091 0.950 . S
C1114 C1115 1.349 1_556 S
C1114 C1116 1.327 1_556 S
C1114 H1139 0.950 . S
C1115 C1114 1.349 1_554 S
C1115 C1131 1.349 . S
C1116 C1114 1.327 1_554 S
C1116 C1135 1.429 . S
C1116 H1140 0.950 1_554 S
C1117 C1134 1.574 . S
C1117 C1136 1.368 . S
C1117 H1141 0.949 . S
H1118 C1122 0.949 . S
C1119 C1120 1.349 . S
C1119 C1121 1.327 . S
C1119 H1142 0.950 . S
C1120 C1119 1.349 . S
C1120 C1132 1.358 . S
C1121 C1119 1.327 . S
C1121 C1137 1.429 . S
C1121 H1143 0.950 . S
C1122 H1118 0.949 . S
C1122 C1130 1.574 . S
C1122 C1138 1.368 . S
H1123 C1131 0.950 . S
H1124 C1129 0.950 . S
H1125 C1130 0.949 . S
H1126 C1132 0.915 1_545 S
H1127 C1133 0.950 . S
H1128 C1134 0.949 . S
C1129 H1124 0.950 . S
C1129 C1131 1.327 . S
C1129 C1135 1.429 . S
C1130 C1122 1.574 . S
C1130 H1125 0.949 . S
C1130 C1136 1.368 . S
C1131 C1115 1.349 . S
C1131 H1123 0.950 . S
C1131 C1129 1.327 . S
C1132 C1120 1.358 . S
C1132 H1126 0.915 1_565 S
C1132 C1133 1.354 . S
C1133 H1127 0.950 . S
C1133 C1132 1.354 . S
C1133 C1137 1.429 . S
C1134 C1117 1.574 . S
C1134 H1128 0.949 . S
C1134 C1138 1.368 . S
C1135 C1116 1.429 . S
C1135 C1129 1.429 . S
C1135 C1136 1.523 . S
C1136 C1117 1.368 . S
C1136 C1130 1.368 . S
C1136 C1135 1.523 . S
C1137 C1121 1.429 . S
C1137 C1133 1.429 . S
C1137 C1138 1.523 . S
C1138 C1122 1.368 . S
C1138 C1134 1.368 . S
C1138 C1137 1.523 . S
H1139 C1114 0.950 . S
H1140 C1116 0.950 1_556 S
H1141 C1117 0.949 . S
H1142 C1119 0.950 . S
H1143 C1121 0.950 . S
C1144 C1145 1.349 . S
C1144 C1146 1.327 . S
C1144 H1169 0.950 . S
C1145 C1144 1.349 . S
C1145 C1161 1.349 . S
C1146 C1144 1.327 . S
C1146 C1165 1.429 . S
C1146 H1170 0.950 . S
C1147 C1164 1.574 . S
C1147 C1166 1.368 . S
C1147 H1171 0.949 . S
H1148 C1152 0.949 . S
C1149 C1150 1.349 . S
C1149 C1151 1.327 . S
C1149 H1172 0.950 . S
C1150 C1149 1.349 . S
C1150 C1162 1.349 . S
C1151 C1149 1.327 . S
C1151 C1167 1.429 . S
C1151 H1173 0.950 . S
C1152 H1148 0.949 . S
C1152 C1160 1.574 . S
C1152 C1168 1.368 . S
H1153 C1161 0.950 . S
H1154 C1159 0.950 . S
H1155 C1160 0.949 . S
H1156 C1162 0.950 . S
H1157 C1163 0.950 . S
H1158 C1164 0.949 . S
C1159 H1154 0.950 . S
C1159 C1161 1.327 . S
C1159 C1165 1.429 . S
C1160 C1152 1.574 . S
C1160 H1155 0.949 . S
C1160 C1166 1.368 . S
C1161 C1145 1.349 . S
C1161 H1153 0.950 . S
C1161 C1159 1.327 . S
C1162 C1150 1.349 . S
C1162 H1156 0.950 . S
C1162 C1163 1.327 . S
C1163 H1157 0.950 . S
C1163 C1162 1.327 . S
C1163 C1167 1.429 . S
C1164 C1147 1.574 . S
C1164 H1158 0.949 . S
C1164 C1168 1.368 . S
C1165 C1146 1.429 . S
C1165 C1159 1.429 . S
C1165 C1166 1.523 . S
C1166 C1147 1.368 . S
C1166 C1160 1.368 . S
C1166 C1165 1.523 . S
C1167 C1151 1.429 . S
C1167 C1163 1.429 . S
C1167 C1168 1.523 . S
C1168 C1152 1.368 . S
C1168 C1164 1.368 . S
C1168 C1167 1.523 . S
H1169 C1144 0.950 . S
H1170 C1146 0.950 . S
H1171 C1147 0.949 . S
H1172 C1149 0.950 . S
H1173 C1151 0.950 . S
C1174 C1175 1.353 . S
C1174 C1176 1.339 . S
C1174 H1199 0.934 1_545 S
C1175 C1174 1.353 . S
C1175 C1191 1.349 . S
C1176 C1174 1.339 . S
C1176 C1195 1.429 . S
C1176 H1200 0.950 . S
C1177 C1194 1.574 . S
C1177 C1196 1.368 . S
C1177 H1201 0.949 . S
H1178 C1182 0.949 . S
C1179 C1180 1.349 . S
C1179 C1181 1.327 . S
C1179 H1202 0.950 . S
C1180 C1179 1.349 . S
C1180 C1192 1.349 1_556 S
C1181 C1179 1.327 . S
C1181 C1197 1.429 . S
C1181 H1203 0.950 . S
C1182 H1178 0.949 . S
C1182 C1190 1.574 . S
C1182 C1198 1.368 . S
H1183 C1191 0.950 . S
H1184 C1189 0.950 . S
H1185 C1190 0.949 . S
H1186 C1192 0.950 . S
H1187 C1193 0.950 1_554 S
H1188 C1194 0.949 . S
C1189 H1184 0.950 . S
C1189 C1191 1.327 . S
C1189 C1195 1.429 . S
C1190 C1182 1.574 . S
C1190 H1185 0.949 . S
C1190 C1196 1.368 . S
C1191 C1175 1.349 . S
C1191 H1183 0.950 . S
C1191 C1189 1.327 . S
C1192 C1180 1.349 1_554 S
C1192 H1186 0.950 . S
C1192 C1193 1.327 1_554 S
C1193 H1187 0.950 1_556 S
C1193 C1192 1.327 1_556 S
C1193 C1197 1.429 . S
C1194 C1177 1.574 . S
C1194 H1188 0.949 . S
C1194 C1198 1.368 . S
C1195 C1176 1.429 . S
C1195 C1189 1.429 . S
C1195 C1196 1.523 . S
C1196 C1177 1.368 . S
C1196 C1190 1.368 . S
C1196 C1195 1.523 . S
C1197 C1181 1.429 . S
C1197 C1193 1.429 . S
C1197 C1198 1.523 . S
C1198 C1182 1.368 . S
C1198 C1194 1.368 . S
C1198 C1197 1.523 . S
H1199 C1174 0.934 1_565 S
H1200 C1176 0.950 . S
H1201 C1177 0.949 . S
H1202 C1179 0.950 . S
H1203 C1181 0.950 . S
C1204 C1205 1.349 . S
C1204 C1206 1.327 . S
C1204 H1229 0.950 . S
C1205 C1204 1.349 . S
C1205 C1221 1.349 . S
C1206 C1204 1.327 . S
C1206 C1225 1.429 . S
C1206 H1230 0.950 . S
C1207 C1224 1.574 . S
C1207 C1226 1.368 . S
C1207 H1231 0.949 . S
H1208 C1212 0.949 . S
C1209 C1210 1.349 . S
C1209 C1211 1.327 . S
C1209 H1232 0.950 . S
C1210 C1209 1.349 . S
C1210 C1222 1.349 . S
C1211 C1209 1.327 . S
C1211 C1227 1.429 . S
C1211 H1233 0.950 . S
C1212 H1208 0.949 . S
C1212 C1220 1.574 . S
C1212 C1228 1.368 . S
H1213 C1221 0.950 . S
H1214 C1219 0.950 . S
H1215 C1220 0.949 . S
H1216 C1222 0.950 . S
H1217 C1223 0.950 . S
H1218 C1224 0.949 . S
C1219 H1214 0.950 . S
C1219 C1221 1.327 . S
C1219 C1225 1.429 . S
C1220 C1212 1.574 . S
C1220 H1215 0.949 . S
C1220 C1226 1.368 . S
C1221 C1205 1.349 . S
C1221 H1213 0.950 . S
C1221 C1219 1.327 . S
C1222 C1210 1.349 . S
C1222 H1216 0.950 . S
C1222 C1223 1.327 . S
C1223 H1217 0.950 . S
C1223 C1222 1.327 . S
C1223 C1227 1.429 . S
C1224 C1207 1.574 . S
C1224 H1218 0.949 . S
C1224 C1228 1.368 . S
C1225 C1206 1.429 . S
C1225 C1219 1.429 . S
C1225 C1226 1.523 . S
C1226 C1207 1.368 . S
C1226 C1220 1.368 . S
C1226 C1225 1.523 . S
C1227 C1211 1.429 . S
C1227 C1223 1.429 . S
C1227 C1228 1.523 . S
C1228 C1212 1.368 . S
C1228 C1224 1.368 . S
C1228 C1227 1.523 . S
H1229 C1204 0.950 . S
H1230 C1206 0.950 . S
H1231 C1207 0.949 . S
H1232 C1209 0.950 . S
H1233 C1211 0.950 . S
C1234 C1235 1.349 . S
C1234 C1236 1.327 . S
C1234 H1259 0.950 . S
C1235 C1234 1.349 . S
C1235 C1251 1.349 . S
C1236 C1234 1.327 . S
C1236 C1255 1.429 . S
C1236 H1260 0.950 . S
C1237 C1254 1.574 . S
C1237 C1256 1.368 . S
C1237 H1261 0.949 . S
H1238 C1242 0.949 . S
C1239 C1240 1.349 . S
C1239 C1241 1.327 . S
C1239 H1262 0.950 . S
C1240 C1239 1.349 . S
C1240 C1252 1.349 . S
C1241 C1239 1.327 . S
C1241 C1257 1.429 . S
C1241 H1263 0.950 . S
C1242 H1238 0.949 . S
C1242 C1250 1.574 . S
C1242 C1258 1.368 . S
H1243 C1251 0.950 1_545 S
H1244 C1249 0.950 . S
H1245 C1250 0.949 . S
H1246 C1252 0.950 . S
H1247 C1253 0.950 . S
H1248 C1254 0.949 . S
C1249 H1244 0.950 . S
C1249 C1251 1.327 . S
C1249 C1255 1.429 . S
C1250 C1242 1.574 . S
C1250 H1245 0.949 . S
C1250 C1256 1.368 . S
C1251 C1235 1.349 . S
C1251 H1243 0.950 1_565 S
C1251 C1249 1.327 . S
C1252 C1240 1.349 . S
C1252 H1246 0.950 . S
C1252 C1253 1.327 . S
C1253 H1247 0.950 . S
C1253 C1252 1.327 . S
C1253 C1257 1.429 . S
C1254 C1237 1.574 . S
C1254 H1248 0.949 . S
C1254 C1258 1.368 . S
C1255 C1236 1.429 . S
C1255 C1249 1.429 . S
C1255 C1256 1.523 . S
C1256 C1237 1.368 . S
C1256 C1250 1.368 . S
C1256 C1255 1.523 . S
C1257 C1241 1.429 . S
C1257 C1253 1.429 . S
C1257 C1258 1.523 . S
C1258 C1242 1.368 . S
C1258 C1254 1.368 . S
C1258 C1257 1.523 . S
H1259 C1234 0.950 . S
H1260 C1236 0.950 . S
H1261 C1237 0.949 . S
H1262 C1239 0.950 . S
H1263 C1241 0.950 . S
C1264 C1265 1.349 . S
C1264 C1266 1.327 . S
C1264 H1289 0.950 . S
C1265 C1264 1.349 . S
C1265 C1281 1.349 . S
C1266 C1264 1.327 . S
C1266 C1285 1.429 . S
C1266 H1290 0.950 . S
C1267 C1284 1.574 . S
C1267 C1286 1.368 . S
C1267 H1291 0.949 . S
H1268 C1272 0.949 . S
C1269 C1270 1.349 . S
C1269 C1271 1.327 . S
C1269 H1292 0.950 . S
C1270 C1269 1.349 . S
C1270 C1282 1.349 . S
C1271 C1269 1.327 . S
C1271 C1287 1.429 . S
C1271 H1293 0.950 . S
C1272 H1268 0.949 . S
C1272 C1280 1.574 . S
C1272 C1288 1.368 . S
H1273 C1281 0.950 . S
H1274 C1279 0.950 . S
H1275 C1280 0.949 . S
H1276 C1282 0.950 . S
H1277 C1283 0.950 . S
H1278 C1284 0.949 . S
C1279 H1274 0.950 . S
C1279 C1281 1.327 . S
C1279 C1285 1.429 . S
C1280 C1272 1.574 . S
C1280 H1275 0.949 . S
C1280 C1286 1.368 . S
C1281 C1265 1.349 . S
C1281 H1273 0.950 . S
C1281 C1279 1.327 . S
C1282 C1270 1.349 . S
C1282 H1276 0.950 . S
C1282 C1283 1.327 . S
C1283 H1277 0.950 . S
C1283 C1282 1.327 . S
C1283 C1287 1.429 . S
C1284 C1267 1.574 . S
C1284 H1278 0.949 . S
C1284 C1288 1.368 . S
C1285 C1266 1.429 . S
C1285 C1279 1.429 . S
C1285 C1286 1.523 . S
C1286 C1267 1.368 . S
C1286 C1280 1.368 . S
C1286 C1285 1.523 . S
C1287 C1271 1.429 . S
C1287 C1283 1.429 . S
C1287 C1288 1.523 . S
C1288 C1272 1.368 . S
C1288 C1284 1.368 . S
C1288 C1287 1.523 . S
H1289 C1264 0.950 . S
H1290 C1266 0.950 . S
H1291 C1267 0.949 . S
H1292 C1269 0.950 . S
H1293 C1271 0.950 . S
C1294 C1295 1.349 . S
C1294 C1296 1.327 . S
C1294 H1319 0.950 . S
C1295 C1294 1.349 . S
C1295 C1311 1.349 . S
C1296 C1294 1.327 . S
C1296 C1315 1.429 . S
C1296 H1320 0.950 . S
C1297 C1314 1.574 . S
C1297 C1316 1.368 . S
C1297 H1321 0.949 . S
H1298 C1302 0.949 . S
C1299 C1300 1.351 1_556 S
C1299 C1301 1.327 . S
C1299 H1322 0.950 . S
C1300 C1299 1.351 1_554 S
C1300 C1312 1.348 . S
C1301 C1299 1.327 . S
C1301 C1317 1.429 . S
C1301 H1323 0.950 . S
C1302 H1298 0.949 . S
C1302 C1310 1.574 . S
C1302 C1318 1.368 . S
H1303 C1311 0.950 . S
H1304 C1309 0.950 . S
H1305 C1310 0.949 . S
H1306 C1312 0.950 . S
H1307 C1313 0.950 1_554 S
H1308 C1314 0.949 . S
C1309 H1304 0.950 . S
C1309 C1311 1.327 . S
C1309 C1315 1.429 . S
C1310 C1302 1.574 . S
C1310 H1305 0.949 . S
C1310 C1316 1.368 . S
C1311 C1295 1.349 . S
C1311 H1303 0.950 . S
C1311 C1309 1.327 . S
C1312 C1300 1.348 . S
C1312 H1306 0.950 . S
C1312 C1313 1.327 1_554 S
C1313 H1307 0.950 1_556 S
C1313 C1312 1.327 1_556 S
C1313 C1317 1.429 . S
C1314 C1297 1.574 . S
C1314 H1308 0.949 . S
C1314 C1318 1.368 . S
C1315 C1296 1.429 . S
C1315 C1309 1.429 . S
C1315 C1316 1.523 . S
C1316 C1297 1.368 . S
C1316 C1310 1.368 . S
C1316 C1315 1.523 . S
C1317 C1301 1.429 . S
C1317 C1313 1.429 . S
C1317 C1318 1.523 . S
C1318 C1302 1.368 . S
C1318 C1314 1.368 . S
C1318 C1317 1.523 . S
H1319 C1294 0.950 . S
H1320 C1296 0.950 . S
H1321 C1297 0.949 . S
H1322 C1299 0.950 . S
H1323 C1301 0.950 . S
C1324 C1325 1.349 . S
C1324 C1326 1.327 . S
C1324 H1349 0.950 . S
C1325 C1324 1.349 . S
C1325 C1341 1.349 . S
C1326 C1324 1.327 . S
C1326 C1345 1.429 . S
C1326 H1350 0.950 . S
C1327 C1344 1.574 . S
C1327 C1346 1.368 . S
C1327 H1351 0.949 . S
H1328 C1332 0.949 . S
C1329 C1330 1.349 . S
C1329 C1331 1.327 . S
C1329 H1352 0.950 . S
C1330 C1329 1.349 . S
C1330 C1342 1.349 . S
C1331 C1329 1.327 . S
C1331 C1347 1.429 . S
C1331 H1353 0.950 . S
C1332 H1328 0.949 . S
C1332 C1340 1.574 . S
C1332 C1348 1.368 . S
H1333 C1341 0.950 . S
H1334 C1339 0.950 . S
H1335 C1340 0.949 . S
H1336 C1342 0.950 . S
H1337 C1343 0.950 . S
H1338 C1344 0.949 . S
C1339 H1334 0.950 . S
C1339 C1341 1.327 . S
C1339 C1345 1.429 . S
C1340 C1332 1.574 . S
C1340 H1335 0.949 . S
C1340 C1346 1.368 . S
C1341 C1325 1.349 . S
C1341 H1333 0.950 . S
C1341 C1339 1.327 . S
C1342 C1330 1.349 . S
C1342 H1336 0.950 . S
C1342 C1343 1.327 . S
C1343 H1337 0.950 . S
C1343 C1342 1.327 . S
C1343 C1347 1.429 . S
C1344 C1327 1.574 . S
C1344 H1338 0.949 . S
C1344 C1348 1.368 . S
C1345 C1326 1.429 . S
C1345 C1339 1.429 . S
C1345 C1346 1.523 . S
C1346 C1327 1.368 . S
C1346 C1340 1.368 . S
C1346 C1345 1.523 . S
C1347 C1331 1.429 . S
C1347 C1343 1.429 . S
C1347 C1348 1.523 . S
C1348 C1332 1.368 . S
C1348 C1344 1.368 . S
C1348 C1347 1.523 . S
H1349 C1324 0.950 . S
H1350 C1326 0.950 . S
H1351 C1327 0.949 . S
H1352 C1329 0.950 . S
H1353 C1331 0.950 . S
C1354 C1355 1.349 . S
C1354 C1356 1.327 . S
C1354 H1379 0.950 . S
C1355 C1354 1.349 . S
C1355 C1371 1.349 . S
C1356 C1354 1.327 . S
C1356 C1375 1.429 . S
C1356 H1380 0.950 . S
C1357 C1374 1.574 . S
C1357 C1376 1.368 . S
C1357 H1381 0.949 . S
H1358 C1362 0.949 . S
C1359 C1360 1.349 . S
C1359 C1361 1.327 . S
C1359 H1382 0.950 . S
C1360 C1359 1.349 . S
C1360 C1372 1.349 . S
C1361 C1359 1.327 . S
C1361 C1377 1.429 . S
C1361 H1383 0.950 . S
C1362 H1358 0.949 . S
C1362 C1370 1.574 . S
C1362 C1378 1.368 . S
H1363 C1371 0.950 . S
H1364 C1369 0.950 . S
H1365 C1370 0.949 . S
H1366 C1372 0.950 . S
H1367 C1373 0.950 . S
H1368 C1374 0.949 . S
C1369 H1364 0.950 . S
C1369 C1371 1.327 . S
C1369 C1375 1.429 . S
C1370 C1362 1.574 . S
C1370 H1365 0.949 . S
C1370 C1376 1.368 . S
C1371 C1355 1.349 . S
C1371 H1363 0.950 . S
C1371 C1369 1.327 . S
C1372 C1360 1.349 . S
C1372 H1366 0.950 . S
C1372 C1373 1.327 . S
C1373 H1367 0.950 . S
C1373 C1372 1.327 . S
C1373 C1377 1.429 . S
C1374 C1357 1.574 . S
C1374 H1368 0.949 . S
C1374 C1378 1.368 . S
C1375 C1356 1.429 . S
C1375 C1369 1.429 . S
C1375 C1376 1.523 . S
C1376 C1357 1.368 . S
C1376 C1370 1.368 . S
C1376 C1375 1.523 . S
C1377 C1361 1.429 . S
C1377 C1373 1.429 . S
C1377 C1378 1.523 . S
C1378 C1362 1.368 . S
C1378 C1374 1.368 . S
C1378 C1377 1.523 . S
H1379 C1354 0.950 . S
H1380 C1356 0.950 . S
H1381 C1357 0.949 . S
H1382 C1359 0.950 . S
H1383 C1361 0.950 . S
C1384 C1385 1.349 . S
C1384 C1386 1.327 . S
C1384 H1409 0.950 . S
C1385 C1384 1.349 . S
C1385 C1401 1.349 . S
C1386 C1384 1.327 . S
C1386 C1405 1.429 . S
C1386 H1410 0.950 . S
C1387 C1404 1.574 . S
C1387 C1406 1.368 . S
C1387 H1411 0.949 . S
H1388 C1392 0.949 . S
C1389 C1390 1.349 . S
C1389 C1391 1.327 . S
C1389 H1412 0.950 . S
C1390 C1389 1.349 . S
C1390 C1402 1.349 . S
C1391 C1389 1.327 . S
C1391 C1407 1.429 . S
C1391 H1413 0.950 . S
C1392 H1388 0.949 . S
C1392 C1400 1.574 . S
C1392 C1408 1.368 . S
H1393 C1401 0.950 . S
H1394 C1399 0.950 . S
H1395 C1400 0.949 . S
H1396 C1402 0.950 . S
H1397 C1403 0.950 . S
H1398 C1404 0.949 . S
C1399 H1394 0.950 . S
C1399 C1401 1.327 . S
C1399 C1405 1.429 . S
C1400 C1392 1.574 . S
C1400 H1395 0.949 . S
C1400 C1406 1.368 . S
C1401 C1385 1.349 . S
C1401 H1393 0.950 . S
C1401 C1399 1.327 . S
C1402 C1390 1.349 . S
C1402 H1396 0.950 . S
C1402 C1403 1.327 . S
C1403 H1397 0.950 . S
C1403 C1402 1.327 . S
C1403 C1407 1.429 . S
C1404 C1387 1.574 . S
C1404 H1398 0.949 . S
C1404 C1408 1.368 . S
C1405 C1386 1.429 . S
C1405 C1399 1.429 . S
C1405 C1406 1.523 . S
C1406 C1387 1.368 . S
C1406 C1400 1.368 . S
C1406 C1405 1.523 . S
C1407 C1391 1.429 . S
C1407 C1403 1.429 . S
C1407 C1408 1.523 . S
C1408 C1392 1.368 . S
C1408 C1404 1.368 . S
C1408 C1407 1.523 . S
H1409 C1384 0.950 . S
H1410 C1386 0.950 . S
H1411 C1387 0.949 . S
H1412 C1389 0.950 . S
H1413 C1391 0.950 . S
C1414 C1415 1.349 . S
C1414 C1416 1.327 . S
C1414 H1439 0.950 . S
C1415 C1414 1.349 . S
C1415 C1431 1.349 . S
C1416 C1414 1.327 . S
C1416 C1435 1.429 . S
C1416 H1440 0.950 . S
C1417 C1434 1.574 . S
C1417 C1436 1.368 . S
C1417 H1441 0.949 . S
H1418 C1422 0.949 . S
C1419 C1420 1.349 . S
C1419 C1421 1.327 . S
C1419 H1442 0.950 . S
C1420 C1419 1.349 . S
C1420 C1432 1.349 . S
C1421 C1419 1.327 . S
C1421 C1437 1.429 . S
C1421 H1443 0.950 . S
C1422 H1418 0.949 . S
C1422 C1430 1.574 . S
C1422 C1438 1.368 . S
H1423 C1431 0.950 . S
H1424 C1429 0.950 . S
H1425 C1430 0.949 . S
H1426 C1432 0.950 . S
H1427 C1433 0.950 . S
H1428 C1434 0.949 . S
C1429 H1424 0.950 . S
C1429 C1431 1.327 . S
C1429 C1435 1.429 . S
C1430 C1422 1.574 . S
C1430 H1425 0.949 . S
C1430 C1436 1.368 . S
C1431 C1415 1.349 . S
C1431 H1423 0.950 . S
C1431 C1429 1.327 . S
C1432 C1420 1.349 . S
C1432 H1426 0.950 . S
C1432 C1433 1.327 . S
C1433 H1427 0.950 . S
C1433 C1432 1.327 . S
C1433 C1437 1.429 . S
C1434 C1417 1.574 . S
C1434 H1428 0.949 . S
C1434 C1438 1.368 . S
C1435 C1416 1.429 . S
C1435 C1429 1.429 . S
C1435 C1436 1.523 . S
C1436 C1417 1.368 . S
C1436 C1430 1.368 . S
C1436 C1435 1.523 . S
C1437 C1421 1.429 . S
C1437 C1433 1.429 . S
C1437 C1438 1.523 . S
C1438 C1422 1.368 . S
C1438 C1434 1.368 . S
C1438 C1437 1.523 . S
H1439 C1414 0.950 . S
H1440 C1416 0.950 . S
H1441 C1417 0.949 . S
H1442 C1419 0.950 . S
H1443 C1421 0.950 . S
C1444 C1445 1.349 . S
C1444 C1446 1.327 . S
C1444 H1469 0.950 . S
C1445 C1444 1.349 . S
C1445 C1461 1.349 . S
C1446 C1444 1.327 . S
C1446 C1465 1.429 . S
C1446 H1470 0.950 . S
C1447 C1464 1.574 . S
C1447 C1466 1.368 . S
C1447 H1471 0.949 . S
H1448 C1452 0.949 . S
C1449 C1450 1.349 . S
C1449 C1451 1.327 . S
C1449 H1472 0.950 . S
C1450 C1449 1.349 . S
C1450 C1462 1.349 . S
C1451 C1449 1.327 . S
C1451 C1467 1.429 . S
C1451 H1473 0.950 . S
C1452 H1448 0.949 . S
C1452 C1460 1.574 . S
C1452 C1468 1.368 . S
H1453 C1461 0.950 . S
H1454 C1459 0.950 . S
H1455 C1460 0.949 . S
H1456 C1462 0.950 . S
H1457 C1463 0.950 . S
H1458 C1464 0.949 . S
C1459 H1454 0.950 . S
C1459 C1461 1.327 . S
C1459 C1465 1.429 . S
C1460 C1452 1.574 . S
C1460 H1455 0.949 . S
C1460 C1466 1.368 . S
C1461 C1445 1.349 . S
C1461 H1453 0.950 . S
C1461 C1459 1.327 . S
C1462 C1450 1.349 . S
C1462 H1456 0.950 . S
C1462 C1463 1.327 . S
C1463 H1457 0.950 . S
C1463 C1462 1.327 . S
C1463 C1467 1.429 . S
C1464 C1447 1.574 . S
C1464 H1458 0.949 . S
C1464 C1468 1.368 . S
C1465 C1446 1.429 . S
C1465 C1459 1.429 . S
C1465 C1466 1.523 . S
C1466 C1447 1.368 . S
C1466 C1460 1.368 . S
C1466 C1465 1.523 . S
C1467 C1451 1.429 . S
C1467 C1463 1.429 . S
C1467 C1468 1.523 . S
C1468 C1452 1.368 . S
C1468 C1464 1.368 . S
C1468 C1467 1.523 . S
H1469 C1444 0.950 . S
H1470 C1446 0.950 . S
H1471 C1447 0.949 . S
H1472 C1449 0.950 . S
H1473 C1451 0.950 . S
C1474 C1475 1.349 . S
C1474 C1476 1.327 . S
C1474 H1499 0.950 . S
C1475 C1474 1.349 . S
C1475 C1491 1.349 . S
C1476 C1474 1.327 . S
C1476 C1495 1.429 . S
C1476 H1500 0.950 . S
C1477 C1494 1.574 . S
C1477 C1496 1.368 . S
C1477 H1501 0.949 . S
H1478 C1482 0.949 . S
C1479 C1480 1.352 1_554 S
C1479 C1481 1.327 . S
C1479 H1502 0.950 . S
C1480 C1479 1.352 1_556 S
C1480 C1492 1.348 . S
C1481 C1479 1.327 . S
C1481 C1497 1.429 . S
C1481 H1503 0.950 . S
C1482 H1478 0.949 . S
C1482 C1490 1.574 . S
C1482 C1498 1.368 . S
H1483 C1491 0.950 . S
H1484 C1489 0.950 . S
H1485 C1490 0.949 . S
H1486 C1492 0.950 . S
H1487 C1493 0.942 1_556 S
H1488 C1494 0.949 . S
C1489 H1484 0.950 . S
C1489 C1491 1.327 . S
C1489 C1495 1.429 . S
C1490 C1482 1.574 . S
C1490 H1485 0.949 . S
C1490 C1496 1.368 . S
C1491 C1475 1.349 . S
C1491 H1483 0.950 . S
C1491 C1489 1.327 . S
C1492 C1480 1.348 . S
C1492 H1486 0.950 . S
C1492 C1493 1.319 1_556 S
C1493 H1487 0.942 1_554 S
C1493 C1492 1.319 1_554 S
C1493 C1497 1.444 . S
C1494 C1477 1.574 . S
C1494 H1488 0.949 . S
C1494 C1498 1.368 . S
C1495 C1476 1.429 . S
C1495 C1489 1.429 . S
C1495 C1496 1.523 . S
C1496 C1477 1.368 . S
C1496 C1490 1.368 . S
C1496 C1495 1.523 . S
C1497 C1481 1.429 . S
C1497 C1493 1.444 . S
C1497 C1498 1.523 . S
C1498 C1482 1.368 . S
C1498 C1494 1.368 . S
C1498 C1497 1.523 . S
H1499 C1474 0.950 . S
H1500 C1476 0.950 . S
H1501 C1477 0.949 . S
H1502 C1479 0.950 . S
H1503 C1481 0.950 . S
C1504 C1505 1.349 . S
C1504 C1506 1.327 . S
C1504 H1529 0.950 . S
C1505 C1504 1.349 . S
C1505 C1521 1.349 . S
C1506 C1504 1.327 . S
C1506 C1525 1.429 . S
C1506 H1530 0.950 . S
C1507 C1524 1.574 . S
C1507 C1526 1.368 . S
C1507 H1531 0.949 . S
H1508 C1512 0.949 . S
C1509 C1510 1.349 . S
C1509 C1511 1.327 . S
C1509 H1532 0.950 . S
C1510 C1509 1.349 . S
C1510 C1522 1.349 . S
C1511 C1509 1.327 . S
C1511 C1527 1.429 . S
C1511 H1533 0.950 . S
C1512 H1508 0.949 . S
C1512 C1520 1.574 . S
C1512 C1528 1.368 . S
H1513 C1521 0.950 . S
H1514 C1519 0.950 . S
H1515 C1520 0.949 . S
H1516 C1522 0.950 . S
H1517 C1523 0.950 . S
H1518 C1524 0.949 . S
C1519 H1514 0.950 . S
C1519 C1521 1.327 . S
C1519 C1525 1.429 . S
C1520 C1512 1.574 . S
C1520 H1515 0.949 . S
C1520 C1526 1.368 . S
C1521 C1505 1.349 . S
C1521 H1513 0.950 . S
C1521 C1519 1.327 . S
C1522 C1510 1.349 . S
C1522 H1516 0.950 . S
C1522 C1523 1.327 . S
C1523 H1517 0.950 . S
C1523 C1522 1.327 . S
C1523 C1527 1.429 . S
C1524 C1507 1.574 . S
C1524 H1518 0.949 . S
C1524 C1528 1.368 . S
C1525 C1506 1.429 . S
C1525 C1519 1.429 . S
C1525 C1526 1.523 . S
C1526 C1507 1.368 . S
C1526 C1520 1.368 . S
C1526 C1525 1.523 . S
C1527 C1511 1.429 . S
C1527 C1523 1.429 . S
C1527 C1528 1.523 . S
C1528 C1512 1.368 . S
C1528 C1524 1.368 . S
C1528 C1527 1.523 . S
H1529 C1504 0.950 . S
H1530 C1506 0.950 . S
H1531 C1507 0.949 . S
H1532 C1509 0.950 . S
H1533 C1511 0.950 . S
C1534 C1535 1.349 . S
C1534 C1536 1.327 . S
C1534 H1559 0.950 . S
C1535 C1534 1.349 . S
C1535 C1551 1.349 . S
C1536 C1534 1.327 . S
C1536 C1555 1.429 . S
C1536 H1560 0.950 . S
C1537 C1554 1.574 . S
C1537 C1556 1.368 . S
C1537 H1561 0.949 . S
H1538 C1542 0.949 . S
C1539 C1540 1.349 . S
C1539 C1541 1.327 . S
C1539 H1562 0.950 . S
C1540 C1539 1.349 . S
C1540 C1552 1.349 . S
C1541 C1539 1.327 . S
C1541 C1557 1.429 . S
C1541 H1563 0.950 . S
C1542 H1538 0.949 . S
C1542 C1550 1.574 . S
C1542 C1558 1.368 . S
H1543 C1551 0.950 . S
H1544 C1549 0.950 . S
H1545 C1550 0.949 . S
H1546 C1552 0.950 . S
H1547 C1553 0.950 . S
H1548 C1554 0.949 . S
C1549 H1544 0.950 . S
C1549 C1551 1.327 . S
C1549 C1555 1.429 . S
C1550 C1542 1.574 . S
C1550 H1545 0.949 . S
C1550 C1556 1.368 . S
C1551 C1535 1.349 . S
C1551 H1543 0.950 . S
C1551 C1549 1.327 . S
C1552 C1540 1.349 . S
C1552 H1546 0.950 . S
C1552 C1553 1.327 . S
C1553 H1547 0.950 . S
C1553 C1552 1.327 . S
C1553 C1557 1.429 . S
C1554 C1537 1.574 . S
C1554 H1548 0.949 . S
C1554 C1558 1.368 . S
C1555 C1536 1.429 . S
C1555 C1549 1.429 . S
C1555 C1556 1.523 . S
C1556 C1537 1.368 . S
C1556 C1550 1.368 . S
C1556 C1555 1.523 . S
C1557 C1541 1.429 . S
C1557 C1553 1.429 . S
C1557 C1558 1.523 . S
C1558 C1542 1.368 . S
C1558 C1554 1.368 . S
C1558 C1557 1.523 . S
H1559 C1534 0.950 . S
H1560 C1536 0.950 . S
H1561 C1537 0.949 . S
H1562 C1539 0.950 . S
H1563 C1541 0.950 . S
C1564 C1565 1.349 . S
C1564 C1566 1.327 . S
C1564 H1589 0.950 . S
C1565 C1564 1.349 . S
C1565 C1581 1.349 . S
C1566 C1564 1.327 . S
C1566 C1585 1.429 . S
C1566 H1590 0.950 . S
C1567 C1584 1.574 . S
C1567 C1586 1.368 . S
C1567 H1591 0.949 . S
H1568 C1572 0.949 . S
C1569 C1570 1.349 . S
C1569 C1571 1.327 . S
C1569 H1592 0.950 . S
C1570 C1569 1.349 . S
C1570 C1582 1.349 . S
C1571 C1569 1.327 . S
C1571 C1587 1.429 . S
C1571 H1593 0.950 . S
C1572 H1568 0.949 . S
C1572 C1580 1.574 . S
C1572 C1588 1.368 . S
H1573 C1581 0.950 . S
H1574 C1579 0.950 . S
H1575 C1580 0.949 . S
H1576 C1582 0.950 . S
H1577 C1583 0.950 . S
H1578 C1584 0.949 . S
C1579 H1574 0.950 . S
C1579 C1581 1.327 . S
C1579 C1585 1.429 . S
C1580 C1572 1.574 . S
C1580 H1575 0.949 . S
C1580 C1586 1.368 . S
C1581 C1565 1.349 . S
C1581 H1573 0.950 . S
C1581 C1579 1.327 . S
C1582 C1570 1.349 . S
C1582 H1576 0.950 . S
C1582 C1583 1.327 . S
C1583 H1577 0.950 . S
C1583 C1582 1.327 . S
C1583 C1587 1.429 . S
C1584 C1567 1.574 . S
C1584 H1578 0.949 . S
C1584 C1588 1.368 . S
C1585 C1566 1.429 . S
C1585 C1579 1.429 . S
C1585 C1586 1.523 . S
C1586 C1567 1.368 . S
C1586 C1580 1.368 . S
C1586 C1585 1.523 . S
C1587 C1571 1.429 . S
C1587 C1583 1.429 . S
C1587 C1588 1.523 . S
C1588 C1572 1.368 . S
C1588 C1584 1.368 . S
C1588 C1587 1.523 . S
H1589 C1564 0.950 . S
H1590 C1566 0.950 . S
H1591 C1567 0.949 . S
H1592 C1569 0.950 . S
H1593 C1571 0.950 . S
C1594 C1595 1.349 . S
C1594 C1596 1.327 . S
C1594 H1619 0.950 . S
C1595 C1594 1.349 . S
C1595 C1611 1.349 . S
C1596 C1594 1.327 . S
C1596 C1615 1.429 . S
C1596 H1620 0.950 . S
C1597 C1614 1.574 . S
C1597 C1616 1.368 . S
C1597 H1621 0.949 . S
H1598 C1602 0.949 . S
C1599 C1600 1.349 . S
C1599 C1601 1.327 . S
C1599 H1622 0.950 . S
C1600 C1599 1.349 . S
C1600 C1612 1.349 . S
C1601 C1599 1.327 . S
C1601 C1617 1.429 . S
C1601 H1623 0.950 . S
C1602 H1598 0.949 . S
C1602 C1610 1.574 . S
C1602 C1618 1.368 . S
H1603 C1611 0.950 . S
H1604 C1609 0.950 . S
H1605 C1610 0.949 . S
H1606 C1612 0.950 . S
H1607 C1613 0.950 . S
H1608 C1614 0.949 . S
C1609 H1604 0.950 . S
C1609 C1611 1.327 . S
C1609 C1615 1.429 . S
C1610 C1602 1.574 . S
C1610 H1605 0.949 . S
C1610 C1616 1.368 . S
C1611 C1595 1.349 . S
C1611 H1603 0.950 . S
C1611 C1609 1.327 . S
C1612 C1600 1.349 . S
C1612 H1606 0.950 . S
C1612 C1613 1.327 . S
C1613 H1607 0.950 . S
C1613 C1612 1.327 . S
C1613 C1617 1.429 . S
C1614 C1597 1.574 . S
C1614 H1608 0.949 . S
C1614 C1618 1.368 . S
C1615 C1596 1.429 . S
C1615 C1609 1.429 . S
C1615 C1616 1.523 . S
C1616 C1597 1.368 . S
C1616 C1610 1.368 . S
C1616 C1615 1.523 . S
C1617 C1601 1.429 . S
C1617 C1613 1.429 . S
C1617 C1618 1.523 . S
C1618 C1602 1.368 . S
C1618 C1614 1.368 . S
C1618 C1617 1.523 . S
H1619 C1594 0.950 . S
H1620 C1596 0.950 . S
H1621 C1597 0.949 . S
H1622 C1599 0.950 . S
H1623 C1601 0.950 . S
C1624 C1625 1.349 . S
C1624 C1626 1.327 . S
C1624 H1649 0.950 . S
C1625 C1624 1.349 . S
C1625 C1641 1.349 . S
C1626 C1624 1.327 . S
C1626 C1645 1.429 . S
C1626 H1650 0.950 . S
C1627 C1644 1.574 . S
C1627 C1646 1.368 . S
C1627 H1651 0.949 . S
H1628 C1632 0.949 . S
C1629 C1630 1.349 . S
C1629 C1631 1.327 . S
C1629 H1652 0.950 . S
C1630 C1629 1.349 . S
C1630 C1642 1.349 . S
C1631 C1629 1.327 . S
C1631 C1647 1.429 . S
C1631 H1653 0.950 . S
C1632 H1628 0.949 . S
C1632 C1640 1.574 . S
C1632 C1648 1.368 . S
H1633 C1641 0.950 . S
H1634 C1639 0.950 . S
H1635 C1640 0.949 . S
H1636 C1642 0.950 . S
H1637 C1643 0.950 . S
H1638 C1644 0.949 . S
C1639 H1634 0.950 . S
C1639 C1641 1.327 . S
C1639 C1645 1.429 . S
C1640 C1632 1.574 . S
C1640 H1635 0.949 . S
C1640 C1646 1.368 . S
C1641 C1625 1.349 . S
C1641 H1633 0.950 . S
C1641 C1639 1.327 . S
C1642 C1630 1.349 . S
C1642 H1636 0.950 . S
C1642 C1643 1.327 . S
C1643 H1637 0.950 . S
C1643 C1642 1.327 . S
C1643 C1647 1.429 . S
C1644 C1627 1.574 . S
C1644 H1638 0.949 . S
C1644 C1648 1.368 . S
C1645 C1626 1.429 . S
C1645 C1639 1.429 . S
C1645 C1646 1.523 . S
C1646 C1627 1.368 . S
C1646 C1640 1.368 . S
C1646 C1645 1.523 . S
C1647 C1631 1.429 . S
C1647 C1643 1.429 . S
C1647 C1648 1.523 . S
C1648 C1632 1.368 . S
C1648 C1644 1.368 . S
C1648 C1647 1.523 . S
H1649 C1624 0.950 . S
H1650 C1626 0.950 . S
H1651 C1627 0.949 . S
H1652 C1629 0.950 . S
H1653 C1631 0.950 . S
C1654 C1655 1.349 . S
C1654 C1656 1.327 . S
C1654 H1679 0.950 . S
C1655 C1654 1.349 . S
C1655 C1671 1.349 . S
C1656 C1654 1.327 . S
C1656 C1675 1.429 . S
C1656 H1680 0.950 . S
C1657 C1674 1.574 . S
C1657 C1676 1.368 . S
C1657 H1681 0.949 . S
H1658 C1662 0.949 . S
C1659 C1660 1.349 . S
C1659 C1661 1.327 . S
C1659 H1682 0.950 . S
C1660 C1659 1.349 . S
C1660 C1672 1.349 . S
C1661 C1659 1.327 . S
C1661 C1677 1.429 . S
C1661 H1683 0.950 . S
C1662 H1658 0.949 . S
C1662 C1670 1.574 . S
C1662 C1678 1.368 . S
H1663 C1671 0.950 . S
H1664 C1669 0.950 . S
H1665 C1670 0.949 . S
H1666 C1672 0.950 . S
H1667 C1673 0.950 . S
H1668 C1674 0.949 . S
C1669 H1664 0.950 . S
C1669 C1671 1.327 . S
C1669 C1675 1.429 . S
C1670 C1662 1.574 . S
C1670 H1665 0.949 . S
C1670 C1676 1.368 . S
C1671 C1655 1.349 . S
C1671 H1663 0.950 . S
C1671 C1669 1.327 . S
C1672 C1660 1.349 . S
C1672 H1666 0.950 . S
C1672 C1673 1.327 . S
C1673 H1667 0.950 . S
C1673 C1672 1.327 . S
C1673 C1677 1.429 . S
C1674 C1657 1.574 . S
C1674 H1668 0.949 . S
C1674 C1678 1.368 . S
C1675 C1656 1.429 . S
C1675 C1669 1.429 . S
C1675 C1676 1.523 . S
C1676 C1657 1.368 . S
C1676 C1670 1.368 . S
C1676 C1675 1.523 . S
C1677 C1661 1.429 . S
C1677 C1673 1.429 . S
C1677 C1678 1.523 . S
C1678 C1662 1.368 . S
C1678 C1674 1.368 . S
C1678 C1677 1.523 . S
H1679 C1654 0.950 . S
H1680 C1656 0.950 . S
H1681 C1657 0.949 . S
H1682 C1659 0.950 . S
H1683 C1661 0.950 . S
C1684 C1685 1.349 . S
C1684 C1686 1.327 . S
C1684 H1709 0.950 . S
C1685 C1684 1.349 . S
C1685 C1701 1.349 . S
C1686 C1684 1.327 . S
C1686 C1705 1.429 . S
C1686 H1710 0.950 . S
C1687 C1704 1.574 . S
C1687 C1706 1.368 . S
C1687 H1711 0.949 . S
H1688 C1692 0.949 . S
C1689 C1690 1.349 . S
C1689 C1691 1.327 . S
C1689 H1712 0.950 . S
C1690 C1689 1.349 . S
C1690 C1702 1.349 . S
C1691 C1689 1.327 . S
C1691 C1707 1.429 . S
C1691 H1713 0.950 . S
C1692 H1688 0.949 . S
C1692 C1700 1.574 . S
C1692 C1708 1.368 . S
H1693 C1701 0.950 . S
H1694 C1699 0.950 . S
H1695 C1700 0.949 . S
H1696 C1702 0.950 . S
H1697 C1703 0.950 . S
H1698 C1704 0.949 . S
C1699 H1694 0.950 . S
C1699 C1701 1.327 . S
C1699 C1705 1.429 . S
C1700 C1692 1.574 . S
C1700 H1695 0.949 . S
C1700 C1706 1.368 . S
C1701 C1685 1.349 . S
C1701 H1693 0.950 . S
C1701 C1699 1.327 . S
C1702 C1690 1.349 . S
C1702 H1696 0.950 . S
C1702 C1703 1.327 . S
C1703 H1697 0.950 . S
C1703 C1702 1.327 . S
C1703 C1707 1.429 . S
C1704 C1687 1.574 . S
C1704 H1698 0.949 . S
C1704 C1708 1.368 . S
C1705 C1686 1.429 . S
C1705 C1699 1.429 . S
C1705 C1706 1.523 . S
C1706 C1687 1.368 . S
C1706 C1700 1.368 . S
C1706 C1705 1.523 . S
C1707 C1691 1.429 . S
C1707 C1703 1.429 . S
C1707 C1708 1.523 . S
C1708 C1692 1.368 . S
C1708 C1704 1.368 . S
C1708 C1707 1.523 . S
H1709 C1684 0.950 . S
H1710 C1686 0.950 . S
H1711 C1687 0.949 . S
H1712 C1689 0.950 . S
H1713 C1691 0.950 . S
C1714 C1715 1.349 . S
C1714 C1716 1.327 . S
C1714 H1739 0.950 . S
C1715 C1714 1.349 . S
C1715 C1731 1.349 . S
C1716 C1714 1.327 . S
C1716 C1735 1.429 . S
C1716 H1740 0.950 . S
C1717 C1734 1.574 . S
C1717 C1736 1.368 . S
C1717 H1741 0.949 . S
H1718 C1722 0.949 . S
C1719 C1720 1.349 . S
C1719 C1721 1.327 . S
C1719 H1742 0.950 . S
C1720 C1719 1.349 . S
C1720 C1732 1.349 1_556 S
C1721 C1719 1.327 . S
C1721 C1737 1.429 . S
C1721 H1743 0.950 . S
C1722 H1718 0.949 . S
C1722 C1730 1.574 . S
C1722 C1738 1.368 . S
H1723 C1731 0.950 . S
H1724 C1729 0.950 . S
H1725 C1730 0.949 . S
H1726 C1732 0.950 . S
H1727 C1733 0.950 1_554 S
H1728 C1734 0.949 . S
C1729 H1724 0.950 . S
C1729 C1731 1.327 . S
C1729 C1735 1.429 . S
C1730 C1722 1.574 . S
C1730 H1725 0.949 . S
C1730 C1736 1.368 . S
C1731 C1715 1.349 . S
C1731 H1723 0.950 . S
C1731 C1729 1.327 . S
C1732 C1720 1.349 1_554 S
C1732 H1726 0.950 . S
C1732 C1733 1.327 1_554 S
C1733 H1727 0.950 1_556 S
C1733 C1732 1.327 1_556 S
C1733 C1737 1.429 . S
C1734 C1717 1.574 . S
C1734 H1728 0.949 . S
C1734 C1738 1.368 . S
C1735 C1716 1.429 . S
C1735 C1729 1.429 . S
C1735 C1736 1.523 . S
C1736 C1717 1.368 . S
C1736 C1730 1.368 . S
C1736 C1735 1.523 . S
C1737 C1721 1.429 . S
C1737 C1733 1.429 . S
C1737 C1738 1.523 . S
C1738 C1722 1.368 . S
C1738 C1734 1.368 . S
C1738 C1737 1.523 . S
H1739 C1714 0.950 . S
H1740 C1716 0.950 . S
H1741 C1717 0.949 . S
H1742 C1719 0.950 . S
H1743 C1721 0.950 . S
C1744 C1745 1.349 . S
C1744 C1746 1.327 . S
C1744 H1769 0.950 . S
C1745 C1744 1.349 . S
C1745 C1761 1.349 . S
C1746 C1744 1.327 . S
C1746 C1765 1.429 . S
C1746 H1770 0.950 . S
C1747 C1764 1.574 . S
C1747 C1766 1.368 . S
C1747 H1771 0.949 . S
H1748 C1752 0.949 . S
C1749 C1750 1.349 . S
C1749 C1751 1.327 . S
C1749 H1772 0.950 . S
C1750 C1749 1.349 . S
C1750 C1762 1.349 . S
C1751 C1749 1.327 . S
C1751 C1767 1.429 . S
C1751 H1773 0.950 . S
C1752 H1748 0.949 . S
C1752 C1760 1.574 . S
C1752 C1768 1.368 . S
H1753 C1761 0.950 . S
H1754 C1759 0.950 . S
H1755 C1760 0.949 . S
H1756 C1762 0.950 . S
H1757 C1763 0.950 . S
H1758 C1764 0.949 . S
C1759 H1754 0.950 . S
C1759 C1761 1.327 . S
C1759 C1765 1.429 . S
C1760 C1752 1.574 . S
C1760 H1755 0.949 . S
C1760 C1766 1.368 . S
C1761 C1745 1.349 . S
C1761 H1753 0.950 . S
C1761 C1759 1.327 . S
C1762 C1750 1.349 . S
C1762 H1756 0.950 . S
C1762 C1763 1.327 . S
C1763 H1757 0.950 . S
C1763 C1762 1.327 . S
C1763 C1767 1.429 . S
C1764 C1747 1.574 . S
C1764 H1758 0.949 . S
C1764 C1768 1.368 . S
C1765 C1746 1.429 . S
C1765 C1759 1.429 . S
C1765 C1766 1.523 . S
C1766 C1747 1.368 . S
C1766 C1760 1.368 . S
C1766 C1765 1.523 . S
C1767 C1751 1.429 . S
C1767 C1763 1.429 . S
C1767 C1768 1.523 . S
C1768 C1752 1.368 . S
C1768 C1764 1.368 . S
C1768 C1767 1.523 . S
H1769 C1744 0.950 . S
H1770 C1746 0.950 . S
H1771 C1747 0.949 . S
H1772 C1749 0.950 . S
H1773 C1751 0.950 . S
C1774 C1775 1.349 . S
C1774 C1776 1.327 . S
C1774 H1799 0.950 . S
C1775 C1774 1.349 . S
C1775 C1791 1.349 . S
C1776 C1774 1.327 . S
C1776 C1795 1.429 . S
C1776 H1800 0.950 . S
C1777 C1794 1.574 . S
C1777 C1796 1.368 . S
C1777 H1801 0.949 . S
H1778 C1782 0.949 . S
C1779 C1780 1.349 . S
C1779 C1781 1.327 . S
C1779 H1802 0.950 . S
C1780 C1779 1.349 . S
C1780 C1792 1.349 . S
C1781 C1779 1.327 . S
C1781 C1797 1.429 . S
C1781 H1803 0.950 . S
C1782 H1778 0.949 . S
C1782 C1790 1.574 . S
C1782 C1798 1.368 . S
H1783 C1791 0.950 . S
H1784 C1789 0.950 . S
H1785 C1790 0.949 . S
H1786 C1792 0.950 . S
H1787 C1793 0.950 . S
H1788 C1794 0.949 . S
C1789 H1784 0.950 . S
C1789 C1791 1.327 . S
C1789 C1795 1.429 . S
C1790 C1782 1.574 . S
C1790 H1785 0.949 . S
C1790 C1796 1.368 . S
C1791 C1775 1.349 . S
C1791 H1783 0.950 . S
C1791 C1789 1.327 . S
C1792 C1780 1.349 . S
C1792 H1786 0.950 . S
C1792 C1793 1.327 . S
C1793 H1787 0.950 . S
C1793 C1792 1.327 . S
C1793 C1797 1.429 . S
C1794 C1777 1.574 . S
C1794 H1788 0.949 . S
C1794 C1798 1.368 . S
C1795 C1776 1.429 . S
C1795 C1789 1.429 . S
C1795 C1796 1.523 . S
C1796 C1777 1.368 . S
C1796 C1790 1.368 . S
C1796 C1795 1.523 . S
C1797 C1781 1.429 . S
C1797 C1793 1.429 . S
C1797 C1798 1.523 . S
C1798 C1782 1.368 . S
C1798 C1794 1.368 . S
C1798 C1797 1.523 . S
H1799 C1774 0.950 . S
H1800 C1776 0.950 . S
H1801 C1777 0.949 . S
H1802 C1779 0.950 . S
H1803 C1781 0.950 . S
C1804 C1805 1.349 . S
C1804 C1806 1.327 . S
C1804 H1829 0.950 . S
C1805 C1804 1.349 . S
C1805 C1821 1.349 . S
C1806 C1804 1.327 . S
C1806 C1825 1.429 . S
C1806 H1830 0.950 . S
C1807 C1824 1.574 . S
C1807 C1826 1.368 . S
C1807 H1831 0.949 . S
H1808 C1812 0.949 . S
C1809 C1810 1.349 . S
C1809 C1811 1.327 . S
C1809 H1832 0.950 . S
C1810 C1809 1.349 . S
C1810 C1822 1.349 . S
C1811 C1809 1.327 . S
C1811 C1827 1.429 . S
C1811 H1833 0.950 . S
C1812 H1808 0.949 . S
C1812 C1820 1.574 . S
C1812 C1828 1.368 . S
H1813 C1821 0.950 . S
H1814 C1819 0.950 . S
H1815 C1820 0.949 . S
H1816 C1822 0.950 . S
H1817 C1823 0.950 . S
H1818 C1824 0.949 . S
C1819 H1814 0.950 . S
C1819 C1821 1.327 . S
C1819 C1825 1.429 . S
C1820 C1812 1.574 . S
C1820 H1815 0.949 . S
C1820 C1826 1.368 . S
C1821 C1805 1.349 . S
C1821 H1813 0.950 . S
C1821 C1819 1.327 . S
C1822 C1810 1.349 . S
C1822 H1816 0.950 . S
C1822 C1823 1.327 . S
C1823 H1817 0.950 . S
C1823 C1822 1.327 . S
C1823 C1827 1.429 . S
C1824 C1807 1.574 . S
C1824 H1818 0.949 . S
C1824 C1828 1.368 . S
C1825 C1806 1.429 . S
C1825 C1819 1.429 . S
C1825 C1826 1.523 . S
C1826 C1807 1.368 . S
C1826 C1820 1.368 . S
C1826 C1825 1.523 . S
C1827 C1811 1.429 . S
C1827 C1823 1.429 . S
C1827 C1828 1.523 . S
C1828 C1812 1.368 . S
C1828 C1824 1.368 . S
C1828 C1827 1.523 . S
H1829 C1804 0.950 . S
H1830 C1806 0.950 . S
H1831 C1807 0.949 . S
H1832 C1809 0.950 . S
H1833 C1811 0.950 . S
C1834 C1835 1.349 . S
C1834 C1836 1.327 . S
C1834 H1859 0.950 . S
C1835 C1834 1.349 . S
C1835 C1851 1.349 . S
C1836 C1834 1.327 . S
C1836 C1855 1.429 . S
C1836 H1860 0.950 . S
C1837 C1854 1.574 . S
C1837 C1856 1.368 . S
C1837 H1861 0.949 . S
H1838 C1842 0.949 . S
C1839 C1840 1.349 . S
C1839 C1841 1.327 . S
C1839 H1862 0.950 . S
C1840 C1839 1.349 . S
C1840 C1852 1.349 . S
C1841 C1839 1.327 . S
C1841 C1857 1.429 . S
C1841 H1863 0.950 . S
C1842 H1838 0.949 . S
C1842 C1850 1.574 . S
C1842 C1858 1.368 . S
H1843 C1851 0.950 . S
H1844 C1849 0.950 . S
H1845 C1850 0.949 . S
H1846 C1852 0.950 . S
H1847 C1853 0.950 . S
H1848 C1854 0.949 . S
C1849 H1844 0.950 . S
C1849 C1851 1.327 . S
C1849 C1855 1.429 . S
C1850 C1842 1.574 . S
C1850 H1845 0.949 . S
C1850 C1856 1.368 . S
C1851 C1835 1.349 . S
C1851 H1843 0.950 . S
C1851 C1849 1.327 . S
C1852 C1840 1.349 . S
C1852 H1846 0.950 . S
C1852 C1853 1.327 . S
C1853 H1847 0.950 . S
C1853 C1852 1.327 . S
C1853 C1857 1.429 . S
C1854 C1837 1.574 . S
C1854 H1848 0.949 . S
C1854 C1858 1.368 . S
C1855 C1836 1.429 . S
C1855 C1849 1.429 . S
C1855 C1856 1.523 . S
C1856 C1837 1.368 . S
C1856 C1850 1.368 . S
C1856 C1855 1.523 . S
C1857 C1841 1.429 . S
C1857 C1853 1.429 . S
C1857 C1858 1.523 . S
C1858 C1842 1.368 . S
C1858 C1854 1.368 . S
C1858 C1857 1.523 . S
H1859 C1834 0.950 . S
H1860 C1836 0.950 . S
H1861 C1837 0.949 . S
H1862 C1839 0.950 . S
H1863 C1841 0.950 . S
C1864 C1865 1.349 . S
C1864 C1866 1.327 . S
C1864 H1889 0.950 . S
C1865 C1864 1.349 . S
C1865 C1881 1.349 . S
C1866 C1864 1.327 . S
C1866 C1885 1.429 . S
C1866 H1890 0.950 . S
C1867 C1884 1.574 . S
C1867 C1886 1.368 . S
C1867 H1891 0.949 . S
H1868 C1872 0.949 . S
C1869 C1870 1.349 . S
C1869 C1871 1.327 . S
C1869 H1892 0.950 . S
C1870 C1869 1.349 . S
C1870 C1882 1.349 . S
C1871 C1869 1.327 . S
C1871 C1887 1.429 . S
C1871 H1893 0.950 . S
C1872 H1868 0.949 . S
C1872 C1880 1.574 . S
C1872 C1888 1.368 . S
H1873 C1881 0.950 . S
H1874 C1879 0.950 . S
H1875 C1880 0.949 . S
H1876 C1882 0.950 1_554 S
H1877 C1883 0.950 . S
H1878 C1884 0.949 . S
C1879 H1874 0.950 . S
C1879 C1881 1.327 . S
C1879 C1885 1.429 . S
C1880 C1872 1.574 . S
C1880 H1875 0.949 . S
C1880 C1886 1.368 . S
C1881 C1865 1.349 . S
C1881 H1873 0.950 . S
C1881 C1879 1.327 . S
C1882 C1870 1.349 . S
C1882 H1876 0.950 1_556 S
C1882 C1883 1.327 . S
C1883 H1877 0.950 . S
C1883 C1882 1.327 . S
C1883 C1887 1.429 . S
C1884 C1867 1.574 . S
C1884 H1878 0.949 . S
C1884 C1888 1.368 . S
C1885 C1866 1.429 . S
C1885 C1879 1.429 . S
C1885 C1886 1.523 . S
C1886 C1867 1.368 . S
C1886 C1880 1.368 . S
C1886 C1885 1.523 . S
C1887 C1871 1.429 . S
C1887 C1883 1.429 . S
C1887 C1888 1.523 . S
C1888 C1872 1.368 . S
C1888 C1884 1.368 . S
C1888 C1887 1.523 . S
H1889 C1864 0.950 . S
H1890 C1866 0.950 . S
H1891 C1867 0.949 . S
H1892 C1869 0.950 . S
H1893 C1871 0.950 . S
C1894 C1895 1.349 . S
C1894 C1896 1.327 . S
C1894 H1919 0.950 . S
C1895 C1894 1.349 . S
C1895 C1911 1.349 . S
C1896 C1894 1.327 . S
C1896 C1915 1.429 . S
C1896 H1920 0.950 . S
C1897 C1914 1.574 . S
C1897 C1916 1.368 . S
C1897 H1921 0.949 . S
H1898 C1902 0.949 . S
C1899 C1900 1.349 . S
C1899 C1901 1.327 . S
C1899 H1922 0.950 . S
C1900 C1899 1.349 . S
C1900 C1912 1.349 . S
C1901 C1899 1.327 . S
C1901 C1917 1.429 . S
C1901 H1923 0.950 . S
C1902 H1898 0.949 . S
C1902 C1910 1.574 . S
C1902 C1918 1.368 . S
H1903 C1911 0.950 . S
H1904 C1909 0.950 . S
H1905 C1910 0.949 . S
H1906 C1912 0.950 . S
H1907 C1913 0.950 . S
H1908 C1914 0.949 . S
C1909 H1904 0.950 . S
C1909 C1911 1.327 . S
C1909 C1915 1.429 . S
C1910 C1902 1.574 . S
C1910 H1905 0.949 . S
C1910 C1916 1.368 . S
C1911 C1895 1.349 . S
C1911 H1903 0.950 . S
C1911 C1909 1.327 . S
C1912 C1900 1.349 . S
C1912 H1906 0.950 . S
C1912 C1913 1.327 . S
C1913 H1907 0.950 . S
C1913 C1912 1.327 . S
C1913 C1917 1.429 . S
C1914 C1897 1.574 . S
C1914 H1908 0.949 . S
C1914 C1918 1.368 . S
C1915 C1896 1.429 . S
C1915 C1909 1.429 . S
C1915 C1916 1.523 . S
C1916 C1897 1.368 . S
C1916 C1910 1.368 . S
C1916 C1915 1.523 . S
C1917 C1901 1.429 . S
C1917 C1913 1.429 . S
C1917 C1918 1.523 . S
C1918 C1902 1.368 . S
C1918 C1914 1.368 . S
C1918 C1917 1.523 . S
H1919 C1894 0.950 . S
H1920 C1896 0.950 . S
H1921 C1897 0.949 . S
H1922 C1899 0.950 . S
H1923 C1901 0.950 . S
C1924 C1925 1.349 . S
C1924 C1926 1.327 . S
C1924 H1949 0.950 . S
C1925 C1924 1.349 . S
C1925 C1941 1.349 . S
C1926 C1924 1.327 . S
C1926 C1945 1.429 . S
C1926 H1950 0.950 . S
C1927 C1944 1.574 . S
C1927 C1946 1.368 . S
C1927 H1951 0.949 . S
H1928 C1932 0.949 . S
C1929 C1930 1.349 . S
C1929 C1931 1.327 . S
C1929 H1952 0.950 . S
C1930 C1929 1.349 . S
C1930 C1942 1.349 . S
C1931 C1929 1.327 . S
C1931 C1947 1.429 . S
C1931 H1953 0.950 . S
C1932 H1928 0.949 . S
C1932 C1940 1.574 . S
C1932 C1948 1.368 . S
H1933 C1941 0.950 . S
H1934 C1939 0.950 . S
H1935 C1940 0.949 . S
H1936 C1942 0.950 . S
H1937 C1943 0.950 . S
H1938 C1944 0.949 . S
C1939 H1934 0.950 . S
C1939 C1941 1.327 . S
C1939 C1945 1.429 . S
C1940 C1932 1.574 . S
C1940 H1935 0.949 . S
C1940 C1946 1.368 . S
C1941 C1925 1.349 . S
C1941 H1933 0.950 . S
C1941 C1939 1.327 . S
C1942 C1930 1.349 . S
C1942 H1936 0.950 . S
C1942 C1943 1.327 . S
C1943 H1937 0.950 . S
C1943 C1942 1.327 . S
C1943 C1947 1.429 . S
C1944 C1927 1.574 . S
C1944 H1938 0.949 . S
C1944 C1948 1.368 . S
C1945 C1926 1.429 . S
C1945 C1939 1.429 . S
C1945 C1946 1.523 . S
C1946 C1927 1.368 . S
C1946 C1940 1.368 . S
C1946 C1945 1.523 . S
C1947 C1931 1.429 . S
C1947 C1943 1.429 . S
C1947 C1948 1.523 . S
C1948 C1932 1.368 . S
C1948 C1944 1.368 . S
C1948 C1947 1.523 . S
H1949 C1924 0.950 . S
H1950 C1926 0.950 . S
H1951 C1927 0.949 . S
H1952 C1929 0.950 . S
H1953 C1931 0.950 . S
C1954 C1955 1.349 . S
C1954 C1956 1.327 . S
C1954 H1979 0.950 . S
C1955 C1954 1.349 . S
C1955 C1971 1.349 . S
C1956 C1954 1.327 . S
C1956 C1975 1.429 . S
C1956 H1980 0.950 . S
C1957 C1974 1.574 . S
C1957 C1976 1.368 . S
C1957 H1981 0.949 . S
H1958 C1962 0.949 . S
C1959 C1960 1.349 . S
C1959 C1961 1.327 . S
C1959 H1982 0.950 . S
C1960 C1959 1.349 . S
C1960 C1972 1.349 . S
C1961 C1959 1.327 . S
C1961 C1977 1.429 . S
C1961 H1983 0.950 . S
C1962 H1958 0.949 . S
C1962 C1970 1.574 . S
C1962 C1978 1.368 . S
H1963 C1971 0.950 . S
H1964 C1969 0.950 . S
H1965 C1970 0.949 . S
H1966 C1972 0.950 . S
H1967 C1973 0.950 . S
H1968 C1974 0.949 . S
C1969 H1964 0.950 . S
C1969 C1971 1.327 . S
C1969 C1975 1.429 . S
C1970 C1962 1.574 . S
C1970 H1965 0.949 . S
C1970 C1976 1.368 . S
C1971 C1955 1.349 . S
C1971 H1963 0.950 . S
C1971 C1969 1.327 . S
C1972 C1960 1.349 . S
C1972 H1966 0.950 . S
C1972 C1973 1.327 . S
C1973 H1967 0.950 . S
C1973 C1972 1.327 . S
C1973 C1977 1.429 . S
C1974 C1957 1.574 . S
C1974 H1968 0.949 . S
C1974 C1978 1.368 . S
C1975 C1956 1.429 . S
C1975 C1969 1.429 . S
C1975 C1976 1.523 . S
C1976 C1957 1.368 . S
C1976 C1970 1.368 . S
C1976 C1975 1.523 . S
C1977 C1961 1.429 . S
C1977 C1973 1.429 . S
C1977 C1978 1.523 . S
C1978 C1962 1.368 . S
C1978 C1974 1.368 . S
C1978 C1977 1.523 . S
H1979 C1954 0.950 . S
H1980 C1956 0.950 . S
H1981 C1957 0.949 . S
H1982 C1959 0.950 . S
H1983 C1961 0.950 . S
C1984 C1985 1.349 . S
C1984 C1986 1.327 . S
C1984 H2009 0.950 . S
C1985 C1984 1.349 . S
C1985 C2001 1.349 . S
C1986 C1984 1.327 . S
C1986 C2005 1.429 . S
C1986 H2010 0.950 . S
C1987 C2004 1.574 . S
C1987 C2006 1.368 . S
C1987 H2011 0.949 . S
H1988 C1992 0.949 . S
C1989 C1990 1.349 . S
C1989 C1991 1.327 . S
C1989 H2012 0.950 . S
C1990 C1989 1.349 . S
C1990 C2002 1.349 . S
C1991 C1989 1.327 . S
C1991 C2007 1.429 . S
C1991 H2013 0.950 . S
C1992 H1988 0.949 . S
C1992 C2000 1.574 . S
C1992 C2008 1.368 . S
H1993 C2001 0.950 . S
H1994 C1999 0.950 . S
H1995 C2000 0.949 . S
H1996 C2002 0.950 . S
H1997 C2003 0.950 . S
H1998 C2004 0.949 . S
C1999 H1994 0.950 . S
C1999 C2001 1.327 . S
C1999 C2005 1.429 . S
C2000 C1992 1.574 . S
C2000 H1995 0.949 . S
C2000 C2006 1.368 . S
C2001 C1985 1.349 . S
C2001 H1993 0.950 . S
C2001 C1999 1.327 . S
C2002 C1990 1.349 . S
C2002 H1996 0.950 . S
C2002 C2003 1.327 . S
C2003 H1997 0.950 . S
C2003 C2002 1.327 . S
C2003 C2007 1.429 . S
C2004 C1987 1.574 . S
C2004 H1998 0.949 . S
C2004 C2008 1.368 . S
C2005 C1986 1.429 . S
C2005 C1999 1.429 . S
C2005 C2006 1.523 . S
C2006 C1987 1.368 . S
C2006 C2000 1.368 . S
C2006 C2005 1.523 . S
C2007 C1991 1.429 . S
C2007 C2003 1.429 . S
C2007 C2008 1.523 . S
C2008 C1992 1.368 . S
C2008 C2004 1.368 . S
C2008 C2007 1.523 . S
H2009 C1984 0.950 . S
H2010 C1986 0.950 . S
H2011 C1987 0.949 . S
H2012 C1989 0.950 . S
H2013 C1991 0.950 . S
C2014 C2015 1.349 . S
C2014 C2016 1.327 . S
C2014 H2039 0.950 . S
C2015 C2014 1.349 . S
C2015 C2031 1.349 . S
C2016 C2014 1.327 . S
C2016 C2035 1.429 . S
C2016 H2040 0.950 . S
C2017 C2034 1.574 . S
C2017 C2036 1.368 . S
C2017 H2041 0.949 . S
H2018 C2022 0.949 . S
C2019 C2020 1.349 . S
C2019 C2021 1.327 . S
C2019 H2042 0.950 . S
C2020 C2019 1.349 . S
C2020 C2032 1.349 . S
C2021 C2019 1.327 . S
C2021 C2037 1.429 . S
C2021 H2043 0.950 . S
C2022 H2018 0.949 . S
C2022 C2030 1.574 . S
C2022 C2038 1.368 . S
H2023 C2031 0.950 . S
H2024 C2029 0.950 . S
H2025 C2030 0.949 . S
H2026 C2032 0.950 . S
H2027 C2033 0.950 . S
H2028 C2034 0.949 . S
C2029 H2024 0.950 . S
C2029 C2031 1.327 . S
C2029 C2035 1.429 . S
C2030 C2022 1.574 . S
C2030 H2025 0.949 . S
C2030 C2036 1.368 . S
C2031 C2015 1.349 . S
C2031 H2023 0.950 . S
C2031 C2029 1.327 . S
C2032 C2020 1.349 . S
C2032 H2026 0.950 . S
C2032 C2033 1.327 . S
C2033 H2027 0.950 . S
C2033 C2032 1.327 . S
C2033 C2037 1.429 . S
C2034 C2017 1.574 . S
C2034 H2028 0.949 . S
C2034 C2038 1.368 . S
C2035 C2016 1.429 . S
C2035 C2029 1.429 . S
C2035 C2036 1.523 . S
C2036 C2017 1.368 . S
C2036 C2030 1.368 . S
C2036 C2035 1.523 . S
C2037 C2021 1.429 . S
C2037 C2033 1.429 . S
C2037 C2038 1.523 . S
C2038 C2022 1.368 . S
C2038 C2034 1.368 . S
C2038 C2037 1.523 . S
H2039 C2014 0.950 . S
H2040 C2016 0.950 . S
H2041 C2017 0.949 . S
H2042 C2019 0.950 . S
H2043 C2021 0.950 . S
C2044 C2045 1.349 . S
C2044 C2046 1.327 . S
C2044 H2069 0.950 . S
C2045 C2044 1.349 . S
C2045 C2061 1.349 . S
C2046 C2044 1.327 . S
C2046 C2065 1.429 . S
C2046 H2070 0.950 . S
C2047 C2064 1.574 . S
C2047 C2066 1.368 . S
C2047 H2071 0.949 . S
H2048 C2052 0.949 . S
C2049 C2050 1.349 . S
C2049 C2051 1.327 . S
C2049 H2072 0.950 . S
C2050 C2049 1.349 . S
C2050 C2062 1.349 . S
C2051 C2049 1.327 . S
C2051 C2067 1.429 . S
C2051 H2073 0.950 . S
C2052 H2048 0.949 . S
C2052 C2060 1.574 . S
C2052 C2068 1.368 . S
H2053 C2061 0.950 . S
H2054 C2059 0.950 . S
H2055 C2060 0.949 . S
H2056 C2062 0.950 . S
H2057 C2063 0.950 . S
H2058 C2064 0.949 . S
C2059 H2054 0.950 . S
C2059 C2061 1.327 . S
C2059 C2065 1.429 . S
C2060 C2052 1.574 . S
C2060 H2055 0.949 . S
C2060 C2066 1.368 . S
C2061 C2045 1.349 . S
C2061 H2053 0.950 . S
C2061 C2059 1.327 . S
C2062 C2050 1.349 . S
C2062 H2056 0.950 . S
C2062 C2063 1.327 . S
C2063 H2057 0.950 . S
C2063 C2062 1.327 . S
C2063 C2067 1.429 . S
C2064 C2047 1.574 . S
C2064 H2058 0.949 . S
C2064 C2068 1.368 . S
C2065 C2046 1.429 . S
C2065 C2059 1.429 . S
C2065 C2066 1.523 . S
C2066 C2047 1.368 . S
C2066 C2060 1.368 . S
C2066 C2065 1.523 . S
C2067 C2051 1.429 . S
C2067 C2063 1.429 . S
C2067 C2068 1.523 . S
C2068 C2052 1.368 . S
C2068 C2064 1.368 . S
C2068 C2067 1.523 . S
H2069 C2044 0.950 . S
H2070 C2046 0.950 . S
H2071 C2047 0.949 . S
H2072 C2049 0.950 . S
H2073 C2051 0.950 . S
C2074 C2075 1.349 . S
C2074 C2076 1.327 . S
C2074 H2099 0.950 . S
C2075 C2074 1.349 . S
C2075 C2091 1.349 . S
C2076 C2074 1.327 . S
C2076 C2095 1.429 . S
C2076 H2100 0.950 . S
C2077 C2094 1.574 . S
C2077 C2096 1.368 . S
C2077 H2101 0.949 . S
H2078 C2082 0.949 . S
C2079 C2080 1.349 . S
C2079 C2081 1.327 . S
C2079 H2102 0.950 . S
C2080 C2079 1.349 . S
C2080 C2092 1.349 . S
C2081 C2079 1.327 . S
C2081 C2097 1.429 . S
C2081 H2103 0.950 . S
C2082 H2078 0.949 . S
C2082 C2090 1.574 . S
C2082 C2098 1.368 . S
H2083 C2091 0.950 . S
H2084 C2089 0.950 . S
H2085 C2090 0.949 . S
H2086 C2092 0.950 . S
H2087 C2093 0.950 . S
H2088 C2094 0.949 . S
C2089 H2084 0.950 . S
C2089 C2091 1.327 . S
C2089 C2095 1.429 . S
C2090 C2082 1.574 . S
C2090 H2085 0.949 . S
C2090 C2096 1.368 . S
C2091 C2075 1.349 . S
C2091 H2083 0.950 . S
C2091 C2089 1.327 . S
C2092 C2080 1.349 . S
C2092 H2086 0.950 . S
C2092 C2093 1.327 . S
C2093 H2087 0.950 . S
C2093 C2092 1.327 . S
C2093 C2097 1.429 . S
C2094 C2077 1.574 . S
C2094 H2088 0.949 . S
C2094 C2098 1.368 . S
C2095 C2076 1.429 . S
C2095 C2089 1.429 . S
C2095 C2096 1.523 . S
C2096 C2077 1.368 . S
C2096 C2090 1.368 . S
C2096 C2095 1.523 . S
C2097 C2081 1.429 . S
C2097 C2093 1.429 . S
C2097 C2098 1.523 . S
C2098 C2082 1.368 . S
C2098 C2094 1.368 . S
C2098 C2097 1.523 . S
H2099 C2074 0.950 . S
H2100 C2076 0.950 . S
H2101 C2077 0.949 . S
H2102 C2079 0.950 . S
H2103 C2081 0.950 . S
C2104 C2105 1.349 . S
C2104 C2106 1.327 . S
C2104 H2129 0.950 . S
C2105 C2104 1.349 . S
C2105 C2121 1.349 . S
C2106 C2104 1.327 . S
C2106 C2125 1.429 . S
C2106 H2130 0.950 . S
C2107 C2124 1.574 . S
C2107 C2126 1.368 . S
C2107 H2131 0.949 . S
H2108 C2112 0.949 . S
C2109 C2110 1.349 . S
C2109 C2111 1.327 . S
C2109 H2132 0.950 . S
C2110 C2109 1.349 . S
C2110 C2122 1.349 . S
C2111 C2109 1.327 . S
C2111 C2127 1.429 . S
C2111 H2133 0.950 . S
C2112 H2108 0.949 . S
C2112 C2120 1.574 . S
C2112 C2128 1.368 . S
H2113 C2121 0.950 . S
H2114 C2119 0.950 . S
H2115 C2120 0.949 . S
H2116 C2122 0.950 . S
H2117 C2123 0.950 . S
H2118 C2124 0.949 . S
C2119 H2114 0.950 . S
C2119 C2121 1.327 . S
C2119 C2125 1.429 . S
C2120 C2112 1.574 . S
C2120 H2115 0.949 . S
C2120 C2126 1.368 . S
C2121 C2105 1.349 . S
C2121 H2113 0.950 . S
C2121 C2119 1.327 . S
C2122 C2110 1.349 . S
C2122 H2116 0.950 . S
C2122 C2123 1.327 . S
C2123 H2117 0.950 . S
C2123 C2122 1.327 . S
C2123 C2127 1.429 . S
C2124 C2107 1.574 . S
C2124 H2118 0.949 . S
C2124 C2128 1.368 . S
C2125 C2106 1.429 . S
C2125 C2119 1.429 . S
C2125 C2126 1.523 . S
C2126 C2107 1.368 . S
C2126 C2120 1.368 . S
C2126 C2125 1.523 . S
C2127 C2111 1.429 . S
C2127 C2123 1.429 . S
C2127 C2128 1.523 . S
C2128 C2112 1.368 . S
C2128 C2124 1.368 . S
C2128 C2127 1.523 . S
H2129 C2104 0.950 . S
H2130 C2106 0.950 . S
H2131 C2107 0.949 . S
H2132 C2109 0.950 . S
H2133 C2111 0.950 . S
C2134 C2135 1.349 . S
C2134 C2136 1.327 . S
C2134 H2159 0.950 . S
C2135 C2134 1.349 . S
C2135 C2151 1.349 . S
C2136 C2134 1.327 . S
C2136 C2155 1.429 . S
C2136 H2160 0.950 . S
C2137 C2154 1.574 . S
C2137 C2156 1.368 . S
C2137 H2161 0.949 . S
H2138 C2142 0.949 . S
C2139 C2140 1.349 . S
C2139 C2141 1.327 . S
C2139 H2162 0.950 . S
C2140 C2139 1.349 . S
C2140 C2152 1.349 . S
C2141 C2139 1.327 . S
C2141 C2157 1.429 . S
C2141 H2163 0.950 . S
C2142 H2138 0.949 . S
C2142 C2150 1.574 . S
C2142 C2158 1.368 . S
H2143 C2151 0.950 . S
H2144 C2149 0.950 . S
H2145 C2150 0.949 . S
H2146 C2152 0.950 . S
H2147 C2153 0.950 . S
H2148 C2154 0.949 . S
C2149 H2144 0.950 . S
C2149 C2151 1.327 . S
C2149 C2155 1.429 . S
C2150 C2142 1.574 . S
C2150 H2145 0.949 . S
C2150 C2156 1.368 . S
C2151 C2135 1.349 . S
C2151 H2143 0.950 . S
C2151 C2149 1.327 . S
C2152 C2140 1.349 . S
C2152 H2146 0.950 . S
C2152 C2153 1.327 . S
C2153 H2147 0.950 . S
C2153 C2152 1.327 . S
C2153 C2157 1.429 . S
C2154 C2137 1.574 . S
C2154 H2148 0.949 . S
C2154 C2158 1.368 . S
C2155 C2136 1.429 . S
C2155 C2149 1.429 . S
C2155 C2156 1.523 . S
C2156 C2137 1.368 . S
C2156 C2150 1.368 . S
C2156 C2155 1.523 . S
C2157 C2141 1.429 . S
C2157 C2153 1.429 . S
C2157 C2158 1.523 . S
C2158 C2142 1.368 . S
C2158 C2154 1.368 . S
C2158 C2157 1.523 . S
H2159 C2134 0.950 . S
H2160 C2136 0.950 . S
H2161 C2137 0.949 . S
H2162 C2139 0.950 . S
H2163 C2141 0.950 . S
C2164 C2165 1.349 . S
C2164 C2166 1.327 . S
C2164 H2189 0.950 . S
C2165 C2164 1.349 . S
C2165 C2181 1.349 . S
C2166 C2164 1.327 . S
C2166 C2185 1.429 . S
C2166 H2190 0.950 . S
C2167 C2184 1.574 . S
C2167 C2186 1.368 . S
C2167 H2191 0.949 . S
H2168 C2172 0.949 . S
C2169 C2170 1.349 . S
C2169 C2171 1.327 . S
C2169 H2192 0.950 . S
C2170 C2169 1.349 . S
C2170 C2182 1.349 . S
C2171 C2169 1.327 . S
C2171 C2187 1.429 . S
C2171 H2193 0.950 . S
C2172 H2168 0.949 . S
C2172 C2180 1.574 . S
C2172 C2188 1.368 . S
H2173 C2181 0.950 . S
H2174 C2179 0.950 . S
H2175 C2180 0.949 . S
H2176 C2182 0.950 . S
H2177 C2183 0.950 . S
H2178 C2184 0.949 . S
C2179 H2174 0.950 . S
C2179 C2181 1.327 . S
C2179 C2185 1.429 . S
C2180 C2172 1.574 . S
C2180 H2175 0.949 . S
C2180 C2186 1.368 . S
C2181 C2165 1.349 . S
C2181 H2173 0.950 . S
C2181 C2179 1.327 . S
C2182 C2170 1.349 . S
C2182 H2176 0.950 . S
C2182 C2183 1.327 . S
C2183 H2177 0.950 . S
C2183 C2182 1.327 . S
C2183 C2187 1.429 . S
C2184 C2167 1.574 . S
C2184 H2178 0.949 . S
C2184 C2188 1.368 . S
C2185 C2166 1.429 . S
C2185 C2179 1.429 . S
C2185 C2186 1.523 . S
C2186 C2167 1.368 . S
C2186 C2180 1.368 . S
C2186 C2185 1.523 . S
C2187 C2171 1.429 . S
C2187 C2183 1.429 . S
C2187 C2188 1.523 . S
C2188 C2172 1.368 . S
C2188 C2184 1.368 . S
C2188 C2187 1.523 . S
H2189 C2164 0.950 . S
H2190 C2166 0.950 . S
H2191 C2167 0.949 . S
H2192 C2169 0.950 . S
H2193 C2171 0.950 . S
C2194 C2195 1.349 . S
C2194 C2196 1.327 . S
C2194 H2219 0.950 . S
C2195 C2194 1.349 . S
C2195 C2211 1.349 . S
C2196 C2194 1.327 . S
C2196 C2215 1.429 . S
C2196 H2220 0.950 . S
C2197 C2214 1.574 . S
C2197 C2216 1.368 . S
C2197 H2221 0.949 . S
H2198 C2202 0.949 . S
C2199 C2200 1.349 . S
C2199 C2201 1.327 . S
C2199 H2222 0.950 . S
C2200 C2199 1.349 . S
C2200 C2212 1.349 . S
C2201 C2199 1.327 . S
C2201 C2217 1.429 . S
C2201 H2223 0.950 . S
C2202 H2198 0.949 . S
C2202 C2210 1.574 . S
C2202 C2218 1.368 . S
H2203 C2211 0.950 . S
H2204 C2209 0.950 . S
H2205 C2210 0.949 . S
H2206 C2212 0.950 . S
H2207 C2213 0.950 . S
H2208 C2214 0.949 . S
C2209 H2204 0.950 . S
C2209 C2211 1.327 . S
C2209 C2215 1.429 . S
C2210 C2202 1.574 . S
C2210 H2205 0.949 . S
C2210 C2216 1.368 . S
C2211 C2195 1.349 . S
C2211 H2203 0.950 . S
C2211 C2209 1.327 . S
C2212 C2200 1.349 . S
C2212 H2206 0.950 . S
C2212 C2213 1.327 . S
C2213 H2207 0.950 . S
C2213 C2212 1.327 . S
C2213 C2217 1.429 . S
C2214 C2197 1.574 . S
C2214 H2208 0.949 . S
C2214 C2218 1.368 . S
C2215 C2196 1.429 . S
C2215 C2209 1.429 . S
C2215 C2216 1.523 . S
C2216 C2197 1.368 . S
C2216 C2210 1.368 . S
C2216 C2215 1.523 . S
C2217 C2201 1.429 . S
C2217 C2213 1.429 . S
C2217 C2218 1.523 . S
C2218 C2202 1.368 . S
C2218 C2214 1.368 . S
C2218 C2217 1.523 . S
H2219 C2194 0.950 . S
H2220 C2196 0.950 . S
H2221 C2197 0.949 . S
H2222 C2199 0.950 . S
H2223 C2201 0.950 . S
C545 C153 1.148 . S
C550 C17 1.148 . S
C575 C51 1.087 . S
C580 C187 1.084 . S
C605 C221 1.113 . S
C610 C85 1.113 . S
C635 C255 1.087 . S
C640 C119 1.084 . S
C665 C357 1.088 . S
C670 C289 1.084 . S
C695 C323 1.088 . S
C700 C391 1.084 . S
C725 C493 1.113 . S
C730 C425 1.113 . S
C755 C459 1.148 . S
C760 C527 1.148 . S
C785 C105 1.416 . S
C790 C15 1.399 . S
C815 C3 1.404 1_565 S
C820 C56 1.387 . S
C845 C35 1.388 . S
C850 C83 1.370 . S
C875 C117 1.353 1_556 S
C880 C71 1.369 1_545 S
C905 C171 1.416 . S
C910 C151 1.399 . S
C935 C207 1.370 1_565 S
C940 C192 1.352 . S
C965 C241 1.388 . S
C970 C219 1.370 . S
C995 C139 1.404 1_545 S
C1000 C253 1.387 . S
C1025 C142 1.985 . S
C1030 C307 1.874 . S
C1055 C300 1.977 . S
C1060 C137 1.862 1_545 S
C1085 C210 1.960 . S
C1090 C275 1.847 . S
C1115 C312 1.944 1_554 S
C1120 C205 1.829 1_565 S
C1145 C343 1.873 . S
C1150 C6 1.986 . S
C1175 C69 1.831 1_545 S
C1180 C368 1.943 1_556 S
C1205 C375 1.847 . S
C1210 C74 1.960 . S
C1235 C1 1.862 1_565 S
C1240 C380 1.977 . S
C1265 C377 1.388 . S
C1270 C423 1.370 . S
C1295 C411 1.370 . S
C1300 C362 1.352 . S
C1325 C457 1.398 . S
C1330 C341 1.418 . S
C1355 C389 1.387 . S
C1360 C445 1.404 . S
C1385 C498 1.370 . S
C1390 C273 1.388 . S
C1415 C511 1.404 . S
C1420 C294 1.387 . S
C1445 C309 1.416 . S
C1450 C532 1.399 . S
C1475 C477 1.370 . S
C1480 C321 1.352 . S
C1505 C239 1.846 . S
C1510 C504 1.960 . S
C1535 C479 1.831 . S
C1540 C198 1.943 1_554 S
C1565 C538 1.985 . S
C1570 C173 1.874 . S
C1595 C244 1.977 . S
C1600 C513 1.862 . S
C1625 C37 1.846 . S
C1630 C414 1.960 . S
C1655 C62 1.977 . S
C1660 C443 1.862 . S
C1685 C448 1.985 . S
C1690 C103 1.874 . S
C1715 C409 1.831 . S
C1720 C108 1.943 1_556 S
C1745 C176 1.602 . S
C1750 C28 1.600 . S
C1775 C232 1.621 . S
C1780 C40 1.621 . S
C1805 C266 1.621 . S
C1810 C96 1.621 . S
C1835 C130 1.602 . S
C1840 C164 1.600 . S
C1865 C158 0.529 . S
C1870 C355 0.529 . S
C1895 C287 0.536 . S
C1900 C90 0.536 . S
C1925 C396 0.536 . S
C1930 C226 0.536 . S
C1955 C22 0.529 . S
C1960 C328 0.529 . S
C1985 C436 1.621 . S
C1990 C278 1.621 . S
C2015 C346 1.602 . S
C2020 C516 1.600 . S
C2045 C470 1.602 . S
C2050 C334 1.601 . S
C2075 C482 1.621 . S
C2080 C402 1.621 . S
C2105 C49 0.536 . S
C2110 C491 0.536 . S
C2135 C464 0.529 . S
C2140 C185 0.529 . S
C2165 C124 0.528 . S
C2170 C525 0.530 . S
C2195 C260 0.536 . S
C2200 C430 0.536 . S
