# Generated by pormake.
# Topology uoz, (4)-cn, num edge types: 1
# Building blocks:
#     Node 0, Type 0, BuildingBlock: ICAMEG_clean_sbu_1, # of connection points: 4
#     Node 1, Type 0, BuildingBlock: ICAMEG_clean_sbu_1, # of connection points: 4
#     Node 2, Type 0, BuildingBlock: ICAMEG_clean_sbu_1, # of connection points: 4
#     Node 3, Type 0, BuildingBlock: ICAMEG_clean_sbu_1, # of connection points: 4
#     Node 4, Type 0, BuildingBlock: ICAMEG_clean_sbu_1, # of connection points: 4
#     Node 5, Type 0, BuildingBlock: ICAMEG_clean_sbu_1, # of connection points: 4
#     Node 6, Type 0, BuildingBlock: ICAMEG_clean_sbu_1, # of connection points: 4
#     Node 7, Type 0, BuildingBlock: ICAMEG_clean_sbu_1, # of connection points: 4
#     Node 8, Type 0, BuildingBlock: ICAMEG_clean_sbu_1, # of connection points: 4
#     Node 9, Type 0, BuildingBlock: ICAMEG_clean_sbu_1, # of connection points: 4
#     Node 10, Type 0, BuildingBlock: ICAMEG_clean_sbu_1, # of connection points: 4
#     Node 11, Type 0, BuildingBlock: ICAMEG_clean_sbu_1, # of connection points: 4
#     Node 12, Type 0, BuildingBlock: ICAMEG_clean_sbu_1, # of connection points: 4
#     Node 13, Type 0, BuildingBlock: ICAMEG_clean_sbu_1, # of connection points: 4
#     Node 14, Type 0, BuildingBlock: ICAMEG_clean_sbu_1, # of connection points: 4
#     Node 15, Type 0, BuildingBlock: ICAMEG_clean_sbu_1, # of connection points: 4
#     Edge 16, Type (0, 0), BuildingBlock: EZIPEK_clean_linker_0, # of connection points: 2
#     Edge 17, Type (0, 0), BuildingBlock: EZIPEK_clean_linker_0, # of connection points: 2
#     Edge 18, Type (0, 0), BuildingBlock: EZIPEK_clean_linker_0, # of connection points: 2
#     Edge 19, Type (0, 0), BuildingBlock: EZIPEK_clean_linker_0, # of connection points: 2
#     Edge 20, Type (0, 0), BuildingBlock: EZIPEK_clean_linker_0, # of connection points: 2
#     Edge 21, Type (0, 0), BuildingBlock: EZIPEK_clean_linker_0, # of connection points: 2
#     Edge 22, Type (0, 0), BuildingBlock: EZIPEK_clean_linker_0, # of connection points: 2
#     Edge 23, Type (0, 0), BuildingBlock: EZIPEK_clean_linker_0, # of connection points: 2
#     Edge 24, Type (0, 0), BuildingBlock: EZIPEK_clean_linker_0, # of connection points: 2
#     Edge 25, Type (0, 0), BuildingBlock: EZIPEK_clean_linker_0, # of connection points: 2
#     Edge 26, Type (0, 0), BuildingBlock: EZIPEK_clean_linker_0, # of connection points: 2
#     Edge 27, Type (0, 0), BuildingBlock: EZIPEK_clean_linker_0, # of connection points: 2
#     Edge 28, Type (0, 0), BuildingBlock: EZIPEK_clean_linker_0, # of connection points: 2
#     Edge 29, Type (0, 0), BuildingBlock: EZIPEK_clean_linker_0, # of connection points: 2
#     Edge 30, Type (0, 0), BuildingBlock: EZIPEK_clean_linker_0, # of connection points: 2
#     Edge 31, Type (0, 0), BuildingBlock: EZIPEK_clean_linker_0, # of connection points: 2
#     Edge 32, Type (0, 0), BuildingBlock: EZIPEK_clean_linker_0, # of connection points: 2
#     Edge 33, Type (0, 0), BuildingBlock: EZIPEK_clean_linker_0, # of connection points: 2
#     Edge 34, Type (0, 0), BuildingBlock: EZIPEK_clean_linker_0, # of connection points: 2
#     Edge 35, Type (0, 0), BuildingBlock: EZIPEK_clean_linker_0, # of connection points: 2
#     Edge 36, Type (0, 0), BuildingBlock: EZIPEK_clean_linker_0, # of connection points: 2
#     Edge 37, Type (0, 0), BuildingBlock: EZIPEK_clean_linker_0, # of connection points: 2
#     Edge 38, Type (0, 0), BuildingBlock: EZIPEK_clean_linker_0, # of connection points: 2
#     Edge 39, Type (0, 0), BuildingBlock: EZIPEK_clean_linker_0, # of connection points: 2
#     Edge 40, Type (0, 0), BuildingBlock: EZIPEK_clean_linker_0, # of connection points: 2
#     Edge 41, Type (0, 0), BuildingBlock: EZIPEK_clean_linker_0, # of connection points: 2
#     Edge 42, Type (0, 0), BuildingBlock: EZIPEK_clean_linker_0, # of connection points: 2
#     Edge 43, Type (0, 0), BuildingBlock: EZIPEK_clean_linker_0, # of connection points: 2
#     Edge 44, Type (0, 0), BuildingBlock: EZIPEK_clean_linker_0, # of connection points: 2
#     Edge 45, Type (0, 0), BuildingBlock: EZIPEK_clean_linker_0, # of connection points: 2
#     Edge 46, Type (0, 0), BuildingBlock: EZIPEK_clean_linker_0, # of connection points: 2
#     Edge 47, Type (0, 0), BuildingBlock: EZIPEK_clean_linker_0, # of connection points: 2
# Relax obj value: 0.294
# Max RMSD: 0.239
# Mean RMSD: 0.239
data_MOF--net-uoz--node1-ICAMEG_clean_sbu_1--edge1-EZIPEK_clean_linker_0
_symmetry_space_group_name_H-M    P1
_symmetry_Int_Tables_number       1
_symmetry_cell_setting            triclinic
loop_
_symmetry_equiv_pos_as_xyz
'x, y, z'
_cell_length_a     45.895413
_cell_length_b     45.961263
_cell_length_c     17.250229
_cell_angle_alpha  89.876398
_cell_angle_beta   89.961613
_cell_angle_gamma 90.128401
loop_
_atom_site_label
_atom_site_type_symbol
_atom_site_fract_x
_atom_site_fract_y
_atom_site_fract_z
_atom_type_partial_charge
Co0 Co 0.02033 0.58462 0.17178 0.0
Co1 Co 0.01166 0.6044 0.36491 0.0
O2 O 0.01363 0.57542 0.28164 0.0
C3 C 0.96403 0.55303 0.16508 0.0
O4 O 0.95393 0.56887 0.22205 0.0
C5 C 0.04492 0.55133 0.4372 0.0
O6 O 0.05733 0.54467 0.37102 0.0
O7 O 0.05081 0.62201 0.32946 0.0
O8 O 0.05088 0.61366 0.20024 0.0
H9 H 1.00656 0.70556 0.47908 0.0
H10 H 0.02321 0.52359 0.22806 0.0
O11 O 0.99006 0.55587 0.14115 0.0
H12 H 0.11909 0.54364 0.11003 0.0
H13 H 0.02219 0.56183 0.88611 0.0
H14 H 0.03321 0.63857 0.08282 0.0
H15 H 0.08027 0.58066 0.10728 0.0
H16 H 0.02004 0.54968 0.02527 0.0
O17 O 0.03032 0.57513 0.44218 0.0
H18 H 1.00879 0.66985 0.37431 0.0
H19 H 1.00513 0.60078 0.5383 0.0
H20 H 0.03761 0.65121 0.94465 0.0
H21 H 0.06156 0.48594 0.23238 0.0
H22 H 0.03176 0.6127 0.845 0.0
H23 H 0.10988 0.496 0.17383 0.0
O24 O 0.99012 0.61556 0.17242 0.0
H25 H 0.94064 0.52376 0.42406 0.0
H26 H 0.95436 0.63005 0.41008 0.0
H27 H 0.90679 0.61017 0.45006 0.0
H28 H 0.89966 0.55665 0.45734 0.0
H29 H 0.98779 0.5445 0.38393 0.0
H30 H 1.00322 0.63588 0.64456 0.0
H31 H 1.00402 0.68882 0.61583 0.0
O32 O 0.99045 0.63293 0.29389 0.0
C33 C 0.06159 0.62565 0.2605 0.0
C34 C 1.00696 0.68255 0.49257 0.0
C35 C 1.00512 0.64349 0.58534 0.0
N36 N 1.00941 0.63287 0.44912 0.0
C37 C 1.00865 0.66203 0.43312 0.0
C38 C 1.00682 0.6236 0.52439 0.0
C39 C 1.00544 0.67316 0.56921 0.0
C40 C 0.04418 0.52801 0.2019 0.0
N41 N 0.04972 0.55445 0.16865 0.0
C42 C 0.06574 0.50662 0.20449 0.0
C43 C 0.09293 0.51232 0.17188 0.0
C44 C 0.09813 0.53905 0.13621 0.0
C45 C 0.07609 0.55992 0.13481 0.0
C46 C 0.02521 0.57868 0.92909 0.0
C47 C 0.03144 0.62153 0.04022 0.0
C48 C 0.02372 0.57201 1.00807 0.0
N49 N 0.02647 0.5934 0.0626 0.0
C50 C 0.03373 0.62887 0.96185 0.0
C51 C 0.03043 0.60728 0.90599 0.0
C52 C 0.98213 0.63396 0.22304 0.0
C53 C 0.94351 0.54712 0.42152 0.0
C54 C 0.95159 0.60674 0.41369 0.0
C55 C 0.92452 0.5956 0.43614 0.0
C56 C 0.92053 0.56558 0.44012 0.0
N57 N 0.9741 0.58851 0.3957 0.0
C58 C 0.97025 0.55903 0.39912 0.0
Co59 Co 0.68502 0.75951 0.41476 0.0
Co60 Co 0.66669 0.75632 0.60989 0.0
O61 O 0.69524 0.75532 0.52509 0.0
C62 C 0.71982 0.70485 0.41843 0.0
O63 O 0.70841 0.69759 0.48535 0.0
C64 C 0.72268 0.78761 0.67608 0.0
O65 O 0.7304 0.7974 0.6076 0.0
O66 O 0.65085 0.7955 0.56949 0.0
O67 O 0.65613 0.79052 0.43986 0.0
H68 H 0.56603 0.75875 0.72881 0.0
H69 H 0.74585 0.76507 0.47042 0.0
O70 O 0.71362 0.72898 0.38631 0.0
H71 H 0.72619 0.8558 0.32697 0.0
H72 H 0.70655 0.76364 0.1284 0.0
H73 H 0.62972 0.76695 0.32825 0.0
H74 H 0.68876 0.81735 0.33637 0.0
H75 H 0.71909 0.75955 0.26693 0.0
O76 O 0.69761 0.77512 0.68402 0.0
H77 H 0.60131 0.75737 0.62243 0.0
H78 H 0.67107 0.75256 0.78365 0.0
H79 H 0.61628 0.77148 0.19033 0.0
H80 H 0.78366 0.80341 0.4645 0.0
H81 H 0.65484 0.76981 0.08931 0.0
H82 H 0.77382 0.84913 0.39285 0.0
O83 O 0.65456 0.72892 0.42302 0.0
H84 H 0.74318 0.68273 0.68225 0.0
H85 H 0.63778 0.70077 0.65682 0.0
H86 H 0.6548 0.6528 0.70131 0.0
H87 H 0.70785 0.64354 0.71488 0.0
H88 H 0.72517 0.73005 0.63591 0.0
H89 H 0.63646 0.75414 0.89157 0.0
H90 H 0.58342 0.75739 0.86503 0.0
O91 O 0.63657 0.73515 0.54267 0.0
C92 C 0.64604 0.80393 0.49872 0.0
C93 C 0.58913 0.75802 0.74128 0.0
C94 C 0.62862 0.75549 0.8325 0.0
N95 N 0.63866 0.757 0.69548 0.0
C96 C 0.6094 0.75761 0.68085 0.0
C97 C 0.64825 0.75514 0.77056 0.0
C98 C 0.59888 0.75718 0.81762 0.0
C99 C 0.74146 0.78495 0.43904 0.0
N100 N 0.71501 0.78914 0.40473 0.0
C101 C 0.76295 0.80651 0.43572 0.0
C102 C 0.75742 0.8322 0.3955 0.0
C103 C 0.73068 0.83599 0.35879 0.0
C104 C 0.70958 0.81414 0.36429 0.0
C105 C 0.68955 0.76445 0.17187 0.0
C106 C 0.64665 0.76644 0.28467 0.0
C107 C 0.6965 0.76204 0.25044 0.0
N108 N 0.67517 0.76326 0.30573 0.0
C109 C 0.6389 0.76891 0.20665 0.0
C110 C 0.66054 0.76793 0.14999 0.0
C111 C 0.63562 0.72359 0.47496 0.0
C112 C 0.72 0.68655 0.67724 0.0
C113 C 0.66092 0.69699 0.6623 0.0
C114 C 0.67042 0.66974 0.68767 0.0
C115 C 0.70018 0.66456 0.69532 0.0
N116 N 0.68048 0.71855 0.64508 0.0
C117 C 0.70968 0.71349 0.65183 0.0
Co118 Co 0.5015 0.43576 0.6666 0.0
Co119 Co 0.50907 0.4172 0.86052 0.0
O120 O 0.50807 0.44583 0.77604 0.0
C121 C 0.55614 0.47034 0.66467 0.0
O122 O 0.56501 0.45726 0.72793 0.0
C123 C 0.47617 0.47067 0.93168 0.0
O124 O 0.46227 0.47589 0.86664 0.0
O125 O 0.4692 0.40137 0.82713 0.0
O126 O 0.47045 0.40727 0.69704 0.0
H127 H 0.50613 0.3167 0.97836 0.0
H128 H 0.49843 0.49647 0.72418 0.0
O129 O 0.53177 0.46418 0.63403 0.0
H130 H 0.40492 0.47915 0.59144 0.0
H131 H 0.49884 0.4551 0.37858 0.0
H132 H 0.48953 0.38074 0.58338 0.0
H133 H 0.44291 0.44128 0.59355 0.0
H134 H 0.50177 0.46901 0.51648 0.0
O135 O 0.49192 0.44761 0.93701 0.0
H136 H 0.50436 0.3524 0.87238 0.0
H137 H 0.51932 0.42114 0.03178 0.0
H138 H 0.48443 0.36641 0.44659 0.0
H139 H 0.46095 0.53491 0.72376 0.0
H140 H 0.48937 0.40372 0.34301 0.0
H141 H 0.41378 0.52627 0.65767 0.0
O142 O 0.53163 0.40469 0.66976 0.0
H143 H 0.58325 0.49433 0.92459 0.0
H144 H 0.5661 0.38899 0.89547 0.0
H145 H 0.61494 0.40657 0.93175 0.0
H146 H 0.62374 0.45958 0.94711 0.0
H147 H 0.53496 0.47593 0.88614 0.0
H148 H 0.52072 0.3862 0.13953 0.0
H149 H 0.51412 0.33348 0.11347 0.0
O150 O 0.52851 0.38714 0.79063 0.0
C151 C 0.45886 0.3967 0.75836 0.0
C152 C 0.50863 0.33966 0.9907 0.0
C153 C 0.51673 0.37864 0.0811 0.0
N154 N 0.51032 0.38915 0.9455 0.0
C155 C 0.50749 0.36009 0.93073 0.0
C156 C 0.51547 0.39843 0.01962 0.0
C157 C 0.51313 0.34907 0.06643 0.0
C158 C 0.4779 0.49252 0.69529 0.0
N159 N 0.4725 0.46632 0.66079 0.0
C160 C 0.45685 0.51443 0.69499 0.0
C161 C 0.43033 0.50954 0.65805 0.0
C162 C 0.42533 0.4831 0.62101 0.0
C163 C 0.44688 0.46171 0.62251 0.0
C164 C 0.49615 0.43881 0.42338 0.0
C165 C 0.49081 0.3973 0.53892 0.0
C166 C 0.49808 0.44646 0.50158 0.0
N167 N 0.49556 0.42576 0.55828 0.0
C168 C 0.48819 0.38898 0.46143 0.0
C169 C 0.49099 0.40991 0.40336 0.0
C170 C 0.53814 0.38587 0.72096 0.0
C171 C 0.57965 0.47117 0.91849 0.0
C172 C 0.56973 0.41211 0.90136 0.0
C173 C 0.59745 0.42193 0.92224 0.0
C174 C 0.60237 0.45167 0.93094 0.0
N175 N 0.5475 0.43136 0.88933 0.0
C176 C 0.55223 0.46057 0.89737 0.0
Co177 Co 0.84394 0.25528 0.92544 0.0
Co178 Co 0.85671 0.25644 0.12009 0.0
O179 O 0.82903 0.25717 0.03271 0.0
C180 C 0.78784 0.28998 0.91766 0.0
O181 O 0.78333 0.28629 0.99193 0.0
C182 C 0.79688 0.23478 0.18935 0.0
O183 O 0.78448 0.23771 0.12127 0.0
O184 O 0.87153 0.21699 0.08042 0.0
O185 O 0.87759 0.23126 0.95755 0.0
H186 H 0.9545 0.23405 0.23696 0.0
H187 H 0.78403 0.23358 0.96555 0.0
O188 O 0.81063 0.27962 0.88531 0.0
H189 H 0.83233 0.15181 0.83453 0.0
H190 H 0.84133 0.24373 0.63329 0.0
H191 H 0.90313 0.26377 0.86026 0.0
H192 H 0.85783 0.19847 0.85072 0.0
H193 H 0.82085 0.24266 0.76466 0.0
O194 O 0.82501 0.2379 0.19456 0.0
H195 H 0.91861 0.23891 0.13202 0.0
H196 H 0.85487 0.26727 0.29247 0.0
H197 H 0.92492 0.26432 0.73022 0.0
H198 H 0.75777 0.18742 0.9503 0.0
H199 H 0.89394 0.25454 0.61512 0.0
H200 H 0.78203 0.14587 0.88518 0.0
O201 O 0.86632 0.29128 0.94572 0.0
H202 H 0.78431 0.33799 0.15968 0.0
H203 H 0.88705 0.30883 0.18266 0.0
H204 H 0.87285 0.35852 0.21778 0.0
H205 H 0.82107 0.37353 0.20663 0.0
H206 H 0.79947 0.28856 0.12636 0.0
H207 H 0.8898 0.26252 0.39946 0.0
H208 H 0.94024 0.24597 0.37212 0.0
O209 O 0.88799 0.2779 0.05461 0.0
C210 C 0.88251 0.21342 1.01208 0.0
C211 C 0.93264 0.24142 0.24969 0.0
C212 C 0.89635 0.25736 0.34079 0.0
N213 N 0.88456 0.25379 0.20531 0.0
C214 C 0.91217 0.24427 0.19027 0.0
C215 C 0.8765 0.25993 0.27979 0.0
C216 C 0.92462 0.24808 0.32545 0.0
C217 C 0.79464 0.21607 0.93574 0.0
N218 N 0.82227 0.21933 0.90749 0.0
C219 C 0.77966 0.18976 0.92769 0.0
C220 C 0.79325 0.16647 0.89111 0.0
C221 C 0.82144 0.1698 0.86263 0.0
C222 C 0.83573 0.19641 0.87175 0.0
C223 C 0.85499 0.24856 0.68279 0.0
C224 C 0.8893 0.2597 0.81088 0.0
C225 C 0.84322 0.24855 0.7575 0.0
N226 N 0.86016 0.25447 0.82059 0.0
C227 C 0.90188 0.25995 0.73713 0.0
C228 C 0.88451 0.25448 0.67264 0.0
C229 C 0.88689 0.29447 0.99414 0.0
C230 C 0.80693 0.33171 0.16524 0.0
C231 C 0.86444 0.31484 0.1782 0.0
C232 C 0.85653 0.34319 0.19801 0.0
C233 C 0.82753 0.35162 0.19158 0.0
N234 N 0.84409 0.29512 0.15343 0.0
C235 C 0.81571 0.30356 0.14592 0.0
Co236 Co 0.01294 0.43512 0.96644 0.0
Co237 Co 1.01063 0.41399 0.77605 0.0
O238 O 1.00914 0.44376 0.85609 0.0
C239 C 0.95675 0.46704 0.97142 0.0
O240 O 0.94431 0.44772 0.9263 0.0
C241 C 0.04398 0.46686 0.70247 0.0
O242 O 0.05734 0.47289 0.76777 0.0
O243 O 0.04996 0.39976 0.81837 0.0
O244 O 0.04227 0.4045 0.94668 0.0
H245 H 0.03321 0.31487 0.66865 0.0
H246 H 0.02076 0.49577 0.90894 0.0
O247 O 0.98362 0.46563 0.98897 0.0
H248 H 0.11394 0.46928 0.0324 0.0
H249 H 0.01263 0.46231 0.24908 0.0
H250 H 0.02081 0.38166 0.06237 0.0
H251 H 0.07222 0.43555 0.03594 0.0
H252 H 0.0118 0.47201 0.10863 0.0
O253 O 0.02849 0.44356 0.6982 0.0
H254 H 0.02885 0.35202 0.77063 0.0
H255 H 0.99833 0.41352 0.60583 0.0
H256 H 0.02338 0.37128 0.20229 0.0
H257 H 0.06239 0.53 0.90329 0.0
H258 H 0.01893 0.41173 0.29684 0.0
H259 H 0.10916 0.51687 0.96527 0.0
O260 O 0.98153 0.4052 0.96062 0.0
H261 H 0.9354 0.48916 0.70734 0.0
H262 H 0.95572 0.3842 0.72644 0.0
H263 H 0.90699 0.4005 0.68577 0.0
H264 H 0.89658 0.45339 0.6756 0.0
H265 H 0.98366 0.47187 0.74895 0.0
H266 H 1.00245 0.37709 0.50193 0.0
H267 H 0.01984 0.32727 0.53305 0.0
O268 O 0.98954 0.38454 0.84632 0.0
C269 C 0.05662 0.39441 0.88989 0.0
C270 C 0.0254 0.33644 0.65441 0.0
C271 C 1.00815 0.37135 0.56088 0.0
N272 N 0.01284 0.38479 0.69485 0.0
C273 C 0.02285 0.35757 0.71206 0.0
C274 C 1.00586 0.39189 0.62009 0.0
C275 C 0.01793 0.34342 0.57835 0.0
C276 C 0.04104 0.49005 0.93693 0.0
N277 N 0.04408 0.46364 0.9724 0.0
C278 C 0.06444 0.50952 0.93356 0.0
C279 C 0.09084 0.50203 0.96784 0.0
C280 C 0.09355 0.47534 1.00542 0.0
C281 C 0.06979 0.45636 1.00738 0.0
C282 C 0.01476 0.44453 0.20843 0.0
C283 C 0.01966 0.39952 0.10288 0.0
C284 C 0.01406 0.44984 0.12871 0.0
N285 N 0.01616 0.42743 0.07697 0.0
C286 C 0.02083 0.39345 0.18219 0.0
C287 C 0.01826 0.41614 0.23521 0.0
C288 C 0.97705 0.38451 0.91324 0.0
C289 C 0.93968 0.46606 0.71131 0.0
C290 C 0.95133 0.40717 0.72287 0.0
C291 C 0.92371 0.41632 0.69939 0.0
C292 C 0.9179 0.44598 0.69364 0.0
N293 N 0.97265 0.42695 0.73994 0.0
C294 C 0.96704 0.4561 0.7346 0.0
Co295 Co 0.86141 0.76304 0.20263 0.0
Co296 Co 0.86933 0.76361 1.00635 0.0
O297 O 0.84328 0.76058 0.09813 0.0
C298 C 0.80806 0.72492 0.22676 0.0
O299 O 0.80029 0.72733 0.15391 0.0
C300 C 0.80754 0.78161 0.9409 0.0
O301 O 0.79525 0.7769 1.00854 0.0
O302 O 0.88227 0.80399 0.04561 0.0
O303 O 0.89342 0.78755 0.1628 0.0
H304 H 0.96518 0.78939 0.88357 0.0
H305 H 0.7998 0.78122 0.17764 0.0
O306 O 0.83091 0.73766 0.25138 0.0
H307 H 0.848 0.86653 0.29316 0.0
H308 H 0.86897 0.77918 0.49293 0.0
H309 H 0.9221 0.75321 0.25501 0.0
H310 H 0.8753 0.82125 0.27195 0.0
H311 H 0.84416 0.77896 0.36724 0.0
O312 O 0.8358 0.78073 0.9357 0.0
H313 H 0.93049 0.78251 0.991 0.0
H314 H 0.86519 0.75567 0.83273 0.0
H315 H 0.94812 0.75406 0.37916 0.0
H316 H 0.7716 0.82583 0.19916 0.0
H317 H 0.92156 0.76686 0.49978 0.0
H318 H 0.79573 0.86909 0.25664 0.0
O319 O 0.88358 0.72773 0.17771 0.0
H320 H 0.80133 0.67766 0.97742 0.0
H321 H 0.90132 0.71361 0.93632 0.0
H322 H 0.88895 0.66349 0.89979 0.0
H323 H 0.83862 0.64508 0.92007 0.0
H324 H 0.81445 0.72767 1.01167 0.0
H325 H 0.89885 0.76262 0.72346 0.0
H326 H 0.94944 0.77943 0.74844 0.0
O327 O 0.90268 0.74321 0.06586 0.0
C328 C 0.89429 0.80761 0.11253 0.0
C329 C 0.94324 0.78192 0.87189 0.0
C330 C 0.90602 0.76697 0.78209 0.0
N331 N 0.89577 0.76832 0.91871 0.0
C332 C 0.9235 0.77785 0.93264 0.0
C333 C 0.8869 0.76316 0.84436 0.0
C334 C 0.93439 0.77638 0.79612 0.0
C335 C 0.81041 0.79956 0.20416 0.0
N336 N 0.83911 0.79815 0.22479 0.0
C337 C 0.79434 0.82495 0.21562 0.0
C338 C 0.80789 0.84923 0.24776 0.0
C339 C 0.83717 0.84779 0.26839 0.0
C340 C 0.85253 0.82201 0.25619 0.0
C341 C 0.88069 0.77301 0.44106 0.0
C342 C 0.91007 0.75842 0.30688 0.0
C343 C 0.86643 0.77221 0.36957 0.0
N344 N 0.88094 0.76466 0.3034 0.0
C345 C 0.92508 0.75903 0.37726 0.0
C346 C 0.9102 0.76623 0.44484 0.0
C347 C 0.90224 0.72534 0.12363 0.0
C348 C 0.82324 0.68554 0.96709 0.0
C349 C 0.87909 0.70628 0.94335 0.0
C350 C 0.87233 0.67763 0.92333 0.0
C351 C 0.84415 0.66727 0.93502 0.0
N352 N 0.85828 0.72449 0.97292 0.0
C353 C 0.83082 0.71407 0.98638 0.0
Co354 Co 0.50624 0.59145 0.44953 0.0
Co355 Co 0.50784 0.61272 0.25671 0.0
O356 O 0.51071 0.58349 0.33876 0.0
C357 C 0.56458 0.56599 0.48851 0.0
O358 O 0.57746 0.59124 0.47984 0.0
C359 C 0.47586 0.55795 0.18969 0.0
O360 O 0.46395 0.55163 0.25684 0.0
O361 O 0.46856 0.62666 0.3006 0.0
O362 O 0.47492 0.62046 0.42936 0.0
H363 H 0.4872 0.71179 0.14382 0.0
H364 H 0.50324 0.53029 0.39419 0.0
O365 O 0.53771 0.56235 0.47182 0.0
H366 H 0.40761 0.55014 0.51321 0.0
H367 H 0.50813 0.56205 0.73087 0.0
H368 H 0.49356 0.64324 0.5483 0.0
H369 H 0.44656 0.58708 0.51602 0.0
H370 H 0.50942 0.55363 0.59011 0.0
O371 O 0.48974 0.58216 0.18224 0.0
H372 H 0.49244 0.67558 0.24795 0.0
H373 H 0.51593 0.61102 0.08456 0.0
H374 H 0.49111 0.65249 0.68861 0.0
H375 H 0.46465 0.49277 0.39002 0.0
H376 H 0.49866 0.61171 0.78119 0.0
H377 H 0.41655 0.5026 0.4494 0.0
O378 O 0.53536 0.62344 0.44368 0.0
H379 H 0.58394 0.53894 0.18431 0.0
H380 H 0.56085 0.64353 0.19792 0.0
H381 H 0.60861 0.62805 0.14747 0.0
H382 H 0.62046 0.57542 0.14063 0.0
H383 H 0.53632 0.55528 0.23334 0.0
H384 H 0.51055 0.6463 0.9782 0.0
H385 H 0.49623 0.6972 1.00736 0.0
O386 O 0.5294 0.64271 0.32437 0.0
C387 C 0.46093 0.63089 0.37198 0.0
C388 C 0.4935 0.68969 0.1303 0.0
C389 C 0.50654 0.65295 0.0374 0.0
N390 N 0.50449 0.64119 0.17326 0.0
C391 C 0.49657 0.66911 0.18942 0.0
C392 C 0.50938 0.633 0.0981 0.0
C393 C 0.49853 0.6815 0.05378 0.0
C394 C 0.48244 0.53457 0.42129 0.0
N395 N 0.47712 0.5609 0.45492 0.0
C396 C 0.46073 0.51325 0.41868 0.0
C397 C 0.43361 0.51887 0.45156 0.0
C398 C 0.42856 0.54555 0.48721 0.0
C399 C 0.45073 0.56638 0.48862 0.0
C400 C 0.50488 0.58002 0.69115 0.0
C401 C 0.49693 0.62545 0.58783 0.0
C402 C 0.50587 0.57546 0.61118 0.0
N403 N 0.50242 0.59815 0.56048 0.0
C404 C 0.49541 0.63077 0.66744 0.0
C405 C 0.49961 0.60789 0.71935 0.0
C406 C 0.54088 0.64279 0.39269 0.0
C407 C 0.57899 0.56193 0.18671 0.0
C408 C 0.56567 0.62056 0.19421 0.0
C409 C 0.59282 0.61194 0.16587 0.0
C410 C 0.59947 0.58241 0.16221 0.0
N411 N 0.54559 0.60035 0.21774 0.0
C412 C 0.55202 0.57135 0.21443 0.0
Co413 Co 0.658 0.24831 0.71952 0.0
Co414 Co 0.65167 0.25915 0.50341 0.0
O415 O 0.67363 0.25215 0.60573 0.0
C416 C 0.68698 0.30454 0.75606 0.0
O417 O 0.66215 0.31347 0.78522 0.0
C418 C 0.7096 0.22869 0.44785 0.0
O419 O 0.71578 0.21931 0.51784 0.0
O420 O 0.63174 0.22005 0.51829 0.0
O421 O 0.65756 0.23452 0.61238 0.0
H422 H 0.56087 0.26191 0.3396 0.0
H423 H 0.72013 0.23824 0.67313 0.0
O424 O 0.68833 0.27949 0.72399 0.0
H425 H 0.69383 0.15739 0.84818 0.0
H426 H 0.68197 0.26376 1.00228 0.0
H427 H 0.60477 0.2451 0.80982 0.0
H428 H 0.6581 0.19581 0.8169 0.0
H429 H 0.6939 0.25858 0.86339 0.0
O430 O 0.68481 0.24109 0.43549 0.0
H431 H 0.58896 0.25559 0.45969 0.0
H432 H 0.66734 0.27601 0.34039 0.0
H433 H 0.59161 0.2499 0.94855 0.0
H434 H 0.75637 0.20018 0.70172 0.0
H435 H 0.63047 0.2595 0.04557 0.0
H436 H 0.74307 0.15912 0.78864 0.0
O437 O 0.62802 0.27821 0.69578 0.0
H438 H 0.73725 0.32731 0.48737 0.0
H439 H 0.63069 0.31853 0.46106 0.0
H440 H 0.65442 0.36561 0.43409 0.0
H441 H 0.70817 0.37014 0.44606 0.0
H442 H 0.71219 0.2811 0.51782 0.0
H443 H 0.64014 0.28216 0.21874 0.0
H444 H 0.58647 0.27521 0.21764 0.0
O445 O 0.61955 0.2804 0.56588 0.0
C446 C 0.63829 0.21538 0.58795 0.0
C447 C 0.58427 0.26488 0.33923 0.0
C448 C 0.62874 0.27619 0.27141 0.0
N449 N 0.62986 0.26495 0.40765 0.0
C450 C 0.60033 0.26126 0.40734 0.0
C451 C 0.64407 0.27241 0.34062 0.0
C452 C 0.59864 0.27234 0.27084 0.0
C453 C 0.71426 0.22057 0.71146 0.0
N454 N 0.68703 0.21912 0.74325 0.0
C455 C 0.73488 0.19909 0.72748 0.0
C456 C 0.72748 0.17613 0.77664 0.0
C457 C 0.69983 0.17511 0.80992 0.0
C458 C 0.67975 0.19692 0.7923 0.0
C459 C 0.6648 0.25998 0.96049 0.0
C460 C 0.62151 0.24971 0.8521 0.0
C461 C 0.67141 0.25727 0.88179 0.0
N462 N 0.64974 0.25271 0.82881 0.0
C463 C 0.61407 0.2522 0.93033 0.0
C464 C 0.6359 0.25753 0.98474 0.0
C465 C 0.61426 0.28795 0.63691 0.0
C466 C 0.71383 0.32559 0.48135 0.0
C467 C 0.65405 0.32036 0.4673 0.0
C468 C 0.66737 0.34709 0.45166 0.0
C469 C 0.69751 0.34962 0.45835 0.0
N470 N 0.67025 0.29682 0.48953 0.0
C471 C 0.69965 0.29935 0.4978 0.0
Co472 Co 0.34604 0.25857 0.6965 0.0
Co473 Co 0.36946 0.26264 0.50766 0.0
O474 O 0.33861 0.25606 0.58432 0.0
C475 C 0.31008 0.2042 0.68432 0.0
O476 O 0.32296 0.19633 0.62001 0.0
C477 C 0.31111 0.2817 0.42614 0.0
O478 O 0.29658 0.2757 0.48967 0.0
O479 O 0.37867 0.30204 0.55783 0.0
O480 O 0.37633 0.28888 0.6828 0.0
H481 H 0.46906 0.29708 0.42801 0.0
H482 H 0.28589 0.26534 0.63751 0.0
O483 O 0.31601 0.22833 0.71661 0.0
H484 H 0.30806 0.35728 0.77194 0.0
H485 H 0.31569 0.26109 0.97697 0.0
H486 H 0.39889 0.26042 0.796 0.0
H487 H 0.34357 0.31714 0.77132 0.0
H488 H 0.30756 0.25934 0.83584 0.0
O489 O 0.33945 0.28062 0.42766 0.0
H490 H 0.42922 0.28635 0.5194 0.0
H491 H 0.37606 0.25672 0.33472 0.0
H492 H 0.40803 0.26252 0.93671 0.0
H493 H 0.2498 0.3052 0.63577 0.0
H494 H 0.36622 0.26284 0.02832 0.0
H495 H 0.26097 0.35157 0.7027 0.0
O496 O 0.37635 0.22814 0.68748 0.0
H497 H 0.30714 0.17734 0.42465 0.0
H498 H 0.40731 0.2148 0.45031 0.0
H499 H 0.39931 0.16573 0.39794 0.0
H500 H 0.34891 0.14669 0.38407 0.0
H501 H 0.31605 0.22602 0.47721 0.0
H502 H 0.41502 0.26751 0.24098 0.0
H503 H 0.46211 0.28766 0.28748 0.0
O504 O 0.39939 0.24227 0.57877 0.0
C505 C 0.3847 0.30628 0.63003 0.0
C506 C 0.44873 0.28807 0.40703 0.0
C507 C 0.41839 0.27157 0.30211 0.0
N508 N 0.40039 0.27033 0.43295 0.0
C509 C 0.42613 0.28175 0.45868 0.0
C510 C 0.39627 0.26556 0.35554 0.0
C511 C 0.4448 0.28286 0.32821 0.0
C512 C 0.29073 0.28542 0.66725 0.0
N513 N 0.31682 0.28893 0.70392 0.0
C514 C 0.27027 0.30788 0.66604 0.0
C515 C 0.27656 0.33395 0.70355 0.0
C516 C 0.303 0.33718 0.74223 0.0
C517 C 0.323 0.31434 0.74171 0.0
C518 C 0.33409 0.26106 0.93768 0.0
C519 C 0.38061 0.26085 0.83538 0.0
C520 C 0.32963 0.26005 0.85765 0.0
N521 N 0.35276 0.2602 0.80756 0.0
C522 C 0.3859 0.2619 0.91506 0.0
C523 C 0.36244 0.26205 0.96643 0.0
C524 C 0.39797 0.22659 0.64095 0.0
C525 C 0.32919 0.18558 0.429 0.0
C526 C 0.38522 0.20703 0.44334 0.0
C527 C 0.38087 0.17905 0.41408 0.0
C528 C 0.35262 0.16836 0.40648 0.0
N529 N 0.3621 0.22424 0.46336 0.0
C530 C 0.3344 0.21343 0.45816 0.0
Co531 Co 0.17723 0.76104 0.19255 0.0
Co532 Co 0.15318 0.75861 1.0035 0.0
O533 O 0.18373 0.76366 0.0809 0.0
C534 C 0.20343 0.81677 0.24184 0.0
O535 O 0.1782 0.82257 0.27407 0.0
C536 C 0.20889 0.72934 0.93562 0.0
O537 O 0.21676 0.71993 1.00428 0.0
O538 O 0.14184 0.71945 0.05272 0.0
O539 O 0.14729 0.72969 0.17976 0.0
H540 H 0.05285 0.73253 0.90784 0.0
H541 H 0.23833 0.75703 0.13589 0.0
O542 O 0.20679 0.79273 0.2059 0.0
H543 H 0.21787 0.66294 0.26275 0.0
H544 H 0.21099 0.76203 0.47027 0.0
H545 H 0.12607 0.75408 0.29711 0.0
H546 H 0.18118 0.7019 0.26299 0.0
H547 H 0.21731 0.76304 0.32842 0.0
O548 O 0.18349 0.74082 0.9271 0.0
H549 H 0.09091 0.74067 1.00591 0.0
H550 H 0.15144 0.76402 0.8307 0.0
H551 H 0.11869 0.75249 0.43855 0.0
H552 H 0.27572 0.71853 0.13497 0.0
H553 H 0.1614 0.75659 0.52631 0.0
H554 H 0.26563 0.67118 0.19845 0.0
O555 O 0.14605 0.79074 0.18514 0.0
H556 H 0.22171 0.83766 0.91486 0.0
H557 H 0.11871 0.80924 0.94591 0.0
H558 H 0.13076 0.85726 0.89064 0.0
H559 H 0.18259 0.87178 0.87476 0.0
H560 H 0.20866 0.78986 0.9695 0.0
H561 H 0.11424 0.75585 0.73033 0.0
H562 H 0.06444 0.74011 0.76856 0.0
O563 O 0.12336 0.77969 0.07321 0.0
C564 C 0.13747 0.71371 0.12528 0.0
C565 C 0.07445 0.73943 0.89039 0.0
C566 C 0.10891 0.75245 0.79081 0.0
N567 N 0.12337 0.75284 0.92474 0.0
C568 C 0.09607 0.74413 0.94597 0.0
C569 C 0.12995 0.75689 0.84807 0.0
C570 C 0.08097 0.74365 0.81228 0.0
C571 C 0.23389 0.7366 0.16467 0.0
N572 N 0.20747 0.73167 0.19872 0.0
C573 C 0.25516 0.7149 0.16389 0.0
C574 C 0.24939 0.68821 0.19906 0.0
C575 C 0.2226 0.68355 0.23499 0.0
C576 C 0.20185 0.7057 0.23464 0.0
C577 C 0.1922 0.76026 0.43269 0.0
C578 C 0.14465 0.75594 0.33473 0.0
C579 C 0.19561 0.76093 0.35226 0.0
N580 N 0.17194 0.75906 0.30431 0.0
C581 C 0.1404 0.75496 0.41488 0.0
C582 C 0.16437 0.75723 0.46408 0.0
C583 C 0.12515 0.79397 0.13748 0.0
C584 C 0.19904 0.83153 0.92099 0.0
C585 C 0.14133 0.81522 0.93845 0.0
C586 C 0.14801 0.84251 0.90732 0.0
C587 C 0.17709 0.85066 0.89856 0.0
N588 N 0.16299 0.79642 0.95968 0.0
C589 C 0.19153 0.80439 0.9517 0.0
Co590 Co 0.17287 0.26763 0.90388 0.0
Co591 Co 0.16897 0.26411 0.10287 0.0
O592 O 0.19241 0.26388 1.00609 0.0
C593 C 0.22317 0.22649 0.87443 0.0
O594 O 0.23122 0.22755 0.9473 0.0
C595 C 0.22916 0.29092 0.15681 0.0
O596 O 0.23704 0.29811 0.08612 0.0
O597 O 0.15256 0.3041 0.07194 0.0
O598 O 0.14305 0.29355 0.9477 0.0
H599 H 0.07898 0.2845 0.2601 0.0
H600 H 0.23604 0.28178 0.91898 0.0
O601 O 0.20126 0.24107 0.85132 0.0
H602 H 0.19047 0.37151 0.8211 0.0
H603 H 0.1627 0.28667 0.61545 0.0
H604 H 0.11118 0.26122 0.85689 0.0
H605 H 0.16092 0.32755 0.8434 0.0
H606 H 0.18903 0.2841 0.73888 0.0
O607 O 0.20312 0.28125 0.16858 0.0
H608 H 0.10871 0.28252 0.1414 0.0
H609 H 0.18018 0.24896 0.26921 0.0
H610 H 0.08372 0.26435 0.73496 0.0
H611 H 0.26641 0.32503 0.89628 0.0
H612 H 0.10947 0.27691 0.61268 0.0
H613 H 0.24366 0.37048 0.84749 0.0
O614 O 0.14898 0.23304 0.92818 0.0
H615 H 0.24627 0.18714 0.12768 0.0
H616 H 0.14173 0.20864 0.15862 0.0
H617 H 0.15967 0.15924 0.18625 0.0
H618 H 0.21233 0.14821 0.17117 0.0
H619 H 0.22725 0.23606 0.09957 0.0
H620 H 0.15138 0.25097 0.38956 0.0
H621 H 0.10031 0.26864 0.38554 0.0
O622 O 0.13479 0.24376 0.04844 0.0
C623 C 0.14019 0.30979 1.0063 0.0
C624 C 0.10114 0.27654 0.26255 0.0
C625 C 0.14177 0.25777 0.3352 0.0
N626 N 0.14596 0.26507 0.1976 0.0
C627 C 0.11803 0.27521 0.19528 0.0
C628 C 0.15799 0.25672 0.2667 0.0
C629 C 0.11312 0.26769 0.33291 0.0
C630 C 0.22596 0.30111 0.89627 0.0
N631 N 0.19674 0.30171 0.8812 0.0
C632 C 0.24328 0.32572 0.88415 0.0
C633 C 0.2305 0.35123 0.85694 0.0
C634 C 0.20069 0.35181 0.84202 0.0
C635 C 0.18406 0.32678 0.85486 0.0
C636 C 0.1513 0.28064 0.66806 0.0
C637 C 0.1228 0.26632 0.8041 0.0
C638 C 0.16635 0.27857 0.73821 0.0
N639 N 0.15224 0.27111 0.80519 0.0
C640 C 0.107 0.26822 0.7351 0.0
C641 C 0.12143 0.27529 0.66657 0.0
C642 C 0.13251 0.22854 0.98628 0.0
C643 C 0.22331 0.19171 0.13504 0.0
C644 C 0.16469 0.2041 0.15187 0.0
C645 C 0.17472 0.17604 0.16772 0.0
C646 C 0.20425 0.16987 0.15925 0.0
N647 N 0.18354 0.2255 0.12847 0.0
C648 C 0.21247 0.21949 0.11969 0.0
Co649 Co 0.3351 0.75401 0.40601 0.0
Co650 Co 0.35232 0.75979 0.6023 0.0
O651 O 0.32455 0.76001 0.51547 0.0
C652 C 0.30415 0.81072 0.38986 0.0
O653 O 0.32272 0.82338 0.43665 0.0
C654 C 0.29286 0.73771 0.67133 0.0
O655 O 0.27961 0.74198 0.60498 0.0
O656 O 0.36906 0.7208 0.5644 0.0
O657 O 0.36428 0.7238 0.43445 0.0
H658 H 0.45297 0.76591 0.72409 0.0
H659 H 0.27286 0.75034 0.45216 0.0
O660 O 0.30593 0.78377 0.37435 0.0
H661 H 0.29639 0.65461 0.34022 0.0
H662 H 0.31471 0.7511 0.11885 0.0
H663 H 0.39026 0.74353 0.32026 0.0
H664 H 0.33314 0.69383 0.34256 0.0
H665 H 0.3014 0.75335 0.25735 0.0
O666 O 0.32106 0.73978 0.67438 0.0
H667 H 0.41793 0.76865 0.61941 0.0
H668 H 0.34899 0.75095 0.77861 0.0
H669 H 0.40419 0.73947 0.18304 0.0
H670 H 0.2354 0.71169 0.45084 0.0
H671 H 0.36624 0.7435 0.08102 0.0
H672 H 0.24727 0.66332 0.39589 0.0
O673 O 0.36586 0.78452 0.41194 0.0
H674 H 0.2763 0.83821 0.64173 0.0
H675 H 0.37943 0.81247 0.67595 0.0
H676 H 0.36187 0.85924 0.7238 0.0
H677 H 0.30984 0.87251 0.70769 0.0
H678 H 0.29465 0.79182 0.59357 0.0
H679 H 0.38363 0.7487 0.88395 0.0
H680 H 0.4363 0.75597 0.85831 0.0
O681 O 0.38189 0.78193 0.53511 0.0
C682 C 0.37439 0.71156 0.49493 0.0
C683 C 0.43009 0.7622 0.73593 0.0
C684 C 0.39126 0.75263 0.82544 0.0
N685 N 0.38056 0.75871 0.68919 0.0
C686 C 0.40973 0.76323 0.67583 0.0
C687 C 0.37148 0.75377 0.76396 0.0
C688 C 0.42076 0.75673 0.81116 0.0
C689 C 0.27811 0.72936 0.42775 0.0
N690 N 0.30535 0.72412 0.39908 0.0
C691 C 0.25682 0.7076 0.42712 0.0
C692 C 0.2635 0.68043 0.39631 0.0
C693 C 0.29107 0.67552 0.36519 0.0
C694 C 0.31179 0.69779 0.36677 0.0
C695 C 0.33132 0.74892 0.16294 0.0
C696 C 0.37354 0.74476 0.27666 0.0
C697 C 0.32399 0.75047 0.24149 0.0
N698 N 0.34508 0.74873 0.29731 0.0
C699 C 0.38158 0.74257 0.19881 0.0
C700 C 0.36029 0.74482 0.14164 0.0
C701 C 0.38361 0.79174 0.46533 0.0
C702 C 0.29892 0.83245 0.65043 0.0
C703 C 0.35657 0.81719 0.67042 0.0
C704 C 0.34683 0.84419 0.6968 0.0
C705 C 0.31771 0.85169 0.68741 0.0
N706 N 0.33784 0.79778 0.63648 0.0
C707 C 0.3095 0.80577 0.62398 0.0
Co708 Co 0.52324 0.09472 0.6875 0.0
Co709 Co 0.52006 0.11214 0.88207 0.0
O710 O 0.51947 0.0839 0.79683 0.0
C711 C 0.46931 0.05835 0.68135 0.0
O712 O 0.45569 0.07486 0.73154 0.0
C713 C 0.54803 0.05462 0.94711 0.0
O714 O 0.55459 0.04579 0.87709 0.0
O715 O 0.55862 0.12974 0.8403 0.0
O716 O 0.55106 0.12653 0.71137 0.0
H717 H 0.53526 0.21036 1.00572 0.0
H718 H 0.53635 0.04734 0.57609 0.0
O719 O 0.49547 0.06338 0.66087 0.0
H720 H 0.6176 0.04639 0.76275 0.0
H721 H 0.48401 0.11545 0.42113 0.0
H722 H 0.57244 0.1114 0.58304 0.0
H723 H 0.57752 0.0814 0.77639 0.0
H724 H 0.48085 0.10146 0.55897 0.0
O725 O 0.53936 0.08122 0.95587 0.0
H726 H 0.53219 0.17564 0.89792 0.0
H727 H 0.51134 0.10733 0.05383 0.0
H728 H 0.57654 0.12581 0.44568 0.0
H729 H 0.57516 0.01116 0.56241 0.0
H730 H 0.53213 0.12777 0.36361 0.0
H731 H 0.61652 1.01054 0.65508 0.0
O732 O 0.49093 0.12253 0.69728 0.0
H733 H 0.44613 0.03372 0.93974 0.0
H734 H 0.46594 0.13913 0.9454 0.0
H735 H 0.4189 0.12063 0.99366 0.0
H736 H 0.40868 0.06756 0.99094 0.0
H737 H 0.49291 0.05308 0.89302 0.0
H738 H 0.51462 0.14109 0.1638 0.0
H739 H 0.52648 0.19312 0.1403 0.0
O740 O 0.49756 0.14218 0.81557 0.0
C741 C 0.56456 0.13708 0.76921 0.0
C742 C 0.52997 0.18776 1.01678 0.0
C743 C 0.51849 0.1489 0.10544 0.0
N744 N 0.52149 0.13947 0.96848 0.0
C745 C 0.52811 0.16802 0.95551 0.0
C746 C 0.51684 0.12982 0.04267 0.0
C747 C 0.5251 0.17808 0.09224 0.0
C748 C 0.55408 0.04727 0.61729 0.0
N749 N 0.55486 0.06701 0.6764 0.0
C750 C 0.57616 0.02673 0.60885 0.0
C751 C 0.59928 0.02642 0.66103 0.0
C752 C 0.59993 0.04654 0.72122 0.0
C753 C 0.57733 0.06667 0.72816 0.0
C754 C 0.50354 0.11456 0.4562 0.0
C755 C 0.55299 0.11228 0.5478 0.0
C756 C 0.50189 0.10654 0.53423 0.0
N757 N 0.52644 0.10533 0.57885 0.0
C758 C 0.55546 0.12041 0.47 0.0
C759 C 0.53053 0.1215 0.42399 0.0
C760 C 0.48564 0.14191 0.74762 0.0
C761 C 0.4504 0.05688 0.94188 0.0
C762 C 0.46197 0.11595 0.94535 0.0
C763 C 0.43515 0.10562 0.97227 0.0
C764 C 0.4294 0.07586 0.97054 0.0
N765 N 0.48266 0.09718 0.9181 0.0
C766 C 0.477 0.06799 0.9157 0.0
Co767 Co 1.0083 0.93808 0.16421 0.0
Co768 Co 0.01358 0.9195 0.35831 0.0
O769 O 0.01295 0.94827 0.27412 0.0
C770 C 0.06225 0.97359 0.16568 0.0
O771 O 0.0707 0.96054 0.22931 0.0
C772 C 0.97994 0.97308 0.42838 0.0
O773 O 0.96669 0.97875 0.36267 0.0
O774 O 0.97426 0.9029 0.3212 0.0
O775 O 0.97792 0.90855 0.1913 0.0
H776 H 0.012 0.8189 0.4764 0.0
H777 H 1.00194 0.99858 0.22083 0.0
O778 O 0.0379 0.96757 0.13475 0.0
H779 H 0.91016 0.9764 0.08473 0.0
H780 H 0.01238 0.95658 0.87611 0.0
H781 H 0.99904 0.8827 0.08035 0.0
H782 H 0.95026 0.94075 0.08719 0.0
H783 H 1.01047 0.97111 1.0137 0.0
O784 O 0.99524 0.94969 0.43394 0.0
H785 H 0.01138 0.85442 0.37013 0.0
H786 H 0.02142 0.92363 0.53054 0.0
H787 H 0.9979 0.86788 0.94341 0.0
H788 H 0.9622 0.03475 0.22059 0.0
H789 H 1.005 0.90494 0.84011 0.0
H790 H 0.91584 0.02354 0.15324 0.0
O791 O 0.03967 0.9083 0.17039 0.0
H792 H 0.08578 0.99779 0.42836 0.0
H793 H 0.07061 0.89221 0.39797 0.0
H794 H 0.11869 0.91053 0.43849 0.0
H795 H 0.12648 0.96366 0.45462 0.0
H796 H 0.03836 0.97869 0.38522 0.0
H797 H 0.02181 0.88887 0.63857 0.0
H798 H 0.017 0.83598 0.61224 0.0
O799 O 0.03436 0.88981 0.28962 0.0
C800 C 0.96522 0.89808 0.25105 0.0
C801 C 0.01352 0.84192 0.48887 0.0
C802 C 0.01897 0.88116 0.5798 0.0
N803 N 0.01444 0.89143 0.44347 0.0
C804 C 0.01286 0.86228 0.42866 0.0
C805 C 0.01821 0.90086 0.51806 0.0
C806 C 0.01638 0.8515 0.565 0.0
C807 C 0.98185 0.99365 0.1909 0.0
N808 N 0.97813 0.96733 0.15555 0.0
C809 C 0.95949 0.01422 0.19088 0.0
C810 C 0.93341 1.00788 0.15327 0.0
C811 C 0.9302 0.98142 0.11494 0.0
C812 C 0.953 0.96136 0.11632 0.0
C813 C 1.0085 0.94044 0.92066 0.0
C814 C 1.0009 0.89921 0.03589 0.0
C815 C 1.00777 0.94843 0.99877 0.0
N816 N 1.00437 0.92783 0.0554 0.0
C817 C 1.00062 0.89059 0.95833 0.0
C818 C 1.00462 0.91137 0.90044 0.0
C819 C 0.04546 0.88918 0.22137 0.0
C820 C 0.08261 0.97458 0.42196 0.0
C821 C 0.07381 0.91539 0.40412 0.0
C822 C 0.1011 0.92562 0.4274 0.0
C823 C 0.10545 0.95543 0.43652 0.0
N824 N 0.05144 0.93429 0.39009 0.0
C825 C 0.05567 0.96358 0.39822 0.0
Co826 Co 0.51732 0.91174 0.45788 0.0
Co827 Co 0.51453 0.90781 0.26167 0.0
O828 O 0.51531 0.93171 0.35623 0.0
C829 C 0.48443 0.9675 0.48744 0.0
O830 O 0.48544 0.97487 0.414 0.0
C831 C 0.54747 0.96483 0.20308 0.0
O832 O 0.5609 0.96928 0.26915 0.0
O833 O 0.55423 0.89067 0.29433 0.0
O834 O 0.5386 0.87872 0.41218 0.0
H835 H 0.53135 0.81553 0.11315 0.0
H836 H 0.54242 0.9705 0.42627 0.0
O837 O 0.49566 0.94376 0.51092 0.0
H838 H 0.62215 0.91422 0.54458 0.0
H839 H 0.53098 0.90144 0.74772 0.0
H840 H 0.50646 0.85055 0.50526 0.0
H841 H 0.5735 0.89252 0.52949 0.0
H842 H 0.53076 0.92764 0.62337 0.0
O843 O 0.53237 0.94133 0.19471 0.0
H844 H 0.5301 0.84666 0.22935 0.0
H845 H 0.50028 0.91792 0.09418 0.0
H846 H 0.50715 0.82321 0.62786 0.0
H847 H 0.59133 0.99215 0.43499 0.0
H848 H 0.51936 0.84864 0.75056 0.0
H849 H 0.63151 0.9643 0.49617 0.0
O850 O 0.47992 0.89242 0.43434 0.0
H851 H 0.44105 0.98797 0.23103 0.0
H852 H 0.45786 0.88244 0.20771 0.0
H853 H 0.40923 0.9023 0.17915 0.0
H854 H 0.40055 0.95544 0.19063 0.0
H855 H 0.48929 0.96718 0.25963 0.0
H856 H 0.50162 0.88774 0.97638 0.0
H857 H 0.51707 0.83608 0.98542 0.0
O858 O 0.49257 0.87482 0.31871 0.0
C859 C 0.55793 0.87749 0.35989 0.0
C860 C 0.52443 0.83796 0.1085 0.0
C861 C 0.50778 0.87849 0.03174 0.0
N862 N 0.51479 0.88395 0.16893 0.0
C863 C 0.52356 0.85565 0.1742 0.0
C864 C 0.50713 0.8955 0.09872 0.0
C865 C 0.51645 0.84951 0.03685 0.0
C866 C 0.55968 0.95805 0.45257 0.0
N867 N 0.55467 0.93042 0.47872 0.0
C868 C 0.58742 0.97047 0.45736 0.0
C869 C 0.60998 0.95483 0.49155 0.0
C870 C 0.6047 0.92681 0.51903 0.0
C871 C 0.57691 0.91477 0.51118 0.0
C872 C 0.52543 0.89013 0.69476 0.0
C873 C 0.51182 0.86191 0.55807 0.0
C874 C 0.52492 0.90505 0.62415 0.0
N875 N 0.51823 0.891 0.55674 0.0
C876 C 0.51215 0.84624 0.62752 0.0
C877 C 0.51898 0.86051 0.6963 0.0
C878 C 0.47584 0.87464 0.37883 0.0
C879 C 0.44457 0.96479 0.2256 0.0
C880 C 0.45432 0.90559 0.21295 0.0
C881 C 0.42671 0.91672 0.19656 0.0
C882 C 0.42185 0.94653 0.20302 0.0
N883 N 0.47654 0.92364 0.23511 0.0
C884 C 0.47189 0.95289 0.24153 0.0
Co885 Co 1.01081 0.08881 0.95051 0.0
Co886 Co 0.01211 0.11341 0.75948 0.0
O887 O 0.01497 0.08322 0.83876 0.0
C888 C 0.06866 0.06838 1.00205 0.0
O889 O 0.0722 0.09449 0.03111 0.0
C890 C 0.97966 0.05919 0.69029 0.0
O891 O 0.96905 0.05167 0.75808 0.0
O892 O 0.97378 0.12833 0.80819 0.0
O893 O 0.97759 0.11604 0.93505 0.0
H894 H 0.99567 0.21463 0.65392 0.0
H895 H 0.0117 0.02859 0.88721 0.0
O896 O 0.04505 0.06222 0.96601 0.0
H897 H 0.91486 0.04077 1.00674 0.0
H898 H 0.01627 0.05369 0.2269 0.0
H899 H 0.99344 0.13703 0.05804 0.0
H900 H 0.95206 0.0792 1.0179 0.0
H901 H 0.01764 0.04853 0.08495 0.0
O902 O 0.99248 0.08406 0.68365 0.0
H903 H 1.00066 0.17757 0.75555 0.0
H904 H 0.01774 0.11293 0.58672 0.0
H905 H 0.99093 0.14292 0.1994 0.0
H906 H 0.97475 0.98961 0.87445 0.0
H907 H 1.00265 0.10108 0.2852 0.0
H908 H 0.92623 0.99547 0.93467 0.0
O909 O 0.03764 0.12272 0.9481 0.0
H910 H 0.08554 0.03835 0.67683 0.0
H911 H 0.06543 0.14331 0.69977 0.0
H912 H 0.11237 0.12714 0.64563 0.0
H913 H 0.1227 0.07431 0.63388 0.0
H914 H 0.03888 0.0554 0.73014 0.0
H915 H 0.01261 0.14918 0.48285 0.0
H916 H 1.00157 0.20055 0.5159 0.0
O917 O 0.03498 0.14189 0.82796 0.0
C918 C 0.96505 0.12958 0.87983 0.0
C919 C 1.00033 0.19229 0.63866 0.0
C920 C 1.00978 0.15558 0.54273 0.0
N921 N 1.00895 0.14286 0.67816 0.0
C922 C 1.0031 0.17112 0.69644 0.0
C923 C 0.0124 0.13505 0.60211 0.0
C924 C 1.00364 0.18439 0.56128 0.0
C925 C 0.99068 0.03109 0.9147 0.0
N926 N 0.98394 0.05623 0.9526 0.0
C927 C 0.96995 1.00894 0.90738 0.0
C928 C 0.94252 0.01239 0.94049 0.0
C929 C 0.93612 0.03778 0.98085 0.0
C930 C 0.9573 0.05948 0.98693 0.0
C931 C 0.01137 0.07216 0.19016 0.0
C932 C 0.99895 0.11886 0.0944 0.0
C933 C 0.01239 0.06948 0.10958 0.0
N934 N 1.00699 0.0929 0.06259 0.0
C935 C 0.99725 0.12223 0.17474 0.0
C936 C 1.00375 0.09875 0.22284 0.0
C937 C 0.04459 0.14193 0.89816 0.0
C938 C 0.08124 0.06144 0.68124 0.0
C939 C 0.06958 0.12028 0.69405 0.0
C940 C 0.09628 0.11125 0.66363 0.0
C941 C 0.10208 0.08162 0.65719 0.0
N942 N 0.04912 0.10037 0.71706 0.0
C943 C 0.05478 0.07125 0.71128 0.0
C944 C 0.12873 0.66027 0.16217 0.0
C945 C 0.11797 0.68907 0.1521 0.0
C946 C 0.07819 0.67725 0.24267 0.0
C947 C 0.08557 0.6475 0.24306 0.0
N948 N 0.11911 0.61033 0.20387 0.0
N949 N 0.07764 0.72172 0.16921 0.0
C950 C 0.11126 0.6389 0.20254 0.0
C951 C 0.09118 0.69642 0.18805 0.0
N952 N 0.15583 0.65357 0.13503 0.0
N953 N 0.05995 0.68773 0.29795 0.0
H954 H 0.08663 0.73649 0.1302 0.0
H955 H 0.0566 0.72669 0.18775 0.0
H956 H 0.05467 0.67498 0.34568 0.0
H957 H 0.0548 0.70973 0.30333 0.0
H958 H 0.16637 0.63406 0.14712 0.0
H959 H 0.16836 0.66838 0.1033 0.0
H960 H 0.1355 0.60164 0.16923 0.0
H961 H 0.10836 0.59522 0.23907 0.0
C962 C 0.61246 0.86767 0.38436 0.0
C963 C 0.58308 0.85753 0.38072 0.0
C964 C 0.59504 0.82193 0.48287 0.0
C965 C 0.62496 0.82817 0.47812 0.0
N966 N 0.66255 0.85887 0.42648 0.0
N967 N 0.54974 0.81866 0.41739 0.0
C968 C 0.63379 0.85157 0.42875 0.0
C969 C 0.57577 0.83246 0.42573 0.0
N970 N 0.6197 0.89329 0.34909 0.0
N971 N 0.58446 0.8067 0.54422 0.0
H972 H 0.53472 0.82406 0.37441 0.0
H973 H 0.53472 0.82406 0.37441 0.0
H974 H 0.59732 0.80364 0.59313 0.0
H975 H 0.56242 0.80134 0.54987 0.0
H976 H 0.63968 0.90367 0.35656 0.0
H977 H 0.60503 0.90497 0.31512 0.0
H978 H 0.67146 0.87337 0.38647 0.0
H979 H 0.67754 0.84956 0.46467 0.0
C980 C 0.43763 0.34606 0.7625 0.0
C981 C 0.43398 0.3756 0.74337 0.0
C982 C 0.3951 0.3607 0.65081 0.0
C983 C 0.40355 0.33105 0.65906 0.0
N984 N 0.43701 0.29666 0.7169 0.0
N985 N 0.40488 0.41175 0.68064 0.0
C986 C 0.42614 0.32421 0.71301 0.0
C987 C 0.41141 0.38307 0.69022 0.0
N988 N 0.45004 0.33876 0.83138 0.0
N989 N 0.3708 0.36733 0.60869 0.0
H990 H 0.4137 0.42757 0.71717 0.0
H991 H 0.39114 0.41977 0.63772 0.0
H992 H 0.35859 0.35162 0.57964 0.0
H993 H 0.36174 0.38802 0.60553 0.0
H994 H 0.45172 0.31737 0.8511 0.0
H995 H 0.45378 0.35443 0.87369 0.0
H996 H 0.45518 0.2912 0.7501 0.0
H997 H 0.42949 0.27999 0.68156 0.0
C998 C 0.89643 0.16101 0.97999 0.0
C999 C 0.90493 0.19052 0.99164 0.0
C1000 C 0.95091 0.18066 0.92054 0.0
C1001 C 0.94227 0.15131 0.90674 0.0
N1002 N 0.90783 0.11277 0.92864 0.0
N1003 N 0.93944 0.22908 0.96659 0.0
C1004 C 0.91523 0.14136 0.93812 0.0
C1005 C 0.932 0.20033 0.96011 0.0
N1006 N 0.86958 0.15226 1.00534 0.0
N1007 N 0.97835 0.18935 0.90046 0.0
H1008 H 0.92834 0.24355 1.00219 0.0
H1009 H 0.95556 0.23922 0.93374 0.0
H1010 H 0.99346 0.17526 0.87662 0.0
H1011 H 0.98753 0.20935 0.91452 0.0
H1012 H 0.86015 0.13226 0.99254 0.0
H1013 H 0.85599 0.16573 0.03777 0.0
H1014 H 0.89042 0.10261 0.95627 0.0
H1015 H 0.91989 0.09874 0.89365 0.0
C1016 C 0.06923 0.34464 0.94005 0.0
C1017 C 0.07913 0.37224 0.91326 0.0
C1018 C 0.12727 0.36203 0.97345 0.0
C1019 C 0.11795 0.33344 0.99366 0.0
N1020 N 0.08083 0.29641 0.98522 0.0
N1021 N 0.11764 0.40747 0.90358 0.0
C1022 C 0.08904 0.32469 0.97447 0.0
C1023 C 0.10827 0.381 0.92993 0.0
N1024 N 0.04037 0.33757 0.93493 0.0
N1025 N 0.15452 0.37075 0.99538 0.0
H1026 H 0.10424 0.42135 0.87162 0.0
H1027 H 0.13882 0.41522 0.90925 0.0
H1028 H 0.16838 0.35727 0.02714 0.0
H1029 H 0.16293 0.3915 0.98649 0.0
H1030 H 0.03092 0.3201 0.96425 0.0
H1031 H 0.02537 0.35022 0.90521 0.0
H1032 H 0.06205 0.28729 0.96155 0.0
H1033 H 0.09404 0.28148 1.01331 0.0
C1034 C 0.94748 0.84678 0.24021 0.0
C1035 C 0.94118 0.8765 0.23216 0.0
C1036 C 0.9021 0.86247 0.13887 0.0
C1037 C 0.91295 0.83343 0.13671 0.0
N1038 N 0.95207 0.80121 0.17336 0.0
N1039 N 0.90989 0.91295 0.17823 0.0
C1040 C 0.93779 0.82688 0.18315 0.0
C1041 C 0.91775 0.88443 0.18203 0.0
N1042 N 0.96096 0.83714 0.30543 0.0
N1043 N 0.87633 0.86879 0.10331 0.0
H1044 H 0.91875 0.92832 0.21603 0.0
H1045 H 0.89532 0.92123 0.1376 0.0
H1046 H 0.86484 0.85354 0.07073 0.0
H1047 H 0.86558 0.88856 0.10952 0.0
H1048 H 0.96481 0.81517 0.31653 0.0
H1049 H 0.96338 0.85091 0.35283 0.0
H1050 H 0.97083 0.79573 0.20405 0.0
H1051 H 0.94664 0.7871 0.12861 0.0
C1052 C 0.42596 0.69534 0.47288 0.0
C1053 C 0.39619 0.68763 0.47837 0.0
C1054 C 0.40789 0.64198 0.40728 0.0
C1055 C 0.43697 0.65181 0.39447 0.0
N1056 N 0.47177 0.69102 0.4108 0.0
N1057 N 0.35834 0.65321 0.44952 0.0
C1058 C 0.4452 0.67925 0.42549 0.0
C1059 C 0.38705 0.66074 0.445 0.0
N1060 N 0.4363 0.7186 0.51305 0.0
N1061 N 0.40048 0.61439 0.38553 0.0
H1062 H 0.34349 0.66523 0.48224 0.0
H1063 H 0.34916 0.63585 0.41947 0.0
H1064 H 0.41482 0.6009 0.35542 0.0
H1065 H 0.38085 0.60444 0.40028 0.0
H1066 H 0.45809 0.72517 0.51147 0.0
H1067 H 0.42308 0.73012 0.55065 0.0
H1068 H 0.48738 0.68127 0.37571 0.0
H1069 H 0.48738 0.68127 0.37571 0.0
C1070 C 0.59074 0.20283 0.65848 0.0
C1071 C 0.62031 0.19617 0.64178 0.0
C1072 C 0.61555 0.1528 0.72705 0.0
C1073 C 0.58637 0.16033 0.74632 0.0
N1074 N 0.54894 0.19673 0.74201 0.0
N1075 N 0.6597 0.16183 0.65422 0.0
C1076 C 0.57509 0.18676 0.71594 0.0
C1077 C 0.63238 0.1705 0.67509 0.0
N1078 N 0.57641 0.22297 0.61487 0.0
N1079 N 0.62805 0.12856 0.75746 0.0
H1080 H 0.67264 0.17355 0.61534 0.0
H1081 H 0.6692 0.14286 0.67583 0.0
H1082 H 0.61771 0.11516 0.798 0.0
H1083 H 0.61771 0.11516 0.798 0.0
H1084 H 0.58677 0.23615 0.57478 0.0
H1085 H 0.55384 0.22541 0.61545 0.0
H1086 H 0.54131 0.21768 0.73098 0.0
H1087 H 0.53549 0.18442 0.77762 0.0
C1088 C 0.94732 0.35362 1.01544 0.0
C1089 C 0.95588 0.35984 0.9366 0.0
C1090 C 0.91532 0.32812 0.89794 0.0
C1091 C 0.91107 0.31679 0.975 0.0
N1092 N 0.93637 0.3134 0.0996 0.0
N1093 N 0.9545 0.33663 0.80935 0.0
C1094 C 0.93114 0.32763 0.03165 0.0
C1095 C 0.94214 0.34203 0.87959 0.0
N1096 N 0.95345 0.37164 0.07616 0.0
N1097 N 0.89452 0.32714 0.84144 0.0
H1098 H 0.97626 0.34083 0.79765 0.0
H1099 H 0.94452 0.32308 0.76868 0.0
H1100 H 0.87261 0.32283 0.85085 0.0
H1101 H 0.89835 0.33584 0.78638 0.0
H1102 H 0.94557 0.3674 0.13186 0.0
H1103 H 0.96222 0.3923 0.07202 0.0
H1104 H 0.95202 0.32065 0.13901 0.0
H1105 H 0.92938 0.29244 0.11111 0.0
C1106 C 0.43402 0.16059 0.73808 0.0
C1107 C 0.46409 0.16475 0.72299 0.0
C1108 C 0.45197 0.20897 0.64777 0.0
C1109 C 0.42154 0.20445 0.66119 0.0
N1110 N 0.38524 0.16794 0.69019 0.0
N1111 N 0.49917 0.18605 0.63532 0.0
C1112 C 0.41301 0.17808 0.69893 0.0
C1113 C 0.47238 0.18695 0.66968 0.0
N1114 N 0.42517 0.13874 0.78628 0.0
N1115 N 0.46201 0.23414 0.61539 0.0
H1116 H 0.51429 0.1697 0.64652 0.0
H1117 H 0.50508 0.19969 0.58954 0.0
H1118 H 0.44861 0.25037 0.59428 0.0
H1119 H 0.48407 0.23963 0.61423 0.0
H1120 H 0.40393 0.13699 0.80728 0.0
H1121 H 0.43944 0.1232 0.80792 0.0
H1122 H 0.37815 0.14783 0.7109 0.0
H1123 H 0.37076 0.1775 0.65158 0.0
C1124 C 0.59434 0.65669 0.39604 0.0
C1125 C 0.56487 0.66411 0.4119 0.0
C1126 C 0.58168 0.71129 0.46307 0.0
C1127 C 0.61122 0.7029 0.45436 0.0
N1128 N 0.64518 0.66422 0.42768 0.0
N1129 N 0.53266 0.69453 0.48639 0.0
C1130 C 0.61743 0.67471 0.42433 0.0
C1131 C 0.55912 0.69031 0.45278 0.0
N1132 N 0.60046 0.63191 0.3557 0.0
N1133 N 0.57492 0.73959 0.47808 0.0
H1134 H 0.51693 0.67831 0.48689 0.0
H1135 H 0.52803 0.7122 0.5221 0.0
H1136 H 0.59079 0.75578 0.48097 0.0
H1137 H 0.55358 0.74733 0.47845 0.0
H1138 H 0.621 0.62727 0.33324 0.0
H1139 H 0.58459 0.61664 0.34117 0.0
H1140 H 0.65079 0.64289 0.41419 0.0
H1141 H 0.66213 0.67591 0.4525 0.0
C1142 C 0.11198 0.84744 0.14078 0.0
C1143 C 0.1039 0.81805 0.15553 0.0
C1144 C 0.05686 0.83527 0.20724 0.0
C1145 C 0.06576 0.8647 0.19896 0.0
N1146 N 0.10491 0.89831 0.17187 0.0
N1147 N 0.07268 0.78585 0.22797 0.0
C1148 C 0.09412 0.87066 0.16883 0.0
C1149 C 0.07742 0.81246 0.19568 0.0
N1150 N 0.13716 0.85328 0.10135 0.0
N1151 N 0.02849 0.82884 0.22361 0.0
H1152 H 0.08863 0.76991 0.22724 0.0
H1153 H 0.055 0.78116 0.26387 0.0
H1154 H 0.01249 0.84478 0.22824 0.0
H1155 H 0.02046 0.80762 0.22406 0.0
H1156 H 0.14242 0.87379 0.07964 0.0
H1157 H 0.15209 0.83723 0.08606 0.0
H1158 H 0.12636 0.90379 0.15857 0.0
H1159 H 0.09328 0.91537 0.19588 0.0
C1160 C 0.97387 0.68343 0.16138 0.0
C1161 C 0.9622 0.65789 0.19647 0.0
C1162 C 0.91299 0.67347 0.15799 0.0
C1163 C 0.92396 0.70085 0.13278 0.0
N1164 N 0.96568 0.73093 0.10359 0.0
N1165 N 0.92011 0.63034 0.23633 0.0
C1166 C 0.9547 0.70544 0.13174 0.0
C1167 C 0.93161 0.6534 0.19674 0.0
N1168 N 1.00342 0.68635 0.15514 0.0
N1169 N 0.88471 0.6662 0.14199 0.0
H1170 H 0.93301 0.61549 0.26604 0.0
H1171 H 0.89788 0.62756 0.24611 0.0
H1172 H 0.87085 0.67985 0.11078 0.0
H1173 H 0.87603 0.64555 0.15162 0.0
H1174 H 0.01367 0.70221 0.12165 0.0
H1175 H 0.01792 0.67183 0.18089 0.0
H1176 H 0.98694 0.73803 0.11278 0.0
H1177 H 0.95341 0.74499 0.06978 0.0
C1178 C 0.09667 0.16012 0.90407 0.0
C1179 C 0.06687 0.16409 0.92374 0.0
C1180 C 0.08061 0.20703 1.00236 0.0
C1181 C 0.11018 0.2043 0.97798 0.0
N1182 N 0.14724 0.17148 0.93258 0.0
N1183 N 0.0324 0.18578 1.01143 0.0
C1184 C 0.11841 0.17889 0.93615 0.0
C1185 C 0.05943 0.18601 0.97847 0.0
N1186 N 0.10441 0.1377 0.85653 0.0
N1187 N 0.07236 0.22955 0.04863 0.0
H1188 H 0.01643 0.17104 0.9953 0.0
H1189 H 0.02645 0.19846 0.05877 0.0
H1190 H 0.08687 0.24108 0.08276 0.0
H1191 H 0.05084 0.23637 0.05445 0.0
H1192 H 0.12484 0.13594 0.83069 0.0
H1193 H 0.08996 0.12127 0.84061 0.0
H1194 H 0.15487 0.15207 0.90924 0.0
H1195 H 0.16343 0.18316 0.96157 0.0
C1196 C 0.60453 0.34191 0.64817 0.0
C1197 C 0.59385 0.31287 0.65347 0.0
C1198 C 0.54689 0.33177 0.70254 0.0
C1199 C 0.55744 0.36079 0.69744 0.0
N1200 N 0.59567 0.39377 0.65812 0.0
N1201 N 0.55866 0.28065 0.71212 0.0
C1202 C 0.58604 0.36588 0.66777 0.0
C1203 C 0.56603 0.30793 0.68773 0.0
N1204 N 0.6334 0.34645 0.63207 0.0
N1205 N 0.51806 0.32686 0.71782 0.0
H1206 H 0.57304 0.26331 0.70861 0.0
H1207 H 0.54007 0.27604 0.74459 0.0
H1208 H 0.50315 0.34361 0.72683 0.0
H1209 H 0.50833 0.30643 0.71356 0.0
H1210 H 0.6438 0.36652 0.63569 0.0
H1211 H 0.64802 0.32957 0.62193 0.0
H1212 H 0.61402 0.39947 0.626 0.0
H1213 H 0.58445 0.41163 0.67933 0.0
C1214 C 0.40407 0.84293 0.45504 0.0
C1215 C 0.40765 0.81261 0.44323 0.0
C1216 C 0.45395 0.82249 0.37358 0.0
C1217 C 0.45102 0.85292 0.38887 0.0
N1218 N 0.41791 0.89201 0.41829 0.0
N1219 N 0.43694 0.77303 0.39749 0.0
C1220 C 0.42455 0.86304 0.42266 0.0
C1221 C 0.43278 0.80235 0.40364 0.0
N1222 N 0.3814 0.8526 0.4993 0.0
N1223 N 0.47584 0.81274 0.3268 0.0
H1224 H 0.42153 0.758 0.41652 0.0
H1225 H 0.45624 0.76337 0.37934 0.0
H1226 H 0.49082 0.82625 0.29997 0.0
H1227 H 0.47759 0.79147 0.30699 0.0
H1228 H 0.37943 0.87397 0.51845 0.0
H1229 H 0.36578 0.83866 0.52269 0.0
H1230 H 0.39785 0.90062 0.43443 0.0
H1231 H 0.43111 0.90707 0.38951 0.0
C1232 C 0.93983 0.50503 0.14877 0.0
C1233 C 0.94496 0.53348 0.12069 0.0
C1234 C 0.93934 0.51726 0.98701 0.0
C1235 C 0.93954 0.48838 1.01471 0.0
N1236 N 0.9291 0.45455 0.11673 0.0
N1237 N 0.93946 0.56879 0.01915 0.0
C1238 C 0.93533 0.48237 0.09429 0.0
C1239 C 0.94064 0.5403 0.04147 0.0
N1240 N 0.94187 0.49952 0.22637 0.0
N1241 N 0.94056 0.52216 0.909 0.0
H1242 H 0.94057 0.58567 0.05954 0.0
H1243 H 0.93526 0.57561 0.9627 0.0
H1244 H 0.93896 0.5051 0.86928 0.0
H1245 H 0.94357 0.54257 0.88399 0.0
H1246 H 0.94156 0.47875 0.25046 0.0
H1247 H 0.94449 0.51617 0.26678 0.0
H1248 H 0.92461 0.44845 0.17363 0.0
H1249 H 0.92626 0.43797 0.07607 0.0
C1250 C 0.76941 0.68731 0.26282 0.0
C1251 C 0.78842 0.71046 0.28427 0.0
C1252 C 0.7717 0.70456 0.41759 0.0
C1253 C 0.74649 0.69092 0.39039 0.0
N1254 N 0.72238 0.66484 0.28908 0.0
N1255 N 0.79915 0.7465 0.38254 0.0
C1256 C 0.74608 0.68008 0.31384 0.0
C1257 C 0.78832 0.72001 0.3628 0.0
N1258 N 0.77358 0.67236 0.19553 0.0
N1259 N 0.77609 0.70763 0.49519 0.0
H1260 H 0.80147 0.76273 0.34076 0.0
H1261 H 0.79985 0.75396 0.43952 0.0
H1262 H 0.7623 0.69761 0.53543 0.0
H1263 H 0.7947 0.71758 0.51773 0.0
H1264 H 0.76101 0.65436 0.18021 0.0
H1265 H 0.79162 0.67583 0.1599 0.0
H1266 H 0.7191 0.65904 0.23135 0.0
H1267 H 0.70558 0.65923 0.32729 0.0
C1268 C 0.58059 0.5458 0.6146 0.0
C1269 C 0.57872 0.5426 0.53308 0.0
C1270 C 0.57986 0.48985 0.54747 0.0
C1271 C 0.57341 0.49341 0.62715 0.0
N1272 N 0.56944 0.5243 0.73943 0.0
N1273 N 0.58116 0.51244 0.42 0.0
C1274 C 0.57533 0.52116 0.66227 0.0
C1275 C 0.58061 0.51477 0.49891 0.0
N1276 N 0.58616 0.57247 0.64612 0.0
N1277 N 0.58398 0.46251 0.51871 0.0
H1278 H 0.58292 0.53072 0.38416 0.0
H1279 H 0.57916 0.49285 0.39033 0.0
H1280 H 0.58332 0.44414 0.5544 0.0
H1281 H 0.59032 0.45824 0.46193 0.0
H1282 H 0.58977 0.57574 0.70504 0.0
H1283 H 0.5903 0.59084 0.61245 0.0
H1284 H 0.56639 0.54436 0.76614 0.0
H1285 H 0.56624 0.50666 0.77641 0.0
C1286 C 0.7452 0.32451 0.89654 0.0
C1287 C 0.76421 0.30235 0.86857 0.0
C1288 C 0.73987 0.3057 0.74444 0.0
C1289 C 0.71531 0.31771 0.78029 0.0
N1290 N 0.69741 0.34712 0.88537 0.0
N1291 N 0.77109 0.26571 0.76963 0.0
C1292 C 0.71889 0.33024 0.85481 0.0
C1293 C 0.7601 0.29178 0.79221 0.0
N1294 N 0.75252 0.34031 0.96057 0.0
N1295 N 0.74095 0.30329 0.6661 0.0
H1296 H 0.77792 0.25048 0.81043 0.0
H1297 H 0.76819 0.25741 0.71393 0.0
H1298 H 0.72503 0.31327 0.63238 0.0
H1299 H 0.75876 0.29433 0.63708 0.0
H1300 H 0.74032 0.35784 0.9805 0.0
H1301 H 0.77246 0.33784 0.98879 0.0
H1302 H 0.697 0.35364 0.94315 0.0
H1303 H 0.68019 0.35478 0.85167 0.0
C1304 C 0.24203 0.22101 0.73718 0.0
C1305 C 0.24157 0.21122 0.81572 0.0
C1306 C 0.28236 0.17907 0.78555 0.0
C1307 C 0.28278 0.19056 0.7096 0.0
N1308 N 0.25442 0.20899 0.60463 0.0
N1309 N 0.25417 0.17177 0.90301 0.0
C1310 C 0.25823 0.20525 0.68227 0.0
C1311 C 0.2593 0.18702 0.83646 0.0
N1312 N 0.23202 0.24784 0.71756 0.0
N1313 N 0.3052 0.16258 0.8101 0.0
H1314 H 0.23615 0.17574 0.93826 0.0
H1315 H 0.26578 0.15311 0.91785 0.0
H1316 H 0.32182 0.15655 0.77196 0.0
H1317 H 0.30801 0.1562 0.86762 0.0
H1318 H 0.23146 0.25544 0.66063 0.0
H1319 H 0.23053 0.26413 0.75916 0.0
H1320 H 0.23631 0.21963 0.58163 0.0
H1321 H 0.26822 0.19894 0.56465 0.0
C1322 C 0.25748 0.83885 0.38527 0.0
C1323 C 0.28223 0.82761 0.34671 0.0
C1324 C 0.25615 0.82796 0.22342 0.0
C1325 C 0.23017 0.83282 0.26558 0.0
N1326 N 0.20948 0.8602 0.37071 0.0
N1327 N 0.30884 0.82183 0.2278 0.0
C1328 C 0.23191 0.84422 0.3415 0.0
C1329 C 0.28286 0.8261 0.26466 0.0
N1330 N 0.25776 0.84244 0.4637 0.0
N1331 N 0.25461 0.82377 0.14519 0.0
H1332 H 0.32848 0.82092 0.25828 0.0
H1333 H 0.31133 0.82085 0.16795 0.0
H1334 H 0.23513 0.82684 0.11495 0.0
H1335 H 0.27208 0.8176 0.11057 0.0
H1336 H 0.23917 0.84707 0.49605 0.0
H1337 H 0.27661 0.83973 0.49645 0.0
H1338 H 0.21023 0.87035 0.42462 0.0
H1339 H 0.19189 0.86647 0.33626 0.0
C1340 C 0.44853 1.00608 0.53191 0.0
C1341 C 0.47328 0.98823 0.54638 0.0
C1342 C 0.47453 1.00677 0.67823 0.0
C1343 C 0.45736 0.03042 0.65559 0.0
N1344 N 0.42525 0.05215 0.56273 0.0
N1345 N 0.51532 0.98059 0.6292 0.0
C1346 C 0.44282 0.02958 0.58347 0.0
C1347 C 0.48751 0.99023 0.61939 0.0
N1348 N 0.43067 1.00067 0.47041 0.0
N1349 N 0.48235 1.0036 0.75388 0.0
H1350 H 0.52821 0.97416 0.58267 0.0
H1351 H 0.52687 0.98349 0.68069 0.0
H1352 H 0.47383 0.0172 0.79667 0.0
H1353 H 0.49476 0.98603 0.77323 0.0
H1354 H 0.41144 0.01212 0.46076 0.0
H1355 H 0.43349 0.9828 0.43401 0.0
H1356 H 0.41657 0.05454 0.50726 0.0
H1357 H 0.42053 0.06897 0.60137 0.0
C1358 C 0.09574 0.04508 0.11031 0.0
C1359 C 0.08638 0.04388 0.03236 0.0
C1360 C 0.08311 0.9912 0.04251 0.0
C1361 C 0.08098 0.99452 0.12406 0.0
N1362 N 0.08962 0.02403 0.23771 0.0
N1363 N 0.08114 0.01543 0.91698 0.0
C1364 C 0.08957 0.02103 0.15908 0.0
C1365 C 0.08417 0.01655 0.99559 0.0
N1366 N 0.1101 0.06902 0.13707 0.0
N1367 N 0.08271 0.96395 1.01123 0.0
H1368 H 0.08328 0.03412 0.8828 0.0
H1369 H 0.07626 0.99655 0.88635 0.0
H1370 H 0.08211 0.94535 0.04616 0.0
H1371 H 0.08515 0.95973 0.95235 0.0
H1372 H 0.11871 0.07035 0.19283 0.0
H1373 H 0.11658 0.08574 0.09978 0.0
H1374 H 0.09212 0.04406 0.26514 0.0
H1375 H 0.0861 1.00667 0.27536 0.0
C1376 C 0.04649 0.47879 0.55584 0.0
C1377 C 0.04506 0.48851 0.63426 0.0
C1378 C 0.04826 0.53925 0.58357 0.0
C1379 C 0.04557 0.52964 0.50532 0.0
N1380 N 0.03356 0.48888 0.4223 0.0
N1381 N 0.03603 0.52978 0.71796 0.0
C1382 C 0.04235 0.499 0.49294 0.0
C1383 C 0.04363 0.51926 0.64678 0.0
N1384 N 0.05282 0.45038 0.54039 0.0
N1385 N 0.05625 0.56731 0.59847 0.0
H1386 H 0.02987 0.51645 0.76405 0.0
H1387 H 0.03216 0.55179 0.72815 0.0
H1388 H 0.0614 0.58218 0.55482 0.0
H1389 H 0.06103 0.57474 0.6541 0.0
H1390 H 0.05667 0.44276 0.48444 0.0
H1391 H 0.05766 0.43527 0.5836 0.0
H1392 H 0.02836 0.4671 0.41248 0.0
H1393 H 0.0278 0.50247 0.37646 0.0
C1394 C 0.79009 0.7672 0.80252 0.0
C1395 C 0.78738 0.78529 0.86944 0.0
C1396 C 0.74048 0.80335 0.81265 0.0
C1397 C 0.7451 0.78752 0.7426 0.0
N1398 N 0.77898 0.7589 0.66701 0.0
N1399 N 0.76138 0.82473 0.92954 0.0
C1400 C 0.77147 0.7712 0.73623 0.0
C1401 C 0.76284 0.80445 0.87191 0.0
N1402 N 0.80865 0.74412 0.80415 0.0
N1403 N 0.71465 0.81749 0.82298 0.0
H1404 H 0.77755 0.82696 0.97159 0.0
H1405 H 0.74585 0.8412 0.93117 0.0
H1406 H 0.69864 0.81846 0.78015 0.0
H1407 H 0.70829 0.82651 0.87564 0.0
H1408 H 0.8093 0.72823 0.76118 0.0
H1409 H 0.82071 0.73881 0.85286 0.0
H1410 H 0.79945 0.74989 0.65686 0.0
H1411 H 0.76597 0.75969 0.6177 0.0
C1412 C 0.47232 0.54432 0.04421 0.0
C1413 C 0.47528 0.53559 0.12327 0.0
C1414 C 0.47435 0.4842 0.07726 0.0
C1415 C 0.47544 0.49305 0.998 0.0
N1416 N 0.48412 0.53341 0.9104 0.0
N1417 N 0.48803 0.49585 0.20921 0.0
C1418 C 0.4768 0.52366 0.98271 0.0
C1419 C 0.47873 0.50512 0.13816 0.0
N1420 N 0.4642 0.57214 0.02694 0.0
N1421 N 0.46814 0.45594 0.09545 0.0
H1422 H 0.49425 0.51003 0.25321 0.0
H1423 H 0.49328 0.47422 0.22082 0.0
H1424 H 0.46318 0.44033 0.05372 0.0
H1425 H 0.46456 0.44892 0.15218 0.0
H1426 H 0.45927 0.5789 0.97074 0.0
H1427 H 0.45905 0.58743 0.06927 0.0
H1428 H 0.48794 0.5553 0.8981 0.0
H1429 H 0.49009 0.51958 0.86539 0.0
C1430 C 0.77864 0.24872 0.32755 0.0
C1431 C 0.77666 0.23062 0.26048 0.0
C1432 C 0.72939 0.2121 0.31427 0.0
C1433 C 0.73318 0.22812 0.38432 0.0
N1434 N 0.76675 0.25614 0.46283 0.0
N1435 N 0.75194 0.19021 0.20046 0.0
C1436 C 0.75958 0.24434 0.39277 0.0
C1437 C 0.75244 0.21097 0.25701 0.0
N1438 N 0.79688 0.27213 0.32712 0.0
N1439 N 0.70374 0.19773 0.30207 0.0
H1440 H 0.76877 0.18776 0.16036 0.0
H1441 H 0.73657 0.17353 0.19845 0.0
H1442 H 0.68727 0.19661 0.34367 0.0
H1443 H 0.69807 0.18858 0.24897 0.0
H1444 H 0.79702 0.28789 0.37047 0.0
H1445 H 0.80896 0.2779 0.27883 0.0
H1446 H 0.78711 0.26536 0.47385 0.0
H1447 H 0.75383 0.25433 0.51211 0.0
C1448 C 0.26889 0.30679 0.35376 0.0
C1449 C 0.29311 0.28728 0.35175 0.0
C1450 C 0.27804 0.27418 0.21698 0.0
C1451 C 0.25181 0.29084 0.22293 0.0
N1452 N 0.2217 0.32165 0.3022 0.0
N1453 N 0.31639 0.24797 0.28333 0.0
C1454 C 0.24711 0.30663 0.29308 0.0
C1455 C 0.29669 0.27012 0.28338 0.0
N1456 N 0.26725 0.32654 0.41272 0.0
N1457 N 0.28535 0.26152 0.14804 0.0
H1458 H 0.32976 0.24354 0.33013 0.0
H1459 H 0.31743 0.23214 0.24028 0.0
H1460 H 0.27193 0.26131 0.09954 0.0
H1461 H 0.30592 0.25289 0.13713 0.0
H1462 H 0.25206 0.3433 0.41461 0.0
H1463 H 0.28306 0.32805 0.45597 0.0
H1464 H 0.21497 0.33037 0.35491 0.0
H1465 H 0.20642 0.32404 0.25796 0.0
C1466 C 0.24972 0.71308 0.74141 0.0
C1467 C 0.27365 0.73307 0.74368 0.0
C1468 C 0.25714 0.74732 0.876 0.0
C1469 C 0.23133 0.73004 0.86957 0.0
N1470 N 0.20197 0.69847 0.79041 0.0
N1471 N 0.29498 0.7743 0.8094 0.0
C1472 C 0.22731 0.71363 0.80033 0.0
C1473 C 0.27612 0.75131 0.81038 0.0
N1474 N 0.24897 0.69257 0.68421 0.0
N1475 N 0.2637 0.7605 0.94477 0.0
H1476 H 0.30841 0.779 0.76267 0.0
H1477 H 0.29516 0.79051 0.85153 0.0
H1478 H 0.25002 0.76017 0.99286 0.0
H1479 H 0.28391 0.77 0.95595 0.0
H1480 H 0.23394 0.67559 0.68274 0.0
H1481 H 0.26531 0.69072 0.64244 0.0
H1482 H 0.19596 0.68894 0.73807 0.0
H1483 H 0.18595 0.69708 0.83318 0.0
C1484 C 0.54895 0.01878 0.15469 0.0
C1485 C 0.54842 0.98818 0.13814 0.0
C1486 C 0.54203 1.00191 0.99981 0.0
C1487 C 0.54792 0.03211 1.0144 0.0
N1488 N 0.56373 0.06688 0.11069 0.0
N1489 N 0.55279 0.95222 0.03688 0.0
C1490 C 0.55337 0.03982 0.09331 0.0
C1491 C 0.5475 0.98028 0.05834 0.0
N1492 N 0.54348 0.02834 0.22813 0.0
N1493 N 0.52924 0.99352 0.93199 0.0
H1494 H 0.55915 0.93619 0.07615 0.0
H1495 H 0.55452 0.94594 0.97899 0.0
H1496 H 0.52126 1.00819 0.89127 0.0
H1497 H 0.52261 0.97215 0.92177 0.0
H1498 H 0.54115 0.05032 0.2415 0.0
H1499 H 0.5374 0.01454 0.27329 0.0
H1500 H 0.57035 0.07267 0.16637 0.0
H1501 H 0.56901 0.08226 0.06853 0.0
C1502 C 0.97564 0.04634 0.5438 0.0
C1503 C 0.97917 0.03729 0.62246 0.0
C1504 C 0.97833 0.98613 0.57445 0.0
C1505 C 0.97905 0.99527 0.49541 0.0
N1506 N 0.98713 0.03626 0.40931 0.0
N1507 N 0.99357 0.99719 0.70536 0.0
C1508 C 0.98009 0.02602 0.48132 0.0
C1509 C 0.98317 1.00677 0.63574 0.0
N1510 N 0.96708 0.07412 0.52779 0.0
N1511 N 0.97208 0.95784 0.59219 0.0
H1512 H 1.00066 0.01124 0.7487 0.0
H1513 H 0.99901 0.97551 0.71562 0.0
H1514 H 0.96653 0.94249 0.55032 0.0
H1515 H 0.96896 0.95066 0.64898 0.0
H1516 H 0.96178 0.08107 0.47199 0.0
H1517 H 0.96195 0.08914 0.57083 0.0
H1518 H 0.99067 0.05827 0.3979 0.0
H1519 H 0.99324 0.02279 0.36367 0.0
loop_
_geom_bond_atom_site_label_1
_geom_bond_atom_site_label_2
_geom_bond_distance
_geom_bond_site_symmetry_2
_ccdc_geom_bond_type
Co0 O2 2.143 . S
Co0 O8 2.074 . S
Co0 O11 2.093 1_455 S
Co0 O24 2.097 1_455 S
Co0 N41 2.151 . S
Co0 N49 2.214 . S
Co1 O2 2.160 1_655 S
Co1 O7 2.058 1_655 S
Co1 O17 2.057 1_655 S
Co1 O32 2.037 . S
Co1 N36 2.145 . S
Co1 N57 2.257 . S
O2 Co0 2.143 . S
O2 Co1 2.160 1_455 S
C3 O4 1.278 . S
C3 O11 1.224 . S
O4 C3 1.278 . S
C5 O6 1.245 . S
C5 O17 1.232 . S
O6 C5 1.245 . S
O7 Co1 2.058 1_455 S
O7 C33 1.269 . S
O8 Co0 2.074 . S
O8 C33 1.257 . S
H9 C34 0.930 . S
H10 C40 0.930 . S
O11 Co0 2.093 1_655 S
O11 C3 1.224 . S
H12 C44 0.929 . S
H13 C46 0.930 . S
H14 C47 0.930 . S
H15 C45 0.929 . S
H16 C48 0.928 . S
O17 Co1 2.057 1_455 S
O17 C5 1.232 . S
H18 C37 0.929 . S
H19 C38 0.929 . S
H20 C50 0.931 . S
H21 C42 0.929 . S
H22 C51 0.930 . S
H23 C43 0.931 . S
O24 Co0 2.097 1_655 S
O24 C52 1.214 . S
H25 C53 0.929 . S
H26 C54 0.929 . S
H27 C55 0.930 . S
H28 C56 0.929 . S
H29 C58 0.930 . S
H30 C35 0.930 . S
H31 C39 0.930 . S
O32 Co1 2.037 . S
O32 C52 1.234 . S
C33 O7 1.269 . S
C33 O8 1.257 . S
C34 H9 0.930 . S
C34 C37 1.388 . S
C34 C39 1.418 . S
C35 H30 0.930 . S
C35 C38 1.404 . S
C35 C39 1.353 . S
N36 Co1 2.145 . S
N36 C37 1.397 . S
N36 C38 1.334 . S
C37 H18 0.929 . S
C37 C34 1.388 . S
C37 N36 1.397 . S
C38 H19 0.929 . S
C38 C35 1.404 . S
C38 N36 1.334 . S
C39 H31 0.930 . S
C39 C34 1.418 . S
C39 C35 1.353 . S
C40 H10 0.930 . S
C40 N41 1.330 . S
C40 C42 1.446 . S
N41 Co0 2.151 . S
N41 C40 1.330 . S
N41 C45 1.418 . S
C42 H21 0.929 . S
C42 C40 1.446 . S
C42 C43 1.332 . S
C43 H23 0.931 . S
C43 C42 1.332 . S
C43 C44 1.267 . S
C44 H12 0.929 . S
C44 C43 1.267 . S
C44 C45 1.251 . S
C45 H15 0.929 . S
C45 N41 1.418 . S
C45 C44 1.251 . S
C46 H13 0.930 . S
C46 C48 1.406 . S
C46 C51 1.261 . S
C47 H14 0.930 . S
C47 N49 1.325 . S
C47 C50 1.357 1_554 S
C48 H16 0.928 . S
C48 C46 1.406 . S
C48 N49 1.261 1_556 S
N49 Co0 2.214 . S
N49 C47 1.325 . S
N49 C48 1.261 1_554 S
C50 H20 0.931 . S
C50 C47 1.357 1_556 S
C50 C51 1.312 . S
C51 H22 0.930 . S
C51 C46 1.261 . S
C51 C50 1.312 . S
C52 O24 1.214 . S
C52 O32 1.234 . S
C53 H25 0.929 . S
C53 C56 1.391 . S
C53 C58 1.391 . S
C54 H26 0.929 . S
C54 C55 1.390 . S
C54 N57 1.391 . S
C55 H27 0.930 . S
C55 C54 1.390 . S
C55 C56 1.392 . S
C56 H28 0.929 . S
C56 C53 1.391 . S
C56 C55 1.392 . S
N57 Co1 2.257 . S
N57 C54 1.391 . S
N57 C58 1.388 . S
C58 H29 0.930 . S
C58 C53 1.391 . S
C58 N57 1.388 . S
Co59 O61 2.143 . S
Co59 O67 2.074 . S
Co59 O70 2.093 . S
Co59 O83 2.097 . S
Co59 N100 2.151 . S
Co59 N108 2.214 . S
Co60 O61 2.160 . S
Co60 O66 2.058 . S
Co60 O76 2.057 . S
Co60 O91 2.037 . S
Co60 N95 2.145 . S
Co60 N116 2.257 . S
O61 Co59 2.143 . S
O61 Co60 2.160 . S
C62 O63 1.278 . S
C62 O70 1.224 . S
O63 C62 1.278 . S
C64 O65 1.245 . S
C64 O76 1.232 . S
O65 C64 1.245 . S
O66 Co60 2.058 . S
O66 C92 1.269 . S
O67 Co59 2.074 . S
O67 C92 1.257 . S
H68 C93 0.930 . S
H69 C99 0.930 . S
O70 Co59 2.093 . S
O70 C62 1.224 . S
H71 C103 0.929 . S
H72 C105 0.930 . S
H73 C106 0.930 . S
H74 C104 0.929 . S
H75 C107 0.928 . S
O76 Co60 2.057 . S
O76 C64 1.232 . S
H77 C96 0.929 . S
H78 C97 0.929 . S
H79 C109 0.931 . S
H80 C101 0.929 . S
H81 C110 0.930 . S
H82 C102 0.931 . S
O83 Co59 2.097 . S
O83 C111 1.214 . S
H84 C112 0.929 . S
H85 C113 0.929 . S
H86 C114 0.930 . S
H87 C115 0.929 . S
H88 C117 0.930 . S
H89 C94 0.930 . S
H90 C98 0.930 . S
O91 Co60 2.037 . S
O91 C111 1.234 . S
C92 O66 1.269 . S
C92 O67 1.257 . S
C93 H68 0.930 . S
C93 C96 1.388 . S
C93 C98 1.418 . S
C94 H89 0.930 . S
C94 C97 1.404 . S
C94 C98 1.353 . S
N95 Co60 2.145 . S
N95 C96 1.397 . S
N95 C97 1.334 . S
C96 H77 0.929 . S
C96 C93 1.388 . S
C96 N95 1.397 . S
C97 H78 0.929 . S
C97 C94 1.404 . S
C97 N95 1.334 . S
C98 H90 0.930 . S
C98 C93 1.418 . S
C98 C94 1.353 . S
C99 H69 0.930 . S
C99 N100 1.330 . S
C99 C101 1.446 . S
N100 Co59 2.151 . S
N100 C99 1.330 . S
N100 C104 1.418 . S
C101 H80 0.929 . S
C101 C99 1.446 . S
C101 C102 1.332 . S
C102 H82 0.931 . S
C102 C101 1.332 . S
C102 C103 1.267 . S
C103 H71 0.929 . S
C103 C102 1.267 . S
C103 C104 1.251 . S
C104 H74 0.929 . S
C104 N100 1.418 . S
C104 C103 1.251 . S
C105 H72 0.930 . S
C105 C107 1.406 . S
C105 C110 1.261 . S
C106 H73 0.930 . S
C106 N108 1.325 . S
C106 C109 1.357 . S
C107 H75 0.928 . S
C107 C105 1.406 . S
C107 N108 1.261 . S
N108 Co59 2.214 . S
N108 C106 1.325 . S
N108 C107 1.261 . S
C109 H79 0.931 . S
C109 C106 1.357 . S
C109 C110 1.312 . S
C110 H81 0.930 . S
C110 C105 1.261 . S
C110 C109 1.312 . S
C111 O83 1.214 . S
C111 O91 1.234 . S
C112 H84 0.929 . S
C112 C115 1.391 . S
C112 C117 1.391 . S
C113 H85 0.929 . S
C113 C114 1.390 . S
C113 N116 1.391 . S
C114 H86 0.930 . S
C114 C113 1.390 . S
C114 C115 1.392 . S
C115 H87 0.929 . S
C115 C112 1.391 . S
C115 C114 1.392 . S
N116 Co60 2.257 . S
N116 C113 1.391 . S
N116 C117 1.388 . S
C117 H88 0.930 . S
C117 C112 1.391 . S
C117 N116 1.388 . S
Co118 O120 2.143 . S
Co118 O126 2.074 . S
Co118 O129 2.093 . S
Co118 O142 2.097 . S
Co118 N159 2.151 . S
Co118 N167 2.214 . S
Co119 O120 2.160 . S
Co119 O125 2.058 . S
Co119 O135 2.057 . S
Co119 O150 2.037 . S
Co119 N154 2.145 . S
Co119 N175 2.257 . S
O120 Co118 2.143 . S
O120 Co119 2.160 . S
C121 O122 1.278 . S
C121 O129 1.224 . S
O122 C121 1.278 . S
C123 O124 1.245 . S
C123 O135 1.232 . S
O124 C123 1.245 . S
O125 Co119 2.058 . S
O125 C151 1.269 . S
O126 Co118 2.074 . S
O126 C151 1.257 . S
H127 C152 0.930 . S
H128 C158 0.930 . S
O129 Co118 2.093 . S
O129 C121 1.224 . S
H130 C162 0.929 . S
H131 C164 0.930 . S
H132 C165 0.930 . S
H133 C163 0.929 . S
H134 C166 0.928 . S
O135 Co119 2.057 . S
O135 C123 1.232 . S
H136 C155 0.929 . S
H137 C156 0.929 1_554 S
H138 C168 0.931 . S
H139 C160 0.929 . S
H140 C169 0.930 . S
H141 C161 0.931 . S
O142 Co118 2.097 . S
O142 C170 1.214 . S
H143 C171 0.929 . S
H144 C172 0.929 . S
H145 C173 0.930 . S
H146 C174 0.929 . S
H147 C176 0.930 . S
H148 C153 0.930 . S
H149 C157 0.930 . S
O150 Co119 2.037 . S
O150 C170 1.234 . S
C151 O125 1.269 . S
C151 O126 1.257 . S
C152 H127 0.930 . S
C152 C155 1.388 . S
C152 C157 1.418 1_556 S
C153 H148 0.930 . S
C153 C156 1.403 1_554 S
C153 C157 1.353 . S
N154 Co119 2.145 . S
N154 C155 1.397 . S
N154 C156 1.334 . S
C155 H136 0.929 . S
C155 C152 1.388 . S
C155 N154 1.397 . S
C156 H137 0.929 1_556 S
C156 C153 1.403 1_556 S
C156 N154 1.334 . S
C157 H149 0.930 . S
C157 C152 1.418 1_554 S
C157 C153 1.353 . S
C158 H128 0.930 . S
C158 N159 1.330 . S
C158 C160 1.446 . S
N159 Co118 2.151 . S
N159 C158 1.330 . S
N159 C163 1.418 . S
C160 H139 0.929 . S
C160 C158 1.446 . S
C160 C161 1.332 . S
C161 H141 0.931 . S
C161 C160 1.332 . S
C161 C162 1.267 . S
C162 H130 0.929 . S
C162 C161 1.267 . S
C162 C163 1.251 . S
C163 H133 0.929 . S
C163 N159 1.418 . S
C163 C162 1.251 . S
C164 H131 0.930 . S
C164 C166 1.406 . S
C164 C169 1.261 . S
C165 H132 0.930 . S
C165 N167 1.325 . S
C165 C168 1.357 . S
C166 H134 0.928 . S
C166 C164 1.406 . S
C166 N167 1.261 . S
N167 Co118 2.214 . S
N167 C165 1.325 . S
N167 C166 1.261 . S
C168 H138 0.931 . S
C168 C165 1.357 . S
C168 C169 1.312 . S
C169 H140 0.930 . S
C169 C164 1.261 . S
C169 C168 1.312 . S
C170 O142 1.214 . S
C170 O150 1.234 . S
C171 H143 0.929 . S
C171 C174 1.391 . S
C171 C176 1.391 . S
C172 H144 0.929 . S
C172 C173 1.390 . S
C172 N175 1.391 . S
C173 H145 0.930 . S
C173 C172 1.390 . S
C173 C174 1.392 . S
C174 H146 0.929 . S
C174 C171 1.391 . S
C174 C173 1.392 . S
N175 Co119 2.257 . S
N175 C172 1.391 . S
N175 C176 1.388 . S
C176 H147 0.930 . S
C176 C171 1.391 . S
C176 N175 1.388 . S
Co177 O179 2.143 1_556 S
Co177 O185 2.074 . S
Co177 O188 2.093 . S
Co177 O201 2.097 . S
Co177 N218 2.151 . S
Co177 N226 2.214 . S
Co178 O179 2.160 . S
Co178 O184 2.058 . S
Co178 O194 2.057 . S
Co178 O209 2.037 . S
Co178 N213 2.145 . S
Co178 N234 2.257 . S
O179 Co177 2.143 1_554 S
O179 Co178 2.160 . S
C180 O181 1.278 . S
C180 O188 1.224 . S
O181 C180 1.278 . S
C182 O183 1.245 . S
C182 O194 1.232 . S
O183 C182 1.245 . S
O184 Co178 2.058 . S
O184 C210 1.269 . S
O185 Co177 2.074 . S
O185 C210 1.257 1_556 S
H186 C211 0.930 . S
H187 C217 0.930 . S
O188 Co177 2.093 . S
O188 C180 1.224 . S
H189 C221 0.929 . S
H190 C223 0.930 . S
H191 C224 0.930 . S
H192 C222 0.929 . S
H193 C225 0.928 . S
O194 Co178 2.057 . S
O194 C182 1.232 . S
H195 C214 0.929 . S
H196 C215 0.929 . S
H197 C227 0.931 . S
H198 C219 0.929 . S
H199 C228 0.930 . S
H200 C220 0.931 . S
O201 Co177 2.097 . S
O201 C229 1.214 . S
H202 C230 0.929 . S
H203 C231 0.929 . S
H204 C232 0.930 . S
H205 C233 0.929 . S
H206 C235 0.930 . S
H207 C212 0.930 . S
H208 C216 0.930 . S
O209 Co178 2.037 . S
O209 C229 1.234 1_554 S
C210 O184 1.269 . S
C210 O185 1.257 1_554 S
C211 H186 0.930 . S
C211 C214 1.388 . S
C211 C216 1.418 . S
C212 H207 0.930 . S
C212 C215 1.404 . S
C212 C216 1.353 . S
N213 Co178 2.145 . S
N213 C214 1.397 . S
N213 C215 1.334 . S
C214 H195 0.929 . S
C214 C211 1.388 . S
C214 N213 1.397 . S
C215 H196 0.929 . S
C215 C212 1.404 . S
C215 N213 1.334 . S
C216 H208 0.930 . S
C216 C211 1.418 . S
C216 C212 1.353 . S
C217 H187 0.930 . S
C217 N218 1.330 . S
C217 C219 1.446 . S
N218 Co177 2.151 . S
N218 C217 1.330 . S
N218 C222 1.418 . S
C219 H198 0.929 . S
C219 C217 1.446 . S
C219 C220 1.332 . S
C220 H200 0.931 . S
C220 C219 1.332 . S
C220 C221 1.267 . S
C221 H189 0.929 . S
C221 C220 1.267 . S
C221 C222 1.251 . S
C222 H192 0.929 . S
C222 N218 1.418 . S
C222 C221 1.251 . S
C223 H190 0.930 . S
C223 C225 1.406 . S
C223 C228 1.261 . S
C224 H191 0.930 . S
C224 N226 1.325 . S
C224 C227 1.357 . S
C225 H193 0.928 . S
C225 C223 1.406 . S
C225 N226 1.261 . S
N226 Co177 2.214 . S
N226 C224 1.325 . S
N226 C225 1.261 . S
C227 H197 0.931 . S
C227 C224 1.357 . S
C227 C228 1.312 . S
C228 H199 0.930 . S
C228 C223 1.261 . S
C228 C227 1.312 . S
C229 O201 1.214 . S
C229 O209 1.234 1_556 S
C230 H202 0.929 . S
C230 C233 1.391 . S
C230 C235 1.391 . S
C231 H203 0.929 . S
C231 C232 1.390 . S
C231 N234 1.391 . S
C232 H204 0.930 . S
C232 C231 1.390 . S
C232 C233 1.392 . S
C233 H205 0.929 . S
C233 C230 1.391 . S
C233 C232 1.392 . S
N234 Co178 2.257 . S
N234 C231 1.391 . S
N234 C235 1.388 . S
C235 H206 0.930 . S
C235 C230 1.391 . S
C235 N234 1.388 . S
Co236 O238 2.143 . S
Co236 O244 2.074 . S
Co236 O247 2.093 1_455 S
Co236 O260 2.097 1_455 S
Co236 N277 2.151 . S
Co236 N285 2.214 1_556 S
Co237 O238 2.160 1_655 S
Co237 O243 2.058 1_655 S
Co237 O253 2.057 1_655 S
Co237 O268 2.037 . S
Co237 N272 2.145 . S
Co237 N293 2.257 . S
O238 Co236 2.143 . S
O238 Co237 2.160 1_455 S
C239 O240 1.278 . S
C239 O247 1.224 . S
O240 C239 1.278 . S
C241 O242 1.245 . S
C241 O253 1.232 . S
O242 C241 1.245 . S
O243 Co237 2.058 1_455 S
O243 C269 1.269 . S
O244 Co236 2.074 . S
O244 C269 1.257 . S
H245 C270 0.930 . S
H246 C276 0.930 . S
O247 Co236 2.093 1_655 S
O247 C239 1.224 . S
H248 C280 0.929 . S
H249 C282 0.930 . S
H250 C283 0.930 . S
H251 C281 0.929 . S
H252 C284 0.928 . S
O253 Co237 2.057 1_455 S
O253 C241 1.232 . S
H254 C273 0.929 . S
H255 C274 0.929 . S
H256 C286 0.931 . S
H257 C278 0.929 . S
H258 C287 0.930 . S
H259 C279 0.931 . S
O260 Co236 2.097 1_655 S
O260 C288 1.214 . S
H261 C289 0.929 . S
H262 C290 0.929 . S
H263 C291 0.930 . S
H264 C292 0.929 . S
H265 C294 0.930 . S
H266 C271 0.930 . S
H267 C275 0.930 . S
O268 Co237 2.037 . S
O268 C288 1.234 . S
C269 O243 1.269 . S
C269 O244 1.257 . S
C270 H245 0.930 . S
C270 C273 1.388 . S
C270 C275 1.418 . S
C271 H266 0.930 . S
C271 C274 1.404 . S
C271 C275 1.353 . S
N272 Co237 2.145 . S
N272 C273 1.397 . S
N272 C274 1.334 . S
C273 H254 0.929 . S
C273 C270 1.388 . S
C273 N272 1.397 . S
C274 H255 0.929 . S
C274 C271 1.404 . S
C274 N272 1.334 . S
C275 H267 0.930 . S
C275 C270 1.418 . S
C275 C271 1.353 . S
C276 H246 0.930 . S
C276 N277 1.330 . S
C276 C278 1.446 . S
N277 Co236 2.151 . S
N277 C276 1.330 . S
N277 C281 1.418 . S
C278 H257 0.929 . S
C278 C276 1.446 . S
C278 C279 1.332 . S
C279 H259 0.931 . S
C279 C278 1.332 . S
C279 C280 1.267 . S
C280 H248 0.929 . S
C280 C279 1.267 . S
C280 C281 1.251 . S
C281 H251 0.929 . S
C281 N277 1.418 . S
C281 C280 1.251 . S
C282 H249 0.930 . S
C282 C284 1.406 . S
C282 C287 1.261 . S
C283 H250 0.930 . S
C283 N285 1.325 . S
C283 C286 1.357 . S
C284 H252 0.928 . S
C284 C282 1.406 . S
C284 N285 1.261 . S
N285 Co236 2.214 1_554 S
N285 C283 1.325 . S
N285 C284 1.261 . S
C286 H256 0.931 . S
C286 C283 1.357 . S
C286 C287 1.312 . S
C287 H258 0.930 . S
C287 C282 1.261 . S
C287 C286 1.312 . S
C288 O260 1.214 . S
C288 O268 1.234 . S
C289 H261 0.929 . S
C289 C292 1.391 . S
C289 C294 1.391 . S
C290 H262 0.929 . S
C290 C291 1.390 . S
C290 N293 1.391 . S
C291 H263 0.930 . S
C291 C290 1.390 . S
C291 C292 1.392 . S
C292 H264 0.929 . S
C292 C289 1.391 . S
C292 C291 1.392 . S
N293 Co237 2.257 . S
N293 C290 1.391 . S
N293 C294 1.388 . S
C294 H265 0.930 . S
C294 C289 1.391 . S
C294 N293 1.388 . S
Co295 O297 2.143 . S
Co295 O303 2.074 . S
Co295 O306 2.093 . S
Co295 O319 2.097 . S
Co295 N336 2.151 . S
Co295 N344 2.214 . S
Co296 O297 2.150 1_556 S
Co296 O302 2.057 1_556 S
Co296 O312 2.068 . S
Co296 O327 2.027 1_556 S
Co296 N331 2.155 . S
Co296 N352 2.258 . S
O297 Co295 2.143 . S
O297 Co296 2.150 1_554 S
C298 O299 1.278 . S
C298 O306 1.224 . S
O299 C298 1.278 . S
C300 O301 1.245 . S
C300 O312 1.232 . S
O301 C300 1.245 . S
O302 Co296 2.057 1_554 S
O302 C328 1.269 . S
O303 Co295 2.074 . S
O303 C328 1.257 . S
H304 C329 0.930 . S
H305 C335 0.930 . S
O306 Co295 2.093 . S
O306 C298 1.224 . S
H307 C339 0.929 . S
H308 C341 0.930 . S
H309 C342 0.930 . S
H310 C340 0.929 . S
H311 C343 0.928 . S
O312 Co296 2.068 . S
O312 C300 1.232 . S
H313 C332 0.929 . S
H314 C333 0.929 . S
H315 C345 0.931 . S
H316 C337 0.929 . S
H317 C346 0.930 . S
H318 C338 0.931 . S
O319 Co295 2.097 . S
O319 C347 1.214 . S
H320 C348 0.929 . S
H321 C349 0.930 . S
H322 C350 0.930 1_554 S
H323 C351 0.929 . S
H324 C353 0.930 . S
H325 C330 0.930 . S
H326 C334 0.930 . S
O327 Co296 2.027 1_554 S
O327 C347 1.234 . S
C328 O302 1.269 . S
C328 O303 1.257 . S
C329 H304 0.930 . S
C329 C332 1.388 . S
C329 C334 1.418 . S
C330 H325 0.930 . S
C330 C333 1.404 . S
C330 C334 1.353 . S
N331 Co296 2.155 . S
N331 C332 1.397 . S
N331 C333 1.334 . S
C332 H313 0.929 . S
C332 C329 1.388 . S
C332 N331 1.397 . S
C333 H314 0.929 . S
C333 C330 1.404 . S
C333 N331 1.334 . S
C334 H326 0.930 . S
C334 C329 1.418 . S
C334 C330 1.353 . S
C335 H305 0.930 . S
C335 N336 1.330 . S
C335 C337 1.446 . S
N336 Co295 2.151 . S
N336 C335 1.330 . S
N336 C340 1.418 . S
C337 H316 0.929 . S
C337 C335 1.446 . S
C337 C338 1.332 . S
C338 H318 0.931 . S
C338 C337 1.332 . S
C338 C339 1.267 . S
C339 H307 0.929 . S
C339 C338 1.267 . S
C339 C340 1.251 . S
C340 H310 0.929 . S
C340 N336 1.418 . S
C340 C339 1.251 . S
C341 H308 0.930 . S
C341 C343 1.406 . S
C341 C346 1.261 . S
C342 H309 0.930 . S
C342 N344 1.325 . S
C342 C345 1.357 . S
C343 H311 0.928 . S
C343 C341 1.406 . S
C343 N344 1.261 . S
N344 Co295 2.214 . S
N344 C342 1.325 . S
N344 C343 1.261 . S
C345 H315 0.931 . S
C345 C342 1.357 . S
C345 C346 1.312 . S
C346 H317 0.930 . S
C346 C341 1.261 . S
C346 C345 1.312 . S
C347 O319 1.214 . S
C347 O327 1.234 . S
C348 H320 0.929 . S
C348 C351 1.391 . S
C348 C353 1.391 . S
C349 H321 0.930 . S
C349 C350 1.390 . S
C349 N352 1.391 . S
C350 H322 0.930 1_556 S
C350 C349 1.390 . S
C350 C351 1.392 . S
C351 H323 0.929 . S
C351 C348 1.391 . S
C351 C350 1.392 . S
N352 Co296 2.258 . S
N352 C349 1.391 . S
N352 C353 1.388 . S
C353 H324 0.930 . S
C353 C348 1.391 . S
C353 N352 1.388 . S
Co354 O356 2.143 . S
Co354 O362 2.074 . S
Co354 O365 2.093 . S
Co354 O378 2.097 . S
Co354 N395 2.151 . S
Co354 N403 2.214 . S
Co355 O356 2.160 . S
Co355 O361 2.058 . S
Co355 O371 2.057 . S
Co355 O386 2.037 . S
Co355 N390 2.145 . S
Co355 N411 2.257 . S
O356 Co354 2.143 . S
O356 Co355 2.160 . S
C357 O358 1.278 . S
C357 O365 1.224 . S
O358 C357 1.278 . S
C359 O360 1.245 . S
C359 O371 1.232 . S
O360 C359 1.245 . S
O361 Co355 2.058 . S
O361 C387 1.269 . S
O362 Co354 2.074 . S
O362 C387 1.257 . S
H363 C388 0.930 . S
H364 C394 0.930 . S
O365 Co354 2.093 . S
O365 C357 1.224 . S
H366 C398 0.929 . S
H367 C400 0.930 . S
H368 C401 0.930 . S
H369 C399 0.929 . S
H370 C402 0.928 . S
O371 Co355 2.057 . S
O371 C359 1.232 . S
H372 C391 0.929 . S
H373 C392 0.929 . S
H374 C404 0.931 . S
H375 C396 0.929 . S
H376 C405 0.930 . S
H377 C397 0.931 . S
O378 Co354 2.097 . S
O378 C406 1.214 . S
H379 C407 0.929 . S
H380 C408 0.929 . S
H381 C409 0.930 . S
H382 C410 0.929 . S
H383 C412 0.930 . S
H384 C389 0.930 1_556 S
H385 C393 0.930 . S
O386 Co355 2.037 . S
O386 C406 1.234 . S
C387 O361 1.269 . S
C387 O362 1.257 . S
C388 H363 0.930 . S
C388 C391 1.388 . S
C388 C393 1.418 . S
C389 H384 0.930 1_554 S
C389 C392 1.404 . S
C389 C393 1.353 . S
N390 Co355 2.145 . S
N390 C391 1.397 . S
N390 C392 1.334 . S
C391 H372 0.929 . S
C391 C388 1.388 . S
C391 N390 1.397 . S
C392 H373 0.929 . S
C392 C389 1.404 . S
C392 N390 1.334 . S
C393 H385 0.930 . S
C393 C388 1.418 . S
C393 C389 1.353 . S
C394 H364 0.930 . S
C394 N395 1.330 . S
C394 C396 1.446 . S
N395 Co354 2.151 . S
N395 C394 1.330 . S
N395 C399 1.418 . S
C396 H375 0.929 . S
C396 C394 1.446 . S
C396 C397 1.332 . S
C397 H377 0.931 . S
C397 C396 1.332 . S
C397 C398 1.267 . S
C398 H366 0.929 . S
C398 C397 1.267 . S
C398 C399 1.251 . S
C399 H369 0.929 . S
C399 N395 1.418 . S
C399 C398 1.251 . S
C400 H367 0.930 . S
C400 C402 1.406 . S
C400 C405 1.261 . S
C401 H368 0.930 . S
C401 N403 1.325 . S
C401 C404 1.357 . S
C402 H370 0.928 . S
C402 C400 1.406 . S
C402 N403 1.261 . S
N403 Co354 2.214 . S
N403 C401 1.325 . S
N403 C402 1.261 . S
C404 H374 0.931 . S
C404 C401 1.357 . S
C404 C405 1.312 . S
C405 H376 0.930 . S
C405 C400 1.261 . S
C405 C404 1.312 . S
C406 O378 1.214 . S
C406 O386 1.234 . S
C407 H379 0.929 . S
C407 C410 1.391 . S
C407 C412 1.391 . S
C408 H380 0.929 . S
C408 C409 1.390 . S
C408 N411 1.391 . S
C409 H381 0.930 . S
C409 C408 1.390 . S
C409 C410 1.392 . S
C410 H382 0.929 . S
C410 C407 1.391 . S
C410 C409 1.392 . S
N411 Co355 2.257 . S
N411 C408 1.391 . S
N411 C412 1.388 . S
C412 H383 0.930 . S
C412 C407 1.391 . S
C412 N411 1.388 . S
Co413 O415 2.143 . S
Co413 O421 2.074 . S
Co413 O424 2.093 . S
Co413 O437 2.097 . S
Co413 N454 2.151 . S
Co413 N462 2.214 . S
Co414 O415 2.160 . S
Co414 O420 2.058 . S
Co414 O430 2.057 . S
Co414 O445 2.037 . S
Co414 N449 2.145 . S
Co414 N470 2.257 . S
O415 Co413 2.143 . S
O415 Co414 2.160 . S
C416 O417 1.278 . S
C416 O424 1.224 . S
O417 C416 1.278 . S
C418 O419 1.245 . S
C418 O430 1.232 . S
O419 C418 1.245 . S
O420 Co414 2.058 . S
O420 C446 1.269 . S
O421 Co413 2.074 . S
O421 C446 1.257 . S
H422 C447 0.930 . S
H423 C453 0.930 . S
O424 Co413 2.093 . S
O424 C416 1.224 . S
H425 C457 0.929 . S
H426 C459 0.930 . S
H427 C460 0.930 . S
H428 C458 0.929 . S
H429 C461 0.928 . S
O430 Co414 2.057 . S
O430 C418 1.232 . S
H431 C450 0.929 . S
H432 C451 0.929 . S
H433 C463 0.931 . S
H434 C455 0.929 . S
H435 C464 0.930 . S
H436 C456 0.931 . S
O437 Co413 2.097 . S
O437 C465 1.214 . S
H438 C466 0.929 . S
H439 C467 0.929 . S
H440 C468 0.930 . S
H441 C469 0.929 . S
H442 C471 0.930 . S
H443 C448 0.930 . S
H444 C452 0.930 . S
O445 Co414 2.037 . S
O445 C465 1.234 . S
C446 O420 1.269 . S
C446 O421 1.257 . S
C447 H422 0.930 . S
C447 C450 1.388 . S
C447 C452 1.418 . S
C448 H443 0.930 . S
C448 C451 1.404 . S
C448 C452 1.353 . S
N449 Co414 2.145 . S
N449 C450 1.397 . S
N449 C451 1.334 . S
C450 H431 0.929 . S
C450 C447 1.388 . S
C450 N449 1.397 . S
C451 H432 0.929 . S
C451 C448 1.404 . S
C451 N449 1.334 . S
C452 H444 0.930 . S
C452 C447 1.418 . S
C452 C448 1.353 . S
C453 H423 0.930 . S
C453 N454 1.330 . S
C453 C455 1.446 . S
N454 Co413 2.151 . S
N454 C453 1.330 . S
N454 C458 1.418 . S
C455 H434 0.929 . S
C455 C453 1.446 . S
C455 C456 1.332 . S
C456 H436 0.931 . S
C456 C455 1.332 . S
C456 C457 1.267 . S
C457 H425 0.929 . S
C457 C456 1.267 . S
C457 C458 1.251 . S
C458 H428 0.929 . S
C458 N454 1.418 . S
C458 C457 1.251 . S
C459 H426 0.930 . S
C459 C461 1.406 . S
C459 C464 1.261 . S
C460 H427 0.930 . S
C460 N462 1.325 . S
C460 C463 1.357 . S
C461 H429 0.928 . S
C461 C459 1.406 . S
C461 N462 1.261 . S
N462 Co413 2.214 . S
N462 C460 1.325 . S
N462 C461 1.261 . S
C463 H433 0.931 . S
C463 C460 1.357 . S
C463 C464 1.312 . S
C464 H435 0.930 . S
C464 C459 1.261 . S
C464 C463 1.312 . S
C465 O437 1.214 . S
C465 O445 1.234 . S
C466 H438 0.929 . S
C466 C469 1.391 . S
C466 C471 1.391 . S
C467 H439 0.929 . S
C467 C468 1.390 . S
C467 N470 1.391 . S
C468 H440 0.930 . S
C468 C467 1.390 . S
C468 C469 1.392 . S
C469 H441 0.929 . S
C469 C466 1.391 . S
C469 C468 1.392 . S
N470 Co414 2.257 . S
N470 C467 1.391 . S
N470 C471 1.388 . S
C471 H442 0.930 . S
C471 C466 1.391 . S
C471 N470 1.388 . S
Co472 O474 2.143 . S
Co472 O480 2.074 . S
Co472 O483 2.093 . S
Co472 O496 2.097 . S
Co472 N513 2.151 . S
Co472 N521 2.214 . S
Co473 O474 2.160 . S
Co473 O479 2.058 . S
Co473 O489 2.057 . S
Co473 O504 2.037 . S
Co473 N508 2.145 . S
Co473 N529 2.257 . S
O474 Co472 2.143 . S
O474 Co473 2.160 . S
C475 O476 1.278 . S
C475 O483 1.224 . S
O476 C475 1.278 . S
C477 O478 1.245 . S
C477 O489 1.232 . S
O478 C477 1.245 . S
O479 Co473 2.058 . S
O479 C505 1.269 . S
O480 Co472 2.074 . S
O480 C505 1.257 . S
H481 C506 0.930 . S
H482 C512 0.930 . S
O483 Co472 2.093 . S
O483 C475 1.224 . S
H484 C516 0.929 . S
H485 C518 0.930 . S
H486 C519 0.930 . S
H487 C517 0.929 . S
H488 C520 0.928 . S
O489 Co473 2.057 . S
O489 C477 1.232 . S
H490 C509 0.929 . S
H491 C510 0.929 . S
H492 C522 0.931 . S
H493 C514 0.929 . S
H494 C523 0.930 . S
H495 C515 0.931 . S
O496 Co472 2.097 . S
O496 C524 1.214 . S
H497 C525 0.929 . S
H498 C526 0.929 . S
H499 C527 0.930 . S
H500 C528 0.929 . S
H501 C530 0.930 . S
H502 C507 0.930 . S
H503 C511 0.930 . S
O504 Co473 2.037 . S
O504 C524 1.234 . S
C505 O479 1.269 . S
C505 O480 1.257 . S
C506 H481 0.930 . S
C506 C509 1.388 . S
C506 C511 1.418 . S
C507 H502 0.930 . S
C507 C510 1.404 . S
C507 C511 1.353 . S
N508 Co473 2.145 . S
N508 C509 1.397 . S
N508 C510 1.334 . S
C509 H490 0.929 . S
C509 C506 1.388 . S
C509 N508 1.397 . S
C510 H491 0.929 . S
C510 C507 1.404 . S
C510 N508 1.334 . S
C511 H503 0.930 . S
C511 C506 1.418 . S
C511 C507 1.353 . S
C512 H482 0.930 . S
C512 N513 1.330 . S
C512 C514 1.446 . S
N513 Co472 2.151 . S
N513 C512 1.330 . S
N513 C517 1.418 . S
C514 H493 0.929 . S
C514 C512 1.446 . S
C514 C515 1.332 . S
C515 H495 0.931 . S
C515 C514 1.332 . S
C515 C516 1.267 . S
C516 H484 0.929 . S
C516 C515 1.267 . S
C516 C517 1.251 . S
C517 H487 0.929 . S
C517 N513 1.418 . S
C517 C516 1.251 . S
C518 H485 0.930 . S
C518 C520 1.406 . S
C518 C523 1.261 . S
C519 H486 0.930 . S
C519 N521 1.325 . S
C519 C522 1.357 . S
C520 H488 0.928 . S
C520 C518 1.406 . S
C520 N521 1.261 . S
N521 Co472 2.214 . S
N521 C519 1.325 . S
N521 C520 1.261 . S
C522 H492 0.931 . S
C522 C519 1.357 . S
C522 C523 1.312 . S
C523 H494 0.930 . S
C523 C518 1.261 . S
C523 C522 1.312 . S
C524 O496 1.214 . S
C524 O504 1.234 . S
C525 H497 0.929 . S
C525 C528 1.391 . S
C525 C530 1.391 . S
C526 H498 0.929 . S
C526 C527 1.390 . S
C526 N529 1.391 . S
C527 H499 0.930 . S
C527 C526 1.390 . S
C527 C528 1.392 . S
C528 H500 0.929 . S
C528 C525 1.391 . S
C528 C527 1.392 . S
N529 Co473 2.257 . S
N529 C526 1.391 . S
N529 C530 1.388 . S
C530 H501 0.930 . S
C530 C525 1.391 . S
C530 N529 1.388 . S
Co531 O533 2.143 . S
Co531 O539 2.074 . S
Co531 O542 2.093 . S
Co531 O555 2.097 . S
Co531 N572 2.151 . S
Co531 N580 2.214 . S
Co532 O533 2.150 1_556 S
Co532 O538 2.057 1_556 S
Co532 O548 2.068 . S
Co532 O563 2.027 1_556 S
Co532 N567 2.155 . S
Co532 N588 2.258 . S
O533 Co531 2.143 . S
O533 Co532 2.150 1_554 S
C534 O535 1.278 . S
C534 O542 1.224 . S
O535 C534 1.278 . S
C536 O537 1.245 . S
C536 O548 1.232 . S
O537 C536 1.245 . S
O538 Co532 2.057 1_554 S
O538 C564 1.269 . S
O539 Co531 2.074 . S
O539 C564 1.257 . S
H540 C565 0.930 . S
H541 C571 0.930 . S
O542 Co531 2.093 . S
O542 C534 1.224 . S
H543 C575 0.929 . S
H544 C577 0.930 . S
H545 C578 0.930 . S
H546 C576 0.929 . S
H547 C579 0.928 . S
O548 Co532 2.068 . S
O548 C536 1.232 . S
H549 C568 0.929 . S
H550 C569 0.929 . S
H551 C581 0.931 . S
H552 C573 0.929 . S
H553 C582 0.930 . S
H554 C574 0.931 . S
O555 Co531 2.097 . S
O555 C583 1.214 . S
H556 C584 0.929 . S
H557 C585 0.930 . S
H558 C586 0.930 1_554 S
H559 C587 0.929 . S
H560 C589 0.930 . S
H561 C566 0.930 . S
H562 C570 0.930 . S
O563 Co532 2.027 1_554 S
O563 C583 1.234 . S
C564 O538 1.269 . S
C564 O539 1.257 . S
C565 H540 0.930 . S
C565 C568 1.388 . S
C565 C570 1.418 . S
C566 H561 0.930 . S
C566 C569 1.404 . S
C566 C570 1.353 . S
N567 Co532 2.155 . S
N567 C568 1.397 . S
N567 C569 1.334 . S
C568 H549 0.929 . S
C568 C565 1.388 . S
C568 N567 1.397 . S
C569 H550 0.929 . S
C569 C566 1.404 . S
C569 N567 1.334 . S
C570 H562 0.930 . S
C570 C565 1.418 . S
C570 C566 1.353 . S
C571 H541 0.930 . S
C571 N572 1.330 . S
C571 C573 1.446 . S
N572 Co531 2.151 . S
N572 C571 1.330 . S
N572 C576 1.418 . S
C573 H552 0.929 . S
C573 C571 1.446 . S
C573 C574 1.332 . S
C574 H554 0.931 . S
C574 C573 1.332 . S
C574 C575 1.267 . S
C575 H543 0.929 . S
C575 C574 1.267 . S
C575 C576 1.251 . S
C576 H546 0.929 . S
C576 N572 1.418 . S
C576 C575 1.251 . S
C577 H544 0.930 . S
C577 C579 1.406 . S
C577 C582 1.261 . S
C578 H545 0.930 . S
C578 N580 1.325 . S
C578 C581 1.357 . S
C579 H547 0.928 . S
C579 C577 1.406 . S
C579 N580 1.261 . S
N580 Co531 2.214 . S
N580 C578 1.325 . S
N580 C579 1.261 . S
C581 H551 0.931 . S
C581 C578 1.357 . S
C581 C582 1.312 . S
C582 H553 0.930 . S
C582 C577 1.261 . S
C582 C581 1.312 . S
C583 O555 1.214 . S
C583 O563 1.234 . S
C584 H556 0.929 . S
C584 C587 1.391 . S
C584 C589 1.391 . S
C585 H557 0.930 . S
C585 C586 1.390 . S
C585 N588 1.391 . S
C586 H558 0.930 1_556 S
C586 C585 1.390 . S
C586 C587 1.392 . S
C587 H559 0.929 . S
C587 C584 1.391 . S
C587 C586 1.392 . S
N588 Co532 2.258 . S
N588 C585 1.391 . S
N588 C589 1.388 . S
C589 H560 0.930 . S
C589 C584 1.391 . S
C589 N588 1.388 . S
Co590 O592 2.143 1_556 S
Co590 O598 2.074 . S
Co590 O601 2.093 . S
Co590 O614 2.097 . S
Co590 N631 2.151 . S
Co590 N639 2.214 . S
Co591 O592 2.160 . S
Co591 O597 2.058 . S
Co591 O607 2.057 . S
Co591 O622 2.037 . S
Co591 N626 2.145 . S
Co591 N647 2.257 . S
O592 Co590 2.143 1_554 S
O592 Co591 2.160 . S
C593 O594 1.278 . S
C593 O601 1.224 . S
O594 C593 1.278 . S
C595 O596 1.245 . S
C595 O607 1.232 . S
O596 C595 1.245 . S
O597 Co591 2.058 . S
O597 C623 1.269 . S
O598 Co590 2.074 . S
O598 C623 1.257 1_556 S
H599 C624 0.930 . S
H600 C630 0.930 . S
O601 Co590 2.093 . S
O601 C593 1.224 . S
H602 C634 0.929 . S
H603 C636 0.930 . S
H604 C637 0.930 . S
H605 C635 0.929 . S
H606 C638 0.928 . S
O607 Co591 2.057 . S
O607 C595 1.232 . S
H608 C627 0.929 . S
H609 C628 0.929 . S
H610 C640 0.931 . S
H611 C632 0.929 . S
H612 C641 0.930 . S
H613 C633 0.931 . S
O614 Co590 2.097 . S
O614 C642 1.214 . S
H615 C643 0.929 . S
H616 C644 0.929 . S
H617 C645 0.930 . S
H618 C646 0.929 . S
H619 C648 0.930 . S
H620 C625 0.930 . S
H621 C629 0.930 . S
O622 Co591 2.037 . S
O622 C642 1.234 1_554 S
C623 O597 1.269 . S
C623 O598 1.257 1_554 S
C624 H599 0.930 . S
C624 C627 1.388 . S
C624 C629 1.418 . S
C625 H620 0.930 . S
C625 C628 1.404 . S
C625 C629 1.353 . S
N626 Co591 2.145 . S
N626 C627 1.397 . S
N626 C628 1.334 . S
C627 H608 0.929 . S
C627 C624 1.388 . S
C627 N626 1.397 . S
C628 H609 0.929 . S
C628 C625 1.404 . S
C628 N626 1.334 . S
C629 H621 0.930 . S
C629 C624 1.418 . S
C629 C625 1.353 . S
C630 H600 0.930 . S
C630 N631 1.330 . S
C630 C632 1.446 . S
N631 Co590 2.151 . S
N631 C630 1.330 . S
N631 C635 1.418 . S
C632 H611 0.929 . S
C632 C630 1.446 . S
C632 C633 1.332 . S
C633 H613 0.931 . S
C633 C632 1.332 . S
C633 C634 1.267 . S
C634 H602 0.929 . S
C634 C633 1.267 . S
C634 C635 1.251 . S
C635 H605 0.929 . S
C635 N631 1.418 . S
C635 C634 1.251 . S
C636 H603 0.930 . S
C636 C638 1.406 . S
C636 C641 1.261 . S
C637 H604 0.930 . S
C637 N639 1.325 . S
C637 C640 1.357 . S
C638 H606 0.928 . S
C638 C636 1.406 . S
C638 N639 1.261 . S
N639 Co590 2.214 . S
N639 C637 1.325 . S
N639 C638 1.261 . S
C640 H610 0.931 . S
C640 C637 1.357 . S
C640 C641 1.312 . S
C641 H612 0.930 . S
C641 C636 1.261 . S
C641 C640 1.312 . S
C642 O614 1.214 . S
C642 O622 1.234 1_556 S
C643 H615 0.929 . S
C643 C646 1.391 . S
C643 C648 1.391 . S
C644 H616 0.929 . S
C644 C645 1.390 . S
C644 N647 1.391 . S
C645 H617 0.930 . S
C645 C644 1.390 . S
C645 C646 1.392 . S
C646 H618 0.929 . S
C646 C643 1.391 . S
C646 C645 1.392 . S
N647 Co591 2.257 . S
N647 C644 1.391 . S
N647 C648 1.388 . S
C648 H619 0.930 . S
C648 C643 1.391 . S
C648 N647 1.388 . S
Co649 O651 2.143 . S
Co649 O657 2.074 . S
Co649 O660 2.093 . S
Co649 O673 2.097 . S
Co649 N690 2.151 . S
Co649 N698 2.214 . S
Co650 O651 2.160 . S
Co650 O656 2.058 . S
Co650 O666 2.057 . S
Co650 O681 2.037 . S
Co650 N685 2.145 . S
Co650 N706 2.257 . S
O651 Co649 2.143 . S
O651 Co650 2.160 . S
C652 O653 1.278 . S
C652 O660 1.224 . S
O653 C652 1.278 . S
C654 O655 1.245 . S
C654 O666 1.232 . S
O655 C654 1.245 . S
O656 Co650 2.058 . S
O656 C682 1.269 . S
O657 Co649 2.074 . S
O657 C682 1.257 . S
H658 C683 0.930 . S
H659 C689 0.930 . S
O660 Co649 2.093 . S
O660 C652 1.224 . S
H661 C693 0.929 . S
H662 C695 0.930 . S
H663 C696 0.930 . S
H664 C694 0.929 . S
H665 C697 0.928 . S
O666 Co650 2.057 . S
O666 C654 1.232 . S
H667 C686 0.929 . S
H668 C687 0.929 . S
H669 C699 0.931 . S
H670 C691 0.929 . S
H671 C700 0.930 . S
H672 C692 0.931 . S
O673 Co649 2.097 . S
O673 C701 1.214 . S
H674 C702 0.929 . S
H675 C703 0.929 . S
H676 C704 0.930 . S
H677 C705 0.929 . S
H678 C707 0.930 . S
H679 C684 0.930 . S
H680 C688 0.930 . S
O681 Co650 2.037 . S
O681 C701 1.234 . S
C682 O656 1.269 . S
C682 O657 1.257 . S
C683 H658 0.930 . S
C683 C686 1.388 . S
C683 C688 1.418 . S
C684 H679 0.930 . S
C684 C687 1.404 . S
C684 C688 1.353 . S
N685 Co650 2.145 . S
N685 C686 1.397 . S
N685 C687 1.334 . S
C686 H667 0.929 . S
C686 C683 1.388 . S
C686 N685 1.397 . S
C687 H668 0.929 . S
C687 C684 1.404 . S
C687 N685 1.334 . S
C688 H680 0.930 . S
C688 C683 1.418 . S
C688 C684 1.353 . S
C689 H659 0.930 . S
C689 N690 1.330 . S
C689 C691 1.446 . S
N690 Co649 2.151 . S
N690 C689 1.330 . S
N690 C694 1.418 . S
C691 H670 0.929 . S
C691 C689 1.446 . S
C691 C692 1.332 . S
C692 H672 0.931 . S
C692 C691 1.332 . S
C692 C693 1.267 . S
C693 H661 0.929 . S
C693 C692 1.267 . S
C693 C694 1.251 . S
C694 H664 0.929 . S
C694 N690 1.418 . S
C694 C693 1.251 . S
C695 H662 0.930 . S
C695 C697 1.406 . S
C695 C700 1.261 . S
C696 H663 0.930 . S
C696 N698 1.325 . S
C696 C699 1.357 . S
C697 H665 0.928 . S
C697 C695 1.406 . S
C697 N698 1.261 . S
N698 Co649 2.214 . S
N698 C696 1.325 . S
N698 C697 1.261 . S
C699 H669 0.931 . S
C699 C696 1.357 . S
C699 C700 1.312 . S
C700 H671 0.930 . S
C700 C695 1.261 . S
C700 C699 1.312 . S
C701 O673 1.214 . S
C701 O681 1.234 . S
C702 H674 0.929 . S
C702 C705 1.391 . S
C702 C707 1.391 . S
C703 H675 0.929 . S
C703 C704 1.390 . S
C703 N706 1.391 . S
C704 H676 0.930 . S
C704 C703 1.390 . S
C704 C705 1.392 . S
C705 H677 0.929 . S
C705 C702 1.391 . S
C705 C704 1.392 . S
N706 Co650 2.257 . S
N706 C703 1.391 . S
N706 C707 1.388 . S
C707 H678 0.930 . S
C707 C702 1.391 . S
C707 N706 1.388 . S
Co708 O710 2.143 . S
Co708 O716 2.074 . S
Co708 O719 2.093 . S
Co708 O732 2.097 . S
Co708 N749 2.151 . S
Co708 N757 2.214 . S
Co709 O710 2.160 . S
Co709 O715 2.058 . S
Co709 O725 2.057 . S
Co709 O740 2.037 . S
Co709 N744 2.145 . S
Co709 N765 2.257 . S
O710 Co708 2.143 . S
O710 Co709 2.160 . S
C711 O712 1.278 . S
C711 O719 1.224 . S
O712 C711 1.278 . S
C713 O714 1.245 . S
C713 O725 1.232 . S
O714 C713 1.245 . S
O715 Co709 2.058 . S
O715 C741 1.269 . S
O716 Co708 2.074 . S
O716 C741 1.257 . S
H717 C742 0.930 . S
H718 C748 0.930 . S
O719 Co708 2.093 . S
O719 C711 1.224 . S
H720 C752 0.929 . S
H721 C754 0.930 . S
H722 C755 0.930 . S
H723 C753 0.929 . S
H724 C756 0.928 . S
O725 Co709 2.057 . S
O725 C713 1.232 . S
H726 C745 0.929 . S
H727 C746 0.929 1_554 S
H728 C758 0.931 . S
H729 C750 0.929 . S
H730 C759 0.930 . S
H731 C751 0.931 . S
O732 Co708 2.097 . S
O732 C760 1.214 . S
H733 C761 0.929 . S
H734 C762 0.929 . S
H735 C763 0.930 . S
H736 C764 0.929 . S
H737 C766 0.930 . S
H738 C743 0.930 . S
H739 C747 0.930 . S
O740 Co709 2.037 . S
O740 C760 1.234 . S
C741 O715 1.269 . S
C741 O716 1.257 . S
C742 H717 0.930 . S
C742 C745 1.388 . S
C742 C747 1.418 1_556 S
C743 H738 0.930 . S
C743 C746 1.403 1_554 S
C743 C747 1.353 . S
N744 Co709 2.145 . S
N744 C745 1.397 . S
N744 C746 1.334 . S
C745 H726 0.929 . S
C745 C742 1.388 . S
C745 N744 1.397 . S
C746 H727 0.929 1_556 S
C746 C743 1.403 1_556 S
C746 N744 1.334 . S
C747 H739 0.930 . S
C747 C742 1.418 1_554 S
C747 C743 1.353 . S
C748 H718 0.930 . S
C748 N749 1.330 . S
C748 C750 1.446 . S
N749 Co708 2.151 . S
N749 C748 1.330 . S
N749 C753 1.418 . S
C750 H729 0.929 . S
C750 C748 1.446 . S
C750 C751 1.332 . S
C751 H731 0.931 . S
C751 C750 1.332 . S
C751 C752 1.267 . S
C752 H720 0.929 . S
C752 C751 1.267 . S
C752 C753 1.251 . S
C753 H723 0.929 . S
C753 N749 1.418 . S
C753 C752 1.251 . S
C754 H721 0.930 . S
C754 C756 1.406 . S
C754 C759 1.261 . S
C755 H722 0.930 . S
C755 N757 1.325 . S
C755 C758 1.357 . S
C756 H724 0.928 . S
C756 C754 1.406 . S
C756 N757 1.261 . S
N757 Co708 2.214 . S
N757 C755 1.325 . S
N757 C756 1.261 . S
C758 H728 0.931 . S
C758 C755 1.357 . S
C758 C759 1.312 . S
C759 H730 0.930 . S
C759 C754 1.261 . S
C759 C758 1.312 . S
C760 O732 1.214 . S
C760 O740 1.234 . S
C761 H733 0.929 . S
C761 C764 1.391 . S
C761 C766 1.391 . S
C762 H734 0.929 . S
C762 C763 1.390 . S
C762 N765 1.391 . S
C763 H735 0.930 . S
C763 C762 1.390 . S
C763 C764 1.392 . S
C764 H736 0.929 . S
C764 C761 1.391 . S
C764 C763 1.392 . S
N765 Co709 2.257 . S
N765 C762 1.391 . S
N765 C766 1.388 . S
C766 H737 0.930 . S
C766 C761 1.391 . S
C766 N765 1.388 . S
Co767 O769 2.153 . S
Co767 O775 2.074 . S
Co767 O778 2.093 1_655 S
Co767 O791 2.097 1_655 S
Co767 N808 2.151 . S
Co767 N816 2.214 . S
Co768 O769 2.147 1_455 S
Co768 O774 2.058 1_455 S
Co768 O784 2.057 1_455 S
Co768 O799 2.037 . S
Co768 N803 2.145 . S
Co768 N824 2.257 . S
O769 Co767 2.153 . S
O769 Co768 2.147 1_655 S
C770 O771 1.278 . S
C770 O778 1.224 . S
O771 C770 1.278 . S
C772 O773 1.245 . S
C772 O784 1.233 . S
O773 C772 1.245 . S
O774 Co768 2.058 1_655 S
O774 C800 1.269 . S
O775 Co767 2.074 . S
O775 C800 1.257 . S
H776 C801 0.930 . S
H777 C807 0.930 . S
O778 Co767 2.093 1_455 S
O778 C770 1.224 . S
H779 C811 0.929 . S
H780 C813 0.930 . S
H781 C814 0.930 . S
H782 C812 0.929 . S
H783 C815 0.928 . S
O784 Co768 2.057 1_655 S
O784 C772 1.233 . S
H785 C804 0.929 . S
H786 C805 0.929 . S
H787 C817 0.931 . S
H788 C809 0.929 . S
H789 C818 0.930 . S
H790 C810 0.931 . S
O791 Co767 2.097 1_455 S
O791 C819 1.214 . S
H792 C820 0.929 . S
H793 C821 0.929 . S
H794 C822 0.930 . S
H795 C823 0.929 . S
H796 C825 0.930 . S
H797 C802 0.930 . S
H798 C806 0.930 . S
O799 Co768 2.037 . S
O799 C819 1.234 . S
C800 O774 1.269 . S
C800 O775 1.257 . S
C801 H776 0.930 . S
C801 C804 1.388 . S
C801 C806 1.418 . S
C802 H797 0.930 . S
C802 C805 1.404 . S
C802 C806 1.353 . S
N803 Co768 2.145 . S
N803 C804 1.397 . S
N803 C805 1.334 . S
C804 H785 0.929 . S
C804 C801 1.388 . S
C804 N803 1.397 . S
C805 H786 0.929 . S
C805 C802 1.404 . S
C805 N803 1.334 . S
C806 H798 0.930 . S
C806 C801 1.418 . S
C806 C802 1.353 . S
C807 H777 0.930 . S
C807 N808 1.330 . S
C807 C809 1.446 . S
N808 Co767 2.151 . S
N808 C807 1.330 . S
N808 C812 1.418 . S
C809 H788 0.929 . S
C809 C807 1.446 . S
C809 C810 1.332 . S
C810 H790 0.931 . S
C810 C809 1.332 . S
C810 C811 1.267 . S
C811 H779 0.929 . S
C811 C810 1.267 . S
C811 C812 1.251 . S
C812 H782 0.929 . S
C812 N808 1.418 . S
C812 C811 1.251 . S
C813 H780 0.930 . S
C813 C815 1.406 . S
C813 C818 1.261 . S
C814 H781 0.930 . S
C814 N816 1.325 . S
C814 C817 1.357 1_554 S
C815 H783 0.928 . S
C815 C813 1.406 . S
C815 N816 1.261 1_556 S
N816 Co767 2.214 . S
N816 C814 1.325 . S
N816 C815 1.261 1_554 S
C817 H787 0.931 . S
C817 C814 1.357 1_556 S
C817 C818 1.312 . S
C818 H789 0.930 . S
C818 C813 1.261 . S
C818 C817 1.312 . S
C819 O791 1.214 . S
C819 O799 1.234 . S
C820 H792 0.929 . S
C820 C823 1.391 . S
C820 C825 1.391 . S
C821 H793 0.929 . S
C821 C822 1.390 . S
C821 N824 1.391 . S
C822 H794 0.930 . S
C822 C821 1.390 . S
C822 C823 1.392 . S
C823 H795 0.929 . S
C823 C820 1.391 . S
C823 C822 1.392 . S
N824 Co768 2.257 . S
N824 C821 1.391 . S
N824 C825 1.388 . S
C825 H796 0.930 . S
C825 C820 1.391 . S
C825 N824 1.388 . S
Co826 O828 2.143 . S
Co826 O834 2.074 . S
Co826 O837 2.093 . S
Co826 O850 2.097 . S
Co826 N867 2.151 . S
Co826 N875 2.214 . S
Co827 O828 2.160 . S
Co827 O833 2.058 . S
Co827 O843 2.057 . S
Co827 O858 2.037 . S
Co827 N862 2.145 . S
Co827 N883 2.257 . S
O828 Co826 2.143 . S
O828 Co827 2.160 . S
C829 O830 1.278 . S
C829 O837 1.224 . S
O830 C829 1.278 . S
C831 O832 1.245 . S
C831 O843 1.232 . S
O832 C831 1.245 . S
O833 Co827 2.058 . S
O833 C859 1.269 . S
O834 Co826 2.074 . S
O834 C859 1.257 . S
H835 C860 0.930 . S
H836 C866 0.930 . S
O837 Co826 2.093 . S
O837 C829 1.224 . S
H838 C870 0.929 . S
H839 C872 0.930 . S
H840 C873 0.930 . S
H841 C871 0.929 . S
H842 C874 0.928 . S
O843 Co827 2.057 . S
O843 C831 1.232 . S
H844 C863 0.929 . S
H845 C864 0.929 . S
H846 C876 0.931 . S
H847 C868 0.929 . S
H848 C877 0.930 . S
H849 C869 0.931 . S
O850 Co826 2.097 . S
O850 C878 1.214 . S
H851 C879 0.929 . S
H852 C880 0.929 . S
H853 C881 0.930 . S
H854 C882 0.929 . S
H855 C884 0.930 . S
H856 C861 0.930 1_556 S
H857 C865 0.930 . S
O858 Co827 2.037 . S
O858 C878 1.234 . S
C859 O833 1.269 . S
C859 O834 1.257 . S
C860 H835 0.930 . S
C860 C863 1.388 . S
C860 C865 1.418 . S
C861 H856 0.930 1_554 S
C861 C864 1.404 . S
C861 C865 1.353 . S
N862 Co827 2.145 . S
N862 C863 1.397 . S
N862 C864 1.334 . S
C863 H844 0.929 . S
C863 C860 1.388 . S
C863 N862 1.397 . S
C864 H845 0.929 . S
C864 C861 1.404 . S
C864 N862 1.334 . S
C865 H857 0.930 . S
C865 C860 1.418 . S
C865 C861 1.353 . S
C866 H836 0.930 . S
C866 N867 1.330 . S
C866 C868 1.446 . S
N867 Co826 2.151 . S
N867 C866 1.330 . S
N867 C871 1.418 . S
C868 H847 0.929 . S
C868 C866 1.446 . S
C868 C869 1.332 . S
C869 H849 0.931 . S
C869 C868 1.332 . S
C869 C870 1.267 . S
C870 H838 0.929 . S
C870 C869 1.267 . S
C870 C871 1.251 . S
C871 H841 0.929 . S
C871 N867 1.418 . S
C871 C870 1.251 . S
C872 H839 0.930 . S
C872 C874 1.406 . S
C872 C877 1.261 . S
C873 H840 0.930 . S
C873 N875 1.325 . S
C873 C876 1.357 . S
C874 H842 0.928 . S
C874 C872 1.406 . S
C874 N875 1.261 . S
N875 Co826 2.214 . S
N875 C873 1.325 . S
N875 C874 1.261 . S
C876 H846 0.931 . S
C876 C873 1.357 . S
C876 C877 1.312 . S
C877 H848 0.930 . S
C877 C872 1.261 . S
C877 C876 1.312 . S
C878 O850 1.214 . S
C878 O858 1.234 . S
C879 H851 0.929 . S
C879 C882 1.391 . S
C879 C884 1.391 . S
C880 H852 0.929 . S
C880 C881 1.390 . S
C880 N883 1.391 . S
C881 H853 0.930 . S
C881 C880 1.390 . S
C881 C882 1.392 . S
C882 H854 0.929 . S
C882 C879 1.391 . S
C882 C881 1.392 . S
N883 Co827 2.257 . S
N883 C880 1.391 . S
N883 C884 1.388 . S
C884 H855 0.930 . S
C884 C879 1.391 . S
C884 N883 1.388 . S
Co885 O887 2.153 . S
Co885 O893 2.074 . S
Co885 O896 2.093 1_655 S
Co885 O909 2.097 1_655 S
Co885 N926 2.151 . S
Co885 N934 2.214 1_556 S
Co886 O887 2.147 1_455 S
Co886 O892 2.058 1_455 S
Co886 O902 2.057 1_455 S
Co886 O917 2.037 . S
Co886 N921 2.145 . S
Co886 N942 2.257 . S
O887 Co885 2.153 . S
O887 Co886 2.147 1_655 S
C888 O889 1.278 . S
C888 O896 1.224 . S
O889 C888 1.278 . S
C890 O891 1.245 . S
C890 O902 1.233 . S
O891 C890 1.245 . S
O892 Co886 2.058 1_655 S
O892 C918 1.269 . S
O893 Co885 2.074 . S
O893 C918 1.257 . S
H894 C919 0.930 . S
H895 C925 0.930 . S
O896 Co885 2.093 1_455 S
O896 C888 1.224 . S
H897 C929 0.929 . S
H898 C931 0.930 . S
H899 C932 0.930 . S
H900 C930 0.929 . S
H901 C933 0.928 . S
O902 Co886 2.057 1_655 S
O902 C890 1.233 . S
H903 C922 0.929 . S
H904 C923 0.929 . S
H905 C935 0.931 . S
H906 C927 0.929 . S
H907 C936 0.930 . S
H908 C928 0.931 . S
O909 Co885 2.097 1_455 S
O909 C937 1.214 . S
H910 C938 0.929 . S
H911 C939 0.929 . S
H912 C940 0.930 . S
H913 C941 0.929 . S
H914 C943 0.930 . S
H915 C920 0.930 . S
H916 C924 0.930 . S
O917 Co886 2.037 . S
O917 C937 1.234 . S
C918 O892 1.269 . S
C918 O893 1.257 . S
C919 H894 0.930 . S
C919 C922 1.388 . S
C919 C924 1.418 . S
C920 H915 0.930 . S
C920 C923 1.404 . S
C920 C924 1.353 . S
N921 Co886 2.145 . S
N921 C922 1.397 . S
N921 C923 1.334 . S
C922 H903 0.929 . S
C922 C919 1.388 . S
C922 N921 1.397 . S
C923 H904 0.929 . S
C923 C920 1.404 . S
C923 N921 1.334 . S
C924 H916 0.930 . S
C924 C919 1.418 . S
C924 C920 1.353 . S
C925 H895 0.930 . S
C925 N926 1.330 . S
C925 C927 1.446 . S
N926 Co885 2.151 . S
N926 C925 1.330 . S
N926 C930 1.418 . S
C927 H906 0.929 . S
C927 C925 1.446 . S
C927 C928 1.332 . S
C928 H908 0.931 . S
C928 C927 1.332 . S
C928 C929 1.267 . S
C929 H897 0.929 . S
C929 C928 1.267 . S
C929 C930 1.251 . S
C930 H900 0.929 . S
C930 N926 1.418 . S
C930 C929 1.251 . S
C931 H898 0.930 . S
C931 C933 1.406 . S
C931 C936 1.261 . S
C932 H899 0.930 . S
C932 N934 1.325 . S
C932 C935 1.357 . S
C933 H901 0.928 . S
C933 C931 1.406 . S
C933 N934 1.261 . S
N934 Co885 2.214 1_554 S
N934 C932 1.325 . S
N934 C933 1.261 . S
C935 H905 0.931 . S
C935 C932 1.357 . S
C935 C936 1.312 . S
C936 H907 0.930 . S
C936 C931 1.261 . S
C936 C935 1.312 . S
C937 O909 1.214 . S
C937 O917 1.234 . S
C938 H910 0.929 . S
C938 C941 1.391 . S
C938 C943 1.391 . S
C939 H911 0.929 . S
C939 C940 1.390 . S
C939 N942 1.391 . S
C940 H912 0.930 . S
C940 C939 1.390 . S
C940 C941 1.392 . S
C941 H913 0.929 . S
C941 C938 1.391 . S
C941 C940 1.392 . S
N942 Co886 2.257 . S
N942 C939 1.391 . S
N942 C943 1.388 . S
C943 H914 0.930 . S
C943 C938 1.391 . S
C943 N942 1.388 . S
C944 C945 1.363 . S
C944 C950 1.379 . S
C944 N952 1.356 . S
C945 C944 1.363 . S
C945 C951 1.363 . S
C946 C947 1.363 . S
C946 C951 1.379 . S
C946 N953 1.356 . S
C947 C946 1.363 . S
C947 C950 1.363 . S
N948 C950 1.356 . S
N948 H960 0.984 . S
N948 H961 0.985 . S
N949 C951 1.356 . S
N949 H954 0.984 1_554 S
N949 H955 0.985 1_554 S
C950 C944 1.379 . S
C950 C947 1.363 . S
C950 N948 1.356 . S
C951 C945 1.363 . S
C951 C946 1.379 . S
C951 N949 1.356 . S
N952 C944 1.356 . S
N952 H958 0.984 . S
N952 H959 0.984 . S
N953 C946 1.356 . S
N953 H956 0.984 . S
N953 H957 0.985 . S
H954 N949 0.984 1_556 S
H955 N949 0.985 1_556 S
H956 N953 0.984 . S
H957 N953 0.985 . S
H958 N952 0.984 . S
H959 N952 0.984 . S
H960 N948 0.984 . S
H961 N948 0.985 . S
C962 C963 1.363 . S
C962 C968 1.379 . S
C962 N970 1.356 . S
C963 C962 1.363 . S
C963 C969 1.363 . S
C964 C965 1.363 . S
C964 C969 1.379 . S
C964 N971 1.356 . S
C965 C964 1.363 . S
C965 C968 1.363 . S
N966 C968 1.356 . S
N966 H978 0.984 . S
N966 H979 0.985 . S
N967 C969 1.356 . S
N967 H972 0.984 . S
N967 H973 0.985 . S
C968 C962 1.379 . S
C968 C965 1.363 . S
C968 N966 1.356 . S
C969 C963 1.363 . S
C969 C964 1.379 . S
C969 N967 1.356 . S
N970 C962 1.356 . S
N970 H976 0.984 . S
N970 H977 0.984 . S
N971 C964 1.356 . S
N971 H974 0.984 . S
N971 H975 0.985 . S
H972 N967 0.984 . S
H973 N967 0.985 . S
H974 N971 0.984 . S
H975 N971 0.985 . S
H976 N970 0.984 . S
H977 N970 0.984 . S
H978 N966 0.984 . S
H979 N966 0.985 . S
C980 C981 1.363 . S
C980 C986 1.379 . S
C980 N988 1.356 . S
C981 C980 1.363 . S
C981 C987 1.363 . S
C982 C983 1.363 . S
C982 C987 1.379 . S
C982 N989 1.356 . S
C983 C982 1.363 . S
C983 C986 1.363 . S
N984 C986 1.356 . S
N984 H996 0.984 . S
N984 H997 0.985 . S
N985 C987 1.356 . S
N985 H990 0.984 . S
N985 H991 0.985 . S
C986 C980 1.379 . S
C986 C983 1.363 . S
C986 N984 1.356 . S
C987 C981 1.363 . S
C987 C982 1.379 . S
C987 N985 1.356 . S
N988 C980 1.356 . S
N988 H994 0.984 . S
N988 H995 0.984 . S
N989 C982 1.356 . S
N989 H992 0.984 . S
N989 H993 0.985 . S
H990 N985 0.984 . S
H991 N985 0.985 . S
H992 N989 0.984 . S
H993 N989 0.985 . S
H994 N988 0.984 . S
H995 N988 0.984 . S
H996 N984 0.984 . S
H997 N984 0.985 . S
C998 C999 1.363 . S
C998 C1004 1.379 . S
C998 N1006 1.356 1_556 S
C999 C998 1.363 . S
C999 C1005 1.363 . S
C1000 C1001 1.363 . S
C1000 C1005 1.379 . S
C1000 N1007 1.356 . S
C1001 C1000 1.363 . S
C1001 C1004 1.363 . S
N1002 C1004 1.356 . S
N1002 H1014 0.984 . S
N1002 H1015 0.985 . S
N1003 C1005 1.356 . S
N1003 H1008 0.984 . S
N1003 H1009 0.985 . S
C1004 C998 1.379 . S
C1004 C1001 1.363 . S
C1004 N1002 1.356 . S
C1005 C999 1.363 . S
C1005 C1000 1.379 . S
C1005 N1003 1.356 . S
N1006 C998 1.356 1_554 S
N1006 H1012 0.984 . S
N1006 H1013 0.984 . S
N1007 C1000 1.356 . S
N1007 H1010 0.984 . S
N1007 H1011 0.985 . S
H1008 N1003 0.984 . S
H1009 N1003 0.985 . S
H1010 N1007 0.984 . S
H1011 N1007 0.985 . S
H1012 N1006 0.984 . S
H1013 N1006 0.984 . S
H1014 N1002 0.984 . S
H1015 N1002 0.985 . S
C1016 C1017 1.363 . S
C1016 C1022 1.379 . S
C1016 N1024 1.356 . S
C1017 C1016 1.363 . S
C1017 C1023 1.363 . S
C1018 C1019 1.363 . S
C1018 C1023 1.379 . S
C1018 N1025 1.356 1_556 S
C1019 C1018 1.363 . S
C1019 C1022 1.363 . S
N1020 C1022 1.356 . S
N1020 H1032 0.984 . S
N1020 H1033 0.985 . S
N1021 C1023 1.356 . S
N1021 H1026 0.984 . S
N1021 H1027 0.985 . S
C1022 C1016 1.379 . S
C1022 C1019 1.363 . S
C1022 N1020 1.356 . S
C1023 C1017 1.363 . S
C1023 C1018 1.379 . S
C1023 N1021 1.356 . S
N1024 C1016 1.356 . S
N1024 H1030 0.984 . S
N1024 H1031 0.984 . S
N1025 C1018 1.356 1_554 S
N1025 H1028 0.984 . S
N1025 H1029 0.985 . S
H1026 N1021 0.984 . S
H1027 N1021 0.985 . S
H1028 N1025 0.984 . S
H1029 N1025 0.985 . S
H1030 N1024 0.984 . S
H1031 N1024 0.984 . S
H1032 N1020 0.984 . S
H1033 N1020 0.985 . S
C1034 C1035 1.363 . S
C1034 C1040 1.379 . S
C1034 N1042 1.356 . S
C1035 C1034 1.363 . S
C1035 C1041 1.363 . S
C1036 C1037 1.363 . S
C1036 C1041 1.379 . S
C1036 N1043 1.356 . S
C1037 C1036 1.363 . S
C1037 C1040 1.363 . S
N1038 C1040 1.356 . S
N1038 H1050 0.984 . S
N1038 H1051 0.985 . S
N1039 C1041 1.356 . S
N1039 H1044 0.984 . S
N1039 H1045 0.985 . S
C1040 C1034 1.379 . S
C1040 C1037 1.363 . S
C1040 N1038 1.356 . S
C1041 C1035 1.363 . S
C1041 C1036 1.379 . S
C1041 N1039 1.356 . S
N1042 C1034 1.356 . S
N1042 H1048 0.984 . S
N1042 H1049 0.984 . S
N1043 C1036 1.356 . S
N1043 H1046 0.984 . S
N1043 H1047 0.985 . S
H1044 N1039 0.984 . S
H1045 N1039 0.985 . S
H1046 N1043 0.984 . S
H1047 N1043 0.985 . S
H1048 N1042 0.984 . S
H1049 N1042 0.984 . S
H1050 N1038 0.984 . S
H1051 N1038 0.985 . S
C1052 C1053 1.363 . S
C1052 C1058 1.379 . S
C1052 N1060 1.356 . S
C1053 C1052 1.363 . S
C1053 C1059 1.363 . S
C1054 C1055 1.363 . S
C1054 C1059 1.379 . S
C1054 N1061 1.356 . S
C1055 C1054 1.363 . S
C1055 C1058 1.363 . S
N1056 C1058 1.356 . S
N1056 H1068 0.984 . S
N1056 H1069 0.985 . S
N1057 C1059 1.356 . S
N1057 H1062 0.984 . S
N1057 H1063 0.985 . S
C1058 C1052 1.379 . S
C1058 C1055 1.363 . S
C1058 N1056 1.356 . S
C1059 C1053 1.363 . S
C1059 C1054 1.379 . S
C1059 N1057 1.356 . S
N1060 C1052 1.356 . S
N1060 H1066 0.984 . S
N1060 H1067 0.984 . S
N1061 C1054 1.356 . S
N1061 H1064 0.984 . S
N1061 H1065 0.985 . S
H1062 N1057 0.984 . S
H1063 N1057 0.985 . S
H1064 N1061 0.984 . S
H1065 N1061 0.985 . S
H1066 N1060 0.984 . S
H1067 N1060 0.984 . S
H1068 N1056 0.984 . S
H1069 N1056 0.985 . S
C1070 C1071 1.363 . S
C1070 C1076 1.379 . S
C1070 N1078 1.356 . S
C1071 C1070 1.363 . S
C1071 C1077 1.363 . S
C1072 C1073 1.363 . S
C1072 C1077 1.379 . S
C1072 N1079 1.356 . S
C1073 C1072 1.363 . S
C1073 C1076 1.363 . S
N1074 C1076 1.356 . S
N1074 H1086 0.984 . S
N1074 H1087 0.985 . S
N1075 C1077 1.356 . S
N1075 H1080 0.984 . S
N1075 H1081 0.985 . S
C1076 C1070 1.379 . S
C1076 C1073 1.363 . S
C1076 N1074 1.356 . S
C1077 C1071 1.363 . S
C1077 C1072 1.379 . S
C1077 N1075 1.356 . S
N1078 C1070 1.356 . S
N1078 H1084 0.984 . S
N1078 H1085 0.984 . S
N1079 C1072 1.356 . S
N1079 H1082 0.984 . S
N1079 H1083 0.985 . S
H1080 N1075 0.984 . S
H1081 N1075 0.985 . S
H1082 N1079 0.984 . S
H1083 N1079 0.985 . S
H1084 N1078 0.984 . S
H1085 N1078 0.984 . S
H1086 N1074 0.984 . S
H1087 N1074 0.985 . S
C1088 C1089 1.363 . S
C1088 C1094 1.379 . S
C1088 N1096 1.356 1_556 S
C1089 C1088 1.363 . S
C1089 C1095 1.363 . S
C1090 C1091 1.363 . S
C1090 C1095 1.379 . S
C1090 N1097 1.356 . S
C1091 C1090 1.363 . S
C1091 C1094 1.363 . S
N1092 C1094 1.356 1_554 S
N1092 H1104 0.984 . S
N1092 H1105 0.985 . S
N1093 C1095 1.356 . S
N1093 H1098 0.984 . S
N1093 H1099 0.985 . S
C1094 C1088 1.379 . S
C1094 C1091 1.363 . S
C1094 N1092 1.356 1_556 S
C1095 C1089 1.363 . S
C1095 C1090 1.379 . S
C1095 N1093 1.356 . S
N1096 C1088 1.356 1_554 S
N1096 H1102 0.984 . S
N1096 H1103 0.990 . S
N1097 C1090 1.356 . S
N1097 H1100 0.984 . S
N1097 H1101 0.985 . S
H1098 N1093 0.984 . S
H1099 N1093 0.985 . S
H1100 N1097 0.984 . S
H1101 N1097 0.985 . S
H1102 N1096 0.984 . S
H1103 N1096 0.990 . S
H1104 N1092 0.984 . S
H1105 N1092 0.985 . S
C1106 C1107 1.363 . S
C1106 C1112 1.379 . S
C1106 N1114 1.356 . S
C1107 C1106 1.363 . S
C1107 C1113 1.363 . S
C1108 C1109 1.363 . S
C1108 C1113 1.379 . S
C1108 N1115 1.356 . S
C1109 C1108 1.363 . S
C1109 C1112 1.363 . S
N1110 C1112 1.356 . S
N1110 H1122 0.984 . S
N1110 H1123 0.985 . S
N1111 C1113 1.356 . S
N1111 H1116 0.984 . S
N1111 H1117 0.985 . S
C1112 C1106 1.379 . S
C1112 C1109 1.363 . S
C1112 N1110 1.356 . S
C1113 C1107 1.363 . S
C1113 C1108 1.379 . S
C1113 N1111 1.356 . S
N1114 C1106 1.356 . S
N1114 H1120 0.984 . S
N1114 H1121 0.984 . S
N1115 C1108 1.356 . S
N1115 H1118 0.984 . S
N1115 H1119 0.985 . S
H1116 N1111 0.984 . S
H1117 N1111 0.985 . S
H1118 N1115 0.984 . S
H1119 N1115 0.985 . S
H1120 N1114 0.984 . S
H1121 N1114 0.984 . S
H1122 N1110 0.984 . S
H1123 N1110 0.985 . S
C1124 C1125 1.363 . S
C1124 C1130 1.379 . S
C1124 N1132 1.356 . S
C1125 C1124 1.363 . S
C1125 C1131 1.363 . S
C1126 C1127 1.363 . S
C1126 C1131 1.379 . S
C1126 N1133 1.356 . S
C1127 C1126 1.363 . S
C1127 C1130 1.363 . S
N1128 C1130 1.356 . S
N1128 H1140 0.984 . S
N1128 H1141 0.985 . S
N1129 C1131 1.356 . S
N1129 H1134 0.984 . S
N1129 H1135 0.985 . S
C1130 C1124 1.379 . S
C1130 C1127 1.363 . S
C1130 N1128 1.356 . S
C1131 C1125 1.363 . S
C1131 C1126 1.379 . S
C1131 N1129 1.356 . S
N1132 C1124 1.356 . S
N1132 H1138 0.984 . S
N1132 H1139 0.984 . S
N1133 C1126 1.356 . S
N1133 H1136 0.984 . S
N1133 H1137 0.985 . S
H1134 N1129 0.984 . S
H1135 N1129 0.985 . S
H1136 N1133 0.984 . S
H1137 N1133 0.985 . S
H1138 N1132 0.984 . S
H1139 N1132 0.984 . S
H1140 N1128 0.984 . S
H1141 N1128 0.985 . S
C1142 C1143 1.363 . S
C1142 C1148 1.379 . S
C1142 N1150 1.356 . S
C1143 C1142 1.363 . S
C1143 C1149 1.363 . S
C1144 C1145 1.363 . S
C1144 C1149 1.379 . S
C1144 N1151 1.356 . S
C1145 C1144 1.363 . S
C1145 C1148 1.363 . S
N1146 C1148 1.356 . S
N1146 H1158 0.984 . S
N1146 H1159 0.985 . S
N1147 C1149 1.356 . S
N1147 H1152 0.984 . S
N1147 H1153 0.985 . S
C1148 C1142 1.379 . S
C1148 C1145 1.363 . S
C1148 N1146 1.356 . S
C1149 C1143 1.363 . S
C1149 C1144 1.379 . S
C1149 N1147 1.356 . S
N1150 C1142 1.356 . S
N1150 H1156 0.984 . S
N1150 H1157 0.984 . S
N1151 C1144 1.356 . S
N1151 H1154 0.984 . S
N1151 H1155 0.985 . S
H1152 N1147 0.984 . S
H1153 N1147 0.985 . S
H1154 N1151 0.984 . S
H1155 N1151 0.985 . S
H1156 N1150 0.984 . S
H1157 N1150 0.984 . S
H1158 N1146 0.984 . S
H1159 N1146 0.985 . S
C1160 C1161 1.363 . S
C1160 C1166 1.379 . S
C1160 N1168 1.356 . S
C1161 C1160 1.363 . S
C1161 C1167 1.363 . S
C1162 C1163 1.363 . S
C1162 C1167 1.379 . S
C1162 N1169 1.356 . S
C1163 C1162 1.363 . S
C1163 C1166 1.363 . S
N1164 C1166 1.356 . S
N1164 H1176 0.984 . S
N1164 H1177 0.985 . S
N1165 C1167 1.356 . S
N1165 H1170 0.984 . S
N1165 H1171 0.985 . S
C1166 C1160 1.379 . S
C1166 C1163 1.363 . S
C1166 N1164 1.356 . S
C1167 C1161 1.363 . S
C1167 C1162 1.379 . S
C1167 N1165 1.356 . S
N1168 C1160 1.356 . S
N1168 H1174 0.984 . S
N1168 H1175 0.984 . S
N1169 C1162 1.356 . S
N1169 H1172 0.984 . S
N1169 H1173 0.985 . S
H1170 N1165 0.984 . S
H1171 N1165 0.985 . S
H1172 N1169 0.984 . S
H1173 N1169 0.985 . S
H1174 N1168 0.984 . S
H1175 N1168 0.984 . S
H1176 N1164 0.984 . S
H1177 N1164 0.985 . S
C1178 C1179 1.363 . S
C1178 C1184 1.379 . S
C1178 N1186 1.356 . S
C1179 C1178 1.363 . S
C1179 C1185 1.363 . S
C1180 C1181 1.363 . S
C1180 C1185 1.379 . S
C1180 N1187 1.356 1_556 S
C1181 C1180 1.363 . S
C1181 C1184 1.363 . S
N1182 C1184 1.356 . S
N1182 H1194 0.984 . S
N1182 H1195 0.985 . S
N1183 C1185 1.356 1_554 S
N1183 H1188 0.984 1_554 S
N1183 H1189 0.985 . S
C1184 C1178 1.379 . S
C1184 C1181 1.363 . S
C1184 N1182 1.356 . S
C1185 C1179 1.363 . S
C1185 C1180 1.379 . S
C1185 N1183 1.356 1_556 S
N1186 C1178 1.356 . S
N1186 H1192 0.984 . S
N1186 H1193 0.984 . S
N1187 C1180 1.356 1_554 S
N1187 H1190 0.984 . S
N1187 H1191 0.985 . S
H1188 N1183 0.984 1_556 S
H1189 N1183 0.985 . S
H1190 N1187 0.984 . S
H1191 N1187 0.985 . S
H1192 N1186 0.984 . S
H1193 N1186 0.984 . S
H1194 N1182 0.984 . S
H1195 N1182 0.985 . S
C1196 C1197 1.363 . S
C1196 C1202 1.379 . S
C1196 N1204 1.356 . S
C1197 C1196 1.363 . S
C1197 C1203 1.363 . S
C1198 C1199 1.363 . S
C1198 C1203 1.379 . S
C1198 N1205 1.356 . S
C1199 C1198 1.363 . S
C1199 C1202 1.363 . S
N1200 C1202 1.356 . S
N1200 H1212 0.984 . S
N1200 H1213 0.985 . S
N1201 C1203 1.356 . S
N1201 H1206 0.984 . S
N1201 H1207 0.985 . S
C1202 C1196 1.379 . S
C1202 C1199 1.363 . S
C1202 N1200 1.356 . S
C1203 C1197 1.363 . S
C1203 C1198 1.379 . S
C1203 N1201 1.356 . S
N1204 C1196 1.356 . S
N1204 H1210 0.984 . S
N1204 H1211 0.984 . S
N1205 C1198 1.356 . S
N1205 H1208 0.984 . S
N1205 H1209 0.985 . S
H1206 N1201 0.984 . S
H1207 N1201 0.985 . S
H1208 N1205 0.984 . S
H1209 N1205 0.985 . S
H1210 N1204 0.984 . S
H1211 N1204 0.984 . S
H1212 N1200 0.984 . S
H1213 N1200 0.985 . S
C1214 C1215 1.363 . S
C1214 C1220 1.379 . S
C1214 N1222 1.356 . S
C1215 C1214 1.363 . S
C1215 C1221 1.363 . S
C1216 C1217 1.363 . S
C1216 C1221 1.379 . S
C1216 N1223 1.356 . S
C1217 C1216 1.363 . S
C1217 C1220 1.363 . S
N1218 C1220 1.356 . S
N1218 H1230 0.984 . S
N1218 H1231 0.985 . S
N1219 C1221 1.356 . S
N1219 H1224 0.984 . S
N1219 H1225 0.985 . S
C1220 C1214 1.379 . S
C1220 C1217 1.363 . S
C1220 N1218 1.356 . S
C1221 C1215 1.363 . S
C1221 C1216 1.379 . S
C1221 N1219 1.356 . S
N1222 C1214 1.356 . S
N1222 H1228 0.984 . S
N1222 H1229 0.984 . S
N1223 C1216 1.356 . S
N1223 H1226 0.984 . S
N1223 H1227 0.985 . S
H1224 N1219 0.984 . S
H1225 N1219 0.985 . S
H1226 N1223 0.984 . S
H1227 N1223 0.985 . S
H1228 N1222 0.984 . S
H1229 N1222 0.984 . S
H1230 N1218 0.984 . S
H1231 N1218 0.985 . S
C1232 C1233 1.363 . S
C1232 C1238 1.379 . S
C1232 N1240 1.356 . S
C1233 C1232 1.363 . S
C1233 C1239 1.363 . S
C1234 C1235 1.363 . S
C1234 C1239 1.379 1_556 S
C1234 N1241 1.356 1_655 S
C1235 C1234 1.363 . S
C1235 C1238 1.363 1_556 S
N1236 C1238 1.356 . S
N1236 H1248 0.984 . S
N1236 H1249 0.985 1_554 S
N1237 C1239 1.356 1_455 S
N1237 H1242 0.984 . S
N1237 H1243 0.985 . S
C1238 C1232 1.379 . S
C1238 C1235 1.363 1_554 S
C1238 N1236 1.356 . S
C1239 C1233 1.363 . S
C1239 C1234 1.379 1_554 S
C1239 N1237 1.356 1_655 S
N1240 C1232 1.356 . S
N1240 H1246 0.984 . S
N1240 H1247 0.984 . S
N1241 C1234 1.356 1_455 S
N1241 H1244 0.984 . S
N1241 H1245 0.985 . S
H1242 N1237 0.984 . S
H1243 N1237 0.985 . S
H1244 N1241 0.984 . S
H1245 N1241 0.985 . S
H1246 N1240 0.984 . S
H1247 N1240 0.984 . S
H1248 N1236 0.984 . S
H1249 N1236 0.985 1_556 S
C1250 C1251 1.363 . S
C1250 C1256 1.379 . S
C1250 N1258 1.356 . S
C1251 C1250 1.363 . S
C1251 C1257 1.363 . S
C1252 C1253 1.363 . S
C1252 C1257 1.379 . S
C1252 N1259 1.356 . S
C1253 C1252 1.363 . S
C1253 C1256 1.363 . S
N1254 C1256 1.356 . S
N1254 H1266 0.984 . S
N1254 H1267 0.985 . S
N1255 C1257 1.356 . S
N1255 H1260 0.984 . S
N1255 H1261 0.985 . S
C1256 C1250 1.379 . S
C1256 C1253 1.363 . S
C1256 N1254 1.356 . S
C1257 C1251 1.363 . S
C1257 C1252 1.379 . S
C1257 N1255 1.356 . S
N1258 C1250 1.356 . S
N1258 H1264 0.984 . S
N1258 H1265 0.984 . S
N1259 C1252 1.356 . S
N1259 H1262 0.984 . S
N1259 H1263 0.985 . S
H1260 N1255 0.984 . S
H1261 N1255 0.985 . S
H1262 N1259 0.984 . S
H1263 N1259 0.985 . S
H1264 N1258 0.984 . S
H1265 N1258 0.984 . S
H1266 N1254 0.984 . S
H1267 N1254 0.985 . S
C1268 C1269 1.363 . S
C1268 C1274 1.379 . S
C1268 N1276 1.356 . S
C1269 C1268 1.363 . S
C1269 C1275 1.363 . S
C1270 C1271 1.363 . S
C1270 C1275 1.379 . S
C1270 N1277 1.356 . S
C1271 C1270 1.363 . S
C1271 C1274 1.363 . S
N1272 C1274 1.356 . S
N1272 H1284 0.984 . S
N1272 H1285 0.985 . S
N1273 C1275 1.356 . S
N1273 H1278 0.984 . S
N1273 H1279 0.985 . S
C1274 C1268 1.379 . S
C1274 C1271 1.363 . S
C1274 N1272 1.356 . S
C1275 C1269 1.363 . S
C1275 C1270 1.379 . S
C1275 N1273 1.356 . S
N1276 C1268 1.356 . S
N1276 H1282 0.984 . S
N1276 H1283 0.984 . S
N1277 C1270 1.356 . S
N1277 H1280 0.984 . S
N1277 H1281 0.985 . S
H1278 N1273 0.984 . S
H1279 N1273 0.985 . S
H1280 N1277 0.984 . S
H1281 N1277 0.985 . S
H1282 N1276 0.984 . S
H1283 N1276 0.984 . S
H1284 N1272 0.984 . S
H1285 N1272 0.985 . S
C1286 C1287 1.363 . S
C1286 C1292 1.379 . S
C1286 N1294 1.356 . S
C1287 C1286 1.363 . S
C1287 C1293 1.363 . S
C1288 C1289 1.363 . S
C1288 C1293 1.379 . S
C1288 N1295 1.356 . S
C1289 C1288 1.363 . S
C1289 C1292 1.363 . S
N1290 C1292 1.356 . S
N1290 H1302 0.984 . S
N1290 H1303 0.985 . S
N1291 C1293 1.356 . S
N1291 H1296 0.984 . S
N1291 H1297 0.985 . S
C1292 C1286 1.379 . S
C1292 C1289 1.363 . S
C1292 N1290 1.356 . S
C1293 C1287 1.363 . S
C1293 C1288 1.379 . S
C1293 N1291 1.356 . S
N1294 C1286 1.356 . S
N1294 H1300 0.984 . S
N1294 H1301 0.984 . S
N1295 C1288 1.356 . S
N1295 H1298 0.984 . S
N1295 H1299 0.985 . S
H1296 N1291 0.984 . S
H1297 N1291 0.985 . S
H1298 N1295 0.984 . S
H1299 N1295 0.985 . S
H1300 N1294 0.984 . S
H1301 N1294 0.984 . S
H1302 N1290 0.984 . S
H1303 N1290 0.985 . S
C1304 C1305 1.363 . S
C1304 C1310 1.379 . S
C1304 N1312 1.356 . S
C1305 C1304 1.363 . S
C1305 C1311 1.363 . S
C1306 C1307 1.363 . S
C1306 C1311 1.379 . S
C1306 N1313 1.356 . S
C1307 C1306 1.363 . S
C1307 C1310 1.363 . S
N1308 C1310 1.356 . S
N1308 H1320 0.984 . S
N1308 H1321 0.985 . S
N1309 C1311 1.356 . S
N1309 H1314 0.984 . S
N1309 H1315 0.985 . S
C1310 C1304 1.379 . S
C1310 C1307 1.363 . S
C1310 N1308 1.356 . S
C1311 C1305 1.363 . S
C1311 C1306 1.379 . S
C1311 N1309 1.356 . S
N1312 C1304 1.356 . S
N1312 H1318 0.984 . S
N1312 H1319 0.984 . S
N1313 C1306 1.356 . S
N1313 H1316 0.984 . S
N1313 H1317 0.985 . S
H1314 N1309 0.984 . S
H1315 N1309 0.985 . S
H1316 N1313 0.984 . S
H1317 N1313 0.985 . S
H1318 N1312 0.984 . S
H1319 N1312 0.984 . S
H1320 N1308 0.984 . S
H1321 N1308 0.985 . S
C1322 C1323 1.363 . S
C1322 C1328 1.379 . S
C1322 N1330 1.356 . S
C1323 C1322 1.363 . S
C1323 C1329 1.363 . S
C1324 C1325 1.363 . S
C1324 C1329 1.379 . S
C1324 N1331 1.356 . S
C1325 C1324 1.363 . S
C1325 C1328 1.363 . S
N1326 C1328 1.356 . S
N1326 H1338 0.984 . S
N1326 H1339 0.985 . S
N1327 C1329 1.356 . S
N1327 H1332 0.984 . S
N1327 H1333 0.985 . S
C1328 C1322 1.379 . S
C1328 C1325 1.363 . S
C1328 N1326 1.356 . S
C1329 C1323 1.363 . S
C1329 C1324 1.379 . S
C1329 N1327 1.356 . S
N1330 C1322 1.356 . S
N1330 H1336 0.984 . S
N1330 H1337 0.984 . S
N1331 C1324 1.356 . S
N1331 H1334 0.984 . S
N1331 H1335 0.985 . S
H1332 N1327 0.984 . S
H1333 N1327 0.985 . S
H1334 N1331 0.984 . S
H1335 N1331 0.985 . S
H1336 N1330 0.984 . S
H1337 N1330 0.984 . S
H1338 N1326 0.984 . S
H1339 N1326 0.985 . S
C1340 C1341 1.363 1_545 S
C1340 C1346 1.379 . S
C1340 N1348 1.356 1_545 S
C1341 C1340 1.363 1_565 S
C1341 C1347 1.363 . S
C1342 C1343 1.363 1_565 S
C1342 C1347 1.379 . S
C1342 N1349 1.356 1_565 S
C1343 C1342 1.363 1_545 S
C1343 C1346 1.363 . S
N1344 C1346 1.356 . S
N1344 H1356 0.984 . S
N1344 H1357 0.985 . S
N1345 C1347 1.356 . S
N1345 H1350 0.984 . S
N1345 H1351 0.985 . S
C1346 C1340 1.379 . S
C1346 C1343 1.363 . S
C1346 N1344 1.356 . S
C1347 C1341 1.363 . S
C1347 C1342 1.379 . S
C1347 N1345 1.356 . S
N1348 C1340 1.356 1_565 S
N1348 H1354 0.984 1_565 S
N1348 H1355 0.984 . S
N1349 C1342 1.356 1_545 S
N1349 H1352 0.984 . S
N1349 H1353 0.985 1_545 S
H1350 N1345 0.984 . S
H1351 N1345 0.985 . S
H1352 N1349 0.984 . S
H1353 N1349 0.985 1_565 S
H1354 N1348 0.984 1_545 S
H1355 N1348 0.984 . S
H1356 N1344 0.984 . S
H1357 N1344 0.985 . S
C1358 C1359 1.363 1_554 S
C1358 C1364 1.379 1_545 S
C1358 N1366 1.356 1_554 S
C1359 C1358 1.363 1_556 S
C1359 C1365 1.363 1_456 S
C1360 C1361 1.363 1_655 S
C1360 C1365 1.379 1_565 S
C1360 N1367 1.356 . S
C1361 C1360 1.363 1_455 S
C1361 C1364 1.363 . S
N1362 C1364 1.356 . S
N1362 H1374 0.984 . S
N1362 H1375 0.985 . S
N1363 C1365 1.356 1_556 S
N1363 H1368 0.984 . S
N1363 H1369 0.985 . S
C1364 C1358 1.379 1_565 S
C1364 C1361 1.363 . S
C1364 N1362 1.356 . S
C1365 C1359 1.363 1_654 S
C1365 C1360 1.379 1_545 S
C1365 N1363 1.356 1_554 S
N1366 C1358 1.356 1_556 S
N1366 H1372 0.984 1_556 S
N1366 H1373 0.984 . S
N1367 C1360 1.356 . S
N1367 H1370 0.984 . S
N1367 H1371 0.985 . S
H1368 N1363 0.984 . S
H1369 N1363 0.985 . S
H1370 N1367 0.984 . S
H1371 N1367 0.985 . S
H1372 N1366 0.984 1_554 S
H1373 N1366 0.984 . S
H1374 N1362 0.984 . S
H1375 N1362 0.985 . S
C1376 C1377 1.363 . S
C1376 C1382 1.379 . S
C1376 N1384 1.356 . S
C1377 C1376 1.363 . S
C1377 C1383 1.363 . S
C1378 C1379 1.363 . S
C1378 C1383 1.379 . S
C1378 N1385 1.356 . S
C1379 C1378 1.363 . S
C1379 C1382 1.363 . S
N1380 C1382 1.356 . S
N1380 H1392 0.984 . S
N1380 H1393 0.985 . S
N1381 C1383 1.356 . S
N1381 H1386 0.984 . S
N1381 H1387 0.985 1_455 S
C1382 C1376 1.379 . S
C1382 C1379 1.363 . S
C1382 N1380 1.356 . S
C1383 C1377 1.363 . S
C1383 C1378 1.379 . S
C1383 N1381 1.356 . S
N1384 C1376 1.356 . S
N1384 H1390 0.984 . S
N1384 H1391 0.984 . S
N1385 C1378 1.356 . S
N1385 H1388 0.984 . S
N1385 H1389 0.985 1_455 S
H1386 N1381 0.984 . S
H1387 N1381 0.985 1_655 S
H1388 N1385 0.984 . S
H1389 N1385 0.985 1_655 S
H1390 N1384 0.984 . S
H1391 N1384 0.984 . S
H1392 N1380 0.984 . S
H1393 N1380 0.985 . S
C1394 C1395 1.363 . S
C1394 C1400 1.379 . S
C1394 N1402 1.356 . S
C1395 C1394 1.363 . S
C1395 C1401 1.363 . S
C1396 C1397 1.363 . S
C1396 C1401 1.379 . S
C1396 N1403 1.356 . S
C1397 C1396 1.363 . S
C1397 C1400 1.363 . S
N1398 C1400 1.356 . S
N1398 H1410 0.984 . S
N1398 H1411 0.985 . S
N1399 C1401 1.356 . S
N1399 H1404 0.984 . S
N1399 H1405 0.985 . S
C1400 C1394 1.379 . S
C1400 C1397 1.363 . S
C1400 N1398 1.356 . S
C1401 C1395 1.363 . S
C1401 C1396 1.379 . S
C1401 N1399 1.356 . S
N1402 C1394 1.356 . S
N1402 H1408 0.984 . S
N1402 H1409 0.984 . S
N1403 C1396 1.356 . S
N1403 H1406 0.984 . S
N1403 H1407 0.985 . S
H1404 N1399 0.984 . S
H1405 N1399 0.985 . S
H1406 N1403 0.984 . S
H1407 N1403 0.985 . S
H1408 N1402 0.984 . S
H1409 N1402 0.984 . S
H1410 N1398 0.984 . S
H1411 N1398 0.985 . S
C1412 C1413 1.363 . S
C1412 C1418 1.379 1_554 S
C1412 N1420 1.356 . S
C1413 C1412 1.363 . S
C1413 C1419 1.363 . S
C1414 C1415 1.363 1_554 S
C1414 C1419 1.379 . S
C1414 N1421 1.356 . S
C1415 C1414 1.363 1_556 S
C1415 C1418 1.363 . S
N1416 C1418 1.356 . S
N1416 H1428 0.984 . S
N1416 H1429 0.985 . S
N1417 C1419 1.356 . S
N1417 H1422 0.984 . S
N1417 H1423 0.985 . S
C1418 C1412 1.379 1_556 S
C1418 C1415 1.363 . S
C1418 N1416 1.356 . S
C1419 C1413 1.363 . S
C1419 C1414 1.379 . S
C1419 N1417 1.356 . S
N1420 C1412 1.356 . S
N1420 H1426 0.984 1_554 S
N1420 H1427 0.984 . S
N1421 C1414 1.356 . S
N1421 H1424 0.984 . S
N1421 H1425 0.985 . S
H1422 N1417 0.984 . S
H1423 N1417 0.985 . S
H1424 N1421 0.984 . S
H1425 N1421 0.985 . S
H1426 N1420 0.984 1_556 S
H1427 N1420 0.984 . S
H1428 N1416 0.984 . S
H1429 N1416 0.985 . S
C1430 C1431 1.363 . S
C1430 C1436 1.379 . S
C1430 N1438 1.356 . S
C1431 C1430 1.363 . S
C1431 C1437 1.363 . S
C1432 C1433 1.363 . S
C1432 C1437 1.379 . S
C1432 N1439 1.356 . S
C1433 C1432 1.363 . S
C1433 C1436 1.363 . S
N1434 C1436 1.356 . S
N1434 H1446 0.984 . S
N1434 H1447 0.985 . S
N1435 C1437 1.356 . S
N1435 H1440 0.984 . S
N1435 H1441 0.985 . S
C1436 C1430 1.379 . S
C1436 C1433 1.363 . S
C1436 N1434 1.356 . S
C1437 C1431 1.363 . S
C1437 C1432 1.379 . S
C1437 N1435 1.356 . S
N1438 C1430 1.356 . S
N1438 H1444 0.984 . S
N1438 H1445 0.984 . S
N1439 C1432 1.356 . S
N1439 H1442 0.984 . S
N1439 H1443 0.985 . S
H1440 N1435 0.984 . S
H1441 N1435 0.985 . S
H1442 N1439 0.984 . S
H1443 N1439 0.985 . S
H1444 N1438 0.984 . S
H1445 N1438 0.984 . S
H1446 N1434 0.984 . S
H1447 N1434 0.985 . S
C1448 C1449 1.363 . S
C1448 C1454 1.379 . S
C1448 N1456 1.356 . S
C1449 C1448 1.363 . S
C1449 C1455 1.363 . S
C1450 C1451 1.363 . S
C1450 C1455 1.379 . S
C1450 N1457 1.356 . S
C1451 C1450 1.363 . S
C1451 C1454 1.363 . S
N1452 C1454 1.356 . S
N1452 H1464 0.984 . S
N1452 H1465 0.985 . S
N1453 C1455 1.356 . S
N1453 H1458 0.984 . S
N1453 H1459 0.985 . S
C1454 C1448 1.379 . S
C1454 C1451 1.363 . S
C1454 N1452 1.356 . S
C1455 C1449 1.363 . S
C1455 C1450 1.379 . S
C1455 N1453 1.356 . S
N1456 C1448 1.356 . S
N1456 H1462 0.984 . S
N1456 H1463 0.984 . S
N1457 C1450 1.356 . S
N1457 H1460 0.984 . S
N1457 H1461 0.985 . S
H1458 N1453 0.984 . S
H1459 N1453 0.985 . S
H1460 N1457 0.984 . S
H1461 N1457 0.985 . S
H1462 N1456 0.984 . S
H1463 N1456 0.984 . S
H1464 N1452 0.984 . S
H1465 N1452 0.985 . S
C1466 C1467 1.363 . S
C1466 C1472 1.379 . S
C1466 N1474 1.356 . S
C1467 C1466 1.363 . S
C1467 C1473 1.363 . S
C1468 C1469 1.363 . S
C1468 C1473 1.379 . S
C1468 N1475 1.356 . S
C1469 C1468 1.363 . S
C1469 C1472 1.363 . S
N1470 C1472 1.356 . S
N1470 H1482 0.984 . S
N1470 H1483 0.985 . S
N1471 C1473 1.356 . S
N1471 H1476 0.984 . S
N1471 H1477 0.985 . S
C1472 C1466 1.379 . S
C1472 C1469 1.363 . S
C1472 N1470 1.356 . S
C1473 C1467 1.363 . S
C1473 C1468 1.379 . S
C1473 N1471 1.356 . S
N1474 C1466 1.356 . S
N1474 H1480 0.984 . S
N1474 H1481 0.984 . S
N1475 C1468 1.356 . S
N1475 H1478 0.984 . S
N1475 H1479 0.985 . S
H1476 N1471 0.984 . S
H1477 N1471 0.985 . S
H1478 N1475 0.984 . S
H1479 N1475 0.985 . S
H1480 N1474 0.984 . S
H1481 N1474 0.984 . S
H1482 N1470 0.984 . S
H1483 N1470 0.985 . S
C1484 C1485 1.363 1_545 S
C1484 C1490 1.379 . S
C1484 N1492 1.356 1_545 S
C1485 C1484 1.363 1_565 S
C1485 C1491 1.363 . S
C1486 C1487 1.363 1_565 S
C1486 C1491 1.379 1_556 S
C1486 N1493 1.356 1_565 S
C1487 C1486 1.363 1_545 S
C1487 C1490 1.363 1_556 S
N1488 C1490 1.356 . S
N1488 H1500 0.984 . S
N1488 H1501 0.985 . S
N1489 C1491 1.356 . S
N1489 H1494 0.984 . S
N1489 H1495 0.985 1_554 S
C1490 C1484 1.379 . S
C1490 C1487 1.363 1_554 S
C1490 N1488 1.356 . S
C1491 C1485 1.363 . S
C1491 C1486 1.379 1_554 S
C1491 N1489 1.356 . S
N1492 C1484 1.356 1_565 S
N1492 H1498 0.984 1_565 S
N1492 H1499 0.984 . S
N1493 C1486 1.356 1_545 S
N1493 H1496 0.984 . S
N1493 H1497 0.985 1_545 S
H1494 N1489 0.984 . S
H1495 N1489 0.985 1_556 S
H1496 N1493 0.984 . S
H1497 N1493 0.985 1_565 S
H1498 N1492 0.984 1_545 S
H1499 N1492 0.984 . S
H1500 N1488 0.984 . S
H1501 N1488 0.985 . S
C1502 C1503 1.363 . S
C1502 C1508 1.379 . S
C1502 N1510 1.356 . S
C1503 C1502 1.363 . S
C1503 C1509 1.363 1_545 S
C1504 C1505 1.363 . S
C1504 C1509 1.379 . S
C1504 N1511 1.356 . S
C1505 C1504 1.363 . S
C1505 C1508 1.363 1_565 S
N1506 C1508 1.353 1_565 S
N1506 H1518 0.966 1_565 S
N1506 H1519 1.006 . S
N1507 C1509 1.353 1_545 S
N1507 H1512 1.006 . S
N1507 H1513 0.966 1_545 S
C1508 C1502 1.379 . S
C1508 C1505 1.363 1_545 S
C1508 N1506 1.353 1_545 S
C1509 C1503 1.363 1_565 S
C1509 C1504 1.379 . S
C1509 N1507 1.353 1_565 S
N1510 C1502 1.356 . S
N1510 H1516 0.984 . S
N1510 H1517 0.984 . S
N1511 C1504 1.356 . S
N1511 H1514 0.984 . S
N1511 H1515 0.985 . S
H1512 N1507 1.006 . S
H1513 N1507 0.966 1_565 S
H1514 N1511 0.984 . S
H1515 N1511 0.985 . S
H1516 N1510 0.984 . S
H1517 N1510 0.984 . S
H1518 N1506 0.966 1_545 S
H1519 N1506 1.006 . S
C945 C564 1.877 . S
C947 C33 1.877 . S
C963 C859 1.877 . S
C965 C92 1.877 . S
C981 C151 1.877 . S
C983 C505 1.877 . S
C999 C210 1.878 1_556 S
C1001 C918 1.878 . S
C1017 C269 1.877 . S
C1019 C623 1.877 1_556 S
C1035 C800 1.877 . S
C1037 C328 1.877 . S
C1053 C682 1.877 . S
C1055 C387 1.877 . S
C1071 C446 1.877 . S
C1073 C741 1.877 . S
C1089 C288 1.527 . S
C1091 C229 1.527 . S
C1107 C760 1.526 . S
C1109 C524 1.526 . S
C1125 C406 1.526 . S
C1127 C111 1.526 . S
C1143 C583 1.526 . S
C1145 C819 1.526 . S
C1161 C52 1.526 . S
C1163 C347 1.526 . S
C1179 C937 1.526 . S
C1181 C642 1.526 . S
C1197 C465 1.527 . S
C1199 C170 1.527 . S
C1215 C701 1.526 . S
C1217 C878 1.526 . S
C1233 C3 0.778 . S
C1235 C239 0.778 . S
C1251 C298 0.778 . S
C1253 C62 0.778 . S
C1269 C357 0.778 . S
C1271 C121 0.778 . S
C1287 C180 0.778 . S
C1289 C416 0.778 . S
C1305 C593 0.778 . S
C1307 C475 0.778 . S
C1323 C652 0.778 . S
C1325 C534 0.778 . S
C1341 C829 0.778 . S
C1343 C711 0.778 . S
C1359 C888 0.778 . S
C1361 C770 0.778 . S
C1377 C241 1.923 . S
C1379 C5 1.923 . S
C1395 C300 1.923 . S
C1397 C64 1.923 . S
C1413 C359 1.923 . S
C1415 C123 1.923 . S
C1431 C182 1.923 . S
C1433 C418 1.923 . S
C1449 C477 1.923 . S
C1451 C595 1.923 . S
C1467 C654 1.923 . S
C1469 C536 1.923 . S
C1485 C831 1.923 . S
C1487 C713 1.923 . S
C1503 C890 1.923 . S
C1505 C772 1.923 . S
