# Generated by pormake.
# Topology dei, (4)-cn, num edge types: 1
# Building blocks:
#     Node 0, Type 0, BuildingBlock: NAHDIM_clean_sbu_0, # of connection points: 4
#     Node 1, Type 0, BuildingBlock: NAHDIM_clean_sbu_0, # of connection points: 4
#     Node 2, Type 0, BuildingBlock: NAHDIM_clean_sbu_0, # of connection points: 4
#     Node 3, Type 0, BuildingBlock: NAHDIM_clean_sbu_0, # of connection points: 4
#     Node 4, Type 0, BuildingBlock: NAHDIM_clean_sbu_0, # of connection points: 4
#     Node 5, Type 0, BuildingBlock: NAHDIM_clean_sbu_0, # of connection points: 4
#     Node 6, Type 0, BuildingBlock: NAHDIM_clean_sbu_0, # of connection points: 4
#     Node 7, Type 0, BuildingBlock: NAHDIM_clean_sbu_0, # of connection points: 4
#     Node 8, Type 0, BuildingBlock: NAHDIM_clean_sbu_0, # of connection points: 4
#     Node 9, Type 0, BuildingBlock: NAHDIM_clean_sbu_0, # of connection points: 4
#     Node 10, Type 0, BuildingBlock: NAHDIM_clean_sbu_0, # of connection points: 4
#     Node 11, Type 0, BuildingBlock: NAHDIM_clean_sbu_0, # of connection points: 4
#     Node 12, Type 0, BuildingBlock: NAHDIM_clean_sbu_0, # of connection points: 4
#     Node 13, Type 0, BuildingBlock: NAHDIM_clean_sbu_0, # of connection points: 4
#     Node 14, Type 0, BuildingBlock: NAHDIM_clean_sbu_0, # of connection points: 4
#     Node 15, Type 0, BuildingBlock: NAHDIM_clean_sbu_0, # of connection points: 4
#     Node 16, Type 0, BuildingBlock: NAHDIM_clean_sbu_0, # of connection points: 4
#     Node 17, Type 0, BuildingBlock: NAHDIM_clean_sbu_0, # of connection points: 4
#     Node 18, Type 0, BuildingBlock: NAHDIM_clean_sbu_0, # of connection points: 4
#     Node 19, Type 0, BuildingBlock: NAHDIM_clean_sbu_0, # of connection points: 4
#     Node 20, Type 0, BuildingBlock: NAHDIM_clean_sbu_0, # of connection points: 4
#     Node 21, Type 0, BuildingBlock: NAHDIM_clean_sbu_0, # of connection points: 4
#     Node 22, Type 0, BuildingBlock: NAHDIM_clean_sbu_0, # of connection points: 4
#     Node 23, Type 0, BuildingBlock: NAHDIM_clean_sbu_0, # of connection points: 4
#     Node 24, Type 0, BuildingBlock: NAHDIM_clean_sbu_0, # of connection points: 4
#     Node 25, Type 0, BuildingBlock: NAHDIM_clean_sbu_0, # of connection points: 4
#     Node 26, Type 0, BuildingBlock: NAHDIM_clean_sbu_0, # of connection points: 4
#     Node 27, Type 0, BuildingBlock: NAHDIM_clean_sbu_0, # of connection points: 4
#     Node 28, Type 0, BuildingBlock: NAHDIM_clean_sbu_0, # of connection points: 4
#     Node 29, Type 0, BuildingBlock: NAHDIM_clean_sbu_0, # of connection points: 4
#     Node 30, Type 0, BuildingBlock: NAHDIM_clean_sbu_0, # of connection points: 4
#     Node 31, Type 0, BuildingBlock: NAHDIM_clean_sbu_0, # of connection points: 4
#     Edge 32, Type (0, 0), BuildingBlock: MIFKUJ_clean_linker_0, # of connection points: 2
#     Edge 33, Type (0, 0), BuildingBlock: MIFKUJ_clean_linker_0, # of connection points: 2
#     Edge 34, Type (0, 0), BuildingBlock: MIFKUJ_clean_linker_0, # of connection points: 2
#     Edge 35, Type (0, 0), BuildingBlock: MIFKUJ_clean_linker_0, # of connection points: 2
#     Edge 36, Type (0, 0), BuildingBlock: MIFKUJ_clean_linker_0, # of connection points: 2
#     Edge 37, Type (0, 0), BuildingBlock: MIFKUJ_clean_linker_0, # of connection points: 2
#     Edge 38, Type (0, 0), BuildingBlock: MIFKUJ_clean_linker_0, # of connection points: 2
#     Edge 39, Type (0, 0), BuildingBlock: MIFKUJ_clean_linker_0, # of connection points: 2
#     Edge 40, Type (0, 0), BuildingBlock: MIFKUJ_clean_linker_0, # of connection points: 2
#     Edge 41, Type (0, 0), BuildingBlock: MIFKUJ_clean_linker_0, # of connection points: 2
#     Edge 42, Type (0, 0), BuildingBlock: MIFKUJ_clean_linker_0, # of connection points: 2
#     Edge 43, Type (0, 0), BuildingBlock: MIFKUJ_clean_linker_0, # of connection points: 2
#     Edge 44, Type (0, 0), BuildingBlock: MIFKUJ_clean_linker_0, # of connection points: 2
#     Edge 45, Type (0, 0), BuildingBlock: MIFKUJ_clean_linker_0, # of connection points: 2
#     Edge 46, Type (0, 0), BuildingBlock: MIFKUJ_clean_linker_0, # of connection points: 2
#     Edge 47, Type (0, 0), BuildingBlock: MIFKUJ_clean_linker_0, # of connection points: 2
#     Edge 48, Type (0, 0), BuildingBlock: MIFKUJ_clean_linker_0, # of connection points: 2
#     Edge 49, Type (0, 0), BuildingBlock: MIFKUJ_clean_linker_0, # of connection points: 2
#     Edge 50, Type (0, 0), BuildingBlock: MIFKUJ_clean_linker_0, # of connection points: 2
#     Edge 51, Type (0, 0), BuildingBlock: MIFKUJ_clean_linker_0, # of connection points: 2
#     Edge 52, Type (0, 0), BuildingBlock: MIFKUJ_clean_linker_0, # of connection points: 2
#     Edge 53, Type (0, 0), BuildingBlock: MIFKUJ_clean_linker_0, # of connection points: 2
#     Edge 54, Type (0, 0), BuildingBlock: MIFKUJ_clean_linker_0, # of connection points: 2
#     Edge 55, Type (0, 0), BuildingBlock: MIFKUJ_clean_linker_0, # of connection points: 2
#     Edge 56, Type (0, 0), BuildingBlock: MIFKUJ_clean_linker_0, # of connection points: 2
#     Edge 57, Type (0, 0), BuildingBlock: MIFKUJ_clean_linker_0, # of connection points: 2
#     Edge 58, Type (0, 0), BuildingBlock: MIFKUJ_clean_linker_0, # of connection points: 2
#     Edge 59, Type (0, 0), BuildingBlock: MIFKUJ_clean_linker_0, # of connection points: 2
#     Edge 60, Type (0, 0), BuildingBlock: MIFKUJ_clean_linker_0, # of connection points: 2
#     Edge 61, Type (0, 0), BuildingBlock: MIFKUJ_clean_linker_0, # of connection points: 2
#     Edge 62, Type (0, 0), BuildingBlock: MIFKUJ_clean_linker_0, # of connection points: 2
#     Edge 63, Type (0, 0), BuildingBlock: MIFKUJ_clean_linker_0, # of connection points: 2
#     Edge 64, Type (0, 0), BuildingBlock: MIFKUJ_clean_linker_0, # of connection points: 2
#     Edge 65, Type (0, 0), BuildingBlock: MIFKUJ_clean_linker_0, # of connection points: 2
#     Edge 66, Type (0, 0), BuildingBlock: MIFKUJ_clean_linker_0, # of connection points: 2
#     Edge 67, Type (0, 0), BuildingBlock: MIFKUJ_clean_linker_0, # of connection points: 2
#     Edge 68, Type (0, 0), BuildingBlock: MIFKUJ_clean_linker_0, # of connection points: 2
#     Edge 69, Type (0, 0), BuildingBlock: MIFKUJ_clean_linker_0, # of connection points: 2
#     Edge 70, Type (0, 0), BuildingBlock: MIFKUJ_clean_linker_0, # of connection points: 2
#     Edge 71, Type (0, 0), BuildingBlock: MIFKUJ_clean_linker_0, # of connection points: 2
#     Edge 72, Type (0, 0), BuildingBlock: MIFKUJ_clean_linker_0, # of connection points: 2
#     Edge 73, Type (0, 0), BuildingBlock: MIFKUJ_clean_linker_0, # of connection points: 2
#     Edge 74, Type (0, 0), BuildingBlock: MIFKUJ_clean_linker_0, # of connection points: 2
#     Edge 75, Type (0, 0), BuildingBlock: MIFKUJ_clean_linker_0, # of connection points: 2
#     Edge 76, Type (0, 0), BuildingBlock: MIFKUJ_clean_linker_0, # of connection points: 2
#     Edge 77, Type (0, 0), BuildingBlock: MIFKUJ_clean_linker_0, # of connection points: 2
#     Edge 78, Type (0, 0), BuildingBlock: MIFKUJ_clean_linker_0, # of connection points: 2
#     Edge 79, Type (0, 0), BuildingBlock: MIFKUJ_clean_linker_0, # of connection points: 2
#     Edge 80, Type (0, 0), BuildingBlock: MIFKUJ_clean_linker_0, # of connection points: 2
#     Edge 81, Type (0, 0), BuildingBlock: MIFKUJ_clean_linker_0, # of connection points: 2
#     Edge 82, Type (0, 0), BuildingBlock: MIFKUJ_clean_linker_0, # of connection points: 2
#     Edge 83, Type (0, 0), BuildingBlock: MIFKUJ_clean_linker_0, # of connection points: 2
#     Edge 84, Type (0, 0), BuildingBlock: MIFKUJ_clean_linker_0, # of connection points: 2
#     Edge 85, Type (0, 0), BuildingBlock: MIFKUJ_clean_linker_0, # of connection points: 2
#     Edge 86, Type (0, 0), BuildingBlock: MIFKUJ_clean_linker_0, # of connection points: 2
#     Edge 87, Type (0, 0), BuildingBlock: MIFKUJ_clean_linker_0, # of connection points: 2
#     Edge 88, Type (0, 0), BuildingBlock: MIFKUJ_clean_linker_0, # of connection points: 2
#     Edge 89, Type (0, 0), BuildingBlock: MIFKUJ_clean_linker_0, # of connection points: 2
#     Edge 90, Type (0, 0), BuildingBlock: MIFKUJ_clean_linker_0, # of connection points: 2
#     Edge 91, Type (0, 0), BuildingBlock: MIFKUJ_clean_linker_0, # of connection points: 2
#     Edge 92, Type (0, 0), BuildingBlock: MIFKUJ_clean_linker_0, # of connection points: 2
#     Edge 93, Type (0, 0), BuildingBlock: MIFKUJ_clean_linker_0, # of connection points: 2
#     Edge 94, Type (0, 0), BuildingBlock: MIFKUJ_clean_linker_0, # of connection points: 2
#     Edge 95, Type (0, 0), BuildingBlock: MIFKUJ_clean_linker_0, # of connection points: 2
# Relax obj value: 0.226
# Max RMSD: 0.088
# Mean RMSD: 0.088
data_MOF--net-dei--node1-NAHDIM_clean_sbu_0--edge1-MIFKUJ_clean_linker_0
_symmetry_space_group_name_H-M    P1
_symmetry_Int_Tables_number       1
_symmetry_cell_setting            triclinic
loop_
_symmetry_equiv_pos_as_xyz
'x, y, z'
_cell_length_a     68.351903
_cell_length_b     68.352727
_cell_length_c     120.97557
_cell_angle_alpha  89.996082
_cell_angle_beta   89.991336
_cell_angle_gamma 89.988354
loop_
_atom_site_label
_atom_site_type_symbol
_atom_site_fract_x
_atom_site_fract_y
_atom_site_fract_z
_atom_type_partial_charge
C0 C 0.1525 0.5759 0.04296 0.0
O1 O 0.15649 0.57501 0.05357 0.0
O2 O 0.13545 0.60652 0.06483 0.0
Zn3 Zn 0.12976 0.61061 0.0487 0.0
O4 O 0.10042 0.61058 0.04659 0.0
C5 C 0.15667 0.64338 0.04772 0.0
O6 O 0.16683 0.63311 0.05489 0.0
O7 O 0.14164 0.58954 0.03933 0.0
C8 C 0.09101 0.62602 0.04408 0.0
O9 O 0.10062 0.64247 0.04268 0.0
C10 C 0.13007 0.6198 0.07151 0.0
O11 O 0.12119 0.63539 0.06761 0.0
O12 O 0.14078 0.63646 0.04394 0.0
C13 C 0.6685 0.92109 0.28627 0.0
O14 O 0.66861 0.92909 0.29614 0.0
O15 O 0.6418 0.90589 0.31034 0.0
Zn16 Zn 0.63621 0.89745 0.29473 0.0
O17 O 0.63676 0.86807 0.294 0.0
C18 C 0.60295 0.92338 0.29244 0.0
O19 O 0.61453 0.93619 0.29721 0.0
O20 O 0.65601 0.90791 0.28404 0.0
C21 C 0.62395 0.85821 0.29919 0.0
O22 O 0.61063 0.8675 0.305 0.0
C23 C 0.65479 0.89719 0.31602 0.0
O24 O 0.66504 0.88311 0.31142 0.0
O25 O 0.60932 0.90628 0.29046 0.0
C26 C 0.3385 0.42797 0.54 0.0
O27 O 0.34243 0.43351 0.55015 0.0
O28 O 0.34621 0.39482 0.56326 0.0
Zn29 Zn 0.35276 0.38989 0.54728 0.0
O30 O 0.38207 0.38924 0.54546 0.0
C31 C 0.32813 0.35537 0.54769 0.0
O32 O 0.31927 0.36446 0.55585 0.0
O33 O 0.3415 0.41032 0.53719 0.0
C34 C 0.39143 0.37379 0.54797 0.0
O35 O 0.38173 0.3586 0.55176 0.0
C36 C 0.35728 0.40506 0.5694 0.0
O37 O 0.3729 0.41329 0.5651 0.0
O38 O 0.34233 0.36366 0.5428 0.0
C39 C 0.83397 0.08022 0.7856 0.0
O40 O 0.83063 0.07596 0.79601 0.0
O41 O 0.8625 0.0921 0.80957 0.0
Zn42 Zn 0.86801 0.10121 0.79407 0.0
O43 O 0.86686 0.13063 0.79361 0.0
C44 C 0.90179 0.07636 0.79311 0.0
O45 O 0.89029 0.0644 0.7986 0.0
O46 O 0.84889 0.09034 0.78306 0.0
C47 C 0.87668 0.14059 0.80054 0.0
O48 O 0.88741 0.13138 0.8079 0.0
C49 C 0.85003 0.10059 0.8157 0.0
O50 O 0.8397 0.11513 0.81165 0.0
O51 O 0.89521 0.09289 0.79007 0.0
C52 C 0.15463 0.42701 0.96342 0.0
O53 O 0.14784 0.43247 0.95374 0.0
O54 O 0.14595 0.39365 0.94039 0.0
Zn55 Zn 0.14075 0.38891 0.95657 0.0
O56 O 0.11163 0.38909 0.95899 0.0
C57 C 0.16514 0.35439 0.95584 0.0
O58 O 0.17426 0.36405 0.948 0.0
O59 O 0.15343 0.40915 0.96623 0.0
C60 C 0.10164 0.37588 0.95422 0.0
O61 O 0.11076 0.3627 0.94822 0.0
C62 C 0.1341 0.40357 0.93453 0.0
O63 O 0.11882 0.41168 0.93927 0.0
O64 O 0.15073 0.36233 0.96073 0.0
C65 C 0.82593 0.9031 0.21199 0.0
O66 O 0.82209 0.89244 0.20321 0.0
O67 O 0.86332 0.89913 0.19029 0.0
Zn68 Zn 0.86496 0.89213 0.20643 0.0
O69 O 0.86216 0.86294 0.20781 0.0
C70 C 0.89677 0.91802 0.2111 0.0
O71 O 0.88503 0.93072 0.20636 0.0
O72 O 0.8436 0.90532 0.21496 0.0
C73 C 0.86764 0.85379 0.21641 0.0
O74 O 0.87524 0.86366 0.22468 0.0
C75 C 0.87861 0.8982 0.18432 0.0
O76 O 0.89524 0.89291 0.18886 0.0
O77 O 0.89105 0.90048 0.21233 0.0
C78 C 0.33998 0.57584 0.45852 0.0
O79 O 0.34133 0.57235 0.44787 0.0
O80 O 0.35349 0.60845 0.43667 0.0
Zn81 Zn 0.35805 0.61306 0.45292 0.0
O82 O 0.38727 0.6131 0.45552 0.0
C83 C 0.3313 0.64589 0.45283 0.0
O84 O 0.32157 0.63506 0.44574 0.0
O85 O 0.34587 0.59215 0.4623 0.0
C86 C 0.39691 0.62892 0.45655 0.0
O87 O 0.38757 0.64571 0.45622 0.0
C88 C 0.36081 0.62109 0.43017 0.0
O89 O 0.37022 0.63608 0.4344 0.0
O90 O 0.34692 0.63922 0.4571 0.0
C91 C 0.67519 0.08725 0.71135 0.0
O92 O 0.67721 0.09351 0.70115 0.0
O93 O 0.63761 0.09988 0.69221 0.0
Zn94 Zn 0.637 0.10381 0.70867 0.0
O95 O 0.63922 0.13263 0.7119 0.0
C96 C 0.60469 0.07742 0.71216 0.0
O97 O 0.61634 0.06468 0.70739 0.0
O98 O 0.65888 0.08957 0.71622 0.0
C99 C 0.64984 0.14369 0.70596 0.0
O100 O 0.65981 0.13604 0.69774 0.0
C101 C 0.62381 0.10769 0.68673 0.0
O102 O 0.61023 0.11753 0.69204 0.0
O103 O 0.61089 0.09463 0.714 0.0
C104 C 0.84016 0.4289 0.95603 0.0
O105 O 0.85058 0.43419 0.94742 0.0
O106 O 0.84789 0.39596 0.93275 0.0
Zn107 Zn 0.85239 0.39084 0.94897 0.0
O108 O 0.88131 0.39168 0.95209 0.0
C109 C 0.83104 0.35438 0.9468 0.0
O110 O 0.82376 0.36276 0.93794 0.0
O111 O 0.83857 0.41082 0.95831 0.0
C112 C 0.89196 0.37851 0.94775 0.0
O113 O 0.88368 0.36513 0.94151 0.0
C114 C 0.86003 0.40565 0.92696 0.0
O115 O 0.87567 0.41298 0.93172 0.0
O116 O 0.84298 0.36383 0.95282 0.0
C117 C 0.32772 0.10401 0.70675 0.0
O118 O 0.32533 0.11803 0.69944 0.0
O119 O 0.36218 0.09955 0.68226 0.0
Zn120 Zn 0.36581 0.10734 0.69823 0.0
O121 O 0.36442 0.13683 0.69936 0.0
C122 C 0.39816 0.08137 0.70415 0.0
O123 O 0.38611 0.06715 0.7015 0.0
O124 O 0.34445 0.09611 0.7077 0.0
C125 C 0.37245 0.14781 0.69219 0.0
O126 O 0.38193 0.13981 0.68391 0.0
C127 C 0.377 0.09718 0.67605 0.0
O128 O 0.3946 0.09899 0.68029 0.0
O129 O 0.39229 0.09898 0.70363 0.0
C130 C 0.65711 0.57626 0.46317 0.0
O131 O 0.64742 0.57312 0.45396 0.0
O132 O 0.65224 0.61314 0.44201 0.0
Zn133 Zn 0.64655 0.61564 0.45829 0.0
O134 O 0.6173 0.61456 0.46017 0.0
C135 C 0.67428 0.64643 0.46314 0.0
O136 O 0.68695 0.6342 0.45879 0.0
O137 O 0.65892 0.59367 0.46668 0.0
C138 C 0.60723 0.62997 0.45868 0.0
O139 O 0.61624 0.64637 0.45621 0.0
C140 C 0.65368 0.62821 0.43591 0.0
O141 O 0.65207 0.64564 0.44038 0.0
O142 O 0.65647 0.64133 0.46398 0.0
C143 C 0.17383 0.90251 0.20955 0.0
O144 O 0.17716 0.89496 0.19974 0.0
O145 O 0.1385 0.89378 0.18849 0.0
Zn146 Zn 0.13525 0.88901 0.20479 0.0
O147 O 0.13722 0.85985 0.20729 0.0
C148 C 0.10201 0.91489 0.20604 0.0
O149 O 0.11265 0.92572 0.19938 0.0
O150 O 0.15656 0.90214 0.21342 0.0
C151 C 0.12293 0.84943 0.21055 0.0
O152 O 0.1061 0.85787 0.21273 0.0
C153 C 0.12824 0.88321 0.18209 0.0
O154 O 0.11598 0.87055 0.18643 0.0
O155 O 0.10891 0.89882 0.20958 0.0
C156 C 0.81903 0.57775 0.0353 0.0
O157 O 0.81183 0.57617 0.04533 0.0
O158 O 0.83467 0.59967 0.06007 0.0
Zn159 Zn 0.84186 0.60919 0.04491 0.0
O160 O 0.87134 0.61022 0.04378 0.0
C161 C 0.82939 0.64721 0.05144 0.0
O162 O 0.83448 0.64023 0.06114 0.0
O163 O 0.83159 0.59098 0.03326 0.0
C164 C 0.88064 0.62523 0.04047 0.0
O165 O 0.87084 0.64089 0.03746 0.0
C166 C 0.84527 0.58786 0.06553 0.0
O167 O 0.86108 0.58059 0.06092 0.0
O168 O 0.83088 0.63631 0.04297 0.0
C169 C 0.17923 0.10278 0.78885 0.0
O170 O 0.18107 0.11714 0.796 0.0
O171 O 0.14452 0.10128 0.81292 0.0
Zn172 Zn 0.14067 0.10592 0.79668 0.0
O173 O 0.14045 0.13508 0.79449 0.0
C174 C 0.10797 0.0793 0.79601 0.0
O175 O 0.11876 0.06922 0.80297 0.0
O176 O 0.16265 0.09462 0.78775 0.0
C177 C 0.13465 0.14334 0.78567 0.0
O178 O 0.12851 0.13252 0.77739 0.0
C179 C 0.13278 0.1106 0.81913 0.0
O180 O 0.11918 0.12151 0.81454 0.0
O181 O 0.11466 0.09513 0.79201 0.0
C182 C 0.66414 0.41336 0.53378 0.0
O183 O 0.67026 0.41252 0.54406 0.0
O184 O 0.64511 0.3849 0.55605 0.0
Zn185 Zn 0.6401 0.37994 0.53989 0.0
O186 O 0.61077 0.37975 0.53786 0.0
C187 C 0.6666 0.34689 0.53976 0.0
O188 O 0.67665 0.3575 0.54681 0.0
O189 O 0.65166 0.40097 0.53037 0.0
C190 C 0.60087 0.36399 0.53791 0.0
O191 O 0.61001 0.34715 0.53876 0.0
C192 C 0.63948 0.37178 0.56278 0.0
O193 O 0.63163 0.35568 0.55885 0.0
O194 O 0.65102 0.35383 0.53559 0.0
C195 C 0.32838 0.91096 0.28691 0.0
O196 O 0.3236 0.90899 0.29737 0.0
O197 O 0.35848 0.89581 0.30968 0.0
Zn198 Zn 0.36447 0.89192 0.29355 0.0
O199 O 0.36317 0.86307 0.29039 0.0
C200 C 0.39735 0.9185 0.29268 0.0
O201 O 0.3851 0.93077 0.29737 0.0
O202 O 0.34514 0.90532 0.28368 0.0
C203 C 0.37143 0.85547 0.28202 0.0
O204 O 0.38091 0.86678 0.27507 0.0
C205 C 0.36696 0.884 0.31623 0.0
O206 O 0.37904 0.87093 0.31211 0.0
O207 O 0.39159 0.90135 0.29028 0.0
C208 C 0.64373 0.06756 0.53993 0.0
O209 O 0.6314 0.06289 0.54783 0.0
O210 O 0.63256 0.10214 0.56207 0.0
Zn211 Zn 0.63092 0.10601 0.54561 0.0
O212 O 0.60248 0.10413 0.5411 0.0
C213 C 0.65566 0.14051 0.54674 0.0
O214 O 0.66471 0.13081 0.5546 0.0
O215 O 0.6463 0.08548 0.53758 0.0
C216 C 0.59339 0.1185 0.53683 0.0
O217 O 0.60281 0.13495 0.53506 0.0
C218 C 0.62094 0.11207 0.56805 0.0
O219 O 0.60873 0.12426 0.56326 0.0
O220 O 0.64133 0.1326 0.54177 0.0
C221 C 0.16896 0.41899 0.78109 0.0
O222 O 0.15298 0.42965 0.78074 0.0
O223 O 0.14691 0.39772 0.81011 0.0
Zn224 Zn 0.14552 0.39137 0.79395 0.0
O225 O 0.14602 0.36209 0.79247 0.0
C226 C 0.11144 0.41618 0.79137 0.0
O227 O 0.11981 0.42661 0.79917 0.0
O228 O 0.16875 0.40267 0.78612 0.0
C229 C 0.13979 0.35357 0.78382 0.0
O230 O 0.13327 0.36418 0.77555 0.0
C231 C 0.1336 0.39104 0.81639 0.0
O232 O 0.11936 0.38067 0.81204 0.0
O233 O 0.12013 0.40109 0.78769 0.0
C234 C 0.84247 0.92761 0.03838 0.0
O235 O 0.85299 0.93249 0.04703 0.0
O236 O 0.85254 0.89713 0.06177 0.0
Zn237 Zn 0.85283 0.88914 0.04567 0.0
O238 O 0.88095 0.8859 0.041 0.0
C239 C 0.83269 0.85357 0.05193 0.0
O240 O 0.83368 0.86132 0.06185 0.0
O241 O 0.84004 0.90961 0.03617 0.0
C242 C 0.89025 0.87073 0.04404 0.0
O243 O 0.88102 0.85721 0.04974 0.0
C244 C 0.86765 0.90444 0.06631 0.0
O245 O 0.88327 0.90779 0.06028 0.0
O246 O 0.83933 0.86312 0.04373 0.0
C247 C 0.33799 0.58098 0.28227 0.0
O248 O 0.34016 0.57261 0.29197 0.0
O249 O 0.36287 0.60259 0.30571 0.0
Zn250 Zn 0.36843 0.6079 0.28968 0.0
O251 O 0.36734 0.63708 0.28755 0.0
C252 C 0.40074 0.58109 0.28885 0.0
O253 O 0.38832 0.56958 0.294 0.0
O254 O 0.34852 0.59563 0.27976 0.0
C255 C 0.37536 0.64573 0.27943 0.0
O256 O 0.38482 0.63536 0.27202 0.0
C257 C 0.37394 0.61159 0.31244 0.0
O258 O 0.38788 0.62281 0.30847 0.0
O259 O 0.39528 0.59813 0.28601 0.0
C260 C 0.67013 0.91555 0.46345 0.0
O261 O 0.67956 0.91559 0.45399 0.0
O262 O 0.65563 0.88982 0.43854 0.0
Zn263 Zn 0.64693 0.88357 0.45401 0.0
O264 O 0.61751 0.8835 0.45438 0.0
C265 C 0.6736 0.85082 0.45661 0.0
O266 O 0.68633 0.8625 0.45185 0.0
O267 O 0.65639 0.90335 0.46501 0.0
C268 C 0.60861 0.87628 0.46266 0.0
O269 O 0.6189 0.86895 0.47084 0.0
C270 C 0.64872 0.9047 0.43359 0.0
O271 O 0.63661 0.91628 0.43892 0.0
O272 O 0.65629 0.85687 0.45831 0.0
C273 C 0.33923 0.42356 0.7169 0.0
O274 O 0.34374 0.43444 0.70832 0.0
O275 O 0.36164 0.40582 0.69214 0.0
Zn276 Zn 0.36732 0.39648 0.70753 0.0
O277 O 0.36576 0.36706 0.7075 0.0
C278 C 0.40145 0.42104 0.70932 0.0
O279 O 0.39034 0.43368 0.70406 0.0
O280 O 0.34765 0.40715 0.7182 0.0
C281 C 0.3734 0.35766 0.69953 0.0
O282 O 0.38238 0.36739 0.69166 0.0
C283 C 0.34657 0.39948 0.68715 0.0
O284 O 0.33453 0.38774 0.69241 0.0
O285 O 0.39449 0.40439 0.71183 0.0
C286 C 0.8352 0.08068 0.96133 0.0
O287 O 0.82822 0.08089 0.95122 0.0
O288 O 0.8546 0.10635 0.93799 0.0
Zn289 Zn 0.85977 0.11303 0.9539 0.0
O290 O 0.88892 0.11385 0.95632 0.0
C291 C 0.83496 0.147 0.95147 0.0
O292 O 0.82741 0.13682 0.9433 0.0
O293 O 0.84826 0.09297 0.96409 0.0
C294 C 0.89866 0.12953 0.95503 0.0
O295 O 0.8895 0.14558 0.95204 0.0
C296 C 0.86372 0.09277 0.933 0.0
O297 O 0.87666 0.08234 0.93846 0.0
O298 O 0.84852 0.13951 0.95728 0.0
C299 C 0.16757 0.57362 0.21637 0.0
O300 O 0.16663 0.56785 0.20603 0.0
O301 O 0.14005 0.59463 0.19419 0.0
Zn302 Zn 0.13561 0.59967 0.21035 0.0
O303 O 0.137 0.62876 0.21272 0.0
C304 C 0.10121 0.57512 0.21084 0.0
O305 O 0.11203 0.56311 0.20496 0.0
O306 O 0.15567 0.5865 0.21985 0.0
C307 C 0.12616 0.63961 0.20677 0.0
O308 O 0.11449 0.6314 0.19949 0.0
C309 C 0.15318 0.604 0.18898 0.0
O310 O 0.16464 0.61602 0.19444 0.0
O311 O 0.10858 0.59105 0.21428 0.0
C312 C 0.33277 0.91277 0.46442 0.0
O313 O 0.32222 0.90843 0.45568 0.0
O314 O 0.35244 0.8876 0.4403 0.0
Zn315 Zn 0.35943 0.88291 0.45621 0.0
O316 O 0.38879 0.88294 0.45721 0.0
C317 C 0.33229 0.8511 0.4575 0.0
O318 O 0.32146 0.86312 0.45164 0.0
O319 O 0.34875 0.90377 0.46611 0.0
C320 C 0.39808 0.87478 0.46505 0.0
O321 O 0.38826 0.86604 0.47297 0.0
C322 C 0.35803 0.87432 0.43367 0.0
O323 O 0.36739 0.85906 0.43765 0.0
O324 O 0.3491 0.85664 0.4607 0.0
C325 C 0.82298 0.58737 0.21204 0.0
O326 O 0.8172 0.58988 0.20179 0.0
O327 O 0.85332 0.59821 0.18845 0.0
Zn328 Zn 0.85847 0.60599 0.20422 0.0
O329 O 0.85572 0.63518 0.20572 0.0
C330 C 0.89323 0.58221 0.20574 0.0
O331 O 0.88201 0.56888 0.20116 0.0
O332 O 0.84007 0.59276 0.21483 0.0
C333 C 0.86118 0.64365 0.21455 0.0
O334 O 0.86826 0.63304 0.22267 0.0
C335 C 0.84114 0.6075 0.1825 0.0
O336 O 0.83128 0.6221 0.18685 0.0
O337 O 0.88611 0.59893 0.20794 0.0
C338 C 0.15659 0.07577 0.96502 0.0
O339 O 0.14545 0.07271 0.95634 0.0
O340 O 0.15083 0.11148 0.9435 0.0
Zn341 Zn 0.14699 0.11511 0.95986 0.0
O342 O 0.11787 0.11521 0.96278 0.0
C343 C 0.17332 0.14812 0.95971 0.0
O344 O 0.18207 0.13825 0.95181 0.0
O345 O 0.15964 0.09321 0.96818 0.0
C346 C 0.1083 0.13107 0.96387 0.0
O347 O 0.11769 0.14783 0.96358 0.0
C348 C 0.14288 0.12391 0.93712 0.0
O349 O 0.13312 0.13857 0.94146 0.0
O350 O 0.15852 0.14075 0.9645 0.0
C351 C 0.67924 0.40418 0.70777 0.0
O352 O 0.68278 0.39336 0.69902 0.0
O353 O 0.64227 0.39674 0.68668 0.0
Zn354 Zn 0.64077 0.39144 0.70298 0.0
O355 O 0.6448 0.36251 0.70508 0.0
C356 C 0.60765 0.41621 0.70635 0.0
O357 O 0.61878 0.42869 0.70099 0.0
O358 O 0.66171 0.40601 0.71109 0.0
C359 C 0.63786 0.35291 0.71317 0.0
O360 O 0.62777 0.36215 0.7208 0.0
C361 C 0.63131 0.38615 0.68068 0.0
O362 O 0.6198 0.37329 0.68546 0.0
O363 O 0.6142 0.39921 0.70841 0.0
C364 C 0.32031 0.07998 0.53204 0.0
O365 O 0.31936 0.07868 0.54287 0.0
O366 O 0.34576 0.10688 0.55268 0.0
Zn367 Zn 0.34673 0.11246 0.53633 0.0
O368 O 0.37481 0.1092 0.53154 0.0
C369 C 0.32482 0.14803 0.53953 0.0
O370 O 0.31598 0.13765 0.54718 0.0
O371 O 0.33043 0.09353 0.52768 0.0
C372 C 0.38494 0.12286 0.52729 0.0
O373 O 0.37667 0.13986 0.52532 0.0
C374 C 0.36012 0.11279 0.55846 0.0
O375 O 0.37442 0.1223 0.55359 0.0
O376 O 0.33803 0.14006 0.53367 0.0
C377 C 0.67305 0.5886 0.29133 0.0
O378 O 0.67474 0.58743 0.30212 0.0
O379 O 0.64134 0.60602 0.31253 0.0
Zn380 Zn 0.63673 0.60923 0.29617 0.0
O381 O 0.63559 0.6381 0.29297 0.0
C382 C 0.60489 0.58104 0.29507 0.0
O383 O 0.61629 0.5701 0.30126 0.0
O384 O 0.65816 0.59695 0.28716 0.0
C385 C 0.62204 0.64795 0.29753 0.0
O386 O 0.60918 0.6388 0.30373 0.0
C387 C 0.65183 0.61866 0.31746 0.0
O388 O 0.65999 0.63272 0.31167 0.0
O389 O 0.61083 0.59776 0.29197 0.0
C390 C 0.1639 0.9129 0.03477 0.0
O391 O 0.17247 0.9102 0.04437 0.0
O392 O 0.14323 0.8856 0.05764 0.0
Zn393 Zn 0.13845 0.8808 0.04143 0.0
O394 O 0.10924 0.87961 0.03904 0.0
C395 C 0.16623 0.84879 0.04107 0.0
O396 O 0.17585 0.85952 0.04826 0.0
O397 O 0.14949 0.9022 0.03206 0.0
C398 C 0.0999 0.86352 0.03894 0.0
O399 O 0.10954 0.84701 0.04011 0.0
C400 C 0.13822 0.87202 0.06424 0.0
O401 O 0.13084 0.85582 0.06016 0.0
O402 O 0.15038 0.85525 0.03698 0.0
C403 C 0.83929 0.41498 0.7797 0.0
O404 O 0.84126 0.42423 0.78915 0.0
O405 O 0.86484 0.39942 0.80374 0.0
Zn406 Zn 0.86969 0.38955 0.78836 0.0
O407 O 0.86807 0.36016 0.78869 0.0
C408 C 0.90463 0.41294 0.7869 0.0
O409 O 0.89445 0.42504 0.79308 0.0
O410 O 0.84993 0.40016 0.77767 0.0
C411 C 0.8776 0.35102 0.79609 0.0
O412 O 0.88817 0.36107 0.80317 0.0
C413 C 0.85031 0.39342 0.80934 0.0
O414 O 0.83788 0.38118 0.80478 0.0
O415 O 0.89681 0.39707 0.78369 0.0
H416 H 0.17618 0.62561 0.17507 0.0
H417 H 0.17408 0.62733 0.15492 0.0
H418 H 0.12968 0.58249 0.15511 0.0
H419 H 0.13145 0.58085 0.17525 0.0
H420 H 0.17887 0.60213 0.13781 0.0
H421 H 0.0945 0.59516 0.13668 0.0
H422 H 0.06621 0.60163 0.14882 0.0
H423 H 0.09874 0.64623 0.16576 0.0
H424 H 0.1271 0.64023 0.15362 0.0
H425 H 0.14644 0.58878 0.08245 0.0
H426 H 0.15202 0.58555 0.10233 0.0
H427 H 0.12786 0.64314 0.10754 0.0
H428 H 0.12191 0.64635 0.08772 0.0
H429 H 0.11369 0.61853 0.12226 0.0
H430 H 0.17722 0.63514 0.10858 0.0
H431 H 0.20638 0.63199 0.09671 0.0
H432 H 0.21704 0.57445 0.10963 0.0
H433 H 0.18776 0.57716 0.12147 0.0
C434 C 0.16614 0.61592 0.17082 0.0
C435 C 0.15382 0.60325 0.17677 0.0
C436 C 0.16501 0.6169 0.1593 0.0
C437 C 0.15152 0.60526 0.15355 0.0
C438 C 0.13997 0.59183 0.15942 0.0
C439 C 0.14104 0.59088 0.17093 0.0
C440 C 0.14862 0.60802 0.14152 0.0
C441 C 0.16462 0.60564 0.13438 0.0
C442 C 0.13012 0.61308 0.13711 0.0
C443 C 0.11298 0.61709 0.14431 0.0
C444 C 0.09558 0.60641 0.14296 0.0
C445 C 0.07953 0.60999 0.14985 0.0
C446 C 0.0807 0.62429 0.15807 0.0
C447 C 0.09788 0.63511 0.15941 0.0
C448 C 0.11395 0.63161 0.15253 0.0
C449 C 0.14234 0.60077 0.08782 0.0
C450 C 0.13374 0.61783 0.08351 0.0
C451 C 0.14561 0.59893 0.09918 0.0
C452 C 0.14051 0.61418 0.10641 0.0
C453 C 0.13189 0.63119 0.10211 0.0
C454 C 0.12854 0.63301 0.09078 0.0
C455 C 0.14388 0.61233 0.11847 0.0
C456 C 0.12794 0.61491 0.12564 0.0
C457 C 0.16254 0.60794 0.12291 0.0
C458 C 0.18019 0.60629 0.11583 0.0
C459 C 0.18569 0.62176 0.10882 0.0
C460 C 0.20226 0.62006 0.10211 0.0
C461 C 0.21353 0.60301 0.1024 0.0
C462 C 0.20828 0.58764 0.10941 0.0
C463 C 0.19171 0.58926 0.11613 0.0
H464 H 0.22635 0.60172 0.09719 0.0
H465 H 0.06826 0.62704 0.16339 0.0
H466 H 0.63422 0.93347 0.42018 0.0
H467 H 0.63814 0.93644 0.40017 0.0
H468 H 0.67591 0.88588 0.40004 0.0
H469 H 0.67226 0.88291 0.42007 0.0
H470 H 0.68883 0.91438 0.38577 0.0
H471 H 0.62842 0.88077 0.39405 0.0
H472 H 0.5961 0.87698 0.40286 0.0
H473 H 0.57564 0.92879 0.38645 0.0
H474 H 0.60795 0.93304 0.37766 0.0
H475 H 0.67812 0.87856 0.33105 0.0
H476 H 0.67979 0.88426 0.35094 0.0
H477 H 0.63883 0.93197 0.34776 0.0
H478 H 0.63676 0.9261 0.32787 0.0
H479 H 0.62795 0.90818 0.36371 0.0
H480 H 0.68759 0.94001 0.35388 0.0
H481 H 0.71986 0.94348 0.34499 0.0
H482 H 0.74187 0.89524 0.36402 0.0
H483 H 0.70965 0.89129 0.37292 0.0
C484 C 0.64356 0.92312 0.41593 0.0
C485 C 0.65274 0.90781 0.4217 0.0
C486 C 0.64575 0.92483 0.40448 0.0
C487 C 0.65708 0.91121 0.39861 0.0
C488 C 0.66706 0.89652 0.40442 0.0
C489 C 0.66489 0.89479 0.41586 0.0
C490 C 0.65749 0.91143 0.38636 0.0
C491 C 0.67556 0.9129 0.38092 0.0
C492 C 0.64011 0.90993 0.38006 0.0
C493 C 0.62066 0.90734 0.3853 0.0
C494 C 0.61707 0.89144 0.39239 0.0
C495 C 0.59875 0.88919 0.39737 0.0
C496 C 0.58384 0.90267 0.39524 0.0
C497 C 0.58721 0.91839 0.38811 0.0
C498 C 0.60552 0.92072 0.38312 0.0
C499 C 0.66964 0.89042 0.33455 0.0
C500 C 0.65724 0.90182 0.32788 0.0
C501 C 0.6707 0.89374 0.34593 0.0
C502 C 0.65956 0.90866 0.35084 0.0
C503 C 0.64756 0.92039 0.34415 0.0
C504 C 0.64641 0.91702 0.33278 0.0
C505 C 0.65933 0.91105 0.36304 0.0
C506 C 0.64125 0.90996 0.3685 0.0
C507 C 0.67671 0.9129 0.36932 0.0
C508 C 0.69614 0.91526 0.36401 0.0
C509 C 0.69927 0.93004 0.35611 0.0
C510 C 0.71756 0.93211 0.35108 0.0
C511 C 0.73289 0.91956 0.35392 0.0
C512 C 0.72998 0.90494 0.36182 0.0
C513 C 0.71171 0.9028 0.36688 0.0
H514 H 0.74705 0.92119 0.35001 0.0
H515 H 0.56967 0.9009 0.3991 0.0
H516 H 0.31959 0.3833 0.67321 0.0
H517 H 0.31802 0.3866 0.65311 0.0
H518 H 0.36624 0.42728 0.65395 0.0
H519 H 0.36789 0.42413 0.67406 0.0
H520 H 0.33768 0.43806 0.63887 0.0
H521 H 0.37518 0.3814 0.64868 0.0
H522 H 0.3814 0.34998 0.65804 0.0
H523 H 0.33366 0.3237 0.6404 0.0
H524 H 0.32684 0.35513 0.63112 0.0
H525 H 0.37649 0.42759 0.58459 0.0
H526 H 0.37105 0.42876 0.60454 0.0
H527 H 0.32369 0.38747 0.6013 0.0
H528 H 0.32905 0.38614 0.58133 0.0
H529 H 0.34961 0.37718 0.61754 0.0
H530 H 0.3137 0.43431 0.60681 0.0
H531 H 0.30857 0.46601 0.59752 0.0
H532 H 0.35486 0.49149 0.61671 0.0
H533 H 0.36046 0.45986 0.62601 0.0
C534 C 0.32968 0.39317 0.66915 0.0
C535 C 0.344 0.4033 0.67521 0.0
C536 C 0.32878 0.395 0.65766 0.0
C537 C 0.34218 0.40699 0.65206 0.0
C538 C 0.35579 0.41793 0.65813 0.0
C539 C 0.35676 0.41604 0.66961 0.0
C540 C 0.34294 0.40705 0.63983 0.0
C541 C 0.34042 0.4248 0.63419 0.0
C542 C 0.34624 0.38965 0.63377 0.0
C543 C 0.35034 0.3707 0.6393 0.0
C544 C 0.36587 0.36898 0.64688 0.0
C545 C 0.36951 0.35117 0.65217 0.0
C546 C 0.35788 0.33487 0.64985 0.0
C547 C 0.3426 0.33636 0.64222 0.0
C548 C 0.33883 0.35417 0.63695 0.0
C549 C 0.36481 0.41888 0.5881 0.0
C550 C 0.35322 0.40675 0.58137 0.0
C551 C 0.36167 0.41963 0.5995 0.0
C552 C 0.34689 0.40829 0.60438 0.0
C553 C 0.33515 0.39634 0.59768 0.0
C554 C 0.33821 0.39566 0.58627 0.0
C555 C 0.34432 0.4082 0.61654 0.0
C556 C 0.34662 0.39043 0.62219 0.0
C557 C 0.34097 0.4256 0.6226 0.0
C558 C 0.33761 0.44466 0.61704 0.0
C559 C 0.3229 0.44663 0.60899 0.0
C560 C 0.31988 0.46459 0.60373 0.0
C561 C 0.33141 0.48074 0.60651 0.0
C562 C 0.34595 0.47896 0.61456 0.0
C563 C 0.34904 0.46103 0.61984 0.0
H564 H 0.32905 0.49464 0.60243 0.0
H565 H 0.36079 0.32109 0.65393 0.0
H566 H 0.83838 0.11219 0.91945 0.0
H567 H 0.83444 0.10837 0.89954 0.0
H568 H 0.87754 0.06225 0.89952 0.0
H569 H 0.88182 0.06619 0.91949 0.0
H570 H 0.88474 0.08812 0.88354 0.0
H571 H 0.82919 0.05188 0.89546 0.0
H572 H 0.79902 0.04531 0.90599 0.0
H573 H 0.77073 0.09391 0.89017 0.0
H574 H 0.80083 0.10095 0.87965 0.0
H575 H 0.86906 0.07111 0.82656 0.0
H576 H 0.8694 0.06478 0.84644 0.0
H577 H 0.82867 0.11215 0.85154 0.0
H578 H 0.82798 0.11839 0.83166 0.0
H579 H 0.82049 0.08109 0.86486 0.0
H580 H 0.87751 0.11918 0.85468 0.0
H581 H 0.90768 0.12556 0.8441 0.0
H582 H 0.93319 0.07273 0.8568 0.0
H583 H 0.90304 0.0659 0.86734 0.0
C584 C 0.84692 0.1011 0.91525 0.0
C585 C 0.86045 0.08951 0.92106 0.0
C586 C 0.84455 0.09886 0.90386 0.0
C587 C 0.85553 0.08487 0.89805 0.0
C588 C 0.86888 0.07309 0.90384 0.0
C589 C 0.87128 0.07534 0.91526 0.0
C590 C 0.85383 0.08344 0.88586 0.0
C591 C 0.87074 0.08616 0.87946 0.0
C592 C 0.83552 0.08123 0.88053 0.0
C593 C 0.81734 0.07702 0.88682 0.0
C594 C 0.81659 0.06126 0.89428 0.0
C595 C 0.79949 0.05743 0.90024 0.0
C596 C 0.78298 0.06921 0.89877 0.0
C597 C 0.78353 0.0848 0.89131 0.0
C598 C 0.8006 0.0887 0.88533 0.0
C599 C 0.85999 0.08004 0.83189 0.0
C600 C 0.84865 0.0954 0.82755 0.0
C601 C 0.86023 0.07642 0.84325 0.0
C602 C 0.84931 0.0882 0.85048 0.0
C603 C 0.83725 0.10291 0.84611 0.0
C604 C 0.83693 0.1065 0.83474 0.0
C605 C 0.85133 0.08607 0.86261 0.0
C606 C 0.8345 0.08274 0.86897 0.0
C607 C 0.86972 0.08768 0.86792 0.0
C608 C 0.88795 0.09192 0.86171 0.0
C609 C 0.88951 0.10886 0.85516 0.0
C610 C 0.90661 0.11256 0.84918 0.0
C611 C 0.92233 0.09953 0.84975 0.0
C612 C 0.92099 0.08279 0.85634 0.0
C613 C 0.90391 0.079 0.86233 0.0
H614 H 0.93555 0.10242 0.84511 0.0
H615 H 0.76976 0.06622 0.90339 0.0
H616 H 0.16272 0.38658 0.92197 0.0
H617 H 0.16542 0.38655 0.90182 0.0
H618 H 0.11377 0.4226 0.89953 0.0
H619 H 0.11107 0.4229 0.91966 0.0
H620 H 0.14012 0.37196 0.88717 0.0
H621 H 0.11708 0.45157 0.87668 0.0
H622 H 0.11986 0.48465 0.88469 0.0
H623 H 0.17146 0.46726 0.90238 0.0
H624 H 0.16916 0.43417 0.89437 0.0
H625 H 0.10778 0.37828 0.83204 0.0
H626 H 0.11011 0.38219 0.85206 0.0
H627 H 0.16381 0.41461 0.84815 0.0
H628 H 0.16149 0.41098 0.82807 0.0
H629 H 0.14033 0.43127 0.86351 0.0
H630 H 0.16557 0.3674 0.85565 0.0
H631 H 0.16509 0.33431 0.84755 0.0
H632 H 0.11399 0.32011 0.86657 0.0
H633 H 0.114 0.35323 0.87468 0.0
C634 C 0.15206 0.39469 0.91719 0.0
C635 C 0.13666 0.40472 0.92242 0.0
C636 C 0.1536 0.3946 0.90568 0.0
C637 C 0.13986 0.40464 0.89919 0.0
C638 C 0.12469 0.41497 0.90439 0.0
C639 C 0.12312 0.41506 0.9159 0.0
C640 C 0.14077 0.40348 0.88697 0.0
C641 C 0.14023 0.38494 0.882 0.0
C642 C 0.14118 0.4204 0.88023 0.0
C643 C 0.14283 0.44033 0.885 0.0
C644 C 0.12907 0.45483 0.88225 0.0
C645 C 0.13055 0.47358 0.88679 0.0
C646 C 0.14579 0.47804 0.89406 0.0
C647 C 0.15962 0.46377 0.89678 0.0
C648 C 0.15821 0.445 0.89225 0.0
C649 C 0.12005 0.38632 0.83542 0.0
C650 C 0.13453 0.3942 0.82847 0.0
C651 C 0.12139 0.38849 0.84687 0.0
C652 C 0.13727 0.39846 0.85158 0.0
C653 C 0.15146 0.40682 0.84466 0.0
C654 C 0.15013 0.40467 0.8332 0.0
C655 C 0.13927 0.39978 0.86375 0.0
C656 C 0.1403 0.41833 0.86869 0.0
C657 C 0.13964 0.38286 0.87048 0.0
C658 C 0.1397 0.36286 0.8657 0.0
C659 C 0.15415 0.35727 0.85805 0.0
C660 C 0.15398 0.3385 0.85347 0.0
C661 C 0.13949 0.32513 0.85652 0.0
C662 C 0.12519 0.33049 0.8642 0.0
C663 C 0.12529 0.34925 0.86881 0.0
H664 H 0.13937 0.3106 0.85296 0.0
H665 H 0.14691 0.49255 0.89758 0.0
H666 H 0.89946 0.91344 0.07893 0.0
H667 H 0.9011 0.91566 0.09906 0.0
H668 H 0.83908 0.9048 0.1012 0.0
H669 H 0.83725 0.90242 0.08101 0.0
H670 H 0.85327 0.93472 0.11591 0.0
H671 H 0.86696 0.86808 0.10528 0.0
H672 H 0.88407 0.8425 0.09465 0.0
H673 H 0.93899 0.8609 0.10838 0.0
H674 H 0.92221 0.88678 0.119 0.0
H675 H 0.84586 0.90271 0.17159 0.0
H676 H 0.84427 0.90705 0.15158 0.0
H677 H 0.90735 0.90729 0.14992 0.0
H678 H 0.90904 0.90244 0.16991 0.0
H679 H 0.89319 0.88404 0.13475 0.0
H680 H 0.87979 0.94955 0.14626 0.0
H681 H 0.86314 0.97573 0.15665 0.0
H682 H 0.80858 0.96064 0.14126 0.0
H683 H 0.82486 0.93417 0.13088 0.0
C684 C 0.8861 0.91175 0.08365 0.0
C685 C 0.86824 0.90761 0.07839 0.0
C686 C 0.88709 0.91301 0.09515 0.0
C687 C 0.87024 0.91024 0.10158 0.0
C688 C 0.85222 0.90698 0.09635 0.0
C689 C 0.85124 0.90554 0.08484 0.0
C690 C 0.8717 0.90949 0.11377 0.0
C691 C 0.86181 0.92356 0.12008 0.0
C692 C 0.88324 0.89517 0.11911 0.0
C693 C 0.89335 0.87948 0.11285 0.0
C694 C 0.8827 0.86676 0.10597 0.0
C695 C 0.89233 0.8522 0.09996 0.0
C696 C 0.91261 0.8501 0.10082 0.0
C697 C 0.92329 0.86255 0.10772 0.0
C698 C 0.91372 0.87716 0.11374 0.0
C699 C 0.8594 0.90385 0.16698 0.0
C700 C 0.87758 0.90215 0.17233 0.0
C701 C 0.85847 0.90643 0.15554 0.0
C702 C 0.87569 0.90768 0.14925 0.0
C703 C 0.89387 0.90634 0.1546 0.0
C704 C 0.89481 0.90358 0.16603 0.0
C705 C 0.87476 0.90934 0.13703 0.0
C706 C 0.88472 0.89535 0.13066 0.0
C707 C 0.86336 0.92382 0.13166 0.0
C708 C 0.85352 0.93975 0.13787 0.0
C709 C 0.86421 0.95171 0.14515 0.0
C710 C 0.85484 0.96662 0.15103 0.0
C711 C 0.83481 0.96982 0.14963 0.0
C712 C 0.8241 0.95813 0.14234 0.0
C713 C 0.8334 0.94319 0.13645 0.0
H714 H 0.82758 0.98138 0.15419 0.0
H715 H 0.92002 0.83879 0.09617 0.0
H716 H 0.34024 0.59352 0.41846 0.0
H717 H 0.33857 0.58992 0.39832 0.0
H718 H 0.37677 0.63972 0.39447 0.0
H719 H 0.37812 0.64368 0.41445 0.0
H720 H 0.3478 0.64187 0.38027 0.0
H721 H 0.39316 0.59163 0.39211 0.0
H722 H 0.40323 0.56244 0.40267 0.0
H723 H 0.35768 0.52888 0.38725 0.0
H724 H 0.34718 0.55796 0.3767 0.0
H725 H 0.3921 0.63276 0.32848 0.0
H726 H 0.38588 0.63213 0.34832 0.0
H727 H 0.34232 0.58725 0.34368 0.0
H728 H 0.34841 0.5878 0.32368 0.0
H729 H 0.36843 0.58044 0.36176 0.0
H730 H 0.32618 0.63068 0.34811 0.0
H731 H 0.31766 0.66008 0.33732 0.0
H732 H 0.35879 0.69398 0.35609 0.0
H733 H 0.36778 0.66471 0.36689 0.0
C734 C 0.34823 0.60372 0.4133 0.0
C735 C 0.35935 0.61886 0.41805 0.0
C736 C 0.34732 0.6016 0.40181 0.0
C737 C 0.3577 0.61444 0.39489 0.0
C738 C 0.3686 0.62967 0.39964 0.0
C739 C 0.3694 0.63187 0.41108 0.0
C740 C 0.35748 0.61217 0.3827 0.0
C741 C 0.3524 0.62846 0.37624 0.0
C742 C 0.36292 0.59449 0.37741 0.0
C743 C 0.36924 0.57702 0.38373 0.0
C744 C 0.38519 0.57807 0.39104 0.0
C745 C 0.39099 0.56154 0.39701 0.0
C746 C 0.38106 0.54383 0.39566 0.0
C747 C 0.36533 0.54261 0.38831 0.0
C748 C 0.35946 0.55911 0.38233 0.0
C749 C 0.38124 0.62268 0.33165 0.0
C750 C 0.37066 0.61041 0.3245 0.0
C751 C 0.37766 0.62239 0.34299 0.0
C752 C 0.36348 0.60981 0.34742 0.0
C753 C 0.35326 0.59711 0.34038 0.0
C754 C 0.35673 0.59749 0.32898 0.0
C755 C 0.35934 0.61032 0.35942 0.0
C756 C 0.36353 0.59373 0.36582 0.0
C757 C 0.35323 0.62776 0.36467 0.0
C758 C 0.34775 0.64545 0.35826 0.0
C759 C 0.33352 0.64437 0.34988 0.0
C760 C 0.32859 0.66102 0.34378 0.0
C761 C 0.3377 0.67888 0.34601 0.0
C762 C 0.35174 0.68013 0.35437 0.0
C763 C 0.35674 0.66352 0.3605 0.0
H764 H 0.33387 0.69175 0.34127 0.0
H765 H 0.38557 0.53105 0.40028 0.0
H766 H 0.59755 0.12461 0.67269 0.0
H767 H 0.59722 0.12323 0.65255 0.0
H768 H 0.64819 0.08597 0.65299 0.0
H769 H 0.64893 0.0877 0.67319 0.0
H770 H 0.65213 0.1138 0.6379 0.0
H771 H 0.60214 0.06746 0.64719 0.0
H772 H 0.57239 0.05607 0.65676 0.0
H773 H 0.53872 0.10098 0.64083 0.0
H774 H 0.56832 0.11275 0.63122 0.0
H775 H 0.64559 0.08982 0.58074 0.0
H776 H 0.64597 0.08703 0.60091 0.0
H777 H 0.59722 0.12693 0.60304 0.0
H778 H 0.59662 0.1297 0.58292 0.0
H779 H 0.59263 0.09563 0.61677 0.0
H780 H 0.64274 0.14277 0.60821 0.0
H781 H 0.67254 0.15479 0.59894 0.0
H782 H 0.70603 0.10856 0.61377 0.0
H783 H 0.67634 0.09609 0.62301 0.0
C784 C 0.60867 0.11606 0.66852 0.0
C785 C 0.62327 0.10626 0.67454 0.0
C786 C 0.60839 0.1152 0.657 0.0
C787 C 0.62253 0.10428 0.65126 0.0
C788 C 0.63711 0.09445 0.65725 0.0
C789 C 0.63748 0.09541 0.66879 0.0
C790 C 0.62236 0.10361 0.639 0.0
C791 C 0.63924 0.10948 0.63328 0.0
C792 C 0.6054 0.09838 0.63298 0.0
C793 C 0.58748 0.09106 0.63854 0.0
C794 C 0.5884 0.07495 0.64576 0.0
C795 C 0.57157 0.06841 0.65118 0.0
C796 C 0.55369 0.07782 0.64942 0.0
C797 C 0.55259 0.09371 0.64218 0.0
C798 C 0.56938 0.10029 0.63672 0.0
C799 C 0.63493 0.09797 0.5855 0.0
C800 C 0.62113 0.11006 0.58023 0.0
C801 C 0.6352 0.09639 0.59702 0.0
C802 C 0.62172 0.1069 0.60346 0.0
C803 C 0.60774 0.11869 0.59822 0.0
C804 C 0.60748 0.12032 0.58671 0.0
C805 C 0.62236 0.1059 0.6157 0.0
C806 C 0.60557 0.09975 0.6214 0.0
C807 C 0.63941 0.11086 0.62171 0.0
C808 C 0.65728 0.11837 0.6162 0.0
C809 C 0.65643 0.13507 0.60942 0.0
C810 C 0.6733 0.14198 0.60419 0.0
C811 C 0.69115 0.13241 0.60574 0.0
C812 C 0.69218 0.11594 0.61256 0.0
C813 C 0.67534 0.10895 0.6178 0.0
H814 H 0.70421 0.13779 0.60169 0.0
H815 H 0.54068 0.07278 0.65366 0.0
H816 H 0.87362 0.41823 0.82115 0.0
H817 H 0.87309 0.42398 0.84106 0.0
H818 H 0.823 0.38604 0.84426 0.0
H819 H 0.82324 0.38035 0.82429 0.0
H820 H 0.82054 0.41847 0.85791 0.0
H821 H 0.86722 0.36809 0.84902 0.0
H822 H 0.89548 0.35409 0.83912 0.0
H823 H 0.93261 0.39909 0.85226 0.0
H824 H 0.90448 0.41356 0.86211 0.0
H825 H 0.83054 0.39041 0.91433 0.0
H826 H 0.8271 0.39212 0.89425 0.0
H827 H 0.87931 0.4274 0.89227 0.0
H828 H 0.88304 0.42553 0.91232 0.0
H829 H 0.88055 0.39796 0.87789 0.0
H830 H 0.83407 0.4473 0.88777 0.0
H831 H 0.80569 0.46121 0.8976 0.0
H832 H 0.76814 0.41821 0.8828 0.0
H833 H 0.79635 0.40386 0.873 0.0
C834 C 0.86232 0.41129 0.82605 0.0
C835 C 0.84861 0.39863 0.82116 0.0
C836 C 0.86207 0.41458 0.83743 0.0
C837 C 0.8482 0.40519 0.84414 0.0
C838 C 0.83385 0.39338 0.83922 0.0
C839 C 0.83406 0.3901 0.82782 0.0
C840 C 0.84956 0.40655 0.85633 0.0
C841 C 0.83357 0.41384 0.86231 0.0
C842 C 0.86672 0.40082 0.86201 0.0
C843 C 0.88371 0.39202 0.8562 0.0
C844 C 0.88138 0.37508 0.84973 0.0
C845 C 0.89738 0.36705 0.84414 0.0
C846 C 0.91582 0.37572 0.84504 0.0
C847 C 0.91831 0.39241 0.85156 0.0
C848 C 0.90235 0.40053 0.85715 0.0
C849 C 0.8412 0.39869 0.90963 0.0
C850 C 0.85711 0.40778 0.91492 0.0
C851 C 0.83914 0.39974 0.89816 0.0
C852 C 0.85286 0.41002 0.89177 0.0
C853 C 0.86856 0.4194 0.89705 0.0
C854 C 0.87065 0.41833 0.90851 0.0
C855 C 0.85154 0.40997 0.87954 0.0
C856 C 0.86755 0.40279 0.87352 0.0
C857 C 0.83438 0.41577 0.87386 0.0
C858 C 0.81737 0.4244 0.87973 0.0
C859 C 0.81979 0.44071 0.88668 0.0
C860 C 0.80372 0.44869 0.89223 0.0
C861 C 0.78513 0.44057 0.89085 0.0
C862 C 0.78255 0.42447 0.88388 0.0
C863 C 0.79857 0.41642 0.87831 0.0
H864 H 0.77271 0.44677 0.89515 0.0
H865 H 0.92819 0.36949 0.8407 0.0
H866 H 0.3432 0.09017 0.6645 0.0
H867 H 0.33905 0.09013 0.64436 0.0
H868 H 0.40093 0.09998 0.64023 0.0
H869 H 0.40529 0.09983 0.66025 0.0
H870 H 0.37647 0.12704 0.62904 0.0
H871 H 0.38408 0.05732 0.63395 0.0
H872 H 0.37591 0.02513 0.6419 0.0
H873 H 0.31773 0.02934 0.62872 0.0
H874 H 0.32547 0.06172 0.62083 0.0
H875 H 0.39126 0.11789 0.57218 0.0
H876 H 0.39245 0.11301 0.59212 0.0
H877 H 0.33195 0.09499 0.59201 0.0
H878 H 0.33076 0.09941 0.57191 0.0
H879 H 0.35295 0.07232 0.60559 0.0
H880 H 0.34446 0.14084 0.60032 0.0
H881 H 0.35118 0.17352 0.59257 0.0
H882 H 0.40872 0.17262 0.60681 0.0
H883 H 0.40245 0.13979 0.61451 0.0
C884 C 0.35596 0.09206 0.65929 0.0
C885 C 0.37456 0.09509 0.66397 0.0
C886 C 0.35356 0.092 0.64781 0.0
C887 C 0.36969 0.09509 0.64086 0.0
C888 C 0.38832 0.0976 0.64549 0.0
C889 C 0.39077 0.09745 0.65693 0.0
C890 C 0.3671 0.09698 0.62878 0.0
C891 C 0.37155 0.11502 0.62388 0.0
C892 C 0.35995 0.0815 0.62217 0.0
C893 C 0.35529 0.06205 0.62691 0.0
C894 C 0.36948 0.05148 0.63284 0.0
C895 C 0.36495 0.03317 0.63731 0.0
C896 C 0.3463 0.02522 0.63585 0.0
C897 C 0.33216 0.03554 0.62987 0.0
C898 C 0.33662 0.05386 0.62539 0.0
C899 C 0.37818 0.11288 0.57638 0.0
C900 C 0.36084 0.10923 0.57049 0.0
C901 C 0.37888 0.11013 0.58779 0.0
C902 C 0.36218 0.10399 0.59358 0.0
C903 C 0.34498 0.09982 0.5877 0.0
C904 C 0.34431 0.1024 0.57624 0.0
C905 C 0.36274 0.1023 0.60579 0.0
C906 C 0.35781 0.08438 0.61074 0.0
C907 C 0.36921 0.11799 0.6125 0.0
C908 C 0.37304 0.13777 0.60791 0.0
C909 C 0.3586 0.14754 0.60173 0.0
C910 C 0.36232 0.16611 0.59736 0.0
C911 C 0.38038 0.17512 0.59918 0.0
C912 C 0.39474 0.16561 0.6054 0.0
C913 C 0.39111 0.14703 0.60978 0.0
H914 H 0.38323 0.18949 0.59579 0.0
H915 H 0.34282 0.01104 0.63931 0.0
H916 H 0.66199 0.65687 0.42093 0.0
H917 H 0.66314 0.65395 0.40082 0.0
H918 H 0.65057 0.59224 0.40337 0.0
H919 H 0.64992 0.59494 0.42352 0.0
H920 H 0.67689 0.59821 0.38779 0.0
H921 H 0.61455 0.62512 0.39674 0.0
H922 H 0.59122 0.64789 0.40549 0.0
H923 H 0.61664 0.69589 0.38765 0.0
H924 H 0.64029 0.67344 0.3789 0.0
H925 H 0.6425 0.58895 0.3317 0.0
H926 H 0.64447 0.5894 0.35194 0.0
H927 H 0.66711 0.64825 0.35088 0.0
H928 H 0.66541 0.64789 0.3307 0.0
H929 H 0.63502 0.64264 0.36559 0.0
H930 H 0.69748 0.61348 0.35653 0.0
H931 H 0.71891 0.58908 0.34766 0.0
H932 H 0.69034 0.54305 0.36563 0.0
H933 H 0.66853 0.56717 0.37449 0.0
C934 C 0.65958 0.64265 0.41722 0.0
C935 C 0.65569 0.62617 0.4238 0.0
C936 C 0.66017 0.64101 0.40572 0.0
C937 C 0.65655 0.62295 0.40058 0.0
C938 C 0.65333 0.60633 0.40715 0.0
C939 C 0.65293 0.60792 0.41867 0.0
C940 C 0.65567 0.62153 0.38836 0.0
C941 C 0.66755 0.60776 0.38295 0.0
C942 C 0.64355 0.63406 0.38202 0.0
C943 C 0.62932 0.64762 0.38724 0.0
C944 C 0.61526 0.64056 0.39475 0.0
C945 C 0.60196 0.6534 0.39969 0.0
C946 C 0.60248 0.67333 0.39715 0.0
C947 C 0.61627 0.68045 0.38962 0.0
C948 C 0.62961 0.66767 0.38466 0.0
C949 C 0.64802 0.60193 0.33578 0.0
C950 C 0.65381 0.61838 0.32962 0.0
C951 C 0.64917 0.60214 0.34732 0.0
C952 C 0.65596 0.61885 0.35286 0.0
C953 C 0.66183 0.63523 0.34673 0.0
C954 C 0.66092 0.63495 0.33521 0.0
C955 C 0.65641 0.61954 0.36507 0.0
C956 C 0.64435 0.63312 0.37046 0.0
C957 C 0.66807 0.6066 0.37137 0.0
C958 C 0.68124 0.59211 0.36609 0.0
C959 C 0.69565 0.59814 0.35852 0.0
C960 C 0.70789 0.58436 0.35351 0.0
C961 C 0.70596 0.56452 0.35606 0.0
C962 C 0.69181 0.55842 0.36365 0.0
C963 C 0.67951 0.57214 0.36868 0.0
H964 H 0.71545 0.55387 0.35217 0.0
H965 H 0.59217 0.68325 0.40099 0.0
H966 H 0.11333 0.85835 0.16666 0.0
H967 H 0.11855 0.85898 0.14672 0.0
H968 H 0.15395 0.91085 0.15002 0.0
H969 H 0.14891 0.9103 0.17011 0.0
H970 H 0.12584 0.91211 0.13238 0.0
H971 H 0.17718 0.871 0.14589 0.0
H972 H 0.19134 0.8441 0.15686 0.0
H973 H 0.15621 0.80252 0.13915 0.0
H974 H 0.14161 0.82921 0.12818 0.0
H975 H 0.15419 0.90286 0.07562 0.0
H976 H 0.15591 0.90702 0.09572 0.0
H977 H 0.12744 0.85123 0.10019 0.0
H978 H 0.12606 0.84678 0.08023 0.0
H979 H 0.15669 0.85478 0.11421 0.0
H980 H 0.10255 0.89526 0.10245 0.0
H981 H 0.08676 0.92163 0.09177 0.0
H982 H 0.12559 0.96377 0.10631 0.0
H983 H 0.14178 0.93758 0.11698 0.0
C984 C 0.12217 0.86996 0.16318 0.0
C985 C 0.13078 0.88424 0.16997 0.0
C986 C 0.12518 0.87025 0.15178 0.0
C987 C 0.13679 0.88484 0.14695 0.0
C988 C 0.14501 0.89944 0.15364 0.0
C989 C 0.14215 0.89906 0.16509 0.0
C990 C 0.14037 0.88452 0.13489 0.0
C991 C 0.13294 0.89979 0.12839 0.0
C992 C 0.14933 0.86827 0.12974 0.0
C993 C 0.1582 0.85214 0.13626 0.0
C994 C 0.17236 0.85614 0.14438 0.0
C995 C 0.18049 0.84092 0.1506 0.0
C996 C 0.17465 0.82162 0.14872 0.0
C997 C 0.16071 0.81749 0.1406 0.0
C998 C 0.15253 0.83265 0.13437 0.0
C999 C 0.14837 0.89146 0.0809 0.0
C1000 C 0.13992 0.87453 0.07634 0.0
C1001 C 0.1493 0.89389 0.09237 0.0
C1002 C 0.14161 0.87953 0.09945 0.0
C1003 C 0.13349 0.86249 0.09489 0.0
C1004 C 0.13266 0.86001 0.08347 0.0
C1005 C 0.14169 0.88213 0.11163 0.0
C1006 C 0.14985 0.86728 0.11817 0.0
C1007 C 0.13325 0.8987 0.1168 0.0
C1008 C 0.12353 0.91444 0.11041 0.0
C1009 C 0.10782 0.91012 0.1033 0.0
C1010 C 0.09878 0.92504 0.09726 0.0
C1011 C 0.10521 0.94435 0.09834 0.0
C1012 C 0.12066 0.94879 0.10547 0.0
C1013 C 0.12977 0.93393 0.11152 0.0
H1014 H 0.09819 0.95588 0.09366 0.0
H1015 H 0.18096 0.80986 0.15354 0.0
H1016 H 0.81363 0.6004 0.07734 0.0
H1017 H 0.8095 0.59973 0.09737 0.0
H1018 H 0.86374 0.56803 0.10071 0.0
H1019 H 0.86792 0.5684 0.08062 0.0
H1020 H 0.83508 0.55584 0.11579 0.0
H1021 H 0.86454 0.61603 0.10296 0.0
H1022 H 0.86592 0.64548 0.09121 0.0
H1023 H 0.81149 0.66549 0.10487 0.0
H1024 H 0.80964 0.63598 0.11658 0.0
H1025 H 0.86334 0.58243 0.17016 0.0
H1026 H 0.86063 0.57578 0.15041 0.0
H1027 H 0.81056 0.61411 0.14842 0.0
H1028 H 0.81354 0.62127 0.16814 0.0
H1029 H 0.835 0.62213 0.13254 0.0
H1030 H 0.8064 0.56327 0.14645 0.0
H1031 H 0.8043 0.53347 0.15787 0.0
H1032 H 0.85598 0.51073 0.1423 0.0
H1033 H 0.85854 0.54053 0.13088 0.0
C1034 C 0.82453 0.59297 0.0823 0.0
C1035 C 0.84127 0.58471 0.07741 0.0
C1036 C 0.82213 0.59261 0.09375 0.0
C1037 C 0.83649 0.58413 0.1005 0.0
C1038 C 0.85254 0.5747 0.09562 0.0
C1039 C 0.85493 0.57499 0.08414 0.0
C1040 C 0.83574 0.58681 0.11263 0.0
C1041 C 0.83521 0.5703 0.1195 0.0
C1042 C 0.83551 0.60572 0.11739 0.0
C1043 C 0.83686 0.62371 0.11057 0.0
C1044 C 0.85282 0.62666 0.10341 0.0
C1045 C 0.85368 0.64336 0.09676 0.0
C1046 C 0.83877 0.65732 0.09726 0.0
C1047 C 0.82301 0.65465 0.10447 0.0
C1048 C 0.82205 0.63794 0.11112 0.0
C1049 C 0.85164 0.58931 0.16555 0.0
C1050 C 0.83868 0.60243 0.17071 0.0
C1051 C 0.85003 0.5854 0.15426 0.0
C1052 C 0.83525 0.59427 0.14794 0.0
C1053 C 0.82208 0.60709 0.15313 0.0
C1054 C 0.82379 0.61116 0.1644 0.0
C1055 C 0.83429 0.59113 0.13582 0.0
C1056 C 0.83463 0.60762 0.12891 0.0
C1057 C 0.83428 0.5722 0.13104 0.0
C1058 C 0.83275 0.55422 0.13787 0.0
C1059 C 0.8174 0.55199 0.14552 0.0
C1060 C 0.81611 0.53508 0.15198 0.0
C1061 C 0.83002 0.52024 0.15083 0.0
C1062 C 0.84522 0.52225 0.14319 0.0
C1063 C 0.84659 0.53913 0.13671 0.0
H1064 H 0.829 0.50716 0.15584 0.0
H1065 H 0.83944 0.67022 0.09209 0.0
H1066 H 0.15735 0.0877 0.83155 0.0
H1067 H 0.16157 0.08834 0.85168 0.0
H1068 H 0.11751 0.1333 0.8542 0.0
H1069 H 0.11317 0.13275 0.83419 0.0
H1070 H 0.15137 0.14199 0.86584 0.0
H1071 H 0.10645 0.08784 0.86117 0.0
H1072 H 0.09593 0.05598 0.85369 0.0
H1073 H 0.14589 0.02825 0.86845 0.0
H1074 H 0.15686 0.06003 0.87589 0.0
H1075 H 0.12424 0.14579 0.92153 0.0
H1076 H 0.12543 0.14194 0.90153 0.0
H1077 H 0.1655 0.09356 0.90512 0.0
H1078 H 0.164 0.09702 0.92526 0.0
H1079 H 0.13805 0.08519 0.89025 0.0
H1080 H 0.1817 0.13836 0.89633 0.0
H1081 H 0.19265 0.17002 0.90388 0.0
H1082 H 0.14654 0.19942 0.88642 0.0
H1083 H 0.13512 0.1679 0.87889 0.0
C1084 C 0.14851 0.09764 0.8364 0.0
C1085 C 0.13494 0.11018 0.83128 0.0
C1086 C 0.15091 0.09796 0.84789 0.0
C1087 C 0.13983 0.11086 0.85439 0.0
C1088 C 0.12623 0.12329 0.8493 0.0
C1089 C 0.12372 0.12288 0.83787 0.0
C1090 C 0.14251 0.11179 0.86652 0.0
C1091 C 0.14833 0.12963 0.8712 0.0
C1092 C 0.1392 0.09544 0.87343 0.0
C1093 C 0.1326 0.07635 0.86897 0.0
C1094 C 0.11529 0.07498 0.86273 0.0
C1095 C 0.10922 0.05693 0.85852 0.0
C1096 C 0.12027 0.04011 0.86056 0.0
C1097 C 0.13737 0.0413 0.86685 0.0
C1098 C 0.14352 0.05932 0.87107 0.0
C1099 C 0.13338 0.13437 0.91809 0.0
C1100 C 0.14409 0.12176 0.92498 0.0
C1101 C 0.13412 0.13224 0.90664 0.0
C1102 C 0.1458 0.11766 0.90182 0.0
C1103 C 0.15644 0.10495 0.90867 0.0
C1104 C 0.15562 0.10699 0.92017 0.0
C1105 C 0.14647 0.11556 0.88963 0.0
C1106 C 0.14134 0.09751 0.88491 0.0
C1107 C 0.15056 0.13169 0.88266 0.0
C1108 C 0.15747 0.15073 0.8871 0.0
C1109 C 0.17381 0.15156 0.89416 0.0
C1110 C 0.18012 0.16949 0.89843 0.0
C1111 C 0.17028 0.18672 0.89565 0.0
C1112 C 0.15414 0.18606 0.88857 0.0
C1113 C 0.14776 0.16817 0.88428 0.0
H1114 H 0.17518 0.20058 0.89896 0.0
H1115 H 0.11554 0.02615 0.8573 0.0
H1116 H 0.62507 0.34819 0.57898 0.0
H1117 H 0.62464 0.35429 0.59883 0.0
H1118 H 0.65549 0.40861 0.59388 0.0
H1119 H 0.65599 0.40264 0.57388 0.0
H1120 H 0.66965 0.38593 0.61187 0.0
H1121 H 0.60898 0.41154 0.59838 0.0
H1122 H 0.57817 0.41072 0.58779 0.0
H1123 H 0.55815 0.36214 0.60725 0.0
H1124 H 0.58898 0.36248 0.61785 0.0
H1125 H 0.65112 0.41289 0.66801 0.0
H1126 H 0.6531 0.41406 0.64781 0.0
H1127 H 0.61578 0.36327 0.6457 0.0
H1128 H 0.61331 0.36234 0.66578 0.0
H1129 H 0.6053 0.38904 0.63081 0.0
H1130 H 0.66653 0.3607 0.64281 0.0
H1131 H 0.6976 0.3599 0.65316 0.0
H1132 H 0.71669 0.41198 0.6365 0.0
H1133 H 0.68561 0.41322 0.62614 0.0
C1134 C 0.63188 0.3614 0.58208 0.0
C1135 C 0.64045 0.37501 0.57484 0.0
C1136 C 0.63156 0.36488 0.59343 0.0
C1137 C 0.6398 0.38202 0.59778 0.0
C1138 C 0.64898 0.39535 0.59065 0.0
C1139 C 0.64921 0.39193 0.57924 0.0
C1140 C 0.63838 0.386 0.60976 0.0
C1141 C 0.65561 0.38699 0.61602 0.0
C1142 C 0.62003 0.38706 0.61513 0.0
C1143 C 0.60136 0.38696 0.60886 0.0
C1144 C 0.59807 0.4006 0.60035 0.0
C1145 C 0.58059 0.40023 0.59435 0.0
C1146 C 0.56623 0.38637 0.59683 0.0
C1147 C 0.56929 0.37287 0.60533 0.0
C1148 C 0.58676 0.37316 0.61135 0.0
C1149 C 0.64328 0.40203 0.66323 0.0
C1150 C 0.63212 0.38747 0.66849 0.0
C1151 C 0.64449 0.40267 0.65169 0.0
C1152 C 0.63479 0.3886 0.64524 0.0
C1153 C 0.62338 0.37429 0.6505 0.0
C1154 C 0.62202 0.37375 0.66199 0.0
C1155 C 0.63658 0.38845 0.63302 0.0
C1156 C 0.61938 0.38824 0.62669 0.0
C1157 C 0.65496 0.38795 0.62761 0.0
C1158 C 0.67366 0.38718 0.6338 0.0
C1159 C 0.6773 0.37206 0.64142 0.0
C1160 C 0.69492 0.37151 0.64727 0.0
C1161 C 0.70909 0.38592 0.64552 0.0
C1162 C 0.70569 0.40086 0.63787 0.0
C1163 C 0.68808 0.40149 0.632 0.0
H1164 H 0.72272 0.38547 0.65006 0.0
H1165 H 0.55271 0.3861 0.59218 0.0
H1166 H 0.34568 0.91102 0.32794 0.0
H1167 H 0.3393 0.9112 0.3479 0.0
H1168 H 0.37269 0.85803 0.35149 0.0
H1169 H 0.37912 0.85771 0.33167 0.0
H1170 H 0.33753 0.85702 0.36289 0.0
H1171 H 0.39288 0.90086 0.35791 0.0
H1172 H 0.40949 0.92977 0.35012 0.0
H1173 H 0.36562 0.96724 0.36418 0.0
H1174 H 0.34859 0.93849 0.37193 0.0
H1175 H 0.36887 0.8486 0.41761 0.0
H1176 H 0.36513 0.85215 0.3977 0.0
H1177 H 0.33593 0.9075 0.40245 0.0
H1178 H 0.33998 0.90422 0.4225 0.0
H1179 H 0.36294 0.91033 0.38673 0.0
H1180 H 0.31017 0.86729 0.39407 0.0
H1181 H 0.29324 0.83868 0.40197 0.0
H1182 H 0.33073 0.80016 0.38361 0.0
H1183 H 0.3481 0.82853 0.37571 0.0
C1184 C 0.35164 0.89937 0.33299 0.0
C1185 C 0.36297 0.88439 0.32824 0.0
C1186 C 0.34799 0.89951 0.34438 0.0
C1187 C 0.35556 0.88464 0.35115 0.0
C1188 C 0.36666 0.86959 0.34639 0.0
C1189 C 0.37041 0.86951 0.33506 0.0
C1190 C 0.35239 0.88477 0.36325 0.0
C1191 C 0.34313 0.86862 0.36813 0.0
C1192 C 0.35908 0.90026 0.37001 0.0
C1193 C 0.36934 0.91752 0.36538 0.0
C1194 C 0.38668 0.91525 0.35926 0.0
C1195 C 0.39619 0.9316 0.35487 0.0
C1196 C 0.38858 0.95032 0.35662 0.0
C1197 C 0.37147 0.95272 0.3628 0.0
C1198 C 0.36189 0.93641 0.3672 0.0
C1199 C 0.36153 0.86149 0.41445 0.0
C1200 C 0.35475 0.87615 0.42164 0.0
C1201 C 0.35929 0.86344 0.40305 0.0
C1202 C 0.35001 0.87997 0.39859 0.0
C1203 C 0.34306 0.89459 0.40573 0.0
C1204 C 0.34536 0.89268 0.41717 0.0
C1205 C 0.34858 0.88226 0.38643 0.0
C1206 C 0.35696 0.89887 0.38152 0.0
C1207 C 0.34094 0.86723 0.37963 0.0
C1208 C 0.33051 0.85007 0.38433 0.0
C1209 C 0.3149 0.85272 0.39176 0.0
C1210 C 0.3052 0.83654 0.39623 0.0
C1211 C 0.31089 0.81762 0.39328 0.0
C1212 C 0.32631 0.81483 0.38587 0.0
C1213 C 0.33608 0.83096 0.38138 0.0
H1214 H 0.30335 0.80512 0.39674 0.0
H1215 H 0.39596 0.96297 0.35322 0.0
H1216 H 0.06682 0.6561 0.03821 0.0
H1217 H 0.03117 0.65572 0.03698 0.0
H1218 H 0.03062 0.5949 0.04648 0.0
H1219 H 0.06635 0.59504 0.04756 0.0
H1220 H 0.00542 0.60165 0.02984 0.0
H1221 H 0.01952 0.63058 0.06509 0.0
H1222 H 0.03508 0.65398 0.07787 0.0
H1223 H 0.00723 0.70178 0.06106 0.0
H1224 H 0.9917 0.67868 0.04807 0.0
H1225 H 0.90529 0.59487 0.0453 0.0
H1226 H 0.94104 0.59504 0.04516 0.0
H1227 H 0.94079 0.65549 0.03492 0.0
H1228 H 0.90501 0.65552 0.03512 0.0
H1229 H 0.96636 0.64911 0.05167 0.0
H1230 H 0.95169 0.61987 0.01661 0.0
H1231 H 0.93613 0.5963 0.00394 0.0
H1232 H 0.96494 0.54882 0.02054 0.0
H1233 H 0.98047 0.57211 0.03342 0.0
C1234 C 0.05914 0.64261 0.04002 0.0
C1235 C 0.06944 0.62562 0.04305 0.0
C1236 C 0.03875 0.64245 0.03935 0.0
C1237 C 0.02821 0.62536 0.04179 0.0
C1238 C 0.03845 0.60826 0.04459 0.0
C1239 C 0.05888 0.60839 0.04523 0.0
C1240 C 0.00651 0.62538 0.04153 0.0
C1241 C 0.99686 0.61186 0.03471 0.0
C1242 C 0.99537 0.63899 0.04772 0.0
C1243 C 0.0046 0.65291 0.05555 0.0
C1244 C 0.01683 0.64609 0.06407 0.0
C1245 C 0.02562 0.6593 0.07136 0.0
C1246 C 0.02218 0.67936 0.07026 0.0
C1247 C 0.0099 0.68625 0.06189 0.0
C1248 C 0.00108 0.6731 0.05457 0.0
C1249 C 0.91282 0.60819 0.04298 0.0
C1250 C 0.90229 0.62518 0.04019 0.0
C1251 C 0.93326 0.60823 0.04286 0.0
C1252 C 0.94357 0.62522 0.03993 0.0
C1253 C 0.93311 0.64221 0.03719 0.0
C1254 C 0.91266 0.64218 0.03728 0.0
C1255 C 0.96526 0.62538 0.03997 0.0
C1256 C 0.97491 0.63893 0.04677 0.0
C1257 C 0.97639 0.61176 0.03379 0.0
C1258 C 0.96709 0.59772 0.02605 0.0
C1259 C 0.95458 0.60439 0.01762 0.0
C1260 C 0.94579 0.59108 0.01039 0.0
C1261 C 0.9495 0.57107 0.01146 0.0
C1262 C 0.96205 0.56433 0.01974 0.0
C1263 C 0.97087 0.57758 0.027 0.0
H1264 H 0.94268 0.56079 0.00585 0.0
H1265 H 0.029 0.68956 0.07591 0.0
H1266 H 0.6475 0.67164 0.28629 0.0
H1267 H 0.64762 0.7074 0.28567 0.0
H1268 H 0.59589 0.70882 0.30609 0.0
H1269 H 0.5955 0.6731 0.30664 0.0
H1270 H 0.5936 0.73515 0.28949 0.0
H1271 H 0.64051 0.71676 0.31721 0.0
H1272 H 0.66937 0.69931 0.32444 0.0
H1273 H 0.70595 0.72823 0.30065 0.0
H1274 H 0.67723 0.74563 0.29315 0.0
H1275 H 0.59793 0.83295 0.30871 0.0
H1276 H 0.59765 0.79727 0.30752 0.0
H1277 H 0.64932 0.7988 0.28706 0.0
H1278 H 0.64985 0.83451 0.28829 0.0
H1279 H 0.65205 0.77103 0.30295 0.0
H1280 H 0.60501 0.79031 0.27565 0.0
H1281 H 0.57598 0.80763 0.26852 0.0
H1282 H 0.53951 0.77707 0.2917 0.0
H1283 H 0.56838 0.75976 0.29908 0.0
C1284 C 0.63607 0.67955 0.29059 0.0
C1285 C 0.62155 0.66952 0.29657 0.0
C1286 C 0.6362 0.69999 0.29026 0.0
C1287 C 0.62191 0.71076 0.29596 0.0
C1288 C 0.60708 0.70078 0.30166 0.0
C1289 C 0.60692 0.68036 0.30198 0.0
C1290 C 0.62264 0.73244 0.29622 0.0
C1291 C 0.6063 0.743 0.29254 0.0
C1292 C 0.63937 0.74266 0.29999 0.0
C1293 C 0.65669 0.73234 0.30454 0.0
C1294 C 0.65468 0.71928 0.31346 0.0
C1295 C 0.67102 0.70942 0.31762 0.0
C1296 C 0.68947 0.71262 0.31299 0.0
C1297 C 0.69164 0.72574 0.30422 0.0
C1298 C 0.67534 0.73562 0.30001 0.0
C1299 C 0.60924 0.82572 0.30395 0.0
C1300 C 0.62387 0.83658 0.29856 0.0
C1301 C 0.60901 0.80532 0.30325 0.0
C1302 C 0.62333 0.7954 0.29709 0.0
C1303 C 0.6381 0.80618 0.29183 0.0
C1304 C 0.63834 0.82659 0.29252 0.0
C1305 C 0.62297 0.77376 0.29625 0.0
C1306 C 0.63939 0.76319 0.29984 0.0
C1307 C 0.60629 0.76353 0.29242 0.0
C1308 C 0.58889 0.77388 0.28798 0.0
C1309 C 0.59082 0.7874 0.27929 0.0
C1310 C 0.57439 0.79719 0.27519 0.0
C1311 C 0.55592 0.79349 0.27967 0.0
C1312 C 0.55383 0.77994 0.28824 0.0
C1313 C 0.57022 0.77012 0.29238 0.0
H1314 H 0.54322 0.80109 0.27649 0.0
H1315 H 0.70211 0.70497 0.31622 0.0
H1316 H 0.41514 0.34196 0.55063 0.0
H1317 H 0.4506 0.34035 0.54839 0.0
H1318 H 0.45192 0.40174 0.54014 0.0
H1319 H 0.41635 0.4034 0.54214 0.0
H1320 H 0.47493 0.38166 0.52657 0.0
H1321 H 0.46606 0.38538 0.56575 0.0
H1322 H 0.45268 0.37597 0.58392 0.0
H1323 H 0.47829 0.31889 0.58071 0.0
H1324 H 0.49161 0.32787 0.56245 0.0
H1325 H 0.57734 0.396 0.53503 0.0
H1326 H 0.54163 0.39732 0.53605 0.0
H1327 H 0.53971 0.33508 0.5418 0.0
H1328 H 0.57541 0.3336 0.54082 0.0
H1329 H 0.51714 0.35571 0.55655 0.0
H1330 H 0.52643 0.35288 0.5172 0.0
H1331 H 0.54013 0.36325 0.49928 0.0
H1332 H 0.51411 0.42001 0.5032 0.0
H1333 H 0.50047 0.41006 0.52123 0.0
C1334 C 0.42296 0.35514 0.54836 0.0
C1335 C 0.41293 0.37284 0.54662 0.0
C1336 C 0.44325 0.35421 0.54712 0.0
C1337 C 0.45396 0.37099 0.54424 0.0
C1338 C 0.44396 0.38862 0.54237 0.0
C1339 C 0.42363 0.38955 0.54355 0.0
C1340 C 0.47558 0.37011 0.54314 0.0
C1341 C 0.48418 0.37623 0.53319 0.0
C1342 C 0.48764 0.36268 0.55169 0.0
C1343 C 0.47966 0.35723 0.56268 0.0
C1344 C 0.4687 0.37077 0.56888 0.0
C1345 C 0.46115 0.36552 0.5792 0.0
C1346 C 0.46458 0.34683 0.58346 0.0
C1347 C 0.47562 0.33335 0.5774 0.0
C1348 C 0.48318 0.33852 0.56707 0.0
C1349 C 0.56932 0.38256 0.53642 0.0
C1350 C 0.57922 0.36469 0.53784 0.0
C1351 C 0.54891 0.38334 0.53697 0.0
C1352 C 0.53803 0.36628 0.53894 0.0
C1353 C 0.54785 0.3484 0.54027 0.0
C1354 C 0.56825 0.34759 0.53966 0.0
C1355 C 0.51644 0.36718 0.53998 0.0
C1356 C 0.50787 0.3611 0.54994 0.0
C1357 C 0.50445 0.37479 0.53147 0.0
C1358 C 0.51259 0.38078 0.52062 0.0
C1359 C 0.52376 0.36763 0.51429 0.0
C1360 C 0.53149 0.37342 0.5041 0.0
C1361 C 0.52804 0.3923 0.50012 0.0
C1362 C 0.5168 0.4054 0.5063 0.0
C1363 C 0.50904 0.39969 0.5165 0.0
H1364 H 0.53403 0.39675 0.49223 0.0
H1365 H 0.45873 0.3428 0.59145 0.0
H1366 H 0.85786 0.32574 0.78253 0.0
H1367 H 0.85712 0.29003 0.78356 0.0
H1368 H 0.89473 0.2917 0.81218 0.0
H1369 H 0.89578 0.32738 0.81112 0.0
H1370 H 0.90676 0.26455 0.79772 0.0
H1371 H 0.84594 0.28243 0.81475 0.0
H1372 H 0.81396 0.29897 0.81603 0.0
H1373 H 0.79387 0.26776 0.7874 0.0
H1374 H 0.82584 0.25122 0.78586 0.0
H1375 H 0.89497 0.16605 0.81457 0.0
H1376 H 0.89445 0.20177 0.81397 0.0
H1377 H 0.85687 0.1999 0.78535 0.0
H1378 H 0.85705 0.16414 0.78598 0.0
H1379 H 0.84467 0.22714 0.79983 0.0
H1380 H 0.90558 0.20951 0.78272 0.0
H1381 H 0.93759 0.19303 0.78142 0.0
H1382 H 0.95751 0.2239 0.8102 0.0
H1383 H 0.92551 0.24039 0.81176 0.0
C1384 C 0.86595 0.31852 0.78906 0.0
C1385 C 0.87688 0.32941 0.79675 0.0
C1386 C 0.86544 0.2981 0.78967 0.0
C1387 C 0.87572 0.2882 0.79802 0.0
C1388 C 0.88669 0.29904 0.80567 0.0
C1389 C 0.88723 0.31944 0.80507 0.0
C1390 C 0.87535 0.26653 0.79865 0.0
C1391 C 0.89319 0.25638 0.79834 0.0
C1392 C 0.85763 0.25586 0.79919 0.0
C1393 C 0.83836 0.26573 0.80013 0.0
C1394 C 0.83476 0.2792 0.80868 0.0
C1395 C 0.81662 0.28856 0.80946 0.0
C1396 C 0.80191 0.28446 0.80178 0.0
C1397 C 0.80529 0.27094 0.79333 0.0
C1398 C 0.82341 0.26156 0.7925 0.0
C1399 C 0.88658 0.17321 0.80814 0.0
C1400 C 0.87614 0.16223 0.80028 0.0
C1401 C 0.88635 0.19364 0.80779 0.0
C1402 C 0.87582 0.2035 0.79952 0.0
C1403 C 0.86511 0.19259 0.79178 0.0
C1404 C 0.86529 0.17215 0.79214 0.0
C1405 C 0.87608 0.22519 0.79891 0.0
C1406 C 0.85823 0.23532 0.79922 0.0
C1407 C 0.89379 0.23587 0.79837 0.0
C1408 C 0.91308 0.22604 0.79742 0.0
C1409 C 0.91673 0.21267 0.78882 0.0
C1410 C 0.93488 0.20335 0.78803 0.0
C1411 C 0.94956 0.20738 0.79574 0.0
C1412 C 0.94612 0.22078 0.80424 0.0
C1413 C 0.92799 0.23013 0.80508 0.0
H1414 H 0.9636 0.20014 0.79511 0.0
H1415 H 0.78788 0.29172 0.8024 0.0
H1416 H 0.91857 0.35269 0.93938 0.0
H1417 H 0.95395 0.35263 0.94203 0.0
H1418 H 0.94936 0.40376 0.96277 0.0
H1419 H 0.91387 0.40411 0.96003 0.0
H1420 H 0.97876 0.40737 0.9481 0.0
H1421 H 0.95779 0.35901 0.9741 0.0
H1422 H 0.94017 0.3296 0.98043 0.0
H1423 H 0.97291 0.29424 0.95765 0.0
H1424 H 0.99054 0.32349 0.95107 0.0
H1425 H 0.07807 0.40148 0.96547 0.0
H1426 H 0.04229 0.4021 0.96588 0.0
H1427 H 0.04058 0.35119 0.94482 0.0
H1428 H 0.07628 0.35028 0.94451 0.0
H1429 H 0.01416 0.34839 0.96123 0.0
H1430 H 0.03334 0.39685 0.93437 0.0
H1431 H 0.05092 0.42616 0.92784 0.0
H1432 H 0.02142 0.4612 0.95214 0.0
H1433 H 0.00386 0.43202 0.95892 0.0
C1434 C 0.92504 0.36391 0.94453 0.0
C1435 C 0.91338 0.37838 0.94952 0.0
C1436 C 0.94528 0.36379 0.94608 0.0
C1437 C 0.95427 0.37804 0.95272 0.0
C1438 C 0.9427 0.39259 0.95765 0.0
C1439 C 0.92243 0.39274 0.95609 0.0
C1440 C 0.9758 0.37794 0.95426 0.0
C1441 C 0.98648 0.3946 0.95116 0.0
C1442 C 0.98589 0.36114 0.95805 0.0
C1443 C 0.97538 0.34349 0.96203 0.0
C1444 C 0.96114 0.34499 0.97038 0.0
C1445 C 0.95116 0.32834 0.97402 0.0
C1446 C 0.95539 0.31007 0.96943 0.0
C1447 C 0.96964 0.3084 0.9612 0.0
C1448 C 0.97965 0.32501 0.95752 0.0
C1449 C 0.07008 0.39036 0.96097 0.0
C1450 C 0.08003 0.37589 0.95491 0.0
C1451 C 0.04964 0.39077 0.96119 0.0
C1452 C 0.03878 0.37682 0.95528 0.0
C1453 C 0.04867 0.3621 0.94944 0.0
C1454 C 0.06909 0.36165 0.94924 0.0
C1455 C 0.01711 0.37772 0.95495 0.0
C1456 C 0.00641 0.36122 0.95827 0.0
C1457 C 0.007 0.39465 0.95135 0.0
C1458 C 0.01745 0.41222 0.94723 0.0
C1459 C 0.03071 0.41078 0.93838 0.0
C1460 C 0.04066 0.42737 0.93462 0.0
C1461 C 0.03733 0.44552 0.9396 0.0
C1462 C 0.024 0.44712 0.94831 0.0
C1463 C 0.01405 0.43057 0.95211 0.0
H1464 H 0.04504 0.45835 0.93668 0.0
H1465 H 0.94765 0.29719 0.97226 0.0
H1466 H 0.85172 0.82928 0.20098 0.0
H1467 H 0.84943 0.79366 0.20172 0.0
H1468 H 0.87703 0.79376 0.23378 0.0
H1469 H 0.87958 0.82945 0.23307 0.0
H1470 H 0.89287 0.76647 0.22034 0.0
H1471 H 0.82844 0.78534 0.23148 0.0
H1472 H 0.79698 0.80283 0.23009 0.0
H1473 H 0.78481 0.77395 0.19933 0.0
H1474 H 0.81634 0.75648 0.20046 0.0
H1475 H 0.8737 0.66641 0.23174 0.0
H1476 H 0.87361 0.70211 0.23289 0.0
H1477 H 0.84695 0.70547 0.20063 0.0
H1478 H 0.84681 0.66976 0.19944 0.0
H1479 H 0.83021 0.731 0.21511 0.0
H1480 H 0.8952 0.71339 0.20356 0.0
H1481 H 0.92674 0.69602 0.20483 0.0
H1482 H 0.93785 0.7227 0.23634 0.0
H1483 H 0.90622 0.74003 0.23533 0.0
C1484 C 0.85725 0.82176 0.20822 0.0
C1485 C 0.86582 0.83222 0.21698 0.0
C1486 C 0.85584 0.80139 0.20865 0.0
C1487 C 0.86287 0.79107 0.21786 0.0
C1488 C 0.87147 0.80145 0.22661 0.0
C1489 C 0.87287 0.82185 0.2262 0.0
C1490 C 0.86173 0.7694 0.21819 0.0
C1491 C 0.87913 0.75871 0.21939 0.0
C1492 C 0.84384 0.7593 0.2167 0.0
C1493 C 0.82484 0.76974 0.216 0.0
C1494 C 0.81913 0.78284 0.22437 0.0
C1495 C 0.80127 0.79272 0.22364 0.0
C1496 C 0.78893 0.78954 0.21461 0.0
C1497 C 0.7944 0.77642 0.20631 0.0
C1498 C 0.81225 0.76651 0.207 0.0
C1499 C 0.86773 0.67472 0.2249 0.0
C1500 C 0.86037 0.66523 0.21547 0.0
C1501 C 0.86775 0.69513 0.22557 0.0
C1502 C 0.86048 0.70644 0.21679 0.0
C1503 C 0.85266 0.69701 0.20749 0.0
C1504 C 0.85266 0.6766 0.20681 0.0
C1505 C 0.86136 0.72811 0.21721 0.0
C1506 C 0.84393 0.73878 0.21614 0.0
C1507 C 0.87921 0.73821 0.21882 0.0
C1508 C 0.89825 0.72784 0.21943 0.0
C1509 C 0.90429 0.71543 0.21081 0.0
C1510 C 0.9222 0.70561 0.21147 0.0
C1511 C 0.93426 0.70821 0.22067 0.0
C1512 C 0.92847 0.72067 0.22922 0.0
C1513 C 0.91056 0.73051 0.22861 0.0
H1514 H 0.94813 0.7006 0.22117 0.0
H1515 H 0.7751 0.79721 0.21406 0.0
H1516 H 0.42074 0.59689 0.45865 0.0
H1517 H 0.4565 0.5964 0.45956 0.0
H1518 H 0.45765 0.65938 0.45748 0.0
H1519 H 0.42195 0.66004 0.45653 0.0
H1520 H 0.48359 0.64202 0.44318 0.0
H1521 H 0.46612 0.63733 0.48169 0.0
H1522 H 0.44932 0.6231 0.49784 0.0
H1523 H 0.47853 0.56833 0.49237 0.0
H1524 H 0.49532 0.58216 0.47609 0.0
H1525 H 0.58178 0.66061 0.45706 0.0
H1526 H 0.5461 0.65948 0.45721 0.0
H1527 H 0.54796 0.59685 0.46148 0.0
H1528 H 0.58375 0.59789 0.46156 0.0
H1529 H 0.52045 0.61274 0.47441 0.0
H1530 H 0.53835 0.61679 0.4363 0.0
H1531 H 0.55535 0.63027 0.42002 0.0
H1532 H 0.52529 0.68493 0.42421 0.0
H1533 H 0.50833 0.67188 0.44064 0.0
C1534 C 0.42859 0.61065 0.45844 0.0
C1535 C 0.41849 0.62851 0.45753 0.0
C1536 C 0.44902 0.61034 0.45899 0.0
C1537 C 0.4597 0.62787 0.45864 0.0
C1538 C 0.44966 0.6457 0.45775 0.0
C1539 C 0.42925 0.64603 0.45726 0.0
C1540 C 0.48138 0.62765 0.45897 0.0
C1541 C 0.49167 0.63584 0.45007 0.0
C1542 C 0.49186 0.61904 0.4678 0.0
C1543 C 0.48182 0.61072 0.47761 0.0
C1544 C 0.46884 0.6222 0.48388 0.0
C1545 C 0.45934 0.61422 0.49306 0.0
C1546 C 0.46281 0.59481 0.49611 0.0
C1547 C 0.47583 0.58335 0.48999 0.0
C1548 C 0.48536 0.59126 0.48079 0.0
C1549 C 0.57463 0.64659 0.45807 0.0
C1550 C 0.58561 0.62932 0.45922 0.0
C1551 C 0.55422 0.64596 0.45811 0.0
C1552 C 0.54437 0.62804 0.45917 0.0
C1553 C 0.55527 0.61083 0.46061 0.0
C1554 C 0.57572 0.61145 0.46063 0.0
C1555 C 0.52269 0.6273 0.45866 0.0
C1556 C 0.5124 0.61889 0.4675 0.0
C1557 C 0.51218 0.63557 0.44972 0.0
C1558 C 0.5222 0.64341 0.43977 0.0
C1559 C 0.53546 0.63173 0.4338 0.0
C1560 C 0.54508 0.63929 0.42454 0.0
C1561 C 0.54144 0.65846 0.4211 0.0
C1562 C 0.52812 0.67009 0.42689 0.0
C1563 C 0.51848 0.66262 0.43618 0.0
H1564 H 0.54892 0.66428 0.41393 0.0
H1565 H 0.45545 0.58866 0.50323 0.0
H1566 H 0.633 0.16397 0.72299 0.0
H1567 H 0.63239 0.19939 0.72571 0.0
H1568 H 0.66643 0.20722 0.696 0.0
H1569 H 0.66749 0.1718 0.69336 0.0
H1570 H 0.67898 0.23118 0.71181 0.0
H1571 H 0.61645 0.21391 0.69627 0.0
H1572 H 0.5852 0.19595 0.69532 0.0
H1573 H 0.56858 0.21896 0.72698 0.0
H1574 H 0.59986 0.23686 0.72819 0.0
H1575 H 0.65746 0.32962 0.69854 0.0
H1576 H 0.66076 0.2941 0.69894 0.0
H1577 H 0.62773 0.29191 0.7293 0.0
H1578 H 0.62411 0.32754 0.72889 0.0
H1579 H 0.61498 0.26507 0.71467 0.0
H1580 H 0.67699 0.2844 0.72942 0.0
H1581 H 0.70812 0.30261 0.72994 0.0
H1582 H 0.72565 0.27602 0.69934 0.0
H1583 H 0.69451 0.25785 0.69856 0.0
C1584 C 0.64044 0.17322 0.71706 0.0
C1585 C 0.65018 0.16507 0.70792 0.0
C1586 C 0.64002 0.19347 0.71861 0.0
C1587 C 0.64911 0.20598 0.71097 0.0
C1588 C 0.65928 0.19785 0.70199 0.0
C1589 C 0.65982 0.17759 0.70048 0.0
C1590 C 0.64768 0.22755 0.71215 0.0
C1591 C 0.66498 0.23861 0.71234 0.0
C1592 C 0.62943 0.23722 0.7131 0.0
C1593 C 0.61058 0.22655 0.71237 0.0
C1594 C 0.60619 0.21502 0.70306 0.0
C1595 C 0.58846 0.20487 0.70247 0.0
C1596 C 0.57494 0.20627 0.7111 0.0
C1597 C 0.57909 0.21787 0.72032 0.0
C1598 C 0.5968 0.22803 0.72095 0.0
C1599 C 0.65098 0.32163 0.70535 0.0
C1600 C 0.64053 0.33143 0.71369 0.0
C1601 C 0.65297 0.30131 0.70559 0.0
C1602 C 0.64468 0.29036 0.71422 0.0
C1603 C 0.63428 0.30009 0.72258 0.0
C1604 C 0.63228 0.32045 0.72235 0.0
C1605 C 0.64627 0.26871 0.71423 0.0
C1606 C 0.62899 0.25764 0.71426 0.0
C1607 C 0.66453 0.25905 0.71342 0.0
C1608 C 0.68334 0.26988 0.71389 0.0
C1609 C 0.68742 0.28254 0.72276 0.0
C1610 C 0.70508 0.29284 0.72311 0.0
C1611 C 0.71883 0.29051 0.71466 0.0
C1612 C 0.71498 0.27783 0.70587 0.0
C1613 C 0.69733 0.26751 0.70548 0.0
H1614 H 0.7325 0.2985 0.71495 0.0
H1615 H 0.56122 0.1984 0.71063 0.0
H1616 H 0.38586 0.33362 0.68292 0.0
H1617 H 0.3837 0.29801 0.68208 0.0
H1618 H 0.35546 0.29716 0.71397 0.0
H1619 H 0.35777 0.33284 0.71495 0.0
H1620 H 0.38356 0.26975 0.71273 0.0
H1621 H 0.3292 0.28953 0.69081 0.0
H1622 H 0.31168 0.30742 0.67615 0.0
H1623 H 0.3471 0.27945 0.65146 0.0
H1624 H 0.36508 0.2616 0.666 0.0
H1625 H 0.35585 0.16932 0.70885 0.0
H1626 H 0.35432 0.20498 0.71042 0.0
H1627 H 0.38471 0.21068 0.67934 0.0
H1628 H 0.38621 0.1751 0.67766 0.0
H1629 H 0.35345 0.23556 0.6808 0.0
H1630 H 0.40884 0.21713 0.70327 0.0
H1631 H 0.42556 0.19909 0.71818 0.0
H1632 H 0.38683 0.22458 0.74214 0.0
H1633 H 0.3697 0.24258 0.72734 0.0
C1634 C 0.37919 0.32589 0.68977 0.0
C1635 C 0.372 0.33607 0.69901 0.0
C1636 C 0.37787 0.30552 0.68924 0.0
C1637 C 0.36924 0.29494 0.69791 0.0
C1638 C 0.36215 0.30505 0.70718 0.0
C1639 C 0.36344 0.32544 0.70772 0.0
C1640 C 0.36799 0.2733 0.69737 0.0
C1641 C 0.37669 0.26227 0.70583 0.0
C1642 C 0.35929 0.26356 0.68829 0.0
C1643 C 0.3486 0.27434 0.67951 0.0
C1644 C 0.33338 0.28731 0.68226 0.0
C1645 C 0.32334 0.29742 0.67397 0.0
C1646 C 0.32827 0.29457 0.66289 0.0
C1647 C 0.34328 0.28162 0.66006 0.0
C1648 C 0.3534 0.2715 0.66832 0.0
C1649 C 0.36219 0.17815 0.70234 0.0
C1650 C 0.37123 0.16936 0.69315 0.0
C1651 C 0.36134 0.19853 0.70327 0.0
C1652 C 0.36955 0.21046 0.69504 0.0
C1653 C 0.37829 0.20173 0.68578 0.0
C1654 C 0.3792 0.18138 0.68486 0.0
C1655 C 0.36921 0.23207 0.69608 0.0
C1656 C 0.36021 0.24307 0.68771 0.0
C1657 C 0.37752 0.24179 0.70528 0.0
C1658 C 0.38786 0.23103 0.71418 0.0
C1659 C 0.40379 0.21877 0.71171 0.0
C1660 C 0.41336 0.20857 0.72014 0.0
C1661 C 0.40722 0.21065 0.7311 0.0
C1662 C 0.39154 0.22296 0.73364 0.0
C1663 C 0.3819 0.23317 0.72524 0.0
H1664 H 0.41465 0.20274 0.73761 0.0
H1665 H 0.32044 0.30237 0.65648 0.0
H1666 H 0.10618 0.66669 0.19461 0.0
H1667 H 0.10781 0.70228 0.19613 0.0
H1668 H 0.14956 0.697 0.2227 0.0
H1669 H 0.1479 0.66131 0.22131 0.0
H1670 H 0.12188 0.72426 0.22728 0.0
H1671 H 0.16512 0.7092 0.19744 0.0
H1672 H 0.17486 0.69399 0.1798 0.0
H1673 H 0.13027 0.72645 0.1628 0.0
H1674 H 0.12006 0.74163 0.18038 0.0
H1675 H 0.15515 0.82724 0.20574 0.0
H1676 H 0.15795 0.79159 0.2062 0.0
H1677 H 0.09806 0.78724 0.21717 0.0
H1678 H 0.09519 0.82286 0.21687 0.0
H1679 H 0.13866 0.76468 0.19455 0.0
H1680 H 0.09314 0.74751 0.23386 0.0
H1681 H 0.08564 0.76251 0.25192 0.0
H1682 H 0.13963 0.79456 0.25078 0.0
H1683 H 0.14757 0.77956 0.23279 0.0
C1684 C 0.11569 0.67307 0.2008 0.0
C1685 C 0.12696 0.66116 0.20782 0.0
C1686 C 0.11666 0.69342 0.20162 0.0
C1687 C 0.12896 0.70227 0.20945 0.0
C1688 C 0.13999 0.69045 0.2166 0.0
C1689 C 0.13907 0.67006 0.21576 0.0
C1690 C 0.1303 0.72388 0.21013 0.0
C1691 C 0.12557 0.73312 0.22014 0.0
C1692 C 0.1355 0.73539 0.20086 0.0
C1693 C 0.14172 0.72643 0.19025 0.0
C1694 C 0.1573 0.71299 0.18995 0.0
C1695 C 0.16292 0.70439 0.17996 0.0
C1696 C 0.15316 0.70922 0.17019 0.0
C1697 C 0.1378 0.72271 0.17038 0.0
C1698 C 0.1321 0.73133 0.18036 0.0
C1699 C 0.14261 0.81872 0.20833 0.0
C1700 C 0.12494 0.8279 0.21128 0.0
C1701 C 0.14423 0.79834 0.20856 0.0
C1702 C 0.12827 0.78676 0.21179 0.0
C1703 C 0.11066 0.79589 0.2148 0.0
C1704 C 0.10902 0.81626 0.21458 0.0
C1705 C 0.1298 0.76511 0.21164 0.0
C1706 C 0.13504 0.75586 0.20172 0.0
C1707 C 0.12539 0.75359 0.22105 0.0
C1708 C 0.12085 0.76253 0.23193 0.0
C1709 C 0.10345 0.75769 0.23749 0.0
C1710 C 0.09911 0.76621 0.2477 0.0
C1711 C 0.11212 0.77952 0.25248 0.0
C1712 C 0.12953 0.7843 0.24705 0.0
C1713 C 0.13394 0.77582 0.23684 0.0
H1714 H 0.10873 0.78611 0.26038 0.0
H1715 H 0.15753 0.70254 0.16246 0.0
H1716 H 0.12274 0.16607 0.76825 0.0
H1717 H 0.12263 0.20183 0.76715 0.0
H1718 H 0.14659 0.20517 0.80008 0.0
H1719 H 0.14651 0.16955 0.80132 0.0
H1720 H 0.11712 0.23069 0.79747 0.0
H1721 H 0.17521 0.21243 0.77731 0.0
H1722 H 0.19378 0.195 0.76287 0.0
H1723 H 0.15954 0.22315 0.73772 0.0
H1724 H 0.14058 0.24056 0.75203 0.0
H1725 H 0.15149 0.32759 0.79966 0.0
H1726 H 0.14962 0.29196 0.79904 0.0
H1727 H 0.12482 0.29482 0.7663 0.0
H1728 H 0.12684 0.33058 0.76678 0.0
H1729 H 0.15262 0.26634 0.76789 0.0
H1730 H 0.09564 0.28591 0.78799 0.0
H1731 H 0.07729 0.30362 0.80241 0.0
H1732 H 0.10928 0.27308 0.82762 0.0
H1733 H 0.12803 0.25539 0.81334 0.0
C1734 C 0.128 0.17442 0.77525 0.0
C1735 C 0.13467 0.16495 0.78486 0.0
C1736 C 0.12798 0.19485 0.7746 0.0
C1737 C 0.13475 0.20616 0.7835 0.0
C1738 C 0.14129 0.19673 0.79312 0.0
C1739 C 0.14129 0.17635 0.79379 0.0
C1740 C 0.135 0.22783 0.78289 0.0
C1741 C 0.12505 0.23848 0.79106 0.0
C1742 C 0.14488 0.238 0.77436 0.0
C1743 C 0.15634 0.22763 0.76575 0.0
C1744 C 0.17154 0.21478 0.76871 0.0
C1745 C 0.18216 0.20493 0.76054 0.0
C1746 C 0.17781 0.20792 0.74939 0.0
C1747 C 0.16287 0.22082 0.74637 0.0
C1748 C 0.1522 0.2307 0.7545 0.0
C1749 C 0.14568 0.32068 0.7923 0.0
C1750 C 0.13922 0.33194 0.78329 0.0
C1751 C 0.14455 0.3003 0.79199 0.0
C1752 C 0.13683 0.29076 0.78268 0.0
C1753 C 0.13077 0.30191 0.77357 0.0
C1754 C 0.1319 0.32233 0.77387 0.0
C1755 C 0.13499 0.26915 0.78257 0.0
C1756 C 0.1446 0.25853 0.77425 0.0
C1757 C 0.12477 0.259 0.79097 0.0
C1758 C 0.11335 0.26944 0.79958 0.0
C1759 C 0.09885 0.28306 0.7966 0.0
C1760 C 0.08837 0.29308 0.80475 0.0
C1761 C 0.09215 0.2895 0.81592 0.0
C1762 C 0.10638 0.27585 0.81896 0.0
C1763 C 0.11693 0.2658 0.81084 0.0
H1764 H 0.08402 0.29728 0.82222 0.0
H1765 H 0.18604 0.20028 0.74308 0.0
H1766 H 0.39205 0.66921 0.26368 0.0
H1767 H 0.39062 0.70492 0.26247 0.0
H1768 H 0.35487 0.70673 0.29183 0.0
H1769 H 0.35606 0.6711 0.29306 0.0
H1770 H 0.34109 0.73129 0.27596 0.0
H1771 H 0.40311 0.71687 0.2932 0.0
H1772 H 0.43559 0.70132 0.29456 0.0
H1773 H 0.45347 0.72966 0.26454 0.0
H1774 H 0.42099 0.74518 0.26291 0.0
H1775 H 0.3527 0.82829 0.29474 0.0
H1776 H 0.35268 0.79283 0.29245 0.0
H1777 H 0.38876 0.79848 0.26337 0.0
H1778 H 0.38904 0.83407 0.26566 0.0
H1779 H 0.40228 0.7703 0.27713 0.0
H1780 H 0.34108 0.7871 0.26077 0.0
H1781 H 0.30882 0.80314 0.25969 0.0
H1782 H 0.28937 0.77071 0.28803 0.0
H1783 H 0.32162 0.75467 0.28938 0.0
C1784 C 0.38384 0.6772 0.26986 0.0
C1785 C 0.37424 0.6673 0.2785 0.0
C1786 C 0.38308 0.69761 0.26917 0.0
C1787 C 0.37277 0.70848 0.27711 0.0
C1788 C 0.36289 0.69862 0.28561 0.0
C1789 C 0.36366 0.67825 0.28632 0.0
C1790 C 0.37256 0.73017 0.27675 0.0
C1791 C 0.35445 0.73984 0.2763 0.0
C1792 C 0.39002 0.74129 0.27689 0.0
C1793 C 0.40955 0.73199 0.27787 0.0
C1794 C 0.41392 0.71965 0.28683 0.0
C1795 C 0.43233 0.71087 0.28767 0.0
C1796 C 0.44656 0.71445 0.27962 0.0
C1797 C 0.44242 0.72687 0.27075 0.0
C1798 C 0.42402 0.73567 0.26987 0.0
C1799 C 0.36056 0.82204 0.28782 0.0
C1800 C 0.37086 0.83402 0.28037 0.0
C1801 C 0.36046 0.80175 0.28649 0.0
C1802 C 0.37055 0.79304 0.27767 0.0
C1803 C 0.38084 0.80493 0.27021 0.0
C1804 C 0.38094 0.82526 0.27153 0.0
C1805 C 0.37081 0.77144 0.27649 0.0
C1806 C 0.38892 0.76178 0.27666 0.0
C1807 C 0.35335 0.76034 0.27608 0.0
C1808 C 0.33384 0.76979 0.27522 0.0
C1809 C 0.32997 0.78348 0.26682 0.0
C1810 C 0.31168 0.79257 0.26615 0.0
C1811 C 0.29707 0.78798 0.2738 0.0
C1812 C 0.30071 0.77425 0.28212 0.0
C1813 C 0.31898 0.76514 0.28283 0.0
H1814 H 0.28293 0.79504 0.27328 0.0
H1815 H 0.46082 0.70765 0.28028 0.0
H1816 H 0.4066 0.08981 0.53085 0.0
H1817 H 0.44221 0.0868 0.53064 0.0
H1818 H 0.44728 0.14716 0.52064 0.0
H1819 H 0.41165 0.15026 0.52068 0.0
H1820 H 0.47393 0.124 0.51008 0.0
H1821 H 0.45172 0.13495 0.54735 0.0
H1822 H 0.43172 0.12796 0.56386 0.0
H1823 H 0.45784 0.07101 0.56647 0.0
H1824 H 0.47776 0.07754 0.54985 0.0
H1825 H 0.56962 0.14691 0.52837 0.0
H1826 H 0.53443 0.14517 0.52513 0.0
H1827 H 0.53396 0.0853 0.53642 0.0
H1828 H 0.5692 0.087 0.53985 0.0
H1829 H 0.505 0.10598 0.54574 0.0
H1830 H 0.529 0.09619 0.50897 0.0
H1831 H 0.54866 0.10355 0.49239 0.0
H1832 H 0.51935 0.15877 0.48889 0.0
H1833 H 0.49969 0.15186 0.50554 0.0
C1834 C 0.41526 0.1024 0.52847 0.0
C1835 C 0.4063 0.12036 0.5259 0.0
C1836 C 0.43562 0.10065 0.52838 0.0
C1837 C 0.44738 0.11685 0.52581 0.0
C1838 C 0.43846 0.1345 0.52269 0.0
C1839 C 0.41809 0.13625 0.52274 0.0
C1840 C 0.46892 0.11578 0.52703 0.0
C1841 C 0.48076 0.12022 0.51789 0.0
C1842 C 0.47777 0.11047 0.53717 0.0
C1843 C 0.46607 0.10665 0.54729 0.0
C1844 C 0.4531 0.12088 0.5514 0.0
C1845 C 0.44179 0.11701 0.56078 0.0
C1846 C 0.44347 0.09903 0.56619 0.0
C1847 C 0.45653 0.08492 0.56226 0.0
C1848 C 0.46784 0.0887 0.55286 0.0
C1849 C 0.56208 0.13331 0.5301 0.0
C1850 C 0.57223 0.11709 0.53437 0.0
C1851 C 0.54196 0.13232 0.52819 0.0
C1852 C 0.53159 0.11504 0.53042 0.0
C1853 C 0.54168 0.09877 0.53462 0.0
C1854 C 0.56183 0.09975 0.53655 0.0
C1855 C 0.51009 0.11427 0.52879 0.0
C1856 C 0.49823 0.10957 0.53788 0.0
C1857 C 0.50124 0.1194 0.51861 0.0
C1858 C 0.51298 0.12357 0.50856 0.0
C1859 C 0.52685 0.10997 0.50471 0.0
C1860 C 0.53797 0.11405 0.49529 0.0
C1861 C 0.53528 0.13163 0.4896 0.0
C1862 C 0.52142 0.14516 0.49331 0.0
C1863 C 0.51027 0.14116 0.50273 0.0
H1864 H 0.54391 0.13476 0.48231 0.0
H1865 H 0.43469 0.09606 0.57344 0.0
H1866 H 0.9137 0.83915 0.04799 0.0
H1867 H 0.94919 0.83712 0.04595 0.0
H1868 H 0.95056 0.89653 0.03392 0.0
H1869 H 0.91498 0.89853 0.0357 0.0
H1870 H 0.97506 0.87441 0.02238 0.0
H1871 H 0.96215 0.88546 0.06077 0.0
H1872 H 0.94743 0.87941 0.07907 0.0
H1873 H 0.97461 0.82282 0.08028 0.0
H1874 H 0.98924 0.82839 0.0619 0.0
H1875 H 0.07576 0.89419 0.03393 0.0
H1876 H 0.03997 0.89427 0.03353 0.0
H1877 H 0.0394 0.83295 0.04192 0.0
H1878 H 0.07518 0.83269 0.04229 0.0
H1879 H 0.01468 0.85561 0.05506 0.0
H1880 H 0.02836 0.84585 0.01648 0.0
H1881 H 0.04373 0.85338 0.99854 0.0
H1882 H 0.01562 0.90957 0.99818 0.0
H1883 H 0.00029 0.90247 0.0162 0.0
C1884 C 0.92152 0.85175 0.04484 0.0
C1885 C 0.91154 0.86905 0.04207 0.0
C1886 C 0.94183 0.85059 0.04372 0.0
C1887 C 0.95257 0.86679 0.03997 0.0
C1888 C 0.94257 0.88387 0.03687 0.0
C1889 C 0.92224 0.885 0.0379 0.0
C1890 C 0.97426 0.86608 0.03955 0.0
C1891 C 0.98373 0.87052 0.02956 0.0
C1892 C 0.98557 0.86072 0.04888 0.0
C1893 C 0.97664 0.85727 0.0599 0.0
C1894 C 0.96484 0.87165 0.06489 0.0
C1895 C 0.95654 0.86832 0.07528 0.0
C1896 C 0.96007 0.85074 0.08082 0.0
C1897 C 0.97188 0.83643 0.07597 0.0
C1898 C 0.98019 0.83966 0.06557 0.0
C1899 C 0.06803 0.88069 0.03562 0.0
C1900 C 0.07831 0.86343 0.03815 0.0
C1901 C 0.04759 0.88075 0.03535 0.0
C1902 C 0.03707 0.8636 0.03765 0.0
C1903 C 0.04727 0.84633 0.04011 0.0
C1904 C 0.06771 0.84621 0.04028 0.0
C1905 C 0.01541 0.86386 0.0379 0.0
C1906 C 0.00597 0.85941 0.04788 0.0
C1907 C 0.00417 0.86942 0.0286 0.0
C1908 C 0.01333 0.8737 0.01775 0.0
C1909 C 0.02559 0.85988 0.01262 0.0
C1910 C 0.03427 0.86406 0.00243 0.0
C1911 C 0.0307 0.88196 0.99724 0.0
C1912 C 0.0184 0.89571 0.00222 0.0
C1913 C 0.00969 0.89161 0.01242 0.0
H1914 H 0.03743 0.88517 0.98934 0.0
H1915 H 0.95373 0.84822 0.08889 0.0
H1916 H 0.42252 0.89153 0.44988 0.0
H1917 H 0.45822 0.89144 0.44981 0.0
H1918 H 0.45851 0.85821 0.48012 0.0
H1919 H 0.4227 0.85844 0.48035 0.0
H1920 H 0.48499 0.88772 0.48066 0.0
H1921 H 0.46787 0.83599 0.45565 0.0
H1922 H 0.45099 0.82113 0.43972 0.0
H1923 H 0.47933 0.86164 0.41782 0.0
H1924 H 0.49618 0.87693 0.43365 0.0
H1925 H 0.58516 0.86029 0.47858 0.0
H1926 H 0.54944 0.8599 0.47919 0.0
H1927 H 0.54733 0.89167 0.44839 0.0
H1928 H 0.58307 0.89181 0.44761 0.0
H1929 H 0.5217 0.8623 0.44831 0.0
H1930 H 0.53839 0.91441 0.47318 0.0
H1931 H 0.55513 0.92967 0.48904 0.0
H1932 H 0.52755 0.88891 0.5111 0.0
H1933 H 0.51085 0.87322 0.49534 0.0
C1934 C 0.43014 0.8842 0.45655 0.0
C1935 C 0.41974 0.87492 0.4651 0.0
C1936 C 0.45056 0.8841 0.45646 0.0
C1937 C 0.46102 0.8746 0.46488 0.0
C1938 C 0.45072 0.86559 0.47353 0.0
C1939 C 0.43026 0.86569 0.47363 0.0
C1940 C 0.48271 0.87415 0.46465 0.0
C1941 C 0.49304 0.8819 0.47366 0.0
C1942 C 0.49318 0.86697 0.4554 0.0
C1943 C 0.48315 0.85772 0.44586 0.0
C1944 C 0.47039 0.84183 0.44745 0.0
C1945 C 0.46085 0.83331 0.43844 0.0
C1946 C 0.46405 0.84047 0.42777 0.0
C1947 C 0.47685 0.85613 0.42609 0.0
C1948 C 0.48641 0.86471 0.43508 0.0
C1949 C 0.57711 0.86722 0.47194 0.0
C1950 C 0.58697 0.87613 0.46306 0.0
C1951 C 0.55668 0.86706 0.47232 0.0
C1952 C 0.54571 0.87597 0.4639 0.0
C1953 C 0.55551 0.88473 0.45499 0.0
C1954 C 0.57594 0.88484 0.45457 0.0
C1955 C 0.52401 0.87595 0.46431 0.0
C1956 C 0.51367 0.86809 0.45532 0.0
C1957 C 0.51354 0.88307 0.47357 0.0
C1958 C 0.52353 0.89252 0.48307 0.0
C1959 C 0.53602 0.9086 0.4814 0.0
C1960 C 0.54548 0.91735 0.49037 0.0
C1961 C 0.54245 0.91023 0.50107 0.0
C1962 C 0.52991 0.89439 0.50281 0.0
C1963 C 0.52043 0.88557 0.49386 0.0
H1964 H 0.54978 0.91703 0.508 0.0
H1965 H 0.45664 0.83385 0.4208 0.0
H1966 H 0.08329 0.16223 0.96318 0.0
H1967 H 0.04761 0.16156 0.96284 0.0
H1968 H 0.04858 0.09864 0.96571 0.0
H1969 H 0.08434 0.09916 0.96578 0.0
H1970 H 0.02416 0.10925 0.95005 0.0
H1971 H 0.03481 0.12865 0.98758 0.0
H1972 H 0.04856 0.1485 0.00272 0.0
H1973 H 0.02036 0.19971 0.98972 0.0
H1974 H 0.00664 0.18021 0.97441 0.0
H1975 H 0.92238 0.09841 0.95978 0.0
H1976 H 0.95785 0.09857 0.96232 0.0
H1977 H 0.95898 0.16089 0.95673 0.0
H1978 H 0.92346 0.16092 0.95426 0.0
H1979 H 0.98208 0.14999 0.97428 0.0
H1980 H 0.97233 0.13039 0.93647 0.0
H1981 H 0.95846 0.11028 0.92148 0.0
H1982 H 0.98504 0.05894 0.93536 0.0
H1983 H 0.99885 0.07871 0.95054 0.0
C1984 C 0.07593 0.14825 0.96385 0.0
C1985 C 0.08667 0.13074 0.96451 0.0
C1986 C 0.0555 0.1479 0.9637 0.0
C1987 C 0.04537 0.13006 0.96436 0.0
C1988 C 0.05607 0.11258 0.96519 0.0
C1989 C 0.07651 0.1129 0.96526 0.0
C1990 C 0.02368 0.12958 0.96367 0.0
C1991 C 0.01497 0.11791 0.95549 0.0
C1992 C 0.01166 0.14123 0.97057 0.0
C1993 C 0.01984 0.15299 0.97979 0.0
C1994 C 0.03166 0.14417 0.9879 0.0
C1995 C 0.03943 0.15535 0.99652 0.0
C1996 C 0.03538 0.17536 0.99717 0.0
C1997 C 0.0235 0.18421 0.98921 0.0
C1998 C 0.01571 0.1731 0.98056 0.0
C1999 C 0.93015 0.11217 0.95911 0.0
C2000 C 0.9201 0.12964 0.95676 0.0
C2001 C 0.95043 0.11222 0.96054 0.0
C2002 C 0.96106 0.12971 0.95961 0.0
C2003 C 0.95104 0.14723 0.95747 0.0
C2004 C 0.93076 0.1472 0.95602 0.0
C2005 C 0.98267 0.12967 0.96069 0.0
C2006 C 0.99133 0.14126 0.96891 0.0
C2007 C 0.99465 0.1179 0.95386 0.0
C2008 C 0.98646 0.106 0.9447 0.0
C2009 C 0.97509 0.11479 0.93638 0.0
C2010 C 0.96726 0.10346 0.92784 0.0
C2011 C 0.97082 0.08334 0.92749 0.0
C2012 C 0.98227 0.07452 0.93566 0.0
C2013 C 0.99012 0.08578 0.94422 0.0
H2014 H 0.96475 0.07459 0.92087 0.0
H2015 H 0.04141 0.18399 0.00385 0.0
H2016 H 0.17179 0.42047 0.9835 0.0
H2017 H 0.17975 0.44475 0.99763 0.0
H2018 H 0.16099 0.49092 0.97574 0.0
H2019 H 0.15342 0.4668 0.96148 0.0
H2020 H 0.1923 0.50221 0.98771 0.0
H2021 H 0.12973 0.47105 0.99473 0.0
H2022 H 0.108 0.44285 0.99807 0.0
H2023 H 0.14139 0.42738 0.02684 0.0
H2024 H 0.16348 0.45537 0.02358 0.0
H2025 H 0.15065 0.5761 0.02046 0.0
H2026 H 0.15957 0.54981 0.00784 0.0
H2027 H 0.17933 0.51482 0.03533 0.0
H2028 H 0.17031 0.54115 0.04811 0.0
H2029 H 0.15375 0.49537 0.02226 0.0
H2030 H 0.21229 0.53145 0.01689 0.0
H2031 H 0.23273 0.56052 0.01343 0.0
H2032 H 0.20611 0.56781 0.98155 0.0
H2033 H 0.18529 0.53895 0.98488 0.0
C2034 C 0.16962 0.43581 0.98163 0.0
C2035 C 0.1617 0.44171 0.97143 0.0
C2036 C 0.17417 0.44966 0.98972 0.0
C2037 C 0.17063 0.46959 0.9878 0.0
C2038 C 0.1638 0.4756 0.97739 0.0
C2039 C 0.1594 0.46178 0.96927 0.0
C2040 C 0.1723 0.48406 0.99686 0.0
C2041 C 0.18387 0.50077 0.99526 0.0
C2042 C 0.16169 0.48189 0.00684 0.0
C2043 C 0.14839 0.46513 0.00883 0.0
C2044 C 0.13252 0.46154 0.00172 0.0
C2045 C 0.12013 0.44562 0.00361 0.0
C2046 C 0.12335 0.43329 0.01264 0.0
C2047 C 0.13894 0.43691 0.01983 0.0
C2048 C 0.1514 0.4528 0.01797 0.0
C2049 C 0.15711 0.56292 0.02384 0.0
C2050 C 0.15964 0.56064 0.0353 0.0
C2051 C 0.16236 0.54796 0.01659 0.0
C2052 C 0.17028 0.53044 0.02064 0.0
C2053 C 0.17333 0.52829 0.03205 0.0
C2054 C 0.16817 0.54333 0.03932 0.0
C2055 C 0.17339 0.5138 0.013 0.0
C2056 C 0.16262 0.49666 0.01485 0.0
C2057 C 0.18461 0.51569 0.00323 0.0
C2058 C 0.19714 0.53307 0.00117 0.0
C2059 C 0.21068 0.53933 0.00917 0.0
C2060 C 0.22236 0.55576 0.00723 0.0
C2061 C 0.2207 0.56602 0.99729 0.0
C2062 C 0.20738 0.55984 0.98925 0.0
C2063 C 0.19566 0.54343 0.99116 0.0
H2064 H 0.22976 0.57874 0.9958 0.0
H2065 H 0.11374 0.42097 0.01409 0.0
H2066 H 0.78664 0.89775 0.20922 0.0
H2067 H 0.76039 0.90847 0.22147 0.0
H2068 H 0.80251 0.93756 0.24234 0.0
H2069 H 0.82894 0.92654 0.23023 0.0
H2070 H 0.77943 0.91526 0.25423 0.0
H2071 H 0.76933 0.96389 0.22678 0.0
H2072 H 0.7649 0.97728 0.20803 0.0
H2073 H 0.71213 0.9439 0.20419 0.0
H2074 H 0.71638 0.93008 0.22287 0.0
H2075 H 0.70119 0.94371 0.28925 0.0
H2076 H 0.72824 0.94833 0.27622 0.0
H2077 H 0.69755 0.91388 0.2519 0.0
H2078 H 0.67048 0.90933 0.26476 0.0
H2079 H 0.71662 0.94518 0.24251 0.0
H2080 H 0.73055 0.89261 0.26844 0.0
H2081 H 0.73508 0.87871 0.28708 0.0
H2082 H 0.7811 0.91993 0.29352 0.0
H2083 H 0.77665 0.93424 0.27495 0.0
C2084 C 0.79031 0.90664 0.21633 0.0
C2085 C 0.80988 0.91119 0.21879 0.0
C2086 C 0.77526 0.91289 0.22329 0.0
C2087 C 0.77946 0.92399 0.23277 0.0
C2088 C 0.79894 0.92904 0.23506 0.0
C2089 C 0.81402 0.92272 0.22813 0.0
C2090 C 0.76372 0.92871 0.24077 0.0
C2091 C 0.76589 0.92227 0.25171 0.0
C2092 C 0.74592 0.93755 0.23746 0.0
C2093 C 0.74325 0.94585 0.22622 0.0
C2094 C 0.75685 0.95929 0.22191 0.0
C2095 C 0.75436 0.96698 0.2113 0.0
C2096 C 0.73826 0.96142 0.20492 0.0
C2097 C 0.72459 0.94819 0.20915 0.0
C2098 C 0.72702 0.94045 0.21976 0.0
C2099 C 0.70007 0.93738 0.28106 0.0
C2100 C 0.68381 0.92594 0.27808 0.0
C2101 C 0.71554 0.94002 0.27364 0.0
C2102 C 0.71496 0.93125 0.26315 0.0
C2103 C 0.69828 0.92077 0.25995 0.0
C2104 C 0.68287 0.91808 0.26736 0.0
C2105 C 0.7323 0.93138 0.25583 0.0
C2106 C 0.73038 0.93865 0.24503 0.0
C2107 C 0.75037 0.9233 0.25925 0.0
C2108 C 0.7531 0.91464 0.27037 0.0
C2109 C 0.74153 0.8988 0.27387 0.0
C2110 C 0.7441 0.89083 0.28441 0.0
C2111 C 0.75832 0.89847 0.29149 0.0
C2112 C 0.77005 0.91406 0.28803 0.0
C2113 C 0.76752 0.9221 0.2775 0.0
H2114 H 0.76029 0.89228 0.29965 0.0
H2115 H 0.73636 0.96739 0.1967 0.0
H2116 H 0.32765 0.42095 0.51863 0.0
H2117 H 0.32127 0.44504 0.50417 0.0
H2118 H 0.32955 0.49172 0.52771 0.0
H2119 H 0.33565 0.4677 0.54229 0.0
H2120 H 0.29999 0.49993 0.5131 0.0
H2121 H 0.36694 0.47726 0.51164 0.0
H2122 H 0.39289 0.45227 0.51041 0.0
H2123 H 0.3703 0.4332 0.47909 0.0
H2124 H 0.34403 0.45792 0.48022 0.0
H2125 H 0.33551 0.57858 0.4809 0.0
H2126 H 0.32839 0.55223 0.49385 0.0
H2127 H 0.32243 0.51176 0.46669 0.0
H2128 H 0.32983 0.53807 0.45363 0.0
H2129 H 0.34712 0.49828 0.4819 0.0
H2130 H 0.28269 0.52468 0.48229 0.0
H2131 H 0.25735 0.55022 0.48365 0.0
H2132 H 0.27536 0.56304 0.51687 0.0
H2133 H 0.30102 0.53776 0.51566 0.0
C2134 C 0.32787 0.43633 0.52078 0.0
C2135 C 0.33244 0.44244 0.53158 0.0
C2136 C 0.32422 0.45007 0.5125 0.0
C2137 C 0.32526 0.47015 0.51484 0.0
C2138 C 0.32873 0.47628 0.52573 0.0
C2139 C 0.33229 0.46254 0.53404 0.0
C2140 C 0.32436 0.48472 0.5058 0.0
C2141 C 0.31033 0.49968 0.50629 0.0
C2142 C 0.33757 0.48406 0.4968 0.0
C2143 C 0.3534 0.46927 0.49608 0.0
C2144 C 0.36742 0.46763 0.50454 0.0
C2145 C 0.3822 0.45354 0.50385 0.0
C2146 C 0.38321 0.44112 0.49469 0.0
C2147 C 0.36947 0.4428 0.48619 0.0
C2148 C 0.35465 0.45685 0.48685 0.0
C2149 C 0.33241 0.56415 0.47764 0.0
C2150 C 0.3334 0.56039 0.46623 0.0
C2151 C 0.32819 0.54912 0.48507 0.0
C2152 C 0.32473 0.53006 0.48124 0.0
C2153 C 0.32502 0.52639 0.46982 0.0
C2154 C 0.32924 0.54144 0.46237 0.0
C2155 C 0.32286 0.51372 0.48922 0.0
C2156 C 0.33648 0.49841 0.48857 0.0
C2157 C 0.30932 0.51416 0.49807 0.0
C2158 C 0.29389 0.52939 0.49885 0.0
C2159 C 0.28136 0.53304 0.48986 0.0
C2160 C 0.26691 0.54746 0.49061 0.0
C2161 C 0.26477 0.55827 0.50033 0.0
C2162 C 0.27705 0.55466 0.50934 0.0
C2163 C 0.29153 0.54027 0.50863 0.0
H2164 H 0.25357 0.56943 0.5009 0.0
H2165 H 0.39466 0.43022 0.49418 0.0
H2166 H 0.79723 0.06514 0.78842 0.0
H2167 H 0.77226 0.06027 0.77424 0.0
H2168 H 0.81328 0.07826 0.7491 0.0
H2169 H 0.83817 0.0836 0.76324 0.0
H2170 H 0.78076 0.09804 0.74729 0.0
H2171 H 0.79663 0.03044 0.75096 0.0
H2172 H 0.80274 0.99934 0.76068 0.0
H2173 H 0.74376 0.99934 0.7729 0.0
H2174 H 0.73737 0.0306 0.76338 0.0
H2175 H 0.7131 0.0848 0.70429 0.0
H2176 H 0.74193 0.07734 0.71547 0.0
H2177 H 0.70498 0.06601 0.74365 0.0
H2178 H 0.67604 0.07331 0.73253 0.0
H2179 H 0.73719 0.04062 0.74246 0.0
H2180 H 0.72317 0.10998 0.74072 0.0
H2181 H 0.71694 0.14118 0.7311 0.0
H2182 H 0.77312 0.13752 0.71533 0.0
H2183 H 0.77955 0.10612 0.72474 0.0
C2184 C 0.80103 0.06776 0.77985 0.0
C2185 C 0.81962 0.07493 0.77696 0.0
C2186 C 0.78677 0.06486 0.77174 0.0
C2187 C 0.79093 0.0688 0.76059 0.0
C2188 C 0.80974 0.07516 0.75765 0.0
C2189 C 0.82394 0.07821 0.76575 0.0
C2190 C 0.77516 0.06822 0.75218 0.0
C2191 C 0.77155 0.0853 0.74607 0.0
C2192 C 0.7628 0.05178 0.75078 0.0
C2193 C 0.76657 0.03296 0.75652 0.0
C2194 C 0.785 0.0239 0.75579 0.0
C2195 C 0.78851 0.00622 0.76125 0.0
C2196 C 0.77366 0.99739 0.76743 0.0
C2197 C 0.75525 0.00621 0.76813 0.0
C2198 C 0.75167 0.02389 0.76268 0.0
C2199 C 0.71106 0.08038 0.71281 0.0
C2200 C 0.6923 0.07994 0.71757 0.0
C2201 C 0.72755 0.07612 0.71918 0.0
C2202 C 0.72555 0.0714 0.73041 0.0
C2203 C 0.7068 0.06965 0.73499 0.0
C2204 C 0.69029 0.07394 0.72864 0.0
C2205 C 0.74295 0.07039 0.73766 0.0
C2206 C 0.74672 0.05315 0.74358 0.0
C2207 C 0.75552 0.08666 0.73892 0.0
C2208 C 0.75174 0.1056 0.73333 0.0
C2209 C 0.73413 0.11575 0.73513 0.0
C2210 C 0.73057 0.13348 0.72973 0.0
C2211 C 0.7446 0.1413 0.72259 0.0
C2212 C 0.76224 0.13142 0.72085 0.0
C2213 C 0.76585 0.11367 0.72622 0.0
H2214 H 0.74182 0.15502 0.71841 0.0
H2215 H 0.7764 0.9837 0.77165 0.0
H2216 H 0.82879 0.57863 0.01343 0.0
H2217 H 0.82425 0.55272 -0.00018 0.0
H2218 H 0.794 0.51776 0.02409 0.0
H2219 H 0.79855 0.54365 0.03783 0.0
H2220 H 0.82387 0.49811 0.01438 0.0
H2221 H 0.76908 0.53516 0.00228 0.0
H2222 H 0.75093 0.56461 0.99651 0.0
H2223 H 0.78894 0.57127 0.96851 0.0
H2224 H 0.80751 0.54202 0.97419 0.0
H2225 H 0.81721 0.42307 0.97429 0.0
H2226 H 0.80594 0.44774 0.98748 0.0
H2227 H 0.8331 0.493 0.96793 0.0
H2228 H 0.84405 0.46855 0.9546 0.0
H2229 H 0.79866 0.50532 0.97613 0.0
H2230 H 0.8566 0.47276 0.99006 0.0
H2231 H 0.87612 0.44421 0.99588 0.0
H2232 H 0.83314 0.43017 0.02053 0.0
H2233 H 0.81323 0.45852 0.01475 0.0
C2234 C 0.8209 0.56557 0.01585 0.0
C2235 C 0.81416 0.56312 0.02674 0.0
C2236 C 0.8182 0.55082 0.00802 0.0
C2237 C 0.80868 0.53338 0.01093 0.0
C2238 C 0.80133 0.53115 0.02169 0.0
C2239 C 0.80393 0.54597 0.02951 0.0
C2240 C 0.80833 0.51682 0.00305 0.0
C2241 C 0.8179 0.49949 0.0061 0.0
C2242 C 0.80093 0.51884 0.99219 0.0
C2243 C 0.78977 0.53644 0.98871 0.0
C2244 C 0.77367 0.54298 0.99494 0.0
C2245 C 0.76329 0.55963 0.99167 0.0
C2246 C 0.7688 0.56982 0.98216 0.0
C2247 C 0.78469 0.56336 0.97588 0.0
C2248 C 0.79513 0.54673 0.9791 0.0
C2249 C 0.82058 0.4383 0.97273 0.0
C2250 C 0.83174 0.44384 0.96347 0.0
C2251 C 0.81414 0.45237 0.98028 0.0
C2252 C 0.81894 0.47216 0.97876 0.0
C2253 C 0.82925 0.47781 0.96926 0.0
C2254 C 0.83559 0.46378 0.96168 0.0
C2255 C 0.81456 0.48685 0.98742 0.0
C2256 C 0.80419 0.50381 0.98449 0.0
C2257 C 0.82135 0.4846 0.99839 0.0
C2258 C 0.83332 0.46759 0.00188 0.0
C2259 C 0.85124 0.46349 0.99666 0.0
C2260 C 0.86239 0.44736 -4e-05 0.0
C2261 C 0.85584 0.43534 0.00855 0.0
C2262 C 0.83816 0.43946 0.01387 0.0
C2263 C 0.82695 0.45556 0.01058 0.0
H2264 H 0.86449 0.42287 0.01109 0.0
H2265 H 0.76074 0.58271 0.97965 0.0
H2266 H 0.21414 0.12167 0.7868 0.0
H2267 H 0.23951 0.11597 0.77303 0.0
H2268 H 0.20715 0.06662 0.76036 0.0
H2269 H 0.18131 0.07263 0.77395 0.0
H2270 H 0.26395 0.08818 0.76772 0.0
H2271 H 0.21244 0.06524 0.73237 0.0
H2272 H 0.17789 0.06892 0.72679 0.0
H2273 H 0.17427 0.12306 0.74468 0.0
H2274 H 0.20884 0.11981 0.75024 0.0
H2275 H 0.32586 0.07327 0.72128 0.0
H2276 H 0.30037 0.06689 0.73505 0.0
H2277 H 0.26851 0.11758 0.72369 0.0
H2278 H 0.29343 0.12357 0.70972 0.0
H2279 H 0.24378 0.09042 0.72835 0.0
H2280 H 0.30002 0.11841 0.74677 0.0
H2281 H 0.33464 0.11988 0.75248 0.0
H2282 H 0.32898 0.06423 0.76864 0.0
H2283 H 0.29437 0.06235 0.76292 0.0
C2284 C 0.21248 0.10947 0.78117 0.0
C2285 C 0.19559 0.09775 0.78138 0.0
C2286 C 0.22706 0.10617 0.77332 0.0
C2287 C 0.22512 0.09104 0.76556 0.0
C2288 C 0.20879 0.0786 0.76614 0.0
C2289 C 0.19407 0.08202 0.77393 0.0
C2290 C 0.23957 0.08931 0.75646 0.0
C2291 C 0.25954 0.08846 0.75911 0.0
C2292 C 0.23385 0.08992 0.74522 0.0
C2293 C 0.21312 0.09214 0.74183 0.0
C2294 C 0.20426 0.07794 0.73509 0.0
C2295 C 0.18468 0.07996 0.73193 0.0
C2296 C 0.17387 0.09618 0.73542 0.0
C2297 C 0.18263 0.11047 0.74203 0.0
C2298 C 0.20221 0.10854 0.74519 0.0
C2299 C 0.31329 0.0829 0.72165 0.0
C2300 C 0.31172 0.09901 0.71447 0.0
C2301 C 0.29878 0.07928 0.72954 0.0
C2302 C 0.28267 0.09194 0.73053 0.0
C2303 C 0.28078 0.10759 0.72309 0.0
C2304 C 0.2951 0.11104 0.71512 0.0
C2305 C 0.26821 0.0897 0.7396 0.0
C2306 C 0.24822 0.08972 0.73695 0.0
C2307 C 0.27393 0.089 0.75085 0.0
C2308 C 0.2947 0.09013 0.7543 0.0
C2309 C 0.30621 0.10643 0.75148 0.0
C2310 C 0.32582 0.10735 0.75472 0.0
C2311 C 0.33402 0.09213 0.76089 0.0
C2312 C 0.32262 0.07599 0.76384 0.0
C2313 C 0.30301 0.07499 0.76061 0.0
H2314 H 0.34921 0.09286 0.76339 0.0
H2315 H 0.15871 0.09769 0.73297 0.0
H2316 H 0.6571 0.41701 0.5117 0.0
H2317 H 0.66421 0.44502 0.49992 0.0
H2318 H 0.6923 0.47419 0.52727 0.0
H2319 H 0.6851 0.44614 0.5392 0.0
H2320 H 0.66484 0.49682 0.51759 0.0
H2321 H 0.71942 0.45964 0.50544 0.0
H2322 H 0.73717 0.43058 0.49873 0.0
H2323 H 0.70239 0.4303 0.46917 0.0
H2324 H 0.68422 0.45919 0.47578 0.0
H2325 H 0.67878 0.57779 0.48215 0.0
H2326 H 0.68784 0.55049 0.49415 0.0
H2327 H 0.66064 0.5101 0.47147 0.0
H2328 H 0.65185 0.53724 0.45932 0.0
H2329 H 0.69397 0.49493 0.48003 0.0
H2330 H 0.63582 0.52747 0.49377 0.0
H2331 H 0.61685 0.55581 0.50045 0.0
H2332 H 0.65767 0.5639 0.52704 0.0
H2333 H 0.67702 0.53574 0.52042 0.0
C2334 C 0.66503 0.42925 0.5152 0.0
C2335 C 0.6704 0.42942 0.52641 0.0
C2336 C 0.66923 0.4452 0.50842 0.0
C2337 C 0.67893 0.46162 0.5127 0.0
C2338 C 0.68488 0.46161 0.52381 0.0
C2339 C 0.68076 0.44557 0.5306 0.0
C2340 C 0.68092 0.47943 0.50583 0.0
C2341 C 0.67169 0.49656 0.50949 0.0
C2342 C 0.68946 0.47893 0.49518 0.0
C2343 C 0.70038 0.46155 0.49114 0.0
C2344 C 0.71545 0.4533 0.49755 0.0
C2345 C 0.72561 0.43687 0.49375 0.0
C2346 C 0.72089 0.42858 0.48354 0.0
C2347 C 0.70603 0.43673 0.47709 0.0
C2348 C 0.69582 0.45317 0.48084 0.0
C2349 C 0.67493 0.56307 0.47965 0.0
C2350 C 0.66436 0.55969 0.46986 0.0
C2351 C 0.68012 0.5475 0.48652 0.0
C2352 C 0.67464 0.52832 0.48378 0.0
C2353 C 0.66498 0.5248 0.47374 0.0
C2354 C 0.65988 0.54035 0.46683 0.0
C2355 C 0.67753 0.51208 0.49172 0.0
C2356 C 0.68759 0.49528 0.48824 0.0
C2357 C 0.66964 0.5128 0.50253 0.0
C2358 C 0.65799 0.52967 0.50653 0.0
C2359 C 0.64082 0.53539 0.50099 0.0
C2360 C 0.62999 0.5514 0.50477 0.0
C2361 C 0.63608 0.56169 0.51414 0.0
C2362 C 0.65299 0.55595 0.51977 0.0
C2363 C 0.66389 0.53996 0.51601 0.0
H2364 H 0.62768 0.57408 0.51706 0.0
H2365 H 0.72878 0.41586 0.48062 0.0
H2366 H 0.17225 0.91669 0.23067 0.0
H2367 H 0.19976 0.92414 0.24283 0.0
H2368 H 0.24007 0.91134 0.21635 0.0
H2369 H 0.21264 0.90359 0.20417 0.0
H2370 H 0.24909 0.89149 0.23456 0.0
H2371 H 0.23431 0.95803 0.22595 0.0
H2372 H 0.21353 0.98726 0.22379 0.0
H2373 H 0.20002 0.98612 0.25844 0.0
H2374 H 0.2205 0.9567 0.26079 0.0
H2375 H 0.33325 0.91454 0.2646 0.0
H2376 H 0.30779 0.91915 0.25072 0.0
H2377 H 0.26459 0.92527 0.27647 0.0
H2378 H 0.29002 0.92072 0.29049 0.0
H2379 H 0.25824 0.95039 0.25798 0.0
H2380 H 0.27015 0.8823 0.26608 0.0
H2381 H 0.29077 0.85297 0.26841 0.0
H2382 H 0.30925 0.85714 0.23457 0.0
H2383 H 0.28893 0.88668 0.23208 0.0
C2384 C 0.18695 0.91574 0.22738 0.0
C2385 C 0.19027 0.90937 0.21648 0.0
C2386 C 0.20267 0.92012 0.23433 0.0
C2387 C 0.22196 0.91837 0.23048 0.0
C2388 C 0.22528 0.91277 0.21948 0.0
C2389 C 0.20959 0.90836 0.21253 0.0
C2390 C 0.23862 0.92053 0.23822 0.0
C2391 C 0.2513 0.90455 0.2395 0.0
C2392 C 0.24116 0.93734 0.24491 0.0
C2393 C 0.22882 0.95504 0.24353 0.0
C2394 C 0.22678 0.9639 0.2331 0.0
C2395 C 0.21508 0.98053 0.23184 0.0
C2396 C 0.20542 0.98852 0.24097 0.0
C2397 C 0.20749 0.97991 0.25138 0.0
C2398 C 0.21917 0.96327 0.25268 0.0
C2399 C 0.31841 0.91721 0.26735 0.0
C2400 C 0.31359 0.91694 0.27866 0.0
C2401 C 0.30389 0.91986 0.2594 0.0
C2402 C 0.28432 0.92225 0.26259 0.0
C2403 C 0.27964 0.9234 0.27386 0.0
C2404 C 0.29417 0.92071 0.28185 0.0
C2405 C 0.2686 0.92141 0.25422 0.0
C2406 C 0.25608 0.9375 0.2529 0.0
C2407 C 0.26611 0.90468 0.24748 0.0
C2408 C 0.2782 0.88682 0.24893 0.0
C2409 C 0.27873 0.87705 0.25916 0.0
C2410 C 0.29034 0.86037 0.26051 0.0
C2411 C 0.30136 0.85323 0.25166 0.0
C2412 C 0.30074 0.86271 0.24143 0.0
C2413 C 0.28917 0.87941 0.24004 0.0
H2414 H 0.31036 0.84034 0.25272 0.0
H2415 H 0.19638 0.00139 0.23997 0.0
H2416 H 0.63856 0.02804 0.54144 0.0
H2417 H 0.65131 0.00294 0.52907 0.0
H2418 H 0.68306 0.04693 0.51083 0.0
H2419 H 0.67002 0.07224 0.52306 0.0
H2420 H 0.66275 0.02492 0.49729 0.0
H2421 H 0.7074 0.01225 0.52639 0.0
H2422 H 0.71836 0.00625 0.5455 0.0
H2423 H 0.68444 0.95342 0.54663 0.0
H2424 H 0.67304 0.95923 0.52758 0.0
H2425 H 0.69365 0.94793 0.46175 0.0
H2426 H 0.6974 0.97426 0.47535 0.0
H2427 H 0.65953 0.94329 0.49788 0.0
H2428 H 0.65583 0.91698 0.48445 0.0
H2429 H 0.69028 0.96084 0.50865 0.0
H2430 H 0.64114 0.97782 0.48107 0.0
H2431 H 0.62977 0.98398 0.46203 0.0
H2432 H 0.67286 0.02922 0.45831 0.0
H2433 H 0.68464 0.02313 0.47729 0.0
C2434 C 0.64848 0.03237 0.5349 0.0
C2435 C 0.65317 0.05215 0.53319 0.0
C2436 C 0.65589 0.01797 0.52787 0.0
C2437 C 0.66831 0.02302 0.51907 0.0
C2438 C 0.67353 0.0427 0.51757 0.0
C2439 C 0.66607 0.05714 0.52458 0.0
C2440 C 0.6742 0.008 0.51087 0.0
C2441 C 0.66927 0.01111 0.49975 0.0
C2442 C 0.68244 0.98986 0.51408 0.0
C2443 C 0.68927 0.98625 0.52555 0.0
C2444 C 0.70216 0.99942 0.53073 0.0
C2445 C 0.70847 0.99604 0.54156 0.0
C2446 C 0.70208 0.97948 0.54728 0.0
C2447 C 0.68938 0.96625 0.54219 0.0
C2448 C 0.68302 0.96956 0.53136 0.0
C2449 C 0.68636 0.94661 0.46967 0.0
C2450 C 0.67425 0.93049 0.47198 0.0
C2451 C 0.68851 0.96166 0.47741 0.0
C2452 C 0.67858 0.96079 0.48756 0.0
C2453 C 0.66733 0.94424 0.4901 0.0
C2454 C 0.66513 0.92927 0.48237 0.0
C2455 C 0.67836 0.97769 0.49521 0.0
C2456 C 0.68428 0.97488 0.50621 0.0
C2457 C 0.67106 0.99614 0.49191 0.0
C2458 C 0.66392 -0.00014 0.48053 0.0
C2459 C 0.64828 0.98897 0.47615 0.0
C2460 C 0.64175 0.99247 0.46538 0.0
C2461 C 0.65064 0.00694 0.45895 0.0
C2462 C 0.66603 0.01799 0.46329 0.0
C2463 C 0.67263 0.01452 0.47405 0.0
H2464 H 0.64556 0.00962 0.45061 0.0
H2465 H 0.70698 0.97689 0.55566 0.0
H2466 H 0.20475 0.40155 0.78171 0.0
H2467 H 0.23424 0.41112 0.77185 0.0
H2468 H 0.20396 0.46076 0.75796 0.0
H2469 H 0.17408 0.45112 0.7678 0.0
H2470 H 0.22338 0.44008 0.74236 0.0
H2471 H 0.23941 0.4685 0.77688 0.0
H2472 H 0.24288 0.4704 0.79714 0.0
H2473 H 0.28454 0.4234 0.79646 0.0
H2474 H 0.28112 0.421 0.77622 0.0
H2475 H 0.3151 0.45553 0.71541 0.0
H2476 H 0.28714 0.46337 0.7273 0.0
H2477 H 0.29974 0.41279 0.74742 0.0
H2478 H 0.32769 0.40502 0.73574 0.0
H2479 H 0.28883 0.44376 0.75999 0.0
H2480 H 0.26629 0.41078 0.72651 0.0
H2481 H 0.26226 0.40765 0.70633 0.0
H2482 H 0.23247 0.46294 0.70531 0.0
H2483 H 0.23655 0.4665 0.72549 0.0
C2484 C 0.20434 0.4146 0.77664 0.0
C2485 C 0.18704 0.42555 0.77552 0.0
C2486 C 0.22128 0.42015 0.77107 0.0
C2487 C 0.22137 0.43682 0.7643 0.0
C2488 C 0.20421 0.44792 0.76322 0.0
C2489 C 0.18718 0.4424 0.76884 0.0
C2490 C 0.23909 0.44152 0.75778 0.0
C2491 C 0.23765 0.44146 0.74622 0.0
C2492 C 0.2577 0.4431 0.76282 0.0
C2493 C 0.25994 0.44454 0.77501 0.0
C2494 C 0.24923 0.45849 0.78105 0.0
C2495 C 0.2512 0.45966 0.79254 0.0
C2496 C 0.26391 0.44702 0.79808 0.0
C2497 C 0.27471 0.43319 0.79215 0.0
C2498 C 0.27279 0.43195 0.78067 0.0
C2499 C 0.31205 0.44623 0.72245 0.0
C2500 C 0.32348 0.42953 0.72457 0.0
C2501 C 0.29607 0.45072 0.72922 0.0
C2502 C 0.29127 0.43855 0.73817 0.0
C2503 C 0.3032 0.4224 0.74057 0.0
C2504 C 0.31912 0.41791 0.73383 0.0
C2505 C 0.27311 0.44152 0.74462 0.0
C2506 C 0.2745 0.44301 0.75616 0.0
C2507 C 0.25444 0.4412 0.73957 0.0
C2508 C 0.25195 0.43902 0.72747 0.0
C2509 C 0.25902 0.42233 0.72197 0.0
C2510 C 0.2567 0.42047 0.71053 0.0
C2511 C 0.24718 0.43512 0.70453 0.0
C2512 C 0.23989 0.45163 0.70996 0.0
C2513 C 0.2422 0.45358 0.7214 0.0
H2514 H 0.24539 0.43365 0.69568 0.0
H2515 H 0.26541 0.44795 0.80697 0.0
H2516 H 0.8472 0.9671 0.04013 0.0
H2517 H 0.83753 0.99207 0.02686 0.0
H2518 H 0.81078 0.9479 0.00635 0.0
H2519 H 0.82079 0.92266 0.01953 0.0
H2520 H 0.83398 0.97026 0.99449 0.0
H2521 H 0.78257 0.9823 0.01983 0.0
H2522 H 0.76695 0.9879 0.03792 0.0
H2523 H 0.79994 0.04086 0.042 0.0
H2524 H 0.81598 0.03545 0.024 0.0
H2525 H 0.81246 0.04836 0.95743 0.0
H2526 H 0.80532 0.02162 0.97031 0.0
H2527 H 0.83716 0.05176 0.99596 0.0
H2528 H 0.84421 0.07849 0.98324 0.0
H2529 H 0.80381 0.03414 0.00392 0.0
H2530 H 0.8595 0.01758 0.98049 0.0
H2531 H 0.87555 0.01177 0.96252 0.0
H2532 H 0.83372 0.96681 0.95504 0.0
H2533 H 0.81727 0.97255 0.97292 0.0
C2534 C 0.83904 0.96268 0.03288 0.0
C2535 C 0.83487 0.94288 0.03086 0.0
C2536 C 0.83337 0.97703 0.02532 0.0
C2537 C 0.82322 0.9719 0.01566 0.0
C2538 C 0.81854 0.95219 0.01377 0.0
C2539 C 0.82427 0.9378 0.02131 0.0
C2540 C 0.81924 0.98695 0.00712 0.0
C2541 C 0.82689 0.98403 0.99648 0.0
C2542 C 0.81021 0.00501 0.00974 0.0
C2543 C 0.80056 0.0084 0.02057 0.0
C2544 C 0.7866 0.99508 0.02461 0.0
C2545 C 0.77765 0.99823 0.03485 0.0
C2546 C 0.78246 0.01472 0.04111 0.0
C2547 C 0.79622 0.0281 0.03714 0.0
C2548 C 0.80522 0.02501 0.02691 0.0
C2549 C 0.8177 0.04941 0.96586 0.0
C2550 C 0.8291 0.06543 0.96928 0.0
C2551 C 0.81362 0.03412 0.97319 0.0
C2552 C 0.82088 0.03466 0.98405 0.0
C2553 C 0.83141 0.05108 0.98762 0.0
C2554 C 0.83554 0.06629 0.98031 0.0
C2555 C 0.81906 0.01756 0.99149 0.0
C2556 C 0.81037 0.02014 0.00189 0.0
C2557 C 0.82709 0.99915 0.98867 0.0
C2558 C 0.83702 0.99566 0.97796 0.0
C2559 C 0.85364 0.00656 0.97497 0.0
C2560 C 0.86282 0.00327 0.96481 0.0
C2561 C 0.85561 0.98898 0.95762 0.0
C2562 C 0.83925 0.97791 0.9606 0.0
C2563 C 0.83 0.98117 0.97075 0.0
H2564 H 0.86274 0.98645 0.94976 0.0
H2565 H 0.77552 0.01713 0.04904 0.0
H2566 H 0.30891 0.5541 0.286 0.0
H2567 H 0.28068 0.54724 0.27414 0.0
H2568 H 0.30333 0.58696 0.24956 0.0
H2569 H 0.33136 0.59401 0.26133 0.0
H2570 H 0.26662 0.59579 0.25505 0.0
H2571 H 0.30245 0.5385 0.24469 0.0
H2572 H 0.32067 0.50785 0.24778 0.0
H2573 H 0.27011 0.48223 0.26308 0.0
H2574 H 0.25166 0.51284 0.26023 0.0
H2575 H 0.20098 0.55419 0.21038 0.0
H2576 H 0.23033 0.54953 0.22168 0.0
H2577 H 0.20035 0.57408 0.24982 0.0
H2578 H 0.17113 0.57907 0.23859 0.0
H2579 H 0.24136 0.53188 0.24181 0.0
H2580 H 0.23003 0.60824 0.26083 0.0
H2581 H 0.21286 0.63912 0.2566 0.0
H2582 H 0.21748 0.62711 0.22185 0.0
H2583 H 0.23492 0.59634 0.22588 0.0
C2584 C 0.30802 0.56113 0.278 0.0
C2585 C 0.32224 0.57478 0.27467 0.0
C2586 C 0.29193 0.55713 0.27121 0.0
C2587 C 0.28992 0.56664 0.26099 0.0
C2588 C 0.30457 0.57955 0.25745 0.0
C2589 C 0.32058 0.58356 0.2642 0.0
C2590 C 0.27176 0.5647 0.25443 0.0
C2591 C 0.26114 0.58179 0.25217 0.0
C2592 C 0.26468 0.54646 0.25061 0.0
C2593 C 0.27573 0.52804 0.25235 0.0
C2594 C 0.29527 0.5264 0.24881 0.0
C2595 C 0.30563 0.50902 0.2505 0.0
C2596 C 0.29657 0.49312 0.25565 0.0
C2597 C 0.27712 0.49457 0.2591 0.0
C2598 C 0.26669 0.51192 0.25744 0.0
C2599 C 0.2005 0.5582 0.21903 0.0
C2600 C 0.1839 0.56737 0.22354 0.0
C2601 C 0.21725 0.55544 0.22549 0.0
C2602 C 0.21755 0.56176 0.23651 0.0
C2603 C 0.20045 0.56935 0.24127 0.0
C2604 C 0.18379 0.57224 0.23483 0.0
C2605 C 0.23628 0.56294 0.24259 0.0
C2606 C 0.24691 0.5458 0.24476 0.0
C2607 C 0.24365 0.58119 0.2462 0.0
C2608 C 0.2336 0.59991 0.24367 0.0
C2609 C 0.22746 0.61225 0.25229 0.0
C2610 C 0.21767 0.62973 0.24992 0.0
C2611 C 0.21403 0.63504 0.23896 0.0
C2612 C 0.22025 0.62295 0.23034 0.0
C2613 C 0.23008 0.60549 0.23266 0.0
H2614 H 0.20641 0.64855 0.23715 0.0
H2615 H 0.30462 0.47968 0.25695 0.0
H2616 H 0.30643 0.04422 0.53857 0.0
H2617 H 0.30177 0.01551 0.52678 0.0
H2618 H 0.31289 0.05071 0.49788 0.0
H2619 H 0.31777 0.0794 0.50955 0.0
H2620 H 0.28029 0.00319 0.50775 0.0
H2621 H 0.3486 0.02733 0.48366 0.0
H2622 H 0.37719 0.04898 0.48604 0.0
H2623 H 0.37488 0.04043 0.52119 0.0
H2624 H 0.34649 0.0185 0.51899 0.0
H2625 H 0.30185 0.9381 0.46225 0.0
H2626 H 0.29401 0.96607 0.47413 0.0
H2627 H 0.34224 0.95114 0.49552 0.0
H2628 H 0.3503 0.92345 0.4837 0.0
H2629 H 0.34372 0.98848 0.48956 0.0
H2630 H 0.29535 0.94414 0.50372 0.0
H2631 H 0.26741 0.92141 0.50261 0.0
H2632 H 0.23129 0.9673 0.48952 0.0
H2633 H 0.25911 0.99024 0.4904 0.0
C2634 C 0.30734 0.04598 0.52968 0.0
C2635 C 0.31293 0.06396 0.525 0.0
C2636 C 0.30457 0.02957 0.52296 0.0
C2637 C 0.30733 0.03098 0.51151 0.0
C2638 C 0.31092 0.04933 0.50673 0.0
C2639 C 0.31378 0.06568 0.51343 0.0
C2640 C 0.30975 0.01305 0.50482 0.0
C2641 C 0.29407 -3e-05 0.5037 0.0
C2642 C 0.3279 0.00873 0.49977 0.0
C2643 C 0.3453 0.02147 0.50116 0.0
C2644 C 0.35426 0.03001 0.49189 0.0
C2645 C 0.37042 0.04233 0.49321 0.0
C2646 C 0.3778 0.04614 0.50376 0.0
C2647 C 0.36911 0.03753 0.51302 0.0
C2648 C 0.35298 0.02516 0.51174 0.0
C2649 C 0.31065 0.94068 0.46955 0.0
C2650 C 0.32681 0.92868 0.47197 0.0
C2651 C 0.30609 0.9566 0.47635 0.0
C2652 C 0.31755 0.96065 0.4857 0.0
C2653 C 0.33328 0.94831 0.48831 0.0
C2654 C 0.33785 0.93248 0.48154 0.0
C2655 C 0.31421 0.97849 0.49237 0.0
C2656 C 0.32981 0.99167 0.4935 0.0
C2657 C 0.29611 0.98262 0.49756 0.0
C2658 C 0.27938 0.96885 0.49702 0.0
C2659 C 0.2815 0.94934 0.50051 0.0
C2660 C 0.26567 0.93643 0.49994 0.0
C2661 C 0.2476 0.94289 0.49597 0.0
C2662 C 0.24531 0.9623 0.49258 0.0
C2663 C 0.2611 0.97527 0.49312 0.0
H2664 H 0.23536 0.93287 0.49554 0.0
H2665 H 0.39028 0.05572 0.50477 0.0
H2666 H 0.67243 0.58521 0.26886 0.0
H2667 H 0.69973 0.57722 0.25668 0.0
H2668 H 0.73708 0.56862 0.28501 0.0
H2669 H 0.70978 0.57666 0.2973 0.0
H2670 H 0.75252 0.59402 0.27001 0.0
H2671 H 0.72515 0.53 0.26932 0.0
H2672 H 0.69919 0.50518 0.26747 0.0
H2673 H 0.68915 0.52299 0.23392 0.0
H2674 H 0.71486 0.54812 0.2356 0.0
H2675 H 0.83085 0.57725 0.23346 0.0
H2676 H 0.8072 0.56976 0.24802 0.0
H2677 H 0.76006 0.57498 0.22448 0.0
H2678 H 0.78361 0.5819 0.20983 0.0
H2679 H 0.75233 0.54658 0.23896 0.0
H2680 H 0.77432 0.61382 0.24065 0.0
H2681 H 0.79903 0.63999 0.2421 0.0
H2682 H 0.81766 0.61735 0.2735 0.0
H2683 H 0.7932 0.59088 0.27215 0.0
C2684 C 0.68637 0.58136 0.27252 0.0
C2685 C 0.68899 0.58171 0.28404 0.0
C2686 C 0.70192 0.57665 0.26554 0.0
C2687 C 0.72038 0.57219 0.26995 0.0
C2688 C 0.72291 0.57194 0.28146 0.0
C2689 C 0.7073 0.57653 0.28846 0.0
C2690 C 0.73735 0.56983 0.26247 0.0
C2691 C 0.75273 0.5833 0.26339 0.0
C2692 C 0.73734 0.55618 0.25368 0.0
C2693 C 0.72188 0.54104 0.25261 0.0
C2694 C 0.71731 0.52873 0.26157 0.0
C2695 C 0.70266 0.51458 0.26055 0.0
C2696 C 0.69251 0.51253 0.25059 0.0
C2697 C 0.69702 0.5246 0.24162 0.0
C2698 C 0.71166 0.53878 0.2426 0.0
C2699 C 0.81547 0.57651 0.23135 0.0
C2700 C 0.80906 0.58045 0.22053 0.0
C2701 C 0.80197 0.57225 0.23968 0.0
C2702 C 0.78185 0.5722 0.23737 0.0
C2703 C 0.77552 0.57499 0.22645 0.0
C2704 C 0.78901 0.57904 0.21809 0.0
C2705 C 0.76726 0.571 0.24641 0.0
C2706 C 0.75232 0.55696 0.24575 0.0
C2707 C 0.76751 0.58428 0.25539 0.0
C2708 C 0.78211 0.60025 0.25624 0.0
C2709 C 0.78378 0.61435 0.24783 0.0
C2710 C 0.79773 0.62924 0.24863 0.0
C2711 C 0.80995 0.63029 0.25787 0.0
C2712 C 0.80821 0.61649 0.26634 0.0
C2713 C 0.79431 0.60155 0.26556 0.0
H2714 H 0.82074 0.64183 0.25848 0.0
H2715 H 0.68117 0.50157 0.24982 0.0
H2716 H 0.18974 0.94265 0.03907 0.0
H2717 H 0.19743 0.97059 0.02711 0.0
H2718 H 0.15968 0.94707 0.00181 0.0
H2719 H 0.15207 0.91921 0.01359 0.0
H2720 H 0.19326 0.96291 0.9931 0.0
H2721 H 0.1426 0.98047 0.01986 0.0
H2722 H 0.12988 0.98504 0.03877 0.0
H2723 H 0.17645 0.02531 0.04584 0.0
H2724 H 0.18957 0.02077 0.027 0.0
H2725 H 0.14917 0.03694 0.96194 0.0
H2726 H 0.15934 0.00978 0.97364 0.0
H2727 H 0.19184 0.04959 0.99435 0.0
H2728 H 0.18132 0.077 0.9828 0.0
H2729 H 0.16949 0.02728 0.00648 0.0
H2730 H 0.21557 0.01521 0.97807 0.0
H2731 H 0.22777 0.01094 0.95905 0.0
H2732 H 0.19064 0.96083 0.95484 0.0
H2733 H 0.17799 0.96496 0.97378 0.0
C2734 C 0.1833 0.94333 0.03091 0.0
C2735 C 0.17011 0.92886 0.02733 0.0
C2736 C 0.1877 0.95927 0.0241 0.0
C2737 C 0.17899 0.96094 0.01363 0.0
C2738 C 0.16659 0.94604 0.00986 0.0
C2739 C 0.16214 0.93019 0.01664 0.0
C2740 C 0.18125 0.97883 0.00687 0.0
C2741 C 0.18812 0.97703 0.99599 0.0
C2742 C 0.17512 0.99733 0.0108 0.0
C2743 C 0.1672 9e-05 0.02209 0.0
C2744 C 0.1502 0.99018 0.02548 0.0
C2745 C 0.14291 0.99278 0.03618 0.0
C2746 C 0.15239 0.0054 0.04352 0.0
C2747 C 0.16915 0.0155 0.04016 0.0
C2748 C 0.17652 0.01292 0.02948 0.0
C2749 C 0.1587 0.03992 0.96889 0.0
C2750 C 0.16433 0.05914 0.97148 0.0
C2751 C 0.16464 0.02433 0.97553 0.0
C2752 C 0.17656 0.0276 0.98481 0.0
C2753 C 0.1827 0.04672 0.98722 0.0
C2754 C 0.17666 0.06236 0.98061 0.0
C2755 C 0.18089 0.01131 0.99251 0.0
C2756 C 0.17521 0.01337 0.0036 0.0
C2757 C 0.18816 0.99309 0.98876 0.0
C2758 C 0.19577 0.99046 0.97735 0.0
C2759 C 0.20991 0.00336 0.97307 0.0
C2760 C 0.21692 0.00095 0.9623 0.0
C2761 C 0.20997 0.98564 0.95573 0.0
C2762 C 0.19602 0.97268 0.95993 0.0
C2763 C 0.18895 0.97503 0.9707 0.0
H2764 H 0.21541 0.9838 0.94739 0.0
H2765 H 0.14672 0.00741 0.0518 0.0
H2766 H 0.80856 0.43993 0.78317 0.0
H2767 H 0.78117 0.44642 0.77064 0.0
H2768 H 0.80775 0.4095 0.74593 0.0
H2769 H 0.83509 0.40291 0.75836 0.0
H2770 H 0.79046 0.44349 0.73707 0.0
H2771 H 0.77503 0.39037 0.76254 0.0
H2772 H 0.77068 0.37611 0.78111 0.0
H2773 H 0.7274 0.41961 0.78874 0.0
H2774 H 0.7317 0.43429 0.77025 0.0
H2775 H 0.71836 0.3992 0.70431 0.0
H2776 H 0.7451 0.4096 0.71625 0.0
H2777 H 0.70395 0.43847 0.73784 0.0
H2778 H 0.67699 0.42769 0.72604 0.0
H2779 H 0.72694 0.41583 0.74931 0.0
H2780 H 0.73752 0.46494 0.72242 0.0
H2781 H 0.74159 0.47919 0.70384 0.0
H2782 H 0.79327 0.44462 0.69877 0.0
H2783 H 0.78937 0.42993 0.71726 0.0
C2784 C 0.80871 0.43344 0.77501 0.0
C2785 C 0.82385 0.42072 0.77179 0.0
C2786 C 0.79307 0.43717 0.76787 0.0
C2787 C 0.79242 0.42832 0.75741 0.0
C2788 C 0.80802 0.41649 0.75397 0.0
C2789 C 0.82356 0.41263 0.76111 0.0
C2790 C 0.77477 0.42977 0.7504 0.0
C2791 C 0.77653 0.43748 0.7397 0.0
C2792 C 0.75651 0.42244 0.754 0.0
C2793 C 0.75387 0.41357 0.76508 0.0
C2794 C 0.76471 0.39699 0.76822 0.0
C2795 C 0.76223 0.38881 0.77872 0.0
C2796 C 0.74882 0.39699 0.78611 0.0
C2797 C 0.73782 0.41333 0.78301 0.0
C2798 C 0.74027 0.42158 0.77252 0.0
C2799 C 0.71499 0.40802 0.7115 0.0
C2800 C 0.69554 0.41249 0.71427 0.0
C2801 C 0.73034 0.4141 0.71829 0.0
C2802 C 0.72657 0.42499 0.7279 0.0
C2803 C 0.7072 0.43011 0.73046 0.0
C2804 C 0.69182 0.42393 0.72371 0.0
C2805 C 0.74263 0.42915 0.73579 0.0
C2806 C 0.74063 0.42239 0.74669 0.0
C2807 C 0.76061 0.43745 0.73236 0.0
C2808 C 0.76308 0.44625 0.72122 0.0
C2809 C 0.74968 0.46027 0.71731 0.0
C2810 C 0.75197 0.46844 0.7068 0.0
C2811 C 0.76767 0.46279 0.70012 0.0
C2812 C 0.78112 0.44898 0.70395 0.0
C2813 C 0.7789 0.44075 0.71446 0.0
H2814 H 0.76941 0.46914 0.69199 0.0
H2815 H 0.74692 0.39064 0.79424 0.0
H2816 H 0.15287 0.82477 0.0248 0.0
H2817 H 0.15699 0.78938 0.02363 0.0
H2818 H 0.19576 0.79075 0.05174 0.0
H2819 H 0.192 0.82632 0.05287 0.0
H2820 H 0.20584 0.76166 0.036 0.0
H2821 H 0.14971 0.78402 0.05654 0.0
H2822 H 0.11978 0.80365 0.05914 0.0
H2823 H 0.09282 0.77448 0.03165 0.0
H2824 H 0.12276 0.75494 0.02875 0.0
H2825 H 0.18507 0.66586 0.05739 0.0
H2826 H 0.19169 0.70052 0.05402 0.0
H2827 H 0.14822 0.70103 0.02816 0.0
H2828 H 0.14123 0.66659 0.03162 0.0
H2829 H 0.14181 0.72936 0.04244 0.0
H2830 H 0.19765 0.70538 0.02256 0.0
H2831 H 0.22793 0.68633 0.01991 0.0
H2832 H 0.25553 0.71806 0.04627 0.0
H2833 H 0.22531 0.73713 0.04918 0.0
C2834 C 0.16264 0.81762 0.03058 0.0
C2835 C 0.17182 0.82825 0.03906 0.0
C2836 C 0.16501 0.79742 0.02988 0.0
C2837 C 0.17637 0.78747 0.03773 0.0
C2838 C 0.18689 0.79819 0.04563 0.0
C2839 C 0.18466 0.8185 0.04628 0.0
C2840 C 0.17499 0.76595 0.03862 0.0
C2841 C 0.19191 0.75452 0.0375 0.0
C2842 C 0.15674 0.75676 0.04047 0.0
C2843 C 0.13854 0.76815 0.04237 0.0
C2844 C 0.13744 0.78188 0.05101 0.0
C2845 C 0.12048 0.79299 0.05254 0.0
C2846 C 0.10442 0.79034 0.04555 0.0
C2847 C 0.10528 0.77653 0.03704 0.0
C2848 C 0.12224 0.76543 0.03546 0.0
C2849 C 0.17715 0.67328 0.05087 0.0
C2850 C 0.16251 0.66355 0.04484 0.0
C2851 C 0.18102 0.69307 0.04891 0.0
C2852 C 0.17048 0.70335 0.04081 0.0
C2853 C 0.15647 0.6934 0.03447 0.0
C2854 C 0.1525 0.67371 0.03647 0.0
C2855 C 0.17263 0.72481 0.03963 0.0
C2856 C 0.15578 0.73634 0.04083 0.0
C2857 C 0.19096 0.73399 0.0379 0.0
C2858 C 0.20915 0.72255 0.03616 0.0
C2859 C 0.21012 0.70818 0.02785 0.0
C2860 C 0.22728 0.69741 0.02629 0.0
C2861 C 0.24362 0.70095 0.03293 0.0
C2862 C 0.24285 0.71532 0.04114 0.0
C2863 C 0.22571 0.72613 0.04274 0.0
H2864 H 0.2569 0.69259 0.03171 0.0
H2865 H 0.0913 0.79894 0.04675 0.0
H2866 H 0.58332 0.9574 0.29712 0.0
H2867 H 0.54824 0.96368 0.29494 0.0
H2868 H 0.54071 0.90627 0.28075 0.0
H2869 H 0.57561 0.9 0.28272 0.0
H2870 H 0.51852 0.93304 0.27014 0.0
H2871 H 0.53263 0.91466 0.30823 0.0
H2872 H 0.54887 0.91869 0.3263 0.0
H2873 H 0.52409 0.97615 0.32951 0.0
H2874 H 0.50789 0.97252 0.31138 0.0
H2875 H 0.42578 0.8966 0.28285 0.0
H2876 H 0.46023 0.90468 0.28066 0.0
H2877 H 0.45025 0.96108 0.29565 0.0
H2878 H 0.41559 0.95295 0.29805 0.0
H2879 H 0.48093 0.94304 0.30477 0.0
H2880 H 0.46112 0.95789 0.26814 0.0
H2881 H 0.44445 0.95286 0.25029 0.0
H2882 H 0.47941 0.90178 0.24424 0.0
H2883 H 0.49611 0.90632 0.26212 0.0
C2884 C 0.57422 0.94622 0.29341 0.0
C2885 C 0.58221 0.92812 0.2902 0.0
C2886 C 0.55419 0.94982 0.29218 0.0
C2887 C 0.54185 0.93534 0.2878 0.0
C2888 C 0.54997 0.91765 0.28414 0.0
C2889 C 0.56993 0.91405 0.28534 0.0
C2890 C 0.52032 0.93781 0.2877 0.0
C2891 C 0.51026 0.93523 0.27769 0.0
C2892 C 0.5096 0.94129 0.29751 0.0
C2893 C 0.51927 0.94342 0.30841 0.0
C2894 C 0.53077 0.9282 0.31276 0.0
C2895 C 0.53995 0.93041 0.32301 0.0
C2896 C 0.53757 0.94769 0.32903 0.0
C2897 C 0.52596 0.96279 0.32482 0.0
C2898 C 0.51678 0.96067 0.31457 0.0
C2899 C 0.43081 0.91082 0.28559 0.0
C2900 C 0.41794 0.92411 0.29066 0.0
C2901 C 0.45052 0.91548 0.28425 0.0
C2902 C 0.45777 0.9336 0.28785 0.0
C2903 C 0.44492 0.94706 0.29276 0.0
C2904 C 0.42513 0.9424 0.29411 0.0
C2905 C 0.47906 0.9376 0.28725 0.0
C2906 C 0.48911 0.94138 0.29714 0.0
C2907 C 0.48974 0.93517 0.27732 0.0
C2908 C 0.47982 0.93241 0.26651 0.0
C2909 C 0.46518 0.94551 0.26304 0.0
C2910 C 0.45573 0.94275 0.25291 0.0
C2911 C 0.46085 0.927 0.24614 0.0
C2912 C 0.47546 0.91398 0.24949 0.0
C2913 C 0.48495 0.91666 0.25961 0.0
H2914 H 0.45352 0.92489 0.23831 0.0
H2915 H 0.54468 0.94937 0.33697 0.0
H2916 H 0.30054 0.1707 0.55217 0.0
H2917 H 0.29731 0.20631 0.55172 0.0
H2918 H 0.33728 0.20893 0.52415 0.0
H2919 H 0.3408 0.17341 0.52463 0.0
H2920 H 0.34803 0.23327 0.54027 0.0
H2921 H 0.28868 0.21887 0.52082 0.0
H2922 H 0.25671 0.20306 0.51779 0.0
H2923 H 0.23425 0.23004 0.54723 0.0
H2924 H 0.26619 0.24581 0.55052 0.0
H2925 H 0.34173 0.33363 0.53042 0.0
H2926 H 0.33701 0.29869 0.52729 0.0
H2927 H 0.29912 0.29561 0.55575 0.0
H2928 H 0.30348 0.33073 0.55886 0.0
H2929 H 0.28649 0.27172 0.53871 0.0
H2930 H 0.346 0.28454 0.55867 0.0
H2931 H 0.37776 0.30073 0.56178 0.0
H2932 H 0.39985 0.27633 0.53155 0.0
H2933 H 0.36809 0.26024 0.52816 0.0
C2934 C 0.30843 0.17882 0.54591 0.0
C2935 C 0.32103 0.16924 0.53849 0.0
C2936 C 0.3065 0.19917 0.54563 0.0
C2937 C 0.31701 0.21025 0.53787 0.0
C2938 C 0.32906 0.20065 0.53021 0.0
C2939 C 0.33103 0.18034 0.5305 0.0
C2940 C 0.31672 0.2319 0.5383 0.0
C2941 C 0.33459 0.24167 0.53973 0.0
C2942 C 0.29913 0.24282 0.53793 0.0
C2943 C 0.2799 0.23337 0.53597 0.0
C2944 C 0.27698 0.2213 0.5267 0.0
C2945 C 0.25885 0.21237 0.52493 0.0
C2946 C 0.24347 0.21551 0.53233 0.0
C2947 C 0.24618 0.22761 0.54151 0.0
C2948 C 0.26429 0.23656 0.54333 0.0
C2949 C 0.33216 0.32561 0.53593 0.0
C2950 C 0.3232 0.33488 0.54499 0.0
C2951 C 0.32948 0.30564 0.53413 0.0
C2952 C 0.31801 0.29454 0.54141 0.0
C2953 C 0.30808 0.30394 0.55006 0.0
C2954 C 0.31066 0.32399 0.55185 0.0
C2955 C 0.3178 0.27295 0.54056 0.0
C2956 C 0.29989 0.26324 0.53915 0.0
C2957 C 0.33535 0.26201 0.54098 0.0
C2958 C 0.3546 0.27134 0.54311 0.0
C2959 C 0.35759 0.28272 0.55265 0.0
C2960 C 0.37559 0.29188 0.55446 0.0
C2961 C 0.3908 0.28961 0.54685 0.0
C2962 C 0.38805 0.2781 0.53743 0.0
C2963 C 0.37005 0.26895 0.53556 0.0
H2964 H 0.40472 0.29673 0.54826 0.0
H2965 H 0.22945 0.20859 0.53094 0.0
H2966 H 0.92198 0.0448 0.8011 0.0
H2967 H 0.95722 0.03887 0.79988 0.0
H2968 H 0.96397 0.09107 0.78021 0.0
H2969 H 0.92882 0.09707 0.78132 0.0
H2970 H 0.98725 0.06069 0.77279 0.0
H2971 H 0.97139 0.09307 0.80734 0.0
H2972 H 0.95414 0.09619 0.82517 0.0
H2973 H 0.97889 0.04175 0.83605 0.0
H2974 H 0.99606 0.03817 0.81821 0.0
H2975 H 0.08176 0.0975 0.78245 0.0
H2976 H 0.04708 0.09023 0.78033 0.0
H2977 H 0.05299 0.04081 0.80226 0.0
H2978 H 0.08779 0.04819 0.80459 0.0
H2979 H 0.02332 0.06348 0.80835 0.0
H2980 H 0.04361 0.03398 0.77468 0.0
H2981 H 0.06092 0.03134 0.75687 0.0
H2982 H 0.02832 0.08015 0.74422 0.0
H2983 H 0.011 0.08328 0.76201 0.0
C2984 C 0.93092 0.05487 0.79639 0.0
C2985 C 0.92265 0.07152 0.79141 0.0
C2986 C 0.95105 0.05146 0.79571 0.0
C2987 C 0.96319 0.06465 0.79006 0.0
C2988 C 0.95483 0.08072 0.78461 0.0
C2989 C 0.93475 0.08418 0.78531 0.0
C2990 C 0.98474 0.06269 0.79049 0.0
C2991 C 0.9952 0.06133 0.78054 0.0
C2992 C 0.99499 0.06301 0.80064 0.0
C2993 C 0.98481 0.06524 0.8114 0.0
C2994 C 0.97302 0.08169 0.81351 0.0
C2995 C 0.96328 0.08356 0.82362 0.0
C2996 C 0.96537 0.06915 0.83172 0.0
C2997 C 0.97725 0.05288 0.82975 0.0
C2998 C 0.98699 0.05092 0.81964 0.0
C2999 C 0.07578 0.08491 0.78671 0.0
C3000 C 0.08752 0.07349 0.79374 0.0
C3001 C 0.05595 0.08069 0.78543 0.0
C3002 C 0.04746 0.06487 0.79106 0.0
C3003 C 0.05926 0.05306 0.79782 0.0
C3004 C 0.07914 0.05729 0.79912 0.0
C3005 C 0.026 0.06186 0.79061 0.0
C3006 C 0.01548 0.06236 0.80058 0.0
C3007 C 0.01573 0.06078 0.78047 0.0
C3008 C 0.02608 0.05893 0.76972 0.0
C3009 C 0.04022 0.04425 0.76813 0.0
C3010 C 0.05003 0.04264 0.75803 0.0
C3011 C 0.04575 0.05558 0.74942 0.0
C3012 C 0.03163 0.07013 0.75089 0.0
C3013 C 0.02179 0.07181 0.76098 0.0
H3014 H 0.05335 0.05432 0.74161 0.0
H3015 H 0.95783 0.07061 0.83954 0.0
H3016 H 0.16093 0.1711 0.97675 0.0
H3017 H 0.16471 0.20647 0.97848 0.0
H3018 H 0.20073 0.20729 0.9492 0.0
H3019 H 0.19733 0.17178 0.94751 0.0
H3020 H 0.2125 0.23491 0.96488 0.0
H3021 H 0.1534 0.21422 0.94646 0.0
H3022 H 0.12297 0.19504 0.94492 0.0
H3023 H 0.10033 0.22304 0.97401 0.0
H3024 H 0.1308 0.24215 0.97583 0.0
H3025 H 0.19117 0.33095 0.94488 0.0
H3026 H 0.19703 0.29608 0.94787 0.0
H3027 H 0.15699 0.29664 0.97545 0.0
H3028 H 0.15075 0.33137 0.97239 0.0
H3029 H 0.14824 0.26823 0.96156 0.0
H3030 H 0.20674 0.291 0.97914 0.0
H3031 H 0.23752 0.30958 0.98072 0.0
H3032 H 0.26139 0.27803 0.95315 0.0
H3033 H 0.23064 0.25944 0.9513 0.0
C3034 C 0.17 0.17873 0.97081 0.0
C3035 C 0.17855 0.16872 0.96188 0.0
C3036 C 0.17216 0.19893 0.97182 0.0
C3037 C 0.18266 0.20948 0.96384 0.0
C3038 C 0.19251 0.19938 0.95542 0.0
C3039 C 0.19048 0.1791 0.95445 0.0
C3040 C 0.18134 0.23107 0.96351 0.0
C3041 C 0.1985 0.24226 0.96408 0.0
C3042 C 0.16301 0.24056 0.9626 0.0
C3043 C 0.14445 0.22947 0.96134 0.0
C3044 C 0.14198 0.21621 0.95256 0.0
C3045 C 0.12472 0.20535 0.95164 0.0
C3046 C 0.10974 0.20778 0.95938 0.0
C3047 C 0.11196 0.22115 0.96803 0.0
C3048 C 0.12921 0.232 0.96901 0.0
C3049 C 0.18382 0.32372 0.95168 0.0
C3050 C 0.17038 0.33389 0.95835 0.0
C3051 C 0.18727 0.3038 0.95341 0.0
C3052 C 0.17752 0.29378 0.96192 0.0
C3053 C 0.16464 0.30408 0.96882 0.0
C3054 C 0.1611 0.32394 0.96706 0.0
C3055 C 0.17941 0.27227 0.96304 0.0
C3056 C 0.16228 0.26101 0.9625 0.0
C3057 C 0.19778 0.2628 0.96393 0.0
C3058 C 0.2163 0.27395 0.96503 0.0
C3059 C 0.21849 0.28813 0.97336 0.0
C3060 C 0.23595 0.29865 0.97431 0.0
C3061 C 0.25139 0.29502 0.96702 0.0
C3062 C 0.24941 0.28084 0.95878 0.0
C3063 C 0.23198 0.27029 0.95779 0.0
H3064 H 0.26489 0.30318 0.96777 0.0
H3065 H 0.09641 0.19934 0.95866 0.0
H3066 H 0.91631 0.95132 0.20518 0.0
H3067 H 0.95149 0.95741 0.20668 0.0
H3068 H 0.95883 0.90254 0.22378 0.0
H3069 H 0.92373 0.89632 0.22234 0.0
H3070 H 0.98298 0.93247 0.23207 0.0
H3071 H 0.96457 0.90311 0.19707 0.0
H3072 H 0.94562 0.90181 0.17974 0.0
H3073 H 0.96967 0.95714 0.16982 0.0
H3074 H 0.98851 0.95891 0.18721 0.0
H3075 H 0.07624 0.89539 0.2193 0.0
H3076 H 0.04176 0.90273 0.22227 0.0
H3077 H 0.04693 0.95416 0.20179 0.0
H3078 H 0.08153 0.94675 0.19863 0.0
H3079 H 0.01651 0.93231 0.19567 0.0
H3080 H 0.03958 0.95856 0.22964 0.0
H3081 H 0.05817 0.95938 0.24709 0.0
H3082 H 0.02577 0.90995 0.25909 0.0
H3083 H 0.00715 0.90864 0.24165 0.0
C3084 C 0.92535 0.94073 0.20946 0.0
C3085 C 0.91731 0.92321 0.21351 0.0
C3086 C 0.94543 0.94424 0.2103 0.0
C3087 C 0.95772 0.93031 0.21523 0.0
C3088 C 0.94955 0.91346 0.21995 0.0
C3089 C 0.92952 0.90988 0.21906 0.0
C3090 C 0.97923 0.93211 0.21442 0.0
C3091 C 0.99038 0.93243 0.22414 0.0
C3092 C 0.98876 0.93249 0.20404 0.0
C3093 C 0.97775 0.93126 0.19349 0.0
C3094 C 0.9657 0.91506 0.19123 0.0
C3095 C 0.95499 0.91423 0.1814 0.0
C3096 C 0.95639 0.92941 0.1737 0.0
C3097 C 0.96856 0.94541 0.1758 0.0
C3098 C 0.97926 0.94634 0.18565 0.0
C3099 C 0.07015 0.90842 0.21553 0.0
C3100 C 0.08162 0.92045 0.20869 0.0
C3101 C 0.05043 0.91267 0.2173 0.0
C3102 C 0.04181 0.92911 0.21234 0.0
C3103 C 0.05333 0.94143 0.20573 0.0
C3104 C 0.07309 0.93719 0.20394 0.0
C3105 C 0.02044 0.93236 0.21336 0.0
C3106 C 0.00924 0.93286 0.20364 0.0
C3107 C 0.01091 0.93269 0.22375 0.0
C3108 C 0.02204 0.93343 0.23429 0.0
C3109 C 0.0365 0.94777 0.23596 0.0
C3110 C 0.04704 0.94834 0.24586 0.0
C3111 C 0.04318 0.93471 0.25418 0.0
C3112 C 0.02874 0.9205 0.25263 0.0
C3113 C 0.01817 0.91985 0.24275 0.0
H3114 H 0.05135 0.93517 0.26184 0.0
H3115 H 0.94807 0.92875 0.1661 0.0
H3116 H 0.34765 0.67145 0.46747 0.0
H3117 H 0.34025 0.70608 0.46971 0.0
H3118 H 0.29427 0.70144 0.44542 0.0
H3119 H 0.30173 0.66665 0.44303 0.0
H3120 H 0.31868 0.7312 0.4409 0.0
H3121 H 0.28286 0.70979 0.47232 0.0
H3122 H 0.27677 0.69166 0.4896 0.0
H3123 H 0.32336 0.72293 0.50554 0.0
H3124 H 0.32993 0.74106 0.48832 0.0
H3125 H 0.30092 0.83236 0.4483 0.0
H3126 H 0.29351 0.79738 0.44912 0.0
H3127 H 0.34233 0.78852 0.47114 0.0
H3128 H 0.34985 0.82343 0.4704 0.0
H3129 H 0.30982 0.76567 0.47666 0.0
H3130 H 0.3491 0.78209 0.44465 0.0
H3131 H 0.3562 0.80022 0.42749 0.0
H3132 H 0.30358 0.77786 0.41279 0.0
H3133 H 0.296 0.75983 0.42996 0.0
C3134 C 0.33577 0.67769 0.46271 0.0
C3135 C 0.32534 0.66631 0.45503 0.0
C3136 C 0.33147 0.69749 0.46405 0.0
C3137 C 0.31659 0.7063 0.4578 0.0
C3138 C 0.30577 0.69488 0.45035 0.0
C3139 C 0.31003 0.67501 0.44901 0.0
C3140 C 0.31367 0.72776 0.45839 0.0
C3141 C 0.31621 0.73871 0.44868 0.0
C3142 C 0.31087 0.73755 0.46858 0.0
C3143 C 0.30696 0.72672 0.47899 0.0
C3144 C 0.29191 0.71271 0.47948 0.0
C3145 C 0.28835 0.70244 0.48928 0.0
C3146 C 0.29969 0.70612 0.49866 0.0
C3147 C 0.31459 0.7201 0.49827 0.0
C3148 C 0.31821 0.7304 0.4885 0.0
C3149 C 0.30988 0.82304 0.45347 0.0
C3150 C 0.32613 0.8306 0.45918 0.0
C3151 C 0.30562 0.80306 0.45392 0.0
C3152 C 0.31751 0.79039 0.4601 0.0
C3153 C 0.33299 0.79809 0.46634 0.0
C3154 C 0.33732 0.81802 0.46585 0.0
C3155 C 0.31515 0.76895 0.45923 0.0
C3156 C 0.31175 0.75807 0.46887 0.0
C3157 C 0.31724 0.75917 0.44899 0.0
C3158 C 0.32186 0.76982 0.43863 0.0
C3159 C 0.33896 0.78117 0.43779 0.0
C3160 C 0.34309 0.79141 0.42806 0.0
C3161 C 0.33032 0.79024 0.41907 0.0
C3162 C 0.31343 0.77878 0.41977 0.0
C3163 C 0.30921 0.76855 0.4295 0.0
H3164 H 0.33358 0.79815 0.41154 0.0
H3165 H 0.29692 0.69815 0.50623 0.0
H3166 H 0.41677 0.04576 0.70494 0.0
H3167 H 0.45196 0.03981 0.70716 0.0
H3168 H 0.46174 0.10183 0.71067 0.0
H3169 H 0.42687 0.10791 0.70848 0.0
H3170 H 0.48588 0.08495 0.6952 0.0
H3171 H 0.4639 0.07246 0.73271 0.0
H3172 H 0.44436 0.05555 0.74694 0.0
H3173 H 0.46985 0.0006 0.73753 0.0
H3174 H 0.48936 0.01717 0.72313 0.0
H3175 H 0.57604 0.10257 0.71871 0.0
H3176 H 0.54085 0.09714 0.71818 0.0
H3177 H 0.55018 0.03716 0.70851 0.0
H3178 H 0.58571 0.0425 0.70884 0.0
H3179 H 0.51699 0.04694 0.72544 0.0
H3180 H 0.54115 0.05966 0.689 0.0
H3181 H 0.56166 0.07679 0.67533 0.0
H3182 H 0.53201 0.13072 0.68242 0.0
H3183 H 0.51168 0.11401 0.69639 0.0
C3184 C 0.42641 0.0581 0.7063 0.0
C3185 C 0.41902 0.07731 0.70648 0.0
C3186 C 0.44648 0.05466 0.70757 0.0
C3187 C 0.45942 0.0704 0.70904 0.0
C3188 C 0.452 0.0895 0.70948 0.0
C3189 C 0.43203 0.09293 0.70826 0.0
C3190 C 0.48082 0.06732 0.7097 0.0
C3191 C 0.49266 0.07665 0.70182 0.0
C3192 C 0.48962 0.05595 0.71812 0.0
C3193 C 0.47789 0.04601 0.72676 0.0
C3194 C 0.46519 0.05674 0.73361 0.0
C3195 C 0.45416 0.04723 0.74172 0.0
C3196 C 0.45581 0.027 0.74311 0.0
C3197 C 0.46855 0.01626 0.73642 0.0
C3198 C 0.4796 0.0257 0.72829 0.0
C3199 C 0.57072 0.08809 0.71667 0.0
C3200 C 0.58368 0.07302 0.71368 0.0
C3201 C 0.55059 0.08503 0.71639 0.0
C3202 C 0.54304 0.06682 0.71322 0.0
C3203 C 0.55584 0.0513 0.71098 0.0
C3204 C 0.57609 0.05442 0.71114 0.0
C3205 C 0.52186 0.06502 0.71113 0.0
C3206 C 0.51012 0.05485 0.7187 0.0
C3207 C 0.51307 0.07551 0.70237 0.0
C3208 C 0.52501 0.0856 0.69383 0.0
C3209 C 0.53912 0.07521 0.68773 0.0
C3210 C 0.55071 0.08484 0.67991 0.0
C3211 C 0.54814 0.10483 0.678 0.0
C3212 C 0.53398 0.11523 0.68391 0.0
C3213 C 0.52243 0.10569 0.69179 0.0
H3214 H 0.55711 0.11224 0.67192 0.0
H3215 H 0.44726 0.01966 0.7494 0.0
H3216 H 0.81023 0.32846 0.93421 0.0
H3217 H 0.80681 0.29327 0.93714 0.0
H3218 H 0.83927 0.29792 0.96762 0.0
H3219 H 0.84307 0.33305 0.96465 0.0
H3220 H 0.85379 0.26995 0.9549 0.0
H3221 H 0.78981 0.28792 0.96747 0.0
H3222 H 0.75755 0.30394 0.96639 0.0
H3223 H 0.74353 0.27035 0.93747 0.0
H3224 H 0.77582 0.2543 0.93829 0.0
H3225 H 0.84487 0.1709 0.96866 0.0
H3226 H 0.8397 0.20618 0.97 0.0
H3227 H 0.80833 0.20544 0.93906 0.0
H3228 H 0.81299 0.17005 0.93779 0.0
H3229 H 0.7923 0.23146 0.95331 0.0
H3230 H 0.85674 0.21584 0.93972 0.0
H3231 H 0.88893 0.19956 0.94044 0.0
H3232 H 0.90211 0.22919 0.97084 0.0
H3233 H 0.86985 0.2454 0.97038 0.0
C3234 C 0.8164 0.32205 0.94162 0.0
C3235 C 0.82702 0.33353 0.94917 0.0
C3236 C 0.81435 0.30193 0.94331 0.0
C3237 C 0.82269 0.29298 0.95264 0.0
C3238 C 0.83273 0.30453 0.96036 0.0
C3239 C 0.83486 0.32461 0.95866 0.0
C3240 C 0.82234 0.2714 0.95387 0.0
C3241 C 0.8403 0.26158 0.95478 0.0
C3242 C 0.80478 0.26045 0.95338 0.0
C3243 C 0.78531 0.27002 0.95289 0.0
C3244 C 0.77991 0.28405 0.96083 0.0
C3245 C 0.7616 0.29312 0.96028 0.0
C3246 C 0.74851 0.2882 0.95185 0.0
C3247 C 0.75369 0.27416 0.94399 0.0
C3248 C 0.77198 0.26505 0.9445 0.0
C3249 C 0.8366 0.17819 0.96222 0.0
C3250 C 0.82958 0.16775 0.95303 0.0
C3251 C 0.83368 0.19835 0.963 0.0
C3252 C 0.82399 0.20847 0.95452 0.0
C3253 C 0.81592 0.19791 0.94568 0.0
C3254 C 0.81866 0.1777 0.94495 0.0
C3255 C 0.82372 0.23014 0.95438 0.0
C3256 C 0.80573 0.23992 0.95359 0.0
C3257 C 0.84125 0.24113 0.9549 0.0
C3258 C 0.8608 0.23167 0.95508 0.0
C3259 C 0.86646 0.21879 0.94659 0.0
C3260 C 0.88471 0.20958 0.94695 0.0
C3261 C 0.89753 0.2133 0.95569 0.0
C3262 C 0.89215 0.2263 0.96408 0.0
C3263 C 0.87389 0.23551 0.96377 0.0
H3264 H 0.91165 0.20613 0.95596 0.0
H3265 H 0.73435 0.29524 0.95144 0.0
H3266 H 0.65113 0.82404 0.46744 0.0
H3267 H 0.65865 0.78983 0.47103 0.0
H3268 H 0.7154 0.79703 0.45595 0.0
H3269 H 0.70788 0.83147 0.45218 0.0
H3270 H 0.69634 0.76554 0.4479 0.0
H3271 H 0.71199 0.78974 0.48368 0.0
H3272 H 0.70719 0.80873 0.50079 0.0
H3273 H 0.6556 0.77541 0.50823 0.0
H3274 H 0.65991 0.75639 0.49108 0.0
H3275 H 0.70928 0.66453 0.45894 0.0
H3276 H 0.71647 0.69952 0.46052 0.0
H3277 H 0.659 0.70946 0.47415 0.0
H3278 H 0.65178 0.67465 0.47273 0.0
H3279 H 0.6864 0.7326 0.48402 0.0
H3280 H 0.66678 0.71411 0.44687 0.0
H3281 H 0.66991 0.69524 0.42958 0.0
H3282 H 0.72769 0.71833 0.42467 0.0
H3283 H 0.725 0.73711 0.44204 0.0
C3284 C 0.66531 0.81846 0.46497 0.0
C3285 C 0.67889 0.83047 0.45948 0.0
C3286 C 0.66965 0.7989 0.46711 0.0
C3287 C 0.68769 0.79094 0.46389 0.0
C3288 C 0.70143 0.80294 0.45857 0.0
C3289 C 0.69712 0.82259 0.45643 0.0
C3290 C 0.69132 0.76972 0.46533 0.0
C3291 C 0.69472 0.75838 0.45585 0.0
C3292 C 0.68884 0.76037 0.47567 0.0
C3293 C 0.68624 0.77168 0.48605 0.0
C3294 C 0.69955 0.78654 0.48893 0.0
C3295 C 0.69692 0.7973 0.49864 0.0
C3296 C 0.68109 0.7933 0.50559 0.0
C3297 C 0.66787 0.77849 0.50284 0.0
C3298 C 0.67041 0.76769 0.49314 0.0
C3299 C 0.69832 0.67411 0.46247 0.0
C3300 C 0.67986 0.66687 0.46557 0.0
C3301 C 0.70245 0.69409 0.46335 0.0
C3302 C 0.68816 0.70708 0.46731 0.0
C3303 C 0.67022 0.69968 0.47107 0.0
C3304 C 0.66608 0.67978 0.47018 0.0
C3305 C 0.69091 0.72852 0.46657 0.0
C3306 C 0.68862 0.73985 0.47615 0.0
C3307 C 0.69425 0.7379 0.45631 0.0
C3308 C 0.69579 0.72681 0.44581 0.0
C3309 C 0.6802 0.71505 0.44214 0.0
C3310 C 0.68189 0.70438 0.43232 0.0
C3311 C 0.69902 0.70554 0.42605 0.0
C3312 C 0.71446 0.71742 0.42956 0.0
C3313 C 0.71286 0.72807 0.43938 0.0
H3314 H 0.7003 0.69727 0.41845 0.0
H3315 H 0.67908 0.80165 0.5131 0.0
H3316 H 0.82309 0.6679 0.03239 0.0
H3317 H 0.81744 0.70313 0.03066 0.0
H3318 H 0.81772 0.70873 0.06618 0.0
H3319 H 0.82323 0.67359 0.06799 0.0
H3320 H 0.78958 0.73216 0.05625 0.0
H3321 H 0.85848 0.71693 0.05219 0.0
H3322 H 0.8865 0.69994 0.04364 0.0
H3323 H 0.87224 0.72536 0.01219 0.0
H3324 H 0.84392 0.74225 0.02053 0.0
H3325 H 0.82222 0.8277 0.06807 0.0
H3326 H 0.81554 0.79289 0.066 0.0
H3327 H 0.82169 0.7981 0.03062 0.0
H3328 H 0.82887 0.83296 0.03264 0.0
H3329 H 0.84309 0.76909 0.038 0.0
H3330 H 0.77674 0.78836 0.04281 0.0
H3331 H 0.74878 0.80519 0.05149 0.0
H3332 H 0.75783 0.77263 0.08141 0.0
H3333 H 0.78603 0.75579 0.07297 0.0
C3334 C 0.82166 0.67658 0.03983 0.0
C3335 C 0.82382 0.668 0.05033 0.0
C3336 C 0.81845 0.69669 0.03883 0.0
C3337 C 0.81737 0.70852 0.04829 0.0
C3338 C 0.8185 0.69984 0.05877 0.0
C3339 C 0.82176 0.67977 0.05979 0.0
C3340 C 0.81675 0.73009 0.04734 0.0
C3341 C 0.80126 0.74031 0.05229 0.0
C3342 C 0.83179 0.74059 0.04193 0.0
C3343 C 0.84896 0.73066 0.03695 0.0
C3344 C 0.86124 0.71878 0.04343 0.0
C3345 C 0.87718 0.70918 0.03863 0.0
C3346 C 0.88111 0.71152 0.02737 0.0
C3347 C 0.86915 0.72352 0.02091 0.0
C3348 C 0.85315 0.73311 0.02567 0.0
C3349 C 0.82186 0.82154 0.05982 0.0
C3350 C 0.82619 0.83309 0.05052 0.0
C3351 C 0.81791 0.80162 0.05864 0.0
C3352 C 0.81794 0.79289 0.04814 0.0
C3353 C 0.82157 0.80453 0.0388 0.0
C3354 C 0.82564 0.82446 0.03998 0.0
C3355 C 0.816 0.77136 0.04706 0.0
C3356 C 0.83111 0.76107 0.04176 0.0
C3357 C 0.80059 0.76084 0.05215 0.0
C3358 C 0.78359 0.77089 0.05726 0.0
C3359 C 0.77286 0.78488 0.05126 0.0
C3360 C 0.75695 0.79441 0.05614 0.0
C3361 C 0.75155 0.79001 0.067 0.0
C3362 C 0.76203 0.77603 0.073 0.0
C3363 C 0.77796 0.76647 0.06816 0.0
H3364 H 0.73923 0.7974 0.07076 0.0
H3365 H 0.89346 0.70408 0.02367 0.0
H3366 H 0.65154 0.32245 0.52414 0.0
H3367 H 0.65475 0.28693 0.52338 0.0
H3368 H 0.69516 0.28849 0.55074 0.0
H3369 H 0.69231 0.32418 0.55146 0.0
H3370 H 0.70404 0.259 0.53524 0.0
H3371 H 0.64905 0.2823 0.55632 0.0
H3372 H 0.6195 0.30237 0.55916 0.0
H3373 H 0.591 0.27288 0.53228 0.0
H3374 H 0.62055 0.25287 0.52914 0.0
H3375 H 0.68324 0.16333 0.55694 0.0
H3376 H 0.68949 0.19817 0.55387 0.0
H3377 H 0.64632 0.19883 0.52786 0.0
H3378 H 0.63983 0.16418 0.53094 0.0
H3379 H 0.63999 0.22733 0.54258 0.0
H3380 H 0.69486 0.20283 0.52204 0.0
H3381 H 0.72485 0.18351 0.51903 0.0
H3382 H 0.75369 0.21497 0.54507 0.0
H3383 H 0.72376 0.2343 0.54834 0.0
C3384 C 0.66145 0.3153 0.52985 0.0
C3385 C 0.67141 0.32606 0.538 0.0
C3386 C 0.66328 0.29501 0.52939 0.0
C3387 C 0.67489 0.28511 0.53714 0.0
C3388 C 0.68608 0.2959 0.54471 0.0
C3389 C 0.68437 0.31627 0.54513 0.0
C3390 C 0.67334 0.26362 0.53822 0.0
C3391 C 0.69011 0.25202 0.53694 0.0
C3392 C 0.65508 0.25461 0.54035 0.0
C3393 C 0.63708 0.26621 0.54243 0.0
C3394 C 0.63652 0.28016 0.55097 0.0
C3395 C 0.61977 0.29153 0.55264 0.0
C3396 C 0.60339 0.28893 0.54589 0.0
C3397 C 0.60371 0.27489 0.53749 0.0
C3398 C 0.62045 0.26353 0.53577 0.0
C3399 C 0.67526 0.17084 0.55048 0.0
C3400 C 0.66094 0.16102 0.54424 0.0
C3401 C 0.67891 0.19072 0.5487 0.0
C3402 C 0.6684 0.20106 0.54062 0.0
C3403 C 0.65456 0.19113 0.53416 0.0
C3404 C 0.65089 0.17131 0.53593 0.0
C3405 C 0.67066 0.22251 0.53943 0.0
C3406 C 0.65396 0.23419 0.5408 0.0
C3407 C 0.68899 0.2315 0.53745 0.0
C3408 C 0.70699 0.21988 0.53551 0.0
C3409 C 0.70753 0.20551 0.52719 0.0
C3410 C 0.72454 0.19458 0.52542 0.0
C3411 C 0.74115 0.19797 0.53187 0.0
C3412 C 0.7408 0.21234 0.54009 0.0
C3413 C 0.72383 0.2233 0.5419 0.0
H3414 H 0.7543 0.1895 0.53049 0.0
H3415 H 0.59045 0.29777 0.54718 0.0
H3416 H 0.92761 0.44217 0.79526 0.0
H3417 H 0.96296 0.44591 0.79315 0.0
H3418 H 0.96428 0.39609 0.77126 0.0
H3419 H 0.92902 0.39201 0.7735 0.0
H3420 H 0.99041 0.39219 0.78705 0.0
H3421 H 0.97278 0.44302 0.7618 0.0
H3422 H 0.95585 0.47288 0.75554 0.0
H3423 H 0.98431 0.50615 0.78098 0.0
H3424 H 0.00122 0.47643 0.7875 0.0
H3425 H 0.09029 0.3976 0.77537 0.0
H3426 H 0.05528 0.40068 0.7718 0.0
H3427 H 0.05131 0.44655 0.79617 0.0
H3428 H 0.08643 0.44374 0.79974 0.0
H3429 H 0.02682 0.45288 0.77791 0.0
H3430 H 0.04205 0.40159 0.80395 0.0
H3431 H 0.05924 0.37186 0.81021 0.0
H3432 H 0.0348 0.33949 0.78311 0.0
H3433 H 0.01771 0.36914 0.77659 0.0
C3434 C 0.93538 0.43219 0.78987 0.0
C3435 C 0.92554 0.4167 0.78461 0.0
C3436 C 0.95558 0.43441 0.78862 0.0
C3437 C 0.96626 0.42133 0.78201 0.0
C3438 C 0.95633 0.40632 0.77642 0.0
C3439 C 0.93617 0.40403 0.77771 0.0
C3440 C 0.98792 0.42218 0.7817 0.0
C3441 C 0.99833 0.40537 0.78483 0.0
C3442 C 0.99828 0.43953 0.77911 0.0
C3443 C 0.98814 0.45745 0.7752 0.0
C3444 C 0.97531 0.45667 0.76612 0.0
C3445 C 0.96574 0.47358 0.76252 0.0
C3446 C 0.96897 0.49139 0.76788 0.0
C3447 C 0.98181 0.49234 0.77684 0.0
C3448 C 0.99141 0.47547 0.78049 0.0
C3449 C 0.08207 0.4086 0.77984 0.0
C3450 C 0.09107 0.42021 0.78797 0.0
C3451 C 0.06207 0.41034 0.77778 0.0
C3452 C 0.0507 0.42361 0.78386 0.0
C3453 C 0.05985 0.43618 0.79142 0.0
C3454 C 0.07991 0.43449 0.79348 0.0
C3455 C 0.02911 0.42289 0.78318 0.0
C3456 C 0.01878 0.43969 0.77997 0.0
C3457 C 0.01874 0.40555 0.78571 0.0
C3458 C 0.02877 0.38763 0.78971 0.0
C3459 C 0.04045 0.38817 0.79928 0.0
C3460 C 0.05016 0.37133 0.80288 0.0
C3461 C 0.04815 0.35381 0.79704 0.0
C3462 C 0.03637 0.35308 0.78761 0.0
C3463 C 0.02666 0.36989 0.78396 0.0
H3464 H 0.05569 0.34079 0.79984 0.0
H3465 H 0.96155 0.50447 0.76507 0.0
H3466 H 0.41844 0.5473 0.29581 0.0
H3467 H 0.45328 0.53917 0.29478 0.0
H3468 H 0.46432 0.59319 0.27742 0.0
H3469 H 0.42962 0.6013 0.27829 0.0
H3470 H 0.48621 0.56312 0.26913 0.0
H3471 H 0.46979 0.59043 0.3052 0.0
H3472 H 0.45181 0.59099 0.32288 0.0
H3473 H 0.47371 0.53378 0.33076 0.0
H3474 H 0.49162 0.53279 0.31305 0.0
H3475 H 0.57838 0.60015 0.28218 0.0
H3476 H 0.54425 0.59175 0.27912 0.0
H3477 H 0.55136 0.5394 0.29864 0.0
H3478 H 0.58571 0.54792 0.30192 0.0
H3479 H 0.5204 0.55973 0.30525 0.0
H3480 H 0.5429 0.53619 0.27071 0.0
H3481 H 0.56122 0.53646 0.25316 0.0
H3482 H 0.5285 0.5865 0.24227 0.0
H3483 H 0.51017 0.58673 0.25982 0.0
C3484 C 0.42825 0.55731 0.29164 0.0
C3485 C 0.42131 0.57506 0.28725 0.0
C3486 C 0.44814 0.55264 0.29107 0.0
C3487 C 0.46139 0.56569 0.28614 0.0
C3488 C 0.45433 0.58291 0.28126 0.0
C3489 C 0.4345 0.58758 0.28182 0.0
C3490 C 0.48277 0.56242 0.28681 0.0
C3491 C 0.49374 0.56235 0.27701 0.0
C3492 C 0.49249 0.56078 0.29709 0.0
C3493 C 0.48183 0.56143 0.30775 0.0
C3494 C 0.47065 0.57791 0.31067 0.0
C3495 C 0.46049 0.57832 0.3207 0.0
C3496 C 0.46157 0.56241 0.32792 0.0
C3497 C 0.47285 0.54608 0.32515 0.0
C3498 C 0.48301 0.54558 0.31512 0.0
C3499 C 0.57282 0.5867 0.28572 0.0
C3500 C 0.58475 0.57476 0.29236 0.0
C3501 C 0.55329 0.58182 0.28388 0.0
C3502 C 0.54529 0.56481 0.28853 0.0
C3503 C 0.55728 0.55254 0.29492 0.0
C3504 C 0.57689 0.55743 0.29678 0.0
C3505 C 0.52399 0.5611 0.28757 0.0
C3506 C 0.51297 0.5599 0.29733 0.0
C3507 C 0.51426 0.56161 0.27724 0.0
C3508 C 0.5252 0.56152 0.26663 0.0
C3509 C 0.53969 0.54734 0.26461 0.0
C3510 C 0.55006 0.54739 0.25465 0.0
C3511 C 0.54604 0.56149 0.24661 0.0
C3512 C 0.53159 0.57557 0.2485 0.0
C3513 C 0.52118 0.57559 0.25845 0.0
H3514 H 0.55409 0.56151 0.23891 0.0
H3515 H 0.4537 0.56275 0.33568 0.0
H3516 H 0.42802 0.3981 0.72007 0.0
H3517 H 0.4631 0.40353 0.72186 0.0
H3518 H 0.4574 0.45902 0.70516 0.0
H3519 H 0.42217 0.45357 0.7032 0.0
H3520 H 0.48552 0.43719 0.6961 0.0
H3521 H 0.46926 0.45735 0.73256 0.0
H3522 H 0.45353 0.45537 0.75086 0.0
H3523 H 0.48518 0.40256 0.75793 0.0
H3524 H 0.5009 0.40406 0.7396 0.0
H3525 H 0.58794 0.45001 0.70151 0.0
H3526 H 0.55313 0.45668 0.70432 0.0
H3527 H 0.54618 0.40037 0.71993 0.0
H3528 H 0.58093 0.39365 0.71727 0.0
H3529 H 0.52462 0.42871 0.73032 0.0
H3530 H 0.53611 0.40582 0.69297 0.0
H3531 H 0.55147 0.40689 0.67453 0.0
H3532 H 0.52816 0.46447 0.66921 0.0
H3533 H 0.51288 0.46383 0.6877 0.0
C3534 C 0.43414 0.4116 0.7169 0.0
C3535 C 0.42231 0.42536 0.71143 0.0
C3536 C 0.45421 0.41474 0.718 0.0
C3537 C 0.46284 0.43176 0.71373 0.0
C3538 C 0.451 0.44581 0.70855 0.0
C3539 C 0.43088 0.44268 0.70744 0.0
C3540 C 0.48442 0.43389 0.71381 0.0
C3541 C 0.49405 0.43584 0.70363 0.0
C3542 C 0.49555 0.43172 0.7236 0.0
C3543 C 0.48618 0.43077 0.73466 0.0
C3544 C 0.47277 0.44524 0.73798 0.0
C3545 C 0.46387 0.44421 0.74837 0.0
C3546 C 0.46833 0.42883 0.75555 0.0
C3547 C 0.48174 0.41447 0.75236 0.0
C3548 C 0.49067 0.41542 0.74198 0.0
C3549 C 0.57906 0.43915 0.70567 0.0
C3550 C 0.58715 0.4212 0.70905 0.0
C3551 C 0.55918 0.44299 0.70726 0.0
C3552 C 0.54706 0.42891 0.71221 0.0
C3553 C 0.55529 0.41142 0.71609 0.0
C3554 C 0.57514 0.40756 0.71451 0.0
C3555 C 0.52558 0.43164 0.71261 0.0
C3556 C 0.51602 0.43052 0.72286 0.0
C3557 C 0.51446 0.43451 0.70288 0.0
C3558 C 0.52357 0.43488 0.69176 0.0
C3559 C 0.5344 0.41877 0.6879 0.0
C3560 C 0.54307 0.41929 0.67744 0.0
C3561 C 0.54085 0.43577 0.67072 0.0
C3562 C 0.52991 0.45174 0.67443 0.0
C3563 C 0.52124 0.45131 0.6849 0.0
H3564 H 0.54756 0.43614 0.66262 0.0
H3565 H 0.46142 0.42807 0.76359 0.0
H3566 H 0.9141 0.54914 0.20069 0.0
H3567 H 0.94945 0.54424 0.20251 0.0
H3568 H 0.95516 0.60178 0.2168 0.0
H3569 H 0.92001 0.60687 0.21494 0.0
H3570 H 0.98072 0.59614 0.20015 0.0
H3571 H 0.95947 0.56098 0.23257 0.0
H3572 H 0.94071 0.53603 0.24279 0.0
H3573 H 0.96823 0.49059 0.22384 0.0
H3574 H 0.98697 0.51531 0.21341 0.0
H3575 H 0.07482 0.59841 0.22141 0.0
H3576 H 0.03932 0.59534 0.22135 0.0
H3577 H 0.04378 0.54115 0.20329 0.0
H3578 H 0.07956 0.54408 0.20326 0.0
H3579 H 0.01348 0.54232 0.22057 0.0
H3580 H 0.03531 0.57728 0.18852 0.0
H3581 H 0.05467 0.60212 0.17859 0.0
H3582 H 0.02593 0.64776 0.19681 0.0
H3583 H 0.00662 0.62314 0.20698 0.0
C3584 C 0.92286 0.56067 0.20432 0.0
C3585 C 0.91427 0.57844 0.20761 0.0
C3586 C 0.94304 0.55782 0.20538 0.0
C3587 C 0.95489 0.57265 0.2098 0.0
C3588 C 0.94626 0.59018 0.21333 0.0
C3589 C 0.92616 0.59304 0.21227 0.0
C3590 C 0.97643 0.57048 0.21023 0.0
C3591 C 0.98784 0.58447 0.20471 0.0
C3592 C 0.98571 0.55487 0.21586 0.0
C3593 C 0.97445 0.54001 0.22212 0.0
C3594 C 0.96138 0.54568 0.23052 0.0
C3595 C 0.95079 0.53158 0.23636 0.0
C3596 C 0.95323 0.51174 0.23394 0.0
C3597 C 0.96632 0.50596 0.22569 0.0
C3598 C 0.97695 0.52001 0.21982 0.0
C3599 C 0.06835 0.58565 0.21757 0.0
C3600 C 0.08001 0.57161 0.2122 0.0
C3601 C 0.04805 0.58393 0.21755 0.0
C3602 C 0.03902 0.56816 0.2122 0.0
C3603 C 0.05056 0.55343 0.20745 0.0
C3604 C 0.07096 0.55518 0.20741 0.0
C3605 C 0.01757 0.56823 0.21073 0.0
C3606 C 0.00625 0.55387 0.21597 0.0
C3607 C 0.00828 0.58345 0.20481 0.0
C3608 C 0.01964 0.59834 0.19859 0.0
C3609 C 0.03322 0.5926 0.19047 0.0
C3610 C 0.04418 0.60664 0.18479 0.0
C3611 C 0.04157 0.62651 0.18709 0.0
C3612 C 0.02795 0.63236 0.19504 0.0
C3613 C 0.01698 0.61837 0.20077 0.0
H3614 H 0.05007 0.63736 0.18268 0.0
H3615 H 0.94502 0.50084 0.23848 0.0
loop_
_geom_bond_atom_site_label_1
_geom_bond_atom_site_label_2
_geom_bond_distance
_geom_bond_site_symmetry_2
_ccdc_geom_bond_type
C0 O1 1.160 . S
C0 O7 1.185 . S
O1 C0 1.160 . S
O2 Zn3 1.899 . S
O2 C10 1.284 . S
Zn3 O2 1.899 . S
Zn3 O4 2.032 . S
Zn3 O7 2.086 . S
Zn3 O12 1.977 . S
O4 Zn3 2.032 . S
O4 C8 1.278 . S
C5 O6 1.203 . S
C5 O12 1.267 . S
O6 C5 1.203 . S
O7 C0 1.185 . S
O7 Zn3 2.086 . S
C8 O4 1.278 . S
C8 O9 1.211 . S
O9 C8 1.211 . S
C10 O2 1.284 . S
C10 O11 1.273 . S
O11 C10 1.273 . S
O12 Zn3 1.977 . S
O12 C5 1.267 . S
C13 O14 1.160 . S
C13 O20 1.185 . S
O14 C13 1.160 . S
O15 Zn16 1.899 . S
O15 C23 1.284 . S
Zn16 O15 1.899 . S
Zn16 O17 2.032 . S
Zn16 O20 2.086 . S
Zn16 O25 1.977 . S
O17 Zn16 2.032 . S
O17 C21 1.278 . S
C18 O19 1.203 . S
C18 O25 1.267 . S
O19 C18 1.203 . S
O20 C13 1.185 . S
O20 Zn16 2.086 . S
C21 O17 1.278 . S
C21 O22 1.211 . S
O22 C21 1.211 . S
C23 O15 1.284 . S
C23 O24 1.273 . S
O24 C23 1.273 . S
O25 Zn16 1.977 . S
O25 C18 1.267 . S
C26 O27 1.160 . S
C26 O33 1.185 . S
O27 C26 1.160 . S
O28 Zn29 1.899 . S
O28 C36 1.284 . S
Zn29 O28 1.899 . S
Zn29 O30 2.032 . S
Zn29 O33 2.086 . S
Zn29 O38 1.977 . S
O30 Zn29 2.032 . S
O30 C34 1.278 . S
C31 O32 1.203 . S
C31 O38 1.267 . S
O32 C31 1.203 . S
O33 C26 1.185 . S
O33 Zn29 2.086 . S
C34 O30 1.278 . S
C34 O35 1.211 . S
O35 C34 1.211 . S
C36 O28 1.284 . S
C36 O37 1.273 . S
O37 C36 1.273 . S
O38 Zn29 1.977 . S
O38 C31 1.267 . S
C39 O40 1.160 . S
C39 O46 1.185 . S
O40 C39 1.160 . S
O41 Zn42 1.899 . S
O41 C49 1.284 . S
Zn42 O41 1.899 . S
Zn42 O43 2.032 . S
Zn42 O46 2.086 . S
Zn42 O51 1.977 . S
O43 Zn42 2.032 . S
O43 C47 1.278 . S
C44 O45 1.203 . S
C44 O51 1.267 . S
O45 C44 1.203 . S
O46 C39 1.185 . S
O46 Zn42 2.086 . S
C47 O43 1.278 . S
C47 O48 1.211 . S
O48 C47 1.211 . S
C49 O41 1.284 . S
C49 O50 1.273 . S
O50 C49 1.273 . S
O51 Zn42 1.977 . S
O51 C44 1.267 . S
C52 O53 1.160 . S
C52 O59 1.185 . S
O53 C52 1.160 . S
O54 Zn55 1.899 . S
O54 C62 1.284 . S
Zn55 O54 1.899 . S
Zn55 O56 2.032 . S
Zn55 O59 2.086 . S
Zn55 O64 1.977 . S
O56 Zn55 2.032 . S
O56 C60 1.278 . S
C57 O58 1.203 . S
C57 O64 1.267 . S
O58 C57 1.203 . S
O59 C52 1.185 . S
O59 Zn55 2.086 . S
C60 O56 1.278 . S
C60 O61 1.211 . S
O61 C60 1.211 . S
C62 O54 1.284 . S
C62 O63 1.273 . S
O63 C62 1.273 . S
O64 Zn55 1.977 . S
O64 C57 1.267 . S
C65 O66 1.160 . S
C65 O72 1.185 . S
O66 C65 1.160 . S
O67 Zn68 1.899 . S
O67 C75 1.284 . S
Zn68 O67 1.899 . S
Zn68 O69 2.032 . S
Zn68 O72 2.086 . S
Zn68 O77 1.977 . S
O69 Zn68 2.032 . S
O69 C73 1.278 . S
C70 O71 1.203 . S
C70 O77 1.267 . S
O71 C70 1.203 . S
O72 C65 1.185 . S
O72 Zn68 2.086 . S
C73 O69 1.278 . S
C73 O74 1.211 . S
O74 C73 1.211 . S
C75 O67 1.284 . S
C75 O76 1.273 . S
O76 C75 1.273 . S
O77 Zn68 1.977 . S
O77 C70 1.267 . S
C78 O79 1.160 . S
C78 O85 1.185 . S
O79 C78 1.160 . S
O80 Zn81 1.899 . S
O80 C88 1.284 . S
Zn81 O80 1.899 . S
Zn81 O82 2.032 . S
Zn81 O85 2.086 . S
Zn81 O90 1.977 . S
O82 Zn81 2.032 . S
O82 C86 1.278 . S
C83 O84 1.203 . S
C83 O90 1.267 . S
O84 C83 1.203 . S
O85 C78 1.185 . S
O85 Zn81 2.086 . S
C86 O82 1.278 . S
C86 O87 1.211 . S
O87 C86 1.211 . S
C88 O80 1.284 . S
C88 O89 1.273 . S
O89 C88 1.273 . S
O90 Zn81 1.977 . S
O90 C83 1.267 . S
C91 O92 1.160 . S
C91 O98 1.185 . S
O92 C91 1.160 . S
O93 Zn94 1.899 . S
O93 C101 1.284 . S
Zn94 O93 1.899 . S
Zn94 O95 2.032 . S
Zn94 O98 2.086 . S
Zn94 O103 1.977 . S
O95 Zn94 2.032 . S
O95 C99 1.278 . S
C96 O97 1.203 . S
C96 O103 1.267 . S
O97 C96 1.203 . S
O98 C91 1.185 . S
O98 Zn94 2.086 . S
C99 O95 1.278 . S
C99 O100 1.211 . S
O100 C99 1.211 . S
C101 O93 1.284 . S
C101 O102 1.273 . S
O102 C101 1.273 . S
O103 Zn94 1.977 . S
O103 C96 1.267 . S
C104 O105 1.160 . S
C104 O111 1.185 . S
O105 C104 1.160 . S
O106 Zn107 1.899 . S
O106 C114 1.284 . S
Zn107 O106 1.899 . S
Zn107 O108 2.032 . S
Zn107 O111 2.086 . S
Zn107 O116 1.977 . S
O108 Zn107 2.032 . S
O108 C112 1.278 . S
C109 O110 1.203 . S
C109 O116 1.267 . S
O110 C109 1.203 . S
O111 C104 1.185 . S
O111 Zn107 2.086 . S
C112 O108 1.278 . S
C112 O113 1.211 . S
O113 C112 1.211 . S
C114 O106 1.284 . S
C114 O115 1.273 . S
O115 C114 1.273 . S
O116 Zn107 1.977 . S
O116 C109 1.267 . S
C117 O118 1.160 . S
C117 O124 1.185 . S
O118 C117 1.160 . S
O119 Zn120 1.899 . S
O119 C127 1.284 . S
Zn120 O119 1.899 . S
Zn120 O121 2.032 . S
Zn120 O124 2.086 . S
Zn120 O129 1.977 . S
O121 Zn120 2.032 . S
O121 C125 1.278 . S
C122 O123 1.203 . S
C122 O129 1.267 . S
O123 C122 1.203 . S
O124 C117 1.185 . S
O124 Zn120 2.086 . S
C125 O121 1.278 . S
C125 O126 1.211 . S
O126 C125 1.211 . S
C127 O119 1.284 . S
C127 O128 1.273 . S
O128 C127 1.273 . S
O129 Zn120 1.977 . S
O129 C122 1.267 . S
C130 O131 1.160 . S
C130 O137 1.185 . S
O131 C130 1.160 . S
O132 Zn133 1.899 . S
O132 C140 1.284 . S
Zn133 O132 1.899 . S
Zn133 O134 2.032 . S
Zn133 O137 2.086 . S
Zn133 O142 1.977 . S
O134 Zn133 2.032 . S
O134 C138 1.278 . S
C135 O136 1.203 . S
C135 O142 1.267 . S
O136 C135 1.203 . S
O137 C130 1.185 . S
O137 Zn133 2.086 . S
C138 O134 1.278 . S
C138 O139 1.211 . S
O139 C138 1.211 . S
C140 O132 1.284 . S
C140 O141 1.273 . S
O141 C140 1.273 . S
O142 Zn133 1.977 . S
O142 C135 1.267 . S
C143 O144 1.160 . S
C143 O150 1.185 . S
O144 C143 1.160 . S
O145 Zn146 1.899 . S
O145 C153 1.284 . S
Zn146 O145 1.899 . S
Zn146 O147 2.032 . S
Zn146 O150 2.086 . S
Zn146 O155 1.977 . S
O147 Zn146 2.032 . S
O147 C151 1.278 . S
C148 O149 1.203 . S
C148 O155 1.267 . S
O149 C148 1.203 . S
O150 C143 1.185 . S
O150 Zn146 2.086 . S
C151 O147 1.278 . S
C151 O152 1.211 . S
O152 C151 1.211 . S
C153 O145 1.284 . S
C153 O154 1.273 . S
O154 C153 1.273 . S
O155 Zn146 1.977 . S
O155 C148 1.267 . S
C156 O157 1.160 . S
C156 O163 1.185 . S
O157 C156 1.160 . S
O158 Zn159 1.899 . S
O158 C166 1.284 . S
Zn159 O158 1.899 . S
Zn159 O160 2.032 . S
Zn159 O163 2.086 . S
Zn159 O168 1.977 . S
O160 Zn159 2.032 . S
O160 C164 1.278 . S
C161 O162 1.203 . S
C161 O168 1.267 . S
O162 C161 1.203 . S
O163 C156 1.185 . S
O163 Zn159 2.086 . S
C164 O160 1.278 . S
C164 O165 1.211 . S
O165 C164 1.211 . S
C166 O158 1.284 . S
C166 O167 1.273 . S
O167 C166 1.273 . S
O168 Zn159 1.977 . S
O168 C161 1.267 . S
C169 O170 1.160 . S
C169 O176 1.185 . S
O170 C169 1.160 . S
O171 Zn172 1.899 . S
O171 C179 1.284 . S
Zn172 O171 1.899 . S
Zn172 O173 2.032 . S
Zn172 O176 2.086 . S
Zn172 O181 1.977 . S
O173 Zn172 2.032 . S
O173 C177 1.278 . S
C174 O175 1.203 . S
C174 O181 1.267 . S
O175 C174 1.203 . S
O176 C169 1.185 . S
O176 Zn172 2.086 . S
C177 O173 1.278 . S
C177 O178 1.211 . S
O178 C177 1.211 . S
C179 O171 1.284 . S
C179 O180 1.273 . S
O180 C179 1.273 . S
O181 Zn172 1.977 . S
O181 C174 1.267 . S
C182 O183 1.160 . S
C182 O189 1.185 . S
O183 C182 1.160 . S
O184 Zn185 1.899 . S
O184 C192 1.284 . S
Zn185 O184 1.899 . S
Zn185 O186 2.032 . S
Zn185 O189 2.086 . S
Zn185 O194 1.977 . S
O186 Zn185 2.032 . S
O186 C190 1.278 . S
C187 O188 1.203 . S
C187 O194 1.267 . S
O188 C187 1.203 . S
O189 C182 1.185 . S
O189 Zn185 2.086 . S
C190 O186 1.278 . S
C190 O191 1.211 . S
O191 C190 1.211 . S
C192 O184 1.284 . S
C192 O193 1.273 . S
O193 C192 1.273 . S
O194 Zn185 1.977 . S
O194 C187 1.267 . S
C195 O196 1.160 . S
C195 O202 1.185 . S
O196 C195 1.160 . S
O197 Zn198 1.899 . S
O197 C205 1.284 . S
Zn198 O197 1.899 . S
Zn198 O199 2.032 . S
Zn198 O202 2.086 . S
Zn198 O207 1.977 . S
O199 Zn198 2.032 . S
O199 C203 1.278 . S
C200 O201 1.203 . S
C200 O207 1.267 . S
O201 C200 1.203 . S
O202 C195 1.185 . S
O202 Zn198 2.086 . S
C203 O199 1.278 . S
C203 O204 1.211 . S
O204 C203 1.211 . S
C205 O197 1.284 . S
C205 O206 1.273 . S
O206 C205 1.273 . S
O207 Zn198 1.977 . S
O207 C200 1.267 . S
C208 O209 1.160 . S
C208 O215 1.185 . S
O209 C208 1.160 . S
O210 Zn211 1.899 . S
O210 C218 1.284 . S
Zn211 O210 1.899 . S
Zn211 O212 2.032 . S
Zn211 O215 2.086 . S
Zn211 O220 1.977 . S
O212 Zn211 2.032 . S
O212 C216 1.278 . S
C213 O214 1.203 . S
C213 O220 1.267 . S
O214 C213 1.203 . S
O215 C208 1.185 . S
O215 Zn211 2.086 . S
C216 O212 1.278 . S
C216 O217 1.211 . S
O217 C216 1.211 . S
C218 O210 1.284 . S
C218 O219 1.273 . S
O219 C218 1.273 . S
O220 Zn211 1.977 . S
O220 C213 1.267 . S
C221 O222 1.160 . S
C221 O228 1.185 . S
O222 C221 1.160 . S
O223 Zn224 1.899 . S
O223 C231 1.284 . S
Zn224 O223 1.899 . S
Zn224 O225 2.032 . S
Zn224 O228 2.086 . S
Zn224 O233 1.977 . S
O225 Zn224 2.032 . S
O225 C229 1.278 . S
C226 O227 1.203 . S
C226 O233 1.267 . S
O227 C226 1.203 . S
O228 C221 1.185 . S
O228 Zn224 2.086 . S
C229 O225 1.278 . S
C229 O230 1.211 . S
O230 C229 1.211 . S
C231 O223 1.284 . S
C231 O232 1.273 . S
O232 C231 1.273 . S
O233 Zn224 1.977 . S
O233 C226 1.267 . S
C234 O235 1.160 . S
C234 O241 1.185 . S
O235 C234 1.160 . S
O236 Zn237 1.899 . S
O236 C244 1.284 . S
Zn237 O236 1.899 . S
Zn237 O238 2.032 . S
Zn237 O241 2.086 . S
Zn237 O246 1.977 . S
O238 Zn237 2.032 . S
O238 C242 1.278 . S
C239 O240 1.203 . S
C239 O246 1.267 . S
O240 C239 1.203 . S
O241 C234 1.185 . S
O241 Zn237 2.086 . S
C242 O238 1.278 . S
C242 O243 1.211 . S
O243 C242 1.211 . S
C244 O236 1.284 . S
C244 O245 1.273 . S
O245 C244 1.273 . S
O246 Zn237 1.977 . S
O246 C239 1.267 . S
C247 O248 1.160 . S
C247 O254 1.185 . S
O248 C247 1.160 . S
O249 Zn250 1.899 . S
O249 C257 1.284 . S
Zn250 O249 1.899 . S
Zn250 O251 2.032 . S
Zn250 O254 2.086 . S
Zn250 O259 1.977 . S
O251 Zn250 2.032 . S
O251 C255 1.278 . S
C252 O253 1.203 . S
C252 O259 1.267 . S
O253 C252 1.203 . S
O254 C247 1.185 . S
O254 Zn250 2.086 . S
C255 O251 1.278 . S
C255 O256 1.211 . S
O256 C255 1.211 . S
C257 O249 1.284 . S
C257 O258 1.273 . S
O258 C257 1.273 . S
O259 Zn250 1.977 . S
O259 C252 1.267 . S
C260 O261 1.160 . S
C260 O267 1.185 . S
O261 C260 1.160 . S
O262 Zn263 1.899 . S
O262 C270 1.284 . S
Zn263 O262 1.899 . S
Zn263 O264 2.032 . S
Zn263 O267 2.086 . S
Zn263 O272 1.977 . S
O264 Zn263 2.032 . S
O264 C268 1.278 . S
C265 O266 1.203 . S
C265 O272 1.267 . S
O266 C265 1.203 . S
O267 C260 1.185 . S
O267 Zn263 2.086 . S
C268 O264 1.278 . S
C268 O269 1.211 . S
O269 C268 1.211 . S
C270 O262 1.284 . S
C270 O271 1.273 . S
O271 C270 1.273 . S
O272 Zn263 1.977 . S
O272 C265 1.267 . S
C273 O274 1.160 . S
C273 O280 1.185 . S
O274 C273 1.160 . S
O275 Zn276 1.899 . S
O275 C283 1.284 . S
Zn276 O275 1.899 . S
Zn276 O277 2.032 . S
Zn276 O280 2.086 . S
Zn276 O285 1.977 . S
O277 Zn276 2.032 . S
O277 C281 1.278 . S
C278 O279 1.203 . S
C278 O285 1.267 . S
O279 C278 1.203 . S
O280 C273 1.185 . S
O280 Zn276 2.086 . S
C281 O277 1.278 . S
C281 O282 1.211 . S
O282 C281 1.211 . S
C283 O275 1.284 . S
C283 O284 1.273 . S
O284 C283 1.273 . S
O285 Zn276 1.977 . S
O285 C278 1.267 . S
C286 O287 1.160 . S
C286 O293 1.185 . S
O287 C286 1.160 . S
O288 Zn289 1.899 . S
O288 C296 1.284 . S
Zn289 O288 1.899 . S
Zn289 O290 2.032 . S
Zn289 O293 2.086 . S
Zn289 O298 1.977 . S
O290 Zn289 2.032 . S
O290 C294 1.278 . S
C291 O292 1.203 . S
C291 O298 1.267 . S
O292 C291 1.203 . S
O293 C286 1.185 . S
O293 Zn289 2.086 . S
C294 O290 1.278 . S
C294 O295 1.211 . S
O295 C294 1.211 . S
C296 O288 1.284 . S
C296 O297 1.273 . S
O297 C296 1.273 . S
O298 Zn289 1.977 . S
O298 C291 1.267 . S
C299 O300 1.160 . S
C299 O306 1.185 . S
O300 C299 1.160 . S
O301 Zn302 1.899 . S
O301 C309 1.284 . S
Zn302 O301 1.899 . S
Zn302 O303 2.032 . S
Zn302 O306 2.086 . S
Zn302 O311 1.977 . S
O303 Zn302 2.032 . S
O303 C307 1.278 . S
C304 O305 1.203 . S
C304 O311 1.267 . S
O305 C304 1.203 . S
O306 C299 1.185 . S
O306 Zn302 2.086 . S
C307 O303 1.278 . S
C307 O308 1.211 . S
O308 C307 1.211 . S
C309 O301 1.284 . S
C309 O310 1.273 . S
O310 C309 1.273 . S
O311 Zn302 1.977 . S
O311 C304 1.267 . S
C312 O313 1.160 . S
C312 O319 1.185 . S
O313 C312 1.160 . S
O314 Zn315 1.899 . S
O314 C322 1.284 . S
Zn315 O314 1.899 . S
Zn315 O316 2.032 . S
Zn315 O319 2.086 . S
Zn315 O324 1.977 . S
O316 Zn315 2.032 . S
O316 C320 1.278 . S
C317 O318 1.203 . S
C317 O324 1.267 . S
O318 C317 1.203 . S
O319 C312 1.185 . S
O319 Zn315 2.086 . S
C320 O316 1.278 . S
C320 O321 1.211 . S
O321 C320 1.211 . S
C322 O314 1.284 . S
C322 O323 1.273 . S
O323 C322 1.273 . S
O324 Zn315 1.977 . S
O324 C317 1.267 . S
C325 O326 1.160 . S
C325 O332 1.185 . S
O326 C325 1.160 . S
O327 Zn328 1.899 . S
O327 C335 1.284 . S
Zn328 O327 1.899 . S
Zn328 O329 2.032 . S
Zn328 O332 2.086 . S
Zn328 O337 1.977 . S
O329 Zn328 2.032 . S
O329 C333 1.278 . S
C330 O331 1.203 . S
C330 O337 1.267 . S
O331 C330 1.203 . S
O332 C325 1.185 . S
O332 Zn328 2.086 . S
C333 O329 1.278 . S
C333 O334 1.211 . S
O334 C333 1.211 . S
C335 O327 1.284 . S
C335 O336 1.273 . S
O336 C335 1.273 . S
O337 Zn328 1.977 . S
O337 C330 1.267 . S
C338 O339 1.160 . S
C338 O345 1.185 . S
O339 C338 1.160 . S
O340 Zn341 1.899 . S
O340 C348 1.284 . S
Zn341 O340 1.899 . S
Zn341 O342 2.032 . S
Zn341 O345 2.086 . S
Zn341 O350 1.977 . S
O342 Zn341 2.032 . S
O342 C346 1.278 . S
C343 O344 1.203 . S
C343 O350 1.267 . S
O344 C343 1.203 . S
O345 C338 1.185 . S
O345 Zn341 2.086 . S
C346 O342 1.278 . S
C346 O347 1.211 . S
O347 C346 1.211 . S
C348 O340 1.284 . S
C348 O349 1.273 . S
O349 C348 1.273 . S
O350 Zn341 1.977 . S
O350 C343 1.267 . S
C351 O352 1.160 . S
C351 O358 1.185 . S
O352 C351 1.160 . S
O353 Zn354 1.899 . S
O353 C361 1.284 . S
Zn354 O353 1.899 . S
Zn354 O355 2.032 . S
Zn354 O358 2.086 . S
Zn354 O363 1.977 . S
O355 Zn354 2.032 . S
O355 C359 1.278 . S
C356 O357 1.203 . S
C356 O363 1.267 . S
O357 C356 1.203 . S
O358 C351 1.185 . S
O358 Zn354 2.086 . S
C359 O355 1.278 . S
C359 O360 1.211 . S
O360 C359 1.211 . S
C361 O353 1.284 . S
C361 O362 1.273 . S
O362 C361 1.273 . S
O363 Zn354 1.977 . S
O363 C356 1.267 . S
C364 O365 1.160 . S
C364 O371 1.185 . S
O365 C364 1.160 . S
O366 Zn367 1.899 . S
O366 C374 1.284 . S
Zn367 O366 1.899 . S
Zn367 O368 2.032 . S
Zn367 O371 2.086 . S
Zn367 O376 1.977 . S
O368 Zn367 2.032 . S
O368 C372 1.278 . S
C369 O370 1.203 . S
C369 O376 1.267 . S
O370 C369 1.203 . S
O371 C364 1.185 . S
O371 Zn367 2.086 . S
C372 O368 1.278 . S
C372 O373 1.211 . S
O373 C372 1.211 . S
C374 O366 1.284 . S
C374 O375 1.273 . S
O375 C374 1.273 . S
O376 Zn367 1.977 . S
O376 C369 1.267 . S
C377 O378 1.160 . S
C377 O384 1.185 . S
O378 C377 1.160 . S
O379 Zn380 1.899 . S
O379 C387 1.284 . S
Zn380 O379 1.899 . S
Zn380 O381 2.032 . S
Zn380 O384 2.086 . S
Zn380 O389 1.977 . S
O381 Zn380 2.032 . S
O381 C385 1.278 . S
C382 O383 1.203 . S
C382 O389 1.267 . S
O383 C382 1.203 . S
O384 C377 1.185 . S
O384 Zn380 2.086 . S
C385 O381 1.278 . S
C385 O386 1.211 . S
O386 C385 1.211 . S
C387 O379 1.284 . S
C387 O388 1.273 . S
O388 C387 1.273 . S
O389 Zn380 1.977 . S
O389 C382 1.267 . S
C390 O391 1.160 . S
C390 O397 1.185 . S
O391 C390 1.160 . S
O392 Zn393 1.899 . S
O392 C400 1.284 . S
Zn393 O392 1.899 . S
Zn393 O394 2.032 . S
Zn393 O397 2.086 . S
Zn393 O402 1.977 . S
O394 Zn393 2.032 . S
O394 C398 1.278 . S
C395 O396 1.203 . S
C395 O402 1.267 . S
O396 C395 1.203 . S
O397 C390 1.185 . S
O397 Zn393 2.086 . S
C398 O394 1.278 . S
C398 O399 1.211 . S
O399 C398 1.211 . S
C400 O392 1.284 . S
C400 O401 1.273 . S
O401 C400 1.273 . S
O402 Zn393 1.977 . S
O402 C395 1.267 . S
C403 O404 1.160 . S
C403 O410 1.185 . S
O404 C403 1.160 . S
O405 Zn406 1.899 . S
O405 C413 1.284 . S
Zn406 O405 1.899 . S
Zn406 O407 2.032 . S
Zn406 O410 2.086 . S
Zn406 O415 1.977 . S
O407 Zn406 2.032 . S
O407 C411 1.278 . S
C408 O409 1.203 . S
C408 O415 1.267 . S
O409 C408 1.203 . S
O410 C403 1.185 . S
O410 Zn406 2.086 . S
C411 O407 1.278 . S
C411 O412 1.211 . S
O412 C411 1.211 . S
C413 O405 1.284 . S
C413 O414 1.273 . S
O414 C413 1.273 . S
O415 Zn406 1.977 . S
O415 C408 1.267 . S
H416 C434 0.951 . S
H417 C436 0.951 . S
H418 C438 0.950 . S
H419 C439 0.950 . S
H420 C441 0.950 . S
H421 C444 0.950 . S
H422 C445 0.950 . S
H423 C447 0.950 . S
H424 C448 0.950 . S
H425 C449 0.951 . S
H426 C451 0.951 . S
H427 C453 0.950 . S
H428 C454 0.950 . S
H429 C456 0.950 . S
H430 C459 0.950 . S
H431 C460 0.950 . S
H432 C462 0.950 . S
H433 C463 0.950 . S
C434 H416 0.951 . S
C434 C435 1.366 . S
C434 C436 1.388 . S
C435 C434 1.366 . S
C435 C439 1.385 . S
C436 H417 0.951 . S
C436 C434 1.388 . S
C436 C437 1.366 . S
C437 C436 1.366 . S
C437 C438 1.414 . S
C437 C440 1.499 . S
C438 H418 0.950 . S
C438 C437 1.414 . S
C438 C439 1.374 . S
C439 H419 0.950 . S
C439 C435 1.385 . S
C439 C438 1.374 . S
C440 C437 1.499 . S
C440 C441 1.373 . S
C440 C442 1.389 . S
C441 H420 0.950 . S
C441 C440 1.373 . S
C441 C457 1.377 . S
C442 C440 1.389 . S
C442 C443 1.524 . S
C442 C456 1.377 . S
C443 C442 1.524 . S
C443 C444 1.397 . S
C443 C448 1.363 . S
C444 H421 0.950 . S
C444 C443 1.397 . S
C444 C445 1.334 . S
C445 H422 0.950 . S
C445 C444 1.334 . S
C445 C446 1.287 . S
C446 C445 1.287 . S
C446 C447 1.524 . S
C446 H465 0.913 . S
C447 H423 0.950 . S
C447 C446 1.524 . S
C447 C448 1.415 . S
C448 H424 0.950 . S
C448 C443 1.363 . S
C448 C447 1.415 . S
C449 H425 0.951 . S
C449 C450 1.366 . S
C449 C451 1.388 . S
C450 C449 1.366 . S
C450 C454 1.385 . S
C451 H426 0.951 . S
C451 C449 1.388 . S
C451 C452 1.366 . S
C452 C451 1.366 . S
C452 C453 1.414 . S
C452 C455 1.499 . S
C453 H427 0.950 . S
C453 C452 1.414 . S
C453 C454 1.374 . S
C454 H428 0.950 . S
C454 C450 1.385 . S
C454 C453 1.374 . S
C455 C452 1.499 . S
C455 C456 1.373 . S
C455 C457 1.389 . S
C456 H429 0.950 . S
C456 C442 1.377 . S
C456 C455 1.373 . S
C457 C441 1.377 . S
C457 C455 1.389 . S
C457 C458 1.524 . S
C458 C457 1.524 . S
C458 C459 1.397 . S
C458 C463 1.363 . S
C459 H430 0.950 . S
C459 C458 1.397 . S
C459 C460 1.334 . S
C460 H431 0.950 . S
C460 C459 1.334 . S
C460 C461 1.287 . S
C461 C460 1.287 . S
C461 C462 1.524 . S
C461 H464 0.999 . S
C462 H432 0.950 . S
C462 C461 1.524 . S
C462 C463 1.415 . S
C463 H433 0.950 . S
C463 C458 1.363 . S
C463 C462 1.415 . S
H464 C461 0.999 . S
H465 C446 0.913 . S
H466 C484 0.951 . S
H467 C486 0.951 . S
H468 C488 0.950 . S
H469 C489 0.950 . S
H470 C491 0.950 . S
H471 C494 0.950 . S
H472 C495 0.950 . S
H473 C497 0.950 . S
H474 C498 0.950 . S
H475 C499 0.951 . S
H476 C501 0.951 . S
H477 C503 0.950 . S
H478 C504 0.950 . S
H479 C506 0.950 . S
H480 C509 0.950 . S
H481 C510 0.950 . S
H482 C512 0.950 . S
H483 C513 0.950 . S
C484 H466 0.951 . S
C484 C485 1.366 . S
C484 C486 1.388 . S
C485 C484 1.366 . S
C485 C489 1.385 . S
C486 H467 0.951 . S
C486 C484 1.388 . S
C486 C487 1.366 . S
C487 C486 1.366 . S
C487 C488 1.414 . S
C487 C490 1.499 . S
C488 H468 0.950 . S
C488 C487 1.414 . S
C488 C489 1.374 . S
C489 H469 0.950 . S
C489 C485 1.385 . S
C489 C488 1.374 . S
C490 C487 1.499 . S
C490 C491 1.373 . S
C490 C492 1.389 . S
C491 H470 0.950 . S
C491 C490 1.373 . S
C491 C507 1.377 . S
C492 C490 1.389 . S
C492 C493 1.524 . S
C492 C506 1.377 . S
C493 C492 1.524 . S
C493 C494 1.397 . S
C493 C498 1.363 . S
C494 H471 0.950 . S
C494 C493 1.397 . S
C494 C495 1.334 . S
C495 H472 0.950 . S
C495 C494 1.334 . S
C495 C496 1.287 . S
C496 C495 1.287 . S
C496 C497 1.524 . S
C496 H515 0.913 . S
C497 H473 0.950 . S
C497 C496 1.524 . S
C497 C498 1.415 . S
C498 H474 0.950 . S
C498 C493 1.363 . S
C498 C497 1.415 . S
C499 H475 0.951 . S
C499 C500 1.366 . S
C499 C501 1.388 . S
C500 C499 1.366 . S
C500 C504 1.385 . S
C501 H476 0.951 . S
C501 C499 1.388 . S
C501 C502 1.366 . S
C502 C501 1.366 . S
C502 C503 1.414 . S
C502 C505 1.499 . S
C503 H477 0.950 . S
C503 C502 1.414 . S
C503 C504 1.374 . S
C504 H478 0.950 . S
C504 C500 1.385 . S
C504 C503 1.374 . S
C505 C502 1.499 . S
C505 C506 1.373 . S
C505 C507 1.389 . S
C506 H479 0.950 . S
C506 C492 1.377 . S
C506 C505 1.373 . S
C507 C491 1.377 . S
C507 C505 1.389 . S
C507 C508 1.524 . S
C508 C507 1.524 . S
C508 C509 1.397 . S
C508 C513 1.363 . S
C509 H480 0.950 . S
C509 C508 1.397 . S
C509 C510 1.334 . S
C510 H481 0.950 . S
C510 C509 1.334 . S
C510 C511 1.287 . S
C511 C510 1.287 . S
C511 C512 1.524 . S
C511 H514 0.999 . S
C512 H482 0.950 . S
C512 C511 1.524 . S
C512 C513 1.415 . S
C513 H483 0.950 . S
C513 C508 1.363 . S
C513 C512 1.415 . S
H514 C511 0.999 . S
H515 C496 0.913 . S
H516 C534 0.951 . S
H517 C536 0.951 . S
H518 C538 0.950 . S
H519 C539 0.950 . S
H520 C541 0.950 . S
H521 C544 0.950 . S
H522 C545 0.950 . S
H523 C547 0.950 . S
H524 C548 0.950 . S
H525 C549 0.951 . S
H526 C551 0.951 . S
H527 C553 0.950 . S
H528 C554 0.950 . S
H529 C556 0.950 . S
H530 C559 0.950 . S
H531 C560 0.950 . S
H532 C562 0.950 . S
H533 C563 0.950 . S
C534 H516 0.951 . S
C534 C535 1.366 . S
C534 C536 1.388 . S
C535 C534 1.366 . S
C535 C539 1.385 . S
C536 H517 0.951 . S
C536 C534 1.388 . S
C536 C537 1.366 . S
C537 C536 1.366 . S
C537 C538 1.414 . S
C537 C540 1.499 . S
C538 H518 0.950 . S
C538 C537 1.414 . S
C538 C539 1.374 . S
C539 H519 0.950 . S
C539 C535 1.385 . S
C539 C538 1.374 . S
C540 C537 1.499 . S
C540 C541 1.373 . S
C540 C542 1.389 . S
C541 H520 0.950 . S
C541 C540 1.373 . S
C541 C557 1.377 . S
C542 C540 1.389 . S
C542 C543 1.524 . S
C542 C556 1.377 . S
C543 C542 1.524 . S
C543 C544 1.397 . S
C543 C548 1.363 . S
C544 H521 0.950 . S
C544 C543 1.397 . S
C544 C545 1.334 . S
C545 H522 0.950 . S
C545 C544 1.334 . S
C545 C546 1.287 . S
C546 C545 1.287 . S
C546 C547 1.524 . S
C546 H565 0.913 . S
C547 H523 0.950 . S
C547 C546 1.524 . S
C547 C548 1.415 . S
C548 H524 0.950 . S
C548 C543 1.363 . S
C548 C547 1.415 . S
C549 H525 0.951 . S
C549 C550 1.366 . S
C549 C551 1.388 . S
C550 C549 1.366 . S
C550 C554 1.385 . S
C551 H526 0.951 . S
C551 C549 1.388 . S
C551 C552 1.366 . S
C552 C551 1.366 . S
C552 C553 1.414 . S
C552 C555 1.499 . S
C553 H527 0.950 . S
C553 C552 1.414 . S
C553 C554 1.374 . S
C554 H528 0.950 . S
C554 C550 1.385 . S
C554 C553 1.374 . S
C555 C552 1.499 . S
C555 C556 1.373 . S
C555 C557 1.389 . S
C556 H529 0.950 . S
C556 C542 1.377 . S
C556 C555 1.373 . S
C557 C541 1.377 . S
C557 C555 1.389 . S
C557 C558 1.524 . S
C558 C557 1.524 . S
C558 C559 1.397 . S
C558 C563 1.363 . S
C559 H530 0.950 . S
C559 C558 1.397 . S
C559 C560 1.334 . S
C560 H531 0.950 . S
C560 C559 1.334 . S
C560 C561 1.287 . S
C561 C560 1.287 . S
C561 C562 1.524 . S
C561 H564 0.999 . S
C562 H532 0.950 . S
C562 C561 1.524 . S
C562 C563 1.415 . S
C563 H533 0.950 . S
C563 C558 1.363 . S
C563 C562 1.415 . S
H564 C561 0.999 . S
H565 C546 0.913 . S
H566 C584 0.951 . S
H567 C586 0.951 . S
H568 C588 0.950 . S
H569 C589 0.950 . S
H570 C591 0.950 . S
H571 C594 0.950 . S
H572 C595 0.950 . S
H573 C597 0.950 . S
H574 C598 0.950 . S
H575 C599 0.951 . S
H576 C601 0.951 . S
H577 C603 0.950 . S
H578 C604 0.950 . S
H579 C606 0.950 . S
H580 C609 0.950 . S
H581 C610 0.950 . S
H582 C612 0.950 . S
H583 C613 0.950 . S
C584 H566 0.951 . S
C584 C585 1.366 . S
C584 C586 1.388 . S
C585 C584 1.366 . S
C585 C589 1.385 . S
C586 H567 0.951 . S
C586 C584 1.388 . S
C586 C587 1.366 . S
C587 C586 1.366 . S
C587 C588 1.414 . S
C587 C590 1.499 . S
C588 H568 0.950 . S
C588 C587 1.414 . S
C588 C589 1.374 . S
C589 H569 0.950 . S
C589 C585 1.385 . S
C589 C588 1.374 . S
C590 C587 1.499 . S
C590 C591 1.373 . S
C590 C592 1.389 . S
C591 H570 0.950 . S
C591 C590 1.373 . S
C591 C607 1.377 . S
C592 C590 1.389 . S
C592 C593 1.524 . S
C592 C606 1.377 . S
C593 C592 1.524 . S
C593 C594 1.397 . S
C593 C598 1.363 . S
C594 H571 0.950 . S
C594 C593 1.397 . S
C594 C595 1.334 . S
C595 H572 0.950 . S
C595 C594 1.334 . S
C595 C596 1.287 . S
C596 C595 1.287 . S
C596 C597 1.524 . S
C596 H615 0.913 . S
C597 H573 0.950 . S
C597 C596 1.524 . S
C597 C598 1.415 . S
C598 H574 0.950 . S
C598 C593 1.363 . S
C598 C597 1.415 . S
C599 H575 0.951 . S
C599 C600 1.366 . S
C599 C601 1.388 . S
C600 C599 1.366 . S
C600 C604 1.385 . S
C601 H576 0.951 . S
C601 C599 1.388 . S
C601 C602 1.366 . S
C602 C601 1.366 . S
C602 C603 1.414 . S
C602 C605 1.499 . S
C603 H577 0.950 . S
C603 C602 1.414 . S
C603 C604 1.374 . S
C604 H578 0.950 . S
C604 C600 1.385 . S
C604 C603 1.374 . S
C605 C602 1.499 . S
C605 C606 1.373 . S
C605 C607 1.389 . S
C606 H579 0.950 . S
C606 C592 1.377 . S
C606 C605 1.373 . S
C607 C591 1.377 . S
C607 C605 1.389 . S
C607 C608 1.524 . S
C608 C607 1.524 . S
C608 C609 1.397 . S
C608 C613 1.363 . S
C609 H580 0.950 . S
C609 C608 1.397 . S
C609 C610 1.334 . S
C610 H581 0.950 . S
C610 C609 1.334 . S
C610 C611 1.287 . S
C611 C610 1.287 . S
C611 C612 1.524 . S
C611 H614 0.999 . S
C612 H582 0.950 . S
C612 C611 1.524 . S
C612 C613 1.415 . S
C613 H583 0.950 . S
C613 C608 1.363 . S
C613 C612 1.415 . S
H614 C611 0.999 . S
H615 C596 0.913 . S
H616 C634 0.951 . S
H617 C636 0.951 . S
H618 C638 0.950 . S
H619 C639 0.950 . S
H620 C641 0.950 . S
H621 C644 0.950 . S
H622 C645 0.950 . S
H623 C647 0.950 . S
H624 C648 0.950 . S
H625 C649 0.951 . S
H626 C651 0.951 . S
H627 C653 0.950 . S
H628 C654 0.950 . S
H629 C656 0.950 . S
H630 C659 0.950 . S
H631 C660 0.950 . S
H632 C662 0.950 . S
H633 C663 0.950 . S
C634 H616 0.951 . S
C634 C635 1.366 . S
C634 C636 1.388 . S
C635 C634 1.366 . S
C635 C639 1.385 . S
C636 H617 0.951 . S
C636 C634 1.388 . S
C636 C637 1.366 . S
C637 C636 1.366 . S
C637 C638 1.414 . S
C637 C640 1.499 . S
C638 H618 0.950 . S
C638 C637 1.414 . S
C638 C639 1.374 . S
C639 H619 0.950 . S
C639 C635 1.385 . S
C639 C638 1.374 . S
C640 C637 1.499 . S
C640 C641 1.373 . S
C640 C642 1.389 . S
C641 H620 0.950 . S
C641 C640 1.373 . S
C641 C657 1.377 . S
C642 C640 1.389 . S
C642 C643 1.524 . S
C642 C656 1.377 . S
C643 C642 1.524 . S
C643 C644 1.397 . S
C643 C648 1.363 . S
C644 H621 0.950 . S
C644 C643 1.397 . S
C644 C645 1.334 . S
C645 H622 0.950 . S
C645 C644 1.334 . S
C645 C646 1.287 . S
C646 C645 1.287 . S
C646 C647 1.524 . S
C646 H665 0.913 . S
C647 H623 0.950 . S
C647 C646 1.524 . S
C647 C648 1.415 . S
C648 H624 0.950 . S
C648 C643 1.363 . S
C648 C647 1.415 . S
C649 H625 0.951 . S
C649 C650 1.366 . S
C649 C651 1.388 . S
C650 C649 1.366 . S
C650 C654 1.385 . S
C651 H626 0.951 . S
C651 C649 1.388 . S
C651 C652 1.366 . S
C652 C651 1.366 . S
C652 C653 1.414 . S
C652 C655 1.499 . S
C653 H627 0.950 . S
C653 C652 1.414 . S
C653 C654 1.374 . S
C654 H628 0.950 . S
C654 C650 1.385 . S
C654 C653 1.374 . S
C655 C652 1.499 . S
C655 C656 1.373 . S
C655 C657 1.389 . S
C656 H629 0.950 . S
C656 C642 1.377 . S
C656 C655 1.373 . S
C657 C641 1.377 . S
C657 C655 1.389 . S
C657 C658 1.524 . S
C658 C657 1.524 . S
C658 C659 1.397 . S
C658 C663 1.363 . S
C659 H630 0.950 . S
C659 C658 1.397 . S
C659 C660 1.334 . S
C660 H631 0.950 . S
C660 C659 1.334 . S
C660 C661 1.287 . S
C661 C660 1.287 . S
C661 C662 1.524 . S
C661 H664 0.999 . S
C662 H632 0.950 . S
C662 C661 1.524 . S
C662 C663 1.415 . S
C663 H633 0.950 . S
C663 C658 1.363 . S
C663 C662 1.415 . S
H664 C661 0.999 . S
H665 C646 0.913 . S
H666 C684 0.951 . S
H667 C686 0.951 . S
H668 C688 0.950 . S
H669 C689 0.950 . S
H670 C691 0.950 . S
H671 C694 0.950 . S
H672 C695 0.950 . S
H673 C697 0.950 . S
H674 C698 0.950 . S
H675 C699 0.951 . S
H676 C701 0.951 . S
H677 C703 0.950 . S
H678 C704 0.950 . S
H679 C706 0.950 . S
H680 C709 0.950 . S
H681 C710 0.950 . S
H682 C712 0.950 . S
H683 C713 0.950 . S
C684 H666 0.951 . S
C684 C685 1.366 . S
C684 C686 1.388 . S
C685 C684 1.366 . S
C685 C689 1.385 . S
C686 H667 0.951 . S
C686 C684 1.388 . S
C686 C687 1.366 . S
C687 C686 1.366 . S
C687 C688 1.414 . S
C687 C690 1.499 . S
C688 H668 0.950 . S
C688 C687 1.414 . S
C688 C689 1.374 . S
C689 H669 0.950 . S
C689 C685 1.385 . S
C689 C688 1.374 . S
C690 C687 1.499 . S
C690 C691 1.373 . S
C690 C692 1.389 . S
C691 H670 0.950 . S
C691 C690 1.373 . S
C691 C707 1.377 . S
C692 C690 1.389 . S
C692 C693 1.524 . S
C692 C706 1.377 . S
C693 C692 1.524 . S
C693 C694 1.397 . S
C693 C698 1.363 . S
C694 H671 0.950 . S
C694 C693 1.397 . S
C694 C695 1.334 . S
C695 H672 0.950 . S
C695 C694 1.334 . S
C695 C696 1.287 . S
C696 C695 1.287 . S
C696 C697 1.524 . S
C696 H715 0.913 . S
C697 H673 0.950 . S
C697 C696 1.524 . S
C697 C698 1.415 . S
C698 H674 0.950 . S
C698 C693 1.363 . S
C698 C697 1.415 . S
C699 H675 0.951 . S
C699 C700 1.366 . S
C699 C701 1.388 . S
C700 C699 1.366 . S
C700 C704 1.385 . S
C701 H676 0.951 . S
C701 C699 1.388 . S
C701 C702 1.366 . S
C702 C701 1.366 . S
C702 C703 1.414 . S
C702 C705 1.499 . S
C703 H677 0.950 . S
C703 C702 1.414 . S
C703 C704 1.374 . S
C704 H678 0.950 . S
C704 C700 1.385 . S
C704 C703 1.374 . S
C705 C702 1.499 . S
C705 C706 1.373 . S
C705 C707 1.389 . S
C706 H679 0.950 . S
C706 C692 1.377 . S
C706 C705 1.373 . S
C707 C691 1.377 . S
C707 C705 1.389 . S
C707 C708 1.524 . S
C708 C707 1.524 . S
C708 C709 1.397 . S
C708 C713 1.363 . S
C709 H680 0.950 . S
C709 C708 1.397 . S
C709 C710 1.334 . S
C710 H681 0.950 . S
C710 C709 1.334 . S
C710 C711 1.287 . S
C711 C710 1.287 . S
C711 C712 1.524 . S
C711 H714 0.999 . S
C712 H682 0.950 . S
C712 C711 1.524 . S
C712 C713 1.415 . S
C713 H683 0.950 . S
C713 C708 1.363 . S
C713 C712 1.415 . S
H714 C711 0.999 . S
H715 C696 0.913 . S
H716 C734 0.951 . S
H717 C736 0.951 . S
H718 C738 0.950 . S
H719 C739 0.950 . S
H720 C741 0.950 . S
H721 C744 0.950 . S
H722 C745 0.950 . S
H723 C747 0.950 . S
H724 C748 0.950 . S
H725 C749 0.951 . S
H726 C751 0.951 . S
H727 C753 0.950 . S
H728 C754 0.950 . S
H729 C756 0.950 . S
H730 C759 0.950 . S
H731 C760 0.950 . S
H732 C762 0.950 . S
H733 C763 0.950 . S
C734 H716 0.951 . S
C734 C735 1.366 . S
C734 C736 1.388 . S
C735 C734 1.366 . S
C735 C739 1.385 . S
C736 H717 0.951 . S
C736 C734 1.388 . S
C736 C737 1.366 . S
C737 C736 1.366 . S
C737 C738 1.414 . S
C737 C740 1.499 . S
C738 H718 0.950 . S
C738 C737 1.414 . S
C738 C739 1.374 . S
C739 H719 0.950 . S
C739 C735 1.385 . S
C739 C738 1.374 . S
C740 C737 1.499 . S
C740 C741 1.373 . S
C740 C742 1.389 . S
C741 H720 0.950 . S
C741 C740 1.373 . S
C741 C757 1.377 . S
C742 C740 1.389 . S
C742 C743 1.524 . S
C742 C756 1.377 . S
C743 C742 1.524 . S
C743 C744 1.397 . S
C743 C748 1.363 . S
C744 H721 0.950 . S
C744 C743 1.397 . S
C744 C745 1.334 . S
C745 H722 0.950 . S
C745 C744 1.334 . S
C745 C746 1.287 . S
C746 C745 1.287 . S
C746 C747 1.524 . S
C746 H765 0.913 . S
C747 H723 0.950 . S
C747 C746 1.524 . S
C747 C748 1.415 . S
C748 H724 0.950 . S
C748 C743 1.363 . S
C748 C747 1.415 . S
C749 H725 0.951 . S
C749 C750 1.366 . S
C749 C751 1.388 . S
C750 C749 1.366 . S
C750 C754 1.385 . S
C751 H726 0.951 . S
C751 C749 1.388 . S
C751 C752 1.366 . S
C752 C751 1.366 . S
C752 C753 1.414 . S
C752 C755 1.499 . S
C753 H727 0.950 . S
C753 C752 1.414 . S
C753 C754 1.374 . S
C754 H728 0.950 . S
C754 C750 1.385 . S
C754 C753 1.374 . S
C755 C752 1.499 . S
C755 C756 1.373 . S
C755 C757 1.389 . S
C756 H729 0.950 . S
C756 C742 1.377 . S
C756 C755 1.373 . S
C757 C741 1.377 . S
C757 C755 1.389 . S
C757 C758 1.524 . S
C758 C757 1.524 . S
C758 C759 1.397 . S
C758 C763 1.363 . S
C759 H730 0.950 . S
C759 C758 1.397 . S
C759 C760 1.334 . S
C760 H731 0.950 . S
C760 C759 1.334 . S
C760 C761 1.287 . S
C761 C760 1.287 . S
C761 C762 1.524 . S
C761 H764 0.999 . S
C762 H732 0.950 . S
C762 C761 1.524 . S
C762 C763 1.415 . S
C763 H733 0.950 . S
C763 C758 1.363 . S
C763 C762 1.415 . S
H764 C761 0.999 . S
H765 C746 0.913 . S
H766 C784 0.951 . S
H767 C786 0.951 . S
H768 C788 0.950 . S
H769 C789 0.950 . S
H770 C791 0.950 . S
H771 C794 0.950 . S
H772 C795 0.950 . S
H773 C797 0.950 . S
H774 C798 0.950 . S
H775 C799 0.951 . S
H776 C801 0.951 . S
H777 C803 0.950 . S
H778 C804 0.950 . S
H779 C806 0.950 . S
H780 C809 0.950 . S
H781 C810 0.950 . S
H782 C812 0.950 . S
H783 C813 0.950 . S
C784 H766 0.951 . S
C784 C785 1.366 . S
C784 C786 1.388 . S
C785 C784 1.366 . S
C785 C789 1.385 . S
C786 H767 0.951 . S
C786 C784 1.388 . S
C786 C787 1.366 . S
C787 C786 1.366 . S
C787 C788 1.414 . S
C787 C790 1.499 . S
C788 H768 0.950 . S
C788 C787 1.414 . S
C788 C789 1.374 . S
C789 H769 0.950 . S
C789 C785 1.385 . S
C789 C788 1.374 . S
C790 C787 1.499 . S
C790 C791 1.373 . S
C790 C792 1.389 . S
C791 H770 0.950 . S
C791 C790 1.373 . S
C791 C807 1.377 . S
C792 C790 1.389 . S
C792 C793 1.524 . S
C792 C806 1.377 . S
C793 C792 1.524 . S
C793 C794 1.397 . S
C793 C798 1.363 . S
C794 H771 0.950 . S
C794 C793 1.397 . S
C794 C795 1.334 . S
C795 H772 0.950 . S
C795 C794 1.334 . S
C795 C796 1.287 . S
C796 C795 1.287 . S
C796 C797 1.524 . S
C796 H815 0.913 . S
C797 H773 0.950 . S
C797 C796 1.524 . S
C797 C798 1.415 . S
C798 H774 0.950 . S
C798 C793 1.363 . S
C798 C797 1.415 . S
C799 H775 0.951 . S
C799 C800 1.366 . S
C799 C801 1.388 . S
C800 C799 1.366 . S
C800 C804 1.385 . S
C801 H776 0.951 . S
C801 C799 1.388 . S
C801 C802 1.366 . S
C802 C801 1.366 . S
C802 C803 1.414 . S
C802 C805 1.499 . S
C803 H777 0.950 . S
C803 C802 1.414 . S
C803 C804 1.374 . S
C804 H778 0.950 . S
C804 C800 1.385 . S
C804 C803 1.374 . S
C805 C802 1.499 . S
C805 C806 1.373 . S
C805 C807 1.389 . S
C806 H779 0.950 . S
C806 C792 1.377 . S
C806 C805 1.373 . S
C807 C791 1.377 . S
C807 C805 1.389 . S
C807 C808 1.524 . S
C808 C807 1.524 . S
C808 C809 1.397 . S
C808 C813 1.363 . S
C809 H780 0.950 . S
C809 C808 1.397 . S
C809 C810 1.334 . S
C810 H781 0.950 . S
C810 C809 1.334 . S
C810 C811 1.287 . S
C811 C810 1.287 . S
C811 C812 1.524 . S
C811 H814 0.999 . S
C812 H782 0.950 . S
C812 C811 1.524 . S
C812 C813 1.415 . S
C813 H783 0.950 . S
C813 C808 1.363 . S
C813 C812 1.415 . S
H814 C811 0.999 . S
H815 C796 0.913 . S
H816 C834 0.951 . S
H817 C836 0.951 . S
H818 C838 0.950 . S
H819 C839 0.950 . S
H820 C841 0.950 . S
H821 C844 0.950 . S
H822 C845 0.950 . S
H823 C847 0.950 . S
H824 C848 0.950 . S
H825 C849 0.951 . S
H826 C851 0.951 . S
H827 C853 0.950 . S
H828 C854 0.950 . S
H829 C856 0.950 . S
H830 C859 0.950 . S
H831 C860 0.950 . S
H832 C862 0.950 . S
H833 C863 0.950 . S
C834 H816 0.951 . S
C834 C835 1.366 . S
C834 C836 1.388 . S
C835 C834 1.366 . S
C835 C839 1.385 . S
C836 H817 0.951 . S
C836 C834 1.388 . S
C836 C837 1.366 . S
C837 C836 1.366 . S
C837 C838 1.414 . S
C837 C840 1.499 . S
C838 H818 0.950 . S
C838 C837 1.414 . S
C838 C839 1.374 . S
C839 H819 0.950 . S
C839 C835 1.385 . S
C839 C838 1.374 . S
C840 C837 1.499 . S
C840 C841 1.373 . S
C840 C842 1.389 . S
C841 H820 0.950 . S
C841 C840 1.373 . S
C841 C857 1.377 . S
C842 C840 1.389 . S
C842 C843 1.524 . S
C842 C856 1.377 . S
C843 C842 1.524 . S
C843 C844 1.397 . S
C843 C848 1.363 . S
C844 H821 0.950 . S
C844 C843 1.397 . S
C844 C845 1.334 . S
C845 H822 0.950 . S
C845 C844 1.334 . S
C845 C846 1.287 . S
C846 C845 1.287 . S
C846 C847 1.524 . S
C846 H865 0.913 . S
C847 H823 0.950 . S
C847 C846 1.524 . S
C847 C848 1.415 . S
C848 H824 0.950 . S
C848 C843 1.363 . S
C848 C847 1.415 . S
C849 H825 0.951 . S
C849 C850 1.366 . S
C849 C851 1.388 . S
C850 C849 1.366 . S
C850 C854 1.385 . S
C851 H826 0.951 . S
C851 C849 1.388 . S
C851 C852 1.366 . S
C852 C851 1.366 . S
C852 C853 1.414 . S
C852 C855 1.499 . S
C853 H827 0.950 . S
C853 C852 1.414 . S
C853 C854 1.374 . S
C854 H828 0.950 . S
C854 C850 1.385 . S
C854 C853 1.374 . S
C855 C852 1.499 . S
C855 C856 1.373 . S
C855 C857 1.389 . S
C856 H829 0.950 . S
C856 C842 1.377 . S
C856 C855 1.373 . S
C857 C841 1.377 . S
C857 C855 1.389 . S
C857 C858 1.524 . S
C858 C857 1.524 . S
C858 C859 1.397 . S
C858 C863 1.363 . S
C859 H830 0.950 . S
C859 C858 1.397 . S
C859 C860 1.334 . S
C860 H831 0.950 . S
C860 C859 1.334 . S
C860 C861 1.287 . S
C861 C860 1.287 . S
C861 C862 1.524 . S
C861 H864 0.999 . S
C862 H832 0.950 . S
C862 C861 1.524 . S
C862 C863 1.415 . S
C863 H833 0.950 . S
C863 C858 1.363 . S
C863 C862 1.415 . S
H864 C861 0.999 . S
H865 C846 0.913 . S
H866 C884 0.951 . S
H867 C886 0.951 . S
H868 C888 0.950 . S
H869 C889 0.950 . S
H870 C891 0.950 . S
H871 C894 0.950 . S
H872 C895 0.950 . S
H873 C897 0.950 . S
H874 C898 0.950 . S
H875 C899 0.951 . S
H876 C901 0.951 . S
H877 C903 0.950 . S
H878 C904 0.950 . S
H879 C906 0.950 . S
H880 C909 0.950 . S
H881 C910 0.950 . S
H882 C912 0.950 . S
H883 C913 0.950 . S
C884 H866 0.951 . S
C884 C885 1.366 . S
C884 C886 1.388 . S
C885 C884 1.366 . S
C885 C889 1.385 . S
C886 H867 0.951 . S
C886 C884 1.388 . S
C886 C887 1.366 . S
C887 C886 1.366 . S
C887 C888 1.414 . S
C887 C890 1.499 . S
C888 H868 0.950 . S
C888 C887 1.414 . S
C888 C889 1.374 . S
C889 H869 0.950 . S
C889 C885 1.385 . S
C889 C888 1.374 . S
C890 C887 1.499 . S
C890 C891 1.373 . S
C890 C892 1.389 . S
C891 H870 0.950 . S
C891 C890 1.373 . S
C891 C907 1.377 . S
C892 C890 1.389 . S
C892 C893 1.524 . S
C892 C906 1.377 . S
C893 C892 1.524 . S
C893 C894 1.397 . S
C893 C898 1.363 . S
C894 H871 0.950 . S
C894 C893 1.397 . S
C894 C895 1.334 . S
C895 H872 0.950 . S
C895 C894 1.334 . S
C895 C896 1.287 . S
C896 C895 1.287 . S
C896 C897 1.524 . S
C896 H915 0.913 . S
C897 H873 0.950 . S
C897 C896 1.524 . S
C897 C898 1.415 . S
C898 H874 0.950 . S
C898 C893 1.363 . S
C898 C897 1.415 . S
C899 H875 0.951 . S
C899 C900 1.366 . S
C899 C901 1.388 . S
C900 C899 1.366 . S
C900 C904 1.385 . S
C901 H876 0.951 . S
C901 C899 1.388 . S
C901 C902 1.366 . S
C902 C901 1.366 . S
C902 C903 1.414 . S
C902 C905 1.499 . S
C903 H877 0.950 . S
C903 C902 1.414 . S
C903 C904 1.374 . S
C904 H878 0.950 . S
C904 C900 1.385 . S
C904 C903 1.374 . S
C905 C902 1.499 . S
C905 C906 1.373 . S
C905 C907 1.389 . S
C906 H879 0.950 . S
C906 C892 1.377 . S
C906 C905 1.373 . S
C907 C891 1.377 . S
C907 C905 1.389 . S
C907 C908 1.524 . S
C908 C907 1.524 . S
C908 C909 1.397 . S
C908 C913 1.363 . S
C909 H880 0.950 . S
C909 C908 1.397 . S
C909 C910 1.334 . S
C910 H881 0.950 . S
C910 C909 1.334 . S
C910 C911 1.287 . S
C911 C910 1.287 . S
C911 C912 1.524 . S
C911 H914 0.999 . S
C912 H882 0.950 . S
C912 C911 1.524 . S
C912 C913 1.415 . S
C913 H883 0.950 . S
C913 C908 1.363 . S
C913 C912 1.415 . S
H914 C911 0.999 . S
H915 C896 0.913 . S
H916 C934 0.951 . S
H917 C936 0.951 . S
H918 C938 0.950 . S
H919 C939 0.950 . S
H920 C941 0.950 . S
H921 C944 0.950 . S
H922 C945 0.950 . S
H923 C947 0.950 . S
H924 C948 0.950 . S
H925 C949 0.951 . S
H926 C951 0.951 . S
H927 C953 0.950 . S
H928 C954 0.950 . S
H929 C956 0.950 . S
H930 C959 0.950 . S
H931 C960 0.950 . S
H932 C962 0.950 . S
H933 C963 0.950 . S
C934 H916 0.951 . S
C934 C935 1.366 . S
C934 C936 1.388 . S
C935 C934 1.366 . S
C935 C939 1.385 . S
C936 H917 0.951 . S
C936 C934 1.388 . S
C936 C937 1.366 . S
C937 C936 1.366 . S
C937 C938 1.414 . S
C937 C940 1.499 . S
C938 H918 0.950 . S
C938 C937 1.414 . S
C938 C939 1.374 . S
C939 H919 0.950 . S
C939 C935 1.385 . S
C939 C938 1.374 . S
C940 C937 1.499 . S
C940 C941 1.373 . S
C940 C942 1.389 . S
C941 H920 0.950 . S
C941 C940 1.373 . S
C941 C957 1.377 . S
C942 C940 1.389 . S
C942 C943 1.524 . S
C942 C956 1.377 . S
C943 C942 1.524 . S
C943 C944 1.397 . S
C943 C948 1.363 . S
C944 H921 0.950 . S
C944 C943 1.397 . S
C944 C945 1.334 . S
C945 H922 0.950 . S
C945 C944 1.334 . S
C945 C946 1.287 . S
C946 C945 1.287 . S
C946 C947 1.524 . S
C946 H965 0.913 . S
C947 H923 0.950 . S
C947 C946 1.524 . S
C947 C948 1.415 . S
C948 H924 0.950 . S
C948 C943 1.363 . S
C948 C947 1.415 . S
C949 H925 0.951 . S
C949 C950 1.366 . S
C949 C951 1.388 . S
C950 C949 1.366 . S
C950 C954 1.385 . S
C951 H926 0.951 . S
C951 C949 1.388 . S
C951 C952 1.366 . S
C952 C951 1.366 . S
C952 C953 1.414 . S
C952 C955 1.499 . S
C953 H927 0.950 . S
C953 C952 1.414 . S
C953 C954 1.374 . S
C954 H928 0.950 . S
C954 C950 1.385 . S
C954 C953 1.374 . S
C955 C952 1.499 . S
C955 C956 1.373 . S
C955 C957 1.389 . S
C956 H929 0.950 . S
C956 C942 1.377 . S
C956 C955 1.373 . S
C957 C941 1.377 . S
C957 C955 1.389 . S
C957 C958 1.524 . S
C958 C957 1.524 . S
C958 C959 1.397 . S
C958 C963 1.363 . S
C959 H930 0.950 . S
C959 C958 1.397 . S
C959 C960 1.334 . S
C960 H931 0.950 . S
C960 C959 1.334 . S
C960 C961 1.287 . S
C961 C960 1.287 . S
C961 C962 1.524 . S
C961 H964 0.999 . S
C962 H932 0.950 . S
C962 C961 1.524 . S
C962 C963 1.415 . S
C963 H933 0.950 . S
C963 C958 1.363 . S
C963 C962 1.415 . S
H964 C961 0.999 . S
H965 C946 0.913 . S
H966 C984 0.951 . S
H967 C986 0.951 . S
H968 C988 0.950 . S
H969 C989 0.950 . S
H970 C991 0.950 . S
H971 C994 0.950 . S
H972 C995 0.950 . S
H973 C997 0.950 . S
H974 C998 0.950 . S
H975 C999 0.951 . S
H976 C1001 0.951 . S
H977 C1003 0.950 . S
H978 C1004 0.950 . S
H979 C1006 0.950 . S
H980 C1009 0.950 . S
H981 C1010 0.950 . S
H982 C1012 0.950 . S
H983 C1013 0.950 . S
C984 H966 0.951 . S
C984 C985 1.366 . S
C984 C986 1.388 . S
C985 C984 1.366 . S
C985 C989 1.385 . S
C986 H967 0.951 . S
C986 C984 1.388 . S
C986 C987 1.366 . S
C987 C986 1.366 . S
C987 C988 1.414 . S
C987 C990 1.499 . S
C988 H968 0.950 . S
C988 C987 1.414 . S
C988 C989 1.374 . S
C989 H969 0.950 . S
C989 C985 1.385 . S
C989 C988 1.374 . S
C990 C987 1.499 . S
C990 C991 1.373 . S
C990 C992 1.389 . S
C991 H970 0.950 . S
C991 C990 1.373 . S
C991 C1007 1.377 . S
C992 C990 1.389 . S
C992 C993 1.524 . S
C992 C1006 1.377 . S
C993 C992 1.524 . S
C993 C994 1.397 . S
C993 C998 1.363 . S
C994 H971 0.950 . S
C994 C993 1.397 . S
C994 C995 1.334 . S
C995 H972 0.950 . S
C995 C994 1.334 . S
C995 C996 1.287 . S
C996 C995 1.287 . S
C996 C997 1.524 . S
C996 H1015 0.913 . S
C997 H973 0.950 . S
C997 C996 1.524 . S
C997 C998 1.415 . S
C998 H974 0.950 . S
C998 C993 1.363 . S
C998 C997 1.415 . S
C999 H975 0.951 . S
C999 C1000 1.366 . S
C999 C1001 1.388 . S
C1000 C999 1.366 . S
C1000 C1004 1.385 . S
C1001 H976 0.951 . S
C1001 C999 1.388 . S
C1001 C1002 1.366 . S
C1002 C1001 1.366 . S
C1002 C1003 1.414 . S
C1002 C1005 1.499 . S
C1003 H977 0.950 . S
C1003 C1002 1.414 . S
C1003 C1004 1.374 . S
C1004 H978 0.950 . S
C1004 C1000 1.385 . S
C1004 C1003 1.374 . S
C1005 C1002 1.499 . S
C1005 C1006 1.373 . S
C1005 C1007 1.389 . S
C1006 H979 0.950 . S
C1006 C992 1.377 . S
C1006 C1005 1.373 . S
C1007 C991 1.377 . S
C1007 C1005 1.389 . S
C1007 C1008 1.524 . S
C1008 C1007 1.524 . S
C1008 C1009 1.397 . S
C1008 C1013 1.363 . S
C1009 H980 0.950 . S
C1009 C1008 1.397 . S
C1009 C1010 1.334 . S
C1010 H981 0.950 . S
C1010 C1009 1.334 . S
C1010 C1011 1.287 . S
C1011 C1010 1.287 . S
C1011 C1012 1.524 . S
C1011 H1014 0.999 . S
C1012 H982 0.950 . S
C1012 C1011 1.524 . S
C1012 C1013 1.415 . S
C1013 H983 0.950 . S
C1013 C1008 1.363 . S
C1013 C1012 1.415 . S
H1014 C1011 0.999 . S
H1015 C996 0.913 . S
H1016 C1034 0.951 . S
H1017 C1036 0.951 . S
H1018 C1038 0.950 . S
H1019 C1039 0.950 . S
H1020 C1041 0.950 . S
H1021 C1044 0.950 . S
H1022 C1045 0.950 . S
H1023 C1047 0.950 . S
H1024 C1048 0.950 . S
H1025 C1049 0.951 . S
H1026 C1051 0.951 . S
H1027 C1053 0.950 . S
H1028 C1054 0.950 . S
H1029 C1056 0.950 . S
H1030 C1059 0.950 . S
H1031 C1060 0.950 . S
H1032 C1062 0.950 . S
H1033 C1063 0.950 . S
C1034 H1016 0.951 . S
C1034 C1035 1.366 . S
C1034 C1036 1.388 . S
C1035 C1034 1.366 . S
C1035 C1039 1.385 . S
C1036 H1017 0.951 . S
C1036 C1034 1.388 . S
C1036 C1037 1.366 . S
C1037 C1036 1.366 . S
C1037 C1038 1.414 . S
C1037 C1040 1.499 . S
C1038 H1018 0.950 . S
C1038 C1037 1.414 . S
C1038 C1039 1.374 . S
C1039 H1019 0.950 . S
C1039 C1035 1.385 . S
C1039 C1038 1.374 . S
C1040 C1037 1.499 . S
C1040 C1041 1.373 . S
C1040 C1042 1.389 . S
C1041 H1020 0.950 . S
C1041 C1040 1.373 . S
C1041 C1057 1.377 . S
C1042 C1040 1.389 . S
C1042 C1043 1.524 . S
C1042 C1056 1.377 . S
C1043 C1042 1.524 . S
C1043 C1044 1.397 . S
C1043 C1048 1.363 . S
C1044 H1021 0.950 . S
C1044 C1043 1.397 . S
C1044 C1045 1.334 . S
C1045 H1022 0.950 . S
C1045 C1044 1.334 . S
C1045 C1046 1.287 . S
C1046 C1045 1.287 . S
C1046 C1047 1.524 . S
C1046 H1065 0.913 . S
C1047 H1023 0.950 . S
C1047 C1046 1.524 . S
C1047 C1048 1.415 . S
C1048 H1024 0.950 . S
C1048 C1043 1.363 . S
C1048 C1047 1.415 . S
C1049 H1025 0.951 . S
C1049 C1050 1.366 . S
C1049 C1051 1.388 . S
C1050 C1049 1.366 . S
C1050 C1054 1.385 . S
C1051 H1026 0.951 . S
C1051 C1049 1.388 . S
C1051 C1052 1.366 . S
C1052 C1051 1.366 . S
C1052 C1053 1.414 . S
C1052 C1055 1.499 . S
C1053 H1027 0.950 . S
C1053 C1052 1.414 . S
C1053 C1054 1.374 . S
C1054 H1028 0.950 . S
C1054 C1050 1.385 . S
C1054 C1053 1.374 . S
C1055 C1052 1.499 . S
C1055 C1056 1.373 . S
C1055 C1057 1.389 . S
C1056 H1029 0.950 . S
C1056 C1042 1.377 . S
C1056 C1055 1.373 . S
C1057 C1041 1.377 . S
C1057 C1055 1.389 . S
C1057 C1058 1.524 . S
C1058 C1057 1.524 . S
C1058 C1059 1.397 . S
C1058 C1063 1.363 . S
C1059 H1030 0.950 . S
C1059 C1058 1.397 . S
C1059 C1060 1.334 . S
C1060 H1031 0.950 . S
C1060 C1059 1.334 . S
C1060 C1061 1.287 . S
C1061 C1060 1.287 . S
C1061 C1062 1.524 . S
C1061 H1064 0.999 . S
C1062 H1032 0.950 . S
C1062 C1061 1.524 . S
C1062 C1063 1.415 . S
C1063 H1033 0.950 . S
C1063 C1058 1.363 . S
C1063 C1062 1.415 . S
H1064 C1061 0.999 . S
H1065 C1046 0.913 . S
H1066 C1084 0.951 . S
H1067 C1086 0.951 . S
H1068 C1088 0.950 . S
H1069 C1089 0.950 . S
H1070 C1091 0.950 . S
H1071 C1094 0.950 . S
H1072 C1095 0.950 . S
H1073 C1097 0.950 . S
H1074 C1098 0.950 . S
H1075 C1099 0.951 . S
H1076 C1101 0.951 . S
H1077 C1103 0.950 . S
H1078 C1104 0.950 . S
H1079 C1106 0.950 . S
H1080 C1109 0.950 . S
H1081 C1110 0.950 . S
H1082 C1112 0.950 . S
H1083 C1113 0.950 . S
C1084 H1066 0.951 . S
C1084 C1085 1.366 . S
C1084 C1086 1.388 . S
C1085 C1084 1.366 . S
C1085 C1089 1.385 . S
C1086 H1067 0.951 . S
C1086 C1084 1.388 . S
C1086 C1087 1.366 . S
C1087 C1086 1.366 . S
C1087 C1088 1.414 . S
C1087 C1090 1.499 . S
C1088 H1068 0.950 . S
C1088 C1087 1.414 . S
C1088 C1089 1.374 . S
C1089 H1069 0.950 . S
C1089 C1085 1.385 . S
C1089 C1088 1.374 . S
C1090 C1087 1.499 . S
C1090 C1091 1.373 . S
C1090 C1092 1.389 . S
C1091 H1070 0.950 . S
C1091 C1090 1.373 . S
C1091 C1107 1.377 . S
C1092 C1090 1.389 . S
C1092 C1093 1.524 . S
C1092 C1106 1.377 . S
C1093 C1092 1.524 . S
C1093 C1094 1.397 . S
C1093 C1098 1.363 . S
C1094 H1071 0.950 . S
C1094 C1093 1.397 . S
C1094 C1095 1.334 . S
C1095 H1072 0.950 . S
C1095 C1094 1.334 . S
C1095 C1096 1.287 . S
C1096 C1095 1.287 . S
C1096 C1097 1.524 . S
C1096 H1115 0.913 . S
C1097 H1073 0.950 . S
C1097 C1096 1.524 . S
C1097 C1098 1.415 . S
C1098 H1074 0.950 . S
C1098 C1093 1.363 . S
C1098 C1097 1.415 . S
C1099 H1075 0.951 . S
C1099 C1100 1.366 . S
C1099 C1101 1.388 . S
C1100 C1099 1.366 . S
C1100 C1104 1.385 . S
C1101 H1076 0.951 . S
C1101 C1099 1.388 . S
C1101 C1102 1.366 . S
C1102 C1101 1.366 . S
C1102 C1103 1.414 . S
C1102 C1105 1.499 . S
C1103 H1077 0.950 . S
C1103 C1102 1.414 . S
C1103 C1104 1.374 . S
C1104 H1078 0.950 . S
C1104 C1100 1.385 . S
C1104 C1103 1.374 . S
C1105 C1102 1.499 . S
C1105 C1106 1.373 . S
C1105 C1107 1.389 . S
C1106 H1079 0.950 . S
C1106 C1092 1.377 . S
C1106 C1105 1.373 . S
C1107 C1091 1.377 . S
C1107 C1105 1.389 . S
C1107 C1108 1.524 . S
C1108 C1107 1.524 . S
C1108 C1109 1.397 . S
C1108 C1113 1.363 . S
C1109 H1080 0.950 . S
C1109 C1108 1.397 . S
C1109 C1110 1.334 . S
C1110 H1081 0.950 . S
C1110 C1109 1.334 . S
C1110 C1111 1.287 . S
C1111 C1110 1.287 . S
C1111 C1112 1.524 . S
C1111 H1114 0.999 . S
C1112 H1082 0.950 . S
C1112 C1111 1.524 . S
C1112 C1113 1.415 . S
C1113 H1083 0.950 . S
C1113 C1108 1.363 . S
C1113 C1112 1.415 . S
H1114 C1111 0.999 . S
H1115 C1096 0.913 . S
H1116 C1134 0.951 . S
H1117 C1136 0.951 . S
H1118 C1138 0.950 . S
H1119 C1139 0.950 . S
H1120 C1141 0.950 . S
H1121 C1144 0.950 . S
H1122 C1145 0.950 . S
H1123 C1147 0.950 . S
H1124 C1148 0.950 . S
H1125 C1149 0.951 . S
H1126 C1151 0.951 . S
H1127 C1153 0.950 . S
H1128 C1154 0.950 . S
H1129 C1156 0.950 . S
H1130 C1159 0.950 . S
H1131 C1160 0.950 . S
H1132 C1162 0.950 . S
H1133 C1163 0.950 . S
C1134 H1116 0.951 . S
C1134 C1135 1.366 . S
C1134 C1136 1.388 . S
C1135 C1134 1.366 . S
C1135 C1139 1.385 . S
C1136 H1117 0.951 . S
C1136 C1134 1.388 . S
C1136 C1137 1.366 . S
C1137 C1136 1.366 . S
C1137 C1138 1.414 . S
C1137 C1140 1.499 . S
C1138 H1118 0.950 . S
C1138 C1137 1.414 . S
C1138 C1139 1.374 . S
C1139 H1119 0.950 . S
C1139 C1135 1.385 . S
C1139 C1138 1.374 . S
C1140 C1137 1.499 . S
C1140 C1141 1.373 . S
C1140 C1142 1.389 . S
C1141 H1120 0.950 . S
C1141 C1140 1.373 . S
C1141 C1157 1.377 . S
C1142 C1140 1.389 . S
C1142 C1143 1.524 . S
C1142 C1156 1.377 . S
C1143 C1142 1.524 . S
C1143 C1144 1.397 . S
C1143 C1148 1.363 . S
C1144 H1121 0.950 . S
C1144 C1143 1.397 . S
C1144 C1145 1.334 . S
C1145 H1122 0.950 . S
C1145 C1144 1.334 . S
C1145 C1146 1.287 . S
C1146 C1145 1.287 . S
C1146 C1147 1.524 . S
C1146 H1165 0.913 . S
C1147 H1123 0.950 . S
C1147 C1146 1.524 . S
C1147 C1148 1.415 . S
C1148 H1124 0.950 . S
C1148 C1143 1.363 . S
C1148 C1147 1.415 . S
C1149 H1125 0.951 . S
C1149 C1150 1.366 . S
C1149 C1151 1.388 . S
C1150 C1149 1.366 . S
C1150 C1154 1.385 . S
C1151 H1126 0.951 . S
C1151 C1149 1.388 . S
C1151 C1152 1.366 . S
C1152 C1151 1.366 . S
C1152 C1153 1.414 . S
C1152 C1155 1.499 . S
C1153 H1127 0.950 . S
C1153 C1152 1.414 . S
C1153 C1154 1.374 . S
C1154 H1128 0.950 . S
C1154 C1150 1.385 . S
C1154 C1153 1.374 . S
C1155 C1152 1.499 . S
C1155 C1156 1.373 . S
C1155 C1157 1.389 . S
C1156 H1129 0.950 . S
C1156 C1142 1.377 . S
C1156 C1155 1.373 . S
C1157 C1141 1.377 . S
C1157 C1155 1.389 . S
C1157 C1158 1.524 . S
C1158 C1157 1.524 . S
C1158 C1159 1.397 . S
C1158 C1163 1.363 . S
C1159 H1130 0.950 . S
C1159 C1158 1.397 . S
C1159 C1160 1.334 . S
C1160 H1131 0.950 . S
C1160 C1159 1.334 . S
C1160 C1161 1.287 . S
C1161 C1160 1.287 . S
C1161 C1162 1.524 . S
C1161 H1164 0.999 . S
C1162 H1132 0.950 . S
C1162 C1161 1.524 . S
C1162 C1163 1.415 . S
C1163 H1133 0.950 . S
C1163 C1158 1.363 . S
C1163 C1162 1.415 . S
H1164 C1161 0.999 . S
H1165 C1146 0.913 . S
H1166 C1184 0.951 . S
H1167 C1186 0.951 . S
H1168 C1188 0.950 . S
H1169 C1189 0.950 . S
H1170 C1191 0.950 . S
H1171 C1194 0.950 . S
H1172 C1195 0.950 . S
H1173 C1197 0.950 . S
H1174 C1198 0.950 . S
H1175 C1199 0.951 . S
H1176 C1201 0.951 . S
H1177 C1203 0.950 . S
H1178 C1204 0.950 . S
H1179 C1206 0.950 . S
H1180 C1209 0.950 . S
H1181 C1210 0.950 . S
H1182 C1212 0.950 . S
H1183 C1213 0.950 . S
C1184 H1166 0.951 . S
C1184 C1185 1.366 . S
C1184 C1186 1.388 . S
C1185 C1184 1.366 . S
C1185 C1189 1.385 . S
C1186 H1167 0.951 . S
C1186 C1184 1.388 . S
C1186 C1187 1.366 . S
C1187 C1186 1.366 . S
C1187 C1188 1.414 . S
C1187 C1190 1.499 . S
C1188 H1168 0.950 . S
C1188 C1187 1.414 . S
C1188 C1189 1.374 . S
C1189 H1169 0.950 . S
C1189 C1185 1.385 . S
C1189 C1188 1.374 . S
C1190 C1187 1.499 . S
C1190 C1191 1.373 . S
C1190 C1192 1.389 . S
C1191 H1170 0.950 . S
C1191 C1190 1.373 . S
C1191 C1207 1.377 . S
C1192 C1190 1.389 . S
C1192 C1193 1.524 . S
C1192 C1206 1.377 . S
C1193 C1192 1.524 . S
C1193 C1194 1.397 . S
C1193 C1198 1.363 . S
C1194 H1171 0.950 . S
C1194 C1193 1.397 . S
C1194 C1195 1.334 . S
C1195 H1172 0.950 . S
C1195 C1194 1.334 . S
C1195 C1196 1.287 . S
C1196 C1195 1.287 . S
C1196 C1197 1.524 . S
C1196 H1215 0.913 . S
C1197 H1173 0.950 . S
C1197 C1196 1.524 . S
C1197 C1198 1.415 . S
C1198 H1174 0.950 . S
C1198 C1193 1.363 . S
C1198 C1197 1.415 . S
C1199 H1175 0.951 . S
C1199 C1200 1.366 . S
C1199 C1201 1.388 . S
C1200 C1199 1.366 . S
C1200 C1204 1.385 . S
C1201 H1176 0.951 . S
C1201 C1199 1.388 . S
C1201 C1202 1.366 . S
C1202 C1201 1.366 . S
C1202 C1203 1.414 . S
C1202 C1205 1.499 . S
C1203 H1177 0.950 . S
C1203 C1202 1.414 . S
C1203 C1204 1.374 . S
C1204 H1178 0.950 . S
C1204 C1200 1.385 . S
C1204 C1203 1.374 . S
C1205 C1202 1.499 . S
C1205 C1206 1.373 . S
C1205 C1207 1.389 . S
C1206 H1179 0.950 . S
C1206 C1192 1.377 . S
C1206 C1205 1.373 . S
C1207 C1191 1.377 . S
C1207 C1205 1.389 . S
C1207 C1208 1.524 . S
C1208 C1207 1.524 . S
C1208 C1209 1.397 . S
C1208 C1213 1.363 . S
C1209 H1180 0.950 . S
C1209 C1208 1.397 . S
C1209 C1210 1.334 . S
C1210 H1181 0.950 . S
C1210 C1209 1.334 . S
C1210 C1211 1.287 . S
C1211 C1210 1.287 . S
C1211 C1212 1.524 . S
C1211 H1214 0.999 . S
C1212 H1182 0.950 . S
C1212 C1211 1.524 . S
C1212 C1213 1.415 . S
C1213 H1183 0.950 . S
C1213 C1208 1.363 . S
C1213 C1212 1.415 . S
H1214 C1211 0.999 . S
H1215 C1196 0.913 . S
H1216 C1234 0.951 . S
H1217 C1236 0.951 . S
H1218 C1238 0.950 . S
H1219 C1239 0.950 . S
H1220 C1241 0.950 . S
H1221 C1244 0.950 . S
H1222 C1245 0.950 . S
H1223 C1247 0.950 . S
H1224 C1248 0.950 . S
H1225 C1249 0.951 . S
H1226 C1251 0.951 . S
H1227 C1253 0.950 . S
H1228 C1254 0.950 . S
H1229 C1256 0.950 . S
H1230 C1259 0.950 . S
H1231 C1260 0.950 . S
H1232 C1262 0.950 . S
H1233 C1263 0.950 . S
C1234 H1216 0.951 . S
C1234 C1235 1.366 . S
C1234 C1236 1.388 . S
C1235 C1234 1.366 . S
C1235 C1239 1.385 . S
C1236 H1217 0.951 . S
C1236 C1234 1.388 . S
C1236 C1237 1.366 . S
C1237 C1236 1.366 . S
C1237 C1238 1.414 . S
C1237 C1240 1.499 . S
C1238 H1218 0.950 . S
C1238 C1237 1.414 . S
C1238 C1239 1.374 . S
C1239 H1219 0.950 . S
C1239 C1235 1.385 . S
C1239 C1238 1.374 . S
C1240 C1237 1.499 . S
C1240 C1241 1.373 . S
C1240 C1242 1.389 . S
C1241 H1220 0.950 . S
C1241 C1240 1.373 . S
C1241 C1257 1.377 1_455 S
C1242 C1240 1.389 . S
C1242 C1243 1.524 . S
C1242 C1256 1.377 1_455 S
C1243 C1242 1.524 . S
C1243 C1244 1.397 . S
C1243 C1248 1.363 . S
C1244 H1221 0.950 . S
C1244 C1243 1.397 . S
C1244 C1245 1.334 . S
C1245 H1222 0.950 . S
C1245 C1244 1.334 . S
C1245 C1246 1.287 . S
C1246 C1245 1.287 . S
C1246 C1247 1.524 . S
C1246 H1265 0.913 . S
C1247 H1223 0.950 . S
C1247 C1246 1.524 . S
C1247 C1248 1.415 . S
C1248 H1224 0.950 . S
C1248 C1243 1.363 . S
C1248 C1247 1.415 . S
C1249 H1225 0.951 . S
C1249 C1250 1.366 . S
C1249 C1251 1.388 . S
C1250 C1249 1.366 . S
C1250 C1254 1.385 . S
C1251 H1226 0.951 . S
C1251 C1249 1.388 . S
C1251 C1252 1.366 . S
C1252 C1251 1.366 . S
C1252 C1253 1.414 . S
C1252 C1255 1.499 . S
C1253 H1227 0.950 . S
C1253 C1252 1.414 . S
C1253 C1254 1.374 . S
C1254 H1228 0.950 . S
C1254 C1250 1.385 . S
C1254 C1253 1.374 . S
C1255 C1252 1.499 . S
C1255 C1256 1.373 . S
C1255 C1257 1.389 . S
C1256 H1229 0.950 . S
C1256 C1242 1.377 1_655 S
C1256 C1255 1.373 . S
C1257 C1241 1.377 1_655 S
C1257 C1255 1.389 . S
C1257 C1258 1.524 . S
C1258 C1257 1.524 . S
C1258 C1259 1.397 . S
C1258 C1263 1.363 . S
C1259 H1230 0.950 . S
C1259 C1258 1.397 . S
C1259 C1260 1.334 . S
C1260 H1231 0.950 . S
C1260 C1259 1.334 . S
C1260 C1261 1.287 . S
C1261 C1260 1.287 . S
C1261 C1262 1.524 . S
C1261 H1264 0.999 . S
C1262 H1232 0.950 . S
C1262 C1261 1.524 . S
C1262 C1263 1.415 . S
C1263 H1233 0.950 . S
C1263 C1258 1.363 . S
C1263 C1262 1.415 . S
H1264 C1261 0.999 . S
H1265 C1246 0.913 . S
H1266 C1284 0.951 . S
H1267 C1286 0.951 . S
H1268 C1288 0.950 . S
H1269 C1289 0.950 . S
H1270 C1291 0.950 . S
H1271 C1294 0.950 . S
H1272 C1295 0.950 . S
H1273 C1297 0.950 . S
H1274 C1298 0.950 . S
H1275 C1299 0.951 . S
H1276 C1301 0.951 . S
H1277 C1303 0.950 . S
H1278 C1304 0.950 . S
H1279 C1306 0.950 . S
H1280 C1309 0.950 . S
H1281 C1310 0.950 . S
H1282 C1312 0.950 . S
H1283 C1313 0.950 . S
C1284 H1266 0.951 . S
C1284 C1285 1.366 . S
C1284 C1286 1.388 . S
C1285 C1284 1.366 . S
C1285 C1289 1.385 . S
C1286 H1267 0.951 . S
C1286 C1284 1.388 . S
C1286 C1287 1.366 . S
C1287 C1286 1.366 . S
C1287 C1288 1.414 . S
C1287 C1290 1.499 . S
C1288 H1268 0.950 . S
C1288 C1287 1.414 . S
C1288 C1289 1.374 . S
C1289 H1269 0.950 . S
C1289 C1285 1.385 . S
C1289 C1288 1.374 . S
C1290 C1287 1.499 . S
C1290 C1291 1.373 . S
C1290 C1292 1.389 . S
C1291 H1270 0.950 . S
C1291 C1290 1.373 . S
C1291 C1307 1.377 . S
C1292 C1290 1.389 . S
C1292 C1293 1.524 . S
C1292 C1306 1.377 . S
C1293 C1292 1.524 . S
C1293 C1294 1.397 . S
C1293 C1298 1.363 . S
C1294 H1271 0.950 . S
C1294 C1293 1.397 . S
C1294 C1295 1.334 . S
C1295 H1272 0.950 . S
C1295 C1294 1.334 . S
C1295 C1296 1.287 . S
C1296 C1295 1.287 . S
C1296 C1297 1.524 . S
C1296 H1315 0.913 . S
C1297 H1273 0.950 . S
C1297 C1296 1.524 . S
C1297 C1298 1.415 . S
C1298 H1274 0.950 . S
C1298 C1293 1.363 . S
C1298 C1297 1.415 . S
C1299 H1275 0.951 . S
C1299 C1300 1.366 . S
C1299 C1301 1.388 . S
C1300 C1299 1.366 . S
C1300 C1304 1.385 . S
C1301 H1276 0.951 . S
C1301 C1299 1.388 . S
C1301 C1302 1.366 . S
C1302 C1301 1.366 . S
C1302 C1303 1.414 . S
C1302 C1305 1.499 . S
C1303 H1277 0.950 . S
C1303 C1302 1.414 . S
C1303 C1304 1.374 . S
C1304 H1278 0.950 . S
C1304 C1300 1.385 . S
C1304 C1303 1.374 . S
C1305 C1302 1.499 . S
C1305 C1306 1.373 . S
C1305 C1307 1.389 . S
C1306 H1279 0.950 . S
C1306 C1292 1.377 . S
C1306 C1305 1.373 . S
C1307 C1291 1.377 . S
C1307 C1305 1.389 . S
C1307 C1308 1.524 . S
C1308 C1307 1.524 . S
C1308 C1309 1.397 . S
C1308 C1313 1.363 . S
C1309 H1280 0.950 . S
C1309 C1308 1.397 . S
C1309 C1310 1.334 . S
C1310 H1281 0.950 . S
C1310 C1309 1.334 . S
C1310 C1311 1.287 . S
C1311 C1310 1.287 . S
C1311 C1312 1.524 . S
C1311 H1314 0.999 . S
C1312 H1282 0.950 . S
C1312 C1311 1.524 . S
C1312 C1313 1.415 . S
C1313 H1283 0.950 . S
C1313 C1308 1.363 . S
C1313 C1312 1.415 . S
H1314 C1311 0.999 . S
H1315 C1296 0.913 . S
H1316 C1334 0.951 . S
H1317 C1336 0.951 . S
H1318 C1338 0.950 . S
H1319 C1339 0.950 . S
H1320 C1341 0.950 . S
H1321 C1344 0.950 . S
H1322 C1345 0.950 . S
H1323 C1347 0.950 . S
H1324 C1348 0.950 . S
H1325 C1349 0.951 . S
H1326 C1351 0.951 . S
H1327 C1353 0.950 . S
H1328 C1354 0.950 . S
H1329 C1356 0.950 . S
H1330 C1359 0.950 . S
H1331 C1360 0.950 . S
H1332 C1362 0.950 . S
H1333 C1363 0.950 . S
C1334 H1316 0.951 . S
C1334 C1335 1.366 . S
C1334 C1336 1.388 . S
C1335 C1334 1.366 . S
C1335 C1339 1.385 . S
C1336 H1317 0.951 . S
C1336 C1334 1.388 . S
C1336 C1337 1.366 . S
C1337 C1336 1.366 . S
C1337 C1338 1.414 . S
C1337 C1340 1.499 . S
C1338 H1318 0.950 . S
C1338 C1337 1.414 . S
C1338 C1339 1.374 . S
C1339 H1319 0.950 . S
C1339 C1335 1.385 . S
C1339 C1338 1.374 . S
C1340 C1337 1.499 . S
C1340 C1341 1.373 . S
C1340 C1342 1.389 . S
C1341 H1320 0.950 . S
C1341 C1340 1.373 . S
C1341 C1357 1.377 . S
C1342 C1340 1.389 . S
C1342 C1343 1.524 . S
C1342 C1356 1.377 . S
C1343 C1342 1.524 . S
C1343 C1344 1.397 . S
C1343 C1348 1.363 . S
C1344 H1321 0.950 . S
C1344 C1343 1.397 . S
C1344 C1345 1.334 . S
C1345 H1322 0.950 . S
C1345 C1344 1.334 . S
C1345 C1346 1.287 . S
C1346 C1345 1.287 . S
C1346 C1347 1.524 . S
C1346 H1365 0.913 . S
C1347 H1323 0.950 . S
C1347 C1346 1.524 . S
C1347 C1348 1.415 . S
C1348 H1324 0.950 . S
C1348 C1343 1.363 . S
C1348 C1347 1.415 . S
C1349 H1325 0.951 . S
C1349 C1350 1.366 . S
C1349 C1351 1.388 . S
C1350 C1349 1.366 . S
C1350 C1354 1.385 . S
C1351 H1326 0.951 . S
C1351 C1349 1.388 . S
C1351 C1352 1.366 . S
C1352 C1351 1.366 . S
C1352 C1353 1.414 . S
C1352 C1355 1.499 . S
C1353 H1327 0.950 . S
C1353 C1352 1.414 . S
C1353 C1354 1.374 . S
C1354 H1328 0.950 . S
C1354 C1350 1.385 . S
C1354 C1353 1.374 . S
C1355 C1352 1.499 . S
C1355 C1356 1.373 . S
C1355 C1357 1.389 . S
C1356 H1329 0.950 . S
C1356 C1342 1.377 . S
C1356 C1355 1.373 . S
C1357 C1341 1.377 . S
C1357 C1355 1.389 . S
C1357 C1358 1.524 . S
C1358 C1357 1.524 . S
C1358 C1359 1.397 . S
C1358 C1363 1.363 . S
C1359 H1330 0.950 . S
C1359 C1358 1.397 . S
C1359 C1360 1.334 . S
C1360 H1331 0.950 . S
C1360 C1359 1.334 . S
C1360 C1361 1.287 . S
C1361 C1360 1.287 . S
C1361 C1362 1.524 . S
C1361 H1364 0.999 . S
C1362 H1332 0.950 . S
C1362 C1361 1.524 . S
C1362 C1363 1.415 . S
C1363 H1333 0.950 . S
C1363 C1358 1.363 . S
C1363 C1362 1.415 . S
H1364 C1361 0.999 . S
H1365 C1346 0.913 . S
H1366 C1384 0.951 . S
H1367 C1386 0.951 . S
H1368 C1388 0.950 . S
H1369 C1389 0.950 . S
H1370 C1391 0.950 . S
H1371 C1394 0.950 . S
H1372 C1395 0.950 . S
H1373 C1397 0.950 . S
H1374 C1398 0.950 . S
H1375 C1399 0.951 . S
H1376 C1401 0.951 . S
H1377 C1403 0.950 . S
H1378 C1404 0.950 . S
H1379 C1406 0.950 . S
H1380 C1409 0.950 . S
H1381 C1410 0.950 . S
H1382 C1412 0.950 . S
H1383 C1413 0.950 . S
C1384 H1366 0.951 . S
C1384 C1385 1.366 . S
C1384 C1386 1.388 . S
C1385 C1384 1.366 . S
C1385 C1389 1.385 . S
C1386 H1367 0.951 . S
C1386 C1384 1.388 . S
C1386 C1387 1.366 . S
C1387 C1386 1.366 . S
C1387 C1388 1.414 . S
C1387 C1390 1.499 . S
C1388 H1368 0.950 . S
C1388 C1387 1.414 . S
C1388 C1389 1.374 . S
C1389 H1369 0.950 . S
C1389 C1385 1.385 . S
C1389 C1388 1.374 . S
C1390 C1387 1.499 . S
C1390 C1391 1.373 . S
C1390 C1392 1.389 . S
C1391 H1370 0.950 . S
C1391 C1390 1.373 . S
C1391 C1407 1.377 . S
C1392 C1390 1.389 . S
C1392 C1393 1.524 . S
C1392 C1406 1.377 . S
C1393 C1392 1.524 . S
C1393 C1394 1.397 . S
C1393 C1398 1.363 . S
C1394 H1371 0.950 . S
C1394 C1393 1.397 . S
C1394 C1395 1.334 . S
C1395 H1372 0.950 . S
C1395 C1394 1.334 . S
C1395 C1396 1.287 . S
C1396 C1395 1.287 . S
C1396 C1397 1.524 . S
C1396 H1415 0.913 . S
C1397 H1373 0.950 . S
C1397 C1396 1.524 . S
C1397 C1398 1.415 . S
C1398 H1374 0.950 . S
C1398 C1393 1.363 . S
C1398 C1397 1.415 . S
C1399 H1375 0.951 . S
C1399 C1400 1.366 . S
C1399 C1401 1.388 . S
C1400 C1399 1.366 . S
C1400 C1404 1.385 . S
C1401 H1376 0.951 . S
C1401 C1399 1.388 . S
C1401 C1402 1.366 . S
C1402 C1401 1.366 . S
C1402 C1403 1.414 . S
C1402 C1405 1.499 . S
C1403 H1377 0.950 . S
C1403 C1402 1.414 . S
C1403 C1404 1.374 . S
C1404 H1378 0.950 . S
C1404 C1400 1.385 . S
C1404 C1403 1.374 . S
C1405 C1402 1.499 . S
C1405 C1406 1.373 . S
C1405 C1407 1.389 . S
C1406 H1379 0.950 . S
C1406 C1392 1.377 . S
C1406 C1405 1.373 . S
C1407 C1391 1.377 . S
C1407 C1405 1.389 . S
C1407 C1408 1.524 . S
C1408 C1407 1.524 . S
C1408 C1409 1.397 . S
C1408 C1413 1.363 . S
C1409 H1380 0.950 . S
C1409 C1408 1.397 . S
C1409 C1410 1.334 . S
C1410 H1381 0.950 . S
C1410 C1409 1.334 . S
C1410 C1411 1.287 . S
C1411 C1410 1.287 . S
C1411 C1412 1.524 . S
C1411 H1414 0.999 . S
C1412 H1382 0.950 . S
C1412 C1411 1.524 . S
C1412 C1413 1.415 . S
C1413 H1383 0.950 . S
C1413 C1408 1.363 . S
C1413 C1412 1.415 . S
H1414 C1411 0.999 . S
H1415 C1396 0.913 . S
H1416 C1434 0.951 . S
H1417 C1436 0.951 . S
H1418 C1438 0.950 . S
H1419 C1439 0.950 . S
H1420 C1441 0.950 . S
H1421 C1444 0.950 . S
H1422 C1445 0.950 . S
H1423 C1447 0.950 . S
H1424 C1448 0.950 . S
H1425 C1449 0.951 . S
H1426 C1451 0.951 . S
H1427 C1453 0.950 . S
H1428 C1454 0.950 . S
H1429 C1456 0.950 . S
H1430 C1459 0.950 . S
H1431 C1460 0.950 . S
H1432 C1462 0.950 . S
H1433 C1463 0.950 . S
C1434 H1416 0.951 . S
C1434 C1435 1.366 . S
C1434 C1436 1.388 . S
C1435 C1434 1.366 . S
C1435 C1439 1.385 . S
C1436 H1417 0.951 . S
C1436 C1434 1.388 . S
C1436 C1437 1.366 . S
C1437 C1436 1.366 . S
C1437 C1438 1.414 . S
C1437 C1440 1.499 . S
C1438 H1418 0.950 . S
C1438 C1437 1.414 . S
C1438 C1439 1.374 . S
C1439 H1419 0.950 . S
C1439 C1435 1.385 . S
C1439 C1438 1.374 . S
C1440 C1437 1.499 . S
C1440 C1441 1.373 . S
C1440 C1442 1.389 . S
C1441 H1420 0.950 . S
C1441 C1440 1.373 . S
C1441 C1457 1.377 1_655 S
C1442 C1440 1.389 . S
C1442 C1443 1.524 . S
C1442 C1456 1.377 1_655 S
C1443 C1442 1.524 . S
C1443 C1444 1.397 . S
C1443 C1448 1.363 . S
C1444 H1421 0.950 . S
C1444 C1443 1.397 . S
C1444 C1445 1.334 . S
C1445 H1422 0.950 . S
C1445 C1444 1.334 . S
C1445 C1446 1.287 . S
C1446 C1445 1.287 . S
C1446 C1447 1.524 . S
C1446 H1465 0.913 . S
C1447 H1423 0.950 . S
C1447 C1446 1.524 . S
C1447 C1448 1.415 . S
C1448 H1424 0.950 . S
C1448 C1443 1.363 . S
C1448 C1447 1.415 . S
C1449 H1425 0.951 . S
C1449 C1450 1.366 . S
C1449 C1451 1.388 . S
C1450 C1449 1.366 . S
C1450 C1454 1.385 . S
C1451 H1426 0.951 . S
C1451 C1449 1.388 . S
C1451 C1452 1.366 . S
C1452 C1451 1.366 . S
C1452 C1453 1.414 . S
C1452 C1455 1.499 . S
C1453 H1427 0.950 . S
C1453 C1452 1.414 . S
C1453 C1454 1.374 . S
C1454 H1428 0.950 . S
C1454 C1450 1.385 . S
C1454 C1453 1.374 . S
C1455 C1452 1.499 . S
C1455 C1456 1.373 . S
C1455 C1457 1.389 . S
C1456 H1429 0.950 . S
C1456 C1442 1.377 1_455 S
C1456 C1455 1.373 . S
C1457 C1441 1.377 1_455 S
C1457 C1455 1.389 . S
C1457 C1458 1.524 . S
C1458 C1457 1.524 . S
C1458 C1459 1.397 . S
C1458 C1463 1.363 . S
C1459 H1430 0.950 . S
C1459 C1458 1.397 . S
C1459 C1460 1.334 . S
C1460 H1431 0.950 . S
C1460 C1459 1.334 . S
C1460 C1461 1.287 . S
C1461 C1460 1.287 . S
C1461 C1462 1.524 . S
C1461 H1464 0.999 . S
C1462 H1432 0.950 . S
C1462 C1461 1.524 . S
C1462 C1463 1.415 . S
C1463 H1433 0.950 . S
C1463 C1458 1.363 . S
C1463 C1462 1.415 . S
H1464 C1461 0.999 . S
H1465 C1446 0.913 . S
H1466 C1484 0.951 . S
H1467 C1486 0.951 . S
H1468 C1488 0.950 . S
H1469 C1489 0.950 . S
H1470 C1491 0.950 . S
H1471 C1494 0.950 . S
H1472 C1495 0.950 . S
H1473 C1497 0.950 . S
H1474 C1498 0.950 . S
H1475 C1499 0.951 . S
H1476 C1501 0.951 . S
H1477 C1503 0.950 . S
H1478 C1504 0.950 . S
H1479 C1506 0.950 . S
H1480 C1509 0.950 . S
H1481 C1510 0.950 . S
H1482 C1512 0.950 . S
H1483 C1513 0.950 . S
C1484 H1466 0.951 . S
C1484 C1485 1.366 . S
C1484 C1486 1.388 . S
C1485 C1484 1.366 . S
C1485 C1489 1.385 . S
C1486 H1467 0.951 . S
C1486 C1484 1.388 . S
C1486 C1487 1.366 . S
C1487 C1486 1.366 . S
C1487 C1488 1.414 . S
C1487 C1490 1.499 . S
C1488 H1468 0.950 . S
C1488 C1487 1.414 . S
C1488 C1489 1.374 . S
C1489 H1469 0.950 . S
C1489 C1485 1.385 . S
C1489 C1488 1.374 . S
C1490 C1487 1.499 . S
C1490 C1491 1.373 . S
C1490 C1492 1.389 . S
C1491 H1470 0.950 . S
C1491 C1490 1.373 . S
C1491 C1507 1.377 . S
C1492 C1490 1.389 . S
C1492 C1493 1.524 . S
C1492 C1506 1.377 . S
C1493 C1492 1.524 . S
C1493 C1494 1.397 . S
C1493 C1498 1.363 . S
C1494 H1471 0.950 . S
C1494 C1493 1.397 . S
C1494 C1495 1.334 . S
C1495 H1472 0.950 . S
C1495 C1494 1.334 . S
C1495 C1496 1.287 . S
C1496 C1495 1.287 . S
C1496 C1497 1.524 . S
C1496 H1515 0.913 . S
C1497 H1473 0.950 . S
C1497 C1496 1.524 . S
C1497 C1498 1.415 . S
C1498 H1474 0.950 . S
C1498 C1493 1.363 . S
C1498 C1497 1.415 . S
C1499 H1475 0.951 . S
C1499 C1500 1.366 . S
C1499 C1501 1.388 . S
C1500 C1499 1.366 . S
C1500 C1504 1.385 . S
C1501 H1476 0.951 . S
C1501 C1499 1.388 . S
C1501 C1502 1.366 . S
C1502 C1501 1.366 . S
C1502 C1503 1.414 . S
C1502 C1505 1.499 . S
C1503 H1477 0.950 . S
C1503 C1502 1.414 . S
C1503 C1504 1.374 . S
C1504 H1478 0.950 . S
C1504 C1500 1.385 . S
C1504 C1503 1.374 . S
C1505 C1502 1.499 . S
C1505 C1506 1.373 . S
C1505 C1507 1.389 . S
C1506 H1479 0.950 . S
C1506 C1492 1.377 . S
C1506 C1505 1.373 . S
C1507 C1491 1.377 . S
C1507 C1505 1.389 . S
C1507 C1508 1.524 . S
C1508 C1507 1.524 . S
C1508 C1509 1.397 . S
C1508 C1513 1.363 . S
C1509 H1480 0.950 . S
C1509 C1508 1.397 . S
C1509 C1510 1.334 . S
C1510 H1481 0.950 . S
C1510 C1509 1.334 . S
C1510 C1511 1.287 . S
C1511 C1510 1.287 . S
C1511 C1512 1.524 . S
C1511 H1514 0.999 . S
C1512 H1482 0.950 . S
C1512 C1511 1.524 . S
C1512 C1513 1.415 . S
C1513 H1483 0.950 . S
C1513 C1508 1.363 . S
C1513 C1512 1.415 . S
H1514 C1511 0.999 . S
H1515 C1496 0.913 . S
H1516 C1534 0.951 . S
H1517 C1536 0.951 . S
H1518 C1538 0.950 . S
H1519 C1539 0.950 . S
H1520 C1541 0.950 . S
H1521 C1544 0.950 . S
H1522 C1545 0.950 . S
H1523 C1547 0.950 . S
H1524 C1548 0.950 . S
H1525 C1549 0.951 . S
H1526 C1551 0.951 . S
H1527 C1553 0.950 . S
H1528 C1554 0.950 . S
H1529 C1556 0.950 . S
H1530 C1559 0.950 . S
H1531 C1560 0.950 . S
H1532 C1562 0.950 . S
H1533 C1563 0.950 . S
C1534 H1516 0.951 . S
C1534 C1535 1.366 . S
C1534 C1536 1.388 . S
C1535 C1534 1.366 . S
C1535 C1539 1.385 . S
C1536 H1517 0.951 . S
C1536 C1534 1.388 . S
C1536 C1537 1.366 . S
C1537 C1536 1.366 . S
C1537 C1538 1.414 . S
C1537 C1540 1.499 . S
C1538 H1518 0.950 . S
C1538 C1537 1.414 . S
C1538 C1539 1.374 . S
C1539 H1519 0.950 . S
C1539 C1535 1.385 . S
C1539 C1538 1.374 . S
C1540 C1537 1.499 . S
C1540 C1541 1.373 . S
C1540 C1542 1.389 . S
C1541 H1520 0.950 . S
C1541 C1540 1.373 . S
C1541 C1557 1.377 . S
C1542 C1540 1.389 . S
C1542 C1543 1.524 . S
C1542 C1556 1.377 . S
C1543 C1542 1.524 . S
C1543 C1544 1.397 . S
C1543 C1548 1.363 . S
C1544 H1521 0.950 . S
C1544 C1543 1.397 . S
C1544 C1545 1.334 . S
C1545 H1522 0.950 . S
C1545 C1544 1.334 . S
C1545 C1546 1.287 . S
C1546 C1545 1.287 . S
C1546 C1547 1.524 . S
C1546 H1565 0.913 . S
C1547 H1523 0.950 . S
C1547 C1546 1.524 . S
C1547 C1548 1.415 . S
C1548 H1524 0.950 . S
C1548 C1543 1.363 . S
C1548 C1547 1.415 . S
C1549 H1525 0.951 . S
C1549 C1550 1.366 . S
C1549 C1551 1.388 . S
C1550 C1549 1.366 . S
C1550 C1554 1.385 . S
C1551 H1526 0.951 . S
C1551 C1549 1.388 . S
C1551 C1552 1.366 . S
C1552 C1551 1.366 . S
C1552 C1553 1.414 . S
C1552 C1555 1.499 . S
C1553 H1527 0.950 . S
C1553 C1552 1.414 . S
C1553 C1554 1.374 . S
C1554 H1528 0.950 . S
C1554 C1550 1.385 . S
C1554 C1553 1.374 . S
C1555 C1552 1.499 . S
C1555 C1556 1.373 . S
C1555 C1557 1.389 . S
C1556 H1529 0.950 . S
C1556 C1542 1.377 . S
C1556 C1555 1.373 . S
C1557 C1541 1.377 . S
C1557 C1555 1.389 . S
C1557 C1558 1.524 . S
C1558 C1557 1.524 . S
C1558 C1559 1.397 . S
C1558 C1563 1.363 . S
C1559 H1530 0.950 . S
C1559 C1558 1.397 . S
C1559 C1560 1.334 . S
C1560 H1531 0.950 . S
C1560 C1559 1.334 . S
C1560 C1561 1.287 . S
C1561 C1560 1.287 . S
C1561 C1562 1.524 . S
C1561 H1564 0.999 . S
C1562 H1532 0.950 . S
C1562 C1561 1.524 . S
C1562 C1563 1.415 . S
C1563 H1533 0.950 . S
C1563 C1558 1.363 . S
C1563 C1562 1.415 . S
H1564 C1561 0.999 . S
H1565 C1546 0.913 . S
H1566 C1584 0.951 . S
H1567 C1586 0.951 . S
H1568 C1588 0.950 . S
H1569 C1589 0.950 . S
H1570 C1591 0.950 . S
H1571 C1594 0.950 . S
H1572 C1595 0.950 . S
H1573 C1597 0.950 . S
H1574 C1598 0.950 . S
H1575 C1599 0.951 . S
H1576 C1601 0.951 . S
H1577 C1603 0.950 . S
H1578 C1604 0.950 . S
H1579 C1606 0.950 . S
H1580 C1609 0.950 . S
H1581 C1610 0.950 . S
H1582 C1612 0.950 . S
H1583 C1613 0.950 . S
C1584 H1566 0.951 . S
C1584 C1585 1.366 . S
C1584 C1586 1.388 . S
C1585 C1584 1.366 . S
C1585 C1589 1.385 . S
C1586 H1567 0.951 . S
C1586 C1584 1.388 . S
C1586 C1587 1.366 . S
C1587 C1586 1.366 . S
C1587 C1588 1.414 . S
C1587 C1590 1.499 . S
C1588 H1568 0.950 . S
C1588 C1587 1.414 . S
C1588 C1589 1.374 . S
C1589 H1569 0.950 . S
C1589 C1585 1.385 . S
C1589 C1588 1.374 . S
C1590 C1587 1.499 . S
C1590 C1591 1.373 . S
C1590 C1592 1.389 . S
C1591 H1570 0.950 . S
C1591 C1590 1.373 . S
C1591 C1607 1.377 . S
C1592 C1590 1.389 . S
C1592 C1593 1.524 . S
C1592 C1606 1.377 . S
C1593 C1592 1.524 . S
C1593 C1594 1.397 . S
C1593 C1598 1.363 . S
C1594 H1571 0.950 . S
C1594 C1593 1.397 . S
C1594 C1595 1.334 . S
C1595 H1572 0.950 . S
C1595 C1594 1.334 . S
C1595 C1596 1.287 . S
C1596 C1595 1.287 . S
C1596 C1597 1.524 . S
C1596 H1615 0.913 . S
C1597 H1573 0.950 . S
C1597 C1596 1.524 . S
C1597 C1598 1.415 . S
C1598 H1574 0.950 . S
C1598 C1593 1.363 . S
C1598 C1597 1.415 . S
C1599 H1575 0.951 . S
C1599 C1600 1.366 . S
C1599 C1601 1.388 . S
C1600 C1599 1.366 . S
C1600 C1604 1.385 . S
C1601 H1576 0.951 . S
C1601 C1599 1.388 . S
C1601 C1602 1.366 . S
C1602 C1601 1.366 . S
C1602 C1603 1.414 . S
C1602 C1605 1.499 . S
C1603 H1577 0.950 . S
C1603 C1602 1.414 . S
C1603 C1604 1.374 . S
C1604 H1578 0.950 . S
C1604 C1600 1.385 . S
C1604 C1603 1.374 . S
C1605 C1602 1.499 . S
C1605 C1606 1.373 . S
C1605 C1607 1.389 . S
C1606 H1579 0.950 . S
C1606 C1592 1.377 . S
C1606 C1605 1.373 . S
C1607 C1591 1.377 . S
C1607 C1605 1.389 . S
C1607 C1608 1.524 . S
C1608 C1607 1.524 . S
C1608 C1609 1.397 . S
C1608 C1613 1.363 . S
C1609 H1580 0.950 . S
C1609 C1608 1.397 . S
C1609 C1610 1.334 . S
C1610 H1581 0.950 . S
C1610 C1609 1.334 . S
C1610 C1611 1.287 . S
C1611 C1610 1.287 . S
C1611 C1612 1.524 . S
C1611 H1614 0.999 . S
C1612 H1582 0.950 . S
C1612 C1611 1.524 . S
C1612 C1613 1.415 . S
C1613 H1583 0.950 . S
C1613 C1608 1.363 . S
C1613 C1612 1.415 . S
H1614 C1611 0.999 . S
H1615 C1596 0.913 . S
H1616 C1634 0.951 . S
H1617 C1636 0.951 . S
H1618 C1638 0.950 . S
H1619 C1639 0.950 . S
H1620 C1641 0.950 . S
H1621 C1644 0.950 . S
H1622 C1645 0.950 . S
H1623 C1647 0.950 . S
H1624 C1648 0.950 . S
H1625 C1649 0.951 . S
H1626 C1651 0.951 . S
H1627 C1653 0.950 . S
H1628 C1654 0.950 . S
H1629 C1656 0.950 . S
H1630 C1659 0.950 . S
H1631 C1660 0.950 . S
H1632 C1662 0.950 . S
H1633 C1663 0.950 . S
C1634 H1616 0.951 . S
C1634 C1635 1.366 . S
C1634 C1636 1.388 . S
C1635 C1634 1.366 . S
C1635 C1639 1.385 . S
C1636 H1617 0.951 . S
C1636 C1634 1.388 . S
C1636 C1637 1.366 . S
C1637 C1636 1.366 . S
C1637 C1638 1.414 . S
C1637 C1640 1.499 . S
C1638 H1618 0.950 . S
C1638 C1637 1.414 . S
C1638 C1639 1.374 . S
C1639 H1619 0.950 . S
C1639 C1635 1.385 . S
C1639 C1638 1.374 . S
C1640 C1637 1.499 . S
C1640 C1641 1.373 . S
C1640 C1642 1.389 . S
C1641 H1620 0.950 . S
C1641 C1640 1.373 . S
C1641 C1657 1.377 . S
C1642 C1640 1.389 . S
C1642 C1643 1.524 . S
C1642 C1656 1.377 . S
C1643 C1642 1.524 . S
C1643 C1644 1.397 . S
C1643 C1648 1.363 . S
C1644 H1621 0.950 . S
C1644 C1643 1.397 . S
C1644 C1645 1.334 . S
C1645 H1622 0.950 . S
C1645 C1644 1.334 . S
C1645 C1646 1.287 . S
C1646 C1645 1.287 . S
C1646 C1647 1.524 . S
C1646 H1665 0.913 . S
C1647 H1623 0.950 . S
C1647 C1646 1.524 . S
C1647 C1648 1.415 . S
C1648 H1624 0.950 . S
C1648 C1643 1.363 . S
C1648 C1647 1.415 . S
C1649 H1625 0.951 . S
C1649 C1650 1.366 . S
C1649 C1651 1.388 . S
C1650 C1649 1.366 . S
C1650 C1654 1.385 . S
C1651 H1626 0.951 . S
C1651 C1649 1.388 . S
C1651 C1652 1.366 . S
C1652 C1651 1.366 . S
C1652 C1653 1.414 . S
C1652 C1655 1.499 . S
C1653 H1627 0.950 . S
C1653 C1652 1.414 . S
C1653 C1654 1.374 . S
C1654 H1628 0.950 . S
C1654 C1650 1.385 . S
C1654 C1653 1.374 . S
C1655 C1652 1.499 . S
C1655 C1656 1.373 . S
C1655 C1657 1.389 . S
C1656 H1629 0.950 . S
C1656 C1642 1.377 . S
C1656 C1655 1.373 . S
C1657 C1641 1.377 . S
C1657 C1655 1.389 . S
C1657 C1658 1.524 . S
C1658 C1657 1.524 . S
C1658 C1659 1.397 . S
C1658 C1663 1.363 . S
C1659 H1630 0.950 . S
C1659 C1658 1.397 . S
C1659 C1660 1.334 . S
C1660 H1631 0.950 . S
C1660 C1659 1.334 . S
C1660 C1661 1.287 . S
C1661 C1660 1.287 . S
C1661 C1662 1.524 . S
C1661 H1664 0.999 . S
C1662 H1632 0.950 . S
C1662 C1661 1.524 . S
C1662 C1663 1.415 . S
C1663 H1633 0.950 . S
C1663 C1658 1.363 . S
C1663 C1662 1.415 . S
H1664 C1661 0.999 . S
H1665 C1646 0.913 . S
H1666 C1684 0.951 . S
H1667 C1686 0.951 . S
H1668 C1688 0.950 . S
H1669 C1689 0.950 . S
H1670 C1691 0.950 . S
H1671 C1694 0.950 . S
H1672 C1695 0.950 . S
H1673 C1697 0.950 . S
H1674 C1698 0.950 . S
H1675 C1699 0.951 . S
H1676 C1701 0.951 . S
H1677 C1703 0.950 . S
H1678 C1704 0.950 . S
H1679 C1706 0.950 . S
H1680 C1709 0.950 . S
H1681 C1710 0.950 . S
H1682 C1712 0.950 . S
H1683 C1713 0.950 . S
C1684 H1666 0.951 . S
C1684 C1685 1.366 . S
C1684 C1686 1.388 . S
C1685 C1684 1.366 . S
C1685 C1689 1.385 . S
C1686 H1667 0.951 . S
C1686 C1684 1.388 . S
C1686 C1687 1.366 . S
C1687 C1686 1.366 . S
C1687 C1688 1.414 . S
C1687 C1690 1.499 . S
C1688 H1668 0.950 . S
C1688 C1687 1.414 . S
C1688 C1689 1.374 . S
C1689 H1669 0.950 . S
C1689 C1685 1.385 . S
C1689 C1688 1.374 . S
C1690 C1687 1.499 . S
C1690 C1691 1.373 . S
C1690 C1692 1.389 . S
C1691 H1670 0.950 . S
C1691 C1690 1.373 . S
C1691 C1707 1.377 . S
C1692 C1690 1.389 . S
C1692 C1693 1.524 . S
C1692 C1706 1.377 . S
C1693 C1692 1.524 . S
C1693 C1694 1.397 . S
C1693 C1698 1.363 . S
C1694 H1671 0.950 . S
C1694 C1693 1.397 . S
C1694 C1695 1.334 . S
C1695 H1672 0.950 . S
C1695 C1694 1.334 . S
C1695 C1696 1.287 . S
C1696 C1695 1.287 . S
C1696 C1697 1.524 . S
C1696 H1715 0.913 . S
C1697 H1673 0.950 . S
C1697 C1696 1.524 . S
C1697 C1698 1.415 . S
C1698 H1674 0.950 . S
C1698 C1693 1.363 . S
C1698 C1697 1.415 . S
C1699 H1675 0.951 . S
C1699 C1700 1.366 . S
C1699 C1701 1.388 . S
C1700 C1699 1.366 . S
C1700 C1704 1.385 . S
C1701 H1676 0.951 . S
C1701 C1699 1.388 . S
C1701 C1702 1.366 . S
C1702 C1701 1.366 . S
C1702 C1703 1.414 . S
C1702 C1705 1.499 . S
C1703 H1677 0.950 . S
C1703 C1702 1.414 . S
C1703 C1704 1.374 . S
C1704 H1678 0.950 . S
C1704 C1700 1.385 . S
C1704 C1703 1.374 . S
C1705 C1702 1.499 . S
C1705 C1706 1.373 . S
C1705 C1707 1.389 . S
C1706 H1679 0.950 . S
C1706 C1692 1.377 . S
C1706 C1705 1.373 . S
C1707 C1691 1.377 . S
C1707 C1705 1.389 . S
C1707 C1708 1.524 . S
C1708 C1707 1.524 . S
C1708 C1709 1.397 . S
C1708 C1713 1.363 . S
C1709 H1680 0.950 . S
C1709 C1708 1.397 . S
C1709 C1710 1.334 . S
C1710 H1681 0.950 . S
C1710 C1709 1.334 . S
C1710 C1711 1.287 . S
C1711 C1710 1.287 . S
C1711 C1712 1.524 . S
C1711 H1714 0.999 . S
C1712 H1682 0.950 . S
C1712 C1711 1.524 . S
C1712 C1713 1.415 . S
C1713 H1683 0.950 . S
C1713 C1708 1.363 . S
C1713 C1712 1.415 . S
H1714 C1711 0.999 . S
H1715 C1696 0.913 . S
H1716 C1734 0.951 . S
H1717 C1736 0.951 . S
H1718 C1738 0.950 . S
H1719 C1739 0.950 . S
H1720 C1741 0.950 . S
H1721 C1744 0.950 . S
H1722 C1745 0.950 . S
H1723 C1747 0.950 . S
H1724 C1748 0.950 . S
H1725 C1749 0.951 . S
H1726 C1751 0.951 . S
H1727 C1753 0.950 . S
H1728 C1754 0.950 . S
H1729 C1756 0.950 . S
H1730 C1759 0.950 . S
H1731 C1760 0.950 . S
H1732 C1762 0.950 . S
H1733 C1763 0.950 . S
C1734 H1716 0.951 . S
C1734 C1735 1.366 . S
C1734 C1736 1.388 . S
C1735 C1734 1.366 . S
C1735 C1739 1.385 . S
C1736 H1717 0.951 . S
C1736 C1734 1.388 . S
C1736 C1737 1.366 . S
C1737 C1736 1.366 . S
C1737 C1738 1.414 . S
C1737 C1740 1.499 . S
C1738 H1718 0.950 . S
C1738 C1737 1.414 . S
C1738 C1739 1.374 . S
C1739 H1719 0.950 . S
C1739 C1735 1.385 . S
C1739 C1738 1.374 . S
C1740 C1737 1.499 . S
C1740 C1741 1.373 . S
C1740 C1742 1.389 . S
C1741 H1720 0.950 . S
C1741 C1740 1.373 . S
C1741 C1757 1.377 . S
C1742 C1740 1.389 . S
C1742 C1743 1.524 . S
C1742 C1756 1.377 . S
C1743 C1742 1.524 . S
C1743 C1744 1.397 . S
C1743 C1748 1.363 . S
C1744 H1721 0.950 . S
C1744 C1743 1.397 . S
C1744 C1745 1.334 . S
C1745 H1722 0.950 . S
C1745 C1744 1.334 . S
C1745 C1746 1.287 . S
C1746 C1745 1.287 . S
C1746 C1747 1.524 . S
C1746 H1765 0.913 . S
C1747 H1723 0.950 . S
C1747 C1746 1.524 . S
C1747 C1748 1.415 . S
C1748 H1724 0.950 . S
C1748 C1743 1.363 . S
C1748 C1747 1.415 . S
C1749 H1725 0.951 . S
C1749 C1750 1.366 . S
C1749 C1751 1.388 . S
C1750 C1749 1.366 . S
C1750 C1754 1.385 . S
C1751 H1726 0.951 . S
C1751 C1749 1.388 . S
C1751 C1752 1.366 . S
C1752 C1751 1.366 . S
C1752 C1753 1.414 . S
C1752 C1755 1.499 . S
C1753 H1727 0.950 . S
C1753 C1752 1.414 . S
C1753 C1754 1.374 . S
C1754 H1728 0.950 . S
C1754 C1750 1.385 . S
C1754 C1753 1.374 . S
C1755 C1752 1.499 . S
C1755 C1756 1.373 . S
C1755 C1757 1.389 . S
C1756 H1729 0.950 . S
C1756 C1742 1.377 . S
C1756 C1755 1.373 . S
C1757 C1741 1.377 . S
C1757 C1755 1.389 . S
C1757 C1758 1.524 . S
C1758 C1757 1.524 . S
C1758 C1759 1.397 . S
C1758 C1763 1.363 . S
C1759 H1730 0.950 . S
C1759 C1758 1.397 . S
C1759 C1760 1.334 . S
C1760 H1731 0.950 . S
C1760 C1759 1.334 . S
C1760 C1761 1.287 . S
C1761 C1760 1.287 . S
C1761 C1762 1.524 . S
C1761 H1764 0.999 . S
C1762 H1732 0.950 . S
C1762 C1761 1.524 . S
C1762 C1763 1.415 . S
C1763 H1733 0.950 . S
C1763 C1758 1.363 . S
C1763 C1762 1.415 . S
H1764 C1761 0.999 . S
H1765 C1746 0.913 . S
H1766 C1784 0.951 . S
H1767 C1786 0.951 . S
H1768 C1788 0.950 . S
H1769 C1789 0.950 . S
H1770 C1791 0.950 . S
H1771 C1794 0.950 . S
H1772 C1795 0.950 . S
H1773 C1797 0.950 . S
H1774 C1798 0.950 . S
H1775 C1799 0.951 . S
H1776 C1801 0.951 . S
H1777 C1803 0.950 . S
H1778 C1804 0.950 . S
H1779 C1806 0.950 . S
H1780 C1809 0.950 . S
H1781 C1810 0.950 . S
H1782 C1812 0.950 . S
H1783 C1813 0.950 . S
C1784 H1766 0.951 . S
C1784 C1785 1.366 . S
C1784 C1786 1.388 . S
C1785 C1784 1.366 . S
C1785 C1789 1.385 . S
C1786 H1767 0.951 . S
C1786 C1784 1.388 . S
C1786 C1787 1.366 . S
C1787 C1786 1.366 . S
C1787 C1788 1.414 . S
C1787 C1790 1.499 . S
C1788 H1768 0.950 . S
C1788 C1787 1.414 . S
C1788 C1789 1.374 . S
C1789 H1769 0.950 . S
C1789 C1785 1.385 . S
C1789 C1788 1.374 . S
C1790 C1787 1.499 . S
C1790 C1791 1.373 . S
C1790 C1792 1.389 . S
C1791 H1770 0.950 . S
C1791 C1790 1.373 . S
C1791 C1807 1.377 . S
C1792 C1790 1.389 . S
C1792 C1793 1.524 . S
C1792 C1806 1.377 . S
C1793 C1792 1.524 . S
C1793 C1794 1.397 . S
C1793 C1798 1.363 . S
C1794 H1771 0.950 . S
C1794 C1793 1.397 . S
C1794 C1795 1.334 . S
C1795 H1772 0.950 . S
C1795 C1794 1.334 . S
C1795 C1796 1.287 . S
C1796 C1795 1.287 . S
C1796 C1797 1.524 . S
C1796 H1815 0.913 . S
C1797 H1773 0.950 . S
C1797 C1796 1.524 . S
C1797 C1798 1.415 . S
C1798 H1774 0.950 . S
C1798 C1793 1.363 . S
C1798 C1797 1.415 . S
C1799 H1775 0.951 . S
C1799 C1800 1.366 . S
C1799 C1801 1.388 . S
C1800 C1799 1.366 . S
C1800 C1804 1.385 . S
C1801 H1776 0.951 . S
C1801 C1799 1.388 . S
C1801 C1802 1.366 . S
C1802 C1801 1.366 . S
C1802 C1803 1.414 . S
C1802 C1805 1.499 . S
C1803 H1777 0.950 . S
C1803 C1802 1.414 . S
C1803 C1804 1.374 . S
C1804 H1778 0.950 . S
C1804 C1800 1.385 . S
C1804 C1803 1.374 . S
C1805 C1802 1.499 . S
C1805 C1806 1.373 . S
C1805 C1807 1.389 . S
C1806 H1779 0.950 . S
C1806 C1792 1.377 . S
C1806 C1805 1.373 . S
C1807 C1791 1.377 . S
C1807 C1805 1.389 . S
C1807 C1808 1.524 . S
C1808 C1807 1.524 . S
C1808 C1809 1.397 . S
C1808 C1813 1.363 . S
C1809 H1780 0.950 . S
C1809 C1808 1.397 . S
C1809 C1810 1.334 . S
C1810 H1781 0.950 . S
C1810 C1809 1.334 . S
C1810 C1811 1.287 . S
C1811 C1810 1.287 . S
C1811 C1812 1.524 . S
C1811 H1814 0.999 . S
C1812 H1782 0.950 . S
C1812 C1811 1.524 . S
C1812 C1813 1.415 . S
C1813 H1783 0.950 . S
C1813 C1808 1.363 . S
C1813 C1812 1.415 . S
H1814 C1811 0.999 . S
H1815 C1796 0.913 . S
H1816 C1834 0.951 . S
H1817 C1836 0.951 . S
H1818 C1838 0.950 . S
H1819 C1839 0.950 . S
H1820 C1841 0.950 . S
H1821 C1844 0.950 . S
H1822 C1845 0.950 . S
H1823 C1847 0.950 . S
H1824 C1848 0.950 . S
H1825 C1849 0.951 . S
H1826 C1851 0.951 . S
H1827 C1853 0.950 . S
H1828 C1854 0.950 . S
H1829 C1856 0.950 . S
H1830 C1859 0.950 . S
H1831 C1860 0.950 . S
H1832 C1862 0.950 . S
H1833 C1863 0.950 . S
C1834 H1816 0.951 . S
C1834 C1835 1.366 . S
C1834 C1836 1.388 . S
C1835 C1834 1.366 . S
C1835 C1839 1.385 . S
C1836 H1817 0.951 . S
C1836 C1834 1.388 . S
C1836 C1837 1.366 . S
C1837 C1836 1.366 . S
C1837 C1838 1.414 . S
C1837 C1840 1.499 . S
C1838 H1818 0.950 . S
C1838 C1837 1.414 . S
C1838 C1839 1.374 . S
C1839 H1819 0.950 . S
C1839 C1835 1.385 . S
C1839 C1838 1.374 . S
C1840 C1837 1.499 . S
C1840 C1841 1.373 . S
C1840 C1842 1.389 . S
C1841 H1820 0.950 . S
C1841 C1840 1.373 . S
C1841 C1857 1.377 . S
C1842 C1840 1.389 . S
C1842 C1843 1.524 . S
C1842 C1856 1.377 . S
C1843 C1842 1.524 . S
C1843 C1844 1.397 . S
C1843 C1848 1.363 . S
C1844 H1821 0.950 . S
C1844 C1843 1.397 . S
C1844 C1845 1.334 . S
C1845 H1822 0.950 . S
C1845 C1844 1.334 . S
C1845 C1846 1.287 . S
C1846 C1845 1.287 . S
C1846 C1847 1.524 . S
C1846 H1865 0.913 . S
C1847 H1823 0.950 . S
C1847 C1846 1.524 . S
C1847 C1848 1.415 . S
C1848 H1824 0.950 . S
C1848 C1843 1.363 . S
C1848 C1847 1.415 . S
C1849 H1825 0.951 . S
C1849 C1850 1.366 . S
C1849 C1851 1.388 . S
C1850 C1849 1.366 . S
C1850 C1854 1.385 . S
C1851 H1826 0.951 . S
C1851 C1849 1.388 . S
C1851 C1852 1.366 . S
C1852 C1851 1.366 . S
C1852 C1853 1.414 . S
C1852 C1855 1.499 . S
C1853 H1827 0.950 . S
C1853 C1852 1.414 . S
C1853 C1854 1.374 . S
C1854 H1828 0.950 . S
C1854 C1850 1.385 . S
C1854 C1853 1.374 . S
C1855 C1852 1.499 . S
C1855 C1856 1.373 . S
C1855 C1857 1.389 . S
C1856 H1829 0.950 . S
C1856 C1842 1.377 . S
C1856 C1855 1.373 . S
C1857 C1841 1.377 . S
C1857 C1855 1.389 . S
C1857 C1858 1.524 . S
C1858 C1857 1.524 . S
C1858 C1859 1.397 . S
C1858 C1863 1.363 . S
C1859 H1830 0.950 . S
C1859 C1858 1.397 . S
C1859 C1860 1.334 . S
C1860 H1831 0.950 . S
C1860 C1859 1.334 . S
C1860 C1861 1.287 . S
C1861 C1860 1.287 . S
C1861 C1862 1.524 . S
C1861 H1864 0.999 . S
C1862 H1832 0.950 . S
C1862 C1861 1.524 . S
C1862 C1863 1.415 . S
C1863 H1833 0.950 . S
C1863 C1858 1.363 . S
C1863 C1862 1.415 . S
H1864 C1861 0.999 . S
H1865 C1846 0.913 . S
H1866 C1884 0.951 . S
H1867 C1886 0.951 . S
H1868 C1888 0.950 . S
H1869 C1889 0.950 . S
H1870 C1891 0.950 . S
H1871 C1894 0.950 . S
H1872 C1895 0.950 . S
H1873 C1897 0.950 . S
H1874 C1898 0.950 . S
H1875 C1899 0.951 . S
H1876 C1901 0.951 . S
H1877 C1903 0.950 . S
H1878 C1904 0.950 . S
H1879 C1906 0.950 . S
H1880 C1909 0.950 . S
H1881 C1910 0.950 . S
H1882 C1912 0.950 1_556 S
H1883 C1913 0.950 . S
C1884 H1866 0.951 . S
C1884 C1885 1.366 . S
C1884 C1886 1.388 . S
C1885 C1884 1.366 . S
C1885 C1889 1.385 . S
C1886 H1867 0.951 . S
C1886 C1884 1.388 . S
C1886 C1887 1.366 . S
C1887 C1886 1.366 . S
C1887 C1888 1.414 . S
C1887 C1890 1.499 . S
C1888 H1868 0.950 . S
C1888 C1887 1.414 . S
C1888 C1889 1.374 . S
C1889 H1869 0.950 . S
C1889 C1885 1.385 . S
C1889 C1888 1.374 . S
C1890 C1887 1.499 . S
C1890 C1891 1.373 . S
C1890 C1892 1.389 . S
C1891 H1870 0.950 . S
C1891 C1890 1.373 . S
C1891 C1907 1.377 1_655 S
C1892 C1890 1.389 . S
C1892 C1893 1.524 . S
C1892 C1906 1.377 1_655 S
C1893 C1892 1.524 . S
C1893 C1894 1.397 . S
C1893 C1898 1.363 . S
C1894 H1871 0.950 . S
C1894 C1893 1.397 . S
C1894 C1895 1.334 . S
C1895 H1872 0.950 . S
C1895 C1894 1.334 . S
C1895 C1896 1.287 . S
C1896 C1895 1.287 . S
C1896 C1897 1.524 . S
C1896 H1915 0.913 . S
C1897 H1873 0.950 . S
C1897 C1896 1.524 . S
C1897 C1898 1.415 . S
C1898 H1874 0.950 . S
C1898 C1893 1.363 . S
C1898 C1897 1.415 . S
C1899 H1875 0.951 . S
C1899 C1900 1.366 . S
C1899 C1901 1.388 . S
C1900 C1899 1.366 . S
C1900 C1904 1.385 . S
C1901 H1876 0.951 . S
C1901 C1899 1.388 . S
C1901 C1902 1.366 . S
C1902 C1901 1.366 . S
C1902 C1903 1.414 . S
C1902 C1905 1.499 . S
C1903 H1877 0.950 . S
C1903 C1902 1.414 . S
C1903 C1904 1.374 . S
C1904 H1878 0.950 . S
C1904 C1900 1.385 . S
C1904 C1903 1.374 . S
C1905 C1902 1.499 . S
C1905 C1906 1.373 . S
C1905 C1907 1.389 . S
C1906 H1879 0.950 . S
C1906 C1892 1.377 1_455 S
C1906 C1905 1.373 . S
C1907 C1891 1.377 1_455 S
C1907 C1905 1.389 . S
C1907 C1908 1.524 . S
C1908 C1907 1.524 . S
C1908 C1909 1.397 . S
C1908 C1913 1.363 . S
C1909 H1880 0.950 . S
C1909 C1908 1.397 . S
C1909 C1910 1.334 . S
C1910 H1881 0.950 . S
C1910 C1909 1.334 . S
C1910 C1911 1.287 . S
C1911 C1910 1.287 . S
C1911 C1912 1.524 . S
C1911 H1914 0.999 1_554 S
C1912 H1882 0.950 1_554 S
C1912 C1911 1.524 . S
C1912 C1913 1.415 . S
C1913 H1883 0.950 . S
C1913 C1908 1.363 . S
C1913 C1912 1.415 . S
H1914 C1911 0.999 1_556 S
H1915 C1896 0.913 . S
H1916 C1934 0.951 . S
H1917 C1936 0.951 . S
H1918 C1938 0.950 . S
H1919 C1939 0.950 . S
H1920 C1941 0.950 . S
H1921 C1944 0.950 . S
H1922 C1945 0.950 . S
H1923 C1947 0.950 . S
H1924 C1948 0.950 . S
H1925 C1949 0.951 . S
H1926 C1951 0.951 . S
H1927 C1953 0.950 . S
H1928 C1954 0.950 . S
H1929 C1956 0.950 . S
H1930 C1959 0.950 . S
H1931 C1960 0.950 . S
H1932 C1962 0.950 . S
H1933 C1963 0.950 . S
C1934 H1916 0.951 . S
C1934 C1935 1.366 . S
C1934 C1936 1.388 . S
C1935 C1934 1.366 . S
C1935 C1939 1.385 . S
C1936 H1917 0.951 . S
C1936 C1934 1.388 . S
C1936 C1937 1.366 . S
C1937 C1936 1.366 . S
C1937 C1938 1.414 . S
C1937 C1940 1.499 . S
C1938 H1918 0.950 . S
C1938 C1937 1.414 . S
C1938 C1939 1.374 . S
C1939 H1919 0.950 . S
C1939 C1935 1.385 . S
C1939 C1938 1.374 . S
C1940 C1937 1.499 . S
C1940 C1941 1.373 . S
C1940 C1942 1.389 . S
C1941 H1920 0.950 . S
C1941 C1940 1.373 . S
C1941 C1957 1.377 . S
C1942 C1940 1.389 . S
C1942 C1943 1.524 . S
C1942 C1956 1.377 . S
C1943 C1942 1.524 . S
C1943 C1944 1.397 . S
C1943 C1948 1.363 . S
C1944 H1921 0.950 . S
C1944 C1943 1.397 . S
C1944 C1945 1.334 . S
C1945 H1922 0.950 . S
C1945 C1944 1.334 . S
C1945 C1946 1.287 . S
C1946 C1945 1.287 . S
C1946 C1947 1.524 . S
C1946 H1965 0.913 . S
C1947 H1923 0.950 . S
C1947 C1946 1.524 . S
C1947 C1948 1.415 . S
C1948 H1924 0.950 . S
C1948 C1943 1.363 . S
C1948 C1947 1.415 . S
C1949 H1925 0.951 . S
C1949 C1950 1.366 . S
C1949 C1951 1.388 . S
C1950 C1949 1.366 . S
C1950 C1954 1.385 . S
C1951 H1926 0.951 . S
C1951 C1949 1.388 . S
C1951 C1952 1.366 . S
C1952 C1951 1.366 . S
C1952 C1953 1.414 . S
C1952 C1955 1.499 . S
C1953 H1927 0.950 . S
C1953 C1952 1.414 . S
C1953 C1954 1.374 . S
C1954 H1928 0.950 . S
C1954 C1950 1.385 . S
C1954 C1953 1.374 . S
C1955 C1952 1.499 . S
C1955 C1956 1.373 . S
C1955 C1957 1.389 . S
C1956 H1929 0.950 . S
C1956 C1942 1.377 . S
C1956 C1955 1.373 . S
C1957 C1941 1.377 . S
C1957 C1955 1.389 . S
C1957 C1958 1.524 . S
C1958 C1957 1.524 . S
C1958 C1959 1.397 . S
C1958 C1963 1.363 . S
C1959 H1930 0.950 . S
C1959 C1958 1.397 . S
C1959 C1960 1.334 . S
C1960 H1931 0.950 . S
C1960 C1959 1.334 . S
C1960 C1961 1.287 . S
C1961 C1960 1.287 . S
C1961 C1962 1.524 . S
C1961 H1964 0.999 . S
C1962 H1932 0.950 . S
C1962 C1961 1.524 . S
C1962 C1963 1.415 . S
C1963 H1933 0.950 . S
C1963 C1958 1.363 . S
C1963 C1962 1.415 . S
H1964 C1961 0.999 . S
H1965 C1946 0.913 . S
H1966 C1984 0.951 . S
H1967 C1986 0.951 . S
H1968 C1988 0.950 . S
H1969 C1989 0.950 . S
H1970 C1991 0.950 . S
H1971 C1994 0.950 . S
H1972 C1995 0.950 . S
H1973 C1997 0.950 . S
H1974 C1998 0.950 . S
H1975 C1999 0.951 . S
H1976 C2001 0.951 . S
H1977 C2003 0.950 . S
H1978 C2004 0.950 . S
H1979 C2006 0.950 . S
H1980 C2009 0.950 . S
H1981 C2010 0.950 . S
H1982 C2012 0.950 . S
H1983 C2013 0.950 . S
C1984 H1966 0.951 . S
C1984 C1985 1.366 . S
C1984 C1986 1.388 . S
C1985 C1984 1.366 . S
C1985 C1989 1.385 . S
C1986 H1967 0.951 . S
C1986 C1984 1.388 . S
C1986 C1987 1.366 . S
C1987 C1986 1.366 . S
C1987 C1988 1.414 . S
C1987 C1990 1.499 . S
C1988 H1968 0.950 . S
C1988 C1987 1.414 . S
C1988 C1989 1.374 . S
C1989 H1969 0.950 . S
C1989 C1985 1.385 . S
C1989 C1988 1.374 . S
C1990 C1987 1.499 . S
C1990 C1991 1.373 . S
C1990 C1992 1.389 . S
C1991 H1970 0.950 . S
C1991 C1990 1.373 . S
C1991 C2007 1.377 1_455 S
C1992 C1990 1.389 . S
C1992 C1993 1.524 . S
C1992 C2006 1.377 1_455 S
C1993 C1992 1.524 . S
C1993 C1994 1.397 . S
C1993 C1998 1.363 . S
C1994 H1971 0.950 . S
C1994 C1993 1.397 . S
C1994 C1995 1.334 . S
C1995 H1972 0.950 . S
C1995 C1994 1.334 . S
C1995 C1996 1.287 . S
C1996 C1995 1.287 . S
C1996 C1997 1.524 . S
C1996 H2015 0.913 . S
C1997 H1973 0.950 . S
C1997 C1996 1.524 . S
C1997 C1998 1.415 . S
C1998 H1974 0.950 . S
C1998 C1993 1.363 . S
C1998 C1997 1.415 . S
C1999 H1975 0.951 . S
C1999 C2000 1.366 . S
C1999 C2001 1.388 . S
C2000 C1999 1.366 . S
C2000 C2004 1.385 . S
C2001 H1976 0.951 . S
C2001 C1999 1.388 . S
C2001 C2002 1.366 . S
C2002 C2001 1.366 . S
C2002 C2003 1.414 . S
C2002 C2005 1.499 . S
C2003 H1977 0.950 . S
C2003 C2002 1.414 . S
C2003 C2004 1.374 . S
C2004 H1978 0.950 . S
C2004 C2000 1.385 . S
C2004 C2003 1.374 . S
C2005 C2002 1.499 . S
C2005 C2006 1.373 . S
C2005 C2007 1.389 . S
C2006 H1979 0.950 . S
C2006 C1992 1.377 1_655 S
C2006 C2005 1.373 . S
C2007 C1991 1.377 1_655 S
C2007 C2005 1.389 . S
C2007 C2008 1.524 . S
C2008 C2007 1.524 . S
C2008 C2009 1.397 . S
C2008 C2013 1.363 . S
C2009 H1980 0.950 . S
C2009 C2008 1.397 . S
C2009 C2010 1.334 . S
C2010 H1981 0.950 . S
C2010 C2009 1.334 . S
C2010 C2011 1.287 . S
C2011 C2010 1.287 . S
C2011 C2012 1.524 . S
C2011 H2014 0.999 . S
C2012 H1982 0.950 . S
C2012 C2011 1.524 . S
C2012 C2013 1.415 . S
C2013 H1983 0.950 . S
C2013 C2008 1.363 . S
C2013 C2012 1.415 . S
H2014 C2011 0.999 . S
H2015 C1996 0.913 . S
H2016 C2034 0.951 . S
H2017 C2036 0.951 . S
H2018 C2038 0.950 . S
H2019 C2039 0.950 . S
H2020 C2041 0.950 . S
H2021 C2044 0.894 1_556 S
H2022 C2045 0.950 1_556 S
H2023 C2047 0.950 . S
H2024 C2048 0.950 . S
H2025 C2049 0.951 . S
H2026 C2051 0.951 . S
H2027 C2053 0.950 . S
H2028 C2054 0.950 . S
H2029 C2056 0.950 . S
H2030 C2059 0.894 1_554 S
H2031 C2060 0.950 1_554 S
H2032 C2062 0.950 . S
H2033 C2063 0.950 . S
C2034 H2016 0.951 . S
C2034 C2035 1.366 . S
C2034 C2036 1.388 . S
C2035 C2034 1.366 . S
C2035 C2039 1.385 . S
C2036 H2017 0.951 . S
C2036 C2034 1.388 . S
C2036 C2037 1.366 . S
C2037 C2036 1.366 . S
C2037 C2038 1.414 . S
C2037 C2040 1.499 . S
C2038 H2018 0.950 . S
C2038 C2037 1.414 . S
C2038 C2039 1.374 . S
C2039 H2019 0.950 . S
C2039 C2035 1.385 . S
C2039 C2038 1.374 . S
C2040 C2037 1.499 . S
C2040 C2041 1.373 . S
C2040 C2042 1.389 1_556 S
C2041 H2020 0.950 . S
C2041 C2040 1.373 . S
C2041 C2057 1.377 . S
C2042 C2040 1.389 1_554 S
C2042 C2043 1.524 . S
C2042 C2056 1.377 . S
C2043 C2042 1.524 . S
C2043 C2044 1.435 . S
C2043 C2048 1.363 . S
C2044 H2021 0.894 1_554 S
C2044 C2043 1.435 . S
C2044 C2045 1.353 . S
C2045 H2022 0.950 1_554 S
C2045 C2044 1.353 . S
C2045 C2046 1.287 . S
C2046 C2045 1.287 . S
C2046 C2047 1.524 . S
C2046 H2065 0.913 . S
C2047 H2023 0.950 . S
C2047 C2046 1.524 . S
C2047 C2048 1.415 . S
C2048 H2024 0.950 . S
C2048 C2043 1.363 . S
C2048 C2047 1.415 . S
C2049 H2025 0.951 . S
C2049 C2050 1.366 . S
C2049 C2051 1.388 . S
C2050 C2049 1.366 . S
C2050 C2054 1.385 . S
C2051 H2026 0.951 . S
C2051 C2049 1.388 . S
C2051 C2052 1.366 . S
C2052 C2051 1.366 . S
C2052 C2053 1.414 . S
C2052 C2055 1.499 . S
C2053 H2027 0.950 . S
C2053 C2052 1.414 . S
C2053 C2054 1.374 . S
C2054 H2028 0.950 . S
C2054 C2050 1.385 . S
C2054 C2053 1.374 . S
C2055 C2052 1.499 . S
C2055 C2056 1.373 . S
C2055 C2057 1.389 1_554 S
C2056 H2029 0.950 . S
C2056 C2042 1.377 . S
C2056 C2055 1.373 . S
C2057 C2041 1.377 . S
C2057 C2055 1.389 1_556 S
C2057 C2058 1.524 . S
C2058 C2057 1.524 . S
C2058 C2059 1.436 . S
C2058 C2063 1.363 . S
C2059 H2030 0.894 1_556 S
C2059 C2058 1.436 . S
C2059 C2060 1.353 . S
C2060 H2031 0.950 1_556 S
C2060 C2059 1.353 . S
C2060 C2061 1.287 . S
C2061 C2060 1.287 . S
C2061 C2062 1.524 . S
C2061 H2064 0.999 . S
C2062 H2032 0.950 . S
C2062 C2061 1.524 . S
C2062 C2063 1.415 . S
C2063 H2033 0.950 . S
C2063 C2058 1.363 . S
C2063 C2062 1.415 . S
H2064 C2061 0.999 . S
H2065 C2046 0.913 . S
H2066 C2084 0.951 . S
H2067 C2086 0.951 . S
H2068 C2088 0.950 . S
H2069 C2089 0.950 . S
H2070 C2091 0.950 . S
H2071 C2094 0.950 . S
H2072 C2095 0.950 . S
H2073 C2097 0.950 . S
H2074 C2098 0.950 . S
H2075 C2099 0.951 . S
H2076 C2101 0.951 . S
H2077 C2103 0.950 . S
H2078 C2104 0.950 . S
H2079 C2106 0.950 . S
H2080 C2109 0.950 . S
H2081 C2110 0.950 . S
H2082 C2112 0.950 . S
H2083 C2113 0.950 . S
C2084 H2066 0.951 . S
C2084 C2085 1.366 . S
C2084 C2086 1.388 . S
C2085 C2084 1.366 . S
C2085 C2089 1.385 . S
C2086 H2067 0.951 . S
C2086 C2084 1.388 . S
C2086 C2087 1.366 . S
C2087 C2086 1.366 . S
C2087 C2088 1.414 . S
C2087 C2090 1.499 . S
C2088 H2068 0.950 . S
C2088 C2087 1.414 . S
C2088 C2089 1.374 . S
C2089 H2069 0.950 . S
C2089 C2085 1.385 . S
C2089 C2088 1.374 . S
C2090 C2087 1.499 . S
C2090 C2091 1.373 . S
C2090 C2092 1.389 . S
C2091 H2070 0.950 . S
C2091 C2090 1.373 . S
C2091 C2107 1.377 . S
C2092 C2090 1.389 . S
C2092 C2093 1.524 . S
C2092 C2106 1.377 . S
C2093 C2092 1.524 . S
C2093 C2094 1.397 . S
C2093 C2098 1.363 . S
C2094 H2071 0.950 . S
C2094 C2093 1.397 . S
C2094 C2095 1.334 . S
C2095 H2072 0.950 . S
C2095 C2094 1.334 . S
C2095 C2096 1.287 . S
C2096 C2095 1.287 . S
C2096 C2097 1.524 . S
C2096 H2115 0.913 . S
C2097 H2073 0.950 . S
C2097 C2096 1.524 . S
C2097 C2098 1.415 . S
C2098 H2074 0.950 . S
C2098 C2093 1.363 . S
C2098 C2097 1.415 . S
C2099 H2075 0.951 . S
C2099 C2100 1.366 . S
C2099 C2101 1.388 . S
C2100 C2099 1.366 . S
C2100 C2104 1.385 . S
C2101 H2076 0.951 . S
C2101 C2099 1.388 . S
C2101 C2102 1.366 . S
C2102 C2101 1.366 . S
C2102 C2103 1.414 . S
C2102 C2105 1.499 . S
C2103 H2077 0.950 . S
C2103 C2102 1.414 . S
C2103 C2104 1.374 . S
C2104 H2078 0.950 . S
C2104 C2100 1.385 . S
C2104 C2103 1.374 . S
C2105 C2102 1.499 . S
C2105 C2106 1.373 . S
C2105 C2107 1.389 . S
C2106 H2079 0.950 . S
C2106 C2092 1.377 . S
C2106 C2105 1.373 . S
C2107 C2091 1.377 . S
C2107 C2105 1.389 . S
C2107 C2108 1.524 . S
C2108 C2107 1.524 . S
C2108 C2109 1.397 . S
C2108 C2113 1.363 . S
C2109 H2080 0.950 . S
C2109 C2108 1.397 . S
C2109 C2110 1.334 . S
C2110 H2081 0.950 . S
C2110 C2109 1.334 . S
C2110 C2111 1.287 . S
C2111 C2110 1.287 . S
C2111 C2112 1.524 . S
C2111 H2114 0.999 . S
C2112 H2082 0.950 . S
C2112 C2111 1.524 . S
C2112 C2113 1.415 . S
C2113 H2083 0.950 . S
C2113 C2108 1.363 . S
C2113 C2112 1.415 . S
H2114 C2111 0.999 . S
H2115 C2096 0.913 . S
H2116 C2134 0.951 . S
H2117 C2136 0.951 . S
H2118 C2138 0.950 . S
H2119 C2139 0.950 . S
H2120 C2141 0.950 . S
H2121 C2144 0.950 . S
H2122 C2145 0.950 . S
H2123 C2147 0.950 . S
H2124 C2148 0.950 . S
H2125 C2149 0.951 . S
H2126 C2151 0.951 . S
H2127 C2153 0.950 . S
H2128 C2154 0.950 . S
H2129 C2156 0.950 . S
H2130 C2159 0.950 . S
H2131 C2160 0.950 . S
H2132 C2162 0.950 . S
H2133 C2163 0.950 . S
C2134 H2116 0.951 . S
C2134 C2135 1.366 . S
C2134 C2136 1.388 . S
C2135 C2134 1.366 . S
C2135 C2139 1.385 . S
C2136 H2117 0.951 . S
C2136 C2134 1.388 . S
C2136 C2137 1.366 . S
C2137 C2136 1.366 . S
C2137 C2138 1.414 . S
C2137 C2140 1.499 . S
C2138 H2118 0.950 . S
C2138 C2137 1.414 . S
C2138 C2139 1.374 . S
C2139 H2119 0.950 . S
C2139 C2135 1.385 . S
C2139 C2138 1.374 . S
C2140 C2137 1.499 . S
C2140 C2141 1.373 . S
C2140 C2142 1.389 . S
C2141 H2120 0.950 . S
C2141 C2140 1.373 . S
C2141 C2157 1.377 . S
C2142 C2140 1.389 . S
C2142 C2143 1.524 . S
C2142 C2156 1.377 . S
C2143 C2142 1.524 . S
C2143 C2144 1.397 . S
C2143 C2148 1.363 . S
C2144 H2121 0.950 . S
C2144 C2143 1.397 . S
C2144 C2145 1.334 . S
C2145 H2122 0.950 . S
C2145 C2144 1.334 . S
C2145 C2146 1.287 . S
C2146 C2145 1.287 . S
C2146 C2147 1.524 . S
C2146 H2165 0.913 . S
C2147 H2123 0.950 . S
C2147 C2146 1.524 . S
C2147 C2148 1.415 . S
C2148 H2124 0.950 . S
C2148 C2143 1.363 . S
C2148 C2147 1.415 . S
C2149 H2125 0.951 . S
C2149 C2150 1.366 . S
C2149 C2151 1.388 . S
C2150 C2149 1.366 . S
C2150 C2154 1.385 . S
C2151 H2126 0.951 . S
C2151 C2149 1.388 . S
C2151 C2152 1.366 . S
C2152 C2151 1.366 . S
C2152 C2153 1.414 . S
C2152 C2155 1.499 . S
C2153 H2127 0.950 . S
C2153 C2152 1.414 . S
C2153 C2154 1.374 . S
C2154 H2128 0.950 . S
C2154 C2150 1.385 . S
C2154 C2153 1.374 . S
C2155 C2152 1.499 . S
C2155 C2156 1.373 . S
C2155 C2157 1.389 . S
C2156 H2129 0.950 . S
C2156 C2142 1.377 . S
C2156 C2155 1.373 . S
C2157 C2141 1.377 . S
C2157 C2155 1.389 . S
C2157 C2158 1.524 . S
C2158 C2157 1.524 . S
C2158 C2159 1.397 . S
C2158 C2163 1.363 . S
C2159 H2130 0.950 . S
C2159 C2158 1.397 . S
C2159 C2160 1.334 . S
C2160 H2131 0.950 . S
C2160 C2159 1.334 . S
C2160 C2161 1.287 . S
C2161 C2160 1.287 . S
C2161 C2162 1.524 . S
C2161 H2164 0.999 . S
C2162 H2132 0.950 . S
C2162 C2161 1.524 . S
C2162 C2163 1.415 . S
C2163 H2133 0.950 . S
C2163 C2158 1.363 . S
C2163 C2162 1.415 . S
H2164 C2161 0.999 . S
H2165 C2146 0.913 . S
H2166 C2184 0.951 . S
H2167 C2186 0.951 . S
H2168 C2188 0.950 . S
H2169 C2189 0.950 . S
H2170 C2191 0.950 . S
H2171 C2194 0.950 . S
H2172 C2195 0.950 . S
H2173 C2197 0.950 . S
H2174 C2198 0.950 . S
H2175 C2199 0.951 . S
H2176 C2201 0.951 . S
H2177 C2203 0.950 . S
H2178 C2204 0.950 . S
H2179 C2206 0.950 . S
H2180 C2209 0.950 . S
H2181 C2210 0.950 . S
H2182 C2212 0.950 . S
H2183 C2213 0.950 . S
C2184 H2166 0.951 . S
C2184 C2185 1.366 . S
C2184 C2186 1.388 . S
C2185 C2184 1.366 . S
C2185 C2189 1.385 . S
C2186 H2167 0.951 . S
C2186 C2184 1.388 . S
C2186 C2187 1.366 . S
C2187 C2186 1.366 . S
C2187 C2188 1.414 . S
C2187 C2190 1.499 . S
C2188 H2168 0.950 . S
C2188 C2187 1.414 . S
C2188 C2189 1.374 . S
C2189 H2169 0.950 . S
C2189 C2185 1.385 . S
C2189 C2188 1.374 . S
C2190 C2187 1.499 . S
C2190 C2191 1.373 . S
C2190 C2192 1.389 . S
C2191 H2170 0.950 . S
C2191 C2190 1.373 . S
C2191 C2207 1.377 . S
C2192 C2190 1.389 . S
C2192 C2193 1.524 . S
C2192 C2206 1.377 . S
C2193 C2192 1.524 . S
C2193 C2194 1.397 . S
C2193 C2198 1.363 . S
C2194 H2171 0.950 . S
C2194 C2193 1.397 . S
C2194 C2195 1.334 . S
C2195 H2172 0.950 . S
C2195 C2194 1.334 . S
C2195 C2196 1.287 . S
C2196 C2195 1.287 . S
C2196 C2197 1.524 . S
C2196 H2215 0.913 . S
C2197 H2173 0.950 . S
C2197 C2196 1.524 . S
C2197 C2198 1.415 . S
C2198 H2174 0.950 . S
C2198 C2193 1.363 . S
C2198 C2197 1.415 . S
C2199 H2175 0.951 . S
C2199 C2200 1.366 . S
C2199 C2201 1.388 . S
C2200 C2199 1.366 . S
C2200 C2204 1.385 . S
C2201 H2176 0.951 . S
C2201 C2199 1.388 . S
C2201 C2202 1.366 . S
C2202 C2201 1.366 . S
C2202 C2203 1.414 . S
C2202 C2205 1.499 . S
C2203 H2177 0.950 . S
C2203 C2202 1.414 . S
C2203 C2204 1.374 . S
C2204 H2178 0.950 . S
C2204 C2200 1.385 . S
C2204 C2203 1.374 . S
C2205 C2202 1.499 . S
C2205 C2206 1.373 . S
C2205 C2207 1.389 . S
C2206 H2179 0.950 . S
C2206 C2192 1.377 . S
C2206 C2205 1.373 . S
C2207 C2191 1.377 . S
C2207 C2205 1.389 . S
C2207 C2208 1.524 . S
C2208 C2207 1.524 . S
C2208 C2209 1.397 . S
C2208 C2213 1.363 . S
C2209 H2180 0.950 . S
C2209 C2208 1.397 . S
C2209 C2210 1.334 . S
C2210 H2181 0.950 . S
C2210 C2209 1.334 . S
C2210 C2211 1.287 . S
C2211 C2210 1.287 . S
C2211 C2212 1.524 . S
C2211 H2214 0.999 . S
C2212 H2182 0.950 . S
C2212 C2211 1.524 . S
C2212 C2213 1.415 . S
C2213 H2183 0.950 . S
C2213 C2208 1.363 . S
C2213 C2212 1.415 . S
H2214 C2211 0.999 . S
H2215 C2196 0.913 . S
H2216 C2234 0.951 . S
H2217 C2236 0.951 . S
H2218 C2238 0.950 . S
H2219 C2239 0.950 . S
H2220 C2241 0.950 . S
H2221 C2244 0.950 1_554 S
H2222 C2245 0.950 . S
H2223 C2247 0.950 . S
H2224 C2248 0.950 . S
H2225 C2249 0.951 . S
H2226 C2251 0.951 . S
H2227 C2253 0.950 . S
H2228 C2254 0.950 . S
H2229 C2256 0.950 . S
H2230 C2259 0.950 1_556 S
H2231 C2260 0.950 . S
H2232 C2262 0.950 . S
H2233 C2263 0.950 . S
C2234 H2216 0.951 . S
C2234 C2235 1.366 . S
C2234 C2236 1.388 . S
C2235 C2234 1.366 . S
C2235 C2239 1.385 . S
C2236 H2217 0.951 . S
C2236 C2234 1.388 . S
C2236 C2237 1.366 . S
C2237 C2236 1.366 . S
C2237 C2238 1.414 . S
C2237 C2240 1.499 . S
C2238 H2218 0.950 . S
C2238 C2237 1.414 . S
C2238 C2239 1.374 . S
C2239 H2219 0.950 . S
C2239 C2235 1.385 . S
C2239 C2238 1.374 . S
C2240 C2237 1.499 . S
C2240 C2241 1.373 . S
C2240 C2242 1.389 1_554 S
C2241 H2220 0.950 . S
C2241 C2240 1.373 . S
C2241 C2257 1.377 . S
C2242 C2240 1.389 1_556 S
C2242 C2243 1.524 . S
C2242 C2256 1.377 . S
C2243 C2242 1.524 . S
C2243 C2244 1.397 . S
C2243 C2248 1.363 . S
C2244 H2221 0.950 1_556 S
C2244 C2243 1.397 . S
C2244 C2245 1.334 . S
C2245 H2222 0.950 . S
C2245 C2244 1.334 . S
C2245 C2246 1.287 . S
C2246 C2245 1.287 . S
C2246 C2247 1.524 . S
C2246 H2265 0.913 . S
C2247 H2223 0.950 . S
C2247 C2246 1.524 . S
C2247 C2248 1.415 . S
C2248 H2224 0.950 . S
C2248 C2243 1.363 . S
C2248 C2247 1.415 . S
C2249 H2225 0.951 . S
C2249 C2250 1.366 . S
C2249 C2251 1.388 . S
C2250 C2249 1.366 . S
C2250 C2254 1.385 . S
C2251 H2226 0.951 . S
C2251 C2249 1.388 . S
C2251 C2252 1.366 . S
C2252 C2251 1.366 . S
C2252 C2253 1.414 . S
C2252 C2255 1.499 . S
C2253 H2227 0.950 . S
C2253 C2252 1.414 . S
C2253 C2254 1.374 . S
C2254 H2228 0.950 . S
C2254 C2250 1.385 . S
C2254 C2253 1.374 . S
C2255 C2252 1.499 . S
C2255 C2256 1.373 . S
C2255 C2257 1.389 1_556 S
C2256 H2229 0.950 . S
C2256 C2242 1.377 . S
C2256 C2255 1.373 . S
C2257 C2241 1.377 . S
C2257 C2255 1.389 1_554 S
C2257 C2258 1.524 . S
C2258 C2257 1.524 . S
C2258 C2259 1.397 . S
C2258 C2263 1.363 . S
C2259 H2230 0.950 1_554 S
C2259 C2258 1.397 . S
C2259 C2260 1.334 . S
C2260 H2231 0.950 . S
C2260 C2259 1.334 . S
C2260 C2261 1.287 . S
C2261 C2260 1.287 . S
C2261 C2262 1.524 . S
C2261 H2264 0.999 . S
C2262 H2232 0.950 . S
C2262 C2261 1.524 . S
C2262 C2263 1.415 . S
C2263 H2233 0.950 . S
C2263 C2258 1.363 . S
C2263 C2262 1.415 . S
H2264 C2261 0.999 . S
H2265 C2246 0.913 . S
H2266 C2284 0.951 . S
H2267 C2286 0.951 . S
H2268 C2288 0.950 . S
H2269 C2289 0.950 . S
H2270 C2291 0.950 . S
H2271 C2294 0.950 . S
H2272 C2295 0.950 . S
H2273 C2297 0.950 . S
H2274 C2298 0.950 . S
H2275 C2299 0.951 . S
H2276 C2301 0.951 . S
H2277 C2303 0.950 . S
H2278 C2304 0.950 . S
H2279 C2306 0.950 . S
H2280 C2309 0.950 . S
H2281 C2310 0.950 . S
H2282 C2312 0.950 . S
H2283 C2313 0.950 . S
C2284 H2266 0.951 . S
C2284 C2285 1.366 . S
C2284 C2286 1.388 . S
C2285 C2284 1.366 . S
C2285 C2289 1.385 . S
C2286 H2267 0.951 . S
C2286 C2284 1.388 . S
C2286 C2287 1.366 . S
C2287 C2286 1.366 . S
C2287 C2288 1.414 . S
C2287 C2290 1.499 . S
C2288 H2268 0.950 . S
C2288 C2287 1.414 . S
C2288 C2289 1.374 . S
C2289 H2269 0.950 . S
C2289 C2285 1.385 . S
C2289 C2288 1.374 . S
C2290 C2287 1.499 . S
C2290 C2291 1.373 . S
C2290 C2292 1.389 . S
C2291 H2270 0.950 . S
C2291 C2290 1.373 . S
C2291 C2307 1.377 . S
C2292 C2290 1.389 . S
C2292 C2293 1.524 . S
C2292 C2306 1.377 . S
C2293 C2292 1.524 . S
C2293 C2294 1.397 . S
C2293 C2298 1.363 . S
C2294 H2271 0.950 . S
C2294 C2293 1.397 . S
C2294 C2295 1.334 . S
C2295 H2272 0.950 . S
C2295 C2294 1.334 . S
C2295 C2296 1.287 . S
C2296 C2295 1.287 . S
C2296 C2297 1.524 . S
C2296 H2315 0.913 . S
C2297 H2273 0.950 . S
C2297 C2296 1.524 . S
C2297 C2298 1.415 . S
C2298 H2274 0.950 . S
C2298 C2293 1.363 . S
C2298 C2297 1.415 . S
C2299 H2275 0.951 . S
C2299 C2300 1.366 . S
C2299 C2301 1.388 . S
C2300 C2299 1.366 . S
C2300 C2304 1.385 . S
C2301 H2276 0.951 . S
C2301 C2299 1.388 . S
C2301 C2302 1.366 . S
C2302 C2301 1.366 . S
C2302 C2303 1.414 . S
C2302 C2305 1.499 . S
C2303 H2277 0.950 . S
C2303 C2302 1.414 . S
C2303 C2304 1.374 . S
C2304 H2278 0.950 . S
C2304 C2300 1.385 . S
C2304 C2303 1.374 . S
C2305 C2302 1.499 . S
C2305 C2306 1.373 . S
C2305 C2307 1.389 . S
C2306 H2279 0.950 . S
C2306 C2292 1.377 . S
C2306 C2305 1.373 . S
C2307 C2291 1.377 . S
C2307 C2305 1.389 . S
C2307 C2308 1.524 . S
C2308 C2307 1.524 . S
C2308 C2309 1.397 . S
C2308 C2313 1.363 . S
C2309 H2280 0.950 . S
C2309 C2308 1.397 . S
C2309 C2310 1.334 . S
C2310 H2281 0.950 . S
C2310 C2309 1.334 . S
C2310 C2311 1.287 . S
C2311 C2310 1.287 . S
C2311 C2312 1.524 . S
C2311 H2314 0.999 . S
C2312 H2282 0.950 . S
C2312 C2311 1.524 . S
C2312 C2313 1.415 . S
C2313 H2283 0.950 . S
C2313 C2308 1.363 . S
C2313 C2312 1.415 . S
H2314 C2311 0.999 . S
H2315 C2296 0.913 . S
H2316 C2334 0.951 . S
H2317 C2336 0.951 . S
H2318 C2338 0.950 . S
H2319 C2339 0.950 . S
H2320 C2341 0.950 . S
H2321 C2344 0.950 . S
H2322 C2345 0.950 . S
H2323 C2347 0.950 . S
H2324 C2348 0.950 . S
H2325 C2349 0.951 . S
H2326 C2351 0.951 . S
H2327 C2353 0.950 . S
H2328 C2354 0.950 . S
H2329 C2356 0.950 . S
H2330 C2359 0.950 . S
H2331 C2360 0.950 . S
H2332 C2362 0.950 . S
H2333 C2363 0.950 . S
C2334 H2316 0.951 . S
C2334 C2335 1.366 . S
C2334 C2336 1.388 . S
C2335 C2334 1.366 . S
C2335 C2339 1.385 . S
C2336 H2317 0.951 . S
C2336 C2334 1.388 . S
C2336 C2337 1.366 . S
C2337 C2336 1.366 . S
C2337 C2338 1.414 . S
C2337 C2340 1.499 . S
C2338 H2318 0.950 . S
C2338 C2337 1.414 . S
C2338 C2339 1.374 . S
C2339 H2319 0.950 . S
C2339 C2335 1.385 . S
C2339 C2338 1.374 . S
C2340 C2337 1.499 . S
C2340 C2341 1.373 . S
C2340 C2342 1.389 . S
C2341 H2320 0.950 . S
C2341 C2340 1.373 . S
C2341 C2357 1.377 . S
C2342 C2340 1.389 . S
C2342 C2343 1.524 . S
C2342 C2356 1.377 . S
C2343 C2342 1.524 . S
C2343 C2344 1.397 . S
C2343 C2348 1.363 . S
C2344 H2321 0.950 . S
C2344 C2343 1.397 . S
C2344 C2345 1.334 . S
C2345 H2322 0.950 . S
C2345 C2344 1.334 . S
C2345 C2346 1.287 . S
C2346 C2345 1.287 . S
C2346 C2347 1.524 . S
C2346 H2365 0.913 . S
C2347 H2323 0.950 . S
C2347 C2346 1.524 . S
C2347 C2348 1.415 . S
C2348 H2324 0.950 . S
C2348 C2343 1.363 . S
C2348 C2347 1.415 . S
C2349 H2325 0.951 . S
C2349 C2350 1.366 . S
C2349 C2351 1.388 . S
C2350 C2349 1.366 . S
C2350 C2354 1.385 . S
C2351 H2326 0.951 . S
C2351 C2349 1.388 . S
C2351 C2352 1.366 . S
C2352 C2351 1.366 . S
C2352 C2353 1.414 . S
C2352 C2355 1.499 . S
C2353 H2327 0.950 . S
C2353 C2352 1.414 . S
C2353 C2354 1.374 . S
C2354 H2328 0.950 . S
C2354 C2350 1.385 . S
C2354 C2353 1.374 . S
C2355 C2352 1.499 . S
C2355 C2356 1.373 . S
C2355 C2357 1.389 . S
C2356 H2329 0.950 . S
C2356 C2342 1.377 . S
C2356 C2355 1.373 . S
C2357 C2341 1.377 . S
C2357 C2355 1.389 . S
C2357 C2358 1.524 . S
C2358 C2357 1.524 . S
C2358 C2359 1.397 . S
C2358 C2363 1.363 . S
C2359 H2330 0.950 . S
C2359 C2358 1.397 . S
C2359 C2360 1.334 . S
C2360 H2331 0.950 . S
C2360 C2359 1.334 . S
C2360 C2361 1.287 . S
C2361 C2360 1.287 . S
C2361 C2362 1.524 . S
C2361 H2364 0.999 . S
C2362 H2332 0.950 . S
C2362 C2361 1.524 . S
C2362 C2363 1.415 . S
C2363 H2333 0.950 . S
C2363 C2358 1.363 . S
C2363 C2362 1.415 . S
H2364 C2361 0.999 . S
H2365 C2346 0.913 . S
H2366 C2384 0.951 . S
H2367 C2386 0.951 . S
H2368 C2388 0.950 . S
H2369 C2389 0.950 . S
H2370 C2391 0.950 . S
H2371 C2394 0.950 . S
H2372 C2395 0.950 . S
H2373 C2397 0.950 . S
H2374 C2398 0.950 . S
H2375 C2399 0.951 . S
H2376 C2401 0.951 . S
H2377 C2403 0.950 . S
H2378 C2404 0.950 . S
H2379 C2406 0.950 . S
H2380 C2409 0.950 . S
H2381 C2410 0.950 . S
H2382 C2412 0.950 . S
H2383 C2413 0.950 . S
C2384 H2366 0.951 . S
C2384 C2385 1.366 . S
C2384 C2386 1.388 . S
C2385 C2384 1.366 . S
C2385 C2389 1.385 . S
C2386 H2367 0.951 . S
C2386 C2384 1.388 . S
C2386 C2387 1.366 . S
C2387 C2386 1.366 . S
C2387 C2388 1.414 . S
C2387 C2390 1.499 . S
C2388 H2368 0.950 . S
C2388 C2387 1.414 . S
C2388 C2389 1.374 . S
C2389 H2369 0.950 . S
C2389 C2385 1.385 . S
C2389 C2388 1.374 . S
C2390 C2387 1.499 . S
C2390 C2391 1.373 . S
C2390 C2392 1.389 . S
C2391 H2370 0.950 . S
C2391 C2390 1.373 . S
C2391 C2407 1.377 . S
C2392 C2390 1.389 . S
C2392 C2393 1.524 . S
C2392 C2406 1.377 . S
C2393 C2392 1.524 . S
C2393 C2394 1.397 . S
C2393 C2398 1.363 . S
C2394 H2371 0.950 . S
C2394 C2393 1.397 . S
C2394 C2395 1.334 . S
C2395 H2372 0.950 . S
C2395 C2394 1.334 . S
C2395 C2396 1.287 . S
C2396 C2395 1.287 . S
C2396 C2397 1.524 . S
C2396 H2415 0.913 . S
C2397 H2373 0.950 . S
C2397 C2396 1.524 . S
C2397 C2398 1.415 . S
C2398 H2374 0.950 . S
C2398 C2393 1.363 . S
C2398 C2397 1.415 . S
C2399 H2375 0.951 . S
C2399 C2400 1.366 . S
C2399 C2401 1.388 . S
C2400 C2399 1.366 . S
C2400 C2404 1.385 . S
C2401 H2376 0.951 . S
C2401 C2399 1.388 . S
C2401 C2402 1.366 . S
C2402 C2401 1.366 . S
C2402 C2403 1.414 . S
C2402 C2405 1.499 . S
C2403 H2377 0.950 . S
C2403 C2402 1.414 . S
C2403 C2404 1.374 . S
C2404 H2378 0.950 . S
C2404 C2400 1.385 . S
C2404 C2403 1.374 . S
C2405 C2402 1.499 . S
C2405 C2406 1.373 . S
C2405 C2407 1.389 . S
C2406 H2379 0.950 . S
C2406 C2392 1.377 . S
C2406 C2405 1.373 . S
C2407 C2391 1.377 . S
C2407 C2405 1.389 . S
C2407 C2408 1.524 . S
C2408 C2407 1.524 . S
C2408 C2409 1.397 . S
C2408 C2413 1.363 . S
C2409 H2380 0.950 . S
C2409 C2408 1.397 . S
C2409 C2410 1.334 . S
C2410 H2381 0.950 . S
C2410 C2409 1.334 . S
C2410 C2411 1.287 . S
C2411 C2410 1.287 . S
C2411 C2412 1.524 . S
C2411 H2414 0.999 . S
C2412 H2382 0.950 . S
C2412 C2411 1.524 . S
C2412 C2413 1.415 . S
C2413 H2383 0.950 . S
C2413 C2408 1.363 . S
C2413 C2412 1.415 . S
H2414 C2411 0.999 . S
H2415 C2396 0.913 . S
H2416 C2434 0.951 . S
H2417 C2436 0.951 . S
H2418 C2438 0.950 . S
H2419 C2439 0.950 . S
H2420 C2441 0.950 . S
H2421 C2444 0.950 1_545 S
H2422 C2445 0.960 . S
H2423 C2447 0.950 . S
H2424 C2448 0.950 . S
H2425 C2449 0.951 . S
H2426 C2451 0.951 . S
H2427 C2453 0.950 . S
H2428 C2454 0.950 . S
H2429 C2456 0.950 . S
H2430 C2459 0.950 1_565 S
H2431 C2460 0.961 . S
H2432 C2462 0.950 . S
H2433 C2463 0.950 . S
C2434 H2416 0.951 . S
C2434 C2435 1.366 . S
C2434 C2436 1.388 . S
C2435 C2434 1.366 . S
C2435 C2439 1.385 . S
C2436 H2417 0.951 . S
C2436 C2434 1.388 . S
C2436 C2437 1.366 . S
C2437 C2436 1.366 . S
C2437 C2438 1.414 . S
C2437 C2440 1.499 . S
C2438 H2418 0.950 . S
C2438 C2437 1.414 . S
C2438 C2439 1.374 . S
C2439 H2419 0.950 . S
C2439 C2435 1.385 . S
C2439 C2438 1.374 . S
C2440 C2437 1.499 . S
C2440 C2441 1.373 . S
C2440 C2442 1.389 1_545 S
C2441 H2420 0.950 . S
C2441 C2440 1.373 . S
C2441 C2457 1.377 . S
C2442 C2440 1.389 1_565 S
C2442 C2443 1.524 . S
C2442 C2456 1.377 . S
C2443 C2442 1.524 . S
C2443 C2444 1.397 . S
C2443 C2448 1.363 . S
C2444 H2421 0.950 1_565 S
C2444 C2443 1.397 . S
C2444 C2445 1.334 . S
C2445 H2422 0.960 . S
C2445 C2444 1.334 . S
C2445 C2446 1.287 . S
C2446 C2445 1.287 . S
C2446 C2447 1.524 . S
C2446 H2465 0.913 . S
C2447 H2423 0.950 . S
C2447 C2446 1.524 . S
C2447 C2448 1.415 . S
C2448 H2424 0.950 . S
C2448 C2443 1.363 . S
C2448 C2447 1.415 . S
C2449 H2425 0.951 . S
C2449 C2450 1.366 . S
C2449 C2451 1.388 . S
C2450 C2449 1.366 . S
C2450 C2454 1.385 . S
C2451 H2426 0.951 . S
C2451 C2449 1.388 . S
C2451 C2452 1.366 . S
C2452 C2451 1.366 . S
C2452 C2453 1.414 . S
C2452 C2455 1.499 . S
C2453 H2427 0.950 . S
C2453 C2452 1.414 . S
C2453 C2454 1.374 . S
C2454 H2428 0.950 . S
C2454 C2450 1.385 . S
C2454 C2453 1.374 . S
C2455 C2452 1.499 . S
C2455 C2456 1.373 . S
C2455 C2457 1.389 1_565 S
C2456 H2429 0.950 . S
C2456 C2442 1.377 . S
C2456 C2455 1.373 . S
C2457 C2441 1.377 . S
C2457 C2455 1.389 1_545 S
C2457 C2458 1.524 . S
C2458 C2457 1.524 . S
C2458 C2459 1.397 . S
C2458 C2463 1.363 . S
C2459 H2430 0.950 1_545 S
C2459 C2458 1.397 . S
C2459 C2460 1.334 . S
C2460 H2431 0.961 . S
C2460 C2459 1.334 . S
C2460 C2461 1.287 . S
C2461 C2460 1.287 . S
C2461 C2462 1.524 . S
C2461 H2464 0.999 . S
C2462 H2432 0.950 . S
C2462 C2461 1.524 . S
C2462 C2463 1.415 . S
C2463 H2433 0.950 . S
C2463 C2458 1.363 . S
C2463 C2462 1.415 . S
H2464 C2461 0.999 . S
H2465 C2446 0.913 . S
H2466 C2484 0.951 . S
H2467 C2486 0.951 . S
H2468 C2488 0.950 . S
H2469 C2489 0.950 . S
H2470 C2491 0.950 . S
H2471 C2494 0.950 . S
H2472 C2495 0.950 . S
H2473 C2497 0.950 . S
H2474 C2498 0.950 . S
H2475 C2499 0.951 . S
H2476 C2501 0.951 . S
H2477 C2503 0.950 . S
H2478 C2504 0.950 . S
H2479 C2506 0.950 . S
H2480 C2509 0.950 . S
H2481 C2510 0.950 . S
H2482 C2512 0.950 . S
H2483 C2513 0.950 . S
C2484 H2466 0.951 . S
C2484 C2485 1.366 . S
C2484 C2486 1.388 . S
C2485 C2484 1.366 . S
C2485 C2489 1.385 . S
C2486 H2467 0.951 . S
C2486 C2484 1.388 . S
C2486 C2487 1.366 . S
C2487 C2486 1.366 . S
C2487 C2488 1.414 . S
C2487 C2490 1.499 . S
C2488 H2468 0.950 . S
C2488 C2487 1.414 . S
C2488 C2489 1.374 . S
C2489 H2469 0.950 . S
C2489 C2485 1.385 . S
C2489 C2488 1.374 . S
C2490 C2487 1.499 . S
C2490 C2491 1.373 . S
C2490 C2492 1.389 . S
C2491 H2470 0.950 . S
C2491 C2490 1.373 . S
C2491 C2507 1.377 . S
C2492 C2490 1.389 . S
C2492 C2493 1.524 . S
C2492 C2506 1.377 . S
C2493 C2492 1.524 . S
C2493 C2494 1.397 . S
C2493 C2498 1.363 . S
C2494 H2471 0.950 . S
C2494 C2493 1.397 . S
C2494 C2495 1.334 . S
C2495 H2472 0.950 . S
C2495 C2494 1.334 . S
C2495 C2496 1.287 . S
C2496 C2495 1.287 . S
C2496 C2497 1.524 . S
C2496 H2515 0.913 . S
C2497 H2473 0.950 . S
C2497 C2496 1.524 . S
C2497 C2498 1.415 . S
C2498 H2474 0.950 . S
C2498 C2493 1.363 . S
C2498 C2497 1.415 . S
C2499 H2475 0.951 . S
C2499 C2500 1.366 . S
C2499 C2501 1.388 . S
C2500 C2499 1.366 . S
C2500 C2504 1.385 . S
C2501 H2476 0.951 . S
C2501 C2499 1.388 . S
C2501 C2502 1.366 . S
C2502 C2501 1.366 . S
C2502 C2503 1.414 . S
C2502 C2505 1.499 . S
C2503 H2477 0.950 . S
C2503 C2502 1.414 . S
C2503 C2504 1.374 . S
C2504 H2478 0.950 . S
C2504 C2500 1.385 . S
C2504 C2503 1.374 . S
C2505 C2502 1.499 . S
C2505 C2506 1.373 . S
C2505 C2507 1.389 . S
C2506 H2479 0.950 . S
C2506 C2492 1.377 . S
C2506 C2505 1.373 . S
C2507 C2491 1.377 . S
C2507 C2505 1.389 . S
C2507 C2508 1.524 . S
C2508 C2507 1.524 . S
C2508 C2509 1.397 . S
C2508 C2513 1.363 . S
C2509 H2480 0.950 . S
C2509 C2508 1.397 . S
C2509 C2510 1.334 . S
C2510 H2481 0.950 . S
C2510 C2509 1.334 . S
C2510 C2511 1.287 . S
C2511 C2510 1.287 . S
C2511 C2512 1.524 . S
C2511 H2514 0.999 . S
C2512 H2482 0.950 . S
C2512 C2511 1.524 . S
C2512 C2513 1.415 . S
C2513 H2483 0.950 . S
C2513 C2508 1.363 . S
C2513 C2512 1.415 . S
H2514 C2511 0.999 . S
H2515 C2496 0.913 . S
H2516 C2534 0.951 . S
H2517 C2536 0.951 . S
H2518 C2538 0.950 . S
H2519 C2539 0.950 . S
H2520 C2541 0.950 . S
H2521 C2544 0.950 . S
H2522 C2545 0.950 1_565 S
H2523 C2547 0.950 . S
H2524 C2548 0.950 . S
H2525 C2549 0.951 . S
H2526 C2551 0.951 . S
H2527 C2553 0.950 . S
H2528 C2554 0.950 . S
H2529 C2556 0.950 . S
H2530 C2559 0.950 . S
H2531 C2560 0.950 1_545 S
H2532 C2562 0.950 . S
H2533 C2563 0.950 . S
C2534 H2516 0.951 . S
C2534 C2535 1.366 . S
C2534 C2536 1.388 . S
C2535 C2534 1.366 . S
C2535 C2539 1.385 . S
C2536 H2517 0.951 . S
C2536 C2534 1.388 . S
C2536 C2537 1.366 . S
C2537 C2536 1.366 . S
C2537 C2538 1.414 . S
C2537 C2540 1.499 . S
C2538 H2518 0.950 . S
C2538 C2537 1.414 . S
C2538 C2539 1.374 . S
C2539 H2519 0.950 . S
C2539 C2535 1.385 . S
C2539 C2538 1.374 . S
C2540 C2537 1.499 . S
C2540 C2541 1.373 1_554 S
C2540 C2542 1.389 1_565 S
C2541 H2520 0.950 . S
C2541 C2540 1.373 1_556 S
C2541 C2557 1.377 . S
C2542 C2540 1.389 1_545 S
C2542 C2543 1.524 . S
C2542 C2556 1.377 . S
C2543 C2542 1.524 . S
C2543 C2544 1.397 1_545 S
C2543 C2548 1.363 . S
C2544 H2521 0.950 . S
C2544 C2543 1.397 1_565 S
C2544 C2545 1.334 1_565 S
C2545 H2522 0.950 1_545 S
C2545 C2544 1.334 1_545 S
C2545 C2546 1.287 . S
C2546 C2545 1.287 . S
C2546 C2547 1.524 . S
C2546 H2565 0.913 . S
C2547 H2523 0.950 . S
C2547 C2546 1.524 . S
C2547 C2548 1.415 . S
C2548 H2524 0.950 . S
C2548 C2543 1.363 . S
C2548 C2547 1.415 . S
C2549 H2525 0.951 . S
C2549 C2550 1.366 . S
C2549 C2551 1.388 . S
C2550 C2549 1.366 . S
C2550 C2554 1.385 . S
C2551 H2526 0.951 . S
C2551 C2549 1.388 . S
C2551 C2552 1.366 . S
C2552 C2551 1.366 . S
C2552 C2553 1.414 . S
C2552 C2555 1.499 . S
C2553 H2527 0.950 . S
C2553 C2552 1.414 . S
C2553 C2554 1.374 . S
C2554 H2528 0.950 . S
C2554 C2550 1.385 . S
C2554 C2553 1.374 . S
C2555 C2552 1.499 . S
C2555 C2556 1.373 1_556 S
C2555 C2557 1.389 1_545 S
C2556 H2529 0.950 . S
C2556 C2542 1.377 . S
C2556 C2555 1.373 1_554 S
C2557 C2541 1.377 . S
C2557 C2555 1.389 1_565 S
C2557 C2558 1.524 . S
C2558 C2557 1.524 . S
C2558 C2559 1.397 1_565 S
C2558 C2563 1.363 . S
C2559 H2530 0.950 . S
C2559 C2558 1.397 1_545 S
C2559 C2560 1.334 1_545 S
C2560 H2531 0.950 1_565 S
C2560 C2559 1.334 1_565 S
C2560 C2561 1.287 . S
C2561 C2560 1.287 . S
C2561 C2562 1.524 . S
C2561 H2564 0.999 . S
C2562 H2532 0.950 . S
C2562 C2561 1.524 . S
C2562 C2563 1.415 . S
C2563 H2533 0.950 . S
C2563 C2558 1.363 . S
C2563 C2562 1.415 . S
H2564 C2561 0.999 . S
H2565 C2546 0.913 . S
H2566 C2584 0.951 . S
H2567 C2586 0.951 . S
H2568 C2588 0.950 . S
H2569 C2589 0.950 . S
H2570 C2591 0.950 . S
H2571 C2594 0.950 . S
H2572 C2595 0.950 . S
H2573 C2597 0.950 . S
H2574 C2598 0.950 . S
H2575 C2599 0.951 . S
H2576 C2601 0.951 . S
H2577 C2603 0.950 . S
H2578 C2604 0.950 . S
H2579 C2606 0.950 . S
H2580 C2609 0.950 . S
H2581 C2610 0.950 . S
H2582 C2612 0.950 . S
H2583 C2613 0.950 . S
C2584 H2566 0.951 . S
C2584 C2585 1.366 . S
C2584 C2586 1.388 . S
C2585 C2584 1.366 . S
C2585 C2589 1.385 . S
C2586 H2567 0.951 . S
C2586 C2584 1.388 . S
C2586 C2587 1.366 . S
C2587 C2586 1.366 . S
C2587 C2588 1.414 . S
C2587 C2590 1.499 . S
C2588 H2568 0.950 . S
C2588 C2587 1.414 . S
C2588 C2589 1.374 . S
C2589 H2569 0.950 . S
C2589 C2585 1.385 . S
C2589 C2588 1.374 . S
C2590 C2587 1.499 . S
C2590 C2591 1.373 . S
C2590 C2592 1.389 . S
C2591 H2570 0.950 . S
C2591 C2590 1.373 . S
C2591 C2607 1.377 . S
C2592 C2590 1.389 . S
C2592 C2593 1.524 . S
C2592 C2606 1.377 . S
C2593 C2592 1.524 . S
C2593 C2594 1.397 . S
C2593 C2598 1.363 . S
C2594 H2571 0.950 . S
C2594 C2593 1.397 . S
C2594 C2595 1.334 . S
C2595 H2572 0.950 . S
C2595 C2594 1.334 . S
C2595 C2596 1.287 . S
C2596 C2595 1.287 . S
C2596 C2597 1.524 . S
C2596 H2615 0.913 . S
C2597 H2573 0.950 . S
C2597 C2596 1.524 . S
C2597 C2598 1.415 . S
C2598 H2574 0.950 . S
C2598 C2593 1.363 . S
C2598 C2597 1.415 . S
C2599 H2575 0.951 . S
C2599 C2600 1.366 . S
C2599 C2601 1.388 . S
C2600 C2599 1.366 . S
C2600 C2604 1.385 . S
C2601 H2576 0.951 . S
C2601 C2599 1.388 . S
C2601 C2602 1.366 . S
C2602 C2601 1.366 . S
C2602 C2603 1.414 . S
C2602 C2605 1.499 . S
C2603 H2577 0.950 . S
C2603 C2602 1.414 . S
C2603 C2604 1.374 . S
C2604 H2578 0.950 . S
C2604 C2600 1.385 . S
C2604 C2603 1.374 . S
C2605 C2602 1.499 . S
C2605 C2606 1.373 . S
C2605 C2607 1.389 . S
C2606 H2579 0.950 . S
C2606 C2592 1.377 . S
C2606 C2605 1.373 . S
C2607 C2591 1.377 . S
C2607 C2605 1.389 . S
C2607 C2608 1.524 . S
C2608 C2607 1.524 . S
C2608 C2609 1.397 . S
C2608 C2613 1.363 . S
C2609 H2580 0.950 . S
C2609 C2608 1.397 . S
C2609 C2610 1.334 . S
C2610 H2581 0.950 . S
C2610 C2609 1.334 . S
C2610 C2611 1.287 . S
C2611 C2610 1.287 . S
C2611 C2612 1.524 . S
C2611 H2614 0.999 . S
C2612 H2582 0.950 . S
C2612 C2611 1.524 . S
C2612 C2613 1.415 . S
C2613 H2583 0.950 . S
C2613 C2608 1.363 . S
C2613 C2612 1.415 . S
H2614 C2611 0.999 . S
H2615 C2596 0.913 . S
H2616 C2634 0.951 . S
H2617 C2636 0.951 . S
H2618 C2638 0.950 . S
H2619 C2639 0.950 . S
H2620 C2641 0.950 . S
H2621 C2644 0.950 . S
H2622 C2645 0.950 . S
H2623 C2647 0.950 . S
H2624 C2648 0.950 . S
H2625 C2649 0.951 . S
H2626 C2651 0.951 . S
H2627 C2653 0.950 . S
H2628 C2654 0.950 . S
H2629 C2656 0.950 . S
H2630 C2659 0.950 . S
H2631 C2660 0.950 . S
H2632 C2662 0.950 . S
H2633 C2663 0.950 . S
C2634 H2616 0.951 . S
C2634 C2635 1.366 . S
C2634 C2636 1.388 . S
C2635 C2634 1.366 . S
C2635 C2639 1.385 . S
C2636 H2617 0.951 . S
C2636 C2634 1.388 . S
C2636 C2637 1.366 . S
C2637 C2636 1.366 . S
C2637 C2638 1.414 . S
C2637 C2640 1.499 . S
C2638 H2618 0.950 . S
C2638 C2637 1.414 . S
C2638 C2639 1.374 . S
C2639 H2619 0.950 . S
C2639 C2635 1.385 . S
C2639 C2638 1.374 . S
C2640 C2637 1.499 . S
C2640 C2641 1.373 . S
C2640 C2642 1.389 . S
C2641 H2620 0.950 . S
C2641 C2640 1.373 . S
C2641 C2657 1.377 1_545 S
C2642 C2640 1.389 . S
C2642 C2643 1.524 . S
C2642 C2656 1.377 1_545 S
C2643 C2642 1.524 . S
C2643 C2644 1.397 . S
C2643 C2648 1.363 . S
C2644 H2621 0.950 . S
C2644 C2643 1.397 . S
C2644 C2645 1.334 . S
C2645 H2622 0.950 . S
C2645 C2644 1.334 . S
C2645 C2646 1.287 . S
C2646 C2645 1.287 . S
C2646 C2647 1.524 . S
C2646 H2665 0.913 . S
C2647 H2623 0.950 . S
C2647 C2646 1.524 . S
C2647 C2648 1.415 . S
C2648 H2624 0.950 . S
C2648 C2643 1.363 . S
C2648 C2647 1.415 . S
C2649 H2625 0.951 . S
C2649 C2650 1.366 . S
C2649 C2651 1.388 . S
C2650 C2649 1.366 . S
C2650 C2654 1.385 . S
C2651 H2626 0.951 . S
C2651 C2649 1.388 . S
C2651 C2652 1.366 . S
C2652 C2651 1.366 . S
C2652 C2653 1.414 . S
C2652 C2655 1.499 . S
C2653 H2627 0.950 . S
C2653 C2652 1.414 . S
C2653 C2654 1.374 . S
C2654 H2628 0.950 . S
C2654 C2650 1.385 . S
C2654 C2653 1.374 . S
C2655 C2652 1.499 . S
C2655 C2656 1.373 . S
C2655 C2657 1.389 . S
C2656 H2629 0.950 . S
C2656 C2642 1.377 1_565 S
C2656 C2655 1.373 . S
C2657 C2641 1.377 1_565 S
C2657 C2655 1.389 . S
C2657 C2658 1.524 . S
C2658 C2657 1.524 . S
C2658 C2659 1.397 . S
C2658 C2663 1.363 . S
C2659 H2630 0.950 . S
C2659 C2658 1.397 . S
C2659 C2660 1.334 . S
C2660 H2631 0.950 . S
C2660 C2659 1.334 . S
C2660 C2661 1.287 . S
C2661 C2660 1.287 . S
C2661 C2662 1.524 . S
C2661 H2664 0.999 . S
C2662 H2632 0.950 . S
C2662 C2661 1.524 . S
C2662 C2663 1.415 . S
C2663 H2633 0.950 . S
C2663 C2658 1.363 . S
C2663 C2662 1.415 . S
H2664 C2661 0.999 . S
H2665 C2646 0.913 . S
H2666 C2684 0.951 . S
H2667 C2686 0.951 . S
H2668 C2688 0.950 . S
H2669 C2689 0.950 . S
H2670 C2691 0.950 . S
H2671 C2694 0.950 . S
H2672 C2695 0.950 . S
H2673 C2697 0.950 . S
H2674 C2698 0.950 . S
H2675 C2699 0.951 . S
H2676 C2701 0.951 . S
H2677 C2703 0.950 . S
H2678 C2704 0.950 . S
H2679 C2706 0.950 . S
H2680 C2709 0.950 . S
H2681 C2710 0.950 . S
H2682 C2712 0.950 . S
H2683 C2713 0.950 . S
C2684 H2666 0.951 . S
C2684 C2685 1.366 . S
C2684 C2686 1.388 . S
C2685 C2684 1.366 . S
C2685 C2689 1.385 . S
C2686 H2667 0.951 . S
C2686 C2684 1.388 . S
C2686 C2687 1.366 . S
C2687 C2686 1.366 . S
C2687 C2688 1.414 . S
C2687 C2690 1.499 . S
C2688 H2668 0.950 . S
C2688 C2687 1.414 . S
C2688 C2689 1.374 . S
C2689 H2669 0.950 . S
C2689 C2685 1.385 . S
C2689 C2688 1.374 . S
C2690 C2687 1.499 . S
C2690 C2691 1.373 . S
C2690 C2692 1.389 . S
C2691 H2670 0.950 . S
C2691 C2690 1.373 . S
C2691 C2707 1.377 . S
C2692 C2690 1.389 . S
C2692 C2693 1.524 . S
C2692 C2706 1.377 . S
C2693 C2692 1.524 . S
C2693 C2694 1.397 . S
C2693 C2698 1.363 . S
C2694 H2671 0.950 . S
C2694 C2693 1.397 . S
C2694 C2695 1.334 . S
C2695 H2672 0.950 . S
C2695 C2694 1.334 . S
C2695 C2696 1.287 . S
C2696 C2695 1.287 . S
C2696 C2697 1.524 . S
C2696 H2715 0.913 . S
C2697 H2673 0.950 . S
C2697 C2696 1.524 . S
C2697 C2698 1.415 . S
C2698 H2674 0.950 . S
C2698 C2693 1.363 . S
C2698 C2697 1.415 . S
C2699 H2675 0.951 . S
C2699 C2700 1.366 . S
C2699 C2701 1.388 . S
C2700 C2699 1.366 . S
C2700 C2704 1.385 . S
C2701 H2676 0.951 . S
C2701 C2699 1.388 . S
C2701 C2702 1.366 . S
C2702 C2701 1.366 . S
C2702 C2703 1.414 . S
C2702 C2705 1.499 . S
C2703 H2677 0.950 . S
C2703 C2702 1.414 . S
C2703 C2704 1.374 . S
C2704 H2678 0.950 . S
C2704 C2700 1.385 . S
C2704 C2703 1.374 . S
C2705 C2702 1.499 . S
C2705 C2706 1.373 . S
C2705 C2707 1.389 . S
C2706 H2679 0.950 . S
C2706 C2692 1.377 . S
C2706 C2705 1.373 . S
C2707 C2691 1.377 . S
C2707 C2705 1.389 . S
C2707 C2708 1.524 . S
C2708 C2707 1.524 . S
C2708 C2709 1.397 . S
C2708 C2713 1.363 . S
C2709 H2680 0.950 . S
C2709 C2708 1.397 . S
C2709 C2710 1.334 . S
C2710 H2681 0.950 . S
C2710 C2709 1.334 . S
C2710 C2711 1.287 . S
C2711 C2710 1.287 . S
C2711 C2712 1.524 . S
C2711 H2714 0.999 . S
C2712 H2682 0.950 . S
C2712 C2711 1.524 . S
C2712 C2713 1.415 . S
C2713 H2683 0.950 . S
C2713 C2708 1.363 . S
C2713 C2712 1.415 . S
H2714 C2711 0.999 . S
H2715 C2696 0.913 . S
H2716 C2734 0.951 . S
H2717 C2736 0.951 . S
H2718 C2738 0.950 . S
H2719 C2739 0.950 . S
H2720 C2741 0.950 . S
H2721 C2744 0.934 1_565 S
H2722 C2745 0.961 . S
H2723 C2747 0.950 . S
H2724 C2748 0.950 . S
H2725 C2749 0.951 . S
H2726 C2751 0.951 . S
H2727 C2753 0.950 . S
H2728 C2754 0.950 . S
H2729 C2756 0.950 . S
H2730 C2759 0.934 1_545 S
H2731 C2760 0.961 . S
H2732 C2762 0.950 . S
H2733 C2763 0.950 . S
C2734 H2716 0.951 . S
C2734 C2735 1.366 . S
C2734 C2736 1.388 . S
C2735 C2734 1.366 . S
C2735 C2739 1.385 . S
C2736 H2717 0.951 . S
C2736 C2734 1.388 . S
C2736 C2737 1.366 . S
C2737 C2736 1.366 . S
C2737 C2738 1.414 . S
C2737 C2740 1.499 . S
C2738 H2718 0.950 . S
C2738 C2737 1.414 . S
C2738 C2739 1.374 . S
C2739 H2719 0.950 . S
C2739 C2735 1.385 . S
C2739 C2738 1.374 . S
C2740 C2737 1.499 . S
C2740 C2741 1.373 1_554 S
C2740 C2742 1.389 1_565 S
C2741 H2720 0.950 . S
C2741 C2740 1.373 1_556 S
C2741 C2757 1.377 . S
C2742 C2740 1.389 1_545 S
C2742 C2743 1.524 . S
C2742 C2756 1.377 . S
C2743 C2742 1.524 . S
C2743 C2744 1.406 . S
C2743 C2748 1.363 . S
C2744 H2721 0.934 1_545 S
C2744 C2743 1.406 . S
C2744 C2745 1.343 . S
C2745 H2722 0.961 . S
C2745 C2744 1.343 . S
C2745 C2746 1.287 . S
C2746 C2745 1.287 . S
C2746 C2747 1.524 . S
C2746 H2765 0.913 . S
C2747 H2723 0.950 . S
C2747 C2746 1.524 . S
C2747 C2748 1.415 . S
C2748 H2724 0.950 . S
C2748 C2743 1.363 . S
C2748 C2747 1.415 . S
C2749 H2725 0.951 . S
C2749 C2750 1.366 . S
C2749 C2751 1.388 . S
C2750 C2749 1.366 . S
C2750 C2754 1.385 . S
C2751 H2726 0.951 . S
C2751 C2749 1.388 . S
C2751 C2752 1.366 . S
C2752 C2751 1.366 . S
C2752 C2753 1.414 . S
C2752 C2755 1.499 . S
C2753 H2727 0.950 . S
C2753 C2752 1.414 . S
C2753 C2754 1.374 . S
C2754 H2728 0.950 . S
C2754 C2750 1.385 . S
C2754 C2753 1.374 . S
C2755 C2752 1.499 . S
C2755 C2756 1.373 1_556 S
C2755 C2757 1.389 1_545 S
C2756 H2729 0.950 . S
C2756 C2742 1.377 . S
C2756 C2755 1.373 1_554 S
C2757 C2741 1.377 . S
C2757 C2755 1.389 1_565 S
C2757 C2758 1.524 . S
C2758 C2757 1.524 . S
C2758 C2759 1.406 . S
C2758 C2763 1.363 . S
C2759 H2730 0.934 1_565 S
C2759 C2758 1.406 . S
C2759 C2760 1.343 . S
C2760 H2731 0.961 . S
C2760 C2759 1.343 . S
C2760 C2761 1.287 . S
C2761 C2760 1.287 . S
C2761 C2762 1.524 . S
C2761 H2764 0.999 . S
C2762 H2732 0.950 . S
C2762 C2761 1.524 . S
C2762 C2763 1.415 . S
C2763 H2733 0.950 . S
C2763 C2758 1.363 . S
C2763 C2762 1.415 . S
H2764 C2761 0.999 . S
H2765 C2746 0.913 . S
H2766 C2784 0.951 . S
H2767 C2786 0.951 . S
H2768 C2788 0.950 . S
H2769 C2789 0.950 . S
H2770 C2791 0.950 . S
H2771 C2794 0.950 . S
H2772 C2795 0.950 . S
H2773 C2797 0.950 . S
H2774 C2798 0.950 . S
H2775 C2799 0.951 . S
H2776 C2801 0.951 . S
H2777 C2803 0.950 . S
H2778 C2804 0.950 . S
H2779 C2806 0.950 . S
H2780 C2809 0.950 . S
H2781 C2810 0.950 . S
H2782 C2812 0.950 . S
H2783 C2813 0.950 . S
C2784 H2766 0.951 . S
C2784 C2785 1.366 . S
C2784 C2786 1.388 . S
C2785 C2784 1.366 . S
C2785 C2789 1.385 . S
C2786 H2767 0.951 . S
C2786 C2784 1.388 . S
C2786 C2787 1.366 . S
C2787 C2786 1.366 . S
C2787 C2788 1.414 . S
C2787 C2790 1.499 . S
C2788 H2768 0.950 . S
C2788 C2787 1.414 . S
C2788 C2789 1.374 . S
C2789 H2769 0.950 . S
C2789 C2785 1.385 . S
C2789 C2788 1.374 . S
C2790 C2787 1.499 . S
C2790 C2791 1.373 . S
C2790 C2792 1.389 . S
C2791 H2770 0.950 . S
C2791 C2790 1.373 . S
C2791 C2807 1.377 . S
C2792 C2790 1.389 . S
C2792 C2793 1.524 . S
C2792 C2806 1.377 . S
C2793 C2792 1.524 . S
C2793 C2794 1.397 . S
C2793 C2798 1.363 . S
C2794 H2771 0.950 . S
C2794 C2793 1.397 . S
C2794 C2795 1.334 . S
C2795 H2772 0.950 . S
C2795 C2794 1.334 . S
C2795 C2796 1.287 . S
C2796 C2795 1.287 . S
C2796 C2797 1.524 . S
C2796 H2815 0.913 . S
C2797 H2773 0.950 . S
C2797 C2796 1.524 . S
C2797 C2798 1.415 . S
C2798 H2774 0.950 . S
C2798 C2793 1.363 . S
C2798 C2797 1.415 . S
C2799 H2775 0.951 . S
C2799 C2800 1.366 . S
C2799 C2801 1.388 . S
C2800 C2799 1.366 . S
C2800 C2804 1.385 . S
C2801 H2776 0.951 . S
C2801 C2799 1.388 . S
C2801 C2802 1.366 . S
C2802 C2801 1.366 . S
C2802 C2803 1.414 . S
C2802 C2805 1.499 . S
C2803 H2777 0.950 . S
C2803 C2802 1.414 . S
C2803 C2804 1.374 . S
C2804 H2778 0.950 . S
C2804 C2800 1.385 . S
C2804 C2803 1.374 . S
C2805 C2802 1.499 . S
C2805 C2806 1.373 . S
C2805 C2807 1.389 . S
C2806 H2779 0.950 . S
C2806 C2792 1.377 . S
C2806 C2805 1.373 . S
C2807 C2791 1.377 . S
C2807 C2805 1.389 . S
C2807 C2808 1.524 . S
C2808 C2807 1.524 . S
C2808 C2809 1.397 . S
C2808 C2813 1.363 . S
C2809 H2780 0.950 . S
C2809 C2808 1.397 . S
C2809 C2810 1.334 . S
C2810 H2781 0.950 . S
C2810 C2809 1.334 . S
C2810 C2811 1.287 . S
C2811 C2810 1.287 . S
C2811 C2812 1.524 . S
C2811 H2814 0.999 . S
C2812 H2782 0.950 . S
C2812 C2811 1.524 . S
C2812 C2813 1.415 . S
C2813 H2783 0.950 . S
C2813 C2808 1.363 . S
C2813 C2812 1.415 . S
H2814 C2811 0.999 . S
H2815 C2796 0.913 . S
H2816 C2834 0.951 . S
H2817 C2836 0.951 . S
H2818 C2838 0.950 . S
H2819 C2839 0.950 . S
H2820 C2841 0.950 . S
H2821 C2844 0.950 . S
H2822 C2845 0.950 . S
H2823 C2847 0.950 1_556 S
H2824 C2848 0.950 . S
H2825 C2849 0.951 . S
H2826 C2851 0.951 . S
H2827 C2853 0.950 . S
H2828 C2854 0.950 . S
H2829 C2856 0.950 . S
H2830 C2859 0.950 . S
H2831 C2860 0.950 . S
H2832 C2862 0.950 . S
H2833 C2863 0.950 . S
C2834 H2816 0.951 . S
C2834 C2835 1.366 . S
C2834 C2836 1.388 . S
C2835 C2834 1.366 . S
C2835 C2839 1.385 . S
C2836 H2817 0.951 . S
C2836 C2834 1.388 . S
C2836 C2837 1.366 . S
C2837 C2836 1.366 . S
C2837 C2838 1.414 . S
C2837 C2840 1.499 . S
C2838 H2818 0.950 . S
C2838 C2837 1.414 . S
C2838 C2839 1.374 . S
C2839 H2819 0.950 . S
C2839 C2835 1.385 . S
C2839 C2838 1.374 . S
C2840 C2837 1.499 . S
C2840 C2841 1.373 . S
C2840 C2842 1.389 . S
C2841 H2820 0.950 . S
C2841 C2840 1.373 . S
C2841 C2857 1.377 . S
C2842 C2840 1.389 . S
C2842 C2843 1.524 . S
C2842 C2856 1.377 . S
C2843 C2842 1.524 . S
C2843 C2844 1.397 . S
C2843 C2848 1.363 . S
C2844 H2821 0.950 . S
C2844 C2843 1.397 . S
C2844 C2845 1.334 . S
C2845 H2822 0.950 . S
C2845 C2844 1.334 . S
C2845 C2846 1.287 . S
C2846 C2845 1.287 . S
C2846 C2847 1.524 . S
C2846 H2865 0.913 . S
C2847 H2823 0.950 1_554 S
C2847 C2846 1.524 . S
C2847 C2848 1.415 . S
C2848 H2824 0.950 . S
C2848 C2843 1.363 . S
C2848 C2847 1.415 . S
C2849 H2825 0.951 . S
C2849 C2850 1.366 . S
C2849 C2851 1.388 . S
C2850 C2849 1.366 . S
C2850 C2854 1.385 . S
C2851 H2826 0.951 . S
C2851 C2849 1.388 . S
C2851 C2852 1.366 . S
C2852 C2851 1.366 . S
C2852 C2853 1.414 . S
C2852 C2855 1.499 . S
C2853 H2827 0.950 . S
C2853 C2852 1.414 . S
C2853 C2854 1.374 . S
C2854 H2828 0.950 . S
C2854 C2850 1.385 . S
C2854 C2853 1.374 . S
C2855 C2852 1.499 . S
C2855 C2856 1.373 . S
C2855 C2857 1.389 . S
C2856 H2829 0.950 . S
C2856 C2842 1.377 . S
C2856 C2855 1.373 . S
C2857 C2841 1.377 . S
C2857 C2855 1.389 . S
C2857 C2858 1.524 . S
C2858 C2857 1.524 . S
C2858 C2859 1.397 . S
C2858 C2863 1.363 . S
C2859 H2830 0.950 . S
C2859 C2858 1.397 . S
C2859 C2860 1.334 . S
C2860 H2831 0.950 . S
C2860 C2859 1.334 . S
C2860 C2861 1.287 . S
C2861 C2860 1.287 . S
C2861 C2862 1.524 . S
C2861 H2864 0.999 . S
C2862 H2832 0.950 . S
C2862 C2861 1.524 . S
C2862 C2863 1.415 . S
C2863 H2833 0.950 . S
C2863 C2858 1.363 . S
C2863 C2862 1.415 . S
H2864 C2861 0.999 . S
H2865 C2846 0.913 . S
H2866 C2884 0.951 . S
H2867 C2886 0.951 . S
H2868 C2888 0.950 . S
H2869 C2889 0.950 . S
H2870 C2891 0.950 . S
H2871 C2894 0.950 . S
H2872 C2895 0.950 . S
H2873 C2897 0.950 . S
H2874 C2898 0.950 . S
H2875 C2899 0.951 . S
H2876 C2901 0.951 . S
H2877 C2903 0.950 . S
H2878 C2904 0.950 . S
H2879 C2906 0.950 . S
H2880 C2909 0.950 . S
H2881 C2910 0.950 . S
H2882 C2912 0.950 . S
H2883 C2913 0.950 . S
C2884 H2866 0.951 . S
C2884 C2885 1.366 . S
C2884 C2886 1.388 . S
C2885 C2884 1.366 . S
C2885 C2889 1.385 . S
C2886 H2867 0.951 . S
C2886 C2884 1.388 . S
C2886 C2887 1.366 . S
C2887 C2886 1.366 . S
C2887 C2888 1.414 . S
C2887 C2890 1.499 . S
C2888 H2868 0.950 . S
C2888 C2887 1.414 . S
C2888 C2889 1.374 . S
C2889 H2869 0.950 . S
C2889 C2885 1.385 . S
C2889 C2888 1.374 . S
C2890 C2887 1.499 . S
C2890 C2891 1.373 . S
C2890 C2892 1.389 . S
C2891 H2870 0.950 . S
C2891 C2890 1.373 . S
C2891 C2907 1.377 . S
C2892 C2890 1.389 . S
C2892 C2893 1.524 . S
C2892 C2906 1.377 . S
C2893 C2892 1.524 . S
C2893 C2894 1.397 . S
C2893 C2898 1.363 . S
C2894 H2871 0.950 . S
C2894 C2893 1.397 . S
C2894 C2895 1.334 . S
C2895 H2872 0.950 . S
C2895 C2894 1.334 . S
C2895 C2896 1.287 . S
C2896 C2895 1.287 . S
C2896 C2897 1.524 . S
C2896 H2915 0.913 . S
C2897 H2873 0.950 . S
C2897 C2896 1.524 . S
C2897 C2898 1.415 . S
C2898 H2874 0.950 . S
C2898 C2893 1.363 . S
C2898 C2897 1.415 . S
C2899 H2875 0.951 . S
C2899 C2900 1.366 . S
C2899 C2901 1.388 . S
C2900 C2899 1.366 . S
C2900 C2904 1.385 . S
C2901 H2876 0.951 . S
C2901 C2899 1.388 . S
C2901 C2902 1.366 . S
C2902 C2901 1.366 . S
C2902 C2903 1.414 . S
C2902 C2905 1.499 . S
C2903 H2877 0.950 . S
C2903 C2902 1.414 . S
C2903 C2904 1.374 . S
C2904 H2878 0.950 . S
C2904 C2900 1.385 . S
C2904 C2903 1.374 . S
C2905 C2902 1.499 . S
C2905 C2906 1.373 . S
C2905 C2907 1.389 . S
C2906 H2879 0.950 . S
C2906 C2892 1.377 . S
C2906 C2905 1.373 . S
C2907 C2891 1.377 . S
C2907 C2905 1.389 . S
C2907 C2908 1.524 . S
C2908 C2907 1.524 . S
C2908 C2909 1.397 . S
C2908 C2913 1.363 . S
C2909 H2880 0.950 . S
C2909 C2908 1.397 . S
C2909 C2910 1.334 . S
C2910 H2881 0.950 . S
C2910 C2909 1.334 . S
C2910 C2911 1.287 . S
C2911 C2910 1.287 . S
C2911 C2912 1.524 . S
C2911 H2914 0.999 . S
C2912 H2882 0.950 . S
C2912 C2911 1.524 . S
C2912 C2913 1.415 . S
C2913 H2883 0.950 . S
C2913 C2908 1.363 . S
C2913 C2912 1.415 . S
H2914 C2911 0.999 . S
H2915 C2896 0.913 . S
H2916 C2934 0.951 . S
H2917 C2936 0.951 . S
H2918 C2938 0.950 . S
H2919 C2939 0.950 . S
H2920 C2941 0.950 . S
H2921 C2944 0.950 . S
H2922 C2945 0.950 . S
H2923 C2947 0.950 . S
H2924 C2948 0.950 . S
H2925 C2949 0.951 . S
H2926 C2951 0.951 . S
H2927 C2953 0.950 . S
H2928 C2954 0.950 . S
H2929 C2956 0.950 . S
H2930 C2959 0.950 . S
H2931 C2960 0.950 . S
H2932 C2962 0.950 . S
H2933 C2963 0.950 . S
C2934 H2916 0.951 . S
C2934 C2935 1.366 . S
C2934 C2936 1.388 . S
C2935 C2934 1.366 . S
C2935 C2939 1.385 . S
C2936 H2917 0.951 . S
C2936 C2934 1.388 . S
C2936 C2937 1.366 . S
C2937 C2936 1.366 . S
C2937 C2938 1.414 . S
C2937 C2940 1.499 . S
C2938 H2918 0.950 . S
C2938 C2937 1.414 . S
C2938 C2939 1.374 . S
C2939 H2919 0.950 . S
C2939 C2935 1.385 . S
C2939 C2938 1.374 . S
C2940 C2937 1.499 . S
C2940 C2941 1.373 . S
C2940 C2942 1.389 . S
C2941 H2920 0.950 . S
C2941 C2940 1.373 . S
C2941 C2957 1.377 . S
C2942 C2940 1.389 . S
C2942 C2943 1.524 . S
C2942 C2956 1.377 . S
C2943 C2942 1.524 . S
C2943 C2944 1.397 . S
C2943 C2948 1.363 . S
C2944 H2921 0.950 . S
C2944 C2943 1.397 . S
C2944 C2945 1.334 . S
C2945 H2922 0.950 . S
C2945 C2944 1.334 . S
C2945 C2946 1.287 . S
C2946 C2945 1.287 . S
C2946 C2947 1.524 . S
C2946 H2965 0.913 . S
C2947 H2923 0.950 . S
C2947 C2946 1.524 . S
C2947 C2948 1.415 . S
C2948 H2924 0.950 . S
C2948 C2943 1.363 . S
C2948 C2947 1.415 . S
C2949 H2925 0.951 . S
C2949 C2950 1.366 . S
C2949 C2951 1.388 . S
C2950 C2949 1.366 . S
C2950 C2954 1.385 . S
C2951 H2926 0.951 . S
C2951 C2949 1.388 . S
C2951 C2952 1.366 . S
C2952 C2951 1.366 . S
C2952 C2953 1.414 . S
C2952 C2955 1.499 . S
C2953 H2927 0.950 . S
C2953 C2952 1.414 . S
C2953 C2954 1.374 . S
C2954 H2928 0.950 . S
C2954 C2950 1.385 . S
C2954 C2953 1.374 . S
C2955 C2952 1.499 . S
C2955 C2956 1.373 . S
C2955 C2957 1.389 . S
C2956 H2929 0.950 . S
C2956 C2942 1.377 . S
C2956 C2955 1.373 . S
C2957 C2941 1.377 . S
C2957 C2955 1.389 . S
C2957 C2958 1.524 . S
C2958 C2957 1.524 . S
C2958 C2959 1.397 . S
C2958 C2963 1.363 . S
C2959 H2930 0.950 . S
C2959 C2958 1.397 . S
C2959 C2960 1.334 . S
C2960 H2931 0.950 . S
C2960 C2959 1.334 . S
C2960 C2961 1.287 . S
C2961 C2960 1.287 . S
C2961 C2962 1.524 . S
C2961 H2964 0.999 . S
C2962 H2932 0.950 . S
C2962 C2961 1.524 . S
C2962 C2963 1.415 . S
C2963 H2933 0.950 . S
C2963 C2958 1.363 . S
C2963 C2962 1.415 . S
H2964 C2961 0.999 . S
H2965 C2946 0.913 . S
H2966 C2984 0.951 . S
H2967 C2986 0.951 . S
H2968 C2988 0.950 . S
H2969 C2989 0.950 . S
H2970 C2991 0.950 . S
H2971 C2994 0.950 . S
H2972 C2995 0.950 . S
H2973 C2997 0.950 . S
H2974 C2998 0.950 . S
H2975 C2999 0.951 . S
H2976 C3001 0.951 . S
H2977 C3003 0.950 . S
H2978 C3004 0.950 . S
H2979 C3006 0.950 . S
H2980 C3009 0.950 . S
H2981 C3010 0.950 . S
H2982 C3012 0.950 . S
H2983 C3013 0.950 . S
C2984 H2966 0.951 . S
C2984 C2985 1.366 . S
C2984 C2986 1.388 . S
C2985 C2984 1.366 . S
C2985 C2989 1.385 . S
C2986 H2967 0.951 . S
C2986 C2984 1.388 . S
C2986 C2987 1.366 . S
C2987 C2986 1.366 . S
C2987 C2988 1.414 . S
C2987 C2990 1.499 . S
C2988 H2968 0.950 . S
C2988 C2987 1.414 . S
C2988 C2989 1.374 . S
C2989 H2969 0.950 . S
C2989 C2985 1.385 . S
C2989 C2988 1.374 . S
C2990 C2987 1.499 . S
C2990 C2991 1.373 . S
C2990 C2992 1.389 . S
C2991 H2970 0.950 . S
C2991 C2990 1.373 . S
C2991 C3007 1.377 1_655 S
C2992 C2990 1.389 . S
C2992 C2993 1.524 . S
C2992 C3006 1.377 1_655 S
C2993 C2992 1.524 . S
C2993 C2994 1.397 . S
C2993 C2998 1.363 . S
C2994 H2971 0.950 . S
C2994 C2993 1.397 . S
C2994 C2995 1.334 . S
C2995 H2972 0.950 . S
C2995 C2994 1.334 . S
C2995 C2996 1.287 . S
C2996 C2995 1.287 . S
C2996 C2997 1.524 . S
C2996 H3015 0.913 . S
C2997 H2973 0.950 . S
C2997 C2996 1.524 . S
C2997 C2998 1.415 . S
C2998 H2974 0.950 . S
C2998 C2993 1.363 . S
C2998 C2997 1.415 . S
C2999 H2975 0.951 . S
C2999 C3000 1.366 . S
C2999 C3001 1.388 . S
C3000 C2999 1.366 . S
C3000 C3004 1.385 . S
C3001 H2976 0.951 . S
C3001 C2999 1.388 . S
C3001 C3002 1.366 . S
C3002 C3001 1.366 . S
C3002 C3003 1.414 . S
C3002 C3005 1.499 . S
C3003 H2977 0.950 . S
C3003 C3002 1.414 . S
C3003 C3004 1.374 . S
C3004 H2978 0.950 . S
C3004 C3000 1.385 . S
C3004 C3003 1.374 . S
C3005 C3002 1.499 . S
C3005 C3006 1.373 . S
C3005 C3007 1.389 . S
C3006 H2979 0.950 . S
C3006 C2992 1.377 1_455 S
C3006 C3005 1.373 . S
C3007 C2991 1.377 1_455 S
C3007 C3005 1.389 . S
C3007 C3008 1.524 . S
C3008 C3007 1.524 . S
C3008 C3009 1.397 . S
C3008 C3013 1.363 . S
C3009 H2980 0.950 . S
C3009 C3008 1.397 . S
C3009 C3010 1.334 . S
C3010 H2981 0.950 . S
C3010 C3009 1.334 . S
C3010 C3011 1.287 . S
C3011 C3010 1.287 . S
C3011 C3012 1.524 . S
C3011 H3014 0.999 . S
C3012 H2982 0.950 . S
C3012 C3011 1.524 . S
C3012 C3013 1.415 . S
C3013 H2983 0.950 . S
C3013 C3008 1.363 . S
C3013 C3012 1.415 . S
H3014 C3011 0.999 . S
H3015 C2996 0.913 . S
H3016 C3034 0.951 . S
H3017 C3036 0.951 . S
H3018 C3038 0.950 . S
H3019 C3039 0.950 . S
H3020 C3041 0.950 . S
H3021 C3044 0.950 . S
H3022 C3045 0.950 . S
H3023 C3047 0.950 . S
H3024 C3048 0.950 . S
H3025 C3049 0.951 . S
H3026 C3051 0.951 . S
H3027 C3053 0.950 . S
H3028 C3054 0.950 . S
H3029 C3056 0.950 . S
H3030 C3059 0.950 . S
H3031 C3060 0.950 . S
H3032 C3062 0.950 . S
H3033 C3063 0.950 . S
C3034 H3016 0.951 . S
C3034 C3035 1.366 . S
C3034 C3036 1.388 . S
C3035 C3034 1.366 . S
C3035 C3039 1.385 . S
C3036 H3017 0.951 . S
C3036 C3034 1.388 . S
C3036 C3037 1.366 . S
C3037 C3036 1.366 . S
C3037 C3038 1.414 . S
C3037 C3040 1.499 . S
C3038 H3018 0.950 . S
C3038 C3037 1.414 . S
C3038 C3039 1.374 . S
C3039 H3019 0.950 . S
C3039 C3035 1.385 . S
C3039 C3038 1.374 . S
C3040 C3037 1.499 . S
C3040 C3041 1.373 . S
C3040 C3042 1.389 . S
C3041 H3020 0.950 . S
C3041 C3040 1.373 . S
C3041 C3057 1.377 . S
C3042 C3040 1.389 . S
C3042 C3043 1.524 . S
C3042 C3056 1.377 . S
C3043 C3042 1.524 . S
C3043 C3044 1.397 . S
C3043 C3048 1.363 . S
C3044 H3021 0.950 . S
C3044 C3043 1.397 . S
C3044 C3045 1.334 . S
C3045 H3022 0.950 . S
C3045 C3044 1.334 . S
C3045 C3046 1.287 . S
C3046 C3045 1.287 . S
C3046 C3047 1.524 . S
C3046 H3065 0.913 . S
C3047 H3023 0.950 . S
C3047 C3046 1.524 . S
C3047 C3048 1.415 . S
C3048 H3024 0.950 . S
C3048 C3043 1.363 . S
C3048 C3047 1.415 . S
C3049 H3025 0.951 . S
C3049 C3050 1.366 . S
C3049 C3051 1.388 . S
C3050 C3049 1.366 . S
C3050 C3054 1.385 . S
C3051 H3026 0.951 . S
C3051 C3049 1.388 . S
C3051 C3052 1.366 . S
C3052 C3051 1.366 . S
C3052 C3053 1.414 . S
C3052 C3055 1.499 . S
C3053 H3027 0.950 . S
C3053 C3052 1.414 . S
C3053 C3054 1.374 . S
C3054 H3028 0.950 . S
C3054 C3050 1.385 . S
C3054 C3053 1.374 . S
C3055 C3052 1.499 . S
C3055 C3056 1.373 . S
C3055 C3057 1.389 . S
C3056 H3029 0.950 . S
C3056 C3042 1.377 . S
C3056 C3055 1.373 . S
C3057 C3041 1.377 . S
C3057 C3055 1.389 . S
C3057 C3058 1.524 . S
C3058 C3057 1.524 . S
C3058 C3059 1.397 . S
C3058 C3063 1.363 . S
C3059 H3030 0.950 . S
C3059 C3058 1.397 . S
C3059 C3060 1.334 . S
C3060 H3031 0.950 . S
C3060 C3059 1.334 . S
C3060 C3061 1.287 . S
C3061 C3060 1.287 . S
C3061 C3062 1.524 . S
C3061 H3064 0.999 . S
C3062 H3032 0.950 . S
C3062 C3061 1.524 . S
C3062 C3063 1.415 . S
C3063 H3033 0.950 . S
C3063 C3058 1.363 . S
C3063 C3062 1.415 . S
H3064 C3061 0.999 . S
H3065 C3046 0.913 . S
H3066 C3084 0.951 . S
H3067 C3086 0.951 . S
H3068 C3088 0.950 . S
H3069 C3089 0.950 . S
H3070 C3091 0.950 . S
H3071 C3094 0.950 . S
H3072 C3095 0.950 . S
H3073 C3097 0.950 . S
H3074 C3098 0.950 . S
H3075 C3099 0.951 . S
H3076 C3101 0.951 . S
H3077 C3103 0.950 . S
H3078 C3104 0.950 . S
H3079 C3106 0.950 . S
H3080 C3109 0.950 . S
H3081 C3110 0.950 . S
H3082 C3112 0.950 . S
H3083 C3113 0.950 . S
C3084 H3066 0.951 . S
C3084 C3085 1.366 . S
C3084 C3086 1.388 . S
C3085 C3084 1.366 . S
C3085 C3089 1.385 . S
C3086 H3067 0.951 . S
C3086 C3084 1.388 . S
C3086 C3087 1.366 . S
C3087 C3086 1.366 . S
C3087 C3088 1.414 . S
C3087 C3090 1.499 . S
C3088 H3068 0.950 . S
C3088 C3087 1.414 . S
C3088 C3089 1.374 . S
C3089 H3069 0.950 . S
C3089 C3085 1.385 . S
C3089 C3088 1.374 . S
C3090 C3087 1.499 . S
C3090 C3091 1.373 . S
C3090 C3092 1.389 . S
C3091 H3070 0.950 . S
C3091 C3090 1.373 . S
C3091 C3107 1.377 1_655 S
C3092 C3090 1.389 . S
C3092 C3093 1.524 . S
C3092 C3106 1.377 1_655 S
C3093 C3092 1.524 . S
C3093 C3094 1.397 . S
C3093 C3098 1.363 . S
C3094 H3071 0.950 . S
C3094 C3093 1.397 . S
C3094 C3095 1.334 . S
C3095 H3072 0.950 . S
C3095 C3094 1.334 . S
C3095 C3096 1.287 . S
C3096 C3095 1.287 . S
C3096 C3097 1.524 . S
C3096 H3115 0.913 . S
C3097 H3073 0.950 . S
C3097 C3096 1.524 . S
C3097 C3098 1.415 . S
C3098 H3074 0.950 . S
C3098 C3093 1.363 . S
C3098 C3097 1.415 . S
C3099 H3075 0.951 . S
C3099 C3100 1.366 . S
C3099 C3101 1.388 . S
C3100 C3099 1.366 . S
C3100 C3104 1.385 . S
C3101 H3076 0.951 . S
C3101 C3099 1.388 . S
C3101 C3102 1.366 . S
C3102 C3101 1.366 . S
C3102 C3103 1.414 . S
C3102 C3105 1.499 . S
C3103 H3077 0.950 . S
C3103 C3102 1.414 . S
C3103 C3104 1.374 . S
C3104 H3078 0.950 . S
C3104 C3100 1.385 . S
C3104 C3103 1.374 . S
C3105 C3102 1.499 . S
C3105 C3106 1.373 . S
C3105 C3107 1.389 . S
C3106 H3079 0.950 . S
C3106 C3092 1.377 1_455 S
C3106 C3105 1.373 . S
C3107 C3091 1.377 1_455 S
C3107 C3105 1.389 . S
C3107 C3108 1.524 . S
C3108 C3107 1.524 . S
C3108 C3109 1.397 . S
C3108 C3113 1.363 . S
C3109 H3080 0.950 . S
C3109 C3108 1.397 . S
C3109 C3110 1.334 . S
C3110 H3081 0.950 . S
C3110 C3109 1.334 . S
C3110 C3111 1.287 . S
C3111 C3110 1.287 . S
C3111 C3112 1.524 . S
C3111 H3114 0.999 . S
C3112 H3082 0.950 . S
C3112 C3111 1.524 . S
C3112 C3113 1.415 . S
C3113 H3083 0.950 . S
C3113 C3108 1.363 . S
C3113 C3112 1.415 . S
H3114 C3111 0.999 . S
H3115 C3096 0.913 . S
H3116 C3134 0.951 . S
H3117 C3136 0.951 . S
H3118 C3138 0.950 . S
H3119 C3139 0.950 . S
H3120 C3141 0.950 . S
H3121 C3144 0.950 . S
H3122 C3145 0.950 . S
H3123 C3147 0.950 . S
H3124 C3148 0.950 . S
H3125 C3149 0.951 . S
H3126 C3151 0.951 . S
H3127 C3153 0.950 . S
H3128 C3154 0.950 . S
H3129 C3156 0.950 . S
H3130 C3159 0.950 . S
H3131 C3160 0.950 . S
H3132 C3162 0.950 . S
H3133 C3163 0.950 . S
C3134 H3116 0.951 . S
C3134 C3135 1.366 . S
C3134 C3136 1.388 . S
C3135 C3134 1.366 . S
C3135 C3139 1.385 . S
C3136 H3117 0.951 . S
C3136 C3134 1.388 . S
C3136 C3137 1.366 . S
C3137 C3136 1.366 . S
C3137 C3138 1.414 . S
C3137 C3140 1.499 . S
C3138 H3118 0.950 . S
C3138 C3137 1.414 . S
C3138 C3139 1.374 . S
C3139 H3119 0.950 . S
C3139 C3135 1.385 . S
C3139 C3138 1.374 . S
C3140 C3137 1.499 . S
C3140 C3141 1.373 . S
C3140 C3142 1.389 . S
C3141 H3120 0.950 . S
C3141 C3140 1.373 . S
C3141 C3157 1.377 . S
C3142 C3140 1.389 . S
C3142 C3143 1.524 . S
C3142 C3156 1.377 . S
C3143 C3142 1.524 . S
C3143 C3144 1.397 . S
C3143 C3148 1.363 . S
C3144 H3121 0.950 . S
C3144 C3143 1.397 . S
C3144 C3145 1.334 . S
C3145 H3122 0.950 . S
C3145 C3144 1.334 . S
C3145 C3146 1.287 . S
C3146 C3145 1.287 . S
C3146 C3147 1.524 . S
C3146 H3165 0.913 . S
C3147 H3123 0.950 . S
C3147 C3146 1.524 . S
C3147 C3148 1.415 . S
C3148 H3124 0.950 . S
C3148 C3143 1.363 . S
C3148 C3147 1.415 . S
C3149 H3125 0.951 . S
C3149 C3150 1.366 . S
C3149 C3151 1.388 . S
C3150 C3149 1.366 . S
C3150 C3154 1.385 . S
C3151 H3126 0.951 . S
C3151 C3149 1.388 . S
C3151 C3152 1.366 . S
C3152 C3151 1.366 . S
C3152 C3153 1.414 . S
C3152 C3155 1.499 . S
C3153 H3127 0.950 . S
C3153 C3152 1.414 . S
C3153 C3154 1.374 . S
C3154 H3128 0.950 . S
C3154 C3150 1.385 . S
C3154 C3153 1.374 . S
C3155 C3152 1.499 . S
C3155 C3156 1.373 . S
C3155 C3157 1.389 . S
C3156 H3129 0.950 . S
C3156 C3142 1.377 . S
C3156 C3155 1.373 . S
C3157 C3141 1.377 . S
C3157 C3155 1.389 . S
C3157 C3158 1.524 . S
C3158 C3157 1.524 . S
C3158 C3159 1.397 . S
C3158 C3163 1.363 . S
C3159 H3130 0.950 . S
C3159 C3158 1.397 . S
C3159 C3160 1.334 . S
C3160 H3131 0.950 . S
C3160 C3159 1.334 . S
C3160 C3161 1.287 . S
C3161 C3160 1.287 . S
C3161 C3162 1.524 . S
C3161 H3164 0.999 . S
C3162 H3132 0.950 . S
C3162 C3161 1.524 . S
C3162 C3163 1.415 . S
C3163 H3133 0.950 . S
C3163 C3158 1.363 . S
C3163 C3162 1.415 . S
H3164 C3161 0.999 . S
H3165 C3146 0.913 . S
H3166 C3184 0.951 . S
H3167 C3186 0.951 . S
H3168 C3188 0.950 . S
H3169 C3189 0.950 . S
H3170 C3191 0.950 . S
H3171 C3194 0.950 . S
H3172 C3195 0.950 . S
H3173 C3197 0.950 . S
H3174 C3198 0.950 . S
H3175 C3199 0.951 . S
H3176 C3201 0.951 . S
H3177 C3203 0.950 . S
H3178 C3204 0.950 . S
H3179 C3206 0.950 . S
H3180 C3209 0.950 . S
H3181 C3210 0.950 . S
H3182 C3212 0.950 . S
H3183 C3213 0.950 . S
C3184 H3166 0.951 . S
C3184 C3185 1.366 . S
C3184 C3186 1.388 . S
C3185 C3184 1.366 . S
C3185 C3189 1.385 . S
C3186 H3167 0.951 . S
C3186 C3184 1.388 . S
C3186 C3187 1.366 . S
C3187 C3186 1.366 . S
C3187 C3188 1.414 . S
C3187 C3190 1.499 . S
C3188 H3168 0.950 . S
C3188 C3187 1.414 . S
C3188 C3189 1.374 . S
C3189 H3169 0.950 . S
C3189 C3185 1.385 . S
C3189 C3188 1.374 . S
C3190 C3187 1.499 . S
C3190 C3191 1.373 . S
C3190 C3192 1.389 . S
C3191 H3170 0.950 . S
C3191 C3190 1.373 . S
C3191 C3207 1.377 . S
C3192 C3190 1.389 . S
C3192 C3193 1.524 . S
C3192 C3206 1.377 . S
C3193 C3192 1.524 . S
C3193 C3194 1.397 . S
C3193 C3198 1.363 . S
C3194 H3171 0.950 . S
C3194 C3193 1.397 . S
C3194 C3195 1.334 . S
C3195 H3172 0.950 . S
C3195 C3194 1.334 . S
C3195 C3196 1.287 . S
C3196 C3195 1.287 . S
C3196 C3197 1.524 . S
C3196 H3215 0.913 . S
C3197 H3173 0.950 . S
C3197 C3196 1.524 . S
C3197 C3198 1.415 . S
C3198 H3174 0.950 . S
C3198 C3193 1.363 . S
C3198 C3197 1.415 . S
C3199 H3175 0.951 . S
C3199 C3200 1.366 . S
C3199 C3201 1.388 . S
C3200 C3199 1.366 . S
C3200 C3204 1.385 . S
C3201 H3176 0.951 . S
C3201 C3199 1.388 . S
C3201 C3202 1.366 . S
C3202 C3201 1.366 . S
C3202 C3203 1.414 . S
C3202 C3205 1.499 . S
C3203 H3177 0.950 . S
C3203 C3202 1.414 . S
C3203 C3204 1.374 . S
C3204 H3178 0.950 . S
C3204 C3200 1.385 . S
C3204 C3203 1.374 . S
C3205 C3202 1.499 . S
C3205 C3206 1.373 . S
C3205 C3207 1.389 . S
C3206 H3179 0.950 . S
C3206 C3192 1.377 . S
C3206 C3205 1.373 . S
C3207 C3191 1.377 . S
C3207 C3205 1.389 . S
C3207 C3208 1.524 . S
C3208 C3207 1.524 . S
C3208 C3209 1.397 . S
C3208 C3213 1.363 . S
C3209 H3180 0.950 . S
C3209 C3208 1.397 . S
C3209 C3210 1.334 . S
C3210 H3181 0.950 . S
C3210 C3209 1.334 . S
C3210 C3211 1.287 . S
C3211 C3210 1.287 . S
C3211 C3212 1.524 . S
C3211 H3214 0.999 . S
C3212 H3182 0.950 . S
C3212 C3211 1.524 . S
C3212 C3213 1.415 . S
C3213 H3183 0.950 . S
C3213 C3208 1.363 . S
C3213 C3212 1.415 . S
H3214 C3211 0.999 . S
H3215 C3196 0.913 . S
H3216 C3234 0.951 . S
H3217 C3236 0.951 . S
H3218 C3238 0.950 . S
H3219 C3239 0.950 . S
H3220 C3241 0.950 . S
H3221 C3244 0.950 . S
H3222 C3245 0.950 . S
H3223 C3247 0.950 . S
H3224 C3248 0.950 . S
H3225 C3249 0.951 . S
H3226 C3251 0.951 . S
H3227 C3253 0.950 . S
H3228 C3254 0.950 . S
H3229 C3256 0.950 . S
H3230 C3259 0.950 . S
H3231 C3260 0.950 . S
H3232 C3262 0.858 1_554 S
H3233 C3263 0.950 . S
C3234 H3216 0.951 . S
C3234 C3235 1.366 . S
C3234 C3236 1.388 . S
C3235 C3234 1.366 . S
C3235 C3239 1.385 . S
C3236 H3217 0.951 . S
C3236 C3234 1.388 . S
C3236 C3237 1.366 . S
C3237 C3236 1.366 . S
C3237 C3238 1.414 . S
C3237 C3240 1.499 . S
C3238 H3218 0.950 . S
C3238 C3237 1.414 . S
C3238 C3239 1.374 . S
C3239 H3219 0.950 . S
C3239 C3235 1.385 . S
C3239 C3238 1.374 . S
C3240 C3237 1.499 . S
C3240 C3241 1.373 . S
C3240 C3242 1.389 . S
C3241 H3220 0.950 . S
C3241 C3240 1.373 . S
C3241 C3257 1.377 . S
C3242 C3240 1.389 . S
C3242 C3243 1.524 . S
C3242 C3256 1.377 . S
C3243 C3242 1.524 . S
C3243 C3244 1.397 . S
C3243 C3248 1.363 . S
C3244 H3221 0.950 . S
C3244 C3243 1.397 . S
C3244 C3245 1.334 . S
C3245 H3222 0.950 . S
C3245 C3244 1.334 . S
C3245 C3246 1.287 . S
C3246 C3245 1.287 . S
C3246 C3247 1.524 . S
C3246 H3265 0.913 . S
C3247 H3223 0.950 . S
C3247 C3246 1.524 . S
C3247 C3248 1.415 . S
C3248 H3224 0.950 . S
C3248 C3243 1.363 . S
C3248 C3247 1.415 . S
C3249 H3225 0.951 . S
C3249 C3250 1.366 . S
C3249 C3251 1.388 . S
C3250 C3249 1.366 . S
C3250 C3254 1.385 . S
C3251 H3226 0.951 . S
C3251 C3249 1.388 . S
C3251 C3252 1.366 . S
C3252 C3251 1.366 . S
C3252 C3253 1.414 . S
C3252 C3255 1.499 . S
C3253 H3227 0.950 . S
C3253 C3252 1.414 . S
C3253 C3254 1.374 . S
C3254 H3228 0.950 . S
C3254 C3250 1.385 . S
C3254 C3253 1.374 . S
C3255 C3252 1.499 . S
C3255 C3256 1.373 . S
C3255 C3257 1.389 . S
C3256 H3229 0.950 . S
C3256 C3242 1.377 . S
C3256 C3255 1.373 . S
C3257 C3241 1.377 . S
C3257 C3255 1.389 . S
C3257 C3258 1.524 . S
C3258 C3257 1.524 . S
C3258 C3259 1.397 . S
C3258 C3263 1.363 . S
C3259 H3230 0.950 . S
C3259 C3258 1.397 . S
C3259 C3260 1.334 . S
C3260 H3231 0.950 . S
C3260 C3259 1.334 . S
C3260 C3261 1.287 . S
C3261 C3260 1.287 . S
C3261 C3262 1.543 . S
C3261 H3264 0.999 1_556 S
C3262 H3232 0.858 1_556 S
C3262 C3261 1.543 . S
C3262 C3263 1.506 . S
C3263 H3233 0.950 . S
C3263 C3258 1.363 . S
C3263 C3262 1.506 . S
H3264 C3261 0.999 1_554 S
H3265 C3246 0.913 . S
H3266 C3284 0.951 . S
H3267 C3286 0.951 . S
H3268 C3288 0.950 . S
H3269 C3289 0.950 . S
H3270 C3291 0.950 . S
H3271 C3294 0.950 . S
H3272 C3295 0.950 . S
H3273 C3297 0.950 . S
H3274 C3298 0.950 . S
H3275 C3299 0.951 . S
H3276 C3301 0.951 . S
H3277 C3303 0.950 . S
H3278 C3304 0.950 . S
H3279 C3306 0.950 . S
H3280 C3309 0.950 . S
H3281 C3310 0.950 . S
H3282 C3312 0.950 . S
H3283 C3313 0.950 . S
C3284 H3266 0.951 . S
C3284 C3285 1.366 . S
C3284 C3286 1.388 . S
C3285 C3284 1.366 . S
C3285 C3289 1.385 . S
C3286 H3267 0.951 . S
C3286 C3284 1.388 . S
C3286 C3287 1.366 . S
C3287 C3286 1.366 . S
C3287 C3288 1.414 . S
C3287 C3290 1.499 . S
C3288 H3268 0.950 . S
C3288 C3287 1.414 . S
C3288 C3289 1.374 . S
C3289 H3269 0.950 . S
C3289 C3285 1.385 . S
C3289 C3288 1.374 . S
C3290 C3287 1.499 . S
C3290 C3291 1.373 . S
C3290 C3292 1.389 . S
C3291 H3270 0.950 . S
C3291 C3290 1.373 . S
C3291 C3307 1.377 . S
C3292 C3290 1.389 . S
C3292 C3293 1.524 . S
C3292 C3306 1.377 . S
C3293 C3292 1.524 . S
C3293 C3294 1.397 . S
C3293 C3298 1.363 . S
C3294 H3271 0.950 . S
C3294 C3293 1.397 . S
C3294 C3295 1.334 . S
C3295 H3272 0.950 . S
C3295 C3294 1.334 . S
C3295 C3296 1.287 . S
C3296 C3295 1.287 . S
C3296 C3297 1.524 . S
C3296 H3315 0.913 . S
C3297 H3273 0.950 . S
C3297 C3296 1.524 . S
C3297 C3298 1.415 . S
C3298 H3274 0.950 . S
C3298 C3293 1.363 . S
C3298 C3297 1.415 . S
C3299 H3275 0.951 . S
C3299 C3300 1.366 . S
C3299 C3301 1.388 . S
C3300 C3299 1.366 . S
C3300 C3304 1.385 . S
C3301 H3276 0.951 . S
C3301 C3299 1.388 . S
C3301 C3302 1.366 . S
C3302 C3301 1.366 . S
C3302 C3303 1.414 . S
C3302 C3305 1.499 . S
C3303 H3277 0.950 . S
C3303 C3302 1.414 . S
C3303 C3304 1.374 . S
C3304 H3278 0.950 . S
C3304 C3300 1.385 . S
C3304 C3303 1.374 . S
C3305 C3302 1.499 . S
C3305 C3306 1.373 . S
C3305 C3307 1.389 . S
C3306 H3279 0.950 . S
C3306 C3292 1.377 . S
C3306 C3305 1.373 . S
C3307 C3291 1.377 . S
C3307 C3305 1.389 . S
C3307 C3308 1.524 . S
C3308 C3307 1.524 . S
C3308 C3309 1.397 . S
C3308 C3313 1.363 . S
C3309 H3280 0.950 . S
C3309 C3308 1.397 . S
C3309 C3310 1.334 . S
C3310 H3281 0.950 . S
C3310 C3309 1.334 . S
C3310 C3311 1.287 . S
C3311 C3310 1.287 . S
C3311 C3312 1.524 . S
C3311 H3314 0.999 . S
C3312 H3282 0.950 . S
C3312 C3311 1.524 . S
C3312 C3313 1.415 . S
C3313 H3283 0.950 . S
C3313 C3308 1.363 . S
C3313 C3312 1.415 . S
H3314 C3311 0.999 . S
H3315 C3296 0.913 . S
H3316 C3334 0.951 . S
H3317 C3336 0.951 . S
H3318 C3338 0.950 . S
H3319 C3339 0.950 . S
H3320 C3341 0.950 . S
H3321 C3344 0.950 . S
H3322 C3345 0.950 . S
H3323 C3347 0.881 1_556 S
H3324 C3348 0.950 . S
H3325 C3349 0.951 . S
H3326 C3351 0.951 . S
H3327 C3353 0.950 . S
H3328 C3354 0.950 . S
H3329 C3356 0.950 . S
H3330 C3359 0.950 . S
H3331 C3360 0.950 . S
H3332 C3362 0.950 . S
H3333 C3363 0.950 . S
C3334 H3316 0.951 . S
C3334 C3335 1.366 . S
C3334 C3336 1.388 . S
C3335 C3334 1.366 . S
C3335 C3339 1.385 . S
C3336 H3317 0.951 . S
C3336 C3334 1.388 . S
C3336 C3337 1.366 . S
C3337 C3336 1.366 . S
C3337 C3338 1.414 . S
C3337 C3340 1.499 . S
C3338 H3318 0.950 . S
C3338 C3337 1.414 . S
C3338 C3339 1.374 . S
C3339 H3319 0.950 . S
C3339 C3335 1.385 . S
C3339 C3338 1.374 . S
C3340 C3337 1.499 . S
C3340 C3341 1.373 . S
C3340 C3342 1.389 . S
C3341 H3320 0.950 . S
C3341 C3340 1.373 . S
C3341 C3357 1.377 . S
C3342 C3340 1.389 . S
C3342 C3343 1.524 . S
C3342 C3356 1.377 . S
C3343 C3342 1.524 . S
C3343 C3344 1.397 . S
C3343 C3348 1.363 . S
C3344 H3321 0.950 . S
C3344 C3343 1.397 . S
C3344 C3345 1.334 . S
C3345 H3322 0.950 . S
C3345 C3344 1.334 . S
C3345 C3346 1.287 . S
C3346 C3345 1.287 . S
C3346 C3347 1.535 . S
C3346 H3365 0.913 1_554 S
C3347 H3323 0.881 1_554 S
C3347 C3346 1.535 . S
C3347 C3348 1.486 . S
C3348 H3324 0.950 . S
C3348 C3343 1.363 . S
C3348 C3347 1.486 . S
C3349 H3325 0.951 . S
C3349 C3350 1.366 . S
C3349 C3351 1.388 . S
C3350 C3349 1.366 . S
C3350 C3354 1.385 . S
C3351 H3326 0.951 . S
C3351 C3349 1.388 . S
C3351 C3352 1.366 . S
C3352 C3351 1.366 . S
C3352 C3353 1.414 . S
C3352 C3355 1.499 . S
C3353 H3327 0.950 . S
C3353 C3352 1.414 . S
C3353 C3354 1.374 . S
C3354 H3328 0.950 . S
C3354 C3350 1.385 . S
C3354 C3353 1.374 . S
C3355 C3352 1.499 . S
C3355 C3356 1.373 . S
C3355 C3357 1.389 . S
C3356 H3329 0.950 . S
C3356 C3342 1.377 . S
C3356 C3355 1.373 . S
C3357 C3341 1.377 . S
C3357 C3355 1.389 . S
C3357 C3358 1.524 . S
C3358 C3357 1.524 . S
C3358 C3359 1.397 . S
C3358 C3363 1.363 . S
C3359 H3330 0.950 . S
C3359 C3358 1.397 . S
C3359 C3360 1.334 . S
C3360 H3331 0.950 . S
C3360 C3359 1.334 . S
C3360 C3361 1.287 . S
C3361 C3360 1.287 . S
C3361 C3362 1.524 . S
C3361 H3364 0.999 . S
C3362 H3332 0.950 . S
C3362 C3361 1.524 . S
C3362 C3363 1.415 . S
C3363 H3333 0.950 . S
C3363 C3358 1.363 . S
C3363 C3362 1.415 . S
H3364 C3361 0.999 . S
H3365 C3346 0.913 1_556 S
H3366 C3384 0.951 . S
H3367 C3386 0.951 . S
H3368 C3388 0.950 . S
H3369 C3389 0.950 . S
H3370 C3391 0.950 . S
H3371 C3394 0.950 . S
H3372 C3395 0.950 . S
H3373 C3397 0.950 . S
H3374 C3398 0.950 . S
H3375 C3399 0.951 . S
H3376 C3401 0.951 . S
H3377 C3403 0.950 . S
H3378 C3404 0.950 . S
H3379 C3406 0.950 . S
H3380 C3409 0.950 . S
H3381 C3410 0.950 . S
H3382 C3412 0.950 . S
H3383 C3413 0.950 . S
C3384 H3366 0.951 . S
C3384 C3385 1.366 . S
C3384 C3386 1.388 . S
C3385 C3384 1.366 . S
C3385 C3389 1.385 . S
C3386 H3367 0.951 . S
C3386 C3384 1.388 . S
C3386 C3387 1.366 . S
C3387 C3386 1.366 . S
C3387 C3388 1.414 . S
C3387 C3390 1.499 . S
C3388 H3368 0.950 . S
C3388 C3387 1.414 . S
C3388 C3389 1.374 . S
C3389 H3369 0.950 . S
C3389 C3385 1.385 . S
C3389 C3388 1.374 . S
C3390 C3387 1.499 . S
C3390 C3391 1.373 . S
C3390 C3392 1.389 . S
C3391 H3370 0.950 . S
C3391 C3390 1.373 . S
C3391 C3407 1.377 . S
C3392 C3390 1.389 . S
C3392 C3393 1.524 . S
C3392 C3406 1.377 . S
C3393 C3392 1.524 . S
C3393 C3394 1.397 . S
C3393 C3398 1.363 . S
C3394 H3371 0.950 . S
C3394 C3393 1.397 . S
C3394 C3395 1.334 . S
C3395 H3372 0.950 . S
C3395 C3394 1.334 . S
C3395 C3396 1.287 . S
C3396 C3395 1.287 . S
C3396 C3397 1.524 . S
C3396 H3415 0.913 . S
C3397 H3373 0.950 . S
C3397 C3396 1.524 . S
C3397 C3398 1.415 . S
C3398 H3374 0.950 . S
C3398 C3393 1.363 . S
C3398 C3397 1.415 . S
C3399 H3375 0.951 . S
C3399 C3400 1.366 . S
C3399 C3401 1.388 . S
C3400 C3399 1.366 . S
C3400 C3404 1.385 . S
C3401 H3376 0.951 . S
C3401 C3399 1.388 . S
C3401 C3402 1.366 . S
C3402 C3401 1.366 . S
C3402 C3403 1.414 . S
C3402 C3405 1.499 . S
C3403 H3377 0.950 . S
C3403 C3402 1.414 . S
C3403 C3404 1.374 . S
C3404 H3378 0.950 . S
C3404 C3400 1.385 . S
C3404 C3403 1.374 . S
C3405 C3402 1.499 . S
C3405 C3406 1.373 . S
C3405 C3407 1.389 . S
C3406 H3379 0.950 . S
C3406 C3392 1.377 . S
C3406 C3405 1.373 . S
C3407 C3391 1.377 . S
C3407 C3405 1.389 . S
C3407 C3408 1.524 . S
C3408 C3407 1.524 . S
C3408 C3409 1.397 . S
C3408 C3413 1.363 . S
C3409 H3380 0.950 . S
C3409 C3408 1.397 . S
C3409 C3410 1.334 . S
C3410 H3381 0.950 . S
C3410 C3409 1.334 . S
C3410 C3411 1.287 . S
C3411 C3410 1.287 . S
C3411 C3412 1.524 . S
C3411 H3414 0.999 . S
C3412 H3382 0.950 . S
C3412 C3411 1.524 . S
C3412 C3413 1.415 . S
C3413 H3383 0.950 . S
C3413 C3408 1.363 . S
C3413 C3412 1.415 . S
H3414 C3411 0.999 . S
H3415 C3396 0.913 . S
H3416 C3434 0.951 . S
H3417 C3436 0.951 . S
H3418 C3438 0.950 . S
H3419 C3439 0.950 . S
H3420 C3441 0.950 . S
H3421 C3444 0.950 . S
H3422 C3445 0.950 . S
H3423 C3447 0.950 . S
H3424 C3448 0.950 . S
H3425 C3449 0.951 . S
H3426 C3451 0.951 . S
H3427 C3453 0.950 . S
H3428 C3454 0.950 . S
H3429 C3456 0.950 . S
H3430 C3459 0.950 . S
H3431 C3460 0.950 . S
H3432 C3462 0.950 . S
H3433 C3463 0.950 . S
C3434 H3416 0.951 . S
C3434 C3435 1.366 . S
C3434 C3436 1.388 . S
C3435 C3434 1.366 . S
C3435 C3439 1.385 . S
C3436 H3417 0.951 . S
C3436 C3434 1.388 . S
C3436 C3437 1.366 . S
C3437 C3436 1.366 . S
C3437 C3438 1.414 . S
C3437 C3440 1.499 . S
C3438 H3418 0.950 . S
C3438 C3437 1.414 . S
C3438 C3439 1.374 . S
C3439 H3419 0.950 . S
C3439 C3435 1.385 . S
C3439 C3438 1.374 . S
C3440 C3437 1.499 . S
C3440 C3441 1.373 . S
C3440 C3442 1.389 . S
C3441 H3420 0.950 . S
C3441 C3440 1.373 . S
C3441 C3457 1.377 1_655 S
C3442 C3440 1.389 . S
C3442 C3443 1.524 . S
C3442 C3456 1.377 1_655 S
C3443 C3442 1.524 . S
C3443 C3444 1.397 . S
C3443 C3448 1.363 . S
C3444 H3421 0.950 . S
C3444 C3443 1.397 . S
C3444 C3445 1.334 . S
C3445 H3422 0.950 . S
C3445 C3444 1.334 . S
C3445 C3446 1.287 . S
C3446 C3445 1.287 . S
C3446 C3447 1.524 . S
C3446 H3465 0.913 . S
C3447 H3423 0.950 . S
C3447 C3446 1.524 . S
C3447 C3448 1.415 . S
C3448 H3424 0.950 . S
C3448 C3443 1.363 . S
C3448 C3447 1.415 . S
C3449 H3425 0.951 . S
C3449 C3450 1.366 . S
C3449 C3451 1.388 . S
C3450 C3449 1.366 . S
C3450 C3454 1.385 . S
C3451 H3426 0.951 . S
C3451 C3449 1.388 . S
C3451 C3452 1.366 . S
C3452 C3451 1.366 . S
C3452 C3453 1.414 . S
C3452 C3455 1.499 . S
C3453 H3427 0.950 . S
C3453 C3452 1.414 . S
C3453 C3454 1.374 . S
C3454 H3428 0.950 . S
C3454 C3450 1.385 . S
C3454 C3453 1.374 . S
C3455 C3452 1.499 . S
C3455 C3456 1.373 . S
C3455 C3457 1.389 . S
C3456 H3429 0.950 . S
C3456 C3442 1.377 1_455 S
C3456 C3455 1.373 . S
C3457 C3441 1.377 1_455 S
C3457 C3455 1.389 . S
C3457 C3458 1.524 . S
C3458 C3457 1.524 . S
C3458 C3459 1.397 . S
C3458 C3463 1.363 . S
C3459 H3430 0.950 . S
C3459 C3458 1.397 . S
C3459 C3460 1.334 . S
C3460 H3431 0.950 . S
C3460 C3459 1.334 . S
C3460 C3461 1.287 . S
C3461 C3460 1.287 . S
C3461 C3462 1.524 . S
C3461 H3464 0.999 . S
C3462 H3432 0.950 . S
C3462 C3461 1.524 . S
C3462 C3463 1.415 . S
C3463 H3433 0.950 . S
C3463 C3458 1.363 . S
C3463 C3462 1.415 . S
H3464 C3461 0.999 . S
H3465 C3446 0.913 . S
H3466 C3484 0.951 . S
H3467 C3486 0.951 . S
H3468 C3488 0.950 . S
H3469 C3489 0.950 . S
H3470 C3491 0.950 . S
H3471 C3494 0.950 . S
H3472 C3495 0.950 . S
H3473 C3497 0.950 . S
H3474 C3498 0.950 . S
H3475 C3499 0.951 . S
H3476 C3501 0.951 . S
H3477 C3503 0.950 . S
H3478 C3504 0.950 . S
H3479 C3506 0.950 . S
H3480 C3509 0.950 . S
H3481 C3510 0.950 . S
H3482 C3512 0.950 . S
H3483 C3513 0.950 . S
C3484 H3466 0.951 . S
C3484 C3485 1.366 . S
C3484 C3486 1.388 . S
C3485 C3484 1.366 . S
C3485 C3489 1.385 . S
C3486 H3467 0.951 . S
C3486 C3484 1.388 . S
C3486 C3487 1.366 . S
C3487 C3486 1.366 . S
C3487 C3488 1.414 . S
C3487 C3490 1.499 . S
C3488 H3468 0.950 . S
C3488 C3487 1.414 . S
C3488 C3489 1.374 . S
C3489 H3469 0.950 . S
C3489 C3485 1.385 . S
C3489 C3488 1.374 . S
C3490 C3487 1.499 . S
C3490 C3491 1.373 . S
C3490 C3492 1.389 . S
C3491 H3470 0.950 . S
C3491 C3490 1.373 . S
C3491 C3507 1.377 . S
C3492 C3490 1.389 . S
C3492 C3493 1.524 . S
C3492 C3506 1.377 . S
C3493 C3492 1.524 . S
C3493 C3494 1.397 . S
C3493 C3498 1.363 . S
C3494 H3471 0.950 . S
C3494 C3493 1.397 . S
C3494 C3495 1.334 . S
C3495 H3472 0.950 . S
C3495 C3494 1.334 . S
C3495 C3496 1.287 . S
C3496 C3495 1.287 . S
C3496 C3497 1.524 . S
C3496 H3515 0.913 . S
C3497 H3473 0.950 . S
C3497 C3496 1.524 . S
C3497 C3498 1.415 . S
C3498 H3474 0.950 . S
C3498 C3493 1.363 . S
C3498 C3497 1.415 . S
C3499 H3475 0.951 . S
C3499 C3500 1.366 . S
C3499 C3501 1.388 . S
C3500 C3499 1.366 . S
C3500 C3504 1.385 . S
C3501 H3476 0.951 . S
C3501 C3499 1.388 . S
C3501 C3502 1.366 . S
C3502 C3501 1.366 . S
C3502 C3503 1.414 . S
C3502 C3505 1.499 . S
C3503 H3477 0.950 . S
C3503 C3502 1.414 . S
C3503 C3504 1.374 . S
C3504 H3478 0.950 . S
C3504 C3500 1.385 . S
C3504 C3503 1.374 . S
C3505 C3502 1.499 . S
C3505 C3506 1.373 . S
C3505 C3507 1.389 . S
C3506 H3479 0.950 . S
C3506 C3492 1.377 . S
C3506 C3505 1.373 . S
C3507 C3491 1.377 . S
C3507 C3505 1.389 . S
C3507 C3508 1.524 . S
C3508 C3507 1.524 . S
C3508 C3509 1.397 . S
C3508 C3513 1.363 . S
C3509 H3480 0.950 . S
C3509 C3508 1.397 . S
C3509 C3510 1.334 . S
C3510 H3481 0.950 . S
C3510 C3509 1.334 . S
C3510 C3511 1.287 . S
C3511 C3510 1.287 . S
C3511 C3512 1.524 . S
C3511 H3514 0.999 . S
C3512 H3482 0.950 . S
C3512 C3511 1.524 . S
C3512 C3513 1.415 . S
C3513 H3483 0.950 . S
C3513 C3508 1.363 . S
C3513 C3512 1.415 . S
H3514 C3511 0.999 . S
H3515 C3496 0.913 . S
H3516 C3534 0.951 . S
H3517 C3536 0.951 . S
H3518 C3538 0.950 . S
H3519 C3539 0.950 . S
H3520 C3541 0.950 . S
H3521 C3544 0.950 . S
H3522 C3545 0.950 . S
H3523 C3547 0.950 . S
H3524 C3548 0.950 . S
H3525 C3549 0.951 . S
H3526 C3551 0.951 . S
H3527 C3553 0.950 . S
H3528 C3554 0.950 . S
H3529 C3556 0.950 . S
H3530 C3559 0.950 . S
H3531 C3560 0.950 . S
H3532 C3562 0.950 . S
H3533 C3563 0.950 . S
C3534 H3516 0.951 . S
C3534 C3535 1.366 . S
C3534 C3536 1.388 . S
C3535 C3534 1.366 . S
C3535 C3539 1.385 . S
C3536 H3517 0.951 . S
C3536 C3534 1.388 . S
C3536 C3537 1.366 . S
C3537 C3536 1.366 . S
C3537 C3538 1.414 . S
C3537 C3540 1.499 . S
C3538 H3518 0.950 . S
C3538 C3537 1.414 . S
C3538 C3539 1.374 . S
C3539 H3519 0.950 . S
C3539 C3535 1.385 . S
C3539 C3538 1.374 . S
C3540 C3537 1.499 . S
C3540 C3541 1.373 . S
C3540 C3542 1.389 . S
C3541 H3520 0.950 . S
C3541 C3540 1.373 . S
C3541 C3557 1.377 . S
C3542 C3540 1.389 . S
C3542 C3543 1.524 . S
C3542 C3556 1.377 . S
C3543 C3542 1.524 . S
C3543 C3544 1.397 . S
C3543 C3548 1.363 . S
C3544 H3521 0.950 . S
C3544 C3543 1.397 . S
C3544 C3545 1.334 . S
C3545 H3522 0.950 . S
C3545 C3544 1.334 . S
C3545 C3546 1.287 . S
C3546 C3545 1.287 . S
C3546 C3547 1.524 . S
C3546 H3565 0.913 . S
C3547 H3523 0.950 . S
C3547 C3546 1.524 . S
C3547 C3548 1.415 . S
C3548 H3524 0.950 . S
C3548 C3543 1.363 . S
C3548 C3547 1.415 . S
C3549 H3525 0.951 . S
C3549 C3550 1.366 . S
C3549 C3551 1.388 . S
C3550 C3549 1.366 . S
C3550 C3554 1.385 . S
C3551 H3526 0.951 . S
C3551 C3549 1.388 . S
C3551 C3552 1.366 . S
C3552 C3551 1.366 . S
C3552 C3553 1.414 . S
C3552 C3555 1.499 . S
C3553 H3527 0.950 . S
C3553 C3552 1.414 . S
C3553 C3554 1.374 . S
C3554 H3528 0.950 . S
C3554 C3550 1.385 . S
C3554 C3553 1.374 . S
C3555 C3552 1.499 . S
C3555 C3556 1.373 . S
C3555 C3557 1.389 . S
C3556 H3529 0.950 . S
C3556 C3542 1.377 . S
C3556 C3555 1.373 . S
C3557 C3541 1.377 . S
C3557 C3555 1.389 . S
C3557 C3558 1.524 . S
C3558 C3557 1.524 . S
C3558 C3559 1.397 . S
C3558 C3563 1.363 . S
C3559 H3530 0.950 . S
C3559 C3558 1.397 . S
C3559 C3560 1.334 . S
C3560 H3531 0.950 . S
C3560 C3559 1.334 . S
C3560 C3561 1.287 . S
C3561 C3560 1.287 . S
C3561 C3562 1.524 . S
C3561 H3564 0.999 . S
C3562 H3532 0.950 . S
C3562 C3561 1.524 . S
C3562 C3563 1.415 . S
C3563 H3533 0.950 . S
C3563 C3558 1.363 . S
C3563 C3562 1.415 . S
H3564 C3561 0.999 . S
H3565 C3546 0.913 . S
H3566 C3584 0.951 . S
H3567 C3586 0.951 . S
H3568 C3588 0.950 . S
H3569 C3589 0.950 . S
H3570 C3591 0.950 . S
H3571 C3594 0.950 . S
H3572 C3595 0.950 . S
H3573 C3597 0.950 . S
H3574 C3598 0.950 . S
H3575 C3599 0.951 . S
H3576 C3601 0.951 . S
H3577 C3603 0.950 . S
H3578 C3604 0.950 . S
H3579 C3606 0.950 . S
H3580 C3609 0.950 . S
H3581 C3610 0.950 . S
H3582 C3612 0.950 . S
H3583 C3613 0.950 . S
C3584 H3566 0.951 . S
C3584 C3585 1.366 . S
C3584 C3586 1.388 . S
C3585 C3584 1.366 . S
C3585 C3589 1.385 . S
C3586 H3567 0.951 . S
C3586 C3584 1.388 . S
C3586 C3587 1.366 . S
C3587 C3586 1.366 . S
C3587 C3588 1.414 . S
C3587 C3590 1.499 . S
C3588 H3568 0.950 . S
C3588 C3587 1.414 . S
C3588 C3589 1.374 . S
C3589 H3569 0.950 . S
C3589 C3585 1.385 . S
C3589 C3588 1.374 . S
C3590 C3587 1.499 . S
C3590 C3591 1.373 . S
C3590 C3592 1.389 . S
C3591 H3570 0.950 . S
C3591 C3590 1.373 . S
C3591 C3607 1.377 1_655 S
C3592 C3590 1.389 . S
C3592 C3593 1.524 . S
C3592 C3606 1.377 1_655 S
C3593 C3592 1.524 . S
C3593 C3594 1.397 . S
C3593 C3598 1.363 . S
C3594 H3571 0.950 . S
C3594 C3593 1.397 . S
C3594 C3595 1.334 . S
C3595 H3572 0.950 . S
C3595 C3594 1.334 . S
C3595 C3596 1.287 . S
C3596 C3595 1.287 . S
C3596 C3597 1.524 . S
C3596 H3615 0.913 . S
C3597 H3573 0.950 . S
C3597 C3596 1.524 . S
C3597 C3598 1.415 . S
C3598 H3574 0.950 . S
C3598 C3593 1.363 . S
C3598 C3597 1.415 . S
C3599 H3575 0.951 . S
C3599 C3600 1.366 . S
C3599 C3601 1.388 . S
C3600 C3599 1.366 . S
C3600 C3604 1.385 . S
C3601 H3576 0.951 . S
C3601 C3599 1.388 . S
C3601 C3602 1.366 . S
C3602 C3601 1.366 . S
C3602 C3603 1.414 . S
C3602 C3605 1.499 . S
C3603 H3577 0.950 . S
C3603 C3602 1.414 . S
C3603 C3604 1.374 . S
C3604 H3578 0.950 . S
C3604 C3600 1.385 . S
C3604 C3603 1.374 . S
C3605 C3602 1.499 . S
C3605 C3606 1.373 . S
C3605 C3607 1.389 . S
C3606 H3579 0.950 . S
C3606 C3592 1.377 1_455 S
C3606 C3605 1.373 . S
C3607 C3591 1.377 1_455 S
C3607 C3605 1.389 . S
C3607 C3608 1.524 . S
C3608 C3607 1.524 . S
C3608 C3609 1.397 . S
C3608 C3613 1.363 . S
C3609 H3580 0.950 . S
C3609 C3608 1.397 . S
C3609 C3610 1.334 . S
C3610 H3581 0.950 . S
C3610 C3609 1.334 . S
C3610 C3611 1.287 . S
C3611 C3610 1.287 . S
C3611 C3612 1.524 . S
C3611 H3614 0.999 . S
C3612 H3582 0.950 . S
C3612 C3611 1.524 . S
C3612 C3613 1.415 . S
C3613 H3583 0.950 . S
C3613 C3608 1.363 . S
C3613 C3612 1.415 . S
H3614 C3611 0.999 . S
H3615 C3596 0.913 . S
C435 C309 1.354 . S
C450 C10 1.353 . S
C485 C270 1.355 . S
C500 C23 1.354 . S
C535 C283 1.355 . S
C550 C36 1.354 . S
C585 C296 1.354 . S
C600 C49 1.355 . S
C635 C62 1.354 . S
C650 C231 1.355 . S
C685 C244 1.354 . S
C700 C75 1.353 . S
C735 C88 1.354 . S
C750 C257 1.355 . S
C785 C101 1.353 . S
C800 C218 1.354 . S
C835 C413 1.355 . S
C850 C114 1.353 . S
C885 C127 1.353 . S
C900 C374 1.354 . S
C935 C140 1.355 . S
C950 C387 1.354 . S
C985 C153 1.354 . S
C1000 C400 1.355 . S
C1035 C166 1.354 . S
C1050 C335 1.353 . S
C1085 C179 1.353 . S
C1100 C348 1.354 . S
C1135 C192 1.355 . S
C1150 C361 1.354 . S
C1185 C205 1.353 . S
C1200 C322 1.354 . S
C1235 C8 1.472 . S
C1250 C164 1.471 . S
C1285 C385 1.471 . S
C1300 C21 1.472 . S
C1335 C34 1.472 . S
C1350 C190 1.471 . S
C1385 C411 1.471 . S
C1400 C47 1.472 . S
C1435 C112 1.472 . S
C1450 C60 1.471 . S
C1485 C73 1.471 . S
C1500 C333 1.472 . S
C1535 C86 1.471 . S
C1550 C138 1.472 . S
C1585 C99 1.472 . S
C1600 C359 1.471 . S
C1635 C281 1.471 . S
C1650 C125 1.472 . S
C1685 C307 1.471 . S
C1700 C151 1.472 . S
C1735 C177 1.471 . S
C1750 C229 1.472 . S
C1785 C255 1.472 . S
C1800 C203 1.471 . S
C1835 C372 1.471 . S
C1850 C216 1.472 . S
C1885 C242 1.471 . S
C1900 C398 1.472 . S
C1935 C320 1.472 . S
C1950 C268 1.471 . S
C1985 C346 1.472 . S
C2000 C294 1.471 . S
C2035 C52 0.975 . S
C2050 C0 0.974 . S
C2085 C65 0.975 . S
C2100 C13 0.976 . S
C2135 C26 0.975 . S
C2150 C78 0.975 . S
C2185 C39 0.975 . S
C2200 C91 0.975 . S
C2235 C156 0.974 . S
C2250 C104 0.975 . S
C2285 C169 0.974 . S
C2300 C117 0.974 . S
C2335 C182 0.974 . S
C2350 C130 0.975 . S
C2385 C143 0.975 . S
C2400 C195 0.976 . S
C2435 C208 0.976 . S
C2450 C260 0.976 . S
C2485 C221 0.976 . S
C2500 C273 0.976 . S
C2535 C234 0.976 . S
C2550 C286 0.976 . S
C2585 C247 0.974 . S
C2600 C299 0.975 . S
C2635 C364 0.975 . S
C2650 C312 0.974 . S
C2685 C377 0.975 . S
C2700 C325 0.975 . S
C2735 C390 0.976 . S
C2750 C338 0.976 . S
C2785 C403 0.975 . S
C2800 C351 0.975 . S
C2835 C395 1.186 . S
C2850 C5 1.186 . S
C2885 C18 1.187 . S
C2900 C200 1.186 . S
C2935 C369 1.186 . S
C2950 C31 1.187 . S
C2985 C44 1.187 . S
C3000 C174 1.185 . S
C3035 C343 1.187 . S
C3050 C57 1.186 . S
C3085 C70 1.187 . S
C3100 C148 1.185 . S
C3135 C83 1.185 . S
C3150 C317 1.187 . S
C3185 C122 1.185 . S
C3200 C96 1.187 . S
C3235 C109 1.187 . S
C3250 C291 1.186 . S
C3285 C265 1.186 . S
C3300 C135 1.187 . S
C3335 C161 1.186 . S
C3350 C239 1.187 . S
C3385 C187 1.187 . S
C3400 C213 1.185 . S
C3435 C408 1.185 . S
C3450 C226 1.187 . S
C3485 C252 1.187 . S
C3500 C382 1.186 . S
C3535 C278 1.185 . S
C3550 C356 1.187 . S
C3585 C330 1.185 . S
C3600 C304 1.187 . S
