# Generated by pormake.
# Topology bcu, (8)-cn, num edge types: 1
# Building blocks:
#     Node 0, Type 0, BuildingBlock: AJUNOK_clean_sbu_0, # of connection points: 8
#     Node 1, Type 0, BuildingBlock: AJUNOK_clean_sbu_0, # of connection points: 8
#     Edge 2, Type (0, 0), BuildingBlock: FUNLAD_clean_linker_1, # of connection points: 2
#     Edge 3, Type (0, 0), BuildingBlock: FUNLAD_clean_linker_1, # of connection points: 2
#     Edge 4, Type (0, 0), BuildingBlock: FUNLAD_clean_linker_1, # of connection points: 2
#     Edge 5, Type (0, 0), BuildingBlock: FUNLAD_clean_linker_1, # of connection points: 2
#     Edge 6, Type (0, 0), BuildingBlock: FUNLAD_clean_linker_1, # of connection points: 2
#     Edge 7, Type (0, 0), BuildingBlock: FUNLAD_clean_linker_1, # of connection points: 2
#     Edge 8, Type (0, 0), BuildingBlock: FUNLAD_clean_linker_1, # of connection points: 2
#     Edge 9, Type (0, 0), BuildingBlock: FUNLAD_clean_linker_1, # of connection points: 2
# Relax obj value: 0.065
# Max RMSD: 0.174
# Mean RMSD: 0.174
data_MOF--net-bcu--node1-AJUNOK_clean_sbu_0--edge1-FUNLAD_clean_linker_1
_symmetry_space_group_name_H-M    P1
_symmetry_Int_Tables_number       1
_symmetry_cell_setting            triclinic
loop_
_symmetry_equiv_pos_as_xyz
'x, y, z'
_cell_length_a     24.048365
_cell_length_b     25.345119
_cell_length_c     17.868618
_cell_angle_alpha  101.39713
_cell_angle_beta   103.13675
_cell_angle_gamma 106.28149
loop_
_atom_site_label
_atom_site_type_symbol
_atom_site_fract_x
_atom_site_fract_y
_atom_site_fract_z
_atom_type_partial_charge
Cd0 Cd 0.96537 0.93078 0.10019 0.0
Cd1 Cd 0.01077 -0.01475 0.88053 0.0
C2 C 0.0689 0.90547 0.21752 0.0
N3 N 0.04292 0.89466 0.13774 0.0
C4 C 0.0994 0.83337 0.1081 0.0
C5 C 0.12616 0.84289 0.19063 0.0
C6 C 0.11069 0.87987 0.24529 0.0
C7 C 0.05742 0.85978 0.08292 0.0
H8 H 0.05581 0.93283 0.25962 0.0
H9 H 0.03503 0.85114 0.01978 0.0
C10 C 0.91724 0.88161 0.89497 0.0
C11 C 0.88779 0.00978 0.82545 0.0
C12 C 0.84878 0.0412 0.81616 0.0
C13 C 0.86459 0.09556 0.86998 0.0
C14 C 0.9175 0.11469 0.93537 0.0
C15 C 0.95518 0.08167 0.94249 0.0
N16 N 0.94018 0.03081 0.88697 0.0
H17 H 0.87769 -0.03027 0.78133 0.0
H18 H -0.00221 0.09795 0.98997 0.0
C19 C 0.05017 0.88301 0.80929 0.0
N20 N 0.06548 0.92297 0.88031 0.0
C21 C 0.14899 0.89422 0.93413 0.0
C22 C 0.13486 0.85307 0.86089 0.0
C23 C 0.08426 0.84751 0.79805 0.0
C24 C 0.1136 0.92911 0.94263 0.0
H25 H 0.01256 0.88016 0.76022 0.0
H26 H 0.12558 0.96204 0.99804 0.0
C27 C 0.07627 0.04259 0.10494 0.0
C28 C 0.88724 0.85828 0.16221 0.0
N29 N 0.92016 0.00058 0.11829 0.0
C30 C 0.93487 0.03572 0.19315 0.0
C31 C 0.90365 0.07346 0.20893 0.0
C32 C 0.85674 0.07515 0.14673 0.0
C33 C 0.84376 0.03923 0.06958 0.0
C34 C 0.87609 0.00201 0.05657 0.0
C35 C 0.05617 0.03765 0.76943 0.0
O36 O 0.95073 0.91739 0.96075 0.0
O37 O 0.92451 0.89409 0.83185 0.0
O38 O 0.05405 0.02312 0.02903 0.0
O39 O 0.05383 0.01599 0.1504 0.0
O40 O 0.88359 0.84432 0.08844 0.0
O41 O 0.92677 0.9058 0.20608 0.0
O42 O 0.0826 0.05835 0.84429 0.0
O43 O 0.00936 -0.00685 0.74697 0.0
H44 H 0.96954 0.03297 0.2413 0.0
H45 H 0.86489 -0.02692 0.99776 0.0
H46 H 0.1087 0.80458 0.06319 0.0
H47 H 0.13003 0.88821 0.30923 0.0
H48 H 0.80781 0.02316 0.76604 0.0
H49 H 0.93103 0.15601 0.97859 0.0
H50 H 0.18785 0.90019 0.98376 0.0
H51 H 0.07202 0.81807 0.73948 0.0
H52 H 0.91502 0.09897 0.2699 0.0
H53 H 0.80797 0.03905 0.02004 0.0
Cd54 Cd 0.43324 0.41515 0.57595 0.0
Cd55 Cd 0.56062 0.51447 0.44626 0.0
C56 C 0.52123 0.36575 0.67892 0.0
N57 N 0.50206 0.36792 0.60235 0.0
C58 C 0.55976 0.31126 0.56076 0.0
C59 C 0.58077 0.30875 0.63955 0.0
C60 C 0.56095 0.33645 0.69909 0.0
C61 C 0.52038 0.34163 0.54336 0.0
H62 H 0.50494 0.38629 0.72416 0.0
H63 H 0.50384 0.34368 0.48278 0.0
C64 C 0.43124 0.41695 0.36803 0.0
C65 C 0.49939 0.57667 0.32923 0.0
C66 C 0.46125 0.60439 0.29703 0.0
C67 C 0.41985 0.61712 0.33549 0.0
C68 C 0.41796 0.60114 0.40636 0.0
C69 C 0.45719 0.57357 0.43659 0.0
N70 N 0.49644 0.56169 0.39749 0.0
H71 H 0.5312 0.56671 0.29954 0.0
H72 H 0.45618 0.56126 0.49099 0.0
C73 C 0.58635 0.41182 0.33793 0.0
N74 N 0.59761 0.43957 0.41599 0.0
C75 C 0.6624 0.3878 0.45794 0.0
C76 C 0.65245 0.359 0.37779 0.0
C77 C 0.61324 0.37111 0.3173 0.0
C78 C 0.63431 0.42807 0.47588 0.0
H79 H 0.55813 0.42279 0.29141 0.0
H80 H 0.64306 0.45134 0.53744 0.0
C81 C 0.55589 0.51265 0.63913 0.0
C82 C 0.33288 0.33128 0.59259 0.0
N83 N 0.39635 0.49015 0.60266 0.0
C84 C 0.40878 0.51945 0.68033 0.0
C85 C 0.3819 0.56021 0.70017 0.0
C86 C 0.3413 0.57055 0.63931 0.0
C87 C 0.3296 0.53982 0.55958 0.0
C88 C 0.35781 0.49956 0.54241 0.0
C89 C 0.66713 0.60317 0.45594 0.0
O90 O 0.44235 0.42447 0.44319 0.0
O91 O 0.4697 0.44775 0.34211 0.0
O92 O 0.53486 0.49519 0.56379 0.0
O93 O 0.52521 0.48782 0.67909 0.0
O94 O 0.33989 0.32988 0.52396 0.0
O95 O 0.37201 0.37085 0.65171 0.0
O96 O 0.64514 0.60527 0.51428 0.0
O97 O 0.6402 0.55981 0.39525 0.0
H98 H 0.43779 0.5096 0.72733 0.0
H99 H 0.34772 0.47465 0.4813 0.0
H100 H 0.57366 0.28993 0.51323 0.0
H101 H 0.57426 0.33415 0.7601 0.0
H102 H 0.46412 0.61577 0.24233 0.0
H103 H 0.38632 0.60875 0.4379 0.0
H104 H 0.69253 0.37995 0.50626 0.0
H105 H 0.60524 0.35158 0.25454 0.0
H106 H 0.39085 0.5811 0.76275 0.0
H107 H 0.29807 0.54613 0.51116 0.0
H108 H 0.14941 0.10575 0.20645 0.0
C109 C 0.12748 0.0963 0.14261 0.0
H110 H 0.12429 0.12797 0.04089 0.0
H111 H 0.25914 0.34 0.38436 0.0
H112 H 0.15635 0.32331 0.39212 0.0
H113 H 0.06922 0.24827 0.28713 0.0
H114 H 0.08466 0.18849 0.17485 0.0
C115 C 0.14502 0.13568 0.10457 0.0
C116 C 0.19369 0.19091 0.15163 0.0
C117 C 0.1837 0.22753 0.21433 0.0
C118 C 0.23364 0.27184 0.27327 0.0
C119 C 0.22268 0.306 0.33744 0.0
C120 C 0.16391 0.29697 0.34252 0.0
C121 C 0.11487 0.25462 0.28356 0.0
C122 C 0.12436 0.22033 0.21988 0.0
H123 H 0.36294 0.37658 0.24989 0.0
C124 C 0.37599 0.3733 0.31073 0.0
H125 H 0.35843 0.3226 0.38876 0.0
H126 H 0.22605 0.13439 0.03128 0.0
H127 H 0.32868 0.15046 0.02257 0.0
H128 H 0.41635 0.22476 0.12758 0.0
H129 H 0.40208 0.28403 0.24065 0.0
C130 C 0.34517 0.32728 0.32894 0.0
C131 C 0.29311 0.28093 0.26723 0.0
C132 C 0.30273 0.24606 0.20214 0.0
C133 C 0.25258 0.2018 0.14321 0.0
C134 C 0.26295 0.16789 0.07835 0.0
C135 C 0.3215 0.17673 0.0726 0.0
C136 C 0.37083 0.21871 0.13154 0.0
C137 C 0.36189 0.25288 0.19586 0.0
H138 H 0.77538 0.10044 0.11414 0.0
C139 C 0.81795 0.11056 0.16054 0.0
H140 H 0.87399 0.16589 0.27467 0.0
H141 H 0.69389 0.31139 0.16978 0.0
H142 H 0.73917 0.32063 0.06282 0.0
H143 H 0.8088 0.26892 0.03687 0.0
H144 H 0.83362 0.20773 0.11766 0.0
C145 C 0.8321 0.15388 0.22675 0.0
C146 C 0.78899 0.18443 0.24035 0.0
C147 C 0.77545 0.2206 0.1929 0.0
C148 C 0.73568 0.25087 0.20842 0.0
C149 C 0.72342 0.28707 0.16051 0.0
C150 C 0.74933 0.29302 0.09906 0.0
C151 C 0.78853 0.2639 0.08443 0.0
C152 C 0.80195 0.22843 0.13093 0.0
H153 H 0.72809 0.32547 0.40564 0.0
C154 C 0.68706 0.32027 0.35955 0.0
H155 H 0.62968 0.27245 0.24262 0.0
H156 H 0.80406 0.11747 0.34098 0.0
H157 H 0.75578 0.10535 0.44471 0.0
H158 H 0.68432 0.15532 0.4686 0.0
H159 H 0.66146 0.21841 0.38997 0.0
C160 C 0.67066 0.27954 0.28973 0.0
C161 C 0.71008 0.24554 0.27196 0.0
C162 C 0.72222 0.20803 0.31781 0.0
C163 C 0.76236 0.17812 0.30269 0.0
C164 C 0.77401 0.1413 0.34983 0.0
C165 C 0.74638 0.1337 0.40935 0.0
C166 C 0.7062 0.16189 0.42288 0.0
C167 C 0.69396 0.1985 0.37774 0.0
H168 H 0.82374 0.77572 0.15938 0.0
C169 C 0.84945 0.81935 0.1962 0.0
H170 H 0.8749 0.87905 0.30925 0.0
H171 H 0.64403 0.64776 0.29108 0.0
H172 H 0.58259 0.67359 0.18671 0.0
H173 H 0.62771 0.75607 0.13966 0.0
H174 H 0.73484 0.81272 0.19641 0.0
C175 C 0.84868 0.83563 0.27211 0.0
C176 C 0.8187 0.79325 0.30994 0.0
C177 C 0.75562 0.76194 0.27791 0.0
C178 C 0.72941 0.7154 0.30637 0.0
C179 C 0.66651 0.6837 0.27191 0.0
C180 C 0.63056 0.69817 0.21205 0.0
C181 C 0.65598 0.74453 0.18552 0.0
C182 C 0.71767 0.77635 0.21806 0.0
H183 H 0.72873 0.69314 0.49807 0.0
C184 C 0.71651 0.65229 0.45395 0.0
H185 H 0.72487 0.60873 0.34604 0.0
H186 H 0.93976 0.84947 0.39144 0.0
H187 H -0.00055 0.82755 0.50197 0.0
H188 H 0.95322 0.7476 0.5528 0.0
H189 H 0.84656 0.68897 0.4928 0.0
C190 C 0.7386 0.64936 0.3913 0.0
C191 C 0.76593 0.70153 0.36849 0.0
C192 C 0.82785 0.73561 0.40487 0.0
C193 C 0.85438 0.78171 0.37556 0.0
C194 C 0.9169 0.81424 0.4115 0.0
C195 C 0.95183 0.80204 0.47502 0.0
C196 C 0.92579 0.75702 0.50363 0.0
C197 C 0.86459 0.72382 0.46887 0.0
H198 H 0.1768 0.81548 0.28621 0.0
C199 C 0.16779 0.81354 0.22303 0.0
H200 H 0.1885 0.78223 0.11727 0.0
H201 H 0.40805 0.77284 0.41504 0.0
H202 H 0.43921 0.87646 0.45556 0.0
H203 H 0.37892 0.92651 0.38619 0.0
H204 H 0.28699 0.87331 0.27638 0.0
C205 C 0.1958 0.78586 0.18049 0.0
C206 C 0.2354 0.75641 0.21828 0.0
C207 C 0.29002 0.78838 0.28116 0.0
C208 C 0.32552 0.75959 0.32006 0.0
C209 C 0.37936 0.79249 0.38337 0.0
C210 C 0.3979 0.85203 0.40713 0.0
C211 C 0.36392 0.8802 0.36815 0.0
C212 C 0.31084 0.84903 0.30559 0.0
H213 H 0.37713 0.64807 0.23773 0.0
C214 C 0.37899 0.6456 0.29832 0.0
H215 H 0.34821 0.67155 0.39709 0.0
H216 H 0.13382 0.68234 0.09936 0.0
H217 H 0.10411 0.57888 0.05677 0.0
H218 H 0.16663 0.52912 0.12268 0.0
H219 H 0.25896 0.58245 0.23195 0.0
C220 C 0.3454 0.6695 0.33511 0.0
C221 C 0.30753 0.69909 0.29439 0.0
C222 C 0.25366 0.66717 0.2304 0.0
C223 C 0.21756 0.69588 0.19238 0.0
C224 C 0.16326 0.66285 0.12991 0.0
C225 C 0.14557 0.60338 0.10492 0.0
C226 C 0.18081 0.57537 0.14197 0.0
C227 C 0.23399 0.6066 0.20434 0.0
H228 H 0.22109 0.83548 0.89364 0.0
C229 C 0.17609 0.8199 0.85041 0.0
H230 H 0.11672 0.75475 0.7457 0.0
H231 H 0.32619 0.70788 0.61676 0.0
H232 H 0.29367 0.7637 0.53136 0.0
H233 H 0.22067 0.81138 0.55693 0.0
H234 H 0.18013 0.8038 0.66842 0.0
C235 C 0.16111 0.77243 0.78993 0.0
C236 C 0.20622 0.74465 0.77664 0.0
C237 C 0.22844 0.74848 0.71016 0.0
C238 C 0.26953 0.72001 0.69442 0.0
C239 C 0.29314 0.72679 0.62977 0.0
C240 C 0.27529 0.75919 0.58066 0.0
C241 C 0.23426 0.78609 0.59511 0.0
C242 C 0.21117 0.78119 0.65918 0.0
H243 H 0.26375 0.60169 0.61378 0.0
C244 C 0.3069 0.60929 0.65746 0.0
H245 H 0.36937 0.6622 0.76914 0.0
H246 H 0.17233 0.72884 0.90937 0.0
H247 H 0.20631 0.67457 0.9961 0.0
H248 H 0.27666 0.62428 0.96834 0.0
H249 H 0.31392 0.62835 0.85367 0.0
C250 C 0.32615 0.65276 0.72479 0.0
C251 C 0.28691 0.6864 0.74396 0.0
C252 C 0.26603 0.68396 0.81183 0.0
C253 C 0.22549 0.71302 0.82809 0.0
C254 C 0.20402 0.70854 0.89493 0.0
C255 C 0.22286 0.67718 0.94506 0.0
C256 C 0.2625 0.64889 0.92939 0.0
C257 C 0.2837 0.65177 0.86342 0.0
H258 H 0.27985 0.29559 0.66653 0.0
C259 C 0.28289 0.28885 0.60575 0.0
H260 H 0.24735 0.2318 0.48866 0.0
H261 H 0.18964 0.05023 0.69326 0.0
H262 H 0.26493 0.02349 0.63895 0.0
H263 H 0.31073 0.07539 0.5525 0.0
H264 H 0.28185 0.15486 0.52044 0.0
C265 C 0.24404 0.24132 0.54918 0.0
C266 C 0.20157 0.19796 0.57385 0.0
C267 C 0.21689 0.15028 0.58895 0.0
C268 C 0.18992 0.11998 0.63792 0.0
C269 C 0.20835 0.07437 0.65575 0.0
C270 C 0.2515 0.05862 0.62499 0.0
C271 C 0.27736 0.0879 0.57639 0.0
C272 C 0.26061 0.13345 0.55866 0.0
H273 H 0.05415 0.04211 0.64688 0.0
C274 C 0.07804 0.06336 0.70993 0.0
H275 H 0.14988 0.13401 0.79371 0.0
H276 H 0.15096 0.27654 0.5366 0.0
H277 H 0.07016 0.29936 0.58251 0.0
H278 H 0.02415 0.24811 0.66945 0.0
H279 H 0.0579 0.17338 0.71027 0.0
C280 C 0.12575 0.11171 0.73105 0.0
C281 C 0.1467 0.13681 0.6698 0.0
C282 C 0.12623 0.1801 0.6467 0.0
C283 C 0.15336 0.21033 0.59784 0.0
C284 C 0.13234 0.25333 0.57513 0.0
C285 C 0.08597 0.2665 0.60066 0.0
C286 C 0.05998 0.23755 0.64951 0.0
C287 C 0.07977 0.19485 0.6726 0.0
H288 H 0.84055 0.17294 0.90678 0.0
C289 C 0.82911 0.13447 0.8583 0.0
H290 H 0.77631 0.0911 0.73778 0.0
H291 H 0.62491 0.26085 0.8452 0.0
H292 H 0.61059 0.21232 0.94692 0.0
H293 H 0.6612 0.14239 0.97085 0.0
H294 H 0.72637 0.12065 0.8934 0.0
C295 C 0.78646 0.12663 0.78962 0.0
C296 C 0.75685 0.16987 0.77772 0.0
C297 C 0.7179 0.18126 0.82288 0.0
C298 C 0.68801 0.22099 0.80823 0.0
C299 C 0.64909 0.23136 0.85388 0.0
C300 C 0.64016 0.20357 0.9123 0.0
C301 C 0.66867 0.16422 0.9258 0.0
C302 C 0.70662 0.15262 0.88134 0.0
H303 H 0.61588 0.23797 0.60958 0.0
C304 C 0.62024 0.27437 0.65729 0.0
H305 H 0.66741 0.3236 0.77712 0.0
H306 H 0.83082 0.15993 0.68326 0.0
H307 H 0.848 0.21113 0.58494 0.0
H308 H 0.79782 0.28153 0.56179 0.0
H309 H 0.72994 0.30081 0.6364 0.0
C310 C 0.66127 0.28674 0.72913 0.0
C311 C 0.69616 0.24837 0.7475 0.0
C312 C 0.73674 0.23848 0.70432 0.0
C313 C 0.76652 0.19866 0.71879 0.0
C314 C 0.80661 0.1894 0.67452 0.0
C315 C 0.81724 0.21879 0.61818 0.0
C316 C 0.78898 0.25839 0.60511 0.0
C317 C 0.74947 0.26853 0.64777 0.0
H318 H 0.62596 0.58948 0.64074 0.0
C319 C 0.61245 0.56145 0.67686 0.0
H320 H 0.63484 0.54559 0.78959 0.0
H321 H 0.86399 0.74188 0.7259 0.0
H322 H 0.86496 0.66255 0.62567 0.0
H323 H 0.79386 0.5648 0.60007 0.0
H324 H 0.72099 0.54613 0.67461 0.0
C325 C 0.64779 0.57276 0.75201 0.0
C326 C 0.70271 0.62552 0.78522 0.0
C327 C 0.74705 0.63527 0.74427 0.0
C328 C 0.78872 0.6913 0.76021 0.0
C329 C 0.83098 0.70019 0.71611 0.0
C330 C 0.83225 0.65495 0.65858 0.0
C331 C 0.79224 0.59994 0.64417 0.0
C332 C 0.7503 0.5899 0.6867 0.0
H333 H 0.88112 0.81056 0.94409 0.0
C334 C 0.87342 0.82701 0.8925 0.0
H335 H 0.8195 0.81223 0.77482 0.0
H336 H 0.63389 0.61754 0.88781 0.0
H337 H 0.63704 0.695 0.99479 0.0
H338 H 0.70756 0.79305 0.02124 0.0
H339 H 0.77551 0.81418 0.94119 0.0
C340 C 0.82622 0.79642 0.8273 0.0
C341 C 0.78746 0.73712 0.81918 0.0
C342 C 0.74755 0.72603 0.86638 0.0
C343 C 0.70575 0.66974 0.85003 0.0
C344 C 0.66605 0.65957 0.89724 0.0
C345 C 0.66743 0.70364 0.95891 0.0
C346 C 0.70724 0.75882 0.97387 0.0
C347 C 0.74646 0.77027 0.92782 0.0
loop_
_geom_bond_atom_site_label_1
_geom_bond_atom_site_label_2
_geom_bond_distance
_geom_bond_site_symmetry_2
_ccdc_geom_bond_type
Cd0 N3 2.334 1_655 S
Cd0 N29 2.304 1_565 S
Cd0 O36 2.268 1_554 S
Cd0 O39 2.273 1_665 S
Cd0 O40 2.417 . S
Cd0 O41 2.330 . S
Cd1 N16 2.304 1_455 S
Cd1 N20 2.334 1_545 S
Cd1 O37 2.273 1_445 S
Cd1 O38 2.268 1_556 S
Cd1 O42 2.417 . S
Cd1 O43 2.330 . S
C2 N3 1.332 . S
C2 C6 1.381 . S
C2 H8 0.931 . S
N3 Cd0 2.334 1_455 S
N3 C2 1.332 . S
N3 C7 1.328 . S
C4 C5 1.396 . S
C4 C7 1.378 . S
C4 H46 0.931 1_554 S
C5 C4 1.396 . S
C5 C6 1.382 . S
C6 C2 1.381 . S
C6 C5 1.382 . S
C6 H47 0.930 . S
C7 N3 1.328 . S
C7 C4 1.378 . S
C7 H9 0.930 1_454 S
H8 C2 0.931 . S
H9 C7 0.930 1_656 S
C10 O36 1.238 . S
C10 O37 1.253 . S
C11 C12 1.379 . S
C11 N16 1.337 . S
C11 H17 0.929 . S
C12 C11 1.379 . S
C12 C13 1.380 . S
C12 H48 0.929 . S
C13 C12 1.380 . S
C13 C14 1.399 . S
C14 C13 1.399 . S
C14 C15 1.376 . S
C14 H49 0.931 1_556 S
C15 C14 1.376 . S
C15 N16 1.338 . S
C15 H18 0.930 1_656 S
N16 Cd1 2.304 1_655 S
N16 C11 1.337 . S
N16 C15 1.338 . S
H17 C11 0.929 . S
H18 C15 0.930 1_454 S
C19 N20 1.332 . S
C19 C23 1.381 . S
C19 H25 0.931 . S
N20 Cd1 2.334 1_565 S
N20 C19 1.332 . S
N20 C24 1.328 . S
C21 C22 1.396 . S
C21 C24 1.378 . S
C21 H50 0.931 1_556 S
C22 C21 1.396 . S
C22 C23 1.382 . S
C23 C19 1.381 . S
C23 C22 1.382 . S
C23 H51 0.930 . S
C24 N20 1.328 . S
C24 C21 1.378 . S
C24 H26 0.930 1_566 S
H25 C19 0.931 . S
H26 C24 0.930 1_544 S
C27 O38 1.238 . S
C27 O39 1.253 . S
C28 O40 1.239 . S
C28 O41 1.230 . S
N29 Cd0 2.304 1_545 S
N29 C30 1.337 . S
N29 C34 1.338 . S
C30 N29 1.337 . S
C30 C31 1.379 . S
C30 H44 0.929 . S
C31 C30 1.379 . S
C31 C32 1.380 . S
C31 H52 0.929 . S
C32 C31 1.380 . S
C32 C33 1.399 . S
C33 C32 1.399 . S
C33 C34 1.376 . S
C33 H53 0.931 1_554 S
C34 N29 1.338 . S
C34 C33 1.376 . S
C34 H45 0.930 1_544 S
C35 O42 1.239 . S
C35 O43 1.230 . S
O36 Cd0 2.268 1_556 S
O36 C10 1.238 . S
O37 Cd1 2.273 1_665 S
O37 C10 1.253 . S
O38 Cd1 2.268 1_554 S
O38 C27 1.238 . S
O39 Cd0 2.273 1_445 S
O39 C27 1.253 . S
O40 Cd0 2.417 . S
O40 C28 1.239 . S
O41 Cd0 2.330 . S
O41 C28 1.230 . S
O42 Cd1 2.417 . S
O42 C35 1.239 . S
O43 Cd1 2.330 . S
O43 C35 1.230 . S
H44 C30 0.929 . S
H45 C34 0.930 1_566 S
H46 C4 0.931 1_556 S
H47 C6 0.930 . S
H48 C12 0.929 . S
H49 C14 0.931 1_554 S
H50 C21 0.931 1_554 S
H51 C23 0.930 . S
H52 C31 0.929 . S
H53 C33 0.931 1_556 S
Cd54 N57 2.334 . S
Cd54 N83 2.304 . S
Cd54 O90 2.268 . S
Cd54 O93 2.273 . S
Cd54 O94 2.417 . S
Cd54 O95 2.330 . S
Cd55 N70 2.304 . S
Cd55 N74 2.334 . S
Cd55 O91 2.273 . S
Cd55 O92 2.268 . S
Cd55 O96 2.417 . S
Cd55 O97 2.330 . S
C56 N57 1.332 . S
C56 C60 1.381 . S
C56 H62 0.931 . S
N57 Cd54 2.334 . S
N57 C56 1.332 . S
N57 C61 1.328 . S
C58 C59 1.396 . S
C58 C61 1.378 . S
C58 H100 0.931 . S
C59 C58 1.396 . S
C59 C60 1.382 . S
C60 C56 1.381 . S
C60 C59 1.382 . S
C60 H101 0.930 . S
C61 N57 1.328 . S
C61 C58 1.378 . S
C61 H63 0.930 . S
H62 C56 0.931 . S
H63 C61 0.930 . S
C64 O90 1.238 . S
C64 O91 1.253 . S
C65 C66 1.379 . S
C65 N70 1.337 . S
C65 H71 0.929 . S
C66 C65 1.379 . S
C66 C67 1.380 . S
C66 H102 0.929 . S
C67 C66 1.380 . S
C67 C68 1.399 . S
C68 C67 1.399 . S
C68 C69 1.376 . S
C68 H103 0.931 . S
C69 C68 1.376 . S
C69 N70 1.338 . S
C69 H72 0.930 . S
N70 Cd55 2.304 . S
N70 C65 1.337 . S
N70 C69 1.338 . S
H71 C65 0.929 . S
H72 C69 0.930 . S
C73 N74 1.332 . S
C73 C77 1.381 . S
C73 H79 0.931 . S
N74 Cd55 2.334 . S
N74 C73 1.332 . S
N74 C78 1.328 . S
C75 C76 1.396 . S
C75 C78 1.378 . S
C75 H104 0.931 . S
C76 C75 1.396 . S
C76 C77 1.382 . S
C77 C73 1.381 . S
C77 C76 1.382 . S
C77 H105 0.930 . S
C78 N74 1.328 . S
C78 C75 1.378 . S
C78 H80 0.930 . S
H79 C73 0.931 . S
H80 C78 0.930 . S
C81 O92 1.238 . S
C81 O93 1.253 . S
C82 O94 1.239 . S
C82 O95 1.230 . S
N83 Cd54 2.304 . S
N83 C84 1.337 . S
N83 C88 1.338 . S
C84 N83 1.337 . S
C84 C85 1.379 . S
C84 H98 0.929 . S
C85 C84 1.379 . S
C85 C86 1.380 . S
C85 H106 0.929 . S
C86 C85 1.380 . S
C86 C87 1.399 . S
C87 C86 1.399 . S
C87 C88 1.376 . S
C87 H107 0.931 . S
C88 N83 1.338 . S
C88 C87 1.376 . S
C88 H99 0.930 . S
C89 O96 1.239 . S
C89 O97 1.230 . S
O90 Cd54 2.268 . S
O90 C64 1.238 . S
O91 Cd55 2.273 . S
O91 C64 1.253 . S
O92 Cd55 2.268 . S
O92 C81 1.238 . S
O93 Cd54 2.273 . S
O93 C81 1.253 . S
O94 Cd54 2.417 . S
O94 C82 1.239 . S
O95 Cd54 2.330 . S
O95 C82 1.230 . S
O96 Cd55 2.417 . S
O96 C89 1.239 . S
O97 Cd55 2.330 . S
O97 C89 1.230 . S
H98 C84 0.929 . S
H99 C88 0.930 . S
H100 C58 0.931 . S
H101 C60 0.930 . S
H102 C66 0.929 . S
H103 C68 0.931 . S
H104 C75 0.931 . S
H105 C77 0.930 . S
H106 C85 0.929 . S
H107 C87 0.931 . S
H108 C109 0.951 . S
C109 H108 0.951 . S
C109 C115 1.265 . S
H110 C115 0.950 . S
H111 C119 0.949 . S
H112 C120 0.950 . S
H113 C121 0.951 . S
H114 C122 0.951 . S
C115 C109 1.265 . S
C115 H110 0.950 . S
C115 C116 1.478 . S
C116 C115 1.478 . S
C116 C117 1.397 . S
C116 C133 1.394 . S
C117 C116 1.397 . S
C117 C118 1.438 . S
C117 C122 1.429 . S
C118 C117 1.438 . S
C118 C119 1.428 . S
C118 C131 1.394 . S
C119 H111 0.949 . S
C119 C118 1.428 . S
C119 C120 1.345 . S
C120 H112 0.950 . S
C120 C119 1.345 . S
C120 C121 1.424 . S
C121 H113 0.951 . S
C121 C120 1.424 . S
C121 C122 1.347 . S
C122 H114 0.951 . S
C122 C117 1.429 . S
C122 C121 1.347 . S
H123 C124 0.951 . S
C124 H123 0.951 . S
C124 C130 1.265 . S
H125 C130 0.950 . S
H126 C134 0.949 . S
H127 C135 0.950 . S
H128 C136 0.951 . S
H129 C137 0.951 . S
C130 C124 1.265 . S
C130 H125 0.950 . S
C130 C131 1.478 . S
C131 C118 1.394 . S
C131 C130 1.478 . S
C131 C132 1.397 . S
C132 C131 1.397 . S
C132 C133 1.438 . S
C132 C137 1.429 . S
C133 C116 1.394 . S
C133 C132 1.438 . S
C133 C134 1.428 . S
C134 H126 0.949 . S
C134 C133 1.428 . S
C134 C135 1.345 . S
C135 H127 0.950 . S
C135 C134 1.345 . S
C135 C136 1.424 . S
C136 H128 0.951 . S
C136 C135 1.424 . S
C136 C137 1.347 . S
C137 H129 0.951 . S
C137 C132 1.429 . S
C137 C136 1.347 . S
H138 C139 0.951 . S
C139 H138 0.951 . S
C139 C145 1.265 . S
H140 C145 0.950 . S
H141 C149 0.949 . S
H142 C150 0.950 . S
H143 C151 0.951 . S
H144 C152 0.951 . S
C145 C139 1.265 . S
C145 H140 0.950 . S
C145 C146 1.478 . S
C146 C145 1.478 . S
C146 C147 1.397 . S
C146 C163 1.394 . S
C147 C146 1.397 . S
C147 C148 1.438 . S
C147 C152 1.429 . S
C148 C147 1.438 . S
C148 C149 1.428 . S
C148 C161 1.394 . S
C149 H141 0.949 . S
C149 C148 1.428 . S
C149 C150 1.345 . S
C150 H142 0.950 . S
C150 C149 1.345 . S
C150 C151 1.424 . S
C151 H143 0.951 . S
C151 C150 1.424 . S
C151 C152 1.347 . S
C152 H144 0.951 . S
C152 C147 1.429 . S
C152 C151 1.347 . S
H153 C154 0.951 . S
C154 H153 0.951 . S
C154 C160 1.265 . S
H155 C160 0.950 . S
H156 C164 0.949 . S
H157 C165 0.950 . S
H158 C166 0.951 . S
H159 C167 0.951 . S
C160 C154 1.265 . S
C160 H155 0.950 . S
C160 C161 1.478 . S
C161 C148 1.394 . S
C161 C160 1.478 . S
C161 C162 1.397 . S
C162 C161 1.397 . S
C162 C163 1.438 . S
C162 C167 1.429 . S
C163 C146 1.394 . S
C163 C162 1.438 . S
C163 C164 1.428 . S
C164 H156 0.949 . S
C164 C163 1.428 . S
C164 C165 1.345 . S
C165 H157 0.950 . S
C165 C164 1.345 . S
C165 C166 1.424 . S
C166 H158 0.951 . S
C166 C165 1.424 . S
C166 C167 1.347 . S
C167 H159 0.951 . S
C167 C162 1.429 . S
C167 C166 1.347 . S
H168 C169 0.951 . S
C169 H168 0.951 . S
C169 C175 1.265 . S
H170 C175 0.950 . S
H171 C179 0.949 . S
H172 C180 0.950 . S
H173 C181 0.951 . S
H174 C182 0.951 . S
C175 C169 1.265 . S
C175 H170 0.950 . S
C175 C176 1.478 . S
C176 C175 1.478 . S
C176 C177 1.397 . S
C176 C193 1.394 . S
C177 C176 1.397 . S
C177 C178 1.438 . S
C177 C182 1.429 . S
C178 C177 1.438 . S
C178 C179 1.428 . S
C178 C191 1.394 . S
C179 H171 0.949 . S
C179 C178 1.428 . S
C179 C180 1.345 . S
C180 H172 0.950 . S
C180 C179 1.345 . S
C180 C181 1.424 . S
C181 H173 0.951 . S
C181 C180 1.424 . S
C181 C182 1.347 . S
C182 H174 0.951 . S
C182 C177 1.429 . S
C182 C181 1.347 . S
H183 C184 0.951 . S
C184 H183 0.951 . S
C184 C190 1.265 . S
H185 C190 0.950 . S
H186 C194 0.949 . S
H187 C195 0.950 . S
H188 C196 0.951 . S
H189 C197 0.951 . S
C190 C184 1.265 . S
C190 H185 0.950 . S
C190 C191 1.478 . S
C191 C178 1.394 . S
C191 C190 1.478 . S
C191 C192 1.397 . S
C192 C191 1.397 . S
C192 C193 1.438 . S
C192 C197 1.429 . S
C193 C176 1.394 . S
C193 C192 1.438 . S
C193 C194 1.428 . S
C194 H186 0.949 . S
C194 C193 1.428 . S
C194 C195 1.345 . S
C195 H187 0.950 . S
C195 C194 1.345 . S
C195 C196 1.424 . S
C196 H188 0.951 . S
C196 C195 1.424 . S
C196 C197 1.347 . S
C197 H189 0.951 . S
C197 C192 1.429 . S
C197 C196 1.347 . S
H198 C199 0.951 . S
C199 H198 0.951 . S
C199 C205 1.265 . S
H200 C205 0.950 . S
H201 C209 0.949 . S
H202 C210 0.950 . S
H203 C211 0.951 . S
H204 C212 0.951 . S
C205 C199 1.265 . S
C205 H200 0.950 . S
C205 C206 1.478 . S
C206 C205 1.478 . S
C206 C207 1.397 . S
C206 C223 1.394 . S
C207 C206 1.397 . S
C207 C208 1.438 . S
C207 C212 1.429 . S
C208 C207 1.438 . S
C208 C209 1.428 . S
C208 C221 1.394 . S
C209 H201 0.949 . S
C209 C208 1.428 . S
C209 C210 1.345 . S
C210 H202 0.950 . S
C210 C209 1.345 . S
C210 C211 1.424 . S
C211 H203 0.951 . S
C211 C210 1.424 . S
C211 C212 1.347 . S
C212 H204 0.951 . S
C212 C207 1.429 . S
C212 C211 1.347 . S
H213 C214 0.951 . S
C214 H213 0.951 . S
C214 C220 1.265 . S
H215 C220 0.950 . S
H216 C224 0.949 . S
H217 C225 0.950 . S
H218 C226 0.951 . S
H219 C227 0.951 . S
C220 C214 1.265 . S
C220 H215 0.950 . S
C220 C221 1.478 . S
C221 C208 1.394 . S
C221 C220 1.478 . S
C221 C222 1.397 . S
C222 C221 1.397 . S
C222 C223 1.438 . S
C222 C227 1.429 . S
C223 C206 1.394 . S
C223 C222 1.438 . S
C223 C224 1.428 . S
C224 H216 0.949 . S
C224 C223 1.428 . S
C224 C225 1.345 . S
C225 H217 0.950 . S
C225 C224 1.345 . S
C225 C226 1.424 . S
C226 H218 0.951 . S
C226 C225 1.424 . S
C226 C227 1.347 . S
C227 H219 0.951 . S
C227 C222 1.429 . S
C227 C226 1.347 . S
H228 C229 0.951 . S
C229 H228 0.951 . S
C229 C235 1.265 . S
H230 C235 0.950 . S
H231 C239 0.949 . S
H232 C240 0.950 . S
H233 C241 0.951 . S
H234 C242 0.951 . S
C235 C229 1.265 . S
C235 H230 0.950 . S
C235 C236 1.478 . S
C236 C235 1.478 . S
C236 C237 1.397 . S
C236 C253 1.394 . S
C237 C236 1.397 . S
C237 C238 1.438 . S
C237 C242 1.429 . S
C238 C237 1.438 . S
C238 C239 1.428 . S
C238 C251 1.394 . S
C239 H231 0.949 . S
C239 C238 1.428 . S
C239 C240 1.345 . S
C240 H232 0.950 . S
C240 C239 1.345 . S
C240 C241 1.424 . S
C241 H233 0.951 . S
C241 C240 1.424 . S
C241 C242 1.347 . S
C242 H234 0.951 . S
C242 C237 1.429 . S
C242 C241 1.347 . S
H243 C244 0.951 . S
C244 H243 0.951 . S
C244 C250 1.265 . S
H245 C250 0.950 . S
H246 C254 0.949 . S
H247 C255 0.950 1_554 S
H248 C256 0.951 . S
H249 C257 0.951 . S
C250 C244 1.265 . S
C250 H245 0.950 . S
C250 C251 1.478 . S
C251 C238 1.394 . S
C251 C250 1.478 . S
C251 C252 1.397 . S
C252 C251 1.397 . S
C252 C253 1.438 . S
C252 C257 1.429 . S
C253 C236 1.394 . S
C253 C252 1.438 . S
C253 C254 1.428 . S
C254 H246 0.949 . S
C254 C253 1.428 . S
C254 C255 1.345 . S
C255 H247 0.950 1_556 S
C255 C254 1.345 . S
C255 C256 1.424 . S
C256 H248 0.951 . S
C256 C255 1.424 . S
C256 C257 1.347 . S
C257 H249 0.951 . S
C257 C252 1.429 . S
C257 C256 1.347 . S
H258 C259 0.951 . S
C259 H258 0.951 . S
C259 C265 1.265 . S
H260 C265 0.950 . S
H261 C269 0.949 . S
H262 C270 0.950 . S
H263 C271 0.951 . S
H264 C272 0.951 . S
C265 C259 1.265 . S
C265 H260 0.950 . S
C265 C266 1.478 . S
C266 C265 1.478 . S
C266 C267 1.397 . S
C266 C283 1.394 . S
C267 C266 1.397 . S
C267 C268 1.438 . S
C267 C272 1.429 . S
C268 C267 1.438 . S
C268 C269 1.428 . S
C268 C281 1.394 . S
C269 H261 0.949 . S
C269 C268 1.428 . S
C269 C270 1.345 . S
C270 H262 0.950 . S
C270 C269 1.345 . S
C270 C271 1.424 . S
C271 H263 0.951 . S
C271 C270 1.424 . S
C271 C272 1.347 . S
C272 H264 0.951 . S
C272 C267 1.429 . S
C272 C271 1.347 . S
H273 C274 0.951 . S
C274 H273 0.951 . S
C274 C280 1.265 . S
H275 C280 0.950 . S
H276 C284 0.949 . S
H277 C285 0.950 . S
H278 C286 0.951 1_554 S
H279 C287 0.951 . S
C280 C274 1.265 . S
C280 H275 0.950 . S
C280 C281 1.478 . S
C281 C268 1.394 . S
C281 C280 1.478 . S
C281 C282 1.397 . S
C282 C281 1.397 . S
C282 C283 1.438 . S
C282 C287 1.429 . S
C283 C266 1.394 . S
C283 C282 1.438 . S
C283 C284 1.428 . S
C284 H276 0.949 . S
C284 C283 1.428 . S
C284 C285 1.345 . S
C285 H277 0.950 . S
C285 C284 1.345 . S
C285 C286 1.424 . S
C286 H278 0.951 1_556 S
C286 C285 1.424 . S
C286 C287 1.347 . S
C287 H279 0.951 . S
C287 C282 1.429 . S
C287 C286 1.347 . S
H288 C289 0.951 . S
C289 H288 0.951 . S
C289 C295 1.265 . S
H290 C295 0.950 . S
H291 C299 0.949 . S
H292 C300 0.950 . S
H293 C301 0.951 . S
H294 C302 0.951 . S
C295 C289 1.265 . S
C295 H290 0.950 . S
C295 C296 1.478 . S
C296 C295 1.478 . S
C296 C297 1.397 . S
C296 C313 1.394 . S
C297 C296 1.397 . S
C297 C298 1.438 . S
C297 C302 1.429 . S
C298 C297 1.438 . S
C298 C299 1.428 . S
C298 C311 1.394 . S
C299 H291 0.949 . S
C299 C298 1.428 . S
C299 C300 1.345 . S
C300 H292 0.950 . S
C300 C299 1.345 . S
C300 C301 1.424 . S
C301 H293 0.951 . S
C301 C300 1.424 . S
C301 C302 1.347 . S
C302 H294 0.951 . S
C302 C297 1.429 . S
C302 C301 1.347 . S
H303 C304 0.951 . S
C304 H303 0.951 . S
C304 C310 1.265 . S
H305 C310 0.950 . S
H306 C314 0.949 . S
H307 C315 0.950 . S
H308 C316 0.951 . S
H309 C317 0.951 . S
C310 C304 1.265 . S
C310 H305 0.950 . S
C310 C311 1.478 . S
C311 C298 1.394 . S
C311 C310 1.478 . S
C311 C312 1.397 . S
C312 C311 1.397 . S
C312 C313 1.438 . S
C312 C317 1.429 . S
C313 C296 1.394 . S
C313 C312 1.438 . S
C313 C314 1.428 . S
C314 H306 0.949 . S
C314 C313 1.428 . S
C314 C315 1.345 . S
C315 H307 0.950 . S
C315 C314 1.345 . S
C315 C316 1.424 . S
C316 H308 0.951 . S
C316 C315 1.424 . S
C316 C317 1.347 . S
C317 H309 0.951 . S
C317 C312 1.429 . S
C317 C316 1.347 . S
H318 C319 0.951 . S
C319 H318 0.951 . S
C319 C325 1.265 . S
H320 C325 0.950 . S
H321 C329 0.949 . S
H322 C330 0.950 . S
H323 C331 0.951 . S
H324 C332 0.951 . S
C325 C319 1.265 . S
C325 H320 0.950 . S
C325 C326 1.478 . S
C326 C325 1.478 . S
C326 C327 1.397 . S
C326 C343 1.394 . S
C327 C326 1.397 . S
C327 C328 1.438 . S
C327 C332 1.429 . S
C328 C327 1.438 . S
C328 C329 1.428 . S
C328 C341 1.394 . S
C329 H321 0.949 . S
C329 C328 1.428 . S
C329 C330 1.345 . S
C330 H322 0.950 . S
C330 C329 1.345 . S
C330 C331 1.424 . S
C331 H323 0.951 . S
C331 C330 1.424 . S
C331 C332 1.347 . S
C332 H324 0.951 . S
C332 C327 1.429 . S
C332 C331 1.347 . S
H333 C334 0.951 . S
C334 H333 0.951 . S
C334 C340 1.265 . S
H335 C340 0.950 . S
H336 C344 0.949 . S
H337 C345 0.950 . S
H338 C346 0.951 1_554 S
H339 C347 0.951 . S
C340 C334 1.265 . S
C340 H335 0.950 . S
C340 C341 1.478 . S
C341 C328 1.394 . S
C341 C340 1.478 . S
C341 C342 1.397 . S
C342 C341 1.397 . S
C342 C343 1.438 . S
C342 C347 1.429 . S
C343 C326 1.394 . S
C343 C342 1.438 . S
C343 C344 1.428 . S
C344 H336 0.949 . S
C344 C343 1.428 . S
C344 C345 1.345 . S
C345 H337 0.950 . S
C345 C344 1.345 . S
C345 C346 1.424 . S
C346 H338 0.951 1_556 S
C346 C345 1.424 . S
C346 C347 1.347 . S
C347 H339 0.951 . S
C347 C342 1.429 . S
C347 C346 1.347 . S
C109 C27 0.398 . S
C124 C64 0.398 . S
C139 C32 2.016 . S
C154 C76 2.013 . S
C169 C28 1.226 . S
C184 C89 1.230 . S
C199 C5 1.948 . S
C214 C67 1.951 . S
C229 C22 1.997 . S
C244 C86 2.000 . S
C259 C82 1.266 . S
C274 C35 1.268 . S
C289 C13 1.977 . S
C304 C59 1.975 . S
C319 C81 0.395 . S
C334 C10 0.396 . S
