# Generated by pormake.
# Topology kag, (6)-cn, num edge types: 1
# Building blocks:
#     Node 0, Type 0, BuildingBlock: KUMBUR_clean_sbu_1, # of connection points: 6
#     Node 1, Type 0, BuildingBlock: KUMBUR_clean_sbu_1, # of connection points: 6
#     Node 2, Type 0, BuildingBlock: KUMBUR_clean_sbu_1, # of connection points: 6
#     Edge 3, Type (0, 0), BuildingBlock: MIFKUJ_clean_linker_0, # of connection points: 2
#     Edge 4, Type (0, 0), BuildingBlock: MIFKUJ_clean_linker_0, # of connection points: 2
#     Edge 5, Type (0, 0), BuildingBlock: MIFKUJ_clean_linker_0, # of connection points: 2
#     Edge 6, Type (0, 0), BuildingBlock: MIFKUJ_clean_linker_0, # of connection points: 2
#     Edge 7, Type (0, 0), BuildingBlock: MIFKUJ_clean_linker_0, # of connection points: 2
#     Edge 8, Type (0, 0), BuildingBlock: MIFKUJ_clean_linker_0, # of connection points: 2
#     Edge 9, Type (0, 0), BuildingBlock: MIFKUJ_clean_linker_0, # of connection points: 2
#     Edge 10, Type (0, 0), BuildingBlock: MIFKUJ_clean_linker_0, # of connection points: 2
#     Edge 11, Type (0, 0), BuildingBlock: MIFKUJ_clean_linker_0, # of connection points: 2
# Relax obj value: 0.072
# Max RMSD: 0.169
# Mean RMSD: 0.111
data_MOF--net-kag--node1-KUMBUR_clean_sbu_1--edge1-MIFKUJ_clean_linker_0
_symmetry_space_group_name_H-M    P1
_symmetry_Int_Tables_number       1
_symmetry_cell_setting            triclinic
loop_
_symmetry_equiv_pos_as_xyz
'x, y, z'
_cell_length_a     39.610084
_cell_length_b     49.213509
_cell_length_c     19.347178
_cell_angle_alpha  107.81264
_cell_angle_beta   95.912027
_cell_angle_gamma 103.17156
loop_
_atom_site_label
_atom_site_type_symbol
_atom_site_fract_x
_atom_site_fract_y
_atom_site_fract_z
_atom_type_partial_charge
Tb0 Tb 0.04574 0.55208 0.04153 0.0
C1 C 0.06912 0.42982 0.91623 0.0
N2 N 0.04803 0.44296 0.88571 0.0
C3 C 0.06792 0.4269 0.77095 0.0
C4 C 0.09182 0.41581 0.87617 0.0
C5 C 0.04612 0.44082 0.8133 0.0
C6 C 0.09115 0.41459 0.80273 0.0
C7 C 0.08932 0.41732 0.02186 0.0
C8 C 0.06774 0.43058 0.98792 0.0
C9 C 0.11308 0.40432 0.98339 0.0
C10 C 0.11423 0.40345 0.91057 0.0
Tb11 Tb 1.01245 0.464 0.95754 0.0
N12 N 0.04395 0.44294 0.02276 0.0
C13 C 0.08563 0.41675 0.09252 0.0
C14 C 0.03796 0.43969 0.08856 0.0
C15 C 0.05945 0.42759 0.12548 0.0
H16 H 1.02784 0.44993 0.7884 0.0
H17 H 0.0554 0.42615 0.17877 0.0
H18 H 0.05661 0.56731 0.22531 0.0
H19 H 0.97578 0.59477 0.86409 0.0
H20 H 1.01616 0.44566 0.11248 0.0
H21 H 0.10184 0.40695 0.12078 0.0
H22 H 1.01734 0.568 0.89597 0.0
H23 H 0.06677 0.42563 0.71389 0.0
H24 H 0.13007 0.39424 0.00884 0.0
H25 H 0.1322 0.39287 0.88108 0.0
H26 H 1.02764 0.58947 0.32586 0.0
H27 H 0.10813 0.40396 0.76995 0.0
H28 H 0.94319 0.61808 0.95742 0.0
N29 N 1.02192 0.57247 0.14129 0.0
C30 C 0.99745 0.58656 0.12768 0.0
C31 C 1.0184 0.58831 0.27011 0.0
C32 C 0.98187 0.60144 0.18475 0.0
C33 C 1.03401 0.57476 0.21222 0.0
C34 C 0.99186 0.60137 0.25617 0.0
N35 N 1.00636 0.57426 0.00425 0.0
C36 C 1.00251 0.57737 0.93631 0.0
C37 C 0.9666 0.60407 0.04216 0.0
C38 C 0.99 0.58807 0.05741 0.0
C39 C 0.96098 0.60597 0.97131 0.0
C40 C 0.97926 0.59278 0.91839 0.0
H41 H 0.9804 0.61246 0.30145 0.0
H42 H 0.94648 0.62903 0.21318 0.0
H43 H 0.93238 0.63075 0.08787 0.0
O44 O 0.08635 0.57625 0.00316 0.0
O45 O 0.98846 0.53047 0.99116 0.0
O46 O 0.97583 0.48665 0.01451 0.0
O47 O 0.07327 0.59554 0.10854 0.0
O48 O 0.04855 0.53188 0.92553 0.0
O49 O 1.00265 0.48882 0.88458 0.0
O50 O 0.98339 0.42081 0.94642 0.0
O51 O 0.06705 0.48708 0.95157 0.0
O52 O 0.08418 0.52732 0.05804 0.0
O53 O 0.97177 0.44056 0.86536 0.0
O54 O 1.0083 0.48512 0.07278 0.0
O55 O 0.05488 0.52754 0.11611 0.0
C56 C 0.96584 0.50917 0.00442 0.0
C57 C 0.13263 0.60965 0.09955 0.0
C58 C 0.19043 0.64487 0.12084 0.0
C59 C 0.203 0.63339 0.1736 0.0
C60 C 0.1457 0.59867 0.15252 0.0
C61 C 0.1808 0.61034 0.18879 0.0
C62 C 0.15507 0.63245 0.08334 0.0
C63 C 1.02548 0.51004 0.8724 0.0
C64 C 0.09515 0.59877 0.06444 0.0
C65 C 0.95812 0.61704 0.16958 0.0
C66 C 0.95034 0.61823 0.0984 0.0
C67 C 0.09223 0.50713 0.00471 0.0
C68 C 0.92361 0.40947 0.89211 0.0
C69 C 0.87357 0.37326 0.90587 0.0
C70 C 0.85244 0.39255 0.90462 0.0
C71 C 0.9019 0.42827 0.88988 0.0
C72 C 0.90915 0.38185 0.89933 0.0
C73 C 0.86653 0.41978 0.89606 0.0
C74 C 1.03186 0.50605 0.12696 0.0
C75 C 0.96144 0.41849 0.88886 0.0
H76 H 0.22977 0.64258 0.20446 0.0
H77 H 0.12859 0.58138 0.16656 0.0
H78 H 0.19069 0.60183 0.22978 0.0
H79 H 0.14479 0.64054 0.04173 0.0
H80 H 0.82491 0.38636 0.90913 0.0
H81 H 0.91224 0.44962 0.8839 0.0
H82 H 0.9258 0.36729 0.90126 0.0
H83 H 0.84999 0.43439 0.89439 0.0
Tb84 Tb 0.48011 0.98836 0.96529 0.0
C85 C 0.62639 0.97374 0.06592 0.0
N86 N 0.61132 0.99558 0.09745 0.0
C87 C 0.63048 0.99355 0.21712 0.0
C88 C 0.64288 0.9601 0.10856 0.0
C89 C 0.61496 0.00669 0.17253 0.0
C90 C 0.64403 0.96982 0.18482 0.0
C91 C 0.64464 0.94528 0.95707 0.0
C92 C 0.62728 0.96637 0.99127 0.0
C93 C 0.65988 0.93077 0.9987 0.0
C94 C 0.65891 0.9381 0.07428 0.0
Tb95 Tb 0.58665 0.01502 0.01813 0.0
N96 N 0.61153 0.98036 0.95235 0.0
C97 C 0.64627 0.9396 0.8822 0.0
C98 C 0.61453 0.976 0.88029 0.0
C99 C 0.63146 0.95526 0.84389 0.0
H100 H 0.6073 0.02644 0.19864 0.0
H101 H 0.63332 0.95153 0.78647 0.0
H102 H 0.46113 0.00775 0.82092 0.0
H103 H 0.42575 0.00699 0.21633 0.0
H104 H 0.604 0.98853 0.85085 0.0
H105 H 0.65937 0.92356 0.85385 0.0
H106 H 0.45137 0.9794 0.11605 0.0
H107 H 0.63282 0.00229 0.27649 0.0
H108 H 0.67296 0.91421 0.97328 0.0
H109 H 0.67145 0.92721 0.10611 0.0
H110 H 0.43447 0.04479 0.7918 0.0
H111 H 0.65676 0.96004 0.21931 0.0
H112 H 0.40773 0.05124 0.20974 0.0
N113 N 0.45493 0.02122 0.93307 0.0
C114 C 0.44097 0.03827 0.98515 0.0
C115 C 0.43654 0.04343 0.84665 0.0
C116 C 0.42591 0.05986 0.97158 0.0
C117 C 0.45141 0.02241 0.8631 0.0
C118 C 0.42441 0.06269 0.90157 0.0
N119 N 0.45217 0.00973 0.0573 0.0
C120 C 0.44538 0.99951 0.11414 0.0
C121 C 0.42387 0.04837 0.10474 0.0
C122 C 0.44004 0.03258 0.05033 0.0
C123 C 0.41999 0.03971 0.16659 0.0
C124 C 0.43015 0.01477 0.17052 0.0
H125 H 0.41293 0.07895 0.88867 0.0
H126 H 0.40032 0.09398 0.01838 0.0
H127 H 0.39853 0.0839 0.13536 0.0
O128 O 0.43088 0.95805 0.95514 0.0
O129 O 0.50843 0.03268 0.96663 0.0
O130 O 0.55591 0.04666 0.05986 0.0
O131 O 0.45467 0.95801 0.86089 0.0
O132 O 0.50563 0.98695 0.07053 0.0
O133 O 0.55811 0.02429 0.11107 0.0
O134 O 0.61516 0.04694 0.97872 0.0
O135 O 0.55924 0.96698 0.95835 0.0
O136 O 0.50718 0.95963 0.00105 0.0
O137 O 0.6369 0.04158 0.07841 0.0
O138 O 0.56325 0.01661 0.91278 0.0
O139 O 0.51095 0.97938 0.87687 0.0
C140 C 0.53383 0.05351 0.01678 0.0
C141 C 0.42841 0.91119 0.86776 0.0
C142 C 0.40903 0.86404 0.88925 0.0
C143 C 0.42759 0.85132 0.83566 0.0
C144 C 0.44653 0.89774 0.81399 0.0
C145 C 0.44613 0.86811 0.7984 0.0
C146 C 0.40946 0.89406 0.90491 0.0
C147 C 0.53125 0.00625 0.12385 0.0
C148 C 0.43081 0.94323 0.8868 0.0
C149 C 0.41167 0.07699 0.02724 0.0
C150 C 0.4107 0.07127 0.09386 0.0
C151 C 0.53327 0.94978 0.97605 0.0
C152 C 0.67706 0.05844 0.00812 0.0
C153 C 0.72683 0.0899 0.97932 0.0
C154 C 0.74248 0.06632 0.96226 0.0
C155 C 0.6933 0.03527 0.99217 0.0
C156 C 0.69396 0.08562 0.00182 0.0
C157 C 0.72579 0.03921 0.96896 0.0
C158 C 0.53623 0.9981 0.86212 0.0
C159 C 0.64253 0.05514 0.03103 0.0
H160 H 0.42712 0.82816 0.8213 0.0
H161 H 0.46134 0.91012 0.78407 0.0
H162 H 0.46014 0.85814 0.7569 0.0
H163 H 0.39558 0.90419 0.9467 0.0
H164 H 0.76786 0.06903 0.94509 0.0
H165 H 0.68108 0.01429 0.99782 0.0
H166 H 0.68123 0.10339 0.01392 0.0
H167 H 0.73816 0.02124 0.95652 0.0
Tb168 Tb 0.51233 0.45497 0.96363 0.0
C169 C 0.6263 0.57167 0.08187 0.0
N170 N 0.59807 0.56174 0.11087 0.0
C171 C 0.63528 0.57603 0.229 0.0
C172 C 0.66054 0.58323 0.12502 0.0
C173 C 0.60182 0.56442 0.18381 0.0
C174 C 0.66479 0.58531 0.19942 0.0
C175 C 0.64946 0.57883 0.9756 0.0
C176 C 0.62074 0.56921 0.00782 0.0
C177 C 0.6838 0.58969 0.01786 0.0
C178 C 0.68931 0.59193 0.09238 0.0
Tb179 Tb 0.54486 0.5455 0.03342 0.0
N180 N 0.58714 0.55841 0.96832 0.0
C181 C 0.64268 0.57815 0.90261 0.0
C182 C 0.58027 0.56026 0.89954 0.0
C183 C 0.60784 0.56946 0.86508 0.0
H184 H 0.57902 0.55758 0.20696 0.0
H185 H 0.60205 0.5707 0.81046 0.0
H186 H 0.52035 0.42905 0.78765 0.0
H187 H 0.40665 0.42547 0.10423 0.0
H188 H 0.55362 0.55616 0.87234 0.0
H189 H 0.66398 0.58557 0.87602 0.0
H190 H 0.46701 0.45047 0.09544 0.0
H191 H 0.6383 0.57784 0.2866 0.0
H192 H 0.70621 0.59692 0.99377 0.0
H193 H 0.71591 0.60056 0.12437 0.0
H194 H 0.48103 0.39958 0.66761 0.0
H195 H 0.69069 0.59407 0.23445 0.0
H196 H 0.3629 0.39488 0.98993 0.0
N197 N 0.47903 0.42717 0.84944 0.0
C198 C 0.44477 0.41413 0.8484 0.0
C199 C 0.47035 0.40385 0.71794 0.0
C200 C 0.42162 0.3959 0.78161 0.0
C201 C 0.49243 0.42118 0.78586 0.0
C202 C 0.43466 0.39142 0.71566 0.0
N203 N 0.45648 0.4358 0.97806 0.0
C204 C 0.44773 0.43777 0.04565 0.0
C205 C 0.39877 0.40314 0.91723 0.0
C206 C 0.43337 0.41785 0.91506 0.0
C207 C 0.38905 0.40629 0.98615 0.0
C208 C 0.4137 0.4235 0.05069 0.0
H209 H 0.41773 0.37763 0.66312 0.0
H210 H 0.36838 0.36809 0.73231 0.0
H211 H 0.34842 0.3743 0.85124 0.0
O212 O 0.52622 0.43364 0.03657 0.0
O213 O 0.4688 0.47697 0.97608 0.0
O214 O 0.48673 0.52874 0.00784 0.0
O215 O 0.52011 0.41222 0.91988 0.0
O216 O 0.53459 0.48209 0.07917 0.0
O217 O 0.52044 0.52649 0.11084 0.0
O218 O 0.54338 0.58619 0.01522 0.0
O219 O 0.58151 0.5179 0.04667 0.0
O220 O 0.56562 0.47454 0.94723 0.0
O221 O 0.53963 0.58075 0.12146 0.0
O222 O 0.51722 0.52133 0.91837 0.0
O223 O 0.53245 0.477 0.88719 0.0
C224 C 0.46213 0.50319 0.99044 0.0
C225 C 0.55642 0.39701 0.99855 0.0
C226 C 0.57599 0.35556 0.01844 0.0
C227 C 0.61076 0.37414 0.04112 0.0
C228 C 0.59133 0.41487 0.02092 0.0
C229 C 0.61826 0.40346 0.04216 0.0
C230 C 0.54887 0.36722 0.99647 0.0
C231 C 0.52289 0.50228 0.12421 0.0
C232 C 0.52729 0.40991 0.98453 0.0
C233 C 0.38662 0.38207 0.78307 0.0
C234 C 0.37527 0.38556 0.8508 0.0
C235 C 0.59025 0.49715 0.9955 0.0
C236 C 0.53821 0.62944 0.11721 0.0
C237 C 0.53408 0.67811 0.11232 0.0
C238 C 0.53263 0.68702 0.18804 0.0
C239 C 0.5366 0.63941 0.1928 0.0
C240 C 0.53736 0.64916 0.07686 0.0
C241 C 0.53395 0.6679 0.22769 0.0
C242 C 0.52215 0.49796 0.86902 0.0
C243 C 0.54068 0.59847 0.08339 0.0
H244 H 0.63224 0.36596 0.05808 0.0
H245 H 0.5976 0.43783 0.02367 0.0
H246 H 0.64504 0.41761 0.06068 0.0
H247 H 0.52178 0.35353 0.98058 0.0
H248 H 0.53071 0.7091 0.21704 0.0
H249 H 0.5374 0.62515 0.22556 0.0
H250 H 0.53855 0.64195 0.01859 0.0
H251 H 0.53285 0.6752 0.28598 0.0
H252 H 0.08153 0.53153 0.81583 0.0
H253 H 0.08259 0.52947 0.68842 0.0
H254 H 0.97094 0.48535 0.62867 0.0
H255 H 0.97024 0.48603 0.75565 0.0
H256 H 1.00125 0.46083 0.52514 0.0
H257 H 1.00689 0.56206 0.65691 0.0
H258 H 1.03062 0.61033 0.7573 0.0
H259 H 0.13103 0.62008 0.6883 0.0
H260 H 0.10803 0.57172 0.58816 0.0
H261 H 0.97507 0.48581 0.18319 0.0
H262 H 0.97384 0.48563 0.30909 0.0
H263 H 0.08659 0.5246 0.36751 0.0
H264 H 0.08773 0.52541 0.24163 0.0
H265 H 0.05501 0.55171 0.4711 0.0
H266 H 0.04759 0.44815 0.34048 0.0
H267 H 1.02226 0.39881 0.2443 0.0
H268 H 0.92164 0.39462 0.31052 0.0
H269 H 0.94641 0.44366 0.40777 0.0
C270 C 0.05718 0.52152 0.77553 0.0
C271 C 1.02571 0.50922 0.79563 0.0
C272 C 0.05777 0.52043 0.70273 0.0
C273 C 1.02667 0.50787 0.64905 0.0
C274 C 0.99526 0.49527 0.66903 0.0
C275 C 0.99483 0.49575 0.74158 0.0
C276 C 1.02697 0.50772 0.57209 0.0
C277 C 1.01259 0.48081 0.51339 0.0
C278 C 0.04224 0.53365 0.55645 0.0
C279 C 0.05581 0.56317 0.61535 0.0
C280 C 1.03406 0.57447 0.6633 0.0
C281 C 0.04738 0.60186 0.72018 0.0
C282 C 0.08232 0.61827 0.72926 0.0
C283 C 0.10397 0.60739 0.68126 0.0
C284 C 0.09079 0.58 0.62436 0.0
C285 C 0.99961 0.49417 0.22284 0.0
C286 C 1.03152 0.50562 0.20287 0.0
C287 C 0.99892 0.49393 0.29467 0.0
C288 C 1.03021 0.50466 0.34758 0.0
C289 C 0.06213 0.51614 0.3276 0.0
C290 C 0.06278 0.51661 0.25584 0.0
C291 C 1.02949 0.50479 0.42433 0.0
C292 C 0.04371 0.53175 0.48298 0.0
C293 C 1.01366 0.47899 0.43985 0.0
C294 C 0.99878 0.44965 0.38094 0.0
C295 C 1.02002 0.43677 0.33421 0.0
C296 C 1.00579 0.40886 0.27962 0.0
C297 C 0.97034 0.39375 0.2709 0.0
C298 C 0.94908 0.40638 0.3172 0.0
C299 C 0.96323 0.43414 0.37229 0.0
H300 H 0.95939 0.37219 0.22849 0.0
H301 H 0.09259 0.63943 0.77346 0.0
H302 H 0.56379 0.05025 0.25585 0.0
H303 H 0.56529 0.04703 0.38033 0.0
H304 H 0.49877 0.95723 0.28766 0.0
H305 H 0.49865 0.95961 0.16325 0.0
H306 H 0.4843 0.01367 0.42525 0.0
H307 H 0.55447 0.94426 0.33579 0.0
H308 H 0.60348 0.9269 0.28548 0.0
H309 H 0.67843 0.00257 0.44797 0.0
H310 H 0.62977 0.02055 0.49859 0.0
H311 H 0.48452 0.96496 0.73979 0.0
H312 H 0.48238 0.96678 0.61439 0.0
H313 H 0.58276 0.0332 0.68487 0.0
H314 H 0.58498 0.03197 0.8102 0.0
H315 H 0.57976 0.98766 0.55665 0.0
H316 H 0.51205 0.05527 0.65228 0.0
H317 H 0.46481 0.07211 0.71167 0.0
H318 H 0.38652 1.00106 0.54354 0.0
H319 H 0.4334 0.98385 0.48298 0.0
C320 C 0.54987 0.02971 0.26198 0.0
C321 C 0.53132 0.00515 0.19962 0.0
C322 C 0.55071 0.02793 0.33297 0.0
C323 C 0.53251 0.00177 0.34277 0.0
C324 C 0.51329 0.97748 0.28098 0.0
C325 C 0.51301 0.97903 0.21002 0.0
C326 C 0.53227 1.00028 0.41788 0.0
C327 C 0.5049 0.00761 0.45375 0.0
C328 C 0.55955 0.99303 0.45539 0.0
C329 C 0.58851 0.984 0.42006 0.0
C330 C 0.58136 0.95755 0.35964 0.0
C331 C 0.60908 0.94743 0.3316 0.0
C332 C 0.64404 0.96354 0.36386 0.0
C333 C 0.65135 0.99008 0.42325 0.0
C334 C 0.62372 1.00026 0.45151 0.0
C335 C 0.5061 0.98003 0.72878 0.0
C336 C 0.5349 0.99832 0.78534 0.0
C337 C 0.50475 0.98112 0.6571 0.0
C338 C 0.53231 1.00027 0.64051 0.0
C339 C 0.5612 0.01829 0.69654 0.0
C340 C 0.56239 0.0175 0.76824 0.0
C341 C 0.53172 1.00093 0.56426 0.0
C342 C 0.55903 0.9936 0.52821 0.0
C343 C 0.50441 0.00822 0.52674 0.0
C344 C 0.4762 0.0181 0.5636 0.0
C345 C 0.48476 0.04309 0.62835 0.0
C346 C 0.45806 0.05278 0.662 0.0
C347 C 0.42268 0.0376 0.63155 0.0
C348 C 0.41394 0.01277 0.56713 0.0
C349 C 0.44056 0.0031 0.53297 0.0
H350 H 0.40204 0.04511 0.65782 0.0
H351 H 0.66549 0.95549 0.34278 0.0
H352 H 0.555 0.4686 0.76384 0.0
H353 H 0.55278 0.46778 0.6371 0.0
H354 H 0.48799 0.52864 0.674 0.0
H355 H 0.48701 0.52686 0.79867 0.0
H356 H 0.46489 0.49298 0.54611 0.0
H357 H 0.58631 0.5495 0.66486 0.0
H358 H 0.64608 0.5587 0.73474 0.0
H359 H 0.65755 0.47877 0.58183 0.0
H360 H 0.5983 0.46944 0.51012 0.0
H361 H 0.49711 0.53775 0.23354 0.0
H362 H 0.49551 0.53657 0.35894 0.0
H363 H 0.54243 0.46354 0.3115 0.0
H364 H 0.54435 0.46463 0.18687 0.0
H365 H 0.57469 0.50577 0.44313 0.0
H366 H 0.45585 0.45135 0.3205 0.0
H367 H 0.3976 0.44278 0.24635 0.0
H368 H 0.38147 0.51906 0.40603 0.0
H369 H 0.43984 0.52815 0.48106 0.0
C370 C 0.5394 0.48113 0.74444 0.0
C371 C 0.52066 0.49738 0.79131 0.0
C372 C 0.53895 0.48132 0.67216 0.0
C373 C 0.52105 0.49882 0.64573 0.0
C374 C 0.50217 0.51499 0.69252 0.0
C375 C 0.50172 0.51406 0.7641 0.0
C376 C 0.52125 0.4998 0.5691 0.0
C377 C 0.4891 0.49635 0.52442 0.0
C378 C 0.5525 0.50328 0.53889 0.0
C379 C 0.58779 0.50864 0.58273 0.0
C380 C 0.60153 0.53382 0.64653 0.0
C381 C 0.6353 0.53908 0.68632 0.0
C382 C 0.65538 0.51918 0.66326 0.0
C383 C 0.64192 0.49412 0.59982 0.0
C384 C 0.60836 0.48893 0.55933 0.0
C385 C 0.50703 0.5214 0.24973 0.0
C386 C 0.52088 0.50132 0.19986 0.0
C387 C 0.50594 0.52066 0.32138 0.0
C388 C 0.51869 0.49985 0.34465 0.0
C389 C 0.53246 0.4798 0.29494 0.0
C390 C 0.53338 0.4804 0.22337 0.0
C391 C 0.51854 0.49931 0.42122 0.0
C392 C 0.55063 0.50272 0.4655 0.0
C393 C 0.48733 0.49591 0.45105 0.0
C394 C 0.45233 0.49059 0.40598 0.0
C395 C 0.44001 0.46644 0.33948 0.0
C396 C 0.40693 0.46146 0.29735 0.0
C397 C 0.38587 0.48045 0.32127 0.0
C398 C 0.39783 0.5044 0.38751 0.0
C399 C 0.43088 0.50944 0.42994 0.0
H400 H 0.36023 0.47657 0.28872 0.0
H401 H 0.68145 0.52328 0.69432 0.0
H402 H 0.15188 0.53952 0.11248 0.0
H403 H 0.21396 0.54102 0.10662 0.0
H404 H 0.18209 0.47602 0.88782 0.0
H405 H 0.12065 0.47679 0.89061 0.0
H406 H 0.23352 0.46751 0.01655 0.0
H407 H 0.21256 0.53047 0.87951 0.0
H408 H 0.19798 0.57334 0.85686 0.0
H409 H 0.28758 0.63222 0.02063 0.0
H410 H 0.30078 0.58999 0.04939 0.0
H411 H 0.40062 0.45984 0.91163 0.0
H412 H 0.33934 0.46059 0.91515 0.0
H413 H 0.37487 0.55061 0.06664 0.0
H414 H 0.43637 0.54952 0.06454 0.0
H415 H 0.32095 0.54702 0.97193 0.0
H416 H 0.33966 0.48819 0.11888 0.0
H417 H 0.35379 0.44752 0.1543 0.0
H418 H 0.27181 0.38377 0.97979 0.0
H419 H 0.25765 0.42401 0.94187 0.0
C420 C 0.158 0.526 0.06241 0.0
C421 C 0.13058 0.50782 0.0022 0.0
C422 C 0.19372 0.52671 0.05934 0.0
C423 C 0.20319 0.50868 0.99666 0.0
C424 C 0.17587 0.49018 0.93702 0.0
C425 C 0.1404 0.49031 0.9391 0.0
C426 C 0.2412 0.50835 0.99402 0.0
C427 C 0.2525 0.48476 0.00584 0.0
C428 C 0.2666 0.53125 0.98226 0.0
C429 C 0.25709 0.55689 0.96818 0.0
C430 C 0.22833 0.55257 0.91302 0.0
C431 C 0.22027 0.57685 0.89906 0.0
C432 C 0.2414 0.6056 0.93836 0.0
C433 C 0.27061 0.61007 0.99164 0.0
C434 C 0.27821 0.58596 0.00724 0.0
C435 C 0.39561 0.47953 0.94731 0.0
C436 C 0.42405 0.50422 0.98935 0.0
C437 C 0.36018 0.48008 0.94886 0.0
C438 C 0.35166 0.5055 0.99228 0.0
C439 C 0.38007 0.53054 0.03272 0.0
C440 C 0.41554 0.5299 0.03141 0.0
C441 C 0.31348 0.50615 0.99465 0.0
C442 C 0.30206 0.52977 0.98275 0.0
C443 C 0.28799 0.4835 0.00729 0.0
C444 C 0.2978 0.45914 0.02713 0.0
C445 C 0.32494 0.46549 0.08736 0.0
C446 C 0.33281 0.44252 0.10821 0.0
C447 C 0.31347 0.41313 0.06994 0.0
C448 C 0.28661 0.40657 0.00975 0.0
C449 C 0.2787 0.42945 0.9884 0.0
H450 H 0.31953 0.39541 0.08651 0.0
H451 H 0.2354 0.62436 0.9269 0.0
H452 H 0.75937 0.10093 0.86843 0.0
H453 H 0.78563 0.14944 0.85823 0.0
H454 H 0.75969 0.19297 0.06758 0.0
H455 H 0.73466 0.14456 0.07915 0.0
H456 H 0.73912 0.21421 0.95496 0.0
H457 H 0.84149 0.19423 0.06272 0.0
H458 H 0.88334 0.16469 0.07135 0.0
H459 H 0.90793 0.16543 0.86079 0.0
H460 H 0.86581 0.19464 0.85041 0.0
H461 H 0.83497 0.36202 0.00795 0.0
H462 H 0.81065 0.31401 0.02192 0.0
H463 H 0.85314 0.27094 0.83461 0.0
H464 H 0.8785 0.31908 0.82229 0.0
H465 H 0.86458 0.24905 0.93675 0.0
H466 H 0.76301 0.26947 0.82804 0.0
H467 H 0.72056 0.29832 0.81734 0.0
H468 H 0.69275 0.29558 0.02429 0.0
H469 H 0.73553 0.26719 0.03697 0.0
C470 C 0.75972 0.12087 0.91267 0.0
C471 C 0.74452 0.11905 0.9742 0.0
C472 C 0.77456 0.14852 0.90665 0.0
C473 C 0.77441 0.17475 0.96202 0.0
C474 C 0.75973 0.17298 0.02393 0.0
C475 C 0.74529 0.14539 0.03029 0.0
C476 C 0.78918 0.20408 0.95507 0.0
C477 C 0.76664 0.22207 0.95181 0.0
C478 C 0.82485 0.21387 0.94928 0.0
C479 C 0.85022 0.19635 0.95544 0.0
C480 C 0.85558 0.18786 0.01794 0.0
C481 C 0.87939 0.17123 0.02322 0.0
C482 C 0.8982 0.16311 0.96656 0.0
C483 C 0.8933 0.17169 0.90458 0.0
C484 C 0.86948 0.1883 0.899 0.0
C485 C 0.83893 0.34224 0.96965 0.0
C486 C 0.85851 0.34418 0.91394 0.0
C487 C 0.82493 0.3148 0.97745 0.0
C488 C 0.82953 0.2887 0.92855 0.0
C489 C 0.84921 0.29071 0.87302 0.0
C490 C 0.86369 0.31819 0.86598 0.0
C491 C 0.81449 0.25937 0.936 0.0
C492 C 0.837 0.24131 0.93956 0.0
C493 C 0.77866 0.24944 0.94149 0.0
C494 C 0.75282 0.26648 0.93386 0.0
C495 C 0.74809 0.27524 0.87161 0.0
C496 C 0.72394 0.29149 0.86516 0.0
C497 C 0.70408 0.29888 0.92023 0.0
C498 C 0.70824 0.28993 0.98177 0.0
C499 C 0.73244 0.27375 0.98862 0.0
H500 H 0.6854 0.31146 0.91512 0.0
H501 H 0.91664 0.15024 0.97076 0.0
H502 H 0.5743 0.91422 0.90895 0.0
H503 H 0.57815 0.86664 0.92032 0.0
H504 H 0.49369 0.86692 0.04445 0.0
H505 H 0.49192 0.9151 0.03842 0.0
H506 H 0.54168 0.85246 0.1117 0.0
H507 H 0.48425 0.81654 0.85219 0.0
H508 H 0.47887 0.81377 0.72162 0.0
H509 H 0.57985 0.79596 0.71447 0.0
H510 H 0.58544 0.79802 0.8444 0.0
H511 H 0.4842 0.70791 0.11092 0.0
H512 H 0.4869 0.75148 0.07414 0.0
H513 H 0.58245 0.74281 0.99214 0.0
H514 H 0.57983 0.69882 0.02947 0.0
H515 H 0.53774 0.76215 0.90358 0.0
H516 H 0.58931 0.78936 0.15675 0.0
H517 H 0.59305 0.78971 0.28496 0.0
H518 H 0.5043 0.82596 0.3071 0.0
H519 H 0.49943 0.82515 0.17824 0.0
C520 C 0.55734 0.90454 0.9404 0.0
C521 C 0.53404 0.91939 0.97548 0.0
C522 C 0.55888 0.87684 0.94538 0.0
C523 C 0.53627 0.86286 0.98363 0.0
C524 C 0.51188 0.87714 0.01555 0.0
C525 C 0.51082 0.90487 0.01172 0.0
C526 C 0.53855 0.8342 0.99411 0.0
C527 C 0.54033 0.83268 0.06578 0.0
C528 C 0.53842 0.80845 0.93529 0.0
C529 C 0.5354 0.80777 0.85794 0.0
C530 C 0.50536 0.81226 0.82277 0.0
C531 C 0.50225 0.81075 0.74895 0.0
C532 C 0.52915 0.80502 0.71007 0.0
C533 C 0.55909 0.8005 0.74472 0.0
C534 C 0.56216 0.80167 0.81827 0.0
C535 C 0.50544 0.71486 0.08363 0.0
C536 C 0.53193 0.69994 0.07359 0.0
C537 C 0.50704 0.73992 0.06289 0.0
C538 C 0.53527 0.75095 0.03168 0.0
C539 C 0.56048 0.73488 0.01646 0.0
C540 C 0.55888 0.70962 0.03741 0.0
C541 C 0.53934 0.7803 0.02053 0.0
C542 C 0.5391 0.78199 0.94928 0.0
C543 C 0.54091 0.80634 0.07983 0.0
C544 C 0.54373 0.80684 0.15741 0.0
C545 C 0.57031 0.79709 0.1886 0.0
C546 C 0.57266 0.7974 0.26144 0.0
C547 C 0.54883 0.80774 0.30403 0.0
C548 C 0.52264 0.81785 0.2739 0.0
C549 C 0.52006 0.81745 0.20095 0.0
H550 H 0.55073 0.80801 0.36045 0.0
H551 H 0.5267 0.80393 0.65298 0.0
H552 H 0.92793 0.54295 0.95488 0.0
H553 H 0.86578 0.54212 0.95606 0.0
H554 H 0.8538 0.47379 0.05463 0.0
H555 H 0.916 0.47529 0.05581 0.0
H556 H 0.79898 0.45888 0.9458 0.0
H557 H 0.85283 0.54639 0.15797 0.0
H558 H 0.89007 0.59661 0.23221 0.0
H559 H 0.84428 0.63241 0.08118 0.0
H560 H 0.80641 0.58237 0.00654 0.0
H561 H 0.64607 0.52074 0.11379 0.0
H562 H 0.70843 0.5225 0.1143 0.0
H563 H 0.68391 0.47406 0.88018 0.0
H564 H 0.62159 0.47277 0.87967 0.0
H565 H 0.75709 0.54724 0.05621 0.0
H566 H 0.73819 0.43954 0.82292 0.0
H567 H 0.70096 0.38773 0.76986 0.0
H568 H 0.68019 0.38996 0.98453 0.0
H569 H 0.71605 0.44226 0.03837 0.0
C570 C 0.91241 0.52825 0.97848 0.0
C571 C 0.92771 0.50951 0.00609 0.0
C572 C 0.8765 0.52763 0.97874 0.0
C573 C 0.85441 0.50794 0.00577 0.0
C574 C 0.86971 0.48924 0.0333 0.0
C575 C 0.90563 0.49015 0.03395 0.0
C576 C 0.81537 0.50605 0.00353 0.0
C577 C 0.79004 0.47837 0.96972 0.0
C578 C 0.80274 0.53105 0.03494 0.0
C579 C 0.82714 0.56067 0.07636 0.0
C580 C 0.85103 0.56493 0.14016 0.0
C581 C 0.87202 0.59339 0.18261 0.0
C582 C 0.86951 0.6177 0.16145 0.0
C583 C 0.84614 0.61357 0.09757 0.0
C584 C 0.82483 0.5852 0.05532 0.0
C585 C 0.65396 0.51082 0.06216 0.0
C586 C 0.62854 0.49722 0.9965 0.0
C587 C 0.68985 0.51157 0.06251 0.0
C588 C 0.70167 0.49821 0.9974 0.0
C589 C 0.67609 0.48412 0.93184 0.0
C590 C 0.64019 0.48353 0.93148 0.0
C591 C 0.74066 0.50011 0.99811 0.0
C592 C 0.76601 0.52781 0.03148 0.0
C593 C 0.75334 0.4751 0.96689 0.0
C594 C 0.72935 0.44478 0.93428 0.0
C595 C 0.72517 0.42908 0.8585 0.0
C596 C 0.70421 0.39972 0.82833 0.0
C597 C 0.68785 0.38571 0.87376 0.0
C598 C 0.69223 0.40111 0.94933 0.0
C599 C 0.71261 0.43067 0.97957 0.0
H600 H 0.67202 0.36285 0.85055 0.0
H601 H 0.88574 0.63973 0.19448 0.0
H602 H 0.17308 0.69137 0.08934 0.0
H603 H 0.21117 0.73091 0.0591 0.0
H604 H 0.29931 0.69525 0.08908 0.0
H605 H 0.26152 0.65586 0.12037 0.0
H606 H 0.31968 0.75403 0.14725 0.0
H607 H 0.25383 0.68245 0.91658 0.0
H608 H 0.20036 0.64976 0.82651 0.0
H609 H 0.16366 0.72549 0.82747 0.0
H610 H 0.21663 0.75862 0.91851 0.0
H611 H 0.42909 0.82397 0.94446 0.0
H612 H 0.39284 0.78954 0.99329 0.0
H613 H 0.30664 0.82796 0.96858 0.0
H614 H 0.3424 0.86183 0.9174 0.0
H615 H 0.28529 0.76859 0.90998 0.0
H616 H 0.35479 0.8403 0.13897 0.0
H617 H 0.40993 0.87149 0.22562 0.0
H618 H 0.44183 0.79355 0.2237 0.0
H619 H 0.38727 0.76194 0.1359 0.0
C620 C 0.20046 0.69166 0.08877 0.0
C621 C 0.21394 0.66982 0.10544 0.0
C622 C 0.22227 0.71442 0.07179 0.0
C623 C 0.25797 0.71573 0.0704 0.0
C624 C 0.27182 0.69464 0.08948 0.0
C625 C 0.25008 0.67202 0.10709 0.0
C626 C 0.28066 0.73872 0.04759 0.0
C627 C 0.31235 0.75703 0.09504 0.0
C628 C 0.27087 0.7429 0.97991 0.0
C629 C 0.23905 0.723 0.92492 0.0
C630 C 0.23423 0.69212 0.89803 0.0
C631 C 0.20403 0.67351 0.84675 0.0
C632 C 0.17862 0.68555 0.82142 0.0
C633 C 0.18336 0.71621 0.84724 0.0
C634 C 0.21346 0.73491 0.89865 0.0
C635 C 0.40243 0.82514 0.94964 0.0
C636 C 0.3885 0.84549 0.92664 0.0
C637 C 0.38186 0.80563 0.9782 0.0
C638 C 0.34707 0.80627 0.98496 0.0
C639 C 0.33344 0.82711 0.96391 0.0
C640 C 0.35399 0.84661 0.93527 0.0
C641 C 0.32421 0.78408 0.00983 0.0
C642 C 0.29252 0.76577 0.96248 0.0
C643 C 0.33425 0.77971 0.07715 0.0
C644 C 0.36704 0.79875 0.13034 0.0
C645 C 0.3737 0.82982 0.15654 0.0
C646 C 0.40487 0.84759 0.20591 0.0
C647 C 0.42943 0.83453 0.23002 0.0
C648 C 0.42285 0.80367 0.20491 0.0
C649 C 0.3918 0.78582 0.15535 0.0
H650 H 0.45353 0.84833 0.26827 0.0
H651 H 0.1553 0.67118 0.78164 0.0
H652 H 0.53648 0.30342 0.91091 0.0
H653 H 0.52815 0.25267 0.91236 0.0
H654 H 0.58945 0.28711 0.13353 0.0
H655 H 0.59891 0.33753 0.13076 0.0
H656 H 0.60941 0.24356 0.06487 0.0
H657 H 0.49395 0.25534 0.08475 0.0
H658 H 0.43822 0.26634 0.04992 0.0
H659 H 0.41628 0.19534 0.84206 0.0
H660 H 0.47214 0.18416 0.87522 0.0
H661 H 0.56781 0.10518 0.13249 0.0
H662 H 0.57371 0.15645 0.13679 0.0
H663 H 0.51783 0.12415 0.91138 0.0
H664 H 0.51152 0.07327 0.90753 0.0
H665 H 0.49436 0.16682 0.98523 0.0
H666 H 0.61425 0.1583 0.96964 0.0
H667 H 0.67083 0.14988 0.01067 0.0
H668 H 0.68275 0.21651 0.2225 0.0
H669 H 0.62638 0.22547 0.18242 0.0
C670 C 0.54786 0.30012 0.96004 0.0
C671 C 0.56844 0.32459 0.02061 0.0
C672 C 0.54298 0.27101 0.96106 0.0
C673 C 0.55779 0.26565 0.02347 0.0
C674 C 0.5778 0.29026 0.0844 0.0
C675 C 0.58318 0.31922 0.08286 0.0
C676 C 0.55382 0.23463 0.02478 0.0
C677 C 0.58404 0.22701 0.04841 0.0
C678 C 0.52101 0.21246 0.00229 0.0
C679 C 0.48741 0.21912 0.98217 0.0
C680 C 0.47737 0.24222 0.03137 0.0
C681 C 0.44574 0.24846 0.01197 0.0
C682 C 0.42378 0.2316 0.94374 0.0
C683 C 0.43335 0.20841 0.89484 0.0
C684 C 0.46498 0.2021 0.91393 0.0
C685 C 0.55692 0.10905 0.08382 0.0
C686 C 0.5388 0.08496 0.01998 0.0
C687 C 0.56044 0.13847 0.08611 0.0
C688 C 0.54655 0.14457 0.02409 0.0
C689 C 0.52867 0.1204 0.9603 0.0
C690 C 0.52492 0.09113 0.95825 0.0
C691 C 0.54998 0.17584 0.02521 0.0
C692 C 0.51966 0.18347 0.00186 0.0
C693 C 0.58258 0.19821 0.04911 0.0
C694 C 0.616 0.19229 0.07335 0.0
C695 C 0.62884 0.17096 0.02513 0.0
C696 C 0.66091 0.16615 0.0482 0.0
C697 C 0.68024 0.1825 0.11941 0.0
C698 C 0.66769 0.20381 0.16749 0.0
C699 C 0.63577 0.20883 0.14456 0.0
H700 H 0.70501 0.17882 0.13756 0.0
H701 H 0.39929 0.23647 0.92882 0.0
loop_
_geom_bond_atom_site_label_1
_geom_bond_atom_site_label_2
_geom_bond_distance
_geom_bond_site_symmetry_2
_ccdc_geom_bond_type
Tb0 N29 2.617 . S
Tb0 N35 2.572 1_455 S
Tb0 O44 2.465 1_554 S
Tb0 O45 2.387 1_455 S
Tb0 O47 2.428 . S
Tb0 O48 2.308 1_554 S
Tb0 O52 2.349 . S
Tb0 O55 2.393 . S
Tb0 C64 2.802 . S
C1 N2 1.383 . S
C1 C4 1.416 . S
C1 C8 1.424 . S
N2 C1 1.383 . S
N2 C5 1.334 1_455 S
N2 Tb11 2.614 1_455 S
C3 C5 1.390 1_455 S
C3 C6 1.339 . S
C3 H23 0.927 1_455 S
C4 C1 1.416 . S
C4 C6 1.416 . S
C4 C10 1.448 . S
C5 N2 1.334 1_655 S
C5 C3 1.390 1_655 S
C5 H16 0.930 . S
C6 C3 1.339 . S
C6 C4 1.416 . S
C6 H27 0.930 . S
C7 C8 1.413 . S
C7 C9 1.427 . S
C7 C13 1.416 1_556 S
C8 C1 1.424 . S
C8 C7 1.413 . S
C8 N12 1.361 . S
C9 C7 1.427 . S
C9 C10 1.328 . S
C9 H24 0.929 . S
C10 C4 1.448 . S
C10 C9 1.328 . S
C10 H25 0.930 . S
Tb11 N2 2.614 1_655 S
Tb11 N12 2.572 1_655 S
Tb11 O46 2.349 . S
Tb11 O49 2.393 . S
Tb11 O50 2.465 1_556 S
Tb11 O51 2.387 1_655 S
Tb11 O53 2.428 . S
Tb11 O54 2.308 1_656 S
Tb11 C75 2.802 . S
N12 C8 1.361 . S
N12 Tb11 2.572 1_455 S
N12 C14 1.340 1_556 S
C13 C7 1.416 1_554 S
C13 C15 1.332 . S
C13 H21 0.931 . S
C14 N12 1.340 1_554 S
C14 C15 1.407 . S
C14 H20 0.930 . S
C15 C13 1.332 . S
C15 C14 1.407 . S
C15 H17 0.929 . S
H16 C5 0.930 . S
H17 C15 0.929 . S
H18 C33 0.930 . S
H19 C40 0.929 . S
H20 C14 0.930 . S
H21 C13 0.931 . S
H22 C36 0.930 . S
H23 C3 0.927 1_655 S
H24 C9 0.929 . S
H25 C10 0.930 . S
H26 C31 0.930 1_455 S
H27 C6 0.930 . S
H28 C39 0.931 . S
N29 Tb0 2.617 . S
N29 C30 1.379 1_455 S
N29 C33 1.334 . S
C30 N29 1.379 1_655 S
C30 C32 1.416 . S
C30 C38 1.424 . S
C31 H26 0.930 1_655 S
C31 C33 1.390 1_655 S
C31 C34 1.339 . S
C32 C30 1.416 . S
C32 C34 1.416 . S
C32 C65 1.448 . S
C33 H18 0.930 . S
C33 N29 1.334 . S
C33 C31 1.390 1_455 S
C34 C31 1.339 . S
C34 C32 1.416 . S
C34 H41 0.930 . S
N35 Tb0 2.572 1_655 S
N35 C36 1.340 1_554 S
N35 C38 1.361 . S
C36 H22 0.930 . S
C36 N35 1.340 1_556 S
C36 C40 1.407 . S
C37 C38 1.413 . S
C37 C39 1.416 1_554 S
C37 C66 1.427 . S
C38 C30 1.424 . S
C38 N35 1.361 . S
C38 C37 1.413 . S
C39 H28 0.931 . S
C39 C37 1.416 1_556 S
C39 C40 1.332 . S
C40 H19 0.929 . S
C40 C36 1.407 . S
C40 C39 1.332 . S
H41 C34 0.930 . S
H42 C65 0.930 . S
H43 C66 0.929 . S
O44 Tb0 2.465 1_556 S
O44 C64 1.264 1_556 S
O45 Tb0 2.387 1_655 S
O45 C56 1.262 1_554 S
O46 Tb11 2.349 . S
O46 C56 1.244 . S
O47 Tb0 2.428 . S
O47 C64 1.256 . S
O48 Tb0 2.308 1_556 S
O48 C63 1.266 1_455 S
O49 Tb11 2.393 . S
O49 C63 1.248 . S
O50 Tb11 2.465 1_554 S
O50 C75 1.264 1_554 S
O51 Tb11 2.387 1_455 S
O51 C67 1.264 1_556 S
O52 Tb0 2.349 . S
O52 C67 1.243 . S
O53 Tb11 2.428 . S
O53 C75 1.256 . S
O54 Tb11 2.308 1_454 S
O54 C74 1.266 . S
O55 Tb0 2.393 . S
O55 C74 1.248 . S
C56 O45 1.262 1_556 S
C56 O46 1.244 . S
C57 C60 1.399 . S
C57 C62 1.383 . S
C57 C64 1.496 . S
C58 C59 1.399 . S
C58 C62 1.389 . S
C59 C58 1.399 . S
C59 C61 1.380 . S
C59 H76 0.929 . S
C60 C57 1.399 . S
C60 C61 1.392 . S
C60 H77 0.929 . S
C61 C59 1.380 . S
C61 C60 1.392 . S
C61 H78 0.929 . S
C62 C57 1.383 . S
C62 C58 1.389 . S
C62 H79 0.931 1_554 S
C63 O48 1.266 1_655 S
C63 O49 1.248 . S
C64 Tb0 2.802 . S
C64 O44 1.264 1_554 S
C64 O47 1.256 . S
C64 C57 1.496 . S
C65 C32 1.448 . S
C65 H42 0.930 . S
C65 C66 1.328 . S
C66 C37 1.427 . S
C66 H43 0.929 . S
C66 C65 1.328 . S
C67 O51 1.264 1_554 S
C67 O52 1.243 . S
C68 C71 1.399 . S
C68 C72 1.383 . S
C68 C75 1.496 . S
C69 C70 1.399 . S
C69 C72 1.389 . S
C70 C69 1.399 . S
C70 C73 1.380 . S
C70 H80 0.929 . S
C71 C68 1.399 . S
C71 C73 1.392 . S
C71 H81 0.929 . S
C72 C68 1.383 . S
C72 C69 1.389 . S
C72 H82 0.931 1_556 S
C73 C70 1.380 . S
C73 C71 1.392 . S
C73 H83 0.929 . S
C74 O54 1.266 . S
C74 O55 1.248 . S
C75 Tb11 2.802 . S
C75 O50 1.264 1_556 S
C75 O53 1.256 . S
C75 C68 1.496 . S
H76 C59 0.929 . S
H77 C60 0.929 . S
H78 C61 0.929 . S
H79 C62 0.931 1_556 S
H80 C70 0.929 . S
H81 C71 0.929 . S
H82 C72 0.931 1_554 S
H83 C73 0.929 . S
Tb84 N113 2.617 . S
Tb84 N119 2.572 1_566 S
Tb84 O128 2.465 1_556 S
Tb84 O129 2.387 1_565 S
Tb84 O131 2.428 . S
Tb84 O132 2.308 1_566 S
Tb84 O136 2.349 . S
Tb84 O139 2.393 . S
Tb84 C148 2.802 . S
C85 N86 1.379 1_565 S
C85 C88 1.416 . S
C85 C92 1.424 . S
N86 C85 1.379 1_545 S
N86 C89 1.334 . S
N86 Tb95 2.617 . S
C87 C89 1.390 . S
C87 C90 1.339 1_545 S
C87 H107 0.930 . S
C88 C85 1.416 . S
C88 C90 1.416 . S
C88 C94 1.448 . S
C89 N86 1.334 . S
C89 C87 1.390 . S
C89 H100 0.930 . S
C90 C87 1.339 1_565 S
C90 C88 1.416 . S
C90 H111 0.930 . S
C91 C92 1.408 1_556 S
C91 C93 1.416 1_556 S
C91 C97 1.431 . S
C92 C85 1.424 . S
C92 C91 1.408 1_554 S
C92 N96 1.361 1_554 S
C93 C91 1.416 1_554 S
C93 C94 1.328 . S
C93 H108 0.929 . S
C94 C88 1.448 . S
C94 C93 1.328 . S
C94 H109 0.930 . S
Tb95 N86 2.617 . S
Tb95 N96 2.572 1_544 S
Tb95 O130 2.349 . S
Tb95 O133 2.393 . S
Tb95 O134 2.465 1_554 S
Tb95 O135 2.387 1_545 S
Tb95 O137 2.428 . S
Tb95 O138 2.308 1_544 S
Tb95 C159 2.802 . S
N96 C92 1.361 1_556 S
N96 Tb95 2.572 1_566 S
N96 C98 1.340 . S
C97 C91 1.431 . S
C97 C99 1.332 . S
C97 H105 0.931 . S
C98 N96 1.340 . S
C98 C99 1.407 . S
C98 H104 0.930 . S
C99 C97 1.332 . S
C99 C98 1.407 . S
C99 H101 0.929 . S
H100 C89 0.930 . S
H101 C99 0.929 . S
H102 C117 0.930 . S
H103 C124 0.929 . S
H104 C98 0.930 . S
H105 C97 0.931 . S
H106 C120 0.930 . S
H107 C87 0.930 . S
H108 C93 0.929 . S
H109 C94 0.930 . S
H110 C115 0.930 . S
H111 C90 0.930 . S
H112 C123 0.931 . S
N113 Tb84 2.617 . S
N113 C114 1.379 1_565 S
N113 C117 1.334 . S
C114 N113 1.379 1_545 S
C114 C116 1.416 . S
C114 C122 1.424 . S
C115 H110 0.930 . S
C115 C117 1.390 . S
C115 C118 1.339 1_565 S
C116 C114 1.416 . S
C116 C118 1.416 . S
C116 C149 1.448 . S
C117 H102 0.930 . S
C117 N113 1.334 . S
C117 C115 1.390 . S
C118 C115 1.339 1_545 S
C118 C116 1.416 . S
C118 H125 0.930 . S
N119 Tb84 2.572 1_544 S
N119 C120 1.340 . S
N119 C122 1.361 1_554 S
C120 H106 0.930 . S
C120 N119 1.340 . S
C120 C124 1.407 . S
C121 C122 1.413 1_554 S
C121 C123 1.416 . S
C121 C150 1.427 1_554 S
C122 C114 1.424 . S
C122 N119 1.361 1_556 S
C122 C121 1.413 1_556 S
C123 H112 0.931 . S
C123 C121 1.416 . S
C123 C124 1.332 . S
C124 H103 0.929 . S
C124 C120 1.407 . S
C124 C123 1.332 . S
H125 C118 0.930 . S
H126 C149 0.930 . S
H127 C150 0.929 . S
O128 Tb84 2.465 1_554 S
O128 C148 1.264 1_554 S
O129 Tb84 2.387 1_545 S
O129 C140 1.264 1_556 S
O130 Tb95 2.349 . S
O130 C140 1.243 . S
O131 Tb84 2.428 . S
O131 C148 1.256 . S
O132 Tb84 2.308 1_544 S
O132 C147 1.266 . S
O133 Tb95 2.393 . S
O133 C147 1.248 . S
O134 Tb95 2.465 1_556 S
O134 C159 1.264 1_556 S
O135 Tb95 2.387 1_565 S
O135 C151 1.264 1_554 S
O136 Tb84 2.349 . S
O136 C151 1.243 . S
O137 Tb95 2.428 . S
O137 C159 1.256 . S
O138 Tb95 2.308 1_566 S
O138 C158 1.265 . S
O139 Tb84 2.393 . S
O139 C158 1.248 . S
C140 O129 1.264 1_554 S
C140 O130 1.243 . S
C141 C144 1.399 . S
C141 C146 1.383 1_556 S
C141 C148 1.496 . S
C142 C143 1.399 1_554 S
C142 C146 1.389 . S
C143 C142 1.399 1_556 S
C143 C145 1.380 . S
C143 H160 0.929 . S
C144 C141 1.399 . S
C144 C145 1.392 . S
C144 H161 0.929 . S
C145 C143 1.380 . S
C145 C144 1.392 . S
C145 H162 0.929 . S
C146 C141 1.383 1_554 S
C146 C142 1.389 . S
C146 H163 0.931 . S
C147 O132 1.266 . S
C147 O133 1.248 . S
C148 Tb84 2.802 . S
C148 O128 1.264 1_556 S
C148 O131 1.256 . S
C148 C141 1.496 . S
C149 C116 1.448 . S
C149 H126 0.930 . S
C149 C150 1.328 . S
C150 C121 1.427 1_556 S
C150 H127 0.929 . S
C150 C149 1.328 . S
C151 O135 1.264 1_556 S
C151 O136 1.243 . S
C152 C155 1.399 . S
C152 C156 1.383 1_554 S
C152 C159 1.496 . S
C153 C154 1.399 1_556 S
C153 C156 1.389 . S
C154 C153 1.399 1_554 S
C154 C157 1.380 . S
C154 H164 0.929 . S
C155 C152 1.399 . S
C155 C157 1.392 . S
C155 H165 0.929 . S
C156 C152 1.383 1_556 S
C156 C153 1.389 . S
C156 H166 0.931 . S
C157 C154 1.380 . S
C157 C155 1.392 . S
C157 H167 0.929 . S
C158 O138 1.265 . S
C158 O139 1.248 . S
C159 Tb95 2.802 . S
C159 O134 1.264 1_554 S
C159 O137 1.256 . S
C159 C152 1.496 . S
H160 C143 0.929 . S
H161 C144 0.929 . S
H162 C145 0.929 . S
H163 C146 0.931 . S
H164 C154 0.929 . S
H165 C155 0.929 . S
H166 C156 0.931 . S
H167 C157 0.929 . S
Tb168 N197 2.617 . S
Tb168 N203 2.572 . S
Tb168 O212 2.465 1_556 S
Tb168 O213 2.387 . S
Tb168 O215 2.428 . S
Tb168 O216 2.308 1_556 S
Tb168 O220 2.349 . S
Tb168 O223 2.393 . S
Tb168 C232 2.802 . S
C169 N170 1.379 . S
C169 C172 1.416 . S
C169 C176 1.424 . S
N170 C169 1.379 . S
N170 C173 1.334 . S
N170 Tb179 2.617 . S
C171 C173 1.390 . S
C171 C174 1.339 . S
C171 H191 0.930 . S
C172 C169 1.416 . S
C172 C174 1.416 . S
C172 C178 1.448 . S
C173 N170 1.334 . S
C173 C171 1.390 . S
C173 H184 0.930 . S
C174 C171 1.339 . S
C174 C172 1.416 . S
C174 H195 0.930 . S
C175 C176 1.413 . S
C175 C177 1.427 . S
C175 C181 1.415 . S
C176 C169 1.424 . S
C176 C175 1.413 . S
C176 N180 1.361 . S
C177 C175 1.427 . S
C177 C178 1.328 . S
C177 H192 0.929 . S
C178 C172 1.448 . S
C178 C177 1.328 . S
C178 H193 0.930 . S
Tb179 N170 2.617 . S
Tb179 N180 2.572 . S
Tb179 O214 2.349 . S
Tb179 O217 2.393 . S
Tb179 O218 2.465 1_554 S
Tb179 O219 2.387 . S
Tb179 O221 2.428 . S
Tb179 O222 2.308 1_554 S
Tb179 C243 2.802 . S
N180 C176 1.361 . S
N180 Tb179 2.572 . S
N180 C182 1.340 1_554 S
C181 C175 1.415 . S
C181 C183 1.333 1_554 S
C181 H189 0.931 1_554 S
C182 N180 1.340 1_556 S
C182 C183 1.407 . S
C182 H188 0.930 . S
C183 C181 1.333 1_556 S
C183 C182 1.407 . S
C183 H185 0.929 . S
H184 C173 0.930 . S
H185 C183 0.929 . S
H186 C201 0.930 . S
H187 C208 0.929 . S
H188 C182 0.930 . S
H189 C181 0.931 1_556 S
H190 C204 0.930 . S
H191 C171 0.930 . S
H192 C177 0.929 . S
H193 C178 0.930 . S
H194 C199 0.930 . S
H195 C174 0.930 . S
H196 C207 0.931 . S
N197 Tb168 2.617 . S
N197 C198 1.379 . S
N197 C201 1.334 . S
C198 N197 1.379 . S
C198 C200 1.416 . S
C198 C206 1.424 . S
C199 H194 0.930 . S
C199 C201 1.390 . S
C199 C202 1.339 . S
C200 C198 1.416 . S
C200 C202 1.416 . S
C200 C233 1.448 . S
C201 H186 0.930 . S
C201 N197 1.334 . S
C201 C199 1.390 . S
C202 C199 1.339 . S
C202 C200 1.416 . S
C202 H209 0.930 . S
N203 Tb168 2.572 . S
N203 C204 1.340 1_556 S
N203 C206 1.361 . S
C204 H190 0.930 . S
C204 N203 1.340 1_554 S
C204 C208 1.407 . S
C205 C206 1.413 . S
C205 C207 1.416 1_556 S
C205 C234 1.427 . S
C206 C198 1.424 . S
C206 N203 1.361 . S
C206 C205 1.413 . S
C207 H196 0.931 . S
C207 C205 1.416 1_554 S
C207 C208 1.332 . S
C208 H187 0.929 . S
C208 C204 1.407 . S
C208 C207 1.332 . S
H209 C202 0.930 . S
H210 C233 0.930 . S
H211 C234 0.929 . S
O212 Tb168 2.465 1_554 S
O212 C232 1.264 1_554 S
O213 Tb168 2.387 . S
O213 C224 1.264 . S
O214 Tb179 2.349 . S
O214 C224 1.243 1_554 S
O215 Tb168 2.428 . S
O215 C232 1.256 . S
O216 Tb168 2.308 1_554 S
O216 C231 1.266 . S
O217 Tb179 2.393 . S
O217 C231 1.248 . S
O218 Tb179 2.465 1_556 S
O218 C243 1.264 1_556 S
O219 Tb179 2.387 . S
O219 C235 1.264 . S
O220 Tb168 2.349 . S
O220 C235 1.243 1_556 S
O221 Tb179 2.428 . S
O221 C243 1.256 . S
O222 Tb179 2.308 1_556 S
O222 C242 1.266 . S
O223 Tb168 2.393 . S
O223 C242 1.248 . S
C224 O213 1.264 . S
C224 O214 1.243 1_556 S
C225 C228 1.399 . S
C225 C230 1.378 1_556 S
C225 C232 1.496 . S
C226 C227 1.399 . S
C226 C230 1.391 1_556 S
C227 C226 1.399 . S
C227 C229 1.380 . S
C227 H244 0.929 . S
C228 C225 1.399 . S
C228 C229 1.392 . S
C228 H245 0.929 . S
C229 C227 1.380 . S
C229 C228 1.392 . S
C229 H246 0.929 . S
C230 C225 1.378 1_554 S
C230 C226 1.391 1_554 S
C230 H247 0.935 . S
C231 O216 1.266 . S
C231 O217 1.248 . S
C232 Tb168 2.802 . S
C232 O212 1.264 1_556 S
C232 O215 1.256 . S
C232 C225 1.496 . S
C233 C200 1.448 . S
C233 H210 0.930 . S
C233 C234 1.328 . S
C234 C205 1.427 . S
C234 H211 0.929 . S
C234 C233 1.328 . S
C235 O219 1.264 . S
C235 O220 1.243 1_554 S
C236 C239 1.399 . S
C236 C240 1.398 . S
C236 C243 1.496 . S
C237 C238 1.399 . S
C237 C240 1.386 . S
C238 C237 1.399 . S
C238 C241 1.380 . S
C238 H248 0.929 . S
C239 C236 1.399 . S
C239 C241 1.392 . S
C239 H249 0.929 . S
C240 C236 1.398 . S
C240 C237 1.386 . S
C240 H250 0.919 1_554 S
C241 C238 1.380 . S
C241 C239 1.392 . S
C241 H251 0.929 . S
C242 O222 1.266 . S
C242 O223 1.248 . S
C243 Tb179 2.802 . S
C243 O218 1.264 1_554 S
C243 O221 1.256 . S
C243 C236 1.496 . S
H244 C227 0.929 . S
H245 C228 0.929 . S
H246 C229 0.929 . S
H247 C230 0.935 . S
H248 C238 0.929 . S
H249 C239 0.929 . S
H250 C240 0.919 1_556 S
H251 C241 0.929 . S
H252 C270 0.951 . S
H253 C272 0.951 . S
H254 C274 0.950 . S
H255 C275 0.950 . S
H256 C277 0.950 . S
H257 C280 0.950 . S
H258 C281 0.950 . S
H259 C283 0.950 . S
H260 C284 0.950 . S
H261 C285 0.951 . S
H262 C287 0.951 . S
H263 C289 0.950 . S
H264 C290 0.950 . S
H265 C292 0.950 . S
H266 C295 0.950 . S
H267 C296 0.950 . S
H268 C298 0.950 . S
H269 C299 0.950 . S
C270 H252 0.951 . S
C270 C271 1.365 . S
C270 C272 1.388 . S
C271 C270 1.365 . S
C271 C275 1.385 1_455 S
C272 H253 0.951 . S
C272 C270 1.388 . S
C272 C273 1.390 . S
C273 C272 1.390 . S
C273 C274 1.386 1_455 S
C273 C276 1.502 . S
C274 H254 0.950 . S
C274 C273 1.386 1_655 S
C274 C275 1.374 . S
C275 H255 0.950 . S
C275 C271 1.385 1_655 S
C275 C274 1.374 . S
C276 C273 1.502 . S
C276 C277 1.373 1_455 S
C276 C278 1.390 . S
C277 H256 0.950 . S
C277 C276 1.373 1_655 S
C277 C293 1.377 . S
C278 C276 1.390 . S
C278 C279 1.524 . S
C278 C292 1.377 . S
C279 C278 1.524 . S
C279 C280 1.397 . S
C279 C284 1.363 . S
C280 H257 0.950 . S
C280 C279 1.397 . S
C280 C281 1.334 . S
C281 H258 0.950 . S
C281 C280 1.334 . S
C281 C282 1.287 . S
C282 C281 1.287 . S
C282 C283 1.524 . S
C282 H301 0.913 . S
C283 H259 0.950 . S
C283 C282 1.524 . S
C283 C284 1.415 . S
C284 H260 0.950 . S
C284 C279 1.363 . S
C284 C283 1.415 . S
C285 H261 0.951 . S
C285 C286 1.366 1_655 S
C285 C287 1.388 . S
C286 C285 1.366 1_455 S
C286 C290 1.385 . S
C287 H262 0.951 . S
C287 C285 1.388 . S
C287 C288 1.366 1_655 S
C288 C287 1.366 1_455 S
C288 C289 1.414 . S
C288 C291 1.499 . S
C289 H263 0.950 . S
C289 C288 1.414 . S
C289 C290 1.374 . S
C290 H264 0.950 . S
C290 C286 1.385 . S
C290 C289 1.374 . S
C291 C288 1.499 . S
C291 C292 1.373 . S
C291 C293 1.389 1_455 S
C292 H265 0.950 . S
C292 C278 1.377 . S
C292 C291 1.373 . S
C293 C277 1.377 . S
C293 C291 1.389 1_655 S
C293 C294 1.524 . S
C294 C293 1.524 . S
C294 C295 1.397 . S
C294 C299 1.363 . S
C295 H266 0.950 . S
C295 C294 1.397 . S
C295 C296 1.334 . S
C296 H267 0.950 . S
C296 C295 1.334 . S
C296 C297 1.287 . S
C297 C296 1.287 . S
C297 C298 1.524 . S
C297 H300 0.999 . S
C298 H268 0.950 . S
C298 C297 1.524 . S
C298 C299 1.415 . S
C299 H269 0.950 . S
C299 C294 1.363 . S
C299 C298 1.415 . S
H300 C297 0.999 . S
H301 C282 0.913 . S
H302 C320 0.951 . S
H303 C322 0.951 . S
H304 C324 0.950 . S
H305 C325 0.950 . S
H306 C327 0.950 . S
H307 C330 0.950 . S
H308 C331 0.950 . S
H309 C333 0.950 . S
H310 C334 0.950 . S
H311 C335 0.951 . S
H312 C337 0.951 . S
H313 C339 0.950 . S
H314 C340 0.950 . S
H315 C342 0.950 . S
H316 C345 0.950 . S
H317 C346 0.950 . S
H318 C348 0.950 . S
H319 C349 0.950 . S
C320 H302 0.951 . S
C320 C321 1.366 . S
C320 C322 1.388 . S
C321 C320 1.366 . S
C321 C325 1.385 1_545 S
C322 H303 0.951 . S
C322 C320 1.388 . S
C322 C323 1.366 . S
C323 C322 1.366 . S
C323 C324 1.414 1_545 S
C323 C326 1.497 . S
C324 H304 0.950 . S
C324 C323 1.414 1_565 S
C324 C325 1.374 . S
C325 H305 0.950 . S
C325 C321 1.385 1_565 S
C325 C324 1.374 . S
C326 C323 1.497 . S
C326 C327 1.373 1_545 S
C326 C328 1.390 . S
C327 H306 0.950 . S
C327 C326 1.373 1_565 S
C327 C343 1.366 . S
C328 C326 1.390 . S
C328 C329 1.524 . S
C328 C342 1.377 . S
C329 C328 1.524 . S
C329 C330 1.397 1_545 S
C329 C334 1.363 . S
C330 H307 0.950 . S
C330 C329 1.397 1_565 S
C330 C331 1.334 . S
C331 H308 0.950 . S
C331 C330 1.334 . S
C331 C332 1.287 . S
C332 C331 1.287 . S
C332 C333 1.524 1_565 S
C332 H351 0.913 . S
C333 H309 0.950 . S
C333 C332 1.524 1_545 S
C333 C334 1.415 . S
C334 H310 0.950 . S
C334 C329 1.363 . S
C334 C333 1.415 . S
C335 H311 0.951 . S
C335 C336 1.366 . S
C335 C337 1.388 . S
C336 C335 1.366 . S
C336 C340 1.385 1_565 S
C337 H312 0.951 . S
C337 C335 1.388 . S
C337 C338 1.366 . S
C338 C337 1.366 . S
C338 C339 1.414 1_565 S
C338 C341 1.499 1_565 S
C339 H313 0.950 . S
C339 C338 1.414 1_545 S
C339 C340 1.374 . S
C340 H314 0.950 . S
C340 C336 1.385 1_545 S
C340 C339 1.374 . S
C341 C338 1.499 1_545 S
C341 C342 1.373 . S
C341 C343 1.402 1_545 S
C342 H315 0.950 . S
C342 C328 1.377 . S
C342 C341 1.373 . S
C343 C327 1.366 . S
C343 C341 1.402 1_565 S
C343 C344 1.521 . S
C344 C343 1.521 . S
C344 C345 1.395 1_565 S
C344 C349 1.364 . S
C345 H316 0.950 . S
C345 C344 1.395 1_545 S
C345 C346 1.334 . S
C346 H317 0.950 . S
C346 C345 1.334 . S
C346 C347 1.287 . S
C347 C346 1.287 . S
C347 C348 1.524 1_545 S
C347 H350 0.999 . S
C348 H318 0.950 . S
C348 C347 1.524 1_565 S
C348 C349 1.415 . S
C349 H319 0.950 . S
C349 C344 1.364 . S
C349 C348 1.415 . S
H350 C347 0.999 . S
H351 C332 0.913 . S
H352 C370 0.951 . S
H353 C372 0.951 . S
H354 C374 0.950 . S
H355 C375 0.950 . S
H356 C377 0.950 . S
H357 C380 0.950 . S
H358 C381 0.950 . S
H359 C383 0.950 . S
H360 C384 0.950 . S
H361 C385 0.951 . S
H362 C387 0.951 . S
H363 C389 0.950 . S
H364 C390 0.950 . S
H365 C392 0.950 . S
H366 C395 0.950 . S
H367 C396 0.950 . S
H368 C398 0.950 . S
H369 C399 0.950 . S
C370 H352 0.951 . S
C370 C371 1.366 . S
C370 C372 1.388 . S
C371 C370 1.366 . S
C371 C375 1.385 . S
C372 H353 0.951 . S
C372 C370 1.388 . S
C372 C373 1.366 . S
C373 C372 1.366 . S
C373 C374 1.414 . S
C373 C376 1.499 . S
C374 H354 0.950 . S
C374 C373 1.414 . S
C374 C375 1.374 . S
C375 H355 0.950 . S
C375 C371 1.385 . S
C375 C374 1.374 . S
C376 C373 1.499 . S
C376 C377 1.373 . S
C376 C378 1.389 . S
C377 H356 0.950 . S
C377 C376 1.373 . S
C377 C393 1.377 . S
C378 C376 1.389 . S
C378 C379 1.524 . S
C378 C392 1.377 . S
C379 C378 1.524 . S
C379 C380 1.397 . S
C379 C384 1.363 . S
C380 H357 0.950 . S
C380 C379 1.397 . S
C380 C381 1.334 . S
C381 H358 0.950 . S
C381 C380 1.334 . S
C381 C382 1.287 . S
C382 C381 1.287 . S
C382 C383 1.524 . S
C382 H401 0.913 . S
C383 H359 0.950 . S
C383 C382 1.524 . S
C383 C384 1.415 . S
C384 H360 0.950 . S
C384 C379 1.363 . S
C384 C383 1.415 . S
C385 H361 0.951 . S
C385 C386 1.366 . S
C385 C387 1.388 . S
C386 C385 1.366 . S
C386 C390 1.385 . S
C387 H362 0.951 . S
C387 C385 1.388 . S
C387 C388 1.366 . S
C388 C387 1.366 . S
C388 C389 1.414 . S
C388 C391 1.499 . S
C389 H363 0.950 . S
C389 C388 1.414 . S
C389 C390 1.374 . S
C390 H364 0.950 . S
C390 C386 1.385 . S
C390 C389 1.374 . S
C391 C388 1.499 . S
C391 C392 1.373 . S
C391 C393 1.389 . S
C392 H365 0.950 . S
C392 C378 1.377 . S
C392 C391 1.373 . S
C393 C377 1.377 . S
C393 C391 1.389 . S
C393 C394 1.524 . S
C394 C393 1.524 . S
C394 C395 1.397 . S
C394 C399 1.363 . S
C395 H366 0.950 . S
C395 C394 1.397 . S
C395 C396 1.334 . S
C396 H367 0.950 . S
C396 C395 1.334 . S
C396 C397 1.287 . S
C397 C396 1.287 . S
C397 C398 1.524 . S
C397 H400 0.999 . S
C398 H368 0.950 . S
C398 C397 1.524 . S
C398 C399 1.415 . S
C399 H369 0.950 . S
C399 C394 1.363 . S
C399 C398 1.415 . S
H400 C397 0.999 . S
H401 C382 0.913 . S
H402 C420 0.951 . S
H403 C422 0.951 . S
H404 C424 0.950 . S
H405 C425 0.950 . S
H406 C427 0.950 . S
H407 C430 0.950 . S
H408 C431 0.950 . S
H409 C433 0.950 . S
H410 C434 0.950 1_554 S
H411 C435 0.951 . S
H412 C437 0.951 . S
H413 C439 0.950 . S
H414 C440 0.950 . S
H415 C442 0.950 . S
H416 C445 0.950 . S
H417 C446 0.950 . S
H418 C448 0.950 . S
H419 C449 0.950 1_556 S
C420 H402 0.951 . S
C420 C421 1.366 . S
C420 C422 1.388 . S
C421 C420 1.366 . S
C421 C425 1.385 1_554 S
C422 H403 0.951 . S
C422 C420 1.388 . S
C422 C423 1.366 . S
C423 C422 1.366 . S
C423 C424 1.414 1_554 S
C423 C426 1.499 1_554 S
C424 H404 0.950 . S
C424 C423 1.414 1_556 S
C424 C425 1.374 . S
C425 H405 0.950 . S
C425 C421 1.385 1_556 S
C425 C424 1.374 . S
C426 C423 1.499 1_556 S
C426 C427 1.373 1_556 S
C426 C428 1.389 . S
C427 H406 0.950 . S
C427 C426 1.373 1_554 S
C427 C443 1.377 . S
C428 C426 1.389 . S
C428 C429 1.524 . S
C428 C442 1.377 . S
C429 C428 1.524 . S
C429 C430 1.397 . S
C429 C434 1.363 . S
C430 H407 0.950 . S
C430 C429 1.397 . S
C430 C431 1.334 . S
C431 H408 0.950 . S
C431 C430 1.334 . S
C431 C432 1.287 . S
C432 C431 1.287 . S
C432 C433 1.524 . S
C432 H451 0.913 . S
C433 H409 0.950 . S
C433 C432 1.524 . S
C433 C434 1.415 . S
C434 H410 0.950 1_556 S
C434 C429 1.363 . S
C434 C433 1.415 . S
C435 H411 0.951 . S
C435 C436 1.366 . S
C435 C437 1.388 . S
C436 C435 1.366 . S
C436 C440 1.385 1_556 S
C437 H412 0.951 . S
C437 C435 1.388 . S
C437 C438 1.366 1_556 S
C438 C437 1.366 1_554 S
C438 C439 1.414 . S
C438 C441 1.499 . S
C439 H413 0.950 . S
C439 C438 1.414 . S
C439 C440 1.374 . S
C440 H414 0.950 . S
C440 C436 1.385 1_554 S
C440 C439 1.374 . S
C441 C438 1.499 . S
C441 C442 1.373 1_554 S
C441 C443 1.389 . S
C442 H415 0.950 . S
C442 C428 1.377 . S
C442 C441 1.373 1_556 S
C443 C427 1.377 . S
C443 C441 1.389 . S
C443 C444 1.524 . S
C444 C443 1.524 . S
C444 C445 1.397 . S
C444 C449 1.363 . S
C445 H416 0.950 . S
C445 C444 1.397 . S
C445 C446 1.334 . S
C446 H417 0.950 . S
C446 C445 1.334 . S
C446 C447 1.287 . S
C447 C446 1.287 . S
C447 C448 1.524 . S
C447 H450 0.999 . S
C448 H418 0.950 . S
C448 C447 1.524 . S
C448 C449 1.415 . S
C449 H419 0.950 1_554 S
C449 C444 1.363 . S
C449 C448 1.415 . S
H450 C447 0.999 . S
H451 C432 0.913 . S
H452 C470 0.951 . S
H453 C472 0.951 . S
H454 C474 0.950 . S
H455 C475 0.950 . S
H456 C477 0.950 . S
H457 C480 0.950 . S
H458 C481 0.950 . S
H459 C483 0.950 . S
H460 C484 0.950 . S
H461 C485 0.951 . S
H462 C487 0.951 . S
H463 C489 0.950 . S
H464 C490 0.950 1_556 S
H465 C492 0.950 . S
H466 C495 0.950 . S
H467 C496 0.950 . S
H468 C498 0.950 . S
H469 C499 0.950 . S
C470 H452 0.951 . S
C470 C471 1.366 . S
C470 C472 1.388 . S
C471 C470 1.366 . S
C471 C475 1.385 . S
C472 H453 0.951 . S
C472 C470 1.388 . S
C472 C473 1.366 . S
C473 C472 1.366 . S
C473 C474 1.414 . S
C473 C476 1.499 . S
C474 H454 0.950 . S
C474 C473 1.414 . S
C474 C475 1.374 . S
C475 H455 0.950 . S
C475 C471 1.385 . S
C475 C474 1.374 . S
C476 C473 1.499 . S
C476 C477 1.373 . S
C476 C478 1.389 1_556 S
C477 H456 0.950 . S
C477 C476 1.373 . S
C477 C493 1.377 . S
C478 C476 1.389 1_554 S
C478 C479 1.524 . S
C478 C492 1.377 . S
C479 C478 1.524 . S
C479 C480 1.397 . S
C479 C484 1.363 . S
C480 H457 0.950 . S
C480 C479 1.397 . S
C480 C481 1.334 . S
C481 H458 0.950 . S
C481 C480 1.334 . S
C481 C482 1.287 . S
C482 C481 1.287 . S
C482 C483 1.524 . S
C482 H501 0.913 . S
C483 H459 0.950 . S
C483 C482 1.524 . S
C483 C484 1.415 . S
C484 H460 0.950 . S
C484 C479 1.363 . S
C484 C483 1.415 . S
C485 H461 0.951 . S
C485 C486 1.366 . S
C485 C487 1.388 . S
C486 C485 1.366 . S
C486 C490 1.385 . S
C487 H462 0.951 . S
C487 C485 1.388 . S
C487 C488 1.366 . S
C488 C487 1.366 . S
C488 C489 1.414 1_554 S
C488 C491 1.499 1_554 S
C489 H463 0.950 . S
C489 C488 1.414 1_556 S
C489 C490 1.374 1_556 S
C490 H464 0.950 1_554 S
C490 C486 1.385 . S
C490 C489 1.374 1_554 S
C491 C488 1.499 1_556 S
C491 C492 1.373 1_556 S
C491 C493 1.389 . S
C492 H465 0.950 . S
C492 C478 1.377 . S
C492 C491 1.373 1_554 S
C493 C477 1.377 . S
C493 C491 1.389 . S
C493 C494 1.524 . S
C494 C493 1.524 . S
C494 C495 1.397 . S
C494 C499 1.363 . S
C495 H466 0.950 . S
C495 C494 1.397 . S
C495 C496 1.334 . S
C496 H467 0.950 . S
C496 C495 1.334 . S
C496 C497 1.287 . S
C497 C496 1.287 . S
C497 C498 1.524 . S
C497 H500 0.999 . S
C498 H468 0.950 . S
C498 C497 1.524 . S
C498 C499 1.415 . S
C499 H469 0.950 . S
C499 C494 1.363 . S
C499 C498 1.415 . S
H500 C497 0.999 . S
H501 C482 0.913 . S
H502 C520 0.951 . S
H503 C522 0.951 . S
H504 C524 0.950 . S
H505 C525 0.950 . S
H506 C527 0.950 . S
H507 C530 0.950 . S
H508 C531 0.950 . S
H509 C533 0.950 . S
H510 C534 0.950 . S
H511 C535 0.951 . S
H512 C537 0.951 . S
H513 C539 0.950 . S
H514 C540 0.950 . S
H515 C542 0.950 . S
H516 C545 0.950 . S
H517 C546 0.950 . S
H518 C548 0.950 . S
H519 C549 0.950 . S
C520 H502 0.951 . S
C520 C521 1.366 . S
C520 C522 1.388 . S
C521 C520 1.366 . S
C521 C525 1.385 1_556 S
C522 H503 0.951 . S
C522 C520 1.388 . S
C522 C523 1.366 . S
C523 C522 1.366 . S
C523 C524 1.414 1_556 S
C523 C526 1.499 . S
C524 H504 0.950 . S
C524 C523 1.414 1_554 S
C524 C525 1.374 . S
C525 H505 0.950 . S
C525 C521 1.385 1_554 S
C525 C524 1.374 . S
C526 C523 1.499 . S
C526 C527 1.373 1_556 S
C526 C528 1.389 . S
C527 H506 0.950 . S
C527 C526 1.373 1_554 S
C527 C543 1.377 . S
C528 C526 1.389 . S
C528 C529 1.524 . S
C528 C542 1.377 . S
C529 C528 1.524 . S
C529 C530 1.397 . S
C529 C534 1.363 . S
C530 H507 0.950 . S
C530 C529 1.397 . S
C530 C531 1.334 . S
C531 H508 0.950 . S
C531 C530 1.334 . S
C531 C532 1.287 . S
C532 C531 1.287 . S
C532 C533 1.524 . S
C532 H551 0.913 . S
C533 H509 0.950 . S
C533 C532 1.524 . S
C533 C534 1.415 . S
C534 H510 0.950 . S
C534 C529 1.363 . S
C534 C533 1.415 . S
C535 H511 0.951 . S
C535 C536 1.366 1_554 S
C535 C537 1.388 . S
C536 C535 1.366 1_556 S
C536 C540 1.385 . S
C537 H512 0.951 . S
C537 C535 1.388 . S
C537 C538 1.366 1_554 S
C538 C537 1.366 1_556 S
C538 C539 1.414 . S
C538 C541 1.499 . S
C539 H513 0.950 . S
C539 C538 1.414 . S
C539 C540 1.374 . S
C540 H514 0.950 . S
C540 C536 1.385 . S
C540 C539 1.374 . S
C541 C538 1.499 . S
C541 C542 1.373 . S
C541 C543 1.389 1_556 S
C542 H515 0.950 . S
C542 C528 1.377 . S
C542 C541 1.373 . S
C543 C527 1.377 . S
C543 C541 1.389 1_554 S
C543 C544 1.524 . S
C544 C543 1.524 . S
C544 C545 1.397 . S
C544 C549 1.363 . S
C545 H516 0.950 . S
C545 C544 1.397 . S
C545 C546 1.334 . S
C546 H517 0.950 . S
C546 C545 1.334 . S
C546 C547 1.287 . S
C547 C546 1.287 . S
C547 C548 1.524 . S
C547 H550 0.999 . S
C548 H518 0.950 . S
C548 C547 1.524 . S
C548 C549 1.415 . S
C549 H519 0.950 . S
C549 C544 1.363 . S
C549 C548 1.415 . S
H550 C547 0.999 . S
H551 C532 0.913 . S
H552 C570 0.951 . S
H553 C572 0.951 . S
H554 C574 0.950 . S
H555 C575 0.950 . S
H556 C577 0.950 . S
H557 C580 0.950 . S
H558 C581 0.950 . S
H559 C583 0.950 . S
H560 C584 0.950 . S
H561 C585 0.951 . S
H562 C587 0.951 . S
H563 C589 0.950 . S
H564 C590 0.950 . S
H565 C592 0.951 . S
H566 C595 0.950 . S
H567 C596 0.950 . S
H568 C598 0.950 . S
H569 C599 0.950 . S
C570 H552 0.951 . S
C570 C571 1.366 . S
C570 C572 1.388 . S
C571 C570 1.366 . S
C571 C575 1.385 1_556 S
C572 H553 0.951 . S
C572 C570 1.388 . S
C572 C573 1.376 . S
C573 C572 1.376 . S
C573 C574 1.405 1_556 S
C573 C576 1.497 1_556 S
C574 H554 0.950 . S
C574 C573 1.405 1_554 S
C574 C575 1.374 . S
C575 H555 0.950 . S
C575 C571 1.385 1_554 S
C575 C574 1.374 . S
C576 C573 1.497 1_554 S
C576 C577 1.373 1_554 S
C576 C578 1.389 . S
C577 H556 0.950 . S
C577 C576 1.373 1_556 S
C577 C593 1.377 . S
C578 C576 1.389 . S
C578 C579 1.524 . S
C578 C592 1.376 . S
C579 C578 1.524 . S
C579 C580 1.397 . S
C579 C584 1.363 1_554 S
C580 H557 0.950 . S
C580 C579 1.397 . S
C580 C581 1.334 . S
C581 H558 0.950 . S
C581 C580 1.334 . S
C581 C582 1.287 . S
C582 C581 1.287 . S
C582 C583 1.524 1_554 S
C582 H601 0.913 . S
C583 H559 0.950 . S
C583 C582 1.524 1_556 S
C583 C584 1.415 . S
C584 H560 0.950 . S
C584 C579 1.363 1_556 S
C584 C583 1.415 . S
C585 H561 0.951 . S
C585 C586 1.366 . S
C585 C587 1.388 . S
C586 C585 1.366 . S
C586 C590 1.385 1_554 S
C587 H562 0.951 . S
C587 C585 1.388 . S
C587 C588 1.361 1_554 S
C588 C587 1.361 1_556 S
C588 C589 1.418 . S
C588 C591 1.500 . S
C589 H563 0.950 . S
C589 C588 1.418 . S
C589 C590 1.374 . S
C590 H564 0.950 . S
C590 C586 1.385 1_556 S
C590 C589 1.374 . S
C591 C588 1.500 . S
C591 C592 1.373 1_556 S
C591 C593 1.389 . S
C592 H565 0.951 . S
C592 C578 1.376 . S
C592 C591 1.373 1_554 S
C593 C577 1.377 . S
C593 C591 1.389 . S
C593 C594 1.524 . S
C594 C593 1.524 . S
C594 C595 1.397 . S
C594 C599 1.363 1_556 S
C595 H566 0.950 . S
C595 C594 1.397 . S
C595 C596 1.334 . S
C596 H567 0.950 . S
C596 C595 1.334 . S
C596 C597 1.287 . S
C597 C596 1.287 . S
C597 C598 1.524 1_556 S
C597 H600 0.999 . S
C598 H568 0.950 . S
C598 C597 1.524 1_554 S
C598 C599 1.415 . S
C599 H569 0.950 . S
C599 C594 1.363 1_554 S
C599 C598 1.415 . S
H600 C597 0.999 . S
H601 C582 0.913 . S
H602 C620 0.951 . S
H603 C622 0.951 . S
H604 C624 0.950 . S
H605 C625 0.950 . S
H606 C627 0.950 . S
H607 C630 0.950 . S
H608 C631 0.950 . S
H609 C633 0.950 . S
H610 C634 0.950 . S
H611 C635 0.951 . S
H612 C637 0.951 . S
H613 C639 0.950 . S
H614 C640 0.950 . S
H615 C642 0.950 . S
H616 C645 0.950 . S
H617 C646 0.950 . S
H618 C648 0.950 . S
H619 C649 0.950 . S
C620 H602 0.951 . S
C620 C621 1.366 . S
C620 C622 1.388 . S
C621 C620 1.366 . S
C621 C625 1.385 1_556 S
C622 H603 0.951 . S
C622 C620 1.388 . S
C622 C623 1.366 . S
C623 C622 1.366 . S
C623 C624 1.414 1_556 S
C623 C626 1.499 1_556 S
C624 H604 0.950 . S
C624 C623 1.414 1_554 S
C624 C625 1.374 . S
C625 H605 0.950 . S
C625 C621 1.385 1_554 S
C625 C624 1.374 . S
C626 C623 1.499 1_554 S
C626 C627 1.373 . S
C626 C628 1.389 1_554 S
C627 H606 0.950 . S
C627 C626 1.373 . S
C627 C643 1.377 . S
C628 C626 1.389 1_556 S
C628 C629 1.524 . S
C628 C642 1.377 . S
C629 C628 1.524 . S
C629 C630 1.397 . S
C629 C634 1.363 . S
C630 H607 0.950 . S
C630 C629 1.397 . S
C630 C631 1.334 . S
C631 H608 0.950 . S
C631 C630 1.334 . S
C631 C632 1.287 . S
C632 C631 1.287 . S
C632 C633 1.524 . S
C632 H651 0.913 . S
C633 H609 0.950 . S
C633 C632 1.524 . S
C633 C634 1.415 . S
C634 H610 0.950 . S
C634 C629 1.363 . S
C634 C633 1.415 . S
C635 H611 0.951 . S
C635 C636 1.366 . S
C635 C637 1.388 . S
C636 C635 1.366 . S
C636 C640 1.385 1_554 S
C637 H612 0.951 . S
C637 C635 1.388 . S
C637 C638 1.366 . S
C638 C637 1.366 . S
C638 C639 1.414 1_554 S
C638 C641 1.499 . S
C639 H613 0.950 . S
C639 C638 1.414 1_556 S
C639 C640 1.374 . S
C640 H614 0.950 . S
C640 C636 1.385 1_556 S
C640 C639 1.374 . S
C641 C638 1.499 . S
C641 C642 1.373 1_554 S
C641 C643 1.389 . S
C642 H615 0.950 . S
C642 C628 1.377 . S
C642 C641 1.373 1_556 S
C643 C627 1.377 . S
C643 C641 1.389 . S
C643 C644 1.524 . S
C644 C643 1.524 . S
C644 C645 1.397 . S
C644 C649 1.363 . S
C645 H616 0.950 . S
C645 C644 1.397 . S
C645 C646 1.334 . S
C646 H617 0.950 . S
C646 C645 1.334 . S
C646 C647 1.287 . S
C647 C646 1.287 . S
C647 C648 1.524 . S
C647 H650 0.999 . S
C648 H618 0.950 . S
C648 C647 1.524 . S
C648 C649 1.415 . S
C649 H619 0.950 . S
C649 C644 1.363 . S
C649 C648 1.415 . S
H650 C647 0.999 . S
H651 C632 0.913 . S
H652 C670 0.951 . S
H653 C672 0.951 . S
H654 C674 0.950 . S
H655 C675 0.950 . S
H656 C677 0.950 . S
H657 C680 0.950 1_554 S
H658 C681 0.950 . S
H659 C683 0.950 . S
H660 C684 0.950 . S
H661 C685 0.951 . S
H662 C687 0.951 . S
H663 C689 0.950 . S
H664 C690 0.950 . S
H665 C692 0.950 . S
H666 C695 0.950 . S
H667 C696 0.950 . S
H668 C698 0.950 . S
H669 C699 0.950 . S
C670 H652 0.951 . S
C670 C671 1.366 1_556 S
C670 C672 1.388 . S
C671 C670 1.366 1_554 S
C671 C675 1.385 . S
C672 H653 0.951 . S
C672 C670 1.388 . S
C672 C673 1.366 1_556 S
C673 C672 1.366 1_554 S
C673 C674 1.414 . S
C673 C676 1.499 . S
C674 H654 0.950 . S
C674 C673 1.414 . S
C674 C675 1.374 . S
C675 H655 0.950 . S
C675 C671 1.385 . S
C675 C674 1.374 . S
C676 C673 1.499 . S
C676 C677 1.373 . S
C676 C678 1.389 1_554 S
C677 H656 0.950 . S
C677 C676 1.373 . S
C677 C693 1.377 . S
C678 C676 1.389 1_556 S
C678 C679 1.524 . S
C678 C692 1.377 . S
C679 C678 1.524 . S
C679 C680 1.397 . S
C679 C684 1.363 . S
C680 H657 0.950 1_556 S
C680 C679 1.397 . S
C680 C681 1.334 . S
C681 H658 0.950 . S
C681 C680 1.334 . S
C681 C682 1.287 . S
C682 C681 1.287 . S
C682 C683 1.524 . S
C682 H701 0.913 . S
C683 H659 0.950 . S
C683 C682 1.524 . S
C683 C684 1.415 . S
C684 H660 0.950 . S
C684 C679 1.363 . S
C684 C683 1.415 . S
C685 H661 0.951 . S
C685 C686 1.366 . S
C685 C687 1.388 . S
C686 C685 1.366 . S
C686 C690 1.385 1_554 S
C687 H662 0.951 . S
C687 C685 1.388 . S
C687 C688 1.366 . S
C688 C687 1.366 . S
C688 C689 1.414 1_554 S
C688 C691 1.499 . S
C689 H663 0.950 . S
C689 C688 1.414 1_556 S
C689 C690 1.374 . S
C690 H664 0.950 . S
C690 C686 1.385 1_556 S
C690 C689 1.374 . S
C691 C688 1.499 . S
C691 C692 1.373 1_554 S
C691 C693 1.389 . S
C692 H665 0.950 . S
C692 C678 1.377 . S
C692 C691 1.373 1_556 S
C693 C677 1.377 . S
C693 C691 1.389 . S
C693 C694 1.524 . S
C694 C693 1.524 . S
C694 C695 1.397 . S
C694 C699 1.363 . S
C695 H666 0.950 . S
C695 C694 1.397 . S
C695 C696 1.334 . S
C696 H667 0.950 . S
C696 C695 1.334 . S
C696 C697 1.287 . S
C697 C696 1.287 . S
C697 C698 1.524 . S
C697 H700 0.999 . S
C698 H668 0.950 . S
C698 C697 1.524 . S
C698 C699 1.415 . S
C699 H669 0.950 . S
C699 C694 1.363 . S
C699 C698 1.415 . S
H700 C697 0.999 . S
H701 C682 0.913 . S
C271 C63 1.483 1_455 S
C286 C74 1.483 . S
C321 C147 1.519 . S
C336 C158 1.519 . S
C371 C242 1.478 . S
C386 C231 1.478 . S
C421 C67 2.261 . S
C436 C224 2.275 . S
C471 C153 0.749 . S
C486 C69 0.748 1_554 S
C521 C151 1.535 . S
C536 C237 1.404 1_556 S
C571 C56 2.261 . S
C586 C235 2.275 . S
C621 C58 0.745 1_556 S
C636 C142 0.745 . S
C671 C226 1.404 1_554 S
C686 C140 1.536 . S
